# Generated by pormake.
# Topology uoa, (4)-cn, num edge types: 1
# Building blocks:
#     Node 0, Type 0, BuildingBlock: KOZSID_clean_sbu_0, # of connection points: 4
#     Node 1, Type 0, BuildingBlock: KOZSID_clean_sbu_0, # of connection points: 4
#     Node 2, Type 0, BuildingBlock: KOZSID_clean_sbu_0, # of connection points: 4
#     Node 3, Type 0, BuildingBlock: KOZSID_clean_sbu_0, # of connection points: 4
#     Node 4, Type 0, BuildingBlock: KOZSID_clean_sbu_0, # of connection points: 4
#     Node 5, Type 0, BuildingBlock: KOZSID_clean_sbu_0, # of connection points: 4
#     Node 6, Type 0, BuildingBlock: KOZSID_clean_sbu_0, # of connection points: 4
#     Node 7, Type 0, BuildingBlock: KOZSID_clean_sbu_0, # of connection points: 4
#     Node 8, Type 0, BuildingBlock: KOZSID_clean_sbu_0, # of connection points: 4
#     Node 9, Type 0, BuildingBlock: KOZSID_clean_sbu_0, # of connection points: 4
#     Node 10, Type 0, BuildingBlock: KOZSID_clean_sbu_0, # of connection points: 4
#     Node 11, Type 0, BuildingBlock: KOZSID_clean_sbu_0, # of connection points: 4
#     Node 12, Type 0, BuildingBlock: KOZSID_clean_sbu_0, # of connection points: 4
#     Node 13, Type 0, BuildingBlock: KOZSID_clean_sbu_0, # of connection points: 4
#     Node 14, Type 0, BuildingBlock: KOZSID_clean_sbu_0, # of connection points: 4
#     Node 15, Type 0, BuildingBlock: KOZSID_clean_sbu_0, # of connection points: 4
#     Node 16, Type 0, BuildingBlock: KOZSID_clean_sbu_0, # of connection points: 4
#     Node 17, Type 0, BuildingBlock: KOZSID_clean_sbu_0, # of connection points: 4
#     Node 18, Type 0, BuildingBlock: KOZSID_clean_sbu_0, # of connection points: 4
#     Node 19, Type 0, BuildingBlock: KOZSID_clean_sbu_0, # of connection points: 4
#     Node 20, Type 0, BuildingBlock: KOZSID_clean_sbu_0, # of connection points: 4
#     Node 21, Type 0, BuildingBlock: KOZSID_clean_sbu_0, # of connection points: 4
#     Node 22, Type 0, BuildingBlock: KOZSID_clean_sbu_0, # of connection points: 4
#     Node 23, Type 0, BuildingBlock: KOZSID_clean_sbu_0, # of connection points: 4
#     Node 24, Type 0, BuildingBlock: KOZSID_clean_sbu_0, # of connection points: 4
#     Node 25, Type 0, BuildingBlock: KOZSID_clean_sbu_0, # of connection points: 4
#     Node 26, Type 0, BuildingBlock: KOZSID_clean_sbu_0, # of connection points: 4
#     Node 27, Type 0, BuildingBlock: KOZSID_clean_sbu_0, # of connection points: 4
#     Node 28, Type 0, BuildingBlock: KOZSID_clean_sbu_0, # of connection points: 4
#     Node 29, Type 0, BuildingBlock: KOZSID_clean_sbu_0, # of connection points: 4
#     Node 30, Type 0, BuildingBlock: KOZSID_clean_sbu_0, # of connection points: 4
#     Node 31, Type 0, BuildingBlock: KOZSID_clean_sbu_0, # of connection points: 4
#     Edge 32, Type (0, 0), BuildingBlock: EZIPEK_clean_linker_0, # of connection points: 2
#     Edge 33, Type (0, 0), BuildingBlock: EZIPEK_clean_linker_0, # of connection points: 2
#     Edge 34, Type (0, 0), BuildingBlock: EZIPEK_clean_linker_0, # of connection points: 2
#     Edge 35, Type (0, 0), BuildingBlock: EZIPEK_clean_linker_0, # of connection points: 2
#     Edge 36, Type (0, 0), BuildingBlock: EZIPEK_clean_linker_0, # of connection points: 2
#     Edge 37, Type (0, 0), BuildingBlock: EZIPEK_clean_linker_0, # of connection points: 2
#     Edge 38, Type (0, 0), BuildingBlock: EZIPEK_clean_linker_0, # of connection points: 2
#     Edge 39, Type (0, 0), BuildingBlock: EZIPEK_clean_linker_0, # of connection points: 2
#     Edge 40, Type (0, 0), BuildingBlock: EZIPEK_clean_linker_0, # of connection points: 2
#     Edge 41, Type (0, 0), BuildingBlock: EZIPEK_clean_linker_0, # of connection points: 2
#     Edge 42, Type (0, 0), BuildingBlock: EZIPEK_clean_linker_0, # of connection points: 2
#     Edge 43, Type (0, 0), BuildingBlock: EZIPEK_clean_linker_0, # of connection points: 2
#     Edge 44, Type (0, 0), BuildingBlock: EZIPEK_clean_linker_0, # of connection points: 2
#     Edge 45, Type (0, 0), BuildingBlock: EZIPEK_clean_linker_0, # of connection points: 2
#     Edge 46, Type (0, 0), BuildingBlock: EZIPEK_clean_linker_0, # of connection points: 2
#     Edge 47, Type (0, 0), BuildingBlock: EZIPEK_clean_linker_0, # of connection points: 2
#     Edge 48, Type (0, 0), BuildingBlock: EZIPEK_clean_linker_0, # of connection points: 2
#     Edge 49, Type (0, 0), BuildingBlock: EZIPEK_clean_linker_0, # of connection points: 2
#     Edge 50, Type (0, 0), BuildingBlock: EZIPEK_clean_linker_0, # of connection points: 2
#     Edge 51, Type (0, 0), BuildingBlock: EZIPEK_clean_linker_0, # of connection points: 2
#     Edge 52, Type (0, 0), BuildingBlock: EZIPEK_clean_linker_0, # of connection points: 2
#     Edge 53, Type (0, 0), BuildingBlock: EZIPEK_clean_linker_0, # of connection points: 2
#     Edge 54, Type (0, 0), BuildingBlock: EZIPEK_clean_linker_0, # of connection points: 2
#     Edge 55, Type (0, 0), BuildingBlock: EZIPEK_clean_linker_0, # of connection points: 2
#     Edge 56, Type (0, 0), BuildingBlock: EZIPEK_clean_linker_0, # of connection points: 2
#     Edge 57, Type (0, 0), BuildingBlock: EZIPEK_clean_linker_0, # of connection points: 2
#     Edge 58, Type (0, 0), BuildingBlock: EZIPEK_clean_linker_0, # of connection points: 2
#     Edge 59, Type (0, 0), BuildingBlock: EZIPEK_clean_linker_0, # of connection points: 2
#     Edge 60, Type (0, 0), BuildingBlock: EZIPEK_clean_linker_0, # of connection points: 2
#     Edge 61, Type (0, 0), BuildingBlock: EZIPEK_clean_linker_0, # of connection points: 2
#     Edge 62, Type (0, 0), BuildingBlock: EZIPEK_clean_linker_0, # of connection points: 2
#     Edge 63, Type (0, 0), BuildingBlock: EZIPEK_clean_linker_0, # of connection points: 2
#     Edge 64, Type (0, 0), BuildingBlock: EZIPEK_clean_linker_0, # of connection points: 2
#     Edge 65, Type (0, 0), BuildingBlock: EZIPEK_clean_linker_0, # of connection points: 2
#     Edge 66, Type (0, 0), BuildingBlock: EZIPEK_clean_linker_0, # of connection points: 2
#     Edge 67, Type (0, 0), BuildingBlock: EZIPEK_clean_linker_0, # of connection points: 2
#     Edge 68, Type (0, 0), BuildingBlock: EZIPEK_clean_linker_0, # of connection points: 2
#     Edge 69, Type (0, 0), BuildingBlock: EZIPEK_clean_linker_0, # of connection points: 2
#     Edge 70, Type (0, 0), BuildingBlock: EZIPEK_clean_linker_0, # of connection points: 2
#     Edge 71, Type (0, 0), BuildingBlock: EZIPEK_clean_linker_0, # of connection points: 2
#     Edge 72, Type (0, 0), BuildingBlock: EZIPEK_clean_linker_0, # of connection points: 2
#     Edge 73, Type (0, 0), BuildingBlock: EZIPEK_clean_linker_0, # of connection points: 2
#     Edge 74, Type (0, 0), BuildingBlock: EZIPEK_clean_linker_0, # of connection points: 2
#     Edge 75, Type (0, 0), BuildingBlock: EZIPEK_clean_linker_0, # of connection points: 2
#     Edge 76, Type (0, 0), BuildingBlock: EZIPEK_clean_linker_0, # of connection points: 2
#     Edge 77, Type (0, 0), BuildingBlock: EZIPEK_clean_linker_0, # of connection points: 2
#     Edge 78, Type (0, 0), BuildingBlock: EZIPEK_clean_linker_0, # of connection points: 2
#     Edge 79, Type (0, 0), BuildingBlock: EZIPEK_clean_linker_0, # of connection points: 2
#     Edge 80, Type (0, 0), BuildingBlock: EZIPEK_clean_linker_0, # of connection points: 2
#     Edge 81, Type (0, 0), BuildingBlock: EZIPEK_clean_linker_0, # of connection points: 2
#     Edge 82, Type (0, 0), BuildingBlock: EZIPEK_clean_linker_0, # of connection points: 2
#     Edge 83, Type (0, 0), BuildingBlock: EZIPEK_clean_linker_0, # of connection points: 2
#     Edge 84, Type (0, 0), BuildingBlock: EZIPEK_clean_linker_0, # of connection points: 2
#     Edge 85, Type (0, 0), BuildingBlock: EZIPEK_clean_linker_0, # of connection points: 2
#     Edge 86, Type (0, 0), BuildingBlock: EZIPEK_clean_linker_0, # of connection points: 2
#     Edge 87, Type (0, 0), BuildingBlock: EZIPEK_clean_linker_0, # of connection points: 2
#     Edge 88, Type (0, 0), BuildingBlock: EZIPEK_clean_linker_0, # of connection points: 2
#     Edge 89, Type (0, 0), BuildingBlock: EZIPEK_clean_linker_0, # of connection points: 2
#     Edge 90, Type (0, 0), BuildingBlock: EZIPEK_clean_linker_0, # of connection points: 2
#     Edge 91, Type (0, 0), BuildingBlock: EZIPEK_clean_linker_0, # of connection points: 2
#     Edge 92, Type (0, 0), BuildingBlock: EZIPEK_clean_linker_0, # of connection points: 2
#     Edge 93, Type (0, 0), BuildingBlock: EZIPEK_clean_linker_0, # of connection points: 2
#     Edge 94, Type (0, 0), BuildingBlock: EZIPEK_clean_linker_0, # of connection points: 2
#     Edge 95, Type (0, 0), BuildingBlock: EZIPEK_clean_linker_0, # of connection points: 2
# Relax obj value: 0.032
# Max RMSD: 0.244
# Mean RMSD: 0.244
data_MOF--net-uoa--node1-KOZSID_clean_sbu_0--edge1-EZIPEK_clean_linker_0
_symmetry_space_group_name_H-M    P1
_symmetry_Int_Tables_number       1
_symmetry_cell_setting            triclinic
loop_
_symmetry_equiv_pos_as_xyz
'x, y, z'
_cell_length_a     78.13793
_cell_length_b     78.285381
_cell_length_c     25.201943
_cell_angle_alpha  89.871645
_cell_angle_beta   90.044986
_cell_angle_gamma 89.995129
loop_
_atom_site_label
_atom_site_type_symbol
_atom_site_fract_x
_atom_site_fract_y
_atom_site_fract_z
_atom_type_partial_charge
C0 C 1.01391 0.11243 0.96717 0.0
C1 C 0.99923 0.11784 0.94065 0.0
C2 C 0.9902 0.12767 0.9751 0.0
C3 C 0.99937 0.12723 0.02133 0.0
N4 N 1.01373 0.11772 0.0183 0.0
Co5 Co 0.02854 0.11088 0.07908 0.0
N6 N 1.01 0.11622 0.13101 0.0
C7 C 0.9959 0.12561 0.12101 0.0
C8 C 0.98457 0.12615 0.16232 0.0
C9 C 0.99201 0.11674 0.20149 0.0
C10 C 1.00778 0.1113 0.18221 0.0
N11 N 0.04292 0.1047 0.14121 0.0
C12 C 0.03869 0.1025 0.19352 0.0
C13 C 0.05329 0.0995 0.22336 0.0
C14 C 0.06696 0.09992 0.18871 0.0
C15 C 0.06007 0.10324 0.13946 0.0
N16 N 0.04617 0.10486 0.02566 0.0
C17 C 0.06284 0.10248 0.03652 0.0
C18 C 0.07204 0.09828 0.99181 0.0
C19 C 0.06034 0.09801 0.95063 0.0
C20 C 0.04454 0.10202 0.97223 0.0
N21 N 0.03861 0.13496 0.085 0.0
C22 C 0.06217 0.16301 0.10757 0.0
C23 C 0.06272 0.15342 0.06014 0.0
C24 C 0.05041 0.14061 0.04837 0.0
C25 C 0.04823 0.15876 0.14124 0.0
C26 C 0.03726 0.14454 0.13056 0.0
N27 N 0.02085 0.08637 0.07295 0.0
C28 C 0.03084 0.05697 0.06465 0.0
C29 C 1.01519 0.0513 0.04471 0.0
C30 C 1.00189 0.06363 0.04211 0.0
C31 C 1.00504 0.0811 0.05563 0.0
C32 C 0.03327 0.07407 0.079 0.0
H33 H 0.99488 0.09033 0.05068 0.0
H34 H 0.04584 0.07727 0.09242 0.0
H35 H 0.05129 0.13472 0.00992 0.0
H36 H 0.02803 0.14111 0.16035 0.0
C37 C 0.99215 0.13104 0.07004 0.0
C38 C 0.02837 0.10389 0.94086 0.0
C39 C 0.02116 0.10407 0.21643 0.0
C40 C 0.06861 0.10251 0.08987 0.0
H41 H 0.99515 0.11483 0.90078 0.0
H42 H 0.97763 0.13312 0.96864 0.0
H43 H 0.97206 0.13209 0.16313 0.0
H44 H 0.98655 0.11455 0.24035 0.0
H45 H 0.05396 0.09729 0.26572 0.0
H46 H 0.08026 0.09759 0.1982 0.0
H47 H 0.08554 0.0953 0.98951 0.0
H48 H 0.06308 0.09518 0.90949 0.0
H49 H 0.07281 0.1556 0.03155 0.0
H50 H 0.04612 0.16594 0.17729 0.0
H51 H 0.04146 0.04815 0.06848 0.0
H52 H 0.98932 0.05994 0.02818 0.0
C53 C 0.1664 0.7651 0.21844 0.0
C54 C 0.16111 0.75048 0.19164 0.0
C55 C 0.15161 0.74113 0.22625 0.0
C56 C 0.15216 0.75006 0.27278 0.0
N57 N 0.16141 0.7646 0.26974 0.0
Co58 Co 0.16826 0.77935 0.33031 0.0
N59 N 0.16355 0.76053 0.38184 0.0
C60 C 0.15475 0.74609 0.37186 0.0
C61 C 0.15536 0.73438 0.41218 0.0
C62 C 0.16488 0.74195 0.45071 0.0
C63 C 0.16909 0.75819 0.43228 0.0
N64 N 0.17438 0.79367 0.39239 0.0
C65 C 0.17651 0.78938 0.44466 0.0
C66 C 0.17921 0.80392 0.4748 0.0
C67 C 0.17866 0.81763 0.44035 0.0
C68 C 0.17557 0.81082 0.39097 0.0
N69 N 0.17372 0.79727 0.27727 0.0
C70 C 0.1759 0.81392 0.28829 0.0
C71 C 0.17977 0.82329 0.24357 0.0
C72 C 0.18004 0.81172 0.20222 0.0
C73 C 0.17636 0.79584 0.22382 0.0
N74 N 0.14391 0.78887 0.33717 0.0
C75 C 0.11499 0.81132 0.36074 0.0
C76 C 0.12465 0.81251 0.31348 0.0
C77 C 0.13792 0.80075 0.30121 0.0
C78 C 0.11968 0.79732 0.39369 0.0
C79 C 0.13427 0.78688 0.38244 0.0
N80 N 0.19303 0.77215 0.32295 0.0
C81 C 0.22242 0.78244 0.31369 0.0
C82 C 0.22834 0.76682 0.29432 0.0
C83 C 0.21608 0.75343 0.29238 0.0
C84 C 0.19853 0.7564 0.30602 0.0
C85 C 0.20522 0.78472 0.32823 0.0
H86 H 0.18942 0.74612 0.30158 0.0
H87 H 0.20183 0.79724 0.34146 0.0
H88 H 0.14378 0.80207 0.26281 0.0
H89 H 0.13787 0.77743 0.41135 0.0
C90 C 0.14895 0.74246 0.32132 0.0
C91 C 0.17462 0.77978 0.19254 0.0
C92 C 0.17529 0.77181 0.46717 0.0
C93 C 0.17599 0.81954 0.34165 0.0
H94 H 0.16402 0.74662 0.15152 0.0
H95 H 0.1464 0.7285 0.21968 0.0
H96 H 0.15013 0.72157 0.41261 0.0
H97 H 0.16788 0.73627 0.48878 0.0
H98 H 0.18131 0.80452 0.5172 0.0
H99 H 0.18069 0.83094 0.45009 0.0
H100 H 0.18254 0.83681 0.24135 0.0
H101 H 0.18266 0.8146 0.161 0.0
H102 H 0.12212 0.82267 0.28537 0.0
H103 H 0.1125 0.79475 0.42954 0.0
H104 H 0.23113 0.79316 0.31701 0.0
H105 H 0.2199 0.74088 0.27886 0.0
C106 C 0.51702 0.91431 0.46921 0.0
C107 C 0.52992 0.90628 0.44039 0.0
C108 C 0.53898 0.89655 0.47528 0.0
C109 C 0.53149 0.8994 0.52349 0.0
N110 N 0.51815 0.91031 0.52137 0.0
Co111 Co 0.50466 0.91842 0.58343 0.0
N112 N 0.52347 0.91217 0.63351 0.0
C113 C 0.53713 0.90236 0.62204 0.0
C114 C 0.54934 0.90221 0.66099 0.0
C115 C 0.54292 0.91231 0.70015 0.0
C116 C 0.52678 0.91762 0.68361 0.0
N117 N 0.49134 0.92518 0.64716 0.0
C118 C 0.49625 0.92707 0.69902 0.0
C119 C 0.48217 0.93089 0.73024 0.0
C120 C 0.46817 0.93147 0.69687 0.0
C121 C 0.47433 0.92783 0.64699 0.0
N122 N 0.48691 0.92562 0.53185 0.0
C123 C 0.47071 0.92959 0.54441 0.0
C124 C 0.46158 0.93513 0.50087 0.0
C125 C 0.47285 0.93461 0.45864 0.0
C126 C 0.48833 0.92879 0.47851 0.0
N127 N 0.49337 0.89502 0.59052 0.0
C128 C 0.46932 0.86744 0.61205 0.0
C129 C 0.46942 0.87666 0.56378 0.0
C130 C 0.48179 0.88954 0.55303 0.0
C131 C 0.48268 0.87189 0.64756 0.0
C132 C 0.49402 0.88579 0.63697 0.0
N133 N 0.51368 0.94256 0.57566 0.0
C134 C 0.50548 0.97271 0.57616 0.0
C135 C 0.51819 0.97713 0.5399 0.0
C136 C 0.52971 0.96402 0.52536 0.0
C137 C 0.52733 0.94693 0.54397 0.0
C138 C 0.50342 0.95575 0.59304 0.0
H139 H 0.5361 0.93724 0.5304 0.0
H140 H 0.49247 0.95363 0.6175 0.0
H141 H 0.48124 0.89557 0.5146 0.0
H142 H 0.5029 0.8894 0.66753 0.0
C143 C 0.53955 0.89599 0.57135 0.0
C144 C 0.50384 0.92528 0.44549 0.0
C145 C 0.51401 0.92499 0.71992 0.0
C146 C 0.46551 0.92977 0.59821 0.0
H147 H 0.53298 0.90762 0.39881 0.0
H148 H 0.55058 0.88946 0.46715 0.0
H149 H 0.56174 0.89606 0.66013 0.0
H150 H 0.54929 0.91499 0.73732 0.0
H151 H 0.48209 0.93322 0.77256 0.0
H152 H 0.45518 0.93481 0.70751 0.0
H153 H 0.44845 0.93952 0.50004 0.0
H154 H 0.47003 0.93805 0.41795 0.0
H155 H 0.45977 0.87411 0.53398 0.0
H156 H 0.48397 0.86511 0.68483 0.0
H157 H 0.49643 0.98227 0.58951 0.0
H158 H 0.54004 0.96677 0.49807 0.0
C159 C 0.36298 0.26622 0.71814 0.0
C160 C 0.36814 0.28094 0.69145 0.0
C161 C 0.37741 0.29038 0.72632 0.0
C162 C 0.37692 0.28136 0.77282 0.0
N163 N 0.36785 0.26673 0.76971 0.0
Co164 Co 0.36128 0.2518 0.83057 0.0
N165 N 0.36624 0.27045 0.88245 0.0
C166 C 0.3753 0.28474 0.87243 0.0
C167 C 0.37568 0.29603 0.91376 0.0
C168 C 0.36652 0.28836 0.95301 0.0
C169 C 0.36137 0.27253 0.9337 0.0
N170 N 0.35538 0.23734 0.89283 0.0
C171 C 0.35313 0.24153 0.94513 0.0
C172 C 0.35044 0.22691 0.97507 0.0
C173 C 0.35114 0.21327 0.94052 0.0
C174 C 0.35429 0.2202 0.89124 0.0
N175 N 0.35577 0.234 0.7772 0.0
C176 C 0.3538 0.21733 0.78833 0.0
C177 C 0.35021 0.20791 0.74359 0.0
C178 C 0.34995 0.21946 0.70203 0.0
C179 C 0.35336 0.23539 0.72345 0.0
N180 N 0.38557 0.24225 0.83681 0.0
C181 C 0.41368 0.21876 0.85911 0.0
C182 C 0.40486 0.21904 0.8101 0.0
C183 C 0.39184 0.23124 0.79894 0.0
C184 C 0.40872 0.23188 0.89468 0.0
C185 C 0.39458 0.24292 0.8837 0.0
N186 N 0.3365 0.25893 0.82427 0.0
C187 C 0.30704 0.24858 0.81873 0.0
C188 C 0.301 0.26406 0.79869 0.0
C189 C 0.3132 0.2774 0.79392 0.0
C190 C 0.33084 0.27455 0.80654 0.0
C191 C 0.32439 0.24636 0.83137 0.0
H192 H 0.3399 0.2848 0.80045 0.0
H193 H 0.32791 0.23385 0.84449 0.0
H194 H 0.38623 0.23089 0.75991 0.0
H195 H 0.39059 0.25157 0.91438 0.0
C196 C 0.38053 0.28866 0.82147 0.0
C197 C 0.35526 0.25142 0.69154 0.0
C198 C 0.35442 0.25906 0.96796 0.0
C199 C 0.35385 0.21163 0.84175 0.0
H200 H 0.36541 0.28471 0.65103 0.0
H201 H 0.38263 0.30302 0.71974 0.0
H202 H 0.38136 0.30864 0.91454 0.0
H203 H 0.36431 0.29373 0.99192 0.0
H204 H 0.3483 0.22621 0.01744 0.0
H205 H 0.34913 0.19994 0.95012 0.0
H206 H 0.34771 0.19434 0.74143 0.0
H207 H 0.34761 0.21652 0.66072 0.0
H208 H 0.4078 0.20965 0.78 0.0
H209 H 0.41525 0.23319 0.93235 0.0
H210 H 0.29837 0.23789 0.82351 0.0
H211 H 0.30926 0.28975 0.7789 0.0
C212 C 1.01432 0.9158 0.55607 0.0
C213 C 0.99982 0.9101 0.58291 0.0
C214 C 0.99053 0.9007 0.54794 0.0
C215 C 0.9994 0.90162 0.50127 0.0
N216 N 1.01383 0.91103 0.50448 0.0
Co217 Co 0.02856 0.91803 0.4438 0.0
N218 N 1.00984 0.91313 0.39197 0.0
C219 C 0.99564 0.90389 0.4018 0.0
C220 C 0.98423 0.90365 0.3606 0.0
C221 C 0.99173 0.91311 0.32169 0.0
C222 C 1.0076 0.91828 0.34099 0.0
N223 N 0.04288 0.92437 0.38175 0.0
C224 C 0.03857 0.92684 0.32961 0.0
C225 C 0.05312 0.92986 0.29966 0.0
C226 C 0.06686 0.92918 0.33406 0.0
C227 C 0.06004 0.92569 0.38326 0.0
N228 N 0.04641 0.92359 0.49711 0.0
C229 C 0.06307 0.92586 0.48609 0.0
C230 C 0.07241 0.9298 0.5308 0.0
C231 C 0.06081 0.92999 0.57217 0.0
C232 C 0.04493 0.9262 0.55065 0.0
N233 N 0.03834 0.89382 0.43674 0.0
C234 C 0.06101 0.86507 0.41347 0.0
C235 C 0.06195 0.87459 0.461 0.0
C236 C 0.05009 0.8878 0.47304 0.0
C237 C 0.04717 0.86984 0.37998 0.0
C238 C 0.03664 0.88437 0.39104 0.0
N239 N 0.02111 0.94262 0.4511 0.0
C240 C 0.03118 0.97201 0.45998 0.0
C241 C 1.01544 0.97779 0.47894 0.0
C242 C 1.00211 0.96547 0.48106 0.0
C243 C 1.00526 0.94797 0.46777 0.0
C244 C 0.03362 0.95487 0.44584 0.0
H245 H 0.99504 0.93879 0.47221 0.0
H246 H 0.04623 0.95159 0.43293 0.0
H247 H 0.05125 0.89361 0.51154 0.0
H248 H 0.02743 0.88809 0.36148 0.0
C249 C 0.99197 0.89821 0.45255 0.0
C250 C 0.02885 0.92424 0.5822 0.0
C251 C 0.02099 0.9255 0.3069 0.0
C252 C 0.06872 0.92607 0.43268 0.0
H253 H 0.99603 0.91264 0.62336 0.0
H254 H 0.978 0.89518 0.55455 0.0
H255 H 0.97166 0.89785 0.3597 0.0
H256 H 0.98625 0.9155 0.28295 0.0
H257 H 0.05372 0.93225 0.25738 0.0
H258 H 0.08016 0.93144 0.32445 0.0
H259 H 0.08594 0.93266 0.53299 0.0
H260 H 0.06366 0.9326 0.61338 0.0
H261 H 0.072 0.872 0.48947 0.0
H262 H 0.0448 0.8628 0.3438 0.0
H263 H 0.04185 0.98079 0.4566 0.0
H264 H 0.98949 0.96921 0.49433 0.0
C265 C 0.3689 0.77029 0.80264 0.0
C266 C 0.38136 0.76209 0.83276 0.0
C267 C 0.39113 0.75287 0.79818 0.0
C268 C 0.38442 0.75635 0.74906 0.0
N269 N 0.37109 0.76722 0.75026 0.0
Co270 Co 0.36197 0.77944 0.68711 0.0
N271 N 0.37012 0.76106 0.6387 0.0
C272 C 0.38101 0.74839 0.65203 0.0
C273 C 0.38295 0.73637 0.61313 0.0
C274 C 0.37283 0.74184 0.57229 0.0
C275 C 0.36559 0.75726 0.58802 0.0
N276 N 0.35455 0.79191 0.6225 0.0
C277 C 0.35333 0.78666 0.57087 0.0
C278 C 0.34804 0.80011 0.53899 0.0
C279 C 0.34574 0.81401 0.57186 0.0
C280 C 0.34991 0.80846 0.62213 0.0
N281 N 0.35239 0.79622 0.73841 0.0
C282 C 0.34519 0.81114 0.72426 0.0
C283 C 0.33515 0.81771 0.76419 0.0
C284 C 0.3362 0.80621 0.80575 0.0
C285 C 0.34728 0.79333 0.7901 0.0
N286 N 0.38465 0.79261 0.68096 0.0
C287 C 0.41338 0.81561 0.66019 0.0
C288 C 0.40092 0.81886 0.69945 0.0
C289 C 0.38747 0.80714 0.71057 0.0
C290 C 0.41116 0.79992 0.63314 0.0
C291 C 0.39669 0.78915 0.64244 0.0
N292 N 0.33856 0.76848 0.69238 0.0
C293 C 0.30793 0.77472 0.6925 0.0
C294 C 0.30438 0.76135 0.72709 0.0
C295 C 0.31818 0.75031 0.7396 0.0
C296 C 0.33512 0.75397 0.72098 0.0
C297 C 0.32466 0.77789 0.67544 0.0
H298 H 0.34554 0.74557 0.73162 0.0
H299 H 0.32591 0.78895 0.65113 0.0
H300 H 0.37921 0.81046 0.74299 0.0
H301 H 0.39534 0.77823 0.617 0.0
C302 C 0.38827 0.7476 0.70254 0.0
C303 C 0.35406 0.77914 0.82524 0.0
C304 C 0.35695 0.76908 0.5511 0.0
C305 C 0.34546 0.8165 0.67051 0.0
H306 H 0.38278 0.76217 0.87548 0.0
H307 H 0.40138 0.7441 0.80794 0.0
H308 H 0.39065 0.72488 0.6145 0.0
H309 H 0.37149 0.73544 0.53454 0.0
H310 H 0.34561 0.79976 0.49672 0.0
H311 H 0.34057 0.82634 0.56079 0.0
H312 H 0.32711 0.82894 0.76223 0.0
H313 H 0.32939 0.80719 0.84294 0.0
H314 H 0.4015 0.83056 0.72218 0.0
H315 H 0.42032 0.79612 0.6032 0.0
H316 H 0.29779 0.78333 0.68023 0.0
H317 H 0.31605 0.73935 0.76496 0.0
C318 C 0.5108 0.11668 0.05251 0.0
C319 C 0.52029 0.12803 0.083 0.0
C320 C 0.52979 0.13756 0.04845 0.0
C321 C 0.5253 0.13175 0.99911 0.0
N322 N 0.51351 0.11921 1.00011 0.0
Co323 Co 0.5007 0.11082 0.93722 0.0
N324 N 0.51937 0.11831 0.88856 0.0
C325 C 0.53267 0.12842 0.90179 0.0
C326 C 0.54478 0.12976 0.86281 0.0
C327 C 0.53868 0.12013 0.82192 0.0
C328 C 0.52281 0.11384 0.83768 0.0
N329 N 0.48778 0.10394 0.873 0.0
C330 C 0.49273 0.10307 0.82102 0.0
C331 C 0.47888 0.09882 0.78929 0.0
C332 C 0.46497 0.09697 0.82254 0.0
C333 C 0.47094 0.10033 0.87285 0.0
N334 N 0.48343 0.10207 0.98853 0.0
C335 C 0.46783 0.0963 0.97508 0.0
C336 C 0.46028 0.08739 0.01604 0.0
C337 C 0.47187 0.08769 0.05752 0.0
C338 C 0.48585 0.09713 0.04047 0.0
N339 N 0.48839 0.13399 0.93132 0.0
C340 C 0.46569 0.16294 0.90953 0.0
C341 C 0.46264 0.151 0.95055 0.0
C342 C 0.47427 0.13752 0.96224 0.0
C343 C 0.48119 0.16017 0.88156 0.0
C344 C 0.49179 0.1456 0.89144 0.0
N345 N 0.51076 0.08698 0.94213 0.0
C346 C 0.50357 0.05655 0.94419 0.0
C347 C 0.51859 0.05224 0.97064 0.0
C348 C 0.53053 0.06566 0.97826 0.0
C349 C 0.52639 0.08291 0.96356 0.0
C350 C 0.50009 0.07352 0.92994 0.0
H351 H 0.53538 0.09301 0.97253 0.0
H352 H 0.48794 0.07545 0.91165 0.0
H353 H 0.47121 0.12978 0.99618 0.0
H354 H 0.50254 0.14379 0.86546 0.0
C355 C 0.53407 0.13533 0.95245 0.0
C356 C 0.50067 0.10268 0.0747 0.0
C357 C 0.51031 0.10645 0.80053 0.0
C358 C 0.46243 0.0968 0.92136 0.0
H359 H 0.52077 0.12891 0.12583 0.0
H360 H 0.53944 0.14696 0.05827 0.0
H361 H 0.55675 0.13671 0.86421 0.0
H362 H 0.54498 0.11853 0.78407 0.0
H363 H 0.4789 0.09702 0.74673 0.0
H364 H 0.45222 0.0929 0.81147 0.0
H365 H 0.44819 0.08066 0.01508 0.0
H366 H 0.47017 0.08167 0.09581 0.0
H367 H 0.45114 0.15199 0.97426 0.0
H368 H 0.48495 0.16897 0.85048 0.0
H369 H 0.49408 0.04681 0.93596 0.0
H370 H 0.54261 0.06303 0.99769 0.0
C371 C 0.16629 0.26431 0.29861 0.0
C372 C 0.15929 0.27858 0.32334 0.0
C373 C 0.14958 0.28682 0.28642 0.0
C374 C 0.15155 0.27756 0.24087 0.0
N375 N 0.16201 0.26399 0.24643 0.0
Co376 Co 0.17042 0.24925 0.18766 0.0
N377 N 0.16446 0.26693 0.13337 0.0
C378 C 0.15265 0.27928 0.14049 0.0
C379 C 0.14835 0.28787 0.09513 0.0
C380 C 0.15793 0.2805 0.05636 0.0
C381 C 0.16794 0.26798 0.08058 0.0
N382 N 0.17847 0.23501 0.12738 0.0
C383 C 0.18325 0.23967 0.07693 0.0
C384 C 0.1906 0.22578 0.05151 0.0
C385 C 0.18937 0.21203 0.08563 0.0
C386 C 0.18175 0.21816 0.13096 0.0
N387 N 0.17651 0.23233 0.24337 0.0
C388 C 0.17989 0.21578 0.23403 0.0
C389 C 0.18388 0.20707 0.27995 0.0
C390 C 0.18288 0.21894 0.32036 0.0
C391 C 0.17841 0.23437 0.29713 0.0
N392 N 0.1468 0.23802 0.1791 0.0
C393 C 0.11782 0.21531 0.15774 0.0
C394 C 0.12739 0.21474 0.20542 0.0
C395 C 0.14075 0.2266 0.21638 0.0
C396 C 0.12288 0.22854 0.12261 0.0
C397 C 0.13758 0.23891 0.13249 0.0
N398 N 0.19461 0.25817 0.19677 0.0
C399 C 0.22445 0.24946 0.20856 0.0
C400 C 0.22943 0.26538 0.22755 0.0
C401 C 0.21646 0.27814 0.22859 0.0
C402 C 0.19915 0.27422 0.21376 0.0
C403 C 0.20754 0.24627 0.19325 0.0
H404 H 0.18946 0.28401 0.2173 0.0
H405 H 0.20511 0.23349 0.18111 0.0
H406 H 0.14655 0.22581 0.25505 0.0
H407 H 0.14154 0.24728 0.10096 0.0
C408 C 0.14693 0.28343 0.1909 0.0
C409 C 0.17523 0.25053 0.32728 0.0
C410 C 0.17952 0.25663 0.05099 0.0
C411 C 0.18165 0.20992 0.18118 0.0
H412 H 0.16098 0.28278 0.36383 0.0
H413 H 0.1428 0.29878 0.29137 0.0
H414 H 0.13929 0.29824 0.09072 0.0
H415 H 0.15711 0.28371 0.01471 0.0
H416 H 0.19618 0.22551 0.01227 0.0
H417 H 0.19444 0.19934 0.07924 0.0
H418 H 0.18767 0.19383 0.28356 0.0
H419 H 0.18524 0.21657 0.36205 0.0
H420 H 0.12469 0.20504 0.23489 0.0
H421 H 0.11594 0.23054 0.08594 0.0
H422 H 0.23369 0.23917 0.20616 0.0
H423 H 0.21956 0.2909 0.24197 0.0
C424 C 0.98549 0.92692 0.05056 0.0
C425 C 0.96962 0.93078 0.07196 0.0
C426 C 0.95803 0.93067 0.03049 0.0
C427 C 0.96736 0.92672 0.98584 0.0
N428 N 0.98402 0.92436 0.99698 0.0
Co429 Co 1.00182 0.91859 0.94375 0.0
N430 N 0.9875 0.92488 0.88153 0.0
C431 C 0.97034 0.92626 0.88301 0.0
C432 C 0.96351 0.92964 0.83373 0.0
C433 C 0.97722 0.93017 0.7993 0.0
C434 C 0.99179 0.92718 0.82932 0.0
N435 N 0.02049 0.9135 0.89199 0.0
C436 C 0.02273 0.91855 0.84092 0.0
C437 C 0.03859 0.91332 0.82175 0.0
C438 C 0.04608 0.90392 0.86086 0.0
C439 C 0.03468 0.90425 0.90201 0.0
N440 N 0.01655 0.91162 1.00459 0.0
C441 C 0.03097 0.90218 1.00152 0.0
C442 C 0.03987 0.90131 0.0482 0.0
C443 C 0.03058 0.91074 0.08307 0.0
C444 C 1.01607 0.9164 0.05617 0.0
N445 N 0.99189 0.89451 0.9371 0.0
C446 C 0.96837 0.86657 0.91355 0.0
C447 C 0.98232 0.87091 0.88004 0.0
C448 C 0.99328 0.88509 0.89126 0.0
C449 C 0.96781 0.87596 0.96135 0.0
C450 C 0.98012 0.8887 0.97359 0.0
N451 N 1.00938 0.94311 0.95067 0.0
C452 C 0.02825 0.96587 0.98188 0.0
C453 C 1.01493 0.97818 0.97924 0.0
C454 C 0.9993 0.97248 0.95922 0.0
C455 C 0.99692 0.95538 0.94473 0.0
C456 C 0.02515 0.94841 0.9682 0.0
H457 H 0.98436 0.95215 0.9312 0.0
H458 H 0.03534 0.9392 0.97314 0.0
H459 H 1.00255 0.88862 0.8617 0.0
H460 H 0.97925 0.89443 0.01226 0.0
C461 C 0.96169 0.92682 0.93242 0.0
C462 C 1.00152 0.92479 0.08231 0.0
C463 C 1.00934 0.9257 0.80662 0.0
C464 C 0.03836 0.89869 0.95286 0.0
H465 H 0.96676 0.93335 0.11318 0.0
H466 H 0.94451 0.93355 0.03261 0.0
H467 H 0.9502 0.93191 0.82407 0.0
H468 H 0.97661 0.93244 0.75696 0.0
H469 H 0.04407 0.91563 0.783 0.0
H470 H 0.05864 0.8981 0.8601 0.0
H471 H 0.05239 0.89578 0.05488 0.0
H472 H 0.03437 0.9133 0.12352 0.0
H473 H 0.98443 0.86386 0.84375 0.0
H474 H 0.95772 0.87366 0.98987 0.0
H475 H 0.0408 0.96959 0.99593 0.0
H476 H 0.98865 0.98127 0.95539 0.0
C477 C 0.85361 0.23505 0.79547 0.0
C478 C 0.84518 0.22169 0.82044 0.0
C479 C 0.83699 0.21263 0.78147 0.0
C480 C 0.84103 0.22073 0.73473 0.0
N481 N 0.85161 0.23412 0.74137 0.0
Co482 Co 0.85945 0.24972 0.68289 0.0
N483 N 0.84755 0.2366 0.62473 0.0
C484 C 0.83648 0.2237 0.63338 0.0
C485 C 0.82771 0.21887 0.58867 0.0
C486 C 0.83333 0.22956 0.54919 0.0
C487 C 0.8456 0.24016 0.57153 0.0
N488 N 0.86775 0.26554 0.62541 0.0
C489 C 0.86663 0.26443 0.5717 0.0
C490 C 0.87768 0.27578 0.54665 0.0
C491 C 0.8852 0.28515 0.58548 0.0
C492 C 0.87876 0.27864 0.63175 0.0
N493 N 0.87126 0.26346 0.74003 0.0
C494 C 0.88032 0.27794 0.73206 0.0
C495 C 0.88584 0.28573 0.77728 0.0
C496 C 0.87982 0.27583 0.81728 0.0
C497 C 0.8712 0.26216 0.79409 0.0
N498 N 0.88082 0.23483 0.67242 0.0
C499 C 0.91 0.21244 0.65322 0.0
C500 C 0.9119 0.23002 0.665 0.0
C501 C 0.8974 0.24085 0.67405 0.0
C502 C 0.89299 0.20658 0.65206 0.0
C503 C 0.87896 0.21764 0.66212 0.0
N504 N 0.8372 0.26298 0.6934 0.0
C505 C 0.81398 0.26831 0.75633 0.0
C506 C 0.80138 0.26582 0.71756 0.0
C507 C 0.80723 0.26455 0.66507 0.0
C508 C 0.82501 0.26381 0.65393 0.0
C509 C 0.83158 0.2671 0.74347 0.0
H510 H 0.82858 0.26316 0.61311 0.0
H511 H 0.84039 0.26887 0.77522 0.0
H512 H 0.89985 0.25407 0.6824 0.0
H513 H 0.86653 0.21192 0.66131 0.0
C514 C 0.83418 0.21706 0.68461 0.0
C515 C 0.86164 0.24936 0.82521 0.0
C516 C 0.85366 0.25476 0.54268 0.0
C517 C 0.88349 0.28405 0.68163 0.0
H518 H 0.84423 0.21941 0.86271 0.0
H519 H 0.82848 0.20186 0.78685 0.0
H520 H 0.81786 0.2092 0.58557 0.0
H521 H 0.82841 0.22992 0.50909 0.0
H522 H 0.87969 0.27751 0.5045 0.0
H523 H 0.89439 0.29537 0.58062 0.0
H524 H 0.893 0.29752 0.78079 0.0
H525 H 0.8812 0.27902 0.85866 0.0
H526 H 0.92461 0.23548 0.66711 0.0
H527 H 0.89043 0.19326 0.6436 0.0
H528 H 0.81018 0.27072 0.7969 0.0
H529 H 0.79813 0.26373 0.63276 0.0
C530 C 0.54612 0.09975 0.54598 0.0
C531 C 0.55902 0.09066 0.57108 0.0
C532 C 0.56778 0.08211 0.53219 0.0
C533 C 0.55998 0.08662 0.48537 0.0
N534 N 0.54709 0.09783 0.49186 0.0
Co535 Co 0.532 0.10651 0.43315 0.0
N536 N 0.54476 0.0942 0.37504 0.0
C537 C 0.55718 0.08259 0.38378 0.0
C538 C 0.56172 0.07371 0.33907 0.0
C539 C 0.55134 0.07983 0.29949 0.0
C540 C 0.5412 0.09248 0.32176 0.0
N541 N 0.51667 0.11561 0.37546 0.0
C542 C 0.51778 0.11445 0.32175 0.0
C543 C 0.5069 0.12596 0.29659 0.0
C544 C 0.4978 0.13383 0.33533 0.0
C545 C 0.504 0.12712 0.38167 0.0
N546 N 0.51865 0.11881 0.49018 0.0
C547 C 0.50462 0.12854 0.48203 0.0
C548 C 0.49695 0.1343 0.52716 0.0
C549 C 0.50645 0.12772 0.56729 0.0
C550 C 0.5198 0.11855 0.54429 0.0
N551 N 0.54788 0.12711 0.42329 0.0
C552 C 0.57173 0.15505 0.40485 0.0
C553 C 0.55408 0.15781 0.41419 0.0
C554 C 0.54254 0.14389 0.42305 0.0
C555 C 0.57691 0.13786 0.40569 0.0
C556 C 0.56511 0.12443 0.41519 0.0
N557 N 0.51772 0.08494 0.44315 0.0
C558 C 0.51179 0.06192 0.50614 0.0
C559 C 0.51447 0.04934 0.46768 0.0
C560 C 0.5159 0.05509 0.41513 0.0
C561 C 0.51675 0.07281 0.40377 0.0
C562 C 0.51323 0.07946 0.4931 0.0
H563 H 0.51752 0.07635 0.36293 0.0
H564 H 0.51143 0.08831 0.52465 0.0
H565 H 0.52931 0.14694 0.42969 0.0
H566 H 0.57029 0.11179 0.41569 0.0
C567 C 0.5635 0.07978 0.43518 0.0
C568 C 0.53209 0.10835 0.57558 0.0
C569 C 0.52689 0.10108 0.29287 0.0
C570 C 0.49872 0.13203 0.43153 0.0
H571 H 0.56117 0.08951 0.61338 0.0
H572 H 0.57814 0.0731 0.53767 0.0
H573 H 0.57093 0.06344 0.33608 0.0
H574 H 0.5508 0.07496 0.25941 0.0
H575 H 0.50527 0.12801 0.2544 0.0
H576 H 0.48794 0.14342 0.33037 0.0
H577 H 0.48546 0.14195 0.53052 0.0
H578 H 0.50318 0.12912 0.6086 0.0
H579 H 0.54916 0.17073 0.41459 0.0
H580 H 0.59024 0.13472 0.39916 0.0
H581 H 0.50915 0.05816 0.54665 0.0
H582 H 0.51682 0.04598 0.38301 0.0
C583 C 0.67952 0.79488 0.29538 0.0
C584 C 0.68843 0.80835 0.31786 0.0
C585 C 0.69563 0.81736 0.27679 0.0
C586 C 0.69062 0.80905 0.2314 0.0
N587 N 0.68022 0.79564 0.24096 0.0
Co588 Co 0.6724 0.77892 0.18581 0.0
N589 N 0.68244 0.79203 0.12463 0.0
C590 C 0.69207 0.8062 0.1291 0.0
C591 C 0.69749 0.81242 0.0809 0.0
C592 C 0.69117 0.80128 0.04364 0.0
C593 C 0.6823 0.78875 0.07112 0.0
N594 N 0.66527 0.76123 0.13243 0.0
C595 C 0.66923 0.75936 0.08037 0.0
C596 C 0.66417 0.74348 0.06112 0.0
C597 C 0.65603 0.73538 0.10132 0.0
C598 C 0.65699 0.74648 0.14291 0.0
N599 N 0.66152 0.76566 0.24568 0.0
C600 C 0.65226 0.75118 0.24066 0.0
C601 C 0.64666 0.74432 0.28721 0.0
C602 C 0.65289 0.75483 0.32506 0.0
C603 C 0.66175 0.76791 0.29923 0.0
N604 N 0.65024 0.79266 0.1748 0.0
C605 C 0.62056 0.81451 0.15526 0.0
C606 C 0.61925 0.79645 0.1601 0.0
C607 C 0.63406 0.78587 0.16923 0.0
C608 C 0.63722 0.82096 0.16068 0.0
C609 C 0.65139 0.81018 0.17084 0.0
N610 N 0.69543 0.76712 0.1963 0.0
C611 C 0.71874 0.76096 0.25839 0.0
C612 C 0.73132 0.76519 0.22083 0.0
C613 C 0.72548 0.7679 0.16887 0.0
C614 C 0.70775 0.76808 0.15734 0.0
C615 C 0.70106 0.76197 0.24553 0.0
H616 H 0.7043 0.7699 0.11673 0.0
H617 H 0.6922 0.75915 0.27661 0.0
H618 H 0.63225 0.77225 0.17166 0.0
H619 H 0.66338 0.81651 0.17512 0.0
C620 C 0.69577 0.81305 0.17934 0.0
C621 C 0.67197 0.78079 0.32737 0.0
C622 C 0.67655 0.77255 0.04627 0.0
C623 C 0.651 0.74289 0.19286 0.0
H624 H 0.69026 0.81082 0.35972 0.0
H625 H 0.70403 0.8283 0.27983 0.0
H626 H 0.70547 0.82349 0.07373 0.0
H627 H 0.69365 0.80173 1.00141 0.0
H628 H 0.66602 0.7382 0.02192 0.0
H629 H 0.6504 0.72275 0.1007 0.0
H630 H 0.63987 0.73242 0.29315 0.0
H631 H 0.65172 0.75214 0.3668 0.0
H632 H 0.60682 0.79045 0.15671 0.0
H633 H 0.63938 0.83459 0.1575 0.0
H634 H 0.72256 0.75752 0.29826 0.0
H635 H 0.73456 0.77025 0.13724 0.0
C636 C 0.98497 0.10395 0.47162 0.0
C637 C 0.96905 0.10085 0.44932 0.0
C638 C 0.95732 0.10111 0.49036 0.0
C639 C 0.9666 0.10442 0.53566 0.0
N640 N 0.98336 0.10619 0.52528 0.0
Co641 Co 1.0011 0.11091 0.57953 0.0
N642 N 0.98659 0.104 0.64073 0.0
C643 C 0.96942 0.10295 0.6386 0.0
C644 C 0.9624 0.09922 0.68735 0.0
C645 C 0.97601 0.09812 0.72217 0.0
C646 C 0.99071 0.10118 0.69296 0.0
N647 N 0.01962 0.11542 0.63243 0.0
C648 C 0.02167 0.11006 0.68332 0.0
C649 C 0.03744 0.11521 0.70346 0.0
C650 C 0.04505 0.12489 0.6653 0.0
C651 C 0.03381 0.1248 0.62367 0.0
N652 N 1.01606 0.1183 0.51983 0.0
C653 C 0.03047 0.12768 0.52415 0.0
C654 C 0.03949 0.12895 0.47783 0.0
C655 C 0.03029 0.11983 0.44187 0.0
C656 C 1.01571 0.11392 0.46789 0.0
N657 N 0.9914 0.13491 0.58798 0.0
C658 C 0.96724 0.16229 0.60827 0.0
C659 C 0.97786 0.15541 0.64837 0.0
C660 C 0.98966 0.14198 0.63751 0.0
C661 C 0.97032 0.15592 0.55671 0.0
C662 C 0.9825 0.14269 0.54738 0.0
N663 N 1.00842 0.08637 0.57054 0.0
C664 C 0.02759 0.06348 0.54202 0.0
C665 C 1.01416 0.05125 0.54243 0.0
C666 C 0.99822 0.0571 0.55941 0.0
C667 C 0.99572 0.07424 0.57353 0.0
C668 C 0.02441 0.08095 0.55551 0.0
H669 H 0.98296 0.07761 0.58482 0.0
H670 H 0.03476 0.09008 0.55269 0.0
H671 H 0.9967 0.13663 0.67005 0.0
H672 H 0.98388 0.13807 0.50728 0.0
C673 C 0.96085 0.10356 0.58896 0.0
C674 C 1.00123 0.1057 0.4408 0.0
C675 C 1.00818 0.10266 0.71672 0.0
C676 C 0.03768 0.13078 0.57338 0.0
H677 H 0.96627 0.09863 0.40784 0.0
H678 H 0.94372 0.0986 0.48755 0.0
H679 H 0.94901 0.09725 0.69647 0.0
H680 H 0.97521 0.09562 0.76435 0.0
H681 H 0.04279 0.11266 0.74228 0.0
H682 H 0.05758 0.13075 0.66699 0.0
H683 H 0.05202 0.13453 0.47198 0.0
H684 H 0.03419 0.11762 0.40134 0.0
H685 H 0.97658 0.15991 0.68877 0.0
H686 H 0.96293 0.16079 0.5236 0.0
H687 H 0.04033 0.05966 0.53011 0.0
H688 H 0.98745 0.0484 0.56125 0.0
C689 C 0.68769 0.23352 0.23166 0.0
C690 C 0.69918 0.22123 0.21451 0.0
C691 C 0.70199 0.21033 0.25668 0.0
C692 C 0.69249 0.21667 0.29814 0.0
N693 N 0.68384 0.23084 0.28452 0.0
Co694 Co 0.67433 0.24749 0.33661 0.0
N695 N 0.68286 0.23538 0.40106 0.0
C696 C 0.68951 0.21957 0.40064 0.0
C697 C 0.69375 0.21393 0.45072 0.0
C698 C 0.68948 0.22705 0.48464 0.0
C699 C 0.68301 0.24017 0.45351 0.0
N700 N 0.6658 0.26557 0.38586 0.0
C701 C 0.67036 0.26945 0.43652 0.0
C702 C 0.66338 0.28504 0.45177 0.0
C703 C 0.65302 0.29032 0.41136 0.0
C704 C 0.65472 0.27811 0.37295 0.0
N705 N 0.66386 0.25918 0.27417 0.0
C706 C 0.65037 0.26983 0.27668 0.0
C707 C 0.64268 0.27276 0.2286 0.0
C708 C 0.65193 0.26339 0.19313 0.0
C709 C 0.66503 0.25564 0.22173 0.0
N710 N 0.65241 0.23367 0.34458 0.0
C711 C 0.62494 0.20943 0.36264 0.0
C712 C 0.63042 0.22102 0.40194 0.0
C713 C 0.64399 0.23276 0.39236 0.0
C714 C 0.63333 0.21092 0.31318 0.0
C715 C 0.64673 0.22301 0.30493 0.0
N716 N 0.69744 0.25943 0.32874 0.0
C717 C 0.71866 0.27013 0.26528 0.0
C718 C 0.73242 0.26297 0.29407 0.0
C719 C 0.72828 0.25591 0.34341 0.0
C720 C 0.71111 0.25459 0.36018 0.0
C721 C 0.7015 0.2686 0.28402 0.0
H722 H 0.70945 0.24888 0.39836 0.0
H723 H 0.69147 0.27429 0.26127 0.0
H724 H 0.64804 0.2407 0.42464 0.0
H725 H 0.65278 0.2233 0.26647 0.0
C726 C 0.69397 0.21191 0.35199 0.0
C727 C 0.67972 0.24718 0.1972 0.0
C728 C 0.67823 0.25739 0.47443 0.0
C729 C 0.64699 0.27868 0.32321 0.0
H730 H 0.70523 0.22036 0.17607 0.0
H731 H 0.71088 0.19973 0.25785 0.0
H732 H 0.69995 0.20203 0.4612 0.0
H733 H 0.6915 0.22722 0.52712 0.0
H734 H 0.66489 0.2916 0.48918 0.0
H735 H 0.64529 0.30179 0.41 0.0
H736 H 0.6321 0.28126 0.21999 0.0
H737 H 0.64986 0.263 0.15068 0.0
H738 H 0.62453 0.22073 0.4408 0.0
H739 H 0.62975 0.20251 0.28097 0.0
H740 H 0.72107 0.27656 0.22795 0.0
H741 H 0.73832 0.25091 0.36871 0.0
C742 C 0.54941 0.92727 0.97765 0.0
C743 C 0.56539 0.93128 0.95737 0.0
C744 C 0.57665 0.93127 0.99973 0.0
C745 C 0.56701 0.92723 0.04375 0.0
N746 N 0.55051 0.92472 0.03136 0.0
Co747 Co 0.53225 0.91954 0.08334 0.0
N748 N 0.54601 0.92605 0.14671 0.0
C749 C 0.56319 0.92732 0.14643 0.0
C750 C 0.56969 0.93053 0.19619 0.0
C751 C 0.55575 0.93104 0.22973 0.0
C752 C 0.54136 0.92825 0.19876 0.0
N753 N 0.51308 0.91497 0.13393 0.0
C754 C 0.51022 0.92092 0.18374 0.0
C755 C 0.49363 0.91721 0.20021 0.0
C756 C 0.48639 0.90747 0.16159 0.0
C757 C 0.49861 0.9063 0.12292 0.0
N758 N 0.51809 0.91199 0.02192 0.0
C759 C 0.50386 0.90226 0.02471 0.0
C760 C 0.49604 0.89981 0.97679 0.0
C761 C 0.50581 0.90853 0.94131 0.0
C762 C 0.51943 0.91556 0.96954 0.0
N763 N 0.54194 0.89548 0.09207 0.0
C764 C 0.56503 0.86696 0.11171 0.0
C765 C 0.55448 0.87399 0.15171 0.0
C766 C 0.54338 0.88807 0.14134 0.0
C767 C 0.56255 0.87404 0.06058 0.0
C768 C 0.5509 0.8878 0.05154 0.0
N769 N 0.52493 0.94426 0.07358 0.0
C770 C 0.50847 0.96678 0.02901 0.0
C771 C 0.52081 0.97942 0.04137 0.0
C772 C 0.53465 0.97403 0.07217 0.0
C773 C 0.53654 0.9568 0.08704 0.0
C774 C 0.51067 0.94942 0.04574 0.0
H775 H 0.54822 0.95384 0.10716 0.0
H776 H 0.50112 0.94016 0.03437 0.0
H777 H 0.5367 0.89363 0.17414 0.0
H778 H 0.54994 0.89282 0.01173 0.0
C779 C 0.57217 0.9277 0.09761 0.0
C780 C 0.53366 0.92481 0.94484 0.0
C781 C 0.52359 0.92688 0.22039 0.0
C782 C 0.49562 0.89985 0.0727 0.0
H783 H 0.56855 0.93386 0.91632 0.0
H784 H 0.59015 0.93434 0.99862 0.0
H785 H 0.58295 0.93262 0.20677 0.0
H786 H 0.55612 0.93316 0.27214 0.0
H787 H 0.48753 0.92062 0.23721 0.0
H788 H 0.4735 0.90242 0.16088 0.0
H789 H 0.48386 0.89368 0.96919 0.0
H790 H 0.50282 0.90985 0.89965 0.0
H791 H 0.55537 0.86911 0.19186 0.0
H792 H 0.56998 0.86926 0.02753 0.0
H793 H 0.49736 0.97019 1.00561 0.0
H794 H 0.54452 0.98308 0.08311 0.0
C795 C 0.85201 0.79698 0.72164 0.0
C796 C 0.84775 0.81255 0.69892 0.0
C797 C 0.84659 0.82421 0.73981 0.0
C798 C 0.85028 0.81523 0.78546 0.0
N799 N 0.85362 0.79871 0.77556 0.0
Co800 Co 0.85958 0.78152 0.83071 0.0
N801 N 0.85166 0.79567 0.89141 0.0
C802 C 0.84845 0.81256 0.8883 0.0
C803 C 0.84106 0.81866 0.934 0.0
C804 C 0.8399 0.80487 0.96792 0.0
C805 C 0.84705 0.79098 0.94194 0.0
N806 N 0.86539 0.7636 0.88452 0.0
C807 C 0.862 0.76248 0.93737 0.0
C808 C 0.87181 0.74969 0.96104 0.0
C809 C 0.88114 0.74222 0.9219 0.0
C810 C 0.87691 0.75102 0.87688 0.0
N811 N 0.86789 0.76689 0.77147 0.0
C812 C 0.87804 0.75306 0.77661 0.0
C813 C 0.87987 0.74393 0.73077 0.0
C814 C 0.8704 0.75253 0.69405 0.0
C815 C 0.86373 0.76688 0.7192 0.0
N816 N 0.88329 0.79251 0.83959 0.0
C817 C 0.91246 0.81485 0.86167 0.0
C818 C 0.90736 0.80147 0.89621 0.0
C819 C 0.89257 0.79128 0.88601 0.0
C820 C 0.90285 0.81574 0.81416 0.0
C821 C 0.88939 0.80405 0.80278 0.0
N822 N 0.83533 0.77275 0.82127 0.0
C823 C 0.81352 0.75305 0.78754 0.0
C824 C 0.80049 0.76569 0.7902 0.0
C825 C 0.80543 0.78145 0.81067 0.0
C826 C 0.82238 0.7846 0.8259 0.0
C827 C 0.83081 0.75686 0.8028 0.0
H828 H 0.82482 0.79729 0.83893 0.0
H829 H 0.84051 0.74713 0.79827 0.0
H830 H 0.8886 0.78277 0.91715 0.0
H831 H 0.88358 0.80509 0.7642 0.0
C832 C 0.84853 0.82093 0.8384 0.0
C833 C 0.85528 0.78101 0.69082 0.0
C834 C 0.8508 0.77403 0.96759 0.0
C835 C 0.88251 0.74693 0.82634 0.0
H836 H 0.84566 0.81516 0.65723 0.0
H837 H 0.84297 0.83751 0.73666 0.0
H838 H 0.83613 0.83139 0.94084 0.0
H839 H 0.83453 0.80511 1.00745 0.0
H840 H 0.8727 0.74635 1.00258 0.0
H841 H 0.89001 0.73167 0.92585 0.0
H842 H 0.88639 0.73185 0.72547 0.0
H843 H 0.86868 0.74853 0.65338 0.0
H844 H 0.91434 0.79922 0.93267 0.0
H845 H 0.9056 0.82557 0.78512 0.0
H846 H 0.81048 0.74046 0.77258 0.0
H847 H 0.79615 0.79168 0.81404 0.0
C848 C 0.5145 0.61381 0.45998 0.0
C849 C 0.50001 0.61944 0.43287 0.0
C850 C 0.49067 0.62889 0.46757 0.0
C851 C 0.4995 0.62806 0.51436 0.0
N852 N 0.51395 0.61866 0.51148 0.0
Co853 Co 0.52862 0.61175 0.57245 0.0
N854 N 0.50982 0.61664 0.62389 0.0
C855 C 0.49565 0.6259 0.6138 0.0
C856 C 0.48423 0.62625 0.65491 0.0
C857 C 0.4917 0.61684 0.69405 0.0
C858 C 0.50754 0.61157 0.67491 0.0
N859 N 0.54288 0.60549 0.63476 0.0
C860 C 0.53849 0.60299 0.68679 0.0
C861 C 0.55301 0.6 0.71703 0.0
C862 C 0.56679 0.60074 0.68291 0.0
C863 C 0.56005 0.60422 0.63358 0.0
N864 N 0.54655 0.60621 0.51951 0.0
C865 C 0.56321 0.604 0.53082 0.0
C866 C 0.57261 0.60004 0.4863 0.0
C867 C 0.56105 0.59976 0.44476 0.0
C868 C 0.54514 0.60352 0.46599 0.0
N869 N 0.53829 0.636 0.57955 0.0
C870 C 0.56067 0.665 0.60285 0.0
C871 C 0.56181 0.65538 0.55557 0.0
C872 C 0.55009 0.64205 0.54347 0.0
C873 C 0.5468 0.66017 0.6361 0.0
C874 C 0.53644 0.64552 0.62508 0.0
N875 N 0.52127 0.58712 0.56513 0.0
C876 C 0.53146 0.55775 0.55655 0.0
C877 C 0.51578 0.5519 0.5372 0.0
C878 C 0.50241 0.56418 0.53476 0.0
C879 C 0.50547 0.5817 0.54809 0.0
C880 C 0.53381 0.57491 0.57071 0.0
H881 H 0.49522 0.59085 0.54339 0.0
H882 H 0.54638 0.57824 0.58391 0.0
H883 H 0.55138 0.63618 0.50511 0.0
H884 H 0.52723 0.64176 0.65457 0.0
C885 C 0.49202 0.63153 0.56294 0.0
C886 C 0.52908 0.60535 0.43421 0.0
C887 C 0.52087 0.60428 0.70912 0.0
C888 C 0.5688 0.60384 0.58433 0.0
H889 H 0.49625 0.61681 0.39243 0.0
H890 H 0.47813 0.63437 0.4607 0.0
H891 H 0.47168 0.63211 0.65565 0.0
H892 H 0.4862 0.61455 0.73281 0.0
H893 H 0.55355 0.5976 0.75931 0.0
H894 H 0.58009 0.59851 0.69277 0.0
H895 H 0.58615 0.59721 0.48435 0.0
H896 H 0.56396 0.5971 0.40362 0.0
H897 H 0.57191 0.65798 0.52733 0.0
H898 H 0.54428 0.66726 0.67206 0.0
H899 H 0.54216 0.54902 0.56021 0.0
H900 H 0.48983 0.56039 0.52122 0.0
C901 C 0.66467 0.26525 0.72873 0.0
C902 C 0.65593 0.25196 0.70401 0.0
C903 C 0.64618 0.24422 0.74194 0.0
C904 C 0.64976 0.25283 0.78782 0.0
N905 N 0.66126 0.26548 0.78151 0.0
Co906 Co 0.67083 0.27979 0.83967 0.0
N907 N 0.66441 0.26247 0.89433 0.0
C908 C 0.65186 0.25082 0.88817 0.0
C909 C 0.64769 0.24229 0.93377 0.0
C910 C 0.6581 0.24904 0.97167 0.0
C911 C 0.66835 0.2612 0.94674 0.0
N912 N 0.67959 0.29385 0.89955 0.0
C913 C 0.68428 0.28914 0.95002 0.0
C914 C 0.69193 0.30288 0.97544 0.0
C915 C 0.69121 0.31657 0.94094 0.0
C916 C 0.6835 0.31056 0.89556 0.0
N917 N 0.67714 0.2964 0.78361 0.0
C918 C 0.68155 0.31269 0.79249 0.0
C919 C 0.68627 0.32095 0.74643 0.0
C920 C 0.68473 0.30899 0.70644 0.0
C921 C 0.6792 0.29399 0.73008 0.0
N922 N 0.64785 0.29164 0.8495 0.0
C923 C 0.61923 0.31452 0.86692 0.0
C924 C 0.6254 0.31072 0.81557 0.0
C925 C 0.63945 0.29932 0.80775 0.0
C926 C 0.62747 0.30588 0.90888 0.0
C927 C 0.64151 0.29472 0.89957 0.0
N928 N 0.69476 0.26995 0.82913 0.0
C929 C 0.72528 0.27713 0.82524 0.0
C930 C 0.72896 0.26391 0.79028 0.0
C931 C 0.71524 0.25272 0.77836 0.0
C932 C 0.69839 0.25582 0.79862 0.0
C933 C 0.70857 0.27999 0.84322 0.0
H934 H 0.68829 0.24716 0.78735 0.0
H935 H 0.70731 0.29136 0.86583 0.0
H936 H 0.64391 0.29724 0.76771 0.0
H937 H 0.64767 0.28917 0.93376 0.0
C938 C 0.64532 0.24715 0.83821 0.0
C939 C 0.67523 0.2779 0.70053 0.0
C940 C 0.68044 0.27221 0.97557 0.0
C941 C 0.68388 0.31851 0.84507 0.0
H942 H 0.65656 0.24796 0.66307 0.0
H943 H 0.63824 0.233 0.73719 0.0
H944 H 0.63819 0.23236 0.93888 0.0
H945 H 0.65766 0.24573 0.01332 0.0
H946 H 0.69746 0.30304 0.01479 0.0
H947 H 0.69671 0.3291 0.94709 0.0
H948 H 0.69103 0.33387 0.74257 0.0
H949 H 0.68749 0.31101 0.66482 0.0
H950 H 0.6196 0.31681 0.7814 0.0
H951 H 0.62338 0.30814 0.94931 0.0
H952 H 0.73526 0.28602 0.83659 0.0
H953 H 0.71735 0.24201 0.75208 0.0
C954 C 1.01557 0.41969 0.96914 0.0
C955 C 0.02993 0.41395 0.94175 0.0
C956 C 0.03959 0.40493 0.97684 0.0
C957 C 0.03103 0.40607 0.024 0.0
N958 N 0.01646 0.41527 0.02104 0.0
Co959 Co 1.00195 0.42234 0.08212 0.0
N960 N 0.02088 0.41762 0.13356 0.0
C961 C 0.03534 0.40887 0.12314 0.0
C962 C 0.04718 0.40947 0.1631 0.0
C963 C 0.03972 0.41897 0.20186 0.0
C964 C 0.02339 0.42317 0.18401 0.0
N965 N 0.98787 0.42875 0.14472 0.0
C966 C 0.99229 0.431 0.19692 0.0
C967 C 0.97779 0.43382 0.22729 0.0
C968 C 0.96398 0.43322 0.19322 0.0
C969 C 0.97069 0.42999 0.14378 0.0
N970 N 0.98382 0.4277 0.02942 0.0
C971 C 0.96719 0.42983 0.04113 0.0
C972 C 0.95757 0.43345 0.99672 0.0
C973 C 0.96893 0.43355 0.95475 0.0
C974 C 0.98496 0.43002 0.97567 0.0
N975 N 0.99228 0.3982 0.08968 0.0
C976 C 0.96938 0.36969 0.11203 0.0
C977 C 0.9694 0.37851 0.06305 0.0
C978 C 0.98132 0.39175 0.05187 0.0
C979 C 0.98242 0.37492 0.14767 0.0
C980 C 0.99317 0.38927 0.13661 0.0
N981 N 1.00938 0.44686 0.07373 0.0
C982 C 0.99942 0.47623 0.06315 0.0
C983 C 1.01517 0.48181 0.04347 0.0
C984 C 0.02843 0.46943 0.04198 0.0
C985 C 0.02522 0.45205 0.05649 0.0
C986 C 0.99692 0.45917 0.07848 0.0
H987 H 0.0354 0.4428 0.05246 0.0
H988 H 0.98432 0.45595 0.09188 0.0
H989 H 0.98084 0.3973 0.01277 0.0
H990 H 1.00184 0.39343 0.16695 0.0
C991 C 0.03883 0.4031 0.07246 0.0
C992 C 1.0008 0.42785 0.94334 0.0
C993 C 1.00993 0.42966 0.21939 0.0
C994 C 0.96181 0.43017 0.09475 0.0
H995 H 0.03337 0.41623 0.90082 0.0
H996 H 0.05213 0.3995 0.96981 0.0
H997 H 0.06003 0.40429 0.1631 0.0
H998 H 0.04555 0.42202 0.2396 0.0
H999 H 0.97727 0.43598 0.26965 0.0
H1000 H 0.95068 0.43527 0.20325 0.0
H1001 H 0.94399 0.43613 0.99506 0.0
H1002 H 0.96581 0.43587 0.91351 0.0
H1003 H 0.96003 0.37537 0.03294 0.0
H1004 H 0.98392 0.36842 0.18534 0.0
H1005 H 0.9888 0.48508 0.06609 0.0
H1006 H 0.04104 0.47303 0.02817 0.0
C1007 C 0.8685 0.75977 0.21382 0.0
C1008 C 0.88094 0.76791 0.18353 0.0
C1009 C 0.89075 0.77717 0.21794 0.0
C1010 C 0.88407 0.77378 0.26713 0.0
N1011 N 0.87072 0.76294 0.26612 0.0
Co1012 Co 0.86165 0.75081 0.32939 0.0
N1013 N 0.86974 0.76932 0.37745 0.0
C1014 C 0.88079 0.78183 0.36413 0.0
C1015 C 0.88292 0.79382 0.40307 0.0
C1016 C 0.87277 0.78846 0.44396 0.0
C1017 C 0.8653 0.77316 0.42815 0.0
N1018 N 0.85424 0.73846 0.39414 0.0
C1019 C 0.85294 0.74382 0.44561 0.0
C1020 C 0.84777 0.73041 0.47778 0.0
C1021 C 0.84567 0.71639 0.44525 0.0
C1022 C 0.84982 0.72185 0.3949 0.0
N1023 N 0.85223 0.73384 0.27845 0.0
C1024 C 0.84533 0.71881 0.29277 0.0
C1025 C 0.83536 0.71205 0.25294 0.0
C1026 C 0.83616 0.72353 0.21128 0.0
C1027 C 0.84705 0.7366 0.22676 0.0
N1028 N 0.88436 0.7378 0.33598 0.0
C1029 C 0.91307 0.71484 0.35698 0.0
C1030 C 0.90111 0.712 0.31588 0.0
C1031 C 0.88765 0.72372 0.30479 0.0
C1032 C 0.9104 0.73013 0.38573 0.0
C1033 C 0.89594 0.74087 0.37619 0.0
N1034 N 0.83819 0.76165 0.32364 0.0
C1035 C 0.80758 0.7553 0.3229 0.0
C1036 C 0.80396 0.76894 0.28936 0.0
C1037 C 0.81775 0.78007 0.27753 0.0
C1038 C 0.83471 0.77632 0.29587 0.0
C1039 C 0.82433 0.75205 0.33972 0.0
H1040 H 0.84511 0.78479 0.28558 0.0
H1041 H 0.82566 0.74078 0.36307 0.0
H1042 H 0.87972 0.72081 0.27114 0.0
H1043 H 0.89416 0.75144 0.40281 0.0
C1044 C 0.88803 0.78254 0.3136 0.0
C1045 C 0.85367 0.75082 0.19146 0.0
C1046 C 0.85654 0.76145 0.46504 0.0
C1047 C 0.84562 0.71358 0.34665 0.0
H1048 H 0.88234 0.76773 0.14081 0.0
H1049 H 0.90103 0.78588 0.20803 0.0
H1050 H 0.89079 0.80519 0.40175 0.0
H1051 H 0.87159 0.79482 0.48182 0.0
H1052 H 0.84535 0.73084 0.52004 0.0
H1053 H 0.84068 0.70402 0.45661 0.0
H1054 H 0.82748 0.7007 0.25506 0.0
H1055 H 0.82932 0.72241 0.17416 0.0
H1056 H 0.90208 0.70062 0.29175 0.0
H1057 H 0.91917 0.7336 0.41718 0.0
H1058 H 0.79748 0.74657 0.33451 0.0
H1059 H 0.81558 0.7912 0.25286 0.0
C1060 C 0.5148 0.41381 0.0504 0.0
C1061 C 0.50023 0.40775 0.07609 0.0
C1062 C 0.49105 0.3988 0.03964 0.0
C1063 C 0.5001 0.40027 0.99343 0.0
N1064 N 0.51451 0.40961 0.99831 0.0
Co1065 Co 0.52965 0.41709 0.9392 0.0
N1066 N 0.51121 0.41292 0.88581 0.0
C1067 C 0.49695 0.40359 0.89397 0.0
C1068 C 0.48579 0.40374 0.85214 0.0
C1069 C 0.49353 0.41353 0.8145 0.0
C1070 C 0.50929 0.4185 0.83511 0.0
N1071 N 0.54432 0.42423 0.87865 0.0
C1072 C 0.54031 0.42734 0.82649 0.0
C1073 C 0.55509 0.43047 0.79772 0.0
C1074 C 0.56863 0.42909 0.83273 0.0
C1075 C 0.56149 0.42514 0.88115 0.0
N1076 N 0.54733 0.42135 0.99395 0.0
C1077 C 0.56414 0.42286 0.98402 0.0
C1078 C 0.57334 0.42599 0.02963 0.0
C1079 C 0.56148 0.42641 0.07034 0.0
C1080 C 0.54559 0.42358 0.04755 0.0
N1081 N 0.53913 0.39308 0.93002 0.0
C1082 C 0.56315 0.36564 0.91057 0.0
C1083 C 0.55936 0.37144 0.96228 0.0
C1084 C 0.54731 0.38482 0.97114 0.0
C1085 C 0.55339 0.37313 0.86956 0.0
C1086 C 0.54153 0.3865 0.88011 0.0
N1087 N 0.52252 0.44163 0.94893 0.0
C1088 C 0.53293 0.47067 0.96276 0.0
C1089 C 0.51671 0.47679 0.97592 0.0
C1090 C 0.50313 0.46476 0.97366 0.0
C1091 C 0.50633 0.44723 0.96091 0.0
C1092 C 0.53544 0.45356 0.94866 0.0
H1093 H 0.49583 0.43823 0.96156 0.0
H1094 H 0.54831 0.45003 0.93928 0.0
H1095 H 0.54545 0.38915 0.01137 0.0
H1096 H 0.53504 0.39227 0.84722 0.0
C1097 C 0.49296 0.3974 0.94396 0.0
C1098 C 0.52919 0.4221 0.07775 0.0
C1099 C 0.52289 0.42596 0.80227 0.0
C1100 C 0.56999 0.42402 0.93086 0.0
H1101 H 0.49629 0.40976 0.11668 0.0
H1102 H 0.47851 0.39318 0.04516 0.0
H1103 H 0.47322 0.39796 0.84999 0.0
H1104 H 0.48827 0.41626 0.77568 0.0
H1105 H 0.55599 0.43315 0.75567 0.0
H1106 H 0.58205 0.43098 0.82393 0.0
H1107 H 0.58695 0.42836 0.03281 0.0
H1108 H 0.56418 0.42858 0.11191 0.0
H1109 H 0.56612 0.36602 0.99585 0.0
H1110 H 0.55538 0.36911 0.82895 0.0
H1111 H 0.54384 0.4792 0.96323 0.0
H1112 H 0.49021 0.46877 0.98281 0.0
C1113 C 0.86904 0.27068 0.30212 0.0
C1114 C 0.88064 0.26154 0.33295 0.0
C1115 C 0.89039 0.25219 0.29872 0.0
C1116 C 0.88447 0.25645 0.24923 0.0
N1117 N 0.87165 0.26793 0.24981 0.0
Co1118 Co 0.86318 0.2806 0.1866 0.0
N1119 N 0.87118 0.26212 0.13826 0.0
C1120 C 0.88154 0.24905 0.15184 0.0
C1121 C 0.88326 0.23702 0.11289 0.0
C1122 C 0.87361 0.24294 0.07164 0.0
C1123 C 0.86692 0.25862 0.08723 0.0
N1124 N 0.85631 0.29341 0.12209 0.0
C1125 C 0.85562 0.28845 0.07012 0.0
C1126 C 0.85116 0.30219 0.03822 0.0
C1127 C 0.84895 0.31603 0.07136 0.0
C1128 C 0.85234 0.31014 0.1218 0.0
N1129 N 0.8539 0.29762 0.23757 0.0
C1130 C 0.84772 0.31302 0.2238 0.0
C1131 C 0.83844 0.32029 0.26433 0.0
C1132 C 0.83891 0.30873 0.30586 0.0
C1133 C 0.84884 0.29506 0.28932 0.0
N1134 N 0.88615 0.29328 0.1817 0.0
C1135 C 0.9147 0.31652 0.16098 0.0
C1136 C 0.90258 0.31931 0.20159 0.0
C1137 C 0.8893 0.30742 0.21278 0.0
C1138 C 0.91235 0.30101 0.13292 0.0
C1139 C 0.89796 0.29014 0.14225 0.0
N1140 N 0.83947 0.27015 0.19051 0.0
C1141 C 0.80891 0.27696 0.19106 0.0
C1142 C 0.8048 0.26232 0.21961 0.0
C1143 C 0.81834 0.25064 0.2288 0.0
C1144 C 0.83557 0.25476 0.21364 0.0
C1145 C 0.82586 0.28045 0.17656 0.0
H1146 H 0.84578 0.24601 0.22371 0.0
H1147 H 0.82761 0.29236 0.15687 0.0
H1148 H 0.88137 0.31031 0.2464 0.0
H1149 H 0.89643 0.2794 0.11614 0.0
C1150 C 0.88837 0.24777 0.20273 0.0
C1151 C 0.85474 0.28045 0.32391 0.0
C1152 C 0.85931 0.27095 0.04989 0.0
C1153 C 0.84833 0.31847 0.17015 0.0
H1154 H 0.88154 0.26117 0.37579 0.0
H1155 H 0.90004 0.24282 0.30886 0.0
H1156 H 0.89048 0.22522 0.11452 0.0
H1157 H 0.87225 0.23665 0.03371 0.0
H1158 H 0.84939 0.30212 0.99562 0.0
H1159 H 0.84457 0.32865 0.06015 0.0
H1160 H 0.83135 0.33216 0.26302 0.0
H1161 H 0.83268 0.31025 0.34386 0.0
H1162 H 0.90326 0.3308 0.22531 0.0
H1163 H 0.92132 0.29747 0.10214 0.0
H1164 H 0.79905 0.28623 0.18166 0.0
H1165 H 0.81584 0.23884 0.24988 0.0
C1166 C 0.01714 0.61517 0.54684 0.0
C1167 C 0.03039 0.62269 0.5755 0.0
C1168 C 0.03948 0.63242 0.5408 0.0
C1169 C 0.03166 0.63005 0.49283 0.0
N1170 N 0.01809 0.61941 0.49483 0.0
Co1171 Co 1.00414 0.61191 0.43284 0.0
N1172 N 0.0228 0.61832 0.38239 0.0
C1173 C 0.03651 0.62809 0.39376 0.0
C1174 C 0.04814 0.6292 0.35336 0.0
C1175 C 0.04131 0.61976 0.31329 0.0
C1176 C 0.02556 0.61376 0.33116 0.0
N1177 N 0.9904 0.60578 0.36928 0.0
C1178 C 0.99502 0.6042 0.31711 0.0
C1179 C 0.98079 0.6006 0.28627 0.0
C1180 C 0.96695 0.59988 0.32021 0.0
C1181 C 0.97337 0.6032 0.37001 0.0
N1182 N 0.98654 0.60458 0.48477 0.0
C1183 C 0.97027 0.60074 0.47257 0.0
C1184 C 0.96122 0.59521 0.51624 0.0
C1185 C 0.97262 0.59559 0.55819 0.0
C1186 C 0.98808 0.60133 0.53806 0.0
N1187 N 0.99309 0.63551 0.42746 0.0
C1188 C 0.96905 0.66314 0.40602 0.0
C1189 C 0.96872 0.65343 0.45335 0.0
C1190 C 0.9811 0.64058 0.46424 0.0
C1191 C 0.98288 0.65921 0.37171 0.0
C1192 C 0.99421 0.64529 0.38216 0.0
N1193 N 1.01283 0.58754 0.43862 0.0
C1194 C 1.00427 0.55748 0.43526 0.0
C1195 C 0.01708 0.5525 0.47044 0.0
C1196 C 0.02871 0.56534 0.48644 0.0
C1197 C 0.02646 0.58266 0.46981 0.0
C1198 C 1.00237 0.57464 0.42021 0.0
H1199 H 0.03537 0.5921 0.4843 0.0
H1200 H 0.9914 0.5771 0.39613 0.0
H1201 H 0.98023 0.63426 0.50212 0.0
H1202 H 1.00351 0.64218 0.35231 0.0
C1203 C 0.03939 0.63388 0.44485 0.0
C1204 C 1.00368 0.60465 0.57089 0.0
C1205 C 1.01264 0.60643 0.29557 0.0
C1206 C 0.96481 0.60094 0.41902 0.0
H1207 H 0.03357 0.62109 0.61694 0.0
H1208 H 0.05123 0.63928 0.54883 0.0
H1209 H 0.0604 0.63565 0.35357 0.0
H1210 H 0.0471 0.618 0.27473 0.0
H1211 H 0.9805 0.59853 0.24384 0.0
H1212 H 0.9539 0.59663 0.30994 0.0
H1213 H 0.94804 0.59099 0.51734 0.0
H1214 H 0.96988 0.59214 0.59891 0.0
H1215 H 0.95873 0.65558 0.4823 0.0
H1216 H 0.98456 0.66642 0.33539 0.0
H1217 H 0.9951 0.54816 0.42102 0.0
H1218 H 0.03911 0.56215 0.51309 0.0
C1219 C 0.66505 0.76632 0.79801 0.0
C1220 C 0.65965 0.78099 0.82431 0.0
C1221 C 0.65012 0.79017 0.78929 0.0
C1222 C 0.65075 0.7811 0.74304 0.0
N1223 N 0.66008 0.76663 0.74666 0.0
Co1224 Co 0.66699 0.75169 0.6867 0.0
N1225 N 0.66244 0.77037 0.63457 0.0
C1226 C 0.65358 0.78483 0.64392 0.0
C1227 C 0.6544 0.79648 0.60349 0.0
C1228 C 0.66411 0.78885 0.56556 0.0
C1229 C 0.66821 0.77262 0.58438 0.0
N1230 N 0.67322 0.7372 0.62518 0.0
C1231 C 0.67553 0.74136 0.57288 0.0
C1232 C 0.67821 0.72673 0.54319 0.0
C1233 C 0.67747 0.7131 0.57794 0.0
C1234 C 0.67428 0.72005 0.62708 0.0
N1235 N 0.67224 0.73391 0.74038 0.0
C1236 C 0.67426 0.71721 0.72993 0.0
C1237 C 0.67811 0.70799 0.775 0.0
C1238 C 0.67853 0.71972 0.81592 0.0
C1239 C 0.67496 0.73555 0.79376 0.0
N1240 N 0.64264 0.74221 0.67948 0.0
C1241 C 0.61397 0.71946 0.65574 0.0
C1242 C 0.62338 0.71864 0.70361 0.0
C1243 C 0.63651 0.73056 0.71589 0.0
C1244 C 0.61874 0.73329 0.62223 0.0
C1245 C 0.63322 0.74388 0.63361 0.0
N1246 N 0.69175 0.75879 0.69441 0.0
C1247 C 0.72096 0.74826 0.70604 0.0
C1248 C 0.7271 0.76414 0.72256 0.0
C1249 C 0.71499 0.77769 0.72241 0.0
C1250 C 0.6974 0.7747 0.70923 0.0
C1251 C 0.70379 0.74601 0.6912 0.0
H1252 H 0.68838 0.78512 0.71211 0.0
H1253 H 0.7003 0.73337 0.67934 0.0
H1254 H 0.6422 0.72952 0.75466 0.0
H1255 H 0.63695 0.75315 0.60432 0.0
C1256 C 0.64761 0.78856 0.69419 0.0
C1257 C 0.67339 0.75178 0.82438 0.0
C1258 C 0.67447 0.75891 0.54993 0.0
C1259 C 0.67445 0.71144 0.67667 0.0
H1260 H 0.6625 0.78501 0.86432 0.0
H1261 H 0.64485 0.80281 0.7954 0.0
H1262 H 0.6492 0.8093 0.60264 0.0
H1263 H 0.6673 0.79448 0.5276 0.0
H1264 H 0.68043 0.72601 0.50087 0.0
H1265 H 0.67942 0.69976 0.56856 0.0
H1266 H 0.68082 0.69446 0.77769 0.0
H1267 H 0.6812 0.71699 0.85723 0.0
H1268 H 0.62079 0.70863 0.73218 0.0
H1269 H 0.61173 0.73561 0.58586 0.0
H1270 H 0.72951 0.73737 0.70461 0.0
H1271 H 0.71897 0.7904 0.7339 0.0
C1272 C 0.48646 0.42696 0.5471 0.0
C1273 C 0.47067 0.43081 0.56902 0.0
C1274 C 0.45891 0.43048 0.52803 0.0
C1275 C 0.46807 0.42642 0.48314 0.0
N1276 N 0.48477 0.42416 0.49367 0.0
Co1277 Co 0.5024 0.41844 0.43985 0.0
N1278 N 0.48778 0.42443 0.37801 0.0
C1279 C 0.47062 0.42572 0.38018 0.0
C1280 C 0.46354 0.42884 0.33108 0.0
C1281 C 0.47709 0.4293 0.29601 0.0
C1282 C 0.49181 0.42651 0.32549 0.0
N1283 N 0.52093 0.41344 0.38752 0.0
C1284 C 0.5229 0.41829 0.33616 0.0
C1285 C 0.53875 0.41319 0.31657 0.0
C1286 C 0.54651 0.40404 0.35571 0.0
C1287 C 0.53528 0.4044 0.39728 0.0
N1288 N 0.51744 0.41179 0.50031 0.0
C1289 C 0.53196 0.40252 0.49696 0.0
C1290 C 0.54116 0.40208 0.54313 0.0
C1291 C 0.53199 0.41165 0.57792 0.0
C1292 C 0.51722 0.41692 0.5516 0.0
N1293 N 0.49267 0.39414 0.43391 0.0
C1294 C 0.46995 0.36531 0.41129 0.0
C1295 C 0.48393 0.36986 0.37809 0.0
C1296 C 0.49448 0.38441 0.3888 0.0
C1297 C 0.4689 0.37509 0.45828 0.0
C1298 C 0.48078 0.38833 0.47008 0.0
N1299 N 0.50974 0.44311 0.44604 0.0
C1300 C 0.52853 0.46614 0.47622 0.0
C1301 C 0.51513 0.47838 0.47364 0.0
C1302 C 0.49948 0.47248 0.45421 0.0
C1303 C 0.49718 0.45529 0.44023 0.0
C1304 C 0.52553 0.44861 0.463 0.0
H1305 H 0.48461 0.45193 0.42712 0.0
H1306 H 0.53581 0.4395 0.46784 0.0
H1307 H 0.50382 0.38791 0.35939 0.0
H1308 H 0.47953 0.39431 0.50827 0.0
C1309 C 0.46218 0.42637 0.42994 0.0
C1310 C 0.50268 0.42522 0.5782 0.0
C1311 C 0.50927 0.42505 0.30203 0.0
C1312 C 0.5392 0.39899 0.44812 0.0
H1313 H 0.46798 0.43357 0.61023 0.0
H1314 H 0.44538 0.43334 0.53059 0.0
H1315 H 0.45018 0.43098 0.32192 0.0
H1316 H 0.47626 0.43137 0.25362 0.0
H1317 H 0.54403 0.41539 0.27748 0.0
H1318 H 0.55914 0.39835 0.35465 0.0
H1319 H 0.55381 0.39681 0.54936 0.0
H1320 H 0.53603 0.41459 0.61788 0.0
H1321 H 0.48641 0.36261 0.3424 0.0
H1322 H 0.45876 0.3727 0.48652 0.0
H1323 H 0.54109 0.46997 0.48984 0.0
H1324 H 0.48876 0.48118 0.45044 0.0
C1325 C 0.35283 0.73319 0.29497 0.0
C1326 C 0.34838 0.71773 0.31801 0.0
C1327 C 0.34725 0.70594 0.27741 0.0
C1328 C 0.35113 0.71474 0.2316 0.0
N1329 N 0.35458 0.73126 0.24116 0.0
Co1330 Co 0.36059 0.7483 0.18573 0.0
N1331 N 0.35239 0.73417 0.12538 0.0
C1332 C 0.34908 0.71731 0.12871 0.0
C1333 C 0.34158 0.71121 0.08314 0.0
C1334 C 0.34045 0.72498 0.04909 0.0
C1335 C 0.34772 0.73885 0.07487 0.0
N1336 N 0.36647 0.7661 0.13169 0.0
C1337 C 0.36292 0.76724 0.07895 0.0
C1338 C 0.37278 0.77992 0.05497 0.0
C1339 C 0.38237 0.78726 0.09381 0.0
C1340 C 0.3782 0.77851 0.13897 0.0
N1341 N 0.36915 0.76291 0.24464 0.0
C1342 C 0.3796 0.7765 0.23924 0.0
C1343 C 0.38169 0.78564 0.28499 0.0
C1344 C 0.37208 0.77729 0.32188 0.0
C1345 C 0.36502 0.76309 0.29689 0.0
N1346 N 0.38419 0.73706 0.17663 0.0
C1347 C 0.41315 0.71442 0.15453 0.0
C1348 C 0.40803 0.72774 0.11973 0.0
C1349 C 0.39334 0.73807 0.12998 0.0
C1350 C 0.40365 0.71374 0.20227 0.0
C1351 C 0.39029 0.72555 0.2136 0.0
N1352 N 0.33644 0.75729 0.1954 0.0
C1353 C 0.31477 0.77739 0.22761 0.0
C1354 C 0.30172 0.76472 0.22679 0.0
C1355 C 0.30657 0.74876 0.20772 0.0
C1356 C 0.32344 0.74546 0.1921 0.0
C1357 C 0.33203 0.77336 0.21249 0.0
H1358 H 0.32579 0.73267 0.1798 0.0
H1359 H 0.34178 0.7831 0.21586 0.0
H1360 H 0.38934 0.74653 0.0987 0.0
H1361 H 0.38455 0.72466 0.2523 0.0
C1362 C 0.34925 0.70897 0.17872 0.0
C1363 C 0.35614 0.74925 0.32533 0.0
C1364 C 0.35152 0.75578 0.04907 0.0
C1365 C 0.38405 0.78253 0.18936 0.0
H1366 H 0.34613 0.71527 0.3597 0.0
H1367 H 0.34344 0.6927 0.28084 0.0
H1368 H 0.33658 0.69851 0.07645 0.0
H1369 H 0.33504 0.72474 0.00959 0.0
H1370 H 0.37355 0.78325 0.0134 0.0
H1371 H 0.39136 0.79769 0.08957 0.0
H1372 H 0.38848 0.79758 0.29011 0.0
H1373 H 0.3705 0.78138 0.36251 0.0
H1374 H 0.41492 0.72983 0.08306 0.0
H1375 H 0.4064 0.70397 0.23151 0.0
H1376 H 0.31179 0.79017 0.24104 0.0
H1377 H 0.29726 0.73853 0.20545 0.0
C1378 C 0.04823 0.60734 0.0394 0.0
C1379 C 0.0643 0.60423 0.06063 0.0
C1380 C 0.07573 0.60443 0.01874 0.0
C1381 C 0.06609 0.60771 0.97405 0.0
N1382 N 0.04943 0.60954 0.98564 0.0
Co1383 Co 0.03125 0.61403 0.93266 0.0
N1384 N 0.0452 0.60675 0.87072 0.0
C1385 C 0.06239 0.60568 0.87153 0.0
C1386 C 0.06902 0.60189 0.82238 0.0
C1387 C 0.05514 0.60076 0.78864 0.0
C1388 C 0.04066 0.60383 0.81889 0.0
N1389 N 1.0123 0.61822 0.88101 0.0
C1390 C 1.00955 0.61175 0.83179 0.0
C1391 C 0.99307 0.61548 0.81433 0.0
C1392 C 0.98581 0.62572 0.85165 0.0
C1393 C 0.99791 0.62717 0.89067 0.0
N1394 N 0.01682 0.62174 0.99307 0.0
C1395 C 1.00242 0.63116 0.98937 0.0
C1396 C 0.99387 0.63273 0.03644 0.0
C1397 C 1.00334 0.62372 0.07213 0.0
C1398 C 0.01762 0.61757 0.04519 0.0
N1399 N 0.0409 0.63801 0.9225 0.0
C1400 C 0.06425 0.66623 0.9028 0.0
C1401 C 0.05431 0.65871 0.86216 0.0
C1402 C 0.04305 0.64476 0.8726 0.0
C1403 C 0.06099 0.65986 0.95437 0.0
C1404 C 0.04919 0.64623 0.96337 0.0
N1405 N 0.02386 0.58962 0.94369 0.0
C1406 C 1.00443 0.56715 0.97381 0.0
C1407 C 0.0177 0.55478 0.97434 0.0
C1408 C 0.03373 0.56033 0.95688 0.0
C1409 C 0.03643 0.57734 0.94141 0.0
C1410 C 1.0078 0.58448 0.95912 0.0
H1411 H 0.04919 0.58055 0.92953 0.0
H1412 H 0.99757 0.59374 0.96129 0.0
H1413 H 0.03689 0.63876 0.83953 0.0
H1414 H 0.04764 0.6417 1.00356 0.0
C1415 C 0.07138 0.60656 0.92038 0.0
C1416 C 0.0322 0.60909 0.07121 0.0
C1417 C 0.02296 0.60508 0.79648 0.0
C1418 C 0.9946 0.63366 0.94067 0.0
H1419 H 0.0674 0.60202 0.10194 0.0
H1420 H 0.08932 0.60184 0.02058 0.0
H1421 H 0.08233 0.59995 0.81226 0.0
H1422 H 0.05562 0.59819 0.74649 0.0
H1423 H 0.98701 0.61167 0.7776 0.0
H1424 H 0.97292 0.63079 0.85155 0.0
H1425 H 0.98138 0.63832 0.043 0.0
H1426 H 0.99974 0.62167 0.113 0.0
H1427 H 0.05582 0.66305 0.82161 0.0
H1428 H 0.06792 0.66506 0.98785 0.0
H1429 H 0.99163 0.56356 0.98593 0.0
H1430 H 0.04438 0.55147 0.95561 0.0
C1431 C 0.18402 0.29508 0.79292 0.0
C1432 C 0.19449 0.30842 0.80898 0.0
C1433 C 0.1951 0.32001 0.76752 0.0
C1434 C 0.18545 0.31306 0.72725 0.0
N1435 N 0.17893 0.29782 0.74111 0.0
Co1436 Co 0.16995 0.2808 0.6896 0.0
N1437 N 0.17721 0.29342 0.62513 0.0
C1438 C 0.18121 0.31014 0.62486 0.0
C1439 C 0.18519 0.31585 0.57464 0.0
C1440 C 0.18338 0.30189 0.54166 0.0
C1441 C 0.17855 0.28825 0.57341 0.0
N1442 N 0.16227 0.26227 0.64091 0.0
C1443 C 0.16685 0.25861 0.59017 0.0
C1444 C 0.15978 0.24314 0.57413 0.0
C1445 C 0.14969 0.2375 0.61477 0.0
C1446 C 0.15148 0.24949 0.65386 0.0
N1447 N 0.16101 0.26835 0.75248 0.0
C1448 C 0.14788 0.25724 0.75097 0.0
C1449 C 0.14121 0.25356 0.79995 0.0
C1450 C 0.15078 0.2629 0.83478 0.0
C1451 C 0.1631 0.27138 0.80491 0.0
N1452 N 0.14706 0.29346 0.68296 0.0
C1453 C 0.11858 0.31661 0.66112 0.0
C1454 C 0.12142 0.30145 0.63177 0.0
C1455 C 0.13579 0.29062 0.64181 0.0
C1456 C 0.13018 0.31913 0.7034 0.0
C1457 C 0.14348 0.30729 0.7149 0.0
N1458 N 0.19363 0.27046 0.69556 0.0
C1459 C 0.21459 0.25219 0.74016 0.0
C1460 C 0.22813 0.26375 0.72916 0.0
C1461 C 0.22404 0.27766 0.69717 0.0
C1462 C 0.20724 0.28056 0.68049 0.0
C1463 C 0.19748 0.25571 0.72251 0.0
H1464 H 0.20564 0.29195 0.65792 0.0
H1465 H 0.1873 0.24693 0.73242 0.0
H1466 H 0.13777 0.28018 0.61485 0.0
H1467 H 0.1511 0.30994 0.74945 0.0
C1468 C 0.1851 0.31841 0.67342 0.0
C1469 C 0.17767 0.28061 0.82781 0.0
C1470 C 0.17521 0.27062 0.5533 0.0
C1471 C 0.14418 0.24853 0.70425 0.0
H1472 H 0.20112 0.30968 0.8464 0.0
H1473 H 0.20263 0.3316 0.7659 0.0
H1474 H 0.18983 0.32839 0.56361 0.0
H1475 H 0.18573 0.30167 0.49935 0.0
H1476 H 0.16117 0.23684 0.53624 0.0
H1477 H 0.1421 0.22594 0.61585 0.0
H1478 H 0.1311 0.24461 0.80946 0.0
H1479 H 0.1493 0.26292 0.87747 0.0
H1480 H 0.11289 0.29819 0.5995 0.0
H1481 H 0.12906 0.33036 0.72813 0.0
H1482 H 0.21709 0.2408 0.76333 0.0
H1483 H 0.23387 0.28676 0.68604 0.0
C1484 C 0.48557 0.60185 0.9656 0.0
C1485 C 0.46967 0.59801 0.94431 0.0
C1486 C 0.45818 0.59791 0.98594 0.0
C1487 C 0.46759 0.60173 0.03057 0.0
N1488 N 0.48422 0.6042 0.01932 0.0
Co1489 Co 0.50206 0.61003 0.07249 0.0
N1490 N 0.48779 0.60377 0.13481 0.0
C1491 C 0.47063 0.6023 0.13336 0.0
C1492 C 0.46383 0.59898 0.18267 0.0
C1493 C 0.47755 0.59858 0.21713 0.0
C1494 C 0.49209 0.6016 0.18709 0.0
N1495 N 0.52077 0.61517 0.12422 0.0
C1496 C 0.52302 0.61023 0.1754 0.0
C1497 C 0.53888 0.61546 0.19454 0.0
C1498 C 0.5464 0.62473 0.15527 0.0
C1499 C 0.535 0.62434 0.11408 0.0
N1500 N 0.51675 0.617 0.01154 0.0
C1501 C 0.53126 0.6263 0.01458 0.0
C1502 C 0.54014 0.62711 0.96791 0.0
C1503 C 0.53075 0.61778 0.93303 0.0
C1504 C 0.51619 0.61227 0.95991 0.0
N1505 N 0.49208 0.63413 0.07905 0.0
C1506 C 0.46867 0.66221 0.10269 0.0
C1507 C 0.48274 0.6579 0.13586 0.0
C1508 C 0.49365 0.64367 0.12462 0.0
C1509 C 0.46792 0.65268 0.05518 0.0
C1510 C 0.48015 0.63986 0.04287 0.0
N1511 N 0.50969 0.58547 0.06571 0.0
C1512 C 0.52853 0.56273 0.03398 0.0
C1513 C 0.51541 0.55026 0.03847 0.0
C1514 C 0.49986 0.55593 0.05915 0.0
C1515 C 0.49737 0.57312 0.07272 0.0
C1516 C 0.52538 0.58022 0.04732 0.0
H1517 H 0.48484 0.57631 0.08653 0.0
H1518 H 0.53545 0.58948 0.04135 0.0
H1519 H 0.50305 0.64022 0.15394 0.0
H1520 H 0.47912 0.63406 1.00435 0.0
C1521 C 0.46197 0.60163 0.08398 0.0
C1522 C 0.5015 0.60417 0.9336 0.0
C1523 C 0.50963 0.60318 0.20981 0.0
C1524 C 0.53869 0.6298 0.06318 0.0
H1525 H 0.46672 0.59561 0.90303 0.0
H1526 H 0.44465 0.59504 0.98391 0.0
H1527 H 0.45054 0.59666 0.19234 0.0
H1528 H 0.47696 0.59639 0.25951 0.0
H1529 H 0.54436 0.61322 0.23338 0.0
H1530 H 0.55898 0.63052 0.15595 0.0
H1531 H 0.5527 0.63254 0.96122 0.0
H1532 H 0.53448 0.61521 0.89255 0.0
H1533 H 0.48501 0.66504 0.1719 0.0
H1534 H 0.45773 0.65493 0.02691 0.0
H1535 H 0.54096 0.55909 0.01886 0.0
H1536 H 0.48932 0.54706 0.06398 0.0
C1537 C 0.17972 0.73619 0.72215 0.0
C1538 C 0.18841 0.72251 0.70012 0.0
C1539 C 0.19556 0.71358 0.74147 0.0
C1540 C 0.19073 0.72215 0.78656 0.0
N1541 N 0.18051 0.73565 0.77657 0.0
Co1542 Co 0.17289 0.75267 0.83108 0.0
N1543 N 0.18284 0.73964 0.89267 0.0
C1544 C 0.19244 0.72543 0.88865 0.0
C1545 C 0.19783 0.71932 0.93702 0.0
C1546 C 0.19156 0.73058 0.97394 0.0
C1547 C 0.18273 0.74306 0.94608 0.0
N1548 N 0.16592 0.77058 0.88393 0.0
C1549 C 0.16974 0.77247 0.93613 0.0
C1550 C 0.1647 0.7884 0.95507 0.0
C1551 C 0.15679 0.79653 0.91445 0.0
C1552 C 0.15782 0.7854 0.87298 0.0
N1553 N 0.16217 0.76587 0.77077 0.0
C1554 C 0.15319 0.78054 0.77522 0.0
C1555 C 0.14765 0.78728 0.72843 0.0
C1556 C 0.15362 0.77648 0.691 0.0
C1557 C 0.1623 0.76338 0.71733 0.0
N1558 N 0.1506 0.73923 0.84226 0.0
C1559 C 0.1206 0.7178 0.8608 0.0
C1560 C 0.11945 0.7358 0.85385 0.0
C1561 C 0.13442 0.74617 0.84531 0.0
C1562 C 0.13725 0.71119 0.85808 0.0
C1563 C 0.1516 0.72175 0.84827 0.0
N1564 N 0.19602 0.76421 0.82031 0.0
C1565 C 0.21935 0.77 0.75813 0.0
C1566 C 0.2319 0.76581 0.79588 0.0
C1567 C 0.22605 0.76332 0.84791 0.0
C1568 C 0.20833 0.7633 0.85936 0.0
C1569 C 0.20168 0.76915 0.77093 0.0
H1570 H 0.20485 0.76164 0.89997 0.0
H1571 H 0.19283 0.77191 0.7397 0.0
H1572 H 0.13273 0.75977 0.84114 0.0
H1573 H 0.16357 0.71531 0.84576 0.0
C1574 C 0.19597 0.71832 0.83867 0.0
C1575 C 0.17234 0.75025 0.68972 0.0
C1576 C 0.17702 0.75933 0.97051 0.0
C1577 C 0.152 0.78897 0.8228 0.0
H1578 H 0.19015 0.71984 0.65835 0.0
H1579 H 0.20382 0.70252 0.73879 0.0
H1580 H 0.20574 0.70822 0.94452 0.0
H1581 H 0.19403 0.73024 0.0162 0.0
H1582 H 0.16645 0.79369 0.9943 0.0
H1583 H 0.15125 0.80921 0.91476 0.0
H1584 H 0.14102 0.79926 0.72203 0.0
H1585 H 0.15242 0.77898 0.64914 0.0
H1586 H 0.10703 0.7419 0.8551 0.0
H1587 H 0.13929 0.69759 0.86298 0.0
H1588 H 0.22319 0.77329 0.71817 0.0
H1589 H 0.23512 0.76102 0.87965 0.0
C1590 C 0.0449 0.43129 0.47727 0.0
C1591 C 0.06029 0.43722 0.45717 0.0
C1592 C 0.07162 0.43788 0.49924 0.0
C1593 C 0.0626 0.43231 0.54291 0.0
N1594 N 0.04641 0.42816 0.53062 0.0
Co1595 Co 0.02881 0.42081 0.58249 0.0
N1596 N 0.0424 0.42729 0.64596 0.0
C1597 C 0.05937 0.43018 0.64541 0.0
C1598 C 0.06563 0.4339 0.69515 0.0
C1599 C 0.05172 0.43318 0.72881 0.0
C1600 C 0.03762 0.42917 0.69786 0.0
N1601 N 1.01014 0.41441 0.63283 0.0
C1602 C 1.0072 0.41927 0.68367 0.0
C1603 C 0.9915 0.41318 0.70155 0.0
C1604 C 0.98488 0.4034 0.66191 0.0
C1605 C 0.99659 0.4044 0.6217 0.0
N1606 N 1.01508 0.41289 0.52055 0.0
C1607 C 1.00162 0.40212 0.52275 0.0
C1608 C 0.99382 0.39961 0.47482 0.0
C1609 C 1.00282 0.40938 0.43997 0.0
C1610 C 1.01605 0.41702 0.46843 0.0
N1611 N 0.04003 0.39731 0.58889 0.0
C1612 C 0.06364 0.36933 0.61088 0.0
C1613 C 0.04977 0.37343 0.64479 0.0
C1614 C 0.03868 0.38754 0.63419 0.0
C1615 C 0.06432 0.37913 0.56378 0.0
C1616 C 0.05215 0.39217 0.5526 0.0
N1617 N 0.01982 0.44509 0.57579 0.0
C1618 C 1.00464 0.46697 0.52442 0.0
C1619 C 1.01563 0.48003 0.54267 0.0
C1620 C 0.02763 0.47534 0.58091 0.0
C1621 C 0.02958 0.45821 0.59637 0.0
C1622 C 1.00675 0.44974 0.54202 0.0
H1623 H 0.03999 0.45602 0.62294 0.0
H1624 H 0.99819 0.44022 0.52627 0.0
H1625 H 0.02939 0.39077 0.66396 0.0
H1626 H 0.05327 0.39852 0.51482 0.0
C1627 C 0.06797 0.43242 0.5965 0.0
C1628 C 0.02937 0.42775 0.44439 0.0
C1629 C 0.01995 0.42708 0.71891 0.0
C1630 C 0.99387 0.39838 0.57078 0.0
H1631 H 0.06301 0.44066 0.41643 0.0
H1632 H 0.08472 0.44235 0.49823 0.0
H1633 H 0.07858 0.43749 0.70547 0.0
H1634 H 0.05186 0.4356 0.77107 0.0
H1635 H 0.98556 0.41515 0.73981 0.0
H1636 H 0.97268 0.39683 0.66177 0.0
H1637 H 0.98209 0.3927 0.46695 0.0
H1638 H 0.99948 0.411 0.39868 0.0
H1639 H 0.04784 0.36619 0.68095 0.0
H1640 H 0.0744 0.3769 0.53519 0.0
H1641 H 0.9948 0.46992 0.49557 0.0
H1642 H 0.03623 0.48486 0.59712 0.0
C1643 C 0.3546 0.29516 0.22321 0.0
C1644 C 0.35089 0.31104 0.20162 0.0
C1645 C 0.35121 0.32262 0.24293 0.0
C1646 C 0.35513 0.31329 0.28771 0.0
N1647 N 0.35729 0.29664 0.27675 0.0
Co1648 Co 0.36286 0.27884 0.33017 0.0
N1649 N 0.35667 0.29314 0.39221 0.0
C1650 C 0.35544 0.31027 0.39063 0.0
C1651 C 0.35201 0.31707 0.43981 0.0
C1652 C 0.35127 0.30336 0.47425 0.0
C1653 C 0.35421 0.28882 0.44435 0.0
N1654 N 0.36783 0.26015 0.38207 0.0
C1655 C 0.36282 0.25792 0.43315 0.0
C1656 C 0.3682 0.24216 0.45267 0.0
C1657 C 0.37761 0.2347 0.41371 0.0
C1658 C 0.37717 0.24603 0.37233 0.0
N1659 N 0.3697 0.26408 0.26954 0.0
C1660 C 0.37911 0.24966 0.27277 0.0
C1661 C 0.37974 0.24068 0.22634 0.0
C1662 C 0.37018 0.24991 0.1915 0.0
C1663 C 0.36471 0.2645 0.2181 0.0
N1664 N 0.38716 0.28853 0.33707 0.0
C1665 C 0.41596 0.31127 0.35988 0.0
C1666 C 0.41112 0.29762 0.39395 0.0
C1667 C 0.39657 0.28706 0.38309 0.0
C1668 C 0.40648 0.31199 0.3121 0.0
C1669 C 0.39324 0.3001 0.30035 0.0
N1670 N 0.33814 0.27155 0.32298 0.0
C1671 C 0.31504 0.25297 0.29193 0.0
C1672 C 0.30281 0.26639 0.29433 0.0
C1673 C 0.30876 0.28194 0.31409 0.0
C1674 C 0.32596 0.28413 0.32858 0.0
C1675 C 0.3326 0.25587 0.30563 0.0
H1676 H 0.32935 0.29663 0.34191 0.0
H1677 H 0.3417 0.24559 0.30085 0.0
H1678 H 0.39275 0.27806 0.41313 0.0
H1679 H 0.38742 0.30111 0.26175 0.0
C1680 C 0.35504 0.31893 0.34113 0.0
C1681 C 0.35637 0.27907 0.19177 0.0
C1682 C 0.35551 0.27124 0.46708 0.0
C1683 C 0.38271 0.24233 0.32154 0.0
H1684 H 0.34824 0.3139 0.16039 0.0
H1685 H 0.34843 0.33615 0.24065 0.0
H1686 H 0.34982 0.33036 0.44939 0.0
H1687 H 0.34891 0.30395 0.51652 0.0
H1688 H 0.36597 0.23672 0.49155 0.0
H1689 H 0.38353 0.22219 0.41472 0.0
H1690 H 0.38517 0.22813 0.21988 0.0
H1691 H 0.36739 0.24602 0.1513 0.0
H1692 H 0.41811 0.29541 0.4304 0.0
H1693 H 0.40909 0.3219 0.28322 0.0
H1694 H 0.31117 0.24048 0.27805 0.0
H1695 H 0.30009 0.29267 0.31769 0.0
C1696 C 0.01752 0.08641 0.80103 0.0
C1697 C 1.01192 0.10185 0.7764 0.0
C1698 C 0.02453 0.11781 0.85121 0.0
C1699 C 0.02724 0.10254 0.88038 0.0
N1700 N 0.02691 0.07192 0.88209 0.0
N1701 N 1.00666 0.13195 0.78627 0.0
C1702 C 0.02397 0.08668 0.85479 0.0
C1703 C 1.01443 0.11746 0.80411 0.0
N1704 N 0.01685 0.07157 0.77276 0.0
N1705 N 0.03097 0.13281 0.87011 0.0
H1706 H 0.99796 0.13168 0.75504 0.0
H1707 H 1.00702 0.14351 0.80669 0.0
H1708 H 0.03833 0.13332 0.90469 0.0
H1709 H 0.03046 0.14422 0.84878 0.0
H1710 H 0.02223 0.06013 0.78558 0.0
H1711 H 1.01152 0.07097 0.73482 0.0
H1712 H 0.02395 0.05987 0.86752 0.0
H1713 H 0.03208 0.07187 0.9203 0.0
C1714 C 0.19283 0.76895 0.05486 0.0
C1715 C 0.17748 0.76327 0.02965 0.0
C1716 C 0.16098 0.77599 0.10288 0.0
C1717 C 0.17616 0.77876 0.13249 0.0
N1718 N 0.2068 0.77872 0.13603 0.0
N1719 N 0.14701 0.75903 0.03512 0.0
C1720 C 0.1922 0.77557 0.10806 0.0
C1721 C 0.16158 0.76603 0.05566 0.0
N1722 N 0.20789 0.76839 0.02755 0.0
N1723 N 0.14586 0.78239 0.12131 0.0
H1724 H 0.14709 0.75144 1.00112 0.0
H1725 H 0.13525 0.75938 0.05452 0.0
H1726 H 0.14523 0.78968 0.15592 0.0
H1727 H 0.13449 0.78192 0.09978 0.0
H1728 H 0.21919 0.77401 0.04066 0.0
H1729 H 0.2089 0.76297 0.99002 0.0
H1730 H 0.21899 0.77584 0.12226 0.0
H1731 H 0.20662 0.78402 0.174 0.0
C1732 C 0.51251 0.91216 0.30453 0.0
C1733 C 0.51923 0.92718 0.27992 0.0
C1734 C 0.51314 0.94261 0.36375 0.0
C1735 C 0.50502 0.92789 0.38555 0.0
N1736 N 0.49291 0.90021 0.3694 0.0
N1737 N 0.52321 0.95764 0.28485 0.0
C1738 C 0.50311 0.91333 0.35287 0.0
C1739 C 0.51873 0.94272 0.30925 0.0
N1740 N 0.51558 0.89656 0.28256 0.0
N1741 N 0.51591 0.95636 0.39565 0.0
H1742 H 0.52758 0.95811 0.24578 0.0
H1743 H 0.52149 0.96959 0.30214 0.0
H1744 H 0.51119 0.95682 0.43425 0.0
H1745 H 0.52344 0.96678 0.38476 0.0
H1746 H 0.51235 0.88509 0.30102 0.0
H1747 H 0.52304 0.89512 0.24881 0.0
H1748 H 0.48993 0.88979 0.34545 0.0
H1749 H 0.48609 0.9007 0.40497 0.0
C1750 C 0.33893 0.26165 0.55 0.0
C1751 C 0.35454 0.26723 0.52641 0.0
C1752 C 0.37011 0.25515 0.60316 0.0
C1753 C 0.35456 0.25232 0.6309 0.0
N1754 N 0.32391 0.252 0.62969 0.0
N1755 N 0.38482 0.27187 0.53618 0.0
C1756 C 0.33886 0.25523 0.60375 0.0
C1757 C 0.37007 0.26474 0.55489 0.0
N1758 N 0.32424 0.26228 0.52065 0.0
N1759 N 0.38503 0.24908 0.62418 0.0
H1760 H 0.38505 0.27953 0.50231 0.0
H1761 H 0.39631 0.27175 0.55718 0.0
H1762 H 0.38528 0.24205 0.65942 0.0
H1763 H 0.39668 0.24954 0.60418 0.0
H1764 H 0.31269 0.25689 0.53257 0.0
H1765 H 0.32384 0.26758 0.48264 0.0
H1766 H 0.31191 0.25474 0.61406 0.0
H1767 H 0.32362 0.24674 0.66777 0.0
C1768 C 0.01814 0.94177 0.72172 0.0
C1769 C 1.0132 0.92626 0.74718 0.0
C1770 C 0.02566 0.91034 0.67212 0.0
C1771 C 0.02786 0.92562 0.64258 0.0
N1772 N 0.02666 0.95622 0.63981 0.0
N1773 N 1.00921 0.89586 0.74012 0.0
C1774 C 0.02431 0.94148 0.66778 0.0
C1775 C 1.01605 0.91058 0.72022 0.0
N1776 N 0.01713 0.9567 0.74943 0.0
N1777 N 0.03226 0.89544 0.65291 0.0
H1778 H 1.00138 0.89581 0.77354 0.0
H1779 H 1.00968 0.88422 0.72022 0.0
H1780 H 0.03929 0.89502 0.61772 0.0
H1781 H 0.03222 0.88405 0.67437 0.0
H1782 H 0.02208 0.96826 0.73594 0.0
H1783 H 1.01201 0.95732 0.78763 0.0
H1784 H 0.02334 0.96823 0.654 0.0
H1785 H 0.03165 0.9563 0.6014 0.0
C1786 C 0.34877 0.75551 0.8948 0.0
C1787 C 0.34839 0.77336 0.88182 0.0
C1788 C 0.34241 0.77765 0.97745 0.0
C1789 C 0.34773 0.76066 0.99076 0.0
N1790 N 0.36238 0.73595 0.95528 0.0
N1791 N 0.35049 0.80142 0.92146 0.0
C1792 C 0.35252 0.75012 0.94759 0.0
C1793 C 0.34638 0.78458 0.92591 0.0
N1794 N 0.34658 0.74355 0.85652 0.0
N1795 N 0.33484 0.78763 0.01489 0.0
H1796 H 0.35637 0.80639 0.88773 0.0
H1797 H 0.3503 0.80968 0.95387 0.0
H1798 H 0.33026 0.79984 1.00619 0.0
H1799 H 0.33182 0.78296 0.05259 0.0
H1800 H 0.34621 0.73048 0.8649 0.0
H1801 H 0.34327 0.74702 0.8183 0.0
H1802 H 0.36703 0.72872 0.92368 0.0
H1803 H 0.36774 0.73287 0.99194 0.0
C1804 C 0.49534 0.09791 0.17616 0.0
C1805 C 0.50602 0.09653 0.13069 0.0
C1806 C 0.53096 0.09696 0.19171 0.0
C1807 C 0.52028 0.09638 0.2371 0.0
N1808 N 0.4917 0.09006 0.26855 0.0
N1809 N 0.53414 0.08833 0.10062 0.0
C1810 C 0.5023 0.09438 0.22778 0.0
C1811 C 0.52382 0.09356 0.14067 0.0
N1812 N 0.47923 0.10443 0.17186 0.0
N1813 N 0.54753 0.10231 0.19568 0.0
H1814 H 0.52902 0.08534 0.06394 0.0
H1815 H 0.54698 0.08515 0.10621 0.0
H1816 H 0.55289 0.10655 0.23115 0.0
H1817 H 0.55524 0.1043 0.16247 0.0
H1818 H 0.47161 0.10691 0.20491 0.0
H1819 H 0.47444 0.10935 0.13643 0.0
H1820 H 0.47869 0.08765 0.26284 0.0
H1821 H 0.4963 0.08732 0.30645 0.0
C1822 C 0.16047 0.26293 0.466 0.0
C1823 C 0.17598 0.26582 0.49425 0.0
C1824 C 0.19184 0.25581 0.41449 0.0
C1825 C 0.17617 0.2521 0.38797 0.0
N1826 N 0.14596 0.24708 0.39649 0.0
N1827 N 0.20655 0.26237 0.49772 0.0
C1828 C 0.16066 0.25384 0.41686 0.0
C1829 C 0.19173 0.26144 0.4691 0.0
N1830 N 0.14547 0.26929 0.48551 0.0
N1831 N 0.2068 0.25424 0.38715 0.0
H1832 H 0.2069 0.26688 0.53664 0.0
H1833 H 0.21826 0.25777 0.48432 0.0
H1834 H 0.20725 0.24972 0.34825 0.0
H1835 H 0.21863 0.2579 0.40224 0.0
H1836 H 0.13399 0.26893 0.46451 0.0
H1837 H 0.14493 0.27648 0.52025 0.0
H1838 H 0.13448 0.2467 0.41744 0.0
H1839 H 0.1458 0.24033 0.36081 0.0
C1840 C 1.01213 0.94183 0.22253 0.0
C1841 C 0.01709 0.92624 0.24748 0.0
C1842 C 1.00467 0.91057 0.1718 0.0
C1843 C 1.00245 0.92596 0.14277 0.0
N1844 N 1.00352 0.95656 0.14113 0.0
N1845 N 0.02106 0.89586 0.23957 0.0
C1846 C 1.00594 0.94172 0.16856 0.0
C1847 C 1.01425 0.91065 0.22002 0.0
N1848 N 1.01314 0.95667 0.25074 0.0
N1849 N 0.99811 0.89573 0.15202 0.0
H1850 H 0.02883 0.89568 0.27318 0.0
H1851 H 0.02062 0.88429 0.2193 0.0
H1852 H 0.99109 0.89543 0.11675 0.0
H1853 H 0.99815 0.88426 0.17306 0.0
H1854 H 1.00819 0.96828 0.23764 0.0
H1855 H 0.01827 0.95716 0.28895 0.0
H1856 H 1.00676 0.96853 0.15578 0.0
H1857 H 0.99851 0.95676 0.10272 0.0
C1858 C 0.84363 0.26271 0.96383 0.0
C1859 C 0.85918 0.26635 0.99091 0.0
C1860 C 0.87494 0.25317 0.91658 0.0
C1861 C 0.85983 0.25212 0.88542 0.0
N1862 N 0.82927 0.25653 0.88062 0.0
N1863 N 0.88989 0.26846 0.98611 0.0
C1864 C 0.844 0.25701 0.90954 0.0
C1865 C 0.8749 0.26264 0.96494 0.0
N1866 N 0.82849 0.2642 0.99045 0.0
N1867 N 0.88952 0.24538 0.89922 0.0
H1868 H 0.89026 0.2759 0.02037 0.0
H1869 H 0.90162 0.26739 0.96673 0.0
H1870 H 0.88986 0.2383 0.86417 0.0
H1871 H 0.9006 0.24455 0.9221 0.0
H1872 H 0.81685 0.25986 0.97548 0.0
H1873 H 0.82773 0.26873 0.02928 0.0
H1874 H 0.81784 0.26205 0.89309 0.0
H1875 H 0.82864 0.25111 0.84313 0.0
C1876 C 0.51905 0.12182 0.71541 0.0
C1877 C 0.51489 0.10623 0.74147 0.0
C1878 C 0.52371 0.09091 0.6599 0.0
C1879 C 0.52913 0.10657 0.63579 0.0
N1880 N 0.53688 0.13593 0.64987 0.0
N1881 N 0.51615 0.07555 0.7409 0.0
C1882 C 0.52857 0.12162 0.66706 0.0
C1883 C 0.51804 0.09065 0.7143 0.0
N1884 N 0.51363 0.13693 0.73646 0.0
N1885 N 0.52361 0.07625 0.63089 0.0
H1886 H 0.51166 0.07488 0.77983 0.0
H1887 H 0.52013 0.06383 0.72581 0.0
H1888 H 0.5289 0.07552 0.59323 0.0
H1889 H 0.51772 0.06502 0.64343 0.0
H1890 H 0.51505 0.14861 0.71702 0.0
H1891 H 0.50613 0.1375 0.77064 0.0
H1892 H 0.53805 0.14692 0.67286 0.0
H1893 H 0.54402 0.1361 0.61487 0.0
C1894 C 0.69032 0.76583 0.46323 0.0
C1895 C 0.6747 0.76273 0.4905 0.0
C1896 C 0.65947 0.77814 0.41932 0.0
C1897 C 0.67435 0.77851 0.38733 0.0
N1898 N 0.70458 0.77281 0.38025 0.0
N1899 N 0.64395 0.76221 0.48611 0.0
C1900 C 0.69001 0.77244 0.40983 0.0
C1901 C 0.65914 0.76772 0.46569 0.0
N1902 N 0.70544 0.7629 0.48883 0.0
N1903 N 0.64532 0.78706 0.40372 0.0
H1904 H 0.64347 0.75362 0.51769 0.0
H1905 H 0.6322 0.76446 0.46778 0.0
H1906 H 0.6453 0.79467 0.36964 0.0
H1907 H 0.63442 0.78817 0.42726 0.0
H1908 H 0.71729 0.76667 0.47395 0.0
H1909 H 0.70602 0.75749 0.52668 0.0
H1910 H 0.71588 0.76674 0.39139 0.0
H1911 H 0.70517 0.77894 0.34369 0.0
C1912 C 1.00605 0.08845 0.35536 0.0
C1913 C 1.00254 0.10434 0.38043 0.0
C1914 C 1.01459 0.11927 0.30286 0.0
C1915 C 0.01733 0.10356 0.27594 0.0
N1916 N 1.0132 0.07314 0.27384 0.0
N1917 N 0.99845 0.13456 0.36997 0.0
C1918 C 1.01228 0.0881 0.30146 0.0
C1919 C 1.00495 0.11961 0.35091 0.0
N1920 N 1.00364 0.07374 0.3834 0.0
N1921 N 0.02152 0.13393 0.28286 0.0
H1922 H 0.99136 0.13506 0.40503 0.0
H1923 H 0.99862 0.14595 0.34849 0.0
H1924 H 0.0293 0.13393 0.24929 0.0
H1925 H 0.02116 0.14558 0.30272 0.0
H1926 H 1.00698 0.06172 0.36934 0.0
H1927 H 0.99861 0.07368 0.42177 0.0
H1928 H 1.00815 0.06163 0.28735 0.0
H1929 H 0.01836 0.07247 0.23571 0.0
C1930 C 0.68409 0.27131 0.12967 0.0
C1931 C 0.68477 0.25342 0.14077 0.0
C1932 C 0.69007 0.24987 0.04457 0.0
C1933 C 0.68478 0.267 0.03312 0.0
N1934 N 0.67039 0.29146 0.07095 0.0
N1935 N 0.683 0.22558 0.09988 0.0
C1936 C 0.68029 0.27725 0.07732 0.0
C1937 C 0.68663 0.24254 0.09591 0.0
N1938 N 0.68588 0.2825 0.17031 0.0
N1939 N 0.69723 0.24018 1.0056 0.0
H1940 H 0.67783 0.22023 0.13418 0.0
H1941 H 0.68296 0.21749 0.06704 0.0
H1942 H 0.69988 0.24514 0.96799 0.0
H1943 H 0.70191 0.22791 0.01282 0.0
H1944 H 0.68616 0.29574 0.16524 0.0
H1945 H 0.68616 0.29574 0.16524 0.0
H1946 H 0.66555 0.29831 0.10308 0.0
H1947 H 0.66507 0.29494 0.03459 0.0
C1948 C 0.5238 0.91055 0.8057 0.0
C1949 C 0.51853 0.92575 0.77915 0.0
C1950 C 0.52575 0.94171 0.8611 0.0
C1951 C 0.53273 0.92668 0.88466 0.0
N1952 N 0.54225 0.89778 0.87237 0.0
N1953 N 0.51698 0.95647 0.78023 0.0
C1954 C 0.53331 0.91155 0.85395 0.0
C1955 C 0.52028 0.94157 0.80649 0.0
N1956 N 0.5192 0.89504 0.78571 0.0
N1957 N 0.52379 0.95596 0.89151 0.0
H1958 H 0.51264 0.95677 0.74107 0.0
H1959 H 0.51963 0.96846 0.79612 0.0
H1960 H 0.52813 0.95649 0.93062 0.0
H1961 H 0.5171 0.96676 0.879 0.0
H1962 H 0.52143 0.88356 0.80553 0.0
H1963 H 0.51143 0.89389 0.75233 0.0
H1964 H 0.54418 0.88678 0.84994 0.0
H1965 H 0.54912 0.89816 0.90787 0.0
C1966 C 0.83929 0.77692 0.60207 0.0
C1967 C 0.85483 0.77989 0.63007 0.0
C1968 C 0.87087 0.7689 0.55305 0.0
C1969 C 0.8555 0.76646 0.52371 0.0
N1970 N 0.82511 0.7709 0.51755 0.0
N1971 N 0.88523 0.78408 0.62427 0.0
C1972 C 0.83968 0.77135 0.54747 0.0
C1973 C 0.87052 0.77782 0.60243 0.0
N1974 N 0.82415 0.77918 0.62801 0.0
N1975 N 0.88585 0.76222 0.53443 0.0
H1976 H 0.88525 0.79071 0.66018 0.0
H1977 H 0.8969 0.7842 0.60434 0.0
H1978 H 0.88652 0.75516 0.49943 0.0
H1979 H 0.89718 0.76221 0.55628 0.0
H1980 H 0.81231 0.77628 0.61163 0.0
H1981 H 0.82354 0.78364 0.66695 0.0
H1982 H 0.81341 0.77582 0.52991 0.0
H1983 H 0.82496 0.76643 0.47857 0.0
C1984 C 0.51625 0.61858 0.2958 0.0
C1985 C 0.51349 0.6028 0.26927 0.0
C1986 C 0.52476 0.58787 0.34903 0.0
C1987 C 0.52814 0.60381 0.37387 0.0
N1988 N 0.53235 0.63399 0.36279 0.0
N1989 N 0.51764 0.57238 0.26774 0.0
C1990 C 0.52585 0.61901 0.34393 0.0
C1991 C 0.51856 0.58739 0.29509 0.0
N1992 N 0.50931 0.63319 0.27548 0.0
N1993 N 0.52732 0.57322 0.3773 0.0
H1994 H 0.5125 0.57164 0.22957 0.0
H1995 H 0.52266 0.56088 0.2815 0.0
H1996 H 0.5323 0.57328 0.41574 0.0
H1997 H 0.52423 0.56113 0.36329 0.0
H1998 H 0.50971 0.64489 0.29505 0.0
H1999 H 0.50146 0.6331 0.24205 0.0
H2000 H 0.53224 0.64533 0.34104 0.0
H2001 H 0.53937 0.63455 0.39802 0.0
C2002 C 0.69365 0.26456 0.56297 0.0
C2003 C 0.67819 0.26203 0.53386 0.0
C2004 C 0.66254 0.27563 0.60799 0.0
C2005 C 0.67737 0.27562 0.64045 0.0
N2006 N 0.70709 0.2683 0.64949 0.0
N2007 N 0.64734 0.26118 0.53763 0.0
C2008 C 0.69298 0.26962 0.61796 0.0
C2009 C 0.66248 0.26635 0.55926 0.0
N2010 N 0.70901 0.26262 0.53794 0.0
N2011 N 0.64825 0.28409 0.6246 0.0
H2012 H 0.64679 0.25374 0.50351 0.0
H2013 H 0.63561 0.26269 0.55668 0.0
H2014 H 0.64796 0.29096 0.66006 0.0
H2015 H 0.63746 0.28566 0.60076 0.0
H2016 H 0.72065 0.2659 0.55529 0.0
H2017 H 0.70997 0.25894 0.49831 0.0
H2018 H 0.71836 0.26231 0.6377 0.0
H2019 H 0.707 0.27238 0.68878 0.0
C2020 C 1.01098 0.44394 0.80187 0.0
C2021 C 1.01554 0.42812 0.77785 0.0
C2022 C 1.00314 0.41308 0.85488 0.0
C2023 C 1.00134 0.42867 0.88288 0.0
N2024 N 1.00313 0.45925 0.88267 0.0
N2025 N 0.01897 0.3977 0.78767 0.0
C2026 C 1.00504 0.44423 0.85602 0.0
C2027 C 1.0125 0.41272 0.80637 0.0
N2028 N 1.01211 0.45861 0.77268 0.0
N2029 N 0.99641 0.39849 0.87598 0.0
H2030 H 0.02651 0.39713 0.75362 0.0
H2031 H 0.01844 0.38627 0.80884 0.0
H2032 H 0.98957 0.39851 0.91154 0.0
H2033 H 0.99615 0.3869 0.85574 0.0
H2034 H 1.00743 0.47036 0.7853 0.0
H2035 H 0.01698 0.45882 0.73413 0.0
H2036 H 1.00673 0.47105 0.86734 0.0
H2037 H 0.99824 0.45975 0.92118 0.0
C2038 C 0.84824 0.77438 0.12187 0.0
C2039 C 0.8479 0.75654 0.13493 0.0
C2040 C 0.84179 0.7522 0.03942 0.0
C2041 C 0.84712 0.76917 0.02597 0.0
N2042 N 0.86188 0.79385 0.06129 0.0
N2043 N 0.85006 0.72848 0.09532 0.0
C2044 C 0.85197 0.77973 0.06905 0.0
C2045 C 0.84586 0.74529 0.09091 0.0
N2046 N 0.84607 0.78636 0.1601 0.0
N2047 N 0.83413 0.74221 1.00215 0.0
H2048 H 0.85608 0.72355 0.12891 0.0
H2049 H 0.84983 0.72021 0.06292 0.0
H2050 H 0.83102 0.74686 0.9645 0.0
H2051 H 0.82957 0.73 0.01099 0.0
H2052 H 0.8457 0.79942 0.15164 0.0
H2053 H 0.8428 0.78291 0.19838 0.0
H2054 H 0.86655 0.80109 0.09286 0.0
H2055 H 0.86725 0.79687 0.02462 0.0
C2056 C 0.52387 0.43985 0.16182 0.0
C2057 C 0.52763 0.42383 0.13793 0.0
C2058 C 0.51568 0.40933 0.21646 0.0
C2059 C 0.51286 0.4252 0.24238 0.0
N2060 N 0.51666 0.45566 0.24231 0.0
N2061 N 0.5319 0.39369 0.15029 0.0
C2062 C 0.5177 0.44052 0.21573 0.0
C2063 C 0.52531 0.40874 0.16839 0.0
N2064 N 0.52597 0.45439 0.13265 0.0
N2065 N 0.50885 0.39477 0.23745 0.0
H2066 H 0.53897 0.39299 0.11523 0.0
H2067 H 0.5318 0.38245 0.1725 0.0
H2068 H 0.50104 0.39497 0.27093 0.0
H2069 H 0.5093 0.38298 0.2184 0.0
H2070 H 0.52236 0.46644 0.14581 0.0
H2071 H 0.53095 0.45425 0.09423 0.0
H2072 H 0.52161 0.46711 0.22794 0.0
H2073 H 0.51152 0.45656 0.28043 0.0
C2074 C 0.84951 0.28582 0.42512 0.0
C2075 C 0.84867 0.27501 0.37989 0.0
C2076 C 0.84993 0.25029 0.44162 0.0
C2077 C 0.8488 0.26103 0.48665 0.0
N2078 N 0.8412 0.28934 0.5171 0.0
N2079 N 0.84158 0.24655 0.35048 0.0
C2080 C 0.84607 0.27885 0.47677 0.0
C2081 C 0.84634 0.25716 0.39032 0.0
N2082 N 0.85549 0.3021 0.4207 0.0
N2083 N 0.85595 0.234 0.44619 0.0
H2084 H 0.8385 0.25142 0.31355 0.0
H2085 H 0.83887 0.23364 0.35642 0.0
H2086 H 0.86035 0.22891 0.48192 0.0
H2087 H 0.85834 0.22632 0.41325 0.0
H2088 H 0.85755 0.30987 0.45366 0.0
H2089 H 0.86043 0.30696 0.3854 0.0
H2090 H 0.8385 0.2847 0.555 0.0
H2091 H 0.8383 0.3022 0.51097 0.0
C2092 C 1.01234 0.61904 0.71056 0.0
C2093 C 0.0188 0.6042 0.73683 0.0
C2094 C 1.01279 0.58803 0.65425 0.0
C2095 C 1.00473 0.60257 0.63104 0.0
N2096 N 0.99292 0.63054 0.64437 0.0
N2097 N 0.02254 0.57368 0.73479 0.0
C2098 C 1.00296 0.61748 0.66227 0.0
C2099 C 0.01823 0.58839 0.70894 0.0
N2100 N 1.01562 0.63482 0.73097 0.0
N2101 N 1.01572 0.57403 0.62351 0.0
H2102 H 0.02683 0.57355 0.774 0.0
H2103 H 0.02077 0.56159 0.71851 0.0
H2104 H 1.01131 0.57327 0.58454 0.0
H2105 H 0.02319 0.56371 0.63568 0.0
H2106 H 1.01256 0.64614 0.71128 0.0
H2107 H 0.02307 0.63651 0.76468 0.0
H2108 H 0.99006 0.64124 0.66727 0.0
H2109 H 0.9861 0.62978 0.60881 0.0
C2110 C 0.66088 0.76599 0.96139 0.0
C2111 C 0.67686 0.76875 0.987 0.0
C2112 C 0.6913 0.75649 0.9081 0.0
C2113 C 0.67517 0.7531 0.88434 0.0
N2114 N 0.64493 0.74943 0.89669 0.0
N2115 N 0.70727 0.76364 0.98817 0.0
C2116 C 0.6601 0.75591 0.91441 0.0
C2117 C 0.69211 0.7631 0.9613 0.0
N2118 N 0.64638 0.77304 0.98219 0.0
N2119 N 0.70581 0.75355 0.87951 0.0
H2120 H 0.7084 0.769 0.02577 0.0
H2121 H 0.71851 0.75802 0.97463 0.0
H2122 H 0.70552 0.74826 0.84154 0.0
H2123 H 0.71801 0.75668 0.89274 0.0
H2124 H 0.63455 0.77267 0.96308 0.0
H2125 H 0.64658 0.7807 0.01605 0.0
H2126 H 0.63365 0.74994 0.91864 0.0
H2127 H 0.64415 0.74206 0.86229 0.0
C2128 C 0.51677 0.41138 0.71446 0.0
C2129 C 0.51928 0.42692 0.74253 0.0
C2130 C 0.50725 0.44225 0.66445 0.0
C2131 C 0.50387 0.42645 0.63867 0.0
N2132 N 0.50018 0.39615 0.64832 0.0
N2133 N 0.51438 0.4572 0.74673 0.0
C2134 C 0.50661 0.41112 0.66748 0.0
C2135 C 0.51371 0.44241 0.7182 0.0
N2136 N 0.52462 0.39687 0.7318 0.0
N2137 N 0.50446 0.45707 0.63731 0.0
H2138 H 0.51971 0.45773 0.78468 0.0
H2139 H 0.50897 0.46866 0.7341 0.0
H2140 H 0.49925 0.45722 0.59916 0.0
H2141 H 0.50766 0.46907 0.65192 0.0
H2142 H 0.52424 0.38536 0.71115 0.0
H2143 H 0.53343 0.39712 0.76273 0.0
H2144 H 0.50072 0.3847 0.66942 0.0
H2145 H 0.49279 0.39571 0.61379 0.0
C2146 C 0.37099 0.7522 0.41447 0.0
C2147 C 0.35538 0.75064 0.38597 0.0
C2148 C 0.34013 0.75994 0.46751 0.0
C2149 C 0.35599 0.76417 0.49228 0.0
N2150 N 0.3865 0.76751 0.48279 0.0
N2151 N 0.32477 0.75313 0.38574 0.0
C2152 C 0.3714 0.76123 0.46365 0.0
C2153 C 0.33982 0.75445 0.41284 0.0
N2154 N 0.38558 0.74538 0.39361 0.0
N2155 N 0.32541 0.76089 0.49651 0.0
H2156 H 0.32417 0.74868 0.34677 0.0
H2157 H 0.31304 0.75696 0.40109 0.0
H2158 H 0.3252 0.76526 0.53559 0.0
H2159 H 0.31364 0.75639 0.48325 0.0
H2160 H 0.39713 0.7449 0.41425 0.0
H2161 H 0.38558 0.73868 0.35782 0.0
H2162 H 0.3979 0.76711 0.46143 0.0
H2163 H 0.38722 0.77465 0.51762 0.0
C2164 C 0.02791 0.59143 0.15626 0.0
C2165 C 0.03128 0.60743 0.13152 0.0
C2166 C 0.01964 0.62205 0.20988 0.0
C2167 C 0.01685 0.60622 0.23632 0.0
N2168 N 0.02082 0.57577 0.23747 0.0
N2169 N 0.03572 0.63754 0.14292 0.0
C2170 C 0.0218 0.59084 0.21028 0.0
C2171 C 0.02916 0.62254 0.16167 0.0
N2172 N 0.03039 0.57684 0.12782 0.0
N2173 N 1.01277 0.63664 0.23026 0.0
H2174 H 0.04269 0.63815 0.10763 0.0
H2175 H 0.03573 0.64881 0.16484 0.0
H2176 H 1.00497 0.63654 0.26375 0.0
H2177 H 1.01317 0.64837 0.21068 0.0
H2178 H 0.0274 0.56471 0.1418 0.0
H2179 H 0.03526 0.57699 0.08926 0.0
H2180 H 0.02568 0.56426 0.22348 0.0
H2181 H 1.01579 0.57496 0.27575 0.0
C2182 C 0.18482 0.28594 0.92902 0.0
C2183 C 0.18338 0.27484 0.8844 0.0
C2184 C 0.17946 0.25125 0.94905 0.0
C2185 C 0.18364 0.26175 0.993 0.0
N2186 N 0.19581 0.28891 0.01874 0.0
N2187 N 0.18629 0.24522 0.85813 0.0
C2188 C 0.18866 0.2789 0.98056 0.0
C2189 C 0.18349 0.25695 0.89673 0.0
N2190 N 0.18029 0.30268 0.92494 0.0
N2191 N 0.16984 0.23687 0.95538 0.0
H2192 H 0.18981 0.24897 0.8203 0.0
H2193 H 0.18695 0.23214 0.86602 0.0
H2194 H 0.16416 0.23361 0.9914 0.0
H2195 H 0.16566 0.22964 0.92313 0.0
H2196 H 0.18008 0.3108 0.95768 0.0
H2197 H 0.17446 0.30762 0.89108 0.0
H2198 H 0.20014 0.30126 0.01071 0.0
H2199 H 0.19877 0.28416 0.0564 0.0
C2200 C 0.51423 0.61887 0.79648 0.0
C2201 C 0.51686 0.60336 0.76839 0.0
C2202 C 0.50532 0.58767 0.84631 0.0
C2203 C 0.50228 0.60335 0.87305 0.0
N2204 N 0.49845 0.63368 0.86549 0.0
N2205 N 0.51237 0.57303 0.76346 0.0
C2206 C 0.50474 0.61885 0.84483 0.0
C2207 C 0.51158 0.58773 0.79244 0.0
N2208 N 0.52115 0.63366 0.77739 0.0
N2209 N 0.50237 0.57275 0.87272 0.0
H2210 H 0.51755 0.57265 0.72532 0.0
H2211 H 0.50724 0.56142 0.7758 0.0
H2212 H 0.49732 0.57245 0.91104 0.0
H2213 H 0.50509 0.56077 0.85724 0.0
H2214 H 0.5209 0.64515 0.79816 0.0
H2215 H 0.52879 0.63394 0.74351 0.0
H2216 H 0.49866 0.64527 0.84511 0.0
H2217 H 0.49149 0.63389 0.90085 0.0
C2218 C 0.15976 0.76302 0.55096 0.0
C2219 C 0.1754 0.76791 0.52649 0.0
C2220 C 0.19054 0.75819 0.60745 0.0
C2221 C 0.1748 0.75231 0.62979 0.0
N2222 N 0.14573 0.74394 0.61317 0.0
N2223 N 0.20614 0.76752 0.52863 0.0
C2224 C 0.15996 0.75271 0.59757 0.0
C2225 C 0.19096 0.76472 0.55402 0.0
N2226 N 0.14464 0.76856 0.53008 0.0
N2227 N 0.20508 0.75769 0.63724 0.0
H2228 H 0.20681 0.77288 0.49073 0.0
H2229 H 0.21794 0.76368 0.54372 0.0
H2230 H 0.20558 0.75159 0.67387 0.0
H2231 H 0.21646 0.76363 0.62619 0.0
H2232 H 0.13285 0.7664 0.54818 0.0
H2233 H 0.14425 0.77707 0.49829 0.0
H2234 H 0.13485 0.74284 0.58949 0.0
H2235 H 0.14562 0.73642 0.64745 0.0
C2236 C 1.01551 0.44563 0.30761 0.0
C2237 C 1.01391 0.43001 0.27907 0.0
C2238 C 0.02912 0.41543 0.35224 0.0
C2239 C 0.02826 0.43022 0.3844 0.0
N2240 N 0.01963 0.45952 0.39331 0.0
N2241 N 1.01494 0.39929 0.28348 0.0
C2242 C 0.02122 0.44541 0.36206 0.0
C2243 C 0.01945 0.41469 0.30435 0.0
N2244 N 1.0119 0.46067 0.28254 0.0
N2245 N 0.03844 0.40171 0.36906 0.0
H2246 H 1.00673 0.3984 0.25111 0.0
H2247 H 0.0175 0.38768 0.30214 0.0
H2248 H 0.04546 0.40193 0.40434 0.0
H2249 H 0.04051 0.39097 0.34555 0.0
H2250 H 1.01442 0.47258 0.29912 0.0
H2251 H 1.00732 0.46116 0.24366 0.0
H2252 H 1.01291 0.47042 0.38197 0.0
H2253 H 0.02456 0.45988 0.43175 0.0
C2254 C 0.37018 0.27539 0.10195 0.0
C2255 C 0.35493 0.27801 0.13134 0.0
C2256 C 0.33853 0.26835 0.05247 0.0
C2257 C 0.35395 0.26292 0.02741 0.0
N2258 N 0.3843 0.25835 0.03489 0.0
N2259 N 0.32427 0.27783 0.13361 0.0
C2260 C 0.36972 0.26558 0.05433 0.0
C2261 C 0.33897 0.27481 0.10608 0.0
N2262 N 0.38524 0.28176 0.12093 0.0
N2263 N 0.32354 0.26751 0.02468 0.0
H2264 H 0.32434 0.28299 0.17177 0.0
H2265 H 0.31213 0.27501 0.11926 0.0
H2266 H 0.32282 0.26216 0.98684 0.0
H2267 H 0.31206 0.27273 0.03773 0.0
H2268 H 0.39664 0.28139 0.09954 0.0
H2269 H 0.38581 0.28892 0.15578 0.0
H2270 H 0.39599 0.25869 0.05478 0.0
H2271 H 0.38415 0.2503 1.00204 0.0
C2272 C 1.0115 0.02771 0.97388 0.0
C2273 C 1.0136 0.03247 0.0281 0.0
C2274 C 0.01853 1.00176 0.05015 0.0
C2275 C 0.01647 0.997 0.99591 0.0
N2276 N 1.01456 1.00611 0.90494 0.0
N2277 N 1.01554 0.02338 0.11907 0.0
C2278 C 1.01378 1.01021 0.95762 0.0
C2279 C 0.01629 0.01927 0.0664 0.0
N2280 N 1.00684 0.03985 0.93771 0.0
N2281 N 0.02312 0.9896 0.08635 0.0
H2282 H 1.01326 0.03578 0.13237 0.0
H2283 H 1.01546 1.01444 0.14966 0.0
H2284 H 0.02421 0.97671 0.077 0.0
H2285 H 0.02715 0.99234 0.12476 0.0
H2286 H 1.00275 0.03708 0.89938 0.0
H2287 H 1.00574 0.05274 0.94701 0.0
H2288 H 1.01466 0.01508 0.87441 0.0
H2289 H 0.01685 0.99372 0.89161 0.0
C2290 C 0.25195 0.76282 0.22309 0.0
C2291 C 0.24727 0.76528 0.27729 0.0
C2292 C 0.2783 0.7696 0.29823 0.0
C2293 C 0.28292 0.76718 0.24396 0.0
N2294 N 0.27347 0.76527 0.15343 0.0
N2295 N 0.25662 0.76786 0.36783 0.0
C2296 C 0.2695 0.76472 0.20625 0.0
C2297 C 0.26067 0.768 0.31504 0.0
N2298 N 0.23968 0.75811 0.18744 0.0
N2299 N 0.29076 0.77383 0.33386 0.0
H2300 H 0.24416 0.76603 0.38158 0.0
H2301 H 0.26558 0.76793 0.39833 0.0
H2302 H 0.30365 0.77454 0.32381 0.0
H2303 H 0.28835 0.77788 0.3724 0.0
H2304 H 0.24235 0.75379 0.14933 0.0
H2305 H 0.22676 0.75724 0.19704 0.0
H2306 H 0.26439 0.76554 0.12321 0.0
H2307 H 0.2859 0.76725 0.13967 0.0
C2308 C 0.53085 0.02434 0.50966 0.0
C2309 C 0.51597 0.03048 0.48283 0.0
C2310 C 0.50431 1.00099 0.48487 0.0
C2311 C 0.51836 0.99521 0.51657 0.0
N2312 N 0.54395 1.00235 0.56487 0.0
N2313 N 0.48755 0.02484 0.45066 0.0
C2314 C 0.5314 1.00715 0.53015 0.0
C2315 C 0.5025 0.0188 0.47173 0.0
N2316 N 0.54472 0.03486 0.5145 0.0
N2317 N 0.49276 0.98934 0.46626 0.0
H2318 H 0.48577 0.03763 0.4403 0.0
H2319 H 0.47646 0.01756 0.44735 0.0
H2320 H 0.4933 0.97638 0.47571 0.0
H2321 H 0.48346 0.9922 0.43801 0.0
H2322 H 0.5566 0.03076 0.52827 0.0
H2323 H 0.54483 0.0474 0.5004 0.0
H2324 H 0.55265 1.01086 0.58156 0.0
H2325 H 0.54488 0.99002 0.58036 0.0
C2326 C 0.26867 0.26501 0.82001 0.0
C2327 C 0.28214 0.26533 0.78165 0.0
C2328 C 0.2602 0.26092 0.71155 0.0
C2329 C 0.24662 0.26212 0.74906 0.0
N2330 N 0.23821 0.26812 0.83904 0.0
N2331 N 0.28978 0.26704 0.68931 0.0
C2332 C 0.25096 0.26484 0.80341 0.0
C2333 C 0.27758 0.26433 0.72703 0.0
N2334 N 0.27278 0.2649 0.87269 0.0
N2335 N 0.25656 0.25588 0.6609 0.0
H2336 H 0.30256 0.26934 0.69856 0.0
H2337 H 0.28689 0.26875 0.6493 0.0
H2338 H 0.24419 0.25283 0.64852 0.0
H2339 H 0.26594 0.253 0.63294 0.0
H2340 H 0.26393 0.26251 0.90266 0.0
H2341 H 0.2853 0.26635 0.88635 0.0
H2342 H 0.24045 0.27218 0.87773 0.0
H2343 H 0.22528 0.26802 0.82884 0.0
C2344 C 1.0112 1.00161 0.54903 0.0
C2345 C 1.01375 0.9967 0.49508 0.0
C2346 C 0.01852 0.02744 0.47264 0.0
C2347 C 1.01593 0.03235 0.52652 0.0
N2348 N 1.01309 0.02354 0.61749 0.0
N2349 N 0.0163 1.0056 0.40406 0.0
C2350 C 1.01302 0.01922 0.56493 0.0
C2351 C 0.01658 1.00985 0.45667 0.0
N2352 N 1.0066 0.98946 0.58525 0.0
N2353 N 0.02331 0.03956 0.43656 0.0
H2354 H 1.01426 0.99315 0.39087 0.0
H2355 H 0.01638 1.01447 0.37327 0.0
H2356 H 0.02432 0.05246 0.44588 0.0
H2357 H 0.02758 0.03679 0.39845 0.0
H2358 H 1.0023 0.9922 0.62335 0.0
H2359 H 1.00583 0.97653 0.57619 0.0
H2360 H 1.01295 1.01474 0.64844 0.0
H2361 H 1.01496 0.03604 0.63058 0.0
C2362 C 0.26359 0.77482 0.80234 0.0
C2363 C 0.25082 0.76378 0.78093 0.0
C2364 C 0.27356 0.74976 0.72712 0.0
C2365 C 0.28639 0.76021 0.75065 0.0
N2366 N 0.29384 0.7804 0.8186 0.0
N2367 N 0.24463 0.73826 0.73103 0.0
C2368 C 0.28141 0.77198 0.79085 0.0
C2369 C 0.25613 0.75054 0.7456 0.0
N2370 N 0.25866 0.78866 0.83152 0.0
N2371 N 0.27791 0.73943 0.68568 0.0
H2372 H 0.23198 0.73814 0.74419 0.0
H2373 H 0.24798 0.72734 0.70996 0.0
H2374 H 0.2905 0.73805 0.67261 0.0
H2375 H 0.26897 0.7331 0.66223 0.0
H2376 H 0.26704 0.79825 0.84349 0.0
H2377 H 0.24588 0.79143 0.83971 0.0
H2378 H 0.29137 0.78784 0.8519 0.0
H2379 H 0.30687 0.7786 0.81134 0.0
C2380 C 0.53084 1.00395 0.98017 0.0
C2381 C 0.52 0.99808 0.02214 0.0
C2382 C 0.51102 0.02831 0.03628 0.0
C2383 C 0.52067 0.03389 0.99137 0.0
N2384 N 0.5381 0.02634 0.9165 0.0
N2385 N 0.4986 1.00485 0.08735 0.0
C2386 C 0.53016 0.02149 0.96241 0.0
C2387 C 0.50975 1.01036 0.04925 0.0
N2388 N 0.54215 0.99281 0.95769 0.0
N2389 N 0.50342 0.04033 0.0677 0.0
H2390 H 0.49777 0.9921 0.09919 0.0
H2391 H 0.48935 1.01259 0.1047 0.0
H2392 H 0.50417 0.0534 0.05976 0.0
H2393 H 0.49764 0.03761 0.10393 0.0
H2394 H 0.55179 0.99652 0.93162 0.0
H2395 H 0.54274 0.97992 0.96798 0.0
H2396 H 0.54341 0.01776 0.88967 0.0
H2397 H 0.53835 0.03898 0.90332 0.0
C2398 C 0.26157 0.26509 0.20653 0.0
C2399 C 0.24826 0.26765 0.24447 0.0
C2400 C 0.27058 0.2678 0.31536 0.0
C2401 C 0.28388 0.26503 0.2774 0.0
N2402 N 0.2913 0.2582 0.18722 0.0
N2403 N 0.24068 0.2743 0.33454 0.0
C2404 C 0.27911 0.26288 0.22313 0.0
C2405 C 0.25299 0.26984 0.29873 0.0
N2406 N 0.25751 0.26582 0.15378 0.0
N2407 N 0.27467 0.26731 0.36811 0.0
H2408 H 0.22781 0.2754 0.32458 0.0
H2409 H 0.24327 0.27824 0.37312 0.0
H2410 H 0.28711 0.26517 0.38171 0.0
H2411 H 0.26572 0.26736 0.39862 0.0
H2412 H 0.26652 0.26599 0.12341 0.0
H2413 H 0.24508 0.26802 0.14026 0.0
H2414 H 0.28854 0.25409 0.14892 0.0
H2415 H 0.3042 0.25711 0.19673 0.0
C2416 C 0.77094 0.2783 0.72091 0.0
C2417 C 0.7824 0.26464 0.73226 0.0
C2418 C 0.75865 0.24975 0.77952 0.0
C2419 C 0.74694 0.26302 0.76583 0.0
N2420 N 0.74165 0.28863 0.71495 0.0
N2421 N 0.78614 0.23586 0.76415 0.0
C2422 C 0.75306 0.27686 0.73387 0.0
C2423 C 0.77589 0.24993 0.75911 0.0
N2424 N 0.7773 0.2931 0.6999 0.0
N2425 N 0.75361 0.23735 0.81436 0.0
H2426 H 0.7987 0.2355 0.75016 0.0
H2427 H 0.78178 0.2241 0.77794 0.0
H2428 H 0.74125 0.23668 0.82978 0.0
H2429 H 0.76196 0.2285 0.83115 0.0
H2430 H 0.77023 0.30432 0.69655 0.0
H2431 H 0.79014 0.29464 0.68971 0.0
H2432 H 0.74472 0.29777 0.68642 0.0
H2433 H 0.72868 0.28843 0.72441 0.0
C2434 C 0.76295 0.75597 0.21401 0.0
C2435 C 0.75028 0.76702 0.23588 0.0
C2436 C 0.77318 0.78067 0.29009 0.0
C2437 C 0.78592 0.77024 0.26607 0.0
N2438 N 0.79315 0.75026 0.19735 0.0
N2439 N 0.74431 0.79238 0.28681 0.0
C2440 C 0.78081 0.75865 0.22549 0.0
C2441 C 0.75572 0.78008 0.27169 0.0
N2442 N 0.7579 0.74227 0.18439 0.0
N2443 N 0.77764 0.7908 0.33192 0.0
H2444 H 0.73165 0.79263 0.27376 0.0
H2445 H 0.74776 0.80319 0.30826 0.0
H2446 H 0.79025 0.79203 0.34501 0.0
H2447 H 0.76875 0.79709 0.35568 0.0
H2448 H 0.7662 0.73267 0.17204 0.0
H2449 H 0.74509 0.73961 0.17621 0.0
H2450 H 0.79059 0.74296 0.16378 0.0
H2451 H 0.8062 0.75192 0.20458 0.0
C2452 C 0.76394 0.27236 0.3007 0.0
C2453 C 0.75101 0.26273 0.27415 0.0
C2454 C 0.77357 0.25182 0.21291 0.0
C2455 C 0.78659 0.26059 0.24165 0.0
N2456 N 0.79427 0.27704 0.31854 0.0
N2457 N 0.74434 0.24094 0.21003 0.0
C2458 C 0.78173 0.27017 0.28728 0.0
C2459 C 0.7561 0.25183 0.23157 0.0
N2460 N 0.75913 0.28423 0.33745 0.0
N2461 N 0.77781 0.24381 0.16667 0.0
H2462 H 0.73159 0.24062 0.22209 0.0
H2463 H 0.74746 0.23133 0.18325 0.0
H2464 H 0.7904 0.24297 0.15311 0.0
H2465 H 0.76882 0.23895 0.14019 0.0
H2466 H 0.76752 0.293 0.35432 0.0
H2467 H 0.74637 0.2864 0.34761 0.0
H2468 H 0.79193 0.28263 0.35526 0.0
H2469 H 0.80727 0.27576 0.31 0.0
C2470 C 0.75939 0.76193 0.70168 0.0
C2471 C 0.74608 0.76574 0.73888 0.0
C2472 C 0.76827 0.76597 0.81003 0.0
C2473 C 0.78171 0.76342 0.77257 0.0
N2474 N 0.78986 0.76006 0.68122 0.0
N2475 N 0.73885 0.7742 0.82797 0.0
C2476 C 0.77714 0.76154 0.71803 0.0
C2477 C 0.75087 0.76862 0.79279 0.0
N2478 N 0.75502 0.75887 0.65002 0.0
N2479 N 0.77204 0.76504 0.86293 0.0
H2480 H 0.726 0.77568 0.81821 0.0
H2481 H 0.74182 0.77868 0.86574 0.0
H2482 H 0.78437 0.76258 0.87697 0.0
H2483 H 0.7628 0.76487 0.89266 0.0
H2484 H 0.76327 0.7536 0.62212 0.0
H2485 H 0.74277 0.76111 0.63512 0.0
H2486 H 0.78786 0.7604 0.64045 0.0
H2487 H 0.80274 0.75925 0.69139 0.0
C2488 C 0.51183 0.52803 0.46711 0.0
C2489 C 0.5142 0.53298 0.5211 0.0
C2490 C 0.51896 0.50225 0.54382 0.0
C2491 C 0.51665 0.4973 0.48979 0.0
N2492 N 0.51439 0.50618 0.39869 0.0
N2493 N 0.5165 0.52413 0.61221 0.0
C2494 C 0.51389 0.51044 0.45127 0.0
C2495 C 0.51695 0.51985 0.55964 0.0
N2496 N 0.50714 0.5401 0.43074 0.0
N2497 N 0.52355 0.49015 0.58024 0.0
H2498 H 0.5144 0.53659 0.62526 0.0
H2499 H 0.51648 0.51528 0.64307 0.0
H2500 H 0.52443 0.47722 0.57126 0.0
H2501 H 0.52775 0.49295 0.61842 0.0
H2502 H 0.50293 0.53727 0.39258 0.0
H2503 H 0.50616 0.55302 0.43976 0.0
H2504 H 0.51443 0.51504 0.36788 0.0
H2505 H 0.51651 0.49372 0.3856 0.0
C2506 C 1.01441 0.51401 0.06311 0.0
C2507 C 0.017 0.50056 0.02575 0.0
C2508 C 0.01828 0.52261 0.95419 0.0
C2509 C 1.01562 0.53602 0.99162 0.0
N2510 N 1.00807 0.54391 0.08082 0.0
N2511 N 0.02375 0.49252 0.93603 0.0
C2512 C 1.01279 0.5315 0.04578 0.0
C2513 C 0.0196 0.50505 0.97139 0.0
N2514 N 1.01464 0.51013 0.11605 0.0
N2515 N 0.01841 0.52662 0.90133 0.0
H2516 H 0.02403 0.47963 0.94597 0.0
H2517 H 0.02807 0.49486 0.89767 0.0
H2518 H 0.01686 0.53907 0.88732 0.0
H2519 H 0.01844 0.51765 0.87097 0.0
H2520 H 1.0148 0.51923 0.14607 0.0
H2521 H 0.01643 0.49773 0.13029 0.0
H2522 H 1.00362 0.54141 0.11896 0.0
H2523 H 1.0073 0.55677 0.07062 0.0
C2524 C 0.51172 0.50079 0.04419 0.0
C2525 C 0.51483 0.49575 0.99072 0.0
C2526 C 0.51913 0.52654 0.96789 0.0
C2527 C 0.51712 0.5314 0.02211 0.0
N2528 N 0.51506 0.5223 0.1131 0.0
N2529 N 0.52229 0.50406 0.90167 0.0
C2530 C 0.51433 0.51823 0.06042 0.0
C2531 C 0.51883 0.50875 0.95277 0.0
N2532 N 0.50604 0.48893 0.07984 0.0
N2533 N 0.52063 0.53899 0.93018 0.0
H2534 H 0.52028 0.4917 0.88761 0.0
H2535 H 0.52775 0.51212 0.87353 0.0
H2536 H 0.52123 0.55193 0.9393 0.0
H2537 H 0.5204 0.53669 0.88958 0.0
H2538 H 0.50154 0.49202 0.11748 0.0
H2539 H 0.50445 0.47609 0.07041 0.0
H2540 H 0.51503 0.51325 0.14343 0.0
H2541 H 0.51753 0.53466 0.12648 0.0
C2542 C 1.00292 0.51032 0.5396 0.0
C2543 C 1.01546 0.49843 0.52179 0.0
C2544 C 0.02923 0.52194 0.47026 0.0
C2545 C 0.01736 0.53404 0.49081 0.0
N2546 N 0.9938 0.53995 0.54951 0.0
N2547 N 0.04167 0.49343 0.47386 0.0
C2548 C 1.00443 0.52821 0.52659 0.0
C2549 C 0.02893 0.50445 0.48822 0.0
N2550 N 0.98939 0.50447 0.56879 0.0
N2551 N 0.0404 0.52702 0.43159 0.0
H2552 H 0.04145 0.48043 0.48297 0.0
H2553 H 0.05297 0.49725 0.45553 0.0
H2554 H 0.04124 0.53962 0.41833 0.0
H2555 H 0.04799 0.51863 0.40992 0.0
H2556 H 0.97871 0.5118 0.57809 0.0
H2557 H 0.98826 0.49179 0.58101 0.0
H2558 H 0.98543 0.53717 0.5804 0.0
H2559 H 0.99417 0.55292 0.54021 0.0
C2560 C 0.08405 0.1871 0.08072 0.0
C2561 C 0.07593 0.177 0.12104 0.0
C2562 C 0.09227 0.19509 0.18518 0.0
C2563 C 0.10309 0.20227 0.14489 0.0
N2564 N 0.11126 0.19866 0.05266 0.0
N2565 N 0.07832 0.16909 0.21396 0.0
C2566 C 0.09955 0.19643 0.0921 0.0
C2567 C 0.08175 0.18034 0.17403 0.0
N2568 N 0.07671 0.18874 0.03192 0.0
N2569 N 0.09107 0.2027 0.23361 0.0
H2570 H 0.0729 0.15714 0.20722 0.0
H2571 H 0.08319 0.17071 0.2522 0.0
H2572 H 0.09657 0.21455 0.24158 0.0
H2573 H 0.08263 0.19836 0.26272 0.0
H2574 H 0.08182 0.19672 1.00271 0.0
H2575 H 0.06447 0.18417 0.02363 0.0
H2576 H 0.10941 0.19374 0.01463 0.0
H2577 H 0.12363 0.20306 0.05985 0.0
C2578 C 0.09703 0.83002 0.42786 0.0
C2579 C 0.10049 0.8245 0.37471 0.0
C2580 C 0.08001 0.84738 0.34655 0.0
C2581 C 0.07428 0.85065 0.39962 0.0
N2582 N 0.07451 0.83851 0.48822 0.0
N2583 N 0.08862 0.82508 0.28579 0.0
C2584 C 0.08195 0.84001 0.43954 0.0
C2585 C 0.08999 0.83233 0.33472 0.0
N2586 N 0.10847 0.8268 0.46751 0.0
N2587 N 0.07701 0.85896 0.30718 0.0
H2588 H 0.09377 0.81312 0.27715 0.0
H2589 H 0.08036 0.82988 0.2568 0.0
H2590 H 0.07196 0.87105 0.31447 0.0
H2591 H 0.08186 0.8574 0.26892 0.0
H2592 H 0.10678 0.8315 0.50586 0.0
H2593 H 0.12057 0.82171 0.46047 0.0
H2594 H 0.07917 0.83014 0.51711 0.0
H2595 H 0.06252 0.84367 0.49667 0.0
C2596 C 0.43687 0.8377 0.68897 0.0
C2597 C 0.42822 0.82847 0.64785 0.0
C2598 C 0.44915 0.84201 0.5856 0.0
C2599 C 0.45539 0.85365 0.62494 0.0
N2600 N 0.44979 0.86474 0.71292 0.0
N2601 N 0.42416 0.82709 0.55263 0.0
C2602 C 0.44771 0.85209 0.67634 0.0
C2603 C 0.43383 0.83211 0.59488 0.0
N2604 N 0.43558 0.83239 0.74038 0.0
N2605 N 0.45816 0.8396 0.53992 0.0
H2606 H 0.4121 0.82159 0.55686 0.0
H2607 H 0.42717 0.83053 0.51373 0.0
H2608 H 0.47014 0.84508 0.53352 0.0
H2609 H 0.45474 0.8304 0.51198 0.0
H2610 H 0.44259 0.83801 0.77096 0.0
H2611 H 0.42941 0.8211 0.75111 0.0
H2612 H 0.44342 0.86465 0.74929 0.0
H2613 H 0.45587 0.87625 0.70425 0.0
C2614 C 0.44367 0.1867 0.93728 0.0
C2615 C 0.45286 0.17782 0.89655 0.0
C2616 C 0.43931 0.19857 0.83359 0.0
C2617 C 0.42758 0.20491 0.87259 0.0
N2618 N 0.41646 0.19939 0.96077 0.0
N2619 N 0.45399 0.17338 0.80145 0.0
C2620 C 0.42917 0.19738 0.92427 0.0
C2621 C 0.44914 0.18323 0.84338 0.0
N2622 N 0.44912 0.18581 0.98861 0.0
N2623 N 0.44192 0.20749 0.78779 0.0
H2624 H 0.45931 0.16127 0.80608 0.0
H2625 H 0.45052 0.17632 0.7625 0.0
H2626 H 0.43663 0.21953 0.78123 0.0
H2627 H 0.45115 0.20392 0.76004 0.0
H2628 H 0.44348 0.19297 0.01879 0.0
H2629 H 0.46056 0.17989 0.99943 0.0
H2630 H 0.41665 0.19318 0.99743 0.0
H2631 H 0.40481 0.2052 0.95179 0.0
C2632 C 0.93811 0.83497 0.83484 0.0
C2633 C 0.9273 0.8277 0.87495 0.0
C2634 C 0.94647 0.84245 0.93955 0.0
C2635 C 0.95458 0.85268 0.89958 0.0
N2636 N 0.95217 0.86101 0.807 0.0
N2637 N 0.91924 0.83092 0.96743 0.0
C2638 C 0.94871 0.84961 0.8465 0.0
C2639 C 0.93092 0.83326 0.92795 0.0
N2640 N 0.93922 0.82756 0.7861 0.0
N2641 N 0.95387 0.84054 0.98819 0.0
H2642 H 0.90684 0.82663 0.96019 0.0
H2643 H 0.92117 0.83564 1.00566 0.0
H2644 H 0.96615 0.84503 0.99651 0.0
H2645 H 0.94876 0.83246 0.01711 0.0
H2646 H 0.94767 0.83197 0.7571 0.0
H2647 H 0.93365 0.81577 0.77769 0.0
H2648 H 0.94726 0.85958 0.76874 0.0
H2649 H 0.95767 0.87291 0.81416 0.0
C2650 C 0.95201 0.19174 0.5943 0.0
C2651 C 0.95282 0.1755 0.62043 0.0
C2652 C 0.92743 0.18482 0.67362 0.0
C2653 C 0.9253 0.20008 0.64293 0.0
N2654 N 0.93455 0.2159 0.56595 0.0
N2655 N 0.9381 0.15565 0.67777 0.0
C2656 C 0.93738 0.20292 0.60114 0.0
C2657 C 0.93964 0.17186 0.65817 0.0
N2658 N 0.96558 0.19694 0.56426 0.0
N2659 N 0.91822 0.18288 0.71926 0.0
H2660 H 0.94607 0.14565 0.6662 0.0
H2661 H 0.92778 0.15171 0.70091 0.0
H2662 H 0.90977 0.19216 0.73315 0.0
H2663 H 0.92038 0.17299 0.74619 0.0
H2664 H 0.96666 0.20924 0.54872 0.0
H2665 H 0.97659 0.18957 0.55955 0.0
H2666 H 0.94172 0.21755 0.5315 0.0
H2667 H 0.92397 0.22398 0.56828 0.0
C2668 C 0.61313 0.18326 0.4149 0.0
C2669 C 0.611 0.19569 0.37374 0.0
C2670 C 0.58352 0.18096 0.35054 0.0
C2671 C 0.58486 0.16965 0.39504 0.0
N2672 N 0.59982 0.16322 0.47629 0.0
N2673 N 0.59176 0.20794 0.30932 0.0
C2674 C 0.59937 0.17176 0.429 0.0
C2675 C 0.5955 0.19492 0.34356 0.0
N2676 N 0.62868 0.18178 0.4393 0.0
N2677 N 0.57122 0.17798 0.31319 0.0
H2678 H 0.59979 0.21843 0.30393 0.0
H2679 H 0.57997 0.20918 0.29038 0.0
H2680 H 0.56253 0.16792 0.31597 0.0
H2681 H 0.57069 0.18446 0.27708 0.0
H2682 H 0.63167 0.17187 0.46537 0.0
H2683 H 0.63918 0.18934 0.4293 0.0
H2684 H 0.60903 0.1655 0.50533 0.0
H2685 H 0.58996 0.15521 0.48891 0.0
C2686 C 0.57977 0.83735 0.09407 0.0
C2687 C 0.5788 0.85295 0.12364 0.0
C2688 C 0.60257 0.84133 0.17988 0.0
C2689 C 0.60522 0.82698 0.14577 0.0
N2690 N 0.59739 0.8137 0.06298 0.0
N2691 N 0.59306 0.87076 0.18807 0.0
C2692 C 0.59404 0.82565 0.10091 0.0
C2693 C 0.59124 0.85513 0.1648 0.0
N2694 N 0.56667 0.83321 0.06062 0.0
N2695 N 0.61047 0.84164 0.22821 0.0
H2696 H 0.586 0.88143 0.1765 0.0
H2697 H 0.60295 0.8736 0.21438 0.0
H2698 H 0.6181 0.83163 0.24193 0.0
H2699 H 0.60782 0.85084 0.2569 0.0
H2700 H 0.56572 0.82138 0.04199 0.0
H2701 H 0.55583 0.84084 0.0561 0.0
H2702 H 0.59093 0.81326 0.02682 0.0
H2703 H 0.60774 0.80534 0.06529 0.0
C2704 C 0.58149 0.69015 0.57672 0.0
C2705 C 0.57377 0.6796 0.61671 0.0
C2706 C 0.58905 0.69833 0.68153 0.0
C2707 C 0.59964 0.70608 0.6417 0.0
N2708 N 0.60804 0.7034 0.54938 0.0
N2709 N 0.57626 0.67167 0.70957 0.0
C2710 C 0.59646 0.70029 0.58864 0.0
C2711 C 0.57927 0.68313 0.66988 0.0
N2712 N 0.57422 0.69143 0.52771 0.0
N2713 N 0.58738 0.70578 0.73006 0.0
H2714 H 0.5714 0.65949 0.70253 0.0
H2715 H 0.58094 0.67345 0.74796 0.0
H2716 H 0.59234 0.71784 0.73839 0.0
H2717 H 0.57905 0.70102 0.75886 0.0
H2718 H 0.57894 0.69972 0.49872 0.0
H2719 H 0.56229 0.68618 0.51899 0.0
H2720 H 0.60654 0.69852 0.51116 0.0
H2721 H 0.62009 0.70857 0.55676 0.0
C2722 C 0.57364 0.33539 0.88278 0.0
C2723 C 0.57752 0.35242 0.89923 0.0
C2724 C 0.60857 0.34444 0.89663 0.0
C2725 C 0.60476 0.32771 0.87719 0.0
N2726 N 0.58328 0.30811 0.84631 0.0
N2727 N 0.59922 0.37371 0.91351 0.0
C2728 C 0.58716 0.32352 0.86861 0.0
C2729 C 0.59516 0.35701 0.90408 0.0
N2730 N 0.55693 0.33025 0.88277 0.0
N2731 N 0.62517 0.34838 0.90856 0.0
H2732 H 0.58999 0.38317 0.91906 0.0
H2733 H 0.6116 0.37855 0.91155 0.0
H2734 H 0.63536 0.34016 0.90072 0.0
H2735 H 0.6288 0.3593 0.92917 0.0
H2736 H 0.55305 0.31767 0.87715 0.0
H2737 H 0.54687 0.33841 0.89261 0.0
H2738 H 0.57113 0.30483 0.83284 0.0
H2739 H 0.59253 0.2989 0.83798 0.0
C2740 C 0.93794 0.33895 0.18947 0.0
C2741 C 0.92932 0.32964 0.14846 0.0
C2742 C 0.94988 0.34366 0.08608 0.0
C2743 C 0.95589 0.35547 0.12527 0.0
N2744 N 0.95003 0.36635 0.21342 0.0
N2745 N 0.92504 0.32849 0.05325 0.0
C2746 C 0.94832 0.35367 0.17679 0.0
C2747 C 0.93473 0.33351 0.09544 0.0
N2748 N 0.93708 0.33344 0.24075 0.0
N2749 N 0.95895 0.34128 0.04051 0.0
H2750 H 0.91301 0.32292 0.05756 0.0
H2751 H 0.92797 0.33204 0.01438 0.0
H2752 H 0.97091 0.34685 0.03427 0.0
H2753 H 0.95564 0.33202 0.01265 0.0
H2754 H 0.94407 0.33919 0.27115 0.0
H2755 H 0.93137 0.3219 0.25136 0.0
H2756 H 0.94376 0.36598 0.24994 0.0
H2757 H 0.95562 0.3781 0.20465 0.0
C2758 C 0.94807 0.67898 0.34079 0.0
C2759 C 0.95512 0.6769 0.39292 0.0
C2760 C 0.93287 0.69774 0.42273 0.0
C2761 C 0.92789 0.70197 0.36956 0.0
N2762 N 0.93644 0.69929 0.27762 0.0
N2763 N 0.95663 0.68999 0.47975 0.0
C2764 C 0.93718 0.69338 0.3285 0.0
C2765 C 0.94822 0.68797 0.43276 0.0
N2766 N 0.95078 0.66683 0.30306 0.0
N2767 N 0.92259 0.70207 0.46428 0.0
H2768 H 0.96864 0.68465 0.48695 0.0
H2769 H 0.95271 0.69878 0.50829 0.0
H2770 H 0.9105 0.70743 0.45916 0.0
H2771 H 0.92516 0.69818 0.50309 0.0
H2772 H 0.94488 0.66728 0.26593 0.0
H2773 H 0.9569 0.65529 0.31115 0.0
H2774 H 0.94391 0.69416 0.24731 0.0
H2775 H 0.93023 0.71062 0.26745 0.0
C2776 C 0.4411 0.33212 0.3334 0.0
C2777 C 0.43042 0.32459 0.37344 0.0
C2778 C 0.44878 0.34049 0.438 0.0
C2779 C 0.45667 0.35083 0.39775 0.0
N2780 N 0.45433 0.3585 0.30466 0.0
N2781 N 0.42206 0.32767 0.46566 0.0
C2782 C 0.45112 0.34721 0.34467 0.0
C2783 C 0.43369 0.3305 0.42633 0.0
N2784 N 0.44263 0.32453 0.28501 0.0
N2785 N 0.45602 0.33927 0.48707 0.0
H2786 H 0.40995 0.32263 0.45838 0.0
H2787 H 0.42362 0.33264 0.50374 0.0
H2788 H 0.46802 0.3444 0.49567 0.0
H2789 H 0.45119 0.33113 0.51629 0.0
H2790 H 0.45102 0.3291 0.25608 0.0
H2791 H 0.43748 0.31254 0.27693 0.0
H2792 H 0.44962 0.3567 0.26633 0.0
H2793 H 0.45941 0.37061 0.31135 0.0
C2794 C 0.43132 0.69568 0.08835 0.0
C2795 C 0.42788 0.70143 0.14128 0.0
C2796 C 0.4493 0.67948 0.16979 0.0
C2797 C 0.45499 0.67621 0.11665 0.0
N2798 N 0.45404 0.68809 0.02773 0.0
N2799 N 0.44005 0.70173 0.22985 0.0
C2800 C 0.44679 0.68637 0.07661 0.0
C2801 C 0.43878 0.6942 0.18131 0.0
N2802 N 0.41953 0.69799 0.04909 0.0
N2803 N 0.45286 0.66819 0.20953 0.0
H2804 H 0.43454 0.71356 0.23809 0.0
H2805 H 0.44857 0.69737 0.25878 0.0
H2806 H 0.45832 0.65627 0.20256 0.0
H2807 H 0.44808 0.66974 0.24788 0.0
H2808 H 0.42132 0.69314 0.01095 0.0
H2809 H 0.40718 0.70238 0.05651 0.0
H2810 H 0.44888 0.69612 0.99872 0.0
H2811 H 0.46626 0.68351 0.01919 0.0
C2812 C 0.07886 0.69597 0.91887 0.0
C2813 C 0.07824 0.68001 0.89116 0.0
C2814 C 0.10283 0.69079 0.83696 0.0
C2815 C 0.10507 0.70555 0.86965 0.0
N2816 N 0.09619 0.71989 0.94962 0.0
N2817 N 0.09335 0.6613 0.83125 0.0
C2818 C 0.09329 0.7075 0.91268 0.0
C2819 C 0.09125 0.67723 0.85217 0.0
N2820 N 0.06532 0.70061 0.9498 0.0
N2821 N 0.11136 0.68984 0.7898 0.0
H2822 H 0.08611 0.65079 0.84323 0.0
H2823 H 0.10359 0.65809 0.80675 0.0
H2824 H 0.11918 0.69966 0.77584 0.0
H2825 H 0.10906 0.68028 0.76196 0.0
H2826 H 0.06417 0.71268 0.96678 0.0
H2827 H 0.05437 0.6931 0.95364 0.0
H2828 H 0.08921 0.72082 0.98471 0.0
H2829 H 0.10663 0.72814 0.94785 0.0
C2830 C 0.08423 0.34425 0.58433 0.0
C2831 C 0.07728 0.35528 0.62419 0.0
C2832 C 0.09453 0.33822 0.68893 0.0
C2833 C 0.10397 0.32967 0.6481 0.0
N2834 N 0.10985 0.32992 0.55369 0.0
N2835 N 0.0813 0.36492 0.71468 0.0
C2836 C 0.09938 0.33421 0.59483 0.0
C2837 C 0.08399 0.35286 0.67662 0.0
N2838 N 0.07605 0.34252 0.53684 0.0
N2839 N 0.09478 0.33203 0.73954 0.0
H2840 H 0.0755 0.37662 0.70668 0.0
H2841 H 0.08696 0.36417 0.75213 0.0
H2842 H 0.10067 0.32052 0.74953 0.0
H2843 H 0.08719 0.33716 0.76958 0.0
H2844 H 0.08001 0.33377 0.50822 0.0
H2845 H 0.06415 0.34804 0.52922 0.0
H2846 H 0.10755 0.33402 0.51492 0.0
H2847 H 0.12185 0.3244 0.55926 0.0
loop_
_geom_bond_atom_site_label_1
_geom_bond_atom_site_label_2
_geom_bond_distance
_geom_bond_site_symmetry_2
_ccdc_geom_bond_type
C0 C1 1.443 . S
C0 N4 1.376 1_556 S
C0 C38 1.389 1_655 S
C1 C0 1.443 . S
C1 C2 1.340 . S
C1 H41 0.951 . S
C2 C1 1.340 . S
C2 C3 1.439 1_556 S
C2 H42 0.950 . S
C3 C2 1.439 1_554 S
C3 N4 1.374 . S
C3 C37 1.395 . S
N4 C0 1.376 1_554 S
N4 C3 1.374 . S
N4 Co5 2.008 1_655 S
Co5 N4 2.008 1_455 S
Co5 N6 1.995 1_455 S
Co5 N11 2.008 . S
Co5 N16 1.995 . S
Co5 N21 2.282 . S
Co5 N27 2.282 1_455 S
N6 Co5 1.995 1_655 S
N6 C7 1.376 . S
N6 C10 1.383 . S
C7 N6 1.376 . S
C7 C8 1.446 . S
C7 C37 1.391 . S
C8 C7 1.446 . S
C8 C9 1.339 . S
C8 H43 0.949 . S
C9 C8 1.339 . S
C9 C10 1.439 . S
C9 H44 0.950 . S
C10 N6 1.383 . S
C10 C9 1.439 . S
C10 C39 1.392 1_655 S
N11 Co5 2.008 . S
N11 C12 1.376 . S
N11 C15 1.374 . S
C12 N11 1.376 . S
C12 C13 1.443 . S
C12 C39 1.389 . S
C13 C12 1.443 . S
C13 C14 1.340 . S
C13 H45 0.951 . S
C14 C13 1.340 . S
C14 C15 1.439 . S
C14 H46 0.950 . S
C15 N11 1.374 . S
C15 C14 1.439 . S
C15 C40 1.395 . S
N16 Co5 1.995 . S
N16 C17 1.376 . S
N16 C20 1.383 1_554 S
C17 N16 1.376 . S
C17 C18 1.446 1_554 S
C17 C40 1.391 . S
C18 C17 1.446 1_556 S
C18 C19 1.339 . S
C18 H47 0.949 . S
C19 C18 1.339 . S
C19 C20 1.439 . S
C19 H48 0.950 . S
C20 N16 1.383 1_556 S
C20 C19 1.439 . S
C20 C38 1.392 . S
N21 Co5 2.282 . S
N21 C24 1.332 . S
N21 C26 1.332 . S
C22 C23 1.386 . S
C22 C25 1.388 . S
C23 C22 1.386 . S
C23 C24 1.382 . S
C23 H49 0.950 . S
C24 N21 1.332 . S
C24 C23 1.382 . S
C24 H35 0.952 . S
C25 C22 1.388 . S
C25 C26 1.382 . S
C25 H50 0.950 . S
C26 N21 1.332 . S
C26 C25 1.382 . S
C26 H36 0.926 1_455 S
N27 Co5 2.282 1_655 S
N27 C31 1.332 . S
N27 C32 1.332 1_655 S
C28 C29 1.317 1_455 S
C28 C32 1.412 . S
C28 H51 0.994 1_554 S
C29 C28 1.317 1_655 S
C29 C30 1.386 . S
C30 C29 1.386 . S
C30 C31 1.382 . S
C30 H52 0.950 . S
C31 N27 1.332 . S
C31 C30 1.382 . S
C31 H33 0.952 . S
C32 N27 1.332 1_455 S
C32 C28 1.412 . S
C32 H34 0.948 . S
H33 C31 0.952 . S
H34 C32 0.948 . S
H35 C24 0.952 . S
H36 C26 0.926 1_655 S
C37 C3 1.395 . S
C37 C7 1.391 . S
C38 C0 1.389 1_455 S
C38 C20 1.392 . S
C39 C10 1.392 1_455 S
C39 C12 1.389 . S
C40 C15 1.395 . S
C40 C17 1.391 . S
H41 C1 0.951 . S
H42 C2 0.950 . S
H43 C8 0.949 . S
H44 C9 0.950 . S
H45 C13 0.951 . S
H46 C14 0.950 . S
H47 C18 0.949 . S
H48 C19 0.950 . S
H49 C23 0.950 . S
H50 C25 0.950 . S
H51 C28 0.994 1_556 S
H52 C30 0.950 . S
C53 C54 1.443 . S
C53 N57 1.376 . S
C53 C91 1.389 . S
C54 C53 1.443 . S
C54 C55 1.340 . S
C54 H94 0.951 . S
C55 C54 1.340 . S
C55 C56 1.439 . S
C55 H95 0.950 . S
C56 C55 1.439 . S
C56 N57 1.374 . S
C56 C90 1.395 . S
N57 C53 1.376 . S
N57 C56 1.374 . S
N57 Co58 2.008 . S
Co58 N57 2.008 . S
Co58 N59 1.995 . S
Co58 N64 2.008 . S
Co58 N69 1.995 . S
Co58 N74 2.282 . S
Co58 N80 2.282 . S
N59 Co58 1.995 . S
N59 C60 1.376 . S
N59 C63 1.383 . S
C60 N59 1.376 . S
C60 C61 1.446 . S
C60 C90 1.391 . S
C61 C60 1.446 . S
C61 C62 1.339 . S
C61 H96 0.949 . S
C62 C61 1.339 . S
C62 C63 1.439 . S
C62 H97 0.950 . S
C63 N59 1.383 . S
C63 C62 1.439 . S
C63 C92 1.392 . S
N64 Co58 2.008 . S
N64 C65 1.376 . S
N64 C68 1.374 . S
C65 N64 1.376 . S
C65 C66 1.443 . S
C65 C92 1.389 . S
C66 C65 1.443 . S
C66 C67 1.340 . S
C66 H98 0.951 . S
C67 C66 1.340 . S
C67 C68 1.439 . S
C67 H99 0.950 . S
C68 N64 1.374 . S
C68 C67 1.439 . S
C68 C93 1.395 . S
N69 Co58 1.995 . S
N69 C70 1.376 . S
N69 C73 1.383 . S
C70 N69 1.376 . S
C70 C71 1.446 . S
C70 C93 1.391 . S
C71 C70 1.446 . S
C71 C72 1.339 . S
C71 H100 0.949 . S
C72 C71 1.339 . S
C72 C73 1.439 . S
C72 H101 0.950 . S
C73 N69 1.383 . S
C73 C72 1.439 . S
C73 C91 1.392 . S
N74 Co58 2.282 . S
N74 C77 1.332 . S
N74 C79 1.332 . S
C75 C76 1.386 . S
C75 C78 1.388 . S
C76 C75 1.386 . S
C76 C77 1.382 . S
C76 H102 0.950 . S
C77 N74 1.332 . S
C77 C76 1.382 . S
C77 H88 0.952 . S
C78 C75 1.388 . S
C78 C79 1.382 . S
C78 H103 0.950 . S
C79 N74 1.332 . S
C79 C78 1.382 . S
C79 H89 0.948 . S
N80 Co58 2.282 . S
N80 C84 1.332 . S
N80 C85 1.332 . S
C81 C82 1.388 . S
C81 C85 1.382 . S
C81 H104 0.950 . S
C82 C81 1.388 . S
C82 C83 1.386 . S
C83 C82 1.386 . S
C83 C84 1.382 . S
C83 H105 0.950 . S
C84 N80 1.332 . S
C84 C83 1.382 . S
C84 H86 0.952 . S
C85 N80 1.332 . S
C85 C81 1.382 . S
C85 H87 0.948 . S
H86 C84 0.952 . S
H87 C85 0.948 . S
H88 C77 0.952 . S
H89 C79 0.948 . S
C90 C56 1.395 . S
C90 C60 1.391 . S
C91 C53 1.389 . S
C91 C73 1.392 . S
C92 C63 1.392 . S
C92 C65 1.389 . S
C93 C68 1.395 . S
C93 C70 1.391 . S
H94 C54 0.951 . S
H95 C55 0.950 . S
H96 C61 0.949 . S
H97 C62 0.950 . S
H98 C66 0.951 . S
H99 C67 0.950 . S
H100 C71 0.949 . S
H101 C72 0.950 . S
H102 C76 0.950 . S
H103 C78 0.950 . S
H104 C81 0.950 . S
H105 C83 0.950 . S
C106 C107 1.443 . S
C106 N110 1.376 . S
C106 C144 1.389 . S
C107 C106 1.443 . S
C107 C108 1.340 . S
C107 H147 0.951 . S
C108 C107 1.340 . S
C108 C109 1.439 . S
C108 H148 0.950 . S
C109 C108 1.439 . S
C109 N110 1.374 . S
C109 C143 1.395 . S
N110 C106 1.376 . S
N110 C109 1.374 . S
N110 Co111 2.008 . S
Co111 N110 2.008 . S
Co111 N112 1.995 . S
Co111 N117 2.008 . S
Co111 N122 1.995 . S
Co111 N127 2.282 . S
Co111 N133 2.282 . S
N112 Co111 1.995 . S
N112 C113 1.376 . S
N112 C116 1.383 . S
C113 N112 1.376 . S
C113 C114 1.446 . S
C113 C143 1.391 . S
C114 C113 1.446 . S
C114 C115 1.339 . S
C114 H149 0.949 . S
C115 C114 1.339 . S
C115 C116 1.439 . S
C115 H150 0.950 . S
C116 N112 1.383 . S
C116 C115 1.439 . S
C116 C145 1.392 . S
N117 Co111 2.008 . S
N117 C118 1.376 . S
N117 C121 1.374 . S
C118 N117 1.376 . S
C118 C119 1.443 . S
C118 C145 1.389 . S
C119 C118 1.443 . S
C119 C120 1.340 . S
C119 H151 0.951 . S
C120 C119 1.340 . S
C120 C121 1.439 . S
C120 H152 0.950 . S
C121 N117 1.374 . S
C121 C120 1.439 . S
C121 C146 1.395 . S
N122 Co111 1.995 . S
N122 C123 1.376 . S
N122 C126 1.383 . S
C123 N122 1.376 . S
C123 C124 1.446 . S
C123 C146 1.391 . S
C124 C123 1.446 . S
C124 C125 1.339 . S
C124 H153 0.949 . S
C125 C124 1.339 . S
C125 C126 1.439 . S
C125 H154 0.950 . S
C126 N122 1.383 . S
C126 C125 1.439 . S
C126 C144 1.392 . S
N127 Co111 2.282 . S
N127 C130 1.332 . S
N127 C132 1.332 . S
C128 C129 1.386 . S
C128 C131 1.388 . S
C129 C128 1.386 . S
C129 C130 1.382 . S
C129 H155 0.950 . S
C130 N127 1.332 . S
C130 C129 1.382 . S
C130 H141 0.952 . S
C131 C128 1.388 . S
C131 C132 1.382 . S
C131 H156 0.950 . S
C132 N127 1.332 . S
C132 C131 1.382 . S
C132 H142 0.948 . S
N133 Co111 2.282 . S
N133 C137 1.332 . S
N133 C138 1.332 . S
C134 C135 1.388 . S
C134 C138 1.382 . S
C134 H157 0.950 . S
C135 C134 1.388 . S
C135 C136 1.386 . S
C136 C135 1.386 . S
C136 C137 1.382 . S
C136 H158 0.950 . S
C137 N133 1.332 . S
C137 C136 1.382 . S
C137 H139 0.952 . S
C138 N133 1.332 . S
C138 C134 1.382 . S
C138 H140 0.948 . S
H139 C137 0.952 . S
H140 C138 0.948 . S
H141 C130 0.952 . S
H142 C132 0.948 . S
C143 C109 1.395 . S
C143 C113 1.391 . S
C144 C106 1.389 . S
C144 C126 1.392 . S
C145 C116 1.392 . S
C145 C118 1.389 . S
C146 C121 1.395 . S
C146 C123 1.391 . S
H147 C107 0.951 . S
H148 C108 0.950 . S
H149 C114 0.949 . S
H150 C115 0.950 . S
H151 C119 0.951 . S
H152 C120 0.950 . S
H153 C124 0.949 . S
H154 C125 0.950 . S
H155 C129 0.950 . S
H156 C131 0.950 . S
H157 C134 0.950 . S
H158 C136 0.950 . S
C159 C160 1.443 . S
C159 N163 1.376 . S
C159 C197 1.389 . S
C160 C159 1.443 . S
C160 C161 1.340 . S
C160 H200 0.951 . S
C161 C160 1.340 . S
C161 C162 1.439 . S
C161 H201 0.950 . S
C162 C161 1.439 . S
C162 N163 1.374 . S
C162 C196 1.395 . S
N163 C159 1.376 . S
N163 C162 1.374 . S
N163 Co164 2.008 . S
Co164 N163 2.008 . S
Co164 N165 1.995 . S
Co164 N170 2.008 . S
Co164 N175 1.995 . S
Co164 N180 2.282 . S
Co164 N186 2.282 . S
N165 Co164 1.995 . S
N165 C166 1.376 . S
N165 C169 1.383 . S
C166 N165 1.376 . S
C166 C167 1.446 . S
C166 C196 1.391 . S
C167 C166 1.446 . S
C167 C168 1.339 . S
C167 H202 0.949 . S
C168 C167 1.339 . S
C168 C169 1.439 . S
C168 H203 0.950 . S
C169 N165 1.383 . S
C169 C168 1.439 . S
C169 C198 1.392 . S
N170 Co164 2.008 . S
N170 C171 1.376 . S
N170 C174 1.374 . S
C171 N170 1.376 . S
C171 C172 1.443 . S
C171 C198 1.389 . S
C172 C171 1.443 . S
C172 C173 1.340 . S
C172 H204 0.951 . S
C173 C172 1.340 . S
C173 C174 1.439 . S
C173 H205 0.950 . S
C174 N170 1.374 . S
C174 C173 1.439 . S
C174 C199 1.395 . S
N175 Co164 1.995 . S
N175 C176 1.376 . S
N175 C179 1.383 . S
C176 N175 1.376 . S
C176 C177 1.446 . S
C176 C199 1.391 . S
C177 C176 1.446 . S
C177 C178 1.339 . S
C177 H206 0.949 . S
C178 C177 1.339 . S
C178 C179 1.439 . S
C178 H207 0.950 . S
C179 N175 1.383 . S
C179 C178 1.439 . S
C179 C197 1.392 . S
N180 Co164 2.282 . S
N180 C183 1.332 . S
N180 C185 1.332 . S
C181 C182 1.386 . S
C181 C184 1.388 . S
C182 C181 1.386 . S
C182 C183 1.382 . S
C182 H208 0.950 . S
C183 N180 1.332 . S
C183 C182 1.382 . S
C183 H194 0.952 . S
C184 C181 1.388 . S
C184 C185 1.382 . S
C184 H209 0.950 . S
C185 N180 1.332 . S
C185 C184 1.382 . S
C185 H195 0.948 . S
N186 Co164 2.282 . S
N186 C190 1.332 . S
N186 C191 1.332 . S
C187 C188 1.388 . S
C187 C191 1.382 . S
C187 H210 0.950 . S
C188 C187 1.388 . S
C188 C189 1.386 . S
C189 C188 1.386 . S
C189 C190 1.382 . S
C189 H211 0.950 . S
C190 N186 1.332 . S
C190 C189 1.382 . S
C190 H192 0.952 . S
C191 N186 1.332 . S
C191 C187 1.382 . S
C191 H193 0.948 . S
H192 C190 0.952 . S
H193 C191 0.948 . S
H194 C183 0.952 . S
H195 C185 0.948 . S
C196 C162 1.395 . S
C196 C166 1.391 . S
C197 C159 1.389 . S
C197 C179 1.392 . S
C198 C169 1.392 . S
C198 C171 1.389 . S
C199 C174 1.395 . S
C199 C176 1.391 . S
H200 C160 0.951 . S
H201 C161 0.950 . S
H202 C167 0.949 . S
H203 C168 0.950 . S
H204 C172 0.951 . S
H205 C173 0.950 . S
H206 C177 0.949 . S
H207 C178 0.950 . S
H208 C182 0.950 . S
H209 C184 0.950 . S
H210 C187 0.950 . S
H211 C189 0.950 . S
C212 C213 1.443 . S
C212 N216 1.376 . S
C212 C250 1.389 1_655 S
C213 C212 1.443 . S
C213 C214 1.340 . S
C213 H253 0.951 . S
C214 C213 1.340 . S
C214 C215 1.439 . S
C214 H254 0.950 . S
C215 C214 1.439 . S
C215 N216 1.374 . S
C215 C249 1.395 . S
N216 C212 1.376 . S
N216 C215 1.374 . S
N216 Co217 2.008 1_655 S
Co217 N216 2.008 1_455 S
Co217 N218 1.995 1_455 S
Co217 N223 2.008 . S
Co217 N228 1.995 . S
Co217 N233 2.282 . S
Co217 N239 2.282 1_455 S
N218 Co217 1.995 1_655 S
N218 C219 1.376 . S
N218 C222 1.383 . S
C219 N218 1.376 . S
C219 C220 1.446 . S
C219 C249 1.391 . S
C220 C219 1.446 . S
C220 C221 1.339 . S
C220 H255 0.949 . S
C221 C220 1.339 . S
C221 C222 1.439 . S
C221 H256 0.950 . S
C222 N218 1.383 . S
C222 C221 1.439 . S
C222 C251 1.392 1_655 S
N223 Co217 2.008 . S
N223 C224 1.376 . S
N223 C227 1.374 . S
C224 N223 1.376 . S
C224 C225 1.443 . S
C224 C251 1.389 . S
C225 C224 1.443 . S
C225 C226 1.340 . S
C225 H257 0.951 . S
C226 C225 1.340 . S
C226 C227 1.439 . S
C226 H258 0.950 . S
C227 N223 1.374 . S
C227 C226 1.439 . S
C227 C252 1.395 . S
N228 Co217 1.995 . S
N228 C229 1.376 . S
N228 C232 1.383 . S
C229 N228 1.376 . S
C229 C230 1.446 . S
C229 C252 1.391 . S
C230 C229 1.446 . S
C230 C231 1.339 . S
C230 H259 0.949 . S
C231 C230 1.339 . S
C231 C232 1.439 . S
C231 H260 0.950 . S
C232 N228 1.383 . S
C232 C231 1.439 . S
C232 C250 1.392 . S
N233 Co217 2.282 . S
N233 C236 1.332 . S
N233 C238 1.332 . S
C234 C235 1.386 . S
C234 C237 1.388 . S
C235 C234 1.386 . S
C235 C236 1.382 . S
C235 H261 0.950 . S
C236 N233 1.332 . S
C236 C235 1.382 . S
C236 H247 0.952 . S
C237 C234 1.388 . S
C237 C238 1.382 . S
C237 H262 0.950 . S
C238 N233 1.332 . S
C238 C237 1.382 . S
C238 H248 0.926 1_455 S
N239 Co217 2.282 1_655 S
N239 C243 1.332 . S
N239 C244 1.332 1_655 S
C240 C241 1.317 1_455 S
C240 C244 1.412 . S
C240 H263 0.994 . S
C241 C240 1.317 1_655 S
C241 C242 1.386 . S
C242 C241 1.386 . S
C242 C243 1.382 . S
C242 H264 0.950 . S
C243 N239 1.332 . S
C243 C242 1.382 . S
C243 H245 0.952 . S
C244 N239 1.332 1_455 S
C244 C240 1.412 . S
C244 H246 0.948 . S
H245 C243 0.952 . S
H246 C244 0.948 . S
H247 C236 0.952 . S
H248 C238 0.926 1_655 S
C249 C215 1.395 . S
C249 C219 1.391 . S
C250 C212 1.389 1_455 S
C250 C232 1.392 . S
C251 C222 1.392 1_455 S
C251 C224 1.389 . S
C252 C227 1.395 . S
C252 C229 1.391 . S
H253 C213 0.951 . S
H254 C214 0.950 . S
H255 C220 0.949 . S
H256 C221 0.950 . S
H257 C225 0.951 . S
H258 C226 0.950 . S
H259 C230 0.949 . S
H260 C231 0.950 . S
H261 C235 0.950 . S
H262 C237 0.950 . S
H263 C240 0.994 . S
H264 C242 0.950 . S
C265 C266 1.443 . S
C265 N269 1.376 . S
C265 C303 1.389 . S
C266 C265 1.443 . S
C266 C267 1.340 . S
C266 H306 0.951 . S
C267 C266 1.340 . S
C267 C268 1.439 . S
C267 H307 0.950 . S
C268 C267 1.439 . S
C268 N269 1.374 . S
C268 C302 1.395 . S
N269 C265 1.376 . S
N269 C268 1.374 . S
N269 Co270 2.008 . S
Co270 N269 2.008 . S
Co270 N271 1.995 . S
Co270 N276 2.008 . S
Co270 N281 1.995 . S
Co270 N286 2.282 . S
Co270 N292 2.282 . S
N271 Co270 1.995 . S
N271 C272 1.376 . S
N271 C275 1.383 . S
C272 N271 1.376 . S
C272 C273 1.446 . S
C272 C302 1.391 . S
C273 C272 1.446 . S
C273 C274 1.339 . S
C273 H308 0.949 . S
C274 C273 1.339 . S
C274 C275 1.439 . S
C274 H309 0.950 . S
C275 N271 1.383 . S
C275 C274 1.439 . S
C275 C304 1.392 . S
N276 Co270 2.008 . S
N276 C277 1.376 . S
N276 C280 1.374 . S
C277 N276 1.376 . S
C277 C278 1.443 . S
C277 C304 1.389 . S
C278 C277 1.443 . S
C278 C279 1.340 . S
C278 H310 0.951 . S
C279 C278 1.340 . S
C279 C280 1.439 . S
C279 H311 0.950 . S
C280 N276 1.374 . S
C280 C279 1.439 . S
C280 C305 1.395 . S
N281 Co270 1.995 . S
N281 C282 1.376 . S
N281 C285 1.383 . S
C282 N281 1.376 . S
C282 C283 1.446 . S
C282 C305 1.391 . S
C283 C282 1.446 . S
C283 C284 1.339 . S
C283 H312 0.949 . S
C284 C283 1.339 . S
C284 C285 1.439 . S
C284 H313 0.950 . S
C285 N281 1.383 . S
C285 C284 1.439 . S
C285 C303 1.392 . S
N286 Co270 2.282 . S
N286 C289 1.332 . S
N286 C291 1.332 . S
C287 C288 1.386 . S
C287 C290 1.388 . S
C288 C287 1.386 . S
C288 C289 1.382 . S
C288 H314 0.950 . S
C289 N286 1.332 . S
C289 C288 1.382 . S
C289 H300 0.952 . S
C290 C287 1.388 . S
C290 C291 1.382 . S
C290 H315 0.950 . S
C291 N286 1.332 . S
C291 C290 1.382 . S
C291 H301 0.948 . S
N292 Co270 2.282 . S
N292 C296 1.332 . S
N292 C297 1.332 . S
C293 C294 1.388 . S
C293 C297 1.382 . S
C293 H316 0.950 . S
C294 C293 1.388 . S
C294 C295 1.386 . S
C295 C294 1.386 . S
C295 C296 1.382 . S
C295 H317 0.950 . S
C296 N292 1.332 . S
C296 C295 1.382 . S
C296 H298 0.952 . S
C297 N292 1.332 . S
C297 C293 1.382 . S
C297 H299 0.948 . S
H298 C296 0.952 . S
H299 C297 0.948 . S
H300 C289 0.952 . S
H301 C291 0.948 . S
C302 C268 1.395 . S
C302 C272 1.391 . S
C303 C265 1.389 . S
C303 C285 1.392 . S
C304 C275 1.392 . S
C304 C277 1.389 . S
C305 C280 1.395 . S
C305 C282 1.391 . S
H306 C266 0.951 . S
H307 C267 0.950 . S
H308 C273 0.949 . S
H309 C274 0.950 . S
H310 C278 0.951 . S
H311 C279 0.950 . S
H312 C283 0.949 . S
H313 C284 0.950 . S
H314 C288 0.950 . S
H315 C290 0.950 . S
H316 C293 0.950 . S
H317 C295 0.950 . S
C318 C319 1.443 . S
C318 N322 1.376 1_554 S
C318 C356 1.389 . S
C319 C318 1.443 . S
C319 C320 1.340 . S
C319 H359 0.951 . S
C320 C319 1.340 . S
C320 C321 1.439 1_554 S
C320 H360 0.950 . S
C321 C320 1.439 1_556 S
C321 N322 1.374 . S
C321 C355 1.395 . S
N322 C318 1.376 1_556 S
N322 C321 1.374 . S
N322 Co323 2.008 . S
Co323 N322 2.008 . S
Co323 N324 1.995 . S
Co323 N329 2.008 . S
Co323 N334 1.995 . S
Co323 N339 2.282 . S
Co323 N345 2.282 . S
N324 Co323 1.995 . S
N324 C325 1.376 . S
N324 C328 1.383 . S
C325 N324 1.376 . S
C325 C326 1.446 . S
C325 C355 1.391 . S
C326 C325 1.446 . S
C326 C327 1.339 . S
C326 H361 0.949 . S
C327 C326 1.339 . S
C327 C328 1.439 . S
C327 H362 0.950 . S
C328 N324 1.383 . S
C328 C327 1.439 . S
C328 C357 1.392 . S
N329 Co323 2.008 . S
N329 C330 1.376 . S
N329 C333 1.374 . S
C330 N329 1.376 . S
C330 C331 1.443 . S
C330 C357 1.389 . S
C331 C330 1.443 . S
C331 C332 1.340 . S
C331 H363 0.951 . S
C332 C331 1.340 . S
C332 C333 1.439 . S
C332 H364 0.950 . S
C333 N329 1.374 . S
C333 C332 1.439 . S
C333 C358 1.395 . S
N334 Co323 1.995 . S
N334 C335 1.376 . S
N334 C338 1.383 1_556 S
C335 N334 1.376 . S
C335 C336 1.446 1_556 S
C335 C358 1.391 . S
C336 C335 1.446 1_554 S
C336 C337 1.339 . S
C336 H365 0.949 . S
C337 C336 1.339 . S
C337 C338 1.439 . S
C337 H366 0.950 . S
C338 N334 1.383 1_554 S
C338 C337 1.439 . S
C338 C356 1.392 . S
N339 Co323 2.282 . S
N339 C342 1.332 . S
N339 C344 1.332 . S
C340 C341 1.386 . S
C340 C343 1.388 . S
C341 C340 1.386 . S
C341 C342 1.382 . S
C341 H367 0.950 . S
C342 N339 1.332 . S
C342 C341 1.382 . S
C342 H353 0.952 . S
C343 C340 1.388 . S
C343 C344 1.382 . S
C343 H368 0.950 . S
C344 N339 1.332 . S
C344 C343 1.382 . S
C344 H354 0.948 . S
N345 Co323 2.282 . S
N345 C349 1.332 . S
N345 C350 1.332 . S
C346 C347 1.388 . S
C346 C350 1.382 . S
C346 H369 0.950 1_556 S
C347 C346 1.388 . S
C347 C348 1.386 . S
C348 C347 1.386 . S
C348 C349 1.382 . S
C348 H370 0.950 . S
C349 N345 1.332 . S
C349 C348 1.382 . S
C349 H351 0.952 . S
C350 N345 1.332 . S
C350 C346 1.382 . S
C350 H352 0.948 . S
H351 C349 0.952 . S
H352 C350 0.948 . S
H353 C342 0.952 . S
H354 C344 0.948 . S
C355 C321 1.395 . S
C355 C325 1.391 . S
C356 C318 1.389 . S
C356 C338 1.392 . S
C357 C328 1.392 . S
C357 C330 1.389 . S
C358 C333 1.395 . S
C358 C335 1.391 . S
H359 C319 0.951 . S
H360 C320 0.950 . S
H361 C326 0.949 . S
H362 C327 0.950 . S
H363 C331 0.951 . S
H364 C332 0.950 . S
H365 C336 0.949 . S
H366 C337 0.950 . S
H367 C341 0.950 . S
H368 C343 0.950 . S
H369 C346 0.950 1_554 S
H370 C348 0.950 . S
C371 C372 1.443 . S
C371 N375 1.376 . S
C371 C409 1.389 . S
C372 C371 1.443 . S
C372 C373 1.340 . S
C372 H412 0.951 . S
C373 C372 1.340 . S
C373 C374 1.439 . S
C373 H413 0.950 . S
C374 C373 1.439 . S
C374 N375 1.374 . S
C374 C408 1.395 . S
N375 C371 1.376 . S
N375 C374 1.374 . S
N375 Co376 2.008 . S
Co376 N375 2.008 . S
Co376 N377 1.995 . S
Co376 N382 2.008 . S
Co376 N387 1.995 . S
Co376 N392 2.282 . S
Co376 N398 2.282 . S
N377 Co376 1.995 . S
N377 C378 1.376 . S
N377 C381 1.383 . S
C378 N377 1.376 . S
C378 C379 1.446 . S
C378 C408 1.391 . S
C379 C378 1.446 . S
C379 C380 1.339 . S
C379 H414 0.949 . S
C380 C379 1.339 . S
C380 C381 1.439 . S
C380 H415 0.950 . S
C381 N377 1.383 . S
C381 C380 1.439 . S
C381 C410 1.392 . S
N382 Co376 2.008 . S
N382 C383 1.376 . S
N382 C386 1.374 . S
C383 N382 1.376 . S
C383 C384 1.443 . S
C383 C410 1.389 . S
C384 C383 1.443 . S
C384 C385 1.340 . S
C384 H416 0.951 . S
C385 C384 1.340 . S
C385 C386 1.439 . S
C385 H417 0.950 . S
C386 N382 1.374 . S
C386 C385 1.439 . S
C386 C411 1.395 . S
N387 Co376 1.995 . S
N387 C388 1.376 . S
N387 C391 1.383 . S
C388 N387 1.376 . S
C388 C389 1.446 . S
C388 C411 1.391 . S
C389 C388 1.446 . S
C389 C390 1.339 . S
C389 H418 0.949 . S
C390 C389 1.339 . S
C390 C391 1.439 . S
C390 H419 0.950 . S
C391 N387 1.383 . S
C391 C390 1.439 . S
C391 C409 1.392 . S
N392 Co376 2.282 . S
N392 C395 1.332 . S
N392 C397 1.332 . S
C393 C394 1.386 . S
C393 C396 1.388 . S
C394 C393 1.386 . S
C394 C395 1.382 . S
C394 H420 0.950 . S
C395 N392 1.332 . S
C395 C394 1.382 . S
C395 H406 0.952 . S
C396 C393 1.388 . S
C396 C397 1.382 . S
C396 H421 0.950 . S
C397 N392 1.332 . S
C397 C396 1.382 . S
C397 H407 0.948 . S
N398 Co376 2.282 . S
N398 C402 1.332 . S
N398 C403 1.332 . S
C399 C400 1.388 . S
C399 C403 1.382 . S
C399 H422 0.950 . S
C400 C399 1.388 . S
C400 C401 1.386 . S
C401 C400 1.386 . S
C401 C402 1.382 . S
C401 H423 0.950 . S
C402 N398 1.332 . S
C402 C401 1.382 . S
C402 H404 0.952 . S
C403 N398 1.332 . S
C403 C399 1.382 . S
C403 H405 0.948 . S
H404 C402 0.952 . S
H405 C403 0.948 . S
H406 C395 0.952 . S
H407 C397 0.948 . S
C408 C374 1.395 . S
C408 C378 1.391 . S
C409 C371 1.389 . S
C409 C391 1.392 . S
C410 C381 1.392 . S
C410 C383 1.389 . S
C411 C386 1.395 . S
C411 C388 1.391 . S
H412 C372 0.951 . S
H413 C373 0.950 . S
H414 C379 0.949 . S
H415 C380 0.950 . S
H416 C384 0.951 . S
H417 C385 0.950 . S
H418 C389 0.949 . S
H419 C390 0.950 . S
H420 C394 0.950 . S
H421 C396 0.950 . S
H422 C399 0.950 . S
H423 C401 0.950 . S
C424 C425 1.443 . S
C424 N428 1.376 1_554 S
C424 C462 1.389 . S
C425 C424 1.443 . S
C425 C426 1.340 . S
C425 H465 0.951 . S
C426 C425 1.340 . S
C426 C427 1.439 1_554 S
C426 H466 0.950 . S
C427 C426 1.439 1_556 S
C427 N428 1.374 . S
C427 C461 1.395 . S
N428 C424 1.376 1_556 S
N428 C427 1.374 . S
N428 Co429 2.008 . S
Co429 N428 2.008 . S
Co429 N430 1.995 . S
Co429 N435 2.008 1_655 S
Co429 N440 1.995 1_655 S
Co429 N445 2.282 . S
Co429 N451 2.282 1_655 S
N430 Co429 1.995 . S
N430 C431 1.376 . S
N430 C434 1.383 . S
C431 N430 1.376 . S
C431 C432 1.446 . S
C431 C461 1.391 . S
C432 C431 1.446 . S
C432 C433 1.339 . S
C432 H467 0.949 . S
C433 C432 1.339 . S
C433 C434 1.439 . S
C433 H468 0.950 . S
C434 N430 1.383 . S
C434 C433 1.439 . S
C434 C463 1.392 . S
N435 Co429 2.008 1_455 S
N435 C436 1.376 . S
N435 C439 1.374 . S
C436 N435 1.376 . S
C436 C437 1.443 . S
C436 C463 1.389 1_455 S
C437 C436 1.443 . S
C437 C438 1.340 . S
C437 H469 0.951 . S
C438 C437 1.340 . S
C438 C439 1.439 . S
C438 H470 0.950 . S
C439 N435 1.374 . S
C439 C438 1.439 . S
C439 C464 1.395 . S
N440 Co429 1.995 1_455 S
N440 C441 1.376 . S
N440 C444 1.383 1_556 S
C441 N440 1.376 . S
C441 C442 1.446 1_556 S
C441 C464 1.391 . S
C442 C441 1.446 1_554 S
C442 C443 1.339 . S
C442 H471 0.949 . S
C443 C442 1.339 . S
C443 C444 1.439 . S
C443 H472 0.950 . S
C444 N440 1.383 1_554 S
C444 C443 1.439 . S
C444 C462 1.392 1_455 S
N445 Co429 2.282 . S
N445 C448 1.332 . S
N445 C450 1.332 . S
C446 C447 1.386 . S
C446 C449 1.388 . S
C447 C446 1.386 . S
C447 C448 1.382 . S
C447 H473 0.950 . S
C448 N445 1.332 . S
C448 C447 1.382 . S
C448 H459 0.952 . S
C449 C446 1.388 . S
C449 C450 1.382 . S
C449 H474 0.950 . S
C450 N445 1.332 . S
C450 C449 1.382 . S
C450 H460 0.948 . S
N451 Co429 2.282 1_455 S
N451 C455 1.332 1_455 S
N451 C456 1.332 . S
C452 C453 1.388 . S
C452 C456 1.382 . S
C452 H475 0.950 1_556 S
C453 C452 1.388 . S
C453 C454 1.417 . S
C454 C453 1.417 . S
C454 C455 1.370 1_455 S
C454 H476 0.931 1_455 S
C455 N451 1.332 1_655 S
C455 C454 1.370 1_655 S
C455 H457 0.952 . S
C456 N451 1.332 . S
C456 C452 1.382 . S
C456 H458 0.948 . S
H457 C455 0.952 . S
H458 C456 0.948 . S
H459 C448 0.952 . S
H460 C450 0.948 . S
C461 C427 1.395 . S
C461 C431 1.391 . S
C462 C424 1.389 . S
C462 C444 1.392 1_655 S
C463 C434 1.392 . S
C463 C436 1.389 1_655 S
C464 C439 1.395 . S
C464 C441 1.391 . S
H465 C425 0.951 . S
H466 C426 0.950 . S
H467 C432 0.949 . S
H468 C433 0.950 . S
H469 C437 0.951 . S
H470 C438 0.950 . S
H471 C442 0.949 . S
H472 C443 0.950 . S
H473 C447 0.950 . S
H474 C449 0.950 . S
H475 C452 0.950 1_554 S
H476 C454 0.931 1_655 S
C477 C478 1.443 . S
C477 N481 1.376 . S
C477 C515 1.389 . S
C478 C477 1.443 . S
C478 C479 1.340 . S
C478 H518 0.951 . S
C479 C478 1.340 . S
C479 C480 1.439 . S
C479 H519 0.950 . S
C480 C479 1.439 . S
C480 N481 1.374 . S
C480 C514 1.395 . S
N481 C477 1.376 . S
N481 C480 1.374 . S
N481 Co482 2.008 . S
Co482 N481 2.008 . S
Co482 N483 1.995 . S
Co482 N488 2.008 . S
Co482 N493 1.995 . S
Co482 N498 2.282 . S
Co482 N504 2.282 . S
N483 Co482 1.995 . S
N483 C484 1.376 . S
N483 C487 1.383 . S
C484 N483 1.376 . S
C484 C485 1.446 . S
C484 C514 1.391 . S
C485 C484 1.446 . S
C485 C486 1.339 . S
C485 H520 0.949 . S
C486 C485 1.339 . S
C486 C487 1.439 . S
C486 H521 0.950 . S
C487 N483 1.383 . S
C487 C486 1.439 . S
C487 C516 1.392 . S
N488 Co482 2.008 . S
N488 C489 1.376 . S
N488 C492 1.374 . S
C489 N488 1.376 . S
C489 C490 1.443 . S
C489 C516 1.389 . S
C490 C489 1.443 . S
C490 C491 1.340 . S
C490 H522 0.951 . S
C491 C490 1.340 . S
C491 C492 1.439 . S
C491 H523 0.950 . S
C492 N488 1.374 . S
C492 C491 1.439 . S
C492 C517 1.395 . S
N493 Co482 1.995 . S
N493 C494 1.376 . S
N493 C497 1.383 . S
C494 N493 1.376 . S
C494 C495 1.446 . S
C494 C517 1.391 . S
C495 C494 1.446 . S
C495 C496 1.339 . S
C495 H524 0.949 . S
C496 C495 1.339 . S
C496 C497 1.439 . S
C496 H525 0.950 . S
C497 N493 1.383 . S
C497 C496 1.439 . S
C497 C515 1.392 . S
N498 Co482 2.282 . S
N498 C501 1.332 . S
N498 C503 1.332 . S
C499 C500 1.386 . S
C499 C502 1.388 . S
C500 C499 1.386 . S
C500 C501 1.382 . S
C500 H526 0.950 . S
C501 N498 1.332 . S
C501 C500 1.382 . S
C501 H512 0.952 . S
C502 C499 1.388 . S
C502 C503 1.382 . S
C502 H527 0.950 . S
C503 N498 1.332 . S
C503 C502 1.382 . S
C503 H513 0.948 . S
N504 Co482 2.282 . S
N504 C508 1.332 . S
N504 C509 1.332 . S
C505 C506 1.388 . S
C505 C509 1.382 . S
C505 H528 0.950 . S
C506 C505 1.388 . S
C506 C507 1.386 . S
C507 C506 1.386 . S
C507 C508 1.382 . S
C507 H529 0.950 . S
C508 N504 1.332 . S
C508 C507 1.382 . S
C508 H510 0.952 . S
C509 N504 1.332 . S
C509 C505 1.382 . S
C509 H511 0.948 . S
H510 C508 0.952 . S
H511 C509 0.948 . S
H512 C501 0.952 . S
H513 C503 0.948 . S
C514 C480 1.395 . S
C514 C484 1.391 . S
C515 C477 1.389 . S
C515 C497 1.392 . S
C516 C487 1.392 . S
C516 C489 1.389 . S
C517 C492 1.395 . S
C517 C494 1.391 . S
H518 C478 0.951 . S
H519 C479 0.950 . S
H520 C485 0.949 . S
H521 C486 0.950 . S
H522 C490 0.951 . S
H523 C491 0.950 . S
H524 C495 0.949 . S
H525 C496 0.950 . S
H526 C500 0.950 . S
H527 C502 0.950 . S
H528 C505 0.950 . S
H529 C507 0.950 . S
C530 C531 1.443 . S
C530 N534 1.376 . S
C530 C568 1.389 . S
C531 C530 1.443 . S
C531 C532 1.340 . S
C531 H571 0.951 . S
C532 C531 1.340 . S
C532 C533 1.439 . S
C532 H572 0.950 . S
C533 C532 1.439 . S
C533 N534 1.374 . S
C533 C567 1.395 . S
N534 C530 1.376 . S
N534 C533 1.374 . S
N534 Co535 2.008 . S
Co535 N534 2.008 . S
Co535 N536 1.995 . S
Co535 N541 2.008 . S
Co535 N546 1.995 . S
Co535 N551 2.282 . S
Co535 N557 2.282 . S
N536 Co535 1.995 . S
N536 C537 1.376 . S
N536 C540 1.383 . S
C537 N536 1.376 . S
C537 C538 1.446 . S
C537 C567 1.391 . S
C538 C537 1.446 . S
C538 C539 1.339 . S
C538 H573 0.949 . S
C539 C538 1.339 . S
C539 C540 1.439 . S
C539 H574 0.950 . S
C540 N536 1.383 . S
C540 C539 1.439 . S
C540 C569 1.392 . S
N541 Co535 2.008 . S
N541 C542 1.376 . S
N541 C545 1.374 . S
C542 N541 1.376 . S
C542 C543 1.443 . S
C542 C569 1.389 . S
C543 C542 1.443 . S
C543 C544 1.340 . S
C543 H575 0.951 . S
C544 C543 1.340 . S
C544 C545 1.439 . S
C544 H576 0.950 . S
C545 N541 1.374 . S
C545 C544 1.439 . S
C545 C570 1.395 . S
N546 Co535 1.995 . S
N546 C547 1.376 . S
N546 C550 1.383 . S
C547 N546 1.376 . S
C547 C548 1.446 . S
C547 C570 1.391 . S
C548 C547 1.446 . S
C548 C549 1.339 . S
C548 H577 0.949 . S
C549 C548 1.339 . S
C549 C550 1.439 . S
C549 H578 0.950 . S
C550 N546 1.383 . S
C550 C549 1.439 . S
C550 C568 1.392 . S
N551 Co535 2.282 . S
N551 C554 1.332 . S
N551 C556 1.332 . S
C552 C553 1.386 . S
C552 C555 1.388 . S
C553 C552 1.386 . S
C553 C554 1.382 . S
C553 H579 0.950 . S
C554 N551 1.332 . S
C554 C553 1.382 . S
C554 H565 0.952 . S
C555 C552 1.388 . S
C555 C556 1.382 . S
C555 H580 0.950 . S
C556 N551 1.332 . S
C556 C555 1.382 . S
C556 H566 0.948 . S
N557 Co535 2.282 . S
N557 C561 1.332 . S
N557 C562 1.332 . S
C558 C559 1.388 . S
C558 C562 1.382 . S
C558 H581 0.950 . S
C559 C558 1.388 . S
C559 C560 1.386 . S
C560 C559 1.386 . S
C560 C561 1.382 . S
C560 H582 0.950 . S
C561 N557 1.332 . S
C561 C560 1.382 . S
C561 H563 0.952 . S
C562 N557 1.332 . S
C562 C558 1.382 . S
C562 H564 0.948 . S
H563 C561 0.952 . S
H564 C562 0.948 . S
H565 C554 0.952 . S
H566 C556 0.948 . S
C567 C533 1.395 . S
C567 C537 1.391 . S
C568 C530 1.389 . S
C568 C550 1.392 . S
C569 C540 1.392 . S
C569 C542 1.389 . S
C570 C545 1.395 . S
C570 C547 1.391 . S
H571 C531 0.951 . S
H572 C532 0.950 . S
H573 C538 0.949 . S
H574 C539 0.950 . S
H575 C543 0.951 . S
H576 C544 0.950 . S
H577 C548 0.949 . S
H578 C549 0.950 . S
H579 C553 0.950 . S
H580 C555 0.950 . S
H581 C558 0.950 . S
H582 C560 0.950 . S
C583 C584 1.443 . S
C583 N587 1.376 . S
C583 C621 1.389 . S
C584 C583 1.443 . S
C584 C585 1.340 . S
C584 H624 0.951 . S
C585 C584 1.340 . S
C585 C586 1.439 . S
C585 H625 0.950 . S
C586 C585 1.439 . S
C586 N587 1.374 . S
C586 C620 1.395 . S
N587 C583 1.376 . S
N587 C586 1.374 . S
N587 Co588 2.008 . S
Co588 N587 2.008 . S
Co588 N589 1.995 . S
Co588 N594 2.008 . S
Co588 N599 1.995 . S
Co588 N604 2.282 . S
Co588 N610 2.282 . S
N589 Co588 1.995 . S
N589 C590 1.376 . S
N589 C593 1.383 . S
C590 N589 1.376 . S
C590 C591 1.446 . S
C590 C620 1.391 . S
C591 C590 1.446 . S
C591 C592 1.339 . S
C591 H626 0.949 . S
C592 C591 1.339 . S
C592 C593 1.439 . S
C592 H627 0.950 . S
C593 N589 1.383 . S
C593 C592 1.439 . S
C593 C622 1.392 . S
N594 Co588 2.008 . S
N594 C595 1.376 . S
N594 C598 1.374 . S
C595 N594 1.376 . S
C595 C596 1.443 . S
C595 C622 1.389 . S
C596 C595 1.443 . S
C596 C597 1.340 . S
C596 H628 0.951 . S
C597 C596 1.340 . S
C597 C598 1.439 . S
C597 H629 0.950 . S
C598 N594 1.374 . S
C598 C597 1.439 . S
C598 C623 1.395 . S
N599 Co588 1.995 . S
N599 C600 1.376 . S
N599 C603 1.383 . S
C600 N599 1.376 . S
C600 C601 1.446 . S
C600 C623 1.391 . S
C601 C600 1.446 . S
C601 C602 1.339 . S
C601 H630 0.949 . S
C602 C601 1.339 . S
C602 C603 1.439 . S
C602 H631 0.950 . S
C603 N599 1.383 . S
C603 C602 1.439 . S
C603 C621 1.392 . S
N604 Co588 2.282 . S
N604 C607 1.332 . S
N604 C609 1.332 . S
C605 C606 1.386 . S
C605 C608 1.388 . S
C606 C605 1.386 . S
C606 C607 1.382 . S
C606 H632 0.950 . S
C607 N604 1.332 . S
C607 C606 1.382 . S
C607 H618 0.952 . S
C608 C605 1.388 . S
C608 C609 1.382 . S
C608 H633 0.950 . S
C609 N604 1.332 . S
C609 C608 1.382 . S
C609 H619 0.948 . S
N610 Co588 2.282 . S
N610 C614 1.332 . S
N610 C615 1.332 . S
C611 C612 1.388 . S
C611 C615 1.382 . S
C611 H634 0.950 . S
C612 C611 1.388 . S
C612 C613 1.386 . S
C613 C612 1.386 . S
C613 C614 1.382 . S
C613 H635 0.950 . S
C614 N610 1.332 . S
C614 C613 1.382 . S
C614 H616 0.952 . S
C615 N610 1.332 . S
C615 C611 1.382 . S
C615 H617 0.948 . S
H616 C614 0.952 . S
H617 C615 0.948 . S
H618 C607 0.952 . S
H619 C609 0.948 . S
C620 C586 1.395 . S
C620 C590 1.391 . S
C621 C583 1.389 . S
C621 C603 1.392 . S
C622 C593 1.392 . S
C622 C595 1.389 . S
C623 C598 1.395 . S
C623 C600 1.391 . S
H624 C584 0.951 . S
H625 C585 0.950 . S
H626 C591 0.949 . S
H627 C592 0.950 . S
H628 C596 0.951 . S
H629 C597 0.950 . S
H630 C601 0.949 . S
H631 C602 0.950 . S
H632 C606 0.950 . S
H633 C608 0.950 . S
H634 C611 0.950 . S
H635 C613 0.950 . S
C636 C637 1.443 . S
C636 N640 1.376 . S
C636 C674 1.389 . S
C637 C636 1.443 . S
C637 C638 1.340 . S
C637 H677 0.951 . S
C638 C637 1.340 . S
C638 C639 1.439 . S
C638 H678 0.950 . S
C639 C638 1.439 . S
C639 N640 1.374 . S
C639 C673 1.395 . S
N640 C636 1.376 . S
N640 C639 1.374 . S
N640 Co641 2.008 . S
Co641 N640 2.008 . S
Co641 N642 1.995 . S
Co641 N647 2.008 1_655 S
Co641 N652 1.995 1_655 S
Co641 N657 2.282 . S
Co641 N663 2.282 1_655 S
N642 Co641 1.995 . S
N642 C643 1.376 . S
N642 C646 1.383 . S
C643 N642 1.376 . S
C643 C644 1.446 . S
C643 C673 1.391 . S
C644 C643 1.446 . S
C644 C645 1.339 . S
C644 H679 0.949 . S
C645 C644 1.339 . S
C645 C646 1.439 . S
C645 H680 0.950 . S
C646 N642 1.383 . S
C646 C645 1.439 . S
C646 C675 1.392 . S
N647 Co641 2.008 1_455 S
N647 C648 1.376 . S
N647 C651 1.374 . S
C648 N647 1.376 . S
C648 C649 1.443 . S
C648 C675 1.389 1_455 S
C649 C648 1.443 . S
C649 C650 1.340 . S
C649 H681 0.951 . S
C650 C649 1.340 . S
C650 C651 1.439 . S
C650 H682 0.950 . S
C651 N647 1.374 . S
C651 C650 1.439 . S
C651 C676 1.395 . S
N652 Co641 1.995 1_455 S
N652 C653 1.376 . S
N652 C656 1.383 . S
C653 N652 1.376 . S
C653 C654 1.446 . S
C653 C676 1.391 . S
C654 C653 1.446 . S
C654 C655 1.339 . S
C654 H683 0.949 . S
C655 C654 1.339 . S
C655 C656 1.439 . S
C655 H684 0.950 . S
C656 N652 1.383 . S
C656 C655 1.439 . S
C656 C674 1.392 1_455 S
N657 Co641 2.282 . S
N657 C660 1.332 . S
N657 C662 1.332 . S
C658 C659 1.386 . S
C658 C661 1.388 . S
C659 C658 1.386 . S
C659 C660 1.382 . S
C659 H685 0.950 . S
C660 N657 1.332 . S
C660 C659 1.382 . S
C660 H671 0.952 . S
C661 C658 1.388 . S
C661 C662 1.382 . S
C661 H686 0.950 . S
C662 N657 1.332 . S
C662 C661 1.382 . S
C662 H672 0.948 . S
N663 Co641 2.282 1_455 S
N663 C667 1.332 1_455 S
N663 C668 1.332 . S
C664 C665 1.388 . S
C664 C668 1.382 . S
C664 H687 0.950 . S
C665 C664 1.388 . S
C665 C666 1.417 . S
C666 C665 1.417 . S
C666 C667 1.370 1_455 S
C666 H688 0.931 1_455 S
C667 N663 1.332 1_655 S
C667 C666 1.370 1_655 S
C667 H669 0.952 . S
C668 N663 1.332 . S
C668 C664 1.382 . S
C668 H670 0.948 . S
H669 C667 0.952 . S
H670 C668 0.948 . S
H671 C660 0.952 . S
H672 C662 0.948 . S
C673 C639 1.395 . S
C673 C643 1.391 . S
C674 C636 1.389 . S
C674 C656 1.392 1_655 S
C675 C646 1.392 . S
C675 C648 1.389 1_655 S
C676 C651 1.395 . S
C676 C653 1.391 . S
H677 C637 0.951 . S
H678 C638 0.950 . S
H679 C644 0.949 . S
H680 C645 0.950 . S
H681 C649 0.951 . S
H682 C650 0.950 . S
H683 C654 0.949 . S
H684 C655 0.950 . S
H685 C659 0.950 . S
H686 C661 0.950 . S
H687 C664 0.950 . S
H688 C666 0.931 1_655 S
C689 C690 1.443 . S
C689 N693 1.376 . S
C689 C727 1.389 . S
C690 C689 1.443 . S
C690 C691 1.340 . S
C690 H730 0.951 . S
C691 C690 1.340 . S
C691 C692 1.439 . S
C691 H731 0.950 . S
C692 C691 1.439 . S
C692 N693 1.374 . S
C692 C726 1.395 . S
N693 C689 1.376 . S
N693 C692 1.374 . S
N693 Co694 2.008 . S
Co694 N693 2.008 . S
Co694 N695 1.995 . S
Co694 N700 2.008 . S
Co694 N705 1.995 . S
Co694 N710 2.282 . S
Co694 N716 2.282 . S
N695 Co694 1.995 . S
N695 C696 1.376 . S
N695 C699 1.383 . S
C696 N695 1.376 . S
C696 C697 1.446 . S
C696 C726 1.391 . S
C697 C696 1.446 . S
C697 C698 1.339 . S
C697 H732 0.949 . S
C698 C697 1.339 . S
C698 C699 1.439 . S
C698 H733 0.950 . S
C699 N695 1.383 . S
C699 C698 1.439 . S
C699 C728 1.392 . S
N700 Co694 2.008 . S
N700 C701 1.376 . S
N700 C704 1.374 . S
C701 N700 1.376 . S
C701 C702 1.443 . S
C701 C728 1.389 . S
C702 C701 1.443 . S
C702 C703 1.340 . S
C702 H734 0.951 . S
C703 C702 1.340 . S
C703 C704 1.439 . S
C703 H735 0.950 . S
C704 N700 1.374 . S
C704 C703 1.439 . S
C704 C729 1.395 . S
N705 Co694 1.995 . S
N705 C706 1.376 . S
N705 C709 1.383 . S
C706 N705 1.376 . S
C706 C707 1.446 . S
C706 C729 1.391 . S
C707 C706 1.446 . S
C707 C708 1.339 . S
C707 H736 0.949 . S
C708 C707 1.339 . S
C708 C709 1.439 . S
C708 H737 0.950 . S
C709 N705 1.383 . S
C709 C708 1.439 . S
C709 C727 1.392 . S
N710 Co694 2.282 . S
N710 C713 1.332 . S
N710 C715 1.332 . S
C711 C712 1.386 . S
C711 C714 1.388 . S
C712 C711 1.386 . S
C712 C713 1.382 . S
C712 H738 0.950 . S
C713 N710 1.332 . S
C713 C712 1.382 . S
C713 H724 0.952 . S
C714 C711 1.388 . S
C714 C715 1.382 . S
C714 H739 0.950 . S
C715 N710 1.332 . S
C715 C714 1.382 . S
C715 H725 0.948 . S
N716 Co694 2.282 . S
N716 C720 1.332 . S
N716 C721 1.332 . S
C717 C718 1.388 . S
C717 C721 1.382 . S
C717 H740 0.950 . S
C718 C717 1.388 . S
C718 C719 1.386 . S
C719 C718 1.386 . S
C719 C720 1.382 . S
C719 H741 0.950 . S
C720 N716 1.332 . S
C720 C719 1.382 . S
C720 H722 0.952 . S
C721 N716 1.332 . S
C721 C717 1.382 . S
C721 H723 0.948 . S
H722 C720 0.952 . S
H723 C721 0.948 . S
H724 C713 0.952 . S
H725 C715 0.948 . S
C726 C692 1.395 . S
C726 C696 1.391 . S
C727 C689 1.389 . S
C727 C709 1.392 . S
C728 C699 1.392 . S
C728 C701 1.389 . S
C729 C704 1.395 . S
C729 C706 1.391 . S
H730 C690 0.951 . S
H731 C691 0.950 . S
H732 C697 0.949 . S
H733 C698 0.950 . S
H734 C702 0.951 . S
H735 C703 0.950 . S
H736 C707 0.949 . S
H737 C708 0.950 . S
H738 C712 0.950 . S
H739 C714 0.950 . S
H740 C717 0.950 . S
H741 C719 0.950 . S
C742 C743 1.443 . S
C742 N746 1.376 1_556 S
C742 C780 1.389 . S
C743 C742 1.443 . S
C743 C744 1.340 . S
C743 H783 0.951 . S
C744 C743 1.340 . S
C744 C745 1.439 1_556 S
C744 H784 0.950 . S
C745 C744 1.439 1_554 S
C745 N746 1.374 . S
C745 C779 1.395 . S
N746 C742 1.376 1_554 S
N746 C745 1.374 . S
N746 Co747 2.008 . S
Co747 N746 2.008 . S
Co747 N748 1.995 . S
Co747 N753 2.008 . S
Co747 N758 1.995 . S
Co747 N763 2.282 . S
Co747 N769 2.282 . S
N748 Co747 1.995 . S
N748 C749 1.376 . S
N748 C752 1.383 . S
C749 N748 1.376 . S
C749 C750 1.446 . S
C749 C779 1.391 . S
C750 C749 1.446 . S
C750 C751 1.339 . S
C750 H785 0.949 . S
C751 C750 1.339 . S
C751 C752 1.439 . S
C751 H786 0.950 . S
C752 N748 1.383 . S
C752 C751 1.439 . S
C752 C781 1.392 . S
N753 Co747 2.008 . S
N753 C754 1.376 . S
N753 C757 1.374 . S
C754 N753 1.376 . S
C754 C755 1.443 . S
C754 C781 1.389 . S
C755 C754 1.443 . S
C755 C756 1.340 . S
C755 H787 0.951 . S
C756 C755 1.340 . S
C756 C757 1.439 . S
C756 H788 0.950 . S
C757 N753 1.374 . S
C757 C756 1.439 . S
C757 C782 1.395 . S
N758 Co747 1.995 . S
N758 C759 1.376 . S
N758 C762 1.383 1_554 S
C759 N758 1.376 . S
C759 C760 1.446 1_554 S
C759 C782 1.391 . S
C760 C759 1.446 1_556 S
C760 C761 1.339 . S
C760 H789 0.949 . S
C761 C760 1.339 . S
C761 C762 1.439 . S
C761 H790 0.950 . S
C762 N758 1.383 1_556 S
C762 C761 1.439 . S
C762 C780 1.392 . S
N763 Co747 2.282 . S
N763 C766 1.332 . S
N763 C768 1.332 . S
C764 C765 1.386 . S
C764 C767 1.388 . S
C765 C764 1.386 . S
C765 C766 1.382 . S
C765 H791 0.950 . S
C766 N763 1.332 . S
C766 C765 1.382 . S
C766 H777 0.952 . S
C767 C764 1.388 . S
C767 C768 1.382 . S
C767 H792 0.950 . S
C768 N763 1.332 . S
C768 C767 1.382 . S
C768 H778 0.948 . S
N769 Co747 2.282 . S
N769 C773 1.332 . S
N769 C774 1.332 . S
C770 C771 1.388 . S
C770 C774 1.382 . S
C770 H793 0.950 1_554 S
C771 C770 1.388 . S
C771 C772 1.386 . S
C772 C771 1.386 . S
C772 C773 1.382 . S
C772 H794 0.950 . S
C773 N769 1.332 . S
C773 C772 1.382 . S
C773 H775 0.952 . S
C774 N769 1.332 . S
C774 C770 1.382 . S
C774 H776 0.948 . S
H775 C773 0.952 . S
H776 C774 0.948 . S
H777 C766 0.952 . S
H778 C768 0.948 . S
C779 C745 1.395 . S
C779 C749 1.391 . S
C780 C742 1.389 . S
C780 C762 1.392 . S
C781 C752 1.392 . S
C781 C754 1.389 . S
C782 C757 1.395 . S
C782 C759 1.391 . S
H783 C743 0.951 . S
H784 C744 0.950 . S
H785 C750 0.949 . S
H786 C751 0.950 . S
H787 C755 0.951 . S
H788 C756 0.950 . S
H789 C760 0.949 . S
H790 C761 0.950 . S
H791 C765 0.950 . S
H792 C767 0.950 . S
H793 C770 0.950 1_556 S
H794 C772 0.950 . S
C795 C796 1.443 . S
C795 N799 1.376 . S
C795 C833 1.389 . S
C796 C795 1.443 . S
C796 C797 1.340 . S
C796 H836 0.951 . S
C797 C796 1.340 . S
C797 C798 1.439 . S
C797 H837 0.950 . S
C798 C797 1.439 . S
C798 N799 1.374 . S
C798 C832 1.395 . S
N799 C795 1.376 . S
N799 C798 1.374 . S
N799 Co800 2.008 . S
Co800 N799 2.008 . S
Co800 N801 1.995 . S
Co800 N806 2.008 . S
Co800 N811 1.995 . S
Co800 N816 2.282 . S
Co800 N822 2.282 . S
N801 Co800 1.995 . S
N801 C802 1.376 . S
N801 C805 1.383 . S
C802 N801 1.376 . S
C802 C803 1.446 . S
C802 C832 1.391 . S
C803 C802 1.446 . S
C803 C804 1.339 . S
C803 H838 0.949 . S
C804 C803 1.339 . S
C804 C805 1.439 . S
C804 H839 0.950 . S
C805 N801 1.383 . S
C805 C804 1.439 . S
C805 C834 1.392 . S
N806 Co800 2.008 . S
N806 C807 1.376 . S
N806 C810 1.374 . S
C807 N806 1.376 . S
C807 C808 1.443 . S
C807 C834 1.389 . S
C808 C807 1.443 . S
C808 C809 1.340 . S
C808 H840 0.951 . S
C809 C808 1.340 . S
C809 C810 1.439 . S
C809 H841 0.950 . S
C810 N806 1.374 . S
C810 C809 1.439 . S
C810 C835 1.395 . S
N811 Co800 1.995 . S
N811 C812 1.376 . S
N811 C815 1.383 . S
C812 N811 1.376 . S
C812 C813 1.446 . S
C812 C835 1.391 . S
C813 C812 1.446 . S
C813 C814 1.339 . S
C813 H842 0.949 . S
C814 C813 1.339 . S
C814 C815 1.439 . S
C814 H843 0.950 . S
C815 N811 1.383 . S
C815 C814 1.439 . S
C815 C833 1.392 . S
N816 Co800 2.282 . S
N816 C819 1.332 . S
N816 C821 1.332 . S
C817 C818 1.386 . S
C817 C820 1.388 . S
C818 C817 1.386 . S
C818 C819 1.382 . S
C818 H844 0.950 . S
C819 N816 1.332 . S
C819 C818 1.382 . S
C819 H830 0.952 . S
C820 C817 1.388 . S
C820 C821 1.382 . S
C820 H845 0.950 . S
C821 N816 1.332 . S
C821 C820 1.382 . S
C821 H831 0.948 . S
N822 Co800 2.282 . S
N822 C826 1.332 . S
N822 C827 1.332 . S
C823 C824 1.388 . S
C823 C827 1.382 . S
C823 H846 0.950 . S
C824 C823 1.388 . S
C824 C825 1.386 . S
C825 C824 1.386 . S
C825 C826 1.382 . S
C825 H847 0.950 . S
C826 N822 1.332 . S
C826 C825 1.382 . S
C826 H828 0.952 . S
C827 N822 1.332 . S
C827 C823 1.382 . S
C827 H829 0.948 . S
H828 C826 0.952 . S
H829 C827 0.948 . S
H830 C819 0.952 . S
H831 C821 0.948 . S
C832 C798 1.395 . S
C832 C802 1.391 . S
C833 C795 1.389 . S
C833 C815 1.392 . S
C834 C805 1.392 . S
C834 C807 1.389 . S
C835 C810 1.395 . S
C835 C812 1.391 . S
H836 C796 0.951 . S
H837 C797 0.950 . S
H838 C803 0.949 . S
H839 C804 0.950 . S
H840 C808 0.951 . S
H841 C809 0.950 . S
H842 C813 0.949 . S
H843 C814 0.950 . S
H844 C818 0.950 . S
H845 C820 0.950 . S
H846 C823 0.950 . S
H847 C825 0.950 . S
C848 C849 1.443 . S
C848 N852 1.376 . S
C848 C886 1.389 . S
C849 C848 1.443 . S
C849 C850 1.340 . S
C849 H889 0.951 . S
C850 C849 1.340 . S
C850 C851 1.439 . S
C850 H890 0.950 . S
C851 C850 1.439 . S
C851 N852 1.374 . S
C851 C885 1.395 . S
N852 C848 1.376 . S
N852 C851 1.374 . S
N852 Co853 2.008 . S
Co853 N852 2.008 . S
Co853 N854 1.995 . S
Co853 N859 2.008 . S
Co853 N864 1.995 . S
Co853 N869 2.282 . S
Co853 N875 2.282 . S
N854 Co853 1.995 . S
N854 C855 1.376 . S
N854 C858 1.383 . S
C855 N854 1.376 . S
C855 C856 1.446 . S
C855 C885 1.391 . S
C856 C855 1.446 . S
C856 C857 1.339 . S
C856 H891 0.949 . S
C857 C856 1.339 . S
C857 C858 1.439 . S
C857 H892 0.950 . S
C858 N854 1.383 . S
C858 C857 1.439 . S
C858 C887 1.392 . S
N859 Co853 2.008 . S
N859 C860 1.376 . S
N859 C863 1.374 . S
C860 N859 1.376 . S
C860 C861 1.443 . S
C860 C887 1.389 . S
C861 C860 1.443 . S
C861 C862 1.340 . S
C861 H893 0.951 . S
C862 C861 1.340 . S
C862 C863 1.439 . S
C862 H894 0.950 . S
C863 N859 1.374 . S
C863 C862 1.439 . S
C863 C888 1.395 . S
N864 Co853 1.995 . S
N864 C865 1.376 . S
N864 C868 1.383 . S
C865 N864 1.376 . S
C865 C866 1.446 . S
C865 C888 1.391 . S
C866 C865 1.446 . S
C866 C867 1.339 . S
C866 H895 0.949 . S
C867 C866 1.339 . S
C867 C868 1.439 . S
C867 H896 0.950 . S
C868 N864 1.383 . S
C868 C867 1.439 . S
C868 C886 1.392 . S
N869 Co853 2.282 . S
N869 C872 1.332 . S
N869 C874 1.332 . S
C870 C871 1.386 . S
C870 C873 1.388 . S
C871 C870 1.386 . S
C871 C872 1.382 . S
C871 H897 0.950 . S
C872 N869 1.332 . S
C872 C871 1.382 . S
C872 H883 0.952 . S
C873 C870 1.388 . S
C873 C874 1.382 . S
C873 H898 0.950 . S
C874 N869 1.332 . S
C874 C873 1.382 . S
C874 H884 0.948 . S
N875 Co853 2.282 . S
N875 C879 1.332 . S
N875 C880 1.332 . S
C876 C877 1.388 . S
C876 C880 1.382 . S
C876 H899 0.950 . S
C877 C876 1.388 . S
C877 C878 1.386 . S
C878 C877 1.386 . S
C878 C879 1.382 . S
C878 H900 0.950 . S
C879 N875 1.332 . S
C879 C878 1.382 . S
C879 H881 0.952 . S
C880 N875 1.332 . S
C880 C876 1.382 . S
C880 H882 0.948 . S
H881 C879 0.952 . S
H882 C880 0.948 . S
H883 C872 0.952 . S
H884 C874 0.948 . S
C885 C851 1.395 . S
C885 C855 1.391 . S
C886 C848 1.389 . S
C886 C868 1.392 . S
C887 C858 1.392 . S
C887 C860 1.389 . S
C888 C863 1.395 . S
C888 C865 1.391 . S
H889 C849 0.951 . S
H890 C850 0.950 . S
H891 C856 0.949 . S
H892 C857 0.950 . S
H893 C861 0.951 . S
H894 C862 0.950 . S
H895 C866 0.949 . S
H896 C867 0.950 . S
H897 C871 0.950 . S
H898 C873 0.950 . S
H899 C876 0.950 . S
H900 C878 0.950 . S
C901 C902 1.443 . S
C901 N905 1.376 . S
C901 C939 1.389 . S
C902 C901 1.443 . S
C902 C903 1.340 . S
C902 H942 0.951 . S
C903 C902 1.340 . S
C903 C904 1.439 . S
C903 H943 0.950 . S
C904 C903 1.439 . S
C904 N905 1.374 . S
C904 C938 1.395 . S
N905 C901 1.376 . S
N905 C904 1.374 . S
N905 Co906 2.008 . S
Co906 N905 2.008 . S
Co906 N907 1.995 . S
Co906 N912 2.008 . S
Co906 N917 1.995 . S
Co906 N922 2.282 . S
Co906 N928 2.282 . S
N907 Co906 1.995 . S
N907 C908 1.376 . S
N907 C911 1.383 . S
C908 N907 1.376 . S
C908 C909 1.446 . S
C908 C938 1.391 . S
C909 C908 1.446 . S
C909 C910 1.339 . S
C909 H944 0.949 . S
C910 C909 1.339 . S
C910 C911 1.439 . S
C910 H945 0.950 . S
C911 N907 1.383 . S
C911 C910 1.439 . S
C911 C940 1.392 . S
N912 Co906 2.008 . S
N912 C913 1.376 . S
N912 C916 1.374 . S
C913 N912 1.376 . S
C913 C914 1.443 . S
C913 C940 1.389 . S
C914 C913 1.443 . S
C914 C915 1.340 . S
C914 H946 0.951 . S
C915 C914 1.340 . S
C915 C916 1.439 . S
C915 H947 0.950 . S
C916 N912 1.374 . S
C916 C915 1.439 . S
C916 C941 1.395 . S
N917 Co906 1.995 . S
N917 C918 1.376 . S
N917 C921 1.383 . S
C918 N917 1.376 . S
C918 C919 1.446 . S
C918 C941 1.391 . S
C919 C918 1.446 . S
C919 C920 1.339 . S
C919 H948 0.949 . S
C920 C919 1.339 . S
C920 C921 1.439 . S
C920 H949 0.950 . S
C921 N917 1.383 . S
C921 C920 1.439 . S
C921 C939 1.392 . S
N922 Co906 2.282 . S
N922 C925 1.332 . S
N922 C927 1.332 . S
C923 C924 1.386 . S
C923 C926 1.388 . S
C924 C923 1.386 . S
C924 C925 1.382 . S
C924 H950 0.950 . S
C925 N922 1.332 . S
C925 C924 1.382 . S
C925 H936 0.952 . S
C926 C923 1.388 . S
C926 C927 1.382 . S
C926 H951 0.950 . S
C927 N922 1.332 . S
C927 C926 1.382 . S
C927 H937 0.948 . S
N928 Co906 2.282 . S
N928 C932 1.332 . S
N928 C933 1.332 . S
C929 C930 1.388 . S
C929 C933 1.382 . S
C929 H952 0.950 . S
C930 C929 1.388 . S
C930 C931 1.386 . S
C931 C930 1.386 . S
C931 C932 1.382 . S
C931 H953 0.950 . S
C932 N928 1.332 . S
C932 C931 1.382 . S
C932 H934 0.952 . S
C933 N928 1.332 . S
C933 C929 1.382 . S
C933 H935 0.948 . S
H934 C932 0.952 . S
H935 C933 0.948 . S
H936 C925 0.952 . S
H937 C927 0.948 . S
C938 C904 1.395 . S
C938 C908 1.391 . S
C939 C901 1.389 . S
C939 C921 1.392 . S
C940 C911 1.392 . S
C940 C913 1.389 . S
C941 C916 1.395 . S
C941 C918 1.391 . S
H942 C902 0.951 . S
H943 C903 0.950 . S
H944 C909 0.949 . S
H945 C910 0.950 . S
H946 C914 0.951 . S
H947 C915 0.950 . S
H948 C919 0.949 . S
H949 C920 0.950 . S
H950 C924 0.950 . S
H951 C926 0.950 . S
H952 C929 0.950 . S
H953 C931 0.950 . S
C954 C955 1.443 . S
C954 N958 1.376 1_556 S
C954 C992 1.389 1_455 S
C955 C954 1.443 . S
C955 C956 1.340 . S
C955 H995 0.951 . S
C956 C955 1.340 . S
C956 C957 1.439 1_556 S
C956 H996 0.950 . S
C957 C956 1.439 1_554 S
C957 N958 1.374 . S
C957 C991 1.395 . S
N958 C954 1.376 1_554 S
N958 C957 1.374 . S
N958 Co959 2.008 1_455 S
Co959 N958 2.008 1_655 S
Co959 N960 1.995 1_655 S
Co959 N965 2.008 . S
Co959 N970 1.995 . S
Co959 N975 2.282 . S
Co959 N981 2.282 1_655 S
N960 Co959 1.995 1_455 S
N960 C961 1.376 . S
N960 C964 1.383 . S
C961 N960 1.376 . S
C961 C962 1.446 . S
C961 C991 1.391 . S
C962 C961 1.446 . S
C962 C963 1.339 . S
C962 H997 0.949 . S
C963 C962 1.339 . S
C963 C964 1.439 . S
C963 H998 0.950 . S
C964 N960 1.383 . S
C964 C963 1.439 . S
C964 C993 1.392 1_455 S
N965 Co959 2.008 . S
N965 C966 1.376 . S
N965 C969 1.374 . S
C966 N965 1.376 . S
C966 C967 1.443 . S
C966 C993 1.389 . S
C967 C966 1.443 . S
C967 C968 1.340 . S
C967 H999 0.951 . S
C968 C967 1.340 . S
C968 C969 1.439 . S
C968 H1000 0.950 . S
C969 N965 1.374 . S
C969 C968 1.439 . S
C969 C994 1.395 . S
N970 Co959 1.995 . S
N970 C971 1.376 . S
N970 C974 1.383 1_554 S
C971 N970 1.376 . S
C971 C972 1.446 1_554 S
C971 C994 1.391 . S
C972 C971 1.446 1_556 S
C972 C973 1.339 . S
C972 H1001 0.949 . S
C973 C972 1.339 . S
C973 C974 1.439 . S
C973 H1002 0.950 . S
C974 N970 1.383 1_556 S
C974 C973 1.439 . S
C974 C992 1.392 . S
N975 Co959 2.282 . S
N975 C978 1.332 . S
N975 C980 1.332 . S
C976 C977 1.386 . S
C976 C979 1.388 . S
C977 C976 1.386 . S
C977 C978 1.382 . S
C977 H1003 0.950 . S
C978 N975 1.332 . S
C978 C977 1.382 . S
C978 H989 0.952 . S
C979 C976 1.388 . S
C979 C980 1.382 . S
C979 H1004 0.950 . S
C980 N975 1.332 . S
C980 C979 1.382 . S
C980 H990 0.926 1_655 S
N981 Co959 2.282 1_455 S
N981 C985 1.332 . S
N981 C986 1.332 1_455 S
C982 C983 1.317 1_655 S
C982 C986 1.412 . S
C982 H1005 0.994 1_554 S
C983 C982 1.317 1_455 S
C983 C984 1.386 . S
C984 C983 1.386 . S
C984 C985 1.382 . S
C984 H1006 0.950 . S
C985 N981 1.332 . S
C985 C984 1.382 . S
C985 H987 0.952 . S
C986 N981 1.332 1_655 S
C986 C982 1.412 . S
C986 H988 0.948 . S
H987 C985 0.952 . S
H988 C986 0.948 . S
H989 C978 0.952 . S
H990 C980 0.926 1_455 S
C991 C957 1.395 . S
C991 C961 1.391 . S
C992 C954 1.389 1_655 S
C992 C974 1.392 . S
C993 C964 1.392 1_655 S
C993 C966 1.389 . S
C994 C969 1.395 . S
C994 C971 1.391 . S
H995 C955 0.951 . S
H996 C956 0.950 . S
H997 C962 0.949 . S
H998 C963 0.950 . S
H999 C967 0.951 . S
H1000 C968 0.950 . S
H1001 C972 0.949 . S
H1002 C973 0.950 . S
H1003 C977 0.950 . S
H1004 C979 0.950 . S
H1005 C982 0.994 1_556 S
H1006 C984 0.950 . S
C1007 C1008 1.443 . S
C1007 N1011 1.376 . S
C1007 C1045 1.389 . S
C1008 C1007 1.443 . S
C1008 C1009 1.340 . S
C1008 H1048 0.951 . S
C1009 C1008 1.340 . S
C1009 C1010 1.439 . S
C1009 H1049 0.950 . S
C1010 C1009 1.439 . S
C1010 N1011 1.374 . S
C1010 C1044 1.395 . S
N1011 C1007 1.376 . S
N1011 C1010 1.374 . S
N1011 Co1012 2.008 . S
Co1012 N1011 2.008 . S
Co1012 N1013 1.995 . S
Co1012 N1018 2.008 . S
Co1012 N1023 1.995 . S
Co1012 N1028 2.282 . S
Co1012 N1034 2.282 . S
N1013 Co1012 1.995 . S
N1013 C1014 1.376 . S
N1013 C1017 1.383 . S
C1014 N1013 1.376 . S
C1014 C1015 1.446 . S
C1014 C1044 1.391 . S
C1015 C1014 1.446 . S
C1015 C1016 1.339 . S
C1015 H1050 0.949 . S
C1016 C1015 1.339 . S
C1016 C1017 1.439 . S
C1016 H1051 0.950 . S
C1017 N1013 1.383 . S
C1017 C1016 1.439 . S
C1017 C1046 1.392 . S
N1018 Co1012 2.008 . S
N1018 C1019 1.376 . S
N1018 C1022 1.374 . S
C1019 N1018 1.376 . S
C1019 C1020 1.443 . S
C1019 C1046 1.389 . S
C1020 C1019 1.443 . S
C1020 C1021 1.340 . S
C1020 H1052 0.951 . S
C1021 C1020 1.340 . S
C1021 C1022 1.439 . S
C1021 H1053 0.950 . S
C1022 N1018 1.374 . S
C1022 C1021 1.439 . S
C1022 C1047 1.395 . S
N1023 Co1012 1.995 . S
N1023 C1024 1.376 . S
N1023 C1027 1.383 . S
C1024 N1023 1.376 . S
C1024 C1025 1.446 . S
C1024 C1047 1.391 . S
C1025 C1024 1.446 . S
C1025 C1026 1.339 . S
C1025 H1054 0.949 . S
C1026 C1025 1.339 . S
C1026 C1027 1.439 . S
C1026 H1055 0.950 . S
C1027 N1023 1.383 . S
C1027 C1026 1.439 . S
C1027 C1045 1.392 . S
N1028 Co1012 2.282 . S
N1028 C1031 1.332 . S
N1028 C1033 1.332 . S
C1029 C1030 1.386 . S
C1029 C1032 1.388 . S
C1030 C1029 1.386 . S
C1030 C1031 1.382 . S
C1030 H1056 0.950 . S
C1031 N1028 1.332 . S
C1031 C1030 1.382 . S
C1031 H1042 0.952 . S
C1032 C1029 1.388 . S
C1032 C1033 1.382 . S
C1032 H1057 0.950 . S
C1033 N1028 1.332 . S
C1033 C1032 1.382 . S
C1033 H1043 0.948 . S
N1034 Co1012 2.282 . S
N1034 C1038 1.332 . S
N1034 C1039 1.332 . S
C1035 C1036 1.388 . S
C1035 C1039 1.382 . S
C1035 H1058 0.950 . S
C1036 C1035 1.388 . S
C1036 C1037 1.386 . S
C1037 C1036 1.386 . S
C1037 C1038 1.382 . S
C1037 H1059 0.950 . S
C1038 N1034 1.332 . S
C1038 C1037 1.382 . S
C1038 H1040 0.952 . S
C1039 N1034 1.332 . S
C1039 C1035 1.382 . S
C1039 H1041 0.948 . S
H1040 C1038 0.952 . S
H1041 C1039 0.948 . S
H1042 C1031 0.952 . S
H1043 C1033 0.948 . S
C1044 C1010 1.395 . S
C1044 C1014 1.391 . S
C1045 C1007 1.389 . S
C1045 C1027 1.392 . S
C1046 C1017 1.392 . S
C1046 C1019 1.389 . S
C1047 C1022 1.395 . S
C1047 C1024 1.391 . S
H1048 C1008 0.951 . S
H1049 C1009 0.950 . S
H1050 C1015 0.949 . S
H1051 C1016 0.950 . S
H1052 C1020 0.951 . S
H1053 C1021 0.950 . S
H1054 C1025 0.949 . S
H1055 C1026 0.950 . S
H1056 C1030 0.950 . S
H1057 C1032 0.950 . S
H1058 C1035 0.950 . S
H1059 C1037 0.950 . S
C1060 C1061 1.443 . S
C1060 N1064 1.376 1_554 S
C1060 C1098 1.389 . S
C1061 C1060 1.443 . S
C1061 C1062 1.340 . S
C1061 H1101 0.951 . S
C1062 C1061 1.340 . S
C1062 C1063 1.439 1_554 S
C1062 H1102 0.950 . S
C1063 C1062 1.439 1_556 S
C1063 N1064 1.374 . S
C1063 C1097 1.395 . S
N1064 C1060 1.376 1_556 S
N1064 C1063 1.374 . S
N1064 Co1065 2.008 . S
Co1065 N1064 2.008 . S
Co1065 N1066 1.995 . S
Co1065 N1071 2.008 . S
Co1065 N1076 1.995 . S
Co1065 N1081 2.282 . S
Co1065 N1087 2.282 . S
N1066 Co1065 1.995 . S
N1066 C1067 1.376 . S
N1066 C1070 1.383 . S
C1067 N1066 1.376 . S
C1067 C1068 1.446 . S
C1067 C1097 1.391 . S
C1068 C1067 1.446 . S
C1068 C1069 1.339 . S
C1068 H1103 0.949 . S
C1069 C1068 1.339 . S
C1069 C1070 1.439 . S
C1069 H1104 0.950 . S
C1070 N1066 1.383 . S
C1070 C1069 1.439 . S
C1070 C1099 1.392 . S
N1071 Co1065 2.008 . S
N1071 C1072 1.376 . S
N1071 C1075 1.374 . S
C1072 N1071 1.376 . S
C1072 C1073 1.443 . S
C1072 C1099 1.389 . S
C1073 C1072 1.443 . S
C1073 C1074 1.340 . S
C1073 H1105 0.951 . S
C1074 C1073 1.340 . S
C1074 C1075 1.439 . S
C1074 H1106 0.950 . S
C1075 N1071 1.374 . S
C1075 C1074 1.439 . S
C1075 C1100 1.395 . S
N1076 Co1065 1.995 . S
N1076 C1077 1.376 . S
N1076 C1080 1.383 1_556 S
C1077 N1076 1.376 . S
C1077 C1078 1.446 1_556 S
C1077 C1100 1.391 . S
C1078 C1077 1.446 1_554 S
C1078 C1079 1.339 . S
C1078 H1107 0.949 . S
C1079 C1078 1.339 . S
C1079 C1080 1.439 . S
C1079 H1108 0.950 . S
C1080 N1076 1.383 1_554 S
C1080 C1079 1.439 . S
C1080 C1098 1.392 . S
N1081 Co1065 2.282 . S
N1081 C1084 1.332 . S
N1081 C1086 1.332 . S
C1082 C1083 1.386 . S
C1082 C1085 1.388 . S
C1083 C1082 1.386 . S
C1083 C1084 1.382 . S
C1083 H1109 0.950 . S
C1084 N1081 1.332 . S
C1084 C1083 1.382 . S
C1084 H1095 0.952 . S
C1085 C1082 1.388 . S
C1085 C1086 1.382 . S
C1085 H1110 0.950 . S
C1086 N1081 1.332 . S
C1086 C1085 1.382 . S
C1086 H1096 0.948 . S
N1087 Co1065 2.282 . S
N1087 C1091 1.332 . S
N1087 C1092 1.332 . S
C1088 C1089 1.388 . S
C1088 C1092 1.382 . S
C1088 H1111 0.950 1_556 S
C1089 C1088 1.388 . S
C1089 C1090 1.386 . S
C1090 C1089 1.386 . S
C1090 C1091 1.382 . S
C1090 H1112 0.950 . S
C1091 N1087 1.332 . S
C1091 C1090 1.382 . S
C1091 H1093 0.952 . S
C1092 N1087 1.332 . S
C1092 C1088 1.382 . S
C1092 H1094 0.948 . S
H1093 C1091 0.952 . S
H1094 C1092 0.948 . S
H1095 C1084 0.952 . S
H1096 C1086 0.948 . S
C1097 C1063 1.395 . S
C1097 C1067 1.391 . S
C1098 C1060 1.389 . S
C1098 C1080 1.392 . S
C1099 C1070 1.392 . S
C1099 C1072 1.389 . S
C1100 C1075 1.395 . S
C1100 C1077 1.391 . S
H1101 C1061 0.951 . S
H1102 C1062 0.950 . S
H1103 C1068 0.949 . S
H1104 C1069 0.950 . S
H1105 C1073 0.951 . S
H1106 C1074 0.950 . S
H1107 C1078 0.949 . S
H1108 C1079 0.950 . S
H1109 C1083 0.950 . S
H1110 C1085 0.950 . S
H1111 C1088 0.950 1_554 S
H1112 C1090 0.950 . S
C1113 C1114 1.443 . S
C1113 N1117 1.376 . S
C1113 C1151 1.389 . S
C1114 C1113 1.443 . S
C1114 C1115 1.340 . S
C1114 H1154 0.951 . S
C1115 C1114 1.340 . S
C1115 C1116 1.439 . S
C1115 H1155 0.950 . S
C1116 C1115 1.439 . S
C1116 N1117 1.374 . S
C1116 C1150 1.395 . S
N1117 C1113 1.376 . S
N1117 C1116 1.374 . S
N1117 Co1118 2.008 . S
Co1118 N1117 2.008 . S
Co1118 N1119 1.995 . S
Co1118 N1124 2.008 . S
Co1118 N1129 1.995 . S
Co1118 N1134 2.282 . S
Co1118 N1140 2.282 . S
N1119 Co1118 1.995 . S
N1119 C1120 1.376 . S
N1119 C1123 1.383 . S
C1120 N1119 1.376 . S
C1120 C1121 1.446 . S
C1120 C1150 1.391 . S
C1121 C1120 1.446 . S
C1121 C1122 1.339 . S
C1121 H1156 0.949 . S
C1122 C1121 1.339 . S
C1122 C1123 1.439 . S
C1122 H1157 0.950 . S
C1123 N1119 1.383 . S
C1123 C1122 1.439 . S
C1123 C1152 1.392 . S
N1124 Co1118 2.008 . S
N1124 C1125 1.376 . S
N1124 C1128 1.374 . S
C1125 N1124 1.376 . S
C1125 C1126 1.443 . S
C1125 C1152 1.389 . S
C1126 C1125 1.443 . S
C1126 C1127 1.340 . S
C1126 H1158 0.951 . S
C1127 C1126 1.340 . S
C1127 C1128 1.439 . S
C1127 H1159 0.950 . S
C1128 N1124 1.374 . S
C1128 C1127 1.439 . S
C1128 C1153 1.395 . S
N1129 Co1118 1.995 . S
N1129 C1130 1.376 . S
N1129 C1133 1.383 . S
C1130 N1129 1.376 . S
C1130 C1131 1.446 . S
C1130 C1153 1.391 . S
C1131 C1130 1.446 . S
C1131 C1132 1.339 . S
C1131 H1160 0.949 . S
C1132 C1131 1.339 . S
C1132 C1133 1.439 . S
C1132 H1161 0.950 . S
C1133 N1129 1.383 . S
C1133 C1132 1.439 . S
C1133 C1151 1.392 . S
N1134 Co1118 2.282 . S
N1134 C1137 1.332 . S
N1134 C1139 1.332 . S
C1135 C1136 1.386 . S
C1135 C1138 1.388 . S
C1136 C1135 1.386 . S
C1136 C1137 1.382 . S
C1136 H1162 0.950 . S
C1137 N1134 1.332 . S
C1137 C1136 1.382 . S
C1137 H1148 0.952 . S
C1138 C1135 1.388 . S
C1138 C1139 1.382 . S
C1138 H1163 0.950 . S
C1139 N1134 1.332 . S
C1139 C1138 1.382 . S
C1139 H1149 0.948 . S
N1140 Co1118 2.282 . S
N1140 C1144 1.332 . S
N1140 C1145 1.332 . S
C1141 C1142 1.388 . S
C1141 C1145 1.382 . S
C1141 H1164 0.950 . S
C1142 C1141 1.388 . S
C1142 C1143 1.386 . S
C1143 C1142 1.386 . S
C1143 C1144 1.382 . S
C1143 H1165 0.950 . S
C1144 N1140 1.332 . S
C1144 C1143 1.382 . S
C1144 H1146 0.952 . S
C1145 N1140 1.332 . S
C1145 C1141 1.382 . S
C1145 H1147 0.948 . S
H1146 C1144 0.952 . S
H1147 C1145 0.948 . S
H1148 C1137 0.952 . S
H1149 C1139 0.948 . S
C1150 C1116 1.395 . S
C1150 C1120 1.391 . S
C1151 C1113 1.389 . S
C1151 C1133 1.392 . S
C1152 C1123 1.392 . S
C1152 C1125 1.389 . S
C1153 C1128 1.395 . S
C1153 C1130 1.391 . S
H1154 C1114 0.951 . S
H1155 C1115 0.950 . S
H1156 C1121 0.949 . S
H1157 C1122 0.950 . S
H1158 C1126 0.951 . S
H1159 C1127 0.950 . S
H1160 C1131 0.949 . S
H1161 C1132 0.950 . S
H1162 C1136 0.950 . S
H1163 C1138 0.950 . S
H1164 C1141 0.950 . S
H1165 C1143 0.950 . S
C1166 C1167 1.443 . S
C1166 N1170 1.376 . S
C1166 C1204 1.389 1_455 S
C1167 C1166 1.443 . S
C1167 C1168 1.340 . S
C1167 H1207 0.951 . S
C1168 C1167 1.340 . S
C1168 C1169 1.439 . S
C1168 H1208 0.950 . S
C1169 C1168 1.439 . S
C1169 N1170 1.374 . S
C1169 C1203 1.395 . S
N1170 C1166 1.376 . S
N1170 C1169 1.374 . S
N1170 Co1171 2.008 1_455 S
Co1171 N1170 2.008 1_655 S
Co1171 N1172 1.995 1_655 S
Co1171 N1177 2.008 . S
Co1171 N1182 1.995 . S
Co1171 N1187 2.282 . S
Co1171 N1193 2.282 1_655 S
N1172 Co1171 1.995 1_455 S
N1172 C1173 1.376 . S
N1172 C1176 1.383 . S
C1173 N1172 1.376 . S
C1173 C1174 1.446 . S
C1173 C1203 1.391 . S
C1174 C1173 1.446 . S
C1174 C1175 1.339 . S
C1174 H1209 0.949 . S
C1175 C1174 1.339 . S
C1175 C1176 1.439 . S
C1175 H1210 0.950 . S
C1176 N1172 1.383 . S
C1176 C1175 1.439 . S
C1176 C1205 1.392 1_455 S
N1177 Co1171 2.008 . S
N1177 C1178 1.376 . S
N1177 C1181 1.374 . S
C1178 N1177 1.376 . S
C1178 C1179 1.443 . S
C1178 C1205 1.389 . S
C1179 C1178 1.443 . S
C1179 C1180 1.340 . S
C1179 H1211 0.951 . S
C1180 C1179 1.340 . S
C1180 C1181 1.439 . S
C1180 H1212 0.950 . S
C1181 N1177 1.374 . S
C1181 C1180 1.439 . S
C1181 C1206 1.395 . S
N1182 Co1171 1.995 . S
N1182 C1183 1.376 . S
N1182 C1186 1.383 . S
C1183 N1182 1.376 . S
C1183 C1184 1.446 . S
C1183 C1206 1.391 . S
C1184 C1183 1.446 . S
C1184 C1185 1.339 . S
C1184 H1213 0.949 . S
C1185 C1184 1.339 . S
C1185 C1186 1.439 . S
C1185 H1214 0.950 . S
C1186 N1182 1.383 . S
C1186 C1185 1.439 . S
C1186 C1204 1.392 . S
N1187 Co1171 2.282 . S
N1187 C1190 1.332 . S
N1187 C1192 1.332 . S
C1188 C1189 1.386 . S
C1188 C1191 1.388 . S
C1189 C1188 1.386 . S
C1189 C1190 1.382 . S
C1189 H1215 0.950 . S
C1190 N1187 1.332 . S
C1190 C1189 1.382 . S
C1190 H1201 0.952 . S
C1191 C1188 1.388 . S
C1191 C1192 1.382 . S
C1191 H1216 0.950 . S
C1192 N1187 1.332 . S
C1192 C1191 1.382 . S
C1192 H1202 0.926 1_655 S
N1193 Co1171 2.282 1_455 S
N1193 C1197 1.332 . S
N1193 C1198 1.332 1_455 S
C1194 C1195 1.317 1_655 S
C1194 C1198 1.412 . S
C1194 H1217 0.994 . S
C1195 C1194 1.317 1_455 S
C1195 C1196 1.386 . S
C1196 C1195 1.386 . S
C1196 C1197 1.382 . S
C1196 H1218 0.950 . S
C1197 N1193 1.332 . S
C1197 C1196 1.382 . S
C1197 H1199 0.952 . S
C1198 N1193 1.332 1_655 S
C1198 C1194 1.412 . S
C1198 H1200 0.948 . S
H1199 C1197 0.952 . S
H1200 C1198 0.948 . S
H1201 C1190 0.952 . S
H1202 C1192 0.926 1_455 S
C1203 C1169 1.395 . S
C1203 C1173 1.391 . S
C1204 C1166 1.389 1_655 S
C1204 C1186 1.392 . S
C1205 C1176 1.392 1_655 S
C1205 C1178 1.389 . S
C1206 C1181 1.395 . S
C1206 C1183 1.391 . S
H1207 C1167 0.951 . S
H1208 C1168 0.950 . S
H1209 C1174 0.949 . S
H1210 C1175 0.950 . S
H1211 C1179 0.951 . S
H1212 C1180 0.950 . S
H1213 C1184 0.949 . S
H1214 C1185 0.950 . S
H1215 C1189 0.950 . S
H1216 C1191 0.950 . S
H1217 C1194 0.994 . S
H1218 C1196 0.950 . S
C1219 C1220 1.443 . S
C1219 N1223 1.376 . S
C1219 C1257 1.389 . S
C1220 C1219 1.443 . S
C1220 C1221 1.340 . S
C1220 H1260 0.951 . S
C1221 C1220 1.340 . S
C1221 C1222 1.439 . S
C1221 H1261 0.950 . S
C1222 C1221 1.439 . S
C1222 N1223 1.374 . S
C1222 C1256 1.395 . S
N1223 C1219 1.376 . S
N1223 C1222 1.374 . S
N1223 Co1224 2.008 . S
Co1224 N1223 2.008 . S
Co1224 N1225 1.995 . S
Co1224 N1230 2.008 . S
Co1224 N1235 1.995 . S
Co1224 N1240 2.282 . S
Co1224 N1246 2.282 . S
N1225 Co1224 1.995 . S
N1225 C1226 1.376 . S
N1225 C1229 1.383 . S
C1226 N1225 1.376 . S
C1226 C1227 1.446 . S
C1226 C1256 1.391 . S
C1227 C1226 1.446 . S
C1227 C1228 1.339 . S
C1227 H1262 0.949 . S
C1228 C1227 1.339 . S
C1228 C1229 1.439 . S
C1228 H1263 0.950 . S
C1229 N1225 1.383 . S
C1229 C1228 1.439 . S
C1229 C1258 1.392 . S
N1230 Co1224 2.008 . S
N1230 C1231 1.376 . S
N1230 C1234 1.374 . S
C1231 N1230 1.376 . S
C1231 C1232 1.443 . S
C1231 C1258 1.389 . S
C1232 C1231 1.443 . S
C1232 C1233 1.340 . S
C1232 H1264 0.951 . S
C1233 C1232 1.340 . S
C1233 C1234 1.439 . S
C1233 H1265 0.950 . S
C1234 N1230 1.374 . S
C1234 C1233 1.439 . S
C1234 C1259 1.395 . S
N1235 Co1224 1.995 . S
N1235 C1236 1.376 . S
N1235 C1239 1.383 . S
C1236 N1235 1.376 . S
C1236 C1237 1.446 . S
C1236 C1259 1.391 . S
C1237 C1236 1.446 . S
C1237 C1238 1.339 . S
C1237 H1266 0.949 . S
C1238 C1237 1.339 . S
C1238 C1239 1.439 . S
C1238 H1267 0.950 . S
C1239 N1235 1.383 . S
C1239 C1238 1.439 . S
C1239 C1257 1.392 . S
N1240 Co1224 2.282 . S
N1240 C1243 1.332 . S
N1240 C1245 1.332 . S
C1241 C1242 1.386 . S
C1241 C1244 1.388 . S
C1242 C1241 1.386 . S
C1242 C1243 1.382 . S
C1242 H1268 0.950 . S
C1243 N1240 1.332 . S
C1243 C1242 1.382 . S
C1243 H1254 0.952 . S
C1244 C1241 1.388 . S
C1244 C1245 1.382 . S
C1244 H1269 0.950 . S
C1245 N1240 1.332 . S
C1245 C1244 1.382 . S
C1245 H1255 0.948 . S
N1246 Co1224 2.282 . S
N1246 C1250 1.332 . S
N1246 C1251 1.332 . S
C1247 C1248 1.388 . S
C1247 C1251 1.382 . S
C1247 H1270 0.950 . S
C1248 C1247 1.388 . S
C1248 C1249 1.386 . S
C1249 C1248 1.386 . S
C1249 C1250 1.382 . S
C1249 H1271 0.950 . S
C1250 N1246 1.332 . S
C1250 C1249 1.382 . S
C1250 H1252 0.952 . S
C1251 N1246 1.332 . S
C1251 C1247 1.382 . S
C1251 H1253 0.948 . S
H1252 C1250 0.952 . S
H1253 C1251 0.948 . S
H1254 C1243 0.952 . S
H1255 C1245 0.948 . S
C1256 C1222 1.395 . S
C1256 C1226 1.391 . S
C1257 C1219 1.389 . S
C1257 C1239 1.392 . S
C1258 C1229 1.392 . S
C1258 C1231 1.389 . S
C1259 C1234 1.395 . S
C1259 C1236 1.391 . S
H1260 C1220 0.951 . S
H1261 C1221 0.950 . S
H1262 C1227 0.949 . S
H1263 C1228 0.950 . S
H1264 C1232 0.951 . S
H1265 C1233 0.950 . S
H1266 C1237 0.949 . S
H1267 C1238 0.950 . S
H1268 C1242 0.950 . S
H1269 C1244 0.950 . S
H1270 C1247 0.950 . S
H1271 C1249 0.950 . S
C1272 C1273 1.443 . S
C1272 N1276 1.376 . S
C1272 C1310 1.389 . S
C1273 C1272 1.443 . S
C1273 C1274 1.340 . S
C1273 H1313 0.951 . S
C1274 C1273 1.340 . S
C1274 C1275 1.439 . S
C1274 H1314 0.950 . S
C1275 C1274 1.439 . S
C1275 N1276 1.374 . S
C1275 C1309 1.395 . S
N1276 C1272 1.376 . S
N1276 C1275 1.374 . S
N1276 Co1277 2.008 . S
Co1277 N1276 2.008 . S
Co1277 N1278 1.995 . S
Co1277 N1283 2.008 . S
Co1277 N1288 1.995 . S
Co1277 N1293 2.282 . S
Co1277 N1299 2.282 . S
N1278 Co1277 1.995 . S
N1278 C1279 1.376 . S
N1278 C1282 1.383 . S
C1279 N1278 1.376 . S
C1279 C1280 1.446 . S
C1279 C1309 1.391 . S
C1280 C1279 1.446 . S
C1280 C1281 1.339 . S
C1280 H1315 0.949 . S
C1281 C1280 1.339 . S
C1281 C1282 1.439 . S
C1281 H1316 0.950 . S
C1282 N1278 1.383 . S
C1282 C1281 1.439 . S
C1282 C1311 1.392 . S
N1283 Co1277 2.008 . S
N1283 C1284 1.376 . S
N1283 C1287 1.374 . S
C1284 N1283 1.376 . S
C1284 C1285 1.443 . S
C1284 C1311 1.389 . S
C1285 C1284 1.443 . S
C1285 C1286 1.340 . S
C1285 H1317 0.951 . S
C1286 C1285 1.340 . S
C1286 C1287 1.439 . S
C1286 H1318 0.950 . S
C1287 N1283 1.374 . S
C1287 C1286 1.439 . S
C1287 C1312 1.395 . S
N1288 Co1277 1.995 . S
N1288 C1289 1.376 . S
N1288 C1292 1.383 . S
C1289 N1288 1.376 . S
C1289 C1290 1.446 . S
C1289 C1312 1.391 . S
C1290 C1289 1.446 . S
C1290 C1291 1.339 . S
C1290 H1319 0.949 . S
C1291 C1290 1.339 . S
C1291 C1292 1.439 . S
C1291 H1320 0.950 . S
C1292 N1288 1.383 . S
C1292 C1291 1.439 . S
C1292 C1310 1.392 . S
N1293 Co1277 2.282 . S
N1293 C1296 1.332 . S
N1293 C1298 1.332 . S
C1294 C1295 1.386 . S
C1294 C1297 1.388 . S
C1295 C1294 1.386 . S
C1295 C1296 1.382 . S
C1295 H1321 0.950 . S
C1296 N1293 1.332 . S
C1296 C1295 1.382 . S
C1296 H1307 0.952 . S
C1297 C1294 1.388 . S
C1297 C1298 1.382 . S
C1297 H1322 0.950 . S
C1298 N1293 1.332 . S
C1298 C1297 1.382 . S
C1298 H1308 0.948 . S
N1299 Co1277 2.282 . S
N1299 C1303 1.332 . S
N1299 C1304 1.332 . S
C1300 C1301 1.388 . S
C1300 C1304 1.382 . S
C1300 H1323 0.950 . S
C1301 C1300 1.388 . S
C1301 C1302 1.386 . S
C1302 C1301 1.386 . S
C1302 C1303 1.382 . S
C1302 H1324 0.950 . S
C1303 N1299 1.332 . S
C1303 C1302 1.382 . S
C1303 H1305 0.952 . S
C1304 N1299 1.332 . S
C1304 C1300 1.382 . S
C1304 H1306 0.948 . S
H1305 C1303 0.952 . S
H1306 C1304 0.948 . S
H1307 C1296 0.952 . S
H1308 C1298 0.948 . S
C1309 C1275 1.395 . S
C1309 C1279 1.391 . S
C1310 C1272 1.389 . S
C1310 C1292 1.392 . S
C1311 C1282 1.392 . S
C1311 C1284 1.389 . S
C1312 C1287 1.395 . S
C1312 C1289 1.391 . S
H1313 C1273 0.951 . S
H1314 C1274 0.950 . S
H1315 C1280 0.949 . S
H1316 C1281 0.950 . S
H1317 C1285 0.951 . S
H1318 C1286 0.950 . S
H1319 C1290 0.949 . S
H1320 C1291 0.950 . S
H1321 C1295 0.950 . S
H1322 C1297 0.950 . S
H1323 C1300 0.950 . S
H1324 C1302 0.950 . S
C1325 C1326 1.443 . S
C1325 N1329 1.376 . S
C1325 C1363 1.389 . S
C1326 C1325 1.443 . S
C1326 C1327 1.340 . S
C1326 H1366 0.951 . S
C1327 C1326 1.340 . S
C1327 C1328 1.439 . S
C1327 H1367 0.950 . S
C1328 C1327 1.439 . S
C1328 N1329 1.374 . S
C1328 C1362 1.395 . S
N1329 C1325 1.376 . S
N1329 C1328 1.374 . S
N1329 Co1330 2.008 . S
Co1330 N1329 2.008 . S
Co1330 N1331 1.995 . S
Co1330 N1336 2.008 . S
Co1330 N1341 1.995 . S
Co1330 N1346 2.282 . S
Co1330 N1352 2.282 . S
N1331 Co1330 1.995 . S
N1331 C1332 1.376 . S
N1331 C1335 1.383 . S
C1332 N1331 1.376 . S
C1332 C1333 1.446 . S
C1332 C1362 1.391 . S
C1333 C1332 1.446 . S
C1333 C1334 1.339 . S
C1333 H1368 0.949 . S
C1334 C1333 1.339 . S
C1334 C1335 1.439 . S
C1334 H1369 0.950 . S
C1335 N1331 1.383 . S
C1335 C1334 1.439 . S
C1335 C1364 1.392 . S
N1336 Co1330 2.008 . S
N1336 C1337 1.376 . S
N1336 C1340 1.374 . S
C1337 N1336 1.376 . S
C1337 C1338 1.443 . S
C1337 C1364 1.389 . S
C1338 C1337 1.443 . S
C1338 C1339 1.340 . S
C1338 H1370 0.951 . S
C1339 C1338 1.340 . S
C1339 C1340 1.439 . S
C1339 H1371 0.950 . S
C1340 N1336 1.374 . S
C1340 C1339 1.439 . S
C1340 C1365 1.395 . S
N1341 Co1330 1.995 . S
N1341 C1342 1.376 . S
N1341 C1345 1.383 . S
C1342 N1341 1.376 . S
C1342 C1343 1.446 . S
C1342 C1365 1.391 . S
C1343 C1342 1.446 . S
C1343 C1344 1.339 . S
C1343 H1372 0.949 . S
C1344 C1343 1.339 . S
C1344 C1345 1.439 . S
C1344 H1373 0.950 . S
C1345 N1341 1.383 . S
C1345 C1344 1.439 . S
C1345 C1363 1.392 . S
N1346 Co1330 2.282 . S
N1346 C1349 1.332 . S
N1346 C1351 1.332 . S
C1347 C1348 1.386 . S
C1347 C1350 1.388 . S
C1348 C1347 1.386 . S
C1348 C1349 1.382 . S
C1348 H1374 0.950 . S
C1349 N1346 1.332 . S
C1349 C1348 1.382 . S
C1349 H1360 0.952 . S
C1350 C1347 1.388 . S
C1350 C1351 1.382 . S
C1350 H1375 0.950 . S
C1351 N1346 1.332 . S
C1351 C1350 1.382 . S
C1351 H1361 0.948 . S
N1352 Co1330 2.282 . S
N1352 C1356 1.332 . S
N1352 C1357 1.332 . S
C1353 C1354 1.388 . S
C1353 C1357 1.382 . S
C1353 H1376 0.950 . S
C1354 C1353 1.388 . S
C1354 C1355 1.386 . S
C1355 C1354 1.386 . S
C1355 C1356 1.382 . S
C1355 H1377 0.950 . S
C1356 N1352 1.332 . S
C1356 C1355 1.382 . S
C1356 H1358 0.952 . S
C1357 N1352 1.332 . S
C1357 C1353 1.382 . S
C1357 H1359 0.948 . S
H1358 C1356 0.952 . S
H1359 C1357 0.948 . S
H1360 C1349 0.952 . S
H1361 C1351 0.948 . S
C1362 C1328 1.395 . S
C1362 C1332 1.391 . S
C1363 C1325 1.389 . S
C1363 C1345 1.392 . S
C1364 C1335 1.392 . S
C1364 C1337 1.389 . S
C1365 C1340 1.395 . S
C1365 C1342 1.391 . S
H1366 C1326 0.951 . S
H1367 C1327 0.950 . S
H1368 C1333 0.949 . S
H1369 C1334 0.950 . S
H1370 C1338 0.951 . S
H1371 C1339 0.950 . S
H1372 C1343 0.949 . S
H1373 C1344 0.950 . S
H1374 C1348 0.950 . S
H1375 C1350 0.950 . S
H1376 C1353 0.950 . S
H1377 C1355 0.950 . S
C1378 C1379 1.443 . S
C1378 N1382 1.376 1_554 S
C1378 C1416 1.389 . S
C1379 C1378 1.443 . S
C1379 C1380 1.340 . S
C1379 H1419 0.951 . S
C1380 C1379 1.340 . S
C1380 C1381 1.439 1_554 S
C1380 H1420 0.950 . S
C1381 C1380 1.439 1_556 S
C1381 N1382 1.374 . S
C1381 C1415 1.395 . S
N1382 C1378 1.376 1_556 S
N1382 C1381 1.374 . S
N1382 Co1383 2.008 . S
Co1383 N1382 2.008 . S
Co1383 N1384 1.995 . S
Co1383 N1389 2.008 1_455 S
Co1383 N1394 1.995 1_455 S
Co1383 N1399 2.282 . S
Co1383 N1405 2.282 1_455 S
N1384 Co1383 1.995 . S
N1384 C1385 1.376 . S
N1384 C1388 1.383 . S
C1385 N1384 1.376 . S
C1385 C1386 1.446 . S
C1385 C1415 1.391 . S
C1386 C1385 1.446 . S
C1386 C1387 1.339 . S
C1386 H1421 0.949 . S
C1387 C1386 1.339 . S
C1387 C1388 1.439 . S
C1387 H1422 0.950 . S
C1388 N1384 1.383 . S
C1388 C1387 1.439 . S
C1388 C1417 1.392 . S
N1389 Co1383 2.008 1_655 S
N1389 C1390 1.376 . S
N1389 C1393 1.374 . S
C1390 N1389 1.376 . S
C1390 C1391 1.443 . S
C1390 C1417 1.389 1_655 S
C1391 C1390 1.443 . S
C1391 C1392 1.340 . S
C1391 H1423 0.951 . S
C1392 C1391 1.340 . S
C1392 C1393 1.439 . S
C1392 H1424 0.950 . S
C1393 N1389 1.374 . S
C1393 C1392 1.439 . S
C1393 C1418 1.395 . S
N1394 Co1383 1.995 1_655 S
N1394 C1395 1.376 . S
N1394 C1398 1.383 1_556 S
C1395 N1394 1.376 . S
C1395 C1396 1.446 1_556 S
C1395 C1418 1.391 . S
C1396 C1395 1.446 1_554 S
C1396 C1397 1.339 . S
C1396 H1425 0.949 . S
C1397 C1396 1.339 . S
C1397 C1398 1.439 . S
C1397 H1426 0.950 . S
C1398 N1394 1.383 1_554 S
C1398 C1397 1.439 . S
C1398 C1416 1.392 1_655 S
N1399 Co1383 2.282 . S
N1399 C1402 1.332 . S
N1399 C1404 1.332 . S
C1400 C1401 1.386 . S
C1400 C1403 1.388 . S
C1401 C1400 1.386 . S
C1401 C1402 1.382 . S
C1401 H1427 0.950 . S
C1402 N1399 1.332 . S
C1402 C1401 1.382 . S
C1402 H1413 0.952 . S
C1403 C1400 1.388 . S
C1403 C1404 1.382 . S
C1403 H1428 0.950 . S
C1404 N1399 1.332 . S
C1404 C1403 1.382 . S
C1404 H1414 0.948 . S
N1405 Co1383 2.282 1_655 S
N1405 C1409 1.332 1_655 S
N1405 C1410 1.332 . S
C1406 C1407 1.388 . S
C1406 C1410 1.382 . S
C1406 H1429 0.950 1_556 S
C1407 C1406 1.388 . S
C1407 C1408 1.417 . S
C1408 C1407 1.417 . S
C1408 C1409 1.370 1_655 S
C1408 H1430 0.931 1_655 S
C1409 N1405 1.332 1_455 S
C1409 C1408 1.370 1_455 S
C1409 H1411 0.952 . S
C1410 N1405 1.332 . S
C1410 C1406 1.382 . S
C1410 H1412 0.948 . S
H1411 C1409 0.952 . S
H1412 C1410 0.948 . S
H1413 C1402 0.952 . S
H1414 C1404 0.948 . S
C1415 C1381 1.395 . S
C1415 C1385 1.391 . S
C1416 C1378 1.389 . S
C1416 C1398 1.392 1_455 S
C1417 C1388 1.392 . S
C1417 C1390 1.389 1_455 S
C1418 C1393 1.395 . S
C1418 C1395 1.391 . S
H1419 C1379 0.951 . S
H1420 C1380 0.950 . S
H1421 C1386 0.949 . S
H1422 C1387 0.950 . S
H1423 C1391 0.951 . S
H1424 C1392 0.950 . S
H1425 C1396 0.949 . S
H1426 C1397 0.950 . S
H1427 C1401 0.950 . S
H1428 C1403 0.950 . S
H1429 C1406 0.950 1_554 S
H1430 C1408 0.931 1_455 S
C1431 C1432 1.443 . S
C1431 N1435 1.376 . S
C1431 C1469 1.389 . S
C1432 C1431 1.443 . S
C1432 C1433 1.340 . S
C1432 H1472 0.951 . S
C1433 C1432 1.340 . S
C1433 C1434 1.439 . S
C1433 H1473 0.950 . S
C1434 C1433 1.439 . S
C1434 N1435 1.374 . S
C1434 C1468 1.395 . S
N1435 C1431 1.376 . S
N1435 C1434 1.374 . S
N1435 Co1436 2.008 . S
Co1436 N1435 2.008 . S
Co1436 N1437 1.995 . S
Co1436 N1442 2.008 . S
Co1436 N1447 1.995 . S
Co1436 N1452 2.282 . S
Co1436 N1458 2.282 . S
N1437 Co1436 1.995 . S
N1437 C1438 1.376 . S
N1437 C1441 1.383 . S
C1438 N1437 1.376 . S
C1438 C1439 1.446 . S
C1438 C1468 1.391 . S
C1439 C1438 1.446 . S
C1439 C1440 1.339 . S
C1439 H1474 0.949 . S
C1440 C1439 1.339 . S
C1440 C1441 1.439 . S
C1440 H1475 0.950 . S
C1441 N1437 1.383 . S
C1441 C1440 1.439 . S
C1441 C1470 1.392 . S
N1442 Co1436 2.008 . S
N1442 C1443 1.376 . S
N1442 C1446 1.374 . S
C1443 N1442 1.376 . S
C1443 C1444 1.443 . S
C1443 C1470 1.389 . S
C1444 C1443 1.443 . S
C1444 C1445 1.340 . S
C1444 H1476 0.951 . S
C1445 C1444 1.340 . S
C1445 C1446 1.439 . S
C1445 H1477 0.950 . S
C1446 N1442 1.374 . S
C1446 C1445 1.439 . S
C1446 C1471 1.395 . S
N1447 Co1436 1.995 . S
N1447 C1448 1.376 . S
N1447 C1451 1.383 . S
C1448 N1447 1.376 . S
C1448 C1449 1.446 . S
C1448 C1471 1.391 . S
C1449 C1448 1.446 . S
C1449 C1450 1.339 . S
C1449 H1478 0.949 . S
C1450 C1449 1.339 . S
C1450 C1451 1.439 . S
C1450 H1479 0.950 . S
C1451 N1447 1.383 . S
C1451 C1450 1.439 . S
C1451 C1469 1.392 . S
N1452 Co1436 2.282 . S
N1452 C1455 1.332 . S
N1452 C1457 1.332 . S
C1453 C1454 1.386 . S
C1453 C1456 1.388 . S
C1454 C1453 1.386 . S
C1454 C1455 1.382 . S
C1454 H1480 0.950 . S
C1455 N1452 1.332 . S
C1455 C1454 1.382 . S
C1455 H1466 0.952 . S
C1456 C1453 1.388 . S
C1456 C1457 1.382 . S
C1456 H1481 0.950 . S
C1457 N1452 1.332 . S
C1457 C1456 1.382 . S
C1457 H1467 0.948 . S
N1458 Co1436 2.282 . S
N1458 C1462 1.332 . S
N1458 C1463 1.332 . S
C1459 C1460 1.388 . S
C1459 C1463 1.382 . S
C1459 H1482 0.950 . S
C1460 C1459 1.388 . S
C1460 C1461 1.386 . S
C1461 C1460 1.386 . S
C1461 C1462 1.382 . S
C1461 H1483 0.950 . S
C1462 N1458 1.332 . S
C1462 C1461 1.382 . S
C1462 H1464 0.952 . S
C1463 N1458 1.332 . S
C1463 C1459 1.382 . S
C1463 H1465 0.948 . S
H1464 C1462 0.952 . S
H1465 C1463 0.948 . S
H1466 C1455 0.952 . S
H1467 C1457 0.948 . S
C1468 C1434 1.395 . S
C1468 C1438 1.391 . S
C1469 C1431 1.389 . S
C1469 C1451 1.392 . S
C1470 C1441 1.392 . S
C1470 C1443 1.389 . S
C1471 C1446 1.395 . S
C1471 C1448 1.391 . S
H1472 C1432 0.951 . S
H1473 C1433 0.950 . S
H1474 C1439 0.949 . S
H1475 C1440 0.950 . S
H1476 C1444 0.951 . S
H1477 C1445 0.950 . S
H1478 C1449 0.949 . S
H1479 C1450 0.950 . S
H1480 C1454 0.950 . S
H1481 C1456 0.950 . S
H1482 C1459 0.950 . S
H1483 C1461 0.950 . S
C1484 C1485 1.443 . S
C1484 N1488 1.376 1_556 S
C1484 C1522 1.389 . S
C1485 C1484 1.443 . S
C1485 C1486 1.340 . S
C1485 H1525 0.951 . S
C1486 C1485 1.340 . S
C1486 C1487 1.439 1_556 S
C1486 H1526 0.950 . S
C1487 C1486 1.439 1_554 S
C1487 N1488 1.374 . S
C1487 C1521 1.395 . S
N1488 C1484 1.376 1_554 S
N1488 C1487 1.374 . S
N1488 Co1489 2.008 . S
Co1489 N1488 2.008 . S
Co1489 N1490 1.995 . S
Co1489 N1495 2.008 . S
Co1489 N1500 1.995 . S
Co1489 N1505 2.282 . S
Co1489 N1511 2.282 . S
N1490 Co1489 1.995 . S
N1490 C1491 1.376 . S
N1490 C1494 1.383 . S
C1491 N1490 1.376 . S
C1491 C1492 1.446 . S
C1491 C1521 1.391 . S
C1492 C1491 1.446 . S
C1492 C1493 1.339 . S
C1492 H1527 0.949 . S
C1493 C1492 1.339 . S
C1493 C1494 1.439 . S
C1493 H1528 0.950 . S
C1494 N1490 1.383 . S
C1494 C1493 1.439 . S
C1494 C1523 1.392 . S
N1495 Co1489 2.008 . S
N1495 C1496 1.376 . S
N1495 C1499 1.374 . S
C1496 N1495 1.376 . S
C1496 C1497 1.443 . S
C1496 C1523 1.389 . S
C1497 C1496 1.443 . S
C1497 C1498 1.340 . S
C1497 H1529 0.951 . S
C1498 C1497 1.340 . S
C1498 C1499 1.439 . S
C1498 H1530 0.950 . S
C1499 N1495 1.374 . S
C1499 C1498 1.439 . S
C1499 C1524 1.395 . S
N1500 Co1489 1.995 . S
N1500 C1501 1.376 . S
N1500 C1504 1.383 1_554 S
C1501 N1500 1.376 . S
C1501 C1502 1.446 1_554 S
C1501 C1524 1.391 . S
C1502 C1501 1.446 1_556 S
C1502 C1503 1.339 . S
C1502 H1531 0.949 . S
C1503 C1502 1.339 . S
C1503 C1504 1.439 . S
C1503 H1532 0.950 . S
C1504 N1500 1.383 1_556 S
C1504 C1503 1.439 . S
C1504 C1522 1.392 . S
N1505 Co1489 2.282 . S
N1505 C1508 1.332 . S
N1505 C1510 1.332 . S
C1506 C1507 1.386 . S
C1506 C1509 1.388 . S
C1507 C1506 1.386 . S
C1507 C1508 1.382 . S
C1507 H1533 0.950 . S
C1508 N1505 1.332 . S
C1508 C1507 1.382 . S
C1508 H1519 0.952 . S
C1509 C1506 1.388 . S
C1509 C1510 1.382 . S
C1509 H1534 0.950 . S
C1510 N1505 1.332 . S
C1510 C1509 1.382 . S
C1510 H1520 0.948 . S
N1511 Co1489 2.282 . S
N1511 C1515 1.332 . S
N1511 C1516 1.332 . S
C1512 C1513 1.388 . S
C1512 C1516 1.382 . S
C1512 H1535 0.950 1_554 S
C1513 C1512 1.388 . S
C1513 C1514 1.386 . S
C1514 C1513 1.386 . S
C1514 C1515 1.382 . S
C1514 H1536 0.950 . S
C1515 N1511 1.332 . S
C1515 C1514 1.382 . S
C1515 H1517 0.952 . S
C1516 N1511 1.332 . S
C1516 C1512 1.382 . S
C1516 H1518 0.948 . S
H1517 C1515 0.952 . S
H1518 C1516 0.948 . S
H1519 C1508 0.952 . S
H1520 C1510 0.948 . S
C1521 C1487 1.395 . S
C1521 C1491 1.391 . S
C1522 C1484 1.389 . S
C1522 C1504 1.392 . S
C1523 C1494 1.392 . S
C1523 C1496 1.389 . S
C1524 C1499 1.395 . S
C1524 C1501 1.391 . S
H1525 C1485 0.951 . S
H1526 C1486 0.950 . S
H1527 C1492 0.949 . S
H1528 C1493 0.950 . S
H1529 C1497 0.951 . S
H1530 C1498 0.950 . S
H1531 C1502 0.949 . S
H1532 C1503 0.950 . S
H1533 C1507 0.950 . S
H1534 C1509 0.950 . S
H1535 C1512 0.950 1_556 S
H1536 C1514 0.950 . S
C1537 C1538 1.443 . S
C1537 N1541 1.376 . S
C1537 C1575 1.389 . S
C1538 C1537 1.443 . S
C1538 C1539 1.340 . S
C1538 H1578 0.951 . S
C1539 C1538 1.340 . S
C1539 C1540 1.439 . S
C1539 H1579 0.950 . S
C1540 C1539 1.439 . S
C1540 N1541 1.374 . S
C1540 C1574 1.395 . S
N1541 C1537 1.376 . S
N1541 C1540 1.374 . S
N1541 Co1542 2.008 . S
Co1542 N1541 2.008 . S
Co1542 N1543 1.995 . S
Co1542 N1548 2.008 . S
Co1542 N1553 1.995 . S
Co1542 N1558 2.282 . S
Co1542 N1564 2.282 . S
N1543 Co1542 1.995 . S
N1543 C1544 1.376 . S
N1543 C1547 1.383 . S
C1544 N1543 1.376 . S
C1544 C1545 1.446 . S
C1544 C1574 1.391 . S
C1545 C1544 1.446 . S
C1545 C1546 1.339 . S
C1545 H1580 0.949 . S
C1546 C1545 1.339 . S
C1546 C1547 1.439 . S
C1546 H1581 0.950 . S
C1547 N1543 1.383 . S
C1547 C1546 1.439 . S
C1547 C1576 1.392 . S
N1548 Co1542 2.008 . S
N1548 C1549 1.376 . S
N1548 C1552 1.374 . S
C1549 N1548 1.376 . S
C1549 C1550 1.443 . S
C1549 C1576 1.389 . S
C1550 C1549 1.443 . S
C1550 C1551 1.340 . S
C1550 H1582 0.951 . S
C1551 C1550 1.340 . S
C1551 C1552 1.439 . S
C1551 H1583 0.950 . S
C1552 N1548 1.374 . S
C1552 C1551 1.439 . S
C1552 C1577 1.395 . S
N1553 Co1542 1.995 . S
N1553 C1554 1.376 . S
N1553 C1557 1.383 . S
C1554 N1553 1.376 . S
C1554 C1555 1.446 . S
C1554 C1577 1.391 . S
C1555 C1554 1.446 . S
C1555 C1556 1.339 . S
C1555 H1584 0.949 . S
C1556 C1555 1.339 . S
C1556 C1557 1.439 . S
C1556 H1585 0.950 . S
C1557 N1553 1.383 . S
C1557 C1556 1.439 . S
C1557 C1575 1.392 . S
N1558 Co1542 2.282 . S
N1558 C1561 1.332 . S
N1558 C1563 1.332 . S
C1559 C1560 1.386 . S
C1559 C1562 1.388 . S
C1560 C1559 1.386 . S
C1560 C1561 1.382 . S
C1560 H1586 0.950 . S
C1561 N1558 1.332 . S
C1561 C1560 1.382 . S
C1561 H1572 0.952 . S
C1562 C1559 1.388 . S
C1562 C1563 1.382 . S
C1562 H1587 0.950 . S
C1563 N1558 1.332 . S
C1563 C1562 1.382 . S
C1563 H1573 0.948 . S
N1564 Co1542 2.282 . S
N1564 C1568 1.332 . S
N1564 C1569 1.332 . S
C1565 C1566 1.388 . S
C1565 C1569 1.382 . S
C1565 H1588 0.950 . S
C1566 C1565 1.388 . S
C1566 C1567 1.386 . S
C1567 C1566 1.386 . S
C1567 C1568 1.382 . S
C1567 H1589 0.950 . S
C1568 N1564 1.332 . S
C1568 C1567 1.382 . S
C1568 H1570 0.952 . S
C1569 N1564 1.332 . S
C1569 C1565 1.382 . S
C1569 H1571 0.948 . S
H1570 C1568 0.952 . S
H1571 C1569 0.948 . S
H1572 C1561 0.952 . S
H1573 C1563 0.948 . S
C1574 C1540 1.395 . S
C1574 C1544 1.391 . S
C1575 C1537 1.389 . S
C1575 C1557 1.392 . S
C1576 C1547 1.392 . S
C1576 C1549 1.389 . S
C1577 C1552 1.395 . S
C1577 C1554 1.391 . S
H1578 C1538 0.951 . S
H1579 C1539 0.950 . S
H1580 C1545 0.949 . S
H1581 C1546 0.950 . S
H1582 C1550 0.951 . S
H1583 C1551 0.950 . S
H1584 C1555 0.949 . S
H1585 C1556 0.950 . S
H1586 C1560 0.950 . S
H1587 C1562 0.950 . S
H1588 C1565 0.950 . S
H1589 C1567 0.950 . S
C1590 C1591 1.443 . S
C1590 N1594 1.376 . S
C1590 C1628 1.389 . S
C1591 C1590 1.443 . S
C1591 C1592 1.340 . S
C1591 H1631 0.951 . S
C1592 C1591 1.340 . S
C1592 C1593 1.439 . S
C1592 H1632 0.950 . S
C1593 C1592 1.439 . S
C1593 N1594 1.374 . S
C1593 C1627 1.395 . S
N1594 C1590 1.376 . S
N1594 C1593 1.374 . S
N1594 Co1595 2.008 . S
Co1595 N1594 2.008 . S
Co1595 N1596 1.995 . S
Co1595 N1601 2.008 1_455 S
Co1595 N1606 1.995 1_455 S
Co1595 N1611 2.282 . S
Co1595 N1617 2.282 1_455 S
N1596 Co1595 1.995 . S
N1596 C1597 1.376 . S
N1596 C1600 1.383 . S
C1597 N1596 1.376 . S
C1597 C1598 1.446 . S
C1597 C1627 1.391 . S
C1598 C1597 1.446 . S
C1598 C1599 1.339 . S
C1598 H1633 0.949 . S
C1599 C1598 1.339 . S
C1599 C1600 1.439 . S
C1599 H1634 0.950 . S
C1600 N1596 1.383 . S
C1600 C1599 1.439 . S
C1600 C1629 1.392 . S
N1601 Co1595 2.008 1_655 S
N1601 C1602 1.376 . S
N1601 C1605 1.374 . S
C1602 N1601 1.376 . S
C1602 C1603 1.443 . S
C1602 C1629 1.389 1_655 S
C1603 C1602 1.443 . S
C1603 C1604 1.340 . S
C1603 H1635 0.951 . S
C1604 C1603 1.340 . S
C1604 C1605 1.439 . S
C1604 H1636 0.950 . S
C1605 N1601 1.374 . S
C1605 C1604 1.439 . S
C1605 C1630 1.395 . S
N1606 Co1595 1.995 1_655 S
N1606 C1607 1.376 . S
N1606 C1610 1.383 . S
C1607 N1606 1.376 . S
C1607 C1608 1.446 . S
C1607 C1630 1.391 . S
C1608 C1607 1.446 . S
C1608 C1609 1.339 . S
C1608 H1637 0.949 . S
C1609 C1608 1.339 . S
C1609 C1610 1.439 . S
C1609 H1638 0.950 . S
C1610 N1606 1.383 . S
C1610 C1609 1.439 . S
C1610 C1628 1.392 1_655 S
N1611 Co1595 2.282 . S
N1611 C1614 1.332 . S
N1611 C1616 1.332 . S
C1612 C1613 1.386 . S
C1612 C1615 1.388 . S
C1613 C1612 1.386 . S
C1613 C1614 1.382 . S
C1613 H1639 0.950 . S
C1614 N1611 1.332 . S
C1614 C1613 1.382 . S
C1614 H1625 0.952 . S
C1615 C1612 1.388 . S
C1615 C1616 1.382 . S
C1615 H1640 0.950 . S
C1616 N1611 1.332 . S
C1616 C1615 1.382 . S
C1616 H1626 0.948 . S
N1617 Co1595 2.282 1_655 S
N1617 C1621 1.332 1_655 S
N1617 C1622 1.332 . S
C1618 C1619 1.388 . S
C1618 C1622 1.382 . S
C1618 H1641 0.950 . S
C1619 C1618 1.388 . S
C1619 C1620 1.417 . S
C1620 C1619 1.417 . S
C1620 C1621 1.370 1_655 S
C1620 H1642 0.931 1_655 S
C1621 N1617 1.332 1_455 S
C1621 C1620 1.370 1_455 S
C1621 H1623 0.952 . S
C1622 N1617 1.332 . S
C1622 C1618 1.382 . S
C1622 H1624 0.948 . S
H1623 C1621 0.952 . S
H1624 C1622 0.948 . S
H1625 C1614 0.952 . S
H1626 C1616 0.948 . S
C1627 C1593 1.395 . S
C1627 C1597 1.391 . S
C1628 C1590 1.389 . S
C1628 C1610 1.392 1_455 S
C1629 C1600 1.392 . S
C1629 C1602 1.389 1_455 S
C1630 C1605 1.395 . S
C1630 C1607 1.391 . S
H1631 C1591 0.951 . S
H1632 C1592 0.950 . S
H1633 C1598 0.949 . S
H1634 C1599 0.950 . S
H1635 C1603 0.951 . S
H1636 C1604 0.950 . S
H1637 C1608 0.949 . S
H1638 C1609 0.950 . S
H1639 C1613 0.950 . S
H1640 C1615 0.950 . S
H1641 C1618 0.950 . S
H1642 C1620 0.931 1_455 S
C1643 C1644 1.443 . S
C1643 N1647 1.376 . S
C1643 C1681 1.389 . S
C1644 C1643 1.443 . S
C1644 C1645 1.340 . S
C1644 H1684 0.951 . S
C1645 C1644 1.340 . S
C1645 C1646 1.439 . S
C1645 H1685 0.950 . S
C1646 C1645 1.439 . S
C1646 N1647 1.374 . S
C1646 C1680 1.395 . S
N1647 C1643 1.376 . S
N1647 C1646 1.374 . S
N1647 Co1648 2.008 . S
Co1648 N1647 2.008 . S
Co1648 N1649 1.995 . S
Co1648 N1654 2.008 . S
Co1648 N1659 1.995 . S
Co1648 N1664 2.282 . S
Co1648 N1670 2.282 . S
N1649 Co1648 1.995 . S
N1649 C1650 1.376 . S
N1649 C1653 1.383 . S
C1650 N1649 1.376 . S
C1650 C1651 1.446 . S
C1650 C1680 1.391 . S
C1651 C1650 1.446 . S
C1651 C1652 1.339 . S
C1651 H1686 0.949 . S
C1652 C1651 1.339 . S
C1652 C1653 1.439 . S
C1652 H1687 0.950 . S
C1653 N1649 1.383 . S
C1653 C1652 1.439 . S
C1653 C1682 1.392 . S
N1654 Co1648 2.008 . S
N1654 C1655 1.376 . S
N1654 C1658 1.374 . S
C1655 N1654 1.376 . S
C1655 C1656 1.443 . S
C1655 C1682 1.389 . S
C1656 C1655 1.443 . S
C1656 C1657 1.340 . S
C1656 H1688 0.951 . S
C1657 C1656 1.340 . S
C1657 C1658 1.439 . S
C1657 H1689 0.950 . S
C1658 N1654 1.374 . S
C1658 C1657 1.439 . S
C1658 C1683 1.395 . S
N1659 Co1648 1.995 . S
N1659 C1660 1.376 . S
N1659 C1663 1.383 . S
C1660 N1659 1.376 . S
C1660 C1661 1.446 . S
C1660 C1683 1.391 . S
C1661 C1660 1.446 . S
C1661 C1662 1.339 . S
C1661 H1690 0.949 . S
C1662 C1661 1.339 . S
C1662 C1663 1.439 . S
C1662 H1691 0.950 . S
C1663 N1659 1.383 . S
C1663 C1662 1.439 . S
C1663 C1681 1.392 . S
N1664 Co1648 2.282 . S
N1664 C1667 1.332 . S
N1664 C1669 1.332 . S
C1665 C1666 1.386 . S
C1665 C1668 1.388 . S
C1666 C1665 1.386 . S
C1666 C1667 1.382 . S
C1666 H1692 0.950 . S
C1667 N1664 1.332 . S
C1667 C1666 1.382 . S
C1667 H1678 0.952 . S
C1668 C1665 1.388 . S
C1668 C1669 1.382 . S
C1668 H1693 0.950 . S
C1669 N1664 1.332 . S
C1669 C1668 1.382 . S
C1669 H1679 0.948 . S
N1670 Co1648 2.282 . S
N1670 C1674 1.332 . S
N1670 C1675 1.332 . S
C1671 C1672 1.388 . S
C1671 C1675 1.382 . S
C1671 H1694 0.950 . S
C1672 C1671 1.388 . S
C1672 C1673 1.386 . S
C1673 C1672 1.386 . S
C1673 C1674 1.382 . S
C1673 H1695 0.950 . S
C1674 N1670 1.332 . S
C1674 C1673 1.382 . S
C1674 H1676 0.952 . S
C1675 N1670 1.332 . S
C1675 C1671 1.382 . S
C1675 H1677 0.948 . S
H1676 C1674 0.952 . S
H1677 C1675 0.948 . S
H1678 C1667 0.952 . S
H1679 C1669 0.948 . S
C1680 C1646 1.395 . S
C1680 C1650 1.391 . S
C1681 C1643 1.389 . S
C1681 C1663 1.392 . S
C1682 C1653 1.392 . S
C1682 C1655 1.389 . S
C1683 C1658 1.395 . S
C1683 C1660 1.391 . S
H1684 C1644 0.951 . S
H1685 C1645 0.950 . S
H1686 C1651 0.949 . S
H1687 C1652 0.950 . S
H1688 C1656 0.951 . S
H1689 C1657 0.950 . S
H1690 C1661 0.949 . S
H1691 C1662 0.950 . S
H1692 C1666 0.950 . S
H1693 C1668 0.950 . S
H1694 C1671 0.950 . S
H1695 C1673 0.950 . S
C1696 C1697 1.363 . S
C1696 C1702 1.379 . S
C1696 N1704 1.356 . S
C1697 C1696 1.363 . S
C1697 C1703 1.363 1_655 S
C1698 C1699 1.363 . S
C1698 C1703 1.379 . S
C1698 N1705 1.356 . S
C1699 C1698 1.363 . S
C1699 C1702 1.363 1_455 S
N1700 C1702 1.356 . S
N1700 H1712 0.984 . S
N1700 H1713 0.985 . S
N1701 C1703 1.356 . S
N1701 H1706 0.998 . S
N1701 H1707 0.985 . S
C1702 C1696 1.379 . S
C1702 C1699 1.363 1_655 S
C1702 N1700 1.356 . S
C1703 C1697 1.363 1_455 S
C1703 C1698 1.379 . S
C1703 N1701 1.356 . S
N1704 C1696 1.356 . S
N1704 H1710 0.984 . S
N1704 H1711 0.984 . S
N1705 C1698 1.356 . S
N1705 H1708 0.984 . S
N1705 H1709 0.985 . S
H1706 N1701 0.998 . S
H1707 N1701 0.985 . S
H1708 N1705 0.984 . S
H1709 N1705 0.985 . S
H1710 N1704 0.984 . S
H1711 N1704 0.984 . S
H1712 N1700 0.984 . S
H1713 N1700 0.985 . S
C1714 C1715 1.363 . S
C1714 C1720 1.379 . S
C1714 N1722 1.356 1_554 S
C1715 C1714 1.363 . S
C1715 C1721 1.363 . S
C1716 C1717 1.363 . S
C1716 C1721 1.379 . S
C1716 N1723 1.356 . S
C1717 C1716 1.363 . S
C1717 C1720 1.363 . S
N1718 C1720 1.356 . S
N1718 H1730 0.984 . S
N1718 H1731 0.985 . S
N1719 C1721 1.356 . S
N1719 H1724 0.984 1_554 S
N1719 H1725 0.985 . S
C1720 C1714 1.379 . S
C1720 C1717 1.363 . S
C1720 N1718 1.356 . S
C1721 C1715 1.363 . S
C1721 C1716 1.379 . S
C1721 N1719 1.356 . S
N1722 C1714 1.356 1_556 S
N1722 H1728 0.984 . S
N1722 H1729 0.984 . S
N1723 C1716 1.356 . S
N1723 H1726 0.984 . S
N1723 H1727 0.985 . S
H1724 N1719 0.984 1_556 S
H1725 N1719 0.985 . S
H1726 N1723 0.984 . S
H1727 N1723 0.985 . S
H1728 N1722 0.984 . S
H1729 N1722 0.984 . S
H1730 N1718 0.984 . S
H1731 N1718 0.985 . S
C1732 C1733 1.363 . S
C1732 C1738 1.379 . S
C1732 N1740 1.356 . S
C1733 C1732 1.363 . S
C1733 C1739 1.363 . S
C1734 C1735 1.363 . S
C1734 C1739 1.379 . S
C1734 N1741 1.356 . S
C1735 C1734 1.363 . S
C1735 C1738 1.363 . S
N1736 C1738 1.356 . S
N1736 H1748 0.984 . S
N1736 H1749 0.985 . S
N1737 C1739 1.356 . S
N1737 H1742 0.984 . S
N1737 H1743 0.985 . S
C1738 C1732 1.379 . S
C1738 C1735 1.363 . S
C1738 N1736 1.356 . S
C1739 C1733 1.363 . S
C1739 C1734 1.379 . S
C1739 N1737 1.356 . S
N1740 C1732 1.356 . S
N1740 H1746 0.984 . S
N1740 H1747 0.984 . S
N1741 C1734 1.356 . S
N1741 H1744 0.984 . S
N1741 H1745 0.985 . S
H1742 N1737 0.984 . S
H1743 N1737 0.985 . S
H1744 N1741 0.984 . S
H1745 N1741 0.985 . S
H1746 N1740 0.984 . S
H1747 N1740 0.984 . S
H1748 N1736 0.984 . S
H1749 N1736 0.985 . S
C1750 C1751 1.363 . S
C1750 C1756 1.379 . S
C1750 N1758 1.356 . S
C1751 C1750 1.363 . S
C1751 C1757 1.363 . S
C1752 C1753 1.363 . S
C1752 C1757 1.379 . S
C1752 N1759 1.356 . S
C1753 C1752 1.363 . S
C1753 C1756 1.363 . S
N1754 C1756 1.356 . S
N1754 H1766 0.984 . S
N1754 H1767 0.985 . S
N1755 C1757 1.356 . S
N1755 H1760 0.984 . S
N1755 H1761 0.985 . S
C1756 C1750 1.379 . S
C1756 C1753 1.363 . S
C1756 N1754 1.356 . S
C1757 C1751 1.363 . S
C1757 C1752 1.379 . S
C1757 N1755 1.356 . S
N1758 C1750 1.356 . S
N1758 H1764 0.984 . S
N1758 H1765 0.984 . S
N1759 C1752 1.356 . S
N1759 H1762 0.984 . S
N1759 H1763 0.985 . S
H1760 N1755 0.984 . S
H1761 N1755 0.985 . S
H1762 N1759 0.984 . S
H1763 N1759 0.985 . S
H1764 N1758 0.984 . S
H1765 N1758 0.984 . S
H1766 N1754 0.984 . S
H1767 N1754 0.985 . S
C1768 C1769 1.363 . S
C1768 C1774 1.379 . S
C1768 N1776 1.356 . S
C1769 C1768 1.363 . S
C1769 C1775 1.363 1_655 S
C1770 C1771 1.363 . S
C1770 C1775 1.379 . S
C1770 N1777 1.356 . S
C1771 C1770 1.363 . S
C1771 C1774 1.363 1_455 S
N1772 C1774 1.356 . S
N1772 H1784 0.984 . S
N1772 H1785 0.985 1_655 S
N1773 C1775 1.356 . S
N1773 H1778 0.984 1_455 S
N1773 H1779 0.985 . S
C1774 C1768 1.379 . S
C1774 C1771 1.363 1_655 S
C1774 N1772 1.356 . S
C1775 C1769 1.363 1_455 S
C1775 C1770 1.379 . S
C1775 N1773 1.356 . S
N1776 C1768 1.356 . S
N1776 H1782 0.984 . S
N1776 H1783 0.984 . S
N1777 C1770 1.356 . S
N1777 H1780 0.984 . S
N1777 H1781 0.985 . S
H1778 N1773 0.984 1_655 S
H1779 N1773 0.985 . S
H1780 N1777 0.984 . S
H1781 N1777 0.985 . S
H1782 N1776 0.984 . S
H1783 N1776 0.984 . S
H1784 N1772 0.984 . S
H1785 N1772 0.985 1_455 S
C1786 C1787 1.363 . S
C1786 C1792 1.379 . S
C1786 N1794 1.356 . S
C1787 C1786 1.363 . S
C1787 C1793 1.363 . S
C1788 C1789 1.363 . S
C1788 C1793 1.379 . S
C1788 N1795 1.356 1_556 S
C1789 C1788 1.363 . S
C1789 C1792 1.363 . S
N1790 C1792 1.356 . S
N1790 H1802 0.984 . S
N1790 H1803 0.985 1_556 S
N1791 C1793 1.356 . S
N1791 H1796 0.984 . S
N1791 H1797 0.985 . S
C1792 C1786 1.379 . S
C1792 C1789 1.363 . S
C1792 N1790 1.356 . S
C1793 C1787 1.363 . S
C1793 C1788 1.379 . S
C1793 N1791 1.356 . S
N1794 C1786 1.356 . S
N1794 H1800 0.984 . S
N1794 H1801 0.984 . S
N1795 C1788 1.356 1_554 S
N1795 H1798 0.984 . S
N1795 H1799 0.985 . S
H1796 N1791 0.984 . S
H1797 N1791 0.985 . S
H1798 N1795 0.984 . S
H1799 N1795 0.985 . S
H1800 N1794 0.984 . S
H1801 N1794 0.984 . S
H1802 N1790 0.984 . S
H1803 N1790 0.985 1_554 S
C1804 C1805 1.363 . S
C1804 C1810 1.379 . S
C1804 N1812 1.356 . S
C1805 C1804 1.363 . S
C1805 C1811 1.363 . S
C1806 C1807 1.363 . S
C1806 C1811 1.379 . S
C1806 N1813 1.356 . S
C1807 C1806 1.363 . S
C1807 C1810 1.363 . S
N1808 C1810 1.356 . S
N1808 H1820 0.984 . S
N1808 H1821 0.985 . S
N1809 C1811 1.356 . S
N1809 H1814 0.984 . S
N1809 H1815 0.985 . S
C1810 C1804 1.379 . S
C1810 C1807 1.363 . S
C1810 N1808 1.356 . S
C1811 C1805 1.363 . S
C1811 C1806 1.379 . S
C1811 N1809 1.356 . S
N1812 C1804 1.356 . S
N1812 H1818 0.984 . S
N1812 H1819 0.984 . S
N1813 C1806 1.356 . S
N1813 H1816 0.984 . S
N1813 H1817 0.985 . S
H1814 N1809 0.984 . S
H1815 N1809 0.985 . S
H1816 N1813 0.984 . S
H1817 N1813 0.985 . S
H1818 N1812 0.984 . S
H1819 N1812 0.984 . S
H1820 N1808 0.984 . S
H1821 N1808 0.985 . S
C1822 C1823 1.363 . S
C1822 C1828 1.379 . S
C1822 N1830 1.356 . S
C1823 C1822 1.363 . S
C1823 C1829 1.363 . S
C1824 C1825 1.363 . S
C1824 C1829 1.379 . S
C1824 N1831 1.356 . S
C1825 C1824 1.363 . S
C1825 C1828 1.363 . S
N1826 C1828 1.356 . S
N1826 H1838 0.984 . S
N1826 H1839 0.985 . S
N1827 C1829 1.356 . S
N1827 H1832 0.984 . S
N1827 H1833 0.985 . S
C1828 C1822 1.379 . S
C1828 C1825 1.363 . S
C1828 N1826 1.356 . S
C1829 C1823 1.363 . S
C1829 C1824 1.379 . S
C1829 N1827 1.356 . S
N1830 C1822 1.356 . S
N1830 H1836 0.984 . S
N1830 H1837 0.984 . S
N1831 C1824 1.356 . S
N1831 H1834 0.984 . S
N1831 H1835 0.985 . S
H1832 N1827 0.984 . S
H1833 N1827 0.985 . S
H1834 N1831 0.984 . S
H1835 N1831 0.985 . S
H1836 N1830 0.984 . S
H1837 N1830 0.984 . S
H1838 N1826 0.984 . S
H1839 N1826 0.985 . S
C1840 C1841 1.363 1_655 S
C1840 C1846 1.379 . S
C1840 N1848 1.356 . S
C1841 C1840 1.363 1_455 S
C1841 C1847 1.363 . S
C1842 C1843 1.363 1_455 S
C1842 C1847 1.379 . S
C1842 N1849 1.356 . S
C1843 C1842 1.363 1_655 S
C1843 C1846 1.363 . S
N1844 C1846 1.356 . S
N1844 H1856 0.984 . S
N1844 H1857 0.985 . S
N1845 C1847 1.356 . S
N1845 H1850 0.984 . S
N1845 H1851 0.985 . S
C1846 C1840 1.379 . S
C1846 C1843 1.363 . S
C1846 N1844 1.356 . S
C1847 C1841 1.363 . S
C1847 C1842 1.379 . S
C1847 N1845 1.356 . S
N1848 C1840 1.356 . S
N1848 H1854 0.984 . S
N1848 H1855 0.986 1_655 S
N1849 C1842 1.356 . S
N1849 H1852 0.984 . S
N1849 H1853 0.985 . S
H1850 N1845 0.984 . S
H1851 N1845 0.985 . S
H1852 N1849 0.984 . S
H1853 N1849 0.985 . S
H1854 N1848 0.984 . S
H1855 N1848 0.986 1_455 S
H1856 N1844 0.984 . S
H1857 N1844 0.985 . S
C1858 C1859 1.363 . S
C1858 C1864 1.379 . S
C1858 N1866 1.356 . S
C1859 C1858 1.363 . S
C1859 C1865 1.363 . S
C1860 C1861 1.363 . S
C1860 C1865 1.379 . S
C1860 N1867 1.356 . S
C1861 C1860 1.363 . S
C1861 C1864 1.363 . S
N1862 C1864 1.356 . S
N1862 H1874 0.984 . S
N1862 H1875 0.985 . S
N1863 C1865 1.356 1_554 S
N1863 H1868 0.984 . S
N1863 H1869 0.985 . S
C1864 C1858 1.379 . S
C1864 C1861 1.363 . S
C1864 N1862 1.356 . S
C1865 C1859 1.363 . S
C1865 C1860 1.379 . S
C1865 N1863 1.356 1_556 S
N1866 C1858 1.356 . S
N1866 H1872 0.984 . S
N1866 H1873 0.984 1_556 S
N1867 C1860 1.356 . S
N1867 H1870 0.984 . S
N1867 H1871 0.985 . S
H1868 N1863 0.984 . S
H1869 N1863 0.985 . S
H1870 N1867 0.984 . S
H1871 N1867 0.985 . S
H1872 N1866 0.984 . S
H1873 N1866 0.984 1_554 S
H1874 N1862 0.984 . S
H1875 N1862 0.985 . S
C1876 C1877 1.363 . S
C1876 C1882 1.379 . S
C1876 N1884 1.356 . S
C1877 C1876 1.363 . S
C1877 C1883 1.363 . S
C1878 C1879 1.363 . S
C1878 C1883 1.379 . S
C1878 N1885 1.356 . S
C1879 C1878 1.363 . S
C1879 C1882 1.363 . S
N1880 C1882 1.356 . S
N1880 H1892 0.984 . S
N1880 H1893 0.985 . S
N1881 C1883 1.356 . S
N1881 H1886 0.984 . S
N1881 H1887 0.985 . S
C1882 C1876 1.379 . S
C1882 C1879 1.363 . S
C1882 N1880 1.356 . S
C1883 C1877 1.363 . S
C1883 C1878 1.379 . S
C1883 N1881 1.356 . S
N1884 C1876 1.356 . S
N1884 H1890 0.984 . S
N1884 H1891 0.984 . S
N1885 C1878 1.356 . S
N1885 H1888 0.984 . S
N1885 H1889 0.985 . S
H1886 N1881 0.984 . S
H1887 N1881 0.985 . S
H1888 N1885 0.984 . S
H1889 N1885 0.985 . S
H1890 N1884 0.984 . S
H1891 N1884 0.984 . S
H1892 N1880 0.984 . S
H1893 N1880 0.985 . S
C1894 C1895 1.363 . S
C1894 C1900 1.379 . S
C1894 N1902 1.356 . S
C1895 C1894 1.363 . S
C1895 C1901 1.363 . S
C1896 C1897 1.363 . S
C1896 C1901 1.379 . S
C1896 N1903 1.356 . S
C1897 C1896 1.363 . S
C1897 C1900 1.363 . S
N1898 C1900 1.356 . S
N1898 H1910 0.984 . S
N1898 H1911 0.985 . S
N1899 C1901 1.356 . S
N1899 H1904 0.984 . S
N1899 H1905 0.985 . S
C1900 C1894 1.379 . S
C1900 C1897 1.363 . S
C1900 N1898 1.356 . S
C1901 C1895 1.363 . S
C1901 C1896 1.379 . S
C1901 N1899 1.356 . S
N1902 C1894 1.356 . S
N1902 H1908 0.984 . S
N1902 H1909 0.984 . S
N1903 C1896 1.356 . S
N1903 H1906 0.984 . S
N1903 H1907 0.985 . S
H1904 N1899 0.984 . S
H1905 N1899 0.985 . S
H1906 N1903 0.984 . S
H1907 N1903 0.985 . S
H1908 N1902 0.984 . S
H1909 N1902 0.984 . S
H1910 N1898 0.984 . S
H1911 N1898 0.985 . S
C1912 C1913 1.363 1_455 S
C1912 C1918 1.379 . S
C1912 N1920 1.356 . S
C1913 C1912 1.363 1_655 S
C1913 C1919 1.363 . S
C1914 C1915 1.363 1_655 S
C1914 C1919 1.379 . S
C1914 N1921 1.356 . S
C1915 C1914 1.363 1_455 S
C1915 C1918 1.363 . S
N1916 C1918 1.356 . S
N1916 H1928 0.984 . S
N1916 H1929 0.985 . S
N1917 C1919 1.356 . S
N1917 H1922 0.984 . S
N1917 H1923 0.985 . S
C1918 C1912 1.379 . S
C1918 C1915 1.363 . S
C1918 N1916 1.356 . S
C1919 C1913 1.363 . S
C1919 C1914 1.379 . S
C1919 N1917 1.356 . S
N1920 C1912 1.356 . S
N1920 H1926 0.984 . S
N1920 H1927 0.984 . S
N1921 C1914 1.356 . S
N1921 H1924 1.018 . S
N1921 H1925 0.985 . S
H1922 N1917 0.984 . S
H1923 N1917 0.985 . S
H1924 N1921 1.018 . S
H1925 N1921 0.985 . S
H1926 N1920 0.984 . S
H1927 N1920 0.984 . S
H1928 N1916 0.984 . S
H1929 N1916 0.985 . S
C1930 C1931 1.363 . S
C1930 C1936 1.379 . S
C1930 N1938 1.356 . S
C1931 C1930 1.363 . S
C1931 C1937 1.363 . S
C1932 C1933 1.363 . S
C1932 C1937 1.379 . S
C1932 N1939 1.356 1_554 S
C1933 C1932 1.363 . S
C1933 C1936 1.363 . S
N1934 C1936 1.356 . S
N1934 H1946 0.984 . S
N1934 H1947 0.985 1_554 S
N1935 C1937 1.356 . S
N1935 H1940 0.984 . S
N1935 H1941 0.985 . S
C1936 C1930 1.379 . S
C1936 C1933 1.363 . S
C1936 N1934 1.356 . S
C1937 C1931 1.363 . S
C1937 C1932 1.379 . S
C1937 N1935 1.356 . S
N1938 C1930 1.356 . S
N1938 H1944 0.984 . S
N1938 H1945 0.984 . S
N1939 C1932 1.356 1_556 S
N1939 H1942 0.984 . S
N1939 H1943 0.985 . S
H1940 N1935 0.984 . S
H1941 N1935 0.985 . S
H1942 N1939 0.984 . S
H1943 N1939 0.985 . S
H1944 N1938 0.984 . S
H1945 N1938 0.984 . S
H1946 N1934 0.984 . S
H1947 N1934 0.985 1_556 S
C1948 C1949 1.363 . S
C1948 C1954 1.379 . S
C1948 N1956 1.356 . S
C1949 C1948 1.363 . S
C1949 C1955 1.363 . S
C1950 C1951 1.363 . S
C1950 C1955 1.379 . S
C1950 N1957 1.356 . S
C1951 C1950 1.363 . S
C1951 C1954 1.363 . S
N1952 C1954 1.356 . S
N1952 H1964 0.984 . S
N1952 H1965 0.985 . S
N1953 C1955 1.356 . S
N1953 H1958 0.984 . S
N1953 H1959 0.985 . S
C1954 C1948 1.379 . S
C1954 C1951 1.363 . S
C1954 N1952 1.356 . S
C1955 C1949 1.363 . S
C1955 C1950 1.379 . S
C1955 N1953 1.356 . S
N1956 C1948 1.356 . S
N1956 H1962 0.984 . S
N1956 H1963 0.984 . S
N1957 C1950 1.356 . S
N1957 H1960 0.984 . S
N1957 H1961 0.985 . S
H1958 N1953 0.984 . S
H1959 N1953 0.985 . S
H1960 N1957 0.984 . S
H1961 N1957 0.985 . S
H1962 N1956 0.984 . S
H1963 N1956 0.984 . S
H1964 N1952 0.984 . S
H1965 N1952 0.985 . S
C1966 C1967 1.363 . S
C1966 C1972 1.379 . S
C1966 N1974 1.356 . S
C1967 C1966 1.363 . S
C1967 C1973 1.363 . S
C1968 C1969 1.363 . S
C1968 C1973 1.379 . S
C1968 N1975 1.356 . S
C1969 C1968 1.363 . S
C1969 C1972 1.363 . S
N1970 C1972 1.356 . S
N1970 H1982 0.984 . S
N1970 H1983 0.985 . S
N1971 C1973 1.356 . S
N1971 H1976 0.984 . S
N1971 H1977 0.985 . S
C1972 C1966 1.379 . S
C1972 C1969 1.363 . S
C1972 N1970 1.356 . S
C1973 C1967 1.363 . S
C1973 C1968 1.379 . S
C1973 N1971 1.356 . S
N1974 C1966 1.356 . S
N1974 H1980 0.984 . S
N1974 H1981 0.984 . S
N1975 C1968 1.356 . S
N1975 H1978 0.984 . S
N1975 H1979 0.985 . S
H1976 N1971 0.984 . S
H1977 N1971 0.985 . S
H1978 N1975 0.984 . S
H1979 N1975 0.985 . S
H1980 N1974 0.984 . S
H1981 N1974 0.984 . S
H1982 N1970 0.984 . S
H1983 N1970 0.985 . S
C1984 C1985 1.363 . S
C1984 C1990 1.379 . S
C1984 N1992 1.356 . S
C1985 C1984 1.363 . S
C1985 C1991 1.363 . S
C1986 C1987 1.363 . S
C1986 C1991 1.379 . S
C1986 N1993 1.356 . S
C1987 C1986 1.363 . S
C1987 C1990 1.363 . S
N1988 C1990 1.356 . S
N1988 H2000 0.984 . S
N1988 H2001 0.985 . S
N1989 C1991 1.356 . S
N1989 H1994 0.984 . S
N1989 H1995 0.985 . S
C1990 C1984 1.379 . S
C1990 C1987 1.363 . S
C1990 N1988 1.356 . S
C1991 C1985 1.363 . S
C1991 C1986 1.379 . S
C1991 N1989 1.356 . S
N1992 C1984 1.356 . S
N1992 H1998 0.984 . S
N1992 H1999 0.984 . S
N1993 C1986 1.356 . S
N1993 H1996 0.984 . S
N1993 H1997 0.985 . S
H1994 N1989 0.984 . S
H1995 N1989 0.985 . S
H1996 N1993 0.984 . S
H1997 N1993 0.985 . S
H1998 N1992 0.984 . S
H1999 N1992 0.984 . S
H2000 N1988 0.984 . S
H2001 N1988 0.985 . S
C2002 C2003 1.363 . S
C2002 C2008 1.379 . S
C2002 N2010 1.356 . S
C2003 C2002 1.363 . S
C2003 C2009 1.363 . S
C2004 C2005 1.363 . S
C2004 C2009 1.379 . S
C2004 N2011 1.356 . S
C2005 C2004 1.363 . S
C2005 C2008 1.363 . S
N2006 C2008 1.356 . S
N2006 H2018 0.984 . S
N2006 H2019 0.985 . S
N2007 C2009 1.356 . S
N2007 H2012 0.984 . S
N2007 H2013 0.985 . S
C2008 C2002 1.379 . S
C2008 C2005 1.363 . S
C2008 N2006 1.356 . S
C2009 C2003 1.363 . S
C2009 C2004 1.379 . S
C2009 N2007 1.356 . S
N2010 C2002 1.356 . S
N2010 H2016 0.984 . S
N2010 H2017 0.984 . S
N2011 C2004 1.356 . S
N2011 H2014 0.984 . S
N2011 H2015 0.985 . S
H2012 N2007 0.984 . S
H2013 N2007 0.985 . S
H2014 N2011 0.984 . S
H2015 N2011 0.985 . S
H2016 N2010 0.984 . S
H2017 N2010 0.984 . S
H2018 N2006 0.984 . S
H2019 N2006 0.985 . S
C2020 C2021 1.363 . S
C2020 C2026 1.379 . S
C2020 N2028 1.356 . S
C2021 C2020 1.363 . S
C2021 C2027 1.363 1_455 S
C2022 C2023 1.363 . S
C2022 C2027 1.379 . S
C2022 N2029 1.356 . S
C2023 C2022 1.363 . S
C2023 C2026 1.363 1_655 S
N2024 C2026 1.356 . S
N2024 H2036 0.984 . S
N2024 H2037 0.985 . S
N2025 C2027 1.356 . S
N2025 H2030 0.982 . S
N2025 H2031 0.985 . S
C2026 C2020 1.379 . S
C2026 C2023 1.363 1_455 S
C2026 N2024 1.356 . S
C2027 C2021 1.363 1_655 S
C2027 C2022 1.379 . S
C2027 N2025 1.356 . S
N2028 C2020 1.356 . S
N2028 H2034 0.984 . S
N2028 H2035 0.984 . S
N2029 C2022 1.356 . S
N2029 H2032 0.984 . S
N2029 H2033 0.985 . S
H2030 N2025 0.982 . S
H2031 N2025 0.985 . S
H2032 N2029 0.984 . S
H2033 N2029 0.985 . S
H2034 N2028 0.984 . S
H2035 N2028 0.984 . S
H2036 N2024 0.984 . S
H2037 N2024 0.985 . S
C2038 C2039 1.363 . S
C2038 C2044 1.379 . S
C2038 N2046 1.356 . S
C2039 C2038 1.363 . S
C2039 C2045 1.363 . S
C2040 C2041 1.363 . S
C2040 C2045 1.379 . S
C2040 N2047 1.356 1_554 S
C2041 C2040 1.363 . S
C2041 C2044 1.363 . S
N2042 C2044 1.356 . S
N2042 H2054 0.984 . S
N2042 H2055 0.985 1_554 S
N2043 C2045 1.356 . S
N2043 H2048 0.984 . S
N2043 H2049 0.985 . S
C2044 C2038 1.379 . S
C2044 C2041 1.363 . S
C2044 N2042 1.356 . S
C2045 C2039 1.363 . S
C2045 C2040 1.379 . S
C2045 N2043 1.356 . S
N2046 C2038 1.356 . S
N2046 H2052 0.984 . S
N2046 H2053 0.984 . S
N2047 C2040 1.356 1_556 S
N2047 H2050 0.984 . S
N2047 H2051 0.985 . S
H2048 N2043 0.984 . S
H2049 N2043 0.985 . S
H2050 N2047 0.984 . S
H2051 N2047 0.985 . S
H2052 N2046 0.984 . S
H2053 N2046 0.984 . S
H2054 N2042 0.984 . S
H2055 N2042 0.985 1_556 S
C2056 C2057 1.363 . S
C2056 C2062 1.379 . S
C2056 N2064 1.356 . S
C2057 C2056 1.363 . S
C2057 C2063 1.363 . S
C2058 C2059 1.363 . S
C2058 C2063 1.379 . S
C2058 N2065 1.356 . S
C2059 C2058 1.363 . S
C2059 C2062 1.363 . S
N2060 C2062 1.356 . S
N2060 H2072 0.984 . S
N2060 H2073 0.985 . S
N2061 C2063 1.356 . S
N2061 H2066 0.984 . S
N2061 H2067 0.985 . S
C2062 C2056 1.379 . S
C2062 C2059 1.363 . S
C2062 N2060 1.356 . S
C2063 C2057 1.363 . S
C2063 C2058 1.379 . S
C2063 N2061 1.356 . S
N2064 C2056 1.356 . S
N2064 H2070 0.984 . S
N2064 H2071 0.984 . S
N2065 C2058 1.356 . S
N2065 H2068 0.984 . S
N2065 H2069 0.985 . S
H2066 N2061 0.984 . S
H2067 N2061 0.985 . S
H2068 N2065 0.984 . S
H2069 N2065 0.985 . S
H2070 N2064 0.984 . S
H2071 N2064 0.984 . S
H2072 N2060 0.984 . S
H2073 N2060 0.985 . S
C2074 C2075 1.363 . S
C2074 C2080 1.379 . S
C2074 N2082 1.356 . S
C2075 C2074 1.363 . S
C2075 C2081 1.363 . S
C2076 C2077 1.363 . S
C2076 C2081 1.379 . S
C2076 N2083 1.356 . S
C2077 C2076 1.363 . S
C2077 C2080 1.363 . S
N2078 C2080 1.356 . S
N2078 H2090 0.984 . S
N2078 H2091 0.985 . S
N2079 C2081 1.356 . S
N2079 H2084 0.984 . S
N2079 H2085 0.985 . S
C2080 C2074 1.379 . S
C2080 C2077 1.363 . S
C2080 N2078 1.356 . S
C2081 C2075 1.363 . S
C2081 C2076 1.379 . S
C2081 N2079 1.356 . S
N2082 C2074 1.356 . S
N2082 H2088 0.984 . S
N2082 H2089 0.984 . S
N2083 C2076 1.356 . S
N2083 H2086 0.984 . S
N2083 H2087 0.985 . S
H2084 N2079 0.984 . S
H2085 N2079 0.985 . S
H2086 N2083 0.984 . S
H2087 N2083 0.985 . S
H2088 N2082 0.984 . S
H2089 N2082 0.984 . S
H2090 N2078 0.984 . S
H2091 N2078 0.985 . S
C2092 C2093 1.363 1_655 S
C2092 C2098 1.379 . S
C2092 N2100 1.356 . S
C2093 C2092 1.363 1_455 S
C2093 C2099 1.363 . S
C2094 C2095 1.363 1_455 S
C2094 C2099 1.379 . S
C2094 N2101 1.356 . S
C2095 C2094 1.363 1_655 S
C2095 C2098 1.363 . S
N2096 C2098 1.356 . S
N2096 H2108 0.984 . S
N2096 H2109 0.985 . S
N2097 C2099 1.356 . S
N2097 H2102 0.984 . S
N2097 H2103 0.985 . S
C2098 C2092 1.379 . S
C2098 C2095 1.363 . S
C2098 N2096 1.356 . S
C2099 C2093 1.363 . S
C2099 C2094 1.379 . S
C2099 N2097 1.356 . S
N2100 C2092 1.356 . S
N2100 H2106 0.984 . S
N2100 H2107 0.984 . S
N2101 C2094 1.356 . S
N2101 H2104 0.984 . S
N2101 H2105 0.985 . S
H2102 N2097 0.984 . S
H2103 N2097 0.985 . S
H2104 N2101 0.984 . S
H2105 N2101 0.985 . S
H2106 N2100 0.984 . S
H2107 N2100 0.984 . S
H2108 N2096 0.984 . S
H2109 N2096 0.985 . S
C2110 C2111 1.363 . S
C2110 C2116 1.379 . S
C2110 N2118 1.356 . S
C2111 C2110 1.363 . S
C2111 C2117 1.363 . S
C2112 C2113 1.363 . S
C2112 C2117 1.379 . S
C2112 N2119 1.356 . S
C2113 C2112 1.363 . S
C2113 C2116 1.363 . S
N2114 C2116 1.356 . S
N2114 H2126 0.984 . S
N2114 H2127 0.985 . S
N2115 C2117 1.356 1_554 S
N2115 H2120 0.984 . S
N2115 H2121 0.985 . S
C2116 C2110 1.379 . S
C2116 C2113 1.363 . S
C2116 N2114 1.356 . S
C2117 C2111 1.363 . S
C2117 C2112 1.379 . S
C2117 N2115 1.356 1_556 S
N2118 C2110 1.356 . S
N2118 H2124 0.984 . S
N2118 H2125 0.984 1_556 S
N2119 C2112 1.356 . S
N2119 H2122 0.984 . S
N2119 H2123 0.985 . S
H2120 N2115 0.984 . S
H2121 N2115 0.985 . S
H2122 N2119 0.984 . S
H2123 N2119 0.985 . S
H2124 N2118 0.984 . S
H2125 N2118 0.984 1_554 S
H2126 N2114 0.984 . S
H2127 N2114 0.985 . S
C2128 C2129 1.363 . S
C2128 C2134 1.379 . S
C2128 N2136 1.356 . S
C2129 C2128 1.363 . S
C2129 C2135 1.363 . S
C2130 C2131 1.363 . S
C2130 C2135 1.379 . S
C2130 N2137 1.356 . S
C2131 C2130 1.363 . S
C2131 C2134 1.363 . S
N2132 C2134 1.356 . S
N2132 H2144 0.984 . S
N2132 H2145 0.985 . S
N2133 C2135 1.356 . S
N2133 H2138 0.984 . S
N2133 H2139 0.985 . S
C2134 C2128 1.379 . S
C2134 C2131 1.363 . S
C2134 N2132 1.356 . S
C2135 C2129 1.363 . S
C2135 C2130 1.379 . S
C2135 N2133 1.356 . S
N2136 C2128 1.356 . S
N2136 H2142 0.984 . S
N2136 H2143 0.984 . S
N2137 C2130 1.356 . S
N2137 H2140 0.984 . S
N2137 H2141 0.985 . S
H2138 N2133 0.984 . S
H2139 N2133 0.985 . S
H2140 N2137 0.984 . S
H2141 N2137 0.985 . S
H2142 N2136 0.984 . S
H2143 N2136 0.984 . S
H2144 N2132 0.984 . S
H2145 N2132 0.985 . S
C2146 C2147 1.363 . S
C2146 C2152 1.379 . S
C2146 N2154 1.356 . S
C2147 C2146 1.363 . S
C2147 C2153 1.363 . S
C2148 C2149 1.363 . S
C2148 C2153 1.379 . S
C2148 N2155 1.356 . S
C2149 C2148 1.363 . S
C2149 C2152 1.363 . S
N2150 C2152 1.356 . S
N2150 H2162 0.984 . S
N2150 H2163 0.985 . S
N2151 C2153 1.356 . S
N2151 H2156 0.984 . S
N2151 H2157 0.985 . S
C2152 C2146 1.379 . S
C2152 C2149 1.363 . S
C2152 N2150 1.356 . S
C2153 C2147 1.363 . S
C2153 C2148 1.379 . S
C2153 N2151 1.356 . S
N2154 C2146 1.356 . S
N2154 H2160 0.984 . S
N2154 H2161 0.984 . S
N2155 C2148 1.356 . S
N2155 H2158 0.984 . S
N2155 H2159 0.985 . S
H2156 N2151 0.984 . S
H2157 N2151 0.985 . S
H2158 N2155 0.984 . S
H2159 N2155 0.985 . S
H2160 N2154 0.984 . S
H2161 N2154 0.984 . S
H2162 N2150 0.984 . S
H2163 N2150 0.985 . S
C2164 C2165 1.363 1_655 S
C2164 C2170 1.379 . S
C2164 N2172 1.356 . S
C2165 C2164 1.363 1_455 S
C2165 C2171 1.363 . S
C2166 C2167 1.363 1_455 S
C2166 C2171 1.379 . S
C2166 N2173 1.356 . S
C2167 C2166 1.363 1_655 S
C2167 C2170 1.363 . S
N2168 C2170 1.356 . S
N2168 H2180 0.984 . S
N2168 H2181 0.985 . S
N2169 C2171 1.356 . S
N2169 H2174 0.984 . S
N2169 H2175 0.985 . S
C2170 C2164 1.379 . S
C2170 C2167 1.363 . S
C2170 N2168 1.356 . S
C2171 C2165 1.363 . S
C2171 C2166 1.379 . S
C2171 N2169 1.356 . S
N2172 C2164 1.356 . S
N2172 H2178 0.984 . S
N2172 H2179 0.984 . S
N2173 C2166 1.356 . S
N2173 H2176 0.969 1_455 S
N2173 H2177 0.985 . S
H2174 N2169 0.984 . S
H2175 N2169 0.985 . S
H2176 N2173 0.969 1_655 S
H2177 N2173 0.985 . S
H2178 N2172 0.984 . S
H2179 N2172 0.984 . S
H2180 N2168 0.984 . S
H2181 N2168 0.985 . S
C2182 C2183 1.363 . S
C2182 C2188 1.379 . S
C2182 N2190 1.356 . S
C2183 C2182 1.363 . S
C2183 C2189 1.363 . S
C2184 C2185 1.363 . S
C2184 C2189 1.379 . S
C2184 N2191 1.356 . S
C2185 C2184 1.363 . S
C2185 C2188 1.363 . S
N2186 C2188 1.356 1_554 S
N2186 H2198 0.984 . S
N2186 H2199 0.985 . S
N2187 C2189 1.356 . S
N2187 H2192 0.984 . S
N2187 H2193 0.985 . S
C2188 C2182 1.379 . S
C2188 C2185 1.363 . S
C2188 N2186 1.356 1_556 S
C2189 C2183 1.363 . S
C2189 C2184 1.379 . S
C2189 N2187 1.356 . S
N2190 C2182 1.356 . S
N2190 H2196 0.984 . S
N2190 H2197 0.984 . S
N2191 C2184 1.356 . S
N2191 H2194 0.984 1_556 S
N2191 H2195 0.985 . S
H2192 N2187 0.984 . S
H2193 N2187 0.985 . S
H2194 N2191 0.984 1_554 S
H2195 N2191 0.985 . S
H2196 N2190 0.984 . S
H2197 N2190 0.984 . S
H2198 N2186 0.984 . S
H2199 N2186 0.985 . S
C2200 C2201 1.363 . S
C2200 C2206 1.379 . S
C2200 N2208 1.356 . S
C2201 C2200 1.363 . S
C2201 C2207 1.363 . S
C2202 C2203 1.363 . S
C2202 C2207 1.379 . S
C2202 N2209 1.356 . S
C2203 C2202 1.363 . S
C2203 C2206 1.363 . S
N2204 C2206 1.356 . S
N2204 H2216 0.984 . S
N2204 H2217 0.985 . S
N2205 C2207 1.356 . S
N2205 H2210 0.984 . S
N2205 H2211 0.985 . S
C2206 C2200 1.379 . S
C2206 C2203 1.363 . S
C2206 N2204 1.356 . S
C2207 C2201 1.363 . S
C2207 C2202 1.379 . S
C2207 N2205 1.356 . S
N2208 C2200 1.356 . S
N2208 H2214 0.984 . S
N2208 H2215 0.984 . S
N2209 C2202 1.356 . S
N2209 H2212 0.984 . S
N2209 H2213 0.985 . S
H2210 N2205 0.984 . S
H2211 N2205 0.985 . S
H2212 N2209 0.984 . S
H2213 N2209 0.985 . S
H2214 N2208 0.984 . S
H2215 N2208 0.984 . S
H2216 N2204 0.984 . S
H2217 N2204 0.985 . S
C2218 C2219 1.363 . S
C2218 C2224 1.379 . S
C2218 N2226 1.356 . S
C2219 C2218 1.363 . S
C2219 C2225 1.363 . S
C2220 C2221 1.363 . S
C2220 C2225 1.379 . S
C2220 N2227 1.356 . S
C2221 C2220 1.363 . S
C2221 C2224 1.363 . S
N2222 C2224 1.356 . S
N2222 H2234 0.984 . S
N2222 H2235 0.985 . S
N2223 C2225 1.356 . S
N2223 H2228 0.984 . S
N2223 H2229 0.985 . S
C2224 C2218 1.379 . S
C2224 C2221 1.363 . S
C2224 N2222 1.356 . S
C2225 C2219 1.363 . S
C2225 C2220 1.379 . S
C2225 N2223 1.356 . S
N2226 C2218 1.356 . S
N2226 H2232 0.984 . S
N2226 H2233 0.984 . S
N2227 C2220 1.356 . S
N2227 H2230 0.984 . S
N2227 H2231 0.985 . S
H2228 N2223 0.984 . S
H2229 N2223 0.985 . S
H2230 N2227 0.984 . S
H2231 N2227 0.985 . S
H2232 N2226 0.984 . S
H2233 N2226 0.984 . S
H2234 N2222 0.984 . S
H2235 N2222 0.985 . S
C2236 C2237 1.363 1_455 S
C2236 C2242 1.379 . S
C2236 N2244 1.356 . S
C2237 C2236 1.363 1_655 S
C2237 C2243 1.363 . S
C2238 C2239 1.363 1_655 S
C2238 C2243 1.379 . S
C2238 N2245 1.356 . S
C2239 C2238 1.363 1_455 S
C2239 C2242 1.363 . S
N2240 C2242 1.356 . S
N2240 H2252 0.984 . S
N2240 H2253 0.985 . S
N2241 C2243 1.356 . S
N2241 H2246 0.984 . S
N2241 H2247 0.985 . S
C2242 C2236 1.379 . S
C2242 C2239 1.363 . S
C2242 N2240 1.356 . S
C2243 C2237 1.363 . S
C2243 C2238 1.379 . S
C2243 N2241 1.356 . S
N2244 C2236 1.356 . S
N2244 H2250 0.984 . S
N2244 H2251 0.984 . S
N2245 C2238 1.356 . S
N2245 H2248 0.984 . S
N2245 H2249 0.985 . S
H2246 N2241 0.984 . S
H2247 N2241 0.985 . S
H2248 N2245 0.984 . S
H2249 N2245 0.985 . S
H2250 N2244 0.984 . S
H2251 N2244 0.984 . S
H2252 N2240 0.984 . S
H2253 N2240 0.985 . S
C2254 C2255 1.363 . S
C2254 C2260 1.379 . S
C2254 N2262 1.356 . S
C2255 C2254 1.363 . S
C2255 C2261 1.363 . S
C2256 C2257 1.363 . S
C2256 C2261 1.379 . S
C2256 N2263 1.356 1_554 S
C2257 C2256 1.363 . S
C2257 C2260 1.363 . S
N2258 C2260 1.356 . S
N2258 H2270 0.984 . S
N2258 H2271 0.985 1_554 S
N2259 C2261 1.356 . S
N2259 H2264 0.984 . S
N2259 H2265 0.985 . S
C2260 C2254 1.379 . S
C2260 C2257 1.363 . S
C2260 N2258 1.356 . S
C2261 C2255 1.363 . S
C2261 C2256 1.379 . S
C2261 N2259 1.356 . S
N2262 C2254 1.356 . S
N2262 H2268 0.984 . S
N2262 H2269 0.984 . S
N2263 C2256 1.356 1_556 S
N2263 H2266 0.984 . S
N2263 H2267 0.985 . S
H2264 N2259 0.984 . S
H2265 N2259 0.985 . S
H2266 N2263 0.984 . S
H2267 N2263 0.985 . S
H2268 N2262 0.984 . S
H2269 N2262 0.984 . S
H2270 N2258 0.984 . S
H2271 N2258 0.985 1_556 S
C2272 C2273 1.363 1_556 S
C2272 C2278 1.379 1_545 S
C2272 N2280 1.356 . S
C2273 C2272 1.363 1_554 S
C2273 C2279 1.363 1_655 S
C2274 C2275 1.363 1_554 S
C2274 C2279 1.379 1_565 S
C2274 N2281 1.356 . S
C2275 C2274 1.363 1_556 S
C2275 C2278 1.363 1_455 S
N2276 C2278 1.356 . S
N2276 H2288 0.984 . S
N2276 H2289 0.985 1_655 S
N2277 C2279 1.356 . S
N2277 H2282 0.984 1_455 S
N2277 H2283 0.985 . S
C2278 C2272 1.379 1_565 S
C2278 C2275 1.363 1_655 S
C2278 N2276 1.356 . S
C2279 C2273 1.363 1_455 S
C2279 C2274 1.379 1_545 S
C2279 N2277 1.356 . S
N2280 C2272 1.356 . S
N2280 H2286 0.984 . S
N2280 H2287 0.984 . S
N2281 C2274 1.356 . S
N2281 H2284 0.984 . S
N2281 H2285 0.985 . S
H2282 N2277 0.984 1_655 S
H2283 N2277 0.985 . S
H2284 N2281 0.984 . S
H2285 N2281 0.985 . S
H2286 N2280 0.984 . S
H2287 N2280 0.984 . S
H2288 N2276 0.984 . S
H2289 N2276 0.985 1_455 S
C2290 C2291 1.363 . S
C2290 C2296 1.379 . S
C2290 N2298 1.356 . S
C2291 C2290 1.363 . S
C2291 C2297 1.363 . S
C2292 C2293 1.363 . S
C2292 C2297 1.379 . S
C2292 N2299 1.356 . S
C2293 C2292 1.363 . S
C2293 C2296 1.363 . S
N2294 C2296 1.356 . S
N2294 H2306 0.984 . S
N2294 H2307 0.985 . S
N2295 C2297 1.356 . S
N2295 H2300 0.984 . S
N2295 H2301 0.985 . S
C2296 C2290 1.379 . S
C2296 C2293 1.363 . S
C2296 N2294 1.356 . S
C2297 C2291 1.363 . S
C2297 C2292 1.379 . S
C2297 N2295 1.356 . S
N2298 C2290 1.356 . S
N2298 H2304 0.984 . S
N2298 H2305 0.984 . S
N2299 C2292 1.356 . S
N2299 H2302 0.984 . S
N2299 H2303 0.985 . S
H2300 N2295 0.984 . S
H2301 N2295 0.985 . S
H2302 N2299 0.984 . S
H2303 N2299 0.985 . S
H2304 N2298 0.984 . S
H2305 N2298 0.984 . S
H2306 N2294 0.984 . S
H2307 N2294 0.985 . S
C2308 C2309 1.363 . S
C2308 C2314 1.379 1_545 S
C2308 N2316 1.356 . S
C2309 C2308 1.363 . S
C2309 C2315 1.363 . S
C2310 C2311 1.363 . S
C2310 C2315 1.379 1_565 S
C2310 N2317 1.356 . S
C2311 C2310 1.363 . S
C2311 C2314 1.363 . S
N2312 C2314 1.356 . S
N2312 H2324 0.984 . S
N2312 H2325 0.985 . S
N2313 C2315 1.356 . S
N2313 H2318 0.984 . S
N2313 H2319 0.985 . S
C2314 C2308 1.379 1_565 S
C2314 C2311 1.363 . S
C2314 N2312 1.356 . S
C2315 C2309 1.363 . S
C2315 C2310 1.379 1_545 S
C2315 N2313 1.356 . S
N2316 C2308 1.356 . S
N2316 H2322 0.984 . S
N2316 H2323 0.984 . S
N2317 C2310 1.356 . S
N2317 H2320 0.984 . S
N2317 H2321 0.985 . S
H2318 N2313 0.984 . S
H2319 N2313 0.985 . S
H2320 N2317 0.984 . S
H2321 N2317 0.985 . S
H2322 N2316 0.984 . S
H2323 N2316 0.984 . S
H2324 N2312 0.984 . S
H2325 N2312 0.985 . S
C2326 C2327 1.363 . S
C2326 C2332 1.379 . S
C2326 N2334 1.356 . S
C2327 C2326 1.363 . S
C2327 C2333 1.363 . S
C2328 C2329 1.363 . S
C2328 C2333 1.379 . S
C2328 N2335 1.356 . S
C2329 C2328 1.363 . S
C2329 C2332 1.363 . S
N2330 C2332 1.356 . S
N2330 H2342 0.984 . S
N2330 H2343 0.985 . S
N2331 C2333 1.356 . S
N2331 H2336 0.984 . S
N2331 H2337 0.985 . S
C2332 C2326 1.379 . S
C2332 C2329 1.363 . S
C2332 N2330 1.356 . S
C2333 C2327 1.363 . S
C2333 C2328 1.379 . S
C2333 N2331 1.356 . S
N2334 C2326 1.356 . S
N2334 H2340 0.984 . S
N2334 H2341 0.984 . S
N2335 C2328 1.356 . S
N2335 H2338 0.984 . S
N2335 H2339 0.985 . S
H2336 N2331 0.984 . S
H2337 N2331 0.985 . S
H2338 N2335 0.984 . S
H2339 N2335 0.985 . S
H2340 N2334 0.984 . S
H2341 N2334 0.984 . S
H2342 N2330 0.984 . S
H2343 N2330 0.985 . S
C2344 C2345 1.363 . S
C2344 C2350 1.379 1_565 S
C2344 N2352 1.356 . S
C2345 C2344 1.363 . S
C2345 C2351 1.363 1_655 S
C2346 C2347 1.363 . S
C2346 C2351 1.379 1_545 S
C2346 N2353 1.356 . S
C2347 C2346 1.363 . S
C2347 C2350 1.363 1_455 S
N2348 C2350 1.356 . S
N2348 H2360 0.984 . S
N2348 H2361 0.985 1_655 S
N2349 C2351 1.356 . S
N2349 H2354 0.984 1_455 S
N2349 H2355 0.985 . S
C2350 C2344 1.379 1_545 S
C2350 C2347 1.363 1_655 S
C2350 N2348 1.356 . S
C2351 C2345 1.363 1_455 S
C2351 C2346 1.379 1_565 S
C2351 N2349 1.356 . S
N2352 C2344 1.356 . S
N2352 H2358 0.984 . S
N2352 H2359 0.984 . S
N2353 C2346 1.356 . S
N2353 H2356 0.984 . S
N2353 H2357 0.985 . S
H2354 N2349 0.984 1_655 S
H2355 N2349 0.985 . S
H2356 N2353 0.984 . S
H2357 N2353 0.985 . S
H2358 N2352 0.984 . S
H2359 N2352 0.984 . S
H2360 N2348 0.984 . S
H2361 N2348 0.985 1_455 S
C2362 C2363 1.363 . S
C2362 C2368 1.379 . S
C2362 N2370 1.356 . S
C2363 C2362 1.363 . S
C2363 C2369 1.363 . S
C2364 C2365 1.363 . S
C2364 C2369 1.379 . S
C2364 N2371 1.356 . S
C2365 C2364 1.363 . S
C2365 C2368 1.363 . S
N2366 C2368 1.356 . S
N2366 H2378 0.984 . S
N2366 H2379 0.985 . S
N2367 C2369 1.356 . S
N2367 H2372 0.984 . S
N2367 H2373 0.985 . S
C2368 C2362 1.379 . S
C2368 C2365 1.363 . S
C2368 N2366 1.356 . S
C2369 C2363 1.363 . S
C2369 C2364 1.379 . S
C2369 N2367 1.356 . S
N2370 C2362 1.356 . S
N2370 H2376 0.984 . S
N2370 H2377 0.984 . S
N2371 C2364 1.356 . S
N2371 H2374 0.984 . S
N2371 H2375 0.985 . S
H2372 N2367 0.984 . S
H2373 N2367 0.985 . S
H2374 N2371 0.984 . S
H2375 N2371 0.985 . S
H2376 N2370 0.984 . S
H2377 N2370 0.984 . S
H2378 N2366 0.984 . S
H2379 N2366 0.985 . S
C2380 C2381 1.363 1_556 S
C2380 C2386 1.379 1_565 S
C2380 N2388 1.356 . S
C2381 C2380 1.363 1_554 S
C2381 C2387 1.363 . S
C2382 C2383 1.363 1_554 S
C2382 C2387 1.379 1_545 S
C2382 N2389 1.356 . S
C2383 C2382 1.363 1_556 S
C2383 C2386 1.363 . S
N2384 C2386 1.356 . S
N2384 H2396 0.984 . S
N2384 H2397 0.985 . S
N2385 C2387 1.356 . S
N2385 H2390 0.984 . S
N2385 H2391 0.985 . S
C2386 C2380 1.379 1_545 S
C2386 C2383 1.363 . S
C2386 N2384 1.356 . S
C2387 C2381 1.363 . S
C2387 C2382 1.379 1_565 S
C2387 N2385 1.356 . S
N2388 C2380 1.356 . S
N2388 H2394 0.984 . S
N2388 H2395 0.984 . S
N2389 C2382 1.356 . S
N2389 H2392 0.984 . S
N2389 H2393 0.985 . S
H2390 N2385 0.984 . S
H2391 N2385 0.985 . S
H2392 N2389 0.984 . S
H2393 N2389 0.985 . S
H2394 N2388 0.984 . S
H2395 N2388 0.984 . S
H2396 N2384 0.984 . S
H2397 N2384 0.985 . S
C2398 C2399 1.363 . S
C2398 C2404 1.379 . S
C2398 N2406 1.356 . S
C2399 C2398 1.363 . S
C2399 C2405 1.363 . S
C2400 C2401 1.363 . S
C2400 C2405 1.379 . S
C2400 N2407 1.356 . S
C2401 C2400 1.363 . S
C2401 C2404 1.363 . S
N2402 C2404 1.356 . S
N2402 H2414 0.984 . S
N2402 H2415 0.985 . S
N2403 C2405 1.356 . S
N2403 H2408 0.984 . S
N2403 H2409 0.985 . S
C2404 C2398 1.379 . S
C2404 C2401 1.363 . S
C2404 N2402 1.356 . S
C2405 C2399 1.363 . S
C2405 C2400 1.379 . S
C2405 N2403 1.356 . S
N2406 C2398 1.356 . S
N2406 H2412 0.984 . S
N2406 H2413 0.984 . S
N2407 C2400 1.356 . S
N2407 H2410 0.984 . S
N2407 H2411 0.985 . S
H2408 N2403 0.984 . S
H2409 N2403 0.985 . S
H2410 N2407 0.984 . S
H2411 N2407 0.985 . S
H2412 N2406 0.984 . S
H2413 N2406 0.984 . S
H2414 N2402 0.984 . S
H2415 N2402 0.985 . S
C2416 C2417 1.363 . S
C2416 C2422 1.379 . S
C2416 N2424 1.356 . S
C2417 C2416 1.363 . S
C2417 C2423 1.363 . S
C2418 C2419 1.363 . S
C2418 C2423 1.379 . S
C2418 N2425 1.356 . S
C2419 C2418 1.363 . S
C2419 C2422 1.363 . S
N2420 C2422 1.356 . S
N2420 H2432 0.984 . S
N2420 H2433 0.985 . S
N2421 C2423 1.356 . S
N2421 H2426 0.984 . S
N2421 H2427 0.985 . S
C2422 C2416 1.379 . S
C2422 C2419 1.363 . S
C2422 N2420 1.356 . S
C2423 C2417 1.363 . S
C2423 C2418 1.379 . S
C2423 N2421 1.356 . S
N2424 C2416 1.356 . S
N2424 H2430 0.984 . S
N2424 H2431 0.984 . S
N2425 C2418 1.356 . S
N2425 H2428 0.984 . S
N2425 H2429 0.985 . S
H2426 N2421 0.984 . S
H2427 N2421 0.985 . S
H2428 N2425 0.984 . S
H2429 N2425 0.985 . S
H2430 N2424 0.984 . S
H2431 N2424 0.984 . S
H2432 N2420 0.984 . S
H2433 N2420 0.985 . S
C2434 C2435 1.363 . S
C2434 C2440 1.379 . S
C2434 N2442 1.356 . S
C2435 C2434 1.363 . S
C2435 C2441 1.363 . S
C2436 C2437 1.363 . S
C2436 C2441 1.379 . S
C2436 N2443 1.356 . S
C2437 C2436 1.363 . S
C2437 C2440 1.363 . S
N2438 C2440 1.356 . S
N2438 H2450 0.984 . S
N2438 H2451 0.985 . S
N2439 C2441 1.356 . S
N2439 H2444 0.984 . S
N2439 H2445 0.985 . S
C2440 C2434 1.379 . S
C2440 C2437 1.363 . S
C2440 N2438 1.356 . S
C2441 C2435 1.363 . S
C2441 C2436 1.379 . S
C2441 N2439 1.356 . S
N2442 C2434 1.356 . S
N2442 H2448 0.984 . S
N2442 H2449 0.984 . S
N2443 C2436 1.356 . S
N2443 H2446 0.984 . S
N2443 H2447 0.985 . S
H2444 N2439 0.984 . S
H2445 N2439 0.985 . S
H2446 N2443 0.984 . S
H2447 N2443 0.985 . S
H2448 N2442 0.984 . S
H2449 N2442 0.984 . S
H2450 N2438 0.984 . S
H2451 N2438 0.985 . S
C2452 C2453 1.363 . S
C2452 C2458 1.379 . S
C2452 N2460 1.356 . S
C2453 C2452 1.363 . S
C2453 C2459 1.363 . S
C2454 C2455 1.363 . S
C2454 C2459 1.379 . S
C2454 N2461 1.356 . S
C2455 C2454 1.363 . S
C2455 C2458 1.363 . S
N2456 C2458 1.356 . S
N2456 H2468 0.984 . S
N2456 H2469 0.985 . S
N2457 C2459 1.356 . S
N2457 H2462 0.984 . S
N2457 H2463 0.985 . S
C2458 C2452 1.379 . S
C2458 C2455 1.363 . S
C2458 N2456 1.356 . S
C2459 C2453 1.363 . S
C2459 C2454 1.379 . S
C2459 N2457 1.356 . S
N2460 C2452 1.356 . S
N2460 H2466 0.984 . S
N2460 H2467 0.984 . S
N2461 C2454 1.356 . S
N2461 H2464 0.984 . S
N2461 H2465 0.985 . S
H2462 N2457 0.984 . S
H2463 N2457 0.985 . S
H2464 N2461 0.984 . S
H2465 N2461 0.985 . S
H2466 N2460 0.984 . S
H2467 N2460 0.984 . S
H2468 N2456 0.984 . S
H2469 N2456 0.985 . S
C2470 C2471 1.363 . S
C2470 C2476 1.379 . S
C2470 N2478 1.356 . S
C2471 C2470 1.363 . S
C2471 C2477 1.363 . S
C2472 C2473 1.363 . S
C2472 C2477 1.379 . S
C2472 N2479 1.356 . S
C2473 C2472 1.363 . S
C2473 C2476 1.363 . S
N2474 C2476 1.356 . S
N2474 H2486 0.984 . S
N2474 H2487 0.985 . S
N2475 C2477 1.356 . S
N2475 H2480 0.984 . S
N2475 H2481 0.985 . S
C2476 C2470 1.379 . S
C2476 C2473 1.363 . S
C2476 N2474 1.356 . S
C2477 C2471 1.363 . S
C2477 C2472 1.379 . S
C2477 N2475 1.356 . S
N2478 C2470 1.356 . S
N2478 H2484 0.984 . S
N2478 H2485 0.984 . S
N2479 C2472 1.356 . S
N2479 H2482 0.984 . S
N2479 H2483 0.985 . S
H2480 N2475 0.984 . S
H2481 N2475 0.985 . S
H2482 N2479 0.984 . S
H2483 N2479 0.985 . S
H2484 N2478 0.984 . S
H2485 N2478 0.984 . S
H2486 N2474 0.984 . S
H2487 N2474 0.985 . S
C2488 C2489 1.363 . S
C2488 C2494 1.379 . S
C2488 N2496 1.356 . S
C2489 C2488 1.363 . S
C2489 C2495 1.363 . S
C2490 C2491 1.363 . S
C2490 C2495 1.379 . S
C2490 N2497 1.356 . S
C2491 C2490 1.363 . S
C2491 C2494 1.363 . S
N2492 C2494 1.356 . S
N2492 H2504 0.984 . S
N2492 H2505 0.985 . S
N2493 C2495 1.356 . S
N2493 H2498 0.984 . S
N2493 H2499 0.985 . S
C2494 C2488 1.379 . S
C2494 C2491 1.363 . S
C2494 N2492 1.356 . S
C2495 C2489 1.363 . S
C2495 C2490 1.379 . S
C2495 N2493 1.356 . S
N2496 C2488 1.356 . S
N2496 H2502 0.984 . S
N2496 H2503 0.984 . S
N2497 C2490 1.356 . S
N2497 H2500 0.984 . S
N2497 H2501 0.985 . S
H2498 N2493 0.984 . S
H2499 N2493 0.985 . S
H2500 N2497 0.984 . S
H2501 N2497 0.985 . S
H2502 N2496 0.984 . S
H2503 N2496 0.984 . S
H2504 N2492 0.984 . S
H2505 N2492 0.985 . S
C2506 C2507 1.363 1_655 S
C2506 C2512 1.379 . S
C2506 N2514 1.356 . S
C2507 C2506 1.363 1_455 S
C2507 C2513 1.363 1_554 S
C2508 C2509 1.363 1_455 S
C2508 C2513 1.379 . S
C2508 N2515 1.356 . S
C2509 C2508 1.363 1_655 S
C2509 C2512 1.363 1_556 S
N2510 C2512 1.356 . S
N2510 H2522 0.984 . S
N2510 H2523 0.985 . S
N2511 C2513 1.356 . S
N2511 H2516 0.984 . S
N2511 H2517 0.985 . S
C2512 C2506 1.379 . S
C2512 C2509 1.363 1_554 S
C2512 N2510 1.356 . S
C2513 C2507 1.363 1_556 S
C2513 C2508 1.379 . S
C2513 N2511 1.356 . S
N2514 C2506 1.356 . S
N2514 H2520 0.984 . S
N2514 H2521 0.984 1_655 S
N2515 C2508 1.356 . S
N2515 H2518 0.984 1_455 S
N2515 H2519 0.985 . S
H2516 N2511 0.984 . S
H2517 N2511 0.985 . S
H2518 N2515 0.984 1_655 S
H2519 N2515 0.985 . S
H2520 N2514 0.984 . S
H2521 N2514 0.984 1_455 S
H2522 N2510 0.984 . S
H2523 N2510 0.985 . S
C2524 C2525 1.363 1_554 S
C2524 C2530 1.379 . S
C2524 N2532 1.356 . S
C2525 C2524 1.363 1_556 S
C2525 C2531 1.363 . S
C2526 C2527 1.363 1_556 S
C2526 C2531 1.379 . S
C2526 N2533 1.356 . S
C2527 C2526 1.363 1_554 S
C2527 C2530 1.363 . S
N2528 C2530 1.356 . S
N2528 H2540 0.984 . S
N2528 H2541 0.985 . S
N2529 C2531 1.356 . S
N2529 H2534 0.984 . S
N2529 H2535 0.985 . S
C2530 C2524 1.379 . S
C2530 C2527 1.363 . S
C2530 N2528 1.356 . S
C2531 C2525 1.363 . S
C2531 C2526 1.379 . S
C2531 N2529 1.356 . S
N2532 C2524 1.356 . S
N2532 H2538 0.984 . S
N2532 H2539 0.984 . S
N2533 C2526 1.356 . S
N2533 H2536 0.984 . S
N2533 H2537 0.985 . S
H2534 N2529 0.984 . S
H2535 N2529 0.985 . S
H2536 N2533 0.984 . S
H2537 N2533 0.985 . S
H2538 N2532 0.984 . S
H2539 N2532 0.984 . S
H2540 N2528 0.984 . S
H2541 N2528 0.985 . S
C2542 C2543 1.363 . S
C2542 C2548 1.379 . S
C2542 N2550 1.356 . S
C2543 C2542 1.363 . S
C2543 C2549 1.363 1_655 S
C2544 C2545 1.363 . S
C2544 C2549 1.379 . S
C2544 N2551 1.356 . S
C2545 C2544 1.363 . S
C2545 C2548 1.363 1_455 S
N2546 C2548 1.356 . S
N2546 H2558 0.984 . S
N2546 H2559 0.985 1_655 S
N2547 C2549 1.356 . S
N2547 H2552 0.984 1_455 S
N2547 H2553 0.985 . S
C2548 C2542 1.379 . S
C2548 C2545 1.363 1_655 S
C2548 N2546 1.356 . S
C2549 C2543 1.363 1_455 S
C2549 C2544 1.379 . S
C2549 N2547 1.356 . S
N2550 C2542 1.356 . S
N2550 H2556 0.984 . S
N2550 H2557 0.984 . S
N2551 C2544 1.356 . S
N2551 H2554 0.984 . S
N2551 H2555 0.985 . S
H2552 N2547 0.984 1_655 S
H2553 N2547 0.985 . S
H2554 N2551 0.984 . S
H2555 N2551 0.985 . S
H2556 N2550 0.984 . S
H2557 N2550 0.984 . S
H2558 N2546 0.984 . S
H2559 N2546 0.985 1_455 S
C2560 C2561 1.363 . S
C2560 C2566 1.379 . S
C2560 N2568 1.356 . S
C2561 C2560 1.363 . S
C2561 C2567 1.363 . S
C2562 C2563 1.363 . S
C2562 C2567 1.379 . S
C2562 N2569 1.356 . S
C2563 C2562 1.363 . S
C2563 C2566 1.363 . S
N2564 C2566 1.356 . S
N2564 H2576 0.984 . S
N2564 H2577 0.985 . S
N2565 C2567 1.356 . S
N2565 H2570 0.984 . S
N2565 H2571 0.985 . S
C2566 C2560 1.379 . S
C2566 C2563 1.363 . S
C2566 N2564 1.356 . S
C2567 C2561 1.363 . S
C2567 C2562 1.379 . S
C2567 N2565 1.356 . S
N2568 C2560 1.356 . S
N2568 H2574 0.984 . S
N2568 H2575 0.984 . S
N2569 C2562 1.356 . S
N2569 H2572 0.984 . S
N2569 H2573 0.985 . S
H2570 N2565 0.984 . S
H2571 N2565 0.985 . S
H2572 N2569 0.984 . S
H2573 N2569 0.985 . S
H2574 N2568 0.984 . S
H2575 N2568 0.984 . S
H2576 N2564 0.984 . S
H2577 N2564 0.985 . S
C2578 C2579 1.363 . S
C2578 C2584 1.379 . S
C2578 N2586 1.356 . S
C2579 C2578 1.363 . S
C2579 C2585 1.363 . S
C2580 C2581 1.363 . S
C2580 C2585 1.379 . S
C2580 N2587 1.356 . S
C2581 C2580 1.363 . S
C2581 C2584 1.363 . S
N2582 C2584 1.356 . S
N2582 H2594 0.984 . S
N2582 H2595 0.985 . S
N2583 C2585 1.356 . S
N2583 H2588 0.984 . S
N2583 H2589 0.985 . S
C2584 C2578 1.379 . S
C2584 C2581 1.363 . S
C2584 N2582 1.356 . S
C2585 C2579 1.363 . S
C2585 C2580 1.379 . S
C2585 N2583 1.356 . S
N2586 C2578 1.356 . S
N2586 H2592 0.984 . S
N2586 H2593 0.984 . S
N2587 C2580 1.356 . S
N2587 H2590 0.984 . S
N2587 H2591 0.985 . S
H2588 N2583 0.984 . S
H2589 N2583 0.985 . S
H2590 N2587 0.984 . S
H2591 N2587 0.985 . S
H2592 N2586 0.984 . S
H2593 N2586 0.984 . S
H2594 N2582 0.984 . S
H2595 N2582 0.985 . S
C2596 C2597 1.363 . S
C2596 C2602 1.379 . S
C2596 N2604 1.356 . S
C2597 C2596 1.363 . S
C2597 C2603 1.363 . S
C2598 C2599 1.363 . S
C2598 C2603 1.379 . S
C2598 N2605 1.356 . S
C2599 C2598 1.363 . S
C2599 C2602 1.363 . S
N2600 C2602 1.356 . S
N2600 H2612 0.984 . S
N2600 H2613 0.985 . S
N2601 C2603 1.356 . S
N2601 H2606 0.984 . S
N2601 H2607 0.985 . S
C2602 C2596 1.379 . S
C2602 C2599 1.363 . S
C2602 N2600 1.356 . S
C2603 C2597 1.363 . S
C2603 C2598 1.379 . S
C2603 N2601 1.356 . S
N2604 C2596 1.356 . S
N2604 H2610 0.984 . S
N2604 H2611 0.984 . S
N2605 C2598 1.356 . S
N2605 H2608 0.984 . S
N2605 H2609 0.985 . S
H2606 N2601 0.984 . S
H2607 N2601 0.985 . S
H2608 N2605 0.984 . S
H2609 N2605 0.985 . S
H2610 N2604 0.984 . S
H2611 N2604 0.984 . S
H2612 N2600 0.984 . S
H2613 N2600 0.985 . S
C2614 C2615 1.363 . S
C2614 C2620 1.379 . S
C2614 N2622 1.356 . S
C2615 C2614 1.363 . S
C2615 C2621 1.363 . S
C2616 C2617 1.363 . S
C2616 C2621 1.379 . S
C2616 N2623 1.356 . S
C2617 C2616 1.363 . S
C2617 C2620 1.363 . S
N2618 C2620 1.356 . S
N2618 H2630 0.984 . S
N2618 H2631 0.985 . S
N2619 C2621 1.356 . S
N2619 H2624 0.984 . S
N2619 H2625 0.985 . S
C2620 C2614 1.379 . S
C2620 C2617 1.363 . S
C2620 N2618 1.356 . S
C2621 C2615 1.363 . S
C2621 C2616 1.379 . S
C2621 N2619 1.356 . S
N2622 C2614 1.356 . S
N2622 H2628 0.984 . S
N2622 H2629 0.984 . S
N2623 C2616 1.356 . S
N2623 H2626 0.984 . S
N2623 H2627 0.985 . S
H2624 N2619 0.984 . S
H2625 N2619 0.985 . S
H2626 N2623 0.984 . S
H2627 N2623 0.985 . S
H2628 N2622 0.984 . S
H2629 N2622 0.984 . S
H2630 N2618 0.984 . S
H2631 N2618 0.985 . S
C2632 C2633 1.363 . S
C2632 C2638 1.379 . S
C2632 N2640 1.356 . S
C2633 C2632 1.363 . S
C2633 C2639 1.363 . S
C2634 C2635 1.363 . S
C2634 C2639 1.379 . S
C2634 N2641 1.356 . S
C2635 C2634 1.363 . S
C2635 C2638 1.363 . S
N2636 C2638 1.356 . S
N2636 H2648 0.984 . S
N2636 H2649 0.985 . S
N2637 C2639 1.356 . S
N2637 H2642 0.984 . S
N2637 H2643 0.985 . S
C2638 C2632 1.379 . S
C2638 C2635 1.363 . S
C2638 N2636 1.356 . S
C2639 C2633 1.363 . S
C2639 C2634 1.379 . S
C2639 N2637 1.356 . S
N2640 C2632 1.356 . S
N2640 H2646 0.984 . S
N2640 H2647 0.984 . S
N2641 C2634 1.356 . S
N2641 H2644 0.984 . S
N2641 H2645 0.985 . S
H2642 N2637 0.984 . S
H2643 N2637 0.985 . S
H2644 N2641 0.984 . S
H2645 N2641 0.985 . S
H2646 N2640 0.984 . S
H2647 N2640 0.984 . S
H2648 N2636 0.984 . S
H2649 N2636 0.985 . S
C2650 C2651 1.363 . S
C2650 C2656 1.379 . S
C2650 N2658 1.356 . S
C2651 C2650 1.363 . S
C2651 C2657 1.363 . S
C2652 C2653 1.363 . S
C2652 C2657 1.379 . S
C2652 N2659 1.356 . S
C2653 C2652 1.363 . S
C2653 C2656 1.363 . S
N2654 C2656 1.356 . S
N2654 H2666 0.984 . S
N2654 H2667 0.985 . S
N2655 C2657 1.356 . S
N2655 H2660 0.984 . S
N2655 H2661 0.985 . S
C2656 C2650 1.379 . S
C2656 C2653 1.363 . S
C2656 N2654 1.356 . S
C2657 C2651 1.363 . S
C2657 C2652 1.379 . S
C2657 N2655 1.356 . S
N2658 C2650 1.356 . S
N2658 H2664 0.984 . S
N2658 H2665 0.984 . S
N2659 C2652 1.356 . S
N2659 H2662 0.984 . S
N2659 H2663 0.985 . S
H2660 N2655 0.984 . S
H2661 N2655 0.985 . S
H2662 N2659 0.984 . S
H2663 N2659 0.985 . S
H2664 N2658 0.984 . S
H2665 N2658 0.984 . S
H2666 N2654 0.984 . S
H2667 N2654 0.985 . S
C2668 C2669 1.363 . S
C2668 C2674 1.379 . S
C2668 N2676 1.356 . S
C2669 C2668 1.363 . S
C2669 C2675 1.363 . S
C2670 C2671 1.363 . S
C2670 C2675 1.379 . S
C2670 N2677 1.356 . S
C2671 C2670 1.363 . S
C2671 C2674 1.363 . S
N2672 C2674 1.356 . S
N2672 H2684 0.984 . S
N2672 H2685 0.985 . S
N2673 C2675 1.356 . S
N2673 H2678 0.984 . S
N2673 H2679 0.985 . S
C2674 C2668 1.379 . S
C2674 C2671 1.363 . S
C2674 N2672 1.356 . S
C2675 C2669 1.363 . S
C2675 C2670 1.379 . S
C2675 N2673 1.356 . S
N2676 C2668 1.356 . S
N2676 H2682 0.984 . S
N2676 H2683 0.984 . S
N2677 C2670 1.356 . S
N2677 H2680 0.984 . S
N2677 H2681 0.985 . S
H2678 N2673 0.984 . S
H2679 N2673 0.985 . S
H2680 N2677 0.984 . S
H2681 N2677 0.985 . S
H2682 N2676 0.984 . S
H2683 N2676 0.984 . S
H2684 N2672 0.984 . S
H2685 N2672 0.985 . S
C2686 C2687 1.363 . S
C2686 C2692 1.379 . S
C2686 N2694 1.356 . S
C2687 C2686 1.363 . S
C2687 C2693 1.363 . S
C2688 C2689 1.363 . S
C2688 C2693 1.379 . S
C2688 N2695 1.356 . S
C2689 C2688 1.363 . S
C2689 C2692 1.363 . S
N2690 C2692 1.356 . S
N2690 H2702 0.984 . S
N2690 H2703 0.985 . S
N2691 C2693 1.356 . S
N2691 H2696 0.984 . S
N2691 H2697 0.985 . S
C2692 C2686 1.379 . S
C2692 C2689 1.363 . S
C2692 N2690 1.356 . S
C2693 C2687 1.363 . S
C2693 C2688 1.379 . S
C2693 N2691 1.356 . S
N2694 C2686 1.356 . S
N2694 H2700 0.984 . S
N2694 H2701 0.984 . S
N2695 C2688 1.356 . S
N2695 H2698 0.984 . S
N2695 H2699 0.985 . S
H2696 N2691 0.984 . S
H2697 N2691 0.985 . S
H2698 N2695 0.984 . S
H2699 N2695 0.985 . S
H2700 N2694 0.984 . S
H2701 N2694 0.984 . S
H2702 N2690 0.984 . S
H2703 N2690 0.985 . S
C2704 C2705 1.363 . S
C2704 C2710 1.379 . S
C2704 N2712 1.356 . S
C2705 C2704 1.363 . S
C2705 C2711 1.363 . S
C2706 C2707 1.363 . S
C2706 C2711 1.379 . S
C2706 N2713 1.356 . S
C2707 C2706 1.363 . S
C2707 C2710 1.363 . S
N2708 C2710 1.356 . S
N2708 H2720 0.984 . S
N2708 H2721 0.985 . S
N2709 C2711 1.356 . S
N2709 H2714 0.984 . S
N2709 H2715 0.985 . S
C2710 C2704 1.379 . S
C2710 C2707 1.363 . S
C2710 N2708 1.356 . S
C2711 C2705 1.363 . S
C2711 C2706 1.379 . S
C2711 N2709 1.356 . S
N2712 C2704 1.356 . S
N2712 H2718 0.984 . S
N2712 H2719 0.984 . S
N2713 C2706 1.356 . S
N2713 H2716 0.984 . S
N2713 H2717 0.985 . S
H2714 N2709 0.984 . S
H2715 N2709 0.985 . S
H2716 N2713 0.984 . S
H2717 N2713 0.985 . S
H2718 N2712 0.984 . S
H2719 N2712 0.984 . S
H2720 N2708 0.984 . S
H2721 N2708 0.985 . S
C2722 C2723 1.363 . S
C2722 C2728 1.379 . S
C2722 N2730 1.356 . S
C2723 C2722 1.363 . S
C2723 C2729 1.363 . S
C2724 C2725 1.363 . S
C2724 C2729 1.379 . S
C2724 N2731 1.356 . S
C2725 C2724 1.363 . S
C2725 C2728 1.363 . S
N2726 C2728 1.356 . S
N2726 H2738 0.984 . S
N2726 H2739 0.985 . S
N2727 C2729 1.356 . S
N2727 H2732 0.984 . S
N2727 H2733 0.985 . S
C2728 C2722 1.379 . S
C2728 C2725 1.363 . S
C2728 N2726 1.356 . S
C2729 C2723 1.363 . S
C2729 C2724 1.379 . S
C2729 N2727 1.356 . S
N2730 C2722 1.356 . S
N2730 H2736 0.984 . S
N2730 H2737 0.984 . S
N2731 C2724 1.356 . S
N2731 H2734 0.984 . S
N2731 H2735 0.985 . S
H2732 N2727 0.984 . S
H2733 N2727 0.985 . S
H2734 N2731 0.984 . S
H2735 N2731 0.985 . S
H2736 N2730 0.984 . S
H2737 N2730 0.984 . S
H2738 N2726 0.984 . S
H2739 N2726 0.985 . S
C2740 C2741 1.363 . S
C2740 C2746 1.379 . S
C2740 N2748 1.356 . S
C2741 C2740 1.363 . S
C2741 C2747 1.363 . S
C2742 C2743 1.363 . S
C2742 C2747 1.379 . S
C2742 N2749 1.356 . S
C2743 C2742 1.363 . S
C2743 C2746 1.363 . S
N2744 C2746 1.356 . S
N2744 H2756 0.984 . S
N2744 H2757 0.985 . S
N2745 C2747 1.356 . S
N2745 H2750 0.984 . S
N2745 H2751 0.985 . S
C2746 C2740 1.379 . S
C2746 C2743 1.363 . S
C2746 N2744 1.356 . S
C2747 C2741 1.363 . S
C2747 C2742 1.379 . S
C2747 N2745 1.356 . S
N2748 C2740 1.356 . S
N2748 H2754 0.984 . S
N2748 H2755 0.984 . S
N2749 C2742 1.356 . S
N2749 H2752 0.984 . S
N2749 H2753 0.985 . S
H2750 N2745 0.984 . S
H2751 N2745 0.985 . S
H2752 N2749 0.984 . S
H2753 N2749 0.985 . S
H2754 N2748 0.984 . S
H2755 N2748 0.984 . S
H2756 N2744 0.984 . S
H2757 N2744 0.985 . S
C2758 C2759 1.363 . S
C2758 C2764 1.379 . S
C2758 N2766 1.356 . S
C2759 C2758 1.363 . S
C2759 C2765 1.363 . S
C2760 C2761 1.363 . S
C2760 C2765 1.379 . S
C2760 N2767 1.356 . S
C2761 C2760 1.363 . S
C2761 C2764 1.363 . S
N2762 C2764 1.356 . S
N2762 H2774 0.984 . S
N2762 H2775 0.985 . S
N2763 C2765 1.356 . S
N2763 H2768 0.984 . S
N2763 H2769 0.985 . S
C2764 C2758 1.379 . S
C2764 C2761 1.363 . S
C2764 N2762 1.356 . S
C2765 C2759 1.363 . S
C2765 C2760 1.379 . S
C2765 N2763 1.356 . S
N2766 C2758 1.356 . S
N2766 H2772 0.984 . S
N2766 H2773 0.984 . S
N2767 C2760 1.356 . S
N2767 H2770 0.984 . S
N2767 H2771 0.985 . S
H2768 N2763 0.984 . S
H2769 N2763 0.985 . S
H2770 N2767 0.984 . S
H2771 N2767 0.985 . S
H2772 N2766 0.984 . S
H2773 N2766 0.984 . S
H2774 N2762 0.984 . S
H2775 N2762 0.985 . S
C2776 C2777 1.363 . S
C2776 C2782 1.379 . S
C2776 N2784 1.356 . S
C2777 C2776 1.363 . S
C2777 C2783 1.363 . S
C2778 C2779 1.363 . S
C2778 C2783 1.379 . S
C2778 N2785 1.356 . S
C2779 C2778 1.363 . S
C2779 C2782 1.363 . S
N2780 C2782 1.356 . S
N2780 H2792 0.984 . S
N2780 H2793 0.985 . S
N2781 C2783 1.356 . S
N2781 H2786 0.984 . S
N2781 H2787 0.985 . S
C2782 C2776 1.379 . S
C2782 C2779 1.363 . S
C2782 N2780 1.356 . S
C2783 C2777 1.363 . S
C2783 C2778 1.379 . S
C2783 N2781 1.356 . S
N2784 C2776 1.356 . S
N2784 H2790 0.984 . S
N2784 H2791 0.984 . S
N2785 C2778 1.356 . S
N2785 H2788 0.984 . S
N2785 H2789 0.985 . S
H2786 N2781 0.984 . S
H2787 N2781 0.985 . S
H2788 N2785 0.984 . S
H2789 N2785 0.985 . S
H2790 N2784 0.984 . S
H2791 N2784 0.984 . S
H2792 N2780 0.984 . S
H2793 N2780 0.985 . S
C2794 C2795 1.363 . S
C2794 C2800 1.379 . S
C2794 N2802 1.356 . S
C2795 C2794 1.363 . S
C2795 C2801 1.363 . S
C2796 C2797 1.363 . S
C2796 C2801 1.379 . S
C2796 N2803 1.356 . S
C2797 C2796 1.363 . S
C2797 C2800 1.363 . S
N2798 C2800 1.356 . S
N2798 H2810 0.984 . S
N2798 H2811 0.985 . S
N2799 C2801 1.356 . S
N2799 H2804 0.984 . S
N2799 H2805 0.985 . S
C2800 C2794 1.379 . S
C2800 C2797 1.363 . S
C2800 N2798 1.356 . S
C2801 C2795 1.363 . S
C2801 C2796 1.379 . S
C2801 N2799 1.356 . S
N2802 C2794 1.356 . S
N2802 H2808 0.984 . S
N2802 H2809 0.984 . S
N2803 C2796 1.356 . S
N2803 H2806 0.984 . S
N2803 H2807 0.985 . S
H2804 N2799 0.984 . S
H2805 N2799 0.985 . S
H2806 N2803 0.984 . S
H2807 N2803 0.985 . S
H2808 N2802 0.984 . S
H2809 N2802 0.984 . S
H2810 N2798 0.984 . S
H2811 N2798 0.985 . S
C2812 C2813 1.363 . S
C2812 C2818 1.379 . S
C2812 N2820 1.356 . S
C2813 C2812 1.363 . S
C2813 C2819 1.363 . S
C2814 C2815 1.363 . S
C2814 C2819 1.379 . S
C2814 N2821 1.356 . S
C2815 C2814 1.363 . S
C2815 C2818 1.363 . S
N2816 C2818 1.356 . S
N2816 H2828 0.984 . S
N2816 H2829 0.985 . S
N2817 C2819 1.356 . S
N2817 H2822 0.984 . S
N2817 H2823 0.985 . S
C2818 C2812 1.379 . S
C2818 C2815 1.363 . S
C2818 N2816 1.356 . S
C2819 C2813 1.363 . S
C2819 C2814 1.379 . S
C2819 N2817 1.356 . S
N2820 C2812 1.356 . S
N2820 H2826 0.984 . S
N2820 H2827 0.984 . S
N2821 C2814 1.356 . S
N2821 H2824 0.984 . S
N2821 H2825 0.985 . S
H2822 N2817 0.984 . S
H2823 N2817 0.985 . S
H2824 N2821 0.984 . S
H2825 N2821 0.985 . S
H2826 N2820 0.984 . S
H2827 N2820 0.984 . S
H2828 N2816 0.984 . S
H2829 N2816 0.985 . S
C2830 C2831 1.363 . S
C2830 C2836 1.379 . S
C2830 N2838 1.356 . S
C2831 C2830 1.363 . S
C2831 C2837 1.363 . S
C2832 C2833 1.363 . S
C2832 C2837 1.379 . S
C2832 N2839 1.356 . S
C2833 C2832 1.363 . S
C2833 C2836 1.363 . S
N2834 C2836 1.356 . S
N2834 H2846 0.984 . S
N2834 H2847 0.985 . S
N2835 C2837 1.356 . S
N2835 H2840 0.984 . S
N2835 H2841 0.985 . S
C2836 C2830 1.379 . S
C2836 C2833 1.363 . S
C2836 N2834 1.356 . S
C2837 C2831 1.363 . S
C2837 C2832 1.379 . S
C2837 N2835 1.356 . S
N2838 C2830 1.356 . S
N2838 H2844 0.984 . S
N2838 H2845 0.984 . S
N2839 C2832 1.356 . S
N2839 H2842 0.984 . S
N2839 H2843 0.985 . S
H2840 N2835 0.984 . S
H2841 N2835 0.985 . S
H2842 N2839 0.984 . S
H2843 N2839 0.985 . S
H2844 N2838 0.984 . S
H2845 N2838 0.984 . S
H2846 N2834 0.984 . S
H2847 N2834 0.985 . S
C1697 C675 1.709 . S
C1699 C38 1.720 . S
C1715 C1576 1.708 1_554 S
C1717 C91 1.720 . S
C1733 C781 1.709 . S
C1735 C144 1.720 . S
C1751 C1682 1.709 . S
C1753 C197 1.720 . S
C1769 C463 1.709 . S
C1771 C250 1.720 . S
C1787 C303 1.720 . S
C1789 C1364 1.708 1_556 S
C1805 C356 1.720 . S
C1807 C569 1.709 . S
C1823 C1470 1.708 . S
C1825 C409 1.720 . S
C1841 C251 1.714 . S
C1843 C462 1.726 . S
C1859 C1152 1.713 1_556 S
C1861 C515 1.726 . S
C1877 C357 1.714 . S
C1879 C568 1.726 . S
C1895 C1258 1.714 . S
C1897 C621 1.726 . S
C1913 C674 1.726 . S
C1915 C39 1.714 . S
C1931 C727 1.726 . S
C1933 C940 1.713 1_554 S
C1949 C145 1.714 . S
C1951 C780 1.726 . S
C1967 C833 1.726 . S
C1969 C1046 1.713 . S
C1985 C1523 1.709 . S
C1987 C886 1.720 . S
C2003 C728 1.709 . S
C2005 C939 1.720 . S
C2021 C1629 1.709 . S
C2023 C992 1.720 . S
C2039 C1045 1.720 . S
C2041 C834 1.708 1_554 S
C2057 C1098 1.720 . S
C2059 C1311 1.709 . S
C2075 C1151 1.720 . S
C2077 C516 1.708 . S
C2093 C1417 1.709 . S
C2095 C1204 1.720 . S
C2111 C622 1.708 1_556 S
C2113 C1257 1.720 . S
C2129 C1099 1.714 . S
C2131 C1310 1.726 . S
C2147 C1363 1.726 . S
C2149 C304 1.714 . S
C2165 C1416 1.726 . S
C2167 C1205 1.714 . S
C2183 C1469 1.726 . S
C2185 C410 1.713 1_556 S
C2201 C887 1.714 . S
C2203 C1522 1.726 . S
C2219 C92 1.713 . S
C2221 C1575 1.726 . S
C2237 C993 1.714 . S
C2239 C1628 1.726 . S
C2255 C1681 1.726 . S
C2257 C198 1.713 1_554 S
C2273 C29 2.427 . S
C2275 C453 2.444 . S
C2291 C82 2.427 . S
C2293 C1354 2.444 . S
C2309 C559 2.444 . S
C2311 C135 2.427 . S
C2327 C188 2.427 . S
C2329 C1460 2.444 . S
C2345 C241 2.427 . S
C2347 C665 2.444 . S
C2363 C1566 2.444 . S
C2365 C294 2.427 . S
C2381 C771 2.444 . S
C2383 C347 2.427 . S
C2399 C400 2.427 . S
C2401 C1672 2.444 . S
C2417 C506 2.444 . S
C2419 C930 2.427 . S
C2435 C612 2.444 . S
C2437 C1036 2.427 . S
C2453 C718 2.444 . S
C2455 C1142 2.427 . S
C2471 C1248 2.427 . S
C2473 C824 2.444 . S
C2489 C877 2.427 . S
C2491 C1301 2.444 . S
C2507 C983 2.427 . S
C2509 C1407 2.444 . S
C2525 C1089 2.427 . S
C2527 C1513 2.444 . S
C2543 C1619 2.444 . S
C2545 C1195 2.427 . S
C2561 C22 2.075 . S
C2563 C393 2.075 . S
C2579 C75 2.075 . S
C2581 C234 2.075 . S
C2597 C287 2.075 . S
C2599 C128 2.075 . S
C2615 C340 2.075 . S
C2617 C181 2.075 . S
C2633 C817 2.069 . S
C2635 C446 2.069 . S
C2651 C658 2.069 . S
C2653 C499 2.069 . S
C2669 C711 2.069 . S
C2671 C552 2.069 . S
C2687 C764 2.068 . S
C2689 C605 2.069 . S
C2705 C870 2.075 . S
C2707 C1241 2.075 . S
C2723 C1082 2.075 . S
C2725 C923 2.075 . S
C2741 C1135 2.075 . S
C2743 C976 2.075 . S
C2759 C1188 2.075 . S
C2761 C1029 2.075 . S
C2777 C1665 2.069 . S
C2779 C1294 2.069 . S
C2795 C1347 2.069 . S
C2797 C1506 2.069 . S
C2813 C1400 2.069 . S
C2815 C1559 2.069 . S
C2831 C1612 2.069 . S
C2833 C1453 2.069 . S
