# Generated by pormake.
# Topology vbc, (5)-cn, num edge types: 1
# Building blocks:
#     Node 0, Type 0, BuildingBlock: XOMCOT_clean_sbu_1, # of connection points: 5
#     Node 1, Type 0, BuildingBlock: XOMCOT_clean_sbu_1, # of connection points: 5
#     Node 2, Type 0, BuildingBlock: XOMCOT_clean_sbu_1, # of connection points: 5
#     Node 3, Type 0, BuildingBlock: XOMCOT_clean_sbu_1, # of connection points: 5
#     Node 4, Type 0, BuildingBlock: XOMCOT_clean_sbu_1, # of connection points: 5
#     Node 5, Type 0, BuildingBlock: XOMCOT_clean_sbu_1, # of connection points: 5
#     Node 6, Type 0, BuildingBlock: XOMCOT_clean_sbu_1, # of connection points: 5
#     Node 7, Type 0, BuildingBlock: XOMCOT_clean_sbu_1, # of connection points: 5
#     Node 8, Type 0, BuildingBlock: XOMCOT_clean_sbu_1, # of connection points: 5
#     Node 9, Type 0, BuildingBlock: XOMCOT_clean_sbu_1, # of connection points: 5
#     Node 10, Type 0, BuildingBlock: XOMCOT_clean_sbu_1, # of connection points: 5
#     Node 11, Type 0, BuildingBlock: XOMCOT_clean_sbu_1, # of connection points: 5
#     Node 12, Type 0, BuildingBlock: XOMCOT_clean_sbu_1, # of connection points: 5
#     Node 13, Type 0, BuildingBlock: XOMCOT_clean_sbu_1, # of connection points: 5
#     Node 14, Type 0, BuildingBlock: XOMCOT_clean_sbu_1, # of connection points: 5
#     Node 15, Type 0, BuildingBlock: XOMCOT_clean_sbu_1, # of connection points: 5
#     Node 16, Type 0, BuildingBlock: XOMCOT_clean_sbu_1, # of connection points: 5
#     Node 17, Type 0, BuildingBlock: XOMCOT_clean_sbu_1, # of connection points: 5
#     Node 18, Type 0, BuildingBlock: XOMCOT_clean_sbu_1, # of connection points: 5
#     Node 19, Type 0, BuildingBlock: XOMCOT_clean_sbu_1, # of connection points: 5
#     Node 20, Type 0, BuildingBlock: XOMCOT_clean_sbu_1, # of connection points: 5
#     Node 21, Type 0, BuildingBlock: XOMCOT_clean_sbu_1, # of connection points: 5
#     Node 22, Type 0, BuildingBlock: XOMCOT_clean_sbu_1, # of connection points: 5
#     Node 23, Type 0, BuildingBlock: XOMCOT_clean_sbu_1, # of connection points: 5
#     Node 24, Type 0, BuildingBlock: XOMCOT_clean_sbu_1, # of connection points: 5
#     Node 25, Type 0, BuildingBlock: XOMCOT_clean_sbu_1, # of connection points: 5
#     Node 26, Type 0, BuildingBlock: XOMCOT_clean_sbu_1, # of connection points: 5
#     Node 27, Type 0, BuildingBlock: XOMCOT_clean_sbu_1, # of connection points: 5
#     Node 28, Type 0, BuildingBlock: XOMCOT_clean_sbu_1, # of connection points: 5
#     Node 29, Type 0, BuildingBlock: XOMCOT_clean_sbu_1, # of connection points: 5
#     Node 30, Type 0, BuildingBlock: XOMCOT_clean_sbu_1, # of connection points: 5
#     Node 31, Type 0, BuildingBlock: XOMCOT_clean_sbu_1, # of connection points: 5
#     Edge 32, Type (0, 0), BuildingBlock: KIFKEQ_clean_linker_1, # of connection points: 2
#     Edge 33, Type (0, 0), BuildingBlock: KIFKEQ_clean_linker_1, # of connection points: 2
#     Edge 34, Type (0, 0), BuildingBlock: KIFKEQ_clean_linker_1, # of connection points: 2
#     Edge 35, Type (0, 0), BuildingBlock: KIFKEQ_clean_linker_1, # of connection points: 2
#     Edge 36, Type (0, 0), BuildingBlock: KIFKEQ_clean_linker_1, # of connection points: 2
#     Edge 37, Type (0, 0), BuildingBlock: KIFKEQ_clean_linker_1, # of connection points: 2
#     Edge 38, Type (0, 0), BuildingBlock: KIFKEQ_clean_linker_1, # of connection points: 2
#     Edge 39, Type (0, 0), BuildingBlock: KIFKEQ_clean_linker_1, # of connection points: 2
#     Edge 40, Type (0, 0), BuildingBlock: KIFKEQ_clean_linker_1, # of connection points: 2
#     Edge 41, Type (0, 0), BuildingBlock: KIFKEQ_clean_linker_1, # of connection points: 2
#     Edge 42, Type (0, 0), BuildingBlock: KIFKEQ_clean_linker_1, # of connection points: 2
#     Edge 43, Type (0, 0), BuildingBlock: KIFKEQ_clean_linker_1, # of connection points: 2
#     Edge 44, Type (0, 0), BuildingBlock: KIFKEQ_clean_linker_1, # of connection points: 2
#     Edge 45, Type (0, 0), BuildingBlock: KIFKEQ_clean_linker_1, # of connection points: 2
#     Edge 46, Type (0, 0), BuildingBlock: KIFKEQ_clean_linker_1, # of connection points: 2
#     Edge 47, Type (0, 0), BuildingBlock: KIFKEQ_clean_linker_1, # of connection points: 2
#     Edge 48, Type (0, 0), BuildingBlock: KIFKEQ_clean_linker_1, # of connection points: 2
#     Edge 49, Type (0, 0), BuildingBlock: KIFKEQ_clean_linker_1, # of connection points: 2
#     Edge 50, Type (0, 0), BuildingBlock: KIFKEQ_clean_linker_1, # of connection points: 2
#     Edge 51, Type (0, 0), BuildingBlock: KIFKEQ_clean_linker_1, # of connection points: 2
#     Edge 52, Type (0, 0), BuildingBlock: KIFKEQ_clean_linker_1, # of connection points: 2
#     Edge 53, Type (0, 0), BuildingBlock: KIFKEQ_clean_linker_1, # of connection points: 2
#     Edge 54, Type (0, 0), BuildingBlock: KIFKEQ_clean_linker_1, # of connection points: 2
#     Edge 55, Type (0, 0), BuildingBlock: KIFKEQ_clean_linker_1, # of connection points: 2
#     Edge 56, Type (0, 0), BuildingBlock: KIFKEQ_clean_linker_1, # of connection points: 2
#     Edge 57, Type (0, 0), BuildingBlock: KIFKEQ_clean_linker_1, # of connection points: 2
#     Edge 58, Type (0, 0), BuildingBlock: KIFKEQ_clean_linker_1, # of connection points: 2
#     Edge 59, Type (0, 0), BuildingBlock: KIFKEQ_clean_linker_1, # of connection points: 2
#     Edge 60, Type (0, 0), BuildingBlock: KIFKEQ_clean_linker_1, # of connection points: 2
#     Edge 61, Type (0, 0), BuildingBlock: KIFKEQ_clean_linker_1, # of connection points: 2
#     Edge 62, Type (0, 0), BuildingBlock: KIFKEQ_clean_linker_1, # of connection points: 2
#     Edge 63, Type (0, 0), BuildingBlock: KIFKEQ_clean_linker_1, # of connection points: 2
#     Edge 64, Type (0, 0), BuildingBlock: KIFKEQ_clean_linker_1, # of connection points: 2
#     Edge 65, Type (0, 0), BuildingBlock: KIFKEQ_clean_linker_1, # of connection points: 2
#     Edge 66, Type (0, 0), BuildingBlock: KIFKEQ_clean_linker_1, # of connection points: 2
#     Edge 67, Type (0, 0), BuildingBlock: KIFKEQ_clean_linker_1, # of connection points: 2
#     Edge 68, Type (0, 0), BuildingBlock: KIFKEQ_clean_linker_1, # of connection points: 2
#     Edge 69, Type (0, 0), BuildingBlock: KIFKEQ_clean_linker_1, # of connection points: 2
#     Edge 70, Type (0, 0), BuildingBlock: KIFKEQ_clean_linker_1, # of connection points: 2
#     Edge 71, Type (0, 0), BuildingBlock: KIFKEQ_clean_linker_1, # of connection points: 2
#     Edge 72, Type (0, 0), BuildingBlock: KIFKEQ_clean_linker_1, # of connection points: 2
#     Edge 73, Type (0, 0), BuildingBlock: KIFKEQ_clean_linker_1, # of connection points: 2
#     Edge 74, Type (0, 0), BuildingBlock: KIFKEQ_clean_linker_1, # of connection points: 2
#     Edge 75, Type (0, 0), BuildingBlock: KIFKEQ_clean_linker_1, # of connection points: 2
#     Edge 76, Type (0, 0), BuildingBlock: KIFKEQ_clean_linker_1, # of connection points: 2
#     Edge 77, Type (0, 0), BuildingBlock: KIFKEQ_clean_linker_1, # of connection points: 2
#     Edge 78, Type (0, 0), BuildingBlock: KIFKEQ_clean_linker_1, # of connection points: 2
#     Edge 79, Type (0, 0), BuildingBlock: KIFKEQ_clean_linker_1, # of connection points: 2
#     Edge 80, Type (0, 0), BuildingBlock: KIFKEQ_clean_linker_1, # of connection points: 2
#     Edge 81, Type (0, 0), BuildingBlock: KIFKEQ_clean_linker_1, # of connection points: 2
#     Edge 82, Type (0, 0), BuildingBlock: KIFKEQ_clean_linker_1, # of connection points: 2
#     Edge 83, Type (0, 0), BuildingBlock: KIFKEQ_clean_linker_1, # of connection points: 2
#     Edge 84, Type (0, 0), BuildingBlock: KIFKEQ_clean_linker_1, # of connection points: 2
#     Edge 85, Type (0, 0), BuildingBlock: KIFKEQ_clean_linker_1, # of connection points: 2
#     Edge 86, Type (0, 0), BuildingBlock: KIFKEQ_clean_linker_1, # of connection points: 2
#     Edge 87, Type (0, 0), BuildingBlock: KIFKEQ_clean_linker_1, # of connection points: 2
#     Edge 88, Type (0, 0), BuildingBlock: KIFKEQ_clean_linker_1, # of connection points: 2
#     Edge 89, Type (0, 0), BuildingBlock: KIFKEQ_clean_linker_1, # of connection points: 2
#     Edge 90, Type (0, 0), BuildingBlock: KIFKEQ_clean_linker_1, # of connection points: 2
#     Edge 91, Type (0, 0), BuildingBlock: KIFKEQ_clean_linker_1, # of connection points: 2
#     Edge 92, Type (0, 0), BuildingBlock: KIFKEQ_clean_linker_1, # of connection points: 2
#     Edge 93, Type (0, 0), BuildingBlock: KIFKEQ_clean_linker_1, # of connection points: 2
#     Edge 94, Type (0, 0), BuildingBlock: KIFKEQ_clean_linker_1, # of connection points: 2
#     Edge 95, Type (0, 0), BuildingBlock: KIFKEQ_clean_linker_1, # of connection points: 2
#     Edge 96, Type (0, 0), BuildingBlock: KIFKEQ_clean_linker_1, # of connection points: 2
#     Edge 97, Type (0, 0), BuildingBlock: KIFKEQ_clean_linker_1, # of connection points: 2
#     Edge 98, Type (0, 0), BuildingBlock: KIFKEQ_clean_linker_1, # of connection points: 2
#     Edge 99, Type (0, 0), BuildingBlock: KIFKEQ_clean_linker_1, # of connection points: 2
#     Edge 100, Type (0, 0), BuildingBlock: KIFKEQ_clean_linker_1, # of connection points: 2
#     Edge 101, Type (0, 0), BuildingBlock: KIFKEQ_clean_linker_1, # of connection points: 2
#     Edge 102, Type (0, 0), BuildingBlock: KIFKEQ_clean_linker_1, # of connection points: 2
#     Edge 103, Type (0, 0), BuildingBlock: KIFKEQ_clean_linker_1, # of connection points: 2
#     Edge 104, Type (0, 0), BuildingBlock: KIFKEQ_clean_linker_1, # of connection points: 2
#     Edge 105, Type (0, 0), BuildingBlock: KIFKEQ_clean_linker_1, # of connection points: 2
#     Edge 106, Type (0, 0), BuildingBlock: KIFKEQ_clean_linker_1, # of connection points: 2
#     Edge 107, Type (0, 0), BuildingBlock: KIFKEQ_clean_linker_1, # of connection points: 2
#     Edge 108, Type (0, 0), BuildingBlock: KIFKEQ_clean_linker_1, # of connection points: 2
#     Edge 109, Type (0, 0), BuildingBlock: KIFKEQ_clean_linker_1, # of connection points: 2
#     Edge 110, Type (0, 0), BuildingBlock: KIFKEQ_clean_linker_1, # of connection points: 2
#     Edge 111, Type (0, 0), BuildingBlock: KIFKEQ_clean_linker_1, # of connection points: 2
# Relax obj value: 0.109
# Max RMSD: 0.119
# Mean RMSD: 0.119
data_MOF--net-vbc--node1-XOMCOT_clean_sbu_1--edge1-KIFKEQ_clean_linker_1
_symmetry_space_group_name_H-M    P1
_symmetry_Int_Tables_number       1
_symmetry_cell_setting            triclinic
loop_
_symmetry_equiv_pos_as_xyz
'x, y, z'
_cell_length_a     40.338167
_cell_length_b     97.598591
_cell_length_c     43.68344
_cell_angle_alpha  89.897935
_cell_angle_beta   90.028294
_cell_angle_gamma 90.000504
loop_
_atom_site_label
_atom_site_type_symbol
_atom_site_fract_x
_atom_site_fract_y
_atom_site_fract_z
_atom_type_partial_charge
C0 C 0.12651 0.05289 0.46982 0.0
C1 C 0.0996 0.05013 0.48806 0.0
N2 N 0.0919 0.03672 0.48525 0.0
N3 N 0.13556 0.04135 0.45517 0.0
C4 C 0.1142 0.03169 0.46505 0.0
H5 H 0.13901 0.06264 0.46787 0.0
Co6 Co 0.17172 0.03882 0.4296 0.0
C7 C 0.13936 0.02768 0.37053 0.0
O8 O 0.16231 0.03413 0.35498 0.0
N9 N 0.20997 0.03632 0.40413 0.0
C10 C 0.25347 0.04093 0.37419 0.0
C11 C 0.22081 0.04389 0.38011 0.0
C12 C 0.23675 0.02862 0.41162 0.0
N13 N 0.26373 0.03146 0.39449 0.0
O14 O 0.18626 0.02295 0.45595 0.0
H15 H 0.20687 0.05185 0.36868 0.0
H16 H 0.23737 0.02153 0.43045 0.0
O17 O 0.14107 0.02782 0.40017 0.0
C18 C 0.20107 0.02805 0.4797 0.0
O19 O 0.20056 0.04145 0.48259 0.0
N20 N 0.16135 0.05556 0.40982 0.0
C21 C 0.15037 0.0832 0.39495 0.0
C22 C 0.12717 0.07302 0.38688 0.0
C23 C 0.13295 0.05923 0.3948 0.0
C24 C 0.18375 0.06534 0.41812 0.0
C25 C 0.17906 0.07908 0.41058 0.0
H26 H 0.11387 0.05174 0.39033 0.0
H27 H 0.20513 0.06245 0.43163 0.0
H28 H 0.11597 0.02107 0.45826 0.0
H29 H 0.0871 0.05749 0.50246 0.0
H30 H 0.26904 0.04628 0.35794 0.0
H31 H 0.10437 0.07571 0.37525 0.0
H32 H 0.19714 0.0865 0.41835 0.0
C33 C 0.13463 0.21779 0.47639 0.0
C34 C 0.16082 0.22073 0.4955 0.0
N35 N 0.17132 0.23357 0.48934 0.0
N36 N 0.12897 0.22867 0.45809 0.0
C37 C 0.15159 0.23809 0.46647 0.0
H38 H 0.11989 0.20853 0.47653 0.0
Co39 Co 0.09415 0.23134 0.43116 0.0
C40 C 0.13091 0.23869 0.37272 0.0
O41 O 0.11168 0.22948 0.35982 0.0
N42 N 0.05791 0.23456 0.40542 0.0
C43 C 0.02017 0.24608 0.37847 0.0
C44 C 0.05351 0.24401 0.3831 0.0
C45 C 0.02685 0.23152 0.41463 0.0
N46 N 1.00341 0.23831 0.39866 0.0
O47 O 0.07918 0.24763 0.45522 0.0
H48 H 0.07267 0.25035 0.37329 0.0
H49 H 0.02177 0.22535 0.43465 0.0
O50 O 0.12622 0.24149 0.40144 0.0
C51 C 0.06322 0.24337 0.47914 0.0
O52 O 0.06348 0.23016 0.48491 0.0
N53 N 0.10411 0.21408 0.41224 0.0
C54 C 0.11544 0.18619 0.39944 0.0
C55 C 0.14143 0.19578 0.39792 0.0
C56 C 0.13534 0.20966 0.40479 0.0
C57 C 0.07873 0.20484 0.41317 0.0
C58 C 0.08367 0.19104 0.40637 0.0
H59 H 0.15607 0.21666 0.40584 0.0
H60 H 0.05468 0.2078 0.42124 0.0
H61 H 0.15284 0.24822 0.45645 0.0
H62 H 0.1703 0.21417 0.51347 0.0
H63 H 0.00936 0.25377 0.36361 0.0
H64 H 0.16655 0.19249 0.39321 0.0
H65 H 0.06275 0.18412 0.40777 0.0
C66 C 0.13087 0.21919 0.86407 0.0
C67 C 0.10468 0.22184 0.84474 0.0
N68 N 0.09362 0.23463 0.85042 0.0
N69 N 0.13598 0.23021 0.88198 0.0
C70 C 0.11302 0.23942 0.8732 0.0
H71 H 0.146 0.21004 0.86431 0.0
Co72 Co 0.17042 0.2333 0.90894 0.0
C73 C 0.13287 0.24077 0.96697 0.0
O74 O 0.15271 0.23195 0.98049 0.0
N75 N 0.20628 0.2369 0.93483 0.0
C76 C 0.24359 0.24864 0.96177 0.0
C77 C 0.21031 0.24659 0.95663 0.0
C78 C 0.23748 0.2337 0.9264 0.0
N79 N 0.26064 0.24061 0.94237 0.0
O80 O 0.185 0.24952 0.88396 0.0
H81 H 0.19094 0.25301 0.96576 0.0
H82 H 0.24298 0.22734 0.90685 0.0
O83 O 0.13764 0.24337 0.93812 0.0
C84 C 0.20153 0.24478 0.86084 0.0
O85 O 0.20224 0.23142 0.85735 0.0
N86 N 0.16099 0.21608 0.92834 0.0
C87 C 0.15011 0.18808 0.94002 0.0
C88 C 0.12418 0.19761 0.94284 0.0
C89 C 0.13 0.21156 0.93637 0.0
C90 C 0.18635 0.20687 0.9263 0.0
C91 C 0.18161 0.19299 0.93242 0.0
H92 H 0.10914 0.21851 0.93585 0.0
H93 H 0.21004 0.20992 0.91752 0.0
H94 H 0.11128 0.24959 0.88287 0.0
H95 H 0.09558 0.21511 0.82696 0.0
H96 H 0.25425 0.25643 0.97638 0.0
H97 H 0.09924 0.19422 0.94802 0.0
H98 H 0.20233 0.18603 0.92977 0.0
C99 C 0.1368 0.05179 0.8646 0.0
C100 C 0.16304 0.04848 0.84595 0.0
N101 N 0.17324 0.0357 0.85313 0.0
N102 N 0.13071 0.04121 0.88361 0.0
C103 C 0.15317 0.03157 0.87612 0.0
H104 H 0.1223 0.06111 0.86366 0.0
Co105 Co 0.09547 0.03942 0.91039 0.0
C106 C 0.13275 0.03303 0.9695 0.0
O107 O 0.11451 0.04281 0.98145 0.0
N108 N 0.05875 0.03725 0.93607 0.0
C109 C 0.01962 0.02899 0.96707 0.0
C110 C 0.05322 0.02979 0.96173 0.0
C111 C 0.02812 0.04027 0.92569 0.0
N112 N 1.00404 0.0355 0.94411 0.0
O113 O 0.0795 0.02289 0.88732 0.0
H114 H 0.07162 0.02403 0.97419 0.0
H115 H 0.02348 0.04512 0.90381 0.0
O116 O 0.12675 0.0294 0.94141 0.0
C117 C 0.06451 0.02713 0.8628 0.0
O118 O 0.06586 0.04029 0.85662 0.0
N119 N 0.10636 0.0569 0.92779 0.0
C120 C 0.11868 0.0847 0.9412 0.0
C121 C 0.14423 0.07488 0.94268 0.0
C122 C 0.13771 0.06111 0.93538 0.0
C123 C 0.08156 0.06638 0.92591 0.0
C124 C 0.08699 0.08015 0.93281 0.0
H125 H 0.15812 0.05394 0.93477 0.0
H126 H 0.05763 0.06356 0.9171 0.0
H127 H 0.15409 0.02159 0.88687 0.0
H128 H 0.17275 0.05476 0.82761 0.0
H129 H 0.00755 0.023 0.98472 0.0
H130 H 0.16926 0.07783 0.9487 0.0
H131 H 0.06669 0.08728 0.92985 0.0
C132 C 0.87957 0.97014 0.61515 0.0
C133 C 0.90532 0.97254 0.59526 0.0
N134 N 0.91838 0.98489 0.6019 0.0
N135 N 0.87655 0.98093 0.63419 0.0
C136 C 0.90052 0.98974 0.62563 0.0
H137 H 0.86332 0.96132 0.61513 0.0
Co138 Co 0.84266 0.98365 0.6619 0.0
C139 C 0.8809 0.99059 0.71987 0.0
O140 O 0.86112 0.98159 0.73286 0.0
N141 N 0.80713 0.98672 0.68837 0.0
C142 C 0.76938 0.99757 0.71658 0.0
C143 C 0.80273 0.99611 0.71074 0.0
C144 C 0.77608 0.98309 0.68033 0.0
N145 N 0.75268 0.98937 0.69722 0.0
O146 O 0.8272 1.00006 0.63808 0.0
H147 H 0.82183 1.00263 0.72007 0.0
H148 H 0.77061 0.97717 0.66004 0.0
O149 O 0.87564 0.99369 0.69131 0.0
C150 C 0.81044 0.99591 0.61452 0.0
O151 O 0.80967 0.98268 0.60909 0.0
N152 N 0.8532 0.96633 0.68044 0.0
C153 C 0.86619 0.93857 0.69394 0.0
C154 C 0.89156 0.94847 0.69506 0.0
C155 C 0.8847 0.96221 0.68772 0.0
C156 C 0.82845 0.95681 0.67927 0.0
C157 C 0.83424 0.94305 0.68621 0.0
H158 H 0.90508 0.96938 0.68646 0.0
H159 H 0.80436 0.95953 0.67075 0.0
H160 H 0.90362 0.99983 0.63549 0.0
H161 H 0.91337 0.96587 0.57695 0.0
H162 H 0.75831 1.00479 0.73231 0.0
H163 H 0.91677 0.9456 0.70063 0.0
H164 H 0.814 0.93586 0.6836 0.0
C165 C 0.88058 0.80306 0.61369 0.0
C166 C 0.85434 0.80002 0.59475 0.0
N167 N 0.84386 0.78722 0.60126 0.0
N168 N 0.88633 0.79227 0.63223 0.0
C169 C 0.86369 0.7828 0.62416 0.0
H170 H 0.89533 0.81231 0.61322 0.0
Co171 Co 0.92139 0.78993 0.65899 0.0
C172 C 0.88428 0.78348 0.71798 0.0
O173 O 0.90377 0.79273 0.73035 0.0
N174 N 0.95795 0.78715 0.68456 0.0
C175 C 0.9966 0.77692 0.713 0.0
C176 C 0.96305 0.77848 0.70828 0.0
C177 C 0.98874 0.79025 0.67472 0.0
N178 N 0.0127 0.78432 0.69164 0.0
O179 O 0.93625 0.77336 0.63565 0.0
H180 H 0.9442 0.77245 0.71951 0.0
H181 H 0.9934 0.79559 0.65343 0.0
O182 O 0.88949 0.78011 0.68962 0.0
C183 C 0.95163 0.77745 0.61125 0.0
O184 O 0.95109 0.79061 0.60496 0.0
N185 N 0.91158 0.80742 0.67683 0.0
C186 C 0.90039 0.83539 0.68835 0.0
C187 C 0.87461 0.8258 0.69133 0.0
C188 C 0.88055 0.81189 0.68487 0.0
C189 C 0.93673 0.81671 0.67424 0.0
C190 C 0.93184 0.83058 0.68025 0.0
H191 H 0.85982 0.80487 0.68471 0.0
H192 H 0.96044 0.81367 0.66538 0.0
H193 H 0.86251 0.77271 0.63439 0.0
H194 H 0.84486 0.8065 0.57663 0.0
H195 H 0.00809 0.77016 0.72954 0.0
H196 H 0.8497 0.82912 0.69682 0.0
H197 H 0.95243 0.83759 0.67739 0.0
C198 C 0.88534 0.8023 0.2209 0.0
C199 C 0.91146 0.79955 0.24022 0.0
N200 N 0.9223 0.78673 0.23451 0.0
N201 N 0.88002 0.79131 0.20293 0.0
C202 C 0.90279 0.78202 0.21171 0.0
H203 H 0.8704 0.8115 0.22068 0.0
Co204 Co 0.84532 0.78854 0.176 0.0
C205 C 0.88257 0.7811 0.11782 0.0
O206 O 0.86272 0.79003 0.10468 0.0
N207 N 0.80913 0.7853 0.15023 0.0
C208 C 0.77111 0.77373 0.12379 0.0
C209 C 0.80453 0.77559 0.12859 0.0
C210 C 0.77813 0.78877 0.15881 0.0
N211 N 0.75451 0.78193 0.1432 0.0
O212 O 0.83002 0.7724 0.201 0.0
H213 H 0.82361 0.76904 0.11939 0.0
H214 H 0.7731 0.79526 0.17825 0.0
O215 O 0.87758 0.7782 0.14651 0.0
C216 C 0.81351 0.77738 0.22388 0.0
O217 O 0.81323 0.79078 0.22682 0.0
N218 N 0.8556 0.80571 0.15659 0.0
C219 C 0.86812 0.83349 0.14264 0.0
C220 C 0.89357 0.82362 0.14129 0.0
C221 C 0.88694 0.80987 0.14878 0.0
C222 C 0.83078 0.8152 0.15786 0.0
C223 C 0.83632 0.82895 0.1507 0.0
H224 H 0.90739 0.80273 0.14986 0.0
H225 H 0.80686 0.81248 0.16669 0.0
H226 H 0.90431 0.77184 0.20203 0.0
H227 H 0.92066 0.80625 0.25802 0.0
H228 H 0.76006 0.76594 0.10944 0.0
H229 H 0.91868 0.82654 0.13547 0.0
H230 H 0.81604 0.83611 0.15346 0.0
C231 C 0.87898 0.96783 0.22531 0.0
C232 C 0.85257 0.97042 0.24433 0.0
N233 N 0.84253 0.98344 0.23963 0.0
N234 N 0.8853 0.97911 0.20847 0.0
C235 C 0.86285 0.98844 0.21772 0.0
H236 H 0.8932 0.95845 0.22435 0.0
Co237 Co 0.9205 0.98192 0.18201 0.0
C238 C 0.88338 0.98959 0.12342 0.0
O239 O 0.90221 0.98038 0.11007 0.0
N240 N 0.95714 0.9851 0.15677 0.0
C241 C 0.99605 0.99501 0.12801 0.0
C242 C 0.96245 0.99354 0.13264 0.0
C243 C 0.98785 0.98213 0.16703 0.0
N244 N 0.01182 0.98791 0.15 0.0
O245 O 0.93548 0.9981 0.20692 0.0
H246 H 0.94378 0.99952 0.12104 0.0
H247 H 0.99252 0.97659 0.18807 0.0
O248 O 0.88861 0.99225 0.15217 0.0
C249 C 0.95095 0.99346 0.23082 0.0
O250 O 0.95003 0.98017 0.23559 0.0
N251 N 0.91082 0.96473 0.16266 0.0
C252 C 0.90005 0.93682 0.14997 0.0
C253 C 0.8742 0.9464 0.14707 0.0
C254 C 0.87994 0.96029 0.15407 0.0
C255 C 0.93609 0.95548 0.16494 0.0
C256 C 0.9314 0.94165 0.15836 0.0
H257 H 0.85914 0.96727 0.15435 0.0
H258 H 0.95969 0.95849 0.1741 0.0
H259 H 0.86257 0.99891 0.20952 0.0
H260 H 0.84198 0.96331 0.26063 0.0
H261 H 0.00787 1.00177 0.11166 0.0
H262 H 0.84936 0.94307 0.1413 0.0
H263 H 0.95207 0.93466 0.1611 0.0
C264 C 0.12929 0.55088 0.97425 0.0
C265 C 0.10268 0.54824 0.99304 0.0
N266 N 0.09153 0.5355 0.98698 0.0
N267 N 0.13464 0.5399 0.95624 0.0
C268 C 0.11138 0.53072 0.9645 0.0
H269 H 0.14451 0.56001 0.9744 0.0
Co270 Co 0.16977 0.53707 0.92975 0.0
C271 C 0.13204 0.53006 0.87131 0.0
O272 O 0.15122 0.53925 0.85827 0.0
N273 N 0.20636 0.53377 0.90453 0.0
C274 C 0.24486 0.52274 0.87749 0.0
C275 C 0.21133 0.52499 0.88104 0.0
C276 C 0.2371 0.53632 0.91525 0.0
N277 N 0.26092 0.52975 0.89944 0.0
O278 O 0.18428 0.52078 0.95451 0.0
H279 H 0.19226 0.51925 0.86943 0.0
H280 H 0.24165 0.54203 0.93601 0.0
O281 O 0.13768 0.52693 0.89977 0.0
C282 C 0.19963 0.52523 0.97861 0.0
O283 O 0.19902 0.53848 0.98376 0.0
N284 N 0.16047 0.55437 0.9106 0.0
C285 C 0.15003 0.58241 0.8988 0.0
C286 C 0.12384 0.57297 0.89649 0.0
C287 C 0.12944 0.55902 0.903 0.0
C288 C 0.18611 0.56348 0.91212 0.0
C289 C 0.18157 0.57738 0.90599 0.0
H290 H 0.10846 0.55213 0.90375 0.0
H291 H 0.21001 0.5603 0.92032 0.0
H292 H 0.1097 0.52058 0.95465 0.0
H293 H 0.09332 0.55496 1.01072 0.0
H294 H 0.2562 0.51547 0.862 0.0
H295 H 0.09889 0.57644 0.89159 0.0
H296 H 0.20252 0.58425 0.90817 0.0
C297 C 0.1374 0.71804 0.97133 0.0
C298 C 0.16344 0.72106 0.99043 0.0
N299 N 0.17293 0.7341 0.98509 0.0
N300 N 0.13078 0.72906 0.95373 0.0
C301 C 0.1527 0.73869 0.96263 0.0
H302 H 0.12356 0.70855 0.97084 0.0
Co303 Co 0.09547 0.73114 0.92707 0.0
C304 C 0.13237 0.73782 0.86794 0.0
O305 O 0.11382 0.72817 0.85584 0.0
N306 N 0.05865 0.73355 0.90164 0.0
C307 C 0.01932 0.74209 0.87122 0.0
C308 C 0.05296 0.74119 0.87627 0.0
C309 C 0.02809 0.73052 0.91216 0.0
N310 N 1.00389 0.73545 0.89409 0.0
O311 O 0.07994 0.74764 0.95055 0.0
H312 H 0.0713 0.74701 0.86388 0.0
H313 H 0.02361 0.72556 0.93395 0.0
O314 O 0.12679 0.74126 0.89622 0.0
C315 C 0.0651 0.74346 0.97518 0.0
O316 O 0.06644 0.7303 0.98148 0.0
N317 N 0.10596 0.7137 0.90913 0.0
C318 C 0.11807 0.68586 0.89589 0.0
C319 C 0.14356 0.69568 0.8939 0.0
C320 C 0.13716 0.70947 0.9011 0.0
C321 C 0.08115 0.70424 0.9113 0.0
C322 C 0.08649 0.69044 0.90453 0.0
H323 H 0.15761 0.71663 0.90149 0.0
H324 H 0.05735 0.70708 0.92034 0.0
H325 H 0.15259 0.74906 0.95385 0.0
H326 H 0.17413 0.71422 1.00727 0.0
H327 H 0.00713 0.74822 0.85387 0.0
H328 H 0.16851 0.69273 0.88763 0.0
H329 H 0.06623 0.68332 0.90784 0.0
C330 C 0.1314 0.71925 0.36629 0.0
C331 C 0.10515 0.72183 0.34707 0.0
N332 N 0.09462 0.73476 0.35204 0.0
N333 N 0.13711 0.73043 0.38356 0.0
C334 C 0.11446 0.73971 0.37435 0.0
H335 H 0.14594 0.70994 0.36713 0.0
Co336 Co 0.17193 0.73321 0.41045 0.0
C337 C 0.13413 0.74001 0.46877 0.0
O338 O 0.15355 0.73081 0.48153 0.0
N339 N 0.20824 0.73639 0.43628 0.0
C340 C 0.24619 0.74604 0.46637 0.0
C341 C 0.21281 0.74487 0.46034 0.0
C342 C 0.23926 0.73313 0.4274 0.0
N343 N 0.26288 0.73866 0.4454 0.0
O344 O 0.18667 0.74954 0.38591 0.0
H345 H 0.1938 0.7509 0.47127 0.0
H346 H 0.2444 0.72776 0.40632 0.0
O347 O 0.13952 0.74322 0.44031 0.0
C348 C 0.20273 0.74467 0.36265 0.0
O349 O 0.20286 0.73129 0.35932 0.0
N350 N 0.16238 0.71583 0.4292 0.0
C351 C 0.15158 0.68777 0.44042 0.0
C352 C 0.1256 0.69728 0.44327 0.0
C353 C 0.13137 0.71124 0.43702 0.0
C354 C 0.18777 0.70663 0.42698 0.0
C355 C 0.18307 0.69273 0.43288 0.0
H356 H 0.11048 0.71818 0.43658 0.0
H357 H 0.21148 0.70973 0.41826 0.0
H358 H 0.11373 0.75011 0.38285 0.0
H359 H 0.09501 0.71478 0.33044 0.0
H360 H 0.25717 0.75248 0.48377 0.0
H361 H 0.10066 0.69386 0.44837 0.0
H362 H 0.20383 0.68579 0.43017 0.0
C363 C 0.13559 0.55303 0.36117 0.0
C364 C 0.1621 0.55009 0.34251 0.0
N365 N 0.17244 0.53725 0.34877 0.0
N366 N 0.1295 0.54214 0.37929 0.0
C367 C 0.15221 0.53269 0.37124 0.0
H368 H 0.121 0.56233 0.3609 0.0
Co369 Co 0.09425 0.53985 0.40587 0.0
C370 C 0.13053 0.53214 0.46477 0.0
O371 O 0.11189 0.54149 0.47784 0.0
N372 N 0.0575 0.5372 0.43125 0.0
C373 C 0.01819 0.52769 0.46018 0.0
C374 C 0.0518 0.52868 0.45517 0.0
C375 C 0.02693 0.54067 0.42142 0.0
N376 N 1.00272 0.53514 0.43861 0.0
O377 O 0.07838 0.52367 0.38154 0.0
H378 H 0.07009 0.52233 0.46628 0.0
H379 H 0.02244 0.54632 0.40049 0.0
O380 O 0.12547 0.5294 0.43603 0.0
C381 C 0.06297 0.52819 0.35752 0.0
O382 O 0.06411 0.54144 0.35222 0.0
N383 N 0.10512 0.55698 0.4248 0.0
C384 C 0.11804 0.58456 0.43986 0.0
C385 C 0.1432 0.57457 0.44141 0.0
C386 C 0.13639 0.56091 0.43333 0.0
C387 C 0.08065 0.56661 0.42299 0.0
C388 C 0.08639 0.58027 0.4307 0.0
H389 H 0.1566 0.55365 0.43265 0.0
H390 H 0.05687 0.56403 0.41354 0.0
H391 H 0.15328 0.52256 0.38127 0.0
H392 H 0.17197 0.5567 0.3248 0.0
H393 H 1.00604 0.52096 0.4764 0.0
H394 H 0.1682 0.57732 0.44801 0.0
H395 H 0.0664 0.58755 0.42767 0.0
C396 C 0.88092 0.46761 0.11534 0.0
C397 C 0.90676 0.4706 0.09599 0.0
N398 N 0.91637 0.48363 0.1011 0.0
N399 N 0.87447 0.47866 0.13284 0.0
C400 C 0.89636 0.48826 0.12363 0.0
H401 H 0.86722 0.4581 0.11616 0.0
Co402 Co 0.83988 0.48061 0.16044 0.0
C403 C 0.87944 0.48867 0.2182 0.0
O404 O 0.86246 0.47918 0.23237 0.0
N405 N 0.80322 0.48256 0.18805 0.0
C406 C 0.76372 0.47826 0.22266 0.0
C407 C 0.79602 0.47587 0.21447 0.0
C408 C 0.77427 0.48886 0.1809 0.0
N409 N 0.74989 0.48632 0.20124 0.0
O410 O 0.82369 0.49697 0.1363 0.0
H411 H 0.8114 0.46828 0.22545 0.0
H412 H 0.76965 0.49402 0.15953 0.0
O413 O 0.87214 0.49129 0.1898 0.0
C414 C 0.80914 0.49247 0.11178 0.0
O415 O 0.8098 0.47918 0.10702 0.0
N416 N 0.85137 0.46335 0.17782 0.0
C417 C 0.86262 0.4353 0.18825 0.0
C418 C 0.88796 0.445 0.193 0.0
C419 C 0.88201 0.45898 0.1871 0.0
C420 C 0.82678 0.45402 0.17287 0.0
C421 C 0.83158 0.4401 0.17856 0.0
H422 H 0.90245 0.46611 0.18836 0.0
H423 H 0.80334 0.45736 0.16343 0.0
H424 H 0.89655 0.49861 0.13242 0.0
H425 H 0.91737 0.46371 0.07928 0.0
H426 H 0.75068 0.47341 0.24141 0.0
H427 H 0.91261 0.44175 0.19961 0.0
H428 H 0.81117 0.43312 0.17459 0.0
C429 C 0.87772 0.30137 0.11884 0.0
C430 C 0.85088 0.2983 0.10067 0.0
N431 N 0.84184 0.28522 0.10625 0.0
N432 N 0.88538 0.29032 0.13595 0.0
C433 C 0.86317 0.28067 0.12785 0.0
H434 H 0.89156 0.31086 0.11869 0.0
Co435 Co 0.9218 0.28792 0.16118 0.0
C436 C 0.88999 0.27746 0.22081 0.0
O437 O 0.9125 0.2845 0.23562 0.0
N438 N 0.96044 0.28541 0.18636 0.0
C439 C 1.00524 0.28978 0.21499 0.0
C440 C 0.97252 0.29306 0.20973 0.0
C441 C 0.98643 0.27729 0.17883 0.0
N442 N 0.0141 0.28001 0.19498 0.0
O443 O 0.93604 0.27209 0.13479 0.0
H444 H 0.95946 0.3013 0.22099 0.0
H445 H 0.98625 0.26996 0.16049 0.0
O446 O 0.89173 0.27699 0.1912 0.0
C447 C 0.951 0.27734 0.11126 0.0
O448 O 0.95081 0.29076 0.10886 0.0
N449 N 0.91146 0.30471 0.18068 0.0
C450 C 0.89952 0.33239 0.19434 0.0
C451 C 0.87624 0.32218 0.20205 0.0
C452 C 0.88251 0.30838 0.19471 0.0
C453 C 0.93389 0.31453 0.17259 0.0
C454 C 0.92876 0.32829 0.17965 0.0
H455 H 0.86334 0.30087 0.19874 0.0
H456 H 0.95563 0.31166 0.1596 0.0
H457 H 0.86337 0.27039 0.13709 0.0
H458 H 0.83999 0.30499 0.08364 0.0
H459 H 0.02194 0.29511 0.23029 0.0
H460 H 0.85301 0.32486 0.21288 0.0
H461 H 0.94693 0.33574 0.17216 0.0
C462 C 0.88193 0.3013 0.72038 0.0
C463 C 0.90882 0.29899 0.73905 0.0
N464 N 0.9195 0.28607 0.73435 0.0
N465 N 0.87598 0.28993 0.7038 0.0
C466 C 0.8991 0.28084 0.71284 0.0
H467 H 0.86715 0.31054 0.71945 0.0
Co468 Co 0.84065 0.28663 0.67789 0.0
C469 C 0.87685 0.27896 0.61947 0.0
O470 O 0.85626 0.28757 0.60626 0.0
N471 N 0.80384 0.28286 0.65327 0.0
C472 C 0.76515 0.27096 0.62834 0.0
C473 C 0.7987 0.27326 0.63148 0.0
C474 C 0.77316 0.28584 0.66355 0.0
N475 N 0.74927 0.27876 0.64898 0.0
O476 O 0.8269 0.27062 0.70384 0.0
H477 H 0.81768 0.26703 0.62108 0.0
H478 H 0.76867 0.29217 0.68342 0.0
O479 O 0.87257 0.27628 0.64834 0.0
C480 C 0.81135 0.27558 0.72728 0.0
O481 O 0.81122 0.28897 0.73041 0.0
N482 N 0.84958 0.30365 0.65739 0.0
C483 C 0.86087 0.33141 0.64276 0.0
C484 C 0.88669 0.32173 0.6414 0.0
C485 C 0.88065 0.30797 0.64915 0.0
C486 C 0.82428 0.31293 0.65832 0.0
C487 C 0.82923 0.32669 0.65084 0.0
H488 H 0.90142 0.30099 0.65028 0.0
H489 H 0.80042 0.31004 0.66713 0.0
H490 H 0.89981 0.27036 0.70482 0.0
H491 H 0.9193 0.30622 0.75512 0.0
H492 H 0.75368 0.26314 0.61433 0.0
H493 H 0.91165 0.32481 0.63544 0.0
H494 H 0.80867 0.33373 0.65338 0.0
C495 C 0.87709 0.46736 0.72648 0.0
C496 C 0.85094 0.47068 0.74518 0.0
N497 N 0.84111 0.48353 0.7384 0.0
N498 N 0.88361 0.47803 0.70781 0.0
C499 C 0.86141 0.48774 0.71562 0.0
H500 H 0.89113 0.45792 0.72706 0.0
Co501 Co 0.91855 0.47928 0.68039 0.0
C502 C 0.88141 0.48772 0.62138 0.0
O503 O 0.8994 0.47855 0.60732 0.0
N504 N 0.95559 0.4804 0.65297 0.0
C505 C 0.99501 0.47536 0.61883 0.0
C506 C 0.96292 0.47295 0.62769 0.0
C507 C 0.98434 0.48708 0.65895 0.0
N508 N 0.00869 0.48414 0.63882 0.0
O509 O 0.93577 0.49571 0.70362 0.0
H510 H 0.94735 0.4652 0.61755 0.0
H511 H 0.98862 0.49305 0.67921 0.0
O512 O 0.88738 0.49005 0.65014 0.0
C513 C 0.95019 0.49145 0.72845 0.0
O514 O 0.94871 0.47827 0.73442 0.0
N515 N 0.90581 0.46209 0.66381 0.0
C516 C 0.89371 0.43438 0.6504 0.0
C517 C 0.8693 0.44444 0.64505 0.0
C518 C 0.87563 0.45823 0.65243 0.0
C519 C 0.92902 0.45236 0.67042 0.0
C520 C 0.92377 0.43859 0.6635 0.0
H521 H 0.85596 0.46566 0.64994 0.0
H522 H 0.95182 0.45533 0.68165 0.0
H523 H 0.86061 0.49778 0.70509 0.0
H524 H 0.84087 0.46429 0.76318 0.0
H525 H 0.00775 0.47028 0.60024 0.0
H526 H 0.8454 0.44169 0.63563 0.0
H527 H 0.94286 0.43125 0.66942 0.0
C528 C 0.63053 0.05246 0.97339 0.0
C529 C 0.60405 0.04997 0.99239 0.0
N530 N 0.59359 0.03702 0.98758 0.0
N531 N 0.63647 0.04119 0.9565 0.0
C532 C 0.61373 0.03196 0.96567 0.0
H533 H 0.645 0.06178 0.97238 0.0
Co534 Co 0.67128 0.03839 0.92976 0.0
C535 C 0.63382 0.03032 0.8718 0.0
O536 O 0.65244 0.03952 0.85807 0.0
N537 N 0.70762 0.03526 0.90413 0.0
C538 C 0.74627 0.02584 0.87431 0.0
C539 C 0.71277 0.02679 0.88007 0.0
C540 C 0.73841 0.03871 0.91334 0.0
N541 N 0.76213 0.0333 0.89552 0.0
O542 O 0.68685 0.02238 0.95516 0.0
H543 H 0.69421 0.0205 0.86923 0.0
H544 H 0.74353 0.04432 0.93417 0.0
O545 O 0.6393 0.02778 0.90059 0.0
C546 C 0.70276 0.02738 0.9784 0.0
O547 O 0.70238 0.04076 0.98167 0.0
N548 N 0.66075 0.05539 0.90989 0.0
C549 C 0.64804 0.08302 0.89495 0.0
C550 C 0.62272 0.0731 0.89369 0.0
C551 C 0.62944 0.05942 0.90171 0.0
C552 C 0.68547 0.06492 0.91109 0.0
C553 C 0.67983 0.07862 0.90345 0.0
H554 H 0.60907 0.05224 0.90286 0.0
H555 H 0.70938 0.06227 0.9202 0.0
H556 H 0.61303 0.02152 0.95735 0.0
H557 H 0.59363 0.0571 1.00869 0.0
H558 H 0.75814 0.01919 0.85781 0.0
H559 H 0.59764 0.07592 0.88752 0.0
H560 H 0.69999 0.08584 0.90616 0.0
C561 C 0.6349 0.21654 0.97461 0.0
C562 C 0.6613 0.21897 0.99381 0.0
N563 N 0.67166 0.23197 0.98933 0.0
N564 N 0.62893 0.2279 0.95794 0.0
C565 C 0.65155 0.23711 0.96743 0.0
H566 H 0.62047 0.20721 0.97339 0.0
Co567 Co 0.59427 0.2312 0.93119 0.0
C568 C 0.63128 0.23907 0.87316 0.0
O569 O 0.61111 0.23043 0.85953 0.0
N570 N 0.55832 0.23506 0.90557 0.0
C571 C 0.52135 0.24747 0.87966 0.0
C572 C 0.55454 0.24512 0.88451 0.0
C573 C 0.52702 0.23192 0.9139 0.0
N574 N 0.50407 0.23925 0.89854 0.0
O575 O 0.57984 0.24725 0.95657 0.0
H576 H 0.57404 0.25164 0.87592 0.0
H577 H 0.52136 0.22534 0.93311 0.0
O578 O 0.62696 0.24143 0.90215 0.0
C579 C 0.56337 0.24239 0.97963 0.0
O580 O 0.56298 0.22902 0.98312 0.0
N581 N 0.60351 0.21414 0.91122 0.0
C582 C 0.61427 0.18624 0.89844 0.0
C583 C 0.64018 0.1958 0.89578 0.0
C584 C 0.63443 0.20968 0.90277 0.0
C585 C 0.57815 0.20492 0.91308 0.0
C586 C 0.58283 0.19109 0.90645 0.0
H587 H 0.6553 0.21662 0.90339 0.0
H588 H 0.55451 0.20792 0.92208 0.0
H589 H 0.65207 0.2476 0.95939 0.0
H590 H 0.67166 0.21177 1.01006 0.0
H591 H 0.51099 0.2556 0.86577 0.0
H592 H 0.66507 0.19246 0.8903 0.0
H593 H 0.56212 0.18411 0.90898 0.0
C594 C 0.63033 0.21971 0.36697 0.0
C595 C 0.60409 0.22217 0.34759 0.0
N596 N 0.59285 0.23497 0.35283 0.0
N597 N 0.63535 0.23086 0.38451 0.0
C598 C 0.61229 0.23998 0.3754 0.0
H599 H 0.64546 0.21057 0.36762 0.0
Co600 Co 0.66977 0.23384 0.41167 0.0
C601 C 0.63258 0.24238 0.46917 0.0
O602 O 0.65194 0.23352 0.48315 0.0
N603 N 0.70568 0.23727 0.43757 0.0
C604 C 0.74383 0.24901 0.46347 0.0
C605 C 0.7104 0.24726 0.45853 0.0
C606 C 0.73663 0.23354 0.42944 0.0
N607 N 0.7603 0.24045 0.44476 0.0
O608 O 0.68581 0.24962 0.38593 0.0
H609 H 0.69149 0.25408 0.46704 0.0
H610 H 0.74162 0.22679 0.41043 0.0
O611 O 0.63748 0.24463 0.44017 0.0
C612 C 0.7024 0.24453 0.36321 0.0
O613 O 0.70226 0.23114 0.36016 0.0
N614 N 0.65876 0.217 0.4321 0.0
C615 C 0.64496 0.18947 0.44709 0.0
C616 C 0.61976 0.19945 0.44723 0.0
C617 C 0.62709 0.21311 0.43943 0.0
C618 C 0.68337 0.20739 0.43218 0.0
C619 C 0.67719 0.19376 0.43997 0.0
H620 H 0.60693 0.22036 0.43752 0.0
H621 H 0.70767 0.20988 0.42393 0.0
H622 H 0.61038 0.25019 0.38478 0.0
H623 H 0.59499 0.21527 0.33015 0.0
H624 H 0.75502 0.25694 0.47733 0.0
H625 H 0.59437 0.19666 0.45229 0.0
H626 H 0.69732 0.18646 0.43831 0.0
C627 C 0.63609 0.05328 0.36691 0.0
C628 C 0.66266 0.05001 0.34866 0.0
N629 N 0.67225 0.03711 0.35537 0.0
N630 N 0.62911 0.04254 0.38524 0.0
C631 C 0.65146 0.03285 0.37771 0.0
H632 H 0.62197 0.06269 0.36601 0.0
Co633 Co 0.59317 0.04081 0.41135 0.0
C634 C 0.62673 0.0325 0.47163 0.0
O635 O 0.6059 0.04089 0.48494 0.0
N636 N 0.55508 0.03904 0.43749 0.0
C637 C 0.51159 0.04424 0.46697 0.0
C638 C 0.54397 0.04734 0.46012 0.0
C639 C 0.5288 0.03076 0.43193 0.0
N640 N 0.50179 0.03391 0.44873 0.0
O641 O 0.57835 0.02432 0.38738 0.0
H642 H 0.5574 0.05587 0.4698 0.0
H643 H 0.52857 0.02293 0.4147 0.0
O644 O 0.62362 0.03051 0.44243 0.0
C645 C 0.56335 0.02889 0.36315 0.0
O646 O 0.56352 0.0422 0.35872 0.0
N647 N 0.60376 0.05816 0.42826 0.0
C648 C 0.61393 0.08627 0.43826 0.0
C649 C 0.63774 0.07656 0.44755 0.0
C650 C 0.6325 0.06252 0.44175 0.0
C651 C 0.58081 0.06752 0.41879 0.0
C652 C 0.58504 0.08148 0.42403 0.0
H653 H 0.65217 0.05534 0.44668 0.0
H654 H 0.55912 0.06408 0.40642 0.0
H655 H 0.65181 0.02275 0.38793 0.0
H656 H 0.67301 0.05641 0.33083 0.0
H657 H 0.49581 0.05 0.48228 0.0
H658 H 0.66086 0.07982 0.45781 0.0
H659 H 0.56592 0.0885 0.41643 0.0
C660 C 0.38293 0.96957 0.11645 0.0
C661 C 0.40887 0.97242 0.09704 0.0
N662 N 0.41997 0.98515 0.10325 0.0
N663 N 0.378 0.9804 0.13497 0.0
C664 C 0.4008 0.98972 0.12641 0.0
H665 H 0.36791 0.96038 0.11644 0.0
Co666 Co 0.34384 0.98283 0.1626 0.0
C667 C 0.38325 0.98972 0.22011 0.0
O668 O 0.3651 0.98025 0.23342 0.0
N669 N 0.30816 0.98565 0.18914 0.0
C670 C 0.27059 0.99495 0.22008 0.0
C671 C 0.30389 0.99384 0.21374 0.0
C672 C 0.27708 0.98244 0.18037 0.0
N673 N 0.25368 0.98781 0.19882 0.0
O674 O 0.32805 0.9992 0.13883 0.0
H675 H 0.323 0.99976 0.22482 0.0
H676 H 0.27178 0.97724 0.15909 0.0
O677 O 0.37646 0.99301 0.19195 0.0
C678 C 0.31214 0.99487 0.11495 0.0
O679 O 0.31221 0.98162 0.10968 0.0
N680 N 0.35463 0.96552 0.18094 0.0
C681 C 0.36721 0.93774 0.19457 0.0
C682 C 0.39284 0.94753 0.19518 0.0
C683 C 0.38617 0.96128 0.18777 0.0
C684 C 0.32965 0.95609 0.1802 0.0
C685 C 0.33524 0.94232 0.18722 0.0
H686 H 0.40665 0.96839 0.18623 0.0
H687 H 0.30544 0.95891 0.17206 0.0
H688 H 0.40266 0.99978 0.13659 0.0
H689 H 0.41782 0.96585 0.0789 0.0
H690 H 0.25981 1.00121 0.23788 0.0
H691 H 0.41806 0.94458 0.20045 0.0
H692 H 0.31479 0.93521 0.18501 0.0
C693 C 0.37995 0.80323 0.11493 0.0
C694 C 0.35377 0.80042 0.09572 0.0
N695 N 0.34324 0.78755 0.10146 0.0
N696 N 0.38559 0.79222 0.13286 0.0
C697 C 0.36294 0.78287 0.12419 0.0
H698 H 0.39475 0.81247 0.11503 0.0
Co699 Co 0.42054 0.78936 0.1595 0.0
C700 C 0.3838 0.78179 0.21808 0.0
O701 O 0.40355 0.79066 0.23147 0.0
N702 N 0.45696 0.786 0.18492 0.0
C703 C 0.49503 0.77438 0.21128 0.0
C704 C 0.46161 0.77645 0.20698 0.0
C705 C 0.48792 0.78912 0.17555 0.0
N706 N 0.51156 0.78227 0.19113 0.0
O707 O 0.4351 0.77311 0.13499 0.0
H708 H 0.44252 0.77008 0.21682 0.0
H709 H 0.49281 0.79537 0.15562 0.0
O710 O 0.38839 0.77923 0.18922 0.0
C711 C 0.45095 0.77752 0.11113 0.0
O712 O 0.4509 0.79078 0.10595 0.0
N713 N 0.411 0.80656 0.17868 0.0
C714 C 0.39981 0.83447 0.19076 0.0
C715 C 0.37411 0.82485 0.19387 0.0
C716 C 0.38006 0.81095 0.18718 0.0
C717 C 0.43614 0.81585 0.17628 0.0
C718 C 0.43126 0.82969 0.18255 0.0
H719 H 0.35934 0.80393 0.18696 0.0
H720 H 0.45976 0.81288 0.16718 0.0
H721 H 0.3617 0.77268 0.13387 0.0
H722 H 0.34438 0.8071 0.07793 0.0
H723 H 0.50606 0.76665 0.22588 0.0
H724 H 0.34922 0.82815 0.19951 0.0
H725 H 0.45179 0.83673 0.17963 0.0
C726 C 0.37977 0.80256 0.72009 0.0
C727 C 0.40552 0.80027 0.74008 0.0
N728 N 0.41763 0.7876 0.73488 0.0
N729 N 0.37596 0.79144 0.70216 0.0
C730 C 0.39916 0.7825 0.71175 0.0
H731 H 0.36436 0.81161 0.71903 0.0
Co732 Co 0.34262 0.78842 0.6739 0.0
C733 C 0.38206 0.78121 0.61708 0.0
O734 O 0.36248 0.79013 0.60358 0.0
N735 N 0.30766 0.78495 0.64704 0.0
C736 C 0.27051 0.77364 0.61899 0.0
C737 C 0.30377 0.77525 0.62525 0.0
C738 C 0.27644 0.78863 0.65432 0.0
N739 N 0.25343 0.78211 0.63743 0.0
O740 O 0.32707 0.77221 0.69833 0.0
H741 H 0.32315 0.76868 0.61662 0.0
H742 H 0.27055 0.79492 0.67397 0.0
O743 O 0.37623 0.77819 0.64558 0.0
C744 C 0.31021 0.77652 0.72166 0.0
O745 O 0.30902 0.7898 0.72636 0.0
N746 N 0.3535 0.8056 0.65436 0.0
C747 C 0.36758 0.83319 0.64084 0.0
C748 C 0.39317 0.82352 0.64347 0.0
C749 C 0.38563 0.80977 0.64999 0.0
C750 C 0.32848 0.81496 0.65129 0.0
C751 C 0.33489 0.82865 0.6439 0.0
H752 H 0.40584 0.80266 0.65358 0.0
H753 H 0.30336 0.81228 0.65662 0.0
H754 H 0.40135 0.7722 0.70282 0.0
H755 H 0.41433 0.80735 0.75728 0.0
H756 H 0.25972 0.7662 0.60359 0.0
H757 H 0.41885 0.82665 0.6416 0.0
H758 H 0.31446 0.83584 0.64283 0.0
C759 C 0.38261 0.96713 0.72463 0.0
C760 C 0.35623 0.96943 0.74392 0.0
N761 N 0.34448 0.98215 0.73846 0.0
N762 N 0.38716 0.97829 0.7069 0.0
C763 C 0.36378 0.98726 0.71592 0.0
H764 H 0.39797 0.95805 0.72398 0.0
Co765 Co 0.42129 0.98176 0.67962 0.0
C766 C 0.38248 0.98958 0.62268 0.0
O767 O 0.40166 0.98064 0.60884 0.0
N768 N 0.45689 0.98583 0.65372 0.0
C769 C 0.49411 0.99717 0.62575 0.0
C770 C 0.4608 0.99528 0.63132 0.0
C771 C 0.48814 0.98263 0.66206 0.0
N772 N 0.51122 0.98916 0.64525 0.0
O773 O 0.43596 0.99765 0.70556 0.0
H774 H 0.4413 1.00147 0.62157 0.0
H775 H 0.4938 0.97642 0.68193 0.0
O776 O 0.38812 0.99218 0.65137 0.0
C777 C 0.45269 0.99261 0.72828 0.0
O778 O 0.45366 0.97919 0.73076 0.0
N779 N 0.41153 0.96475 0.65874 0.0
C780 C 0.40079 0.93684 0.64461 0.0
C781 C 0.37402 0.94599 0.6481 0.0
C782 C 0.37992 0.9599 0.65476 0.0
C783 C 0.43759 0.95608 0.65393 0.0
C784 C 0.43282 0.94241 0.64594 0.0
H785 H 0.35893 0.96653 0.65897 0.0
H786 H 0.46259 0.95928 0.65804 0.0
H787 H 0.36213 0.9976 0.70711 0.0
H788 H 0.34683 0.96236 0.76092 0.0
H789 H 0.50481 1.00444 0.60986 0.0
H790 H 0.34867 0.9424 0.64744 0.0
H791 H 0.45458 0.93615 0.64224 0.0
C792 C 0.62981 0.55175 0.47532 0.0
C793 C 0.60373 0.54888 0.49453 0.0
N794 N 0.59289 0.5361 0.4884 0.0
N795 N 0.63513 0.54088 0.45698 0.0
C796 C 0.61239 0.53152 0.46548 0.0
H797 H 0.64469 0.56097 0.47536 0.0
Co798 Co 0.66967 0.53848 0.42973 0.0
C799 C 0.63122 0.53158 0.37159 0.0
O800 O 0.64977 0.54103 0.35868 0.0
N801 N 0.70567 0.53568 0.40348 0.0
C802 C 0.74334 0.5265 0.37244 0.0
C803 C 0.71008 0.52737 0.37911 0.0
C804 C 0.73672 0.53915 0.41191 0.0
N805 N 0.76014 0.5339 0.39331 0.0
O806 O 0.68538 0.52214 0.45379 0.0
H807 H 0.69114 0.52125 0.36834 0.0
H808 H 0.74206 0.54447 0.43302 0.0
O809 O 0.63736 0.5283 0.3999 0.0
C810 C 0.70134 0.52669 0.47747 0.0
O811 O 0.70124 0.53999 0.48202 0.0
N812 N 0.6591 0.55584 0.41135 0.0
C813 C 0.64748 0.58361 0.39674 0.0
C814 C 0.62167 0.57389 0.39571 0.0
C815 C 0.62785 0.56014 0.40362 0.0
C816 C 0.68408 0.56524 0.41296 0.0
C817 C 0.679 0.57898 0.40547 0.0
H818 H 0.60723 0.55308 0.40464 0.0
H819 H 0.70785 0.56242 0.4221 0.0
H820 H 0.61082 0.52141 0.45544 0.0
H821 H 0.5945 0.55546 0.51251 0.0
H822 H 0.7542 0.52026 0.35464 0.0
H823 H 0.59672 0.5769 0.38953 0.0
H824 H 0.69947 0.58605 0.4082 0.0
C825 C 0.63793 0.71793 0.4704 0.0
C826 C 0.66426 0.72064 0.48944 0.0
N827 N 0.67404 0.73368 0.48463 0.0
N828 N 0.6314 0.72916 0.45346 0.0
C829 C 0.65367 0.73858 0.46263 0.0
H830 H 0.62385 0.7085 0.46953 0.0
Co831 Co 0.59609 0.7318 0.42709 0.0
C832 C 0.63282 0.7395 0.3683 0.0
O833 O 0.61398 0.73028 0.35496 0.0
N834 N 0.55928 0.73481 0.40198 0.0
C835 C 0.51999 0.74459 0.37345 0.0
C836 C 0.55365 0.74322 0.37787 0.0
C837 C 0.52871 0.73175 0.41243 0.0
N838 N 0.50449 0.73747 0.39555 0.0
O839 O 0.58118 0.74807 0.45161 0.0
H840 H 0.57213 0.74926 0.36618 0.0
H841 H 0.52434 0.72623 0.43356 0.0
O842 O 0.62769 0.74213 0.39707 0.0
C843 C 0.56615 0.74376 0.47602 0.0
O844 O 0.56721 0.73056 0.48187 0.0
N845 N 0.60593 0.71461 0.40792 0.0
C846 C 0.61707 0.68682 0.39356 0.0
C847 C 0.64276 0.69656 0.39136 0.0
C848 C 0.63682 0.71034 0.39907 0.0
C849 C 0.58096 0.70524 0.41027 0.0
C850 C 0.58582 0.69148 0.40296 0.0
H851 H 0.65745 0.71741 0.39935 0.0
H852 H 0.55749 0.7081 0.41996 0.0
H853 H 0.65374 0.74904 0.45437 0.0
H854 H 0.67496 0.7136 0.50585 0.0
H855 H 0.50795 0.75134 0.35719 0.0
H856 H 0.66748 0.69353 0.38455 0.0
H857 H 0.56547 0.68441 0.40646 0.0
C858 C 0.63089 0.72145 0.8628 0.0
C859 C 0.60429 0.72427 0.84418 0.0
N860 N 0.59269 0.73683 0.85134 0.0
N861 N 0.63584 0.73211 0.8818 0.0
C862 C 0.61234 0.74133 0.87428 0.0
H863 H 0.64634 0.7124 0.86194 0.0
Co864 Co 0.67082 0.7343 0.90872 0.0
C865 C 0.63276 0.74035 0.96748 0.0
O866 O 0.65107 0.73059 0.97953 0.0
N867 N 0.70737 0.73682 0.93452 0.0
C868 C 0.74628 0.74464 0.96634 0.0
C869 C 0.71268 0.74384 0.96079 0.0
C870 C 0.73809 0.73412 0.924 0.0
N871 N 0.76201 0.73858 0.94291 0.0
O872 O 0.68593 0.75094 0.88553 0.0
H873 H 0.69406 0.74918 0.97384 0.0
H874 H 0.74292 0.72949 0.90195 0.0
O875 O 0.63893 0.74407 0.93946 0.0
C876 C 0.70115 0.74681 0.86109 0.0
O877 O 0.70045 0.73364 0.85503 0.0
N878 N 0.66084 0.71672 0.92621 0.0
C879 C 0.64984 0.68868 0.93726 0.0
C880 C 0.62373 0.69817 0.93935 0.0
C881 C 0.62962 0.71212 0.93319 0.0
C882 C 0.6863 0.70754 0.92448 0.0
C883 C 0.68151 0.69365 0.93035 0.0
H884 H 0.60879 0.71909 0.93251 0.0
H885 H 0.71031 0.71068 0.91649 0.0
H886 H 0.61029 0.75127 0.88502 0.0
H887 H 0.59523 0.71782 0.82588 0.0
H888 H 0.75824 0.75018 0.98473 0.0
H889 H 0.59868 0.69475 0.94396 0.0
H890 H 0.70242 0.68674 0.92832 0.0
C891 C 0.63396 0.55361 0.86566 0.0
C892 C 0.65993 0.55052 0.84656 0.0
N893 N 0.66884 0.53739 0.8515 0.0
N894 N 0.6267 0.54252 0.88284 0.0
C895 C 0.64826 0.5328 0.87368 0.0
H896 H 0.62074 0.56324 0.86651 0.0
Co897 Co 0.59161 0.54081 0.91008 0.0
C898 C 0.62918 0.53195 0.96849 0.0
O899 O 0.61138 0.54105 0.98297 0.0
N900 N 0.55447 0.53917 0.93728 0.0
C901 C 0.51494 0.54366 0.97167 0.0
C902 C 0.54709 0.54615 0.96319 0.0
C903 C 0.52567 0.53267 0.93054 0.0
N904 N 0.5012 0.53531 0.95078 0.0
O905 O 0.57483 0.52468 0.88575 0.0
H906 H 0.56257 0.55376 0.97399 0.0
H907 H 0.52146 0.52707 0.90974 0.0
O908 O 0.62294 0.52979 0.93971 0.0
C909 C 0.56019 0.52958 0.86165 0.0
O910 O 0.56143 0.54292 0.85767 0.0
N911 N 0.60384 0.55783 0.92773 0.0
C912 C 0.61612 0.58558 0.94043 0.0
C913 C 0.6406 0.57554 0.94567 0.0
C914 C 0.63418 0.56173 0.93866 0.0
C915 C 0.5803 0.5675 0.92174 0.0
C916 C 0.58565 0.58129 0.92832 0.0
H917 H 0.65401 0.55434 0.94069 0.0
H918 H 0.55733 0.56451 0.91085 0.0
H919 H 0.64786 0.52239 0.88228 0.0
H920 H 0.67113 0.55743 0.83014 0.0
H921 H 0.50219 0.54844 0.99062 0.0
H922 H 0.66477 0.57834 0.95443 0.0
H923 H 0.56644 0.5886 0.92255 0.0
C924 C 0.38123 0.46963 0.61934 0.0
C925 C 0.40817 0.47179 0.60066 0.0
N926 N 0.41891 0.48474 0.60493 0.0
N927 N 0.37528 0.48112 0.63549 0.0
C928 C 0.39847 0.49014 0.6262 0.0
H929 H 0.36643 0.4604 0.62059 0.0
Co930 Co 0.33994 0.48458 0.66132 0.0
C931 C 0.37594 0.49326 0.7194 0.0
O932 O 0.35575 0.48475 0.73345 0.0
N933 N 0.30311 0.48847 0.68579 0.0
C934 C 0.26419 0.50052 0.71002 0.0
C935 C 0.29778 0.49835 0.70693 0.0
C936 C 0.27247 0.48522 0.6758 0.0
N937 N 0.24843 0.49237 0.68997 0.0
O938 O 0.32579 0.50031 0.63457 0.0
H939 H 0.31661 0.50483 0.71681 0.0
H940 H 0.26809 0.47862 0.65636 0.0
O941 O 0.37173 0.4953 0.69025 0.0
C942 C 0.31007 0.49516 0.61142 0.0
O943 O 0.31005 0.48174 0.60882 0.0
N944 N 0.34928 0.46782 0.68276 0.0
C945 C 0.36155 0.44021 0.69809 0.0
C946 C 0.38705 0.45004 0.69912 0.0
C947 C 0.3805 0.46374 0.69112 0.0
C948 C 0.32423 0.45841 0.68236 0.0
C949 C 0.32967 0.44472 0.69024 0.0
H950 H 0.40104 0.47083 0.6897 0.0
H951 H 0.30023 0.46111 0.67359 0.0
H952 H 0.39924 0.50067 0.63388 0.0
H953 H 0.41868 0.46445 0.58488 0.0
H954 H 0.25256 0.50847 0.72353 0.0
H955 H 0.41217 0.4471 0.70489 0.0
H956 H 0.30932 0.43756 0.68803 0.0
C957 C 0.37632 0.30469 0.61621 0.0
C958 C 0.35037 0.3013 0.5973 0.0
N959 N 0.3423 0.28809 0.60243 0.0
N960 N 0.38437 0.2937 0.63341 0.0
C961 C 0.3633 0.28375 0.62451 0.0
H962 H 0.389 0.31444 0.61685 0.0
Co963 Co 0.4197 0.29219 0.66035 0.0
C964 C 0.38422 0.28246 0.71933 0.0
O965 O 0.40263 0.29116 0.73443 0.0
N966 N 0.457 0.29073 0.68734 0.0
C967 C 0.4967 0.29545 0.72142 0.0
C968 C 0.46464 0.29804 0.71272 0.0
C969 C 0.48549 0.28392 0.68113 0.0
N970 N 0.51005 0.28667 0.7012 0.0
O971 O 0.43653 0.27603 0.63612 0.0
H972 H 0.44913 0.30573 0.72322 0.0
H973 H 0.4894 0.27792 0.66082 0.0
O974 O 0.38895 0.28117 0.69008 0.0
C975 C 0.45112 0.28084 0.61193 0.0
O976 O 0.4498 0.29417 0.60771 0.0
N977 N 0.40739 0.3092 0.67789 0.0
C978 C 0.39508 0.33709 0.68864 0.0
C979 C 0.37141 0.32707 0.69649 0.0
C980 C 0.3778 0.31313 0.69039 0.0
C981 C 0.43041 0.31884 0.6702 0.0
C982 C 0.42507 0.3327 0.67581 0.0
H983 H 0.35841 0.30569 0.69419 0.0
H984 H 0.45295 0.31573 0.65873 0.0
H985 H 0.36439 0.27337 0.63317 0.0
H986 H 0.33866 0.30804 0.58085 0.0
H987 H 0.50962 0.30035 0.74013 0.0
H988 H 0.34758 0.33002 0.70576 0.0
H989 H 0.44416 0.33997 0.66944 0.0
C990 C 0.38124 0.30118 0.2214 0.0
C991 C 0.40725 0.29846 0.24078 0.0
N992 N 0.41715 0.28543 0.23615 0.0
N993 N 0.37499 0.28997 0.20437 0.0
C994 C 0.39715 0.28054 0.21388 0.0
H995 H 0.36732 0.31063 0.22028 0.0
Co996 Co 0.34044 0.28772 0.17696 0.0
C997 C 0.3764 0.27763 0.11889 0.0
O998 O 0.35632 0.28547 0.10318 0.0
N999 N 0.30357 0.28551 0.14948 0.0
C1000 C 0.26295 0.28984 0.11605 0.0
C1001 C 0.29484 0.29291 0.1245 0.0
C1002 C 0.27605 0.27797 0.15533 0.0
N1003 N 0.25068 0.28059 0.13593 0.0
O1004 O 0.3246 0.27164 0.20177 0.0
H1005 H 0.30959 0.30087 0.11397 0.0
H1006 H 0.27359 0.27135 0.17482 0.0
O1007 O 0.37236 0.27682 0.14831 0.0
C1008 C 0.30812 0.27613 0.22517 0.0
O1009 O 0.30687 0.28946 0.22915 0.0
N1010 N 0.35208 0.30462 0.1585 0.0
C1011 C 0.36411 0.33229 0.14479 0.0
C1012 C 0.38827 0.3222 0.13894 0.0
C1013 C 0.38191 0.3084 0.14627 0.0
C1014 C 0.32885 0.31434 0.16499 0.0
C1015 C 0.33405 0.3281 0.15788 0.0
H1016 H 0.40149 0.30095 0.14354 0.0
H1017 H 0.30626 0.31139 0.17661 0.0
H1018 H 0.39757 0.27012 0.20548 0.0
H1019 H 0.41777 0.30552 0.25719 0.0
H1020 H 0.24942 0.29483 0.09782 0.0
H1021 H 0.41212 0.32498 0.1294 0.0
H1022 H 0.31511 0.33547 0.16394 0.0
C1023 C 0.38012 0.46738 0.2222 0.0
C1024 C 0.35422 0.47059 0.24127 0.0
N1025 N 0.3455 0.48373 0.23611 0.0
N1026 N 0.38751 0.47839 0.20483 0.0
C1027 C 0.36609 0.4882 0.21382 0.0
H1028 H 0.39325 0.45773 0.22154 0.0
Co1029 Co 0.4226 0.48001 0.17766 0.0
C1030 C 0.38557 0.48855 0.1188 0.0
O1031 O 0.40454 0.4798 0.1045 0.0
N1032 N 0.45986 0.48154 0.15054 0.0
C1033 C 0.50024 0.47646 0.11737 0.0
C1034 C 0.46777 0.47422 0.1252 0.0
C1035 C 0.4886 0.48806 0.15745 0.0
N1036 N 0.51348 0.48505 0.13799 0.0
O1037 O 0.43898 0.49641 0.20142 0.0
H1038 H 0.45246 0.46649 0.11462 0.0
H1039 H 0.49265 0.49376 0.17816 0.0
O1040 O 0.39109 0.49071 0.14769 0.0
C1041 C 0.45302 0.49211 0.22638 0.0
O1042 O 0.45174 0.47889 0.23207 0.0
N1043 N 0.4106 0.46284 0.16046 0.0
C1044 C 0.39864 0.43512 0.14721 0.0
C1045 C 0.37411 0.44514 0.14199 0.0
C1046 C 0.38041 0.45894 0.14918 0.0
C1047 C 0.43406 0.45316 0.16672 0.0
C1048 C 0.4289 0.43939 0.15979 0.0
H1049 H 0.36059 0.46632 0.14693 0.0
H1050 H 0.4569 0.45616 0.17783 0.0
H1051 H 0.36664 0.49857 0.20506 0.0
H1052 H 0.34297 0.46378 0.25784 0.0
H1053 H 0.51374 0.47122 0.09947 0.0
H1054 H 0.35008 0.44231 0.13294 0.0
H1055 H 0.44812 0.43206 0.16545 0.0
H1056 H 0.0916 0.09729 0.40031 0.0
H1057 H 0.19494 0.10316 0.37811 0.0
H1058 H 0.08294 0.12198 0.39806 0.0
H1059 H 0.18664 0.12788 0.37728 0.0
H1060 H 0.15506 0.17243 0.358 0.0
H1061 H 0.16237 0.1476 0.3528 0.0
H1062 H 0.09661 0.14112 0.42948 0.0
H1063 H 0.08926 0.16567 0.43445 0.0
C1064 C 0.11241 0.1038 0.39453 0.0
C1065 C 0.14404 0.09815 0.38967 0.0
C1066 C 0.10756 0.11803 0.39368 0.0
C1067 C 0.1342 0.12704 0.388 0.0
C1068 C 0.16548 0.12134 0.38166 0.0
C1069 C 0.17031 0.10712 0.38246 0.0
C1070 C 0.14229 0.16568 0.37376 0.0
C1071 C 0.12121 0.1711 0.39636 0.0
C1072 C 0.14643 0.15143 0.37079 0.0
C1073 C 0.12971 0.14225 0.39044 0.0
C1074 C 0.10915 0.14775 0.41332 0.0
C1075 C 0.105 0.16191 0.41623 0.0
H1076 H 0.17422 0.09963 0.92569 0.0
H1077 H 0.0774 0.10408 0.96674 0.0
H1078 H 0.18215 0.12426 0.92839 0.0
H1079 H 0.08438 0.12882 0.96742 0.0
H1080 H 0.1164 0.17339 0.98417 0.0
H1081 H 0.11041 0.14844 0.98789 0.0
H1082 H 0.16407 0.14394 0.90286 0.0
H1083 H 0.17078 0.1686 0.89988 0.0
C1084 C 0.15468 0.1058 0.93557 0.0
C1085 C 0.12501 0.09972 0.94572 0.0
C1086 C 0.15899 0.12004 0.93663 0.0
C1087 C 0.13367 0.12871 0.94757 0.0
C1088 C 0.10455 0.12259 0.95888 0.0
C1089 C 0.10036 0.10833 0.9581 0.0
C1090 C 0.1268 0.16701 0.96632 0.0
C1091 C 0.14442 0.17298 0.94196 0.0
C1092 C 0.12337 0.15269 0.96837 0.0
C1093 C 0.13715 0.14401 0.94589 0.0
C1094 C 0.15398 0.15012 0.92117 0.0
C1095 C 0.15766 0.16434 0.91932 0.0
H1096 H 0.86697 0.84952 0.73339 0.0
H1097 H 0.92044 0.85534 0.64888 0.0
H1098 H 0.86041 0.87438 0.73819 0.0
H1099 H 0.91312 0.87995 0.65291 0.0
H1100 H 0.92193 0.92408 0.67719 0.0
H1101 H 0.9307 0.89949 0.67888 0.0
H1102 H 0.83364 0.89404 0.7189 0.0
H1103 H 0.82589 0.91873 0.71932 0.0
C1104 C 0.87704 0.85611 0.71572 0.0
C1105 C 0.89454 0.85045 0.69096 0.0
C1106 C 0.87327 0.87038 0.71839 0.0
C1107 C 0.88658 0.87934 0.69614 0.0
C1108 C 0.90336 0.87355 0.67105 0.0
C1109 C 0.9074 0.85936 0.66859 0.0
C1110 C 0.90274 0.91772 0.6871 0.0
C1111 C 0.87304 0.92355 0.69787 0.0
C1112 C 0.90752 0.9035 0.68756 0.0
C1113 C 0.88264 0.8946 0.69846 0.0
C1114 C 0.85349 0.90045 0.71037 0.0
C1115 C 0.84885 0.91469 0.71022 0.0
H1116 H 0.92036 0.91675 0.18907 0.0
H1117 H 0.8668 0.92274 0.10463 0.0
H1118 H 0.91366 0.89214 0.18449 0.0
H1119 H 0.86081 0.89786 0.09931 0.0
H1120 H 0.8274 0.85323 0.11743 0.0
H1121 H 0.83457 0.87796 0.11819 0.0
H1122 H 0.93183 0.87279 0.15803 0.0
H1123 H 0.92369 0.84814 0.15929 0.0
C1124 C 0.90743 0.91277 0.16925 0.0
C1125 C 0.8944 0.92174 0.14705 0.0
C1126 C 0.90375 0.89858 0.16648 0.0
C1127 C 0.88714 0.89283 0.14124 0.0
C1128 C 0.87359 0.90183 0.1192 0.0
C1129 C 0.87702 0.91611 0.12217 0.0
C1130 C 0.8503 0.85734 0.12652 0.0
C1131 C 0.87472 0.84854 0.13872 0.0
C1132 C 0.8546 0.8716 0.12659 0.0
C1133 C 0.88361 0.87754 0.13858 0.0
C1134 C 0.90874 0.8687 0.14929 0.0
C1135 C 0.90432 0.85445 0.1495 0.0
H1136 H 0.17411 0.67107 0.91075 0.0
H1137 H 0.07637 0.66623 0.87174 0.0
H1138 H 0.18228 0.64645 0.90844 0.0
H1139 H 0.0836 0.64152 0.87155 0.0
H1140 H 0.1151 0.59695 0.8552 0.0
H1141 H 0.10898 0.62187 0.85109 0.0
H1142 H 0.16562 0.62676 0.9344 0.0
H1143 H 0.17248 0.6021 0.93772 0.0
C1144 C 0.1544 0.66482 0.90141 0.0
C1145 C 0.12442 0.6708 0.8917 0.0
C1146 C 0.15886 0.65058 0.90059 0.0
C1147 C 0.1334 0.6418 0.89035 0.0
C1148 C 0.10392 0.64782 0.87952 0.0
C1149 C 0.09958 0.66208 0.88004 0.0
C1150 C 0.12615 0.6034 0.87258 0.0
C1151 C 0.1446 0.59753 0.89655 0.0
C1152 C 0.12263 0.61771 0.87032 0.0
C1153 C 0.13714 0.6265 0.89221 0.0
C1154 C 0.15491 0.62049 0.91652 0.0
C1155 C 0.15869 0.60628 0.91856 0.0
H1156 H 0.07699 0.60403 0.46536 0.0
H1157 H 0.17437 0.59923 0.42564 0.0
H1158 H 0.0847 0.62872 0.46661 0.0
H1159 H 0.18299 0.62381 0.42892 0.0
H1160 H 0.17286 0.66828 0.40055 0.0
H1161 H 0.16581 0.64362 0.40334 0.0
H1162 H 0.11091 0.64816 0.48768 0.0
H1163 H 0.11728 0.6731 0.48417 0.0
C1164 C 0.10024 0.60819 0.45716 0.0
C1165 C 0.12482 0.5995 0.44494 0.0
C1166 C 0.10484 0.62242 0.45827 0.0
C1167 C 0.13432 0.62843 0.44747 0.0
C1168 C 0.15958 0.61968 0.43676 0.0
C1169 C 0.15485 0.60546 0.43537 0.0
C1170 C 0.15943 0.66402 0.41982 0.0
C1171 C 0.14591 0.67267 0.44231 0.0
C1172 C 0.15553 0.64981 0.42155 0.0
C1173 C 0.13821 0.64372 0.446 0.0
C1174 C 0.12423 0.65241 0.46836 0.0
C1175 C 0.12788 0.66672 0.46643 0.0
H1176 H 0.89914 0.42145 0.23202 0.0
H1177 H 0.83993 0.41481 0.15101 0.0
H1178 H 0.90691 0.39665 0.23716 0.0
H1179 H 0.84753 0.39025 0.15615 0.0
H1180 H 0.84094 0.34627 0.18584 0.0
H1181 H 0.8317 0.37096 0.1873 0.0
H1182 H 0.93395 0.37722 0.21304 0.0
H1183 H 0.94285 0.3525 0.2127 0.0
C1184 C 0.88791 0.41474 0.21524 0.0
C1185 C 0.86855 0.4202 0.19133 0.0
C1186 C 0.8923 0.4005 0.2182 0.0
C1187 C 0.87748 0.39136 0.19731 0.0
C1188 C 0.85859 0.39688 0.17319 0.0
C1189 C 0.85426 0.41104 0.17022 0.0
C1190 C 0.86127 0.35287 0.1925 0.0
C1191 C 0.89271 0.34733 0.19895 0.0
C1192 C 0.85611 0.36708 0.19293 0.0
C1193 C 0.8822 0.37617 0.19986 0.0
C1194 C 0.91322 0.37059 0.20769 0.0
C1195 C 0.9184 0.35638 0.20721 0.0
H1196 H 0.93794 0.4154 0.62846 0.0
H1197 H 0.8363 0.41941 0.65824 0.0
H1198 H 0.93057 0.39073 0.62349 0.0
H1199 H 0.82884 0.3947 0.6527 0.0
H1200 H 0.81993 0.35077 0.6165 0.0
H1201 H 0.82717 0.37558 0.61536 0.0
H1202 H 0.92285 0.37117 0.65851 0.0
H1203 H 0.91543 0.34642 0.66033 0.0
C1204 C 0.91397 0.41105 0.63393 0.0
C1205 C 0.88784 0.41948 0.64411 0.0
C1206 C 0.90976 0.39687 0.63104 0.0
C1207 C 0.87921 0.39067 0.63795 0.0
C1208 C 0.85265 0.39912 0.64694 0.0
C1209 C 0.85692 0.41333 0.65004 0.0
C1210 C 0.84254 0.35505 0.62582 0.0
C1211 C 0.867 0.34647 0.63867 0.0
C1212 C 0.84666 0.36932 0.62514 0.0
C1213 C 0.8755 0.37542 0.63699 0.0
C1214 C 0.90046 0.36684 0.64885 0.0
C1215 C 0.89624 0.35258 0.64976 0.0
H1216 H 0.68877 0.10272 0.86958 0.0
H1217 H 0.59199 0.0976 0.91038 0.0
H1218 H 0.68108 0.12743 0.86931 0.0
H1219 H 0.58335 0.1222 0.90804 0.0
H1220 H 0.59361 0.16637 0.9378 0.0
H1221 H 0.60079 0.14176 0.93409 0.0
H1222 H 0.65464 0.14709 0.84936 0.0
H1223 H 0.64817 0.17198 0.85382 0.0
C1224 C 0.66566 0.10681 0.87822 0.0
C1225 C 0.64125 0.09802 0.89043 0.0
C1226 C 0.66106 0.12106 0.87768 0.0
C1227 C 0.63175 0.12698 0.88906 0.0
C1228 C 0.60664 0.11813 0.89977 0.0
C1229 C 0.61137 0.10391 0.9006 0.0
C1230 C 0.60683 0.1623 0.91825 0.0
C1231 C 0.62001 0.17116 0.89593 0.0
C1232 C 0.61081 0.14811 0.91598 0.0
C1233 C 0.62787 0.14225 0.89114 0.0
C1234 C 0.64153 0.15115 0.86895 0.0
C1235 C 0.63781 0.16544 0.87143 0.0
H1236 H 0.59121 0.17489 0.42625 0.0
H1237 H 0.68275 0.16993 0.47636 0.0
H1238 H 0.58311 0.15017 0.42686 0.0
H1239 H 0.67546 0.14514 0.47568 0.0
H1240 H 0.63938 0.10052 0.48751 0.0
H1241 H 0.64492 0.12541 0.49309 0.0
H1242 H 0.60678 0.13093 0.40147 0.0
H1243 H 0.60106 0.1063 0.39612 0.0
C1244 C 0.60941 0.16858 0.43781 0.0
C1245 C 0.63777 0.1745 0.45106 0.0
C1246 C 0.60504 0.15432 0.43774 0.0
C1247 C 0.62891 0.14554 0.45084 0.0
C1248 C 0.65648 0.1515 0.46539 0.0
C1249 C 0.66082 0.16577 0.46552 0.0
C1250 C 0.63239 0.10707 0.46854 0.0
C1251 C 0.61938 0.10137 0.44153 0.0
C1252 C 0.63551 0.12136 0.47173 0.0
C1253 C 0.62582 0.13028 0.44791 0.0
C1254 C 0.61359 0.12449 0.42069 0.0
C1255 C 0.61042 0.1103 0.41756 0.0
H1256 H 0.36719 0.84883 0.23598 0.0
H1257 H 0.4189 0.85418 0.1504 0.0
H1258 H 0.36092 0.87374 0.2403 0.0
H1259 H 0.41185 0.87881 0.15396 0.0
H1260 H 0.42229 0.92296 0.17728 0.0
H1261 H 0.43052 0.89834 0.17936 0.0
H1262 H 0.33409 0.89343 0.22097 0.0
H1263 H 0.32689 0.91817 0.22096 0.0
C1264 C 0.37692 0.85532 0.21798 0.0
C1265 C 0.39389 0.84953 0.19307 0.0
C1266 C 0.37332 0.86962 0.22037 0.0
C1267 C 0.38628 0.87844 0.19769 0.0
C1268 C 0.40242 0.87251 0.17242 0.0
C1269 C 0.40629 0.85831 0.17024 0.0
C1270 C 0.40313 0.91672 0.18762 0.0
C1271 C 0.37376 0.92271 0.1987 0.0
C1272 C 0.4076 0.90248 0.18831 0.0
C1273 C 0.38271 0.89373 0.19977 0.0
C1274 C 0.35392 0.89974 0.212 0.0
C1275 C 0.34959 0.914 0.21161 0.0
H1276 H 0.34357 0.85169 0.59899 0.0
H1277 H 0.40607 0.84848 0.67866 0.0
H1278 H 0.35208 0.87648 0.59795 0.0
H1279 H 0.41284 0.87319 0.67934 0.0
H1280 H 0.44276 0.91626 0.66412 0.0
H1281 H 0.43679 0.89194 0.65941 0.0
H1282 H 0.33997 0.8975 0.61876 0.0
H1283 H 0.34775 0.92221 0.6201 0.0
C1284 C 0.3592 0.85634 0.61626 0.0
C1285 C 0.3746 0.84814 0.6386 0.0
C1286 C 0.3638 0.87061 0.61597 0.0
C1287 C 0.38327 0.87711 0.63853 0.0
C1288 C 0.39847 0.86876 0.66094 0.0
C1289 C 0.39453 0.8545 0.66072 0.0
C1290 C 0.42051 0.91249 0.65319 0.0
C1291 C 0.39605 0.92155 0.642 0.0
C1292 C 0.41668 0.89829 0.65122 0.0
C1293 C 0.38767 0.89245 0.63902 0.0
C1294 C 0.36296 0.90144 0.62798 0.0
C1295 C 0.36719 0.91575 0.62923 0.0
H1296 H 0.68966 0.60239 0.3702 0.0
H1297 H 0.5923 0.59912 0.41085 0.0
H1298 H 0.68308 0.62717 0.36668 0.0
H1299 H 0.58544 0.62387 0.40623 0.0
H1300 H 0.57428 0.66772 0.36916 0.0
H1301 H 0.58084 0.64291 0.36726 0.0
H1302 H 0.67957 0.64673 0.40424 0.0
H1303 H 0.67276 0.67154 0.40724 0.0
C1304 C 0.66679 0.60689 0.37835 0.0
C1305 C 0.64168 0.59861 0.39115 0.0
C1306 C 0.66303 0.62114 0.37623 0.0
C1307 C 0.63385 0.62754 0.38636 0.0
C1308 C 0.60816 0.61927 0.39798 0.0
C1309 C 0.61207 0.60502 0.40048 0.0
C1310 C 0.5974 0.66333 0.37706 0.0
C1311 C 0.62283 0.67178 0.38869 0.0
C1312 C 0.60114 0.64906 0.37588 0.0
C1313 C 0.63061 0.6428 0.38581 0.0
C1314 C 0.65661 0.65123 0.39619 0.0
C1315 C 0.65273 0.6655 0.39775 0.0
H1316 H 0.61293 0.67445 0.9799 0.0
H1317 H 0.67385 0.66872 0.89977 0.0
H1318 H 0.60627 0.64957 0.98437 0.0
H1319 H 0.66676 0.64409 0.90368 0.0
H1320 H 0.67377 0.59994 0.92988 0.0
H1321 H 0.68232 0.6246 0.93222 0.0
H1322 H 0.58098 0.63006 0.96176 0.0
H1323 H 0.57307 0.60535 0.96121 0.0
C1324 C 0.62469 0.66789 0.96314 0.0
C1325 C 0.64424 0.67359 0.93972 0.0
C1326 C 0.62089 0.65361 0.96565 0.0
C1327 C 0.63631 0.6447 0.94462 0.0
C1328 C 0.65528 0.6505 0.92088 0.0
C1329 C 0.65923 0.66469 0.91853 0.0
C1330 C 0.65352 0.60634 0.93759 0.0
C1331 C 0.62262 0.60055 0.94507 0.0
C1332 C 0.65825 0.62056 0.93847 0.0
C1333 C 0.63218 0.62945 0.94666 0.0
C1334 C 0.60173 0.62362 0.95541 0.0
C1335 C 0.59706 0.6094 0.95473 0.0
H1336 H 0.41593 0.42563 0.67877 0.0
H1337 H 0.32221 0.4205 0.72519 0.0
H1338 H 0.42398 0.40094 0.6792 0.0
H1339 H 0.32955 0.3957 0.72424 0.0
H1340 H 0.3665 0.35101 0.73694 0.0
H1341 H 0.35967 0.37586 0.74254 0.0
H1342 H 0.40146 0.38184 0.65247 0.0
H1343 H 0.40845 0.35726 0.64713 0.0
C1344 C 0.3972 0.41929 0.68948 0.0
C1345 C 0.3683 0.42518 0.70179 0.0
C1346 C 0.40157 0.40504 0.68928 0.0
C1347 C 0.37715 0.39621 0.70126 0.0
C1348 C 0.34894 0.40211 0.71482 0.0
C1349 C 0.34459 0.41638 0.71509 0.0
C1350 C 0.37399 0.35766 0.71831 0.0
C1351 C 0.38847 0.35212 0.69178 0.0
C1352 C 0.37013 0.37192 0.7215 0.0
C1353 C 0.38054 0.38096 0.69818 0.0
C1354 C 0.39407 0.37531 0.67135 0.0
C1355 C 0.39797 0.36115 0.66822 0.0
H1356 H 0.32115 0.35165 0.12231 0.0
H1357 H 0.42119 0.34689 0.15587 0.0
H1358 H 0.32903 0.37638 0.11943 0.0
H1359 H 0.42911 0.37164 0.15299 0.0
H1360 H 0.44172 0.41605 0.12382 0.0
H1361 H 0.43401 0.39135 0.11964 0.0
H1362 H 0.33422 0.39553 0.15414 0.0
H1363 H 0.34196 0.42025 0.15834 0.0
C1364 C 0.3449 0.35587 0.129 0.0
C1365 C 0.37045 0.34722 0.13953 0.0
C1366 C 0.34939 0.37009 0.12742 0.0
C1367 C 0.3796 0.3761 0.13625 0.0
C1368 C 0.40559 0.36741 0.14569 0.0
C1369 C 0.40109 0.35317 0.14729 0.0
C1370 C 0.41808 0.41172 0.13049 0.0
C1371 C 0.39254 0.4202 0.14161 0.0
C1372 C 0.41369 0.39752 0.12814 0.0
C1373 C 0.38358 0.39136 0.13676 0.0
C1374 C 0.35764 0.39989 0.14693 0.0
C1375 C 0.36205 0.41411 0.14931 0.0
H1376 H 0.31703 0.03336 0.35672 0.0
H1377 H 0.28845 0.02143 0.44842 0.0
H1378 H 0.37491 0.03126 0.37105 0.0
H1379 H 0.34604 0.01845 0.46197 0.0
H1380 H 0.44854 0.03671 0.48639 0.0
H1381 H 0.39071 0.03335 0.47292 0.0
H1382 H 0.42012 0.01727 0.3849 0.0
H1383 H 0.47743 0.02153 0.39735 0.0
C1384 C 0.32293 0.03007 0.37975 0.0
C1385 C 0.29771 0.02784 0.40139 0.0
C1386 C 0.35625 0.02867 0.38791 0.0
C1387 C 0.36526 0.02483 0.41785 0.0
C1388 C 0.34007 0.02171 0.43891 0.0
C1389 C 0.30677 0.02325 0.43086 0.0
C1390 C 0.44276 0.03243 0.46419 0.0
C1391 C 0.46802 0.02964 0.44293 0.0
C1392 C 0.40949 0.03032 0.45657 0.0
C1393 C 0.40062 0.02519 0.4276 0.0
C1394 C 0.42594 0.02152 0.40715 0.0
C1395 C 0.45912 0.02379 0.41461 0.0
H1396 H 0.80991 0.24795 0.48302 0.0
H1397 H 0.79039 0.23345 0.39131 0.0
H1398 H 0.86906 0.24847 0.47168 0.0
H1399 H 0.84918 0.23307 0.38076 0.0
H1400 H 0.95411 0.24577 0.36001 0.0
H1401 H 0.89525 0.24741 0.37159 0.0
H1402 H 0.9144 0.23343 0.46389 0.0
H1403 H 0.97316 0.23269 0.45298 0.0
C1404 C 0.8182 0.24481 0.46054 0.0
C1405 C 0.79533 0.24051 0.43829 0.0
C1406 C 0.85213 0.24496 0.45412 0.0
C1407 C 0.86394 0.24074 0.42533 0.0
C1408 C 0.84101 0.23653 0.40305 0.0
C1409 C 0.80716 0.2365 0.40937 0.0
C1410 C 0.94579 0.24319 0.38285 0.0
C1411 C 0.96847 0.23898 0.40539 0.0
C1412 C 0.91198 0.24398 0.38942 0.0
C1413 C 0.90001 0.24046 0.41864 0.0
C1414 C 0.92272 0.23635 0.44124 0.0
C1415 C 0.95652 0.23568 0.43475 0.0
H1416 H 0.47314 0.23295 0.95211 0.0
H1417 H 0.4555 0.24761 0.86009 0.0
H1418 H 0.41424 0.23372 0.96248 0.0
H1419 H 0.39652 0.24929 0.8712 0.0
H1420 H 0.29143 0.2348 0.88857 0.0
H1421 H 0.35034 0.23479 0.8786 0.0
H1422 H 0.36887 0.2487 0.97096 0.0
H1423 H 0.30959 0.24779 0.98164 0.0
C1424 C 0.45676 0.23629 0.93397 0.0
C1425 C 0.4691 0.23999 0.905 0.0
C1426 C 0.42291 0.23698 0.94017 0.0
C1427 C 0.40057 0.24154 0.91769 0.0
C1428 C 0.41296 0.24551 0.88891 0.0
C1429 C 0.44682 0.24469 0.88261 0.0
C1430 C 0.30793 0.23761 0.90703 0.0
C1431 C 0.2957 0.24106 0.93617 0.0
C1432 C 0.34184 0.23786 0.90107 0.0
C1433 C 0.36442 0.24174 0.92395 0.0
C1434 C 0.3522 0.24546 0.95293 0.0
C1435 C 0.31821 0.24508 0.95899 0.0
H1436 H 0.95371 0.04018 0.98303 0.0
H1437 H 0.97646 0.02967 0.88965 0.0
H1438 H 0.89457 0.03988 0.97101 0.0
H1439 H 0.9177 0.0283 0.87775 0.0
H1440 H 0.81137 0.03994 0.85701 0.0
H1441 H 0.87051 0.04088 0.86897 0.0
H1442 H 0.84958 0.02617 0.96058 0.0
H1443 H 0.79054 0.02629 0.94877 0.0
C1444 C 0.94583 0.03764 0.96003 0.0
C1445 C 0.96934 0.03505 0.93721 0.0
C1446 C 0.91202 0.03734 0.95309 0.0
C1447 C 0.90109 0.03406 0.92332 0.0
C1448 C 0.92494 0.03122 0.90069 0.0
C1449 C 0.95866 0.03189 0.9075 0.0
C1450 C 0.81978 0.03696 0.8796 0.0
C1451 C 0.79686 0.03316 0.90207 0.0
C1452 C 0.85357 0.03737 0.88652 0.0
C1453 C 0.86508 0.03362 0.91586 0.0
C1454 C 0.84181 0.02948 0.93804 0.0
C1455 C 0.80803 0.02942 0.93129 0.0
H1456 H 0.54685 0.96817 0.66837 0.0
H1457 H 0.55532 1.00972 0.63508 0.0
H1458 H 0.6052 0.9683 0.68232 0.0
H1459 H 0.61425 1.00966 0.64784 0.0
H1460 H 0.71762 0.96836 0.67366 0.0
H1461 H 0.65938 0.96839 0.65919 0.0
H1462 H 0.64949 1.0097 0.69345 0.0
H1463 H 0.70823 1.00986 0.70673 0.0
C1464 C 0.56125 0.97731 0.66388 0.0
C1465 C 0.5464 0.98895 0.65079 0.0
C1466 C 0.59477 0.97735 0.6716 0.0
C1467 C 0.61433 0.98901 0.66629 0.0
C1468 C 0.59969 1.00058 0.65261 0.0
C1469 C 0.56606 1.00055 0.64489 0.0
C1470 C 0.70304 0.97746 0.67801 0.0
C1471 C 0.71758 0.98911 0.69127 0.0
C1472 C 0.6696 0.97744 0.66995 0.0
C1473 C 0.64984 0.98906 0.67508 0.0
C1474 C 0.6642 1.00065 0.68883 0.0
C1475 C 0.69773 1.00067 0.69687 0.0
H1476 H 0.20938 0.76127 0.63122 0.0
H1477 H 0.21796 0.80394 0.65579 0.0
H1478 H 0.1504 0.76182 0.64393 0.0
H1479 H 0.15946 0.80442 0.66945 0.0
H1480 H 0.05737 0.76422 0.70446 0.0
H1481 H 0.11572 0.76373 0.68996 0.0
H1482 H 0.10496 0.80327 0.64646 0.0
H1483 H 0.04714 0.80404 0.6621 0.0
C1484 C 0.19858 0.7708 0.639 0.0
C1485 C 0.21823 0.78257 0.64252 0.0
C1486 C 0.16494 0.77107 0.64668 0.0
C1487 C 0.15032 0.78315 0.65786 0.0
C1488 C 0.16988 0.79499 0.66068 0.0
C1489 C 0.20343 0.79469 0.65309 0.0
C1490 C 0.06755 0.7729 0.69223 0.0
C1491 C 0.04756 0.78419 0.68449 0.0
C1492 C 0.10088 0.77252 0.68351 0.0
C1493 C 0.1149 0.78343 0.66692 0.0
C1494 C 0.09498 0.79476 0.65944 0.0
C1495 C 0.06176 0.79514 0.66819 0.0
H1496 H 0.5411 0.78802 0.13656 0.0
H1497 H 0.56145 0.77492 0.22927 0.0
H1498 H 0.59979 0.78773 0.12522 0.0
H1499 H 0.62031 0.77372 0.21724 0.0
H1500 H 0.72443 0.78853 0.197 0.0
H1501 H 0.66574 0.78839 0.20796 0.0
H1502 H 0.64584 0.77321 0.11687 0.0
H1503 H 0.70482 0.77427 0.10511 0.0
C1504 C 0.55803 0.78513 0.15465 0.0
C1505 C 0.54645 0.78172 0.18409 0.0
C1506 C 0.5918 0.78471 0.14791 0.0
C1507 C 0.61489 0.78073 0.1703 0.0
C1508 C 0.60329 0.77706 0.19956 0.0
C1509 C 0.56949 0.7776 0.2064 0.0
C1510 C 0.70769 0.78542 0.17898 0.0
C1511 C 0.7195 0.78161 0.1499 0.0
C1512 C 0.67389 0.78508 0.18554 0.0
C1513 C 0.65096 0.78077 0.16335 0.0
C1514 C 0.66274 0.77678 0.13439 0.0
C1515 C 0.69661 0.77724 0.12772 0.0
H1516 H 0.20737 1.00551 0.22133 0.0
H1517 H 0.21912 0.9696 0.16438 0.0
H1518 H 0.14833 1.00579 0.20971 0.0
H1519 H 0.16039 0.9703 0.15204 0.0
H1520 H 0.06278 0.98709 0.11022 0.0
H1521 H 0.12207 0.98716 0.1229 0.0
H1522 H 0.09791 0.99007 0.21899 0.0
H1523 H 0.03893 0.98994 0.20628 0.0
C1524 C 0.19755 0.99762 0.20655 0.0
C1525 C 0.21834 0.98761 0.19359 0.0
C1526 C 0.1637 0.99785 0.19979 0.0
C1527 C 0.15002 0.98817 0.1797 0.0
C1528 C 0.17051 0.97804 0.16714 0.0
C1529 C 0.20421 0.97768 0.17421 0.0
C1530 C 0.07032 0.98779 0.13396 0.0
C1531 C 0.04649 0.98836 0.15728 0.0
C1532 C 0.10405 0.98775 0.14124 0.0
C1533 C 0.1144 0.98855 0.17192 0.0
C1534 C 0.09054 0.98947 0.19517 0.0
C1535 C 0.05687 0.98928 0.18792 0.0
H1536 H 0.31313 0.52569 0.86162 0.0
H1537 H 0.28661 0.53083 0.95667 0.0
H1538 H 0.37183 0.52509 0.87597 0.0
H1539 H 0.34477 0.53019 0.97094 0.0
H1540 H 0.44907 0.54932 0.97479 0.0
H1541 H 0.39096 0.54615 0.96333 0.0
H1542 H 0.41489 0.51192 0.90492 0.0
H1543 H 0.47356 0.51489 0.91683 0.0
C1544 C 0.31982 0.52655 0.88554 0.0
C1545 C 0.29531 0.52861 0.90789 0.0
C1546 C 0.35334 0.52615 0.89379 0.0
C1547 C 0.36288 0.52775 0.92456 0.0
C1548 C 0.33823 0.52923 0.94698 0.0
C1549 C 0.30488 0.52966 0.93875 0.0
C1550 C 0.44221 0.5409 0.96008 0.0
C1551 C 0.46635 0.53242 0.94664 0.0
C1552 C 0.4087 0.53911 0.95343 0.0
C1553 C 0.39836 0.52882 0.93311 0.0
C1554 C 0.42221 0.52006 0.92033 0.0
C1555 C 0.45583 0.52178 0.92717 0.0
H1556 H 0.81115 0.73187 0.98176 0.0
H1557 H 0.79099 0.74545 0.88978 0.0
H1558 H 0.87028 0.73066 0.96997 0.0
H1559 H 0.84992 0.74535 0.87822 0.0
H1560 H 0.9532 0.73093 0.85548 0.0
H1561 H 0.8942 0.73141 0.86779 0.0
H1562 H 0.91817 0.74274 0.96105 0.0
H1563 H 0.97684 0.74116 0.94883 0.0
C1564 C 0.81966 0.73482 0.95918 0.0
C1565 C 0.79684 0.73867 0.93661 0.0
C1566 C 0.85347 0.73423 0.95236 0.0
C1567 C 0.86515 0.73785 0.92301 0.0
C1568 C 0.84204 0.7421 0.90078 0.0
C1569 C 0.80826 0.74231 0.90741 0.0
C1570 C 0.94554 0.73345 0.87855 0.0
C1571 C 0.96926 0.73594 0.90125 0.0
C1572 C 0.9118 0.73385 0.88567 0.0
C1573 C 0.90113 0.73717 0.9155 0.0
C1574 C 0.92519 0.73984 0.93805 0.0
C1575 C 0.95886 0.73905 0.93107 0.0
H1576 H 0.30992 0.75618 0.46743 0.0
H1577 H 0.29674 0.72009 0.4113 0.0
H1578 H 0.36896 0.75603 0.45568 0.0
H1579 H 0.3554 0.7204 0.39877 0.0
H1580 H 0.45316 0.737 0.35608 0.0
H1581 H 0.39398 0.73735 0.3691 0.0
H1582 H 0.41893 0.73959 0.4651 0.0
H1583 H 0.4778 0.73913 0.45209 0.0
C1584 C 0.3194 0.74818 0.45278 0.0
C1585 C 0.29819 0.73824 0.44007 0.0
C1586 C 0.35325 0.74816 0.44596 0.0
C1587 C 0.36649 0.73831 0.42603 0.0
C1588 C 0.3456 0.72826 0.41375 0.0
C1589 C 0.31193 0.72813 0.42091 0.0
C1590 C 0.44583 0.73759 0.37988 0.0
C1591 C 0.46987 0.7379 0.40307 0.0
C1592 C 0.41215 0.73773 0.38734 0.0
C1593 C 0.40206 0.73845 0.41809 0.0
C1594 C 0.42612 0.73906 0.44124 0.0
C1595 C 0.45973 0.73868 0.43381 0.0
H1596 H 0.79414 0.55269 0.42667 0.0
H1597 H 0.80714 0.51662 0.37044 0.0
H1598 H 0.85319 0.55276 0.43788 0.0
H1599 H 0.86639 0.51711 0.38093 0.0
H1600 H 0.97493 0.53344 0.38256 0.0
H1601 H 0.91576 0.53333 0.37051 0.0
H1602 H 0.89286 0.53629 0.46684 0.0
H1603 H 0.9523 0.53636 0.47885 0.0
C1604 C 0.8094 0.54475 0.41674 0.0
C1605 C 0.79554 0.53454 0.39792 0.0
C1606 C 0.84326 0.54484 0.42314 0.0
C1607 C 0.86416 0.53488 0.41045 0.0
C1608 C 0.85072 0.52493 0.39089 0.0
C1609 C 0.81673 0.52471 0.3848 0.0
C1610 C 0.95722 0.53418 0.40109 0.0
C1611 C 0.96798 0.53506 0.43163 0.0
C1612 C 0.92346 0.53399 0.39422 0.0
C1613 C 0.8999 0.53486 0.41775 0.0
C1614 C 0.91063 0.53573 0.4483 0.0
C1615 C 0.94445 0.5357 0.45519 0.0
H1616 H 0.72049 0.50772 0.17238 0.0
H1617 H 0.70029 0.46894 0.21644 0.0
H1618 H 0.66235 0.50903 0.15582 0.0
H1619 H 0.64277 0.47032 0.20009 0.0
H1620 H 0.56357 0.46743 0.12612 0.0
H1621 H 0.62085 0.46947 0.14283 0.0
H1622 H 0.59993 0.50922 0.18128 0.0
H1623 H 0.54201 0.50724 0.16436 0.0
C1624 C 0.70355 0.49962 0.17893 0.0
C1625 C 0.71499 0.48823 0.19567 0.0
C1626 C 0.6704 0.5004 0.16956 0.0
C1627 C 0.6484 0.48969 0.17644 0.0
C1628 C 0.65944 0.47863 0.19429 0.0
C1629 C 0.69232 0.47793 0.20394 0.0
C1630 C 0.5712 0.47677 0.13743 0.0
C1631 C 0.54822 0.48719 0.14391 0.0
C1632 C 0.60393 0.47785 0.1473 0.0
C1633 C 0.61454 0.48942 0.1636 0.0
C1634 C 0.59221 0.5002 0.16876 0.0
C1635 C 0.55919 0.49904 0.15918 0.0
H1636 H 0.03617 0.27395 0.13791 0.0
H1637 H 0.06807 0.27824 0.23186 0.0
H1638 H 0.09317 0.27079 0.12191 0.0
H1639 H 0.12579 0.27534 0.21547 0.0
H1640 H 0.22501 0.26123 0.17497 0.0
H1641 H 0.16722 0.25863 0.18959 0.0
H1642 H 0.13903 0.28832 0.12111 0.0
H1643 H 0.19642 0.29148 0.10722 0.0
C1644 C 0.05519 0.27386 0.15536 0.0
C1645 C 0.04745 0.27634 0.18631 0.0
C1646 C 0.08798 0.27219 0.14604 0.0
C1647 C 0.11388 0.27293 0.16738 0.0
C1648 C 0.10622 0.27466 0.19855 0.0
C1649 C 0.07328 0.27642 0.20791 0.0
C1650 C 0.20677 0.26733 0.16302 0.0
C1651 C 0.21614 0.27698 0.14052 0.0
C1652 C 0.17352 0.26572 0.17138 0.0
C1653 C 0.14874 0.27339 0.15674 0.0
C1654 C 0.15765 0.28224 0.13277 0.0
C1655 C 0.19085 0.28405 0.12481 0.0
H1656 H 0.53652 0.26542 0.66909 0.0
H1657 H 0.56292 0.30053 0.72431 0.0
H1658 H 0.59496 0.26175 0.65738 0.0
H1659 H 0.62086 0.29666 0.71306 0.0
H1660 H 0.72466 0.28058 0.70642 0.0
H1661 H 0.66659 0.28046 0.72141 0.0
H1662 H 0.63803 0.27425 0.62711 0.0
H1663 H 0.69655 0.27436 0.61209 0.0
C1664 C 0.55463 0.27232 0.67889 0.0
C1665 C 0.54472 0.28337 0.69746 0.0
C1666 C 0.58812 0.27018 0.67217 0.0
C1667 C 0.61245 0.27895 0.6842 0.0
C1668 C 0.60272 0.28962 0.70375 0.0
C1669 C 0.56933 0.29181 0.71027 0.0
C1670 C 0.70601 0.27929 0.68883 0.0
C1671 C 0.71503 0.27782 0.65793 0.0
C1672 C 0.67277 0.27914 0.69746 0.0
C1673 C 0.64776 0.27751 0.6754 0.0
C1674 C 0.65679 0.27544 0.64465 0.0
C1675 C 0.69018 0.27557 0.63601 0.0
H1676 H 0.06106 0.46961 0.61696 0.0
H1677 H 0.03578 0.50569 0.66931 0.0
H1678 H 0.11918 0.47336 0.6279 0.0
H1679 H 0.09436 0.50926 0.68077 0.0
H1680 H 0.19586 0.49725 0.72671 0.0
H1681 H 0.13726 0.4971 0.71193 0.0
H1682 H 0.16527 0.48925 0.61813 0.0
H1683 H 0.22343 0.48943 0.63286 0.0
C1684 C 0.06778 0.4785 0.6303 0.0
C1685 C 0.04346 0.48728 0.6424 0.0
C1686 C 0.10126 0.48063 0.63666 0.0
C1687 C 0.11132 0.49156 0.65534 0.0
C1688 C 0.08726 0.50063 0.66667 0.0
C1689 C 0.0537 0.49856 0.66012 0.0
C1690 C 0.18936 0.49562 0.70294 0.0
C1691 C 0.21411 0.49303 0.68112 0.0
C1692 C 0.15592 0.49559 0.69443 0.0
C1693 C 0.14671 0.49301 0.66392 0.0
C1694 C 0.17159 0.49097 0.64193 0.0
C1695 C 0.20489 0.49099 0.65042 0.0
H1696 H 0.96433 1.00204 0.62513 0.0
H1697 H 0.92967 0.98387 0.54106 0.0
H1698 H 0.00711 0.0144 0.59684 0.0
H1699 H 0.97149 0.99652 0.51246 0.0
H1700 H 0.06937 0.01088 0.4736 0.0
H1701 H 0.02881 0.99801 0.50258 0.0
H1702 H 0.01412 0.03275 0.56223 0.0
H1703 H 0.05624 0.04532 0.53471 0.0
C1704 C 0.9658 1.00079 0.60054 0.0
C1705 C 0.94385 0.99199 0.58527 0.0
C1706 C 0.99015 1.0079 0.58427 0.0
C1707 C 0.99276 1.0065 0.55229 0.0
C1708 C 0.97068 0.99766 0.5371 0.0
C1709 C 0.94665 0.99043 0.55344 0.0
C1710 C 0.05796 0.01579 0.49307 0.0
C1711 C 0.06661 0.02922 0.50169 0.0
C1712 C 0.03423 1.00842 0.50953 0.0
C1713 C 0.01815 0.01431 0.53482 0.0
C1714 C 0.0264 0.02778 0.54322 0.0
C1715 C 0.05039 0.03509 0.52701 0.0
H1716 H 0.31843 0.29266 0.54527 0.0
H1717 H 0.31083 0.26521 0.62269 0.0
H1718 H 0.27723 0.27923 0.51799 0.0
H1719 H 0.26972 0.25165 0.59509 0.0
H1720 H 0.22359 0.22345 0.52136 0.0
H1721 H 0.26534 0.23653 0.54931 0.0
H1722 H 0.2175 0.2742 0.52203 0.0
H1723 H 0.1757 0.26122 0.49451 0.0
C1724 C 0.30779 0.28385 0.55664 0.0
C1725 C 0.31788 0.28008 0.58629 0.0
C1726 C 0.2842 0.27612 0.54093 0.0
C1727 C 0.27019 0.26441 0.55443 0.0
C1728 C 0.2804 0.26054 0.58396 0.0
C1729 C 0.30395 0.26831 0.59976 0.0
C1730 C 0.22183 0.23451 0.5215 0.0
C1731 C 0.19632 0.24126 0.5055 0.0
C1732 C 0.24575 0.242 0.53752 0.0
C1733 C 0.24473 0.25638 0.53777 0.0
C1734 C 0.21925 0.26312 0.52183 0.0
C1735 C 0.19531 0.25566 0.50595 0.0
H1736 H 0.94316 0.29178 0.79108 0.0
H1737 H 0.95445 0.26402 0.71479 0.0
H1738 H 0.98556 0.27925 0.81917 0.0
H1739 H 0.99658 0.25138 0.74318 0.0
H1740 H 0.04205 0.22396 0.81852 0.0
H1741 H 1.00009 0.23657 0.78975 0.0
H1742 H 0.04598 0.27474 0.81606 0.0
H1743 H 0.08809 0.26222 0.84438 0.0
C1744 C 0.95488 0.28311 0.78013 0.0
C1745 C 0.94532 0.27892 0.75064 0.0
C1746 C 0.97912 0.27591 0.79629 0.0
C1747 C 0.99427 0.26432 0.78339 0.0
C1748 C 0.98493 0.26016 0.75387 0.0
C1749 C 0.96079 0.2674 0.73763 0.0
C1750 C 0.04335 0.23503 0.81799 0.0
C1751 C 0.06842 0.24205 0.8339 0.0
C1752 C 0.01932 0.24224 0.80151 0.0
C1753 C 0.01978 0.25663 0.80072 0.0
C1754 C 0.04474 0.26366 0.81665 0.0
C1755 C 0.06882 0.25646 0.83299 0.0
H1756 H 0.2251 0.04539 0.82004 0.0
H1757 H 0.17848 1.00793 0.85081 0.0
H1758 H 0.26599 0.03203 0.792 0.0
H1759 H 0.21977 0.99463 0.82318 0.0
H1760 H 0.3224 0.977 0.79612 0.0
H1761 H 0.28064 0.98981 0.82442 0.0
H1762 H 0.26658 0.01652 0.7466 0.0
H1763 H 0.30788 1.00361 0.71805 0.0
C1764 C 0.22343 0.03433 0.82077 0.0
C1765 C 0.19833 0.02778 0.83767 0.0
C1766 C 0.2469 0.02668 0.8047 0.0
C1767 C 0.24596 0.0123 0.8053 0.0
C1768 C 0.22128 1.00571 0.82256 0.0
C1769 C 0.19766 0.01336 0.83849 0.0
C1770 C 0.31012 0.98546 0.78483 0.0
C1771 C 0.31871 0.9893 0.7548 0.0
C1772 C 0.28624 0.99283 0.80111 0.0
C1773 C 0.27056 1.00422 0.78778 0.0
C1774 C 0.27872 1.00793 0.75765 0.0
C1775 C 0.30242 1.00053 0.74131 0.0
H1776 H 0.79175 0.79726 0.56902 0.0
H1777 H 0.83939 0.75953 0.5966 0.0
H1778 H 0.75071 0.78417 0.54035 0.0
H1779 H 0.79817 0.74651 0.56832 0.0
H1780 H 0.69701 0.72836 0.54185 0.0
H1781 H 0.7381 0.74137 0.57036 0.0
H1782 H 0.74857 0.76928 0.49416 0.0
H1783 H 0.7077 0.75617 0.46536 0.0
C1784 C 0.79359 0.7862 0.5689 0.0
C1785 C 0.81892 0.77948 0.58518 0.0
C1786 C 0.77007 0.77871 0.55247 0.0
C1787 C 0.77127 0.76433 0.55207 0.0
C1788 C 0.79636 0.75759 0.56854 0.0
C1789 C 0.81995 0.76507 0.58485 0.0
C1790 C 0.70832 0.73715 0.53094 0.0
C1791 C 0.69899 0.74119 0.50124 0.0
C1792 C 0.73183 0.74463 0.54736 0.0
C1793 C 0.74647 0.75636 0.53452 0.0
C1794 C 0.73731 0.7604 0.50482 0.0
C1795 C 0.71389 0.75288 0.48833 0.0
H1796 H 0.97368 0.79731 0.2669 0.0
H1797 H 0.92793 0.7591 0.24014 0.0
H1798 H 0.01528 0.78464 0.29595 0.0
H1799 H 0.96973 0.74652 0.26873 0.0
H1800 H 0.07202 0.72937 0.29475 0.0
H1801 H 0.03021 0.74203 0.26629 0.0
H1802 H 0.01829 0.76973 0.34244 0.0
H1803 H 0.05986 0.75695 0.37125 0.0
C1804 C 0.97235 0.78624 0.26728 0.0
C1805 C 0.94742 0.77926 0.25106 0.0
C1806 C 0.9962 0.77899 0.28392 0.0
C1807 C 0.99573 0.7646 0.28458 0.0
C1808 C 0.97097 0.75761 0.26829 0.0
C1809 C 0.94705 0.76485 0.25179 0.0
C1810 C 0.06025 0.73803 0.30568 0.0
C1811 C 0.06936 0.74211 0.33538 0.0
C1812 C 0.03632 0.74531 0.28928 0.0
C1813 C 0.02104 0.75687 0.30213 0.0
C1814 C 0.03002 0.76097 0.3318 0.0
C1815 C 0.05385 0.75364 0.34829 0.0
H1816 H 0.72548 0.04686 0.32434 0.0
H1817 H 0.67615 1.00937 0.35092 0.0
H1818 H 0.76637 0.03362 0.29602 0.0
H1819 H 0.71738 0.99617 0.32296 0.0
H1820 H 0.81888 0.97778 0.2965 0.0
H1821 H 0.77756 0.99067 0.32501 0.0
H1822 H 0.76784 0.01896 0.24943 0.0
H1823 H 0.80884 1.00597 0.22061 0.0
C1824 C 0.72323 0.03582 0.32409 0.0
C1825 C 0.69737 0.02922 0.33989 0.0
C1826 C 0.74669 0.02823 0.30785 0.0
C1827 C 0.74497 0.01387 0.30717 0.0
C1828 C 0.71951 1.00723 0.32334 0.0
C1829 C 0.69593 0.01481 0.33947 0.0
C1830 C 0.80768 0.98662 0.28571 0.0
C1831 C 0.81732 0.99083 0.2562 0.0
C1832 C 0.78403 0.99403 0.30214 0.0
C1833 C 0.7696 1.00585 0.28951 0.0
C1834 C 0.77896 1.01001 0.25995 0.0
C1835 C 0.80248 1.00256 0.24345 0.0
H1836 H 0.03983 0.54633 1.0185 0.0
H1837 H 0.08468 0.5079 0.99211 0.0
H1838 H 0.9971 0.53387 0.04654 0.0
H1839 H 0.04179 0.49553 1.01971 0.0
H1840 H 0.93918 0.47866 1.04375 0.0
H1841 H 0.98137 0.49139 1.01602 0.0
H1842 H 0.99223 0.51887 0.09273 0.0
H1843 H 0.95022 0.506 0.12082 0.0
C1844 C 0.04072 0.53525 1.01875 0.0
C1845 C 0.06574 0.52815 1.00293 0.0
C1846 C 0.01622 0.52812 1.03482 0.0
C1847 C 0.01609 0.51373 1.03528 0.0
C1848 C 0.04096 0.50662 1.01938 0.0
C1849 C 0.06553 0.51374 1.00346 0.0
C1850 C 0.95076 0.48729 0.05495 0.0
C1851 C 0.94133 0.49124 0.08465 0.0
C1852 C 0.97491 0.49462 1.03896 0.0
C1853 C 0.99013 0.5061 0.05222 0.0
C1854 C 0.98062 0.51015 0.08179 0.0
C1855 C 0.95653 0.50277 0.09787 0.0
H1856 H 0.3386 0.75991 0.09577 0.0
H1857 H 0.29146 0.79788 0.06908 0.0
H1858 H 0.2971 0.74712 0.06743 0.0
H1859 H 0.2501 0.78499 1.04024 0.0
H1860 H 0.20598 0.75671 0.96545 0.0
H1861 H 0.24695 0.76997 0.99389 0.0
H1862 H 0.23689 0.74233 0.0706 0.0
H1863 H 0.19574 0.72921 1.04255 0.0
C1864 C 0.31922 0.76556 0.08419 0.0
C1865 C 0.31834 0.77996 0.08492 0.0
C1866 C 0.29547 0.7582 0.06783 0.0
C1867 C 0.27036 0.76506 0.05166 0.0
C1868 C 0.26944 0.77944 0.05221 0.0
C1869 C 0.29313 0.78682 0.06874 0.0
C1870 C 0.21227 0.75352 0.98846 0.0
C1871 C 0.19756 0.74184 1.00161 0.0
C1872 C 0.23575 0.76112 1.00474 0.0
C1873 C 0.24515 0.75716 1.03443 0.0
C1874 C 0.2305 0.74551 0.04757 0.0
C1875 C 0.20695 0.73796 1.0314 0.0
H1876 H 0.32186 0.47891 0.29327 0.0
H1877 H 0.31316 0.50646 0.2161 0.0
H1878 H 0.28018 0.49202 0.32066 0.0
H1879 H 0.27163 0.5197 0.24384 0.0
H1880 H 0.225 0.54756 0.31753 0.0
H1881 H 0.2672 0.53469 0.28985 0.0
H1882 H 0.22013 0.49679 0.3167 0.0
H1883 H 0.17776 0.50959 0.34396 0.0
C1884 C 0.31089 0.48767 0.28197 0.0
C1885 C 0.32083 0.49157 0.25235 0.0
C1886 C 0.28703 0.49521 0.29776 0.0
C1887 C 0.2726 0.50687 0.28438 0.0
C1888 C 0.28263 0.51085 0.25488 0.0
C1889 C 0.30643 0.50326 0.239 0.0
C1890 C 0.22348 0.53649 0.31736 0.0
C1891 C 0.19793 0.52964 0.33308 0.0
C1892 C 0.24767 0.52913 0.3015 0.0
C1893 C 0.24697 0.51474 0.30113 0.0
C1894 C 0.22159 0.50788 0.31694 0.0
C1895 C 0.19733 0.51523 0.33267 0.0
H1896 H 0.78824 0.29509 0.07578 0.0
H1897 H 0.83848 0.25751 0.10034 0.0
H1898 H 0.74733 0.28195 0.04716 0.0
H1899 H 0.79721 0.24444 0.07224 0.0
H1900 H 0.69549 0.22605 0.04605 0.0
H1901 H 0.73676 0.23888 0.07485 0.0
H1902 H 0.74626 0.26747 0.99984 0.0
H1903 H 0.70546 0.25453 0.9707 0.0
C1904 C 0.7907 0.28406 0.07505 0.0
C1905 C 0.8168 0.27741 0.0904 0.0
C1906 C 0.76722 0.27654 0.05866 0.0
C1907 C 0.76916 0.26218 0.05742 0.0
C1908 C 0.79489 0.25549 0.07309 0.0
C1909 C 0.81851 0.26301 0.08931 0.0
C1910 C 0.70664 0.23494 1.03545 0.0
C1911 C 0.69697 0.23926 1.00602 0.0
C1912 C 0.73023 0.24232 0.05204 0.0
C1913 C 0.74455 0.25422 1.03965 0.0
C1914 C 0.7352 0.25847 1.01016 0.0
C1915 C 0.71178 0.25105 0.99349 0.0
H1916 H 0.70139 0.51466 0.87114 0.0
H1917 H 0.69283 0.54254 0.79455 0.0
H1918 H 0.74294 0.50154 0.84319 0.0
H1919 H 0.73455 0.52953 0.76692 0.0
H1920 H 0.78816 0.4736 0.76958 0.0
H1921 H 0.74652 0.48671 0.79727 0.0
H1922 H 0.79446 0.52434 0.76984 0.0
H1923 H 0.83637 0.51125 0.74243 0.0
C1924 C 0.70816 0.51795 0.84833 0.0
C1925 C 0.69372 0.52969 0.83519 0.0
C1926 C 0.732 0.51044 0.83232 0.0
C1927 C 0.74202 0.51451 0.80287 0.0
C1928 C 0.72769 0.52625 0.78976 0.0
C1929 C 0.70379 0.53372 0.80568 0.0
C1930 C 0.79003 0.48466 0.76961 0.0
C1931 C 0.81575 0.49134 0.75378 0.0
C1932 C 0.76614 0.49217 0.7855 0.0
C1933 C 0.76728 0.50655 0.78582 0.0
C1934 C 0.79271 0.51326 0.76972 0.0
C1935 C 0.8167 0.50575 0.75393 0.0
H1936 H 0.47129 0.97463 0.07083 0.0
H1937 H 0.42585 0.01278 0.09834 0.0
H1938 H 0.51312 0.98735 1.04224 0.0
H1939 H 0.46787 0.02543 0.07013 0.0
H1940 H 0.57058 0.04244 0.04465 0.0
H1941 H 0.5283 0.02986 0.07271 0.0
H1942 H 0.51642 1.00236 0.99616 0.0
H1943 H 0.55847 0.01505 0.96781 0.0
C1944 C 0.47008 0.9857 0.07069 0.0
C1945 C 0.44519 0.99266 0.08697 0.0
C1946 C 0.49405 0.99298 0.05431 0.0
C1947 C 0.49372 1.00737 0.05396 0.0
C1948 C 0.46899 0.01434 0.07033 0.0
C1949 C 0.44496 1.00707 0.08659 0.0
C1950 C 0.55871 0.03384 1.03357 0.0
C1951 C 0.56799 0.02977 1.00393 0.0
C1952 C 0.53452 0.02661 0.04972 0.0
C1953 C 0.51914 0.01511 1.03665 0.0
C1954 C 0.52824 0.01106 1.00698 0.0
C1955 C 0.55234 0.01833 0.99076 0.0
H1956 H 0.43995 0.29091 0.29328 0.0
H1957 H 0.45157 0.26309 0.21716 0.0
H1958 H 0.48245 0.27855 0.32145 0.0
H1959 H 0.49391 0.25058 0.24571 0.0
H1960 H 0.54162 0.22378 0.32125 0.0
H1961 H 0.49892 0.23592 0.29244 0.0
H1962 H 0.54295 0.27457 0.31803 0.0
H1963 H 0.58582 0.26251 0.34639 0.0
C1964 C 0.45173 0.28225 0.28238 0.0
C1965 C 0.44236 0.27806 0.25283 0.0
C1966 C 0.47606 0.27513 0.29862 0.0
C1967 C 0.49153 0.26361 0.28577 0.0
C1968 C 0.4821 0.25933 0.25633 0.0
C1969 C 0.45783 0.2665 0.24 0.0
C1970 C 0.54239 0.23485 0.32055 0.0
C1971 C 0.56719 0.24214 0.33627 0.0
C1972 C 0.5179 0.2418 0.30404 0.0
C1973 C 0.51758 0.25618 0.30303 0.0
C1974 C 0.54228 0.26347 0.31877 0.0
C1975 C 0.56682 0.25654 0.33514 0.0
H1976 H 0.45541 0.76634 0.71542 0.0
H1977 H 0.43814 0.79287 0.79294 0.0
H1978 H 0.49735 0.754 0.7446 0.0
H1979 H 0.48048 0.78065 0.82183 0.0
H1980 H 0.58446 0.76446 0.84861 0.0
H1981 H 0.54176 0.77692 0.82073 0.0
H1982 H 0.49942 0.73865 0.79041 0.0
H1983 H 0.54174 0.72612 0.81869 0.0
C1984 C 0.46036 0.76951 0.73869 0.0
C1985 C 0.44324 0.78059 0.7518 0.0
C1986 C 0.48443 0.76244 0.75539 0.0
C1987 C 0.49207 0.76634 0.78551 0.0
C1988 C 0.47533 0.77751 0.79853 0.0
C1989 C 0.45112 0.78454 0.7819 0.0
C1990 C 0.56582 0.75866 0.83643 0.0
C1991 C 0.56668 0.74425 0.83588 0.0
C1992 C 0.54139 0.76583 0.82037 0.0
C1993 C 0.51741 0.75875 0.80327 0.0
C1994 C 0.51796 0.74437 0.80299 0.0
C1995 C 0.54224 0.7372 0.81919 0.0
H1996 H 0.44268 0.47869 0.54841 0.0
H1997 H 0.45417 0.50677 0.62407 0.0
H1998 H 0.48512 0.49106 0.52003 0.0
H1999 H 0.49638 0.51923 0.59544 0.0
H2000 H 0.54115 0.54659 0.52027 0.0
H2001 H 0.49946 0.53389 0.54902 0.0
H2002 H 0.5454 0.4958 0.52212 0.0
H2003 H 0.5873 0.50845 0.49371 0.0
C2004 C 0.45447 0.48739 0.55917 0.0
C2005 C 0.44489 0.49175 0.58854 0.0
C2006 C 0.47876 0.4945 0.54284 0.0
C2007 C 0.49395 0.50615 0.55546 0.0
C2008 C 0.48469 0.51042 0.58493 0.0
C2009 C 0.46049 0.50328 0.60132 0.0
C2010 C 0.54254 0.53552 0.52065 0.0
C2011 C 0.56764 0.52857 0.50463 0.0
C2012 C 0.51865 0.52824 0.53713 0.0
C2013 C 0.51923 0.51386 0.53786 0.0
C2014 C 0.54409 0.50689 0.52166 0.0
C2015 C 0.56807 0.51416 0.50528 0.0
H2016 H 0.32405 1.00309 0.64097 0.0
H2017 H 0.37671 0.98984 0.56044 0.0
H2018 H 0.27781 0.01068 0.60835 0.0
H2019 H 0.33157 0.99754 0.5282 0.0
H2020 H 0.23653 1.00336 0.47347 0.0
H2021 H 0.27816 0.99398 0.50888 0.0
H2022 H 0.25703 0.02648 0.57286 0.0
H2023 H 0.21542 0.03546 0.53814 0.0
C2024 C 0.32612 1.00195 0.61639 0.0
C2025 C 0.3546 0.9958 0.60374 0.0
C2026 C 0.29939 1.00629 0.59743 0.0
C2027 C 0.30012 1.00467 0.56508 0.0
C2028 C 0.32899 0.99874 0.55271 0.0
C2029 C 0.3554 0.99442 0.5715 0.0
C2030 C 0.24017 1.00828 0.4954 0.0
C2031 C 0.22215 0.02021 0.50262 0.0
C2032 C 0.26461 1.00304 0.51575 0.0
C2033 C 0.27186 1.00947 0.54418 0.0
C2034 C 0.25259 0.02101 0.55173 0.0
C2035 C 0.22849 0.02624 0.53147 0.0
H2036 H 0.89575 0.28815 0.56314 0.0
H2037 H 0.92496 0.25858 0.63143 0.0
H2038 H 0.94134 0.28143 0.53098 0.0
H2039 H 0.97062 0.25119 0.59805 0.0
H2040 H 0.06473 0.24544 0.54125 0.0
H2041 H 0.02171 0.25396 0.57551 0.0
H2042 H 0.96458 0.26694 0.49691 0.0
H2043 H 0.00874 0.25898 0.46309 0.0
C2044 C 0.91168 0.28001 0.57135 0.0
C2045 C 0.90591 0.27391 0.60028 0.0
C2046 C 0.93818 0.27602 0.5524 0.0
C2047 C 0.96038 0.26555 0.56103 0.0
C2048 C 0.95478 0.25941 0.59016 0.0
C2049 C 0.9282 0.26357 0.60948 0.0
C2050 C 0.04352 0.25062 0.53135 0.0
C2051 C 0.04111 0.25198 0.49925 0.0
C2052 C 0.0182 0.25527 0.55113 0.0
C2053 C 0.98874 0.26121 0.53969 0.0
C2054 C 0.98672 0.26279 0.50737 0.0
C2055 C 0.0124 0.25831 0.48762 0.0
H2056 H 0.32182 0.27268 0.70017 0.0
H2057 H 0.38236 0.27767 0.78068 0.0
H2058 H 0.27523 0.26545 0.73284 0.0
H2059 H 0.33678 0.27037 0.81291 0.0
H2060 H 0.24389 0.26705 0.87102 0.0
H2061 H 0.28611 0.27608 0.83577 0.0
H2062 H 0.25077 0.24889 0.7651 0.0
H2063 H 0.20862 0.24026 0.79994 0.0
C2064 C 0.32554 0.27198 0.72467 0.0
C2065 C 0.35633 0.27577 0.73741 0.0
C2066 C 0.29861 0.2679 0.74368 0.0
C2067 C 0.30142 0.26746 0.77612 0.0
C2068 C 0.33262 0.27087 0.78845 0.0
C2069 C 0.35925 0.27493 0.76964 0.0
C2070 C 0.2444 0.26336 0.84766 0.0
C2071 C 0.22215 0.25304 0.83845 0.0
C2072 C 0.26921 0.26834 0.82737 0.0
C2073 C 0.27273 0.26319 0.79711 0.0
C2074 C 0.24931 0.25334 0.78773 0.0
C2075 C 0.22482 0.24835 0.80794 0.0
H2076 H 0.06353 0.02767 0.80065 0.0
H2077 H 0.01423 1.00858 0.87686 0.0
H2078 H 0.02155 0.01891 0.76578 0.0
H2079 H 0.97087 1.00026 0.84237 0.0
H2080 H 0.90441 0.9795 0.77292 0.0
H2081 H 0.94943 0.98654 0.80557 0.0
H2082 H 0.96953 0.02055 0.74497 0.0
H2083 H 0.92453 0.01294 0.71107 0.0
C2084 C 0.04397 0.0213 0.80996 0.0
C2085 C 0.04308 0.01859 0.84173 0.0
C2086 C 0.0192 0.01646 0.78983 0.0
C2087 C 0.99176 1.00887 0.80055 0.0
C2088 C 0.99142 1.00581 0.83242 0.0
C2089 C 0.01665 0.01051 0.85254 0.0
C2090 C 0.91822 0.98854 0.76625 0.0
C2091 C 0.91007 0.99563 0.73897 0.0
C2092 C 0.94437 0.9927 0.7855 0.0
C2093 C 0.96381 1.00433 0.77885 0.0
C2094 C 0.9559 0.01144 0.7513 0.0
C2095 C 0.92971 1.00713 0.73165 0.0
H2096 H 0.75618 0.0118 0.62969 0.0
H2097 H 0.81315 0.99815 0.55241 0.0
H2098 H 0.71291 0.02007 0.59521 0.0
H2099 H 0.77099 1.00696 0.51749 0.0
H2100 H 0.67535 0.01227 0.45985 0.0
H2101 H 0.72049 1.0047 0.49374 0.0
H2102 H 0.69 0.03452 0.56103 0.0
H2103 H 0.6449 0.04139 0.52839 0.0
C2104 C 0.76029 0.01118 0.60522 0.0
C2105 C 0.78904 1.00473 0.59406 0.0
C2106 C 0.73508 0.01583 0.58506 0.0
C2107 C 0.73757 0.01431 0.55276 0.0
C2108 C 0.76708 1.00825 0.5418 0.0
C2109 C 0.79194 1.00343 0.56199 0.0
C2110 C 0.67821 0.01713 0.48196 0.0
C2111 C 0.65567 0.02739 0.49105 0.0
C2112 C 0.7045 0.01286 0.5016 0.0
C2113 C 0.70961 0.01881 0.53097 0.0
C2114 C 0.68722 0.02923 0.53946 0.0
C2115 C 0.66099 0.0333 0.52021 0.0
H2116 H 0.08877 0.76163 0.45836 0.0
H2117 H 0.11346 0.73023 0.52407 0.0
H2118 H 0.04396 0.76947 0.49225 0.0
H2119 H 0.06874 0.73748 0.55673 0.0
H2120 H 1.0045 0.7606 0.62644 0.0
H2121 H 0.04766 0.75212 0.59204 0.0
H2122 H 0.99223 0.76723 0.51434 0.0
H2123 H 0.95018 0.77614 0.54909 0.0
C2124 C 0.08471 0.75633 0.47983 0.0
C2125 C 0.1055 0.74533 0.48815 0.0
C2126 C 0.05863 0.76076 0.49944 0.0
C2127 C 0.05208 0.75427 0.52802 0.0
C2128 C 0.07274 0.74315 0.53577 0.0
C2129 C 0.09872 0.73887 0.51652 0.0
C2130 C 1.00095 0.76165 0.60196 0.0
C2131 C 0.97304 0.7687 0.59073 0.0
C2132 C 0.02607 0.75688 0.58189 0.0
C2133 C 0.02427 0.75891 0.54968 0.0
C2134 C 0.99557 0.76556 0.53863 0.0
C2135 C 0.9708 0.77045 0.5587 0.0
H2136 H 0.77544 0.75348 0.21634 0.0
H2137 H 0.80205 0.7839 0.28326 0.0
H2138 H 0.73387 0.74421 0.25198 0.0
H2139 H 0.76039 0.77514 0.31815 0.0
H2140 H 0.69233 0.7523 0.38593 0.0
H2141 H 0.73831 0.75961 0.3528 0.0
H2142 H 0.68174 0.74788 0.27312 0.0
H2143 H 0.63686 0.74038 0.30596 0.0
C2144 C 0.77308 0.758 0.23884 0.0
C2145 C 0.79272 0.7694 0.24672 0.0
C2146 C 0.74862 0.75286 0.25933 0.0
C2147 C 0.74284 0.75891 0.28846 0.0
C2148 C 0.76364 0.76994 0.29652 0.0
C2149 C 0.78781 0.77504 0.27617 0.0
C2150 C 0.68957 0.75144 0.36134 0.0
C2151 C 0.66039 0.74573 0.34901 0.0
C2152 C 0.71616 0.75561 0.34206 0.0
C2153 C 0.71461 0.75429 0.30967 0.0
C2154 C 0.685 0.74884 0.29761 0.0
C2155 C 0.65873 0.74464 0.31674 0.0
H2156 H 0.95663 0.9902 0.2923 0.0
H2157 H 0.99712 0.01415 0.21844 0.0
H2158 H 0.99999 0.99831 0.32647 0.0
H2159 H 0.04067 0.02264 0.25293 0.0
H2160 H 0.13674 0.02236 0.30917 0.0
H2161 H 0.09009 0.01607 0.27715 0.0
H2162 H 0.02709 0.01473 0.35691 0.0
H2163 H 0.07464 0.0209 0.38937 0.0
C2164 C 0.97426 0.9976 0.28351 0.0
C2165 C 0.97261 1.00165 0.25245 0.0
C2166 C 0.99948 1.00227 0.30333 0.0
C2167 C 0.02472 0.01115 0.29301 0.0
C2168 C 0.02233 0.01567 0.26212 0.0
C2169 C 0.99676 0.01103 0.24224 0.0
C2170 C 0.11305 0.02066 0.32021 0.0
C2171 C 0.11005 0.02215 0.35231 0.0
C2172 C 0.08584 0.01718 0.30148 0.0
C2173 C 0.05396 0.015 0.31378 0.0
C2174 C 0.05095 0.01619 0.34609 0.0
C2175 C 0.07843 0.01971 0.36498 0.0
H2176 H 0.249 0.50633 0.9648 0.0
H2177 H 0.20209 0.52655 1.04071 0.0
H2178 H 0.29264 0.49801 0.99903 0.0
H2179 H 0.24454 0.51786 0.07537 0.0
H2180 H 0.34363 0.51154 0.12787 0.0
H2181 H 0.29783 0.5193 0.0948 0.0
H2182 H 0.3127 0.48413 1.03654 0.0
H2183 H 0.35824 0.4769 0.06827 0.0
C2184 C 0.24712 0.5085 0.98905 0.0
C2185 C 0.22121 0.51684 0.99987 0.0
C2186 C 0.27254 0.50381 1.009 0.0
C2187 C 0.27296 0.50718 1.04068 0.0
C2188 C 0.24618 0.51513 0.05143 0.0
C2189 C 0.22116 0.51992 1.03146 0.0
C2190 C 0.33706 0.50549 0.10802 0.0
C2191 C 0.35548 0.49364 0.10096 0.0
C2192 C 0.31048 0.5099 0.08885 0.0
C2193 C 0.30104 0.50253 0.06211 0.0
C2194 C 0.31908 0.4905 0.05591 0.0
C2195 C 0.34553 0.48625 0.07464 0.0
H2196 H 0.92571 0.75863 0.12691 0.0
H2197 H 0.9061 0.79192 0.06452 0.0
H2198 H 0.97041 0.75072 0.09307 0.0
H2199 H 0.9509 0.7846 1.03192 0.0
H2200 H 0.0153 0.76221 0.96099 0.0
H2201 H 0.97219 0.77079 0.99536 0.0
H2202 H 0.02227 0.75197 0.07213 0.0
H2203 H 0.06395 0.74293 1.03736 0.0
C2204 C 0.93096 0.76435 0.10621 0.0
C2205 C 0.91155 0.77589 0.09873 0.0
C2206 C 0.95699 0.75987 0.0866 0.0
C2207 C 0.96498 0.76685 0.05891 0.0
C2208 C 0.94576 0.77853 0.0521 0.0
C2209 C 0.91976 0.78285 0.07131 0.0
C2210 C 0.01764 0.76028 0.98532 0.0
C2211 C 0.0438 0.75207 0.99621 0.0
C2212 C 0.99255 0.76514 1.00538 0.0
C2213 C 0.99279 0.76213 1.03727 0.0
C2214 C 0.01998 0.75439 0.04805 0.0
C2215 C 0.04459 0.74939 1.02799 0.0
H2216 H 0.21307 0.73851 0.30295 0.0
H2217 H 0.24143 0.76838 0.37051 0.0
H2218 H 0.25473 0.74718 0.268 0.0
H2219 H 0.28298 0.77759 0.33479 0.0
H2220 H 0.3799 0.78087 0.28045 0.0
H2221 H 0.33478 0.77366 0.31332 0.0
H2222 H 0.27733 0.76265 0.23366 0.0
H2223 H 0.32355 0.76964 0.20051 0.0
C2224 C 0.22768 0.74724 0.31016 0.0
C2225 C 0.22331 0.75273 0.33982 0.0
C2226 C 0.25186 0.7523 0.28979 0.0
C2227 C 0.27317 0.76313 0.29801 0.0
C2228 C 0.26784 0.76908 0.32732 0.0
C2229 C 0.24339 0.76397 0.34785 0.0
C2230 C 0.35777 0.77683 0.26968 0.0
C2231 C 0.35594 0.77583 0.23742 0.0
C2232 C 0.33137 0.77281 0.28883 0.0
C2233 C 0.30148 0.76762 0.27679 0.0
C2234 C 0.29971 0.76642 0.24438 0.0
C2235 C 0.32642 0.77042 0.22509 0.0
H2236 H 0.0164 0.50789 0.37089 0.0
H2237 H 0.05765 0.53078 0.29575 0.0
H2238 H 0.97333 0.49892 0.33682 0.0
H2239 H 0.01571 0.52157 0.26135 0.0
H2240 H 0.91638 0.51321 0.21055 0.0
H2241 H 0.96142 0.52181 0.24344 0.0
H2242 H 0.95559 0.485 0.29811 0.0
H2243 H 0.91087 0.47685 0.2665 0.0
C2244 C 0.01714 0.5106 0.34685 0.0
C2245 C 0.04129 0.51986 0.3362 0.0
C2246 C 0.99207 0.50553 0.32702 0.0
C2247 C 0.99022 0.50944 0.29566 0.0
C2248 C 0.0152 0.51838 0.28508 0.0
C2249 C 0.0399 0.52352 0.3049 0.0
C2250 C 0.92482 0.50696 0.22952 0.0
C2251 C 0.90916 0.49434 0.23565 0.0
C2252 C 0.95094 0.51187 0.2486 0.0
C2253 C 0.96261 0.50429 0.27433 0.0
C2254 C 0.94737 0.49152 0.27956 0.0
C2255 C 0.92141 0.48674 0.26089 0.0
H2256 H 0.80356 0.48881 0.0504 0.0
H2257 H 0.76508 0.51414 0.12269 0.0
H2258 H 0.76293 0.49813 1.01488 0.0
H2259 H 0.72319 0.52322 0.08746 0.0
H2260 H 0.66224 0.54458 1.01461 0.0
H2261 H 0.7065 0.5365 0.04713 0.0
H2262 H 0.70892 0.49845 0.99689 0.0
H2263 H 0.66452 0.50696 0.96315 0.0
C2264 C 0.78666 0.49659 0.0587 0.0
C2265 C 0.78835 0.50081 0.08961 0.0
C2266 C 0.7627 0.50181 1.03821 0.0
C2267 C 0.73878 0.51145 0.04766 0.0
C2268 C 0.74107 0.516 0.07853 0.0
C2269 C 0.76543 0.51083 0.09904 0.0
C2270 C 0.67206 0.53444 1.01018 0.0
C2271 C 0.65907 0.52646 0.98595 0.0
C2272 C 0.69768 0.52971 1.02936 0.0
C2273 C 0.71175 0.51661 1.02567 0.0
C2274 C 0.69939 0.50865 1.00085 0.0
C2275 C 0.67366 0.51351 0.98125 0.0
H2276 H 0.12747 0.24064 1.02927 0.0
H2277 H 0.07373 0.25387 0.94919 0.0
H2278 H 0.08215 0.24784 0.06183 0.0
H2279 H 0.02736 0.26095 0.9821 0.0
H2280 H 0.96454 0.28504 0.05285 0.0
H2281 H 1.00627 0.27647 1.01786 0.0
H2282 H 0.02889 0.2438 0.08125 0.0
H2283 H 0.98708 0.25275 0.11693 0.0
C2284 C 0.10589 0.24511 1.01838 0.0
C2285 C 0.10483 0.24665 0.98618 0.0
C2286 C 0.07938 0.24914 1.03735 0.0
C2287 C 0.05019 0.2549 1.02517 0.0
C2288 C 0.0492 0.25667 0.99287 0.0
C2289 C 0.07599 0.25263 0.97374 0.0
C2290 C 0.97794 0.27586 0.05932 0.0
C2291 C 0.97196 0.26966 0.08808 0.0
C2292 C 1.00212 0.27087 1.03891 0.0
C2293 C 0.02185 0.25941 0.04623 0.0
C2294 C 0.01496 0.2528 0.07456 0.0
C2295 C 0.99041 0.2578 0.09506 0.0
H2296 H 0.6336 0.24106 0.81094 0.0
H2297 H 0.69272 0.25024 0.8905 0.0
H2298 H 0.67848 0.24816 0.77769 0.0
H2299 H 0.73869 0.25713 0.8569 0.0
H2300 H 0.80304 0.28137 0.78745 0.0
H2301 H 0.76154 0.27287 0.8229 0.0
H2302 H 0.72951 0.24349 0.75527 0.0
H2303 H 0.77092 0.2525 0.71919 0.0
C2304 C 0.65629 0.24462 0.82154 0.0
C2305 C 0.65901 0.24507 0.8538 0.0
C2306 C 0.68253 0.24858 0.80216 0.0
C2307 C 0.71312 0.25313 0.81397 0.0
C2308 C 0.71576 0.25383 0.84639 0.0
C2309 C 0.6892 0.2499 0.86593 0.0
C2310 C 0.78766 0.27287 0.78021 0.0
C2311 C 0.79096 0.26758 0.75027 0.0
C2312 C 0.76357 0.26794 0.80082 0.0
C2313 C 0.74129 0.25746 0.7925 0.0
C2314 C 0.74548 0.25172 0.76284 0.0
C2315 C 0.76985 0.25669 0.74211 0.0
H2316 H 0.9971 0.51185 0.7154 0.0
H2317 H 0.95409 0.48939 0.79035 0.0
H2318 H 0.03999 0.52063 0.74973 0.0
H2319 H 0.99537 0.49864 0.82514 0.0
H2320 H 0.09188 0.50658 0.87891 0.0
H2321 H 0.04748 0.49838 0.84511 0.0
H2322 H 0.06101 0.53389 0.78726 0.0
H2323 H 0.10566 0.54151 0.81981 0.0
C2324 C 0.99601 0.50913 0.73941 0.0
C2325 C 0.97155 0.49994 0.74982 0.0
C2326 C 0.02094 0.51416 0.75948 0.0
C2327 C 0.02221 0.51038 0.79095 0.0
C2328 C 0.9966 0.50168 0.80135 0.0
C2329 C 0.97219 0.49652 0.78127 0.0
C2330 C 0.08535 0.51261 0.85896 0.0
C2331 C 0.10308 0.5247 0.85235 0.0
C2332 C 0.05948 0.50795 0.83936 0.0
C2333 C 0.0499 0.51531 0.81258 0.0
C2334 C 0.06741 0.52753 0.80668 0.0
C2335 C 0.09331 0.53203 0.82586 0.0
H2336 H 0.87966 0.99063 0.06108 0.0
H2337 H 0.82366 1.0023 0.14085 0.0
H2338 H 0.8349 0.99812 1.02807 0.0
H2339 H 0.77779 1.0096 0.10754 0.0
H2340 H 0.71394 0.03382 1.03791 0.0
H2341 H 0.75558 0.02512 0.07291 0.0
H2342 H 0.783 0.99442 1.00654 0.0
H2343 H 0.74145 1.00363 0.97079 0.0
C2344 C 0.8577 0.99483 0.07179 0.0
C2345 C 0.85586 0.99585 0.10406 0.0
C2346 C 0.83149 0.99902 0.05255 0.0
C2347 C 0.80176 1.00441 0.06448 0.0
C2348 C 0.80003 1.00567 0.09689 0.0
C2349 C 0.82656 1.00149 0.11628 0.0
C2350 C 0.72838 0.02502 1.03079 0.0
C2351 C 0.72371 0.01943 1.00124 0.0
C2352 C 0.75255 0.01995 0.0512 0.0
C2353 C 0.77359 1.00901 1.04315 0.0
C2354 C 0.76807 1.00301 1.01391 0.0
C2355 C 0.74361 1.00812 0.99335 0.0
H2356 H 0.44 0.26955 0.13866 0.0
H2357 H 0.37909 0.27228 0.0578 0.0
H2358 H 0.48753 0.26298 0.1065 0.0
H2359 H 0.42564 0.26565 1.0261 0.0
H2360 H 0.51892 0.26378 0.96837 0.0
H2361 H 0.4757 0.27232 1.0031 0.0
H2362 H 0.51386 0.24646 0.07521 0.0
H2363 H 0.55697 0.23829 1.0408 0.0
C2364 C 0.43643 0.26851 0.1142 0.0
C2365 C 0.40523 0.27146 0.1012 0.0
C2366 C 0.4639 0.2648 0.09549 0.0
C2367 C 0.46122 0.26394 0.0631 0.0
C2368 C 0.42966 0.26652 0.05052 0.0
C2369 C 0.4025 0.27019 0.06904 0.0
C2370 C 0.51882 0.26032 0.99194 0.0
C2371 C 0.54216 0.25051 1.00169 0.0
C2372 C 0.49344 0.26499 1.01192 0.0
C2373 C 0.49044 0.26005 1.04243 0.0
C2374 C 0.51491 0.25073 0.05236 0.0
C2375 C 0.53996 0.24603 1.03242 0.0
H2376 H 0.88729 0.27354 0.28274 0.0
H2377 H 0.82586 0.26958 0.20249 0.0
H2378 H 0.84081 0.26749 0.31522 0.0
H2379 H 0.77848 0.26365 0.23537 0.0
H2380 H 0.70895 0.23993 0.3023 0.0
H2381 H 0.75216 0.24768 0.26754 0.0
H2382 H 0.79082 0.27401 0.33837 0.0
H2383 H 0.74746 0.26586 0.37352 0.0
C2384 C 0.86379 0.27133 0.2718 0.0
C2385 C 0.86093 0.27204 0.23954 0.0
C2386 C 0.83666 0.26799 0.29077 0.0
C2387 C 0.80501 0.26519 0.27857 0.0
C2388 C 0.80217 0.26561 0.24614 0.0
C2389 C 0.82956 0.26898 0.22701 0.0
C2390 C 0.72611 0.24768 0.31034 0.0
C2391 C 0.72394 0.2524 0.34084 0.0
C2392 C 0.75123 0.25215 0.29017 0.0
C2393 C 0.77586 0.26149 0.2996 0.0
C2394 C 0.77296 0.26666 0.3299 0.0
C2395 C 0.7475 0.26221 0.35013 0.0
H2396 H 0.55591 0.03334 0.3022 0.0
H2397 H 0.52208 1.00617 0.37335 0.0
H2398 H 0.51536 0.02393 0.267 0.0
H2399 H 0.47972 0.99717 0.33871 0.0
H2400 H 0.41564 0.97688 0.26661 0.0
H2401 H 0.46034 0.98473 0.29894 0.0
H2402 H 0.46232 0.02308 0.24939 0.0
H2403 H 0.418 0.01472 0.21573 0.0
C2404 C 0.53994 0.02518 0.31035 0.0
C2405 C 0.54281 0.02053 0.34089 0.0
C2406 C 0.51595 0.0199 0.29006 0.0
C2407 C 0.49302 1.00981 0.2994 0.0
C2408 C 0.49667 1.00478 0.32983 0.0
C2409 C 0.52127 1.00994 0.35005 0.0
C2410 C 0.42554 0.98702 0.26235 0.0
C2411 C 0.41261 0.99513 0.23827 0.0
C2412 C 0.4514 0.99164 0.2814 0.0
C2413 C 0.46559 1.00474 0.27777 0.0
C2414 C 0.45293 0.01285 0.25327 0.0
C2415 C 0.42715 1.00809 0.23375 0.0
H2416 H 0.26206 0.01347 0.12836 0.0
H2417 H 0.31215 0.99434 0.05278 0.0
H2418 H 0.21962 0.02215 0.09326 0.0
H2419 H 0.2709 1.00337 1.01734 0.0
H2420 H 0.17443 1.00998 0.96183 0.0
H2421 H 0.21851 1.00191 0.99633 0.0
H2422 H 0.20028 0.03633 0.05597 0.0
H2423 H 0.15621 0.04386 1.02275 0.0
C2424 C 0.26487 0.01162 0.10406 0.0
C2425 C 0.29133 1.00349 0.09354 0.0
C2426 C 0.24017 0.01651 0.08361 0.0
C2427 C 0.24098 0.01353 0.05175 0.0
C2428 C 0.26831 1.0058 1.04137 0.0
C2429 C 0.29264 1.00081 0.06181 0.0
C2430 C 0.17979 0.01577 0.98235 0.0
C2431 C 0.16099 0.02755 0.9892 0.0
C2432 C 0.20545 0.0112 1.00232 0.0
C2433 C 0.21358 0.01831 1.02975 0.0
C2434 C 0.19495 0.03019 1.03598 0.0
C2435 C 0.16936 0.03462 1.0164 0.0
H2436 H 0.58944 0.76281 0.95859 0.0
H2437 H 0.61062 0.72993 1.0217 0.0
H2438 H 0.54485 0.77067 0.9927 0.0
H2439 H 0.56613 0.73724 0.05455 0.0
H2440 H 0.50276 0.75999 0.12551 0.0
H2441 H 0.54591 0.75165 0.09091 0.0
H2442 H 0.49253 0.76862 1.0139 0.0
H2443 H 0.45051 0.77736 0.0489 0.0
C2444 C 0.58466 0.7572 0.97953 0.0
C2445 C 0.60439 0.74575 0.98707 0.0
C2446 C 0.55871 0.76165 0.99926 0.0
C2447 C 0.55125 0.75475 1.02716 0.0
C2448 C 0.57088 0.74322 1.03414 0.0
C2449 C 0.59672 0.73891 1.01477 0.0
C2450 C 0.49964 0.76148 0.1011 0.0
C2451 C 0.4723 0.76899 0.09013 0.0
C2452 C 0.52475 0.75679 0.08093 0.0
C2453 C 0.52352 0.75937 0.0489 0.0
C2454 C 0.49541 0.76651 1.03808 0.0
C2455 C 0.47065 0.77132 0.05825 0.0
H2456 H 0.25884 0.75868 0.70811 0.0
H2457 H 0.31211 0.77611 0.7839 0.0
H2458 H 0.21678 0.74995 0.74338 0.0
H2459 H 0.27124 0.76694 0.8196 0.0
H2460 H 0.17591 0.76022 0.87685 0.0
H2461 H 0.2197 0.76841 0.84218 0.0
H2462 H 0.19718 0.73548 0.77963 0.0
H2463 H 0.15343 0.72788 0.813 0.0
C2464 C 0.26245 0.76011 0.73248 0.0
C2465 C 0.28974 0.76775 0.743 0.0
C2466 C 0.23796 0.75518 0.75305 0.0
C2467 C 0.23978 0.75764 0.7851 0.0
C2468 C 0.26788 0.76491 0.79546 0.0
C2469 C 0.292 0.76997 0.77487 0.0
C2470 C 0.18024 0.75479 0.85563 0.0
C2471 C 0.16036 0.74341 0.84806 0.0
C2472 C 0.20574 0.75943 0.83556 0.0
C2473 C 0.21261 0.75278 0.80728 0.0
C2474 C 0.19287 0.74129 0.8003 0.0
C2475 C 0.16746 0.7368 0.81999 0.0
H2476 H 0.46432 0.98587 0.78758 0.0
H2477 H 0.48997 0.01671 0.72109 0.0
H2478 H 0.50598 0.99462 0.82252 0.0
H2479 H 0.53156 0.02594 0.75672 0.0
H2480 H 0.62934 0.02927 0.80957 0.0
H2481 H 0.5841 0.02186 0.77713 0.0
H2482 H 0.52802 1.01032 0.85727 0.0
H2483 H 0.57436 0.0176 0.89007 0.0
C2484 C 0.47833 0.99482 0.78062 0.0
C2485 C 0.4732 1.00058 0.75127 0.0
C2486 C 0.5025 0.99991 0.80097 0.0
C2487 C 0.52306 0.01102 0.79296 0.0
C2488 C 0.51699 0.01721 0.76398 0.0
C2489 C 0.49252 0.01209 0.74352 0.0
C2490 C 0.60751 0.02508 0.82056 0.0
C2491 C 0.60608 0.02405 0.85285 0.0
C2492 C 0.58103 0.02094 0.80166 0.0
C2493 C 0.55147 0.01557 0.81397 0.0
C2494 C 0.55014 0.01427 0.84638 0.0
C2495 C 0.57693 0.01842 0.86545 0.0
H2496 H 0.8505 0.47541 0.57351 0.0
H2497 H 0.84422 0.51224 0.6275 0.0
H2498 H 0.8062 0.48331 0.54091 0.0
H2499 H 0.79975 0.52059 0.59363 0.0
H2500 H 0.70525 0.52965 0.53918 0.0
H2501 H 0.74604 0.52046 0.57478 0.0
H2502 H 0.78899 0.49683 0.50129 0.0
H2503 H 0.74703 0.50581 0.46599 0.0
C2504 C 0.83984 0.48535 0.57847 0.0
C2505 C 0.85174 0.49316 0.60346 0.0
C2506 C 0.81416 0.48998 0.55923 0.0
C2507 C 0.79891 0.50281 0.5636 0.0
C2508 C 0.81022 0.51059 0.58911 0.0
C2509 C 0.83601 0.50583 0.60877 0.0
C2510 C 0.72284 0.52218 0.53072 0.0
C2511 C 0.72197 0.51828 0.49958 0.0
C2512 C 0.74691 0.51704 0.55125 0.0
C2513 C 0.77177 0.50786 0.54158 0.0
C2514 C 0.77035 0.50366 0.51041 0.0
C2515 C 0.74591 0.50874 0.48987 0.0
H2516 H 0.51609 0.76228 0.46155 0.0
H2517 H 0.56455 0.74315 0.53823 0.0
H2518 H 0.4727 0.77081 0.49568 0.0
H2519 H 0.52247 0.75211 0.57276 0.0
H2520 H 0.42491 0.75864 0.62656 0.0
H2521 H 0.47005 0.75073 0.59316 0.0
H2522 H 0.45183 0.78482 0.53224 0.0
H2523 H 0.40671 0.79216 0.56441 0.0
C2524 C 0.51834 0.76039 0.48591 0.0
C2525 C 0.54459 0.75228 0.49698 0.0
C2526 C 0.49308 0.76521 0.50581 0.0
C2527 C 0.49318 0.76223 0.53771 0.0
C2528 C 0.52036 0.75453 0.54867 0.0
C2529 C 0.54518 0.74958 0.52875 0.0
C2530 C 0.43056 0.76441 0.60602 0.0
C2531 C 0.4114 0.77601 0.59845 0.0
C2532 C 0.45681 0.75993 0.58666 0.0
C2533 C 0.46524 0.76696 0.55916 0.0
C2534 C 0.44632 0.77871 0.55229 0.0
C2535 C 0.42013 0.78304 0.57125 0.0
H2536 H 0.75147 0.76525 0.87534 0.0
H2537 H 0.70161 0.74665 0.79894 0.0
H2538 H 0.79489 0.77358 0.84093 0.0
H2539 H 0.74362 0.75546 0.76413 0.0
H2540 H 0.84048 0.76123 0.70939 0.0
H2541 H 0.79555 0.75363 0.74336 0.0
H2542 H 0.81668 0.78733 0.8043 0.0
H2543 H 0.8617 0.79434 0.77156 0.0
C2544 C 0.74894 0.76343 0.851 0.0
C2545 C 0.72235 0.75549 0.8401 0.0
C2546 C 0.7742 0.76814 0.83092 0.0
C2547 C 0.77372 0.76523 0.79902 0.0
C2548 C 0.74609 0.75779 0.78822 0.0
C2549 C 0.72129 0.75293 0.8083 0.0
C2550 C 0.83557 0.76696 0.73009 0.0
C2551 C 0.85546 0.77837 0.73744 0.0
C2552 C 0.8094 0.76267 0.74976 0.0
C2553 C 0.80175 0.76972 0.77738 0.0
C2554 C 0.82152 0.78124 0.78414 0.0
C2555 C 0.84766 0.78537 0.76485 0.0
H2556 H 0.3797 0.49515 0.78165 0.0
H2557 H 0.43707 0.50442 0.70103 0.0
H2558 H 0.42536 0.50219 0.81408 0.0
H2559 H 0.48376 0.51128 0.73379 0.0
H2560 H 0.54974 0.53547 0.80173 0.0
H2561 H 0.50729 0.52702 0.76728 0.0
H2562 H 0.47708 0.49757 0.83565 0.0
H2563 H 0.51957 0.50648 0.87074 0.0
C2564 C 0.40215 0.49873 0.77063 0.0
C2565 C 0.40412 0.49922 0.73831 0.0
C2566 C 0.42884 0.50265 0.78954 0.0
C2567 C 0.45916 0.50723 0.77719 0.0
C2568 C 0.46107 0.50796 0.74472 0.0
C2569 C 0.43408 0.50405 0.72566 0.0
C2570 C 0.53451 0.52699 0.8094 0.0
C2571 C 0.53864 0.52168 0.83931 0.0
C2572 C 0.50988 0.52207 0.78933 0.0
C2573 C 0.48783 0.51158 0.79813 0.0
C2574 C 0.49282 0.50582 0.82772 0.0
C2575 C 0.51777 0.51076 0.84792 0.0
H2576 H 0.29973 0.48847 0.55193 0.0
H2577 H 0.27115 0.51881 0.61832 0.0
H2578 H 0.25824 0.49695 0.51645 0.0
H2579 H 0.22976 0.52779 0.58213 0.0
H2580 H 0.13343 0.53099 0.5271 0.0
H2581 H 0.17804 0.52366 0.56048 0.0
H2582 H 0.23621 0.51244 0.48148 0.0
H2583 H 0.19051 0.51958 0.44779 0.0
C2584 C 0.28511 0.49726 0.55876 0.0
C2585 C 0.28942 0.50297 0.58822 0.0
C2586 C 0.26103 0.5022 0.5381 0.0
C2587 C 0.23975 0.5131 0.54585 0.0
C2588 C 0.24492 0.51922 0.575 0.0
C2589 C 0.26928 0.51425 0.5958 0.0
C2590 C 0.15559 0.52687 0.51658 0.0
C2591 C 0.15781 0.52588 0.48435 0.0
C2592 C 0.18169 0.52278 0.53603 0.0
C2593 C 0.21166 0.51754 0.52431 0.0
C2594 C 0.21376 0.51628 0.49194 0.0
C2595 C 0.18734 0.52035 0.47234 0.0
H2596 H 0.46254 0.28689 0.55219 0.0
H2597 H 0.49022 0.25725 0.62074 0.0
H2598 H 0.50431 0.27799 0.51768 0.0
H2599 H 0.53197 0.24787 0.58553 0.0
H2600 H 0.62888 0.24403 0.53143 0.0
H2601 H 0.58396 0.25166 0.56398 0.0
H2602 H 0.52651 0.2621 0.48386 0.0
H2603 H 0.57251 0.25463 0.45097 0.0
C2604 C 0.47709 0.2782 0.55977 0.0
C2605 C 0.47246 0.27284 0.58958 0.0
C2606 C 0.50131 0.273 0.53964 0.0
C2607 C 0.52244 0.26216 0.54825 0.0
C2608 C 0.51696 0.25638 0.57775 0.0
C2609 C 0.49243 0.2616 0.59801 0.0
C2610 C 0.6068 0.24802 0.52046 0.0
C2611 C 0.6049 0.2487 0.48815 0.0
C2612 C 0.58052 0.2523 0.53945 0.0
C2613 C 0.55067 0.25744 0.52719 0.0
C2614 C 0.54885 0.25836 0.49473 0.0
C2615 C 0.57545 0.25409 0.47559 0.0
H2616 H 0.1293 0.24157 0.31093 0.0
H2617 H 0.19326 0.24988 0.38775 0.0
H2618 H 0.17221 0.24886 0.27582 0.0
H2619 H 0.23699 0.25754 0.35196 0.0
H2620 H 0.31928 0.25895 0.27505 0.0
H2621 H 0.27769 0.25052 0.31198 0.0
H2622 H 0.2001 0.2682 0.25653 0.0
H2623 H 0.24131 0.27654 0.22053 0.0
C2624 C 0.1525 0.24514 0.32053 0.0
C2625 C 0.15726 0.24517 0.35256 0.0
C2626 C 0.17739 0.24941 0.3001 0.0
C2627 C 0.20862 0.25389 0.31053 0.0
C2628 C 0.21356 0.25407 0.3427 0.0
C2629 C 0.18823 0.24986 0.3634 0.0
C2630 C 0.29323 0.26055 0.27023 0.0
C2631 C 0.28375 0.2678 0.24365 0.0
C2632 C 0.26927 0.25596 0.29182 0.0
C2633 C 0.23499 0.25851 0.2876 0.0
C2634 C 0.22582 0.26564 0.26073 0.0
C2635 C 0.24963 0.2703 0.23956 0.0
H2636 H 0.59315 0.50742 0.37789 0.0
H2637 H 0.60344 0.54334 0.32117 0.0
H2638 H 0.54948 0.49897 0.34352 0.0
H2639 H 0.55962 0.53541 0.28804 0.0
H2640 H 0.49915 0.51291 0.21433 0.0
H2641 H 0.54106 0.52192 0.24942 0.0
H2642 H 0.49688 0.49904 0.32369 0.0
H2643 H 0.45643 0.48964 0.28822 0.0
C2644 C 0.586 0.51361 0.35838 0.0
C2645 C 0.60254 0.52606 0.35256 0.0
C2646 C 0.56059 0.5088 0.33845 0.0
C2647 C 0.55039 0.51634 0.31213 0.0
C2648 C 0.56663 0.52892 0.30707 0.0
C2649 C 0.59203 0.53359 0.32659 0.0
C2650 C 0.49789 0.51006 0.23826 0.0
C2651 C 0.47381 0.5006 0.24819 0.0
C2652 C 0.52226 0.51521 0.25874 0.0
C2653 C 0.52334 0.51125 0.2901 0.0
C2654 C 0.49816 0.50224 0.3 0.0
C2655 C 0.47427 0.49698 0.27953 0.0
loop_
_geom_bond_atom_site_label_1
_geom_bond_atom_site_label_2
_geom_bond_distance
_geom_bond_site_symmetry_2
_ccdc_geom_bond_type
C0 C1 1.351 . S
C0 N3 1.368 . S
C0 H5 0.931 . S
C1 C0 1.351 . S
C1 N2 1.373 . S
C1 H29 0.930 . S
N2 C1 1.373 . S
N2 C4 1.340 . S
N3 C0 1.368 . S
N3 C4 1.321 . S
N3 Co6 2.135 . S
C4 N2 1.340 . S
C4 N3 1.321 . S
C4 H28 0.930 . S
H5 C0 0.931 . S
Co6 N3 2.135 . S
Co6 N9 2.121 . S
Co6 O14 2.055 . S
Co6 O17 2.039 . S
Co6 N20 2.140 . S
C7 O8 1.227 . S
C7 O17 1.265 . S
O8 C7 1.227 . S
N9 Co6 2.121 . S
N9 C11 1.375 . S
N9 C12 1.313 . S
C10 C11 1.338 . S
C10 N13 1.377 . S
C10 H30 0.930 . S
C11 N9 1.375 . S
C11 C10 1.338 . S
C11 H15 0.931 . S
C12 N9 1.313 . S
C12 N13 1.344 . S
C12 H16 0.930 . S
N13 C10 1.377 . S
N13 C12 1.344 . S
O14 Co6 2.055 . S
O14 C18 1.253 . S
H15 C11 0.931 . S
H16 C12 0.930 . S
O17 Co6 2.039 . S
O17 C7 1.265 . S
C18 O14 1.253 . S
C18 O19 1.227 . S
O19 C18 1.227 . S
N20 Co6 2.140 . S
N20 C23 1.346 . S
N20 C24 1.345 . S
C21 C22 1.387 . S
C21 C25 1.391 . S
C22 C21 1.387 . S
C22 C23 1.369 . S
C22 H31 0.929 . S
C23 N20 1.346 . S
C23 C22 1.369 . S
C23 H26 0.928 . S
C24 N20 1.345 . S
C24 C25 1.371 . S
C24 H27 0.931 . S
C25 C21 1.391 . S
C25 C24 1.371 . S
C25 H32 0.930 . S
H26 C23 0.928 . S
H27 C24 0.931 . S
H28 C4 0.930 . S
H29 C1 0.930 . S
H30 C10 0.930 . S
H31 C22 0.929 . S
H32 C25 0.930 . S
C33 C34 1.351 . S
C33 N36 1.368 . S
C33 H38 0.931 . S
C34 C33 1.351 . S
C34 N35 1.373 . S
C34 H62 0.930 . S
N35 C34 1.373 . S
N35 C37 1.340 . S
N36 C33 1.368 . S
N36 C37 1.321 . S
N36 Co39 2.135 . S
C37 N35 1.340 . S
C37 N36 1.321 . S
C37 H61 0.930 . S
H38 C33 0.931 . S
Co39 N36 2.135 . S
Co39 N42 2.121 . S
Co39 O47 2.055 . S
Co39 O50 2.039 . S
Co39 N53 2.140 . S
C40 O41 1.227 . S
C40 O50 1.265 . S
O41 C40 1.227 . S
N42 Co39 2.121 . S
N42 C44 1.375 . S
N42 C45 1.313 1_455 S
C43 C44 1.338 . S
C43 N46 1.377 1_455 S
C43 H63 0.930 1_455 S
C44 N42 1.375 . S
C44 C43 1.338 . S
C44 H48 0.931 . S
C45 N42 1.313 1_655 S
C45 N46 1.344 . S
C45 H49 0.930 . S
N46 C43 1.377 1_655 S
N46 C45 1.344 . S
O47 Co39 2.055 . S
O47 C51 1.253 . S
H48 C44 0.931 . S
H49 C45 0.930 . S
O50 Co39 2.039 . S
O50 C40 1.265 . S
C51 O47 1.253 . S
C51 O52 1.227 . S
O52 C51 1.227 . S
N53 Co39 2.140 . S
N53 C56 1.346 . S
N53 C57 1.345 . S
C54 C55 1.387 . S
C54 C58 1.391 . S
C55 C54 1.387 . S
C55 C56 1.369 . S
C55 H64 0.929 . S
C56 N53 1.346 . S
C56 C55 1.369 . S
C56 H59 0.928 . S
C57 N53 1.345 . S
C57 C58 1.371 . S
C57 H60 0.931 . S
C58 C54 1.391 . S
C58 C57 1.371 . S
C58 H65 0.930 . S
H59 C56 0.928 . S
H60 C57 0.931 . S
H61 C37 0.930 . S
H62 C34 0.930 . S
H63 C43 0.930 1_655 S
H64 C55 0.929 . S
H65 C58 0.930 . S
C66 C67 1.351 . S
C66 N69 1.368 . S
C66 H71 0.931 . S
C67 C66 1.351 . S
C67 N68 1.373 . S
C67 H95 0.930 . S
N68 C67 1.373 . S
N68 C70 1.340 . S
N69 C66 1.368 . S
N69 C70 1.321 . S
N69 Co72 2.135 . S
C70 N68 1.340 . S
C70 N69 1.321 . S
C70 H94 0.930 . S
H71 C66 0.931 . S
Co72 N69 2.135 . S
Co72 N75 2.121 . S
Co72 O80 2.055 . S
Co72 O83 2.039 . S
Co72 N86 2.140 . S
C73 O74 1.227 . S
C73 O83 1.265 . S
O74 C73 1.227 . S
N75 Co72 2.121 . S
N75 C77 1.375 . S
N75 C78 1.313 . S
C76 C77 1.338 . S
C76 N79 1.377 . S
C76 H96 0.930 . S
C77 N75 1.375 . S
C77 C76 1.338 . S
C77 H81 0.931 . S
C78 N75 1.313 . S
C78 N79 1.344 . S
C78 H82 0.930 . S
N79 C76 1.377 . S
N79 C78 1.344 . S
O80 Co72 2.055 . S
O80 C84 1.253 . S
H81 C77 0.931 . S
H82 C78 0.930 . S
O83 Co72 2.039 . S
O83 C73 1.265 . S
C84 O80 1.253 . S
C84 O85 1.227 . S
O85 C84 1.227 . S
N86 Co72 2.140 . S
N86 C89 1.346 . S
N86 C90 1.345 . S
C87 C88 1.387 . S
C87 C91 1.391 . S
C88 C87 1.387 . S
C88 C89 1.369 . S
C88 H97 0.929 . S
C89 N86 1.346 . S
C89 C88 1.369 . S
C89 H92 0.928 . S
C90 N86 1.345 . S
C90 C91 1.371 . S
C90 H93 0.931 . S
C91 C87 1.391 . S
C91 C90 1.371 . S
C91 H98 0.930 . S
H92 C89 0.928 . S
H93 C90 0.931 . S
H94 C70 0.930 . S
H95 C67 0.930 . S
H96 C76 0.930 . S
H97 C88 0.929 . S
H98 C91 0.930 . S
C99 C100 1.351 . S
C99 N102 1.368 . S
C99 H104 0.931 . S
C100 C99 1.351 . S
C100 N101 1.373 . S
C100 H128 0.930 . S
N101 C100 1.373 . S
N101 C103 1.340 . S
N102 C99 1.368 . S
N102 C103 1.321 . S
N102 Co105 2.135 . S
C103 N101 1.340 . S
C103 N102 1.321 . S
C103 H127 0.930 . S
H104 C99 0.931 . S
Co105 N102 2.135 . S
Co105 N108 2.121 . S
Co105 O113 2.055 . S
Co105 O116 2.039 . S
Co105 N119 2.140 . S
C106 O107 1.227 . S
C106 O116 1.265 . S
O107 C106 1.227 . S
N108 Co105 2.121 . S
N108 C110 1.375 . S
N108 C111 1.313 1_455 S
C109 C110 1.338 . S
C109 N112 1.377 1_455 S
C109 H129 0.930 1_455 S
C110 N108 1.375 . S
C110 C109 1.338 . S
C110 H114 0.931 . S
C111 N108 1.313 1_655 S
C111 N112 1.344 . S
C111 H115 0.930 . S
N112 C109 1.377 1_655 S
N112 C111 1.344 . S
O113 Co105 2.055 . S
O113 C117 1.253 . S
H114 C110 0.931 . S
H115 C111 0.930 . S
O116 Co105 2.039 . S
O116 C106 1.265 . S
C117 O113 1.253 . S
C117 O118 1.227 . S
O118 C117 1.227 . S
N119 Co105 2.140 . S
N119 C122 1.346 . S
N119 C123 1.345 . S
C120 C121 1.387 . S
C120 C124 1.391 . S
C121 C120 1.387 . S
C121 C122 1.369 . S
C121 H130 0.929 . S
C122 N119 1.346 . S
C122 C121 1.369 . S
C122 H125 0.928 . S
C123 N119 1.345 . S
C123 C124 1.371 . S
C123 H126 0.931 . S
C124 C120 1.391 . S
C124 C123 1.371 . S
C124 H131 0.930 . S
H125 C122 0.928 . S
H126 C123 0.931 . S
H127 C103 0.930 . S
H128 C100 0.930 . S
H129 C109 0.930 1_655 S
H130 C121 0.929 . S
H131 C124 0.930 . S
C132 C133 1.351 . S
C132 N135 1.368 . S
C132 H137 0.931 . S
C133 C132 1.351 . S
C133 N134 1.373 . S
C133 H161 0.930 . S
N134 C133 1.373 . S
N134 C136 1.340 . S
N135 C132 1.368 . S
N135 C136 1.321 . S
N135 Co138 2.135 . S
C136 N134 1.340 . S
C136 N135 1.321 . S
C136 H160 0.930 . S
H137 C132 0.931 . S
Co138 N135 2.135 . S
Co138 N141 2.121 . S
Co138 O146 2.055 . S
Co138 O149 2.039 . S
Co138 N152 2.140 . S
C139 O140 1.227 . S
C139 O149 1.265 . S
O140 C139 1.227 . S
N141 Co138 2.121 . S
N141 C143 1.375 . S
N141 C144 1.313 . S
C142 C143 1.338 . S
C142 N145 1.377 . S
C142 H162 0.930 . S
C143 N141 1.375 . S
C143 C142 1.338 . S
C143 H147 0.931 . S
C144 N141 1.313 . S
C144 N145 1.344 . S
C144 H148 0.930 . S
N145 C142 1.377 . S
N145 C144 1.344 . S
O146 Co138 2.055 . S
O146 C150 1.253 . S
H147 C143 0.931 . S
H148 C144 0.930 . S
O149 Co138 2.039 . S
O149 C139 1.265 . S
C150 O146 1.253 . S
C150 O151 1.227 . S
O151 C150 1.227 . S
N152 Co138 2.140 . S
N152 C155 1.346 . S
N152 C156 1.345 . S
C153 C154 1.387 . S
C153 C157 1.391 . S
C154 C153 1.387 . S
C154 C155 1.369 . S
C154 H163 0.929 . S
C155 N152 1.346 . S
C155 C154 1.369 . S
C155 H158 0.928 . S
C156 N152 1.345 . S
C156 C157 1.371 . S
C156 H159 0.931 . S
C157 C153 1.391 . S
C157 C156 1.371 . S
C157 H164 0.930 . S
H158 C155 0.928 . S
H159 C156 0.931 . S
H160 C136 0.930 . S
H161 C133 0.930 . S
H162 C142 0.930 . S
H163 C154 0.929 . S
H164 C157 0.930 . S
C165 C166 1.351 . S
C165 N168 1.368 . S
C165 H170 0.931 . S
C166 C165 1.351 . S
C166 N167 1.373 . S
C166 H194 0.930 . S
N167 C166 1.373 . S
N167 C169 1.340 . S
N168 C165 1.368 . S
N168 C169 1.321 . S
N168 Co171 2.135 . S
C169 N167 1.340 . S
C169 N168 1.321 . S
C169 H193 0.930 . S
H170 C165 0.931 . S
Co171 N168 2.135 . S
Co171 N174 2.121 . S
Co171 O179 2.055 . S
Co171 O182 2.039 . S
Co171 N185 2.140 . S
C172 O173 1.227 . S
C172 O182 1.265 . S
O173 C172 1.227 . S
N174 Co171 2.121 . S
N174 C176 1.375 . S
N174 C177 1.313 1_655 S
C175 C176 1.338 . S
C175 N178 1.377 1_655 S
C175 H195 0.930 1_655 S
C176 N174 1.375 . S
C176 C175 1.338 . S
C176 H180 0.931 . S
C177 N174 1.313 1_455 S
C177 N178 1.344 . S
C177 H181 0.930 . S
N178 C175 1.377 1_455 S
N178 C177 1.344 . S
O179 Co171 2.055 . S
O179 C183 1.253 . S
H180 C176 0.931 . S
H181 C177 0.930 . S
O182 Co171 2.039 . S
O182 C172 1.265 . S
C183 O179 1.253 . S
C183 O184 1.227 . S
O184 C183 1.227 . S
N185 Co171 2.140 . S
N185 C188 1.346 . S
N185 C189 1.345 . S
C186 C187 1.387 . S
C186 C190 1.391 . S
C187 C186 1.387 . S
C187 C188 1.369 . S
C187 H196 0.929 . S
C188 N185 1.346 . S
C188 C187 1.369 . S
C188 H191 0.928 . S
C189 N185 1.345 . S
C189 C190 1.371 . S
C189 H192 0.931 . S
C190 C186 1.391 . S
C190 C189 1.371 . S
C190 H197 0.930 . S
H191 C188 0.928 . S
H192 C189 0.931 . S
H193 C169 0.930 . S
H194 C166 0.930 . S
H195 C175 0.930 1_455 S
H196 C187 0.929 . S
H197 C190 0.930 . S
C198 C199 1.351 . S
C198 N201 1.368 . S
C198 H203 0.931 . S
C199 C198 1.351 . S
C199 N200 1.373 . S
C199 H227 0.930 . S
N200 C199 1.373 . S
N200 C202 1.340 . S
N201 C198 1.368 . S
N201 C202 1.321 . S
N201 Co204 2.135 . S
C202 N200 1.340 . S
C202 N201 1.321 . S
C202 H226 0.930 . S
H203 C198 0.931 . S
Co204 N201 2.135 . S
Co204 N207 2.121 . S
Co204 O212 2.055 . S
Co204 O215 2.039 . S
Co204 N218 2.140 . S
C205 O206 1.227 . S
C205 O215 1.265 . S
O206 C205 1.227 . S
N207 Co204 2.121 . S
N207 C209 1.375 . S
N207 C210 1.313 . S
C208 C209 1.338 . S
C208 N211 1.377 . S
C208 H228 0.930 . S
C209 N207 1.375 . S
C209 C208 1.338 . S
C209 H213 0.931 . S
C210 N207 1.313 . S
C210 N211 1.344 . S
C210 H214 0.930 . S
N211 C208 1.377 . S
N211 C210 1.344 . S
O212 Co204 2.055 . S
O212 C216 1.253 . S
H213 C209 0.931 . S
H214 C210 0.930 . S
O215 Co204 2.039 . S
O215 C205 1.265 . S
C216 O212 1.253 . S
C216 O217 1.227 . S
O217 C216 1.227 . S
N218 Co204 2.140 . S
N218 C221 1.346 . S
N218 C222 1.345 . S
C219 C220 1.387 . S
C219 C223 1.391 . S
C220 C219 1.387 . S
C220 C221 1.369 . S
C220 H229 0.929 . S
C221 N218 1.346 . S
C221 C220 1.369 . S
C221 H224 0.928 . S
C222 N218 1.345 . S
C222 C223 1.371 . S
C222 H225 0.931 . S
C223 C219 1.391 . S
C223 C222 1.371 . S
C223 H230 0.930 . S
H224 C221 0.928 . S
H225 C222 0.931 . S
H226 C202 0.930 . S
H227 C199 0.930 . S
H228 C208 0.930 . S
H229 C220 0.929 . S
H230 C223 0.930 . S
C231 C232 1.351 . S
C231 N234 1.368 . S
C231 H236 0.931 . S
C232 C231 1.351 . S
C232 N233 1.373 . S
C232 H260 0.930 . S
N233 C232 1.373 . S
N233 C235 1.340 . S
N234 C231 1.368 . S
N234 C235 1.321 . S
N234 Co237 2.135 . S
C235 N233 1.340 . S
C235 N234 1.321 . S
C235 H259 0.930 . S
H236 C231 0.931 . S
Co237 N234 2.135 . S
Co237 N240 2.121 . S
Co237 O245 2.055 . S
Co237 O248 2.039 . S
Co237 N251 2.140 . S
C238 O239 1.227 . S
C238 O248 1.265 . S
O239 C238 1.227 . S
N240 Co237 2.121 . S
N240 C242 1.375 . S
N240 C243 1.313 1_655 S
C241 C242 1.338 . S
C241 N244 1.377 1_655 S
C241 H261 0.930 1_655 S
C242 N240 1.375 . S
C242 C241 1.338 . S
C242 H246 0.931 . S
C243 N240 1.313 1_455 S
C243 N244 1.344 . S
C243 H247 0.930 . S
N244 C241 1.377 1_455 S
N244 C243 1.344 . S
O245 Co237 2.055 . S
O245 C249 1.253 . S
H246 C242 0.931 . S
H247 C243 0.930 . S
O248 Co237 2.039 . S
O248 C238 1.265 . S
C249 O245 1.253 . S
C249 O250 1.227 . S
O250 C249 1.227 . S
N251 Co237 2.140 . S
N251 C254 1.346 . S
N251 C255 1.345 . S
C252 C253 1.387 . S
C252 C256 1.391 . S
C253 C252 1.387 . S
C253 C254 1.369 . S
C253 H262 0.929 . S
C254 N251 1.346 . S
C254 C253 1.369 . S
C254 H257 0.928 . S
C255 N251 1.345 . S
C255 C256 1.371 . S
C255 H258 0.931 . S
C256 C252 1.391 . S
C256 C255 1.371 . S
C256 H263 0.930 . S
H257 C254 0.928 . S
H258 C255 0.931 . S
H259 C235 0.930 . S
H260 C232 0.930 . S
H261 C241 0.930 1_455 S
H262 C253 0.929 . S
H263 C256 0.930 . S
C264 C265 1.351 1_556 S
C264 N267 1.368 . S
C264 H269 0.931 1_556 S
C265 C264 1.351 1_554 S
C265 N266 1.373 1_554 S
C265 H293 0.930 . S
N266 C265 1.373 1_556 S
N266 C268 1.340 . S
N267 C264 1.368 . S
N267 C268 1.321 . S
N267 Co270 2.135 . S
C268 N266 1.340 . S
C268 N267 1.321 . S
C268 H292 0.930 . S
H269 C264 0.931 1_554 S
Co270 N267 2.135 . S
Co270 N273 2.121 . S
Co270 O278 2.055 . S
Co270 O281 2.039 . S
Co270 N284 2.140 . S
C271 O272 1.227 . S
C271 O281 1.265 . S
O272 C271 1.227 . S
N273 Co270 2.121 . S
N273 C275 1.375 . S
N273 C276 1.313 . S
C274 C275 1.338 . S
C274 N277 1.377 . S
C274 H294 0.930 . S
C275 N273 1.375 . S
C275 C274 1.338 . S
C275 H279 0.931 . S
C276 N273 1.313 . S
C276 N277 1.344 . S
C276 H280 0.930 . S
N277 C274 1.377 . S
N277 C276 1.344 . S
O278 Co270 2.055 . S
O278 C282 1.253 . S
H279 C275 0.931 . S
H280 C276 0.930 . S
O281 Co270 2.039 . S
O281 C271 1.265 . S
C282 O278 1.253 . S
C282 O283 1.227 . S
O283 C282 1.227 . S
N284 Co270 2.140 . S
N284 C287 1.346 . S
N284 C288 1.345 . S
C285 C286 1.387 . S
C285 C289 1.391 . S
C286 C285 1.387 . S
C286 C287 1.369 . S
C286 H295 0.929 . S
C287 N284 1.346 . S
C287 C286 1.369 . S
C287 H290 0.928 . S
C288 N284 1.345 . S
C288 C289 1.371 . S
C288 H291 0.931 . S
C289 C285 1.391 . S
C289 C288 1.371 . S
C289 H296 0.930 . S
H290 C287 0.928 . S
H291 C288 0.931 . S
H292 C268 0.930 . S
H293 C265 0.930 . S
H294 C274 0.930 . S
H295 C286 0.929 . S
H296 C289 0.930 . S
C297 C298 1.351 1_556 S
C297 N300 1.368 . S
C297 H302 0.931 1_556 S
C298 C297 1.351 1_554 S
C298 N299 1.373 1_554 S
C298 H326 0.930 . S
N299 C298 1.373 1_556 S
N299 C301 1.340 . S
N300 C297 1.368 . S
N300 C301 1.321 . S
N300 Co303 2.135 . S
C301 N299 1.340 . S
C301 N300 1.321 . S
C301 H325 0.930 . S
H302 C297 0.931 1_554 S
Co303 N300 2.135 . S
Co303 N306 2.121 . S
Co303 O311 2.055 . S
Co303 O314 2.039 . S
Co303 N317 2.140 . S
C304 O305 1.227 . S
C304 O314 1.265 . S
O305 C304 1.227 . S
N306 Co303 2.121 . S
N306 C308 1.375 . S
N306 C309 1.313 1_455 S
C307 C308 1.338 . S
C307 N310 1.377 1_455 S
C307 H327 0.930 1_455 S
C308 N306 1.375 . S
C308 C307 1.338 . S
C308 H312 0.931 . S
C309 N306 1.313 1_655 S
C309 N310 1.344 . S
C309 H313 0.930 . S
N310 C307 1.377 1_655 S
N310 C309 1.344 . S
O311 Co303 2.055 . S
O311 C315 1.253 . S
H312 C308 0.931 . S
H313 C309 0.930 . S
O314 Co303 2.039 . S
O314 C304 1.265 . S
C315 O311 1.253 . S
C315 O316 1.227 . S
O316 C315 1.227 . S
N317 Co303 2.140 . S
N317 C320 1.346 . S
N317 C321 1.345 . S
C318 C319 1.387 . S
C318 C322 1.391 . S
C319 C318 1.387 . S
C319 C320 1.369 . S
C319 H328 0.929 . S
C320 N317 1.346 . S
C320 C319 1.369 . S
C320 H323 0.928 . S
C321 N317 1.345 . S
C321 C322 1.371 . S
C321 H324 0.931 . S
C322 C318 1.391 . S
C322 C321 1.371 . S
C322 H329 0.930 . S
H323 C320 0.928 . S
H324 C321 0.931 . S
H325 C301 0.930 . S
H326 C298 0.930 . S
H327 C307 0.930 1_655 S
H328 C319 0.929 . S
H329 C322 0.930 . S
C330 C331 1.351 . S
C330 N333 1.368 . S
C330 H335 0.931 . S
C331 C330 1.351 . S
C331 N332 1.373 . S
C331 H359 0.930 . S
N332 C331 1.373 . S
N332 C334 1.340 . S
N333 C330 1.368 . S
N333 C334 1.321 . S
N333 Co336 2.135 . S
C334 N332 1.340 . S
C334 N333 1.321 . S
C334 H358 0.930 . S
H335 C330 0.931 . S
Co336 N333 2.135 . S
Co336 N339 2.121 . S
Co336 O344 2.055 . S
Co336 O347 2.039 . S
Co336 N350 2.140 . S
C337 O338 1.227 . S
C337 O347 1.265 . S
O338 C337 1.227 . S
N339 Co336 2.121 . S
N339 C341 1.375 . S
N339 C342 1.313 . S
C340 C341 1.338 . S
C340 N343 1.377 . S
C340 H360 0.930 . S
C341 N339 1.375 . S
C341 C340 1.338 . S
C341 H345 0.931 . S
C342 N339 1.313 . S
C342 N343 1.344 . S
C342 H346 0.930 . S
N343 C340 1.377 . S
N343 C342 1.344 . S
O344 Co336 2.055 . S
O344 C348 1.253 . S
H345 C341 0.931 . S
H346 C342 0.930 . S
O347 Co336 2.039 . S
O347 C337 1.265 . S
C348 O344 1.253 . S
C348 O349 1.227 . S
O349 C348 1.227 . S
N350 Co336 2.140 . S
N350 C353 1.346 . S
N350 C354 1.345 . S
C351 C352 1.387 . S
C351 C355 1.391 . S
C352 C351 1.387 . S
C352 C353 1.369 . S
C352 H361 0.929 . S
C353 N350 1.346 . S
C353 C352 1.369 . S
C353 H356 0.928 . S
C354 N350 1.345 . S
C354 C355 1.371 . S
C354 H357 0.931 . S
C355 C351 1.391 . S
C355 C354 1.371 . S
C355 H362 0.930 . S
H356 C353 0.928 . S
H357 C354 0.931 . S
H358 C334 0.930 . S
H359 C331 0.930 . S
H360 C340 0.930 . S
H361 C352 0.929 . S
H362 C355 0.930 . S
C363 C364 1.351 . S
C363 N366 1.368 . S
C363 H368 0.931 . S
C364 C363 1.351 . S
C364 N365 1.373 . S
C364 H392 0.930 . S
N365 C364 1.373 . S
N365 C367 1.340 . S
N366 C363 1.368 . S
N366 C367 1.321 . S
N366 Co369 2.135 . S
C367 N365 1.340 . S
C367 N366 1.321 . S
C367 H391 0.930 . S
H368 C363 0.931 . S
Co369 N366 2.135 . S
Co369 N372 2.121 . S
Co369 O377 2.055 . S
Co369 O380 2.039 . S
Co369 N383 2.140 . S
C370 O371 1.227 . S
C370 O380 1.265 . S
O371 C370 1.227 . S
N372 Co369 2.121 . S
N372 C374 1.375 . S
N372 C375 1.313 1_455 S
C373 C374 1.338 . S
C373 N376 1.377 1_455 S
C373 H393 0.930 1_455 S
C374 N372 1.375 . S
C374 C373 1.338 . S
C374 H378 0.931 . S
C375 N372 1.313 1_655 S
C375 N376 1.344 . S
C375 H379 0.930 . S
N376 C373 1.377 1_655 S
N376 C375 1.344 . S
O377 Co369 2.055 . S
O377 C381 1.253 . S
H378 C374 0.931 . S
H379 C375 0.930 . S
O380 Co369 2.039 . S
O380 C370 1.265 . S
C381 O377 1.253 . S
C381 O382 1.227 . S
O382 C381 1.227 . S
N383 Co369 2.140 . S
N383 C386 1.346 . S
N383 C387 1.345 . S
C384 C385 1.387 . S
C384 C388 1.391 . S
C385 C384 1.387 . S
C385 C386 1.369 . S
C385 H394 0.929 . S
C386 N383 1.346 . S
C386 C385 1.369 . S
C386 H389 0.928 . S
C387 N383 1.345 . S
C387 C388 1.371 . S
C387 H390 0.931 . S
C388 C384 1.391 . S
C388 C387 1.371 . S
C388 H395 0.930 . S
H389 C386 0.928 . S
H390 C387 0.931 . S
H391 C367 0.930 . S
H392 C364 0.930 . S
H393 C373 0.930 1_655 S
H394 C385 0.929 . S
H395 C388 0.930 . S
C396 C397 1.351 1_554 S
C396 N399 1.368 . S
C396 H401 0.931 1_554 S
C397 C396 1.351 1_556 S
C397 N398 1.373 1_556 S
C397 H425 0.930 . S
N398 C397 1.373 1_554 S
N398 C400 1.340 . S
N399 C396 1.368 . S
N399 C400 1.321 . S
N399 Co402 2.135 . S
C400 N398 1.340 . S
C400 N399 1.321 . S
C400 H424 0.930 . S
H401 C396 0.931 1_556 S
Co402 N399 2.135 . S
Co402 N405 2.121 . S
Co402 O410 2.055 . S
Co402 O413 2.039 . S
Co402 N416 2.140 . S
C403 O404 1.227 . S
C403 O413 1.265 . S
O404 C403 1.227 . S
N405 Co402 2.121 . S
N405 C407 1.375 . S
N405 C408 1.313 . S
C406 C407 1.338 . S
C406 N409 1.377 . S
C406 H426 0.930 . S
C407 N405 1.375 . S
C407 C406 1.338 . S
C407 H411 0.931 . S
C408 N405 1.313 . S
C408 N409 1.344 . S
C408 H412 0.930 . S
N409 C406 1.377 . S
N409 C408 1.344 . S
O410 Co402 2.055 . S
O410 C414 1.253 . S
H411 C407 0.931 . S
H412 C408 0.930 . S
O413 Co402 2.039 . S
O413 C403 1.265 . S
C414 O410 1.253 . S
C414 O415 1.227 . S
O415 C414 1.227 . S
N416 Co402 2.140 . S
N416 C419 1.346 . S
N416 C420 1.345 . S
C417 C418 1.387 . S
C417 C421 1.391 . S
C418 C417 1.387 . S
C418 C419 1.369 . S
C418 H427 0.929 . S
C419 N416 1.346 . S
C419 C418 1.369 . S
C419 H422 0.928 . S
C420 N416 1.345 . S
C420 C421 1.371 . S
C420 H423 0.931 . S
C421 C417 1.391 . S
C421 C420 1.371 . S
C421 H428 0.930 . S
H422 C419 0.928 . S
H423 C420 0.931 . S
H424 C400 0.930 . S
H425 C397 0.930 . S
H426 C406 0.930 . S
H427 C418 0.929 . S
H428 C421 0.930 . S
C429 C430 1.351 1_554 S
C429 N432 1.368 . S
C429 H434 0.931 1_554 S
C430 C429 1.351 1_556 S
C430 N431 1.373 1_556 S
C430 H458 0.930 . S
N431 C430 1.373 1_554 S
N431 C433 1.340 . S
N432 C429 1.368 . S
N432 C433 1.321 . S
N432 Co435 2.135 . S
C433 N431 1.340 . S
C433 N432 1.321 . S
C433 H457 0.930 . S
H434 C429 0.931 1_556 S
Co435 N432 2.135 . S
Co435 N438 2.121 . S
Co435 O443 2.055 . S
Co435 O446 2.039 . S
Co435 N449 2.140 . S
C436 O437 1.227 . S
C436 O446 1.265 . S
O437 C436 1.227 . S
N438 Co435 2.121 . S
N438 C440 1.375 . S
N438 C441 1.313 1_655 S
C439 C440 1.338 . S
C439 N442 1.377 1_655 S
C439 H459 0.930 1_655 S
C440 N438 1.375 . S
C440 C439 1.338 . S
C440 H444 0.931 . S
C441 N438 1.313 1_455 S
C441 N442 1.344 . S
C441 H445 0.930 . S
N442 C439 1.377 1_455 S
N442 C441 1.344 . S
O443 Co435 2.055 . S
O443 C447 1.253 . S
H444 C440 0.931 . S
H445 C441 0.930 . S
O446 Co435 2.039 . S
O446 C436 1.265 . S
C447 O443 1.253 . S
C447 O448 1.227 . S
O448 C447 1.227 . S
N449 Co435 2.140 . S
N449 C452 1.346 . S
N449 C453 1.345 . S
C450 C451 1.387 . S
C450 C454 1.391 . S
C451 C450 1.387 . S
C451 C452 1.369 . S
C451 H460 0.929 . S
C452 N449 1.346 . S
C452 C451 1.369 . S
C452 H455 0.928 . S
C453 N449 1.345 . S
C453 C454 1.371 . S
C453 H456 0.931 . S
C454 C450 1.391 . S
C454 C453 1.371 . S
C454 H461 0.930 . S
H455 C452 0.928 . S
H456 C453 0.931 . S
H457 C433 0.930 . S
H458 C430 0.930 . S
H459 C439 0.930 1_455 S
H460 C451 0.929 . S
H461 C454 0.930 . S
C462 C463 1.351 . S
C462 N465 1.368 . S
C462 H467 0.931 . S
C463 C462 1.351 . S
C463 N464 1.373 . S
C463 H491 0.930 . S
N464 C463 1.373 . S
N464 C466 1.340 . S
N465 C462 1.368 . S
N465 C466 1.321 . S
N465 Co468 2.135 . S
C466 N464 1.340 . S
C466 N465 1.321 . S
C466 H490 0.930 . S
H467 C462 0.931 . S
Co468 N465 2.135 . S
Co468 N471 2.121 . S
Co468 O476 2.055 . S
Co468 O479 2.039 . S
Co468 N482 2.140 . S
C469 O470 1.227 . S
C469 O479 1.265 . S
O470 C469 1.227 . S
N471 Co468 2.121 . S
N471 C473 1.375 . S
N471 C474 1.313 . S
C472 C473 1.338 . S
C472 N475 1.377 . S
C472 H492 0.930 . S
C473 N471 1.375 . S
C473 C472 1.338 . S
C473 H477 0.931 . S
C474 N471 1.313 . S
C474 N475 1.344 . S
C474 H478 0.930 . S
N475 C472 1.377 . S
N475 C474 1.344 . S
O476 Co468 2.055 . S
O476 C480 1.253 . S
H477 C473 0.931 . S
H478 C474 0.930 . S
O479 Co468 2.039 . S
O479 C469 1.265 . S
C480 O476 1.253 . S
C480 O481 1.227 . S
O481 C480 1.227 . S
N482 Co468 2.140 . S
N482 C485 1.346 . S
N482 C486 1.345 . S
C483 C484 1.387 . S
C483 C487 1.391 . S
C484 C483 1.387 . S
C484 C485 1.369 . S
C484 H493 0.929 . S
C485 N482 1.346 . S
C485 C484 1.369 . S
C485 H488 0.928 . S
C486 N482 1.345 . S
C486 C487 1.371 . S
C486 H489 0.931 . S
C487 C483 1.391 . S
C487 C486 1.371 . S
C487 H494 0.930 . S
H488 C485 0.928 . S
H489 C486 0.931 . S
H490 C466 0.930 . S
H491 C463 0.930 . S
H492 C472 0.930 . S
H493 C484 0.929 . S
H494 C487 0.930 . S
C495 C496 1.351 . S
C495 N498 1.368 . S
C495 H500 0.931 . S
C496 C495 1.351 . S
C496 N497 1.373 . S
C496 H524 0.930 . S
N497 C496 1.373 . S
N497 C499 1.340 . S
N498 C495 1.368 . S
N498 C499 1.321 . S
N498 Co501 2.135 . S
C499 N497 1.340 . S
C499 N498 1.321 . S
C499 H523 0.930 . S
H500 C495 0.931 . S
Co501 N498 2.135 . S
Co501 N504 2.121 . S
Co501 O509 2.055 . S
Co501 O512 2.039 . S
Co501 N515 2.140 . S
C502 O503 1.227 . S
C502 O512 1.265 . S
O503 C502 1.227 . S
N504 Co501 2.121 . S
N504 C506 1.375 . S
N504 C507 1.313 1_655 S
C505 C506 1.338 . S
C505 N508 1.377 1_655 S
C505 H525 0.930 1_655 S
C506 N504 1.375 . S
C506 C505 1.338 . S
C506 H510 0.931 . S
C507 N504 1.313 1_455 S
C507 N508 1.344 . S
C507 H511 0.930 . S
N508 C505 1.377 1_455 S
N508 C507 1.344 . S
O509 Co501 2.055 . S
O509 C513 1.253 . S
H510 C506 0.931 . S
H511 C507 0.930 . S
O512 Co501 2.039 . S
O512 C502 1.265 . S
C513 O509 1.253 . S
C513 O514 1.227 . S
O514 C513 1.227 . S
N515 Co501 2.140 . S
N515 C518 1.346 . S
N515 C519 1.345 . S
C516 C517 1.387 . S
C516 C520 1.391 . S
C517 C516 1.387 . S
C517 C518 1.369 . S
C517 H526 0.929 . S
C518 N515 1.346 . S
C518 C517 1.369 . S
C518 H521 0.928 . S
C519 N515 1.345 . S
C519 C520 1.371 . S
C519 H522 0.931 . S
C520 C516 1.391 . S
C520 C519 1.371 . S
C520 H527 0.930 . S
H521 C518 0.928 . S
H522 C519 0.931 . S
H523 C499 0.930 . S
H524 C496 0.930 . S
H525 C505 0.930 1_455 S
H526 C517 0.929 . S
H527 C520 0.930 . S
C528 C529 1.351 1_556 S
C528 N531 1.368 . S
C528 H533 0.931 1_556 S
C529 C528 1.351 1_554 S
C529 N530 1.373 1_554 S
C529 H557 0.930 . S
N530 C529 1.373 1_556 S
N530 C532 1.340 . S
N531 C528 1.368 . S
N531 C532 1.321 . S
N531 Co534 2.135 . S
C532 N530 1.340 . S
C532 N531 1.321 . S
C532 H556 0.930 . S
H533 C528 0.931 1_554 S
Co534 N531 2.135 . S
Co534 N537 2.121 . S
Co534 O542 2.055 . S
Co534 O545 2.039 . S
Co534 N548 2.140 . S
C535 O536 1.227 . S
C535 O545 1.265 . S
O536 C535 1.227 . S
N537 Co534 2.121 . S
N537 C539 1.375 . S
N537 C540 1.313 . S
C538 C539 1.338 . S
C538 N541 1.377 . S
C538 H558 0.930 . S
C539 N537 1.375 . S
C539 C538 1.338 . S
C539 H543 0.931 . S
C540 N537 1.313 . S
C540 N541 1.344 . S
C540 H544 0.930 . S
N541 C538 1.377 . S
N541 C540 1.344 . S
O542 Co534 2.055 . S
O542 C546 1.253 . S
H543 C539 0.931 . S
H544 C540 0.930 . S
O545 Co534 2.039 . S
O545 C535 1.265 . S
C546 O542 1.253 . S
C546 O547 1.227 . S
O547 C546 1.227 . S
N548 Co534 2.140 . S
N548 C551 1.346 . S
N548 C552 1.345 . S
C549 C550 1.387 . S
C549 C553 1.391 . S
C550 C549 1.387 . S
C550 C551 1.369 . S
C550 H559 0.929 . S
C551 N548 1.346 . S
C551 C550 1.369 . S
C551 H554 0.928 . S
C552 N548 1.345 . S
C552 C553 1.371 . S
C552 H555 0.931 . S
C553 C549 1.391 . S
C553 C552 1.371 . S
C553 H560 0.930 . S
H554 C551 0.928 . S
H555 C552 0.931 . S
H556 C532 0.930 . S
H557 C529 0.930 . S
H558 C538 0.930 . S
H559 C550 0.929 . S
H560 C553 0.930 . S
C561 C562 1.351 1_556 S
C561 N564 1.368 . S
C561 H566 0.931 1_556 S
C562 C561 1.351 1_554 S
C562 N563 1.373 1_554 S
C562 H590 0.930 . S
N563 C562 1.373 1_556 S
N563 C565 1.340 . S
N564 C561 1.368 . S
N564 C565 1.321 . S
N564 Co567 2.135 . S
C565 N563 1.340 . S
C565 N564 1.321 . S
C565 H589 0.930 . S
H566 C561 0.931 1_554 S
Co567 N564 2.135 . S
Co567 N570 2.121 . S
Co567 O575 2.055 . S
Co567 O578 2.039 . S
Co567 N581 2.140 . S
C568 O569 1.227 . S
C568 O578 1.265 . S
O569 C568 1.227 . S
N570 Co567 2.121 . S
N570 C572 1.375 . S
N570 C573 1.313 . S
C571 C572 1.338 . S
C571 N574 1.377 . S
C571 H591 0.930 . S
C572 N570 1.375 . S
C572 C571 1.338 . S
C572 H576 0.931 . S
C573 N570 1.313 . S
C573 N574 1.344 . S
C573 H577 0.930 . S
N574 C571 1.377 . S
N574 C573 1.344 . S
O575 Co567 2.055 . S
O575 C579 1.253 . S
H576 C572 0.931 . S
H577 C573 0.930 . S
O578 Co567 2.039 . S
O578 C568 1.265 . S
C579 O575 1.253 . S
C579 O580 1.227 . S
O580 C579 1.227 . S
N581 Co567 2.140 . S
N581 C584 1.346 . S
N581 C585 1.345 . S
C582 C583 1.387 . S
C582 C586 1.391 . S
C583 C582 1.387 . S
C583 C584 1.369 . S
C583 H592 0.929 . S
C584 N581 1.346 . S
C584 C583 1.369 . S
C584 H587 0.928 . S
C585 N581 1.345 . S
C585 C586 1.371 . S
C585 H588 0.931 . S
C586 C582 1.391 . S
C586 C585 1.371 . S
C586 H593 0.930 . S
H587 C584 0.928 . S
H588 C585 0.931 . S
H589 C565 0.930 . S
H590 C562 0.930 . S
H591 C571 0.930 . S
H592 C583 0.929 . S
H593 C586 0.930 . S
C594 C595 1.351 . S
C594 N597 1.368 . S
C594 H599 0.931 . S
C595 C594 1.351 . S
C595 N596 1.373 . S
C595 H623 0.930 . S
N596 C595 1.373 . S
N596 C598 1.340 . S
N597 C594 1.368 . S
N597 C598 1.321 . S
N597 Co600 2.135 . S
C598 N596 1.340 . S
C598 N597 1.321 . S
C598 H622 0.930 . S
H599 C594 0.931 . S
Co600 N597 2.135 . S
Co600 N603 2.121 . S
Co600 O608 2.055 . S
Co600 O611 2.039 . S
Co600 N614 2.140 . S
C601 O602 1.227 . S
C601 O611 1.265 . S
O602 C601 1.227 . S
N603 Co600 2.121 . S
N603 C605 1.375 . S
N603 C606 1.313 . S
C604 C605 1.338 . S
C604 N607 1.377 . S
C604 H624 0.930 . S
C605 N603 1.375 . S
C605 C604 1.338 . S
C605 H609 0.931 . S
C606 N603 1.313 . S
C606 N607 1.344 . S
C606 H610 0.930 . S
N607 C604 1.377 . S
N607 C606 1.344 . S
O608 Co600 2.055 . S
O608 C612 1.253 . S
H609 C605 0.931 . S
H610 C606 0.930 . S
O611 Co600 2.039 . S
O611 C601 1.265 . S
C612 O608 1.253 . S
C612 O613 1.227 . S
O613 C612 1.227 . S
N614 Co600 2.140 . S
N614 C617 1.346 . S
N614 C618 1.345 . S
C615 C616 1.387 . S
C615 C619 1.391 . S
C616 C615 1.387 . S
C616 C617 1.369 . S
C616 H625 0.929 . S
C617 N614 1.346 . S
C617 C616 1.369 . S
C617 H620 0.928 . S
C618 N614 1.345 . S
C618 C619 1.371 . S
C618 H621 0.931 . S
C619 C615 1.391 . S
C619 C618 1.371 . S
C619 H626 0.930 . S
H620 C617 0.928 . S
H621 C618 0.931 . S
H622 C598 0.930 . S
H623 C595 0.930 . S
H624 C604 0.930 . S
H625 C616 0.929 . S
H626 C619 0.930 . S
C627 C628 1.351 . S
C627 N630 1.368 . S
C627 H632 0.931 . S
C628 C627 1.351 . S
C628 N629 1.373 . S
C628 H656 0.930 . S
N629 C628 1.373 . S
N629 C631 1.340 . S
N630 C627 1.368 . S
N630 C631 1.321 . S
N630 Co633 2.135 . S
C631 N629 1.340 . S
C631 N630 1.321 . S
C631 H655 0.930 . S
H632 C627 0.931 . S
Co633 N630 2.135 . S
Co633 N636 2.121 . S
Co633 O641 2.055 . S
Co633 O644 2.039 . S
Co633 N647 2.140 . S
C634 O635 1.227 . S
C634 O644 1.265 . S
O635 C634 1.227 . S
N636 Co633 2.121 . S
N636 C638 1.375 . S
N636 C639 1.313 . S
C637 C638 1.338 . S
C637 N640 1.377 . S
C637 H657 0.930 . S
C638 N636 1.375 . S
C638 C637 1.338 . S
C638 H642 0.931 . S
C639 N636 1.313 . S
C639 N640 1.344 . S
C639 H643 0.930 . S
N640 C637 1.377 . S
N640 C639 1.344 . S
O641 Co633 2.055 . S
O641 C645 1.253 . S
H642 C638 0.931 . S
H643 C639 0.930 . S
O644 Co633 2.039 . S
O644 C634 1.265 . S
C645 O641 1.253 . S
C645 O646 1.227 . S
O646 C645 1.227 . S
N647 Co633 2.140 . S
N647 C650 1.346 . S
N647 C651 1.345 . S
C648 C649 1.387 . S
C648 C652 1.391 . S
C649 C648 1.387 . S
C649 C650 1.369 . S
C649 H658 0.929 . S
C650 N647 1.346 . S
C650 C649 1.369 . S
C650 H653 0.928 . S
C651 N647 1.345 . S
C651 C652 1.371 . S
C651 H654 0.931 . S
C652 C648 1.391 . S
C652 C651 1.371 . S
C652 H659 0.930 . S
H653 C650 0.928 . S
H654 C651 0.931 . S
H655 C631 0.930 . S
H656 C628 0.930 . S
H657 C637 0.930 . S
H658 C649 0.929 . S
H659 C652 0.930 . S
C660 C661 1.351 1_554 S
C660 N663 1.368 . S
C660 H665 0.931 1_554 S
C661 C660 1.351 1_556 S
C661 N662 1.373 1_556 S
C661 H689 0.930 . S
N662 C661 1.373 1_554 S
N662 C664 1.340 . S
N663 C660 1.368 . S
N663 C664 1.321 . S
N663 Co666 2.135 . S
C664 N662 1.340 . S
C664 N663 1.321 . S
C664 H688 0.930 . S
H665 C660 0.931 1_556 S
Co666 N663 2.135 . S
Co666 N669 2.121 . S
Co666 O674 2.055 . S
Co666 O677 2.039 . S
Co666 N680 2.140 . S
C667 O668 1.227 . S
C667 O677 1.265 . S
O668 C667 1.227 . S
N669 Co666 2.121 . S
N669 C671 1.375 . S
N669 C672 1.313 . S
C670 C671 1.338 . S
C670 N673 1.377 . S
C670 H690 0.930 . S
C671 N669 1.375 . S
C671 C670 1.338 . S
C671 H675 0.931 . S
C672 N669 1.313 . S
C672 N673 1.344 . S
C672 H676 0.930 . S
N673 C670 1.377 . S
N673 C672 1.344 . S
O674 Co666 2.055 . S
O674 C678 1.253 . S
H675 C671 0.931 . S
H676 C672 0.930 . S
O677 Co666 2.039 . S
O677 C667 1.265 . S
C678 O674 1.253 . S
C678 O679 1.227 . S
O679 C678 1.227 . S
N680 Co666 2.140 . S
N680 C683 1.346 . S
N680 C684 1.345 . S
C681 C682 1.387 . S
C681 C685 1.391 . S
C682 C681 1.387 . S
C682 C683 1.369 . S
C682 H691 0.929 . S
C683 N680 1.346 . S
C683 C682 1.369 . S
C683 H686 0.928 . S
C684 N680 1.345 . S
C684 C685 1.371 . S
C684 H687 0.931 . S
C685 C681 1.391 . S
C685 C684 1.371 . S
C685 H692 0.930 . S
H686 C683 0.928 . S
H687 C684 0.931 . S
H688 C664 0.930 . S
H689 C661 0.930 . S
H690 C670 0.930 . S
H691 C682 0.929 . S
H692 C685 0.930 . S
C693 C694 1.351 1_554 S
C693 N696 1.368 . S
C693 H698 0.931 1_554 S
C694 C693 1.351 1_556 S
C694 N695 1.373 1_556 S
C694 H722 0.930 . S
N695 C694 1.373 1_554 S
N695 C697 1.340 . S
N696 C693 1.368 . S
N696 C697 1.321 . S
N696 Co699 2.135 . S
C697 N695 1.340 . S
C697 N696 1.321 . S
C697 H721 0.930 . S
H698 C693 0.931 1_556 S
Co699 N696 2.135 . S
Co699 N702 2.121 . S
Co699 O707 2.055 . S
Co699 O710 2.039 . S
Co699 N713 2.140 . S
C700 O701 1.227 . S
C700 O710 1.265 . S
O701 C700 1.227 . S
N702 Co699 2.121 . S
N702 C704 1.375 . S
N702 C705 1.313 . S
C703 C704 1.338 . S
C703 N706 1.377 . S
C703 H723 0.930 . S
C704 N702 1.375 . S
C704 C703 1.338 . S
C704 H708 0.931 . S
C705 N702 1.313 . S
C705 N706 1.344 . S
C705 H709 0.930 . S
N706 C703 1.377 . S
N706 C705 1.344 . S
O707 Co699 2.055 . S
O707 C711 1.253 . S
H708 C704 0.931 . S
H709 C705 0.930 . S
O710 Co699 2.039 . S
O710 C700 1.265 . S
C711 O707 1.253 . S
C711 O712 1.227 . S
O712 C711 1.227 . S
N713 Co699 2.140 . S
N713 C716 1.346 . S
N713 C717 1.345 . S
C714 C715 1.387 . S
C714 C718 1.391 . S
C715 C714 1.387 . S
C715 C716 1.369 . S
C715 H724 0.929 . S
C716 N713 1.346 . S
C716 C715 1.369 . S
C716 H719 0.928 . S
C717 N713 1.345 . S
C717 C718 1.371 . S
C717 H720 0.931 . S
C718 C714 1.391 . S
C718 C717 1.371 . S
C718 H725 0.930 . S
H719 C716 0.928 . S
H720 C717 0.931 . S
H721 C697 0.930 . S
H722 C694 0.930 . S
H723 C703 0.930 . S
H724 C715 0.929 . S
H725 C718 0.930 . S
C726 C727 1.351 . S
C726 N729 1.368 . S
C726 H731 0.931 . S
C727 C726 1.351 . S
C727 N728 1.373 . S
C727 H755 0.930 . S
N728 C727 1.373 . S
N728 C730 1.340 . S
N729 C726 1.368 . S
N729 C730 1.321 . S
N729 Co732 2.135 . S
C730 N728 1.340 . S
C730 N729 1.321 . S
C730 H754 0.930 . S
H731 C726 0.931 . S
Co732 N729 2.135 . S
Co732 N735 2.121 . S
Co732 O740 2.055 . S
Co732 O743 2.039 . S
Co732 N746 2.140 . S
C733 O734 1.227 . S
C733 O743 1.265 . S
O734 C733 1.227 . S
N735 Co732 2.121 . S
N735 C737 1.375 . S
N735 C738 1.313 . S
C736 C737 1.338 . S
C736 N739 1.377 . S
C736 H756 0.930 . S
C737 N735 1.375 . S
C737 C736 1.338 . S
C737 H741 0.931 . S
C738 N735 1.313 . S
C738 N739 1.344 . S
C738 H742 0.930 . S
N739 C736 1.377 . S
N739 C738 1.344 . S
O740 Co732 2.055 . S
O740 C744 1.253 . S
H741 C737 0.931 . S
H742 C738 0.930 . S
O743 Co732 2.039 . S
O743 C733 1.265 . S
C744 O740 1.253 . S
C744 O745 1.227 . S
O745 C744 1.227 . S
N746 Co732 2.140 . S
N746 C749 1.346 . S
N746 C750 1.345 . S
C747 C748 1.387 . S
C747 C751 1.391 . S
C748 C747 1.387 . S
C748 C749 1.369 . S
C748 H757 0.929 . S
C749 N746 1.346 . S
C749 C748 1.369 . S
C749 H752 0.928 . S
C750 N746 1.345 . S
C750 C751 1.371 . S
C750 H753 0.931 . S
C751 C747 1.391 . S
C751 C750 1.371 . S
C751 H758 0.930 . S
H752 C749 0.928 . S
H753 C750 0.931 . S
H754 C730 0.930 . S
H755 C727 0.930 . S
H756 C736 0.930 . S
H757 C748 0.929 . S
H758 C751 0.930 . S
C759 C760 1.351 . S
C759 N762 1.368 . S
C759 H764 0.931 . S
C760 C759 1.351 . S
C760 N761 1.373 . S
C760 H788 0.930 . S
N761 C760 1.373 . S
N761 C763 1.340 . S
N762 C759 1.368 . S
N762 C763 1.321 . S
N762 Co765 2.135 . S
C763 N761 1.340 . S
C763 N762 1.321 . S
C763 H787 0.930 . S
H764 C759 0.931 . S
Co765 N762 2.135 . S
Co765 N768 2.121 . S
Co765 O773 2.055 . S
Co765 O776 2.039 . S
Co765 N779 2.140 . S
C766 O767 1.227 . S
C766 O776 1.265 . S
O767 C766 1.227 . S
N768 Co765 2.121 . S
N768 C770 1.375 . S
N768 C771 1.313 . S
C769 C770 1.338 . S
C769 N772 1.377 . S
C769 H789 0.930 . S
C770 N768 1.375 . S
C770 C769 1.338 . S
C770 H774 0.931 . S
C771 N768 1.313 . S
C771 N772 1.344 . S
C771 H775 0.930 . S
N772 C769 1.377 . S
N772 C771 1.344 . S
O773 Co765 2.055 . S
O773 C777 1.253 . S
H774 C770 0.931 . S
H775 C771 0.930 . S
O776 Co765 2.039 . S
O776 C766 1.265 . S
C777 O773 1.253 . S
C777 O778 1.227 . S
O778 C777 1.227 . S
N779 Co765 2.140 . S
N779 C782 1.346 . S
N779 C783 1.345 . S
C780 C781 1.387 . S
C780 C784 1.391 . S
C781 C780 1.387 . S
C781 C782 1.369 . S
C781 H790 0.929 . S
C782 N779 1.346 . S
C782 C781 1.369 . S
C782 H785 0.928 . S
C783 N779 1.345 . S
C783 C784 1.371 . S
C783 H786 0.931 . S
C784 C780 1.391 . S
C784 C783 1.371 . S
C784 H791 0.930 . S
H785 C782 0.928 . S
H786 C783 0.931 . S
H787 C763 0.930 . S
H788 C760 0.930 . S
H789 C769 0.930 . S
H790 C781 0.929 . S
H791 C784 0.930 . S
C792 C793 1.351 . S
C792 N795 1.368 . S
C792 H797 0.931 . S
C793 C792 1.351 . S
C793 N794 1.373 . S
C793 H821 0.930 . S
N794 C793 1.373 . S
N794 C796 1.340 . S
N795 C792 1.368 . S
N795 C796 1.321 . S
N795 Co798 2.135 . S
C796 N794 1.340 . S
C796 N795 1.321 . S
C796 H820 0.930 . S
H797 C792 0.931 . S
Co798 N795 2.135 . S
Co798 N801 2.121 . S
Co798 O806 2.055 . S
Co798 O809 2.039 . S
Co798 N812 2.140 . S
C799 O800 1.227 . S
C799 O809 1.265 . S
O800 C799 1.227 . S
N801 Co798 2.121 . S
N801 C803 1.375 . S
N801 C804 1.313 . S
C802 C803 1.338 . S
C802 N805 1.377 . S
C802 H822 0.930 . S
C803 N801 1.375 . S
C803 C802 1.338 . S
C803 H807 0.931 . S
C804 N801 1.313 . S
C804 N805 1.344 . S
C804 H808 0.930 . S
N805 C802 1.377 . S
N805 C804 1.344 . S
O806 Co798 2.055 . S
O806 C810 1.253 . S
H807 C803 0.931 . S
H808 C804 0.930 . S
O809 Co798 2.039 . S
O809 C799 1.265 . S
C810 O806 1.253 . S
C810 O811 1.227 . S
O811 C810 1.227 . S
N812 Co798 2.140 . S
N812 C815 1.346 . S
N812 C816 1.345 . S
C813 C814 1.387 . S
C813 C817 1.391 . S
C814 C813 1.387 . S
C814 C815 1.369 . S
C814 H823 0.929 . S
C815 N812 1.346 . S
C815 C814 1.369 . S
C815 H818 0.928 . S
C816 N812 1.345 . S
C816 C817 1.371 . S
C816 H819 0.931 . S
C817 C813 1.391 . S
C817 C816 1.371 . S
C817 H824 0.930 . S
H818 C815 0.928 . S
H819 C816 0.931 . S
H820 C796 0.930 . S
H821 C793 0.930 . S
H822 C802 0.930 . S
H823 C814 0.929 . S
H824 C817 0.930 . S
C825 C826 1.351 . S
C825 N828 1.368 . S
C825 H830 0.931 . S
C826 C825 1.351 . S
C826 N827 1.373 . S
C826 H854 0.930 . S
N827 C826 1.373 . S
N827 C829 1.340 . S
N828 C825 1.368 . S
N828 C829 1.321 . S
N828 Co831 2.135 . S
C829 N827 1.340 . S
C829 N828 1.321 . S
C829 H853 0.930 . S
H830 C825 0.931 . S
Co831 N828 2.135 . S
Co831 N834 2.121 . S
Co831 O839 2.055 . S
Co831 O842 2.039 . S
Co831 N845 2.140 . S
C832 O833 1.227 . S
C832 O842 1.265 . S
O833 C832 1.227 . S
N834 Co831 2.121 . S
N834 C836 1.375 . S
N834 C837 1.313 . S
C835 C836 1.338 . S
C835 N838 1.377 . S
C835 H855 0.930 . S
C836 N834 1.375 . S
C836 C835 1.338 . S
C836 H840 0.931 . S
C837 N834 1.313 . S
C837 N838 1.344 . S
C837 H841 0.930 . S
N838 C835 1.377 . S
N838 C837 1.344 . S
O839 Co831 2.055 . S
O839 C843 1.253 . S
H840 C836 0.931 . S
H841 C837 0.930 . S
O842 Co831 2.039 . S
O842 C832 1.265 . S
C843 O839 1.253 . S
C843 O844 1.227 . S
O844 C843 1.227 . S
N845 Co831 2.140 . S
N845 C848 1.346 . S
N845 C849 1.345 . S
C846 C847 1.387 . S
C846 C850 1.391 . S
C847 C846 1.387 . S
C847 C848 1.369 . S
C847 H856 0.929 . S
C848 N845 1.346 . S
C848 C847 1.369 . S
C848 H851 0.928 . S
C849 N845 1.345 . S
C849 C850 1.371 . S
C849 H852 0.931 . S
C850 C846 1.391 . S
C850 C849 1.371 . S
C850 H857 0.930 . S
H851 C848 0.928 . S
H852 C849 0.931 . S
H853 C829 0.930 . S
H854 C826 0.930 . S
H855 C835 0.930 . S
H856 C847 0.929 . S
H857 C850 0.930 . S
C858 C859 1.351 . S
C858 N861 1.368 . S
C858 H863 0.931 . S
C859 C858 1.351 . S
C859 N860 1.373 . S
C859 H887 0.930 . S
N860 C859 1.373 . S
N860 C862 1.340 . S
N861 C858 1.368 . S
N861 C862 1.321 . S
N861 Co864 2.135 . S
C862 N860 1.340 . S
C862 N861 1.321 . S
C862 H886 0.930 . S
H863 C858 0.931 . S
Co864 N861 2.135 . S
Co864 N867 2.121 . S
Co864 O872 2.055 . S
Co864 O875 2.039 . S
Co864 N878 2.140 . S
C865 O866 1.227 . S
C865 O875 1.265 . S
O866 C865 1.227 . S
N867 Co864 2.121 . S
N867 C869 1.375 . S
N867 C870 1.313 . S
C868 C869 1.338 . S
C868 N871 1.377 . S
C868 H888 0.930 . S
C869 N867 1.375 . S
C869 C868 1.338 . S
C869 H873 0.931 . S
C870 N867 1.313 . S
C870 N871 1.344 . S
C870 H874 0.930 . S
N871 C868 1.377 . S
N871 C870 1.344 . S
O872 Co864 2.055 . S
O872 C876 1.253 . S
H873 C869 0.931 . S
H874 C870 0.930 . S
O875 Co864 2.039 . S
O875 C865 1.265 . S
C876 O872 1.253 . S
C876 O877 1.227 . S
O877 C876 1.227 . S
N878 Co864 2.140 . S
N878 C881 1.346 . S
N878 C882 1.345 . S
C879 C880 1.387 . S
C879 C883 1.391 . S
C880 C879 1.387 . S
C880 C881 1.369 . S
C880 H889 0.929 . S
C881 N878 1.346 . S
C881 C880 1.369 . S
C881 H884 0.928 . S
C882 N878 1.345 . S
C882 C883 1.371 . S
C882 H885 0.931 . S
C883 C879 1.391 . S
C883 C882 1.371 . S
C883 H890 0.930 . S
H884 C881 0.928 . S
H885 C882 0.931 . S
H886 C862 0.930 . S
H887 C859 0.930 . S
H888 C868 0.930 . S
H889 C880 0.929 . S
H890 C883 0.930 . S
C891 C892 1.351 . S
C891 N894 1.368 . S
C891 H896 0.931 . S
C892 C891 1.351 . S
C892 N893 1.373 . S
C892 H920 0.930 . S
N893 C892 1.373 . S
N893 C895 1.340 . S
N894 C891 1.368 . S
N894 C895 1.321 . S
N894 Co897 2.135 . S
C895 N893 1.340 . S
C895 N894 1.321 . S
C895 H919 0.930 . S
H896 C891 0.931 . S
Co897 N894 2.135 . S
Co897 N900 2.121 . S
Co897 O905 2.055 . S
Co897 O908 2.039 . S
Co897 N911 2.140 . S
C898 O899 1.227 . S
C898 O908 1.265 . S
O899 C898 1.227 . S
N900 Co897 2.121 . S
N900 C902 1.375 . S
N900 C903 1.313 . S
C901 C902 1.338 . S
C901 N904 1.377 . S
C901 H921 0.930 . S
C902 N900 1.375 . S
C902 C901 1.338 . S
C902 H906 0.931 . S
C903 N900 1.313 . S
C903 N904 1.344 . S
C903 H907 0.930 . S
N904 C901 1.377 . S
N904 C903 1.344 . S
O905 Co897 2.055 . S
O905 C909 1.253 . S
H906 C902 0.931 . S
H907 C903 0.930 . S
O908 Co897 2.039 . S
O908 C898 1.265 . S
C909 O905 1.253 . S
C909 O910 1.227 . S
O910 C909 1.227 . S
N911 Co897 2.140 . S
N911 C914 1.346 . S
N911 C915 1.345 . S
C912 C913 1.387 . S
C912 C916 1.391 . S
C913 C912 1.387 . S
C913 C914 1.369 . S
C913 H922 0.929 . S
C914 N911 1.346 . S
C914 C913 1.369 . S
C914 H917 0.928 . S
C915 N911 1.345 . S
C915 C916 1.371 . S
C915 H918 0.931 . S
C916 C912 1.391 . S
C916 C915 1.371 . S
C916 H923 0.930 . S
H917 C914 0.928 . S
H918 C915 0.931 . S
H919 C895 0.930 . S
H920 C892 0.930 . S
H921 C901 0.930 . S
H922 C913 0.929 . S
H923 C916 0.930 . S
C924 C925 1.351 . S
C924 N927 1.368 . S
C924 H929 0.931 . S
C925 C924 1.351 . S
C925 N926 1.373 . S
C925 H953 0.930 . S
N926 C925 1.373 . S
N926 C928 1.340 . S
N927 C924 1.368 . S
N927 C928 1.321 . S
N927 Co930 2.135 . S
C928 N926 1.340 . S
C928 N927 1.321 . S
C928 H952 0.930 . S
H929 C924 0.931 . S
Co930 N927 2.135 . S
Co930 N933 2.121 . S
Co930 O938 2.055 . S
Co930 O941 2.039 . S
Co930 N944 2.140 . S
C931 O932 1.227 . S
C931 O941 1.265 . S
O932 C931 1.227 . S
N933 Co930 2.121 . S
N933 C935 1.375 . S
N933 C936 1.313 . S
C934 C935 1.338 . S
C934 N937 1.377 . S
C934 H954 0.930 . S
C935 N933 1.375 . S
C935 C934 1.338 . S
C935 H939 0.931 . S
C936 N933 1.313 . S
C936 N937 1.344 . S
C936 H940 0.930 . S
N937 C934 1.377 . S
N937 C936 1.344 . S
O938 Co930 2.055 . S
O938 C942 1.253 . S
H939 C935 0.931 . S
H940 C936 0.930 . S
O941 Co930 2.039 . S
O941 C931 1.265 . S
C942 O938 1.253 . S
C942 O943 1.227 . S
O943 C942 1.227 . S
N944 Co930 2.140 . S
N944 C947 1.346 . S
N944 C948 1.345 . S
C945 C946 1.387 . S
C945 C949 1.391 . S
C946 C945 1.387 . S
C946 C947 1.369 . S
C946 H955 0.929 . S
C947 N944 1.346 . S
C947 C946 1.369 . S
C947 H950 0.928 . S
C948 N944 1.345 . S
C948 C949 1.371 . S
C948 H951 0.931 . S
C949 C945 1.391 . S
C949 C948 1.371 . S
C949 H956 0.930 . S
H950 C947 0.928 . S
H951 C948 0.931 . S
H952 C928 0.930 . S
H953 C925 0.930 . S
H954 C934 0.930 . S
H955 C946 0.929 . S
H956 C949 0.930 . S
C957 C958 1.351 . S
C957 N960 1.368 . S
C957 H962 0.931 . S
C958 C957 1.351 . S
C958 N959 1.373 . S
C958 H986 0.930 . S
N959 C958 1.373 . S
N959 C961 1.340 . S
N960 C957 1.368 . S
N960 C961 1.321 . S
N960 Co963 2.135 . S
C961 N959 1.340 . S
C961 N960 1.321 . S
C961 H985 0.930 . S
H962 C957 0.931 . S
Co963 N960 2.135 . S
Co963 N966 2.121 . S
Co963 O971 2.055 . S
Co963 O974 2.039 . S
Co963 N977 2.140 . S
C964 O965 1.227 . S
C964 O974 1.265 . S
O965 C964 1.227 . S
N966 Co963 2.121 . S
N966 C968 1.375 . S
N966 C969 1.313 . S
C967 C968 1.338 . S
C967 N970 1.377 . S
C967 H987 0.930 . S
C968 N966 1.375 . S
C968 C967 1.338 . S
C968 H972 0.931 . S
C969 N966 1.313 . S
C969 N970 1.344 . S
C969 H973 0.930 . S
N970 C967 1.377 . S
N970 C969 1.344 . S
O971 Co963 2.055 . S
O971 C975 1.253 . S
H972 C968 0.931 . S
H973 C969 0.930 . S
O974 Co963 2.039 . S
O974 C964 1.265 . S
C975 O971 1.253 . S
C975 O976 1.227 . S
O976 C975 1.227 . S
N977 Co963 2.140 . S
N977 C980 1.346 . S
N977 C981 1.345 . S
C978 C979 1.387 . S
C978 C982 1.391 . S
C979 C978 1.387 . S
C979 C980 1.369 . S
C979 H988 0.929 . S
C980 N977 1.346 . S
C980 C979 1.369 . S
C980 H983 0.928 . S
C981 N977 1.345 . S
C981 C982 1.371 . S
C981 H984 0.931 . S
C982 C978 1.391 . S
C982 C981 1.371 . S
C982 H989 0.930 . S
H983 C980 0.928 . S
H984 C981 0.931 . S
H985 C961 0.930 . S
H986 C958 0.930 . S
H987 C967 0.930 . S
H988 C979 0.929 . S
H989 C982 0.930 . S
C990 C991 1.351 . S
C990 N993 1.368 . S
C990 H995 0.931 . S
C991 C990 1.351 . S
C991 N992 1.373 . S
C991 H1019 0.930 . S
N992 C991 1.373 . S
N992 C994 1.340 . S
N993 C990 1.368 . S
N993 C994 1.321 . S
N993 Co996 2.135 . S
C994 N992 1.340 . S
C994 N993 1.321 . S
C994 H1018 0.930 . S
H995 C990 0.931 . S
Co996 N993 2.135 . S
Co996 N999 2.121 . S
Co996 O1004 2.055 . S
Co996 O1007 2.039 . S
Co996 N1010 2.140 . S
C997 O998 1.227 . S
C997 O1007 1.265 . S
O998 C997 1.227 . S
N999 Co996 2.121 . S
N999 C1001 1.375 . S
N999 C1002 1.313 . S
C1000 C1001 1.338 . S
C1000 N1003 1.377 . S
C1000 H1020 0.930 . S
C1001 N999 1.375 . S
C1001 C1000 1.338 . S
C1001 H1005 0.931 . S
C1002 N999 1.313 . S
C1002 N1003 1.344 . S
C1002 H1006 0.930 . S
N1003 C1000 1.377 . S
N1003 C1002 1.344 . S
O1004 Co996 2.055 . S
O1004 C1008 1.253 . S
H1005 C1001 0.931 . S
H1006 C1002 0.930 . S
O1007 Co996 2.039 . S
O1007 C997 1.265 . S
C1008 O1004 1.253 . S
C1008 O1009 1.227 . S
O1009 C1008 1.227 . S
N1010 Co996 2.140 . S
N1010 C1013 1.346 . S
N1010 C1014 1.345 . S
C1011 C1012 1.387 . S
C1011 C1015 1.391 . S
C1012 C1011 1.387 . S
C1012 C1013 1.369 . S
C1012 H1021 0.929 . S
C1013 N1010 1.346 . S
C1013 C1012 1.369 . S
C1013 H1016 0.928 . S
C1014 N1010 1.345 . S
C1014 C1015 1.371 . S
C1014 H1017 0.931 . S
C1015 C1011 1.391 . S
C1015 C1014 1.371 . S
C1015 H1022 0.930 . S
H1016 C1013 0.928 . S
H1017 C1014 0.931 . S
H1018 C994 0.930 . S
H1019 C991 0.930 . S
H1020 C1000 0.930 . S
H1021 C1012 0.929 . S
H1022 C1015 0.930 . S
C1023 C1024 1.351 . S
C1023 N1026 1.368 . S
C1023 H1028 0.931 . S
C1024 C1023 1.351 . S
C1024 N1025 1.373 . S
C1024 H1052 0.930 . S
N1025 C1024 1.373 . S
N1025 C1027 1.340 . S
N1026 C1023 1.368 . S
N1026 C1027 1.321 . S
N1026 Co1029 2.135 . S
C1027 N1025 1.340 . S
C1027 N1026 1.321 . S
C1027 H1051 0.930 . S
H1028 C1023 0.931 . S
Co1029 N1026 2.135 . S
Co1029 N1032 2.121 . S
Co1029 O1037 2.055 . S
Co1029 O1040 2.039 . S
Co1029 N1043 2.140 . S
C1030 O1031 1.227 . S
C1030 O1040 1.265 . S
O1031 C1030 1.227 . S
N1032 Co1029 2.121 . S
N1032 C1034 1.375 . S
N1032 C1035 1.313 . S
C1033 C1034 1.338 . S
C1033 N1036 1.377 . S
C1033 H1053 0.930 . S
C1034 N1032 1.375 . S
C1034 C1033 1.338 . S
C1034 H1038 0.931 . S
C1035 N1032 1.313 . S
C1035 N1036 1.344 . S
C1035 H1039 0.930 . S
N1036 C1033 1.377 . S
N1036 C1035 1.344 . S
O1037 Co1029 2.055 . S
O1037 C1041 1.253 . S
H1038 C1034 0.931 . S
H1039 C1035 0.930 . S
O1040 Co1029 2.039 . S
O1040 C1030 1.265 . S
C1041 O1037 1.253 . S
C1041 O1042 1.227 . S
O1042 C1041 1.227 . S
N1043 Co1029 2.140 . S
N1043 C1046 1.346 . S
N1043 C1047 1.345 . S
C1044 C1045 1.387 . S
C1044 C1048 1.391 . S
C1045 C1044 1.387 . S
C1045 C1046 1.369 . S
C1045 H1054 0.929 . S
C1046 N1043 1.346 . S
C1046 C1045 1.369 . S
C1046 H1049 0.928 . S
C1047 N1043 1.345 . S
C1047 C1048 1.371 . S
C1047 H1050 0.931 . S
C1048 C1044 1.391 . S
C1048 C1047 1.371 . S
C1048 H1055 0.930 . S
H1049 C1046 0.928 . S
H1050 C1047 0.931 . S
H1051 C1027 0.930 . S
H1052 C1024 0.930 . S
H1053 C1033 0.930 . S
H1054 C1045 0.929 . S
H1055 C1048 0.930 . S
H1056 C1064 0.950 . S
H1057 C1069 0.950 . S
H1058 C1066 0.950 . S
H1059 C1068 0.950 . S
H1060 C1070 0.950 . S
H1061 C1072 0.950 . S
H1062 C1074 0.950 . S
H1063 C1075 0.950 . S
C1064 H1056 0.950 . S
C1064 C1065 1.386 . S
C1064 C1066 1.391 . S
C1065 C1064 1.386 . S
C1065 C1069 1.393 . S
C1066 H1058 0.950 . S
C1066 C1064 1.391 . S
C1066 C1067 1.400 . S
C1067 C1066 1.400 . S
C1067 C1068 1.398 . S
C1067 C1073 1.491 . S
C1068 H1059 0.950 . S
C1068 C1067 1.398 . S
C1068 C1069 1.391 . S
C1069 H1057 0.950 . S
C1069 C1065 1.393 . S
C1069 C1068 1.391 . S
C1070 H1060 0.950 . S
C1070 C1071 1.386 . S
C1070 C1072 1.391 . S
C1071 C1070 1.386 . S
C1071 C1075 1.393 . S
C1072 H1061 0.950 . S
C1072 C1070 1.391 . S
C1072 C1073 1.400 . S
C1073 C1067 1.491 . S
C1073 C1072 1.400 . S
C1073 C1074 1.398 . S
C1074 H1062 0.950 . S
C1074 C1073 1.398 . S
C1074 C1075 1.391 . S
C1075 H1063 0.950 . S
C1075 C1071 1.393 . S
C1075 C1074 1.391 . S
H1076 C1084 0.950 . S
H1077 C1089 0.950 . S
H1078 C1086 0.950 . S
H1079 C1088 0.950 . S
H1080 C1090 0.950 . S
H1081 C1092 0.950 . S
H1082 C1094 0.950 . S
H1083 C1095 0.950 . S
C1084 H1076 0.950 . S
C1084 C1085 1.386 . S
C1084 C1086 1.391 . S
C1085 C1084 1.386 . S
C1085 C1089 1.393 . S
C1086 H1078 0.950 . S
C1086 C1084 1.391 . S
C1086 C1087 1.400 . S
C1087 C1086 1.400 . S
C1087 C1088 1.398 . S
C1087 C1093 1.491 . S
C1088 H1079 0.950 . S
C1088 C1087 1.398 . S
C1088 C1089 1.391 . S
C1089 H1077 0.950 . S
C1089 C1085 1.393 . S
C1089 C1088 1.391 . S
C1090 H1080 0.950 . S
C1090 C1091 1.386 . S
C1090 C1092 1.391 . S
C1091 C1090 1.386 . S
C1091 C1095 1.393 . S
C1092 H1081 0.950 . S
C1092 C1090 1.391 . S
C1092 C1093 1.400 . S
C1093 C1087 1.491 . S
C1093 C1092 1.400 . S
C1093 C1094 1.398 . S
C1094 H1082 0.950 . S
C1094 C1093 1.398 . S
C1094 C1095 1.391 . S
C1095 H1083 0.950 . S
C1095 C1091 1.393 . S
C1095 C1094 1.391 . S
H1096 C1104 0.950 . S
H1097 C1109 0.950 . S
H1098 C1106 0.950 . S
H1099 C1108 0.950 . S
H1100 C1110 0.950 . S
H1101 C1112 0.950 . S
H1102 C1114 0.950 . S
H1103 C1115 0.950 . S
C1104 H1096 0.950 . S
C1104 C1105 1.386 . S
C1104 C1106 1.391 . S
C1105 C1104 1.386 . S
C1105 C1109 1.393 . S
C1106 H1098 0.950 . S
C1106 C1104 1.391 . S
C1106 C1107 1.400 . S
C1107 C1106 1.400 . S
C1107 C1108 1.398 . S
C1107 C1113 1.491 . S
C1108 H1099 0.950 . S
C1108 C1107 1.398 . S
C1108 C1109 1.391 . S
C1109 H1097 0.950 . S
C1109 C1105 1.393 . S
C1109 C1108 1.391 . S
C1110 H1100 0.950 . S
C1110 C1111 1.386 . S
C1110 C1112 1.391 . S
C1111 C1110 1.386 . S
C1111 C1115 1.393 . S
C1112 H1101 0.950 . S
C1112 C1110 1.391 . S
C1112 C1113 1.400 . S
C1113 C1107 1.491 . S
C1113 C1112 1.400 . S
C1113 C1114 1.398 . S
C1114 H1102 0.950 . S
C1114 C1113 1.398 . S
C1114 C1115 1.391 . S
C1115 H1103 0.950 . S
C1115 C1111 1.393 . S
C1115 C1114 1.391 . S
H1116 C1124 0.950 . S
H1117 C1129 0.950 . S
H1118 C1126 0.950 . S
H1119 C1128 0.950 . S
H1120 C1130 0.950 . S
H1121 C1132 0.950 . S
H1122 C1134 0.950 . S
H1123 C1135 0.950 . S
C1124 H1116 0.950 . S
C1124 C1125 1.386 . S
C1124 C1126 1.391 . S
C1125 C1124 1.386 . S
C1125 C1129 1.393 . S
C1126 H1118 0.950 . S
C1126 C1124 1.391 . S
C1126 C1127 1.400 . S
C1127 C1126 1.400 . S
C1127 C1128 1.398 . S
C1127 C1133 1.491 . S
C1128 H1119 0.950 . S
C1128 C1127 1.398 . S
C1128 C1129 1.391 . S
C1129 H1117 0.950 . S
C1129 C1125 1.393 . S
C1129 C1128 1.391 . S
C1130 H1120 0.950 . S
C1130 C1131 1.386 . S
C1130 C1132 1.391 . S
C1131 C1130 1.386 . S
C1131 C1135 1.393 . S
C1132 H1121 0.950 . S
C1132 C1130 1.391 . S
C1132 C1133 1.400 . S
C1133 C1127 1.491 . S
C1133 C1132 1.400 . S
C1133 C1134 1.398 . S
C1134 H1122 0.950 . S
C1134 C1133 1.398 . S
C1134 C1135 1.391 . S
C1135 H1123 0.950 . S
C1135 C1131 1.393 . S
C1135 C1134 1.391 . S
H1136 C1144 0.950 . S
H1137 C1149 0.950 . S
H1138 C1146 0.950 . S
H1139 C1148 0.950 . S
H1140 C1150 0.950 . S
H1141 C1152 0.950 . S
H1142 C1154 0.950 . S
H1143 C1155 0.950 . S
C1144 H1136 0.950 . S
C1144 C1145 1.386 . S
C1144 C1146 1.391 . S
C1145 C1144 1.386 . S
C1145 C1149 1.393 . S
C1146 H1138 0.950 . S
C1146 C1144 1.391 . S
C1146 C1147 1.400 . S
C1147 C1146 1.400 . S
C1147 C1148 1.398 . S
C1147 C1153 1.491 . S
C1148 H1139 0.950 . S
C1148 C1147 1.398 . S
C1148 C1149 1.391 . S
C1149 H1137 0.950 . S
C1149 C1145 1.393 . S
C1149 C1148 1.391 . S
C1150 H1140 0.950 . S
C1150 C1151 1.386 . S
C1150 C1152 1.391 . S
C1151 C1150 1.386 . S
C1151 C1155 1.393 . S
C1152 H1141 0.950 . S
C1152 C1150 1.391 . S
C1152 C1153 1.400 . S
C1153 C1147 1.491 . S
C1153 C1152 1.400 . S
C1153 C1154 1.398 . S
C1154 H1142 0.950 . S
C1154 C1153 1.398 . S
C1154 C1155 1.391 . S
C1155 H1143 0.950 . S
C1155 C1151 1.393 . S
C1155 C1154 1.391 . S
H1156 C1164 0.950 . S
H1157 C1169 0.950 . S
H1158 C1166 0.950 . S
H1159 C1168 0.950 . S
H1160 C1170 0.950 . S
H1161 C1172 0.950 . S
H1162 C1174 0.950 . S
H1163 C1175 0.950 . S
C1164 H1156 0.950 . S
C1164 C1165 1.386 . S
C1164 C1166 1.391 . S
C1165 C1164 1.386 . S
C1165 C1169 1.393 . S
C1166 H1158 0.950 . S
C1166 C1164 1.391 . S
C1166 C1167 1.400 . S
C1167 C1166 1.400 . S
C1167 C1168 1.398 . S
C1167 C1173 1.491 . S
C1168 H1159 0.950 . S
C1168 C1167 1.398 . S
C1168 C1169 1.391 . S
C1169 H1157 0.950 . S
C1169 C1165 1.393 . S
C1169 C1168 1.391 . S
C1170 H1160 0.950 . S
C1170 C1171 1.386 . S
C1170 C1172 1.391 . S
C1171 C1170 1.386 . S
C1171 C1175 1.393 . S
C1172 H1161 0.950 . S
C1172 C1170 1.391 . S
C1172 C1173 1.400 . S
C1173 C1167 1.491 . S
C1173 C1172 1.400 . S
C1173 C1174 1.398 . S
C1174 H1162 0.950 . S
C1174 C1173 1.398 . S
C1174 C1175 1.391 . S
C1175 H1163 0.950 . S
C1175 C1171 1.393 . S
C1175 C1174 1.391 . S
H1176 C1184 0.950 . S
H1177 C1189 0.950 . S
H1178 C1186 0.950 . S
H1179 C1188 0.950 . S
H1180 C1190 0.950 . S
H1181 C1192 0.950 . S
H1182 C1194 0.950 . S
H1183 C1195 0.950 . S
C1184 H1176 0.950 . S
C1184 C1185 1.386 . S
C1184 C1186 1.391 . S
C1185 C1184 1.386 . S
C1185 C1189 1.393 . S
C1186 H1178 0.950 . S
C1186 C1184 1.391 . S
C1186 C1187 1.400 . S
C1187 C1186 1.400 . S
C1187 C1188 1.398 . S
C1187 C1193 1.491 . S
C1188 H1179 0.950 . S
C1188 C1187 1.398 . S
C1188 C1189 1.391 . S
C1189 H1177 0.950 . S
C1189 C1185 1.393 . S
C1189 C1188 1.391 . S
C1190 H1180 0.950 . S
C1190 C1191 1.386 . S
C1190 C1192 1.391 . S
C1191 C1190 1.386 . S
C1191 C1195 1.393 . S
C1192 H1181 0.950 . S
C1192 C1190 1.391 . S
C1192 C1193 1.400 . S
C1193 C1187 1.491 . S
C1193 C1192 1.400 . S
C1193 C1194 1.398 . S
C1194 H1182 0.950 . S
C1194 C1193 1.398 . S
C1194 C1195 1.391 . S
C1195 H1183 0.950 . S
C1195 C1191 1.393 . S
C1195 C1194 1.391 . S
H1196 C1204 0.950 . S
H1197 C1209 0.950 . S
H1198 C1206 0.950 . S
H1199 C1208 0.950 . S
H1200 C1210 0.950 . S
H1201 C1212 0.950 . S
H1202 C1214 0.950 . S
H1203 C1215 0.950 . S
C1204 H1196 0.950 . S
C1204 C1205 1.386 . S
C1204 C1206 1.391 . S
C1205 C1204 1.386 . S
C1205 C1209 1.393 . S
C1206 H1198 0.950 . S
C1206 C1204 1.391 . S
C1206 C1207 1.400 . S
C1207 C1206 1.400 . S
C1207 C1208 1.398 . S
C1207 C1213 1.491 . S
C1208 H1199 0.950 . S
C1208 C1207 1.398 . S
C1208 C1209 1.391 . S
C1209 H1197 0.950 . S
C1209 C1205 1.393 . S
C1209 C1208 1.391 . S
C1210 H1200 0.950 . S
C1210 C1211 1.386 . S
C1210 C1212 1.391 . S
C1211 C1210 1.386 . S
C1211 C1215 1.393 . S
C1212 H1201 0.950 . S
C1212 C1210 1.391 . S
C1212 C1213 1.400 . S
C1213 C1207 1.491 . S
C1213 C1212 1.400 . S
C1213 C1214 1.398 . S
C1214 H1202 0.950 . S
C1214 C1213 1.398 . S
C1214 C1215 1.391 . S
C1215 H1203 0.950 . S
C1215 C1211 1.393 . S
C1215 C1214 1.391 . S
H1216 C1224 0.950 . S
H1217 C1229 0.950 . S
H1218 C1226 0.950 . S
H1219 C1228 0.950 . S
H1220 C1230 0.950 . S
H1221 C1232 0.950 . S
H1222 C1234 0.950 . S
H1223 C1235 0.950 . S
C1224 H1216 0.950 . S
C1224 C1225 1.386 . S
C1224 C1226 1.391 . S
C1225 C1224 1.386 . S
C1225 C1229 1.393 . S
C1226 H1218 0.950 . S
C1226 C1224 1.391 . S
C1226 C1227 1.400 . S
C1227 C1226 1.400 . S
C1227 C1228 1.398 . S
C1227 C1233 1.491 . S
C1228 H1219 0.950 . S
C1228 C1227 1.398 . S
C1228 C1229 1.391 . S
C1229 H1217 0.950 . S
C1229 C1225 1.393 . S
C1229 C1228 1.391 . S
C1230 H1220 0.950 . S
C1230 C1231 1.386 . S
C1230 C1232 1.391 . S
C1231 C1230 1.386 . S
C1231 C1235 1.393 . S
C1232 H1221 0.950 . S
C1232 C1230 1.391 . S
C1232 C1233 1.400 . S
C1233 C1227 1.491 . S
C1233 C1232 1.400 . S
C1233 C1234 1.398 . S
C1234 H1222 0.950 . S
C1234 C1233 1.398 . S
C1234 C1235 1.391 . S
C1235 H1223 0.950 . S
C1235 C1231 1.393 . S
C1235 C1234 1.391 . S
H1236 C1244 0.950 . S
H1237 C1249 0.950 . S
H1238 C1246 0.950 . S
H1239 C1248 0.950 . S
H1240 C1250 0.950 . S
H1241 C1252 0.950 . S
H1242 C1254 0.950 . S
H1243 C1255 0.950 . S
C1244 H1236 0.950 . S
C1244 C1245 1.386 . S
C1244 C1246 1.391 . S
C1245 C1244 1.386 . S
C1245 C1249 1.393 . S
C1246 H1238 0.950 . S
C1246 C1244 1.391 . S
C1246 C1247 1.400 . S
C1247 C1246 1.400 . S
C1247 C1248 1.398 . S
C1247 C1253 1.491 . S
C1248 H1239 0.950 . S
C1248 C1247 1.398 . S
C1248 C1249 1.391 . S
C1249 H1237 0.950 . S
C1249 C1245 1.393 . S
C1249 C1248 1.391 . S
C1250 H1240 0.950 . S
C1250 C1251 1.386 . S
C1250 C1252 1.391 . S
C1251 C1250 1.386 . S
C1251 C1255 1.393 . S
C1252 H1241 0.950 . S
C1252 C1250 1.391 . S
C1252 C1253 1.400 . S
C1253 C1247 1.491 . S
C1253 C1252 1.400 . S
C1253 C1254 1.398 . S
C1254 H1242 0.950 . S
C1254 C1253 1.398 . S
C1254 C1255 1.391 . S
C1255 H1243 0.950 . S
C1255 C1251 1.393 . S
C1255 C1254 1.391 . S
H1256 C1264 0.950 . S
H1257 C1269 0.950 . S
H1258 C1266 0.950 . S
H1259 C1268 0.950 . S
H1260 C1270 0.950 . S
H1261 C1272 0.950 . S
H1262 C1274 0.950 . S
H1263 C1275 0.950 . S
C1264 H1256 0.950 . S
C1264 C1265 1.386 . S
C1264 C1266 1.391 . S
C1265 C1264 1.386 . S
C1265 C1269 1.393 . S
C1266 H1258 0.950 . S
C1266 C1264 1.391 . S
C1266 C1267 1.400 . S
C1267 C1266 1.400 . S
C1267 C1268 1.398 . S
C1267 C1273 1.491 . S
C1268 H1259 0.950 . S
C1268 C1267 1.398 . S
C1268 C1269 1.391 . S
C1269 H1257 0.950 . S
C1269 C1265 1.393 . S
C1269 C1268 1.391 . S
C1270 H1260 0.950 . S
C1270 C1271 1.386 . S
C1270 C1272 1.391 . S
C1271 C1270 1.386 . S
C1271 C1275 1.393 . S
C1272 H1261 0.950 . S
C1272 C1270 1.391 . S
C1272 C1273 1.400 . S
C1273 C1267 1.491 . S
C1273 C1272 1.400 . S
C1273 C1274 1.398 . S
C1274 H1262 0.950 . S
C1274 C1273 1.398 . S
C1274 C1275 1.391 . S
C1275 H1263 0.950 . S
C1275 C1271 1.393 . S
C1275 C1274 1.391 . S
H1276 C1284 0.950 . S
H1277 C1289 0.950 . S
H1278 C1286 0.950 . S
H1279 C1288 0.950 . S
H1280 C1290 0.950 . S
H1281 C1292 0.950 . S
H1282 C1294 0.950 . S
H1283 C1295 0.950 . S
C1284 H1276 0.950 . S
C1284 C1285 1.386 . S
C1284 C1286 1.391 . S
C1285 C1284 1.386 . S
C1285 C1289 1.393 . S
C1286 H1278 0.950 . S
C1286 C1284 1.391 . S
C1286 C1287 1.400 . S
C1287 C1286 1.400 . S
C1287 C1288 1.398 . S
C1287 C1293 1.491 . S
C1288 H1279 0.950 . S
C1288 C1287 1.398 . S
C1288 C1289 1.391 . S
C1289 H1277 0.950 . S
C1289 C1285 1.393 . S
C1289 C1288 1.391 . S
C1290 H1280 0.950 . S
C1290 C1291 1.386 . S
C1290 C1292 1.391 . S
C1291 C1290 1.386 . S
C1291 C1295 1.393 . S
C1292 H1281 0.950 . S
C1292 C1290 1.391 . S
C1292 C1293 1.400 . S
C1293 C1287 1.491 . S
C1293 C1292 1.400 . S
C1293 C1294 1.398 . S
C1294 H1282 0.950 . S
C1294 C1293 1.398 . S
C1294 C1295 1.391 . S
C1295 H1283 0.950 . S
C1295 C1291 1.393 . S
C1295 C1294 1.391 . S
H1296 C1304 0.950 . S
H1297 C1309 0.950 . S
H1298 C1306 0.950 . S
H1299 C1308 0.950 . S
H1300 C1310 0.950 . S
H1301 C1312 0.950 . S
H1302 C1314 0.950 . S
H1303 C1315 0.950 . S
C1304 H1296 0.950 . S
C1304 C1305 1.386 . S
C1304 C1306 1.391 . S
C1305 C1304 1.386 . S
C1305 C1309 1.393 . S
C1306 H1298 0.950 . S
C1306 C1304 1.391 . S
C1306 C1307 1.400 . S
C1307 C1306 1.400 . S
C1307 C1308 1.398 . S
C1307 C1313 1.491 . S
C1308 H1299 0.950 . S
C1308 C1307 1.398 . S
C1308 C1309 1.391 . S
C1309 H1297 0.950 . S
C1309 C1305 1.393 . S
C1309 C1308 1.391 . S
C1310 H1300 0.950 . S
C1310 C1311 1.386 . S
C1310 C1312 1.391 . S
C1311 C1310 1.386 . S
C1311 C1315 1.393 . S
C1312 H1301 0.950 . S
C1312 C1310 1.391 . S
C1312 C1313 1.400 . S
C1313 C1307 1.491 . S
C1313 C1312 1.400 . S
C1313 C1314 1.398 . S
C1314 H1302 0.950 . S
C1314 C1313 1.398 . S
C1314 C1315 1.391 . S
C1315 H1303 0.950 . S
C1315 C1311 1.393 . S
C1315 C1314 1.391 . S
H1316 C1324 0.950 . S
H1317 C1329 0.950 . S
H1318 C1326 0.950 . S
H1319 C1328 0.950 . S
H1320 C1330 0.950 . S
H1321 C1332 0.950 . S
H1322 C1334 0.950 . S
H1323 C1335 0.950 . S
C1324 H1316 0.950 . S
C1324 C1325 1.386 . S
C1324 C1326 1.391 . S
C1325 C1324 1.386 . S
C1325 C1329 1.393 . S
C1326 H1318 0.950 . S
C1326 C1324 1.391 . S
C1326 C1327 1.400 . S
C1327 C1326 1.400 . S
C1327 C1328 1.398 . S
C1327 C1333 1.491 . S
C1328 H1319 0.950 . S
C1328 C1327 1.398 . S
C1328 C1329 1.391 . S
C1329 H1317 0.950 . S
C1329 C1325 1.393 . S
C1329 C1328 1.391 . S
C1330 H1320 0.950 . S
C1330 C1331 1.386 . S
C1330 C1332 1.391 . S
C1331 C1330 1.386 . S
C1331 C1335 1.393 . S
C1332 H1321 0.950 . S
C1332 C1330 1.391 . S
C1332 C1333 1.400 . S
C1333 C1327 1.491 . S
C1333 C1332 1.400 . S
C1333 C1334 1.398 . S
C1334 H1322 0.950 . S
C1334 C1333 1.398 . S
C1334 C1335 1.391 . S
C1335 H1323 0.950 . S
C1335 C1331 1.393 . S
C1335 C1334 1.391 . S
H1336 C1344 0.950 . S
H1337 C1349 0.950 . S
H1338 C1346 0.950 . S
H1339 C1348 0.950 . S
H1340 C1350 0.950 . S
H1341 C1352 0.950 . S
H1342 C1354 0.950 . S
H1343 C1355 0.950 . S
C1344 H1336 0.950 . S
C1344 C1345 1.386 . S
C1344 C1346 1.391 . S
C1345 C1344 1.386 . S
C1345 C1349 1.393 . S
C1346 H1338 0.950 . S
C1346 C1344 1.391 . S
C1346 C1347 1.400 . S
C1347 C1346 1.400 . S
C1347 C1348 1.398 . S
C1347 C1353 1.491 . S
C1348 H1339 0.950 . S
C1348 C1347 1.398 . S
C1348 C1349 1.391 . S
C1349 H1337 0.950 . S
C1349 C1345 1.393 . S
C1349 C1348 1.391 . S
C1350 H1340 0.950 . S
C1350 C1351 1.386 . S
C1350 C1352 1.391 . S
C1351 C1350 1.386 . S
C1351 C1355 1.393 . S
C1352 H1341 0.950 . S
C1352 C1350 1.391 . S
C1352 C1353 1.400 . S
C1353 C1347 1.491 . S
C1353 C1352 1.400 . S
C1353 C1354 1.398 . S
C1354 H1342 0.950 . S
C1354 C1353 1.398 . S
C1354 C1355 1.391 . S
C1355 H1343 0.950 . S
C1355 C1351 1.393 . S
C1355 C1354 1.391 . S
H1356 C1364 0.950 . S
H1357 C1369 0.950 . S
H1358 C1366 0.950 . S
H1359 C1368 0.950 . S
H1360 C1370 0.950 . S
H1361 C1372 0.950 . S
H1362 C1374 0.950 . S
H1363 C1375 0.950 . S
C1364 H1356 0.950 . S
C1364 C1365 1.386 . S
C1364 C1366 1.391 . S
C1365 C1364 1.386 . S
C1365 C1369 1.393 . S
C1366 H1358 0.950 . S
C1366 C1364 1.391 . S
C1366 C1367 1.400 . S
C1367 C1366 1.400 . S
C1367 C1368 1.398 . S
C1367 C1373 1.491 . S
C1368 H1359 0.950 . S
C1368 C1367 1.398 . S
C1368 C1369 1.391 . S
C1369 H1357 0.950 . S
C1369 C1365 1.393 . S
C1369 C1368 1.391 . S
C1370 H1360 0.950 . S
C1370 C1371 1.386 . S
C1370 C1372 1.391 . S
C1371 C1370 1.386 . S
C1371 C1375 1.393 . S
C1372 H1361 0.950 . S
C1372 C1370 1.391 . S
C1372 C1373 1.400 . S
C1373 C1367 1.491 . S
C1373 C1372 1.400 . S
C1373 C1374 1.398 . S
C1374 H1362 0.950 . S
C1374 C1373 1.398 . S
C1374 C1375 1.391 . S
C1375 H1363 0.950 . S
C1375 C1371 1.393 . S
C1375 C1374 1.391 . S
H1376 C1384 0.950 . S
H1377 C1389 0.950 . S
H1378 C1386 0.950 . S
H1379 C1388 0.950 . S
H1380 C1390 0.950 . S
H1381 C1392 0.950 . S
H1382 C1394 0.950 . S
H1383 C1395 0.950 . S
C1384 H1376 0.950 . S
C1384 C1385 1.386 . S
C1384 C1386 1.391 . S
C1385 C1384 1.386 . S
C1385 C1389 1.393 . S
C1386 H1378 0.950 . S
C1386 C1384 1.391 . S
C1386 C1387 1.400 . S
C1387 C1386 1.400 . S
C1387 C1388 1.398 . S
C1387 C1393 1.491 . S
C1388 H1379 0.950 . S
C1388 C1387 1.398 . S
C1388 C1389 1.391 . S
C1389 H1377 0.950 . S
C1389 C1385 1.393 . S
C1389 C1388 1.391 . S
C1390 H1380 0.950 . S
C1390 C1391 1.386 . S
C1390 C1392 1.391 . S
C1391 C1390 1.386 . S
C1391 C1395 1.393 . S
C1392 H1381 0.950 . S
C1392 C1390 1.391 . S
C1392 C1393 1.400 . S
C1393 C1387 1.491 . S
C1393 C1392 1.400 . S
C1393 C1394 1.398 . S
C1394 H1382 0.950 . S
C1394 C1393 1.398 . S
C1394 C1395 1.391 . S
C1395 H1383 0.950 . S
C1395 C1391 1.393 . S
C1395 C1394 1.391 . S
H1396 C1404 0.950 . S
H1397 C1409 0.950 . S
H1398 C1406 0.950 . S
H1399 C1408 0.950 . S
H1400 C1410 0.950 . S
H1401 C1412 0.950 . S
H1402 C1414 0.950 . S
H1403 C1415 0.950 . S
C1404 H1396 0.950 . S
C1404 C1405 1.386 . S
C1404 C1406 1.391 . S
C1405 C1404 1.386 . S
C1405 C1409 1.393 . S
C1406 H1398 0.950 . S
C1406 C1404 1.391 . S
C1406 C1407 1.400 . S
C1407 C1406 1.400 . S
C1407 C1408 1.398 . S
C1407 C1413 1.491 . S
C1408 H1399 0.950 . S
C1408 C1407 1.398 . S
C1408 C1409 1.391 . S
C1409 H1397 0.950 . S
C1409 C1405 1.393 . S
C1409 C1408 1.391 . S
C1410 H1400 0.950 . S
C1410 C1411 1.386 . S
C1410 C1412 1.391 . S
C1411 C1410 1.386 . S
C1411 C1415 1.393 . S
C1412 H1401 0.950 . S
C1412 C1410 1.391 . S
C1412 C1413 1.400 . S
C1413 C1407 1.491 . S
C1413 C1412 1.400 . S
C1413 C1414 1.398 . S
C1414 H1402 0.950 . S
C1414 C1413 1.398 . S
C1414 C1415 1.391 . S
C1415 H1403 0.950 . S
C1415 C1411 1.393 . S
C1415 C1414 1.391 . S
H1416 C1424 0.950 . S
H1417 C1429 0.950 . S
H1418 C1426 0.950 . S
H1419 C1428 0.950 . S
H1420 C1430 0.950 . S
H1421 C1432 0.950 . S
H1422 C1434 0.950 . S
H1423 C1435 0.950 . S
C1424 H1416 0.950 . S
C1424 C1425 1.386 . S
C1424 C1426 1.391 . S
C1425 C1424 1.386 . S
C1425 C1429 1.393 . S
C1426 H1418 0.950 . S
C1426 C1424 1.391 . S
C1426 C1427 1.400 . S
C1427 C1426 1.400 . S
C1427 C1428 1.398 . S
C1427 C1433 1.491 . S
C1428 H1419 0.950 . S
C1428 C1427 1.398 . S
C1428 C1429 1.391 . S
C1429 H1417 0.950 . S
C1429 C1425 1.393 . S
C1429 C1428 1.391 . S
C1430 H1420 0.950 . S
C1430 C1431 1.386 . S
C1430 C1432 1.391 . S
C1431 C1430 1.386 . S
C1431 C1435 1.393 . S
C1432 H1421 0.950 . S
C1432 C1430 1.391 . S
C1432 C1433 1.400 . S
C1433 C1427 1.491 . S
C1433 C1432 1.400 . S
C1433 C1434 1.398 . S
C1434 H1422 0.950 . S
C1434 C1433 1.398 . S
C1434 C1435 1.391 . S
C1435 H1423 0.950 . S
C1435 C1431 1.393 . S
C1435 C1434 1.391 . S
H1436 C1444 0.950 . S
H1437 C1449 0.950 . S
H1438 C1446 0.950 . S
H1439 C1448 0.950 . S
H1440 C1450 0.950 . S
H1441 C1452 0.950 . S
H1442 C1454 0.950 . S
H1443 C1455 0.950 . S
C1444 H1436 0.950 . S
C1444 C1445 1.386 . S
C1444 C1446 1.391 . S
C1445 C1444 1.386 . S
C1445 C1449 1.393 . S
C1446 H1438 0.950 . S
C1446 C1444 1.391 . S
C1446 C1447 1.400 . S
C1447 C1446 1.400 . S
C1447 C1448 1.398 . S
C1447 C1453 1.491 . S
C1448 H1439 0.950 . S
C1448 C1447 1.398 . S
C1448 C1449 1.391 . S
C1449 H1437 0.950 . S
C1449 C1445 1.393 . S
C1449 C1448 1.391 . S
C1450 H1440 0.950 . S
C1450 C1451 1.386 . S
C1450 C1452 1.391 . S
C1451 C1450 1.386 . S
C1451 C1455 1.393 . S
C1452 H1441 0.950 . S
C1452 C1450 1.391 . S
C1452 C1453 1.400 . S
C1453 C1447 1.491 . S
C1453 C1452 1.400 . S
C1453 C1454 1.398 . S
C1454 H1442 0.950 . S
C1454 C1453 1.398 . S
C1454 C1455 1.391 . S
C1455 H1443 0.950 . S
C1455 C1451 1.393 . S
C1455 C1454 1.391 . S
H1456 C1464 0.950 . S
H1457 C1469 0.950 . S
H1458 C1466 0.950 . S
H1459 C1468 0.950 . S
H1460 C1470 0.950 . S
H1461 C1472 0.950 . S
H1462 C1474 0.950 . S
H1463 C1475 0.950 . S
C1464 H1456 0.950 . S
C1464 C1465 1.386 . S
C1464 C1466 1.391 . S
C1465 C1464 1.386 . S
C1465 C1469 1.393 . S
C1466 H1458 0.950 . S
C1466 C1464 1.391 . S
C1466 C1467 1.400 . S
C1467 C1466 1.400 . S
C1467 C1468 1.398 . S
C1467 C1473 1.491 . S
C1468 H1459 0.950 . S
C1468 C1467 1.398 . S
C1468 C1469 1.391 . S
C1469 H1457 0.950 . S
C1469 C1465 1.393 . S
C1469 C1468 1.391 . S
C1470 H1460 0.950 . S
C1470 C1471 1.386 . S
C1470 C1472 1.391 . S
C1471 C1470 1.386 . S
C1471 C1475 1.393 . S
C1472 H1461 0.950 . S
C1472 C1470 1.391 . S
C1472 C1473 1.400 . S
C1473 C1467 1.491 . S
C1473 C1472 1.400 . S
C1473 C1474 1.398 . S
C1474 H1462 0.950 . S
C1474 C1473 1.398 . S
C1474 C1475 1.391 . S
C1475 H1463 0.950 . S
C1475 C1471 1.393 . S
C1475 C1474 1.391 . S
H1476 C1484 0.950 . S
H1477 C1489 0.950 . S
H1478 C1486 0.950 . S
H1479 C1488 0.950 . S
H1480 C1490 0.950 . S
H1481 C1492 0.950 . S
H1482 C1494 0.950 . S
H1483 C1495 0.950 . S
C1484 H1476 0.950 . S
C1484 C1485 1.386 . S
C1484 C1486 1.391 . S
C1485 C1484 1.386 . S
C1485 C1489 1.393 . S
C1486 H1478 0.950 . S
C1486 C1484 1.391 . S
C1486 C1487 1.400 . S
C1487 C1486 1.400 . S
C1487 C1488 1.398 . S
C1487 C1493 1.491 . S
C1488 H1479 0.950 . S
C1488 C1487 1.398 . S
C1488 C1489 1.391 . S
C1489 H1477 0.950 . S
C1489 C1485 1.393 . S
C1489 C1488 1.391 . S
C1490 H1480 0.950 . S
C1490 C1491 1.386 . S
C1490 C1492 1.391 . S
C1491 C1490 1.386 . S
C1491 C1495 1.393 . S
C1492 H1481 0.950 . S
C1492 C1490 1.391 . S
C1492 C1493 1.400 . S
C1493 C1487 1.491 . S
C1493 C1492 1.400 . S
C1493 C1494 1.398 . S
C1494 H1482 0.950 . S
C1494 C1493 1.398 . S
C1494 C1495 1.391 . S
C1495 H1483 0.950 . S
C1495 C1491 1.393 . S
C1495 C1494 1.391 . S
H1496 C1504 0.950 . S
H1497 C1509 0.950 . S
H1498 C1506 0.950 . S
H1499 C1508 0.950 . S
H1500 C1510 0.950 . S
H1501 C1512 0.950 . S
H1502 C1514 0.950 . S
H1503 C1515 0.950 . S
C1504 H1496 0.950 . S
C1504 C1505 1.386 . S
C1504 C1506 1.391 . S
C1505 C1504 1.386 . S
C1505 C1509 1.393 . S
C1506 H1498 0.950 . S
C1506 C1504 1.391 . S
C1506 C1507 1.400 . S
C1507 C1506 1.400 . S
C1507 C1508 1.398 . S
C1507 C1513 1.491 . S
C1508 H1499 0.950 . S
C1508 C1507 1.398 . S
C1508 C1509 1.391 . S
C1509 H1497 0.950 . S
C1509 C1505 1.393 . S
C1509 C1508 1.391 . S
C1510 H1500 0.950 . S
C1510 C1511 1.386 . S
C1510 C1512 1.391 . S
C1511 C1510 1.386 . S
C1511 C1515 1.393 . S
C1512 H1501 0.950 . S
C1512 C1510 1.391 . S
C1512 C1513 1.400 . S
C1513 C1507 1.491 . S
C1513 C1512 1.400 . S
C1513 C1514 1.398 . S
C1514 H1502 0.950 . S
C1514 C1513 1.398 . S
C1514 C1515 1.391 . S
C1515 H1503 0.950 . S
C1515 C1511 1.393 . S
C1515 C1514 1.391 . S
H1516 C1524 0.950 . S
H1517 C1529 0.950 . S
H1518 C1526 0.950 . S
H1519 C1528 0.950 . S
H1520 C1530 0.950 . S
H1521 C1532 0.950 . S
H1522 C1534 0.950 . S
H1523 C1535 0.950 . S
C1524 H1516 0.950 . S
C1524 C1525 1.386 . S
C1524 C1526 1.391 . S
C1525 C1524 1.386 . S
C1525 C1529 1.393 . S
C1526 H1518 0.950 . S
C1526 C1524 1.391 . S
C1526 C1527 1.400 . S
C1527 C1526 1.400 . S
C1527 C1528 1.398 . S
C1527 C1533 1.491 . S
C1528 H1519 0.950 . S
C1528 C1527 1.398 . S
C1528 C1529 1.391 . S
C1529 H1517 0.950 . S
C1529 C1525 1.393 . S
C1529 C1528 1.391 . S
C1530 H1520 0.950 . S
C1530 C1531 1.386 . S
C1530 C1532 1.391 . S
C1531 C1530 1.386 . S
C1531 C1535 1.393 . S
C1532 H1521 0.950 . S
C1532 C1530 1.391 . S
C1532 C1533 1.400 . S
C1533 C1527 1.491 . S
C1533 C1532 1.400 . S
C1533 C1534 1.398 . S
C1534 H1522 0.950 . S
C1534 C1533 1.398 . S
C1534 C1535 1.391 . S
C1535 H1523 0.950 . S
C1535 C1531 1.393 . S
C1535 C1534 1.391 . S
H1536 C1544 0.950 . S
H1537 C1549 0.950 . S
H1538 C1546 0.950 . S
H1539 C1548 0.950 . S
H1540 C1550 0.950 . S
H1541 C1552 0.950 . S
H1542 C1554 0.950 . S
H1543 C1555 0.950 . S
C1544 H1536 0.950 . S
C1544 C1545 1.386 . S
C1544 C1546 1.391 . S
C1545 C1544 1.386 . S
C1545 C1549 1.393 . S
C1546 H1538 0.950 . S
C1546 C1544 1.391 . S
C1546 C1547 1.400 . S
C1547 C1546 1.400 . S
C1547 C1548 1.398 . S
C1547 C1553 1.491 . S
C1548 H1539 0.950 . S
C1548 C1547 1.398 . S
C1548 C1549 1.391 . S
C1549 H1537 0.950 . S
C1549 C1545 1.393 . S
C1549 C1548 1.391 . S
C1550 H1540 0.950 . S
C1550 C1551 1.386 . S
C1550 C1552 1.391 . S
C1551 C1550 1.386 . S
C1551 C1555 1.393 . S
C1552 H1541 0.950 . S
C1552 C1550 1.391 . S
C1552 C1553 1.400 . S
C1553 C1547 1.491 . S
C1553 C1552 1.400 . S
C1553 C1554 1.398 . S
C1554 H1542 0.950 . S
C1554 C1553 1.398 . S
C1554 C1555 1.391 . S
C1555 H1543 0.950 . S
C1555 C1551 1.393 . S
C1555 C1554 1.391 . S
H1556 C1564 0.950 . S
H1557 C1569 0.950 . S
H1558 C1566 0.950 . S
H1559 C1568 0.950 . S
H1560 C1570 0.950 . S
H1561 C1572 0.950 . S
H1562 C1574 0.950 . S
H1563 C1575 0.950 . S
C1564 H1556 0.950 . S
C1564 C1565 1.386 . S
C1564 C1566 1.391 . S
C1565 C1564 1.386 . S
C1565 C1569 1.393 . S
C1566 H1558 0.950 . S
C1566 C1564 1.391 . S
C1566 C1567 1.400 . S
C1567 C1566 1.400 . S
C1567 C1568 1.398 . S
C1567 C1573 1.491 . S
C1568 H1559 0.950 . S
C1568 C1567 1.398 . S
C1568 C1569 1.391 . S
C1569 H1557 0.950 . S
C1569 C1565 1.393 . S
C1569 C1568 1.391 . S
C1570 H1560 0.950 . S
C1570 C1571 1.386 . S
C1570 C1572 1.391 . S
C1571 C1570 1.386 . S
C1571 C1575 1.393 . S
C1572 H1561 0.950 . S
C1572 C1570 1.391 . S
C1572 C1573 1.400 . S
C1573 C1567 1.491 . S
C1573 C1572 1.400 . S
C1573 C1574 1.398 . S
C1574 H1562 0.950 . S
C1574 C1573 1.398 . S
C1574 C1575 1.391 . S
C1575 H1563 0.950 . S
C1575 C1571 1.393 . S
C1575 C1574 1.391 . S
H1576 C1584 0.950 . S
H1577 C1589 0.950 . S
H1578 C1586 0.950 . S
H1579 C1588 0.950 . S
H1580 C1590 0.950 . S
H1581 C1592 0.950 . S
H1582 C1594 0.950 . S
H1583 C1595 0.950 . S
C1584 H1576 0.950 . S
C1584 C1585 1.386 . S
C1584 C1586 1.391 . S
C1585 C1584 1.386 . S
C1585 C1589 1.393 . S
C1586 H1578 0.950 . S
C1586 C1584 1.391 . S
C1586 C1587 1.400 . S
C1587 C1586 1.400 . S
C1587 C1588 1.398 . S
C1587 C1593 1.491 . S
C1588 H1579 0.950 . S
C1588 C1587 1.398 . S
C1588 C1589 1.391 . S
C1589 H1577 0.950 . S
C1589 C1585 1.393 . S
C1589 C1588 1.391 . S
C1590 H1580 0.950 . S
C1590 C1591 1.386 . S
C1590 C1592 1.391 . S
C1591 C1590 1.386 . S
C1591 C1595 1.393 . S
C1592 H1581 0.950 . S
C1592 C1590 1.391 . S
C1592 C1593 1.400 . S
C1593 C1587 1.491 . S
C1593 C1592 1.400 . S
C1593 C1594 1.398 . S
C1594 H1582 0.950 . S
C1594 C1593 1.398 . S
C1594 C1595 1.391 . S
C1595 H1583 0.950 . S
C1595 C1591 1.393 . S
C1595 C1594 1.391 . S
H1596 C1604 0.950 . S
H1597 C1609 0.950 . S
H1598 C1606 0.950 . S
H1599 C1608 0.950 . S
H1600 C1610 0.950 . S
H1601 C1612 0.950 . S
H1602 C1614 0.950 . S
H1603 C1615 0.950 . S
C1604 H1596 0.950 . S
C1604 C1605 1.386 . S
C1604 C1606 1.391 . S
C1605 C1604 1.386 . S
C1605 C1609 1.393 . S
C1606 H1598 0.950 . S
C1606 C1604 1.391 . S
C1606 C1607 1.400 . S
C1607 C1606 1.400 . S
C1607 C1608 1.398 . S
C1607 C1613 1.491 . S
C1608 H1599 0.950 . S
C1608 C1607 1.398 . S
C1608 C1609 1.391 . S
C1609 H1597 0.950 . S
C1609 C1605 1.393 . S
C1609 C1608 1.391 . S
C1610 H1600 0.950 . S
C1610 C1611 1.386 . S
C1610 C1612 1.391 . S
C1611 C1610 1.386 . S
C1611 C1615 1.393 . S
C1612 H1601 0.950 . S
C1612 C1610 1.391 . S
C1612 C1613 1.400 . S
C1613 C1607 1.491 . S
C1613 C1612 1.400 . S
C1613 C1614 1.398 . S
C1614 H1602 0.950 . S
C1614 C1613 1.398 . S
C1614 C1615 1.391 . S
C1615 H1603 0.950 . S
C1615 C1611 1.393 . S
C1615 C1614 1.391 . S
H1616 C1624 0.950 . S
H1617 C1629 0.950 . S
H1618 C1626 0.950 . S
H1619 C1628 0.950 . S
H1620 C1630 0.950 . S
H1621 C1632 0.950 . S
H1622 C1634 0.950 . S
H1623 C1635 0.950 . S
C1624 H1616 0.950 . S
C1624 C1625 1.386 . S
C1624 C1626 1.391 . S
C1625 C1624 1.386 . S
C1625 C1629 1.393 . S
C1626 H1618 0.950 . S
C1626 C1624 1.391 . S
C1626 C1627 1.400 . S
C1627 C1626 1.400 . S
C1627 C1628 1.398 . S
C1627 C1633 1.491 . S
C1628 H1619 0.950 . S
C1628 C1627 1.398 . S
C1628 C1629 1.391 . S
C1629 H1617 0.950 . S
C1629 C1625 1.393 . S
C1629 C1628 1.391 . S
C1630 H1620 0.950 . S
C1630 C1631 1.386 . S
C1630 C1632 1.391 . S
C1631 C1630 1.386 . S
C1631 C1635 1.393 . S
C1632 H1621 0.950 . S
C1632 C1630 1.391 . S
C1632 C1633 1.400 . S
C1633 C1627 1.491 . S
C1633 C1632 1.400 . S
C1633 C1634 1.398 . S
C1634 H1622 0.950 . S
C1634 C1633 1.398 . S
C1634 C1635 1.391 . S
C1635 H1623 0.950 . S
C1635 C1631 1.393 . S
C1635 C1634 1.391 . S
H1636 C1644 0.950 . S
H1637 C1649 0.950 . S
H1638 C1646 0.950 . S
H1639 C1648 0.950 . S
H1640 C1650 0.950 . S
H1641 C1652 0.950 . S
H1642 C1654 0.950 . S
H1643 C1655 0.950 . S
C1644 H1636 0.950 . S
C1644 C1645 1.386 . S
C1644 C1646 1.391 . S
C1645 C1644 1.386 . S
C1645 C1649 1.393 . S
C1646 H1638 0.950 . S
C1646 C1644 1.391 . S
C1646 C1647 1.400 . S
C1647 C1646 1.400 . S
C1647 C1648 1.398 . S
C1647 C1653 1.491 . S
C1648 H1639 0.950 . S
C1648 C1647 1.398 . S
C1648 C1649 1.391 . S
C1649 H1637 0.950 . S
C1649 C1645 1.393 . S
C1649 C1648 1.391 . S
C1650 H1640 0.950 . S
C1650 C1651 1.386 . S
C1650 C1652 1.391 . S
C1651 C1650 1.386 . S
C1651 C1655 1.393 . S
C1652 H1641 0.950 . S
C1652 C1650 1.391 . S
C1652 C1653 1.400 . S
C1653 C1647 1.491 . S
C1653 C1652 1.400 . S
C1653 C1654 1.398 . S
C1654 H1642 0.950 . S
C1654 C1653 1.398 . S
C1654 C1655 1.391 . S
C1655 H1643 0.950 . S
C1655 C1651 1.393 . S
C1655 C1654 1.391 . S
H1656 C1664 0.950 . S
H1657 C1669 0.950 . S
H1658 C1666 0.950 . S
H1659 C1668 0.950 . S
H1660 C1670 0.950 . S
H1661 C1672 0.950 . S
H1662 C1674 0.950 . S
H1663 C1675 0.950 . S
C1664 H1656 0.950 . S
C1664 C1665 1.386 . S
C1664 C1666 1.391 . S
C1665 C1664 1.386 . S
C1665 C1669 1.393 . S
C1666 H1658 0.950 . S
C1666 C1664 1.391 . S
C1666 C1667 1.400 . S
C1667 C1666 1.400 . S
C1667 C1668 1.398 . S
C1667 C1673 1.491 . S
C1668 H1659 0.950 . S
C1668 C1667 1.398 . S
C1668 C1669 1.391 . S
C1669 H1657 0.950 . S
C1669 C1665 1.393 . S
C1669 C1668 1.391 . S
C1670 H1660 0.950 . S
C1670 C1671 1.386 . S
C1670 C1672 1.391 . S
C1671 C1670 1.386 . S
C1671 C1675 1.393 . S
C1672 H1661 0.950 . S
C1672 C1670 1.391 . S
C1672 C1673 1.400 . S
C1673 C1667 1.491 . S
C1673 C1672 1.400 . S
C1673 C1674 1.398 . S
C1674 H1662 0.950 . S
C1674 C1673 1.398 . S
C1674 C1675 1.391 . S
C1675 H1663 0.950 . S
C1675 C1671 1.393 . S
C1675 C1674 1.391 . S
H1676 C1684 0.950 . S
H1677 C1689 0.950 . S
H1678 C1686 0.950 . S
H1679 C1688 0.950 . S
H1680 C1690 0.950 . S
H1681 C1692 0.950 . S
H1682 C1694 0.950 . S
H1683 C1695 0.950 . S
C1684 H1676 0.950 . S
C1684 C1685 1.386 . S
C1684 C1686 1.391 . S
C1685 C1684 1.386 . S
C1685 C1689 1.393 . S
C1686 H1678 0.950 . S
C1686 C1684 1.391 . S
C1686 C1687 1.400 . S
C1687 C1686 1.400 . S
C1687 C1688 1.398 . S
C1687 C1693 1.491 . S
C1688 H1679 0.950 . S
C1688 C1687 1.398 . S
C1688 C1689 1.391 . S
C1689 H1677 0.950 . S
C1689 C1685 1.393 . S
C1689 C1688 1.391 . S
C1690 H1680 0.950 . S
C1690 C1691 1.386 . S
C1690 C1692 1.391 . S
C1691 C1690 1.386 . S
C1691 C1695 1.393 . S
C1692 H1681 0.950 . S
C1692 C1690 1.391 . S
C1692 C1693 1.400 . S
C1693 C1687 1.491 . S
C1693 C1692 1.400 . S
C1693 C1694 1.398 . S
C1694 H1682 0.950 . S
C1694 C1693 1.398 . S
C1694 C1695 1.391 . S
C1695 H1683 0.950 . S
C1695 C1691 1.393 . S
C1695 C1694 1.391 . S
H1696 C1704 0.950 . S
H1697 C1709 0.950 . S
H1698 C1706 0.950 . S
H1699 C1708 0.950 . S
H1700 C1710 0.950 . S
H1701 C1712 0.950 . S
H1702 C1714 0.950 . S
H1703 C1715 0.950 . S
C1704 H1696 0.950 . S
C1704 C1705 1.386 . S
C1704 C1706 1.391 . S
C1705 C1704 1.386 . S
C1705 C1709 1.393 . S
C1706 H1698 0.950 . S
C1706 C1704 1.391 . S
C1706 C1707 1.400 . S
C1707 C1706 1.400 . S
C1707 C1708 1.398 . S
C1707 C1713 1.491 1_665 S
C1708 H1699 0.950 . S
C1708 C1707 1.398 . S
C1708 C1709 1.391 . S
C1709 H1697 0.950 . S
C1709 C1705 1.393 . S
C1709 C1708 1.391 . S
C1710 H1700 0.950 . S
C1710 C1711 1.386 . S
C1710 C1712 1.391 . S
C1711 C1710 1.386 . S
C1711 C1715 1.393 . S
C1712 H1701 0.950 . S
C1712 C1710 1.391 . S
C1712 C1713 1.400 . S
C1713 C1707 1.491 1_445 S
C1713 C1712 1.400 . S
C1713 C1714 1.398 . S
C1714 H1702 0.950 . S
C1714 C1713 1.398 . S
C1714 C1715 1.391 . S
C1715 H1703 0.950 . S
C1715 C1711 1.393 . S
C1715 C1714 1.391 . S
H1716 C1724 0.950 . S
H1717 C1729 0.950 . S
H1718 C1726 0.950 . S
H1719 C1728 0.950 . S
H1720 C1730 0.950 . S
H1721 C1732 0.950 . S
H1722 C1734 0.950 . S
H1723 C1735 0.950 . S
C1724 H1716 0.950 . S
C1724 C1725 1.386 . S
C1724 C1726 1.391 . S
C1725 C1724 1.386 . S
C1725 C1729 1.393 . S
C1726 H1718 0.950 . S
C1726 C1724 1.391 . S
C1726 C1727 1.400 . S
C1727 C1726 1.400 . S
C1727 C1728 1.398 . S
C1727 C1733 1.491 . S
C1728 H1719 0.950 . S
C1728 C1727 1.398 . S
C1728 C1729 1.391 . S
C1729 H1717 0.950 . S
C1729 C1725 1.393 . S
C1729 C1728 1.391 . S
C1730 H1720 0.950 . S
C1730 C1731 1.386 . S
C1730 C1732 1.391 . S
C1731 C1730 1.386 . S
C1731 C1735 1.393 . S
C1732 H1721 0.950 . S
C1732 C1730 1.391 . S
C1732 C1733 1.400 . S
C1733 C1727 1.491 . S
C1733 C1732 1.400 . S
C1733 C1734 1.398 . S
C1734 H1722 0.950 . S
C1734 C1733 1.398 . S
C1734 C1735 1.391 . S
C1735 H1723 0.950 . S
C1735 C1731 1.393 . S
C1735 C1734 1.391 . S
H1736 C1744 0.950 . S
H1737 C1749 0.950 . S
H1738 C1746 0.950 1_455 S
H1739 C1748 0.950 . S
H1740 C1750 0.950 . S
H1741 C1752 0.950 1_655 S
H1742 C1754 0.950 . S
H1743 C1755 0.950 . S
C1744 H1736 0.950 . S
C1744 C1745 1.386 . S
C1744 C1746 1.391 . S
C1745 C1744 1.386 . S
C1745 C1749 1.393 . S
C1746 H1738 0.950 1_655 S
C1746 C1744 1.391 . S
C1746 C1747 1.400 . S
C1747 C1746 1.400 . S
C1747 C1748 1.398 . S
C1747 C1753 1.491 1_655 S
C1748 H1739 0.950 . S
C1748 C1747 1.398 . S
C1748 C1749 1.391 . S
C1749 H1737 0.950 . S
C1749 C1745 1.393 . S
C1749 C1748 1.391 . S
C1750 H1740 0.950 . S
C1750 C1751 1.386 . S
C1750 C1752 1.391 . S
C1751 C1750 1.386 . S
C1751 C1755 1.393 . S
C1752 H1741 0.950 1_455 S
C1752 C1750 1.391 . S
C1752 C1753 1.400 . S
C1753 C1747 1.491 1_455 S
C1753 C1752 1.400 . S
C1753 C1754 1.398 . S
C1754 H1742 0.950 . S
C1754 C1753 1.398 . S
C1754 C1755 1.391 . S
C1755 H1743 0.950 . S
C1755 C1751 1.393 . S
C1755 C1754 1.391 . S
H1756 C1764 0.950 . S
H1757 C1769 0.950 . S
H1758 C1766 0.950 . S
H1759 C1768 1.023 . S
H1760 C1770 0.950 . S
H1761 C1772 0.950 . S
H1762 C1774 1.023 . S
H1763 C1775 0.950 . S
C1764 H1756 0.950 . S
C1764 C1765 1.386 . S
C1764 C1766 1.391 . S
C1765 C1764 1.386 . S
C1765 C1769 1.393 . S
C1766 H1758 0.950 . S
C1766 C1764 1.391 . S
C1766 C1767 1.400 . S
C1767 C1766 1.400 . S
C1767 C1768 1.372 1_545 S
C1767 C1773 1.491 1_545 S
C1768 H1759 1.023 . S
C1768 C1767 1.372 1_565 S
C1768 C1769 1.350 1_565 S
C1769 H1757 0.950 . S
C1769 C1765 1.393 . S
C1769 C1768 1.350 1_545 S
C1770 H1760 0.950 . S
C1770 C1771 1.386 . S
C1770 C1772 1.391 . S
C1771 C1770 1.386 . S
C1771 C1775 1.393 . S
C1772 H1761 0.950 . S
C1772 C1770 1.391 . S
C1772 C1773 1.400 . S
C1773 C1767 1.491 1_565 S
C1773 C1772 1.400 . S
C1773 C1774 1.372 1_565 S
C1774 H1762 1.023 . S
C1774 C1773 1.372 1_545 S
C1774 C1775 1.350 1_545 S
C1775 H1763 0.950 . S
C1775 C1771 1.393 . S
C1775 C1774 1.350 1_565 S
H1776 C1784 0.950 . S
H1777 C1789 0.950 . S
H1778 C1786 0.950 . S
H1779 C1788 0.950 . S
H1780 C1790 0.950 . S
H1781 C1792 0.950 . S
H1782 C1794 0.950 . S
H1783 C1795 0.950 . S
C1784 H1776 0.950 . S
C1784 C1785 1.386 . S
C1784 C1786 1.391 . S
C1785 C1784 1.386 . S
C1785 C1789 1.393 . S
C1786 H1778 0.950 . S
C1786 C1784 1.391 . S
C1786 C1787 1.400 . S
C1787 C1786 1.400 . S
C1787 C1788 1.398 . S
C1787 C1793 1.491 . S
C1788 H1779 0.950 . S
C1788 C1787 1.398 . S
C1788 C1789 1.391 . S
C1789 H1777 0.950 . S
C1789 C1785 1.393 . S
C1789 C1788 1.391 . S
C1790 H1780 0.950 . S
C1790 C1791 1.386 . S
C1790 C1792 1.391 . S
C1791 C1790 1.386 . S
C1791 C1795 1.393 . S
C1792 H1781 0.950 . S
C1792 C1790 1.391 . S
C1792 C1793 1.400 . S
C1793 C1787 1.491 . S
C1793 C1792 1.400 . S
C1793 C1794 1.398 . S
C1794 H1782 0.950 . S
C1794 C1793 1.398 . S
C1794 C1795 1.391 . S
C1795 H1783 0.950 . S
C1795 C1791 1.393 . S
C1795 C1794 1.391 . S
H1796 C1804 0.950 . S
H1797 C1809 0.950 . S
H1798 C1806 0.950 . S
H1799 C1808 0.950 . S
H1800 C1810 0.950 . S
H1801 C1812 0.950 . S
H1802 C1814 0.950 . S
H1803 C1815 0.950 . S
C1804 H1796 0.950 . S
C1804 C1805 1.386 . S
C1804 C1806 1.391 . S
C1805 C1804 1.386 . S
C1805 C1809 1.393 . S
C1806 H1798 0.950 . S
C1806 C1804 1.391 . S
C1806 C1807 1.400 . S
C1807 C1806 1.400 . S
C1807 C1808 1.398 . S
C1807 C1813 1.491 1_655 S
C1808 H1799 0.950 . S
C1808 C1807 1.398 . S
C1808 C1809 1.391 . S
C1809 H1797 0.950 . S
C1809 C1805 1.393 . S
C1809 C1808 1.391 . S
C1810 H1800 0.950 . S
C1810 C1811 1.386 . S
C1810 C1812 1.391 . S
C1811 C1810 1.386 . S
C1811 C1815 1.393 . S
C1812 H1801 0.950 . S
C1812 C1810 1.391 . S
C1812 C1813 1.400 . S
C1813 C1807 1.491 1_455 S
C1813 C1812 1.400 . S
C1813 C1814 1.398 . S
C1814 H1802 0.950 . S
C1814 C1813 1.398 . S
C1814 C1815 1.391 . S
C1815 H1803 0.950 . S
C1815 C1811 1.393 . S
C1815 C1814 1.391 . S
H1816 C1824 0.950 . S
H1817 C1829 0.950 . S
H1818 C1826 0.950 . S
H1819 C1828 0.916 1_565 S
H1820 C1830 0.950 . S
H1821 C1832 0.950 . S
H1822 C1834 0.916 1_545 S
H1823 C1835 0.950 . S
C1824 H1816 0.950 . S
C1824 C1825 1.386 . S
C1824 C1826 1.391 . S
C1825 C1824 1.386 . S
C1825 C1829 1.393 . S
C1826 H1818 0.950 . S
C1826 C1824 1.391 . S
C1826 C1827 1.400 . S
C1827 C1826 1.400 . S
C1827 C1828 1.409 . S
C1827 C1833 1.491 1_545 S
C1828 H1819 0.916 1_545 S
C1828 C1827 1.409 . S
C1828 C1829 1.415 . S
C1829 H1817 0.950 . S
C1829 C1825 1.393 . S
C1829 C1828 1.415 . S
C1830 H1820 0.950 . S
C1830 C1831 1.386 . S
C1830 C1832 1.391 . S
C1831 C1830 1.386 . S
C1831 C1835 1.393 . S
C1832 H1821 0.950 . S
C1832 C1830 1.391 . S
C1832 C1833 1.400 . S
C1833 C1827 1.491 1_565 S
C1833 C1832 1.400 . S
C1833 C1834 1.409 . S
C1834 H1822 0.916 1_565 S
C1834 C1833 1.409 . S
C1834 C1835 1.415 . S
C1835 H1823 0.950 . S
C1835 C1831 1.393 . S
C1835 C1834 1.415 . S
H1836 C1844 0.950 . S
H1837 C1849 0.965 . S
H1838 C1846 0.950 1_655 S
H1839 C1848 0.950 . S
H1840 C1850 0.950 . S
H1841 C1852 0.950 1_455 S
H1842 C1854 0.950 . S
H1843 C1855 0.965 . S
C1844 H1836 0.950 . S
C1844 C1845 1.386 . S
C1844 C1846 1.391 . S
C1845 C1844 1.386 . S
C1845 C1849 1.372 1_556 S
C1846 H1838 0.950 1_455 S
C1846 C1844 1.391 . S
C1846 C1847 1.400 . S
C1847 C1846 1.400 . S
C1847 C1848 1.398 1_556 S
C1847 C1853 1.491 1_456 S
C1848 H1839 0.950 . S
C1848 C1847 1.398 1_554 S
C1848 C1849 1.398 . S
C1849 H1837 0.965 . S
C1849 C1845 1.372 1_554 S
C1849 C1848 1.398 . S
C1850 H1840 0.950 . S
C1850 C1851 1.386 . S
C1850 C1852 1.391 . S
C1851 C1850 1.386 . S
C1851 C1855 1.372 1_554 S
C1852 H1841 0.950 1_655 S
C1852 C1850 1.391 . S
C1852 C1853 1.400 . S
C1853 C1847 1.491 1_654 S
C1853 C1852 1.400 . S
C1853 C1854 1.398 1_554 S
C1854 H1842 0.950 . S
C1854 C1853 1.398 1_556 S
C1854 C1855 1.398 . S
C1855 H1843 0.965 . S
C1855 C1851 1.372 1_556 S
C1855 C1854 1.398 . S
H1856 C1864 0.950 . S
H1857 C1869 0.950 . S
H1858 C1866 0.950 . S
H1859 C1868 0.950 . S
H1860 C1870 0.950 . S
H1861 C1872 0.950 . S
H1862 C1874 0.950 . S
H1863 C1875 0.950 . S
C1864 H1856 0.950 . S
C1864 C1865 1.386 . S
C1864 C1866 1.391 . S
C1865 C1864 1.386 . S
C1865 C1869 1.393 1_554 S
C1866 H1858 0.950 . S
C1866 C1864 1.391 . S
C1866 C1867 1.400 . S
C1867 C1866 1.400 . S
C1867 C1868 1.398 1_554 S
C1867 C1873 1.491 1_554 S
C1868 H1859 0.950 . S
C1868 C1867 1.398 1_556 S
C1868 C1869 1.391 . S
C1869 H1857 0.950 . S
C1869 C1865 1.393 1_556 S
C1869 C1868 1.391 . S
C1870 H1860 0.950 . S
C1870 C1871 1.386 . S
C1870 C1872 1.391 . S
C1871 C1870 1.386 . S
C1871 C1875 1.393 1_556 S
C1872 H1861 0.950 . S
C1872 C1870 1.391 . S
C1872 C1873 1.400 . S
C1873 C1867 1.491 1_556 S
C1873 C1872 1.400 . S
C1873 C1874 1.398 1_556 S
C1874 H1862 0.950 . S
C1874 C1873 1.398 1_554 S
C1874 C1875 1.391 . S
C1875 H1863 0.950 . S
C1875 C1871 1.393 1_554 S
C1875 C1874 1.391 . S
H1876 C1884 0.950 . S
H1877 C1889 0.950 . S
H1878 C1886 0.950 . S
H1879 C1888 0.950 . S
H1880 C1890 0.950 . S
H1881 C1892 0.950 . S
H1882 C1894 0.950 . S
H1883 C1895 0.950 . S
C1884 H1876 0.950 . S
C1884 C1885 1.386 . S
C1884 C1886 1.391 . S
C1885 C1884 1.386 . S
C1885 C1889 1.393 . S
C1886 H1878 0.950 . S
C1886 C1884 1.391 . S
C1886 C1887 1.400 . S
C1887 C1886 1.400 . S
C1887 C1888 1.398 . S
C1887 C1893 1.491 . S
C1888 H1879 0.950 . S
C1888 C1887 1.398 . S
C1888 C1889 1.391 . S
C1889 H1877 0.950 . S
C1889 C1885 1.393 . S
C1889 C1888 1.391 . S
C1890 H1880 0.950 . S
C1890 C1891 1.386 . S
C1890 C1892 1.391 . S
C1891 C1890 1.386 . S
C1891 C1895 1.393 . S
C1892 H1881 0.950 . S
C1892 C1890 1.391 . S
C1892 C1893 1.400 . S
C1893 C1887 1.491 . S
C1893 C1892 1.400 . S
C1893 C1894 1.398 . S
C1894 H1882 0.950 . S
C1894 C1893 1.398 . S
C1894 C1895 1.391 . S
C1895 H1883 0.950 . S
C1895 C1891 1.393 . S
C1895 C1894 1.391 . S
H1896 C1904 0.950 . S
H1897 C1909 0.947 1_556 S
H1898 C1906 0.950 . S
H1899 C1908 0.950 . S
H1900 C1910 0.950 . S
H1901 C1912 0.950 . S
H1902 C1914 0.950 . S
H1903 C1915 0.947 1_554 S
C1904 H1896 0.950 . S
C1904 C1905 1.386 . S
C1904 C1906 1.391 . S
C1905 C1904 1.386 . S
C1905 C1909 1.397 . S
C1906 H1898 0.950 . S
C1906 C1904 1.391 . S
C1906 C1907 1.400 . S
C1907 C1906 1.400 . S
C1907 C1908 1.398 1_554 S
C1907 C1913 1.491 1_554 S
C1908 H1899 0.950 . S
C1908 C1907 1.398 1_556 S
C1908 C1909 1.389 1_556 S
C1909 H1897 0.947 1_554 S
C1909 C1905 1.397 . S
C1909 C1908 1.389 1_554 S
C1910 H1900 0.950 . S
C1910 C1911 1.386 . S
C1910 C1912 1.391 . S
C1911 C1910 1.386 . S
C1911 C1915 1.397 . S
C1912 H1901 0.950 . S
C1912 C1910 1.391 . S
C1912 C1913 1.400 . S
C1913 C1907 1.491 1_556 S
C1913 C1912 1.400 . S
C1913 C1914 1.398 1_556 S
C1914 H1902 0.950 . S
C1914 C1913 1.398 1_554 S
C1914 C1915 1.389 1_554 S
C1915 H1903 0.947 1_556 S
C1915 C1911 1.397 . S
C1915 C1914 1.389 1_556 S
H1916 C1924 0.950 . S
H1917 C1929 0.950 . S
H1918 C1926 0.950 . S
H1919 C1928 0.950 . S
H1920 C1930 0.950 . S
H1921 C1932 0.950 . S
H1922 C1934 0.950 . S
H1923 C1935 0.950 . S
C1924 H1916 0.950 . S
C1924 C1925 1.386 . S
C1924 C1926 1.391 . S
C1925 C1924 1.386 . S
C1925 C1929 1.393 . S
C1926 H1918 0.950 . S
C1926 C1924 1.391 . S
C1926 C1927 1.400 . S
C1927 C1926 1.400 . S
C1927 C1928 1.398 . S
C1927 C1933 1.491 . S
C1928 H1919 0.950 . S
C1928 C1927 1.398 . S
C1928 C1929 1.391 . S
C1929 H1917 0.950 . S
C1929 C1925 1.393 . S
C1929 C1928 1.391 . S
C1930 H1920 0.950 . S
C1930 C1931 1.386 . S
C1930 C1932 1.391 . S
C1931 C1930 1.386 . S
C1931 C1935 1.393 . S
C1932 H1921 0.950 . S
C1932 C1930 1.391 . S
C1932 C1933 1.400 . S
C1933 C1927 1.491 . S
C1933 C1932 1.400 . S
C1933 C1934 1.398 . S
C1934 H1922 0.950 . S
C1934 C1933 1.398 . S
C1934 C1935 1.391 . S
C1935 H1923 0.950 . S
C1935 C1931 1.393 . S
C1935 C1934 1.391 . S
H1936 C1944 0.950 . S
H1937 C1949 0.950 . S
H1938 C1946 0.950 . S
H1939 C1948 0.950 . S
H1940 C1950 0.950 . S
H1941 C1952 0.950 . S
H1942 C1954 0.950 . S
H1943 C1955 0.950 . S
C1944 H1936 0.950 . S
C1944 C1945 1.386 1_556 S
C1944 C1946 1.391 . S
C1945 C1944 1.386 1_554 S
C1945 C1949 1.393 . S
C1946 H1938 0.950 . S
C1946 C1944 1.391 . S
C1946 C1947 1.400 1_556 S
C1947 C1946 1.400 1_554 S
C1947 C1948 1.398 1_565 S
C1947 C1953 1.491 1_564 S
C1948 H1939 0.950 . S
C1948 C1947 1.398 1_545 S
C1948 C1949 1.391 1_545 S
C1949 H1937 0.950 . S
C1949 C1945 1.393 . S
C1949 C1948 1.391 1_565 S
C1950 H1940 0.950 . S
C1950 C1951 1.386 1_554 S
C1950 C1952 1.391 . S
C1951 C1950 1.386 1_556 S
C1951 C1955 1.393 . S
C1952 H1941 0.950 . S
C1952 C1950 1.391 . S
C1952 C1953 1.400 1_554 S
C1953 C1947 1.491 1_546 S
C1953 C1952 1.400 1_556 S
C1953 C1954 1.398 1_545 S
C1954 H1942 0.950 . S
C1954 C1953 1.398 1_565 S
C1954 C1955 1.391 1_565 S
C1955 H1943 0.950 . S
C1955 C1951 1.393 . S
C1955 C1954 1.391 1_545 S
H1956 C1964 0.950 . S
H1957 C1969 0.950 . S
H1958 C1966 0.950 . S
H1959 C1968 0.950 . S
H1960 C1970 0.950 . S
H1961 C1972 0.950 . S
H1962 C1974 0.950 . S
H1963 C1975 0.950 . S
C1964 H1956 0.950 . S
C1964 C1965 1.386 . S
C1964 C1966 1.391 . S
C1965 C1964 1.386 . S
C1965 C1969 1.393 . S
C1966 H1958 0.950 . S
C1966 C1964 1.391 . S
C1966 C1967 1.400 . S
C1967 C1966 1.400 . S
C1967 C1968 1.398 . S
C1967 C1973 1.491 . S
C1968 H1959 0.950 . S
C1968 C1967 1.398 . S
C1968 C1969 1.391 . S
C1969 H1957 0.950 . S
C1969 C1965 1.393 . S
C1969 C1968 1.391 . S
C1970 H1960 0.950 . S
C1970 C1971 1.386 . S
C1970 C1972 1.391 . S
C1971 C1970 1.386 . S
C1971 C1975 1.393 . S
C1972 H1961 0.950 . S
C1972 C1970 1.391 . S
C1972 C1973 1.400 . S
C1973 C1967 1.491 . S
C1973 C1972 1.400 . S
C1973 C1974 1.398 . S
C1974 H1962 0.950 . S
C1974 C1973 1.398 . S
C1974 C1975 1.391 . S
C1975 H1963 0.950 . S
C1975 C1971 1.393 . S
C1975 C1974 1.391 . S
H1976 C1984 0.950 . S
H1977 C1989 0.950 . S
H1978 C1986 0.950 . S
H1979 C1988 0.950 . S
H1980 C1990 0.950 . S
H1981 C1992 0.950 . S
H1982 C1994 0.950 . S
H1983 C1995 0.950 . S
C1984 H1976 0.950 . S
C1984 C1985 1.386 . S
C1984 C1986 1.391 . S
C1985 C1984 1.386 . S
C1985 C1989 1.393 . S
C1986 H1978 0.950 . S
C1986 C1984 1.391 . S
C1986 C1987 1.400 . S
C1987 C1986 1.400 . S
C1987 C1988 1.398 . S
C1987 C1993 1.491 . S
C1988 H1979 0.950 . S
C1988 C1987 1.398 . S
C1988 C1989 1.391 . S
C1989 H1977 0.950 . S
C1989 C1985 1.393 . S
C1989 C1988 1.391 . S
C1990 H1980 0.950 . S
C1990 C1991 1.386 . S
C1990 C1992 1.391 . S
C1991 C1990 1.386 . S
C1991 C1995 1.393 . S
C1992 H1981 0.950 . S
C1992 C1990 1.391 . S
C1992 C1993 1.400 . S
C1993 C1987 1.491 . S
C1993 C1992 1.400 . S
C1993 C1994 1.398 . S
C1994 H1982 0.950 . S
C1994 C1993 1.398 . S
C1994 C1995 1.391 . S
C1995 H1983 0.950 . S
C1995 C1991 1.393 . S
C1995 C1994 1.391 . S
H1996 C2004 0.950 . S
H1997 C2009 0.950 . S
H1998 C2006 0.950 . S
H1999 C2008 0.950 . S
H2000 C2010 0.950 . S
H2001 C2012 0.950 . S
H2002 C2014 0.950 . S
H2003 C2015 0.950 . S
C2004 H1996 0.950 . S
C2004 C2005 1.386 . S
C2004 C2006 1.391 . S
C2005 C2004 1.386 . S
C2005 C2009 1.393 . S
C2006 H1998 0.950 . S
C2006 C2004 1.391 . S
C2006 C2007 1.400 . S
C2007 C2006 1.400 . S
C2007 C2008 1.398 . S
C2007 C2013 1.491 . S
C2008 H1999 0.950 . S
C2008 C2007 1.398 . S
C2008 C2009 1.391 . S
C2009 H1997 0.950 . S
C2009 C2005 1.393 . S
C2009 C2008 1.391 . S
C2010 H2000 0.950 . S
C2010 C2011 1.386 . S
C2010 C2012 1.391 . S
C2011 C2010 1.386 . S
C2011 C2015 1.393 . S
C2012 H2001 0.950 . S
C2012 C2010 1.391 . S
C2012 C2013 1.400 . S
C2013 C2007 1.491 . S
C2013 C2012 1.400 . S
C2013 C2014 1.398 . S
C2014 H2002 0.950 . S
C2014 C2013 1.398 . S
C2014 C2015 1.391 . S
C2015 H2003 0.950 . S
C2015 C2011 1.393 . S
C2015 C2014 1.391 . S
H2016 C2024 0.956 . S
H2017 C2029 0.950 . S
H2018 C2026 0.950 . S
H2019 C2028 0.950 . S
H2020 C2030 0.918 1_565 S
H2021 C2032 0.950 . S
H2022 C2034 0.950 . S
H2023 C2035 0.950 . S
C2024 H2016 0.956 . S
C2024 C2025 1.374 1_545 S
C2024 C2026 1.396 . S
C2025 C2024 1.374 1_565 S
C2025 C2029 1.393 . S
C2026 H2018 0.950 . S
C2026 C2024 1.396 . S
C2026 C2027 1.400 1_545 S
C2027 C2026 1.400 1_565 S
C2027 C2028 1.398 . S
C2027 C2033 1.491 1_565 S
C2028 H2019 0.950 . S
C2028 C2027 1.398 . S
C2028 C2029 1.391 . S
C2029 H2017 0.950 . S
C2029 C2025 1.393 . S
C2029 C2028 1.391 . S
C2030 H2020 0.918 1_545 S
C2030 C2031 1.442 . S
C2030 C2032 1.370 1_545 S
C2031 C2030 1.442 . S
C2031 C2035 1.393 . S
C2032 H2021 0.950 . S
C2032 C2030 1.370 1_565 S
C2032 C2033 1.400 1_565 S
C2033 C2027 1.491 1_545 S
C2033 C2032 1.400 1_545 S
C2033 C2034 1.398 . S
C2034 H2022 0.950 . S
C2034 C2033 1.398 . S
C2034 C2035 1.391 . S
C2035 H2023 0.950 . S
C2035 C2031 1.393 . S
C2035 C2034 1.391 . S
H2036 C2044 0.950 . S
H2037 C2049 0.950 . S
H2038 C2046 0.950 . S
H2039 C2048 0.950 . S
H2040 C2050 0.950 . S
H2041 C2052 0.950 . S
H2042 C2054 0.950 . S
H2043 C2055 0.950 . S
C2044 H2036 0.950 . S
C2044 C2045 1.386 . S
C2044 C2046 1.391 . S
C2045 C2044 1.386 . S
C2045 C2049 1.393 . S
C2046 H2038 0.950 . S
C2046 C2044 1.391 . S
C2046 C2047 1.400 . S
C2047 C2046 1.400 . S
C2047 C2048 1.398 . S
C2047 C2053 1.491 . S
C2048 H2039 0.950 . S
C2048 C2047 1.398 . S
C2048 C2049 1.391 . S
C2049 H2037 0.950 . S
C2049 C2045 1.393 . S
C2049 C2048 1.391 . S
C2050 H2040 0.950 . S
C2050 C2051 1.386 . S
C2050 C2052 1.391 . S
C2051 C2050 1.386 . S
C2051 C2055 1.393 1_655 S
C2052 H2041 0.950 . S
C2052 C2050 1.391 . S
C2052 C2053 1.400 . S
C2053 C2047 1.491 . S
C2053 C2052 1.400 . S
C2053 C2054 1.398 . S
C2054 H2042 0.950 . S
C2054 C2053 1.398 . S
C2054 C2055 1.391 1_655 S
C2055 H2043 0.950 . S
C2055 C2051 1.393 1_455 S
C2055 C2054 1.391 1_455 S
H2056 C2064 0.950 . S
H2057 C2069 0.950 . S
H2058 C2066 0.950 . S
H2059 C2068 0.950 . S
H2060 C2070 0.950 . S
H2061 C2072 0.950 . S
H2062 C2074 0.950 . S
H2063 C2075 0.950 . S
C2064 H2056 0.950 . S
C2064 C2065 1.386 . S
C2064 C2066 1.391 . S
C2065 C2064 1.386 . S
C2065 C2069 1.393 . S
C2066 H2058 0.950 . S
C2066 C2064 1.391 . S
C2066 C2067 1.400 . S
C2067 C2066 1.400 . S
C2067 C2068 1.398 . S
C2067 C2073 1.491 . S
C2068 H2059 0.950 . S
C2068 C2067 1.398 . S
C2068 C2069 1.391 . S
C2069 H2057 0.950 . S
C2069 C2065 1.393 . S
C2069 C2068 1.391 . S
C2070 H2060 0.950 . S
C2070 C2071 1.386 . S
C2070 C2072 1.391 . S
C2071 C2070 1.386 . S
C2071 C2075 1.393 . S
C2072 H2061 0.950 . S
C2072 C2070 1.391 . S
C2072 C2073 1.400 . S
C2073 C2067 1.491 . S
C2073 C2072 1.400 . S
C2073 C2074 1.398 . S
C2074 H2062 0.950 . S
C2074 C2073 1.398 . S
C2074 C2075 1.391 . S
C2075 H2063 0.950 . S
C2075 C2071 1.393 . S
C2075 C2074 1.391 . S
H2076 C2084 0.950 . S
H2077 C2089 0.916 1_565 S
H2078 C2086 0.950 . S
H2079 C2088 0.950 . S
H2080 C2090 0.950 . S
H2081 C2092 0.950 . S
H2082 C2094 0.950 . S
H2083 C2095 0.957 . S
C2084 H2076 0.950 . S
C2084 C2085 1.386 . S
C2084 C2086 1.391 . S
C2085 C2084 1.386 . S
C2085 C2089 1.450 1_655 S
C2086 H2078 0.950 . S
C2086 C2084 1.391 . S
C2086 C2087 1.400 . S
C2087 C2086 1.400 . S
C2087 C2088 1.398 1_545 S
C2087 C2093 1.491 1_545 S
C2088 H2079 0.950 . S
C2088 C2087 1.398 1_565 S
C2088 C2089 1.370 1_665 S
C2089 H2077 0.916 1_545 S
C2089 C2085 1.450 1_455 S
C2089 C2088 1.370 1_445 S
C2090 H2080 0.950 . S
C2090 C2091 1.386 . S
C2090 C2092 1.391 . S
C2091 C2090 1.386 . S
C2091 C2095 1.381 1_565 S
C2092 H2081 0.950 . S
C2092 C2090 1.391 . S
C2092 C2093 1.400 . S
C2093 C2087 1.491 1_565 S
C2093 C2092 1.400 . S
C2093 C2094 1.398 1_565 S
C2094 H2082 0.950 . S
C2094 C2093 1.398 1_545 S
C2094 C2095 1.395 . S
C2095 H2083 0.957 . S
C2095 C2091 1.381 1_545 S
C2095 C2094 1.395 . S
H2096 C2104 0.950 . S
H2097 C2109 0.950 . S
H2098 C2106 0.950 . S
H2099 C2108 0.953 . S
H2100 C2110 0.950 . S
H2101 C2112 0.950 . S
H2102 C2114 0.950 . S
H2103 C2115 0.950 . S
C2104 H2096 0.950 . S
C2104 C2105 1.386 . S
C2104 C2106 1.391 . S
C2105 C2104 1.386 . S
C2105 C2109 1.393 . S
C2106 H2098 0.950 . S
C2106 C2104 1.391 . S
C2106 C2107 1.400 . S
C2107 C2106 1.400 . S
C2107 C2108 1.397 1_565 S
C2107 C2113 1.491 1_565 S
C2108 H2099 0.953 . S
C2108 C2107 1.397 1_545 S
C2108 C2109 1.389 1_545 S
C2109 H2097 0.950 . S
C2109 C2105 1.393 . S
C2109 C2108 1.389 1_565 S
C2110 H2100 0.950 . S
C2110 C2111 1.386 . S
C2110 C2112 1.391 . S
C2111 C2110 1.386 . S
C2111 C2115 1.393 . S
C2112 H2101 0.950 . S
C2112 C2110 1.391 . S
C2112 C2113 1.400 . S
C2113 C2107 1.491 1_545 S
C2113 C2112 1.400 . S
C2113 C2114 1.398 1_545 S
C2114 H2102 0.950 . S
C2114 C2113 1.398 1_565 S
C2114 C2115 1.391 1_565 S
C2115 H2103 0.950 . S
C2115 C2111 1.393 . S
C2115 C2114 1.391 1_545 S
H2116 C2124 0.950 . S
H2117 C2129 0.950 . S
H2118 C2126 0.950 . S
H2119 C2128 0.950 . S
H2120 C2130 0.950 . S
H2121 C2132 0.950 . S
H2122 C2134 0.950 . S
H2123 C2135 0.950 . S
C2124 H2116 0.950 . S
C2124 C2125 1.386 . S
C2124 C2126 1.391 . S
C2125 C2124 1.386 . S
C2125 C2129 1.393 . S
C2126 H2118 0.950 . S
C2126 C2124 1.391 . S
C2126 C2127 1.400 . S
C2127 C2126 1.400 . S
C2127 C2128 1.398 . S
C2127 C2133 1.491 . S
C2128 H2119 0.950 . S
C2128 C2127 1.398 . S
C2128 C2129 1.391 . S
C2129 H2117 0.950 . S
C2129 C2125 1.393 . S
C2129 C2128 1.391 . S
C2130 H2120 0.950 . S
C2130 C2131 1.386 1_655 S
C2130 C2132 1.391 1_655 S
C2131 C2130 1.386 1_455 S
C2131 C2135 1.393 . S
C2132 H2121 0.950 . S
C2132 C2130 1.391 1_455 S
C2132 C2133 1.400 . S
C2133 C2127 1.491 . S
C2133 C2132 1.400 . S
C2133 C2134 1.398 . S
C2134 H2122 0.950 . S
C2134 C2133 1.398 . S
C2134 C2135 1.391 . S
C2135 H2123 0.950 . S
C2135 C2131 1.393 . S
C2135 C2134 1.391 . S
H2136 C2144 0.950 . S
H2137 C2149 0.950 . S
H2138 C2146 0.950 . S
H2139 C2148 0.950 . S
H2140 C2150 0.950 . S
H2141 C2152 0.950 . S
H2142 C2154 0.950 . S
H2143 C2155 0.950 . S
C2144 H2136 0.950 . S
C2144 C2145 1.386 . S
C2144 C2146 1.391 . S
C2145 C2144 1.386 . S
C2145 C2149 1.393 . S
C2146 H2138 0.950 . S
C2146 C2144 1.391 . S
C2146 C2147 1.400 . S
C2147 C2146 1.400 . S
C2147 C2148 1.398 . S
C2147 C2153 1.491 . S
C2148 H2139 0.950 . S
C2148 C2147 1.398 . S
C2148 C2149 1.391 . S
C2149 H2137 0.950 . S
C2149 C2145 1.393 . S
C2149 C2148 1.391 . S
C2150 H2140 0.950 . S
C2150 C2151 1.386 . S
C2150 C2152 1.391 . S
C2151 C2150 1.386 . S
C2151 C2155 1.393 . S
C2152 H2141 0.950 . S
C2152 C2150 1.391 . S
C2152 C2153 1.400 . S
C2153 C2147 1.491 . S
C2153 C2152 1.400 . S
C2153 C2154 1.398 . S
C2154 H2142 0.950 . S
C2154 C2153 1.398 . S
C2154 C2155 1.391 . S
C2155 H2143 0.950 . S
C2155 C2151 1.393 . S
C2155 C2154 1.391 . S
H2156 C2164 0.950 . S
H2157 C2169 0.983 . S
H2158 C2166 0.950 . S
H2159 C2168 0.950 . S
H2160 C2170 0.950 . S
H2161 C2172 0.950 . S
H2162 C2174 0.950 . S
H2163 C2175 0.950 . S
C2164 H2156 0.950 . S
C2164 C2165 1.386 . S
C2164 C2166 1.391 . S
C2165 C2164 1.386 . S
C2165 C2169 1.344 1_565 S
C2166 H2158 0.950 . S
C2166 C2164 1.391 . S
C2166 C2167 1.400 . S
C2167 C2166 1.400 . S
C2167 C2168 1.398 1_565 S
C2167 C2173 1.491 1_565 S
C2168 H2159 0.950 . S
C2168 C2167 1.398 1_545 S
C2168 C2169 1.409 . S
C2169 H2157 0.983 . S
C2169 C2165 1.344 1_545 S
C2169 C2168 1.409 . S
C2170 H2160 0.950 . S
C2170 C2171 1.386 . S
C2170 C2172 1.391 . S
C2171 C2170 1.386 . S
C2171 C2175 1.393 1_545 S
C2172 H2161 0.950 . S
C2172 C2170 1.391 . S
C2172 C2173 1.400 . S
C2173 C2167 1.491 1_545 S
C2173 C2172 1.400 . S
C2173 C2174 1.398 1_545 S
C2174 H2162 0.950 . S
C2174 C2173 1.398 1_565 S
C2174 C2175 1.391 . S
C2175 H2163 0.950 . S
C2175 C2171 1.393 1_565 S
C2175 C2174 1.391 . S
H2176 C2184 0.950 1_556 S
H2177 C2189 0.950 . S
H2178 C2186 0.950 . S
H2179 C2188 0.950 . S
H2180 C2190 0.950 . S
H2181 C2192 0.950 . S
H2182 C2194 0.950 . S
H2183 C2195 0.950 . S
C2184 H2176 0.950 1_554 S
C2184 C2185 1.386 . S
C2184 C2186 1.391 . S
C2185 C2184 1.386 . S
C2185 C2189 1.393 . S
C2186 H2178 0.950 . S
C2186 C2184 1.391 . S
C2186 C2187 1.400 . S
C2187 C2186 1.400 . S
C2187 C2188 1.398 . S
C2187 C2193 1.491 . S
C2188 H2179 0.950 . S
C2188 C2187 1.398 . S
C2188 C2189 1.391 . S
C2189 H2177 0.950 . S
C2189 C2185 1.393 . S
C2189 C2188 1.391 . S
C2190 H2180 0.950 . S
C2190 C2191 1.386 . S
C2190 C2192 1.391 . S
C2191 C2190 1.386 . S
C2191 C2195 1.393 . S
C2192 H2181 0.950 . S
C2192 C2190 1.391 . S
C2192 C2193 1.400 . S
C2193 C2187 1.491 . S
C2193 C2192 1.400 . S
C2193 C2194 1.398 . S
C2194 H2182 0.950 . S
C2194 C2193 1.398 . S
C2194 C2195 1.391 . S
C2195 H2183 0.950 . S
C2195 C2191 1.393 . S
C2195 C2194 1.391 . S
H2196 C2204 0.950 . S
H2197 C2209 0.950 . S
H2198 C2206 0.950 . S
H2199 C2208 0.950 . S
H2200 C2210 0.950 1_556 S
H2201 C2212 0.950 . S
H2202 C2214 0.950 . S
H2203 C2215 0.950 . S
C2204 H2196 0.950 . S
C2204 C2205 1.386 . S
C2204 C2206 1.391 . S
C2205 C2204 1.386 . S
C2205 C2209 1.393 . S
C2206 H2198 0.950 . S
C2206 C2204 1.391 . S
C2206 C2207 1.400 . S
C2207 C2206 1.400 . S
C2207 C2208 1.398 . S
C2207 C2213 1.491 . S
C2208 H2199 0.950 . S
C2208 C2207 1.398 . S
C2208 C2209 1.391 . S
C2209 H2197 0.950 . S
C2209 C2205 1.393 . S
C2209 C2208 1.391 . S
C2210 H2200 0.950 1_554 S
C2210 C2211 1.386 . S
C2210 C2212 1.391 . S
C2211 C2210 1.386 . S
C2211 C2215 1.393 1_655 S
C2212 H2201 0.950 . S
C2212 C2210 1.391 . S
C2212 C2213 1.400 . S
C2213 C2207 1.491 . S
C2213 C2212 1.400 . S
C2213 C2214 1.398 . S
C2214 H2202 0.950 . S
C2214 C2213 1.398 . S
C2214 C2215 1.391 1_655 S
C2215 H2203 0.950 . S
C2215 C2211 1.393 1_455 S
C2215 C2214 1.391 1_455 S
H2216 C2224 0.950 . S
H2217 C2229 0.950 . S
H2218 C2226 0.950 . S
H2219 C2228 0.950 . S
H2220 C2230 0.950 . S
H2221 C2232 0.950 . S
H2222 C2234 0.950 . S
H2223 C2235 0.950 . S
C2224 H2216 0.950 . S
C2224 C2225 1.386 . S
C2224 C2226 1.391 . S
C2225 C2224 1.386 . S
C2225 C2229 1.393 . S
C2226 H2218 0.950 . S
C2226 C2224 1.391 . S
C2226 C2227 1.400 . S
C2227 C2226 1.400 . S
C2227 C2228 1.398 . S
C2227 C2233 1.491 . S
C2228 H2219 0.950 . S
C2228 C2227 1.398 . S
C2228 C2229 1.391 . S
C2229 H2217 0.950 . S
C2229 C2225 1.393 . S
C2229 C2228 1.391 . S
C2230 H2220 0.950 . S
C2230 C2231 1.386 . S
C2230 C2232 1.391 . S
C2231 C2230 1.386 . S
C2231 C2235 1.393 . S
C2232 H2221 0.950 . S
C2232 C2230 1.391 . S
C2232 C2233 1.400 . S
C2233 C2227 1.491 . S
C2233 C2232 1.400 . S
C2233 C2234 1.398 . S
C2234 H2222 0.950 . S
C2234 C2233 1.398 . S
C2234 C2235 1.391 . S
C2235 H2223 0.950 . S
C2235 C2231 1.393 . S
C2235 C2234 1.391 . S
H2236 C2244 0.950 1_455 S
H2237 C2249 0.950 . S
H2238 C2246 0.950 . S
H2239 C2248 0.950 . S
H2240 C2250 0.950 . S
H2241 C2252 0.950 . S
H2242 C2254 0.950 . S
H2243 C2255 0.950 . S
C2244 H2236 0.950 1_655 S
C2244 C2245 1.386 . S
C2244 C2246 1.391 . S
C2245 C2244 1.386 . S
C2245 C2249 1.393 . S
C2246 H2238 0.950 . S
C2246 C2244 1.391 . S
C2246 C2247 1.400 . S
C2247 C2246 1.400 . S
C2247 C2248 1.398 . S
C2247 C2253 1.491 . S
C2248 H2239 0.950 . S
C2248 C2247 1.398 . S
C2248 C2249 1.391 . S
C2249 H2237 0.950 . S
C2249 C2245 1.393 . S
C2249 C2248 1.391 . S
C2250 H2240 0.950 . S
C2250 C2251 1.386 . S
C2250 C2252 1.391 . S
C2251 C2250 1.386 . S
C2251 C2255 1.393 . S
C2252 H2241 0.950 . S
C2252 C2250 1.391 . S
C2252 C2253 1.400 . S
C2253 C2247 1.491 . S
C2253 C2252 1.400 . S
C2253 C2254 1.398 . S
C2254 H2242 0.950 . S
C2254 C2253 1.398 . S
C2254 C2255 1.391 . S
C2255 H2243 0.950 . S
C2255 C2251 1.393 . S
C2255 C2254 1.391 . S
H2256 C2264 0.950 . S
H2257 C2269 0.950 1_554 S
H2258 C2266 0.950 . S
H2259 C2268 0.950 . S
H2260 C2270 0.950 . S
H2261 C2272 0.950 . S
H2262 C2274 0.950 . S
H2263 C2275 0.950 . S
C2264 H2256 0.950 . S
C2264 C2265 1.386 . S
C2264 C2266 1.391 . S
C2265 C2264 1.386 . S
C2265 C2269 1.393 . S
C2266 H2258 0.950 . S
C2266 C2264 1.391 . S
C2266 C2267 1.400 . S
C2267 C2266 1.400 . S
C2267 C2268 1.398 . S
C2267 C2273 1.491 . S
C2268 H2259 0.950 . S
C2268 C2267 1.398 . S
C2268 C2269 1.391 . S
C2269 H2257 0.950 1_556 S
C2269 C2265 1.393 . S
C2269 C2268 1.391 . S
C2270 H2260 0.950 . S
C2270 C2271 1.386 . S
C2270 C2272 1.391 . S
C2271 C2270 1.386 . S
C2271 C2275 1.393 . S
C2272 H2261 0.950 . S
C2272 C2270 1.391 . S
C2272 C2273 1.400 . S
C2273 C2267 1.491 . S
C2273 C2272 1.400 . S
C2273 C2274 1.398 . S
C2274 H2262 0.950 . S
C2274 C2273 1.398 . S
C2274 C2275 1.391 . S
C2275 H2263 0.950 . S
C2275 C2271 1.393 . S
C2275 C2274 1.391 . S
H2276 C2284 0.950 . S
H2277 C2289 0.950 . S
H2278 C2286 0.950 . S
H2279 C2288 0.950 . S
H2280 C2290 0.969 . S
H2281 C2292 0.950 . S
H2282 C2294 0.950 . S
H2283 C2295 0.950 1_554 S
C2284 H2276 0.950 . S
C2284 C2285 1.386 . S
C2284 C2286 1.391 . S
C2285 C2284 1.386 . S
C2285 C2289 1.393 . S
C2286 H2278 0.950 . S
C2286 C2284 1.391 . S
C2286 C2287 1.400 . S
C2287 C2286 1.400 . S
C2287 C2288 1.398 . S
C2287 C2293 1.491 . S
C2288 H2279 0.950 . S
C2288 C2287 1.398 . S
C2288 C2289 1.391 . S
C2289 H2277 0.950 . S
C2289 C2285 1.393 . S
C2289 C2288 1.391 . S
C2290 H2280 0.969 . S
C2290 C2291 1.383 1_655 S
C2290 C2292 1.374 1_655 S
C2291 C2290 1.383 1_455 S
C2291 C2295 1.393 . S
C2292 H2281 0.950 . S
C2292 C2290 1.374 1_455 S
C2292 C2293 1.400 . S
C2293 C2287 1.491 . S
C2293 C2292 1.400 . S
C2293 C2294 1.398 . S
C2294 H2282 0.950 . S
C2294 C2293 1.398 . S
C2294 C2295 1.391 . S
C2295 H2283 0.950 1_556 S
C2295 C2291 1.393 . S
C2295 C2294 1.391 . S
H2296 C2304 0.950 . S
H2297 C2309 0.950 . S
H2298 C2306 0.950 . S
H2299 C2308 0.950 . S
H2300 C2310 0.950 . S
H2301 C2312 0.950 . S
H2302 C2314 0.950 . S
H2303 C2315 0.950 . S
C2304 H2296 0.950 . S
C2304 C2305 1.386 . S
C2304 C2306 1.391 . S
C2305 C2304 1.386 . S
C2305 C2309 1.393 . S
C2306 H2298 0.950 . S
C2306 C2304 1.391 . S
C2306 C2307 1.400 . S
C2307 C2306 1.400 . S
C2307 C2308 1.398 . S
C2307 C2313 1.491 . S
C2308 H2299 0.950 . S
C2308 C2307 1.398 . S
C2308 C2309 1.391 . S
C2309 H2297 0.950 . S
C2309 C2305 1.393 . S
C2309 C2308 1.391 . S
C2310 H2300 0.950 . S
C2310 C2311 1.386 . S
C2310 C2312 1.391 . S
C2311 C2310 1.386 . S
C2311 C2315 1.393 . S
C2312 H2301 0.950 . S
C2312 C2310 1.391 . S
C2312 C2313 1.400 . S
C2313 C2307 1.491 . S
C2313 C2312 1.400 . S
C2313 C2314 1.398 . S
C2314 H2302 0.950 . S
C2314 C2313 1.398 . S
C2314 C2315 1.391 . S
C2315 H2303 0.950 . S
C2315 C2311 1.393 . S
C2315 C2314 1.391 . S
H2316 C2324 0.950 . S
H2317 C2329 0.950 . S
H2318 C2326 0.950 . S
H2319 C2328 0.950 . S
H2320 C2330 0.950 . S
H2321 C2332 0.950 . S
H2322 C2334 0.950 . S
H2323 C2335 0.950 . S
C2324 H2316 0.950 . S
C2324 C2325 1.386 1_655 S
C2324 C2326 1.391 1_655 S
C2325 C2324 1.386 1_455 S
C2325 C2329 1.393 . S
C2326 H2318 0.950 . S
C2326 C2324 1.391 1_455 S
C2326 C2327 1.400 . S
C2327 C2326 1.400 . S
C2327 C2328 1.398 . S
C2327 C2333 1.491 . S
C2328 H2319 0.950 . S
C2328 C2327 1.398 . S
C2328 C2329 1.391 . S
C2329 H2317 0.950 . S
C2329 C2325 1.393 . S
C2329 C2328 1.391 . S
C2330 H2320 0.950 . S
C2330 C2331 1.386 . S
C2330 C2332 1.391 . S
C2331 C2330 1.386 . S
C2331 C2335 1.393 . S
C2332 H2321 0.950 . S
C2332 C2330 1.391 . S
C2332 C2333 1.400 . S
C2333 C2327 1.491 . S
C2333 C2332 1.400 . S
C2333 C2334 1.398 . S
C2334 H2322 0.950 . S
C2334 C2333 1.398 . S
C2334 C2335 1.391 . S
C2335 H2323 0.950 . S
C2335 C2331 1.393 . S
C2335 C2334 1.391 . S
H2336 C2344 0.950 . S
H2337 C2349 0.950 . S
H2338 C2346 0.950 . S
H2339 C2348 0.950 . S
H2340 C2350 0.950 . S
H2341 C2352 0.950 . S
H2342 C2354 0.950 . S
H2343 C2355 0.998 1_556 S
C2344 H2336 0.950 . S
C2344 C2345 1.386 . S
C2344 C2346 1.391 . S
C2345 C2344 1.386 . S
C2345 C2349 1.393 1_565 S
C2346 H2338 0.950 . S
C2346 C2344 1.391 . S
C2346 C2347 1.400 . S
C2347 C2346 1.400 . S
C2347 C2348 1.398 1_565 S
C2347 C2353 1.491 1_565 S
C2348 H2339 0.950 . S
C2348 C2347 1.398 1_545 S
C2348 C2349 1.391 . S
C2349 H2337 0.950 . S
C2349 C2345 1.393 1_545 S
C2349 C2348 1.391 . S
C2350 H2340 0.950 . S
C2350 C2351 1.386 . S
C2350 C2352 1.391 . S
C2351 C2350 1.386 . S
C2351 C2355 1.322 1_545 S
C2352 H2341 0.950 . S
C2352 C2350 1.391 . S
C2352 C2353 1.400 . S
C2353 C2347 1.491 1_545 S
C2353 C2352 1.400 . S
C2353 C2354 1.398 1_545 S
C2354 H2342 0.950 . S
C2354 C2353 1.398 1_565 S
C2354 C2355 1.417 . S
C2355 H2343 0.998 1_554 S
C2355 C2351 1.322 1_565 S
C2355 C2354 1.417 . S
H2356 C2364 0.950 . S
H2357 C2369 0.950 . S
H2358 C2366 0.950 . S
H2359 C2368 0.950 . S
H2360 C2370 0.950 1_556 S
H2361 C2372 0.950 . S
H2362 C2374 0.950 . S
H2363 C2375 0.950 . S
C2364 H2356 0.950 . S
C2364 C2365 1.386 . S
C2364 C2366 1.391 . S
C2365 C2364 1.386 . S
C2365 C2369 1.393 . S
C2366 H2358 0.950 . S
C2366 C2364 1.391 . S
C2366 C2367 1.400 . S
C2367 C2366 1.400 . S
C2367 C2368 1.398 . S
C2367 C2373 1.491 . S
C2368 H2359 0.950 . S
C2368 C2367 1.398 . S
C2368 C2369 1.391 . S
C2369 H2357 0.950 . S
C2369 C2365 1.393 . S
C2369 C2368 1.391 . S
C2370 H2360 0.950 1_554 S
C2370 C2371 1.386 . S
C2370 C2372 1.391 . S
C2371 C2370 1.386 . S
C2371 C2375 1.393 . S
C2372 H2361 0.950 . S
C2372 C2370 1.391 . S
C2372 C2373 1.400 . S
C2373 C2367 1.491 . S
C2373 C2372 1.400 . S
C2373 C2374 1.398 . S
C2374 H2362 0.950 . S
C2374 C2373 1.398 . S
C2374 C2375 1.391 . S
C2375 H2363 0.950 . S
C2375 C2371 1.393 . S
C2375 C2374 1.391 . S
H2376 C2384 0.950 . S
H2377 C2389 0.950 . S
H2378 C2386 0.950 . S
H2379 C2388 0.950 . S
H2380 C2390 0.950 . S
H2381 C2392 0.950 . S
H2382 C2394 0.950 . S
H2383 C2395 0.950 . S
C2384 H2376 0.950 . S
C2384 C2385 1.386 . S
C2384 C2386 1.391 . S
C2385 C2384 1.386 . S
C2385 C2389 1.393 . S
C2386 H2378 0.950 . S
C2386 C2384 1.391 . S
C2386 C2387 1.400 . S
C2387 C2386 1.400 . S
C2387 C2388 1.398 . S
C2387 C2393 1.491 . S
C2388 H2379 0.950 . S
C2388 C2387 1.398 . S
C2388 C2389 1.391 . S
C2389 H2377 0.950 . S
C2389 C2385 1.393 . S
C2389 C2388 1.391 . S
C2390 H2380 0.950 . S
C2390 C2391 1.386 . S
C2390 C2392 1.391 . S
C2391 C2390 1.386 . S
C2391 C2395 1.393 . S
C2392 H2381 0.950 . S
C2392 C2390 1.391 . S
C2392 C2393 1.400 . S
C2393 C2387 1.491 . S
C2393 C2392 1.400 . S
C2393 C2394 1.398 . S
C2394 H2382 0.950 . S
C2394 C2393 1.398 . S
C2394 C2395 1.391 . S
C2395 H2383 0.950 . S
C2395 C2391 1.393 . S
C2395 C2394 1.391 . S
H2396 C2404 0.950 . S
H2397 C2409 0.950 1_565 S
H2398 C2406 0.950 . S
H2399 C2408 0.950 . S
H2400 C2410 0.950 . S
H2401 C2412 0.950 . S
H2402 C2414 0.950 . S
H2403 C2415 0.950 1_545 S
C2404 H2396 0.950 . S
C2404 C2405 1.386 . S
C2404 C2406 1.391 . S
C2405 C2404 1.386 . S
C2405 C2409 1.393 . S
C2406 H2398 0.950 . S
C2406 C2404 1.391 . S
C2406 C2407 1.400 . S
C2407 C2406 1.400 . S
C2407 C2408 1.398 1_545 S
C2407 C2413 1.491 1_545 S
C2408 H2399 0.950 . S
C2408 C2407 1.398 1_565 S
C2408 C2409 1.391 1_565 S
C2409 H2397 0.950 1_545 S
C2409 C2405 1.393 . S
C2409 C2408 1.391 1_545 S
C2410 H2400 0.950 . S
C2410 C2411 1.386 . S
C2410 C2412 1.391 . S
C2411 C2410 1.386 . S
C2411 C2415 1.393 . S
C2412 H2401 0.950 . S
C2412 C2410 1.391 . S
C2412 C2413 1.400 . S
C2413 C2407 1.491 1_565 S
C2413 C2412 1.400 . S
C2413 C2414 1.398 1_565 S
C2414 H2402 0.950 . S
C2414 C2413 1.398 1_545 S
C2414 C2415 1.391 1_545 S
C2415 H2403 0.950 1_565 S
C2415 C2411 1.393 . S
C2415 C2414 1.391 1_565 S
H2416 C2424 0.950 . S
H2417 C2429 0.950 1_554 S
H2418 C2426 0.954 . S
H2419 C2428 0.950 . S
H2420 C2430 0.950 . S
H2421 C2432 0.950 . S
H2422 C2434 0.950 . S
H2423 C2435 0.950 . S
C2424 H2416 0.950 . S
C2424 C2425 1.386 . S
C2424 C2426 1.389 1_565 S
C2425 C2424 1.386 . S
C2425 C2429 1.393 . S
C2426 H2418 0.954 . S
C2426 C2424 1.389 1_545 S
C2426 C2427 1.398 1_545 S
C2427 C2426 1.398 1_565 S
C2427 C2428 1.398 . S
C2427 C2433 1.491 1_565 S
C2428 H2419 0.950 . S
C2428 C2427 1.398 . S
C2428 C2429 1.391 . S
C2429 H2417 0.950 1_556 S
C2429 C2425 1.393 . S
C2429 C2428 1.391 . S
C2430 H2420 0.950 . S
C2430 C2431 1.386 . S
C2430 C2432 1.391 1_545 S
C2431 C2430 1.386 . S
C2431 C2435 1.393 . S
C2432 H2421 0.950 . S
C2432 C2430 1.391 1_565 S
C2432 C2433 1.400 1_565 S
C2433 C2427 1.491 1_545 S
C2433 C2432 1.400 1_545 S
C2433 C2434 1.398 . S
C2434 H2422 0.950 . S
C2434 C2433 1.398 . S
C2434 C2435 1.391 . S
C2435 H2423 0.950 . S
C2435 C2431 1.393 . S
C2435 C2434 1.391 . S
H2436 C2444 0.950 . S
H2437 C2449 0.950 . S
H2438 C2446 0.950 . S
H2439 C2448 0.950 . S
H2440 C2450 0.950 1_554 S
H2441 C2452 0.950 . S
H2442 C2454 0.950 . S
H2443 C2455 0.950 . S
C2444 H2436 0.950 . S
C2444 C2445 1.386 . S
C2444 C2446 1.391 . S
C2445 C2444 1.386 . S
C2445 C2449 1.393 . S
C2446 H2438 0.950 . S
C2446 C2444 1.391 . S
C2446 C2447 1.400 . S
C2447 C2446 1.400 . S
C2447 C2448 1.398 . S
C2447 C2453 1.491 . S
C2448 H2439 0.950 . S
C2448 C2447 1.398 . S
C2448 C2449 1.391 . S
C2449 H2437 0.950 . S
C2449 C2445 1.393 . S
C2449 C2448 1.391 . S
C2450 H2440 0.950 1_556 S
C2450 C2451 1.386 . S
C2450 C2452 1.391 . S
C2451 C2450 1.386 . S
C2451 C2455 1.393 . S
C2452 H2441 0.950 . S
C2452 C2450 1.391 . S
C2452 C2453 1.400 . S
C2453 C2447 1.491 . S
C2453 C2452 1.400 . S
C2453 C2454 1.398 . S
C2454 H2442 0.950 . S
C2454 C2453 1.398 . S
C2454 C2455 1.391 . S
C2455 H2443 0.950 . S
C2455 C2451 1.393 . S
C2455 C2454 1.391 . S
H2456 C2464 0.950 . S
H2457 C2469 0.950 . S
H2458 C2466 0.950 . S
H2459 C2468 0.950 . S
H2460 C2470 0.950 . S
H2461 C2472 0.950 . S
H2462 C2474 0.950 . S
H2463 C2475 0.950 . S
C2464 H2456 0.950 . S
C2464 C2465 1.386 . S
C2464 C2466 1.391 . S
C2465 C2464 1.386 . S
C2465 C2469 1.393 . S
C2466 H2458 0.950 . S
C2466 C2464 1.391 . S
C2466 C2467 1.400 . S
C2467 C2466 1.400 . S
C2467 C2468 1.398 . S
C2467 C2473 1.491 . S
C2468 H2459 0.950 . S
C2468 C2467 1.398 . S
C2468 C2469 1.391 . S
C2469 H2457 0.950 . S
C2469 C2465 1.393 . S
C2469 C2468 1.391 . S
C2470 H2460 0.950 . S
C2470 C2471 1.386 . S
C2470 C2472 1.391 . S
C2471 C2470 1.386 . S
C2471 C2475 1.393 . S
C2472 H2461 0.950 . S
C2472 C2470 1.391 . S
C2472 C2473 1.400 . S
C2473 C2467 1.491 . S
C2473 C2472 1.400 . S
C2473 C2474 1.398 . S
C2474 H2462 0.950 . S
C2474 C2473 1.398 . S
C2474 C2475 1.391 . S
C2475 H2463 0.950 . S
C2475 C2471 1.393 . S
C2475 C2474 1.391 . S
H2476 C2484 0.950 . S
H2477 C2489 0.950 . S
H2478 C2486 0.950 . S
H2479 C2488 0.950 . S
H2480 C2490 0.950 . S
H2481 C2492 0.950 . S
H2482 C2494 0.950 . S
H2483 C2495 0.950 . S
C2484 H2476 0.950 . S
C2484 C2485 1.386 . S
C2484 C2486 1.391 . S
C2485 C2484 1.386 . S
C2485 C2489 1.393 1_565 S
C2486 H2478 0.950 . S
C2486 C2484 1.391 . S
C2486 C2487 1.400 . S
C2487 C2486 1.400 . S
C2487 C2488 1.398 1_565 S
C2487 C2493 1.491 1_565 S
C2488 H2479 0.950 . S
C2488 C2487 1.398 1_545 S
C2488 C2489 1.391 . S
C2489 H2477 0.950 . S
C2489 C2485 1.393 1_545 S
C2489 C2488 1.391 . S
C2490 H2480 0.950 . S
C2490 C2491 1.386 . S
C2490 C2492 1.391 . S
C2491 C2490 1.386 . S
C2491 C2495 1.393 1_545 S
C2492 H2481 0.950 . S
C2492 C2490 1.391 . S
C2492 C2493 1.400 . S
C2493 C2487 1.491 1_545 S
C2493 C2492 1.400 . S
C2493 C2494 1.398 1_545 S
C2494 H2482 0.950 . S
C2494 C2493 1.398 1_565 S
C2494 C2495 1.391 . S
C2495 H2483 0.950 . S
C2495 C2491 1.393 1_565 S
C2495 C2494 1.391 . S
H2496 C2504 0.950 . S
H2497 C2509 0.950 . S
H2498 C2506 0.950 . S
H2499 C2508 0.950 . S
H2500 C2510 0.950 . S
H2501 C2512 0.950 . S
H2502 C2514 0.950 . S
H2503 C2515 0.950 . S
C2504 H2496 0.950 . S
C2504 C2505 1.386 . S
C2504 C2506 1.391 . S
C2505 C2504 1.386 . S
C2505 C2509 1.393 . S
C2506 H2498 0.950 . S
C2506 C2504 1.391 . S
C2506 C2507 1.400 . S
C2507 C2506 1.400 . S
C2507 C2508 1.398 . S
C2507 C2513 1.491 . S
C2508 H2499 0.950 . S
C2508 C2507 1.398 . S
C2508 C2509 1.391 . S
C2509 H2497 0.950 . S
C2509 C2505 1.393 . S
C2509 C2508 1.391 . S
C2510 H2500 0.950 . S
C2510 C2511 1.386 . S
C2510 C2512 1.391 . S
C2511 C2510 1.386 . S
C2511 C2515 1.393 . S
C2512 H2501 0.950 . S
C2512 C2510 1.391 . S
C2512 C2513 1.400 . S
C2513 C2507 1.491 . S
C2513 C2512 1.400 . S
C2513 C2514 1.398 . S
C2514 H2502 0.950 . S
C2514 C2513 1.398 . S
C2514 C2515 1.391 . S
C2515 H2503 0.950 . S
C2515 C2511 1.393 . S
C2515 C2514 1.391 . S
H2516 C2524 0.950 . S
H2517 C2529 0.950 . S
H2518 C2526 0.950 . S
H2519 C2528 0.950 . S
H2520 C2530 0.950 . S
H2521 C2532 0.950 . S
H2522 C2534 0.950 . S
H2523 C2535 0.950 . S
C2524 H2516 0.950 . S
C2524 C2525 1.386 . S
C2524 C2526 1.391 . S
C2525 C2524 1.386 . S
C2525 C2529 1.393 . S
C2526 H2518 0.950 . S
C2526 C2524 1.391 . S
C2526 C2527 1.400 . S
C2527 C2526 1.400 . S
C2527 C2528 1.398 . S
C2527 C2533 1.491 . S
C2528 H2519 0.950 . S
C2528 C2527 1.398 . S
C2528 C2529 1.391 . S
C2529 H2517 0.950 . S
C2529 C2525 1.393 . S
C2529 C2528 1.391 . S
C2530 H2520 0.950 . S
C2530 C2531 1.386 . S
C2530 C2532 1.391 . S
C2531 C2530 1.386 . S
C2531 C2535 1.393 . S
C2532 H2521 0.950 . S
C2532 C2530 1.391 . S
C2532 C2533 1.400 . S
C2533 C2527 1.491 . S
C2533 C2532 1.400 . S
C2533 C2534 1.398 . S
C2534 H2522 0.950 . S
C2534 C2533 1.398 . S
C2534 C2535 1.391 . S
C2535 H2523 0.950 . S
C2535 C2531 1.393 . S
C2535 C2534 1.391 . S
H2536 C2544 0.950 . S
H2537 C2549 0.950 . S
H2538 C2546 0.950 . S
H2539 C2548 0.950 . S
H2540 C2550 0.950 . S
H2541 C2552 0.950 . S
H2542 C2554 0.950 . S
H2543 C2555 0.950 . S
C2544 H2536 0.950 . S
C2544 C2545 1.386 . S
C2544 C2546 1.391 . S
C2545 C2544 1.386 . S
C2545 C2549 1.393 . S
C2546 H2538 0.950 . S
C2546 C2544 1.391 . S
C2546 C2547 1.400 . S
C2547 C2546 1.400 . S
C2547 C2548 1.398 . S
C2547 C2553 1.491 . S
C2548 H2539 0.950 . S
C2548 C2547 1.398 . S
C2548 C2549 1.391 . S
C2549 H2537 0.950 . S
C2549 C2545 1.393 . S
C2549 C2548 1.391 . S
C2550 H2540 0.950 . S
C2550 C2551 1.386 . S
C2550 C2552 1.391 . S
C2551 C2550 1.386 . S
C2551 C2555 1.393 . S
C2552 H2541 0.950 . S
C2552 C2550 1.391 . S
C2552 C2553 1.400 . S
C2553 C2547 1.491 . S
C2553 C2552 1.400 . S
C2553 C2554 1.398 . S
C2554 H2542 0.950 . S
C2554 C2553 1.398 . S
C2554 C2555 1.391 . S
C2555 H2543 0.950 . S
C2555 C2551 1.393 . S
C2555 C2554 1.391 . S
H2556 C2564 0.950 . S
H2557 C2569 0.950 . S
H2558 C2566 0.950 . S
H2559 C2568 0.950 . S
H2560 C2570 0.950 . S
H2561 C2572 0.950 . S
H2562 C2574 0.950 . S
H2563 C2575 0.950 . S
C2564 H2556 0.950 . S
C2564 C2565 1.386 . S
C2564 C2566 1.391 . S
C2565 C2564 1.386 . S
C2565 C2569 1.393 . S
C2566 H2558 0.950 . S
C2566 C2564 1.391 . S
C2566 C2567 1.400 . S
C2567 C2566 1.400 . S
C2567 C2568 1.398 . S
C2567 C2573 1.491 . S
C2568 H2559 0.950 . S
C2568 C2567 1.398 . S
C2568 C2569 1.391 . S
C2569 H2557 0.950 . S
C2569 C2565 1.393 . S
C2569 C2568 1.391 . S
C2570 H2560 0.950 . S
C2570 C2571 1.386 . S
C2570 C2572 1.391 . S
C2571 C2570 1.386 . S
C2571 C2575 1.393 . S
C2572 H2561 0.950 . S
C2572 C2570 1.391 . S
C2572 C2573 1.400 . S
C2573 C2567 1.491 . S
C2573 C2572 1.400 . S
C2573 C2574 1.398 . S
C2574 H2562 0.950 . S
C2574 C2573 1.398 . S
C2574 C2575 1.391 . S
C2575 H2563 0.950 . S
C2575 C2571 1.393 . S
C2575 C2574 1.391 . S
H2576 C2584 0.950 . S
H2577 C2589 0.950 . S
H2578 C2586 0.950 . S
H2579 C2588 0.950 . S
H2580 C2590 0.950 . S
H2581 C2592 0.950 . S
H2582 C2594 0.950 . S
H2583 C2595 0.950 . S
C2584 H2576 0.950 . S
C2584 C2585 1.386 . S
C2584 C2586 1.391 . S
C2585 C2584 1.386 . S
C2585 C2589 1.393 . S
C2586 H2578 0.950 . S
C2586 C2584 1.391 . S
C2586 C2587 1.400 . S
C2587 C2586 1.400 . S
C2587 C2588 1.398 . S
C2587 C2593 1.491 . S
C2588 H2579 0.950 . S
C2588 C2587 1.398 . S
C2588 C2589 1.391 . S
C2589 H2577 0.950 . S
C2589 C2585 1.393 . S
C2589 C2588 1.391 . S
C2590 H2580 0.950 . S
C2590 C2591 1.386 . S
C2590 C2592 1.391 . S
C2591 C2590 1.386 . S
C2591 C2595 1.393 . S
C2592 H2581 0.950 . S
C2592 C2590 1.391 . S
C2592 C2593 1.400 . S
C2593 C2587 1.491 . S
C2593 C2592 1.400 . S
C2593 C2594 1.398 . S
C2594 H2582 0.950 . S
C2594 C2593 1.398 . S
C2594 C2595 1.391 . S
C2595 H2583 0.950 . S
C2595 C2591 1.393 . S
C2595 C2594 1.391 . S
H2596 C2604 0.950 . S
H2597 C2609 0.950 . S
H2598 C2606 0.950 . S
H2599 C2608 0.950 . S
H2600 C2610 0.950 . S
H2601 C2612 0.950 . S
H2602 C2614 0.950 . S
H2603 C2615 0.950 . S
C2604 H2596 0.950 . S
C2604 C2605 1.386 . S
C2604 C2606 1.391 . S
C2605 C2604 1.386 . S
C2605 C2609 1.393 . S
C2606 H2598 0.950 . S
C2606 C2604 1.391 . S
C2606 C2607 1.400 . S
C2607 C2606 1.400 . S
C2607 C2608 1.398 . S
C2607 C2613 1.491 . S
C2608 H2599 0.950 . S
C2608 C2607 1.398 . S
C2608 C2609 1.391 . S
C2609 H2597 0.950 . S
C2609 C2605 1.393 . S
C2609 C2608 1.391 . S
C2610 H2600 0.950 . S
C2610 C2611 1.386 . S
C2610 C2612 1.391 . S
C2611 C2610 1.386 . S
C2611 C2615 1.393 . S
C2612 H2601 0.950 . S
C2612 C2610 1.391 . S
C2612 C2613 1.400 . S
C2613 C2607 1.491 . S
C2613 C2612 1.400 . S
C2613 C2614 1.398 . S
C2614 H2602 0.950 . S
C2614 C2613 1.398 . S
C2614 C2615 1.391 . S
C2615 H2603 0.950 . S
C2615 C2611 1.393 . S
C2615 C2614 1.391 . S
H2616 C2624 0.950 . S
H2617 C2629 0.950 . S
H2618 C2626 0.950 . S
H2619 C2628 0.950 . S
H2620 C2630 0.950 . S
H2621 C2632 0.950 . S
H2622 C2634 0.950 . S
H2623 C2635 0.950 . S
C2624 H2616 0.950 . S
C2624 C2625 1.386 . S
C2624 C2626 1.391 . S
C2625 C2624 1.386 . S
C2625 C2629 1.393 . S
C2626 H2618 0.950 . S
C2626 C2624 1.391 . S
C2626 C2627 1.400 . S
C2627 C2626 1.400 . S
C2627 C2628 1.398 . S
C2627 C2633 1.491 . S
C2628 H2619 0.950 . S
C2628 C2627 1.398 . S
C2628 C2629 1.391 . S
C2629 H2617 0.950 . S
C2629 C2625 1.393 . S
C2629 C2628 1.391 . S
C2630 H2620 0.950 . S
C2630 C2631 1.386 . S
C2630 C2632 1.391 . S
C2631 C2630 1.386 . S
C2631 C2635 1.393 . S
C2632 H2621 0.950 . S
C2632 C2630 1.391 . S
C2632 C2633 1.400 . S
C2633 C2627 1.491 . S
C2633 C2632 1.400 . S
C2633 C2634 1.398 . S
C2634 H2622 0.950 . S
C2634 C2633 1.398 . S
C2634 C2635 1.391 . S
C2635 H2623 0.950 . S
C2635 C2631 1.393 . S
C2635 C2634 1.391 . S
H2636 C2644 0.950 . S
H2637 C2649 0.950 . S
H2638 C2646 0.950 . S
H2639 C2648 0.950 . S
H2640 C2650 0.950 . S
H2641 C2652 0.950 . S
H2642 C2654 0.950 . S
H2643 C2655 0.950 . S
C2644 H2636 0.950 . S
C2644 C2645 1.386 . S
C2644 C2646 1.391 . S
C2645 C2644 1.386 . S
C2645 C2649 1.393 . S
C2646 H2638 0.950 . S
C2646 C2644 1.391 . S
C2646 C2647 1.400 . S
C2647 C2646 1.400 . S
C2647 C2648 1.398 . S
C2647 C2653 1.491 . S
C2648 H2639 0.950 . S
C2648 C2647 1.398 . S
C2648 C2649 1.391 . S
C2649 H2637 0.950 . S
C2649 C2645 1.393 . S
C2649 C2648 1.391 . S
C2650 H2640 0.950 . S
C2650 C2651 1.386 . S
C2650 C2652 1.391 . S
C2651 C2650 1.386 . S
C2651 C2655 1.393 . S
C2652 H2641 0.950 . S
C2652 C2650 1.391 . S
C2652 C2653 1.400 . S
C2653 C2647 1.491 . S
C2653 C2652 1.400 . S
C2653 C2654 1.398 . S
C2654 H2642 0.950 . S
C2654 C2653 1.398 . S
C2654 C2655 1.391 . S
C2655 H2643 0.950 . S
C2655 C2651 1.393 . S
C2655 C2654 1.391 . S
C1065 C21 1.541 . S
C1071 C54 1.540 . S
C1085 C120 1.540 . S
C1091 C87 1.540 . S
C1105 C186 1.539 . S
C1111 C153 1.541 . S
C1125 C252 1.539 . S
C1131 C219 1.537 . S
C1145 C318 1.540 . S
C1151 C285 1.540 . S
C1165 C384 1.537 . S
C1171 C351 1.539 . S
C1185 C417 1.538 . S
C1191 C450 1.540 . S
C1205 C516 1.540 . S
C1211 C483 1.537 . S
C1225 C549 1.537 . S
C1231 C582 1.538 . S
C1245 C615 1.541 . S
C1251 C648 1.539 . S
C1265 C714 1.540 . S
C1271 C681 1.541 . S
C1285 C747 1.540 . S
C1291 C780 1.537 . S
C1305 C813 1.537 . S
C1311 C846 1.539 . S
C1325 C879 1.538 . S
C1331 C912 1.537 . S
C1345 C945 1.537 . S
C1351 C978 1.539 . S
C1365 C1011 1.540 . S
C1371 C1044 1.537 . S
C1385 N13 0.857 . S
C1391 N640 0.852 . S
C1405 N607 0.858 . S
C1411 N46 0.854 . S
C1425 N574 0.844 . S
C1431 N79 0.852 . S
C1445 N112 0.858 . S
C1451 N541 0.854 . S
C1465 N772 0.857 . S
C1471 N145 0.857 . S
C1485 N739 0.855 . S
C1491 N178 0.858 . S
C1505 N706 0.846 . S
C1511 N211 0.838 . S
C1525 N673 0.855 . S
C1531 N244 0.858 . S
C1545 N277 0.856 . S
C1551 N904 0.849 . S
C1565 N871 0.856 . S
C1571 N310 0.849 . S
C1585 N343 0.853 . S
C1591 N838 0.844 . S
C1605 N805 0.841 . S
C1611 N376 0.850 . S
C1625 N409 0.857 . S
C1631 N1036 0.857 . S
C1645 N442 0.839 . S
C1651 N1003 0.836 . S
C1665 N970 0.842 . S
C1671 N475 0.836 . S
C1685 N508 0.853 . S
C1691 N937 0.858 . S
C1705 N134 0.829 . S
C1711 N2 0.829 . S
C1725 N959 0.799 . S
C1731 N35 0.799 . S
C1745 N464 0.802 . S
C1751 N68 0.802 . S
C1765 N101 0.825 . S
C1771 N761 0.825 . S
C1785 N167 0.793 . S
C1791 N827 0.793 . S
C1805 N200 0.786 . S
C1811 N332 0.786 . S
C1825 N629 0.799 . S
C1831 N233 0.799 . S
C1845 N266 0.800 . S
C1851 N398 0.800 . S
C1865 N695 0.831 . S
C1871 N299 0.831 . S
C1885 N1025 0.795 . S
C1891 N365 0.795 . S
C1905 N431 0.809 . S
C1911 N563 0.809 . S
C1925 N893 0.786 . S
C1931 N497 0.786 . S
C1945 N662 0.788 . S
C1951 N530 0.788 . S
C1965 N992 0.788 . S
C1971 N596 0.788 . S
C1985 N728 0.816 . S
C1991 N860 0.816 . S
C2005 N926 0.799 . S
C2011 N794 0.799 . S
C2025 C766 2.003 . S
C2031 C18 2.042 . S
C2045 C469 2.001 . S
C2051 C51 2.043 1_655 S
C2065 C964 2.002 . S
C2071 C84 2.041 . S
C2085 C117 2.040 1_655 S
C2091 C139 2.000 . S
C2105 C150 2.042 . S
C2111 C634 1.997 . S
C2125 C337 1.993 . S
C2131 C183 2.040 1_455 S
C2145 C216 2.041 . S
C2151 C832 2.001 . S
C2165 C249 2.038 1_455 S
C2171 C7 1.987 . S
C2185 C282 2.037 1_554 S
C2191 C1030 1.990 . S
C2205 C205 2.001 . S
C2211 C315 2.043 1_654 S
C2225 C348 2.043 . S
C2231 C700 2.002 . S
C2245 C381 2.038 1_655 S
C2251 C403 1.988 . S
C2265 C414 2.037 1_556 S
C2271 C898 1.989 . S
C2285 C73 2.002 . S
C2291 C447 2.043 1_456 S
C2305 C568 2.003 . S
C2311 C480 2.042 . S
C2325 C513 2.038 1_455 S
C2331 C271 1.991 . S
C2345 C238 1.988 . S
C2351 C546 2.038 1_554 S
C2365 C997 2.003 . S
C2371 C579 2.043 1_554 S
C2385 C436 1.987 . S
C2391 C612 2.037 . S
C2405 C645 2.040 . S
C2411 C667 1.998 . S
C2425 C678 2.038 1_556 S
C2431 C106 1.994 . S
C2445 C865 1.989 . S
C2451 C711 2.037 1_556 S
C2465 C744 2.039 . S
C2471 C304 1.990 . S
C2485 C777 2.038 . S
C2491 C535 1.988 . S
C2505 C502 1.996 . S
C2511 C810 2.041 . S
C2525 C843 2.041 . S
C2531 C733 1.994 . S
C2545 C876 2.042 . S
C2551 C172 1.997 . S
C2565 C931 1.987 . S
C2571 C909 2.038 . S
C2585 C942 2.037 . S
C2591 C370 1.988 . S
C2605 C975 2.038 . S
C2611 C601 1.987 . S
C2625 C40 1.995 . S
C2631 C1008 2.041 . S
C2645 C799 1.997 . S
C2651 C1041 2.042 . S
