# Generated by pormake.
# Topology reo, (8)-cn, num edge types: 1
# Building blocks:
#     Node 0, Type 0, BuildingBlock: LIZSOE_clean_sbu_0, # of connection points: 8
#     Node 1, Type 0, BuildingBlock: LIZSOE_clean_sbu_0, # of connection points: 8
#     Node 2, Type 0, BuildingBlock: LIZSOE_clean_sbu_0, # of connection points: 8
#     Edge 3, Type (0, 0), BuildingBlock: XUDNAN_clean_linker_2, # of connection points: 2
#     Edge 4, Type (0, 0), BuildingBlock: XUDNAN_clean_linker_2, # of connection points: 2
#     Edge 5, Type (0, 0), BuildingBlock: XUDNAN_clean_linker_2, # of connection points: 2
#     Edge 6, Type (0, 0), BuildingBlock: XUDNAN_clean_linker_2, # of connection points: 2
#     Edge 7, Type (0, 0), BuildingBlock: XUDNAN_clean_linker_2, # of connection points: 2
#     Edge 8, Type (0, 0), BuildingBlock: XUDNAN_clean_linker_2, # of connection points: 2
#     Edge 9, Type (0, 0), BuildingBlock: XUDNAN_clean_linker_2, # of connection points: 2
#     Edge 10, Type (0, 0), BuildingBlock: XUDNAN_clean_linker_2, # of connection points: 2
#     Edge 11, Type (0, 0), BuildingBlock: XUDNAN_clean_linker_2, # of connection points: 2
#     Edge 12, Type (0, 0), BuildingBlock: XUDNAN_clean_linker_2, # of connection points: 2
#     Edge 13, Type (0, 0), BuildingBlock: XUDNAN_clean_linker_2, # of connection points: 2
#     Edge 14, Type (0, 0), BuildingBlock: XUDNAN_clean_linker_2, # of connection points: 2
# Relax obj value: 0.295
# Max RMSD: 0.276
# Mean RMSD: 0.239
data_MOF--net-reo--node1-LIZSOE_clean_sbu_0--edge1-XUDNAN_clean_linker_2
_symmetry_space_group_name_H-M    P1
_symmetry_Int_Tables_number       1
_symmetry_cell_setting            triclinic
loop_
_symmetry_equiv_pos_as_xyz
'x, y, z'
_cell_length_a     28.362244
_cell_length_b     23.758155
_cell_length_c     19.935999
_cell_angle_alpha  90.683703
_cell_angle_beta   104.80121
_cell_angle_gamma 113.04285
loop_
_atom_site_label
_atom_site_type_symbol
_atom_site_fract_x
_atom_site_fract_y
_atom_site_fract_z
_atom_type_partial_charge
Co0 Co 0.07062 1.00164 0.46217 0.0
N1 N 0.12542 0.04046 0.42238 0.0
C2 C 0.15717 0.10116 0.43602 0.0
N3 N 0.19712 0.05869 0.38313 0.0
C4 C 0.15043 0.01548 0.38974 0.0
C5 C 0.20067 0.11239 0.41203 0.0
Co6 Co 0.92023 0.99741 0.6691 0.0
N7 N 0.85986 0.96474 0.70308 0.0
N8 N 0.79457 0.95893 0.75202 0.0
C9 C 0.78196 0.90304 0.71867 0.0
C10 C 0.82199 0.90659 0.68931 0.0
C11 C 0.84247 0.99563 0.74212 0.0
Co12 Co 0.99587 1.00076 0.5649 0.0
C13 C 0.96085 0.08232 0.64331 0.0
H14 H 0.82255 0.86953 0.65792 0.0
O15 O 0.01825 0.95974 0.49486 0.0
O16 O 0.91976 0.96552 0.50098 0.0
O17 O 0.00663 0.07901 0.51963 0.0
O18 O 0.07258 0.03714 0.62725 0.0
O19 O 0.1175 0.0383 0.54963 0.0
O20 O 0.87585 0.96364 0.57889 0.0
O21 O 0.97722 0.03788 0.6406 0.0
O22 O 0.93443 0.9247 0.68376 0.0
O23 O 0.05175 0.069 0.44874 0.0
O24 O 0.02061 0.96282 0.38321 0.0
O25 O 0.98423 0.92422 0.6121 0.0
O26 O 0.91339 0.06731 0.65051 0.0
C27 C 0.02862 0.09785 0.4712 0.0
C28 C 0.87107 0.06415 0.76431 0.0
H29 H 0.85778 0.08834 0.72107 0.0
H30 H 0.86312 0.08004 0.81059 0.0
H31 H 0.91487 0.07863 0.77583 0.0
C32 C 0.87607 0.95413 0.5164 0.0
C33 C 0.11655 0.04957 0.61162 0.0
H34 H 0.15121 0.13466 0.46619 0.0
H35 H 0.14443 0.92467 0.40791 0.0
H36 H 0.13975 0.93962 0.31813 0.0
H37 H 0.08444 0.92653 0.35342 0.0
C38 C 0.12848 0.94779 0.36551 0.0
C39 C 0.99983 0.93233 0.42991 0.0
C40 C 0.96098 0.90104 0.6588 0.0
H41 H 0.23409 0.15665 0.41915 0.0
H42 H 0.74576 0.86248 0.71486 0.0
Co43 Co 0.51134 0.1536 0.0926 0.0
N44 N 0.5231 0.22374 0.04672 0.0
C45 C 0.53013 0.22301 0.98245 0.0
N46 N 0.50022 0.29517 0.99086 0.0
C47 C 0.50635 0.26953 0.05125 0.0
C48 C 0.51588 0.26629 0.94807 0.0
Co49 Co 0.52429 0.92464 1.00561 0.0
N50 N 0.52039 0.8471 0.99829 0.0
N51 N 0.558 0.78042 1.00428 0.0
C52 C 0.50522 0.74794 0.99356 0.0
C53 C 0.48182 0.78954 0.98966 0.0
C54 C 0.56572 0.83991 1.00508 0.0
Co55 Co 0.5121 0.04227 0.07065 0.0
C56 C 0.51599 0.97834 0.93748 0.0
H57 H 0.43989 0.77858 0.98174 0.0
O58 O 0.49568 0.08741 0.14095 0.0
O59 O 0.56074 0.02101 0.15072 0.0
O60 O 0.57539 0.11286 0.0625 0.0
O61 O 0.46225 0.06014 0.98832 0.0
O62 O 0.43933 0.12285 0.04224 0.0
O63 O 0.56651 0.93974 0.09948 0.0
O64 O 0.52954 0.99646 1.0044 0.0
O65 O 0.46168 0.89458 1.03581 0.0
O66 O 0.58393 0.1841 0.14026 0.0
O67 O 0.49999 0.18173 0.16482 0.0
O68 O 0.45018 0.97226 0.08018 0.0
O69 O 0.48633 0.91978 0.91648 0.0
C70 C 0.60484 0.15971 0.107 0.0
C71 C 0.61802 0.89274 1.00946 0.0
H72 H 0.61136 0.93323 0.99008 0.0
H73 H 0.64284 0.90609 0.0647 0.0
H74 H 0.64024 0.87925 0.97853 0.0
C75 C 0.57931 0.97926 0.15206 0.0
C76 C 0.42992 0.08542 0.98996 0.0
H77 H 0.5382 0.18777 0.95885 0.0
H78 H 0.48267 0.32638 0.11161 0.0
H79 H 0.5193 0.28846 0.16174 0.0
H80 H 0.4501 0.24498 0.11193 0.0
C81 C 0.48845 0.28317 0.11213 0.0
C82 C 0.48863 0.12633 0.17981 0.0
C83 C 0.43618 0.91539 0.06536 0.0
H84 H 0.5105 0.2703 0.89284 0.0
H85 H 0.48551 0.69829 0.99046 0.0
Co86 Co 0.10909 0.44702 0.04937 0.0
N87 N 0.16909 0.43312 0.08464 0.0
C88 C 0.19293 0.42105 0.14708 0.0
N89 N 0.23811 0.41382 0.07433 0.0
C90 C 0.19775 0.42911 0.04196 0.0
C91 C 0.23559 0.4089 0.1407 0.0
Co92 Co 0.93777 0.57064 0.07849 0.0
N93 N 0.87569 0.58057 0.04484 0.0
N94 N 0.81716 0.62206 1.00497 0.0
C95 C 0.79065 0.56494 1.0195 0.0
C96 C 0.82676 0.53997 0.04473 0.0
C97 C 0.86898 0.6308 1.02149 0.0
Co98 Co 0.02311 0.5118 0.0681 0.0
C99 C 0.97474 0.5622 0.17144 0.0
H100 H 0.81875 0.49668 0.06588 0.0
O101 O 0.04803 0.46132 1.01135 0.0
O102 O 0.01501 0.55959 0.98409 0.0
O103 O 0.09525 0.57618 0.10925 0.0
O104 O 0.03135 0.4634 0.15087 0.0
O105 O 0.08356 0.41933 0.12763 0.0
O106 O 0.95835 0.59934 0.99973 0.0
O107 O 0.99797 0.5648 0.12074 0.0
O108 O 0.9005 0.49102 1.03059 0.0
O109 O 0.14595 0.52782 0.09534 0.0
O110 O 0.04838 0.46002 1.00998 0.0
O111 O 0.95286 0.44482 1.02793 0.0
O112 O 0.92284 0.53883 0.15471 0.0
C113 C 0.14055 0.57458 0.11774 0.0
C114 C 0.91428 0.68948 1.01678 0.0
H115 H 0.92239 0.68579 0.96626 0.0
H116 H 0.90497 0.73042 1.01869 0.0
H117 H 0.95156 0.69682 0.05772 0.0
C118 C 0.98778 0.592 0.965 0.0
C119 C 0.05486 0.42638 0.16438 0.0
H120 H 0.17942 0.41935 0.19336 0.0
H121 H 0.16935 0.39896 0.93176 0.0
H122 H 0.22438 0.47283 0.95699 0.0
H123 H 0.15798 0.46478 0.95715 0.0
C124 C 0.18653 0.44246 0.96766 0.0
C125 C 0.01874 0.43314 0.9498 0.0
C126 C 0.90725 0.44456 1.01251 0.0
H127 H 0.26116 0.39483 0.18061 0.0
H128 H 0.74889 0.54507 1.01826 0.0
H129 H 0.09108 0.3361 0.19585 0.0
H130 H 0.99898 0.42358 0.26196 0.0
H131 H 0.98326 0.35164 0.35149 0.0
H132 H 0.00886 0.18354 0.21056 0.0
H133 H 0.0638 0.16107 0.24003 0.0
H134 H 0.06917 0.22138 0.18489 0.0
H135 H 0.15539 0.29575 0.27703 0.0
H136 H 0.15032 0.23554 0.33242 0.0
H137 H 0.1541 0.30851 0.36575 0.0
H138 H 0.97668 0.26418 0.43419 0.0
H139 H 0.97936 0.17434 0.49549 0.0
H140 H 0.075 0.14808 0.3695 0.0
C141 C 0.06819 0.34128 0.22953 0.0
C142 C 0.04684 0.38648 0.22184 0.0
C143 C 0.01623 0.38991 0.2668 0.0
C144 C 0.00705 0.34906 0.31787 0.0
C145 C 0.02863 0.30483 0.32344 0.0
C146 C 0.05862 0.30116 0.28007 0.0
C147 C 0.07637 0.24902 0.29369 0.0
C148 C 0.05315 0.20092 0.22843 0.0
C149 C 0.13768 0.2737 0.31872 0.0
C150 C 0.0518 0.22338 0.35161 0.0
C151 C 0.02444 0.2558 0.36877 0.0
C152 C 0.9982 0.23887 0.42087 0.0
C153 C 0.99994 0.18771 0.45558 0.0
C154 C 0.02754 0.15377 0.43793 0.0
C155 C 0.05373 0.17267 0.38521 0.0
H156 H 0.85671 0.97412 0.37556 0.0
H157 H 0.77718 0.90394 0.53533 0.0
H158 H 0.69441 0.90564 0.46114 0.0
H159 H 0.79768 0.0749 0.31896 0.0
H160 H 0.78726 0.05855 0.22652 0.0
H161 H 0.84039 0.04731 0.28858 0.0
H162 H 0.80289 0.93352 0.23414 0.0
H163 H 0.75009 0.94452 0.17089 0.0
H164 H 0.73411 0.88377 0.22538 0.0
H165 H 0.62365 0.92908 0.37829 0.0
H166 H 0.56294 0.95117 0.27882 0.0
H167 H 0.68266 0.99688 0.16658 0.0
C168 C 0.82139 0.95701 0.39381 0.0
C169 C 0.82412 0.93942 0.46202 0.0
C170 C 0.77677 0.91817 0.48386 0.0
C171 C 0.72929 0.91918 0.44212 0.0
C172 C 0.72868 0.94003 0.37723 0.0
C173 C 0.77272 0.95641 0.35177 0.0
C174 C 0.7604 0.97641 0.27939 0.0
C175 C 0.79873 0.04326 0.27835 0.0
C176 C 0.76198 0.93192 0.22418 0.0
C177 C 0.70368 0.97089 0.26992 0.0
C178 C 0.68639 0.95033 0.32737 0.0
C179 C 0.63638 0.94427 0.33243 0.0
C180 C 0.60239 0.95759 0.27624 0.0
C181 C 0.61832 0.97602 0.21563 0.0
C182 C 0.66972 0.98304 0.2127 0.0
H183 H 0.9375 0.85241 0.31164 0.0
H184 H 0.04652 0.86499 0.51322 0.0
H185 H 0.05685 0.77278 0.4715 0.0
H186 H 0.87645 0.68311 0.27997 0.0
H187 H 0.87054 0.67747 0.18833 0.0
H188 H 0.86485 0.74154 0.2301 0.0
H189 H 0.94015 0.82325 0.19378 0.0
H190 H 0.94916 0.76565 0.14582 0.0
H191 H 0.0048 0.82041 0.21231 0.0
H192 H 0.05918 0.67788 0.39713 0.0
H193 H 0.04641 0.5948 0.30729 0.0
H194 H 0.94229 0.65514 0.15729 0.0
C195 C 0.96153 0.83408 0.34829 0.0
C196 C 0.98991 0.86562 0.41649 0.0
C197 C 0.0227 0.84096 0.46152 0.0
C198 C 0.0296 0.78889 0.43764 0.0
C199 C 0.00333 0.76117 0.36838 0.0
C200 C 0.96898 0.78266 0.32531 0.0
C201 C 0.94678 0.74783 0.25254 0.0
C202 C 0.88609 0.71045 0.23666 0.0
C203 C 0.96104 0.79191 0.19793 0.0
C204 C 0.97562 0.70538 0.25943 0.0
C205 C 0.00727 0.71187 0.32669 0.0
C206 C 0.03468 0.67344 0.34426 0.0
C207 C 0.02791 0.62666 0.29255 0.0
C208 C 0.99496 0.61932 0.22334 0.0
C209 C 0.96978 0.66067 0.20779 0.0
H210 H 0.44261 0.1905 0.23098 0.0
H211 H 0.45161 0.01227 0.22861 0.0
H212 H 0.3784 0.97384 0.28579 0.0
H213 H 0.40392 0.19503 0.38972 0.0
H214 H 0.35865 0.22941 0.3506 0.0
H215 H 0.41745 0.24411 0.32253 0.0
H216 H 0.35805 0.20554 0.19456 0.0
H217 H 0.29897 0.18951 0.22217 0.0
H218 H 0.30498 0.12925 0.17386 0.0
H219 H 0.30226 0.9579 0.34514 0.0
H220 H 0.22942 0.96248 0.38798 0.0
H221 H 0.26179 0.14409 0.32235 0.0
C222 C 0.43076 0.1438 0.24415 0.0
C223 C 0.45377 0.10477 0.22652 0.0
C224 C 0.43534 0.04342 0.24299 0.0
C225 C 0.39361 0.02122 0.27507 0.0
C226 C 0.37035 0.0607 0.28875 0.0
C227 C 0.3883 0.12054 0.2729 0.0
C228 C 0.35345 0.15216 0.28364 0.0
C229 C 0.38527 0.20849 0.33999 0.0
C230 C 0.32733 0.17012 0.21445 0.0
C231 C 0.31284 0.10106 0.30868 0.0
C232 C 0.32353 0.04904 0.31312 0.0
C233 C 0.29283 0.99787 0.33991 0.0
C234 C 0.25056 1.00041 0.36287 0.0
C235 C 0.23793 0.05274 0.35605 0.0
C236 C 0.26968 0.10311 0.32791 0.0
H237 H 0.89314 0.80307 0.70895 0.0
H238 H 0.05218 0.88216 0.68203 0.0
H239 H 0.07405 0.80303 0.74575 0.0
H240 H 0.92388 0.7638 0.87739 0.0
H241 H 0.86538 0.69177 0.85919 0.0
H242 H 0.8647 0.75346 0.8087 0.0
H243 H 0.83712 0.67668 0.69713 0.0
H244 H 0.8416 0.61688 0.74993 0.0
H245 H 0.87987 0.63927 0.68776 0.0
H246 H 0.08241 0.72307 0.82681 0.0
H247 H 0.07455 0.64831 0.91371 0.0
H248 H 0.90748 0.61303 0.87608 0.0
C249 C 0.93221 0.80297 0.71554 0.0
C250 C 0.97091 0.84886 0.69053 0.0
C251 C 0.02165 0.84717 0.70012 0.0
C252 C 0.03452 0.80237 0.73639 0.0
C253 C 0.99576 0.75816 0.76122 0.0
C254 C 0.94521 0.75729 0.74985 0.0
C255 C 0.91104 0.70531 0.78268 0.0
C256 C 0.89016 0.73012 0.83521 0.0
C257 C 0.86467 0.65665 0.72598 0.0
C258 C 0.95139 0.68 0.81851 0.0
C259 C 0.99988 0.71044 0.80483 0.0
C260 C 0.04429 0.69809 0.83678 0.0
C261 C 0.03948 0.65519 0.88573 0.0
C262 C 0.99064 0.62526 0.90225 0.0
C263 C 0.94564 0.6359 0.86535 0.0
H264 H 0.32452 0.06 0.97653 0.0
H265 H 0.4424 0.10625 0.86111 0.0
H266 H 0.37664 0.1142 0.75722 0.0
H267 H 0.21399 0.96172 0.83098 0.0
H268 H 0.16545 0.98319 0.85447 0.0
H269 H 0.22278 0.98539 0.9212 0.0
H270 H 0.24736 0.10002 0.96136 0.0
H271 H 0.19051 0.09834 0.89392 0.0
H272 H 0.25648 0.15484 0.899 0.0
H273 H 0.30088 0.1212 0.66875 0.0
H274 H 0.21393 0.10541 0.58969 0.0
H275 H 0.13911 0.04322 0.75572 0.0
C276 C 0.33609 0.07137 0.92902 0.0
C277 C 0.38835 0.08243 0.9263 0.0
C278 C 0.40237 0.09697 0.86366 0.0
C279 C 0.36551 0.10232 0.80485 0.0
C280 C 0.3145 0.09186 0.80925 0.0
C281 C 0.29911 0.07503 0.86892 0.0
C282 C 0.24026 0.06125 0.85716 0.0
C283 C 0.20877 0.99389 0.86649 0.0
C284 C 0.23326 0.1063 0.90577 0.0
C285 C 0.22494 0.07254 0.78131 0.0
C286 C 0.26906 0.09183 0.75585 0.0
C287 C 0.26595 0.10548 0.68779 0.0
C288 C 0.21607 0.09635 0.64326 0.0
C289 C 0.16915 0.07223 0.66591 0.0
C290 C 0.17404 0.06203 0.73679 0.0
H291 H 0.9791 0.39305 0.81095 0.0
H292 H 0.07076 0.35648 1.00135 0.0
H293 H 0.08378 0.27934 0.93389 0.0
H294 H 0.90676 0.23451 0.74721 0.0
H295 H 0.89968 0.24558 0.65647 0.0
H296 H 0.90709 0.30627 0.71832 0.0
H297 H 0.98842 0.38044 0.68049 0.0
H298 H 0.9819 0.31908 0.61987 0.0
H299 H 0.04426 0.36039 0.68601 0.0
H300 H 0.08355 0.20113 0.84479 0.0
H301 H 0.05087 0.11353 0.75256 0.0
H302 H 0.94964 0.19038 0.62208 0.0
C303 C 0.00336 0.37013 0.83813 0.0
C304 C 0.02798 0.38553 0.91114 0.0
C305 C 0.05595 0.35089 0.94518 0.0
C306 C 0.06269 0.30563 0.907 0.0
C307 C 0.03972 0.29343 0.83467 0.0
C308 C 0.00912 0.32344 0.80095 0.0
C309 C 0.98117 0.29471 0.72521 0.0
C310 C 0.92007 0.26871 0.71101 0.0
C311 C 1.00008 0.34146 0.67493 0.0
C312 C 1.00025 0.24344 0.72171 0.0
C313 C 0.03534 0.24467 0.78479 0.0
C314 C 0.0563 0.20006 0.79513 0.0
C315 C 0.03821 0.1508 0.74167 0.0
C316 C 0.99832 0.14531 0.67918 0.0
C317 C 0.98133 0.19413 0.66817 0.0
H318 H 0.52023 0.93953 0.80779 0.0
H319 H 0.61637 0.07053 0.9942 0.0
H320 H 0.69729 0.08338 0.96298 0.0
H321 H 0.60061 0.86395 0.8157 0.0
H322 H 0.59438 0.85318 0.72368 0.0
H323 H 0.54173 0.86147 0.75176 0.0
H324 H 0.54795 0.95385 0.68158 0.0
H325 H 0.59952 0.94478 0.65115 0.0
H326 H 0.61161 0.0181 0.69468 0.0
H327 H 0.76739 0.05829 0.93183 0.0
H328 H 0.8232 0.02305 0.88083 0.0
H329 H 0.68671 0.92283 0.70359 0.0
C330 C 0.55801 0.97319 0.84047 0.0
C331 C 0.5609 1.00367 0.90423 0.0
C332 C 0.61179 0.0469 0.94509 0.0
C333 C 0.65866 0.05396 0.92823 0.0
C334 C 0.65449 0.01915 0.86878 0.0
C335 C 0.6055 0.98169 0.82365 0.0
C336 C 0.61273 0.94773 0.76445 0.0
C337 C 0.58576 0.87743 0.76391 0.0
C338 C 0.59171 0.9673 0.69376 0.0
C339 C 0.67321 0.97044 0.78498 0.0
C340 C 0.69632 0.01068 0.84618 0.0
C341 C 0.7504 0.03037 0.88134 0.0
C342 C 0.78214 0.01102 0.85136 0.0
C343 C 0.76071 0.97515 0.78494 0.0
C344 C 0.70496 0.95304 0.75258 0.0
H345 H 0.34573 0.46564 0.10464 0.0
H346 H 0.20267 0.32009 0.97238 0.0
H347 H 0.25731 0.28728 0.91544 0.0
H348 H 0.42359 0.50045 0.97242 0.0
H349 H 0.48527 0.5134 1.03754 0.0
H350 H 0.4347 0.53086 0.06104 0.0
H351 H 0.43361 0.45982 0.15883 0.0
H352 H 0.48454 0.44293 0.13646 0.0
H353 H 0.42248 0.38091 0.13709 0.0
H354 H 0.32635 0.26069 0.88704 0.0
H355 H 0.40483 0.23713 0.89635 0.0
H356 H 0.50537 0.40532 1.03701 0.0
C357 C 0.32635 0.42763 0.06282 0.0
C358 C 0.27038 0.3957 0.04172 0.0
C359 C 0.24564 0.34551 0.98784 0.0
C360 C 0.27628 0.32692 0.95516 0.0
C361 C 0.33157 0.35971 0.97643 0.0
C362 C 0.35647 0.40906 1.02898 0.0
C363 C 0.41666 0.43235 0.04674 0.0
C364 C 0.44151 0.49818 1.02832 0.0
C365 C 0.44071 0.42873 0.12433 0.0
C366 C 0.42167 0.38641 0.99858 0.0
C367 C 0.37201 0.34548 0.95768 0.0
C368 C 0.36554 0.29335 0.91717 0.0
C369 C 0.41037 0.28059 0.92209 0.0
C370 C 0.46085 0.31984 0.96703 0.0
C371 C 0.46718 0.3756 1.00138 0.0
H372 H 0.2426 0.59325 0.12563 0.0
H373 H 0.1462 0.68457 0.1709 0.0
H374 H 0.22181 0.78502 0.18541 0.0
H375 H 0.38042 0.71619 0.23504 0.0
H376 H 0.4096 0.70509 0.1683 0.0
H377 H 0.35633 0.64084 0.18715 0.0
H378 H 0.3033 0.62047 0.05636 0.0
H379 H 0.35493 0.68564 1.03721 0.0
H380 H 0.28762 0.68078 1.01556 0.0
H381 H 0.29415 0.87244 0.16063 0.0
H382 H 0.36365 0.94207 0.11149 0.0
H383 H 0.41279 0.79442 0.08023 0.0
C384 C 0.2382 0.63415 0.14188 0.0
C385 C 0.18857 0.63144 0.14618 0.0
C386 C 0.18395 0.6858 0.16684 0.0
C387 C 0.22678 0.74306 0.17562 0.0
C388 C 0.27377 0.74465 0.16451 0.0
C389 C 0.28029 0.69149 0.14982 0.0
C390 C 0.3304 0.70545 0.1276 0.0
C391 C 0.37164 0.69107 0.18285 0.0
C392 C 0.31826 0.67107 0.0549 0.0
C393 C 0.34812 0.77389 0.12569 0.0
C394 C 0.31594 0.79595 0.14909 0.0
C395 C 0.3207 0.85622 0.14428 0.0
C396 C 0.35978 0.89511 0.11544 0.0
C397 C 0.39308 0.87318 0.09126 0.0
C398 C 0.38744 0.81211 0.09731 0.0
H399 H 0.63501 0.27045 0.0621 0.0
H400 H 0.68689 0.12516 0.12345 0.0
H401 H 0.76239 0.1716 0.07215 0.0
H402 H 0.66878 0.27385 0.89178 0.0
H403 H 0.68617 0.35553 0.89398 0.0
H404 H 0.63471 0.30849 0.9318 0.0
H405 H 0.68449 0.37642 0.05312 0.0
H406 H 0.73094 0.42496 1.01076 0.0
H407 H 0.75471 0.39497 0.08934 0.0
H408 H 0.83381 0.23737 1.02354 0.0
H409 H 0.90754 0.32985 1.00926 0.0
H410 H 0.80277 0.42582 0.96528 0.0
C411 C 0.66277 0.24908 0.06535 0.0
C412 C 0.65659 0.19558 0.09753 0.0
C413 C 0.69261 0.16758 0.10035 0.0
C414 C 0.73429 0.19243 0.06963 0.0
C415 C 0.73734 0.24332 1.03409 0.0
C416 C 0.70273 0.27149 1.03225 0.0
C417 C 0.71618 0.32763 0.99457 0.0
C418 C 0.67395 0.31561 0.92383 0.0
C419 C 0.72214 0.38433 1.03986 0.0
C420 C 0.76839 0.33181 0.98436 0.0
C421 C 0.77805 0.28054 1.0034 0.0
C422 C 0.82659 0.27731 1.00745 0.0
C423 C 0.86826 0.3302 0.99913 0.0
C424 C 0.8609 0.38541 0.98893 0.0
C425 C 0.80932 0.38435 0.97451 0.0
H426 H 0.72988 0.6168 0.90795 0.0
H427 H 0.85353 0.72567 0.09308 0.0
H428 H 0.79972 0.78098 0.1101 0.0
H429 H 0.68319 0.7477 0.85374 0.0
H430 H 0.61504 0.69181 0.82148 0.0
H431 H 0.66895 0.67178 0.81501 0.0
H432 H 0.63223 0.57759 0.88014 0.0
H433 H 0.58 0.5989 0.89042 0.0
H434 H 0.6258 0.58968 0.96627 0.0
H435 H 0.72537 0.80156 0.12548 0.0
H436 H 0.64182 0.81405 0.11787 0.0
H437 H 0.56693 0.69967 0.91746 0.0
C438 C 0.74649 0.65483 0.94943 0.0
C439 C 0.79576 0.66758 0.99912 0.0
C440 C 0.81625 0.71606 0.05427 0.0
C441 C 0.78575 0.74738 0.0645 0.0
C442 C 0.73544 0.73031 1.01784 0.0
C443 C 0.71669 0.68733 0.95943 0.0
C444 C 0.65956 0.67481 0.92044 0.0
C445 C 0.65651 0.69792 0.84841 0.0
C446 C 0.62224 0.60617 0.914 0.0
C447 C 0.6482 0.71388 0.96915 0.0
C448 C 0.69261 0.7452 1.02504 0.0
C449 C 0.69092 0.77951 0.0806 0.0
C450 C 0.64343 0.78557 0.07641 0.0
C451 C 0.59921 0.75872 1.01651 0.0
C452 C 0.60071 0.72062 0.96341 0.0
loop_
_geom_bond_atom_site_label_1
_geom_bond_atom_site_label_2
_geom_bond_distance
_geom_bond_site_symmetry_2
_ccdc_geom_bond_type
Co0 N1 2.034 . S
Co0 O15 2.262 1_545 S
Co0 O19 1.958 . S
Co0 O23 1.950 . S
Co0 O24 2.057 1_545 S
N1 Co0 2.034 . S
N1 C2 1.366 . S
N1 C4 1.332 . S
C2 N1 1.366 . S
C2 C5 1.377 . S
C2 H34 0.931 . S
N3 C4 1.346 . S
N3 C5 1.337 . S
C4 N1 1.332 . S
C4 N3 1.346 . S
C4 C38 1.361 . S
C5 C2 1.377 . S
C5 N3 1.337 . S
C5 H41 0.930 . S
Co6 N7 2.034 . S
Co6 O20 1.950 . S
Co6 O21 2.262 1_565 S
Co6 O22 1.958 . S
Co6 O26 2.057 1_565 S
N7 Co6 2.034 . S
N7 C10 1.366 . S
N7 C11 1.332 . S
N8 C9 1.337 . S
N8 C11 1.346 . S
C9 N8 1.337 . S
C9 C10 1.377 . S
C9 H42 0.930 . S
C10 N7 1.366 . S
C10 C9 1.377 . S
C10 H14 0.931 . S
C11 N7 1.332 . S
C11 N8 1.346 . S
C11 C28 1.361 1_565 S
Co12 O15 2.097 1_545 S
Co12 O16 2.065 1_445 S
Co12 O17 2.065 . S
Co12 O18 2.042 . S
Co12 O21 2.097 1_455 S
Co12 O25 2.042 1_445 S
C13 O21 1.253 . S
C13 O26 1.263 . S
H14 C10 0.931 . S
O15 Co0 2.262 1_565 S
O15 Co12 2.097 1_565 S
O15 C39 1.253 . S
O16 Co12 2.065 1_665 S
O16 C32 1.221 . S
O17 Co12 2.065 . S
O17 C27 1.221 . S
O18 Co12 2.042 . S
O18 C33 1.237 . S
O19 Co0 1.958 . S
O19 C33 1.278 . S
O20 Co6 1.950 . S
O20 C32 1.277 . S
O21 Co6 2.262 1_545 S
O21 Co12 2.097 1_655 S
O21 C13 1.253 . S
O22 Co6 1.958 . S
O22 C40 1.278 . S
O23 Co0 1.950 . S
O23 C27 1.277 . S
O24 Co0 2.057 1_565 S
O24 C39 1.263 . S
O25 Co12 2.042 1_665 S
O25 C40 1.237 . S
O26 Co6 2.057 1_545 S
O26 C13 1.263 . S
C27 O17 1.221 . S
C27 O23 1.277 . S
C28 C11 1.361 1_545 S
C28 H29 0.960 . S
C28 H30 0.961 . S
C28 H31 0.961 . S
H29 C28 0.960 . S
H30 C28 0.961 . S
H31 C28 0.961 . S
C32 O16 1.221 . S
C32 O20 1.277 . S
C33 O18 1.237 . S
C33 O19 1.278 . S
H34 C2 0.931 . S
H35 C38 0.961 . S
H36 C38 0.961 . S
H37 C38 0.960 . S
C38 C4 1.361 . S
C38 H35 0.961 . S
C38 H36 0.961 . S
C38 H37 0.960 . S
C39 O15 1.253 . S
C39 O24 1.263 . S
C40 O22 1.278 . S
C40 O25 1.237 . S
H41 C5 0.930 . S
H42 C9 0.930 . S
Co43 N44 2.034 1_554 S
Co43 O58 2.262 . S
Co43 O62 1.958 1_554 S
Co43 O66 1.950 . S
Co43 O67 2.057 . S
N44 Co43 2.034 1_556 S
N44 C45 1.366 . S
N44 C47 1.332 1_556 S
C45 N44 1.366 . S
C45 C48 1.377 . S
C45 H77 0.931 . S
N46 C47 1.346 . S
N46 C48 1.337 1_554 S
C47 N44 1.332 1_554 S
C47 N46 1.346 . S
C47 C81 1.361 . S
C48 C45 1.377 . S
C48 N46 1.337 1_556 S
C48 H84 0.930 . S
Co49 N50 2.034 . S
Co49 O63 1.950 . S
Co49 O64 2.262 1_554 S
Co49 O65 1.958 1_554 S
Co49 O69 2.057 1_554 S
N50 Co49 2.034 . S
N50 C53 1.366 . S
N50 C54 1.332 . S
N51 C52 1.337 . S
N51 C54 1.346 . S
C52 N51 1.337 . S
C52 C53 1.377 . S
C52 H85 0.930 . S
C53 N50 1.366 . S
C53 C52 1.377 . S
C53 H57 0.931 . S
C54 N50 1.332 . S
C54 N51 1.346 . S
C54 C71 1.361 . S
Co55 O58 2.097 . S
Co55 O59 2.065 . S
Co55 O60 2.065 . S
Co55 O61 2.042 1_554 S
Co55 O64 2.097 1_544 S
Co55 O68 2.042 1_545 S
C56 O64 1.253 . S
C56 O69 1.263 . S
H57 C53 0.931 . S
O58 Co43 2.262 . S
O58 Co55 2.097 . S
O58 C82 1.253 . S
O59 Co55 2.065 . S
O59 C75 1.221 1_545 S
O60 Co55 2.065 . S
O60 C70 1.221 . S
O61 Co55 2.042 1_556 S
O61 C76 1.237 . S
O62 Co43 1.958 1_556 S
O62 C76 1.278 . S
O63 Co49 1.950 . S
O63 C75 1.277 . S
O64 Co49 2.262 1_556 S
O64 Co55 2.097 1_566 S
O64 C56 1.253 . S
O65 Co49 1.958 1_556 S
O65 C83 1.278 1_556 S
O66 Co43 1.950 . S
O66 C70 1.277 . S
O67 Co43 2.057 . S
O67 C82 1.263 . S
O68 Co55 2.042 1_565 S
O68 C83 1.237 . S
O69 Co49 2.057 1_556 S
O69 C56 1.263 . S
C70 O60 1.221 . S
C70 O66 1.277 . S
C71 C54 1.361 . S
C71 H72 0.960 . S
C71 H73 0.961 . S
C71 H74 0.961 . S
H72 C71 0.960 . S
H73 C71 0.961 . S
H74 C71 0.961 . S
C75 O59 1.221 1_565 S
C75 O63 1.277 . S
C76 O61 1.237 . S
C76 O62 1.278 . S
H77 C45 0.931 . S
H78 C81 0.961 . S
H79 C81 0.961 . S
H80 C81 0.960 . S
C81 C47 1.361 . S
C81 H78 0.961 . S
C81 H79 0.961 . S
C81 H80 0.960 . S
C82 O58 1.253 . S
C82 O67 1.263 . S
C83 O65 1.278 1_554 S
C83 O68 1.237 . S
H84 C48 0.930 . S
H85 C52 0.930 . S
Co86 N87 2.034 . S
Co86 O101 2.262 1_554 S
Co86 O105 1.958 . S
Co86 O109 1.950 . S
Co86 O110 2.057 1_554 S
N87 Co86 2.034 . S
N87 C88 1.366 . S
N87 C90 1.332 . S
C88 N87 1.366 . S
C88 C91 1.377 . S
C88 H120 0.931 . S
N89 C90 1.346 . S
N89 C91 1.337 . S
C90 N87 1.332 . S
C90 N89 1.346 . S
C90 C124 1.361 1_554 S
C91 C88 1.377 . S
C91 N89 1.337 . S
C91 H127 0.930 . S
Co92 N93 2.034 1_554 S
Co92 O106 1.950 1_554 S
Co92 O107 2.262 . S
Co92 O108 1.958 . S
Co92 O112 2.057 . S
N93 Co92 2.034 1_556 S
N93 C96 1.366 . S
N93 C97 1.332 . S
N94 C95 1.337 . S
N94 C97 1.346 . S
C95 N94 1.337 . S
C95 C96 1.377 . S
C95 H128 0.930 . S
C96 N93 1.366 . S
C96 C95 1.377 . S
C96 H100 0.931 . S
C97 N93 1.332 . S
C97 N94 1.346 . S
C97 C114 1.361 . S
Co98 O101 2.097 1_554 S
Co98 O102 2.065 1_454 S
Co98 O103 2.065 . S
Co98 O104 2.042 . S
Co98 O107 2.097 1_455 S
Co98 O111 2.042 1_454 S
C99 O107 1.253 . S
C99 O112 1.263 . S
H100 C96 0.931 . S
O101 Co86 2.262 1_556 S
O101 Co98 2.097 1_556 S
O101 C125 1.253 . S
O102 Co98 2.065 1_656 S
O102 C118 1.221 . S
O103 Co98 2.065 . S
O103 C113 1.221 . S
O104 Co98 2.042 . S
O104 C119 1.237 . S
O105 Co86 1.958 . S
O105 C119 1.278 . S
O106 Co92 1.950 1_556 S
O106 C118 1.277 . S
O107 Co92 2.262 . S
O107 Co98 2.097 1_655 S
O107 C99 1.253 . S
O108 Co92 1.958 . S
O108 C126 1.278 1_554 S
O109 Co86 1.950 . S
O109 C113 1.277 . S
O110 Co86 2.057 1_556 S
O110 C125 1.263 . S
O111 Co98 2.042 1_656 S
O111 C126 1.237 . S
O112 Co92 2.057 . S
O112 C99 1.263 . S
C113 O103 1.221 . S
C113 O109 1.277 . S
C114 C97 1.361 . S
C114 H115 0.960 . S
C114 H116 0.961 . S
C114 H117 0.961 1_556 S
H115 C114 0.960 . S
H116 C114 0.961 . S
H117 C114 0.961 1_554 S
C118 O102 1.221 . S
C118 O106 1.277 . S
C119 O104 1.237 . S
C119 O105 1.278 . S
H120 C88 0.931 . S
H121 C124 0.961 . S
H122 C124 0.961 . S
H123 C124 0.960 . S
C124 C90 1.361 1_556 S
C124 H121 0.961 . S
C124 H122 0.961 . S
C124 H123 0.960 . S
C125 O101 1.253 . S
C125 O110 1.263 . S
C126 O108 1.278 1_556 S
C126 O111 1.237 . S
H127 C91 0.930 . S
H128 C95 0.930 . S
H129 C141 0.930 . S
H130 C143 0.930 . S
H131 C144 0.930 . S
H132 C148 0.959 . S
H133 C148 0.959 . S
H134 C148 0.961 . S
H135 C149 0.960 . S
H136 C149 0.961 . S
H137 C149 0.959 . S
H138 C152 0.929 . S
H139 C153 0.931 . S
H140 C155 0.930 . S
C141 H129 0.930 . S
C141 C142 1.399 . S
C141 C146 1.399 . S
C142 C141 1.399 . S
C142 C143 1.376 1_455 S
C143 H130 0.930 . S
C143 C142 1.376 1_655 S
C143 C144 1.388 . S
C144 H131 0.930 . S
C144 C143 1.388 . S
C144 C145 1.390 1_655 S
C145 C144 1.390 1_455 S
C145 C146 1.394 . S
C145 C151 1.465 . S
C146 C141 1.399 . S
C146 C145 1.394 . S
C146 C147 1.516 . S
C147 C146 1.516 . S
C147 C148 1.502 . S
C147 C149 1.561 . S
C147 C150 1.526 . S
C148 H132 0.959 . S
C148 H133 0.959 . S
C148 H134 0.961 . S
C148 C147 1.502 . S
C149 H135 0.960 . S
C149 H136 0.961 . S
C149 H137 0.959 . S
C149 C147 1.561 . S
C150 C147 1.526 . S
C150 C151 1.396 . S
C150 C155 1.390 . S
C151 C145 1.465 . S
C151 C150 1.396 . S
C151 C152 1.399 1_455 S
C152 H138 0.929 . S
C152 C151 1.399 1_655 S
C152 C153 1.385 . S
C153 H139 0.931 . S
C153 C152 1.385 . S
C153 C154 1.389 1_655 S
C154 C153 1.389 1_455 S
C154 C155 1.387 . S
C155 H140 0.930 . S
C155 C150 1.390 . S
C155 C154 1.387 . S
H156 C168 0.930 . S
H157 C170 0.930 . S
H158 C171 0.930 . S
H159 C175 0.959 . S
H160 C175 0.959 . S
H161 C175 0.961 . S
H162 C176 0.960 . S
H163 C176 0.961 . S
H164 C176 0.959 1_565 S
H165 C179 0.929 . S
H166 C180 0.931 . S
H167 C182 0.930 . S
C168 H156 0.930 . S
C168 C169 1.399 1_545 S
C168 C173 1.399 . S
C169 C168 1.399 1_565 S
C169 C170 1.376 . S
C170 H157 0.930 . S
C170 C169 1.376 . S
C170 C171 1.388 . S
C171 H158 0.930 . S
C171 C170 1.388 . S
C171 C172 1.390 . S
C172 C171 1.390 . S
C172 C173 1.394 1_565 S
C172 C178 1.465 . S
C173 C168 1.399 . S
C173 C172 1.394 1_545 S
C173 C174 1.516 . S
C174 C173 1.516 . S
C174 C175 1.502 . S
C174 C176 1.561 . S
C174 C177 1.526 . S
C175 H159 0.959 . S
C175 H160 0.959 . S
C175 H161 0.961 . S
C175 C174 1.502 . S
C176 H162 0.960 . S
C176 H163 0.961 . S
C176 H164 0.959 1_545 S
C176 C174 1.561 . S
C177 C174 1.526 . S
C177 C178 1.396 1_545 S
C177 C182 1.390 . S
C178 C172 1.465 . S
C178 C177 1.396 1_565 S
C178 C179 1.399 . S
C179 H165 0.929 . S
C179 C178 1.399 . S
C179 C180 1.385 . S
C180 H166 0.931 . S
C180 C179 1.385 . S
C180 C181 1.389 . S
C181 C180 1.389 . S
C181 C182 1.387 1_565 S
C182 H167 0.930 . S
C182 C177 1.390 . S
C182 C181 1.387 1_545 S
H183 C195 0.930 . S
H184 C197 0.930 . S
H185 C198 0.930 . S
H186 C202 0.959 . S
H187 C202 0.959 . S
H188 C202 0.961 . S
H189 C203 0.960 . S
H190 C203 0.961 . S
H191 C203 0.959 1_455 S
H192 C206 0.929 . S
H193 C207 0.931 . S
H194 C209 0.930 . S
C195 H183 0.930 . S
C195 C196 1.399 1_655 S
C195 C200 1.399 . S
C196 C195 1.399 1_455 S
C196 C197 1.376 . S
C197 H184 0.930 . S
C197 C196 1.376 . S
C197 C198 1.388 . S
C198 H185 0.930 . S
C198 C197 1.388 . S
C198 C199 1.390 . S
C199 C198 1.390 . S
C199 C200 1.394 1_455 S
C199 C205 1.465 . S
C200 C195 1.399 . S
C200 C199 1.394 1_655 S
C200 C201 1.516 . S
C201 C200 1.516 . S
C201 C202 1.502 . S
C201 C203 1.561 . S
C201 C204 1.526 . S
C202 H186 0.959 . S
C202 H187 0.959 . S
C202 H188 0.961 . S
C202 C201 1.502 . S
C203 H189 0.960 . S
C203 H190 0.961 . S
C203 H191 0.959 1_655 S
C203 C201 1.561 . S
C204 C201 1.526 . S
C204 C205 1.396 1_655 S
C204 C209 1.390 . S
C205 C199 1.465 . S
C205 C204 1.396 1_455 S
C205 C206 1.399 . S
C206 H192 0.929 . S
C206 C205 1.399 . S
C206 C207 1.385 . S
C207 H193 0.931 . S
C207 C206 1.385 . S
C207 C208 1.389 . S
C208 C207 1.389 . S
C208 C209 1.387 1_455 S
C209 H194 0.930 . S
C209 C204 1.390 . S
C209 C208 1.387 1_655 S
H210 C222 0.930 . S
H211 C224 0.930 . S
H212 C225 0.930 . S
H213 C229 0.959 . S
H214 C229 0.959 . S
H215 C229 0.961 . S
H216 C230 0.960 . S
H217 C230 0.961 . S
H218 C230 0.959 . S
H219 C233 0.929 . S
H220 C234 0.931 . S
H221 C236 0.930 . S
C222 H210 0.930 . S
C222 C223 1.399 . S
C222 C227 1.399 . S
C223 C222 1.399 . S
C223 C224 1.376 1_545 S
C224 H211 0.930 . S
C224 C223 1.376 1_565 S
C224 C225 1.388 . S
C225 H212 0.930 . S
C225 C224 1.388 . S
C225 C226 1.390 1_565 S
C226 C225 1.390 1_545 S
C226 C227 1.394 . S
C226 C232 1.465 . S
C227 C222 1.399 . S
C227 C226 1.394 . S
C227 C228 1.516 . S
C228 C227 1.516 . S
C228 C229 1.502 . S
C228 C230 1.561 . S
C228 C231 1.526 . S
C229 H213 0.959 . S
C229 H214 0.959 . S
C229 H215 0.961 . S
C229 C228 1.502 . S
C230 H216 0.960 . S
C230 H217 0.961 . S
C230 H218 0.959 . S
C230 C228 1.561 . S
C231 C228 1.526 . S
C231 C232 1.396 . S
C231 C236 1.390 . S
C232 C226 1.465 . S
C232 C231 1.396 . S
C232 C233 1.399 1_545 S
C233 H219 0.929 . S
C233 C232 1.399 1_565 S
C233 C234 1.385 . S
C234 H220 0.931 . S
C234 C233 1.385 . S
C234 C235 1.389 1_565 S
C235 C234 1.389 1_545 S
C235 C236 1.387 . S
C236 H221 0.930 . S
C236 C231 1.390 . S
C236 C235 1.387 . S
H237 C249 0.930 . S
H238 C251 0.930 . S
H239 C252 0.930 . S
H240 C256 0.959 . S
H241 C256 0.959 . S
H242 C256 0.961 . S
H243 C257 0.960 . S
H244 C257 0.961 . S
H245 C257 0.959 . S
H246 C260 0.929 . S
H247 C261 0.931 . S
H248 C263 0.930 . S
C249 H237 0.930 . S
C249 C250 1.399 . S
C249 C254 1.399 . S
C250 C249 1.399 . S
C250 C251 1.376 1_655 S
C251 H238 0.930 . S
C251 C250 1.376 1_455 S
C251 C252 1.388 . S
C252 H239 0.930 . S
C252 C251 1.388 . S
C252 C253 1.390 1_455 S
C253 C252 1.390 1_655 S
C253 C254 1.394 . S
C253 C259 1.459 1_655 S
C254 C249 1.399 . S
C254 C253 1.394 . S
C254 C255 1.516 . S
C255 C254 1.516 . S
C255 C256 1.502 . S
C255 C257 1.561 . S
C255 C258 1.526 . S
C256 H240 0.959 . S
C256 H241 0.959 . S
C256 H242 0.961 . S
C256 C255 1.502 . S
C257 H243 0.960 . S
C257 H244 0.961 . S
C257 H245 0.959 . S
C257 C255 1.561 . S
C258 C255 1.526 . S
C258 C259 1.381 1_655 S
C258 C263 1.390 . S
C259 C253 1.459 1_455 S
C259 C258 1.381 1_455 S
C259 C260 1.417 . S
C260 H246 0.929 . S
C260 C259 1.417 . S
C260 C261 1.385 . S
C261 H247 0.931 . S
C261 C260 1.385 . S
C261 C262 1.389 1_455 S
C262 C261 1.389 1_655 S
C262 C263 1.387 . S
C263 H248 0.930 . S
C263 C258 1.390 . S
C263 C262 1.387 . S
H264 C276 0.930 . S
H265 C278 0.930 . S
H266 C279 0.930 . S
H267 C283 0.959 . S
H268 C283 0.959 . S
H269 C283 0.961 . S
H270 C284 0.960 . S
H271 C284 0.961 . S
H272 C284 0.959 . S
H273 C287 0.929 . S
H274 C288 0.931 . S
H275 C290 0.943 . S
C276 H264 0.930 . S
C276 C277 1.399 1_565 S
C276 C281 1.399 . S
C277 C276 1.399 1_545 S
C277 C278 1.376 . S
C278 H265 0.930 . S
C278 C277 1.376 . S
C278 C279 1.388 . S
C279 H266 0.930 . S
C279 C278 1.388 . S
C279 C280 1.390 . S
C280 C279 1.390 . S
C280 C281 1.394 1_545 S
C280 C286 1.465 . S
C281 C276 1.399 . S
C281 C280 1.394 1_565 S
C281 C282 1.516 . S
C282 C281 1.516 . S
C282 C283 1.502 . S
C282 C284 1.561 . S
C282 C285 1.526 1_565 S
C283 H267 0.959 . S
C283 H268 0.959 . S
C283 H269 0.961 . S
C283 C282 1.502 . S
C284 H270 0.960 . S
C284 H271 0.961 . S
C284 H272 0.959 . S
C284 C282 1.561 . S
C285 C282 1.526 1_545 S
C285 C286 1.396 . S
C285 C290 1.396 1_545 S
C286 C280 1.465 . S
C286 C285 1.396 . S
C286 C287 1.399 . S
C287 H273 0.929 . S
C287 C286 1.399 . S
C287 C288 1.385 . S
C288 H274 0.931 . S
C288 C287 1.385 . S
C288 C289 1.389 . S
C289 C288 1.389 . S
C289 C290 1.368 1_545 S
C290 H275 0.943 . S
C290 C285 1.396 1_565 S
C290 C289 1.368 1_565 S
H291 C303 0.930 . S
H292 C305 0.930 . S
H293 C306 0.930 . S
H294 C310 0.959 . S
H295 C310 0.959 . S
H296 C310 0.961 . S
H297 C311 0.960 . S
H298 C311 0.961 . S
H299 C311 0.959 1_455 S
H300 C314 0.929 . S
H301 C315 0.931 . S
H302 C317 0.930 . S
C303 H291 0.930 . S
C303 C304 1.399 1_655 S
C303 C308 1.399 . S
C304 C303 1.399 1_455 S
C304 C305 1.376 . S
C305 H292 0.930 . S
C305 C304 1.376 . S
C305 C306 1.388 . S
C306 H293 0.930 . S
C306 C305 1.388 . S
C306 C307 1.390 . S
C307 C306 1.390 . S
C307 C308 1.394 1_455 S
C307 C313 1.465 . S
C308 C303 1.399 . S
C308 C307 1.394 1_655 S
C308 C309 1.516 . S
C309 C308 1.516 . S
C309 C310 1.502 . S
C309 C311 1.561 . S
C309 C312 1.526 . S
C310 H294 0.959 . S
C310 H295 0.959 . S
C310 H296 0.961 . S
C310 C309 1.502 . S
C311 H297 0.960 . S
C311 H298 0.961 . S
C311 H299 0.959 1_655 S
C311 C309 1.561 . S
C312 C309 1.526 . S
C312 C313 1.396 1_655 S
C312 C317 1.390 . S
C313 C307 1.465 . S
C313 C312 1.396 1_455 S
C313 C314 1.399 . S
C314 H300 0.929 . S
C314 C313 1.399 . S
C314 C315 1.385 . S
C315 H301 0.931 . S
C315 C314 1.385 . S
C315 C316 1.389 . S
C316 C315 1.389 . S
C316 C317 1.387 1_455 S
C317 H302 0.930 . S
C317 C312 1.390 . S
C317 C316 1.387 1_655 S
H318 C330 0.930 . S
H319 C332 0.930 . S
H320 C333 0.930 . S
H321 C337 0.959 1_565 S
H322 C337 0.959 . S
H323 C337 0.961 . S
H324 C338 0.960 . S
H325 C338 0.961 . S
H326 C338 0.959 . S
H327 C341 0.929 . S
H328 C342 0.931 . S
H329 C344 0.930 1_545 S
C330 H318 0.930 . S
C330 C331 1.399 1_545 S
C330 C335 1.389 1_545 S
C331 C330 1.399 1_565 S
C331 C332 1.376 . S
C332 H319 0.930 . S
C332 C331 1.376 . S
C332 C333 1.388 . S
C333 H320 0.930 . S
C333 C332 1.388 . S
C333 C334 1.390 . S
C334 C333 1.390 . S
C334 C335 1.410 . S
C334 C340 1.465 . S
C335 C330 1.389 1_565 S
C335 C334 1.410 . S
C335 C336 1.513 1_565 S
C336 C335 1.513 1_545 S
C336 C337 1.502 . S
C336 C338 1.561 . S
C336 C339 1.526 1_545 S
C337 H321 0.959 1_545 S
C337 H322 0.959 . S
C337 H323 0.961 . S
C337 C336 1.502 . S
C338 H324 0.960 . S
C338 H325 0.961 . S
C338 H326 0.959 . S
C338 C336 1.561 . S
C339 C336 1.526 1_565 S
C339 C340 1.396 . S
C339 C344 1.390 . S
C340 C334 1.465 . S
C340 C339 1.396 . S
C340 C341 1.399 . S
C341 H327 0.929 . S
C341 C340 1.399 . S
C341 C342 1.385 . S
C342 H328 0.931 . S
C342 C341 1.385 . S
C342 C343 1.389 . S
C343 C342 1.389 . S
C343 C344 1.387 . S
C344 H329 0.930 1_565 S
C344 C339 1.390 . S
C344 C343 1.387 . S
H345 C357 0.930 . S
H346 C359 0.930 . S
H347 C360 0.930 . S
H348 C364 0.957 1_556 S
H349 C364 0.959 . S
H350 C364 0.961 . S
H351 C365 0.960 . S
H352 C365 0.961 . S
H353 C365 0.959 . S
H354 C368 0.929 . S
H355 C369 0.931 . S
H356 C371 0.930 . S
C357 H345 0.930 . S
C357 C358 1.399 . S
C357 C362 1.399 . S
C358 C357 1.399 . S
C358 C359 1.376 . S
C359 H346 0.930 . S
C359 C358 1.376 . S
C359 C360 1.388 . S
C360 H347 0.930 . S
C360 C359 1.388 . S
C360 C361 1.390 . S
C361 C360 1.390 . S
C361 C362 1.394 . S
C361 C367 1.465 . S
C362 C357 1.399 . S
C362 C361 1.394 . S
C362 C363 1.516 . S
C363 C362 1.516 . S
C363 C364 1.504 . S
C363 C365 1.561 . S
C363 C366 1.526 . S
C364 H348 0.957 1_554 S
C364 H349 0.959 . S
C364 H350 0.961 . S
C364 C363 1.504 . S
C365 H351 0.960 . S
C365 H352 0.961 . S
C365 H353 0.959 . S
C365 C363 1.561 . S
C366 C363 1.526 . S
C366 C367 1.396 . S
C366 C371 1.390 . S
C367 C361 1.465 . S
C367 C366 1.396 . S
C367 C368 1.399 . S
C368 H354 0.929 . S
C368 C367 1.399 . S
C368 C369 1.385 . S
C369 H355 0.931 . S
C369 C368 1.385 . S
C369 C370 1.389 . S
C370 C369 1.389 . S
C370 C371 1.387 . S
C371 H356 0.930 . S
C371 C366 1.390 . S
C371 C370 1.387 . S
H372 C384 0.925 1_556 S
H373 C386 0.930 . S
H374 C387 0.930 . S
H375 C391 0.959 . S
H376 C391 0.959 1_556 S
H377 C391 0.961 . S
H378 C392 0.960 . S
H379 C392 0.961 . S
H380 C392 0.959 . S
H381 C395 0.929 . S
H382 C396 0.931 . S
H383 C398 0.930 . S
C384 H372 0.925 1_554 S
C384 C385 1.399 . S
C384 C389 1.399 . S
C385 C384 1.399 . S
C385 C386 1.376 . S
C386 H373 0.930 . S
C386 C385 1.376 . S
C386 C387 1.388 . S
C387 H374 0.930 . S
C387 C386 1.388 . S
C387 C388 1.390 . S
C388 C387 1.390 . S
C388 C389 1.394 . S
C388 C394 1.465 . S
C389 C384 1.399 . S
C389 C388 1.394 . S
C389 C390 1.516 1_554 S
C390 C389 1.516 1_556 S
C390 C391 1.502 1_556 S
C390 C392 1.561 . S
C390 C393 1.526 . S
C391 H375 0.959 . S
C391 H376 0.959 1_554 S
C391 H377 0.961 . S
C391 C390 1.502 1_554 S
C392 H378 0.960 . S
C392 H379 0.961 . S
C392 H380 0.959 . S
C392 C390 1.561 . S
C393 C390 1.526 . S
C393 C394 1.396 1_556 S
C393 C398 1.390 . S
C394 C388 1.465 . S
C394 C393 1.396 1_554 S
C394 C395 1.399 . S
C395 H381 0.929 . S
C395 C394 1.399 . S
C395 C396 1.385 . S
C396 H382 0.931 . S
C396 C395 1.385 . S
C396 C397 1.389 . S
C397 C396 1.389 . S
C397 C398 1.387 1_554 S
C398 H383 0.930 . S
C398 C393 1.390 . S
C398 C397 1.387 1_556 S
H399 C411 0.930 1_556 S
H400 C413 0.930 . S
H401 C414 0.930 . S
H402 C418 0.959 . S
H403 C418 0.959 . S
H404 C418 0.961 . S
H405 C419 0.960 . S
H406 C419 0.961 . S
H407 C419 0.959 . S
H408 C422 0.929 . S
H409 C423 0.931 . S
H410 C425 0.930 . S
C411 H399 0.930 1_554 S
C411 C412 1.399 . S
C411 C416 1.399 . S
C412 C411 1.399 . S
C412 C413 1.376 . S
C413 H400 0.930 . S
C413 C412 1.376 . S
C413 C414 1.388 . S
C414 H401 0.930 . S
C414 C413 1.388 . S
C414 C415 1.390 . S
C415 C414 1.390 . S
C415 C416 1.394 . S
C415 C421 1.465 . S
C416 C411 1.399 . S
C416 C415 1.394 . S
C416 C417 1.516 1_554 S
C417 C416 1.516 1_556 S
C417 C418 1.502 . S
C417 C419 1.561 1_556 S
C417 C420 1.526 . S
C418 H402 0.959 . S
C418 H403 0.959 . S
C418 H404 0.961 . S
C418 C417 1.502 . S
C419 H405 0.960 . S
C419 H406 0.961 . S
C419 H407 0.959 . S
C419 C417 1.561 1_554 S
C420 C417 1.526 . S
C420 C421 1.396 1_556 S
C420 C425 1.390 . S
C421 C415 1.465 . S
C421 C420 1.396 1_554 S
C421 C422 1.399 . S
C422 H408 0.929 . S
C422 C421 1.399 . S
C422 C423 1.385 . S
C423 H409 0.931 . S
C423 C422 1.385 . S
C423 C424 1.389 1_554 S
C424 C423 1.389 1_556 S
C424 C425 1.387 . S
C425 H410 0.930 . S
C425 C420 1.390 . S
C425 C424 1.387 . S
H426 C438 0.930 . S
H427 C440 0.930 . S
H428 C441 0.930 . S
H429 C445 0.959 . S
H430 C445 0.959 . S
H431 C445 0.961 . S
H432 C446 0.960 . S
H433 C446 0.961 . S
H434 C446 0.959 1_554 S
H435 C449 0.929 . S
H436 C450 0.931 . S
H437 C452 0.930 . S
C438 H426 0.930 . S
C438 C439 1.399 . S
C438 C443 1.399 . S
C439 C438 1.399 . S
C439 C440 1.376 1_556 S
C440 H427 0.930 . S
C440 C439 1.376 1_554 S
C440 C441 1.388 . S
C441 H428 0.930 . S
C441 C440 1.388 . S
C441 C442 1.390 . S
C442 C441 1.390 . S
C442 C443 1.394 1_554 S
C442 C448 1.465 . S
C443 C438 1.399 . S
C443 C442 1.394 1_556 S
C443 C444 1.516 . S
C444 C443 1.516 . S
C444 C445 1.502 . S
C444 C446 1.561 . S
C444 C447 1.526 . S
C445 H429 0.959 . S
C445 H430 0.959 . S
C445 H431 0.961 . S
C445 C444 1.502 . S
C446 H432 0.960 . S
C446 H433 0.961 . S
C446 H434 0.959 1_556 S
C446 C444 1.561 . S
C447 C444 1.526 . S
C447 C448 1.396 1_556 S
C447 C452 1.390 . S
C448 C442 1.465 . S
C448 C447 1.396 1_554 S
C448 C449 1.399 . S
C449 H435 0.929 . S
C449 C448 1.399 . S
C449 C450 1.385 . S
C450 H436 0.931 . S
C450 C449 1.385 . S
C450 C451 1.389 . S
C451 C450 1.389 . S
C451 C452 1.387 1_554 S
C452 H437 0.930 . S
C452 C447 1.390 . S
C452 C451 1.387 1_556 S
C142 C119 1.792 . S
C154 C27 1.872 . S
C169 C32 1.446 . S
C181 C75 1.351 . S
C196 C39 1.761 . S
C208 C99 1.825 1_455 S
C223 C82 1.129 . S
C235 N3 1.305 . S
C250 C40 1.857 . S
C262 C118 1.814 . S
C277 C76 1.097 . S
C289 C33 1.232 . S
C304 C125 1.782 . S
C316 C13 1.907 1_455 S
C331 C56 1.014 . S
C343 N8 1.210 . S
C358 N89 0.650 . S
C370 N46 0.644 . S
C385 C113 0.702 . S
C397 C83 0.648 . S
C412 C70 0.675 . S
C424 C126 0.686 . S
C439 N94 0.641 . S
C451 N51 0.582 . S
