# Generated by pormake.
# Topology pcl, (4)-cn, num edge types: 1
# Building blocks:
#     Node 0, Type 0, BuildingBlock: QUQFOY_clean_sbu_3, # of connection points: 4
#     Node 1, Type 0, BuildingBlock: QUQFOY_clean_sbu_3, # of connection points: 4
#     Node 2, Type 0, BuildingBlock: QUQFOY_clean_sbu_3, # of connection points: 4
#     Node 3, Type 0, BuildingBlock: QUQFOY_clean_sbu_3, # of connection points: 4
#     Node 4, Type 0, BuildingBlock: QUQFOY_clean_sbu_3, # of connection points: 4
#     Node 5, Type 0, BuildingBlock: QUQFOY_clean_sbu_3, # of connection points: 4
#     Node 6, Type 0, BuildingBlock: QUQFOY_clean_sbu_3, # of connection points: 4
#     Node 7, Type 0, BuildingBlock: QUQFOY_clean_sbu_3, # of connection points: 4
#     Node 8, Type 0, BuildingBlock: QUQFOY_clean_sbu_3, # of connection points: 4
#     Node 9, Type 0, BuildingBlock: QUQFOY_clean_sbu_3, # of connection points: 4
#     Node 10, Type 0, BuildingBlock: QUQFOY_clean_sbu_3, # of connection points: 4
#     Node 11, Type 0, BuildingBlock: QUQFOY_clean_sbu_3, # of connection points: 4
#     Node 12, Type 0, BuildingBlock: QUQFOY_clean_sbu_3, # of connection points: 4
#     Node 13, Type 0, BuildingBlock: QUQFOY_clean_sbu_3, # of connection points: 4
#     Node 14, Type 0, BuildingBlock: QUQFOY_clean_sbu_3, # of connection points: 4
#     Node 15, Type 0, BuildingBlock: QUQFOY_clean_sbu_3, # of connection points: 4
#     Edge 16, Type (0, 0), BuildingBlock: CIFDUS_clean_linker_0, # of connection points: 2
#     Edge 17, Type (0, 0), BuildingBlock: CIFDUS_clean_linker_0, # of connection points: 2
#     Edge 18, Type (0, 0), BuildingBlock: CIFDUS_clean_linker_0, # of connection points: 2
#     Edge 19, Type (0, 0), BuildingBlock: CIFDUS_clean_linker_0, # of connection points: 2
#     Edge 20, Type (0, 0), BuildingBlock: CIFDUS_clean_linker_0, # of connection points: 2
#     Edge 21, Type (0, 0), BuildingBlock: CIFDUS_clean_linker_0, # of connection points: 2
#     Edge 22, Type (0, 0), BuildingBlock: CIFDUS_clean_linker_0, # of connection points: 2
#     Edge 23, Type (0, 0), BuildingBlock: CIFDUS_clean_linker_0, # of connection points: 2
#     Edge 24, Type (0, 0), BuildingBlock: CIFDUS_clean_linker_0, # of connection points: 2
#     Edge 25, Type (0, 0), BuildingBlock: CIFDUS_clean_linker_0, # of connection points: 2
#     Edge 26, Type (0, 0), BuildingBlock: CIFDUS_clean_linker_0, # of connection points: 2
#     Edge 27, Type (0, 0), BuildingBlock: CIFDUS_clean_linker_0, # of connection points: 2
#     Edge 28, Type (0, 0), BuildingBlock: CIFDUS_clean_linker_0, # of connection points: 2
#     Edge 29, Type (0, 0), BuildingBlock: CIFDUS_clean_linker_0, # of connection points: 2
#     Edge 30, Type (0, 0), BuildingBlock: CIFDUS_clean_linker_0, # of connection points: 2
#     Edge 31, Type (0, 0), BuildingBlock: CIFDUS_clean_linker_0, # of connection points: 2
#     Edge 32, Type (0, 0), BuildingBlock: CIFDUS_clean_linker_0, # of connection points: 2
#     Edge 33, Type (0, 0), BuildingBlock: CIFDUS_clean_linker_0, # of connection points: 2
#     Edge 34, Type (0, 0), BuildingBlock: CIFDUS_clean_linker_0, # of connection points: 2
#     Edge 35, Type (0, 0), BuildingBlock: CIFDUS_clean_linker_0, # of connection points: 2
#     Edge 36, Type (0, 0), BuildingBlock: CIFDUS_clean_linker_0, # of connection points: 2
#     Edge 37, Type (0, 0), BuildingBlock: CIFDUS_clean_linker_0, # of connection points: 2
#     Edge 38, Type (0, 0), BuildingBlock: CIFDUS_clean_linker_0, # of connection points: 2
#     Edge 39, Type (0, 0), BuildingBlock: CIFDUS_clean_linker_0, # of connection points: 2
#     Edge 40, Type (0, 0), BuildingBlock: CIFDUS_clean_linker_0, # of connection points: 2
#     Edge 41, Type (0, 0), BuildingBlock: CIFDUS_clean_linker_0, # of connection points: 2
#     Edge 42, Type (0, 0), BuildingBlock: CIFDUS_clean_linker_0, # of connection points: 2
#     Edge 43, Type (0, 0), BuildingBlock: CIFDUS_clean_linker_0, # of connection points: 2
#     Edge 44, Type (0, 0), BuildingBlock: CIFDUS_clean_linker_0, # of connection points: 2
#     Edge 45, Type (0, 0), BuildingBlock: CIFDUS_clean_linker_0, # of connection points: 2
#     Edge 46, Type (0, 0), BuildingBlock: CIFDUS_clean_linker_0, # of connection points: 2
#     Edge 47, Type (0, 0), BuildingBlock: CIFDUS_clean_linker_0, # of connection points: 2
# Relax obj value: 0.062
# Max RMSD: 0.050
# Mean RMSD: 0.048
data_MOF--net-pcl--node1-QUQFOY_clean_sbu_3--edge1-CIFDUS_clean_linker_0
_symmetry_space_group_name_H-M    P1
_symmetry_Int_Tables_number       1
_symmetry_cell_setting            triclinic
loop_
_symmetry_equiv_pos_as_xyz
'x, y, z'
_cell_length_a     48.661577
_cell_length_b     38.561413
_cell_length_c     40.309602
_cell_angle_alpha  89.876762
_cell_angle_beta   90.066513
_cell_angle_gamma 90.464948
loop_
_atom_site_label
_atom_site_type_symbol
_atom_site_fract_x
_atom_site_fract_y
_atom_site_fract_z
_atom_type_partial_charge
C0 C 0.1311 0.41049 0.03696 0.0
O1 O 0.13052 0.42278 0.06618 0.0
Cd2 Cd 0.11955 0.38868 0.11341 0.0
O3 O 0.12946 0.37785 0.03199 0.0
Cd4 Cd 0.12859 0.32092 0.06168 0.0
C5 C 0.06329 0.3446 0.07649 0.0
O6 O 0.15022 0.34243 0.11 0.0
O7 O 0.13198 0.2922 0.11745 0.0
O8 O 0.17046 0.31187 0.03144 0.0
C9 C 0.14516 0.3177 0.12969 0.0
O10 O 0.07479 0.367 0.0953 0.0
C11 C 0.16418 0.28243 0.01958 0.0
O12 O 0.07753 0.32286 0.06006 0.0
O13 O 0.14052 0.27025 0.02695 0.0
C14 C 0.85017 0.56997 0.55179 0.0
O15 O 0.85579 0.5672 0.58244 0.0
Cd16 Cd 0.85728 0.61519 0.61946 0.0
O17 O 0.84345 0.59918 0.53929 0.0
Cd18 Cd 0.83453 0.66034 0.55649 0.0
C19 C 0.90186 0.66899 0.57471 0.0
O20 O 0.81581 0.6443 0.60864 0.0
O21 O 0.82696 0.6981 0.60641 0.0
O22 O 0.79172 0.65532 0.52622 0.0
C23 C 0.81617 0.67342 0.62285 0.0
O24 O 0.89598 0.65076 0.6002 0.0
C25 C 0.79372 0.68382 0.51066 0.0
O26 O 0.88396 0.67493 0.55228 0.0
O27 O 0.8156 0.70149 0.5153 0.0
C28 C 0.12498 0.56744 0.90852 0.0
O29 O 0.1167 0.55769 0.88011 0.0
Cd30 Cd 0.10447 0.5984 0.83734 0.0
O31 O 0.12903 0.59945 0.91462 0.0
Cd32 Cd 0.12919 0.65794 0.89035 0.0
C33 C 0.06006 0.65074 0.88371 0.0
O34 O 0.1397 0.64067 0.83515 0.0
O35 O 0.12477 0.69286 0.83921 0.0
O36 O 0.17681 0.66197 0.90592 0.0
C37 C 0.13341 0.66868 0.82073 0.0
O38 O 0.06542 0.62939 0.86051 0.0
C39 C 0.17463 0.68756 0.92538 0.0
O40 O 0.07915 0.66401 0.9016 0.0
O41 O 0.15072 0.70033 0.92889 0.0
C42 C 0.85218 0.42183 0.4138 0.0
O43 O 0.85726 0.42539 0.38309 0.0
Cd44 Cd 0.85601 0.37951 0.34394 0.0
O45 O 0.8452 0.39232 0.42571 0.0
Cd46 Cd 0.8354 0.33201 0.40555 0.0
C47 C 0.90136 0.32233 0.382 0.0
O48 O 0.81404 0.35105 0.35555 0.0
O49 O 0.8249 0.29734 0.3544 0.0
O50 O 0.79371 0.33467 0.43816 0.0
C51 C 0.81312 0.32259 0.34021 0.0
O52 O 0.89445 0.34215 0.35811 0.0
C53 C 0.7957 0.30496 0.4514 0.0
O54 O 0.88467 0.31564 0.40564 0.0
O55 O 0.81726 0.28786 0.44474 0.0
C56 C 0.82542 0.61611 0.80812 0.0
O57 O 0.8362 0.58628 0.80997 0.0
Cd58 Cd 0.85837 0.56239 0.85704 0.0
O59 O 0.82342 0.63565 0.8335 0.0
Cd60 Cd 0.83138 0.63103 0.89488 0.0
C61 C 0.89987 0.63317 0.87942 0.0
O62 O 0.82359 0.56968 0.89651 0.0
O63 O 0.83712 0.59105 0.94301 0.0
O64 O 0.7839 0.64862 0.89852 0.0
C65 C 0.82947 0.56465 0.92661 0.0
O66 O 0.89594 0.60313 0.86714 0.0
C67 C 0.78745 0.67202 0.92018 0.0
O68 O 0.8801 0.65065 0.89151 0.0
O69 O 0.81207 0.67774 0.92954 0.0
C70 C 0.12582 0.33572 0.32399 0.0
O71 O 0.1164 0.36605 0.32784 0.0
Cd72 Cd 0.09965 0.38879 0.37857 0.0
O73 O 0.12993 0.31578 0.34877 0.0
Cd74 Cd 0.12896 0.32061 0.41076 0.0
C75 C 0.05974 0.31877 0.40603 0.0
O76 O 0.13664 0.38231 0.41559 0.0
O77 O 0.12329 0.357 0.46053 0.0
O78 O 0.17752 0.30776 0.41048 0.0
C79 C 0.13106 0.38467 0.44614 0.0
O80 O 0.06271 0.34909 0.39393 0.0
C81 C 0.17638 0.28239 0.4305 0.0
O82 O 0.0804 0.30052 0.41443 0.0
O83 O 0.1526 0.27321 0.44055 0.0
C84 C 0.82736 0.33452 0.14745 0.0
O85 O 0.83402 0.36632 0.14484 0.0
Cd86 Cd 0.84989 0.39571 0.09669 0.0
O87 O 0.82655 0.31466 0.12219 0.0
Cd88 Cd 0.83112 0.32207 0.06073 0.0
C89 C 0.89937 0.33676 0.06906 0.0
O90 O 0.81633 0.38151 0.05753 0.0
O91 O 0.83481 0.36221 0.0129 0.0
O92 O 0.7853 0.29794 0.05422 0.0
C93 C 0.8234 0.38716 0.02785 0.0
O94 O 0.89158 0.36586 0.08052 0.0
C95 C 0.79183 0.27412 0.03417 0.0
O96 O 0.8818 0.31341 0.06103 0.0
O97 O 0.81725 0.27129 0.02732 0.0
C98 C 0.11906 0.6349 0.62814 0.0
O99 O 0.10375 0.60832 0.62468 0.0
Cd100 Cd 0.09127 0.58277 0.5728 0.0
O101 O 0.12901 0.65065 0.60303 0.0
Cd102 Cd 0.12678 0.64568 0.54172 0.0
C103 C 0.05709 0.65282 0.54088 0.0
O104 O 0.13146 0.58318 0.53938 0.0
O105 O 0.12186 0.60808 0.49287 0.0
O106 O 0.17568 0.65854 0.54105 0.0
C107 C 0.12784 0.58049 0.50839 0.0
O108 O 0.05687 0.62178 0.55156 0.0
C109 C 0.17435 0.68426 0.5215 0.0
O110 O 0.07955 0.66961 0.53681 0.0
O111 O 0.1505 0.69308 0.51182 0.0
C112 C 0.62532 0.89962 0.03572 0.0
O113 O 0.61649 0.90924 0.06386 0.0
Cd114 Cd 0.60389 0.87054 0.10741 0.0
O115 O 0.63017 0.8677 0.02989 0.0
Cd116 Cd 0.63125 0.8096 0.0576 0.0
C117 C 0.56166 0.81471 0.06096 0.0
O118 O 0.64183 0.83323 0.11011 0.0
O119 O 0.63252 0.77875 0.11243 0.0
O120 O 0.67793 0.80633 0.03752 0.0
C121 C 0.63908 0.80633 0.12775 0.0
O122 O 0.56572 0.83891 0.08193 0.0
C123 C 0.67525 0.77774 0.02236 0.0
O124 O 0.5816 0.79907 0.04707 0.0
O125 O 0.65158 0.7634 0.02315 0.0
C126 C 0.35345 0.07173 0.55125 0.0
O127 O 0.35666 0.06241 0.58124 0.0
Cd128 Cd 0.3591 0.10332 0.62587 0.0
O129 O 0.3487 0.10331 0.54396 0.0
Cd130 Cd 0.33979 0.16075 0.56896 0.0
C131 C 0.40691 0.16091 0.59009 0.0
O132 O 0.32099 0.13994 0.61979 0.0
O133 O 0.33276 0.19381 0.62107 0.0
O134 O 0.2965 0.15604 0.54074 0.0
C135 C 0.32245 0.16786 0.63616 0.0
O136 O 0.39917 0.13863 0.61164 0.0
C137 C 0.2972 0.18532 0.52642 0.0
O138 O 0.39016 0.1728 0.56847 0.0
O139 O 0.31879 0.20376 0.53069 0.0
C140 C 0.63042 0.06252 0.91367 0.0
O141 O 0.63008 0.05269 0.88361 0.0
Cd142 Cd 0.62007 0.09135 0.83889 0.0
O143 O 0.62859 0.0946 0.92099 0.0
Cd144 Cd 0.62699 0.15412 0.8971 0.0
C145 C 0.56224 0.13068 0.8759 0.0
O146 O 0.64899 0.13957 0.8467 0.0
O147 O 0.63003 0.18967 0.84553 0.0
O148 O 0.66897 0.16188 0.92761 0.0
C149 C 0.64325 0.16646 0.83015 0.0
O150 O 0.57467 0.11098 0.85553 0.0
C151 C 0.66242 0.18957 0.94241 0.0
O152 O 0.57576 0.15001 0.89601 0.0
O153 O 0.63836 0.20117 0.93688 0.0
C154 C 0.3561 0.91156 0.42632 0.0
O155 O 0.36349 0.92145 0.39758 0.0
Cd156 Cd 0.36524 0.88545 0.3496 0.0
O157 O 0.34778 0.88054 0.43139 0.0
Cd158 Cd 0.3383 0.82633 0.39972 0.0
C159 C 0.40584 0.81933 0.38172 0.0
O160 O 0.32317 0.85527 0.35087 0.0
O161 O 0.33088 0.80115 0.34333 0.0
O162 O 0.29379 0.8263 0.4259 0.0
C163 C 0.32291 0.82979 0.33126 0.0
O164 O 0.4014 0.84382 0.36116 0.0
C165 C 0.29438 0.79539 0.4366 0.0
O166 O 0.38725 0.80886 0.40182 0.0
O167 O 0.31624 0.77837 0.43118 0.0
C168 C 0.32423 0.11606 0.82561 0.0
O169 O 0.33138 0.08531 0.83268 0.0
Cd170 Cd 0.34879 0.06535 0.88399 0.0
O171 O 0.324 0.13985 0.84763 0.0
Cd172 Cd 0.33066 0.14426 0.9094 0.0
C173 C 0.3987 0.12997 0.8983 0.0
O174 O 0.31556 0.0865 0.9203 0.0
O175 O 0.33365 0.11144 0.96268 0.0
O176 O 0.2853 0.16925 0.91251 0.0
C177 C 0.32197 0.0848 0.95058 0.0
O178 O 0.39078 0.09928 0.89116 0.0
C179 C 0.29207 0.19528 0.92993 0.0
O180 O 0.38131 0.15338 0.90569 0.0
O181 O 0.31753 0.19909 0.9364 0.0
C182 C 0.62272 0.85949 0.31735 0.0
O183 O 0.6105 0.887 0.32606 0.0
Cd184 Cd 0.598 0.90326 0.38071 0.0
O185 O 0.63082 0.83743 0.33883 0.0
Cd186 Cd 0.63207 0.83299 0.40087 0.0
C187 C 0.56252 0.82888 0.4047 0.0
O188 O 0.63923 0.89409 0.40979 0.0
O189 O 0.63065 0.86517 0.45423 0.0
O190 O 0.68026 0.8171 0.39727 0.0
C191 C 0.63677 0.89405 0.44095 0.0
O192 O 0.56327 0.861 0.3974 0.0
C193 C 0.67837 0.79015 0.41524 0.0
O194 O 0.58433 0.81083 0.40615 0.0
O195 O 0.65445 0.78187 0.42538 0.0
C196 C 0.33993 0.84605 0.13608 0.0
O197 O 0.34771 0.87703 0.13045 0.0
Cd198 Cd 0.35772 0.90286 0.07813 0.0
O199 O 0.33547 0.82486 0.1124 0.0
Cd200 Cd 0.33465 0.82767 0.0506 0.0
C201 C 0.40317 0.84204 0.046 0.0
O202 O 0.31946 0.88706 0.0463 0.0
O203 O 0.3324 0.86412 0.00038 0.0
O204 O 0.28913 0.80246 0.05522 0.0
C205 C 0.32258 0.8901 0.01532 0.0
O206 O 0.39694 0.87241 0.05566 0.0
C207 C 0.29194 0.7802 0.0324 0.0
O208 O 0.38504 0.81794 0.04424 0.0
O209 O 0.31568 0.77795 0.01938 0.0
C210 C 0.63215 0.11832 0.64002 0.0
O211 O 0.62048 0.08973 0.63283 0.0
Cd212 Cd 0.60264 0.0744 0.58009 0.0
O213 O 0.63724 0.14113 0.6178 0.0
Cd214 Cd 0.63443 0.14604 0.55583 0.0
C215 C 0.56494 0.14853 0.56132 0.0
O216 O 0.64106 0.08534 0.54614 0.0
O217 O 0.6301 0.11412 0.50244 0.0
O218 O 0.68278 0.16187 0.55681 0.0
C219 C 0.63675 0.08531 0.51526 0.0
O220 O 0.56669 0.11679 0.5698 0.0
C221 C 0.6806 0.18944 0.53987 0.0
O222 O 0.58631 0.16678 0.55506 0.0
O223 O 0.65645 0.198 0.5311 0.0
H224 H 0.02506 0.29264 0.06361 0.0
H225 H 0.03388 0.40303 0.07891 0.0
H226 H -0.01547 0.41002 0.07579 0.0
H227 H 0.93905 0.38547 0.07197 0.0
H228 H 0.92742 0.2754 0.05849 0.0
H229 H 0.97755 0.26765 0.05734 0.0
C230 C 0.01607 0.31815 0.06597 0.0
C231 C 0.03316 0.3472 0.07193 0.0
C232 C -0.0128 0.32209 0.06468 0.0
C233 C 0.02125 0.38014 0.07491 0.0
C234 C -0.00702 0.38426 0.07303 0.0
C235 C 0.94729 0.35964 0.06875 0.0
C236 C 0.92941 0.33103 0.06573 0.0
C237 C 0.97579 0.35544 0.06854 0.0
C238 C 0.9407 0.29792 0.061 0.0
C239 C 0.96937 0.29349 0.06044 0.0
H240 H 0.93206 0.67041 0.51778 0.0
H241 H 0.93659 0.69109 0.62273 0.0
H242 H -0.01348 0.69597 0.61946 0.0
H243 H 0.02878 0.68308 0.5892 0.0
H244 H 0.02496 0.65642 0.48574 0.0
H245 H 0.97514 0.66582 0.4855 0.0
C246 C 0.94399 0.67709 0.53963 0.0
C247 C 0.93077 0.68015 0.5705 0.0
C248 C 0.9729 0.67844 0.5378 0.0
C249 C 0.9464 0.68837 0.59877 0.0
C250 C 0.97495 0.69106 0.59693 0.0
C251 C 0.0171 0.68083 0.56634 0.0
C252 C 0.03032 0.66971 0.53742 0.0
C253 C -0.01155 0.68457 0.56693 0.0
C254 C 0.01511 0.66572 0.50807 0.0
C255 C -0.01338 0.67063 0.5081 0.0
H256 H 0.93634 0.65007 0.92869 0.0
H257 H 0.92576 0.64751 0.82255 0.0
H258 H 0.97479 0.65811 0.8146 0.0
H259 H 0.0211 0.65885 0.83748 0.0
H260 H 0.03344 0.65928 0.9433 0.0
H261 H -0.01657 0.65937 0.95196 0.0
C262 C 0.94478 0.653 0.90395 0.0
C263 C 0.92764 0.64819 0.87617 0.0
C264 C 0.97332 0.65813 0.89957 0.0
C265 C 0.93869 0.65133 0.84418 0.0
C266 C 0.9667 0.65715 0.83964 0.0
C267 C 0.01282 0.65966 0.86246 0.0
C268 C 0.03079 0.65858 0.88971 0.0
C269 C -0.0157 0.65915 0.86709 0.0
C270 C 0.01993 0.6601 0.92194 0.0
C271 C -0.00865 0.65988 0.92685 0.0
H272 H 0.02646 0.30311 0.35562 0.0
H273 H 0.02964 0.30743 0.46217 0.0
H274 H 0.97926 0.30335 0.46484 0.0
H275 H 0.93437 0.30909 0.4358 0.0
H276 H 0.93269 0.30748 0.32877 0.0
H277 H -0.01782 0.29922 0.32724 0.0
C278 C 0.01608 0.30183 0.37942 0.0
C279 C 0.03148 0.30526 0.40863 0.0
C280 C -0.0127 0.30054 0.38057 0.0
C281 C 0.01804 0.30422 0.43941 0.0
C282 C -0.01074 0.30234 0.44086 0.0
C283 C 0.94479 0.30593 0.41226 0.0
C284 C 0.92995 0.30946 0.38243 0.0
C285 C 0.97361 0.30203 0.41149 0.0
C286 C 0.94372 0.30541 0.35205 0.0
C287 C 0.97205 0.30072 0.35112 0.0
H288 H 0.43489 0.78495 0.05942 0.0
H289 H 0.43682 0.8864 0.01408 0.0
H290 H 0.48663 0.8841 0.00987 0.0
H291 H 0.52977 0.85779 0.02701 0.0
H292 H 0.52955 0.75774 0.0744 0.0
H293 H 0.47917 0.7545 0.06958 0.0
C294 C 0.44625 0.80601 0.04781 0.0
C295 C 0.43227 0.83597 0.0374 0.0
C296 C 0.47523 0.80492 0.04621 0.0
C297 C 0.44718 0.86325 0.0226 0.0
C298 C 0.47568 0.86202 0.02023 0.0
C299 C 0.51867 0.83484 0.03533 0.0
C300 C 0.53306 0.80799 0.05083 0.0
C301 C 0.48994 0.83367 0.03314 0.0
C302 C 0.51872 0.77849 0.06199 0.0
C303 C 0.48995 0.77686 0.05951 0.0
H304 H 0.53343 0.16126 0.61392 0.0
H305 H 0.53455 0.16747 0.50738 0.0
H306 H 0.48474 0.17767 0.50666 0.0
H307 H 0.44002 0.17511 0.53653 0.0
H308 H 0.4402 0.16675 0.64329 0.0
H309 H 0.4902 0.16794 0.64393 0.0
C310 C 0.52281 0.16601 0.59067 0.0
C311 C 0.53737 0.16387 0.5608 0.0
C312 C 0.49431 0.17108 0.59055 0.0
C313 C 0.52362 0.16951 0.53068 0.0
C314 C 0.49514 0.17499 0.5303 0.0
C315 C 0.45107 0.17464 0.5599 0.0
C316 C 0.43645 0.17039 0.58979 0.0
C317 C 0.48008 0.17447 0.56007 0.0
C318 C 0.45101 0.16959 0.61993 0.0
C319 C 0.47962 0.17017 0.62035 0.0
H320 H 0.52501 0.17284 0.90853 0.0
H321 H 0.53042 0.08298 0.84486 0.0
H322 H 0.48111 0.07608 0.84587 0.0
H323 H 0.43653 0.09372 0.86508 0.0
H324 H 0.42821 0.18353 0.92766 0.0
H325 H 0.47835 0.19242 0.92647 0.0
C326 C 0.51534 0.15185 0.89487 0.0
C327 C 0.5317 0.12849 0.87673 0.0
C328 C 0.48639 0.14793 0.89526 0.0
C329 C 0.51867 0.10153 0.85901 0.0
C330 C 0.49031 0.0974 0.85955 0.0
C331 C 0.44555 0.1153 0.87859 0.0
C332 C 0.42863 0.13767 0.89673 0.0
C333 C 0.47404 0.12022 0.87767 0.0
C334 C 0.44077 0.16585 0.91352 0.0
C335 C 0.46945 0.17084 0.91292 0.0
H336 H 0.43837 0.8122 0.43612 0.0
H337 H 0.4366 0.79829 0.33011 0.0
H338 H 0.48648 0.7921 0.32914 0.0
H339 H 0.53067 0.80278 0.35667 0.0
H340 H 0.53309 0.82269 0.46159 0.0
H341 H 0.48319 0.81388 0.46519 0.0
C342 C 0.44891 0.80648 0.4131 0.0
C343 C 0.43401 0.80568 0.38322 0.0
C344 C 0.47781 0.8046 0.41256 0.0
C345 C 0.4478 0.79897 0.35337 0.0
C346 C 0.4763 0.79567 0.35278 0.0
C347 C 0.52029 0.80373 0.38047 0.0
C348 C 0.53528 0.81284 0.40889 0.0
C349 C 0.49159 0.80017 0.38195 0.0
C350 C 0.52182 0.81506 0.43955 0.0
C351 C 0.49329 0.81042 0.44149 0.0
H352 H 0.13196 0.27262 0.18013 0.0
H353 H 0.16429 0.37533 0.16058 0.0
H354 H 0.16261 0.38896 0.21927 0.0
H355 H 0.14809 0.37407 0.27537 0.0
H356 H 0.11752 0.27135 0.29701 0.0
H357 H 0.1226 0.25519 0.23842 0.0
C358 C 0.13898 0.29776 0.18884 0.0
C359 C 0.14777 0.32308 0.16588 0.0
C360 C 0.13809 0.30555 0.22293 0.0
C361 C 0.15713 0.35544 0.17758 0.0
C362 C 0.15614 0.36337 0.21119 0.0
C363 C 0.1428 0.34804 0.26726 0.0
C364 C 0.13211 0.32406 0.29011 0.0
C365 C 0.146 0.339 0.23391 0.0
C366 C 0.12577 0.29021 0.27965 0.0
C367 C 0.12855 0.28107 0.24619 0.0
H368 H 0.78972 0.62651 0.66031 0.0
H369 H 0.83499 0.72284 0.66684 0.0
H370 H 0.83805 0.71623 0.72727 0.0
H371 H 0.83441 0.67774 0.77668 0.0
H372 H 0.79319 0.57885 0.76721 0.0
H373 H 0.78178 0.59174 0.70959 0.0
C374 C 0.79983 0.64643 0.67501 0.0
C375 C 0.81252 0.67477 0.65918 0.0
C376 C 0.8025 0.64167 0.70922 0.0
C377 C 0.82517 0.70067 0.6785 0.0
C378 C 0.82712 0.69672 0.713 0.0
C379 C 0.82238 0.65955 0.76207 0.0
C380 C 0.81474 0.62735 0.7758 0.0
C381 C 0.81688 0.66656 0.72844 0.0
C382 C 0.7994 0.60366 0.75684 0.0
C383 C 0.79292 0.61099 0.72397 0.0
H384 H 0.16587 0.68088 0.76734 0.0
H385 H 0.08362 0.6524 0.79664 0.0
H386 H 0.07141 0.64032 0.73892 0.0
H387 H 0.08529 0.63355 0.68096 0.0
H388 H 0.16675 0.66448 0.65038 0.0
H389 H 0.17823 0.6803 0.70766 0.0
C390 C 0.14518 0.67273 0.76076 0.0
C391 C 0.12555 0.66753 0.78574 0.0
C392 C 0.13834 0.66599 0.7275 0.0
C393 C 0.09885 0.65672 0.77746 0.0
C394 C 0.09196 0.64965 0.74459 0.0
C395 C 0.10549 0.64396 0.68687 0.0
C396 C 0.12531 0.64739 0.66181 0.0
C397 C 0.11171 0.65345 0.71955 0.0
C398 C 0.15123 0.66153 0.66946 0.0
C399 C 0.15781 0.67047 0.70215 0.0
H400 H 0.79646 0.36585 0.19296 0.0
H401 H 0.84372 0.27363 0.17604 0.0
H402 H 0.84004 0.25825 0.23507 0.0
H403 H 0.82917 0.2764 0.29257 0.0
H404 H 0.78205 0.36939 0.3079 0.0
H405 H 0.77932 0.37874 0.24831 0.0
C406 C 0.80548 0.34203 0.20217 0.0
C407 C 0.82067 0.32114 0.18065 0.0
C408 C 0.80341 0.33365 0.23583 0.0
C409 C 0.83197 0.29008 0.19242 0.0
C410 C 0.83 0.28145 0.22613 0.0
C411 C 0.81771 0.29814 0.28277 0.0
C412 C 0.80629 0.32256 0.30456 0.0
C413 C 0.81661 0.30376 0.24828 0.0
C414 C 0.79138 0.35055 0.29159 0.0
C415 C 0.78986 0.356 0.25753 0.0
H416 H 0.62771 0.79809 0.28402 0.0
H417 H 0.62982 0.90924 0.27088 0.0
H418 H 0.63686 0.90216 0.21157 0.0
H419 H 0.64044 0.86513 0.16339 0.0
H420 H 0.63553 0.75391 0.17406 0.0
H421 H 0.63171 0.76022 0.23448 0.0
C422 C 0.62993 0.82065 0.26811 0.0
C423 C 0.62817 0.85413 0.28175 0.0
C424 C 0.63337 0.81642 0.23368 0.0
C425 C 0.63086 0.88321 0.26092 0.0
C426 C 0.63494 0.87922 0.22701 0.0
C427 C 0.63872 0.84215 0.17885 0.0
C428 C 0.63826 0.8091 0.16429 0.0
C429 C 0.63591 0.84602 0.21313 0.0
C430 C 0.63588 0.77966 0.18473 0.0
C431 C 0.63368 0.78328 0.21922 0.0
H432 H 0.331 0.17699 0.79181 0.0
H433 H 0.30107 0.07188 0.78164 0.0
H434 H 0.29454 0.08052 0.72233 0.0
H435 H 0.30215 0.11525 0.67283 0.0
H436 H 0.33471 0.21926 0.68108 0.0
H437 H 0.33499 0.21402 0.74167 0.0
C438 C 0.32259 0.15629 0.77662 0.0
C439 C 0.31679 0.12376 0.79093 0.0
C440 C 0.31958 0.16113 0.7422 0.0
C441 C 0.30601 0.09702 0.77106 0.0
C442 C 0.30226 0.10192 0.73716 0.0
C443 C 0.309 0.13698 0.68785 0.0
C444 C 0.31874 0.16739 0.67252 0.0
C445 C 0.30976 0.13345 0.72237 0.0
C446 C 0.32725 0.19546 0.69233 0.0
C447 C 0.32753 0.19241 0.72695 0.0
H448 H 0.65872 0.11296 0.79179 0.0
H449 H 0.63125 0.21893 0.78638 0.0
H450 H 0.62836 0.2147 0.72579 0.0
H451 H 0.62923 0.17859 0.67495 0.0
H452 H 0.65252 0.07118 0.68271 0.0
H453 H 0.66158 0.07825 0.74181 0.0
C454 C 0.65241 0.13534 0.77742 0.0
C455 C 0.645 0.16612 0.79356 0.0
C456 C 0.64984 0.1323 0.74299 0.0
C457 C 0.63693 0.19486 0.7745 0.0
C458 C 0.63519 0.19241 0.7399 0.0
C459 C 0.63669 0.157 0.68962 0.0
C460 C 0.64014 0.1244 0.67473 0.0
C461 C 0.64092 0.16095 0.72394 0.0
C462 C 0.64953 0.09642 0.69384 0.0
C463 C 0.65472 0.10044 0.72757 0.0
H464 H 0.32312 0.88688 0.18569 0.0
H465 H 0.34511 0.78133 0.16376 0.0
H466 H 0.33974 0.76577 0.22252 0.0
H467 H 0.3319 0.78377 0.28075 0.0
H468 H 0.30881 0.88964 0.30077 0.0
H469 H 0.31116 0.90333 0.24199 0.0
C470 C 0.3267 0.86043 0.19376 0.0
C471 C 0.33496 0.83541 0.17071 0.0
C472 C 0.32332 0.85175 0.2272 0.0
C473 C 0.33889 0.80106 0.18124 0.0
C474 C 0.33587 0.79221 0.21477 0.0
C475 C 0.32703 0.80967 0.27214 0.0
C476 C 0.32058 0.83575 0.29517 0.0
C477 C 0.32851 0.81753 0.23809 0.0
C478 C 0.31411 0.86914 0.28364 0.0
C479 C 0.31551 0.87708 0.25002 0.0
H480 H 0.23729 0.18258 0.93341 0.0
H481 H 0.29934 0.2582 0.96001 0.0
H482 H 0.26469 0.29263 -0.01135 0.0
H483 H 0.2175 0.29949 0.00856 0.0
H484 H 0.15589 0.22231 -0.01533 0.0
H485 H 0.18978 0.19008 0.95245 0.0
C486 C 0.2432 0.20682 0.94512 0.0
C487 C 0.27086 0.2179 0.9445 0.0
C488 C 0.22332 0.22596 0.96223 0.0
C489 C 0.27821 0.24915 0.9601 0.0
C490 C 0.25842 0.26876 0.97655 0.0
C491 C 0.21138 0.27572 -0.00384 0.0
C492 C 0.18418 0.26328 -0.00095 0.0
C493 C 0.23103 0.25713 0.97818 0.0
C494 C 0.17668 0.23237 -0.01708 0.0
C495 C 0.19605 0.21398 0.96449 0.0
H496 H 0.79303 0.73995 0.46922 0.0
H497 H 0.74208 0.65662 0.50683 0.0
H498 H 0.70217 0.68078 0.47884 0.0
H499 H 0.68085 0.72802 0.44728 0.0
H500 H 0.73178 0.81071 0.40845 0.0
H501 H 0.77243 0.78421 0.43292 0.0
C502 C 0.77326 0.72691 0.47098 0.0
C503 C 0.77054 0.69675 0.49038 0.0
C504 C 0.75027 0.7409 0.45469 0.0
C505 C 0.74479 0.67996 0.49216 0.0
C506 C 0.72187 0.6938 0.47623 0.0
C507 C 0.70089 0.74 0.44384 0.0
C508 C 0.7032 0.77144 0.42634 0.0
C509 C 0.72424 0.72462 0.45797 0.0
C510 C 0.72938 0.78651 0.42186 0.0
C511 C 0.75267 0.77145 0.43598 0.0
H512 H 0.29032 0.73508 -0.01948 0.0
H513 H 0.23893 0.78359 0.05394 0.0
H514 H 0.19798 0.75963 0.02731 0.0
H515 H 0.17641 0.72739 -0.01875 0.0
H516 H 0.22801 0.6779 0.90872 0.0
H517 H 0.269 0.6999 0.93669 0.0
C518 C 0.2702 0.73999 -0.00903 0.0
C519 C 0.26776 0.76121 0.01909 0.0
C520 C 0.24664 0.72636 0.97539 0.0
C521 C 0.24147 0.76734 0.03229 0.0
C522 C 0.21797 0.75382 0.01697 0.0
C523 C 0.19663 0.72153 0.9716 0.0
C524 C 0.19913 0.70135 0.9428 0.0
C525 C 0.22025 0.73383 -0.01187 0.0
C526 C 0.2255 0.69349 0.93082 0.0
C527 C 0.24899 0.70601 0.94682 0.0
H528 H 0.6831 0.25401 0.51231 0.0
H529 H 0.73377 0.16828 0.54272 0.0
H530 H 0.7743 0.19717 0.51981 0.0
H531 H 0.79492 0.24502 0.48758 0.0
H532 H 0.74442 0.3315 0.45865 0.0
H533 H 0.70455 0.30432 0.48473 0.0
C534 C 0.70306 0.24183 0.51417 0.0
C535 C 0.70533 0.20893 0.52891 0.0
C536 C 0.7264 0.25868 0.50109 0.0
C537 C 0.7314 0.1936 0.53144 0.0
C538 C 0.75463 0.21005 0.51824 0.0
C539 C 0.77527 0.25807 0.48733 0.0
C540 C 0.77267 0.29008 0.47093 0.0
C541 C 0.75231 0.24233 0.50249 0.0
C542 C 0.74706 0.30679 0.47104 0.0
C543 C 0.72415 0.29121 0.48586 0.0
H544 H 0.67454 0.72551 0.9769 0.0
H545 H 0.72923 0.79515 0.02911 0.0
H546 H 0.76875 0.76938 0.00169 0.0
H547 H 0.78804 0.72617 0.96365 0.0
H548 H 0.7332 0.65777 0.91013 0.0
H549 H 0.69369 0.68405 0.93701 0.0
C550 C 0.69511 0.735 -0.01774 0.0
C551 C 0.69892 0.76204 0.00513 0.0
C552 C 0.71781 0.72035 0.96607 0.0
C553 C 0.7257 0.77433 0.01158 0.0
C554 C 0.74836 0.7596 -0.00407 0.0
C555 C 0.76744 0.71717 0.95774 0.0
C556 C 0.76365 0.68998 0.935 0.0
C557 C 0.74469 0.7325 0.97321 0.0
C558 C 0.73677 0.6787 0.92752 0.0
C559 C 0.7141 0.69363 0.94297 0.0
H560 H 0.29345 0.2418 0.48545 0.0
H561 H 0.24622 0.1562 0.52539 0.0
H562 H 0.20495 0.17769 0.49842 0.0
H563 H 0.18146 0.22239 0.46576 0.0
H564 H 0.22872 0.30694 0.42401 0.0
H565 H 0.27052 0.28419 0.44906 0.0
C566 C 0.27416 0.22778 0.48804 0.0
C567 C 0.27296 0.19762 0.50762 0.0
C568 C 0.25037 0.24011 0.47216 0.0
C569 C 0.24781 0.17955 0.5105 0.0
C570 C 0.22409 0.19184 0.49514 0.0
C571 C 0.20094 0.23565 0.46194 0.0
C572 C 0.20188 0.2664 0.44324 0.0
C573 C 0.22502 0.22233 0.47626 0.0
C574 C 0.22737 0.28317 0.4383 0.0
C575 C 0.25133 0.27026 0.45273 0.0
H576 H 0.73681 0.28514 0.03326 0.0
H577 H 0.79894 0.21497 -0.00193 0.0
H578 H 0.7639 0.1817 0.9681 0.0
H579 H 0.71623 0.17422 0.94991 0.0
H580 H 0.65427 0.24594 -0.01743 0.0
H581 H 0.68875 0.27702 0.01569 0.0
C582 C 0.74266 0.26236 0.0193 0.0
C583 C 0.77046 0.25248 0.01795 0.0
C584 C 0.7225 0.24382 0.00157 0.0
C585 C 0.77772 0.22311 -0.0005 0.0
C586 C 0.7577 0.20413 -0.01767 0.0
C587 C 0.71015 0.19652 0.96443 0.0
C588 C 0.68267 0.20776 0.96377 0.0
C589 C 0.73011 0.21451 -0.01712 0.0
C590 C 0.67526 0.2368 -0.01739 0.0
C591 C 0.69497 0.25456 0.00153 0.0
H592 H 0.17854 0.74663 0.49016 0.0
H593 H 0.22691 0.66098 0.52584 0.0
H594 H 0.2685 0.68778 0.50327 0.0
H595 H 0.29103 0.73476 0.47159 0.0
H596 H 0.24269 0.82138 0.43796 0.0
H597 H 0.20142 0.79512 0.46157 0.0
C598 C 0.19821 0.73393 0.4931 0.0
C599 C 0.19959 0.70181 0.50946 0.0
C600 C 0.22212 0.74963 0.48035 0.0
C601 C 0.22527 0.68578 0.51335 0.0
C602 C 0.24909 0.70103 0.50037 0.0
C603 C 0.27148 0.74791 0.46959 0.0
C604 C 0.26996 0.77986 0.45288 0.0
C605 C 0.24774 0.73282 0.48355 0.0
C606 C 0.24449 0.79675 0.45071 0.0
C607 C 0.22081 0.78173 0.46414 0.0
H608 H 0.1217 0.49684 0.90442 0.0
H609 H 0.13839 0.58047 0.97293 0.0
H610 H 0.14331 0.53905 0.01807 0.0
H611 H 0.14064 0.47974 0.03879 0.0
H612 H 0.12394 0.39556 0.97105 0.0
H613 H 0.12159 0.43662 0.92488 0.0
C614 C 0.12653 0.50599 0.92919 0.0
C615 C 0.12943 0.54176 0.93526 0.0
C616 C 0.12934 0.482 0.95521 0.0
C617 C 0.13592 0.55313 0.96749 0.0
C618 C 0.13874 0.52946 -0.0066 0.0
C619 C 0.13664 0.47026 0.01392 0.0
C620 C 0.13224 0.43467 0.00847 0.0
C621 C 0.13515 0.49393 -0.01238 0.0
C622 C 0.12736 0.42286 0.97599 0.0
C623 C 0.12591 0.44633 0.94958 0.0
H624 H 0.85305 0.56755 0.48458 0.0
H625 H 0.84934 0.50224 0.57158 0.0
H626 H 0.84987 0.45058 0.53671 0.0
H627 H 0.85068 0.4239 0.48139 0.0
H628 H 0.85592 0.48953 0.39463 0.0
H629 H 0.85563 0.54096 0.42956 0.0
C630 C 0.85232 0.54202 0.4959 0.0
C631 C 0.85101 0.53878 0.53058 0.0
C632 C 0.85296 0.51241 0.47576 0.0
C633 C 0.8504 0.50548 0.54491 0.0
C634 C 0.85065 0.4759 0.525 0.0
C635 C 0.85181 0.44945 0.47014 0.0
C636 C 0.8532 0.45277 0.43544 0.0
C637 C 0.85184 0.47905 0.49038 0.0
C638 C 0.85487 0.48612 0.42128 0.0
C639 C 0.85463 0.51562 0.44121 0.0
H640 H 0.82932 0.40578 0.96336 0.0
H641 H 0.81722 0.44786 0.06131 0.0
H642 H 0.81909 0.50669 0.0389 0.0
H643 H 0.8244 0.54634 -0.00863 0.0
H644 H 0.8338 0.50402 0.8931 0.0
H645 H 0.8329 0.44524 0.91568 0.0
C646 C 0.82705 0.42786 -0.02026 0.0
C647 C 0.82324 0.42253 0.01388 0.0
C648 C 0.82778 0.46159 0.96666 0.0
C649 C 0.82009 0.45131 0.03486 0.0
C650 C 0.82126 0.48497 0.02211 0.0
C651 C 0.82636 0.5242 0.97501 0.0
C652 C 0.82932 0.5294 0.94074 0.0
C653 C 0.82519 0.49043 -0.01193 0.0
C654 C 0.83147 0.50058 0.91963 0.0
C655 C 0.83097 0.46698 0.9325 0.0
H656 H 0.13249 0.4481 0.41734 0.0
H657 H 0.12868 0.39713 0.51267 0.0
H658 H 0.12786 0.45347 0.54041 0.0
H659 H 0.12792 0.51706 0.53742 0.0
H660 H 0.1298 0.56786 0.44192 0.0
H661 H 0.13165 0.51156 0.4143 0.0
C662 C 0.13159 0.44932 0.4442 0.0
C663 C 0.13077 0.41857 0.46298 0.0
C664 C 0.13072 0.48169 0.45988 0.0
C665 C 0.12931 0.4205 0.49771 0.0
C666 C 0.12886 0.45267 0.51356 0.0
C667 C 0.12881 0.5158 0.51056 0.0
C668 C 0.12883 0.54653 0.4917 0.0
C669 C 0.12952 0.4834 0.49488 0.0
C670 C 0.12972 0.54454 0.45694 0.0
C671 C 0.13083 0.51239 0.44115 0.0
H672 H 0.63703 -0.00729 0.90756 0.0
H673 H 0.62661 0.07357 -0.0196 0.0
H674 H 0.62519 0.03031 0.02453 0.0
H675 H 0.62462 0.96963 0.04221 0.0
H676 H 0.63516 0.88853 0.96973 0.0
H677 H 0.63895 0.93195 0.92572 0.0
C678 C 0.63461 0.00093 0.9331 0.0
C679 C 0.63172 0.03637 0.94056 0.0
C680 C 0.63372 0.97591 0.95842 0.0
C681 C 0.6288 0.0465 0.97385 0.0
C682 C 0.62792 0.02177 -0.00085 0.0
C683 C 0.62783 0.96138 0.01681 0.0
C684 C 0.62935 0.92585 0.00927 0.0
C685 C 0.62998 0.98642 -0.00834 0.0
C686 C 0.63384 0.9157 0.97625 0.0
C687 C 0.63596 0.94051 0.95104 0.0
H688 H 0.36048 0.98147 0.42155 0.0
H689 H 0.35159 0.89849 0.49291 0.0
H690 H 0.35069 0.94073 0.53804 0.0
H691 H 0.35166 0.00134 0.55703 0.0
H692 H 0.35877 0.08398 0.48498 0.0
H693 H 0.36113 0.04162 0.44031 0.0
C694 C 0.3585 0.97254 0.44698 0.0
C695 C 0.3562 0.93687 0.45384 0.0
C696 C 0.35759 -0.0031 0.47268 0.0
C697 C 0.35337 0.92582 0.48693 0.0
C698 C 0.35286 0.94995 0.51275 0.0
C699 C 0.35383 0.01007 0.53157 0.0
C700 C 0.35506 0.04578 0.52439 0.0
C701 C 0.35484 0.98557 0.50589 0.0
C702 C 0.35766 0.05666 0.49122 0.0
C703 C 0.35907 0.03247 0.46564 0.0
H704 H 0.32387 0.95355 0.04394 0.0
H705 H 0.31548 0.90211 0.94944 0.0
H706 H 0.31295 0.95827 0.92137 0.0
H707 H 0.3149 0.02148 0.92356 0.0
H708 H 0.32662 0.07335 0.01734 0.0
H709 H 0.32603 0.01726 0.04606 0.0
C710 C 0.32124 0.95468 0.01723 0.0
C711 C 0.31975 0.92387 -0.0013 0.0
C712 C 0.32054 0.98698 0.00125 0.0
C713 C 0.31672 0.92558 0.96412 0.0
C714 C 0.31527 0.95761 0.94812 0.0
C715 C 0.31715 0.02058 0.95033 0.0
C716 C 0.32074 0.05143 0.96839 0.0
C717 C 0.31743 -0.01159 0.96641 0.0
C718 C 0.32389 0.04986 0.00297 0.0
C719 C 0.32353 0.01787 0.01934 0.0
H720 H 0.6387 0.02014 0.54005 0.0
H721 H 0.63466 0.07724 0.44797 0.0
H722 H 0.63489 0.02282 0.41687 0.0
H723 H 0.63606 0.95926 0.41603 0.0
H724 H 0.63845 0.90216 0.5082 0.0
H725 H 0.63908 0.95661 0.53925 0.0
C726 C 0.63794 0.02071 0.51316 0.0
C727 C 0.63677 0.05264 0.49628 0.0
C728 C 0.63778 -0.01058 0.49556 0.0
C729 C 0.63555 0.05297 0.46149 0.0
C730 C 0.63572 0.02189 0.44373 0.0
C731 C 0.63682 0.95871 0.44292 0.0
C732 C 0.63732 0.92677 0.45985 0.0
C733 C 0.63682 -0.00999 0.46053 0.0
C734 C 0.63804 0.92644 0.49466 0.0
C735 C 0.63841 0.95753 0.51238 0.0
loop_
_geom_bond_atom_site_label_1
_geom_bond_atom_site_label_2
_geom_bond_distance
_geom_bond_site_symmetry_2
_ccdc_geom_bond_type
C0 O1 1.306 . S
C0 O3 1.160 . S
O1 C0 1.306 . S
O1 Cd2 2.228 . S
Cd2 O1 2.228 . S
Cd2 O6 2.273 . S
Cd2 O10 2.277 . S
O3 C0 1.160 . S
O3 Cd4 2.203 . S
Cd4 O3 2.203 . S
Cd4 O6 2.411 . S
Cd4 O7 2.333 . S
Cd4 O8 2.352 . S
Cd4 O12 2.277 . S
Cd4 O13 2.356 . S
C5 O10 1.209 . S
C5 O12 1.226 . S
O6 Cd2 2.273 . S
O6 Cd4 2.411 . S
O6 C9 1.320 . S
O7 Cd4 2.333 . S
O7 C9 1.214 . S
O8 Cd4 2.352 . S
O8 C11 1.258 . S
C9 O6 1.320 . S
C9 O7 1.214 . S
O10 Cd2 2.277 . S
O10 C5 1.209 . S
C11 O8 1.258 . S
C11 O13 1.282 . S
O12 Cd4 2.277 . S
O12 C5 1.226 . S
O13 Cd4 2.356 . S
O13 C11 1.282 . S
C14 O15 1.306 . S
C14 O17 1.160 . S
O15 C14 1.306 . S
O15 Cd16 2.228 . S
Cd16 O15 2.228 . S
Cd16 O20 2.273 . S
Cd16 O24 2.277 . S
O17 C14 1.160 . S
O17 Cd18 2.203 . S
Cd18 O17 2.203 . S
Cd18 O20 2.411 . S
Cd18 O21 2.333 . S
Cd18 O22 2.352 . S
Cd18 O26 2.277 . S
Cd18 O27 2.356 . S
C19 O24 1.209 . S
C19 O26 1.226 . S
O20 Cd16 2.273 . S
O20 Cd18 2.411 . S
O20 C23 1.320 . S
O21 Cd18 2.333 . S
O21 C23 1.214 . S
O22 Cd18 2.352 . S
O22 C25 1.258 . S
C23 O20 1.320 . S
C23 O21 1.214 . S
O24 Cd16 2.277 . S
O24 C19 1.209 . S
C25 O22 1.258 . S
C25 O27 1.282 . S
O26 Cd18 2.277 . S
O26 C19 1.226 . S
O27 Cd18 2.356 . S
O27 C25 1.282 . S
C28 O29 1.306 . S
C28 O31 1.160 . S
O29 C28 1.306 . S
O29 Cd30 2.228 . S
Cd30 O29 2.228 . S
Cd30 O34 2.273 . S
Cd30 O38 2.277 . S
O31 C28 1.160 . S
O31 Cd32 2.203 . S
Cd32 O31 2.203 . S
Cd32 O34 2.411 . S
Cd32 O35 2.333 . S
Cd32 O36 2.352 . S
Cd32 O40 2.277 . S
Cd32 O41 2.356 . S
C33 O38 1.209 . S
C33 O40 1.226 . S
O34 Cd30 2.273 . S
O34 Cd32 2.411 . S
O34 C37 1.320 . S
O35 Cd32 2.333 . S
O35 C37 1.214 . S
O36 Cd32 2.352 . S
O36 C39 1.258 . S
C37 O34 1.320 . S
C37 O35 1.214 . S
O38 Cd30 2.277 . S
O38 C33 1.209 . S
C39 O36 1.258 . S
C39 O41 1.282 . S
O40 Cd32 2.277 . S
O40 C33 1.226 . S
O41 Cd32 2.356 . S
O41 C39 1.282 . S
C42 O43 1.306 . S
C42 O45 1.160 . S
O43 C42 1.306 . S
O43 Cd44 2.228 . S
Cd44 O43 2.228 . S
Cd44 O48 2.273 . S
Cd44 O52 2.277 . S
O45 C42 1.160 . S
O45 Cd46 2.203 . S
Cd46 O45 2.203 . S
Cd46 O48 2.411 . S
Cd46 O49 2.333 . S
Cd46 O50 2.352 . S
Cd46 O54 2.277 . S
Cd46 O55 2.356 . S
C47 O52 1.209 . S
C47 O54 1.226 . S
O48 Cd44 2.273 . S
O48 Cd46 2.411 . S
O48 C51 1.320 . S
O49 Cd46 2.333 . S
O49 C51 1.214 . S
O50 Cd46 2.352 . S
O50 C53 1.258 . S
C51 O48 1.320 . S
C51 O49 1.214 . S
O52 Cd44 2.277 . S
O52 C47 1.209 . S
C53 O50 1.258 . S
C53 O55 1.282 . S
O54 Cd46 2.277 . S
O54 C47 1.226 . S
O55 Cd46 2.356 . S
O55 C53 1.282 . S
C56 O57 1.306 . S
C56 O59 1.160 . S
O57 C56 1.306 . S
O57 Cd58 2.228 . S
Cd58 O57 2.228 . S
Cd58 O62 2.273 . S
Cd58 O66 2.277 . S
O59 C56 1.160 . S
O59 Cd60 2.203 . S
Cd60 O59 2.203 . S
Cd60 O62 2.411 . S
Cd60 O63 2.333 . S
Cd60 O64 2.352 . S
Cd60 O68 2.277 . S
Cd60 O69 2.356 . S
C61 O66 1.209 . S
C61 O68 1.226 . S
O62 Cd58 2.273 . S
O62 Cd60 2.411 . S
O62 C65 1.320 . S
O63 Cd60 2.333 . S
O63 C65 1.214 . S
O64 Cd60 2.352 . S
O64 C67 1.258 . S
C65 O62 1.320 . S
C65 O63 1.214 . S
O66 Cd58 2.277 . S
O66 C61 1.209 . S
C67 O64 1.258 . S
C67 O69 1.282 . S
O68 Cd60 2.277 . S
O68 C61 1.226 . S
O69 Cd60 2.356 . S
O69 C67 1.282 . S
C70 O71 1.306 . S
C70 O73 1.160 . S
O71 C70 1.306 . S
O71 Cd72 2.228 . S
Cd72 O71 2.228 . S
Cd72 O76 2.273 . S
Cd72 O80 2.277 . S
O73 C70 1.160 . S
O73 Cd74 2.203 . S
Cd74 O73 2.203 . S
Cd74 O76 2.411 . S
Cd74 O77 2.333 . S
Cd74 O78 2.352 . S
Cd74 O82 2.277 . S
Cd74 O83 2.356 . S
C75 O80 1.209 . S
C75 O82 1.226 . S
O76 Cd72 2.273 . S
O76 Cd74 2.411 . S
O76 C79 1.320 . S
O77 Cd74 2.333 . S
O77 C79 1.214 . S
O78 Cd74 2.352 . S
O78 C81 1.258 . S
C79 O76 1.320 . S
C79 O77 1.214 . S
O80 Cd72 2.277 . S
O80 C75 1.209 . S
C81 O78 1.258 . S
C81 O83 1.282 . S
O82 Cd74 2.277 . S
O82 C75 1.226 . S
O83 Cd74 2.356 . S
O83 C81 1.282 . S
C84 O85 1.306 . S
C84 O87 1.160 . S
O85 C84 1.306 . S
O85 Cd86 2.228 . S
Cd86 O85 2.228 . S
Cd86 O90 2.273 . S
Cd86 O94 2.277 . S
O87 C84 1.160 . S
O87 Cd88 2.203 . S
Cd88 O87 2.203 . S
Cd88 O90 2.411 . S
Cd88 O91 2.333 . S
Cd88 O92 2.352 . S
Cd88 O96 2.277 . S
Cd88 O97 2.356 . S
C89 O94 1.209 . S
C89 O96 1.226 . S
O90 Cd86 2.273 . S
O90 Cd88 2.411 . S
O90 C93 1.320 . S
O91 Cd88 2.333 . S
O91 C93 1.214 . S
O92 Cd88 2.352 . S
O92 C95 1.258 . S
C93 O90 1.320 . S
C93 O91 1.214 . S
O94 Cd86 2.277 . S
O94 C89 1.209 . S
C95 O92 1.258 . S
C95 O97 1.282 . S
O96 Cd88 2.277 . S
O96 C89 1.226 . S
O97 Cd88 2.356 . S
O97 C95 1.282 . S
C98 O99 1.306 . S
C98 O101 1.160 . S
O99 C98 1.306 . S
O99 Cd100 2.228 . S
Cd100 O99 2.228 . S
Cd100 O104 2.273 . S
Cd100 O108 2.277 . S
O101 C98 1.160 . S
O101 Cd102 2.203 . S
Cd102 O101 2.203 . S
Cd102 O104 2.411 . S
Cd102 O105 2.333 . S
Cd102 O106 2.352 . S
Cd102 O110 2.277 . S
Cd102 O111 2.356 . S
C103 O108 1.209 . S
C103 O110 1.226 . S
O104 Cd100 2.273 . S
O104 Cd102 2.411 . S
O104 C107 1.320 . S
O105 Cd102 2.333 . S
O105 C107 1.214 . S
O106 Cd102 2.352 . S
O106 C109 1.258 . S
C107 O104 1.320 . S
C107 O105 1.214 . S
O108 Cd100 2.277 . S
O108 C103 1.209 . S
C109 O106 1.258 . S
C109 O111 1.282 . S
O110 Cd102 2.277 . S
O110 C103 1.226 . S
O111 Cd102 2.356 . S
O111 C109 1.282 . S
C112 O113 1.306 . S
C112 O115 1.160 . S
O113 C112 1.306 . S
O113 Cd114 2.228 . S
Cd114 O113 2.228 . S
Cd114 O118 2.273 . S
Cd114 O122 2.277 . S
O115 C112 1.160 . S
O115 Cd116 2.203 . S
Cd116 O115 2.203 . S
Cd116 O118 2.411 . S
Cd116 O119 2.333 . S
Cd116 O120 2.352 . S
Cd116 O124 2.277 . S
Cd116 O125 2.356 . S
C117 O122 1.209 . S
C117 O124 1.226 . S
O118 Cd114 2.273 . S
O118 Cd116 2.411 . S
O118 C121 1.320 . S
O119 Cd116 2.333 . S
O119 C121 1.214 . S
O120 Cd116 2.352 . S
O120 C123 1.258 . S
C121 O118 1.320 . S
C121 O119 1.214 . S
O122 Cd114 2.277 . S
O122 C117 1.209 . S
C123 O120 1.258 . S
C123 O125 1.282 . S
O124 Cd116 2.277 . S
O124 C117 1.226 . S
O125 Cd116 2.356 . S
O125 C123 1.282 . S
C126 O127 1.306 . S
C126 O129 1.160 . S
O127 C126 1.306 . S
O127 Cd128 2.228 . S
Cd128 O127 2.228 . S
Cd128 O132 2.273 . S
Cd128 O136 2.277 . S
O129 C126 1.160 . S
O129 Cd130 2.203 . S
Cd130 O129 2.203 . S
Cd130 O132 2.411 . S
Cd130 O133 2.333 . S
Cd130 O134 2.352 . S
Cd130 O138 2.277 . S
Cd130 O139 2.356 . S
C131 O136 1.209 . S
C131 O138 1.226 . S
O132 Cd128 2.273 . S
O132 Cd130 2.411 . S
O132 C135 1.320 . S
O133 Cd130 2.333 . S
O133 C135 1.214 . S
O134 Cd130 2.352 . S
O134 C137 1.258 . S
C135 O132 1.320 . S
C135 O133 1.214 . S
O136 Cd128 2.277 . S
O136 C131 1.209 . S
C137 O134 1.258 . S
C137 O139 1.282 . S
O138 Cd130 2.277 . S
O138 C131 1.226 . S
O139 Cd130 2.356 . S
O139 C137 1.282 . S
C140 O141 1.306 . S
C140 O143 1.160 . S
O141 C140 1.306 . S
O141 Cd142 2.228 . S
Cd142 O141 2.228 . S
Cd142 O146 2.273 . S
Cd142 O150 2.277 . S
O143 C140 1.160 . S
O143 Cd144 2.203 . S
Cd144 O143 2.203 . S
Cd144 O146 2.411 . S
Cd144 O147 2.333 . S
Cd144 O148 2.352 . S
Cd144 O152 2.277 . S
Cd144 O153 2.356 . S
C145 O150 1.209 . S
C145 O152 1.226 . S
O146 Cd142 2.273 . S
O146 Cd144 2.411 . S
O146 C149 1.320 . S
O147 Cd144 2.333 . S
O147 C149 1.214 . S
O148 Cd144 2.352 . S
O148 C151 1.258 . S
C149 O146 1.320 . S
C149 O147 1.214 . S
O150 Cd142 2.277 . S
O150 C145 1.209 . S
C151 O148 1.258 . S
C151 O153 1.282 . S
O152 Cd144 2.277 . S
O152 C145 1.226 . S
O153 Cd144 2.356 . S
O153 C151 1.282 . S
C154 O155 1.306 . S
C154 O157 1.160 . S
O155 C154 1.306 . S
O155 Cd156 2.228 . S
Cd156 O155 2.228 . S
Cd156 O160 2.273 . S
Cd156 O164 2.277 . S
O157 C154 1.160 . S
O157 Cd158 2.203 . S
Cd158 O157 2.203 . S
Cd158 O160 2.411 . S
Cd158 O161 2.333 . S
Cd158 O162 2.352 . S
Cd158 O166 2.277 . S
Cd158 O167 2.356 . S
C159 O164 1.209 . S
C159 O166 1.226 . S
O160 Cd156 2.273 . S
O160 Cd158 2.411 . S
O160 C163 1.320 . S
O161 Cd158 2.333 . S
O161 C163 1.214 . S
O162 Cd158 2.352 . S
O162 C165 1.258 . S
C163 O160 1.320 . S
C163 O161 1.214 . S
O164 Cd156 2.277 . S
O164 C159 1.209 . S
C165 O162 1.258 . S
C165 O167 1.282 . S
O166 Cd158 2.277 . S
O166 C159 1.226 . S
O167 Cd158 2.356 . S
O167 C165 1.282 . S
C168 O169 1.306 . S
C168 O171 1.160 . S
O169 C168 1.306 . S
O169 Cd170 2.228 . S
Cd170 O169 2.228 . S
Cd170 O174 2.273 . S
Cd170 O178 2.277 . S
O171 C168 1.160 . S
O171 Cd172 2.203 . S
Cd172 O171 2.203 . S
Cd172 O174 2.411 . S
Cd172 O175 2.333 . S
Cd172 O176 2.352 . S
Cd172 O180 2.277 . S
Cd172 O181 2.356 . S
C173 O178 1.209 . S
C173 O180 1.226 . S
O174 Cd170 2.273 . S
O174 Cd172 2.411 . S
O174 C177 1.320 . S
O175 Cd172 2.333 . S
O175 C177 1.214 . S
O176 Cd172 2.352 . S
O176 C179 1.258 . S
C177 O174 1.320 . S
C177 O175 1.214 . S
O178 Cd170 2.277 . S
O178 C173 1.209 . S
C179 O176 1.258 . S
C179 O181 1.282 . S
O180 Cd172 2.277 . S
O180 C173 1.226 . S
O181 Cd172 2.356 . S
O181 C179 1.282 . S
C182 O183 1.306 . S
C182 O185 1.160 . S
O183 C182 1.306 . S
O183 Cd184 2.228 . S
Cd184 O183 2.228 . S
Cd184 O188 2.273 . S
Cd184 O192 2.277 . S
O185 C182 1.160 . S
O185 Cd186 2.203 . S
Cd186 O185 2.203 . S
Cd186 O188 2.411 . S
Cd186 O189 2.333 . S
Cd186 O190 2.352 . S
Cd186 O194 2.277 . S
Cd186 O195 2.356 . S
C187 O192 1.209 . S
C187 O194 1.226 . S
O188 Cd184 2.273 . S
O188 Cd186 2.411 . S
O188 C191 1.320 . S
O189 Cd186 2.333 . S
O189 C191 1.214 . S
O190 Cd186 2.352 . S
O190 C193 1.258 . S
C191 O188 1.320 . S
C191 O189 1.214 . S
O192 Cd184 2.277 . S
O192 C187 1.209 . S
C193 O190 1.258 . S
C193 O195 1.282 . S
O194 Cd186 2.277 . S
O194 C187 1.226 . S
O195 Cd186 2.356 . S
O195 C193 1.282 . S
C196 O197 1.306 . S
C196 O199 1.160 . S
O197 C196 1.306 . S
O197 Cd198 2.228 . S
Cd198 O197 2.228 . S
Cd198 O202 2.273 . S
Cd198 O206 2.277 . S
O199 C196 1.160 . S
O199 Cd200 2.203 . S
Cd200 O199 2.203 . S
Cd200 O202 2.411 . S
Cd200 O203 2.333 . S
Cd200 O204 2.352 . S
Cd200 O208 2.277 . S
Cd200 O209 2.356 . S
C201 O206 1.209 . S
C201 O208 1.226 . S
O202 Cd198 2.273 . S
O202 Cd200 2.411 . S
O202 C205 1.320 . S
O203 Cd200 2.333 . S
O203 C205 1.214 . S
O204 Cd200 2.352 . S
O204 C207 1.258 . S
C205 O202 1.320 . S
C205 O203 1.214 . S
O206 Cd198 2.277 . S
O206 C201 1.209 . S
C207 O204 1.258 . S
C207 O209 1.282 . S
O208 Cd200 2.277 . S
O208 C201 1.226 . S
O209 Cd200 2.356 . S
O209 C207 1.282 . S
C210 O211 1.306 . S
C210 O213 1.160 . S
O211 C210 1.306 . S
O211 Cd212 2.228 . S
Cd212 O211 2.228 . S
Cd212 O216 2.273 . S
Cd212 O220 2.277 . S
O213 C210 1.160 . S
O213 Cd214 2.203 . S
Cd214 O213 2.203 . S
Cd214 O216 2.411 . S
Cd214 O217 2.333 . S
Cd214 O218 2.352 . S
Cd214 O222 2.277 . S
Cd214 O223 2.356 . S
C215 O220 1.209 . S
C215 O222 1.226 . S
O216 Cd212 2.273 . S
O216 Cd214 2.411 . S
O216 C219 1.320 . S
O217 Cd214 2.333 . S
O217 C219 1.214 . S
O218 Cd214 2.352 . S
O218 C221 1.258 . S
C219 O216 1.320 . S
C219 O217 1.214 . S
O220 Cd212 2.277 . S
O220 C215 1.209 . S
C221 O218 1.258 . S
C221 O223 1.282 . S
O222 Cd214 2.277 . S
O222 C215 1.226 . S
O223 Cd214 2.356 . S
O223 C221 1.282 . S
H224 C230 0.930 . S
H225 C233 0.930 . S
H226 C234 0.930 . S
H227 C235 0.930 . S
H228 C238 0.930 . S
H229 C239 0.930 . S
C230 H224 0.930 . S
C230 C231 1.355 . S
C230 C232 1.415 . S
C231 C230 1.355 . S
C231 C233 1.419 . S
C232 C230 1.415 . S
C232 C237 1.425 1_455 S
C232 C239 1.409 1_455 S
C233 H225 0.930 . S
C233 C231 1.419 . S
C233 C234 1.362 . S
C234 H226 0.930 . S
C234 C233 1.362 . S
C234 C237 1.409 1_455 S
C235 H227 0.930 . S
C235 C236 1.355 . S
C235 C237 1.415 . S
C236 C235 1.355 . S
C236 C238 1.419 . S
C237 C232 1.425 1_655 S
C237 C234 1.409 1_655 S
C237 C235 1.415 . S
C238 H228 0.930 . S
C238 C236 1.419 . S
C238 C239 1.362 . S
C239 H229 0.930 . S
C239 C232 1.409 1_655 S
C239 C238 1.362 . S
H240 C246 0.930 . S
H241 C249 0.930 . S
H242 C250 0.930 . S
H243 C251 0.930 . S
H244 C254 0.930 . S
H245 C255 0.930 . S
C246 H240 0.930 . S
C246 C247 1.355 . S
C246 C248 1.415 . S
C247 C246 1.355 . S
C247 C249 1.419 . S
C248 C246 1.415 . S
C248 C253 1.425 1_655 S
C248 C255 1.409 1_655 S
C249 H241 0.930 . S
C249 C247 1.419 . S
C249 C250 1.362 . S
C250 H242 0.930 . S
C250 C249 1.362 . S
C250 C253 1.409 1_655 S
C251 H243 0.930 . S
C251 C252 1.355 . S
C251 C253 1.415 . S
C252 C251 1.355 . S
C252 C254 1.419 . S
C253 C248 1.425 1_455 S
C253 C250 1.409 1_455 S
C253 C251 1.415 . S
C254 H244 0.930 . S
C254 C252 1.419 . S
C254 C255 1.362 . S
C255 H245 0.930 . S
C255 C248 1.409 1_455 S
C255 C254 1.362 . S
H256 C262 0.930 . S
H257 C265 0.930 . S
H258 C266 0.930 . S
H259 C267 0.930 . S
H260 C270 0.930 . S
H261 C271 0.930 . S
C262 H256 0.930 . S
C262 C263 1.355 . S
C262 C264 1.415 . S
C263 C262 1.355 . S
C263 C265 1.419 . S
C264 C262 1.415 . S
C264 C269 1.425 1_655 S
C264 C271 1.409 1_655 S
C265 H257 0.930 . S
C265 C263 1.419 . S
C265 C266 1.362 . S
C266 H258 0.930 . S
C266 C265 1.362 . S
C266 C269 1.409 1_655 S
C267 H259 0.930 . S
C267 C268 1.355 . S
C267 C269 1.415 . S
C268 C267 1.355 . S
C268 C270 1.419 . S
C269 C264 1.425 1_455 S
C269 C266 1.409 1_455 S
C269 C267 1.415 . S
C270 H260 0.930 . S
C270 C268 1.419 . S
C270 C271 1.362 . S
C271 H261 0.930 . S
C271 C264 1.409 1_455 S
C271 C270 1.362 . S
H272 C278 0.930 . S
H273 C281 0.930 . S
H274 C282 0.930 . S
H275 C283 0.930 . S
H276 C286 0.930 . S
H277 C287 0.930 . S
C278 H272 0.930 . S
C278 C279 1.355 . S
C278 C280 1.415 . S
C279 C278 1.355 . S
C279 C281 1.419 . S
C280 C278 1.415 . S
C280 C285 1.425 1_455 S
C280 C287 1.409 1_455 S
C281 H273 0.930 . S
C281 C279 1.419 . S
C281 C282 1.362 . S
C282 H274 0.930 . S
C282 C281 1.362 . S
C282 C285 1.409 1_455 S
C283 H275 0.930 . S
C283 C284 1.355 . S
C283 C285 1.415 . S
C284 C283 1.355 . S
C284 C286 1.419 . S
C285 C280 1.425 1_655 S
C285 C282 1.409 1_655 S
C285 C283 1.415 . S
C286 H276 0.930 . S
C286 C284 1.419 . S
C286 C287 1.362 . S
C287 H277 0.930 . S
C287 C280 1.409 1_655 S
C287 C286 1.362 . S
H288 C294 0.930 . S
H289 C297 0.930 . S
H290 C298 0.930 . S
H291 C299 0.930 . S
H292 C302 0.930 . S
H293 C303 0.930 . S
C294 H288 0.930 . S
C294 C295 1.355 . S
C294 C296 1.415 . S
C295 C294 1.355 . S
C295 C297 1.419 . S
C296 C294 1.415 . S
C296 C301 1.425 . S
C296 C303 1.409 . S
C297 H289 0.930 . S
C297 C295 1.419 . S
C297 C298 1.362 . S
C298 H290 0.930 . S
C298 C297 1.362 . S
C298 C301 1.409 . S
C299 H291 0.930 . S
C299 C300 1.355 . S
C299 C301 1.415 . S
C300 C299 1.355 . S
C300 C302 1.419 . S
C301 C296 1.425 . S
C301 C298 1.409 . S
C301 C299 1.415 . S
C302 H292 0.930 . S
C302 C300 1.419 . S
C302 C303 1.362 . S
C303 H293 0.930 . S
C303 C296 1.409 . S
C303 C302 1.362 . S
H304 C310 0.930 . S
H305 C313 0.930 . S
H306 C314 0.930 . S
H307 C315 0.930 . S
H308 C318 0.930 . S
H309 C319 0.930 . S
C310 H304 0.930 . S
C310 C311 1.355 . S
C310 C312 1.415 . S
C311 C310 1.355 . S
C311 C313 1.419 . S
C312 C310 1.415 . S
C312 C317 1.425 . S
C312 C319 1.409 . S
C313 H305 0.930 . S
C313 C311 1.419 . S
C313 C314 1.362 . S
C314 H306 0.930 . S
C314 C313 1.362 . S
C314 C317 1.409 . S
C315 H307 0.930 . S
C315 C316 1.355 . S
C315 C317 1.415 . S
C316 C315 1.355 . S
C316 C318 1.419 . S
C317 C312 1.425 . S
C317 C314 1.409 . S
C317 C315 1.415 . S
C318 H308 0.930 . S
C318 C316 1.419 . S
C318 C319 1.362 . S
C319 H309 0.930 . S
C319 C312 1.409 . S
C319 C318 1.362 . S
H320 C326 0.930 . S
H321 C329 0.930 . S
H322 C330 0.930 . S
H323 C331 0.930 . S
H324 C334 0.930 . S
H325 C335 0.930 . S
C326 H320 0.930 . S
C326 C327 1.355 . S
C326 C328 1.415 . S
C327 C326 1.355 . S
C327 C329 1.419 . S
C328 C326 1.415 . S
C328 C333 1.425 . S
C328 C335 1.409 . S
C329 H321 0.930 . S
C329 C327 1.419 . S
C329 C330 1.362 . S
C330 H322 0.930 . S
C330 C329 1.362 . S
C330 C333 1.409 . S
C331 H323 0.930 . S
C331 C332 1.355 . S
C331 C333 1.415 . S
C332 C331 1.355 . S
C332 C334 1.419 . S
C333 C328 1.425 . S
C333 C330 1.409 . S
C333 C331 1.415 . S
C334 H324 0.930 . S
C334 C332 1.419 . S
C334 C335 1.362 . S
C335 H325 0.930 . S
C335 C328 1.409 . S
C335 C334 1.362 . S
H336 C342 0.930 . S
H337 C345 0.930 . S
H338 C346 0.930 . S
H339 C347 0.930 . S
H340 C350 0.930 . S
H341 C351 0.930 . S
C342 H336 0.930 . S
C342 C343 1.355 . S
C342 C344 1.415 . S
C343 C342 1.355 . S
C343 C345 1.419 . S
C344 C342 1.415 . S
C344 C349 1.425 . S
C344 C351 1.409 . S
C345 H337 0.930 . S
C345 C343 1.419 . S
C345 C346 1.362 . S
C346 H338 0.930 . S
C346 C345 1.362 . S
C346 C349 1.409 . S
C347 H339 0.930 . S
C347 C348 1.355 . S
C347 C349 1.415 . S
C348 C347 1.355 . S
C348 C350 1.419 . S
C349 C344 1.425 . S
C349 C346 1.409 . S
C349 C347 1.415 . S
C350 H340 0.930 . S
C350 C348 1.419 . S
C350 C351 1.362 . S
C351 H341 0.930 . S
C351 C344 1.409 . S
C351 C350 1.362 . S
H352 C358 0.930 . S
H353 C361 0.930 . S
H354 C362 0.930 . S
H355 C363 0.930 . S
H356 C366 0.930 . S
H357 C367 0.930 . S
C358 H352 0.930 . S
C358 C359 1.355 . S
C358 C360 1.415 . S
C359 C358 1.355 . S
C359 C361 1.419 . S
C360 C358 1.415 . S
C360 C365 1.425 . S
C360 C367 1.409 . S
C361 H353 0.930 . S
C361 C359 1.419 . S
C361 C362 1.362 . S
C362 H354 0.930 . S
C362 C361 1.362 . S
C362 C365 1.409 . S
C363 H355 0.930 . S
C363 C364 1.355 . S
C363 C365 1.415 . S
C364 C363 1.355 . S
C364 C366 1.419 . S
C365 C360 1.425 . S
C365 C362 1.409 . S
C365 C363 1.415 . S
C366 H356 0.930 . S
C366 C364 1.419 . S
C366 C367 1.362 . S
C367 H357 0.930 . S
C367 C360 1.409 . S
C367 C366 1.362 . S
H368 C374 0.930 . S
H369 C377 0.930 . S
H370 C378 0.930 . S
H371 C379 0.930 . S
H372 C382 0.930 . S
H373 C383 0.930 . S
C374 H368 0.930 . S
C374 C375 1.355 . S
C374 C376 1.415 . S
C375 C374 1.355 . S
C375 C377 1.419 . S
C376 C374 1.415 . S
C376 C381 1.425 . S
C376 C383 1.409 . S
C377 H369 0.930 . S
C377 C375 1.419 . S
C377 C378 1.362 . S
C378 H370 0.930 . S
C378 C377 1.362 . S
C378 C381 1.409 . S
C379 H371 0.930 . S
C379 C380 1.355 . S
C379 C381 1.415 . S
C380 C379 1.355 . S
C380 C382 1.419 . S
C381 C376 1.425 . S
C381 C378 1.409 . S
C381 C379 1.415 . S
C382 H372 0.930 . S
C382 C380 1.419 . S
C382 C383 1.362 . S
C383 H373 0.930 . S
C383 C376 1.409 . S
C383 C382 1.362 . S
H384 C390 0.930 . S
H385 C393 0.930 . S
H386 C394 0.930 . S
H387 C395 0.930 . S
H388 C398 0.930 . S
H389 C399 0.930 . S
C390 H384 0.930 . S
C390 C391 1.355 . S
C390 C392 1.415 . S
C391 C390 1.355 . S
C391 C393 1.419 . S
C392 C390 1.415 . S
C392 C397 1.425 . S
C392 C399 1.409 . S
C393 H385 0.930 . S
C393 C391 1.419 . S
C393 C394 1.362 . S
C394 H386 0.930 . S
C394 C393 1.362 . S
C394 C397 1.409 . S
C395 H387 0.930 . S
C395 C396 1.355 . S
C395 C397 1.415 . S
C396 C395 1.355 . S
C396 C398 1.419 . S
C397 C392 1.425 . S
C397 C394 1.409 . S
C397 C395 1.415 . S
C398 H388 0.930 . S
C398 C396 1.419 . S
C398 C399 1.362 . S
C399 H389 0.930 . S
C399 C392 1.409 . S
C399 C398 1.362 . S
H400 C406 0.930 . S
H401 C409 0.930 . S
H402 C410 0.930 . S
H403 C411 0.930 . S
H404 C414 0.930 . S
H405 C415 0.930 . S
C406 H400 0.930 . S
C406 C407 1.355 . S
C406 C408 1.415 . S
C407 C406 1.355 . S
C407 C409 1.419 . S
C408 C406 1.415 . S
C408 C413 1.425 . S
C408 C415 1.409 . S
C409 H401 0.930 . S
C409 C407 1.419 . S
C409 C410 1.362 . S
C410 H402 0.930 . S
C410 C409 1.362 . S
C410 C413 1.409 . S
C411 H403 0.930 . S
C411 C412 1.355 . S
C411 C413 1.415 . S
C412 C411 1.355 . S
C412 C414 1.419 . S
C413 C408 1.425 . S
C413 C410 1.409 . S
C413 C411 1.415 . S
C414 H404 0.930 . S
C414 C412 1.419 . S
C414 C415 1.362 . S
C415 H405 0.930 . S
C415 C408 1.409 . S
C415 C414 1.362 . S
H416 C422 0.930 . S
H417 C425 0.930 . S
H418 C426 0.930 . S
H419 C427 0.930 . S
H420 C430 0.930 . S
H421 C431 0.930 . S
C422 H416 0.930 . S
C422 C423 1.355 . S
C422 C424 1.415 . S
C423 C422 1.355 . S
C423 C425 1.419 . S
C424 C422 1.415 . S
C424 C429 1.425 . S
C424 C431 1.409 . S
C425 H417 0.930 . S
C425 C423 1.419 . S
C425 C426 1.362 . S
C426 H418 0.930 . S
C426 C425 1.362 . S
C426 C429 1.409 . S
C427 H419 0.930 . S
C427 C428 1.355 . S
C427 C429 1.415 . S
C428 C427 1.355 . S
C428 C430 1.419 . S
C429 C424 1.425 . S
C429 C426 1.409 . S
C429 C427 1.415 . S
C430 H420 0.930 . S
C430 C428 1.419 . S
C430 C431 1.362 . S
C431 H421 0.930 . S
C431 C424 1.409 . S
C431 C430 1.362 . S
H432 C438 0.930 . S
H433 C441 0.930 . S
H434 C442 0.930 . S
H435 C443 0.930 . S
H436 C446 0.930 . S
H437 C447 0.930 . S
C438 H432 0.930 . S
C438 C439 1.355 . S
C438 C440 1.415 . S
C439 C438 1.355 . S
C439 C441 1.419 . S
C440 C438 1.415 . S
C440 C445 1.425 . S
C440 C447 1.409 . S
C441 H433 0.930 . S
C441 C439 1.419 . S
C441 C442 1.362 . S
C442 H434 0.930 . S
C442 C441 1.362 . S
C442 C445 1.409 . S
C443 H435 0.930 . S
C443 C444 1.355 . S
C443 C445 1.415 . S
C444 C443 1.355 . S
C444 C446 1.419 . S
C445 C440 1.425 . S
C445 C442 1.409 . S
C445 C443 1.415 . S
C446 H436 0.930 . S
C446 C444 1.419 . S
C446 C447 1.362 . S
C447 H437 0.930 . S
C447 C440 1.409 . S
C447 C446 1.362 . S
H448 C454 0.930 . S
H449 C457 0.930 . S
H450 C458 0.930 . S
H451 C459 0.930 . S
H452 C462 0.930 . S
H453 C463 0.930 . S
C454 H448 0.930 . S
C454 C455 1.355 . S
C454 C456 1.415 . S
C455 C454 1.355 . S
C455 C457 1.419 . S
C456 C454 1.415 . S
C456 C461 1.425 . S
C456 C463 1.409 . S
C457 H449 0.930 . S
C457 C455 1.419 . S
C457 C458 1.362 . S
C458 H450 0.930 . S
C458 C457 1.362 . S
C458 C461 1.409 . S
C459 H451 0.930 . S
C459 C460 1.355 . S
C459 C461 1.415 . S
C460 C459 1.355 . S
C460 C462 1.419 . S
C461 C456 1.425 . S
C461 C458 1.409 . S
C461 C459 1.415 . S
C462 H452 0.930 . S
C462 C460 1.419 . S
C462 C463 1.362 . S
C463 H453 0.930 . S
C463 C456 1.409 . S
C463 C462 1.362 . S
H464 C470 0.930 . S
H465 C473 0.930 . S
H466 C474 0.930 . S
H467 C475 0.930 . S
H468 C478 0.930 . S
H469 C479 0.930 . S
C470 H464 0.930 . S
C470 C471 1.355 . S
C470 C472 1.415 . S
C471 C470 1.355 . S
C471 C473 1.419 . S
C472 C470 1.415 . S
C472 C477 1.425 . S
C472 C479 1.409 . S
C473 H465 0.930 . S
C473 C471 1.419 . S
C473 C474 1.362 . S
C474 H466 0.930 . S
C474 C473 1.362 . S
C474 C477 1.409 . S
C475 H467 0.930 . S
C475 C476 1.355 . S
C475 C477 1.415 . S
C476 C475 1.355 . S
C476 C478 1.419 . S
C477 C472 1.425 . S
C477 C474 1.409 . S
C477 C475 1.415 . S
C478 H468 0.930 . S
C478 C476 1.419 . S
C478 C479 1.362 . S
C479 H469 0.930 . S
C479 C472 1.409 . S
C479 C478 1.362 . S
H480 C486 0.930 . S
H481 C489 0.930 . S
H482 C490 0.938 . S
H483 C491 0.930 . S
H484 C494 0.930 . S
H485 C495 0.930 . S
C486 H480 0.930 . S
C486 C487 1.355 . S
C486 C488 1.415 . S
C487 C486 1.355 . S
C487 C489 1.419 . S
C488 C486 1.415 . S
C488 C493 1.425 1_556 S
C488 C495 1.409 . S
C489 H481 0.930 . S
C489 C487 1.419 . S
C489 C490 1.351 1_556 S
C490 H482 0.938 . S
C490 C489 1.351 1_554 S
C490 C493 1.413 . S
C491 H483 0.930 . S
C491 C492 1.355 . S
C491 C493 1.415 . S
C492 C491 1.355 . S
C492 C494 1.419 . S
C493 C488 1.425 1_554 S
C493 C490 1.413 . S
C493 C491 1.415 . S
C494 H484 0.930 . S
C494 C492 1.419 . S
C494 C495 1.363 1_554 S
C495 H485 0.930 . S
C495 C488 1.409 . S
C495 C494 1.363 1_556 S
H496 C502 0.930 . S
H497 C505 0.930 . S
H498 C506 0.930 . S
H499 C507 0.930 . S
H500 C510 0.930 . S
H501 C511 0.930 . S
C502 H496 0.930 . S
C502 C503 1.355 . S
C502 C504 1.415 . S
C503 C502 1.355 . S
C503 C505 1.419 . S
C504 C502 1.415 . S
C504 C509 1.425 . S
C504 C511 1.409 . S
C505 H497 0.930 . S
C505 C503 1.419 . S
C505 C506 1.362 . S
C506 H498 0.930 . S
C506 C505 1.362 . S
C506 C509 1.409 . S
C507 H499 0.930 . S
C507 C508 1.355 . S
C507 C509 1.415 . S
C508 C507 1.355 . S
C508 C510 1.419 . S
C509 C504 1.425 . S
C509 C506 1.409 . S
C509 C507 1.415 . S
C510 H500 0.930 . S
C510 C508 1.419 . S
C510 C511 1.362 . S
C511 H501 0.930 . S
C511 C504 1.409 . S
C511 C510 1.362 . S
H512 C518 0.930 1_556 S
H513 C521 0.930 . S
H514 C522 0.930 . S
H515 C523 0.930 1_554 S
H516 C526 0.930 . S
H517 C527 0.930 . S
C518 H512 0.930 1_554 S
C518 C519 1.355 . S
C518 C520 1.415 1_554 S
C519 C518 1.355 . S
C519 C521 1.419 . S
C520 C518 1.415 1_556 S
C520 C525 1.425 1_556 S
C520 C527 1.409 . S
C521 H513 0.930 . S
C521 C519 1.419 . S
C521 C522 1.362 . S
C522 H514 0.930 . S
C522 C521 1.362 . S
C522 C525 1.409 . S
C523 H515 0.930 1_556 S
C523 C524 1.355 . S
C523 C525 1.415 1_556 S
C524 C523 1.355 . S
C524 C526 1.419 . S
C525 C520 1.425 1_554 S
C525 C522 1.409 . S
C525 C523 1.415 1_554 S
C526 H516 0.930 . S
C526 C524 1.419 . S
C526 C527 1.362 . S
C527 H517 0.930 . S
C527 C520 1.409 . S
C527 C526 1.362 . S
H528 C534 0.930 . S
H529 C537 0.930 . S
H530 C538 0.930 . S
H531 C539 0.930 . S
H532 C542 0.930 . S
H533 C543 0.930 . S
C534 H528 0.930 . S
C534 C535 1.355 . S
C534 C536 1.415 . S
C535 C534 1.355 . S
C535 C537 1.419 . S
C536 C534 1.415 . S
C536 C541 1.425 . S
C536 C543 1.409 . S
C537 H529 0.930 . S
C537 C535 1.419 . S
C537 C538 1.362 . S
C538 H530 0.930 . S
C538 C537 1.362 . S
C538 C541 1.409 . S
C539 H531 0.930 . S
C539 C540 1.355 . S
C539 C541 1.415 . S
C540 C539 1.355 . S
C540 C542 1.419 . S
C541 C536 1.425 . S
C541 C538 1.409 . S
C541 C539 1.415 . S
C542 H532 0.930 . S
C542 C540 1.419 . S
C542 C543 1.362 . S
C543 H533 0.930 . S
C543 C536 1.409 . S
C543 C542 1.362 . S
H544 C550 0.930 . S
H545 C553 0.930 . S
H546 C554 0.930 . S
H547 C555 0.930 . S
H548 C558 0.930 . S
H549 C559 0.930 . S
C550 H544 0.930 . S
C550 C551 1.355 . S
C550 C552 1.415 . S
C551 C550 1.355 . S
C551 C553 1.419 . S
C552 C550 1.415 . S
C552 C557 1.425 1_554 S
C552 C559 1.409 1_554 S
C553 H545 0.930 . S
C553 C551 1.419 . S
C553 C554 1.362 . S
C554 H546 0.930 . S
C554 C553 1.362 . S
C554 C557 1.409 1_554 S
C555 H547 0.930 . S
C555 C556 1.355 . S
C555 C557 1.415 . S
C556 C555 1.355 . S
C556 C558 1.419 . S
C557 C552 1.425 1_556 S
C557 C554 1.409 1_556 S
C557 C555 1.415 . S
C558 H548 0.930 . S
C558 C556 1.419 . S
C558 C559 1.362 . S
C559 H549 0.930 . S
C559 C552 1.409 1_556 S
C559 C558 1.362 . S
H560 C566 0.930 . S
H561 C569 0.930 . S
H562 C570 0.930 . S
H563 C571 0.930 . S
H564 C574 0.930 . S
H565 C575 0.930 . S
C566 H560 0.930 . S
C566 C567 1.355 . S
C566 C568 1.415 . S
C567 C566 1.355 . S
C567 C569 1.419 . S
C568 C566 1.415 . S
C568 C573 1.425 . S
C568 C575 1.409 . S
C569 H561 0.930 . S
C569 C567 1.419 . S
C569 C570 1.362 . S
C570 H562 0.930 . S
C570 C569 1.362 . S
C570 C573 1.409 . S
C571 H563 0.930 . S
C571 C572 1.355 . S
C571 C573 1.415 . S
C572 C571 1.355 . S
C572 C574 1.419 . S
C573 C568 1.425 . S
C573 C570 1.409 . S
C573 C571 1.415 . S
C574 H564 0.930 . S
C574 C572 1.419 . S
C574 C575 1.362 . S
C575 H565 0.930 . S
C575 C568 1.409 . S
C575 C574 1.362 . S
H576 C582 0.930 . S
H577 C585 0.930 . S
H578 C586 0.930 1_556 S
H579 C587 0.930 . S
H580 C590 0.930 . S
H581 C591 0.930 1_554 S
C582 H576 0.930 . S
C582 C583 1.355 . S
C582 C584 1.415 . S
C583 C582 1.355 . S
C583 C585 1.419 . S
C584 C582 1.415 . S
C584 C589 1.425 1_554 S
C584 C591 1.409 1_554 S
C585 H577 0.930 . S
C585 C583 1.419 . S
C585 C586 1.362 . S
C586 H578 0.930 1_554 S
C586 C585 1.362 . S
C586 C589 1.409 1_554 S
C587 H579 0.930 . S
C587 C588 1.355 . S
C587 C589 1.415 . S
C588 C587 1.355 . S
C588 C590 1.419 . S
C589 C584 1.425 1_556 S
C589 C586 1.409 1_556 S
C589 C587 1.415 . S
C590 H580 0.930 . S
C590 C588 1.419 . S
C590 C591 1.362 . S
C591 H581 0.930 1_556 S
C591 C584 1.409 1_556 S
C591 C590 1.362 . S
H592 C598 0.930 . S
H593 C601 0.930 . S
H594 C602 0.930 . S
H595 C603 0.930 . S
H596 C606 0.930 . S
H597 C607 0.930 . S
C598 H592 0.930 . S
C598 C599 1.355 . S
C598 C600 1.415 . S
C599 C598 1.355 . S
C599 C601 1.419 . S
C600 C598 1.415 . S
C600 C605 1.425 . S
C600 C607 1.409 . S
C601 H593 0.930 . S
C601 C599 1.419 . S
C601 C602 1.362 . S
C602 H594 0.930 . S
C602 C601 1.362 . S
C602 C605 1.409 . S
C603 H595 0.930 . S
C603 C604 1.355 . S
C603 C605 1.415 . S
C604 C603 1.355 . S
C604 C606 1.419 . S
C605 C600 1.425 . S
C605 C602 1.409 . S
C605 C603 1.415 . S
C606 H596 0.930 . S
C606 C604 1.419 . S
C606 C607 1.362 . S
C607 H597 0.930 . S
C607 C600 1.409 . S
C607 C606 1.362 . S
H608 C614 0.930 . S
H609 C617 0.930 . S
H610 C618 0.930 . S
H611 C619 0.930 . S
H612 C622 0.930 . S
H613 C623 0.930 . S
C614 H608 0.930 . S
C614 C615 1.355 . S
C614 C616 1.415 . S
C615 C614 1.355 . S
C615 C617 1.419 1_556 S
C616 C614 1.415 . S
C616 C621 1.425 1_556 S
C616 C623 1.409 . S
C617 H609 0.930 . S
C617 C615 1.419 1_554 S
C617 C618 1.362 . S
C618 H610 0.930 . S
C618 C617 1.362 . S
C618 C621 1.409 . S
C619 H611 0.930 . S
C619 C620 1.355 . S
C619 C621 1.415 . S
C620 C619 1.355 . S
C620 C622 1.419 1_554 S
C621 C616 1.425 1_554 S
C621 C618 1.409 . S
C621 C619 1.415 . S
C622 H612 0.930 . S
C622 C620 1.419 1_556 S
C622 C623 1.362 . S
C623 H613 0.930 . S
C623 C616 1.409 . S
C623 C622 1.362 . S
H624 C630 0.930 . S
H625 C633 0.930 . S
H626 C634 0.930 . S
H627 C635 0.930 . S
H628 C638 0.930 . S
H629 C639 0.930 . S
C630 H624 0.930 . S
C630 C631 1.355 . S
C630 C632 1.415 . S
C631 C630 1.355 . S
C631 C633 1.419 . S
C632 C630 1.415 . S
C632 C637 1.425 . S
C632 C639 1.409 . S
C633 H625 0.930 . S
C633 C631 1.419 . S
C633 C634 1.362 . S
C634 H626 0.930 . S
C634 C633 1.362 . S
C634 C637 1.409 . S
C635 H627 0.930 . S
C635 C636 1.355 . S
C635 C637 1.415 . S
C636 C635 1.355 . S
C636 C638 1.419 . S
C637 C632 1.425 . S
C637 C634 1.409 . S
C637 C635 1.415 . S
C638 H628 0.930 . S
C638 C636 1.419 . S
C638 C639 1.362 . S
C639 H629 0.930 . S
C639 C632 1.409 . S
C639 C638 1.362 . S
H640 C646 0.947 . S
H641 C649 0.930 . S
H642 C650 0.930 . S
H643 C651 0.947 . S
H644 C654 0.930 . S
H645 C655 0.930 . S
C646 H640 0.947 . S
C646 C647 1.330 1_556 S
C646 C648 1.423 . S
C647 C646 1.330 1_554 S
C647 C649 1.419 . S
C648 C646 1.423 . S
C648 C653 1.425 1_556 S
C648 C655 1.409 . S
C649 H641 0.930 . S
C649 C647 1.419 . S
C649 C650 1.362 . S
C650 H642 0.930 . S
C650 C649 1.362 . S
C650 C653 1.409 . S
C651 H643 0.947 . S
C651 C652 1.330 1_554 S
C651 C653 1.423 . S
C652 C651 1.330 1_556 S
C652 C654 1.419 . S
C653 C648 1.425 1_554 S
C653 C650 1.409 . S
C653 C651 1.423 . S
C654 H644 0.930 . S
C654 C652 1.419 . S
C654 C655 1.362 . S
C655 H645 0.930 . S
C655 C648 1.409 . S
C655 C654 1.362 . S
H656 C662 0.930 . S
H657 C665 0.930 . S
H658 C666 0.930 . S
H659 C667 0.930 . S
H660 C670 0.930 . S
H661 C671 0.930 . S
C662 H656 0.930 . S
C662 C663 1.355 . S
C662 C664 1.415 . S
C663 C662 1.355 . S
C663 C665 1.419 . S
C664 C662 1.415 . S
C664 C669 1.425 . S
C664 C671 1.409 . S
C665 H657 0.930 . S
C665 C663 1.419 . S
C665 C666 1.362 . S
C666 H658 0.930 . S
C666 C665 1.362 . S
C666 C669 1.409 . S
C667 H659 0.930 . S
C667 C668 1.355 . S
C667 C669 1.415 . S
C668 C667 1.355 . S
C668 C670 1.419 . S
C669 C664 1.425 . S
C669 C666 1.409 . S
C669 C667 1.415 . S
C670 H660 0.930 . S
C670 C668 1.419 . S
C670 C671 1.362 . S
C671 H661 0.930 . S
C671 C664 1.409 . S
C671 C670 1.362 . S
H672 C678 0.930 . S
H673 C681 0.930 . S
H674 C682 0.930 . S
H675 C683 0.930 . S
H676 C686 0.930 . S
H677 C687 0.930 . S
C678 H672 0.930 . S
C678 C679 1.355 . S
C678 C680 1.415 . S
C679 C678 1.355 . S
C679 C681 1.419 . S
C680 C678 1.415 . S
C680 C685 1.425 1_546 S
C680 C687 1.409 1_546 S
C681 H673 0.930 . S
C681 C679 1.419 . S
C681 C682 1.362 . S
C682 H674 0.930 . S
C682 C681 1.362 . S
C682 C685 1.409 1_546 S
C683 H675 0.930 . S
C683 C684 1.355 . S
C683 C685 1.415 . S
C684 C683 1.355 . S
C684 C686 1.419 . S
C685 C680 1.425 1_564 S
C685 C682 1.409 1_564 S
C685 C683 1.415 . S
C686 H676 0.930 . S
C686 C684 1.419 . S
C686 C687 1.362 . S
C687 H677 0.930 . S
C687 C680 1.409 1_564 S
C687 C686 1.362 . S
H688 C694 0.930 . S
H689 C697 0.930 . S
H690 C698 0.930 . S
H691 C699 0.930 . S
H692 C702 0.930 . S
H693 C703 0.930 . S
C694 H688 0.930 . S
C694 C695 1.355 . S
C694 C696 1.415 1_565 S
C695 C694 1.355 . S
C695 C697 1.419 . S
C696 C694 1.415 1_545 S
C696 C701 1.425 1_545 S
C696 C703 1.409 . S
C697 H689 0.930 . S
C697 C695 1.419 . S
C697 C698 1.362 . S
C698 H690 0.930 . S
C698 C697 1.362 . S
C698 C701 1.409 . S
C699 H691 0.930 . S
C699 C700 1.355 . S
C699 C701 1.415 1_545 S
C700 C699 1.355 . S
C700 C702 1.419 . S
C701 C696 1.425 1_565 S
C701 C698 1.409 . S
C701 C699 1.415 1_565 S
C702 H692 0.930 . S
C702 C700 1.419 . S
C702 C703 1.362 . S
C703 H693 0.930 . S
C703 C696 1.409 . S
C703 C702 1.362 . S
H704 C710 0.930 . S
H705 C713 0.930 . S
H706 C714 0.917 1_545 S
H707 C715 0.930 . S
H708 C718 0.930 . S
H709 C719 0.917 1_565 S
C710 H704 0.930 . S
C710 C711 1.355 . S
C710 C712 1.415 1_554 S
C711 C710 1.355 . S
C711 C713 1.419 . S
C712 C710 1.415 1_556 S
C712 C717 1.425 1_566 S
C712 C719 1.409 1_565 S
C713 H705 0.930 . S
C713 C711 1.419 . S
C713 C714 1.362 . S
C714 H706 0.917 1_565 S
C714 C713 1.362 . S
C714 C717 1.409 1_565 S
C715 H707 0.930 . S
C715 C716 1.355 . S
C715 C717 1.415 1_556 S
C716 C715 1.355 . S
C716 C718 1.419 . S
C717 C712 1.425 1_544 S
C717 C714 1.409 1_545 S
C717 C715 1.415 1_554 S
C718 H708 0.930 . S
C718 C716 1.419 . S
C718 C719 1.362 . S
C719 H709 0.917 1_545 S
C719 C712 1.409 1_545 S
C719 C718 1.362 . S
H720 C726 0.930 . S
H721 C729 0.930 . S
H722 C730 0.930 . S
H723 C731 0.930 . S
H724 C734 0.930 . S
H725 C735 0.930 . S
C726 H720 0.930 . S
C726 C727 1.355 . S
C726 C728 1.406 1_545 S
C727 C726 1.355 . S
C727 C729 1.419 . S
C728 C726 1.406 1_565 S
C728 C733 1.425 1_565 S
C728 C735 1.418 . S
C729 H721 0.930 . S
C729 C727 1.419 . S
C729 C730 1.362 . S
C730 H722 0.930 . S
C730 C729 1.362 . S
C730 C733 1.418 . S
C731 H723 0.930 . S
C731 C732 1.355 . S
C731 C733 1.406 1_565 S
C732 C731 1.355 . S
C732 C734 1.419 . S
C733 C728 1.425 1_545 S
C733 C730 1.418 . S
C733 C731 1.406 1_545 S
C734 H724 0.930 . S
C734 C732 1.419 . S
C734 C735 1.362 . S
C735 H725 0.930 . S
C735 C728 1.418 . S
C735 C734 1.362 . S
C231 C5 1.448 . S
C236 C89 1.448 . S
C247 C19 1.439 . S
C252 C103 1.458 . S
C263 C61 1.441 . S
C268 C33 1.456 . S
C279 C75 1.448 . S
C284 C47 1.450 . S
C295 C201 1.439 . S
C300 C117 1.458 . S
C311 C215 1.457 . S
C316 C131 1.440 . S
C327 C145 1.441 . S
C332 C173 1.455 . S
C343 C159 1.443 . S
C348 C187 1.455 . S
C359 C9 1.492 . S
C364 C70 1.462 . S
C375 C23 1.488 . S
C380 C56 1.455 . S
C391 C37 1.485 . S
C396 C98 1.489 . S
C407 C84 1.484 . S
C412 C51 1.488 . S
C423 C182 1.469 . S
C428 C121 1.486 . S
C439 C168 1.486 . S
C444 C135 1.485 . S
C455 C149 1.491 . S
C460 C210 1.442 . S
C471 C196 1.475 . S
C476 C163 1.490 . S
C487 C179 1.408 . S
C492 C11 1.412 . S
C503 C25 1.418 . S
C508 C193 1.411 . S
C519 C207 1.425 . S
C524 C39 1.425 . S
C535 C221 1.409 . S
C540 C53 1.417 . S
C551 C123 1.420 . S
C556 C67 1.413 . S
C567 C137 1.416 . S
C572 C81 1.406 . S
C583 C95 1.410 . S
C588 C151 1.413 . S
C599 C109 1.412 . S
C604 C165 1.419 . S
C615 C28 1.470 . S
C620 C0 1.457 . S
C631 C14 1.458 . S
C636 C42 1.431 . S
C647 C93 1.500 . S
C652 C65 1.505 . S
C663 C79 1.504 . S
C668 C107 1.503 . S
C679 C140 1.427 . S
C684 C112 1.453 . S
C695 C154 1.458 . S
C700 C126 1.470 . S
C711 C205 1.505 . S
C716 C177 1.501 . S
C727 C219 1.506 . S
C732 C191 1.501 . S
