# Generated by pormake.
# Topology uoj, (4)-cn, num edge types: 1
# Building blocks:
#     Node 0, Type 0, BuildingBlock: CEKHIL_clean_sbu_0, # of connection points: 4
#     Node 1, Type 0, BuildingBlock: CEKHIL_clean_sbu_0, # of connection points: 4
#     Node 2, Type 0, BuildingBlock: CEKHIL_clean_sbu_0, # of connection points: 4
#     Node 3, Type 0, BuildingBlock: CEKHIL_clean_sbu_0, # of connection points: 4
#     Node 4, Type 0, BuildingBlock: CEKHIL_clean_sbu_0, # of connection points: 4
#     Node 5, Type 0, BuildingBlock: CEKHIL_clean_sbu_0, # of connection points: 4
#     Node 6, Type 0, BuildingBlock: CEKHIL_clean_sbu_0, # of connection points: 4
#     Node 7, Type 0, BuildingBlock: CEKHIL_clean_sbu_0, # of connection points: 4
#     Edge 8, Type (0, 0), BuildingBlock: FUNLAD_clean_linker_1, # of connection points: 2
#     Edge 9, Type (0, 0), BuildingBlock: FUNLAD_clean_linker_1, # of connection points: 2
#     Edge 10, Type (0, 0), BuildingBlock: FUNLAD_clean_linker_1, # of connection points: 2
#     Edge 11, Type (0, 0), BuildingBlock: FUNLAD_clean_linker_1, # of connection points: 2
#     Edge 12, Type (0, 0), BuildingBlock: FUNLAD_clean_linker_1, # of connection points: 2
#     Edge 13, Type (0, 0), BuildingBlock: FUNLAD_clean_linker_1, # of connection points: 2
#     Edge 14, Type (0, 0), BuildingBlock: FUNLAD_clean_linker_1, # of connection points: 2
#     Edge 15, Type (0, 0), BuildingBlock: FUNLAD_clean_linker_1, # of connection points: 2
#     Edge 16, Type (0, 0), BuildingBlock: FUNLAD_clean_linker_1, # of connection points: 2
#     Edge 17, Type (0, 0), BuildingBlock: FUNLAD_clean_linker_1, # of connection points: 2
#     Edge 18, Type (0, 0), BuildingBlock: FUNLAD_clean_linker_1, # of connection points: 2
#     Edge 19, Type (0, 0), BuildingBlock: FUNLAD_clean_linker_1, # of connection points: 2
#     Edge 20, Type (0, 0), BuildingBlock: FUNLAD_clean_linker_1, # of connection points: 2
#     Edge 21, Type (0, 0), BuildingBlock: FUNLAD_clean_linker_1, # of connection points: 2
#     Edge 22, Type (0, 0), BuildingBlock: FUNLAD_clean_linker_1, # of connection points: 2
#     Edge 23, Type (0, 0), BuildingBlock: FUNLAD_clean_linker_1, # of connection points: 2
# Relax obj value: 0.110
# Max RMSD: 0.137
# Mean RMSD: 0.134
data_MOF--net-uoj--node1-CEKHIL_clean_sbu_0--edge1-FUNLAD_clean_linker_1
_symmetry_space_group_name_H-M    P1
_symmetry_Int_Tables_number       1
_symmetry_cell_setting            triclinic
loop_
_symmetry_equiv_pos_as_xyz
'x, y, z'
_cell_length_a     34.310641
_cell_length_b     34.086599
_cell_length_c     36.587339
_cell_angle_alpha  90.062477
_cell_angle_beta   90.088373
_cell_angle_gamma 88.798455
loop_
_atom_site_label
_atom_site_type_symbol
_atom_site_fract_x
_atom_site_fract_y
_atom_site_fract_z
_atom_type_partial_charge
Co0 Co 0.07467 0.28952 0.44055 0.0
O1 O 0.11979 0.31704 0.42408 0.0
O2 O 0.06489 0.31104 0.39259 0.0
C3 C 0.10628 0.2357 0.46113 0.0
O4 O 0.02281 0.26264 0.44764 0.0
Co5 Co 0.06369 0.27005 0.52285 0.0
O6 O 0.01907 0.23922 0.50497 0.0
C7 C 0.04961 0.35068 0.49707 0.0
C8 C 0.09998 0.32461 0.39459 0.0
C9 C 0.00556 0.24306 0.47265 0.0
O10 O 0.0536 0.33891 0.46385 0.0
O11 O 0.05529 0.32851 0.52483 0.0
O12 O 0.09846 0.23925 0.42649 0.0
O13 O 0.09842 0.26595 0.48123 0.0
Co14 Co 0.28043 0.90394 0.56841 0.0
O15 O 0.23194 0.87687 0.56548 0.0
O16 O 0.2771 0.87632 0.52223 0.0
C17 C 0.29661 0.88617 0.62574 0.0
O18 O 0.33448 0.92704 0.56266 0.0
Co19 Co 0.28939 0.97189 0.62449 0.0
O20 O 0.34485 0.96857 0.60946 0.0
C21 C 0.24276 0.985 0.5581 0.0
C22 C 0.24298 0.86534 0.53322 0.0
C23 C 0.35657 0.94977 0.58124 0.0
O24 O 0.25473 0.95169 0.54551 0.0
O25 O 0.25062 0.99715 0.59035 0.0
O26 O 0.30363 0.86233 0.59865 0.0
O27 O 0.27631 0.91733 0.61792 0.0
Co28 Co 0.92182 0.70637 0.42223 0.0
O29 O 0.88008 0.6853 0.39373 0.0
O30 O 0.93944 0.69602 0.37265 0.0
C31 C 0.88687 0.75504 0.44868 0.0
O32 O 0.97167 0.72893 0.44384 0.0
Co33 Co 0.91642 0.70478 0.5074 0.0
O34 O 0.96122 0.74035 0.5038 0.0
C35 C 0.93718 0.63247 0.46726 0.0
C36 C 0.90436 0.68357 0.36668 0.0
C37 C 0.98187 0.74314 0.47504 0.0
O38 O 0.93853 0.65184 0.43722 0.0
O39 O 0.9264 0.64749 0.49781 0.0
O40 O 0.90072 0.75971 0.41594 0.0
O41 O 0.89102 0.7204 0.46237 0.0
Co42 Co 0.72143 0.07721 0.58598 0.0
O43 O 0.7694 0.10456 0.58944 0.0
O44 O 0.73042 0.1058 0.54097 0.0
C45 C 0.69876 0.09457 0.6414 0.0
O46 O 0.66854 0.05381 0.57423 0.0
Co47 Co 0.70856 0.00803 0.63923 0.0
O48 O 0.65613 0.00774 0.61664 0.0
C49 C 0.76026 0.99611 0.57657 0.0
C50 C 0.76249 0.11695 0.5566 0.0
C51 C 0.64639 0.02806 0.58873 0.0
O52 O 0.74997 0.03022 0.56474 0.0
O53 O 0.74941 0.98256 0.60744 0.0
O54 O 0.69464 0.11824 0.61378 0.0
O55 O 0.72002 0.06343 0.63564 0.0
Co56 Co 0.42702 0.79371 0.9347 0.0
O57 O 0.39249 0.81533 0.89813 0.0
O58 O 0.4551 0.80111 0.88943 0.0
C59 C 0.38655 0.74724 0.95403 0.0
O60 O 0.47121 0.76932 0.9649 0.0
Co61 Co 0.40562 0.79572 0.01682 0.0
O62 O 0.45007 0.75798 0.02199 0.0
C63 C 0.43475 0.86713 0.98161 0.0
C64 C 0.42204 0.81376 0.87604 0.0
C65 C 0.4756 0.75429 0.99695 0.0
O66 O 0.44067 0.84799 0.95172 0.0
O67 O 0.41901 0.85229 0.00994 0.0
O68 O 0.40798 0.74136 0.92524 0.0
O69 O 0.38753 0.78184 0.96837 0.0
Co70 Co 0.79713 0.58144 0.0541 0.0
O71 O 0.82586 0.62228 0.07751 0.0
O72 O 0.81389 0.56457 0.10245 0.0
C73 C 0.74746 0.61991 0.03415 0.0
O74 O 0.76726 0.53288 0.03824 0.0
Co75 Co 0.78472 0.58402 0.96991 0.0
O76 O 0.7461 0.54319 0.98063 0.0
C77 C 0.86073 0.55783 0.99941 0.0
C78 C 0.82947 0.59896 0.10529 0.0
C79 C 0.74667 0.52344 0.01016 0.0
O80 O 0.84677 0.5596 0.03201 0.0
O81 O 0.84153 0.56846 0.97097 0.0
O82 O 0.74787 0.60704 0.06756 0.0
O83 O 0.77859 0.61266 0.01532 0.0
Co84 Co 0.57289 0.22256 0.94155 0.0
O85 O 0.6117 0.20652 0.90643 0.0
O86 O 0.55045 0.22319 0.89312 0.0
C87 C 0.60986 0.26457 0.97319 0.0
O88 O 0.52511 0.24186 0.96972 0.0
Co89 Co 0.58386 0.20236 0.02323 0.0
O90 O 0.53393 0.23169 0.02999 0.0
C91 C 0.5602 0.14056 0.97269 0.0
C92 C 0.58452 0.21096 0.88193 0.0
C93 C 0.51381 0.24453 0.00315 0.0
O94 O 0.5572 0.16635 0.94729 0.0
O95 O 0.57303 0.14813 0.00474 0.0
O96 O 0.59295 0.27537 0.94292 0.0
O97 O 0.60749 0.22777 0.98137 0.0
Co98 Co 0.21216 0.43288 0.08656 0.0
O99 O 0.19154 0.39077 0.11481 0.0
O100 O 0.19799 0.45182 0.13475 0.0
C101 C 0.26456 0.40067 0.06461 0.0
O102 O 0.23412 0.48313 0.0656 0.0
Co103 Co 0.21459 0.42522 0.00234 0.0
O104 O 0.24393 0.47459 0.00519 0.0
C105 C 0.14008 0.44348 0.03772 0.0
C106 C 0.18729 0.41604 0.14106 0.0
C107 C 0.24669 0.49473 0.03441 0.0
O108 O 0.15819 0.44657 0.06827 0.0
O109 O 0.15668 0.4324 0.00806 0.0
O110 O 0.26514 0.41588 0.09712 0.0
O111 O 0.23112 0.40098 0.0481 0.0
H112 H 0.16085 0.37351 0.17777 0.0
C113 C 0.17115 0.40343 0.1762 0.0
H114 H 0.17953 0.45625 0.20525 0.0
H115 H 0.05406 0.41165 0.3257 0.0
H116 H 0.02539 0.47109 0.29975 0.0
H117 H 0.05531 0.50293 0.24651 0.0
H118 H 0.11441 0.47583 0.21915 0.0
C119 C 0.17012 0.42603 0.20625 0.0
C120 C 0.15487 0.40994 0.24118 0.0
C121 C 0.12033 0.42612 0.25676 0.0
C122 C 0.10268 0.40734 0.28707 0.0
C123 C 0.06838 0.42436 0.30234 0.0
C124 C 0.05165 0.45852 0.28776 0.0
C125 C 0.06851 0.47647 0.2578 0.0
C126 C 0.10243 0.46058 0.24234 0.0
H127 H 0.14653 0.35835 0.36885 0.0
C128 C 0.11748 0.347 0.36467 0.0
H129 H 0.07043 0.34143 0.3279 0.0
H130 H 0.22591 0.37683 0.22376 0.0
H131 H 0.25348 0.316 0.24777 0.0
H132 H 0.21866 0.27861 0.2948 0.0
H133 H 0.15695 0.30244 0.31888 0.0
C134 C 0.09982 0.35182 0.33217 0.0
C135 C 0.11936 0.37214 0.30141 0.0
C136 C 0.15431 0.35629 0.2861 0.0
C137 C 0.17293 0.37621 0.25708 0.0
C138 C 0.20941 0.36159 0.24432 0.0
C139 C 0.22574 0.3269 0.25808 0.0
C140 C 0.20625 0.30598 0.28468 0.0
C141 C 0.17094 0.32028 0.29856 0.0
H142 H 0.30251 0.89945 0.68434 0.0
C143 C 0.31269 0.87998 0.66265 0.0
H144 H 0.34982 0.83215 0.64869 0.0
H145 H 0.41318 0.8996 0.81041 0.0
H146 H 0.4303 0.95847 0.77735 0.0
H147 H 0.41417 0.96589 0.71197 0.0
H148 H 0.38087 0.91452 0.67921 0.0
C149 C 0.3398 0.85211 0.67003 0.0
C150 C 0.35439 0.84584 0.70802 0.0
C151 C 0.37548 0.87544 0.72632 0.0
C152 C 0.38575 0.87071 0.7638 0.0
C153 C 0.40529 0.90139 0.78182 0.0
C154 C 0.41523 0.93536 0.76319 0.0
C155 C 0.40606 0.93959 0.72639 0.0
C156 C 0.38667 0.90998 0.70797 0.0
H157 H 0.44296 0.82119 0.81925 0.0
C158 C 0.41759 0.82348 0.83692 0.0
H159 H 0.35667 0.83291 0.83996 0.0
H160 H 0.31667 0.78216 0.6804 0.0
H161 H 0.30202 0.7223 0.71284 0.0
H162 H 0.32131 0.7135 0.77734 0.0
H163 H 0.35527 0.76462 0.80983 0.0
C164 C 0.38237 0.8323 0.82262 0.0
C165 C 0.37579 0.836 0.78258 0.0
C166 C 0.35656 0.80559 0.76375 0.0
C167 C 0.34587 0.81048 0.72644 0.0
C168 C 0.32588 0.77991 0.70862 0.0
C169 C 0.31722 0.74537 0.72693 0.0
C170 C 0.32804 0.74043 0.76326 0.0
C171 C 0.34744 0.77008 0.7816 0.0
H172 H 0.86148 0.65826 0.32943 0.0
C173 C 0.89155 0.66755 0.3313 0.0
H174 H 0.94511 0.67178 0.30335 0.0
H175 H 0.90235 0.54298 0.18505 0.0
H176 H 0.95714 0.51175 0.21638 0.0
H177 H 0.98556 0.54174 0.27142 0.0
H178 H 0.95972 0.60341 0.29529 0.0
C179 C 0.9146 0.66402 0.30179 0.0
C180 C 0.89909 0.64722 0.26705 0.0
C181 C 0.91435 0.61101 0.25356 0.0
C182 C 0.89752 0.59334 0.2221 0.0
C183 C 0.91372 0.55746 0.20902 0.0
C184 C 0.94518 0.53922 0.22673 0.0
C185 C 0.96121 0.55613 0.25771 0.0
C186 C 0.94609 0.59157 0.27111 0.0
H187 H 0.86315 0.64103 0.13721 0.0
C188 C 0.84932 0.61265 0.13857 0.0
H189 H 0.83519 0.56506 0.17267 0.0
H190 H 0.86725 0.72011 0.28122 0.0
H191 H 0.81042 0.74972 0.25206 0.0
H192 H 0.77631 0.71538 0.20242 0.0
H193 H 0.79955 0.65191 0.18095 0.0
C194 C 0.84834 0.5937 0.17071 0.0
C195 C 0.8652 0.61168 0.20435 0.0
C196 C 0.8496 0.64767 0.21819 0.0
C197 C 0.86754 0.66618 0.24855 0.0
C198 C 0.8534 0.70367 0.25969 0.0
C199 C 0.82099 0.7212 0.24297 0.0
C200 C 0.80192 0.70197 0.21491 0.0
C201 C 0.81586 0.66565 0.20259 0.0
H202 H 0.56786 0.20538 0.82379 0.0
C203 C 0.5914 0.20074 0.84333 0.0
H204 H 0.64938 0.1804 0.85146 0.0
H205 H 0.60949 0.08533 0.69944 0.0
H206 H 0.56628 0.04707 0.73706 0.0
H207 H 0.55364 0.06545 0.80127 0.0
H208 H 0.58361 0.12254 0.82805 0.0
C209 C 0.6254 0.18451 0.83231 0.0
C210 C 0.63241 0.17331 0.7936 0.0
C211 C 0.61536 0.13924 0.77874 0.0
C212 C 0.62378 0.12779 0.74214 0.0
C213 C 0.60518 0.09457 0.72747 0.0
C214 C 0.58012 0.07247 0.74869 0.0
C215 C 0.57291 0.08289 0.78481 0.0
C216 C 0.59023 0.11584 0.79981 0.0
H217 H 0.69031 0.08488 0.70048 0.0
C218 C 0.68284 0.10411 0.67774 0.0
H219 H 0.65469 0.15675 0.66099 0.0
H220 H 0.66851 0.24093 0.81347 0.0
H221 H 0.71245 0.27872 0.77617 0.0
H222 H 0.7287 0.25782 0.71335 0.0
H223 H 0.70105 0.19918 0.68739 0.0
C224 C 0.66124 0.13687 0.68349 0.0
C225 C 0.65021 0.14972 0.72099 0.0
C226 C 0.66673 0.18413 0.7357 0.0
C227 C 0.65778 0.19592 0.77205 0.0
C228 C 0.67463 0.23042 0.78611 0.0
C229 C 0.69985 0.25244 0.76499 0.0
C230 C 0.70896 0.2407 0.72961 0.0
C231 C 0.69277 0.20696 0.71501 0.0
H232 H 0.21415 0.00072 0.50578 0.0
C233 C 0.22001 0.01089 0.53339 0.0
H234 H 0.21252 0.05726 0.57133 0.0
H235 H 0.19378 0.16217 0.42218 0.0
H236 H 0.26181 0.14546 0.41104 0.0
H237 H 0.29643 0.09625 0.44916 0.0
H238 H 0.26326 0.06335 0.49841 0.0
C239 C 0.20784 0.04695 0.54359 0.0
C240 C 0.1865 0.07368 0.51816 0.0
C241 C 0.20652 0.09251 0.48938 0.0
C242 C 0.18677 0.12132 0.46776 0.0
C243 C 0.20743 0.14014 0.43949 0.0
C244 C 0.24649 0.13084 0.43281 0.0
C245 C 0.26596 0.1031 0.45424 0.0
C246 C 0.24645 0.08424 0.48235 0.0
H247 H 0.12792 0.1993 0.50656 0.0
C248 C 0.12194 0.1993 0.47736 0.0
H249 H 0.12463 0.16651 0.4283 0.0
H250 H 0.13895 0.04041 0.56893 0.0
H251 H 0.07028 0.05573 0.57859 0.0
H252 H 0.03591 0.10517 0.54047 0.0
H253 H 0.07009 0.13975 0.49262 0.0
C254 C 0.12934 0.16678 0.45767 0.0
C255 C 0.14747 0.13177 0.47553 0.0
C256 C 0.12683 0.11119 0.50274 0.0
C257 C 0.14649 0.08235 0.52432 0.0
C258 C 0.12541 0.0627 0.55179 0.0
C259 C 0.08597 0.07111 0.55754 0.0
C260 C 0.06663 0.09897 0.53611 0.0
C261 C 0.08664 0.1188 0.50893 0.0
H262 H 0.22709 0.83363 0.48249 0.0
C263 C 0.21698 0.84251 0.50945 0.0
H264 H 0.17065 0.84247 0.54735 0.0
H265 H 0.05136 0.82242 0.41304 0.0
H266 H 0.06916 0.88855 0.39565 0.0
H267 H 0.12529 0.92054 0.42449 0.0
H268 H 0.16407 0.88672 0.47071 0.0
C269 C 0.18064 0.83416 0.5202 0.0
C270 C 0.15268 0.81258 0.49693 0.0
C271 C 0.13085 0.83261 0.46947 0.0
C272 C 0.09824 0.81434 0.45304 0.0
C273 C 0.07627 0.83517 0.42639 0.0
C274 C 0.0862 0.87304 0.41617 0.0
C275 C 0.11783 0.89104 0.4324 0.0
C276 C 0.1399 0.87128 0.45887 0.0
H277 H 0.02622 0.77393 0.50649 0.0
C278 C 0.02005 0.76155 0.47971 0.0
H279 H 0.04361 0.74934 0.42725 0.0
H280 H 0.19168 0.76434 0.54477 0.0
H281 H 0.17527 0.69732 0.56018 0.0
H282 H 0.11914 0.6655 0.53113 0.0
H283 H 0.07895 0.70059 0.48662 0.0
C284 C 0.04835 0.76125 0.4544 0.0
C285 C 0.08734 0.77646 0.46445 0.0
C286 C 0.11128 0.75517 0.48941 0.0
C287 C 0.14381 0.77337 0.50588 0.0
C288 C 0.16652 0.75187 0.53158 0.0
C289 C 0.15751 0.71338 0.54055 0.0
C290 C 0.1259 0.69547 0.52421 0.0
C291 C 0.10297 0.71597 0.49889 0.0
H292 H 0.79352 0.98352 0.52622 0.0
C293 C 0.78395 0.97105 0.55196 0.0
H294 H 0.78267 0.91992 0.5846 0.0
H295 H 0.80721 0.84153 0.42085 0.0
H296 H 0.7419 0.86659 0.40803 0.0
H297 H 0.7075 0.90976 0.45208 0.0
H298 H 0.73818 0.92835 0.50897 0.0
C299 C 0.79143 0.93297 0.55889 0.0
C300 C 0.81208 0.90747 0.53186 0.0
C301 C 0.79338 0.89666 0.49879 0.0
C302 C 0.81284 0.87111 0.47372 0.0
C303 C 0.79363 0.86069 0.44093 0.0
C304 C 0.75615 0.87484 0.43323 0.0
C305 C 0.73681 0.8992 0.458 0.0
C306 C 0.75494 0.9099 0.4905 0.0
H307 H 0.85986 0.78046 0.49786 0.0
C308 C 0.87025 0.78736 0.47059 0.0
H309 H 0.87733 0.83199 0.43119 0.0
H310 H 0.85652 0.92362 0.59199 0.0
H311 H 0.92209 0.89888 0.60437 0.0
H312 H 0.95591 0.85483 0.56062 0.0
H313 H 0.92432 0.83516 0.5043 0.0
C314 C 0.86806 0.82451 0.45864 0.0
C315 C 0.85035 0.85557 0.48225 0.0
C316 C 0.86951 0.86732 0.51471 0.0
C317 C 0.85021 0.89306 0.53969 0.0
C318 C 0.86984 0.90405 0.57209 0.0
C319 C 0.9075 0.89014 0.57949 0.0
C320 C 0.92653 0.86531 0.55488 0.0
C321 C 0.90796 0.85403 0.52278 0.0
H322 H 0.8137 0.15373 0.55637 0.0
C323 C 0.79128 0.14174 0.53878 0.0
H324 H 0.77363 0.13304 0.48397 0.0
H325 H 0.90767 0.27428 0.50351 0.0
H326 H 0.85309 0.31513 0.52428 0.0
H327 H 0.78679 0.28858 0.52768 0.0
H328 H 0.77475 0.22083 0.51043 0.0
C329 C 0.79396 0.14684 0.50253 0.0
C330 C 0.82907 0.16652 0.4881 0.0
C331 C 0.83534 0.20638 0.49681 0.0
C332 C 0.87341 0.2217 0.49454 0.0
C333 C 0.87924 0.26119 0.50482 0.0
C334 C 0.84817 0.28494 0.51666 0.0
C335 C 0.81084 0.26998 0.5186 0.0
C336 C 0.80433 0.23113 0.50884 0.0
H337 H 0.95592 0.22921 0.43631 0.0
C338 C 0.96728 0.22627 0.46394 0.0
H339 H 0.95581 0.20787 0.51791 0.0
H340 H 0.82489 0.09166 0.46185 0.0
H341 H 0.87866 0.0519 0.4377 0.0
H342 H 0.9449 0.07845 0.4338 0.0
H343 H 0.95784 0.14492 0.45399 0.0
C344 C 0.9454 0.20979 0.4899 0.0
C345 C 0.90491 0.19721 0.48303 0.0
C346 C 0.89777 0.15885 0.47012 0.0
C347 C 0.85961 0.14352 0.47246 0.0
C348 C 0.85338 0.10461 0.46069 0.0
C349 C 0.88394 0.08157 0.44674 0.0
C350 C 0.92125 0.09652 0.44454 0.0
C351 C 0.9283 0.13466 0.4562 0.0
H352 H 0.2874 0.53898 0.05471 0.0
C353 C 0.26772 0.53182 0.03251 0.0
H354 H 0.24484 0.54702 0.9811 0.0
H355 H 0.35899 0.69471 0.03812 0.0
H356 H 0.3201 0.69796 0.09335 0.0
H357 H 0.26585 0.65267 0.10273 0.0
H358 H 0.25149 0.60275 0.05774 0.0
C359 C 0.2651 0.55474 0.00271 0.0
C360 C 0.2931 0.58661 0.99516 0.0
C361 C 0.29854 0.61787 0.02022 0.0
C362 C 0.32722 0.64644 0.01316 0.0
C363 C 0.33548 0.67428 0.04073 0.0
C364 C 0.31367 0.67618 0.07277 0.0
C365 C 0.28331 0.65052 0.07816 0.0
C366 C 0.27567 0.62168 0.05227 0.0
H367 H 0.33345 0.72515 0.97981 0.0
C368 C 0.36185 0.71658 0.96902 0.0
H369 H 0.40255 0.6711 0.95874 0.0
H370 H 0.29306 0.52885 0.9425 0.0
H371 H 0.32788 0.52904 0.8852 0.0
H372 H 0.37056 0.58366 0.86912 0.0
H373 H 0.37939 0.63783 0.91068 0.0
C374 C 0.37371 0.67881 0.9691 0.0
C375 C 0.34709 0.64648 0.97911 0.0
C376 C 0.34095 0.61577 0.95364 0.0
C377 C 0.31483 0.58526 0.96213 0.0
C378 C 0.31119 0.55373 0.93706 0.0
C379 C 0.33124 0.55327 0.90402 0.0
C380 C 0.35535 0.58393 0.89503 0.0
C381 C 0.36026 0.61485 0.91937 0.0
H382 H 0.71505 0.65053 0.99007 0.0
C383 C 0.71319 0.64011 0.01806 0.0
H384 H 0.67843 0.63649 0.06544 0.0
H385 H 0.57048 0.78234 0.02597 0.0
H386 H 0.61075 0.8101 0.07353 0.0
H387 H 0.66765 0.7732 0.09795 0.0
H388 H 0.68476 0.70845 0.07473 0.0
C389 C 0.68013 0.64581 0.0371 0.0
C390 C 0.64619 0.66797 0.02157 0.0
C391 C 0.63623 0.70552 0.03586 0.0
C392 C 0.60304 0.72649 0.02225 0.0
C393 C 0.59463 0.76456 0.0361 0.0
C394 C 0.6177 0.78101 0.06322 0.0
C395 C 0.64976 0.76026 0.07693 0.0
C396 C 0.65917 0.72304 0.06342 0.0
H397 H 0.51507 0.7214 0.03386 0.0
C398 C 0.51226 0.7333 0.00638 0.0
H399 H 0.54018 0.7403 0.95532 0.0
H400 H 0.65634 0.596 0.98891 0.0
H401 H 0.61655 0.56876 0.94076 0.0
H402 H 0.55945 0.60559 0.91663 0.0
H403 H 0.5417 0.66987 0.94072 0.0
C404 C 0.54245 0.72956 0.98321 0.0
C405 C 0.5793 0.70944 0.99497 0.0
C406 C 0.58989 0.67241 0.97992 0.0
C407 C 0.62318 0.65143 0.99346 0.0
C408 C 0.63202 0.6137 0.97905 0.0
C409 C 0.60925 0.59758 0.95153 0.0
C410 C 0.57708 0.61829 0.93798 0.0
C411 C 0.56725 0.65519 0.95202 0.0
H412 H 0.70721 0.48129 0.98535 0.0
C413 C 0.72442 0.48691 0.00976 0.0
H414 H 0.74336 0.46322 0.06051 0.0
H415 H 0.59523 0.34904 0.04359 0.0
H416 H 0.57355 0.38977 0.09459 0.0
H417 H 0.61319 0.44482 0.11618 0.0
H418 H 0.67483 0.45954 0.08688 0.0
C419 C 0.72671 0.459 0.0356 0.0
C420 C 0.70747 0.42083 0.02885 0.0
C421 C 0.67222 0.41203 0.04685 0.0
C422 C 0.64938 0.38025 0.03441 0.0
C423 C 0.61362 0.37283 0.05202 0.0
C424 C 0.60091 0.39595 0.08129 0.0
C425 C 0.62324 0.42696 0.09345 0.0
C426 C 0.65846 0.43515 0.07642 0.0
H427 H 0.64906 0.28087 0.01875 0.0
C428 C 0.6327 0.29206 0.99541 0.0
H429 H 0.61927 0.34116 0.96224 0.0
H430 H 0.77775 0.42448 0.99402 0.0
H431 H 0.80055 0.38246 0.94445 0.0
H432 H 0.76022 0.32847 0.92174 0.0
H433 H 0.69704 0.31595 0.94867 0.0
C434 C 0.63506 0.33 0.98593 0.0
C435 C 0.66209 0.35735 0.00418 0.0
C436 C 0.69897 0.36405 0.98831 0.0
C437 C 0.7219 0.39555 0.00096 0.0
C438 C 0.75878 0.40149 0.9848 0.0
C439 C 0.7723 0.37746 0.95651 0.0
C440 C 0.74961 0.34704 0.94376 0.0
C441 C 0.71337 0.34024 0.95938 0.0
H442 H 0.4608 0.25181 0.03607 0.0
C443 C 0.47516 0.2617 0.01137 0.0
H444 H 0.47282 0.30037 0.96649 0.0
H445 H 0.29195 0.33487 0.96477 0.0
H446 H 0.30459 0.3117 0.90317 0.0
H447 H 0.36942 0.28518 0.88593 0.0
H448 H 0.42223 0.28241 0.92989 0.0
C449 C 0.4584 0.29025 0.99106 0.0
C450 C 0.41955 0.30775 0.00109 0.0
C451 C 0.38864 0.30808 0.97523 0.0
C452 C 0.35085 0.32229 0.98546 0.0
C453 C 0.32097 0.32371 0.95872 0.0
C454 C 0.32782 0.31053 0.92321 0.0
C455 C 0.36434 0.29564 0.9135 0.0
C456 C 0.39447 0.2943 0.93906 0.0
H457 H 0.32677 0.40391 0.05253 0.0
C458 C 0.30089 0.38682 0.04755 0.0
H459 H 0.27884 0.33353 0.02795 0.0
H460 H 0.47378 0.32299 0.0545 0.0
H461 H 0.46007 0.33957 0.1177 0.0
H462 H 0.39228 0.34931 0.13888 0.0
H463 H 0.33827 0.34497 0.09643 0.0
C464 C 0.30447 0.35121 0.03216 0.0
C465 C 0.34362 0.33469 0.02188 0.0
C466 C 0.37422 0.33266 0.04811 0.0
C467 C 0.41269 0.32225 0.03698 0.0
C468 C 0.44356 0.32683 0.06232 0.0
C469 C 0.43615 0.33685 0.0986 0.0
C470 C 0.39806 0.34264 0.11043 0.0
C471 C 0.36734 0.34057 0.08563 0.0
H472 H 0.95751 0.57841 0.43968 0.0
C473 C 0.95016 0.59111 0.46615 0.0
H474 H 0.94989 0.582 0.52337 0.0
H475 H 0.96036 0.40218 0.45101 0.0
H476 H 0.89303 0.41406 0.43325 0.0
H477 H 0.86106 0.47859 0.44378 0.0
H478 H 0.89634 0.53163 0.47206 0.0
C479 C 0.95524 0.56948 0.49647 0.0
C480 C 0.97272 0.52943 0.49399 0.0
C481 C 0.95148 0.49867 0.47787 0.0
C482 C 0.96979 0.46144 0.47216 0.0
C483 C 0.94798 0.43117 0.45587 0.0
C484 C 0.90925 0.43754 0.44563 0.0
C485 C 0.89126 0.47387 0.45152 0.0
C486 C 0.91193 0.50414 0.46756 0.0
H487 H 0.03078 0.40055 0.53182 0.0
C488 C 0.03592 0.39126 0.50376 0.0
H489 H 0.03154 0.40692 0.44798 0.0
H490 H 0.02066 0.58174 0.52758 0.0
H491 H 0.08789 0.56987 0.54575 0.0
H492 H 0.12011 0.50553 0.5349 0.0
H493 H 0.08527 0.45268 0.50593 0.0
C494 C 0.02792 0.41616 0.47624 0.0
C495 C 0.00905 0.45498 0.48309 0.0
C496 C 0.03002 0.48548 0.50001 0.0
C497 C 0.01164 0.5227 0.5058 0.0
C498 C 0.03321 0.55287 0.5225 0.0
C499 C 0.07185 0.54647 0.53304 0.0
C500 C 0.08997 0.51024 0.52696 0.0
C501 C 0.06952 0.48006 0.51051 0.0
H502 H 0.58957 0.04947 0.56729 0.0
C503 C 0.60653 0.02335 0.57457 0.0
H504 H 0.60763 0.9624 0.58272 0.0
H505 H 0.44083 0.94279 0.64471 0.0
H506 H 0.4823 0.92126 0.6949 0.0
H507 H 0.55336 0.92971 0.69243 0.0
H508 H 0.58359 0.95858 0.63964 0.0
C509 C 0.58976 0.98806 0.5758 0.0
C510 C 0.54665 0.98373 0.57665 0.0
C511 C 0.52939 0.96767 0.60843 0.0
C512 C 0.48827 0.96419 0.61052 0.0
C513 C 0.47186 0.94703 0.64209 0.0
C514 C 0.49527 0.93448 0.67109 0.0
C515 C 0.53531 0.93907 0.66963 0.0
C516 C 0.55231 0.95554 0.63888 0.0
H517 H 0.40953 0.93312 0.54966 0.0
C518 C 0.39782 0.95312 0.57025 0.0
H519 H 0.41005 0.99829 0.60783 0.0
H520 H 0.5704 0.00982 0.50966 0.0
H521 H 0.52864 0.03207 0.45988 0.0
H522 H 0.45703 0.03074 0.46555 0.0
H523 H 0.42673 0.00643 0.52076 0.0
C524 C 0.42137 0.97889 0.58659 0.0
C525 C 0.46432 0.97786 0.58145 0.0
C526 C 0.48147 0.9931 0.54937 0.0
C527 C 0.52279 0.99532 0.54667 0.0
C528 C 0.53922 0.00896 0.51371 0.0
C529 C 0.51558 0.02154 0.48483 0.0
C530 C 0.47525 0.0207 0.48799 0.0
C531 C 0.45822 0.00664 0.51981 0.0
H532 H 0.53866 0.09451 0.93598 0.0
C533 C 0.54636 0.10094 0.96418 0.0
H534 H 0.54567 0.08022 0.01866 0.0
H535 H 0.40401 0.97129 0.97074 0.0
H536 H 0.36715 0.02675 0.99527 0.0
H537 H 0.4002 0.08718 0.01394 0.0
H538 H 0.47027 0.09265 0.00767 0.0
C539 C 0.54006 0.07395 0.99003 0.0
C540 C 0.52078 0.03668 0.98056 0.0
C541 C 0.48003 0.0335 0.98556 0.0
C542 C 0.46118 0.9982 0.97596 0.0
C543 C 0.42009 0.99671 0.97917 0.0
C544 C 0.39851 0.02851 0.99286 0.0
C545 C 0.41709 0.06256 0.00328 0.0
C546 C 0.45734 0.06528 0.99958 0.0
H547 H 0.44718 0.92145 0.01159 0.0
C548 C 0.44876 0.90756 0.98484 0.0
H549 H 0.46761 0.91308 0.93021 0.0
H550 H 0.59903 0.03396 0.96652 0.0
H551 H 0.63612 0.97867 0.94177 0.0
H552 H 0.60396 0.9166 0.92685 0.0
H553 H 0.53462 0.90945 0.93634 0.0
C554 C 0.4649 0.92691 0.95689 0.0
C555 C 0.48344 0.96554 0.96287 0.0
C556 C 0.52411 0.96914 0.95702 0.0
C557 C 0.54275 0.00482 0.96581 0.0
C558 C 0.58341 0.00757 0.9601 0.0
C559 C 0.60507 0.97603 0.94602 0.0
C560 C 0.58696 0.94109 0.93762 0.0
C561 C 0.54703 0.93744 0.94314 0.0
H562 H 0.08532 0.46397 0.06324 0.0
C563 C 0.0985 0.45523 0.03737 0.0
H564 H 0.09014 0.45111 0.98024 0.0
H565 H 0.9111 0.46695 0.05279 0.0
H566 H 0.92349 0.4014 0.07623 0.0
H567 H 0.9876 0.36854 0.06786 0.0
H568 H 0.03974 0.40115 0.03602 0.0
C569 C 0.0772 0.45797 0.00663 0.0
C570 C 0.03711 0.47547 0.00776 0.0
C571 C 0.00676 0.4558 0.02596 0.0
C572 C 0.96972 0.47464 0.03047 0.0
C573 C 0.93994 0.45425 0.04879 0.0
C574 C 0.94659 0.4165 0.06228 0.0
C575 C 0.98268 0.39801 0.0576 0.0
C576 C 0.01246 0.41719 0.03951 0.0
H577 H 0.91038 0.5362 0.96618 0.0
C578 C 0.90045 0.54148 0.994 0.0
H579 H 0.91434 0.53681 0.05009 0.0
H580 H 0.08823 0.52009 0.96923 0.0
H581 H 0.07625 0.58584 0.94608 0.0
H582 H 0.01292 0.6197 0.95602 0.0
H583 H 0.96114 0.58792 0.98879 0.0
C584 C 0.92423 0.53253 0.02213 0.0
C585 C 0.96295 0.51297 0.01642 0.0
C586 C 0.99318 0.53242 0.9977 0.0
C587 C 0.03007 0.51331 0.99281 0.0
C588 C 0.05971 0.53326 0.97388 0.0
C589 C 0.05327 0.57107 0.96049 0.0
C590 C 0.01759 0.59009 0.96602 0.0
C591 C 0.98792 0.57128 0.9846 0.0
loop_
_geom_bond_atom_site_label_1
_geom_bond_atom_site_label_2
_geom_bond_distance
_geom_bond_site_symmetry_2
_ccdc_geom_bond_type
Co0 O1 2.216 . S
Co0 O2 2.091 . S
Co0 O4 2.004 . S
Co0 O10 2.021 . S
Co0 O12 2.137 . S
Co0 O13 2.244 . S
O1 Co0 2.216 . S
O1 C8 1.247 . S
O2 Co0 2.091 . S
O2 C8 1.261 . S
C3 O12 1.247 . S
C3 O13 1.272 . S
O4 Co0 2.004 . S
O4 C9 1.259 . S
Co5 O6 2.061 . S
Co5 O11 2.052 . S
Co5 O13 2.135 . S
O6 Co5 2.061 . S
O6 C9 1.235 . S
C7 O10 1.238 . S
C7 O11 1.241 . S
C8 O1 1.247 . S
C8 O2 1.261 . S
C9 O4 1.259 . S
C9 O6 1.235 . S
O10 Co0 2.021 . S
O10 C7 1.238 . S
O11 Co5 2.052 . S
O11 C7 1.241 . S
O12 Co0 2.137 . S
O12 C3 1.247 . S
O13 Co0 2.244 . S
O13 C3 1.272 . S
O13 Co5 2.135 . S
Co14 O15 2.216 . S
Co14 O16 2.091 . S
Co14 O18 2.004 . S
Co14 O24 2.021 . S
Co14 O26 2.137 . S
Co14 O27 2.244 . S
O15 Co14 2.216 . S
O15 C22 1.247 . S
O16 Co14 2.091 . S
O16 C22 1.261 . S
C17 O26 1.247 . S
C17 O27 1.272 . S
O18 Co14 2.004 . S
O18 C23 1.259 . S
Co19 O20 2.061 . S
Co19 O25 2.052 1_565 S
Co19 O27 2.135 . S
O20 Co19 2.061 . S
O20 C23 1.235 . S
C21 O24 1.238 . S
C21 O25 1.241 1_565 S
C22 O15 1.247 . S
C22 O16 1.261 . S
C23 O18 1.259 . S
C23 O20 1.235 . S
O24 Co14 2.021 . S
O24 C21 1.238 . S
O25 Co19 2.052 1_545 S
O25 C21 1.241 1_545 S
O26 Co14 2.137 . S
O26 C17 1.247 . S
O27 Co14 2.244 . S
O27 C17 1.272 . S
O27 Co19 2.135 . S
Co28 O29 2.216 . S
Co28 O30 2.091 . S
Co28 O32 2.004 . S
Co28 O38 2.021 . S
Co28 O40 2.137 . S
Co28 O41 2.244 . S
O29 Co28 2.216 . S
O29 C36 1.247 . S
O30 Co28 2.091 . S
O30 C36 1.261 . S
C31 O40 1.247 . S
C31 O41 1.272 . S
O32 Co28 2.004 . S
O32 C37 1.259 . S
Co33 O34 2.061 . S
Co33 O39 2.052 . S
Co33 O41 2.135 . S
O34 Co33 2.061 . S
O34 C37 1.235 . S
C35 O38 1.238 . S
C35 O39 1.241 . S
C36 O29 1.247 . S
C36 O30 1.261 . S
C37 O32 1.259 . S
C37 O34 1.235 . S
O38 Co28 2.021 . S
O38 C35 1.238 . S
O39 Co33 2.052 . S
O39 C35 1.241 . S
O40 Co28 2.137 . S
O40 C31 1.247 . S
O41 Co28 2.244 . S
O41 C31 1.272 . S
O41 Co33 2.135 . S
Co42 O43 2.216 . S
Co42 O44 2.091 . S
Co42 O46 2.004 . S
Co42 O52 2.021 . S
Co42 O54 2.137 . S
Co42 O55 2.244 . S
O43 Co42 2.216 . S
O43 C50 1.247 . S
O44 Co42 2.091 . S
O44 C50 1.261 . S
C45 O54 1.247 . S
C45 O55 1.272 . S
O46 Co42 2.004 . S
O46 C51 1.259 . S
Co47 O48 2.061 . S
Co47 O53 2.052 1_545 S
Co47 O55 2.135 . S
O48 Co47 2.061 . S
O48 C51 1.235 . S
C49 O52 1.238 . S
C49 O53 1.241 1_545 S
C50 O43 1.247 . S
C50 O44 1.261 . S
C51 O46 1.259 . S
C51 O48 1.235 . S
O52 Co42 2.021 . S
O52 C49 1.238 . S
O53 Co47 2.052 1_565 S
O53 C49 1.241 1_565 S
O54 Co42 2.137 . S
O54 C45 1.247 . S
O55 Co42 2.244 . S
O55 C45 1.272 . S
O55 Co47 2.135 . S
Co56 O57 2.216 . S
Co56 O58 2.091 . S
Co56 O60 2.004 . S
Co56 O66 2.021 . S
Co56 O68 2.137 . S
Co56 O69 2.244 . S
O57 Co56 2.216 . S
O57 C64 1.247 . S
O58 Co56 2.091 . S
O58 C64 1.261 . S
C59 O68 1.247 . S
C59 O69 1.272 . S
O60 Co56 2.004 . S
O60 C65 1.259 . S
Co61 O62 2.061 . S
Co61 O67 2.052 . S
Co61 O69 2.135 1_554 S
O62 Co61 2.061 . S
O62 C65 1.235 1_554 S
C63 O66 1.238 . S
C63 O67 1.241 1_556 S
C64 O57 1.247 . S
C64 O58 1.261 . S
C65 O60 1.259 . S
C65 O62 1.235 1_556 S
O66 Co56 2.021 . S
O66 C63 1.238 . S
O67 Co61 2.052 . S
O67 C63 1.241 1_554 S
O68 Co56 2.137 . S
O68 C59 1.247 . S
O69 Co56 2.244 . S
O69 C59 1.272 . S
O69 Co61 2.135 1_556 S
Co70 O71 2.216 . S
Co70 O72 2.091 . S
Co70 O74 2.004 . S
Co70 O80 2.021 . S
Co70 O82 2.137 . S
Co70 O83 2.244 . S
O71 Co70 2.216 . S
O71 C78 1.247 . S
O72 Co70 2.091 . S
O72 C78 1.261 . S
C73 O82 1.247 . S
C73 O83 1.272 . S
O74 Co70 2.004 . S
O74 C79 1.259 . S
Co75 O76 2.061 . S
Co75 O81 2.052 . S
Co75 O83 2.135 1_556 S
O76 Co75 2.061 . S
O76 C79 1.235 1_556 S
C77 O80 1.238 . S
C77 O81 1.241 1_554 S
C78 O71 1.247 . S
C78 O72 1.261 . S
C79 O74 1.259 . S
C79 O76 1.235 1_554 S
O80 Co70 2.021 . S
O80 C77 1.238 . S
O81 Co75 2.052 . S
O81 C77 1.241 1_556 S
O82 Co70 2.137 . S
O82 C73 1.247 . S
O83 Co70 2.244 . S
O83 C73 1.272 . S
O83 Co75 2.135 1_554 S
Co84 O85 2.216 . S
Co84 O86 2.091 . S
Co84 O88 2.004 . S
Co84 O94 2.021 . S
Co84 O96 2.137 . S
Co84 O97 2.244 . S
O85 Co84 2.216 . S
O85 C92 1.247 . S
O86 Co84 2.091 . S
O86 C92 1.261 . S
C87 O96 1.247 . S
C87 O97 1.272 . S
O88 Co84 2.004 . S
O88 C93 1.259 . S
Co89 O90 2.061 . S
Co89 O95 2.052 . S
Co89 O97 2.135 1_554 S
O90 Co89 2.061 . S
O90 C93 1.235 1_554 S
C91 O94 1.238 . S
C91 O95 1.241 1_556 S
C92 O85 1.247 . S
C92 O86 1.261 . S
C93 O88 1.259 . S
C93 O90 1.235 1_556 S
O94 Co84 2.021 . S
O94 C91 1.238 . S
O95 Co89 2.052 . S
O95 C91 1.241 1_554 S
O96 Co84 2.137 . S
O96 C87 1.247 . S
O97 Co84 2.244 . S
O97 C87 1.272 . S
O97 Co89 2.135 1_556 S
Co98 O99 2.216 . S
Co98 O100 2.091 . S
Co98 O102 2.004 . S
Co98 O108 2.021 . S
Co98 O110 2.137 . S
Co98 O111 2.244 . S
O99 Co98 2.216 . S
O99 C106 1.247 . S
O100 Co98 2.091 . S
O100 C106 1.261 . S
C101 O110 1.247 . S
C101 O111 1.272 . S
O102 Co98 2.004 . S
O102 C107 1.259 . S
Co103 O104 2.061 . S
Co103 O109 2.052 . S
Co103 O111 2.135 1_556 S
O104 Co103 2.061 . S
O104 C107 1.235 1_556 S
C105 O108 1.238 . S
C105 O109 1.241 1_554 S
C106 O99 1.247 . S
C106 O100 1.261 . S
C107 O102 1.259 . S
C107 O104 1.235 1_554 S
O108 Co98 2.021 . S
O108 C105 1.238 . S
O109 Co103 2.052 . S
O109 C105 1.241 1_556 S
O110 Co98 2.137 . S
O110 C101 1.247 . S
O111 Co98 2.244 . S
O111 C101 1.272 . S
O111 Co103 2.135 1_554 S
H112 C113 0.951 . S
C113 H112 0.951 . S
C113 C119 1.265 . S
H114 C119 0.950 . S
H115 C123 0.949 . S
H116 C124 0.950 . S
H117 C125 0.951 . S
H118 C126 0.951 . S
C119 C113 1.265 . S
C119 H114 0.950 . S
C119 C120 1.478 . S
C120 C119 1.478 . S
C120 C121 1.397 . S
C120 C137 1.394 . S
C121 C120 1.397 . S
C121 C122 1.438 . S
C121 C126 1.429 . S
C122 C121 1.438 . S
C122 C123 1.428 . S
C122 C135 1.394 . S
C123 H115 0.949 . S
C123 C122 1.428 . S
C123 C124 1.345 . S
C124 H116 0.950 . S
C124 C123 1.345 . S
C124 C125 1.424 . S
C125 H117 0.951 . S
C125 C124 1.424 . S
C125 C126 1.347 . S
C126 H118 0.951 . S
C126 C121 1.429 . S
C126 C125 1.347 . S
H127 C128 0.951 . S
C128 H127 0.951 . S
C128 C134 1.265 . S
H129 C134 0.950 . S
H130 C138 0.949 . S
H131 C139 0.950 . S
H132 C140 0.951 . S
H133 C141 0.951 . S
C134 C128 1.265 . S
C134 H129 0.950 . S
C134 C135 1.478 . S
C135 C122 1.394 . S
C135 C134 1.478 . S
C135 C136 1.397 . S
C136 C135 1.397 . S
C136 C137 1.438 . S
C136 C141 1.429 . S
C137 C120 1.394 . S
C137 C136 1.438 . S
C137 C138 1.428 . S
C138 H130 0.949 . S
C138 C137 1.428 . S
C138 C139 1.345 . S
C139 H131 0.950 . S
C139 C138 1.345 . S
C139 C140 1.424 . S
C140 H132 0.951 . S
C140 C139 1.424 . S
C140 C141 1.347 . S
C141 H133 0.951 . S
C141 C136 1.429 . S
C141 C140 1.347 . S
H142 C143 0.951 . S
C143 H142 0.951 . S
C143 C149 1.265 . S
H144 C149 0.950 . S
H145 C153 0.949 . S
H146 C154 0.950 . S
H147 C155 0.951 . S
H148 C156 0.951 . S
C149 C143 1.265 . S
C149 H144 0.950 . S
C149 C150 1.478 . S
C150 C149 1.478 . S
C150 C151 1.397 . S
C150 C167 1.394 . S
C151 C150 1.397 . S
C151 C152 1.438 . S
C151 C156 1.429 . S
C152 C151 1.438 . S
C152 C153 1.428 . S
C152 C165 1.394 . S
C153 H145 0.949 . S
C153 C152 1.428 . S
C153 C154 1.345 . S
C154 H146 0.950 . S
C154 C153 1.345 . S
C154 C155 1.424 . S
C155 H147 0.951 . S
C155 C154 1.424 . S
C155 C156 1.347 . S
C156 H148 0.951 . S
C156 C151 1.429 . S
C156 C155 1.347 . S
H157 C158 0.951 . S
C158 H157 0.951 . S
C158 C164 1.265 . S
H159 C164 0.950 . S
H160 C168 0.949 . S
H161 C169 0.950 . S
H162 C170 0.951 . S
H163 C171 0.951 . S
C164 C158 1.265 . S
C164 H159 0.950 . S
C164 C165 1.478 . S
C165 C152 1.394 . S
C165 C164 1.478 . S
C165 C166 1.397 . S
C166 C165 1.397 . S
C166 C167 1.438 . S
C166 C171 1.429 . S
C167 C150 1.394 . S
C167 C166 1.438 . S
C167 C168 1.428 . S
C168 H160 0.949 . S
C168 C167 1.428 . S
C168 C169 1.345 . S
C169 H161 0.950 . S
C169 C168 1.345 . S
C169 C170 1.424 . S
C170 H162 0.951 . S
C170 C169 1.424 . S
C170 C171 1.347 . S
C171 H163 0.951 . S
C171 C166 1.429 . S
C171 C170 1.347 . S
H172 C173 0.951 . S
C173 H172 0.951 . S
C173 C179 1.265 . S
H174 C179 0.950 . S
H175 C183 0.949 . S
H176 C184 0.950 . S
H177 C185 0.951 . S
H178 C186 0.951 . S
C179 C173 1.265 . S
C179 H174 0.950 . S
C179 C180 1.478 . S
C180 C179 1.478 . S
C180 C181 1.397 . S
C180 C197 1.394 . S
C181 C180 1.397 . S
C181 C182 1.438 . S
C181 C186 1.429 . S
C182 C181 1.438 . S
C182 C183 1.428 . S
C182 C195 1.394 . S
C183 H175 0.949 . S
C183 C182 1.428 . S
C183 C184 1.345 . S
C184 H176 0.950 . S
C184 C183 1.345 . S
C184 C185 1.424 . S
C185 H177 0.951 . S
C185 C184 1.424 . S
C185 C186 1.347 . S
C186 H178 0.951 . S
C186 C181 1.429 . S
C186 C185 1.347 . S
H187 C188 0.951 . S
C188 H187 0.951 . S
C188 C194 1.265 . S
H189 C194 0.950 . S
H190 C198 0.949 . S
H191 C199 0.950 . S
H192 C200 0.951 . S
H193 C201 0.951 . S
C194 C188 1.265 . S
C194 H189 0.950 . S
C194 C195 1.478 . S
C195 C182 1.394 . S
C195 C194 1.478 . S
C195 C196 1.397 . S
C196 C195 1.397 . S
C196 C197 1.438 . S
C196 C201 1.429 . S
C197 C180 1.394 . S
C197 C196 1.438 . S
C197 C198 1.428 . S
C198 H190 0.949 . S
C198 C197 1.428 . S
C198 C199 1.345 . S
C199 H191 0.950 . S
C199 C198 1.345 . S
C199 C200 1.424 . S
C200 H192 0.951 . S
C200 C199 1.424 . S
C200 C201 1.347 . S
C201 H193 0.951 . S
C201 C196 1.429 . S
C201 C200 1.347 . S
H202 C203 0.951 . S
C203 H202 0.951 . S
C203 C209 1.265 . S
H204 C209 0.950 . S
H205 C213 0.949 . S
H206 C214 0.950 . S
H207 C215 0.951 . S
H208 C216 0.951 . S
C209 C203 1.265 . S
C209 H204 0.950 . S
C209 C210 1.478 . S
C210 C209 1.478 . S
C210 C211 1.397 . S
C210 C227 1.394 . S
C211 C210 1.397 . S
C211 C212 1.438 . S
C211 C216 1.429 . S
C212 C211 1.438 . S
C212 C213 1.428 . S
C212 C225 1.394 . S
C213 H205 0.949 . S
C213 C212 1.428 . S
C213 C214 1.345 . S
C214 H206 0.950 . S
C214 C213 1.345 . S
C214 C215 1.424 . S
C215 H207 0.951 . S
C215 C214 1.424 . S
C215 C216 1.347 . S
C216 H208 0.951 . S
C216 C211 1.429 . S
C216 C215 1.347 . S
H217 C218 0.951 . S
C218 H217 0.951 . S
C218 C224 1.265 . S
H219 C224 0.950 . S
H220 C228 0.949 . S
H221 C229 0.950 . S
H222 C230 0.951 . S
H223 C231 0.951 . S
C224 C218 1.265 . S
C224 H219 0.950 . S
C224 C225 1.478 . S
C225 C212 1.394 . S
C225 C224 1.478 . S
C225 C226 1.397 . S
C226 C225 1.397 . S
C226 C227 1.438 . S
C226 C231 1.429 . S
C227 C210 1.394 . S
C227 C226 1.438 . S
C227 C228 1.428 . S
C228 H220 0.949 . S
C228 C227 1.428 . S
C228 C229 1.345 . S
C229 H221 0.950 . S
C229 C228 1.345 . S
C229 C230 1.424 . S
C230 H222 0.951 . S
C230 C229 1.424 . S
C230 C231 1.347 . S
C231 H223 0.951 . S
C231 C226 1.429 . S
C231 C230 1.347 . S
H232 C233 0.951 . S
C233 H232 0.951 . S
C233 C239 1.265 . S
H234 C239 0.950 . S
H235 C243 0.949 . S
H236 C244 0.950 . S
H237 C245 0.951 . S
H238 C246 0.951 . S
C239 C233 1.265 . S
C239 H234 0.950 . S
C239 C240 1.478 . S
C240 C239 1.478 . S
C240 C241 1.397 . S
C240 C257 1.394 . S
C241 C240 1.397 . S
C241 C242 1.438 . S
C241 C246 1.429 . S
C242 C241 1.438 . S
C242 C243 1.428 . S
C242 C255 1.394 . S
C243 H235 0.949 . S
C243 C242 1.428 . S
C243 C244 1.345 . S
C244 H236 0.950 . S
C244 C243 1.345 . S
C244 C245 1.424 . S
C245 H237 0.951 . S
C245 C244 1.424 . S
C245 C246 1.347 . S
C246 H238 0.951 . S
C246 C241 1.429 . S
C246 C245 1.347 . S
H247 C248 0.951 . S
C248 H247 0.951 . S
C248 C254 1.265 . S
H249 C254 0.950 . S
H250 C258 0.949 . S
H251 C259 0.950 . S
H252 C260 0.951 . S
H253 C261 0.951 . S
C254 C248 1.265 . S
C254 H249 0.950 . S
C254 C255 1.478 . S
C255 C242 1.394 . S
C255 C254 1.478 . S
C255 C256 1.397 . S
C256 C255 1.397 . S
C256 C257 1.438 . S
C256 C261 1.429 . S
C257 C240 1.394 . S
C257 C256 1.438 . S
C257 C258 1.428 . S
C258 H250 0.949 . S
C258 C257 1.428 . S
C258 C259 1.345 . S
C259 H251 0.950 . S
C259 C258 1.345 . S
C259 C260 1.424 . S
C260 H252 0.951 . S
C260 C259 1.424 . S
C260 C261 1.347 . S
C261 H253 0.951 . S
C261 C256 1.429 . S
C261 C260 1.347 . S
H262 C263 0.951 . S
C263 H262 0.951 . S
C263 C269 1.265 . S
H264 C269 0.950 . S
H265 C273 0.949 . S
H266 C274 0.950 . S
H267 C275 0.951 . S
H268 C276 0.951 . S
C269 C263 1.265 . S
C269 H264 0.950 . S
C269 C270 1.478 . S
C270 C269 1.478 . S
C270 C271 1.397 . S
C270 C287 1.394 . S
C271 C270 1.397 . S
C271 C272 1.438 . S
C271 C276 1.429 . S
C272 C271 1.438 . S
C272 C273 1.428 . S
C272 C285 1.394 . S
C273 H265 0.949 . S
C273 C272 1.428 . S
C273 C274 1.345 . S
C274 H266 0.950 . S
C274 C273 1.345 . S
C274 C275 1.424 . S
C275 H267 0.951 . S
C275 C274 1.424 . S
C275 C276 1.347 . S
C276 H268 0.951 . S
C276 C271 1.429 . S
C276 C275 1.347 . S
H277 C278 0.951 . S
C278 H277 0.951 . S
C278 C284 1.265 . S
H279 C284 0.950 . S
H280 C288 0.949 . S
H281 C289 0.950 . S
H282 C290 0.951 . S
H283 C291 0.951 . S
C284 C278 1.265 . S
C284 H279 0.950 . S
C284 C285 1.478 . S
C285 C272 1.394 . S
C285 C284 1.478 . S
C285 C286 1.397 . S
C286 C285 1.397 . S
C286 C287 1.438 . S
C286 C291 1.429 . S
C287 C270 1.394 . S
C287 C286 1.438 . S
C287 C288 1.428 . S
C288 H280 0.949 . S
C288 C287 1.428 . S
C288 C289 1.345 . S
C289 H281 0.950 . S
C289 C288 1.345 . S
C289 C290 1.424 . S
C290 H282 0.951 . S
C290 C289 1.424 . S
C290 C291 1.347 . S
C291 H283 0.951 . S
C291 C286 1.429 . S
C291 C290 1.347 . S
H292 C293 0.951 . S
C293 H292 0.951 . S
C293 C299 1.265 . S
H294 C299 0.950 . S
H295 C303 0.949 . S
H296 C304 0.950 . S
H297 C305 0.951 . S
H298 C306 0.951 . S
C299 C293 1.265 . S
C299 H294 0.950 . S
C299 C300 1.478 . S
C300 C299 1.478 . S
C300 C301 1.397 . S
C300 C317 1.394 . S
C301 C300 1.397 . S
C301 C302 1.438 . S
C301 C306 1.429 . S
C302 C301 1.438 . S
C302 C303 1.428 . S
C302 C315 1.394 . S
C303 H295 0.949 . S
C303 C302 1.428 . S
C303 C304 1.345 . S
C304 H296 0.950 . S
C304 C303 1.345 . S
C304 C305 1.424 . S
C305 H297 0.951 . S
C305 C304 1.424 . S
C305 C306 1.347 . S
C306 H298 0.951 . S
C306 C301 1.429 . S
C306 C305 1.347 . S
H307 C308 0.951 . S
C308 H307 0.951 . S
C308 C314 1.265 . S
H309 C314 0.950 . S
H310 C318 0.949 . S
H311 C319 0.950 . S
H312 C320 0.951 . S
H313 C321 0.951 . S
C314 C308 1.265 . S
C314 H309 0.950 . S
C314 C315 1.478 . S
C315 C302 1.394 . S
C315 C314 1.478 . S
C315 C316 1.397 . S
C316 C315 1.397 . S
C316 C317 1.438 . S
C316 C321 1.429 . S
C317 C300 1.394 . S
C317 C316 1.438 . S
C317 C318 1.428 . S
C318 H310 0.949 . S
C318 C317 1.428 . S
C318 C319 1.345 . S
C319 H311 0.950 . S
C319 C318 1.345 . S
C319 C320 1.424 . S
C320 H312 0.951 . S
C320 C319 1.424 . S
C320 C321 1.347 . S
C321 H313 0.951 . S
C321 C316 1.429 . S
C321 C320 1.347 . S
H322 C323 0.951 . S
C323 H322 0.951 . S
C323 C329 1.265 . S
H324 C329 0.950 . S
H325 C333 0.949 . S
H326 C334 0.950 . S
H327 C335 0.951 . S
H328 C336 0.951 . S
C329 C323 1.265 . S
C329 H324 0.950 . S
C329 C330 1.478 . S
C330 C329 1.478 . S
C330 C331 1.397 . S
C330 C347 1.394 . S
C331 C330 1.397 . S
C331 C332 1.438 . S
C331 C336 1.429 . S
C332 C331 1.438 . S
C332 C333 1.428 . S
C332 C345 1.394 . S
C333 H325 0.949 . S
C333 C332 1.428 . S
C333 C334 1.345 . S
C334 H326 0.950 . S
C334 C333 1.345 . S
C334 C335 1.424 . S
C335 H327 0.951 . S
C335 C334 1.424 . S
C335 C336 1.347 . S
C336 H328 0.951 . S
C336 C331 1.429 . S
C336 C335 1.347 . S
H337 C338 0.951 . S
C338 H337 0.951 . S
C338 C344 1.265 . S
H339 C344 0.950 . S
H340 C348 0.949 . S
H341 C349 0.950 . S
H342 C350 0.951 . S
H343 C351 0.951 . S
C344 C338 1.265 . S
C344 H339 0.950 . S
C344 C345 1.478 . S
C345 C332 1.394 . S
C345 C344 1.478 . S
C345 C346 1.397 . S
C346 C345 1.397 . S
C346 C347 1.438 . S
C346 C351 1.429 . S
C347 C330 1.394 . S
C347 C346 1.438 . S
C347 C348 1.428 . S
C348 H340 0.949 . S
C348 C347 1.428 . S
C348 C349 1.345 . S
C349 H341 0.950 . S
C349 C348 1.345 . S
C349 C350 1.424 . S
C350 H342 0.951 . S
C350 C349 1.424 . S
C350 C351 1.347 . S
C351 H343 0.951 . S
C351 C346 1.429 . S
C351 C350 1.347 . S
H352 C353 0.951 . S
C353 H352 0.951 . S
C353 C359 1.265 . S
H354 C359 0.950 . S
H355 C363 0.949 . S
H356 C364 0.950 . S
H357 C365 0.951 . S
H358 C366 0.951 . S
C359 C353 1.265 . S
C359 H354 0.950 . S
C359 C360 1.478 . S
C360 C359 1.478 . S
C360 C361 1.397 . S
C360 C377 1.394 1_554 S
C361 C360 1.397 . S
C361 C362 1.438 . S
C361 C366 1.429 . S
C362 C361 1.438 . S
C362 C363 1.428 . S
C362 C375 1.394 1_554 S
C363 H355 0.949 . S
C363 C362 1.428 . S
C363 C364 1.345 . S
C364 H356 0.950 . S
C364 C363 1.345 . S
C364 C365 1.424 . S
C365 H357 0.951 . S
C365 C364 1.424 . S
C365 C366 1.347 . S
C366 H358 0.951 . S
C366 C361 1.429 . S
C366 C365 1.347 . S
H367 C368 0.951 . S
C368 H367 0.951 . S
C368 C374 1.265 . S
H369 C374 0.950 . S
H370 C378 0.949 . S
H371 C379 0.950 . S
H372 C380 0.951 . S
H373 C381 0.951 . S
C374 C368 1.265 . S
C374 H369 0.950 . S
C374 C375 1.478 . S
C375 C362 1.394 1_556 S
C375 C374 1.478 . S
C375 C376 1.397 . S
C376 C375 1.397 . S
C376 C377 1.438 . S
C376 C381 1.429 . S
C377 C360 1.394 1_556 S
C377 C376 1.438 . S
C377 C378 1.428 . S
C378 H370 0.949 . S
C378 C377 1.428 . S
C378 C379 1.345 . S
C379 H371 0.950 . S
C379 C378 1.345 . S
C379 C380 1.424 . S
C380 H372 0.951 . S
C380 C379 1.424 . S
C380 C381 1.347 . S
C381 H373 0.951 . S
C381 C376 1.429 . S
C381 C380 1.347 . S
H382 C383 0.951 . S
C383 H382 0.951 . S
C383 C389 1.265 . S
H384 C389 0.950 . S
H385 C393 0.949 . S
H386 C394 0.950 . S
H387 C395 0.951 . S
H388 C396 0.951 . S
C389 C383 1.265 . S
C389 H384 0.950 . S
C389 C390 1.478 . S
C390 C389 1.478 . S
C390 C391 1.397 . S
C390 C407 1.394 1_554 S
C391 C390 1.397 . S
C391 C392 1.438 . S
C391 C396 1.429 . S
C392 C391 1.438 . S
C392 C393 1.428 . S
C392 C405 1.394 1_554 S
C393 H385 0.949 . S
C393 C392 1.428 . S
C393 C394 1.345 . S
C394 H386 0.950 . S
C394 C393 1.345 . S
C394 C395 1.424 . S
C395 H387 0.951 . S
C395 C394 1.424 . S
C395 C396 1.347 . S
C396 H388 0.951 . S
C396 C391 1.429 . S
C396 C395 1.347 . S
H397 C398 0.951 . S
C398 H397 0.951 . S
C398 C404 1.265 . S
H399 C404 0.950 . S
H400 C408 0.949 . S
H401 C409 0.950 . S
H402 C410 0.951 . S
H403 C411 0.951 . S
C404 C398 1.265 . S
C404 H399 0.950 . S
C404 C405 1.478 . S
C405 C392 1.394 1_556 S
C405 C404 1.478 . S
C405 C406 1.397 . S
C406 C405 1.397 . S
C406 C407 1.438 . S
C406 C411 1.429 . S
C407 C390 1.394 1_556 S
C407 C406 1.438 . S
C407 C408 1.428 . S
C408 H400 0.949 . S
C408 C407 1.428 . S
C408 C409 1.345 . S
C409 H401 0.950 . S
C409 C408 1.345 . S
C409 C410 1.424 . S
C410 H402 0.951 . S
C410 C409 1.424 . S
C410 C411 1.347 . S
C411 H403 0.951 . S
C411 C406 1.429 . S
C411 C410 1.347 . S
H412 C413 0.951 . S
C413 H412 0.951 . S
C413 C419 1.265 . S
H414 C419 0.950 . S
H415 C423 0.949 . S
H416 C424 0.950 . S
H417 C425 0.951 . S
H418 C426 0.951 . S
C419 C413 1.265 . S
C419 H414 0.950 . S
C419 C420 1.478 . S
C420 C419 1.478 . S
C420 C421 1.397 . S
C420 C437 1.394 1_554 S
C421 C420 1.397 . S
C421 C422 1.438 . S
C421 C426 1.429 . S
C422 C421 1.438 . S
C422 C423 1.428 . S
C422 C435 1.394 1_554 S
C423 H415 0.949 . S
C423 C422 1.428 . S
C423 C424 1.345 . S
C424 H416 0.950 . S
C424 C423 1.345 . S
C424 C425 1.424 . S
C425 H417 0.951 . S
C425 C424 1.424 . S
C425 C426 1.347 . S
C426 H418 0.951 . S
C426 C421 1.429 . S
C426 C425 1.347 . S
H427 C428 0.951 . S
C428 H427 0.951 . S
C428 C434 1.265 . S
H429 C434 0.950 . S
H430 C438 0.949 . S
H431 C439 0.950 . S
H432 C440 0.951 . S
H433 C441 0.951 . S
C434 C428 1.265 . S
C434 H429 0.950 . S
C434 C435 1.478 . S
C435 C422 1.394 1_556 S
C435 C434 1.478 . S
C435 C436 1.397 . S
C436 C435 1.397 . S
C436 C437 1.438 . S
C436 C441 1.429 . S
C437 C420 1.394 1_556 S
C437 C436 1.438 . S
C437 C438 1.428 . S
C438 H430 0.949 . S
C438 C437 1.428 . S
C438 C439 1.345 . S
C439 H431 0.950 . S
C439 C438 1.345 . S
C439 C440 1.424 . S
C440 H432 0.951 . S
C440 C439 1.424 . S
C440 C441 1.347 . S
C441 H433 0.951 . S
C441 C436 1.429 . S
C441 C440 1.347 . S
H442 C443 0.951 . S
C443 H442 0.951 . S
C443 C449 1.265 . S
H444 C449 0.950 . S
H445 C453 0.949 . S
H446 C454 0.950 . S
H447 C455 0.951 . S
H448 C456 0.951 . S
C449 C443 1.265 . S
C449 H444 0.950 . S
C449 C450 1.478 . S
C450 C449 1.478 . S
C450 C451 1.397 . S
C450 C467 1.394 1_556 S
C451 C450 1.397 . S
C451 C452 1.438 . S
C451 C456 1.429 . S
C452 C451 1.438 . S
C452 C453 1.428 . S
C452 C465 1.394 1_556 S
C453 H445 0.949 . S
C453 C452 1.428 . S
C453 C454 1.345 . S
C454 H446 0.950 . S
C454 C453 1.345 . S
C454 C455 1.424 . S
C455 H447 0.951 . S
C455 C454 1.424 . S
C455 C456 1.347 . S
C456 H448 0.951 . S
C456 C451 1.429 . S
C456 C455 1.347 . S
H457 C458 0.951 . S
C458 H457 0.951 . S
C458 C464 1.265 . S
H459 C464 0.950 . S
H460 C468 0.949 . S
H461 C469 0.950 . S
H462 C470 0.951 . S
H463 C471 0.951 . S
C464 C458 1.265 . S
C464 H459 0.950 . S
C464 C465 1.478 . S
C465 C452 1.394 1_554 S
C465 C464 1.478 . S
C465 C466 1.397 . S
C466 C465 1.397 . S
C466 C467 1.438 . S
C466 C471 1.429 . S
C467 C450 1.394 1_554 S
C467 C466 1.438 . S
C467 C468 1.428 . S
C468 H460 0.949 . S
C468 C467 1.428 . S
C468 C469 1.345 . S
C469 H461 0.950 . S
C469 C468 1.345 . S
C469 C470 1.424 . S
C470 H462 0.951 . S
C470 C469 1.424 . S
C470 C471 1.347 . S
C471 H463 0.951 . S
C471 C466 1.429 . S
C471 C470 1.347 . S
H472 C473 0.951 . S
C473 H472 0.951 . S
C473 C479 1.265 . S
H474 C479 0.950 . S
H475 C483 0.949 . S
H476 C484 0.950 . S
H477 C485 0.951 . S
H478 C486 0.951 . S
C479 C473 1.265 . S
C479 H474 0.950 . S
C479 C480 1.478 . S
C480 C479 1.478 . S
C480 C481 1.397 . S
C480 C497 1.394 . S
C481 C480 1.397 . S
C481 C482 1.438 1_655 S
C481 C486 1.429 . S
C482 C481 1.438 1_455 S
C482 C483 1.428 . S
C482 C495 1.394 . S
C483 H475 0.949 . S
C483 C482 1.428 . S
C483 C484 1.345 1_455 S
C484 H476 0.950 . S
C484 C483 1.345 1_655 S
C484 C485 1.424 . S
C485 H477 0.951 . S
C485 C484 1.424 . S
C485 C486 1.347 . S
C486 H478 0.951 . S
C486 C481 1.429 . S
C486 C485 1.347 . S
H487 C488 0.951 . S
C488 H487 0.951 . S
C488 C494 1.265 . S
H489 C494 0.950 . S
H490 C498 0.949 . S
H491 C499 0.950 . S
H492 C500 0.951 . S
H493 C501 0.951 . S
C494 C488 1.265 . S
C494 H489 0.950 . S
C494 C495 1.478 . S
C495 C482 1.394 . S
C495 C494 1.478 . S
C495 C496 1.397 . S
C496 C495 1.397 . S
C496 C497 1.438 1_455 S
C496 C501 1.429 . S
C497 C480 1.394 . S
C497 C496 1.438 1_655 S
C497 C498 1.428 . S
C498 H490 0.949 . S
C498 C497 1.428 . S
C498 C499 1.345 1_655 S
C499 H491 0.950 . S
C499 C498 1.345 1_455 S
C499 C500 1.424 . S
C500 H492 0.951 . S
C500 C499 1.424 . S
C500 C501 1.347 . S
C501 H493 0.951 . S
C501 C496 1.429 . S
C501 C500 1.347 . S
H502 C503 0.951 . S
C503 H502 0.951 . S
C503 C509 1.265 . S
H504 C509 0.950 1_565 S
H505 C513 0.949 . S
H506 C514 0.950 . S
H507 C515 0.951 . S
H508 C516 0.951 . S
C509 C503 1.265 . S
C509 H504 0.950 1_545 S
C509 C510 1.478 . S
C510 C509 1.478 . S
C510 C511 1.397 1_545 S
C510 C527 1.394 . S
C511 C510 1.397 1_565 S
C511 C512 1.438 . S
C511 C516 1.429 . S
C512 C511 1.438 . S
C512 C513 1.428 . S
C512 C525 1.394 . S
C513 H505 0.949 . S
C513 C512 1.428 . S
C513 C514 1.345 . S
C514 H506 0.950 . S
C514 C513 1.345 . S
C514 C515 1.424 . S
C515 H507 0.951 . S
C515 C514 1.424 . S
C515 C516 1.347 . S
C516 H508 0.951 . S
C516 C511 1.429 . S
C516 C515 1.347 . S
H517 C518 0.951 . S
C518 H517 0.951 . S
C518 C524 1.265 . S
H519 C524 0.950 1_545 S
H520 C528 0.949 . S
H521 C529 0.950 . S
H522 C530 0.951 . S
H523 C531 0.951 . S
C524 C518 1.265 . S
C524 H519 0.950 1_565 S
C524 C525 1.478 . S
C525 C512 1.394 . S
C525 C524 1.478 . S
C525 C526 1.397 1_565 S
C526 C525 1.397 1_545 S
C526 C527 1.438 . S
C526 C531 1.429 . S
C527 C510 1.394 . S
C527 C526 1.438 . S
C527 C528 1.428 . S
C528 H520 0.949 . S
C528 C527 1.428 . S
C528 C529 1.345 . S
C529 H521 0.950 . S
C529 C528 1.345 . S
C529 C530 1.424 . S
C530 H522 0.951 . S
C530 C529 1.424 . S
C530 C531 1.347 . S
C531 H523 0.951 . S
C531 C526 1.429 . S
C531 C530 1.347 . S
H532 C533 0.951 . S
C533 H532 0.951 . S
C533 C539 1.265 . S
H534 C539 0.962 . S
H535 C543 0.949 . S
H536 C544 0.950 . S
H537 C545 0.951 . S
H538 C546 0.951 . S
C539 C533 1.265 . S
C539 H534 0.962 . S
C539 C540 1.478 . S
C540 C539 1.478 . S
C540 C541 1.397 1_556 S
C540 C557 1.394 . S
C541 C540 1.397 1_554 S
C541 C542 1.438 1_545 S
C541 C546 1.429 . S
C542 C541 1.438 1_565 S
C542 C543 1.428 . S
C542 C555 1.394 1_554 S
C543 H535 0.949 . S
C543 C542 1.428 . S
C543 C544 1.345 . S
C544 H536 0.950 . S
C544 C543 1.345 . S
C544 C545 1.424 1_565 S
C545 H537 0.951 . S
C545 C544 1.424 1_545 S
C545 C546 1.347 . S
C546 H538 0.951 . S
C546 C541 1.429 . S
C546 C545 1.347 . S
H547 C548 0.951 . S
C548 H547 0.951 . S
C548 C554 1.265 . S
H549 C554 0.950 . S
H550 C558 0.949 . S
H551 C559 0.950 . S
H552 C560 0.951 . S
H553 C561 0.951 . S
C554 C548 1.265 . S
C554 H549 0.950 . S
C554 C555 1.478 . S
C555 C542 1.394 1_556 S
C555 C554 1.478 . S
C555 C556 1.397 . S
C556 C555 1.397 . S
C556 C557 1.438 1_565 S
C556 C561 1.429 . S
C557 C540 1.394 . S
C557 C556 1.438 1_545 S
C557 C558 1.428 . S
C558 H550 0.949 . S
C558 C557 1.428 . S
C558 C559 1.345 . S
C559 H551 0.950 . S
C559 C558 1.345 . S
C559 C560 1.424 1_545 S
C560 H552 0.951 . S
C560 C559 1.424 1_565 S
C560 C561 1.347 . S
C561 H553 0.951 . S
C561 C556 1.429 . S
C561 C560 1.347 . S
H562 C563 0.951 . S
C563 H562 0.951 . S
C563 C569 1.265 . S
H564 C569 0.950 . S
H565 C573 0.949 . S
H566 C574 0.950 . S
H567 C575 0.951 . S
H568 C576 0.951 . S
C569 C563 1.265 . S
C569 H564 0.950 . S
C569 C570 1.478 . S
C570 C569 1.478 . S
C570 C571 1.397 . S
C570 C587 1.394 1_554 S
C571 C570 1.397 . S
C571 C572 1.438 1_455 S
C571 C576 1.429 . S
C572 C571 1.438 1_655 S
C572 C573 1.428 . S
C572 C585 1.394 . S
C573 H565 0.949 . S
C573 C572 1.428 . S
C573 C574 1.345 . S
C574 H566 0.950 . S
C574 C573 1.345 . S
C574 C575 1.424 . S
C575 H567 0.951 . S
C575 C574 1.424 . S
C575 C576 1.347 1_655 S
C576 H568 0.951 . S
C576 C571 1.429 . S
C576 C575 1.347 1_455 S
H577 C578 0.951 . S
C578 H577 0.951 . S
C578 C584 1.265 . S
H579 C584 0.950 . S
H580 C588 0.949 . S
H581 C589 0.950 . S
H582 C590 0.951 . S
H583 C591 0.951 . S
C584 C578 1.265 . S
C584 H579 0.950 . S
C584 C585 1.478 . S
C585 C572 1.394 . S
C585 C584 1.478 . S
C585 C586 1.397 1_554 S
C586 C585 1.397 1_556 S
C586 C587 1.438 1_655 S
C586 C591 1.429 . S
C587 C570 1.394 1_556 S
C587 C586 1.438 1_455 S
C587 C588 1.428 . S
C588 H580 0.949 . S
C588 C587 1.428 . S
C588 C589 1.345 . S
C589 H581 0.950 . S
C589 C588 1.345 . S
C589 C590 1.424 . S
C590 H582 0.951 . S
C590 C589 1.424 . S
C590 C591 1.347 1_455 S
C591 H583 0.951 . S
C591 C586 1.429 . S
C591 C590 1.347 1_655 S
C113 C106 1.553 . S
C128 C8 1.563 . S
C143 C17 1.541 . S
C158 C64 1.516 . S
C173 C36 1.562 . S
C188 C78 1.551 . S
C203 C92 1.516 . S
C218 C45 1.540 . S
C233 C21 1.399 1_545 S
C248 C3 1.399 . S
C263 C22 1.437 . S
C278 C37 1.433 1_455 S
C293 C49 1.403 1_565 S
C308 C31 1.404 . S
C323 C50 1.397 . S
C338 C9 1.437 1_655 S
C353 C107 1.481 . S
C368 C59 1.468 . S
C383 C73 1.451 . S
C398 C65 1.463 . S
C413 C79 1.480 . S
C428 C87 1.474 . S
C443 C93 1.462 . S
C458 C101 1.398 . S
C473 C35 0.991 . S
C488 C7 0.993 . S
C503 C51 1.034 . S
C518 C23 1.038 . S
C533 C91 1.017 . S
C548 C63 1.009 . S
C563 C105 1.054 . S
C578 C77 1.054 . S
