# Generated by pormake.
# Topology swf, (7)-cn, num edge types: 1
# Building blocks:
#     Node 0, Type 0, BuildingBlock: NUHQUE_clean_sbu_2, # of connection points: 7
#     Node 1, Type 0, BuildingBlock: NUHQUE_clean_sbu_2, # of connection points: 7
#     Node 2, Type 0, BuildingBlock: NUHQUE_clean_sbu_2, # of connection points: 7
#     Node 3, Type 0, BuildingBlock: NUHQUE_clean_sbu_2, # of connection points: 7
#     Node 4, Type 0, BuildingBlock: NUHQUE_clean_sbu_2, # of connection points: 7
#     Node 5, Type 0, BuildingBlock: NUHQUE_clean_sbu_2, # of connection points: 7
#     Node 6, Type 0, BuildingBlock: NUHQUE_clean_sbu_2, # of connection points: 7
#     Node 7, Type 0, BuildingBlock: NUHQUE_clean_sbu_2, # of connection points: 7
#     Node 8, Type 0, BuildingBlock: NUHQUE_clean_sbu_2, # of connection points: 7
#     Node 9, Type 0, BuildingBlock: NUHQUE_clean_sbu_2, # of connection points: 7
#     Node 10, Type 0, BuildingBlock: NUHQUE_clean_sbu_2, # of connection points: 7
#     Node 11, Type 0, BuildingBlock: NUHQUE_clean_sbu_2, # of connection points: 7
#     Edge 12, Type (0, 0), BuildingBlock: TEMPAE_clean_linker_10, # of connection points: 2
#     Edge 13, Type (0, 0), BuildingBlock: TEMPAE_clean_linker_10, # of connection points: 2
#     Edge 14, Type (0, 0), BuildingBlock: TEMPAE_clean_linker_10, # of connection points: 2
#     Edge 15, Type (0, 0), BuildingBlock: TEMPAE_clean_linker_10, # of connection points: 2
#     Edge 16, Type (0, 0), BuildingBlock: TEMPAE_clean_linker_10, # of connection points: 2
#     Edge 17, Type (0, 0), BuildingBlock: TEMPAE_clean_linker_10, # of connection points: 2
#     Edge 18, Type (0, 0), BuildingBlock: TEMPAE_clean_linker_10, # of connection points: 2
#     Edge 19, Type (0, 0), BuildingBlock: TEMPAE_clean_linker_10, # of connection points: 2
#     Edge 20, Type (0, 0), BuildingBlock: TEMPAE_clean_linker_10, # of connection points: 2
#     Edge 21, Type (0, 0), BuildingBlock: TEMPAE_clean_linker_10, # of connection points: 2
#     Edge 22, Type (0, 0), BuildingBlock: TEMPAE_clean_linker_10, # of connection points: 2
#     Edge 23, Type (0, 0), BuildingBlock: TEMPAE_clean_linker_10, # of connection points: 2
#     Edge 24, Type (0, 0), BuildingBlock: TEMPAE_clean_linker_10, # of connection points: 2
#     Edge 25, Type (0, 0), BuildingBlock: TEMPAE_clean_linker_10, # of connection points: 2
#     Edge 26, Type (0, 0), BuildingBlock: TEMPAE_clean_linker_10, # of connection points: 2
#     Edge 27, Type (0, 0), BuildingBlock: TEMPAE_clean_linker_10, # of connection points: 2
#     Edge 28, Type (0, 0), BuildingBlock: TEMPAE_clean_linker_10, # of connection points: 2
#     Edge 29, Type (0, 0), BuildingBlock: TEMPAE_clean_linker_10, # of connection points: 2
#     Edge 30, Type (0, 0), BuildingBlock: TEMPAE_clean_linker_10, # of connection points: 2
#     Edge 31, Type (0, 0), BuildingBlock: TEMPAE_clean_linker_10, # of connection points: 2
#     Edge 32, Type (0, 0), BuildingBlock: TEMPAE_clean_linker_10, # of connection points: 2
#     Edge 33, Type (0, 0), BuildingBlock: TEMPAE_clean_linker_10, # of connection points: 2
#     Edge 34, Type (0, 0), BuildingBlock: TEMPAE_clean_linker_10, # of connection points: 2
#     Edge 35, Type (0, 0), BuildingBlock: TEMPAE_clean_linker_10, # of connection points: 2
#     Edge 36, Type (0, 0), BuildingBlock: TEMPAE_clean_linker_10, # of connection points: 2
#     Edge 37, Type (0, 0), BuildingBlock: TEMPAE_clean_linker_10, # of connection points: 2
#     Edge 38, Type (0, 0), BuildingBlock: TEMPAE_clean_linker_10, # of connection points: 2
#     Edge 39, Type (0, 0), BuildingBlock: TEMPAE_clean_linker_10, # of connection points: 2
#     Edge 40, Type (0, 0), BuildingBlock: TEMPAE_clean_linker_10, # of connection points: 2
#     Edge 41, Type (0, 0), BuildingBlock: TEMPAE_clean_linker_10, # of connection points: 2
#     Edge 42, Type (0, 0), BuildingBlock: TEMPAE_clean_linker_10, # of connection points: 2
#     Edge 43, Type (0, 0), BuildingBlock: TEMPAE_clean_linker_10, # of connection points: 2
#     Edge 44, Type (0, 0), BuildingBlock: TEMPAE_clean_linker_10, # of connection points: 2
#     Edge 45, Type (0, 0), BuildingBlock: TEMPAE_clean_linker_10, # of connection points: 2
#     Edge 46, Type (0, 0), BuildingBlock: TEMPAE_clean_linker_10, # of connection points: 2
#     Edge 47, Type (0, 0), BuildingBlock: TEMPAE_clean_linker_10, # of connection points: 2
#     Edge 48, Type (0, 0), BuildingBlock: TEMPAE_clean_linker_10, # of connection points: 2
#     Edge 49, Type (0, 0), BuildingBlock: TEMPAE_clean_linker_10, # of connection points: 2
#     Edge 50, Type (0, 0), BuildingBlock: TEMPAE_clean_linker_10, # of connection points: 2
#     Edge 51, Type (0, 0), BuildingBlock: TEMPAE_clean_linker_10, # of connection points: 2
#     Edge 52, Type (0, 0), BuildingBlock: TEMPAE_clean_linker_10, # of connection points: 2
#     Edge 53, Type (0, 0), BuildingBlock: TEMPAE_clean_linker_10, # of connection points: 2
# Relax obj value: 0.260
# Max RMSD: 0.208
# Mean RMSD: 0.208
data_MOF--net-swf--node1-NUHQUE_clean_sbu_2--edge1-TEMPAE_clean_linker_10
_symmetry_space_group_name_H-M    P1
_symmetry_Int_Tables_number       1
_symmetry_cell_setting            triclinic
loop_
_symmetry_equiv_pos_as_xyz
'x, y, z'
_cell_length_a     68.075
_cell_length_b     68.029576
_cell_length_c     22.060824
_cell_angle_alpha  90.145065
_cell_angle_beta   90.012289
_cell_angle_gamma 120.10835
loop_
_atom_site_label
_atom_site_type_symbol
_atom_site_fract_x
_atom_site_fract_y
_atom_site_fract_z
_atom_type_partial_charge
O0 O 0.53245 0.1288 0.95278 0.0
Tb1 Tb 0.50502 0.10306 1.00576 0.0
Eu2 Eu 0.46958 0.10883 0.09984 0.0
C3 C 0.52898 0.13921 0.90761 0.0
O4 O 0.50821 0.13383 0.89256 0.0
C5 C 0.45629 0.08157 0.97591 0.0
O6 O 0.44576 0.08743 0.17312 0.0
C7 C 0.46569 0.14377 0.06916 0.0
C8 C 0.44796 0.07009 0.18959 0.0
O9 O 0.46346 0.0671 0.1625 0.0
C10 C 0.51919 0.11634 0.14618 0.0
C11 C 0.47081 0.16783 0.07384 0.0
C12 C 0.472 0.17958 1.01999 0.0
C13 C 0.47377 0.20116 1.02165 0.0
C14 C 0.47506 0.21122 0.07844 0.0
C15 C 0.47423 0.20012 0.13309 0.0
C16 C 0.47189 0.17825 0.13026 0.0
O17 O 0.47521 0.09999 0.96141 0.0
O18 O 0.45146 0.07891 0.03399 0.0
O19 O 0.50954 0.07738 0.95879 0.0
O20 O 0.4871 0.068 0.03499 0.0
C21 C 0.49499 0.06063 0.99246 0.0
O22 O 0.50019 0.11633 0.15948 0.0
O23 O 0.52426 0.11347 0.09038 0.0
O24 O 0.4536 0.12937 0.11219 0.0
O25 O 0.48028 0.13906 0.04298 0.0
H26 H 0.47045 0.1714 0.9766 0.0
H27 H 0.47635 0.22775 0.08008 0.0
H28 H 0.4708 0.1693 0.17181 0.0
O29 O 0.37807 0.51082 0.99927 0.0
Tb30 Tb 0.41251 0.51892 1.02269 0.0
Eu31 Eu 0.38075 0.46844 0.10078 0.0
C32 C 0.36989 0.51171 0.94572 0.0
O33 O 0.34891 0.50758 0.9431 0.0
C34 C 0.41305 0.47325 0.98588 0.0
O35 O 0.3763 0.43631 0.14307 0.0
C36 C 0.34222 0.46809 0.09424 0.0
C37 C 0.36657 0.42871 0.19605 0.0
O38 O 0.35624 0.43822 0.22303 0.0
C39 C 0.41607 0.51677 0.16327 0.0
C40 C 0.32008 0.46788 0.0915 0.0
C41 C 0.30982 0.46744 0.03531 0.0
C42 C 0.28855 0.4664 0.03286 0.0
C43 C 0.27771 0.46596 0.08755 0.0
C44 C 0.28749 0.46648 0.14414 0.0
C45 C 0.30873 0.46752 0.14556 0.0
O46 O 0.42463 0.49555 0.99456 0.0
O47 O 0.39356 0.46025 1.01398 0.0
O48 O 0.43145 0.54703 0.95864 0.0
O49 O 0.44207 0.55058 0.04952 0.0
C50 C 0.44659 0.56063 0.99747 0.0
O51 O 0.4087 0.49482 0.16195 0.0
O52 O 0.4113 0.5263 0.11844 0.0
O53 O 0.35066 0.46565 0.14526 0.0
O54 O 0.35483 0.47074 0.04649 0.0
H55 H 0.3181 0.46735 0.99347 0.0
H56 H 0.26169 0.46576 0.086 0.0
H57 H 0.31626 0.46766 0.18896 0.0
O58 O 0.89818 0.38369 1.0303 0.0
Tb59 Tb 0.92932 0.4165 0.03343 0.0
Eu60 Eu 0.91979 0.37122 0.10518 0.0
C61 C 0.87834 0.38021 1.0115 0.0
O62 O 0.86021 0.36018 1.01944 0.0
C63 C 0.96252 0.40066 1.01596 0.0
O64 O 0.94816 0.37312 0.16167 0.0
C65 C 0.88702 0.32886 0.09322 0.0
C66 C 0.9631 0.39293 0.18445 0.0
O67 O 0.96062 0.41055 0.17382 0.0
C68 C 0.9164 0.41512 0.16754 0.0
C69 C 0.86265 0.31029 0.09675 0.0
C70 C 0.85098 0.30018 0.04219 0.0
C71 C 0.82919 0.28068 0.04249 0.0
C72 C 0.81879 0.27161 0.09851 0.0
C73 C 0.82967 0.28144 0.15394 0.0
C74 C 0.85182 0.30072 0.15253 0.0
O75 O 0.96171 0.4179 0.03898 0.0
O76 O 0.94457 0.38028 1.02393 0.0
O77 O 0.93847 0.42778 0.94029 0.0
O78 O 0.93166 0.4478 1.00078 0.0
C79 C 0.93868 0.44691 0.94641 0.0
O80 O 0.90999 0.39304 0.16682 0.0
O81 O 0.92687 0.42852 0.1215 0.0
O82 O 0.89946 0.33681 0.14253 0.0
O83 O 0.89294 0.34416 0.05044 0.0
H84 H 0.85933 0.30689 0.99914 0.0
H85 H 0.80212 0.2565 0.09882 0.0
H86 H 0.86061 0.30818 0.19467 0.0
O87 O 0.50762 0.86939 0.98877 0.0
Tb88 Tb 0.52361 0.90165 0.03601 0.0
Eu89 Eu 0.568 0.92188 0.11354 0.0
C90 C 0.51829 0.86421 0.94761 0.0
O91 O 0.54026 0.87757 0.94059 0.0
C92 C 0.56817 0.94347 0.98427 0.0
O93 O 0.59917 0.94854 0.16072 0.0
C94 C 0.57113 0.88645 0.08336 0.0
C95 C 0.60448 0.94623 0.21638 0.0
O96 O 0.59259 0.92666 0.24415 0.0
C97 C 0.5197 0.90091 0.17655 0.0
C98 C 0.56559 0.86233 0.08832 0.0
C99 C 0.56358 0.85027 0.03437 0.0
C100 C 0.56181 0.82872 0.03558 0.0
C101 C 0.56162 0.81911 0.09212 0.0
C102 C 0.56354 0.83067 0.14683 0.0
C103 C 0.56535 0.85229 0.14457 0.0
O104 O 0.551 0.92302 0.97173 0.0
O105 O 0.57634 0.94806 0.03972 0.0
O106 O 0.49565 0.90536 1.00107 0.0
O107 O 0.51911 0.92942 0.06506 0.0
C108 C 0.50102 0.92359 0.03271 0.0
O109 O 0.54085 0.9175 0.18004 0.0
O110 O 0.51312 0.8878 0.12793 0.0
O111 O 0.58363 0.901 0.12585 0.0
O112 O 0.55663 0.89134 0.05766 0.0
H113 H 0.56459 0.85823 0.99109 0.0
H114 H 0.55991 0.8024 0.09362 0.0
H115 H 0.56749 0.86163 0.18624 0.0
O116 O 0.58437 0.4977 1.02279 0.0
Tb117 Tb 0.59869 0.53269 0.05063 0.0
Eu118 Eu 0.65869 0.55579 0.09957 0.0
C119 C 0.59789 0.48982 1.00881 0.0
O120 O 0.61997 0.50316 1.01333 0.0
C121 C 0.63938 0.56727 0.98123 0.0
O122 O 0.65796 0.57827 0.17342 0.0
C123 C 0.69742 0.55713 0.09105 0.0
C124 C 0.64203 0.58374 0.17005 0.0
O125 O 0.62848 0.57695 0.12286 0.0
C126 C 0.61294 0.51909 0.16748 0.0
C127 C 0.71974 0.55792 0.08808 0.0
C128 C 0.72948 0.55756 0.03182 0.0
C129 C 0.75084 0.55884 1.02908 0.0
C130 C 0.76206 0.55988 0.08369 0.0
C131 C 0.75261 0.55992 0.14037 0.0
C132 C 0.73146 0.55904 0.14199 0.0
O133 O 0.62559 0.54536 0.98404 0.0
O134 O 0.65402 0.5769 1.02581 0.0
O135 O 0.5657 0.52853 1.02705 0.0
O136 O 0.59393 0.56192 0.03879 0.0
C137 C 0.57249 0.55015 1.02517 0.0
O138 O 0.63166 0.52183 0.14122 0.0
O139 O 0.60315 0.53024 0.1474 0.0
O140 O 0.69227 0.56629 0.1365 0.0
O141 O 0.6815 0.54742 0.04923 0.0
H142 H 0.72071 0.55688 0.99018 0.0
H143 H 0.77806 0.56006 0.08208 0.0
H144 H 0.72412 0.55929 0.18538 0.0
O145 O 0.134 0.63143 1.02407 0.0
Tb146 Tb 0.10073 0.60126 0.03366 0.0
Eu147 Eu 0.11931 0.65036 0.09662 0.0
C148 C 0.15267 0.63093 1.01249 0.0
O149 O 0.17237 0.64979 1.01611 0.0
C150 C 0.07395 0.62415 1.01181 0.0
O151 O 0.09356 0.65047 0.16026 0.0
C152 C 0.15354 0.6917 0.08155 0.0
C153 C 0.07747 0.63101 0.18173 0.0
O154 O 0.07689 0.61222 0.16497 0.0
C155 C 0.11758 0.6053 0.16384 0.0
C156 C 0.17769 0.71075 0.08532 0.0
C157 C 0.18923 0.72077 0.03077 0.0
C158 C 0.21107 0.74026 0.03083 0.0
C159 C 0.22142 0.74962 0.08698 0.0
C160 C 0.21055 0.74005 0.14249 0.0
C161 C 0.1885 0.72061 0.1411 0.0
O162 O 0.07158 0.60572 0.03654 0.0
O163 O 0.09391 0.64297 1.01724 0.0
O164 O 0.09032 0.58829 0.94194 0.0
O165 O 0.09293 0.56711 1.0076 0.0
C166 C 0.08682 0.56796 0.95206 0.0
O167 O 0.1292 0.62769 0.15409 0.0
O168 O 0.10203 0.59138 0.12545 0.0
O169 O 0.14035 0.68533 0.12962 0.0
O170 O 0.14799 0.67523 0.04208 0.0
H171 H 0.18096 0.71349 0.98788 0.0
H172 H 0.2378 0.76508 0.08743 0.0
H173 H 0.17976 0.71321 0.18322 0.0
O174 O 0.90129 0.49526 0.69851 0.0
Tb175 Tb 0.92071 0.52283 0.63686 0.0
Eu176 Eu 0.9249 0.56447 0.56447 0.0
C177 C 0.8869 0.49634 0.73605 0.0
O178 O 0.88432 0.51421 0.73613 0.0
C179 C 0.94686 0.56935 0.69615 0.0
O180 O 0.94471 0.58985 0.49176 0.0
C181 C 0.88767 0.56385 0.5953 0.0
C182 C 0.96508 0.60703 0.5035 0.0
O183 O 0.97196 0.61151 0.56004 0.0
C184 C 0.90837 0.51512 0.50309 0.0
C185 C 0.86426 0.5601 0.58872 0.0
C186 C 0.8521 0.55858 0.64193 0.0
C187 C 0.83108 0.55793 0.63944 0.0
C188 C 0.82211 0.55831 0.5823 0.0
C189 C 0.8338 0.55974 0.52828 0.0
C190 C 0.85494 0.56053 0.53187 0.0
O191 O 0.92861 0.54935 0.70407 0.0
O192 O 0.95117 0.57798 0.64118 0.0
O193 O 0.94767 0.51456 0.64276 0.0
O194 O 0.9524 0.5425 0.58802 0.0
C195 C 0.96169 0.53109 0.60767 0.0
O196 O 0.92137 0.53729 0.4966 0.0
O197 O 0.89978 0.50705 0.55681 0.0
O198 O 0.90438 0.58073 0.56569 0.0
O199 O 0.89105 0.54672 0.60644 0.0
H200 H 0.85955 0.55894 0.68565 0.0
H201 H 0.80573 0.5573 0.57977 0.0
H202 H 0.86443 0.56223 0.49088 0.0
O203 O 0.4395 0.90781 0.67774 0.0
Tb204 Tb 0.42411 0.9234 0.62539 0.0
Eu205 Eu 0.37763 0.91754 0.56107 0.0
C206 C 0.43085 0.88563 0.67573 0.0
O207 O 0.41214 0.873 0.64482 0.0
C208 C 0.39913 0.94371 0.68986 0.0
O209 O 0.36973 0.93754 0.4943 0.0
C210 C 0.34146 0.87983 0.59305 0.0
C211 C 0.36881 0.95559 0.51138 0.0
O212 O 0.36901 0.96006 0.56936 0.0
C213 C 0.41205 0.90422 0.49628 0.0
C214 C 0.32217 0.85593 0.58856 0.0
C215 C 0.31215 0.84428 0.64286 0.0
C216 C 0.29262 0.82246 0.64236 0.0
C217 C 0.28333 0.81228 0.58597 0.0
C218 C 0.29303 0.82327 0.53065 0.0
C219 C 0.31245 0.84535 0.53253 0.0
O220 O 0.40577 0.92876 0.69809 0.0
O221 O 0.39047 0.94447 0.63693 0.0
O222 O 0.45806 0.95298 0.61896 0.0
O223 O 0.43036 0.95385 0.57658 0.0
C224 C 0.45198 0.96544 0.58844 0.0
O225 O 0.40015 0.91446 0.48821 0.0
O226 O 0.41499 0.89916 0.55147 0.0
O227 O 0.34085 0.89574 0.56075 0.0
O228 O 0.36219 0.88427 0.60651 0.0
H229 H 0.31951 0.85242 0.68583 0.0
H230 H 0.26786 0.7959 0.58517 0.0
H231 H 0.32002 0.85427 0.49072 0.0
O232 O 0.5187 0.37056 0.65998 0.0
Tb233 Tb 0.52246 0.40342 0.63498 0.0
Eu234 Eu 0.4704 0.37216 0.56213 0.0
C235 C 0.52359 0.36423 0.71171 0.0
O236 O 0.52106 0.34381 0.71447 0.0
C237 C 0.47634 0.40294 0.6826 0.0
O238 O 0.43787 0.36677 0.52028 0.0
C239 C 0.47142 0.33442 0.57138 0.0
C240 C 0.43197 0.35918 0.46449 0.0
O241 O 0.44353 0.35157 0.43486 0.0
C242 C 0.51732 0.40524 0.49559 0.0
C243 C 0.472 0.31269 0.5747 0.0
C244 C 0.47232 0.30291 0.63102 0.0
C245 C 0.47203 0.28197 0.63356 0.0
C246 C 0.4722 0.27134 0.57884 0.0
C247 C 0.47242 0.2809 0.52214 0.0
C248 C 0.47201 0.30144 0.52072 0.0
O249 O 0.49878 0.41257 0.67935 0.0
O250 O 0.46241 0.38586 0.6471 0.0
O251 O 0.5553 0.42501 0.68091 0.0
O252 O 0.54765 0.43569 0.59828 0.0
C253 C 0.56296 0.44088 0.63978 0.0
O254 O 0.49588 0.39951 0.4993 0.0
O255 O 0.52617 0.39873 0.5384 0.0
O256 O 0.46441 0.3401 0.52256 0.0
O257 O 0.47764 0.34925 0.61596 0.0
H258 H 0.47214 0.31124 0.67278 0.0
H259 H 0.47216 0.2554 0.58048 0.0
H260 H 0.47221 0.30898 0.47735 0.0
O261 O 0.14753 0.52858 0.69822 0.0
Tb262 Tb 0.12264 0.51266 0.62692 0.0
Eu263 Eu 0.11516 0.46292 0.56879 0.0
C264 C 0.14751 0.51677 0.74533 0.0
O265 O 0.13495 0.49452 0.74411 0.0
C266 C 0.08554 0.4639 0.6862 0.0
O267 O 0.0913 0.43348 0.51037 0.0
C268 C 0.15207 0.46256 0.59773 0.0
C269 C 0.09538 0.4331 0.45231 0.0
O270 O 0.11536 0.44817 0.43095 0.0
C271 C 0.13318 0.50927 0.49648 0.0
C272 C 0.17546 0.46616 0.59185 0.0
C273 C 0.18732 0.46729 0.64539 0.0
C274 C 0.20826 0.46777 0.64341 0.0
C275 C 0.21748 0.46764 0.58644 0.0
C276 C 0.20609 0.46657 0.53207 0.0
C277 C 0.18501 0.46593 0.5352 0.0
O278 O 0.09601 0.48631 0.68364 0.0
O279 O 0.09014 0.4517 0.64803 0.0
O280 O 0.11907 0.5428 0.63214 0.0
O281 O 0.09851 0.51604 0.57036 0.0
C282 C 0.1036 0.53609 0.58993 0.0
O283 O 0.11809 0.48751 0.49433 0.0
O284 O 0.14364 0.51737 0.54827 0.0
O285 O 0.13559 0.44658 0.56507 0.0
O286 O 0.14868 0.47939 0.61307 0.0
H287 H 0.17967 0.46675 0.68891 0.0
H288 H 0.23382 0.46855 0.58433 0.0
H289 H 0.17574 0.46451 0.49393 0.0
O290 O 0.645 0.14246 0.61317 0.0
Tb291 Tb 0.61208 0.11128 0.61885 0.0
Eu292 Eu 0.6567 0.1113 0.57165 0.0
C293 C 0.65043 0.1622 0.63769 0.0
O294 O 0.67023 0.17999 0.62491 0.0
C295 C 0.62329 0.07624 0.68162 0.0
O296 O 0.65605 0.08236 0.52075 0.0
C297 C 0.69791 0.14324 0.60053 0.0
C298 C 0.66816 0.08436 0.47238 0.0
O299 O 0.68297 0.10451 0.45157 0.0
C300 C 0.6165 0.10686 0.48811 0.0
C301 C 0.71694 0.16738 0.59773 0.0
C302 C 0.72714 0.17874 0.6525 0.0
C303 C 0.74708 0.20023 0.65254 0.0
C304 C 0.75645 0.21062 0.59668 0.0
C305 C 0.7465 0.20003 0.54107 0.0
C306 C 0.72676 0.17822 0.54214 0.0
O307 O 0.61039 0.08556 0.68011 0.0
O308 O 0.64118 0.08329 0.64533 0.0
O309 O 0.58395 0.10769 0.6743 0.0
O310 O 0.5871 0.11985 0.58543 0.0
C311 C 0.57419 0.11352 0.63313 0.0
O312 O 0.63836 0.12075 0.4987 0.0
O313 O 0.60457 0.09385 0.53293 0.0
O314 O 0.693 0.13033 0.55207 0.0
O315 O 0.68009 0.13808 0.63452 0.0
H316 H 0.72014 0.17034 0.69531 0.0
H317 H 0.7719 0.22704 0.59664 0.0
H318 H 0.71915 0.16965 0.49984 0.0
O319 O 0.50295 0.57612 0.63131 0.0
Tb320 Tb 0.5389 0.59418 0.6117 0.0
Eu321 Eu 0.56028 0.65593 0.58073 0.0
C322 C 0.49303 0.58771 0.64663 0.0
O323 O 0.50484 0.61001 0.6461 0.0
C324 C 0.5685 0.63266 0.69661 0.0
O325 O 0.58406 0.65548 0.51018 0.0
C326 C 0.5611 0.6945 0.58683 0.0
C327 C 0.59389 0.64339 0.52045 0.0
O328 O 0.59108 0.63358 0.57323 0.0
C329 C 0.52686 0.61202 0.49998 0.0
C330 C 0.56159 0.71672 0.58827 0.0
C331 C 0.5608 0.72665 0.64386 0.0
C332 C 0.562 0.74801 0.64539 0.0
C333 C 0.56332 0.75897 0.59021 0.0
C334 C 0.56369 0.74928 0.53412 0.0
C335 C 0.56295 0.72816 0.5337 0.0
O336 O 0.54722 0.61819 0.68484 0.0
O337 O 0.57871 0.65072 0.66159 0.0
O338 O 0.53632 0.5615 0.62851 0.0
O339 O 0.56911 0.59085 0.61944 0.0
C340 C 0.55808 0.56908 0.6291 0.0
O341 O 0.52788 0.62932 0.53068 0.0
O342 O 0.53922 0.60321 0.51743 0.0
O343 O 0.57264 0.69022 0.54628 0.0
O344 O 0.54925 0.67783 0.62513 0.0
H345 H 0.55992 0.71808 0.68597 0.0
H346 H 0.56347 0.77498 0.59088 0.0
H347 H 0.56348 0.72063 0.49081 0.0
C348 C 0.43952 0.03873 0.26121 0.0
C349 C 0.4337 0.05422 0.23741 0.0
C350 C 0.42639 0.02336 0.30643 0.0
C351 C 0.40675 0.02327 0.32789 0.0
C352 C 0.40064 0.03873 0.30382 0.0
C353 C 0.41432 0.0542 0.259 0.0
C354 C 0.43366 1.00732 0.33145 0.0
C355 C 0.37966 0.03886 0.32532 0.0
C356 C 0.36756 0.9678 0.4059 0.0
C357 C 0.37411 0.97352 0.46647 0.0
C358 C 0.37654 0.98441 0.36049 0.0
C359 C 0.39299 1.007 0.37611 0.0
C360 C 0.39861 0.01308 0.43773 0.0
C361 C 0.38883 0.99627 0.48236 0.0
C362 C 0.36974 0.97739 0.2954 0.0
C363 C 0.41654 0.03682 0.45619 0.0
H364 H 0.45453 0.03871 0.24486 0.0
H365 H 0.40972 0.06608 0.24046 0.0
H366 H 0.4363 1.00976 0.38116 0.0
H367 H 0.42014 0.98946 0.32357 0.0
H368 H 0.44961 1.00987 0.31043 0.0
H369 H 0.37686 0.05147 0.30063 0.0
H370 H 0.36451 0.02176 0.31919 0.0
H371 H 0.38113 0.04287 0.37445 0.0
H372 H 0.35613 0.95019 0.39375 0.0
H373 H 0.39417 1.00067 0.52915 0.0
H374 H 0.3837 0.97668 0.27144 0.0
H375 H 0.36675 0.99001 0.27162 0.0
H376 H 0.35417 0.96042 0.29192 0.0
H377 H 0.43354 0.03959 0.44367 0.0
H378 H 0.41642 0.03963 0.50579 0.0
H379 H 0.41413 0.04973 0.43202 0.0
C380 C 0.35682 0.39943 0.27674 0.0
C381 C 0.37135 0.41295 0.23033 0.0
C382 C 0.36293 0.38683 0.31488 0.0
C383 C 0.38442 0.38858 0.3078 0.0
C384 C 0.39878 0.40161 0.25962 0.0
C385 C 0.39188 0.4133 0.22085 0.0
C386 C 0.34678 0.37239 0.36416 0.0
C387 C 0.4221 0.40444 0.25134 0.0
C388 C 0.41584 0.38416 0.444 0.0
C389 C 0.41627 0.36422 0.43087 0.0
C390 C 0.40473 0.39183 0.40548 0.0
C391 C 0.39305 0.37878 0.35379 0.0
C392 C 0.39189 0.35768 0.34309 0.0
C393 C 0.40396 0.35087 0.38109 0.0
C394 C 0.40697 0.41473 0.41769 0.0
C395 C 0.37883 0.34284 0.28994 0.0
H396 H 0.34087 0.39904 0.28391 0.0
H397 H 0.40326 0.42389 0.18535 0.0
H398 H 0.34559 0.35553 0.36581 0.0
H399 H 0.35323 0.38069 0.40881 0.0
H400 H 0.32949 0.36988 0.35743 0.0
H401 H 0.43088 0.41461 0.21054 0.0
H402 H 0.43274 0.41305 0.29173 0.0
H403 H 0.42089 0.38763 0.24729 0.0
H404 H 0.42555 0.39464 0.48211 0.0
H405 H 0.40419 0.33538 0.3711 0.0
H406 H 0.39002 0.41329 0.41857 0.0
H407 H 0.4168 0.42663 0.3806 0.0
H408 H 0.4157 0.42224 0.46135 0.0
H409 H 0.36202 0.34167 0.28585 0.0
H410 H 0.37624 0.32542 0.29409 0.0
H411 H 0.38828 0.35044 0.24742 0.0
C412 C 0.05389 0.40795 0.43312 0.0
C413 C 0.0761 0.42009 0.41035 0.0
C414 C 0.03507 0.40016 0.39446 0.0
C415 C 0.03856 0.40439 0.3315 0.0
C416 C 0.06084 0.41466 0.30765 0.0
C417 C 0.07939 0.42247 0.34744 0.0
C418 C 1.01159 0.38926 0.42175 0.0
C419 C 0.06524 0.41912 0.24063 0.0
C420 C 0.98693 0.3777 0.22751 0.0
C421 C 0.98244 0.39561 0.22137 0.0
C422 C 1.00534 0.38031 0.26256 0.0
C423 C 0.0194 0.40124 0.29239 0.0
C424 C 1.01495 0.41935 0.28616 0.0
C425 C 0.99659 0.41633 0.2506 0.0
C426 C 1.00973 0.36073 0.26782 0.0
C427 C 0.02946 0.44192 0.31755 0.0
H428 H 0.05113 0.4058 0.48163 0.0
H429 H 0.09648 0.4316 0.32936 0.0
H430 H 1.00525 0.40143 0.42 0.0
H431 H 0.99955 0.37397 0.39551 0.0
H432 H 1.01146 0.3843 0.46976 0.0
H433 H 0.08282 0.42359 0.22833 0.0
H434 H 0.05312 0.40405 0.21379 0.0
H435 H 0.06272 0.43344 0.22752 0.0
H436 H 0.97611 0.36167 0.20478 0.0
H437 H 0.99323 0.43024 0.24617 0.0
H438 H 1.00845 0.35549 0.31591 0.0
H439 H 0.02724 0.36609 0.25259 0.0
H440 H 0.99757 0.34577 0.24055 0.0
H441 H 0.02907 0.43939 0.3673 0.0
H442 H 0.0237 0.45426 0.30797 0.0
H443 H 0.04738 0.44946 0.30278 0.0
C444 C 0.62869 0.96525 0.30751 0.0
C445 C 0.62043 0.96681 0.25062 0.0
C446 C 0.64072 0.98462 0.34416 0.0
C447 C 0.64382 1.00574 0.32398 0.0
C448 C 0.63673 1.00761 0.26507 0.0
C449 C 0.62543 0.98818 0.22878 0.0
C450 C 0.64882 0.98221 0.40587 0.0
C451 C 0.63915 0.02966 0.24232 0.0
C452 C 0.64062 0.04529 0.43868 0.0
C453 C 0.66286 0.06373 0.43794 0.0
C454 C 0.63441 0.02606 0.40292 0.0
C455 C 0.65106 0.02494 0.36703 0.0
C456 C 0.67384 0.04303 0.36843 0.0
C457 C 0.67941 0.0625 0.40311 0.0
C458 C 0.60977 1.00745 0.40139 0.0
C459 C 0.69214 0.04201 0.33233 0.0
H460 H 0.62511 0.9488 0.32423 0.0
H461 H 0.61915 0.98956 0.18476 0.0
H462 H 0.66604 0.99673 0.41545 0.0
H463 H 0.63722 0.98223 0.44115 0.0
H464 H 0.64922 0.96613 0.40983 0.0
H465 H 0.63459 0.02874 0.19362 0.0
H466 H 0.62786 0.03383 0.26891 0.0
H467 H 0.65678 0.04384 0.24863 0.0
H468 H 0.62777 0.0463 0.46532 0.0
H469 H 0.69667 0.07671 0.40312 0.0
H470 H 0.60819 0.99095 0.41395 0.0
H471 H 0.60296 1.00564 0.35472 0.0
H472 H 0.59905 1.01089 0.43265 0.0
H473 H 0.69134 0.02549 0.33958 0.0
H474 H 0.70938 0.05596 0.34471 0.0
H475 H 0.68943 0.04331 0.28327 0.0
C476 C 0.61549 0.59138 0.22868 0.0
C477 C 0.63749 0.59499 0.22079 0.0
C478 C 0.61022 0.60088 0.27794 0.0
C479 C 0.62754 0.61483 0.31945 0.0
C480 C 0.64996 0.61908 0.31083 0.0
C481 C 0.65462 0.60879 0.2619 0.0
C482 C 0.58595 0.59541 0.2865 0.0
C483 C 0.66891 0.63428 0.35354 0.0
C484 C 0.61219 0.65083 0.41825 0.0
C485 C 0.60489 0.63778 0.47116 0.0
C486 C 0.6209 0.64426 0.36949 0.0
C487 C 0.62169 0.62388 0.37345 0.0
C488 C 0.61487 0.61098 0.42744 0.0
C489 C 0.60683 0.61826 0.47589 0.0
C490 C 0.62854 0.65868 0.31305 0.0
C491 C 0.61487 0.58884 0.43297 0.0
H492 H 0.60215 0.58052 0.19723 0.0
H493 H 0.67165 0.61167 0.25554 0.0
H494 H 0.57939 0.58668 0.33051 0.0
H495 H 0.58514 0.61128 0.28778 0.0
H496 H 0.57455 0.58434 0.24982 0.0
H497 H 0.68568 0.63718 0.33802 0.0
H498 H 0.66978 0.65095 0.35797 0.0
H499 H 0.6655 0.62657 0.39933 0.0
H500 H 0.61084 0.666 0.41469 0.0
H501 H 0.60109 0.60801 0.5166 0.0
H502 H 0.61651 0.64956 0.27546 0.0
H503 H 0.64549 0.66181 0.29868 0.0
H504 H 0.62942 0.67529 0.31988 0.0
H505 H 0.60249 0.57627 0.40038 0.0
H506 H 0.61029 0.58155 0.47931 0.0
H507 H 0.63181 0.59131 0.42137 0.0
C508 C 0.97453 0.61333 0.39327 0.0
C509 C 0.98178 0.6169 0.45383 0.0
C510 C 0.99007 0.61847 0.34582 0.0
C511 C 1.01328 0.627 0.35953 0.0
C512 C 0.02087 0.63196 0.42033 0.0
C513 C 1.00504 0.62707 0.46674 0.0
C514 C 0.98141 0.61332 0.28142 0.0
C515 C 0.04546 0.64084 0.4368 0.0
C516 C 0.04671 0.60986 0.25688 0.0
C517 C 0.06063 0.63008 0.22555 0.0
C518 C 0.03107 0.60863 0.30004 0.0
C519 C 0.02909 0.62804 0.31167 0.0
C520 C 0.04273 0.64838 0.27932 0.0
C521 C 0.0585 0.64922 0.23682 0.0
C522 C 1.01697 0.58664 0.33401 0.0
C523 C 0.0408 0.66927 0.29 0.0
H524 H 0.95658 0.6056 0.38304 0.0
H525 H 1.01078 0.62983 0.51345 0.0
H526 H 0.99258 0.62754 0.25095 0.0
H527 H 0.98158 0.59795 0.26517 0.0
H528 H 0.96379 0.61018 0.27756 0.0
H529 H 0.0488 0.64489 0.48585 0.0
H530 H 0.05028 0.62794 0.42507 0.0
H531 H 0.05662 0.65635 0.41036 0.0
H532 H 0.04831 0.59501 0.24851 0.0
H533 H 0.06912 0.66484 0.2124 0.0
H534 H 0.99864 0.58037 0.32676 0.0
H535 H 0.02028 0.58957 0.38338 0.0
H536 H 0.02064 0.57315 0.31964 0.0
H537 H 0.0229 0.66507 0.28443 0.0
H538 H 0.05162 0.6833 0.25852 0.0
H539 H 0.04589 0.67538 0.3372 0.0
C540 C 0.59915 0.05103 0.76804 0.0
C541 C 0.61665 0.0567 0.72545 0.0
C542 C 0.59183 0.03245 0.80824 0.0
C543 C 0.60198 0.01862 0.8066 0.0
C544 C 0.61967 0.02418 0.76385 0.0
C545 C 0.62679 0.04304 0.72424 0.0
C546 C 0.57309 0.02762 0.8527 0.0
C547 C 0.63103 1.01007 0.75969 0.0
C548 C 0.59623 0.98376 0.95037 0.0
C549 C 0.57784 0.96202 0.9366 0.0
C550 C 0.60448 1.00195 0.90842 0.0
C551 C 0.59427 0.99873 0.85033 0.0
C552 C 0.57596 0.97671 0.83565 0.0
C553 C 0.56802 0.95878 0.87857 0.0
C554 C 0.62388 0.02489 0.92704 0.0
C555 C 0.56433 0.97218 0.77482 0.0
H556 H 0.59099 0.0612 0.77017 0.0
H557 H 0.64017 0.0469 0.69173 0.0
H558 H 0.55852 1.01027 0.84493 0.0
H559 H 0.57914 0.02817 0.89972 0.0
H560 H 0.567 0.03997 0.84894 0.0
H561 H 0.64434 0.01631 0.72408 0.0
H562 H 0.6389 1.01025 0.80387 0.0
H563 H 0.61819 0.99213 0.74956 0.0
H564 H 0.60407 0.98678 0.99475 0.0
H565 H 0.55376 0.94228 0.86692 0.0
H566 H 0.61807 0.03748 0.92796 0.0
H567 H 0.63783 0.0309 0.89344 0.0
H568 H 0.63074 0.02453 0.97247 0.0
H569 H 0.55596 0.98251 0.77022 0.0
H570 H 0.55132 0.95399 0.76855 0.0
H571 H 0.57703 0.97734 0.73789 0.0
C572 C 0.62629 0.57201 0.87887 0.0
C573 C 0.63412 0.58072 0.93709 0.0
C574 C 0.61848 0.58262 0.83843 0.0
C575 C 0.61695 0.6018 0.85722 0.0
C576 C 0.62558 0.61116 0.91564 0.0
C577 C 0.6344 0.60077 0.95421 0.0
C578 C 0.61149 0.57273 0.77583 0.0
C579 C 0.62543 0.63195 0.93889 0.0
C580 C 0.60498 0.63867 0.74655 0.0
C581 C 0.58125 0.62597 0.74003 0.0
C582 C 0.61683 0.63112 0.784 0.0
C583 C 0.60474 0.61058 0.81763 0.0
C584 C 0.58072 0.59775 0.81098 0.0
C585 C 0.56949 0.60552 0.77256 0.0
C586 C 0.6424 0.64505 0.78601 0.0
C587 C 0.56637 0.57518 0.84203 0.0
H588 H 0.62615 0.55665 0.86479 0.0
H589 H 0.64037 0.60769 0.99915 0.0
H590 H 0.59365 0.55855 0.77669 0.0
H591 H 0.61301 0.58559 0.7425 0.0
H592 H 0.62221 0.56567 0.76044 0.0
H593 H 0.62213 0.63068 0.98845 0.0
H594 H 0.64247 0.64703 0.93169 0.0
H595 H 0.61268 0.6349 0.91581 0.0
H596 H 0.61443 0.6543 0.72116 0.0
H597 H 0.55125 0.59511 0.76724 0.0
H598 H 0.65018 0.63423 0.79204 0.0
H599 H 0.64762 0.6571 0.82465 0.0
H600 H 0.64932 0.65519 0.744 0.0
H601 H 0.55066 0.574 0.86029 0.0
H602 H 0.57523 0.572 0.87949 0.0
H603 H 0.56095 0.56135 0.80803 0.0
C604 C 0.03669 0.62091 0.97971 0.0
C605 C 0.05689 0.62129 0.96425 0.0
C606 C 0.01888 0.61454 0.93699 0.0
C607 C 0.02076 0.60754 0.87744 0.0
C608 C 0.04132 0.60814 0.86166 0.0
C609 C 0.05905 0.61516 0.9048 0.0
C610 C 0.99775 0.61477 0.95626 0.0
C611 C 0.04471 0.60101 0.79946 0.0
C612 C 0.96507 0.56654 0.79344 0.0
C613 C 0.96456 0.57987 0.74554 0.0
C614 C 0.98301 0.57524 0.83622 0.0
C615 C 1.00084 0.59828 0.83322 0.0
C616 C 0.99985 0.6121 0.78641 0.0
C617 C 0.98213 0.60268 0.74274 0.0
C618 C 0.98261 0.5593 0.88414 0.0
C619 C 1.01761 0.63691 0.78198 0.0
H620 H 0.0346 0.62515 1.02576 0.0
H621 H 0.07441 0.61504 0.89253 0.0
H622 H 0.99244 0.62268 0.92069 0.0
H623 H 0.98371 0.59707 0.96254 0.0
H624 H 1.00028 0.62414 0.99954 0.0
H625 H 0.05783 0.59587 0.79995 0.0
H626 H 0.02872 0.58679 0.78091 0.0
H627 H 0.0506 0.61558 0.76803 0.0
H628 H 0.95181 0.54887 0.79639 0.0
H629 H 0.98206 0.61326 0.70619 0.0
H630 H 0.972 0.55904 0.92263 0.0
H631 H 0.99981 0.56455 0.90152 0.0
H632 H 0.97491 0.54167 0.8663 0.0
H633 H 1.01212 0.64631 0.75182 0.0
H634 H 0.0335 0.63856 0.76336 0.0
H635 H 0.02153 0.64502 0.82748 0.0
C636 C 0.45147 0.0639 0.87113 0.0
C637 C 0.44588 0.06139 0.93314 0.0
C638 C 0.44326 0.04493 0.83148 0.0
C639 C 0.42911 0.02253 0.85381 0.0
C640 C 0.42323 0.01994 0.91627 0.0
C641 C 0.43149 0.03922 0.95473 0.0
C642 C 0.4496 0.04924 0.76536 0.0
C643 C 0.4083 0.99665 0.94279 0.0
C644 C 0.39351 0.97436 0.7393 0.0
C645 C 0.40576 0.9628 0.73485 0.0
C646 C 0.40059 0.99339 0.77827 0.0
C647 C 0.42091 1.00182 0.81267 0.0
C648 C 0.43364 0.99056 0.80695 0.0
C649 C 0.42575 0.97108 0.76947 0.0
C650 C 0.38648 1.00475 0.78181 0.0
C651 C 0.45607 0.99959 0.83913 0.0
H652 H 0.46244 0.0808 0.85333 0.0
H653 H 0.42706 0.03681 1.00238 0.0
H654 H 0.45 0.03477 0.74344 0.0
H655 H 0.43677 0.05184 0.74128 0.0
H656 H 0.46638 0.06485 0.7593 0.0
H657 H 0.40471 0.99736 0.99161 0.0
H658 H 0.39196 0.9878 0.91773 0.0
H659 H 0.41662 0.98628 0.93768 0.0
H660 H 0.37827 0.96847 0.71224 0.0
H661 H 0.43581 0.96284 0.76541 0.0
H662 H 0.39637 0.02229 0.76378 0.0
H663 H 0.38233 1.00607 0.82977 0.0
H664 H 0.37041 0.99543 0.75562 0.0
H665 H 0.46766 0.01755 0.826 0.0
H666 H 0.46449 0.9896 0.82881 0.0
H667 H 0.45336 0.99935 0.88864 0.0
C668 C 0.4482 0.41554 0.71263 0.0
C669 C 0.46646 0.41233 0.72796 0.0
C670 C 0.43958 0.42542 0.75396 0.0
C671 C 0.44882 0.43172 0.81342 0.0
C672 C 0.46686 0.42789 0.82954 0.0
C673 C 0.47556 0.41863 0.7867 0.0
C674 C 0.42082 0.42955 0.73343 0.0
C675 C 0.47708 0.4336 0.89229 0.0
C676 C 0.44177 0.47597 0.90713 0.0
C677 C 0.42244 0.4625 0.9428 0.0
C678 C 0.45013 0.46634 0.86443 0.0
C679 C 0.43974 0.44235 0.85837 0.0
C680 C 0.42072 0.42861 0.89584 0.0
C681 C 0.41215 0.43874 0.93649 0.0
C682 C 0.47005 0.48197 0.82521 0.0
C683 C 0.40949 0.40305 0.89353 0.0
H684 H 0.44101 0.41089 0.66747 0.0
H685 H 0.48926 0.4158 0.79972 0.0
H686 H 0.40569 0.42006 0.76268 0.0
H687 H 0.42639 0.44787 0.73803 0.0
H688 H 0.41577 0.4243 0.6856 0.0
H689 H 0.48843 0.42655 0.90086 0.0
H690 H 0.48712 0.45231 0.89792 0.0
H691 H 0.46353 0.42693 0.9272 0.0
H692 H 0.4504 0.49425 0.9121 0.0
H693 H 0.39745 0.42792 0.96393 0.0
H694 H 0.46571 0.47762 0.77667 0.0
H695 H 0.48475 0.47973 0.83545 0.0
H696 H 0.47528 0.50014 0.83214 0.0
H697 H 0.40242 0.39681 0.84764 0.0
H698 H 0.39557 0.39467 0.92718 0.0
H699 H 0.42226 0.39781 0.90235 0.0
C700 C 0.06374 0.46568 0.77709 0.0
C701 C 0.06775 0.45242 0.73527 0.0
C702 C 0.04698 0.45589 0.82258 0.0
C703 C 0.0335 0.43189 0.82826 0.0
C704 C 0.03788 0.41831 0.78734 0.0
C705 C 0.05467 0.42863 0.74135 0.0
C706 C 0.04421 0.47177 0.86468 0.0
C707 C 0.02489 0.39278 0.79227 0.0
C708 C 1.00279 0.41314 0.98303 0.0
C709 C 0.98003 0.40542 0.96781 0.0
C710 C 0.01997 0.42046 0.93812 0.0
C711 C 1.01473 0.42126 0.87593 0.0
C712 C 0.9916 0.41335 0.86057 0.0
C713 C 0.97467 0.4053 0.90626 0.0
C714 C 0.04389 0.42787 0.95809 0.0
C715 C 0.98426 0.41355 0.79611 0.0
H716 H 0.07374 0.48405 0.77441 0.0
H717 H 0.05752 0.41799 0.71016 0.0
H718 H 0.04803 0.4877 0.84108 0.0
H719 H 0.02688 0.46388 0.88367 0.0
H720 H 0.0565 0.47656 0.90258 0.0
H721 H 0.03279 0.3848 0.76506 0.0
H722 H 0.0239 0.38751 0.8403 0.0
H723 H 1.0073 0.38618 0.77571 0.0
H724 H 1.00725 0.41368 1.03043 0.0
H725 H 0.95724 0.39975 0.89387 0.0
H726 H 0.05321 0.44649 0.96578 0.0
H727 H 0.05314 0.42386 0.92328 0.0
H728 H 0.04402 0.41961 1.00135 0.0
H729 H 0.99832 0.42583 0.76692 0.0
H730 H 0.97041 0.41769 0.79489 0.0
H731 H 0.97738 0.39631 0.77635 0.0
C732 C 0.47599 0.93496 0.97933 0.0
C733 C 0.49054 0.93771 1.02755 0.0
C734 C 0.47004 0.95158 0.96773 0.0
C735 C 0.47931 0.97127 1.00473 0.0
C736 C 0.49223 0.97288 0.05676 0.0
C737 C 0.49752 0.95592 0.06771 0.0
C738 C 0.4553 0.94871 0.91356 0.0
C739 C 0.50223 0.99346 0.09804 0.0
C740 C 0.50146 0.03063 0.94995 0.0
C741 C 0.48813 0.03672 0.98437 0.0
C742 C 0.49712 1.00824 0.95051 0.0
C743 C 0.47884 0.99178 0.98565 0.0
C744 C 0.46369 0.99736 1.01412 0.0
C745 C 0.46875 0.01997 1.01401 0.0
C746 C 0.51343 1.0028 0.91849 0.0
C747 C 0.4432 0.97983 0.04844 0.0
H748 H 0.47035 0.92061 0.94876 0.0
H749 H 0.50837 0.95767 0.10581 0.0
H750 H 0.44567 0.95776 0.91968 0.0
H751 H 0.46616 0.95564 0.8728 0.0
H752 H 0.4431 0.93044 0.90477 0.0
H753 H 0.51105 0.99145 0.13789 0.0
H754 H 0.51464 1.00871 0.07247 0.0
H755 H 0.48875 0.99668 0.11477 0.0
H756 H 0.51614 0.0436 0.92595 0.0
H757 H 0.458 0.02467 0.03902 0.0
H758 H 0.50407 0.98664 0.8929 0.0
H759 H 0.52426 1.00073 0.95253 0.0
H760 H 0.5246 0.01645 0.88652 0.0
H761 H 0.43423 0.96379 1.022 0.0
H762 H 0.43112 0.98587 0.05867 0.0
H763 H 0.44868 0.97591 0.0919 0.0
C764 C 0.48473 0.58884 0.03111 0.0
C765 C 0.46986 0.5782 0.98243 0.0
C766 C 0.50695 0.59279 1.02852 0.0
C767 C 0.51432 0.58704 0.97483 0.0
C768 C 0.50135 0.58258 0.92115 0.0
C769 C 0.47875 0.57757 0.92574 0.0
C770 C 0.52067 0.59884 0.08634 0.0
C771 C 0.51008 0.57962 0.86118 0.0
C772 C 0.56755 0.58309 0.99839 0.0
C773 C 0.55806 0.55977 1.00924 0.0
C774 C 0.55377 0.59229 0.98325 0.0
C775 C 0.52992 0.57784 0.98091 0.0
C776 C 0.52036 0.55414 0.99123 0.0
C777 C 0.53462 0.54543 1.00434 0.0
C778 C 0.56498 0.61724 0.96812 0.0
C779 C 0.49497 0.53788 0.99038 0.0
H780 H 0.47795 0.59021 0.07442 0.0
H781 H 0.46749 0.57002 0.88732 0.0
H782 H 0.51993 0.58335 0.10509 0.0
H783 H 0.53873 0.61145 0.07745 0.0
H784 H 0.51407 0.60586 0.1212 0.0
H785 H 0.50018 0.58079 0.82269 0.0
H786 H 0.5282 0.59284 0.856 0.0
H787 H 0.50883 0.56272 0.85937 0.0
H788 H 0.58578 0.59409 1.00101 0.0
H789 H 0.52733 0.52737 1.01233 0.0
H790 H 0.55363 0.62436 0.97494 0.0
H791 H 0.57001 0.61949 0.91967 0.0
H792 H 0.58061 0.62723 0.9956 0.0
H793 H 0.48632 0.54382 1.0219 0.0
H794 H 0.49043 0.52035 1.00357 0.0
H795 H 0.48815 0.5371 0.94422 0.0
C796 C 0.05877 0.55109 0.86831 0.0
C797 C 0.06906 0.54795 0.91964 0.0
C798 C 0.03643 0.53485 0.85208 0.0
C799 C 0.02436 0.5152 0.88815 0.0
C800 C 0.03577 0.51078 0.93541 0.0
C801 C 0.0582 0.52707 0.9497 0.0
C802 C 0.02491 0.54022 0.80172 0.0
C803 C 0.02369 0.49037 0.97654 0.0
C804 C 0.96428 0.48839 0.94219 0.0
C805 C 0.95496 0.46732 0.91294 0.0
C806 C 0.98648 0.50553 0.9294 0.0
C807 C 0.9992 0.50158 0.88509 0.0
C808 C 0.98822 0.48198 0.84783 0.0
C809 C 0.96609 0.46493 0.86247 0.0
C810 C 0.99713 0.52624 0.96999 0.0
C811 C 1.00011 0.47747 0.79663 0.0
H812 H 0.06726 0.56719 0.8446 0.0
H813 H 0.06616 0.52448 0.9891 0.0
H814 H 0.03747 0.55293 0.77003 0.0
H815 H 1.01312 0.52477 0.77572 0.0
H816 H 1.01477 0.54725 0.82167 0.0
H817 H 0.03552 0.48469 0.9925 0.0
H818 H 1.01748 0.49521 1.01722 0.0
H819 H 1.0089 0.47584 0.95429 0.0
H820 H 0.95553 0.49049 0.98056 0.0
H821 H 0.9586 0.44881 0.83857 0.0
H822 H 1.01157 0.54104 0.94782 0.0
H823 H 1.00359 0.52231 1.0117 0.0
H824 H 0.98437 0.53095 0.9842 0.0
H825 H 0.98985 0.47379 0.75461 0.0
H826 H 1.00106 0.46204 0.80682 0.0
H827 H 1.01746 0.49175 0.7877 0.0
C828 C 0.99407 0.52478 0.62267 0.0
C829 C 0.98533 0.53742 0.59641 0.0
C830 C 1.01673 0.53087 0.61389 0.0
C831 C 0.03093 0.55012 0.57789 0.0
C832 C 0.02229 0.56328 0.55231 0.0
C833 C 0.99944 0.55669 0.56174 0.0
C834 C 0.02543 0.5166 0.64315 0.0
C835 C 0.03715 0.58429 0.51561 0.0
C836 C 0.08945 0.56248 0.61398 0.0
C837 C 0.09051 0.54705 0.57404 0.0
C838 C 0.07135 0.56675 0.61031 0.0
C839 C 0.05437 0.55523 0.56569 0.0
C840 C 0.05773 0.54286 0.51924 0.0
C841 C 0.07587 0.53884 0.52413 0.0
C842 C 0.06924 0.58169 0.65753 0.0
C843 C 0.04037 0.53093 0.46976 0.0
H844 H 0.98319 0.51011 0.65024 0.0
H845 H 0.99265 0.56667 0.54227 0.0
H846 H 0.03193 0.50963 0.608 0.0
H847 H 0.0397 0.52728 0.67426 0.0
H848 H 1.01207 0.50219 0.66942 0.0
H849 H 0.05155 0.59672 0.54383 0.0
H850 H 0.04445 0.57998 0.47631 0.0
H851 H 0.02767 0.59255 0.49872 0.0
H852 H 0.10136 0.56943 0.6514 0.0
H853 H 0.0773 0.52752 0.49202 0.0
H854 H 0.05205 0.57317 0.67793 0.0
H855 H 0.07174 0.59743 0.63554 0.0
H856 H 0.08199 0.58655 0.69438 0.0
H857 H 0.02557 0.51551 0.48872 0.0
H858 H 0.04737 0.52559 0.43175 0.0
H859 H 0.03416 0.54202 0.45173 0.0
C860 C 0.45584 1.00379 0.58488 0.0
C861 C 0.466 0.99025 0.58312 0.0
C862 C 0.46909 0.02747 0.59213 0.0
C863 C 0.49302 0.03772 0.59529 0.0
C864 C 0.5033 0.02409 0.58963 0.0
C865 C 0.48961 1.00048 0.58461 0.0
C866 C 0.4574 0.04125 0.59831 0.0
C867 C 0.5288 0.03433 0.59144 0.0
C868 C 0.53924 0.09764 0.571 0.0
C869 C 0.54926 0.10212 0.62869 0.0
C870 C 0.51848 0.07768 0.5603 0.0
C871 C 0.50774 0.06234 0.60862 0.0
C872 C 0.51561 0.06923 0.66872 0.0
C873 C 0.53633 0.0893 0.67812 0.0
C874 C 0.51017 0.07136 0.49596 0.0
C875 C 0.50445 0.05384 0.72226 0.0
H876 H 0.43747 0.99578 0.58421 0.0
H877 H 0.49737 0.98992 0.5833 0.0
H878 H 0.4658 0.05476 0.63315 0.0
H879 H 0.45833 0.04963 0.5545 0.0
H880 H 0.43919 0.03044 0.61042 0.0
H881 H 0.53404 0.02158 0.58173 0.0
H882 H 0.53702 0.04825 0.55783 0.0
H883 H 0.53533 0.04173 0.63695 0.0
H884 H 0.54894 0.1079 0.53273 0.0
H885 H 0.54377 0.0931 0.72314 0.0
H886 H 0.49137 0.06236 0.49387 0.0
H887 H 0.51575 0.05973 0.47782 0.0
H888 H 0.51708 0.08656 0.46638 0.0
H889 H 0.48634 0.04136 0.71357 0.0
H890 H 0.50577 0.06396 0.76327 0.0
H891 H 0.51339 0.04434 0.73215 0.0
C892 C 0.55439 0.53194 0.65222 0.0
C893 C 0.56839 0.55484 0.63821 0.0
C894 C 0.56322 0.51743 0.65777 0.0
C895 C 0.58699 0.52625 0.65099 0.0
C896 C 0.60137 0.54966 0.63834 0.0
C897 C 0.5918 0.56366 0.6315 0.0
C898 C 0.5467 0.49241 0.6682 0.0
C899 C 0.62672 0.56023 0.63095 0.0
C900 C 0.5874 0.4751 0.70147 0.0
C901 C 0.58223 0.46407 0.64527 0.0
C902 C 0.59465 0.4984 0.70431 0.0
C903 C 0.59544 0.50991 0.65005 0.0
C904 C 0.59548 0.49996 0.59367 0.0
C905 C 0.58918 0.477 0.59218 0.0
C906 C 0.5978 0.5097 0.7652 0.0
C907 C 0.598 0.51208 0.53447 0.0
H908 H 0.53627 0.52516 0.65737 0.0
H909 H 0.60267 0.58149 0.62065 0.0
H910 H 0.54914 0.48194 0.63371 0.0
H911 H 0.54959 0.48733 0.71355 0.0
H912 H 0.52871 0.48824 0.66602 0.0
H913 H 0.63566 0.57678 0.65518 0.0
H914 H 0.63321 0.5492 0.64783 0.0
H915 H 0.63114 0.56401 0.58234 0.0
H916 H 0.5828 0.46521 0.74275 0.0
H917 H 0.58605 0.46842 0.54877 0.0
H918 H 0.58314 0.51205 0.77531 0.0
H919 H 0.61327 0.52676 0.76443 0.0
H920 H 0.59939 0.49953 0.80222 0.0
H921 H 0.58383 0.51558 0.52871 0.0
H922 H 0.59807 0.502 0.49494 0.0
H923 H 0.61412 0.52853 0.53429 0.0
C924 C 0.53354 0.12411 0.25588 0.0
C925 C 0.53522 0.1179 0.19602 0.0
C926 C 0.5477 0.12384 0.30286 0.0
C927 C 0.56378 0.11681 0.29057 0.0
C928 C 0.56565 0.11076 0.23018 0.0
C929 C 0.55165 0.11157 0.18409 0.0
C930 C 0.5454 0.13107 0.36591 0.0
C931 C 0.582 0.10265 0.21438 0.0
C932 C 0.61293 0.12948 0.40105 0.0
C933 C 0.60405 0.10928 0.43471 0.0
C934 C 0.60001 0.13236 0.35502 0.0
C935 C 0.57772 0.11448 0.34094 0.0
C936 C 0.56891 0.09392 0.3741 0.0
C937 C 0.58196 0.0917 0.4206 0.0
C938 C 0.61009 0.15473 0.32204 0.0
C939 C 0.54563 0.07409 0.36023 0.0
H940 H 0.52107 0.12907 0.2662 0.0
H941 H 0.55318 0.10647 0.13858 0.0
H942 H 0.54246 0.11765 0.39908 0.0
H943 H 0.56148 0.14653 0.37902 0.0
H944 H 0.5313 0.13479 0.36936 0.0
H945 H 0.58198 0.09914 0.16517 0.0
H946 H 0.5995 0.11554 0.22807 0.0
H947 H 0.57744 0.08687 0.23977 0.0
H948 H 0.62977 0.14334 0.4119 0.0
H949 H 0.57476 0.07602 0.44617 0.0
H950 H 0.59901 0.16222 0.32788 0.0
H951 H 0.61098 0.15201 0.27276 0.0
H952 H 0.62741 0.16711 0.33859 0.0
H953 H 0.53265 0.07928 0.36507 0.0
H954 H 0.54102 0.05935 0.39037 0.0
H955 H 0.54498 0.06857 0.31254 0.0
C956 C 0.43245 0.52193 0.26962 0.0
C957 C 0.43081 0.5314 0.21461 0.0
C958 C 0.44714 0.53565 0.31671 0.0
C959 C 0.46112 0.55949 0.30857 0.0
C960 C 0.45947 0.56912 0.25318 0.0
C961 C 0.44422 0.55511 0.20762 0.0
C962 C 0.44791 0.52453 0.37505 0.0
C963 C 0.47436 0.59421 0.24111 0.0
C964 C 0.48901 0.59864 0.44707 0.0
C965 C 0.51051 0.60052 0.44862 0.0
C966 C 0.47279 0.5854 0.40206 0.0
C967 C 0.47827 0.57411 0.35645 0.0
C968 C 0.50027 0.57668 0.35684 0.0
C969 C 0.51588 0.5895 0.403 0.0
C970 C 0.44954 0.58298 0.4043 0.0
C971 C 0.50734 0.56565 0.30871 0.0
H972 H 0.42223 0.50372 0.27598 0.0
H973 H 0.44332 0.5628 0.16557 0.0
H974 H 0.46492 0.52629 0.38065 0.0
H975 H 0.44521 0.53315 0.41426 0.0
H976 H 0.43491 0.50618 0.37632 0.0
H977 H 0.47068 0.59926 0.19656 0.0
H978 H 0.47204 0.60424 0.27722 0.0
H979 H 0.49247 0.5988 0.24192 0.0
H980 H 0.48453 0.60678 0.4824 0.0
H981 H 0.53244 0.59086 0.40349 0.0
H982 H 0.43648 0.56483 0.41011 0.0
H983 H 0.44584 0.58869 0.36092 0.0
H984 H 0.4479 0.59294 0.44196 0.0
H985 H 0.4966 0.5469 0.31157 0.0
H986 H 0.52542 0.57027 0.31327 0.0
H987 H 0.50477 0.57074 0.26298 0.0
C988 C 0.89961 0.43761 0.21121 0.0
C989 C 0.9113 0.42573 0.22054 0.0
C990 C 0.89728 0.45064 0.25777 0.0
C991 C 0.90764 0.45277 0.31516 0.0
C992 C 0.91927 0.44054 0.32505 0.0
C993 C 0.92071 0.427 0.27807 0.0
C994 C 0.88418 0.46265 0.24484 0.0
C995 C 0.93116 0.44261 0.38441 0.0
C996 C 0.92351 0.50707 0.407 0.0
C997 C 0.90702 0.49925 0.45309 0.0
C998 C 0.92406 0.49219 0.36291 0.0
C999 C 0.90736 0.46873 0.36315 0.0
C1000 C 0.89034 0.46081 0.40876 0.0
C1001 C 0.89056 0.47599 0.4534 0.0
C1002 C 0.94289 0.50159 0.31656 0.0
C1003 C 0.87181 0.43622 0.41039 0.0
H1004 H 0.89248 0.43695 0.16678 0.0
H1005 H 0.93023 0.41835 0.28539 0.0
H1006 H 0.87152 0.45901 0.28112 0.0
H1007 H 0.89594 0.48128 0.24437 0.0
H1008 H 0.8752 0.4575 0.20054 0.0
H1009 H 0.93873 0.43146 0.38618 0.0
H1010 H 0.94488 0.46048 0.39121 0.0
H1011 H 0.91912 0.43822 0.42267 0.0
H1012 H 0.93657 0.52484 0.40638 0.0
H1013 H 0.87776 0.4696 0.48863 0.0
H1014 H 0.93564 0.49914 0.27028 0.0
H1015 H 0.95234 0.49224 0.31874 0.0
H1016 H 0.95506 0.51999 0.32351 0.0
H1017 H 0.86269 0.43132 0.36632 0.0
H1018 H 0.85932 0.43277 0.44708 0.0
H1019 H 0.87931 0.4252 0.41728 0.0
C1020 C 0.42821 0.9118 0.38915 0.0
C1021 C 0.4247 0.90067 0.44514 0.0
C1022 C 0.44256 0.91073 0.34418 0.0
C1023 C 0.45369 0.89808 0.35467 0.0
C1024 C 0.44954 0.88619 0.41025 0.0
C1025 C 0.43532 0.8877 0.45448 0.0
C1026 C 0.44643 0.92385 0.28612 0.0
C1027 C 0.4607 0.87232 0.42392 0.0
C1028 C 0.47968 0.88236 0.22032 0.0
C1029 C 0.50287 0.89886 0.22433 0.0
C1030 C 0.46358 0.88181 0.26218 0.0
C1031 C 0.47058 0.89825 0.30937 0.0
C1032 C 0.49399 0.9148 0.31384 0.0
C1033 C 0.5097 0.91485 0.27181 0.0
C1034 C 0.43897 0.86369 0.25553 0.0
C1035 C 0.50247 0.93277 0.3628 0.0
H1036 H 0.42038 0.92204 0.3812 0.0
H1037 H 0.43288 0.87897 0.49726 0.0
H1038 H 0.46452 0.9374 0.28315 0.0
H1039 H 0.44282 0.91248 0.24645 0.0
H1040 H 0.43567 0.93182 0.28305 0.0
H1041 H 0.45466 0.86285 0.46723 0.0
H1042 H 0.45731 0.85999 0.38675 0.0
H1043 H 0.47938 0.88366 0.42679 0.0
H1044 H 0.47399 0.87 0.18387 0.0
H1045 H 0.52742 0.92786 0.2756 0.0
H1046 H 0.42846 0.87171 0.24771 0.0
H1047 H 0.43286 0.85373 0.29802 0.0
H1048 H 0.43619 0.85186 0.21743 0.0
H1049 H 0.49379 0.94284 0.35904 0.0
H1050 H 0.5211 0.94456 0.36022 0.0
H1051 H 0.49836 0.92465 0.4081 0.0
C1052 C 0.5224 0.42401 0.39302 0.0
C1053 C 0.532 0.42014 0.44483 0.0
C1054 C 0.53609 0.43911 0.3469 0.0
C1055 C 0.56011 0.45129 0.35294 0.0
C1056 C 0.5699 0.44729 0.40491 0.0
C1057 C 0.55583 0.43162 0.44945 0.0
C1058 C 0.52477 0.44222 0.2919 0.0
C1059 C 0.59529 0.4601 0.41439 0.0
C1060 C 0.59811 0.48017 0.21396 0.0
C1061 C 0.60136 0.50222 0.21725 0.0
C1062 C 0.58469 0.46342 0.25734 0.0
C1063 C 0.57487 0.46898 0.30662 0.0
C1064 C 0.57891 0.49154 0.31112 0.0
C1065 C 0.59161 0.50761 0.26595 0.0
C1066 C 0.5803 0.43953 0.24906 0.0
C1067 C 0.56944 0.49871 0.36305 0.0
H1068 H 0.50408 0.41526 0.38847 0.0
H1069 H 0.5636 0.4289 0.48901 0.0
H1070 H 0.52736 0.45967 0.29175 0.0
H1071 H 0.53254 0.44019 0.24987 0.0
H1072 H 0.50622 0.42993 0.29077 0.0
H1073 H 0.6003 0.45577 0.45807 0.0
H1074 H 0.60374 0.45624 0.37704 0.0
H1075 H 0.60177 0.47866 0.41337 0.0
H1076 H 0.60519 0.47571 0.17591 0.0
H1077 H 0.59394 0.52457 0.26877 0.0
H1078 H 0.5618 0.42767 0.24364 0.0
H1079 H 0.58585 0.43411 0.28983 0.0
H1080 H 0.58921 0.43789 0.20886 0.0
H1081 H 0.55097 0.4917 0.35602 0.0
H1082 H 0.57767 0.51749 0.36674 0.0
H1083 H 0.57163 0.49195 0.40667 0.0
C1084 C 0.1041 0.58026 0.25594 0.0
C1085 C 0.12213 0.59478 0.21786 0.0
C1086 C 0.10695 0.56769 0.30267 0.0
C1087 C 0.12819 0.5688 0.31067 0.0
C1088 C 0.14654 0.58364 0.27252 0.0
C1089 C 0.14338 0.5966 0.22726 0.0
C1090 C 0.08702 0.5529 0.34296 0.0
C1091 C 0.16935 0.58517 0.278 0.0
C1092 C 0.14017 0.54771 0.46092 0.0
C1093 C 0.13374 0.52502 0.44758 0.0
C1094 C 0.1385 0.56205 0.41726 0.0
C1095 C 0.13087 0.55395 0.35753 0.0
C1096 C 0.125 0.53123 0.34334 0.0
C1097 C 0.12617 0.51705 0.38844 0.0
C1098 C 0.14417 0.58568 0.43582 0.0
C1099 C 0.11713 0.52174 0.28046 0.0
H1100 H 0.08757 0.57859 0.24877 0.0
H1101 H 0.15727 0.60736 0.19729 0.0
H1102 H 0.0819 0.53478 0.33626 0.0
H1103 H 0.09191 0.55708 0.39128 0.0
H1104 H 0.07211 0.55496 0.33371 0.0
H1105 H 0.18205 0.59773 0.24611 0.0
H1106 H 0.17594 0.59 0.32491 0.0
H1107 H 0.1675 0.56828 0.26865 0.0
H1108 H 0.14574 0.5541 0.50646 0.0
H1109 H 0.12107 0.4996 0.37735 0.0
H1110 H 0.12879 0.5873 0.43184 0.0
H1111 H 0.15719 0.59844 0.40509 0.0
H1112 H 0.15054 0.58979 0.48318 0.0
H1113 H 0.10079 0.52095 0.27029 0.0
H1114 H 0.11472 0.50442 0.27521 0.0
H1115 H 0.12965 0.53309 0.24634 0.0
C1116 C 0.43828 0.85346 0.68936 0.0
C1117 C 0.44236 0.87506 0.70674 0.0
C1118 C 0.44935 0.84339 0.71851 0.0
C1119 C 0.46466 0.85521 0.76631 0.0
C1120 C 0.46882 0.8771 0.78379 0.0
C1121 C 0.45774 0.88678 0.75341 0.0
C1122 C 0.44501 0.82048 0.69684 0.0
C1123 C 0.48482 0.89035 0.83515 0.0
C1124 C 0.48085 0.83676 0.90456 0.0
C1125 C 0.50444 0.84972 0.89692 0.0
C1126 C 0.46634 0.83439 0.85667 0.0
C1127 C 0.47596 0.84497 0.8008 0.0
C1128 C 0.49911 0.85256 0.78923 0.0
C1129 C 0.51332 0.85487 0.83802 0.0
C1130 C 0.44141 0.82466 0.86959 0.0
C1131 C 0.50958 0.86216 0.72846 0.0
H1132 H 0.42665 0.84453 0.65239 0.0
H1133 H 0.46088 0.90345 0.7669 0.0
H1134 H 0.44581 0.8101 0.73441 0.0
H1135 H 0.42822 0.81078 0.67413 0.0
H1136 H 0.45825 0.82306 0.66335 0.0
H1137 H 0.48573 0.90691 0.84347 0.0
H1138 H 0.47922 0.88035 0.87765 0.0
H1139 H 0.50219 0.89374 0.82478 0.0
H1140 H 0.47387 0.83164 0.94974 0.0
H1141 H 0.53155 0.86387 0.8312 0.0
H1142 H 0.43095 0.81581 0.8292 0.0
H1143 H 0.43826 0.83871 0.88157 0.0
H1144 H 0.43581 0.81259 0.90819 0.0
H1145 H 0.52551 0.86167 0.72178 0.0
H1146 H 0.51376 0.88015 0.72591 0.0
H1147 H 0.49757 0.85264 0.69116 0.0
C1148 C 0.54654 0.37622 0.80688 0.0
C1149 C 0.53291 0.3794 0.76482 0.0
C1150 C 0.55676 0.39138 0.85541 0.0
C1151 C 0.55402 0.41059 0.86015 0.0
C1152 C 0.53968 0.4134 0.81893 0.0
C1153 C 0.52833 0.39697 0.77398 0.0
C1154 C 0.57107 0.38723 0.90006 0.0
C1155 C 0.53721 0.43429 0.82005 0.0
C1156 C 0.56691 0.44999 0.99351 0.0
C1157 C 0.58845 0.46781 0.97791 0.0
C1158 C 0.55631 0.43012 0.95845 0.0
C1159 C 0.56712 0.42867 0.90522 0.0
C1160 C 0.58938 0.44626 0.891 0.0
C1161 C 0.59999 0.46544 0.92853 0.0
C1162 C 0.53314 0.41116 0.97688 0.0
C1163 C 0.60178 0.44549 0.83498 0.0
H1164 H 0.54961 0.36214 0.80131 0.0
H1165 H 0.51672 0.39846 0.74405 0.0
H1166 H 0.58927 0.39828 0.88871 0.0
H1167 H 0.56845 0.39145 0.94692 0.0
H1168 H 0.56715 0.36929 0.89881 0.0
H1169 H 0.52967 0.43621 0.77739 0.0
H1170 H 0.52619 0.43314 0.8584 0.0
H1171 H 0.55391 0.44992 0.82667 0.0
H1172 H 0.55818 0.45178 0.03239 0.0
H1173 H 0.61672 0.47927 0.91675 0.0
H1174 H 0.53178 0.39436 0.96963 0.0
H1175 H 0.51995 0.41171 0.94866 0.0
H1176 H 0.52945 0.41264 1.0252 0.0
H1177 H 0.5901 0.43721 0.79617 0.0
H1178 H 0.61028 0.43559 0.84508 0.0
H1179 H 0.61507 0.46279 0.82082 0.0
C1180 C 0.13943 0.52015 0.85302 0.0
C1181 C 0.15436 0.52876 0.80372 0.0
C1182 C 0.14064 0.53458 0.90018 0.0
C1183 C 0.15746 0.55785 0.89803 0.0
C1184 C 0.17452 0.56571 0.85289 0.0
C1185 C 0.17258 0.55107 0.80563 0.0
C1186 C 0.12213 0.52556 0.94745 0.0
C1187 C 0.19307 0.59029 0.84985 0.0
C1188 C 0.14089 0.60184 0.93313 0.0
C1189 C 0.15171 0.61045 0.9885 0.0
C1190 C 0.14166 0.58382 0.90499 0.0
C1191 C 0.15418 0.57471 0.93243 0.0
C1192 C 0.16485 0.58313 0.98922 0.0
C1193 C 0.16364 0.60117 1.01654 0.0
C1194 C 0.12979 0.57521 0.84468 0.0
C1195 C 0.17831 0.57384 1.01974 0.0
H1196 H 0.12524 0.50287 0.85147 0.0
H1197 H 0.18419 0.55761 0.76758 0.0
H1198 H 0.12897 0.53322 0.99251 0.0
H1199 H 0.10913 0.53009 0.93462 0.0
H1200 H 0.11361 0.50676 0.95118 0.0
H1201 H 0.20719 0.59265 0.81982 0.0
H1202 H 0.18594 0.60062 0.8317 0.0
H1203 H 0.20001 0.59692 0.89562 0.0
H1204 H 0.13254 0.60983 0.91065 0.0
H1205 H 0.17233 0.60829 0.05909 0.0
H1206 H 0.11829 0.55653 0.8463 0.0
H1207 H 0.14251 0.57881 0.80864 0.0
H1208 H 0.11962 0.5832 0.83174 0.0
H1209 H 0.16903 0.555 1.01782 0.0
H1210 H 0.18209 0.57933 0.06786 0.0
H1211 H 0.19463 0.57996 0.99552 0.0
C1212 C 0.62294 0.1479 0.72196 0.0
C1213 C 0.63497 0.16466 0.6789 0.0
C1214 C 0.60719 0.14926 0.75979 0.0
C1215 C 0.604 0.16826 0.75523 0.0
C1216 C 0.61728 0.18602 0.71442 0.0
C1217 C 0.63267 0.18398 0.67639 0.0
C1218 C 0.59329 0.12983 0.80267 0.0
C1219 C 0.61469 0.20672 0.70958 0.0
C1220 C 0.5449 0.15137 0.80461 0.0
C1221 C 0.54809 0.15315 0.86741 0.0
C1222 C 0.56349 0.15854 0.76567 0.0
C1223 C 0.58563 0.16833 0.79075 0.0
C1224 C 0.58901 0.17345 0.85334 0.0
C1225 C 0.57009 0.16525 0.89137 0.0
C1226 C 0.55893 0.1543 0.6985 0.0
C1227 C 0.61248 0.18573 0.88089 0.0
H1228 H 0.62554 0.13346 0.72518 0.0
H1229 H 0.64247 0.1972 0.64369 0.0
H1230 H 0.59688 0.1359 0.85023 0.0
H1231 H 0.5749 0.12302 0.79444 0.0
H1232 H 0.59694 0.11571 0.79767 0.0
H1233 H 0.62889 0.22062 0.68395 0.0
H1234 H 0.59857 0.20206 0.68578 0.0
H1235 H 0.61385 0.2131 0.75531 0.0
H1236 H 0.52783 0.14249 0.78609 0.0
H1237 H 0.57249 0.1672 0.94008 0.0
H1238 H 0.54239 0.13862 0.68999 0.0
H1239 H 0.57237 0.15288 0.67405 0.0
H1240 H 0.55786 0.1687 0.67863 0.0
H1241 H 0.61848 0.17351 0.88891 0.0
H1242 H 0.61253 0.19364 0.92506 0.0
H1243 H 0.62472 0.1991 0.84992 0.0
C1244 C 0.4549 0.55343 0.66137 0.0
C1245 C 0.47069 0.57598 0.67618 0.0
C1246 C 0.43497 0.54118 0.69539 0.0
C1247 C 0.43144 0.55148 0.74693 0.0
C1248 C 0.44692 0.57464 0.76027 0.0
C1249 C 0.46612 0.58672 0.72378 0.0
C1250 C 0.41831 0.51693 0.67801 0.0
C1251 C 0.44394 0.58679 0.81393 0.0
C1252 C 0.37937 0.53074 0.84515 0.0
C1253 C 0.38369 0.51884 0.89008 0.0
C1254 C 0.39366 0.53969 0.79472 0.0
C1255 C 0.41323 0.53753 0.79082 0.0
C1256 C 0.41659 0.52398 0.83371 0.0
C1257 C 0.40105 0.51391 0.88124 0.0
C1258 C 0.38826 0.55232 0.74756 0.0
C1259 C 0.43712 0.52094 0.83298 0.0
H1260 H 0.45833 0.54523 0.62395 0.0
H1261 H 0.4783 0.60423 0.73506 0.0
H1262 H 0.42094 0.50528 0.70761 0.0
H1263 H 0.40057 0.51317 0.68426 0.0
H1264 H 0.42059 0.51331 0.63019 0.0
H1265 H 0.46056 0.60074 0.83046 0.0
H1266 H 0.43375 0.59456 0.79964 0.0
H1267 H 0.43513 0.57522 0.8524 0.0
H1268 H 0.36523 0.53373 0.85024 0.0
H1269 H 0.4034 0.50346 0.9138 0.0
H1270 H 0.39457 0.55111 0.70209 0.0
H1271 H 0.39641 0.5705 0.76049 0.0
H1272 H 0.36967 0.54562 0.74465 0.0
H1273 H 0.43175 0.50331 0.81856 0.0
H1274 H 0.44424 0.5233 0.87943 0.0
H1275 H 0.45094 0.53288 0.80276 0.0
C1276 C 0.88789 0.40516 0.92294 0.0
C1277 C 0.87638 0.39755 0.97773 0.0
C1278 C 0.88619 0.4215 0.88874 0.0
C1279 C 0.87185 0.42968 0.90907 0.0
C1280 C 0.85921 0.42112 0.96315 0.0
C1281 C 0.86169 0.40507 0.99716 0.0
C1282 C 0.9 0.43019 0.83126 0.0
C1283 C 0.84303 0.42873 0.98459 0.0
C1284 C 0.8902 0.48693 0.84146 0.0
C1285 C 0.87844 0.48044 0.78649 0.0
C1286 C 0.88666 0.47062 0.88522 0.0
C1287 C 0.87073 0.44749 0.87345 0.0
C1288 C 0.85706 0.44134 0.82062 0.0
C1289 C 0.86145 0.45793 0.77684 0.0
C1290 C 0.90185 0.47787 0.94036 0.0
C1291 C 0.83926 0.41699 0.80772 0.0
H1292 H 0.8982 0.39821 0.90674 0.0
H1293 H 0.85222 0.39843 0.03886 0.0
H1294 H 0.88854 0.42568 0.79154 0.0
H1295 H 0.91057 0.449 0.83278 0.0
H1296 H 0.91135 0.42305 0.82409 0.0
H1297 H 0.83419 0.4201 1.02708 0.0
H1298 H 0.85231 0.44734 0.99251 0.0
H1299 H 0.83012 0.42515 0.94901 0.0
H1300 H 0.90351 0.50444 0.84806 0.0
H1301 H 0.85244 0.45313 0.73392 0.0
H1302 H 0.91489 0.47288 0.93401 0.0
H1303 H 0.89212 0.46927 0.98172 0.0
H1304 H 0.91064 0.49655 0.94762 0.0
H1305 H 0.84757 0.40766 0.79023 0.0
H1306 H 0.82683 0.41585 0.77321 0.0
H1307 H 0.82998 0.40834 0.84966 0.0
C1308 C 0.49004 0.23478 0.20066 0.0
C1309 C 0.47501 0.21138 0.19246 0.0
C1310 C 0.48992 0.24613 0.25406 0.0
C1311 C 0.47438 0.2339 0.30107 0.0
C1312 C 0.45943 0.21019 0.29367 0.0
C1313 C 0.45996 0.19924 0.23971 0.0
C1314 C 0.50632 0.27132 0.25988 0.0
C1315 C 0.44258 0.19644 0.34242 0.0
C1316 C 0.4871 0.25953 0.46081 0.0
C1317 C 0.47315 0.26926 0.46481 0.0
C1318 C 0.48759 0.24797 0.40821 0.0
C1319 C 0.4738 0.24596 0.35777 0.0
C1320 C 0.45976 0.25584 0.36128 0.0
C1321 C 0.45965 0.26737 0.41448 0.0
C1322 C 0.50298 0.23795 0.40658 0.0
C1323 C 0.44475 0.25413 0.30882 0.0
H1324 H 0.50197 0.24433 0.16498 0.0
H1325 H 0.44809 0.18125 0.23382 0.0
H1326 H 0.4968 0.2805 0.26554 0.0
H1327 H 0.51704 0.27481 0.30085 0.0
H1328 H 0.51758 0.27834 0.21976 0.0
H1329 H 0.43241 0.17813 0.33044 0.0
H1330 H 0.45157 0.19815 0.38577 0.0
H1331 H 0.43082 0.20304 0.35024 0.0
H1332 H 0.4979 0.26113 0.49884 0.0
H1333 H 0.44862 0.27456 0.41706 0.0
H1334 H 0.51535 0.24561 0.36898 0.0
H1335 H 0.49286 0.21941 0.39773 0.0
H1336 H 0.51251 0.24076 0.44964 0.0
H1337 H 0.45524 0.26205 0.26794 0.0
H1338 H 0.43471 0.26256 0.31862 0.0
H1339 H 0.43286 0.23601 0.29779 0.0
C1340 C 0.21781 0.47928 0.42376 0.0
C1341 C 0.2163 0.46548 0.4728 0.0
C1342 C 0.22908 0.47954 0.36973 0.0
C1343 C 0.2389 0.46549 0.36412 0.0
C1344 C 0.23685 0.45108 0.41291 0.0
C1345 C 0.22568 0.45129 0.4664 0.0
C1346 C 0.23088 0.49521 0.31905 0.0
C1347 C 0.24668 0.43556 0.40892 0.0
C1348 C 0.25168 0.45121 0.20639 0.0
C1349 C 0.27525 0.46591 0.20133 0.0
C1350 C 0.23969 0.45098 0.2587 0.0
C1351 C 0.25142 0.46586 0.30757 0.0
C1352 C 0.27522 0.48068 0.30291 0.0
C1353 C 0.28683 0.48046 0.25014 0.0
C1354 C 0.21443 0.43467 0.26174 0.0
C1355 C 0.28844 0.4969 0.35366 0.0
H1356 H 0.21077 0.4904 0.42832 0.0
H1357 H 0.22432 0.44029 0.50359 0.0
H1358 H 0.24901 0.50755 0.30983 0.0
H1359 H 0.22351 0.48533 0.2768 0.0
H1360 H 0.22204 0.50478 0.32985 0.0
H1361 H 0.24318 0.42497 0.45016 0.0
H1362 H 0.23956 0.42415 0.36903 0.0
H1363 H 0.26534 0.44576 0.40249 0.0
H1364 H 0.24257 0.43967 0.16941 0.0
H1365 H 0.30496 0.49206 0.24658 0.0
H1366 H 0.20532 0.44418 0.2691 0.0
H1367 H 0.21047 0.42304 0.3008 0.0
H1368 H 0.20775 0.42432 0.21979 0.0
H1369 H 0.28142 0.5082 0.36323 0.0
H1370 H 0.30677 0.50759 0.34283 0.0
H1371 H 0.28672 0.48727 0.39573 0.0
C1372 C 0.76682 0.23542 0.4769 0.0
C1373 C 0.7575 0.21179 0.48264 0.0
C1374 C 0.77871 0.24715 0.42449 0.0
C1375 C 0.78135 0.23509 0.37572 0.0
C1376 C 0.77162 0.21118 0.38054 0.0
C1377 C 0.75986 0.19986 0.43374 0.0
C1378 C 0.78862 0.27257 0.42155 0.0
C1379 C 0.77386 0.19756 0.32968 0.0
C1380 C 0.79428 0.26233 0.21843 0.0
C1381 C 0.81776 0.27079 0.2125 0.0
C1382 C 0.78232 0.2507 0.27085 0.0
C1383 C 0.794 0.24748 0.31948 0.0
C1384 C 0.81778 0.25637 0.31448 0.0
C1385 C 0.82934 0.26787 0.26125 0.0
C1386 C 0.75706 0.24169 0.27394 0.0
C1387 C 0.83099 0.25348 0.36519 0.0
H1388 H 0.76483 0.24486 0.51369 0.0
H1389 H 0.75302 0.18169 0.43759 0.0
H1390 H 0.80726 0.28107 0.41478 0.0
H1391 H 0.78143 0.27698 0.38221 0.0
H1392 H 0.78521 0.27952 0.46332 0.0
H1393 H 0.76509 0.17909 0.33984 0.0
H1394 H 0.76665 0.2001 0.28728 0.0
H1395 H 0.79206 0.20359 0.32108 0.0
H1396 H 0.78514 0.26477 0.18174 0.0
H1397 H 0.84737 0.27406 0.25724 0.0
H1398 H 0.75307 0.24921 0.31339 0.0
H1399 H 0.74794 0.22301 0.28059 0.0
H1400 H 0.75042 0.24548 0.23227 0.0
H1401 H 0.82883 0.26095 0.40768 0.0
H1402 H 0.84941 0.26163 0.35491 0.0
H1403 H 0.8243 0.23514 0.37367 0.0
C1404 C 0.57856 0.81052 0.21086 0.0
C1405 C 0.56461 0.82019 0.20554 0.0
C1406 C 0.57893 0.79933 0.26408 0.0
C1407 C 0.56483 0.79746 0.31356 0.0
C1408 C 0.55092 0.80746 0.30886 0.0
C1409 C 0.5511 0.81883 0.25518 0.0
C1410 C 0.59434 0.78935 0.26715 0.0
C1411 C 0.53549 0.80576 0.36018 0.0
C1412 C 0.55003 0.74967 0.42779 0.0
C1413 C 0.56459 0.76135 0.47646 0.0
C1414 C 0.54979 0.76119 0.37492 0.0
C1415 C 0.56465 0.78499 0.36996 0.0
C1416 C 0.57965 0.79679 0.41856 0.0
C1417 C 0.57936 0.7849 0.47108 0.0
C1418 C 0.5334 0.74791 0.32457 0.0
C1419 C 0.59606 0.82203 0.41509 0.0
H1420 H 0.5893 0.81174 0.17309 0.0
H1421 H 0.54016 0.8261 0.25138 0.0
H1422 H 0.60593 0.79647 0.30666 0.0
H1423 H 0.58409 0.7707 0.27368 0.0
H1424 H 0.60471 0.79277 0.22549 0.0
H1425 H 0.52585 0.81454 0.3498 0.0
H1426 H 0.52325 0.78763 0.36986 0.0
H1427 H 0.54558 0.81328 0.40203 0.0
H1428 H 0.53838 0.73155 0.43167 0.0
H1429 H 0.59086 0.79407 0.50807 0.0
H1430 H 0.54287 0.74958 0.28216 0.0
H1431 H 0.52208 0.75492 0.31553 0.0
H1432 H 0.52276 0.72957 0.33552 0.0
H1433 H 0.60737 0.82586 0.37529 0.0
H1434 H 0.60674 0.82871 0.45647 0.0
H1435 H 0.58662 0.83124 0.40874 0.0
C1436 C 0.82232 0.54723 0.41962 0.0
C1437 C 0.82381 0.56102 0.46888 0.0
C1438 C 0.81114 0.54706 0.36551 0.0
C1439 C 0.80142 0.5612 0.36007 0.0
C1440 C 0.80349 0.57562 0.40908 0.0
C1441 C 0.81455 0.5753 0.46267 0.0
C1442 C 0.80927 0.53135 0.31461 0.0
C1443 C 0.79376 0.59123 0.40526 0.0
C1444 C 0.78852 0.57527 0.20244 0.0
C1445 C 0.76494 0.56064 0.19747 0.0
C1446 C 0.80056 0.57559 0.25475 0.0
C1447 C 0.78887 0.5608 0.30359 0.0
C1448 C 0.76505 0.54603 0.29896 0.0
C1449 C 0.75339 0.5462 0.24626 0.0
C1450 C 0.82584 0.59185 0.25783 0.0
C1451 C 0.75187 0.5299 0.34964 0.0
H1452 H 0.82926 0.53604 0.4241 0.0
H1453 H 0.81589 0.58626 0.50012 0.0
H1454 H 0.79112 0.51901 0.30533 0.0
H1455 H 0.8166 0.54119 0.27246 0.0
H1456 H 0.8181 0.52178 0.32524 0.0
H1457 H 0.7974 0.60191 0.44653 0.0
H1458 H 0.80083 0.60254 0.36536 0.0
H1459 H 0.77509 0.58107 0.39897 0.0
H1460 H 0.7976 0.58669 0.1654 0.0
H1461 H 0.73526 0.53464 0.24271 0.0
H1462 H 0.83491 0.58231 0.26498 0.0
H1463 H 0.82987 0.60352 0.29705 0.0
H1464 H 0.83248 0.60217 0.21599 0.0
H1465 H 0.75886 0.51858 0.35911 0.0
H1466 H 0.73352 0.51923 0.3388 0.0
H1467 H 0.75366 0.53961 0.39177 0.0
C1468 C 0.24597 0.76015 0.20718 0.0
C1469 C 0.2224 0.75114 0.20107 0.0
C1470 C 0.25784 0.77214 0.25956 0.0
C1471 C 0.24597 0.77519 0.30807 0.0
C1472 C 0.22211 0.76578 0.30289 0.0
C1473 C 0.21066 0.75393 0.24967 0.0
C1474 C 0.28318 0.78169 0.26279 0.0
C1475 C 0.20869 0.76843 0.35344 0.0
C1476 C 0.27329 0.78786 0.46568 0.0
C1477 C 0.28218 0.81144 0.47186 0.0
C1478 C 0.26148 0.77597 0.41316 0.0
C1479 C 0.2585 0.7878 0.36454 0.0
C1480 C 0.26782 0.81166 0.36973 0.0
C1481 C 0.2795 0.82316 0.42311 0.0
C1482 C 0.25201 0.75061 0.40994 0.0
C1483 C 0.26524 0.82505 0.31904 0.0
H1484 H 0.25528 0.75784 0.17067 0.0
H1485 H 0.19255 0.74734 0.24559 0.0
H1486 H 0.29194 0.80036 0.26977 0.0
H1487 H 0.28742 0.77437 0.3021 0.0
H1488 H 0.29 0.77813 0.22105 0.0
H1489 H 0.19025 0.75997 0.34296 0.0
H1490 H 0.21101 0.76114 0.39594 0.0
H1491 H 0.21506 0.78673 0.36204 0.0
H1492 H 0.27555 0.77857 0.50227 0.0
H1493 H 0.28602 0.84127 0.42722 0.0
H1494 H 0.2594 0.74638 0.37065 0.0
H1495 H 0.23336 0.74179 0.40292 0.0
H1496 H 0.25558 0.74383 0.4517 0.0
H1497 H 0.27257 0.82268 0.27662 0.0
H1498 H 0.27369 0.84351 0.32946 0.0
H1499 H 0.24696 0.81867 0.31035 0.0
C1500 C 0.54662 0.74708 0.75051 0.0
C1501 C 0.56202 0.75926 0.70401 0.0
C1502 C 0.54583 0.75796 0.8043 0.0
C1503 C 0.56096 0.7816 0.81235 0.0
C1504 C 0.57676 0.79389 0.76589 0.0
C1505 C 0.57705 0.78263 0.71252 0.0
C1506 C 0.52864 0.7442 0.85236 0.0
C1507 C 0.59346 0.81898 0.77259 0.0
C1508 C 0.54801 0.81564 0.92838 0.0
C1509 C 0.5614 0.81666 0.97811 0.0
C1510 C 0.54745 0.80408 0.87458 0.0
C1511 C 0.56076 0.79342 0.86985 0.0
C1512 C 0.57441 0.79456 0.91976 0.0
C1513 C 0.57452 0.80606 0.97303 0.0
C1514 C 0.53257 0.80326 0.82278 0.0
C1515 C 0.58916 0.78384 0.91669 0.0
H1516 H 0.53479 0.72909 0.74426 0.0
H1517 H 0.58923 0.79218 0.67733 0.0
H1518 H 0.53744 0.74504 0.89545 0.0
H1519 H 0.51751 0.75145 0.86136 0.0
H1520 H 0.51786 0.72608 0.83908 0.0
H1521 H 0.60462 0.82612 0.73235 0.0
H1522 H 0.58422 0.82838 0.77956 0.0
H1523 H 0.60427 0.82202 0.81316 0.0
H1524 H 0.5377 0.82362 0.93184 0.0
H1525 H 0.58524 0.80706 1.01061 0.0
H1526 H 0.5204 0.78533 0.81053 0.0
H1527 H 0.54312 0.81146 0.78218 0.0
H1528 H 0.52286 0.81192 0.83395 0.0
H1529 H 0.57858 0.76541 0.90682 0.0
H1530 H 0.59863 0.78601 0.95954 0.0
H1531 H 0.60157 0.79151 0.87918 0.0
C1532 C 0.8088 0.57147 0.70075 0.0
C1533 C 0.81883 0.5578 0.69619 0.0
C1534 C 0.79719 0.57162 0.75345 0.0
C1535 C 0.79539 0.55772 0.80331 0.0
C1536 C 0.80541 0.54382 0.79902 0.0
C1537 C 0.81704 0.54409 0.7458 0.0
C1538 C 0.78707 0.58692 0.75602 0.0
C1539 C 0.80386 0.52866 0.85082 0.0
C1540 C 0.78518 0.57403 0.96128 0.0
C1541 C 0.7618 0.55915 0.96978 0.0
C1542 C 0.7962 0.57381 0.9075 0.0
C1543 C 0.78367 0.55828 0.86052 0.0
C1544 C 0.76 0.54342 0.86834 0.0
C1545 C 0.74935 0.54409 0.92263 0.0
C1546 C 0.82136 0.59017 0.90114 0.0
C1547 C 0.74596 0.52655 0.81965 0.0
H1548 H 0.81035 0.58242 0.66326 0.0
H1549 H 0.8245 0.53331 0.74272 0.0
H1550 H 0.76862 0.57675 0.76565 0.0
H1551 H 0.79498 0.59938 0.7935 0.0
H1552 H 0.78951 0.59636 0.71306 0.0
H1553 H 0.81204 0.51847 0.84002 0.0
H1554 H 0.81214 0.53909 0.89171 0.0
H1555 H 0.7858 0.5169 0.86238 0.0
H1556 H 0.79493 0.58598 0.99692 0.0
H1557 H 0.73137 0.53239 0.92881 0.0
H1558 H 0.82463 0.60095 0.8605 0.0
H1559 H 0.83045 0.58061 0.89454 0.0
H1560 H 0.82864 0.60139 0.94141 0.0
H1561 H 0.74734 0.53557 0.77664 0.0
H1562 H 0.72775 0.51632 0.83224 0.0
H1563 H 0.75256 0.51485 0.81088 0.0
C1564 C 0.27232 0.78679 0.70589 0.0
C1565 C 0.28137 0.81039 0.7003 0.0
C1566 C 0.26088 0.77502 0.7588 0.0
C1567 C 0.25832 0.78698 0.80802 0.0
C1568 C 0.26758 0.81081 0.80301 0.0
C1569 C 0.27894 0.82218 0.7495 0.0
C1570 C 0.25145 0.74968 0.76191 0.0
C1571 C 0.26528 0.82432 0.85409 0.0
C1572 C 0.21106 0.75399 0.92401 0.0
C1573 C 0.22296 0.75147 0.97266 0.0
C1574 C 0.22227 0.76539 0.87039 0.0
C1575 C 0.24606 0.77459 0.8647 0.0
C1576 C 0.25813 0.7719 0.91332 0.0
C1577 C 0.2465 0.76042 0.96636 0.0
C1578 C 0.20866 0.76782 0.81996 0.0
C1579 C 0.28342 0.78125 0.90945 0.0
H1580 H 0.2743 0.77746 0.66879 0.0
H1581 H 0.28551 0.8403 0.74574 0.0
H1582 H 0.25902 0.74555 0.80092 0.0
H1583 H 0.23283 0.74087 0.76939 0.0
H1584 H 0.25482 0.74281 0.71993 0.0
H1585 H 0.27358 0.84274 0.84361 0.0
H1586 H 0.24706 0.8179 0.86363 0.0
H1587 H 0.27296 0.82214 0.89608 0.0
H1588 H 0.19297 0.74749 0.92833 0.0
H1589 H 0.25591 0.75837 1.00302 0.0
H1590 H 0.21073 0.76025 0.77756 0.0
H1591 H 0.21506 0.78608 0.81093 0.0
H1592 H 0.19027 0.75949 0.83085 0.0
H1593 H 0.28739 0.77375 0.86989 0.0
H1594 H 0.29036 0.77771 0.95094 0.0
H1595 H 0.29227 0.7999 0.90245 0.0
C1596 C 0.45654 0.24731 0.70044 0.0
C1597 C 0.47143 0.27074 0.69267 0.0
C1598 C 0.45669 0.23602 0.75379 0.0
C1599 C 0.47227 0.24829 0.80095 0.0
C1600 C 0.48716 0.27201 0.79376 0.0
C1601 C 0.48646 0.28291 0.74005 0.0
C1602 C 0.44022 0.21085 0.75949 0.0
C1603 C 0.50416 0.28582 0.84239 0.0
C1604 C 0.45976 0.22315 0.96093 0.0
C1605 C 0.47331 0.21296 0.96457 0.0
C1606 C 0.45929 0.23463 0.90833 0.0
C1607 C 0.47285 0.23629 0.85768 0.0
C1608 C 0.48658 0.22606 0.86101 0.0
C1609 C 0.48653 0.21442 0.91404 0.0
C1610 C 0.44409 0.24486 0.90682 0.0
C1611 C 0.50147 0.22753 0.80854 0.0
H1612 H 0.44467 0.23773 0.6645 0.0
H1613 H 0.49818 0.30087 0.73438 0.0
H1614 H 0.44968 0.20161 0.76479 0.0
H1615 H 0.42963 0.20747 0.80063 0.0
H1616 H 0.42884 0.20383 0.71947 0.0
H1617 H 0.5144 0.3041 0.83035 0.0
H1618 H 0.49529 0.2843 0.8858 0.0
H1619 H 0.51583 0.27913 0.85013 0.0
H1620 H 0.44921 0.22187 0.99922 0.0
H1621 H 0.49718 0.20681 0.9164 0.0
H1622 H 0.43169 0.23727 0.8691 0.0
H1623 H 0.45434 0.26339 0.89819 0.0
H1624 H 0.4346 0.24216 0.94984 0.0
H1625 H 0.49089 0.21944 0.76777 0.0
H1626 H 0.51151 0.21912 0.81848 0.0
H1627 H 0.51335 0.2456 0.79725 0.0
C1628 C 0.23022 0.45383 0.70453 0.0
C1629 C 0.22018 0.4675 0.70048 0.0
C1630 C 0.24163 0.45339 0.75739 0.0
C1631 C 0.24317 0.46698 0.80799 0.0
C1632 C 0.23307 0.48081 0.80432 0.0
C1633 C 0.22167 0.48085 0.75089 0.0
C1634 C 0.25192 0.43825 0.75918 0.0
C1635 C 0.23434 0.49564 0.85691 0.0
C1636 C 0.254 0.45059 0.96516 0.0
C1637 C 0.27731 0.46579 0.97375 0.0
C1638 C 0.24277 0.45072 0.91159 0.0
C1639 C 0.25505 0.46644 0.86495 0.0
C1640 C 0.27864 0.48163 0.87298 0.0
C1641 C 0.28942 0.48113 0.92713 0.0
C1642 C 0.21767 0.4341 0.90514 0.0
C1643 C 0.29247 0.4987 0.82474 0.0
H1644 H 0.2289 0.44313 0.66644 0.0
H1645 H 0.2142 0.49163 0.74826 0.0
H1646 H 0.27039 0.44854 0.76876 0.0
H1647 H 0.24417 0.42573 0.7964 0.0
H1648 H 0.24949 0.42889 0.71593 0.0
H1649 H 0.22581 0.50555 0.84691 0.0
H1650 H 0.22628 0.485 0.89748 0.0
H1651 H 0.25235 0.50764 0.86858 0.0
H1652 H 0.24446 0.43855 1.00063 0.0
H1653 H 0.3072 0.49327 0.93377 0.0
H1654 H 0.21448 0.42345 0.86409 0.0
H1655 H 0.20834 0.44345 0.89921 0.0
H1656 H 0.2106 0.42276 0.94509 0.0
H1657 H 0.29087 0.4899 0.78105 0.0
H1658 H 0.31076 0.50885 0.83694 0.0
H1659 H 0.28588 0.51048 0.81743 0.0
C1660 C 0.74686 0.21382 0.75932 0.0
C1661 C 0.75888 0.21163 0.71054 0.0
C1662 C 0.75808 0.22532 0.81304 0.0
C1663 C 0.78189 0.23457 0.81888 0.0
C1664 C 0.79402 0.23208 0.77006 0.0
C1665 C 0.78244 0.22084 0.7166 0.0
C1666 C 0.74447 0.22778 0.86341 0.0
C1667 C 0.81927 0.24119 0.77437 0.0
C1668 C 0.81581 0.28144 0.93591 0.0
C1669 C 0.81746 0.26908 0.98459 0.0
C1670 C 0.8041 0.27046 0.88218 0.0
C1671 C 0.7941 0.24654 0.87622 0.0
C1672 C 0.79604 0.23406 0.92494 0.0
C1673 C 0.8075 0.24541 0.97842 0.0
C1674 C 0.80227 0.28446 0.83192 0.0
C1675 C 0.78613 0.20867 0.92045 0.0
H1676 H 0.7287 0.20693 0.75494 0.0
H1677 H 0.79186 0.21901 0.67953 0.0
H1678 H 0.74594 0.21958 0.90519 0.0
H1679 H 0.75135 0.24604 0.87402 0.0
H1680 H 0.7262 0.22007 0.85156 0.0
H1681 H 0.82621 0.23767 0.7328 0.0
H1682 H 0.82829 0.25982 0.78207 0.0
H1683 H 0.82304 0.23347 0.81369 0.0
H1684 H 0.82329 0.29968 0.94036 0.0
H1685 H 0.80892 0.23573 1.01539 0.0
H1686 H 0.78413 0.27819 0.82137 0.0
H1687 H 0.81024 0.28262 0.79008 0.0
H1688 H 0.81055 0.30278 0.84386 0.0
H1689 H 0.76754 0.20021 0.91279 0.0
H1690 H 0.7893 0.20144 0.96193 0.0
H1691 H 0.79355 0.20453 0.88104 0.0
loop_
_geom_bond_atom_site_label_1
_geom_bond_atom_site_label_2
_geom_bond_distance
_geom_bond_site_symmetry_2
_ccdc_geom_bond_type
O0 Tb1 2.292 . S
O0 C3 1.255 . S
Tb1 O0 2.292 . S
Tb1 O17 2.326 . S
Tb1 O19 2.500 . S
Tb1 O20 2.473 1_556 S
Tb1 O23 2.324 1_556 S
Eu2 O6 2.292 . S
Eu2 C7 2.852 . S
Eu2 O18 2.324 1_554 S
Eu2 O22 2.326 . S
Eu2 O24 2.500 . S
Eu2 O25 2.473 . S
C3 O0 1.255 . S
C3 O4 1.247 . S
O4 C3 1.247 . S
C5 O17 1.242 . S
C5 O18 1.258 . S
O6 Eu2 2.292 . S
O6 C8 1.255 . S
C7 Eu2 2.852 . S
C7 C11 1.503 . S
C7 O24 1.273 . S
C7 O25 1.257 . S
C8 O6 1.255 . S
C8 O9 1.247 . S
O9 C8 1.247 . S
C10 O22 1.242 . S
C10 O23 1.258 . S
C11 C7 1.503 . S
C11 C12 1.379 . S
C11 C16 1.392 . S
C12 C11 1.379 . S
C12 C13 1.404 . S
C12 H26 0.929 1_554 S
C13 C12 1.404 . S
C13 C14 1.389 . S
C14 C13 1.389 . S
C14 C15 1.399 . S
C14 H27 0.931 . S
C15 C14 1.399 . S
C15 C16 1.390 . S
C16 C11 1.392 . S
C16 C15 1.390 . S
C16 H28 0.929 . S
O17 Tb1 2.326 . S
O17 C5 1.242 . S
O18 Eu2 2.324 1_556 S
O18 C5 1.258 . S
O19 Tb1 2.500 . S
O19 C21 1.273 . S
O20 Tb1 2.473 1_554 S
O20 C21 1.257 1_554 S
C21 O19 1.273 . S
C21 O20 1.257 1_556 S
O22 Eu2 2.326 . S
O22 C10 1.242 . S
O23 Tb1 2.324 1_554 S
O23 C10 1.258 . S
O24 Eu2 2.500 . S
O24 C7 1.273 . S
O25 Eu2 2.473 . S
O25 C7 1.257 . S
H26 C12 0.929 1_556 S
H27 C14 0.931 . S
H28 C16 0.929 . S
O29 Tb30 2.292 . S
O29 C32 1.255 . S
Tb30 O29 2.292 . S
Tb30 O46 2.326 . S
Tb30 O48 2.500 . S
Tb30 O49 2.473 1_556 S
Tb30 O52 2.324 1_556 S
Eu31 O35 2.292 . S
Eu31 C36 2.852 . S
Eu31 O47 2.324 1_554 S
Eu31 O51 2.326 . S
Eu31 O53 2.500 . S
Eu31 O54 2.473 . S
C32 O29 1.255 . S
C32 O33 1.247 . S
O33 C32 1.247 . S
C34 O46 1.242 . S
C34 O47 1.258 . S
O35 Eu31 2.292 . S
O35 C37 1.255 . S
C36 Eu31 2.852 . S
C36 C40 1.503 . S
C36 O53 1.273 . S
C36 O54 1.257 . S
C37 O35 1.255 . S
C37 O38 1.247 . S
O38 C37 1.247 . S
C39 O51 1.242 . S
C39 O52 1.258 . S
C40 C36 1.503 . S
C40 C41 1.379 . S
C40 C45 1.392 . S
C41 C40 1.379 . S
C41 C42 1.404 . S
C41 H55 0.929 1_554 S
C42 C41 1.404 . S
C42 C43 1.389 . S
C43 C42 1.389 . S
C43 C44 1.399 . S
C43 H56 0.931 . S
C44 C43 1.399 . S
C44 C45 1.390 . S
C45 C40 1.392 . S
C45 C44 1.390 . S
C45 H57 0.929 . S
O46 Tb30 2.326 . S
O46 C34 1.242 . S
O47 Eu31 2.324 1_556 S
O47 C34 1.258 . S
O48 Tb30 2.500 . S
O48 C50 1.273 . S
O49 Tb30 2.473 1_554 S
O49 C50 1.257 1_554 S
C50 O48 1.273 . S
C50 O49 1.257 1_556 S
O51 Eu31 2.326 . S
O51 C39 1.242 . S
O52 Tb30 2.324 1_554 S
O52 C39 1.258 . S
O53 Eu31 2.500 . S
O53 C36 1.273 . S
O54 Eu31 2.473 . S
O54 C36 1.257 . S
H55 C41 0.929 1_556 S
H56 C43 0.931 . S
H57 C45 0.929 . S
O58 Tb59 2.292 . S
O58 C61 1.255 . S
Tb59 O58 2.292 . S
Tb59 O75 2.326 . S
Tb59 O77 2.500 . S
Tb59 O78 2.473 1_556 S
Tb59 O81 2.324 1_556 S
Eu60 O64 2.292 . S
Eu60 C65 2.852 . S
Eu60 O76 2.324 1_554 S
Eu60 O80 2.326 . S
Eu60 O82 2.500 . S
Eu60 O83 2.473 . S
C61 O58 1.255 . S
C61 O62 1.247 . S
O62 C61 1.247 . S
C63 O75 1.242 . S
C63 O76 1.258 . S
O64 Eu60 2.292 . S
O64 C66 1.255 . S
C65 Eu60 2.852 . S
C65 C69 1.503 . S
C65 O82 1.273 . S
C65 O83 1.257 . S
C66 O64 1.255 . S
C66 O67 1.247 . S
O67 C66 1.247 . S
C68 O80 1.242 . S
C68 O81 1.258 . S
C69 C65 1.503 . S
C69 C70 1.379 . S
C69 C74 1.392 . S
C70 C69 1.379 . S
C70 C71 1.404 . S
C70 H84 0.929 1_554 S
C71 C70 1.404 . S
C71 C72 1.389 . S
C72 C71 1.389 . S
C72 C73 1.399 . S
C72 H85 0.931 . S
C73 C72 1.399 . S
C73 C74 1.390 . S
C74 C69 1.392 . S
C74 C73 1.390 . S
C74 H86 0.929 . S
O75 Tb59 2.326 . S
O75 C63 1.242 . S
O76 Eu60 2.324 1_556 S
O76 C63 1.258 . S
O77 Tb59 2.500 . S
O77 C79 1.273 . S
O78 Tb59 2.473 1_554 S
O78 C79 1.257 1_554 S
C79 O77 1.273 . S
C79 O78 1.257 1_556 S
O80 Eu60 2.326 . S
O80 C68 1.242 . S
O81 Tb59 2.324 1_554 S
O81 C68 1.258 . S
O82 Eu60 2.500 . S
O82 C65 1.273 . S
O83 Eu60 2.473 . S
O83 C65 1.257 . S
H84 C70 0.929 1_556 S
H85 C72 0.931 . S
H86 C74 0.929 . S
O87 Tb88 2.292 . S
O87 C90 1.255 . S
Tb88 O87 2.292 . S
Tb88 O104 2.326 . S
Tb88 O106 2.500 . S
Tb88 O107 2.473 1_556 S
Tb88 O110 2.324 1_556 S
Eu89 O93 2.292 . S
Eu89 C94 2.852 . S
Eu89 O105 2.324 1_554 S
Eu89 O109 2.326 . S
Eu89 O111 2.500 . S
Eu89 O112 2.473 . S
C90 O87 1.255 . S
C90 O91 1.247 . S
O91 C90 1.247 . S
C92 O104 1.242 . S
C92 O105 1.258 . S
O93 Eu89 2.292 . S
O93 C95 1.255 . S
C94 Eu89 2.852 . S
C94 C98 1.503 . S
C94 O111 1.273 . S
C94 O112 1.257 . S
C95 O93 1.255 . S
C95 O96 1.247 . S
O96 C95 1.247 . S
C97 O109 1.242 . S
C97 O110 1.258 . S
C98 C94 1.503 . S
C98 C99 1.379 . S
C98 C103 1.392 . S
C99 C98 1.379 . S
C99 C100 1.404 . S
C99 H113 0.929 1_554 S
C100 C99 1.404 . S
C100 C101 1.389 . S
C101 C100 1.389 . S
C101 C102 1.399 . S
C101 H114 0.931 . S
C102 C101 1.399 . S
C102 C103 1.390 . S
C103 C98 1.392 . S
C103 C102 1.390 . S
C103 H115 0.929 . S
O104 Tb88 2.326 . S
O104 C92 1.242 . S
O105 Eu89 2.324 1_556 S
O105 C92 1.258 . S
O106 Tb88 2.500 . S
O106 C108 1.273 . S
O107 Tb88 2.473 1_554 S
O107 C108 1.257 1_554 S
C108 O106 1.273 . S
C108 O107 1.257 1_556 S
O109 Eu89 2.326 . S
O109 C97 1.242 . S
O110 Tb88 2.324 1_554 S
O110 C97 1.258 . S
O111 Eu89 2.500 . S
O111 C94 1.273 . S
O112 Eu89 2.473 . S
O112 C94 1.257 . S
H113 C99 0.929 1_556 S
H114 C101 0.931 . S
H115 C103 0.929 . S
O116 Tb117 2.292 . S
O116 C119 1.255 . S
Tb117 O116 2.292 . S
Tb117 O133 2.326 . S
Tb117 O135 2.500 . S
Tb117 O136 2.473 1_556 S
Tb117 O139 2.324 1_556 S
Eu118 O122 2.292 . S
Eu118 C123 2.852 . S
Eu118 O134 2.324 1_554 S
Eu118 O138 2.326 . S
Eu118 O140 2.500 . S
Eu118 O141 2.473 . S
C119 O116 1.255 . S
C119 O120 1.247 . S
O120 C119 1.247 . S
C121 O133 1.242 . S
C121 O134 1.258 . S
O122 Eu118 2.292 . S
O122 C124 1.255 . S
C123 Eu118 2.852 . S
C123 C127 1.503 . S
C123 O140 1.273 . S
C123 O141 1.257 . S
C124 O122 1.255 . S
C124 O125 1.247 . S
O125 C124 1.247 . S
C126 O138 1.242 . S
C126 O139 1.258 . S
C127 C123 1.503 . S
C127 C128 1.379 . S
C127 C132 1.392 . S
C128 C127 1.379 . S
C128 C129 1.404 . S
C128 H142 0.929 1_554 S
C129 C128 1.404 . S
C129 C130 1.389 . S
C130 C129 1.389 . S
C130 C131 1.399 . S
C130 H143 0.931 . S
C131 C130 1.399 . S
C131 C132 1.390 . S
C132 C127 1.392 . S
C132 C131 1.390 . S
C132 H144 0.929 . S
O133 Tb117 2.326 . S
O133 C121 1.242 . S
O134 Eu118 2.324 1_556 S
O134 C121 1.258 . S
O135 Tb117 2.500 . S
O135 C137 1.273 . S
O136 Tb117 2.473 1_554 S
O136 C137 1.257 1_554 S
C137 O135 1.273 . S
C137 O136 1.257 1_556 S
O138 Eu118 2.326 . S
O138 C126 1.242 . S
O139 Tb117 2.324 1_554 S
O139 C126 1.258 . S
O140 Eu118 2.500 . S
O140 C123 1.273 . S
O141 Eu118 2.473 . S
O141 C123 1.257 . S
H142 C128 0.929 1_556 S
H143 C130 0.931 . S
H144 C132 0.929 . S
O145 Tb146 2.292 . S
O145 C148 1.255 . S
Tb146 O145 2.292 . S
Tb146 O162 2.326 . S
Tb146 O164 2.500 . S
Tb146 O165 2.473 1_556 S
Tb146 O168 2.324 1_556 S
Eu147 O151 2.292 . S
Eu147 C152 2.852 . S
Eu147 O163 2.324 1_554 S
Eu147 O167 2.326 . S
Eu147 O169 2.500 . S
Eu147 O170 2.473 . S
C148 O145 1.255 . S
C148 O149 1.247 . S
O149 C148 1.247 . S
C150 O162 1.242 . S
C150 O163 1.258 . S
O151 Eu147 2.292 . S
O151 C153 1.255 . S
C152 Eu147 2.852 . S
C152 C156 1.503 . S
C152 O169 1.273 . S
C152 O170 1.257 . S
C153 O151 1.255 . S
C153 O154 1.247 . S
O154 C153 1.247 . S
C155 O167 1.242 . S
C155 O168 1.258 . S
C156 C152 1.503 . S
C156 C157 1.379 . S
C156 C161 1.392 . S
C157 C156 1.379 . S
C157 C158 1.404 . S
C157 H171 0.929 1_554 S
C158 C157 1.404 . S
C158 C159 1.389 . S
C159 C158 1.389 . S
C159 C160 1.399 . S
C159 H172 0.931 . S
C160 C159 1.399 . S
C160 C161 1.390 . S
C161 C156 1.392 . S
C161 C160 1.390 . S
C161 H173 0.929 . S
O162 Tb146 2.326 . S
O162 C150 1.242 . S
O163 Eu147 2.324 1_556 S
O163 C150 1.258 . S
O164 Tb146 2.500 . S
O164 C166 1.273 . S
O165 Tb146 2.473 1_554 S
O165 C166 1.257 1_554 S
C166 O164 1.273 . S
C166 O165 1.257 1_556 S
O167 Eu147 2.326 . S
O167 C155 1.242 . S
O168 Tb146 2.324 1_554 S
O168 C155 1.258 . S
O169 Eu147 2.500 . S
O169 C152 1.273 . S
O170 Eu147 2.473 . S
O170 C152 1.257 . S
H171 C157 0.929 1_556 S
H172 C159 0.931 . S
H173 C161 0.929 . S
O174 Tb175 2.292 . S
O174 C177 1.255 . S
Tb175 O174 2.292 . S
Tb175 O191 2.326 . S
Tb175 O193 2.500 . S
Tb175 O194 2.473 . S
Tb175 O197 2.324 . S
Eu176 O180 2.292 . S
Eu176 C181 2.852 . S
Eu176 O192 2.324 . S
Eu176 O196 2.326 . S
Eu176 O198 2.500 . S
Eu176 O199 2.473 . S
C177 O174 1.255 . S
C177 O178 1.247 . S
O178 C177 1.247 . S
C179 O191 1.242 . S
C179 O192 1.258 . S
O180 Eu176 2.292 . S
O180 C182 1.255 . S
C181 Eu176 2.852 . S
C181 C185 1.503 . S
C181 O198 1.273 . S
C181 O199 1.257 . S
C182 O180 1.255 . S
C182 O183 1.247 . S
O183 C182 1.247 . S
C184 O196 1.242 . S
C184 O197 1.258 . S
C185 C181 1.503 . S
C185 C186 1.379 . S
C185 C190 1.392 . S
C186 C185 1.379 . S
C186 C187 1.404 . S
C186 H200 0.929 . S
C187 C186 1.404 . S
C187 C188 1.389 . S
C188 C187 1.389 . S
C188 C189 1.399 . S
C188 H201 0.931 . S
C189 C188 1.399 . S
C189 C190 1.390 . S
C190 C185 1.392 . S
C190 C189 1.390 . S
C190 H202 0.929 . S
O191 Tb175 2.326 . S
O191 C179 1.242 . S
O192 Eu176 2.324 . S
O192 C179 1.258 . S
O193 Tb175 2.500 . S
O193 C195 1.273 . S
O194 Tb175 2.473 . S
O194 C195 1.257 . S
C195 O193 1.273 . S
C195 O194 1.257 . S
O196 Eu176 2.326 . S
O196 C184 1.242 . S
O197 Tb175 2.324 . S
O197 C184 1.258 . S
O198 Eu176 2.500 . S
O198 C181 1.273 . S
O199 Eu176 2.473 . S
O199 C181 1.257 . S
H200 C186 0.929 . S
H201 C188 0.931 . S
H202 C190 0.929 . S
O203 Tb204 2.292 . S
O203 C206 1.255 . S
Tb204 O203 2.292 . S
Tb204 O220 2.326 . S
Tb204 O222 2.500 . S
Tb204 O223 2.473 . S
Tb204 O226 2.324 . S
Eu205 O209 2.292 . S
Eu205 C210 2.852 . S
Eu205 O221 2.324 . S
Eu205 O225 2.326 . S
Eu205 O227 2.500 . S
Eu205 O228 2.473 . S
C206 O203 1.255 . S
C206 O207 1.247 . S
O207 C206 1.247 . S
C208 O220 1.242 . S
C208 O221 1.258 . S
O209 Eu205 2.292 . S
O209 C211 1.255 . S
C210 Eu205 2.852 . S
C210 C214 1.503 . S
C210 O227 1.273 . S
C210 O228 1.257 . S
C211 O209 1.255 . S
C211 O212 1.247 . S
O212 C211 1.247 . S
C213 O225 1.242 . S
C213 O226 1.258 . S
C214 C210 1.503 . S
C214 C215 1.379 . S
C214 C219 1.392 . S
C215 C214 1.379 . S
C215 C216 1.404 . S
C215 H229 0.929 . S
C216 C215 1.404 . S
C216 C217 1.389 . S
C217 C216 1.389 . S
C217 C218 1.399 . S
C217 H230 0.931 . S
C218 C217 1.399 . S
C218 C219 1.390 . S
C219 C214 1.392 . S
C219 C218 1.390 . S
C219 H231 0.929 . S
O220 Tb204 2.326 . S
O220 C208 1.242 . S
O221 Eu205 2.324 . S
O221 C208 1.258 . S
O222 Tb204 2.500 . S
O222 C224 1.273 . S
O223 Tb204 2.473 . S
O223 C224 1.257 . S
C224 O222 1.273 . S
C224 O223 1.257 . S
O225 Eu205 2.326 . S
O225 C213 1.242 . S
O226 Tb204 2.324 . S
O226 C213 1.258 . S
O227 Eu205 2.500 . S
O227 C210 1.273 . S
O228 Eu205 2.473 . S
O228 C210 1.257 . S
H229 C215 0.929 . S
H230 C217 0.931 . S
H231 C219 0.929 . S
O232 Tb233 2.292 . S
O232 C235 1.255 . S
Tb233 O232 2.292 . S
Tb233 O249 2.326 . S
Tb233 O251 2.500 . S
Tb233 O252 2.473 . S
Tb233 O255 2.324 . S
Eu234 O238 2.292 . S
Eu234 C239 2.852 . S
Eu234 O250 2.324 . S
Eu234 O254 2.326 . S
Eu234 O256 2.500 . S
Eu234 O257 2.473 . S
C235 O232 1.255 . S
C235 O236 1.247 . S
O236 C235 1.247 . S
C237 O249 1.242 . S
C237 O250 1.258 . S
O238 Eu234 2.292 . S
O238 C240 1.255 . S
C239 Eu234 2.852 . S
C239 C243 1.503 . S
C239 O256 1.273 . S
C239 O257 1.257 . S
C240 O238 1.255 . S
C240 O241 1.247 . S
O241 C240 1.247 . S
C242 O254 1.242 . S
C242 O255 1.258 . S
C243 C239 1.503 . S
C243 C244 1.379 . S
C243 C248 1.392 . S
C244 C243 1.379 . S
C244 C245 1.404 . S
C244 H258 0.929 . S
C245 C244 1.404 . S
C245 C246 1.389 . S
C246 C245 1.389 . S
C246 C247 1.399 . S
C246 H259 0.931 . S
C247 C246 1.399 . S
C247 C248 1.390 . S
C248 C243 1.392 . S
C248 C247 1.390 . S
C248 H260 0.929 . S
O249 Tb233 2.326 . S
O249 C237 1.242 . S
O250 Eu234 2.324 . S
O250 C237 1.258 . S
O251 Tb233 2.500 . S
O251 C253 1.273 . S
O252 Tb233 2.473 . S
O252 C253 1.257 . S
C253 O251 1.273 . S
C253 O252 1.257 . S
O254 Eu234 2.326 . S
O254 C242 1.242 . S
O255 Tb233 2.324 . S
O255 C242 1.258 . S
O256 Eu234 2.500 . S
O256 C239 1.273 . S
O257 Eu234 2.473 . S
O257 C239 1.257 . S
H258 C244 0.929 . S
H259 C246 0.931 . S
H260 C248 0.929 . S
O261 Tb262 2.292 . S
O261 C264 1.255 . S
Tb262 O261 2.292 . S
Tb262 O278 2.326 . S
Tb262 O280 2.500 . S
Tb262 O281 2.473 . S
Tb262 O284 2.324 . S
Eu263 O267 2.292 . S
Eu263 C268 2.852 . S
Eu263 O279 2.324 . S
Eu263 O283 2.326 . S
Eu263 O285 2.500 . S
Eu263 O286 2.473 . S
C264 O261 1.255 . S
C264 O265 1.247 . S
O265 C264 1.247 . S
C266 O278 1.242 . S
C266 O279 1.258 . S
O267 Eu263 2.292 . S
O267 C269 1.255 . S
C268 Eu263 2.852 . S
C268 C272 1.503 . S
C268 O285 1.273 . S
C268 O286 1.257 . S
C269 O267 1.255 . S
C269 O270 1.247 . S
O270 C269 1.247 . S
C271 O283 1.242 . S
C271 O284 1.258 . S
C272 C268 1.503 . S
C272 C273 1.379 . S
C272 C277 1.392 . S
C273 C272 1.379 . S
C273 C274 1.404 . S
C273 H287 0.929 . S
C274 C273 1.404 . S
C274 C275 1.389 . S
C275 C274 1.389 . S
C275 C276 1.399 . S
C275 H288 0.931 . S
C276 C275 1.399 . S
C276 C277 1.390 . S
C277 C272 1.392 . S
C277 C276 1.390 . S
C277 H289 0.929 . S
O278 Tb262 2.326 . S
O278 C266 1.242 . S
O279 Eu263 2.324 . S
O279 C266 1.258 . S
O280 Tb262 2.500 . S
O280 C282 1.273 . S
O281 Tb262 2.473 . S
O281 C282 1.257 . S
C282 O280 1.273 . S
C282 O281 1.257 . S
O283 Eu263 2.326 . S
O283 C271 1.242 . S
O284 Tb262 2.324 . S
O284 C271 1.258 . S
O285 Eu263 2.500 . S
O285 C268 1.273 . S
O286 Eu263 2.473 . S
O286 C268 1.257 . S
H287 C273 0.929 . S
H288 C275 0.931 . S
H289 C277 0.929 . S
O290 Tb291 2.292 . S
O290 C293 1.255 . S
Tb291 O290 2.292 . S
Tb291 O307 2.326 . S
Tb291 O309 2.500 . S
Tb291 O310 2.473 . S
Tb291 O313 2.324 . S
Eu292 O296 2.292 . S
Eu292 C297 2.852 . S
Eu292 O308 2.324 . S
Eu292 O312 2.326 . S
Eu292 O314 2.500 . S
Eu292 O315 2.473 . S
C293 O290 1.255 . S
C293 O294 1.247 . S
O294 C293 1.247 . S
C295 O307 1.242 . S
C295 O308 1.258 . S
O296 Eu292 2.292 . S
O296 C298 1.255 . S
C297 Eu292 2.852 . S
C297 C301 1.503 . S
C297 O314 1.273 . S
C297 O315 1.257 . S
C298 O296 1.255 . S
C298 O299 1.247 . S
O299 C298 1.247 . S
C300 O312 1.242 . S
C300 O313 1.258 . S
C301 C297 1.503 . S
C301 C302 1.379 . S
C301 C306 1.392 . S
C302 C301 1.379 . S
C302 C303 1.404 . S
C302 H316 0.929 . S
C303 C302 1.404 . S
C303 C304 1.389 . S
C304 C303 1.389 . S
C304 C305 1.399 . S
C304 H317 0.931 . S
C305 C304 1.399 . S
C305 C306 1.390 . S
C306 C301 1.392 . S
C306 C305 1.390 . S
C306 H318 0.929 . S
O307 Tb291 2.326 . S
O307 C295 1.242 . S
O308 Eu292 2.324 . S
O308 C295 1.258 . S
O309 Tb291 2.500 . S
O309 C311 1.273 . S
O310 Tb291 2.473 . S
O310 C311 1.257 . S
C311 O309 1.273 . S
C311 O310 1.257 . S
O312 Eu292 2.326 . S
O312 C300 1.242 . S
O313 Tb291 2.324 . S
O313 C300 1.258 . S
O314 Eu292 2.500 . S
O314 C297 1.273 . S
O315 Eu292 2.473 . S
O315 C297 1.257 . S
H316 C302 0.929 . S
H317 C304 0.931 . S
H318 C306 0.929 . S
O319 Tb320 2.292 . S
O319 C322 1.255 . S
Tb320 O319 2.292 . S
Tb320 O336 2.326 . S
Tb320 O338 2.500 . S
Tb320 O339 2.473 . S
Tb320 O342 2.324 . S
Eu321 O325 2.292 . S
Eu321 C326 2.852 . S
Eu321 O337 2.324 . S
Eu321 O341 2.326 . S
Eu321 O343 2.500 . S
Eu321 O344 2.473 . S
C322 O319 1.255 . S
C322 O323 1.247 . S
O323 C322 1.247 . S
C324 O336 1.242 . S
C324 O337 1.258 . S
O325 Eu321 2.292 . S
O325 C327 1.255 . S
C326 Eu321 2.852 . S
C326 C330 1.503 . S
C326 O343 1.273 . S
C326 O344 1.257 . S
C327 O325 1.255 . S
C327 O328 1.247 . S
O328 C327 1.247 . S
C329 O341 1.242 . S
C329 O342 1.258 . S
C330 C326 1.503 . S
C330 C331 1.379 . S
C330 C335 1.392 . S
C331 C330 1.379 . S
C331 C332 1.404 . S
C331 H345 0.929 . S
C332 C331 1.404 . S
C332 C333 1.389 . S
C333 C332 1.389 . S
C333 C334 1.399 . S
C333 H346 0.931 . S
C334 C333 1.399 . S
C334 C335 1.390 . S
C335 C330 1.392 . S
C335 C334 1.390 . S
C335 H347 0.929 . S
O336 Tb320 2.326 . S
O336 C324 1.242 . S
O337 Eu321 2.324 . S
O337 C324 1.258 . S
O338 Tb320 2.500 . S
O338 C340 1.273 . S
O339 Tb320 2.473 . S
O339 C340 1.257 . S
C340 O338 1.273 . S
C340 O339 1.257 . S
O341 Eu321 2.326 . S
O341 C329 1.242 . S
O342 Tb320 2.324 . S
O342 C329 1.258 . S
O343 Eu321 2.500 . S
O343 C326 1.273 . S
O344 Eu321 2.473 . S
O344 C326 1.257 . S
H345 C331 0.929 . S
H346 C333 0.931 . S
H347 C335 0.929 . S
C348 C349 1.391 . S
C348 C350 1.394 . S
C348 H364 0.931 . S
C349 C348 1.391 . S
C349 C353 1.376 . S
C350 C348 1.394 . S
C350 C351 1.369 . S
C350 C354 1.531 . S
C351 C350 1.369 . S
C351 C352 1.410 . S
C351 C359 1.503 1_545 S
C352 C351 1.410 . S
C352 C353 1.392 . S
C352 C355 1.511 . S
C353 C349 1.376 . S
C353 C352 1.392 . S
C353 H365 0.929 . S
C354 C350 1.531 . S
C354 H366 0.960 . S
C354 H367 0.962 . S
C354 H368 0.960 . S
C355 C352 1.511 . S
C355 H369 0.961 . S
C355 H370 0.961 1_545 S
C355 H371 0.961 . S
C356 C357 1.370 . S
C356 C358 1.363 . S
C356 H372 0.931 . S
C357 C356 1.370 . S
C357 C361 1.408 . S
C358 C356 1.363 . S
C358 C359 1.370 . S
C358 C362 1.524 . S
C359 C351 1.503 1_565 S
C359 C358 1.370 . S
C359 C360 1.403 . S
C360 C359 1.403 . S
C360 C361 1.404 . S
C360 C363 1.539 1_565 S
C361 C357 1.408 . S
C361 C360 1.404 . S
C361 H373 0.930 . S
C362 C358 1.524 . S
C362 H374 0.956 . S
C362 H375 0.961 . S
C362 H376 0.961 . S
C363 C360 1.539 1_545 S
C363 H377 0.958 . S
C363 H378 0.961 1_545 S
C363 H379 0.960 . S
H364 C348 0.931 . S
H365 C353 0.929 . S
H366 C354 0.960 . S
H367 C354 0.962 . S
H368 C354 0.960 . S
H369 C355 0.961 . S
H370 C355 0.961 1_565 S
H371 C355 0.961 . S
H372 C356 0.931 . S
H373 C361 0.930 . S
H374 C362 0.956 . S
H375 C362 0.961 . S
H376 C362 0.961 . S
H377 C363 0.958 . S
H378 C363 0.961 1_565 S
H379 C363 0.960 . S
C380 C381 1.391 . S
C380 C382 1.394 . S
C380 H396 0.931 . S
C381 C380 1.391 . S
C381 C385 1.376 . S
C382 C380 1.394 . S
C382 C383 1.369 . S
C382 C386 1.531 . S
C383 C382 1.369 . S
C383 C384 1.410 . S
C383 C391 1.503 . S
C384 C383 1.410 . S
C384 C385 1.392 . S
C384 C387 1.511 . S
C385 C381 1.376 . S
C385 C384 1.392 . S
C385 H397 0.929 . S
C386 C382 1.531 . S
C386 H398 0.960 . S
C386 H399 0.962 . S
C386 H400 0.960 . S
C387 C384 1.511 . S
C387 H401 0.961 . S
C387 H402 0.961 . S
C387 H403 0.961 . S
C388 C389 1.370 . S
C388 C390 1.363 . S
C388 H404 0.931 . S
C389 C388 1.370 . S
C389 C393 1.408 . S
C390 C388 1.363 . S
C390 C391 1.370 . S
C390 C394 1.524 . S
C391 C383 1.503 . S
C391 C390 1.370 . S
C391 C392 1.403 . S
C392 C391 1.403 . S
C392 C393 1.404 . S
C392 C395 1.539 . S
C393 C389 1.408 . S
C393 C392 1.404 . S
C393 H405 0.930 . S
C394 C390 1.524 . S
C394 H406 0.956 . S
C394 H407 0.961 . S
C394 H408 0.961 . S
C395 C392 1.539 . S
C395 H409 0.958 . S
C395 H410 0.961 . S
C395 H411 0.960 . S
H396 C380 0.931 . S
H397 C385 0.929 . S
H398 C386 0.960 . S
H399 C386 0.962 . S
H400 C386 0.960 . S
H401 C387 0.961 . S
H402 C387 0.961 . S
H403 C387 0.961 . S
H404 C388 0.931 . S
H405 C393 0.930 . S
H406 C394 0.956 . S
H407 C394 0.961 . S
H408 C394 0.961 . S
H409 C395 0.958 . S
H410 C395 0.961 . S
H411 C395 0.960 . S
C412 C413 1.391 . S
C412 C414 1.394 . S
C412 H428 0.931 . S
C413 C412 1.391 . S
C413 C417 1.376 . S
C414 C412 1.394 . S
C414 C415 1.369 . S
C414 C418 1.531 1_455 S
C415 C414 1.369 . S
C415 C416 1.410 . S
C415 C423 1.503 1_455 S
C416 C415 1.410 . S
C416 C417 1.392 . S
C416 C419 1.511 . S
C417 C413 1.376 . S
C417 C416 1.392 . S
C417 H429 0.929 . S
C418 C414 1.531 1_655 S
C418 H430 0.960 . S
C418 H431 0.962 . S
C418 H432 0.960 1_655 S
C419 C416 1.511 . S
C419 H433 0.961 . S
C419 H434 0.961 . S
C419 H435 0.961 . S
C420 C421 1.370 . S
C420 C422 1.363 . S
C420 H436 0.931 . S
C421 C420 1.370 . S
C421 C425 1.408 . S
C422 C420 1.363 . S
C422 C423 1.370 . S
C422 C426 1.524 . S
C423 C415 1.503 1_655 S
C423 C422 1.370 . S
C423 C424 1.403 . S
C424 C423 1.403 . S
C424 C425 1.404 . S
C424 C427 1.539 . S
C425 C421 1.408 . S
C425 C424 1.404 . S
C425 H437 0.930 . S
C426 C422 1.524 . S
C426 H438 0.956 . S
C426 H439 0.947 1_655 S
C426 H440 0.961 . S
C427 C424 1.539 . S
C427 H441 0.958 . S
C427 H442 0.961 . S
C427 H443 0.960 1_655 S
H428 C412 0.931 . S
H429 C417 0.929 . S
H430 C418 0.960 . S
H431 C418 0.962 . S
H432 C418 0.960 1_455 S
H433 C419 0.961 . S
H434 C419 0.961 . S
H435 C419 0.961 . S
H436 C420 0.931 . S
H437 C425 0.930 . S
H438 C426 0.956 . S
H439 C426 0.947 1_455 S
H440 C426 0.961 . S
H441 C427 0.958 . S
H442 C427 0.961 . S
H443 C427 0.960 1_455 S
C444 C445 1.391 . S
C444 C446 1.394 . S
C444 H460 0.931 . S
C445 C444 1.391 . S
C445 C449 1.376 . S
C446 C444 1.394 . S
C446 C447 1.369 . S
C446 C450 1.531 . S
C447 C446 1.369 . S
C447 C448 1.410 . S
C447 C455 1.503 1_565 S
C448 C447 1.410 . S
C448 C449 1.392 . S
C448 C451 1.511 1_565 S
C449 C445 1.376 . S
C449 C448 1.392 . S
C449 H461 0.929 . S
C450 C446 1.531 . S
C450 H462 0.960 . S
C450 H463 0.962 . S
C450 H464 0.960 . S
C451 C448 1.511 1_545 S
C451 H465 0.961 1_545 S
C451 H466 0.961 . S
C451 H467 0.961 . S
C452 C453 1.370 . S
C452 C454 1.363 . S
C452 H468 0.931 . S
C453 C452 1.370 . S
C453 C457 1.408 . S
C454 C452 1.363 . S
C454 C455 1.370 . S
C454 C458 1.524 1_545 S
C455 C447 1.503 1_545 S
C455 C454 1.370 . S
C455 C456 1.403 . S
C456 C455 1.403 . S
C456 C457 1.404 . S
C456 C459 1.539 . S
C457 C453 1.408 . S
C457 C456 1.404 . S
C457 H469 0.930 . S
C458 C454 1.524 1_565 S
C458 H470 0.956 . S
C458 H471 0.961 . S
C458 H472 0.961 1_565 S
C459 C456 1.539 . S
C459 H473 0.958 . S
C459 H474 0.961 . S
C459 H475 0.960 . S
H460 C444 0.931 . S
H461 C449 0.929 . S
H462 C450 0.960 . S
H463 C450 0.962 . S
H464 C450 0.960 . S
H465 C451 0.961 1_565 S
H466 C451 0.961 . S
H467 C451 0.961 . S
H468 C452 0.931 . S
H469 C457 0.930 . S
H470 C458 0.956 . S
H471 C458 0.961 . S
H472 C458 0.961 1_545 S
H473 C459 0.958 . S
H474 C459 0.961 . S
H475 C459 0.960 . S
C476 C477 1.391 . S
C476 C478 1.394 . S
C476 H492 0.931 . S
C477 C476 1.391 . S
C477 C481 1.376 . S
C478 C476 1.394 . S
C478 C479 1.369 . S
C478 C482 1.531 . S
C479 C478 1.369 . S
C479 C480 1.410 . S
C479 C487 1.503 . S
C480 C479 1.410 . S
C480 C481 1.392 . S
C480 C483 1.511 . S
C481 C477 1.376 . S
C481 C480 1.392 . S
C481 H493 0.929 . S
C482 C478 1.531 . S
C482 H494 0.960 . S
C482 H495 0.962 . S
C482 H496 0.960 . S
C483 C480 1.511 . S
C483 H497 0.961 . S
C483 H498 0.961 . S
C483 H499 0.961 . S
C484 C485 1.370 . S
C484 C486 1.363 . S
C484 H500 0.931 . S
C485 C484 1.370 . S
C485 C489 1.408 . S
C486 C484 1.363 . S
C486 C487 1.370 . S
C486 C490 1.524 . S
C487 C479 1.503 . S
C487 C486 1.370 . S
C487 C488 1.403 . S
C488 C487 1.403 . S
C488 C489 1.404 . S
C488 C491 1.539 . S
C489 C485 1.408 . S
C489 C488 1.404 . S
C489 H501 0.930 . S
C490 C486 1.524 . S
C490 H502 0.956 . S
C490 H503 0.961 . S
C490 H504 0.961 . S
C491 C488 1.539 . S
C491 H505 0.958 . S
C491 H506 0.961 . S
C491 H507 0.960 . S
H492 C476 0.931 . S
H493 C481 0.929 . S
H494 C482 0.960 . S
H495 C482 0.962 . S
H496 C482 0.960 . S
H497 C483 0.961 . S
H498 C483 0.961 . S
H499 C483 0.961 . S
H500 C484 0.931 . S
H501 C489 0.930 . S
H502 C490 0.956 . S
H503 C490 0.961 . S
H504 C490 0.961 . S
H505 C491 0.958 . S
H506 C491 0.961 . S
H507 C491 0.960 . S
C508 C509 1.391 . S
C508 C510 1.394 . S
C508 H524 0.931 . S
C509 C508 1.391 . S
C509 C513 1.376 . S
C510 C508 1.394 . S
C510 C511 1.369 . S
C510 C514 1.531 . S
C511 C510 1.369 . S
C511 C512 1.410 . S
C511 C519 1.503 1_655 S
C512 C511 1.410 . S
C512 C513 1.392 . S
C512 C515 1.495 1_655 S
C513 C509 1.376 . S
C513 C512 1.392 . S
C513 H525 0.929 . S
C514 C510 1.531 . S
C514 H526 0.960 . S
C514 H527 0.962 . S
C514 H528 0.960 . S
C515 C512 1.495 1_455 S
C515 H529 0.953 1_455 S
C515 H530 1.012 . S
C515 H531 0.943 . S
C516 C517 1.370 . S
C516 C518 1.363 . S
C516 H532 0.931 . S
C517 C516 1.370 . S
C517 C521 1.408 . S
C518 C516 1.363 . S
C518 C519 1.370 . S
C518 C522 1.524 . S
C519 C511 1.503 1_455 S
C519 C518 1.370 . S
C519 C520 1.403 . S
C520 C519 1.403 . S
C520 C521 1.404 . S
C520 C523 1.539 . S
C521 C517 1.408 . S
C521 C520 1.404 . S
C521 H533 0.930 . S
C522 C518 1.524 . S
C522 H534 0.956 . S
C522 H535 0.961 . S
C522 H536 0.961 . S
C523 C520 1.539 . S
C523 H537 0.958 1_455 S
C523 H538 0.961 . S
C523 H539 0.960 1_455 S
H524 C508 0.931 . S
H525 C513 0.929 . S
H526 C514 0.960 . S
H527 C514 0.962 . S
H528 C514 0.960 . S
H529 C515 0.953 1_655 S
H530 C515 1.012 . S
H531 C515 0.943 . S
H532 C516 0.931 . S
H533 C521 0.930 . S
H534 C522 0.956 . S
H535 C522 0.961 . S
H536 C522 0.961 . S
H537 C523 0.958 1_655 S
H538 C523 0.961 . S
H539 C523 0.960 1_655 S
C540 C541 1.391 . S
C540 C542 1.394 . S
C540 H556 0.931 . S
C541 C540 1.391 . S
C541 C545 1.376 . S
C542 C540 1.394 . S
C542 C543 1.369 . S
C542 C546 1.531 . S
C543 C542 1.369 . S
C543 C544 1.410 . S
C543 C551 1.503 1_545 S
C544 C543 1.410 . S
C544 C545 1.392 . S
C544 C547 1.511 . S
C545 C541 1.376 . S
C545 C544 1.392 . S
C545 H557 0.929 . S
C546 C542 1.531 . S
C546 H558 0.960 1_545 S
C546 H559 0.962 . S
C546 H560 0.960 . S
C547 C544 1.511 . S
C547 H561 0.961 . S
C547 H562 0.945 1_545 S
C547 H563 0.961 1_545 S
C548 C549 1.370 . S
C548 C550 1.363 . S
C548 H564 0.931 . S
C549 C548 1.370 . S
C549 C553 1.408 . S
C550 C548 1.363 . S
C550 C551 1.370 . S
C550 C554 1.524 1_565 S
C551 C543 1.503 1_565 S
C551 C550 1.370 . S
C551 C552 1.403 . S
C552 C551 1.403 . S
C552 C553 1.404 . S
C552 C555 1.539 . S
C553 C549 1.408 . S
C553 C552 1.404 . S
C553 H565 0.930 . S
C554 C550 1.524 1_545 S
C554 H566 0.956 . S
C554 H567 0.961 . S
C554 H568 0.961 . S
C555 C552 1.539 . S
C555 H569 0.958 . S
C555 H570 0.961 . S
C555 H571 0.960 . S
H556 C540 0.931 . S
H557 C545 0.929 . S
H558 C546 0.960 1_565 S
H559 C546 0.962 . S
H560 C546 0.960 . S
H561 C547 0.961 . S
H562 C547 0.945 1_565 S
H563 C547 0.961 1_565 S
H564 C548 0.931 . S
H565 C553 0.930 . S
H566 C554 0.956 . S
H567 C554 0.961 . S
H568 C554 0.961 . S
H569 C555 0.958 . S
H570 C555 0.961 . S
H571 C555 0.960 . S
C572 C573 1.391 . S
C572 C574 1.394 . S
C572 H588 0.931 . S
C573 C572 1.391 . S
C573 C577 1.376 . S
C574 C572 1.394 . S
C574 C575 1.369 . S
C574 C578 1.531 . S
C575 C574 1.369 . S
C575 C576 1.410 . S
C575 C583 1.503 . S
C576 C575 1.410 . S
C576 C577 1.392 . S
C576 C579 1.511 . S
C577 C573 1.376 . S
C577 C576 1.392 . S
C577 H589 0.929 . S
C578 C574 1.531 . S
C578 H590 0.960 . S
C578 H591 0.962 . S
C578 H592 0.960 . S
C579 C576 1.511 . S
C579 H593 0.961 . S
C579 H594 0.961 . S
C579 H595 0.961 . S
C580 C581 1.370 . S
C580 C582 1.363 . S
C580 H596 0.931 . S
C581 C580 1.370 . S
C581 C585 1.408 . S
C582 C580 1.363 . S
C582 C583 1.370 . S
C582 C586 1.524 . S
C583 C575 1.503 . S
C583 C582 1.370 . S
C583 C584 1.403 . S
C584 C583 1.403 . S
C584 C585 1.404 . S
C584 C587 1.539 . S
C585 C581 1.408 . S
C585 C584 1.404 . S
C585 H597 0.930 . S
C586 C582 1.524 . S
C586 H598 0.956 . S
C586 H599 0.961 . S
C586 H600 0.961 . S
C587 C584 1.539 . S
C587 H601 0.958 . S
C587 H602 0.961 . S
C587 H603 0.960 . S
H588 C572 0.931 . S
H589 C577 0.929 . S
H590 C578 0.960 . S
H591 C578 0.962 . S
H592 C578 0.960 . S
H593 C579 0.961 . S
H594 C579 0.961 . S
H595 C579 0.961 . S
H596 C580 0.931 . S
H597 C585 0.930 . S
H598 C586 0.956 . S
H599 C586 0.961 . S
H600 C586 0.961 . S
H601 C587 0.958 . S
H602 C587 0.961 . S
H603 C587 0.960 . S
C604 C605 1.391 . S
C604 C606 1.394 . S
C604 H620 0.931 . S
C605 C604 1.391 . S
C605 C609 1.376 . S
C606 C604 1.394 . S
C606 C607 1.369 . S
C606 C610 1.531 . S
C607 C606 1.369 . S
C607 C608 1.410 . S
C607 C615 1.503 1_455 S
C608 C607 1.410 . S
C608 C609 1.392 . S
C608 C611 1.511 1_455 S
C609 C605 1.376 . S
C609 C608 1.392 . S
C609 H621 0.929 . S
C610 C606 1.531 . S
C610 H622 0.960 . S
C610 H623 0.962 . S
C610 H624 0.960 . S
C611 C608 1.511 1_655 S
C611 H625 0.961 . S
C611 H626 0.961 . S
C611 H627 0.961 . S
C612 C613 1.370 . S
C612 C614 1.363 . S
C612 H628 0.931 . S
C613 C612 1.370 . S
C613 C617 1.408 . S
C614 C612 1.363 . S
C614 C615 1.370 . S
C614 C618 1.524 . S
C615 C607 1.503 1_655 S
C615 C614 1.370 . S
C615 C616 1.403 . S
C616 C615 1.403 . S
C616 C617 1.404 . S
C616 C619 1.539 1_655 S
C617 C613 1.408 . S
C617 C616 1.404 . S
C617 H629 0.930 . S
C618 C614 1.524 . S
C618 H630 0.956 . S
C618 H631 0.961 . S
C618 H632 0.961 . S
C619 C616 1.539 1_455 S
C619 H633 0.958 . S
C619 H634 0.961 . S
C619 H635 0.960 . S
H620 C604 0.931 . S
H621 C609 0.929 . S
H622 C610 0.960 . S
H623 C610 0.962 . S
H624 C610 0.960 . S
H625 C611 0.961 . S
H626 C611 0.961 . S
H627 C611 0.961 . S
H628 C612 0.931 . S
H629 C617 0.930 . S
H630 C618 0.956 . S
H631 C618 0.961 . S
H632 C618 0.961 . S
H633 C619 0.958 . S
H634 C619 0.961 . S
H635 C619 0.960 . S
C636 C637 1.391 . S
C636 C638 1.394 . S
C636 H652 0.931 . S
C637 C636 1.391 . S
C637 C641 1.376 . S
C638 C636 1.394 . S
C638 C639 1.369 . S
C638 C642 1.531 . S
C639 C638 1.369 . S
C639 C640 1.410 . S
C639 C647 1.503 1_545 S
C640 C639 1.410 . S
C640 C641 1.392 . S
C640 C643 1.511 1_545 S
C641 C637 1.376 . S
C641 C640 1.392 . S
C641 H653 0.929 . S
C642 C638 1.531 . S
C642 H654 0.960 . S
C642 H655 0.962 . S
C642 H656 0.960 . S
C643 C640 1.511 1_565 S
C643 H657 0.961 . S
C643 H658 0.961 . S
C643 H659 0.961 . S
C644 C645 1.370 . S
C644 C646 1.363 . S
C644 H660 0.931 . S
C645 C644 1.370 . S
C645 C649 1.408 . S
C646 C644 1.363 . S
C646 C647 1.370 . S
C646 C650 1.524 . S
C647 C639 1.503 1_565 S
C647 C646 1.370 . S
C647 C648 1.403 . S
C648 C647 1.403 . S
C648 C649 1.404 . S
C648 C651 1.539 1_565 S
C649 C645 1.408 . S
C649 C648 1.404 . S
C649 H661 0.930 . S
C650 C646 1.524 . S
C650 H662 0.956 . S
C650 H663 0.961 . S
C650 H664 0.961 . S
C651 C648 1.539 1_545 S
C651 H665 0.958 . S
C651 H666 0.961 1_545 S
C651 H667 0.960 . S
H652 C636 0.931 . S
H653 C641 0.929 . S
H654 C642 0.960 . S
H655 C642 0.962 . S
H656 C642 0.960 . S
H657 C643 0.961 . S
H658 C643 0.961 . S
H659 C643 0.961 . S
H660 C644 0.931 . S
H661 C649 0.930 . S
H662 C650 0.956 . S
H663 C650 0.961 . S
H664 C650 0.961 . S
H665 C651 0.958 . S
H666 C651 0.961 1_565 S
H667 C651 0.960 . S
C668 C669 1.391 . S
C668 C670 1.394 . S
C668 H684 0.931 . S
C669 C668 1.391 . S
C669 C673 1.376 . S
C670 C668 1.394 . S
C670 C671 1.369 . S
C670 C674 1.531 . S
C671 C670 1.369 . S
C671 C672 1.410 . S
C671 C679 1.503 . S
C672 C671 1.410 . S
C672 C673 1.392 . S
C672 C675 1.511 . S
C673 C669 1.376 . S
C673 C672 1.392 . S
C673 H685 0.929 . S
C674 C670 1.531 . S
C674 H686 0.960 . S
C674 H687 0.962 . S
C674 H688 0.960 . S
C675 C672 1.511 . S
C675 H689 0.961 . S
C675 H690 0.961 . S
C675 H691 0.961 . S
C676 C677 1.370 . S
C676 C678 1.363 . S
C676 H692 0.931 . S
C677 C676 1.370 . S
C677 C681 1.408 . S
C678 C676 1.363 . S
C678 C679 1.370 . S
C678 C682 1.524 . S
C679 C671 1.503 . S
C679 C678 1.370 . S
C679 C680 1.403 . S
C680 C679 1.403 . S
C680 C681 1.404 . S
C680 C683 1.539 . S
C681 C677 1.408 . S
C681 C680 1.404 . S
C681 H693 0.930 . S
C682 C678 1.524 . S
C682 H694 0.956 . S
C682 H695 0.961 . S
C682 H696 0.961 . S
C683 C680 1.539 . S
C683 H697 0.958 . S
C683 H698 0.961 . S
C683 H699 0.960 . S
H684 C668 0.931 . S
H685 C673 0.929 . S
H686 C674 0.960 . S
H687 C674 0.962 . S
H688 C674 0.960 . S
H689 C675 0.961 . S
H690 C675 0.961 . S
H691 C675 0.961 . S
H692 C676 0.931 . S
H693 C681 0.930 . S
H694 C682 0.956 . S
H695 C682 0.961 . S
H696 C682 0.961 . S
H697 C683 0.958 . S
H698 C683 0.961 . S
H699 C683 0.960 . S
C700 C701 1.391 . S
C700 C702 1.394 . S
C700 H716 0.931 . S
C701 C700 1.391 . S
C701 C705 1.376 . S
C702 C700 1.394 . S
C702 C703 1.369 . S
C702 C706 1.531 . S
C703 C702 1.369 . S
C703 C704 1.410 . S
C703 C711 1.503 1_455 S
C704 C703 1.410 . S
C704 C705 1.392 . S
C704 C707 1.511 . S
C705 C701 1.376 . S
C705 C704 1.392 . S
C705 H717 0.929 . S
C706 C702 1.531 . S
C706 H718 0.960 1_455 S
C706 H719 0.962 . S
C706 H720 0.960 . S
C707 C704 1.511 . S
C707 H721 0.961 . S
C707 H722 0.961 1_455 S
C707 H723 0.961 1_455 S
C708 C709 1.370 . S
C708 C710 1.363 . S
C708 H724 0.931 . S
C709 C708 1.370 . S
C709 C713 1.408 . S
C710 C708 1.363 . S
C710 C711 1.370 . S
C710 C714 1.524 1_655 S
C711 C703 1.503 1_655 S
C711 C710 1.370 . S
C711 C712 1.403 . S
C712 C711 1.403 . S
C712 C713 1.404 . S
C712 C715 1.539 . S
C713 C709 1.408 . S
C713 C712 1.404 . S
C713 H725 0.930 . S
C714 C710 1.524 1_455 S
C714 H726 0.956 . S
C714 H727 0.961 . S
C714 H728 0.961 . S
C715 C712 1.539 . S
C715 H729 0.958 . S
C715 H730 0.961 . S
C715 H731 0.960 . S
H716 C700 0.931 . S
H717 C705 0.929 . S
H718 C706 0.960 1_655 S
H719 C706 0.962 . S
H720 C706 0.960 . S
H721 C707 0.961 . S
H722 C707 0.961 1_655 S
H723 C707 0.961 1_655 S
H724 C708 0.931 . S
H725 C713 0.930 . S
H726 C714 0.956 . S
H727 C714 0.961 . S
H728 C714 0.961 . S
H729 C715 0.958 . S
H730 C715 0.961 . S
H731 C715 0.960 . S
C732 C733 1.399 . S
C732 C734 1.394 . S
C732 H748 0.931 . S
C733 C732 1.399 . S
C733 C737 1.369 1_554 S
C734 C732 1.394 . S
C734 C735 1.369 . S
C734 C738 1.531 . S
C735 C734 1.369 . S
C735 C736 1.410 1_554 S
C735 C743 1.503 1_565 S
C736 C735 1.410 1_556 S
C736 C737 1.392 . S
C736 C739 1.511 1_565 S
C737 C733 1.369 1_556 S
C737 C736 1.392 . S
C737 H749 0.929 . S
C738 C734 1.531 . S
C738 H750 0.960 . S
C738 H751 0.962 . S
C738 H752 0.960 . S
C739 C736 1.511 1_545 S
C739 H753 0.961 . S
C739 H754 0.961 . S
C739 H755 0.961 . S
C740 C741 1.370 . S
C740 C742 1.363 . S
C740 H756 0.931 . S
C741 C740 1.370 . S
C741 C745 1.408 1_556 S
C742 C740 1.363 . S
C742 C743 1.370 1_556 S
C742 C746 1.524 1_545 S
C743 C735 1.503 1_545 S
C743 C742 1.370 1_554 S
C743 C744 1.403 . S
C744 C743 1.403 . S
C744 C745 1.404 . S
C744 C747 1.539 . S
C745 C741 1.408 1_554 S
C745 C744 1.404 . S
C745 H757 0.930 . S
C746 C742 1.524 1_565 S
C746 H758 0.956 . S
C746 H759 0.961 . S
C746 H760 0.961 . S
C747 C744 1.539 . S
C747 H761 0.958 . S
C747 H762 0.961 . S
C747 H763 0.960 . S
H748 C732 0.931 . S
H749 C737 0.929 . S
H750 C738 0.960 . S
H751 C738 0.962 . S
H752 C738 0.960 . S
H753 C739 0.961 . S
H754 C739 0.961 . S
H755 C739 0.961 . S
H756 C740 0.931 . S
H757 C745 0.930 . S
H758 C746 0.956 . S
H759 C746 0.961 . S
H760 C746 0.961 . S
H761 C747 0.958 . S
H762 C747 0.961 . S
H763 C747 0.960 . S
C764 C765 1.391 1_554 S
C764 C766 1.394 . S
C764 H780 0.931 . S
C765 C764 1.391 1_556 S
C765 C769 1.376 . S
C766 C764 1.394 . S
C766 C767 1.369 1_554 S
C766 C770 1.531 . S
C767 C766 1.369 1_556 S
C767 C768 1.410 . S
C767 C775 1.503 . S
C768 C767 1.410 . S
C768 C769 1.392 . S
C768 C771 1.511 . S
C769 C765 1.376 . S
C769 C768 1.392 . S
C769 H781 0.929 . S
C770 C766 1.531 . S
C770 H782 0.960 . S
C770 H783 0.962 . S
C770 H784 0.960 . S
C771 C768 1.511 . S
C771 H785 0.961 . S
C771 H786 0.961 . S
C771 H787 0.961 . S
C772 C773 1.370 1_554 S
C772 C774 1.363 . S
C772 H788 0.931 . S
C773 C772 1.370 1_556 S
C773 C777 1.408 . S
C774 C772 1.363 . S
C774 C775 1.370 1_554 S
C774 C778 1.524 . S
C775 C767 1.503 . S
C775 C774 1.370 1_556 S
C775 C776 1.403 . S
C776 C775 1.403 . S
C776 C777 1.404 . S
C776 C779 1.539 . S
C777 C773 1.408 . S
C777 C776 1.404 . S
C777 H789 0.930 . S
C778 C774 1.524 . S
C778 H790 0.956 . S
C778 H791 0.961 1_554 S
C778 H792 0.961 . S
C779 C776 1.539 . S
C779 H793 0.958 . S
C779 H794 0.961 . S
C779 H795 0.960 . S
H780 C764 0.931 . S
H781 C769 0.929 . S
H782 C770 0.960 . S
H783 C770 0.962 . S
H784 C770 0.960 . S
H785 C771 0.961 . S
H786 C771 0.961 . S
H787 C771 0.961 . S
H788 C772 0.931 . S
H789 C777 0.930 . S
H790 C778 0.956 . S
H791 C778 0.961 1_556 S
H792 C778 0.961 . S
H793 C779 0.958 . S
H794 C779 0.961 . S
H795 C779 0.960 . S
C796 C797 1.391 . S
C796 C798 1.394 . S
C796 H812 0.931 . S
C797 C796 1.391 . S
C797 C801 1.376 . S
C798 C796 1.394 . S
C798 C799 1.369 . S
C798 C802 1.531 1_455 S
C799 C798 1.369 . S
C799 C800 1.410 . S
C799 C807 1.503 1_455 S
C800 C799 1.410 . S
C800 C801 1.392 . S
C800 C803 1.511 . S
C801 C797 1.376 . S
C801 C800 1.392 . S
C801 H813 0.929 . S
C802 C798 1.531 1_655 S
C802 H814 0.960 . S
C802 H815 0.962 1_556 S
C802 H816 0.960 . S
C803 C800 1.511 . S
C803 H817 0.961 . S
C803 H818 0.961 . S
C803 H819 0.961 . S
C804 C805 1.370 1_554 S
C804 C806 1.363 . S
C804 H820 0.931 . S
C805 C804 1.370 1_556 S
C805 C809 1.408 . S
C806 C804 1.363 . S
C806 C807 1.370 1_554 S
C806 C810 1.524 . S
C807 C799 1.503 1_655 S
C807 C806 1.370 1_556 S
C807 C808 1.403 . S
C808 C807 1.403 . S
C808 C809 1.404 . S
C808 C811 1.539 . S
C809 C805 1.408 . S
C809 C808 1.404 . S
C809 H821 0.930 . S
C810 C806 1.524 . S
C810 H822 0.956 . S
C810 H823 0.961 1_655 S
C810 H824 0.961 . S
C811 C808 1.539 . S
C811 H825 0.958 . S
C811 H826 0.961 . S
C811 H827 0.960 1_655 S
H812 C796 0.931 . S
H813 C801 0.929 . S
H814 C802 0.960 . S
H815 C802 0.962 1_554 S
H816 C802 0.960 . S
H817 C803 0.961 . S
H818 C803 0.961 . S
H819 C803 0.961 . S
H820 C804 0.931 . S
H821 C809 0.930 . S
H822 C810 0.956 . S
H823 C810 0.961 1_455 S
H824 C810 0.961 . S
H825 C811 0.958 . S
H826 C811 0.961 . S
H827 C811 0.960 1_455 S
C828 C829 1.391 . S
C828 C830 1.394 . S
C828 H844 0.931 . S
C829 C828 1.391 . S
C829 C833 1.376 . S
C830 C828 1.394 . S
C830 C831 1.369 . S
C830 C834 1.531 . S
C831 C830 1.369 . S
C831 C832 1.410 . S
C831 C839 1.503 1_655 S
C832 C831 1.410 . S
C832 C833 1.392 . S
C832 C835 1.511 1_655 S
C833 C829 1.376 . S
C833 C832 1.392 . S
C833 H845 0.929 . S
C834 C830 1.531 . S
C834 H846 0.960 . S
C834 H847 0.962 . S
C834 H848 0.960 . S
C835 C832 1.511 1_455 S
C835 H849 0.961 . S
C835 H850 0.961 . S
C835 H851 0.961 . S
C836 C837 1.370 . S
C836 C838 1.363 . S
C836 H852 0.931 . S
C837 C836 1.370 . S
C837 C841 1.408 . S
C838 C836 1.363 . S
C838 C839 1.370 . S
C838 C842 1.524 1_455 S
C839 C831 1.503 1_455 S
C839 C838 1.370 . S
C839 C840 1.403 . S
C840 C839 1.403 . S
C840 C841 1.404 . S
C840 C843 1.539 . S
C841 C837 1.408 . S
C841 C840 1.404 . S
C841 H853 0.930 . S
C842 C838 1.524 1_655 S
C842 H854 0.956 . S
C842 H855 0.961 . S
C842 H856 0.961 . S
C843 C840 1.539 . S
C843 H857 0.958 . S
C843 H858 0.961 . S
C843 H859 0.960 . S
H844 C828 0.931 . S
H845 C833 0.929 . S
H846 C834 0.960 . S
H847 C834 0.962 . S
H848 C834 0.960 . S
H849 C835 0.961 . S
H850 C835 0.961 . S
H851 C835 0.961 . S
H852 C836 0.931 . S
H853 C841 0.930 . S
H854 C842 0.956 . S
H855 C842 0.961 . S
H856 C842 0.961 . S
H857 C843 0.958 . S
H858 C843 0.961 . S
H859 C843 0.960 . S
C860 C861 1.391 . S
C860 C862 1.394 . S
C860 H876 0.931 . S
C861 C860 1.391 . S
C861 C865 1.376 . S
C862 C860 1.394 . S
C862 C863 1.369 . S
C862 C866 1.531 1_565 S
C863 C862 1.369 . S
C863 C864 1.410 . S
C863 C871 1.503 1_565 S
C864 C863 1.410 . S
C864 C865 1.392 . S
C864 C867 1.511 . S
C865 C861 1.376 . S
C865 C864 1.392 . S
C865 H877 0.929 . S
C866 C862 1.531 1_545 S
C866 H878 0.960 . S
C866 H879 0.962 . S
C866 H880 0.960 . S
C867 C864 1.511 . S
C867 H881 0.961 . S
C867 H882 0.961 . S
C867 H883 0.961 . S
C868 C869 1.370 . S
C868 C870 1.363 . S
C868 H884 0.931 . S
C869 C868 1.370 . S
C869 C873 1.408 . S
C870 C868 1.363 . S
C870 C871 1.370 . S
C870 C874 1.524 1_545 S
C871 C863 1.503 1_545 S
C871 C870 1.370 . S
C871 C872 1.403 . S
C872 C871 1.403 . S
C872 C873 1.404 . S
C872 C875 1.539 . S
C873 C869 1.408 . S
C873 C872 1.404 . S
C873 H885 0.930 . S
C874 C870 1.524 1_565 S
C874 H886 0.956 . S
C874 H887 0.961 . S
C874 H888 0.961 . S
C875 C872 1.539 . S
C875 H889 0.958 . S
C875 H890 0.961 . S
C875 H891 0.960 . S
H876 C860 0.931 . S
H877 C865 0.929 . S
H878 C866 0.960 . S
H879 C866 0.962 . S
H880 C866 0.960 . S
H881 C867 0.961 . S
H882 C867 0.961 . S
H883 C867 0.961 . S
H884 C868 0.931 . S
H885 C873 0.930 . S
H886 C874 0.956 . S
H887 C874 0.961 . S
H888 C874 0.961 . S
H889 C875 0.958 . S
H890 C875 0.961 . S
H891 C875 0.960 . S
C892 C893 1.391 . S
C892 C894 1.394 . S
C892 H908 0.931 . S
C893 C892 1.391 . S
C893 C897 1.376 . S
C894 C892 1.394 . S
C894 C895 1.369 . S
C894 C898 1.531 . S
C895 C894 1.369 . S
C895 C896 1.410 . S
C895 C903 1.503 . S
C896 C895 1.410 . S
C896 C897 1.392 . S
C896 C899 1.511 . S
C897 C893 1.376 . S
C897 C896 1.392 . S
C897 H909 0.929 . S
C898 C894 1.531 . S
C898 H910 0.960 . S
C898 H911 0.962 . S
C898 H912 0.960 . S
C899 C896 1.511 . S
C899 H913 0.961 . S
C899 H914 0.961 . S
C899 H915 0.961 . S
C900 C901 1.370 . S
C900 C902 1.363 . S
C900 H916 0.931 . S
C901 C900 1.370 . S
C901 C905 1.408 . S
C902 C900 1.363 . S
C902 C903 1.370 . S
C902 C906 1.524 . S
C903 C895 1.503 . S
C903 C902 1.370 . S
C903 C904 1.403 . S
C904 C903 1.403 . S
C904 C905 1.404 . S
C904 C907 1.539 . S
C905 C901 1.408 . S
C905 C904 1.404 . S
C905 H917 0.930 . S
C906 C902 1.524 . S
C906 H918 0.956 . S
C906 H919 0.961 . S
C906 H920 0.961 . S
C907 C904 1.539 . S
C907 H921 0.958 . S
C907 H922 0.961 . S
C907 H923 0.960 . S
H908 C892 0.931 . S
H909 C897 0.929 . S
H910 C898 0.960 . S
H911 C898 0.962 . S
H912 C898 0.960 . S
H913 C899 0.961 . S
H914 C899 0.961 . S
H915 C899 0.961 . S
H916 C900 0.931 . S
H917 C905 0.930 . S
H918 C906 0.956 . S
H919 C906 0.961 . S
H920 C906 0.961 . S
H921 C907 0.958 . S
H922 C907 0.961 . S
H923 C907 0.960 . S
C924 C925 1.391 . S
C924 C926 1.394 . S
C924 H940 0.931 . S
C925 C924 1.391 . S
C925 C929 1.376 . S
C926 C924 1.394 . S
C926 C927 1.369 . S
C926 C930 1.531 . S
C927 C926 1.369 . S
C927 C928 1.410 . S
C927 C935 1.503 . S
C928 C927 1.410 . S
C928 C929 1.392 . S
C928 C931 1.511 . S
C929 C925 1.376 . S
C929 C928 1.392 . S
C929 H941 0.929 . S
C930 C926 1.531 . S
C930 H942 0.960 . S
C930 H943 0.962 . S
C930 H944 0.960 . S
C931 C928 1.511 . S
C931 H945 0.961 . S
C931 H946 0.961 . S
C931 H947 0.961 . S
C932 C933 1.370 . S
C932 C934 1.363 . S
C932 H948 0.931 . S
C933 C932 1.370 . S
C933 C937 1.408 . S
C934 C932 1.363 . S
C934 C935 1.370 . S
C934 C938 1.524 . S
C935 C927 1.503 . S
C935 C934 1.370 . S
C935 C936 1.403 . S
C936 C935 1.403 . S
C936 C937 1.404 . S
C936 C939 1.539 . S
C937 C933 1.408 . S
C937 C936 1.404 . S
C937 H949 0.930 . S
C938 C934 1.524 . S
C938 H950 0.956 . S
C938 H951 0.961 . S
C938 H952 0.961 . S
C939 C936 1.539 . S
C939 H953 0.958 . S
C939 H954 0.961 . S
C939 H955 0.960 . S
H940 C924 0.931 . S
H941 C929 0.929 . S
H942 C930 0.960 . S
H943 C930 0.962 . S
H944 C930 0.960 . S
H945 C931 0.961 . S
H946 C931 0.961 . S
H947 C931 0.961 . S
H948 C932 0.931 . S
H949 C937 0.930 . S
H950 C938 0.956 . S
H951 C938 0.961 . S
H952 C938 0.961 . S
H953 C939 0.958 . S
H954 C939 0.961 . S
H955 C939 0.960 . S
C956 C957 1.391 . S
C956 C958 1.394 . S
C956 H972 0.931 . S
C957 C956 1.391 . S
C957 C961 1.376 . S
C958 C956 1.394 . S
C958 C959 1.369 . S
C958 C962 1.531 . S
C959 C958 1.369 . S
C959 C960 1.410 . S
C959 C967 1.503 . S
C960 C959 1.410 . S
C960 C961 1.392 . S
C960 C963 1.511 . S
C961 C957 1.376 . S
C961 C960 1.392 . S
C961 H973 0.929 . S
C962 C958 1.531 . S
C962 H974 0.960 . S
C962 H975 0.962 . S
C962 H976 0.960 . S
C963 C960 1.511 . S
C963 H977 0.961 . S
C963 H978 0.961 . S
C963 H979 0.961 . S
C964 C965 1.370 . S
C964 C966 1.363 . S
C964 H980 0.931 . S
C965 C964 1.370 . S
C965 C969 1.408 . S
C966 C964 1.363 . S
C966 C967 1.370 . S
C966 C970 1.524 . S
C967 C959 1.503 . S
C967 C966 1.370 . S
C967 C968 1.403 . S
C968 C967 1.403 . S
C968 C969 1.404 . S
C968 C971 1.539 . S
C969 C965 1.408 . S
C969 C968 1.404 . S
C969 H981 0.930 . S
C970 C966 1.524 . S
C970 H982 0.956 . S
C970 H983 0.961 . S
C970 H984 0.961 . S
C971 C968 1.539 . S
C971 H985 0.958 . S
C971 H986 0.961 . S
C971 H987 0.960 . S
H972 C956 0.931 . S
H973 C961 0.929 . S
H974 C962 0.960 . S
H975 C962 0.962 . S
H976 C962 0.960 . S
H977 C963 0.961 . S
H978 C963 0.961 . S
H979 C963 0.961 . S
H980 C964 0.931 . S
H981 C969 0.930 . S
H982 C970 0.956 . S
H983 C970 0.961 . S
H984 C970 0.961 . S
H985 C971 0.958 . S
H986 C971 0.961 . S
H987 C971 0.960 . S
C988 C989 1.391 . S
C988 C990 1.394 . S
C988 H1004 0.931 . S
C989 C988 1.391 . S
C989 C993 1.376 . S
C990 C988 1.394 . S
C990 C991 1.369 . S
C990 C994 1.531 . S
C991 C990 1.369 . S
C991 C992 1.410 . S
C991 C999 1.503 . S
C992 C991 1.410 . S
C992 C993 1.392 . S
C992 C995 1.511 . S
C993 C989 1.376 . S
C993 C992 1.392 . S
C993 H1005 0.929 . S
C994 C990 1.531 . S
C994 H1006 0.960 . S
C994 H1007 0.962 . S
C994 H1008 0.960 . S
C995 C992 1.511 . S
C995 H1009 0.961 . S
C995 H1010 0.961 . S
C995 H1011 0.961 . S
C996 C997 1.370 . S
C996 C998 1.363 . S
C996 H1012 0.931 . S
C997 C996 1.370 . S
C997 C1001 1.408 . S
C998 C996 1.363 . S
C998 C999 1.370 . S
C998 C1002 1.524 . S
C999 C991 1.503 . S
C999 C998 1.370 . S
C999 C1000 1.403 . S
C1000 C999 1.403 . S
C1000 C1001 1.404 . S
C1000 C1003 1.539 . S
C1001 C997 1.408 . S
C1001 C1000 1.404 . S
C1001 H1013 0.930 . S
C1002 C998 1.524 . S
C1002 H1014 0.956 . S
C1002 H1015 0.961 . S
C1002 H1016 0.961 . S
C1003 C1000 1.539 . S
C1003 H1017 0.958 . S
C1003 H1018 0.961 . S
C1003 H1019 0.960 . S
H1004 C988 0.931 . S
H1005 C993 0.929 . S
H1006 C994 0.960 . S
H1007 C994 0.962 . S
H1008 C994 0.960 . S
H1009 C995 0.961 . S
H1010 C995 0.961 . S
H1011 C995 0.961 . S
H1012 C996 0.931 . S
H1013 C1001 0.930 . S
H1014 C1002 0.956 . S
H1015 C1002 0.961 . S
H1016 C1002 0.961 . S
H1017 C1003 0.958 . S
H1018 C1003 0.961 . S
H1019 C1003 0.960 . S
C1020 C1021 1.391 . S
C1020 C1022 1.394 . S
C1020 H1036 0.931 . S
C1021 C1020 1.391 . S
C1021 C1025 1.376 . S
C1022 C1020 1.394 . S
C1022 C1023 1.369 . S
C1022 C1026 1.531 . S
C1023 C1022 1.369 . S
C1023 C1024 1.410 . S
C1023 C1031 1.503 . S
C1024 C1023 1.410 . S
C1024 C1025 1.392 . S
C1024 C1027 1.511 . S
C1025 C1021 1.376 . S
C1025 C1024 1.392 . S
C1025 H1037 0.929 . S
C1026 C1022 1.531 . S
C1026 H1038 0.960 . S
C1026 H1039 0.962 . S
C1026 H1040 0.960 . S
C1027 C1024 1.511 . S
C1027 H1041 0.961 . S
C1027 H1042 0.961 . S
C1027 H1043 0.961 . S
C1028 C1029 1.370 . S
C1028 C1030 1.363 . S
C1028 H1044 0.931 . S
C1029 C1028 1.370 . S
C1029 C1033 1.408 . S
C1030 C1028 1.363 . S
C1030 C1031 1.370 . S
C1030 C1034 1.524 . S
C1031 C1023 1.503 . S
C1031 C1030 1.370 . S
C1031 C1032 1.403 . S
C1032 C1031 1.403 . S
C1032 C1033 1.404 . S
C1032 C1035 1.539 . S
C1033 C1029 1.408 . S
C1033 C1032 1.404 . S
C1033 H1045 0.930 . S
C1034 C1030 1.524 . S
C1034 H1046 0.956 . S
C1034 H1047 0.961 . S
C1034 H1048 0.961 . S
C1035 C1032 1.539 . S
C1035 H1049 0.958 . S
C1035 H1050 0.961 . S
C1035 H1051 0.960 . S
H1036 C1020 0.931 . S
H1037 C1025 0.929 . S
H1038 C1026 0.960 . S
H1039 C1026 0.962 . S
H1040 C1026 0.960 . S
H1041 C1027 0.961 . S
H1042 C1027 0.961 . S
H1043 C1027 0.961 . S
H1044 C1028 0.931 . S
H1045 C1033 0.930 . S
H1046 C1034 0.956 . S
H1047 C1034 0.961 . S
H1048 C1034 0.961 . S
H1049 C1035 0.958 . S
H1050 C1035 0.961 . S
H1051 C1035 0.960 . S
C1052 C1053 1.391 . S
C1052 C1054 1.394 . S
C1052 H1068 0.931 . S
C1053 C1052 1.391 . S
C1053 C1057 1.376 . S
C1054 C1052 1.394 . S
C1054 C1055 1.369 . S
C1054 C1058 1.531 . S
C1055 C1054 1.369 . S
C1055 C1056 1.410 . S
C1055 C1063 1.503 . S
C1056 C1055 1.410 . S
C1056 C1057 1.392 . S
C1056 C1059 1.511 . S
C1057 C1053 1.376 . S
C1057 C1056 1.392 . S
C1057 H1069 0.929 . S
C1058 C1054 1.531 . S
C1058 H1070 0.960 . S
C1058 H1071 0.962 . S
C1058 H1072 0.960 . S
C1059 C1056 1.511 . S
C1059 H1073 0.961 . S
C1059 H1074 0.961 . S
C1059 H1075 0.961 . S
C1060 C1061 1.370 . S
C1060 C1062 1.363 . S
C1060 H1076 0.931 . S
C1061 C1060 1.370 . S
C1061 C1065 1.408 . S
C1062 C1060 1.363 . S
C1062 C1063 1.370 . S
C1062 C1066 1.524 . S
C1063 C1055 1.503 . S
C1063 C1062 1.370 . S
C1063 C1064 1.403 . S
C1064 C1063 1.403 . S
C1064 C1065 1.404 . S
C1064 C1067 1.539 . S
C1065 C1061 1.408 . S
C1065 C1064 1.404 . S
C1065 H1077 0.930 . S
C1066 C1062 1.524 . S
C1066 H1078 0.956 . S
C1066 H1079 0.961 . S
C1066 H1080 0.961 . S
C1067 C1064 1.539 . S
C1067 H1081 0.958 . S
C1067 H1082 0.961 . S
C1067 H1083 0.960 . S
H1068 C1052 0.931 . S
H1069 C1057 0.929 . S
H1070 C1058 0.960 . S
H1071 C1058 0.962 . S
H1072 C1058 0.960 . S
H1073 C1059 0.961 . S
H1074 C1059 0.961 . S
H1075 C1059 0.961 . S
H1076 C1060 0.931 . S
H1077 C1065 0.930 . S
H1078 C1066 0.956 . S
H1079 C1066 0.961 . S
H1080 C1066 0.961 . S
H1081 C1067 0.958 . S
H1082 C1067 0.961 . S
H1083 C1067 0.960 . S
C1084 C1085 1.391 . S
C1084 C1086 1.394 . S
C1084 H1100 0.931 . S
C1085 C1084 1.391 . S
C1085 C1089 1.376 . S
C1086 C1084 1.394 . S
C1086 C1087 1.369 . S
C1086 C1090 1.531 . S
C1087 C1086 1.369 . S
C1087 C1088 1.410 . S
C1087 C1095 1.503 . S
C1088 C1087 1.410 . S
C1088 C1089 1.392 . S
C1088 C1091 1.511 . S
C1089 C1085 1.376 . S
C1089 C1088 1.392 . S
C1089 H1101 0.929 . S
C1090 C1086 1.531 . S
C1090 H1102 0.960 . S
C1090 H1103 0.962 . S
C1090 H1104 0.960 . S
C1091 C1088 1.511 . S
C1091 H1105 0.961 . S
C1091 H1106 0.961 . S
C1091 H1107 0.961 . S
C1092 C1093 1.370 . S
C1092 C1094 1.363 . S
C1092 H1108 0.931 . S
C1093 C1092 1.370 . S
C1093 C1097 1.408 . S
C1094 C1092 1.363 . S
C1094 C1095 1.370 . S
C1094 C1098 1.524 . S
C1095 C1087 1.503 . S
C1095 C1094 1.370 . S
C1095 C1096 1.403 . S
C1096 C1095 1.403 . S
C1096 C1097 1.404 . S
C1096 C1099 1.539 . S
C1097 C1093 1.408 . S
C1097 C1096 1.404 . S
C1097 H1109 0.930 . S
C1098 C1094 1.524 . S
C1098 H1110 0.956 . S
C1098 H1111 0.961 . S
C1098 H1112 0.961 . S
C1099 C1096 1.539 . S
C1099 H1113 0.958 . S
C1099 H1114 0.961 . S
C1099 H1115 0.960 . S
H1100 C1084 0.931 . S
H1101 C1089 0.929 . S
H1102 C1090 0.960 . S
H1103 C1090 0.962 . S
H1104 C1090 0.960 . S
H1105 C1091 0.961 . S
H1106 C1091 0.961 . S
H1107 C1091 0.961 . S
H1108 C1092 0.931 . S
H1109 C1097 0.930 . S
H1110 C1098 0.956 . S
H1111 C1098 0.961 . S
H1112 C1098 0.961 . S
H1113 C1099 0.958 . S
H1114 C1099 0.961 . S
H1115 C1099 0.960 . S
C1116 C1117 1.391 . S
C1116 C1118 1.394 . S
C1116 H1132 0.931 . S
C1117 C1116 1.391 . S
C1117 C1121 1.376 . S
C1118 C1116 1.394 . S
C1118 C1119 1.369 . S
C1118 C1122 1.531 . S
C1119 C1118 1.369 . S
C1119 C1120 1.410 . S
C1119 C1127 1.503 . S
C1120 C1119 1.410 . S
C1120 C1121 1.392 . S
C1120 C1123 1.511 . S
C1121 C1117 1.376 . S
C1121 C1120 1.392 . S
C1121 H1133 0.929 . S
C1122 C1118 1.531 . S
C1122 H1134 0.960 . S
C1122 H1135 0.962 . S
C1122 H1136 0.960 . S
C1123 C1120 1.511 . S
C1123 H1137 0.961 . S
C1123 H1138 0.961 . S
C1123 H1139 0.961 . S
C1124 C1125 1.370 . S
C1124 C1126 1.363 . S
C1124 H1140 0.931 . S
C1125 C1124 1.370 . S
C1125 C1129 1.408 . S
C1126 C1124 1.363 . S
C1126 C1127 1.370 . S
C1126 C1130 1.524 . S
C1127 C1119 1.503 . S
C1127 C1126 1.370 . S
C1127 C1128 1.403 . S
C1128 C1127 1.403 . S
C1128 C1129 1.404 . S
C1128 C1131 1.539 . S
C1129 C1125 1.408 . S
C1129 C1128 1.404 . S
C1129 H1141 0.930 . S
C1130 C1126 1.524 . S
C1130 H1142 0.956 . S
C1130 H1143 0.961 . S
C1130 H1144 0.961 . S
C1131 C1128 1.539 . S
C1131 H1145 0.958 . S
C1131 H1146 0.961 . S
C1131 H1147 0.960 . S
H1132 C1116 0.931 . S
H1133 C1121 0.929 . S
H1134 C1122 0.960 . S
H1135 C1122 0.962 . S
H1136 C1122 0.960 . S
H1137 C1123 0.961 . S
H1138 C1123 0.961 . S
H1139 C1123 0.961 . S
H1140 C1124 0.931 . S
H1141 C1129 0.930 . S
H1142 C1130 0.956 . S
H1143 C1130 0.961 . S
H1144 C1130 0.961 . S
H1145 C1131 0.958 . S
H1146 C1131 0.961 . S
H1147 C1131 0.960 . S
C1148 C1149 1.391 . S
C1148 C1150 1.394 . S
C1148 H1164 0.931 . S
C1149 C1148 1.391 . S
C1149 C1153 1.376 . S
C1150 C1148 1.394 . S
C1150 C1151 1.369 . S
C1150 C1154 1.531 . S
C1151 C1150 1.369 . S
C1151 C1152 1.410 . S
C1151 C1159 1.503 . S
C1152 C1151 1.410 . S
C1152 C1153 1.392 . S
C1152 C1155 1.511 . S
C1153 C1149 1.376 . S
C1153 C1152 1.392 . S
C1153 H1165 0.929 . S
C1154 C1150 1.531 . S
C1154 H1166 0.960 . S
C1154 H1167 0.962 . S
C1154 H1168 0.960 . S
C1155 C1152 1.511 . S
C1155 H1169 0.961 . S
C1155 H1170 0.961 . S
C1155 H1171 0.961 . S
C1156 C1157 1.370 . S
C1156 C1158 1.363 . S
C1156 H1172 0.931 . S
C1157 C1156 1.370 . S
C1157 C1161 1.408 . S
C1158 C1156 1.363 . S
C1158 C1159 1.370 . S
C1158 C1162 1.524 . S
C1159 C1151 1.503 . S
C1159 C1158 1.370 . S
C1159 C1160 1.403 . S
C1160 C1159 1.403 . S
C1160 C1161 1.404 . S
C1160 C1163 1.539 . S
C1161 C1157 1.408 . S
C1161 C1160 1.404 . S
C1161 H1173 0.930 . S
C1162 C1158 1.524 . S
C1162 H1174 0.956 . S
C1162 H1175 0.961 . S
C1162 H1176 0.961 . S
C1163 C1160 1.539 . S
C1163 H1177 0.958 . S
C1163 H1178 0.961 . S
C1163 H1179 0.960 . S
H1164 C1148 0.931 . S
H1165 C1153 0.929 . S
H1166 C1154 0.960 . S
H1167 C1154 0.962 . S
H1168 C1154 0.960 . S
H1169 C1155 0.961 . S
H1170 C1155 0.961 . S
H1171 C1155 0.961 . S
H1172 C1156 0.931 . S
H1173 C1161 0.930 . S
H1174 C1162 0.956 . S
H1175 C1162 0.961 . S
H1176 C1162 0.961 . S
H1177 C1163 0.958 . S
H1178 C1163 0.961 . S
H1179 C1163 0.960 . S
C1180 C1181 1.391 . S
C1180 C1182 1.394 . S
C1180 H1196 0.931 . S
C1181 C1180 1.391 . S
C1181 C1185 1.376 . S
C1182 C1180 1.394 . S
C1182 C1183 1.369 . S
C1182 C1186 1.531 . S
C1183 C1182 1.369 . S
C1183 C1184 1.410 . S
C1183 C1191 1.503 . S
C1184 C1183 1.410 . S
C1184 C1185 1.392 . S
C1184 C1187 1.511 . S
C1185 C1181 1.376 . S
C1185 C1184 1.392 . S
C1185 H1197 0.929 . S
C1186 C1182 1.531 . S
C1186 H1198 0.960 . S
C1186 H1199 0.962 . S
C1186 H1200 0.960 . S
C1187 C1184 1.511 . S
C1187 H1201 0.961 . S
C1187 H1202 0.961 . S
C1187 H1203 0.961 . S
C1188 C1189 1.370 . S
C1188 C1190 1.363 . S
C1188 H1204 0.931 . S
C1189 C1188 1.370 . S
C1189 C1193 1.408 . S
C1190 C1188 1.363 . S
C1190 C1191 1.370 . S
C1190 C1194 1.524 . S
C1191 C1183 1.503 . S
C1191 C1190 1.370 . S
C1191 C1192 1.403 . S
C1192 C1191 1.403 . S
C1192 C1193 1.404 . S
C1192 C1195 1.539 . S
C1193 C1189 1.408 . S
C1193 C1192 1.404 . S
C1193 H1205 0.930 . S
C1194 C1190 1.524 . S
C1194 H1206 0.956 . S
C1194 H1207 0.961 . S
C1194 H1208 0.961 . S
C1195 C1192 1.539 . S
C1195 H1209 0.958 . S
C1195 H1210 0.961 . S
C1195 H1211 0.960 . S
H1196 C1180 0.931 . S
H1197 C1185 0.929 . S
H1198 C1186 0.960 . S
H1199 C1186 0.962 . S
H1200 C1186 0.960 . S
H1201 C1187 0.961 . S
H1202 C1187 0.961 . S
H1203 C1187 0.961 . S
H1204 C1188 0.931 . S
H1205 C1193 0.930 . S
H1206 C1194 0.956 . S
H1207 C1194 0.961 . S
H1208 C1194 0.961 . S
H1209 C1195 0.958 . S
H1210 C1195 0.961 . S
H1211 C1195 0.960 . S
C1212 C1213 1.391 . S
C1212 C1214 1.394 . S
C1212 H1228 0.931 . S
C1213 C1212 1.391 . S
C1213 C1217 1.376 . S
C1214 C1212 1.394 . S
C1214 C1215 1.369 . S
C1214 C1218 1.531 . S
C1215 C1214 1.369 . S
C1215 C1216 1.410 . S
C1215 C1223 1.503 . S
C1216 C1215 1.410 . S
C1216 C1217 1.392 . S
C1216 C1219 1.511 . S
C1217 C1213 1.376 . S
C1217 C1216 1.392 . S
C1217 H1229 0.929 . S
C1218 C1214 1.531 . S
C1218 H1230 0.960 . S
C1218 H1231 0.962 . S
C1218 H1232 0.960 . S
C1219 C1216 1.511 . S
C1219 H1233 0.961 . S
C1219 H1234 0.961 . S
C1219 H1235 0.961 . S
C1220 C1221 1.370 . S
C1220 C1222 1.363 . S
C1220 H1236 0.931 . S
C1221 C1220 1.370 . S
C1221 C1225 1.408 . S
C1222 C1220 1.363 . S
C1222 C1223 1.370 . S
C1222 C1226 1.524 . S
C1223 C1215 1.503 . S
C1223 C1222 1.370 . S
C1223 C1224 1.403 . S
C1224 C1223 1.403 . S
C1224 C1225 1.404 . S
C1224 C1227 1.539 . S
C1225 C1221 1.408 . S
C1225 C1224 1.404 . S
C1225 H1237 0.930 . S
C1226 C1222 1.524 . S
C1226 H1238 0.956 . S
C1226 H1239 0.961 . S
C1226 H1240 0.961 . S
C1227 C1224 1.539 . S
C1227 H1241 0.958 . S
C1227 H1242 0.961 . S
C1227 H1243 0.960 . S
H1228 C1212 0.931 . S
H1229 C1217 0.929 . S
H1230 C1218 0.960 . S
H1231 C1218 0.962 . S
H1232 C1218 0.960 . S
H1233 C1219 0.961 . S
H1234 C1219 0.961 . S
H1235 C1219 0.961 . S
H1236 C1220 0.931 . S
H1237 C1225 0.930 . S
H1238 C1226 0.956 . S
H1239 C1226 0.961 . S
H1240 C1226 0.961 . S
H1241 C1227 0.958 . S
H1242 C1227 0.961 . S
H1243 C1227 0.960 . S
C1244 C1245 1.391 . S
C1244 C1246 1.394 . S
C1244 H1260 0.931 . S
C1245 C1244 1.391 . S
C1245 C1249 1.376 . S
C1246 C1244 1.394 . S
C1246 C1247 1.369 . S
C1246 C1250 1.531 . S
C1247 C1246 1.369 . S
C1247 C1248 1.410 . S
C1247 C1255 1.503 . S
C1248 C1247 1.410 . S
C1248 C1249 1.392 . S
C1248 C1251 1.511 . S
C1249 C1245 1.376 . S
C1249 C1248 1.392 . S
C1249 H1261 0.929 . S
C1250 C1246 1.531 . S
C1250 H1262 0.960 . S
C1250 H1263 0.962 . S
C1250 H1264 0.960 . S
C1251 C1248 1.511 . S
C1251 H1265 0.961 . S
C1251 H1266 0.961 . S
C1251 H1267 0.961 . S
C1252 C1253 1.370 . S
C1252 C1254 1.363 . S
C1252 H1268 0.931 . S
C1253 C1252 1.370 . S
C1253 C1257 1.408 . S
C1254 C1252 1.363 . S
C1254 C1255 1.370 . S
C1254 C1258 1.524 . S
C1255 C1247 1.503 . S
C1255 C1254 1.370 . S
C1255 C1256 1.403 . S
C1256 C1255 1.403 . S
C1256 C1257 1.404 . S
C1256 C1259 1.539 . S
C1257 C1253 1.408 . S
C1257 C1256 1.404 . S
C1257 H1269 0.930 . S
C1258 C1254 1.524 . S
C1258 H1270 0.956 . S
C1258 H1271 0.961 . S
C1258 H1272 0.961 . S
C1259 C1256 1.539 . S
C1259 H1273 0.958 . S
C1259 H1274 0.961 . S
C1259 H1275 0.960 . S
H1260 C1244 0.931 . S
H1261 C1249 0.929 . S
H1262 C1250 0.960 . S
H1263 C1250 0.962 . S
H1264 C1250 0.960 . S
H1265 C1251 0.961 . S
H1266 C1251 0.961 . S
H1267 C1251 0.961 . S
H1268 C1252 0.931 . S
H1269 C1257 0.930 . S
H1270 C1258 0.956 . S
H1271 C1258 0.961 . S
H1272 C1258 0.961 . S
H1273 C1259 0.958 . S
H1274 C1259 0.961 . S
H1275 C1259 0.960 . S
C1276 C1277 1.391 . S
C1276 C1278 1.394 . S
C1276 H1292 0.931 . S
C1277 C1276 1.391 . S
C1277 C1281 1.376 . S
C1278 C1276 1.394 . S
C1278 C1279 1.369 . S
C1278 C1282 1.531 . S
C1279 C1278 1.369 . S
C1279 C1280 1.410 . S
C1279 C1287 1.503 . S
C1280 C1279 1.410 . S
C1280 C1281 1.392 . S
C1280 C1283 1.511 . S
C1281 C1277 1.376 . S
C1281 C1280 1.392 . S
C1281 H1293 0.929 . S
C1282 C1278 1.531 . S
C1282 H1294 0.960 . S
C1282 H1295 0.962 . S
C1282 H1296 0.960 . S
C1283 C1280 1.511 . S
C1283 H1297 0.961 . S
C1283 H1298 0.961 . S
C1283 H1299 0.961 . S
C1284 C1285 1.370 . S
C1284 C1286 1.363 . S
C1284 H1300 0.931 . S
C1285 C1284 1.370 . S
C1285 C1289 1.408 . S
C1286 C1284 1.363 . S
C1286 C1287 1.370 . S
C1286 C1290 1.524 . S
C1287 C1279 1.503 . S
C1287 C1286 1.370 . S
C1287 C1288 1.403 . S
C1288 C1287 1.403 . S
C1288 C1289 1.404 . S
C1288 C1291 1.539 . S
C1289 C1285 1.408 . S
C1289 C1288 1.404 . S
C1289 H1301 0.930 . S
C1290 C1286 1.524 . S
C1290 H1302 0.956 . S
C1290 H1303 0.961 . S
C1290 H1304 0.961 . S
C1291 C1288 1.539 . S
C1291 H1305 0.958 . S
C1291 H1306 0.961 . S
C1291 H1307 0.960 . S
H1292 C1276 0.931 . S
H1293 C1281 0.929 . S
H1294 C1282 0.960 . S
H1295 C1282 0.962 . S
H1296 C1282 0.960 . S
H1297 C1283 0.961 . S
H1298 C1283 0.961 . S
H1299 C1283 0.961 . S
H1300 C1284 0.931 . S
H1301 C1289 0.930 . S
H1302 C1290 0.956 . S
H1303 C1290 0.961 . S
H1304 C1290 0.961 . S
H1305 C1291 0.958 . S
H1306 C1291 0.961 . S
H1307 C1291 0.960 . S
C1308 C1309 1.391 . S
C1308 C1310 1.394 . S
C1308 H1324 0.931 . S
C1309 C1308 1.391 . S
C1309 C1313 1.376 . S
C1310 C1308 1.394 . S
C1310 C1311 1.369 . S
C1310 C1314 1.531 . S
C1311 C1310 1.369 . S
C1311 C1312 1.410 . S
C1311 C1319 1.503 . S
C1312 C1311 1.410 . S
C1312 C1313 1.392 . S
C1312 C1315 1.511 . S
C1313 C1309 1.376 . S
C1313 C1312 1.392 . S
C1313 H1325 0.929 . S
C1314 C1310 1.531 . S
C1314 H1326 0.960 . S
C1314 H1327 0.962 . S
C1314 H1328 0.960 . S
C1315 C1312 1.511 . S
C1315 H1329 0.961 . S
C1315 H1330 0.961 . S
C1315 H1331 0.961 . S
C1316 C1317 1.370 . S
C1316 C1318 1.363 . S
C1316 H1332 0.931 . S
C1317 C1316 1.370 . S
C1317 C1321 1.408 . S
C1318 C1316 1.363 . S
C1318 C1319 1.370 . S
C1318 C1322 1.524 . S
C1319 C1311 1.503 . S
C1319 C1318 1.370 . S
C1319 C1320 1.403 . S
C1320 C1319 1.403 . S
C1320 C1321 1.404 . S
C1320 C1323 1.539 . S
C1321 C1317 1.408 . S
C1321 C1320 1.404 . S
C1321 H1333 0.930 . S
C1322 C1318 1.524 . S
C1322 H1334 0.956 . S
C1322 H1335 0.961 . S
C1322 H1336 0.961 . S
C1323 C1320 1.539 . S
C1323 H1337 0.958 . S
C1323 H1338 0.961 . S
C1323 H1339 0.960 . S
H1324 C1308 0.931 . S
H1325 C1313 0.929 . S
H1326 C1314 0.960 . S
H1327 C1314 0.962 . S
H1328 C1314 0.960 . S
H1329 C1315 0.961 . S
H1330 C1315 0.961 . S
H1331 C1315 0.961 . S
H1332 C1316 0.931 . S
H1333 C1321 0.930 . S
H1334 C1322 0.956 . S
H1335 C1322 0.961 . S
H1336 C1322 0.961 . S
H1337 C1323 0.958 . S
H1338 C1323 0.961 . S
H1339 C1323 0.960 . S
C1340 C1341 1.391 . S
C1340 C1342 1.394 . S
C1340 H1356 0.931 . S
C1341 C1340 1.391 . S
C1341 C1345 1.376 . S
C1342 C1340 1.394 . S
C1342 C1343 1.369 . S
C1342 C1346 1.531 . S
C1343 C1342 1.369 . S
C1343 C1344 1.410 . S
C1343 C1351 1.503 . S
C1344 C1343 1.410 . S
C1344 C1345 1.392 . S
C1344 C1347 1.511 . S
C1345 C1341 1.376 . S
C1345 C1344 1.392 . S
C1345 H1357 0.929 . S
C1346 C1342 1.531 . S
C1346 H1358 0.960 . S
C1346 H1359 0.962 . S
C1346 H1360 0.960 . S
C1347 C1344 1.511 . S
C1347 H1361 0.961 . S
C1347 H1362 0.961 . S
C1347 H1363 0.961 . S
C1348 C1349 1.370 . S
C1348 C1350 1.363 . S
C1348 H1364 0.931 . S
C1349 C1348 1.370 . S
C1349 C1353 1.408 . S
C1350 C1348 1.363 . S
C1350 C1351 1.370 . S
C1350 C1354 1.524 . S
C1351 C1343 1.503 . S
C1351 C1350 1.370 . S
C1351 C1352 1.403 . S
C1352 C1351 1.403 . S
C1352 C1353 1.404 . S
C1352 C1355 1.539 . S
C1353 C1349 1.408 . S
C1353 C1352 1.404 . S
C1353 H1365 0.930 . S
C1354 C1350 1.524 . S
C1354 H1366 0.956 . S
C1354 H1367 0.961 . S
C1354 H1368 0.961 . S
C1355 C1352 1.539 . S
C1355 H1369 0.958 . S
C1355 H1370 0.961 . S
C1355 H1371 0.960 . S
H1356 C1340 0.931 . S
H1357 C1345 0.929 . S
H1358 C1346 0.960 . S
H1359 C1346 0.962 . S
H1360 C1346 0.960 . S
H1361 C1347 0.961 . S
H1362 C1347 0.961 . S
H1363 C1347 0.961 . S
H1364 C1348 0.931 . S
H1365 C1353 0.930 . S
H1366 C1354 0.956 . S
H1367 C1354 0.961 . S
H1368 C1354 0.961 . S
H1369 C1355 0.958 . S
H1370 C1355 0.961 . S
H1371 C1355 0.960 . S
C1372 C1373 1.391 . S
C1372 C1374 1.394 . S
C1372 H1388 0.931 . S
C1373 C1372 1.391 . S
C1373 C1377 1.376 . S
C1374 C1372 1.394 . S
C1374 C1375 1.369 . S
C1374 C1378 1.531 . S
C1375 C1374 1.369 . S
C1375 C1376 1.410 . S
C1375 C1383 1.503 . S
C1376 C1375 1.410 . S
C1376 C1377 1.392 . S
C1376 C1379 1.511 . S
C1377 C1373 1.376 . S
C1377 C1376 1.392 . S
C1377 H1389 0.929 . S
C1378 C1374 1.531 . S
C1378 H1390 0.960 . S
C1378 H1391 0.962 . S
C1378 H1392 0.960 . S
C1379 C1376 1.511 . S
C1379 H1393 0.961 . S
C1379 H1394 0.961 . S
C1379 H1395 0.961 . S
C1380 C1381 1.370 . S
C1380 C1382 1.363 . S
C1380 H1396 0.931 . S
C1381 C1380 1.370 . S
C1381 C1385 1.408 . S
C1382 C1380 1.363 . S
C1382 C1383 1.370 . S
C1382 C1386 1.524 . S
C1383 C1375 1.503 . S
C1383 C1382 1.370 . S
C1383 C1384 1.403 . S
C1384 C1383 1.403 . S
C1384 C1385 1.404 . S
C1384 C1387 1.539 . S
C1385 C1381 1.408 . S
C1385 C1384 1.404 . S
C1385 H1397 0.930 . S
C1386 C1382 1.524 . S
C1386 H1398 0.956 . S
C1386 H1399 0.961 . S
C1386 H1400 0.961 . S
C1387 C1384 1.539 . S
C1387 H1401 0.958 . S
C1387 H1402 0.961 . S
C1387 H1403 0.960 . S
H1388 C1372 0.931 . S
H1389 C1377 0.929 . S
H1390 C1378 0.960 . S
H1391 C1378 0.962 . S
H1392 C1378 0.960 . S
H1393 C1379 0.961 . S
H1394 C1379 0.961 . S
H1395 C1379 0.961 . S
H1396 C1380 0.931 . S
H1397 C1385 0.930 . S
H1398 C1386 0.956 . S
H1399 C1386 0.961 . S
H1400 C1386 0.961 . S
H1401 C1387 0.958 . S
H1402 C1387 0.961 . S
H1403 C1387 0.960 . S
C1404 C1405 1.391 . S
C1404 C1406 1.394 . S
C1404 H1420 0.931 . S
C1405 C1404 1.391 . S
C1405 C1409 1.376 . S
C1406 C1404 1.394 . S
C1406 C1407 1.369 . S
C1406 C1410 1.531 . S
C1407 C1406 1.369 . S
C1407 C1408 1.410 . S
C1407 C1415 1.503 . S
C1408 C1407 1.410 . S
C1408 C1409 1.392 . S
C1408 C1411 1.511 . S
C1409 C1405 1.376 . S
C1409 C1408 1.392 . S
C1409 H1421 0.929 . S
C1410 C1406 1.531 . S
C1410 H1422 0.960 . S
C1410 H1423 0.962 . S
C1410 H1424 0.960 . S
C1411 C1408 1.511 . S
C1411 H1425 0.961 . S
C1411 H1426 0.961 . S
C1411 H1427 0.961 . S
C1412 C1413 1.370 . S
C1412 C1414 1.363 . S
C1412 H1428 0.931 . S
C1413 C1412 1.370 . S
C1413 C1417 1.408 . S
C1414 C1412 1.363 . S
C1414 C1415 1.370 . S
C1414 C1418 1.524 . S
C1415 C1407 1.503 . S
C1415 C1414 1.370 . S
C1415 C1416 1.403 . S
C1416 C1415 1.403 . S
C1416 C1417 1.404 . S
C1416 C1419 1.539 . S
C1417 C1413 1.408 . S
C1417 C1416 1.404 . S
C1417 H1429 0.930 . S
C1418 C1414 1.524 . S
C1418 H1430 0.956 . S
C1418 H1431 0.961 . S
C1418 H1432 0.961 . S
C1419 C1416 1.539 . S
C1419 H1433 0.958 . S
C1419 H1434 0.961 . S
C1419 H1435 0.960 . S
H1420 C1404 0.931 . S
H1421 C1409 0.929 . S
H1422 C1410 0.960 . S
H1423 C1410 0.962 . S
H1424 C1410 0.960 . S
H1425 C1411 0.961 . S
H1426 C1411 0.961 . S
H1427 C1411 0.961 . S
H1428 C1412 0.931 . S
H1429 C1417 0.930 . S
H1430 C1418 0.956 . S
H1431 C1418 0.961 . S
H1432 C1418 0.961 . S
H1433 C1419 0.958 . S
H1434 C1419 0.961 . S
H1435 C1419 0.960 . S
C1436 C1437 1.391 . S
C1436 C1438 1.394 . S
C1436 H1452 0.931 . S
C1437 C1436 1.391 . S
C1437 C1441 1.376 . S
C1438 C1436 1.394 . S
C1438 C1439 1.369 . S
C1438 C1442 1.531 . S
C1439 C1438 1.369 . S
C1439 C1440 1.410 . S
C1439 C1447 1.503 . S
C1440 C1439 1.410 . S
C1440 C1441 1.392 . S
C1440 C1443 1.511 . S
C1441 C1437 1.376 . S
C1441 C1440 1.392 . S
C1441 H1453 0.929 . S
C1442 C1438 1.531 . S
C1442 H1454 0.960 . S
C1442 H1455 0.962 . S
C1442 H1456 0.960 . S
C1443 C1440 1.511 . S
C1443 H1457 0.961 . S
C1443 H1458 0.961 . S
C1443 H1459 0.961 . S
C1444 C1445 1.370 . S
C1444 C1446 1.363 . S
C1444 H1460 0.931 . S
C1445 C1444 1.370 . S
C1445 C1449 1.408 . S
C1446 C1444 1.363 . S
C1446 C1447 1.370 . S
C1446 C1450 1.524 . S
C1447 C1439 1.503 . S
C1447 C1446 1.370 . S
C1447 C1448 1.403 . S
C1448 C1447 1.403 . S
C1448 C1449 1.404 . S
C1448 C1451 1.539 . S
C1449 C1445 1.408 . S
C1449 C1448 1.404 . S
C1449 H1461 0.930 . S
C1450 C1446 1.524 . S
C1450 H1462 0.956 . S
C1450 H1463 0.961 . S
C1450 H1464 0.961 . S
C1451 C1448 1.539 . S
C1451 H1465 0.958 . S
C1451 H1466 0.961 . S
C1451 H1467 0.960 . S
H1452 C1436 0.931 . S
H1453 C1441 0.929 . S
H1454 C1442 0.960 . S
H1455 C1442 0.962 . S
H1456 C1442 0.960 . S
H1457 C1443 0.961 . S
H1458 C1443 0.961 . S
H1459 C1443 0.961 . S
H1460 C1444 0.931 . S
H1461 C1449 0.930 . S
H1462 C1450 0.956 . S
H1463 C1450 0.961 . S
H1464 C1450 0.961 . S
H1465 C1451 0.958 . S
H1466 C1451 0.961 . S
H1467 C1451 0.960 . S
C1468 C1469 1.391 . S
C1468 C1470 1.394 . S
C1468 H1484 0.931 . S
C1469 C1468 1.391 . S
C1469 C1473 1.376 . S
C1470 C1468 1.394 . S
C1470 C1471 1.369 . S
C1470 C1474 1.531 . S
C1471 C1470 1.369 . S
C1471 C1472 1.410 . S
C1471 C1479 1.503 . S
C1472 C1471 1.410 . S
C1472 C1473 1.392 . S
C1472 C1475 1.511 . S
C1473 C1469 1.376 . S
C1473 C1472 1.392 . S
C1473 H1485 0.929 . S
C1474 C1470 1.531 . S
C1474 H1486 0.960 . S
C1474 H1487 0.962 . S
C1474 H1488 0.960 . S
C1475 C1472 1.511 . S
C1475 H1489 0.961 . S
C1475 H1490 0.961 . S
C1475 H1491 0.961 . S
C1476 C1477 1.370 . S
C1476 C1478 1.363 . S
C1476 H1492 0.931 . S
C1477 C1476 1.370 . S
C1477 C1481 1.408 . S
C1478 C1476 1.363 . S
C1478 C1479 1.370 . S
C1478 C1482 1.524 . S
C1479 C1471 1.503 . S
C1479 C1478 1.370 . S
C1479 C1480 1.403 . S
C1480 C1479 1.403 . S
C1480 C1481 1.404 . S
C1480 C1483 1.539 . S
C1481 C1477 1.408 . S
C1481 C1480 1.404 . S
C1481 H1493 0.930 . S
C1482 C1478 1.524 . S
C1482 H1494 0.956 . S
C1482 H1495 0.961 . S
C1482 H1496 0.961 . S
C1483 C1480 1.539 . S
C1483 H1497 0.958 . S
C1483 H1498 0.961 . S
C1483 H1499 0.960 . S
H1484 C1468 0.931 . S
H1485 C1473 0.929 . S
H1486 C1474 0.960 . S
H1487 C1474 0.962 . S
H1488 C1474 0.960 . S
H1489 C1475 0.961 . S
H1490 C1475 0.961 . S
H1491 C1475 0.961 . S
H1492 C1476 0.931 . S
H1493 C1481 0.930 . S
H1494 C1482 0.956 . S
H1495 C1482 0.961 . S
H1496 C1482 0.961 . S
H1497 C1483 0.958 . S
H1498 C1483 0.961 . S
H1499 C1483 0.960 . S
C1500 C1501 1.391 . S
C1500 C1502 1.394 . S
C1500 H1516 0.931 . S
C1501 C1500 1.391 . S
C1501 C1505 1.376 . S
C1502 C1500 1.394 . S
C1502 C1503 1.369 . S
C1502 C1506 1.531 . S
C1503 C1502 1.369 . S
C1503 C1504 1.410 . S
C1503 C1511 1.503 . S
C1504 C1503 1.410 . S
C1504 C1505 1.392 . S
C1504 C1507 1.511 . S
C1505 C1501 1.376 . S
C1505 C1504 1.392 . S
C1505 H1517 0.929 . S
C1506 C1502 1.531 . S
C1506 H1518 0.960 . S
C1506 H1519 0.962 . S
C1506 H1520 0.960 . S
C1507 C1504 1.511 . S
C1507 H1521 0.961 . S
C1507 H1522 0.961 . S
C1507 H1523 0.961 . S
C1508 C1509 1.370 . S
C1508 C1510 1.363 . S
C1508 H1524 0.931 . S
C1509 C1508 1.370 . S
C1509 C1513 1.408 . S
C1510 C1508 1.363 . S
C1510 C1511 1.370 . S
C1510 C1514 1.524 . S
C1511 C1503 1.503 . S
C1511 C1510 1.370 . S
C1511 C1512 1.403 . S
C1512 C1511 1.403 . S
C1512 C1513 1.404 . S
C1512 C1515 1.539 . S
C1513 C1509 1.408 . S
C1513 C1512 1.404 . S
C1513 H1525 0.930 . S
C1514 C1510 1.524 . S
C1514 H1526 0.956 . S
C1514 H1527 0.961 . S
C1514 H1528 0.961 . S
C1515 C1512 1.539 . S
C1515 H1529 0.958 . S
C1515 H1530 0.961 . S
C1515 H1531 0.960 . S
H1516 C1500 0.931 . S
H1517 C1505 0.929 . S
H1518 C1506 0.960 . S
H1519 C1506 0.962 . S
H1520 C1506 0.960 . S
H1521 C1507 0.961 . S
H1522 C1507 0.961 . S
H1523 C1507 0.961 . S
H1524 C1508 0.931 . S
H1525 C1513 0.930 . S
H1526 C1514 0.956 . S
H1527 C1514 0.961 . S
H1528 C1514 0.961 . S
H1529 C1515 0.958 . S
H1530 C1515 0.961 . S
H1531 C1515 0.960 . S
C1532 C1533 1.391 . S
C1532 C1534 1.394 . S
C1532 H1548 0.931 . S
C1533 C1532 1.391 . S
C1533 C1537 1.376 . S
C1534 C1532 1.394 . S
C1534 C1535 1.369 . S
C1534 C1538 1.531 . S
C1535 C1534 1.369 . S
C1535 C1536 1.410 . S
C1535 C1543 1.503 . S
C1536 C1535 1.410 . S
C1536 C1537 1.392 . S
C1536 C1539 1.511 . S
C1537 C1533 1.376 . S
C1537 C1536 1.392 . S
C1537 H1549 0.929 . S
C1538 C1534 1.531 . S
C1538 H1550 0.960 . S
C1538 H1551 0.962 . S
C1538 H1552 0.960 . S
C1539 C1536 1.511 . S
C1539 H1553 0.961 . S
C1539 H1554 0.961 . S
C1539 H1555 0.961 . S
C1540 C1541 1.370 . S
C1540 C1542 1.363 . S
C1540 H1556 0.931 . S
C1541 C1540 1.370 . S
C1541 C1545 1.408 . S
C1542 C1540 1.363 . S
C1542 C1543 1.370 . S
C1542 C1546 1.524 . S
C1543 C1535 1.503 . S
C1543 C1542 1.370 . S
C1543 C1544 1.403 . S
C1544 C1543 1.403 . S
C1544 C1545 1.404 . S
C1544 C1547 1.539 . S
C1545 C1541 1.408 . S
C1545 C1544 1.404 . S
C1545 H1557 0.930 . S
C1546 C1542 1.524 . S
C1546 H1558 0.956 . S
C1546 H1559 0.961 . S
C1546 H1560 0.961 . S
C1547 C1544 1.539 . S
C1547 H1561 0.958 . S
C1547 H1562 0.961 . S
C1547 H1563 0.960 . S
H1548 C1532 0.931 . S
H1549 C1537 0.929 . S
H1550 C1538 0.960 . S
H1551 C1538 0.962 . S
H1552 C1538 0.960 . S
H1553 C1539 0.961 . S
H1554 C1539 0.961 . S
H1555 C1539 0.961 . S
H1556 C1540 0.931 . S
H1557 C1545 0.930 . S
H1558 C1546 0.956 . S
H1559 C1546 0.961 . S
H1560 C1546 0.961 . S
H1561 C1547 0.958 . S
H1562 C1547 0.961 . S
H1563 C1547 0.960 . S
C1564 C1565 1.391 . S
C1564 C1566 1.394 . S
C1564 H1580 0.931 . S
C1565 C1564 1.391 . S
C1565 C1569 1.376 . S
C1566 C1564 1.394 . S
C1566 C1567 1.369 . S
C1566 C1570 1.531 . S
C1567 C1566 1.369 . S
C1567 C1568 1.410 . S
C1567 C1575 1.503 . S
C1568 C1567 1.410 . S
C1568 C1569 1.392 . S
C1568 C1571 1.511 . S
C1569 C1565 1.376 . S
C1569 C1568 1.392 . S
C1569 H1581 0.929 . S
C1570 C1566 1.531 . S
C1570 H1582 0.960 . S
C1570 H1583 0.962 . S
C1570 H1584 0.960 . S
C1571 C1568 1.511 . S
C1571 H1585 0.961 . S
C1571 H1586 0.961 . S
C1571 H1587 0.961 . S
C1572 C1573 1.370 . S
C1572 C1574 1.363 . S
C1572 H1588 0.931 . S
C1573 C1572 1.370 . S
C1573 C1577 1.408 . S
C1574 C1572 1.363 . S
C1574 C1575 1.370 . S
C1574 C1578 1.524 . S
C1575 C1567 1.503 . S
C1575 C1574 1.370 . S
C1575 C1576 1.403 . S
C1576 C1575 1.403 . S
C1576 C1577 1.404 . S
C1576 C1579 1.539 . S
C1577 C1573 1.408 . S
C1577 C1576 1.404 . S
C1577 H1589 0.930 . S
C1578 C1574 1.524 . S
C1578 H1590 0.956 . S
C1578 H1591 0.961 . S
C1578 H1592 0.961 . S
C1579 C1576 1.539 . S
C1579 H1593 0.958 . S
C1579 H1594 0.961 . S
C1579 H1595 0.960 . S
H1580 C1564 0.931 . S
H1581 C1569 0.929 . S
H1582 C1570 0.960 . S
H1583 C1570 0.962 . S
H1584 C1570 0.960 . S
H1585 C1571 0.961 . S
H1586 C1571 0.961 . S
H1587 C1571 0.961 . S
H1588 C1572 0.931 . S
H1589 C1577 0.930 . S
H1590 C1578 0.956 . S
H1591 C1578 0.961 . S
H1592 C1578 0.961 . S
H1593 C1579 0.958 . S
H1594 C1579 0.961 . S
H1595 C1579 0.960 . S
C1596 C1597 1.391 . S
C1596 C1598 1.394 . S
C1596 H1612 0.931 . S
C1597 C1596 1.391 . S
C1597 C1601 1.376 . S
C1598 C1596 1.394 . S
C1598 C1599 1.369 . S
C1598 C1602 1.531 . S
C1599 C1598 1.369 . S
C1599 C1600 1.410 . S
C1599 C1607 1.503 . S
C1600 C1599 1.410 . S
C1600 C1601 1.392 . S
C1600 C1603 1.511 . S
C1601 C1597 1.376 . S
C1601 C1600 1.392 . S
C1601 H1613 0.929 . S
C1602 C1598 1.531 . S
C1602 H1614 0.960 . S
C1602 H1615 0.962 . S
C1602 H1616 0.960 . S
C1603 C1600 1.511 . S
C1603 H1617 0.961 . S
C1603 H1618 0.961 . S
C1603 H1619 0.961 . S
C1604 C1605 1.370 . S
C1604 C1606 1.363 . S
C1604 H1620 0.931 . S
C1605 C1604 1.370 . S
C1605 C1609 1.408 . S
C1606 C1604 1.363 . S
C1606 C1607 1.370 . S
C1606 C1610 1.524 . S
C1607 C1599 1.503 . S
C1607 C1606 1.370 . S
C1607 C1608 1.403 . S
C1608 C1607 1.403 . S
C1608 C1609 1.404 . S
C1608 C1611 1.539 . S
C1609 C1605 1.408 . S
C1609 C1608 1.404 . S
C1609 H1621 0.930 . S
C1610 C1606 1.524 . S
C1610 H1622 0.956 . S
C1610 H1623 0.961 . S
C1610 H1624 0.961 . S
C1611 C1608 1.539 . S
C1611 H1625 0.958 . S
C1611 H1626 0.961 . S
C1611 H1627 0.960 . S
H1612 C1596 0.931 . S
H1613 C1601 0.929 . S
H1614 C1602 0.960 . S
H1615 C1602 0.962 . S
H1616 C1602 0.960 . S
H1617 C1603 0.961 . S
H1618 C1603 0.961 . S
H1619 C1603 0.961 . S
H1620 C1604 0.931 . S
H1621 C1609 0.930 . S
H1622 C1610 0.956 . S
H1623 C1610 0.961 . S
H1624 C1610 0.961 . S
H1625 C1611 0.958 . S
H1626 C1611 0.961 . S
H1627 C1611 0.960 . S
C1628 C1629 1.391 . S
C1628 C1630 1.394 . S
C1628 H1644 0.931 . S
C1629 C1628 1.391 . S
C1629 C1633 1.376 . S
C1630 C1628 1.394 . S
C1630 C1631 1.369 . S
C1630 C1634 1.531 . S
C1631 C1630 1.369 . S
C1631 C1632 1.410 . S
C1631 C1639 1.503 . S
C1632 C1631 1.410 . S
C1632 C1633 1.392 . S
C1632 C1635 1.511 . S
C1633 C1629 1.376 . S
C1633 C1632 1.392 . S
C1633 H1645 0.929 . S
C1634 C1630 1.531 . S
C1634 H1646 0.960 . S
C1634 H1647 0.962 . S
C1634 H1648 0.960 . S
C1635 C1632 1.511 . S
C1635 H1649 0.961 . S
C1635 H1650 0.961 . S
C1635 H1651 0.961 . S
C1636 C1637 1.370 . S
C1636 C1638 1.363 . S
C1636 H1652 0.931 . S
C1637 C1636 1.370 . S
C1637 C1641 1.408 . S
C1638 C1636 1.363 . S
C1638 C1639 1.370 . S
C1638 C1642 1.524 . S
C1639 C1631 1.503 . S
C1639 C1638 1.370 . S
C1639 C1640 1.403 . S
C1640 C1639 1.403 . S
C1640 C1641 1.404 . S
C1640 C1643 1.539 . S
C1641 C1637 1.408 . S
C1641 C1640 1.404 . S
C1641 H1653 0.930 . S
C1642 C1638 1.524 . S
C1642 H1654 0.956 . S
C1642 H1655 0.961 . S
C1642 H1656 0.961 . S
C1643 C1640 1.539 . S
C1643 H1657 0.958 . S
C1643 H1658 0.961 . S
C1643 H1659 0.960 . S
H1644 C1628 0.931 . S
H1645 C1633 0.929 . S
H1646 C1634 0.960 . S
H1647 C1634 0.962 . S
H1648 C1634 0.960 . S
H1649 C1635 0.961 . S
H1650 C1635 0.961 . S
H1651 C1635 0.961 . S
H1652 C1636 0.931 . S
H1653 C1641 0.930 . S
H1654 C1642 0.956 . S
H1655 C1642 0.961 . S
H1656 C1642 0.961 . S
H1657 C1643 0.958 . S
H1658 C1643 0.961 . S
H1659 C1643 0.960 . S
C1660 C1661 1.391 . S
C1660 C1662 1.394 . S
C1660 H1676 0.931 . S
C1661 C1660 1.391 . S
C1661 C1665 1.376 . S
C1662 C1660 1.394 . S
C1662 C1663 1.369 . S
C1662 C1666 1.531 . S
C1663 C1662 1.369 . S
C1663 C1664 1.410 . S
C1663 C1671 1.503 . S
C1664 C1663 1.410 . S
C1664 C1665 1.392 . S
C1664 C1667 1.511 . S
C1665 C1661 1.376 . S
C1665 C1664 1.392 . S
C1665 H1677 0.929 . S
C1666 C1662 1.531 . S
C1666 H1678 0.960 . S
C1666 H1679 0.962 . S
C1666 H1680 0.960 . S
C1667 C1664 1.511 . S
C1667 H1681 0.961 . S
C1667 H1682 0.961 . S
C1667 H1683 0.961 . S
C1668 C1669 1.370 . S
C1668 C1670 1.363 . S
C1668 H1684 0.931 . S
C1669 C1668 1.370 . S
C1669 C1673 1.408 . S
C1670 C1668 1.363 . S
C1670 C1671 1.370 . S
C1670 C1674 1.524 . S
C1671 C1663 1.503 . S
C1671 C1670 1.370 . S
C1671 C1672 1.403 . S
C1672 C1671 1.403 . S
C1672 C1673 1.404 . S
C1672 C1675 1.539 . S
C1673 C1669 1.408 . S
C1673 C1672 1.404 . S
C1673 H1685 0.930 . S
C1674 C1670 1.524 . S
C1674 H1686 0.956 . S
C1674 H1687 0.961 . S
C1674 H1688 0.961 . S
C1675 C1672 1.539 . S
C1675 H1689 0.958 . S
C1675 H1690 0.961 . S
C1675 H1691 0.960 . S
H1676 C1660 0.931 . S
H1677 C1665 0.929 . S
H1678 C1666 0.960 . S
H1679 C1666 0.962 . S
H1680 C1666 0.960 . S
H1681 C1667 0.961 . S
H1682 C1667 0.961 . S
H1683 C1667 0.961 . S
H1684 C1668 0.931 . S
H1685 C1673 0.930 . S
H1686 C1674 0.956 . S
H1687 C1674 0.961 . S
H1688 C1674 0.961 . S
H1689 C1675 0.958 . S
H1690 C1675 0.961 . S
H1691 C1675 0.960 . S
C349 C8 0.896 . S
C357 C211 0.765 . S
C381 C37 0.745 . S
C389 C240 0.835 . S
C413 C269 0.790 . S
C421 C66 0.754 . S
C445 C95 0.769 . S
C453 C298 0.834 . S
C477 C124 0.712 . S
C485 C327 0.783 . S
C509 C182 0.885 . S
C517 C153 0.789 . S
C541 C295 1.499 . S
C549 C92 1.543 . S
C573 C121 1.499 . S
C581 C324 1.543 . S
C605 C150 1.544 . S
C613 C179 1.523 . S
C637 C5 1.539 . S
C645 C208 1.524 . S
C669 C237 1.541 . S
C677 C34 1.527 . S
C701 C266 1.499 . S
C709 C63 1.543 . S
C733 C108 0.507 1_554 S
C741 C21 0.403 . S
C765 C50 0.541 . S
C773 C137 0.387 . S
C797 C166 0.448 . S
C805 C79 0.434 . S
C829 C195 0.511 . S
C837 C282 0.403 . S
C861 C224 0.493 . S
C869 C311 0.412 . S
C893 C340 0.450 . S
C901 C253 0.433 . S
C925 C10 2.674 . S
C933 C300 2.711 . S
C957 C39 2.686 . S
C965 C329 2.712 . S
C989 C68 2.713 . S
C997 C184 2.691 . S
C1021 C213 2.679 . S
C1029 C97 2.712 . S
C1053 C242 2.677 . S
C1061 C126 2.712 . S
C1085 C155 2.687 . S
C1093 C271 2.711 . S
C1117 C206 0.717 . S
C1125 C90 0.610 . S
C1149 C235 0.672 . S
C1157 C119 0.631 . S
C1181 C264 0.737 . S
C1189 C148 0.599 . S
C1213 C293 0.647 . S
C1221 C3 0.641 . S
C1245 C322 0.521 . S
C1253 C32 0.688 . S
C1277 C61 0.658 . S
C1285 C177 0.637 . S
C1309 C15 2.397 . S
C1317 C247 2.404 . S
C1341 C276 2.393 . S
C1349 C44 2.402 . S
C1373 C305 2.397 . S
C1381 C73 2.405 . S
C1405 C102 2.401 . S
C1413 C334 2.403 . S
C1437 C189 2.394 . S
C1445 C131 2.402 . S
C1469 C160 2.401 . S
C1477 C218 2.405 . S
C1501 C332 2.996 . S
C1509 C100 2.998 1_556 S
C1533 C187 3.015 . S
C1541 C129 3.012 1_556 S
C1565 C216 3.016 . S
C1573 C158 3.005 1_556 S
C1597 C245 3.002 . S
C1605 C13 3.013 1_556 S
C1629 C274 3.002 . S
C1637 C42 3.013 1_556 S
C1661 C303 2.998 . S
C1669 C71 2.999 1_556 S
