# Generated by pormake.
# Topology upa, (4)-cn, num edge types: 1
# Building blocks:
#     Node 0, Type 0, BuildingBlock: UXUYUI_clean_sbu_0, # of connection points: 4
#     Node 1, Type 0, BuildingBlock: UXUYUI_clean_sbu_0, # of connection points: 4
#     Node 2, Type 0, BuildingBlock: UXUYUI_clean_sbu_0, # of connection points: 4
#     Node 3, Type 0, BuildingBlock: UXUYUI_clean_sbu_0, # of connection points: 4
#     Node 4, Type 0, BuildingBlock: UXUYUI_clean_sbu_0, # of connection points: 4
#     Node 5, Type 0, BuildingBlock: UXUYUI_clean_sbu_0, # of connection points: 4
#     Node 6, Type 0, BuildingBlock: UXUYUI_clean_sbu_0, # of connection points: 4
#     Node 7, Type 0, BuildingBlock: UXUYUI_clean_sbu_0, # of connection points: 4
#     Edge 8, Type (0, 0), BuildingBlock: UVAHIK_clean_linker_0, # of connection points: 2
#     Edge 9, Type (0, 0), BuildingBlock: UVAHIK_clean_linker_0, # of connection points: 2
#     Edge 10, Type (0, 0), BuildingBlock: UVAHIK_clean_linker_0, # of connection points: 2
#     Edge 11, Type (0, 0), BuildingBlock: UVAHIK_clean_linker_0, # of connection points: 2
#     Edge 12, Type (0, 0), BuildingBlock: UVAHIK_clean_linker_0, # of connection points: 2
#     Edge 13, Type (0, 0), BuildingBlock: UVAHIK_clean_linker_0, # of connection points: 2
#     Edge 14, Type (0, 0), BuildingBlock: UVAHIK_clean_linker_0, # of connection points: 2
#     Edge 15, Type (0, 0), BuildingBlock: UVAHIK_clean_linker_0, # of connection points: 2
#     Edge 16, Type (0, 0), BuildingBlock: UVAHIK_clean_linker_0, # of connection points: 2
#     Edge 17, Type (0, 0), BuildingBlock: UVAHIK_clean_linker_0, # of connection points: 2
#     Edge 18, Type (0, 0), BuildingBlock: UVAHIK_clean_linker_0, # of connection points: 2
#     Edge 19, Type (0, 0), BuildingBlock: UVAHIK_clean_linker_0, # of connection points: 2
#     Edge 20, Type (0, 0), BuildingBlock: UVAHIK_clean_linker_0, # of connection points: 2
#     Edge 21, Type (0, 0), BuildingBlock: UVAHIK_clean_linker_0, # of connection points: 2
#     Edge 22, Type (0, 0), BuildingBlock: UVAHIK_clean_linker_0, # of connection points: 2
#     Edge 23, Type (0, 0), BuildingBlock: UVAHIK_clean_linker_0, # of connection points: 2
# Relax obj value: 0.344
# Max RMSD: 0.248
# Mean RMSD: 0.248
data_MOF--net-upa--node1-UXUYUI_clean_sbu_0--edge1-UVAHIK_clean_linker_0
_symmetry_space_group_name_H-M    P1
_symmetry_Int_Tables_number       1
_symmetry_cell_setting            triclinic
loop_
_symmetry_equiv_pos_as_xyz
'x, y, z'
_cell_length_a     46.060903
_cell_length_b     45.776749
_cell_length_c     75.783697
_cell_angle_alpha  89.994709
_cell_angle_beta   89.997607
_cell_angle_gamma 89.995936
loop_
_atom_site_label
_atom_site_type_symbol
_atom_site_fract_x
_atom_site_fract_y
_atom_site_fract_z
_atom_type_partial_charge
Li0 Li 0.13799 0.24081 0.32485 0.0
Li1 Li 0.17344 0.22708 0.34631 0.0
Li2 Li 0.18729 0.23091 0.31412 0.0
Li3 Li 0.15493 0.19155 0.32592 0.0
C4 C 0.16653 0.29074 0.32807 0.0
N5 N 0.15013 0.34808 0.3227 0.0
C6 C 0.14865 0.3048 0.3403 0.0
C7 C 0.17626 0.30584 0.31317 0.0
C8 C 0.14051 0.33379 0.33732 0.0
C9 C 0.1677 0.33484 0.31069 0.0
C10 C 0.12412 0.21461 0.36137 0.0
C11 C 0.1234 0.19609 0.3912 0.0
N12 N 0.10668 0.21913 0.39619 0.0
C13 C 0.10703 0.23819 0.36685 0.0
C14 C 0.13243 0.19341 0.37367 0.0
C15 C 0.09837 0.24003 0.38448 0.0
C16 C 0.0782 0.24442 0.32443 0.0
N17 N 0.10182 0.26007 0.31927 0.0
C18 C 0.07155 0.29191 0.30221 0.0
C19 C 0.09897 0.28368 0.30847 0.0
C20 C 0.04692 0.27565 0.30711 0.0
C21 C 0.05052 0.25201 0.31866 0.0
H22 H 0.08097 0.22489 0.33225 0.0
H23 H 0.11799 0.29505 0.30381 0.0
C24 C 0.21189 0.2152 0.37417 0.0
N25 N 0.18898 0.23225 0.36955 0.0
C26 C 0.22241 0.21545 0.39143 0.0
C27 C 0.18638 0.25181 0.39878 0.0
C28 C 0.17684 0.25115 0.38127 0.0
C29 C 0.20913 0.23332 0.40417 0.0
H30 H 0.22179 0.20101 0.36451 0.0
H31 H 0.15908 0.265 0.37721 0.0
C32 C 0.13273 0.22377 0.29132 0.0
N33 N 0.0946 0.24106 0.26521 0.0
C34 C 0.10599 0.20967 0.28942 0.0
C35 C 0.14021 0.24648 0.27987 0.0
C36 C 0.08697 0.21882 0.27617 0.0
C37 C 0.12061 0.25491 0.26675 0.0
C38 C 0.20554 0.17085 0.33027 0.0
C39 C 0.2182 0.16101 0.3146 0.0
C40 C 0.20119 0.15129 0.34418 0.0
C41 C 0.22627 0.13169 0.3131 0.0
C42 C 0.20953 0.12214 0.34217 0.0
N43 N 0.22178 0.11302 0.3268 0.0
C44 C 0.24203 0.25271 0.30512 0.0
C45 C 0.21914 0.22581 0.28229 0.0
C46 C 0.26777 0.25407 0.29543 0.0
N47 N 0.21864 0.23827 0.29857 0.0
C48 C 0.2445 0.22651 0.27217 0.0
C49 C 0.26953 0.24013 0.27892 0.0
H50 H 0.24102 0.26213 0.3182 0.0
H51 H 0.20038 0.21391 0.2776 0.0
C52 C 0.12912 0.13727 0.33448 0.0
N53 N 0.14205 0.15293 0.32145 0.0
C54 C 0.11419 0.11163 0.33047 0.0
C55 C 0.12696 0.11825 0.29978 0.0
C56 C 0.14204 0.14354 0.30443 0.0
C57 C 0.11213 0.10246 0.31284 0.0
H58 H 0.129 0.14547 0.34781 0.0
H59 H 0.15231 0.15664 0.29432 0.0
O60 O 0.17488 0.26246 0.33079 0.0
O61 O 0.13288 0.2124 0.34413 0.0
O62 O 0.15127 0.21574 0.30455 0.0
O63 O 0.19667 0.19928 0.33179 0.0
H64 H 0.14098 0.2934 0.3519 0.0
H65 H 0.19016 0.29525 0.3036 0.0
H66 H 0.12655 0.34492 0.34662 0.0
H67 H 0.17497 0.34679 0.2992 0.0
H68 H 0.12985 0.17994 0.40085 0.0
H69 H 0.10085 0.25518 0.35769 0.0
H70 H 0.1462 0.1754 0.36986 0.0
H71 H 0.08521 0.25819 0.38888 0.0
H72 H 0.06974 0.31018 0.2932 0.0
H73 H 0.03233 0.23835 0.3224 0.0
H74 H 0.24059 0.20151 0.39476 0.0
H75 H 0.17533 0.2659 0.40807 0.0
H76 H 0.09981 0.19219 0.29827 0.0
H77 H 0.16073 0.25774 0.28127 0.0
H78 H 0.06607 0.20833 0.27465 0.0
H79 H 0.12601 0.27259 0.25786 0.0
H80 H 0.22158 0.17575 0.30367 0.0
H81 H 0.19116 0.15843 0.35634 0.0
H82 H 0.23601 0.12377 0.30103 0.0
H83 H 0.20615 0.10674 0.3528 0.0
H84 H 0.28634 0.26523 0.30103 0.0
H85 H 0.24491 0.21517 0.25964 0.0
H86 H 0.1027 0.10026 0.34088 0.0
H87 H 0.12589 0.11176 0.28605 0.0
Li88 Li 0.26777 0.6905 0.82095 0.0
Li89 Li 0.26936 0.6731 0.85071 0.0
Li90 Li 0.30601 0.65749 0.8297 0.0
Li91 Li 0.25691 0.63932 0.82717 0.0
C92 C 0.31978 0.71563 0.83196 0.0
N93 N 0.36138 0.75292 0.81842 0.0
C94 C 0.33261 0.73675 0.84276 0.0
C95 C 0.32807 0.71355 0.81426 0.0
C96 C 0.35362 0.75538 0.83567 0.0
C97 C 0.34915 0.73258 0.80767 0.0
C98 C 0.21566 0.69628 0.83933 0.0
C99 C 0.16742 0.71677 0.83941 0.0
N100 N 0.17765 0.74068 0.84806 0.0
C101 C 0.22568 0.72102 0.84825 0.0
C102 C 0.1863 0.69408 0.83489 0.0
C103 C 0.20613 0.74325 0.85253 0.0
C104 C 0.25321 0.72202 0.78948 0.0
N105 N 0.25988 0.72422 0.80691 0.0
C106 C 0.26113 0.77628 0.80497 0.0
C107 C 0.26359 0.75066 0.81474 0.0
C108 C 0.25479 0.77483 0.78686 0.0
C109 C 0.25058 0.74723 0.77912 0.0
H110 H 0.25049 0.70072 0.78356 0.0
H111 H 0.26943 0.7519 0.82852 0.0
C112 C 0.28973 0.69306 0.88269 0.0
N113 N 0.26527 0.68244 0.87505 0.0
C114 C 0.29028 0.69926 0.90067 0.0
C115 C 0.24034 0.68338 0.90272 0.0
C116 C 0.24065 0.67784 0.88455 0.0
C117 C 0.26556 0.69394 0.91106 0.0
H118 H 0.30901 0.69632 0.8748 0.0
H119 H 0.22147 0.66934 0.87812 0.0
C120 C 0.28945 0.63355 0.79673 0.0
N121 N 0.30386 0.58861 0.77399 0.0
C122 C 0.3018 0.60782 0.80325 0.0
C123 C 0.28444 0.63639 0.77863 0.0
C124 C 0.30894 0.58537 0.79155 0.0
C125 C 0.29187 0.61344 0.76734 0.0
C126 C 0.27389 0.61576 0.86 0.0
C127 C 0.2928 0.59953 0.87058 0.0
C128 C 0.24396 0.61408 0.86294 0.0
C129 C 0.28145 0.58191 0.88396 0.0
C130 C 0.23346 0.59621 0.87645 0.0
N131 N 0.25226 0.58063 0.8866 0.0
C132 C 0.35778 0.636 0.84278 0.0
C133 C 0.35927 0.64392 0.81187 0.0
C134 C 0.384 0.62087 0.84216 0.0
N135 N 0.34546 0.64605 0.82768 0.0
C136 C 0.38547 0.62872 0.81061 0.0
C137 C 0.39752 0.61593 0.8258 0.0
H138 H 0.34642 0.63842 0.85517 0.0
H139 H 0.34902 0.65223 0.80006 0.0
C140 C 0.21457 0.60572 0.80801 0.0
N141 N 0.23691 0.60465 0.81973 0.0
C142 C 0.20418 0.57995 0.80024 0.0
C143 C 0.23942 0.55271 0.81715 0.0
C144 C 0.24898 0.57876 0.82456 0.0
C145 C 0.2171 0.55298 0.80453 0.0
H146 H 0.20572 0.62663 0.80411 0.0
H147 H 0.26744 0.57832 0.83331 0.0
O148 O 0.29895 0.69749 0.83876 0.0
O149 O 0.23428 0.67415 0.83498 0.0
O150 O 0.28169 0.65566 0.80796 0.0
O151 O 0.28472 0.63335 0.84696 0.0
H152 H 0.32631 0.73882 0.85646 0.0
H153 H 0.31825 0.6976 0.80562 0.0
H154 H 0.36371 0.77183 0.84388 0.0
H155 H 0.35572 0.73121 0.79399 0.0
H156 H 0.14464 0.71537 0.83604 0.0
H157 H 0.24831 0.72313 0.85179 0.0
H158 H 0.17821 0.67502 0.828 0.0
H159 H 0.21362 0.76254 0.8594 0.0
H160 H 0.26513 0.79698 0.81144 0.0
H161 H 0.24546 0.74514 0.76524 0.0
H162 H 0.31002 0.70799 0.90636 0.0
H163 H 0.22085 0.67867 0.91018 0.0
H164 H 0.30581 0.60515 0.81721 0.0
H165 H 0.27483 0.65609 0.77333 0.0
H166 H 0.31848 0.56535 0.79645 0.0
H167 H 0.28808 0.61535 0.7533 0.0
H168 H 0.31601 0.60049 0.86848 0.0
H169 H 0.22896 0.62649 0.85492 0.0
H170 H 0.29584 0.56923 0.89225 0.0
H171 H 0.21037 0.59476 0.87888 0.0
H172 H 0.39292 0.61202 0.85425 0.0
H173 H 0.39508 0.62538 0.79773 0.0
H174 H 0.18683 0.58124 0.79063 0.0
H175 H 0.25074 0.53276 0.82055 0.0
Li176 Li 0.86357 0.7579 0.33104 0.0
Li177 Li 0.82759 0.76996 0.3524 0.0
Li178 Li 0.81414 0.76648 0.32017 0.0
Li179 Li 0.84487 0.80669 0.3325 0.0
C180 C 0.8366 0.70699 0.33358 0.0
N181 N 0.85485 0.65038 0.32763 0.0
C182 C 0.8552 0.69329 0.34556 0.0
C183 C 0.82711 0.69189 0.31863 0.0
C184 C 0.86426 0.66467 0.34229 0.0
C185 C 0.8366 0.66326 0.31585 0.0
C186 C 0.87615 0.78473 0.36779 0.0
C187 C 0.87538 0.80391 0.39746 0.0
N188 N 0.8928 0.78163 0.40281 0.0
C189 C 0.89399 0.76195 0.37362 0.0
C190 C 0.86677 0.80589 0.37982 0.0
C191 C 0.90222 0.76082 0.39135 0.0
C192 C 0.92355 0.75521 0.33101 0.0
N193 N 0.90015 0.73969 0.32537 0.0
C194 C 0.93089 0.70929 0.30769 0.0
C195 C 0.90335 0.71684 0.31403 0.0
C196 C 0.95528 0.72549 0.31305 0.0
C197 C 0.95136 0.7483 0.32516 0.0
H198 H 0.92048 0.7742 0.33926 0.0
H199 H 0.88449 0.70562 0.309 0.0
C200 C 0.78937 0.7798 0.38083 0.0
N201 N 0.81256 0.76356 0.37563 0.0
C202 C 0.77969 0.77865 0.39827 0.0
C203 C 0.8173 0.74333 0.40457 0.0
C204 C 0.82583 0.74467 0.3869 0.0
C205 C 0.79426 0.76085 0.41044 0.0
H206 H 0.77884 0.79424 0.37156 0.0
H207 H 0.84374 0.73145 0.38236 0.0
C208 C 0.86962 0.77764 0.29804 0.0
N209 N 0.91051 0.76548 0.27242 0.0
C210 C 0.8955 0.79356 0.29737 0.0
C211 C 0.86441 0.75571 0.28562 0.0
C212 C 0.91594 0.78701 0.28434 0.0
C213 C 0.88537 0.74988 0.27276 0.0
C214 C 0.79322 0.82525 0.3367 0.0
C215 C 0.77965 0.83455 0.3212 0.0
C216 C 0.79708 0.84495 0.3506 0.0
C217 C 0.77029 0.86348 0.31981 0.0
C218 C 0.78744 0.87372 0.3487 0.0
N219 N 0.77437 0.88231 0.33347 0.0
C220 C 0.76045 0.74321 0.30965 0.0
C221 C 0.78431 0.7716 0.28786 0.0
C222 C 0.73567 0.74117 0.29909 0.0
N223 N 0.78386 0.75861 0.30398 0.0
C224 C 0.75994 0.7703 0.27693 0.0
C225 C 0.73497 0.75544 0.28267 0.0
H226 H 0.76061 0.73355 0.32268 0.0
H227 H 0.80307 0.78417 0.28385 0.0
C228 C 0.87128 0.86087 0.34057 0.0
N229 N 0.85627 0.84575 0.32814 0.0
C230 C 0.88532 0.88681 0.33609 0.0
C231 C 0.86739 0.88157 0.30626 0.0
C232 C 0.85334 0.85593 0.31138 0.0
C233 C 0.88432 0.89683 0.31859 0.0
H234 H 0.87387 0.85193 0.35364 0.0
H235 H 0.8416 0.84315 0.30173 0.0
O236 O 0.82733 0.7349 0.33659 0.0
O237 O 0.86769 0.78615 0.35047 0.0
O238 O 0.84974 0.78311 0.31103 0.0
O239 O 0.80332 0.79723 0.33811 0.0
H240 H 0.86277 0.70471 0.35717 0.0
H241 H 0.81269 0.7022 0.30923 0.0
H242 H 0.8788 0.65383 0.35139 0.0
H243 H 0.82952 0.65132 0.30431 0.0
H244 H 0.86809 0.82003 0.40691 0.0
H245 H 0.90104 0.74501 0.36466 0.0
H246 H 0.85258 0.82338 0.37569 0.0
H247 H 0.91593 0.74326 0.39603 0.0
H248 H 0.93296 0.69165 0.29826 0.0
H249 H 0.96937 0.7619 0.32928 0.0
H250 H 0.76182 0.79247 0.40237 0.0
H251 H 0.82883 0.72914 0.4136 0.0
H252 H 0.89994 0.81047 0.30698 0.0
H253 H 0.84459 0.74303 0.28607 0.0
H254 H 0.93618 0.79895 0.28375 0.0
H255 H 0.88174 0.73283 0.26314 0.0
H256 H 0.77653 0.81968 0.3103 0.0
H257 H 0.80766 0.8382 0.36266 0.0
H258 H 0.75984 0.87099 0.30785 0.0
H259 H 0.79043 0.88922 0.35931 0.0
H260 H 0.71679 0.72978 0.30412 0.0
H261 H 0.76036 0.78139 0.2643 0.0
H262 H 0.89853 0.89774 0.34591 0.0
H263 H 0.8661 0.88869 0.29265 0.0
Li264 Li 0.7614 0.35602 0.82297 0.0
Li265 Li 0.70858 0.34522 0.82496 0.0
Li266 Li 0.74201 0.32261 0.84559 0.0
Li267 Li 0.74016 0.30637 0.81612 0.0
C268 C 0.72614 0.37447 0.8584 0.0
N269 N 0.71041 0.39161 0.89203 0.0
C270 C 0.69861 0.36762 0.86498 0.0
C271 C 0.74571 0.38994 0.86896 0.0
C272 C 0.69106 0.37651 0.88201 0.0
C273 C 0.73732 0.39846 0.88592 0.0
C274 C 0.71734 0.35923 0.79184 0.0
C275 C 0.67445 0.36316 0.77367 0.0
N276 N 0.68252 0.39062 0.76891 0.0
C277 C 0.7252 0.3875 0.78671 0.0
C278 C 0.69178 0.34694 0.7852 0.0
C279 C 0.70733 0.403 0.77512 0.0
C280 C 0.80261 0.38535 0.80137 0.0
N281 N 0.78581 0.3874 0.81607 0.0
C282 C 0.79018 0.43936 0.81613 0.0
C283 C 0.7802 0.41358 0.82379 0.0
C284 C 0.80564 0.43823 0.80017 0.0
C285 C 0.81282 0.41072 0.79313 0.0
H286 H 0.80598 0.36429 0.79523 0.0
H287 H 0.76584 0.4147 0.83502 0.0
C288 C 0.64643 0.35464 0.82224 0.0
N289 N 0.67347 0.3665 0.82246 0.0
C290 C 0.62213 0.37262 0.82009 0.0
C291 C 0.65413 0.41445 0.81874 0.0
C292 C 0.67765 0.39577 0.82097 0.0
C293 C 0.62591 0.40295 0.8182 0.0
H294 H 0.64368 0.33135 0.82379 0.0
H295 H 0.69943 0.40456 0.82148 0.0
C296 C 0.79803 0.31064 0.84146 0.0
N297 N 0.8418 0.2991 0.86539 0.0
C298 C 0.79887 0.28385 0.8503 0.0
C299 C 0.81956 0.33149 0.8447 0.0
C300 C 0.82114 0.27847 0.86239 0.0
C301 C 0.84149 0.32525 0.85686 0.0
C302 C 0.69805 0.27737 0.83006 0.0
C303 C 0.70999 0.25307 0.83859 0.0
C304 C 0.67657 0.27327 0.81727 0.0
C305 C 0.70026 0.22511 0.83415 0.0
C306 C 0.66749 0.24495 0.81316 0.0
N307 N 0.67942 0.22166 0.82161 0.0
C308 C 0.72225 0.29688 0.87697 0.0
C309 C 0.76599 0.32321 0.8809 0.0
C310 C 0.72093 0.29064 0.89495 0.0
N311 N 0.74468 0.31261 0.87024 0.0
C312 C 0.76538 0.31775 0.89906 0.0
C313 C 0.74249 0.30137 0.90635 0.0
H314 H 0.70482 0.2898 0.86847 0.0
H315 H 0.78298 0.33672 0.87543 0.0
C316 C 0.72961 0.27184 0.78538 0.0
N317 N 0.74343 0.27262 0.80123 0.0
C318 C 0.7273 0.24561 0.77606 0.0
C319 C 0.755 0.22186 0.79902 0.0
C320 C 0.75701 0.2486 0.80779 0.0
C321 C 0.7393 0.22 0.78318 0.0
H322 H 0.7193 0.29125 0.78031 0.0
H323 H 0.76801 0.24979 0.82034 0.0
O324 O 0.73428 0.36506 0.84199 0.0
O325 O 0.73423 0.34391 0.80353 0.0
O326 O 0.7765 0.31636 0.82952 0.0
O327 O 0.70778 0.30493 0.83394 0.0
H328 H 0.68341 0.3551 0.85717 0.0
H329 H 0.76734 0.39487 0.86425 0.0
H330 H 0.66989 0.37124 0.88729 0.0
H331 H 0.75229 0.41033 0.89426 0.0
H332 H 0.6545 0.35396 0.76858 0.0
H333 H 0.74468 0.3976 0.79171 0.0
H334 H 0.68498 0.32537 0.78921 0.0
H335 H 0.71314 0.42492 0.77113 0.0
H336 H 0.78364 0.46003 0.82183 0.0
H337 H 0.82472 0.40892 0.78085 0.0
H338 H 0.6007 0.36291 0.81976 0.0
H339 H 0.65802 0.43773 0.81776 0.0
H340 H 0.78225 0.26758 0.84811 0.0
H341 H 0.81929 0.35229 0.83794 0.0
H342 H 0.82193 0.25793 0.86943 0.0
H343 H 0.85824 0.34121 0.85954 0.0
H344 H 0.72708 0.25567 0.84824 0.0
H345 H 0.66725 0.29167 0.81039 0.0
H346 H 0.70948 0.20614 0.84055 0.0
H347 H 0.65103 0.24149 0.8032 0.0
H348 H 0.70298 0.27771 0.89984 0.0
H349 H 0.78215 0.32706 0.90733 0.0
H350 H 0.71502 0.24509 0.76387 0.0
H351 H 0.76494 0.20268 0.80481 0.0
Li352 Li 0.65515 0.31002 0.17187 0.0
Li353 Li 0.68796 0.27126 0.18399 0.0
Li354 Li 0.67304 0.27356 0.15205 0.0
Li355 Li 0.63827 0.26075 0.174 0.0
C356 C 0.70587 0.3305 0.16707 0.0
N357 N 0.7227 0.3882 0.17029 0.0
C358 C 0.72065 0.33989 0.18214 0.0
C359 C 0.69974 0.35045 0.1536 0.0
C360 C 0.72897 0.36915 0.18352 0.0
C361 C 0.70839 0.37953 0.15549 0.0
C362 C 0.63332 0.28022 0.20703 0.0
C363 C 0.62045 0.25151 0.23253 0.0
N364 N 0.5946 0.26581 0.23347 0.0
C365 C 0.60673 0.2948 0.20831 0.0
C366 C 0.64033 0.25848 0.21925 0.0
C367 C 0.58741 0.28712 0.22174 0.0
C368 C 0.62699 0.36302 0.16325 0.0
N369 N 0.64205 0.34866 0.17598 0.0
C370 C 0.62832 0.38409 0.19754 0.0
C371 C 0.64378 0.3591 0.19274 0.0
C372 C 0.61133 0.39849 0.18486 0.0
C373 C 0.61162 0.38834 0.16739 0.0
H374 H 0.62543 0.3539 0.15017 0.0
H375 H 0.65564 0.34695 0.20263 0.0
C376 C 0.74332 0.25084 0.19295 0.0
N377 N 0.71959 0.26471 0.19951 0.0
C378 C 0.76901 0.24983 0.20272 0.0
C379 C 0.74503 0.27662 0.22603 0.0
C380 C 0.71976 0.27703 0.21582 0.0
C381 C 0.77034 0.26349 0.21932 0.0
H382 H 0.74258 0.24153 0.17984 0.0
H383 H 0.70074 0.28852 0.22051 0.0
C384 C 0.62379 0.28498 0.13717 0.0
N385 N 0.60693 0.27793 0.10239 0.0
C386 C 0.60769 0.26047 0.1321 0.0
C387 C 0.63136 0.30585 0.12449 0.0
C388 C 0.5993 0.25736 0.11448 0.0
C389 C 0.62267 0.30188 0.10699 0.0
C390 C 0.66707 0.21083 0.17224 0.0
C391 C 0.64875 0.19513 0.16101 0.0
C392 C 0.67764 0.19769 0.1876 0.0
C393 C 0.64111 0.16651 0.16542 0.0
C394 C 0.66955 0.169 0.19152 0.0
N395 N 0.65158 0.15415 0.18046 0.0
C396 C 0.70719 0.28597 0.12204 0.0
C397 C 0.67587 0.24534 0.11849 0.0
C398 C 0.71547 0.28443 0.10434 0.0
N399 N 0.68716 0.26708 0.12861 0.0
C400 C 0.68323 0.24323 0.10065 0.0
C401 C 0.70289 0.26329 0.09332 0.0
H402 H 0.7162 0.30277 0.1304 0.0
H403 H 0.66032 0.23031 0.12408 0.0
C404 C 0.57847 0.25666 0.17456 0.0
N405 N 0.60224 0.24172 0.18021 0.0
C406 C 0.55085 0.24922 0.18049 0.0
C407 C 0.57223 0.21094 0.19814 0.0
C408 C 0.5996 0.219 0.1917 0.0
C409 C 0.54745 0.22647 0.19271 0.0
H410 H 0.58103 0.27554 0.16616 0.0
H411 H 0.61873 0.20822 0.19672 0.0
O412 O 0.69683 0.3021 0.16568 0.0
O413 O 0.65214 0.28679 0.19366 0.0
O414 O 0.63254 0.28827 0.15434 0.0
O415 O 0.67498 0.23878 0.1681 0.0
H416 H 0.72554 0.32484 0.1927 0.0
H417 H 0.68805 0.34368 0.14193 0.0
H418 H 0.74036 0.37672 0.19514 0.0
H419 H 0.70362 0.39523 0.14522 0.0
H420 H 0.62548 0.23459 0.24201 0.0
H421 H 0.60088 0.31151 0.19885 0.0
H422 H 0.66071 0.24682 0.21834 0.0
H423 H 0.56663 0.29801 0.2228 0.0
H424 H 0.6286 0.39134 0.21114 0.0
H425 H 0.59844 0.39864 0.15731 0.0
H426 H 0.78782 0.23907 0.19714 0.0
H427 H 0.74511 0.28775 0.23864 0.0
H428 H 0.60208 0.24375 0.14157 0.0
H429 H 0.64435 0.32462 0.128 0.0
H430 H 0.58692 0.23845 0.11039 0.0
H431 H 0.62859 0.31775 0.09705 0.0
H432 H 0.64032 0.205 0.14911 0.0
H433 H 0.69184 0.20953 0.19643 0.0
H434 H 0.62683 0.15414 0.15691 0.0
H435 H 0.67749 0.15857 0.20339 0.0
H436 H 0.73064 0.30036 0.09918 0.0
H437 H 0.67334 0.22638 0.09262 0.0
H438 H 0.53253 0.26234 0.17631 0.0
H439 H 0.57059 0.19337 0.20765 0.0
Li440 Li 0.22767 0.19587 0.67592 0.0
Li441 Li 0.23647 0.1703 0.64848 0.0
Li442 Li 0.19189 0.16004 0.66515 0.0
Li443 Li 0.23853 0.14288 0.67512 0.0
C444 C 0.18855 0.20467 0.63939 0.0
N445 N 0.15894 0.21867 0.60882 0.0
C446 C 0.18057 0.18273 0.6275 0.0
C447 C 0.18144 0.23372 0.63572 0.0
C448 C 0.16564 0.19025 0.61212 0.0
C449 C 0.16644 0.24035 0.62021 0.0
C450 C 0.28894 0.18562 0.66046 0.0
C451 C 0.33243 0.17627 0.64366 0.0
N452 N 0.33832 0.20538 0.64352 0.0
C453 C 0.29563 0.2154 0.66037 0.0
C454 C 0.30768 0.16584 0.65225 0.0
C455 C 0.32062 0.22498 0.65166 0.0
C456 C 0.2322 0.23143 0.70645 0.0
N457 N 0.23086 0.2317 0.68855 0.0
C458 C 0.22869 0.28385 0.68832 0.0
C459 C 0.22948 0.25717 0.6794 0.0
C460 C 0.22868 0.28435 0.7069 0.0
C461 C 0.23078 0.25754 0.71593 0.0
H462 H 0.23343 0.21086 0.71342 0.0
H463 H 0.22872 0.25672 0.66514 0.0
C464 C 0.2442 0.1557 0.61247 0.0
N465 N 0.24958 0.17653 0.62482 0.0
C466 C 0.24823 0.16172 0.59459 0.0
C467 C 0.26399 0.21035 0.60241 0.0
C468 C 0.25936 0.20346 0.62015 0.0
C469 C 0.25776 0.18956 0.58929 0.0
H470 H 0.23498 0.13499 0.61636 0.0
H471 H 0.26216 0.22012 0.6301 0.0
C472 C 0.18804 0.17518 0.70032 0.0
N473 N 0.14763 0.19883 0.72319 0.0
C474 C 0.18614 0.16508 0.71769 0.0
C475 C 0.16932 0.19729 0.69458 0.0
C476 C 0.16558 0.17732 0.72905 0.0
C477 C 0.14907 0.20896 0.70634 0.0
C478 C 0.22677 0.10384 0.65102 0.0
C479 C 0.20907 0.08093 0.65677 0.0
C480 C 0.25391 0.09756 0.64368 0.0
C481 C 0.21907 0.05219 0.65541 0.0
C482 C 0.2631 0.06854 0.64249 0.0
N483 N 0.24566 0.04665 0.64838 0.0
C484 C 0.12958 0.16067 0.65695 0.0
C485 C 0.14844 0.12494 0.67644 0.0
C486 C 0.10191 0.14812 0.65806 0.0
N487 N 0.15227 0.14839 0.66574 0.0
C488 C 0.1214 0.11174 0.67791 0.0
C489 C 0.09769 0.12302 0.66847 0.0
H490 H 0.13282 0.17997 0.649 0.0
H491 H 0.16672 0.11614 0.68362 0.0
C492 C 0.27901 0.09659 0.68515 0.0
N493 N 0.25301 0.10998 0.68784 0.0
C494 C 0.28503 0.06984 0.69341 0.0
C495 C 0.23791 0.07205 0.70738 0.0
C496 C 0.23277 0.09839 0.69881 0.0
C497 C 0.26415 0.05718 0.7046 0.0
H498 H 0.29457 0.10602 0.67611 0.0
H499 H 0.21201 0.10902 0.70034 0.0
O500 O 0.20416 0.19802 0.65423 0.0
O501 O 0.2645 0.17586 0.66888 0.0
O502 O 0.20815 0.16338 0.68908 0.0
O503 O 0.21783 0.13226 0.6528 0.0
H504 H 0.18579 0.16012 0.63009 0.0
H505 H 0.18751 0.25099 0.64474 0.0
H506 H 0.15938 0.1735 0.6028 0.0
H507 H 0.16081 0.26275 0.6172 0.0
H508 H 0.34702 0.1612 0.63715 0.0
H509 H 0.28161 0.23099 0.66684 0.0
H510 H 0.30326 0.14268 0.65254 0.0
H511 H 0.32592 0.24799 0.65136 0.0
H512 H 0.2279 0.30382 0.68069 0.0
H513 H 0.23043 0.2565 0.7302 0.0
H514 H 0.24234 0.14522 0.585 0.0
H515 H 0.27149 0.23205 0.59902 0.0
H516 H 0.20051 0.14806 0.72238 0.0
H517 H 0.1704 0.20544 0.68121 0.0
H518 H 0.16392 0.16975 0.74253 0.0
H519 H 0.13449 0.2261 0.70207 0.0
H520 H 0.1879 0.08517 0.66228 0.0
H521 H 0.26783 0.11491 0.63905 0.0
H522 H 0.20567 0.0343 0.65996 0.0
H523 H 0.28414 0.06345 0.63695 0.0
H524 H 0.08411 0.15784 0.65081 0.0
H525 H 0.1194 0.09227 0.68594 0.0
H526 H 0.30553 0.05903 0.6909 0.0
H527 H 0.22091 0.06284 0.71554 0.0
Li528 Li 0.31177 0.73131 0.18861 0.0
Li529 Li 0.34071 0.69029 0.17569 0.0
Li530 Li 0.36184 0.73787 0.17831 0.0
Li531 Li 0.32564 0.72898 0.1565 0.0
C532 C 0.3657 0.7169 0.21107 0.0
N533 N 0.40576 0.72721 0.23746 0.0
C534 C 0.39058 0.69954 0.21238 0.0
C535 C 0.36106 0.73935 0.22324 0.0
C536 C 0.41063 0.70517 0.22579 0.0
C537 C 0.38159 0.74421 0.23649 0.0
C538 C 0.28842 0.67452 0.17094 0.0
C539 C 0.2815 0.62651 0.1585 0.0
N540 N 0.26684 0.61832 0.17327 0.0
C541 C 0.27323 0.66564 0.18598 0.0
C542 C 0.29254 0.65483 0.15706 0.0
C543 C 0.2625 0.63713 0.18691 0.0
C544 C 0.25823 0.75514 0.19855 0.0
N545 N 0.28131 0.73963 0.20459 0.0
C546 C 0.25601 0.72776 0.23115 0.0
C547 C 0.28094 0.72655 0.22069 0.0
C548 C 0.23124 0.74246 0.22492 0.0
C549 C 0.23288 0.75698 0.20859 0.0
H550 H 0.25909 0.76497 0.18558 0.0
H551 H 0.29939 0.71373 0.22493 0.0
C552 C 0.36468 0.63577 0.16619 0.0
N553 N 0.35059 0.65055 0.17915 0.0
C554 C 0.37855 0.60943 0.16996 0.0
C555 C 0.36214 0.6135 0.20018 0.0
C556 C 0.34818 0.63955 0.19575 0.0
C557 C 0.37837 0.59868 0.18731 0.0
H558 H 0.36683 0.64532 0.15325 0.0
H559 H 0.33717 0.65206 0.20584 0.0
C560 C 0.33742 0.79025 0.17722 0.0
N561 N 0.35783 0.84528 0.18552 0.0
C562 C 0.35664 0.80452 0.16585 0.0
C563 C 0.32844 0.80398 0.19276 0.0
C564 C 0.36678 0.83233 0.17031 0.0
C565 C 0.33902 0.83182 0.19672 0.0
C566 C 0.37394 0.71367 0.14119 0.0
C567 C 0.39259 0.73651 0.13653 0.0
C568 C 0.36445 0.69416 0.12821 0.0
C569 C 0.40151 0.73937 0.11899 0.0
C570 C 0.37375 0.69783 0.11081 0.0
N571 N 0.39195 0.72015 0.1066 0.0
C572 C 0.42132 0.73503 0.17924 0.0
C573 C 0.40483 0.77574 0.19574 0.0
C574 C 0.44941 0.73873 0.18558 0.0
N575 N 0.39955 0.7531 0.18451 0.0
C576 C 0.43285 0.78029 0.20242 0.0
C577 C 0.45531 0.76104 0.19771 0.0
H578 H 0.41657 0.7165 0.17091 0.0
H579 H 0.38714 0.78904 0.20047 0.0
C580 C 0.28959 0.72074 0.12688 0.0
N581 N 0.31178 0.73724 0.13324 0.0
C582 C 0.28175 0.72248 0.10913 0.0
C583 C 0.31875 0.75929 0.10497 0.0
C584 C 0.32555 0.75716 0.12289 0.0
C585 C 0.29706 0.74127 0.09784 0.0
H586 H 0.27867 0.7054 0.13543 0.0
H587 H 0.3428 0.77037 0.12831 0.0
O588 O 0.34627 0.71233 0.19771 0.0
O589 O 0.29979 0.7021 0.16998 0.0
O590 O 0.32702 0.76318 0.17301 0.0
O591 O 0.3647 0.71067 0.15829 0.0
H592 H 0.39462 0.68225 0.20296 0.0
H593 H 0.34203 0.75312 0.22231 0.0
H594 H 0.43014 0.69213 0.22685 0.0
H595 H 0.3784 0.76163 0.24594 0.0
H596 H 0.28468 0.61102 0.1479 0.0
H597 H 0.26986 0.6805 0.19686 0.0
H598 H 0.30447 0.66122 0.1454 0.0
H599 H 0.25077 0.62995 0.19849 0.0
H600 H 0.25562 0.71591 0.24352 0.0
H601 H 0.21446 0.76889 0.20338 0.0
H602 H 0.39119 0.59885 0.15974 0.0
H603 H 0.36153 0.60582 0.21369 0.0
H604 H 0.36384 0.79417 0.1538 0.0
H605 H 0.31352 0.79324 0.20167 0.0
H606 H 0.38178 0.84359 0.16169 0.0
H607 H 0.33233 0.8427 0.20872 0.0
H608 H 0.3998 0.75219 0.14625 0.0
H609 H 0.34956 0.67672 0.13143 0.0
H610 H 0.41585 0.757 0.1152 0.0
H611 H 0.36636 0.68304 0.10062 0.0
H612 H 0.46614 0.72351 0.18153 0.0
H613 H 0.43648 0.79751 0.21196 0.0
H614 H 0.26495 0.70818 0.1041 0.0
H615 H 0.33084 0.77424 0.09669 0.0
Li616 Li 0.74428 0.85418 0.68003 0.0
Li617 Li 0.7944 0.84453 0.67278 0.0
Li618 Li 0.75601 0.82636 0.65419 0.0
Li619 Li 0.76418 0.80328 0.68254 0.0
C620 C 0.7727 0.89656 0.66042 0.0
N621 N 0.78673 0.95508 0.66352 0.0
C622 C 0.77942 0.90846 0.67692 0.0
C623 C 0.77335 0.91446 0.64548 0.0
C624 C 0.78636 0.93807 0.67823 0.0
C625 C 0.78045 0.94398 0.64732 0.0
C626 C 0.79501 0.83022 0.70892 0.0
C627 C 0.8375 0.80274 0.71738 0.0
N628 N 0.83395 0.81171 0.73435 0.0
C629 C 0.79182 0.83921 0.72645 0.0
C630 C 0.81808 0.81188 0.70435 0.0
C631 C 0.81172 0.82961 0.7391 0.0
C632 C 0.72242 0.88785 0.70787 0.0
N633 N 0.72053 0.88381 0.69016 0.0
C634 C 0.69891 0.93085 0.68648 0.0
C635 C 0.70795 0.90409 0.67951 0.0
C636 C 0.70302 0.93674 0.70453 0.0
C637 C 0.71376 0.91428 0.71538 0.0
H638 H 0.73277 0.87147 0.71595 0.0
H639 H 0.70718 0.90049 0.66541 0.0
C640 C 0.84438 0.86923 0.65704 0.0
N641 N 0.83147 0.86386 0.67284 0.0
C642 C 0.86775 0.88851 0.65587 0.0
C643 C 0.86425 0.89659 0.68727 0.0
C644 C 0.8412 0.87688 0.68786 0.0
C645 C 0.87748 0.90317 0.67105 0.0
H646 H 0.83543 0.8601 0.64513 0.0
H647 H 0.8298 0.87385 0.70015 0.0
C648 C 0.70448 0.80695 0.66217 0.0
N649 N 0.66154 0.78714 0.63975 0.0
C650 C 0.69945 0.777 0.66037 0.0
C651 C 0.68755 0.82686 0.65271 0.0
C652 C 0.67765 0.76741 0.64893 0.0
C653 C 0.66599 0.8164 0.64139 0.0
C654 C 0.81315 0.79612 0.6518 0.0
C655 C 0.81693 0.80798 0.63496 0.0
C656 C 0.83211 0.77436 0.65772 0.0
C657 C 0.83977 0.79813 0.6244 0.0
C658 C 0.8547 0.76508 0.64677 0.0
N659 N 0.85803 0.77706 0.63047 0.0
C660 C 0.74354 0.83954 0.61852 0.0
C661 C 0.74483 0.78906 0.62533 0.0
C662 C 0.74088 0.83337 0.60055 0.0
N663 N 0.74608 0.81749 0.6304 0.0
C664 C 0.74157 0.78186 0.60754 0.0
C665 C 0.74041 0.80414 0.59475 0.0
H666 H 0.74486 0.86193 0.62293 0.0
H667 H 0.74733 0.77196 0.63506 0.0
C668 C 0.75898 0.76502 0.7122 0.0
N669 N 0.76456 0.76694 0.69462 0.0
C670 C 0.76205 0.7383 0.72095 0.0
C671 C 0.77579 0.71606 0.69325 0.0
C672 C 0.77238 0.74312 0.68505 0.0
C673 C 0.7709 0.71339 0.71149 0.0
H674 H 0.75265 0.78432 0.71947 0.0
H675 H 0.77655 0.74532 0.67107 0.0
O676 O 0.76594 0.86751 0.65874 0.0
O677 O 0.7754 0.83908 0.69641 0.0
O678 O 0.72608 0.81673 0.67301 0.0
O679 O 0.79047 0.80489 0.66224 0.0
H680 H 0.77933 0.89502 0.68864 0.0
H681 H 0.7685 0.90568 0.63257 0.0
H682 H 0.7915 0.94752 0.69093 0.0
H683 H 0.78101 0.95806 0.63586 0.0
H684 H 0.85542 0.78853 0.71399 0.0
H685 H 0.77418 0.85341 0.73029 0.0
H686 H 0.82108 0.80487 0.6909 0.0
H687 H 0.80947 0.83638 0.75271 0.0
H688 H 0.69032 0.94733 0.67765 0.0
H689 H 0.71762 0.9178 0.72931 0.0
H690 H 0.87734 0.89269 0.64308 0.0
H691 H 0.87035 0.90787 0.69927 0.0
H692 H 0.71243 0.76134 0.66761 0.0
H693 H 0.69128 0.85011 0.65395 0.0
H694 H 0.67359 0.74429 0.64732 0.0
H695 H 0.65284 0.83153 0.63388 0.0
H696 H 0.80271 0.82498 0.63016 0.0
H697 H 0.82941 0.76463 0.67063 0.0
H698 H 0.84301 0.80728 0.61139 0.0
H699 H 0.86954 0.74831 0.65121 0.0
H700 H 0.74056 0.85139 0.59132 0.0
H701 H 0.74069 0.75903 0.60386 0.0
H702 H 0.75759 0.73721 0.73496 0.0
H703 H 0.78297 0.69763 0.68543 0.0
C704 C 0.07082 0.08362 0.29482 0.0
C705 C 0.09169 0.07884 0.30804 0.0
C706 C 0.0485 0.06349 0.2921 0.0
C707 C 0.99317 0.03029 0.30184 0.0
H708 H 0.0041 0.9463 0.3011 0.0
C709 C 0.90655 0.94623 0.32304 0.0
C710 C 0.90383 0.92071 0.31291 0.0
C711 C 0.92806 0.96673 0.31908 0.0
C712 C 0.00072 0.96972 0.30107 0.0
H713 H 0.10661 0.04866 0.32809 0.0
H714 H 0.06774 0.01316 0.32317 0.0
H715 H 0.04639 0.97856 0.29994 0.0
H716 H 0.92083 0.89695 0.2904 0.0
H717 H 0.95854 0.93274 0.28357 0.0
H718 H 0.94756 0.02144 0.30363 0.0
C719 C 0.06862 0.03252 0.31497 0.0
C720 C 0.02489 0.98812 0.30053 0.0
C721 C 0.09074 0.05284 0.31784 0.0
C722 C 0.92224 0.9166 0.29832 0.0
C723 C 0.94396 0.9369 0.2945 0.0
C724 C 0.96902 0.01189 0.30262 0.0
C725 C 0.04687 0.03806 0.30241 0.0
C726 C 0.02134 0.01855 0.30115 0.0
C727 C 0.94744 0.96184 0.30507 0.0
C728 C 0.97261 0.98145 0.30247 0.0
H729 H 0.07087 0.10365 0.2872 0.0
H730 H 0.03206 0.06815 0.28227 0.0
H731 H 0.98986 0.0537 0.3025 0.0
H732 H 0.8926 0.94989 0.33434 0.0
H733 H 0.93041 0.9857 0.32751 0.0
C734 C 0.4452 0.60005 0.81265 0.0
C735 C 0.42209 0.59507 0.82439 0.0
C736 C 0.46712 0.57916 0.81058 0.0
C737 C 0.48143 0.50047 0.81721 0.0
H738 H 0.56238 0.52328 0.81492 0.0
C739 C 0.57584 0.41922 0.82674 0.0
C740 C 0.60073 0.42288 0.81626 0.0
C741 C 0.55329 0.4396 0.82605 0.0
C742 C 0.53984 0.51659 0.81528 0.0
H743 H 0.40384 0.56412 0.84306 0.0
H744 H 0.44233 0.52831 0.83984 0.0
H745 H 0.52494 0.56077 0.81718 0.0
H746 H 0.62081 0.44986 0.79613 0.0
H747 H 0.58145 0.48545 0.79496 0.0
H748 H 0.49635 0.45627 0.81558 0.0
C749 C 0.44339 0.54814 0.83207 0.0
C750 C 0.5184 0.53807 0.81658 0.0
C751 C 0.42157 0.56894 0.83413 0.0
C752 C 0.60214 0.44676 0.80462 0.0
C753 C 0.57963 0.46714 0.80395 0.0
C754 C 0.50285 0.479 0.81594 0.0
C755 C 0.46626 0.55285 0.82015 0.0
C756 C 0.48899 0.53022 0.81778 0.0
C757 C 0.55518 0.46403 0.81486 0.0
C758 C 0.5323 0.48682 0.81514 0.0
H759 H 0.44628 0.62002 0.80501 0.0
H760 H 0.4844 0.58336 0.80123 0.0
H761 H 0.4589 0.49375 0.81776 0.0
H762 H 0.57427 0.40124 0.83598 0.0
H763 H 0.53486 0.43678 0.83475 0.0
C764 C 0.58758 0.44706 0.18005 0.0
C765 C 0.5905 0.42148 0.19012 0.0
C766 C 0.56509 0.46669 0.18355 0.0
C767 C 0.52179 0.51011 0.19969 0.0
H768 H 0.4452 0.47473 0.19935 0.0
C769 C 0.41784 0.57878 0.20636 0.0
C770 C 0.39838 0.57478 0.19228 0.0
C771 C 0.44026 0.55883 0.20926 0.0
C772 C 0.46646 0.48484 0.19961 0.0
H773 H 0.57274 0.39663 0.21196 0.0
H774 H 0.5332 0.43088 0.21794 0.0
H775 H 0.48842 0.44361 0.19882 0.0
H776 H 0.38597 0.54607 0.17086 0.0
H777 H 0.42496 0.51079 0.17614 0.0
H778 H 0.49986 0.55135 0.20011 0.0
C779 C 0.54843 0.43578 0.20746 0.0
C780 C 0.49113 0.4671 0.19942 0.0
C781 C 0.57117 0.41638 0.20413 0.0
C782 C 0.40072 0.54961 0.18179 0.0
C783 C 0.42291 0.52943 0.18485 0.0
C784 C 0.49713 0.52784 0.20015 0.0
C785 C 0.54488 0.46082 0.19699 0.0
C786 C 0.519 0.4796 0.19912 0.0
C787 C 0.44337 0.53433 0.19829 0.0
C788 C 0.46925 0.51537 0.19978 0.0
H789 H 0.60222 0.45143 0.16918 0.0
H790 H 0.56269 0.48577 0.17522 0.0
H791 H 0.54305 0.52024 0.19952 0.0
H792 H 0.41675 0.59819 0.21452 0.0
H793 H 0.45568 0.56298 0.21976 0.0
C794 C 0.05331 0.10337 0.6533 0.0
C795 C 0.06944 0.10739 0.66886 0.0
C796 C 0.02916 0.08486 0.65316 0.0
C797 C 0.97942 0.04229 0.68253 0.0
H798 H 0.97444 0.9909 0.64194 0.0
C799 C 0.91925 0.93185 0.68362 0.0
C800 C 0.89943 0.92694 0.66981 0.0
C801 C 0.93826 0.9556 0.68306 0.0
C802 C 0.97544 0.00527 0.65328 0.0
H803 H 0.07143 0.09697 0.69676 0.0
H804 H 0.03038 0.06388 0.69636 0.0
H805 H 0.00933 0.03091 0.64189 0.0
H806 H 0.88429 0.94337 0.64452 0.0
H807 H 0.91834 0.98404 0.64329 0.0
H808 H 0.94633 0.01559 0.69416 0.0
C809 C 0.03598 0.07516 0.68428 0.0
C810 C 0.99526 0.02836 0.65323 0.0
C811 C 0.05986 0.09388 0.68446 0.0
C812 C 0.89963 0.946 0.65522 0.0
C813 C 0.91895 0.96948 0.65455 0.0
C814 C 0.95993 0.01892 0.68267 0.0
C815 C 0.02076 0.06979 0.66852 0.0
C816 C 0.99775 0.04699 0.66794 0.0
C817 C 0.93815 0.97469 0.66856 0.0
C818 C 0.95799 6e-05 0.66812 0.0
H819 H 0.06011 0.11337 0.64103 0.0
H820 H 0.01757 0.08176 0.64087 0.0
H821 H 0.98028 0.05649 0.69394 0.0
H822 H 0.92007 0.91739 0.69492 0.0
H823 H 0.9532 0.95895 0.69391 0.0
C824 C 0.22651 0.20483 0.4305 0.0
C825 C 0.21819 0.23173 0.42303 0.0
C826 C 0.23423 0.20292 0.44827 0.0
C827 C 0.22166 0.23755 0.49083 0.0
H828 H 0.2888 0.19285 0.50584 0.0
C829 C 0.24967 0.22524 0.56452 0.0
C830 C 0.25874 0.19744 0.57022 0.0
C831 C 0.24799 0.23182 0.54654 0.0
C832 C 0.26981 0.20518 0.5019 0.0
H833 H 0.21204 0.27785 0.42857 0.0
H834 H 0.22477 0.27425 0.45979 0.0
H835 H 0.2794 0.19972 0.47442 0.0
H836 H 0.27436 0.15521 0.56133 0.0
H837 H 0.2703 0.16623 0.53006 0.0
H838 H 0.21128 0.24211 0.51816 0.0
C839 C 0.2253 0.25469 0.45174 0.0
C840 C 0.26452 0.20919 0.4839 0.0
C841 C 0.21789 0.2567 0.43388 0.0
C842 C 0.26689 0.1767 0.55745 0.0
C843 C 0.26493 0.18319 0.53947 0.0
C844 C 0.22675 0.23327 0.50882 0.0
C845 C 0.2335 0.22776 0.45911 0.0
C846 C 0.24024 0.22519 0.47819 0.0
C847 C 0.25504 0.2107 0.53376 0.0
C848 C 0.25075 0.21678 0.51461 0.0
H849 H 0.22638 0.18497 0.42273 0.0
H850 H 0.23999 0.18178 0.45366 0.0
H851 H 0.20258 0.24966 0.48679 0.0
H852 H 0.24286 0.2417 0.5739 0.0
H853 H 0.24077 0.2534 0.54267 0.0
C854 C 0.29216 0.69257 0.93996 0.0
C855 C 0.2666 0.69869 0.93051 0.0
C856 C 0.29373 0.6976 0.95808 0.0
C857 C 0.25782 0.73796 0.99459 0.0
H858 H 0.30509 0.68644 0.02333 0.0
C859 C 0.26392 0.74035 0.07154 0.0
C860 C 0.29217 0.74002 0.07855 0.0
C861 C 0.25945 0.73658 0.05341 0.0
C862 C 0.29194 0.70108 0.01544 0.0
H863 H 0.22242 0.71465 0.93294 0.0
H864 H 0.22474 0.72222 0.96476 0.0
H865 H 0.29875 0.67594 0.9921 0.0
H866 H 0.33784 0.73564 0.07219 0.0
H867 H 0.32999 0.72869 0.04057 0.0
H868 H 0.25055 0.7626 0.0183 0.0
C869 C 0.24387 0.7142 0.95802 0.0
C870 C 0.28837 0.69518 0.99751 0.0
C871 C 0.2424 0.70947 0.93978 0.0
C872 C 0.31587 0.73633 0.0671 0.0
C873 C 0.31138 0.73209 0.04907 0.0
C874 C 0.26105 0.7436 0.01264 0.0
C875 C 0.26962 0.70842 0.96739 0.0
C876 C 0.27168 0.71379 0.98675 0.0
C877 C 0.28313 0.73185 0.04209 0.0
C878 C 0.27851 0.72545 0.02315 0.0
H879 H 0.31109 0.68371 0.93339 0.0
H880 H 0.3141 0.69331 0.96472 0.0
H881 H 0.24508 0.75298 0.98673 0.0
H882 H 0.24531 0.7432 0.08011 0.0
H883 H 0.23747 0.73638 0.04834 0.0
C884 C 0.75623 0.77259 0.56925 0.0
C885 C 0.7408 0.79707 0.57552 0.0
C886 C 0.75858 0.76715 0.55116 0.0
C887 C 0.76366 0.80461 0.5098 0.0
H888 H 0.74596 0.73018 0.48775 0.0
C889 C 0.80804 0.76918 0.44186 0.0
C890 C 0.78666 0.76211 0.42937 0.0
C891 C 0.80067 0.77268 0.45961 0.0
C892 C 0.75089 0.75105 0.49378 0.0
H893 H 0.71468 0.83426 0.56737 0.0
H894 H 0.72014 0.8254 0.53578 0.0
H895 H 0.73511 0.73765 0.51919 0.0
H896 H 0.74108 0.75242 0.42554 0.0
H897 H 0.72831 0.75756 0.45688 0.0
H898 H 0.78044 0.81767 0.48461 0.0
C899 C 0.73018 0.81043 0.54503 0.0
C900 C 0.74478 0.75529 0.51169 0.0
C901 C 0.72728 0.81557 0.56314 0.0
C902 C 0.7579 0.75785 0.43497 0.0
C903 C 0.75064 0.76072 0.45282 0.0
C904 C 0.77036 0.80016 0.49203 0.0
C905 C 0.74606 0.78633 0.53892 0.0
C906 C 0.75113 0.78211 0.51982 0.0
C907 C 0.77191 0.76859 0.46521 0.0
C908 C 0.7641 0.77334 0.4839 0.0
H909 H 0.7675 0.75812 0.57822 0.0
H910 H 0.77121 0.74858 0.54673 0.0
H911 H 0.76896 0.82538 0.51585 0.0
H912 H 0.83031 0.77283 0.43779 0.0
H913 H 0.81742 0.77866 0.46897 0.0
C914 C 0.71317 0.29608 0.93413 0.0
C915 C 0.74041 0.29622 0.92572 0.0
C916 C 0.71091 0.29052 0.95218 0.0
C917 C 0.75047 0.29439 0.99378 0.0
H918 H 0.69249 0.2392 0.01007 0.0
C919 C 0.73748 0.26658 0.06778 0.0
C920 C 0.709 0.26334 0.07411 0.0
C921 C 0.74289 0.26831 0.04964 0.0
C922 C 0.70857 0.25493 0.0058 0.0
H923 H 0.78673 0.2909 0.92994 0.0
H924 H 0.78273 0.28199 0.96167 0.0
H925 H 0.69892 0.24733 0.97854 0.0
H926 H 0.66383 0.25959 0.06647 0.0
H927 H 0.67306 0.26323 0.03493 0.0
H928 H 0.75951 0.30284 0.02098 0.0
C929 C 0.76316 0.28605 0.95413 0.0
C930 C 0.71232 0.25947 0.98771 0.0
C931 C 0.76543 0.29127 0.93597 0.0
C932 C 0.68606 0.26158 0.06195 0.0
C933 C 0.69141 0.26361 0.04385 0.0
C934 C 0.74651 0.29011 0.0119 0.0
C935 C 0.73584 0.28536 0.96236 0.0
C936 C 0.7331 0.27944 0.98153 0.0
C937 C 0.71988 0.26717 0.03744 0.0
C938 C 0.7253 0.27053 0.01815 0.0
H939 H 0.69347 0.30057 0.92682 0.0
H940 H 0.68961 0.29067 0.95825 0.0
H941 H 0.76649 0.31011 0.98936 0.0
H942 H 0.7556 0.26774 0.07687 0.0
H943 H 0.76512 0.27052 0.04521 0.0
C944 C 0.51569 0.21761 0.21911 0.0
C945 C 0.5185 0.22114 0.20076 0.0
C946 C 0.48822 0.21675 0.22697 0.0
C947 C 0.41351 0.24215 0.21923 0.0
H948 H 0.39476 0.19207 0.25887 0.0
C949 C 0.29909 0.23989 0.25092 0.0
C950 C 0.29776 0.23801 0.26942 0.0
C951 C 0.32556 0.23655 0.24207 0.0
C952 C 0.39975 0.20642 0.24792 0.0
H953 H 0.49466 0.22478 0.17619 0.0
H954 H 0.44676 0.22316 0.18989 0.0
H955 H 0.4417 0.18712 0.24425 0.0
H956 H 0.32334 0.23083 0.29308 0.0
H957 H 0.36943 0.2259 0.27774 0.0
H958 H 0.37182 0.26179 0.22304 0.0
C959 C 0.46579 0.22164 0.19824 0.0
C960 C 0.42664 0.20352 0.23952 0.0
C961 C 0.49322 0.22246 0.19038 0.0
C962 C 0.32357 0.23288 0.27885 0.0
C963 C 0.34999 0.22958 0.27002 0.0
C964 C 0.38667 0.24511 0.22766 0.0
C965 C 0.46296 0.21942 0.21666 0.0
C966 C 0.4339 0.22146 0.22513 0.0
C967 C 0.35132 0.2312 0.25152 0.0
C968 C 0.37952 0.22742 0.24218 0.0
H969 H 0.53472 0.21696 0.2275 0.0
H970 H 0.48682 0.21529 0.24121 0.0
H971 H 0.4186 0.25666 0.20837 0.0
H972 H 0.27968 0.244 0.24325 0.0
H973 H 0.32575 0.23771 0.2278 0.0
C974 C 0.24104 0.82747 0.78326 0.0
C975 C 0.2537 0.80209 0.77622 0.0
C976 C 0.24225 0.85386 0.77407 0.0
C977 C 0.28428 0.89227 0.73963 0.0
H978 H 0.2204 0.94722 0.74252 0.0
C979 C 0.27917 0.0044 0.70272 0.0
C980 C 0.26842 0.02795 0.71271 0.0
C981 C 0.27896 0.97602 0.70966 0.0
C982 C 0.2385 0.93217 0.7417 0.0
H983 H 0.27694 0.78441 0.75374 0.0
H984 H 0.27839 0.83046 0.73743 0.0
H985 H 0.21504 0.89866 0.75517 0.0
H986 H 0.25111 0.04051 0.73822 0.0
H987 H 0.2506 0.99116 0.75021 0.0
H988 H 0.30758 0.92605 0.726 0.0
C989 C 0.26796 0.82999 0.75024 0.0
C990 C 0.23545 0.90433 0.74896 0.0
C991 C 0.26679 0.80352 0.75947 0.0
C992 C 0.25898 0.02276 0.73006 0.0
C993 C 0.25862 0.9945 0.73693 0.0
C994 C 0.28724 0.92014 0.73222 0.0
C995 C 0.25599 0.85557 0.75753 0.0
C996 C 0.25847 0.8842 0.74833 0.0
C997 C 0.26788 0.97073 0.72665 0.0
C998 C 0.26456 0.94054 0.73349 0.0
H999 H 0.23048 0.82706 0.79602 0.0
H1000 H 0.23309 0.87312 0.78022 0.0
H1001 H 0.30255 0.87742 0.73905 0.0
H1002 H 0.28637 0.00767 0.68926 0.0
H1003 H 0.28623 0.95808 0.70146 0.0
C1004 C 0.69827 0.78291 0.26471 0.0
C1005 C 0.70773 0.75646 0.27221 0.0
C1006 C 0.67173 0.78444 0.25581 0.0
C1007 C 0.61666 0.73927 0.23346 0.0
H1008 H 0.56453 0.80344 0.24414 0.0
C1009 C 0.49703 0.73651 0.21264 0.0
C1010 C 0.48419 0.76234 0.20635 0.0
C1011 C 0.5246 0.73698 0.22022 0.0
C1012 C 0.57898 0.78561 0.2408 0.0
H1013 H 0.69707 0.71075 0.2759 0.0
H1014 H 0.65067 0.71342 0.26037 0.0
H1015 H 0.61256 0.80182 0.25774 0.0
H1016 H 0.48985 0.80904 0.20344 0.0
H1017 H 0.53848 0.80991 0.21657 0.0
H1018 H 0.58327 0.72302 0.21652 0.0
C1019 C 0.66385 0.73295 0.26133 0.0
C1020 C 0.60648 0.78467 0.24862 0.0
C1021 C 0.6903 0.73146 0.27034 0.0
C1022 C 0.49925 0.78883 0.2082 0.0
C1023 C 0.52704 0.78929 0.21574 0.0
C1024 C 0.58927 0.74028 0.22559 0.0
C1025 C 0.65414 0.75952 0.25412 0.0
C1026 C 0.62549 0.7613 0.24518 0.0
C1027 C 0.54016 0.76328 0.22167 0.0
C1028 C 0.56991 0.76325 0.22934 0.0
H1029 H 0.71103 0.80264 0.26611 0.0
H1030 H 0.66496 0.80516 0.25026 0.0
H1031 H 0.63101 0.72125 0.23032 0.0
H1032 H 0.48564 0.71585 0.21179 0.0
H1033 H 0.53364 0.71667 0.22507 0.0
C1034 C 0.72489 0.16742 0.78511 0.0
C1035 C 0.7339 0.19124 0.77479 0.0
C1036 C 0.71893 0.14045 0.77731 0.0
C1037 C 0.70292 0.1055 0.73407 0.0
H1038 H 0.72516 0.03489 0.75891 0.0
C1039 C 0.70916 0.99105 0.70165 0.0
C1040 C 0.69971 0.9669 0.71162 0.0
C1041 C 0.70994 0.01899 0.70908 0.0
C1042 C 0.71844 0.05439 0.75191 0.0
H1043 H 0.74385 0.20551 0.74822 0.0
H1044 H 0.73418 0.15815 0.73457 0.0
H1045 H 0.73448 0.08227 0.7723 0.0
H1046 H 0.68213 0.95365 0.73695 0.0
H1047 H 0.68391 0.00242 0.74997 0.0
H1048 H 0.68767 0.07735 0.71343 0.0
C1049 C 0.7311 0.16044 0.74867 0.0
C1050 C 0.72377 0.08161 0.75959 0.0
C1051 C 0.7368 0.18754 0.75648 0.0
C1052 C 0.68995 0.97164 0.72898 0.0
C1053 C 0.69096 0.99956 0.73645 0.0
C1054 C 0.69783 0.07823 0.72631 0.0
C1055 C 0.72205 0.13652 0.75899 0.0
C1056 C 0.71612 0.10755 0.75078 0.0
C1057 C 0.70153 0.02342 0.72669 0.0
C1058 C 0.70556 0.05239 0.73515 0.0
H1059 H 0.72188 0.16981 0.79922 0.0
H1060 H 0.71143 0.12278 0.78564 0.0
H1061 H 0.69628 0.12495 0.72701 0.0
H1062 H 0.71737 0.98823 0.68837 0.0
H1063 H 0.71847 0.03687 0.70129 0.0
C1064 C 0.01534 0.28589 0.28082 0.0
C1065 C 0.018 0.28119 0.29908 0.0
C1066 C 0.98794 0.28694 0.27287 0.0
C1067 C 0.91336 0.26033 0.27976 0.0
H1068 H 0.89471 0.31222 0.24096 0.0
C1069 C 0.79939 0.26317 0.24751 0.0
C1070 C 0.79836 0.2657 0.22902 0.0
C1071 C 0.82568 0.26642 0.25657 0.0
C1072 C 0.89968 0.29738 0.25168 0.0
H1073 H 0.99396 0.27564 0.32344 0.0
H1074 H 0.94618 0.27765 0.3096 0.0
H1075 H 0.94138 0.31687 0.25593 0.0
H1076 H 0.82426 0.27398 0.20563 0.0
H1077 H 0.87005 0.27884 0.22133 0.0
H1078 H 0.87189 0.24056 0.27538 0.0
C1079 C 0.96527 0.27993 0.30137 0.0
C1080 C 0.92642 0.30009 0.26027 0.0
C1081 C 0.99263 0.27888 0.30931 0.0
C1082 C 0.82427 0.27144 0.21983 0.0
C1083 C 0.85051 0.27468 0.22887 0.0
C1084 C 0.88666 0.25758 0.27115 0.0
C1085 C 0.9626 0.28331 0.28301 0.0
C1086 C 0.93365 0.28149 0.27436 0.0
C1087 C 0.85154 0.27234 0.24736 0.0
C1088 C 0.87956 0.27593 0.25692 0.0
H1089 H 0.03445 0.28731 0.27253 0.0
H1090 H 0.98669 0.2893 0.25867 0.0
H1091 H 0.91842 0.2453 0.29037 0.0
H1092 H 0.77989 0.25858 0.25499 0.0
H1093 H 0.82564 0.2647 0.27082 0.0
C1094 C 0.23896 0.31611 0.73339 0.0
C1095 C 0.22578 0.31244 0.71678 0.0
C1096 C 0.23537 0.34199 0.74291 0.0
C1097 C 0.1899 0.4098 0.74489 0.0
H1098 H 0.2524 0.43613 0.77524 0.0
C1099 C 0.20456 0.52584 0.77662 0.0
C1100 C 0.20973 0.52555 0.79494 0.0
C1101 C 0.20273 0.49965 0.76714 0.0
C1102 C 0.23473 0.4289 0.76687 0.0
H1103 H 0.19829 0.33368 0.69732 0.0
H1104 H 0.19382 0.37931 0.71327 0.0
H1105 H 0.25844 0.39162 0.75811 0.0
H1106 H 0.21439 0.49728 0.81779 0.0
H1107 H 0.21241 0.4518 0.80107 0.0
H1108 H 0.16697 0.44831 0.75323 0.0
C1109 C 0.20618 0.36181 0.71926 0.0
C1110 C 0.23804 0.40325 0.75712 0.0
C1111 C 0.20926 0.33568 0.70989 0.0
C1112 C 0.21118 0.49841 0.80365 0.0
C1113 C 0.20989 0.47234 0.79414 0.0
C1114 C 0.1869 0.43587 0.75438 0.0
C1115 C 0.21904 0.36532 0.73597 0.0
C1116 C 0.21559 0.39312 0.74609 0.0
C1117 C 0.20639 0.47278 0.77577 0.0
C1118 C 0.2092 0.44543 0.76556 0.0
H1119 H 0.25224 0.29905 0.7391 0.0
H1120 H 0.24524 0.34347 0.75584 0.0
H1121 H 0.17188 0.4026 0.73683 0.0
H1122 H 0.20361 0.54624 0.76941 0.0
H1123 H 0.20009 0.50043 0.75294 0.0
C1124 C 0.2025 0.74197 0.2532 0.0
C1125 C 0.20327 0.74062 0.23467 0.0
C1126 C 0.17627 0.73853 0.26229 0.0
C1127 C 0.10228 0.70816 0.25699 0.0
H1128 H 0.08378 0.75772 0.2969 0.0
C1129 C 0.9869 0.71736 0.28654 0.0
C1130 C 0.98425 0.72085 0.3049 0.0
C1131 C 0.01427 0.717 0.27856 0.0
C1132 C 0.08879 0.74338 0.28595 0.0
H1133 H 0.17698 0.73442 0.2112 0.0
H1134 H 0.13131 0.72919 0.22699 0.0
H1135 H 0.1302 0.7635 0.28187 0.0
H1136 H 0.00828 0.7251 0.32936 0.0
H1137 H 0.05606 0.72427 0.31545 0.0
H1138 H 0.0607 0.68828 0.26095 0.0
C1139 C 0.151 0.73257 0.23453 0.0
C1140 C 0.1154 0.74674 0.27732 0.0
C1141 C 0.17716 0.73603 0.22545 0.0
C1142 C 0.00961 0.72275 0.31516 0.0
C1143 C 0.03696 0.72239 0.30719 0.0
C1144 C 0.07566 0.70482 0.26561 0.0
C1145 C 0.15024 0.73355 0.25306 0.0
C1146 C 0.12237 0.72934 0.26264 0.0
C1147 C 0.0396 0.72013 0.28876 0.0
C1148 C 0.0685 0.72253 0.28012 0.0
H1149 H 0.22218 0.74565 0.26069 0.0
H1150 H 0.17648 0.73923 0.27658 0.0
H1151 H 0.10719 0.69402 0.24592 0.0
H1152 H 0.96779 0.71632 0.27824 0.0
H1153 H 0.0155 0.71554 0.26432 0.0
C1154 C 0.81797 0.49167 0.79823 0.0
C1155 C 0.81003 0.46546 0.78983 0.0
C1156 C 0.81697 0.51821 0.78909 0.0
C1157 C 0.7776 0.55205 0.75245 0.0
H1158 H 0.83389 0.61452 0.7571 0.0
C1159 C 0.76817 0.65852 0.71225 0.0
C1160 C 0.77566 0.68492 0.72057 0.0
C1161 C 0.77363 0.63174 0.72044 0.0
C1162 C 0.81779 0.59742 0.75583 0.0
H1163 H 0.79596 0.44649 0.76504 0.0
H1164 H 0.79467 0.49267 0.74906 0.0
H1165 H 0.84286 0.56759 0.77147 0.0
H1166 H 0.79486 0.7037 0.74413 0.0
H1167 H 0.80346 0.65703 0.75868 0.0
H1168 H 0.75219 0.58182 0.73718 0.0
C1169 C 0.8014 0.49272 0.76276 0.0
C1170 C 0.82301 0.57051 0.76401 0.0
C1171 C 0.80254 0.4662 0.77185 0.0
C1172 C 0.78847 0.68384 0.73741 0.0
C1173 C 0.79382 0.65702 0.74565 0.0
C1174 C 0.7723 0.57896 0.74439 0.0
C1175 C 0.80782 0.5191 0.7714 0.0
C1176 C 0.80299 0.5475 0.76236 0.0
C1177 C 0.78657 0.63062 0.73724 0.0
C1178 C 0.79232 0.602 0.74594 0.0
H1179 H 0.82396 0.49177 0.81205 0.0
H1180 H 0.82199 0.53818 0.79613 0.0
H1181 H 0.76145 0.53497 0.75124 0.0
H1182 H 0.75796 0.65849 0.69938 0.0
H1183 H 0.76804 0.61188 0.71347 0.0
loop_
_geom_bond_atom_site_label_1
_geom_bond_atom_site_label_2
_geom_bond_distance
_geom_bond_site_symmetry_2
_ccdc_geom_bond_type
Li0 N17 1.990 . S
Li0 O60 1.956 . S
Li0 O61 1.970 . S
Li0 O62 1.961 . S
Li1 N25 1.990 . S
Li1 O60 1.970 . S
Li1 O61 1.956 . S
Li1 O63 1.961 . S
Li2 N47 1.990 . S
Li2 O60 1.961 . S
Li2 O62 1.956 . S
Li2 O63 1.970 . S
Li3 N53 1.990 . S
Li3 O61 1.961 . S
Li3 O62 1.970 . S
Li3 O63 1.956 . S
C4 C6 1.348 . S
C4 C7 1.356 . S
C4 O60 1.325 . S
N5 C8 1.314 . S
N5 C9 1.279 . S
C6 C4 1.348 . S
C6 C8 1.353 . S
C6 H64 0.929 . S
C7 C4 1.356 . S
C7 C9 1.358 . S
C7 H65 0.930 . S
C8 N5 1.314 . S
C8 C6 1.353 . S
C8 H66 0.930 . S
C9 N5 1.279 . S
C9 C7 1.358 . S
C9 H67 0.930 . S
C10 C13 1.348 . S
C10 C14 1.356 . S
C10 O61 1.325 . S
C11 N12 1.300 . S
C11 C14 1.358 . S
C11 H68 0.930 . S
N12 C11 1.300 . S
N12 C15 1.317 . S
C13 C10 1.348 . S
C13 C15 1.353 . S
C13 H69 0.929 . S
C14 C10 1.356 . S
C14 C11 1.358 . S
C14 H70 0.930 . S
C15 N12 1.317 . S
C15 C13 1.353 . S
C15 H71 0.930 1_455 S
C16 N17 1.314 . S
C16 C21 1.353 . S
C16 H22 0.930 . S
N17 Li0 1.990 . S
N17 C16 1.314 . S
N17 C19 1.279 . S
C18 C19 1.358 . S
C18 C20 1.356 . S
C18 H72 0.930 . S
C19 N17 1.279 . S
C19 C18 1.358 . S
C19 H23 0.930 . S
C20 C18 1.356 . S
C20 C21 1.348 . S
C21 C16 1.353 . S
C21 C20 1.348 . S
C21 H73 0.929 1_455 S
H22 C16 0.930 . S
H23 C19 0.930 . S
C24 N25 1.314 . S
C24 C26 1.353 . S
C24 H30 0.930 . S
N25 Li1 1.990 . S
N25 C24 1.314 . S
N25 C28 1.279 . S
C26 C24 1.353 . S
C26 C29 1.348 . S
C26 H74 0.929 . S
C27 C28 1.358 . S
C27 C29 1.356 . S
C27 H75 0.930 . S
C28 N25 1.279 . S
C28 C27 1.358 . S
C28 H31 0.930 . S
C29 C26 1.348 . S
C29 C27 1.356 . S
H30 C24 0.930 . S
H31 C28 0.930 . S
C32 C34 1.348 . S
C32 C35 1.356 . S
C32 O62 1.325 . S
N33 C36 1.314 . S
N33 C37 1.279 . S
C34 C32 1.348 . S
C34 C36 1.353 . S
C34 H76 0.929 . S
C35 C32 1.356 . S
C35 C37 1.358 . S
C35 H77 0.930 . S
C36 N33 1.314 . S
C36 C34 1.353 . S
C36 H78 0.930 . S
C37 N33 1.279 . S
C37 C35 1.358 . S
C37 H79 0.930 . S
C38 C39 1.348 . S
C38 C40 1.356 . S
C38 O63 1.325 . S
C39 C38 1.348 . S
C39 C41 1.353 . S
C39 H80 0.929 . S
C40 C38 1.356 . S
C40 C42 1.358 . S
C40 H81 0.930 . S
C41 C39 1.353 . S
C41 N43 1.314 . S
C41 H82 0.930 . S
C42 C40 1.358 . S
C42 N43 1.279 . S
C42 H83 0.930 . S
N43 C41 1.314 . S
N43 C42 1.279 . S
C44 C46 1.353 . S
C44 N47 1.314 . S
C44 H50 0.930 . S
C45 N47 1.279 . S
C45 C48 1.358 . S
C45 H51 0.930 . S
C46 C44 1.353 . S
C46 C49 1.348 . S
C46 H84 0.929 . S
N47 Li2 1.990 . S
N47 C44 1.314 . S
N47 C45 1.279 . S
C48 C45 1.358 . S
C48 C49 1.356 . S
C48 H85 0.930 . S
C49 C46 1.348 . S
C49 C48 1.356 . S
H50 C44 0.930 . S
H51 C45 0.930 . S
C52 N53 1.314 . S
C52 C54 1.353 . S
C52 H58 0.930 . S
N53 Li3 1.990 . S
N53 C52 1.314 . S
N53 C56 1.279 . S
C54 C52 1.353 . S
C54 C57 1.348 . S
C54 H86 0.929 . S
C55 C56 1.358 . S
C55 C57 1.356 . S
C55 H87 0.930 . S
C56 N53 1.279 . S
C56 C55 1.358 . S
C56 H59 0.930 . S
C57 C54 1.348 . S
C57 C55 1.356 . S
H58 C52 0.930 . S
H59 C56 0.930 . S
O60 Li0 1.956 . S
O60 Li1 1.970 . S
O60 Li2 1.961 . S
O60 C4 1.325 . S
O61 Li0 1.970 . S
O61 Li1 1.956 . S
O61 Li3 1.961 . S
O61 C10 1.325 . S
O62 Li0 1.961 . S
O62 Li2 1.956 . S
O62 Li3 1.970 . S
O62 C32 1.325 . S
O63 Li1 1.961 . S
O63 Li2 1.970 . S
O63 Li3 1.956 . S
O63 C38 1.325 . S
H64 C6 0.929 . S
H65 C7 0.930 . S
H66 C8 0.930 . S
H67 C9 0.930 . S
H68 C11 0.930 . S
H69 C13 0.929 . S
H70 C14 0.930 . S
H71 C15 0.930 1_655 S
H72 C18 0.930 . S
H73 C21 0.929 1_655 S
H74 C26 0.929 . S
H75 C27 0.930 . S
H76 C34 0.929 . S
H77 C35 0.930 . S
H78 C36 0.930 . S
H79 C37 0.930 . S
H80 C39 0.929 . S
H81 C40 0.930 . S
H82 C41 0.930 . S
H83 C42 0.930 . S
H84 C46 0.929 . S
H85 C48 0.930 . S
H86 C54 0.929 . S
H87 C55 0.930 . S
Li88 N105 1.990 . S
Li88 O148 1.956 . S
Li88 O149 1.970 . S
Li88 O150 1.961 . S
Li89 N113 1.990 . S
Li89 O148 1.970 . S
Li89 O149 1.956 . S
Li89 O151 1.961 . S
Li90 N135 1.990 . S
Li90 O148 1.961 . S
Li90 O150 1.956 . S
Li90 O151 1.970 . S
Li91 N141 1.990 . S
Li91 O149 1.961 . S
Li91 O150 1.970 . S
Li91 O151 1.956 . S
C92 C94 1.348 . S
C92 C95 1.356 . S
C92 O148 1.325 . S
N93 C96 1.314 . S
N93 C97 1.279 . S
C94 C92 1.348 . S
C94 C96 1.353 . S
C94 H152 0.929 . S
C95 C92 1.356 . S
C95 C97 1.358 . S
C95 H153 0.930 . S
C96 N93 1.314 . S
C96 C94 1.353 . S
C96 H154 0.930 . S
C97 N93 1.279 . S
C97 C95 1.358 . S
C97 H155 0.930 . S
C98 C101 1.348 . S
C98 C102 1.356 . S
C98 O149 1.325 . S
C99 N100 1.279 . S
C99 C102 1.358 . S
C99 H156 0.930 . S
N100 C99 1.279 . S
N100 C103 1.314 . S
C101 C98 1.348 . S
C101 C103 1.353 . S
C101 H157 0.929 . S
C102 C98 1.356 . S
C102 C99 1.358 . S
C102 H158 0.930 . S
C103 N100 1.314 . S
C103 C101 1.353 . S
C103 H159 0.930 . S
C104 N105 1.314 . S
C104 C109 1.353 . S
C104 H110 0.930 . S
N105 Li88 1.990 . S
N105 C104 1.314 . S
N105 C107 1.279 . S
C106 C107 1.358 . S
C106 C108 1.356 . S
C106 H160 0.930 . S
C107 N105 1.279 . S
C107 C106 1.358 . S
C107 H111 0.930 . S
C108 C106 1.356 . S
C108 C109 1.348 . S
C109 C104 1.353 . S
C109 C108 1.348 . S
C109 H161 0.929 . S
H110 C104 0.930 . S
H111 C107 0.930 . S
C112 N113 1.314 . S
C112 C114 1.353 . S
C112 H118 0.930 . S
N113 Li89 1.990 . S
N113 C112 1.314 . S
N113 C116 1.279 . S
C114 C112 1.353 . S
C114 C117 1.348 . S
C114 H162 0.929 . S
C115 C116 1.358 . S
C115 C117 1.356 . S
C115 H163 0.930 . S
C116 N113 1.279 . S
C116 C115 1.358 . S
C116 H119 0.930 . S
C117 C114 1.348 . S
C117 C115 1.356 . S
H118 C112 0.930 . S
H119 C116 0.930 . S
C120 C122 1.348 . S
C120 C123 1.356 . S
C120 O150 1.325 . S
N121 C124 1.314 . S
N121 C125 1.279 . S
C122 C120 1.348 . S
C122 C124 1.353 . S
C122 H164 0.929 . S
C123 C120 1.356 . S
C123 C125 1.358 . S
C123 H165 0.930 . S
C124 N121 1.314 . S
C124 C122 1.353 . S
C124 H166 0.930 . S
C125 N121 1.279 . S
C125 C123 1.358 . S
C125 H167 0.930 . S
C126 C127 1.348 . S
C126 C128 1.356 . S
C126 O151 1.325 . S
C127 C126 1.348 . S
C127 C129 1.353 . S
C127 H168 0.929 . S
C128 C126 1.356 . S
C128 C130 1.358 . S
C128 H169 0.930 . S
C129 C127 1.353 . S
C129 N131 1.314 . S
C129 H170 0.930 . S
C130 C128 1.358 . S
C130 N131 1.279 . S
C130 H171 0.930 . S
N131 C129 1.314 . S
N131 C130 1.279 . S
C132 C134 1.353 . S
C132 N135 1.314 . S
C132 H138 0.930 . S
C133 N135 1.279 . S
C133 C136 1.358 . S
C133 H139 0.930 . S
C134 C132 1.353 . S
C134 C137 1.348 . S
C134 H172 0.929 . S
N135 Li90 1.990 . S
N135 C132 1.314 . S
N135 C133 1.279 . S
C136 C133 1.358 . S
C136 C137 1.356 . S
C136 H173 0.930 . S
C137 C134 1.348 . S
C137 C136 1.356 . S
H138 C132 0.930 . S
H139 C133 0.930 . S
C140 N141 1.314 . S
C140 C142 1.353 . S
C140 H146 0.930 . S
N141 Li91 1.990 . S
N141 C140 1.314 . S
N141 C144 1.279 . S
C142 C140 1.353 . S
C142 C145 1.348 . S
C142 H174 0.929 . S
C143 C144 1.358 . S
C143 C145 1.356 . S
C143 H175 0.930 . S
C144 N141 1.279 . S
C144 C143 1.358 . S
C144 H147 0.930 . S
C145 C142 1.348 . S
C145 C143 1.356 . S
H146 C140 0.930 . S
H147 C144 0.930 . S
O148 Li88 1.956 . S
O148 Li89 1.970 . S
O148 Li90 1.961 . S
O148 C92 1.325 . S
O149 Li88 1.970 . S
O149 Li89 1.956 . S
O149 Li91 1.961 . S
O149 C98 1.325 . S
O150 Li88 1.961 . S
O150 Li90 1.956 . S
O150 Li91 1.970 . S
O150 C120 1.325 . S
O151 Li89 1.961 . S
O151 Li90 1.970 . S
O151 Li91 1.956 . S
O151 C126 1.325 . S
H152 C94 0.929 . S
H153 C95 0.930 . S
H154 C96 0.930 . S
H155 C97 0.930 . S
H156 C99 0.930 . S
H157 C101 0.929 . S
H158 C102 0.930 . S
H159 C103 0.930 . S
H160 C106 0.930 . S
H161 C109 0.929 . S
H162 C114 0.929 . S
H163 C115 0.930 . S
H164 C122 0.929 . S
H165 C123 0.930 . S
H166 C124 0.930 . S
H167 C125 0.930 . S
H168 C127 0.929 . S
H169 C128 0.930 . S
H170 C129 0.930 . S
H171 C130 0.930 . S
H172 C134 0.929 . S
H173 C136 0.930 . S
H174 C142 0.929 . S
H175 C143 0.930 . S
Li176 N193 1.990 . S
Li176 O236 1.956 . S
Li176 O237 1.970 . S
Li176 O238 1.961 . S
Li177 N201 1.990 . S
Li177 O236 1.970 . S
Li177 O237 1.956 . S
Li177 O239 1.961 . S
Li178 N223 1.990 . S
Li178 O236 1.961 . S
Li178 O238 1.956 . S
Li178 O239 1.970 . S
Li179 N229 1.990 . S
Li179 O237 1.961 . S
Li179 O238 1.970 . S
Li179 O239 1.956 . S
C180 C182 1.348 . S
C180 C183 1.356 . S
C180 O236 1.325 . S
N181 C184 1.314 . S
N181 C185 1.279 . S
C182 C180 1.348 . S
C182 C184 1.353 . S
C182 H240 0.929 . S
C183 C180 1.356 . S
C183 C185 1.358 . S
C183 H241 0.930 . S
C184 N181 1.314 . S
C184 C182 1.353 . S
C184 H242 0.930 . S
C185 N181 1.279 . S
C185 C183 1.358 . S
C185 H243 0.930 . S
C186 C189 1.348 . S
C186 C190 1.356 . S
C186 O237 1.325 . S
C187 N188 1.300 . S
C187 C190 1.358 . S
C187 H244 0.930 . S
N188 C187 1.300 . S
N188 C191 1.317 . S
C189 C186 1.348 . S
C189 C191 1.353 . S
C189 H245 0.929 . S
C190 C186 1.356 . S
C190 C187 1.358 . S
C190 H246 0.930 . S
C191 N188 1.317 . S
C191 C189 1.353 . S
C191 H247 0.930 1_655 S
C192 N193 1.314 . S
C192 C197 1.353 . S
C192 H198 0.930 . S
N193 Li176 1.990 . S
N193 C192 1.314 . S
N193 C195 1.279 . S
C194 C195 1.358 . S
C194 C196 1.356 . S
C194 H248 0.930 . S
C195 N193 1.279 . S
C195 C194 1.358 . S
C195 H199 0.930 . S
C196 C194 1.356 . S
C196 C197 1.348 . S
C197 C192 1.353 . S
C197 C196 1.348 . S
C197 H249 0.929 1_655 S
H198 C192 0.930 . S
H199 C195 0.930 . S
C200 N201 1.314 . S
C200 C202 1.353 . S
C200 H206 0.930 . S
N201 Li177 1.990 . S
N201 C200 1.314 . S
N201 C204 1.279 . S
C202 C200 1.353 . S
C202 C205 1.348 . S
C202 H250 0.929 . S
C203 C204 1.358 . S
C203 C205 1.356 . S
C203 H251 0.930 . S
C204 N201 1.279 . S
C204 C203 1.358 . S
C204 H207 0.930 . S
C205 C202 1.348 . S
C205 C203 1.356 . S
H206 C200 0.930 . S
H207 C204 0.930 . S
C208 C210 1.348 . S
C208 C211 1.356 . S
C208 O238 1.325 . S
N209 C212 1.314 . S
N209 C213 1.279 . S
C210 C208 1.348 . S
C210 C212 1.353 . S
C210 H252 0.929 . S
C211 C208 1.356 . S
C211 C213 1.358 . S
C211 H253 0.930 . S
C212 N209 1.314 . S
C212 C210 1.353 . S
C212 H254 0.930 . S
C213 N209 1.279 . S
C213 C211 1.358 . S
C213 H255 0.930 . S
C214 C215 1.348 . S
C214 C216 1.356 . S
C214 O239 1.325 . S
C215 C214 1.348 . S
C215 C217 1.353 . S
C215 H256 0.929 . S
C216 C214 1.356 . S
C216 C218 1.358 . S
C216 H257 0.930 . S
C217 C215 1.353 . S
C217 N219 1.314 . S
C217 H258 0.930 . S
C218 C216 1.358 . S
C218 N219 1.279 . S
C218 H259 0.930 . S
N219 C217 1.314 . S
N219 C218 1.279 . S
C220 C222 1.353 . S
C220 N223 1.314 . S
C220 H226 0.930 . S
C221 N223 1.279 . S
C221 C224 1.358 . S
C221 H227 0.930 . S
C222 C220 1.353 . S
C222 C225 1.348 . S
C222 H260 0.929 . S
N223 Li178 1.990 . S
N223 C220 1.314 . S
N223 C221 1.279 . S
C224 C221 1.358 . S
C224 C225 1.356 . S
C224 H261 0.930 . S
C225 C222 1.348 . S
C225 C224 1.356 . S
H226 C220 0.930 . S
H227 C221 0.930 . S
C228 N229 1.314 . S
C228 C230 1.353 . S
C228 H234 0.930 . S
N229 Li179 1.990 . S
N229 C228 1.314 . S
N229 C232 1.279 . S
C230 C228 1.353 . S
C230 C233 1.348 . S
C230 H262 0.929 . S
C231 C232 1.358 . S
C231 C233 1.356 . S
C231 H263 0.930 . S
C232 N229 1.279 . S
C232 C231 1.358 . S
C232 H235 0.930 . S
C233 C230 1.348 . S
C233 C231 1.356 . S
H234 C228 0.930 . S
H235 C232 0.930 . S
O236 Li176 1.956 . S
O236 Li177 1.970 . S
O236 Li178 1.961 . S
O236 C180 1.325 . S
O237 Li176 1.970 . S
O237 Li177 1.956 . S
O237 Li179 1.961 . S
O237 C186 1.325 . S
O238 Li176 1.961 . S
O238 Li178 1.956 . S
O238 Li179 1.970 . S
O238 C208 1.325 . S
O239 Li177 1.961 . S
O239 Li178 1.970 . S
O239 Li179 1.956 . S
O239 C214 1.325 . S
H240 C182 0.929 . S
H241 C183 0.930 . S
H242 C184 0.930 . S
H243 C185 0.930 . S
H244 C187 0.930 . S
H245 C189 0.929 . S
H246 C190 0.930 . S
H247 C191 0.930 1_455 S
H248 C194 0.930 . S
H249 C197 0.929 1_455 S
H250 C202 0.929 . S
H251 C203 0.930 . S
H252 C210 0.929 . S
H253 C211 0.930 . S
H254 C212 0.930 . S
H255 C213 0.930 . S
H256 C215 0.929 . S
H257 C216 0.930 . S
H258 C217 0.930 . S
H259 C218 0.930 . S
H260 C222 0.929 . S
H261 C224 0.930 . S
H262 C230 0.929 . S
H263 C231 0.930 . S
Li264 N281 1.990 . S
Li264 O324 1.956 . S
Li264 O325 1.970 . S
Li264 O326 1.961 . S
Li265 N289 1.990 . S
Li265 O324 1.970 . S
Li265 O325 1.956 . S
Li265 O327 1.961 . S
Li266 N311 1.990 . S
Li266 O324 1.961 . S
Li266 O326 1.956 . S
Li266 O327 1.970 . S
Li267 N317 1.990 . S
Li267 O325 1.961 . S
Li267 O326 1.970 . S
Li267 O327 1.956 . S
C268 C270 1.348 . S
C268 C271 1.356 . S
C268 O324 1.325 . S
N269 C272 1.314 . S
N269 C273 1.279 . S
C270 C268 1.348 . S
C270 C272 1.353 . S
C270 H328 0.929 . S
C271 C268 1.356 . S
C271 C273 1.358 . S
C271 H329 0.930 . S
C272 N269 1.314 . S
C272 C270 1.353 . S
C272 H330 0.930 . S
C273 N269 1.279 . S
C273 C271 1.358 . S
C273 H331 0.930 . S
C274 C277 1.348 . S
C274 C278 1.356 . S
C274 O325 1.325 . S
C275 N276 1.279 . S
C275 C278 1.358 . S
C275 H332 0.930 . S
N276 C275 1.279 . S
N276 C279 1.314 . S
C277 C274 1.348 . S
C277 C279 1.353 . S
C277 H333 0.929 . S
C278 C274 1.356 . S
C278 C275 1.358 . S
C278 H334 0.930 . S
C279 N276 1.314 . S
C279 C277 1.353 . S
C279 H335 0.930 . S
C280 N281 1.314 . S
C280 C285 1.353 . S
C280 H286 0.930 . S
N281 Li264 1.990 . S
N281 C280 1.314 . S
N281 C283 1.279 . S
C282 C283 1.358 . S
C282 C284 1.356 . S
C282 H336 0.930 . S
C283 N281 1.279 . S
C283 C282 1.358 . S
C283 H287 0.930 . S
C284 C282 1.356 . S
C284 C285 1.348 . S
C285 C280 1.353 . S
C285 C284 1.348 . S
C285 H337 0.929 . S
H286 C280 0.930 . S
H287 C283 0.930 . S
C288 N289 1.314 . S
C288 C290 1.353 . S
C288 H294 0.930 . S
N289 Li265 1.990 . S
N289 C288 1.314 . S
N289 C292 1.279 . S
C290 C288 1.353 . S
C290 C293 1.348 . S
C290 H338 0.929 . S
C291 C292 1.358 . S
C291 C293 1.356 . S
C291 H339 0.930 . S
C292 N289 1.279 . S
C292 C291 1.358 . S
C292 H295 0.930 . S
C293 C290 1.348 . S
C293 C291 1.356 . S
H294 C288 0.930 . S
H295 C292 0.930 . S
C296 C298 1.348 . S
C296 C299 1.356 . S
C296 O326 1.325 . S
N297 C300 1.314 . S
N297 C301 1.279 . S
C298 C296 1.348 . S
C298 C300 1.353 . S
C298 H340 0.929 . S
C299 C296 1.356 . S
C299 C301 1.358 . S
C299 H341 0.930 . S
C300 N297 1.314 . S
C300 C298 1.353 . S
C300 H342 0.930 . S
C301 N297 1.279 . S
C301 C299 1.358 . S
C301 H343 0.930 . S
C302 C303 1.348 . S
C302 C304 1.356 . S
C302 O327 1.325 . S
C303 C302 1.348 . S
C303 C305 1.353 . S
C303 H344 0.929 . S
C304 C302 1.356 . S
C304 C306 1.358 . S
C304 H345 0.930 . S
C305 C303 1.353 . S
C305 N307 1.314 . S
C305 H346 0.930 . S
C306 C304 1.358 . S
C306 N307 1.279 . S
C306 H347 0.930 . S
N307 C305 1.314 . S
N307 C306 1.279 . S
C308 C310 1.353 . S
C308 N311 1.314 . S
C308 H314 0.930 . S
C309 N311 1.279 . S
C309 C312 1.358 . S
C309 H315 0.930 . S
C310 C308 1.353 . S
C310 C313 1.348 . S
C310 H348 0.929 . S
N311 Li266 1.990 . S
N311 C308 1.314 . S
N311 C309 1.279 . S
C312 C309 1.358 . S
C312 C313 1.356 . S
C312 H349 0.930 . S
C313 C310 1.348 . S
C313 C312 1.356 . S
H314 C308 0.930 . S
H315 C309 0.930 . S
C316 N317 1.314 . S
C316 C318 1.353 . S
C316 H322 0.930 . S
N317 Li267 1.990 . S
N317 C316 1.314 . S
N317 C320 1.279 . S
C318 C316 1.353 . S
C318 C321 1.348 . S
C318 H350 0.929 . S
C319 C320 1.358 . S
C319 C321 1.356 . S
C319 H351 0.930 . S
C320 N317 1.279 . S
C320 C319 1.358 . S
C320 H323 0.930 . S
C321 C318 1.348 . S
C321 C319 1.356 . S
H322 C316 0.930 . S
H323 C320 0.930 . S
O324 Li264 1.956 . S
O324 Li265 1.970 . S
O324 Li266 1.961 . S
O324 C268 1.325 . S
O325 Li264 1.970 . S
O325 Li265 1.956 . S
O325 Li267 1.961 . S
O325 C274 1.325 . S
O326 Li264 1.961 . S
O326 Li266 1.956 . S
O326 Li267 1.970 . S
O326 C296 1.325 . S
O327 Li265 1.961 . S
O327 Li266 1.970 . S
O327 Li267 1.956 . S
O327 C302 1.325 . S
H328 C270 0.929 . S
H329 C271 0.930 . S
H330 C272 0.930 . S
H331 C273 0.930 . S
H332 C275 0.930 . S
H333 C277 0.929 . S
H334 C278 0.930 . S
H335 C279 0.930 . S
H336 C282 0.930 . S
H337 C285 0.929 . S
H338 C290 0.929 . S
H339 C291 0.930 . S
H340 C298 0.929 . S
H341 C299 0.930 . S
H342 C300 0.930 . S
H343 C301 0.930 . S
H344 C303 0.929 . S
H345 C304 0.930 . S
H346 C305 0.930 . S
H347 C306 0.930 . S
H348 C310 0.929 . S
H349 C312 0.930 . S
H350 C318 0.929 . S
H351 C319 0.930 . S
Li352 N369 1.990 . S
Li352 O412 1.956 . S
Li352 O413 1.970 . S
Li352 O414 1.961 . S
Li353 N377 1.990 . S
Li353 O412 1.970 . S
Li353 O413 1.956 . S
Li353 O415 1.961 . S
Li354 N399 1.990 . S
Li354 O412 1.961 . S
Li354 O414 1.956 . S
Li354 O415 1.970 . S
Li355 N405 1.990 . S
Li355 O413 1.961 . S
Li355 O414 1.970 . S
Li355 O415 1.956 . S
C356 C358 1.348 . S
C356 C359 1.356 . S
C356 O412 1.325 . S
N357 C360 1.314 . S
N357 C361 1.279 . S
C358 C356 1.348 . S
C358 C360 1.353 . S
C358 H416 0.929 . S
C359 C356 1.356 . S
C359 C361 1.358 . S
C359 H417 0.930 . S
C360 N357 1.314 . S
C360 C358 1.353 . S
C360 H418 0.930 . S
C361 N357 1.279 . S
C361 C359 1.358 . S
C361 H419 0.930 . S
C362 C365 1.348 . S
C362 C366 1.356 . S
C362 O413 1.325 . S
C363 N364 1.279 . S
C363 C366 1.358 . S
C363 H420 0.930 . S
N364 C363 1.279 . S
N364 C367 1.314 . S
C365 C362 1.348 . S
C365 C367 1.353 . S
C365 H421 0.929 . S
C366 C362 1.356 . S
C366 C363 1.358 . S
C366 H422 0.930 . S
C367 N364 1.314 . S
C367 C365 1.353 . S
C367 H423 0.930 . S
C368 N369 1.314 . S
C368 C373 1.353 . S
C368 H374 0.930 . S
N369 Li352 1.990 . S
N369 C368 1.314 . S
N369 C371 1.279 . S
C370 C371 1.358 . S
C370 C372 1.356 . S
C370 H424 0.930 . S
C371 N369 1.279 . S
C371 C370 1.358 . S
C371 H375 0.930 . S
C372 C370 1.356 . S
C372 C373 1.348 . S
C373 C368 1.353 . S
C373 C372 1.348 . S
C373 H425 0.929 . S
H374 C368 0.930 . S
H375 C371 0.930 . S
C376 N377 1.314 . S
C376 C378 1.353 . S
C376 H382 0.930 . S
N377 Li353 1.990 . S
N377 C376 1.314 . S
N377 C380 1.279 . S
C378 C376 1.353 . S
C378 C381 1.348 . S
C378 H426 0.929 . S
C379 C380 1.358 . S
C379 C381 1.356 . S
C379 H427 0.930 . S
C380 N377 1.279 . S
C380 C379 1.358 . S
C380 H383 0.930 . S
C381 C378 1.348 . S
C381 C379 1.356 . S
H382 C376 0.930 . S
H383 C380 0.930 . S
C384 C386 1.348 . S
C384 C387 1.356 . S
C384 O414 1.325 . S
N385 C388 1.314 . S
N385 C389 1.279 . S
C386 C384 1.348 . S
C386 C388 1.353 . S
C386 H428 0.929 . S
C387 C384 1.356 . S
C387 C389 1.358 . S
C387 H429 0.930 . S
C388 N385 1.314 . S
C388 C386 1.353 . S
C388 H430 0.930 . S
C389 N385 1.279 . S
C389 C387 1.358 . S
C389 H431 0.930 . S
C390 C391 1.348 . S
C390 C392 1.356 . S
C390 O415 1.325 . S
C391 C390 1.348 . S
C391 C393 1.353 . S
C391 H432 0.929 . S
C392 C390 1.356 . S
C392 C394 1.358 . S
C392 H433 0.930 . S
C393 C391 1.353 . S
C393 N395 1.314 . S
C393 H434 0.930 . S
C394 C392 1.358 . S
C394 N395 1.279 . S
C394 H435 0.930 . S
N395 C393 1.314 . S
N395 C394 1.279 . S
C396 C398 1.353 . S
C396 N399 1.314 . S
C396 H402 0.930 . S
C397 N399 1.279 . S
C397 C400 1.358 . S
C397 H403 0.930 . S
C398 C396 1.353 . S
C398 C401 1.348 . S
C398 H436 0.929 . S
N399 Li354 1.990 . S
N399 C396 1.314 . S
N399 C397 1.279 . S
C400 C397 1.358 . S
C400 C401 1.356 . S
C400 H437 0.930 . S
C401 C398 1.348 . S
C401 C400 1.356 . S
H402 C396 0.930 . S
H403 C397 0.930 . S
C404 N405 1.314 . S
C404 C406 1.353 . S
C404 H410 0.930 . S
N405 Li355 1.990 . S
N405 C404 1.314 . S
N405 C408 1.279 . S
C406 C404 1.353 . S
C406 C409 1.348 . S
C406 H438 0.929 . S
C407 C408 1.358 . S
C407 C409 1.356 . S
C407 H439 0.930 . S
C408 N405 1.279 . S
C408 C407 1.358 . S
C408 H411 0.930 . S
C409 C406 1.348 . S
C409 C407 1.356 . S
H410 C404 0.930 . S
H411 C408 0.930 . S
O412 Li352 1.956 . S
O412 Li353 1.970 . S
O412 Li354 1.961 . S
O412 C356 1.325 . S
O413 Li352 1.970 . S
O413 Li353 1.956 . S
O413 Li355 1.961 . S
O413 C362 1.325 . S
O414 Li352 1.961 . S
O414 Li354 1.956 . S
O414 Li355 1.970 . S
O414 C384 1.325 . S
O415 Li353 1.961 . S
O415 Li354 1.970 . S
O415 Li355 1.956 . S
O415 C390 1.325 . S
H416 C358 0.929 . S
H417 C359 0.930 . S
H418 C360 0.930 . S
H419 C361 0.930 . S
H420 C363 0.930 . S
H421 C365 0.929 . S
H422 C366 0.930 . S
H423 C367 0.930 . S
H424 C370 0.930 . S
H425 C373 0.929 . S
H426 C378 0.929 . S
H427 C379 0.930 . S
H428 C386 0.929 . S
H429 C387 0.930 . S
H430 C388 0.930 . S
H431 C389 0.930 . S
H432 C391 0.929 . S
H433 C392 0.930 . S
H434 C393 0.930 . S
H435 C394 0.930 . S
H436 C398 0.929 . S
H437 C400 0.930 . S
H438 C406 0.929 . S
H439 C407 0.930 . S
Li440 N457 1.990 . S
Li440 O500 1.956 . S
Li440 O501 1.970 . S
Li440 O502 1.961 . S
Li441 N465 1.990 . S
Li441 O500 1.970 . S
Li441 O501 1.956 . S
Li441 O503 1.961 . S
Li442 N487 1.990 . S
Li442 O500 1.961 . S
Li442 O502 1.956 . S
Li442 O503 1.970 . S
Li443 N493 1.990 . S
Li443 O501 1.961 . S
Li443 O502 1.970 . S
Li443 O503 1.956 . S
C444 C446 1.348 . S
C444 C447 1.356 . S
C444 O500 1.325 . S
N445 C448 1.314 . S
N445 C449 1.279 . S
C446 C444 1.348 . S
C446 C448 1.353 . S
C446 H504 0.929 . S
C447 C444 1.356 . S
C447 C449 1.358 . S
C447 H505 0.930 . S
C448 N445 1.314 . S
C448 C446 1.353 . S
C448 H506 0.930 . S
C449 N445 1.279 . S
C449 C447 1.358 . S
C449 H507 0.930 . S
C450 C453 1.348 . S
C450 C454 1.356 . S
C450 O501 1.325 . S
C451 N452 1.279 . S
C451 C454 1.358 . S
C451 H508 0.930 . S
N452 C451 1.279 . S
N452 C455 1.314 . S
C453 C450 1.348 . S
C453 C455 1.353 . S
C453 H509 0.929 . S
C454 C450 1.356 . S
C454 C451 1.358 . S
C454 H510 0.930 . S
C455 N452 1.314 . S
C455 C453 1.353 . S
C455 H511 0.930 . S
C456 N457 1.314 . S
C456 C461 1.353 . S
C456 H462 0.930 . S
N457 Li440 1.990 . S
N457 C456 1.314 . S
N457 C459 1.279 . S
C458 C459 1.358 . S
C458 C460 1.356 . S
C458 H512 0.930 . S
C459 N457 1.279 . S
C459 C458 1.358 . S
C459 H463 0.930 . S
C460 C458 1.356 . S
C460 C461 1.348 . S
C461 C456 1.353 . S
C461 C460 1.348 . S
C461 H513 0.929 . S
H462 C456 0.930 . S
H463 C459 0.930 . S
C464 N465 1.314 . S
C464 C466 1.353 . S
C464 H470 0.930 . S
N465 Li441 1.990 . S
N465 C464 1.314 . S
N465 C468 1.279 . S
C466 C464 1.353 . S
C466 C469 1.348 . S
C466 H514 0.929 . S
C467 C468 1.358 . S
C467 C469 1.356 . S
C467 H515 0.930 . S
C468 N465 1.279 . S
C468 C467 1.358 . S
C468 H471 0.930 . S
C469 C466 1.348 . S
C469 C467 1.356 . S
H470 C464 0.930 . S
H471 C468 0.930 . S
C472 C474 1.348 . S
C472 C475 1.356 . S
C472 O502 1.325 . S
N473 C476 1.314 . S
N473 C477 1.279 . S
C474 C472 1.348 . S
C474 C476 1.353 . S
C474 H516 0.929 . S
C475 C472 1.356 . S
C475 C477 1.358 . S
C475 H517 0.930 . S
C476 N473 1.314 . S
C476 C474 1.353 . S
C476 H518 0.930 . S
C477 N473 1.279 . S
C477 C475 1.358 . S
C477 H519 0.930 . S
C478 C479 1.348 . S
C478 C480 1.356 . S
C478 O503 1.325 . S
C479 C478 1.348 . S
C479 C481 1.353 . S
C479 H520 0.929 . S
C480 C478 1.356 . S
C480 C482 1.358 . S
C480 H521 0.930 . S
C481 C479 1.353 . S
C481 N483 1.314 . S
C481 H522 0.950 . S
C482 C480 1.358 . S
C482 N483 1.279 . S
C482 H523 0.930 . S
N483 C481 1.314 . S
N483 C482 1.279 . S
C484 C486 1.353 . S
C484 N487 1.314 . S
C484 H490 0.930 . S
C485 N487 1.279 . S
C485 C488 1.358 . S
C485 H491 0.930 . S
C486 C484 1.353 . S
C486 C489 1.348 . S
C486 H524 0.929 . S
N487 Li442 1.990 . S
N487 C484 1.314 . S
N487 C485 1.279 . S
C488 C485 1.358 . S
C488 C489 1.356 . S
C488 H525 0.930 . S
C489 C486 1.348 . S
C489 C488 1.356 . S
H490 C484 0.930 . S
H491 C485 0.930 . S
C492 N493 1.314 . S
C492 C494 1.353 . S
C492 H498 0.930 . S
N493 Li443 1.990 . S
N493 C492 1.314 . S
N493 C496 1.279 . S
C494 C492 1.353 . S
C494 C497 1.348 . S
C494 H526 0.929 . S
C495 C496 1.358 . S
C495 C497 1.356 . S
C495 H527 0.930 1_545 S
C496 N493 1.279 . S
C496 C495 1.358 . S
C496 H499 0.930 . S
C497 C494 1.348 . S
C497 C495 1.356 . S
H498 C492 0.930 . S
H499 C496 0.930 . S
O500 Li440 1.956 . S
O500 Li441 1.970 . S
O500 Li442 1.961 . S
O500 C444 1.325 . S
O501 Li440 1.970 . S
O501 Li441 1.956 . S
O501 Li443 1.961 . S
O501 C450 1.325 . S
O502 Li440 1.961 . S
O502 Li442 1.956 . S
O502 Li443 1.970 . S
O502 C472 1.325 . S
O503 Li441 1.961 . S
O503 Li442 1.970 . S
O503 Li443 1.956 . S
O503 C478 1.325 . S
H504 C446 0.929 . S
H505 C447 0.930 . S
H506 C448 0.930 . S
H507 C449 0.930 . S
H508 C451 0.930 . S
H509 C453 0.929 . S
H510 C454 0.930 . S
H511 C455 0.930 . S
H512 C458 0.930 . S
H513 C461 0.929 . S
H514 C466 0.929 . S
H515 C467 0.930 . S
H516 C474 0.929 . S
H517 C475 0.930 . S
H518 C476 0.930 . S
H519 C477 0.930 . S
H520 C479 0.929 . S
H521 C480 0.930 . S
H522 C481 0.950 . S
H523 C482 0.930 . S
H524 C486 0.929 . S
H525 C488 0.930 . S
H526 C494 0.929 . S
H527 C495 0.930 1_565 S
Li528 N545 1.990 . S
Li528 O588 1.956 . S
Li528 O589 1.970 . S
Li528 O590 1.961 . S
Li529 N553 1.990 . S
Li529 O588 1.970 . S
Li529 O589 1.956 . S
Li529 O591 1.961 . S
Li530 N575 1.990 . S
Li530 O588 1.961 . S
Li530 O590 1.956 . S
Li530 O591 1.970 . S
Li531 N581 1.990 . S
Li531 O589 1.961 . S
Li531 O590 1.970 . S
Li531 O591 1.956 . S
C532 C534 1.348 . S
C532 C535 1.356 . S
C532 O588 1.325 . S
N533 C536 1.314 . S
N533 C537 1.279 . S
C534 C532 1.348 . S
C534 C536 1.353 . S
C534 H592 0.929 . S
C535 C532 1.356 . S
C535 C537 1.358 . S
C535 H593 0.930 . S
C536 N533 1.314 . S
C536 C534 1.353 . S
C536 H594 0.930 . S
C537 N533 1.279 . S
C537 C535 1.358 . S
C537 H595 0.930 . S
C538 C541 1.348 . S
C538 C542 1.356 . S
C538 O589 1.325 . S
C539 N540 1.279 . S
C539 C542 1.358 . S
C539 H596 0.930 . S
N540 C539 1.279 . S
N540 C543 1.314 . S
C541 C538 1.348 . S
C541 C543 1.353 . S
C541 H597 0.929 . S
C542 C538 1.356 . S
C542 C539 1.358 . S
C542 H598 0.930 . S
C543 N540 1.314 . S
C543 C541 1.353 . S
C543 H599 0.930 . S
C544 N545 1.314 . S
C544 C549 1.353 . S
C544 H550 0.930 . S
N545 Li528 1.990 . S
N545 C544 1.314 . S
N545 C547 1.279 . S
C546 C547 1.358 . S
C546 C548 1.356 . S
C546 H600 0.930 . S
C547 N545 1.279 . S
C547 C546 1.358 . S
C547 H551 0.930 . S
C548 C546 1.356 . S
C548 C549 1.348 . S
C549 C544 1.353 . S
C549 C548 1.348 . S
C549 H601 0.929 . S
H550 C544 0.930 . S
H551 C547 0.930 . S
C552 N553 1.314 . S
C552 C554 1.353 . S
C552 H558 0.930 . S
N553 Li529 1.990 . S
N553 C552 1.314 . S
N553 C556 1.279 . S
C554 C552 1.353 . S
C554 C557 1.348 . S
C554 H602 0.929 . S
C555 C556 1.358 . S
C555 C557 1.356 . S
C555 H603 0.930 . S
C556 N553 1.279 . S
C556 C555 1.358 . S
C556 H559 0.930 . S
C557 C554 1.348 . S
C557 C555 1.356 . S
H558 C552 0.930 . S
H559 C556 0.930 . S
C560 C562 1.348 . S
C560 C563 1.356 . S
C560 O590 1.325 . S
N561 C564 1.314 . S
N561 C565 1.279 . S
C562 C560 1.348 . S
C562 C564 1.353 . S
C562 H604 0.929 . S
C563 C560 1.356 . S
C563 C565 1.358 . S
C563 H605 0.930 . S
C564 N561 1.314 . S
C564 C562 1.353 . S
C564 H606 0.930 . S
C565 N561 1.279 . S
C565 C563 1.358 . S
C565 H607 0.930 . S
C566 C567 1.348 . S
C566 C568 1.356 . S
C566 O591 1.325 . S
C567 C566 1.348 . S
C567 C569 1.353 . S
C567 H608 0.929 . S
C568 C566 1.356 . S
C568 C570 1.358 . S
C568 H609 0.930 . S
C569 C567 1.353 . S
C569 N571 1.314 . S
C569 H610 0.930 . S
C570 C568 1.358 . S
C570 N571 1.279 . S
C570 H611 0.930 . S
N571 C569 1.314 . S
N571 C570 1.279 . S
C572 C574 1.353 . S
C572 N575 1.314 . S
C572 H578 0.930 . S
C573 N575 1.279 . S
C573 C576 1.358 . S
C573 H579 0.930 . S
C574 C572 1.353 . S
C574 C577 1.348 . S
C574 H612 0.929 . S
N575 Li530 1.990 . S
N575 C572 1.314 . S
N575 C573 1.279 . S
C576 C573 1.358 . S
C576 C577 1.356 . S
C576 H613 0.930 . S
C577 C574 1.348 . S
C577 C576 1.356 . S
H578 C572 0.930 . S
H579 C573 0.930 . S
C580 N581 1.314 . S
C580 C582 1.353 . S
C580 H586 0.930 . S
N581 Li531 1.990 . S
N581 C580 1.314 . S
N581 C584 1.279 . S
C582 C580 1.353 . S
C582 C585 1.348 . S
C582 H614 0.929 . S
C583 C584 1.358 . S
C583 C585 1.356 . S
C583 H615 0.930 . S
C584 N581 1.279 . S
C584 C583 1.358 . S
C584 H587 0.930 . S
C585 C582 1.348 . S
C585 C583 1.356 . S
H586 C580 0.930 . S
H587 C584 0.930 . S
O588 Li528 1.956 . S
O588 Li529 1.970 . S
O588 Li530 1.961 . S
O588 C532 1.325 . S
O589 Li528 1.970 . S
O589 Li529 1.956 . S
O589 Li531 1.961 . S
O589 C538 1.325 . S
O590 Li528 1.961 . S
O590 Li530 1.956 . S
O590 Li531 1.970 . S
O590 C560 1.325 . S
O591 Li529 1.961 . S
O591 Li530 1.970 . S
O591 Li531 1.956 . S
O591 C566 1.325 . S
H592 C534 0.929 . S
H593 C535 0.930 . S
H594 C536 0.930 . S
H595 C537 0.930 . S
H596 C539 0.930 . S
H597 C541 0.929 . S
H598 C542 0.930 . S
H599 C543 0.930 . S
H600 C546 0.930 . S
H601 C549 0.929 . S
H602 C554 0.929 . S
H603 C555 0.930 . S
H604 C562 0.929 . S
H605 C563 0.930 . S
H606 C564 0.930 . S
H607 C565 0.930 . S
H608 C567 0.929 . S
H609 C568 0.930 . S
H610 C569 0.930 . S
H611 C570 0.930 . S
H612 C574 0.929 . S
H613 C576 0.930 . S
H614 C582 0.929 . S
H615 C583 0.930 . S
Li616 N633 1.990 . S
Li616 O676 1.956 . S
Li616 O677 1.970 . S
Li616 O678 1.961 . S
Li617 N641 1.990 . S
Li617 O676 1.970 . S
Li617 O677 1.956 . S
Li617 O679 1.961 . S
Li618 N663 1.990 . S
Li618 O676 1.961 . S
Li618 O678 1.956 . S
Li618 O679 1.970 . S
Li619 N669 1.990 . S
Li619 O677 1.961 . S
Li619 O678 1.970 . S
Li619 O679 1.956 . S
C620 C622 1.348 . S
C620 C623 1.356 . S
C620 O676 1.325 . S
N621 C624 1.314 . S
N621 C625 1.279 . S
C622 C620 1.348 . S
C622 C624 1.353 . S
C622 H680 0.929 . S
C623 C620 1.356 . S
C623 C625 1.358 . S
C623 H681 0.930 . S
C624 N621 1.314 . S
C624 C622 1.353 . S
C624 H682 0.950 . S
C625 N621 1.279 . S
C625 C623 1.358 . S
C625 H683 0.930 . S
C626 C629 1.348 . S
C626 C630 1.356 . S
C626 O677 1.325 . S
C627 N628 1.279 . S
C627 C630 1.358 . S
C627 H684 0.930 . S
N628 C627 1.279 . S
N628 C631 1.314 . S
C629 C626 1.348 . S
C629 C631 1.353 . S
C629 H685 0.929 . S
C630 C626 1.356 . S
C630 C627 1.358 . S
C630 H686 0.930 . S
C631 N628 1.314 . S
C631 C629 1.353 . S
C631 H687 0.930 . S
C632 N633 1.314 . S
C632 C637 1.353 . S
C632 H638 0.930 . S
N633 Li616 1.990 . S
N633 C632 1.314 . S
N633 C635 1.279 . S
C634 C635 1.358 . S
C634 C636 1.356 . S
C634 H688 0.930 1_565 S
C635 N633 1.279 . S
C635 C634 1.358 . S
C635 H639 0.930 . S
C636 C634 1.356 . S
C636 C637 1.348 . S
C637 C632 1.353 . S
C637 C636 1.348 . S
C637 H689 0.929 . S
H638 C632 0.930 . S
H639 C635 0.930 . S
C640 N641 1.314 . S
C640 C642 1.353 . S
C640 H646 0.930 . S
N641 Li617 1.990 . S
N641 C640 1.314 . S
N641 C644 1.279 . S
C642 C640 1.353 . S
C642 C645 1.348 . S
C642 H690 0.929 . S
C643 C644 1.358 . S
C643 C645 1.356 . S
C643 H691 0.930 . S
C644 N641 1.279 . S
C644 C643 1.358 . S
C644 H647 0.930 . S
C645 C642 1.348 . S
C645 C643 1.356 . S
H646 C640 0.930 . S
H647 C644 0.930 . S
C648 C650 1.348 . S
C648 C651 1.356 . S
C648 O678 1.325 . S
N649 C652 1.314 . S
N649 C653 1.279 . S
C650 C648 1.348 . S
C650 C652 1.353 . S
C650 H692 0.929 . S
C651 C648 1.356 . S
C651 C653 1.358 . S
C651 H693 0.930 . S
C652 N649 1.314 . S
C652 C650 1.353 . S
C652 H694 0.930 . S
C653 N649 1.279 . S
C653 C651 1.358 . S
C653 H695 0.930 . S
C654 C655 1.348 . S
C654 C656 1.356 . S
C654 O679 1.325 . S
C655 C654 1.348 . S
C655 C657 1.353 . S
C655 H696 0.929 . S
C656 C654 1.356 . S
C656 C658 1.358 . S
C656 H697 0.930 . S
C657 C655 1.353 . S
C657 N659 1.314 . S
C657 H698 0.930 . S
C658 C656 1.358 . S
C658 N659 1.279 . S
C658 H699 0.930 . S
N659 C657 1.314 . S
N659 C658 1.279 . S
C660 C662 1.353 . S
C660 N663 1.314 . S
C660 H666 0.930 . S
C661 N663 1.279 . S
C661 C664 1.358 . S
C661 H667 0.930 . S
C662 C660 1.353 . S
C662 C665 1.348 . S
C662 H700 0.929 . S
N663 Li618 1.990 . S
N663 C660 1.314 . S
N663 C661 1.279 . S
C664 C661 1.358 . S
C664 C665 1.356 . S
C664 H701 0.930 . S
C665 C662 1.348 . S
C665 C664 1.356 . S
H666 C660 0.930 . S
H667 C661 0.930 . S
C668 N669 1.314 . S
C668 C670 1.353 . S
C668 H674 0.930 . S
N669 Li619 1.990 . S
N669 C668 1.314 . S
N669 C672 1.279 . S
C670 C668 1.353 . S
C670 C673 1.348 . S
C670 H702 0.929 . S
C671 C672 1.358 . S
C671 C673 1.356 . S
C671 H703 0.930 . S
C672 N669 1.279 . S
C672 C671 1.358 . S
C672 H675 0.930 . S
C673 C670 1.348 . S
C673 C671 1.356 . S
H674 C668 0.930 . S
H675 C672 0.930 . S
O676 Li616 1.956 . S
O676 Li617 1.970 . S
O676 Li618 1.961 . S
O676 C620 1.325 . S
O677 Li616 1.970 . S
O677 Li617 1.956 . S
O677 Li619 1.961 . S
O677 C626 1.325 . S
O678 Li616 1.961 . S
O678 Li618 1.956 . S
O678 Li619 1.970 . S
O678 C648 1.325 . S
O679 Li617 1.961 . S
O679 Li618 1.970 . S
O679 Li619 1.956 . S
O679 C654 1.325 . S
H680 C622 0.929 . S
H681 C623 0.930 . S
H682 C624 0.950 . S
H683 C625 0.930 . S
H684 C627 0.930 . S
H685 C629 0.929 . S
H686 C630 0.930 . S
H687 C631 0.930 . S
H688 C634 0.930 1_545 S
H689 C637 0.929 . S
H690 C642 0.929 . S
H691 C643 0.930 . S
H692 C650 0.929 . S
H693 C651 0.930 . S
H694 C652 0.930 . S
H695 C653 0.930 . S
H696 C655 0.929 . S
H697 C656 0.930 . S
H698 C657 0.930 . S
H699 C658 0.930 . S
H700 C662 0.929 . S
H701 C664 0.930 . S
H702 C670 0.929 . S
H703 C671 0.930 . S
C704 C705 1.349 . S
C704 C706 1.327 . S
C704 H729 0.950 . S
C705 C704 1.349 . S
C705 C721 1.349 . S
C706 C704 1.327 . S
C706 C725 1.429 . S
C706 H730 0.950 . S
C707 C724 1.574 1_455 S
C707 C726 1.368 . S
C707 H731 0.949 . S
H708 C712 0.949 . S
C709 C710 1.349 . S
C709 C711 1.327 . S
C709 H732 0.950 . S
C710 C709 1.349 . S
C710 C722 1.349 . S
C711 C709 1.327 . S
C711 C727 1.429 . S
C711 H733 0.950 . S
C712 H708 0.949 . S
C712 C720 1.574 1_655 S
C712 C728 1.368 . S
H713 C721 0.950 . S
H714 C719 0.950 . S
H715 C720 0.949 . S
H716 C722 0.950 . S
H717 C723 0.950 . S
H718 C724 0.949 . S
C719 H714 0.950 . S
C719 C721 1.327 . S
C719 C725 1.429 . S
C720 C712 1.574 1_455 S
C720 H715 0.949 . S
C720 C726 1.368 1_565 S
C721 C705 1.349 . S
C721 H713 0.950 . S
C721 C719 1.327 . S
C722 C710 1.349 . S
C722 H716 0.950 . S
C722 C723 1.327 . S
C723 H717 0.950 . S
C723 C722 1.327 . S
C723 C727 1.429 . S
C724 C707 1.574 1_655 S
C724 H718 0.949 . S
C724 C728 1.368 1_545 S
C725 C706 1.429 . S
C725 C719 1.429 . S
C725 C726 1.523 . S
C726 C707 1.368 . S
C726 C720 1.368 1_545 S
C726 C725 1.523 . S
C727 C711 1.429 . S
C727 C723 1.429 . S
C727 C728 1.523 . S
C728 C712 1.368 . S
C728 C724 1.368 1_565 S
C728 C727 1.523 . S
H729 C704 0.950 . S
H730 C706 0.950 . S
H731 C707 0.949 . S
H732 C709 0.950 . S
H733 C711 0.950 . S
C734 C735 1.349 . S
C734 C736 1.327 . S
C734 H759 0.950 . S
C735 C734 1.349 . S
C735 C751 1.349 . S
C736 C734 1.327 . S
C736 C755 1.429 . S
C736 H760 0.950 . S
C737 C754 1.574 . S
C737 C756 1.368 . S
C737 H761 0.949 . S
H738 C742 0.949 . S
C739 C740 1.349 . S
C739 C741 1.327 . S
C739 H762 0.950 . S
C740 C739 1.349 . S
C740 C752 1.349 . S
C741 C739 1.327 . S
C741 C757 1.429 . S
C741 H763 0.950 . S
C742 H738 0.949 . S
C742 C750 1.574 . S
C742 C758 1.368 . S
H743 C751 0.950 . S
H744 C749 0.950 . S
H745 C750 0.949 . S
H746 C752 0.950 . S
H747 C753 0.950 . S
H748 C754 0.949 . S
C749 H744 0.950 . S
C749 C751 1.327 . S
C749 C755 1.429 . S
C750 C742 1.574 . S
C750 H745 0.949 . S
C750 C756 1.368 . S
C751 C735 1.349 . S
C751 H743 0.950 . S
C751 C749 1.327 . S
C752 C740 1.349 . S
C752 H746 0.950 . S
C752 C753 1.327 . S
C753 H747 0.950 . S
C753 C752 1.327 . S
C753 C757 1.429 . S
C754 C737 1.574 . S
C754 H748 0.949 . S
C754 C758 1.368 . S
C755 C736 1.429 . S
C755 C749 1.429 . S
C755 C756 1.523 . S
C756 C737 1.368 . S
C756 C750 1.368 . S
C756 C755 1.523 . S
C757 C741 1.429 . S
C757 C753 1.429 . S
C757 C758 1.523 . S
C758 C742 1.368 . S
C758 C754 1.368 . S
C758 C757 1.523 . S
H759 C734 0.950 . S
H760 C736 0.950 . S
H761 C737 0.949 . S
H762 C739 0.950 . S
H763 C741 0.950 . S
C764 C765 1.349 . S
C764 C766 1.327 . S
C764 H789 0.950 . S
C765 C764 1.349 . S
C765 C781 1.349 . S
C766 C764 1.327 . S
C766 C785 1.429 . S
C766 H790 0.950 . S
C767 C784 1.574 . S
C767 C786 1.368 . S
C767 H791 0.949 . S
H768 C772 0.949 . S
C769 C770 1.349 . S
C769 C771 1.327 . S
C769 H792 0.950 . S
C770 C769 1.349 . S
C770 C782 1.349 . S
C771 C769 1.327 . S
C771 C787 1.429 . S
C771 H793 0.950 . S
C772 H768 0.949 . S
C772 C780 1.574 . S
C772 C788 1.368 . S
H773 C781 0.950 . S
H774 C779 0.950 . S
H775 C780 0.949 . S
H776 C782 0.950 . S
H777 C783 0.950 . S
H778 C784 0.949 . S
C779 H774 0.950 . S
C779 C781 1.327 . S
C779 C785 1.429 . S
C780 C772 1.574 . S
C780 H775 0.949 . S
C780 C786 1.368 . S
C781 C765 1.349 . S
C781 H773 0.950 . S
C781 C779 1.327 . S
C782 C770 1.349 . S
C782 H776 0.950 . S
C782 C783 1.327 . S
C783 H777 0.950 . S
C783 C782 1.327 . S
C783 C787 1.429 . S
C784 C767 1.574 . S
C784 H778 0.949 . S
C784 C788 1.368 . S
C785 C766 1.429 . S
C785 C779 1.429 . S
C785 C786 1.523 . S
C786 C767 1.368 . S
C786 C780 1.368 . S
C786 C785 1.523 . S
C787 C771 1.429 . S
C787 C783 1.429 . S
C787 C788 1.523 . S
C788 C772 1.368 . S
C788 C784 1.368 . S
C788 C787 1.523 . S
H789 C764 0.950 . S
H790 C766 0.950 . S
H791 C767 0.949 . S
H792 C769 0.950 . S
H793 C771 0.950 . S
C794 C795 1.349 . S
C794 C796 1.327 . S
C794 H819 0.950 . S
C795 C794 1.349 . S
C795 C811 1.349 . S
C796 C794 1.327 . S
C796 C815 1.429 . S
C796 H820 0.950 . S
C797 C814 1.574 1_545 S
C797 C816 1.368 1_655 S
C797 H821 0.949 . S
H798 C802 0.949 . S
C799 C800 1.349 . S
C799 C801 1.327 . S
C799 H822 0.950 . S
C800 C799 1.349 . S
C800 C812 1.349 . S
C801 C799 1.327 . S
C801 C817 1.429 . S
C801 H823 0.950 . S
C802 H798 0.949 . S
C802 C810 1.574 1_565 S
C802 C818 1.368 1_455 S
H803 C811 0.950 . S
H804 C809 0.950 . S
H805 C810 0.949 . S
H806 C812 0.950 . S
H807 C813 0.950 . S
H808 C814 0.949 . S
C809 H804 0.950 . S
C809 C811 1.327 . S
C809 C815 1.429 . S
C810 C802 1.574 1_545 S
C810 H805 0.949 . S
C810 C816 1.368 . S
C811 C795 1.349 . S
C811 H803 0.950 . S
C811 C809 1.327 . S
C812 C800 1.349 . S
C812 H806 0.950 . S
C812 C813 1.327 . S
C813 H807 0.950 . S
C813 C812 1.327 . S
C813 C817 1.429 . S
C814 C797 1.574 1_565 S
C814 H808 0.949 . S
C814 C818 1.368 . S
C815 C796 1.429 . S
C815 C809 1.429 . S
C815 C816 1.523 . S
C816 C797 1.368 1_455 S
C816 C810 1.368 . S
C816 C815 1.523 . S
C817 C801 1.429 . S
C817 C813 1.429 . S
C817 C818 1.523 . S
C818 C802 1.368 1_655 S
C818 C814 1.368 . S
C818 C817 1.523 . S
H819 C794 0.950 . S
H820 C796 0.950 . S
H821 C797 0.949 . S
H822 C799 0.950 . S
H823 C801 0.950 . S
C824 C825 1.349 . S
C824 C826 1.327 . S
C824 H849 0.950 . S
C825 C824 1.349 . S
C825 C841 1.349 . S
C826 C824 1.327 . S
C826 C845 1.429 . S
C826 H850 0.950 . S
C827 C844 1.574 . S
C827 C846 1.368 . S
C827 H851 0.949 . S
H828 C832 0.949 . S
C829 C830 1.349 . S
C829 C831 1.327 . S
C829 H852 0.950 . S
C830 C829 1.349 . S
C830 C842 1.349 . S
C831 C829 1.327 . S
C831 C847 1.429 . S
C831 H853 0.950 . S
C832 H828 0.949 . S
C832 C840 1.574 . S
C832 C848 1.368 . S
H833 C841 0.950 . S
H834 C839 0.950 . S
H835 C840 0.949 . S
H836 C842 0.950 . S
H837 C843 0.950 . S
H838 C844 0.949 . S
C839 H834 0.950 . S
C839 C841 1.327 . S
C839 C845 1.429 . S
C840 C832 1.574 . S
C840 H835 0.949 . S
C840 C846 1.368 . S
C841 C825 1.349 . S
C841 H833 0.950 . S
C841 C839 1.327 . S
C842 C830 1.349 . S
C842 H836 0.950 . S
C842 C843 1.327 . S
C843 H837 0.950 . S
C843 C842 1.327 . S
C843 C847 1.429 . S
C844 C827 1.574 . S
C844 H838 0.949 . S
C844 C848 1.368 . S
C845 C826 1.429 . S
C845 C839 1.429 . S
C845 C846 1.523 . S
C846 C827 1.368 . S
C846 C840 1.368 . S
C846 C845 1.523 . S
C847 C831 1.429 . S
C847 C843 1.429 . S
C847 C848 1.523 . S
C848 C832 1.368 . S
C848 C844 1.368 . S
C848 C847 1.523 . S
H849 C824 0.950 . S
H850 C826 0.950 . S
H851 C827 0.949 . S
H852 C829 0.950 . S
H853 C831 0.950 . S
C854 C855 1.349 . S
C854 C856 1.327 . S
C854 H879 0.950 . S
C855 C854 1.349 . S
C855 C871 1.349 . S
C856 C854 1.327 . S
C856 C875 1.429 . S
C856 H880 0.950 . S
C857 C874 1.574 1_556 S
C857 C876 1.368 . S
C857 H881 0.949 . S
H858 C862 0.949 . S
C859 C860 1.349 . S
C859 C861 1.327 . S
C859 H882 0.950 . S
C860 C859 1.349 . S
C860 C872 1.349 . S
C861 C859 1.327 . S
C861 C877 1.429 . S
C861 H883 0.950 . S
C862 H858 0.949 . S
C862 C870 1.574 1_554 S
C862 C878 1.368 . S
H863 C871 0.950 . S
H864 C869 0.950 . S
H865 C870 0.949 . S
H866 C872 0.950 . S
H867 C873 0.950 . S
H868 C874 0.949 . S
C869 H864 0.950 . S
C869 C871 1.327 . S
C869 C875 1.429 . S
C870 C862 1.574 1_556 S
C870 H865 0.949 . S
C870 C876 1.368 . S
C871 C855 1.349 . S
C871 H863 0.950 . S
C871 C869 1.327 . S
C872 C860 1.349 . S
C872 H866 0.950 . S
C872 C873 1.327 . S
C873 H867 0.950 . S
C873 C872 1.327 . S
C873 C877 1.429 . S
C874 C857 1.574 1_554 S
C874 H868 0.949 . S
C874 C878 1.368 . S
C875 C856 1.429 . S
C875 C869 1.429 . S
C875 C876 1.523 . S
C876 C857 1.368 . S
C876 C870 1.368 . S
C876 C875 1.523 . S
C877 C861 1.429 . S
C877 C873 1.429 . S
C877 C878 1.523 . S
C878 C862 1.368 . S
C878 C874 1.368 . S
C878 C877 1.523 . S
H879 C854 0.950 . S
H880 C856 0.950 . S
H881 C857 0.949 . S
H882 C859 0.950 . S
H883 C861 0.950 . S
C884 C885 1.349 . S
C884 C886 1.327 . S
C884 H909 0.950 . S
C885 C884 1.349 . S
C885 C901 1.349 . S
C886 C884 1.327 . S
C886 C905 1.429 . S
C886 H910 0.950 . S
C887 C904 1.574 . S
C887 C906 1.368 . S
C887 H911 0.949 . S
H888 C892 0.949 . S
C889 C890 1.349 . S
C889 C891 1.327 . S
C889 H912 0.950 . S
C890 C889 1.349 . S
C890 C902 1.349 . S
C891 C889 1.327 . S
C891 C907 1.429 . S
C891 H913 0.950 . S
C892 H888 0.949 . S
C892 C900 1.574 . S
C892 C908 1.368 . S
H893 C901 0.950 . S
H894 C899 0.950 . S
H895 C900 0.949 . S
H896 C902 0.950 . S
H897 C903 0.950 . S
H898 C904 0.949 . S
C899 H894 0.950 . S
C899 C901 1.327 . S
C899 C905 1.429 . S
C900 C892 1.574 . S
C900 H895 0.949 . S
C900 C906 1.368 . S
C901 C885 1.349 . S
C901 H893 0.950 . S
C901 C899 1.327 . S
C902 C890 1.349 . S
C902 H896 0.950 . S
C902 C903 1.327 . S
C903 H897 0.950 . S
C903 C902 1.327 . S
C903 C907 1.429 . S
C904 C887 1.574 . S
C904 H898 0.949 . S
C904 C908 1.368 . S
C905 C886 1.429 . S
C905 C899 1.429 . S
C905 C906 1.523 . S
C906 C887 1.368 . S
C906 C900 1.368 . S
C906 C905 1.523 . S
C907 C891 1.429 . S
C907 C903 1.429 . S
C907 C908 1.523 . S
C908 C892 1.368 . S
C908 C904 1.368 . S
C908 C907 1.523 . S
H909 C884 0.950 . S
H910 C886 0.950 . S
H911 C887 0.949 . S
H912 C889 0.950 . S
H913 C891 0.950 . S
C914 C915 1.349 . S
C914 C916 1.327 . S
C914 H939 0.950 . S
C915 C914 1.349 . S
C915 C931 1.349 . S
C916 C914 1.327 . S
C916 C935 1.429 . S
C916 H940 0.950 . S
C917 C934 1.574 1_556 S
C917 C936 1.368 . S
C917 H941 0.949 . S
H918 C922 0.949 . S
C919 C920 1.349 . S
C919 C921 1.327 . S
C919 H942 0.950 . S
C920 C919 1.349 . S
C920 C932 1.349 . S
C921 C919 1.327 . S
C921 C937 1.429 . S
C921 H943 0.950 . S
C922 H918 0.949 . S
C922 C930 1.574 1_554 S
C922 C938 1.368 . S
H923 C931 0.950 . S
H924 C929 0.950 . S
H925 C930 0.949 . S
H926 C932 0.950 . S
H927 C933 0.950 . S
H928 C934 0.949 . S
C929 H924 0.950 . S
C929 C931 1.327 . S
C929 C935 1.429 . S
C930 C922 1.574 1_556 S
C930 H925 0.949 . S
C930 C936 1.368 . S
C931 C915 1.349 . S
C931 H923 0.950 . S
C931 C929 1.327 . S
C932 C920 1.349 . S
C932 H926 0.950 . S
C932 C933 1.327 . S
C933 H927 0.950 . S
C933 C932 1.327 . S
C933 C937 1.429 . S
C934 C917 1.574 1_554 S
C934 H928 0.949 . S
C934 C938 1.368 . S
C935 C916 1.429 . S
C935 C929 1.429 . S
C935 C936 1.523 . S
C936 C917 1.368 . S
C936 C930 1.368 . S
C936 C935 1.523 . S
C937 C921 1.429 . S
C937 C933 1.429 . S
C937 C938 1.523 . S
C938 C922 1.368 . S
C938 C934 1.368 . S
C938 C937 1.523 . S
H939 C914 0.950 . S
H940 C916 0.950 . S
H941 C917 0.949 . S
H942 C919 0.950 . S
H943 C921 0.950 . S
C944 C945 1.349 . S
C944 C946 1.327 . S
C944 H969 0.950 . S
C945 C944 1.349 . S
C945 C961 1.349 . S
C946 C944 1.327 . S
C946 C965 1.429 . S
C946 H970 0.950 . S
C947 C964 1.574 . S
C947 C966 1.368 . S
C947 H971 0.949 . S
H948 C952 0.949 . S
C949 C950 1.349 . S
C949 C951 1.327 . S
C949 H972 0.950 . S
C950 C949 1.349 . S
C950 C962 1.349 . S
C951 C949 1.327 . S
C951 C967 1.429 . S
C951 H973 0.950 . S
C952 H948 0.949 . S
C952 C960 1.574 . S
C952 C968 1.368 . S
H953 C961 0.950 . S
H954 C959 0.950 . S
H955 C960 0.949 . S
H956 C962 0.950 . S
H957 C963 0.950 . S
H958 C964 0.949 . S
C959 H954 0.950 . S
C959 C961 1.327 . S
C959 C965 1.429 . S
C960 C952 1.574 . S
C960 H955 0.949 . S
C960 C966 1.368 . S
C961 C945 1.349 . S
C961 H953 0.950 . S
C961 C959 1.327 . S
C962 C950 1.349 . S
C962 H956 0.950 . S
C962 C963 1.327 . S
C963 H957 0.950 . S
C963 C962 1.327 . S
C963 C967 1.429 . S
C964 C947 1.574 . S
C964 H958 0.949 . S
C964 C968 1.368 . S
C965 C946 1.429 . S
C965 C959 1.429 . S
C965 C966 1.523 . S
C966 C947 1.368 . S
C966 C960 1.368 . S
C966 C965 1.523 . S
C967 C951 1.429 . S
C967 C963 1.429 . S
C967 C968 1.523 . S
C968 C952 1.368 . S
C968 C964 1.368 . S
C968 C967 1.523 . S
H969 C944 0.950 . S
H970 C946 0.950 . S
H971 C947 0.949 . S
H972 C949 0.950 . S
H973 C951 0.950 . S
C974 C975 1.349 . S
C974 C976 1.327 . S
C974 H999 0.950 . S
C975 C974 1.349 . S
C975 C991 1.349 . S
C976 C974 1.327 . S
C976 C995 1.429 . S
C976 H1000 0.950 . S
C977 C994 1.574 . S
C977 C996 1.368 . S
C977 H1001 0.949 . S
H978 C982 0.949 . S
C979 C980 1.349 . S
C979 C981 1.327 . S
C979 H1002 0.950 . S
C980 C979 1.349 . S
C980 C992 1.349 . S
C981 C979 1.327 . S
C981 C997 1.429 . S
C981 H1003 0.950 . S
C982 H978 0.949 . S
C982 C990 1.574 . S
C982 C998 1.368 . S
H983 C991 0.950 . S
H984 C989 0.950 . S
H985 C990 0.949 . S
H986 C992 0.950 . S
H987 C993 0.950 . S
H988 C994 0.949 . S
C989 H984 0.950 . S
C989 C991 1.327 . S
C989 C995 1.429 . S
C990 C982 1.574 . S
C990 H985 0.949 . S
C990 C996 1.368 . S
C991 C975 1.349 . S
C991 H983 0.950 . S
C991 C989 1.327 . S
C992 C980 1.349 . S
C992 H986 0.950 . S
C992 C993 1.327 . S
C993 H987 0.950 . S
C993 C992 1.327 . S
C993 C997 1.429 . S
C994 C977 1.574 . S
C994 H988 0.949 . S
C994 C998 1.368 . S
C995 C976 1.429 . S
C995 C989 1.429 . S
C995 C996 1.523 . S
C996 C977 1.368 . S
C996 C990 1.368 . S
C996 C995 1.523 . S
C997 C981 1.429 . S
C997 C993 1.429 . S
C997 C998 1.523 . S
C998 C982 1.368 . S
C998 C994 1.368 . S
C998 C997 1.523 . S
H999 C974 0.950 . S
H1000 C976 0.950 . S
H1001 C977 0.949 . S
H1002 C979 0.950 . S
H1003 C981 0.950 . S
C1004 C1005 1.349 . S
C1004 C1006 1.327 . S
C1004 H1029 0.950 . S
C1005 C1004 1.349 . S
C1005 C1021 1.349 . S
C1006 C1004 1.327 . S
C1006 C1025 1.429 . S
C1006 H1030 0.950 . S
C1007 C1024 1.574 . S
C1007 C1026 1.368 . S
C1007 H1031 0.949 . S
H1008 C1012 0.949 . S
C1009 C1010 1.349 . S
C1009 C1011 1.327 . S
C1009 H1032 0.950 . S
C1010 C1009 1.349 . S
C1010 C1022 1.349 . S
C1011 C1009 1.327 . S
C1011 C1027 1.429 . S
C1011 H1033 0.950 . S
C1012 H1008 0.949 . S
C1012 C1020 1.574 . S
C1012 C1028 1.368 . S
H1013 C1021 0.950 . S
H1014 C1019 0.950 . S
H1015 C1020 0.949 . S
H1016 C1022 0.950 . S
H1017 C1023 0.950 . S
H1018 C1024 0.949 . S
C1019 H1014 0.950 . S
C1019 C1021 1.327 . S
C1019 C1025 1.429 . S
C1020 C1012 1.574 . S
C1020 H1015 0.949 . S
C1020 C1026 1.368 . S
C1021 C1005 1.349 . S
C1021 H1013 0.950 . S
C1021 C1019 1.327 . S
C1022 C1010 1.349 . S
C1022 H1016 0.950 . S
C1022 C1023 1.327 . S
C1023 H1017 0.950 . S
C1023 C1022 1.327 . S
C1023 C1027 1.429 . S
C1024 C1007 1.574 . S
C1024 H1018 0.949 . S
C1024 C1028 1.368 . S
C1025 C1006 1.429 . S
C1025 C1019 1.429 . S
C1025 C1026 1.523 . S
C1026 C1007 1.368 . S
C1026 C1020 1.368 . S
C1026 C1025 1.523 . S
C1027 C1011 1.429 . S
C1027 C1023 1.429 . S
C1027 C1028 1.523 . S
C1028 C1012 1.368 . S
C1028 C1024 1.368 . S
C1028 C1027 1.523 . S
H1029 C1004 0.950 . S
H1030 C1006 0.950 . S
H1031 C1007 0.949 . S
H1032 C1009 0.950 . S
H1033 C1011 0.950 . S
C1034 C1035 1.349 . S
C1034 C1036 1.327 . S
C1034 H1059 0.950 . S
C1035 C1034 1.349 . S
C1035 C1051 1.349 . S
C1036 C1034 1.327 . S
C1036 C1055 1.429 . S
C1036 H1060 0.950 . S
C1037 C1054 1.574 . S
C1037 C1056 1.368 . S
C1037 H1061 0.949 . S
H1038 C1042 0.949 . S
C1039 C1040 1.349 . S
C1039 C1041 1.327 . S
C1039 H1062 0.950 . S
C1040 C1039 1.349 . S
C1040 C1052 1.349 . S
C1041 C1039 1.327 . S
C1041 C1057 1.429 . S
C1041 H1063 0.950 . S
C1042 H1038 0.949 . S
C1042 C1050 1.574 . S
C1042 C1058 1.368 . S
H1043 C1051 0.950 . S
H1044 C1049 0.950 . S
H1045 C1050 0.949 . S
H1046 C1052 0.950 . S
H1047 C1053 0.950 . S
H1048 C1054 0.949 . S
C1049 H1044 0.950 . S
C1049 C1051 1.327 . S
C1049 C1055 1.429 . S
C1050 C1042 1.574 . S
C1050 H1045 0.949 . S
C1050 C1056 1.368 . S
C1051 C1035 1.349 . S
C1051 H1043 0.950 . S
C1051 C1049 1.327 . S
C1052 C1040 1.349 . S
C1052 H1046 0.950 . S
C1052 C1053 1.327 . S
C1053 H1047 0.950 . S
C1053 C1052 1.327 . S
C1053 C1057 1.429 . S
C1054 C1037 1.574 . S
C1054 H1048 0.949 . S
C1054 C1058 1.368 . S
C1055 C1036 1.429 . S
C1055 C1049 1.429 . S
C1055 C1056 1.523 . S
C1056 C1037 1.368 . S
C1056 C1050 1.368 . S
C1056 C1055 1.523 . S
C1057 C1041 1.429 . S
C1057 C1053 1.429 . S
C1057 C1058 1.523 . S
C1058 C1042 1.368 . S
C1058 C1054 1.368 . S
C1058 C1057 1.523 . S
H1059 C1034 0.950 . S
H1060 C1036 0.950 . S
H1061 C1037 0.949 . S
H1062 C1039 0.950 . S
H1063 C1041 0.950 . S
C1064 C1065 1.349 . S
C1064 C1066 1.327 . S
C1064 H1089 0.950 . S
C1065 C1064 1.349 . S
C1065 C1081 1.349 . S
C1066 C1064 1.327 . S
C1066 C1085 1.429 . S
C1066 H1090 0.950 . S
C1067 C1084 1.574 . S
C1067 C1086 1.368 . S
C1067 H1091 0.949 . S
H1068 C1072 0.949 . S
C1069 C1070 1.349 . S
C1069 C1071 1.327 . S
C1069 H1092 0.950 . S
C1070 C1069 1.349 . S
C1070 C1082 1.349 . S
C1071 C1069 1.327 . S
C1071 C1087 1.429 . S
C1071 H1093 0.950 . S
C1072 H1068 0.949 . S
C1072 C1080 1.574 . S
C1072 C1088 1.368 . S
H1073 C1081 0.950 . S
H1074 C1079 0.950 . S
H1075 C1080 0.949 . S
H1076 C1082 0.950 . S
H1077 C1083 0.950 . S
H1078 C1084 0.949 . S
C1079 H1074 0.950 . S
C1079 C1081 1.327 . S
C1079 C1085 1.429 . S
C1080 C1072 1.574 . S
C1080 H1075 0.949 . S
C1080 C1086 1.368 . S
C1081 C1065 1.349 . S
C1081 H1073 0.950 . S
C1081 C1079 1.327 . S
C1082 C1070 1.349 . S
C1082 H1076 0.950 . S
C1082 C1083 1.327 . S
C1083 H1077 0.950 . S
C1083 C1082 1.327 . S
C1083 C1087 1.429 . S
C1084 C1067 1.574 . S
C1084 H1078 0.949 . S
C1084 C1088 1.368 . S
C1085 C1066 1.429 . S
C1085 C1079 1.429 . S
C1085 C1086 1.523 . S
C1086 C1067 1.368 . S
C1086 C1080 1.368 . S
C1086 C1085 1.523 . S
C1087 C1071 1.429 . S
C1087 C1083 1.429 . S
C1087 C1088 1.523 . S
C1088 C1072 1.368 . S
C1088 C1084 1.368 . S
C1088 C1087 1.523 . S
H1089 C1064 0.950 . S
H1090 C1066 0.950 . S
H1091 C1067 0.949 . S
H1092 C1069 0.950 . S
H1093 C1071 0.950 . S
C1094 C1095 1.349 . S
C1094 C1096 1.327 . S
C1094 H1119 0.950 . S
C1095 C1094 1.349 . S
C1095 C1111 1.349 . S
C1096 C1094 1.327 . S
C1096 C1115 1.429 . S
C1096 H1120 0.950 . S
C1097 C1114 1.574 . S
C1097 C1116 1.368 . S
C1097 H1121 0.949 . S
H1098 C1102 0.949 . S
C1099 C1100 1.349 . S
C1099 C1101 1.327 . S
C1099 H1122 0.950 . S
C1100 C1099 1.349 . S
C1100 C1112 1.349 . S
C1101 C1099 1.327 . S
C1101 C1117 1.429 . S
C1101 H1123 0.950 . S
C1102 H1098 0.949 . S
C1102 C1110 1.574 . S
C1102 C1118 1.368 . S
H1103 C1111 0.950 . S
H1104 C1109 0.950 . S
H1105 C1110 0.949 . S
H1106 C1112 0.950 . S
H1107 C1113 0.950 . S
H1108 C1114 0.949 . S
C1109 H1104 0.950 . S
C1109 C1111 1.327 . S
C1109 C1115 1.429 . S
C1110 C1102 1.574 . S
C1110 H1105 0.949 . S
C1110 C1116 1.368 . S
C1111 C1095 1.349 . S
C1111 H1103 0.950 . S
C1111 C1109 1.327 . S
C1112 C1100 1.349 . S
C1112 H1106 0.950 . S
C1112 C1113 1.327 . S
C1113 H1107 0.950 . S
C1113 C1112 1.327 . S
C1113 C1117 1.429 . S
C1114 C1097 1.574 . S
C1114 H1108 0.949 . S
C1114 C1118 1.368 . S
C1115 C1096 1.429 . S
C1115 C1109 1.429 . S
C1115 C1116 1.523 . S
C1116 C1097 1.368 . S
C1116 C1110 1.368 . S
C1116 C1115 1.523 . S
C1117 C1101 1.429 . S
C1117 C1113 1.429 . S
C1117 C1118 1.523 . S
C1118 C1102 1.368 . S
C1118 C1114 1.368 . S
C1118 C1117 1.523 . S
H1119 C1094 0.950 . S
H1120 C1096 0.950 . S
H1121 C1097 0.949 . S
H1122 C1099 0.950 . S
H1123 C1101 0.950 . S
C1124 C1125 1.349 . S
C1124 C1126 1.327 . S
C1124 H1149 0.950 . S
C1125 C1124 1.349 . S
C1125 C1141 1.349 . S
C1126 C1124 1.327 . S
C1126 C1145 1.429 . S
C1126 H1150 0.950 . S
C1127 C1144 1.574 . S
C1127 C1146 1.368 . S
C1127 H1151 0.949 . S
H1128 C1132 0.949 . S
C1129 C1130 1.349 . S
C1129 C1131 1.327 . S
C1129 H1152 0.950 . S
C1130 C1129 1.349 . S
C1130 C1142 1.349 . S
C1131 C1129 1.327 . S
C1131 C1147 1.429 . S
C1131 H1153 0.950 . S
C1132 H1128 0.949 . S
C1132 C1140 1.574 . S
C1132 C1148 1.368 . S
H1133 C1141 0.950 . S
H1134 C1139 0.950 . S
H1135 C1140 0.949 . S
H1136 C1142 0.950 . S
H1137 C1143 0.950 . S
H1138 C1144 0.949 . S
C1139 H1134 0.950 . S
C1139 C1141 1.327 . S
C1139 C1145 1.429 . S
C1140 C1132 1.574 . S
C1140 H1135 0.949 . S
C1140 C1146 1.368 . S
C1141 C1125 1.349 . S
C1141 H1133 0.950 . S
C1141 C1139 1.327 . S
C1142 C1130 1.349 . S
C1142 H1136 0.950 . S
C1142 C1143 1.327 . S
C1143 H1137 0.950 . S
C1143 C1142 1.327 . S
C1143 C1147 1.429 . S
C1144 C1127 1.574 . S
C1144 H1138 0.949 . S
C1144 C1148 1.368 . S
C1145 C1126 1.429 . S
C1145 C1139 1.429 . S
C1145 C1146 1.523 . S
C1146 C1127 1.368 . S
C1146 C1140 1.368 . S
C1146 C1145 1.523 . S
C1147 C1131 1.429 . S
C1147 C1143 1.429 . S
C1147 C1148 1.523 . S
C1148 C1132 1.368 . S
C1148 C1144 1.368 . S
C1148 C1147 1.523 . S
H1149 C1124 0.950 . S
H1150 C1126 0.950 . S
H1151 C1127 0.949 . S
H1152 C1129 0.950 . S
H1153 C1131 0.950 . S
C1154 C1155 1.349 . S
C1154 C1156 1.327 . S
C1154 H1179 0.950 . S
C1155 C1154 1.349 . S
C1155 C1171 1.349 . S
C1156 C1154 1.327 . S
C1156 C1175 1.429 . S
C1156 H1180 0.950 . S
C1157 C1174 1.574 . S
C1157 C1176 1.368 . S
C1157 H1181 0.949 . S
H1158 C1162 0.949 . S
C1159 C1160 1.349 . S
C1159 C1161 1.327 . S
C1159 H1182 0.950 . S
C1160 C1159 1.349 . S
C1160 C1172 1.349 . S
C1161 C1159 1.327 . S
C1161 C1177 1.429 . S
C1161 H1183 0.950 . S
C1162 H1158 0.949 . S
C1162 C1170 1.574 . S
C1162 C1178 1.368 . S
H1163 C1171 0.950 . S
H1164 C1169 0.950 . S
H1165 C1170 0.949 . S
H1166 C1172 0.950 . S
H1167 C1173 0.950 . S
H1168 C1174 0.949 . S
C1169 H1164 0.950 . S
C1169 C1171 1.327 . S
C1169 C1175 1.429 . S
C1170 C1162 1.574 . S
C1170 H1165 0.949 . S
C1170 C1176 1.368 . S
C1171 C1155 1.349 . S
C1171 H1163 0.950 . S
C1171 C1169 1.327 . S
C1172 C1160 1.349 . S
C1172 H1166 0.950 . S
C1172 C1173 1.327 . S
C1173 H1167 0.950 . S
C1173 C1172 1.327 . S
C1173 C1177 1.429 . S
C1174 C1157 1.574 . S
C1174 H1168 0.949 . S
C1174 C1178 1.368 . S
C1175 C1156 1.429 . S
C1175 C1169 1.429 . S
C1175 C1176 1.523 . S
C1176 C1157 1.368 . S
C1176 C1170 1.368 . S
C1176 C1175 1.523 . S
C1177 C1161 1.429 . S
C1177 C1173 1.429 . S
C1177 C1178 1.523 . S
C1178 C1162 1.368 . S
C1178 C1174 1.368 . S
C1178 C1177 1.523 . S
H1179 C1154 0.950 . S
H1180 C1156 0.950 . S
H1181 C1157 0.949 . S
H1182 C1159 0.950 . S
H1183 C1161 0.950 . S
C705 C57 1.033 . S
C710 C233 1.033 . S
C735 C137 1.009 . S
C740 C293 1.009 . S
C765 C372 1.033 . S
C770 C557 1.033 . S
C795 C489 1.009 . S
C800 C645 1.009 . S
C825 C29 1.750 . S
C830 C469 1.767 . S
C855 C117 1.767 . S
C860 C585 1.750 . S
C885 C665 1.767 . S
C890 C205 1.750 . S
C915 C313 1.767 . S
C920 C401 1.750 . S
C945 C409 1.671 . S
C950 C49 1.757 . S
C975 C108 1.726 . S
C980 C497 1.644 1_565 S
C1005 C225 1.757 . S
C1010 C577 1.671 . S
C1035 C321 1.726 . S
C1040 C636 1.644 1_545 S
C1065 C20 1.671 1_655 S
C1070 C381 1.757 . S
C1095 C460 1.726 . S
C1100 C145 1.644 . S
C1125 C548 1.757 . S
C1130 C196 1.671 1_455 S
C1155 C284 1.644 . S
C1160 C673 1.726 . S
