# Generated by pormake.
# Topology umx, (4)-cn, num edge types: 1
# Building blocks:
#     Node 0, Type 0, BuildingBlock: QUQFOY_clean_sbu_1, # of connection points: 4
#     Node 1, Type 0, BuildingBlock: QUQFOY_clean_sbu_1, # of connection points: 4
#     Node 2, Type 0, BuildingBlock: QUQFOY_clean_sbu_1, # of connection points: 4
#     Node 3, Type 0, BuildingBlock: QUQFOY_clean_sbu_1, # of connection points: 4
#     Node 4, Type 0, BuildingBlock: QUQFOY_clean_sbu_1, # of connection points: 4
#     Node 5, Type 0, BuildingBlock: QUQFOY_clean_sbu_1, # of connection points: 4
#     Node 6, Type 0, BuildingBlock: QUQFOY_clean_sbu_1, # of connection points: 4
#     Node 7, Type 0, BuildingBlock: QUQFOY_clean_sbu_1, # of connection points: 4
#     Edge 8, Type (0, 0), BuildingBlock: CIFDUS_clean_linker_0, # of connection points: 2
#     Edge 9, Type (0, 0), BuildingBlock: CIFDUS_clean_linker_0, # of connection points: 2
#     Edge 10, Type (0, 0), BuildingBlock: CIFDUS_clean_linker_0, # of connection points: 2
#     Edge 11, Type (0, 0), BuildingBlock: CIFDUS_clean_linker_0, # of connection points: 2
#     Edge 12, Type (0, 0), BuildingBlock: CIFDUS_clean_linker_0, # of connection points: 2
#     Edge 13, Type (0, 0), BuildingBlock: CIFDUS_clean_linker_0, # of connection points: 2
#     Edge 14, Type (0, 0), BuildingBlock: CIFDUS_clean_linker_0, # of connection points: 2
#     Edge 15, Type (0, 0), BuildingBlock: CIFDUS_clean_linker_0, # of connection points: 2
#     Edge 16, Type (0, 0), BuildingBlock: CIFDUS_clean_linker_0, # of connection points: 2
#     Edge 17, Type (0, 0), BuildingBlock: CIFDUS_clean_linker_0, # of connection points: 2
#     Edge 18, Type (0, 0), BuildingBlock: CIFDUS_clean_linker_0, # of connection points: 2
#     Edge 19, Type (0, 0), BuildingBlock: CIFDUS_clean_linker_0, # of connection points: 2
#     Edge 20, Type (0, 0), BuildingBlock: CIFDUS_clean_linker_0, # of connection points: 2
#     Edge 21, Type (0, 0), BuildingBlock: CIFDUS_clean_linker_0, # of connection points: 2
#     Edge 22, Type (0, 0), BuildingBlock: CIFDUS_clean_linker_0, # of connection points: 2
#     Edge 23, Type (0, 0), BuildingBlock: CIFDUS_clean_linker_0, # of connection points: 2
# Relax obj value: 0.075
# Max RMSD: 0.141
# Mean RMSD: 0.141
data_MOF--net-umx--node1-QUQFOY_clean_sbu_1--edge1-CIFDUS_clean_linker_0
_symmetry_space_group_name_H-M    P1
_symmetry_Int_Tables_number       1
_symmetry_cell_setting            triclinic
loop_
_symmetry_equiv_pos_as_xyz
'x, y, z'
_cell_length_a     35.403765
_cell_length_b     36.046714
_cell_length_c     25.19146
_cell_angle_alpha  90.722279
_cell_angle_beta   89.540031
_cell_angle_gamma 89.940734
loop_
_atom_site_label
_atom_site_type_symbol
_atom_site_fract_x
_atom_site_fract_y
_atom_site_fract_z
_atom_type_partial_charge
O0 O 0.19718 0.43666 0.13776 0.0
Cd1 Cd 0.18252 0.41355 0.06628 0.0
Cd2 Cd 0.20042 0.48345 0.03305 0.0
O3 O 0.22619 0.48665 0.10771 0.0
O4 O 0.19303 0.3584 0.06954 0.0
O5 O 0.22762 0.39839 0.02441 0.0
C6 C 0.22301 0.36523 0.0417 0.0
C7 C 0.22695 0.48697 0.94734 0.0
C8 C 0.21752 0.46518 0.14593 0.0
C9 C 0.11886 0.46185 0.03169 0.0
O10 O 0.14266 0.48819 0.03414 0.0
O11 O 0.12968 0.42827 0.03668 0.0
O12 O 0.22125 0.51679 0.97538 0.0
O13 O 0.22016 0.4557 0.96959 0.0
O14 O 0.576 0.19414 0.64204 0.0
Cd15 Cd 0.60517 0.17634 0.57533 0.0
Cd16 Cd 0.53892 0.19191 0.53082 0.0
O17 O 0.52661 0.21817 0.60185 0.0
O18 O 0.66063 0.18203 0.58968 0.0
O19 O 0.62871 0.21726 0.53409 0.0
C20 C 0.65983 0.20998 0.55817 0.0
C21 C 0.5364 0.21917 0.44779 0.0
C22 C 0.54524 0.21242 0.64391 0.0
C23 C 0.56054 0.1119 0.53525 0.0
O24 O 0.53388 0.13517 0.53033 0.0
O25 O 0.59355 0.12297 0.54754 0.0
O26 O 0.50583 0.21049 0.47305 0.0
O27 O 0.56823 0.21436 0.47137 0.0
O28 O 0.82308 0.57269 0.13062 0.0
Cd29 Cd 0.84352 0.59314 0.06017 0.0
Cd30 Cd 0.82722 0.52343 0.02935 0.0
O31 O 0.80114 0.51852 0.10339 0.0
O32 O 0.83789 0.64803 0.07085 0.0
O33 O 0.80691 0.61592 1.00962 0.0
C34 C 0.81272 0.64702 0.03413 0.0
C35 C 0.80016 0.51372 0.94579 0.0
C36 C 0.80577 0.54263 0.14018 0.0
C37 C 0.90931 0.54495 0.03127 0.0
O38 O 0.8852 0.51887 0.02923 0.0
O39 O 0.89854 0.57836 0.03911 0.0
O40 O 0.80833 0.4862 0.97604 0.0
O41 O 0.80475 0.54683 0.96481 0.0
O42 O 0.45807 0.82225 0.64267 0.0
Cd43 Cd 0.43301 0.84147 0.57458 0.0
Cd44 Cd 0.50093 0.82453 0.5337 0.0
O45 O 0.50894 0.79822 0.60439 0.0
O46 O 0.37697 0.83749 0.58461 0.0
O47 O 0.41029 0.8017 0.52926 0.0
C48 C 0.37831 0.80983 0.55161 0.0
C49 C 0.51119 0.7953 0.45221 0.0
C50 C 0.48836 0.80337 0.64535 0.0
C51 C 0.48025 0.90496 0.53806 0.0
O52 O 0.50674 0.8813 0.53366 0.0
O53 O 0.44685 0.89446 0.54944 0.0
O54 O 0.53907 0.80531 0.48177 0.0
O55 O 0.47732 0.80035 0.47037 0.0
O56 O 0.20044 0.57488 0.44722 0.0
Cd57 Cd 0.18584 0.59859 0.51868 0.0
Cd58 Cd 0.20171 0.52845 0.55214 0.0
O59 O 0.22741 0.52386 0.477 0.0
O60 O 0.19713 0.65349 0.51412 0.0
O61 O 0.2308 0.61358 0.56009 0.0
C62 C 0.22676 0.6466 0.54201 0.0
C63 C 0.22801 0.52458 0.63729 0.0
C64 C 0.2197 0.54557 0.43884 0.0
C65 C 0.12067 0.55223 0.55444 0.0
O66 O 0.14384 0.52527 0.55235 0.0
O67 O 0.13234 0.58545 0.54856 0.0
O68 O 0.22147 0.49481 0.60967 0.0
O69 O 0.22226 0.55595 0.61484 0.0
O70 O 0.45855 0.18888 0.94638 0.0
Cd71 Cd 0.42993 0.16963 1.01214 0.0
Cd72 Cd 0.49627 0.18561 0.05764 0.0
O73 O 0.50803 0.21229 0.98781 0.0
O74 O 0.37434 0.17366 0.99777 0.0
O75 O 0.40481 0.20921 0.05568 0.0
C76 C 0.37401 0.20117 0.03106 0.0
C77 C 0.49772 0.21377 0.14112 0.0
C78 C 0.4892 0.20728 0.94556 0.0
C79 C 0.47567 0.10555 0.05017 0.0
O80 O 0.50221 0.12887 0.05633 0.0
O81 O 0.44272 0.11651 0.03772 0.0
O82 O 0.5286 0.20526 0.11617 0.0
O83 O 0.46612 0.20794 0.11722 0.0
O84 O 0.83069 0.44472 0.44716 0.0
Cd85 Cd 0.84502 0.42573 0.5208 0.0
Cd86 Cd 0.82838 0.49657 0.5477 0.0
O87 O 0.80345 0.49725 0.47269 0.0
O88 O 0.8352 0.37068 0.52048 0.0
O89 O 0.80055 0.41191 0.56493 0.0
C90 C 0.80559 0.3781 0.54905 0.0
C91 C 0.80077 0.50914 0.63102 0.0
C92 C 0.81146 0.47343 0.43637 0.0
C93 C 0.90965 0.47371 0.55273 0.0
O94 O 0.88634 0.50033 0.54841 0.0
O95 O 0.89824 0.44022 0.54904 0.0
O96 O 0.80886 0.53571 0.59887 0.0
O97 O 0.80558 0.47558 0.61394 0.0
O98 O 0.56636 0.80766 0.95107 0.0
Cd99 Cd 0.59444 0.82919 1.01594 0.0
Cd100 Cd 0.52628 0.81753 0.05926 0.0
O101 O 0.5128 0.7914 0.98931 0.0
O102 O 0.64888 0.82101 0.99761 0.0
O103 O 0.62032 0.79485 0.0662 0.0
C104 C 0.65021 0.79854 0.037 0.0
C105 C 0.51496 0.79087 0.14123 0.0
C106 C 0.53385 0.79287 0.9484 0.0
C107 C 0.55193 0.89689 0.04945 0.0
O108 O 0.52502 0.87453 0.05879 0.0
O109 O 0.5842 0.88459 0.03497 0.0
O110 O 0.48763 0.80301 0.11267 0.0
O111 O 0.54883 0.79229 0.12184 0.0
H112 H 0.23173 0.53323 0.19028 0.0
H113 H 0.22634 0.41675 0.22662 0.0
H114 H 0.23224 0.43096 0.32109 0.0
H115 H 0.23023 0.47686 0.39429 0.0
H116 H 0.2314 0.59345 0.35802 0.0
H117 H 0.23642 0.57893 0.26339 0.0
C118 C 0.23275 0.51097 0.21881 0.0
C119 C 0.22826 0.47405 0.20143 0.0
C120 C 0.23499 0.5194 0.27346 0.0
C121 C 0.22936 0.44548 0.23899 0.0
C122 C 0.23267 0.45357 0.29312 0.0
C123 C 0.23252 0.49902 0.36572 0.0
C124 C 0.23014 0.53613 0.38318 0.0
C125 C 0.23419 0.49048 0.31102 0.0
C126 C 0.23281 0.56459 0.34558 0.0
C127 C 0.2356 0.55634 0.29137 0.0
H128 H 0.5829 0.22375 0.73585 0.0
H129 H 0.47101 0.22337 0.6692 0.0
H130 H 0.44329 0.22642 0.75824 0.0
H131 H 0.45106 0.21971 0.85453 0.0
H132 H 0.563 0.22073 0.92109 0.0
H133 H 0.59049 0.22749 0.83257 0.0
C134 C 0.55246 0.22506 0.74086 0.0
C135 C 0.52902 0.22263 0.6962 0.0
C136 C 0.53674 0.22655 0.79209 0.0
C137 C 0.48966 0.22503 0.70303 0.0
C138 C 0.47377 0.22651 0.75394 0.0
C139 C 0.48143 0.22207 0.84969 0.0
C140 C 0.505 0.21899 0.89405 0.0
C141 C 0.49705 0.22579 0.7987 0.0
C142 C 0.54426 0.22281 0.88748 0.0
C143 C 0.56002 0.22646 0.83685 0.0
H144 H 0.79389 0.53897 0.38892 0.0
H145 H 0.80665 0.42171 0.35713 0.0
H146 H 0.80013 0.43212 0.26223 0.0
H147 H 0.79916 0.47527 0.18739 0.0
H148 H 0.79033 0.59284 0.2189 0.0
H149 H 0.78628 0.58157 0.31409 0.0
C150 C 0.79446 0.51564 0.36131 0.0
C151 C 0.80117 0.4797 0.38017 0.0
C152 C 0.79167 0.52191 0.30638 0.0
C153 C 0.80197 0.44977 0.34371 0.0
C154 C 0.79826 0.45567 0.28931 0.0
C155 C 0.79536 0.49831 0.21502 0.0
C156 C 0.79528 0.53482 0.19605 0.0
C157 C 0.79431 0.49173 0.27 0.0
C158 C 0.79074 0.56444 0.23248 0.0
C159 C 0.78856 0.55805 0.28702 0.0
H160 H 0.57352 0.77801 0.85824 0.0
H161 H 0.45983 0.78634 0.92037 0.0
H162 H 0.43492 0.78588 0.83031 0.0
H163 H 0.44637 0.79317 0.73463 0.0
H164 H 0.56018 0.78493 0.67278 0.0
H165 H 0.58405 0.77493 0.76201 0.0
C166 C 0.54324 0.77892 0.85206 0.0
C167 C 0.51862 0.78296 0.89577 0.0
C168 C 0.52916 0.77921 0.80025 0.0
C169 C 0.47942 0.78343 0.88733 0.0
C170 C 0.46515 0.78348 0.83582 0.0
C171 C 0.47632 0.7886 0.74064 0.0
C172 C 0.50156 0.79059 0.69743 0.0
C173 C 0.48989 0.78302 0.79207 0.0
C174 C 0.54019 0.78385 0.7055 0.0
C175 C 0.5539 0.77826 0.75654 0.0
H176 H 0.78711 0.45881 0.70859 0.0
H177 H 0.79372 0.5766 0.68141 0.0
H178 H 0.7895 0.58869 0.77693 0.0
H179 H 0.79175 0.56549 0.86847 0.0
H180 H 0.78745 0.44751 0.89515 0.0
H181 H 0.78253 0.43597 0.79982 0.0
C182 C 0.78693 0.48719 0.7234 0.0
C183 C 0.79108 0.51672 0.68769 0.0
C184 C 0.78527 0.49393 0.77853 0.0
C185 C 0.79069 0.55329 0.70782 0.0
C186 C 0.78846 0.56024 0.76257 0.0
C187 C 0.789 0.53727 0.85356 0.0
C188 C 0.79032 0.50741 0.8891 0.0
C189 C 0.78692 0.53074 0.79839 0.0
C190 C 0.78672 0.47105 0.86887 0.0
C191 C 0.78403 0.46438 0.81423 0.0
H192 H 0.56708 0.77735 0.21723 0.0
H193 H 0.44688 0.78103 0.19036 0.0
H194 H 0.43494 0.77671 0.28553 0.0
H195 H 0.45872 0.78175 0.37638 0.0
H196 H 0.57896 0.78147 0.4034 0.0
H197 H 0.59072 0.77395 0.30833 0.0
C198 C 0.53827 0.77636 0.23208 0.0
C199 C 0.50796 0.78012 0.19685 0.0
C200 C 0.53158 0.7749 0.28702 0.0
C201 C 0.47077 0.77861 0.2167 0.0
C202 C 0.46388 0.77626 0.27118 0.0
C203 C 0.48748 0.77925 0.36162 0.0
C204 C 0.5179 0.78281 0.39682 0.0
C205 C 0.49409 0.77593 0.30677 0.0
C206 C 0.555 0.77924 0.37708 0.0
C207 C 0.56179 0.77507 0.32266 0.0
H208 H 0.23769 0.5479 0.8851 0.0
H209 H 0.23686 0.42818 0.8795 0.0
H210 H 0.24106 0.42897 0.78296 0.0
H211 H 0.23753 0.46354 0.69944 0.0
H212 H 0.23849 0.58326 0.70495 0.0
H213 H 0.24219 0.58242 0.80147 0.0
C214 C 0.23915 0.52199 0.86284 0.0
C215 C 0.23648 0.48809 0.88975 0.0
C216 C 0.24125 0.52255 0.80694 0.0
C217 C 0.23858 0.45477 0.86006 0.0
C218 C 0.24086 0.45513 0.80463 0.0
C219 C 0.23927 0.48944 0.72165 0.0
C220 C 0.23727 0.52336 0.69476 0.0
C221 C 0.24107 0.48885 0.77752 0.0
C222 C 0.23972 0.55665 0.7244 0.0
C223 C 0.2417 0.55627 0.77981 0.0
H224 H 0.4743 0.22972 0.3869 0.0
H225 H 0.59619 0.23132 0.38119 0.0
H226 H 0.59479 0.23502 0.28463 0.0
H227 H 0.55925 0.22842 0.20181 0.0
H228 H 0.4374 0.22516 0.20753 0.0
H229 H 0.43856 0.23206 0.30395 0.0
C230 C 0.50056 0.23164 0.36464 0.0
C231 C 0.53528 0.22958 0.3912 0.0
C232 C 0.4996 0.23306 0.30899 0.0
C233 C 0.56904 0.23251 0.36177 0.0
C234 C 0.5683 0.23445 0.30645 0.0
C235 C 0.53292 0.22992 0.22402 0.0
C236 C 0.49834 0.2256 0.19756 0.0
C237 C 0.53377 0.23327 0.2796 0.0
C238 C 0.46446 0.22807 0.22691 0.0
C239 C 0.46507 0.23186 0.28214 0.0
H240 H 0.94114 0.47629 0.02253 0.0
H241 H 0.9695 0.59273 0.03045 0.0
H242 H 0.03666 0.57708 0.02834 0.0
H243 H 0.08709 0.5305 0.02829 0.0
H244 H 0.05889 0.41398 0.02292 0.0
H245 H 0.99174 0.42967 0.01966 0.0
C246 C 0.96194 0.49835 0.02346 0.0
C247 C 0.95014 0.53571 0.02683 0.0
C248 C 1.00052 0.48914 0.02282 0.0
C249 C 0.97765 0.56378 0.028 0.0
C250 C 0.0161 0.55484 0.02684 0.0
C251 C 0.06636 0.50842 0.02603 0.0
C252 C 0.07817 0.47103 0.02601 0.0
C253 C 0.02782 0.51763 0.02485 0.0
C254 C 0.05073 0.44295 0.0231 0.0
C255 C 1.01229 0.45191 0.02132 0.0
H256 H 0.54964 0.93705 0.53158 0.0
H257 H 0.43051 0.96295 0.53245 0.0
H258 H 0.44511 0.02907 0.52819 0.0
H259 H 0.49149 0.07946 0.5285 0.0
H260 H 0.61062 0.05383 0.53158 0.0
H261 H 0.59611 0.98752 0.52967 0.0
C262 C 0.5268 0.95709 0.53041 0.0
C263 C 0.48898 0.94496 0.53241 0.0
C264 C 0.53539 0.9951 0.52882 0.0
C265 C 0.45984 0.97144 0.53113 0.0
C266 C 0.46817 0.00928 0.5287 0.0
C267 C 0.51438 0.05944 0.52826 0.0
C268 C 0.55214 0.0717 0.5302 0.0
C269 C 0.50583 0.02141 0.52814 0.0
C270 C 0.58133 0.04524 0.5302 0.0
C271 C 0.57305 0.0073 0.52917 0.0
H272 H 0.08741 0.48454 0.5634 0.0
H273 H 0.06155 0.60156 0.55815 0.0
H274 H 0.99404 0.58743 0.56028 0.0
H275 H 0.9426 0.54186 0.55845 0.0
H276 H 0.96862 0.42481 0.56137 0.0
H277 H 0.03598 0.43912 0.56557 0.0
C278 C 0.0671 0.50708 0.56313 0.0
C279 C 0.0797 0.54413 0.56033 0.0
C280 C 0.02835 0.49874 0.56368 0.0
C281 C 0.05279 0.57283 0.56016 0.0
C282 C 1.01414 0.56475 0.56126 0.0
C283 C 0.96291 0.51939 0.56037 0.0
C284 C 0.95042 0.48223 0.55928 0.0
C285 C 1.00163 0.5278 0.5622 0.0
C286 C 0.9773 0.45361 0.56197 0.0
C287 C 0.01587 0.46178 0.5643 0.0
H288 H 0.48384 0.93098 0.0592 0.0
H289 H 0.60326 0.95386 0.047 0.0
H290 H 0.59014 0.02053 0.04905 0.0
H291 H 0.54459 0.0721 0.05101 0.0
H292 H 0.4251 0.04867 0.05893 0.0
H293 H 0.43854 0.98226 0.06207 0.0
C294 C 0.50712 0.95047 0.05738 0.0
C295 C 0.54454 0.93736 0.05304 0.0
C296 C 0.49933 0.98865 0.05767 0.0
C297 C 0.57422 0.96314 0.05029 0.0
C298 C 0.56672 1.00127 0.05146 0.0
C299 C 0.52145 0.05251 0.05388 0.0
C300 C 0.48385 0.0654 0.05483 0.0
C301 C 0.52936 0.01431 0.05468 0.0
C302 C 0.45426 0.03955 0.05803 0.0
C303 C 0.46193 1.00156 0.05982 0.0
H304 H 0.21928 0.2891 0.0456 0.0
H305 H 0.29665 0.38047 0.0253 0.0
H306 H 0.34987 0.33789 0.02401 0.0
H307 H 0.37506 0.27514 0.02988 0.0
H308 H 0.29924 0.18215 0.03983 0.0
H309 H 0.24484 0.22465 0.04437 0.0
C310 C 0.24779 0.2995 0.04046 0.0
C311 C 0.25395 0.33789 0.03562 0.0
C312 C 0.27856 0.27462 0.0385 0.0
C313 C 0.29102 0.35105 0.02867 0.0
C314 C 0.3216 0.32676 0.02831 0.0
C315 C 0.34659 0.26426 0.03352 0.0
C316 C 0.34096 0.22584 0.0357 0.0
C317 C 0.31574 0.28861 0.03361 0.0
C318 C 0.30405 0.2118 0.03874 0.0
C319 C 0.27306 0.23606 0.04115 0.0
H320 H 0.8112 0.30231 0.54149 0.0
H321 H 0.73239 0.39129 0.57468 0.0
H322 H 0.68047 0.34719 0.57756 0.0
H323 H 0.65673 0.28383 0.56766 0.0
H324 H 0.73474 0.19335 0.54367 0.0
H325 H 0.7877 0.23737 0.53968 0.0
C326 C 0.78271 0.3119 0.54993 0.0
C327 C 0.77571 0.35007 0.55763 0.0
C328 C 0.75281 0.28619 0.55244 0.0
C329 C 0.73867 0.36209 0.56888 0.0
C330 C 0.70884 0.33692 0.57016 0.0
C331 C 0.68536 0.27386 0.56123 0.0
C332 C 0.69199 0.23571 0.55477 0.0
C333 C 0.71549 0.29905 0.56127 0.0
C334 C 0.72915 0.22278 0.54807 0.0
C335 C 0.75932 0.2479 0.54597 0.0
H336 H 0.78016 0.69091 0.10862 0.0
H337 H 0.78825 0.67328 0.93944 0.0
H338 H 0.74141 0.7223 0.92536 0.0
H339 H 0.6946 0.76658 0.96179 0.0
H340 H 0.68005 0.7774 0.1313 0.0
H341 H 0.733 0.73479 0.14506 0.0
C342 C 0.77211 0.69839 0.06869 0.0
C343 C 0.78792 0.67913 0.025 0.0
C344 C 0.74378 0.72511 0.0612 0.0
C345 C 0.7766 0.6881 0.9735 0.0
C346 C 0.74977 0.71597 0.96553 0.0
C347 C 0.70348 0.75999 1.00169 0.0
C348 C 0.6839 0.77531 0.04555 0.0
C349 C 0.73268 0.73417 1.00914 0.0
C350 C 0.69491 0.76596 0.09706 0.0
C351 C 0.7251 0.74162 0.10487 0.0
H352 H 0.37919 0.73578 0.55448 0.0
H353 H 0.30416 0.82889 0.53776 0.0
H354 H 0.24974 0.78666 0.5328 0.0
H355 H 0.22384 0.72252 0.53411 0.0
H356 H 0.29993 0.63112 0.56127 0.0
H357 H 0.35343 0.67329 0.56205 0.0
C358 C 0.35092 0.74672 0.54912 0.0
C359 C 0.34554 0.78511 0.54525 0.0
C360 C 0.31994 0.72255 0.54895 0.0
C361 C 0.30881 0.79925 0.54008 0.0
C362 C 0.27779 0.77515 0.53751 0.0
C363 C 0.25211 0.71201 0.5406 0.0
C364 C 0.25783 0.67373 0.54758 0.0
C365 C 0.28299 0.73666 0.54219 0.0
C366 C 0.29462 0.66047 0.55623 0.0
C367 C 0.32536 0.68452 0.5563 0.0
loop_
_geom_bond_atom_site_label_1
_geom_bond_atom_site_label_2
_geom_bond_distance
_geom_bond_site_symmetry_2
_ccdc_geom_bond_type
O0 Cd1 2.223 . S
O0 C8 1.315 . S
Cd1 O0 2.223 . S
Cd1 O4 2.297 . S
Cd1 O5 2.439 . S
Cd1 O11 2.240 . S
Cd2 O3 2.240 . S
Cd2 O10 2.223 . S
Cd2 O12 2.297 1_554 S
Cd2 O13 2.439 1_554 S
O3 Cd2 2.240 . S
O3 C8 1.279 . S
O4 Cd1 2.297 . S
O4 C6 1.247 . S
O5 Cd1 2.439 . S
O5 C6 1.208 . S
C6 O4 1.247 . S
C6 O5 1.208 . S
C7 O12 1.247 . S
C7 O13 1.208 . S
C8 O0 1.315 . S
C8 O3 1.279 . S
C9 O10 1.315 . S
C9 O11 1.279 . S
O10 Cd2 2.223 . S
O10 C9 1.315 . S
O11 Cd1 2.240 . S
O11 C9 1.279 . S
O12 Cd2 2.297 1_556 S
O12 C7 1.247 . S
O13 Cd2 2.439 1_556 S
O13 C7 1.208 . S
O14 Cd15 2.223 . S
O14 C22 1.315 . S
Cd15 O14 2.223 . S
Cd15 O18 2.297 . S
Cd15 O19 2.439 . S
Cd15 O25 2.240 . S
Cd16 O17 2.240 . S
Cd16 O24 2.223 . S
Cd16 O26 2.297 . S
Cd16 O27 2.439 . S
O17 Cd16 2.240 . S
O17 C22 1.279 . S
O18 Cd15 2.297 . S
O18 C20 1.247 . S
O19 Cd15 2.439 . S
O19 C20 1.208 . S
C20 O18 1.247 . S
C20 O19 1.208 . S
C21 O26 1.247 . S
C21 O27 1.208 . S
C22 O14 1.315 . S
C22 O17 1.279 . S
C23 O24 1.315 . S
C23 O25 1.279 . S
O24 Cd16 2.223 . S
O24 C23 1.315 . S
O25 Cd15 2.240 . S
O25 C23 1.279 . S
O26 Cd16 2.297 . S
O26 C21 1.247 . S
O27 Cd16 2.439 . S
O27 C21 1.208 . S
O28 Cd29 2.223 . S
O28 C36 1.315 . S
Cd29 O28 2.223 . S
Cd29 O32 2.297 . S
Cd29 O33 2.439 . S
Cd29 O39 2.240 . S
Cd30 O31 2.240 . S
Cd30 O38 2.223 . S
Cd30 O40 2.297 1_554 S
Cd30 O41 2.439 1_554 S
O31 Cd30 2.240 . S
O31 C36 1.279 . S
O32 Cd29 2.297 . S
O32 C34 1.247 . S
O33 Cd29 2.439 . S
O33 C34 1.208 . S
C34 O32 1.247 . S
C34 O33 1.208 . S
C35 O40 1.247 . S
C35 O41 1.208 . S
C36 O28 1.315 . S
C36 O31 1.279 . S
C37 O38 1.315 . S
C37 O39 1.279 . S
O38 Cd30 2.223 . S
O38 C37 1.315 . S
O39 Cd29 2.240 . S
O39 C37 1.279 . S
O40 Cd30 2.297 1_556 S
O40 C35 1.247 . S
O41 Cd30 2.439 1_556 S
O41 C35 1.208 . S
O42 Cd43 2.223 . S
O42 C50 1.315 . S
Cd43 O42 2.223 . S
Cd43 O46 2.297 . S
Cd43 O47 2.439 . S
Cd43 O53 2.240 . S
Cd44 O45 2.240 . S
Cd44 O52 2.223 . S
Cd44 O54 2.297 . S
Cd44 O55 2.439 . S
O45 Cd44 2.240 . S
O45 C50 1.279 . S
O46 Cd43 2.297 . S
O46 C48 1.247 . S
O47 Cd43 2.439 . S
O47 C48 1.208 . S
C48 O46 1.247 . S
C48 O47 1.208 . S
C49 O54 1.247 . S
C49 O55 1.208 . S
C50 O42 1.315 . S
C50 O45 1.279 . S
C51 O52 1.315 . S
C51 O53 1.279 . S
O52 Cd44 2.223 . S
O52 C51 1.315 . S
O53 Cd43 2.240 . S
O53 C51 1.279 . S
O54 Cd44 2.297 . S
O54 C49 1.247 . S
O55 Cd44 2.439 . S
O55 C49 1.208 . S
O56 Cd57 2.223 . S
O56 C64 1.315 . S
Cd57 O56 2.223 . S
Cd57 O60 2.297 . S
Cd57 O61 2.439 . S
Cd57 O67 2.240 . S
Cd58 O59 2.240 . S
Cd58 O66 2.223 . S
Cd58 O68 2.297 . S
Cd58 O69 2.439 . S
O59 Cd58 2.240 . S
O59 C64 1.279 . S
O60 Cd57 2.297 . S
O60 C62 1.247 . S
O61 Cd57 2.439 . S
O61 C62 1.208 . S
C62 O60 1.247 . S
C62 O61 1.208 . S
C63 O68 1.247 . S
C63 O69 1.208 . S
C64 O56 1.315 . S
C64 O59 1.279 . S
C65 O66 1.315 . S
C65 O67 1.279 . S
O66 Cd58 2.223 . S
O66 C65 1.315 . S
O67 Cd57 2.240 . S
O67 C65 1.279 . S
O68 Cd58 2.297 . S
O68 C63 1.247 . S
O69 Cd58 2.439 . S
O69 C63 1.208 . S
O70 Cd71 2.223 . S
O70 C78 1.315 . S
Cd71 O70 2.223 . S
Cd71 O74 2.297 . S
Cd71 O75 2.439 1_556 S
Cd71 O81 2.240 1_556 S
Cd72 O73 2.240 1_554 S
Cd72 O80 2.223 . S
Cd72 O82 2.297 . S
Cd72 O83 2.439 . S
O73 Cd72 2.240 1_556 S
O73 C78 1.279 . S
O74 Cd71 2.297 . S
O74 C76 1.247 . S
O75 Cd71 2.439 1_554 S
O75 C76 1.208 1_554 S
C76 O74 1.247 . S
C76 O75 1.208 1_556 S
C77 O82 1.247 . S
C77 O83 1.208 . S
C78 O70 1.315 . S
C78 O73 1.279 . S
C79 O80 1.315 . S
C79 O81 1.279 . S
O80 Cd72 2.223 . S
O80 C79 1.315 . S
O81 Cd71 2.240 1_554 S
O81 C79 1.279 . S
O82 Cd72 2.297 . S
O82 C77 1.247 . S
O83 Cd72 2.439 . S
O83 C77 1.208 . S
O84 Cd85 2.223 . S
O84 C92 1.315 . S
Cd85 O84 2.223 . S
Cd85 O88 2.297 . S
Cd85 O89 2.439 . S
Cd85 O95 2.240 . S
Cd86 O87 2.240 . S
Cd86 O94 2.223 . S
Cd86 O96 2.297 . S
Cd86 O97 2.439 . S
O87 Cd86 2.240 . S
O87 C92 1.279 . S
O88 Cd85 2.297 . S
O88 C90 1.247 . S
O89 Cd85 2.439 . S
O89 C90 1.208 . S
C90 O88 1.247 . S
C90 O89 1.208 . S
C91 O96 1.247 . S
C91 O97 1.208 . S
C92 O84 1.315 . S
C92 O87 1.279 . S
C93 O94 1.315 . S
C93 O95 1.279 . S
O94 Cd86 2.223 . S
O94 C93 1.315 . S
O95 Cd85 2.240 . S
O95 C93 1.279 . S
O96 Cd86 2.297 . S
O96 C91 1.247 . S
O97 Cd86 2.439 . S
O97 C91 1.208 . S
O98 Cd99 2.223 . S
O98 C106 1.315 . S
Cd99 O98 2.223 . S
Cd99 O102 2.297 . S
Cd99 O103 2.439 1_556 S
Cd99 O109 2.240 1_556 S
Cd100 O101 2.240 1_554 S
Cd100 O108 2.223 . S
Cd100 O110 2.297 . S
Cd100 O111 2.439 . S
O101 Cd100 2.240 1_556 S
O101 C106 1.279 . S
O102 Cd99 2.297 . S
O102 C104 1.247 . S
O103 Cd99 2.439 1_554 S
O103 C104 1.208 1_554 S
C104 O102 1.247 . S
C104 O103 1.208 1_556 S
C105 O110 1.247 . S
C105 O111 1.208 . S
C106 O98 1.315 . S
C106 O101 1.279 . S
C107 O108 1.315 . S
C107 O109 1.279 . S
O108 Cd100 2.223 . S
O108 C107 1.315 . S
O109 Cd99 2.240 1_554 S
O109 C107 1.279 . S
O110 Cd100 2.297 . S
O110 C105 1.247 . S
O111 Cd100 2.439 . S
O111 C105 1.208 . S
H112 C118 0.930 . S
H113 C121 0.930 . S
H114 C122 0.930 . S
H115 C123 0.930 . S
H116 C126 0.930 . S
H117 C127 0.930 . S
C118 H112 0.930 . S
C118 C119 1.355 . S
C118 C120 1.415 . S
C119 C118 1.355 . S
C119 C121 1.419 . S
C120 C118 1.415 . S
C120 C125 1.425 . S
C120 C127 1.409 . S
C121 H113 0.930 . S
C121 C119 1.419 . S
C121 C122 1.362 . S
C122 H114 0.930 . S
C122 C121 1.362 . S
C122 C125 1.409 . S
C123 H115 0.930 . S
C123 C124 1.355 . S
C123 C125 1.415 . S
C124 C123 1.355 . S
C124 C126 1.419 . S
C125 C120 1.425 . S
C125 C122 1.409 . S
C125 C123 1.415 . S
C126 H116 0.930 . S
C126 C124 1.419 . S
C126 C127 1.362 . S
C127 H117 0.930 . S
C127 C120 1.409 . S
C127 C126 1.362 . S
H128 C134 0.930 . S
H129 C137 0.930 . S
H130 C138 0.930 . S
H131 C139 0.930 . S
H132 C142 0.930 . S
H133 C143 0.930 . S
C134 H128 0.930 . S
C134 C135 1.355 . S
C134 C136 1.415 . S
C135 C134 1.355 . S
C135 C137 1.419 . S
C136 C134 1.415 . S
C136 C141 1.425 . S
C136 C143 1.409 . S
C137 H129 0.930 . S
C137 C135 1.419 . S
C137 C138 1.362 . S
C138 H130 0.930 . S
C138 C137 1.362 . S
C138 C141 1.409 . S
C139 H131 0.930 . S
C139 C140 1.355 . S
C139 C141 1.415 . S
C140 C139 1.355 . S
C140 C142 1.419 . S
C141 C136 1.425 . S
C141 C138 1.409 . S
C141 C139 1.415 . S
C142 H132 0.930 . S
C142 C140 1.419 . S
C142 C143 1.362 . S
C143 H133 0.930 . S
C143 C136 1.409 . S
C143 C142 1.362 . S
H144 C150 0.930 . S
H145 C153 0.930 . S
H146 C154 0.930 . S
H147 C155 0.930 . S
H148 C158 0.930 . S
H149 C159 0.930 . S
C150 H144 0.930 . S
C150 C151 1.355 . S
C150 C152 1.415 . S
C151 C150 1.355 . S
C151 C153 1.419 . S
C152 C150 1.415 . S
C152 C157 1.425 . S
C152 C159 1.409 . S
C153 H145 0.930 . S
C153 C151 1.419 . S
C153 C154 1.362 . S
C154 H146 0.930 . S
C154 C153 1.362 . S
C154 C157 1.409 . S
C155 H147 0.930 . S
C155 C156 1.355 . S
C155 C157 1.415 . S
C156 C155 1.355 . S
C156 C158 1.419 . S
C157 C152 1.425 . S
C157 C154 1.409 . S
C157 C155 1.415 . S
C158 H148 0.930 . S
C158 C156 1.419 . S
C158 C159 1.362 . S
C159 H149 0.930 . S
C159 C152 1.409 . S
C159 C158 1.362 . S
H160 C166 0.930 . S
H161 C169 0.930 . S
H162 C170 0.930 . S
H163 C171 0.930 . S
H164 C174 0.930 . S
H165 C175 0.930 . S
C166 H160 0.930 . S
C166 C167 1.355 . S
C166 C168 1.415 . S
C167 C166 1.355 . S
C167 C169 1.419 . S
C168 C166 1.415 . S
C168 C173 1.425 . S
C168 C175 1.409 . S
C169 H161 0.930 . S
C169 C167 1.419 . S
C169 C170 1.362 . S
C170 H162 0.930 . S
C170 C169 1.362 . S
C170 C173 1.409 . S
C171 H163 0.930 . S
C171 C172 1.355 . S
C171 C173 1.415 . S
C172 C171 1.355 . S
C172 C174 1.419 . S
C173 C168 1.425 . S
C173 C170 1.409 . S
C173 C171 1.415 . S
C174 H164 0.930 . S
C174 C172 1.419 . S
C174 C175 1.362 . S
C175 H165 0.930 . S
C175 C168 1.409 . S
C175 C174 1.362 . S
H176 C182 0.930 . S
H177 C185 0.930 . S
H178 C186 0.930 . S
H179 C187 0.930 . S
H180 C190 0.930 . S
H181 C191 0.930 . S
C182 H176 0.930 . S
C182 C183 1.355 . S
C182 C184 1.415 . S
C183 C182 1.355 . S
C183 C185 1.419 . S
C184 C182 1.415 . S
C184 C189 1.425 . S
C184 C191 1.409 . S
C185 H177 0.930 . S
C185 C183 1.419 . S
C185 C186 1.362 . S
C186 H178 0.930 . S
C186 C185 1.362 . S
C186 C189 1.409 . S
C187 H179 0.930 . S
C187 C188 1.355 . S
C187 C189 1.415 . S
C188 C187 1.355 . S
C188 C190 1.419 . S
C189 C184 1.425 . S
C189 C186 1.409 . S
C189 C187 1.415 . S
C190 H180 0.930 . S
C190 C188 1.419 . S
C190 C191 1.362 . S
C191 H181 0.930 . S
C191 C184 1.409 . S
C191 C190 1.362 . S
H192 C198 0.930 . S
H193 C201 0.930 . S
H194 C202 0.930 . S
H195 C203 0.930 . S
H196 C206 0.930 . S
H197 C207 0.930 . S
C198 H192 0.930 . S
C198 C199 1.355 . S
C198 C200 1.415 . S
C199 C198 1.355 . S
C199 C201 1.419 . S
C200 C198 1.415 . S
C200 C205 1.425 . S
C200 C207 1.409 . S
C201 H193 0.930 . S
C201 C199 1.419 . S
C201 C202 1.362 . S
C202 H194 0.930 . S
C202 C201 1.362 . S
C202 C205 1.409 . S
C203 H195 0.930 . S
C203 C204 1.355 . S
C203 C205 1.415 . S
C204 C203 1.355 . S
C204 C206 1.419 . S
C205 C200 1.425 . S
C205 C202 1.409 . S
C205 C203 1.415 . S
C206 H196 0.930 . S
C206 C204 1.419 . S
C206 C207 1.362 . S
C207 H197 0.930 . S
C207 C200 1.409 . S
C207 C206 1.362 . S
H208 C214 0.930 . S
H209 C217 0.930 . S
H210 C218 0.930 . S
H211 C219 0.930 . S
H212 C222 0.930 . S
H213 C223 0.930 . S
C214 H208 0.930 . S
C214 C215 1.355 . S
C214 C216 1.415 . S
C215 C214 1.355 . S
C215 C217 1.419 . S
C216 C214 1.415 . S
C216 C221 1.425 . S
C216 C223 1.409 . S
C217 H209 0.930 . S
C217 C215 1.419 . S
C217 C218 1.362 . S
C218 H210 0.930 . S
C218 C217 1.362 . S
C218 C221 1.409 . S
C219 H211 0.930 . S
C219 C220 1.355 . S
C219 C221 1.415 . S
C220 C219 1.355 . S
C220 C222 1.419 . S
C221 C216 1.425 . S
C221 C218 1.409 . S
C221 C219 1.415 . S
C222 H212 0.930 . S
C222 C220 1.419 . S
C222 C223 1.362 . S
C223 H213 0.930 . S
C223 C216 1.409 . S
C223 C222 1.362 . S
H224 C230 0.930 . S
H225 C233 0.930 . S
H226 C234 0.930 . S
H227 C235 0.930 . S
H228 C238 0.930 . S
H229 C239 0.930 . S
C230 H224 0.930 . S
C230 C231 1.355 . S
C230 C232 1.415 . S
C231 C230 1.355 . S
C231 C233 1.419 . S
C232 C230 1.415 . S
C232 C237 1.425 . S
C232 C239 1.409 . S
C233 H225 0.930 . S
C233 C231 1.419 . S
C233 C234 1.362 . S
C234 H226 0.930 . S
C234 C233 1.362 . S
C234 C237 1.409 . S
C235 H227 0.930 . S
C235 C236 1.355 . S
C235 C237 1.415 . S
C236 C235 1.355 . S
C236 C238 1.419 . S
C237 C232 1.425 . S
C237 C234 1.409 . S
C237 C235 1.415 . S
C238 H228 0.930 . S
C238 C236 1.419 . S
C238 C239 1.362 . S
C239 H229 0.930 . S
C239 C232 1.409 . S
C239 C238 1.362 . S
H240 C246 0.930 1_556 S
H241 C249 0.930 . S
H242 C250 0.927 1_455 S
H243 C251 0.930 . S
H244 C254 0.930 . S
H245 C255 0.927 1_655 S
C246 H240 0.930 1_554 S
C246 C247 1.355 . S
C246 C248 1.415 . S
C247 C246 1.355 . S
C247 C249 1.419 . S
C248 C246 1.415 . S
C248 C253 1.425 1_655 S
C248 C255 1.409 1_654 S
C249 H241 0.930 . S
C249 C247 1.419 . S
C249 C250 1.362 . S
C250 H242 0.927 1_655 S
C250 C249 1.362 . S
C250 C253 1.409 1_655 S
C251 H243 0.930 . S
C251 C252 1.355 . S
C251 C253 1.415 . S
C252 C251 1.355 . S
C252 C254 1.419 1_554 S
C253 C248 1.425 1_455 S
C253 C250 1.409 1_455 S
C253 C251 1.415 . S
C254 H244 0.930 . S
C254 C252 1.419 1_556 S
C254 C255 1.362 . S
C255 H245 0.927 1_455 S
C255 C248 1.409 1_456 S
C255 C254 1.362 . S
H256 C262 0.930 . S
H257 C265 0.930 . S
H258 C266 0.932 1_545 S
H259 C267 0.930 . S
H260 C270 0.930 . S
H261 C271 0.932 1_565 S
C262 H256 0.930 . S
C262 C263 1.355 . S
C262 C264 1.415 . S
C263 C262 1.355 . S
C263 C265 1.419 . S
C264 C262 1.415 . S
C264 C269 1.425 1_565 S
C264 C271 1.410 1_565 S
C265 H257 0.930 . S
C265 C263 1.419 . S
C265 C266 1.360 . S
C266 H258 0.932 1_565 S
C266 C265 1.360 . S
C266 C269 1.410 1_565 S
C267 H259 0.930 . S
C267 C268 1.355 . S
C267 C269 1.415 . S
C268 C267 1.355 . S
C268 C270 1.419 . S
C269 C264 1.425 1_545 S
C269 C266 1.410 1_545 S
C269 C267 1.415 . S
C270 H260 0.930 . S
C270 C268 1.419 . S
C270 C271 1.360 . S
C271 H261 0.932 1_545 S
C271 C264 1.410 1_545 S
C271 C270 1.360 . S
H272 C278 0.930 . S
H273 C281 0.930 . S
H274 C282 0.930 . S
H275 C283 0.930 . S
H276 C286 0.930 . S
H277 C287 0.930 . S
C278 H272 0.930 . S
C278 C279 1.355 . S
C278 C280 1.415 . S
C279 C278 1.355 . S
C279 C281 1.419 . S
C280 C278 1.415 . S
C280 C285 1.425 1_455 S
C280 C287 1.409 . S
C281 H273 0.930 . S
C281 C279 1.419 . S
C281 C282 1.362 1_455 S
C282 H274 0.930 . S
C282 C281 1.362 1_655 S
C282 C285 1.409 . S
C283 H275 0.930 . S
C283 C284 1.355 . S
C283 C285 1.415 . S
C284 C283 1.355 . S
C284 C286 1.419 . S
C285 C280 1.425 1_655 S
C285 C282 1.409 . S
C285 C283 1.415 . S
C286 H276 0.930 . S
C286 C284 1.419 . S
C286 C287 1.362 1_655 S
C287 H277 0.930 . S
C287 C280 1.409 . S
C287 C286 1.362 1_455 S
H288 C294 0.930 . S
H289 C297 0.930 . S
H290 C298 0.930 . S
H291 C299 0.930 . S
H292 C302 0.930 . S
H293 C303 0.930 . S
C294 H288 0.930 . S
C294 C295 1.355 1_556 S
C294 C296 1.419 . S
C295 C294 1.355 1_554 S
C295 C297 1.419 . S
C296 C294 1.419 . S
C296 C301 1.425 1_566 S
C296 C303 1.405 1_565 S
C297 H289 0.930 . S
C297 C295 1.419 . S
C297 C298 1.362 . S
C298 H290 0.930 . S
C298 C297 1.362 . S
C298 C301 1.405 1_565 S
C299 H291 0.930 . S
C299 C300 1.355 . S
C299 C301 1.419 . S
C300 C299 1.355 . S
C300 C302 1.419 1_554 S
C301 C296 1.425 1_544 S
C301 C298 1.405 1_545 S
C301 C299 1.419 . S
C302 H292 0.930 . S
C302 C300 1.419 1_556 S
C302 C303 1.362 . S
C303 H293 0.930 . S
C303 C296 1.405 1_545 S
C303 C302 1.362 . S
H304 C310 0.930 . S
H305 C313 0.930 . S
H306 C314 0.930 . S
H307 C315 0.930 . S
H308 C318 0.930 1_556 S
H309 C319 0.930 . S
C310 H304 0.930 . S
C310 C311 1.355 . S
C310 C312 1.415 . S
C311 C310 1.355 . S
C311 C313 1.419 . S
C312 C310 1.415 . S
C312 C317 1.425 . S
C312 C319 1.409 . S
C313 H305 0.930 . S
C313 C311 1.419 . S
C313 C314 1.362 . S
C314 H306 0.930 . S
C314 C313 1.362 . S
C314 C317 1.409 . S
C315 H307 0.930 . S
C315 C316 1.355 . S
C315 C317 1.415 . S
C316 C315 1.355 . S
C316 C318 1.419 . S
C317 C312 1.425 . S
C317 C314 1.409 . S
C317 C315 1.415 . S
C318 H308 0.930 1_554 S
C318 C316 1.419 . S
C318 C319 1.362 . S
C319 H309 0.930 . S
C319 C312 1.409 . S
C319 C318 1.362 . S
H320 C326 0.930 . S
H321 C329 0.930 . S
H322 C330 0.930 . S
H323 C331 0.930 . S
H324 C334 0.930 . S
H325 C335 0.930 . S
C326 H320 0.930 . S
C326 C327 1.355 . S
C326 C328 1.415 . S
C327 C326 1.355 . S
C327 C329 1.419 . S
C328 C326 1.415 . S
C328 C333 1.425 . S
C328 C335 1.409 . S
C329 H321 0.930 . S
C329 C327 1.419 . S
C329 C330 1.362 . S
C330 H322 0.930 . S
C330 C329 1.362 . S
C330 C333 1.409 . S
C331 H323 0.930 . S
C331 C332 1.355 . S
C331 C333 1.415 . S
C332 C331 1.355 . S
C332 C334 1.419 . S
C333 C328 1.425 . S
C333 C330 1.409 . S
C333 C331 1.415 . S
C334 H324 0.930 . S
C334 C332 1.419 . S
C334 C335 1.362 . S
C335 H325 0.930 . S
C335 C328 1.409 . S
C335 C334 1.362 . S
H336 C342 0.930 . S
H337 C345 0.930 . S
H338 C346 0.930 . S
H339 C347 0.930 . S
H340 C350 0.930 . S
H341 C351 0.930 . S
C342 H336 0.930 . S
C342 C343 1.355 . S
C342 C344 1.415 . S
C343 C342 1.355 . S
C343 C345 1.419 1_554 S
C344 C342 1.415 . S
C344 C349 1.426 1_554 S
C344 C351 1.409 . S
C345 H337 0.930 . S
C345 C343 1.419 1_556 S
C345 C346 1.362 . S
C346 H338 0.930 . S
C346 C345 1.362 . S
C346 C349 1.409 . S
C347 H339 0.930 . S
C347 C348 1.355 1_556 S
C347 C349 1.414 . S
C348 C347 1.355 1_554 S
C348 C350 1.419 . S
C349 C344 1.426 1_556 S
C349 C346 1.409 . S
C349 C347 1.414 . S
C350 H340 0.930 . S
C350 C348 1.419 . S
C350 C351 1.362 . S
C351 H341 0.930 . S
C351 C344 1.409 . S
C351 C350 1.362 . S
H352 C358 0.930 . S
H353 C361 0.930 . S
H354 C362 0.930 . S
H355 C363 0.930 . S
H356 C366 0.930 . S
H357 C367 0.930 . S
C358 H352 0.930 . S
C358 C359 1.355 . S
C358 C360 1.415 . S
C359 C358 1.355 . S
C359 C361 1.419 . S
C360 C358 1.415 . S
C360 C365 1.425 . S
C360 C367 1.409 . S
C361 H353 0.930 . S
C361 C359 1.419 . S
C361 C362 1.362 . S
C362 H354 0.930 . S
C362 C361 1.362 . S
C362 C365 1.409 . S
C363 H355 0.930 . S
C363 C364 1.355 . S
C363 C365 1.415 . S
C364 C363 1.355 . S
C364 C366 1.419 . S
C365 C360 1.425 . S
C365 C362 1.409 . S
C365 C363 1.415 . S
C366 H356 0.930 . S
C366 C364 1.419 . S
C366 C367 1.362 . S
C367 H357 0.930 . S
C367 C360 1.409 . S
C367 C366 1.362 . S
C119 C8 1.662 . S
C124 C64 1.659 . S
C135 C22 1.695 . S
C140 C78 1.681 . S
C151 C92 1.685 . S
C156 C36 1.672 . S
C167 C106 1.688 . S
C172 C50 1.701 . S
C183 C91 1.096 . S
C188 C35 1.112 . S
C199 C105 1.118 . S
C204 C49 1.100 . S
C215 C7 1.112 . S
C220 C63 1.120 . S
C231 C21 1.098 . S
C236 C77 1.117 . S
C247 C37 1.320 . S
C252 C9 1.285 . S
C263 C51 1.342 . S
C268 C23 1.315 . S
C279 C65 1.344 . S
C284 C93 1.320 . S
C295 C107 1.268 . S
C300 C79 1.300 . S
C311 C6 1.512 . S
C316 C76 1.486 1_554 S
C327 C90 1.509 . S
C332 C20 1.481 . S
C343 C34 1.486 . S
C348 C104 1.490 1_554 S
C359 C48 1.480 . S
C364 C62 1.502 . S
