# Generated by pormake.
# Topology uow, (4)-cn, num edge types: 1
# Building blocks:
#     Node 0, Type 0, BuildingBlock: CEKHIL_clean_sbu_0, # of connection points: 4
#     Node 1, Type 0, BuildingBlock: CEKHIL_clean_sbu_0, # of connection points: 4
#     Node 2, Type 0, BuildingBlock: CEKHIL_clean_sbu_0, # of connection points: 4
#     Node 3, Type 0, BuildingBlock: CEKHIL_clean_sbu_0, # of connection points: 4
#     Node 4, Type 0, BuildingBlock: CEKHIL_clean_sbu_0, # of connection points: 4
#     Node 5, Type 0, BuildingBlock: CEKHIL_clean_sbu_0, # of connection points: 4
#     Node 6, Type 0, BuildingBlock: CEKHIL_clean_sbu_0, # of connection points: 4
#     Node 7, Type 0, BuildingBlock: CEKHIL_clean_sbu_0, # of connection points: 4
#     Node 8, Type 0, BuildingBlock: CEKHIL_clean_sbu_0, # of connection points: 4
#     Node 9, Type 0, BuildingBlock: CEKHIL_clean_sbu_0, # of connection points: 4
#     Node 10, Type 0, BuildingBlock: CEKHIL_clean_sbu_0, # of connection points: 4
#     Node 11, Type 0, BuildingBlock: CEKHIL_clean_sbu_0, # of connection points: 4
#     Node 12, Type 0, BuildingBlock: CEKHIL_clean_sbu_0, # of connection points: 4
#     Node 13, Type 0, BuildingBlock: CEKHIL_clean_sbu_0, # of connection points: 4
#     Node 14, Type 0, BuildingBlock: CEKHIL_clean_sbu_0, # of connection points: 4
#     Node 15, Type 0, BuildingBlock: CEKHIL_clean_sbu_0, # of connection points: 4
#     Node 16, Type 0, BuildingBlock: CEKHIL_clean_sbu_0, # of connection points: 4
#     Node 17, Type 0, BuildingBlock: CEKHIL_clean_sbu_0, # of connection points: 4
#     Node 18, Type 0, BuildingBlock: CEKHIL_clean_sbu_0, # of connection points: 4
#     Node 19, Type 0, BuildingBlock: CEKHIL_clean_sbu_0, # of connection points: 4
#     Node 20, Type 0, BuildingBlock: CEKHIL_clean_sbu_0, # of connection points: 4
#     Node 21, Type 0, BuildingBlock: CEKHIL_clean_sbu_0, # of connection points: 4
#     Node 22, Type 0, BuildingBlock: CEKHIL_clean_sbu_0, # of connection points: 4
#     Node 23, Type 0, BuildingBlock: CEKHIL_clean_sbu_0, # of connection points: 4
#     Node 24, Type 0, BuildingBlock: CEKHIL_clean_sbu_0, # of connection points: 4
#     Node 25, Type 0, BuildingBlock: CEKHIL_clean_sbu_0, # of connection points: 4
#     Node 26, Type 0, BuildingBlock: CEKHIL_clean_sbu_0, # of connection points: 4
#     Node 27, Type 0, BuildingBlock: CEKHIL_clean_sbu_0, # of connection points: 4
#     Node 28, Type 0, BuildingBlock: CEKHIL_clean_sbu_0, # of connection points: 4
#     Node 29, Type 0, BuildingBlock: CEKHIL_clean_sbu_0, # of connection points: 4
#     Node 30, Type 0, BuildingBlock: CEKHIL_clean_sbu_0, # of connection points: 4
#     Node 31, Type 0, BuildingBlock: CEKHIL_clean_sbu_0, # of connection points: 4
#     Edge 32, Type (0, 0), BuildingBlock: CIFDUS_clean_linker_0, # of connection points: 2
#     Edge 33, Type (0, 0), BuildingBlock: CIFDUS_clean_linker_0, # of connection points: 2
#     Edge 34, Type (0, 0), BuildingBlock: CIFDUS_clean_linker_0, # of connection points: 2
#     Edge 35, Type (0, 0), BuildingBlock: CIFDUS_clean_linker_0, # of connection points: 2
#     Edge 36, Type (0, 0), BuildingBlock: CIFDUS_clean_linker_0, # of connection points: 2
#     Edge 37, Type (0, 0), BuildingBlock: CIFDUS_clean_linker_0, # of connection points: 2
#     Edge 38, Type (0, 0), BuildingBlock: CIFDUS_clean_linker_0, # of connection points: 2
#     Edge 39, Type (0, 0), BuildingBlock: CIFDUS_clean_linker_0, # of connection points: 2
#     Edge 40, Type (0, 0), BuildingBlock: CIFDUS_clean_linker_0, # of connection points: 2
#     Edge 41, Type (0, 0), BuildingBlock: CIFDUS_clean_linker_0, # of connection points: 2
#     Edge 42, Type (0, 0), BuildingBlock: CIFDUS_clean_linker_0, # of connection points: 2
#     Edge 43, Type (0, 0), BuildingBlock: CIFDUS_clean_linker_0, # of connection points: 2
#     Edge 44, Type (0, 0), BuildingBlock: CIFDUS_clean_linker_0, # of connection points: 2
#     Edge 45, Type (0, 0), BuildingBlock: CIFDUS_clean_linker_0, # of connection points: 2
#     Edge 46, Type (0, 0), BuildingBlock: CIFDUS_clean_linker_0, # of connection points: 2
#     Edge 47, Type (0, 0), BuildingBlock: CIFDUS_clean_linker_0, # of connection points: 2
#     Edge 48, Type (0, 0), BuildingBlock: CIFDUS_clean_linker_0, # of connection points: 2
#     Edge 49, Type (0, 0), BuildingBlock: CIFDUS_clean_linker_0, # of connection points: 2
#     Edge 50, Type (0, 0), BuildingBlock: CIFDUS_clean_linker_0, # of connection points: 2
#     Edge 51, Type (0, 0), BuildingBlock: CIFDUS_clean_linker_0, # of connection points: 2
#     Edge 52, Type (0, 0), BuildingBlock: CIFDUS_clean_linker_0, # of connection points: 2
#     Edge 53, Type (0, 0), BuildingBlock: CIFDUS_clean_linker_0, # of connection points: 2
#     Edge 54, Type (0, 0), BuildingBlock: CIFDUS_clean_linker_0, # of connection points: 2
#     Edge 55, Type (0, 0), BuildingBlock: CIFDUS_clean_linker_0, # of connection points: 2
#     Edge 56, Type (0, 0), BuildingBlock: CIFDUS_clean_linker_0, # of connection points: 2
#     Edge 57, Type (0, 0), BuildingBlock: CIFDUS_clean_linker_0, # of connection points: 2
#     Edge 58, Type (0, 0), BuildingBlock: CIFDUS_clean_linker_0, # of connection points: 2
#     Edge 59, Type (0, 0), BuildingBlock: CIFDUS_clean_linker_0, # of connection points: 2
#     Edge 60, Type (0, 0), BuildingBlock: CIFDUS_clean_linker_0, # of connection points: 2
#     Edge 61, Type (0, 0), BuildingBlock: CIFDUS_clean_linker_0, # of connection points: 2
#     Edge 62, Type (0, 0), BuildingBlock: CIFDUS_clean_linker_0, # of connection points: 2
#     Edge 63, Type (0, 0), BuildingBlock: CIFDUS_clean_linker_0, # of connection points: 2
#     Edge 64, Type (0, 0), BuildingBlock: CIFDUS_clean_linker_0, # of connection points: 2
#     Edge 65, Type (0, 0), BuildingBlock: CIFDUS_clean_linker_0, # of connection points: 2
#     Edge 66, Type (0, 0), BuildingBlock: CIFDUS_clean_linker_0, # of connection points: 2
#     Edge 67, Type (0, 0), BuildingBlock: CIFDUS_clean_linker_0, # of connection points: 2
#     Edge 68, Type (0, 0), BuildingBlock: CIFDUS_clean_linker_0, # of connection points: 2
#     Edge 69, Type (0, 0), BuildingBlock: CIFDUS_clean_linker_0, # of connection points: 2
#     Edge 70, Type (0, 0), BuildingBlock: CIFDUS_clean_linker_0, # of connection points: 2
#     Edge 71, Type (0, 0), BuildingBlock: CIFDUS_clean_linker_0, # of connection points: 2
#     Edge 72, Type (0, 0), BuildingBlock: CIFDUS_clean_linker_0, # of connection points: 2
#     Edge 73, Type (0, 0), BuildingBlock: CIFDUS_clean_linker_0, # of connection points: 2
#     Edge 74, Type (0, 0), BuildingBlock: CIFDUS_clean_linker_0, # of connection points: 2
#     Edge 75, Type (0, 0), BuildingBlock: CIFDUS_clean_linker_0, # of connection points: 2
#     Edge 76, Type (0, 0), BuildingBlock: CIFDUS_clean_linker_0, # of connection points: 2
#     Edge 77, Type (0, 0), BuildingBlock: CIFDUS_clean_linker_0, # of connection points: 2
#     Edge 78, Type (0, 0), BuildingBlock: CIFDUS_clean_linker_0, # of connection points: 2
#     Edge 79, Type (0, 0), BuildingBlock: CIFDUS_clean_linker_0, # of connection points: 2
#     Edge 80, Type (0, 0), BuildingBlock: CIFDUS_clean_linker_0, # of connection points: 2
#     Edge 81, Type (0, 0), BuildingBlock: CIFDUS_clean_linker_0, # of connection points: 2
#     Edge 82, Type (0, 0), BuildingBlock: CIFDUS_clean_linker_0, # of connection points: 2
#     Edge 83, Type (0, 0), BuildingBlock: CIFDUS_clean_linker_0, # of connection points: 2
#     Edge 84, Type (0, 0), BuildingBlock: CIFDUS_clean_linker_0, # of connection points: 2
#     Edge 85, Type (0, 0), BuildingBlock: CIFDUS_clean_linker_0, # of connection points: 2
#     Edge 86, Type (0, 0), BuildingBlock: CIFDUS_clean_linker_0, # of connection points: 2
#     Edge 87, Type (0, 0), BuildingBlock: CIFDUS_clean_linker_0, # of connection points: 2
#     Edge 88, Type (0, 0), BuildingBlock: CIFDUS_clean_linker_0, # of connection points: 2
#     Edge 89, Type (0, 0), BuildingBlock: CIFDUS_clean_linker_0, # of connection points: 2
#     Edge 90, Type (0, 0), BuildingBlock: CIFDUS_clean_linker_0, # of connection points: 2
#     Edge 91, Type (0, 0), BuildingBlock: CIFDUS_clean_linker_0, # of connection points: 2
#     Edge 92, Type (0, 0), BuildingBlock: CIFDUS_clean_linker_0, # of connection points: 2
#     Edge 93, Type (0, 0), BuildingBlock: CIFDUS_clean_linker_0, # of connection points: 2
#     Edge 94, Type (0, 0), BuildingBlock: CIFDUS_clean_linker_0, # of connection points: 2
#     Edge 95, Type (0, 0), BuildingBlock: CIFDUS_clean_linker_0, # of connection points: 2
# Relax obj value: 0.098
# Max RMSD: 0.128
# Mean RMSD: 0.128
data_MOF--net-uow--node1-CEKHIL_clean_sbu_0--edge1-CIFDUS_clean_linker_0
_symmetry_space_group_name_H-M    P1
_symmetry_Int_Tables_number       1
_symmetry_cell_setting            triclinic
loop_
_symmetry_equiv_pos_as_xyz
'x, y, z'
_cell_length_a     54.268105
_cell_length_b     54.211228
_cell_length_c     35.006863
_cell_angle_alpha  89.990798
_cell_angle_beta   90.010955
_cell_angle_gamma 90.061968
loop_
_atom_site_label
_atom_site_type_symbol
_atom_site_fract_x
_atom_site_fract_y
_atom_site_fract_z
_atom_type_partial_charge
Co0 Co 0.03784 0.38995 0.28058 0.0
O1 O 0.02711 0.41228 0.24166 0.0
O2 O 0.05844 0.41931 0.28063 0.0
C3 C 0.99967 0.38231 0.3039 0.0
O4 O 0.05358 0.37105 0.3248 0.0
Co5 Co 0.01947 0.33537 0.28186 0.0
O6 O 0.03018 0.3375 0.3358 0.0
C7 C 0.06218 0.3499 0.23328 0.0
C8 C 0.04422 0.4272 0.25326 0.0
C9 C 0.04719 0.35244 0.34545 0.0
O10 O 0.06066 0.37266 0.24362 0.0
O11 O 0.04717 0.33308 0.24431 0.0
O12 O 0.0117 0.40184 0.31465 0.0
O13 O 0.01015 0.36945 0.27755 0.0
Co14 Co 0.8645 0.78596 0.541 0.0
O15 O 0.83459 0.77156 0.52202 0.0
O16 O 0.83866 0.81055 0.54007 0.0
C17 C 0.87459 0.75524 0.58159 0.0
O18 O 0.89191 0.80689 0.56361 0.0
Co19 Co 0.91469 0.75971 0.5265 0.0
O20 O 0.9284 0.7875 0.55676 0.0
C21 C 0.88989 0.78571 0.46391 0.0
C22 C 0.82458 0.79306 0.52689 0.0
C23 C 0.91536 0.80556 0.56835 0.0
O24 O 0.87478 0.79562 0.48763 0.0
O25 O 0.90507 0.76866 0.47306 0.0
O26 O 0.85865 0.77191 0.59166 0.0
O27 O 0.88167 0.75617 0.54647 0.0
Co28 Co 0.46523 0.6149 0.77433 0.0
O29 O 0.47549 0.58593 0.74709 0.0
O30 O 0.44151 0.58857 0.78179 0.0
C31 C 0.50212 0.62388 0.80139 0.0
O32 O 0.44903 0.64146 0.8071 0.0
Co33 Co 0.48868 0.66608 0.75419 0.0
O34 O 0.46729 0.6782 0.7958 0.0
C35 C 0.44788 0.6463 0.70727 0.0
C36 C 0.45579 0.57528 0.76019 0.0
C37 C 0.4514 0.66482 0.8128 0.0
O38 O 0.4462 0.62692 0.72831 0.0
O39 O 0.46417 0.66311 0.71184 0.0
O40 O 0.48785 0.60719 0.81624 0.0
O41 O 0.49499 0.63236 0.76876 0.0
Co42 Co 0.64046 0.20849 0.03245 0.0
O43 O 0.6692 0.22216 0.00944 0.0
O44 O 0.66586 0.18326 0.02804 0.0
C45 C 0.63513 0.23992 0.07377 0.0
O46 O 0.6133 0.18872 0.05872 0.0
Co47 Co 0.59101 0.2378 0.02823 0.0
O48 O 0.58193 0.21492 0.07018 0.0
C49 C 0.60822 0.20848 0.96169 0.0
C50 C 0.67949 0.20082 0.01386 0.0
C51 C 0.59269 0.19425 0.07483 0.0
O52 O 0.62642 0.19959 0.98086 0.0
O53 O 0.59367 0.22509 0.9747 0.0
O54 O 0.65017 0.22211 0.08211 0.0
O55 O 0.62552 0.23908 0.04019 0.0
Co56 Co 0.03608 0.61135 0.21192 0.0
O57 O 0.02469 0.579 0.22507 0.0
O58 O 0.06363 0.58854 0.21251 0.0
C59 C 0.00603 0.61989 0.16929 0.0
O60 O 0.05417 0.64246 0.19539 0.0
Co61 Co 0.00298 0.65713 0.22862 0.0
O62 O 0.02617 0.67306 0.19219 0.0
C63 C 0.0308 0.63359 0.29119 0.0
C64 C 0.04735 0.57184 0.22135 0.0
C65 C 0.04752 0.6643 0.18537 0.0
O66 O 0.04213 0.61963 0.26728 0.0
O67 O 0.0131 0.648 0.28187 0.0
O68 O 0.02499 0.60679 0.15916 0.0
O69 O 0.00469 0.62497 0.2052 0.0
Co70 Co 0.63914 0.78988 0.47573 0.0
O71 O 0.66488 0.77246 0.50167 0.0
O72 O 0.67058 0.80568 0.46579 0.0
C73 C 0.62019 0.75616 0.4515 0.0
O74 O 0.61673 0.8119 0.44357 0.0
Co75 Co 0.58451 0.78071 0.50114 0.0
O76 O 0.57711 0.80354 0.45865 0.0
C77 C 0.61609 0.81471 0.54516 0.0
C78 C 0.68002 0.78836 0.48697 0.0
C79 C 0.59336 0.81526 0.43961 0.0
O80 O 0.63394 0.81211 0.52138 0.0
O81 O 0.59583 0.80271 0.54338 0.0
O82 O 0.63945 0.76532 0.43466 0.0
O83 O 0.61483 0.76589 0.48407 0.0
Co84 Co 0.46764 0.39108 0.70875 0.0
O85 O 0.48091 0.4213 0.7283 0.0
O86 O 0.44456 0.41791 0.69981 0.0
C87 C 0.50262 0.37914 0.67892 0.0
O88 O 0.44881 0.36267 0.68382 0.0
Co89 Co 0.4913 0.34121 0.73506 0.0
O90 O 0.46866 0.32695 0.69648 0.0
C91 C 0.45762 0.36828 0.78628 0.0
C92 C 0.46116 0.43192 0.71566 0.0
C93 C 0.45157 0.33917 0.6802 0.0
O94 O 0.45152 0.38323 0.75934 0.0
O95 O 0.47505 0.35249 0.78333 0.0
O96 O 0.48779 0.39471 0.6626 0.0
O97 O 0.49702 0.37333 0.71352 0.0
Co98 Co 0.86454 0.21962 0.96852 0.0
O99 O 0.8372 0.23559 0.99249 0.0
O100 O 0.8353 0.19924 0.96368 0.0
C101 C 0.87819 0.25339 0.93681 0.0
O102 O 0.88897 0.19784 0.93995 0.0
Co103 Co 0.9183 0.23706 0.98575 0.0
O104 O 0.92629 0.21616 0.94116 0.0
C105 C 0.89312 0.20188 0.03773 0.0
C106 C 0.824 0.21684 0.98188 0.0
C107 C 0.91167 0.19938 0.92959 0.0
O108 O 0.8734 0.20234 0.0175 0.0
O109 O 0.91237 0.21473 0.03052 0.0
O110 O 0.86023 0.24022 0.92316 0.0
O111 O 0.8857 0.24714 0.97044 0.0
Co112 Co 0.96323 0.6043 0.73272 0.0
O113 O 0.97206 0.57342 0.75623 0.0
O114 O 0.94175 0.57826 0.71438 0.0
C115 C 0.00161 0.61703 0.7163 0.0
O116 O 0.94917 0.63318 0.70223 0.0
Co117 Co 0.98175 0.65343 0.76969 0.0
O118 O 0.96358 0.66891 0.7268 0.0
C119 C 0.94188 0.62549 0.80599 0.0
C120 C 0.95427 0.56368 0.73656 0.0
C121 C 0.95063 0.65693 0.70271 0.0
O122 O 0.93973 0.61171 0.77625 0.0
O123 O 0.95928 0.64111 0.81065 0.0
O124 O 0.98994 0.6011 0.69524 0.0
O125 O 0.99116 0.62201 0.74847 0.0
Co126 Co 0.13863 0.2235 0.48231 0.0
O127 O 0.16295 0.2347 0.518 0.0
O128 O 0.16722 0.20206 0.48059 0.0
C129 C 0.13106 0.26138 0.45767 0.0
O130 O 0.1174 0.20666 0.44175 0.0
Co131 Co 0.08463 0.24339 0.48518 0.0
O132 O 0.08241 0.22829 0.43385 0.0
C133 C 0.10001 0.20037 0.53283 0.0
C134 C 0.17671 0.21675 0.5061 0.0
C135 C 0.09694 0.21092 0.4243 0.0
O136 O 0.12258 0.20195 0.52194 0.0
O137 O 0.08303 0.21533 0.52238 0.0
O138 O 0.14959 0.24845 0.4455 0.0
O139 O 0.11899 0.25188 0.48576 0.0
Co140 Co 0.5372 0.39015 0.20949 0.0
O141 O 0.52128 0.41966 0.22607 0.0
O142 O 0.55972 0.41798 0.2048 0.0
C143 C 0.50595 0.37635 0.17276 0.0
O144 O 0.55871 0.36268 0.18817 0.0
Co145 Co 0.51356 0.33968 0.23265 0.0
O146 O 0.54002 0.32616 0.1997 0.0
C147 C 0.54232 0.36795 0.28883 0.0
C148 C 0.54134 0.43123 0.21702 0.0
C149 C 0.55744 0.33902 0.18542 0.0
O150 O 0.54964 0.38301 0.26278 0.0
O151 O 0.5257 0.35156 0.28336 0.0
O152 O 0.52121 0.39275 0.15966 0.0
O153 O 0.50831 0.37116 0.20851 0.0
Co154 Co 0.36454 0.79239 0.96815 0.0
O155 O 0.33531 0.77932 0.99101 0.0
O156 O 0.33931 0.81782 0.97089 0.0
C157 C 0.37046 0.76025 0.92818 0.0
O158 O 0.39198 0.81181 0.94184 0.0
Co159 Co 0.41411 0.76329 0.97416 0.0
O160 O 0.42402 0.78607 0.93254 0.0
C161 C 0.39647 0.7939 0.03915 0.0
C162 C 0.32532 0.80073 0.98558 0.0
C163 C 0.41306 0.80655 0.92701 0.0
O164 O 0.37814 0.80219 0.01962 0.0
O165 O 0.41114 0.77716 0.02692 0.0
O166 O 0.35536 0.77782 0.91888 0.0
O167 O 0.37967 0.7617 0.96197 0.0
Co168 Co 0.97268 0.38193 0.76001 0.0
O169 O 0.97915 0.40856 0.72493 0.0
O170 O 0.94586 0.40551 0.76119 0.0
C171 C 0.01026 0.38212 0.78804 0.0
O172 O 0.95998 0.3577 0.80024 0.0
Co173 Co 0.00339 0.33334 0.75905 0.0
O174 O 0.98886 0.32869 0.81054 0.0
C175 C 0.96132 0.3401 0.70505 0.0
C176 C 0.95869 0.41826 0.73676 0.0
C177 C 0.96881 0.33944 0.81942 0.0
O178 O 0.95625 0.36166 0.7185 0.0
O179 O 0.97979 0.32722 0.71611 0.0
O180 O 0.99341 0.39762 0.79874 0.0
O181 O 0.00472 0.36878 0.75879 0.0
Co182 Co 0.36202 0.21134 0.52215 0.0
O183 O 0.32998 0.22382 0.50994 0.0
O184 O 0.33716 0.18742 0.5368 0.0
C185 C 0.37672 0.24634 0.54888 0.0
O186 O 0.39258 0.19308 0.54026 0.0
Co187 Co 0.40799 0.23463 0.48292 0.0
O188 O 0.4265 0.21133 0.51602 0.0
C189 C 0.37603 0.20109 0.4397 0.0
C190 C 0.32135 0.20342 0.52391 0.0
C191 C 0.41613 0.19489 0.53658 0.0
O192 O 0.36479 0.19506 0.47059 0.0
O193 O 0.3918 0.21861 0.43773 0.0
O194 O 0.36289 0.23142 0.56854 0.0
O195 O 0.37886 0.24099 0.51311 0.0
Co196 Co 0.5357 0.61309 0.27758 0.0
O197 O 0.52448 0.58327 0.25418 0.0
O198 O 0.56292 0.58997 0.27262 0.0
C199 C 0.50445 0.61646 0.31977 0.0
O200 O 0.55341 0.64152 0.30404 0.0
Co201 Co 0.50301 0.66034 0.27308 0.0
O202 O 0.52555 0.67161 0.31429 0.0
C203 C 0.53169 0.6442 0.2058 0.0
C204 C 0.54679 0.57503 0.2576 0.0
C205 C 0.5467 0.66197 0.31964 0.0
O206 O 0.54307 0.62787 0.22583 0.0
O207 O 0.51374 0.65713 0.21854 0.0
O208 O 0.52314 0.60234 0.3274 0.0
O209 O 0.5042 0.62585 0.28598 0.0
Co210 Co 0.13847 0.78989 0.02089 0.0
O211 O 0.16623 0.7723 0.00099 0.0
O212 O 0.16835 0.80894 0.02888 0.0
C213 C 0.12091 0.75763 0.05152 0.0
O214 O 0.11362 0.81275 0.04628 0.0
Co215 Co 0.08551 0.77437 0.99453 0.0
O216 O 0.07512 0.79976 0.03184 0.0
C217 C 0.11846 0.80065 0.94217 0.0
C218 C 0.17972 0.79056 0.01271 0.0
C219 C 0.09 0.81422 0.04893 0.0
O220 O 0.13292 0.80653 0.96985 0.0
O221 O 0.1008 0.78516 0.94552 0.0
O222 O 0.13903 0.76951 0.06742 0.0
O223 O 0.11619 0.76383 0.01679 0.0
Co224 Co 0.54533 0.89993 0.78248 0.0
O225 O 0.53244 0.9318 0.76957 0.0
O226 O 0.56825 0.92547 0.79848 0.0
C227 C 0.51013 0.88398 0.80681 0.0
O228 O 0.56374 0.8695 0.80146 0.0
Co229 Co 0.52369 0.8538 0.7406 0.0
O230 O 0.54765 0.83571 0.77301 0.0
C231 C 0.55623 0.88761 0.69987 0.0
C232 C 0.5523 0.94095 0.78454 0.0
C233 C 0.56291 0.84602 0.7957 0.0
O234 O 0.56282 0.89752 0.73163 0.0
O235 O 0.53819 0.87256 0.6969 0.0
O236 O 0.52379 0.89838 0.82768 0.0
O237 O 0.51663 0.88234 0.77153 0.0
Co238 Co 0.36435 0.28212 0.01665 0.0
O239 O 0.3358 0.276 0.98563 0.0
O240 O 0.34068 0.30866 0.02274 0.0
C241 C 0.36708 0.24389 0.04227 0.0
O242 O 0.3908 0.29419 0.05352 0.0
Co243 Co 0.41295 0.25202 0.00334 0.0
O244 O 0.42464 0.2702 0.04893 0.0
C245 C 0.40258 0.29719 0.95777 0.0
C246 C 0.32667 0.29623 -0.00053 0.0
C247 C 0.41269 0.28797 0.06384 0.0
O248 O 0.38149 0.30052 0.97385 0.0
O249 O 0.41658 0.27868 0.96439 0.0
O250 O 0.35181 0.25994 0.05624 0.0
O251 O 0.37793 0.25039 0.01113 0.0
Co252 Co 0.96794 0.11594 0.27815 0.0
O253 O 0.9817 0.08519 0.26045 0.0
O254 O 0.94688 0.08881 0.29306 0.0
C255 C 0.00324 0.13274 0.30097 0.0
O256 O 0.94842 0.14378 0.30285 0.0
Co257 Co 0.98426 0.1663 0.2432 0.0
O258 O 0.96046 0.18073 0.27997 0.0
C259 C 0.9543 0.13205 0.19861 0.0
C260 C 0.96269 0.0746 0.27601 0.0
C261 C 0.94702 0.16748 0.30168 0.0
O262 O 0.94875 0.11987 0.22895 0.0
O263 O 0.9709 0.14876 0.1976 0.0
O264 O 0.99126 0.11658 0.3213 0.0
O265 O 0.99503 0.13597 0.26686 0.0
Co266 Co 0.13677 0.70299 0.52838 0.0
O267 O 0.16288 0.71429 0.49572 0.0
O268 O 0.1643 0.68017 0.53034 0.0
C269 C 0.13034 0.7405 0.55498 0.0
O270 O 0.11386 0.68573 0.56637 0.0
Co271 Co 0.08377 0.72505 0.52568 0.0
O272 O 0.08033 0.70915 0.57632 0.0
C273 C 0.09921 0.68619 0.47008 0.0
C274 C 0.17545 0.69538 0.50732 0.0
C275 C 0.09391 0.69081 0.5847 0.0
O276 O 0.12085 0.68426 0.48499 0.0
O277 O 0.08303 0.70183 0.48121 0.0
O278 O 0.14766 0.72625 0.56802 0.0
O279 O 0.11848 0.73216 0.52587 0.0
Co280 Co 0.52831 0.12017 0.72329 0.0
O281 O 0.516 0.09684 0.75977 0.0
O282 O 0.55258 0.09441 0.73229 0.0
C283 C 0.49338 0.12101 0.68819 0.0
O284 O 0.54677 0.14043 0.68323 0.0
Co285 Co 0.50216 0.17087 0.71094 0.0
O286 O 0.52171 0.1709 0.66316 0.0
C287 C 0.53685 0.16373 0.77606 0.0
C288 C 0.53626 0.0846 0.75496 0.0
C289 C 0.54118 0.15797 0.66 0.0
O290 O 0.54233 0.14164 0.76531 0.0
O291 O 0.52043 0.17698 0.7596 0.0
O292 O 0.50962 0.10386 0.68237 0.0
O293 O 0.49798 0.13583 0.71596 0.0
Co294 Co 0.14008 0.29517 0.96887 0.0
O295 O 0.16973 0.27913 0.98536 0.0
O296 O 0.16852 0.31552 0.95651 0.0
C297 C 0.12289 0.26163 0.94128 0.0
O298 O 0.11273 0.31645 0.94614 0.0
Co299 Co 0.08965 0.27719 0.00241 0.0
O300 O 0.07598 0.30277 0.96796 0.0
C301 C 0.12367 0.30608 0.04963 0.0
C302 C 0.18158 0.29778 0.97119 0.0
C303 C 0.08901 0.31739 0.94776 0.0
O304 O 0.13632 0.31222 0.02002 0.0
O305 O 0.10684 0.28954 0.04912 0.0
O306 O 0.13942 0.27432 0.92297 0.0
O307 O 0.11947 0.26799 0.97631 0.0
Co308 Co 0.97227 0.88867 0.23404 0.0
O309 O 0.98698 0.91356 0.26567 0.0
O310 O 0.95232 0.9185 0.23334 0.0
C311 C 0.00792 0.87872 0.20444 0.0
O312 O 0.95224 0.86712 0.19724 0.0
Co313 Co 0.98993 0.8339 0.23736 0.0
O314 O 0.97344 0.83209 0.18698 0.0
C315 C 0.95267 0.85272 0.2929 0.0
C316 C 0.96934 0.92809 0.255 0.0
C317 C 0.95594 0.84682 0.17888 0.0
O318 O 0.9531 0.87462 0.27854 0.0
O319 O 0.96646 0.83504 0.28141 0.0
O320 O 0.99499 0.89737 0.19269 0.0
O321 O 0.99982 0.86788 0.23467 0.0
Co322 Co 0.36038 0.7187 0.4645 0.0
O323 O 0.33088 0.73435 0.48244 0.0
O324 O 0.33246 0.69657 0.45841 0.0
C325 C 0.37455 0.75133 0.43084 0.0
O326 O 0.38733 0.69725 0.44128 0.0
Co327 Co 0.41173 0.73994 0.48821 0.0
O328 O 0.42461 0.71382 0.454 0.0
C329 C 0.38146 0.71309 0.54385 0.0
C330 C 0.31927 0.71447 0.47235 0.0
C331 C 0.41101 0.69745 0.43849 0.0
O332 O 0.36738 0.70493 0.5171 0.0
O333 O 0.39788 0.7297 0.5387 0.0
O334 O 0.35794 0.73687 0.41614 0.0
O335 O 0.37999 0.747 0.46602 0.0
Co336 Co 0.45466 0.10684 0.21119 0.0
O337 O 0.46598 0.07529 0.22862 0.0
O338 O 0.43302 0.08105 0.19217 0.0
C339 C 0.49192 0.12105 0.19215 0.0
O340 O 0.43819 0.13683 0.18693 0.0
Co341 Co 0.47463 0.15426 0.25197 0.0
O342 O 0.4534 0.17138 0.21428 0.0
C343 C 0.43636 0.12411 0.28867 0.0
C344 C 0.44776 0.06587 0.20966 0.0
C345 C 0.43914 0.16047 0.19073 0.0
O346 O 0.43337 0.11124 0.25814 0.0
O347 O 0.45374 0.13978 0.29324 0.0
O348 O 0.47931 0.10647 0.17013 0.0
O349 O 0.48293 0.1242 0.22585 0.0
Co350 Co 0.63587 0.72055 0.96951 0.0
O351 O 0.66335 0.73026 0.00068 0.0
O352 O 0.66166 0.69573 0.96718 0.0
C353 C 0.63126 0.75763 0.94091 0.0
O354 O 0.61096 0.70494 0.93283 0.0
Co355 Co 0.58485 0.74649 0.97618 0.0
O356 O 0.57968 0.7317 0.92501 0.0
C357 C 0.59869 0.70668 0.03072 0.0
C358 C 0.67425 0.71026 0.98948 0.0
C359 C 0.59151 0.71244 0.91519 0.0
O360 O 0.61965 0.70339 0.01422 0.0
O361 O 0.58328 0.72339 0.02077 0.0
O362 O 0.64743 0.74201 0.9282 0.0
O363 O 0.61991 0.7512 0.97166 0.0
Co364 Co 0.04789 0.89191 0.70182 0.0
O365 O 0.03939 0.91846 0.73524 0.0
O366 O 0.07461 0.91581 0.70367 0.0
C367 C 0.01172 0.89117 0.66991 0.0
O368 O 0.06242 0.86705 0.66431 0.0
Co369 Co 0.01687 0.84322 0.70315 0.0
O370 O 0.03382 0.83763 0.65381 0.0
C371 C 0.05827 0.85064 0.75785 0.0
C372 C 0.06046 0.92827 0.7267 0.0
C373 C 0.0542 0.84815 0.64601 0.0
O374 O 0.06271 0.87252 0.74529 0.0
O375 O 0.04055 0.83706 0.74586 0.0
O376 O 0.02881 0.90673 0.66022 0.0
O377 O 0.01606 0.87858 0.70036 0.0
Co378 Co 0.85392 0.29105 0.45463 0.0
O379 O 0.82315 0.28087 0.47646 0.0
O380 O 0.83074 0.31842 0.4543 0.0
C381 C 0.85887 0.25789 0.41621 0.0
O382 O 0.8832 0.30732 0.42798 0.0
Co383 Co 0.90082 0.2586 0.46695 0.0
O384 O 0.9124 0.27797 0.42229 0.0
C385 C 0.88403 0.29229 0.52819 0.0
C386 C 0.81514 0.30285 0.46906 0.0
C387 C 0.90338 0.29893 0.4136 0.0
O388 O 0.8672 0.30143 0.50637 0.0
O389 O 0.89757 0.27397 0.51861 0.0
O390 O 0.84476 0.27601 0.40576 0.0
O391 O 0.86694 0.25917 0.45078 0.0
Co392 Co 0.4705 0.88933 0.27553 0.0
O393 O 0.47605 0.91743 0.24316 0.0
O394 O 0.44071 0.90883 0.27183 0.0
C395 C 0.50513 0.89336 0.31098 0.0
O396 O 0.45796 0.86264 0.31162 0.0
Co397 Co 0.50736 0.84511 0.27874 0.0
O398 O 0.48881 0.83643 0.32571 0.0
C399 C 0.4697 0.84819 0.21689 0.0
C400 C 0.4535 0.9238 0.25057 0.0
C401 C 0.46709 0.84464 0.33094 0.0
O402 O 0.4605 0.86824 0.23057 0.0
O403 O 0.4889 0.83768 0.23064 0.0
O404 O 0.48576 0.90649 0.31869 0.0
O405 O 0.50373 0.88037 0.28024 0.0
Co406 Co 0.86015 0.72252 0.02653 0.0
O407 O 0.83029 0.73713 0.00774 0.0
O408 O 0.8319 0.70308 0.04275 0.0
C409 C 0.87769 0.75789 0.04778 0.0
O410 O 0.8877 0.70299 0.05231 0.0
Co411 Co 0.91019 0.73738 0.98886 0.0
O412 O 0.92433 0.71562 0.02881 0.0
C413 C 0.87658 0.70387 0.94868 0.0
C414 C 0.81865 0.71942 0.0249 0.0
C415 C 0.91145 0.70228 0.05126 0.0
O416 O 0.86339 0.70152 0.97899 0.0
O417 O 0.89419 0.71943 0.94548 0.0
O418 O 0.86122 0.74664 0.06834 0.0
O419 O 0.88077 0.74904 0.01392 0.0
Co420 Co 0.04182 0.10927 0.7837 0.0
O421 O 0.03039 0.07802 0.76517 0.0
O422 O 0.06475 0.08359 0.79854 0.0
C423 C 0.00481 0.12192 0.80615 0.0
O424 O 0.05888 0.13867 0.80867 0.0
Co425 Co 0.02004 0.15859 0.75188 0.0
O426 O 0.03701 0.17315 0.79673 0.0
C427 C 0.0553 0.12914 0.70631 0.0
C428 C 0.04972 0.06859 0.78127 0.0
C429 C 0.05428 0.16172 0.81389 0.0
O430 O 0.0607 0.11537 0.73501 0.0
O431 O 0.03796 0.14514 0.70655 0.0
O432 O 0.01848 0.10733 0.82665 0.0
O433 O 0.013 0.12648 0.77243 0.0
Co434 Co 0.63367 0.27975 0.51566 0.0
O435 O 0.6581 0.27108 0.47841 0.0
O436 O 0.66033 0.30373 0.51612 0.0
C437 C 0.62989 0.2414 0.54099 0.0
O438 O 0.61217 0.29419 0.55785 0.0
Co439 Co 0.58168 0.25471 0.51669 0.0
O440 O 0.58047 0.26841 0.56913 0.0
C441 C 0.59161 0.29813 0.46638 0.0
C442 C 0.67056 0.29011 0.48994 0.0
C443 C 0.59351 0.28712 0.57776 0.0
O444 O 0.61434 0.29965 0.47694 0.0
O445 O 0.57682 0.2812 0.47769 0.0
O446 O 0.64769 0.25582 0.55183 0.0
O447 O 0.61662 0.24972 0.51337 0.0
H448 H 0.083 0.37501 0.17338 0.0
H449 H 0.08639 0.30663 0.23627 0.0
H450 H 0.11267 0.28864 0.18745 0.0
H451 H 0.12651 0.28929 0.12132 0.0
H452 H 0.12124 0.35611 0.05546 0.0
H453 H 0.10482 0.37806 0.11111 0.0
C454 C 0.09009 0.35644 0.17674 0.0
C455 C 0.08223 0.34189 0.20769 0.0
C456 C 0.10479 0.34589 0.14787 0.0
C457 C 0.09167 0.31792 0.21206 0.0
C458 C 0.10677 0.30763 0.18424 0.0
C459 C 0.12277 0.30894 0.11977 0.0
C460 C 0.12478 0.32106 0.08457 0.0
C461 C 0.1123 0.32097 0.15115 0.0
C462 C 0.11994 0.34648 0.08252 0.0
C463 C 0.11013 0.3589 0.11415 0.0
H464 H 0.92976 0.80946 0.30244 0.0
H465 H 0.93568 0.8822 0.35136 0.0
H466 H 0.91166 0.86859 0.40707 0.0
H467 H 0.89506 0.83397 0.44577 0.0
H468 H 0.8926 0.76092 0.39721 0.0
H469 H 0.9087 0.77673 0.33685 0.0
C470 C 0.92559 0.82244 0.32515 0.0
C471 C 0.93496 0.84658 0.32345 0.0
C472 C 0.91236 0.81436 0.357 0.0
C473 C 0.92885 0.86343 0.35237 0.0
C474 C 0.91522 0.85561 0.38419 0.0
C475 C 0.89729 0.82178 0.42145 0.0
C476 C 0.89271 0.79636 0.42561 0.0
C477 C 0.90768 0.83085 0.38742 0.0
C478 C 0.89602 0.78054 0.39437 0.0
C479 C 0.90539 0.78954 0.36007 0.0
H480 H 0.41995 0.68647 0.70327 0.0
H481 H 0.43354 0.61712 0.64725 0.0
H482 H 0.40792 0.63013 0.59289 0.0
H483 H 0.38868 0.66457 0.55709 0.0
H484 H 0.37789 0.73452 0.61306 0.0
H485 H 0.39452 0.71778 0.67242 0.0
C486 C 0.41681 0.67405 0.67943 0.0
C487 C 0.42883 0.65118 0.6785 0.0
C488 C 0.40248 0.6818 0.6485 0.0
C489 C 0.4245 0.63491 0.64811 0.0
C490 C 0.40996 0.6424 0.61712 0.0
C491 C 0.38897 0.67569 0.58285 0.0
C492 C 0.3821 0.70067 0.58104 0.0
C493 C 0.39975 0.66625 0.61633 0.0
C494 C 0.38298 0.7152 0.61414 0.0
C495 C 0.39276 0.70573 0.64786 0.0
H496 H 0.57256 0.14358 0.82273 0.0
H497 H 0.53216 0.21092 0.80091 0.0
H498 H 0.55325 0.23117 0.85287 0.0
H499 H 0.58077 0.22962 0.9069 0.0
H500 H 0.62066 0.1629 0.93269 0.0
H501 H 0.60279 0.14294 0.87619 0.0
C502 C 0.56842 0.16267 0.82935 0.0
C503 C 0.55044 0.17544 0.80805 0.0
C504 C 0.58066 0.17448 0.85981 0.0
C505 C 0.54556 0.20032 0.81689 0.0
C506 C 0.55773 0.2121 0.8466 0.0
C507 C 0.5858 0.21076 0.90006 0.0
C508 C 0.60177 0.1977 0.92419 0.0
C509 C 0.57498 0.1993 0.86853 0.0
C510 C 0.60841 0.17342 0.9145 0.0
C511 C 0.59799 0.16191 0.88243 0.0
H512 H 0.07863 0.63289 0.31401 0.0
H513 H 0.0042 0.64027 0.35575 0.0
H514 H 0.01966 0.65394 0.41766 0.0
H515 H 0.05355 0.66978 0.45581 0.0
H516 H 0.12814 0.66557 0.41392 0.0
H517 H 0.11352 0.64428 0.35624 0.0
C518 C 0.06589 0.6368 0.3371 0.0
C519 C 0.04032 0.63576 0.33044 0.0
C520 C 0.07493 0.64562 0.3722 0.0
C521 C 0.02393 0.64111 0.36029 0.0
C522 C 0.03276 0.64903 0.39557 0.0
C523 C 0.06668 0.66399 0.43422 0.0
C524 C 0.09179 0.66972 0.43854 0.0
C525 C 0.0581 0.65237 0.40116 0.0
C526 C 0.10868 0.66153 0.41097 0.0
C527 C 0.1003 0.64948 0.37798 0.0
H528 H 0.5905 0.85633 0.54237 0.0
H529 H 0.64249 0.81636 0.6115 0.0
H530 H 0.6328 0.84278 0.66645 0.0
H531 H 0.602 0.86952 0.69734 0.0
H532 H 0.54631 0.90484 0.62895 0.0
H533 H 0.56547 0.88902 0.57074 0.0
C534 C 0.60036 0.85416 0.56916 0.0
C535 C 0.61701 0.8346 0.57339 0.0
C536 C 0.59382 0.86859 0.60069 0.0
C537 C 0.62968 0.83151 0.60792 0.0
C538 C 0.62396 0.84646 0.63928 0.0
C539 C 0.59494 0.87477 0.66949 0.0
C540 C 0.57294 0.88833 0.66707 0.0
C541 C 0.60501 0.86405 0.63651 0.0
C542 C 0.5634 0.89462 0.63116 0.0
C543 C 0.57414 0.88525 0.59802 0.0
H544 H 0.38145 0.32385 0.89925 0.0
H545 H 0.44834 0.31481 0.96439 0.0
H546 H 0.47044 0.34167 0.92064 0.0
H547 H 0.47275 0.36099 0.85818 0.0
H548 H 0.40732 0.3688 0.7897 0.0
H549 H 0.38252 0.35003 0.84059 0.0
C550 C 0.40069 0.32827 0.90409 0.0
C551 C 0.41348 0.31689 0.93422 0.0
C552 C 0.41359 0.34344 0.87812 0.0
C553 C 0.43834 0.32287 0.94066 0.0
C554 C 0.45099 0.3383 0.9158 0.0
C555 C 0.45291 0.35934 0.85501 0.0
C556 C 0.44188 0.36593 0.82034 0.0
C557 C 0.43911 0.34772 0.88355 0.0
C558 C 0.41618 0.36391 0.81638 0.0
C559 C 0.40207 0.35283 0.84524 0.0
H560 H 0.92389 0.16374 0.03947 0.0
H561 H 0.86696 0.19978 0.10432 0.0
H562 H 0.87706 0.17437 0.16032 0.0
H563 H 0.90803 0.1487 0.19329 0.0
H564 H 0.96675 0.11554 0.12857 0.0
H565 H 0.94941 0.13191 0.06937 0.0
C566 C 0.91335 0.1655 0.06569 0.0
C567 C 0.89512 0.1837 0.0685 0.0
C568 C 0.91952 0.15117 0.0975 0.0
C569 C 0.88122 0.1859 0.10203 0.0
C570 C 0.88704 0.17143 0.1339 0.0
C571 C 0.91616 0.14401 0.16591 0.0
C572 C 0.93846 0.1309 0.1649 0.0
C573 C 0.90692 0.15484 0.13242 0.0
C574 C 0.94937 0.12534 0.12965 0.0
C575 C 0.93971 0.13508 0.09599 0.0
H576 H 0.90181 0.6531 0.79747 0.0
H577 H 0.93838 0.60443 0.87622 0.0
H578 H 0.91422 0.62134 0.92919 0.0
H579 H 0.89135 0.65703 0.95405 0.0
H580 H 0.86089 0.71008 0.87575 0.0
H581 H 0.87319 0.68438 0.82153 0.0
C582 C 0.90348 0.64543 0.826 0.0
C583 C 0.92147 0.62743 0.83319 0.0
C584 C 0.89087 0.65653 0.85645 0.0
C585 C 0.92426 0.618 0.87021 0.0
C586 C 0.9107 0.62794 0.90047 0.0
C587 C 0.88642 0.66225 0.92511 0.0
C588 C 0.87507 0.68514 0.91858 0.0
C589 C 0.89514 0.64824 0.8942 0.0
C590 C 0.86934 0.69232 0.88116 0.0
C591 C 0.87664 0.67777 0.85025 0.0
H592 H 0.12466 0.17887 0.5924 0.0
H593 H 0.05803 0.17459 0.52543 0.0
H594 H 0.04075 0.14466 0.56971 0.0
H595 H 0.04092 0.12738 0.63366 0.0
H596 H 0.10522 0.13441 0.70475 0.0
H597 H 0.12756 0.15451 0.65241 0.0
C598 C 0.10662 0.17091 0.58727 0.0
C599 C 0.09225 0.1794 0.55659 0.0
C600 C 0.09642 0.15416 0.61363 0.0
C601 C 0.06904 0.16883 0.54968 0.0
C602 C 0.05921 0.15161 0.57479 0.0
C603 C 0.06019 0.13235 0.63697 0.0
C604 C 0.07141 0.12981 0.67274 0.0
C605 C 0.07218 0.14519 0.60781 0.0
C606 C 0.09633 0.13616 0.67717 0.0
C607 C 0.10891 0.14808 0.6475 0.0
H608 H 0.61411 0.32586 0.41029 0.0
H609 H 0.54454 0.31371 0.46718 0.0
H610 H 0.52366 0.33957 0.42088 0.0
H611 H 0.52372 0.35919 0.35847 0.0
H612 H 0.59215 0.37066 0.2988 0.0
H613 H 0.61496 0.35243 0.35223 0.0
C614 C 0.5945 0.32931 0.41283 0.0
C615 C 0.58078 0.31721 0.44133 0.0
C616 C 0.58234 0.34409 0.38555 0.0
C617 C 0.55541 0.32214 0.44472 0.0
C618 C 0.54342 0.33706 0.4184 0.0
C619 C 0.54371 0.35845 0.35781 0.0
C620 C 0.55624 0.36593 0.32482 0.0
C621 C 0.55648 0.34719 0.38781 0.0
C622 C 0.58212 0.36509 0.32414 0.0
C623 C 0.59513 0.35431 0.35443 0.0
H624 H 0.43057 0.86405 0.173 0.0
H625 H 0.47933 0.80202 0.19115 0.0
H626 H 0.45838 0.77895 0.1419 0.0
H627 H 0.42819 0.77658 0.09171 0.0
H628 H 0.38048 0.8384 0.06837 0.0
H629 H 0.39845 0.86089 0.12246 0.0
C630 C 0.43662 0.84553 0.16607 0.0
C631 C 0.45679 0.83506 0.18559 0.0
C632 C 0.42451 0.83212 0.13711 0.0
C633 C 0.46419 0.81088 0.1764 0.0
C634 C 0.45209 0.79747 0.14833 0.0
C635 C 0.42148 0.79491 0.09848 0.0
C636 C 0.40321 0.80586 0.07572 0.0
C637 C 0.43248 0.80797 0.1283 0.0
C638 C 0.39452 0.82948 0.08547 0.0
C639 C 0.40499 0.84246 0.11613 0.0
H640 H 0.92801 0.36171 0.65544 0.0
H641 H 0.9564 0.29121 0.69264 0.0
H642 H 0.93173 0.27021 0.64517 0.0
H643 H 0.90558 0.27159 0.58935 0.0
H644 H 0.87791 0.34113 0.54792 0.0
H645 H 0.898 0.36257 0.60131 0.0
C646 C 0.9286 0.34177 0.65325 0.0
C647 C 0.94455 0.32819 0.67708 0.0
C648 C 0.91438 0.32954 0.62522 0.0
C649 C 0.94486 0.30229 0.67414 0.0
C650 C 0.93059 0.29014 0.64711 0.0
C651 C 0.90358 0.29142 0.59225 0.0
C652 C 0.89054 0.30475 0.56448 0.0
C653 C 0.91581 0.30358 0.62195 0.0
C654 C 0.88782 0.33039 0.56901 0.0
C655 C 0.89956 0.34269 0.59929 0.0
H656 H 0.3991 0.15515 0.28294 0.0
H657 H 0.43065 0.10008 0.35663 0.0
H658 H 0.40766 0.1168 0.4111 0.0
H659 H 0.38761 0.15314 0.43944 0.0
H660 H 0.36361 0.21249 0.36666 0.0
H661 H 0.37401 0.18821 0.30997 0.0
C662 C 0.39989 0.14616 0.31064 0.0
C663 C 0.4161 0.12631 0.31602 0.0
C664 C 0.38836 0.15719 0.34207 0.0
C665 C 0.41784 0.1151 0.35198 0.0
C666 C 0.40501 0.12493 0.38311 0.0
C667 C 0.38375 0.16021 0.41106 0.0
C668 C 0.37477 0.18436 0.40685 0.0
C669 C 0.3915 0.14687 0.37887 0.0
C670 C 0.37038 0.19384 0.37024 0.0
C671 C 0.3765 0.18003 0.33796 0.0
H672 H 0.57923 0.64461 0.18035 0.0
H673 H 0.50424 0.65843 0.14533 0.0
H674 H 0.51877 0.67707 0.08616 0.0
H675 H 0.55234 0.6938 0.04839 0.0
H676 H 0.62772 0.68186 0.08261 0.0
H677 H 0.61354 0.65791 0.13804 0.0
C678 C 0.56613 0.65115 0.15925 0.0
C679 C 0.54071 0.65035 0.16722 0.0
C680 C 0.57467 0.66256 0.12561 0.0
C681 C 0.52389 0.65905 0.13989 0.0
C682 C 0.53217 0.6698 0.10616 0.0
C683 C 0.56573 0.6859 0.06789 0.0
C684 C 0.591 0.69005 0.062 0.0
C685 C 0.55747 0.67245 0.09945 0.0
C686 C 0.60814 0.67911 0.08684 0.0
C687 C 0.60002 0.66548 0.1185 0.0
H688 H 0.08433 0.8727 0.81586 0.0
H689 H 0.07096 0.80278 0.76051 0.0
H690 H 0.09478 0.78158 0.80911 0.0
H691 H 0.11285 0.78183 0.87239 0.0
H692 H 0.12371 0.85042 0.93203 0.0
H693 H 0.10852 0.87334 0.87634 0.0
C694 C 0.08702 0.85291 0.81431 0.0
C695 C 0.07531 0.83921 0.78541 0.0
C696 C 0.10039 0.8406 0.84306 0.0
C697 C 0.07915 0.81361 0.78323 0.0
C698 C 0.09293 0.80146 0.81081 0.0
C699 C 0.11268 0.80186 0.8726 0.0
C700 C 0.11906 0.81446 0.90608 0.0
C701 C 0.10272 0.81461 0.8416 0.0
C702 C 0.11898 0.84037 0.9063 0.0
C703 C 0.10987 0.85342 0.87473 0.0
H704 H 0.09524 0.34145 0.34047 0.0
H705 H 0.03388 0.34275 0.41846 0.0
H706 H 0.05664 0.31679 0.46348 0.0
H707 H 0.09084 0.2885 0.47525 0.0
H708 H 0.15037 0.28339 0.39395 0.0
H709 H 0.13165 0.31612 0.35558 0.0
C710 C 0.08736 0.33681 0.36805 0.0
C711 C 0.06319 0.3442 0.37668 0.0
C712 C 0.09997 0.32067 0.39259 0.0
C713 C 0.05266 0.33752 0.41176 0.0
C714 C 0.06554 0.32245 0.43717 0.0
C715 C 0.09991 0.29474 0.44939 0.0
C716 C 0.12174 0.28327 0.4371 0.0
C717 C 0.0887 0.31302 0.42704 0.0
C718 C 0.1334 0.29176 0.40378 0.0
C719 C 0.12271 0.31047 0.38185 0.0
H720 H 0.95536 0.83122 0.54555 0.0
H721 H 0.90311 0.82413 0.63758 0.0
H722 H 0.92716 0.8531 0.67636 0.0
H723 H 0.9657 0.87624 0.68643 0.0
H724 H 0.01681 0.88517 0.59324 0.0
H725 H 0.99034 0.8601 0.55199 0.0
C726 C 0.94915 0.83639 0.5739 0.0
C727 C 0.92786 0.82546 0.58917 0.0
C728 C 0.96279 0.85334 0.5956 0.0
C729 C 0.91957 0.83239 0.62555 0.0
C730 C 0.93332 0.84884 0.64766 0.0
C731 C 0.97058 0.87327 0.65672 0.0
C732 C 0.99305 0.88238 0.64275 0.0
C733 C 0.95529 0.85889 0.63332 0.0
C734 C 0.99939 0.87853 0.60435 0.0
C735 C 0.98443 0.86395 0.58095 0.0
H736 H 0.38964 0.71537 0.94277 0.0
H737 H 0.37466 0.76647 0.85124 0.0
H738 H 0.39775 0.74043 0.80678 0.0
H739 H 0.42515 0.70509 0.79559 0.0
H740 H 0.43868 0.65284 0.88594 0.0
H741 H 0.41299 0.6773 0.92955 0.0
C742 C 0.39114 0.72055 0.91292 0.0
C743 C 0.38068 0.7428 0.90019 0.0
C744 C 0.4043 0.70543 0.88762 0.0
C745 C 0.38249 0.74933 0.86153 0.0
C746 C 0.39582 0.73456 0.83623 0.0
C747 C 0.42224 0.69901 0.82479 0.0
C748 C 0.43392 0.67754 0.83799 0.0
C749 C 0.40726 0.71291 0.84921 0.0
C750 C 0.42982 0.66942 0.87546 0.0
C751 C 0.41525 0.68341 0.90028 0.0
H752 H 0.56957 0.20072 0.14191 0.0
H753 H 0.58521 0.14606 0.05598 0.0
H754 H 0.55569 0.11765 0.08573 0.0
H755 H 0.52231 0.11033 0.13263 0.0
H756 H 0.5089 0.16459 0.22036 0.0
H757 H 0.54064 0.19117 0.19358 0.0
C758 C 0.56681 0.18238 0.13022 0.0
C759 C 0.57927 0.17543 0.09683 0.0
C760 C 0.54998 0.16626 0.14748 0.0
C761 C 0.57585 0.15164 0.08191 0.0
C762 C 0.55882 0.13554 0.09867 0.0
C763 C 0.52654 0.12789 0.14599 0.0
C764 C 0.51295 0.13569 0.17797 0.0
C765 C 0.54526 0.14294 0.13085 0.0
C766 C 0.51888 0.15823 0.19553 0.0
C767 C 0.53706 0.17349 0.18023 0.0
H768 H 0.0374 0.69213 0.12418 0.0
H769 H 0.09667 0.671 0.19917 0.0
H770 H 0.1249 0.69881 0.16508 0.0
H771 H 0.13225 0.72975 0.114 0.0
H772 H 0.07305 0.74713 0.03622 0.0
H773 H 0.04529 0.72032 0.07125 0.0
C774 C 0.05651 0.69368 0.13302 0.0
C775 C 0.065 0.67991 0.16422 0.0
C776 C 0.0726 0.70908 0.11281 0.0
C777 C 0.08985 0.68155 0.17511 0.0
C778 C 0.10591 0.69746 0.15574 0.0
C779 C 0.11326 0.72762 0.10487 0.0
C780 C 0.10468 0.74066 0.07281 0.0
C781 C 0.09744 0.71144 0.1246 0.0
C782 C 0.08017 0.73746 0.06082 0.0
C783 C 0.0642 0.72209 0.08087 0.0
H784 H 0.54972 0.87232 0.2999 0.0
H785 H 0.50122 0.89936 0.38808 0.0
H786 H 0.52655 0.87944 0.43677 0.0
H787 H 0.55863 0.8493 0.45296 0.0
H788 H 0.60738 0.82215 0.36543 0.0
H789 H 0.58598 0.84739 0.31756 0.0
C790 C 0.54508 0.87434 0.32988 0.0
C791 C 0.52349 0.887 0.34042 0.0
C792 C 0.55956 0.86257 0.35763 0.0
C793 C 0.51774 0.88972 0.37928 0.0
C794 C 0.5321 0.87814 0.4071 0.0
C795 C 0.56481 0.84932 0.42347 0.0
C796 C 0.5842 0.83375 0.41236 0.0
C797 C 0.55243 0.86374 0.39641 0.0
C798 C 0.59243 0.83405 0.37441 0.0
C799 C 0.58012 0.84834 0.34712 0.0
H800 H 0.37525 0.26074 0.62304 0.0
H801 H 0.40918 0.278 0.51484 0.0
H802 H 0.43383 0.31028 0.54522 0.0
H803 H 0.44792 0.3317 0.6038 0.0
H804 H 0.4146 0.31341 0.71178 0.0
H805 H 0.38733 0.28368 0.68037 0.0
C806 C 0.38791 0.27167 0.60605 0.0
C807 C 0.39053 0.26683 0.56683 0.0
C808 C 0.40208 0.2901 0.62372 0.0
C809 C 0.40693 0.28125 0.54516 0.0
C810 C 0.42103 0.29974 0.5625 0.0
C811 C 0.43426 0.32154 0.62007 0.0
C812 C 0.43285 0.32479 0.65976 0.0
C813 C 0.41903 0.3041 0.60188 0.0
C814 C 0.41559 0.31129 0.68103 0.0
C815 C 0.40018 0.29422 0.66315 0.0
H816 H 0.98066 0.11476 0.87383 0.0
H817 H 0.98122 0.16049 0.77283 0.0
H818 H 0.95035 0.18735 0.80061 0.0
H819 H 0.92629 0.20053 0.85632 0.0
H820 H 0.92329 0.15417 0.956 0.0
H821 H 0.95144 0.12462 0.92592 0.0
C822 C 0.97379 0.13045 0.85782 0.0
C823 C 0.98381 0.13599 0.82183 0.0
C824 C 0.95545 0.14566 0.87364 0.0
C825 C 0.97435 0.15607 0.80101 0.0
C826 C 0.95654 0.17147 0.81677 0.0
C827 C 0.93125 0.18354 0.87078 0.0
C828 C 0.92276 0.17921 0.90788 0.0
C829 C 0.9474 0.1668 0.85339 0.0
C830 C 0.92944 0.15746 0.92698 0.0
C831 C 0.94571 0.14077 0.91 0.0
H832 H 0.9266 0.69932 0.71702 0.0
H833 H 0.94146 0.64687 0.62743 0.0
H834 H 0.91892 0.67274 0.5817 0.0
H835 H 0.89626 0.71116 0.5671 0.0
H836 H 0.87922 0.76191 0.65821 0.0
H837 H 0.90129 0.73577 0.70367 0.0
C838 C 0.92486 0.69357 0.68745 0.0
C839 C 0.93589 0.67145 0.67534 0.0
C840 C 0.91151 0.70821 0.66175 0.0
C841 C 0.93313 0.66387 0.63726 0.0
C842 C 0.92033 0.67868 0.61117 0.0
C843 C 0.89729 0.71636 0.59697 0.0
C844 C 0.88629 0.73845 0.60935 0.0
C845 C 0.90964 0.70101 0.62306 0.0
C846 C 0.88748 0.74494 0.64811 0.0
C847 C 0.90018 0.73006 0.67405 0.0
H848 H 0.03793 0.12221 0.35523 0.0
H849 H 0.01137 0.1806 0.28239 0.0
H850 H 0.04029 0.20935 0.31072 0.0
H851 H 0.07056 0.21911 0.36026 0.0
H852 H 0.09947 0.16101 0.43121 0.0
H853 H 0.07299 0.1309 0.39895 0.0
C854 C 0.03866 0.14119 0.34553 0.0
C855 C 0.02217 0.14931 0.31722 0.0
C856 C 0.05599 0.15768 0.36133 0.0
C857 C 0.02363 0.17382 0.30427 0.0
C858 C 0.04025 0.19037 0.32045 0.0
C859 C 0.07154 0.19972 0.36784 0.0
C860 C 0.08686 0.19226 0.39794 0.0
C861 C 0.05621 0.18263 0.34941 0.0
C862 C 0.08802 0.16712 0.40769 0.0
C863 C 0.07261 0.14997 0.38965 0.0
H864 H 0.62329 0.28741 0.06213 0.0
H865 H 0.62545 0.23093 0.14872 0.0
H866 H 0.60278 0.25777 0.1927 0.0
H867 H 0.57864 0.29559 0.20352 0.0
H868 H 0.5781 0.35281 0.11798 0.0
H869 H 0.60426 0.32757 0.07649 0.0
C870 C 0.61917 0.28126 0.09094 0.0
C871 C 0.62579 0.25735 0.10235 0.0
C872 C 0.60638 0.29682 0.11596 0.0
C873 C 0.62062 0.24941 0.13962 0.0
C874 C 0.60752 0.26466 0.16457 0.0
C875 C 0.58461 0.30261 0.17601 0.0
C876 C 0.57634 0.32579 0.16343 0.0
C877 C 0.59976 0.28812 0.15263 0.0
C878 C 0.58435 0.33499 0.1281 0.0
C879 C 0.59914 0.32052 0.10436 0.0
H880 H 0.43845 0.79992 0.86191 0.0
H881 H 0.4184 0.85529 0.94446 0.0
H882 H 0.44689 0.88469 0.91452 0.0
H883 H 0.47993 0.89337 0.86731 0.0
H884 H 0.49702 0.83837 0.78234 0.0
H885 H 0.46744 0.81012 0.81071 0.0
C886 C 0.44008 0.81858 0.8729 0.0
C887 C 0.42657 0.8255 0.90531 0.0
C888 C 0.45621 0.83531 0.85539 0.0
C889 C 0.42857 0.8497 0.91929 0.0
C890 C 0.445 0.86639 0.90241 0.0
C891 C 0.47701 0.87524 0.85502 0.0
C892 C 0.49091 0.86785 0.82313 0.0
C893 C 0.45933 0.85922 0.8709 0.0
C894 C 0.4867 0.8445 0.80696 0.0
C895 C 0.46975 0.82828 0.82318 0.0
H896 H 0.9233 0.27375 0.94925 0.0
H897 H 0.8611 0.27593 0.87258 0.0
H898 H 0.88256 0.30581 0.83216 0.0
H899 H 0.92034 0.32863 0.81577 0.0
H900 H 0.98398 0.32302 0.88886 0.0
H901 H 0.96061 0.29749 0.9339 0.0
C902 C 0.91436 0.28092 0.92388 0.0
C903 C 0.89069 0.27256 0.91382 0.0
C904 C 0.9271 0.29754 0.90021 0.0
C905 C 0.87939 0.28196 0.88078 0.0
C906 C 0.89163 0.29907 0.8577 0.0
C907 C 0.92883 0.32227 0.84205 0.0
C908 C 0.95367 0.32784 0.84938 0.0
C909 C 0.91564 0.30668 0.86678 0.0
C910 C 0.96479 0.31902 0.88292 0.0
C911 C 0.95149 0.30434 0.90848 0.0
H912 H 0.49967 0.13128 0.6135 0.0
H913 H 0.44495 0.12697 0.70228 0.0
H914 H 0.41477 0.14724 0.66087 0.0
H915 H 0.4058 0.17089 0.60274 0.0
H916 H 0.46232 0.17975 0.51716 0.0
H917 H 0.48999 0.15325 0.55378 0.0
C918 C 0.4809 0.13418 0.62315 0.0
C919 C 0.47423 0.1274 0.66039 0.0
C920 C 0.4642 0.1472 0.60007 0.0
C921 C 0.45019 0.1318 0.67335 0.0
C922 C 0.43307 0.14359 0.64987 0.0
C923 C 0.42405 0.16673 0.59189 0.0
C924 C 0.43206 0.17738 0.55747 0.0
C925 C 0.44014 0.15214 0.61368 0.0
C926 C 0.45584 0.172 0.54386 0.0
C927 C 0.47165 0.15678 0.56471 0.0
H928 H 0.63208 0.72443 0.39433 0.0
H929 H 0.57196 0.74682 0.46708 0.0
H930 H 0.54418 0.71891 0.43355 0.0
H931 H 0.5364 0.68969 0.38152 0.0
H932 H 0.59659 0.66518 0.31074 0.0
H933 H 0.62504 0.69204 0.34585 0.0
C934 C 0.61292 0.72307 0.40288 0.0
C935 C 0.60401 0.73791 0.43278 0.0
C936 C 0.5971 0.70658 0.3839 0.0
C937 C 0.57926 0.73572 0.44405 0.0
C938 C 0.56333 0.71977 0.42485 0.0
C939 C 0.55579 0.69015 0.37398 0.0
C940 C 0.56441 0.67578 0.34339 0.0
C941 C 0.57197 0.70537 0.39445 0.0
C942 C 0.5896 0.67611 0.33425 0.0
C943 C 0.60581 0.69156 0.35415 0.0
H944 H 0.08806 0.81262 0.12533 0.0
H945 H 0.06612 0.85578 0.02791 0.0
H946 H 0.04042 0.88196 0.0688 0.0
H947 H 0.02054 0.88918 0.13097 0.0
H948 H 0.04024 0.84359 0.22728 0.0
H949 H 0.0705 0.8218 0.18843 0.0
C950 C 0.07815 0.82824 0.11348 0.0
C951 C 0.07907 0.83271 0.07412 0.0
C952 C 0.06273 0.84245 0.13687 0.0
C953 C 0.06577 0.85241 0.05842 0.0
C954 C 0.05099 0.86719 0.08169 0.0
C955 C 0.03176 0.87475 0.14354 0.0
C956 C 0.02807 0.86787 0.18178 0.0
C957 C 0.04874 0.86189 0.12077 0.0
C958 C 0.04263 0.84908 0.19776 0.0
C959 C 0.05995 0.83661 0.17559 0.0
H960 H 0.62751 0.76038 0.86394 0.0
H961 H 0.6141 0.80125 0.96739 0.0
H962 H 0.59417 0.83412 0.93077 0.0
H963 H 0.57708 0.84929 0.86991 0.0
H964 H 0.58659 0.80595 0.76776 0.0
H965 H 0.61159 0.77612 0.80292 0.0
C966 C 0.62069 0.77676 0.87823 0.0
C967 C 0.62243 0.77864 0.9181 0.0
C968 C 0.60831 0.79501 0.85719 0.0
C969 C 0.613 0.79958 0.93659 0.0
C970 C 0.60155 0.8183 0.91571 0.0
C971 C 0.58502 0.83353 0.85535 0.0
C972 C 0.5801 0.82977 0.81642 0.0
C973 C 0.59859 0.81596 0.87608 0.0
C974 C 0.5901 0.8091 0.79784 0.0
C975 C 0.60438 0.79206 0.8179 0.0
H976 H 0.46429 0.35143 0.1919 0.0
H977 H 0.51177 0.36882 0.09676 0.0
H978 H 0.48695 0.34271 0.05492 0.0
H979 H 0.45253 0.31405 0.04575 0.0
H980 H 0.40299 0.29852 0.13876 0.0
H981 H 0.42772 0.32486 0.18138 0.0
C982 C 0.46904 0.34955 0.16195 0.0
C983 C 0.48982 0.3619 0.14736 0.0
C984 C 0.4544 0.33484 0.13789 0.0
C985 C 0.49577 0.35957 0.10852 0.0
C986 C 0.48167 0.34458 0.08464 0.0
C987 C 0.44722 0.31654 0.0754 0.0
C988 C 0.42634 0.30435 0.08956 0.0
C989 C 0.46111 0.33201 0.0991 0.0
C990 C 0.41915 0.30781 0.12761 0.0
C991 C 0.43327 0.32277 0.15182 0.0
H992 H 0.8801 0.21369 0.43018 0.0
H993 H 0.8649 0.2656 0.33986 0.0
H994 H 0.89073 0.24188 0.29606 0.0
H995 H 0.92007 0.20803 0.2849 0.0
H996 H 0.93359 0.15483 0.37404 0.0
H997 H 0.90593 0.17732 0.41692 0.0
C998 C 0.88213 0.21952 0.4007 0.0
C999 C 0.8707 0.24134 0.38823 0.0
C1000 C 0.8969 0.20572 0.37567 0.0
C1001 C 0.87334 0.24873 0.35 0.0
C1002 C 0.88829 0.2353 0.32505 0.0
C1003 C 0.91685 0.20135 0.31369 0.0
C1004 C 0.92906 0.18006 0.32659 0.0
C1005 C 0.90057 0.21407 0.33782 0.0
C1006 C 0.92441 0.17125 0.36361 0.0
C1007 C 0.90865 0.18411 0.3881 0.0
H1008 H 0.07149 0.69977 0.65233 0.0
H1009 H 0.09227 0.64109 0.57589 0.0
H1010 H 0.06638 0.61209 0.61149 0.0
H1011 H 0.03375 0.60493 0.65962 0.0
H1012 H 0.01568 0.66313 0.73879 0.0
H1013 H 0.04458 0.69069 0.70716 0.0
C1014 C 0.07081 0.68048 0.64416 0.0
C1015 C 0.08359 0.67255 0.61154 0.0
C1016 C 0.05604 0.66392 0.66488 0.0
C1017 C 0.08271 0.64753 0.60116 0.0
C1018 C 0.06771 0.63101 0.62125 0.0
C1019 C 0.03645 0.62353 0.67024 0.0
C1020 C 0.02209 0.63212 0.70092 0.0
C1021 C 0.05364 0.63921 0.6524 0.0
C1022 C 0.02613 0.65609 0.7149 0.0
C1023 C 0.04271 0.67194 0.6968 0.0
H1024 H 0.59279 0.21032 0.52373 0.0
H1025 H 0.64628 0.22624 0.61151 0.0
H1026 H 0.62542 0.19748 0.65481 0.0
H1027 H 0.5882 0.17299 0.67058 0.0
H1028 H 0.53273 0.16155 0.58431 0.0
H1029 H 0.55815 0.18313 0.5373 0.0
C1030 C 0.60015 0.20724 0.55215 0.0
C1031 C 0.62082 0.22067 0.56462 0.0
C1032 C 0.58753 0.19154 0.57719 0.0
C1033 C 0.63031 0.21622 0.60131 0.0
C1034 C 0.61829 0.19989 0.62613 0.0
C1035 C 0.58217 0.17462 0.64114 0.0
C1036 C 0.55886 0.1656 0.63054 0.0
C1037 C 0.59636 0.18816 0.61483 0.0
C1038 C 0.55075 0.16824 0.59274 0.0
C1039 C 0.56519 0.1807 0.56603 0.0
H1040 H 0.01073 0.38344 0.86518 0.0
H1041 H 0.05462 0.36319 0.76755 0.0
H1042 H 0.08539 0.34432 0.80953 0.0
H1043 H 0.09706 0.3291 0.87346 0.0
H1044 H 0.05027 0.34531 0.96969 0.0
H1045 H 0.02352 0.37038 0.92916 0.0
C1046 C 0.02737 0.37548 0.85324 0.0
C1047 C 0.03061 0.37484 0.81349 0.0
C1048 C 0.04431 0.36366 0.87739 0.0
C1049 C 0.05188 0.36393 0.79819 0.0
C1050 C 0.06939 0.35306 0.82214 0.0
C1051 C 0.08133 0.33866 0.88556 0.0
C1052 C 0.07561 0.33554 0.92437 0.0
C1053 C 0.06543 0.35217 0.86172 0.0
C1054 C 0.05494 0.34752 0.93978 0.0
C1055 C 0.03964 0.36179 0.91664 0.0
H1056 H 0.86731 0.79075 0.10422 0.0
H1057 H 0.92494 0.76804 0.02709 0.0
H1058 H 0.95387 0.79592 0.05832 0.0
H1059 H 0.9639 0.82343 0.11194 0.0
H1060 H 0.9061 0.84836 0.1869 0.0
H1061 H 0.87597 0.82355 0.15162 0.0
C1062 C 0.88614 0.79216 0.09406 0.0
C1063 C 0.89411 0.777 0.06392 0.0
C1064 C 0.90259 0.80873 0.11164 0.0
C1065 C 0.91839 0.77931 0.05046 0.0
C1066 C 0.93498 0.79527 0.06832 0.0
C1067 C 0.94457 0.82391 0.11984 0.0
C1068 C 0.93718 0.83756 0.15195 0.0
C1069 C 0.92743 0.80962 0.09949 0.0
C1070 C 0.91213 0.83816 0.162 0.0
C1071 C 0.89497 0.82373 0.14214 0.0
H1072 H 0.45462 0.67524 0.45296 0.0
H1073 H 0.39487 0.67725 0.37181 0.0
H1074 H 0.41795 0.65018 0.32875 0.0
H1075 H 0.4569 0.62964 0.31164 0.0
H1076 H 0.51583 0.62602 0.394 0.0
H1077 H 0.49122 0.64984 0.43953 0.0
C1078 C 0.44658 0.66947 0.42602 0.0
C1079 C 0.4233 0.67843 0.41519 0.0
C1080 C 0.45981 0.65372 0.40174 0.0
C1081 C 0.4128 0.67057 0.38062 0.0
C1082 C 0.42603 0.65521 0.35598 0.0
C1083 C 0.46407 0.63366 0.3399 0.0
C1084 C 0.48807 0.62625 0.34959 0.0
C1085 C 0.44978 0.6472 0.36586 0.0
C1086 C 0.49728 0.63138 0.38618 0.0
C1087 C 0.48331 0.64517 0.41203 0.0
H1088 H 0.42594 0.15578 0.11586 0.0
H1089 H 0.41442 0.20031 0.21634 0.0
H1090 H 0.38818 0.22838 0.18014 0.0
H1091 H 0.37125 0.24219 0.11902 0.0
H1092 H 0.38611 0.20055 0.01679 0.0
H1093 H 0.40795 0.16929 0.05434 0.0
C1094 C 0.41741 0.17149 0.12975 0.0
C1095 C 0.42213 0.17609 0.16855 0.0
C1096 C 0.40294 0.18806 0.10841 0.0
C1097 C 0.41122 0.19659 0.18632 0.0
C1098 C 0.39616 0.2126 0.16571 0.0
C1099 C 0.37879 0.22597 0.10515 0.0
C1100 C 0.37687 0.22341 0.06539 0.0
C1101 C 0.39224 0.20877 0.12662 0.0
C1102 C 0.38727 0.20271 0.0475 0.0
C1103 C 0.39985 0.18494 0.06891 0.0
H1104 H 0.52592 0.66688 0.78604 0.0
H1105 H 0.52409 0.60638 0.86603 0.0
H1106 H 0.55495 0.62704 0.90571 0.0
H1107 H 0.57917 0.66433 0.92101 0.0
H1108 H 0.57717 0.72649 0.84442 0.0
H1109 H 0.55139 0.70317 0.79974 0.0
C1110 C 0.53243 0.65808 0.81192 0.0
C1111 C 0.52258 0.6352 0.82321 0.0
C1112 C 0.54953 0.67044 0.8352 0.0
C1113 C 0.53127 0.62406 0.85686 0.0
C1114 C 0.54891 0.63587 0.87955 0.0
C1115 C 0.57357 0.67242 0.89403 0.0
C1116 C 0.5802 0.69687 0.88556 0.0
C1117 C 0.55776 0.65932 0.86946 0.0
C1118 C 0.57237 0.70757 0.85115 0.0
C1119 C 0.55754 0.69431 0.8258 0.0
H1120 H 0.09829 0.82818 0.66213 0.0
H1121 H 0.04479 0.83698 0.57224 0.0
H1122 H 0.0659 0.80571 0.53391 0.0
H1123 H 0.0958 0.77229 0.53013 0.0
H1124 H 0.14724 0.76037 0.62228 0.0
H1125 H 0.13079 0.7965 0.65581 0.0
C1126 C 0.09189 0.82379 0.63355 0.0
C1127 C 0.07039 0.83499 0.61947 0.0
C1128 C 0.10336 0.80487 0.61269 0.0
C1129 C 0.06159 0.82876 0.5831 0.0
C1130 C 0.07347 0.81073 0.56149 0.0
C1131 C 0.1036 0.77768 0.55741 0.0
C1132 C 0.12246 0.76349 0.57401 0.0
C1133 C 0.09376 0.79804 0.57667 0.0
C1134 C 0.13256 0.7709 0.60911 0.0
C1135 C 0.12317 0.79153 0.62824 0.0
H1136 H 0.91803 0.34678 0.42019 0.0
H1137 H 0.9202 0.28362 0.34547 0.0
H1138 H 0.94816 0.3053 0.30236 0.0
H1139 H 0.97492 0.34026 0.28929 0.0
H1140 H 0.97634 0.40241 0.36618 0.0
H1141 H 0.94387 0.38332 0.40491 0.0
C1142 C 0.92431 0.3381 0.39403 0.0
C1143 C 0.91714 0.31378 0.38572 0.0
C1144 C 0.94119 0.35037 0.3701 0.0
C1145 C 0.92558 0.30238 0.35223 0.0
C1146 C 0.94159 0.31471 0.3277 0.0
C1147 C 0.96803 0.34978 0.31434 0.0
C1148 C 0.9782 0.37259 0.32508 0.0
C1149 C 0.95001 0.33842 0.33689 0.0
C1150 C 0.96888 0.38476 0.35743 0.0
C1151 C 0.95037 0.37382 0.37962 0.0
H1152 H 0.42209 0.82664 0.31451 0.0
H1153 H 0.47672 0.83032 0.40368 0.0
H1154 H 0.45181 0.8028 0.44369 0.0
H1155 H 0.41589 0.77593 0.45142 0.0
H1156 H 0.36316 0.76885 0.3598 0.0
H1157 H 0.38596 0.79945 0.32232 0.0
C1158 C 0.42821 0.82171 0.34302 0.0
C1159 C 0.45089 0.83063 0.35661 0.0
C1160 C 0.41434 0.80508 0.36501 0.0
C1161 C 0.45916 0.82372 0.39301 0.0
C1162 C 0.445 0.80795 0.4157 0.0
C1163 C 0.4093 0.78112 0.42332 0.0
C1164 C 0.38788 0.77015 0.40836 0.0
C1165 C 0.42279 0.7982 0.4017 0.0
C1166 C 0.37965 0.77701 0.37185 0.0
C1167 C 0.39264 0.79452 0.35048 0.0
H1168 H 0.96033 0.63833 0.18156 0.0
H1169 H 0.01584 0.62951 0.09447 0.0
H1170 H 0.99108 0.65389 0.05 0.0
H1171 H 0.9547 0.67939 0.03703 0.0
H1172 H 0.89812 0.68683 0.12275 0.0
H1173 H 0.92214 0.66109 0.16664 0.0
C1174 C 0.96684 0.64156 0.15269 0.0
C1175 C 0.98987 0.63223 0.14127 0.0
C1176 C 0.95239 0.65539 0.12719 0.0
C1177 C 0.9981 0.63638 0.1038 0.0
C1178 C 0.98402 0.65043 0.07846 0.0
C1179 C 0.9476 0.67531 0.0653 0.0
C1180 C 0.92483 0.68522 0.07686 0.0
C1181 C 0.96131 0.66029 0.09004 0.0
C1182 C 0.91561 0.67942 0.11325 0.0
C1183 C 0.92937 0.66479 0.13835 0.0
H1184 H 0.13678 0.22729 0.88931 0.0
H1185 H 0.07392 0.25443 0.95166 0.0
H1186 H 0.04708 0.2254 0.91843 0.0
H1187 H 0.04116 0.19342 0.86949 0.0
H1188 H 0.10426 0.16304 0.81164 0.0
H1189 H 0.13147 0.19182 0.84552 0.0
C1190 C 0.11721 0.22671 0.89556 0.0
C1191 C 0.10721 0.24317 0.92234 0.0
C1192 C 0.10201 0.2093 0.87733 0.0
C1193 C 0.08197 0.24203 0.93095 0.0
C1194 C 0.06661 0.22543 0.91197 0.0
C1195 C 0.06092 0.19296 0.8648 0.0
C1196 C 0.07081 0.17637 0.8382 0.0
C1197 C 0.07639 0.20914 0.88488 0.0
C1198 C 0.09638 0.17564 0.83232 0.0
C1199 C 0.11187 0.19219 0.85142 0.0
H1200 H 0.58015 0.33387 0.56514 0.0
H1201 H 0.5813 0.27729 0.65151 0.0
H1202 H 0.55498 0.30259 0.69281 0.0
H1203 H 0.52796 0.33843 0.70067 0.0
H1204 H 0.52271 0.39251 0.6106 0.0
H1205 H 0.55433 0.37063 0.57418 0.0
C1206 C 0.57523 0.32752 0.59355 0.0
C1207 C 0.58294 0.30413 0.60588 0.0
C1208 C 0.55896 0.34148 0.61593 0.0
C1209 C 0.57583 0.2955 0.64199 0.0
C1210 C 0.56062 0.30983 0.6653 0.0
C1211 C 0.53387 0.34556 0.67324 0.0
C1212 C 0.5229 0.36695 0.65818 0.0
C1213 C 0.55145 0.33247 0.65202 0.0
C1214 C 0.53076 0.37596 0.62261 0.0
C1215 C 0.54887 0.36349 0.60184 0.0
H1216 H 0.07719 0.4641 0.27095 0.0
H1217 H 0.01286 0.44792 0.20257 0.0
H1218 H 0.00926 0.49105 0.18511 0.0
H1219 H 0.02167 0.53386 0.19385 0.0
H1220 H 0.08674 0.55132 0.25882 0.0
H1221 H 0.09295 0.50727 0.27283 0.0
C1222 C 0.06265 0.47 0.25178 0.0
C1223 C 0.04512 0.4528 0.2386 0.0
C1224 C 0.06068 0.49508 0.2415 0.0
C1225 C 0.02651 0.46071 0.21346 0.0
C1226 C 0.02434 0.48544 0.20347 0.0
C1227 C 0.03737 0.52794 0.21072 0.0
C1228 C 0.05355 0.54558 0.22575 0.0
C1229 C 0.04089 0.50282 0.2181 0.0
C1230 C 0.07407 0.53788 0.24703 0.0
C1231 C 0.07751 0.51277 0.25515 0.0
H1232 H 0.78961 0.7581 0.52074 0.0
H1233 H 0.80047 0.83679 0.51431 0.0
H1234 H 0.75666 0.84249 0.49937 0.0
H1235 H 0.71498 0.82474 0.48874 0.0
H1236 H 0.70474 0.74613 0.50004 0.0
H1237 H 0.74859 0.74073 0.51222 0.0
C1238 C 0.78243 0.77652 0.51594 0.0
C1239 C 0.79822 0.79698 0.51836 0.0
C1240 C 0.75731 0.77963 0.50818 0.0
C1241 C 0.78861 0.82075 0.5126 0.0
C1242 C 0.7636 0.824 0.50399 0.0
C1243 C 0.72248 0.80648 0.49369 0.0
C1244 C 0.70674 0.78585 0.49338 0.0
C1245 C 0.74774 0.80354 0.50172 0.0
C1246 C 0.71651 0.76229 0.50029 0.0
C1247 C 0.74158 0.75917 0.50722 0.0
H1248 H 0.42732 0.46203 0.75011 0.0
H1249 H 0.49307 0.46198 0.68109 0.0
H1250 H 0.49601 0.50677 0.68615 0.0
H1251 H 0.4822 0.54524 0.71451 0.0
H1252 H 0.41793 0.54626 0.78694 0.0
H1253 H 0.41198 0.50193 0.7763 0.0
C1254 C 0.44192 0.47203 0.73567 0.0
C1255 C 0.4599 0.45898 0.71507 0.0
C1256 C 0.44395 0.49784 0.73976 0.0
C1257 C 0.47904 0.47184 0.69697 0.0
C1258 C 0.48078 0.49738 0.69998 0.0
C1259 C 0.46675 0.53587 0.7278 0.0
C1260 C 0.45067 0.549 0.75172 0.0
C1261 C 0.46371 0.51048 0.72203 0.0
C1262 C 0.43066 0.53654 0.7685 0.0
C1263 C 0.42727 0.51119 0.76245 0.0
H1264 H 0.79202 0.17742 0.98086 0.0
H1265 H 0.79581 0.25623 -0.0016 0.0
H1266 H 0.75166 0.25778 0.00879 0.0
H1267 H 0.71224 0.23744 0.01286 0.0
H1268 H 0.70662 0.15858 -0.00032 0.0
H1269 H 0.75129 0.15627 0.98768 0.0
C1270 C 0.78308 0.19486 0.98695 0.0
C1271 C 0.79717 0.21669 0.98874 0.0
C1272 C 0.75746 0.19563 0.99361 0.0
C1273 C 0.78546 0.23915 -0.00301 0.0
C1274 C 0.76017 0.24011 0.00285 0.0
C1275 C 0.72067 0.21968 0.00711 0.0
C1276 C 0.70616 0.19825 0.0066 0.0
C1277 C 0.74606 0.21854 0.00114 0.0
C1278 C 0.71747 0.17535 0.0 0.0
C1279 C 0.74295 0.17407 0.99314 0.0
H1280 H 0.93997 0.45281 0.78413 0.0
H1281 H 0.96582 0.44182 0.66905 0.0
H1282 H 0.9635 0.48628 0.657 0.0
H1283 H 0.95878 0.52873 0.68179 0.0
H1284 H 0.93843 0.53961 0.79945 0.0
H1285 H 0.93374 0.49499 0.80811 0.0
C1286 C 0.94443 0.46014 0.75613 0.0
C1287 C 0.95274 0.44413 0.72733 0.0
C1288 C 0.94435 0.48581 0.75016 0.0
C1289 C 0.95918 0.45385 0.6915 0.0
C1290 C 0.958 0.47926 0.68471 0.0
C1291 C 0.95286 0.52121 0.70902 0.0
C1292 C 0.94869 0.53719 0.7399 0.0
C1293 C 0.95132 0.49549 0.71417 0.0
C1294 C 0.94159 0.52747 0.77535 0.0
C1295 C 0.93897 0.50202 0.78028 0.0
H1296 H 0.28743 0.23525 0.54848 0.0
H1297 H 0.2958 0.16251 0.50096 0.0
H1298 H 0.25088 0.15917 0.493 0.0
H1299 H 0.20963 0.17912 0.4941 0.0
H1300 H 0.20237 0.25127 0.54521 0.0
H1301 H 0.24636 0.25253 0.55773 0.0
C1302 C 0.27931 0.21852 0.53697 0.0
C1303 C 0.29462 0.19925 0.52498 0.0
C1304 C 0.25371 0.21672 0.53294 0.0
C1305 C 0.28414 0.17752 0.51045 0.0
C1306 C 0.25855 0.17571 0.50569 0.0
C1307 C 0.21768 0.19492 0.50844 0.0
C1308 C 0.20277 0.21521 0.51816 0.0
C1309 C 0.24318 0.19549 0.51598 0.0
C1310 C 0.21339 0.23545 0.53717 0.0
C1311 C 0.2386 0.23627 0.54428 0.0
H1312 H 0.51683 0.54373 0.22067 0.0
H1313 H 0.5893 0.54831 0.27073 0.0
H1314 H 0.59545 0.50401 0.25916 0.0
H1315 H 0.57818 0.46303 0.23977 0.0
H1316 H 0.50435 0.46007 0.19421 0.0
H1317 H 0.50084 0.50466 0.19882 0.0
C1318 C 0.53411 0.53518 0.22885 0.0
C1319 C 0.55247 0.54924 0.24687 0.0
C1320 C 0.53719 0.50987 0.22304 0.0
C1321 C 0.57482 0.53784 0.25686 0.0
C1322 C 0.57829 0.5125 0.2504 0.0
C1323 C 0.56154 0.47233 0.23046 0.0
C1324 C 0.54145 0.45839 0.21695 0.0
C1325 C 0.55933 0.49817 0.23426 0.0
C1326 C 0.5199 0.47046 0.20512 0.0
C1327 C 0.51788 0.49594 0.20769 0.0
H1328 H 0.21292 0.82886 0.01006 0.0
H1329 H 0.20719 0.74943 0.00713 0.0
H1330 H 0.25162 0.74593 0.00051 0.0
H1331 H 0.29177 0.76489 0.99417 0.0
H1332 H 0.299 0.84409 0.99215 0.0
H1333 H 0.25433 0.84829 0.00214 0.0
C1334 C 0.22151 0.81085 0.00812 0.0
C1335 C 0.2068 0.78942 0.00912 0.0
C1336 C 0.24726 0.80893 0.00341 0.0
C1337 C 0.21807 0.76619 0.00621 0.0
C1338 C 0.24349 0.76414 0.00252 0.0
C1339 C 0.28369 0.78315 0.99622 0.0
C1340 C 0.29869 0.80416 0.99281 0.0
C1341 C 0.25821 0.78533 0.00093 0.0
C1342 C 0.28781 0.82763 0.99485 0.0
C1343 C 0.2623 0.83001 0.00052 0.0
H1344 H 0.51963 0.97508 0.80624 0.0
H1345 H 0.59325 0.96673 0.76243 0.0
H1346 H 0.59606 0.01151 0.75196 0.0
H1347 H 0.57529 0.0524 0.74888 0.0
H1348 H 0.50212 0.0597 0.79614 0.0
H1349 H 0.5016 0.01617 0.81224 0.0
C1350 C 0.53645 0.98319 0.79507 0.0
C1351 C 0.55612 0.96785 0.78479 0.0
C1352 C 0.53793 0.00875 0.78955 0.0
C1353 C 0.57793 0.97837 0.77065 0.0
C1354 C 0.57944 0.0039 0.76445 0.0
C1355 C 0.55946 0.04453 0.76334 0.0
C1356 C 0.53862 0.05929 0.77064 0.0
C1357 C 0.55925 0.01923 0.77284 0.0
C1358 C 0.51834 0.04883 0.78976 0.0
C1359 C 0.51794 0.02384 0.79894 0.0
H1360 H 0.29317 0.26967 0.96017 0.0
H1361 H 0.30158 0.33776 0.02255 0.0
H1362 H 0.25732 0.34589 0.0159 0.0
H1363 H 0.21539 0.33152 -0.00315 0.0
H1364 H 0.20795 0.26146 0.93978 0.0
H1365 H 0.2526 0.2563 0.93946 0.0
C1366 C 0.28545 0.28648 0.97195 0.0
C1367 C 0.30067 0.30304 0.99191 0.0
C1368 C 0.26003 0.29059 0.96906 0.0
C1369 C 0.29027 0.32468 0.00706 0.0
C1370 C 0.26494 0.32929 0.00337 0.0
C1371 C 0.22372 0.31538 0.98391 0.0
C1372 C 0.2086 0.29688 0.96825 0.0
C1373 C 0.24951 0.3121 0.9851 0.0
C1374 C 0.21937 0.27585 0.95202 0.0
C1375 C 0.24485 0.27288 0.95187 0.0
H1376 H 0.99797 0.0397 0.2785 0.0
H1377 H 0.91943 0.04923 0.26908 0.0
H1378 H 0.91401 0.00451 0.26179 0.0
H1379 H 0.93217 0.96256 0.25591 0.0
H1380 H 0.01059 0.95379 0.27137 0.0
H1381 H 0.01546 0.99811 0.27877 0.0
C1382 C 0.97968 0.03193 0.27496 0.0
C1383 C 0.95917 0.04762 0.27388 0.0
C1384 C 0.97669 0.00628 0.27193 0.0
C1385 C 0.9355 0.0374 0.26995 0.0
C1386 C 0.93241 0.01187 0.26569 0.0
C1387 C 0.95023 0.97041 0.26122 0.0
C1388 C 0.97097 0.95487 0.26291 0.0
C1389 C 0.95292 0.99609 0.26634 0.0
C1390 C 0.99427 0.96527 0.27012 0.0
C1391 C 0.99715 0.99067 0.27417 0.0
H1392 H 0.28972 0.67457 0.48767 0.0
H1393 H 0.28813 0.75238 0.46192 0.0
H1394 H 0.24338 0.75258 0.46691 0.0
H1395 H 0.20503 0.73153 0.48163 0.0
H1396 H 0.20557 0.65475 0.51373 0.0
H1397 H 0.25029 0.65312 0.50308 0.0
C1398 C 0.27945 0.69144 0.48294 0.0
C1399 C 0.29214 0.71344 0.47447 0.0
C1400 C 0.25359 0.69161 0.48707 0.0
C1401 C 0.27876 0.73528 0.46876 0.0
C1402 C 0.25317 0.73541 0.4715 0.0
C1403 C 0.21482 0.71431 0.48586 0.0
C1404 C 0.20199 0.69324 0.49814 0.0
C1405 C 0.24044 0.71379 0.48105 0.0
C1406 C 0.21506 0.67121 0.50412 0.0
C1407 C 0.24062 0.67031 0.49813 0.0
H1408 H 0.41674 0.03369 0.2451 0.0
H1409 H 0.47682 0.03841 0.16507 0.0
H1410 H 0.48171 0.99361 0.16646 0.0
H1411 H 0.4728 0.95418 0.19722 0.0
H1412 H 0.41385 0.94889 0.27939 0.0
H1413 H 0.40423 0.9926 0.27001 0.0
C1414 C 0.43034 0.02469 0.22721 0.0
C1415 C 0.44632 0.03904 0.20478 0.0
C1416 C 0.43344 0.99891 0.22896 0.0
C1417 C 0.46425 0.0275 0.18222 0.0
C1418 C 0.46714 0.00196 0.18321 0.0
C1419 C 0.45754 0.96246 0.21255 0.0
C1420 C 0.44428 0.94842 0.2393 0.0
C1421 C 0.45243 0.98761 0.2075 0.0
C1422 C 0.42438 0.95933 0.25866 0.0
C1423 C 0.41898 0.98438 0.25349 0.0
H1424 H 0.78718 0.682 0.00537 0.0
H1425 H 0.7897 0.75714 0.04542 0.0
H1426 H 0.74487 0.75988 0.04187 0.0
H1427 H 0.70554 0.74233 0.02279 0.0
H1428 H 0.70217 0.66866 0.97659 0.0
H1429 H 0.74662 0.66378 0.98718 0.0
C1430 C 0.77774 0.69876 0.0138 0.0
C1431 C 0.79152 0.71933 0.02584 0.0
C1432 C 0.75189 0.70051 0.01024 0.0
C1433 C 0.77933 0.74114 0.03608 0.0
C1434 C 0.75375 0.74271 0.03401 0.0
C1435 C 0.71439 0.72505 0.01541 0.0
C1436 C 0.70053 0.70588 -0.00106 0.0
C1437 C 0.73991 0.72272 0.02043 0.0
C1438 C 0.71242 0.68371 0.98931 0.0
C1439 C 0.73785 0.68095 0.9953 0.0
H1440 H 0.08535 0.04122 0.7466 0.0
H1441 H 0.02014 0.03633 0.8164 0.0
H1442 H 0.02004 0.99147 0.81007 0.0
H1443 H 0.0353 0.95464 0.77868 0.0
H1444 H 0.09842 0.95873 0.70409 0.0
H1445 H 0.10293 0.00279 0.7187 0.0
C1446 C 0.07156 0.03012 0.76105 0.0
C1447 C 0.05285 0.04175 0.78214 0.0
C1448 C 0.07112 0.00433 0.75607 0.0
C1449 C 0.03472 0.02753 0.80024 0.0
C1450 C 0.03462 0.00197 0.79649 0.0
C1451 C 0.05029 0.96503 0.76595 0.0
C1452 C 0.06632 0.95351 0.73998 0.0
C1453 C 0.05224 0.99029 0.77354 0.0
C1454 C 0.08578 0.96721 0.72409 0.0
C1455 C 0.08827 0.99242 0.73229 0.0
H1456 H 0.70496 0.32344 0.51604 0.0
H1457 H 0.69395 0.26505 0.4338 0.0
H1458 H 0.73754 0.26549 0.41821 0.0
H1459 H 0.77942 0.279 0.43264 0.0
H1460 H 0.79183 0.33773 0.51306 0.0
H1461 H 0.74715 0.34082 0.5246 0.0
C1462 C 0.71206 0.31117 0.49423 0.0
C1463 C 0.69619 0.29399 0.47654 0.0
C1464 C 0.73744 0.3114 0.48537 0.0
C1465 C 0.70569 0.27828 0.4482 0.0
C1466 C 0.73069 0.27845 0.43926 0.0
C1467 C 0.77223 0.29275 0.45221 0.0
C1468 C 0.78861 0.30802 0.47217 0.0
C1469 C 0.74679 0.29437 0.45843 0.0
C1470 C 0.77935 0.32588 0.49733 0.0
C1471 C 0.75388 0.32751 0.50402 0.0
loop_
_geom_bond_atom_site_label_1
_geom_bond_atom_site_label_2
_geom_bond_distance
_geom_bond_site_symmetry_2
_ccdc_geom_bond_type
Co0 O1 2.216 . S
Co0 O2 2.091 . S
Co0 O4 2.004 . S
Co0 O10 2.021 . S
Co0 O12 2.137 . S
Co0 O13 2.244 . S
O1 Co0 2.216 . S
O1 C8 1.247 . S
O2 Co0 2.091 . S
O2 C8 1.261 . S
C3 O12 1.247 . S
C3 O13 1.272 . S
O4 Co0 2.004 . S
O4 C9 1.259 . S
Co5 O6 2.061 . S
Co5 O11 2.052 . S
Co5 O13 2.135 . S
O6 Co5 2.061 . S
O6 C9 1.235 . S
C7 O10 1.238 . S
C7 O11 1.241 . S
C8 O1 1.247 . S
C8 O2 1.261 . S
C9 O4 1.259 . S
C9 O6 1.235 . S
O10 Co0 2.021 . S
O10 C7 1.238 . S
O11 Co5 2.052 . S
O11 C7 1.241 . S
O12 Co0 2.137 . S
O12 C3 1.247 . S
O13 Co0 2.244 . S
O13 C3 1.272 . S
O13 Co5 2.135 . S
Co14 O15 2.216 . S
Co14 O16 2.091 . S
Co14 O18 2.004 . S
Co14 O24 2.021 . S
Co14 O26 2.137 . S
Co14 O27 2.244 . S
O15 Co14 2.216 . S
O15 C22 1.247 . S
O16 Co14 2.091 . S
O16 C22 1.261 . S
C17 O26 1.247 . S
C17 O27 1.272 . S
O18 Co14 2.004 . S
O18 C23 1.259 . S
Co19 O20 2.061 . S
Co19 O25 2.052 . S
Co19 O27 2.135 . S
O20 Co19 2.061 . S
O20 C23 1.235 . S
C21 O24 1.238 . S
C21 O25 1.241 . S
C22 O15 1.247 . S
C22 O16 1.261 . S
C23 O18 1.259 . S
C23 O20 1.235 . S
O24 Co14 2.021 . S
O24 C21 1.238 . S
O25 Co19 2.052 . S
O25 C21 1.241 . S
O26 Co14 2.137 . S
O26 C17 1.247 . S
O27 Co14 2.244 . S
O27 C17 1.272 . S
O27 Co19 2.135 . S
Co28 O29 2.216 . S
Co28 O30 2.091 . S
Co28 O32 2.004 . S
Co28 O38 2.021 . S
Co28 O40 2.137 . S
Co28 O41 2.244 . S
O29 Co28 2.216 . S
O29 C36 1.247 . S
O30 Co28 2.091 . S
O30 C36 1.261 . S
C31 O40 1.247 . S
C31 O41 1.272 . S
O32 Co28 2.004 . S
O32 C37 1.259 . S
Co33 O34 2.061 . S
Co33 O39 2.052 . S
Co33 O41 2.135 . S
O34 Co33 2.061 . S
O34 C37 1.235 . S
C35 O38 1.238 . S
C35 O39 1.241 . S
C36 O29 1.247 . S
C36 O30 1.261 . S
C37 O32 1.259 . S
C37 O34 1.235 . S
O38 Co28 2.021 . S
O38 C35 1.238 . S
O39 Co33 2.052 . S
O39 C35 1.241 . S
O40 Co28 2.137 . S
O40 C31 1.247 . S
O41 Co28 2.244 . S
O41 C31 1.272 . S
O41 Co33 2.135 . S
Co42 O43 2.216 . S
Co42 O44 2.091 . S
Co42 O46 2.004 . S
Co42 O52 2.021 . S
Co42 O54 2.137 . S
Co42 O55 2.244 . S
O43 Co42 2.216 . S
O43 C50 1.247 . S
O44 Co42 2.091 . S
O44 C50 1.261 . S
C45 O54 1.247 . S
C45 O55 1.272 . S
O46 Co42 2.004 . S
O46 C51 1.259 . S
Co47 O48 2.061 . S
Co47 O53 2.052 1_554 S
Co47 O55 2.135 . S
O48 Co47 2.061 . S
O48 C51 1.235 . S
C49 O52 1.238 1_556 S
C49 O53 1.241 . S
C50 O43 1.247 . S
C50 O44 1.261 . S
C51 O46 1.259 . S
C51 O48 1.235 . S
O52 Co42 2.021 . S
O52 C49 1.238 1_554 S
O53 Co47 2.052 1_556 S
O53 C49 1.241 . S
O54 Co42 2.137 . S
O54 C45 1.247 . S
O55 Co42 2.244 . S
O55 C45 1.272 . S
O55 Co47 2.135 . S
Co56 O57 2.216 . S
Co56 O58 2.091 . S
Co56 O60 2.004 . S
Co56 O66 2.021 . S
Co56 O68 2.137 . S
Co56 O69 2.244 . S
O57 Co56 2.216 . S
O57 C64 1.247 . S
O58 Co56 2.091 . S
O58 C64 1.261 . S
C59 O68 1.247 . S
C59 O69 1.272 . S
O60 Co56 2.004 . S
O60 C65 1.259 . S
Co61 O62 2.061 . S
Co61 O67 2.052 . S
Co61 O69 2.135 . S
O62 Co61 2.061 . S
O62 C65 1.235 . S
C63 O66 1.238 . S
C63 O67 1.241 . S
C64 O57 1.247 . S
C64 O58 1.261 . S
C65 O60 1.259 . S
C65 O62 1.235 . S
O66 Co56 2.021 . S
O66 C63 1.238 . S
O67 Co61 2.052 . S
O67 C63 1.241 . S
O68 Co56 2.137 . S
O68 C59 1.247 . S
O69 Co56 2.244 . S
O69 C59 1.272 . S
O69 Co61 2.135 . S
Co70 O71 2.216 . S
Co70 O72 2.091 . S
Co70 O74 2.004 . S
Co70 O80 2.021 . S
Co70 O82 2.137 . S
Co70 O83 2.244 . S
O71 Co70 2.216 . S
O71 C78 1.247 . S
O72 Co70 2.091 . S
O72 C78 1.261 . S
C73 O82 1.247 . S
C73 O83 1.272 . S
O74 Co70 2.004 . S
O74 C79 1.259 . S
Co75 O76 2.061 . S
Co75 O81 2.052 . S
Co75 O83 2.135 . S
O76 Co75 2.061 . S
O76 C79 1.235 . S
C77 O80 1.238 . S
C77 O81 1.241 . S
C78 O71 1.247 . S
C78 O72 1.261 . S
C79 O74 1.259 . S
C79 O76 1.235 . S
O80 Co70 2.021 . S
O80 C77 1.238 . S
O81 Co75 2.052 . S
O81 C77 1.241 . S
O82 Co70 2.137 . S
O82 C73 1.247 . S
O83 Co70 2.244 . S
O83 C73 1.272 . S
O83 Co75 2.135 . S
Co84 O85 2.216 . S
Co84 O86 2.091 . S
Co84 O88 2.004 . S
Co84 O94 2.021 . S
Co84 O96 2.137 . S
Co84 O97 2.244 . S
O85 Co84 2.216 . S
O85 C92 1.247 . S
O86 Co84 2.091 . S
O86 C92 1.261 . S
C87 O96 1.247 . S
C87 O97 1.272 . S
O88 Co84 2.004 . S
O88 C93 1.259 . S
Co89 O90 2.061 . S
Co89 O95 2.052 . S
Co89 O97 2.135 . S
O90 Co89 2.061 . S
O90 C93 1.235 . S
C91 O94 1.238 . S
C91 O95 1.241 . S
C92 O85 1.247 . S
C92 O86 1.261 . S
C93 O88 1.259 . S
C93 O90 1.235 . S
O94 Co84 2.021 . S
O94 C91 1.238 . S
O95 Co89 2.052 . S
O95 C91 1.241 . S
O96 Co84 2.137 . S
O96 C87 1.247 . S
O97 Co84 2.244 . S
O97 C87 1.272 . S
O97 Co89 2.135 . S
Co98 O99 2.216 . S
Co98 O100 2.091 . S
Co98 O102 2.004 . S
Co98 O108 2.021 . S
Co98 O110 2.137 . S
Co98 O111 2.244 . S
O99 Co98 2.216 . S
O99 C106 1.247 . S
O100 Co98 2.091 . S
O100 C106 1.261 . S
C101 O110 1.247 . S
C101 O111 1.272 . S
O102 Co98 2.004 . S
O102 C107 1.259 . S
Co103 O104 2.061 . S
Co103 O109 2.052 1_556 S
Co103 O111 2.135 . S
O104 Co103 2.061 . S
O104 C107 1.235 . S
C105 O108 1.238 1_554 S
C105 O109 1.241 . S
C106 O99 1.247 . S
C106 O100 1.261 . S
C107 O102 1.259 . S
C107 O104 1.235 . S
O108 Co98 2.021 . S
O108 C105 1.238 1_556 S
O109 Co103 2.052 1_554 S
O109 C105 1.241 . S
O110 Co98 2.137 . S
O110 C101 1.247 . S
O111 Co98 2.244 . S
O111 C101 1.272 . S
O111 Co103 2.135 . S
Co112 O113 2.216 . S
Co112 O114 2.091 . S
Co112 O116 2.004 . S
Co112 O122 2.021 . S
Co112 O124 2.137 . S
Co112 O125 2.244 . S
O113 Co112 2.216 . S
O113 C120 1.247 . S
O114 Co112 2.091 . S
O114 C120 1.261 . S
C115 O124 1.247 . S
C115 O125 1.272 . S
O116 Co112 2.004 . S
O116 C121 1.259 . S
Co117 O118 2.061 . S
Co117 O123 2.052 . S
Co117 O125 2.135 . S
O118 Co117 2.061 . S
O118 C121 1.235 . S
C119 O122 1.238 . S
C119 O123 1.241 . S
C120 O113 1.247 . S
C120 O114 1.261 . S
C121 O116 1.259 . S
C121 O118 1.235 . S
O122 Co112 2.021 . S
O122 C119 1.238 . S
O123 Co117 2.052 . S
O123 C119 1.241 . S
O124 Co112 2.137 . S
O124 C115 1.247 . S
O125 Co112 2.244 . S
O125 C115 1.272 . S
O125 Co117 2.135 . S
Co126 O127 2.216 . S
Co126 O128 2.091 . S
Co126 O130 2.004 . S
Co126 O136 2.021 . S
Co126 O138 2.137 . S
Co126 O139 2.244 . S
O127 Co126 2.216 . S
O127 C134 1.247 . S
O128 Co126 2.091 . S
O128 C134 1.261 . S
C129 O138 1.247 . S
C129 O139 1.272 . S
O130 Co126 2.004 . S
O130 C135 1.259 . S
Co131 O132 2.061 . S
Co131 O137 2.052 . S
Co131 O139 2.135 . S
O132 Co131 2.061 . S
O132 C135 1.235 . S
C133 O136 1.238 . S
C133 O137 1.241 . S
C134 O127 1.247 . S
C134 O128 1.261 . S
C135 O130 1.259 . S
C135 O132 1.235 . S
O136 Co126 2.021 . S
O136 C133 1.238 . S
O137 Co131 2.052 . S
O137 C133 1.241 . S
O138 Co126 2.137 . S
O138 C129 1.247 . S
O139 Co126 2.244 . S
O139 C129 1.272 . S
O139 Co131 2.135 . S
Co140 O141 2.216 . S
Co140 O142 2.091 . S
Co140 O144 2.004 . S
Co140 O150 2.021 . S
Co140 O152 2.137 . S
Co140 O153 2.244 . S
O141 Co140 2.216 . S
O141 C148 1.247 . S
O142 Co140 2.091 . S
O142 C148 1.261 . S
C143 O152 1.247 . S
C143 O153 1.272 . S
O144 Co140 2.004 . S
O144 C149 1.259 . S
Co145 O146 2.061 . S
Co145 O151 2.052 . S
Co145 O153 2.135 . S
O146 Co145 2.061 . S
O146 C149 1.235 . S
C147 O150 1.238 . S
C147 O151 1.241 . S
C148 O141 1.247 . S
C148 O142 1.261 . S
C149 O144 1.259 . S
C149 O146 1.235 . S
O150 Co140 2.021 . S
O150 C147 1.238 . S
O151 Co145 2.052 . S
O151 C147 1.241 . S
O152 Co140 2.137 . S
O152 C143 1.247 . S
O153 Co140 2.244 . S
O153 C143 1.272 . S
O153 Co145 2.135 . S
Co154 O155 2.216 . S
Co154 O156 2.091 . S
Co154 O158 2.004 . S
Co154 O164 2.021 . S
Co154 O166 2.137 . S
Co154 O167 2.244 . S
O155 Co154 2.216 . S
O155 C162 1.247 . S
O156 Co154 2.091 . S
O156 C162 1.261 . S
C157 O166 1.247 . S
C157 O167 1.272 . S
O158 Co154 2.004 . S
O158 C163 1.259 . S
Co159 O160 2.061 . S
Co159 O165 2.052 1_556 S
Co159 O167 2.135 . S
O160 Co159 2.061 . S
O160 C163 1.235 . S
C161 O164 1.238 1_554 S
C161 O165 1.241 . S
C162 O155 1.247 . S
C162 O156 1.261 . S
C163 O158 1.259 . S
C163 O160 1.235 . S
O164 Co154 2.021 . S
O164 C161 1.238 1_556 S
O165 Co159 2.052 1_554 S
O165 C161 1.241 . S
O166 Co154 2.137 . S
O166 C157 1.247 . S
O167 Co154 2.244 . S
O167 C157 1.272 . S
O167 Co159 2.135 . S
Co168 O169 2.216 . S
Co168 O170 2.091 . S
Co168 O172 2.004 . S
Co168 O178 2.021 . S
Co168 O180 2.137 . S
Co168 O181 2.244 . S
O169 Co168 2.216 . S
O169 C176 1.247 . S
O170 Co168 2.091 . S
O170 C176 1.261 . S
C171 O180 1.247 . S
C171 O181 1.272 . S
O172 Co168 2.004 . S
O172 C177 1.259 . S
Co173 O174 2.061 . S
Co173 O179 2.052 . S
Co173 O181 2.135 . S
O174 Co173 2.061 . S
O174 C177 1.235 . S
C175 O178 1.238 . S
C175 O179 1.241 . S
C176 O169 1.247 . S
C176 O170 1.261 . S
C177 O172 1.259 . S
C177 O174 1.235 . S
O178 Co168 2.021 . S
O178 C175 1.238 . S
O179 Co173 2.052 . S
O179 C175 1.241 . S
O180 Co168 2.137 . S
O180 C171 1.247 . S
O181 Co168 2.244 . S
O181 C171 1.272 . S
O181 Co173 2.135 . S
Co182 O183 2.216 . S
Co182 O184 2.091 . S
Co182 O186 2.004 . S
Co182 O192 2.021 . S
Co182 O194 2.137 . S
Co182 O195 2.244 . S
O183 Co182 2.216 . S
O183 C190 1.247 . S
O184 Co182 2.091 . S
O184 C190 1.261 . S
C185 O194 1.247 . S
C185 O195 1.272 . S
O186 Co182 2.004 . S
O186 C191 1.259 . S
Co187 O188 2.061 . S
Co187 O193 2.052 . S
Co187 O195 2.135 . S
O188 Co187 2.061 . S
O188 C191 1.235 . S
C189 O192 1.238 . S
C189 O193 1.241 . S
C190 O183 1.247 . S
C190 O184 1.261 . S
C191 O186 1.259 . S
C191 O188 1.235 . S
O192 Co182 2.021 . S
O192 C189 1.238 . S
O193 Co187 2.052 . S
O193 C189 1.241 . S
O194 Co182 2.137 . S
O194 C185 1.247 . S
O195 Co182 2.244 . S
O195 C185 1.272 . S
O195 Co187 2.135 . S
Co196 O197 2.216 . S
Co196 O198 2.091 . S
Co196 O200 2.004 . S
Co196 O206 2.021 . S
Co196 O208 2.137 . S
Co196 O209 2.244 . S
O197 Co196 2.216 . S
O197 C204 1.247 . S
O198 Co196 2.091 . S
O198 C204 1.261 . S
C199 O208 1.247 . S
C199 O209 1.272 . S
O200 Co196 2.004 . S
O200 C205 1.259 . S
Co201 O202 2.061 . S
Co201 O207 2.052 . S
Co201 O209 2.135 . S
O202 Co201 2.061 . S
O202 C205 1.235 . S
C203 O206 1.238 . S
C203 O207 1.241 . S
C204 O197 1.247 . S
C204 O198 1.261 . S
C205 O200 1.259 . S
C205 O202 1.235 . S
O206 Co196 2.021 . S
O206 C203 1.238 . S
O207 Co201 2.052 . S
O207 C203 1.241 . S
O208 Co196 2.137 . S
O208 C199 1.247 . S
O209 Co196 2.244 . S
O209 C199 1.272 . S
O209 Co201 2.135 . S
Co210 O211 2.216 . S
Co210 O212 2.091 . S
Co210 O214 2.004 . S
Co210 O220 2.021 . S
Co210 O222 2.137 . S
Co210 O223 2.244 . S
O211 Co210 2.216 . S
O211 C218 1.247 . S
O212 Co210 2.091 . S
O212 C218 1.261 . S
C213 O222 1.247 . S
C213 O223 1.272 . S
O214 Co210 2.004 . S
O214 C219 1.259 . S
Co215 O216 2.061 . S
Co215 O221 2.052 1_554 S
Co215 O223 2.135 . S
O216 Co215 2.061 . S
O216 C219 1.235 . S
C217 O220 1.238 1_556 S
C217 O221 1.241 . S
C218 O211 1.247 . S
C218 O212 1.261 . S
C219 O214 1.259 . S
C219 O216 1.235 . S
O220 Co210 2.021 . S
O220 C217 1.238 1_554 S
O221 Co215 2.052 1_556 S
O221 C217 1.241 . S
O222 Co210 2.137 . S
O222 C213 1.247 . S
O223 Co210 2.244 . S
O223 C213 1.272 . S
O223 Co215 2.135 . S
Co224 O225 2.216 . S
Co224 O226 2.091 . S
Co224 O228 2.004 . S
Co224 O234 2.021 . S
Co224 O236 2.137 . S
Co224 O237 2.244 . S
O225 Co224 2.216 . S
O225 C232 1.247 . S
O226 Co224 2.091 . S
O226 C232 1.261 . S
C227 O236 1.247 . S
C227 O237 1.272 . S
O228 Co224 2.004 . S
O228 C233 1.259 . S
Co229 O230 2.061 . S
Co229 O235 2.052 . S
Co229 O237 2.135 . S
O230 Co229 2.061 . S
O230 C233 1.235 . S
C231 O234 1.238 . S
C231 O235 1.241 . S
C232 O225 1.247 . S
C232 O226 1.261 . S
C233 O228 1.259 . S
C233 O230 1.235 . S
O234 Co224 2.021 . S
O234 C231 1.238 . S
O235 Co229 2.052 . S
O235 C231 1.241 . S
O236 Co224 2.137 . S
O236 C227 1.247 . S
O237 Co224 2.244 . S
O237 C227 1.272 . S
O237 Co229 2.135 . S
Co238 O239 2.216 . S
Co238 O240 2.091 . S
Co238 O242 2.004 . S
Co238 O248 2.021 . S
Co238 O250 2.137 . S
Co238 O251 2.244 . S
O239 Co238 2.216 . S
O239 C246 1.247 . S
O240 Co238 2.091 . S
O240 C246 1.261 . S
C241 O250 1.247 . S
C241 O251 1.272 . S
O242 Co238 2.004 . S
O242 C247 1.259 . S
Co243 O244 2.061 . S
Co243 O249 2.052 1_554 S
Co243 O251 2.135 . S
O244 Co243 2.061 . S
O244 C247 1.235 . S
C245 O248 1.238 1_556 S
C245 O249 1.241 . S
C246 O239 1.247 . S
C246 O240 1.261 . S
C247 O242 1.259 . S
C247 O244 1.235 . S
O248 Co238 2.021 . S
O248 C245 1.238 1_554 S
O249 Co243 2.052 1_556 S
O249 C245 1.241 . S
O250 Co238 2.137 . S
O250 C241 1.247 . S
O251 Co238 2.244 . S
O251 C241 1.272 . S
O251 Co243 2.135 . S
Co252 O253 2.216 . S
Co252 O254 2.091 . S
Co252 O256 2.004 . S
Co252 O262 2.021 . S
Co252 O264 2.137 . S
Co252 O265 2.244 . S
O253 Co252 2.216 . S
O253 C260 1.247 . S
O254 Co252 2.091 . S
O254 C260 1.261 . S
C255 O264 1.247 . S
C255 O265 1.272 . S
O256 Co252 2.004 . S
O256 C261 1.259 . S
Co257 O258 2.061 . S
Co257 O263 2.052 . S
Co257 O265 2.135 . S
O258 Co257 2.061 . S
O258 C261 1.235 . S
C259 O262 1.238 . S
C259 O263 1.241 . S
C260 O253 1.247 . S
C260 O254 1.261 . S
C261 O256 1.259 . S
C261 O258 1.235 . S
O262 Co252 2.021 . S
O262 C259 1.238 . S
O263 Co257 2.052 . S
O263 C259 1.241 . S
O264 Co252 2.137 . S
O264 C255 1.247 . S
O265 Co252 2.244 . S
O265 C255 1.272 . S
O265 Co257 2.135 . S
Co266 O267 2.216 . S
Co266 O268 2.091 . S
Co266 O270 2.004 . S
Co266 O276 2.021 . S
Co266 O278 2.137 . S
Co266 O279 2.244 . S
O267 Co266 2.216 . S
O267 C274 1.247 . S
O268 Co266 2.091 . S
O268 C274 1.261 . S
C269 O278 1.247 . S
C269 O279 1.272 . S
O270 Co266 2.004 . S
O270 C275 1.259 . S
Co271 O272 2.061 . S
Co271 O277 2.052 . S
Co271 O279 2.135 . S
O272 Co271 2.061 . S
O272 C275 1.235 . S
C273 O276 1.238 . S
C273 O277 1.241 . S
C274 O267 1.247 . S
C274 O268 1.261 . S
C275 O270 1.259 . S
C275 O272 1.235 . S
O276 Co266 2.021 . S
O276 C273 1.238 . S
O277 Co271 2.052 . S
O277 C273 1.241 . S
O278 Co266 2.137 . S
O278 C269 1.247 . S
O279 Co266 2.244 . S
O279 C269 1.272 . S
O279 Co271 2.135 . S
Co280 O281 2.216 . S
Co280 O282 2.091 . S
Co280 O284 2.004 . S
Co280 O290 2.021 . S
Co280 O292 2.137 . S
Co280 O293 2.244 . S
O281 Co280 2.216 . S
O281 C288 1.247 . S
O282 Co280 2.091 . S
O282 C288 1.261 . S
C283 O292 1.247 . S
C283 O293 1.272 . S
O284 Co280 2.004 . S
O284 C289 1.259 . S
Co285 O286 2.061 . S
Co285 O291 2.052 . S
Co285 O293 2.135 . S
O286 Co285 2.061 . S
O286 C289 1.235 . S
C287 O290 1.238 . S
C287 O291 1.241 . S
C288 O281 1.247 . S
C288 O282 1.261 . S
C289 O284 1.259 . S
C289 O286 1.235 . S
O290 Co280 2.021 . S
O290 C287 1.238 . S
O291 Co285 2.052 . S
O291 C287 1.241 . S
O292 Co280 2.137 . S
O292 C283 1.247 . S
O293 Co280 2.244 . S
O293 C283 1.272 . S
O293 Co285 2.135 . S
Co294 O295 2.216 . S
Co294 O296 2.091 . S
Co294 O298 2.004 . S
Co294 O304 2.021 . S
Co294 O306 2.137 . S
Co294 O307 2.244 . S
O295 Co294 2.216 . S
O295 C302 1.247 . S
O296 Co294 2.091 . S
O296 C302 1.261 . S
C297 O306 1.247 . S
C297 O307 1.272 . S
O298 Co294 2.004 . S
O298 C303 1.259 . S
Co299 O300 2.061 . S
Co299 O305 2.052 1_556 S
Co299 O307 2.135 . S
O300 Co299 2.061 . S
O300 C303 1.235 . S
C301 O304 1.238 1_554 S
C301 O305 1.241 . S
C302 O295 1.247 . S
C302 O296 1.261 . S
C303 O298 1.259 . S
C303 O300 1.235 . S
O304 Co294 2.021 . S
O304 C301 1.238 1_556 S
O305 Co299 2.052 1_554 S
O305 C301 1.241 . S
O306 Co294 2.137 . S
O306 C297 1.247 . S
O307 Co294 2.244 . S
O307 C297 1.272 . S
O307 Co299 2.135 . S
Co308 O309 2.216 . S
Co308 O310 2.091 . S
Co308 O312 2.004 . S
Co308 O318 2.021 . S
Co308 O320 2.137 . S
Co308 O321 2.244 . S
O309 Co308 2.216 . S
O309 C316 1.247 . S
O310 Co308 2.091 . S
O310 C316 1.261 . S
C311 O320 1.247 . S
C311 O321 1.272 . S
O312 Co308 2.004 . S
O312 C317 1.259 . S
Co313 O314 2.061 . S
Co313 O319 2.052 . S
Co313 O321 2.135 . S
O314 Co313 2.061 . S
O314 C317 1.235 . S
C315 O318 1.238 . S
C315 O319 1.241 . S
C316 O309 1.247 . S
C316 O310 1.261 . S
C317 O312 1.259 . S
C317 O314 1.235 . S
O318 Co308 2.021 . S
O318 C315 1.238 . S
O319 Co313 2.052 . S
O319 C315 1.241 . S
O320 Co308 2.137 . S
O320 C311 1.247 . S
O321 Co308 2.244 . S
O321 C311 1.272 . S
O321 Co313 2.135 . S
Co322 O323 2.216 . S
Co322 O324 2.091 . S
Co322 O326 2.004 . S
Co322 O332 2.021 . S
Co322 O334 2.137 . S
Co322 O335 2.244 . S
O323 Co322 2.216 . S
O323 C330 1.247 . S
O324 Co322 2.091 . S
O324 C330 1.261 . S
C325 O334 1.247 . S
C325 O335 1.272 . S
O326 Co322 2.004 . S
O326 C331 1.259 . S
Co327 O328 2.061 . S
Co327 O333 2.052 . S
Co327 O335 2.135 . S
O328 Co327 2.061 . S
O328 C331 1.235 . S
C329 O332 1.238 . S
C329 O333 1.241 . S
C330 O323 1.247 . S
C330 O324 1.261 . S
C331 O326 1.259 . S
C331 O328 1.235 . S
O332 Co322 2.021 . S
O332 C329 1.238 . S
O333 Co327 2.052 . S
O333 C329 1.241 . S
O334 Co322 2.137 . S
O334 C325 1.247 . S
O335 Co322 2.244 . S
O335 C325 1.272 . S
O335 Co327 2.135 . S
Co336 O337 2.216 . S
Co336 O338 2.091 . S
Co336 O340 2.004 . S
Co336 O346 2.021 . S
Co336 O348 2.137 . S
Co336 O349 2.244 . S
O337 Co336 2.216 . S
O337 C344 1.247 . S
O338 Co336 2.091 . S
O338 C344 1.261 . S
C339 O348 1.247 . S
C339 O349 1.272 . S
O340 Co336 2.004 . S
O340 C345 1.259 . S
Co341 O342 2.061 . S
Co341 O347 2.052 . S
Co341 O349 2.135 . S
O342 Co341 2.061 . S
O342 C345 1.235 . S
C343 O346 1.238 . S
C343 O347 1.241 . S
C344 O337 1.247 . S
C344 O338 1.261 . S
C345 O340 1.259 . S
C345 O342 1.235 . S
O346 Co336 2.021 . S
O346 C343 1.238 . S
O347 Co341 2.052 . S
O347 C343 1.241 . S
O348 Co336 2.137 . S
O348 C339 1.247 . S
O349 Co336 2.244 . S
O349 C339 1.272 . S
O349 Co341 2.135 . S
Co350 O351 2.216 . S
Co350 O352 2.091 . S
Co350 O354 2.004 . S
Co350 O360 2.021 . S
Co350 O362 2.137 . S
Co350 O363 2.244 . S
O351 Co350 2.216 . S
O351 C358 1.247 . S
O352 Co350 2.091 . S
O352 C358 1.261 . S
C353 O362 1.247 . S
C353 O363 1.272 . S
O354 Co350 2.004 . S
O354 C359 1.259 . S
Co355 O356 2.061 . S
Co355 O361 2.052 1_556 S
Co355 O363 2.135 . S
O356 Co355 2.061 . S
O356 C359 1.235 . S
C357 O360 1.238 1_554 S
C357 O361 1.241 . S
C358 O351 1.247 . S
C358 O352 1.261 . S
C359 O354 1.259 . S
C359 O356 1.235 . S
O360 Co350 2.021 . S
O360 C357 1.238 1_556 S
O361 Co355 2.052 1_554 S
O361 C357 1.241 . S
O362 Co350 2.137 . S
O362 C353 1.247 . S
O363 Co350 2.244 . S
O363 C353 1.272 . S
O363 Co355 2.135 . S
Co364 O365 2.216 . S
Co364 O366 2.091 . S
Co364 O368 2.004 . S
Co364 O374 2.021 . S
Co364 O376 2.137 . S
Co364 O377 2.244 . S
O365 Co364 2.216 . S
O365 C372 1.247 . S
O366 Co364 2.091 . S
O366 C372 1.261 . S
C367 O376 1.247 . S
C367 O377 1.272 . S
O368 Co364 2.004 . S
O368 C373 1.259 . S
Co369 O370 2.061 . S
Co369 O375 2.052 . S
Co369 O377 2.135 . S
O370 Co369 2.061 . S
O370 C373 1.235 . S
C371 O374 1.238 . S
C371 O375 1.241 . S
C372 O365 1.247 . S
C372 O366 1.261 . S
C373 O368 1.259 . S
C373 O370 1.235 . S
O374 Co364 2.021 . S
O374 C371 1.238 . S
O375 Co369 2.052 . S
O375 C371 1.241 . S
O376 Co364 2.137 . S
O376 C367 1.247 . S
O377 Co364 2.244 . S
O377 C367 1.272 . S
O377 Co369 2.135 . S
Co378 O379 2.216 . S
Co378 O380 2.091 . S
Co378 O382 2.004 . S
Co378 O388 2.021 . S
Co378 O390 2.137 . S
Co378 O391 2.244 . S
O379 Co378 2.216 . S
O379 C386 1.247 . S
O380 Co378 2.091 . S
O380 C386 1.261 . S
C381 O390 1.247 . S
C381 O391 1.272 . S
O382 Co378 2.004 . S
O382 C387 1.259 . S
Co383 O384 2.061 . S
Co383 O389 2.052 . S
Co383 O391 2.135 . S
O384 Co383 2.061 . S
O384 C387 1.235 . S
C385 O388 1.238 . S
C385 O389 1.241 . S
C386 O379 1.247 . S
C386 O380 1.261 . S
C387 O382 1.259 . S
C387 O384 1.235 . S
O388 Co378 2.021 . S
O388 C385 1.238 . S
O389 Co383 2.052 . S
O389 C385 1.241 . S
O390 Co378 2.137 . S
O390 C381 1.247 . S
O391 Co378 2.244 . S
O391 C381 1.272 . S
O391 Co383 2.135 . S
Co392 O393 2.216 . S
Co392 O394 2.091 . S
Co392 O396 2.004 . S
Co392 O402 2.021 . S
Co392 O404 2.137 . S
Co392 O405 2.244 . S
O393 Co392 2.216 . S
O393 C400 1.247 . S
O394 Co392 2.091 . S
O394 C400 1.261 . S
C395 O404 1.247 . S
C395 O405 1.272 . S
O396 Co392 2.004 . S
O396 C401 1.259 . S
Co397 O398 2.061 . S
Co397 O403 2.052 . S
Co397 O405 2.135 . S
O398 Co397 2.061 . S
O398 C401 1.235 . S
C399 O402 1.238 . S
C399 O403 1.241 . S
C400 O393 1.247 . S
C400 O394 1.261 . S
C401 O396 1.259 . S
C401 O398 1.235 . S
O402 Co392 2.021 . S
O402 C399 1.238 . S
O403 Co397 2.052 . S
O403 C399 1.241 . S
O404 Co392 2.137 . S
O404 C395 1.247 . S
O405 Co392 2.244 . S
O405 C395 1.272 . S
O405 Co397 2.135 . S
Co406 O407 2.216 . S
Co406 O408 2.091 . S
Co406 O410 2.004 . S
Co406 O416 2.021 . S
Co406 O418 2.137 . S
Co406 O419 2.244 . S
O407 Co406 2.216 . S
O407 C414 1.247 . S
O408 Co406 2.091 . S
O408 C414 1.261 . S
C409 O418 1.247 . S
C409 O419 1.272 . S
O410 Co406 2.004 . S
O410 C415 1.259 . S
Co411 O412 2.061 . S
Co411 O417 2.052 1_554 S
Co411 O419 2.135 . S
O412 Co411 2.061 . S
O412 C415 1.235 . S
C413 O416 1.238 1_556 S
C413 O417 1.241 . S
C414 O407 1.247 . S
C414 O408 1.261 . S
C415 O410 1.259 . S
C415 O412 1.235 . S
O416 Co406 2.021 . S
O416 C413 1.238 1_554 S
O417 Co411 2.052 1_556 S
O417 C413 1.241 . S
O418 Co406 2.137 . S
O418 C409 1.247 . S
O419 Co406 2.244 . S
O419 C409 1.272 . S
O419 Co411 2.135 . S
Co420 O421 2.216 . S
Co420 O422 2.091 . S
Co420 O424 2.004 . S
Co420 O430 2.021 . S
Co420 O432 2.137 . S
Co420 O433 2.244 . S
O421 Co420 2.216 . S
O421 C428 1.247 . S
O422 Co420 2.091 . S
O422 C428 1.261 . S
C423 O432 1.247 . S
C423 O433 1.272 . S
O424 Co420 2.004 . S
O424 C429 1.259 . S
Co425 O426 2.061 . S
Co425 O431 2.052 . S
Co425 O433 2.135 . S
O426 Co425 2.061 . S
O426 C429 1.235 . S
C427 O430 1.238 . S
C427 O431 1.241 . S
C428 O421 1.247 . S
C428 O422 1.261 . S
C429 O424 1.259 . S
C429 O426 1.235 . S
O430 Co420 2.021 . S
O430 C427 1.238 . S
O431 Co425 2.052 . S
O431 C427 1.241 . S
O432 Co420 2.137 . S
O432 C423 1.247 . S
O433 Co420 2.244 . S
O433 C423 1.272 . S
O433 Co425 2.135 . S
Co434 O435 2.216 . S
Co434 O436 2.091 . S
Co434 O438 2.004 . S
Co434 O444 2.021 . S
Co434 O446 2.137 . S
Co434 O447 2.244 . S
O435 Co434 2.216 . S
O435 C442 1.247 . S
O436 Co434 2.091 . S
O436 C442 1.261 . S
C437 O446 1.247 . S
C437 O447 1.272 . S
O438 Co434 2.004 . S
O438 C443 1.259 . S
Co439 O440 2.061 . S
Co439 O445 2.052 . S
Co439 O447 2.135 . S
O440 Co439 2.061 . S
O440 C443 1.235 . S
C441 O444 1.238 . S
C441 O445 1.241 . S
C442 O435 1.247 . S
C442 O436 1.261 . S
C443 O438 1.259 . S
C443 O440 1.235 . S
O444 Co434 2.021 . S
O444 C441 1.238 . S
O445 Co439 2.052 . S
O445 C441 1.241 . S
O446 Co434 2.137 . S
O446 C437 1.247 . S
O447 Co434 2.244 . S
O447 C437 1.272 . S
O447 Co439 2.135 . S
H448 C454 0.930 . S
H449 C457 0.930 . S
H450 C458 0.930 . S
H451 C459 0.930 . S
H452 C462 0.930 . S
H453 C463 0.930 . S
C454 H448 0.930 . S
C454 C455 1.355 . S
C454 C456 1.415 . S
C455 C454 1.355 . S
C455 C457 1.419 . S
C456 C454 1.415 . S
C456 C461 1.425 . S
C456 C463 1.409 . S
C457 H449 0.930 . S
C457 C455 1.419 . S
C457 C458 1.362 . S
C458 H450 0.930 . S
C458 C457 1.362 . S
C458 C461 1.409 . S
C459 H451 0.930 . S
C459 C460 1.355 . S
C459 C461 1.415 . S
C460 C459 1.355 . S
C460 C462 1.419 . S
C461 C456 1.425 . S
C461 C458 1.409 . S
C461 C459 1.415 . S
C462 H452 0.930 . S
C462 C460 1.419 . S
C462 C463 1.362 . S
C463 H453 0.930 . S
C463 C456 1.409 . S
C463 C462 1.362 . S
H464 C470 0.930 . S
H465 C473 0.930 . S
H466 C474 0.930 . S
H467 C475 0.930 . S
H468 C478 0.930 . S
H469 C479 0.930 . S
C470 H464 0.930 . S
C470 C471 1.355 . S
C470 C472 1.415 . S
C471 C470 1.355 . S
C471 C473 1.419 . S
C472 C470 1.415 . S
C472 C477 1.425 . S
C472 C479 1.409 . S
C473 H465 0.930 . S
C473 C471 1.419 . S
C473 C474 1.362 . S
C474 H466 0.930 . S
C474 C473 1.362 . S
C474 C477 1.409 . S
C475 H467 0.930 . S
C475 C476 1.355 . S
C475 C477 1.415 . S
C476 C475 1.355 . S
C476 C478 1.419 . S
C477 C472 1.425 . S
C477 C474 1.409 . S
C477 C475 1.415 . S
C478 H468 0.930 . S
C478 C476 1.419 . S
C478 C479 1.362 . S
C479 H469 0.930 . S
C479 C472 1.409 . S
C479 C478 1.362 . S
H480 C486 0.930 . S
H481 C489 0.930 . S
H482 C490 0.930 . S
H483 C491 0.930 . S
H484 C494 0.930 . S
H485 C495 0.930 . S
C486 H480 0.930 . S
C486 C487 1.355 . S
C486 C488 1.415 . S
C487 C486 1.355 . S
C487 C489 1.419 . S
C488 C486 1.415 . S
C488 C493 1.425 . S
C488 C495 1.409 . S
C489 H481 0.930 . S
C489 C487 1.419 . S
C489 C490 1.362 . S
C490 H482 0.930 . S
C490 C489 1.362 . S
C490 C493 1.409 . S
C491 H483 0.930 . S
C491 C492 1.355 . S
C491 C493 1.415 . S
C492 C491 1.355 . S
C492 C494 1.419 . S
C493 C488 1.425 . S
C493 C490 1.409 . S
C493 C491 1.415 . S
C494 H484 0.930 . S
C494 C492 1.419 . S
C494 C495 1.362 . S
C495 H485 0.930 . S
C495 C488 1.409 . S
C495 C494 1.362 . S
H496 C502 0.930 . S
H497 C505 0.930 . S
H498 C506 0.930 . S
H499 C507 0.930 . S
H500 C510 0.930 . S
H501 C511 0.930 . S
C502 H496 0.930 . S
C502 C503 1.355 . S
C502 C504 1.415 . S
C503 C502 1.355 . S
C503 C505 1.419 . S
C504 C502 1.415 . S
C504 C509 1.425 . S
C504 C511 1.409 . S
C505 H497 0.930 . S
C505 C503 1.419 . S
C505 C506 1.362 . S
C506 H498 0.930 . S
C506 C505 1.362 . S
C506 C509 1.409 . S
C507 H499 0.930 . S
C507 C508 1.355 . S
C507 C509 1.415 . S
C508 C507 1.355 . S
C508 C510 1.419 . S
C509 C504 1.425 . S
C509 C506 1.409 . S
C509 C507 1.415 . S
C510 H500 0.930 . S
C510 C508 1.419 . S
C510 C511 1.362 . S
C511 H501 0.930 . S
C511 C504 1.409 . S
C511 C510 1.362 . S
H512 C518 0.930 . S
H513 C521 0.930 . S
H514 C522 0.930 . S
H515 C523 0.930 . S
H516 C526 0.930 . S
H517 C527 0.930 . S
C518 H512 0.930 . S
C518 C519 1.355 . S
C518 C520 1.415 . S
C519 C518 1.355 . S
C519 C521 1.419 . S
C520 C518 1.415 . S
C520 C525 1.425 . S
C520 C527 1.409 . S
C521 H513 0.930 . S
C521 C519 1.419 . S
C521 C522 1.362 . S
C522 H514 0.930 . S
C522 C521 1.362 . S
C522 C525 1.409 . S
C523 H515 0.930 . S
C523 C524 1.355 . S
C523 C525 1.415 . S
C524 C523 1.355 . S
C524 C526 1.419 . S
C525 C520 1.425 . S
C525 C522 1.409 . S
C525 C523 1.415 . S
C526 H516 0.930 . S
C526 C524 1.419 . S
C526 C527 1.362 . S
C527 H517 0.930 . S
C527 C520 1.409 . S
C527 C526 1.362 . S
H528 C534 0.930 . S
H529 C537 0.930 . S
H530 C538 0.930 . S
H531 C539 0.930 . S
H532 C542 0.930 . S
H533 C543 0.930 . S
C534 H528 0.930 . S
C534 C535 1.355 . S
C534 C536 1.415 . S
C535 C534 1.355 . S
C535 C537 1.419 . S
C536 C534 1.415 . S
C536 C541 1.425 . S
C536 C543 1.409 . S
C537 H529 0.930 . S
C537 C535 1.419 . S
C537 C538 1.362 . S
C538 H530 0.930 . S
C538 C537 1.362 . S
C538 C541 1.409 . S
C539 H531 0.930 . S
C539 C540 1.355 . S
C539 C541 1.415 . S
C540 C539 1.355 . S
C540 C542 1.419 . S
C541 C536 1.425 . S
C541 C538 1.409 . S
C541 C539 1.415 . S
C542 H532 0.930 . S
C542 C540 1.419 . S
C542 C543 1.362 . S
C543 H533 0.930 . S
C543 C536 1.409 . S
C543 C542 1.362 . S
H544 C550 0.930 . S
H545 C553 0.930 . S
H546 C554 0.930 . S
H547 C555 0.930 . S
H548 C558 0.930 . S
H549 C559 0.930 . S
C550 H544 0.930 . S
C550 C551 1.355 . S
C550 C552 1.415 . S
C551 C550 1.355 . S
C551 C553 1.419 . S
C552 C550 1.415 . S
C552 C557 1.425 . S
C552 C559 1.409 . S
C553 H545 0.930 . S
C553 C551 1.419 . S
C553 C554 1.362 . S
C554 H546 0.930 . S
C554 C553 1.362 . S
C554 C557 1.409 . S
C555 H547 0.930 . S
C555 C556 1.355 . S
C555 C557 1.415 . S
C556 C555 1.355 . S
C556 C558 1.419 . S
C557 C552 1.425 . S
C557 C554 1.409 . S
C557 C555 1.415 . S
C558 H548 0.930 . S
C558 C556 1.419 . S
C558 C559 1.362 . S
C559 H549 0.930 . S
C559 C552 1.409 . S
C559 C558 1.362 . S
H560 C566 0.930 . S
H561 C569 0.930 . S
H562 C570 0.930 . S
H563 C571 0.930 . S
H564 C574 0.930 . S
H565 C575 0.930 . S
C566 H560 0.930 . S
C566 C567 1.355 . S
C566 C568 1.415 . S
C567 C566 1.355 . S
C567 C569 1.419 . S
C568 C566 1.415 . S
C568 C573 1.425 . S
C568 C575 1.409 . S
C569 H561 0.930 . S
C569 C567 1.419 . S
C569 C570 1.362 . S
C570 H562 0.930 . S
C570 C569 1.362 . S
C570 C573 1.409 . S
C571 H563 0.930 . S
C571 C572 1.355 . S
C571 C573 1.415 . S
C572 C571 1.355 . S
C572 C574 1.419 . S
C573 C568 1.425 . S
C573 C570 1.409 . S
C573 C571 1.415 . S
C574 H564 0.930 . S
C574 C572 1.419 . S
C574 C575 1.362 . S
C575 H565 0.930 . S
C575 C568 1.409 . S
C575 C574 1.362 . S
H576 C582 0.930 . S
H577 C585 0.930 . S
H578 C586 0.930 . S
H579 C587 0.930 . S
H580 C590 0.930 . S
H581 C591 0.930 . S
C582 H576 0.930 . S
C582 C583 1.355 . S
C582 C584 1.415 . S
C583 C582 1.355 . S
C583 C585 1.419 . S
C584 C582 1.415 . S
C584 C589 1.425 . S
C584 C591 1.409 . S
C585 H577 0.930 . S
C585 C583 1.419 . S
C585 C586 1.362 . S
C586 H578 0.930 . S
C586 C585 1.362 . S
C586 C589 1.409 . S
C587 H579 0.930 . S
C587 C588 1.355 . S
C587 C589 1.415 . S
C588 C587 1.355 . S
C588 C590 1.419 . S
C589 C584 1.425 . S
C589 C586 1.409 . S
C589 C587 1.415 . S
C590 H580 0.930 . S
C590 C588 1.419 . S
C590 C591 1.362 . S
C591 H581 0.930 . S
C591 C584 1.409 . S
C591 C590 1.362 . S
H592 C598 0.930 . S
H593 C601 0.930 . S
H594 C602 0.930 . S
H595 C603 0.930 . S
H596 C606 0.930 . S
H597 C607 0.930 . S
C598 H592 0.930 . S
C598 C599 1.355 . S
C598 C600 1.415 . S
C599 C598 1.355 . S
C599 C601 1.419 . S
C600 C598 1.415 . S
C600 C605 1.425 . S
C600 C607 1.409 . S
C601 H593 0.930 . S
C601 C599 1.419 . S
C601 C602 1.362 . S
C602 H594 0.930 . S
C602 C601 1.362 . S
C602 C605 1.409 . S
C603 H595 0.930 . S
C603 C604 1.355 . S
C603 C605 1.415 . S
C604 C603 1.355 . S
C604 C606 1.419 . S
C605 C600 1.425 . S
C605 C602 1.409 . S
C605 C603 1.415 . S
C606 H596 0.930 . S
C606 C604 1.419 . S
C606 C607 1.362 . S
C607 H597 0.930 . S
C607 C600 1.409 . S
C607 C606 1.362 . S
H608 C614 0.930 . S
H609 C617 0.930 . S
H610 C618 0.930 . S
H611 C619 0.930 . S
H612 C622 0.930 . S
H613 C623 0.930 . S
C614 H608 0.930 . S
C614 C615 1.355 . S
C614 C616 1.415 . S
C615 C614 1.355 . S
C615 C617 1.419 . S
C616 C614 1.415 . S
C616 C621 1.425 . S
C616 C623 1.409 . S
C617 H609 0.930 . S
C617 C615 1.419 . S
C617 C618 1.362 . S
C618 H610 0.930 . S
C618 C617 1.362 . S
C618 C621 1.409 . S
C619 H611 0.930 . S
C619 C620 1.355 . S
C619 C621 1.415 . S
C620 C619 1.355 . S
C620 C622 1.419 . S
C621 C616 1.425 . S
C621 C618 1.409 . S
C621 C619 1.415 . S
C622 H612 0.930 . S
C622 C620 1.419 . S
C622 C623 1.362 . S
C623 H613 0.930 . S
C623 C616 1.409 . S
C623 C622 1.362 . S
H624 C630 0.930 . S
H625 C633 0.930 . S
H626 C634 0.930 . S
H627 C635 0.930 . S
H628 C638 0.930 . S
H629 C639 0.930 . S
C630 H624 0.930 . S
C630 C631 1.355 . S
C630 C632 1.415 . S
C631 C630 1.355 . S
C631 C633 1.419 . S
C632 C630 1.415 . S
C632 C637 1.425 . S
C632 C639 1.409 . S
C633 H625 0.930 . S
C633 C631 1.419 . S
C633 C634 1.362 . S
C634 H626 0.930 . S
C634 C633 1.362 . S
C634 C637 1.409 . S
C635 H627 0.930 . S
C635 C636 1.355 . S
C635 C637 1.415 . S
C636 C635 1.355 . S
C636 C638 1.419 . S
C637 C632 1.425 . S
C637 C634 1.409 . S
C637 C635 1.415 . S
C638 H628 0.930 . S
C638 C636 1.419 . S
C638 C639 1.362 . S
C639 H629 0.930 . S
C639 C632 1.409 . S
C639 C638 1.362 . S
H640 C646 0.930 . S
H641 C649 0.930 . S
H642 C650 0.930 . S
H643 C651 0.930 . S
H644 C654 0.930 . S
H645 C655 0.930 . S
C646 H640 0.930 . S
C646 C647 1.355 . S
C646 C648 1.415 . S
C647 C646 1.355 . S
C647 C649 1.419 . S
C648 C646 1.415 . S
C648 C653 1.425 . S
C648 C655 1.409 . S
C649 H641 0.930 . S
C649 C647 1.419 . S
C649 C650 1.362 . S
C650 H642 0.930 . S
C650 C649 1.362 . S
C650 C653 1.409 . S
C651 H643 0.930 . S
C651 C652 1.355 . S
C651 C653 1.415 . S
C652 C651 1.355 . S
C652 C654 1.419 . S
C653 C648 1.425 . S
C653 C650 1.409 . S
C653 C651 1.415 . S
C654 H644 0.930 . S
C654 C652 1.419 . S
C654 C655 1.362 . S
C655 H645 0.930 . S
C655 C648 1.409 . S
C655 C654 1.362 . S
H656 C662 0.930 . S
H657 C665 0.930 . S
H658 C666 0.930 . S
H659 C667 0.930 . S
H660 C670 0.930 . S
H661 C671 0.930 . S
C662 H656 0.930 . S
C662 C663 1.355 . S
C662 C664 1.415 . S
C663 C662 1.355 . S
C663 C665 1.419 . S
C664 C662 1.415 . S
C664 C669 1.425 . S
C664 C671 1.409 . S
C665 H657 0.930 . S
C665 C663 1.419 . S
C665 C666 1.362 . S
C666 H658 0.930 . S
C666 C665 1.362 . S
C666 C669 1.409 . S
C667 H659 0.930 . S
C667 C668 1.355 . S
C667 C669 1.415 . S
C668 C667 1.355 . S
C668 C670 1.419 . S
C669 C664 1.425 . S
C669 C666 1.409 . S
C669 C667 1.415 . S
C670 H660 0.930 . S
C670 C668 1.419 . S
C670 C671 1.362 . S
C671 H661 0.930 . S
C671 C664 1.409 . S
C671 C670 1.362 . S
H672 C678 0.930 . S
H673 C681 0.930 . S
H674 C682 0.930 . S
H675 C683 0.930 . S
H676 C686 0.930 . S
H677 C687 0.930 . S
C678 H672 0.930 . S
C678 C679 1.355 . S
C678 C680 1.415 . S
C679 C678 1.355 . S
C679 C681 1.419 . S
C680 C678 1.415 . S
C680 C685 1.425 . S
C680 C687 1.409 . S
C681 H673 0.930 . S
C681 C679 1.419 . S
C681 C682 1.362 . S
C682 H674 0.930 . S
C682 C681 1.362 . S
C682 C685 1.409 . S
C683 H675 0.930 . S
C683 C684 1.355 . S
C683 C685 1.415 . S
C684 C683 1.355 . S
C684 C686 1.419 . S
C685 C680 1.425 . S
C685 C682 1.409 . S
C685 C683 1.415 . S
C686 H676 0.930 . S
C686 C684 1.419 . S
C686 C687 1.362 . S
C687 H677 0.930 . S
C687 C680 1.409 . S
C687 C686 1.362 . S
H688 C694 0.930 . S
H689 C697 0.930 . S
H690 C698 0.930 . S
H691 C699 0.930 . S
H692 C702 0.930 . S
H693 C703 0.930 . S
C694 H688 0.930 . S
C694 C695 1.355 . S
C694 C696 1.415 . S
C695 C694 1.355 . S
C695 C697 1.419 . S
C696 C694 1.415 . S
C696 C701 1.425 . S
C696 C703 1.409 . S
C697 H689 0.930 . S
C697 C695 1.419 . S
C697 C698 1.362 . S
C698 H690 0.930 . S
C698 C697 1.362 . S
C698 C701 1.409 . S
C699 H691 0.930 . S
C699 C700 1.355 . S
C699 C701 1.415 . S
C700 C699 1.355 . S
C700 C702 1.419 . S
C701 C696 1.425 . S
C701 C698 1.409 . S
C701 C699 1.415 . S
C702 H692 0.930 . S
C702 C700 1.419 . S
C702 C703 1.362 . S
C703 H693 0.930 . S
C703 C696 1.409 . S
C703 C702 1.362 . S
H704 C710 0.930 . S
H705 C713 0.930 . S
H706 C714 0.930 . S
H707 C715 0.930 . S
H708 C718 0.930 . S
H709 C719 0.930 . S
C710 H704 0.930 . S
C710 C711 1.355 . S
C710 C712 1.415 . S
C711 C710 1.355 . S
C711 C713 1.419 . S
C712 C710 1.415 . S
C712 C717 1.425 . S
C712 C719 1.409 . S
C713 H705 0.930 . S
C713 C711 1.419 . S
C713 C714 1.362 . S
C714 H706 0.930 . S
C714 C713 1.362 . S
C714 C717 1.409 . S
C715 H707 0.930 . S
C715 C716 1.355 . S
C715 C717 1.415 . S
C716 C715 1.355 . S
C716 C718 1.419 . S
C717 C712 1.425 . S
C717 C714 1.409 . S
C717 C715 1.415 . S
C718 H708 0.930 . S
C718 C716 1.419 . S
C718 C719 1.362 . S
C719 H709 0.930 . S
C719 C712 1.409 . S
C719 C718 1.362 . S
H720 C726 0.930 . S
H721 C729 0.930 . S
H722 C730 0.930 . S
H723 C731 0.930 1_455 S
H724 C734 0.930 . S
H725 C735 0.930 . S
C726 H720 0.930 . S
C726 C727 1.355 . S
C726 C728 1.415 . S
C727 C726 1.355 . S
C727 C729 1.419 . S
C728 C726 1.415 . S
C728 C733 1.425 . S
C728 C735 1.409 . S
C729 H721 0.930 . S
C729 C727 1.419 . S
C729 C730 1.362 . S
C730 H722 0.930 . S
C730 C729 1.362 . S
C730 C733 1.409 . S
C731 H723 0.930 1_655 S
C731 C732 1.355 1_655 S
C731 C733 1.415 . S
C732 C731 1.355 1_455 S
C732 C734 1.419 1_455 S
C733 C728 1.425 . S
C733 C730 1.409 . S
C733 C731 1.415 . S
C734 H724 0.930 . S
C734 C732 1.419 1_655 S
C734 C735 1.362 . S
C735 H725 0.930 . S
C735 C728 1.409 . S
C735 C734 1.362 . S
H736 C742 0.930 . S
H737 C745 0.930 . S
H738 C746 0.930 . S
H739 C747 0.930 . S
H740 C750 0.930 . S
H741 C751 0.930 . S
C742 H736 0.930 . S
C742 C743 1.355 . S
C742 C744 1.415 . S
C743 C742 1.355 . S
C743 C745 1.419 . S
C744 C742 1.415 . S
C744 C749 1.425 . S
C744 C751 1.409 . S
C745 H737 0.930 . S
C745 C743 1.419 . S
C745 C746 1.362 . S
C746 H738 0.930 . S
C746 C745 1.362 . S
C746 C749 1.409 . S
C747 H739 0.930 . S
C747 C748 1.355 . S
C747 C749 1.415 . S
C748 C747 1.355 . S
C748 C750 1.419 . S
C749 C744 1.425 . S
C749 C746 1.409 . S
C749 C747 1.415 . S
C750 H740 0.930 . S
C750 C748 1.419 . S
C750 C751 1.362 . S
C751 H741 0.930 . S
C751 C744 1.409 . S
C751 C750 1.362 . S
H752 C758 0.930 . S
H753 C761 0.930 . S
H754 C762 0.930 . S
H755 C763 0.930 . S
H756 C766 0.930 . S
H757 C767 0.930 . S
C758 H752 0.930 . S
C758 C759 1.355 . S
C758 C760 1.415 . S
C759 C758 1.355 . S
C759 C761 1.419 . S
C760 C758 1.415 . S
C760 C765 1.425 . S
C760 C767 1.409 . S
C761 H753 0.930 . S
C761 C759 1.419 . S
C761 C762 1.362 . S
C762 H754 0.930 . S
C762 C761 1.362 . S
C762 C765 1.409 . S
C763 H755 0.930 . S
C763 C764 1.355 . S
C763 C765 1.415 . S
C764 C763 1.355 . S
C764 C766 1.419 . S
C765 C760 1.425 . S
C765 C762 1.409 . S
C765 C763 1.415 . S
C766 H756 0.930 . S
C766 C764 1.419 . S
C766 C767 1.362 . S
C767 H757 0.930 . S
C767 C760 1.409 . S
C767 C766 1.362 . S
H768 C774 0.930 . S
H769 C777 0.930 . S
H770 C778 0.930 . S
H771 C779 0.930 . S
H772 C782 0.930 . S
H773 C783 0.930 . S
C774 H768 0.930 . S
C774 C775 1.355 . S
C774 C776 1.415 . S
C775 C774 1.355 . S
C775 C777 1.419 . S
C776 C774 1.415 . S
C776 C781 1.425 . S
C776 C783 1.409 . S
C777 H769 0.930 . S
C777 C775 1.419 . S
C777 C778 1.362 . S
C778 H770 0.930 . S
C778 C777 1.362 . S
C778 C781 1.409 . S
C779 H771 0.930 . S
C779 C780 1.355 . S
C779 C781 1.415 . S
C780 C779 1.355 . S
C780 C782 1.419 . S
C781 C776 1.425 . S
C781 C778 1.409 . S
C781 C779 1.415 . S
C782 H772 0.930 . S
C782 C780 1.419 . S
C782 C783 1.362 . S
C783 H773 0.930 . S
C783 C776 1.409 . S
C783 C782 1.362 . S
H784 C790 0.930 . S
H785 C793 0.930 . S
H786 C794 0.930 . S
H787 C795 0.930 . S
H788 C798 0.930 . S
H789 C799 0.930 . S
C790 H784 0.930 . S
C790 C791 1.355 . S
C790 C792 1.415 . S
C791 C790 1.355 . S
C791 C793 1.419 . S
C792 C790 1.415 . S
C792 C797 1.425 . S
C792 C799 1.409 . S
C793 H785 0.930 . S
C793 C791 1.419 . S
C793 C794 1.362 . S
C794 H786 0.930 . S
C794 C793 1.362 . S
C794 C797 1.409 . S
C795 H787 0.930 . S
C795 C796 1.355 . S
C795 C797 1.415 . S
C796 C795 1.355 . S
C796 C798 1.419 . S
C797 C792 1.425 . S
C797 C794 1.409 . S
C797 C795 1.415 . S
C798 H788 0.930 . S
C798 C796 1.419 . S
C798 C799 1.362 . S
C799 H789 0.930 . S
C799 C792 1.409 . S
C799 C798 1.362 . S
H800 C806 0.930 . S
H801 C809 0.930 . S
H802 C810 0.930 . S
H803 C811 0.930 . S
H804 C814 0.930 . S
H805 C815 0.930 . S
C806 H800 0.930 . S
C806 C807 1.355 . S
C806 C808 1.415 . S
C807 C806 1.355 . S
C807 C809 1.419 . S
C808 C806 1.415 . S
C808 C813 1.425 . S
C808 C815 1.409 . S
C809 H801 0.930 . S
C809 C807 1.419 . S
C809 C810 1.362 . S
C810 H802 0.930 . S
C810 C809 1.362 . S
C810 C813 1.409 . S
C811 H803 0.930 . S
C811 C812 1.355 . S
C811 C813 1.415 . S
C812 C811 1.355 . S
C812 C814 1.419 . S
C813 C808 1.425 . S
C813 C810 1.409 . S
C813 C811 1.415 . S
C814 H804 0.930 . S
C814 C812 1.419 . S
C814 C815 1.362 . S
C815 H805 0.930 . S
C815 C808 1.409 . S
C815 C814 1.362 . S
H816 C822 0.930 . S
H817 C825 0.919 1_455 S
H818 C826 0.930 . S
H819 C827 0.930 . S
H820 C830 0.930 . S
H821 C831 0.930 . S
C822 H816 0.930 . S
C822 C823 1.355 1_655 S
C822 C824 1.415 . S
C823 C822 1.355 1_455 S
C823 C825 1.415 1_455 S
C824 C822 1.415 . S
C824 C829 1.425 . S
C824 C831 1.409 . S
C825 H817 0.919 1_655 S
C825 C823 1.415 1_655 S
C825 C826 1.377 . S
C826 H818 0.930 . S
C826 C825 1.377 . S
C826 C829 1.409 . S
C827 H819 0.930 . S
C827 C828 1.355 . S
C827 C829 1.415 . S
C828 C827 1.355 . S
C828 C830 1.419 . S
C829 C824 1.425 . S
C829 C826 1.409 . S
C829 C827 1.415 . S
C830 H820 0.930 . S
C830 C828 1.419 . S
C830 C831 1.362 . S
C831 H821 0.930 . S
C831 C824 1.409 . S
C831 C830 1.362 . S
H832 C838 0.930 . S
H833 C841 0.930 . S
H834 C842 0.930 . S
H835 C843 0.930 . S
H836 C846 0.930 . S
H837 C847 0.930 . S
C838 H832 0.930 . S
C838 C839 1.355 . S
C838 C840 1.415 . S
C839 C838 1.355 . S
C839 C841 1.419 . S
C840 C838 1.415 . S
C840 C845 1.425 . S
C840 C847 1.409 . S
C841 H833 0.930 . S
C841 C839 1.419 . S
C841 C842 1.362 . S
C842 H834 0.930 . S
C842 C841 1.362 . S
C842 C845 1.409 . S
C843 H835 0.930 . S
C843 C844 1.355 . S
C843 C845 1.415 . S
C844 C843 1.355 . S
C844 C846 1.419 . S
C845 C840 1.425 . S
C845 C842 1.409 . S
C845 C843 1.415 . S
C846 H836 0.930 . S
C846 C844 1.419 . S
C846 C847 1.362 . S
C847 H837 0.930 . S
C847 C840 1.409 . S
C847 C846 1.362 . S
H848 C854 0.930 1_655 S
H849 C857 0.945 . S
H850 C858 0.930 . S
H851 C859 0.930 . S
H852 C862 0.930 . S
H853 C863 0.930 . S
C854 H848 0.930 1_455 S
C854 C855 1.355 1_455 S
C854 C856 1.415 . S
C855 C854 1.355 1_655 S
C855 C857 1.419 1_655 S
C856 C854 1.415 . S
C856 C861 1.425 . S
C856 C863 1.409 . S
C857 H849 0.945 . S
C857 C855 1.419 1_455 S
C857 C858 1.362 . S
C858 H850 0.930 . S
C858 C857 1.362 . S
C858 C861 1.409 . S
C859 H851 0.930 . S
C859 C860 1.355 . S
C859 C861 1.415 . S
C860 C859 1.355 . S
C860 C862 1.419 . S
C861 C856 1.425 . S
C861 C858 1.409 . S
C861 C859 1.415 . S
C862 H852 0.930 . S
C862 C860 1.419 . S
C862 C863 1.362 . S
C863 H853 0.930 . S
C863 C856 1.409 . S
C863 C862 1.362 . S
H864 C870 0.930 . S
H865 C873 0.930 . S
H866 C874 0.930 . S
H867 C875 0.930 . S
H868 C878 0.930 . S
H869 C879 0.930 . S
C870 H864 0.930 . S
C870 C871 1.355 . S
C870 C872 1.415 . S
C871 C870 1.355 . S
C871 C873 1.419 . S
C872 C870 1.415 . S
C872 C877 1.425 . S
C872 C879 1.409 . S
C873 H865 0.930 . S
C873 C871 1.419 . S
C873 C874 1.362 . S
C874 H866 0.930 . S
C874 C873 1.362 . S
C874 C877 1.409 . S
C875 H867 0.930 . S
C875 C876 1.355 . S
C875 C877 1.415 . S
C876 C875 1.355 . S
C876 C878 1.419 . S
C877 C872 1.425 . S
C877 C874 1.409 . S
C877 C875 1.415 . S
C878 H868 0.930 . S
C878 C876 1.419 . S
C878 C879 1.362 . S
C879 H869 0.930 . S
C879 C872 1.409 . S
C879 C878 1.362 . S
H880 C886 0.930 . S
H881 C889 0.930 . S
H882 C890 0.930 . S
H883 C891 0.930 . S
H884 C894 0.930 . S
H885 C895 0.930 . S
C886 H880 0.930 . S
C886 C887 1.355 . S
C886 C888 1.415 . S
C887 C886 1.355 . S
C887 C889 1.419 . S
C888 C886 1.415 . S
C888 C893 1.425 . S
C888 C895 1.409 . S
C889 H881 0.930 . S
C889 C887 1.419 . S
C889 C890 1.362 . S
C890 H882 0.930 . S
C890 C889 1.362 . S
C890 C893 1.409 . S
C891 H883 0.930 . S
C891 C892 1.355 . S
C891 C893 1.415 . S
C892 C891 1.355 . S
C892 C894 1.419 . S
C893 C888 1.425 . S
C893 C890 1.409 . S
C893 C891 1.415 . S
C894 H884 0.930 . S
C894 C892 1.419 . S
C894 C895 1.362 . S
C895 H885 0.930 . S
C895 C888 1.409 . S
C895 C894 1.362 . S
H896 C902 0.930 . S
H897 C905 0.930 . S
H898 C906 0.930 . S
H899 C907 0.930 . S
H900 C910 0.930 . S
H901 C911 0.930 . S
C902 H896 0.930 . S
C902 C903 1.355 . S
C902 C904 1.415 . S
C903 C902 1.355 . S
C903 C905 1.419 . S
C904 C902 1.415 . S
C904 C909 1.425 . S
C904 C911 1.409 . S
C905 H897 0.930 . S
C905 C903 1.419 . S
C905 C906 1.362 . S
C906 H898 0.930 . S
C906 C905 1.362 . S
C906 C909 1.409 . S
C907 H899 0.930 . S
C907 C908 1.355 . S
C907 C909 1.415 . S
C908 C907 1.355 . S
C908 C910 1.419 . S
C909 C904 1.425 . S
C909 C906 1.409 . S
C909 C907 1.415 . S
C910 H900 0.930 . S
C910 C908 1.419 . S
C910 C911 1.362 . S
C911 H901 0.930 . S
C911 C904 1.409 . S
C911 C910 1.362 . S
H912 C918 0.930 . S
H913 C921 0.930 . S
H914 C922 0.930 . S
H915 C923 0.930 . S
H916 C926 0.930 . S
H917 C927 0.930 . S
C918 H912 0.930 . S
C918 C919 1.355 . S
C918 C920 1.415 . S
C919 C918 1.355 . S
C919 C921 1.419 . S
C920 C918 1.415 . S
C920 C925 1.425 . S
C920 C927 1.409 . S
C921 H913 0.930 . S
C921 C919 1.419 . S
C921 C922 1.362 . S
C922 H914 0.930 . S
C922 C921 1.362 . S
C922 C925 1.409 . S
C923 H915 0.930 . S
C923 C924 1.355 . S
C923 C925 1.415 . S
C924 C923 1.355 . S
C924 C926 1.419 . S
C925 C920 1.425 . S
C925 C922 1.409 . S
C925 C923 1.415 . S
C926 H916 0.930 . S
C926 C924 1.419 . S
C926 C927 1.362 . S
C927 H917 0.930 . S
C927 C920 1.409 . S
C927 C926 1.362 . S
H928 C934 0.930 . S
H929 C937 0.930 . S
H930 C938 0.930 . S
H931 C939 0.930 . S
H932 C942 0.930 . S
H933 C943 0.930 . S
C934 H928 0.930 . S
C934 C935 1.355 . S
C934 C936 1.415 . S
C935 C934 1.355 . S
C935 C937 1.419 . S
C936 C934 1.415 . S
C936 C941 1.425 . S
C936 C943 1.409 . S
C937 H929 0.930 . S
C937 C935 1.419 . S
C937 C938 1.362 . S
C938 H930 0.930 . S
C938 C937 1.362 . S
C938 C941 1.409 . S
C939 H931 0.930 . S
C939 C940 1.355 . S
C939 C941 1.415 . S
C940 C939 1.355 . S
C940 C942 1.419 . S
C941 C936 1.425 . S
C941 C938 1.409 . S
C941 C939 1.415 . S
C942 H932 0.930 . S
C942 C940 1.419 . S
C942 C943 1.362 . S
C943 H933 0.930 . S
C943 C936 1.409 . S
C943 C942 1.362 . S
H944 C950 0.930 . S
H945 C953 0.930 . S
H946 C954 0.930 . S
H947 C955 0.930 . S
H948 C958 0.930 1_655 S
H949 C959 0.930 . S
C950 H944 0.930 . S
C950 C951 1.355 . S
C950 C952 1.415 . S
C951 C950 1.355 . S
C951 C953 1.419 . S
C952 C950 1.415 . S
C952 C957 1.425 . S
C952 C959 1.409 . S
C953 H945 0.930 . S
C953 C951 1.419 . S
C953 C954 1.362 . S
C954 H946 0.930 . S
C954 C953 1.362 . S
C954 C957 1.409 . S
C955 H947 0.930 . S
C955 C956 1.355 1_455 S
C955 C957 1.415 . S
C956 C955 1.355 1_655 S
C956 C958 1.419 1_655 S
C957 C952 1.425 . S
C957 C954 1.409 . S
C957 C955 1.415 . S
C958 H948 0.930 1_455 S
C958 C956 1.419 1_455 S
C958 C959 1.362 . S
C959 H949 0.930 . S
C959 C952 1.409 . S
C959 C958 1.362 . S
H960 C966 0.930 . S
H961 C969 0.930 . S
H962 C970 0.930 . S
H963 C971 0.930 . S
H964 C974 0.930 . S
H965 C975 0.930 . S
C966 H960 0.930 . S
C966 C967 1.355 . S
C966 C968 1.415 . S
C967 C966 1.355 . S
C967 C969 1.419 . S
C968 C966 1.415 . S
C968 C973 1.425 . S
C968 C975 1.409 . S
C969 H961 0.930 . S
C969 C967 1.419 . S
C969 C970 1.362 . S
C970 H962 0.930 . S
C970 C969 1.362 . S
C970 C973 1.409 . S
C971 H963 0.930 . S
C971 C972 1.355 . S
C971 C973 1.415 . S
C972 C971 1.355 . S
C972 C974 1.419 . S
C973 C968 1.425 . S
C973 C970 1.409 . S
C973 C971 1.415 . S
C974 H964 0.930 . S
C974 C972 1.419 . S
C974 C975 1.362 . S
C975 H965 0.930 . S
C975 C968 1.409 . S
C975 C974 1.362 . S
H976 C982 0.930 . S
H977 C985 0.930 . S
H978 C986 0.930 . S
H979 C987 0.930 . S
H980 C990 0.930 . S
H981 C991 0.930 . S
C982 H976 0.930 . S
C982 C983 1.355 . S
C982 C984 1.415 . S
C983 C982 1.355 . S
C983 C985 1.419 . S
C984 C982 1.415 . S
C984 C989 1.425 . S
C984 C991 1.409 . S
C985 H977 0.930 . S
C985 C983 1.419 . S
C985 C986 1.362 . S
C986 H978 0.930 . S
C986 C985 1.362 . S
C986 C989 1.409 . S
C987 H979 0.930 . S
C987 C988 1.355 . S
C987 C989 1.415 . S
C988 C987 1.355 . S
C988 C990 1.419 . S
C989 C984 1.425 . S
C989 C986 1.409 . S
C989 C987 1.415 . S
C990 H980 0.930 . S
C990 C988 1.419 . S
C990 C991 1.362 . S
C991 H981 0.930 . S
C991 C984 1.409 . S
C991 C990 1.362 . S
H992 C998 0.930 . S
H993 C1001 0.930 . S
H994 C1002 0.930 . S
H995 C1003 0.930 . S
H996 C1006 0.930 . S
H997 C1007 0.930 . S
C998 H992 0.930 . S
C998 C999 1.355 . S
C998 C1000 1.415 . S
C999 C998 1.355 . S
C999 C1001 1.419 . S
C1000 C998 1.415 . S
C1000 C1005 1.425 . S
C1000 C1007 1.409 . S
C1001 H993 0.930 . S
C1001 C999 1.419 . S
C1001 C1002 1.362 . S
C1002 H994 0.930 . S
C1002 C1001 1.362 . S
C1002 C1005 1.409 . S
C1003 H995 0.930 . S
C1003 C1004 1.355 . S
C1003 C1005 1.415 . S
C1004 C1003 1.355 . S
C1004 C1006 1.419 . S
C1005 C1000 1.425 . S
C1005 C1002 1.409 . S
C1005 C1003 1.415 . S
C1006 H996 0.930 . S
C1006 C1004 1.419 . S
C1006 C1007 1.362 . S
C1007 H997 0.930 . S
C1007 C1000 1.409 . S
C1007 C1006 1.362 . S
H1008 C1014 0.930 . S
H1009 C1017 0.930 . S
H1010 C1018 0.930 . S
H1011 C1019 0.930 1_655 S
H1012 C1022 0.930 . S
H1013 C1023 0.930 . S
C1014 H1008 0.930 . S
C1014 C1015 1.355 . S
C1014 C1016 1.415 . S
C1015 C1014 1.355 . S
C1015 C1017 1.419 . S
C1016 C1014 1.415 . S
C1016 C1021 1.425 . S
C1016 C1023 1.409 . S
C1017 H1009 0.930 . S
C1017 C1015 1.419 . S
C1017 C1018 1.362 . S
C1018 H1010 0.930 . S
C1018 C1017 1.362 . S
C1018 C1021 1.409 . S
C1019 H1011 0.930 1_455 S
C1019 C1020 1.355 1_455 S
C1019 C1021 1.415 . S
C1020 C1019 1.355 1_655 S
C1020 C1022 1.419 1_655 S
C1021 C1016 1.425 . S
C1021 C1018 1.409 . S
C1021 C1019 1.415 . S
C1022 H1012 0.930 . S
C1022 C1020 1.419 1_455 S
C1022 C1023 1.362 . S
C1023 H1013 0.930 . S
C1023 C1016 1.409 . S
C1023 C1022 1.362 . S
H1024 C1030 0.930 . S
H1025 C1033 0.930 . S
H1026 C1034 0.930 . S
H1027 C1035 0.930 . S
H1028 C1038 0.930 . S
H1029 C1039 0.930 . S
C1030 H1024 0.930 . S
C1030 C1031 1.355 . S
C1030 C1032 1.415 . S
C1031 C1030 1.355 . S
C1031 C1033 1.419 . S
C1032 C1030 1.415 . S
C1032 C1037 1.425 . S
C1032 C1039 1.409 . S
C1033 H1025 0.930 . S
C1033 C1031 1.419 . S
C1033 C1034 1.362 . S
C1034 H1026 0.930 . S
C1034 C1033 1.362 . S
C1034 C1037 1.409 . S
C1035 H1027 0.930 . S
C1035 C1036 1.355 . S
C1035 C1037 1.415 . S
C1036 C1035 1.355 . S
C1036 C1038 1.419 . S
C1037 C1032 1.425 . S
C1037 C1034 1.409 . S
C1037 C1035 1.415 . S
C1038 H1028 0.930 . S
C1038 C1036 1.419 . S
C1038 C1039 1.362 . S
C1039 H1029 0.930 . S
C1039 C1032 1.409 . S
C1039 C1038 1.362 . S
H1040 C1046 0.930 1_655 S
H1041 C1049 0.930 . S
H1042 C1050 0.930 . S
H1043 C1051 0.930 . S
H1044 C1054 0.930 . S
H1045 C1055 0.930 . S
C1046 H1040 0.930 1_455 S
C1046 C1047 1.355 1_455 S
C1046 C1048 1.415 . S
C1047 C1046 1.355 1_655 S
C1047 C1049 1.419 1_655 S
C1048 C1046 1.415 . S
C1048 C1053 1.425 . S
C1048 C1055 1.409 . S
C1049 H1041 0.930 . S
C1049 C1047 1.419 1_455 S
C1049 C1050 1.362 . S
C1050 H1042 0.930 . S
C1050 C1049 1.362 . S
C1050 C1053 1.409 . S
C1051 H1043 0.930 . S
C1051 C1052 1.355 . S
C1051 C1053 1.415 . S
C1052 C1051 1.355 . S
C1052 C1054 1.419 . S
C1053 C1048 1.425 . S
C1053 C1050 1.409 . S
C1053 C1051 1.415 . S
C1054 H1044 0.930 . S
C1054 C1052 1.419 . S
C1054 C1055 1.362 . S
C1055 H1045 0.930 . S
C1055 C1048 1.409 . S
C1055 C1054 1.362 . S
H1056 C1062 0.930 . S
H1057 C1065 0.930 . S
H1058 C1066 0.930 . S
H1059 C1067 0.930 . S
H1060 C1070 0.930 . S
H1061 C1071 0.930 . S
C1062 H1056 0.930 . S
C1062 C1063 1.355 . S
C1062 C1064 1.415 . S
C1063 C1062 1.355 . S
C1063 C1065 1.419 . S
C1064 C1062 1.415 . S
C1064 C1069 1.425 . S
C1064 C1071 1.409 . S
C1065 H1057 0.930 . S
C1065 C1063 1.419 . S
C1065 C1066 1.362 . S
C1066 H1058 0.930 . S
C1066 C1065 1.362 . S
C1066 C1069 1.409 . S
C1067 H1059 0.930 . S
C1067 C1068 1.355 . S
C1067 C1069 1.415 . S
C1068 C1067 1.355 . S
C1068 C1070 1.419 . S
C1069 C1064 1.425 . S
C1069 C1066 1.409 . S
C1069 C1067 1.415 . S
C1070 H1060 0.930 . S
C1070 C1068 1.419 . S
C1070 C1071 1.362 . S
C1071 H1061 0.930 . S
C1071 C1064 1.409 . S
C1071 C1070 1.362 . S
H1072 C1078 0.930 . S
H1073 C1081 0.930 . S
H1074 C1082 0.930 . S
H1075 C1083 0.930 . S
H1076 C1086 0.930 . S
H1077 C1087 0.930 . S
C1078 H1072 0.930 . S
C1078 C1079 1.355 . S
C1078 C1080 1.415 . S
C1079 C1078 1.355 . S
C1079 C1081 1.419 . S
C1080 C1078 1.415 . S
C1080 C1085 1.425 . S
C1080 C1087 1.409 . S
C1081 H1073 0.930 . S
C1081 C1079 1.419 . S
C1081 C1082 1.362 . S
C1082 H1074 0.930 . S
C1082 C1081 1.362 . S
C1082 C1085 1.409 . S
C1083 H1075 0.930 . S
C1083 C1084 1.355 . S
C1083 C1085 1.415 . S
C1084 C1083 1.355 . S
C1084 C1086 1.419 . S
C1085 C1080 1.425 . S
C1085 C1082 1.409 . S
C1085 C1083 1.415 . S
C1086 H1076 0.930 . S
C1086 C1084 1.419 . S
C1086 C1087 1.362 . S
C1087 H1077 0.930 . S
C1087 C1080 1.409 . S
C1087 C1086 1.362 . S
H1088 C1094 0.930 . S
H1089 C1097 0.930 . S
H1090 C1098 0.930 . S
H1091 C1099 0.930 . S
H1092 C1102 0.930 . S
H1093 C1103 0.930 . S
C1094 H1088 0.930 . S
C1094 C1095 1.355 . S
C1094 C1096 1.415 . S
C1095 C1094 1.355 . S
C1095 C1097 1.419 . S
C1096 C1094 1.415 . S
C1096 C1101 1.425 . S
C1096 C1103 1.409 . S
C1097 H1089 0.930 . S
C1097 C1095 1.419 . S
C1097 C1098 1.362 . S
C1098 H1090 0.930 . S
C1098 C1097 1.362 . S
C1098 C1101 1.409 . S
C1099 H1091 0.930 . S
C1099 C1100 1.355 . S
C1099 C1101 1.415 . S
C1100 C1099 1.355 . S
C1100 C1102 1.419 . S
C1101 C1096 1.425 . S
C1101 C1098 1.409 . S
C1101 C1099 1.415 . S
C1102 H1092 0.930 . S
C1102 C1100 1.419 . S
C1102 C1103 1.362 . S
C1103 H1093 0.930 . S
C1103 C1096 1.409 . S
C1103 C1102 1.362 . S
H1104 C1110 0.930 . S
H1105 C1113 0.930 . S
H1106 C1114 0.930 . S
H1107 C1115 0.930 . S
H1108 C1118 0.930 . S
H1109 C1119 0.930 . S
C1110 H1104 0.930 . S
C1110 C1111 1.355 . S
C1110 C1112 1.415 . S
C1111 C1110 1.355 . S
C1111 C1113 1.419 . S
C1112 C1110 1.415 . S
C1112 C1117 1.425 . S
C1112 C1119 1.409 . S
C1113 H1105 0.930 . S
C1113 C1111 1.419 . S
C1113 C1114 1.362 . S
C1114 H1106 0.930 . S
C1114 C1113 1.362 . S
C1114 C1117 1.409 . S
C1115 H1107 0.930 . S
C1115 C1116 1.355 . S
C1115 C1117 1.415 . S
C1116 C1115 1.355 . S
C1116 C1118 1.419 . S
C1117 C1112 1.425 . S
C1117 C1114 1.409 . S
C1117 C1115 1.415 . S
C1118 H1108 0.930 . S
C1118 C1116 1.419 . S
C1118 C1119 1.362 . S
C1119 H1109 0.930 . S
C1119 C1112 1.409 . S
C1119 C1118 1.362 . S
H1120 C1126 0.930 . S
H1121 C1129 0.930 . S
H1122 C1130 0.930 . S
H1123 C1131 0.930 . S
H1124 C1134 0.930 . S
H1125 C1135 0.930 . S
C1126 H1120 0.930 . S
C1126 C1127 1.355 . S
C1126 C1128 1.415 . S
C1127 C1126 1.355 . S
C1127 C1129 1.419 . S
C1128 C1126 1.415 . S
C1128 C1133 1.425 . S
C1128 C1135 1.409 . S
C1129 H1121 0.930 . S
C1129 C1127 1.419 . S
C1129 C1130 1.362 . S
C1130 H1122 0.930 . S
C1130 C1129 1.362 . S
C1130 C1133 1.409 . S
C1131 H1123 0.930 . S
C1131 C1132 1.355 . S
C1131 C1133 1.415 . S
C1132 C1131 1.355 . S
C1132 C1134 1.419 . S
C1133 C1128 1.425 . S
C1133 C1130 1.409 . S
C1133 C1131 1.415 . S
C1134 H1124 0.930 . S
C1134 C1132 1.419 . S
C1134 C1135 1.362 . S
C1135 H1125 0.930 . S
C1135 C1128 1.409 . S
C1135 C1134 1.362 . S
H1136 C1142 0.930 . S
H1137 C1145 0.930 . S
H1138 C1146 0.930 . S
H1139 C1147 0.930 . S
H1140 C1150 0.930 . S
H1141 C1151 0.930 . S
C1142 H1136 0.930 . S
C1142 C1143 1.355 . S
C1142 C1144 1.415 . S
C1143 C1142 1.355 . S
C1143 C1145 1.419 . S
C1144 C1142 1.415 . S
C1144 C1149 1.425 . S
C1144 C1151 1.409 . S
C1145 H1137 0.930 . S
C1145 C1143 1.419 . S
C1145 C1146 1.362 . S
C1146 H1138 0.930 . S
C1146 C1145 1.362 . S
C1146 C1149 1.409 . S
C1147 H1139 0.930 . S
C1147 C1148 1.355 1_655 S
C1147 C1149 1.415 . S
C1148 C1147 1.355 1_455 S
C1148 C1150 1.419 . S
C1149 C1144 1.425 . S
C1149 C1146 1.409 . S
C1149 C1147 1.415 . S
C1150 H1140 0.930 . S
C1150 C1148 1.419 . S
C1150 C1151 1.362 1_455 S
C1151 H1141 0.930 . S
C1151 C1144 1.409 . S
C1151 C1150 1.362 1_655 S
H1152 C1158 0.930 . S
H1153 C1161 0.930 . S
H1154 C1162 0.930 . S
H1155 C1163 0.930 . S
H1156 C1166 0.930 . S
H1157 C1167 0.930 . S
C1158 H1152 0.930 . S
C1158 C1159 1.355 . S
C1158 C1160 1.415 . S
C1159 C1158 1.355 . S
C1159 C1161 1.419 . S
C1160 C1158 1.415 . S
C1160 C1165 1.425 . S
C1160 C1167 1.409 . S
C1161 H1153 0.930 . S
C1161 C1159 1.419 . S
C1161 C1162 1.362 . S
C1162 H1154 0.930 . S
C1162 C1161 1.362 . S
C1162 C1165 1.409 . S
C1163 H1155 0.930 . S
C1163 C1164 1.355 . S
C1163 C1165 1.415 . S
C1164 C1163 1.355 . S
C1164 C1166 1.419 . S
C1165 C1160 1.425 . S
C1165 C1162 1.409 . S
C1165 C1163 1.415 . S
C1166 H1156 0.930 . S
C1166 C1164 1.419 . S
C1166 C1167 1.362 . S
C1167 H1157 0.930 . S
C1167 C1160 1.409 . S
C1167 C1166 1.362 . S
H1168 C1174 0.930 1_455 S
H1169 C1177 0.930 . S
H1170 C1178 0.930 . S
H1171 C1179 0.930 . S
H1172 C1182 0.930 . S
H1173 C1183 0.930 . S
C1174 H1168 0.930 1_655 S
C1174 C1175 1.355 1_655 S
C1174 C1176 1.415 . S
C1175 C1174 1.355 1_455 S
C1175 C1177 1.419 1_455 S
C1176 C1174 1.415 . S
C1176 C1181 1.425 . S
C1176 C1183 1.409 . S
C1177 H1169 0.930 . S
C1177 C1175 1.419 1_655 S
C1177 C1178 1.362 . S
C1178 H1170 0.930 . S
C1178 C1177 1.362 . S
C1178 C1181 1.409 . S
C1179 H1171 0.930 . S
C1179 C1180 1.355 . S
C1179 C1181 1.415 . S
C1180 C1179 1.355 . S
C1180 C1182 1.419 . S
C1181 C1176 1.425 . S
C1181 C1178 1.409 . S
C1181 C1179 1.415 . S
C1182 H1172 0.930 . S
C1182 C1180 1.419 . S
C1182 C1183 1.362 . S
C1183 H1173 0.930 . S
C1183 C1176 1.409 . S
C1183 C1182 1.362 . S
H1184 C1190 0.930 . S
H1185 C1193 0.930 . S
H1186 C1194 0.930 . S
H1187 C1195 0.930 . S
H1188 C1198 0.930 . S
H1189 C1199 0.930 . S
C1190 H1184 0.930 . S
C1190 C1191 1.355 . S
C1190 C1192 1.415 . S
C1191 C1190 1.355 . S
C1191 C1193 1.419 . S
C1192 C1190 1.415 . S
C1192 C1197 1.425 . S
C1192 C1199 1.409 . S
C1193 H1185 0.930 . S
C1193 C1191 1.419 . S
C1193 C1194 1.362 . S
C1194 H1186 0.930 . S
C1194 C1193 1.362 . S
C1194 C1197 1.409 . S
C1195 H1187 0.930 . S
C1195 C1196 1.355 . S
C1195 C1197 1.415 . S
C1196 C1195 1.355 . S
C1196 C1198 1.419 . S
C1197 C1192 1.425 . S
C1197 C1194 1.409 . S
C1197 C1195 1.415 . S
C1198 H1188 0.930 . S
C1198 C1196 1.419 . S
C1198 C1199 1.362 . S
C1199 H1189 0.930 . S
C1199 C1192 1.409 . S
C1199 C1198 1.362 . S
H1200 C1206 0.930 . S
H1201 C1209 0.930 . S
H1202 C1210 0.930 . S
H1203 C1211 0.930 . S
H1204 C1214 0.930 . S
H1205 C1215 0.930 . S
C1206 H1200 0.930 . S
C1206 C1207 1.355 . S
C1206 C1208 1.415 . S
C1207 C1206 1.355 . S
C1207 C1209 1.419 . S
C1208 C1206 1.415 . S
C1208 C1213 1.425 . S
C1208 C1215 1.409 . S
C1209 H1201 0.930 . S
C1209 C1207 1.419 . S
C1209 C1210 1.362 . S
C1210 H1202 0.930 . S
C1210 C1209 1.362 . S
C1210 C1213 1.409 . S
C1211 H1203 0.930 . S
C1211 C1212 1.355 . S
C1211 C1213 1.415 . S
C1212 C1211 1.355 . S
C1212 C1214 1.419 . S
C1213 C1208 1.425 . S
C1213 C1210 1.409 . S
C1213 C1211 1.415 . S
C1214 H1204 0.930 . S
C1214 C1212 1.419 . S
C1214 C1215 1.362 . S
C1215 H1205 0.930 . S
C1215 C1208 1.409 . S
C1215 C1214 1.362 . S
H1216 C1222 0.930 . S
H1217 C1225 0.930 . S
H1218 C1226 0.930 . S
H1219 C1227 0.930 . S
H1220 C1230 0.930 . S
H1221 C1231 0.930 . S
C1222 H1216 0.930 . S
C1222 C1223 1.355 . S
C1222 C1224 1.415 . S
C1223 C1222 1.355 . S
C1223 C1225 1.419 . S
C1224 C1222 1.415 . S
C1224 C1229 1.425 . S
C1224 C1231 1.409 . S
C1225 H1217 0.930 . S
C1225 C1223 1.419 . S
C1225 C1226 1.362 . S
C1226 H1218 0.930 . S
C1226 C1225 1.362 . S
C1226 C1229 1.409 . S
C1227 H1219 0.930 . S
C1227 C1228 1.355 . S
C1227 C1229 1.415 . S
C1228 C1227 1.355 . S
C1228 C1230 1.419 . S
C1229 C1224 1.425 . S
C1229 C1226 1.409 . S
C1229 C1227 1.415 . S
C1230 H1220 0.930 . S
C1230 C1228 1.419 . S
C1230 C1231 1.362 . S
C1231 H1221 0.930 . S
C1231 C1224 1.409 . S
C1231 C1230 1.362 . S
H1232 C1238 0.930 . S
H1233 C1241 0.930 . S
H1234 C1242 0.930 . S
H1235 C1243 0.930 . S
H1236 C1246 0.930 . S
H1237 C1247 0.930 . S
C1238 H1232 0.930 . S
C1238 C1239 1.355 . S
C1238 C1240 1.415 . S
C1239 C1238 1.355 . S
C1239 C1241 1.419 . S
C1240 C1238 1.415 . S
C1240 C1245 1.425 . S
C1240 C1247 1.409 . S
C1241 H1233 0.930 . S
C1241 C1239 1.419 . S
C1241 C1242 1.362 . S
C1242 H1234 0.930 . S
C1242 C1241 1.362 . S
C1242 C1245 1.409 . S
C1243 H1235 0.930 . S
C1243 C1244 1.355 . S
C1243 C1245 1.415 . S
C1244 C1243 1.355 . S
C1244 C1246 1.419 . S
C1245 C1240 1.425 . S
C1245 C1242 1.409 . S
C1245 C1243 1.415 . S
C1246 H1236 0.930 . S
C1246 C1244 1.419 . S
C1246 C1247 1.362 . S
C1247 H1237 0.930 . S
C1247 C1240 1.409 . S
C1247 C1246 1.362 . S
H1248 C1254 0.930 . S
H1249 C1257 0.930 . S
H1250 C1258 0.930 . S
H1251 C1259 0.930 . S
H1252 C1262 0.930 . S
H1253 C1263 0.930 . S
C1254 H1248 0.930 . S
C1254 C1255 1.355 . S
C1254 C1256 1.415 . S
C1255 C1254 1.355 . S
C1255 C1257 1.419 . S
C1256 C1254 1.415 . S
C1256 C1261 1.425 . S
C1256 C1263 1.409 . S
C1257 H1249 0.930 . S
C1257 C1255 1.419 . S
C1257 C1258 1.362 . S
C1258 H1250 0.930 . S
C1258 C1257 1.362 . S
C1258 C1261 1.409 . S
C1259 H1251 0.930 . S
C1259 C1260 1.355 . S
C1259 C1261 1.415 . S
C1260 C1259 1.355 . S
C1260 C1262 1.419 . S
C1261 C1256 1.425 . S
C1261 C1258 1.409 . S
C1261 C1259 1.415 . S
C1262 H1252 0.930 . S
C1262 C1260 1.419 . S
C1262 C1263 1.362 . S
C1263 H1253 0.930 . S
C1263 C1256 1.409 . S
C1263 C1262 1.362 . S
H1264 C1270 0.930 . S
H1265 C1273 0.930 . S
H1266 C1274 0.930 . S
H1267 C1275 0.930 . S
H1268 C1278 0.930 . S
H1269 C1279 0.930 . S
C1270 H1264 0.930 . S
C1270 C1271 1.355 . S
C1270 C1272 1.415 . S
C1271 C1270 1.355 . S
C1271 C1273 1.419 1_556 S
C1272 C1270 1.415 . S
C1272 C1277 1.425 1_556 S
C1272 C1279 1.409 . S
C1273 H1265 0.930 . S
C1273 C1271 1.419 1_554 S
C1273 C1274 1.362 . S
C1274 H1266 0.930 . S
C1274 C1273 1.362 . S
C1274 C1277 1.409 . S
C1275 H1267 0.930 . S
C1275 C1276 1.355 . S
C1275 C1277 1.415 . S
C1276 C1275 1.355 . S
C1276 C1278 1.419 1_554 S
C1277 C1272 1.425 1_554 S
C1277 C1274 1.409 . S
C1277 C1275 1.415 . S
C1278 H1268 0.930 . S
C1278 C1276 1.419 1_556 S
C1278 C1279 1.362 . S
C1279 H1269 0.930 . S
C1279 C1272 1.409 . S
C1279 C1278 1.362 . S
H1280 C1286 0.930 . S
H1281 C1289 0.930 . S
H1282 C1290 0.930 . S
H1283 C1291 0.930 . S
H1284 C1294 0.930 . S
H1285 C1295 0.930 . S
C1286 H1280 0.930 . S
C1286 C1287 1.355 . S
C1286 C1288 1.415 . S
C1287 C1286 1.355 . S
C1287 C1289 1.419 . S
C1288 C1286 1.415 . S
C1288 C1293 1.425 . S
C1288 C1295 1.409 . S
C1289 H1281 0.930 . S
C1289 C1287 1.419 . S
C1289 C1290 1.362 . S
C1290 H1282 0.930 . S
C1290 C1289 1.362 . S
C1290 C1293 1.409 . S
C1291 H1283 0.930 . S
C1291 C1292 1.355 . S
C1291 C1293 1.415 . S
C1292 C1291 1.355 . S
C1292 C1294 1.419 . S
C1293 C1288 1.425 . S
C1293 C1290 1.409 . S
C1293 C1291 1.415 . S
C1294 H1284 0.930 . S
C1294 C1292 1.419 . S
C1294 C1295 1.362 . S
C1295 H1285 0.930 . S
C1295 C1288 1.409 . S
C1295 C1294 1.362 . S
H1296 C1302 0.930 . S
H1297 C1305 0.930 . S
H1298 C1306 0.930 . S
H1299 C1307 0.930 . S
H1300 C1310 0.930 . S
H1301 C1311 0.930 . S
C1302 H1296 0.930 . S
C1302 C1303 1.355 . S
C1302 C1304 1.415 . S
C1303 C1302 1.355 . S
C1303 C1305 1.419 . S
C1304 C1302 1.415 . S
C1304 C1309 1.425 . S
C1304 C1311 1.409 . S
C1305 H1297 0.930 . S
C1305 C1303 1.419 . S
C1305 C1306 1.362 . S
C1306 H1298 0.930 . S
C1306 C1305 1.362 . S
C1306 C1309 1.409 . S
C1307 H1299 0.930 . S
C1307 C1308 1.355 . S
C1307 C1309 1.415 . S
C1308 C1307 1.355 . S
C1308 C1310 1.419 . S
C1309 C1304 1.425 . S
C1309 C1306 1.409 . S
C1309 C1307 1.415 . S
C1310 H1300 0.930 . S
C1310 C1308 1.419 . S
C1310 C1311 1.362 . S
C1311 H1301 0.930 . S
C1311 C1304 1.409 . S
C1311 C1310 1.362 . S
H1312 C1318 0.930 . S
H1313 C1321 0.930 . S
H1314 C1322 0.930 . S
H1315 C1323 0.930 . S
H1316 C1326 0.930 . S
H1317 C1327 0.930 . S
C1318 H1312 0.930 . S
C1318 C1319 1.355 . S
C1318 C1320 1.415 . S
C1319 C1318 1.355 . S
C1319 C1321 1.419 . S
C1320 C1318 1.415 . S
C1320 C1325 1.425 . S
C1320 C1327 1.409 . S
C1321 H1313 0.930 . S
C1321 C1319 1.419 . S
C1321 C1322 1.362 . S
C1322 H1314 0.930 . S
C1322 C1321 1.362 . S
C1322 C1325 1.409 . S
C1323 H1315 0.930 . S
C1323 C1324 1.355 . S
C1323 C1325 1.415 . S
C1324 C1323 1.355 . S
C1324 C1326 1.419 . S
C1325 C1320 1.425 . S
C1325 C1322 1.409 . S
C1325 C1323 1.415 . S
C1326 H1316 0.930 . S
C1326 C1324 1.419 . S
C1326 C1327 1.362 . S
C1327 H1317 0.930 . S
C1327 C1320 1.409 . S
C1327 C1326 1.362 . S
H1328 C1334 0.930 . S
H1329 C1337 0.930 . S
H1330 C1338 0.930 . S
H1331 C1339 0.930 . S
H1332 C1342 0.930 . S
H1333 C1343 0.930 . S
C1334 H1328 0.930 . S
C1334 C1335 1.355 . S
C1334 C1336 1.415 . S
C1335 C1334 1.355 . S
C1335 C1337 1.419 1_554 S
C1336 C1334 1.415 . S
C1336 C1341 1.425 1_554 S
C1336 C1343 1.409 . S
C1337 H1329 0.930 . S
C1337 C1335 1.419 1_556 S
C1337 C1338 1.362 . S
C1338 H1330 0.930 . S
C1338 C1337 1.362 . S
C1338 C1341 1.409 . S
C1339 H1331 0.930 . S
C1339 C1340 1.355 . S
C1339 C1341 1.415 . S
C1340 C1339 1.355 . S
C1340 C1342 1.419 1_556 S
C1341 C1336 1.425 1_556 S
C1341 C1338 1.409 . S
C1341 C1339 1.415 . S
C1342 H1332 0.930 . S
C1342 C1340 1.419 1_554 S
C1342 C1343 1.362 . S
C1343 H1333 0.930 . S
C1343 C1336 1.409 . S
C1343 C1342 1.362 . S
H1344 C1350 0.930 . S
H1345 C1353 0.930 . S
H1346 C1354 0.930 . S
H1347 C1355 0.930 . S
H1348 C1358 0.930 . S
H1349 C1359 0.930 . S
C1350 H1344 0.930 . S
C1350 C1351 1.355 . S
C1350 C1352 1.415 1_565 S
C1351 C1350 1.355 . S
C1351 C1353 1.419 . S
C1352 C1350 1.415 1_545 S
C1352 C1357 1.425 1_545 S
C1352 C1359 1.409 . S
C1353 H1345 0.930 . S
C1353 C1351 1.419 . S
C1353 C1354 1.362 . S
C1354 H1346 0.930 . S
C1354 C1353 1.362 . S
C1354 C1357 1.409 . S
C1355 H1347 0.930 . S
C1355 C1356 1.355 . S
C1355 C1357 1.415 1_545 S
C1356 C1355 1.355 . S
C1356 C1358 1.419 . S
C1357 C1352 1.425 1_565 S
C1357 C1354 1.409 . S
C1357 C1355 1.415 1_565 S
C1358 H1348 0.930 . S
C1358 C1356 1.419 . S
C1358 C1359 1.362 . S
C1359 H1349 0.930 . S
C1359 C1352 1.409 . S
C1359 C1358 1.362 . S
H1360 C1366 0.930 . S
H1361 C1369 0.930 . S
H1362 C1370 0.930 . S
H1363 C1371 0.930 . S
H1364 C1374 0.930 . S
H1365 C1375 0.930 . S
C1366 H1360 0.930 . S
C1366 C1367 1.355 1_556 S
C1366 C1368 1.415 . S
C1367 C1366 1.355 1_554 S
C1367 C1369 1.419 . S
C1368 C1366 1.415 . S
C1368 C1373 1.425 1_556 S
C1368 C1375 1.409 . S
C1369 H1361 0.930 . S
C1369 C1367 1.419 . S
C1369 C1370 1.362 . S
C1370 H1362 0.930 . S
C1370 C1369 1.362 . S
C1370 C1373 1.409 . S
C1371 H1363 0.930 . S
C1371 C1372 1.355 1_554 S
C1371 C1373 1.415 . S
C1372 C1371 1.355 1_556 S
C1372 C1374 1.419 . S
C1373 C1368 1.425 1_554 S
C1373 C1370 1.409 . S
C1373 C1371 1.415 . S
C1374 H1364 0.930 . S
C1374 C1372 1.419 . S
C1374 C1375 1.362 . S
C1375 H1365 0.930 . S
C1375 C1368 1.409 . S
C1375 C1374 1.362 . S
H1376 C1382 0.930 . S
H1377 C1385 0.930 . S
H1378 C1386 0.930 . S
H1379 C1387 0.930 . S
H1380 C1390 0.930 . S
H1381 C1391 0.930 . S
C1382 H1376 0.930 . S
C1382 C1383 1.355 . S
C1382 C1384 1.415 . S
C1383 C1382 1.355 . S
C1383 C1385 1.419 . S
C1384 C1382 1.415 . S
C1384 C1389 1.425 1_545 S
C1384 C1391 1.409 1_545 S
C1385 H1377 0.930 . S
C1385 C1383 1.419 . S
C1385 C1386 1.362 . S
C1386 H1378 0.930 . S
C1386 C1385 1.362 . S
C1386 C1389 1.409 1_545 S
C1387 H1379 0.930 . S
C1387 C1388 1.355 . S
C1387 C1389 1.415 . S
C1388 C1387 1.355 . S
C1388 C1390 1.419 . S
C1389 C1384 1.425 1_565 S
C1389 C1386 1.409 1_565 S
C1389 C1387 1.415 . S
C1390 H1380 0.930 . S
C1390 C1388 1.419 . S
C1390 C1391 1.362 . S
C1391 H1381 0.930 . S
C1391 C1384 1.409 1_565 S
C1391 C1390 1.362 . S
H1392 C1398 0.930 . S
H1393 C1401 0.930 . S
H1394 C1402 0.930 . S
H1395 C1403 0.930 . S
H1396 C1406 0.930 . S
H1397 C1407 0.930 . S
C1398 H1392 0.930 . S
C1398 C1399 1.355 . S
C1398 C1400 1.415 . S
C1399 C1398 1.355 . S
C1399 C1401 1.419 . S
C1400 C1398 1.415 . S
C1400 C1405 1.425 . S
C1400 C1407 1.409 . S
C1401 H1393 0.930 . S
C1401 C1399 1.419 . S
C1401 C1402 1.362 . S
C1402 H1394 0.930 . S
C1402 C1401 1.362 . S
C1402 C1405 1.409 . S
C1403 H1395 0.930 . S
C1403 C1404 1.355 . S
C1403 C1405 1.415 . S
C1404 C1403 1.355 . S
C1404 C1406 1.419 . S
C1405 C1400 1.425 . S
C1405 C1402 1.409 . S
C1405 C1403 1.415 . S
C1406 H1396 0.930 . S
C1406 C1404 1.419 . S
C1406 C1407 1.362 . S
C1407 H1397 0.930 . S
C1407 C1400 1.409 . S
C1407 C1406 1.362 . S
H1408 C1414 0.930 . S
H1409 C1417 0.930 . S
H1410 C1418 0.930 1_565 S
H1411 C1419 0.930 . S
H1412 C1422 0.930 . S
H1413 C1423 0.930 1_545 S
C1414 H1408 0.930 . S
C1414 C1415 1.355 . S
C1414 C1416 1.415 . S
C1415 C1414 1.355 . S
C1415 C1417 1.419 . S
C1416 C1414 1.415 . S
C1416 C1421 1.425 1_545 S
C1416 C1423 1.409 1_545 S
C1417 H1409 0.930 . S
C1417 C1415 1.419 . S
C1417 C1418 1.362 . S
C1418 H1410 0.930 1_545 S
C1418 C1417 1.362 . S
C1418 C1421 1.409 1_545 S
C1419 H1411 0.930 . S
C1419 C1420 1.355 . S
C1419 C1421 1.415 . S
C1420 C1419 1.355 . S
C1420 C1422 1.419 . S
C1421 C1416 1.425 1_565 S
C1421 C1418 1.409 1_565 S
C1421 C1419 1.415 . S
C1422 H1412 0.930 . S
C1422 C1420 1.419 . S
C1422 C1423 1.362 . S
C1423 H1413 0.930 1_565 S
C1423 C1416 1.409 1_565 S
C1423 C1422 1.362 . S
H1424 C1430 0.930 . S
H1425 C1433 0.930 . S
H1426 C1434 0.930 . S
H1427 C1435 0.930 . S
H1428 C1438 0.930 . S
H1429 C1439 0.930 . S
C1430 H1424 0.930 . S
C1430 C1431 1.355 . S
C1430 C1432 1.415 1_554 S
C1431 C1430 1.355 . S
C1431 C1433 1.419 . S
C1432 C1430 1.415 1_556 S
C1432 C1437 1.425 1_556 S
C1432 C1439 1.409 . S
C1433 H1425 0.930 . S
C1433 C1431 1.419 . S
C1433 C1434 1.362 . S
C1434 H1426 0.930 . S
C1434 C1433 1.362 . S
C1434 C1437 1.409 . S
C1435 H1427 0.930 . S
C1435 C1436 1.355 . S
C1435 C1437 1.415 1_556 S
C1436 C1435 1.355 . S
C1436 C1438 1.419 . S
C1437 C1432 1.425 1_554 S
C1437 C1434 1.409 . S
C1437 C1435 1.415 1_554 S
C1438 H1428 0.930 . S
C1438 C1436 1.419 . S
C1438 C1439 1.362 . S
C1439 H1429 0.930 . S
C1439 C1432 1.409 . S
C1439 C1438 1.362 . S
H1440 C1446 0.930 . S
H1441 C1449 0.930 . S
H1442 C1450 0.930 1_565 S
H1443 C1451 0.930 . S
H1444 C1454 0.930 . S
H1445 C1455 0.930 1_545 S
C1446 H1440 0.930 . S
C1446 C1447 1.355 . S
C1446 C1448 1.415 . S
C1447 C1446 1.355 . S
C1447 C1449 1.419 . S
C1448 C1446 1.415 . S
C1448 C1453 1.425 1_545 S
C1448 C1455 1.409 1_545 S
C1449 H1441 0.930 . S
C1449 C1447 1.419 . S
C1449 C1450 1.362 . S
C1450 H1442 0.930 1_545 S
C1450 C1449 1.362 . S
C1450 C1453 1.409 1_545 S
C1451 H1443 0.930 . S
C1451 C1452 1.355 . S
C1451 C1453 1.415 . S
C1452 C1451 1.355 . S
C1452 C1454 1.419 . S
C1453 C1448 1.425 1_565 S
C1453 C1450 1.409 1_565 S
C1453 C1451 1.415 . S
C1454 H1444 0.930 . S
C1454 C1452 1.419 . S
C1454 C1455 1.362 . S
C1455 H1445 0.930 1_565 S
C1455 C1448 1.409 1_565 S
C1455 C1454 1.362 . S
H1456 C1462 0.930 . S
H1457 C1465 0.930 . S
H1458 C1466 0.930 . S
H1459 C1467 0.930 . S
H1460 C1470 0.930 . S
H1461 C1471 0.930 . S
C1462 H1456 0.930 . S
C1462 C1463 1.355 . S
C1462 C1464 1.415 . S
C1463 C1462 1.355 . S
C1463 C1465 1.419 . S
C1464 C1462 1.415 . S
C1464 C1469 1.425 . S
C1464 C1471 1.409 . S
C1465 H1457 0.930 . S
C1465 C1463 1.419 . S
C1465 C1466 1.362 . S
C1466 H1458 0.930 . S
C1466 C1465 1.362 . S
C1466 C1469 1.409 . S
C1467 H1459 0.930 . S
C1467 C1468 1.355 . S
C1467 C1469 1.415 . S
C1468 C1467 1.355 . S
C1468 C1470 1.419 . S
C1469 C1464 1.425 . S
C1469 C1466 1.409 . S
C1469 C1467 1.415 . S
C1470 H1460 0.930 . S
C1470 C1468 1.419 . S
C1470 C1471 1.362 . S
C1471 H1461 0.930 . S
C1471 C1464 1.409 . S
C1471 C1470 1.362 . S
C455 C7 1.325 . S
C460 C301 1.382 . S
C471 C315 1.384 . S
C476 C21 1.328 . S
C487 C35 1.377 . S
C492 C329 1.322 . S
C503 C287 1.330 . S
C508 C49 1.354 . S
C519 C63 1.359 . S
C524 C273 1.372 . S
C535 C77 1.384 . S
C540 C231 1.336 . S
C551 C245 1.322 . S
C556 C91 1.375 . S
C567 C105 1.382 . S
C572 C259 1.340 . S
C583 C119 1.367 . S
C588 C413 1.365 . S
C599 C133 1.348 . S
C604 C427 1.335 . S
C615 C441 1.339 . S
C620 C147 1.343 . S
C631 C399 1.323 . S
C636 C161 1.368 . S
C647 C175 1.322 . S
C652 C385 1.376 . S
C663 C343 1.344 . S
C668 C189 1.381 . S
C679 C203 1.324 . S
C684 C357 1.381 . S
C695 C371 1.322 . S
C700 C217 1.377 . S
C711 C9 1.290 . S
C716 C129 1.409 . S
C727 C23 1.292 . S
C732 C367 1.409 . S
C743 C157 1.407 . S
C748 C37 1.300 . S
C759 C51 1.366 . S
C764 C339 1.402 . S
C775 C65 1.355 . S
C780 C213 1.403 . S
C791 C395 1.409 . S
C796 C79 1.291 . S
C807 C185 1.409 . S
C812 C93 1.290 . S
C823 C423 1.404 . S
C828 C107 1.350 . S
C839 C121 1.308 . S
C844 C17 1.406 . S
C855 C255 1.404 . S
C860 C135 1.350 . S
C871 C45 1.399 . S
C876 C149 1.374 . S
C887 C163 1.353 . S
C892 C227 1.404 . S
C903 C101 1.399 . S
C908 C177 1.368 . S
C919 C283 1.409 . S
C924 C191 1.298 . S
C935 C73 1.405 . S
C940 C205 1.340 . S
C951 C219 1.348 . S
C956 C311 1.404 . S
C967 C353 1.404 . S
C972 C233 1.352 . S
C983 C143 1.399 . S
C988 C247 1.380 . S
C999 C381 1.399 . S
C1004 C261 1.375 . S
C1015 C275 1.308 . S
C1020 C115 1.409 . S
C1031 C437 1.406 . S
C1036 C289 1.307 . S
C1047 C171 1.409 . S
C1052 C303 1.293 . S
C1063 C409 1.404 . S
C1068 C317 1.348 . S
C1079 C331 1.364 . S
C1084 C199 1.399 . S
C1095 C345 1.318 . S
C1100 C241 1.408 . S
C1111 C31 1.409 . S
C1116 C359 1.293 . S
C1127 C373 1.311 . S
C1132 C269 1.405 . S
C1143 C387 1.376 . S
C1148 C3 1.398 . S
C1159 C401 1.374 . S
C1164 C325 1.400 . S
C1175 C59 1.409 . S
C1180 C415 1.291 . S
C1191 C297 1.400 . S
C1196 C429 1.376 . S
C1207 C443 1.374 . S
C1212 C87 1.400 . S
C1223 C8 1.332 . S
C1228 C64 1.345 . S
C1239 C22 1.331 . S
C1244 C78 1.321 . S
C1255 C92 1.338 . S
C1260 C36 1.351 . S
C1271 C106 1.318 . S
C1276 C50 1.324 . S
C1287 C176 1.317 . S
C1292 C120 1.322 . S
C1303 C190 1.317 . S
C1308 C134 1.321 . S
C1319 C204 1.362 . S
C1324 C148 1.353 . S
C1335 C218 1.319 . S
C1340 C162 1.317 . S
C1351 C232 1.317 . S
C1356 C288 1.320 . S
C1367 C246 1.365 . S
C1372 C302 1.364 . S
C1383 C260 1.342 . S
C1388 C316 1.328 . S
C1399 C330 1.352 . S
C1404 C274 1.362 . S
C1415 C344 1.365 . S
C1420 C400 1.358 . S
C1431 C414 1.363 . S
C1436 C358 1.353 . S
C1447 C428 1.337 . S
C1452 C372 1.351 . S
C1463 C442 1.321 . S
C1468 C386 1.317 . S
