# Generated by pormake.
# Topology rho, (4)-cn, num edge types: 1
# Building blocks:
#     Node 0, Type 0, BuildingBlock: QUQFOY_clean_sbu_3, # of connection points: 4
#     Node 1, Type 0, BuildingBlock: QUQFOY_clean_sbu_3, # of connection points: 4
#     Node 2, Type 0, BuildingBlock: QUQFOY_clean_sbu_3, # of connection points: 4
#     Node 3, Type 0, BuildingBlock: QUQFOY_clean_sbu_3, # of connection points: 4
#     Node 4, Type 0, BuildingBlock: QUQFOY_clean_sbu_3, # of connection points: 4
#     Node 5, Type 0, BuildingBlock: QUQFOY_clean_sbu_3, # of connection points: 4
#     Node 6, Type 0, BuildingBlock: QUQFOY_clean_sbu_3, # of connection points: 4
#     Node 7, Type 0, BuildingBlock: QUQFOY_clean_sbu_3, # of connection points: 4
#     Node 8, Type 0, BuildingBlock: QUQFOY_clean_sbu_3, # of connection points: 4
#     Node 9, Type 0, BuildingBlock: QUQFOY_clean_sbu_3, # of connection points: 4
#     Node 10, Type 0, BuildingBlock: QUQFOY_clean_sbu_3, # of connection points: 4
#     Node 11, Type 0, BuildingBlock: QUQFOY_clean_sbu_3, # of connection points: 4
#     Node 12, Type 0, BuildingBlock: QUQFOY_clean_sbu_3, # of connection points: 4
#     Node 13, Type 0, BuildingBlock: QUQFOY_clean_sbu_3, # of connection points: 4
#     Node 14, Type 0, BuildingBlock: QUQFOY_clean_sbu_3, # of connection points: 4
#     Node 15, Type 0, BuildingBlock: QUQFOY_clean_sbu_3, # of connection points: 4
#     Node 16, Type 0, BuildingBlock: QUQFOY_clean_sbu_3, # of connection points: 4
#     Node 17, Type 0, BuildingBlock: QUQFOY_clean_sbu_3, # of connection points: 4
#     Node 18, Type 0, BuildingBlock: QUQFOY_clean_sbu_3, # of connection points: 4
#     Node 19, Type 0, BuildingBlock: QUQFOY_clean_sbu_3, # of connection points: 4
#     Node 20, Type 0, BuildingBlock: QUQFOY_clean_sbu_3, # of connection points: 4
#     Node 21, Type 0, BuildingBlock: QUQFOY_clean_sbu_3, # of connection points: 4
#     Node 22, Type 0, BuildingBlock: QUQFOY_clean_sbu_3, # of connection points: 4
#     Node 23, Type 0, BuildingBlock: QUQFOY_clean_sbu_3, # of connection points: 4
#     Node 24, Type 0, BuildingBlock: QUQFOY_clean_sbu_3, # of connection points: 4
#     Node 25, Type 0, BuildingBlock: QUQFOY_clean_sbu_3, # of connection points: 4
#     Node 26, Type 0, BuildingBlock: QUQFOY_clean_sbu_3, # of connection points: 4
#     Node 27, Type 0, BuildingBlock: QUQFOY_clean_sbu_3, # of connection points: 4
#     Node 28, Type 0, BuildingBlock: QUQFOY_clean_sbu_3, # of connection points: 4
#     Node 29, Type 0, BuildingBlock: QUQFOY_clean_sbu_3, # of connection points: 4
#     Node 30, Type 0, BuildingBlock: QUQFOY_clean_sbu_3, # of connection points: 4
#     Node 31, Type 0, BuildingBlock: QUQFOY_clean_sbu_3, # of connection points: 4
#     Node 32, Type 0, BuildingBlock: QUQFOY_clean_sbu_3, # of connection points: 4
#     Node 33, Type 0, BuildingBlock: QUQFOY_clean_sbu_3, # of connection points: 4
#     Node 34, Type 0, BuildingBlock: QUQFOY_clean_sbu_3, # of connection points: 4
#     Node 35, Type 0, BuildingBlock: QUQFOY_clean_sbu_3, # of connection points: 4
#     Node 36, Type 0, BuildingBlock: QUQFOY_clean_sbu_3, # of connection points: 4
#     Node 37, Type 0, BuildingBlock: QUQFOY_clean_sbu_3, # of connection points: 4
#     Node 38, Type 0, BuildingBlock: QUQFOY_clean_sbu_3, # of connection points: 4
#     Node 39, Type 0, BuildingBlock: QUQFOY_clean_sbu_3, # of connection points: 4
#     Node 40, Type 0, BuildingBlock: QUQFOY_clean_sbu_3, # of connection points: 4
#     Node 41, Type 0, BuildingBlock: QUQFOY_clean_sbu_3, # of connection points: 4
#     Node 42, Type 0, BuildingBlock: QUQFOY_clean_sbu_3, # of connection points: 4
#     Node 43, Type 0, BuildingBlock: QUQFOY_clean_sbu_3, # of connection points: 4
#     Node 44, Type 0, BuildingBlock: QUQFOY_clean_sbu_3, # of connection points: 4
#     Node 45, Type 0, BuildingBlock: QUQFOY_clean_sbu_3, # of connection points: 4
#     Node 46, Type 0, BuildingBlock: QUQFOY_clean_sbu_3, # of connection points: 4
#     Node 47, Type 0, BuildingBlock: QUQFOY_clean_sbu_3, # of connection points: 4
#     Edge 48, Type (0, 0), BuildingBlock: UVAHIK_clean_linker_0, # of connection points: 2
#     Edge 49, Type (0, 0), BuildingBlock: UVAHIK_clean_linker_0, # of connection points: 2
#     Edge 50, Type (0, 0), BuildingBlock: UVAHIK_clean_linker_0, # of connection points: 2
#     Edge 51, Type (0, 0), BuildingBlock: UVAHIK_clean_linker_0, # of connection points: 2
#     Edge 52, Type (0, 0), BuildingBlock: UVAHIK_clean_linker_0, # of connection points: 2
#     Edge 53, Type (0, 0), BuildingBlock: UVAHIK_clean_linker_0, # of connection points: 2
#     Edge 54, Type (0, 0), BuildingBlock: UVAHIK_clean_linker_0, # of connection points: 2
#     Edge 55, Type (0, 0), BuildingBlock: UVAHIK_clean_linker_0, # of connection points: 2
#     Edge 56, Type (0, 0), BuildingBlock: UVAHIK_clean_linker_0, # of connection points: 2
#     Edge 57, Type (0, 0), BuildingBlock: UVAHIK_clean_linker_0, # of connection points: 2
#     Edge 58, Type (0, 0), BuildingBlock: UVAHIK_clean_linker_0, # of connection points: 2
#     Edge 59, Type (0, 0), BuildingBlock: UVAHIK_clean_linker_0, # of connection points: 2
#     Edge 60, Type (0, 0), BuildingBlock: UVAHIK_clean_linker_0, # of connection points: 2
#     Edge 61, Type (0, 0), BuildingBlock: UVAHIK_clean_linker_0, # of connection points: 2
#     Edge 62, Type (0, 0), BuildingBlock: UVAHIK_clean_linker_0, # of connection points: 2
#     Edge 63, Type (0, 0), BuildingBlock: UVAHIK_clean_linker_0, # of connection points: 2
#     Edge 64, Type (0, 0), BuildingBlock: UVAHIK_clean_linker_0, # of connection points: 2
#     Edge 65, Type (0, 0), BuildingBlock: UVAHIK_clean_linker_0, # of connection points: 2
#     Edge 66, Type (0, 0), BuildingBlock: UVAHIK_clean_linker_0, # of connection points: 2
#     Edge 67, Type (0, 0), BuildingBlock: UVAHIK_clean_linker_0, # of connection points: 2
#     Edge 68, Type (0, 0), BuildingBlock: UVAHIK_clean_linker_0, # of connection points: 2
#     Edge 69, Type (0, 0), BuildingBlock: UVAHIK_clean_linker_0, # of connection points: 2
#     Edge 70, Type (0, 0), BuildingBlock: UVAHIK_clean_linker_0, # of connection points: 2
#     Edge 71, Type (0, 0), BuildingBlock: UVAHIK_clean_linker_0, # of connection points: 2
#     Edge 72, Type (0, 0), BuildingBlock: UVAHIK_clean_linker_0, # of connection points: 2
#     Edge 73, Type (0, 0), BuildingBlock: UVAHIK_clean_linker_0, # of connection points: 2
#     Edge 74, Type (0, 0), BuildingBlock: UVAHIK_clean_linker_0, # of connection points: 2
#     Edge 75, Type (0, 0), BuildingBlock: UVAHIK_clean_linker_0, # of connection points: 2
#     Edge 76, Type (0, 0), BuildingBlock: UVAHIK_clean_linker_0, # of connection points: 2
#     Edge 77, Type (0, 0), BuildingBlock: UVAHIK_clean_linker_0, # of connection points: 2
#     Edge 78, Type (0, 0), BuildingBlock: UVAHIK_clean_linker_0, # of connection points: 2
#     Edge 79, Type (0, 0), BuildingBlock: UVAHIK_clean_linker_0, # of connection points: 2
#     Edge 80, Type (0, 0), BuildingBlock: UVAHIK_clean_linker_0, # of connection points: 2
#     Edge 81, Type (0, 0), BuildingBlock: UVAHIK_clean_linker_0, # of connection points: 2
#     Edge 82, Type (0, 0), BuildingBlock: UVAHIK_clean_linker_0, # of connection points: 2
#     Edge 83, Type (0, 0), BuildingBlock: UVAHIK_clean_linker_0, # of connection points: 2
#     Edge 84, Type (0, 0), BuildingBlock: UVAHIK_clean_linker_0, # of connection points: 2
#     Edge 85, Type (0, 0), BuildingBlock: UVAHIK_clean_linker_0, # of connection points: 2
#     Edge 86, Type (0, 0), BuildingBlock: UVAHIK_clean_linker_0, # of connection points: 2
#     Edge 87, Type (0, 0), BuildingBlock: UVAHIK_clean_linker_0, # of connection points: 2
#     Edge 88, Type (0, 0), BuildingBlock: UVAHIK_clean_linker_0, # of connection points: 2
#     Edge 89, Type (0, 0), BuildingBlock: UVAHIK_clean_linker_0, # of connection points: 2
#     Edge 90, Type (0, 0), BuildingBlock: UVAHIK_clean_linker_0, # of connection points: 2
#     Edge 91, Type (0, 0), BuildingBlock: UVAHIK_clean_linker_0, # of connection points: 2
#     Edge 92, Type (0, 0), BuildingBlock: UVAHIK_clean_linker_0, # of connection points: 2
#     Edge 93, Type (0, 0), BuildingBlock: UVAHIK_clean_linker_0, # of connection points: 2
#     Edge 94, Type (0, 0), BuildingBlock: UVAHIK_clean_linker_0, # of connection points: 2
#     Edge 95, Type (0, 0), BuildingBlock: UVAHIK_clean_linker_0, # of connection points: 2
#     Edge 96, Type (0, 0), BuildingBlock: UVAHIK_clean_linker_0, # of connection points: 2
#     Edge 97, Type (0, 0), BuildingBlock: UVAHIK_clean_linker_0, # of connection points: 2
#     Edge 98, Type (0, 0), BuildingBlock: UVAHIK_clean_linker_0, # of connection points: 2
#     Edge 99, Type (0, 0), BuildingBlock: UVAHIK_clean_linker_0, # of connection points: 2
#     Edge 100, Type (0, 0), BuildingBlock: UVAHIK_clean_linker_0, # of connection points: 2
#     Edge 101, Type (0, 0), BuildingBlock: UVAHIK_clean_linker_0, # of connection points: 2
#     Edge 102, Type (0, 0), BuildingBlock: UVAHIK_clean_linker_0, # of connection points: 2
#     Edge 103, Type (0, 0), BuildingBlock: UVAHIK_clean_linker_0, # of connection points: 2
#     Edge 104, Type (0, 0), BuildingBlock: UVAHIK_clean_linker_0, # of connection points: 2
#     Edge 105, Type (0, 0), BuildingBlock: UVAHIK_clean_linker_0, # of connection points: 2
#     Edge 106, Type (0, 0), BuildingBlock: UVAHIK_clean_linker_0, # of connection points: 2
#     Edge 107, Type (0, 0), BuildingBlock: UVAHIK_clean_linker_0, # of connection points: 2
#     Edge 108, Type (0, 0), BuildingBlock: UVAHIK_clean_linker_0, # of connection points: 2
#     Edge 109, Type (0, 0), BuildingBlock: UVAHIK_clean_linker_0, # of connection points: 2
#     Edge 110, Type (0, 0), BuildingBlock: UVAHIK_clean_linker_0, # of connection points: 2
#     Edge 111, Type (0, 0), BuildingBlock: UVAHIK_clean_linker_0, # of connection points: 2
#     Edge 112, Type (0, 0), BuildingBlock: UVAHIK_clean_linker_0, # of connection points: 2
#     Edge 113, Type (0, 0), BuildingBlock: UVAHIK_clean_linker_0, # of connection points: 2
#     Edge 114, Type (0, 0), BuildingBlock: UVAHIK_clean_linker_0, # of connection points: 2
#     Edge 115, Type (0, 0), BuildingBlock: UVAHIK_clean_linker_0, # of connection points: 2
#     Edge 116, Type (0, 0), BuildingBlock: UVAHIK_clean_linker_0, # of connection points: 2
#     Edge 117, Type (0, 0), BuildingBlock: UVAHIK_clean_linker_0, # of connection points: 2
#     Edge 118, Type (0, 0), BuildingBlock: UVAHIK_clean_linker_0, # of connection points: 2
#     Edge 119, Type (0, 0), BuildingBlock: UVAHIK_clean_linker_0, # of connection points: 2
#     Edge 120, Type (0, 0), BuildingBlock: UVAHIK_clean_linker_0, # of connection points: 2
#     Edge 121, Type (0, 0), BuildingBlock: UVAHIK_clean_linker_0, # of connection points: 2
#     Edge 122, Type (0, 0), BuildingBlock: UVAHIK_clean_linker_0, # of connection points: 2
#     Edge 123, Type (0, 0), BuildingBlock: UVAHIK_clean_linker_0, # of connection points: 2
#     Edge 124, Type (0, 0), BuildingBlock: UVAHIK_clean_linker_0, # of connection points: 2
#     Edge 125, Type (0, 0), BuildingBlock: UVAHIK_clean_linker_0, # of connection points: 2
#     Edge 126, Type (0, 0), BuildingBlock: UVAHIK_clean_linker_0, # of connection points: 2
#     Edge 127, Type (0, 0), BuildingBlock: UVAHIK_clean_linker_0, # of connection points: 2
#     Edge 128, Type (0, 0), BuildingBlock: UVAHIK_clean_linker_0, # of connection points: 2
#     Edge 129, Type (0, 0), BuildingBlock: UVAHIK_clean_linker_0, # of connection points: 2
#     Edge 130, Type (0, 0), BuildingBlock: UVAHIK_clean_linker_0, # of connection points: 2
#     Edge 131, Type (0, 0), BuildingBlock: UVAHIK_clean_linker_0, # of connection points: 2
#     Edge 132, Type (0, 0), BuildingBlock: UVAHIK_clean_linker_0, # of connection points: 2
#     Edge 133, Type (0, 0), BuildingBlock: UVAHIK_clean_linker_0, # of connection points: 2
#     Edge 134, Type (0, 0), BuildingBlock: UVAHIK_clean_linker_0, # of connection points: 2
#     Edge 135, Type (0, 0), BuildingBlock: UVAHIK_clean_linker_0, # of connection points: 2
#     Edge 136, Type (0, 0), BuildingBlock: UVAHIK_clean_linker_0, # of connection points: 2
#     Edge 137, Type (0, 0), BuildingBlock: UVAHIK_clean_linker_0, # of connection points: 2
#     Edge 138, Type (0, 0), BuildingBlock: UVAHIK_clean_linker_0, # of connection points: 2
#     Edge 139, Type (0, 0), BuildingBlock: UVAHIK_clean_linker_0, # of connection points: 2
#     Edge 140, Type (0, 0), BuildingBlock: UVAHIK_clean_linker_0, # of connection points: 2
#     Edge 141, Type (0, 0), BuildingBlock: UVAHIK_clean_linker_0, # of connection points: 2
#     Edge 142, Type (0, 0), BuildingBlock: UVAHIK_clean_linker_0, # of connection points: 2
#     Edge 143, Type (0, 0), BuildingBlock: UVAHIK_clean_linker_0, # of connection points: 2
# Relax obj value: 0.072
# Max RMSD: 0.093
# Mean RMSD: 0.088
data_MOF--net-rho--node1-QUQFOY_clean_sbu_3--edge1-UVAHIK_clean_linker_0
_symmetry_space_group_name_H-M    P1
_symmetry_Int_Tables_number       1
_symmetry_cell_setting            triclinic
loop_
_symmetry_equiv_pos_as_xyz
'x, y, z'
_cell_length_a     93.854933
_cell_length_b     94.422594
_cell_length_c     94.456939
_cell_angle_alpha  90.129821
_cell_angle_beta   90.042128
_cell_angle_gamma 90.823969
loop_
_atom_site_label
_atom_site_type_symbol
_atom_site_fract_x
_atom_site_fract_y
_atom_site_fract_z
_atom_type_partial_charge
C0 C 0.10464 0.20672 0.37059 0.0
O1 O 0.09287 0.20182 0.37522 0.0
Cd2 Cd 0.07546 0.21675 0.38626 0.0
O3 O 0.10758 0.21989 0.37165 0.0
Cd4 Cd 0.09681 0.24181 0.38058 0.0
C5 C 0.09515 0.22969 0.41406 0.0
O6 O 0.07258 0.23738 0.37175 0.0
O7 O 0.07538 0.25498 0.38613 0.0
O8 O 0.10838 0.25295 0.36039 0.0
C9 C 0.06728 0.24809 0.3778 0.0
O10 O 0.08431 0.2225 0.40998 0.0
C11 C 0.11298 0.26372 0.36714 0.0
O12 O 0.10256 0.23684 0.40526 0.0
O13 O 0.11041 0.26413 0.38033 0.0
C14 C 0.77805 0.10369 0.38183 0.0
O15 O 0.78292 0.09159 0.38485 0.0
Cd16 Cd 0.76862 0.07301 0.39478 0.0
O17 O 0.76478 0.10613 0.383 0.0
Cd18 Cd 0.74224 0.09329 0.38876 0.0
C19 C 0.7532 0.09146 0.42256 0.0
O20 O 0.74862 0.07011 0.37949 0.0
O21 O 0.72994 0.07064 0.39271 0.0
O22 O 0.73314 0.10434 0.36758 0.0
C23 C 0.73808 0.06351 0.38482 0.0
O24 O 0.76171 0.08209 0.41803 0.0
C25 C 0.72135 0.10803 0.37289 0.0
O26 O 0.74502 0.09797 0.41408 0.0
O27 O 0.71934 0.10526 0.3859 0.0
C28 C 0.87882 0.77438 0.37026 0.0
O29 O 0.89087 0.7793 0.37417 0.0
Cd30 Cd 0.90891 0.76476 0.38463 0.0
O31 O 0.87582 0.76127 0.37173 0.0
Cd32 Cd 0.8866 0.73928 0.38047 0.0
C33 C 0.89037 0.75265 0.41356 0.0
O34 O 0.91027 0.74365 0.37058 0.0
O35 O 0.90827 0.72585 0.38472 0.0
O36 O 0.87391 0.72768 0.36116 0.0
C37 C 0.91601 0.73305 0.37634 0.0
O38 O 0.90097 0.75974 0.4088 0.0
C39 C 0.86896 0.7175 0.36851 0.0
O40 O 0.88258 0.74515 0.40533 0.0
O41 O 0.87201 0.71755 0.38161 0.0
C42 C 0.20918 0.88448 0.37935 0.0
O43 O 0.20542 0.8971 0.3819 0.0
Cd44 Cd 0.22149 0.91491 0.39056 0.0
O45 O 0.22222 0.88101 0.38033 0.0
Cd46 Cd 0.24606 0.89187 0.38503 0.0
C47 C 0.23589 0.89639 0.41884 0.0
O48 O 0.24134 0.91502 0.37495 0.0
O49 O 0.26041 0.9137 0.38747 0.0
O50 O 0.25313 0.87831 0.3645 0.0
C51 C 0.2524 0.92116 0.37977 0.0
O52 O 0.22814 0.90623 0.41397 0.0
C53 C 0.26494 0.87427 0.36951 0.0
O54 O 0.24334 0.88877 0.41059 0.0
O55 O 0.26794 0.87811 0.38208 0.0
C56 C 0.10167 0.77705 0.615 0.0
O57 O 0.08906 0.78083 0.61215 0.0
Cd58 Cd 0.07097 0.76548 0.60268 0.0
O59 O 0.10524 0.76413 0.61372 0.0
Cd60 Cd 0.09393 0.74093 0.60753 0.0
C61 C 0.08932 0.75218 0.57395 0.0
O62 O 0.0703 0.74503 0.61736 0.0
O63 O 0.07208 0.72681 0.60383 0.0
O64 O 0.10645 0.73058 0.62745 0.0
C65 C 0.06432 0.73428 0.61177 0.0
O66 O 0.07927 0.75968 0.57886 0.0
C67 C 0.11142 0.7202 0.62056 0.0
O68 O 0.09699 0.74478 0.58215 0.0
O69 O 0.10852 0.71962 0.60743 0.0
C70 C 0.27595 0.11815 0.60919 0.0
O71 O 0.28101 0.11544 0.59703 0.0
Cd72 Cd 0.26645 0.10584 0.57832 0.0
O73 O 0.26271 0.11637 0.61166 0.0
Cd74 Cd 0.24022 0.10926 0.59987 0.0
C75 C 0.25294 0.07625 0.59544 0.0
O76 O 0.24547 0.11994 0.57695 0.0
O77 O 0.22694 0.10617 0.57788 0.0
O78 O 0.23015 0.12896 0.61263 0.0
C79 C 0.23468 0.1146 0.57072 0.0
O80 O 0.26097 0.08164 0.58595 0.0
C81 C 0.21913 0.12236 0.61697 0.0
O82 O 0.24467 0.084 0.60272 0.0
O83 O 0.21798 0.10934 0.61363 0.0
C84 C 0.8882 0.21206 0.61245 0.0
O85 O 0.9005 0.20786 0.60896 0.0
Cd86 Cd 0.91849 0.2226 0.59841 0.0
O87 O 0.8849 0.22505 0.6112 0.0
Cd88 Cd 0.89638 0.24779 0.60408 0.0
C89 C 0.89923 0.23604 0.57038 0.0
O90 O 0.9203 0.2432 0.61293 0.0
O91 O 0.91825 0.26141 0.59943 0.0
O92 O 0.88536 0.25894 0.62448 0.0
C93 C 0.92617 0.25388 0.60714 0.0
O94 O 0.90929 0.22831 0.57488 0.0
C95 C 0.87998 0.26908 0.61759 0.0
O96 O 0.89216 0.24371 0.57889 0.0
O97 O 0.88195 0.26915 0.60429 0.0
C98 C 0.7134 0.87648 0.60983 0.0
O99 O 0.70889 0.87848 0.59732 0.0
Cd100 Cd 0.72415 0.88628 0.57853 0.0
O101 O 0.72664 0.87772 0.61267 0.0
Cd102 Cd 0.74982 0.88244 0.60094 0.0
C103 C 0.73896 0.91579 0.59515 0.0
O104 O 0.74403 0.87081 0.5786 0.0
O105 O 0.76332 0.88348 0.57883 0.0
O106 O 0.75754 0.86302 0.61557 0.0
C107 C 0.75506 0.87514 0.57209 0.0
O108 O 0.73085 0.91037 0.58569 0.0
C109 C 0.76954 0.86844 0.61887 0.0
O110 O 0.74677 0.908 0.60285 0.0
O111 O 0.77233 0.88076 0.61415 0.0
C112 C 0.38388 0.11439 0.27732 0.0
O113 O 0.39622 0.1107 0.28127 0.0
Cd114 Cd 0.41405 0.10233 0.26518 0.0
O115 O 0.38047 0.11409 0.26427 0.0
Cd116 Cd 0.39099 0.10839 0.24107 0.0
C117 C 0.39524 0.07429 0.25081 0.0
O118 O 0.4145 0.11859 0.24582 0.0
O119 O 0.41256 0.10622 0.2267 0.0
O120 O 0.37777 0.12851 0.23239 0.0
C121 C 0.42021 0.11415 0.23454 0.0
O122 O 0.40594 0.07863 0.258 0.0
C123 C 0.37312 0.12237 0.22131 0.0
O124 O 0.38728 0.08299 0.24437 0.0
O125 O 0.37648 0.1095 0.21958 0.0
C126 C 0.88136 0.37433 0.21075 0.0
O127 O 0.89333 0.37775 0.20539 0.0
Cd128 Cd 0.91299 0.38694 0.2191 0.0
O129 O 0.87934 0.37539 0.22405 0.0
Cd130 Cd 0.89232 0.38221 0.24587 0.0
C131 C 0.89726 0.41593 0.23457 0.0
O132 O 0.91533 0.37211 0.23945 0.0
O133 O 0.91496 0.38506 0.25827 0.0
O134 O 0.88003 0.36244 0.2572 0.0
C135 C 0.92201 0.37725 0.24999 0.0
O136 O 0.90648 0.41093 0.22609 0.0
C137 C 0.87573 0.36942 0.26783 0.0
O138 O 0.88981 0.40774 0.24241 0.0
O139 O 0.87897 0.38252 0.2682 0.0
C140 C 0.5994 0.87576 0.27931 0.0
O141 O 0.58688 0.87888 0.28322 0.0
Cd142 Cd 0.56862 0.88759 0.26796 0.0
O143 O 0.60297 0.87659 0.26631 0.0
Cd144 Cd 0.59183 0.88238 0.24324 0.0
C145 C 0.58653 0.9163 0.25336 0.0
O146 O 0.56813 0.8724 0.24785 0.0
O147 O 0.57025 0.88525 0.22914 0.0
O148 O 0.60371 0.86224 0.23264 0.0
C149 C 0.56236 0.87751 0.23688 0.0
O150 O 0.57649 0.91137 0.26107 0.0
C151 C 0.60916 0.86915 0.22242 0.0
O152 O 0.59451 0.90804 0.24633 0.0
O153 O 0.60692 0.88238 0.22215 0.0
C154 C 0.10334 0.61832 0.21194 0.0
O155 O 0.09108 0.61425 0.20778 0.0
Cd156 Cd 0.0733 0.60525 0.22393 0.0
O157 O 0.1066 0.61789 0.22502 0.0
Cd158 Cd 0.09623 0.61134 0.2481 0.0
C159 C 0.09173 0.57733 0.23779 0.0
O160 O 0.07263 0.62109 0.24381 0.0
O161 O 0.07489 0.6084 0.2626 0.0
O162 O 0.11024 0.63135 0.25682 0.0
C163 C 0.06711 0.61625 0.25508 0.0
O164 O 0.08106 0.58156 0.23069 0.0
C165 C 0.11458 0.62525 0.26794 0.0
O166 O 0.09982 0.5861 0.24432 0.0
O167 O 0.1106 0.61247 0.26977 0.0
C168 C 0.38053 0.86963 0.71077 0.0
O169 O 0.39276 0.87313 0.70609 0.0
Cd170 Cd 0.41111 0.88267 0.72125 0.0
O171 O 0.37774 0.87069 0.72393 0.0
Cd172 Cd 0.38902 0.87746 0.74663 0.0
C173 C 0.39327 0.91115 0.73523 0.0
O174 O 0.4124 0.86753 0.74158 0.0
O175 O 0.41079 0.88027 0.76048 0.0
O176 O 0.37512 0.8577 0.75593 0.0
C177 C 0.41834 0.87248 0.75264 0.0
O178 O 0.40314 0.9065 0.7273 0.0
C179 C 0.37109 0.86402 0.76707 0.0
O180 O 0.38589 0.90274 0.7429 0.0
O181 O 0.37523 0.87679 0.76867 0.0
C182 C 0.10036 0.37557 0.77637 0.0
O183 O 0.08798 0.37897 0.78047 0.0
Cd184 Cd 0.07058 0.3897 0.76563 0.0
O185 O 0.104 0.37702 0.76345 0.0
Cd186 Cd 0.09331 0.38437 0.74061 0.0
C187 C 0.09066 0.41793 0.75281 0.0
O188 O 0.06925 0.37534 0.7449 0.0
O189 O 0.0718 0.38898 0.7268 0.0
O190 O 0.10438 0.36395 0.72973 0.0
C191 C 0.06367 0.38114 0.7342 0.0
O192 O 0.0804 0.41327 0.7604 0.0
C193 C 0.11003 0.37075 0.71955 0.0
O194 O 0.09776 0.40957 0.745 0.0
O195 O 0.10821 0.38406 0.71935 0.0
C196 C 0.60519 0.1155 0.71317 0.0
O197 O 0.59311 0.11208 0.70804 0.0
Cd198 Cd 0.5738 0.10272 0.72214 0.0
O199 O 0.60755 0.11437 0.7264 0.0
Cd200 Cd 0.59533 0.1074 0.74852 0.0
C201 C 0.59012 0.07374 0.73694 0.0
O202 O 0.57199 0.11723 0.74284 0.0
O203 O 0.57323 0.10443 0.76166 0.0
O204 O 0.60791 0.12715 0.75966 0.0
C205 C 0.56574 0.11198 0.75356 0.0
O206 O 0.58067 0.07876 0.72874 0.0
C207 C 0.61264 0.12009 0.77004 0.0
O208 O 0.59774 0.0819 0.7447 0.0
O209 O 0.60947 0.10697 0.77034 0.0
C210 C 0.88241 0.61729 0.77873 0.0
O211 O 0.89492 0.61432 0.78279 0.0
Cd212 Cd 0.91274 0.60442 0.76793 0.0
O213 O 0.8788 0.61577 0.76579 0.0
Cd214 Cd 0.89 0.60877 0.74301 0.0
C215 C 0.89391 0.57542 0.75519 0.0
O216 O 0.91336 0.61919 0.74749 0.0
O217 O 0.91206 0.60517 0.72953 0.0
O218 O 0.87794 0.62835 0.73169 0.0
C219 C 0.91946 0.61378 0.73687 0.0
O220 O 0.90407 0.58035 0.76278 0.0
C221 C 0.87297 0.62108 0.72145 0.0
O222 O 0.88656 0.58356 0.74745 0.0
O223 O 0.87553 0.60791 0.72149 0.0
C224 C 0.21238 0.37019 0.10982 0.0
O225 O 0.20686 0.37258 0.0978 0.0
Cd226 Cd 0.22042 0.38211 0.07845 0.0
O227 O 0.22568 0.37227 0.11185 0.0
Cd228 Cd 0.24753 0.37963 0.09904 0.0
C229 C 0.23387 0.41224 0.09478 0.0
O230 O 0.24152 0.36828 0.07664 0.0
O231 O 0.25963 0.38259 0.07629 0.0
O232 O 0.25878 0.36062 0.11181 0.0
C233 C 0.2518 0.37372 0.06974 0.0
O234 O 0.22561 0.40658 0.0856 0.0
C235 C 0.26979 0.36768 0.11549 0.0
O236 O 0.24256 0.40476 0.10181 0.0
O237 O 0.27039 0.3806 0.11176 0.0
C238 C 0.2811 0.60323 0.88055 0.0
O239 O 0.2853 0.59081 0.88331 0.0
Cd240 Cd 0.2698 0.57243 0.8918 0.0
O241 O 0.26792 0.60622 0.88126 0.0
Cd242 Cd 0.24461 0.59439 0.88579 0.0
C243 C 0.25432 0.59045 0.91981 0.0
O244 O 0.25014 0.57126 0.87588 0.0
O245 O 0.23103 0.57226 0.88845 0.0
O246 O 0.23641 0.60672 0.86492 0.0
C247 C 0.23913 0.56499 0.88066 0.0
O248 O 0.26248 0.58081 0.91518 0.0
C249 C 0.22483 0.61091 0.87031 0.0
O250 O 0.24684 0.59775 0.91134 0.0
O251 O 0.22256 0.60777 0.88319 0.0
C252 C 0.38177 0.28135 0.87075 0.0
O253 O 0.39337 0.28687 0.87515 0.0
Cd254 Cd 0.41132 0.27299 0.88644 0.0
O255 O 0.37942 0.2681 0.87206 0.0
Cd256 Cd 0.39118 0.2466 0.88085 0.0
C257 C 0.3922 0.25922 0.91433 0.0
O258 O 0.41484 0.25251 0.87172 0.0
O259 O 0.41346 0.23439 0.88554 0.0
O260 O 0.37959 0.23527 0.86073 0.0
C261 C 0.42094 0.24201 0.87731 0.0
O262 O 0.40218 0.26746 0.91011 0.0
C263 C 0.37547 0.2243 0.86739 0.0
O264 O 0.38575 0.25102 0.90566 0.0
O265 O 0.37842 0.22378 0.8805 0.0
C266 C 0.71281 0.385 0.88019 0.0
O267 O 0.70851 0.39744 0.88267 0.0
Cd268 Cd 0.72389 0.41575 0.89159 0.0
O269 O 0.72598 0.38206 0.88132 0.0
Cd270 Cd 0.74937 0.39368 0.88617 0.0
C271 C 0.73866 0.39753 0.9199 0.0
O272 O 0.74391 0.41671 0.87619 0.0
O273 O 0.76302 0.41592 0.88872 0.0
O274 O 0.75667 0.38032 0.86564 0.0
C275 C 0.75476 0.42318 0.88108 0.0
O276 O 0.73059 0.40711 0.91502 0.0
C277 C 0.76858 0.37652 0.87059 0.0
O278 O 0.7465 0.3903 0.91168 0.0
O279 O 0.77161 0.38049 0.88312 0.0
C280 C 0.60715 0.71306 0.87145 0.0
O281 O 0.59517 0.70818 0.87554 0.0
Cd282 Cd 0.57756 0.72268 0.88659 0.0
O283 O 0.61022 0.72618 0.87287 0.0
Cd284 Cd 0.59935 0.74829 0.8816 0.0
C285 C 0.59694 0.73527 0.91494 0.0
O286 O 0.57551 0.7435 0.87221 0.0
O287 O 0.57767 0.76163 0.88602 0.0
O288 O 0.61143 0.75982 0.86189 0.0
C289 C 0.56985 0.75425 0.87783 0.0
O290 O 0.58668 0.72751 0.91043 0.0
C291 C 0.61638 0.77017 0.86905 0.0
O292 O 0.60388 0.7433 0.90652 0.0
O293 O 0.61366 0.77022 0.88222 0.0
C294 C 0.77504 0.61193 0.10964 0.0
O295 O 0.77902 0.60971 0.09699 0.0
Cd296 Cd 0.76307 0.60166 0.07893 0.0
O297 O 0.76192 0.61082 0.11302 0.0
Cd298 Cd 0.73833 0.60614 0.10183 0.0
C299 C 0.74862 0.57257 0.09631 0.0
O300 O 0.74367 0.61769 0.0795 0.0
O301 O 0.72456 0.60482 0.07972 0.0
O302 O 0.7308 0.6256 0.11663 0.0
C303 C 0.7326 0.61338 0.07305 0.0
O304 O 0.7565 0.57765 0.08652 0.0
C305 C 0.71884 0.62016 0.12001 0.0
O306 O 0.74116 0.58066 0.10405 0.0
O307 O 0.71601 0.60784 0.11526 0.0
C308 C 0.38366 0.70859 0.11371 0.0
O309 O 0.3959 0.70398 0.11051 0.0
Cd310 Cd 0.41513 0.71848 0.10163 0.0
O311 O 0.38102 0.72175 0.1128 0.0
Cd312 Cd 0.39344 0.74414 0.10658 0.0
C313 C 0.39857 0.73348 0.0728 0.0
O314 O 0.41698 0.73898 0.11636 0.0
O315 O 0.41549 0.75753 0.10321 0.0
O316 O 0.38197 0.75549 0.1266 0.0
C317 C 0.42311 0.74973 0.11095 0.0
O318 O 0.40815 0.72545 0.07776 0.0
C319 C 0.37688 0.76565 0.11951 0.0
O320 O 0.39082 0.74082 0.08102 0.0
O321 O 0.3792 0.76561 0.10626 0.0
C322 C 0.59954 0.27326 0.11083 0.0
O323 O 0.58677 0.27676 0.10832 0.0
Cd324 Cd 0.56861 0.26052 0.10051 0.0
O325 O 0.60325 0.26035 0.10996 0.0
Cd326 Cd 0.59252 0.23662 0.10523 0.0
C327 C 0.5858 0.24616 0.07149 0.0
O328 O 0.56947 0.24087 0.11619 0.0
O329 O 0.5709 0.22171 0.10399 0.0
O330 O 0.60735 0.22896 0.12476 0.0
C331 C 0.56341 0.22964 0.11174 0.0
O332 O 0.57582 0.25359 0.07665 0.0
C333 C 0.61153 0.21768 0.11884 0.0
O334 O 0.59419 0.23939 0.07955 0.0
O335 O 0.6071 0.21527 0.10634 0.0
C336 C 0.87021 0.70593 0.60196 0.0
O337 O 0.87377 0.70112 0.58991 0.0
Cd338 Cd 0.88425 0.71557 0.5717 0.0
O339 O 0.87161 0.71909 0.60478 0.0
Cd340 Cd 0.87906 0.74182 0.59381 0.0
C341 C 0.91282 0.72978 0.59039 0.0
O342 O 0.86942 0.73584 0.57069 0.0
O343 O 0.88068 0.75581 0.57188 0.0
O344 O 0.85943 0.75084 0.60772 0.0
C345 C 0.87378 0.74691 0.56442 0.0
O346 O 0.90803 0.72159 0.58071 0.0
C347 C 0.86576 0.76218 0.61157 0.0
O348 O 0.90452 0.73788 0.59723 0.0
O349 O 0.87848 0.76404 0.60731 0.0
C350 C 0.20746 0.88631 0.61049 0.0
O351 O 0.20316 0.89857 0.60723 0.0
Cd352 Cd 0.21819 0.91675 0.59756 0.0
O353 O 0.22061 0.88327 0.60953 0.0
Cd354 Cd 0.24368 0.8951 0.60357 0.0
C355 C 0.23299 0.89812 0.56966 0.0
O356 O 0.23824 0.9185 0.61296 0.0
O357 O 0.25714 0.91722 0.60014 0.0
O358 O 0.25306 0.88309 0.62419 0.0
C359 C 0.24911 0.9247 0.60781 0.0
O360 O 0.22489 0.90787 0.57417 0.0
C361 C 0.26436 0.87888 0.61823 0.0
O362 O 0.24065 0.89109 0.5782 0.0
O363 O 0.26594 0.88192 0.60522 0.0
C364 C 0.12068 0.28257 0.60182 0.0
O365 O 0.11758 0.28727 0.58963 0.0
Cd366 Cd 0.10734 0.27289 0.57112 0.0
O367 O 0.11904 0.26946 0.60468 0.0
Cd368 Cd 0.11152 0.24696 0.5932 0.0
C369 C 0.07804 0.25952 0.58886 0.0
O370 O 0.12154 0.25213 0.56994 0.0
O371 O 0.10912 0.23283 0.57151 0.0
O372 O 0.13077 0.23609 0.6063 0.0
C373 C 0.11659 0.24111 0.56392 0.0
O374 O 0.08313 0.26751 0.57919 0.0
C375 C 0.12334 0.22576 0.61096 0.0
O376 O 0.08611 0.25146 0.59597 0.0
O377 O 0.11024 0.22542 0.60756 0.0
C378 C 0.7803 0.10552 0.61412 0.0
O379 O 0.78447 0.0932 0.61088 0.0
Cd380 Cd 0.76945 0.07521 0.60095 0.0
O381 O 0.76719 0.10872 0.61305 0.0
Cd382 Cd 0.74409 0.09684 0.60699 0.0
C383 C 0.75481 0.09397 0.5731 0.0
O384 O 0.74943 0.07347 0.61627 0.0
O385 O 0.73085 0.07453 0.60302 0.0
O386 O 0.7345 0.10844 0.6278 0.0
C387 C 0.73877 0.06713 0.61085 0.0
O388 O 0.76289 0.08424 0.57764 0.0
C389 C 0.72314 0.11256 0.62191 0.0
O390 O 0.74707 0.10098 0.58161 0.0
O391 O 0.72168 0.10978 0.60881 0.0
C392 C 0.87993 0.2167 0.37897 0.0
O393 O 0.89278 0.21318 0.38098 0.0
Cd394 Cd 0.91092 0.2289 0.38939 0.0
O395 O 0.87613 0.22952 0.38061 0.0
Cd396 Cd 0.88735 0.25302 0.38616 0.0
C397 C 0.89392 0.24167 0.41929 0.0
O398 O 0.90978 0.24891 0.37426 0.0
O399 O 0.90968 0.26714 0.3879 0.0
O400 O 0.87335 0.26199 0.36668 0.0
C401 C 0.91637 0.25969 0.37901 0.0
O402 O 0.90369 0.23435 0.41362 0.0
C403 C 0.86923 0.27309 0.37296 0.0
O404 O 0.88572 0.24919 0.41172 0.0
O405 O 0.87309 0.27467 0.38578 0.0
C406 C 0.70705 0.8721 0.38552 0.0
O407 O 0.70333 0.8749 0.39813 0.0
Cd408 Cd 0.71936 0.88373 0.41584 0.0
O409 O 0.72009 0.8731 0.38182 0.0
Cd410 Cd 0.74366 0.87863 0.39264 0.0
C411 C 0.7333 0.91237 0.39755 0.0
O412 O 0.73912 0.86809 0.41576 0.0
O413 O 0.75811 0.88107 0.41412 0.0
O414 O 0.75249 0.85876 0.37902 0.0
C415 C 0.7504 0.87284 0.42154 0.0
O416 O 0.72566 0.9076 0.40766 0.0
C417 C 0.76375 0.86503 0.37477 0.0
O418 O 0.74055 0.90404 0.38986 0.0
O419 O 0.76546 0.8779 0.37845 0.0
C420 C 0.10249 0.77554 0.38319 0.0
O421 O 0.08965 0.77888 0.38551 0.0
Cd422 Cd 0.07216 0.76213 0.39341 0.0
O423 O 0.10638 0.7627 0.38429 0.0
Cd424 Cd 0.09616 0.73876 0.38908 0.0
C425 C 0.08979 0.74879 0.42265 0.0
O426 O 0.07354 0.74271 0.3773 0.0
O427 O 0.07447 0.72372 0.38978 0.0
O428 O 0.11162 0.73229 0.36971 0.0
C429 C 0.06744 0.7314 0.38138 0.0
O430 O 0.07978 0.75607 0.41737 0.0
C431 C 0.11556 0.72061 0.3749 0.0
O432 O 0.09805 0.74172 0.41471 0.0
O433 O 0.11074 0.71738 0.38706 0.0
C434 C 0.27751 0.11353 0.38383 0.0
O435 O 0.2817 0.11077 0.39629 0.0
Cd436 Cd 0.26628 0.10172 0.41435 0.0
O437 O 0.26441 0.11208 0.38046 0.0
Cd438 Cd 0.24127 0.1054 0.3914 0.0
C439 C 0.25323 0.07223 0.39662 0.0
O440 O 0.24597 0.11669 0.41412 0.0
O441 O 0.22722 0.10329 0.41316 0.0
O442 O 0.23174 0.12451 0.37727 0.0
C443 C 0.23492 0.11188 0.42022 0.0
O444 O 0.26083 0.07752 0.40654 0.0
C445 C 0.22053 0.11786 0.37344 0.0
O446 O 0.24547 0.08008 0.38894 0.0
O447 O 0.21914 0.10513 0.3776 0.0
C448 C 0.60764 0.88239 0.71765 0.0
O449 O 0.59501 0.88431 0.71332 0.0
Cd450 Cd 0.576 0.89132 0.72847 0.0
O451 O 0.61071 0.88366 0.73074 0.0
Cd452 Cd 0.59874 0.88853 0.75364 0.0
C453 C 0.59105 0.92167 0.74303 0.0
O454 O 0.5767 0.87576 0.74827 0.0
O455 O 0.57631 0.88854 0.76714 0.0
O456 O 0.61319 0.86953 0.76265 0.0
C457 C 0.5699 0.87979 0.75909 0.0
O458 O 0.58171 0.91571 0.73514 0.0
C459 C 0.61713 0.87582 0.77389 0.0
O460 O 0.59946 0.91431 0.75053 0.0
O461 O 0.61286 0.88842 0.77563 0.0
C462 C 0.11101 0.61113 0.77525 0.0
O463 O 0.09888 0.608 0.78039 0.0
Cd464 Cd 0.07987 0.59833 0.76636 0.0
O465 O 0.11342 0.60959 0.76206 0.0
Cd466 Cd 0.101 0.60238 0.73992 0.0
C467 C 0.0966 0.56907 0.75223 0.0
O468 O 0.07848 0.61318 0.74598 0.0
O469 O 0.07808 0.59964 0.72758 0.0
O470 O 0.11369 0.6224 0.72981 0.0
C471 C 0.07154 0.60818 0.73556 0.0
O472 O 0.08729 0.57434 0.76043 0.0
C473 C 0.11752 0.61621 0.71854 0.0
O474 O 0.10388 0.57696 0.74394 0.0
O475 O 0.11399 0.60322 0.71726 0.0
C476 C 0.37084 0.10223 0.78417 0.0
O477 O 0.37491 0.09081 0.78988 0.0
Cd478 Cd 0.38643 0.07266 0.77637 0.0
O479 O 0.37227 0.10412 0.7709 0.0
Cd480 Cd 0.38048 0.09199 0.74933 0.0
C481 C 0.41415 0.09227 0.76188 0.0
O482 O 0.37239 0.06804 0.75557 0.0
O483 O 0.38597 0.07001 0.73723 0.0
O484 O 0.35946 0.10203 0.73863 0.0
C485 C 0.37848 0.0621 0.74519 0.0
O486 O 0.40984 0.08269 0.7704 0.0
C487 C 0.36568 0.10658 0.72758 0.0
O488 O 0.40552 0.09814 0.75338 0.0
O489 O 0.37899 0.10449 0.72663 0.0
C490 C 0.86957 0.38699 0.70517 0.0
O491 O 0.87271 0.39928 0.70058 0.0
Cd492 Cd 0.88359 0.41717 0.71526 0.0
O493 O 0.8713 0.38399 0.7182 0.0
Cd494 Cd 0.87871 0.39506 0.74087 0.0
C495 C 0.91214 0.39817 0.72806 0.0
O496 O 0.86957 0.41872 0.73631 0.0
O497 O 0.88328 0.41659 0.75448 0.0
O498 O 0.85839 0.38226 0.75055 0.0
C499 C 0.87549 0.42447 0.74699 0.0
O500 O 0.90737 0.40811 0.72036 0.0
C501 C 0.8647 0.37797 0.7616 0.0
O502 O 0.90387 0.39108 0.73615 0.0
O503 O 0.87776 0.38142 0.76297 0.0
C504 C 0.60834 0.10822 0.27436 0.0
O505 O 0.59575 0.10578 0.27873 0.0
Cd506 Cd 0.57686 0.09828 0.26324 0.0
O507 O 0.61135 0.10705 0.26126 0.0
Cd508 Cd 0.59996 0.10161 0.23816 0.0
C509 C 0.59197 0.06831 0.24862 0.0
O510 O 0.57785 0.11382 0.24336 0.0
O511 O 0.57798 0.10134 0.22424 0.0
O512 O 0.61554 0.12063 0.23018 0.0
C513 C 0.57137 0.10976 0.23227 0.0
O514 O 0.58259 0.07407 0.2564 0.0
C515 C 0.61877 0.115 0.21843 0.0
O516 O 0.60057 0.07585 0.24128 0.0
O517 O 0.61363 0.10272 0.21594 0.0
C518 C 0.88081 0.60752 0.2181 0.0
O519 O 0.89373 0.60592 0.21454 0.0
Cd520 Cd 0.91191 0.59874 0.23053 0.0
O521 O 0.87694 0.60589 0.23094 0.0
Cd522 Cd 0.88765 0.60079 0.25444 0.0
C523 C 0.89624 0.56796 0.24345 0.0
O524 O 0.90971 0.61393 0.25053 0.0
O525 O 0.90944 0.60081 0.2691 0.0
O526 O 0.87239 0.61936 0.2631 0.0
C527 C 0.91607 0.60981 0.26156 0.0
O528 O 0.90594 0.57415 0.23622 0.0
C529 C 0.86806 0.61279 0.27401 0.0
O530 O 0.88741 0.57511 0.25069 0.0
O531 O 0.87249 0.60024 0.27568 0.0
C532 C 0.36924 0.88506 0.20513 0.0
O533 O 0.37303 0.89706 0.20025 0.0
Cd534 Cd 0.38353 0.91551 0.21448 0.0
O535 O 0.37024 0.88243 0.21833 0.0
Cd536 Cd 0.37705 0.89388 0.24104 0.0
C537 C 0.41118 0.89668 0.22943 0.0
O538 O 0.36837 0.91705 0.2346 0.0
O539 O 0.3793 0.91609 0.2546 0.0
O540 O 0.35656 0.88085 0.25011 0.0
C541 C 0.37282 0.92349 0.24555 0.0
O542 O 0.40681 0.90624 0.22103 0.0
C543 C 0.36246 0.87698 0.26154 0.0
O544 O 0.40253 0.89008 0.23755 0.0
O545 O 0.37538 0.88076 0.26339 0.0
C546 C 0.11513 0.38604 0.28445 0.0
O547 O 0.11039 0.39717 0.29026 0.0
Cd548 Cd 0.0994 0.41575 0.27686 0.0
O549 O 0.11459 0.38449 0.27107 0.0
Cd550 Cd 0.10732 0.39684 0.24933 0.0
C551 C 0.07282 0.39634 0.26015 0.0
O552 O 0.11479 0.42046 0.25715 0.0
O553 O 0.104 0.41915 0.23698 0.0
O554 O 0.12871 0.38662 0.23949 0.0
C555 C 0.11016 0.42676 0.24627 0.0
O556 O 0.0765 0.40566 0.26927 0.0
C557 C 0.12289 0.38218 0.22815 0.0
O558 O 0.08201 0.39089 0.25193 0.0
O559 O 0.10965 0.38442 0.22668 0.0
C560 C 0.77677 0.61565 0.88586 0.0
O561 O 0.78087 0.61326 0.89844 0.0
Cd562 Cd 0.76547 0.60379 0.91622 0.0
O563 O 0.76375 0.61382 0.88237 0.0
Cd564 Cd 0.74051 0.60731 0.89335 0.0
C565 C 0.75261 0.57424 0.89823 0.0
O566 O 0.74517 0.6187 0.91596 0.0
O567 O 0.72667 0.60495 0.91536 0.0
O568 O 0.73166 0.62673 0.87932 0.0
C569 C 0.73429 0.61376 0.92225 0.0
O570 O 0.76023 0.57961 0.90809 0.0
C571 C 0.72023 0.62052 0.87543 0.0
O572 O 0.74468 0.58201 0.89064 0.0
O573 O 0.71834 0.60783 0.87956 0.0
C574 C 0.70592 0.38269 0.11035 0.0
O575 O 0.70173 0.39502 0.10724 0.0
Cd576 Cd 0.71688 0.41351 0.09854 0.0
O577 O 0.71912 0.37967 0.10975 0.0
Cd578 Cd 0.74228 0.39188 0.1048 0.0
C579 C 0.73265 0.39563 0.07067 0.0
O580 O 0.73635 0.41492 0.11462 0.0
O581 O 0.75534 0.41437 0.10189 0.0
O582 O 0.75153 0.38 0.12557 0.0
C583 C 0.74715 0.42145 0.10977 0.0
O584 O 0.72439 0.40523 0.0752 0.0
C585 C 0.76303 0.37606 0.11982 0.0
O586 O 0.74008 0.3884 0.07924 0.0
O587 O 0.7647 0.37905 0.10681 0.0
C588 C 0.61696 0.78215 0.10388 0.0
O589 O 0.61372 0.78693 0.09176 0.0
Cd590 Cd 0.60334 0.77223 0.07366 0.0
O591 O 0.61548 0.769 0.10661 0.0
Cd592 Cd 0.60848 0.74634 0.09507 0.0
C593 C 0.57478 0.75798 0.09223 0.0
O594 O 0.61824 0.75195 0.07178 0.0
O595 O 0.60509 0.73311 0.07299 0.0
O596 O 0.62847 0.73716 0.10829 0.0
C597 C 0.61294 0.74119 0.06556 0.0
O598 O 0.57947 0.76614 0.0825 0.0
C599 C 0.62221 0.72584 0.11225 0.0
O600 O 0.58318 0.75001 0.09905 0.0
O601 O 0.60938 0.724 0.10828 0.0
C602 C 0.27564 0.60262 0.11203 0.0
O603 O 0.28026 0.59044 0.10888 0.0
Cd604 Cd 0.26573 0.57185 0.09911 0.0
O605 O 0.26244 0.60536 0.11079 0.0
Cd606 Cd 0.23968 0.59329 0.1042 0.0
C607 C 0.25147 0.58998 0.07066 0.0
O608 O 0.24524 0.57009 0.11388 0.0
O609 O 0.22656 0.57099 0.10069 0.0
O610 O 0.22981 0.60561 0.12441 0.0
C611 C 0.23457 0.56369 0.10852 0.0
O612 O 0.25954 0.58039 0.07552 0.0
C613 C 0.2185 0.60945 0.11822 0.0
O614 O 0.24346 0.59703 0.07888 0.0
O615 O 0.21713 0.60607 0.10526 0.0
C616 C 0.36732 0.2094 0.10401 0.0
O617 O 0.37065 0.20373 0.09229 0.0
Cd618 Cd 0.38268 0.21674 0.07392 0.0
O619 O 0.36985 0.22251 0.10621 0.0
Cd620 Cd 0.37968 0.24375 0.09425 0.0
C621 C 0.4121 0.22861 0.09264 0.0
O622 O 0.37005 0.23844 0.07076 0.0
O623 O 0.38501 0.25595 0.0721 0.0
O624 O 0.36039 0.25596 0.10589 0.0
C625 C 0.37654 0.24854 0.06458 0.0
O626 O 0.40686 0.22063 0.083 0.0
C627 C 0.36792 0.2663 0.11038 0.0
O628 O 0.40437 0.23759 0.09901 0.0
O629 O 0.38113 0.26617 0.10746 0.0
C630 C 0.20719 0.37309 0.88216 0.0
O631 O 0.20324 0.37608 0.89466 0.0
Cd632 Cd 0.21884 0.38531 0.91246 0.0
O633 O 0.22026 0.37428 0.8786 0.0
Cd634 Cd 0.24356 0.38049 0.8897 0.0
C635 C 0.23263 0.41409 0.89433 0.0
O636 O 0.23852 0.36956 0.9124 0.0
O637 O 0.25739 0.38276 0.91177 0.0
O638 O 0.253 0.36105 0.87586 0.0
C639 C 0.24954 0.37423 0.91868 0.0
O640 O 0.22487 0.40931 0.90436 0.0
C641 C 0.26423 0.3676 0.87198 0.0
O642 O 0.24009 0.40578 0.88684 0.0
O643 O 0.26567 0.38038 0.87602 0.0
C644 C 0.60863 0.27328 0.88118 0.0
O645 O 0.59574 0.27675 0.88301 0.0
Cd646 Cd 0.57699 0.26076 0.88929 0.0
O647 O 0.61233 0.26037 0.88216 0.0
Cd648 Cd 0.60077 0.23678 0.88626 0.0
C649 C 0.59161 0.24615 0.91947 0.0
O650 O 0.57918 0.24154 0.8732 0.0
O651 O 0.57825 0.22279 0.88599 0.0
O652 O 0.61574 0.22794 0.8674 0.0
C653 C 0.57219 0.23067 0.87704 0.0
O654 O 0.58211 0.25366 0.9136 0.0
C655 C 0.61954 0.21681 0.87379 0.0
O656 O 0.60058 0.23939 0.91203 0.0
O657 O 0.61504 0.21516 0.88637 0.0
C658 C 0.38463 0.71553 0.88257 0.0
O659 O 0.39765 0.71252 0.88437 0.0
Cd660 Cd 0.41537 0.72956 0.89115 0.0
O661 O 0.38047 0.72828 0.88369 0.0
Cd662 Cd 0.39041 0.75248 0.88791 0.0
C663 C 0.39908 0.74313 0.92115 0.0
O664 O 0.4125 0.74876 0.87521 0.0
O665 O 0.41186 0.76791 0.88751 0.0
O666 O 0.37396 0.75864 0.86924 0.0
C667 C 0.41868 0.76016 0.87898 0.0
O668 O 0.40899 0.73609 0.91535 0.0
C669 C 0.37017 0.77032 0.87458 0.0
O670 O 0.39006 0.74975 0.91365 0.0
O671 O 0.37547 0.77364 0.88654 0.0
C672 C 0.11931 0.37471 0.30809 0.0
C673 C 0.12053 0.37432 0.29326 0.0
C674 C 0.12286 0.3629 0.31619 0.0
C675 C 0.12352 0.32452 0.31255 0.0
H676 H 0.14043 0.32548 0.35001 0.0
C677 C 0.12438 0.2742 0.34565 0.0
C678 C 0.1197 0.27578 0.35967 0.0
C679 C 0.12851 0.28602 0.33774 0.0
C680 C 0.13566 0.32505 0.33957 0.0
H681 H 0.12739 0.3616 0.2754 0.0
H682 H 0.13362 0.34109 0.28955 0.0
H683 H 0.14018 0.34704 0.33569 0.0
H684 H 0.11655 0.29082 0.37672 0.0
H685 H 0.12331 0.31151 0.36279 0.0
H686 H 0.11836 0.30285 0.31651 0.0
C687 C 0.12969 0.35042 0.29488 0.0
C688 C 0.13554 0.33738 0.33138 0.0
C689 C 0.12613 0.36219 0.28679 0.0
C690 C 0.12011 0.28929 0.36592 0.0
C691 C 0.12406 0.30115 0.35794 0.0
C692 C 0.12356 0.31226 0.32073 0.0
C693 C 0.12771 0.3505 0.30962 0.0
C694 C 0.12928 0.33727 0.31786 0.0
C695 C 0.12783 0.2997 0.3436 0.0
C696 C 0.12943 0.3124 0.33443 0.0
H697 H 0.11508 0.38391 0.3134 0.0
H698 H 0.12112 0.36324 0.32752 0.0
H699 H 0.11837 0.32413 0.30229 0.0
H700 H 0.12436 0.26387 0.34062 0.0
H701 H 0.13172 0.28448 0.32684 0.0
C702 C 0.69578 0.11372 0.36836 0.0
C703 C 0.71004 0.11389 0.36385 0.0
C704 C 0.68484 0.11677 0.35883 0.0
C705 C 0.67825 0.11414 0.32073 0.0
H706 H 0.64222 0.13156 0.32979 0.0
C707 C 0.63333 0.11613 0.27972 0.0
C708 C 0.6197 0.11218 0.28456 0.0
C709 C 0.6443 0.11908 0.28931 0.0
C710 C 0.65222 0.12662 0.32714 0.0
H711 H 0.72415 0.11865 0.34627 0.0
H712 H 0.70513 0.12428 0.32977 0.0
H713 H 0.66172 0.13249 0.347 0.0
H714 H 0.60677 0.10869 0.30331 0.0
H715 H 0.62601 0.11355 0.32004 0.0
H716 H 0.66876 0.10791 0.30111 0.0
C717 C 0.70233 0.12139 0.34052 0.0
C718 C 0.66338 0.12717 0.33698 0.0
C719 C 0.71324 0.11823 0.34999 0.0
C720 C 0.61716 0.11167 0.29922 0.0
C721 C 0.62816 0.11457 0.30882 0.0
C722 C 0.66715 0.11359 0.31094 0.0
C723 C 0.68799 0.12014 0.34466 0.0
C724 C 0.67647 0.12081 0.33392 0.0
C725 C 0.64192 0.11807 0.30396 0.0
C726 C 0.65395 0.11968 0.31407 0.0
H727 H 0.693 0.11042 0.37899 0.0
H728 H 0.6739 0.11565 0.36235 0.0
H729 H 0.68807 0.10884 0.31814 0.0
H730 H 0.63561 0.11679 0.26849 0.0
H731 H 0.65472 0.12199 0.28523 0.0
C732 C 0.85699 0.70648 0.34753 0.0
C733 C 0.86102 0.70563 0.36182 0.0
C734 C 0.85143 0.69462 0.34051 0.0
C735 C 0.85536 0.6566 0.34129 0.0
H736 H 0.82945 0.6581 0.30935 0.0
C737 C 0.85769 0.61409 0.29843 0.0
C738 C 0.85961 0.62008 0.28495 0.0
C739 C 0.85226 0.62222 0.30954 0.0
C740 C 0.83663 0.65746 0.3183 0.0
H741 H 0.86144 0.69199 0.38025 0.0
H742 H 0.85179 0.67117 0.36791 0.0
H743 H 0.83008 0.6775 0.32651 0.0
H744 H 0.85612 0.63879 0.2722 0.0
H745 H 0.84691 0.65295 0.29147 0.0
H746 H 0.86265 0.6371 0.33266 0.0
C747 C 0.85302 0.68101 0.36214 0.0
C748 C 0.83698 0.66855 0.32812 0.0
C749 C 0.85851 0.69293 0.3692 0.0
C750 C 0.85489 0.63391 0.2825 0.0
C751 C 0.84946 0.642 0.29357 0.0
C752 C 0.85506 0.64554 0.33146 0.0
C753 C 0.84982 0.68162 0.34761 0.0
C754 C 0.84681 0.66853 0.33935 0.0
C755 C 0.84863 0.63646 0.30735 0.0
C756 C 0.84617 0.64616 0.31949 0.0
H757 H 0.8587 0.71615 0.34158 0.0
H758 H 0.84923 0.69543 0.32929 0.0
H759 H 0.86314 0.65629 0.34975 0.0
H760 H 0.86113 0.60342 0.30061 0.0
H761 H 0.85155 0.61758 0.32 0.0
C762 C 0.34104 0.86312 0.26925 0.0
C763 C 0.35419 0.86954 0.27261 0.0
C764 C 0.33206 0.85813 0.27996 0.0
C765 C 0.329 0.85192 0.31894 0.0
H766 H 0.29077 0.86557 0.31261 0.0
C767 C 0.2899 0.86771 0.36327 0.0
C768 C 0.27522 0.86682 0.36044 0.0
C769 C 0.29975 0.86337 0.35309 0.0
C770 C 0.30126 0.86134 0.31451 0.0
H771 H 0.36874 0.87489 0.2897 0.0
H772 H 0.35285 0.86664 0.30846 0.0
H773 H 0.30784 0.86635 0.29353 0.0
H774 H 0.25928 0.85927 0.34552 0.0
H775 H 0.2764 0.85128 0.32797 0.0
H776 H 0.32239 0.84755 0.34025 0.0
C777 C 0.34955 0.8652 0.29756 0.0
C778 C 0.31111 0.86179 0.30351 0.0
C779 C 0.35863 0.87001 0.28681 0.0
C780 C 0.27054 0.86029 0.34787 0.0
C781 C 0.28036 0.85578 0.3378 0.0
C782 C 0.31909 0.85149 0.33003 0.0
C783 C 0.33593 0.85969 0.29428 0.0
C784 C 0.32517 0.85734 0.30562 0.0
C785 C 0.29505 0.85793 0.33998 0.0
C786 C 0.30517 0.85644 0.32799 0.0
H787 H 0.33744 0.86241 0.25837 0.0
H788 H 0.3218 0.85361 0.27704 0.0
H789 H 0.33971 0.84828 0.32088 0.0
H790 H 0.29379 0.87269 0.3729 0.0
H791 H 0.31098 0.86523 0.3551 0.0
C792 C 0.12585 0.61835 0.69339 0.0
C793 C 0.1245 0.62424 0.70699 0.0
C794 C 0.13016 0.62684 0.68199 0.0
C795 C 0.1442 0.66291 0.67259 0.0
H796 H 0.11706 0.65974 0.64175 0.0
C797 C 0.12305 0.71027 0.64207 0.0
C798 C 0.11919 0.70878 0.62777 0.0
C799 C 0.12853 0.69884 0.64954 0.0
C800 C 0.12499 0.66062 0.65006 0.0
H801 H 0.1277 0.64328 0.71955 0.0
H802 H 0.13497 0.65804 0.6998 0.0
H803 H 0.11833 0.64094 0.65918 0.0
H804 H 0.11887 0.6944 0.60983 0.0
H805 H 0.12836 0.67433 0.62296 0.0
H806 H 0.15018 0.68306 0.66388 0.0
C807 C 0.13284 0.6469 0.69783 0.0
C808 C 0.12574 0.6498 0.66008 0.0
C809 C 0.12853 0.63845 0.70917 0.0
C810 C 0.12169 0.69585 0.62087 0.0
C811 C 0.12708 0.68435 0.62838 0.0
C812 C 0.14341 0.67376 0.6626 0.0
C813 C 0.13323 0.64134 0.68402 0.0
C814 C 0.13493 0.6511 0.67179 0.0
C815 C 0.13019 0.68563 0.64289 0.0
C816 C 0.13338 0.67297 0.65156 0.0
H817 H 0.1229 0.6074 0.69141 0.0
H818 H 0.13054 0.62219 0.67151 0.0
H819 H 0.15161 0.66409 0.68133 0.0
H820 H 0.12132 0.72013 0.64767 0.0
H821 H 0.13066 0.70013 0.66074 0.0
C822 C 0.27989 0.12642 0.63406 0.0
C823 C 0.28557 0.12242 0.6209 0.0
C824 C 0.2888 0.12868 0.64569 0.0
C825 C 0.32644 0.1331 0.65719 0.0
H826 H 0.31302 0.11263 0.69025 0.0
C827 C 0.36321 0.11412 0.70231 0.0
C828 C 0.35752 0.11314 0.71603 0.0
C829 C 0.3547 0.1185 0.69102 0.0
C830 C 0.31685 0.11868 0.68126 0.0
H831 H 0.30515 0.11851 0.60943 0.0
H832 H 0.32071 0.12221 0.62984 0.0
H833 H 0.2976 0.11472 0.66982 0.0
H834 H 0.33887 0.11705 0.72892 0.0
H835 H 0.32417 0.12504 0.70935 0.0
H836 H 0.34589 0.13672 0.66864 0.0
C837 C 0.30936 0.12374 0.63111 0.0
C838 C 0.30798 0.11987 0.66951 0.0
C839 C 0.30043 0.12153 0.61943 0.0
C840 C 0.34348 0.11749 0.71841 0.0
C841 C 0.33504 0.12201 0.70719 0.0
C842 C 0.33534 0.13195 0.66902 0.0
C843 C 0.30359 0.12691 0.64446 0.0
C844 C 0.31272 0.12693 0.65728 0.0
C845 C 0.34039 0.1221 0.69328 0.0
C846 C 0.33069 0.12457 0.68113 0.0
H847 H 0.26849 0.1274 0.63551 0.0
H848 H 0.28407 0.13138 0.65578 0.0
H849 H 0.33033 0.1387 0.64795 0.0
H850 H 0.37401 0.11084 0.70017 0.0
H851 H 0.35914 0.11834 0.68044 0.0
C852 C 0.86901 0.2931 0.61747 0.0
C853 C 0.87278 0.28083 0.6249 0.0
C854 C 0.86407 0.30497 0.62474 0.0
C855 C 0.85094 0.31766 0.65957 0.0
H856 H 0.87259 0.35166 0.65029 0.0
C857 C 0.86303 0.36175 0.69985 0.0
C858 C 0.86478 0.37579 0.69519 0.0
C859 C 0.86016 0.35086 0.69021 0.0
C860 C 0.86616 0.3424 0.65286 0.0
H861 H 0.87343 0.27103 0.64563 0.0
H862 H 0.86489 0.29171 0.6583 0.0
H863 H 0.87411 0.33102 0.63503 0.0
H864 H 0.86394 0.38953 0.67683 0.0
H865 H 0.85871 0.37052 0.66001 0.0
H866 H 0.84336 0.32895 0.67768 0.0
C867 C 0.86568 0.29218 0.64687 0.0
C868 C 0.86705 0.33054 0.64409 0.0
C869 C 0.87068 0.28035 0.63962 0.0
C870 C 0.86281 0.3788 0.68076 0.0
C871 C 0.85987 0.3679 0.67111 0.0
C872 C 0.85 0.32957 0.66832 0.0
C873 C 0.86271 0.30475 0.63956 0.0
C874 C 0.85978 0.31791 0.64757 0.0
C875 C 0.85888 0.35376 0.67567 0.0
C876 C 0.85794 0.34194 0.66529 0.0
H877 H 0.87043 0.29376 0.60611 0.0
H878 H 0.86171 0.31446 0.61882 0.0
H879 H 0.84506 0.30813 0.6624 0.0
H880 H 0.86444 0.35905 0.7109 0.0
H881 H 0.85964 0.34008 0.69409 0.0
C882 C 0.7079 0.87189 0.63538 0.0
C883 C 0.70314 0.87345 0.62135 0.0
C884 C 0.69813 0.87028 0.64643 0.0
C885 C 0.66031 0.86189 0.65444 0.0
H886 H 0.66688 0.88617 0.68703 0.0
C887 C 0.61572 0.87768 0.69284 0.0
C888 C 0.61893 0.87889 0.70734 0.0
C889 C 0.62644 0.87496 0.68302 0.0
C890 C 0.66499 0.87913 0.67814 0.0
H891 H 0.6844 0.87397 0.60789 0.0
H892 H 0.6674 0.8713 0.62717 0.0
H893 H 0.68491 0.8848 0.6686 0.0
H894 H 0.6359 0.87781 0.72291 0.0
H895 H 0.65461 0.87298 0.70573 0.0
H896 H 0.64022 0.85648 0.66386 0.0
C897 C 0.67868 0.8712 0.62962 0.0
C898 C 0.67533 0.87834 0.66757 0.0
C899 C 0.68843 0.87282 0.61857 0.0
C900 C 0.63307 0.87702 0.71182 0.0
C901 C 0.6438 0.87431 0.70197 0.0
C902 C 0.64996 0.86267 0.66502 0.0
C903 C 0.68342 0.87016 0.64369 0.0
C904 C 0.67301 0.86989 0.65549 0.0
C905 C 0.64062 0.87338 0.68746 0.0
C906 C 0.65209 0.87149 0.67686 0.0
H907 H 0.71916 0.87223 0.63789 0.0
H908 H 0.70211 0.86931 0.65714 0.0
H909 H 0.65831 0.85512 0.64536 0.0
H910 H 0.60494 0.87906 0.68902 0.0
H911 H 0.62366 0.87451 0.67189 0.0
C912 C 0.35931 0.12212 0.28372 0.0
C913 C 0.37311 0.11839 0.28798 0.0
C914 C 0.34876 0.1247 0.29376 0.0
C915 C 0.34253 0.13193 0.33178 0.0
H916 H 0.30672 0.11207 0.32497 0.0
C917 C 0.30269 0.11781 0.37604 0.0
C918 C 0.28804 0.11777 0.37293 0.0
C919 C 0.31271 0.12056 0.36545 0.0
C920 C 0.31653 0.11793 0.32694 0.0
H921 H 0.38681 0.11504 0.30616 0.0
H922 H 0.36833 0.1194 0.32368 0.0
H923 H 0.32502 0.11219 0.30678 0.0
H924 H 0.27241 0.12129 0.35641 0.0
H925 H 0.28991 0.12625 0.33797 0.0
H926 H 0.33411 0.13739 0.3521 0.0
C927 C 0.36572 0.12045 0.31256 0.0
C928 C 0.32703 0.11798 0.31651 0.0
C929 C 0.37628 0.11785 0.30251 0.0
C930 C 0.28362 0.12111 0.35913 0.0
C931 C 0.29364 0.1239 0.34855 0.0
C932 C 0.33199 0.1319 0.34222 0.0
C933 C 0.35178 0.12362 0.30828 0.0
C934 C 0.34023 0.12478 0.31889 0.0
C935 C 0.3083 0.12337 0.35152 0.0
C936 C 0.31896 0.1247 0.34 0.0
H937 H 0.35653 0.12275 0.27261 0.0
H938 H 0.33816 0.12733 0.29016 0.0
H939 H 0.35254 0.13741 0.33384 0.0
H940 H 0.30647 0.1153 0.38656 0.0
H941 H 0.32392 0.1199 0.36806 0.0
C942 C 0.85759 0.28193 0.35102 0.0
C943 C 0.86178 0.28431 0.36511 0.0
C944 C 0.85322 0.29314 0.34256 0.0
C945 C 0.86091 0.33082 0.33919 0.0
H946 H 0.83653 0.32678 0.30623 0.0
C947 C 0.866 0.3694 0.29255 0.0
C948 C 0.86814 0.36234 0.27963 0.0
C949 C 0.86052 0.36207 0.30425 0.0
C950 C 0.8433 0.32813 0.31544 0.0
H951 H 0.86347 0.30008 0.38178 0.0
H952 H 0.85572 0.31973 0.36697 0.0
H953 H 0.83468 0.30955 0.32542 0.0
H954 H 0.86537 0.34235 0.26855 0.0
H955 H 0.85593 0.32959 0.28888 0.0
H956 H 0.87003 0.34895 0.32895 0.0
C957 C 0.85604 0.3092 0.36242 0.0
C958 C 0.84224 0.31827 0.32642 0.0
C959 C 0.8604 0.29794 0.37092 0.0
C960 C 0.86392 0.34807 0.27839 0.0
C961 C 0.85838 0.34078 0.29002 0.0
C962 C 0.86193 0.34069 0.32825 0.0
C963 C 0.85294 0.30701 0.348 0.0
C964 C 0.85148 0.31915 0.33813 0.0
C965 C 0.85699 0.34759 0.30319 0.0
C966 C 0.85356 0.3391 0.31599 0.0
H967 H 0.85844 0.27152 0.34627 0.0
H968 H 0.85105 0.29106 0.33149 0.0
H969 H 0.8683 0.33177 0.34797 0.0
H970 H 0.86909 0.38043 0.29381 0.0
H971 H 0.85946 0.36762 0.31423 0.0
C972 C 0.6995 0.86761 0.36041 0.0
C973 C 0.69601 0.86852 0.37486 0.0
C974 C 0.68881 0.86575 0.35023 0.0
C975 C 0.65084 0.87282 0.34537 0.0
H976 H 0.6549 0.85057 0.31109 0.0
C977 C 0.606 0.86993 0.30427 0.0
C978 C 0.61007 0.87178 0.29007 0.0
C979 C 0.61619 0.86734 0.31467 0.0
C980 C 0.65366 0.85689 0.32058 0.0
H981 H 0.67864 0.86734 0.38999 0.0
H982 H 0.66007 0.86391 0.37227 0.0
H983 H 0.67338 0.84977 0.32933 0.0
H984 H 0.62802 0.87181 0.27559 0.0
H985 H 0.64584 0.86752 0.29382 0.0
H986 H 0.63135 0.8802 0.3366 0.0
C987 C 0.67103 0.86494 0.36879 0.0
C988 C 0.66423 0.85642 0.33102 0.0
C989 C 0.68169 0.86685 0.37894 0.0
C990 C 0.62452 0.87046 0.28643 0.0
C991 C 0.63473 0.86791 0.29687 0.0
C992 C 0.64032 0.8733 0.33497 0.0
C993 C 0.67443 0.86472 0.3543 0.0
C994 C 0.66295 0.86446 0.34349 0.0
C995 C 0.6307 0.86661 0.31114 0.0
C996 C 0.64163 0.8654 0.32242 0.0
H997 H 0.71043 0.86884 0.3569 0.0
H998 H 0.69177 0.86572 0.33915 0.0
H999 H 0.64967 0.87938 0.35471 0.0
H1000 H 0.59495 0.87072 0.30743 0.0
H1001 H 0.61271 0.86611 0.32554 0.0
C1002 C 0.12947 0.64604 0.27538 0.0
C1003 C 0.12269 0.63317 0.27883 0.0
C1004 C 0.13497 0.65483 0.28602 0.0
C1005 C 0.14129 0.65785 0.3251 0.0
H1006 H 0.12809 0.69601 0.31869 0.0
C1007 C 0.12315 0.69603 0.36896 0.0
C1008 C 0.12397 0.71066 0.36636 0.0
C1009 C 0.12834 0.68644 0.35897 0.0
C1010 C 0.13222 0.68554 0.32063 0.0
H1011 H 0.11727 0.61885 0.29596 0.0
H1012 H 0.12633 0.63441 0.3146 0.0
H1013 H 0.1276 0.67916 0.29948 0.0
H1014 H 0.13231 0.7268 0.35222 0.0
H1015 H 0.14173 0.71011 0.33502 0.0
H1016 H 0.14515 0.66424 0.3466 0.0
C1017 C 0.12771 0.63765 0.30369 0.0
C1018 C 0.13195 0.67581 0.30953 0.0
C1019 C 0.12242 0.62875 0.29301 0.0
C1020 C 0.13132 0.71556 0.35436 0.0
C1021 C 0.13667 0.706 0.34449 0.0
C1022 C 0.14153 0.66763 0.33627 0.0
C1023 C 0.13353 0.65105 0.30035 0.0
C1024 C 0.13614 0.66175 0.31168 0.0
C1025 C 0.13455 0.69135 0.34631 0.0
C1026 C 0.13667 0.6815 0.33422 0.0
H1027 H 0.13003 0.6496 0.26449 0.0
H1028 H 0.13974 0.6649 0.28304 0.0
H1029 H 0.14477 0.64715 0.32706 0.0
H1030 H 0.11756 0.69197 0.37815 0.0
H1031 H 0.12648 0.67523 0.36069 0.0
C1032 C 0.37092 0.86648 0.68615 0.0
C1033 C 0.3691 0.86516 0.70086 0.0
C1034 C 0.3595 0.86388 0.67694 0.0
C1035 C 0.32066 0.8655 0.67719 0.0
H1036 H 0.32351 0.84963 0.63942 0.0
C1037 C 0.27277 0.86692 0.64016 0.0
C1038 C 0.27565 0.87193 0.62646 0.0
C1039 C 0.28382 0.86238 0.64885 0.0
C1040 C 0.32256 0.85411 0.64993 0.0
H1041 H 0.35415 0.85906 0.71737 0.0
H1042 H 0.33434 0.8544 0.70131 0.0
H1043 H 0.34388 0.84843 0.65554 0.0
H1044 H 0.2922 0.8753 0.61078 0.0
H1045 H 0.31157 0.86778 0.6261 0.0
H1046 H 0.29968 0.87171 0.67156 0.0
C1047 C 0.34449 0.85774 0.69691 0.0
C1048 C 0.33422 0.85341 0.65915 0.0
C1049 C 0.35587 0.86038 0.7061 0.0
C1050 C 0.28967 0.8715 0.62131 0.0
C1051 C 0.30077 0.86711 0.63007 0.0
C1052 C 0.30909 0.86624 0.668 0.0
C1053 C 0.34606 0.85987 0.68227 0.0
C1054 C 0.33343 0.85927 0.67282 0.0
C1055 C 0.29801 0.86295 0.64411 0.0
C1056 C 0.30993 0.86073 0.6542 0.0
H1057 H 0.38099 0.8701 0.68177 0.0
H1058 H 0.36103 0.86571 0.66573 0.0
H1059 H 0.31979 0.87039 0.68753 0.0
H1060 H 0.26203 0.86695 0.64435 0.0
H1061 H 0.28128 0.85891 0.65949 0.0
C1062 C 0.12136 0.37063 0.69555 0.0
C1063 C 0.11731 0.36332 0.70789 0.0
C1064 C 0.1263 0.36322 0.68374 0.0
C1065 C 0.13879 0.32815 0.67127 0.0
H1066 H 0.1178 0.33746 0.63726 0.0
C1067 C 0.12675 0.28783 0.62713 0.0
C1068 C 0.12535 0.29253 0.61309 0.0
C1069 C 0.12954 0.29745 0.63805 0.0
C1070 C 0.12404 0.33487 0.64652 0.0
H1071 H 0.11618 0.34267 0.71787 0.0
H1072 H 0.12469 0.32977 0.69729 0.0
H1073 H 0.11634 0.35283 0.65782 0.0
H1074 H 0.12671 0.31093 0.59942 0.0
H1075 H 0.13181 0.3277 0.61847 0.0
H1076 H 0.14612 0.30992 0.66007 0.0
C1077 C 0.12413 0.34121 0.69672 0.0
C1078 C 0.12319 0.34371 0.65834 0.0
C1079 C 0.11914 0.34859 0.70849 0.0
C1080 C 0.12756 0.30698 0.61013 0.0
C1081 C 0.13043 0.3166 0.62106 0.0
C1082 C 0.13969 0.31933 0.65941 0.0
C1083 C 0.12735 0.34839 0.68408 0.0
C1084 C 0.13024 0.34024 0.67097 0.0
C1085 C 0.13109 0.312 0.6352 0.0
C1086 C 0.132 0.32238 0.64703 0.0
H1087 H 0.12015 0.38199 0.69479 0.0
H1088 H 0.12887 0.36905 0.6742 0.0
H1089 H 0.14449 0.32532 0.68081 0.0
H1090 H 0.12513 0.27677 0.62979 0.0
H1091 H 0.1298 0.29355 0.64882 0.0
C1092 C 0.71422 0.12337 0.64428 0.0
C1093 C 0.71162 0.11897 0.6303 0.0
C1094 C 0.70296 0.12717 0.65308 0.0
C1095 C 0.66399 0.13438 0.65413 0.0
H1096 H 0.6667 0.11611 0.69074 0.0
C1097 C 0.63005 0.12466 0.70938 0.0
C1098 C 0.6169 0.12015 0.70369 0.0
C1099 C 0.64157 0.12774 0.70052 0.0
C1100 C 0.66583 0.12153 0.68069 0.0
H1101 H 0.69533 0.116 0.61424 0.0
H1102 H 0.6756 0.12227 0.6297 0.0
H1103 H 0.68705 0.11617 0.67499 0.0
H1104 H 0.60535 0.11606 0.68416 0.0
H1105 H 0.62555 0.12122 0.6687 0.0
H1106 H 0.64247 0.13926 0.65977 0.0
C1107 C 0.68634 0.123 0.63384 0.0
C1108 C 0.67754 0.12159 0.67163 0.0
C1109 C 0.69765 0.11933 0.62499 0.0
C1110 C 0.61534 0.11945 0.68889 0.0
C1111 C 0.6269 0.12251 0.68002 0.0
C1112 C 0.65221 0.13429 0.66321 0.0
C1113 C 0.68883 0.12648 0.64813 0.0
C1114 C 0.67673 0.12785 0.65817 0.0
C1115 C 0.64023 0.12636 0.68576 0.0
C1116 C 0.65296 0.1277 0.67652 0.0
H1117 H 0.72491 0.12337 0.64861 0.0
H1118 H 0.70528 0.13014 0.66393 0.0
H1119 H 0.66306 0.13942 0.64389 0.0
H1120 H 0.63158 0.12549 0.72072 0.0
H1121 H 0.65163 0.13093 0.70525 0.0
C1122 C 0.86299 0.6816 0.61013 0.0
C1123 C 0.86497 0.69611 0.61305 0.0
C1124 C 0.85922 0.67218 0.62092 0.0
C1125 C 0.84662 0.67021 0.65831 0.0
H1126 H 0.87 0.63672 0.65943 0.0
C1127 C 0.8636 0.64259 0.70948 0.0
C1128 C 0.86586 0.62792 0.70935 0.0
C1129 C 0.85917 0.64951 0.69723 0.0
C1130 C 0.86312 0.64583 0.65917 0.0
H1131 H 0.86392 0.71216 0.62949 0.0
H1132 H 0.8577 0.69572 0.64831 0.0
H1133 H 0.87033 0.65159 0.63852 0.0
H1134 H 0.8642 0.60881 0.69663 0.0
H1135 H 0.85643 0.62092 0.67521 0.0
H1136 H 0.83999 0.66473 0.67933 0.0
C1137 C 0.85882 0.69162 0.63766 0.0
C1138 C 0.86331 0.65438 0.64715 0.0
C1139 C 0.86252 0.70105 0.62687 0.0
C1140 C 0.86265 0.62015 0.69702 0.0
C1141 C 0.85827 0.62708 0.68474 0.0
C1142 C 0.84647 0.66166 0.67038 0.0
C1143 C 0.85741 0.67703 0.63488 0.0
C1144 C 0.85538 0.66689 0.64673 0.0
C1145 C 0.85694 0.64189 0.6846 0.0
C1146 C 0.85504 0.6496 0.67107 0.0
H1147 H 0.86464 0.67746 0.59956 0.0
H1148 H 0.85801 0.66103 0.61839 0.0
H1149 H 0.84019 0.67964 0.65822 0.0
H1150 H 0.86591 0.64886 0.71884 0.0
H1151 H 0.85837 0.66094 0.69745 0.0
C1152 C 0.29528 0.36734 0.12345 0.0
C1153 C 0.2818 0.36071 0.12263 0.0
C1154 C 0.30714 0.35973 0.12795 0.0
C1155 C 0.31821 0.32522 0.14349 0.0
H1156 H 0.34778 0.32722 0.1149 0.0
C1157 C 0.34719 0.27707 0.12264 0.0
C1158 C 0.36133 0.27827 0.1179 0.0
C1159 C 0.34024 0.28881 0.12814 0.0
C1160 C 0.33987 0.32672 0.12323 0.0
H1161 H 0.26994 0.34133 0.12699 0.0
H1162 H 0.29049 0.32809 0.13466 0.0
H1163 H 0.33008 0.34569 0.1161 0.0
H1164 H 0.37958 0.29249 0.11596 0.0
H1165 H 0.3673 0.31315 0.12544 0.0
H1166 H 0.32751 0.30568 0.14996 0.0
C1167 C 0.292 0.33914 0.13194 0.0
C1168 C 0.3297 0.33734 0.12394 0.0
C1169 C 0.28021 0.34671 0.1274 0.0
C1170 C 0.36865 0.29128 0.11948 0.0
C1171 C 0.36163 0.3031 0.12487 0.0
C1172 C 0.32836 0.31456 0.14276 0.0
C1173 C 0.30568 0.3454 0.13179 0.0
C1174 C 0.31836 0.33634 0.13362 0.0
C1175 C 0.34724 0.30205 0.12893 0.0
C1176 C 0.33888 0.31487 0.13218 0.0
H1177 H 0.29681 0.37816 0.11991 0.0
H1178 H 0.31752 0.36488 0.12787 0.0
H1179 H 0.30977 0.32431 0.15127 0.0
H1180 H 0.34131 0.26717 0.12164 0.0
H1181 H 0.32911 0.28768 0.13099 0.0
C1182 C 0.35954 0.70687 0.87861 0.0
C1183 C 0.37418 0.70404 0.8795 0.0
C1184 C 0.34966 0.69585 0.87654 0.0
C1185 C 0.34568 0.6576 0.88233 0.0
H1186 H 0.31212 0.66103 0.85867 0.0
C1187 C 0.3062 0.61121 0.87589 0.0
C1188 C 0.29171 0.61449 0.87728 0.0
C1189 C 0.3164 0.62196 0.87413 0.0
C1190 C 0.32141 0.65996 0.86537 0.0
H1191 H 0.38995 0.68748 0.87834 0.0
H1192 H 0.37273 0.66833 0.87461 0.0
H1193 H 0.32978 0.68031 0.85938 0.0
H1194 H 0.27651 0.6316 0.8773 0.0
H1195 H 0.29436 0.65036 0.87446 0.0
H1196 H 0.33727 0.63744 0.88856 0.0
C1197 C 0.36888 0.67903 0.87576 0.0
C1198 C 0.33151 0.67099 0.86578 0.0
C1199 C 0.37875 0.69002 0.87784 0.0
C1200 C 0.28759 0.62871 0.87629 0.0
C1201 C 0.29781 0.63947 0.87458 0.0
C1202 C 0.33561 0.64661 0.88193 0.0
C1203 C 0.35422 0.68178 0.87531 0.0
C1204 C 0.34372 0.66994 0.87432 0.0
C1205 C 0.31236 0.63622 0.87378 0.0
C1206 C 0.32333 0.64768 0.87351 0.0
H1207 H 0.35567 0.71755 0.87982 0.0
H1208 H 0.33842 0.69829 0.87637 0.0
H1209 H 0.35483 0.65658 0.88923 0.0
H1210 H 0.30973 0.60036 0.87645 0.0
H1211 H 0.3275 0.6191 0.87327 0.0
C1212 C 0.27316 0.34665 0.85871 0.0
C1213 C 0.27571 0.36016 0.86449 0.0
C1214 C 0.28448 0.33845 0.85403 0.0
C1215 C 0.32382 0.33845 0.84777 0.0
H1216 H 0.32044 0.30083 0.8639 0.0
C1217 C 0.35823 0.28421 0.85873 0.0
C1218 C 0.37054 0.29039 0.86474 0.0
C1219 C 0.34692 0.29263 0.85447 0.0
C1220 C 0.32152 0.31116 0.85902 0.0
H1221 H 0.29194 0.37615 0.86888 0.0
H1222 H 0.31174 0.36169 0.86115 0.0
H1223 H 0.29987 0.31594 0.86347 0.0
H1224 H 0.38098 0.31032 0.8702 0.0
H1225 H 0.36109 0.325 0.86304 0.0
H1226 H 0.34577 0.33374 0.84398 0.0
C1227 C 0.30102 0.35747 0.85999 0.0
C1228 C 0.30967 0.31986 0.85875 0.0
C1229 C 0.28966 0.36574 0.86451 0.0
C1230 C 0.37161 0.30522 0.86567 0.0
C1231 C 0.36025 0.31365 0.86146 0.0
C1232 C 0.33573 0.32972 0.84808 0.0
C1233 C 0.2986 0.34351 0.85523 0.0
C1234 C 0.31072 0.33372 0.85342 0.0
C1235 C 0.34763 0.30741 0.85619 0.0
C1236 C 0.33477 0.31608 0.854 0.0
H1237 H 0.26248 0.34216 0.85837 0.0
H1238 H 0.28222 0.32787 0.85009 0.0
H1239 H 0.32494 0.34901 0.84343 0.0
H1240 H 0.35715 0.27282 0.85767 0.0
H1241 H 0.33744 0.28752 0.8502 0.0
C1242 C 0.61513 0.29851 0.87609 0.0
C1243 C 0.61941 0.28447 0.8782 0.0
C1244 C 0.62522 0.3093 0.87413 0.0
C1245 C 0.66295 0.31674 0.86535 0.0
H1246 H 0.65662 0.35087 0.88723 0.0
C1247 C 0.70654 0.35941 0.87616 0.0
C1248 C 0.70234 0.37364 0.87677 0.0
C1249 C 0.6964 0.34857 0.87436 0.0
C1250 C 0.65845 0.34153 0.88085 0.0
H1251 H 0.63766 0.27067 0.87942 0.0
H1252 H 0.65534 0.28962 0.87619 0.0
H1253 H 0.63902 0.33179 0.88779 0.0
H1254 H 0.68431 0.38768 0.87513 0.0
H1255 H 0.6667 0.3688 0.87179 0.0
H1256 H 0.68254 0.3265 0.85859 0.0
C1257 C 0.64414 0.29222 0.87592 0.0
C1258 C 0.64836 0.33057 0.88119 0.0
C1259 C 0.63401 0.28139 0.87786 0.0
C1260 C 0.68789 0.37683 0.87488 0.0
C1261 C 0.67778 0.36601 0.87302 0.0
C1262 C 0.67308 0.32775 0.865 0.0
C1263 C 0.63984 0.30633 0.87428 0.0
C1264 C 0.6505 0.31804 0.87348 0.0
C1265 C 0.68188 0.35175 0.87308 0.0
C1266 C 0.67094 0.34025 0.87279 0.0
H1267 H 0.60396 0.30125 0.87613 0.0
H1268 H 0.62157 0.32002 0.87263 0.0
H1269 H 0.66482 0.30725 0.85919 0.0
H1270 H 0.71759 0.35658 0.87756 0.0
H1271 H 0.69989 0.33769 0.87456 0.0
C1272 C 0.71227 0.64158 0.86185 0.0
C1273 C 0.70907 0.62832 0.86785 0.0
C1274 C 0.70137 0.65028 0.85712 0.0
C1275 C 0.66219 0.65225 0.85072 0.0
H1276 H 0.66749 0.68995 0.86639 0.0
C1277 C 0.63085 0.7087 0.86022 0.0
C1278 C 0.618 0.70332 0.86582 0.0
C1279 C 0.64176 0.69956 0.85639 0.0
C1280 C 0.66589 0.6796 0.86164 0.0
H1281 H 0.69209 0.61328 0.87259 0.0
H1282 H 0.673 0.62861 0.86469 0.0
H1283 H 0.68715 0.67367 0.86649 0.0
H1284 H 0.60624 0.68408 0.87101 0.0
H1285 H 0.6254 0.66817 0.86465 0.0
H1286 H 0.64064 0.65816 0.84642 0.0
C1287 C 0.68392 0.63224 0.86344 0.0
C1288 C 0.67721 0.67023 0.86168 0.0
C1289 C 0.69486 0.62346 0.86804 0.0
C1290 C 0.61602 0.68857 0.86678 0.0
C1291 C 0.62698 0.67943 0.86303 0.0
C1292 C 0.65081 0.66167 0.85068 0.0
C1293 C 0.68703 0.64597 0.85846 0.0
C1294 C 0.67544 0.65635 0.85649 0.0
C1295 C 0.64011 0.68485 0.85816 0.0
C1296 C 0.65247 0.67536 0.85641 0.0
H1297 H 0.72316 0.64552 0.86138 0.0
H1298 H 0.70414 0.66066 0.85301 0.0
H1299 H 0.66053 0.64168 0.8465 0.0
H1300 H 0.63264 0.72001 0.85915 0.0
H1301 H 0.65165 0.70406 0.85242 0.0
C1302 C 0.62554 0.70069 0.11967 0.0
C1303 C 0.62995 0.71495 0.12022 0.0
C1304 C 0.63421 0.69014 0.12524 0.0
C1305 C 0.67229 0.68484 0.13153 0.0
H1306 H 0.65974 0.64793 0.1449 0.0
C1307 C 0.71243 0.64096 0.13483 0.0
C1308 C 0.70816 0.62862 0.12757 0.0
C1309 C 0.70235 0.65074 0.13923 0.0
C1310 C 0.6634 0.65821 0.14124 0.0
H1311 H 0.64608 0.72955 0.12821 0.0
H1312 H 0.66094 0.71125 0.13838 0.0
H1313 H 0.64257 0.66711 0.14294 0.0
H1314 H 0.68997 0.61617 0.12037 0.0
H1315 H 0.67235 0.63347 0.12763 0.0
H1316 H 0.69288 0.67598 0.12923 0.0
C1317 C 0.65109 0.7081 0.13319 0.0
C1318 C 0.65357 0.66919 0.14009 0.0
C1319 C 0.64256 0.7186 0.12742 0.0
C1320 C 0.69356 0.62563 0.12592 0.0
C1321 C 0.68345 0.63553 0.13015 0.0
C1322 C 0.68206 0.67396 0.13271 0.0
C1323 C 0.64734 0.6937 0.13162 0.0
C1324 C 0.65786 0.68254 0.13491 0.0
C1325 C 0.68781 0.6485 0.13622 0.0
C1326 C 0.6777 0.66042 0.13727 0.0
H1327 H 0.61584 0.6976 0.11419 0.0
H1328 H 0.63102 0.67917 0.12375 0.0
H1329 H 0.67597 0.69484 0.12718 0.0
H1330 H 0.72363 0.64342 0.13646 0.0
H1331 H 0.70602 0.66046 0.14423 0.0
C1332 C 0.37479 0.6839 0.11845 0.0
C1333 C 0.37218 0.69851 0.11784 0.0
C1334 C 0.36369 0.67428 0.12116 0.0
C1335 C 0.32506 0.67079 0.11705 0.0
H1336 H 0.33013 0.63621 0.13843 0.0
C1337 C 0.28111 0.62772 0.11921 0.0
C1338 C 0.2858 0.61389 0.11652 0.0
C1339 C 0.2909 0.6386 0.12225 0.0
C1340 C 0.32857 0.64581 0.13241 0.0
H1341 H 0.35596 0.7145 0.12025 0.0
H1342 H 0.33662 0.69769 0.12504 0.0
H1343 H 0.34884 0.65446 0.13866 0.0
H1344 H 0.30444 0.60056 0.11551 0.0
H1345 H 0.32145 0.61953 0.12061 0.0
H1346 H 0.30503 0.662 0.11042 0.0
C1347 C 0.34723 0.69368 0.12323 0.0
C1348 C 0.33927 0.65625 0.13254 0.0
C1349 C 0.35833 0.70332 0.12054 0.0
C1350 C 0.30044 0.61109 0.11749 0.0
C1351 C 0.31021 0.62196 0.12053 0.0
C1352 C 0.31438 0.66036 0.1169 0.0
C1353 C 0.34974 0.67905 0.12332 0.0
C1354 C 0.33776 0.66872 0.12462 0.0
C1355 C 0.30558 0.63588 0.12269 0.0
C1356 C 0.31614 0.64762 0.12433 0.0
H1357 H 0.38533 0.67983 0.11645 0.0
H1358 H 0.36596 0.66307 0.121 0.0
H1359 H 0.32365 0.68019 0.11068 0.0
H1360 H 0.2699 0.63022 0.11865 0.0
H1361 H 0.28699 0.64919 0.12405 0.0
C1362 C 0.6991 0.35731 0.11492 0.0
C1363 C 0.69525 0.37161 0.11398 0.0
C1364 C 0.6887 0.34676 0.11699 0.0
C1365 C 0.65055 0.3405 0.11072 0.0
H1366 H 0.65592 0.30687 0.1335 0.0
C1367 C 0.60621 0.29853 0.11586 0.0
C1368 C 0.61031 0.28437 0.11418 0.0
C1369 C 0.61644 0.30921 0.11788 0.0
C1370 C 0.65432 0.31618 0.12704 0.0
H1371 H 0.67755 0.38612 0.11532 0.0
H1372 H 0.65952 0.36778 0.11911 0.0
H1373 H 0.67422 0.3256 0.13348 0.0
H1374 H 0.62836 0.27026 0.11385 0.0
H1375 H 0.64624 0.28897 0.11716 0.0
H1376 H 0.63085 0.33108 0.10405 0.0
C1377 C 0.67052 0.36468 0.11792 0.0
C1378 C 0.66478 0.32689 0.12703 0.0
C1379 C 0.68088 0.37519 0.1158 0.0
C1380 C 0.62484 0.28107 0.11509 0.0
C1381 C 0.63509 0.29178 0.11707 0.0
C1382 C 0.64013 0.32984 0.11073 0.0
C1383 C 0.67426 0.35033 0.11821 0.0
C1384 C 0.66301 0.33914 0.11882 0.0
C1385 C 0.63101 0.306 0.11821 0.0
C1386 C 0.6419 0.31753 0.11883 0.0
H1387 H 0.71008 0.35419 0.11358 0.0
H1388 H 0.69191 0.33579 0.11707 0.0
H1389 H 0.64899 0.34966 0.10404 0.0
H1390 H 0.5951 0.30143 0.11537 0.0
H1391 H 0.61294 0.32004 0.119 0.0
C1392 C 0.62665 0.87398 0.79864 0.0
C1393 C 0.62503 0.8682 0.785 0.0
C1394 C 0.63171 0.86564 0.80974 0.0
C1395 C 0.64719 0.83031 0.81817 0.0
H1396 H 0.6207 0.83133 0.8496 0.0
C1397 C 0.62763 0.78119 0.84773 0.0
C1398 C 0.62391 0.78211 0.8621 0.0
C1399 C 0.63283 0.79307 0.84054 0.0
C1400 C 0.62846 0.83106 0.84113 0.0
H1401 H 0.6286 0.8496 0.77203 0.0
H1402 H 0.63717 0.83509 0.79128 0.0
H1403 H 0.62107 0.85053 0.83258 0.0
H1404 H 0.6236 0.79596 0.88045 0.0
H1405 H 0.6326 0.81681 0.8678 0.0
H1406 H 0.65388 0.8103 0.8263 0.0
C1407 C 0.63467 0.84604 0.7935 0.0
C1408 C 0.62869 0.84212 0.83134 0.0
C1409 C 0.62961 0.85434 0.78244 0.0
C1410 C 0.62631 0.79495 0.86935 0.0
C1411 C 0.63142 0.80689 0.86211 0.0
C1412 C 0.64691 0.81921 0.82793 0.0
C1413 C 0.63528 0.85141 0.80739 0.0
C1414 C 0.63762 0.84157 0.81941 0.0
C1415 C 0.63435 0.80616 0.84754 0.0
C1416 C 0.63711 0.8192 0.83918 0.0
H1417 H 0.6233 0.88467 0.80091 0.0
H1418 H 0.63226 0.87016 0.82028 0.0
H1419 H 0.65441 0.82971 0.80925 0.0
H1420 H 0.62597 0.77142 0.84188 0.0
H1421 H 0.63482 0.79218 0.82928 0.0
C1422 C 0.1997 0.61825 0.866 0.0
C1423 C 0.21392 0.61771 0.86146 0.0
C1424 C 0.18895 0.62211 0.85657 0.0
C1425 C 0.18227 0.62025 0.81849 0.0
H1426 H 0.14656 0.6379 0.8283 0.0
C1427 C 0.13583 0.62047 0.77911 0.0
C1428 C 0.12259 0.61619 0.78471 0.0
C1429 C 0.1471 0.62423 0.78809 0.0
C1430 C 0.15648 0.63295 0.82542 0.0
H1431 H 0.22827 0.62213 0.84398 0.0
H1432 H 0.20959 0.62918 0.82765 0.0
H1433 H 0.16643 0.63876 0.84507 0.0
H1434 H 0.11063 0.61307 0.80415 0.0
H1435 H 0.13037 0.61933 0.81979 0.0
H1436 H 0.17228 0.61397 0.79913 0.0
C1437 C 0.20665 0.62622 0.83834 0.0
C1438 C 0.16785 0.63345 0.83501 0.0
C1439 C 0.21736 0.62224 0.84771 0.0
C1440 C 0.1207 0.61628 0.79948 0.0
C1441 C 0.13199 0.61999 0.80845 0.0
C1442 C 0.17095 0.61975 0.80894 0.0
C1443 C 0.19227 0.62561 0.84247 0.0
C1444 C 0.18078 0.62686 0.83175 0.0
C1445 C 0.1454 0.62373 0.80286 0.0
C1446 C 0.15783 0.62584 0.8124 0.0
H1447 H 0.19674 0.61483 0.87655 0.0
H1448 H 0.17798 0.62145 0.86008 0.0
H1449 H 0.19196 0.6148 0.81573 0.0
H1450 H 0.1376 0.62068 0.76778 0.0
H1451 H 0.15723 0.62728 0.78345 0.0
C1452 C 0.36638 0.11339 0.80786 0.0
C1453 C 0.36533 0.11388 0.79302 0.0
C1454 C 0.36297 0.12522 0.81603 0.0
C1455 C 0.36311 0.16365 0.81254 0.0
H1456 H 0.3469 0.16295 0.85029 0.0
C1457 C 0.36367 0.21392 0.846 0.0
C1458 C 0.36868 0.21225 0.8599 0.0
C1459 C 0.35923 0.20217 0.83809 0.0
C1460 C 0.35146 0.1633 0.83976 0.0
H1461 H 0.3588 0.12677 0.77522 0.0
H1462 H 0.35274 0.14731 0.78949 0.0
H1463 H 0.34638 0.14143 0.83579 0.0
H1464 H 0.37215 0.19711 0.87673 0.0
H1465 H 0.36483 0.17652 0.86278 0.0
H1466 H 0.36879 0.18521 0.81658 0.0
C1467 C 0.35649 0.1379 0.79478 0.0
C1468 C 0.35114 0.151 0.83148 0.0
C1469 C 0.35994 0.12611 0.78661 0.0
C1470 C 0.36835 0.19871 0.86603 0.0
C1471 C 0.36407 0.18691 0.85804 0.0
C1472 C 0.36348 0.17589 0.82081 0.0
C1473 C 0.3584 0.13774 0.80953 0.0
C1474 C 0.35717 0.15101 0.81786 0.0
C1475 C 0.35991 0.18846 0.84383 0.0
C1476 C 0.35787 0.17583 0.83461 0.0
H1477 H 0.37046 0.10411 0.81312 0.0
H1478 H 0.36465 0.12481 0.82737 0.0
H1479 H 0.3681 0.16396 0.80221 0.0
H1480 H 0.36361 0.22427 0.84107 0.0
H1481 H 0.35575 0.20378 0.82728 0.0
C1482 C 0.84356 0.36398 0.76975 0.0
C1483 C 0.85674 0.37048 0.77284 0.0
C1484 C 0.83478 0.35906 0.78064 0.0
C1485 C 0.83225 0.35352 0.81978 0.0
H1486 H 0.79393 0.36698 0.81362 0.0
C1487 C 0.79356 0.37017 0.86419 0.0
C1488 C 0.77886 0.36907 0.86154 0.0
C1489 C 0.80334 0.36568 0.854 0.0
C1490 C 0.80446 0.36281 0.81549 0.0
H1491 H 0.87157 0.37602 0.78962 0.0
H1492 H 0.85601 0.36792 0.80872 0.0
H1493 H 0.81076 0.3674 0.79434 0.0
H1494 H 0.76282 0.36103 0.84696 0.0
H1495 H 0.77983 0.35282 0.82941 0.0
H1496 H 0.82592 0.34959 0.84126 0.0
C1497 C 0.85253 0.36634 0.79789 0.0
C1498 C 0.81416 0.36304 0.80436 0.0
C1499 C 0.86143 0.37106 0.78695 0.0
C1500 C 0.77411 0.36223 0.84916 0.0
C1501 C 0.78385 0.35758 0.8391 0.0
C1502 C 0.82248 0.35331 0.83099 0.0
C1503 C 0.83886 0.3608 0.79487 0.0
C1504 C 0.82826 0.35864 0.80639 0.0
C1505 C 0.79855 0.35989 0.84107 0.0
C1506 C 0.80854 0.35819 0.82901 0.0
H1507 H 0.83978 0.36318 0.75893 0.0
H1508 H 0.82449 0.35447 0.77791 0.0
H1509 H 0.84299 0.34993 0.82166 0.0
H1510 H 0.79751 0.37539 0.87366 0.0
H1511 H 0.81458 0.36767 0.85585 0.0
C1512 C 0.62729 0.21144 0.13909 0.0
C1513 C 0.62002 0.2073 0.12674 0.0
C1514 C 0.63323 0.20131 0.14796 0.0
C1515 C 0.64017 0.16254 0.15205 0.0
H1516 H 0.62898 0.17029 0.19076 0.0
C1517 C 0.62498 0.11994 0.19316 0.0
C1518 C 0.62659 0.12323 0.20759 0.0
C1519 C 0.62943 0.12962 0.18283 0.0
C1520 C 0.63255 0.168 0.1801 0.0
H1521 H 0.61413 0.18943 0.11342 0.0
H1522 H 0.62398 0.17167 0.12917 0.0
H1523 H 0.62724 0.1887 0.17323 0.0
H1524 H 0.6356 0.13835 0.22252 0.0
H1525 H 0.64374 0.15503 0.20452 0.0
H1526 H 0.64473 0.14146 0.15901 0.0
C1527 C 0.6254 0.18274 0.13191 0.0
C1528 C 0.63156 0.17863 0.16998 0.0
C1529 C 0.61966 0.19292 0.1229 0.0
C1530 C 0.63402 0.13565 0.21147 0.0
C1531 C 0.63862 0.14523 0.20116 0.0
C1532 C 0.64112 0.15182 0.16223 0.0
C1533 C 0.63176 0.18678 0.14483 0.0
C1534 C 0.63503 0.17598 0.15576 0.0
C1535 C 0.63569 0.14268 0.18677 0.0
C1536 C 0.63701 0.15436 0.17632 0.0
H1537 H 0.62792 0.22249 0.14218 0.0
H1538 H 0.6384 0.20483 0.15763 0.0
H1539 H 0.64311 0.16019 0.14123 0.0
H1540 H 0.6193 0.11042 0.18987 0.0
H1541 H 0.62696 0.12733 0.17185 0.0
C1542 C 0.87442 0.61328 0.19307 0.0
C1543 C 0.87014 0.61093 0.20714 0.0
C1544 C 0.86434 0.61567 0.18252 0.0
C1545 C 0.82679 0.62526 0.17619 0.0
H1546 H 0.83195 0.60397 0.14146 0.0
C1547 C 0.78204 0.61539 0.13504 0.0
C1548 C 0.78585 0.61505 0.12066 0.0
C1549 C 0.79248 0.61694 0.14551 0.0
C1550 C 0.83046 0.61019 0.15098 0.0
H1551 H 0.85191 0.60972 0.22123 0.0
H1552 H 0.83428 0.6137 0.20273 0.0
H1553 H 0.8499 0.6029 0.15994 0.0
H1554 H 0.80355 0.61689 0.10595 0.0
H1555 H 0.82169 0.61979 0.12418 0.0
H1556 H 0.80716 0.63234 0.16724 0.0
C1557 C 0.84546 0.61383 0.19991 0.0
C1558 C 0.84075 0.60957 0.16159 0.0
C1559 C 0.85556 0.61146 0.21049 0.0
C1560 C 0.80025 0.61694 0.11694 0.0
C1561 C 0.81067 0.61854 0.12739 0.0
C1562 C 0.81646 0.62589 0.16555 0.0
C1563 C 0.84974 0.61574 0.18578 0.0
C1564 C 0.83901 0.61702 0.17434 0.0
C1565 C 0.80694 0.61823 0.14179 0.0
C1566 C 0.81816 0.61829 0.15285 0.0
H1567 H 0.88557 0.61308 0.19013 0.0
H1568 H 0.86798 0.61734 0.17177 0.0
H1569 H 0.82523 0.63123 0.18585 0.0
H1570 H 0.77104 0.61398 0.13827 0.0
H1571 H 0.78927 0.61655 0.15651 0.0
C1572 C 0.36627 0.7898 0.11893 0.0
C1573 C 0.36972 0.77757 0.12656 0.0
C1574 C 0.36153 0.80187 0.12599 0.0
C1575 C 0.34874 0.81548 0.16062 0.0
H1576 H 0.37151 0.84861 0.15085 0.0
C1577 C 0.36219 0.85985 0.20023 0.0
C1578 C 0.36435 0.87376 0.19532 0.0
C1579 C 0.35904 0.84887 0.19077 0.0
C1580 C 0.36478 0.83961 0.15355 0.0
H1581 H 0.36996 0.76802 0.14743 0.0
H1582 H 0.36179 0.78906 0.15973 0.0
H1583 H 0.37232 0.82772 0.13589 0.0
H1584 H 0.36398 0.88718 0.1767 0.0
H1585 H 0.35826 0.86803 0.16022 0.0
H1586 H 0.34158 0.82727 0.17858 0.0
C1587 C 0.36267 0.78935 0.1483 0.0
C1588 C 0.36525 0.8276 0.14495 0.0
C1589 C 0.36745 0.77732 0.14126 0.0
C1590 C 0.36255 0.87656 0.18082 0.0
C1591 C 0.35932 0.86558 0.17136 0.0
C1592 C 0.34822 0.82753 0.16921 0.0
C1593 C 0.36008 0.8019 0.1408 0.0
C1594 C 0.35756 0.81527 0.14861 0.0
C1595 C 0.35788 0.85155 0.17618 0.0
C1596 C 0.35657 0.83959 0.166 0.0
H1597 H 0.36782 0.79029 0.10757 0.0
H1598 H 0.35944 0.81134 0.11992 0.0
H1599 H 0.34255 0.80618 0.16359 0.0
H1600 H 0.36346 0.85732 0.21134 0.0
H1601 H 0.35818 0.83818 0.19484 0.0
C1602 C 0.20929 0.36268 0.13503 0.0
C1603 C 0.20321 0.36595 0.12186 0.0
C1604 C 0.20067 0.3604 0.14686 0.0
C1605 C 0.16334 0.35458 0.15887 0.0
H1606 H 0.17609 0.37656 0.19132 0.0
C1607 C 0.12588 0.37404 0.2031 0.0
C1608 C 0.13141 0.37558 0.21685 0.0
C1609 C 0.13461 0.36953 0.19203 0.0
C1610 C 0.17247 0.37009 0.18251 0.0
H1611 H 0.18325 0.36853 0.1106 0.0
H1612 H 0.16822 0.36479 0.13131 0.0
H1613 H 0.19153 0.3744 0.17091 0.0
H1614 H 0.15005 0.37261 0.23003 0.0
H1615 H 0.16517 0.36445 0.21082 0.0
H1616 H 0.14405 0.35064 0.17043 0.0
C1617 C 0.17965 0.36386 0.13246 0.0
C1618 C 0.18134 0.36886 0.17077 0.0
C1619 C 0.18828 0.36609 0.1206 0.0
C1620 C 0.14555 0.37171 0.2195 0.0
C1621 C 0.15422 0.36709 0.20848 0.0
C1622 C 0.15443 0.35579 0.17067 0.0
C1623 C 0.18578 0.36139 0.1458 0.0
C1624 C 0.17682 0.36128 0.15873 0.0
C1625 C 0.14899 0.36639 0.19454 0.0
C1626 C 0.15883 0.36375 0.18254 0.0
H1627 H 0.22075 0.3623 0.13633 0.0
H1628 H 0.20569 0.35826 0.15695 0.0
H1629 H 0.15962 0.34855 0.14979 0.0
H1630 H 0.115 0.37693 0.20076 0.0
H1631 H 0.13026 0.36921 0.18141 0.0
C1632 C 0.78365 0.62038 0.86065 0.0
C1633 C 0.78737 0.61997 0.87506 0.0
C1634 C 0.79401 0.62316 0.85037 0.0
C1635 C 0.83248 0.61975 0.84524 0.0
H1636 H 0.82578 0.64068 0.81064 0.0
C1637 C 0.87604 0.62475 0.80329 0.0
C1638 C 0.87177 0.62169 0.78934 0.0
C1639 C 0.86592 0.6273 0.81376 0.0
C1640 C 0.82777 0.63478 0.82024 0.0
H1641 H 0.80471 0.62299 0.89004 0.0
H1642 H 0.82269 0.62802 0.87213 0.0
H1643 H 0.80757 0.6402 0.82916 0.0
H1644 H 0.85357 0.61968 0.77526 0.0
H1645 H 0.83587 0.62389 0.79363 0.0
H1646 H 0.85245 0.61402 0.83629 0.0
C1647 C 0.81184 0.62589 0.86876 0.0
C1648 C 0.81736 0.63449 0.83083 0.0
C1649 C 0.80152 0.62305 0.87902 0.0
C1650 C 0.8572 0.62197 0.78592 0.0
C1651 C 0.84706 0.62446 0.79643 0.0
C1652 C 0.84285 0.62004 0.83469 0.0
C1653 C 0.80827 0.62564 0.8543 0.0
C1654 C 0.81957 0.62687 0.84339 0.0
C1655 C 0.8513 0.62678 0.81053 0.0
C1656 C 0.84058 0.62745 0.82203 0.0
H1657 H 0.77283 0.61808 0.85725 0.0
H1658 H 0.79094 0.62277 0.83932 0.0
H1659 H 0.8344 0.61353 0.85465 0.0
H1660 H 0.88719 0.62481 0.80624 0.0
H1661 H 0.86954 0.62935 0.82447 0.0
C1662 C 0.36366 0.86098 0.7923 0.0
C1663 C 0.36306 0.85638 0.77816 0.0
C1664 C 0.35832 0.85234 0.80313 0.0
C1665 C 0.35313 0.81437 0.80939 0.0
H1666 H 0.34077 0.82682 0.84648 0.0
C1667 C 0.35374 0.7753 0.85454 0.0
C1668 C 0.36149 0.78025 0.86631 0.0
C1669 C 0.34829 0.78481 0.84472 0.0
C1670 C 0.34414 0.82318 0.83615 0.0
H1671 H 0.35512 0.83993 0.76407 0.0
H1672 H 0.34534 0.82511 0.78287 0.0
H1673 H 0.34134 0.84362 0.82678 0.0
H1674 H 0.36846 0.79899 0.8778 0.0
H1675 H 0.35935 0.81564 0.86042 0.0
H1676 H 0.35656 0.7942 0.81869 0.0
C1677 C 0.3504 0.8351 0.7857 0.0
C1678 C 0.34449 0.8328 0.82487 0.0
C1679 C 0.35595 0.84361 0.77492 0.0
C1680 C 0.36256 0.79489 0.86878 0.0
C1681 C 0.35727 0.80443 0.85884 0.0
C1682 C 0.35274 0.80481 0.82057 0.0
C1683 C 0.35212 0.83904 0.79998 0.0
C1684 C 0.34937 0.82858 0.81144 0.0
C1685 C 0.3507 0.79946 0.84635 0.0
C1686 C 0.3486 0.80916 0.83418 0.0
H1687 H 0.36907 0.8708 0.79509 0.0
H1688 H 0.35994 0.8557 0.81399 0.0
H1689 H 0.35725 0.81075 0.79932 0.0
H1690 H 0.35256 0.76404 0.8525 0.0
H1691 H 0.34294 0.78065 0.8354 0.0
C1692 C 0.1822 0.36626 0.87566 0.0
C1693 C 0.19636 0.3689 0.87152 0.0
C1694 C 0.17164 0.3637 0.86555 0.0
C1695 C 0.16513 0.35532 0.82768 0.0
H1696 H 0.13108 0.37729 0.83376 0.0
C1697 C 0.12536 0.36971 0.78335 0.0
C1698 C 0.11087 0.37071 0.7869 0.0
C1699 C 0.13548 0.36671 0.79374 0.0
C1700 C 0.14037 0.37085 0.83199 0.0
H1701 H 0.21068 0.37021 0.85352 0.0
H1702 H 0.19215 0.366 0.83583 0.0
H1703 H 0.1494 0.37696 0.85185 0.0
H1704 H 0.09552 0.36838 0.80395 0.0
H1705 H 0.11313 0.36295 0.82198 0.0
H1706 H 0.15614 0.34953 0.80757 0.0
C1707 C 0.18925 0.36576 0.84692 0.0
C1708 C 0.1509 0.37067 0.84238 0.0
C1709 C 0.19985 0.36825 0.85706 0.0
C1710 C 0.10662 0.36788 0.80089 0.0
C1711 C 0.11672 0.36482 0.81124 0.0
C1712 C 0.15455 0.3555 0.81724 0.0
C1713 C 0.17497 0.36379 0.85105 0.0
C1714 C 0.16345 0.36301 0.84031 0.0
C1715 C 0.13129 0.3646 0.80787 0.0
C1716 C 0.14212 0.36338 0.81924 0.0
H1717 H 0.17917 0.36649 0.88673 0.0
H1718 H 0.16078 0.36195 0.86908 0.0
H1719 H 0.17463 0.34921 0.82584 0.0
H1720 H 0.12898 0.37179 0.77266 0.0
H1721 H 0.14664 0.36672 0.79082 0.0
C1722 C 0.62488 0.14136 0.78038 0.0
C1723 C 0.62062 0.1271 0.78165 0.0
C1724 C 0.63076 0.14861 0.79193 0.0
C1725 C 0.6278 0.14875 0.83011 0.0
H1726 H 0.65496 0.17992 0.82701 0.0
C1727 C 0.62878 0.19208 0.87223 0.0
C1728 C 0.62733 0.20559 0.86623 0.0
C1729 C 0.63341 0.18073 0.86395 0.0
C1730 C 0.64743 0.1712 0.82809 0.0
H1731 H 0.61999 0.10899 0.79573 0.0
H1732 H 0.63018 0.12175 0.816 0.0
H1733 H 0.65301 0.16253 0.8079 0.0
H1734 H 0.63086 0.21811 0.84731 0.0
H1735 H 0.63867 0.19844 0.83289 0.0
H1736 H 0.6215 0.15785 0.84979 0.0
C1737 C 0.6289 0.1273 0.80607 0.0
C1738 C 0.64632 0.16124 0.81716 0.0
C1739 C 0.6231 0.12001 0.79446 0.0
C1740 C 0.63176 0.2078 0.85221 0.0
C1741 C 0.63637 0.1965 0.84395 0.0
C1742 C 0.62886 0.15873 0.841 0.0
C1743 C 0.63244 0.14178 0.80502 0.0
C1744 C 0.63606 0.15027 0.81779 0.0
C1745 C 0.63668 0.18271 0.84954 0.0
C1746 C 0.63823 0.17043 0.83983 0.0
H1747 H 0.62319 0.1471 0.77062 0.0
H1748 H 0.6332 0.1598 0.7908 0.0
H1749 H 0.61971 0.1405 0.83088 0.0
H1750 H 0.62556 0.19007 0.88306 0.0
H1751 H 0.63377 0.17029 0.86863 0.0
C1752 C 0.85634 0.36541 0.20735 0.0
C1753 C 0.86946 0.36969 0.20147 0.0
C1754 C 0.84471 0.3622 0.19864 0.0
C1755 C 0.83382 0.35474 0.16151 0.0
H1756 H 0.799 0.37309 0.17304 0.0
C1757 C 0.78848 0.36923 0.12307 0.0
C1758 C 0.77449 0.36969 0.12831 0.0
C1759 C 0.79975 0.36565 0.13199 0.0
C1760 C 0.80851 0.3676 0.16976 0.0
H1761 H 0.88082 0.37331 0.18177 0.0
H1762 H 0.86044 0.36792 0.16658 0.0
H1763 H 0.81942 0.37347 0.18876 0.0
H1764 H 0.76114 0.36552 0.1466 0.0
H1765 H 0.78073 0.35892 0.16206 0.0
H1766 H 0.82292 0.34923 0.14228 0.0
C1767 C 0.85919 0.3669 0.17793 0.0
C1768 C 0.82025 0.36784 0.1788 0.0
C1769 C 0.87085 0.37009 0.18665 0.0
C1770 C 0.77184 0.36545 0.14231 0.0
C1771 C 0.78308 0.36174 0.15119 0.0
C1772 C 0.82202 0.35446 0.15244 0.0
C1773 C 0.84591 0.36322 0.18385 0.0
C1774 C 0.83311 0.36162 0.1747 0.0
C1775 C 0.79722 0.36234 0.1463 0.0
C1776 C 0.80929 0.36109 0.15639 0.0
H1777 H 0.85493 0.36483 0.21872 0.0
H1778 H 0.83468 0.35916 0.20351 0.0
H1779 H 0.84354 0.3497 0.15813 0.0
H1780 H 0.79085 0.37244 0.11231 0.0
H1781 H 0.81051 0.3663 0.12789 0.0
C1782 C 0.62041 0.86931 0.1984 0.0
C1783 C 0.61653 0.86188 0.21072 0.0
C1784 C 0.62519 0.86202 0.18645 0.0
C1785 C 0.63715 0.82699 0.17329 0.0
H1786 H 0.61528 0.83682 0.13998 0.0
C1787 C 0.62346 0.78718 0.12913 0.0
C1788 C 0.62177 0.79201 0.11517 0.0
C1789 C 0.62661 0.79669 0.14007 0.0
C1790 C 0.62176 0.83408 0.14904 0.0
H1791 H 0.61561 0.84114 0.22054 0.0
H1792 H 0.62384 0.82845 0.19971 0.0
H1793 H 0.61457 0.852 0.16072 0.0
H1794 H 0.62293 0.81054 0.10164 0.0
H1795 H 0.62862 0.8271 0.12072 0.0
H1796 H 0.64395 0.80878 0.1617 0.0
C1797 C 0.62327 0.83989 0.19926 0.0
C1798 C 0.62134 0.84282 0.16096 0.0
C1799 C 0.61845 0.84716 0.21118 0.0
C1800 C 0.62399 0.80648 0.1123 0.0
C1801 C 0.62722 0.81598 0.12324 0.0
C1802 C 0.63761 0.81826 0.16132 0.0
C1803 C 0.62623 0.84718 0.18662 0.0
C1804 C 0.62871 0.83916 0.17335 0.0
C1805 C 0.62822 0.81125 0.1373 0.0
C1806 C 0.62958 0.8215 0.1492 0.0
H1807 H 0.61914 0.88067 0.19775 0.0
H1808 H 0.62758 0.86794 0.17692 0.0
H1809 H 0.64309 0.824 0.18263 0.0
H1810 H 0.62185 0.7761 0.13172 0.0
H1811 H 0.62712 0.79268 0.15078 0.0
C1812 C 0.11224 0.6205 0.18697 0.0
C1813 C 0.11431 0.62275 0.20155 0.0
C1814 C 0.12334 0.62308 0.1774 0.0
C1815 C 0.16223 0.62315 0.17702 0.0
H1816 H 0.15813 0.63693 0.13861 0.0
C1817 C 0.20975 0.62211 0.13964 0.0
C1818 C 0.20699 0.61635 0.12619 0.0
C1819 C 0.19857 0.62657 0.14821 0.0
C1820 C 0.15943 0.63303 0.1493 0.0
H1821 H 0.12931 0.63049 0.21739 0.0
H1822 H 0.14854 0.6351 0.20071 0.0
H1823 H 0.13792 0.638 0.15493 0.0
H1824 H 0.19049 0.61155 0.11077 0.0
H1825 H 0.17089 0.61891 0.1259 0.0
H1826 H 0.18342 0.61763 0.17141 0.0
C1827 C 0.13846 0.63105 0.19671 0.0
C1828 C 0.14787 0.63366 0.15863 0.0
C1829 C 0.12741 0.62843 0.20626 0.0
C1830 C 0.19292 0.61595 0.12111 0.0
C1831 C 0.18169 0.62024 0.12977 0.0
C1832 C 0.17371 0.62247 0.16772 0.0
C1833 C 0.1367 0.62799 0.18224 0.0
C1834 C 0.14912 0.62858 0.17255 0.0
C1835 C 0.18436 0.62514 0.14361 0.0
C1836 C 0.17244 0.62726 0.1537 0.0
H1837 H 0.10226 0.61618 0.183 0.0
H1838 H 0.12168 0.62053 0.16633 0.0
H1839 H 0.16347 0.61886 0.18757 0.0
H1840 H 0.22052 0.62273 0.14375 0.0
H1841 H 0.20103 0.63064 0.15867 0.0
C1842 C 0.35679 0.20696 0.12822 0.0
C1843 C 0.36141 0.2006 0.1156 0.0
C1844 C 0.35299 0.19867 0.13987 0.0
C1845 C 0.34563 0.16176 0.15193 0.0
H1846 H 0.36501 0.17479 0.1859 0.0
C1847 C 0.36415 0.12487 0.19653 0.0
C1848 C 0.36542 0.13031 0.21033 0.0
C1849 C 0.35926 0.13342 0.18554 0.0
C1850 C 0.3592 0.17109 0.17666 0.0
H1851 H 0.36477 0.1805 0.10501 0.0
H1852 H 0.35843 0.16604 0.12544 0.0
H1853 H 0.36432 0.19 0.16535 0.0
H1854 H 0.3613 0.14846 0.22374 0.0
H1855 H 0.35243 0.16325 0.20466 0.0
H1856 H 0.341 0.14257 0.16322 0.0
C1857 C 0.35758 0.17744 0.12629 0.0
C1858 C 0.35882 0.17985 0.16482 0.0
C1859 C 0.36131 0.18574 0.1146 0.0
C1860 C 0.36063 0.14405 0.21316 0.0
C1861 C 0.35561 0.15254 0.20222 0.0
C1862 C 0.34599 0.15297 0.16383 0.0
C1863 C 0.3538 0.18383 0.13918 0.0
C1864 C 0.35232 0.17518 0.15222 0.0
C1865 C 0.35544 0.14753 0.18818 0.0
C1866 C 0.35307 0.15743 0.17623 0.0
H1867 H 0.35653 0.21838 0.12928 0.0
H1868 H 0.34986 0.2039 0.14958 0.0
H1869 H 0.34039 0.15794 0.14241 0.0
H1870 H 0.36774 0.1143 0.19404 0.0
H1871 H 0.35937 0.12923 0.17486 0.0
C1872 C 0.86262 0.78739 0.619 0.0
C1873 C 0.85815 0.77314 0.61961 0.0
C1874 C 0.854 0.79804 0.6245 0.0
C1875 C 0.81594 0.80357 0.63063 0.0
H1876 H 0.82865 0.84063 0.64364 0.0
C1877 C 0.77597 0.8477 0.63369 0.0
C1878 C 0.78025 0.85996 0.62636 0.0
C1879 C 0.78604 0.8379 0.63806 0.0
C1880 C 0.82494 0.8303 0.64008 0.0
H1881 H 0.84195 0.75871 0.62767 0.0
H1882 H 0.82719 0.77719 0.63771 0.0
H1883 H 0.84573 0.82134 0.64193 0.0
H1884 H 0.79845 0.87226 0.619 0.0
H1885 H 0.81603 0.85492 0.62624 0.0
H1886 H 0.79538 0.81249 0.6282 0.0
C1887 C 0.83705 0.78023 0.63253 0.0
C1888 C 0.83472 0.81927 0.63907 0.0
C1889 C 0.84553 0.76963 0.62684 0.0
C1890 C 0.79486 0.86286 0.6246 0.0
C1891 C 0.80494 0.85294 0.62881 0.0
C1892 C 0.80622 0.81452 0.63167 0.0
C1893 C 0.84085 0.7946 0.63087 0.0
C1894 C 0.83037 0.80585 0.63402 0.0
C1895 C 0.80056 0.84005 0.63498 0.0
C1896 C 0.81064 0.82811 0.63611 0.0
H1897 H 0.87232 0.79038 0.6135 0.0
H1898 H 0.85724 0.80897 0.62293 0.0
H1899 H 0.81221 0.79352 0.62638 0.0
H1900 H 0.76478 0.84532 0.63539 0.0
H1901 H 0.78235 0.82824 0.64312 0.0
C1902 C 0.85458 0.20845 0.37571 0.0
C1903 C 0.86924 0.2056 0.37538 0.0
C1904 C 0.84455 0.19752 0.37374 0.0
C1905 C 0.84141 0.15914 0.37845 0.0
H1906 H 0.80565 0.16272 0.35829 0.0
C1907 C 0.80235 0.11228 0.37483 0.0
C1908 C 0.788 0.11522 0.37766 0.0
C1909 C 0.81209 0.12326 0.37223 0.0
C1910 C 0.81557 0.1616 0.36402 0.0
H1911 H 0.88485 0.18921 0.37184 0.0
H1912 H 0.86739 0.17028 0.36826 0.0
H1913 H 0.82307 0.18226 0.35788 0.0
H1914 H 0.77248 0.13196 0.37935 0.0
H1915 H 0.78958 0.15116 0.37511 0.0
H1916 H 0.83392 0.13872 0.3849 0.0
C1917 C 0.86364 0.18088 0.37035 0.0
C1918 C 0.82552 0.17278 0.36378 0.0
C1919 C 0.87364 0.19175 0.37236 0.0
C1920 C 0.78348 0.12934 0.37723 0.0
C1921 C 0.79326 0.14035 0.37472 0.0
C1922 C 0.8315 0.14803 0.37872 0.0
C1923 C 0.849 0.18356 0.37138 0.0
C1924 C 0.83854 0.17165 0.37103 0.0
C1925 C 0.80774 0.13744 0.37251 0.0
C1926 C 0.81844 0.14913 0.37154 0.0
H1927 H 0.85084 0.21901 0.37798 0.0
H1928 H 0.83333 0.1999 0.37467 0.0
H1929 H 0.8512 0.15806 0.38441 0.0
H1930 H 0.80615 0.10151 0.37489 0.0
H1931 H 0.82312 0.12065 0.37026 0.0
C1932 C 0.78906 0.86244 0.36712 0.0
C1933 C 0.77498 0.8572 0.36732 0.0
C1934 C 0.80017 0.85381 0.36263 0.0
C1935 C 0.80793 0.81594 0.36161 0.0
H1936 H 0.84397 0.82867 0.34573 0.0
C1937 C 0.855 0.77844 0.35924 0.0
C1938 C 0.86781 0.784 0.36479 0.0
C1939 C 0.84388 0.78739 0.35563 0.0
C1940 C 0.83395 0.82497 0.35016 0.0
H1941 H 0.76128 0.8394 0.36165 0.0
H1942 H 0.78058 0.82451 0.35341 0.0
H1943 H 0.82364 0.84461 0.34583 0.0
H1944 H 0.87931 0.8034 0.37007 0.0
H1945 H 0.85977 0.81903 0.36402 0.0
H1946 H 0.81823 0.79654 0.36637 0.0
C1947 C 0.78313 0.83509 0.35717 0.0
C1948 C 0.82232 0.83409 0.35022 0.0
C1949 C 0.77206 0.84364 0.36181 0.0
C1950 C 0.86955 0.79878 0.36588 0.0
C1951 C 0.85838 0.80774 0.36232 0.0
C1952 C 0.81949 0.80686 0.3615 0.0
C1953 C 0.79738 0.83983 0.35813 0.0
C1954 C 0.80924 0.82975 0.3562 0.0
C1955 C 0.84529 0.80211 0.35754 0.0
C1956 C 0.83271 0.81134 0.35602 0.0
H1957 H 0.79163 0.87287 0.37129 0.0
H1958 H 0.811 0.8578 0.36359 0.0
H1959 H 0.79816 0.81231 0.3666 0.0
H1960 H 0.85338 0.76711 0.35806 0.0
H1961 H 0.83402 0.78275 0.35171 0.0
C1962 C 0.10883 0.8008 0.37784 0.0
C1963 C 0.1131 0.78671 0.37962 0.0
C1964 C 0.11891 0.81152 0.37536 0.0
C1965 C 0.15638 0.81841 0.36478 0.0
H1966 H 0.15184 0.85248 0.38722 0.0
C1967 C 0.20178 0.8592 0.37515 0.0
C1968 C 0.1982 0.87359 0.37602 0.0
C1969 C 0.19116 0.84881 0.37342 0.0
C1970 C 0.15316 0.84316 0.38068 0.0
H1971 H 0.13128 0.77276 0.37973 0.0
H1972 H 0.14889 0.79152 0.37563 0.0
H1973 H 0.13368 0.83392 0.38816 0.0
H1974 H 0.18074 0.88838 0.37493 0.0
H1975 H 0.16229 0.87027 0.37174 0.0
H1976 H 0.17606 0.82762 0.35754 0.0
C1977 C 0.13772 0.79425 0.37598 0.0
C1978 C 0.14274 0.8325 0.38122 0.0
C1979 C 0.12763 0.78351 0.37843 0.0
C1980 C 0.18386 0.87739 0.37447 0.0
C1981 C 0.17327 0.86701 0.3727 0.0
C1982 C 0.16683 0.8291 0.36424 0.0
C1983 C 0.13349 0.8084 0.37466 0.0
C1984 C 0.14427 0.81997 0.37336 0.0
C1985 C 0.17677 0.85259 0.37248 0.0
C1986 C 0.16537 0.84155 0.37227 0.0
H1987 H 0.09771 0.80362 0.37855 0.0
H1988 H 0.11529 0.82228 0.37414 0.0
H1989 H 0.15777 0.80893 0.35848 0.0
H1990 H 0.21273 0.85591 0.37629 0.0
H1991 H 0.1942 0.83778 0.3734 0.0
C1992 C 0.21159 0.13849 0.35977 0.0
C1993 C 0.209 0.12519 0.36593 0.0
C1994 C 0.20029 0.14671 0.35509 0.0
C1995 C 0.16084 0.14707 0.34951 0.0
H1996 H 0.16516 0.18528 0.36415 0.0
C1997 C 0.11396 0.18232 0.36631 0.0
C1998 C 0.11544 0.19707 0.36475 0.0
C1999 C 0.12504 0.17338 0.36241 0.0
C2000 C 0.16382 0.17477 0.3597 0.0
H2001 H 0.19266 0.10956 0.37102 0.0
H2002 H 0.17288 0.12405 0.36329 0.0
H2003 H 0.18542 0.16975 0.36409 0.0
H2004 H 0.12924 0.2139 0.35683 0.0
H2005 H 0.14844 0.19831 0.34988 0.0
H2006 H 0.13893 0.15206 0.34576 0.0
C2007 C 0.18364 0.1281 0.36183 0.0
C2008 C 0.17549 0.16582 0.35963 0.0
C2009 C 0.19498 0.1198 0.36634 0.0
C2010 C 0.12784 0.2026 0.35838 0.0
C2011 C 0.13887 0.19368 0.35442 0.0
C2012 C 0.14909 0.15605 0.34962 0.0
C2013 C 0.18613 0.14188 0.35668 0.0
C2014 C 0.17411 0.15178 0.35479 0.0
C2015 C 0.13779 0.17902 0.35681 0.0
C2016 C 0.15042 0.16992 0.35497 0.0
H2017 H 0.22232 0.14283 0.35913 0.0
H2018 H 0.20261 0.15713 0.35083 0.0
H2019 H 0.15945 0.13636 0.34556 0.0
H2020 H 0.10451 0.17771 0.37114 0.0
H2021 H 0.12392 0.16214 0.36449 0.0
C2022 C 0.20984 0.14408 0.62857 0.0
C2023 C 0.20764 0.12995 0.62435 0.0
C2024 C 0.19847 0.15219 0.63323 0.0
C2025 C 0.16057 0.15477 0.62639 0.0
H2026 H 0.16458 0.18754 0.65097 0.0
C2027 C 0.1225 0.20135 0.62131 0.0
C2028 C 0.12994 0.21417 0.619 0.0
C2029 C 0.1295 0.18969 0.62701 0.0
C2030 C 0.16323 0.17837 0.64417 0.0
H2031 H 0.19203 0.11286 0.6228 0.0
H2032 H 0.17206 0.1271 0.63099 0.0
H2033 H 0.18188 0.16851 0.65242 0.0
H2034 H 0.1502 0.22515 0.62181 0.0
H2035 H 0.16239 0.20488 0.63165 0.0
H2036 H 0.14242 0.16493 0.61759 0.0
C2037 C 0.18259 0.13192 0.63052 0.0
C2038 C 0.17312 0.16748 0.64499 0.0
C2039 C 0.19402 0.12377 0.62589 0.0
C2040 C 0.14421 0.21539 0.62338 0.0
C2041 C 0.15116 0.20379 0.62915 0.0
C2042 C 0.15066 0.16563 0.6256 0.0
C2043 C 0.18461 0.14637 0.63376 0.0
C2044 C 0.17229 0.1559 0.63563 0.0
C2045 C 0.14402 0.19068 0.63061 0.0
C2046 C 0.15228 0.17784 0.63401 0.0
H2047 H 0.22024 0.14911 0.6276 0.0
H2048 H 0.20042 0.1633 0.63548 0.0
H2049 H 0.15966 0.14608 0.61894 0.0
H2050 H 0.11147 0.20011 0.61811 0.0
H2051 H 0.12371 0.17975 0.62812 0.0
C2052 C 0.80508 0.11248 0.62122 0.0
C2053 C 0.79097 0.11638 0.61841 0.0
C2054 C 0.81557 0.12278 0.62376 0.0
C2055 C 0.822 0.16081 0.63176 0.0
H2056 H 0.85653 0.15476 0.61019 0.0
C2057 C 0.8629 0.20518 0.61798 0.0
C2058 C 0.87735 0.20156 0.61716 0.0
C2059 C 0.8525 0.19482 0.62079 0.0
C2060 C 0.84709 0.15653 0.61651 0.0
H2061 H 0.77665 0.13415 0.61681 0.0
H2062 H 0.79508 0.15218 0.62099 0.0
H2063 H 0.83803 0.13659 0.61042 0.0
H2064 H 0.89232 0.18443 0.61962 0.0
H2065 H 0.87424 0.16645 0.62475 0.0
H2066 H 0.83106 0.18099 0.63756 0.0
C2067 C 0.79798 0.14113 0.62137 0.0
C2068 C 0.83646 0.14609 0.61664 0.0
C2069 C 0.78743 0.1308 0.6189 0.0
C2070 C 0.88126 0.18754 0.61998 0.0
C2071 C 0.87089 0.17722 0.62287 0.0
C2072 C 0.83269 0.17131 0.63164 0.0
C2073 C 0.81223 0.13723 0.62346 0.0
C2074 C 0.82375 0.14813 0.62418 0.0
C2075 C 0.85637 0.18065 0.6229 0.0
C2076 C 0.84532 0.1693 0.62393 0.0
H2077 H 0.80812 0.10146 0.62112 0.0
H2078 H 0.8264 0.11942 0.62564 0.0
H2079 H 0.81236 0.16263 0.63776 0.0
H2080 H 0.85954 0.2159 0.61589 0.0
H2081 H 0.8414 0.19779 0.62065 0.0
C2082 C 0.18268 0.87893 0.61725 0.0
C2083 C 0.19694 0.87531 0.61479 0.0
C2084 C 0.17245 0.86845 0.62007 0.0
C2085 C 0.16728 0.83067 0.62987 0.0
H2086 H 0.13211 0.83468 0.60879 0.0
C2087 C 0.12705 0.78469 0.61922 0.0
C2088 C 0.11248 0.78796 0.61885 0.0
C2089 C 0.13732 0.7954 0.62115 0.0
C2090 C 0.14175 0.83349 0.61496 0.0
H2091 H 0.21175 0.85789 0.61398 0.0
H2092 H 0.1938 0.83956 0.61865 0.0
H2093 H 0.15013 0.85332 0.60777 0.0
H2094 H 0.09725 0.80489 0.62116 0.0
H2095 H 0.11513 0.82347 0.62471 0.0
H2096 H 0.15891 0.81059 0.63677 0.0
C2097 C 0.19057 0.85052 0.61856 0.0
C2098 C 0.1521 0.8442 0.61437 0.0
C2099 C 0.20085 0.86103 0.6158 0.0
C2100 C 0.10838 0.80203 0.62121 0.0
C2101 C 0.11863 0.81269 0.62319 0.0
C2102 C 0.15689 0.8199 0.63044 0.0
C2103 C 0.17621 0.8541 0.62043 0.0
C2104 C 0.16502 0.84291 0.62176 0.0
C2105 C 0.13322 0.80957 0.62278 0.0
C2106 C 0.14404 0.82119 0.62294 0.0
H2107 H 0.17934 0.88985 0.61673 0.0
H2108 H 0.16152 0.87159 0.62176 0.0
H2109 H 0.17708 0.82942 0.63578 0.0
H2110 H 0.13056 0.77395 0.61746 0.0
H2111 H 0.14848 0.79266 0.62071 0.0
C2112 C 0.11287 0.23347 0.43362 0.0
C2113 C 0.09897 0.2299 0.42924 0.0
C2114 C 0.11638 0.2337 0.44802 0.0
C2115 C 0.11931 0.24135 0.47906 0.0
H2116 H 0.09933 0.2162 0.50488 0.0
C2117 C 0.11951 0.25063 0.53943 0.0
C2118 C 0.11764 0.239 0.54849 0.0
C2119 C 0.11892 0.2488 0.52476 0.0
C2120 C 0.10526 0.22315 0.49786 0.0
H2121 H 0.07779 0.22402 0.43646 0.0
H2122 H 0.08366 0.22505 0.46147 0.0
H2123 H 0.09541 0.21381 0.47968 0.0
H2124 H 0.11456 0.21625 0.54942 0.0
H2125 H 0.11432 0.21289 0.52386 0.0
H2126 H 0.12967 0.25024 0.49724 0.0
C2127 C 0.09207 0.22715 0.45388 0.0
C2128 C 0.10277 0.22196 0.48334 0.0
C2129 C 0.08864 0.22665 0.43951 0.0
C2130 C 0.11587 0.22542 0.54264 0.0
C2131 C 0.1156 0.22353 0.52798 0.0
C2132 C 0.12202 0.24236 0.49359 0.0
C2133 C 0.106 0.23061 0.45836 0.0
C2134 C 0.10953 0.23123 0.47374 0.0
C2135 C 0.11674 0.23524 0.51881 0.0
C2136 C 0.11483 0.23344 0.50323 0.0
H2137 H 0.12109 0.23592 0.42592 0.0
H2138 H 0.12728 0.23618 0.451 0.0
H2139 H 0.12465 0.24877 0.47206 0.0
H2140 H 0.12079 0.26124 0.54368 0.0
H2141 H 0.11961 0.25813 0.51814 0.0
C2142 C 0.74406 0.10577 0.55183 0.0
C2143 C 0.75449 0.097 0.55773 0.0
C2144 C 0.74361 0.10809 0.53719 0.0
C2145 C 0.76569 0.10574 0.50489 0.0
H2146 H 0.72986 0.09978 0.48512 0.0
C2147 C 0.76334 0.08894 0.44687 0.0
C2148 C 0.75302 0.09479 0.4379 0.0
C2149 C 0.76326 0.09181 0.46134 0.0
C2150 C 0.7399 0.10174 0.4905 0.0
H2151 H 0.77278 0.08402 0.5529 0.0
H2152 H 0.77198 0.08805 0.52755 0.0
H2153 H 0.73022 0.10033 0.51101 0.0
H2154 H 0.73454 0.10831 0.43715 0.0
H2155 H 0.73437 0.11326 0.46262 0.0
H2156 H 0.77544 0.10674 0.48446 0.0
C2157 C 0.7642 0.09322 0.53419 0.0
C2158 C 0.7401 0.10206 0.50531 0.0
C2159 C 0.76458 0.09082 0.54873 0.0
C2160 C 0.74263 0.10364 0.44377 0.0
C2161 C 0.7425 0.10644 0.45834 0.0
C2162 C 0.76548 0.10543 0.49013 0.0
C2163 C 0.75369 0.10181 0.52823 0.0
C2164 C 0.75307 0.10363 0.51265 0.0
C2165 C 0.75284 0.10056 0.46726 0.0
C2166 C 0.75265 0.103 0.48278 0.0
H2167 H 0.73612 0.11068 0.55847 0.0
H2168 H 0.73542 0.1148 0.53288 0.0
H2169 H 0.7758 0.10727 0.51026 0.0
H2170 H 0.7715 0.08208 0.44273 0.0
H2171 H 0.77122 0.08691 0.46796 0.0
C2172 C 0.8735 0.74967 0.43392 0.0
C2173 C 0.8872 0.75303 0.42888 0.0
C2174 C 0.87057 0.75004 0.44842 0.0
C2175 C 0.86891 0.74358 0.47974 0.0
H2176 H 0.88978 0.7697 0.50403 0.0
C2177 C 0.87076 0.7365 0.54027 0.0
C2178 C 0.87266 0.74847 0.54893 0.0
C2179 C 0.87103 0.7378 0.52555 0.0
C2180 C 0.88362 0.76248 0.49744 0.0
H2181 H 0.90865 0.75921 0.43506 0.0
H2182 H 0.9038 0.75922 0.4603 0.0
H2183 H 0.89278 0.77112 0.47863 0.0
H2184 H 0.8756 0.77126 0.54909 0.0
H2185 H 0.87534 0.77368 0.52342 0.0
H2186 H 0.85926 0.73536 0.49854 0.0
C2187 C 0.8951 0.75681 0.45312 0.0
C2188 C 0.88557 0.76312 0.48281 0.0
C2189 C 0.89794 0.7567 0.43862 0.0
C2190 C 0.87425 0.76184 0.54263 0.0
C2191 C 0.87422 0.76319 0.5279 0.0
C2192 C 0.86675 0.74311 0.49437 0.0
C2193 C 0.88137 0.75353 0.45824 0.0
C2194 C 0.87846 0.7535 0.47376 0.0
C2195 C 0.87293 0.75115 0.51914 0.0
C2196 C 0.87428 0.75238 0.50346 0.0
H2197 H 0.86497 0.74691 0.42663 0.0
H2198 H 0.85981 0.7477 0.4519 0.0
H2199 H 0.86332 0.73589 0.47319 0.0
H2200 H 0.86961 0.72604 0.54487 0.0
H2201 H 0.87025 0.72823 0.51924 0.0
C2202 C 0.24559 0.88439 0.44054 0.0
C2203 C 0.23592 0.89378 0.4343 0.0
C2204 C 0.24552 0.88221 0.4552 0.0
C2205 C 0.22259 0.88603 0.48669 0.0
H2206 H 0.25792 0.88939 0.50782 0.0
C2207 C 0.22381 0.9017 0.54511 0.0
C2208 C 0.23341 0.89505 0.55428 0.0
C2209 C 0.22424 0.89912 0.53058 0.0
C2210 C 0.24799 0.88817 0.50206 0.0
H2211 H 0.21854 0.90811 0.4386 0.0
H2212 H 0.21847 0.90431 0.46398 0.0
H2213 H 0.25851 0.8891 0.48192 0.0
H2214 H 0.25097 0.88038 0.55536 0.0
H2215 H 0.25173 0.87591 0.52983 0.0
H2216 H 0.21202 0.88549 0.50673 0.0
C2217 C 0.22601 0.89855 0.45757 0.0
C2218 C 0.24834 0.888 0.48724 0.0
C2219 C 0.22615 0.90081 0.44301 0.0
C2220 C 0.24342 0.88567 0.54857 0.0
C2221 C 0.2439 0.88315 0.53397 0.0
C2222 C 0.22225 0.88619 0.50145 0.0
C2223 C 0.23568 0.88924 0.46385 0.0
C2224 C 0.23559 0.88735 0.47943 0.0
C2225 C 0.2343 0.88985 0.52483 0.0
C2226 C 0.23491 0.88768 0.50929 0.0
H2227 H 0.25326 0.87882 0.43412 0.0
H2228 H 0.25308 0.87495 0.45977 0.0
H2229 H 0.21261 0.88522 0.48094 0.0
H2230 H 0.21597 0.90899 0.54911 0.0
H2231 H 0.21685 0.90463 0.5238 0.0
C2232 C 0.10195 0.7429 0.55245 0.0
C2233 C 0.09193 0.75204 0.55849 0.0
C2234 C 0.10402 0.7426 0.53777 0.0
C2235 C 0.09791 0.76358 0.50536 0.0
H2236 H 0.09823 0.72729 0.48603 0.0
C2237 C 0.08382 0.75796 0.44672 0.0
C2238 C 0.09193 0.74891 0.43818 0.0
C2239 C 0.08582 0.75835 0.46134 0.0
C2240 C 0.09839 0.7375 0.49129 0.0
H2241 H 0.07634 0.76816 0.55384 0.0
H2242 H 0.07987 0.76756 0.52839 0.0
H2243 H 0.09831 0.72807 0.51191 0.0
H2244 H 0.10847 0.73309 0.43837 0.0
H2245 H 0.1119 0.73374 0.46407 0.0
H2246 H 0.09762 0.773 0.4848 0.0
C2247 C 0.08626 0.76073 0.53496 0.0
C2248 C 0.09845 0.73795 0.5061 0.0
C2249 C 0.08416 0.76099 0.54957 0.0
C2250 C 0.10206 0.74019 0.44465 0.0
C2251 C 0.10399 0.74051 0.45935 0.0
C2252 C 0.09784 0.76312 0.4906 0.0
C2253 C 0.09617 0.75151 0.52889 0.0
C2254 C 0.09785 0.75099 0.51328 0.0
C2255 C 0.09593 0.74967 0.46782 0.0
C2256 C 0.09772 0.75008 0.48341 0.0
H2257 H 0.10812 0.73587 0.55902 0.0
H2258 H 0.11179 0.73544 0.53339 0.0
H2259 H 0.09776 0.77379 0.51059 0.0
H2260 H 0.07591 0.76482 0.44213 0.0
H2261 H 0.07927 0.76533 0.4676 0.0
C2262 C 0.22035 0.10849 0.44216 0.0
C2263 C 0.2322 0.11466 0.43536 0.0
C2264 C 0.2184 0.11024 0.45671 0.0
C2265 C 0.2302 0.13151 0.48776 0.0
H2266 H 0.22137 0.09712 0.50854 0.0
C2267 C 0.2418 0.12484 0.54731 0.0
C2268 C 0.23214 0.1168 0.55546 0.0
C2269 C 0.23993 0.12604 0.5327 0.0
C2270 C 0.22359 0.10688 0.50291 0.0
H2271 H 0.25102 0.12793 0.43837 0.0
H2272 H 0.24774 0.13083 0.46377 0.0
H2273 H 0.22131 0.09668 0.4828 0.0
H2274 H 0.21262 0.10422 0.55479 0.0
H2275 H 0.2093 0.10642 0.52929 0.0
H2276 H 0.23282 0.1416 0.50794 0.0
C2277 C 0.23985 0.12477 0.45785 0.0
C2278 C 0.22355 0.10664 0.48814 0.0
C2279 C 0.24179 0.12303 0.44331 0.0
C2280 C 0.22031 0.11039 0.54878 0.0
C2281 C 0.21844 0.11161 0.53417 0.0
C2282 C 0.23024 0.13176 0.50255 0.0
C2283 C 0.22827 0.11819 0.46476 0.0
C2284 C 0.22705 0.11889 0.4804 0.0
C2285 C 0.22835 0.11924 0.52594 0.0
C2286 C 0.22714 0.11939 0.51028 0.0
H2287 H 0.21271 0.10207 0.43629 0.0
H2288 H 0.20926 0.10521 0.4617 0.0
H2289 H 0.23274 0.14117 0.48208 0.0
H2290 H 0.25101 0.1299 0.55217 0.0
H2291 H 0.24784 0.13187 0.52663 0.0
C2292 C 0.88596 0.24568 0.54945 0.0
C2293 C 0.89596 0.23623 0.55504 0.0
C2294 C 0.88335 0.24613 0.53487 0.0
C2295 C 0.8878 0.22539 0.50191 0.0
H2296 H 0.88771 0.26195 0.48329 0.0
C2297 C 0.90006 0.23162 0.44294 0.0
C2298 C 0.89205 0.24114 0.43486 0.0
C2299 C 0.89844 0.23096 0.45759 0.0
C2300 C 0.88746 0.25167 0.48835 0.0
H2301 H 0.91088 0.21971 0.54966 0.0
H2302 H 0.9064 0.22057 0.52435 0.0
H2303 H 0.88851 0.2608 0.50912 0.0
H2304 H 0.87603 0.25744 0.43591 0.0
H2305 H 0.87325 0.2563 0.46165 0.0
H2306 H 0.88712 0.21625 0.48118 0.0
C2307 C 0.90046 0.22753 0.53123 0.0
C2308 C 0.88792 0.25101 0.50314 0.0
C2309 C 0.9031 0.22711 0.54575 0.0
C2310 C 0.88236 0.25 0.44182 0.0
C2311 C 0.8808 0.24938 0.45655 0.0
C2312 C 0.88735 0.22605 0.48716 0.0
C2313 C 0.89062 0.23709 0.5256 0.0
C2314 C 0.88844 0.23785 0.51006 0.0
C2315 C 0.88881 0.23981 0.46457 0.0
C2316 C 0.88754 0.23919 0.48021 0.0
H2317 H 0.88026 0.25284 0.55632 0.0
H2318 H 0.87564 0.25354 0.53085 0.0
H2319 H 0.88788 0.21509 0.50694 0.0
H2320 H 0.90764 0.22464 0.43796 0.0
H2321 H 0.90495 0.22364 0.46349 0.0
C2322 C 0.74371 0.86277 0.44512 0.0
C2323 C 0.75337 0.87051 0.43671 0.0
C2324 C 0.74596 0.86149 0.45968 0.0
C2325 C 0.7638 0.88002 0.48905 0.0
H2326 H 0.75391 0.84603 0.51005 0.0
C2327 C 0.76897 0.87799 0.54966 0.0
C2328 C 0.75712 0.87227 0.55685 0.0
C2329 C 0.77031 0.87625 0.53504 0.0
C2330 C 0.75666 0.85561 0.50433 0.0
H2331 H 0.77328 0.88247 0.43682 0.0
H2332 H 0.77727 0.88012 0.46222 0.0
H2333 H 0.7531 0.84567 0.4842 0.0
H2334 H 0.73768 0.8598 0.55446 0.0
H2335 H 0.73994 0.8569 0.52892 0.0
H2336 H 0.76705 0.89006 0.50911 0.0
C2337 C 0.76783 0.87524 0.4576 0.0
C2338 C 0.7562 0.85541 0.48954 0.0
C2339 C 0.76558 0.87653 0.44305 0.0
C2340 C 0.74692 0.86435 0.54921 0.0
C2341 C 0.74826 0.86261 0.53459 0.0
C2342 C 0.76427 0.88022 0.50381 0.0
C2343 C 0.75792 0.8679 0.46612 0.0
C2344 C 0.75957 0.86767 0.48174 0.0
C2345 C 0.75985 0.86875 0.52731 0.0
C2346 C 0.76051 0.86808 0.51162 0.0
H2347 H 0.7342 0.858 0.44054 0.0
H2348 H 0.73804 0.8559 0.46595 0.0
H2349 H 0.76623 0.88971 0.48338 0.0
H2350 H 0.77707 0.88406 0.55528 0.0
H2351 H 0.77947 0.88093 0.52976 0.0
C2352 C 0.44182 0.11071 0.21949 0.0
C2353 C 0.43553 0.11647 0.23166 0.0
C2354 C 0.45651 0.11195 0.21735 0.0
C2355 C 0.48911 0.13114 0.22943 0.0
H2356 H 0.50788 0.09643 0.21865 0.0
C2357 C 0.54861 0.12097 0.23983 0.0
C2358 C 0.55623 0.11306 0.22983 0.0
C2359 C 0.53401 0.12305 0.23814 0.0
C2360 C 0.50282 0.1063 0.22141 0.0
H2361 H 0.4396 0.1285 0.25088 0.0
H2362 H 0.46523 0.1305 0.24724 0.0
H2363 H 0.482 0.09714 0.21904 0.0
H2364 H 0.55469 0.10171 0.20989 0.0
H2365 H 0.52921 0.10545 0.20688 0.0
H2366 H 0.51 0.14017 0.23214 0.0
C2367 C 0.45882 0.12516 0.23926 0.0
C2368 C 0.48797 0.1067 0.22163 0.0
C2369 C 0.44414 0.12393 0.2414 0.0
C2370 C 0.54908 0.10775 0.21784 0.0
C2371 C 0.53448 0.10984 0.21614 0.0
C2372 C 0.50399 0.13074 0.2292 0.0
C2373 C 0.4652 0.11898 0.22734 0.0
C2374 C 0.48094 0.11906 0.22585 0.0
C2375 C 0.52673 0.11729 0.2264 0.0
C2376 C 0.511 0.11824 0.2254 0.0
H2377 H 0.43544 0.105 0.21174 0.0
H2378 H 0.46108 0.10726 0.20796 0.0
H2379 H 0.484 0.14088 0.23253 0.0
H2380 H 0.55384 0.12521 0.24918 0.0
H2381 H 0.52833 0.12871 0.24631 0.0
C2382 C 0.88519 0.54489 0.25151 0.0
C2383 C 0.89534 0.55228 0.2433 0.0
C2384 C 0.88463 0.53006 0.25137 0.0
C2385 C 0.90684 0.49917 0.24288 0.0
H2386 H 0.87091 0.47849 0.24052 0.0
C2387 C 0.90451 0.44054 0.22762 0.0
C2388 C 0.89567 0.43149 0.23564 0.0
C2389 C 0.90373 0.45519 0.22916 0.0
C2390 C 0.88101 0.48413 0.24134 0.0
H2391 H 0.91267 0.54983 0.2283 0.0
H2392 H 0.91156 0.52416 0.22795 0.0
H2393 H 0.87096 0.50436 0.24234 0.0
H2394 H 0.87878 0.43082 0.25133 0.0
H2395 H 0.87745 0.45654 0.254 0.0
H2396 H 0.91691 0.47905 0.24169 0.0
C2397 C 0.90421 0.52977 0.23471 0.0
C2398 C 0.88104 0.49893 0.2424 0.0
C2399 C 0.90478 0.54452 0.23485 0.0
C2400 C 0.88576 0.43749 0.245 0.0
C2401 C 0.88495 0.45221 0.2465 0.0
C2402 C 0.90681 0.48445 0.24178 0.0
C2403 C 0.89422 0.52235 0.24303 0.0
C2404 C 0.89398 0.50661 0.24294 0.0
C2405 C 0.89409 0.46119 0.23875 0.0
C2406 C 0.89391 0.47677 0.24077 0.0
H2407 H 0.87776 0.55055 0.25813 0.0
H2408 H 0.87686 0.52464 0.25796 0.0
H2409 H 0.91698 0.50474 0.24362 0.0
H2410 H 0.91221 0.43632 0.22025 0.0
H2411 H 0.91074 0.46185 0.22285 0.0
C2412 C 0.53786 0.87003 0.24463 0.0
C2413 C 0.54677 0.87686 0.23474 0.0
C2414 C 0.52304 0.87079 0.24338 0.0
C2415 C 0.49589 0.894 0.22867 0.0
H2416 H 0.46978 0.86263 0.2358 0.0
C2417 C 0.4358 0.8993 0.21957 0.0
C2418 C 0.42653 0.89328 0.22965 0.0
C2419 C 0.45032 0.89641 0.21985 0.0
C2420 C 0.47694 0.87152 0.23393 0.0
H2421 H 0.54716 0.88918 0.21538 0.0
H2422 H 0.52135 0.89042 0.21317 0.0
H2423 H 0.49549 0.85879 0.23662 0.0
H2424 H 0.42527 0.87932 0.24784 0.0
H2425 H 0.45075 0.87447 0.24848 0.0
H2426 H 0.47749 0.90681 0.2262 0.0
C2427 C 0.5258 0.88469 0.22202 0.0
C2428 C 0.49164 0.86931 0.23437 0.0
C2429 C 0.54058 0.88391 0.22324 0.0
C2430 C 0.43212 0.88413 0.23992 0.0
C2431 C 0.44671 0.88128 0.24023 0.0
C2432 C 0.48124 0.89622 0.2283 0.0
C2433 C 0.51688 0.87841 0.23223 0.0
C2434 C 0.50126 0.88053 0.23167 0.0
C2435 C 0.45599 0.88749 0.23026 0.0
C2436 C 0.47158 0.88501 0.23085 0.0
H2437 H 0.54232 0.86449 0.25359 0.0
H2438 H 0.51643 0.8659 0.25145 0.0
H2439 H 0.50303 0.90293 0.22685 0.0
H2440 H 0.43185 0.90628 0.21142 0.0
H2441 H 0.45712 0.90114 0.21184 0.0
C2442 C 0.10835 0.55724 0.24198 0.0
C2443 C 0.09471 0.56202 0.23843 0.0
C2444 C 0.11116 0.54274 0.24236 0.0
C2445 C 0.11263 0.51164 0.24996 0.0
H2446 H 0.09249 0.48648 0.22412 0.0
C2447 C 0.11201 0.45091 0.25705 0.0
C2448 C 0.11073 0.44231 0.24497 0.0
C2449 C 0.11129 0.46564 0.25589 0.0
C2450 C 0.09842 0.49332 0.23128 0.0
H2451 H 0.07322 0.5554 0.23282 0.0
H2452 H 0.07789 0.5302 0.23407 0.0
H2453 H 0.08915 0.51178 0.22238 0.0
H2454 H 0.10846 0.44229 0.22215 0.0
H2455 H 0.1079 0.46795 0.21999 0.0
H2456 H 0.12239 0.49318 0.25843 0.0
C2457 C 0.08662 0.53757 0.23606 0.0
C2458 C 0.09628 0.50789 0.23045 0.0
C2459 C 0.08389 0.55204 0.23545 0.0
C2460 C 0.1093 0.44869 0.23166 0.0
C2461 C 0.10887 0.4634 0.23045 0.0
C2462 C 0.11495 0.49707 0.25063 0.0
C2463 C 0.10032 0.53271 0.23943 0.0
C2464 C 0.10319 0.51724 0.23991 0.0
C2465 C 0.10953 0.47208 0.24258 0.0
C2466 C 0.10775 0.48769 0.2414 0.0
H2467 H 0.11694 0.5647 0.24424 0.0
H2468 H 0.12189 0.53944 0.24477 0.0
H2469 H 0.11804 0.51847 0.25752 0.0
H2470 H 0.11303 0.44624 0.26747 0.0
H2471 H 0.11163 0.4719 0.2655 0.0
C2472 C 0.44233 0.86345 0.74576 0.0
C2473 C 0.43368 0.87064 0.75546 0.0
C2474 C 0.45702 0.86266 0.74797 0.0
C2475 C 0.48611 0.88183 0.76599 0.0
H2476 H 0.50807 0.84864 0.75657 0.0
C2477 C 0.547 0.88174 0.77246 0.0
C2478 C 0.55463 0.8763 0.76092 0.0
C2479 C 0.53229 0.87949 0.77348 0.0
C2480 C 0.50208 0.85801 0.75919 0.0
H2481 H 0.43355 0.88213 0.77538 0.0
H2482 H 0.45914 0.88064 0.77928 0.0
H2483 H 0.48208 0.84751 0.7552 0.0
H2484 H 0.55293 0.86378 0.74169 0.0
H2485 H 0.52727 0.86004 0.74336 0.0
H2486 H 0.50603 0.89244 0.76966 0.0
C2487 C 0.45461 0.87582 0.76986 0.0
C2488 C 0.48721 0.85736 0.7584 0.0
C2489 C 0.43994 0.87662 0.76764 0.0
C2490 C 0.54735 0.86812 0.75071 0.0
C2491 C 0.53264 0.8659 0.75171 0.0
C2492 C 0.50095 0.88248 0.76676 0.0
C2493 C 0.46335 0.86904 0.75993 0.0
C2494 C 0.47907 0.86932 0.76164 0.0
C2495 C 0.52491 0.87178 0.76297 0.0
C2496 C 0.50912 0.87063 0.76322 0.0
H2497 H 0.43781 0.85874 0.73627 0.0
H2498 H 0.46348 0.85748 0.74006 0.0
H2499 H 0.48017 0.8913 0.76833 0.0
H2500 H 0.55234 0.88799 0.78056 0.0
H2501 H 0.52667 0.88397 0.7824 0.0
C2502 C 0.08747 0.44223 0.7628 0.0
C2503 C 0.09418 0.43327 0.75302 0.0
C2504 C 0.09036 0.45676 0.76283 0.0
C2505 C 0.10234 0.48574 0.73991 0.0
H2506 H 0.10505 0.50631 0.77541 0.0
C2507 C 0.10794 0.54703 0.74263 0.0
C2508 C 0.09882 0.55356 0.75241 0.0
C2509 C 0.10962 0.53232 0.74272 0.0
C2510 C 0.10428 0.50072 0.76541 0.0
H2511 H 0.10933 0.4326 0.7357 0.0
H2512 H 0.11433 0.4581 0.73574 0.0
H2513 H 0.10403 0.4805 0.77558 0.0
H2514 H 0.08448 0.54971 0.77007 0.0
H2515 H 0.08734 0.52422 0.77014 0.0
H2516 H 0.10219 0.50601 0.72976 0.0
C2517 C 0.1068 0.4538 0.74334 0.0
C2518 C 0.1037 0.48595 0.76551 0.0
C2519 C 0.10398 0.4392 0.74336 0.0
C2520 C 0.09159 0.54508 0.76237 0.0
C2521 C 0.09332 0.53044 0.7625 0.0
C2522 C 0.1029 0.50055 0.73981 0.0
C2523 C 0.09998 0.46273 0.75306 0.0
C2524 C 0.10237 0.4783 0.75279 0.0
C2525 C 0.10231 0.52387 0.75266 0.0
C2526 C 0.10351 0.5082 0.75259 0.0
H2527 H 0.07988 0.43805 0.77039 0.0
H2528 H 0.08476 0.46337 0.77031 0.0
H2529 H 0.10121 0.48014 0.72994 0.0
H2530 H 0.11368 0.55326 0.73482 0.0
H2531 H 0.11668 0.52755 0.73506 0.0
C2532 C 0.4351 0.10503 0.75097 0.0
C2533 C 0.42946 0.0963 0.7617 0.0
C2534 C 0.44973 0.10808 0.75044 0.0
C2535 C 0.48397 0.09379 0.76268 0.0
H2536 H 0.49935 0.13065 0.75224 0.0
C2537 C 0.54363 0.10615 0.76713 0.0
C2538 C 0.55012 0.11267 0.75539 0.0
C2539 C 0.52882 0.10545 0.76825 0.0
C2540 C 0.49518 0.12028 0.75508 0.0
H2541 H 0.43469 0.08444 0.78061 0.0
H2542 H 0.46003 0.08995 0.77983 0.0
H2543 H 0.4735 0.12698 0.75355 0.0
H2544 H 0.5462 0.12411 0.73592 0.0
H2545 H 0.52022 0.12281 0.73787 0.0
H2546 H 0.50554 0.08705 0.76421 0.0
C2547 C 0.45325 0.09416 0.77162 0.0
C2548 C 0.4804 0.11817 0.7558 0.0
C2549 C 0.43868 0.09106 0.77211 0.0
C2550 C 0.54149 0.119 0.74508 0.0
C2551 C 0.52663 0.1183 0.74622 0.0
C2552 C 0.49868 0.09591 0.762 0.0
C2553 C 0.45899 0.10251 0.76066 0.0
C2554 C 0.47464 0.1049 0.7597 0.0
C2555 C 0.52015 0.11124 0.75767 0.0
C2556 C 0.50446 0.10918 0.75828 0.0
H2557 H 0.42829 0.10924 0.74278 0.0
H2558 H 0.45383 0.11446 0.7418 0.0
H2559 H 0.47991 0.08334 0.76537 0.0
H2560 H 0.54997 0.10128 0.77532 0.0
H2561 H 0.52414 0.10017 0.77733 0.0
C2562 C 0.8809 0.554 0.74574 0.0
C2563 C 0.89074 0.56001 0.75533 0.0
C2564 C 0.87824 0.53939 0.74563 0.0
C2565 C 0.89454 0.50573 0.75643 0.0
H2566 H 0.85665 0.4901 0.74991 0.0
C2567 C 0.88303 0.44605 0.76054 0.0
C2568 C 0.87521 0.43993 0.74935 0.0
C2569 C 0.88388 0.46074 0.76207 0.0
C2570 C 0.8673 0.49433 0.75166 0.0
H2571 H 0.90521 0.55541 0.7726 0.0
H2572 H 0.90039 0.53003 0.77258 0.0
H2573 H 0.86019 0.51578 0.75111 0.0
H2574 H 0.86167 0.44439 0.73132 0.0
H2575 H 0.8632 0.47011 0.73401 0.0
H2576 H 0.90167 0.48434 0.75698 0.0
C2577 C 0.89495 0.53655 0.76493 0.0
C2578 C 0.86934 0.50902 0.75232 0.0
C2579 C 0.89766 0.55113 0.76498 0.0
C2580 C 0.8678 0.4488 0.74004 0.0
C2581 C 0.86863 0.46352 0.74161 0.0
C2582 C 0.89249 0.49109 0.75585 0.0
C2583 C 0.88532 0.53049 0.75516 0.0
C2584 C 0.883 0.51489 0.75469 0.0
C2585 C 0.8769 0.46964 0.75248 0.0
C2586 C 0.87887 0.48522 0.75344 0.0
H2587 H 0.8754 0.56054 0.73814 0.0
H2588 H 0.87089 0.53505 0.73786 0.0
H2589 H 0.90525 0.50988 0.75798 0.0
H2590 H 0.88877 0.43951 0.76795 0.0
H2591 H 0.89015 0.46515 0.7707 0.0
C2592 C 0.2219 0.54117 0.10189 0.0
C2593 C 0.23297 0.54812 0.10927 0.0
C2594 C 0.22116 0.5264 0.10145 0.0
C2595 C 0.23404 0.49384 0.11854 0.0
H2596 H 0.22755 0.47731 0.08143 0.0
C2597 C 0.24303 0.43452 0.10641 0.0
C2598 C 0.23325 0.42771 0.0973 0.0
C2599 C 0.24251 0.44916 0.10856 0.0
C2600 C 0.22917 0.48173 0.09191 0.0
H2601 H 0.25159 0.54507 0.12247 0.0
H2602 H 0.2503 0.51924 0.12166 0.0
H2603 H 0.22709 0.5029 0.08431 0.0
H2604 H 0.21505 0.43093 0.08354 0.0
H2605 H 0.21402 0.45634 0.08744 0.0
H2606 H 0.23616 0.47262 0.12611 0.0
C2607 C 0.24218 0.52522 0.11626 0.0
C2608 C 0.22891 0.4964 0.09356 0.0
C2609 C 0.24295 0.54001 0.11667 0.0
C2610 C 0.22283 0.43583 0.09054 0.0
C2611 C 0.22228 0.45043 0.09272 0.0
C2612 C 0.23426 0.47912 0.1169 0.0
C2613 C 0.23143 0.51827 0.10841 0.0
C2614 C 0.23135 0.50263 0.10688 0.0
C2615 C 0.23217 0.45729 0.10167 0.0
C2616 C 0.23184 0.4729 0.10355 0.0
H2617 H 0.21399 0.54712 0.09616 0.0
H2618 H 0.21262 0.52133 0.0955 0.0
H2619 H 0.23583 0.49834 0.12896 0.0
H2620 H 0.25121 0.42858 0.11177 0.0
H2621 H 0.25039 0.45414 0.1154 0.0
C2622 C 0.24667 0.54152 0.87111 0.0
C2623 C 0.23717 0.5495 0.87926 0.0
C2624 C 0.24554 0.52675 0.87079 0.0
C2625 C 0.22137 0.49652 0.87963 0.0
H2626 H 0.25669 0.47603 0.88342 0.0
C2627 C 0.22348 0.43856 0.89833 0.0
C2628 C 0.23285 0.42946 0.89128 0.0
C2629 C 0.22363 0.45305 0.89545 0.0
C2630 C 0.24675 0.48159 0.88216 0.0
H2631 H 0.21874 0.54831 0.89308 0.0
H2632 H 0.21694 0.52258 0.89273 0.0
H2633 H 0.25742 0.50167 0.88056 0.0
H2634 H 0.24972 0.42847 0.87561 0.0
H2635 H 0.25001 0.45383 0.87064 0.0
H2636 H 0.21072 0.47642 0.88162 0.0
C2637 C 0.22514 0.5277 0.88642 0.0
C2638 C 0.24716 0.49628 0.88049 0.0
C2639 C 0.22623 0.54246 0.8867 0.0
C2640 C 0.24237 0.43519 0.88125 0.0
C2641 C 0.24258 0.44971 0.87843 0.0
C2642 C 0.22097 0.48184 0.88138 0.0
C2643 C 0.23492 0.51966 0.87864 0.0
C2644 C 0.23447 0.50394 0.87936 0.0
C2645 C 0.23321 0.45879 0.8855 0.0
C2646 C 0.23365 0.47425 0.88282 0.0
H2647 H 0.25515 0.54666 0.86519 0.0
H2648 H 0.25309 0.52088 0.86449 0.0
H2649 H 0.21141 0.50208 0.87854 0.0
H2650 H 0.21599 0.43451 0.90611 0.0
H2651 H 0.21641 0.45982 0.90119 0.0
C2652 C 0.44301 0.22834 0.88232 0.0
C2653 C 0.43623 0.23934 0.87507 0.0
C2654 C 0.45761 0.22619 0.88064 0.0
C2655 C 0.49036 0.24538 0.87055 0.0
H2656 H 0.50676 0.20792 0.86947 0.0
C2657 C 0.55046 0.23856 0.86426 0.0
C2658 C 0.55685 0.22921 0.87382 0.0
C2659 C 0.5357 0.23853 0.86252 0.0
C2660 C 0.50232 0.21844 0.86982 0.0
H2661 H 0.43932 0.25643 0.86003 0.0
H2662 H 0.46475 0.25258 0.85696 0.0
H2663 H 0.48087 0.21038 0.87001 0.0
H2664 H 0.55288 0.21196 0.88848 0.0
H2665 H 0.52703 0.21203 0.88558 0.0
H2666 H 0.51171 0.25347 0.8706 0.0
C2667 C 0.45884 0.24576 0.86414 0.0
C2668 C 0.48751 0.21985 0.87015 0.0
C2669 C 0.44426 0.24794 0.86585 0.0
C2670 C 0.54825 0.21931 0.88106 0.0
C2671 C 0.53345 0.21931 0.87935 0.0
C2672 C 0.50512 0.24397 0.87021 0.0
C2673 C 0.46571 0.23498 0.87164 0.0
C2674 C 0.48138 0.23335 0.87061 0.0
C2675 C 0.527 0.22919 0.87035 0.0
C2676 C 0.51128 0.2305 0.86991 0.0
H2677 H 0.4371 0.22153 0.8895 0.0
H2678 H 0.4626 0.2179 0.8867 0.0
H2679 H 0.486 0.25592 0.87119 0.0
H2680 H 0.55682 0.24621 0.85841 0.0
H2681 H 0.53107 0.24607 0.85529 0.0
C2682 C 0.74383 0.55221 0.88584 0.0
C2683 C 0.75323 0.55881 0.89548 0.0
C2684 C 0.74447 0.53762 0.88337 0.0
C2685 C 0.75769 0.50465 0.89955 0.0
H2686 H 0.75232 0.48903 0.86188 0.0
C2687 C 0.76699 0.44586 0.88796 0.0
C2688 C 0.75611 0.43877 0.88044 0.0
C2689 C 0.76734 0.46062 0.88872 0.0
C2690 C 0.75377 0.49326 0.87246 0.0
H2691 H 0.77088 0.55528 0.90986 0.0
H2692 H 0.77216 0.53 0.90536 0.0
H2693 H 0.75136 0.51465 0.86547 0.0
H2694 H 0.73745 0.44162 0.86724 0.0
H2695 H 0.73808 0.46745 0.86856 0.0
H2696 H 0.76015 0.48331 0.90655 0.0
C2697 C 0.76407 0.536 0.89994 0.0
C2698 C 0.75317 0.50791 0.87454 0.0
C2699 C 0.76337 0.55054 0.90246 0.0
C2700 C 0.74595 0.44678 0.87315 0.0
C2701 C 0.74634 0.46157 0.87386 0.0
C2702 C 0.75837 0.49005 0.89747 0.0
C2703 C 0.75458 0.52934 0.89043 0.0
C2704 C 0.75514 0.51378 0.88812 0.0
C2705 C 0.75685 0.46862 0.88192 0.0
C2706 C 0.75643 0.48419 0.88391 0.0
H2707 H 0.73587 0.55828 0.8803 0.0
H2708 H 0.73689 0.5328 0.87611 0.0
H2709 H 0.75896 0.50877 0.9102 0.0
H2710 H 0.77503 0.44 0.89362 0.0
H2711 H 0.7757 0.46579 0.89483 0.0
C2712 C 0.44154 0.75309 0.86763 0.0
C2713 C 0.43393 0.76275 0.87594 0.0
C2714 C 0.45627 0.75459 0.86603 0.0
C2715 C 0.48723 0.76921 0.88485 0.0
H2716 H 0.50731 0.75948 0.85039 0.0
C2717 C 0.54854 0.7692 0.88242 0.0
C2718 C 0.55459 0.75735 0.87585 0.0
C2719 C 0.53398 0.77176 0.88111 0.0
C2720 C 0.50185 0.76217 0.8601 0.0
H2721 H 0.43565 0.78197 0.88847 0.0
H2722 H 0.4614 0.78464 0.8856 0.0
H2723 H 0.48135 0.76092 0.85015 0.0
H2724 H 0.55022 0.73909 0.86249 0.0
H2725 H 0.52478 0.74345 0.86036 0.0
H2726 H 0.50763 0.7701 0.89491 0.0
C2727 C 0.45599 0.77579 0.8805 0.0
C2728 C 0.48699 0.76302 0.85996 0.0
C2729 C 0.44124 0.77431 0.88208 0.0
C2730 C 0.54586 0.74831 0.86767 0.0
C2731 C 0.5313 0.75087 0.86637 0.0
C2732 C 0.50206 0.76836 0.88499 0.0
C2733 C 0.4637 0.76578 0.87271 0.0
C2734 C 0.47951 0.76632 0.8724 0.0
C2735 C 0.52516 0.76253 0.87321 0.0
C2736 C 0.50952 0.76461 0.87268 0.0
H2737 H 0.4362 0.74409 0.86273 0.0
H2738 H 0.4619 0.74661 0.86008 0.0
H2739 H 0.48178 0.77156 0.89466 0.0
H2740 H 0.55501 0.77642 0.88871 0.0
H2741 H 0.5296 0.78094 0.88634 0.0
C2742 C 0.73926 0.55103 0.10898 0.0
C2743 C 0.74855 0.55713 0.09895 0.0
C2744 C 0.73944 0.53647 0.11161 0.0
C2745 C 0.76216 0.50517 0.1082 0.0
H2746 H 0.72649 0.48399 0.10964 0.0
C2747 C 0.75913 0.44437 0.10329 0.0
C2748 C 0.74861 0.437 0.11101 0.0
C2749 C 0.75965 0.45915 0.10341 0.0
C2750 C 0.73655 0.48977 0.10953 0.0
H2751 H 0.76531 0.55266 0.08381 0.0
H2752 H 0.76556 0.52731 0.08837 0.0
H2753 H 0.72619 0.50962 0.10676 0.0
H2754 H 0.73081 0.43931 0.12542 0.0
H2755 H 0.73189 0.46512 0.12583 0.0
H2756 H 0.77253 0.48533 0.11089 0.0
C2757 C 0.75824 0.53381 0.09429 0.0
C2758 C 0.73636 0.50445 0.10784 0.0
C2759 C 0.758 0.54833 0.09161 0.0
C2760 C 0.73897 0.4447 0.11928 0.0
C2761 C 0.73953 0.45949 0.11944 0.0
C2762 C 0.76235 0.49049 0.10996 0.0
C2763 C 0.74898 0.52773 0.10432 0.0
C2764 C 0.74916 0.51227 0.10697 0.0
C2765 C 0.74971 0.46689 0.1113 0.0
C2766 C 0.74955 0.4826 0.11047 0.0
H2767 H 0.73186 0.5575 0.11484 0.0
H2768 H 0.73224 0.53208 0.11946 0.0
H2769 H 0.77219 0.51097 0.10779 0.0
H2770 H 0.7667 0.43873 0.09681 0.0
H2771 H 0.76753 0.46451 0.09689 0.0
C2772 C 0.55024 0.76756 0.08921 0.0
C2773 C 0.55935 0.75771 0.09551 0.0
C2774 C 0.53564 0.76716 0.09199 0.0
C2775 C 0.50849 0.75308 0.11693 0.0
H2776 H 0.48301 0.75936 0.0853 0.0
C2777 C 0.44743 0.74187 0.11832 0.0
C2778 C 0.43875 0.75175 0.11148 0.0
C2779 C 0.46228 0.7431 0.11752 0.0
C2780 C 0.48999 0.75775 0.09428 0.0
H2781 H 0.56026 0.73979 0.10981 0.0
H2782 H 0.5347 0.73892 0.11444 0.0
H2783 H 0.50863 0.76034 0.08156 0.0
H2784 H 0.4388 0.77103 0.09902 0.0
H2785 H 0.46464 0.77319 0.09768 0.0
H2786 H 0.48969 0.75026 0.12957 0.0
C2787 C 0.5389 0.7471 0.10752 0.0
C2788 C 0.50468 0.75833 0.09214 0.0
C2789 C 0.55354 0.74755 0.1048 0.0
C2790 C 0.44519 0.76317 0.10431 0.0
C2791 C 0.46 0.76438 0.10347 0.0
C2792 C 0.49375 0.75243 0.11905 0.0
C2793 C 0.52976 0.75684 0.10105 0.0
C2794 C 0.51412 0.75608 0.10344 0.0
C2795 C 0.4687 0.75421 0.10982 0.0
C2796 C 0.48435 0.75485 0.10775 0.0
H2797 H 0.55437 0.77561 0.0821 0.0
H2798 H 0.52896 0.77499 0.08704 0.0
H2799 H 0.51548 0.75144 0.12589 0.0
H2800 H 0.44277 0.73296 0.12394 0.0
H2801 H 0.46873 0.73507 0.12247 0.0
C2802 C 0.54117 0.21586 0.10614 0.0
C2803 C 0.54782 0.22752 0.11281 0.0
C2804 C 0.52633 0.21475 0.10556 0.0
C2805 C 0.49286 0.22828 0.12077 0.0
H2806 H 0.4777 0.21969 0.08347 0.0
C2807 C 0.43396 0.2374 0.10546 0.0
C2808 C 0.42738 0.22749 0.09633 0.0
C2809 C 0.44851 0.23657 0.10849 0.0
C2810 C 0.48171 0.22188 0.09402 0.0
H2811 H 0.54413 0.24677 0.12475 0.0
H2812 H 0.51819 0.24484 0.12371 0.0
H2813 H 0.50328 0.21931 0.08739 0.0
H2814 H 0.43086 0.20869 0.08361 0.0
H2815 H 0.4561 0.20712 0.08909 0.0
H2816 H 0.47123 0.23094 0.12736 0.0
C2817 C 0.52446 0.23654 0.11896 0.0
C2818 C 0.49639 0.22166 0.09626 0.0
C2819 C 0.53932 0.23767 0.11951 0.0
C2820 C 0.4356 0.21658 0.09057 0.0
C2821 C 0.45011 0.21571 0.09366 0.0
C2822 C 0.47812 0.22844 0.11854 0.0
C2823 C 0.51782 0.22525 0.11168 0.0
C2824 C 0.50214 0.2249 0.10963 0.0
C2825 C 0.45678 0.22579 0.10252 0.0
C2826 C 0.47239 0.22529 0.10511 0.0
H2827 H 0.54742 0.2078 0.10097 0.0
H2828 H 0.52151 0.2058 0.10009 0.0
H2829 H 0.49698 0.23072 0.13122 0.0
H2830 H 0.42793 0.24595 0.11006 0.0
H2831 H 0.45333 0.2446 0.11523 0.0
C2832 C 0.60643 0.72841 0.0432 0.0
C2833 C 0.6141 0.73932 0.05007 0.0
C2834 C 0.60658 0.72731 0.02845 0.0
C2835 C 0.6126 0.74911 -0.00334 0.0
H2836 H 0.61108 0.71283 0.97737 0.0
C2837 C 0.61096 0.74456 0.93569 0.0
C2838 C 0.60071 0.73504 0.93017 0.0
C2839 C 0.61414 0.74462 0.95015 0.0
C2840 C 0.61144 0.72303 0.98262 0.0
H2841 H 0.62841 0.75727 0.04691 0.0
H2842 H 0.62886 0.75521 0.02116 0.0
H2843 H 0.61426 0.71362 0.00301 0.0
H2844 H 0.58597 0.71794 0.9355 0.0
H2845 H 0.59152 0.71811 0.96069 0.0
H2846 H 0.60964 0.7585 0.9763 0.0
C2847 C 0.6225 0.74768 0.02716 0.0
C2848 C 0.61325 0.7235 -0.00269 0.0
C2849 C 0.62231 0.74881 0.04192 0.0
C2850 C 0.59391 0.72543 0.93939 0.0
C2851 C 0.59715 0.72545 0.95382 0.0
C2852 C 0.61086 0.74865 0.98198 0.0
C2853 C 0.61445 0.73705 0.02024 0.0
C2854 C 0.61365 0.73654 0.00453 0.0
C2855 C 0.60722 0.73512 0.95938 0.0
C2856 C 0.61007 0.7356 0.97483 0.0
H2857 H 0.59999 0.72094 0.04918 0.0
H2858 H 0.60012 0.71911 0.02348 0.0
H2859 H 0.61263 0.75933 0.00189 0.0
H2860 H 0.61642 0.75208 0.92889 0.0
H2861 H 0.62205 0.75211 0.95412 0.0
C2862 C 0.24363 0.60235 0.9411 0.0
C2863 C 0.25373 0.59315 0.93525 0.0
C2864 C 0.24311 0.60462 0.95575 0.0
C2865 C 0.2649 0.60143 0.98812 0.0
H2866 H 0.2288 0.59765 0.0078 0.0
C2867 C 0.26158 0.58627 0.0465 0.0
C2868 C 0.25155 0.59288 0.05526 0.0
C2869 C 0.26168 0.5887 0.03196 0.0
C2870 C 0.23892 0.599 0.00244 0.0
H2871 H 0.27126 0.57923 0.94021 0.0
H2872 H 0.27031 0.58317 0.96558 0.0
H2873 H 0.22924 0.59769 0.9819 0.0
H2874 H 0.23375 0.60729 0.05555 0.0
H2875 H 0.2339 0.61149 0.02998 0.0
H2876 H 0.27464 0.60234 0.00858 0.0
C2877 C 0.26288 0.58873 0.95889 0.0
C2878 C 0.23918 0.59902 0.98763 0.0
C2879 C 0.26334 0.58639 0.94433 0.0
C2880 C 0.24163 0.60205 0.0491 0.0
C2881 C 0.24167 0.60441 0.03447 0.0
C2882 C 0.26465 0.60141 0.00288 0.0
C2883 C 0.25278 0.59785 0.96477 0.0
C2884 C 0.25222 0.59982 0.98034 0.0
C2885 C 0.25172 0.59777 0.02577 0.0
C2886 C 0.2517 0.59978 0.0102 0.0
H2887 H 0.23607 0.60771 0.93439 0.0
H2888 H 0.23524 0.61173 0.96 0.0
H2889 H 0.27508 0.60237 0.98278 0.0
H2890 H 0.26938 0.57914 0.05086 0.0
H2891 H 0.2694 0.58323 0.02551 0.0
C2892 C 0.38349 0.26146 0.04252 0.0
C2893 C 0.37548 0.25067 0.04913 0.0
C2894 C 0.38321 0.26299 0.02783 0.0
C2895 C 0.37624 0.24256 -0.00465 0.0
H2896 H 0.37795 0.27953 0.97758 0.0
C2897 C 0.37804 0.24925 0.93461 0.0
C2898 C 0.38828 0.259 0.92951 0.0
C2899 C 0.37478 0.24869 0.94904 0.0
C2900 C 0.37754 0.26913 0.9824 0.0
H2901 H 0.36055 0.23328 0.04555 0.0
H2902 H 0.35995 0.23605 0.01986 0.0
H2903 H 0.37503 0.2778 0.00319 0.0
H2904 H 0.40288 0.27599 0.93557 0.0
H2905 H 0.39724 0.27493 0.9607 0.0
H2906 H 0.37896 0.2339 0.97459 0.0
C2907 C 0.36661 0.2432 0.02604 0.0
C2908 C 0.37587 0.26814 -0.00294 0.0
C2909 C 0.36689 0.24166 0.04076 0.0
C2910 C 0.39496 0.26834 0.93913 0.0
C2911 C 0.39165 0.26781 0.95353 0.0
C2912 C 0.37787 0.24355 0.98069 0.0
C2913 C 0.37489 0.25378 0.0194 0.0
C2914 C 0.37543 0.25484 0.00373 0.0
C2915 C 0.38162 0.2579 0.95866 0.0
C2916 C 0.37876 0.25686 0.97408 0.0
H2917 H 0.39022 0.26858 0.04868 0.0
H2918 H 0.38986 0.27113 0.02305 0.0
H2919 H 0.37614 0.23216 0.00016 0.0
H2920 H 0.37266 0.24193 0.9275 0.0
H2921 H 0.36689 0.24104 0.95266 0.0
C2922 C 0.74377 0.38386 0.04953 0.0
C2923 C 0.7335 0.39296 0.05524 0.0
C2924 C 0.74464 0.38173 0.03488 0.0
C2925 C 0.72369 0.38531 0.00197 0.0
H2926 H 0.76032 0.38933 0.98332 0.0
C2927 C 0.72852 0.40142 0.944 0.0
C2928 C 0.73856 0.39472 0.93532 0.0
C2929 C 0.72817 0.39886 0.95851 0.0
C2930 C 0.75005 0.38792 0.98839 0.0
H2931 H 0.716 0.40681 0.05 0.0
H2932 H 0.71755 0.40313 0.02463 0.0
H2933 H 0.75917 0.3889 0.00919 0.0
H2934 H 0.75617 0.38008 0.93515 0.0
H2935 H 0.7556 0.37568 0.96071 0.0
H2936 H 0.71452 0.38475 0.98125 0.0
C2937 C 0.72485 0.39753 0.03144 0.0
C2938 C 0.74939 0.38768 0.00319 0.0
C2939 C 0.72404 0.39973 0.04601 0.0
C2940 C 0.7483 0.3854 0.94154 0.0
C2941 C 0.74801 0.38291 0.95616 0.0
C2942 C 0.72435 0.38556 0.98723 0.0
C2943 C 0.73517 0.38855 0.0257 0.0
C2944 C 0.73615 0.38679 0.01012 0.0
C2945 C 0.73788 0.38958 0.96476 0.0
C2946 C 0.73749 0.38729 0.98029 0.0
H2947 H 0.75123 0.37849 0.05636 0.0
H2948 H 0.75267 0.37471 0.03074 0.0
H2949 H 0.71336 0.3843 0.00702 0.0
H2950 H 0.72085 0.40867 0.9396 0.0
H2951 H 0.72041 0.40435 0.9649 0.0
C2952 C 0.58185 0.25247 0.94324 0.0
C2953 C 0.59201 0.24527 0.93512 0.0
C2954 C 0.58188 0.2515 0.95796 0.0
C2955 C 0.60436 0.2434 0.98865 0.0
H2956 H 0.56787 0.23934 0.00757 0.0
C2957 C 0.59826 0.23728 0.04969 0.0
C2958 C 0.58742 0.24533 0.05591 0.0
C2959 C 0.59945 0.23635 0.03494 0.0
C2960 C 0.57814 0.24057 0.00246 0.0
H2961 H 0.61032 0.23154 0.93619 0.0
H2962 H 0.61033 0.22984 0.96204 0.0
H2963 H 0.56884 0.2393 0.98183 0.0
H2964 H 0.56949 0.25891 0.05146 0.0
H2965 H 0.57162 0.25736 0.0259 0.0
H2966 H 0.61361 0.24483 0.00938 0.0
C2967 C 0.60239 0.23627 0.95692 0.0
C2968 C 0.5787 0.24055 0.98771 0.0
C2969 C 0.60234 0.2372 0.94212 0.0
C2970 C 0.57792 0.25254 0.04706 0.0
C2971 C 0.57908 0.25159 0.03239 0.0
C2972 C 0.60381 0.24342 0.00346 0.0
C2973 C 0.59207 0.24332 0.96497 0.0
C2974 C 0.59177 0.24223 0.98063 0.0
C2975 C 0.58977 0.2434 0.02615 0.0
C2976 C 0.59065 0.24227 0.0105 0.0
H2977 H 0.57378 0.25884 0.93823 0.0
H2978 H 0.57396 0.25728 0.96387 0.0
H2979 H 0.61459 0.24479 0.98349 0.0
H2980 H 0.60577 0.23161 0.05619 0.0
H2981 H 0.60776 0.22992 0.03042 0.0
C2982 C 0.71984 0.60918 0.05008 0.0
C2983 C 0.73052 0.61632 0.05785 0.0
C2984 C 0.71885 0.61096 0.03543 0.0
C2985 C 0.74147 0.62061 0.00517 0.0
H2986 H 0.70581 0.62104 0.9844 0.0
C2987 C 0.74085 0.62604 0.94481 0.0
C2988 C 0.73191 0.6165 0.93746 0.0
C2989 C 0.7395 0.62776 0.95941 0.0
C2990 C 0.71584 0.62086 0.99007 0.0
H2991 H 0.74801 0.63151 0.0565 0.0
H2992 H 0.74615 0.63479 0.03101 0.0
H2993 H 0.70551 0.62108 0.0103 0.0
H2994 H 0.71412 0.60174 0.93954 0.0
H2995 H 0.71188 0.6046 0.96513 0.0
H2996 H 0.75182 0.62015 0.98506 0.0
C2997 C 0.73874 0.62757 0.03617 0.0
C2998 C 0.71567 0.62088 0.00488 0.0
C2999 C 0.73977 0.62575 0.05079 0.0
C3000 C 0.72119 0.60913 0.94492 0.0
C3001 C 0.71986 0.61084 0.95957 0.0
C3002 C 0.74164 0.62061 0.99041 0.0
C3003 C 0.72849 0.61995 0.02828 0.0
C3004 C 0.72849 0.62068 0.01258 0.0
C3005 C 0.7292 0.61996 0.967 0.0
C3006 C 0.72884 0.62066 0.98269 0.0
H3007 H 0.71253 0.60184 0.05525 0.0
H3008 H 0.71091 0.60485 0.02964 0.0
H3009 H 0.75153 0.62014 0.01076 0.0
H3010 H 0.74912 0.63197 0.93932 0.0
H3011 H 0.74669 0.63506 0.96481 0.0
C3012 C 0.40797 0.73586 0.94494 0.0
C3013 C 0.3981 0.74339 0.9368 0.0
C3014 C 0.40721 0.73594 0.95966 0.0
C3015 C 0.383 0.74192 0.9896 0.0
H3016 H 0.41845 0.74383 0.01071 0.0
C3017 C 0.38667 0.74362 0.05127 0.0
C3018 C 0.39699 0.73476 0.05725 0.0
C3019 C 0.38594 0.74545 0.03658 0.0
C3020 C 0.40846 0.74321 0.00496 0.0
H3021 H 0.37961 0.7569 0.93782 0.0
H3022 H 0.37836 0.75711 0.9637 0.0
H3023 H 0.41888 0.74611 0.98506 0.0
H3024 H 0.41434 0.72057 0.0524 0.0
H3025 H 0.41303 0.72377 0.02693 0.0
H3026 H 0.37264 0.73894 0.00964 0.0
C3027 C 0.38662 0.75106 0.95859 0.0
C3028 C 0.40871 0.74451 0.99027 0.0
C3029 C 0.38738 0.75099 0.94378 0.0
C3030 C 0.40631 0.72753 0.0482 0.0
C3031 C 0.40563 0.72943 0.03359 0.0
C3032 C 0.38276 0.74067 0.00437 0.0
C3033 C 0.39659 0.74359 0.96668 0.0
C3034 C 0.39602 0.74357 0.98238 0.0
C3035 C 0.39559 0.73855 0.02764 0.0
C3036 C 0.39553 0.741 0.01214 0.0
H3037 H 0.41631 0.72981 0.93995 0.0
H3038 H 0.41488 0.72984 0.96556 0.0
H3039 H 0.37306 0.74107 0.98381 0.0
H3040 H 0.37931 0.74932 0.05793 0.0
H3041 H 0.37811 0.75257 0.03226 0.0
C3042 C 0.24414 0.36182 0.04726 0.0
C3043 C 0.25343 0.37121 0.05439 0.0
C3044 C 0.24497 0.36024 0.03259 0.0
C3045 C 0.26788 0.36718 0.00136 0.0
H3046 H 0.23173 0.36797 0.98149 0.0
C3047 C 0.26256 0.37885 0.94144 0.0
C3048 C 0.25181 0.37155 0.93391 0.0
C3049 C 0.26381 0.37719 0.95609 0.0
C3050 C 0.24191 0.3675 0.98686 0.0
H3051 H 0.2712 0.38592 0.05182 0.0
H3052 H 0.27252 0.3833 0.02616 0.0
H3053 H 0.23203 0.36788 0.00721 0.0
H3054 H 0.23445 0.35624 0.93567 0.0
H3055 H 0.23677 0.35321 0.96115 0.0
H3056 H 0.27774 0.36706 0.9809 0.0
C3057 C 0.26469 0.37705 0.03193 0.0
C3058 C 0.24208 0.36744 0.00161 0.0
C3059 C 0.26388 0.37863 0.04661 0.0
C3060 C 0.24274 0.36213 0.9412 0.0
C3061 C 0.24402 0.36044 0.95581 0.0
C3062 C 0.26771 0.36723 0.98655 0.0
C3063 C 0.25509 0.36803 0.02473 0.0
C3064 C 0.25505 0.36736 0.00904 0.0
C3065 C 0.25437 0.36817 0.96346 0.0
C3066 C 0.25471 0.36746 0.97915 0.0
H3067 H 0.23605 0.35588 0.05298 0.0
H3068 H 0.23758 0.35302 0.02738 0.0
H3069 H 0.27804 0.36697 0.00679 0.0
H3070 H 0.26972 0.38617 0.93609 0.0
H3071 H 0.27182 0.38338 0.96169 0.0
C3072 C 0.04931 0.62032 0.743 0.0
C3073 C 0.05618 0.61085 0.73387 0.0
C3074 C 0.03463 0.6222 0.74209 0.0
C3075 C 0.00309 0.61622 0.71916 0.0
H3076 H 0.98284 0.61645 0.75493 0.0
C3077 C 0.94204 0.60772 0.72425 0.0
C3078 C 0.93495 0.61559 0.73466 0.0
C3079 C 0.95688 0.60852 0.72308 0.0
C3080 C 0.98834 0.61663 0.74485 0.0
H3081 H 0.05313 0.59626 0.71633 0.0
H3082 H 0.0274 0.59939 0.71488 0.0
H3083 H 0.00869 0.61532 0.75484 0.0
H3084 H 0.93774 0.63101 0.75153 0.0
H3085 H 0.96357 0.63252 0.7494 0.0
H3086 H 0.9826 0.61729 0.7092 0.0
C3087 C 0.0334 0.60548 0.72264 0.0
C3088 C 0.00316 0.61598 0.74479 0.0
C3089 C 0.04813 0.60362 0.72352 0.0
C3090 C 0.94291 0.62471 0.74349 0.0
C3091 C 0.95771 0.62552 0.74232 0.0
C3092 C 0.98821 0.61686 0.71921 0.0
C3093 C 0.02647 0.61462 0.73207 0.0
C3094 C 0.01072 0.61574 0.73196 0.0
C3095 C 0.96488 0.61722 0.7323 0.0
C3096 C 0.98068 0.61704 0.73207 0.0
H3097 H 0.05525 0.62615 0.75101 0.0
H3098 H 0.02963 0.62952 0.74934 0.0
H3099 H 0.00862 0.61619 0.7091 0.0
H3100 H 0.93618 0.60062 0.71726 0.0
H3101 H 0.9621 0.60192 0.71533 0.0
C3102 C 0.39758 0.93575 0.72621 0.0
C3103 C 0.39051 0.92655 0.73564 0.0
C3104 C 0.39535 0.95031 0.72681 0.0
C3105 C 0.37079 0.97746 0.7405 0.0
H3106 H 0.40384 0.00218 0.73615 0.0
C3107 C 0.37077 0.03775 0.75279 0.0
C3108 C 0.37822 0.04657 0.7433 0.0
C3109 C 0.37137 0.02301 0.75145 0.0
C3110 C 0.39448 -0.00457 0.73723 0.0
H3111 H 0.37539 0.92545 0.75299 0.0
H3112 H 0.3717 0.95094 0.7542 0.0
H3113 H 0.40664 0.97665 0.73468 0.0
H3114 H 0.39176 0.04689 0.72468 0.0
H3115 H 0.39276 0.02124 0.72234 0.0
H3116 H 0.35869 -0.00364 0.74325 0.0
C3117 C 0.37881 0.94684 0.7462 0.0
C3118 C 0.39607 0.98079 0.73637 0.0
C3119 C 0.38099 0.93224 0.74555 0.0
C3120 C 0.38597 0.04038 0.73223 0.0
C3121 C 0.38661 0.02569 0.73092 0.0
C3122 C 0.3692 0.99214 0.74143 0.0
C3123 C 0.38606 0.95606 0.73691 0.0
C3124 C 0.38425 0.97163 0.73792 0.0
C3125 C 0.3795 0.01685 0.74063 0.0
C3126 C 0.38103 0.00127 0.73973 0.0
H3127 H 0.40489 0.93172 0.71835 0.0
H3128 H 0.4009 0.95708 0.71932 0.0
H3129 H 0.36143 0.9707 0.74159 0.0
H3130 H 0.36469 0.04221 0.76143 0.0
H3131 H 0.36585 0.01645 0.75914 0.0
C3132 C 0.03911 0.37317 0.74116 0.0
C3133 C 0.0481 0.38076 0.73191 0.0
C3134 C 0.02431 0.37386 0.73974 0.0
C3135 C -0.00313 0.39744 0.72612 0.0
H3136 H 0.97152 0.36504 0.73107 0.0
C3137 C 0.93649 0.40187 0.71782 0.0
C3138 C 0.92755 0.39502 0.72766 0.0
C3139 C 0.95109 0.3993 0.71766 0.0
C3140 C 0.97846 0.37421 0.7298 0.0
H3141 H 0.04866 0.39453 0.71355 0.0
H3142 H 0.02284 0.39566 0.71105 0.0
H3143 H -0.0027 0.36179 0.73176 0.0
H3144 H 0.92693 0.37991 0.74494 0.0
H3145 H 0.95249 0.3756 0.74481 0.0
H3146 H 0.97815 0.40992 0.72439 0.0
C3147 C 0.02723 0.38935 0.71952 0.0
C3148 C -0.00678 0.37234 0.73017 0.0
C3149 C 0.04201 0.38864 0.72091 0.0
C3150 C 0.93352 0.38535 0.7372 0.0
C3151 C 0.94816 0.38282 0.73708 0.0
C3152 C 0.98216 0.39931 0.7258 0.0
C3153 C 0.01822 0.38217 0.72907 0.0
C3154 C 0.00257 0.38395 0.72832 0.0
C3155 C 0.95713 0.38986 0.72738 0.0
C3156 C 0.97278 0.38773 0.72762 0.0
H3157 H 0.04348 0.367 0.74973 0.0
H3158 H 0.01764 0.36829 0.74732 0.0
H3159 H 0.00379 0.40664 0.72495 0.0
H3160 H 0.93224 0.40929 0.71023 0.0
H3161 H 0.95766 0.4047 0.70989 0.0
C3162 C 0.58267 0.94533 0.73499 0.0
C3163 C 0.59198 0.93735 0.74335 0.0
C3164 C 0.58325 0.96008 0.73528 0.0
C3165 C 0.60634 0.99068 0.74389 0.0
H3166 H 0.57049 0.01059 0.74344 0.0
C3167 C 0.6017 0.05213 0.7471 0.0
C3168 C 0.59174 0.05817 0.73784 0.0
C3169 C 0.6025 0.0374 0.74848 0.0
C3170 C 0.58059 0.00519 0.74346 0.0
H3171 H 0.60934 0.9387 0.7585 0.0
H3172 H 0.61028 0.96462 0.75905 0.0
H3173 H 0.5704 0.98488 0.74493 0.0
H3174 H 0.57512 0.05341 0.72246 0.0
H3175 H 0.5766 0.02787 0.72483 0.0
H3176 H 0.61649 0.01113 0.74233 0.0
C3177 C 0.60259 0.95936 0.75221 0.0
C3178 C 0.58054 0.99046 0.74432 0.0
C3179 C 0.60201 0.94453 0.75194 0.0
C3180 C 0.58286 0.04916 0.72977 0.0
C3181 C 0.58363 0.0345 0.73118 0.0
C3182 C 0.60639 0.00549 0.74306 0.0
C3183 C 0.59313 0.96728 0.74395 0.0
C3184 C 0.59339 0.98301 0.74426 0.0
C3185 C 0.59332 0.02845 0.74068 0.0
C3186 C 0.59349 0.01286 0.74256 0.0
H3187 H 0.57486 0.9402 0.72817 0.0
H3188 H 0.57599 0.96586 0.72857 0.0
H3189 H 0.61642 0.98523 0.74375 0.0
H3190 H 0.60871 0.05877 0.75347 0.0
H3191 H 0.61004 0.03303 0.75591 0.0
C3192 C 0.94566 0.36882 0.24126 0.0
C3193 C 0.9376 0.37587 0.25156 0.0
C3194 C 0.96053 0.36852 0.24228 0.0
C3195 C 0.99053 0.37461 0.26732 0.0
H3196 H 0.01205 0.38366 0.2334 0.0
C3197 C 0.04777 0.39675 0.26916 0.0
C3198 C 0.05766 0.39187 0.25917 0.0
C3199 C 0.03343 0.39277 0.26822 0.0
C3200 C 0.00622 0.38089 0.24292 0.0
H3201 H 0.93875 0.38778 0.27121 0.0
H3202 H 0.96458 0.38738 0.2729 0.0
H3203 H 0.9863 0.38003 0.23188 0.0
H3204 H 0.0602 0.37888 0.24038 0.0
H3205 H 0.03505 0.37197 0.23873 0.0
H3206 H 0.0104 0.37587 0.27842 0.0
C3207 C 0.95948 0.38194 0.26412 0.0
C3208 C 0.99147 0.37879 0.24205 0.0
C3209 C 0.94465 0.38225 0.2631 0.0
C3210 C 0.05287 0.38284 0.24824 0.0
C3211 C 0.03846 0.37892 0.24726 0.0
C3212 C 0.00526 0.37674 0.26819 0.0
C3213 C 0.96761 0.37522 0.25364 0.0
C3214 C 0.98342 0.37591 0.25429 0.0
C3215 C 0.0286 0.38386 0.25724 0.0
C3216 C 0.01322 0.38019 0.25605 0.0
H3217 H 0.94052 0.36377 0.23226 0.0
H3218 H 0.96649 0.36312 0.23412 0.0
H3219 H 0.98468 0.37212 0.2769 0.0
H3220 H 0.05107 0.40371 0.27772 0.0
H3221 H 0.02605 0.39692 0.27596 0.0
C3222 C 0.58278 0.04446 0.25591 0.0
C3223 C 0.59261 0.05264 0.2481 0.0
C3224 C 0.58297 0.02972 0.2553 0.0
C3225 C 0.60549 -0.00069 0.24716 0.0
H3226 H 0.56904 0.97951 0.24519 0.0
C3227 C 0.5992 0.93784 0.24358 0.0
C3228 C 0.58853 0.93186 0.25227 0.0
C3229 C 0.60048 0.95256 0.24213 0.0
C3230 C 0.5793 0.98488 0.24584 0.0
H3231 H 0.61055 0.05166 0.23366 0.0
H3232 H 0.61086 0.02574 0.23259 0.0
H3233 H 0.56985 0.00525 0.24412 0.0
H3234 H 0.57112 0.93673 0.26652 0.0
H3235 H 0.57344 0.96223 0.26405 0.0
H3236 H 0.61489 0.97882 0.24904 0.0
C3237 C 0.60303 0.03085 0.23922 0.0
C3238 C 0.57977 -0.00038 0.24522 0.0
C3239 C 0.60281 0.04568 0.23979 0.0
C3240 C 0.5794 0.94093 0.25966 0.0
C3241 C 0.58066 0.95557 0.25818 0.0
C3242 C 0.60502 0.98449 0.24777 0.0
C3243 C 0.59301 0.02273 0.24687 0.0
C3244 C 0.59282 0.00703 0.24618 0.0
C3245 C 0.59109 0.96156 0.24928 0.0
C3246 C 0.59188 0.97715 0.24742 0.0
H3247 H 0.57482 0.04942 0.26249 0.0
H3248 H 0.57529 0.02378 0.26154 0.0
H3249 H 0.6157 0.00474 0.24799 0.0
H3250 H 0.60642 0.93116 0.23774 0.0
H3251 H 0.6086 0.95689 0.23516 0.0
C3252 C 0.04307 0.62581 0.24924 0.0
C3253 C 0.05189 0.61821 0.25843 0.0
C3254 C 0.02848 0.62676 0.2519 0.0
C3255 C -0.00039 0.60741 0.26982 0.0
H3256 H 0.97793 0.64113 0.26186 0.0
C3257 C 0.93862 0.60748 0.27551 0.0
C3258 C 0.93126 0.61334 0.26403 0.0
C3259 C 0.9533 0.60971 0.27698 0.0
C3260 C 0.98384 0.63162 0.26409 0.0
H3261 H 0.05244 0.60611 0.27793 0.0
H3262 H 0.02698 0.60784 0.2826 0.0
H3263 H 0.00391 0.64205 0.2604 0.0
H3264 H 0.93337 0.62665 0.24543 0.0
H3265 H 0.95896 0.63037 0.24788 0.0
H3266 H 0.97961 0.59685 0.2731 0.0
C3267 C 0.03131 0.6129 0.27324 0.0
C3268 C -0.0013 0.63215 0.26325 0.0
C3269 C 0.0459 0.61196 0.27058 0.0
C3270 C 0.93875 0.62196 0.25439 0.0
C3271 C 0.95341 0.62417 0.25584 0.0
C3272 C 0.98477 0.60687 0.27063 0.0
C3273 C 0.0224 0.62012 0.26381 0.0
C3274 C 0.00673 0.61999 0.26589 0.0
C3275 C 0.9609 0.61785 0.267 0.0
C3276 C 0.97669 0.61891 0.26756 0.0
H3277 H 0.04738 0.63074 0.23979 0.0
H3278 H 0.02188 0.63227 0.24435 0.0
H3279 H 0.00547 0.5978 0.27172 0.0
H3280 H 0.93311 0.60087 0.28317 0.0
H3281 H 0.95874 0.60486 0.28581 0.0
C3282 C 0.37809 0.05406 0.24702 0.0
C3283 C 0.39194 0.05896 0.25017 0.0
C3284 C 0.3749 0.03955 0.24697 0.0
C3285 C 0.37227 0.00824 0.24027 0.0
H3286 H 0.39255 0.98383 0.26606 0.0
C3287 C 0.37099 0.94741 0.23451 0.0
C3288 C 0.37252 0.93906 0.24668 0.0
C3289 C 0.3721 0.96215 0.23538 0.0
C3290 C 0.38658 0.99046 0.25893 0.0
H3291 H 0.4134 0.05252 0.25531 0.0
H3292 H 0.40806 0.02728 0.25458 0.0
H3293 H 0.39671 0.00917 0.26701 0.0
H3294 H 0.37565 0.93954 0.2694 0.0
H3295 H 0.37689 0.96527 0.27108 0.0
H3296 H 0.36165 0.98956 0.23264 0.0
C3297 C 0.39948 0.03457 0.25268 0.0
C3298 C 0.38918 0.00504 0.25929 0.0
C3299 C 0.40259 0.04907 0.253 0.0
C3300 C 0.37457 0.94573 0.25982 0.0
C3301 C 0.3754 0.96049 0.26075 0.0
C3302 C 0.36948 0.99366 0.24007 0.0
C3303 C 0.38556 0.0296 0.24982 0.0
C3304 C 0.38223 0.01412 0.24983 0.0
C3305 C 0.3745 0.9689 0.24849 0.0
C3306 C 0.37673 0.98454 0.24928 0.0
H3307 H 0.36963 0.06145 0.24491 0.0
H3308 H 0.36402 0.03618 0.24493 0.0
H3309 H 0.36679 0.01484 0.23272 0.0
H3310 H 0.36949 0.94253 0.22421 0.0
H3311 H 0.37157 0.96819 0.22567 0.0
C3312 C 0.72682 0.04456 0.60316 0.0
C3313 C 0.73735 0.05154 0.61126 0.0
C3314 C 0.72641 0.02979 0.60236 0.0
C3315 C 0.73889 -0.00288 0.61941 0.0
H3316 H 0.73506 0.98136 0.58162 0.0
C3317 C 0.74827 0.93787 0.60709 0.0
C3318 C 0.7389 0.93132 0.59739 0.0
C3319 C 0.74797 0.95253 0.60924 0.0
C3320 C 0.73596 0.98556 0.59227 0.0
H3321 H 0.75532 0.04853 0.62534 0.0
H3322 H 0.75458 0.02272 0.62392 0.0
H3323 H 0.73406 0.00688 0.58501 0.0
H3324 H 0.72176 0.93504 0.58245 0.0
H3325 H 0.72111 0.96044 0.58635 0.0
H3326 H 0.74075 0.97575 0.62667 0.0
C3327 C 0.74664 0.02866 0.61823 0.0
C3328 C 0.73537 0.00019 0.59421 0.0
C3329 C 0.74709 0.04344 0.61899 0.0
C3330 C 0.72921 0.93973 0.58993 0.0
C3331 C 0.72888 0.95433 0.59211 0.0
C3332 C 0.73941 0.98245 0.61748 0.0
C3333 C 0.73648 0.02171 0.60967 0.0
C3334 C 0.73681 0.00612 0.60779 0.0
C3335 C 0.73827 0.96092 0.60176 0.0
C3336 C 0.73793 0.9765 0.60388 0.0
H3337 H 0.71912 0.0505 0.59714 0.0
H3338 H 0.71832 0.0247 0.59585 0.0
H3339 H 0.73992 0.0014 0.63001 0.0
H3340 H 0.75588 0.9317 0.61299 0.0
H3341 H 0.75546 0.9573 0.61662 0.0
C3342 C 0.72595 0.04069 0.39129 0.0
C3343 C 0.73656 0.04796 0.38361 0.0
C3344 C 0.72515 0.02592 0.39099 0.0
C3345 C 0.7474 -0.0052 0.38426 0.0
H3346 H 0.71115 0.97462 0.38566 0.0
C3347 C 0.74294 0.93358 0.38452 0.0
C3348 C 0.73355 0.92777 0.39463 0.0
C3349 C 0.74311 0.94814 0.38183 0.0
C3350 C 0.72135 0.98013 0.38534 0.0
H3351 H 0.75432 0.04551 0.36918 0.0
H3352 H 0.75278 0.0197 0.36846 0.0
H3353 H 0.71158 0.00031 0.38293 0.0
H3354 H 0.71691 0.93271 0.40974 0.0
H3355 H 0.71725 0.95804 0.40505 0.0
H3356 H 0.75715 0.9746 0.38677 0.0
C3357 C 0.74525 0.02541 0.37494 0.0
C3358 C 0.7216 -0.00517 0.38379 0.0
C3359 C 0.74608 0.04019 0.37528 0.0
C3360 C 0.72429 0.93682 0.4019 0.0
C3361 C 0.7244 0.95133 0.39914 0.0
C3362 C 0.74714 0.98008 0.38574 0.0
C3363 C 0.7349 0.01809 0.38294 0.0
C3364 C 0.73462 0.00237 0.38345 0.0
C3365 C 0.73382 0.95715 0.3891 0.0
C3366 C 0.73411 0.97263 0.38651 0.0
H3367 H 0.71847 0.04638 0.39782 0.0
H3368 H 0.71717 0.02063 0.39743 0.0
H3369 H 0.75761 0.00028 0.38425 0.0
H3370 H 0.7502 0.92691 0.37872 0.0
H3371 H 0.75042 0.95233 0.37396 0.0
C3372 C 0.94004 0.73925 0.36651 0.0
C3373 C 0.93135 0.73019 0.37466 0.0
C3374 C 0.9547 0.7371 0.36569 0.0
C3375 C 0.9839 0.7211 0.38568 0.0
H3376 H 0.00551 0.72848 0.35144 0.0
C3377 C 0.04505 0.71702 0.38464 0.0
C3378 C 0.05221 0.72858 0.37839 0.0
C3379 C 0.03036 0.71515 0.38281 0.0
C3380 C -0.00039 0.72642 0.36109 0.0
H3381 H 0.93114 0.71146 0.38792 0.0
H3382 H 0.95674 0.70763 0.38637 0.0
H3383 H 0.97951 0.72896 0.35073 0.0
H3384 H 0.04971 0.74691 0.36485 0.0
H3385 H 0.02412 0.74372 0.36176 0.0
H3386 H 0.00396 0.71887 0.39611 0.0
C3387 C 0.95224 0.71653 0.3808 0.0
C3388 C 0.98474 0.7267 0.36069 0.0
C3389 C 0.93757 0.71869 0.38163 0.0
C3390 C 0.0445 0.73791 0.36983 0.0
C3391 C 0.02983 0.73602 0.36798 0.0
C3392 C -0.00124 0.7208 0.38607 0.0
C3393 C 0.961 0.72582 0.37298 0.0
C3394 C 0.97672 0.72428 0.37303 0.0
C3395 C 0.02256 0.72477 0.37466 0.0
C3396 C 0.00679 0.72369 0.37384 0.0
H3397 H 0.93556 0.74821 0.36102 0.0
H3398 H 0.96117 0.74456 0.35971 0.0
H3399 H 0.97806 0.71939 0.39543 0.0
H3400 H 0.05072 0.7096 0.39123 0.0
H3401 H 0.02508 0.70627 0.38794 0.0
C3402 C 0.26361 0.04838 0.401 0.0
C3403 C 0.25365 0.05679 0.39391 0.0
C3404 C 0.26411 0.03383 0.3985 0.0
C3405 C 0.25301 0.00589 0.37302 0.0
H3406 H 0.25922 0.98118 0.40511 0.0
C3407 C 0.24433 0.94497 0.37168 0.0
C3408 C 0.25421 0.93671 0.37907 0.0
C3409 C 0.24511 0.95975 0.37236 0.0
C3410 C 0.25767 0.98795 0.39601 0.0
H3411 H 0.23642 0.05648 0.37859 0.0
H3412 H 0.2371 0.03098 0.37445 0.0
H3413 H 0.2585 0.00666 0.40874 0.0
H3414 H 0.27305 0.93746 0.39238 0.0
H3415 H 0.27442 0.96324 0.39352 0.0
H3416 H 0.2519 0.98702 0.36038 0.0
C3417 C 0.24469 0.03571 0.38176 0.0
C3418 C 0.25725 0.00256 0.39808 0.0
C3419 C 0.24424 0.05031 0.38421 0.0
C3420 C 0.26523 0.94352 0.38665 0.0
C3421 C 0.26597 0.95828 0.38737 0.0
C3422 C 0.25334 0.99122 0.37097 0.0
C3423 C 0.25461 0.02729 0.38892 0.0
C3424 C 0.25496 0.01173 0.38662 0.0
C3425 C 0.25575 0.96654 0.38048 0.0
C3426 C 0.25571 0.98212 0.38245 0.0
H3427 H 0.27111 0.05303 0.40846 0.0
H3428 H 0.27206 0.02772 0.40401 0.0
H3429 H 0.25141 0.01266 0.36394 0.0
H3430 H 0.23573 0.94002 0.36573 0.0
H3431 H 0.23705 0.96584 0.36699 0.0
C3432 C 0.04307 0.24342 0.36751 0.0
C3433 C 0.05212 0.25173 0.3761 0.0
C3434 C 0.02861 0.24653 0.36643 0.0
C3435 C 3e-05 0.26393 0.38609 0.0
H3436 H 0.97919 0.25971 0.35084 0.0
C3437 C 0.9395 0.27249 0.38351 0.0
C3438 C 0.93177 0.26177 0.37643 0.0
C3439 C 0.95432 0.27345 0.38215 0.0
C3440 C 0.98486 0.2609 0.36077 0.0
H3441 H 0.05322 0.27007 0.38996 0.0
H3442 H 0.02799 0.27554 0.38801 0.0
H3443 H 0.00504 0.25717 0.35098 0.0
H3444 H 0.9334 0.24406 0.36188 0.0
H3445 H 0.95918 0.24563 0.35963 0.0
H3446 H 0.97988 0.26729 0.39597 0.0
C3447 C 0.03204 0.26651 0.38226 0.0
C3448 C -0.00035 0.25942 0.36085 0.0
C3449 C 0.04649 0.2634 0.38333 0.0
C3450 C 0.93906 0.25242 0.3675 0.0
C3451 C 0.95384 0.25338 0.36613 0.0
C3452 C 0.98526 0.26539 0.38602 0.0
C3453 C 0.0229 0.25803 0.37392 0.0
C3454 C 0.00737 0.26071 0.37355 0.0
C3455 C 0.96167 0.26373 0.37366 0.0
C3456 C 0.97748 0.26366 0.3734 0.0
H3457 H 0.0471 0.23435 0.36181 0.0
H3458 H 0.02181 0.23969 0.36005 0.0
H3459 H 0.00564 0.26479 0.39609 0.0
H3460 H 0.93417 0.27991 0.3904 0.0
H3461 H 0.96004 0.28166 0.38793 0.0
C3462 C 0.24345 0.05418 0.60713 0.0
C3463 C 0.25328 0.06079 0.59796 0.0
C3464 C 0.24364 0.03951 0.60915 0.0
C3465 C 0.25602 0.00671 0.59199 0.0
H3466 H 0.24918 0.98995 0.62886 0.0
C3467 C 0.26213 0.94704 0.6013 0.0
C3468 C 0.25096 0.94025 0.60864 0.0
C3469 C 0.26315 0.9618 0.60099 0.0
C3470 C 0.25102 0.99449 0.61849 0.0
H3471 H 0.27124 0.05717 0.584 0.0
H3472 H 0.2717 0.03173 0.5877 0.0
H3473 H 0.24944 0.01571 0.62634 0.0
H3474 H 0.23242 0.94359 0.62187 0.0
H3475 H 0.2342 0.9694 0.6213 0.0
H3476 H 0.25759 0.98555 0.58413 0.0
C3477 C 0.26365 0.03781 0.59311 0.0
C3478 C 0.25114 0.00923 0.61704 0.0
C3479 C 0.26343 0.05243 0.59104 0.0
C3480 C 0.24114 0.94852 0.6161 0.0
C3481 C 0.24219 0.96329 0.61583 0.0
C3482 C 0.25596 0.99202 0.59346 0.0
C3483 C 0.25369 0.03115 0.60208 0.0
C3484 C 0.25363 0.01551 0.60376 0.0
C3485 C 0.25305 0.97009 0.60805 0.0
C3486 C 0.25346 0.98574 0.60671 0.0
H3487 H 0.23548 0.0603 0.6126 0.0
H3488 H 0.23572 0.03469 0.61601 0.0
H3489 H 0.25768 0.01117 0.58156 0.0
H3490 H 0.26992 0.94096 0.59552 0.0
H3491 H 0.27177 0.96674 0.59509 0.0
C3492 C 0.95056 0.24657 0.6147 0.0
C3493 C 0.9418 0.25597 0.60729 0.0
C3494 C 0.96539 0.2478 0.61377 0.0
C3495 C -0.00683 0.2612 0.58985 0.0
H3496 H 0.01837 0.25604 0.62192 0.0
C3497 C 0.05375 0.26943 0.58493 0.0
C3498 C 0.06254 0.25966 0.5918 0.0
C3499 C 0.03912 0.26949 0.5875 0.0
C3500 C 0.01147 0.25736 0.61284 0.0
H3501 H 0.9417 0.27438 0.59359 0.0
H3502 H 0.96757 0.27655 0.59204 0.0
H3503 H 0.99258 0.25549 0.62548 0.0
H3504 H 0.06281 0.24235 0.60688 0.0
H3505 H 0.03719 0.24231 0.61117 0.0
H3506 H 0.01194 0.26284 0.57715 0.0
C3507 C 0.96297 0.26811 0.59839 0.0
C3508 C -0.00329 0.25707 0.61489 0.0
C3509 C 0.94816 0.26691 0.59935 0.0
C3510 C 0.05636 0.25004 0.60142 0.0
C3511 C 0.04168 0.25006 0.60395 0.0
C3512 C 0.00789 0.26143 0.58779 0.0
C3513 C 0.97174 0.25843 0.6054 0.0
C3514 C 0.98741 0.25901 0.60341 0.0
C3515 C 0.03288 0.25974 0.59695 0.0
C3516 C 0.01722 0.25953 0.59925 0.0
H3517 H 0.94597 0.23803 0.62092 0.0
H3518 H 0.97187 0.24012 0.61921 0.0
H3519 H 0.98628 0.26244 0.58074 0.0
H3520 H 0.05817 0.27707 0.57754 0.0
H3521 H 0.03269 0.27724 0.58211 0.0
C3522 C 0.04221 0.7213 0.60415 0.0
C3523 C 0.04867 0.73231 0.61199 0.0
C3524 C 0.0274 0.72035 0.603 0.0
C3525 C -0.00645 0.73243 0.61848 0.0
H3526 H 0.97918 0.72625 0.58043 0.0
C3527 C 0.9342 0.73957 0.60336 0.0
C3528 C 0.92825 0.72977 0.59372 0.0
C3529 C 0.94882 0.73959 0.60627 0.0
C3530 C 0.98299 0.72779 0.59116 0.0
H3531 H 0.04465 0.75058 0.62529 0.0
H3532 H 0.01874 0.74891 0.62324 0.0
H3533 H 0.00473 0.72631 0.5847 0.0
H3534 H 0.93299 0.71211 0.57982 0.0
H3535 H 0.95833 0.71202 0.58506 0.0
H3536 H 0.97173 0.73391 0.62492 0.0
C3537 C 0.02515 0.741 0.61803 0.0
C3538 C -0.00236 0.72782 0.5936 0.0
C3539 C 0.03999 0.74198 0.61916 0.0
C3540 C 0.93721 0.71989 0.58721 0.0
C3541 C 0.95178 0.71988 0.59016 0.0
C3542 C 0.97884 0.73234 0.61604 0.0
C3543 C 0.01872 0.73036 0.60968 0.0
C3544 C 0.00309 0.73011 0.60729 0.0
C3545 C 0.95779 0.72979 0.59964 0.0
C3546 C 0.97339 0.72999 0.60234 0.0
H3547 H 0.0486 0.71363 0.59858 0.0
H3548 H 0.02274 0.71188 0.59668 0.0
H3549 H -0.00256 0.73413 0.62916 0.0
H3550 H 0.92761 0.74734 0.60855 0.0
H3551 H 0.95314 0.74747 0.61351 0.0
loop_
_geom_bond_atom_site_label_1
_geom_bond_atom_site_label_2
_geom_bond_distance
_geom_bond_site_symmetry_2
_ccdc_geom_bond_type
C0 O1 1.306 . S
C0 O3 1.160 . S
O1 C0 1.306 . S
O1 Cd2 2.228 . S
Cd2 O1 2.228 . S
Cd2 O6 2.273 . S
Cd2 O10 2.277 . S
O3 C0 1.160 . S
O3 Cd4 2.203 . S
Cd4 O3 2.203 . S
Cd4 O6 2.411 . S
Cd4 O7 2.333 . S
Cd4 O8 2.352 . S
Cd4 O12 2.277 . S
Cd4 O13 2.356 . S
C5 O10 1.209 . S
C5 O12 1.226 . S
O6 Cd2 2.273 . S
O6 Cd4 2.411 . S
O6 C9 1.320 . S
O7 Cd4 2.333 . S
O7 C9 1.214 . S
O8 Cd4 2.352 . S
O8 C11 1.258 . S
C9 O6 1.320 . S
C9 O7 1.214 . S
O10 Cd2 2.277 . S
O10 C5 1.209 . S
C11 O8 1.258 . S
C11 O13 1.282 . S
O12 Cd4 2.277 . S
O12 C5 1.226 . S
O13 Cd4 2.356 . S
O13 C11 1.282 . S
C14 O15 1.306 . S
C14 O17 1.160 . S
O15 C14 1.306 . S
O15 Cd16 2.228 . S
Cd16 O15 2.228 . S
Cd16 O20 2.273 . S
Cd16 O24 2.277 . S
O17 C14 1.160 . S
O17 Cd18 2.203 . S
Cd18 O17 2.203 . S
Cd18 O20 2.411 . S
Cd18 O21 2.333 . S
Cd18 O22 2.352 . S
Cd18 O26 2.277 . S
Cd18 O27 2.356 . S
C19 O24 1.209 . S
C19 O26 1.226 . S
O20 Cd16 2.273 . S
O20 Cd18 2.411 . S
O20 C23 1.320 . S
O21 Cd18 2.333 . S
O21 C23 1.214 . S
O22 Cd18 2.352 . S
O22 C25 1.258 . S
C23 O20 1.320 . S
C23 O21 1.214 . S
O24 Cd16 2.277 . S
O24 C19 1.209 . S
C25 O22 1.258 . S
C25 O27 1.282 . S
O26 Cd18 2.277 . S
O26 C19 1.226 . S
O27 Cd18 2.356 . S
O27 C25 1.282 . S
C28 O29 1.306 . S
C28 O31 1.160 . S
O29 C28 1.306 . S
O29 Cd30 2.228 . S
Cd30 O29 2.228 . S
Cd30 O34 2.273 . S
Cd30 O38 2.277 . S
O31 C28 1.160 . S
O31 Cd32 2.203 . S
Cd32 O31 2.203 . S
Cd32 O34 2.411 . S
Cd32 O35 2.333 . S
Cd32 O36 2.352 . S
Cd32 O40 2.277 . S
Cd32 O41 2.356 . S
C33 O38 1.209 . S
C33 O40 1.226 . S
O34 Cd30 2.273 . S
O34 Cd32 2.411 . S
O34 C37 1.320 . S
O35 Cd32 2.333 . S
O35 C37 1.214 . S
O36 Cd32 2.352 . S
O36 C39 1.258 . S
C37 O34 1.320 . S
C37 O35 1.214 . S
O38 Cd30 2.277 . S
O38 C33 1.209 . S
C39 O36 1.258 . S
C39 O41 1.282 . S
O40 Cd32 2.277 . S
O40 C33 1.226 . S
O41 Cd32 2.356 . S
O41 C39 1.282 . S
C42 O43 1.306 . S
C42 O45 1.160 . S
O43 C42 1.306 . S
O43 Cd44 2.228 . S
Cd44 O43 2.228 . S
Cd44 O48 2.273 . S
Cd44 O52 2.277 . S
O45 C42 1.160 . S
O45 Cd46 2.203 . S
Cd46 O45 2.203 . S
Cd46 O48 2.411 . S
Cd46 O49 2.333 . S
Cd46 O50 2.352 . S
Cd46 O54 2.277 . S
Cd46 O55 2.356 . S
C47 O52 1.209 . S
C47 O54 1.226 . S
O48 Cd44 2.273 . S
O48 Cd46 2.411 . S
O48 C51 1.320 . S
O49 Cd46 2.333 . S
O49 C51 1.214 . S
O50 Cd46 2.352 . S
O50 C53 1.258 . S
C51 O48 1.320 . S
C51 O49 1.214 . S
O52 Cd44 2.277 . S
O52 C47 1.209 . S
C53 O50 1.258 . S
C53 O55 1.282 . S
O54 Cd46 2.277 . S
O54 C47 1.226 . S
O55 Cd46 2.356 . S
O55 C53 1.282 . S
C56 O57 1.306 . S
C56 O59 1.160 . S
O57 C56 1.306 . S
O57 Cd58 2.228 . S
Cd58 O57 2.228 . S
Cd58 O62 2.273 . S
Cd58 O66 2.277 . S
O59 C56 1.160 . S
O59 Cd60 2.203 . S
Cd60 O59 2.203 . S
Cd60 O62 2.411 . S
Cd60 O63 2.333 . S
Cd60 O64 2.352 . S
Cd60 O68 2.277 . S
Cd60 O69 2.356 . S
C61 O66 1.209 . S
C61 O68 1.226 . S
O62 Cd58 2.273 . S
O62 Cd60 2.411 . S
O62 C65 1.320 . S
O63 Cd60 2.333 . S
O63 C65 1.214 . S
O64 Cd60 2.352 . S
O64 C67 1.258 . S
C65 O62 1.320 . S
C65 O63 1.214 . S
O66 Cd58 2.277 . S
O66 C61 1.209 . S
C67 O64 1.258 . S
C67 O69 1.282 . S
O68 Cd60 2.277 . S
O68 C61 1.226 . S
O69 Cd60 2.356 . S
O69 C67 1.282 . S
C70 O71 1.306 . S
C70 O73 1.160 . S
O71 C70 1.306 . S
O71 Cd72 2.228 . S
Cd72 O71 2.228 . S
Cd72 O76 2.273 . S
Cd72 O80 2.277 . S
O73 C70 1.160 . S
O73 Cd74 2.203 . S
Cd74 O73 2.203 . S
Cd74 O76 2.411 . S
Cd74 O77 2.333 . S
Cd74 O78 2.352 . S
Cd74 O82 2.277 . S
Cd74 O83 2.356 . S
C75 O80 1.209 . S
C75 O82 1.226 . S
O76 Cd72 2.273 . S
O76 Cd74 2.411 . S
O76 C79 1.320 . S
O77 Cd74 2.333 . S
O77 C79 1.214 . S
O78 Cd74 2.352 . S
O78 C81 1.258 . S
C79 O76 1.320 . S
C79 O77 1.214 . S
O80 Cd72 2.277 . S
O80 C75 1.209 . S
C81 O78 1.258 . S
C81 O83 1.282 . S
O82 Cd74 2.277 . S
O82 C75 1.226 . S
O83 Cd74 2.356 . S
O83 C81 1.282 . S
C84 O85 1.306 . S
C84 O87 1.160 . S
O85 C84 1.306 . S
O85 Cd86 2.228 . S
Cd86 O85 2.228 . S
Cd86 O90 2.273 . S
Cd86 O94 2.277 . S
O87 C84 1.160 . S
O87 Cd88 2.203 . S
Cd88 O87 2.203 . S
Cd88 O90 2.411 . S
Cd88 O91 2.333 . S
Cd88 O92 2.352 . S
Cd88 O96 2.277 . S
Cd88 O97 2.356 . S
C89 O94 1.209 . S
C89 O96 1.226 . S
O90 Cd86 2.273 . S
O90 Cd88 2.411 . S
O90 C93 1.320 . S
O91 Cd88 2.333 . S
O91 C93 1.214 . S
O92 Cd88 2.352 . S
O92 C95 1.258 . S
C93 O90 1.320 . S
C93 O91 1.214 . S
O94 Cd86 2.277 . S
O94 C89 1.209 . S
C95 O92 1.258 . S
C95 O97 1.282 . S
O96 Cd88 2.277 . S
O96 C89 1.226 . S
O97 Cd88 2.356 . S
O97 C95 1.282 . S
C98 O99 1.306 . S
C98 O101 1.160 . S
O99 C98 1.306 . S
O99 Cd100 2.228 . S
Cd100 O99 2.228 . S
Cd100 O104 2.273 . S
Cd100 O108 2.277 . S
O101 C98 1.160 . S
O101 Cd102 2.203 . S
Cd102 O101 2.203 . S
Cd102 O104 2.411 . S
Cd102 O105 2.333 . S
Cd102 O106 2.352 . S
Cd102 O110 2.277 . S
Cd102 O111 2.356 . S
C103 O108 1.209 . S
C103 O110 1.226 . S
O104 Cd100 2.273 . S
O104 Cd102 2.411 . S
O104 C107 1.320 . S
O105 Cd102 2.333 . S
O105 C107 1.214 . S
O106 Cd102 2.352 . S
O106 C109 1.258 . S
C107 O104 1.320 . S
C107 O105 1.214 . S
O108 Cd100 2.277 . S
O108 C103 1.209 . S
C109 O106 1.258 . S
C109 O111 1.282 . S
O110 Cd102 2.277 . S
O110 C103 1.226 . S
O111 Cd102 2.356 . S
O111 C109 1.282 . S
C112 O113 1.306 . S
C112 O115 1.160 . S
O113 C112 1.306 . S
O113 Cd114 2.228 . S
Cd114 O113 2.228 . S
Cd114 O118 2.273 . S
Cd114 O122 2.277 . S
O115 C112 1.160 . S
O115 Cd116 2.203 . S
Cd116 O115 2.203 . S
Cd116 O118 2.411 . S
Cd116 O119 2.333 . S
Cd116 O120 2.352 . S
Cd116 O124 2.277 . S
Cd116 O125 2.356 . S
C117 O122 1.209 . S
C117 O124 1.226 . S
O118 Cd114 2.273 . S
O118 Cd116 2.411 . S
O118 C121 1.320 . S
O119 Cd116 2.333 . S
O119 C121 1.214 . S
O120 Cd116 2.352 . S
O120 C123 1.258 . S
C121 O118 1.320 . S
C121 O119 1.214 . S
O122 Cd114 2.277 . S
O122 C117 1.209 . S
C123 O120 1.258 . S
C123 O125 1.282 . S
O124 Cd116 2.277 . S
O124 C117 1.226 . S
O125 Cd116 2.356 . S
O125 C123 1.282 . S
C126 O127 1.306 . S
C126 O129 1.160 . S
O127 C126 1.306 . S
O127 Cd128 2.228 . S
Cd128 O127 2.228 . S
Cd128 O132 2.273 . S
Cd128 O136 2.277 . S
O129 C126 1.160 . S
O129 Cd130 2.203 . S
Cd130 O129 2.203 . S
Cd130 O132 2.411 . S
Cd130 O133 2.333 . S
Cd130 O134 2.352 . S
Cd130 O138 2.277 . S
Cd130 O139 2.356 . S
C131 O136 1.209 . S
C131 O138 1.226 . S
O132 Cd128 2.273 . S
O132 Cd130 2.411 . S
O132 C135 1.320 . S
O133 Cd130 2.333 . S
O133 C135 1.214 . S
O134 Cd130 2.352 . S
O134 C137 1.258 . S
C135 O132 1.320 . S
C135 O133 1.214 . S
O136 Cd128 2.277 . S
O136 C131 1.209 . S
C137 O134 1.258 . S
C137 O139 1.282 . S
O138 Cd130 2.277 . S
O138 C131 1.226 . S
O139 Cd130 2.356 . S
O139 C137 1.282 . S
C140 O141 1.306 . S
C140 O143 1.160 . S
O141 C140 1.306 . S
O141 Cd142 2.228 . S
Cd142 O141 2.228 . S
Cd142 O146 2.273 . S
Cd142 O150 2.277 . S
O143 C140 1.160 . S
O143 Cd144 2.203 . S
Cd144 O143 2.203 . S
Cd144 O146 2.411 . S
Cd144 O147 2.333 . S
Cd144 O148 2.352 . S
Cd144 O152 2.277 . S
Cd144 O153 2.356 . S
C145 O150 1.209 . S
C145 O152 1.226 . S
O146 Cd142 2.273 . S
O146 Cd144 2.411 . S
O146 C149 1.320 . S
O147 Cd144 2.333 . S
O147 C149 1.214 . S
O148 Cd144 2.352 . S
O148 C151 1.258 . S
C149 O146 1.320 . S
C149 O147 1.214 . S
O150 Cd142 2.277 . S
O150 C145 1.209 . S
C151 O148 1.258 . S
C151 O153 1.282 . S
O152 Cd144 2.277 . S
O152 C145 1.226 . S
O153 Cd144 2.356 . S
O153 C151 1.282 . S
C154 O155 1.306 . S
C154 O157 1.160 . S
O155 C154 1.306 . S
O155 Cd156 2.228 . S
Cd156 O155 2.228 . S
Cd156 O160 2.273 . S
Cd156 O164 2.277 . S
O157 C154 1.160 . S
O157 Cd158 2.203 . S
Cd158 O157 2.203 . S
Cd158 O160 2.411 . S
Cd158 O161 2.333 . S
Cd158 O162 2.352 . S
Cd158 O166 2.277 . S
Cd158 O167 2.356 . S
C159 O164 1.209 . S
C159 O166 1.226 . S
O160 Cd156 2.273 . S
O160 Cd158 2.411 . S
O160 C163 1.320 . S
O161 Cd158 2.333 . S
O161 C163 1.214 . S
O162 Cd158 2.352 . S
O162 C165 1.258 . S
C163 O160 1.320 . S
C163 O161 1.214 . S
O164 Cd156 2.277 . S
O164 C159 1.209 . S
C165 O162 1.258 . S
C165 O167 1.282 . S
O166 Cd158 2.277 . S
O166 C159 1.226 . S
O167 Cd158 2.356 . S
O167 C165 1.282 . S
C168 O169 1.306 . S
C168 O171 1.160 . S
O169 C168 1.306 . S
O169 Cd170 2.228 . S
Cd170 O169 2.228 . S
Cd170 O174 2.273 . S
Cd170 O178 2.277 . S
O171 C168 1.160 . S
O171 Cd172 2.203 . S
Cd172 O171 2.203 . S
Cd172 O174 2.411 . S
Cd172 O175 2.333 . S
Cd172 O176 2.352 . S
Cd172 O180 2.277 . S
Cd172 O181 2.356 . S
C173 O178 1.209 . S
C173 O180 1.226 . S
O174 Cd170 2.273 . S
O174 Cd172 2.411 . S
O174 C177 1.320 . S
O175 Cd172 2.333 . S
O175 C177 1.214 . S
O176 Cd172 2.352 . S
O176 C179 1.258 . S
C177 O174 1.320 . S
C177 O175 1.214 . S
O178 Cd170 2.277 . S
O178 C173 1.209 . S
C179 O176 1.258 . S
C179 O181 1.282 . S
O180 Cd172 2.277 . S
O180 C173 1.226 . S
O181 Cd172 2.356 . S
O181 C179 1.282 . S
C182 O183 1.306 . S
C182 O185 1.160 . S
O183 C182 1.306 . S
O183 Cd184 2.228 . S
Cd184 O183 2.228 . S
Cd184 O188 2.273 . S
Cd184 O192 2.277 . S
O185 C182 1.160 . S
O185 Cd186 2.203 . S
Cd186 O185 2.203 . S
Cd186 O188 2.411 . S
Cd186 O189 2.333 . S
Cd186 O190 2.352 . S
Cd186 O194 2.277 . S
Cd186 O195 2.356 . S
C187 O192 1.209 . S
C187 O194 1.226 . S
O188 Cd184 2.273 . S
O188 Cd186 2.411 . S
O188 C191 1.320 . S
O189 Cd186 2.333 . S
O189 C191 1.214 . S
O190 Cd186 2.352 . S
O190 C193 1.258 . S
C191 O188 1.320 . S
C191 O189 1.214 . S
O192 Cd184 2.277 . S
O192 C187 1.209 . S
C193 O190 1.258 . S
C193 O195 1.282 . S
O194 Cd186 2.277 . S
O194 C187 1.226 . S
O195 Cd186 2.356 . S
O195 C193 1.282 . S
C196 O197 1.306 . S
C196 O199 1.160 . S
O197 C196 1.306 . S
O197 Cd198 2.228 . S
Cd198 O197 2.228 . S
Cd198 O202 2.273 . S
Cd198 O206 2.277 . S
O199 C196 1.160 . S
O199 Cd200 2.203 . S
Cd200 O199 2.203 . S
Cd200 O202 2.411 . S
Cd200 O203 2.333 . S
Cd200 O204 2.352 . S
Cd200 O208 2.277 . S
Cd200 O209 2.356 . S
C201 O206 1.209 . S
C201 O208 1.226 . S
O202 Cd198 2.273 . S
O202 Cd200 2.411 . S
O202 C205 1.320 . S
O203 Cd200 2.333 . S
O203 C205 1.214 . S
O204 Cd200 2.352 . S
O204 C207 1.258 . S
C205 O202 1.320 . S
C205 O203 1.214 . S
O206 Cd198 2.277 . S
O206 C201 1.209 . S
C207 O204 1.258 . S
C207 O209 1.282 . S
O208 Cd200 2.277 . S
O208 C201 1.226 . S
O209 Cd200 2.356 . S
O209 C207 1.282 . S
C210 O211 1.306 . S
C210 O213 1.160 . S
O211 C210 1.306 . S
O211 Cd212 2.228 . S
Cd212 O211 2.228 . S
Cd212 O216 2.273 . S
Cd212 O220 2.277 . S
O213 C210 1.160 . S
O213 Cd214 2.203 . S
Cd214 O213 2.203 . S
Cd214 O216 2.411 . S
Cd214 O217 2.333 . S
Cd214 O218 2.352 . S
Cd214 O222 2.277 . S
Cd214 O223 2.356 . S
C215 O220 1.209 . S
C215 O222 1.226 . S
O216 Cd212 2.273 . S
O216 Cd214 2.411 . S
O216 C219 1.320 . S
O217 Cd214 2.333 . S
O217 C219 1.214 . S
O218 Cd214 2.352 . S
O218 C221 1.258 . S
C219 O216 1.320 . S
C219 O217 1.214 . S
O220 Cd212 2.277 . S
O220 C215 1.209 . S
C221 O218 1.258 . S
C221 O223 1.282 . S
O222 Cd214 2.277 . S
O222 C215 1.226 . S
O223 Cd214 2.356 . S
O223 C221 1.282 . S
C224 O225 1.306 . S
C224 O227 1.160 . S
O225 C224 1.306 . S
O225 Cd226 2.228 . S
Cd226 O225 2.228 . S
Cd226 O230 2.273 . S
Cd226 O234 2.277 . S
O227 C224 1.160 . S
O227 Cd228 2.203 . S
Cd228 O227 2.203 . S
Cd228 O230 2.411 . S
Cd228 O231 2.333 . S
Cd228 O232 2.352 . S
Cd228 O236 2.277 . S
Cd228 O237 2.356 . S
C229 O234 1.209 . S
C229 O236 1.226 . S
O230 Cd226 2.273 . S
O230 Cd228 2.411 . S
O230 C233 1.320 . S
O231 Cd228 2.333 . S
O231 C233 1.214 . S
O232 Cd228 2.352 . S
O232 C235 1.258 . S
C233 O230 1.320 . S
C233 O231 1.214 . S
O234 Cd226 2.277 . S
O234 C229 1.209 . S
C235 O232 1.258 . S
C235 O237 1.282 . S
O236 Cd228 2.277 . S
O236 C229 1.226 . S
O237 Cd228 2.356 . S
O237 C235 1.282 . S
C238 O239 1.306 . S
C238 O241 1.160 . S
O239 C238 1.306 . S
O239 Cd240 2.228 . S
Cd240 O239 2.228 . S
Cd240 O244 2.273 . S
Cd240 O248 2.277 . S
O241 C238 1.160 . S
O241 Cd242 2.203 . S
Cd242 O241 2.203 . S
Cd242 O244 2.411 . S
Cd242 O245 2.333 . S
Cd242 O246 2.352 . S
Cd242 O250 2.277 . S
Cd242 O251 2.356 . S
C243 O248 1.209 . S
C243 O250 1.226 . S
O244 Cd240 2.273 . S
O244 Cd242 2.411 . S
O244 C247 1.320 . S
O245 Cd242 2.333 . S
O245 C247 1.214 . S
O246 Cd242 2.352 . S
O246 C249 1.258 . S
C247 O244 1.320 . S
C247 O245 1.214 . S
O248 Cd240 2.277 . S
O248 C243 1.209 . S
C249 O246 1.258 . S
C249 O251 1.282 . S
O250 Cd242 2.277 . S
O250 C243 1.226 . S
O251 Cd242 2.356 . S
O251 C249 1.282 . S
C252 O253 1.306 . S
C252 O255 1.160 . S
O253 C252 1.306 . S
O253 Cd254 2.228 . S
Cd254 O253 2.228 . S
Cd254 O258 2.273 . S
Cd254 O262 2.277 . S
O255 C252 1.160 . S
O255 Cd256 2.203 . S
Cd256 O255 2.203 . S
Cd256 O258 2.411 . S
Cd256 O259 2.333 . S
Cd256 O260 2.352 . S
Cd256 O264 2.277 . S
Cd256 O265 2.356 . S
C257 O262 1.209 . S
C257 O264 1.226 . S
O258 Cd254 2.273 . S
O258 Cd256 2.411 . S
O258 C261 1.320 . S
O259 Cd256 2.333 . S
O259 C261 1.214 . S
O260 Cd256 2.352 . S
O260 C263 1.258 . S
C261 O258 1.320 . S
C261 O259 1.214 . S
O262 Cd254 2.277 . S
O262 C257 1.209 . S
C263 O260 1.258 . S
C263 O265 1.282 . S
O264 Cd256 2.277 . S
O264 C257 1.226 . S
O265 Cd256 2.356 . S
O265 C263 1.282 . S
C266 O267 1.306 . S
C266 O269 1.160 . S
O267 C266 1.306 . S
O267 Cd268 2.228 . S
Cd268 O267 2.228 . S
Cd268 O272 2.273 . S
Cd268 O276 2.277 . S
O269 C266 1.160 . S
O269 Cd270 2.203 . S
Cd270 O269 2.203 . S
Cd270 O272 2.411 . S
Cd270 O273 2.333 . S
Cd270 O274 2.352 . S
Cd270 O278 2.277 . S
Cd270 O279 2.356 . S
C271 O276 1.209 . S
C271 O278 1.226 . S
O272 Cd268 2.273 . S
O272 Cd270 2.411 . S
O272 C275 1.320 . S
O273 Cd270 2.333 . S
O273 C275 1.214 . S
O274 Cd270 2.352 . S
O274 C277 1.258 . S
C275 O272 1.320 . S
C275 O273 1.214 . S
O276 Cd268 2.277 . S
O276 C271 1.209 . S
C277 O274 1.258 . S
C277 O279 1.282 . S
O278 Cd270 2.277 . S
O278 C271 1.226 . S
O279 Cd270 2.356 . S
O279 C277 1.282 . S
C280 O281 1.306 . S
C280 O283 1.160 . S
O281 C280 1.306 . S
O281 Cd282 2.228 . S
Cd282 O281 2.228 . S
Cd282 O286 2.273 . S
Cd282 O290 2.277 . S
O283 C280 1.160 . S
O283 Cd284 2.203 . S
Cd284 O283 2.203 . S
Cd284 O286 2.411 . S
Cd284 O287 2.333 . S
Cd284 O288 2.352 . S
Cd284 O292 2.277 . S
Cd284 O293 2.356 . S
C285 O290 1.209 . S
C285 O292 1.226 . S
O286 Cd282 2.273 . S
O286 Cd284 2.411 . S
O286 C289 1.320 . S
O287 Cd284 2.333 . S
O287 C289 1.214 . S
O288 Cd284 2.352 . S
O288 C291 1.258 . S
C289 O286 1.320 . S
C289 O287 1.214 . S
O290 Cd282 2.277 . S
O290 C285 1.209 . S
C291 O288 1.258 . S
C291 O293 1.282 . S
O292 Cd284 2.277 . S
O292 C285 1.226 . S
O293 Cd284 2.356 . S
O293 C291 1.282 . S
C294 O295 1.306 . S
C294 O297 1.160 . S
O295 C294 1.306 . S
O295 Cd296 2.228 . S
Cd296 O295 2.228 . S
Cd296 O300 2.273 . S
Cd296 O304 2.277 . S
O297 C294 1.160 . S
O297 Cd298 2.203 . S
Cd298 O297 2.203 . S
Cd298 O300 2.411 . S
Cd298 O301 2.333 . S
Cd298 O302 2.352 . S
Cd298 O306 2.277 . S
Cd298 O307 2.356 . S
C299 O304 1.209 . S
C299 O306 1.226 . S
O300 Cd296 2.273 . S
O300 Cd298 2.411 . S
O300 C303 1.320 . S
O301 Cd298 2.333 . S
O301 C303 1.214 . S
O302 Cd298 2.352 . S
O302 C305 1.258 . S
C303 O300 1.320 . S
C303 O301 1.214 . S
O304 Cd296 2.277 . S
O304 C299 1.209 . S
C305 O302 1.258 . S
C305 O307 1.282 . S
O306 Cd298 2.277 . S
O306 C299 1.226 . S
O307 Cd298 2.356 . S
O307 C305 1.282 . S
C308 O309 1.306 . S
C308 O311 1.160 . S
O309 C308 1.306 . S
O309 Cd310 2.228 . S
Cd310 O309 2.228 . S
Cd310 O314 2.273 . S
Cd310 O318 2.277 . S
O311 C308 1.160 . S
O311 Cd312 2.203 . S
Cd312 O311 2.203 . S
Cd312 O314 2.411 . S
Cd312 O315 2.333 . S
Cd312 O316 2.352 . S
Cd312 O320 2.277 . S
Cd312 O321 2.356 . S
C313 O318 1.209 . S
C313 O320 1.226 . S
O314 Cd310 2.273 . S
O314 Cd312 2.411 . S
O314 C317 1.320 . S
O315 Cd312 2.333 . S
O315 C317 1.214 . S
O316 Cd312 2.352 . S
O316 C319 1.258 . S
C317 O314 1.320 . S
C317 O315 1.214 . S
O318 Cd310 2.277 . S
O318 C313 1.209 . S
C319 O316 1.258 . S
C319 O321 1.282 . S
O320 Cd312 2.277 . S
O320 C313 1.226 . S
O321 Cd312 2.356 . S
O321 C319 1.282 . S
C322 O323 1.306 . S
C322 O325 1.160 . S
O323 C322 1.306 . S
O323 Cd324 2.228 . S
Cd324 O323 2.228 . S
Cd324 O328 2.273 . S
Cd324 O332 2.277 . S
O325 C322 1.160 . S
O325 Cd326 2.203 . S
Cd326 O325 2.203 . S
Cd326 O328 2.411 . S
Cd326 O329 2.333 . S
Cd326 O330 2.352 . S
Cd326 O334 2.277 . S
Cd326 O335 2.356 . S
C327 O332 1.209 . S
C327 O334 1.226 . S
O328 Cd324 2.273 . S
O328 Cd326 2.411 . S
O328 C331 1.320 . S
O329 Cd326 2.333 . S
O329 C331 1.214 . S
O330 Cd326 2.352 . S
O330 C333 1.258 . S
C331 O328 1.320 . S
C331 O329 1.214 . S
O332 Cd324 2.277 . S
O332 C327 1.209 . S
C333 O330 1.258 . S
C333 O335 1.282 . S
O334 Cd326 2.277 . S
O334 C327 1.226 . S
O335 Cd326 2.356 . S
O335 C333 1.282 . S
C336 O337 1.306 . S
C336 O339 1.160 . S
O337 C336 1.306 . S
O337 Cd338 2.228 . S
Cd338 O337 2.228 . S
Cd338 O342 2.273 . S
Cd338 O346 2.277 . S
O339 C336 1.160 . S
O339 Cd340 2.203 . S
Cd340 O339 2.203 . S
Cd340 O342 2.411 . S
Cd340 O343 2.333 . S
Cd340 O344 2.352 . S
Cd340 O348 2.277 . S
Cd340 O349 2.356 . S
C341 O346 1.209 . S
C341 O348 1.226 . S
O342 Cd338 2.273 . S
O342 Cd340 2.411 . S
O342 C345 1.320 . S
O343 Cd340 2.333 . S
O343 C345 1.214 . S
O344 Cd340 2.352 . S
O344 C347 1.258 . S
C345 O342 1.320 . S
C345 O343 1.214 . S
O346 Cd338 2.277 . S
O346 C341 1.209 . S
C347 O344 1.258 . S
C347 O349 1.282 . S
O348 Cd340 2.277 . S
O348 C341 1.226 . S
O349 Cd340 2.356 . S
O349 C347 1.282 . S
C350 O351 1.306 . S
C350 O353 1.160 . S
O351 C350 1.306 . S
O351 Cd352 2.228 . S
Cd352 O351 2.228 . S
Cd352 O356 2.273 . S
Cd352 O360 2.277 . S
O353 C350 1.160 . S
O353 Cd354 2.203 . S
Cd354 O353 2.203 . S
Cd354 O356 2.411 . S
Cd354 O357 2.333 . S
Cd354 O358 2.352 . S
Cd354 O362 2.277 . S
Cd354 O363 2.356 . S
C355 O360 1.209 . S
C355 O362 1.226 . S
O356 Cd352 2.273 . S
O356 Cd354 2.411 . S
O356 C359 1.320 . S
O357 Cd354 2.333 . S
O357 C359 1.214 . S
O358 Cd354 2.352 . S
O358 C361 1.258 . S
C359 O356 1.320 . S
C359 O357 1.214 . S
O360 Cd352 2.277 . S
O360 C355 1.209 . S
C361 O358 1.258 . S
C361 O363 1.282 . S
O362 Cd354 2.277 . S
O362 C355 1.226 . S
O363 Cd354 2.356 . S
O363 C361 1.282 . S
C364 O365 1.306 . S
C364 O367 1.160 . S
O365 C364 1.306 . S
O365 Cd366 2.228 . S
Cd366 O365 2.228 . S
Cd366 O370 2.273 . S
Cd366 O374 2.277 . S
O367 C364 1.160 . S
O367 Cd368 2.203 . S
Cd368 O367 2.203 . S
Cd368 O370 2.411 . S
Cd368 O371 2.333 . S
Cd368 O372 2.352 . S
Cd368 O376 2.277 . S
Cd368 O377 2.356 . S
C369 O374 1.209 . S
C369 O376 1.226 . S
O370 Cd366 2.273 . S
O370 Cd368 2.411 . S
O370 C373 1.320 . S
O371 Cd368 2.333 . S
O371 C373 1.214 . S
O372 Cd368 2.352 . S
O372 C375 1.258 . S
C373 O370 1.320 . S
C373 O371 1.214 . S
O374 Cd366 2.277 . S
O374 C369 1.209 . S
C375 O372 1.258 . S
C375 O377 1.282 . S
O376 Cd368 2.277 . S
O376 C369 1.226 . S
O377 Cd368 2.356 . S
O377 C375 1.282 . S
C378 O379 1.306 . S
C378 O381 1.160 . S
O379 C378 1.306 . S
O379 Cd380 2.228 . S
Cd380 O379 2.228 . S
Cd380 O384 2.273 . S
Cd380 O388 2.277 . S
O381 C378 1.160 . S
O381 Cd382 2.203 . S
Cd382 O381 2.203 . S
Cd382 O384 2.411 . S
Cd382 O385 2.333 . S
Cd382 O386 2.352 . S
Cd382 O390 2.277 . S
Cd382 O391 2.356 . S
C383 O388 1.209 . S
C383 O390 1.226 . S
O384 Cd380 2.273 . S
O384 Cd382 2.411 . S
O384 C387 1.320 . S
O385 Cd382 2.333 . S
O385 C387 1.214 . S
O386 Cd382 2.352 . S
O386 C389 1.258 . S
C387 O384 1.320 . S
C387 O385 1.214 . S
O388 Cd380 2.277 . S
O388 C383 1.209 . S
C389 O386 1.258 . S
C389 O391 1.282 . S
O390 Cd382 2.277 . S
O390 C383 1.226 . S
O391 Cd382 2.356 . S
O391 C389 1.282 . S
C392 O393 1.306 . S
C392 O395 1.160 . S
O393 C392 1.306 . S
O393 Cd394 2.228 . S
Cd394 O393 2.228 . S
Cd394 O398 2.273 . S
Cd394 O402 2.277 . S
O395 C392 1.160 . S
O395 Cd396 2.203 . S
Cd396 O395 2.203 . S
Cd396 O398 2.411 . S
Cd396 O399 2.333 . S
Cd396 O400 2.352 . S
Cd396 O404 2.277 . S
Cd396 O405 2.356 . S
C397 O402 1.209 . S
C397 O404 1.226 . S
O398 Cd394 2.273 . S
O398 Cd396 2.411 . S
O398 C401 1.320 . S
O399 Cd396 2.333 . S
O399 C401 1.214 . S
O400 Cd396 2.352 . S
O400 C403 1.258 . S
C401 O398 1.320 . S
C401 O399 1.214 . S
O402 Cd394 2.277 . S
O402 C397 1.209 . S
C403 O400 1.258 . S
C403 O405 1.282 . S
O404 Cd396 2.277 . S
O404 C397 1.226 . S
O405 Cd396 2.356 . S
O405 C403 1.282 . S
C406 O407 1.306 . S
C406 O409 1.160 . S
O407 C406 1.306 . S
O407 Cd408 2.228 . S
Cd408 O407 2.228 . S
Cd408 O412 2.273 . S
Cd408 O416 2.277 . S
O409 C406 1.160 . S
O409 Cd410 2.203 . S
Cd410 O409 2.203 . S
Cd410 O412 2.411 . S
Cd410 O413 2.333 . S
Cd410 O414 2.352 . S
Cd410 O418 2.277 . S
Cd410 O419 2.356 . S
C411 O416 1.209 . S
C411 O418 1.226 . S
O412 Cd408 2.273 . S
O412 Cd410 2.411 . S
O412 C415 1.320 . S
O413 Cd410 2.333 . S
O413 C415 1.214 . S
O414 Cd410 2.352 . S
O414 C417 1.258 . S
C415 O412 1.320 . S
C415 O413 1.214 . S
O416 Cd408 2.277 . S
O416 C411 1.209 . S
C417 O414 1.258 . S
C417 O419 1.282 . S
O418 Cd410 2.277 . S
O418 C411 1.226 . S
O419 Cd410 2.356 . S
O419 C417 1.282 . S
C420 O421 1.306 . S
C420 O423 1.160 . S
O421 C420 1.306 . S
O421 Cd422 2.228 . S
Cd422 O421 2.228 . S
Cd422 O426 2.273 . S
Cd422 O430 2.277 . S
O423 C420 1.160 . S
O423 Cd424 2.203 . S
Cd424 O423 2.203 . S
Cd424 O426 2.411 . S
Cd424 O427 2.333 . S
Cd424 O428 2.352 . S
Cd424 O432 2.277 . S
Cd424 O433 2.356 . S
C425 O430 1.209 . S
C425 O432 1.226 . S
O426 Cd422 2.273 . S
O426 Cd424 2.411 . S
O426 C429 1.320 . S
O427 Cd424 2.333 . S
O427 C429 1.214 . S
O428 Cd424 2.352 . S
O428 C431 1.258 . S
C429 O426 1.320 . S
C429 O427 1.214 . S
O430 Cd422 2.277 . S
O430 C425 1.209 . S
C431 O428 1.258 . S
C431 O433 1.282 . S
O432 Cd424 2.277 . S
O432 C425 1.226 . S
O433 Cd424 2.356 . S
O433 C431 1.282 . S
C434 O435 1.306 . S
C434 O437 1.160 . S
O435 C434 1.306 . S
O435 Cd436 2.228 . S
Cd436 O435 2.228 . S
Cd436 O440 2.273 . S
Cd436 O444 2.277 . S
O437 C434 1.160 . S
O437 Cd438 2.203 . S
Cd438 O437 2.203 . S
Cd438 O440 2.411 . S
Cd438 O441 2.333 . S
Cd438 O442 2.352 . S
Cd438 O446 2.277 . S
Cd438 O447 2.356 . S
C439 O444 1.209 . S
C439 O446 1.226 . S
O440 Cd436 2.273 . S
O440 Cd438 2.411 . S
O440 C443 1.320 . S
O441 Cd438 2.333 . S
O441 C443 1.214 . S
O442 Cd438 2.352 . S
O442 C445 1.258 . S
C443 O440 1.320 . S
C443 O441 1.214 . S
O444 Cd436 2.277 . S
O444 C439 1.209 . S
C445 O442 1.258 . S
C445 O447 1.282 . S
O446 Cd438 2.277 . S
O446 C439 1.226 . S
O447 Cd438 2.356 . S
O447 C445 1.282 . S
C448 O449 1.306 . S
C448 O451 1.160 . S
O449 C448 1.306 . S
O449 Cd450 2.228 . S
Cd450 O449 2.228 . S
Cd450 O454 2.273 . S
Cd450 O458 2.277 . S
O451 C448 1.160 . S
O451 Cd452 2.203 . S
Cd452 O451 2.203 . S
Cd452 O454 2.411 . S
Cd452 O455 2.333 . S
Cd452 O456 2.352 . S
Cd452 O460 2.277 . S
Cd452 O461 2.356 . S
C453 O458 1.209 . S
C453 O460 1.226 . S
O454 Cd450 2.273 . S
O454 Cd452 2.411 . S
O454 C457 1.320 . S
O455 Cd452 2.333 . S
O455 C457 1.214 . S
O456 Cd452 2.352 . S
O456 C459 1.258 . S
C457 O454 1.320 . S
C457 O455 1.214 . S
O458 Cd450 2.277 . S
O458 C453 1.209 . S
C459 O456 1.258 . S
C459 O461 1.282 . S
O460 Cd452 2.277 . S
O460 C453 1.226 . S
O461 Cd452 2.356 . S
O461 C459 1.282 . S
C462 O463 1.306 . S
C462 O465 1.160 . S
O463 C462 1.306 . S
O463 Cd464 2.228 . S
Cd464 O463 2.228 . S
Cd464 O468 2.273 . S
Cd464 O472 2.277 . S
O465 C462 1.160 . S
O465 Cd466 2.203 . S
Cd466 O465 2.203 . S
Cd466 O468 2.411 . S
Cd466 O469 2.333 . S
Cd466 O470 2.352 . S
Cd466 O474 2.277 . S
Cd466 O475 2.356 . S
C467 O472 1.209 . S
C467 O474 1.226 . S
O468 Cd464 2.273 . S
O468 Cd466 2.411 . S
O468 C471 1.320 . S
O469 Cd466 2.333 . S
O469 C471 1.214 . S
O470 Cd466 2.352 . S
O470 C473 1.258 . S
C471 O468 1.320 . S
C471 O469 1.214 . S
O472 Cd464 2.277 . S
O472 C467 1.209 . S
C473 O470 1.258 . S
C473 O475 1.282 . S
O474 Cd466 2.277 . S
O474 C467 1.226 . S
O475 Cd466 2.356 . S
O475 C473 1.282 . S
C476 O477 1.306 . S
C476 O479 1.160 . S
O477 C476 1.306 . S
O477 Cd478 2.228 . S
Cd478 O477 2.228 . S
Cd478 O482 2.273 . S
Cd478 O486 2.277 . S
O479 C476 1.160 . S
O479 Cd480 2.203 . S
Cd480 O479 2.203 . S
Cd480 O482 2.411 . S
Cd480 O483 2.333 . S
Cd480 O484 2.352 . S
Cd480 O488 2.277 . S
Cd480 O489 2.356 . S
C481 O486 1.209 . S
C481 O488 1.226 . S
O482 Cd478 2.273 . S
O482 Cd480 2.411 . S
O482 C485 1.320 . S
O483 Cd480 2.333 . S
O483 C485 1.214 . S
O484 Cd480 2.352 . S
O484 C487 1.258 . S
C485 O482 1.320 . S
C485 O483 1.214 . S
O486 Cd478 2.277 . S
O486 C481 1.209 . S
C487 O484 1.258 . S
C487 O489 1.282 . S
O488 Cd480 2.277 . S
O488 C481 1.226 . S
O489 Cd480 2.356 . S
O489 C487 1.282 . S
C490 O491 1.306 . S
C490 O493 1.160 . S
O491 C490 1.306 . S
O491 Cd492 2.228 . S
Cd492 O491 2.228 . S
Cd492 O496 2.273 . S
Cd492 O500 2.277 . S
O493 C490 1.160 . S
O493 Cd494 2.203 . S
Cd494 O493 2.203 . S
Cd494 O496 2.411 . S
Cd494 O497 2.333 . S
Cd494 O498 2.352 . S
Cd494 O502 2.277 . S
Cd494 O503 2.356 . S
C495 O500 1.209 . S
C495 O502 1.226 . S
O496 Cd492 2.273 . S
O496 Cd494 2.411 . S
O496 C499 1.320 . S
O497 Cd494 2.333 . S
O497 C499 1.214 . S
O498 Cd494 2.352 . S
O498 C501 1.258 . S
C499 O496 1.320 . S
C499 O497 1.214 . S
O500 Cd492 2.277 . S
O500 C495 1.209 . S
C501 O498 1.258 . S
C501 O503 1.282 . S
O502 Cd494 2.277 . S
O502 C495 1.226 . S
O503 Cd494 2.356 . S
O503 C501 1.282 . S
C504 O505 1.306 . S
C504 O507 1.160 . S
O505 C504 1.306 . S
O505 Cd506 2.228 . S
Cd506 O505 2.228 . S
Cd506 O510 2.273 . S
Cd506 O514 2.277 . S
O507 C504 1.160 . S
O507 Cd508 2.203 . S
Cd508 O507 2.203 . S
Cd508 O510 2.411 . S
Cd508 O511 2.333 . S
Cd508 O512 2.352 . S
Cd508 O516 2.277 . S
Cd508 O517 2.356 . S
C509 O514 1.209 . S
C509 O516 1.226 . S
O510 Cd506 2.273 . S
O510 Cd508 2.411 . S
O510 C513 1.320 . S
O511 Cd508 2.333 . S
O511 C513 1.214 . S
O512 Cd508 2.352 . S
O512 C515 1.258 . S
C513 O510 1.320 . S
C513 O511 1.214 . S
O514 Cd506 2.277 . S
O514 C509 1.209 . S
C515 O512 1.258 . S
C515 O517 1.282 . S
O516 Cd508 2.277 . S
O516 C509 1.226 . S
O517 Cd508 2.356 . S
O517 C515 1.282 . S
C518 O519 1.306 . S
C518 O521 1.160 . S
O519 C518 1.306 . S
O519 Cd520 2.228 . S
Cd520 O519 2.228 . S
Cd520 O524 2.273 . S
Cd520 O528 2.277 . S
O521 C518 1.160 . S
O521 Cd522 2.203 . S
Cd522 O521 2.203 . S
Cd522 O524 2.411 . S
Cd522 O525 2.333 . S
Cd522 O526 2.352 . S
Cd522 O530 2.277 . S
Cd522 O531 2.356 . S
C523 O528 1.209 . S
C523 O530 1.226 . S
O524 Cd520 2.273 . S
O524 Cd522 2.411 . S
O524 C527 1.320 . S
O525 Cd522 2.333 . S
O525 C527 1.214 . S
O526 Cd522 2.352 . S
O526 C529 1.258 . S
C527 O524 1.320 . S
C527 O525 1.214 . S
O528 Cd520 2.277 . S
O528 C523 1.209 . S
C529 O526 1.258 . S
C529 O531 1.282 . S
O530 Cd522 2.277 . S
O530 C523 1.226 . S
O531 Cd522 2.356 . S
O531 C529 1.282 . S
C532 O533 1.306 . S
C532 O535 1.160 . S
O533 C532 1.306 . S
O533 Cd534 2.228 . S
Cd534 O533 2.228 . S
Cd534 O538 2.273 . S
Cd534 O542 2.277 . S
O535 C532 1.160 . S
O535 Cd536 2.203 . S
Cd536 O535 2.203 . S
Cd536 O538 2.411 . S
Cd536 O539 2.333 . S
Cd536 O540 2.352 . S
Cd536 O544 2.277 . S
Cd536 O545 2.356 . S
C537 O542 1.209 . S
C537 O544 1.226 . S
O538 Cd534 2.273 . S
O538 Cd536 2.411 . S
O538 C541 1.320 . S
O539 Cd536 2.333 . S
O539 C541 1.214 . S
O540 Cd536 2.352 . S
O540 C543 1.258 . S
C541 O538 1.320 . S
C541 O539 1.214 . S
O542 Cd534 2.277 . S
O542 C537 1.209 . S
C543 O540 1.258 . S
C543 O545 1.282 . S
O544 Cd536 2.277 . S
O544 C537 1.226 . S
O545 Cd536 2.356 . S
O545 C543 1.282 . S
C546 O547 1.306 . S
C546 O549 1.160 . S
O547 C546 1.306 . S
O547 Cd548 2.228 . S
Cd548 O547 2.228 . S
Cd548 O552 2.273 . S
Cd548 O556 2.277 . S
O549 C546 1.160 . S
O549 Cd550 2.203 . S
Cd550 O549 2.203 . S
Cd550 O552 2.411 . S
Cd550 O553 2.333 . S
Cd550 O554 2.352 . S
Cd550 O558 2.277 . S
Cd550 O559 2.356 . S
C551 O556 1.209 . S
C551 O558 1.226 . S
O552 Cd548 2.273 . S
O552 Cd550 2.411 . S
O552 C555 1.320 . S
O553 Cd550 2.333 . S
O553 C555 1.214 . S
O554 Cd550 2.352 . S
O554 C557 1.258 . S
C555 O552 1.320 . S
C555 O553 1.214 . S
O556 Cd548 2.277 . S
O556 C551 1.209 . S
C557 O554 1.258 . S
C557 O559 1.282 . S
O558 Cd550 2.277 . S
O558 C551 1.226 . S
O559 Cd550 2.356 . S
O559 C557 1.282 . S
C560 O561 1.306 . S
C560 O563 1.160 . S
O561 C560 1.306 . S
O561 Cd562 2.228 . S
Cd562 O561 2.228 . S
Cd562 O566 2.273 . S
Cd562 O570 2.277 . S
O563 C560 1.160 . S
O563 Cd564 2.203 . S
Cd564 O563 2.203 . S
Cd564 O566 2.411 . S
Cd564 O567 2.333 . S
Cd564 O568 2.352 . S
Cd564 O572 2.277 . S
Cd564 O573 2.356 . S
C565 O570 1.209 . S
C565 O572 1.226 . S
O566 Cd562 2.273 . S
O566 Cd564 2.411 . S
O566 C569 1.320 . S
O567 Cd564 2.333 . S
O567 C569 1.214 . S
O568 Cd564 2.352 . S
O568 C571 1.258 . S
C569 O566 1.320 . S
C569 O567 1.214 . S
O570 Cd562 2.277 . S
O570 C565 1.209 . S
C571 O568 1.258 . S
C571 O573 1.282 . S
O572 Cd564 2.277 . S
O572 C565 1.226 . S
O573 Cd564 2.356 . S
O573 C571 1.282 . S
C574 O575 1.306 . S
C574 O577 1.160 . S
O575 C574 1.306 . S
O575 Cd576 2.228 . S
Cd576 O575 2.228 . S
Cd576 O580 2.273 . S
Cd576 O584 2.277 . S
O577 C574 1.160 . S
O577 Cd578 2.203 . S
Cd578 O577 2.203 . S
Cd578 O580 2.411 . S
Cd578 O581 2.333 . S
Cd578 O582 2.352 . S
Cd578 O586 2.277 . S
Cd578 O587 2.356 . S
C579 O584 1.209 . S
C579 O586 1.226 . S
O580 Cd576 2.273 . S
O580 Cd578 2.411 . S
O580 C583 1.320 . S
O581 Cd578 2.333 . S
O581 C583 1.214 . S
O582 Cd578 2.352 . S
O582 C585 1.258 . S
C583 O580 1.320 . S
C583 O581 1.214 . S
O584 Cd576 2.277 . S
O584 C579 1.209 . S
C585 O582 1.258 . S
C585 O587 1.282 . S
O586 Cd578 2.277 . S
O586 C579 1.226 . S
O587 Cd578 2.356 . S
O587 C585 1.282 . S
C588 O589 1.306 . S
C588 O591 1.160 . S
O589 C588 1.306 . S
O589 Cd590 2.228 . S
Cd590 O589 2.228 . S
Cd590 O594 2.273 . S
Cd590 O598 2.277 . S
O591 C588 1.160 . S
O591 Cd592 2.203 . S
Cd592 O591 2.203 . S
Cd592 O594 2.411 . S
Cd592 O595 2.333 . S
Cd592 O596 2.352 . S
Cd592 O600 2.277 . S
Cd592 O601 2.356 . S
C593 O598 1.209 . S
C593 O600 1.226 . S
O594 Cd590 2.273 . S
O594 Cd592 2.411 . S
O594 C597 1.320 . S
O595 Cd592 2.333 . S
O595 C597 1.214 . S
O596 Cd592 2.352 . S
O596 C599 1.258 . S
C597 O594 1.320 . S
C597 O595 1.214 . S
O598 Cd590 2.277 . S
O598 C593 1.209 . S
C599 O596 1.258 . S
C599 O601 1.282 . S
O600 Cd592 2.277 . S
O600 C593 1.226 . S
O601 Cd592 2.356 . S
O601 C599 1.282 . S
C602 O603 1.306 . S
C602 O605 1.160 . S
O603 C602 1.306 . S
O603 Cd604 2.228 . S
Cd604 O603 2.228 . S
Cd604 O608 2.273 . S
Cd604 O612 2.277 . S
O605 C602 1.160 . S
O605 Cd606 2.203 . S
Cd606 O605 2.203 . S
Cd606 O608 2.411 . S
Cd606 O609 2.333 . S
Cd606 O610 2.352 . S
Cd606 O614 2.277 . S
Cd606 O615 2.356 . S
C607 O612 1.209 . S
C607 O614 1.226 . S
O608 Cd604 2.273 . S
O608 Cd606 2.411 . S
O608 C611 1.320 . S
O609 Cd606 2.333 . S
O609 C611 1.214 . S
O610 Cd606 2.352 . S
O610 C613 1.258 . S
C611 O608 1.320 . S
C611 O609 1.214 . S
O612 Cd604 2.277 . S
O612 C607 1.209 . S
C613 O610 1.258 . S
C613 O615 1.282 . S
O614 Cd606 2.277 . S
O614 C607 1.226 . S
O615 Cd606 2.356 . S
O615 C613 1.282 . S
C616 O617 1.306 . S
C616 O619 1.160 . S
O617 C616 1.306 . S
O617 Cd618 2.228 . S
Cd618 O617 2.228 . S
Cd618 O622 2.273 . S
Cd618 O626 2.277 . S
O619 C616 1.160 . S
O619 Cd620 2.203 . S
Cd620 O619 2.203 . S
Cd620 O622 2.411 . S
Cd620 O623 2.333 . S
Cd620 O624 2.352 . S
Cd620 O628 2.277 . S
Cd620 O629 2.356 . S
C621 O626 1.209 . S
C621 O628 1.226 . S
O622 Cd618 2.273 . S
O622 Cd620 2.411 . S
O622 C625 1.320 . S
O623 Cd620 2.333 . S
O623 C625 1.214 . S
O624 Cd620 2.352 . S
O624 C627 1.258 . S
C625 O622 1.320 . S
C625 O623 1.214 . S
O626 Cd618 2.277 . S
O626 C621 1.209 . S
C627 O624 1.258 . S
C627 O629 1.282 . S
O628 Cd620 2.277 . S
O628 C621 1.226 . S
O629 Cd620 2.356 . S
O629 C627 1.282 . S
C630 O631 1.306 . S
C630 O633 1.160 . S
O631 C630 1.306 . S
O631 Cd632 2.228 . S
Cd632 O631 2.228 . S
Cd632 O636 2.273 . S
Cd632 O640 2.277 . S
O633 C630 1.160 . S
O633 Cd634 2.203 . S
Cd634 O633 2.203 . S
Cd634 O636 2.411 . S
Cd634 O637 2.333 . S
Cd634 O638 2.352 . S
Cd634 O642 2.277 . S
Cd634 O643 2.356 . S
C635 O640 1.209 . S
C635 O642 1.226 . S
O636 Cd632 2.273 . S
O636 Cd634 2.411 . S
O636 C639 1.320 . S
O637 Cd634 2.333 . S
O637 C639 1.214 . S
O638 Cd634 2.352 . S
O638 C641 1.258 . S
C639 O636 1.320 . S
C639 O637 1.214 . S
O640 Cd632 2.277 . S
O640 C635 1.209 . S
C641 O638 1.258 . S
C641 O643 1.282 . S
O642 Cd634 2.277 . S
O642 C635 1.226 . S
O643 Cd634 2.356 . S
O643 C641 1.282 . S
C644 O645 1.306 . S
C644 O647 1.160 . S
O645 C644 1.306 . S
O645 Cd646 2.228 . S
Cd646 O645 2.228 . S
Cd646 O650 2.273 . S
Cd646 O654 2.277 . S
O647 C644 1.160 . S
O647 Cd648 2.203 . S
Cd648 O647 2.203 . S
Cd648 O650 2.411 . S
Cd648 O651 2.333 . S
Cd648 O652 2.352 . S
Cd648 O656 2.277 . S
Cd648 O657 2.356 . S
C649 O654 1.209 . S
C649 O656 1.226 . S
O650 Cd646 2.273 . S
O650 Cd648 2.411 . S
O650 C653 1.320 . S
O651 Cd648 2.333 . S
O651 C653 1.214 . S
O652 Cd648 2.352 . S
O652 C655 1.258 . S
C653 O650 1.320 . S
C653 O651 1.214 . S
O654 Cd646 2.277 . S
O654 C649 1.209 . S
C655 O652 1.258 . S
C655 O657 1.282 . S
O656 Cd648 2.277 . S
O656 C649 1.226 . S
O657 Cd648 2.356 . S
O657 C655 1.282 . S
C658 O659 1.306 . S
C658 O661 1.160 . S
O659 C658 1.306 . S
O659 Cd660 2.228 . S
Cd660 O659 2.228 . S
Cd660 O664 2.273 . S
Cd660 O668 2.277 . S
O661 C658 1.160 . S
O661 Cd662 2.203 . S
Cd662 O661 2.203 . S
Cd662 O664 2.411 . S
Cd662 O665 2.333 . S
Cd662 O666 2.352 . S
Cd662 O670 2.277 . S
Cd662 O671 2.356 . S
C663 O668 1.209 . S
C663 O670 1.226 . S
O664 Cd660 2.273 . S
O664 Cd662 2.411 . S
O664 C667 1.320 . S
O665 Cd662 2.333 . S
O665 C667 1.214 . S
O666 Cd662 2.352 . S
O666 C669 1.258 . S
C667 O664 1.320 . S
C667 O665 1.214 . S
O668 Cd660 2.277 . S
O668 C663 1.209 . S
C669 O666 1.258 . S
C669 O671 1.282 . S
O670 Cd662 2.277 . S
O670 C663 1.226 . S
O671 Cd662 2.356 . S
O671 C669 1.282 . S
C672 C673 1.349 . S
C672 C674 1.327 . S
C672 H697 0.950 . S
C673 C672 1.349 . S
C673 C689 1.349 . S
C674 C672 1.327 . S
C674 C693 1.429 . S
C674 H698 0.950 . S
C675 C692 1.574 . S
C675 C694 1.368 . S
C675 H699 0.949 . S
H676 C680 0.949 . S
C677 C678 1.349 . S
C677 C679 1.327 . S
C677 H700 0.950 . S
C678 C677 1.349 . S
C678 C690 1.349 . S
C679 C677 1.327 . S
C679 C695 1.429 . S
C679 H701 0.950 . S
C680 H676 0.949 . S
C680 C688 1.574 . S
C680 C696 1.368 . S
H681 C689 0.950 . S
H682 C687 0.950 . S
H683 C688 0.949 . S
H684 C690 0.950 . S
H685 C691 0.950 . S
H686 C692 0.949 . S
C687 H682 0.950 . S
C687 C689 1.327 . S
C687 C693 1.429 . S
C688 C680 1.574 . S
C688 H683 0.949 . S
C688 C694 1.368 . S
C689 C673 1.349 . S
C689 H681 0.950 . S
C689 C687 1.327 . S
C690 C678 1.349 . S
C690 H684 0.950 . S
C690 C691 1.327 . S
C691 H685 0.950 . S
C691 C690 1.327 . S
C691 C695 1.429 . S
C692 C675 1.574 . S
C692 H686 0.949 . S
C692 C696 1.368 . S
C693 C674 1.429 . S
C693 C687 1.429 . S
C693 C694 1.523 . S
C694 C675 1.368 . S
C694 C688 1.368 . S
C694 C693 1.523 . S
C695 C679 1.429 . S
C695 C691 1.429 . S
C695 C696 1.523 . S
C696 C680 1.368 . S
C696 C692 1.368 . S
C696 C695 1.523 . S
H697 C672 0.950 . S
H698 C674 0.950 . S
H699 C675 0.949 . S
H700 C677 0.950 . S
H701 C679 0.950 . S
C702 C703 1.349 . S
C702 C704 1.327 . S
C702 H727 0.950 . S
C703 C702 1.349 . S
C703 C719 1.349 . S
C704 C702 1.327 . S
C704 C723 1.429 . S
C704 H728 0.950 . S
C705 C722 1.574 . S
C705 C724 1.368 . S
C705 H729 0.949 . S
H706 C710 0.949 . S
C707 C708 1.349 . S
C707 C709 1.327 . S
C707 H730 0.950 . S
C708 C707 1.349 . S
C708 C720 1.349 . S
C709 C707 1.327 . S
C709 C725 1.429 . S
C709 H731 0.950 . S
C710 H706 0.949 . S
C710 C718 1.574 . S
C710 C726 1.368 . S
H711 C719 0.950 . S
H712 C717 0.950 . S
H713 C718 0.949 . S
H714 C720 0.950 . S
H715 C721 0.950 . S
H716 C722 0.949 . S
C717 H712 0.950 . S
C717 C719 1.327 . S
C717 C723 1.429 . S
C718 C710 1.574 . S
C718 H713 0.949 . S
C718 C724 1.368 . S
C719 C703 1.349 . S
C719 H711 0.950 . S
C719 C717 1.327 . S
C720 C708 1.349 . S
C720 H714 0.950 . S
C720 C721 1.327 . S
C721 H715 0.950 . S
C721 C720 1.327 . S
C721 C725 1.429 . S
C722 C705 1.574 . S
C722 H716 0.949 . S
C722 C726 1.368 . S
C723 C704 1.429 . S
C723 C717 1.429 . S
C723 C724 1.523 . S
C724 C705 1.368 . S
C724 C718 1.368 . S
C724 C723 1.523 . S
C725 C709 1.429 . S
C725 C721 1.429 . S
C725 C726 1.523 . S
C726 C710 1.368 . S
C726 C722 1.368 . S
C726 C725 1.523 . S
H727 C702 0.950 . S
H728 C704 0.950 . S
H729 C705 0.949 . S
H730 C707 0.950 . S
H731 C709 0.950 . S
C732 C733 1.349 . S
C732 C734 1.327 . S
C732 H757 0.950 . S
C733 C732 1.349 . S
C733 C749 1.349 . S
C734 C732 1.327 . S
C734 C753 1.429 . S
C734 H758 0.950 . S
C735 C752 1.574 . S
C735 C754 1.368 . S
C735 H759 0.949 . S
H736 C740 0.949 . S
C737 C738 1.349 . S
C737 C739 1.327 . S
C737 H760 0.950 . S
C738 C737 1.349 . S
C738 C750 1.349 . S
C739 C737 1.327 . S
C739 C755 1.429 . S
C739 H761 0.950 . S
C740 H736 0.949 . S
C740 C748 1.574 . S
C740 C756 1.368 . S
H741 C749 0.950 . S
H742 C747 0.950 . S
H743 C748 0.949 . S
H744 C750 0.950 . S
H745 C751 0.950 . S
H746 C752 0.949 . S
C747 H742 0.950 . S
C747 C749 1.327 . S
C747 C753 1.429 . S
C748 C740 1.574 . S
C748 H743 0.949 . S
C748 C754 1.368 . S
C749 C733 1.349 . S
C749 H741 0.950 . S
C749 C747 1.327 . S
C750 C738 1.349 . S
C750 H744 0.950 . S
C750 C751 1.327 . S
C751 H745 0.950 . S
C751 C750 1.327 . S
C751 C755 1.429 . S
C752 C735 1.574 . S
C752 H746 0.949 . S
C752 C756 1.368 . S
C753 C734 1.429 . S
C753 C747 1.429 . S
C753 C754 1.523 . S
C754 C735 1.368 . S
C754 C748 1.368 . S
C754 C753 1.523 . S
C755 C739 1.429 . S
C755 C751 1.429 . S
C755 C756 1.523 . S
C756 C740 1.368 . S
C756 C752 1.368 . S
C756 C755 1.523 . S
H757 C732 0.950 . S
H758 C734 0.950 . S
H759 C735 0.949 . S
H760 C737 0.950 . S
H761 C739 0.950 . S
C762 C763 1.349 . S
C762 C764 1.327 . S
C762 H787 0.950 . S
C763 C762 1.349 . S
C763 C779 1.349 . S
C764 C762 1.327 . S
C764 C783 1.429 . S
C764 H788 0.950 . S
C765 C782 1.574 . S
C765 C784 1.368 . S
C765 H789 0.949 . S
H766 C770 0.949 . S
C767 C768 1.349 . S
C767 C769 1.327 . S
C767 H790 0.950 . S
C768 C767 1.349 . S
C768 C780 1.349 . S
C769 C767 1.327 . S
C769 C785 1.429 . S
C769 H791 0.950 . S
C770 H766 0.949 . S
C770 C778 1.574 . S
C770 C786 1.368 . S
H771 C779 0.950 . S
H772 C777 0.950 . S
H773 C778 0.949 . S
H774 C780 0.950 . S
H775 C781 0.950 . S
H776 C782 0.949 . S
C777 H772 0.950 . S
C777 C779 1.327 . S
C777 C783 1.429 . S
C778 C770 1.574 . S
C778 H773 0.949 . S
C778 C784 1.368 . S
C779 C763 1.349 . S
C779 H771 0.950 . S
C779 C777 1.327 . S
C780 C768 1.349 . S
C780 H774 0.950 . S
C780 C781 1.327 . S
C781 H775 0.950 . S
C781 C780 1.327 . S
C781 C785 1.429 . S
C782 C765 1.574 . S
C782 H776 0.949 . S
C782 C786 1.368 . S
C783 C764 1.429 . S
C783 C777 1.429 . S
C783 C784 1.523 . S
C784 C765 1.368 . S
C784 C778 1.368 . S
C784 C783 1.523 . S
C785 C769 1.429 . S
C785 C781 1.429 . S
C785 C786 1.523 . S
C786 C770 1.368 . S
C786 C782 1.368 . S
C786 C785 1.523 . S
H787 C762 0.950 . S
H788 C764 0.950 . S
H789 C765 0.949 . S
H790 C767 0.950 . S
H791 C769 0.950 . S
C792 C793 1.349 . S
C792 C794 1.327 . S
C792 H817 0.950 . S
C793 C792 1.349 . S
C793 C809 1.349 . S
C794 C792 1.327 . S
C794 C813 1.429 . S
C794 H818 0.950 . S
C795 C812 1.574 . S
C795 C814 1.368 . S
C795 H819 0.949 . S
H796 C800 0.949 . S
C797 C798 1.349 . S
C797 C799 1.327 . S
C797 H820 0.950 . S
C798 C797 1.349 . S
C798 C810 1.349 . S
C799 C797 1.327 . S
C799 C815 1.429 . S
C799 H821 0.950 . S
C800 H796 0.949 . S
C800 C808 1.574 . S
C800 C816 1.368 . S
H801 C809 0.950 . S
H802 C807 0.950 . S
H803 C808 0.949 . S
H804 C810 0.950 . S
H805 C811 0.950 . S
H806 C812 0.949 . S
C807 H802 0.950 . S
C807 C809 1.327 . S
C807 C813 1.429 . S
C808 C800 1.574 . S
C808 H803 0.949 . S
C808 C814 1.368 . S
C809 C793 1.349 . S
C809 H801 0.950 . S
C809 C807 1.327 . S
C810 C798 1.349 . S
C810 H804 0.950 . S
C810 C811 1.327 . S
C811 H805 0.950 . S
C811 C810 1.327 . S
C811 C815 1.429 . S
C812 C795 1.574 . S
C812 H806 0.949 . S
C812 C816 1.368 . S
C813 C794 1.429 . S
C813 C807 1.429 . S
C813 C814 1.523 . S
C814 C795 1.368 . S
C814 C808 1.368 . S
C814 C813 1.523 . S
C815 C799 1.429 . S
C815 C811 1.429 . S
C815 C816 1.523 . S
C816 C800 1.368 . S
C816 C812 1.368 . S
C816 C815 1.523 . S
H817 C792 0.950 . S
H818 C794 0.950 . S
H819 C795 0.949 . S
H820 C797 0.950 . S
H821 C799 0.950 . S
C822 C823 1.349 . S
C822 C824 1.327 . S
C822 H847 0.950 . S
C823 C822 1.349 . S
C823 C839 1.349 . S
C824 C822 1.327 . S
C824 C843 1.429 . S
C824 H848 0.950 . S
C825 C842 1.574 . S
C825 C844 1.368 . S
C825 H849 0.949 . S
H826 C830 0.949 . S
C827 C828 1.349 . S
C827 C829 1.327 . S
C827 H850 0.950 . S
C828 C827 1.349 . S
C828 C840 1.349 . S
C829 C827 1.327 . S
C829 C845 1.429 . S
C829 H851 0.950 . S
C830 H826 0.949 . S
C830 C838 1.574 . S
C830 C846 1.368 . S
H831 C839 0.950 . S
H832 C837 0.950 . S
H833 C838 0.949 . S
H834 C840 0.950 . S
H835 C841 0.950 . S
H836 C842 0.949 . S
C837 H832 0.950 . S
C837 C839 1.327 . S
C837 C843 1.429 . S
C838 C830 1.574 . S
C838 H833 0.949 . S
C838 C844 1.368 . S
C839 C823 1.349 . S
C839 H831 0.950 . S
C839 C837 1.327 . S
C840 C828 1.349 . S
C840 H834 0.950 . S
C840 C841 1.327 . S
C841 H835 0.950 . S
C841 C840 1.327 . S
C841 C845 1.429 . S
C842 C825 1.574 . S
C842 H836 0.949 . S
C842 C846 1.368 . S
C843 C824 1.429 . S
C843 C837 1.429 . S
C843 C844 1.523 . S
C844 C825 1.368 . S
C844 C838 1.368 . S
C844 C843 1.523 . S
C845 C829 1.429 . S
C845 C841 1.429 . S
C845 C846 1.523 . S
C846 C830 1.368 . S
C846 C842 1.368 . S
C846 C845 1.523 . S
H847 C822 0.950 . S
H848 C824 0.950 . S
H849 C825 0.949 . S
H850 C827 0.950 . S
H851 C829 0.950 . S
C852 C853 1.349 . S
C852 C854 1.327 . S
C852 H877 0.950 . S
C853 C852 1.349 . S
C853 C869 1.349 . S
C854 C852 1.327 . S
C854 C873 1.429 . S
C854 H878 0.950 . S
C855 C872 1.574 . S
C855 C874 1.368 . S
C855 H879 0.949 . S
H856 C860 0.949 . S
C857 C858 1.349 . S
C857 C859 1.327 . S
C857 H880 0.950 . S
C858 C857 1.349 . S
C858 C870 1.349 . S
C859 C857 1.327 . S
C859 C875 1.429 . S
C859 H881 0.950 . S
C860 H856 0.949 . S
C860 C868 1.574 . S
C860 C876 1.368 . S
H861 C869 0.950 . S
H862 C867 0.950 . S
H863 C868 0.949 . S
H864 C870 0.950 . S
H865 C871 0.950 . S
H866 C872 0.949 . S
C867 H862 0.950 . S
C867 C869 1.327 . S
C867 C873 1.429 . S
C868 C860 1.574 . S
C868 H863 0.949 . S
C868 C874 1.368 . S
C869 C853 1.349 . S
C869 H861 0.950 . S
C869 C867 1.327 . S
C870 C858 1.349 . S
C870 H864 0.950 . S
C870 C871 1.327 . S
C871 H865 0.950 . S
C871 C870 1.327 . S
C871 C875 1.429 . S
C872 C855 1.574 . S
C872 H866 0.949 . S
C872 C876 1.368 . S
C873 C854 1.429 . S
C873 C867 1.429 . S
C873 C874 1.523 . S
C874 C855 1.368 . S
C874 C868 1.368 . S
C874 C873 1.523 . S
C875 C859 1.429 . S
C875 C871 1.429 . S
C875 C876 1.523 . S
C876 C860 1.368 . S
C876 C872 1.368 . S
C876 C875 1.523 . S
H877 C852 0.950 . S
H878 C854 0.950 . S
H879 C855 0.949 . S
H880 C857 0.950 . S
H881 C859 0.950 . S
C882 C883 1.349 . S
C882 C884 1.327 . S
C882 H907 0.950 . S
C883 C882 1.349 . S
C883 C899 1.349 . S
C884 C882 1.327 . S
C884 C903 1.429 . S
C884 H908 0.950 . S
C885 C902 1.574 . S
C885 C904 1.368 . S
C885 H909 0.949 . S
H886 C890 0.949 . S
C887 C888 1.349 . S
C887 C889 1.327 . S
C887 H910 0.950 . S
C888 C887 1.349 . S
C888 C900 1.349 . S
C889 C887 1.327 . S
C889 C905 1.429 . S
C889 H911 0.950 . S
C890 H886 0.949 . S
C890 C898 1.574 . S
C890 C906 1.368 . S
H891 C899 0.950 . S
H892 C897 0.950 . S
H893 C898 0.949 . S
H894 C900 0.950 . S
H895 C901 0.950 . S
H896 C902 0.949 . S
C897 H892 0.950 . S
C897 C899 1.327 . S
C897 C903 1.429 . S
C898 C890 1.574 . S
C898 H893 0.949 . S
C898 C904 1.368 . S
C899 C883 1.349 . S
C899 H891 0.950 . S
C899 C897 1.327 . S
C900 C888 1.349 . S
C900 H894 0.950 . S
C900 C901 1.327 . S
C901 H895 0.950 . S
C901 C900 1.327 . S
C901 C905 1.429 . S
C902 C885 1.574 . S
C902 H896 0.949 . S
C902 C906 1.368 . S
C903 C884 1.429 . S
C903 C897 1.429 . S
C903 C904 1.523 . S
C904 C885 1.368 . S
C904 C898 1.368 . S
C904 C903 1.523 . S
C905 C889 1.429 . S
C905 C901 1.429 . S
C905 C906 1.523 . S
C906 C890 1.368 . S
C906 C902 1.368 . S
C906 C905 1.523 . S
H907 C882 0.950 . S
H908 C884 0.950 . S
H909 C885 0.949 . S
H910 C887 0.950 . S
H911 C889 0.950 . S
C912 C913 1.349 . S
C912 C914 1.327 . S
C912 H937 0.950 . S
C913 C912 1.349 . S
C913 C929 1.349 . S
C914 C912 1.327 . S
C914 C933 1.429 . S
C914 H938 0.950 . S
C915 C932 1.574 . S
C915 C934 1.368 . S
C915 H939 0.949 . S
H916 C920 0.949 . S
C917 C918 1.349 . S
C917 C919 1.327 . S
C917 H940 0.950 . S
C918 C917 1.349 . S
C918 C930 1.349 . S
C919 C917 1.327 . S
C919 C935 1.429 . S
C919 H941 0.950 . S
C920 H916 0.949 . S
C920 C928 1.574 . S
C920 C936 1.368 . S
H921 C929 0.950 . S
H922 C927 0.950 . S
H923 C928 0.949 . S
H924 C930 0.950 . S
H925 C931 0.950 . S
H926 C932 0.949 . S
C927 H922 0.950 . S
C927 C929 1.327 . S
C927 C933 1.429 . S
C928 C920 1.574 . S
C928 H923 0.949 . S
C928 C934 1.368 . S
C929 C913 1.349 . S
C929 H921 0.950 . S
C929 C927 1.327 . S
C930 C918 1.349 . S
C930 H924 0.950 . S
C930 C931 1.327 . S
C931 H925 0.950 . S
C931 C930 1.327 . S
C931 C935 1.429 . S
C932 C915 1.574 . S
C932 H926 0.949 . S
C932 C936 1.368 . S
C933 C914 1.429 . S
C933 C927 1.429 . S
C933 C934 1.523 . S
C934 C915 1.368 . S
C934 C928 1.368 . S
C934 C933 1.523 . S
C935 C919 1.429 . S
C935 C931 1.429 . S
C935 C936 1.523 . S
C936 C920 1.368 . S
C936 C932 1.368 . S
C936 C935 1.523 . S
H937 C912 0.950 . S
H938 C914 0.950 . S
H939 C915 0.949 . S
H940 C917 0.950 . S
H941 C919 0.950 . S
C942 C943 1.349 . S
C942 C944 1.327 . S
C942 H967 0.950 . S
C943 C942 1.349 . S
C943 C959 1.349 . S
C944 C942 1.327 . S
C944 C963 1.429 . S
C944 H968 0.950 . S
C945 C962 1.574 . S
C945 C964 1.368 . S
C945 H969 0.949 . S
H946 C950 0.949 . S
C947 C948 1.349 . S
C947 C949 1.327 . S
C947 H970 0.950 . S
C948 C947 1.349 . S
C948 C960 1.349 . S
C949 C947 1.327 . S
C949 C965 1.429 . S
C949 H971 0.950 . S
C950 H946 0.949 . S
C950 C958 1.574 . S
C950 C966 1.368 . S
H951 C959 0.950 . S
H952 C957 0.950 . S
H953 C958 0.949 . S
H954 C960 0.950 . S
H955 C961 0.950 . S
H956 C962 0.949 . S
C957 H952 0.950 . S
C957 C959 1.327 . S
C957 C963 1.429 . S
C958 C950 1.574 . S
C958 H953 0.949 . S
C958 C964 1.368 . S
C959 C943 1.349 . S
C959 H951 0.950 . S
C959 C957 1.327 . S
C960 C948 1.349 . S
C960 H954 0.950 . S
C960 C961 1.327 . S
C961 H955 0.950 . S
C961 C960 1.327 . S
C961 C965 1.429 . S
C962 C945 1.574 . S
C962 H956 0.949 . S
C962 C966 1.368 . S
C963 C944 1.429 . S
C963 C957 1.429 . S
C963 C964 1.523 . S
C964 C945 1.368 . S
C964 C958 1.368 . S
C964 C963 1.523 . S
C965 C949 1.429 . S
C965 C961 1.429 . S
C965 C966 1.523 . S
C966 C950 1.368 . S
C966 C962 1.368 . S
C966 C965 1.523 . S
H967 C942 0.950 . S
H968 C944 0.950 . S
H969 C945 0.949 . S
H970 C947 0.950 . S
H971 C949 0.950 . S
C972 C973 1.349 . S
C972 C974 1.327 . S
C972 H997 0.950 . S
C973 C972 1.349 . S
C973 C989 1.349 . S
C974 C972 1.327 . S
C974 C993 1.429 . S
C974 H998 0.950 . S
C975 C992 1.574 . S
C975 C994 1.368 . S
C975 H999 0.949 . S
H976 C980 0.949 . S
C977 C978 1.349 . S
C977 C979 1.327 . S
C977 H1000 0.950 . S
C978 C977 1.349 . S
C978 C990 1.349 . S
C979 C977 1.327 . S
C979 C995 1.429 . S
C979 H1001 0.950 . S
C980 H976 0.949 . S
C980 C988 1.574 . S
C980 C996 1.368 . S
H981 C989 0.950 . S
H982 C987 0.950 . S
H983 C988 0.949 . S
H984 C990 0.950 . S
H985 C991 0.950 . S
H986 C992 0.949 . S
C987 H982 0.950 . S
C987 C989 1.327 . S
C987 C993 1.429 . S
C988 C980 1.574 . S
C988 H983 0.949 . S
C988 C994 1.368 . S
C989 C973 1.349 . S
C989 H981 0.950 . S
C989 C987 1.327 . S
C990 C978 1.349 . S
C990 H984 0.950 . S
C990 C991 1.327 . S
C991 H985 0.950 . S
C991 C990 1.327 . S
C991 C995 1.429 . S
C992 C975 1.574 . S
C992 H986 0.949 . S
C992 C996 1.368 . S
C993 C974 1.429 . S
C993 C987 1.429 . S
C993 C994 1.523 . S
C994 C975 1.368 . S
C994 C988 1.368 . S
C994 C993 1.523 . S
C995 C979 1.429 . S
C995 C991 1.429 . S
C995 C996 1.523 . S
C996 C980 1.368 . S
C996 C992 1.368 . S
C996 C995 1.523 . S
H997 C972 0.950 . S
H998 C974 0.950 . S
H999 C975 0.949 . S
H1000 C977 0.950 . S
H1001 C979 0.950 . S
C1002 C1003 1.349 . S
C1002 C1004 1.327 . S
C1002 H1027 0.950 . S
C1003 C1002 1.349 . S
C1003 C1019 1.349 . S
C1004 C1002 1.327 . S
C1004 C1023 1.429 . S
C1004 H1028 0.950 . S
C1005 C1022 1.574 . S
C1005 C1024 1.368 . S
C1005 H1029 0.949 . S
H1006 C1010 0.949 . S
C1007 C1008 1.349 . S
C1007 C1009 1.327 . S
C1007 H1030 0.950 . S
C1008 C1007 1.349 . S
C1008 C1020 1.349 . S
C1009 C1007 1.327 . S
C1009 C1025 1.429 . S
C1009 H1031 0.950 . S
C1010 H1006 0.949 . S
C1010 C1018 1.574 . S
C1010 C1026 1.368 . S
H1011 C1019 0.950 . S
H1012 C1017 0.950 . S
H1013 C1018 0.949 . S
H1014 C1020 0.950 . S
H1015 C1021 0.950 . S
H1016 C1022 0.949 . S
C1017 H1012 0.950 . S
C1017 C1019 1.327 . S
C1017 C1023 1.429 . S
C1018 C1010 1.574 . S
C1018 H1013 0.949 . S
C1018 C1024 1.368 . S
C1019 C1003 1.349 . S
C1019 H1011 0.950 . S
C1019 C1017 1.327 . S
C1020 C1008 1.349 . S
C1020 H1014 0.950 . S
C1020 C1021 1.327 . S
C1021 H1015 0.950 . S
C1021 C1020 1.327 . S
C1021 C1025 1.429 . S
C1022 C1005 1.574 . S
C1022 H1016 0.949 . S
C1022 C1026 1.368 . S
C1023 C1004 1.429 . S
C1023 C1017 1.429 . S
C1023 C1024 1.523 . S
C1024 C1005 1.368 . S
C1024 C1018 1.368 . S
C1024 C1023 1.523 . S
C1025 C1009 1.429 . S
C1025 C1021 1.429 . S
C1025 C1026 1.523 . S
C1026 C1010 1.368 . S
C1026 C1022 1.368 . S
C1026 C1025 1.523 . S
H1027 C1002 0.950 . S
H1028 C1004 0.950 . S
H1029 C1005 0.949 . S
H1030 C1007 0.950 . S
H1031 C1009 0.950 . S
C1032 C1033 1.349 . S
C1032 C1034 1.327 . S
C1032 H1057 0.950 . S
C1033 C1032 1.349 . S
C1033 C1049 1.349 . S
C1034 C1032 1.327 . S
C1034 C1053 1.429 . S
C1034 H1058 0.950 . S
C1035 C1052 1.574 . S
C1035 C1054 1.368 . S
C1035 H1059 0.949 . S
H1036 C1040 0.949 . S
C1037 C1038 1.349 . S
C1037 C1039 1.327 . S
C1037 H1060 0.950 . S
C1038 C1037 1.349 . S
C1038 C1050 1.349 . S
C1039 C1037 1.327 . S
C1039 C1055 1.429 . S
C1039 H1061 0.950 . S
C1040 H1036 0.949 . S
C1040 C1048 1.574 . S
C1040 C1056 1.368 . S
H1041 C1049 0.950 . S
H1042 C1047 0.950 . S
H1043 C1048 0.949 . S
H1044 C1050 0.950 . S
H1045 C1051 0.950 . S
H1046 C1052 0.949 . S
C1047 H1042 0.950 . S
C1047 C1049 1.327 . S
C1047 C1053 1.429 . S
C1048 C1040 1.574 . S
C1048 H1043 0.949 . S
C1048 C1054 1.368 . S
C1049 C1033 1.349 . S
C1049 H1041 0.950 . S
C1049 C1047 1.327 . S
C1050 C1038 1.349 . S
C1050 H1044 0.950 . S
C1050 C1051 1.327 . S
C1051 H1045 0.950 . S
C1051 C1050 1.327 . S
C1051 C1055 1.429 . S
C1052 C1035 1.574 . S
C1052 H1046 0.949 . S
C1052 C1056 1.368 . S
C1053 C1034 1.429 . S
C1053 C1047 1.429 . S
C1053 C1054 1.523 . S
C1054 C1035 1.368 . S
C1054 C1048 1.368 . S
C1054 C1053 1.523 . S
C1055 C1039 1.429 . S
C1055 C1051 1.429 . S
C1055 C1056 1.523 . S
C1056 C1040 1.368 . S
C1056 C1052 1.368 . S
C1056 C1055 1.523 . S
H1057 C1032 0.950 . S
H1058 C1034 0.950 . S
H1059 C1035 0.949 . S
H1060 C1037 0.950 . S
H1061 C1039 0.950 . S
C1062 C1063 1.349 . S
C1062 C1064 1.327 . S
C1062 H1087 0.950 . S
C1063 C1062 1.349 . S
C1063 C1079 1.349 . S
C1064 C1062 1.327 . S
C1064 C1083 1.429 . S
C1064 H1088 0.950 . S
C1065 C1082 1.574 . S
C1065 C1084 1.368 . S
C1065 H1089 0.949 . S
H1066 C1070 0.949 . S
C1067 C1068 1.349 . S
C1067 C1069 1.327 . S
C1067 H1090 0.950 . S
C1068 C1067 1.349 . S
C1068 C1080 1.349 . S
C1069 C1067 1.327 . S
C1069 C1085 1.429 . S
C1069 H1091 0.950 . S
C1070 H1066 0.949 . S
C1070 C1078 1.574 . S
C1070 C1086 1.368 . S
H1071 C1079 0.950 . S
H1072 C1077 0.950 . S
H1073 C1078 0.949 . S
H1074 C1080 0.950 . S
H1075 C1081 0.950 . S
H1076 C1082 0.949 . S
C1077 H1072 0.950 . S
C1077 C1079 1.327 . S
C1077 C1083 1.429 . S
C1078 C1070 1.574 . S
C1078 H1073 0.949 . S
C1078 C1084 1.368 . S
C1079 C1063 1.349 . S
C1079 H1071 0.950 . S
C1079 C1077 1.327 . S
C1080 C1068 1.349 . S
C1080 H1074 0.950 . S
C1080 C1081 1.327 . S
C1081 H1075 0.950 . S
C1081 C1080 1.327 . S
C1081 C1085 1.429 . S
C1082 C1065 1.574 . S
C1082 H1076 0.949 . S
C1082 C1086 1.368 . S
C1083 C1064 1.429 . S
C1083 C1077 1.429 . S
C1083 C1084 1.523 . S
C1084 C1065 1.368 . S
C1084 C1078 1.368 . S
C1084 C1083 1.523 . S
C1085 C1069 1.429 . S
C1085 C1081 1.429 . S
C1085 C1086 1.523 . S
C1086 C1070 1.368 . S
C1086 C1082 1.368 . S
C1086 C1085 1.523 . S
H1087 C1062 0.950 . S
H1088 C1064 0.950 . S
H1089 C1065 0.949 . S
H1090 C1067 0.950 . S
H1091 C1069 0.950 . S
C1092 C1093 1.349 . S
C1092 C1094 1.327 . S
C1092 H1117 0.950 . S
C1093 C1092 1.349 . S
C1093 C1109 1.349 . S
C1094 C1092 1.327 . S
C1094 C1113 1.429 . S
C1094 H1118 0.950 . S
C1095 C1112 1.574 . S
C1095 C1114 1.368 . S
C1095 H1119 0.949 . S
H1096 C1100 0.949 . S
C1097 C1098 1.349 . S
C1097 C1099 1.327 . S
C1097 H1120 0.950 . S
C1098 C1097 1.349 . S
C1098 C1110 1.349 . S
C1099 C1097 1.327 . S
C1099 C1115 1.429 . S
C1099 H1121 0.950 . S
C1100 H1096 0.949 . S
C1100 C1108 1.574 . S
C1100 C1116 1.368 . S
H1101 C1109 0.950 . S
H1102 C1107 0.950 . S
H1103 C1108 0.949 . S
H1104 C1110 0.950 . S
H1105 C1111 0.950 . S
H1106 C1112 0.949 . S
C1107 H1102 0.950 . S
C1107 C1109 1.327 . S
C1107 C1113 1.429 . S
C1108 C1100 1.574 . S
C1108 H1103 0.949 . S
C1108 C1114 1.368 . S
C1109 C1093 1.349 . S
C1109 H1101 0.950 . S
C1109 C1107 1.327 . S
C1110 C1098 1.349 . S
C1110 H1104 0.950 . S
C1110 C1111 1.327 . S
C1111 H1105 0.950 . S
C1111 C1110 1.327 . S
C1111 C1115 1.429 . S
C1112 C1095 1.574 . S
C1112 H1106 0.949 . S
C1112 C1116 1.368 . S
C1113 C1094 1.429 . S
C1113 C1107 1.429 . S
C1113 C1114 1.523 . S
C1114 C1095 1.368 . S
C1114 C1108 1.368 . S
C1114 C1113 1.523 . S
C1115 C1099 1.429 . S
C1115 C1111 1.429 . S
C1115 C1116 1.523 . S
C1116 C1100 1.368 . S
C1116 C1112 1.368 . S
C1116 C1115 1.523 . S
H1117 C1092 0.950 . S
H1118 C1094 0.950 . S
H1119 C1095 0.949 . S
H1120 C1097 0.950 . S
H1121 C1099 0.950 . S
C1122 C1123 1.349 . S
C1122 C1124 1.327 . S
C1122 H1147 0.950 . S
C1123 C1122 1.349 . S
C1123 C1139 1.349 . S
C1124 C1122 1.327 . S
C1124 C1143 1.429 . S
C1124 H1148 0.950 . S
C1125 C1142 1.574 . S
C1125 C1144 1.368 . S
C1125 H1149 0.949 . S
H1126 C1130 0.949 . S
C1127 C1128 1.349 . S
C1127 C1129 1.327 . S
C1127 H1150 0.950 . S
C1128 C1127 1.349 . S
C1128 C1140 1.349 . S
C1129 C1127 1.327 . S
C1129 C1145 1.429 . S
C1129 H1151 0.950 . S
C1130 H1126 0.949 . S
C1130 C1138 1.574 . S
C1130 C1146 1.368 . S
H1131 C1139 0.950 . S
H1132 C1137 0.950 . S
H1133 C1138 0.949 . S
H1134 C1140 0.950 . S
H1135 C1141 0.950 . S
H1136 C1142 0.949 . S
C1137 H1132 0.950 . S
C1137 C1139 1.327 . S
C1137 C1143 1.429 . S
C1138 C1130 1.574 . S
C1138 H1133 0.949 . S
C1138 C1144 1.368 . S
C1139 C1123 1.349 . S
C1139 H1131 0.950 . S
C1139 C1137 1.327 . S
C1140 C1128 1.349 . S
C1140 H1134 0.950 . S
C1140 C1141 1.327 . S
C1141 H1135 0.950 . S
C1141 C1140 1.327 . S
C1141 C1145 1.429 . S
C1142 C1125 1.574 . S
C1142 H1136 0.949 . S
C1142 C1146 1.368 . S
C1143 C1124 1.429 . S
C1143 C1137 1.429 . S
C1143 C1144 1.523 . S
C1144 C1125 1.368 . S
C1144 C1138 1.368 . S
C1144 C1143 1.523 . S
C1145 C1129 1.429 . S
C1145 C1141 1.429 . S
C1145 C1146 1.523 . S
C1146 C1130 1.368 . S
C1146 C1142 1.368 . S
C1146 C1145 1.523 . S
H1147 C1122 0.950 . S
H1148 C1124 0.950 . S
H1149 C1125 0.949 . S
H1150 C1127 0.950 . S
H1151 C1129 0.950 . S
C1152 C1153 1.349 . S
C1152 C1154 1.327 . S
C1152 H1177 0.950 . S
C1153 C1152 1.349 . S
C1153 C1169 1.349 . S
C1154 C1152 1.327 . S
C1154 C1173 1.429 . S
C1154 H1178 0.950 . S
C1155 C1172 1.574 . S
C1155 C1174 1.368 . S
C1155 H1179 0.949 . S
H1156 C1160 0.949 . S
C1157 C1158 1.349 . S
C1157 C1159 1.327 . S
C1157 H1180 0.950 . S
C1158 C1157 1.349 . S
C1158 C1170 1.349 . S
C1159 C1157 1.327 . S
C1159 C1175 1.429 . S
C1159 H1181 0.950 . S
C1160 H1156 0.949 . S
C1160 C1168 1.574 . S
C1160 C1176 1.368 . S
H1161 C1169 0.950 . S
H1162 C1167 0.950 . S
H1163 C1168 0.949 . S
H1164 C1170 0.950 . S
H1165 C1171 0.950 . S
H1166 C1172 0.949 . S
C1167 H1162 0.950 . S
C1167 C1169 1.327 . S
C1167 C1173 1.429 . S
C1168 C1160 1.574 . S
C1168 H1163 0.949 . S
C1168 C1174 1.368 . S
C1169 C1153 1.349 . S
C1169 H1161 0.950 . S
C1169 C1167 1.327 . S
C1170 C1158 1.349 . S
C1170 H1164 0.950 . S
C1170 C1171 1.327 . S
C1171 H1165 0.950 . S
C1171 C1170 1.327 . S
C1171 C1175 1.429 . S
C1172 C1155 1.574 . S
C1172 H1166 0.949 . S
C1172 C1176 1.368 . S
C1173 C1154 1.429 . S
C1173 C1167 1.429 . S
C1173 C1174 1.523 . S
C1174 C1155 1.368 . S
C1174 C1168 1.368 . S
C1174 C1173 1.523 . S
C1175 C1159 1.429 . S
C1175 C1171 1.429 . S
C1175 C1176 1.523 . S
C1176 C1160 1.368 . S
C1176 C1172 1.368 . S
C1176 C1175 1.523 . S
H1177 C1152 0.950 . S
H1178 C1154 0.950 . S
H1179 C1155 0.949 . S
H1180 C1157 0.950 . S
H1181 C1159 0.950 . S
C1182 C1183 1.349 . S
C1182 C1184 1.327 . S
C1182 H1207 0.950 . S
C1183 C1182 1.349 . S
C1183 C1199 1.349 . S
C1184 C1182 1.327 . S
C1184 C1203 1.429 . S
C1184 H1208 0.950 . S
C1185 C1202 1.574 . S
C1185 C1204 1.368 . S
C1185 H1209 0.949 . S
H1186 C1190 0.949 . S
C1187 C1188 1.349 . S
C1187 C1189 1.327 . S
C1187 H1210 0.950 . S
C1188 C1187 1.349 . S
C1188 C1200 1.349 . S
C1189 C1187 1.327 . S
C1189 C1205 1.429 . S
C1189 H1211 0.950 . S
C1190 H1186 0.949 . S
C1190 C1198 1.574 . S
C1190 C1206 1.368 . S
H1191 C1199 0.950 . S
H1192 C1197 0.950 . S
H1193 C1198 0.949 . S
H1194 C1200 0.950 . S
H1195 C1201 0.950 . S
H1196 C1202 0.949 . S
C1197 H1192 0.950 . S
C1197 C1199 1.327 . S
C1197 C1203 1.429 . S
C1198 C1190 1.574 . S
C1198 H1193 0.949 . S
C1198 C1204 1.368 . S
C1199 C1183 1.349 . S
C1199 H1191 0.950 . S
C1199 C1197 1.327 . S
C1200 C1188 1.349 . S
C1200 H1194 0.950 . S
C1200 C1201 1.327 . S
C1201 H1195 0.950 . S
C1201 C1200 1.327 . S
C1201 C1205 1.429 . S
C1202 C1185 1.574 . S
C1202 H1196 0.949 . S
C1202 C1206 1.368 . S
C1203 C1184 1.429 . S
C1203 C1197 1.429 . S
C1203 C1204 1.523 . S
C1204 C1185 1.368 . S
C1204 C1198 1.368 . S
C1204 C1203 1.523 . S
C1205 C1189 1.429 . S
C1205 C1201 1.429 . S
C1205 C1206 1.523 . S
C1206 C1190 1.368 . S
C1206 C1202 1.368 . S
C1206 C1205 1.523 . S
H1207 C1182 0.950 . S
H1208 C1184 0.950 . S
H1209 C1185 0.949 . S
H1210 C1187 0.950 . S
H1211 C1189 0.950 . S
C1212 C1213 1.349 . S
C1212 C1214 1.327 . S
C1212 H1237 0.950 . S
C1213 C1212 1.349 . S
C1213 C1229 1.349 . S
C1214 C1212 1.327 . S
C1214 C1233 1.429 . S
C1214 H1238 0.950 . S
C1215 C1232 1.574 . S
C1215 C1234 1.368 . S
C1215 H1239 0.949 . S
H1216 C1220 0.949 . S
C1217 C1218 1.349 . S
C1217 C1219 1.327 . S
C1217 H1240 0.950 . S
C1218 C1217 1.349 . S
C1218 C1230 1.349 . S
C1219 C1217 1.327 . S
C1219 C1235 1.429 . S
C1219 H1241 0.950 . S
C1220 H1216 0.949 . S
C1220 C1228 1.574 . S
C1220 C1236 1.368 . S
H1221 C1229 0.950 . S
H1222 C1227 0.950 . S
H1223 C1228 0.949 . S
H1224 C1230 0.950 . S
H1225 C1231 0.950 . S
H1226 C1232 0.949 . S
C1227 H1222 0.950 . S
C1227 C1229 1.327 . S
C1227 C1233 1.429 . S
C1228 C1220 1.574 . S
C1228 H1223 0.949 . S
C1228 C1234 1.368 . S
C1229 C1213 1.349 . S
C1229 H1221 0.950 . S
C1229 C1227 1.327 . S
C1230 C1218 1.349 . S
C1230 H1224 0.950 . S
C1230 C1231 1.327 . S
C1231 H1225 0.950 . S
C1231 C1230 1.327 . S
C1231 C1235 1.429 . S
C1232 C1215 1.574 . S
C1232 H1226 0.949 . S
C1232 C1236 1.368 . S
C1233 C1214 1.429 . S
C1233 C1227 1.429 . S
C1233 C1234 1.523 . S
C1234 C1215 1.368 . S
C1234 C1228 1.368 . S
C1234 C1233 1.523 . S
C1235 C1219 1.429 . S
C1235 C1231 1.429 . S
C1235 C1236 1.523 . S
C1236 C1220 1.368 . S
C1236 C1232 1.368 . S
C1236 C1235 1.523 . S
H1237 C1212 0.950 . S
H1238 C1214 0.950 . S
H1239 C1215 0.949 . S
H1240 C1217 0.950 . S
H1241 C1219 0.950 . S
C1242 C1243 1.349 . S
C1242 C1244 1.327 . S
C1242 H1267 0.950 . S
C1243 C1242 1.349 . S
C1243 C1259 1.349 . S
C1244 C1242 1.327 . S
C1244 C1263 1.429 . S
C1244 H1268 0.950 . S
C1245 C1262 1.574 . S
C1245 C1264 1.368 . S
C1245 H1269 0.949 . S
H1246 C1250 0.949 . S
C1247 C1248 1.349 . S
C1247 C1249 1.327 . S
C1247 H1270 0.950 . S
C1248 C1247 1.349 . S
C1248 C1260 1.349 . S
C1249 C1247 1.327 . S
C1249 C1265 1.429 . S
C1249 H1271 0.950 . S
C1250 H1246 0.949 . S
C1250 C1258 1.574 . S
C1250 C1266 1.368 . S
H1251 C1259 0.950 . S
H1252 C1257 0.950 . S
H1253 C1258 0.949 . S
H1254 C1260 0.950 . S
H1255 C1261 0.950 . S
H1256 C1262 0.949 . S
C1257 H1252 0.950 . S
C1257 C1259 1.327 . S
C1257 C1263 1.429 . S
C1258 C1250 1.574 . S
C1258 H1253 0.949 . S
C1258 C1264 1.368 . S
C1259 C1243 1.349 . S
C1259 H1251 0.950 . S
C1259 C1257 1.327 . S
C1260 C1248 1.349 . S
C1260 H1254 0.950 . S
C1260 C1261 1.327 . S
C1261 H1255 0.950 . S
C1261 C1260 1.327 . S
C1261 C1265 1.429 . S
C1262 C1245 1.574 . S
C1262 H1256 0.949 . S
C1262 C1266 1.368 . S
C1263 C1244 1.429 . S
C1263 C1257 1.429 . S
C1263 C1264 1.523 . S
C1264 C1245 1.368 . S
C1264 C1258 1.368 . S
C1264 C1263 1.523 . S
C1265 C1249 1.429 . S
C1265 C1261 1.429 . S
C1265 C1266 1.523 . S
C1266 C1250 1.368 . S
C1266 C1262 1.368 . S
C1266 C1265 1.523 . S
H1267 C1242 0.950 . S
H1268 C1244 0.950 . S
H1269 C1245 0.949 . S
H1270 C1247 0.950 . S
H1271 C1249 0.950 . S
C1272 C1273 1.349 . S
C1272 C1274 1.327 . S
C1272 H1297 0.950 . S
C1273 C1272 1.349 . S
C1273 C1289 1.349 . S
C1274 C1272 1.327 . S
C1274 C1293 1.429 . S
C1274 H1298 0.950 . S
C1275 C1292 1.574 . S
C1275 C1294 1.368 . S
C1275 H1299 0.949 . S
H1276 C1280 0.949 . S
C1277 C1278 1.349 . S
C1277 C1279 1.327 . S
C1277 H1300 0.950 . S
C1278 C1277 1.349 . S
C1278 C1290 1.349 . S
C1279 C1277 1.327 . S
C1279 C1295 1.429 . S
C1279 H1301 0.950 . S
C1280 H1276 0.949 . S
C1280 C1288 1.574 . S
C1280 C1296 1.368 . S
H1281 C1289 0.950 . S
H1282 C1287 0.950 . S
H1283 C1288 0.949 . S
H1284 C1290 0.950 . S
H1285 C1291 0.950 . S
H1286 C1292 0.949 . S
C1287 H1282 0.950 . S
C1287 C1289 1.327 . S
C1287 C1293 1.429 . S
C1288 C1280 1.574 . S
C1288 H1283 0.949 . S
C1288 C1294 1.368 . S
C1289 C1273 1.349 . S
C1289 H1281 0.950 . S
C1289 C1287 1.327 . S
C1290 C1278 1.349 . S
C1290 H1284 0.950 . S
C1290 C1291 1.327 . S
C1291 H1285 0.950 . S
C1291 C1290 1.327 . S
C1291 C1295 1.429 . S
C1292 C1275 1.574 . S
C1292 H1286 0.949 . S
C1292 C1296 1.368 . S
C1293 C1274 1.429 . S
C1293 C1287 1.429 . S
C1293 C1294 1.523 . S
C1294 C1275 1.368 . S
C1294 C1288 1.368 . S
C1294 C1293 1.523 . S
C1295 C1279 1.429 . S
C1295 C1291 1.429 . S
C1295 C1296 1.523 . S
C1296 C1280 1.368 . S
C1296 C1292 1.368 . S
C1296 C1295 1.523 . S
H1297 C1272 0.950 . S
H1298 C1274 0.950 . S
H1299 C1275 0.949 . S
H1300 C1277 0.950 . S
H1301 C1279 0.950 . S
C1302 C1303 1.349 . S
C1302 C1304 1.327 . S
C1302 H1327 0.950 . S
C1303 C1302 1.349 . S
C1303 C1319 1.349 . S
C1304 C1302 1.327 . S
C1304 C1323 1.429 . S
C1304 H1328 0.950 . S
C1305 C1322 1.574 . S
C1305 C1324 1.368 . S
C1305 H1329 0.949 . S
H1306 C1310 0.949 . S
C1307 C1308 1.349 . S
C1307 C1309 1.327 . S
C1307 H1330 0.950 . S
C1308 C1307 1.349 . S
C1308 C1320 1.349 . S
C1309 C1307 1.327 . S
C1309 C1325 1.429 . S
C1309 H1331 0.950 . S
C1310 H1306 0.949 . S
C1310 C1318 1.574 . S
C1310 C1326 1.368 . S
H1311 C1319 0.950 . S
H1312 C1317 0.950 . S
H1313 C1318 0.949 . S
H1314 C1320 0.950 . S
H1315 C1321 0.950 . S
H1316 C1322 0.949 . S
C1317 H1312 0.950 . S
C1317 C1319 1.327 . S
C1317 C1323 1.429 . S
C1318 C1310 1.574 . S
C1318 H1313 0.949 . S
C1318 C1324 1.368 . S
C1319 C1303 1.349 . S
C1319 H1311 0.950 . S
C1319 C1317 1.327 . S
C1320 C1308 1.349 . S
C1320 H1314 0.950 . S
C1320 C1321 1.327 . S
C1321 H1315 0.950 . S
C1321 C1320 1.327 . S
C1321 C1325 1.429 . S
C1322 C1305 1.574 . S
C1322 H1316 0.949 . S
C1322 C1326 1.368 . S
C1323 C1304 1.429 . S
C1323 C1317 1.429 . S
C1323 C1324 1.523 . S
C1324 C1305 1.368 . S
C1324 C1318 1.368 . S
C1324 C1323 1.523 . S
C1325 C1309 1.429 . S
C1325 C1321 1.429 . S
C1325 C1326 1.523 . S
C1326 C1310 1.368 . S
C1326 C1322 1.368 . S
C1326 C1325 1.523 . S
H1327 C1302 0.950 . S
H1328 C1304 0.950 . S
H1329 C1305 0.949 . S
H1330 C1307 0.950 . S
H1331 C1309 0.950 . S
C1332 C1333 1.349 . S
C1332 C1334 1.327 . S
C1332 H1357 0.950 . S
C1333 C1332 1.349 . S
C1333 C1349 1.349 . S
C1334 C1332 1.327 . S
C1334 C1353 1.429 . S
C1334 H1358 0.950 . S
C1335 C1352 1.574 . S
C1335 C1354 1.368 . S
C1335 H1359 0.949 . S
H1336 C1340 0.949 . S
C1337 C1338 1.349 . S
C1337 C1339 1.327 . S
C1337 H1360 0.950 . S
C1338 C1337 1.349 . S
C1338 C1350 1.349 . S
C1339 C1337 1.327 . S
C1339 C1355 1.429 . S
C1339 H1361 0.950 . S
C1340 H1336 0.949 . S
C1340 C1348 1.574 . S
C1340 C1356 1.368 . S
H1341 C1349 0.950 . S
H1342 C1347 0.950 . S
H1343 C1348 0.949 . S
H1344 C1350 0.950 . S
H1345 C1351 0.950 . S
H1346 C1352 0.949 . S
C1347 H1342 0.950 . S
C1347 C1349 1.327 . S
C1347 C1353 1.429 . S
C1348 C1340 1.574 . S
C1348 H1343 0.949 . S
C1348 C1354 1.368 . S
C1349 C1333 1.349 . S
C1349 H1341 0.950 . S
C1349 C1347 1.327 . S
C1350 C1338 1.349 . S
C1350 H1344 0.950 . S
C1350 C1351 1.327 . S
C1351 H1345 0.950 . S
C1351 C1350 1.327 . S
C1351 C1355 1.429 . S
C1352 C1335 1.574 . S
C1352 H1346 0.949 . S
C1352 C1356 1.368 . S
C1353 C1334 1.429 . S
C1353 C1347 1.429 . S
C1353 C1354 1.523 . S
C1354 C1335 1.368 . S
C1354 C1348 1.368 . S
C1354 C1353 1.523 . S
C1355 C1339 1.429 . S
C1355 C1351 1.429 . S
C1355 C1356 1.523 . S
C1356 C1340 1.368 . S
C1356 C1352 1.368 . S
C1356 C1355 1.523 . S
H1357 C1332 0.950 . S
H1358 C1334 0.950 . S
H1359 C1335 0.949 . S
H1360 C1337 0.950 . S
H1361 C1339 0.950 . S
C1362 C1363 1.349 . S
C1362 C1364 1.327 . S
C1362 H1387 0.950 . S
C1363 C1362 1.349 . S
C1363 C1379 1.349 . S
C1364 C1362 1.327 . S
C1364 C1383 1.429 . S
C1364 H1388 0.950 . S
C1365 C1382 1.574 . S
C1365 C1384 1.368 . S
C1365 H1389 0.949 . S
H1366 C1370 0.949 . S
C1367 C1368 1.349 . S
C1367 C1369 1.327 . S
C1367 H1390 0.950 . S
C1368 C1367 1.349 . S
C1368 C1380 1.349 . S
C1369 C1367 1.327 . S
C1369 C1385 1.429 . S
C1369 H1391 0.950 . S
C1370 H1366 0.949 . S
C1370 C1378 1.574 . S
C1370 C1386 1.368 . S
H1371 C1379 0.950 . S
H1372 C1377 0.950 . S
H1373 C1378 0.949 . S
H1374 C1380 0.950 . S
H1375 C1381 0.950 . S
H1376 C1382 0.949 . S
C1377 H1372 0.950 . S
C1377 C1379 1.327 . S
C1377 C1383 1.429 . S
C1378 C1370 1.574 . S
C1378 H1373 0.949 . S
C1378 C1384 1.368 . S
C1379 C1363 1.349 . S
C1379 H1371 0.950 . S
C1379 C1377 1.327 . S
C1380 C1368 1.349 . S
C1380 H1374 0.950 . S
C1380 C1381 1.327 . S
C1381 H1375 0.950 . S
C1381 C1380 1.327 . S
C1381 C1385 1.429 . S
C1382 C1365 1.574 . S
C1382 H1376 0.949 . S
C1382 C1386 1.368 . S
C1383 C1364 1.429 . S
C1383 C1377 1.429 . S
C1383 C1384 1.523 . S
C1384 C1365 1.368 . S
C1384 C1378 1.368 . S
C1384 C1383 1.523 . S
C1385 C1369 1.429 . S
C1385 C1381 1.429 . S
C1385 C1386 1.523 . S
C1386 C1370 1.368 . S
C1386 C1382 1.368 . S
C1386 C1385 1.523 . S
H1387 C1362 0.950 . S
H1388 C1364 0.950 . S
H1389 C1365 0.949 . S
H1390 C1367 0.950 . S
H1391 C1369 0.950 . S
C1392 C1393 1.349 . S
C1392 C1394 1.327 . S
C1392 H1417 0.950 . S
C1393 C1392 1.349 . S
C1393 C1409 1.349 . S
C1394 C1392 1.327 . S
C1394 C1413 1.429 . S
C1394 H1418 0.950 . S
C1395 C1412 1.574 . S
C1395 C1414 1.368 . S
C1395 H1419 0.949 . S
H1396 C1400 0.949 . S
C1397 C1398 1.349 . S
C1397 C1399 1.327 . S
C1397 H1420 0.950 . S
C1398 C1397 1.349 . S
C1398 C1410 1.349 . S
C1399 C1397 1.327 . S
C1399 C1415 1.429 . S
C1399 H1421 0.950 . S
C1400 H1396 0.949 . S
C1400 C1408 1.574 . S
C1400 C1416 1.368 . S
H1401 C1409 0.950 . S
H1402 C1407 0.950 . S
H1403 C1408 0.949 . S
H1404 C1410 0.950 . S
H1405 C1411 0.950 . S
H1406 C1412 0.949 . S
C1407 H1402 0.950 . S
C1407 C1409 1.327 . S
C1407 C1413 1.429 . S
C1408 C1400 1.574 . S
C1408 H1403 0.949 . S
C1408 C1414 1.368 . S
C1409 C1393 1.349 . S
C1409 H1401 0.950 . S
C1409 C1407 1.327 . S
C1410 C1398 1.349 . S
C1410 H1404 0.950 . S
C1410 C1411 1.327 . S
C1411 H1405 0.950 . S
C1411 C1410 1.327 . S
C1411 C1415 1.429 . S
C1412 C1395 1.574 . S
C1412 H1406 0.949 . S
C1412 C1416 1.368 . S
C1413 C1394 1.429 . S
C1413 C1407 1.429 . S
C1413 C1414 1.523 . S
C1414 C1395 1.368 . S
C1414 C1408 1.368 . S
C1414 C1413 1.523 . S
C1415 C1399 1.429 . S
C1415 C1411 1.429 . S
C1415 C1416 1.523 . S
C1416 C1400 1.368 . S
C1416 C1412 1.368 . S
C1416 C1415 1.523 . S
H1417 C1392 0.950 . S
H1418 C1394 0.950 . S
H1419 C1395 0.949 . S
H1420 C1397 0.950 . S
H1421 C1399 0.950 . S
C1422 C1423 1.349 . S
C1422 C1424 1.327 . S
C1422 H1447 0.950 . S
C1423 C1422 1.349 . S
C1423 C1439 1.349 . S
C1424 C1422 1.327 . S
C1424 C1443 1.429 . S
C1424 H1448 0.950 . S
C1425 C1442 1.574 . S
C1425 C1444 1.368 . S
C1425 H1449 0.949 . S
H1426 C1430 0.949 . S
C1427 C1428 1.349 . S
C1427 C1429 1.327 . S
C1427 H1450 0.950 . S
C1428 C1427 1.349 . S
C1428 C1440 1.349 . S
C1429 C1427 1.327 . S
C1429 C1445 1.429 . S
C1429 H1451 0.950 . S
C1430 H1426 0.949 . S
C1430 C1438 1.574 . S
C1430 C1446 1.368 . S
H1431 C1439 0.950 . S
H1432 C1437 0.950 . S
H1433 C1438 0.949 . S
H1434 C1440 0.950 . S
H1435 C1441 0.950 . S
H1436 C1442 0.949 . S
C1437 H1432 0.950 . S
C1437 C1439 1.327 . S
C1437 C1443 1.429 . S
C1438 C1430 1.574 . S
C1438 H1433 0.949 . S
C1438 C1444 1.368 . S
C1439 C1423 1.349 . S
C1439 H1431 0.950 . S
C1439 C1437 1.327 . S
C1440 C1428 1.349 . S
C1440 H1434 0.950 . S
C1440 C1441 1.327 . S
C1441 H1435 0.950 . S
C1441 C1440 1.327 . S
C1441 C1445 1.429 . S
C1442 C1425 1.574 . S
C1442 H1436 0.949 . S
C1442 C1446 1.368 . S
C1443 C1424 1.429 . S
C1443 C1437 1.429 . S
C1443 C1444 1.523 . S
C1444 C1425 1.368 . S
C1444 C1438 1.368 . S
C1444 C1443 1.523 . S
C1445 C1429 1.429 . S
C1445 C1441 1.429 . S
C1445 C1446 1.523 . S
C1446 C1430 1.368 . S
C1446 C1442 1.368 . S
C1446 C1445 1.523 . S
H1447 C1422 0.950 . S
H1448 C1424 0.950 . S
H1449 C1425 0.949 . S
H1450 C1427 0.950 . S
H1451 C1429 0.950 . S
C1452 C1453 1.349 . S
C1452 C1454 1.327 . S
C1452 H1477 0.950 . S
C1453 C1452 1.349 . S
C1453 C1469 1.349 . S
C1454 C1452 1.327 . S
C1454 C1473 1.429 . S
C1454 H1478 0.950 . S
C1455 C1472 1.574 . S
C1455 C1474 1.368 . S
C1455 H1479 0.949 . S
H1456 C1460 0.949 . S
C1457 C1458 1.349 . S
C1457 C1459 1.327 . S
C1457 H1480 0.950 . S
C1458 C1457 1.349 . S
C1458 C1470 1.349 . S
C1459 C1457 1.327 . S
C1459 C1475 1.429 . S
C1459 H1481 0.950 . S
C1460 H1456 0.949 . S
C1460 C1468 1.574 . S
C1460 C1476 1.368 . S
H1461 C1469 0.950 . S
H1462 C1467 0.950 . S
H1463 C1468 0.949 . S
H1464 C1470 0.950 . S
H1465 C1471 0.950 . S
H1466 C1472 0.949 . S
C1467 H1462 0.950 . S
C1467 C1469 1.327 . S
C1467 C1473 1.429 . S
C1468 C1460 1.574 . S
C1468 H1463 0.949 . S
C1468 C1474 1.368 . S
C1469 C1453 1.349 . S
C1469 H1461 0.950 . S
C1469 C1467 1.327 . S
C1470 C1458 1.349 . S
C1470 H1464 0.950 . S
C1470 C1471 1.327 . S
C1471 H1465 0.950 . S
C1471 C1470 1.327 . S
C1471 C1475 1.429 . S
C1472 C1455 1.574 . S
C1472 H1466 0.949 . S
C1472 C1476 1.368 . S
C1473 C1454 1.429 . S
C1473 C1467 1.429 . S
C1473 C1474 1.523 . S
C1474 C1455 1.368 . S
C1474 C1468 1.368 . S
C1474 C1473 1.523 . S
C1475 C1459 1.429 . S
C1475 C1471 1.429 . S
C1475 C1476 1.523 . S
C1476 C1460 1.368 . S
C1476 C1472 1.368 . S
C1476 C1475 1.523 . S
H1477 C1452 0.950 . S
H1478 C1454 0.950 . S
H1479 C1455 0.949 . S
H1480 C1457 0.950 . S
H1481 C1459 0.950 . S
C1482 C1483 1.349 . S
C1482 C1484 1.327 . S
C1482 H1507 0.950 . S
C1483 C1482 1.349 . S
C1483 C1499 1.349 . S
C1484 C1482 1.327 . S
C1484 C1503 1.429 . S
C1484 H1508 0.950 . S
C1485 C1502 1.574 . S
C1485 C1504 1.368 . S
C1485 H1509 0.949 . S
H1486 C1490 0.949 . S
C1487 C1488 1.349 . S
C1487 C1489 1.327 . S
C1487 H1510 0.950 . S
C1488 C1487 1.349 . S
C1488 C1500 1.349 . S
C1489 C1487 1.327 . S
C1489 C1505 1.429 . S
C1489 H1511 0.950 . S
C1490 H1486 0.949 . S
C1490 C1498 1.574 . S
C1490 C1506 1.368 . S
H1491 C1499 0.950 . S
H1492 C1497 0.950 . S
H1493 C1498 0.949 . S
H1494 C1500 0.950 . S
H1495 C1501 0.950 . S
H1496 C1502 0.949 . S
C1497 H1492 0.950 . S
C1497 C1499 1.327 . S
C1497 C1503 1.429 . S
C1498 C1490 1.574 . S
C1498 H1493 0.949 . S
C1498 C1504 1.368 . S
C1499 C1483 1.349 . S
C1499 H1491 0.950 . S
C1499 C1497 1.327 . S
C1500 C1488 1.349 . S
C1500 H1494 0.950 . S
C1500 C1501 1.327 . S
C1501 H1495 0.950 . S
C1501 C1500 1.327 . S
C1501 C1505 1.429 . S
C1502 C1485 1.574 . S
C1502 H1496 0.949 . S
C1502 C1506 1.368 . S
C1503 C1484 1.429 . S
C1503 C1497 1.429 . S
C1503 C1504 1.523 . S
C1504 C1485 1.368 . S
C1504 C1498 1.368 . S
C1504 C1503 1.523 . S
C1505 C1489 1.429 . S
C1505 C1501 1.429 . S
C1505 C1506 1.523 . S
C1506 C1490 1.368 . S
C1506 C1502 1.368 . S
C1506 C1505 1.523 . S
H1507 C1482 0.950 . S
H1508 C1484 0.950 . S
H1509 C1485 0.949 . S
H1510 C1487 0.950 . S
H1511 C1489 0.950 . S
C1512 C1513 1.349 . S
C1512 C1514 1.327 . S
C1512 H1537 0.950 . S
C1513 C1512 1.349 . S
C1513 C1529 1.349 . S
C1514 C1512 1.327 . S
C1514 C1533 1.429 . S
C1514 H1538 0.950 . S
C1515 C1532 1.574 . S
C1515 C1534 1.368 . S
C1515 H1539 0.949 . S
H1516 C1520 0.949 . S
C1517 C1518 1.349 . S
C1517 C1519 1.327 . S
C1517 H1540 0.950 . S
C1518 C1517 1.349 . S
C1518 C1530 1.349 . S
C1519 C1517 1.327 . S
C1519 C1535 1.429 . S
C1519 H1541 0.950 . S
C1520 H1516 0.949 . S
C1520 C1528 1.574 . S
C1520 C1536 1.368 . S
H1521 C1529 0.950 . S
H1522 C1527 0.950 . S
H1523 C1528 0.949 . S
H1524 C1530 0.950 . S
H1525 C1531 0.950 . S
H1526 C1532 0.949 . S
C1527 H1522 0.950 . S
C1527 C1529 1.327 . S
C1527 C1533 1.429 . S
C1528 C1520 1.574 . S
C1528 H1523 0.949 . S
C1528 C1534 1.368 . S
C1529 C1513 1.349 . S
C1529 H1521 0.950 . S
C1529 C1527 1.327 . S
C1530 C1518 1.349 . S
C1530 H1524 0.950 . S
C1530 C1531 1.327 . S
C1531 H1525 0.950 . S
C1531 C1530 1.327 . S
C1531 C1535 1.429 . S
C1532 C1515 1.574 . S
C1532 H1526 0.949 . S
C1532 C1536 1.368 . S
C1533 C1514 1.429 . S
C1533 C1527 1.429 . S
C1533 C1534 1.523 . S
C1534 C1515 1.368 . S
C1534 C1528 1.368 . S
C1534 C1533 1.523 . S
C1535 C1519 1.429 . S
C1535 C1531 1.429 . S
C1535 C1536 1.523 . S
C1536 C1520 1.368 . S
C1536 C1532 1.368 . S
C1536 C1535 1.523 . S
H1537 C1512 0.950 . S
H1538 C1514 0.950 . S
H1539 C1515 0.949 . S
H1540 C1517 0.950 . S
H1541 C1519 0.950 . S
C1542 C1543 1.349 . S
C1542 C1544 1.327 . S
C1542 H1567 0.950 . S
C1543 C1542 1.349 . S
C1543 C1559 1.349 . S
C1544 C1542 1.327 . S
C1544 C1563 1.429 . S
C1544 H1568 0.950 . S
C1545 C1562 1.574 . S
C1545 C1564 1.368 . S
C1545 H1569 0.949 . S
H1546 C1550 0.949 . S
C1547 C1548 1.349 . S
C1547 C1549 1.327 . S
C1547 H1570 0.950 . S
C1548 C1547 1.349 . S
C1548 C1560 1.349 . S
C1549 C1547 1.327 . S
C1549 C1565 1.429 . S
C1549 H1571 0.950 . S
C1550 H1546 0.949 . S
C1550 C1558 1.574 . S
C1550 C1566 1.368 . S
H1551 C1559 0.950 . S
H1552 C1557 0.950 . S
H1553 C1558 0.949 . S
H1554 C1560 0.950 . S
H1555 C1561 0.950 . S
H1556 C1562 0.949 . S
C1557 H1552 0.950 . S
C1557 C1559 1.327 . S
C1557 C1563 1.429 . S
C1558 C1550 1.574 . S
C1558 H1553 0.949 . S
C1558 C1564 1.368 . S
C1559 C1543 1.349 . S
C1559 H1551 0.950 . S
C1559 C1557 1.327 . S
C1560 C1548 1.349 . S
C1560 H1554 0.950 . S
C1560 C1561 1.327 . S
C1561 H1555 0.950 . S
C1561 C1560 1.327 . S
C1561 C1565 1.429 . S
C1562 C1545 1.574 . S
C1562 H1556 0.949 . S
C1562 C1566 1.368 . S
C1563 C1544 1.429 . S
C1563 C1557 1.429 . S
C1563 C1564 1.523 . S
C1564 C1545 1.368 . S
C1564 C1558 1.368 . S
C1564 C1563 1.523 . S
C1565 C1549 1.429 . S
C1565 C1561 1.429 . S
C1565 C1566 1.523 . S
C1566 C1550 1.368 . S
C1566 C1562 1.368 . S
C1566 C1565 1.523 . S
H1567 C1542 0.950 . S
H1568 C1544 0.950 . S
H1569 C1545 0.949 . S
H1570 C1547 0.950 . S
H1571 C1549 0.950 . S
C1572 C1573 1.349 . S
C1572 C1574 1.327 . S
C1572 H1597 0.950 . S
C1573 C1572 1.349 . S
C1573 C1589 1.349 . S
C1574 C1572 1.327 . S
C1574 C1593 1.429 . S
C1574 H1598 0.950 . S
C1575 C1592 1.574 . S
C1575 C1594 1.368 . S
C1575 H1599 0.949 . S
H1576 C1580 0.949 . S
C1577 C1578 1.349 . S
C1577 C1579 1.327 . S
C1577 H1600 0.950 . S
C1578 C1577 1.349 . S
C1578 C1590 1.349 . S
C1579 C1577 1.327 . S
C1579 C1595 1.429 . S
C1579 H1601 0.950 . S
C1580 H1576 0.949 . S
C1580 C1588 1.574 . S
C1580 C1596 1.368 . S
H1581 C1589 0.950 . S
H1582 C1587 0.950 . S
H1583 C1588 0.949 . S
H1584 C1590 0.950 . S
H1585 C1591 0.950 . S
H1586 C1592 0.949 . S
C1587 H1582 0.950 . S
C1587 C1589 1.327 . S
C1587 C1593 1.429 . S
C1588 C1580 1.574 . S
C1588 H1583 0.949 . S
C1588 C1594 1.368 . S
C1589 C1573 1.349 . S
C1589 H1581 0.950 . S
C1589 C1587 1.327 . S
C1590 C1578 1.349 . S
C1590 H1584 0.950 . S
C1590 C1591 1.327 . S
C1591 H1585 0.950 . S
C1591 C1590 1.327 . S
C1591 C1595 1.429 . S
C1592 C1575 1.574 . S
C1592 H1586 0.949 . S
C1592 C1596 1.368 . S
C1593 C1574 1.429 . S
C1593 C1587 1.429 . S
C1593 C1594 1.523 . S
C1594 C1575 1.368 . S
C1594 C1588 1.368 . S
C1594 C1593 1.523 . S
C1595 C1579 1.429 . S
C1595 C1591 1.429 . S
C1595 C1596 1.523 . S
C1596 C1580 1.368 . S
C1596 C1592 1.368 . S
C1596 C1595 1.523 . S
H1597 C1572 0.950 . S
H1598 C1574 0.950 . S
H1599 C1575 0.949 . S
H1600 C1577 0.950 . S
H1601 C1579 0.950 . S
C1602 C1603 1.349 . S
C1602 C1604 1.327 . S
C1602 H1627 0.950 . S
C1603 C1602 1.349 . S
C1603 C1619 1.349 . S
C1604 C1602 1.327 . S
C1604 C1623 1.429 . S
C1604 H1628 0.950 . S
C1605 C1622 1.574 . S
C1605 C1624 1.368 . S
C1605 H1629 0.949 . S
H1606 C1610 0.949 . S
C1607 C1608 1.349 . S
C1607 C1609 1.327 . S
C1607 H1630 0.950 . S
C1608 C1607 1.349 . S
C1608 C1620 1.349 . S
C1609 C1607 1.327 . S
C1609 C1625 1.429 . S
C1609 H1631 0.950 . S
C1610 H1606 0.949 . S
C1610 C1618 1.574 . S
C1610 C1626 1.368 . S
H1611 C1619 0.950 . S
H1612 C1617 0.950 . S
H1613 C1618 0.949 . S
H1614 C1620 0.950 . S
H1615 C1621 0.950 . S
H1616 C1622 0.949 . S
C1617 H1612 0.950 . S
C1617 C1619 1.327 . S
C1617 C1623 1.429 . S
C1618 C1610 1.574 . S
C1618 H1613 0.949 . S
C1618 C1624 1.368 . S
C1619 C1603 1.349 . S
C1619 H1611 0.950 . S
C1619 C1617 1.327 . S
C1620 C1608 1.349 . S
C1620 H1614 0.950 . S
C1620 C1621 1.327 . S
C1621 H1615 0.950 . S
C1621 C1620 1.327 . S
C1621 C1625 1.429 . S
C1622 C1605 1.574 . S
C1622 H1616 0.949 . S
C1622 C1626 1.368 . S
C1623 C1604 1.429 . S
C1623 C1617 1.429 . S
C1623 C1624 1.523 . S
C1624 C1605 1.368 . S
C1624 C1618 1.368 . S
C1624 C1623 1.523 . S
C1625 C1609 1.429 . S
C1625 C1621 1.429 . S
C1625 C1626 1.523 . S
C1626 C1610 1.368 . S
C1626 C1622 1.368 . S
C1626 C1625 1.523 . S
H1627 C1602 0.950 . S
H1628 C1604 0.950 . S
H1629 C1605 0.949 . S
H1630 C1607 0.950 . S
H1631 C1609 0.950 . S
C1632 C1633 1.349 . S
C1632 C1634 1.327 . S
C1632 H1657 0.950 . S
C1633 C1632 1.349 . S
C1633 C1649 1.349 . S
C1634 C1632 1.327 . S
C1634 C1653 1.429 . S
C1634 H1658 0.950 . S
C1635 C1652 1.574 . S
C1635 C1654 1.368 . S
C1635 H1659 0.949 . S
H1636 C1640 0.949 . S
C1637 C1638 1.349 . S
C1637 C1639 1.327 . S
C1637 H1660 0.950 . S
C1638 C1637 1.349 . S
C1638 C1650 1.349 . S
C1639 C1637 1.327 . S
C1639 C1655 1.429 . S
C1639 H1661 0.950 . S
C1640 H1636 0.949 . S
C1640 C1648 1.574 . S
C1640 C1656 1.368 . S
H1641 C1649 0.950 . S
H1642 C1647 0.950 . S
H1643 C1648 0.949 . S
H1644 C1650 0.950 . S
H1645 C1651 0.950 . S
H1646 C1652 0.949 . S
C1647 H1642 0.950 . S
C1647 C1649 1.327 . S
C1647 C1653 1.429 . S
C1648 C1640 1.574 . S
C1648 H1643 0.949 . S
C1648 C1654 1.368 . S
C1649 C1633 1.349 . S
C1649 H1641 0.950 . S
C1649 C1647 1.327 . S
C1650 C1638 1.349 . S
C1650 H1644 0.950 . S
C1650 C1651 1.327 . S
C1651 H1645 0.950 . S
C1651 C1650 1.327 . S
C1651 C1655 1.429 . S
C1652 C1635 1.574 . S
C1652 H1646 0.949 . S
C1652 C1656 1.368 . S
C1653 C1634 1.429 . S
C1653 C1647 1.429 . S
C1653 C1654 1.523 . S
C1654 C1635 1.368 . S
C1654 C1648 1.368 . S
C1654 C1653 1.523 . S
C1655 C1639 1.429 . S
C1655 C1651 1.429 . S
C1655 C1656 1.523 . S
C1656 C1640 1.368 . S
C1656 C1652 1.368 . S
C1656 C1655 1.523 . S
H1657 C1632 0.950 . S
H1658 C1634 0.950 . S
H1659 C1635 0.949 . S
H1660 C1637 0.950 . S
H1661 C1639 0.950 . S
C1662 C1663 1.349 . S
C1662 C1664 1.327 . S
C1662 H1687 0.950 . S
C1663 C1662 1.349 . S
C1663 C1679 1.349 . S
C1664 C1662 1.327 . S
C1664 C1683 1.429 . S
C1664 H1688 0.950 . S
C1665 C1682 1.574 . S
C1665 C1684 1.368 . S
C1665 H1689 0.949 . S
H1666 C1670 0.949 . S
C1667 C1668 1.349 . S
C1667 C1669 1.327 . S
C1667 H1690 0.950 . S
C1668 C1667 1.349 . S
C1668 C1680 1.349 . S
C1669 C1667 1.327 . S
C1669 C1685 1.429 . S
C1669 H1691 0.950 . S
C1670 H1666 0.949 . S
C1670 C1678 1.574 . S
C1670 C1686 1.368 . S
H1671 C1679 0.950 . S
H1672 C1677 0.950 . S
H1673 C1678 0.949 . S
H1674 C1680 0.950 . S
H1675 C1681 0.950 . S
H1676 C1682 0.949 . S
C1677 H1672 0.950 . S
C1677 C1679 1.327 . S
C1677 C1683 1.429 . S
C1678 C1670 1.574 . S
C1678 H1673 0.949 . S
C1678 C1684 1.368 . S
C1679 C1663 1.349 . S
C1679 H1671 0.950 . S
C1679 C1677 1.327 . S
C1680 C1668 1.349 . S
C1680 H1674 0.950 . S
C1680 C1681 1.327 . S
C1681 H1675 0.950 . S
C1681 C1680 1.327 . S
C1681 C1685 1.429 . S
C1682 C1665 1.574 . S
C1682 H1676 0.949 . S
C1682 C1686 1.368 . S
C1683 C1664 1.429 . S
C1683 C1677 1.429 . S
C1683 C1684 1.523 . S
C1684 C1665 1.368 . S
C1684 C1678 1.368 . S
C1684 C1683 1.523 . S
C1685 C1669 1.429 . S
C1685 C1681 1.429 . S
C1685 C1686 1.523 . S
C1686 C1670 1.368 . S
C1686 C1682 1.368 . S
C1686 C1685 1.523 . S
H1687 C1662 0.950 . S
H1688 C1664 0.950 . S
H1689 C1665 0.949 . S
H1690 C1667 0.950 . S
H1691 C1669 0.950 . S
C1692 C1693 1.349 . S
C1692 C1694 1.327 . S
C1692 H1717 0.950 . S
C1693 C1692 1.349 . S
C1693 C1709 1.349 . S
C1694 C1692 1.327 . S
C1694 C1713 1.429 . S
C1694 H1718 0.950 . S
C1695 C1712 1.574 . S
C1695 C1714 1.368 . S
C1695 H1719 0.949 . S
H1696 C1700 0.949 . S
C1697 C1698 1.349 . S
C1697 C1699 1.327 . S
C1697 H1720 0.950 . S
C1698 C1697 1.349 . S
C1698 C1710 1.349 . S
C1699 C1697 1.327 . S
C1699 C1715 1.429 . S
C1699 H1721 0.950 . S
C1700 H1696 0.949 . S
C1700 C1708 1.574 . S
C1700 C1716 1.368 . S
H1701 C1709 0.950 . S
H1702 C1707 0.950 . S
H1703 C1708 0.949 . S
H1704 C1710 0.950 . S
H1705 C1711 0.950 . S
H1706 C1712 0.949 . S
C1707 H1702 0.950 . S
C1707 C1709 1.327 . S
C1707 C1713 1.429 . S
C1708 C1700 1.574 . S
C1708 H1703 0.949 . S
C1708 C1714 1.368 . S
C1709 C1693 1.349 . S
C1709 H1701 0.950 . S
C1709 C1707 1.327 . S
C1710 C1698 1.349 . S
C1710 H1704 0.950 . S
C1710 C1711 1.327 . S
C1711 H1705 0.950 . S
C1711 C1710 1.327 . S
C1711 C1715 1.429 . S
C1712 C1695 1.574 . S
C1712 H1706 0.949 . S
C1712 C1716 1.368 . S
C1713 C1694 1.429 . S
C1713 C1707 1.429 . S
C1713 C1714 1.523 . S
C1714 C1695 1.368 . S
C1714 C1708 1.368 . S
C1714 C1713 1.523 . S
C1715 C1699 1.429 . S
C1715 C1711 1.429 . S
C1715 C1716 1.523 . S
C1716 C1700 1.368 . S
C1716 C1712 1.368 . S
C1716 C1715 1.523 . S
H1717 C1692 0.950 . S
H1718 C1694 0.950 . S
H1719 C1695 0.949 . S
H1720 C1697 0.950 . S
H1721 C1699 0.950 . S
C1722 C1723 1.349 . S
C1722 C1724 1.327 . S
C1722 H1747 0.950 . S
C1723 C1722 1.349 . S
C1723 C1739 1.349 . S
C1724 C1722 1.327 . S
C1724 C1743 1.429 . S
C1724 H1748 0.950 . S
C1725 C1742 1.574 . S
C1725 C1744 1.368 . S
C1725 H1749 0.949 . S
H1726 C1730 0.949 . S
C1727 C1728 1.349 . S
C1727 C1729 1.327 . S
C1727 H1750 0.950 . S
C1728 C1727 1.349 . S
C1728 C1740 1.349 . S
C1729 C1727 1.327 . S
C1729 C1745 1.429 . S
C1729 H1751 0.950 . S
C1730 H1726 0.949 . S
C1730 C1738 1.574 . S
C1730 C1746 1.368 . S
H1731 C1739 0.950 . S
H1732 C1737 0.950 . S
H1733 C1738 0.949 . S
H1734 C1740 0.950 . S
H1735 C1741 0.950 . S
H1736 C1742 0.949 . S
C1737 H1732 0.950 . S
C1737 C1739 1.327 . S
C1737 C1743 1.429 . S
C1738 C1730 1.574 . S
C1738 H1733 0.949 . S
C1738 C1744 1.368 . S
C1739 C1723 1.349 . S
C1739 H1731 0.950 . S
C1739 C1737 1.327 . S
C1740 C1728 1.349 . S
C1740 H1734 0.950 . S
C1740 C1741 1.327 . S
C1741 H1735 0.950 . S
C1741 C1740 1.327 . S
C1741 C1745 1.429 . S
C1742 C1725 1.574 . S
C1742 H1736 0.949 . S
C1742 C1746 1.368 . S
C1743 C1724 1.429 . S
C1743 C1737 1.429 . S
C1743 C1744 1.523 . S
C1744 C1725 1.368 . S
C1744 C1738 1.368 . S
C1744 C1743 1.523 . S
C1745 C1729 1.429 . S
C1745 C1741 1.429 . S
C1745 C1746 1.523 . S
C1746 C1730 1.368 . S
C1746 C1742 1.368 . S
C1746 C1745 1.523 . S
H1747 C1722 0.950 . S
H1748 C1724 0.950 . S
H1749 C1725 0.949 . S
H1750 C1727 0.950 . S
H1751 C1729 0.950 . S
C1752 C1753 1.349 . S
C1752 C1754 1.327 . S
C1752 H1777 0.950 . S
C1753 C1752 1.349 . S
C1753 C1769 1.349 . S
C1754 C1752 1.327 . S
C1754 C1773 1.429 . S
C1754 H1778 0.950 . S
C1755 C1772 1.574 . S
C1755 C1774 1.368 . S
C1755 H1779 0.949 . S
H1756 C1760 0.949 . S
C1757 C1758 1.349 . S
C1757 C1759 1.327 . S
C1757 H1780 0.950 . S
C1758 C1757 1.349 . S
C1758 C1770 1.349 . S
C1759 C1757 1.327 . S
C1759 C1775 1.429 . S
C1759 H1781 0.950 . S
C1760 H1756 0.949 . S
C1760 C1768 1.574 . S
C1760 C1776 1.368 . S
H1761 C1769 0.950 . S
H1762 C1767 0.950 . S
H1763 C1768 0.949 . S
H1764 C1770 0.950 . S
H1765 C1771 0.950 . S
H1766 C1772 0.949 . S
C1767 H1762 0.950 . S
C1767 C1769 1.327 . S
C1767 C1773 1.429 . S
C1768 C1760 1.574 . S
C1768 H1763 0.949 . S
C1768 C1774 1.368 . S
C1769 C1753 1.349 . S
C1769 H1761 0.950 . S
C1769 C1767 1.327 . S
C1770 C1758 1.349 . S
C1770 H1764 0.950 . S
C1770 C1771 1.327 . S
C1771 H1765 0.950 . S
C1771 C1770 1.327 . S
C1771 C1775 1.429 . S
C1772 C1755 1.574 . S
C1772 H1766 0.949 . S
C1772 C1776 1.368 . S
C1773 C1754 1.429 . S
C1773 C1767 1.429 . S
C1773 C1774 1.523 . S
C1774 C1755 1.368 . S
C1774 C1768 1.368 . S
C1774 C1773 1.523 . S
C1775 C1759 1.429 . S
C1775 C1771 1.429 . S
C1775 C1776 1.523 . S
C1776 C1760 1.368 . S
C1776 C1772 1.368 . S
C1776 C1775 1.523 . S
H1777 C1752 0.950 . S
H1778 C1754 0.950 . S
H1779 C1755 0.949 . S
H1780 C1757 0.950 . S
H1781 C1759 0.950 . S
C1782 C1783 1.349 . S
C1782 C1784 1.327 . S
C1782 H1807 0.950 . S
C1783 C1782 1.349 . S
C1783 C1799 1.349 . S
C1784 C1782 1.327 . S
C1784 C1803 1.429 . S
C1784 H1808 0.950 . S
C1785 C1802 1.574 . S
C1785 C1804 1.368 . S
C1785 H1809 0.949 . S
H1786 C1790 0.949 . S
C1787 C1788 1.349 . S
C1787 C1789 1.327 . S
C1787 H1810 0.950 . S
C1788 C1787 1.349 . S
C1788 C1800 1.349 . S
C1789 C1787 1.327 . S
C1789 C1805 1.429 . S
C1789 H1811 0.950 . S
C1790 H1786 0.949 . S
C1790 C1798 1.574 . S
C1790 C1806 1.368 . S
H1791 C1799 0.950 . S
H1792 C1797 0.950 . S
H1793 C1798 0.949 . S
H1794 C1800 0.950 . S
H1795 C1801 0.950 . S
H1796 C1802 0.949 . S
C1797 H1792 0.950 . S
C1797 C1799 1.327 . S
C1797 C1803 1.429 . S
C1798 C1790 1.574 . S
C1798 H1793 0.949 . S
C1798 C1804 1.368 . S
C1799 C1783 1.349 . S
C1799 H1791 0.950 . S
C1799 C1797 1.327 . S
C1800 C1788 1.349 . S
C1800 H1794 0.950 . S
C1800 C1801 1.327 . S
C1801 H1795 0.950 . S
C1801 C1800 1.327 . S
C1801 C1805 1.429 . S
C1802 C1785 1.574 . S
C1802 H1796 0.949 . S
C1802 C1806 1.368 . S
C1803 C1784 1.429 . S
C1803 C1797 1.429 . S
C1803 C1804 1.523 . S
C1804 C1785 1.368 . S
C1804 C1798 1.368 . S
C1804 C1803 1.523 . S
C1805 C1789 1.429 . S
C1805 C1801 1.429 . S
C1805 C1806 1.523 . S
C1806 C1790 1.368 . S
C1806 C1802 1.368 . S
C1806 C1805 1.523 . S
H1807 C1782 0.950 . S
H1808 C1784 0.950 . S
H1809 C1785 0.949 . S
H1810 C1787 0.950 . S
H1811 C1789 0.950 . S
C1812 C1813 1.349 . S
C1812 C1814 1.327 . S
C1812 H1837 0.950 . S
C1813 C1812 1.349 . S
C1813 C1829 1.349 . S
C1814 C1812 1.327 . S
C1814 C1833 1.429 . S
C1814 H1838 0.950 . S
C1815 C1832 1.574 . S
C1815 C1834 1.368 . S
C1815 H1839 0.949 . S
H1816 C1820 0.949 . S
C1817 C1818 1.349 . S
C1817 C1819 1.327 . S
C1817 H1840 0.950 . S
C1818 C1817 1.349 . S
C1818 C1830 1.349 . S
C1819 C1817 1.327 . S
C1819 C1835 1.429 . S
C1819 H1841 0.950 . S
C1820 H1816 0.949 . S
C1820 C1828 1.574 . S
C1820 C1836 1.368 . S
H1821 C1829 0.950 . S
H1822 C1827 0.950 . S
H1823 C1828 0.949 . S
H1824 C1830 0.950 . S
H1825 C1831 0.950 . S
H1826 C1832 0.949 . S
C1827 H1822 0.950 . S
C1827 C1829 1.327 . S
C1827 C1833 1.429 . S
C1828 C1820 1.574 . S
C1828 H1823 0.949 . S
C1828 C1834 1.368 . S
C1829 C1813 1.349 . S
C1829 H1821 0.950 . S
C1829 C1827 1.327 . S
C1830 C1818 1.349 . S
C1830 H1824 0.950 . S
C1830 C1831 1.327 . S
C1831 H1825 0.950 . S
C1831 C1830 1.327 . S
C1831 C1835 1.429 . S
C1832 C1815 1.574 . S
C1832 H1826 0.949 . S
C1832 C1836 1.368 . S
C1833 C1814 1.429 . S
C1833 C1827 1.429 . S
C1833 C1834 1.523 . S
C1834 C1815 1.368 . S
C1834 C1828 1.368 . S
C1834 C1833 1.523 . S
C1835 C1819 1.429 . S
C1835 C1831 1.429 . S
C1835 C1836 1.523 . S
C1836 C1820 1.368 . S
C1836 C1832 1.368 . S
C1836 C1835 1.523 . S
H1837 C1812 0.950 . S
H1838 C1814 0.950 . S
H1839 C1815 0.949 . S
H1840 C1817 0.950 . S
H1841 C1819 0.950 . S
C1842 C1843 1.349 . S
C1842 C1844 1.327 . S
C1842 H1867 0.950 . S
C1843 C1842 1.349 . S
C1843 C1859 1.349 . S
C1844 C1842 1.327 . S
C1844 C1863 1.429 . S
C1844 H1868 0.950 . S
C1845 C1862 1.574 . S
C1845 C1864 1.368 . S
C1845 H1869 0.949 . S
H1846 C1850 0.949 . S
C1847 C1848 1.349 . S
C1847 C1849 1.327 . S
C1847 H1870 0.950 . S
C1848 C1847 1.349 . S
C1848 C1860 1.349 . S
C1849 C1847 1.327 . S
C1849 C1865 1.429 . S
C1849 H1871 0.950 . S
C1850 H1846 0.949 . S
C1850 C1858 1.574 . S
C1850 C1866 1.368 . S
H1851 C1859 0.950 . S
H1852 C1857 0.950 . S
H1853 C1858 0.949 . S
H1854 C1860 0.950 . S
H1855 C1861 0.950 . S
H1856 C1862 0.949 . S
C1857 H1852 0.950 . S
C1857 C1859 1.327 . S
C1857 C1863 1.429 . S
C1858 C1850 1.574 . S
C1858 H1853 0.949 . S
C1858 C1864 1.368 . S
C1859 C1843 1.349 . S
C1859 H1851 0.950 . S
C1859 C1857 1.327 . S
C1860 C1848 1.349 . S
C1860 H1854 0.950 . S
C1860 C1861 1.327 . S
C1861 H1855 0.950 . S
C1861 C1860 1.327 . S
C1861 C1865 1.429 . S
C1862 C1845 1.574 . S
C1862 H1856 0.949 . S
C1862 C1866 1.368 . S
C1863 C1844 1.429 . S
C1863 C1857 1.429 . S
C1863 C1864 1.523 . S
C1864 C1845 1.368 . S
C1864 C1858 1.368 . S
C1864 C1863 1.523 . S
C1865 C1849 1.429 . S
C1865 C1861 1.429 . S
C1865 C1866 1.523 . S
C1866 C1850 1.368 . S
C1866 C1862 1.368 . S
C1866 C1865 1.523 . S
H1867 C1842 0.950 . S
H1868 C1844 0.950 . S
H1869 C1845 0.949 . S
H1870 C1847 0.950 . S
H1871 C1849 0.950 . S
C1872 C1873 1.349 . S
C1872 C1874 1.327 . S
C1872 H1897 0.950 . S
C1873 C1872 1.349 . S
C1873 C1889 1.349 . S
C1874 C1872 1.327 . S
C1874 C1893 1.429 . S
C1874 H1898 0.950 . S
C1875 C1892 1.574 . S
C1875 C1894 1.368 . S
C1875 H1899 0.949 . S
H1876 C1880 0.949 . S
C1877 C1878 1.349 . S
C1877 C1879 1.327 . S
C1877 H1900 0.950 . S
C1878 C1877 1.349 . S
C1878 C1890 1.349 . S
C1879 C1877 1.327 . S
C1879 C1895 1.429 . S
C1879 H1901 0.950 . S
C1880 H1876 0.949 . S
C1880 C1888 1.574 . S
C1880 C1896 1.368 . S
H1881 C1889 0.950 . S
H1882 C1887 0.950 . S
H1883 C1888 0.949 . S
H1884 C1890 0.950 . S
H1885 C1891 0.950 . S
H1886 C1892 0.949 . S
C1887 H1882 0.950 . S
C1887 C1889 1.327 . S
C1887 C1893 1.429 . S
C1888 C1880 1.574 . S
C1888 H1883 0.949 . S
C1888 C1894 1.368 . S
C1889 C1873 1.349 . S
C1889 H1881 0.950 . S
C1889 C1887 1.327 . S
C1890 C1878 1.349 . S
C1890 H1884 0.950 . S
C1890 C1891 1.327 . S
C1891 H1885 0.950 . S
C1891 C1890 1.327 . S
C1891 C1895 1.429 . S
C1892 C1875 1.574 . S
C1892 H1886 0.949 . S
C1892 C1896 1.368 . S
C1893 C1874 1.429 . S
C1893 C1887 1.429 . S
C1893 C1894 1.523 . S
C1894 C1875 1.368 . S
C1894 C1888 1.368 . S
C1894 C1893 1.523 . S
C1895 C1879 1.429 . S
C1895 C1891 1.429 . S
C1895 C1896 1.523 . S
C1896 C1880 1.368 . S
C1896 C1892 1.368 . S
C1896 C1895 1.523 . S
H1897 C1872 0.950 . S
H1898 C1874 0.950 . S
H1899 C1875 0.949 . S
H1900 C1877 0.950 . S
H1901 C1879 0.950 . S
C1902 C1903 1.349 . S
C1902 C1904 1.327 . S
C1902 H1927 0.950 . S
C1903 C1902 1.349 . S
C1903 C1919 1.349 . S
C1904 C1902 1.327 . S
C1904 C1923 1.429 . S
C1904 H1928 0.950 . S
C1905 C1922 1.574 . S
C1905 C1924 1.368 . S
C1905 H1929 0.949 . S
H1906 C1910 0.949 . S
C1907 C1908 1.349 . S
C1907 C1909 1.327 . S
C1907 H1930 0.950 . S
C1908 C1907 1.349 . S
C1908 C1920 1.349 . S
C1909 C1907 1.327 . S
C1909 C1925 1.429 . S
C1909 H1931 0.950 . S
C1910 H1906 0.949 . S
C1910 C1918 1.574 . S
C1910 C1926 1.368 . S
H1911 C1919 0.950 . S
H1912 C1917 0.950 . S
H1913 C1918 0.949 . S
H1914 C1920 0.950 . S
H1915 C1921 0.950 . S
H1916 C1922 0.949 . S
C1917 H1912 0.950 . S
C1917 C1919 1.327 . S
C1917 C1923 1.429 . S
C1918 C1910 1.574 . S
C1918 H1913 0.949 . S
C1918 C1924 1.368 . S
C1919 C1903 1.349 . S
C1919 H1911 0.950 . S
C1919 C1917 1.327 . S
C1920 C1908 1.349 . S
C1920 H1914 0.950 . S
C1920 C1921 1.327 . S
C1921 H1915 0.950 . S
C1921 C1920 1.327 . S
C1921 C1925 1.429 . S
C1922 C1905 1.574 . S
C1922 H1916 0.949 . S
C1922 C1926 1.368 . S
C1923 C1904 1.429 . S
C1923 C1917 1.429 . S
C1923 C1924 1.523 . S
C1924 C1905 1.368 . S
C1924 C1918 1.368 . S
C1924 C1923 1.523 . S
C1925 C1909 1.429 . S
C1925 C1921 1.429 . S
C1925 C1926 1.523 . S
C1926 C1910 1.368 . S
C1926 C1922 1.368 . S
C1926 C1925 1.523 . S
H1927 C1902 0.950 . S
H1928 C1904 0.950 . S
H1929 C1905 0.949 . S
H1930 C1907 0.950 . S
H1931 C1909 0.950 . S
C1932 C1933 1.349 . S
C1932 C1934 1.327 . S
C1932 H1957 0.950 . S
C1933 C1932 1.349 . S
C1933 C1949 1.349 . S
C1934 C1932 1.327 . S
C1934 C1953 1.429 . S
C1934 H1958 0.950 . S
C1935 C1952 1.574 . S
C1935 C1954 1.368 . S
C1935 H1959 0.949 . S
H1936 C1940 0.949 . S
C1937 C1938 1.349 . S
C1937 C1939 1.327 . S
C1937 H1960 0.950 . S
C1938 C1937 1.349 . S
C1938 C1950 1.349 . S
C1939 C1937 1.327 . S
C1939 C1955 1.429 . S
C1939 H1961 0.950 . S
C1940 H1936 0.949 . S
C1940 C1948 1.574 . S
C1940 C1956 1.368 . S
H1941 C1949 0.950 . S
H1942 C1947 0.950 . S
H1943 C1948 0.949 . S
H1944 C1950 0.950 . S
H1945 C1951 0.950 . S
H1946 C1952 0.949 . S
C1947 H1942 0.950 . S
C1947 C1949 1.327 . S
C1947 C1953 1.429 . S
C1948 C1940 1.574 . S
C1948 H1943 0.949 . S
C1948 C1954 1.368 . S
C1949 C1933 1.349 . S
C1949 H1941 0.950 . S
C1949 C1947 1.327 . S
C1950 C1938 1.349 . S
C1950 H1944 0.950 . S
C1950 C1951 1.327 . S
C1951 H1945 0.950 . S
C1951 C1950 1.327 . S
C1951 C1955 1.429 . S
C1952 C1935 1.574 . S
C1952 H1946 0.949 . S
C1952 C1956 1.368 . S
C1953 C1934 1.429 . S
C1953 C1947 1.429 . S
C1953 C1954 1.523 . S
C1954 C1935 1.368 . S
C1954 C1948 1.368 . S
C1954 C1953 1.523 . S
C1955 C1939 1.429 . S
C1955 C1951 1.429 . S
C1955 C1956 1.523 . S
C1956 C1940 1.368 . S
C1956 C1952 1.368 . S
C1956 C1955 1.523 . S
H1957 C1932 0.950 . S
H1958 C1934 0.950 . S
H1959 C1935 0.949 . S
H1960 C1937 0.950 . S
H1961 C1939 0.950 . S
C1962 C1963 1.349 . S
C1962 C1964 1.327 . S
C1962 H1987 0.950 . S
C1963 C1962 1.349 . S
C1963 C1979 1.349 . S
C1964 C1962 1.327 . S
C1964 C1983 1.429 . S
C1964 H1988 0.950 . S
C1965 C1982 1.574 . S
C1965 C1984 1.368 . S
C1965 H1989 0.949 . S
H1966 C1970 0.949 . S
C1967 C1968 1.349 . S
C1967 C1969 1.327 . S
C1967 H1990 0.950 . S
C1968 C1967 1.349 . S
C1968 C1980 1.349 . S
C1969 C1967 1.327 . S
C1969 C1985 1.429 . S
C1969 H1991 0.950 . S
C1970 H1966 0.949 . S
C1970 C1978 1.574 . S
C1970 C1986 1.368 . S
H1971 C1979 0.950 . S
H1972 C1977 0.950 . S
H1973 C1978 0.949 . S
H1974 C1980 0.950 . S
H1975 C1981 0.950 . S
H1976 C1982 0.949 . S
C1977 H1972 0.950 . S
C1977 C1979 1.327 . S
C1977 C1983 1.429 . S
C1978 C1970 1.574 . S
C1978 H1973 0.949 . S
C1978 C1984 1.368 . S
C1979 C1963 1.349 . S
C1979 H1971 0.950 . S
C1979 C1977 1.327 . S
C1980 C1968 1.349 . S
C1980 H1974 0.950 . S
C1980 C1981 1.327 . S
C1981 H1975 0.950 . S
C1981 C1980 1.327 . S
C1981 C1985 1.429 . S
C1982 C1965 1.574 . S
C1982 H1976 0.949 . S
C1982 C1986 1.368 . S
C1983 C1964 1.429 . S
C1983 C1977 1.429 . S
C1983 C1984 1.523 . S
C1984 C1965 1.368 . S
C1984 C1978 1.368 . S
C1984 C1983 1.523 . S
C1985 C1969 1.429 . S
C1985 C1981 1.429 . S
C1985 C1986 1.523 . S
C1986 C1970 1.368 . S
C1986 C1982 1.368 . S
C1986 C1985 1.523 . S
H1987 C1962 0.950 . S
H1988 C1964 0.950 . S
H1989 C1965 0.949 . S
H1990 C1967 0.950 . S
H1991 C1969 0.950 . S
C1992 C1993 1.349 . S
C1992 C1994 1.327 . S
C1992 H2017 0.950 . S
C1993 C1992 1.349 . S
C1993 C2009 1.349 . S
C1994 C1992 1.327 . S
C1994 C2013 1.429 . S
C1994 H2018 0.950 . S
C1995 C2012 1.574 . S
C1995 C2014 1.368 . S
C1995 H2019 0.949 . S
H1996 C2000 0.949 . S
C1997 C1998 1.349 . S
C1997 C1999 1.327 . S
C1997 H2020 0.950 . S
C1998 C1997 1.349 . S
C1998 C2010 1.349 . S
C1999 C1997 1.327 . S
C1999 C2015 1.429 . S
C1999 H2021 0.950 . S
C2000 H1996 0.949 . S
C2000 C2008 1.574 . S
C2000 C2016 1.368 . S
H2001 C2009 0.950 . S
H2002 C2007 0.950 . S
H2003 C2008 0.949 . S
H2004 C2010 0.950 . S
H2005 C2011 0.950 . S
H2006 C2012 0.949 . S
C2007 H2002 0.950 . S
C2007 C2009 1.327 . S
C2007 C2013 1.429 . S
C2008 C2000 1.574 . S
C2008 H2003 0.949 . S
C2008 C2014 1.368 . S
C2009 C1993 1.349 . S
C2009 H2001 0.950 . S
C2009 C2007 1.327 . S
C2010 C1998 1.349 . S
C2010 H2004 0.950 . S
C2010 C2011 1.327 . S
C2011 H2005 0.950 . S
C2011 C2010 1.327 . S
C2011 C2015 1.429 . S
C2012 C1995 1.574 . S
C2012 H2006 0.949 . S
C2012 C2016 1.368 . S
C2013 C1994 1.429 . S
C2013 C2007 1.429 . S
C2013 C2014 1.523 . S
C2014 C1995 1.368 . S
C2014 C2008 1.368 . S
C2014 C2013 1.523 . S
C2015 C1999 1.429 . S
C2015 C2011 1.429 . S
C2015 C2016 1.523 . S
C2016 C2000 1.368 . S
C2016 C2012 1.368 . S
C2016 C2015 1.523 . S
H2017 C1992 0.950 . S
H2018 C1994 0.950 . S
H2019 C1995 0.949 . S
H2020 C1997 0.950 . S
H2021 C1999 0.950 . S
C2022 C2023 1.349 . S
C2022 C2024 1.327 . S
C2022 H2047 0.950 . S
C2023 C2022 1.349 . S
C2023 C2039 1.349 . S
C2024 C2022 1.327 . S
C2024 C2043 1.429 . S
C2024 H2048 0.950 . S
C2025 C2042 1.574 . S
C2025 C2044 1.368 . S
C2025 H2049 0.949 . S
H2026 C2030 0.949 . S
C2027 C2028 1.349 . S
C2027 C2029 1.327 . S
C2027 H2050 0.950 . S
C2028 C2027 1.349 . S
C2028 C2040 1.349 . S
C2029 C2027 1.327 . S
C2029 C2045 1.429 . S
C2029 H2051 0.950 . S
C2030 H2026 0.949 . S
C2030 C2038 1.574 . S
C2030 C2046 1.368 . S
H2031 C2039 0.950 . S
H2032 C2037 0.950 . S
H2033 C2038 0.949 . S
H2034 C2040 0.950 . S
H2035 C2041 0.950 . S
H2036 C2042 0.949 . S
C2037 H2032 0.950 . S
C2037 C2039 1.327 . S
C2037 C2043 1.429 . S
C2038 C2030 1.574 . S
C2038 H2033 0.949 . S
C2038 C2044 1.368 . S
C2039 C2023 1.349 . S
C2039 H2031 0.950 . S
C2039 C2037 1.327 . S
C2040 C2028 1.349 . S
C2040 H2034 0.950 . S
C2040 C2041 1.327 . S
C2041 H2035 0.950 . S
C2041 C2040 1.327 . S
C2041 C2045 1.429 . S
C2042 C2025 1.574 . S
C2042 H2036 0.949 . S
C2042 C2046 1.368 . S
C2043 C2024 1.429 . S
C2043 C2037 1.429 . S
C2043 C2044 1.523 . S
C2044 C2025 1.368 . S
C2044 C2038 1.368 . S
C2044 C2043 1.523 . S
C2045 C2029 1.429 . S
C2045 C2041 1.429 . S
C2045 C2046 1.523 . S
C2046 C2030 1.368 . S
C2046 C2042 1.368 . S
C2046 C2045 1.523 . S
H2047 C2022 0.950 . S
H2048 C2024 0.950 . S
H2049 C2025 0.949 . S
H2050 C2027 0.950 . S
H2051 C2029 0.950 . S
C2052 C2053 1.349 . S
C2052 C2054 1.327 . S
C2052 H2077 0.950 . S
C2053 C2052 1.349 . S
C2053 C2069 1.349 . S
C2054 C2052 1.327 . S
C2054 C2073 1.429 . S
C2054 H2078 0.950 . S
C2055 C2072 1.574 . S
C2055 C2074 1.368 . S
C2055 H2079 0.949 . S
H2056 C2060 0.949 . S
C2057 C2058 1.349 . S
C2057 C2059 1.327 . S
C2057 H2080 0.950 . S
C2058 C2057 1.349 . S
C2058 C2070 1.349 . S
C2059 C2057 1.327 . S
C2059 C2075 1.429 . S
C2059 H2081 0.950 . S
C2060 H2056 0.949 . S
C2060 C2068 1.574 . S
C2060 C2076 1.368 . S
H2061 C2069 0.950 . S
H2062 C2067 0.950 . S
H2063 C2068 0.949 . S
H2064 C2070 0.950 . S
H2065 C2071 0.950 . S
H2066 C2072 0.949 . S
C2067 H2062 0.950 . S
C2067 C2069 1.327 . S
C2067 C2073 1.429 . S
C2068 C2060 1.574 . S
C2068 H2063 0.949 . S
C2068 C2074 1.368 . S
C2069 C2053 1.349 . S
C2069 H2061 0.950 . S
C2069 C2067 1.327 . S
C2070 C2058 1.349 . S
C2070 H2064 0.950 . S
C2070 C2071 1.327 . S
C2071 H2065 0.950 . S
C2071 C2070 1.327 . S
C2071 C2075 1.429 . S
C2072 C2055 1.574 . S
C2072 H2066 0.949 . S
C2072 C2076 1.368 . S
C2073 C2054 1.429 . S
C2073 C2067 1.429 . S
C2073 C2074 1.523 . S
C2074 C2055 1.368 . S
C2074 C2068 1.368 . S
C2074 C2073 1.523 . S
C2075 C2059 1.429 . S
C2075 C2071 1.429 . S
C2075 C2076 1.523 . S
C2076 C2060 1.368 . S
C2076 C2072 1.368 . S
C2076 C2075 1.523 . S
H2077 C2052 0.950 . S
H2078 C2054 0.950 . S
H2079 C2055 0.949 . S
H2080 C2057 0.950 . S
H2081 C2059 0.950 . S
C2082 C2083 1.349 . S
C2082 C2084 1.327 . S
C2082 H2107 0.950 . S
C2083 C2082 1.349 . S
C2083 C2099 1.349 . S
C2084 C2082 1.327 . S
C2084 C2103 1.429 . S
C2084 H2108 0.950 . S
C2085 C2102 1.574 . S
C2085 C2104 1.368 . S
C2085 H2109 0.949 . S
H2086 C2090 0.949 . S
C2087 C2088 1.349 . S
C2087 C2089 1.327 . S
C2087 H2110 0.950 . S
C2088 C2087 1.349 . S
C2088 C2100 1.349 . S
C2089 C2087 1.327 . S
C2089 C2105 1.429 . S
C2089 H2111 0.950 . S
C2090 H2086 0.949 . S
C2090 C2098 1.574 . S
C2090 C2106 1.368 . S
H2091 C2099 0.950 . S
H2092 C2097 0.950 . S
H2093 C2098 0.949 . S
H2094 C2100 0.950 . S
H2095 C2101 0.950 . S
H2096 C2102 0.949 . S
C2097 H2092 0.950 . S
C2097 C2099 1.327 . S
C2097 C2103 1.429 . S
C2098 C2090 1.574 . S
C2098 H2093 0.949 . S
C2098 C2104 1.368 . S
C2099 C2083 1.349 . S
C2099 H2091 0.950 . S
C2099 C2097 1.327 . S
C2100 C2088 1.349 . S
C2100 H2094 0.950 . S
C2100 C2101 1.327 . S
C2101 H2095 0.950 . S
C2101 C2100 1.327 . S
C2101 C2105 1.429 . S
C2102 C2085 1.574 . S
C2102 H2096 0.949 . S
C2102 C2106 1.368 . S
C2103 C2084 1.429 . S
C2103 C2097 1.429 . S
C2103 C2104 1.523 . S
C2104 C2085 1.368 . S
C2104 C2098 1.368 . S
C2104 C2103 1.523 . S
C2105 C2089 1.429 . S
C2105 C2101 1.429 . S
C2105 C2106 1.523 . S
C2106 C2090 1.368 . S
C2106 C2102 1.368 . S
C2106 C2105 1.523 . S
H2107 C2082 0.950 . S
H2108 C2084 0.950 . S
H2109 C2085 0.949 . S
H2110 C2087 0.950 . S
H2111 C2089 0.950 . S
C2112 C2113 1.349 . S
C2112 C2114 1.327 . S
C2112 H2137 0.950 . S
C2113 C2112 1.349 . S
C2113 C2129 1.349 . S
C2114 C2112 1.327 . S
C2114 C2133 1.429 . S
C2114 H2138 0.950 . S
C2115 C2132 1.574 . S
C2115 C2134 1.368 . S
C2115 H2139 0.949 . S
H2116 C2120 0.949 . S
C2117 C2118 1.349 . S
C2117 C2119 1.327 . S
C2117 H2140 0.950 . S
C2118 C2117 1.349 . S
C2118 C2130 1.349 . S
C2119 C2117 1.327 . S
C2119 C2135 1.429 . S
C2119 H2141 0.950 . S
C2120 H2116 0.949 . S
C2120 C2128 1.574 . S
C2120 C2136 1.368 . S
H2121 C2129 0.950 . S
H2122 C2127 0.950 . S
H2123 C2128 0.949 . S
H2124 C2130 0.950 . S
H2125 C2131 0.950 . S
H2126 C2132 0.949 . S
C2127 H2122 0.950 . S
C2127 C2129 1.327 . S
C2127 C2133 1.429 . S
C2128 C2120 1.574 . S
C2128 H2123 0.949 . S
C2128 C2134 1.368 . S
C2129 C2113 1.349 . S
C2129 H2121 0.950 . S
C2129 C2127 1.327 . S
C2130 C2118 1.349 . S
C2130 H2124 0.950 . S
C2130 C2131 1.327 . S
C2131 H2125 0.950 . S
C2131 C2130 1.327 . S
C2131 C2135 1.429 . S
C2132 C2115 1.574 . S
C2132 H2126 0.949 . S
C2132 C2136 1.368 . S
C2133 C2114 1.429 . S
C2133 C2127 1.429 . S
C2133 C2134 1.523 . S
C2134 C2115 1.368 . S
C2134 C2128 1.368 . S
C2134 C2133 1.523 . S
C2135 C2119 1.429 . S
C2135 C2131 1.429 . S
C2135 C2136 1.523 . S
C2136 C2120 1.368 . S
C2136 C2132 1.368 . S
C2136 C2135 1.523 . S
H2137 C2112 0.950 . S
H2138 C2114 0.950 . S
H2139 C2115 0.949 . S
H2140 C2117 0.950 . S
H2141 C2119 0.950 . S
C2142 C2143 1.349 . S
C2142 C2144 1.327 . S
C2142 H2167 0.950 . S
C2143 C2142 1.349 . S
C2143 C2159 1.349 . S
C2144 C2142 1.327 . S
C2144 C2163 1.429 . S
C2144 H2168 0.950 . S
C2145 C2162 1.574 . S
C2145 C2164 1.368 . S
C2145 H2169 0.949 . S
H2146 C2150 0.949 . S
C2147 C2148 1.349 . S
C2147 C2149 1.327 . S
C2147 H2170 0.950 . S
C2148 C2147 1.349 . S
C2148 C2160 1.349 . S
C2149 C2147 1.327 . S
C2149 C2165 1.429 . S
C2149 H2171 0.950 . S
C2150 H2146 0.949 . S
C2150 C2158 1.574 . S
C2150 C2166 1.368 . S
H2151 C2159 0.950 . S
H2152 C2157 0.950 . S
H2153 C2158 0.949 . S
H2154 C2160 0.950 . S
H2155 C2161 0.950 . S
H2156 C2162 0.949 . S
C2157 H2152 0.950 . S
C2157 C2159 1.327 . S
C2157 C2163 1.429 . S
C2158 C2150 1.574 . S
C2158 H2153 0.949 . S
C2158 C2164 1.368 . S
C2159 C2143 1.349 . S
C2159 H2151 0.950 . S
C2159 C2157 1.327 . S
C2160 C2148 1.349 . S
C2160 H2154 0.950 . S
C2160 C2161 1.327 . S
C2161 H2155 0.950 . S
C2161 C2160 1.327 . S
C2161 C2165 1.429 . S
C2162 C2145 1.574 . S
C2162 H2156 0.949 . S
C2162 C2166 1.368 . S
C2163 C2144 1.429 . S
C2163 C2157 1.429 . S
C2163 C2164 1.523 . S
C2164 C2145 1.368 . S
C2164 C2158 1.368 . S
C2164 C2163 1.523 . S
C2165 C2149 1.429 . S
C2165 C2161 1.429 . S
C2165 C2166 1.523 . S
C2166 C2150 1.368 . S
C2166 C2162 1.368 . S
C2166 C2165 1.523 . S
H2167 C2142 0.950 . S
H2168 C2144 0.950 . S
H2169 C2145 0.949 . S
H2170 C2147 0.950 . S
H2171 C2149 0.950 . S
C2172 C2173 1.349 . S
C2172 C2174 1.327 . S
C2172 H2197 0.950 . S
C2173 C2172 1.349 . S
C2173 C2189 1.349 . S
C2174 C2172 1.327 . S
C2174 C2193 1.429 . S
C2174 H2198 0.950 . S
C2175 C2192 1.574 . S
C2175 C2194 1.368 . S
C2175 H2199 0.949 . S
H2176 C2180 0.949 . S
C2177 C2178 1.349 . S
C2177 C2179 1.327 . S
C2177 H2200 0.950 . S
C2178 C2177 1.349 . S
C2178 C2190 1.349 . S
C2179 C2177 1.327 . S
C2179 C2195 1.429 . S
C2179 H2201 0.950 . S
C2180 H2176 0.949 . S
C2180 C2188 1.574 . S
C2180 C2196 1.368 . S
H2181 C2189 0.950 . S
H2182 C2187 0.950 . S
H2183 C2188 0.949 . S
H2184 C2190 0.950 . S
H2185 C2191 0.950 . S
H2186 C2192 0.949 . S
C2187 H2182 0.950 . S
C2187 C2189 1.327 . S
C2187 C2193 1.429 . S
C2188 C2180 1.574 . S
C2188 H2183 0.949 . S
C2188 C2194 1.368 . S
C2189 C2173 1.349 . S
C2189 H2181 0.950 . S
C2189 C2187 1.327 . S
C2190 C2178 1.349 . S
C2190 H2184 0.950 . S
C2190 C2191 1.327 . S
C2191 H2185 0.950 . S
C2191 C2190 1.327 . S
C2191 C2195 1.429 . S
C2192 C2175 1.574 . S
C2192 H2186 0.949 . S
C2192 C2196 1.368 . S
C2193 C2174 1.429 . S
C2193 C2187 1.429 . S
C2193 C2194 1.523 . S
C2194 C2175 1.368 . S
C2194 C2188 1.368 . S
C2194 C2193 1.523 . S
C2195 C2179 1.429 . S
C2195 C2191 1.429 . S
C2195 C2196 1.523 . S
C2196 C2180 1.368 . S
C2196 C2192 1.368 . S
C2196 C2195 1.523 . S
H2197 C2172 0.950 . S
H2198 C2174 0.950 . S
H2199 C2175 0.949 . S
H2200 C2177 0.950 . S
H2201 C2179 0.950 . S
C2202 C2203 1.349 . S
C2202 C2204 1.327 . S
C2202 H2227 0.950 . S
C2203 C2202 1.349 . S
C2203 C2219 1.349 . S
C2204 C2202 1.327 . S
C2204 C2223 1.429 . S
C2204 H2228 0.950 . S
C2205 C2222 1.574 . S
C2205 C2224 1.368 . S
C2205 H2229 0.949 . S
H2206 C2210 0.949 . S
C2207 C2208 1.349 . S
C2207 C2209 1.327 . S
C2207 H2230 0.950 . S
C2208 C2207 1.349 . S
C2208 C2220 1.349 . S
C2209 C2207 1.327 . S
C2209 C2225 1.429 . S
C2209 H2231 0.950 . S
C2210 H2206 0.949 . S
C2210 C2218 1.574 . S
C2210 C2226 1.368 . S
H2211 C2219 0.950 . S
H2212 C2217 0.950 . S
H2213 C2218 0.949 . S
H2214 C2220 0.950 . S
H2215 C2221 0.950 . S
H2216 C2222 0.949 . S
C2217 H2212 0.950 . S
C2217 C2219 1.327 . S
C2217 C2223 1.429 . S
C2218 C2210 1.574 . S
C2218 H2213 0.949 . S
C2218 C2224 1.368 . S
C2219 C2203 1.349 . S
C2219 H2211 0.950 . S
C2219 C2217 1.327 . S
C2220 C2208 1.349 . S
C2220 H2214 0.950 . S
C2220 C2221 1.327 . S
C2221 H2215 0.950 . S
C2221 C2220 1.327 . S
C2221 C2225 1.429 . S
C2222 C2205 1.574 . S
C2222 H2216 0.949 . S
C2222 C2226 1.368 . S
C2223 C2204 1.429 . S
C2223 C2217 1.429 . S
C2223 C2224 1.523 . S
C2224 C2205 1.368 . S
C2224 C2218 1.368 . S
C2224 C2223 1.523 . S
C2225 C2209 1.429 . S
C2225 C2221 1.429 . S
C2225 C2226 1.523 . S
C2226 C2210 1.368 . S
C2226 C2222 1.368 . S
C2226 C2225 1.523 . S
H2227 C2202 0.950 . S
H2228 C2204 0.950 . S
H2229 C2205 0.949 . S
H2230 C2207 0.950 . S
H2231 C2209 0.950 . S
C2232 C2233 1.349 . S
C2232 C2234 1.327 . S
C2232 H2257 0.950 . S
C2233 C2232 1.349 . S
C2233 C2249 1.349 . S
C2234 C2232 1.327 . S
C2234 C2253 1.429 . S
C2234 H2258 0.950 . S
C2235 C2252 1.574 . S
C2235 C2254 1.368 . S
C2235 H2259 0.949 . S
H2236 C2240 0.949 . S
C2237 C2238 1.349 . S
C2237 C2239 1.327 . S
C2237 H2260 0.950 . S
C2238 C2237 1.349 . S
C2238 C2250 1.349 . S
C2239 C2237 1.327 . S
C2239 C2255 1.429 . S
C2239 H2261 0.950 . S
C2240 H2236 0.949 . S
C2240 C2248 1.574 . S
C2240 C2256 1.368 . S
H2241 C2249 0.950 . S
H2242 C2247 0.950 . S
H2243 C2248 0.949 . S
H2244 C2250 0.950 . S
H2245 C2251 0.950 . S
H2246 C2252 0.949 . S
C2247 H2242 0.950 . S
C2247 C2249 1.327 . S
C2247 C2253 1.429 . S
C2248 C2240 1.574 . S
C2248 H2243 0.949 . S
C2248 C2254 1.368 . S
C2249 C2233 1.349 . S
C2249 H2241 0.950 . S
C2249 C2247 1.327 . S
C2250 C2238 1.349 . S
C2250 H2244 0.950 . S
C2250 C2251 1.327 . S
C2251 H2245 0.950 . S
C2251 C2250 1.327 . S
C2251 C2255 1.429 . S
C2252 C2235 1.574 . S
C2252 H2246 0.949 . S
C2252 C2256 1.368 . S
C2253 C2234 1.429 . S
C2253 C2247 1.429 . S
C2253 C2254 1.523 . S
C2254 C2235 1.368 . S
C2254 C2248 1.368 . S
C2254 C2253 1.523 . S
C2255 C2239 1.429 . S
C2255 C2251 1.429 . S
C2255 C2256 1.523 . S
C2256 C2240 1.368 . S
C2256 C2252 1.368 . S
C2256 C2255 1.523 . S
H2257 C2232 0.950 . S
H2258 C2234 0.950 . S
H2259 C2235 0.949 . S
H2260 C2237 0.950 . S
H2261 C2239 0.950 . S
C2262 C2263 1.349 . S
C2262 C2264 1.327 . S
C2262 H2287 0.950 . S
C2263 C2262 1.349 . S
C2263 C2279 1.349 . S
C2264 C2262 1.327 . S
C2264 C2283 1.429 . S
C2264 H2288 0.950 . S
C2265 C2282 1.574 . S
C2265 C2284 1.368 . S
C2265 H2289 0.949 . S
H2266 C2270 0.949 . S
C2267 C2268 1.349 . S
C2267 C2269 1.327 . S
C2267 H2290 0.950 . S
C2268 C2267 1.349 . S
C2268 C2280 1.349 . S
C2269 C2267 1.327 . S
C2269 C2285 1.429 . S
C2269 H2291 0.950 . S
C2270 H2266 0.949 . S
C2270 C2278 1.574 . S
C2270 C2286 1.368 . S
H2271 C2279 0.950 . S
H2272 C2277 0.950 . S
H2273 C2278 0.949 . S
H2274 C2280 0.950 . S
H2275 C2281 0.950 . S
H2276 C2282 0.949 . S
C2277 H2272 0.950 . S
C2277 C2279 1.327 . S
C2277 C2283 1.429 . S
C2278 C2270 1.574 . S
C2278 H2273 0.949 . S
C2278 C2284 1.368 . S
C2279 C2263 1.349 . S
C2279 H2271 0.950 . S
C2279 C2277 1.327 . S
C2280 C2268 1.349 . S
C2280 H2274 0.950 . S
C2280 C2281 1.327 . S
C2281 H2275 0.950 . S
C2281 C2280 1.327 . S
C2281 C2285 1.429 . S
C2282 C2265 1.574 . S
C2282 H2276 0.949 . S
C2282 C2286 1.368 . S
C2283 C2264 1.429 . S
C2283 C2277 1.429 . S
C2283 C2284 1.523 . S
C2284 C2265 1.368 . S
C2284 C2278 1.368 . S
C2284 C2283 1.523 . S
C2285 C2269 1.429 . S
C2285 C2281 1.429 . S
C2285 C2286 1.523 . S
C2286 C2270 1.368 . S
C2286 C2282 1.368 . S
C2286 C2285 1.523 . S
H2287 C2262 0.950 . S
H2288 C2264 0.950 . S
H2289 C2265 0.949 . S
H2290 C2267 0.950 . S
H2291 C2269 0.950 . S
C2292 C2293 1.349 . S
C2292 C2294 1.327 . S
C2292 H2317 0.950 . S
C2293 C2292 1.349 . S
C2293 C2309 1.349 . S
C2294 C2292 1.327 . S
C2294 C2313 1.429 . S
C2294 H2318 0.950 . S
C2295 C2312 1.574 . S
C2295 C2314 1.368 . S
C2295 H2319 0.949 . S
H2296 C2300 0.949 . S
C2297 C2298 1.349 . S
C2297 C2299 1.327 . S
C2297 H2320 0.950 . S
C2298 C2297 1.349 . S
C2298 C2310 1.349 . S
C2299 C2297 1.327 . S
C2299 C2315 1.429 . S
C2299 H2321 0.950 . S
C2300 H2296 0.949 . S
C2300 C2308 1.574 . S
C2300 C2316 1.368 . S
H2301 C2309 0.950 . S
H2302 C2307 0.950 . S
H2303 C2308 0.949 . S
H2304 C2310 0.950 . S
H2305 C2311 0.950 . S
H2306 C2312 0.949 . S
C2307 H2302 0.950 . S
C2307 C2309 1.327 . S
C2307 C2313 1.429 . S
C2308 C2300 1.574 . S
C2308 H2303 0.949 . S
C2308 C2314 1.368 . S
C2309 C2293 1.349 . S
C2309 H2301 0.950 . S
C2309 C2307 1.327 . S
C2310 C2298 1.349 . S
C2310 H2304 0.950 . S
C2310 C2311 1.327 . S
C2311 H2305 0.950 . S
C2311 C2310 1.327 . S
C2311 C2315 1.429 . S
C2312 C2295 1.574 . S
C2312 H2306 0.949 . S
C2312 C2316 1.368 . S
C2313 C2294 1.429 . S
C2313 C2307 1.429 . S
C2313 C2314 1.523 . S
C2314 C2295 1.368 . S
C2314 C2308 1.368 . S
C2314 C2313 1.523 . S
C2315 C2299 1.429 . S
C2315 C2311 1.429 . S
C2315 C2316 1.523 . S
C2316 C2300 1.368 . S
C2316 C2312 1.368 . S
C2316 C2315 1.523 . S
H2317 C2292 0.950 . S
H2318 C2294 0.950 . S
H2319 C2295 0.949 . S
H2320 C2297 0.950 . S
H2321 C2299 0.950 . S
C2322 C2323 1.349 . S
C2322 C2324 1.327 . S
C2322 H2347 0.950 . S
C2323 C2322 1.349 . S
C2323 C2339 1.349 . S
C2324 C2322 1.327 . S
C2324 C2343 1.429 . S
C2324 H2348 0.950 . S
C2325 C2342 1.574 . S
C2325 C2344 1.368 . S
C2325 H2349 0.949 . S
H2326 C2330 0.949 . S
C2327 C2328 1.349 . S
C2327 C2329 1.327 . S
C2327 H2350 0.950 . S
C2328 C2327 1.349 . S
C2328 C2340 1.349 . S
C2329 C2327 1.327 . S
C2329 C2345 1.429 . S
C2329 H2351 0.950 . S
C2330 H2326 0.949 . S
C2330 C2338 1.574 . S
C2330 C2346 1.368 . S
H2331 C2339 0.950 . S
H2332 C2337 0.950 . S
H2333 C2338 0.949 . S
H2334 C2340 0.950 . S
H2335 C2341 0.950 . S
H2336 C2342 0.949 . S
C2337 H2332 0.950 . S
C2337 C2339 1.327 . S
C2337 C2343 1.429 . S
C2338 C2330 1.574 . S
C2338 H2333 0.949 . S
C2338 C2344 1.368 . S
C2339 C2323 1.349 . S
C2339 H2331 0.950 . S
C2339 C2337 1.327 . S
C2340 C2328 1.349 . S
C2340 H2334 0.950 . S
C2340 C2341 1.327 . S
C2341 H2335 0.950 . S
C2341 C2340 1.327 . S
C2341 C2345 1.429 . S
C2342 C2325 1.574 . S
C2342 H2336 0.949 . S
C2342 C2346 1.368 . S
C2343 C2324 1.429 . S
C2343 C2337 1.429 . S
C2343 C2344 1.523 . S
C2344 C2325 1.368 . S
C2344 C2338 1.368 . S
C2344 C2343 1.523 . S
C2345 C2329 1.429 . S
C2345 C2341 1.429 . S
C2345 C2346 1.523 . S
C2346 C2330 1.368 . S
C2346 C2342 1.368 . S
C2346 C2345 1.523 . S
H2347 C2322 0.950 . S
H2348 C2324 0.950 . S
H2349 C2325 0.949 . S
H2350 C2327 0.950 . S
H2351 C2329 0.950 . S
C2352 C2353 1.349 . S
C2352 C2354 1.327 . S
C2352 H2377 0.950 . S
C2353 C2352 1.349 . S
C2353 C2369 1.349 . S
C2354 C2352 1.327 . S
C2354 C2373 1.429 . S
C2354 H2378 0.950 . S
C2355 C2372 1.574 . S
C2355 C2374 1.368 . S
C2355 H2379 0.949 . S
H2356 C2360 0.949 . S
C2357 C2358 1.349 . S
C2357 C2359 1.327 . S
C2357 H2380 0.950 . S
C2358 C2357 1.349 . S
C2358 C2370 1.349 . S
C2359 C2357 1.327 . S
C2359 C2375 1.429 . S
C2359 H2381 0.950 . S
C2360 H2356 0.949 . S
C2360 C2368 1.574 . S
C2360 C2376 1.368 . S
H2361 C2369 0.950 . S
H2362 C2367 0.950 . S
H2363 C2368 0.949 . S
H2364 C2370 0.950 . S
H2365 C2371 0.950 . S
H2366 C2372 0.949 . S
C2367 H2362 0.950 . S
C2367 C2369 1.327 . S
C2367 C2373 1.429 . S
C2368 C2360 1.574 . S
C2368 H2363 0.949 . S
C2368 C2374 1.368 . S
C2369 C2353 1.349 . S
C2369 H2361 0.950 . S
C2369 C2367 1.327 . S
C2370 C2358 1.349 . S
C2370 H2364 0.950 . S
C2370 C2371 1.327 . S
C2371 H2365 0.950 . S
C2371 C2370 1.327 . S
C2371 C2375 1.429 . S
C2372 C2355 1.574 . S
C2372 H2366 0.949 . S
C2372 C2376 1.368 . S
C2373 C2354 1.429 . S
C2373 C2367 1.429 . S
C2373 C2374 1.523 . S
C2374 C2355 1.368 . S
C2374 C2368 1.368 . S
C2374 C2373 1.523 . S
C2375 C2359 1.429 . S
C2375 C2371 1.429 . S
C2375 C2376 1.523 . S
C2376 C2360 1.368 . S
C2376 C2372 1.368 . S
C2376 C2375 1.523 . S
H2377 C2352 0.950 . S
H2378 C2354 0.950 . S
H2379 C2355 0.949 . S
H2380 C2357 0.950 . S
H2381 C2359 0.950 . S
C2382 C2383 1.349 . S
C2382 C2384 1.327 . S
C2382 H2407 0.950 . S
C2383 C2382 1.349 . S
C2383 C2399 1.349 . S
C2384 C2382 1.327 . S
C2384 C2403 1.429 . S
C2384 H2408 0.950 . S
C2385 C2402 1.574 . S
C2385 C2404 1.368 . S
C2385 H2409 0.949 . S
H2386 C2390 0.949 . S
C2387 C2388 1.349 . S
C2387 C2389 1.327 . S
C2387 H2410 0.950 . S
C2388 C2387 1.349 . S
C2388 C2400 1.349 . S
C2389 C2387 1.327 . S
C2389 C2405 1.429 . S
C2389 H2411 0.950 . S
C2390 H2386 0.949 . S
C2390 C2398 1.574 . S
C2390 C2406 1.368 . S
H2391 C2399 0.950 . S
H2392 C2397 0.950 . S
H2393 C2398 0.949 . S
H2394 C2400 0.950 . S
H2395 C2401 0.950 . S
H2396 C2402 0.949 . S
C2397 H2392 0.950 . S
C2397 C2399 1.327 . S
C2397 C2403 1.429 . S
C2398 C2390 1.574 . S
C2398 H2393 0.949 . S
C2398 C2404 1.368 . S
C2399 C2383 1.349 . S
C2399 H2391 0.950 . S
C2399 C2397 1.327 . S
C2400 C2388 1.349 . S
C2400 H2394 0.950 . S
C2400 C2401 1.327 . S
C2401 H2395 0.950 . S
C2401 C2400 1.327 . S
C2401 C2405 1.429 . S
C2402 C2385 1.574 . S
C2402 H2396 0.949 . S
C2402 C2406 1.368 . S
C2403 C2384 1.429 . S
C2403 C2397 1.429 . S
C2403 C2404 1.523 . S
C2404 C2385 1.368 . S
C2404 C2398 1.368 . S
C2404 C2403 1.523 . S
C2405 C2389 1.429 . S
C2405 C2401 1.429 . S
C2405 C2406 1.523 . S
C2406 C2390 1.368 . S
C2406 C2402 1.368 . S
C2406 C2405 1.523 . S
H2407 C2382 0.950 . S
H2408 C2384 0.950 . S
H2409 C2385 0.949 . S
H2410 C2387 0.950 . S
H2411 C2389 0.950 . S
C2412 C2413 1.349 . S
C2412 C2414 1.327 . S
C2412 H2437 0.950 . S
C2413 C2412 1.349 . S
C2413 C2429 1.349 . S
C2414 C2412 1.327 . S
C2414 C2433 1.429 . S
C2414 H2438 0.950 . S
C2415 C2432 1.574 . S
C2415 C2434 1.368 . S
C2415 H2439 0.949 . S
H2416 C2420 0.949 . S
C2417 C2418 1.349 . S
C2417 C2419 1.327 . S
C2417 H2440 0.950 . S
C2418 C2417 1.349 . S
C2418 C2430 1.349 . S
C2419 C2417 1.327 . S
C2419 C2435 1.429 . S
C2419 H2441 0.950 . S
C2420 H2416 0.949 . S
C2420 C2428 1.574 . S
C2420 C2436 1.368 . S
H2421 C2429 0.950 . S
H2422 C2427 0.950 . S
H2423 C2428 0.949 . S
H2424 C2430 0.950 . S
H2425 C2431 0.950 . S
H2426 C2432 0.949 . S
C2427 H2422 0.950 . S
C2427 C2429 1.327 . S
C2427 C2433 1.429 . S
C2428 C2420 1.574 . S
C2428 H2423 0.949 . S
C2428 C2434 1.368 . S
C2429 C2413 1.349 . S
C2429 H2421 0.950 . S
C2429 C2427 1.327 . S
C2430 C2418 1.349 . S
C2430 H2424 0.950 . S
C2430 C2431 1.327 . S
C2431 H2425 0.950 . S
C2431 C2430 1.327 . S
C2431 C2435 1.429 . S
C2432 C2415 1.574 . S
C2432 H2426 0.949 . S
C2432 C2436 1.368 . S
C2433 C2414 1.429 . S
C2433 C2427 1.429 . S
C2433 C2434 1.523 . S
C2434 C2415 1.368 . S
C2434 C2428 1.368 . S
C2434 C2433 1.523 . S
C2435 C2419 1.429 . S
C2435 C2431 1.429 . S
C2435 C2436 1.523 . S
C2436 C2420 1.368 . S
C2436 C2432 1.368 . S
C2436 C2435 1.523 . S
H2437 C2412 0.950 . S
H2438 C2414 0.950 . S
H2439 C2415 0.949 . S
H2440 C2417 0.950 . S
H2441 C2419 0.950 . S
C2442 C2443 1.349 . S
C2442 C2444 1.327 . S
C2442 H2467 0.950 . S
C2443 C2442 1.349 . S
C2443 C2459 1.349 . S
C2444 C2442 1.327 . S
C2444 C2463 1.429 . S
C2444 H2468 0.950 . S
C2445 C2462 1.574 . S
C2445 C2464 1.368 . S
C2445 H2469 0.949 . S
H2446 C2450 0.949 . S
C2447 C2448 1.349 . S
C2447 C2449 1.327 . S
C2447 H2470 0.950 . S
C2448 C2447 1.349 . S
C2448 C2460 1.349 . S
C2449 C2447 1.327 . S
C2449 C2465 1.429 . S
C2449 H2471 0.950 . S
C2450 H2446 0.949 . S
C2450 C2458 1.574 . S
C2450 C2466 1.368 . S
H2451 C2459 0.950 . S
H2452 C2457 0.950 . S
H2453 C2458 0.949 . S
H2454 C2460 0.950 . S
H2455 C2461 0.950 . S
H2456 C2462 0.949 . S
C2457 H2452 0.950 . S
C2457 C2459 1.327 . S
C2457 C2463 1.429 . S
C2458 C2450 1.574 . S
C2458 H2453 0.949 . S
C2458 C2464 1.368 . S
C2459 C2443 1.349 . S
C2459 H2451 0.950 . S
C2459 C2457 1.327 . S
C2460 C2448 1.349 . S
C2460 H2454 0.950 . S
C2460 C2461 1.327 . S
C2461 H2455 0.950 . S
C2461 C2460 1.327 . S
C2461 C2465 1.429 . S
C2462 C2445 1.574 . S
C2462 H2456 0.949 . S
C2462 C2466 1.368 . S
C2463 C2444 1.429 . S
C2463 C2457 1.429 . S
C2463 C2464 1.523 . S
C2464 C2445 1.368 . S
C2464 C2458 1.368 . S
C2464 C2463 1.523 . S
C2465 C2449 1.429 . S
C2465 C2461 1.429 . S
C2465 C2466 1.523 . S
C2466 C2450 1.368 . S
C2466 C2462 1.368 . S
C2466 C2465 1.523 . S
H2467 C2442 0.950 . S
H2468 C2444 0.950 . S
H2469 C2445 0.949 . S
H2470 C2447 0.950 . S
H2471 C2449 0.950 . S
C2472 C2473 1.349 . S
C2472 C2474 1.327 . S
C2472 H2497 0.950 . S
C2473 C2472 1.349 . S
C2473 C2489 1.349 . S
C2474 C2472 1.327 . S
C2474 C2493 1.429 . S
C2474 H2498 0.950 . S
C2475 C2492 1.574 . S
C2475 C2494 1.368 . S
C2475 H2499 0.949 . S
H2476 C2480 0.949 . S
C2477 C2478 1.349 . S
C2477 C2479 1.327 . S
C2477 H2500 0.950 . S
C2478 C2477 1.349 . S
C2478 C2490 1.349 . S
C2479 C2477 1.327 . S
C2479 C2495 1.429 . S
C2479 H2501 0.950 . S
C2480 H2476 0.949 . S
C2480 C2488 1.574 . S
C2480 C2496 1.368 . S
H2481 C2489 0.950 . S
H2482 C2487 0.950 . S
H2483 C2488 0.949 . S
H2484 C2490 0.950 . S
H2485 C2491 0.950 . S
H2486 C2492 0.949 . S
C2487 H2482 0.950 . S
C2487 C2489 1.327 . S
C2487 C2493 1.429 . S
C2488 C2480 1.574 . S
C2488 H2483 0.949 . S
C2488 C2494 1.368 . S
C2489 C2473 1.349 . S
C2489 H2481 0.950 . S
C2489 C2487 1.327 . S
C2490 C2478 1.349 . S
C2490 H2484 0.950 . S
C2490 C2491 1.327 . S
C2491 H2485 0.950 . S
C2491 C2490 1.327 . S
C2491 C2495 1.429 . S
C2492 C2475 1.574 . S
C2492 H2486 0.949 . S
C2492 C2496 1.368 . S
C2493 C2474 1.429 . S
C2493 C2487 1.429 . S
C2493 C2494 1.523 . S
C2494 C2475 1.368 . S
C2494 C2488 1.368 . S
C2494 C2493 1.523 . S
C2495 C2479 1.429 . S
C2495 C2491 1.429 . S
C2495 C2496 1.523 . S
C2496 C2480 1.368 . S
C2496 C2492 1.368 . S
C2496 C2495 1.523 . S
H2497 C2472 0.950 . S
H2498 C2474 0.950 . S
H2499 C2475 0.949 . S
H2500 C2477 0.950 . S
H2501 C2479 0.950 . S
C2502 C2503 1.349 . S
C2502 C2504 1.327 . S
C2502 H2527 0.950 . S
C2503 C2502 1.349 . S
C2503 C2519 1.349 . S
C2504 C2502 1.327 . S
C2504 C2523 1.429 . S
C2504 H2528 0.950 . S
C2505 C2522 1.574 . S
C2505 C2524 1.368 . S
C2505 H2529 0.949 . S
H2506 C2510 0.949 . S
C2507 C2508 1.349 . S
C2507 C2509 1.327 . S
C2507 H2530 0.950 . S
C2508 C2507 1.349 . S
C2508 C2520 1.349 . S
C2509 C2507 1.327 . S
C2509 C2525 1.429 . S
C2509 H2531 0.950 . S
C2510 H2506 0.949 . S
C2510 C2518 1.574 . S
C2510 C2526 1.368 . S
H2511 C2519 0.950 . S
H2512 C2517 0.950 . S
H2513 C2518 0.949 . S
H2514 C2520 0.950 . S
H2515 C2521 0.950 . S
H2516 C2522 0.949 . S
C2517 H2512 0.950 . S
C2517 C2519 1.327 . S
C2517 C2523 1.429 . S
C2518 C2510 1.574 . S
C2518 H2513 0.949 . S
C2518 C2524 1.368 . S
C2519 C2503 1.349 . S
C2519 H2511 0.950 . S
C2519 C2517 1.327 . S
C2520 C2508 1.349 . S
C2520 H2514 0.950 . S
C2520 C2521 1.327 . S
C2521 H2515 0.950 . S
C2521 C2520 1.327 . S
C2521 C2525 1.429 . S
C2522 C2505 1.574 . S
C2522 H2516 0.949 . S
C2522 C2526 1.368 . S
C2523 C2504 1.429 . S
C2523 C2517 1.429 . S
C2523 C2524 1.523 . S
C2524 C2505 1.368 . S
C2524 C2518 1.368 . S
C2524 C2523 1.523 . S
C2525 C2509 1.429 . S
C2525 C2521 1.429 . S
C2525 C2526 1.523 . S
C2526 C2510 1.368 . S
C2526 C2522 1.368 . S
C2526 C2525 1.523 . S
H2527 C2502 0.950 . S
H2528 C2504 0.950 . S
H2529 C2505 0.949 . S
H2530 C2507 0.950 . S
H2531 C2509 0.950 . S
C2532 C2533 1.349 . S
C2532 C2534 1.327 . S
C2532 H2557 0.950 . S
C2533 C2532 1.349 . S
C2533 C2549 1.349 . S
C2534 C2532 1.327 . S
C2534 C2553 1.429 . S
C2534 H2558 0.950 . S
C2535 C2552 1.574 . S
C2535 C2554 1.368 . S
C2535 H2559 0.949 . S
H2536 C2540 0.949 . S
C2537 C2538 1.349 . S
C2537 C2539 1.327 . S
C2537 H2560 0.950 . S
C2538 C2537 1.349 . S
C2538 C2550 1.349 . S
C2539 C2537 1.327 . S
C2539 C2555 1.429 . S
C2539 H2561 0.950 . S
C2540 H2536 0.949 . S
C2540 C2548 1.574 . S
C2540 C2556 1.368 . S
H2541 C2549 0.950 . S
H2542 C2547 0.950 . S
H2543 C2548 0.949 . S
H2544 C2550 0.950 . S
H2545 C2551 0.950 . S
H2546 C2552 0.949 . S
C2547 H2542 0.950 . S
C2547 C2549 1.327 . S
C2547 C2553 1.429 . S
C2548 C2540 1.574 . S
C2548 H2543 0.949 . S
C2548 C2554 1.368 . S
C2549 C2533 1.349 . S
C2549 H2541 0.950 . S
C2549 C2547 1.327 . S
C2550 C2538 1.349 . S
C2550 H2544 0.950 . S
C2550 C2551 1.327 . S
C2551 H2545 0.950 . S
C2551 C2550 1.327 . S
C2551 C2555 1.429 . S
C2552 C2535 1.574 . S
C2552 H2546 0.949 . S
C2552 C2556 1.368 . S
C2553 C2534 1.429 . S
C2553 C2547 1.429 . S
C2553 C2554 1.523 . S
C2554 C2535 1.368 . S
C2554 C2548 1.368 . S
C2554 C2553 1.523 . S
C2555 C2539 1.429 . S
C2555 C2551 1.429 . S
C2555 C2556 1.523 . S
C2556 C2540 1.368 . S
C2556 C2552 1.368 . S
C2556 C2555 1.523 . S
H2557 C2532 0.950 . S
H2558 C2534 0.950 . S
H2559 C2535 0.949 . S
H2560 C2537 0.950 . S
H2561 C2539 0.950 . S
C2562 C2563 1.349 . S
C2562 C2564 1.327 . S
C2562 H2587 0.950 . S
C2563 C2562 1.349 . S
C2563 C2579 1.349 . S
C2564 C2562 1.327 . S
C2564 C2583 1.429 . S
C2564 H2588 0.950 . S
C2565 C2582 1.574 . S
C2565 C2584 1.368 . S
C2565 H2589 0.949 . S
H2566 C2570 0.949 . S
C2567 C2568 1.349 . S
C2567 C2569 1.327 . S
C2567 H2590 0.950 . S
C2568 C2567 1.349 . S
C2568 C2580 1.349 . S
C2569 C2567 1.327 . S
C2569 C2585 1.429 . S
C2569 H2591 0.950 . S
C2570 H2566 0.949 . S
C2570 C2578 1.574 . S
C2570 C2586 1.368 . S
H2571 C2579 0.950 . S
H2572 C2577 0.950 . S
H2573 C2578 0.949 . S
H2574 C2580 0.950 . S
H2575 C2581 0.950 . S
H2576 C2582 0.949 . S
C2577 H2572 0.950 . S
C2577 C2579 1.327 . S
C2577 C2583 1.429 . S
C2578 C2570 1.574 . S
C2578 H2573 0.949 . S
C2578 C2584 1.368 . S
C2579 C2563 1.349 . S
C2579 H2571 0.950 . S
C2579 C2577 1.327 . S
C2580 C2568 1.349 . S
C2580 H2574 0.950 . S
C2580 C2581 1.327 . S
C2581 H2575 0.950 . S
C2581 C2580 1.327 . S
C2581 C2585 1.429 . S
C2582 C2565 1.574 . S
C2582 H2576 0.949 . S
C2582 C2586 1.368 . S
C2583 C2564 1.429 . S
C2583 C2577 1.429 . S
C2583 C2584 1.523 . S
C2584 C2565 1.368 . S
C2584 C2578 1.368 . S
C2584 C2583 1.523 . S
C2585 C2569 1.429 . S
C2585 C2581 1.429 . S
C2585 C2586 1.523 . S
C2586 C2570 1.368 . S
C2586 C2582 1.368 . S
C2586 C2585 1.523 . S
H2587 C2562 0.950 . S
H2588 C2564 0.950 . S
H2589 C2565 0.949 . S
H2590 C2567 0.950 . S
H2591 C2569 0.950 . S
C2592 C2593 1.349 . S
C2592 C2594 1.327 . S
C2592 H2617 0.950 . S
C2593 C2592 1.349 . S
C2593 C2609 1.349 . S
C2594 C2592 1.327 . S
C2594 C2613 1.429 . S
C2594 H2618 0.950 . S
C2595 C2612 1.574 . S
C2595 C2614 1.368 . S
C2595 H2619 0.949 . S
H2596 C2600 0.949 . S
C2597 C2598 1.349 . S
C2597 C2599 1.327 . S
C2597 H2620 0.950 . S
C2598 C2597 1.349 . S
C2598 C2610 1.349 . S
C2599 C2597 1.327 . S
C2599 C2615 1.429 . S
C2599 H2621 0.950 . S
C2600 H2596 0.949 . S
C2600 C2608 1.574 . S
C2600 C2616 1.368 . S
H2601 C2609 0.950 . S
H2602 C2607 0.950 . S
H2603 C2608 0.949 . S
H2604 C2610 0.950 . S
H2605 C2611 0.950 . S
H2606 C2612 0.949 . S
C2607 H2602 0.950 . S
C2607 C2609 1.327 . S
C2607 C2613 1.429 . S
C2608 C2600 1.574 . S
C2608 H2603 0.949 . S
C2608 C2614 1.368 . S
C2609 C2593 1.349 . S
C2609 H2601 0.950 . S
C2609 C2607 1.327 . S
C2610 C2598 1.349 . S
C2610 H2604 0.950 . S
C2610 C2611 1.327 . S
C2611 H2605 0.950 . S
C2611 C2610 1.327 . S
C2611 C2615 1.429 . S
C2612 C2595 1.574 . S
C2612 H2606 0.949 . S
C2612 C2616 1.368 . S
C2613 C2594 1.429 . S
C2613 C2607 1.429 . S
C2613 C2614 1.523 . S
C2614 C2595 1.368 . S
C2614 C2608 1.368 . S
C2614 C2613 1.523 . S
C2615 C2599 1.429 . S
C2615 C2611 1.429 . S
C2615 C2616 1.523 . S
C2616 C2600 1.368 . S
C2616 C2612 1.368 . S
C2616 C2615 1.523 . S
H2617 C2592 0.950 . S
H2618 C2594 0.950 . S
H2619 C2595 0.949 . S
H2620 C2597 0.950 . S
H2621 C2599 0.950 . S
C2622 C2623 1.349 . S
C2622 C2624 1.327 . S
C2622 H2647 0.950 . S
C2623 C2622 1.349 . S
C2623 C2639 1.349 . S
C2624 C2622 1.327 . S
C2624 C2643 1.429 . S
C2624 H2648 0.950 . S
C2625 C2642 1.574 . S
C2625 C2644 1.368 . S
C2625 H2649 0.949 . S
H2626 C2630 0.949 . S
C2627 C2628 1.349 . S
C2627 C2629 1.327 . S
C2627 H2650 0.950 . S
C2628 C2627 1.349 . S
C2628 C2640 1.349 . S
C2629 C2627 1.327 . S
C2629 C2645 1.429 . S
C2629 H2651 0.950 . S
C2630 H2626 0.949 . S
C2630 C2638 1.574 . S
C2630 C2646 1.368 . S
H2631 C2639 0.950 . S
H2632 C2637 0.950 . S
H2633 C2638 0.949 . S
H2634 C2640 0.950 . S
H2635 C2641 0.950 . S
H2636 C2642 0.949 . S
C2637 H2632 0.950 . S
C2637 C2639 1.327 . S
C2637 C2643 1.429 . S
C2638 C2630 1.574 . S
C2638 H2633 0.949 . S
C2638 C2644 1.368 . S
C2639 C2623 1.349 . S
C2639 H2631 0.950 . S
C2639 C2637 1.327 . S
C2640 C2628 1.349 . S
C2640 H2634 0.950 . S
C2640 C2641 1.327 . S
C2641 H2635 0.950 . S
C2641 C2640 1.327 . S
C2641 C2645 1.429 . S
C2642 C2625 1.574 . S
C2642 H2636 0.949 . S
C2642 C2646 1.368 . S
C2643 C2624 1.429 . S
C2643 C2637 1.429 . S
C2643 C2644 1.523 . S
C2644 C2625 1.368 . S
C2644 C2638 1.368 . S
C2644 C2643 1.523 . S
C2645 C2629 1.429 . S
C2645 C2641 1.429 . S
C2645 C2646 1.523 . S
C2646 C2630 1.368 . S
C2646 C2642 1.368 . S
C2646 C2645 1.523 . S
H2647 C2622 0.950 . S
H2648 C2624 0.950 . S
H2649 C2625 0.949 . S
H2650 C2627 0.950 . S
H2651 C2629 0.950 . S
C2652 C2653 1.349 . S
C2652 C2654 1.327 . S
C2652 H2677 0.950 . S
C2653 C2652 1.349 . S
C2653 C2669 1.349 . S
C2654 C2652 1.327 . S
C2654 C2673 1.429 . S
C2654 H2678 0.950 . S
C2655 C2672 1.574 . S
C2655 C2674 1.368 . S
C2655 H2679 0.949 . S
H2656 C2660 0.949 . S
C2657 C2658 1.349 . S
C2657 C2659 1.327 . S
C2657 H2680 0.950 . S
C2658 C2657 1.349 . S
C2658 C2670 1.349 . S
C2659 C2657 1.327 . S
C2659 C2675 1.429 . S
C2659 H2681 0.950 . S
C2660 H2656 0.949 . S
C2660 C2668 1.574 . S
C2660 C2676 1.368 . S
H2661 C2669 0.950 . S
H2662 C2667 0.950 . S
H2663 C2668 0.949 . S
H2664 C2670 0.950 . S
H2665 C2671 0.950 . S
H2666 C2672 0.949 . S
C2667 H2662 0.950 . S
C2667 C2669 1.327 . S
C2667 C2673 1.429 . S
C2668 C2660 1.574 . S
C2668 H2663 0.949 . S
C2668 C2674 1.368 . S
C2669 C2653 1.349 . S
C2669 H2661 0.950 . S
C2669 C2667 1.327 . S
C2670 C2658 1.349 . S
C2670 H2664 0.950 . S
C2670 C2671 1.327 . S
C2671 H2665 0.950 . S
C2671 C2670 1.327 . S
C2671 C2675 1.429 . S
C2672 C2655 1.574 . S
C2672 H2666 0.949 . S
C2672 C2676 1.368 . S
C2673 C2654 1.429 . S
C2673 C2667 1.429 . S
C2673 C2674 1.523 . S
C2674 C2655 1.368 . S
C2674 C2668 1.368 . S
C2674 C2673 1.523 . S
C2675 C2659 1.429 . S
C2675 C2671 1.429 . S
C2675 C2676 1.523 . S
C2676 C2660 1.368 . S
C2676 C2672 1.368 . S
C2676 C2675 1.523 . S
H2677 C2652 0.950 . S
H2678 C2654 0.950 . S
H2679 C2655 0.949 . S
H2680 C2657 0.950 . S
H2681 C2659 0.950 . S
C2682 C2683 1.349 . S
C2682 C2684 1.327 . S
C2682 H2707 0.950 . S
C2683 C2682 1.349 . S
C2683 C2699 1.349 . S
C2684 C2682 1.327 . S
C2684 C2703 1.429 . S
C2684 H2708 0.950 . S
C2685 C2702 1.574 . S
C2685 C2704 1.368 . S
C2685 H2709 0.949 . S
H2686 C2690 0.949 . S
C2687 C2688 1.349 . S
C2687 C2689 1.327 . S
C2687 H2710 0.950 . S
C2688 C2687 1.349 . S
C2688 C2700 1.349 . S
C2689 C2687 1.327 . S
C2689 C2705 1.429 . S
C2689 H2711 0.950 . S
C2690 H2686 0.949 . S
C2690 C2698 1.574 . S
C2690 C2706 1.368 . S
H2691 C2699 0.950 . S
H2692 C2697 0.950 . S
H2693 C2698 0.949 . S
H2694 C2700 0.950 . S
H2695 C2701 0.950 . S
H2696 C2702 0.949 . S
C2697 H2692 0.950 . S
C2697 C2699 1.327 . S
C2697 C2703 1.429 . S
C2698 C2690 1.574 . S
C2698 H2693 0.949 . S
C2698 C2704 1.368 . S
C2699 C2683 1.349 . S
C2699 H2691 0.950 . S
C2699 C2697 1.327 . S
C2700 C2688 1.349 . S
C2700 H2694 0.950 . S
C2700 C2701 1.327 . S
C2701 H2695 0.950 . S
C2701 C2700 1.327 . S
C2701 C2705 1.429 . S
C2702 C2685 1.574 . S
C2702 H2696 0.949 . S
C2702 C2706 1.368 . S
C2703 C2684 1.429 . S
C2703 C2697 1.429 . S
C2703 C2704 1.523 . S
C2704 C2685 1.368 . S
C2704 C2698 1.368 . S
C2704 C2703 1.523 . S
C2705 C2689 1.429 . S
C2705 C2701 1.429 . S
C2705 C2706 1.523 . S
C2706 C2690 1.368 . S
C2706 C2702 1.368 . S
C2706 C2705 1.523 . S
H2707 C2682 0.950 . S
H2708 C2684 0.950 . S
H2709 C2685 0.949 . S
H2710 C2687 0.950 . S
H2711 C2689 0.950 . S
C2712 C2713 1.349 . S
C2712 C2714 1.327 . S
C2712 H2737 0.950 . S
C2713 C2712 1.349 . S
C2713 C2729 1.349 . S
C2714 C2712 1.327 . S
C2714 C2733 1.429 . S
C2714 H2738 0.950 . S
C2715 C2732 1.574 . S
C2715 C2734 1.368 . S
C2715 H2739 0.949 . S
H2716 C2720 0.949 . S
C2717 C2718 1.349 . S
C2717 C2719 1.327 . S
C2717 H2740 0.950 . S
C2718 C2717 1.349 . S
C2718 C2730 1.349 . S
C2719 C2717 1.327 . S
C2719 C2735 1.429 . S
C2719 H2741 0.950 . S
C2720 H2716 0.949 . S
C2720 C2728 1.574 . S
C2720 C2736 1.368 . S
H2721 C2729 0.950 . S
H2722 C2727 0.950 . S
H2723 C2728 0.949 . S
H2724 C2730 0.950 . S
H2725 C2731 0.950 . S
H2726 C2732 0.949 . S
C2727 H2722 0.950 . S
C2727 C2729 1.327 . S
C2727 C2733 1.429 . S
C2728 C2720 1.574 . S
C2728 H2723 0.949 . S
C2728 C2734 1.368 . S
C2729 C2713 1.349 . S
C2729 H2721 0.950 . S
C2729 C2727 1.327 . S
C2730 C2718 1.349 . S
C2730 H2724 0.950 . S
C2730 C2731 1.327 . S
C2731 H2725 0.950 . S
C2731 C2730 1.327 . S
C2731 C2735 1.429 . S
C2732 C2715 1.574 . S
C2732 H2726 0.949 . S
C2732 C2736 1.368 . S
C2733 C2714 1.429 . S
C2733 C2727 1.429 . S
C2733 C2734 1.523 . S
C2734 C2715 1.368 . S
C2734 C2728 1.368 . S
C2734 C2733 1.523 . S
C2735 C2719 1.429 . S
C2735 C2731 1.429 . S
C2735 C2736 1.523 . S
C2736 C2720 1.368 . S
C2736 C2732 1.368 . S
C2736 C2735 1.523 . S
H2737 C2712 0.950 . S
H2738 C2714 0.950 . S
H2739 C2715 0.949 . S
H2740 C2717 0.950 . S
H2741 C2719 0.950 . S
C2742 C2743 1.349 . S
C2742 C2744 1.327 . S
C2742 H2767 0.950 . S
C2743 C2742 1.349 . S
C2743 C2759 1.349 . S
C2744 C2742 1.327 . S
C2744 C2763 1.429 . S
C2744 H2768 0.950 . S
C2745 C2762 1.574 . S
C2745 C2764 1.368 . S
C2745 H2769 0.949 . S
H2746 C2750 0.949 . S
C2747 C2748 1.349 . S
C2747 C2749 1.327 . S
C2747 H2770 0.950 . S
C2748 C2747 1.349 . S
C2748 C2760 1.349 . S
C2749 C2747 1.327 . S
C2749 C2765 1.429 . S
C2749 H2771 0.950 . S
C2750 H2746 0.949 . S
C2750 C2758 1.574 . S
C2750 C2766 1.368 . S
H2751 C2759 0.950 . S
H2752 C2757 0.950 . S
H2753 C2758 0.949 . S
H2754 C2760 0.950 . S
H2755 C2761 0.950 . S
H2756 C2762 0.949 . S
C2757 H2752 0.950 . S
C2757 C2759 1.327 . S
C2757 C2763 1.429 . S
C2758 C2750 1.574 . S
C2758 H2753 0.949 . S
C2758 C2764 1.368 . S
C2759 C2743 1.349 . S
C2759 H2751 0.950 . S
C2759 C2757 1.327 . S
C2760 C2748 1.349 . S
C2760 H2754 0.950 . S
C2760 C2761 1.327 . S
C2761 H2755 0.950 . S
C2761 C2760 1.327 . S
C2761 C2765 1.429 . S
C2762 C2745 1.574 . S
C2762 H2756 0.949 . S
C2762 C2766 1.368 . S
C2763 C2744 1.429 . S
C2763 C2757 1.429 . S
C2763 C2764 1.523 . S
C2764 C2745 1.368 . S
C2764 C2758 1.368 . S
C2764 C2763 1.523 . S
C2765 C2749 1.429 . S
C2765 C2761 1.429 . S
C2765 C2766 1.523 . S
C2766 C2750 1.368 . S
C2766 C2762 1.368 . S
C2766 C2765 1.523 . S
H2767 C2742 0.950 . S
H2768 C2744 0.950 . S
H2769 C2745 0.949 . S
H2770 C2747 0.950 . S
H2771 C2749 0.950 . S
C2772 C2773 1.349 . S
C2772 C2774 1.327 . S
C2772 H2797 0.950 . S
C2773 C2772 1.349 . S
C2773 C2789 1.349 . S
C2774 C2772 1.327 . S
C2774 C2793 1.429 . S
C2774 H2798 0.950 . S
C2775 C2792 1.574 . S
C2775 C2794 1.368 . S
C2775 H2799 0.949 . S
H2776 C2780 0.949 . S
C2777 C2778 1.349 . S
C2777 C2779 1.327 . S
C2777 H2800 0.950 . S
C2778 C2777 1.349 . S
C2778 C2790 1.349 . S
C2779 C2777 1.327 . S
C2779 C2795 1.429 . S
C2779 H2801 0.950 . S
C2780 H2776 0.949 . S
C2780 C2788 1.574 . S
C2780 C2796 1.368 . S
H2781 C2789 0.950 . S
H2782 C2787 0.950 . S
H2783 C2788 0.949 . S
H2784 C2790 0.950 . S
H2785 C2791 0.950 . S
H2786 C2792 0.949 . S
C2787 H2782 0.950 . S
C2787 C2789 1.327 . S
C2787 C2793 1.429 . S
C2788 C2780 1.574 . S
C2788 H2783 0.949 . S
C2788 C2794 1.368 . S
C2789 C2773 1.349 . S
C2789 H2781 0.950 . S
C2789 C2787 1.327 . S
C2790 C2778 1.349 . S
C2790 H2784 0.950 . S
C2790 C2791 1.327 . S
C2791 H2785 0.950 . S
C2791 C2790 1.327 . S
C2791 C2795 1.429 . S
C2792 C2775 1.574 . S
C2792 H2786 0.949 . S
C2792 C2796 1.368 . S
C2793 C2774 1.429 . S
C2793 C2787 1.429 . S
C2793 C2794 1.523 . S
C2794 C2775 1.368 . S
C2794 C2788 1.368 . S
C2794 C2793 1.523 . S
C2795 C2779 1.429 . S
C2795 C2791 1.429 . S
C2795 C2796 1.523 . S
C2796 C2780 1.368 . S
C2796 C2792 1.368 . S
C2796 C2795 1.523 . S
H2797 C2772 0.950 . S
H2798 C2774 0.950 . S
H2799 C2775 0.949 . S
H2800 C2777 0.950 . S
H2801 C2779 0.950 . S
C2802 C2803 1.349 . S
C2802 C2804 1.327 . S
C2802 H2827 0.950 . S
C2803 C2802 1.349 . S
C2803 C2819 1.349 . S
C2804 C2802 1.327 . S
C2804 C2823 1.429 . S
C2804 H2828 0.950 . S
C2805 C2822 1.574 . S
C2805 C2824 1.368 . S
C2805 H2829 0.949 . S
H2806 C2810 0.949 . S
C2807 C2808 1.349 . S
C2807 C2809 1.327 . S
C2807 H2830 0.950 . S
C2808 C2807 1.349 . S
C2808 C2820 1.349 . S
C2809 C2807 1.327 . S
C2809 C2825 1.429 . S
C2809 H2831 0.950 . S
C2810 H2806 0.949 . S
C2810 C2818 1.574 . S
C2810 C2826 1.368 . S
H2811 C2819 0.950 . S
H2812 C2817 0.950 . S
H2813 C2818 0.949 . S
H2814 C2820 0.950 . S
H2815 C2821 0.950 . S
H2816 C2822 0.949 . S
C2817 H2812 0.950 . S
C2817 C2819 1.327 . S
C2817 C2823 1.429 . S
C2818 C2810 1.574 . S
C2818 H2813 0.949 . S
C2818 C2824 1.368 . S
C2819 C2803 1.349 . S
C2819 H2811 0.950 . S
C2819 C2817 1.327 . S
C2820 C2808 1.349 . S
C2820 H2814 0.950 . S
C2820 C2821 1.327 . S
C2821 H2815 0.950 . S
C2821 C2820 1.327 . S
C2821 C2825 1.429 . S
C2822 C2805 1.574 . S
C2822 H2816 0.949 . S
C2822 C2826 1.368 . S
C2823 C2804 1.429 . S
C2823 C2817 1.429 . S
C2823 C2824 1.523 . S
C2824 C2805 1.368 . S
C2824 C2818 1.368 . S
C2824 C2823 1.523 . S
C2825 C2809 1.429 . S
C2825 C2821 1.429 . S
C2825 C2826 1.523 . S
C2826 C2810 1.368 . S
C2826 C2822 1.368 . S
C2826 C2825 1.523 . S
H2827 C2802 0.950 . S
H2828 C2804 0.950 . S
H2829 C2805 0.949 . S
H2830 C2807 0.950 . S
H2831 C2809 0.950 . S
C2832 C2833 1.349 . S
C2832 C2834 1.327 . S
C2832 H2857 0.950 . S
C2833 C2832 1.349 . S
C2833 C2849 1.349 . S
C2834 C2832 1.327 . S
C2834 C2853 1.429 . S
C2834 H2858 0.950 . S
C2835 C2852 1.574 1_554 S
C2835 C2854 1.368 . S
C2835 H2859 0.949 . S
H2836 C2840 0.949 . S
C2837 C2838 1.349 . S
C2837 C2839 1.327 . S
C2837 H2860 0.950 . S
C2838 C2837 1.349 . S
C2838 C2850 1.349 . S
C2839 C2837 1.327 . S
C2839 C2855 1.429 . S
C2839 H2861 0.950 . S
C2840 H2836 0.949 . S
C2840 C2848 1.574 1_556 S
C2840 C2856 1.368 . S
H2841 C2849 0.950 . S
H2842 C2847 0.950 . S
H2843 C2848 0.949 . S
H2844 C2850 0.950 . S
H2845 C2851 0.950 . S
H2846 C2852 0.949 . S
C2847 H2842 0.950 . S
C2847 C2849 1.327 . S
C2847 C2853 1.429 . S
C2848 C2840 1.574 1_554 S
C2848 H2843 0.949 . S
C2848 C2854 1.368 . S
C2849 C2833 1.349 . S
C2849 H2841 0.950 . S
C2849 C2847 1.327 . S
C2850 C2838 1.349 . S
C2850 H2844 0.950 . S
C2850 C2851 1.327 . S
C2851 H2845 0.950 . S
C2851 C2850 1.327 . S
C2851 C2855 1.429 . S
C2852 C2835 1.574 1_556 S
C2852 H2846 0.949 . S
C2852 C2856 1.368 . S
C2853 C2834 1.429 . S
C2853 C2847 1.429 . S
C2853 C2854 1.523 . S
C2854 C2835 1.368 . S
C2854 C2848 1.368 . S
C2854 C2853 1.523 . S
C2855 C2839 1.429 . S
C2855 C2851 1.429 . S
C2855 C2856 1.523 . S
C2856 C2840 1.368 . S
C2856 C2852 1.368 . S
C2856 C2855 1.523 . S
H2857 C2832 0.950 . S
H2858 C2834 0.950 . S
H2859 C2835 0.949 . S
H2860 C2837 0.950 . S
H2861 C2839 0.950 . S
C2862 C2863 1.349 . S
C2862 C2864 1.327 . S
C2862 H2887 0.950 . S
C2863 C2862 1.349 . S
C2863 C2879 1.349 . S
C2864 C2862 1.327 . S
C2864 C2883 1.429 . S
C2864 H2888 0.950 . S
C2865 C2882 1.574 1_556 S
C2865 C2884 1.368 . S
C2865 H2889 0.949 . S
H2866 C2870 0.949 . S
C2867 C2868 1.349 . S
C2867 C2869 1.327 . S
C2867 H2890 0.950 . S
C2868 C2867 1.349 . S
C2868 C2880 1.349 . S
C2869 C2867 1.327 . S
C2869 C2885 1.429 . S
C2869 H2891 0.950 . S
C2870 H2866 0.949 . S
C2870 C2878 1.574 1_554 S
C2870 C2886 1.368 . S
H2871 C2879 0.950 . S
H2872 C2877 0.950 . S
H2873 C2878 0.949 . S
H2874 C2880 0.950 . S
H2875 C2881 0.950 . S
H2876 C2882 0.949 . S
C2877 H2872 0.950 . S
C2877 C2879 1.327 . S
C2877 C2883 1.429 . S
C2878 C2870 1.574 1_556 S
C2878 H2873 0.949 . S
C2878 C2884 1.368 . S
C2879 C2863 1.349 . S
C2879 H2871 0.950 . S
C2879 C2877 1.327 . S
C2880 C2868 1.349 . S
C2880 H2874 0.950 . S
C2880 C2881 1.327 . S
C2881 H2875 0.950 . S
C2881 C2880 1.327 . S
C2881 C2885 1.429 . S
C2882 C2865 1.574 1_554 S
C2882 H2876 0.949 . S
C2882 C2886 1.368 . S
C2883 C2864 1.429 . S
C2883 C2877 1.429 . S
C2883 C2884 1.523 . S
C2884 C2865 1.368 . S
C2884 C2878 1.368 . S
C2884 C2883 1.523 . S
C2885 C2869 1.429 . S
C2885 C2881 1.429 . S
C2885 C2886 1.523 . S
C2886 C2870 1.368 . S
C2886 C2882 1.368 . S
C2886 C2885 1.523 . S
H2887 C2862 0.950 . S
H2888 C2864 0.950 . S
H2889 C2865 0.949 . S
H2890 C2867 0.950 . S
H2891 C2869 0.950 . S
C2892 C2893 1.349 . S
C2892 C2894 1.327 . S
C2892 H2917 0.950 . S
C2893 C2892 1.349 . S
C2893 C2909 1.349 . S
C2894 C2892 1.327 . S
C2894 C2913 1.429 . S
C2894 H2918 0.950 . S
C2895 C2912 1.574 1_554 S
C2895 C2914 1.368 . S
C2895 H2919 0.949 . S
H2896 C2900 0.949 . S
C2897 C2898 1.349 . S
C2897 C2899 1.327 . S
C2897 H2920 0.950 . S
C2898 C2897 1.349 . S
C2898 C2910 1.349 . S
C2899 C2897 1.327 . S
C2899 C2915 1.429 . S
C2899 H2921 0.950 . S
C2900 H2896 0.949 . S
C2900 C2908 1.574 1_556 S
C2900 C2916 1.368 . S
H2901 C2909 0.950 . S
H2902 C2907 0.950 . S
H2903 C2908 0.949 . S
H2904 C2910 0.950 . S
H2905 C2911 0.950 . S
H2906 C2912 0.949 . S
C2907 H2902 0.950 . S
C2907 C2909 1.327 . S
C2907 C2913 1.429 . S
C2908 C2900 1.574 1_554 S
C2908 H2903 0.949 . S
C2908 C2914 1.368 . S
C2909 C2893 1.349 . S
C2909 H2901 0.950 . S
C2909 C2907 1.327 . S
C2910 C2898 1.349 . S
C2910 H2904 0.950 . S
C2910 C2911 1.327 . S
C2911 H2905 0.950 . S
C2911 C2910 1.327 . S
C2911 C2915 1.429 . S
C2912 C2895 1.574 1_556 S
C2912 H2906 0.949 . S
C2912 C2916 1.368 . S
C2913 C2894 1.429 . S
C2913 C2907 1.429 . S
C2913 C2914 1.523 . S
C2914 C2895 1.368 . S
C2914 C2908 1.368 . S
C2914 C2913 1.523 . S
C2915 C2899 1.429 . S
C2915 C2911 1.429 . S
C2915 C2916 1.523 . S
C2916 C2900 1.368 . S
C2916 C2912 1.368 . S
C2916 C2915 1.523 . S
H2917 C2892 0.950 . S
H2918 C2894 0.950 . S
H2919 C2895 0.949 . S
H2920 C2897 0.950 . S
H2921 C2899 0.950 . S
C2922 C2923 1.349 . S
C2922 C2924 1.327 . S
C2922 H2947 0.950 . S
C2923 C2922 1.349 . S
C2923 C2939 1.349 . S
C2924 C2922 1.327 . S
C2924 C2943 1.429 . S
C2924 H2948 0.950 . S
C2925 C2942 1.574 1_554 S
C2925 C2944 1.368 . S
C2925 H2949 0.949 . S
H2926 C2930 0.949 . S
C2927 C2928 1.349 . S
C2927 C2929 1.327 . S
C2927 H2950 0.950 . S
C2928 C2927 1.349 . S
C2928 C2940 1.349 . S
C2929 C2927 1.327 . S
C2929 C2945 1.429 . S
C2929 H2951 0.950 . S
C2930 H2926 0.949 . S
C2930 C2938 1.574 1_556 S
C2930 C2946 1.368 . S
H2931 C2939 0.950 . S
H2932 C2937 0.950 . S
H2933 C2938 0.949 . S
H2934 C2940 0.950 . S
H2935 C2941 0.950 . S
H2936 C2942 0.949 . S
C2937 H2932 0.950 . S
C2937 C2939 1.327 . S
C2937 C2943 1.429 . S
C2938 C2930 1.574 1_554 S
C2938 H2933 0.949 . S
C2938 C2944 1.368 . S
C2939 C2923 1.349 . S
C2939 H2931 0.950 . S
C2939 C2937 1.327 . S
C2940 C2928 1.349 . S
C2940 H2934 0.950 . S
C2940 C2941 1.327 . S
C2941 H2935 0.950 . S
C2941 C2940 1.327 . S
C2941 C2945 1.429 . S
C2942 C2925 1.574 1_556 S
C2942 H2936 0.949 . S
C2942 C2946 1.368 . S
C2943 C2924 1.429 . S
C2943 C2937 1.429 . S
C2943 C2944 1.523 . S
C2944 C2925 1.368 . S
C2944 C2938 1.368 . S
C2944 C2943 1.523 . S
C2945 C2929 1.429 . S
C2945 C2941 1.429 . S
C2945 C2946 1.523 . S
C2946 C2930 1.368 . S
C2946 C2942 1.368 . S
C2946 C2945 1.523 . S
H2947 C2922 0.950 . S
H2948 C2924 0.950 . S
H2949 C2925 0.949 . S
H2950 C2927 0.950 . S
H2951 C2929 0.950 . S
C2952 C2953 1.349 . S
C2952 C2954 1.327 . S
C2952 H2977 0.950 . S
C2953 C2952 1.349 . S
C2953 C2969 1.349 . S
C2954 C2952 1.327 . S
C2954 C2973 1.429 . S
C2954 H2978 0.950 . S
C2955 C2972 1.574 1_556 S
C2955 C2974 1.368 . S
C2955 H2979 0.949 . S
H2956 C2960 0.949 . S
C2957 C2958 1.349 . S
C2957 C2959 1.327 . S
C2957 H2980 0.950 . S
C2958 C2957 1.349 . S
C2958 C2970 1.349 . S
C2959 C2957 1.327 . S
C2959 C2975 1.429 . S
C2959 H2981 0.950 . S
C2960 H2956 0.949 . S
C2960 C2968 1.574 1_554 S
C2960 C2976 1.368 . S
H2961 C2969 0.950 . S
H2962 C2967 0.950 . S
H2963 C2968 0.949 . S
H2964 C2970 0.950 . S
H2965 C2971 0.950 . S
H2966 C2972 0.949 . S
C2967 H2962 0.950 . S
C2967 C2969 1.327 . S
C2967 C2973 1.429 . S
C2968 C2960 1.574 1_556 S
C2968 H2963 0.949 . S
C2968 C2974 1.368 . S
C2969 C2953 1.349 . S
C2969 H2961 0.950 . S
C2969 C2967 1.327 . S
C2970 C2958 1.349 . S
C2970 H2964 0.950 . S
C2970 C2971 1.327 . S
C2971 H2965 0.950 . S
C2971 C2970 1.327 . S
C2971 C2975 1.429 . S
C2972 C2955 1.574 1_554 S
C2972 H2966 0.949 . S
C2972 C2976 1.368 . S
C2973 C2954 1.429 . S
C2973 C2967 1.429 . S
C2973 C2974 1.523 . S
C2974 C2955 1.368 . S
C2974 C2968 1.368 . S
C2974 C2973 1.523 . S
C2975 C2959 1.429 . S
C2975 C2971 1.429 . S
C2975 C2976 1.523 . S
C2976 C2960 1.368 . S
C2976 C2972 1.368 . S
C2976 C2975 1.523 . S
H2977 C2952 0.950 . S
H2978 C2954 0.950 . S
H2979 C2955 0.949 . S
H2980 C2957 0.950 . S
H2981 C2959 0.950 . S
C2982 C2983 1.349 . S
C2982 C2984 1.327 . S
C2982 H3007 0.950 . S
C2983 C2982 1.349 . S
C2983 C2999 1.349 . S
C2984 C2982 1.327 . S
C2984 C3003 1.429 . S
C2984 H3008 0.950 . S
C2985 C3002 1.574 1_554 S
C2985 C3004 1.368 . S
C2985 H3009 0.949 . S
H2986 C2990 0.949 . S
C2987 C2988 1.349 . S
C2987 C2989 1.327 . S
C2987 H3010 0.950 . S
C2988 C2987 1.349 . S
C2988 C3000 1.349 . S
C2989 C2987 1.327 . S
C2989 C3005 1.429 . S
C2989 H3011 0.950 . S
C2990 H2986 0.949 . S
C2990 C2998 1.574 1_556 S
C2990 C3006 1.368 . S
H2991 C2999 0.950 . S
H2992 C2997 0.950 . S
H2993 C2998 0.949 . S
H2994 C3000 0.950 . S
H2995 C3001 0.950 . S
H2996 C3002 0.949 . S
C2997 H2992 0.950 . S
C2997 C2999 1.327 . S
C2997 C3003 1.429 . S
C2998 C2990 1.574 1_554 S
C2998 H2993 0.949 . S
C2998 C3004 1.368 . S
C2999 C2983 1.349 . S
C2999 H2991 0.950 . S
C2999 C2997 1.327 . S
C3000 C2988 1.349 . S
C3000 H2994 0.950 . S
C3000 C3001 1.327 . S
C3001 H2995 0.950 . S
C3001 C3000 1.327 . S
C3001 C3005 1.429 . S
C3002 C2985 1.574 1_556 S
C3002 H2996 0.949 . S
C3002 C3006 1.368 . S
C3003 C2984 1.429 . S
C3003 C2997 1.429 . S
C3003 C3004 1.523 . S
C3004 C2985 1.368 . S
C3004 C2998 1.368 . S
C3004 C3003 1.523 . S
C3005 C2989 1.429 . S
C3005 C3001 1.429 . S
C3005 C3006 1.523 . S
C3006 C2990 1.368 . S
C3006 C3002 1.368 . S
C3006 C3005 1.523 . S
H3007 C2982 0.950 . S
H3008 C2984 0.950 . S
H3009 C2985 0.949 . S
H3010 C2987 0.950 . S
H3011 C2989 0.950 . S
C3012 C3013 1.349 . S
C3012 C3014 1.327 . S
C3012 H3037 0.950 . S
C3013 C3012 1.349 . S
C3013 C3029 1.349 . S
C3014 C3012 1.327 . S
C3014 C3033 1.429 . S
C3014 H3038 0.950 . S
C3015 C3032 1.574 1_556 S
C3015 C3034 1.368 . S
C3015 H3039 0.949 . S
H3016 C3020 0.949 . S
C3017 C3018 1.349 . S
C3017 C3019 1.327 . S
C3017 H3040 0.950 . S
C3018 C3017 1.349 . S
C3018 C3030 1.349 . S
C3019 C3017 1.327 . S
C3019 C3035 1.429 . S
C3019 H3041 0.950 . S
C3020 H3016 0.949 . S
C3020 C3028 1.574 1_554 S
C3020 C3036 1.368 . S
H3021 C3029 0.950 . S
H3022 C3027 0.950 . S
H3023 C3028 0.949 . S
H3024 C3030 0.950 . S
H3025 C3031 0.950 . S
H3026 C3032 0.949 . S
C3027 H3022 0.950 . S
C3027 C3029 1.327 . S
C3027 C3033 1.429 . S
C3028 C3020 1.574 1_556 S
C3028 H3023 0.949 . S
C3028 C3034 1.368 . S
C3029 C3013 1.349 . S
C3029 H3021 0.950 . S
C3029 C3027 1.327 . S
C3030 C3018 1.349 . S
C3030 H3024 0.950 . S
C3030 C3031 1.327 . S
C3031 H3025 0.950 . S
C3031 C3030 1.327 . S
C3031 C3035 1.429 . S
C3032 C3015 1.574 1_554 S
C3032 H3026 0.949 . S
C3032 C3036 1.368 . S
C3033 C3014 1.429 . S
C3033 C3027 1.429 . S
C3033 C3034 1.523 . S
C3034 C3015 1.368 . S
C3034 C3028 1.368 . S
C3034 C3033 1.523 . S
C3035 C3019 1.429 . S
C3035 C3031 1.429 . S
C3035 C3036 1.523 . S
C3036 C3020 1.368 . S
C3036 C3032 1.368 . S
C3036 C3035 1.523 . S
H3037 C3012 0.950 . S
H3038 C3014 0.950 . S
H3039 C3015 0.949 . S
H3040 C3017 0.950 . S
H3041 C3019 0.950 . S
C3042 C3043 1.349 . S
C3042 C3044 1.327 . S
C3042 H3067 0.950 . S
C3043 C3042 1.349 . S
C3043 C3059 1.349 . S
C3044 C3042 1.327 . S
C3044 C3063 1.429 . S
C3044 H3068 0.950 . S
C3045 C3062 1.574 1_554 S
C3045 C3064 1.368 . S
C3045 H3069 0.949 . S
H3046 C3050 0.949 . S
C3047 C3048 1.349 . S
C3047 C3049 1.327 . S
C3047 H3070 0.950 . S
C3048 C3047 1.349 . S
C3048 C3060 1.349 . S
C3049 C3047 1.327 . S
C3049 C3065 1.429 . S
C3049 H3071 0.950 . S
C3050 H3046 0.949 . S
C3050 C3058 1.574 1_556 S
C3050 C3066 1.368 . S
H3051 C3059 0.950 . S
H3052 C3057 0.950 . S
H3053 C3058 0.949 . S
H3054 C3060 0.950 . S
H3055 C3061 0.950 . S
H3056 C3062 0.949 . S
C3057 H3052 0.950 . S
C3057 C3059 1.327 . S
C3057 C3063 1.429 . S
C3058 C3050 1.574 1_554 S
C3058 H3053 0.949 . S
C3058 C3064 1.368 . S
C3059 C3043 1.349 . S
C3059 H3051 0.950 . S
C3059 C3057 1.327 . S
C3060 C3048 1.349 . S
C3060 H3054 0.950 . S
C3060 C3061 1.327 . S
C3061 H3055 0.950 . S
C3061 C3060 1.327 . S
C3061 C3065 1.429 . S
C3062 C3045 1.574 1_556 S
C3062 H3056 0.949 . S
C3062 C3066 1.368 . S
C3063 C3044 1.429 . S
C3063 C3057 1.429 . S
C3063 C3064 1.523 . S
C3064 C3045 1.368 . S
C3064 C3058 1.368 . S
C3064 C3063 1.523 . S
C3065 C3049 1.429 . S
C3065 C3061 1.429 . S
C3065 C3066 1.523 . S
C3066 C3050 1.368 . S
C3066 C3062 1.368 . S
C3066 C3065 1.523 . S
H3067 C3042 0.950 . S
H3068 C3044 0.950 . S
H3069 C3045 0.949 . S
H3070 C3047 0.950 . S
H3071 C3049 0.950 . S
C3072 C3073 1.349 . S
C3072 C3074 1.327 . S
C3072 H3097 0.950 . S
C3073 C3072 1.349 . S
C3073 C3089 1.349 . S
C3074 C3072 1.327 . S
C3074 C3093 1.429 . S
C3074 H3098 0.950 . S
C3075 C3092 1.574 1_455 S
C3075 C3094 1.368 . S
C3075 H3099 0.949 . S
H3076 C3080 0.949 . S
C3077 C3078 1.349 . S
C3077 C3079 1.327 . S
C3077 H3100 0.950 . S
C3078 C3077 1.349 . S
C3078 C3090 1.349 . S
C3079 C3077 1.327 . S
C3079 C3095 1.429 . S
C3079 H3101 0.950 . S
C3080 H3076 0.949 . S
C3080 C3088 1.574 1_655 S
C3080 C3096 1.368 . S
H3081 C3089 0.950 . S
H3082 C3087 0.950 . S
H3083 C3088 0.949 . S
H3084 C3090 0.950 . S
H3085 C3091 0.950 . S
H3086 C3092 0.949 . S
C3087 H3082 0.950 . S
C3087 C3089 1.327 . S
C3087 C3093 1.429 . S
C3088 C3080 1.574 1_455 S
C3088 H3083 0.949 . S
C3088 C3094 1.368 . S
C3089 C3073 1.349 . S
C3089 H3081 0.950 . S
C3089 C3087 1.327 . S
C3090 C3078 1.349 . S
C3090 H3084 0.950 . S
C3090 C3091 1.327 . S
C3091 H3085 0.950 . S
C3091 C3090 1.327 . S
C3091 C3095 1.429 . S
C3092 C3075 1.574 1_655 S
C3092 H3086 0.949 . S
C3092 C3096 1.368 . S
C3093 C3074 1.429 . S
C3093 C3087 1.429 . S
C3093 C3094 1.523 . S
C3094 C3075 1.368 . S
C3094 C3088 1.368 . S
C3094 C3093 1.523 . S
C3095 C3079 1.429 . S
C3095 C3091 1.429 . S
C3095 C3096 1.523 . S
C3096 C3080 1.368 . S
C3096 C3092 1.368 . S
C3096 C3095 1.523 . S
H3097 C3072 0.950 . S
H3098 C3074 0.950 . S
H3099 C3075 0.949 . S
H3100 C3077 0.950 . S
H3101 C3079 0.950 . S
C3102 C3103 1.349 . S
C3102 C3104 1.327 . S
C3102 H3127 0.950 . S
C3103 C3102 1.349 . S
C3103 C3119 1.349 . S
C3104 C3102 1.327 . S
C3104 C3123 1.429 . S
C3104 H3128 0.950 . S
C3105 C3122 1.574 1_565 S
C3105 C3124 1.368 . S
C3105 H3129 0.949 . S
H3106 C3110 0.949 . S
C3107 C3108 1.349 . S
C3107 C3109 1.327 . S
C3107 H3130 0.950 . S
C3108 C3107 1.349 . S
C3108 C3120 1.349 . S
C3109 C3107 1.327 . S
C3109 C3125 1.429 . S
C3109 H3131 0.950 . S
C3110 H3106 0.949 . S
C3110 C3118 1.574 1_545 S
C3110 C3126 1.368 . S
H3111 C3119 0.950 . S
H3112 C3117 0.950 . S
H3113 C3118 0.949 . S
H3114 C3120 0.950 . S
H3115 C3121 0.950 . S
H3116 C3122 0.949 . S
C3117 H3112 0.950 . S
C3117 C3119 1.327 . S
C3117 C3123 1.429 . S
C3118 C3110 1.574 1_565 S
C3118 H3113 0.949 . S
C3118 C3124 1.368 . S
C3119 C3103 1.349 . S
C3119 H3111 0.950 . S
C3119 C3117 1.327 . S
C3120 C3108 1.349 . S
C3120 H3114 0.950 . S
C3120 C3121 1.327 . S
C3121 H3115 0.950 . S
C3121 C3120 1.327 . S
C3121 C3125 1.429 . S
C3122 C3105 1.574 1_545 S
C3122 H3116 0.949 . S
C3122 C3126 1.368 . S
C3123 C3104 1.429 . S
C3123 C3117 1.429 . S
C3123 C3124 1.523 . S
C3124 C3105 1.368 . S
C3124 C3118 1.368 . S
C3124 C3123 1.523 . S
C3125 C3109 1.429 . S
C3125 C3121 1.429 . S
C3125 C3126 1.523 . S
C3126 C3110 1.368 . S
C3126 C3122 1.368 . S
C3126 C3125 1.523 . S
H3127 C3102 0.950 . S
H3128 C3104 0.950 . S
H3129 C3105 0.949 . S
H3130 C3107 0.950 . S
H3131 C3109 0.950 . S
C3132 C3133 1.349 . S
C3132 C3134 1.327 . S
C3132 H3157 0.950 . S
C3133 C3132 1.349 . S
C3133 C3149 1.349 . S
C3134 C3132 1.327 . S
C3134 C3153 1.429 . S
C3134 H3158 0.950 . S
C3135 C3152 1.574 1_455 S
C3135 C3154 1.368 . S
C3135 H3159 0.949 . S
H3136 C3140 0.949 . S
C3137 C3138 1.349 . S
C3137 C3139 1.327 . S
C3137 H3160 0.950 . S
C3138 C3137 1.349 . S
C3138 C3150 1.349 . S
C3139 C3137 1.327 . S
C3139 C3155 1.429 . S
C3139 H3161 0.950 . S
C3140 H3136 0.949 . S
C3140 C3148 1.574 1_655 S
C3140 C3156 1.368 . S
H3141 C3149 0.950 . S
H3142 C3147 0.950 . S
H3143 C3148 0.949 . S
H3144 C3150 0.950 . S
H3145 C3151 0.950 . S
H3146 C3152 0.949 . S
C3147 H3142 0.950 . S
C3147 C3149 1.327 . S
C3147 C3153 1.429 . S
C3148 C3140 1.574 1_455 S
C3148 H3143 0.949 . S
C3148 C3154 1.368 . S
C3149 C3133 1.349 . S
C3149 H3141 0.950 . S
C3149 C3147 1.327 . S
C3150 C3138 1.349 . S
C3150 H3144 0.950 . S
C3150 C3151 1.327 . S
C3151 H3145 0.950 . S
C3151 C3150 1.327 . S
C3151 C3155 1.429 . S
C3152 C3135 1.574 1_655 S
C3152 H3146 0.949 . S
C3152 C3156 1.368 . S
C3153 C3134 1.429 . S
C3153 C3147 1.429 . S
C3153 C3154 1.523 . S
C3154 C3135 1.368 . S
C3154 C3148 1.368 . S
C3154 C3153 1.523 . S
C3155 C3139 1.429 . S
C3155 C3151 1.429 . S
C3155 C3156 1.523 . S
C3156 C3140 1.368 . S
C3156 C3152 1.368 . S
C3156 C3155 1.523 . S
H3157 C3132 0.950 . S
H3158 C3134 0.950 . S
H3159 C3135 0.949 . S
H3160 C3137 0.950 . S
H3161 C3139 0.950 . S
C3162 C3163 1.349 . S
C3162 C3164 1.327 . S
C3162 H3187 0.950 . S
C3163 C3162 1.349 . S
C3163 C3179 1.349 . S
C3164 C3162 1.327 . S
C3164 C3183 1.429 . S
C3164 H3188 0.950 . S
C3165 C3182 1.574 1_565 S
C3165 C3184 1.368 . S
C3165 H3189 0.949 . S
H3166 C3170 0.949 . S
C3167 C3168 1.349 . S
C3167 C3169 1.327 . S
C3167 H3190 0.950 . S
C3168 C3167 1.349 . S
C3168 C3180 1.349 . S
C3169 C3167 1.327 . S
C3169 C3185 1.429 . S
C3169 H3191 0.950 . S
C3170 H3166 0.949 . S
C3170 C3178 1.574 1_545 S
C3170 C3186 1.368 . S
H3171 C3179 0.950 . S
H3172 C3177 0.950 . S
H3173 C3178 0.949 . S
H3174 C3180 0.950 . S
H3175 C3181 0.950 . S
H3176 C3182 0.949 . S
C3177 H3172 0.950 . S
C3177 C3179 1.327 . S
C3177 C3183 1.429 . S
C3178 C3170 1.574 1_565 S
C3178 H3173 0.949 . S
C3178 C3184 1.368 . S
C3179 C3163 1.349 . S
C3179 H3171 0.950 . S
C3179 C3177 1.327 . S
C3180 C3168 1.349 . S
C3180 H3174 0.950 . S
C3180 C3181 1.327 . S
C3181 H3175 0.950 . S
C3181 C3180 1.327 . S
C3181 C3185 1.429 . S
C3182 C3165 1.574 1_545 S
C3182 H3176 0.949 . S
C3182 C3186 1.368 . S
C3183 C3164 1.429 . S
C3183 C3177 1.429 . S
C3183 C3184 1.523 . S
C3184 C3165 1.368 . S
C3184 C3178 1.368 . S
C3184 C3183 1.523 . S
C3185 C3169 1.429 . S
C3185 C3181 1.429 . S
C3185 C3186 1.523 . S
C3186 C3170 1.368 . S
C3186 C3182 1.368 . S
C3186 C3185 1.523 . S
H3187 C3162 0.950 . S
H3188 C3164 0.950 . S
H3189 C3165 0.949 . S
H3190 C3167 0.950 . S
H3191 C3169 0.950 . S
C3192 C3193 1.349 . S
C3192 C3194 1.327 . S
C3192 H3217 0.950 . S
C3193 C3192 1.349 . S
C3193 C3209 1.349 . S
C3194 C3192 1.327 . S
C3194 C3213 1.429 . S
C3194 H3218 0.950 . S
C3195 C3212 1.574 1_655 S
C3195 C3214 1.368 . S
C3195 H3219 0.949 . S
H3196 C3200 0.949 . S
C3197 C3198 1.349 . S
C3197 C3199 1.327 . S
C3197 H3220 0.950 . S
C3198 C3197 1.349 . S
C3198 C3210 1.349 . S
C3199 C3197 1.327 . S
C3199 C3215 1.429 . S
C3199 H3221 0.950 . S
C3200 H3196 0.949 . S
C3200 C3208 1.574 1_455 S
C3200 C3216 1.368 . S
H3201 C3209 0.950 . S
H3202 C3207 0.950 . S
H3203 C3208 0.949 . S
H3204 C3210 0.950 . S
H3205 C3211 0.950 . S
H3206 C3212 0.949 . S
C3207 H3202 0.950 . S
C3207 C3209 1.327 . S
C3207 C3213 1.429 . S
C3208 C3200 1.574 1_655 S
C3208 H3203 0.949 . S
C3208 C3214 1.368 . S
C3209 C3193 1.349 . S
C3209 H3201 0.950 . S
C3209 C3207 1.327 . S
C3210 C3198 1.349 . S
C3210 H3204 0.950 . S
C3210 C3211 1.327 . S
C3211 H3205 0.950 . S
C3211 C3210 1.327 . S
C3211 C3215 1.429 . S
C3212 C3195 1.574 1_455 S
C3212 H3206 0.949 . S
C3212 C3216 1.368 . S
C3213 C3194 1.429 . S
C3213 C3207 1.429 . S
C3213 C3214 1.523 . S
C3214 C3195 1.368 . S
C3214 C3208 1.368 . S
C3214 C3213 1.523 . S
C3215 C3199 1.429 . S
C3215 C3211 1.429 . S
C3215 C3216 1.523 . S
C3216 C3200 1.368 . S
C3216 C3212 1.368 . S
C3216 C3215 1.523 . S
H3217 C3192 0.950 . S
H3218 C3194 0.950 . S
H3219 C3195 0.949 . S
H3220 C3197 0.950 . S
H3221 C3199 0.950 . S
C3222 C3223 1.349 . S
C3222 C3224 1.327 . S
C3222 H3247 0.950 . S
C3223 C3222 1.349 . S
C3223 C3239 1.349 . S
C3224 C3222 1.327 . S
C3224 C3243 1.429 . S
C3224 H3248 0.950 . S
C3225 C3242 1.574 1_545 S
C3225 C3244 1.368 . S
C3225 H3249 0.949 . S
H3226 C3230 0.949 . S
C3227 C3228 1.349 . S
C3227 C3229 1.327 . S
C3227 H3250 0.950 . S
C3228 C3227 1.349 . S
C3228 C3240 1.349 . S
C3229 C3227 1.327 . S
C3229 C3245 1.429 . S
C3229 H3251 0.950 . S
C3230 H3226 0.949 . S
C3230 C3238 1.574 1_565 S
C3230 C3246 1.368 . S
H3231 C3239 0.950 . S
H3232 C3237 0.950 . S
H3233 C3238 0.949 . S
H3234 C3240 0.950 . S
H3235 C3241 0.950 . S
H3236 C3242 0.949 . S
C3237 H3232 0.950 . S
C3237 C3239 1.327 . S
C3237 C3243 1.429 . S
C3238 C3230 1.574 1_545 S
C3238 H3233 0.949 . S
C3238 C3244 1.368 . S
C3239 C3223 1.349 . S
C3239 H3231 0.950 . S
C3239 C3237 1.327 . S
C3240 C3228 1.349 . S
C3240 H3234 0.950 . S
C3240 C3241 1.327 . S
C3241 H3235 0.950 . S
C3241 C3240 1.327 . S
C3241 C3245 1.429 . S
C3242 C3225 1.574 1_565 S
C3242 H3236 0.949 . S
C3242 C3246 1.368 . S
C3243 C3224 1.429 . S
C3243 C3237 1.429 . S
C3243 C3244 1.523 . S
C3244 C3225 1.368 . S
C3244 C3238 1.368 . S
C3244 C3243 1.523 . S
C3245 C3229 1.429 . S
C3245 C3241 1.429 . S
C3245 C3246 1.523 . S
C3246 C3230 1.368 . S
C3246 C3242 1.368 . S
C3246 C3245 1.523 . S
H3247 C3222 0.950 . S
H3248 C3224 0.950 . S
H3249 C3225 0.949 . S
H3250 C3227 0.950 . S
H3251 C3229 0.950 . S
C3252 C3253 1.349 . S
C3252 C3254 1.327 . S
C3252 H3277 0.950 . S
C3253 C3252 1.349 . S
C3253 C3269 1.349 . S
C3254 C3252 1.327 . S
C3254 C3273 1.429 . S
C3254 H3278 0.950 . S
C3255 C3272 1.574 1_455 S
C3255 C3274 1.368 . S
C3255 H3279 0.949 . S
H3256 C3260 0.949 . S
C3257 C3258 1.349 . S
C3257 C3259 1.327 . S
C3257 H3280 0.950 . S
C3258 C3257 1.349 . S
C3258 C3270 1.349 . S
C3259 C3257 1.327 . S
C3259 C3275 1.429 . S
C3259 H3281 0.950 . S
C3260 H3256 0.949 . S
C3260 C3268 1.574 1_655 S
C3260 C3276 1.368 . S
H3261 C3269 0.950 . S
H3262 C3267 0.950 . S
H3263 C3268 0.949 . S
H3264 C3270 0.950 . S
H3265 C3271 0.950 . S
H3266 C3272 0.949 . S
C3267 H3262 0.950 . S
C3267 C3269 1.327 . S
C3267 C3273 1.429 . S
C3268 C3260 1.574 1_455 S
C3268 H3263 0.949 . S
C3268 C3274 1.368 . S
C3269 C3253 1.349 . S
C3269 H3261 0.950 . S
C3269 C3267 1.327 . S
C3270 C3258 1.349 . S
C3270 H3264 0.950 . S
C3270 C3271 1.327 . S
C3271 H3265 0.950 . S
C3271 C3270 1.327 . S
C3271 C3275 1.429 . S
C3272 C3255 1.574 1_655 S
C3272 H3266 0.949 . S
C3272 C3276 1.368 . S
C3273 C3254 1.429 . S
C3273 C3267 1.429 . S
C3273 C3274 1.523 . S
C3274 C3255 1.368 . S
C3274 C3268 1.368 . S
C3274 C3273 1.523 . S
C3275 C3259 1.429 . S
C3275 C3271 1.429 . S
C3275 C3276 1.523 . S
C3276 C3260 1.368 . S
C3276 C3272 1.368 . S
C3276 C3275 1.523 . S
H3277 C3252 0.950 . S
H3278 C3254 0.950 . S
H3279 C3255 0.949 . S
H3280 C3257 0.950 . S
H3281 C3259 0.950 . S
C3282 C3283 1.349 . S
C3282 C3284 1.327 . S
C3282 H3307 0.950 . S
C3283 C3282 1.349 . S
C3283 C3299 1.349 . S
C3284 C3282 1.327 . S
C3284 C3303 1.429 . S
C3284 H3308 0.950 . S
C3285 C3302 1.574 1_545 S
C3285 C3304 1.368 . S
C3285 H3309 0.949 . S
H3286 C3290 0.949 . S
C3287 C3288 1.349 . S
C3287 C3289 1.327 . S
C3287 H3310 0.950 . S
C3288 C3287 1.349 . S
C3288 C3300 1.349 . S
C3289 C3287 1.327 . S
C3289 C3305 1.429 . S
C3289 H3311 0.950 . S
C3290 H3286 0.949 . S
C3290 C3298 1.574 1_565 S
C3290 C3306 1.368 . S
H3291 C3299 0.950 . S
H3292 C3297 0.950 . S
H3293 C3298 0.949 . S
H3294 C3300 0.950 . S
H3295 C3301 0.950 . S
H3296 C3302 0.949 . S
C3297 H3292 0.950 . S
C3297 C3299 1.327 . S
C3297 C3303 1.429 . S
C3298 C3290 1.574 1_545 S
C3298 H3293 0.949 . S
C3298 C3304 1.368 . S
C3299 C3283 1.349 . S
C3299 H3291 0.950 . S
C3299 C3297 1.327 . S
C3300 C3288 1.349 . S
C3300 H3294 0.950 . S
C3300 C3301 1.327 . S
C3301 H3295 0.950 . S
C3301 C3300 1.327 . S
C3301 C3305 1.429 . S
C3302 C3285 1.574 1_565 S
C3302 H3296 0.949 . S
C3302 C3306 1.368 . S
C3303 C3284 1.429 . S
C3303 C3297 1.429 . S
C3303 C3304 1.523 . S
C3304 C3285 1.368 . S
C3304 C3298 1.368 . S
C3304 C3303 1.523 . S
C3305 C3289 1.429 . S
C3305 C3301 1.429 . S
C3305 C3306 1.523 . S
C3306 C3290 1.368 . S
C3306 C3302 1.368 . S
C3306 C3305 1.523 . S
H3307 C3282 0.950 . S
H3308 C3284 0.950 . S
H3309 C3285 0.949 . S
H3310 C3287 0.950 . S
H3311 C3289 0.950 . S
C3312 C3313 1.349 . S
C3312 C3314 1.327 . S
C3312 H3337 0.950 . S
C3313 C3312 1.349 . S
C3313 C3329 1.349 . S
C3314 C3312 1.327 . S
C3314 C3333 1.429 . S
C3314 H3338 0.950 . S
C3315 C3332 1.574 1_545 S
C3315 C3334 1.368 . S
C3315 H3339 0.949 . S
H3316 C3320 0.949 . S
C3317 C3318 1.349 . S
C3317 C3319 1.327 . S
C3317 H3340 0.950 . S
C3318 C3317 1.349 . S
C3318 C3330 1.349 . S
C3319 C3317 1.327 . S
C3319 C3335 1.429 . S
C3319 H3341 0.950 . S
C3320 H3316 0.949 . S
C3320 C3328 1.574 1_565 S
C3320 C3336 1.368 . S
H3321 C3329 0.950 . S
H3322 C3327 0.950 . S
H3323 C3328 0.949 . S
H3324 C3330 0.950 . S
H3325 C3331 0.950 . S
H3326 C3332 0.949 . S
C3327 H3322 0.950 . S
C3327 C3329 1.327 . S
C3327 C3333 1.429 . S
C3328 C3320 1.574 1_545 S
C3328 H3323 0.949 . S
C3328 C3334 1.368 . S
C3329 C3313 1.349 . S
C3329 H3321 0.950 . S
C3329 C3327 1.327 . S
C3330 C3318 1.349 . S
C3330 H3324 0.950 . S
C3330 C3331 1.327 . S
C3331 H3325 0.950 . S
C3331 C3330 1.327 . S
C3331 C3335 1.429 . S
C3332 C3315 1.574 1_565 S
C3332 H3326 0.949 . S
C3332 C3336 1.368 . S
C3333 C3314 1.429 . S
C3333 C3327 1.429 . S
C3333 C3334 1.523 . S
C3334 C3315 1.368 . S
C3334 C3328 1.368 . S
C3334 C3333 1.523 . S
C3335 C3319 1.429 . S
C3335 C3331 1.429 . S
C3335 C3336 1.523 . S
C3336 C3320 1.368 . S
C3336 C3332 1.368 . S
C3336 C3335 1.523 . S
H3337 C3312 0.950 . S
H3338 C3314 0.950 . S
H3339 C3315 0.949 . S
H3340 C3317 0.950 . S
H3341 C3319 0.950 . S
C3342 C3343 1.349 . S
C3342 C3344 1.327 . S
C3342 H3367 0.950 . S
C3343 C3342 1.349 . S
C3343 C3359 1.349 . S
C3344 C3342 1.327 . S
C3344 C3363 1.429 . S
C3344 H3368 0.950 . S
C3345 C3362 1.574 1_545 S
C3345 C3364 1.368 . S
C3345 H3369 0.949 . S
H3346 C3350 0.949 . S
C3347 C3348 1.349 . S
C3347 C3349 1.327 . S
C3347 H3370 0.950 . S
C3348 C3347 1.349 . S
C3348 C3360 1.349 . S
C3349 C3347 1.327 . S
C3349 C3365 1.429 . S
C3349 H3371 0.950 . S
C3350 H3346 0.949 . S
C3350 C3358 1.574 1_565 S
C3350 C3366 1.368 . S
H3351 C3359 0.950 . S
H3352 C3357 0.950 . S
H3353 C3358 0.949 . S
H3354 C3360 0.950 . S
H3355 C3361 0.950 . S
H3356 C3362 0.949 . S
C3357 H3352 0.950 . S
C3357 C3359 1.327 . S
C3357 C3363 1.429 . S
C3358 C3350 1.574 1_545 S
C3358 H3353 0.949 . S
C3358 C3364 1.368 . S
C3359 C3343 1.349 . S
C3359 H3351 0.950 . S
C3359 C3357 1.327 . S
C3360 C3348 1.349 . S
C3360 H3354 0.950 . S
C3360 C3361 1.327 . S
C3361 H3355 0.950 . S
C3361 C3360 1.327 . S
C3361 C3365 1.429 . S
C3362 C3345 1.574 1_565 S
C3362 H3356 0.949 . S
C3362 C3366 1.368 . S
C3363 C3344 1.429 . S
C3363 C3357 1.429 . S
C3363 C3364 1.523 . S
C3364 C3345 1.368 . S
C3364 C3358 1.368 . S
C3364 C3363 1.523 . S
C3365 C3349 1.429 . S
C3365 C3361 1.429 . S
C3365 C3366 1.523 . S
C3366 C3350 1.368 . S
C3366 C3362 1.368 . S
C3366 C3365 1.523 . S
H3367 C3342 0.950 . S
H3368 C3344 0.950 . S
H3369 C3345 0.949 . S
H3370 C3347 0.950 . S
H3371 C3349 0.950 . S
C3372 C3373 1.349 . S
C3372 C3374 1.327 . S
C3372 H3397 0.950 . S
C3373 C3372 1.349 . S
C3373 C3389 1.349 . S
C3374 C3372 1.327 . S
C3374 C3393 1.429 . S
C3374 H3398 0.950 . S
C3375 C3392 1.574 1_655 S
C3375 C3394 1.368 . S
C3375 H3399 0.949 . S
H3376 C3380 0.949 . S
C3377 C3378 1.349 . S
C3377 C3379 1.327 . S
C3377 H3400 0.950 . S
C3378 C3377 1.349 . S
C3378 C3390 1.349 . S
C3379 C3377 1.327 . S
C3379 C3395 1.429 . S
C3379 H3401 0.950 . S
C3380 H3376 0.949 . S
C3380 C3388 1.574 1_455 S
C3380 C3396 1.368 . S
H3381 C3389 0.950 . S
H3382 C3387 0.950 . S
H3383 C3388 0.949 . S
H3384 C3390 0.950 . S
H3385 C3391 0.950 . S
H3386 C3392 0.949 . S
C3387 H3382 0.950 . S
C3387 C3389 1.327 . S
C3387 C3393 1.429 . S
C3388 C3380 1.574 1_655 S
C3388 H3383 0.949 . S
C3388 C3394 1.368 . S
C3389 C3373 1.349 . S
C3389 H3381 0.950 . S
C3389 C3387 1.327 . S
C3390 C3378 1.349 . S
C3390 H3384 0.950 . S
C3390 C3391 1.327 . S
C3391 H3385 0.950 . S
C3391 C3390 1.327 . S
C3391 C3395 1.429 . S
C3392 C3375 1.574 1_455 S
C3392 H3386 0.949 . S
C3392 C3396 1.368 . S
C3393 C3374 1.429 . S
C3393 C3387 1.429 . S
C3393 C3394 1.523 . S
C3394 C3375 1.368 . S
C3394 C3388 1.368 . S
C3394 C3393 1.523 . S
C3395 C3379 1.429 . S
C3395 C3391 1.429 . S
C3395 C3396 1.523 . S
C3396 C3380 1.368 . S
C3396 C3392 1.368 . S
C3396 C3395 1.523 . S
H3397 C3372 0.950 . S
H3398 C3374 0.950 . S
H3399 C3375 0.949 . S
H3400 C3377 0.950 . S
H3401 C3379 0.950 . S
C3402 C3403 1.349 . S
C3402 C3404 1.327 . S
C3402 H3427 0.950 . S
C3403 C3402 1.349 . S
C3403 C3419 1.349 . S
C3404 C3402 1.327 . S
C3404 C3423 1.429 . S
C3404 H3428 0.950 . S
C3405 C3422 1.574 1_545 S
C3405 C3424 1.368 . S
C3405 H3429 0.949 . S
H3406 C3410 0.949 . S
C3407 C3408 1.349 . S
C3407 C3409 1.327 . S
C3407 H3430 0.950 . S
C3408 C3407 1.349 . S
C3408 C3420 1.349 . S
C3409 C3407 1.327 . S
C3409 C3425 1.429 . S
C3409 H3431 0.950 . S
C3410 H3406 0.949 . S
C3410 C3418 1.574 1_565 S
C3410 C3426 1.368 . S
H3411 C3419 0.950 . S
H3412 C3417 0.950 . S
H3413 C3418 0.949 . S
H3414 C3420 0.950 . S
H3415 C3421 0.950 . S
H3416 C3422 0.949 . S
C3417 H3412 0.950 . S
C3417 C3419 1.327 . S
C3417 C3423 1.429 . S
C3418 C3410 1.574 1_545 S
C3418 H3413 0.949 . S
C3418 C3424 1.368 . S
C3419 C3403 1.349 . S
C3419 H3411 0.950 . S
C3419 C3417 1.327 . S
C3420 C3408 1.349 . S
C3420 H3414 0.950 . S
C3420 C3421 1.327 . S
C3421 H3415 0.950 . S
C3421 C3420 1.327 . S
C3421 C3425 1.429 . S
C3422 C3405 1.574 1_565 S
C3422 H3416 0.949 . S
C3422 C3426 1.368 . S
C3423 C3404 1.429 . S
C3423 C3417 1.429 . S
C3423 C3424 1.523 . S
C3424 C3405 1.368 . S
C3424 C3418 1.368 . S
C3424 C3423 1.523 . S
C3425 C3409 1.429 . S
C3425 C3421 1.429 . S
C3425 C3426 1.523 . S
C3426 C3410 1.368 . S
C3426 C3422 1.368 . S
C3426 C3425 1.523 . S
H3427 C3402 0.950 . S
H3428 C3404 0.950 . S
H3429 C3405 0.949 . S
H3430 C3407 0.950 . S
H3431 C3409 0.950 . S
C3432 C3433 1.349 . S
C3432 C3434 1.327 . S
C3432 H3457 0.950 . S
C3433 C3432 1.349 . S
C3433 C3449 1.349 . S
C3434 C3432 1.327 . S
C3434 C3453 1.429 . S
C3434 H3458 0.950 . S
C3435 C3452 1.574 1_455 S
C3435 C3454 1.368 . S
C3435 H3459 0.949 . S
H3436 C3440 0.949 . S
C3437 C3438 1.349 . S
C3437 C3439 1.327 . S
C3437 H3460 0.950 . S
C3438 C3437 1.349 . S
C3438 C3450 1.349 . S
C3439 C3437 1.327 . S
C3439 C3455 1.429 . S
C3439 H3461 0.950 . S
C3440 H3436 0.949 . S
C3440 C3448 1.574 1_655 S
C3440 C3456 1.368 . S
H3441 C3449 0.950 . S
H3442 C3447 0.950 . S
H3443 C3448 0.949 . S
H3444 C3450 0.950 . S
H3445 C3451 0.950 . S
H3446 C3452 0.949 . S
C3447 H3442 0.950 . S
C3447 C3449 1.327 . S
C3447 C3453 1.429 . S
C3448 C3440 1.574 1_455 S
C3448 H3443 0.949 . S
C3448 C3454 1.368 . S
C3449 C3433 1.349 . S
C3449 H3441 0.950 . S
C3449 C3447 1.327 . S
C3450 C3438 1.349 . S
C3450 H3444 0.950 . S
C3450 C3451 1.327 . S
C3451 H3445 0.950 . S
C3451 C3450 1.327 . S
C3451 C3455 1.429 . S
C3452 C3435 1.574 1_655 S
C3452 H3446 0.949 . S
C3452 C3456 1.368 . S
C3453 C3434 1.429 . S
C3453 C3447 1.429 . S
C3453 C3454 1.523 . S
C3454 C3435 1.368 . S
C3454 C3448 1.368 . S
C3454 C3453 1.523 . S
C3455 C3439 1.429 . S
C3455 C3451 1.429 . S
C3455 C3456 1.523 . S
C3456 C3440 1.368 . S
C3456 C3452 1.368 . S
C3456 C3455 1.523 . S
H3457 C3432 0.950 . S
H3458 C3434 0.950 . S
H3459 C3435 0.949 . S
H3460 C3437 0.950 . S
H3461 C3439 0.950 . S
C3462 C3463 1.349 . S
C3462 C3464 1.327 . S
C3462 H3487 0.950 . S
C3463 C3462 1.349 . S
C3463 C3479 1.349 . S
C3464 C3462 1.327 . S
C3464 C3483 1.429 . S
C3464 H3488 0.950 . S
C3465 C3482 1.574 1_545 S
C3465 C3484 1.368 . S
C3465 H3489 0.949 . S
H3466 C3470 0.949 . S
C3467 C3468 1.349 . S
C3467 C3469 1.327 . S
C3467 H3490 0.950 . S
C3468 C3467 1.349 . S
C3468 C3480 1.349 . S
C3469 C3467 1.327 . S
C3469 C3485 1.429 . S
C3469 H3491 0.950 . S
C3470 H3466 0.949 . S
C3470 C3478 1.574 1_565 S
C3470 C3486 1.368 . S
H3471 C3479 0.950 . S
H3472 C3477 0.950 . S
H3473 C3478 0.949 . S
H3474 C3480 0.950 . S
H3475 C3481 0.950 . S
H3476 C3482 0.949 . S
C3477 H3472 0.950 . S
C3477 C3479 1.327 . S
C3477 C3483 1.429 . S
C3478 C3470 1.574 1_545 S
C3478 H3473 0.949 . S
C3478 C3484 1.368 . S
C3479 C3463 1.349 . S
C3479 H3471 0.950 . S
C3479 C3477 1.327 . S
C3480 C3468 1.349 . S
C3480 H3474 0.950 . S
C3480 C3481 1.327 . S
C3481 H3475 0.950 . S
C3481 C3480 1.327 . S
C3481 C3485 1.429 . S
C3482 C3465 1.574 1_565 S
C3482 H3476 0.949 . S
C3482 C3486 1.368 . S
C3483 C3464 1.429 . S
C3483 C3477 1.429 . S
C3483 C3484 1.523 . S
C3484 C3465 1.368 . S
C3484 C3478 1.368 . S
C3484 C3483 1.523 . S
C3485 C3469 1.429 . S
C3485 C3481 1.429 . S
C3485 C3486 1.523 . S
C3486 C3470 1.368 . S
C3486 C3482 1.368 . S
C3486 C3485 1.523 . S
H3487 C3462 0.950 . S
H3488 C3464 0.950 . S
H3489 C3465 0.949 . S
H3490 C3467 0.950 . S
H3491 C3469 0.950 . S
C3492 C3493 1.349 . S
C3492 C3494 1.327 . S
C3492 H3517 0.950 . S
C3493 C3492 1.349 . S
C3493 C3509 1.349 . S
C3494 C3492 1.327 . S
C3494 C3513 1.429 . S
C3494 H3518 0.950 . S
C3495 C3512 1.574 1_655 S
C3495 C3514 1.368 . S
C3495 H3519 0.949 . S
H3496 C3500 0.949 . S
C3497 C3498 1.349 . S
C3497 C3499 1.327 . S
C3497 H3520 0.950 . S
C3498 C3497 1.349 . S
C3498 C3510 1.349 . S
C3499 C3497 1.327 . S
C3499 C3515 1.429 . S
C3499 H3521 0.950 . S
C3500 H3496 0.949 . S
C3500 C3508 1.574 1_455 S
C3500 C3516 1.368 . S
H3501 C3509 0.950 . S
H3502 C3507 0.950 . S
H3503 C3508 0.949 . S
H3504 C3510 0.950 . S
H3505 C3511 0.950 . S
H3506 C3512 0.949 . S
C3507 H3502 0.950 . S
C3507 C3509 1.327 . S
C3507 C3513 1.429 . S
C3508 C3500 1.574 1_655 S
C3508 H3503 0.949 . S
C3508 C3514 1.368 . S
C3509 C3493 1.349 . S
C3509 H3501 0.950 . S
C3509 C3507 1.327 . S
C3510 C3498 1.349 . S
C3510 H3504 0.950 . S
C3510 C3511 1.327 . S
C3511 H3505 0.950 . S
C3511 C3510 1.327 . S
C3511 C3515 1.429 . S
C3512 C3495 1.574 1_455 S
C3512 H3506 0.949 . S
C3512 C3516 1.368 . S
C3513 C3494 1.429 . S
C3513 C3507 1.429 . S
C3513 C3514 1.523 . S
C3514 C3495 1.368 . S
C3514 C3508 1.368 . S
C3514 C3513 1.523 . S
C3515 C3499 1.429 . S
C3515 C3511 1.429 . S
C3515 C3516 1.523 . S
C3516 C3500 1.368 . S
C3516 C3512 1.368 . S
C3516 C3515 1.523 . S
H3517 C3492 0.950 . S
H3518 C3494 0.950 . S
H3519 C3495 0.949 . S
H3520 C3497 0.950 . S
H3521 C3499 0.950 . S
C3522 C3523 1.349 . S
C3522 C3524 1.327 . S
C3522 H3547 0.950 . S
C3523 C3522 1.349 . S
C3523 C3539 1.349 . S
C3524 C3522 1.327 . S
C3524 C3543 1.429 . S
C3524 H3548 0.950 . S
C3525 C3542 1.574 1_455 S
C3525 C3544 1.368 . S
C3525 H3549 0.949 . S
H3526 C3530 0.949 . S
C3527 C3528 1.349 . S
C3527 C3529 1.327 . S
C3527 H3550 0.950 . S
C3528 C3527 1.349 . S
C3528 C3540 1.349 . S
C3529 C3527 1.327 . S
C3529 C3545 1.429 . S
C3529 H3551 0.950 . S
C3530 H3526 0.949 . S
C3530 C3538 1.574 1_655 S
C3530 C3546 1.368 . S
H3531 C3539 0.950 . S
H3532 C3537 0.950 . S
H3533 C3538 0.949 . S
H3534 C3540 0.950 . S
H3535 C3541 0.950 . S
H3536 C3542 0.949 . S
C3537 H3532 0.950 . S
C3537 C3539 1.327 . S
C3537 C3543 1.429 . S
C3538 C3530 1.574 1_455 S
C3538 H3533 0.949 . S
C3538 C3544 1.368 . S
C3539 C3523 1.349 . S
C3539 H3531 0.950 . S
C3539 C3537 1.327 . S
C3540 C3528 1.349 . S
C3540 H3534 0.950 . S
C3540 C3541 1.327 . S
C3541 H3535 0.950 . S
C3541 C3540 1.327 . S
C3541 C3545 1.429 . S
C3542 C3525 1.574 1_655 S
C3542 H3536 0.949 . S
C3542 C3546 1.368 . S
C3543 C3524 1.429 . S
C3543 C3537 1.429 . S
C3543 C3544 1.523 . S
C3544 C3525 1.368 . S
C3544 C3538 1.368 . S
C3544 C3543 1.523 . S
C3545 C3529 1.429 . S
C3545 C3541 1.429 . S
C3545 C3546 1.523 . S
C3546 C3530 1.368 . S
C3546 C3542 1.368 . S
C3546 C3545 1.523 . S
H3547 C3522 0.950 . S
H3548 C3524 0.950 . S
H3549 C3525 0.949 . S
H3550 C3527 0.950 . S
H3551 C3529 0.950 . S
C673 C546 1.268 . S
C678 C11 1.274 . S
C703 C25 1.132 . S
C708 C504 1.128 . S
C733 C39 1.227 . S
C738 C529 1.226 . S
C763 C543 1.082 . S
C768 C53 1.082 . S
C793 C473 1.146 . S
C798 C67 1.146 . S
C823 C70 1.133 . S
C828 C487 1.137 . S
C853 C95 1.197 . S
C858 C490 1.193 . S
C883 C98 1.179 . S
C888 C448 1.178 . S
C913 C112 1.343 . S
C918 C434 1.342 . S
C943 C403 1.134 . S
C948 C137 1.134 . S
C973 C406 1.274 . S
C978 C140 1.273 . S
C1003 C165 1.200 . S
C1008 C431 1.199 . S
C1033 C168 1.153 . S
C1038 C361 1.158 . S
C1063 C193 1.220 . S
C1068 C364 1.216 . S
C1093 C389 1.092 . S
C1098 C196 1.087 . S
C1123 C336 1.283 . S
C1128 C221 1.290 . S
C1153 C235 1.132 . S
C1158 C627 1.131 . S
C1183 C658 1.162 . S
C1188 C238 1.161 . S
C1213 C641 1.290 . S
C1218 C252 1.283 . S
C1243 C644 1.079 . S
C1248 C266 1.078 . S
C1273 C571 1.271 . S
C1278 C280 1.266 . S
C1303 C599 1.149 . S
C1308 C305 1.149 . S
C1333 C308 1.192 . S
C1338 C602 1.192 . S
C1363 C574 1.111 . S
C1368 C322 1.110 . S
C1393 C459 1.239 . S
C1398 C291 1.240 . S
C1423 C249 1.125 . S
C1428 C462 1.121 . S
C1453 C476 1.255 . S
C1458 C263 1.261 . S
C1483 C501 1.089 . S
C1488 C277 1.088 . S
C1513 C333 1.152 . S
C1518 C515 1.153 . S
C1543 C518 1.164 . S
C1548 C294 1.165 . S
C1573 C319 1.190 . S
C1578 C532 1.186 . S
C1603 C224 1.147 . S
C1608 C557 1.150 . S
C1633 C560 1.336 . S
C1638 C210 1.336 . S
C1663 C179 1.214 . S
C1668 C669 1.213 . S
C1693 C630 1.281 . S
C1698 C182 1.280 . S
C1723 C207 1.120 . S
C1728 C655 1.120 . S
C1753 C126 1.072 . S
C1758 C585 1.077 . S
C1783 C151 1.228 . S
C1788 C588 1.223 . S
C1813 C154 1.169 . S
C1818 C613 1.173 . S
C1843 C616 1.276 . S
C1848 C123 1.282 . S
C1873 C347 1.163 . S
C1878 C109 1.164 . S
C1903 C392 1.148 . S
C1908 C14 1.147 . S
C1933 C417 1.256 . S
C1938 C28 1.251 . S
C1963 C420 1.093 . S
C1968 C42 1.092 . S
C1993 C445 1.304 . S
C1998 C0 1.299 . S
C2023 C81 1.117 . S
C2028 C375 1.116 . S
C2053 C378 1.180 . S
C2058 C84 1.179 . S
C2083 C350 1.123 . S
C2088 C56 1.123 . S
C2113 C5 1.491 . S
C2118 C373 1.484 . S
C2143 C383 1.441 . S
C2148 C19 1.441 . S
C2173 C33 1.489 . S
C2178 C345 1.482 . S
C2203 C47 1.437 . S
C2208 C355 1.435 . S
C2233 C61 1.447 . S
C2238 C425 1.447 . S
C2263 C443 1.481 . S
C2268 C79 1.480 . S
C2293 C89 1.451 . S
C2298 C397 1.453 . S
C2323 C415 1.486 . S
C2328 C107 1.486 . S
C2353 C121 1.461 . S
C2358 C513 1.461 . S
C2383 C523 1.449 . S
C2388 C131 1.448 . S
C2413 C149 1.447 . S
C2418 C537 1.455 . S
C2443 C159 1.472 . S
C2448 C555 1.466 . S
C2473 C177 1.436 . S
C2478 C457 1.435 . S
C2503 C187 1.471 . S
C2508 C467 1.473 . S
C2533 C481 1.417 . S
C2538 C205 1.410 . S
C2563 C215 1.486 . S
C2568 C499 1.478 . S
C2593 C611 1.462 . S
C2598 C229 1.470 . S
C2623 C247 1.473 . S
C2628 C635 1.480 . S
C2653 C261 1.433 . S
C2658 C653 1.429 . S
C2683 C565 1.464 . S
C2688 C275 1.455 . S
C2713 C667 1.453 . S
C2718 C289 1.454 . S
C2743 C299 1.450 . S
C2748 C583 1.440 . S
C2773 C593 1.450 . S
C2778 C317 1.443 . S
C2803 C331 1.424 . S
C2808 C621 1.434 . S
C2833 C597 1.485 . S
C2838 C285 1.493 . S
C2863 C243 1.452 . S
C2868 C607 1.451 . S
C2893 C625 1.481 . S
C2898 C257 1.488 . S
C2923 C579 1.425 . S
C2928 C271 1.426 . S
C2953 C649 1.437 . S
C2958 C327 1.436 . S
C2983 C303 1.481 . S
C2988 C569 1.482 . S
C3013 C663 1.462 . S
C3018 C313 1.461 . S
C3043 C233 1.485 . S
C3048 C639 1.485 . S
C3073 C471 1.461 . S
C3078 C219 1.462 . S
C3103 C173 1.465 . S
C3108 C485 1.459 . S
C3133 C191 1.446 . S
C3138 C495 1.455 . S
C3163 C453 1.455 . S
C3168 C201 1.454 . S
C3193 C135 1.416 . S
C3198 C551 1.423 . S
C3223 C509 1.473 . S
C3228 C145 1.471 . S
C3253 C163 1.430 . S
C3258 C527 1.429 . S
C3283 C117 1.486 . S
C3288 C541 1.478 . S
C3313 C387 1.461 . S
C3318 C103 1.471 . S
C3343 C23 1.466 . S
C3348 C411 1.473 . S
C3373 C37 1.433 . S
C3378 C429 1.431 . S
C3403 C439 1.471 . S
C3408 C51 1.463 . S
C3433 C9 1.455 . S
C3438 C401 1.451 . S
C3463 C75 1.449 . S
C3468 C359 1.441 . S
C3493 C93 1.435 . S
C3498 C369 1.444 . S
C3523 C65 1.431 . S
C3528 C341 1.440 . S
