# Generated by pormake.
# Topology wlb, (5)-cn, num edge types: 1
# Building blocks:
#     Node 0, Type 0, BuildingBlock: XOMCOT_clean_sbu_0, # of connection points: 5
#     Node 1, Type 0, BuildingBlock: XOMCOT_clean_sbu_0, # of connection points: 5
#     Node 2, Type 0, BuildingBlock: XOMCOT_clean_sbu_0, # of connection points: 5
#     Node 3, Type 0, BuildingBlock: XOMCOT_clean_sbu_0, # of connection points: 5
#     Node 4, Type 0, BuildingBlock: XOMCOT_clean_sbu_0, # of connection points: 5
#     Node 5, Type 0, BuildingBlock: XOMCOT_clean_sbu_0, # of connection points: 5
#     Node 6, Type 0, BuildingBlock: XOMCOT_clean_sbu_0, # of connection points: 5
#     Node 7, Type 0, BuildingBlock: XOMCOT_clean_sbu_0, # of connection points: 5
#     Node 8, Type 0, BuildingBlock: XOMCOT_clean_sbu_0, # of connection points: 5
#     Node 9, Type 0, BuildingBlock: XOMCOT_clean_sbu_0, # of connection points: 5
#     Node 10, Type 0, BuildingBlock: XOMCOT_clean_sbu_0, # of connection points: 5
#     Node 11, Type 0, BuildingBlock: XOMCOT_clean_sbu_0, # of connection points: 5
#     Node 12, Type 0, BuildingBlock: XOMCOT_clean_sbu_0, # of connection points: 5
#     Node 13, Type 0, BuildingBlock: XOMCOT_clean_sbu_0, # of connection points: 5
#     Node 14, Type 0, BuildingBlock: XOMCOT_clean_sbu_0, # of connection points: 5
#     Node 15, Type 0, BuildingBlock: XOMCOT_clean_sbu_0, # of connection points: 5
#     Node 16, Type 0, BuildingBlock: XOMCOT_clean_sbu_0, # of connection points: 5
#     Node 17, Type 0, BuildingBlock: XOMCOT_clean_sbu_0, # of connection points: 5
#     Edge 18, Type (0, 0), BuildingBlock: XUDNAN_clean_linker_2, # of connection points: 2
#     Edge 19, Type (0, 0), BuildingBlock: XUDNAN_clean_linker_2, # of connection points: 2
#     Edge 20, Type (0, 0), BuildingBlock: XUDNAN_clean_linker_2, # of connection points: 2
#     Edge 21, Type (0, 0), BuildingBlock: XUDNAN_clean_linker_2, # of connection points: 2
#     Edge 22, Type (0, 0), BuildingBlock: XUDNAN_clean_linker_2, # of connection points: 2
#     Edge 23, Type (0, 0), BuildingBlock: XUDNAN_clean_linker_2, # of connection points: 2
#     Edge 24, Type (0, 0), BuildingBlock: XUDNAN_clean_linker_2, # of connection points: 2
#     Edge 25, Type (0, 0), BuildingBlock: XUDNAN_clean_linker_2, # of connection points: 2
#     Edge 26, Type (0, 0), BuildingBlock: XUDNAN_clean_linker_2, # of connection points: 2
#     Edge 27, Type (0, 0), BuildingBlock: XUDNAN_clean_linker_2, # of connection points: 2
#     Edge 28, Type (0, 0), BuildingBlock: XUDNAN_clean_linker_2, # of connection points: 2
#     Edge 29, Type (0, 0), BuildingBlock: XUDNAN_clean_linker_2, # of connection points: 2
#     Edge 30, Type (0, 0), BuildingBlock: XUDNAN_clean_linker_2, # of connection points: 2
#     Edge 31, Type (0, 0), BuildingBlock: XUDNAN_clean_linker_2, # of connection points: 2
#     Edge 32, Type (0, 0), BuildingBlock: XUDNAN_clean_linker_2, # of connection points: 2
#     Edge 33, Type (0, 0), BuildingBlock: XUDNAN_clean_linker_2, # of connection points: 2
#     Edge 34, Type (0, 0), BuildingBlock: XUDNAN_clean_linker_2, # of connection points: 2
#     Edge 35, Type (0, 0), BuildingBlock: XUDNAN_clean_linker_2, # of connection points: 2
#     Edge 36, Type (0, 0), BuildingBlock: XUDNAN_clean_linker_2, # of connection points: 2
#     Edge 37, Type (0, 0), BuildingBlock: XUDNAN_clean_linker_2, # of connection points: 2
#     Edge 38, Type (0, 0), BuildingBlock: XUDNAN_clean_linker_2, # of connection points: 2
#     Edge 39, Type (0, 0), BuildingBlock: XUDNAN_clean_linker_2, # of connection points: 2
#     Edge 40, Type (0, 0), BuildingBlock: XUDNAN_clean_linker_2, # of connection points: 2
#     Edge 41, Type (0, 0), BuildingBlock: XUDNAN_clean_linker_2, # of connection points: 2
#     Edge 42, Type (0, 0), BuildingBlock: XUDNAN_clean_linker_2, # of connection points: 2
#     Edge 43, Type (0, 0), BuildingBlock: XUDNAN_clean_linker_2, # of connection points: 2
#     Edge 44, Type (0, 0), BuildingBlock: XUDNAN_clean_linker_2, # of connection points: 2
#     Edge 45, Type (0, 0), BuildingBlock: XUDNAN_clean_linker_2, # of connection points: 2
#     Edge 46, Type (0, 0), BuildingBlock: XUDNAN_clean_linker_2, # of connection points: 2
#     Edge 47, Type (0, 0), BuildingBlock: XUDNAN_clean_linker_2, # of connection points: 2
#     Edge 48, Type (0, 0), BuildingBlock: XUDNAN_clean_linker_2, # of connection points: 2
#     Edge 49, Type (0, 0), BuildingBlock: XUDNAN_clean_linker_2, # of connection points: 2
#     Edge 50, Type (0, 0), BuildingBlock: XUDNAN_clean_linker_2, # of connection points: 2
#     Edge 51, Type (0, 0), BuildingBlock: XUDNAN_clean_linker_2, # of connection points: 2
#     Edge 52, Type (0, 0), BuildingBlock: XUDNAN_clean_linker_2, # of connection points: 2
#     Edge 53, Type (0, 0), BuildingBlock: XUDNAN_clean_linker_2, # of connection points: 2
#     Edge 54, Type (0, 0), BuildingBlock: XUDNAN_clean_linker_2, # of connection points: 2
#     Edge 55, Type (0, 0), BuildingBlock: XUDNAN_clean_linker_2, # of connection points: 2
#     Edge 56, Type (0, 0), BuildingBlock: XUDNAN_clean_linker_2, # of connection points: 2
#     Edge 57, Type (0, 0), BuildingBlock: XUDNAN_clean_linker_2, # of connection points: 2
#     Edge 58, Type (0, 0), BuildingBlock: XUDNAN_clean_linker_2, # of connection points: 2
#     Edge 59, Type (0, 0), BuildingBlock: XUDNAN_clean_linker_2, # of connection points: 2
#     Edge 60, Type (0, 0), BuildingBlock: XUDNAN_clean_linker_2, # of connection points: 2
#     Edge 61, Type (0, 0), BuildingBlock: XUDNAN_clean_linker_2, # of connection points: 2
#     Edge 62, Type (0, 0), BuildingBlock: XUDNAN_clean_linker_2, # of connection points: 2
# Relax obj value: 0.326
# Max RMSD: 0.198
# Mean RMSD: 0.198
data_MOF--net-wlb--node1-XOMCOT_clean_sbu_0--edge1-XUDNAN_clean_linker_2
_symmetry_space_group_name_H-M    P1
_symmetry_Int_Tables_number       1
_symmetry_cell_setting            triclinic
loop_
_symmetry_equiv_pos_as_xyz
'x, y, z'
_cell_length_a     51.95997
_cell_length_b     52.126436
_cell_length_c     39.75332
_cell_angle_alpha  90.076515
_cell_angle_beta   89.890538
_cell_angle_gamma 119.90662
loop_
_atom_site_label
_atom_site_type_symbol
_atom_site_fract_x
_atom_site_fract_y
_atom_site_fract_z
_atom_type_partial_charge
Co0 Co 0.05404 0.20294 0.22989 0.0
C1 C 0.01423 0.22708 0.21524 0.0
C2 C 1.00265 0.20182 0.26104 0.0
C3 C 0.98171 0.21002 0.255 0.0
N4 N 0.02267 0.21208 0.23585 0.0
N5 N 0.98905 0.22581 0.22627 0.0
H6 H 0.02515 0.23706 0.19171 0.0
H7 H 1.00269 0.18837 0.2817 0.0
C8 C 0.0183 0.13639 0.22997 0.0
O9 O 0.03318 0.13597 0.20339 0.0
N10 N 0.08606 0.19371 0.22555 0.0
C11 C 0.11315 0.21058 0.21152 0.0
C12 C 0.12977 0.19688 0.21574 0.0
C13 C 0.08741 0.17078 0.2396 0.0
N14 N 0.1133 0.17171 0.23304 0.0
C15 C 0.06286 0.20956 0.15838 0.0
C16 C 1.00464 0.17126 0.14007 0.0
C17 C 0.02528 0.18795 0.11516 0.0
C18 C 0.05472 0.20713 0.12458 0.0
C19 C 0.01359 0.1748 0.17376 0.0
N20 N 0.04258 0.19339 0.18265 0.0
H21 H 0.08515 0.22589 0.16507 0.0
H22 H 0.99677 0.1637 0.1928 0.0
H23 H 0.12094 0.23188 0.19981 0.0
H24 H 0.07035 0.15405 0.25532 0.0
O25 O 0.08194 0.24439 0.22444 0.0
O26 O 0.07009 0.22122 0.27348 0.0
O27 O 0.02498 0.16093 0.24435 0.0
C28 C 0.08519 0.24596 0.25688 0.0
H29 H 0.96211 0.20411 0.26997 0.0
H30 H 0.15207 0.20463 0.20654 0.0
H31 H 0.98146 0.15694 0.1338 0.0
H32 H 0.07112 0.22092 0.10604 0.0
Co33 Co 0.80494 0.85092 0.24521 0.0
C34 C 0.77777 0.78513 0.237 0.0
C35 C 0.79953 0.80122 0.28437 0.0
C36 C 0.78763 0.77102 0.28364 0.0
N37 N 0.79365 0.81017 0.25498 0.0
N38 N 0.77409 0.76105 0.25376 0.0
H39 H 0.76832 0.78395 0.21264 0.0
H40 H 0.81183 0.81581 0.30493 0.0
C41 C 0.8617 0.84963 0.24931 0.0
O42 O 0.84815 0.8247 0.23235 0.0
N43 N 0.81626 0.89174 0.23696 0.0
C44 C 0.79997 0.90191 0.22161 0.0
C45 C 0.8157 0.93241 0.22201 0.0
C46 C 0.84176 0.91609 0.24607 0.0
N47 N 0.84192 0.94111 0.23721 0.0
C48 C 0.78695 0.83068 0.17756 0.0
C49 C 0.84259 0.85765 0.14833 0.0
C50 C 0.81802 0.83789 0.12904 0.0
C51 C 0.78984 0.82525 0.14382 0.0
C52 C 0.83864 0.86232 0.1823 0.0
N53 N 0.8113 0.84696 0.19725 0.0
H54 H 0.7649 0.82089 0.18804 0.0
H55 H 0.8577 0.87821 0.1964 0.0
H56 H 0.77814 0.88817 0.21096 0.0
H57 H 0.85964 0.91575 0.2595 0.0
O58 O 0.76357 0.8397 0.2431 0.0
O59 O 0.78989 0.85286 0.28992 0.0
O60 O 0.84775 0.86339 0.25671 0.0
C61 C 0.76428 0.84369 0.27534 0.0
H62 H 0.78918 0.75755 0.30335 0.0
H63 H 0.80862 0.94709 0.21163 0.0
H64 H 0.86469 0.86879 0.13758 0.0
H65 H 0.77006 0.81101 0.12945 0.0
Co66 Co 0.16367 0.95834 0.24536 0.0
C67 C 0.22845 0.9931 0.23225 0.0
C68 C 0.21573 0.00668 0.2774 0.0
C69 C 0.24587 0.0243 0.2731 0.0
N70 N 0.2049 0.98722 0.25182 0.0
N71 N 0.25376 0.0158 0.24466 0.0
H72 H 0.22714 0.9811 0.20948 0.0
H73 H 0.2025 0.00817 0.29753 0.0
C74 C 0.13567 0.99671 0.23725 0.0
O75 O 0.11897 0.97937 0.21288 0.0
N76 N 0.12162 0.92932 0.24024 0.0
C77 C 0.10856 0.90483 0.22086 0.0
C78 C 0.07822 0.89177 0.22419 0.0
C79 C 0.09888 0.92973 0.25643 0.0
N80 N 0.07207 0.90766 0.24627 0.0
C81 C 0.16799 0.94404 0.17671 0.0
C82 C 0.18161 0.99782 0.14869 0.0
C83 C 0.17789 0.97476 0.12737 0.0
C84 C 0.17187 0.94789 0.14203 0.0
C85 C 0.17769 0.99302 0.18344 0.0
N86 N 0.16898 0.96571 0.19688 0.0
H87 H 0.16495 0.92373 0.18732 0.0
H88 H 0.1823 0.01156 0.19942 0.0
H89 H 0.1198 0.89657 0.20531 0.0
H90 H 0.10197 0.9463 0.27486 0.0
O91 O 0.17348 0.92707 0.24825 0.0
O92 O 0.16144 0.94557 0.29168 0.0
O93 O 0.154 0.99113 0.25252 0.0
C94 C 0.16966 0.92722 0.28053 0.0
H95 H 0.26072 0.04244 0.28919 0.0
H96 H 0.06202 0.87256 0.21043 0.0
H97 H 0.18719 0.0193 0.13869 0.0
H98 H 0.17051 0.92998 0.12687 0.0
Co99 Co 0.21418 0.05883 0.7741 0.0
C100 C 0.22903 0.01068 0.78503 0.0
C101 C 0.2414 0.02963 0.7358 0.0
C102 C 0.24913 0.00817 0.73879 0.0
N103 N 0.22928 0.03184 0.76503 0.0
N104 N 0.24151 0.99635 0.76977 0.0
H105 H 0.21956 0.00537 0.81 0.0
H106 H 0.24473 0.04262 0.71342 0.0
C107 C 0.15494 0.0121 0.74539 0.0
O108 O 0.16088 0.02426 0.7154 0.0
N109 N 0.19867 0.0852 0.78227 0.0
C110 C 0.21052 0.10909 0.80245 0.0
C111 C 0.19282 0.12184 0.80138 0.0
C112 C 0.17405 0.08377 0.76913 0.0
N113 N 0.16972 0.10587 0.78044 0.0
C114 C 0.23669 0.05665 0.84007 0.0
C115 C 0.18168 0.03013 0.87115 0.0
C116 C 0.20612 0.03294 0.88903 0.0
C117 C 0.23419 0.04746 0.8737 0.0
C118 C 0.18513 0.0396 0.83795 0.0
N119 N 0.21197 0.05098 0.82215 0.0
H120 H 0.2581 0.06661 0.82776 0.0
H121 H 0.16588 0.03713 0.82474 0.0
H122 H 0.23061 0.11666 0.81697 0.0
H123 H 0.15956 0.06674 0.75185 0.0
O124 O 0.25411 0.09215 0.77166 0.0
O125 O 0.22362 0.07363 0.72821 0.0
O126 O 0.17316 0.02395 0.76956 0.0
C127 C 0.24987 0.09283 0.73959 0.0
H128 H 0.26034 1.00237 0.71985 0.0
H129 H 0.19699 0.14151 0.81498 0.0
H130 H 0.15982 0.01995 0.88254 0.0
H131 H 0.25365 0.05032 0.88695 0.0
Co132 Co 0.95591 0.15739 0.76009 0.0
C133 C 0.98993 0.21793 0.79075 0.0
C134 C 1.00215 0.217 0.7395 0.0
C135 C 0.01993 0.24515 0.75199 0.0
N136 N 0.98339 0.19979 0.7639 0.0
N137 N 0.01233 0.24552 0.78434 0.0
H138 H 0.97936 0.21138 0.81488 0.0
H139 H 1.00366 0.20933 0.71469 0.0
C140 C 0.01681 0.16404 0.7674 0.0
O141 O 0.02385 0.18589 0.78858 0.0
N142 N 0.92894 0.11503 0.75549 0.0
C143 C 0.89985 0.10054 0.74727 0.0
C144 C 0.89007 0.0706 0.74532 0.0
C145 C 0.93622 0.09363 0.75869 0.0
N146 N 0.91302 0.0664 0.75265 0.0
C147 C 0.93787 0.1609 0.82748 0.0
C148 C 0.97257 0.14253 0.86051 0.0
C149 C 0.95967 0.15606 0.87909 0.0
C150 C 0.94077 0.16376 0.8624 0.0
C151 C 0.96923 0.14032 0.8255 0.0
N152 N 0.9545 0.15224 0.80912 0.0
H153 H 0.92454 0.16861 0.81512 0.0
H154 H 0.97943 0.12985 0.81192 0.0
H155 H 0.8865 0.11077 0.74279 0.0
H156 H 0.9582 0.09773 0.76479 0.0
O157 O 0.92356 0.16575 0.75487 0.0
O158 O 0.95001 0.16293 0.71296 0.0
O159 O 0.99082 0.1504 0.75437 0.0
C160 C 0.92903 0.16798 0.72278 0.0
H161 H 0.03793 0.26347 0.73878 0.0
H162 H 0.86775 0.05326 0.73944 0.0
H163 H 0.98649 0.13525 0.8726 0.0
H164 H 0.9295 0.17332 0.87602 0.0
Co165 Co 0.86566 0.80743 0.77239 0.0
C166 C 0.80334 0.79006 0.7909 0.0
C167 C 0.81288 0.80195 0.7389 0.0
C168 C 0.78395 0.79433 0.74506 0.0
N169 N 0.82527 0.79976 0.7677 0.0
N170 N 0.77796 0.78704 0.7778 0.0
H171 H 0.80581 0.78531 0.81677 0.0
H172 H 0.82368 0.80777 0.71468 0.0
C173 C 0.88229 0.86539 0.73882 0.0
O174 O 0.87337 0.85225 0.70956 0.0
N175 N 0.90639 0.81544 0.77637 0.0
C176 C 0.91533 0.79591 0.7842 0.0
C177 C 0.94585 0.81038 0.78467 0.0
C178 C 0.93184 0.84151 0.77175 0.0
N179 N 0.95622 0.83905 0.77686 0.0
C180 C 0.86587 0.79356 0.84178 0.0
C181 C 0.85533 0.83656 0.86831 0.0
C182 C 0.85527 0.8153 0.88998 0.0
C183 C 0.8614 0.79411 0.87632 0.0
C184 C 0.85992 0.83525 0.8337 0.0
N185 N 0.86452 0.8135 0.82073 0.0
H186 H 0.86936 0.77628 0.83183 0.0
H187 H 0.85795 0.85069 0.81734 0.0
H188 H 0.90082 0.77267 0.78938 0.0
H189 H 0.93277 0.86209 0.76544 0.0
O190 O 0.85076 0.76548 0.77283 0.0
O191 O 0.86375 0.79241 0.72648 0.0
O192 O 0.88103 0.85073 0.76497 0.0
C193 C 0.85346 0.76642 0.7404 0.0
H194 H 0.76833 0.79347 0.7265 0.0
H195 H 0.95938 0.80048 0.7902 0.0
H196 H 0.85037 0.85314 0.87772 0.0
H197 H 0.86203 0.77752 0.89212 0.0
Co198 Co 0.72372 0.54245 0.57782 0.0
C199 C 0.68512 0.56846 0.56792 0.0
C200 C 0.6725 0.54025 0.61139 0.0
C201 C 0.65145 0.5485 0.6061 0.0
N202 N 0.69324 0.55235 0.5871 0.0
N203 N 0.65939 0.56608 0.57872 0.0
H204 H 0.69627 0.57939 0.54484 0.0
H205 H 0.67174 0.525 0.63031 0.0
C206 C 0.68964 0.4767 0.57143 0.0
O207 O 0.705 0.48004 0.54384 0.0
N208 N 0.75465 0.53212 0.57031 0.0
C209 C 0.77809 0.54384 0.54907 0.0
C210 C 0.79228 0.52749 0.55093 0.0
C211 C 0.75658 0.51037 0.58665 0.0
N212 N 0.77858 0.50642 0.5745 0.0
C213 C 0.72989 0.55086 0.50484 0.0
C214 C 0.67185 0.50904 0.49044 0.0
C215 C 0.69203 0.52118 0.46371 0.0
C216 C 0.72118 0.54338 0.47119 0.0
C217 C 0.68159 0.5169 0.52344 0.0
N218 N 0.7109 0.53572 0.53057 0.0
H219 H 0.75174 0.56898 0.51003 0.0
H220 H 0.66548 0.50711 0.54345 0.0
H221 H 0.78505 0.56306 0.5335 0.0
H222 H 0.74123 0.4966 0.60598 0.0
O223 O 0.75291 0.58447 0.57647 0.0
O224 O 0.74001 0.55625 0.62205 0.0
O225 O 0.69449 0.49935 0.58897 0.0
C226 C 0.7559 0.58238 0.60873 0.0
H227 H 0.63104 0.54086 0.62015 0.0
H228 H 0.81102 0.53061 0.5359 0.0
H229 H 0.64865 0.49324 0.48603 0.0
H230 H 0.73733 0.55446 0.45141 0.0
Co231 Co 0.4694 0.18662 0.56835 0.0
C232 C 0.43753 0.12345 0.54512 0.0
C233 C 0.45565 0.12825 0.59448 0.0
C234 C 0.44386 0.0991 0.58458 0.0
N235 N 0.45228 0.14372 0.56932 0.0
N236 N 0.43292 0.09641 0.55327 0.0
H237 H 0.43088 0.12793 0.52141 0.0
H238 H 0.46746 0.13788 0.61764 0.0
C239 C 0.52079 0.17662 0.56054 0.0
O240 O 0.50255 0.15364 0.5424 0.0
N241 N 0.48593 0.22898 0.56823 0.0
C242 C 0.47619 0.24376 0.54916 0.0
C243 C 0.4958 0.27359 0.55204 0.0
C244 C 0.51111 0.24997 0.58293 0.0
N245 N 0.51762 0.2774 0.57327 0.0
C246 C 0.44921 0.17822 0.49999 0.0
C247 C 0.50386 0.20283 0.46876 0.0
C248 C 0.47814 0.18879 0.44892 0.0
C249 C 0.45058 0.17706 0.46513 0.0
C250 C 0.50134 0.2032 0.50387 0.0
N251 N 0.47416 0.18857 0.51925 0.0
H252 H 0.4276 0.16911 0.51151 0.0
H253 H 0.52134 0.21555 0.51841 0.0
H254 H 0.45684 0.23348 0.5331 0.0
H255 H 0.52515 0.24532 0.59887 0.0
O256 O 0.43016 0.18142 0.5697 0.0
O257 O 0.45578 0.18443 0.61514 0.0
O258 O 0.51111 0.19228 0.57489 0.0
C259 C 0.43112 0.18089 0.60215 0.0
H260 H 0.44491 0.08179 0.59843 0.0
H261 H 0.49462 0.29116 0.53891 0.0
H262 H 0.5257 0.21375 0.45734 0.0
H263 H 0.42994 0.16625 0.45123 0.0
Co264 Co 0.8211 0.28944 0.56719 0.0
C265 C 0.88575 0.32734 0.55967 0.0
C266 C 0.8701 0.33715 0.60528 0.0
C267 C 0.90053 0.35504 0.60364 0.0
N268 N 0.861 0.31995 0.57764 0.0
N269 N 0.9102 0.34888 0.57487 0.0
H270 H 0.88588 0.31683 0.53621 0.0
H271 H 0.85567 0.33651 0.62529 0.0
C272 C 0.79058 0.32523 0.56538 0.0
O273 O 0.77935 0.31265 0.53627 0.0
N274 N 0.78044 0.25779 0.55755 0.0
C275 C 0.77288 0.23262 0.5404 0.0
C276 C 0.74257 0.21661 0.537 0.0
C277 C 0.75402 0.25541 0.56631 0.0
N278 N 0.7307 0.23108 0.55294 0.0
C279 C 0.82516 0.28697 0.49481 0.0
C280 C 0.845 0.34611 0.48302 0.0
C281 C 0.84247 0.32807 0.45545 0.0
C282 C 0.83265 0.29807 0.46203 0.0
C283 C 0.83854 0.33439 0.51547 0.0
N284 N 0.82725 0.3048 0.52108 0.0
H285 H 0.81918 0.26432 0.49909 0.0
H286 H 0.84298 0.3494 0.53625 0.0
H287 H 0.78818 0.22616 0.53053 0.0
H288 H 0.75158 0.27138 0.58122 0.0
O289 O 0.83561 0.26229 0.56074 0.0
O290 O 0.82014 0.26984 0.60962 0.0
O291 O 0.80625 0.31716 0.58247 0.0
C292 C 0.83158 0.25644 0.59264 0.0
H293 H 0.91442 0.37146 0.62203 0.0
H294 H 0.7302 0.19628 0.52285 0.0
H295 H 0.85218 0.36933 0.48008 0.0
H296 H 0.83158 0.28319 0.4424 0.0
Co297 Co 0.87807 0.38632 0.09259 0.0
C298 C 0.90163 0.34637 0.10916 0.0
C299 C 0.875 0.33338 0.06434 0.0
C300 C 0.88232 0.31205 0.07163 0.0
N301 N 0.88673 0.35461 0.08809 0.0
N302 N 0.89904 0.32033 0.09969 0.0
H303 H 0.91241 0.35803 0.13204 0.0
H304 H 0.86081 0.33274 0.04409 0.0
C305 C 0.81043 0.35083 0.0993 0.0
O306 O 0.81031 0.36834 0.12304 0.0
N307 N 0.86898 0.41824 0.09582 0.0
C308 C 0.88551 0.44516 0.11005 0.0
C309 C 0.87131 0.4613 0.10588 0.0
C310 C 0.84568 0.41904 0.08191 0.0
N311 N 0.84613 0.44462 0.08854 0.0
C312 C 0.89704 0.40227 0.16077 0.0
C313 C 0.85204 0.35269 0.19154 0.0
C314 C 0.87323 0.37546 0.21203 0.0
C315 C 0.8966 0.39995 0.19573 0.0
C316 C 0.85411 0.35539 0.15644 0.0
N317 N 0.87523 0.38087 0.14146 0.0
H318 H 0.91559 0.42112 0.14929 0.0
H319 H 0.83886 0.33665 0.14154 0.0
H320 H 0.90666 0.453 0.12223 0.0
H321 H 0.8287 0.40144 0.06693 0.0
O322 O 0.92006 0.41482 0.08901 0.0
O323 O 0.8891 0.39682 0.04594 0.0
O324 O 0.83479 0.35584 0.08555 0.0
C325 C 0.91607 0.41398 0.05668 0.0
H326 H 0.87494 0.29145 0.05825 0.0
H327 H 0.87851 0.48326 0.11559 0.0
H328 H 0.83381 0.33283 0.20212 0.0
H329 H 0.91492 0.4173 0.20956 0.0
Co330 Co 0.62855 0.48822 0.1055 0.0
C331 C 0.65965 0.54801 0.134 0.0
C332 C 0.68089 0.54556 0.08867 0.0
C333 C 0.69715 0.57371 0.10179 0.0
N334 N 0.65766 0.52955 0.10919 0.0
N335 N 0.68384 0.57499 0.13044 0.0
H336 H 0.64409 0.54149 0.15471 0.0
H337 H 0.68603 0.53715 0.0663 0.0
C338 C 0.66874 0.46213 0.10371 0.0
O339 O 0.65248 0.44351 0.12745 0.0
N340 N 0.59838 0.44648 0.1006 0.0
C341 C 0.56925 0.43402 0.10865 0.0
C342 C 0.55478 0.40465 0.09961 0.0
C343 C 0.60063 0.42452 0.08519 0.0
N344 N 0.57467 0.3988 0.08519 0.0
C345 C 0.61123 0.47112 0.17458 0.0
C346 C 0.66813 0.49553 0.2002 0.0
C347 C 0.64402 0.48257 0.2224 0.0
C348 C 0.61528 0.47008 0.2092 0.0
C349 C 0.66309 0.49559 0.16568 0.0
N350 N 0.63486 0.48321 0.15305 0.0
H351 H 0.58909 0.46324 0.16546 0.0
H352 H 0.68207 0.50653 0.14914 0.0
H353 H 0.55883 0.44535 0.12012 0.0
H354 H 0.6204 0.42701 0.07326 0.0
O355 O 0.59785 0.49835 0.11074 0.0
O356 O 0.61706 0.496 0.0618 0.0
O357 O 0.66143 0.48026 0.09128 0.0
C358 C 0.59846 0.50132 0.07823 0.0
H359 H 0.71776 0.59144 0.0918 0.0
H360 H 0.53165 0.38864 0.1041 0.0
H361 H 0.6907 0.50561 0.20943 0.0
H362 H 0.59607 0.46052 0.22564 0.0
Co363 Co 0.52402 0.13714 0.09832 0.0
C364 C 0.46151 0.10545 0.11514 0.0
C365 C 0.46867 0.13475 0.07387 0.0
C366 C 0.43958 0.12279 0.08482 0.0
N367 N 0.48231 0.12403 0.09342 0.0
N368 N 0.43547 0.10476 0.11109 0.0
H369 H 0.46616 0.09461 0.13552 0.0
H370 H 0.47954 0.15158 0.05482 0.0
C371 C 0.55237 0.20335 0.09865 0.0
O372 O 0.56744 0.20389 0.12544 0.0
N373 N 0.56593 0.14931 0.1031 0.0
C374 C 0.57733 0.13439 0.11918 0.0
C375 C 0.6077 0.14934 0.1153 0.0
C376 C 0.58962 0.17238 0.08825 0.0
N377 N 0.61529 0.17336 0.09621 0.0
C378 C 0.52496 0.13109 0.17134 0.0
C379 C 0.5022 0.16795 0.18492 0.0
C380 C 0.5065 0.15316 0.21173 0.0
C381 C 0.51843 0.13475 0.20474 0.0
C382 C 0.5085 0.16336 0.1523 0.0
N383 N 0.52048 0.14574 0.14555 0.0
H384 H 0.53199 0.11525 0.16624 0.0
H385 H 0.5023 0.17309 0.13222 0.0
H386 H 0.56461 0.11357 0.13211 0.0
H387 H 0.58836 0.18793 0.07136 0.0
O388 O 0.51346 0.09576 0.10134 0.0
O389 O 0.52454 0.12211 0.05432 0.0
O390 O 0.53445 0.17867 0.08456 0.0
C391 C 0.51643 0.09681 0.06872 0.0
H392 H 0.42358 0.12882 0.0761 0.0
H393 H 0.62307 0.14328 0.12601 0.0
H394 H 0.49316 0.18248 0.18885 0.0
H395 H 0.52142 0.12229 0.22461 0.0
Co396 Co 0.3892 0.87059 0.91047 0.0
C397 C 0.3533 0.8962 0.88565 0.0
C398 C 0.33894 0.87663 0.93448 0.0
C399 C 0.32062 0.88718 0.92403 0.0
N400 N 0.35918 0.8821 0.91022 0.0
N401 N 0.3296 0.89914 0.89322 0.0
H402 H 0.36553 0.9034 0.86223 0.0
H403 H 0.33713 0.86504 0.9577 0.0
C404 C 0.35076 0.80445 0.90875 0.0
O405 O 0.36778 0.80374 0.88469 0.0
N406 N 0.42019 0.8596 0.91199 0.0
C407 C 0.44869 0.87658 0.90197 0.0
C408 C 0.46387 0.86173 0.90753 0.0
C409 C 0.41929 0.83536 0.92565 0.0
N410 N 0.44526 0.83551 0.92194 0.0
C411 C 0.40588 0.87669 0.84085 0.0
C412 C 0.34959 0.84176 0.81475 0.0
C413 C 0.37342 0.85742 0.79264 0.0
C414 C 0.40188 0.87462 0.80611 0.0
C415 C 0.35456 0.8445 0.84952 0.0
N416 N 0.38257 0.86163 0.86232 0.0
H417 H 0.42759 0.89193 0.85026 0.0
H418 H 0.33557 0.83415 0.8661 0.0
H419 H 0.45838 0.89869 0.89186 0.0
H420 H 0.40015 0.81789 0.93815 0.0
O421 O 0.41914 0.91153 0.90681 0.0
O422 O 0.40149 0.88811 0.95515 0.0
O423 O 0.35707 0.82901 0.92283 0.0
C424 C 0.4196 0.91257 0.93944 0.0
H425 H 0.30136 0.88494 0.93722 0.0
H426 H 0.48699 0.86989 0.90154 0.0
H427 H 0.32711 0.82888 0.80538 0.0
H428 H 0.42088 0.88731 0.78993 0.0
Co429 Co 0.1463 0.51884 0.9042 0.0
C430 C 0.11982 0.45456 0.89615 0.0
C431 C 0.14707 0.47009 0.94038 0.0
C432 C 0.13531 0.4399 0.93799 0.0
N433 N 0.13738 0.47911 0.91404 0.0
N434 N 0.11828 0.43025 0.91009 0.0
H435 H 0.10827 0.45456 0.87352 0.0
H436 H 0.16167 0.48446 0.95985 0.0
C437 C 0.21233 0.55205 0.90328 0.0
O438 O 0.21005 0.56374 0.87493 0.0
N439 N 0.15501 0.55924 0.89559 0.0
C440 C 0.13965 0.56858 0.87671 0.0
C441 C 0.15256 0.59891 0.87973 0.0
C442 C 0.17601 0.58395 0.91109 0.0
N443 N 0.1756 0.60839 0.90106 0.0
C444 C 0.13968 0.51384 0.832 0.0
C445 C 0.18176 0.49718 0.82067 0.0
C446 C 0.16529 0.498 0.79309 0.0
C447 C 0.1437 0.5062 0.79944 0.0
C448 C 0.17601 0.50361 0.85292 0.0
N449 N 0.1563 0.51335 0.85825 0.0
H450 H 0.12197 0.5185 0.83623 0.0
H451 H 0.1872 0.50012 0.87377 0.0
H452 H 0.11989 0.55454 0.86243 0.0
H453 H 0.19124 0.58426 0.9298 0.0
O454 O 0.10476 0.50457 0.89733 0.0
O455 O 0.12744 0.51939 0.94651 0.0
O456 O 0.18887 0.53415 0.91966 0.0
C457 C 0.10283 0.50854 0.92925 0.0
H458 H 0.13937 0.42622 0.95518 0.0
H459 H 0.14588 0.61295 0.86687 0.0
H460 H 0.19887 0.4913 0.81793 0.0
H461 H 0.12912 0.50585 0.77986 0.0
Co462 Co 0.50237 0.62613 0.91083 0.0
C463 C 0.56454 0.67135 0.89015 0.0
C464 C 0.56129 0.66248 0.94294 0.0
C465 C 0.59047 0.6824 0.93537 0.0
N466 N 0.54484 0.65516 0.91448 0.0
N467 N 0.59227 0.68801 0.90222 0.0
H468 H 0.55905 0.67183 0.86413 0.0
H469 H 0.55292 0.65403 0.96778 0.0
C470 C 0.50423 0.68452 0.90976 0.0
O471 O 0.52594 0.69381 0.88784 0.0
N472 N 0.4606 0.59737 0.90794 0.0
C473 C 0.44802 0.57431 0.88649 0.0
C474 C 0.41765 0.5619 0.88829 0.0
C475 C 0.43782 0.59837 0.92304 0.0
N476 N 0.41137 0.57703 0.91129 0.0
C477 C 0.51783 0.62354 0.84144 0.0
C478 C 0.48136 0.64254 0.814 0.0
C479 C 0.49874 0.63615 0.79237 0.0
C480 C 0.51712 0.62643 0.80643 0.0
C481 C 0.48312 0.63984 0.84869 0.0
N482 N 0.50218 0.63172 0.86222 0.0
H483 H 0.5316 0.61544 0.85202 0.0
H484 H 0.46848 0.64361 0.86462 0.0
H485 H 0.46016 0.56799 0.86944 0.0
H486 H 0.44049 0.61536 0.94067 0.0
O487 O 0.51194 0.59452 0.91172 0.0
O488 O 0.50226 0.61374 0.95647 0.0
O489 O 0.49206 0.65803 0.92093 0.0
C490 C 0.50931 0.59488 0.94429 0.0
H491 H 0.60883 0.69238 0.95289 0.0
H492 H 0.40143 0.54383 0.87308 0.0
H493 H 0.46638 0.64951 0.80418 0.0
H494 H 0.53028 0.62048 0.79051 0.0
Co495 Co 0.53906 0.7116 0.43487 0.0
C496 C 0.56824 0.67643 0.44814 0.0
C497 C 0.54163 0.66216 0.40332 0.0
C498 C 0.5512 0.64241 0.41028 0.0
N499 N 0.5519 0.68312 0.42741 0.0
N500 N 0.56786 0.65146 0.4384 0.0
H501 H 0.57787 0.68796 0.47147 0.0
H502 H 0.52661 0.66027 0.38343 0.0
C503 C 0.47228 0.67318 0.4357 0.0
O504 O 0.47127 0.68775 0.46221 0.0
N505 N 0.5259 0.74046 0.44112 0.0
C506 C 0.53694 0.76422 0.46164 0.0
C507 C 0.51979 0.77747 0.45888 0.0
C508 C 0.50338 0.74094 0.42462 0.0
N509 N 0.49834 0.76253 0.43589 0.0
C510 C 0.54791 0.71858 0.5073 0.0
C511 C 0.50639 0.66091 0.52335 0.0
C512 C 0.52054 0.68108 0.54955 0.0
C513 C 0.54231 0.71007 0.54121 0.0
C514 C 0.51282 0.67028 0.49002 0.0
N515 N 0.53178 0.69933 0.48219 0.0
H516 H 0.56567 0.74044 0.50135 0.0
H517 H 0.50265 0.65387 0.47046 0.0
H518 H 0.55623 0.77192 0.47741 0.0
H519 H 0.49063 0.72548 0.40495 0.0
O520 O 0.5805 0.74278 0.43717 0.0
O521 O 0.55338 0.72795 0.39075 0.0
O522 O 0.49723 0.68015 0.4219 0.0
C523 C 0.57897 0.74521 0.40471 0.0
H524 H 0.54498 0.62203 0.3969 0.0
H525 H 0.52251 0.79618 0.47351 0.0
H526 H 0.49059 0.6379 0.52856 0.0
H527 H 0.5546 0.72613 0.56064 0.0
Co528 Co 0.28726 0.81835 0.4394 0.0
C529 C 0.32552 0.88425 0.44871 0.0
C530 C 0.33311 0.86844 0.40208 0.0
C531 C 0.35167 0.89855 0.40349 0.0
N532 N 0.31704 0.8593 0.43069 0.0
N533 N 0.34691 0.90843 0.43289 0.0
H534 H 0.31597 0.88529 0.47228 0.0
H535 H 0.33158 0.85401 0.38166 0.0
C536 C 0.34503 0.81928 0.43494 0.0
O537 O 0.35599 0.84347 0.45324 0.0
N538 N 0.25751 0.77741 0.44666 0.0
C539 C 0.23134 0.7672 0.46276 0.0
C540 C 0.21641 0.73671 0.46195 0.0
C541 C 0.25836 0.75306 0.43668 0.0
N542 N 0.23355 0.728 0.44573 0.0
C543 C 0.29052 0.83781 0.50745 0.0
C544 C 0.31813 0.80914 0.53479 0.0
C545 C 0.31487 0.8297 0.55441 0.0
C546 C 0.29982 0.84319 0.54079 0.0
C547 C 0.30875 0.80474 0.50117 0.0
N548 N 0.29755 0.82109 0.48709 0.0
H549 H 0.27837 0.84799 0.49783 0.0
H550 H 0.31098 0.78852 0.48648 0.0
H551 H 0.22359 0.7809 0.47435 0.0
H552 H 0.27639 0.75348 0.42262 0.0
O553 O 0.25746 0.82985 0.44306 0.0
O554 O 0.27023 0.81777 0.39515 0.0
O555 O 0.31749 0.80591 0.42673 0.0
C556 C 0.25408 0.82683 0.41078 0.0
H557 H 0.36766 0.91198 0.38448 0.0
H558 H 0.19483 0.72205 0.4728 0.0
H559 H 0.32866 0.79739 0.54495 0.0
H560 H 0.29561 0.85814 0.55571 0.0
Co561 Co 0.18526 0.46534 0.43028 0.0
C562 C 0.1242 0.43725 0.45623 0.0
C563 C 0.12942 0.46397 0.41291 0.0
C564 C 0.10093 0.45275 0.42522 0.0
N565 N 0.14393 0.45436 0.43262 0.0
N566 N 0.09792 0.43625 0.45265 0.0
H567 H 0.12925 0.42643 0.47626 0.0
H568 H 0.13919 0.47888 0.39184 0.0
C569 C 0.2151 0.5321 0.43885 0.0
O570 O 0.23385 0.53174 0.46073 0.0
N571 N 0.22694 0.47599 0.42732 0.0
C572 C 0.23863 0.4589 0.43617 0.0
C573 C 0.26858 0.47381 0.42937 0.0
C574 C 0.24997 0.50056 0.41378 0.0
N575 N 0.27565 0.50009 0.41568 0.0
C576 C 0.19121 0.44873 0.49761 0.0
C577 C 0.18067 0.48922 0.53062 0.0
C578 C 0.18567 0.46962 0.55012 0.0
C579 C 0.19035 0.44873 0.53276 0.0
C580 C 0.18031 0.48746 0.4956 0.0
N581 N 0.1872 0.46856 0.47933 0.0
H582 H 0.19365 0.43171 0.48519 0.0
H583 H 0.17359 0.5009 0.48172 0.0
H584 H 0.22637 0.43683 0.44636 0.0
H585 H 0.24822 0.51836 0.4022 0.0
O586 O 0.17324 0.42374 0.42536 0.0
O587 O 0.18068 0.45452 0.38329 0.0
O588 O 0.19561 0.50811 0.42475 0.0
C589 C 0.17323 0.42788 0.39308 0.0
H590 H 0.08427 0.45756 0.41577 0.0
H591 H 0.28412 0.46625 0.4348 0.0
H592 H 0.17674 0.50584 0.54184 0.0
H593 H 0.19254 0.43176 0.54584 0.0
H594 H 0.95363 0.33584 0.12372 0.0
H595 H 0.86267 0.26411 0.11844 0.0
H596 H 0.87598 0.23215 0.15136 0.0
H597 H 0.98665 0.28954 0.1129 0.0
H598 H 0.01721 0.31085 0.14102 0.0
H599 H 1.00032 0.32857 0.11841 0.0
H600 H 0.99048 0.34746 0.17463 0.0
H601 H 1.00735 0.3298 0.1974 0.0
H602 H 0.9701 0.32134 0.20756 0.0
H603 H 0.89856 0.20877 0.18585 0.0
H604 H 0.93011 0.19356 0.21656 0.0
H605 H 1.00753 0.27883 0.19615 0.0
C606 C 0.93667 0.31344 0.12978 0.0
C607 C 0.90716 0.30223 0.11888 0.0
C608 C 0.88539 0.2728 0.12664 0.0
C609 C 0.89273 0.25464 0.14534 0.0
C610 C 0.92206 0.26619 0.1556 0.0
C611 C 0.94381 0.29476 0.14782 0.0
C612 C 0.97388 0.30114 0.16073 0.0
C613 C 0.9958 0.30792 0.13152 0.0
C614 C 0.98617 0.32643 0.18662 0.0
C615 C 0.96553 0.27177 0.17716 0.0
C616 C 0.93545 0.2521 0.1742 0.0
C617 C 0.92217 0.22388 0.18819 0.0
C618 C 0.94016 0.21549 0.20566 0.0
C619 C 0.97107 0.23506 0.20853 0.0
C620 C 0.98394 0.26348 0.19393 0.0
H621 H 0.71587 0.63366 0.11639 0.0
H622 H 0.67664 0.57066 0.19814 0.0
H623 H 0.69548 0.61177 0.23891 0.0
H624 H 0.78245 0.68509 0.16027 0.0
H625 H 0.78389 0.71735 0.14179 0.0
H626 H 0.76709 0.68288 0.11903 0.0
H627 H 0.71856 0.68512 0.1131 0.0
H628 H 0.73528 0.71957 0.13589 0.0
H629 H 0.70074 0.68879 0.15029 0.0
H630 H 0.71912 0.65964 0.27082 0.0
H631 H 0.74505 0.71124 0.29149 0.0
H632 H 0.7692 0.74279 0.18897 0.0
C633 C 0.71137 0.62857 0.14288 0.0
C634 C 0.69464 0.59902 0.15408 0.0
C635 C 0.68895 0.59317 0.18894 0.0
C636 C 0.69973 0.61634 0.21231 0.0
C637 C 0.71609 0.64522 0.2004 0.0
C638 C 0.72185 0.65144 0.16652 0.0
C639 C 0.73989 0.68443 0.16033 0.0
C640 C 0.77013 0.69293 0.14443 0.0
C641 C 0.72257 0.69509 0.13863 0.0
C642 C 0.74339 0.69575 0.19604 0.0
C643 C 0.72959 0.67281 0.21879 0.0
C644 C 0.73002 0.67783 0.25326 0.0
C645 C 0.74492 0.70715 0.26478 0.0
C646 C 0.75904 0.731 0.24185 0.0
C647 C 0.75823 0.72507 0.20707 0.0
H648 H 0.37599 0.07695 0.09886 0.0
H649 H 0.44171 0.10778 0.17845 0.0
H650 H 0.40199 0.08771 0.22099 0.0
H651 H 0.3231 0.09182 0.14225 0.0
H652 H 0.29093 0.05904 0.12669 0.0
H653 H 0.32457 0.07638 0.10216 0.0
H654 H 0.32474 0.02679 0.10031 0.0
H655 H 0.29119 0.0094 0.12503 0.0
H656 H 0.32365 0.00844 0.13914 0.0
H657 H 0.356 0.06464 0.25491 0.0
H658 H 0.30543 0.03961 0.27879 0.0
H659 H 0.26838 0.02244 0.17814 0.0
C660 C 0.38181 0.07949 0.12526 0.0
C661 C 0.41184 0.09359 0.13543 0.0
C662 C 0.41883 0.09655 0.17017 0.0
C663 C 0.39644 0.08536 0.19451 0.0
C664 C 0.36708 0.07113 0.18377 0.0
C665 C 0.35958 0.0681 0.15005 0.0
C666 C 0.3261 0.0514 0.14564 0.0
C667 C 0.31556 0.07083 0.12816 0.0
C668 C 0.31583 0.02228 0.12639 0.0
C669 C 0.31614 0.04565 0.18212 0.0
C670 C 0.34022 0.05735 0.20359 0.0
C671 C 0.33691 0.05537 0.23841 0.0
C672 C 0.30815 0.04123 0.25174 0.0
C673 C 0.28307 0.02911 0.23035 0.0
C674 C 0.28718 0.03117 0.19505 0.0
H675 H 0.25376 0.99168 0.83536 0.0
H676 H 0.24582 0.95344 0.73627 0.0
H677 H 0.26538 0.92241 0.75834 0.0
H678 H 0.32082 0.99673 0.85699 0.0
H679 H 0.31199 0.9868 0.90062 0.0
H680 H 0.29436 1.00388 0.87829 0.0
H681 H 0.24256 0.96006 0.89356 0.0
H682 H 0.25998 0.94295 0.9164 0.0
H683 H 0.23374 0.92281 0.88348 0.0
H684 H 0.29149 0.90055 0.78875 0.0
H685 H 0.31802 0.88488 0.82777 0.0
H686 H 0.30695 0.93475 0.90821 0.0
C687 C 0.25528 0.97613 0.81858 0.0
C688 C 0.24842 0.97511 0.78401 0.0
C689 C 0.25132 0.95489 0.7627 0.0
C690 C 0.26228 0.93707 0.77503 0.0
C691 C 0.2699 0.93942 0.80887 0.0
C692 C 0.26609 0.95801 0.83056 0.0
C693 C 0.27737 0.95722 0.86549 0.0
C694 C 0.30263 0.98799 0.87594 0.0
C695 C 0.25188 0.94502 0.89125 0.0
C696 C 0.28871 0.93581 0.85976 0.0
C697 C 0.28423 0.92591 0.82686 0.0
C698 C 0.29467 0.9077 0.81473 0.0
C699 C 0.3099 0.89913 0.83691 0.0
C700 C 0.3143 0.90856 0.87084 0.0
C701 C 0.3034 0.92696 0.88245 0.0
H702 H 0.10421 0.41299 0.84492 0.0
H703 H 0.09561 0.37968 0.94674 0.0
H704 H 0.06776 0.32847 0.92528 0.0
H705 H 0.03134 0.35842 0.81689 0.0
H706 H 0.04354 0.35591 0.77516 0.0
H707 H 0.06313 0.38993 0.79854 0.0
H708 H 0.1122 0.38902 0.79106 0.0
H709 H 0.09279 0.35496 0.76772 0.0
H710 H 0.11404 0.35693 0.8044 0.0
H711 H 0.04051 0.28109 0.89295 0.0
H712 H 0.01626 0.24056 0.85195 0.0
H713 H 0.04161 0.30464 0.77107 0.0
C714 C 0.09626 0.39496 0.86277 0.0
C715 C 0.10207 0.40037 0.89757 0.0
C716 C 0.09173 0.37609 0.91998 0.0
C717 C 0.07575 0.34694 0.90804 0.0
C718 C 0.07038 0.34244 0.87362 0.0
C719 C 0.08035 0.36576 0.85128 0.0
C720 C 0.07167 0.35487 0.81549 0.0
C721 C 0.0512 0.3654 0.80066 0.0
C722 C 0.09932 0.36452 0.79337 0.0
C723 C 0.05514 0.32174 0.82121 0.0
C724 C 0.05465 0.31508 0.85493 0.0
C725 C 0.04063 0.28602 0.86649 0.0
C726 C 0.02669 0.26313 0.84297 0.0
C727 C 0.02676 0.26936 0.80822 0.0
C728 C 0.04132 0.29914 0.79735 0.0
H729 H 0.64771 0.69597 0.90898 0.0
H730 H 0.59505 0.72399 0.85196 0.0
H731 H 0.63857 0.75551 0.81636 0.0
H732 H 0.71876 0.76668 0.90506 0.0
H733 H 0.74045 0.74866 0.89999 0.0
H734 H 0.7061 0.73067 0.92327 0.0
H735 H 0.68682 0.68484 0.88433 0.0
H736 H 0.72104 0.70269 0.86094 0.0
H737 H 0.68615 0.68952 0.83947 0.0
H738 H 0.68644 0.78174 0.7855 0.0
H739 H 0.73541 0.79992 0.75939 0.0
H740 H 0.75698 0.75327 0.83464 0.0
C741 C 0.64567 0.70928 0.88944 0.0
C742 C 0.6182 0.70779 0.8832 0.0
C743 C 0.61594 0.72483 0.85693 0.0
C744 C 0.64054 0.74289 0.83678 0.0
C745 C 0.6672 0.74354 0.84319 0.0
C746 C 0.66997 0.72718 0.86881 0.0
C747 C 0.70056 0.7302 0.86863 0.0
C748 C 0.71746 0.74493 0.90117 0.0
C749 C 0.6985 0.70002 0.863 0.0
C750 C 0.71431 0.75041 0.83858 0.0
C751 C 0.69476 0.75809 0.82462 0.0
C752 C 0.70197 0.77591 0.79619 0.0
C753 C 0.72981 0.78591 0.78136 0.0
C754 C 0.75008 0.77784 0.79466 0.0
C755 C 0.74222 0.76012 0.82398 0.0
H756 H 0.67643 0.61875 0.5483 0.0
H757 H 0.60083 0.53177 0.56688 0.0
H758 H 0.56924 0.54434 0.53224 0.0
H759 H 0.63469 0.658 0.55246 0.0
H760 H 0.65624 0.684 0.51993 0.0
H761 H 0.67297 0.66811 0.54609 0.0
H762 H 0.68766 0.64954 0.49291 0.0
H763 H 0.67081 0.66519 0.4666 0.0
H764 H 0.65938 0.62648 0.4631 0.0
H765 H 0.54678 0.56495 0.49302 0.0
H766 H 0.53314 0.59458 0.45626 0.0
H767 H 0.6219 0.6697 0.46607 0.0
C768 C 0.65318 0.60254 0.54511 0.0
C769 C 0.64092 0.57436 0.56024 0.0
C770 C 0.61044 0.55359 0.55578 0.0
C771 C 0.59243 0.56046 0.536 0.0
C772 C 0.60517 0.58837 0.52126 0.0
C773 C 0.6347 0.6093 0.52597 0.0
C774 C 0.64253 0.63792 0.50794 0.0
C775 C 0.65217 0.66352 0.53311 0.0
C776 C 0.66651 0.6452 0.48104 0.0
C777 C 0.61287 0.62963 0.49206 0.0
C778 C 0.59176 0.6008 0.49978 0.0
C779 C 0.56301 0.58763 0.48703 0.0
C780 C 0.55551 0.60447 0.46607 0.0
C781 C 0.57653 0.63422 0.4585 0.0
C782 C 0.60552 0.647 0.47175 0.0
H783 H 0.35362 0.92702 0.49818 0.0
H784 H 0.37343 0.95839 0.39501 0.0
H785 H 0.39887 0.00983 0.41535 0.0
H786 H 0.33783 0.98299 0.52758 0.0
H787 H 0.3543 0.98623 0.56836 0.0
H788 H 0.33841 0.95165 0.54588 0.0
H789 H 0.38823 0.95192 0.55033 0.0
H790 H 0.40439 0.98657 0.5727 0.0
H791 H 0.42178 0.98336 0.53489 0.0
H792 H 0.42171 0.05739 0.44613 0.0
H793 H 0.43995 0.09903 0.4856 0.0
H794 H 0.40387 0.03765 0.56936 0.0
C795 C 0.36306 0.94464 0.47979 0.0
C796 C 0.36154 0.93854 0.4449 0.0
C797 C 0.37464 0.96238 0.42182 0.0
C798 C 0.38903 0.99172 0.43312 0.0
C799 C 0.39011 0.99688 0.46759 0.0
C800 C 0.37744 0.9741 0.49064 0.0
C801 C 0.38141 0.98588 0.5263 0.0
C802 C 0.35119 0.97611 0.54301 0.0
C803 C 0.40007 0.97636 0.54728 0.0
C804 C 0.39817 0.0189 0.51959 0.0
C805 C 0.40298 0.02461 0.48552 0.0
C806 C 0.41788 0.05325 0.47285 0.0
C807 C 0.42792 0.07678 0.49554 0.0
C808 C 0.42285 0.07165 0.53061 0.0
C809 C 0.40804 0.04225 0.54275 0.0
H810 H 0.03925 0.41156 0.43783 0.0
H811 H 0.10122 0.4328 0.52027 0.0
H812 H 0.05958 0.41235 0.56066 0.0
H813 H 0.98889 0.42909 0.48039 0.0
H814 H 0.95599 0.39889 0.46204 0.0
H815 H 0.99068 0.41505 0.43949 0.0
H816 H 0.98635 0.36345 0.43469 0.0
H817 H 0.95164 0.34718 0.45723 0.0
H818 H 0.98156 0.34221 0.47229 0.0
H819 H 0.01153 0.39134 0.59227 0.0
H820 H 0.95975 0.36852 0.61274 0.0
H821 H 0.92873 0.3597 0.50991 0.0
C822 C 0.04395 0.41188 0.46439 0.0
C823 C 0.07341 0.42361 0.47593 0.0
C824 C 0.07879 0.42349 0.51085 0.0
C825 C 0.0553 0.41212 0.534 0.0
C826 C 0.02653 0.40072 0.52182 0.0
C827 C 0.0207 0.40029 0.48784 0.0
C828 C 0.98767 0.38642 0.48142 0.0
C829 C 0.98039 0.4087 0.46486 0.0
C830 C 0.97613 0.35813 0.46016 0.0
C831 C 0.97592 0.37936 0.51712 0.0
C832 C 0.99872 0.38795 0.54004 0.0
C833 C 0.99345 0.38439 0.57457 0.0
C834 C 0.96405 0.37157 0.58597 0.0
C835 C 0.94031 0.36226 0.56291 0.0
C836 C 0.94643 0.36623 0.52805 0.0
H837 H 0.14108 0.36765 0.40431 0.0
H838 H 0.18619 0.43327 0.32624 0.0
H839 H 0.17144 0.39343 0.28434 0.0
H840 H 0.15752 0.31149 0.37168 0.0
H841 H 0.12147 0.28095 0.38239 0.0
H842 H 0.13736 0.31442 0.40705 0.0
H843 H 0.09063 0.31898 0.39659 0.0
H844 H 0.07459 0.28553 0.37197 0.0
H845 H 0.0788 0.31915 0.35402 0.0
H846 H 0.15077 0.34735 0.25061 0.0
H847 H 0.12301 0.29762 0.22588 0.0
H848 H 0.08928 0.26052 0.32471 0.0
C849 C 0.14816 0.37355 0.37846 0.0
C850 C 0.165 0.40359 0.36854 0.0
C851 C 0.17335 0.41046 0.3344 0.0
C852 C 0.16517 0.38797 0.31044 0.0
C853 C 0.14843 0.35864 0.32091 0.0
C854 C 0.13981 0.35128 0.35402 0.0
C855 C 0.12029 0.31796 0.35799 0.0
C856 C 0.13505 0.30547 0.38115 0.0
C857 C 0.08924 0.30994 0.3709 0.0
C858 C 0.11911 0.30783 0.32187 0.0
C859 C 0.13581 0.33175 0.30109 0.0
C860 C 0.13772 0.32843 0.26662 0.0
C861 C 0.1218 0.3 0.25281 0.0
C862 C 0.10396 0.27507 0.2733 0.0
C863 C 0.10295 0.27906 0.30843 0.0
H864 H 0.63845 0.76552 0.41705 0.0
H865 H 0.57818 0.76977 0.34488 0.0
H866 H 0.62037 0.80019 0.30729 0.0
H867 H 0.70279 0.84055 0.40137 0.0
H868 H 0.72951 0.82823 0.40491 0.0
H869 H 0.69523 0.80977 0.42832 0.0
H870 H 0.68352 0.7597 0.40178 0.0
H871 H 0.71771 0.77798 0.37835 0.0
H872 H 0.683 0.75623 0.35663 0.0
H873 H 0.66752 0.82635 0.27552 0.0
H874 H 0.71688 0.84518 0.24995 0.0
H875 H 0.74822 0.82403 0.3411 0.0
C876 C 0.63433 0.77351 0.39368 0.0
C877 C 0.60504 0.76562 0.38404 0.0
C878 C 0.60039 0.77569 0.35284 0.0
C879 C 0.62426 0.79308 0.33137 0.0
C880 C 0.65276 0.80012 0.34125 0.0
C881 C 0.65801 0.79063 0.37158 0.0
C882 C 0.69057 0.79926 0.37455 0.0
C883 C 0.7054 0.82073 0.40405 0.0
C884 C 0.69388 0.77165 0.37803 0.0
C885 C 0.70261 0.81462 0.34095 0.0
C886 C 0.68033 0.81507 0.32243 0.0
C887 C 0.68522 0.82644 0.28992 0.0
C888 C 0.71337 0.83708 0.27559 0.0
C889 C 0.73651 0.83639 0.29361 0.0
C890 C 0.73118 0.82549 0.32703 0.0
H891 H 0.20515 0.90293 0.26853 0.0
H892 H 0.14924 0.91029 0.34464 0.0
H893 H 0.16129 0.881 0.38383 0.0
H894 H 0.19005 0.82807 0.28974 0.0
H895 H 0.22788 0.83691 0.28277 0.0
H896 H 0.21279 0.85602 0.25946 0.0
H897 H 0.25572 0.90636 0.28021 0.0
H898 H 0.27099 0.88744 0.30345 0.0
H899 H 0.2624 0.91282 0.32473 0.0
H900 H 0.18088 0.85318 0.41547 0.0
H901 H 0.20945 0.83166 0.43952 0.0
H902 H 0.25469 0.84327 0.34409 0.0
C903 C 0.19504 0.8979 0.29326 0.0
C904 C 0.17591 0.90856 0.30345 0.0
C905 C 0.16377 0.90222 0.33628 0.0
C906 C 0.17041 0.8855 0.35864 0.0
C907 C 0.18947 0.87548 0.34792 0.0
C908 C 0.20183 0.8816 0.31612 0.0
C909 C 0.22346 0.87015 0.31194 0.0
C910 C 0.21291 0.84637 0.28434 0.0
C911 C 0.25501 0.89571 0.30466 0.0
C912 C 0.22153 0.85685 0.34649 0.0
C913 C 0.20147 0.85993 0.3666 0.0
C914 C 0.19649 0.85051 0.3999 0.0
C915 C 0.21289 0.83828 0.41333 0.0
C916 C 0.23423 0.83559 0.39368 0.0
C917 C 0.23818 0.84452 0.35956 0.0
H918 H 0.41555 0.16063 0.66822 0.0
H919 H 0.38493 0.18609 0.57958 0.0
H920 H 0.33659 0.16938 0.60646 0.0
H921 H 0.34841 0.09537 0.68526 0.0
H922 H 0.35032 0.09899 0.73041 0.0
H923 H 0.38394 0.11547 0.70585 0.0
H924 H 0.39972 0.16661 0.73239 0.0
H925 H 0.3662 0.15022 0.75723 0.0
H926 H 0.37487 0.18133 0.73034 0.0
H927 H 0.28942 0.14421 0.63914 0.0
H928 H 0.24778 0.11621 0.67877 0.0
H929 H 0.30837 0.10948 0.74823 0.0
C930 C 0.39893 0.16339 0.65492 0.0
C931 C 0.40419 0.17475 0.62173 0.0
C932 C 0.38156 0.17744 0.60495 0.0
C933 C 0.35391 0.16801 0.62001 0.0
C934 C 0.34902 0.15611 0.6522 0.0
C935 C 0.37095 0.15414 0.66979 0.0
C936 C 0.35913 0.1393 0.70363 0.0
C937 C 0.36054 0.11058 0.70643 0.0
C938 C 0.37599 0.16064 0.73262 0.0
C939 C 0.32718 0.13281 0.70183 0.0
C940 C 0.32182 0.14259 0.67183 0.0
C941 C 0.29346 0.13703 0.6631 0.0
C942 C 0.26993 0.12108 0.68566 0.0
C943 C 0.27497 0.11131 0.71679 0.0
C944 C 0.30405 0.11749 0.725 0.0
H945 H 0.84091 0.24957 0.66028 0.0
H946 H 0.84685 0.22047 0.55964 0.0
H947 H 0.87008 0.19311 0.58239 0.0
H948 H 0.91031 0.26116 0.68885 0.0
H949 H 0.89828 0.24762 0.73095 0.0
H950 H 0.87977 0.26325 0.70756 0.0
H951 H 0.82937 0.21519 0.71607 0.0
H952 H 0.84773 0.19946 0.73972 0.0
H953 H 0.82553 0.18018 0.70359 0.0
H954 H 0.89706 0.17286 0.61448 0.0
H955 H 0.92302 0.15791 0.65516 0.0
H956 H 0.89857 0.19763 0.73601 0.0
C957 C 0.8465 0.23688 0.64321 0.0
C958 C 0.84192 0.23717 0.60811 0.0
C959 C 0.85007 0.22068 0.58657 0.0
C960 C 0.86333 0.20499 0.59925 0.0
C961 C 0.86824 0.20571 0.6337 0.0
C962 C 0.8598 0.22088 0.65554 0.0
C963 C 0.86872 0.21869 0.6914 0.0
C964 C 0.89057 0.24952 0.70551 0.0
C965 C 0.84119 0.2024 0.71403 0.0
C966 C 0.8838 0.20037 0.68606 0.0
C967 C 0.8833 0.19323 0.65252 0.0
C968 C 0.89722 0.17792 0.64091 0.0
C969 C 0.91201 0.1696 0.66418 0.0
C970 C 0.91256 0.17629 0.69876 0.0
C971 C 0.89807 0.19174 0.70979 0.0
H972 H 0.83209 0.75061 0.67483 0.0
H973 H 0.85514 0.71902 0.76443 0.0
H974 H 0.83629 0.67015 0.73836 0.0
H975 H 0.76427 0.68508 0.65971 0.0
H976 H 0.76721 0.686 0.61449 0.0
H977 H 0.78551 0.71993 0.63818 0.0
H978 H 0.83575 0.73271 0.61077 0.0
H979 H 0.81754 0.69884 0.58684 0.0
H980 H 0.84876 0.70652 0.61323 0.0
H981 H 0.81068 0.62359 0.70629 0.0
H982 H 0.78095 0.58171 0.66826 0.0
H983 H 0.77429 0.64152 0.59762 0.0
C984 C 0.83383 0.73358 0.68847 0.0
C985 C 0.84529 0.73873 0.72164 0.0
C986 C 0.8465 0.71565 0.73904 0.0
C987 C 0.83589 0.68776 0.72441 0.0
C988 C 0.82404 0.68304 0.69217 0.0
C989 C 0.82305 0.70522 0.67416 0.0
C990 C 0.80736 0.69326 0.64068 0.0
C991 C 0.77943 0.69625 0.63813 0.0
C992 C 0.82863 0.70876 0.61112 0.0
C993 C 0.79929 0.66093 0.64318 0.0
C994 C 0.8093 0.65571 0.67314 0.0
C995 C 0.80312 0.62744 0.68248 0.0
C996 C 0.78612 0.60375 0.66076 0.0
C997 C 0.77558 0.60835 0.62985 0.0
C998 C 0.78258 0.63744 0.62079 0.0
H999 H 0.97578 0.44041 0.07019 0.0
H1000 H 0.91303 0.42526 0.99018 0.0
H1001 H 0.95467 0.45177 0.95042 0.0
H1002 H 0.03423 0.51392 0.0429 0.0
H1003 H 0.06387 0.50702 0.0539 0.0
H1004 H 0.02936 0.48902 0.07689 0.0
H1005 H 0.02389 0.43788 0.06355 0.0
H1006 H 0.05838 0.45569 0.04063 0.0
H1007 H 0.02506 0.42782 0.02039 0.0
H1008 H 1.00234 0.47732 0.91883 0.0
H1009 H 0.05302 0.49842 0.89631 0.0
H1010 H 0.08584 0.49674 0.99614 0.0
C1011 C 0.97084 0.44308 0.04441 0.0
C1012 C 0.94114 0.43098 0.03329 0.0
C1013 C 0.93557 0.43441 0.99925 0.0
C1014 C 0.95909 0.44953 0.97652 0.0
C1015 C 0.98807 0.461 0.98819 0.0
C1016 C 0.99409 0.45789 0.02127 0.0
C1017 C 0.02721 0.47067 0.02671 0.0
C1018 C 0.03938 0.49671 0.05157 0.0
C1019 C 0.03402 0.44658 0.03851 0.0
C1020 C 0.03884 0.48114 0.99139 0.0
C1021 C 0.01581 0.47554 0.96973 0.0
C1022 C 0.02057 0.482 0.93558 0.0
C1023 C 0.04949 0.49397 0.92303 0.0
C1024 C 0.07344 0.49937 0.94447 0.0
C1025 C 0.06807 0.4933 0.97925 0.0
H1026 H 0.54593 0.57162 0.93274 0.0
H1027 H 0.48826 0.57755 0.00761 0.0
H1028 H 0.50212 0.55075 0.04817 0.0
H1029 H 0.53434 0.49815 0.95773 0.0
H1030 H 0.57267 0.5087 0.95082 0.0
H1031 H 0.5558 0.52541 0.92622 0.0
H1032 H 0.59725 0.57742 0.94472 0.0
H1033 H 0.61416 0.5609 0.96946 0.0
H1034 H 0.60397 0.58583 0.98893 0.0
H1035 H 0.52432 0.52669 0.08174 0.0
H1036 H 0.55445 0.50748 0.10721 0.0
H1037 H 0.59943 0.51779 0.0118 0.0
C1038 C 0.53573 0.5666 0.95742 0.0
C1039 C 0.51573 0.57631 0.96697 0.0
C1040 C 0.50348 0.57015 0.99977 0.0
C1041 C 0.51116 0.55489 0.02294 0.0
C1042 C 0.53132 0.54608 0.01305 0.0
C1043 C 0.54351 0.55168 0.98113 0.0
C1044 C 0.56638 0.54172 0.978 0.0
C1045 C 0.55671 0.51702 0.95163 0.0
C1046 C 0.59726 0.56804 0.9698 0.0
C1047 C 0.56537 0.53006 0.01326 0.0
C1048 C 0.54474 0.53258 0.03286 0.0
C1049 C 0.54037 0.52438 0.0666 0.0
C1050 C 0.55769 0.51354 0.08085 0.0
C1051 C 0.57928 0.51105 0.06152 0.0
C1052 C 0.58292 0.51917 0.02714 0.0
H1053 H 0.4755 0.03841 0.08172 0.0
H1054 H 0.54078 0.09624 0.00868 0.0
H1055 H 0.52589 0.05387 0.97047 0.0
H1056 H 0.48092 0.97096 0.06347 0.0
H1057 H 0.4415 0.9465 0.06807 0.0
H1058 H 0.45986 0.98041 0.09191 0.0
H1059 H 0.42336 0.99595 0.06788 0.0
H1060 H 0.40501 0.96222 0.04386 0.0
H1061 H 0.4197 0.99743 0.02293 0.0
H1062 H 0.50149 0.00744 0.93815 0.0
H1063 H 0.46843 0.959 0.91258 0.0
H1064 H 0.41727 0.92968 0.00509 0.0
C1065 C 0.48717 0.04185 0.05808 0.0
C1066 C 0.50958 0.07049 0.04825 0.0
C1067 C 0.52372 0.07445 0.01671 0.0
C1068 C 0.51546 0.0505 0.9949 0.0
C1069 C 0.49286 0.0227 0.00487 0.0
C1070 C 0.47885 0.01811 0.03567 0.0
C1071 C 0.45345 0.98638 0.03868 0.0
C1072 C 0.45929 0.9701 0.06723 0.0
C1073 C 0.42362 0.98546 0.04362 0.0
C1074 C 0.45505 0.97414 0.0045 0.0
C1075 C 0.47821 0.99553 0.98568 0.0
C1076 C 0.48349 0.99039 0.95274 0.0
C1077 C 0.46446 0.96279 0.93839 0.0
C1078 C 0.4403 0.94051 0.95684 0.0
C1079 C 0.4358 0.94614 0.99055 0.0
H1080 H 0.99963 0.14132 0.07069 0.0
H1081 H 0.02963 0.23486 0.08103 0.0
H1082 H 0.01408 0.23611 0.02259 0.0
H1083 H 0.02522 0.14607 0.98547 0.0
H1084 H 0.99441 0.11097 0.97269 0.0
H1085 H 1.00634 0.11692 0.01592 0.0
H1086 H 0.95314 0.10269 0.03496 0.0
H1087 H 0.94106 0.09673 0.99177 0.0
H1088 H 0.93566 0.12212 0.01759 0.0
H1089 H 0.99542 0.22743 0.96369 0.0
H1090 H 0.97785 0.21029 0.906 0.0
H1091 H 0.962 0.12272 0.93186 0.0
C1092 C 1.00268 0.16193 0.06055 0.0
C1093 C 0.01568 0.18801 0.08017 0.0
C1094 C 0.01976 0.21473 0.0662 0.0
C1095 C 0.01091 0.2156 0.03316 0.0
C1096 C 0.99829 0.1896 0.01432 0.0
C1097 C 0.99442 0.16331 0.02729 0.0
C1098 C 0.9816 0.13896 1.00097 0.0
C1099 C 1.00318 0.12757 0.99331 0.0
C1100 C 0.95105 0.11363 0.01199 0.0
C1101 C 0.97888 0.15571 0.97125 0.0
C1102 C 0.98834 0.1848 0.97973 0.0
C1103 C 0.98788 0.20469 0.95675 0.0
C1104 C 0.97769 0.19469 0.92412 0.0
C1105 C 0.96833 0.16513 0.91457 0.0
C1106 C 0.96899 0.14541 0.93851 0.0
H1107 H 0.87291 0.86087 0.93629 0.0
H1108 H 0.8177 0.76568 0.92515 0.0
H1109 H 0.8034 0.76151 0.98481 0.0
H1110 H 0.899 0.85972 0.0202 0.0
H1111 H 0.89796 0.89209 0.03428 0.0
H1112 H 0.90416 0.888 0.99047 0.0
H1113 H 0.85935 0.89424 0.97418 0.0
H1114 H 0.8531 0.89847 0.01792 0.0
H1115 H 0.82357 0.87035 0.99292 0.0
H1116 H 0.79461 0.76711 0.04502 0.0
H1117 H 0.79143 0.78232 0.10286 0.0
H1118 H 0.85203 0.87402 0.07656 0.0
C1119 C 0.85774 0.8392 0.94643 0.0
C1120 C 0.84671 0.81354 0.92605 0.0
C1121 C 0.82694 0.78557 0.94034 0.0
C1122 C 0.81853 0.78297 0.97419 0.0
C1123 C 0.83003 0.80854 0.99364 0.0
C1124 C 0.84917 0.83615 0.98042 0.0
C1125 C 0.85816 0.86 0.00713 0.0
C1126 C 0.89182 0.87589 0.01338 0.0
C1127 C 0.84793 0.88207 0.99745 0.0
C1128 C 0.841 0.84143 0.0373 0.0
C1129 C 0.82492 0.81181 0.02879 0.0
C1130 C 0.80704 0.79024 0.052 0.0
C1131 C 0.80528 0.79913 0.08476 0.0
C1132 C 0.82131 0.82936 0.09422 0.0
C1133 C 0.83966 0.85074 0.07015 0.0
H1134 H 0.23421 0.05756 0.9493 0.0
H1135 H 0.16639 0.97604 0.90379 0.0
H1136 H 0.15357 0.95212 0.95946 0.0
H1137 H 0.25693 0.02223 0.01488 0.0
H1138 H 0.26222 0.04935 0.04636 0.0
H1139 H 0.26805 0.05961 1.00255 0.0
H1140 H 0.23034 0.07824 0.00712 0.0
H1141 H 0.22421 0.06782 0.05082 0.0
H1142 H 0.19328 0.05344 0.02213 0.0
H1143 H 0.14521 0.93805 0.01929 0.0
H1144 H 0.14285 0.93362 0.08089 0.0
H1145 H 0.21654 0.02367 0.08938 0.0
C1146 C 0.21711 0.03453 0.95115 0.0
C1147 C 0.2012 0.01858 0.92237 0.0
C1148 C 0.17865 0.98862 0.92564 0.0
C1149 C 0.17128 0.97483 0.95709 0.0
C1150 C 0.18673 0.99127 0.98511 0.0
C1151 C 0.20932 0.02036 0.9826 0.0
C1152 C 0.2213 0.03316 0.01718 0.0
C1153 C 0.25407 0.04158 0.02043 0.0
C1154 C 0.21701 0.05973 0.02474 0.0
C1155 C 0.20153 0.00686 0.03934 0.0
C1156 C 0.18191 0.98295 0.02017 0.0
C1157 C 0.16076 0.95643 0.03462 0.0
C1158 C 0.1597 0.95411 0.0697 0.0
C1159 C 0.17971 0.97813 0.09012 0.0
C1160 C 0.20087 0.00491 0.07457 0.0
H1161 H 0.68141 0.52944 0.26259 0.0
H1162 H 0.61672 0.43568 0.26522 0.0
H1163 H 0.6232 0.43535 0.32677 0.0
H1164 H 0.73046 0.52888 0.32742 0.0
H1165 H 0.73811 0.5638 0.34522 0.0
H1166 H 0.72941 0.55652 0.30116 0.0
H1167 H 0.68648 0.56779 0.30822 0.0
H1168 H 0.69502 0.57512 0.35229 0.0
H1169 H 0.6581 0.54784 0.33931 0.0
H1170 H 0.63659 0.44497 0.38746 0.0
H1171 H 0.65418 0.46409 0.44436 0.0
H1172 H 0.70856 0.55256 0.40355 0.0
C1173 C 0.66891 0.50881 0.27615 0.0
C1174 C 0.64867 0.4825 0.25921 0.0
C1175 C 0.63225 0.45604 0.27779 0.0
C1176 C 0.63587 0.45563 0.31269 0.0
C1177 C 0.65585 0.48194 0.32867 0.0
C1178 C 0.672 0.50809 0.31113 0.0
C1179 C 0.69109 0.53346 0.33474 0.0
C1180 C 0.72423 0.54642 0.32665 0.0
C1181 C 0.68212 0.55746 0.33357 0.0
C1182 C 0.6831 0.51744 0.36829 0.0
C1183 C 0.6629 0.48772 0.36407 0.0
C1184 C 0.65221 0.46826 0.39113 0.0
C1185 C 0.6622 0.47945 0.42346 0.0
C1186 C 0.68248 0.50999 0.42875 0.0
C1187 C 0.6932 0.52912 0.40055 0.0
H1188 H 0.51808 0.17983 0.41158 0.0
H1189 H 0.44149 0.19194 0.40154 0.0
H1190 H 0.43929 0.18114 0.34119 0.0
H1191 H 0.55183 0.21591 0.33151 0.0
H1192 H 0.56613 0.19141 0.32271 0.0
H1193 H 0.56157 0.19961 0.36562 0.0
H1194 H 0.52895 0.14352 0.3776 0.0
H1195 H 0.53299 0.13515 0.33459 0.0
H1196 H 0.49648 0.12158 0.35222 0.0
H1197 H 0.44252 0.16553 0.28351 0.0
H1198 H 0.45623 0.15446 0.22851 0.0
H1199 H 0.53416 0.15768 0.2729 0.0
C1200 C 0.50113 0.1807 0.39664 0.0
C1201 C 0.4795 0.18606 0.41172 0.0
C1202 C 0.45771 0.18692 0.39105 0.0
C1203 C 0.45633 0.18096 0.35661 0.0
C1204 C 0.47727 0.17477 0.34287 0.0
C1205 C 0.49971 0.1753 0.36191 0.0
C1206 C 0.52001 0.16895 0.34023 0.0
C1207 C 0.55177 0.19556 0.34 0.0
C1208 C 0.51957 0.14061 0.35186 0.0
C1209 C 0.50524 0.16461 0.30614 0.0
C1210 C 0.48037 0.16766 0.30857 0.0
C1211 C 0.46233 0.16376 0.28106 0.0
C1212 C 0.47044 0.15763 0.24985 0.0
C1213 C 0.49679 0.15608 0.24607 0.0
C1214 C 0.51402 0.15892 0.27487 0.0
H1215 H 0.84473 0.32554 0.25362 0.0
H1216 H 0.89666 0.42182 0.25765 0.0
H1217 H 0.89652 0.41958 0.31902 0.0
H1218 H 0.79694 0.32067 0.32312 0.0
H1219 H 0.79294 0.28632 0.33841 0.0
H1220 H 0.79904 0.29506 0.29426 0.0
H1221 H 0.84489 0.28784 0.29575 0.0
H1222 H 0.83912 0.2794 0.33999 0.0
H1223 H 0.87435 0.30887 0.32525 0.0
H1224 H 0.89378 0.40705 0.38008 0.0
H1225 H 0.88209 0.38598 0.43667 0.0
H1226 H 0.82334 0.29899 0.39374 0.0
C1227 C 0.85585 0.34636 0.26697 0.0
C1228 C 0.87154 0.37385 0.24981 0.0
C1229 C 0.88566 0.40023 0.26934 0.0
C1230 C 0.88545 0.39932 0.30454 0.0
C1231 C 0.8702 0.37194 0.32031 0.0
C1232 C 0.85499 0.346 0.30225 0.0
C1233 C 0.83861 0.31968 0.3256 0.0
C1234 C 0.80488 0.30455 0.32001 0.0
C1235 C 0.84993 0.29765 0.32139 0.0
C1236 C 0.84733 0.33499 0.35956 0.0
C1237 C 0.866 0.36504 0.35584 0.0
C1238 C 0.87846 0.38364 0.38338 0.0
C1239 C 0.87126 0.37132 0.41569 0.0
C1240 C 0.85091 0.34066 0.42056 0.0
C1241 C 0.83899 0.32241 0.39168 0.0
H1242 H 0.33948 0.81079 0.74988 0.0
H1243 H 0.39596 0.9063 0.75285 0.0
H1244 H 0.38844 0.90892 0.69208 0.0
H1245 H 0.36397 0.80022 0.66791 0.0
H1246 H 0.32764 0.77132 0.6553 0.0
H1247 H 0.33765 0.77657 0.69917 0.0
H1248 H 0.29179 0.78201 0.71264 0.0
H1249 H 0.2816 0.77668 0.66885 0.0
H1250 H 0.2867 0.8093 0.69047 0.0
H1251 H 0.37367 0.90193 0.63219 0.0
H1252 H 0.35277 0.8854 0.5754 0.0
H1253 H 0.30669 0.79422 0.60947 0.0
C1254 C 0.35022 0.8322 0.73765 0.0
C1255 C 0.36854 0.85834 0.756 0.0
C1256 C 0.38227 0.88597 0.73917 0.0
C1257 C 0.37803 0.8877 0.7047 0.0
C1258 C 0.36008 0.86159 0.68729 0.0
C1259 C 0.34643 0.83433 0.70302 0.0
C1260 C 0.3281 0.80977 0.67818 0.0
C1261 C 0.34006 0.7882 0.67495 0.0
C1262 C 0.29509 0.79349 0.68813 0.0
C1263 C 0.33341 0.8276 0.64619 0.0
C1264 C 0.35191 0.85746 0.65218 0.0
C1265 C 0.35933 0.8786 0.62708 0.0
C1266 C 0.34733 0.86904 0.59499 0.0
C1267 C 0.32829 0.83861 0.5882 0.0
C1268 C 0.32151 0.81757 0.61402 0.0
H1269 H 0.15919 0.49298 0.59218 0.0
H1270 H 0.21163 0.4488 0.59558 0.0
H1271 H 0.20914 0.44845 0.65705 0.0
H1272 H 0.19948 0.54258 0.66038 0.0
H1273 H 0.16734 0.54357 0.67577 0.0
H1274 H 0.17051 0.53762 0.6317 0.0
H1275 H 0.11962 0.48916 0.63399 0.0
H1276 H 0.11645 0.49478 0.67818 0.0
H1277 H 0.11398 0.4608 0.66384 0.0
H1278 H 0.19859 0.4505 0.71859 0.0
H1279 H 0.18796 0.46152 0.77502 0.0
H1280 H 0.15258 0.51413 0.73115 0.0
C1281 C 0.17073 0.48357 0.60525 0.0
C1282 C 0.18513 0.47036 0.58793 0.0
C1283 C 0.19931 0.45804 0.60734 0.0
C1284 C 0.19835 0.45799 0.6426 0.0
C1285 C 0.18396 0.47114 0.65845 0.0
C1286 C 0.17108 0.48436 0.64042 0.0
C1287 C 0.1591 0.4991 0.66356 0.0
C1288 C 0.17507 0.53271 0.65749 0.0
C1289 C 0.12528 0.48512 0.65965 0.0
C1290 C 0.16707 0.49183 0.69747 0.0
C1291 C 0.18079 0.47514 0.69395 0.0
C1292 C 0.18861 0.46429 0.72167 0.0
C1293 C 0.18276 0.47114 0.75388 0.0
C1294 C 0.17009 0.48962 0.75843 0.0
C1295 C 0.16211 0.49988 0.7294 0.0
H1296 H 0.54423 0.66398 0.74637 0.0
H1297 H 0.44823 0.6142 0.75501 0.0
H1298 H 0.44373 0.62016 0.6941 0.0
H1299 H 0.54724 0.7168 0.68662 0.0
H1300 H 0.57807 0.71913 0.6632 0.0
H1301 H 0.57408 0.70993 0.70728 0.0
H1302 H 0.57513 0.66181 0.69395 0.0
H1303 H 0.57931 0.67095 0.64984 0.0
H1304 H 0.5492 0.63589 0.66394 0.0
H1305 H 0.44929 0.63179 0.63292 0.0
H1306 H 0.46454 0.64879 0.57465 0.0
H1307 H 0.5571 0.69212 0.60473 0.0
C1308 C 0.52231 0.65406 0.73527 0.0
C1309 C 0.49654 0.63859 0.75538 0.0
C1310 C 0.46822 0.62629 0.74011 0.0
C1311 C 0.46545 0.62948 0.70553 0.0
C1312 C 0.49122 0.64517 0.6865 0.0
C1313 C 0.51913 0.6573 0.70071 0.0
C1314 C 0.54314 0.67385 0.67454 0.0
C1315 C 0.56172 0.70689 0.68345 0.0
C1316 C 0.56285 0.65978 0.67032 0.0
C1317 C 0.52432 0.66912 0.64347 0.0
C1318 C 0.49444 0.65237 0.65102 0.0
C1319 C 0.47262 0.64484 0.62665 0.0
C1320 C 0.48151 0.65451 0.5936 0.0
C1321 C 0.51199 0.67168 0.58507 0.0
C1322 C 0.53364 0.67922 0.61051 0.0
H1323 H 0.09164 0.01002 0.22476 0.0
H1324 H 0.18096 0.04716 0.26445 0.0
H1325 H 0.18387 0.09566 0.27085 0.0
H1326 H 0.10302 0.07152 0.17733 0.0
H1327 H 0.06748 0.06811 0.18667 0.0
H1328 H 0.0716 0.03583 0.18722 0.0
H1329 H 0.05158 0.02468 0.24824 0.0
H1330 H 0.04756 0.05709 0.24803 0.0
H1331 H 0.06935 0.0526 0.28025 0.0
H1332 H 0.17934 0.14139 0.26655 0.0
H1333 H 0.16557 0.18002 0.25694 0.0
H1334 H 0.07814 0.11277 0.22425 0.0
C1335 C 0.11165 0.02829 0.2352 0.0
C1336 C 0.1361 0.02485 0.24405 0.0
C1337 C 0.16188 0.04923 0.2577 0.0
C1338 C 0.16378 0.07689 0.26135 0.0
C1339 C 0.1395 0.0797 0.25187 0.0
C1340 C 0.1137 0.05594 0.23964 0.0
C1341 C 0.09098 0.06504 0.23083 0.0
C1342 C 0.08281 0.05982 0.19328 0.0
C1343 C 0.06323 0.04888 0.25318 0.0
C1344 C 0.10839 0.09778 0.23906 0.0
C1345 C 0.13636 0.10582 0.25105 0.0
C1346 C 0.15729 0.13527 0.25785 0.0
C1347 C 0.14939 0.15704 0.25223 0.0
C1348 C 0.12074 0.14919 0.24043 0.0
C1349 C 0.09994 0.11915 0.23411 0.0
H1350 H 1.00432 0.0789 0.21856 0.0
H1351 H 0.97039 0.1322 0.26322 0.0
H1352 H 0.92217 0.08717 0.27322 0.0
H1353 H 0.94039 0.02945 0.17561 0.0
H1354 H 0.94338 0.99697 0.18334 0.0
H1355 H 0.97626 0.0329 0.18256 0.0
H1356 H 0.99024 0.02418 0.24216 0.0
H1357 H 0.95745 0.98809 0.24326 0.0
H1358 H 0.96394 0.01451 0.2761 0.0
H1359 H 0.87583 0.03774 0.27087 0.0
H1360 H 0.83591 0.98579 0.26251 0.0
H1361 H 0.90027 0.96367 0.2235 0.0
C1362 C 0.9869 0.08098 0.23105 0.0
C1363 C 0.99109 0.10903 0.24015 0.0
C1364 C 0.96779 0.11093 0.25635 0.0
C1365 C 0.94026 0.08547 0.26201 0.0
C1366 C 0.93658 0.05823 0.25197 0.0
C1367 C 0.95942 0.0557 0.2375 0.0
C1368 C 0.94931 0.02383 0.22822 0.0
C1369 C 0.95252 0.02062 0.19018 0.0
C1370 C 0.96624 0.01195 0.24867 0.0
C1371 C 0.91697 0.00906 0.23866 0.0
C1372 C 0.91007 0.02935 0.2522 0.0
C1373 C 0.88108 0.02151 0.26103 0.0
C1374 C 0.85857 0.99213 0.25604 0.0
C1375 C 0.86527 0.97095 0.24283 0.0
C1376 C 0.89486 0.97947 0.23433 0.0
H1377 H 0.89617 0.82409 0.24055 0.0
H1378 H 0.90061 0.90586 0.27246 0.0
H1379 H 0.95507 0.929 0.27877 0.0
H1380 H 0.95444 0.82887 0.29622 0.0
H1381 H 0.96814 0.81343 0.2651 0.0
H1382 H 0.92945 0.803 0.26551 0.0
H1383 H 0.93338 0.8193 0.20326 0.0
H1384 H 0.97204 0.82987 0.20268 0.0
H1385 H 0.96092 0.85642 0.19147 0.0
H1386 H 0.00991 0.9441 0.2774 0.0
H1387 H 0.05949 0.94967 0.26906 0.0
H1388 H 0.01838 0.85728 0.23975 0.0
C1389 C 0.90846 0.84677 0.24929 0.0
C1390 C 0.89401 0.86313 0.25604 0.0
C1391 C 0.91107 0.89279 0.26729 0.0
C1392 C 0.94206 0.90613 0.27093 0.0
C1393 C 0.95561 0.88942 0.26356 0.0
C1394 C 0.93925 0.8603 0.25321 0.0
C1395 C 0.95907 0.84739 0.24559 0.0
C1396 C 0.95237 0.82165 0.26954 0.0
C1397 C 0.95617 0.83769 0.20855 0.0
C1398 C 0.98926 0.87394 0.25263 0.0
C1399 C 0.98687 0.89795 0.26314 0.0
C1400 C 0.01196 0.92528 0.26967 0.0
C1401 C 0.04013 0.92817 0.26504 0.0
C1402 C 0.04311 0.90388 0.25391 0.0
C1403 C 0.01712 0.87637 0.24813 0.0
H1404 H 0.06833 0.17974 0.80178 0.0
H1405 H 0.01194 0.12168 0.72251 0.0
H1406 H 0.04558 0.10118 0.71619 0.0
H1407 H 0.13877 0.19501 0.7664 0.0
H1408 H 0.15441 0.19459 0.80669 0.0
H1409 H 0.12656 0.20545 0.80383 0.0
H1410 H 0.09416 0.16522 0.84746 0.0
H1411 H 0.12188 0.15422 0.85044 0.0
H1412 H 0.08416 0.12727 0.83981 0.0
H1413 H 0.08556 0.08678 0.7191 0.0
H1414 H 0.12725 0.07872 0.73156 0.0
H1415 H 0.15607 0.14499 0.81078 0.0
C1416 C 0.06315 0.16294 0.78281 0.0
C1417 C 0.03756 0.15251 0.76244 0.0
C1418 C 0.03146 0.13015 0.7383 0.0
C1419 C 0.05045 0.11837 0.73452 0.0
C1420 C 0.07538 0.12905 0.75519 0.0
C1421 C 0.08168 0.15078 0.77892 0.0
C1422 C 0.10927 0.15775 0.79881 0.0
C1423 C 0.13369 0.19012 0.79361 0.0
C1424 C 0.10191 0.15069 0.83635 0.0
C1425 C 0.11757 0.13656 0.78258 0.0
C1426 C 0.09787 0.1203 0.75738 0.0
C1427 C 0.10107 0.09935 0.73888 0.0
C1428 C 0.12494 0.09484 0.74636 0.0
C1429 C 0.14541 0.11104 0.7724 0.0
C1430 C 0.14138 0.13222 0.79056 0.0
H1431 H 0.88069 0.01708 0.71433 0.0
H1432 H 0.94552 0.05315 0.79476 0.0
H1433 H 0.94645 0.00636 0.79769 0.0
H1434 H 0.83955 0.94302 0.74649 0.0
H1435 H 0.83301 0.92557 0.7058 0.0
H1436 H 0.83777 0.96213 0.70957 0.0
H1437 H 0.88058 0.9817 0.66602 0.0
H1438 H 0.87604 0.94521 0.66226 0.0
H1439 H 0.91171 0.97617 0.67326 0.0
H1440 H 0.93847 0.95521 0.7943 0.0
H1441 H 0.92302 0.90287 0.78381 0.0
H1442 H 0.86503 0.8998 0.70357 0.0
C1443 C 0.89497 0.01503 0.73261 0.0
C1444 C 0.91309 0.0388 0.75431 0.0
C1445 C 0.93174 0.0354 0.77765 0.0
C1446 C 0.93234 0.00887 0.77957 0.0
C1447 C 0.91437 0.98595 0.75775 0.0
C1448 C 0.89612 0.98873 0.73459 0.0
C1449 C 0.87899 0.96054 0.71415 0.0
C1450 C 0.84534 0.94702 0.71933 0.0
C1451 C 0.88734 0.96626 0.6767 0.0
C1452 C 0.89018 0.94139 0.72982 0.0
C1453 C 0.91052 0.95655 0.75498 0.0
C1454 C 0.92285 0.94321 0.77439 0.0
C1455 C 0.91393 0.91347 0.76823 0.0
C1456 C 0.89316 0.89742 0.74257 0.0
C1457 C 0.88144 0.91173 0.72284 0.0
H1458 H 0.09924 0.98927 0.71578 0.0
H1459 H 0.14828 0.97108 0.79134 0.0
H1460 H 0.10298 0.92497 0.80652 0.0
H1461 H 0.03262 0.96294 0.7653 0.0
H1462 H 1.00746 0.9468 0.73041 0.0
H1463 H 0.04405 0.97796 0.72359 0.0
H1464 H 0.05456 0.94812 0.67892 0.0
H1465 H 0.01793 0.91692 0.68547 0.0
H1466 H 0.05006 0.91258 0.68997 0.0
H1467 H 0.05325 0.88137 0.81438 0.0
H1468 H 1.00058 0.84259 0.81547 0.0
H1469 H 0.98161 0.88827 0.73664 0.0
C1470 C 0.1004 0.97533 0.73518 0.0
C1471 C 0.12737 0.98372 0.75224 0.0
C1472 C 0.12791 0.96517 0.77794 0.0
C1473 C 0.1023 0.93886 0.78674 0.0
C1474 C 0.07604 0.93135 0.76989 0.0
C1475 C 0.07471 0.94896 0.74476 0.0
C1476 C 0.04309 0.93593 0.73179 0.0
C1477 C 0.0311 0.95718 0.73816 0.0
C1478 C 0.04131 0.92791 0.69431 0.0
C1479 C 0.02711 0.90833 0.75353 0.0
C1480 C 0.04672 0.90618 0.77513 0.0
C1481 C 0.03763 0.88272 0.79753 0.0
C1482 C 1.00767 0.8607 0.79785 0.0
C1483 C 0.98694 0.86224 0.77608 0.0
C1484 C 0.99687 0.88657 0.75375 0.0
H1485 H 0.78836 0.36483 0.52308 0.0
H1486 H 0.79069 0.34645 0.629 0.0
H1487 H 0.78861 0.39179 0.64357 0.0
H1488 H 0.83607 0.44353 0.52971 0.0
H1489 H 0.81657 0.45164 0.49779 0.0
H1490 H 0.81716 0.4174 0.49629 0.0
H1491 H 0.75961 0.3879 0.49545 0.0
H1492 H 0.75884 0.42203 0.49681 0.0
H1493 H 0.7392 0.39399 0.52821 0.0
H1494 H 0.78319 0.43823 0.64566 0.0
H1495 H 0.77932 0.48319 0.63517 0.0
H1496 H 0.78526 0.47247 0.52799 0.0
C1497 C 0.78815 0.37016 0.54939 0.0
C1498 C 0.78914 0.35192 0.575 0.0
C1499 C 0.78968 0.36007 0.60907 0.0
C1500 C 0.7885 0.38573 0.6175 0.0
C1501 C 0.78747 0.40323 0.59151 0.0
C1502 C 0.7877 0.39589 0.55814 0.0
C1503 C 0.78756 0.41871 0.53477 0.0
C1504 C 0.81604 0.43371 0.51339 0.0
C1505 C 0.75964 0.40482 0.51251 0.0
C1506 C 0.78681 0.43999 0.56009 0.0
C1507 C 0.78644 0.43062 0.59273 0.0
C1508 C 0.78396 0.44595 0.62022 0.0
C1509 C 0.78177 0.47138 0.61411 0.0
C1510 C 0.78265 0.4815 0.58087 0.0
C1511 C 0.78539 0.46563 0.55366 0.0
H1512 H 0.65434 0.43393 0.52731 0.0
H1513 H 0.66859 0.45295 0.63398 0.0
H1514 H 0.62717 0.40237 0.64669 0.0
H1515 H 0.57523 0.39433 0.53206 0.0
H1516 H 0.57096 0.3686 0.49925 0.0
H1517 H 0.60273 0.40534 0.49924 0.0
H1518 H 0.63768 0.38322 0.49795 0.0
H1519 H 0.60603 0.34637 0.49813 0.0
H1520 H 0.63422 0.35724 0.52999 0.0
H1521 H 0.58461 0.34835 0.64688 0.0
H1522 H 0.54116 0.29877 0.6346 0.0
H1523 H 0.55325 0.31805 0.52807 0.0
C1524 C 0.64893 0.42735 0.55338 0.0
C1525 C 0.66482 0.44703 0.57975 0.0
C1526 C 0.65666 0.43801 0.61349 0.0
C1527 C 0.63331 0.40934 0.62088 0.0
C1528 C 0.61813 0.39034 0.59417 0.0
C1529 C 0.62539 0.39925 0.5611 0.0
C1530 C 0.60466 0.37561 0.53684 0.0
C1531 C 0.58737 0.38663 0.51561 0.0
C1532 C 0.62167 0.36498 0.51442 0.0
C1533 C 0.58454 0.35184 0.56133 0.0
C1534 C 0.59287 0.36042 0.5943 0.0
C1535 C 0.5778 0.34156 0.62117 0.0
C1536 C 0.55334 0.3135 0.61406 0.0
C1537 C 0.54396 0.30498 0.5805 0.0
C1538 C 0.55992 0.32434 0.55394 0.0
H1539 H 0.69353 0.23326 0.60078 0.0
H1540 H 0.70012 0.21616 0.49524 0.0
H1541 H 0.64868 0.20471 0.48624 0.0
H1542 H 0.61897 0.17413 0.61172 0.0
H1543 H 0.60752 0.19382 0.63971 0.0
H1544 H 0.64592 0.20336 0.63805 0.0
H1545 H 0.66119 0.25771 0.62473 0.0
H1546 H 0.62278 0.24832 0.62631 0.0
H1547 H 0.64471 0.26571 0.58932 0.0
H1548 H 0.59714 0.19252 0.48814 0.0
H1549 H 0.54554 0.17795 0.50098 0.0
H1550 H 0.56864 0.20175 0.60581 0.0
C1551 C 0.68407 0.22742 0.57581 0.0
C1552 C 0.70074 0.22542 0.54865 0.0
C1553 C 0.68764 0.21743 0.51638 0.0
C1554 C 0.65851 0.21113 0.51098 0.0
C1555 C 0.6425 0.21281 0.53813 0.0
C1556 C 0.65453 0.22063 0.56998 0.0
C1557 C 0.63126 0.21884 0.59485 0.0
C1558 C 0.62559 0.19619 0.62273 0.0
C1559 C 0.64055 0.24948 0.60968 0.0
C1560 C 0.60431 0.20826 0.57196 0.0
C1561 C 0.61176 0.20534 0.53932 0.0
C1562 C 0.59102 0.19485 0.51352 0.0
C1563 C 0.56167 0.18651 0.52117 0.0
C1564 C 0.55297 0.18863 0.55439 0.0
C1565 C 0.57473 0.20022 0.58013 0.0
H1566 H 0.78739 0.40777 0.09798 0.0
H1567 H 0.85236 0.49668 0.06749 0.0
H1568 H 0.81244 0.50933 0.06207 0.0
H1569 H 0.7245 0.39974 0.04601 0.0
H1570 H 0.69792 0.37998 0.07882 0.0
H1571 H 0.731 0.37717 0.07522 0.0
H1572 H 0.74385 0.39405 0.13722 0.0
H1573 H 0.7111 0.39736 0.14071 0.0
H1574 H 0.747 0.42867 0.1502 0.0
H1575 H 0.76595 0.51293 0.06316 0.0
H1576 H 0.7174 0.50887 0.07528 0.0
H1577 H 0.68324 0.41839 0.10879 0.0
C1578 C 0.79298 0.42962 0.08928 0.0
C1579 C 0.82276 0.45119 0.08254 0.0
C1580 C 0.82957 0.4799 0.07244 0.0
C1581 C 0.80706 0.48717 0.06919 0.0
C1582 C 0.77792 0.46552 0.07653 0.0
C1583 C 0.77085 0.43737 0.0866 0.0
C1584 C 0.73839 0.41913 0.09631 0.0
C1585 C 0.72197 0.39242 0.07267 0.0
C1586 C 0.7349 0.40924 0.1333 0.0
C1587 C 0.72844 0.44165 0.09091 0.0
C1588 C 0.7514 0.46803 0.07876 0.0
C1589 C 0.74776 0.49234 0.07249 0.0
C1590 C 0.72009 0.4898 0.07937 0.0
C1591 C 0.6966 0.46335 0.09299 0.0
C1592 C 0.70082 0.4389 0.09841 0.0
H1593 H 0.5943 0.26017 0.11494 0.0
H1594 H 0.51422 0.2091 0.05609 0.0
H1595 H 0.51425 0.25504 0.04114 0.0
H1596 H 0.57423 0.30898 0.14951 0.0
H1597 H 0.61089 0.34105 0.14827 0.0
H1598 H 0.60655 0.30467 0.15118 0.0
H1599 H 0.63907 0.31539 0.09843 0.0
H1600 H 0.64301 0.35156 0.09416 0.0
H1601 H 0.62872 0.32573 0.05962 0.0
H1602 H 0.51873 0.3052 0.03961 0.0
H1603 H 0.52971 0.35681 0.04852 0.0
H1604 H 0.60826 0.37567 0.10513 0.0
C1605 C 0.57707 0.2587 0.0984 0.0
C1606 C 0.55423 0.23105 0.08669 0.0
C1607 C 0.53203 0.23004 0.0652 0.0
C1608 C 0.53186 0.25603 0.05656 0.0
C1609 C 0.55431 0.28287 0.06915 0.0
C1610 C 0.57677 0.28445 0.08922 0.0
C1611 C 0.59724 0.31582 0.10115 0.0
C1612 C 0.5972 0.31772 0.13981 0.0
C1613 C 0.62888 0.32782 0.08747 0.0
C1614 C 0.58237 0.33147 0.08531 0.0
C1615 C 0.5576 0.31208 0.067 0.0
C1616 C 0.5385 0.32077 0.0531 0.0
C1617 C 0.54478 0.34996 0.05829 0.0
C1618 C 0.5701 0.37008 0.07677 0.0
C1619 C 0.58933 0.36083 0.08993 0.0
H1620 H 0.75208 0.33688 0.10784 0.0
H1621 H 0.80707 0.30073 0.07413 0.0
H1622 H 0.76243 0.2522 0.06543 0.0
H1623 H 0.69952 0.27505 0.1529 0.0
H1624 H 0.66768 0.27778 0.14018 0.0
H1625 H 0.70379 0.31045 0.14152 0.0
H1626 H 0.69756 0.32093 0.07974 0.0
H1627 H 0.66198 0.28754 0.07689 0.0
H1628 H 0.69114 0.29377 0.04783 0.0
H1629 H 0.71304 0.20639 0.06696 0.0
H1630 H 0.66079 0.16673 0.07459 0.0
H1631 H 0.63668 0.2322 0.1031 0.0
C1632 C 0.75462 0.3188 0.09824 0.0
C1633 C 0.78308 0.32261 0.09167 0.0
C1634 C 0.78553 0.29846 0.07907 0.0
C1635 C 0.76029 0.27074 0.0741 0.0
C1636 C 0.73262 0.26756 0.08119 0.0
C1637 C 0.72949 0.29098 0.09246 0.0
C1638 C 0.69705 0.28123 0.09867 0.0
C1639 C 0.69171 0.28642 0.13551 0.0
C1640 C 0.68633 0.29682 0.07433 0.0
C1641 C 0.68274 0.24848 0.09062 0.0
C1642 C 0.70369 0.24113 0.08046 0.0
C1643 C 0.6963 0.21192 0.07418 0.0
C1644 C 0.66671 0.18957 0.07864 0.0
C1645 C 0.64489 0.19661 0.08882 0.0
C1646 C 0.65294 0.22647 0.09441 0.0
H1647 H 0.48832 0.82757 0.89314 0.0
H1648 H 0.4149 0.78805 0.96394 0.0
H1649 H 0.42275 0.74532 0.97035 0.0
H1650 H 0.47354 0.7623 0.85208 0.0
H1651 H 0.512 0.77281 0.84661 0.0
H1652 H 0.50151 0.80085 0.84916 0.0
H1653 H 0.53802 0.82574 0.89876 0.0
H1654 H 0.54881 0.79787 0.89622 0.0
H1655 H 0.53526 0.80414 0.93538 0.0
H1656 H 0.43757 0.7054 0.96649 0.0
H1657 H 0.45841 0.67293 0.95341 0.0
H1658 H 0.52249 0.74022 0.88631 0.0
C1659 C 0.47423 0.81043 0.91067 0.0
C1660 C 0.45104 0.8115 0.92813 0.0
C1661 C 0.4327 0.78785 0.95004 0.0
C1662 C 0.43708 0.76349 0.95399 0.0
C1663 C 0.45998 0.76313 0.93601 0.0
C1664 C 0.47833 0.78614 0.91496 0.0
C1665 C 0.50073 0.78023 0.8975 0.0
C1666 C 0.49668 0.77897 0.85907 0.0
C1667 C 0.53259 0.80337 0.90758 0.0
C1668 C 0.49202 0.75012 0.91175 0.0
C1669 C 0.46852 0.74054 0.93396 0.0
C1670 C 0.45614 0.71284 0.94935 0.0
C1671 C 0.46811 0.69454 0.94174 0.0
C1672 C 0.49218 0.70404 0.91893 0.0
C1673 C 0.50424 0.7323 0.90402 0.0
H1674 H 0.33791 0.74708 0.90198 0.0
H1675 H 0.29924 0.80079 0.93107 0.0
H1676 H 0.24991 0.75566 0.93561 0.0
H1677 H 0.28009 0.69677 0.85149 0.0
H1678 H 0.28222 0.66469 0.86419 0.0
H1679 H 0.31478 0.70082 0.86603 0.0
H1680 H 0.32114 0.6933 0.92925 0.0
H1681 H 0.28869 0.65698 0.92751 0.0
H1682 H 0.29069 0.68364 0.95786 0.0
H1683 H 0.20382 0.70531 0.92901 0.0
H1684 H 0.16563 0.65285 0.91862 0.0
H1685 H 0.23494 0.63186 0.89847 0.0
C1686 C 0.31914 0.74925 0.90995 0.0
C1687 C 0.32233 0.77736 0.91623 0.0
C1688 C 0.2973 0.7794 0.9265 0.0
C1689 C 0.26919 0.75392 0.92898 0.0
C1690 C 0.26665 0.72654 0.92182 0.0
C1691 C 0.29109 0.72401 0.91323 0.0
C1692 C 0.28235 0.69213 0.90611 0.0
C1693 C 0.29033 0.6884 0.8698 0.0
C1694 C 0.29656 0.68085 0.93172 0.0
C1695 C 0.24907 0.67723 0.911 0.0
C1696 C 0.24036 0.69744 0.91986 0.0
C1697 C 0.21044 0.68919 0.92287 0.0
C1698 C 0.18893 0.65951 0.9168 0.0
C1699 C 0.19752 0.63849 0.90841 0.0
C1700 C 0.22795 0.64748 0.90575 0.0
H1701 H 0.25634 0.55969 0.86083 0.0
H1702 H 0.23393 0.55281 0.96676 0.0
H1703 H 0.28363 0.55988 0.98111 0.0
H1704 H 0.29375 0.51811 0.86567 0.0
H1705 H 0.3209 0.53989 0.83415 0.0
H1706 H 0.28452 0.53607 0.83297 0.0
H1707 H 0.30817 0.59318 0.83378 0.0
H1708 H 0.34465 0.59719 0.83498 0.0
H1709 H 0.33355 0.61423 0.86702 0.0
H1710 H 0.33738 0.56978 0.98298 0.0
H1711 H 0.38739 0.57607 0.97212 0.0
H1712 H 0.37131 0.57181 0.86497 0.0
C1713 C 0.26199 0.55999 0.88711 0.0
C1714 C 0.24161 0.55621 0.91279 0.0
C1715 C 0.24942 0.55588 0.94679 0.0
C1716 C 0.27756 0.55995 0.9551 0.0
C1717 C 0.29723 0.56371 0.92903 0.0
C1718 C 0.2895 0.5633 0.8957 0.0
C1719 C 0.31364 0.56612 0.87215 0.0
C1720 C 0.30253 0.53839 0.84994 0.0
C1721 C 0.32572 0.59436 0.85073 0.0
C1722 C 0.3364 0.56833 0.89732 0.0
C1723 C 0.32686 0.56738 0.93005 0.0
C1724 C 0.34487 0.57022 0.95746 0.0
C1725 C 0.37316 0.57384 0.95115 0.0
C1726 C 0.38276 0.57395 0.9178 0.0
C1727 C 0.36413 0.57121 0.89069 0.0
H1728 H 0.40473 0.84464 0.44545 0.0
H1729 H 0.32867 0.76419 0.40855 0.0
H1730 H 0.36053 0.74169 0.40117 0.0
H1731 H 0.46024 0.84297 0.39027 0.0
H1732 H 0.48832 0.85705 0.42254 0.0
H1733 H 0.45987 0.86722 0.42241 0.0
H1734 H 0.44552 0.8479 0.4835 0.0
H1735 H 0.4738 0.83758 0.48379 0.0
H1736 H 0.43584 0.81034 0.49305 0.0
H1737 H 0.40062 0.72697 0.40195 0.0
H1738 H 0.44457 0.72141 0.41032 0.0
H1739 H 0.49432 0.8123 0.44538 0.0
C1740 C 0.39473 0.82241 0.43538 0.0
C1741 C 0.36413 0.80622 0.42751 0.0
C1742 C 0.35205 0.77713 0.41457 0.0
C1743 C 0.37001 0.76416 0.41033 0.0
C1744 C 0.40003 0.78067 0.41886 0.0
C1745 C 0.41228 0.80925 0.43092 0.0
C1746 C 0.44477 0.82199 0.43961 0.0
C1747 C 0.46446 0.8489 0.41737 0.0
C1748 C 0.45029 0.82991 0.47721 0.0
C1749 C 0.4489 0.79596 0.43112 0.0
C1750 C 0.42294 0.77236 0.41903 0.0
C1751 C 0.42115 0.74549 0.41093 0.0
C1752 C 0.44642 0.74263 0.41559 0.0
C1753 C 0.47326 0.76648 0.42832 0.0
C1754 C 0.47433 0.79356 0.43572 0.0
H1755 H 0.25871 0.58952 0.45186 0.0
H1756 H 0.16873 0.53687 0.41416 0.0
H1757 H 0.16474 0.58188 0.40942 0.0
H1758 H 0.24669 0.6387 0.50141 0.0
H1759 H 0.28172 0.67115 0.49179 0.0
H1760 H 0.27844 0.63512 0.49044 0.0
H1761 H 0.29752 0.64446 0.4291 0.0
H1762 H 0.30084 0.68054 0.43002 0.0
H1763 H 0.27888 0.65433 0.39785 0.0
H1764 H 0.16839 0.63134 0.41424 0.0
H1765 H 0.18137 0.68341 0.42358 0.0
H1766 H 0.26982 0.70506 0.45451 0.0
C1767 C 0.23831 0.58755 0.44226 0.0
C1768 C 0.21401 0.55965 0.43342 0.0
C1769 C 0.18771 0.55798 0.42089 0.0
C1770 C 0.18518 0.58343 0.41818 0.0
C1771 C 0.20931 0.6105 0.42757 0.0
C1772 C 0.23557 0.61287 0.43885 0.0
C1773 C 0.25796 0.64469 0.44771 0.0
C1774 C 0.2667 0.64757 0.48506 0.0
C1775 C 0.28542 0.65671 0.42479 0.0
C1776 C 0.2399 0.65963 0.4404 0.0
C1777 C 0.21185 0.63943 0.42895 0.0
C1778 C 0.19044 0.64747 0.42264 0.0
C1779 C 0.19789 0.67695 0.42814 0.0
C1780 C 0.22658 0.69808 0.43936 0.0
C1781 C 0.24792 0.68934 0.44527 0.0
H1782 H 0.41456 0.65855 0.44834 0.0
H1783 H 0.46797 0.62782 0.39696 0.0
H1784 H 0.42248 0.58156 0.38165 0.0
H1785 H 0.36274 0.59093 0.4836 0.0
H1786 H 0.33105 0.59583 0.47789 0.0
H1787 H 0.36752 0.62763 0.48218 0.0
H1788 H 0.36065 0.64809 0.42574 0.0
H1789 H 0.32425 0.61608 0.42087 0.0
H1790 H 0.35171 0.62571 0.38828 0.0
H1791 H 0.37204 0.53623 0.37829 0.0
H1792 H 0.31964 0.49634 0.38406 0.0
H1793 H 0.29847 0.55725 0.43427 0.0
C1794 C 0.41664 0.64226 0.43344 0.0
C1795 C 0.44483 0.64679 0.42385 0.0
C1796 C 0.44663 0.62495 0.40438 0.0
C1797 C 0.4209 0.59857 0.39559 0.0
C1798 C 0.39348 0.59456 0.40592 0.0
C1799 C 0.39113 0.61597 0.424 0.0
C1800 C 0.35906 0.60567 0.43306 0.0
C1801 C 0.35486 0.60496 0.47146 0.0
C1802 C 0.3483 0.62506 0.41596 0.0
C1803 C 0.3439 0.57474 0.41829 0.0
C1804 C 0.36416 0.56879 0.40267 0.0
C1805 C 0.35587 0.54084 0.38975 0.0
C1806 C 0.32618 0.51834 0.39317 0.0
C1807 C 0.30512 0.524 0.40897 0.0
C1808 C 0.31405 0.55269 0.42118 0.0
loop_
_geom_bond_atom_site_label_1
_geom_bond_atom_site_label_2
_geom_bond_distance
_geom_bond_site_symmetry_2
_ccdc_geom_bond_type
Co0 N4 2.148 1_455 S
Co0 N10 2.128 . S
Co0 N20 2.194 . S
Co0 O25 2.351 . S
Co0 O26 2.155 . S
Co0 O27 2.096 1_455 S
C1 N4 1.301 . S
C1 N5 1.328 . S
C1 H6 0.930 1_655 S
C2 C3 1.333 . S
C2 N4 1.317 . S
C2 H7 0.930 . S
C3 C2 1.333 . S
C3 N5 1.350 . S
C3 H29 0.931 . S
N4 Co0 2.148 1_655 S
N4 C1 1.301 . S
N4 C2 1.317 . S
N5 C1 1.328 . S
N5 C3 1.350 . S
H6 C1 0.930 1_455 S
H7 C2 0.930 . S
C8 O9 1.224 . S
C8 O27 1.247 . S
O9 C8 1.224 . S
N10 Co0 2.128 . S
N10 C11 1.355 . S
N10 C13 1.311 . S
C11 N10 1.355 . S
C11 C12 1.363 . S
C11 H23 0.929 . S
C12 C11 1.363 . S
C12 N14 1.375 . S
C12 H30 0.931 . S
C13 N10 1.311 . S
C13 N14 1.347 . S
C13 H24 0.929 . S
N14 C12 1.375 . S
N14 C13 1.347 . S
C15 C18 1.365 . S
C15 N20 1.328 . S
C15 H21 0.929 . S
C16 C17 1.362 . S
C16 C19 1.378 . S
C16 H31 0.929 . S
C17 C16 1.362 . S
C17 C18 1.366 . S
C18 C15 1.365 . S
C18 C17 1.366 . S
C18 H32 0.930 . S
C19 C16 1.378 . S
C19 N20 1.315 . S
C19 H22 0.934 . S
N20 Co0 2.194 . S
N20 C15 1.328 . S
N20 C19 1.315 . S
H21 C15 0.929 . S
H22 C19 0.934 . S
H23 C11 0.929 . S
H24 C13 0.929 . S
O25 Co0 2.351 . S
O25 C28 1.244 . S
O26 Co0 2.155 . S
O26 C28 1.240 . S
O27 Co0 2.096 1_655 S
O27 C8 1.247 . S
C28 O25 1.244 . S
C28 O26 1.240 . S
H29 C3 0.931 . S
H30 C12 0.931 . S
H31 C16 0.929 . S
H32 C18 0.930 . S
Co33 N37 2.148 . S
Co33 N43 2.128 . S
Co33 N53 2.194 . S
Co33 O58 2.351 . S
Co33 O59 2.155 . S
Co33 O60 2.096 . S
C34 N37 1.301 . S
C34 N38 1.328 . S
C34 H39 0.930 . S
C35 C36 1.333 . S
C35 N37 1.317 . S
C35 H40 0.930 . S
C36 C35 1.333 . S
C36 N38 1.350 . S
C36 H62 0.931 . S
N37 Co33 2.148 . S
N37 C34 1.301 . S
N37 C35 1.317 . S
N38 C34 1.328 . S
N38 C36 1.350 . S
H39 C34 0.930 . S
H40 C35 0.930 . S
C41 O42 1.224 . S
C41 O60 1.247 . S
O42 C41 1.224 . S
N43 Co33 2.128 . S
N43 C44 1.355 . S
N43 C46 1.311 . S
C44 N43 1.355 . S
C44 C45 1.363 . S
C44 H56 0.929 . S
C45 C44 1.363 . S
C45 N47 1.375 . S
C45 H63 0.931 . S
C46 N43 1.311 . S
C46 N47 1.347 . S
C46 H57 0.929 . S
N47 C45 1.375 . S
N47 C46 1.347 . S
C48 C51 1.365 . S
C48 N53 1.328 . S
C48 H54 0.929 . S
C49 C50 1.362 . S
C49 C52 1.378 . S
C49 H64 0.929 . S
C50 C49 1.362 . S
C50 C51 1.366 . S
C51 C48 1.365 . S
C51 C50 1.366 . S
C51 H65 0.930 . S
C52 C49 1.378 . S
C52 N53 1.315 . S
C52 H55 0.930 . S
N53 Co33 2.194 . S
N53 C48 1.328 . S
N53 C52 1.315 . S
H54 C48 0.929 . S
H55 C52 0.930 . S
H56 C44 0.929 . S
H57 C46 0.929 . S
O58 Co33 2.351 . S
O58 C61 1.244 . S
O59 Co33 2.155 . S
O59 C61 1.240 . S
O60 Co33 2.096 . S
O60 C41 1.247 . S
C61 O58 1.244 . S
C61 O59 1.240 . S
H62 C36 0.931 . S
H63 C45 0.931 . S
H64 C49 0.929 . S
H65 C51 0.930 . S
Co66 N70 2.148 1_565 S
Co66 N76 2.128 . S
Co66 N86 2.194 . S
Co66 O91 2.351 . S
Co66 O92 2.155 . S
Co66 O93 2.096 1_565 S
C67 N70 1.301 . S
C67 N71 1.328 . S
C67 H72 0.930 1_545 S
C68 C69 1.333 . S
C68 N70 1.317 . S
C68 H73 0.930 . S
C69 C68 1.333 . S
C69 N71 1.350 . S
C69 H95 0.931 . S
N70 Co66 2.148 1_545 S
N70 C67 1.301 . S
N70 C68 1.317 . S
N71 C67 1.328 . S
N71 C69 1.350 . S
H72 C67 0.930 1_565 S
H73 C68 0.930 . S
C74 O75 1.224 . S
C74 O93 1.247 . S
O75 C74 1.224 . S
N76 Co66 2.128 . S
N76 C77 1.355 . S
N76 C79 1.311 . S
C77 N76 1.355 . S
C77 C78 1.363 . S
C77 H89 0.929 . S
C78 C77 1.363 . S
C78 N80 1.375 . S
C78 H96 0.931 . S
C79 N76 1.311 . S
C79 N80 1.347 . S
C79 H90 0.929 . S
N80 C78 1.375 . S
N80 C79 1.347 . S
C81 C84 1.365 . S
C81 N86 1.328 . S
C81 H87 0.929 . S
C82 C83 1.362 . S
C82 C85 1.378 . S
C82 H97 0.929 . S
C83 C82 1.362 . S
C83 C84 1.366 . S
C84 C81 1.365 . S
C84 C83 1.366 . S
C84 H98 0.930 . S
C85 C82 1.378 . S
C85 N86 1.315 . S
C85 H88 0.946 . S
N86 Co66 2.194 . S
N86 C81 1.328 . S
N86 C85 1.315 . S
H87 C81 0.929 . S
H88 C85 0.946 . S
H89 C77 0.929 . S
H90 C79 0.929 . S
O91 Co66 2.351 . S
O91 C94 1.244 . S
O92 Co66 2.155 . S
O92 C94 1.240 . S
O93 Co66 2.096 1_545 S
O93 C74 1.247 . S
C94 O91 1.244 . S
C94 O92 1.240 . S
H95 C69 0.931 . S
H96 C78 0.931 . S
H97 C82 0.929 . S
H98 C84 0.930 . S
Co99 N103 2.148 1_545 S
Co99 N109 2.128 . S
Co99 N119 2.194 . S
Co99 O124 2.351 . S
Co99 O125 2.155 . S
Co99 O126 2.096 1_545 S
C100 N103 1.301 . S
C100 N104 1.328 . S
C100 H105 0.930 1_565 S
C101 C102 1.333 . S
C101 N103 1.317 . S
C101 H106 0.930 . S
C102 C101 1.333 . S
C102 N104 1.350 . S
C102 H128 0.931 . S
N103 Co99 2.148 1_565 S
N103 C100 1.301 . S
N103 C101 1.317 . S
N104 C100 1.328 . S
N104 C102 1.350 . S
H105 C100 0.930 1_545 S
H106 C101 0.930 . S
C107 O108 1.224 . S
C107 O126 1.247 . S
O108 C107 1.224 . S
N109 Co99 2.128 . S
N109 C110 1.355 . S
N109 C112 1.311 . S
C110 N109 1.355 . S
C110 C111 1.363 . S
C110 H122 0.929 . S
C111 C110 1.363 . S
C111 N113 1.375 . S
C111 H129 0.931 . S
C112 N109 1.311 . S
C112 N113 1.347 . S
C112 H123 0.929 . S
N113 C111 1.375 . S
N113 C112 1.347 . S
C114 C117 1.365 . S
C114 N119 1.328 . S
C114 H120 0.929 . S
C115 C116 1.362 . S
C115 C118 1.378 . S
C115 H130 0.929 . S
C116 C115 1.362 . S
C116 C117 1.366 . S
C117 C114 1.365 . S
C117 C116 1.366 . S
C117 H131 0.930 . S
C118 C115 1.378 . S
C118 N119 1.315 . S
C118 H121 0.934 . S
N119 Co99 2.194 . S
N119 C114 1.328 . S
N119 C118 1.315 . S
H120 C114 0.929 . S
H121 C118 0.934 . S
H122 C110 0.929 . S
H123 C112 0.929 . S
O124 Co99 2.351 . S
O124 C127 1.244 . S
O125 Co99 2.155 . S
O125 C127 1.240 . S
O126 Co99 2.096 1_565 S
O126 C107 1.247 . S
C127 O124 1.244 . S
C127 O125 1.240 . S
H128 C102 0.931 . S
H129 C111 0.931 . S
H130 C115 0.929 . S
H131 C117 0.930 . S
Co132 N136 2.148 1_655 S
Co132 N142 2.128 . S
Co132 N152 2.194 . S
Co132 O157 2.351 . S
Co132 O158 2.155 . S
Co132 O159 2.096 1_655 S
C133 N136 1.301 . S
C133 N137 1.328 . S
C133 H138 0.930 1_455 S
C134 C135 1.333 . S
C134 N136 1.317 . S
C134 H139 0.930 . S
C135 C134 1.333 . S
C135 N137 1.350 . S
C135 H161 0.931 . S
N136 Co132 2.148 1_455 S
N136 C133 1.301 . S
N136 C134 1.317 . S
N137 C133 1.328 . S
N137 C135 1.350 . S
H138 C133 0.930 1_655 S
H139 C134 0.930 . S
C140 O141 1.224 . S
C140 O159 1.247 . S
O141 C140 1.224 . S
N142 Co132 2.128 . S
N142 C143 1.355 . S
N142 C145 1.311 . S
C143 N142 1.355 . S
C143 C144 1.363 . S
C143 H155 0.929 . S
C144 C143 1.363 . S
C144 N146 1.375 . S
C144 H162 0.931 . S
C145 N142 1.311 . S
C145 N146 1.347 . S
C145 H156 0.929 . S
N146 C144 1.375 . S
N146 C145 1.347 . S
C147 C150 1.365 . S
C147 N152 1.328 . S
C147 H153 0.929 . S
C148 C149 1.362 . S
C148 C151 1.378 . S
C148 H163 0.929 . S
C149 C148 1.362 . S
C149 C150 1.366 . S
C150 C147 1.365 . S
C150 C149 1.366 . S
C150 H164 0.930 . S
C151 C148 1.378 . S
C151 N152 1.315 . S
C151 H154 0.946 . S
N152 Co132 2.194 . S
N152 C147 1.328 . S
N152 C151 1.315 . S
H153 C147 0.929 . S
H154 C151 0.946 . S
H155 C143 0.929 . S
H156 C145 0.929 . S
O157 Co132 2.351 . S
O157 C160 1.244 . S
O158 Co132 2.155 . S
O158 C160 1.240 . S
O159 Co132 2.096 1_455 S
O159 C140 1.247 . S
C160 O157 1.244 . S
C160 O158 1.240 . S
H161 C135 0.931 . S
H162 C144 0.931 . S
H163 C148 0.929 . S
H164 C150 0.930 . S
Co165 N169 2.148 . S
Co165 N175 2.128 . S
Co165 N185 2.194 . S
Co165 O190 2.351 . S
Co165 O191 2.155 . S
Co165 O192 2.096 . S
C166 N169 1.301 . S
C166 N170 1.328 . S
C166 H171 0.930 . S
C167 C168 1.333 . S
C167 N169 1.317 . S
C167 H172 0.930 . S
C168 C167 1.333 . S
C168 N170 1.350 . S
C168 H194 0.931 . S
N169 Co165 2.148 . S
N169 C166 1.301 . S
N169 C167 1.317 . S
N170 C166 1.328 . S
N170 C168 1.350 . S
H171 C166 0.930 . S
H172 C167 0.930 . S
C173 O174 1.224 . S
C173 O192 1.247 . S
O174 C173 1.224 . S
N175 Co165 2.128 . S
N175 C176 1.355 . S
N175 C178 1.311 . S
C176 N175 1.355 . S
C176 C177 1.363 . S
C176 H188 0.929 . S
C177 C176 1.363 . S
C177 N179 1.375 . S
C177 H195 0.931 . S
C178 N175 1.311 . S
C178 N179 1.347 . S
C178 H189 0.929 . S
N179 C177 1.375 . S
N179 C178 1.347 . S
C180 C183 1.365 . S
C180 N185 1.328 . S
C180 H186 0.929 . S
C181 C182 1.362 . S
C181 C184 1.378 . S
C181 H196 0.929 . S
C182 C181 1.362 . S
C182 C183 1.366 . S
C183 C180 1.365 . S
C183 C182 1.366 . S
C183 H197 0.930 . S
C184 C181 1.378 . S
C184 N185 1.315 . S
C184 H187 0.930 . S
N185 Co165 2.194 . S
N185 C180 1.328 . S
N185 C184 1.315 . S
H186 C180 0.929 . S
H187 C184 0.930 . S
H188 C176 0.929 . S
H189 C178 0.929 . S
O190 Co165 2.351 . S
O190 C193 1.244 . S
O191 Co165 2.155 . S
O191 C193 1.240 . S
O192 Co165 2.096 . S
O192 C173 1.247 . S
C193 O190 1.244 . S
C193 O191 1.240 . S
H194 C168 0.931 . S
H195 C177 0.931 . S
H196 C181 0.929 . S
H197 C183 0.930 . S
Co198 N202 2.148 . S
Co198 N208 2.128 . S
Co198 N218 2.194 . S
Co198 O223 2.351 . S
Co198 O224 2.155 . S
Co198 O225 2.096 . S
C199 N202 1.301 . S
C199 N203 1.328 . S
C199 H204 0.930 . S
C200 C201 1.333 . S
C200 N202 1.317 . S
C200 H205 0.930 . S
C201 C200 1.333 . S
C201 N203 1.350 . S
C201 H227 0.931 . S
N202 Co198 2.148 . S
N202 C199 1.301 . S
N202 C200 1.317 . S
N203 C199 1.328 . S
N203 C201 1.350 . S
H204 C199 0.930 . S
H205 C200 0.930 . S
C206 O207 1.224 . S
C206 O225 1.247 . S
O207 C206 1.224 . S
N208 Co198 2.128 . S
N208 C209 1.355 . S
N208 C211 1.311 . S
C209 N208 1.355 . S
C209 C210 1.363 . S
C209 H221 0.929 . S
C210 C209 1.363 . S
C210 N212 1.375 . S
C210 H228 0.931 . S
C211 N208 1.311 . S
C211 N212 1.347 . S
C211 H222 0.929 . S
N212 C210 1.375 . S
N212 C211 1.347 . S
C213 C216 1.365 . S
C213 N218 1.328 . S
C213 H219 0.929 . S
C214 C215 1.362 . S
C214 C217 1.378 . S
C214 H229 0.929 . S
C215 C214 1.362 . S
C215 C216 1.366 . S
C216 C213 1.365 . S
C216 C215 1.366 . S
C216 H230 0.930 . S
C217 C214 1.378 . S
C217 N218 1.315 . S
C217 H220 0.930 . S
N218 Co198 2.194 . S
N218 C213 1.328 . S
N218 C217 1.315 . S
H219 C213 0.929 . S
H220 C217 0.930 . S
H221 C209 0.929 . S
H222 C211 0.929 . S
O223 Co198 2.351 . S
O223 C226 1.244 . S
O224 Co198 2.155 . S
O224 C226 1.240 . S
O225 Co198 2.096 . S
O225 C206 1.247 . S
C226 O223 1.244 . S
C226 O224 1.240 . S
H227 C201 0.931 . S
H228 C210 0.931 . S
H229 C214 0.929 . S
H230 C216 0.930 . S
Co231 N235 2.148 . S
Co231 N241 2.128 . S
Co231 N251 2.194 . S
Co231 O256 2.351 . S
Co231 O257 2.155 . S
Co231 O258 2.096 . S
C232 N235 1.301 . S
C232 N236 1.328 . S
C232 H237 0.930 . S
C233 C234 1.333 . S
C233 N235 1.317 . S
C233 H238 0.930 . S
C234 C233 1.333 . S
C234 N236 1.350 . S
C234 H260 0.931 . S
N235 Co231 2.148 . S
N235 C232 1.301 . S
N235 C233 1.317 . S
N236 C232 1.328 . S
N236 C234 1.350 . S
H237 C232 0.930 . S
H238 C233 0.930 . S
C239 O240 1.224 . S
C239 O258 1.247 . S
O240 C239 1.224 . S
N241 Co231 2.128 . S
N241 C242 1.355 . S
N241 C244 1.311 . S
C242 N241 1.355 . S
C242 C243 1.363 . S
C242 H254 0.929 . S
C243 C242 1.363 . S
C243 N245 1.375 . S
C243 H261 0.931 . S
C244 N241 1.311 . S
C244 N245 1.347 . S
C244 H255 0.929 . S
N245 C243 1.375 . S
N245 C244 1.347 . S
C246 C249 1.365 . S
C246 N251 1.328 . S
C246 H252 0.929 . S
C247 C248 1.362 . S
C247 C250 1.378 . S
C247 H262 0.929 . S
C248 C247 1.362 . S
C248 C249 1.366 . S
C249 C246 1.365 . S
C249 C248 1.366 . S
C249 H263 0.930 . S
C250 C247 1.378 . S
C250 N251 1.315 . S
C250 H253 0.930 . S
N251 Co231 2.194 . S
N251 C246 1.328 . S
N251 C250 1.315 . S
H252 C246 0.929 . S
H253 C250 0.930 . S
H254 C242 0.929 . S
H255 C244 0.929 . S
O256 Co231 2.351 . S
O256 C259 1.244 . S
O257 Co231 2.155 . S
O257 C259 1.240 . S
O258 Co231 2.096 . S
O258 C239 1.247 . S
C259 O256 1.244 . S
C259 O257 1.240 . S
H260 C234 0.931 . S
H261 C243 0.931 . S
H262 C247 0.929 . S
H263 C249 0.930 . S
Co264 N268 2.148 . S
Co264 N274 2.128 . S
Co264 N284 2.194 . S
Co264 O289 2.351 . S
Co264 O290 2.155 . S
Co264 O291 2.096 . S
C265 N268 1.301 . S
C265 N269 1.328 . S
C265 H270 0.930 . S
C266 C267 1.333 . S
C266 N268 1.317 . S
C266 H271 0.930 . S
C267 C266 1.333 . S
C267 N269 1.350 . S
C267 H293 0.931 . S
N268 Co264 2.148 . S
N268 C265 1.301 . S
N268 C266 1.317 . S
N269 C265 1.328 . S
N269 C267 1.350 . S
H270 C265 0.930 . S
H271 C266 0.930 . S
C272 O273 1.224 . S
C272 O291 1.247 . S
O273 C272 1.224 . S
N274 Co264 2.128 . S
N274 C275 1.355 . S
N274 C277 1.311 . S
C275 N274 1.355 . S
C275 C276 1.363 . S
C275 H287 0.929 . S
C276 C275 1.363 . S
C276 N278 1.375 . S
C276 H294 0.931 . S
C277 N274 1.311 . S
C277 N278 1.347 . S
C277 H288 0.929 . S
N278 C276 1.375 . S
N278 C277 1.347 . S
C279 C282 1.365 . S
C279 N284 1.328 . S
C279 H285 0.929 . S
C280 C281 1.362 . S
C280 C283 1.378 . S
C280 H295 0.929 . S
C281 C280 1.362 . S
C281 C282 1.366 . S
C282 C279 1.365 . S
C282 C281 1.366 . S
C282 H296 0.930 . S
C283 C280 1.378 . S
C283 N284 1.315 . S
C283 H286 0.930 . S
N284 Co264 2.194 . S
N284 C279 1.328 . S
N284 C283 1.315 . S
H285 C279 0.929 . S
H286 C283 0.930 . S
H287 C275 0.929 . S
H288 C277 0.929 . S
O289 Co264 2.351 . S
O289 C292 1.244 . S
O290 Co264 2.155 . S
O290 C292 1.240 . S
O291 Co264 2.096 . S
O291 C272 1.247 . S
C292 O289 1.244 . S
C292 O290 1.240 . S
H293 C267 0.931 . S
H294 C276 0.931 . S
H295 C280 0.929 . S
H296 C282 0.930 . S
Co297 N301 2.148 . S
Co297 N307 2.128 . S
Co297 N317 2.194 . S
Co297 O322 2.351 . S
Co297 O323 2.155 . S
Co297 O324 2.096 . S
C298 N301 1.301 . S
C298 N302 1.328 . S
C298 H303 0.930 . S
C299 C300 1.333 . S
C299 N301 1.317 . S
C299 H304 0.930 . S
C300 C299 1.333 . S
C300 N302 1.350 . S
C300 H326 0.931 . S
N301 Co297 2.148 . S
N301 C298 1.301 . S
N301 C299 1.317 . S
N302 C298 1.328 . S
N302 C300 1.350 . S
H303 C298 0.930 . S
H304 C299 0.930 . S
C305 O306 1.224 . S
C305 O324 1.247 . S
O306 C305 1.224 . S
N307 Co297 2.128 . S
N307 C308 1.355 . S
N307 C310 1.311 . S
C308 N307 1.355 . S
C308 C309 1.363 . S
C308 H320 0.929 . S
C309 C308 1.363 . S
C309 N311 1.375 . S
C309 H327 0.931 . S
C310 N307 1.311 . S
C310 N311 1.347 . S
C310 H321 0.929 . S
N311 C309 1.375 . S
N311 C310 1.347 . S
C312 C315 1.365 . S
C312 N317 1.328 . S
C312 H318 0.929 . S
C313 C314 1.362 . S
C313 C316 1.378 . S
C313 H328 0.929 . S
C314 C313 1.362 . S
C314 C315 1.366 . S
C315 C312 1.365 . S
C315 C314 1.366 . S
C315 H329 0.930 . S
C316 C313 1.378 . S
C316 N317 1.315 . S
C316 H319 0.930 . S
N317 Co297 2.194 . S
N317 C312 1.328 . S
N317 C316 1.315 . S
H318 C312 0.929 . S
H319 C316 0.930 . S
H320 C308 0.929 . S
H321 C310 0.929 . S
O322 Co297 2.351 . S
O322 C325 1.244 . S
O323 Co297 2.155 . S
O323 C325 1.240 . S
O324 Co297 2.096 . S
O324 C305 1.247 . S
C325 O322 1.244 . S
C325 O323 1.240 . S
H326 C300 0.931 . S
H327 C309 0.931 . S
H328 C313 0.929 . S
H329 C315 0.930 . S
Co330 N334 2.148 . S
Co330 N340 2.128 . S
Co330 N350 2.194 . S
Co330 O355 2.351 . S
Co330 O356 2.155 . S
Co330 O357 2.096 . S
C331 N334 1.301 . S
C331 N335 1.328 . S
C331 H336 0.930 . S
C332 C333 1.333 . S
C332 N334 1.317 . S
C332 H337 0.930 . S
C333 C332 1.333 . S
C333 N335 1.350 . S
C333 H359 0.931 . S
N334 Co330 2.148 . S
N334 C331 1.301 . S
N334 C332 1.317 . S
N335 C331 1.328 . S
N335 C333 1.350 . S
H336 C331 0.930 . S
H337 C332 0.930 . S
C338 O339 1.224 . S
C338 O357 1.247 . S
O339 C338 1.224 . S
N340 Co330 2.128 . S
N340 C341 1.355 . S
N340 C343 1.311 . S
C341 N340 1.355 . S
C341 C342 1.363 . S
C341 H353 0.929 . S
C342 C341 1.363 . S
C342 N344 1.375 . S
C342 H360 0.931 . S
C343 N340 1.311 . S
C343 N344 1.347 . S
C343 H354 0.929 . S
N344 C342 1.375 . S
N344 C343 1.347 . S
C345 C348 1.365 . S
C345 N350 1.328 . S
C345 H351 0.929 . S
C346 C347 1.362 . S
C346 C349 1.378 . S
C346 H361 0.929 . S
C347 C346 1.362 . S
C347 C348 1.366 . S
C348 C345 1.365 . S
C348 C347 1.366 . S
C348 H362 0.930 . S
C349 C346 1.378 . S
C349 N350 1.315 . S
C349 H352 0.930 . S
N350 Co330 2.194 . S
N350 C345 1.328 . S
N350 C349 1.315 . S
H351 C345 0.929 . S
H352 C349 0.930 . S
H353 C341 0.929 . S
H354 C343 0.929 . S
O355 Co330 2.351 . S
O355 C358 1.244 . S
O356 Co330 2.155 . S
O356 C358 1.240 . S
O357 Co330 2.096 . S
O357 C338 1.247 . S
C358 O355 1.244 . S
C358 O356 1.240 . S
H359 C333 0.931 . S
H360 C342 0.931 . S
H361 C346 0.929 . S
H362 C348 0.930 . S
Co363 N367 2.148 . S
Co363 N373 2.128 . S
Co363 N383 2.194 . S
Co363 O388 2.351 . S
Co363 O389 2.155 . S
Co363 O390 2.096 . S
C364 N367 1.301 . S
C364 N368 1.328 . S
C364 H369 0.930 . S
C365 C366 1.333 . S
C365 N367 1.317 . S
C365 H370 0.930 . S
C366 C365 1.333 . S
C366 N368 1.350 . S
C366 H392 0.931 . S
N367 Co363 2.148 . S
N367 C364 1.301 . S
N367 C365 1.317 . S
N368 C364 1.328 . S
N368 C366 1.350 . S
H369 C364 0.930 . S
H370 C365 0.930 . S
C371 O372 1.224 . S
C371 O390 1.247 . S
O372 C371 1.224 . S
N373 Co363 2.128 . S
N373 C374 1.355 . S
N373 C376 1.311 . S
C374 N373 1.355 . S
C374 C375 1.363 . S
C374 H386 0.929 . S
C375 C374 1.363 . S
C375 N377 1.375 . S
C375 H393 0.931 . S
C376 N373 1.311 . S
C376 N377 1.347 . S
C376 H387 0.929 . S
N377 C375 1.375 . S
N377 C376 1.347 . S
C378 C381 1.365 . S
C378 N383 1.328 . S
C378 H384 0.929 . S
C379 C380 1.362 . S
C379 C382 1.378 . S
C379 H394 0.929 . S
C380 C379 1.362 . S
C380 C381 1.366 . S
C381 C378 1.365 . S
C381 C380 1.366 . S
C381 H395 0.930 . S
C382 C379 1.378 . S
C382 N383 1.315 . S
C382 H385 0.930 . S
N383 Co363 2.194 . S
N383 C378 1.328 . S
N383 C382 1.315 . S
H384 C378 0.929 . S
H385 C382 0.930 . S
H386 C374 0.929 . S
H387 C376 0.929 . S
O388 Co363 2.351 . S
O388 C391 1.244 . S
O389 Co363 2.155 . S
O389 C391 1.240 . S
O390 Co363 2.096 . S
O390 C371 1.247 . S
C391 O388 1.244 . S
C391 O389 1.240 . S
H392 C366 0.931 . S
H393 C375 0.931 . S
H394 C379 0.929 . S
H395 C381 0.930 . S
Co396 N400 2.148 . S
Co396 N406 2.128 . S
Co396 N416 2.194 . S
Co396 O421 2.351 . S
Co396 O422 2.155 . S
Co396 O423 2.096 . S
C397 N400 1.301 . S
C397 N401 1.328 . S
C397 H402 0.930 . S
C398 C399 1.333 . S
C398 N400 1.317 . S
C398 H403 0.930 . S
C399 C398 1.333 . S
C399 N401 1.350 . S
C399 H425 0.931 . S
N400 Co396 2.148 . S
N400 C397 1.301 . S
N400 C398 1.317 . S
N401 C397 1.328 . S
N401 C399 1.350 . S
H402 C397 0.930 . S
H403 C398 0.930 . S
C404 O405 1.224 . S
C404 O423 1.247 . S
O405 C404 1.224 . S
N406 Co396 2.128 . S
N406 C407 1.355 . S
N406 C409 1.311 . S
C407 N406 1.355 . S
C407 C408 1.363 . S
C407 H419 0.929 . S
C408 C407 1.363 . S
C408 N410 1.375 . S
C408 H426 0.931 . S
C409 N406 1.311 . S
C409 N410 1.347 . S
C409 H420 0.929 . S
N410 C408 1.375 . S
N410 C409 1.347 . S
C411 C414 1.365 . S
C411 N416 1.328 . S
C411 H417 0.929 . S
C412 C413 1.362 . S
C412 C415 1.378 . S
C412 H427 0.929 . S
C413 C412 1.362 . S
C413 C414 1.366 . S
C414 C411 1.365 . S
C414 C413 1.366 . S
C414 H428 0.930 . S
C415 C412 1.378 . S
C415 N416 1.315 . S
C415 H418 0.930 . S
N416 Co396 2.194 . S
N416 C411 1.328 . S
N416 C415 1.315 . S
H417 C411 0.929 . S
H418 C415 0.930 . S
H419 C407 0.929 . S
H420 C409 0.929 . S
O421 Co396 2.351 . S
O421 C424 1.244 . S
O422 Co396 2.155 . S
O422 C424 1.240 . S
O423 Co396 2.096 . S
O423 C404 1.247 . S
C424 O421 1.244 . S
C424 O422 1.240 . S
H425 C399 0.931 . S
H426 C408 0.931 . S
H427 C412 0.929 . S
H428 C414 0.930 . S
Co429 N433 2.148 . S
Co429 N439 2.128 . S
Co429 N449 2.194 . S
Co429 O454 2.351 . S
Co429 O455 2.155 . S
Co429 O456 2.096 . S
C430 N433 1.301 . S
C430 N434 1.328 . S
C430 H435 0.930 . S
C431 C432 1.333 . S
C431 N433 1.317 . S
C431 H436 0.930 . S
C432 C431 1.333 . S
C432 N434 1.350 . S
C432 H458 0.931 . S
N433 Co429 2.148 . S
N433 C430 1.301 . S
N433 C431 1.317 . S
N434 C430 1.328 . S
N434 C432 1.350 . S
H435 C430 0.930 . S
H436 C431 0.930 . S
C437 O438 1.224 . S
C437 O456 1.247 . S
O438 C437 1.224 . S
N439 Co429 2.128 . S
N439 C440 1.355 . S
N439 C442 1.311 . S
C440 N439 1.355 . S
C440 C441 1.363 . S
C440 H452 0.929 . S
C441 C440 1.363 . S
C441 N443 1.375 . S
C441 H459 0.931 . S
C442 N439 1.311 . S
C442 N443 1.347 . S
C442 H453 0.929 . S
N443 C441 1.375 . S
N443 C442 1.347 . S
C444 C447 1.365 . S
C444 N449 1.328 . S
C444 H450 0.929 . S
C445 C446 1.362 . S
C445 C448 1.378 . S
C445 H460 0.929 . S
C446 C445 1.362 . S
C446 C447 1.366 . S
C447 C444 1.365 . S
C447 C446 1.366 . S
C447 H461 0.930 . S
C448 C445 1.378 . S
C448 N449 1.315 . S
C448 H451 0.930 . S
N449 Co429 2.194 . S
N449 C444 1.328 . S
N449 C448 1.315 . S
H450 C444 0.929 . S
H451 C448 0.930 . S
H452 C440 0.929 . S
H453 C442 0.929 . S
O454 Co429 2.351 . S
O454 C457 1.244 . S
O455 Co429 2.155 . S
O455 C457 1.240 . S
O456 Co429 2.096 . S
O456 C437 1.247 . S
C457 O454 1.244 . S
C457 O455 1.240 . S
H458 C432 0.931 . S
H459 C441 0.931 . S
H460 C445 0.929 . S
H461 C447 0.930 . S
Co462 N466 2.148 . S
Co462 N472 2.128 . S
Co462 N482 2.194 . S
Co462 O487 2.351 . S
Co462 O488 2.155 . S
Co462 O489 2.096 . S
C463 N466 1.301 . S
C463 N467 1.328 . S
C463 H468 0.930 . S
C464 C465 1.333 . S
C464 N466 1.317 . S
C464 H469 0.930 . S
C465 C464 1.333 . S
C465 N467 1.350 . S
C465 H491 0.931 . S
N466 Co462 2.148 . S
N466 C463 1.301 . S
N466 C464 1.317 . S
N467 C463 1.328 . S
N467 C465 1.350 . S
H468 C463 0.930 . S
H469 C464 0.930 . S
C470 O471 1.224 . S
C470 O489 1.247 . S
O471 C470 1.224 . S
N472 Co462 2.128 . S
N472 C473 1.355 . S
N472 C475 1.311 . S
C473 N472 1.355 . S
C473 C474 1.363 . S
C473 H485 0.929 . S
C474 C473 1.363 . S
C474 N476 1.375 . S
C474 H492 0.931 . S
C475 N472 1.311 . S
C475 N476 1.347 . S
C475 H486 0.929 . S
N476 C474 1.375 . S
N476 C475 1.347 . S
C477 C480 1.365 . S
C477 N482 1.328 . S
C477 H483 0.929 . S
C478 C479 1.362 . S
C478 C481 1.378 . S
C478 H493 0.929 . S
C479 C478 1.362 . S
C479 C480 1.366 . S
C480 C477 1.365 . S
C480 C479 1.366 . S
C480 H494 0.930 . S
C481 C478 1.378 . S
C481 N482 1.315 . S
C481 H484 0.930 . S
N482 Co462 2.194 . S
N482 C477 1.328 . S
N482 C481 1.315 . S
H483 C477 0.929 . S
H484 C481 0.930 . S
H485 C473 0.929 . S
H486 C475 0.929 . S
O487 Co462 2.351 . S
O487 C490 1.244 . S
O488 Co462 2.155 . S
O488 C490 1.240 . S
O489 Co462 2.096 . S
O489 C470 1.247 . S
C490 O487 1.244 . S
C490 O488 1.240 . S
H491 C465 0.931 . S
H492 C474 0.931 . S
H493 C478 0.929 . S
H494 C480 0.930 . S
Co495 N499 2.148 . S
Co495 N505 2.128 . S
Co495 N515 2.194 . S
Co495 O520 2.351 . S
Co495 O521 2.155 . S
Co495 O522 2.096 . S
C496 N499 1.301 . S
C496 N500 1.328 . S
C496 H501 0.930 . S
C497 C498 1.333 . S
C497 N499 1.317 . S
C497 H502 0.930 . S
C498 C497 1.333 . S
C498 N500 1.350 . S
C498 H524 0.931 . S
N499 Co495 2.148 . S
N499 C496 1.301 . S
N499 C497 1.317 . S
N500 C496 1.328 . S
N500 C498 1.350 . S
H501 C496 0.930 . S
H502 C497 0.930 . S
C503 O504 1.224 . S
C503 O522 1.247 . S
O504 C503 1.224 . S
N505 Co495 2.128 . S
N505 C506 1.355 . S
N505 C508 1.311 . S
C506 N505 1.355 . S
C506 C507 1.363 . S
C506 H518 0.929 . S
C507 C506 1.363 . S
C507 N509 1.375 . S
C507 H525 0.931 . S
C508 N505 1.311 . S
C508 N509 1.347 . S
C508 H519 0.929 . S
N509 C507 1.375 . S
N509 C508 1.347 . S
C510 C513 1.365 . S
C510 N515 1.328 . S
C510 H516 0.929 . S
C511 C512 1.362 . S
C511 C514 1.378 . S
C511 H526 0.929 . S
C512 C511 1.362 . S
C512 C513 1.366 . S
C513 C510 1.365 . S
C513 C512 1.366 . S
C513 H527 0.930 . S
C514 C511 1.378 . S
C514 N515 1.315 . S
C514 H517 0.930 . S
N515 Co495 2.194 . S
N515 C510 1.328 . S
N515 C514 1.315 . S
H516 C510 0.929 . S
H517 C514 0.930 . S
H518 C506 0.929 . S
H519 C508 0.929 . S
O520 Co495 2.351 . S
O520 C523 1.244 . S
O521 Co495 2.155 . S
O521 C523 1.240 . S
O522 Co495 2.096 . S
O522 C503 1.247 . S
C523 O520 1.244 . S
C523 O521 1.240 . S
H524 C498 0.931 . S
H525 C507 0.931 . S
H526 C511 0.929 . S
H527 C513 0.930 . S
Co528 N532 2.148 . S
Co528 N538 2.128 . S
Co528 N548 2.194 . S
Co528 O553 2.351 . S
Co528 O554 2.155 . S
Co528 O555 2.096 . S
C529 N532 1.301 . S
C529 N533 1.328 . S
C529 H534 0.930 . S
C530 C531 1.333 . S
C530 N532 1.317 . S
C530 H535 0.930 . S
C531 C530 1.333 . S
C531 N533 1.350 . S
C531 H557 0.931 . S
N532 Co528 2.148 . S
N532 C529 1.301 . S
N532 C530 1.317 . S
N533 C529 1.328 . S
N533 C531 1.350 . S
H534 C529 0.930 . S
H535 C530 0.930 . S
C536 O537 1.224 . S
C536 O555 1.247 . S
O537 C536 1.224 . S
N538 Co528 2.128 . S
N538 C539 1.355 . S
N538 C541 1.311 . S
C539 N538 1.355 . S
C539 C540 1.363 . S
C539 H551 0.929 . S
C540 C539 1.363 . S
C540 N542 1.375 . S
C540 H558 0.931 . S
C541 N538 1.311 . S
C541 N542 1.347 . S
C541 H552 0.929 . S
N542 C540 1.375 . S
N542 C541 1.347 . S
C543 C546 1.365 . S
C543 N548 1.328 . S
C543 H549 0.929 . S
C544 C545 1.362 . S
C544 C547 1.378 . S
C544 H559 0.929 . S
C545 C544 1.362 . S
C545 C546 1.366 . S
C546 C543 1.365 . S
C546 C545 1.366 . S
C546 H560 0.930 . S
C547 C544 1.378 . S
C547 N548 1.315 . S
C547 H550 0.930 . S
N548 Co528 2.194 . S
N548 C543 1.328 . S
N548 C547 1.315 . S
H549 C543 0.929 . S
H550 C547 0.930 . S
H551 C539 0.929 . S
H552 C541 0.929 . S
O553 Co528 2.351 . S
O553 C556 1.244 . S
O554 Co528 2.155 . S
O554 C556 1.240 . S
O555 Co528 2.096 . S
O555 C536 1.247 . S
C556 O553 1.244 . S
C556 O554 1.240 . S
H557 C531 0.931 . S
H558 C540 0.931 . S
H559 C544 0.929 . S
H560 C546 0.930 . S
Co561 N565 2.148 . S
Co561 N571 2.128 . S
Co561 N581 2.194 . S
Co561 O586 2.351 . S
Co561 O587 2.155 . S
Co561 O588 2.096 . S
C562 N565 1.301 . S
C562 N566 1.328 . S
C562 H567 0.930 . S
C563 C564 1.333 . S
C563 N565 1.317 . S
C563 H568 0.930 . S
C564 C563 1.333 . S
C564 N566 1.350 . S
C564 H590 0.931 . S
N565 Co561 2.148 . S
N565 C562 1.301 . S
N565 C563 1.317 . S
N566 C562 1.328 . S
N566 C564 1.350 . S
H567 C562 0.930 . S
H568 C563 0.930 . S
C569 O570 1.224 . S
C569 O588 1.247 . S
O570 C569 1.224 . S
N571 Co561 2.128 . S
N571 C572 1.355 . S
N571 C574 1.311 . S
C572 N571 1.355 . S
C572 C573 1.363 . S
C572 H584 0.929 . S
C573 C572 1.363 . S
C573 N575 1.375 . S
C573 H591 0.931 . S
C574 N571 1.311 . S
C574 N575 1.347 . S
C574 H585 0.929 . S
N575 C573 1.375 . S
N575 C574 1.347 . S
C576 C579 1.365 . S
C576 N581 1.328 . S
C576 H582 0.929 . S
C577 C578 1.362 . S
C577 C580 1.378 . S
C577 H592 0.929 . S
C578 C577 1.362 . S
C578 C579 1.366 . S
C579 C576 1.365 . S
C579 C578 1.366 . S
C579 H593 0.930 . S
C580 C577 1.378 . S
C580 N581 1.315 . S
C580 H583 0.930 . S
N581 Co561 2.194 . S
N581 C576 1.328 . S
N581 C580 1.315 . S
H582 C576 0.929 . S
H583 C580 0.930 . S
H584 C572 0.929 . S
H585 C574 0.929 . S
O586 Co561 2.351 . S
O586 C589 1.244 . S
O587 Co561 2.155 . S
O587 C589 1.240 . S
O588 Co561 2.096 . S
O588 C569 1.247 . S
C589 O586 1.244 . S
C589 O587 1.240 . S
H590 C564 0.931 . S
H591 C573 0.931 . S
H592 C577 0.929 . S
H593 C579 0.930 . S
H594 C606 0.930 . S
H595 C608 0.930 . S
H596 C609 0.930 . S
H597 C613 0.959 . S
H598 C613 0.981 . S
H599 C613 0.961 . S
H600 C614 0.960 . S
H601 C614 0.961 . S
H602 C614 0.959 . S
H603 C617 0.929 . S
H604 C618 0.931 . S
H605 C620 0.930 . S
C606 H594 0.930 . S
C606 C607 1.399 . S
C606 C611 1.399 . S
C607 C606 1.399 . S
C607 C608 1.376 . S
C608 H595 0.930 . S
C608 C607 1.376 . S
C608 C609 1.388 . S
C609 H596 0.930 . S
C609 C608 1.388 . S
C609 C610 1.390 . S
C610 C609 1.390 . S
C610 C611 1.394 . S
C610 C616 1.465 . S
C611 C606 1.399 . S
C611 C610 1.394 . S
C611 C612 1.516 . S
C612 C611 1.516 . S
C612 C613 1.502 . S
C612 C614 1.561 . S
C612 C615 1.526 . S
C613 H597 0.959 . S
C613 H598 0.981 . S
C613 H599 0.961 . S
C613 C612 1.502 . S
C614 H600 0.960 . S
C614 H601 0.961 . S
C614 H602 0.959 . S
C614 C612 1.561 . S
C615 C612 1.526 . S
C615 C616 1.396 . S
C615 C620 1.390 . S
C616 C610 1.465 . S
C616 C615 1.396 . S
C616 C617 1.399 . S
C617 H603 0.929 . S
C617 C616 1.399 . S
C617 C618 1.385 . S
C618 H604 0.931 . S
C618 C617 1.385 . S
C618 C619 1.389 . S
C619 C618 1.389 . S
C619 C620 1.387 . S
C620 H605 0.930 . S
C620 C615 1.390 . S
C620 C619 1.387 . S
H621 C633 0.930 . S
H622 C635 0.930 . S
H623 C636 0.930 . S
H624 C640 0.959 . S
H625 C640 0.959 . S
H626 C640 0.961 . S
H627 C641 0.960 . S
H628 C641 0.961 . S
H629 C641 0.959 . S
H630 C644 0.929 . S
H631 C645 0.931 . S
H632 C647 0.930 . S
C633 H621 0.930 . S
C633 C634 1.399 . S
C633 C638 1.399 . S
C634 C633 1.399 . S
C634 C635 1.376 . S
C635 H622 0.930 . S
C635 C634 1.376 . S
C635 C636 1.388 . S
C636 H623 0.930 . S
C636 C635 1.388 . S
C636 C637 1.390 . S
C637 C636 1.390 . S
C637 C638 1.394 . S
C637 C643 1.465 . S
C638 C633 1.399 . S
C638 C637 1.394 . S
C638 C639 1.516 . S
C639 C638 1.516 . S
C639 C640 1.502 . S
C639 C641 1.561 . S
C639 C642 1.526 . S
C640 H624 0.959 . S
C640 H625 0.959 . S
C640 H626 0.961 . S
C640 C639 1.502 . S
C641 H627 0.960 . S
C641 H628 0.961 . S
C641 H629 0.959 . S
C641 C639 1.561 . S
C642 C639 1.526 . S
C642 C643 1.396 . S
C642 C647 1.390 . S
C643 C637 1.465 . S
C643 C642 1.396 . S
C643 C644 1.399 . S
C644 H630 0.929 . S
C644 C643 1.399 . S
C644 C645 1.385 . S
C645 H631 0.931 . S
C645 C644 1.385 . S
C645 C646 1.389 . S
C646 C645 1.389 . S
C646 C647 1.387 . S
C647 H632 0.930 . S
C647 C642 1.390 . S
C647 C646 1.387 . S
H648 C660 0.930 . S
H649 C662 0.930 . S
H650 C663 0.930 . S
H651 C667 0.959 . S
H652 C667 0.959 . S
H653 C667 0.961 . S
H654 C668 0.960 . S
H655 C668 0.961 1_565 S
H656 C668 0.959 . S
H657 C671 0.929 . S
H658 C672 0.931 . S
H659 C674 0.930 . S
C660 H648 0.930 . S
C660 C661 1.399 . S
C660 C665 1.399 . S
C661 C660 1.399 . S
C661 C662 1.376 . S
C662 H649 0.930 . S
C662 C661 1.376 . S
C662 C663 1.388 . S
C663 H650 0.930 . S
C663 C662 1.388 . S
C663 C664 1.390 . S
C664 C663 1.390 . S
C664 C665 1.394 . S
C664 C670 1.465 . S
C665 C660 1.399 . S
C665 C664 1.394 . S
C665 C666 1.516 . S
C666 C665 1.516 . S
C666 C667 1.502 . S
C666 C668 1.561 . S
C666 C669 1.526 . S
C667 H651 0.959 . S
C667 H652 0.959 . S
C667 H653 0.961 . S
C667 C666 1.502 . S
C668 H654 0.960 . S
C668 H655 0.961 1_545 S
C668 H656 0.959 . S
C668 C666 1.561 . S
C669 C666 1.526 . S
C669 C670 1.396 . S
C669 C674 1.390 . S
C670 C664 1.465 . S
C670 C669 1.396 . S
C670 C671 1.399 . S
C671 H657 0.929 . S
C671 C670 1.399 . S
C671 C672 1.385 . S
C672 H658 0.931 . S
C672 C671 1.385 . S
C672 C673 1.389 . S
C673 C672 1.389 . S
C673 C674 1.387 . S
C674 H659 0.930 . S
C674 C669 1.390 . S
C674 C673 1.387 . S
H675 C687 0.930 . S
H676 C689 0.930 . S
H677 C690 0.930 . S
H678 C694 0.959 . S
H679 C694 0.959 . S
H680 C694 0.961 . S
H681 C695 0.960 . S
H682 C695 0.961 . S
H683 C695 0.959 . S
H684 C698 0.929 . S
H685 C699 0.931 . S
H686 C701 0.930 . S
C687 H675 0.930 . S
C687 C688 1.399 . S
C687 C692 1.399 . S
C688 C687 1.399 . S
C688 C689 1.376 . S
C689 H676 0.930 . S
C689 C688 1.376 . S
C689 C690 1.388 . S
C690 H677 0.930 . S
C690 C689 1.388 . S
C690 C691 1.390 . S
C691 C690 1.390 . S
C691 C692 1.394 . S
C691 C697 1.465 . S
C692 C687 1.399 . S
C692 C691 1.394 . S
C692 C693 1.516 . S
C693 C692 1.516 . S
C693 C694 1.502 . S
C693 C695 1.561 . S
C693 C696 1.526 . S
C694 H678 0.959 . S
C694 H679 0.959 . S
C694 H680 0.961 . S
C694 C693 1.502 . S
C695 H681 0.960 . S
C695 H682 0.961 . S
C695 H683 0.959 . S
C695 C693 1.561 . S
C696 C693 1.526 . S
C696 C697 1.396 . S
C696 C701 1.390 . S
C697 C691 1.465 . S
C697 C696 1.396 . S
C697 C698 1.399 . S
C698 H684 0.929 . S
C698 C697 1.399 . S
C698 C699 1.385 . S
C699 H685 0.931 . S
C699 C698 1.385 . S
C699 C700 1.389 . S
C700 C699 1.389 . S
C700 C701 1.387 . S
C701 H686 0.930 . S
C701 C696 1.390 . S
C701 C700 1.387 . S
H702 C714 0.930 . S
H703 C716 0.930 . S
H704 C717 0.930 . S
H705 C721 0.959 . S
H706 C721 0.959 . S
H707 C721 0.961 . S
H708 C722 0.960 . S
H709 C722 0.961 . S
H710 C722 0.959 . S
H711 C725 0.929 . S
H712 C726 0.931 . S
H713 C728 0.930 . S
C714 H702 0.930 . S
C714 C715 1.399 . S
C714 C719 1.399 . S
C715 C714 1.399 . S
C715 C716 1.376 . S
C716 H703 0.930 . S
C716 C715 1.376 . S
C716 C717 1.388 . S
C717 H704 0.930 . S
C717 C716 1.388 . S
C717 C718 1.390 . S
C718 C717 1.390 . S
C718 C719 1.394 . S
C718 C724 1.465 . S
C719 C714 1.399 . S
C719 C718 1.394 . S
C719 C720 1.516 . S
C720 C719 1.516 . S
C720 C721 1.502 . S
C720 C722 1.561 . S
C720 C723 1.526 . S
C721 H705 0.959 . S
C721 H706 0.959 . S
C721 H707 0.961 . S
C721 C720 1.502 . S
C722 H708 0.960 . S
C722 H709 0.961 . S
C722 H710 0.959 . S
C722 C720 1.561 . S
C723 C720 1.526 . S
C723 C724 1.396 . S
C723 C728 1.390 . S
C724 C718 1.465 . S
C724 C723 1.396 . S
C724 C725 1.399 . S
C725 H711 0.929 . S
C725 C724 1.399 . S
C725 C726 1.385 . S
C726 H712 0.931 . S
C726 C725 1.385 . S
C726 C727 1.389 . S
C727 C726 1.389 . S
C727 C728 1.387 . S
C728 H713 0.930 . S
C728 C723 1.390 . S
C728 C727 1.387 . S
H729 C741 0.930 . S
H730 C743 0.930 . S
H731 C744 0.930 . S
H732 C748 0.959 . S
H733 C748 0.959 . S
H734 C748 0.961 . S
H735 C749 0.960 . S
H736 C749 0.961 . S
H737 C749 0.959 . S
H738 C752 0.929 . S
H739 C753 0.931 . S
H740 C755 0.930 . S
C741 H729 0.930 . S
C741 C742 1.399 . S
C741 C746 1.399 . S
C742 C741 1.399 . S
C742 C743 1.376 . S
C743 H730 0.930 . S
C743 C742 1.376 . S
C743 C744 1.388 . S
C744 H731 0.930 . S
C744 C743 1.388 . S
C744 C745 1.390 . S
C745 C744 1.390 . S
C745 C746 1.394 . S
C745 C751 1.465 . S
C746 C741 1.399 . S
C746 C745 1.394 . S
C746 C747 1.516 . S
C747 C746 1.516 . S
C747 C748 1.502 . S
C747 C749 1.561 . S
C747 C750 1.526 . S
C748 H732 0.959 . S
C748 H733 0.959 . S
C748 H734 0.961 . S
C748 C747 1.502 . S
C749 H735 0.960 . S
C749 H736 0.961 . S
C749 H737 0.959 . S
C749 C747 1.561 . S
C750 C747 1.526 . S
C750 C751 1.396 . S
C750 C755 1.390 . S
C751 C745 1.465 . S
C751 C750 1.396 . S
C751 C752 1.399 . S
C752 H738 0.929 . S
C752 C751 1.399 . S
C752 C753 1.385 . S
C753 H739 0.931 . S
C753 C752 1.385 . S
C753 C754 1.389 . S
C754 C753 1.389 . S
C754 C755 1.387 . S
C755 H740 0.930 . S
C755 C750 1.390 . S
C755 C754 1.387 . S
H756 C768 0.930 . S
H757 C770 0.930 . S
H758 C771 0.930 . S
H759 C775 0.959 . S
H760 C775 0.959 . S
H761 C775 0.961 . S
H762 C776 0.960 . S
H763 C776 0.961 . S
H764 C776 0.959 . S
H765 C779 0.929 . S
H766 C780 0.931 . S
H767 C782 0.930 . S
C768 H756 0.930 . S
C768 C769 1.399 . S
C768 C773 1.399 . S
C769 C768 1.399 . S
C769 C770 1.376 . S
C770 H757 0.930 . S
C770 C769 1.376 . S
C770 C771 1.388 . S
C771 H758 0.930 . S
C771 C770 1.388 . S
C771 C772 1.390 . S
C772 C771 1.390 . S
C772 C773 1.394 . S
C772 C778 1.465 . S
C773 C768 1.399 . S
C773 C772 1.394 . S
C773 C774 1.516 . S
C774 C773 1.516 . S
C774 C775 1.502 . S
C774 C776 1.561 . S
C774 C777 1.526 . S
C775 H759 0.959 . S
C775 H760 0.959 . S
C775 H761 0.961 . S
C775 C774 1.502 . S
C776 H762 0.960 . S
C776 H763 0.961 . S
C776 H764 0.959 . S
C776 C774 1.561 . S
C777 C774 1.526 . S
C777 C778 1.396 . S
C777 C782 1.390 . S
C778 C772 1.465 . S
C778 C777 1.396 . S
C778 C779 1.399 . S
C779 H765 0.929 . S
C779 C778 1.399 . S
C779 C780 1.385 . S
C780 H766 0.931 . S
C780 C779 1.385 . S
C780 C781 1.389 . S
C781 C780 1.389 . S
C781 C782 1.387 . S
C782 H767 0.930 . S
C782 C777 1.390 . S
C782 C781 1.387 . S
H783 C795 0.930 . S
H784 C797 0.930 . S
H785 C798 0.930 1_545 S
H786 C802 0.959 . S
H787 C802 0.959 . S
H788 C802 0.961 . S
H789 C803 0.960 . S
H790 C803 0.961 . S
H791 C803 0.971 . S
H792 C806 0.929 . S
H793 C807 0.931 . S
H794 C809 0.930 . S
C795 H783 0.930 . S
C795 C796 1.399 . S
C795 C800 1.399 . S
C796 C795 1.399 . S
C796 C797 1.376 . S
C797 H784 0.930 . S
C797 C796 1.376 . S
C797 C798 1.388 . S
C798 H785 0.930 1_565 S
C798 C797 1.388 . S
C798 C799 1.390 . S
C799 C798 1.390 . S
C799 C800 1.394 . S
C799 C805 1.465 1_565 S
C800 C795 1.399 . S
C800 C799 1.394 . S
C800 C801 1.516 . S
C801 C800 1.516 . S
C801 C802 1.502 . S
C801 C803 1.561 . S
C801 C804 1.526 1_565 S
C802 H786 0.959 . S
C802 H787 0.959 . S
C802 H788 0.961 . S
C802 C801 1.502 . S
C803 H789 0.960 . S
C803 H790 0.961 . S
C803 H791 0.971 . S
C803 C801 1.561 . S
C804 C801 1.526 1_545 S
C804 C805 1.396 . S
C804 C809 1.390 . S
C805 C799 1.465 1_545 S
C805 C804 1.396 . S
C805 C806 1.399 . S
C806 H792 0.929 . S
C806 C805 1.399 . S
C806 C807 1.385 . S
C807 H793 0.931 . S
C807 C806 1.385 . S
C807 C808 1.389 . S
C808 C807 1.389 . S
C808 C809 1.387 . S
C809 H794 0.930 . S
C809 C804 1.390 . S
C809 C808 1.387 . S
H810 C822 0.930 . S
H811 C824 0.930 . S
H812 C825 0.930 . S
H813 C829 0.959 . S
H814 C829 0.959 . S
H815 C829 0.961 . S
H816 C830 0.960 1_455 S
H817 C830 0.961 . S
H818 C830 0.959 1_455 S
H819 C833 0.929 1_455 S
H820 C834 0.931 . S
H821 C836 0.930 . S
C822 H810 0.930 . S
C822 C823 1.399 . S
C822 C827 1.399 . S
C823 C822 1.399 . S
C823 C824 1.376 . S
C824 H811 0.930 . S
C824 C823 1.376 . S
C824 C825 1.388 . S
C825 H812 0.930 . S
C825 C824 1.388 . S
C825 C826 1.390 . S
C826 C825 1.390 . S
C826 C827 1.394 . S
C826 C832 1.465 1_455 S
C827 C822 1.399 . S
C827 C826 1.394 . S
C827 C828 1.516 1_455 S
C828 C827 1.516 1_655 S
C828 C829 1.502 . S
C828 C830 1.561 . S
C828 C831 1.526 . S
C829 H813 0.959 . S
C829 H814 0.959 . S
C829 H815 0.961 . S
C829 C828 1.502 . S
C830 H816 0.960 1_655 S
C830 H817 0.961 . S
C830 H818 0.959 1_655 S
C830 C828 1.561 . S
C831 C828 1.526 . S
C831 C832 1.396 . S
C831 C836 1.390 . S
C832 C826 1.465 1_655 S
C832 C831 1.396 . S
C832 C833 1.399 . S
C833 H819 0.929 1_655 S
C833 C832 1.399 . S
C833 C834 1.385 . S
C834 H820 0.931 . S
C834 C833 1.385 . S
C834 C835 1.389 . S
C835 C834 1.389 . S
C835 C836 1.387 . S
C836 H821 0.930 . S
C836 C831 1.390 . S
C836 C835 1.387 . S
H837 C849 0.930 . S
H838 C851 0.930 . S
H839 C852 0.930 . S
H840 C856 0.959 . S
H841 C856 0.959 . S
H842 C856 0.961 . S
H843 C857 0.960 . S
H844 C857 0.961 . S
H845 C857 0.959 . S
H846 C860 0.929 . S
H847 C861 0.931 . S
H848 C863 0.930 . S
C849 H837 0.930 . S
C849 C850 1.399 . S
C849 C854 1.399 . S
C850 C849 1.399 . S
C850 C851 1.376 . S
C851 H838 0.930 . S
C851 C850 1.376 . S
C851 C852 1.388 . S
C852 H839 0.930 . S
C852 C851 1.388 . S
C852 C853 1.390 . S
C853 C852 1.390 . S
C853 C854 1.394 . S
C853 C859 1.465 . S
C854 C849 1.399 . S
C854 C853 1.394 . S
C854 C855 1.516 . S
C855 C854 1.516 . S
C855 C856 1.502 . S
C855 C857 1.561 . S
C855 C858 1.526 . S
C856 H840 0.959 . S
C856 H841 0.959 . S
C856 H842 0.961 . S
C856 C855 1.502 . S
C857 H843 0.960 . S
C857 H844 0.961 . S
C857 H845 0.959 . S
C857 C855 1.561 . S
C858 C855 1.526 . S
C858 C859 1.396 . S
C858 C863 1.390 . S
C859 C853 1.465 . S
C859 C858 1.396 . S
C859 C860 1.399 . S
C860 H846 0.929 . S
C860 C859 1.399 . S
C860 C861 1.385 . S
C861 H847 0.931 . S
C861 C860 1.385 . S
C861 C862 1.389 . S
C862 C861 1.389 . S
C862 C863 1.387 . S
C863 H848 0.930 . S
C863 C858 1.390 . S
C863 C862 1.387 . S
H864 C876 0.930 . S
H865 C878 0.930 . S
H866 C879 0.930 . S
H867 C883 0.959 . S
H868 C883 0.959 . S
H869 C883 0.961 . S
H870 C884 0.960 . S
H871 C884 0.961 . S
H872 C884 0.959 . S
H873 C887 0.929 . S
H874 C888 0.931 . S
H875 C890 0.930 . S
C876 H864 0.930 . S
C876 C877 1.399 . S
C876 C881 1.399 . S
C877 C876 1.399 . S
C877 C878 1.376 . S
C878 H865 0.930 . S
C878 C877 1.376 . S
C878 C879 1.388 . S
C879 H866 0.930 . S
C879 C878 1.388 . S
C879 C880 1.390 . S
C880 C879 1.390 . S
C880 C881 1.394 . S
C880 C886 1.465 . S
C881 C876 1.399 . S
C881 C880 1.394 . S
C881 C882 1.516 . S
C882 C881 1.516 . S
C882 C883 1.502 . S
C882 C884 1.561 . S
C882 C885 1.526 . S
C883 H867 0.959 . S
C883 H868 0.959 . S
C883 H869 0.961 . S
C883 C882 1.502 . S
C884 H870 0.960 . S
C884 H871 0.961 . S
C884 H872 0.959 . S
C884 C882 1.561 . S
C885 C882 1.526 . S
C885 C886 1.396 . S
C885 C890 1.390 . S
C886 C880 1.465 . S
C886 C885 1.396 . S
C886 C887 1.399 . S
C887 H873 0.929 . S
C887 C886 1.399 . S
C887 C888 1.385 . S
C888 H874 0.931 . S
C888 C887 1.385 . S
C888 C889 1.389 . S
C889 C888 1.389 . S
C889 C890 1.387 . S
C890 H875 0.930 . S
C890 C885 1.390 . S
C890 C889 1.387 . S
H891 C903 0.930 . S
H892 C905 0.930 . S
H893 C906 0.930 . S
H894 C910 0.959 . S
H895 C910 0.959 . S
H896 C910 0.961 . S
H897 C911 0.960 . S
H898 C911 0.961 . S
H899 C911 0.959 . S
H900 C914 0.929 . S
H901 C915 0.931 . S
H902 C917 0.930 . S
C903 H891 0.930 . S
C903 C904 1.399 . S
C903 C908 1.399 . S
C904 C903 1.399 . S
C904 C905 1.376 . S
C905 H892 0.930 . S
C905 C904 1.376 . S
C905 C906 1.388 . S
C906 H893 0.930 . S
C906 C905 1.388 . S
C906 C907 1.390 . S
C907 C906 1.390 . S
C907 C908 1.394 . S
C907 C913 1.465 . S
C908 C903 1.399 . S
C908 C907 1.394 . S
C908 C909 1.516 . S
C909 C908 1.516 . S
C909 C910 1.502 . S
C909 C911 1.561 . S
C909 C912 1.526 . S
C910 H894 0.959 . S
C910 H895 0.959 . S
C910 H896 0.961 . S
C910 C909 1.502 . S
C911 H897 0.960 . S
C911 H898 0.961 . S
C911 H899 0.959 . S
C911 C909 1.561 . S
C912 C909 1.526 . S
C912 C913 1.396 . S
C912 C917 1.390 . S
C913 C907 1.465 . S
C913 C912 1.396 . S
C913 C914 1.399 . S
C914 H900 0.929 . S
C914 C913 1.399 . S
C914 C915 1.385 . S
C915 H901 0.931 . S
C915 C914 1.385 . S
C915 C916 1.389 . S
C916 C915 1.389 . S
C916 C917 1.387 . S
C917 H902 0.930 . S
C917 C912 1.390 . S
C917 C916 1.387 . S
H918 C930 0.930 . S
H919 C932 0.930 . S
H920 C933 0.930 . S
H921 C937 0.959 . S
H922 C937 0.959 . S
H923 C937 0.961 . S
H924 C938 0.960 . S
H925 C938 0.961 . S
H926 C938 0.959 . S
H927 C941 0.929 . S
H928 C942 0.931 . S
H929 C944 0.930 . S
C930 H918 0.930 . S
C930 C931 1.399 . S
C930 C935 1.399 . S
C931 C930 1.399 . S
C931 C932 1.376 . S
C932 H919 0.930 . S
C932 C931 1.376 . S
C932 C933 1.388 . S
C933 H920 0.930 . S
C933 C932 1.388 . S
C933 C934 1.390 . S
C934 C933 1.390 . S
C934 C935 1.394 . S
C934 C940 1.465 . S
C935 C930 1.399 . S
C935 C934 1.394 . S
C935 C936 1.516 . S
C936 C935 1.516 . S
C936 C937 1.502 . S
C936 C938 1.561 . S
C936 C939 1.526 . S
C937 H921 0.959 . S
C937 H922 0.959 . S
C937 H923 0.961 . S
C937 C936 1.502 . S
C938 H924 0.960 . S
C938 H925 0.961 . S
C938 H926 0.959 . S
C938 C936 1.561 . S
C939 C936 1.526 . S
C939 C940 1.396 . S
C939 C944 1.390 . S
C940 C934 1.465 . S
C940 C939 1.396 . S
C940 C941 1.399 . S
C941 H927 0.929 . S
C941 C940 1.399 . S
C941 C942 1.385 . S
C942 H928 0.931 . S
C942 C941 1.385 . S
C942 C943 1.389 . S
C943 C942 1.389 . S
C943 C944 1.387 . S
C944 H929 0.930 . S
C944 C939 1.390 . S
C944 C943 1.387 . S
H945 C957 0.930 . S
H946 C959 0.930 . S
H947 C960 0.930 . S
H948 C964 0.959 . S
H949 C964 0.959 . S
H950 C964 0.961 . S
H951 C965 0.960 . S
H952 C965 0.961 . S
H953 C965 0.959 . S
H954 C968 0.929 . S
H955 C969 0.931 . S
H956 C971 0.930 . S
C957 H945 0.930 . S
C957 C958 1.399 . S
C957 C962 1.399 . S
C958 C957 1.399 . S
C958 C959 1.376 . S
C959 H946 0.930 . S
C959 C958 1.376 . S
C959 C960 1.388 . S
C960 H947 0.930 . S
C960 C959 1.388 . S
C960 C961 1.390 . S
C961 C960 1.390 . S
C961 C962 1.394 . S
C961 C967 1.465 . S
C962 C957 1.399 . S
C962 C961 1.394 . S
C962 C963 1.516 . S
C963 C962 1.516 . S
C963 C964 1.502 . S
C963 C965 1.561 . S
C963 C966 1.526 . S
C964 H948 0.959 . S
C964 H949 0.959 . S
C964 H950 0.961 . S
C964 C963 1.502 . S
C965 H951 0.960 . S
C965 H952 0.961 . S
C965 H953 0.959 . S
C965 C963 1.561 . S
C966 C963 1.526 . S
C966 C967 1.396 . S
C966 C971 1.390 . S
C967 C961 1.465 . S
C967 C966 1.396 . S
C967 C968 1.399 . S
C968 H954 0.929 . S
C968 C967 1.399 . S
C968 C969 1.385 . S
C969 H955 0.931 . S
C969 C968 1.385 . S
C969 C970 1.389 . S
C970 C969 1.389 . S
C970 C971 1.387 . S
C971 H956 0.930 . S
C971 C966 1.390 . S
C971 C970 1.387 . S
H972 C984 0.930 . S
H973 C986 0.930 . S
H974 C987 0.930 . S
H975 C991 0.959 . S
H976 C991 0.959 . S
H977 C991 0.961 . S
H978 C992 0.960 . S
H979 C992 0.961 . S
H980 C992 0.959 . S
H981 C995 0.929 . S
H982 C996 0.931 . S
H983 C998 0.930 . S
C984 H972 0.930 . S
C984 C985 1.399 . S
C984 C989 1.399 . S
C985 C984 1.399 . S
C985 C986 1.376 . S
C986 H973 0.930 . S
C986 C985 1.376 . S
C986 C987 1.388 . S
C987 H974 0.930 . S
C987 C986 1.388 . S
C987 C988 1.390 . S
C988 C987 1.390 . S
C988 C989 1.394 . S
C988 C994 1.465 . S
C989 C984 1.399 . S
C989 C988 1.394 . S
C989 C990 1.516 . S
C990 C989 1.516 . S
C990 C991 1.502 . S
C990 C992 1.561 . S
C990 C993 1.526 . S
C991 H975 0.959 . S
C991 H976 0.959 . S
C991 H977 0.961 . S
C991 C990 1.502 . S
C992 H978 0.960 . S
C992 H979 0.961 . S
C992 H980 0.959 . S
C992 C990 1.561 . S
C993 C990 1.526 . S
C993 C994 1.396 . S
C993 C998 1.390 . S
C994 C988 1.465 . S
C994 C993 1.396 . S
C994 C995 1.399 . S
C995 H981 0.929 . S
C995 C994 1.399 . S
C995 C996 1.385 . S
C996 H982 0.931 . S
C996 C995 1.385 . S
C996 C997 1.389 . S
C997 C996 1.389 . S
C997 C998 1.387 . S
C998 H983 0.930 . S
C998 C993 1.390 . S
C998 C997 1.387 . S
H999 C1011 0.930 . S
H1000 C1013 0.930 . S
H1001 C1014 0.930 . S
H1002 C1018 0.959 . S
H1003 C1018 0.959 . S
H1004 C1018 0.961 . S
H1005 C1019 0.972 1_554 S
H1006 C1019 0.926 1_455 S
H1007 C1019 0.975 . S
H1008 C1022 0.929 . S
H1009 C1023 0.931 . S
H1010 C1025 0.930 . S
C1011 H999 0.930 . S
C1011 C1012 1.399 . S
C1011 C1016 1.399 . S
C1012 C1011 1.399 . S
C1012 C1013 1.376 . S
C1013 H1000 0.930 . S
C1013 C1012 1.376 . S
C1013 C1014 1.388 1_554 S
C1014 H1001 0.930 . S
C1014 C1013 1.388 1_556 S
C1014 C1015 1.390 . S
C1015 C1014 1.390 . S
C1015 C1016 1.394 1_556 S
C1015 C1021 1.465 1_655 S
C1016 C1011 1.399 . S
C1016 C1015 1.394 1_554 S
C1016 C1017 1.516 1_655 S
C1017 C1016 1.516 1_455 S
C1017 C1018 1.502 . S
C1017 C1019 1.569 1_454 S
C1017 C1020 1.526 1_554 S
C1018 H1002 0.959 . S
C1018 H1003 0.959 . S
C1018 H1004 0.961 . S
C1018 C1017 1.502 . S
C1019 H1005 0.972 1_556 S
C1019 H1006 0.926 1_655 S
C1019 H1007 0.975 . S
C1019 C1017 1.569 1_656 S
C1020 C1017 1.526 1_556 S
C1020 C1021 1.396 . S
C1020 C1025 1.390 . S
C1021 C1015 1.465 1_455 S
C1021 C1020 1.396 . S
C1021 C1022 1.399 . S
C1022 H1008 0.929 . S
C1022 C1021 1.399 . S
C1022 C1023 1.385 . S
C1023 H1009 0.931 . S
C1023 C1022 1.385 . S
C1023 C1024 1.389 . S
C1024 C1023 1.389 . S
C1024 C1025 1.387 . S
C1025 H1010 0.930 . S
C1025 C1020 1.390 . S
C1025 C1024 1.387 . S
H1026 C1038 0.930 . S
H1027 C1040 0.930 . S
H1028 C1041 0.930 . S
H1029 C1045 0.959 . S
H1030 C1045 0.959 . S
H1031 C1045 0.961 . S
H1032 C1046 0.960 . S
H1033 C1046 0.961 . S
H1034 C1046 0.959 . S
H1035 C1049 0.929 . S
H1036 C1050 0.931 . S
H1037 C1052 0.930 . S
C1038 H1026 0.930 . S
C1038 C1039 1.399 . S
C1038 C1043 1.399 . S
C1039 C1038 1.399 . S
C1039 C1040 1.376 . S
C1040 H1027 0.930 . S
C1040 C1039 1.376 . S
C1040 C1041 1.388 1_556 S
C1041 H1028 0.930 . S
C1041 C1040 1.388 1_554 S
C1041 C1042 1.386 1_554 S
C1042 C1041 1.386 1_556 S
C1042 C1043 1.418 . S
C1042 C1048 1.448 1_556 S
C1043 C1038 1.399 . S
C1043 C1042 1.418 . S
C1043 C1044 1.516 . S
C1044 C1043 1.516 . S
C1044 C1045 1.502 . S
C1044 C1046 1.561 . S
C1044 C1047 1.526 1_556 S
C1045 H1029 0.959 . S
C1045 H1030 0.959 . S
C1045 H1031 0.961 . S
C1045 C1044 1.502 . S
C1046 H1032 0.960 . S
C1046 H1033 0.961 . S
C1046 H1034 0.959 . S
C1046 C1044 1.561 . S
C1047 C1044 1.526 1_554 S
C1047 C1048 1.396 . S
C1047 C1052 1.390 . S
C1048 C1042 1.448 1_554 S
C1048 C1047 1.396 . S
C1048 C1049 1.399 . S
C1049 H1035 0.929 . S
C1049 C1048 1.399 . S
C1049 C1050 1.385 . S
C1050 H1036 0.931 . S
C1050 C1049 1.385 . S
C1050 C1051 1.389 . S
C1051 C1050 1.389 . S
C1051 C1052 1.387 . S
C1052 H1037 0.930 . S
C1052 C1047 1.390 . S
C1052 C1051 1.387 . S
H1053 C1065 0.930 . S
H1054 C1067 0.930 1_556 S
H1055 C1068 0.930 . S
H1056 C1072 0.959 . S
H1057 C1072 0.959 . S
H1058 C1072 0.961 . S
H1059 C1073 0.960 . S
H1060 C1073 0.961 . S
H1061 C1073 0.959 . S
H1062 C1076 0.929 1_545 S
H1063 C1077 0.931 . S
H1064 C1079 0.930 1_554 S
C1065 H1053 0.930 . S
C1065 C1066 1.399 . S
C1065 C1070 1.399 . S
C1066 C1065 1.399 . S
C1066 C1067 1.376 . S
C1067 H1054 0.930 1_554 S
C1067 C1066 1.376 . S
C1067 C1068 1.388 1_554 S
C1068 H1055 0.930 . S
C1068 C1067 1.388 1_556 S
C1068 C1069 1.390 . S
C1069 C1068 1.390 . S
C1069 C1070 1.394 1_556 S
C1069 C1075 1.465 1_545 S
C1070 C1065 1.399 . S
C1070 C1069 1.394 1_554 S
C1070 C1071 1.516 1_545 S
C1071 C1070 1.516 1_565 S
C1071 C1072 1.502 . S
C1071 C1073 1.561 . S
C1071 C1074 1.520 1_554 S
C1072 H1056 0.959 . S
C1072 H1057 0.959 . S
C1072 H1058 0.961 . S
C1072 C1071 1.502 . S
C1073 H1059 0.960 . S
C1073 H1060 0.961 . S
C1073 H1061 0.959 . S
C1073 C1071 1.561 . S
C1074 C1071 1.520 1_556 S
C1074 C1075 1.400 . S
C1074 C1079 1.391 . S
C1075 C1069 1.465 1_565 S
C1075 C1074 1.400 . S
C1075 C1076 1.399 . S
C1076 H1062 0.929 1_565 S
C1076 C1075 1.399 . S
C1076 C1077 1.385 . S
C1077 H1063 0.931 . S
C1077 C1076 1.385 . S
C1077 C1078 1.389 . S
C1078 C1077 1.389 . S
C1078 C1079 1.387 . S
C1079 H1064 0.930 1_556 S
C1079 C1074 1.391 . S
C1079 C1078 1.387 . S
H1080 C1092 0.930 . S
H1081 C1094 0.930 . S
H1082 C1095 0.930 . S
H1083 C1099 0.959 1_556 S
H1084 C1099 0.959 1_556 S
H1085 C1099 0.961 . S
H1086 C1100 0.960 . S
H1087 C1100 0.961 . S
H1088 C1100 0.959 . S
H1089 C1103 0.929 . S
H1090 C1104 0.931 . S
H1091 C1106 0.930 . S
C1092 H1080 0.930 . S
C1092 C1093 1.399 . S
C1092 C1097 1.399 . S
C1093 C1092 1.399 . S
C1093 C1094 1.376 . S
C1094 H1081 0.930 . S
C1094 C1093 1.376 . S
C1094 C1095 1.388 . S
C1095 H1082 0.930 . S
C1095 C1094 1.388 . S
C1095 C1096 1.390 . S
C1096 C1095 1.390 . S
C1096 C1097 1.394 . S
C1096 C1102 1.462 1_454 S
C1097 C1092 1.399 . S
C1097 C1096 1.394 . S
C1097 C1098 1.516 1_455 S
C1098 C1097 1.516 1_655 S
C1098 C1099 1.502 . S
C1098 C1100 1.561 . S
C1098 C1101 1.526 1_554 S
C1099 H1083 0.959 1_554 S
C1099 H1084 0.959 1_554 S
C1099 H1085 0.961 . S
C1099 C1098 1.502 . S
C1100 H1086 0.960 . S
C1100 H1087 0.961 . S
C1100 H1088 0.959 . S
C1100 C1098 1.561 . S
C1101 C1098 1.526 1_556 S
C1101 C1102 1.398 . S
C1101 C1106 1.390 . S
C1102 C1096 1.462 1_656 S
C1102 C1101 1.398 . S
C1102 C1103 1.400 1_655 S
C1103 H1089 0.929 . S
C1103 C1102 1.400 1_455 S
C1103 C1104 1.385 1_455 S
C1104 H1090 0.931 . S
C1104 C1103 1.385 1_655 S
C1104 C1105 1.389 . S
C1105 C1104 1.389 . S
C1105 C1106 1.387 . S
C1106 H1091 0.930 . S
C1106 C1101 1.390 . S
C1106 C1105 1.387 . S
H1107 C1119 0.930 . S
H1108 C1121 0.930 . S
H1109 C1122 0.930 . S
H1110 C1126 0.959 . S
H1111 C1126 0.959 . S
H1112 C1126 0.961 . S
H1113 C1127 0.960 . S
H1114 C1127 0.961 1_554 S
H1115 C1127 0.959 . S
H1116 C1130 0.929 . S
H1117 C1131 0.931 . S
H1118 C1133 0.930 . S
C1119 H1107 0.930 . S
C1119 C1120 1.399 . S
C1119 C1124 1.399 . S
C1120 C1119 1.399 . S
C1120 C1121 1.376 . S
C1121 H1108 0.930 . S
C1121 C1120 1.376 . S
C1121 C1122 1.388 . S
C1122 H1109 0.930 . S
C1122 C1121 1.388 . S
C1122 C1123 1.390 . S
C1123 C1122 1.390 . S
C1123 C1124 1.394 . S
C1123 C1129 1.465 1_556 S
C1124 C1119 1.399 . S
C1124 C1123 1.394 . S
C1124 C1125 1.516 1_556 S
C1125 C1124 1.516 1_554 S
C1125 C1126 1.502 . S
C1125 C1127 1.561 1_554 S
C1125 C1128 1.526 . S
C1126 H1110 0.959 . S
C1126 H1111 0.959 . S
C1126 H1112 0.961 . S
C1126 C1125 1.502 . S
C1127 H1113 0.960 . S
C1127 H1114 0.961 1_556 S
C1127 H1115 0.959 . S
C1127 C1125 1.561 1_556 S
C1128 C1125 1.526 . S
C1128 C1129 1.396 . S
C1128 C1133 1.390 . S
C1129 C1123 1.465 1_554 S
C1129 C1128 1.396 . S
C1129 C1130 1.399 . S
C1130 H1116 0.929 . S
C1130 C1129 1.399 . S
C1130 C1131 1.385 . S
C1131 H1117 0.931 . S
C1131 C1130 1.385 . S
C1131 C1132 1.389 . S
C1132 C1131 1.389 . S
C1132 C1133 1.387 . S
C1133 H1118 0.930 . S
C1133 C1128 1.390 . S
C1133 C1132 1.387 . S
H1134 C1146 0.930 . S
H1135 C1148 0.930 1_565 S
H1136 C1149 0.930 . S
H1137 C1153 0.959 . S
H1138 C1153 0.959 . S
H1139 C1153 0.961 . S
H1140 C1154 0.960 . S
H1141 C1154 0.961 . S
H1142 C1154 0.959 . S
H1143 C1157 0.929 . S
H1144 C1158 0.931 . S
H1145 C1160 0.930 1_545 S
C1146 H1134 0.930 . S
C1146 C1147 1.399 . S
C1146 C1151 1.399 . S
C1147 C1146 1.399 . S
C1147 C1148 1.376 . S
C1148 H1135 0.930 1_545 S
C1148 C1147 1.376 . S
C1148 C1149 1.388 1_545 S
C1149 H1136 0.930 . S
C1149 C1148 1.388 1_565 S
C1149 C1150 1.390 . S
C1150 C1149 1.390 . S
C1150 C1151 1.394 1_565 S
C1150 C1156 1.465 1_556 S
C1151 C1146 1.399 . S
C1151 C1150 1.394 1_545 S
C1151 C1152 1.516 1_556 S
C1152 C1151 1.516 1_554 S
C1152 C1153 1.502 . S
C1152 C1154 1.561 . S
C1152 C1155 1.526 . S
C1153 H1137 0.959 . S
C1153 H1138 0.959 . S
C1153 H1139 0.961 . S
C1153 C1152 1.502 . S
C1154 H1140 0.960 . S
C1154 H1141 0.961 . S
C1154 H1142 0.959 . S
C1154 C1152 1.561 . S
C1155 C1152 1.526 . S
C1155 C1156 1.396 1_545 S
C1155 C1160 1.390 1_545 S
C1156 C1150 1.465 1_554 S
C1156 C1155 1.396 1_565 S
C1156 C1157 1.399 . S
C1157 H1143 0.929 . S
C1157 C1156 1.399 . S
C1157 C1158 1.385 . S
C1158 H1144 0.931 . S
C1158 C1157 1.385 . S
C1158 C1159 1.389 . S
C1159 C1158 1.389 . S
C1159 C1160 1.387 . S
C1160 H1145 0.930 1_565 S
C1160 C1155 1.390 1_565 S
C1160 C1159 1.387 . S
H1161 C1173 0.930 . S
H1162 C1175 0.930 . S
H1163 C1176 0.930 . S
H1164 C1180 0.959 . S
H1165 C1180 0.959 . S
H1166 C1180 0.961 . S
H1167 C1181 0.960 . S
H1168 C1181 0.961 . S
H1169 C1181 0.959 . S
H1170 C1184 0.929 . S
H1171 C1185 0.931 . S
H1172 C1187 0.930 . S
C1173 H1161 0.930 . S
C1173 C1174 1.399 . S
C1173 C1178 1.399 . S
C1174 C1173 1.399 . S
C1174 C1175 1.376 . S
C1175 H1162 0.930 . S
C1175 C1174 1.376 . S
C1175 C1176 1.388 . S
C1176 H1163 0.930 . S
C1176 C1175 1.388 . S
C1176 C1177 1.390 . S
C1177 C1176 1.390 . S
C1177 C1178 1.394 . S
C1177 C1183 1.465 . S
C1178 C1173 1.399 . S
C1178 C1177 1.394 . S
C1178 C1179 1.516 . S
C1179 C1178 1.516 . S
C1179 C1180 1.502 . S
C1179 C1181 1.561 . S
C1179 C1182 1.526 . S
C1180 H1164 0.959 . S
C1180 H1165 0.959 . S
C1180 H1166 0.961 . S
C1180 C1179 1.502 . S
C1181 H1167 0.960 . S
C1181 H1168 0.961 . S
C1181 H1169 0.959 . S
C1181 C1179 1.561 . S
C1182 C1179 1.526 . S
C1182 C1183 1.396 . S
C1182 C1187 1.390 . S
C1183 C1177 1.465 . S
C1183 C1182 1.396 . S
C1183 C1184 1.399 . S
C1184 H1170 0.929 . S
C1184 C1183 1.399 . S
C1184 C1185 1.385 . S
C1185 H1171 0.931 . S
C1185 C1184 1.385 . S
C1185 C1186 1.389 . S
C1186 C1185 1.389 . S
C1186 C1187 1.387 . S
C1187 H1172 0.930 . S
C1187 C1182 1.390 . S
C1187 C1186 1.387 . S
H1188 C1200 0.930 . S
H1189 C1202 0.930 . S
H1190 C1203 0.930 . S
H1191 C1207 0.959 . S
H1192 C1207 0.959 . S
H1193 C1207 0.961 . S
H1194 C1208 0.960 . S
H1195 C1208 0.961 . S
H1196 C1208 0.959 . S
H1197 C1211 0.929 . S
H1198 C1212 0.931 . S
H1199 C1214 0.930 . S
C1200 H1188 0.930 . S
C1200 C1201 1.399 . S
C1200 C1205 1.399 . S
C1201 C1200 1.399 . S
C1201 C1202 1.376 . S
C1202 H1189 0.930 . S
C1202 C1201 1.376 . S
C1202 C1203 1.388 . S
C1203 H1190 0.930 . S
C1203 C1202 1.388 . S
C1203 C1204 1.390 . S
C1204 C1203 1.390 . S
C1204 C1205 1.394 . S
C1204 C1210 1.465 . S
C1205 C1200 1.399 . S
C1205 C1204 1.394 . S
C1205 C1206 1.516 . S
C1206 C1205 1.516 . S
C1206 C1207 1.502 . S
C1206 C1208 1.561 . S
C1206 C1209 1.526 . S
C1207 H1191 0.959 . S
C1207 H1192 0.959 . S
C1207 H1193 0.961 . S
C1207 C1206 1.502 . S
C1208 H1194 0.960 . S
C1208 H1195 0.961 . S
C1208 H1196 0.959 . S
C1208 C1206 1.561 . S
C1209 C1206 1.526 . S
C1209 C1210 1.396 . S
C1209 C1214 1.390 . S
C1210 C1204 1.465 . S
C1210 C1209 1.396 . S
C1210 C1211 1.399 . S
C1211 H1197 0.929 . S
C1211 C1210 1.399 . S
C1211 C1212 1.385 . S
C1212 H1198 0.931 . S
C1212 C1211 1.385 . S
C1212 C1213 1.389 . S
C1213 C1212 1.389 . S
C1213 C1214 1.387 . S
C1214 H1199 0.930 . S
C1214 C1209 1.390 . S
C1214 C1213 1.387 . S
H1215 C1227 0.930 . S
H1216 C1229 0.930 . S
H1217 C1230 0.930 . S
H1218 C1234 0.959 . S
H1219 C1234 0.959 . S
H1220 C1234 0.961 . S
H1221 C1235 0.960 . S
H1222 C1235 0.961 . S
H1223 C1235 0.959 . S
H1224 C1238 0.929 . S
H1225 C1239 0.931 . S
H1226 C1241 0.930 . S
C1227 H1215 0.930 . S
C1227 C1228 1.399 . S
C1227 C1232 1.399 . S
C1228 C1227 1.399 . S
C1228 C1229 1.376 . S
C1229 H1216 0.930 . S
C1229 C1228 1.376 . S
C1229 C1230 1.388 . S
C1230 H1217 0.930 . S
C1230 C1229 1.388 . S
C1230 C1231 1.390 . S
C1231 C1230 1.390 . S
C1231 C1232 1.394 . S
C1231 C1237 1.465 . S
C1232 C1227 1.399 . S
C1232 C1231 1.394 . S
C1232 C1233 1.516 . S
C1233 C1232 1.516 . S
C1233 C1234 1.502 . S
C1233 C1235 1.561 . S
C1233 C1236 1.526 . S
C1234 H1218 0.959 . S
C1234 H1219 0.959 . S
C1234 H1220 0.961 . S
C1234 C1233 1.502 . S
C1235 H1221 0.960 . S
C1235 H1222 0.961 . S
C1235 H1223 0.959 . S
C1235 C1233 1.561 . S
C1236 C1233 1.526 . S
C1236 C1237 1.396 . S
C1236 C1241 1.390 . S
C1237 C1231 1.465 . S
C1237 C1236 1.396 . S
C1237 C1238 1.399 . S
C1238 H1224 0.929 . S
C1238 C1237 1.399 . S
C1238 C1239 1.385 . S
C1239 H1225 0.931 . S
C1239 C1238 1.385 . S
C1239 C1240 1.389 . S
C1240 C1239 1.389 . S
C1240 C1241 1.387 . S
C1241 H1226 0.930 . S
C1241 C1236 1.390 . S
C1241 C1240 1.387 . S
H1242 C1254 0.930 . S
H1243 C1256 0.930 . S
H1244 C1257 0.930 . S
H1245 C1261 0.959 . S
H1246 C1261 0.959 . S
H1247 C1261 0.961 . S
H1248 C1262 0.960 . S
H1249 C1262 0.961 . S
H1250 C1262 0.959 . S
H1251 C1265 0.929 . S
H1252 C1266 0.931 . S
H1253 C1268 0.930 . S
C1254 H1242 0.930 . S
C1254 C1255 1.399 . S
C1254 C1259 1.399 . S
C1255 C1254 1.399 . S
C1255 C1256 1.376 . S
C1256 H1243 0.930 . S
C1256 C1255 1.376 . S
C1256 C1257 1.388 . S
C1257 H1244 0.930 . S
C1257 C1256 1.388 . S
C1257 C1258 1.390 . S
C1258 C1257 1.390 . S
C1258 C1259 1.394 . S
C1258 C1264 1.465 . S
C1259 C1254 1.399 . S
C1259 C1258 1.394 . S
C1259 C1260 1.516 . S
C1260 C1259 1.516 . S
C1260 C1261 1.502 . S
C1260 C1262 1.561 . S
C1260 C1263 1.526 . S
C1261 H1245 0.959 . S
C1261 H1246 0.959 . S
C1261 H1247 0.961 . S
C1261 C1260 1.502 . S
C1262 H1248 0.960 . S
C1262 H1249 0.961 . S
C1262 H1250 0.959 . S
C1262 C1260 1.561 . S
C1263 C1260 1.526 . S
C1263 C1264 1.396 . S
C1263 C1268 1.390 . S
C1264 C1258 1.465 . S
C1264 C1263 1.396 . S
C1264 C1265 1.399 . S
C1265 H1251 0.929 . S
C1265 C1264 1.399 . S
C1265 C1266 1.385 . S
C1266 H1252 0.931 . S
C1266 C1265 1.385 . S
C1266 C1267 1.389 . S
C1267 C1266 1.389 . S
C1267 C1268 1.387 . S
C1268 H1253 0.930 . S
C1268 C1263 1.390 . S
C1268 C1267 1.387 . S
H1269 C1281 0.930 . S
H1270 C1283 0.930 . S
H1271 C1284 0.930 . S
H1272 C1288 0.959 . S
H1273 C1288 0.959 . S
H1274 C1288 0.961 . S
H1275 C1289 0.960 . S
H1276 C1289 0.961 . S
H1277 C1289 0.959 . S
H1278 C1292 0.929 . S
H1279 C1293 0.931 . S
H1280 C1295 0.930 . S
C1281 H1269 0.930 . S
C1281 C1282 1.399 . S
C1281 C1286 1.399 . S
C1282 C1281 1.399 . S
C1282 C1283 1.376 . S
C1283 H1270 0.930 . S
C1283 C1282 1.376 . S
C1283 C1284 1.388 . S
C1284 H1271 0.930 . S
C1284 C1283 1.388 . S
C1284 C1285 1.390 . S
C1285 C1284 1.390 . S
C1285 C1286 1.394 . S
C1285 C1291 1.465 . S
C1286 C1281 1.399 . S
C1286 C1285 1.394 . S
C1286 C1287 1.516 . S
C1287 C1286 1.516 . S
C1287 C1288 1.502 . S
C1287 C1289 1.561 . S
C1287 C1290 1.526 . S
C1288 H1272 0.959 . S
C1288 H1273 0.959 . S
C1288 H1274 0.961 . S
C1288 C1287 1.502 . S
C1289 H1275 0.960 . S
C1289 H1276 0.961 . S
C1289 H1277 0.959 . S
C1289 C1287 1.561 . S
C1290 C1287 1.526 . S
C1290 C1291 1.396 . S
C1290 C1295 1.390 . S
C1291 C1285 1.465 . S
C1291 C1290 1.396 . S
C1291 C1292 1.399 . S
C1292 H1278 0.929 . S
C1292 C1291 1.399 . S
C1292 C1293 1.385 . S
C1293 H1279 0.931 . S
C1293 C1292 1.385 . S
C1293 C1294 1.389 . S
C1294 C1293 1.389 . S
C1294 C1295 1.387 . S
C1295 H1280 0.930 . S
C1295 C1290 1.390 . S
C1295 C1294 1.387 . S
H1296 C1308 0.930 . S
H1297 C1310 0.930 . S
H1298 C1311 0.930 . S
H1299 C1315 0.959 . S
H1300 C1315 0.959 . S
H1301 C1315 0.961 . S
H1302 C1316 0.960 . S
H1303 C1316 0.961 . S
H1304 C1316 0.959 . S
H1305 C1319 0.929 . S
H1306 C1320 0.931 . S
H1307 C1322 0.930 . S
C1308 H1296 0.930 . S
C1308 C1309 1.399 . S
C1308 C1313 1.399 . S
C1309 C1308 1.399 . S
C1309 C1310 1.376 . S
C1310 H1297 0.930 . S
C1310 C1309 1.376 . S
C1310 C1311 1.388 . S
C1311 H1298 0.930 . S
C1311 C1310 1.388 . S
C1311 C1312 1.390 . S
C1312 C1311 1.390 . S
C1312 C1313 1.394 . S
C1312 C1318 1.465 . S
C1313 C1308 1.399 . S
C1313 C1312 1.394 . S
C1313 C1314 1.516 . S
C1314 C1313 1.516 . S
C1314 C1315 1.502 . S
C1314 C1316 1.561 . S
C1314 C1317 1.526 . S
C1315 H1299 0.959 . S
C1315 H1300 0.959 . S
C1315 H1301 0.961 . S
C1315 C1314 1.502 . S
C1316 H1302 0.960 . S
C1316 H1303 0.961 . S
C1316 H1304 0.959 . S
C1316 C1314 1.561 . S
C1317 C1314 1.526 . S
C1317 C1318 1.396 . S
C1317 C1322 1.390 . S
C1318 C1312 1.465 . S
C1318 C1317 1.396 . S
C1318 C1319 1.399 . S
C1319 H1305 0.929 . S
C1319 C1318 1.399 . S
C1319 C1320 1.385 . S
C1320 H1306 0.931 . S
C1320 C1319 1.385 . S
C1320 C1321 1.389 . S
C1321 C1320 1.389 . S
C1321 C1322 1.387 . S
C1322 H1307 0.930 . S
C1322 C1317 1.390 . S
C1322 C1321 1.387 . S
H1323 C1335 0.930 . S
H1324 C1337 0.930 . S
H1325 C1338 0.930 . S
H1326 C1342 0.959 . S
H1327 C1342 0.959 . S
H1328 C1342 0.961 . S
H1329 C1343 0.960 . S
H1330 C1343 0.961 . S
H1331 C1343 0.959 . S
H1332 C1346 0.929 . S
H1333 C1347 0.931 . S
H1334 C1349 0.930 . S
C1335 H1323 0.930 . S
C1335 C1336 1.399 . S
C1335 C1340 1.399 . S
C1336 C1335 1.399 . S
C1336 C1337 1.376 . S
C1337 H1324 0.930 . S
C1337 C1336 1.376 . S
C1337 C1338 1.388 . S
C1338 H1325 0.930 . S
C1338 C1337 1.388 . S
C1338 C1339 1.390 . S
C1339 C1338 1.390 . S
C1339 C1340 1.394 . S
C1339 C1345 1.465 . S
C1340 C1335 1.399 . S
C1340 C1339 1.394 . S
C1340 C1341 1.516 . S
C1341 C1340 1.516 . S
C1341 C1342 1.502 . S
C1341 C1343 1.561 . S
C1341 C1344 1.526 . S
C1342 H1326 0.959 . S
C1342 H1327 0.959 . S
C1342 H1328 0.961 . S
C1342 C1341 1.502 . S
C1343 H1329 0.960 . S
C1343 H1330 0.961 . S
C1343 H1331 0.959 . S
C1343 C1341 1.561 . S
C1344 C1341 1.526 . S
C1344 C1345 1.396 . S
C1344 C1349 1.390 . S
C1345 C1339 1.465 . S
C1345 C1344 1.396 . S
C1345 C1346 1.399 . S
C1346 H1332 0.929 . S
C1346 C1345 1.399 . S
C1346 C1347 1.385 . S
C1347 H1333 0.931 . S
C1347 C1346 1.385 . S
C1347 C1348 1.389 . S
C1348 C1347 1.389 . S
C1348 C1349 1.387 . S
C1349 H1334 0.930 . S
C1349 C1344 1.390 . S
C1349 C1348 1.387 . S
H1350 C1362 0.930 . S
H1351 C1364 0.930 . S
H1352 C1365 0.930 . S
H1353 C1369 0.959 . S
H1354 C1369 0.949 1_565 S
H1355 C1369 0.961 . S
H1356 C1370 0.960 . S
H1357 C1370 0.961 . S
H1358 C1370 0.959 . S
H1359 C1373 0.905 1_545 S
H1360 C1374 0.931 . S
H1361 C1376 0.930 . S
C1362 H1350 0.930 . S
C1362 C1363 1.399 . S
C1362 C1367 1.399 . S
C1363 C1362 1.399 . S
C1363 C1364 1.376 . S
C1364 H1351 0.930 . S
C1364 C1363 1.376 . S
C1364 C1365 1.388 . S
C1365 H1352 0.930 . S
C1365 C1364 1.388 . S
C1365 C1366 1.390 . S
C1366 C1365 1.390 . S
C1366 C1367 1.394 . S
C1366 C1372 1.465 . S
C1367 C1362 1.399 . S
C1367 C1366 1.394 . S
C1367 C1368 1.516 . S
C1368 C1367 1.516 . S
C1368 C1369 1.502 . S
C1368 C1370 1.561 . S
C1368 C1371 1.531 . S
C1369 H1353 0.959 . S
C1369 H1354 0.949 1_545 S
C1369 H1355 0.961 . S
C1369 C1368 1.502 . S
C1370 H1356 0.960 . S
C1370 H1357 0.961 . S
C1370 H1358 0.959 . S
C1370 C1368 1.561 . S
C1371 C1368 1.531 . S
C1371 C1372 1.415 . S
C1371 C1376 1.369 1_545 S
C1372 C1366 1.465 . S
C1372 C1371 1.415 . S
C1372 C1373 1.397 1_545 S
C1373 H1359 0.905 1_565 S
C1373 C1372 1.397 1_565 S
C1373 C1374 1.412 . S
C1374 H1360 0.931 . S
C1374 C1373 1.412 . S
C1374 C1375 1.389 . S
C1375 C1374 1.389 . S
C1375 C1376 1.387 . S
C1376 H1361 0.930 . S
C1376 C1371 1.369 1_565 S
C1376 C1375 1.387 . S
H1377 C1389 0.930 . S
H1378 C1391 0.930 . S
H1379 C1392 0.930 . S
H1380 C1396 0.959 . S
H1381 C1396 0.959 . S
H1382 C1396 0.961 . S
H1383 C1397 0.960 . S
H1384 C1397 0.961 . S
H1385 C1397 0.959 . S
H1386 C1400 0.929 . S
H1387 C1401 0.931 . S
H1388 C1403 0.930 . S
C1389 H1377 0.930 . S
C1389 C1390 1.399 . S
C1389 C1394 1.399 . S
C1390 C1389 1.399 . S
C1390 C1391 1.376 . S
C1391 H1378 0.930 . S
C1391 C1390 1.376 . S
C1391 C1392 1.388 . S
C1392 H1379 0.930 . S
C1392 C1391 1.388 . S
C1392 C1393 1.390 . S
C1393 C1392 1.390 . S
C1393 C1394 1.394 . S
C1393 C1399 1.465 . S
C1394 C1389 1.399 . S
C1394 C1393 1.394 . S
C1394 C1395 1.516 . S
C1395 C1394 1.516 . S
C1395 C1396 1.502 . S
C1395 C1397 1.561 . S
C1395 C1398 1.526 . S
C1396 H1380 0.959 . S
C1396 H1381 0.959 . S
C1396 H1382 0.961 . S
C1396 C1395 1.502 . S
C1397 H1383 0.960 . S
C1397 H1384 0.961 . S
C1397 H1385 0.959 . S
C1397 C1395 1.561 . S
C1398 C1395 1.526 . S
C1398 C1399 1.396 . S
C1398 C1403 1.390 1_655 S
C1399 C1393 1.465 . S
C1399 C1398 1.396 . S
C1399 C1400 1.399 1_655 S
C1400 H1386 0.929 . S
C1400 C1399 1.399 1_455 S
C1400 C1401 1.385 . S
C1401 H1387 0.931 . S
C1401 C1400 1.385 . S
C1401 C1402 1.389 . S
C1402 C1401 1.389 . S
C1402 C1403 1.387 . S
C1403 H1388 0.930 . S
C1403 C1398 1.390 1_455 S
C1403 C1402 1.387 . S
H1404 C1416 0.930 . S
H1405 C1418 0.930 . S
H1406 C1419 0.930 . S
H1407 C1423 0.959 . S
H1408 C1423 0.959 . S
H1409 C1423 0.961 . S
H1410 C1424 0.960 . S
H1411 C1424 0.961 . S
H1412 C1424 0.959 . S
H1413 C1427 0.929 . S
H1414 C1428 0.931 . S
H1415 C1430 0.930 . S
C1416 H1404 0.930 . S
C1416 C1417 1.399 . S
C1416 C1421 1.399 . S
C1417 C1416 1.399 . S
C1417 C1418 1.376 . S
C1418 H1405 0.930 . S
C1418 C1417 1.376 . S
C1418 C1419 1.388 . S
C1419 H1406 0.930 . S
C1419 C1418 1.388 . S
C1419 C1420 1.390 . S
C1420 C1419 1.390 . S
C1420 C1421 1.394 . S
C1420 C1426 1.465 . S
C1421 C1416 1.399 . S
C1421 C1420 1.394 . S
C1421 C1422 1.516 . S
C1422 C1421 1.516 . S
C1422 C1423 1.502 . S
C1422 C1424 1.561 . S
C1422 C1425 1.526 . S
C1423 H1407 0.959 . S
C1423 H1408 0.959 . S
C1423 H1409 0.961 . S
C1423 C1422 1.502 . S
C1424 H1410 0.960 . S
C1424 H1411 0.961 . S
C1424 H1412 0.959 . S
C1424 C1422 1.561 . S
C1425 C1422 1.526 . S
C1425 C1426 1.396 . S
C1425 C1430 1.390 . S
C1426 C1420 1.465 . S
C1426 C1425 1.396 . S
C1426 C1427 1.399 . S
C1427 H1413 0.929 . S
C1427 C1426 1.399 . S
C1427 C1428 1.385 . S
C1428 H1414 0.931 . S
C1428 C1427 1.385 . S
C1428 C1429 1.389 . S
C1429 C1428 1.389 . S
C1429 C1430 1.387 . S
C1430 H1415 0.930 . S
C1430 C1425 1.390 . S
C1430 C1429 1.387 . S
H1431 C1443 0.930 . S
H1432 C1445 0.930 . S
H1433 C1446 0.920 1_565 S
H1434 C1450 0.959 . S
H1435 C1450 0.959 . S
H1436 C1450 0.961 . S
H1437 C1451 0.960 . S
H1438 C1451 0.961 . S
H1439 C1451 0.959 . S
H1440 C1454 0.929 . S
H1441 C1455 0.931 . S
H1442 C1457 0.930 . S
C1443 H1431 0.930 . S
C1443 C1444 1.399 . S
C1443 C1448 1.399 1_545 S
C1444 C1443 1.399 . S
C1444 C1445 1.376 . S
C1445 H1432 0.930 . S
C1445 C1444 1.376 . S
C1445 C1446 1.388 . S
C1446 H1433 0.920 1_545 S
C1446 C1445 1.388 . S
C1446 C1447 1.390 1_545 S
C1447 C1446 1.390 1_565 S
C1447 C1448 1.394 . S
C1447 C1453 1.465 . S
C1448 C1443 1.399 1_565 S
C1448 C1447 1.394 . S
C1448 C1449 1.516 . S
C1449 C1448 1.516 . S
C1449 C1450 1.502 . S
C1449 C1451 1.561 . S
C1449 C1452 1.526 . S
C1450 H1434 0.959 . S
C1450 H1435 0.959 . S
C1450 H1436 0.961 . S
C1450 C1449 1.502 . S
C1451 H1437 0.960 . S
C1451 H1438 0.961 . S
C1451 H1439 0.959 . S
C1451 C1449 1.561 . S
C1452 C1449 1.526 . S
C1452 C1453 1.396 . S
C1452 C1457 1.390 . S
C1453 C1447 1.465 . S
C1453 C1452 1.396 . S
C1453 C1454 1.399 . S
C1454 H1440 0.929 . S
C1454 C1453 1.399 . S
C1454 C1455 1.385 . S
C1455 H1441 0.931 . S
C1455 C1454 1.385 . S
C1455 C1456 1.389 . S
C1456 C1455 1.389 . S
C1456 C1457 1.387 . S
C1457 H1442 0.930 . S
C1457 C1452 1.390 . S
C1457 C1456 1.387 . S
H1458 C1470 0.930 . S
H1459 C1472 0.930 . S
H1460 C1473 0.930 . S
H1461 C1477 0.959 . S
H1462 C1477 0.959 . S
H1463 C1477 0.961 . S
H1464 C1478 0.960 . S
H1465 C1478 0.961 . S
H1466 C1478 0.959 . S
H1467 C1481 0.929 1_455 S
H1468 C1482 0.931 . S
H1469 C1484 0.930 . S
C1470 H1458 0.930 . S
C1470 C1471 1.399 . S
C1470 C1475 1.399 . S
C1471 C1470 1.399 . S
C1471 C1472 1.376 . S
C1472 H1459 0.930 . S
C1472 C1471 1.376 . S
C1472 C1473 1.388 . S
C1473 H1460 0.930 . S
C1473 C1472 1.388 . S
C1473 C1474 1.390 . S
C1474 C1473 1.390 . S
C1474 C1475 1.394 . S
C1474 C1480 1.465 . S
C1475 C1470 1.399 . S
C1475 C1474 1.394 . S
C1475 C1476 1.516 . S
C1476 C1475 1.516 . S
C1476 C1477 1.502 . S
C1476 C1478 1.561 . S
C1476 C1479 1.526 . S
C1477 H1461 0.959 . S
C1477 H1462 0.959 . S
C1477 H1463 0.961 . S
C1477 C1476 1.502 . S
C1478 H1464 0.960 . S
C1478 H1465 0.961 . S
C1478 H1466 0.959 . S
C1478 C1476 1.561 . S
C1479 C1476 1.526 . S
C1479 C1480 1.396 . S
C1479 C1484 1.390 1_455 S
C1480 C1474 1.465 . S
C1480 C1479 1.396 . S
C1480 C1481 1.399 1_455 S
C1481 H1467 0.929 1_655 S
C1481 C1480 1.399 1_655 S
C1481 C1482 1.385 . S
C1482 H1468 0.931 . S
C1482 C1481 1.385 . S
C1482 C1483 1.389 . S
C1483 C1482 1.389 . S
C1483 C1484 1.387 . S
C1484 H1469 0.930 . S
C1484 C1479 1.390 1_655 S
C1484 C1483 1.387 . S
H1485 C1497 0.930 . S
H1486 C1499 0.930 . S
H1487 C1500 0.930 . S
H1488 C1504 0.959 . S
H1489 C1504 0.959 . S
H1490 C1504 0.961 . S
H1491 C1505 0.960 . S
H1492 C1505 0.961 . S
H1493 C1505 0.959 . S
H1494 C1508 0.929 . S
H1495 C1509 0.931 . S
H1496 C1511 0.930 . S
C1497 H1485 0.930 . S
C1497 C1498 1.399 . S
C1497 C1502 1.399 . S
C1498 C1497 1.399 . S
C1498 C1499 1.376 . S
C1499 H1486 0.930 . S
C1499 C1498 1.376 . S
C1499 C1500 1.388 . S
C1500 H1487 0.930 . S
C1500 C1499 1.388 . S
C1500 C1501 1.390 . S
C1501 C1500 1.390 . S
C1501 C1502 1.394 . S
C1501 C1507 1.465 . S
C1502 C1497 1.399 . S
C1502 C1501 1.394 . S
C1502 C1503 1.516 . S
C1503 C1502 1.516 . S
C1503 C1504 1.502 . S
C1503 C1505 1.561 . S
C1503 C1506 1.526 . S
C1504 H1488 0.959 . S
C1504 H1489 0.959 . S
C1504 H1490 0.961 . S
C1504 C1503 1.502 . S
C1505 H1491 0.960 . S
C1505 H1492 0.961 . S
C1505 H1493 0.959 . S
C1505 C1503 1.561 . S
C1506 C1503 1.526 . S
C1506 C1507 1.396 . S
C1506 C1511 1.390 . S
C1507 C1501 1.465 . S
C1507 C1506 1.396 . S
C1507 C1508 1.399 . S
C1508 H1494 0.929 . S
C1508 C1507 1.399 . S
C1508 C1509 1.385 . S
C1509 H1495 0.931 . S
C1509 C1508 1.385 . S
C1509 C1510 1.389 . S
C1510 C1509 1.389 . S
C1510 C1511 1.387 . S
C1511 H1496 0.930 . S
C1511 C1506 1.390 . S
C1511 C1510 1.387 . S
H1512 C1524 0.930 . S
H1513 C1526 0.930 . S
H1514 C1527 0.930 . S
H1515 C1531 0.959 . S
H1516 C1531 0.959 . S
H1517 C1531 0.961 . S
H1518 C1532 0.960 . S
H1519 C1532 0.961 . S
H1520 C1532 0.959 . S
H1521 C1535 0.929 . S
H1522 C1536 0.931 . S
H1523 C1538 0.930 . S
C1524 H1512 0.930 . S
C1524 C1525 1.399 . S
C1524 C1529 1.399 . S
C1525 C1524 1.399 . S
C1525 C1526 1.376 . S
C1526 H1513 0.930 . S
C1526 C1525 1.376 . S
C1526 C1527 1.388 . S
C1527 H1514 0.930 . S
C1527 C1526 1.388 . S
C1527 C1528 1.390 . S
C1528 C1527 1.390 . S
C1528 C1529 1.394 . S
C1528 C1534 1.465 . S
C1529 C1524 1.399 . S
C1529 C1528 1.394 . S
C1529 C1530 1.516 . S
C1530 C1529 1.516 . S
C1530 C1531 1.502 . S
C1530 C1532 1.561 . S
C1530 C1533 1.526 . S
C1531 H1515 0.959 . S
C1531 H1516 0.959 . S
C1531 H1517 0.961 . S
C1531 C1530 1.502 . S
C1532 H1518 0.960 . S
C1532 H1519 0.961 . S
C1532 H1520 0.959 . S
C1532 C1530 1.561 . S
C1533 C1530 1.526 . S
C1533 C1534 1.396 . S
C1533 C1538 1.390 . S
C1534 C1528 1.465 . S
C1534 C1533 1.396 . S
C1534 C1535 1.399 . S
C1535 H1521 0.929 . S
C1535 C1534 1.399 . S
C1535 C1536 1.385 . S
C1536 H1522 0.931 . S
C1536 C1535 1.385 . S
C1536 C1537 1.389 . S
C1537 C1536 1.389 . S
C1537 C1538 1.387 . S
C1538 H1523 0.930 . S
C1538 C1533 1.390 . S
C1538 C1537 1.387 . S
H1539 C1551 0.930 . S
H1540 C1553 0.930 . S
H1541 C1554 0.930 . S
H1542 C1558 0.959 . S
H1543 C1558 0.959 . S
H1544 C1558 0.961 . S
H1545 C1559 0.960 . S
H1546 C1559 0.961 . S
H1547 C1559 0.959 . S
H1548 C1562 0.929 . S
H1549 C1563 0.931 . S
H1550 C1565 0.930 . S
C1551 H1539 0.930 . S
C1551 C1552 1.399 . S
C1551 C1556 1.399 . S
C1552 C1551 1.399 . S
C1552 C1553 1.376 . S
C1553 H1540 0.930 . S
C1553 C1552 1.376 . S
C1553 C1554 1.388 . S
C1554 H1541 0.930 . S
C1554 C1553 1.388 . S
C1554 C1555 1.390 . S
C1555 C1554 1.390 . S
C1555 C1556 1.394 . S
C1555 C1561 1.465 . S
C1556 C1551 1.399 . S
C1556 C1555 1.394 . S
C1556 C1557 1.516 . S
C1557 C1556 1.516 . S
C1557 C1558 1.502 . S
C1557 C1559 1.561 . S
C1557 C1560 1.526 . S
C1558 H1542 0.959 . S
C1558 H1543 0.959 . S
C1558 H1544 0.961 . S
C1558 C1557 1.502 . S
C1559 H1545 0.960 . S
C1559 H1546 0.961 . S
C1559 H1547 0.959 . S
C1559 C1557 1.561 . S
C1560 C1557 1.526 . S
C1560 C1561 1.396 . S
C1560 C1565 1.390 . S
C1561 C1555 1.465 . S
C1561 C1560 1.396 . S
C1561 C1562 1.399 . S
C1562 H1548 0.929 . S
C1562 C1561 1.399 . S
C1562 C1563 1.385 . S
C1563 H1549 0.931 . S
C1563 C1562 1.385 . S
C1563 C1564 1.389 . S
C1564 C1563 1.389 . S
C1564 C1565 1.387 . S
C1565 H1550 0.930 . S
C1565 C1560 1.390 . S
C1565 C1564 1.387 . S
H1566 C1578 0.930 . S
H1567 C1580 0.930 . S
H1568 C1581 0.930 . S
H1569 C1585 0.959 . S
H1570 C1585 0.959 . S
H1571 C1585 0.961 . S
H1572 C1586 0.960 . S
H1573 C1586 0.961 . S
H1574 C1586 0.959 . S
H1575 C1589 0.929 . S
H1576 C1590 0.931 . S
H1577 C1592 0.930 . S
C1578 H1566 0.930 . S
C1578 C1579 1.399 . S
C1578 C1583 1.399 . S
C1579 C1578 1.399 . S
C1579 C1580 1.376 . S
C1580 H1567 0.930 . S
C1580 C1579 1.376 . S
C1580 C1581 1.388 . S
C1581 H1568 0.930 . S
C1581 C1580 1.388 . S
C1581 C1582 1.390 . S
C1582 C1581 1.390 . S
C1582 C1583 1.394 . S
C1582 C1588 1.465 . S
C1583 C1578 1.399 . S
C1583 C1582 1.394 . S
C1583 C1584 1.516 . S
C1584 C1583 1.516 . S
C1584 C1585 1.502 . S
C1584 C1586 1.561 . S
C1584 C1587 1.526 . S
C1585 H1569 0.959 . S
C1585 H1570 0.959 . S
C1585 H1571 0.961 . S
C1585 C1584 1.502 . S
C1586 H1572 0.960 . S
C1586 H1573 0.961 . S
C1586 H1574 0.959 . S
C1586 C1584 1.561 . S
C1587 C1584 1.526 . S
C1587 C1588 1.396 . S
C1587 C1592 1.390 . S
C1588 C1582 1.465 . S
C1588 C1587 1.396 . S
C1588 C1589 1.399 . S
C1589 H1575 0.929 . S
C1589 C1588 1.399 . S
C1589 C1590 1.385 . S
C1590 H1576 0.931 . S
C1590 C1589 1.385 . S
C1590 C1591 1.389 . S
C1591 C1590 1.389 . S
C1591 C1592 1.387 . S
C1592 H1577 0.930 . S
C1592 C1587 1.390 . S
C1592 C1591 1.387 . S
H1593 C1605 0.930 . S
H1594 C1607 0.930 . S
H1595 C1608 0.930 . S
H1596 C1612 0.959 . S
H1597 C1612 0.959 . S
H1598 C1612 0.961 . S
H1599 C1613 0.960 . S
H1600 C1613 0.961 . S
H1601 C1613 0.959 . S
H1602 C1616 0.929 . S
H1603 C1617 0.931 . S
H1604 C1619 0.930 . S
C1605 H1593 0.930 . S
C1605 C1606 1.399 . S
C1605 C1610 1.399 . S
C1606 C1605 1.399 . S
C1606 C1607 1.376 . S
C1607 H1594 0.930 . S
C1607 C1606 1.376 . S
C1607 C1608 1.388 . S
C1608 H1595 0.930 . S
C1608 C1607 1.388 . S
C1608 C1609 1.390 . S
C1609 C1608 1.390 . S
C1609 C1610 1.394 . S
C1609 C1615 1.465 . S
C1610 C1605 1.399 . S
C1610 C1609 1.394 . S
C1610 C1611 1.516 . S
C1611 C1610 1.516 . S
C1611 C1612 1.502 . S
C1611 C1613 1.561 . S
C1611 C1614 1.526 . S
C1612 H1596 0.959 . S
C1612 H1597 0.959 . S
C1612 H1598 0.961 . S
C1612 C1611 1.502 . S
C1613 H1599 0.960 . S
C1613 H1600 0.961 . S
C1613 H1601 0.959 . S
C1613 C1611 1.561 . S
C1614 C1611 1.526 . S
C1614 C1615 1.396 . S
C1614 C1619 1.390 . S
C1615 C1609 1.465 . S
C1615 C1614 1.396 . S
C1615 C1616 1.399 . S
C1616 H1602 0.929 . S
C1616 C1615 1.399 . S
C1616 C1617 1.385 . S
C1617 H1603 0.931 . S
C1617 C1616 1.385 . S
C1617 C1618 1.389 . S
C1618 C1617 1.389 . S
C1618 C1619 1.387 . S
C1619 H1604 0.930 . S
C1619 C1614 1.390 . S
C1619 C1618 1.387 . S
H1620 C1632 0.930 . S
H1621 C1634 0.930 . S
H1622 C1635 0.930 . S
H1623 C1639 0.959 . S
H1624 C1639 0.959 . S
H1625 C1639 0.961 . S
H1626 C1640 0.960 . S
H1627 C1640 0.961 . S
H1628 C1640 0.959 . S
H1629 C1643 0.929 . S
H1630 C1644 0.931 . S
H1631 C1646 0.930 . S
C1632 H1620 0.930 . S
C1632 C1633 1.399 . S
C1632 C1637 1.399 . S
C1633 C1632 1.399 . S
C1633 C1634 1.376 . S
C1634 H1621 0.930 . S
C1634 C1633 1.376 . S
C1634 C1635 1.388 . S
C1635 H1622 0.930 . S
C1635 C1634 1.388 . S
C1635 C1636 1.390 . S
C1636 C1635 1.390 . S
C1636 C1637 1.394 . S
C1636 C1642 1.465 . S
C1637 C1632 1.399 . S
C1637 C1636 1.394 . S
C1637 C1638 1.516 . S
C1638 C1637 1.516 . S
C1638 C1639 1.502 . S
C1638 C1640 1.561 . S
C1638 C1641 1.526 . S
C1639 H1623 0.959 . S
C1639 H1624 0.959 . S
C1639 H1625 0.961 . S
C1639 C1638 1.502 . S
C1640 H1626 0.960 . S
C1640 H1627 0.961 . S
C1640 H1628 0.959 . S
C1640 C1638 1.561 . S
C1641 C1638 1.526 . S
C1641 C1642 1.396 . S
C1641 C1646 1.390 . S
C1642 C1636 1.465 . S
C1642 C1641 1.396 . S
C1642 C1643 1.399 . S
C1643 H1629 0.929 . S
C1643 C1642 1.399 . S
C1643 C1644 1.385 . S
C1644 H1630 0.931 . S
C1644 C1643 1.385 . S
C1644 C1645 1.389 . S
C1645 C1644 1.389 . S
C1645 C1646 1.387 . S
C1646 H1631 0.930 . S
C1646 C1641 1.390 . S
C1646 C1645 1.387 . S
H1647 C1659 0.930 . S
H1648 C1661 0.930 . S
H1649 C1662 0.930 . S
H1650 C1666 0.959 . S
H1651 C1666 0.959 . S
H1652 C1666 0.961 . S
H1653 C1667 0.960 . S
H1654 C1667 0.961 . S
H1655 C1667 0.959 . S
H1656 C1670 0.929 . S
H1657 C1671 0.931 . S
H1658 C1673 0.930 . S
C1659 H1647 0.930 . S
C1659 C1660 1.399 . S
C1659 C1664 1.399 . S
C1660 C1659 1.399 . S
C1660 C1661 1.376 . S
C1661 H1648 0.930 . S
C1661 C1660 1.376 . S
C1661 C1662 1.388 . S
C1662 H1649 0.930 . S
C1662 C1661 1.388 . S
C1662 C1663 1.390 . S
C1663 C1662 1.390 . S
C1663 C1664 1.394 . S
C1663 C1669 1.465 . S
C1664 C1659 1.399 . S
C1664 C1663 1.394 . S
C1664 C1665 1.516 . S
C1665 C1664 1.516 . S
C1665 C1666 1.502 . S
C1665 C1667 1.561 . S
C1665 C1668 1.526 . S
C1666 H1650 0.959 . S
C1666 H1651 0.959 . S
C1666 H1652 0.961 . S
C1666 C1665 1.502 . S
C1667 H1653 0.960 . S
C1667 H1654 0.961 . S
C1667 H1655 0.959 . S
C1667 C1665 1.561 . S
C1668 C1665 1.526 . S
C1668 C1669 1.396 . S
C1668 C1673 1.390 . S
C1669 C1663 1.465 . S
C1669 C1668 1.396 . S
C1669 C1670 1.399 . S
C1670 H1656 0.929 . S
C1670 C1669 1.399 . S
C1670 C1671 1.385 . S
C1671 H1657 0.931 . S
C1671 C1670 1.385 . S
C1671 C1672 1.389 . S
C1672 C1671 1.389 . S
C1672 C1673 1.387 . S
C1673 H1658 0.930 . S
C1673 C1668 1.390 . S
C1673 C1672 1.387 . S
H1674 C1686 0.930 . S
H1675 C1688 0.930 . S
H1676 C1689 0.930 . S
H1677 C1693 0.959 . S
H1678 C1693 0.959 . S
H1679 C1693 0.961 . S
H1680 C1694 0.960 . S
H1681 C1694 0.961 . S
H1682 C1694 0.959 . S
H1683 C1697 0.929 . S
H1684 C1698 0.931 . S
H1685 C1700 0.930 . S
C1686 H1674 0.930 . S
C1686 C1687 1.399 . S
C1686 C1691 1.399 . S
C1687 C1686 1.399 . S
C1687 C1688 1.376 . S
C1688 H1675 0.930 . S
C1688 C1687 1.376 . S
C1688 C1689 1.388 . S
C1689 H1676 0.930 . S
C1689 C1688 1.388 . S
C1689 C1690 1.390 . S
C1690 C1689 1.390 . S
C1690 C1691 1.394 . S
C1690 C1696 1.465 . S
C1691 C1686 1.399 . S
C1691 C1690 1.394 . S
C1691 C1692 1.516 . S
C1692 C1691 1.516 . S
C1692 C1693 1.502 . S
C1692 C1694 1.561 . S
C1692 C1695 1.526 . S
C1693 H1677 0.959 . S
C1693 H1678 0.959 . S
C1693 H1679 0.961 . S
C1693 C1692 1.502 . S
C1694 H1680 0.960 . S
C1694 H1681 0.961 . S
C1694 H1682 0.959 . S
C1694 C1692 1.561 . S
C1695 C1692 1.526 . S
C1695 C1696 1.396 . S
C1695 C1700 1.390 . S
C1696 C1690 1.465 . S
C1696 C1695 1.396 . S
C1696 C1697 1.399 . S
C1697 H1683 0.929 . S
C1697 C1696 1.399 . S
C1697 C1698 1.385 . S
C1698 H1684 0.931 . S
C1698 C1697 1.385 . S
C1698 C1699 1.389 . S
C1699 C1698 1.389 . S
C1699 C1700 1.387 . S
C1700 H1685 0.930 . S
C1700 C1695 1.390 . S
C1700 C1699 1.387 . S
H1701 C1713 0.930 . S
H1702 C1715 0.930 . S
H1703 C1716 0.930 . S
H1704 C1720 0.959 . S
H1705 C1720 0.959 . S
H1706 C1720 0.961 . S
H1707 C1721 0.960 . S
H1708 C1721 0.961 . S
H1709 C1721 0.959 . S
H1710 C1724 0.929 . S
H1711 C1725 0.931 . S
H1712 C1727 0.930 . S
C1713 H1701 0.930 . S
C1713 C1714 1.399 . S
C1713 C1718 1.399 . S
C1714 C1713 1.399 . S
C1714 C1715 1.376 . S
C1715 H1702 0.930 . S
C1715 C1714 1.376 . S
C1715 C1716 1.388 . S
C1716 H1703 0.930 . S
C1716 C1715 1.388 . S
C1716 C1717 1.390 . S
C1717 C1716 1.390 . S
C1717 C1718 1.394 . S
C1717 C1723 1.465 . S
C1718 C1713 1.399 . S
C1718 C1717 1.394 . S
C1718 C1719 1.516 . S
C1719 C1718 1.516 . S
C1719 C1720 1.502 . S
C1719 C1721 1.561 . S
C1719 C1722 1.526 . S
C1720 H1704 0.959 . S
C1720 H1705 0.959 . S
C1720 H1706 0.961 . S
C1720 C1719 1.502 . S
C1721 H1707 0.960 . S
C1721 H1708 0.961 . S
C1721 H1709 0.959 . S
C1721 C1719 1.561 . S
C1722 C1719 1.526 . S
C1722 C1723 1.396 . S
C1722 C1727 1.390 . S
C1723 C1717 1.465 . S
C1723 C1722 1.396 . S
C1723 C1724 1.399 . S
C1724 H1710 0.929 . S
C1724 C1723 1.399 . S
C1724 C1725 1.385 . S
C1725 H1711 0.931 . S
C1725 C1724 1.385 . S
C1725 C1726 1.389 . S
C1726 C1725 1.389 . S
C1726 C1727 1.387 . S
C1727 H1712 0.930 . S
C1727 C1722 1.390 . S
C1727 C1726 1.387 . S
H1728 C1740 0.930 . S
H1729 C1742 0.930 . S
H1730 C1743 0.930 . S
H1731 C1747 0.959 . S
H1732 C1747 0.959 . S
H1733 C1747 0.961 . S
H1734 C1748 0.960 . S
H1735 C1748 0.961 . S
H1736 C1748 0.959 . S
H1737 C1751 0.929 . S
H1738 C1752 0.931 . S
H1739 C1754 0.930 . S
C1740 H1728 0.930 . S
C1740 C1741 1.399 . S
C1740 C1745 1.399 . S
C1741 C1740 1.399 . S
C1741 C1742 1.376 . S
C1742 H1729 0.930 . S
C1742 C1741 1.376 . S
C1742 C1743 1.388 . S
C1743 H1730 0.930 . S
C1743 C1742 1.388 . S
C1743 C1744 1.390 . S
C1744 C1743 1.390 . S
C1744 C1745 1.394 . S
C1744 C1750 1.465 . S
C1745 C1740 1.399 . S
C1745 C1744 1.394 . S
C1745 C1746 1.516 . S
C1746 C1745 1.516 . S
C1746 C1747 1.502 . S
C1746 C1748 1.561 . S
C1746 C1749 1.526 . S
C1747 H1731 0.959 . S
C1747 H1732 0.959 . S
C1747 H1733 0.961 . S
C1747 C1746 1.502 . S
C1748 H1734 0.960 . S
C1748 H1735 0.961 . S
C1748 H1736 0.959 . S
C1748 C1746 1.561 . S
C1749 C1746 1.526 . S
C1749 C1750 1.396 . S
C1749 C1754 1.390 . S
C1750 C1744 1.465 . S
C1750 C1749 1.396 . S
C1750 C1751 1.399 . S
C1751 H1737 0.929 . S
C1751 C1750 1.399 . S
C1751 C1752 1.385 . S
C1752 H1738 0.931 . S
C1752 C1751 1.385 . S
C1752 C1753 1.389 . S
C1753 C1752 1.389 . S
C1753 C1754 1.387 . S
C1754 H1739 0.930 . S
C1754 C1749 1.390 . S
C1754 C1753 1.387 . S
H1755 C1767 0.930 . S
H1756 C1769 0.930 . S
H1757 C1770 0.930 . S
H1758 C1774 0.959 . S
H1759 C1774 0.959 . S
H1760 C1774 0.961 . S
H1761 C1775 0.960 . S
H1762 C1775 0.961 . S
H1763 C1775 0.959 . S
H1764 C1778 0.929 . S
H1765 C1779 0.931 . S
H1766 C1781 0.930 . S
C1767 H1755 0.930 . S
C1767 C1768 1.399 . S
C1767 C1772 1.399 . S
C1768 C1767 1.399 . S
C1768 C1769 1.376 . S
C1769 H1756 0.930 . S
C1769 C1768 1.376 . S
C1769 C1770 1.388 . S
C1770 H1757 0.930 . S
C1770 C1769 1.388 . S
C1770 C1771 1.390 . S
C1771 C1770 1.390 . S
C1771 C1772 1.394 . S
C1771 C1777 1.465 . S
C1772 C1767 1.399 . S
C1772 C1771 1.394 . S
C1772 C1773 1.516 . S
C1773 C1772 1.516 . S
C1773 C1774 1.502 . S
C1773 C1775 1.561 . S
C1773 C1776 1.526 . S
C1774 H1758 0.959 . S
C1774 H1759 0.959 . S
C1774 H1760 0.961 . S
C1774 C1773 1.502 . S
C1775 H1761 0.960 . S
C1775 H1762 0.961 . S
C1775 H1763 0.959 . S
C1775 C1773 1.561 . S
C1776 C1773 1.526 . S
C1776 C1777 1.396 . S
C1776 C1781 1.390 . S
C1777 C1771 1.465 . S
C1777 C1776 1.396 . S
C1777 C1778 1.399 . S
C1778 H1764 0.929 . S
C1778 C1777 1.399 . S
C1778 C1779 1.385 . S
C1779 H1765 0.931 . S
C1779 C1778 1.385 . S
C1779 C1780 1.389 . S
C1780 C1779 1.389 . S
C1780 C1781 1.387 . S
C1781 H1766 0.930 . S
C1781 C1776 1.390 . S
C1781 C1780 1.387 . S
H1782 C1794 0.930 . S
H1783 C1796 0.930 . S
H1784 C1797 0.930 . S
H1785 C1801 0.959 . S
H1786 C1801 0.959 . S
H1787 C1801 0.961 . S
H1788 C1802 0.960 . S
H1789 C1802 0.961 . S
H1790 C1802 0.959 . S
H1791 C1805 0.929 . S
H1792 C1806 0.931 . S
H1793 C1808 0.930 . S
C1794 H1782 0.930 . S
C1794 C1795 1.399 . S
C1794 C1799 1.399 . S
C1795 C1794 1.399 . S
C1795 C1796 1.376 . S
C1796 H1783 0.930 . S
C1796 C1795 1.376 . S
C1796 C1797 1.388 . S
C1797 H1784 0.930 . S
C1797 C1796 1.388 . S
C1797 C1798 1.390 . S
C1798 C1797 1.390 . S
C1798 C1799 1.394 . S
C1798 C1804 1.465 . S
C1799 C1794 1.399 . S
C1799 C1798 1.394 . S
C1799 C1800 1.516 . S
C1800 C1799 1.516 . S
C1800 C1801 1.502 . S
C1800 C1802 1.561 . S
C1800 C1803 1.526 . S
C1801 H1785 0.959 . S
C1801 H1786 0.959 . S
C1801 H1787 0.961 . S
C1801 C1800 1.502 . S
C1802 H1788 0.960 . S
C1802 H1789 0.961 . S
C1802 H1790 0.959 . S
C1802 C1800 1.561 . S
C1803 C1800 1.526 . S
C1803 C1804 1.396 . S
C1803 C1808 1.390 . S
C1804 C1798 1.465 . S
C1804 C1803 1.396 . S
C1804 C1805 1.399 . S
C1805 H1791 0.929 . S
C1805 C1804 1.399 . S
C1805 C1806 1.385 . S
C1806 H1792 0.931 . S
C1806 C1805 1.385 . S
C1806 C1807 1.389 . S
C1807 C1806 1.389 . S
C1807 C1808 1.387 . S
C1808 H1793 0.930 . S
C1808 C1803 1.390 . S
C1808 C1807 1.387 . S
C607 N302 0.828 . S
C619 N5 0.838 . S
C634 N335 0.884 . S
C646 N38 0.944 . S
C661 N368 0.810 . S
C673 N71 0.904 . S
C688 N104 0.827 . S
C700 N401 0.840 . S
C715 N434 0.881 . S
C727 N137 0.810 . S
C742 N467 0.809 . S
C754 N170 0.900 . S
C769 N203 0.810 . S
C781 N500 0.872 . S
C796 N533 0.940 . S
C808 N236 0.844 . S
C823 N566 0.810 . S
C835 N269 0.903 . S
C850 C589 1.863 . S
C862 C28 1.853 . S
C877 C523 1.851 . S
C889 C61 1.852 . S
C904 C94 1.852 . S
C916 C556 1.852 . S
C931 C259 1.867 . S
C943 C127 1.865 . S
C958 C292 1.861 . S
C970 C160 1.868 . S
C985 C193 1.862 . S
C997 C226 1.868 . S
C1012 C325 1.868 . S
C1024 C457 1.860 . S
C1039 C490 1.855 . S
C1051 C358 1.850 . S
C1066 C391 1.861 . S
C1078 C424 1.851 . S
C1093 C17 1.341 . S
C1105 C149 1.301 . S
C1120 C182 1.292 . S
C1132 C50 1.351 . S
C1147 C116 1.291 . S
C1159 C83 1.377 . S
C1174 C347 1.373 . S
C1186 C215 1.301 . S
C1201 C248 1.358 . S
C1213 C380 1.288 . S
C1228 C314 1.359 . S
C1240 C281 1.287 . S
C1255 C413 1.315 . S
C1267 C545 1.325 . S
C1282 C578 1.367 . S
C1294 C446 1.282 . S
C1309 C479 1.360 . S
C1321 C512 1.319 . S
C1336 C74 1.120 . S
C1348 N14 1.147 . S
C1363 C8 1.154 . S
C1375 N47 1.147 . S
C1390 C41 1.123 . S
C1402 N80 1.184 . S
C1417 C140 1.184 . S
C1429 N113 1.174 . S
C1444 N146 1.166 . S
C1456 C173 1.097 . S
C1471 C107 1.117 . S
C1483 N179 1.148 . S
C1498 C272 1.171 . S
C1510 N212 1.183 . S
C1525 C206 1.161 . S
C1537 N245 1.186 . S
C1552 N278 1.169 . S
C1564 C239 1.098 . S
C1579 N311 1.159 . S
C1591 C338 1.098 . S
C1606 C371 1.173 . S
C1618 N344 1.153 . S
C1633 C305 1.119 . S
C1645 N377 1.148 . S
C1660 N410 1.164 . S
C1672 C470 1.184 . S
C1687 C404 1.132 . S
C1699 N443 1.146 . S
C1714 C437 1.173 . S
C1726 N476 1.182 . S
C1741 C536 1.178 . S
C1753 N509 1.180 . S
C1768 C569 1.133 . S
C1780 N542 1.146 . S
C1795 C503 1.114 . S
C1807 N575 1.149 . S
