# Generated by pormake.
# Topology una, (4)-cn, num edge types: 1
# Building blocks:
#     Node 0, Type 0, BuildingBlock: KUFVIS_clean_sbu_0, # of connection points: 4
#     Node 1, Type 0, BuildingBlock: KUFVIS_clean_sbu_0, # of connection points: 4
#     Node 2, Type 0, BuildingBlock: KUFVIS_clean_sbu_0, # of connection points: 4
#     Node 3, Type 0, BuildingBlock: KUFVIS_clean_sbu_0, # of connection points: 4
#     Node 4, Type 0, BuildingBlock: KUFVIS_clean_sbu_0, # of connection points: 4
#     Node 5, Type 0, BuildingBlock: KUFVIS_clean_sbu_0, # of connection points: 4
#     Node 6, Type 0, BuildingBlock: KUFVIS_clean_sbu_0, # of connection points: 4
#     Node 7, Type 0, BuildingBlock: KUFVIS_clean_sbu_0, # of connection points: 4
#     Node 8, Type 0, BuildingBlock: KUFVIS_clean_sbu_0, # of connection points: 4
#     Node 9, Type 0, BuildingBlock: KUFVIS_clean_sbu_0, # of connection points: 4
#     Node 10, Type 0, BuildingBlock: KUFVIS_clean_sbu_0, # of connection points: 4
#     Node 11, Type 0, BuildingBlock: KUFVIS_clean_sbu_0, # of connection points: 4
#     Edge 12, Type (0, 0), BuildingBlock: MIFKUJ_clean_linker_0, # of connection points: 2
#     Edge 13, Type (0, 0), BuildingBlock: MIFKUJ_clean_linker_0, # of connection points: 2
#     Edge 14, Type (0, 0), BuildingBlock: MIFKUJ_clean_linker_0, # of connection points: 2
#     Edge 15, Type (0, 0), BuildingBlock: MIFKUJ_clean_linker_0, # of connection points: 2
#     Edge 16, Type (0, 0), BuildingBlock: MIFKUJ_clean_linker_0, # of connection points: 2
#     Edge 17, Type (0, 0), BuildingBlock: MIFKUJ_clean_linker_0, # of connection points: 2
#     Edge 18, Type (0, 0), BuildingBlock: MIFKUJ_clean_linker_0, # of connection points: 2
#     Edge 19, Type (0, 0), BuildingBlock: MIFKUJ_clean_linker_0, # of connection points: 2
#     Edge 20, Type (0, 0), BuildingBlock: MIFKUJ_clean_linker_0, # of connection points: 2
#     Edge 21, Type (0, 0), BuildingBlock: MIFKUJ_clean_linker_0, # of connection points: 2
#     Edge 22, Type (0, 0), BuildingBlock: MIFKUJ_clean_linker_0, # of connection points: 2
#     Edge 23, Type (0, 0), BuildingBlock: MIFKUJ_clean_linker_0, # of connection points: 2
#     Edge 24, Type (0, 0), BuildingBlock: MIFKUJ_clean_linker_0, # of connection points: 2
#     Edge 25, Type (0, 0), BuildingBlock: MIFKUJ_clean_linker_0, # of connection points: 2
#     Edge 26, Type (0, 0), BuildingBlock: MIFKUJ_clean_linker_0, # of connection points: 2
#     Edge 27, Type (0, 0), BuildingBlock: MIFKUJ_clean_linker_0, # of connection points: 2
#     Edge 28, Type (0, 0), BuildingBlock: MIFKUJ_clean_linker_0, # of connection points: 2
#     Edge 29, Type (0, 0), BuildingBlock: MIFKUJ_clean_linker_0, # of connection points: 2
#     Edge 30, Type (0, 0), BuildingBlock: MIFKUJ_clean_linker_0, # of connection points: 2
#     Edge 31, Type (0, 0), BuildingBlock: MIFKUJ_clean_linker_0, # of connection points: 2
#     Edge 32, Type (0, 0), BuildingBlock: MIFKUJ_clean_linker_0, # of connection points: 2
#     Edge 33, Type (0, 0), BuildingBlock: MIFKUJ_clean_linker_0, # of connection points: 2
#     Edge 34, Type (0, 0), BuildingBlock: MIFKUJ_clean_linker_0, # of connection points: 2
#     Edge 35, Type (0, 0), BuildingBlock: MIFKUJ_clean_linker_0, # of connection points: 2
# Relax obj value: 0.032
# Max RMSD: 0.075
# Mean RMSD: 0.075
data_MOF--net-una--node1-KUFVIS_clean_sbu_0--edge1-MIFKUJ_clean_linker_0
_symmetry_space_group_name_H-M    P1
_symmetry_Int_Tables_number       1
_symmetry_cell_setting            triclinic
loop_
_symmetry_equiv_pos_as_xyz
'x, y, z'
_cell_length_a     74.768144
_cell_length_b     74.770342
_cell_length_c     28.611256
_cell_angle_alpha  89.99218
_cell_angle_beta   90.002446
_cell_angle_gamma 120.00872
loop_
_atom_site_label
_atom_site_type_symbol
_atom_site_fract_x
_atom_site_fract_y
_atom_site_fract_z
_atom_type_partial_charge
Mn0 Mn 0.13635 0.44024 0.02752 0.0
Mn1 Mn 0.13446 0.46505 0.93048 0.0
C2 C 0.14868 0.43541 0.95693 0.0
C3 C 0.15475 0.44048 0.09465 0.0
C4 C 0.09706 0.42715 0.97002 0.0
O5 O 0.13121 0.46274 0.05396 0.0
O6 O 0.13255 0.47915 0.98696 0.0
C7 C 0.17365 0.50447 0.94189 0.0
N8 N 0.16151 0.48717 0.91636 0.0
C9 C 0.18519 0.49983 0.85171 0.0
C10 C 0.19793 0.51783 0.87722 0.0
C11 C 0.19222 0.52006 0.92268 0.0
C12 C 0.16713 0.4846 0.87312 0.0
H13 H 0.16907 0.50648 0.9764 0.0
C14 C 0.13082 0.47728 0.03138 0.0
O15 O 0.13488 0.42831 0.09157 0.0
O16 O 0.1636 0.45273 0.05964 0.0
N17 N 0.13615 0.45329 0.87249 0.0
C18 C 0.12105 0.43621 0.85051 0.0
C19 C 0.12432 0.43171 0.80471 0.0
C20 C 0.14274 0.44521 0.78136 0.0
C21 C 0.15761 0.46323 0.80382 0.0
C22 C 0.15368 0.46668 0.84983 0.0
H23 H 0.10664 0.42603 0.86784 0.0
O24 O 0.14384 0.42223 0.99072 0.0
O25 O 0.14655 0.45128 0.96582 0.0
O26 O 0.10613 0.42357 0.00373 0.0
O27 O 0.10617 0.44241 0.94206 0.0
C28 C 0.17575 0.4783 0.78166 0.0
C29 C 0.18942 0.49667 0.80542 0.0
H30 H 0.21201 0.53013 0.86211 0.0
H31 H 0.20193 0.53393 0.94251 0.0
H32 H 0.11257 0.41799 0.78728 0.0
H33 H 0.1451 0.44184 0.74581 0.0
H34 H 0.17914 0.47611 0.74601 0.0
H35 H 0.20309 0.50831 0.7876 0.0
Mn36 Mn 0.69616 0.13795 0.19434 0.0
Mn37 Mn 0.66854 0.13601 0.09873 0.0
C38 C 0.71243 0.14868 0.12253 0.0
C39 C 0.71507 0.1564 0.26079 0.0
C40 C 0.66904 0.09854 0.13727 0.0
O41 O 0.66919 0.13376 0.22254 0.0
O42 O 0.65302 0.13373 0.15632 0.0
C43 C 0.66917 0.1755 0.11381 0.0
N44 N 0.67315 0.16308 0.0861 0.0
C45 C 0.68455 0.18769 0.02318 0.0
C46 C 0.68054 0.20074 0.05096 0.0
C47 C 0.67285 0.19463 0.09651 0.0
C48 C 0.68057 0.16881 0.04232 0.0
H49 H 0.66319 0.17083 0.14877 0.0
C50 C 0.65377 0.13263 0.20076 0.0
O51 O 0.70688 0.13645 0.25802 0.0
O52 O 0.71196 0.16537 0.22558 0.0
N53 N 0.68129 0.13806 0.03969 0.0
C54 C 0.68489 0.12393 0.01801 0.0
C55 C 0.6927 0.12777 0.97228 0.0
C56 C 0.6963 0.14583 0.94919 0.0
C57 C 0.69249 0.16011 0.97209 0.0
C58 C 0.68463 0.15544 0.01754 0.0
H59 H 0.68181 0.10987 0.03549 0.0
O60 O 0.72091 0.14404 0.15639 0.0
O61 O 0.69496 0.14778 0.13214 0.0
O62 O 0.6815 0.10747 0.17144 0.0
O63 O 0.66321 0.1078 0.1089 0.0
C64 C 0.69636 0.17889 0.95177 0.0
C65 C 0.69247 0.19271 0.97738 0.0
H66 H 0.68336 0.21551 0.03775 0.0
H67 H 0.6697 0.20461 0.11818 0.0
H68 H 0.69578 0.11677 0.95471 0.0
H69 H 0.70185 0.14854 0.91377 0.0
H70 H 0.70254 0.18294 0.91667 0.0
H71 H 0.69569 0.20719 0.96159 0.0
Mn72 Mn 0.55995 0.69726 0.3581 0.0
Mn73 Mn 0.5364 0.67396 0.25708 0.0
C74 C 0.57001 0.71574 0.28863 0.0
C75 C 0.55976 0.71529 0.42558 0.0
C76 C 0.56944 0.66775 0.30356 0.0
O77 O 0.53432 0.67069 0.37992 0.0
O78 O 0.51857 0.65877 0.31065 0.0
C79 C 0.50143 0.68194 0.26029 0.0
N80 N 0.51806 0.68332 0.2375 0.0
C81 C 0.51188 0.69889 0.17047 0.0
C82 C 0.49459 0.69752 0.19306 0.0
C83 C 0.48939 0.68908 0.23824 0.0
C84 C 0.52327 0.69152 0.19419 0.0
H85 H 0.49738 0.67542 0.29499 0.0
C86 C 0.51904 0.65781 0.35521 0.0
O87 O 0.5698 0.70525 0.42448 0.0
O88 O 0.54964 0.71444 0.38814 0.0
N89 N 0.5517 0.68689 0.20176 0.0
C90 C 0.5696 0.68833 0.18623 0.0
C91 C 0.57721 0.69682 0.14201 0.0
C92 C 0.56616 0.70341 0.1141 0.0
C93 C 0.54788 0.70193 0.13088 0.0
C94 C 0.54098 0.69323 0.17509 0.0
H95 H 0.57796 0.68297 0.20731 0.0
O96 O 0.58185 0.72222 0.32514 0.0
O97 O 0.55221 0.69905 0.29437 0.0
O98 O 0.57393 0.68065 0.33715 0.0
O99 O 0.55517 0.66363 0.27374 0.0
C100 C 0.53637 0.70895 0.10575 0.0
C101 C 0.51844 0.70755 0.12565 0.0
H102 H 0.4853 0.70305 0.17621 0.0
H103 H 0.47613 0.68805 0.256 0.0
H104 H 0.59141 0.69808 0.12921 0.0
H105 H 0.57178 0.70946 0.07977 0.0
H106 H 0.54129 0.71569 0.07136 0.0
H107 H 0.5099 0.71331 0.10633 0.0
Mn108 Mn 0.86499 0.5644 0.52715 0.0
Mn109 Mn 0.86544 0.54264 0.42389 0.0
C110 C 0.85723 0.57573 0.45862 0.0
C111 C 0.84656 0.56375 0.59455 0.0
C112 C 0.90438 0.5744 0.47336 0.0
O113 O 0.86498 0.53801 0.54661 0.0
O114 O 0.86264 0.52395 0.47576 0.0
C115 C 0.82254 0.50751 0.42441 0.0
N116 N 0.83787 0.52459 0.40305 0.0
C117 C 0.81653 0.51949 0.33581 0.0
C118 C 0.80051 0.50178 0.35694 0.0
C119 C 0.80351 0.49581 0.40151 0.0
C120 C 0.83513 0.53052 0.36032 0.0
H121 H 0.82483 0.50287 0.45861 0.0
C122 C 0.86334 0.52342 0.52036 0.0
O123 O 0.86663 0.57315 0.59434 0.0
O124 O 0.83737 0.55439 0.55634 0.0
N125 N 0.86806 0.55889 0.37016 0.0
C126 C 0.88454 0.57714 0.35627 0.0
C127 C 0.88389 0.58554 0.3129 0.0
C128 C 0.86646 0.57494 0.28418 0.0
C129 C 0.84962 0.5563 0.29934 0.0
C130 C 0.85119 0.54862 0.34275 0.0
H131 H 0.8981 0.58516 0.37799 0.0
O132 O 0.86275 0.58713 0.49589 0.0
O133 O 0.85588 0.55777 0.4629 0.0
O134 O 0.89579 0.57815 0.50776 0.0
O135 O 0.8944 0.56107 0.44169 0.0
C136 C 0.83127 0.54514 0.27336 0.0
C137 C 0.81468 0.52682 0.29172 0.0
H138 H 0.78581 0.49274 0.33944 0.0
H139 H 0.7912 0.4822 0.41813 0.0
H140 H 0.89688 0.6 0.30137 0.0
H141 H 0.86623 0.58121 0.25049 0.0
H142 H 0.82965 0.55061 0.23949 0.0
H143 H 0.80052 0.51857 0.2718 0.0
Mn144 Mn 0.30568 0.86428 0.70662 0.0
Mn145 Mn 0.32874 0.86565 0.60398 0.0
C146 C 0.28658 0.85498 0.63798 0.0
C147 C 0.28853 0.84552 0.77433 0.0
C148 C 0.33322 0.90393 0.65159 0.0
O149 O 0.33296 0.86638 0.72687 0.0
O150 O 0.3453 0.86445 0.65644 0.0
C151 C 0.32376 0.82381 0.60653 0.0
N152 N 0.32089 0.83829 0.58431 0.0
C153 C 0.30558 0.81607 0.51786 0.0
C154 C 0.30846 0.80093 0.53988 0.0
C155 C 0.31752 0.8048 0.58448 0.0
C156 C 0.31211 0.83471 0.54154 0.0
H157 H 0.33076 0.82677 0.64077 0.0
C158 C 0.34647 0.86553 0.70104 0.0
O159 O 0.29782 0.86559 0.77344 0.0
O160 O 0.28967 0.83661 0.73659 0.0
N161 N 0.31453 0.86681 0.54973 0.0
C162 C 0.31156 0.88245 0.53491 0.0
C163 C 0.30228 0.88086 0.49136 0.0
C164 C 0.29644 0.86338 0.46341 0.0
C165 C 0.29945 0.8474 0.47953 0.0
C166 C 0.3089 0.8499 0.52306 0.0
H167 H 0.31633 0.89607 0.55603 0.0
O168 O 0.28001 0.86002 0.67486 0.0
O169 O 0.30387 0.85493 0.64273 0.0
O170 O 0.321 0.89502 0.68606 0.0
O171 O 0.3375 0.89436 0.62064 0.0
C172 C 0.29327 0.829 0.4544 0.0
C173 C 0.29621 0.81329 0.47368 0.0
H174 H 0.30362 0.78624 0.52303 0.0
H175 H 0.31971 0.79317 0.60178 0.0
H176 H 0.29987 0.89319 0.47907 0.0
H177 H 0.28977 0.86244 0.42957 0.0
H178 H 0.286 0.82666 0.4205 0.0
H179 H 0.29107 0.79908 0.4544 0.0
Mn180 Mn 0.44531 0.30531 0.86511 0.0
Mn181 Mn 0.4686 0.32554 0.76197 0.0
C182 C 0.43509 0.28514 0.79869 0.0
C183 C 0.44566 0.28812 0.93381 0.0
C184 C 0.4353 0.33279 0.8033 0.0
O185 O 0.47105 0.33211 0.8846 0.0
O186 O 0.48592 0.34308 0.81416 0.0
C187 C 0.50403 0.31867 0.77396 0.0
N188 N 0.48731 0.31579 0.74886 0.0
C189 C 0.4931 0.29597 0.69077 0.0
C190 C 0.51045 0.29882 0.71585 0.0
C191 C 0.51591 0.31018 0.75767 0.0
C192 C 0.48184 0.30476 0.70877 0.0
H193 H 0.50824 0.32734 0.8062 0.0
C194 C 0.48576 0.34497 0.85857 0.0
O195 O 0.43564 0.2982 0.93218 0.0
O196 O 0.45578 0.28881 0.89668 0.0
N197 N 0.45385 0.31031 0.7078 0.0
C198 C 0.4367 0.30902 0.6878 0.0
C199 C 0.42933 0.29838 0.64536 0.0
C200 C 0.43978 0.28939 0.62371 0.0
C201 C 0.45752 0.2911 0.6447 0.0
C202 C 0.46428 0.3021 0.68668 0.0
H203 H 0.42872 0.31607 0.70406 0.0
O204 O 0.42315 0.27968 0.83499 0.0
O205 O 0.45289 0.30189 0.80289 0.0
O206 O 0.43157 0.32173 0.84032 0.0
O207 O 0.44907 0.33548 0.77314 0.0
C208 C 0.46875 0.28231 0.62568 0.0
C209 C 0.48645 0.28464 0.64882 0.0
H210 H 0.51964 0.29228 0.70341 0.0
H211 H 0.52923 0.31239 0.77732 0.0
H212 H 0.41567 0.29718 0.62929 0.0
H213 H 0.43412 0.28131 0.59084 0.0
H214 H 0.46388 0.27364 0.59342 0.0
H215 H 0.49484 0.27765 0.63403 0.0
Mn216 Mn 0.56163 0.8581 0.88303 0.0
Mn217 Mn 0.53969 0.85846 0.9861 0.0
C218 C 0.57194 0.84898 0.95114 0.0
C219 C 0.56033 0.83973 0.81486 0.0
C220 C 0.573 0.89732 0.93906 0.0
O221 O 0.53616 0.85976 0.8633 0.0
O222 O 0.52174 0.85706 0.93384 0.0
C223 C 0.50338 0.81627 0.98254 0.0
N224 N 0.52055 0.83087 0.00509 0.0
C225 C 0.51395 0.80839 0.0709 0.0
C226 C 0.49611 0.79314 0.04855 0.0
C227 C 0.49084 0.79708 0.0041 0.0
C228 C 0.52579 0.82723 0.04774 0.0
H229 H 0.49928 0.81927 0.9484 0.0
C230 C 0.52158 0.85829 0.88929 0.0
O231 O 0.57075 0.85981 0.81602 0.0
O232 O 0.55042 0.83058 0.85259 0.0
N233 N 0.55515 0.85966 0.04024 0.0
C234 C 0.57375 0.87531 0.05507 0.0
C235 C 0.58162 0.87351 0.09821 0.0
C236 C 0.57009 0.85591 0.12587 0.0
C237 C 0.55113 0.83992 0.10974 0.0
C238 C 0.54404 0.84256 0.06653 0.0
H239 H 0.58254 0.88899 0.03409 0.0
O240 O 0.58345 0.85432 0.91407 0.0
O241 O 0.55435 0.84844 0.94685 0.0
O242 O 0.57647 0.88872 0.9042 0.0
O243 O 0.55927 0.88742 0.97009 0.0
C244 C 0.53919 0.82132 0.13436 0.0
C245 C 0.52066 0.80551 0.11485 0.0
H246 H 0.48645 0.77829 0.06499 0.0
H247 H 0.47716 0.78536 0.98653 0.0
H248 H 0.59648 0.88564 0.11027 0.0
H249 H 0.57595 0.85483 0.15939 0.0
H250 H 0.5443 0.81886 0.16794 0.0
H251 H 0.5118 0.79113 0.13369 0.0
Mn252 Mn 0.70436 0.5609 0.05378 0.0
Mn253 Mn 0.68175 0.53716 0.15528 0.0
C254 C 0.72298 0.5716 0.1229 0.0
C255 C 0.72268 0.56155 0.98618 0.0
C256 C 0.67448 0.56962 0.10978 0.0
O257 O 0.6784 0.53472 0.03211 0.0
O258 O 0.66609 0.51955 0.10166 0.0
C259 C 0.68986 0.50232 0.14902 0.0
N260 N 0.69135 0.51877 0.17287 0.0
C261 C 0.70765 0.51233 0.23809 0.0
C262 C 0.70618 0.49523 0.21438 0.0
C263 C 0.6973 0.49025 0.16958 0.0
C264 C 0.69992 0.52374 0.21587 0.0
H265 H 0.68304 0.49844 0.11459 0.0
C266 C 0.66527 0.51971 0.05704 0.0
O267 O 0.71177 0.57069 0.98719 0.0
O268 O 0.72248 0.55177 0.02367 0.0
N269 N 0.69504 0.55209 0.21071 0.0
C270 C 0.69673 0.56997 0.22718 0.0
C271 C 0.7058 0.57743 0.27102 0.0
C272 C 0.7126 0.56623 0.29767 0.0
C273 C 0.71089 0.54801 0.27992 0.0
C274 C 0.70167 0.54127 0.23611 0.0
H275 H 0.69127 0.57848 0.20696 0.0
O276 O 0.72888 0.58345 0.08636 0.0
O277 O 0.70668 0.55343 0.1175 0.0
O278 O 0.68673 0.57379 0.07494 0.0
O279 O 0.67123 0.55594 0.14052 0.0
C280 C 0.71833 0.5365 0.30355 0.0
C281 C 0.71679 0.51871 0.28254 0.0
H282 H 0.71197 0.48592 0.23006 0.0
H283 H 0.6962 0.47713 0.15097 0.0
H284 H 0.70752 0.59172 0.2844 0.0
H285 H 0.71909 0.57174 0.3317 0.0
H286 H 0.72558 0.5414 0.33751 0.0
H287 H 0.72288 0.51018 0.30067 0.0
Mn288 Mn 0.14745 0.70115 0.23018 0.0
Mn289 Mn 0.14737 0.67725 0.33066 0.0
C290 C 0.15641 0.71942 0.29988 0.0
C291 C 0.16552 0.71927 0.16265 0.0
C292 C 0.10839 0.67257 0.28627 0.0
O293 O 0.14578 0.67441 0.20728 0.0
O294 O 0.14825 0.66144 0.27627 0.0
C295 C 0.18946 0.68311 0.32308 0.0
N296 N 0.1751 0.68535 0.34763 0.0
C297 C 0.19823 0.70026 0.41283 0.0
C298 C 0.21324 0.69799 0.38841 0.0
C299 C 0.20885 0.68945 0.34326 0.0
C300 C 0.17919 0.69364 0.39093 0.0
H301 H 0.18614 0.67653 0.2884 0.0
C302 C 0.14706 0.66079 0.23169 0.0
O303 O 0.14544 0.70947 0.16422 0.0
O304 O 0.17486 0.71807 0.1996 0.0
N305 N 0.14667 0.69061 0.3869 0.0
C306 C 0.13104 0.69299 0.40434 0.0
C307 C 0.13316 0.70176 0.44877 0.0
C308 C 0.15109 0.70754 0.47497 0.0
C309 C 0.16702 0.70509 0.45627 0.0
C310 C 0.16403 0.6962 0.41193 0.0
H311 H 0.11709 0.68828 0.38449 0.0
O312 O 0.1511 0.72616 0.26373 0.0
O313 O 0.15719 0.70256 0.2937 0.0
O314 O 0.11691 0.68494 0.25181 0.0
O315 O 0.11832 0.66831 0.31638 0.0
C316 C 0.18587 0.71143 0.47955 0.0
C317 C 0.20151 0.70911 0.45773 0.0
H318 H 0.22823 0.70291 0.40381 0.0
H319 H 0.22039 0.68773 0.3241 0.0
H320 H 0.12103 0.704 0.46296 0.0
H321 H 0.15248 0.71379 0.50945 0.0
H322 H 0.18862 0.71842 0.5139 0.0
H323 H 0.21606 0.71433 0.47562 0.0
Mn324 Mn 0.44118 0.14135 0.38284 0.0
Mn325 Mn 0.46312 0.14455 0.48791 0.0
C326 C 0.43064 0.15212 0.44748 0.0
C327 C 0.44252 0.15855 0.31284 0.0
C328 C 0.43042 0.104 0.44535 0.0
O329 O 0.46692 0.13974 0.36617 0.0
O330 O 0.48131 0.14456 0.43754 0.0
C331 C 0.49872 0.18688 0.4781 0.0
N332 N 0.48161 0.17296 0.50198 0.0
C333 C 0.48651 0.19836 0.55981 0.0
C334 C 0.50427 0.21294 0.53604 0.0
C335 C 0.51037 0.20717 0.49494 0.0
C336 C 0.47554 0.17835 0.5414 0.0
H337 H 0.50342 0.18254 0.44637 0.0
C338 C 0.48153 0.14211 0.3933 0.0
O339 O 0.43228 0.13846 0.31517 0.0
O340 O 0.45234 0.16819 0.35012 0.0
N341 N 0.44735 0.14493 0.5402 0.0
C342 C 0.42941 0.12925 0.55796 0.0
C343 C 0.42106 0.13258 0.5988 0.0
C344 C 0.43133 0.15186 0.62123 0.0
C345 C 0.44983 0.16771 0.60246 0.0
C346 C 0.4575 0.16345 0.56191 0.0
H347 H 0.42151 0.11436 0.54102 0.0
O348 O 0.419 0.1455 0.41073 0.0
O349 O 0.44823 0.15263 0.44481 0.0
O350 O 0.42685 0.11137 0.40826 0.0
O351 O 0.44392 0.11498 0.47606 0.0
C352 C 0.46082 0.18764 0.62203 0.0
C353 C 0.47908 0.20298 0.60063 0.0
H354 H 0.51325 0.22863 0.54883 0.0
H355 H 0.524 0.21836 0.47625 0.0
H356 H 0.40672 0.12034 0.61296 0.0
H357 H 0.42484 0.15433 0.65275 0.0
H358 H 0.45526 0.19145 0.65319 0.0
H359 H 0.48722 0.21832 0.61569 0.0
Mn360 Mn 0.30228 0.43782 0.53522 0.0
Mn361 Mn 0.32601 0.46022 0.63695 0.0
C362 C 0.28337 0.4315 0.60334 0.0
C363 C 0.28568 0.43931 0.46652 0.0
C364 C 0.32654 0.42322 0.59556 0.0
O365 O 0.3305 0.46102 0.51346 0.0
O366 O 0.34402 0.47531 0.58338 0.0
C367 C 0.32655 0.49987 0.626 0.0
N368 N 0.32097 0.48231 0.65086 0.0
C369 C 0.30657 0.49321 0.71229 0.0
C370 C 0.31217 0.51142 0.68737 0.0
C371 C 0.32215 0.51472 0.64396 0.0
C372 C 0.31118 0.47888 0.69241 0.0
H373 H 0.33436 0.50254 0.59281 0.0
C374 C 0.34501 0.47467 0.53879 0.0
O375 O 0.29351 0.42725 0.46952 0.0
O376 O 0.28817 0.45082 0.50247 0.0
N377 N 0.31031 0.44732 0.69204 0.0
C378 C 0.30581 0.42889 0.71149 0.0
C379 C 0.29564 0.42314 0.75482 0.0
C380 C 0.29057 0.43655 0.77809 0.0
C381 C 0.29573 0.45561 0.75782 0.0
C382 C 0.3057 0.46043 0.71441 0.0
H383 H 0.30991 0.41864 0.69404 0.0
O384 O 0.27586 0.41884 0.56838 0.0
O385 O 0.30152 0.44753 0.59717 0.0
O386 O 0.31548 0.42089 0.55936 0.0
O387 O 0.33153 0.43748 0.62583 0.0
C388 C 0.29145 0.47004 0.77908 0.0
C389 C 0.29668 0.48874 0.75615 0.0
H390 H 0.30891 0.52296 0.70123 0.0
H391 H 0.32654 0.52875 0.62454 0.0
H392 H 0.29181 0.40845 0.77033 0.0
H393 H 0.28275 0.43208 0.81153 0.0
H394 H 0.28391 0.4668 0.81283 0.0
H395 H 0.29301 0.49957 0.77258 0.0
Mn396 Mn 0.85755 0.3024 0.71188 0.0
Mn397 Mn 0.85676 0.32532 0.81306 0.0
C398 C 0.8465 0.28315 0.7803 0.0
C399 C 0.84033 0.2854 0.64263 0.0
C400 C 0.89602 0.32975 0.77052 0.0
O401 O 0.8604 0.3299 0.69028 0.0
O402 O 0.8564 0.34177 0.75948 0.0
C403 C 0.81496 0.32021 0.80578 0.0
N404 N 0.82906 0.31739 0.82988 0.0
C405 C 0.80569 0.30204 0.89454 0.0
C406 C 0.79093 0.30486 0.87055 0.0
C407 C 0.79556 0.31392 0.8259 0.0
C408 C 0.82474 0.30861 0.87271 0.0
H409 H 0.8185 0.32722 0.77151 0.0
C410 C 0.85861 0.34316 0.71508 0.0
O411 O 0.86033 0.29454 0.64604 0.0
O412 O 0.83058 0.28666 0.67872 0.0
N413 N 0.857 0.31113 0.86827 0.0
C414 C 0.87246 0.30836 0.8853 0.0
C415 C 0.87022 0.29927 0.92938 0.0
C416 C 0.85221 0.29332 0.95546 0.0
C417 C 0.83642 0.29611 0.93707 0.0
C418 C 0.83962 0.30546 0.89321 0.0
H419 H 0.88645 0.31317 0.86558 0.0
O420 O 0.85228 0.27657 0.74467 0.0
O421 O 0.84678 0.30053 0.7744 0.0
O422 O 0.88777 0.31743 0.7359 0.0
O423 O 0.88581 0.33416 0.79945 0.0
C424 C 0.81759 0.28987 0.96034 0.0
C425 C 0.80218 0.29271 0.93895 0.0
H426 H 0.77594 0.3 0.88591 0.0
H427 H 0.78422 0.31608 0.80709 0.0
H428 H 0.8824 0.29705 0.94344 0.0
H429 H 0.85076 0.28679 0.98968 0.0
H430 H 0.81469 0.28265 0.99442 0.0
H431 H 0.78763 0.28754 0.95682 0.0
H432 H 0.14236 0.41305 0.16832 0.0
H433 H 0.16403 0.41145 0.23079 0.0
H434 H 0.21706 0.46521 0.17364 0.0
H435 H 0.19569 0.46659 0.11097 0.0
H436 H 0.22793 0.43832 0.19577 0.0
H437 H 0.19111 0.46705 0.27396 0.0
H438 H 0.16031 0.46819 0.30052 0.0
H439 H 0.13944 0.41148 0.37585 0.0
H440 H 0.17 0.40987 0.34923 0.0
H441 H 0.27056 0.46521 0.45094 0.0
H442 H 0.2483 0.46426 0.38762 0.0
H443 H 0.24951 0.41204 0.32707 0.0
H444 H 0.27226 0.41318 0.39035 0.0
H445 H 0.21087 0.43676 0.36372 0.0
H446 H 0.24298 0.41221 0.20812 0.0
H447 H 0.27585 0.41532 0.1817 0.0
H448 H 0.30973 0.47101 0.26166 0.0
H449 H 0.27709 0.46837 0.28805 0.0
C450 C 0.1586 0.4246 0.16931 0.0
C451 C 0.16724 0.43997 0.13465 0.0
C452 C 0.17101 0.42369 0.20509 0.0
C453 C 0.19226 0.43827 0.20726 0.0
C454 C 0.20079 0.45369 0.1728 0.0
C455 C 0.18848 0.45453 0.13702 0.0
C456 C 0.20578 0.43761 0.24504 0.0
C457 C 0.2241 0.43787 0.23248 0.0
C458 C 0.20108 0.43728 0.29311 0.0
C459 C 0.18271 0.43822 0.30918 0.0
C460 C 0.17987 0.45474 0.29589 0.0
C461 C 0.16247 0.45549 0.31101 0.0
C462 C 0.1479 0.43988 0.33974 0.0
C463 C 0.15072 0.42353 0.35352 0.0
C464 C 0.16808 0.4227 0.33846 0.0
C465 C 0.26627 0.4536 0.42399 0.0
C466 C 0.27329 0.43931 0.42573 0.0
C467 C 0.25339 0.453 0.38783 0.0
C468 C 0.24714 0.4381 0.35231 0.0
C469 C 0.25426 0.42386 0.35366 0.0
C470 C 0.26728 0.42452 0.38989 0.0
C471 C 0.23305 0.43754 0.31445 0.0
C472 C 0.21459 0.43699 0.32699 0.0
C473 C 0.23787 0.4381 0.26639 0.0
C474 C 0.25759 0.43994 0.25047 0.0
C475 C 0.25745 0.42514 0.21996 0.0
C476 C 0.27604 0.42682 0.205 0.0
C477 C 0.29486 0.44331 0.22014 0.0
C478 C 0.29514 0.4582 0.25012 0.0
C479 C 0.27661 0.4566 0.26514 0.0
H480 H 0.30923 0.44458 0.20854 0.0
H481 H 0.13444 0.44049 0.35142 0.0
H482 H 0.79931 0.269 0.6237 0.0
H483 H 0.77957 0.24684 0.55859 0.0
H484 H 0.83505 0.25094 0.5025 0.0
H485 H 0.85508 0.27371 0.5673 0.0
H486 H 0.81288 0.25232 0.43349 0.0
H487 H 0.79839 0.20742 0.56351 0.0
H488 H 0.78808 0.19486 0.6442 0.0
H489 H 0.72808 0.18749 0.61994 0.0
H490 H 0.73813 0.20028 0.53928 0.0
H491 H 0.7294 0.14352 0.33485 0.0
H492 H 0.75219 0.16474 0.39847 0.0
H493 H 0.75216 0.21823 0.34201 0.0
H494 H 0.72999 0.19733 0.27809 0.0
H495 H 0.74918 0.18589 0.4672 0.0
H496 H 0.79713 0.26174 0.36147 0.0
H497 H 0.80966 0.27245 0.28086 0.0
H498 H 0.80676 0.2144 0.25638 0.0
H499 H 0.79449 0.20345 0.337 0.0
C500 C 0.80739 0.26532 0.59741 0.0
C501 C 0.8288 0.27308 0.60095 0.0
C502 C 0.79601 0.25248 0.56024 0.0
C503 C 0.80564 0.24675 0.52592 0.0
C504 C 0.82716 0.25499 0.52855 0.0
C505 C 0.83863 0.26802 0.56566 0.0
C506 C 0.79317 0.23209 0.48768 0.0
C507 C 0.79897 0.2378 0.44094 0.0
C508 C 0.77525 0.2128 0.49705 0.0
C509 C 0.76908 0.20497 0.54545 0.0
C510 C 0.78304 0.20325 0.57548 0.0
C511 C 0.77724 0.19607 0.6212 0.0
C512 C 0.75745 0.19042 0.63722 0.0
C513 C 0.74341 0.19189 0.6075 0.0
C514 C 0.74914 0.19908 0.56175 0.0
C515 C 0.73425 0.1598 0.33607 0.0
C516 C 0.72795 0.16871 0.30113 0.0
C517 C 0.74728 0.17194 0.37251 0.0
C518 C 0.7543 0.19326 0.37482 0.0
C519 C 0.74748 0.20199 0.34062 0.0
C520 C 0.73464 0.18993 0.30412 0.0
C521 C 0.76856 0.2064 0.41296 0.0
C522 C 0.76311 0.20039 0.45971 0.0
C523 C 0.78709 0.22516 0.40358 0.0
C524 C 0.79471 0.23171 0.35518 0.0
C525 C 0.79926 0.2513 0.33895 0.0
C526 C 0.80629 0.2574 0.29324 0.0
C527 C 0.80894 0.24409 0.26348 0.0
C528 C 0.80463 0.22467 0.27941 0.0
C529 C 0.79761 0.21849 0.3251 0.0
H530 H 0.81437 0.24884 0.22809 0.0
H531 H 0.75299 0.18487 0.67263 0.0
H532 H 0.57984 0.72105 0.50988 0.0
H533 H 0.58026 0.74204 0.57642 0.0
H534 H 0.54138 0.75911 0.49983 0.0
H535 H 0.54062 0.73805 0.434 0.0
H536 H 0.59372 0.78243 0.58762 0.0
H537 H 0.50903 0.76456 0.57295 0.0
H538 H 0.47511 0.73621 0.54724 0.0
H539 H 0.49468 0.69218 0.57522 0.0
H540 H 0.5286 0.72022 0.60169 0.0
H541 H 0.58029 0.8537 0.73023 0.0
H542 H 0.58062 0.83283 0.66429 0.0
H543 H 0.54084 0.7772 0.74114 0.0
H544 H 0.54013 0.79782 0.80627 0.0
H545 H 0.52817 0.7722 0.65537 0.0
H546 H 0.59391 0.79634 0.72917 0.0
H547 H 0.62785 0.82235 0.76036 0.0
H548 H 0.64622 0.84971 0.62418 0.0
H549 H 0.61226 0.824 0.5923 0.0
C550 C 0.57131 0.7292 0.50736 0.0
C551 C 0.56007 0.72771 0.46665 0.0
C552 C 0.57164 0.74129 0.54534 0.0
C553 C 0.56067 0.75205 0.54353 0.0
C554 C 0.54969 0.75074 0.50262 0.0
C555 C 0.54931 0.73867 0.46484 0.0
C556 C 0.56052 0.76455 0.58422 0.0
C557 C 0.57938 0.78019 0.60239 0.0
C558 C 0.54186 0.76154 0.60418 0.0
C559 C 0.52142 0.74453 0.58884 0.0
C560 C 0.50606 0.74882 0.57378 0.0
C561 C 0.48684 0.7328 0.55905 0.0
C562 C 0.48277 0.71241 0.55945 0.0
C563 C 0.49788 0.70798 0.57475 0.0
C564 C 0.51711 0.72394 0.58957 0.0
C565 C 0.57154 0.83703 0.73292 0.0
C566 C 0.5602 0.82748 0.77364 0.0
C567 C 0.57184 0.82508 0.69529 0.0
C568 C 0.56093 0.80335 0.69772 0.0
C569 C 0.54938 0.79388 0.73814 0.0
C570 C 0.54903 0.80576 0.77554 0.0
C571 C 0.56137 0.79031 0.65849 0.0
C572 C 0.54254 0.77454 0.64052 0.0
C573 C 0.58005 0.79294 0.63944 0.0
C574 C 0.60048 0.80838 0.65847 0.0
C575 C 0.60513 0.808 0.70596 0.0
C576 C 0.62438 0.82267 0.72374 0.0
C577 C 0.63916 0.8377 0.6943 0.0
C578 C 0.63474 0.83807 0.64696 0.0
C579 C 0.6155 0.82344 0.62901 0.0
H580 H 0.65406 0.84905 0.70813 0.0
H581 H 0.46789 0.70004 0.548 0.0
H582 H 0.85848 0.57171 0.6868 0.0
H583 H 0.83776 0.5719 0.75348 0.0
H584 H 0.78695 0.55772 0.66075 0.0
H585 H 0.80722 0.5569 0.59448 0.0
H586 H 0.79851 0.59224 0.72944 0.0
H587 H 0.78139 0.52057 0.71793 0.0
H588 H 0.79015 0.49287 0.71488 0.0
H589 H 0.81957 0.51144 0.84901 0.0
H590 H 0.81125 0.53947 0.8525 0.0
H591 H 0.71816 0.56901 0.89388 0.0
H592 H 0.73912 0.56973 0.82721 0.0
H593 H 0.77786 0.55848 0.92043 0.0
H594 H 0.75621 0.55647 0.98619 0.0
H595 H 0.77331 0.53739 0.85028 0.0
H596 H 0.79185 0.60826 0.86602 0.0
H597 H 0.78632 0.63806 0.87168 0.0
H598 H 0.75873 0.62453 0.73521 0.0
H599 H 0.76386 0.59448 0.72897 0.0
C600 C 0.84289 0.56862 0.68069 0.0
C601 C 0.83447 0.56419 0.63538 0.0
C602 C 0.83108 0.56874 0.71878 0.0
C603 C 0.81081 0.56486 0.71206 0.0
C604 C 0.80255 0.56081 0.66675 0.0
C605 C 0.81414 0.56024 0.62895 0.0
C606 C 0.79798 0.56459 0.75222 0.0
C607 C 0.79281 0.58018 0.75574 0.0
C608 C 0.79105 0.54918 0.78716 0.0
C609 C 0.79591 0.53225 0.78522 0.0
C610 C 0.7899 0.51887 0.74656 0.0
C611 C 0.79475 0.50308 0.7448 0.0
C612 C 0.80547 0.50044 0.78166 0.0
C613 C 0.8113 0.51353 0.82044 0.0
C614 C 0.80652 0.52936 0.82234 0.0
C615 C 0.73116 0.56671 0.9 0.0
C616 C 0.7355 0.56267 0.94531 0.0
C617 C 0.74329 0.56727 0.86187 0.0
C618 C 0.76046 0.56451 0.86842 0.0
C619 C 0.76476 0.56059 0.91392 0.0
C620 C 0.75237 0.55951 0.9517 0.0
C621 C 0.77373 0.56522 0.82822 0.0
C622 C 0.779 0.54963 0.82443 0.0
C623 C 0.78117 0.58096 0.79363 0.0
C624 C 0.77804 0.59899 0.79725 0.0
C625 C 0.78446 0.61155 0.83736 0.0
C626 C 0.78143 0.6285 0.84065 0.0
C627 C 0.77213 0.63315 0.80388 0.0
C628 C 0.7659 0.62089 0.76369 0.0
C629 C 0.76888 0.60391 0.76024 0.0
H630 H 0.76979 0.64628 0.80649 0.0
H631 H 0.8092 0.48821 0.78024 0.0
H632 H 0.26808 0.8036 0.7831 0.0
H633 H 0.24683 0.78258 0.84796 0.0
H634 H 0.26019 0.83772 0.9239 0.0
H635 H 0.28133 0.85898 0.8583 0.0
H636 H 0.25454 0.77826 0.93449 0.0
H637 H 0.21857 0.82737 0.99378 0.0
H638 H 0.20895 0.85182 0.9603 0.0
H639 H 0.20195 0.82425 0.82497 0.0
H640 H 0.21125 0.79948 0.85775 0.0
H641 H 0.20737 0.74301 0.15481 0.0
H642 H 0.2275 0.76437 0.08915 0.0
H643 H 0.17142 0.74563 0.01152 0.0
H644 H 0.15102 0.72443 0.078 0.0
H645 H 0.19715 0.78583 0.99936 0.0
H646 H 0.20315 0.72523 0.98799 0.0
H647 H 0.21037 0.69828 0.01596 0.0
H648 H 0.27318 0.74438 0.04501 0.0
H649 H 0.26627 0.77165 0.01779 0.0
C650 C 0.26657 0.81134 0.81358 0.0
C651 C 0.27642 0.83304 0.81534 0.0
C652 C 0.2544 0.79924 0.85082 0.0
C653 C 0.25165 0.80845 0.89089 0.0
C654 C 0.26175 0.83016 0.89316 0.0
C655 C 0.27396 0.84233 0.85573 0.0
C656 C 0.23826 0.79518 0.92996 0.0
C657 C 0.24205 0.78001 0.94871 0.0
C658 C 0.22162 0.79703 0.94816 0.0
C659 C 0.21584 0.81174 0.92816 0.0
C660 C 0.21492 0.8265 0.95691 0.0
C661 C 0.20953 0.84041 0.93805 0.0
C662 C 0.20492 0.83964 0.89051 0.0
C663 C 0.20561 0.82489 0.86175 0.0
C664 C 0.21097 0.81093 0.88044 0.0
C665 C 0.19924 0.74333 0.12377 0.0
C666 C 0.17753 0.73184 0.12166 0.0
C667 C 0.21083 0.75556 0.08607 0.0
C668 C 0.20108 0.75647 0.04489 0.0
C669 C 0.17936 0.7452 0.04279 0.0
C670 C 0.1677 0.73299 0.08075 0.0
C671 C 0.21364 0.76913 0.00424 0.0
C672 C 0.2097 0.78416 0.98524 0.0
C673 C 0.22989 0.76687 0.98506 0.0
C674 C 0.23414 0.7505 1.00123 0.0
C675 C 0.21847 0.72964 1.00064 0.0
C676 C 0.22251 0.7143 0.01632 0.0
C677 C 0.24221 0.71962 0.03236 0.0
C678 C 0.25793 0.74028 0.03263 0.0
C679 C 0.25396 0.75569 0.01704 0.0
H680 H 0.24531 0.70772 0.04448 0.0
H681 H 0.20076 0.85043 0.87597 0.0
H682 H 0.42247 0.14418 0.22808 0.0
H683 H 0.42209 0.16506 0.16186 0.0
H684 H 0.4612 0.2207 0.23928 0.0
H685 H 0.46203 0.20025 0.30425 0.0
H686 H 0.40896 0.19271 0.15191 0.0
H687 H 0.49442 0.25825 0.16925 0.0
H688 H 0.52803 0.26252 0.19327 0.0
H689 H 0.50682 0.19904 0.15972 0.0
H690 H 0.4732 0.19446 0.13489 0.0
H691 H 0.42462 0.28087 0.01779 0.0
H692 H 0.42306 0.25798 0.08149 0.0
H693 H 0.46303 0.24287 0.00314 0.0
H694 H 0.46507 0.26581 0.94083 0.0
H695 H 0.47506 0.24871 0.08792 0.0
H696 H 0.40959 0.20941 0.01204 0.0
H697 H 0.37591 0.20248 0.98122 0.0
H698 H 0.35708 0.20885 0.11908 0.0
H699 H 0.39078 0.21609 0.15064 0.0
C700 C 0.43111 0.16086 0.23067 0.0
C701 C 0.44243 0.1705 0.27134 0.0
C702 C 0.43077 0.17279 0.19298 0.0
C703 C 0.44181 0.19451 0.19528 0.0
C704 C 0.45286 0.20403 0.23613 0.0
C705 C 0.45328 0.19223 0.27343 0.0
C706 C 0.44212 0.20751 0.1553 0.0
C707 C 0.42341 0.20493 0.13782 0.0
C708 C 0.46094 0.2233 0.13628 0.0
C709 C 0.48122 0.22598 0.15063 0.0
C710 C 0.49696 0.24523 0.16681 0.0
C711 C 0.51601 0.2477 0.1806 0.0
C712 C 0.51954 0.23105 0.17816 0.0
C713 C 0.50404 0.21191 0.16176 0.0
C714 C 0.48498 0.20936 0.14788 0.0
C715 C 0.43317 0.27277 0.01445 0.0
C716 C 0.445 0.27525 0.97419 0.0
C717 C 0.43215 0.25955 0.05069 0.0
C718 C 0.44278 0.24847 0.04709 0.0
C719 C 0.45472 0.25121 0.00708 0.0
C720 C 0.45584 0.26439 0.97127 0.0
C721 C 0.44189 0.23416 0.08472 0.0
C722 C 0.46057 0.23653 0.10192 0.0
C723 C 0.42304 0.21787 0.10244 0.0
C724 C 0.40278 0.21351 0.08361 0.0
C725 C 0.39833 0.2095 0.03572 0.0
C726 C 0.37923 0.20548 0.01813 0.0
C727 C 0.36439 0.20528 0.04815 0.0
C728 C 0.36861 0.20904 0.09586 0.0
C729 C 0.3877 0.21309 0.11362 0.0
H730 H 0.34961 0.20217 0.03447 0.0
H731 H 0.53429 0.23299 0.18889 0.0
H732 H 0.11752 0.50228 0.99611 0.0
H733 H 0.11941 0.53261 0.03221 0.0
H734 H 0.14239 0.52037 0.15936 0.0
H735 H 0.14044 0.48957 0.12325 0.0
H736 H 0.11394 0.5344 0.1741 0.0
H737 H 0.17578 0.55417 0.08661 0.0
H738 H 0.19521 0.5546 0.01661 0.0
H739 H 0.16852 0.5845 0.93851 0.0
H740 H 0.14858 0.58387 0.00783 0.0
H741 H 0.15682 0.63353 0.27054 0.0
H742 H 0.1533 0.60218 0.23644 0.0
H743 H 0.13278 0.61535 0.10678 0.0
H744 H 0.1364 0.64718 0.14078 0.0
H745 H 0.1599 0.6007 0.09339 0.0
H746 H 0.09794 0.58079 0.1799 0.0
H747 H 0.07734 0.57928 0.24865 0.0
H748 H 0.10368 0.54929 0.32772 0.0
H749 H 0.12469 0.55091 0.25962 0.0
C750 C 0.1228 0.50584 0.03196 0.0
C751 C 0.12914 0.49367 0.05662 0.0
C752 C 0.12387 0.52322 0.0525 0.0
C753 C 0.13146 0.52897 0.09803 0.0
C754 C 0.13661 0.51622 0.12399 0.0
C755 C 0.13547 0.49864 0.1034 0.0
C756 C 0.13505 0.54895 0.11699 0.0
C757 C 0.12422 0.54893 0.15695 0.0
C758 C 0.14808 0.56783 0.09373 0.0
C759 C 0.16054 0.56881 0.05235 0.0
C760 C 0.17395 0.56073 0.05445 0.0
C761 C 0.18506 0.56101 0.01489 0.0
C762 C 0.18307 0.56953 0.97311 0.0
C763 C 0.17003 0.57788 0.97089 0.0
C764 C 0.15883 0.57758 0.01031 0.0
C765 C 0.1516 0.62991 0.23467 0.0
C766 C 0.14661 0.6428 0.20859 0.0
C767 C 0.14958 0.6119 0.21528 0.0
C768 C 0.14238 0.60621 0.16944 0.0
C769 C 0.13823 0.61942 0.1424 0.0
C770 C 0.1403 0.63759 0.16185 0.0
C771 C 0.13879 0.58618 0.15062 0.0
C772 C 0.14963 0.58618 0.11063 0.0
C773 C 0.12575 0.56728 0.17382 0.0
C774 C 0.11303 0.56615 0.21477 0.0
C775 C 0.09946 0.57402 0.21206 0.0
C776 C 0.08769 0.57312 0.25089 0.0
C777 C 0.08924 0.56424 0.29256 0.0
C778 C 0.10252 0.55619 0.29543 0.0
C779 C 0.11435 0.55708 0.25671 0.0
H780 H 0.08011 0.56355 0.32259 0.0
H781 H 0.19166 0.56969 0.9425 0.0
H782 H 0.61477 0.1174 0.16818 0.0
H783 H 0.58614 0.11844 0.20567 0.0
H784 H 0.62294 0.14452 0.32967 0.0
H785 H 0.652 0.14341 0.29215 0.0
H786 H 0.58062 0.11483 0.34764 0.0
H787 H 0.62019 0.17612 0.25685 0.0
H788 H 0.63841 0.19522 0.18583 0.0
H789 H 0.58142 0.16575 0.10912 0.0
H790 H 0.56292 0.14613 0.17948 0.0
H791 H 0.51771 0.15233 0.43773 0.0
H792 H 0.54708 0.15032 0.40774 0.0
H793 H 0.51643 0.12912 0.2748 0.0
H794 H 0.48682 0.13134 0.30442 0.0
H795 H 0.55692 0.15745 0.26397 0.0
H796 H 0.51757 0.09533 0.35298 0.0
H797 H 0.49929 0.0748 0.4225 0.0
H798 H 0.55557 0.10516 0.50169 0.0
H799 H 0.57413 0.12609 0.43278 0.0
C800 C 0.61681 0.12319 0.20363 0.0
C801 C 0.6358 0.13064 0.22696 0.0
C802 C 0.60038 0.12374 0.22499 0.0
C803 C 0.60258 0.13195 0.26999 0.0
C804 C 0.62103 0.13825 0.29473 0.0
C805 C 0.63758 0.1376 0.27332 0.0
C806 C 0.58596 0.13507 0.28933 0.0
C807 C 0.57564 0.12442 0.3299 0.0
C808 C 0.57923 0.14724 0.26542 0.0
C809 C 0.59019 0.15953 0.2234 0.0
C810 C 0.61156 0.17363 0.22479 0.0
C811 C 0.62194 0.18454 0.18464 0.0
C812 C 0.61109 0.18167 0.14297 0.0
C813 C 0.58981 0.16794 0.14143 0.0
C814 C 0.57936 0.15692 0.18144 0.0
C815 C 0.5171 0.14723 0.40204 0.0
C816 C 0.49973 0.14179 0.37362 0.0
C817 C 0.53395 0.14604 0.38502 0.0
C818 C 0.5338 0.1392 0.33935 0.0
C819 C 0.5168 0.13433 0.3103 0.0
C820 C 0.49989 0.13559 0.32728 0.0
C821 C 0.55138 0.13706 0.32221 0.0
C822 C 0.56193 0.14794 0.28197 0.0
C823 C 0.55829 0.12508 0.34643 0.0
C824 C 0.54719 0.11242 0.38784 0.0
C825 C 0.52601 0.09774 0.38531 0.0
C826 C 0.51561 0.08601 0.42459 0.0
C827 C 0.52625 0.08871 0.46652 0.0
C828 C 0.54734 0.1031 0.46921 0.0
C829 C 0.55781 0.11489 0.43004 0.0
H830 H 0.51817 0.07962 0.49689 0.0
H831 H 0.61917 0.19011 0.1119 0.0
H832 H 0.38263 0.49796 0.5791 0.0
H833 H 0.41254 0.52845 0.54742 0.0
H834 H 0.38029 0.5204 0.41721 0.0
H835 H 0.35011 0.48941 0.44867 0.0
H836 H 0.42137 0.53285 0.40402 0.0
H837 H 0.38176 0.55392 0.49686 0.0
H838 H 0.36327 0.55433 0.56783 0.0
H839 H 0.41968 0.57995 0.64643 0.0
H840 H 0.43845 0.5793 0.5761 0.0
H841 H 0.48115 0.63314 0.31686 0.0
H842 H 0.45237 0.60205 0.3495 0.0
H843 H 0.48652 0.61099 0.47713 0.0
H844 H 0.51571 0.64255 0.44461 0.0
H845 H 0.44496 0.59802 0.49252 0.0
H846 H 0.48457 0.57712 0.39922 0.0
H847 H 0.50282 0.57615 0.32834 0.0
H848 H 0.4462 0.55021 0.25044 0.0
H849 H 0.42766 0.55133 0.32071 0.0
C850 C 0.38189 0.50251 0.54352 0.0
C851 C 0.36386 0.49141 0.51658 0.0
C852 C 0.39902 0.51999 0.52552 0.0
C853 C 0.39846 0.52697 0.48039 0.0
C854 C 0.38096 0.51533 0.4523 0.0
C855 C 0.36375 0.49764 0.47026 0.0
C856 C 0.41584 0.54692 0.46371 0.0
C857 C 0.42636 0.54715 0.42299 0.0
C858 C 0.42263 0.56549 0.48917 0.0
C859 C 0.41148 0.56639 0.53127 0.0
C860 C 0.39021 0.55953 0.52933 0.0
C861 C 0.37967 0.5598 0.56945 0.0
C862 C 0.39029 0.56713 0.61163 0.0
C863 C 0.41148 0.57426 0.61373 0.0
C864 C 0.42207 0.57395 0.57375 0.0
C865 C 0.48263 0.62865 0.35201 0.0
C866 C 0.50092 0.64023 0.37789 0.0
C867 C 0.4661 0.6108 0.37057 0.0
C868 C 0.46747 0.60397 0.4153 0.0
C869 C 0.48524 0.61595 0.44233 0.0
C870 C 0.50188 0.63397 0.42374 0.0
C871 C 0.45047 0.58395 0.43277 0.0
C872 C 0.44 0.58371 0.47362 0.0
C873 C 0.4437 0.56538 0.40738 0.0
C874 C 0.45476 0.56447 0.36516 0.0
C875 C 0.47604 0.57134 0.3669 0.0
C876 C 0.48643 0.57075 0.32684 0.0
C877 C 0.47569 0.56316 0.28489 0.0
C878 C 0.45451 0.5561 0.28295 0.0
C879 C 0.44405 0.55669 0.3229 0.0
H880 H 0.48376 0.56272 0.25391 0.0
H881 H 0.3821 0.56731 0.64266 0.0
H882 H 0.86087 0.51278 0.61359 0.0
H883 H 0.85996 0.482 0.64629 0.0
H884 H 0.86367 0.46173 0.50729 0.0
H885 H 0.86408 0.49184 0.47449 0.0
H886 H 0.83621 0.43031 0.55525 0.0
H887 H 0.90607 0.48466 0.58162 0.0
H888 H 0.93338 0.51832 0.61124 0.0
H889 H 0.91183 0.49964 0.75167 0.0
H890 H 0.88421 0.46595 0.7228 0.0
H891 H 0.86283 0.35378 0.62142 0.0
H892 H 0.86394 0.3844 0.58681 0.0
H893 H 0.85663 0.4041 0.72362 0.0
H894 H 0.85567 0.37407 0.75829 0.0
H895 H 0.88642 0.43577 0.67567 0.0
H896 H 0.81629 0.38142 0.64827 0.0
H897 H 0.78933 0.34772 0.61802 0.0
H898 H 0.81205 0.36649 0.47835 0.0
H899 H 0.83933 0.40023 0.50788 0.0
C900 C 0.86146 0.50175 0.59004 0.0
C901 C 0.86259 0.50489 0.54141 0.0
C902 C 0.86102 0.48419 0.60877 0.0
C903 C 0.86195 0.46962 0.57923 0.0
C904 C 0.86288 0.47268 0.5308 0.0
C905 C 0.86318 0.49004 0.51212 0.0
C906 C 0.86198 0.45113 0.59826 0.0
C907 C 0.84736 0.43155 0.5812 0.0
C908 C 0.87632 0.45265 0.63256 0.0
C909 C 0.89295 0.47287 0.65 0.0
C910 C 0.90706 0.48779 0.61878 0.0
C911 C 0.92261 0.50687 0.63544 0.0
C912 C 0.92431 0.51114 0.68329 0.0
C913 C 0.91048 0.49632 0.71461 0.0
C914 C 0.89489 0.47723 0.69812 0.0
C915 C 0.86146 0.36464 0.64407 0.0
C916 C 0.85916 0.36137 0.69266 0.0
C917 C 0.86205 0.3821 0.62426 0.0
C918 C 0.8603 0.3965 0.65269 0.0
C919 C 0.8581 0.39327 0.70103 0.0
C920 C 0.85749 0.37595 0.72075 0.0
C921 C 0.86065 0.415 0.6327 0.0
C922 C 0.87532 0.43457 0.64961 0.0
C923 C 0.84643 0.41348 0.59815 0.0
C924 C 0.82998 0.39325 0.58034 0.0
C925 C 0.81563 0.3783 0.61115 0.0
C926 C 0.80028 0.3592 0.59413 0.0
C927 C 0.79902 0.35494 0.54631 0.0
C928 C 0.81307 0.3698 0.51539 0.0
C929 C 0.82847 0.38891 0.53225 0.0
H930 H 0.78712 0.34015 0.5332 0.0
H931 H 0.93636 0.52592 0.69612 0.0
H932 H 0.35251 0.85883 0.79314 0.0
H933 H 0.38226 0.85764 0.82581 0.0
H934 H 0.41127 0.8719 0.69005 0.0
H935 H 0.38174 0.87268 0.65722 0.0
H936 H 0.41416 0.84158 0.72714 0.0
H937 H 0.42709 0.90817 0.77927 0.0
H938 H 0.41902 0.93256 0.81893 0.0
H939 H 0.41211 0.90134 0.94938 0.0
H940 H 0.41988 0.87658 0.91035 0.0
H941 H 0.51606 0.86651 0.79799 0.0
H942 H 0.48638 0.86793 0.76576 0.0
H943 H 0.45646 0.85128 0.90038 0.0
H944 H 0.48582 0.85003 0.93281 0.0
H945 H 0.4541 0.88284 0.86413 0.0
H946 H 0.44139 0.81629 0.81106 0.0
H947 H 0.44993 0.79235 0.77085 0.0
H948 H 0.45693 0.82415 0.64121 0.0
H949 H 0.4487 0.84847 0.68081 0.0
C950 C 0.36529 0.86183 0.7704 0.0
C951 C 0.36465 0.86576 0.72254 0.0
C952 C 0.38231 0.86119 0.78909 0.0
C953 C 0.39907 0.86476 0.76037 0.0
C954 C 0.3985 0.86895 0.71285 0.0
C955 C 0.38155 0.86943 0.69417 0.0
C956 C 0.41711 0.86378 0.77909 0.0
C957 C 0.42303 0.8508 0.75678 0.0
C958 C 0.4285 0.87551 0.81825 0.0
C959 C 0.42385 0.89039 0.84179 0.0
C960 C 0.42369 0.90641 0.81634 0.0
C961 C 0.4192 0.92032 0.83872 0.0
C962 C 0.41499 0.91847 0.88661 0.0
C963 C 0.41533 0.90273 0.91226 0.0
C964 C 0.4198 0.88877 0.89004 0.0
C965 C 0.50311 0.86304 0.82061 0.0
C966 C 0.50343 0.85824 0.86804 0.0
C967 C 0.48614 0.86383 0.80216 0.0
C968 C 0.46916 0.85967 0.8307 0.0
C969 C 0.46941 0.85468 0.87778 0.0
C970 C 0.48627 0.85393 0.89621 0.0
C971 C 0.45113 0.86067 0.81211 0.0
C972 C 0.44522 0.87364 0.83447 0.0
C973 C 0.43979 0.849 0.77289 0.0
C974 C 0.44463 0.83432 0.749 0.0
C975 C 0.4449 0.81827 0.77405 0.0
C976 C 0.44966 0.80462 0.75136 0.0
C977 C 0.45403 0.80676 0.70353 0.0
C978 C 0.45358 0.82253 0.67827 0.0
C979 C 0.44885 0.83624 0.70081 0.0
H980 H 0.45771 0.79617 0.68602 0.0
H981 H 0.41152 0.92925 0.90388 0.0
H982 H 0.51586 0.37891 0.81374 0.0
H983 H 0.54614 0.40834 0.84723 0.0
H984 H 0.52749 0.38192 0.9849 0.0
H985 H 0.49662 0.35235 0.9516 0.0
H986 H 0.54123 0.42256 0.98656 0.0
H987 H 0.56605 0.37953 0.92456 0.0
H988 H 0.57088 0.35873 0.86433 0.0
H989 H 0.6029 0.41241 0.77721 0.0
H990 H 0.59797 0.43347 0.83663 0.0
H991 H 0.63642 0.48402 0.09886 0.0
H992 H 0.60643 0.45489 0.06368 0.0
H993 H 0.62379 0.48445 0.92881 0.0
H994 H 0.65423 0.51397 0.96384 0.0
H995 H 0.61087 0.44256 0.92517 0.0
H996 H 0.58606 0.48553 0.98849 0.0
H997 H 0.58127 0.50601 0.04959 0.0
H998 H 0.5494 0.45192 0.1355 0.0
H999 H 0.55428 0.43116 0.07519 0.0
C1000 C 0.5181 0.37925 0.8512 0.0
C1001 C 0.50382 0.3631 0.87994 0.0
C1002 C 0.53553 0.39612 0.87027 0.0
C1003 C 0.53934 0.39717 0.91846 0.0
C1004 C 0.52492 0.38137 0.94754 0.0
C1005 C 0.50729 0.36447 0.92846 0.0
C1006 C 0.55839 0.41484 0.93817 0.0
C1007 C 0.55647 0.42673 0.9736 0.0
C1008 C 0.57828 0.42062 0.92047 0.0
C1009 C 0.58148 0.40804 0.88489 0.0
C1010 C 0.574 0.38687 0.89242 0.0
C1011 C 0.57677 0.37504 0.85844 0.0
C1012 C 0.58715 0.38423 0.81693 0.0
C1013 C 0.59484 0.4053 0.80937 0.0
C1014 C 0.59208 0.4172 0.8432 0.0
C1015 C 0.634 0.48446 0.06165 0.0
C1016 C 0.64772 0.50154 0.03428 0.0
C1017 C 0.61675 0.46773 0.04164 0.0
C1018 C 0.61268 0.46765 0.99382 0.0
C1019 C 0.62662 0.48429 0.9659 0.0
C1020 C 0.64398 0.50114 0.98597 0.0
C1021 C 0.59368 0.45021 0.97353 0.0
C1022 C 0.59562 0.43836 0.93803 0.0
C1023 C 0.57382 0.44441 0.99131 0.0
C1024 C 0.5707 0.45682 0.02747 0.0
C1025 C 0.57816 0.47803 0.02055 0.0
C1026 C 0.57541 0.48968 0.05502 0.0
C1027 C 0.56508 0.48028 0.09644 0.0
C1028 C 0.55742 0.45918 0.10342 0.0
C1029 C 0.56016 0.44746 0.06908 0.0
H1030 H 0.56296 0.48933 0.12309 0.0
H1031 H 0.58927 0.37504 0.79066 0.0
H1032 H 0.26206 0.40039 0.66584 0.0
H1033 H 0.23958 0.39991 0.72899 0.0
H1034 H 0.24962 0.45933 0.68301 0.0
H1035 H 0.27328 0.46042 0.62298 0.0
H1036 H 0.25158 0.46086 0.76775 0.0
H1037 H 0.20227 0.40921 0.66477 0.0
H1038 H 0.18678 0.37729 0.61773 0.0
H1039 H 0.1794 0.34157 0.7412 0.0
H1040 H 0.19508 0.37332 0.7889 0.0
H1041 H 0.13869 0.414 0.87498 0.0
H1042 H 0.16237 0.41497 0.81535 0.0
H1043 H 0.21347 0.45172 0.90853 0.0
H1044 H 0.18996 0.45501 0.96147 0.0
H1045 H 0.18281 0.40109 0.80295 0.0
H1046 H 0.25635 0.46481 0.87282 0.0
H1047 H 0.27344 0.49923 0.91003 0.0
H1048 H 0.23284 0.51464 0.83716 0.0
H1049 H 0.21522 0.47997 0.8002 0.0
C1050 C 0.25943 0.41331 0.66976 0.0
C1051 C 0.26965 0.43066 0.64079 0.0
C1052 C 0.24643 0.41295 0.70535 0.0
C1053 C 0.24262 0.42948 0.71065 0.0
C1054 C 0.25237 0.44646 0.68018 0.0
C1055 C 0.26587 0.4471 0.64585 0.0
C1056 C 0.22921 0.42973 0.74875 0.0
C1057 C 0.23653 0.44776 0.77536 0.0
C1058 C 0.20946 0.41277 0.75883 0.0
C1059 C 0.20004 0.39365 0.7303 0.0
C1060 C 0.19747 0.39455 0.68182 0.0
C1061 C 0.18864 0.37649 0.65506 0.0
C1062 C 0.18217 0.35742 0.67645 0.0
C1063 C 0.18446 0.35636 0.72467 0.0
C1064 C 0.1933 0.37438 0.75159 0.0
C1065 C 0.15513 0.42359 0.88054 0.0
C1066 C 0.16268 0.43588 0.92047 0.0
C1067 C 0.16881 0.42358 0.84729 0.0
C1068 C 0.19032 0.43412 0.85563 0.0
C1069 C 0.19751 0.44491 0.89815 0.0
C1070 C 0.18394 0.44642 0.92926 0.0
C1071 C 0.20467 0.43287 0.82073 0.0
C1072 C 0.19776 0.41439 0.79527 0.0
C1073 C 0.22472 0.44964 0.81079 0.0
C1074 C 0.23412 0.46978 0.83493 0.0
C1075 C 0.2509 0.47548 0.86532 0.0
C1076 C 0.26063 0.49495 0.88638 0.0
C1077 C 0.25395 0.50897 0.87653 0.0
C1078 C 0.23757 0.50354 0.84555 0.0
C1079 C 0.22762 0.48396 0.82484 0.0
H1080 H 0.2616 0.52412 0.89251 0.0
H1081 H 0.17533 0.34345 0.65567 0.0
H1082 H 0.72042 0.18427 0.07963 0.0
H1083 H 0.74338 0.20097 0.01298 0.0
H1084 H 0.75731 0.15161 0.00753 0.0
H1085 H 0.73292 0.134 0.07163 0.0
H1086 H 0.78811 0.20549 0.03215 0.0
H1087 H 0.75392 0.14802 0.92611 0.0
H1088 H 0.7275 0.121 0.87588 0.0
H1089 H 0.7171 0.16622 0.80798 0.0
H1090 H 0.74286 0.19339 0.85937 0.0
H1091 H 0.85936 0.25993 0.82724 0.0
H1092 H 0.83984 0.23312 0.88565 0.0
H1093 H 0.79117 0.24808 0.88057 0.0
H1094 H 0.80959 0.27312 0.81854 0.0
H1095 H 0.78228 0.20518 0.85975 0.0
H1096 H 0.80399 0.24658 0.03702 0.0
H1097 H 0.83316 0.26832 0.08921 0.0
H1098 H 0.87194 0.25129 0.01331 0.0
H1099 H 0.84266 0.22847 0.96283 0.0
C1100 C 0.72744 0.17643 0.06234 0.0
C1101 C 0.72416 0.15741 0.07908 0.0
C1102 C 0.7406 0.18597 0.02444 0.0
C1103 C 0.75134 0.17706 0.00383 0.0
C1104 C 0.74832 0.15818 0.02101 0.0
C1105 C 0.73468 0.14833 0.05812 0.0
C1106 C 0.76896 0.18999 0.97283 0.0
C1107 C 0.78695 0.20537 0.99431 0.0
C1108 C 0.76755 0.18935 0.92356 0.0
C1109 C 0.74993 0.17266 0.89769 0.0
C1110 C 0.74546 0.1521 0.90183 0.0
C1111 C 0.73077 0.13678 0.87266 0.0
C1112 C 0.72064 0.14188 0.83868 0.0
C1113 C 0.72497 0.16228 0.83425 0.0
C1114 C 0.73948 0.1776 0.8637 0.0
C1115 C 0.84472 0.25777 0.83963 0.0
C1116 C 0.83639 0.26929 0.82027 0.0
C1117 C 0.83378 0.24276 0.87374 0.0
C1118 C 0.81458 0.2394 0.88968 0.0
C1119 C 0.80634 0.25097 0.8702 0.0
C1120 C 0.81692 0.26541 0.83508 0.0
C1121 C 0.80098 0.22138 0.91922 0.0
C1122 C 0.78358 0.20517 0.89754 0.0
C1123 C 0.8031 0.22104 0.9683 0.0
C1124 C 0.82139 0.23664 0.9944 0.0
C1125 C 0.81884 0.24775 0.03099 0.0
C1126 C 0.83528 0.25993 0.06095 0.0
C1127 C 0.85446 0.26134 0.05433 0.0
C1128 C 0.85717 0.25044 0.01798 0.0
C1129 C 0.84064 0.23791 0.98854 0.0
H1130 H 0.86721 0.27083 0.07742 0.0
H1131 H 0.7094 0.13003 0.81592 0.0
H1132 H 0.54603 0.72796 0.24408 0.0
H1133 H 0.55587 0.75273 0.17991 0.0
H1134 H 0.6176 0.76203 0.18288 0.0
H1135 H 0.60709 0.73559 0.24402 0.0
H1136 H 0.59597 0.7954 0.20429 0.0
H1137 H 0.62288 0.76364 0.10296 0.0
H1138 H 0.62613 0.73856 0.05324 0.0
H1139 H 0.57232 0.72751 0.97592 0.0
H1140 H 0.5682 0.75183 0.02676 0.0
H1141 H 0.60952 0.86423 0.9927 0.0
H1142 H 0.61954 0.84704 0.05167 0.0
H1143 H 0.55662 0.7969 0.05813 0.0
H1144 H 0.54722 0.81291 0.99553 0.0
H1145 H 0.59396 0.79104 0.03155 0.0
H1146 H 0.57272 0.81126 0.21258 0.0
H1147 H 0.57984 0.84087 0.26285 0.0
H1148 H 0.6324 0.88061 0.17837 0.0
H1149 H 0.6264 0.85101 0.12967 0.0
C1150 C 0.5613 0.73434 0.22898 0.0
C1151 C 0.57545 0.72906 0.24702 0.0
C1152 C 0.56698 0.74859 0.19259 0.0
C1153 C 0.58723 0.75856 0.175 0.0
C1154 C 0.60161 0.7537 0.19381 0.0
C1155 C 0.59569 0.73887 0.22929 0.0
C1156 C 0.59376 0.77686 0.14485 0.0
C1157 C 0.59571 0.79459 0.1664 0.0
C1158 C 0.59437 0.77605 0.09558 0.0
C1159 C 0.59484 0.75909 0.06986 0.0
C1160 C 0.61122 0.75523 0.07676 0.0
C1161 C 0.6134 0.74135 0.04787 0.0
C1162 C 0.59947 0.73146 0.01135 0.0
C1163 C 0.58314 0.7352 0.00413 0.0
C1164 C 0.58077 0.74888 0.03329 0.0
C1165 C 0.59779 0.84979 0.00773 0.0
C1166 C 0.57733 0.84035 0.99148 0.0
C1167 C 0.60344 0.84019 0.0421 0.0
C1168 C 0.58858 0.82128 0.06149 0.0
C1169 C 0.56815 0.81193 0.04514 0.0
C1170 C 0.56271 0.82112 0.00969 0.0
C1171 C 0.59449 0.80883 0.09105 0.0
C1172 C 0.59458 0.79204 0.06942 0.0
C1173 C 0.59625 0.81075 0.14025 0.0
C1174 C 0.59856 0.82901 0.166 0.0
C1175 C 0.58568 0.82635 0.20441 0.0
C1176 C 0.58974 0.84308 0.23323 0.0
C1177 C 0.6065 0.86265 0.22367 0.0
C1178 C 0.61929 0.86549 0.18544 0.0
C1179 C 0.61551 0.84873 0.15708 0.0
H1180 H 0.60957 0.87561 0.24585 0.0
H1181 H 0.60128 0.72086 0.98879 0.0
H1182 H 0.821 0.55146 0.41472 0.0
H1183 H 0.80509 0.5611 0.35248 0.0
H1184 H 0.85581 0.62375 0.35827 0.0
H1185 H 0.8729 0.61345 0.41699 0.0
H1186 H 0.79958 0.59857 0.37881 0.0
H1187 H 0.85923 0.63113 0.28011 0.0
H1188 H 0.88892 0.63728 0.23148 0.0
H1189 H 0.84967 0.58381 0.14899 0.0
H1190 H 0.81996 0.5767 0.19893 0.0
H1191 H 0.74264 0.60906 0.16578 0.0
H1192 H 0.76957 0.62055 0.2259 0.0
H1193 H 0.7614 0.55929 0.23152 0.0
H1194 H 0.73627 0.54854 0.1679 0.0
H1195 H 0.80363 0.59971 0.20605 0.0
H1196 H 0.76124 0.57302 0.38593 0.0
H1197 H 0.73644 0.57673 0.43592 0.0
H1198 H 0.74448 0.62817 0.35323 0.0
H1199 H 0.77032 0.62563 0.30487 0.0
C1200 C 0.82936 0.56694 0.40051 0.0
C1201 C 0.84871 0.58138 0.41848 0.0
C1202 C 0.8202 0.57252 0.36528 0.0
C1203 C 0.82971 0.59295 0.34894 0.0
C1204 C 0.84878 0.60766 0.368 0.0
C1205 C 0.85834 0.60184 0.40217 0.0
C1206 C 0.81733 0.59897 0.31939 0.0
C1207 C 0.8005 0.59901 0.34093 0.0
C1208 C 0.81916 0.60053 0.27019 0.0
C1209 C 0.83749 0.60293 0.2446 0.0
C1210 C 0.85709 0.62013 0.2531 0.0
C1211 C 0.87389 0.62396 0.22481 0.0
C1212 C 0.87121 0.61095 0.18716 0.0
C1213 C 0.85175 0.5939 0.17814 0.0
C1214 C 0.83498 0.58984 0.20679 0.0
C1215 C 0.74627 0.59797 0.18087 0.0
C1216 C 0.73663 0.57759 0.16405 0.0
C1217 C 0.76137 0.60445 0.21585 0.0
C1218 C 0.76664 0.59047 0.2353 0.0
C1219 C 0.75692 0.5701 0.21847 0.0
C1220 C 0.74244 0.56388 0.18243 0.0
C1221 C 0.78505 0.59752 0.26541 0.0
C1222 C 0.80288 0.59965 0.24394 0.0
C1223 C 0.78432 0.5984 0.3147 0.0
C1224 C 0.76717 0.59861 0.34037 0.0
C1225 C 0.75761 0.58503 0.37814 0.0
C1226 C 0.74362 0.58715 0.40679 0.0
C1227 C 0.7388 0.60262 0.39763 0.0
C1228 C 0.74806 0.61606 0.36 0.0
C1229 C 0.76236 0.61424 0.33184 0.0
H1230 H 0.72789 0.60418 0.41965 0.0
H1231 H 0.88419 0.61405 0.16504 0.0
H1232 H 0.19236 0.73108 0.34539 0.0
H1233 H 0.20716 0.7556 0.41012 0.0
H1234 H 0.15514 0.76551 0.406 0.0
H1235 H 0.13932 0.73934 0.34438 0.0
H1236 H 0.20952 0.79861 0.38531 0.0
H1237 H 0.15089 0.76504 0.48603 0.0
H1238 H 0.1229 0.73925 0.53534 0.0
H1239 H 0.16688 0.7308 0.61464 0.0
H1240 H 0.19502 0.75571 0.56395 0.0
H1241 H 0.26339 0.86893 0.59499 0.0
H1242 H 0.23637 0.85067 0.53609 0.0
H1243 H 0.25115 0.80187 0.53258 0.0
H1244 H 0.27644 0.81896 0.59489 0.0
H1245 H 0.20744 0.79437 0.55808 0.0
H1246 H 0.24945 0.81539 0.37874 0.0
H1247 H 0.27132 0.84501 0.32779 0.0
H1248 H 0.25543 0.88357 0.40813 0.0
H1249 H 0.23261 0.85393 0.45775 0.0
C1250 C 0.18352 0.73753 0.36036 0.0
C1251 C 0.16422 0.7325 0.34185 0.0
C1252 C 0.192 0.75162 0.3971 0.0
C1253 C 0.18177 0.76166 0.41458 0.0
C1254 C 0.1627 0.75707 0.39524 0.0
C1255 C 0.15388 0.74241 0.35946 0.0
C1256 C 0.19351 0.77991 0.44485 0.0
C1257 C 0.20901 0.79781 0.42321 0.0
C1258 C 0.19218 0.77906 0.49416 0.0
C1259 C 0.17502 0.76181 0.52002 0.0
C1260 C 0.15452 0.75706 0.51256 0.0
C1261 C 0.13863 0.74277 0.54122 0.0
C1262 C 0.14309 0.7334 0.57816 0.0
C1263 C 0.16343 0.73808 0.58608 0.0
C1264 C 0.17932 0.75212 0.55703 0.0
C1265 C 0.26115 0.85455 0.58061 0.0
C1266 C 0.27269 0.8458 0.59762 0.0
C1267 C 0.24599 0.84433 0.54633 0.0
C1268 C 0.24252 0.82546 0.52791 0.0
C1269 C 0.25415 0.81682 0.54491 0.0
C1270 C 0.26872 0.82665 0.58019 0.0
C1271 C 0.22431 0.81238 0.49845 0.0
C1272 C 0.20776 0.79531 0.5202 0.0
C1273 C 0.22437 0.8142 0.44926 0.0
C1274 C 0.23999 0.83261 0.42341 0.0
C1275 C 0.25084 0.83026 0.38593 0.0
C1276 C 0.26313 0.84697 0.3567 0.0
C1277 C 0.26485 0.8662 0.36483 0.0
C1278 C 0.25426 0.86872 0.40216 0.0
C1279 C 0.24171 0.85197 0.43102 0.0
H1280 H 0.27439 0.87913 0.34226 0.0
H1281 H 0.1308 0.72248 0.60056 0.0
H1282 H 0.40118 0.26847 0.74282 0.0
H1283 H 0.39245 0.24227 0.68141 0.0
H1284 H 0.44859 0.24141 0.71132 0.0
H1285 H 0.45745 0.26777 0.77176 0.0
H1286 H 0.41676 0.24445 0.60052 0.0
H1287 H 0.43349 0.18911 0.71347 0.0
H1288 H 0.42936 0.17753 0.79531 0.0
H1289 H 0.38104 0.19202 0.81426 0.0
H1290 H 0.38465 0.20335 0.73222 0.0
H1291 H 0.45483 0.19193 0.47162 0.0
H1292 H 0.44767 0.21146 0.52989 0.0
H1293 H 0.38885 0.1574 0.55999 0.0
H1294 H 0.39614 0.13777 0.50129 0.0
H1295 H 0.41033 0.17687 0.63995 0.0
H1296 H 0.38808 0.19446 0.50254 0.0
H1297 H 0.38941 0.20497 0.42038 0.0
H1298 H 0.44302 0.26361 0.45001 0.0
H1299 H 0.44221 0.25332 0.53211 0.0
C1300 C 0.41165 0.26274 0.73571 0.0
C1301 C 0.43023 0.27041 0.76054 0.0
C1302 C 0.40668 0.24785 0.70092 0.0
C1303 C 0.41987 0.23996 0.69215 0.0
C1304 C 0.4382 0.24731 0.71784 0.0
C1305 C 0.44333 0.26242 0.7519 0.0
C1306 C 0.41485 0.22412 0.65592 0.0
C1307 C 0.4153 0.22966 0.60899 0.0
C1308 C 0.412 0.20448 0.66737 0.0
C1309 C 0.40952 0.1973 0.71663 0.0
C1310 C 0.42192 0.18974 0.73491 0.0
C1311 C 0.41967 0.18322 0.78142 0.0
C1312 C 0.405 0.18411 0.81004 0.0
C1313 C 0.39247 0.19143 0.79213 0.0
C1314 C 0.39465 0.19793 0.74562 0.0
C1315 C 0.44047 0.18423 0.49103 0.0
C1316 C 0.42628 0.1633 0.48347 0.0
C1317 C 0.43628 0.1954 0.52381 0.0
C1318 C 0.41769 0.18586 0.54902 0.0
C1319 C 0.40329 0.16498 0.54089 0.0
C1320 C 0.40743 0.15383 0.50761 0.0
C1321 C 0.41383 0.19787 0.58453 0.0
C1322 C 0.41165 0.19159 0.63137 0.0
C1323 C 0.41467 0.21667 0.57295 0.0
C1324 C 0.41514 0.22307 0.52358 0.0
C1325 C 0.40024 0.20955 0.4915 0.0
C1326 C 0.40088 0.21547 0.4449 0.0
C1327 C 0.4163 0.23494 0.42996 0.0
C1328 C 0.43108 0.24854 0.46162 0.0
C1329 C 0.43051 0.24268 0.50824 0.0
H1330 H 0.41679 0.23949 0.39386 0.0
H1331 H 0.4033 0.17908 0.84605 0.0
H1332 H 0.06788 0.43776 0.95699 0.0
H1333 H 0.03303 0.41623 0.92604 0.0
H1334 H 0.04184 0.36346 0.92611 0.0
H1335 H 0.0769 0.38512 0.95823 0.0
H1336 H 0.02744 0.37115 0.83837 0.0
H1337 H 0.00867 0.36183 0.99942 0.0
H1338 H 0.00865 0.37257 0.08087 0.0
H1339 H 0.98286 0.40978 0.03652 0.0
H1340 H 0.98301 0.39952 0.95468 0.0
H1341 H 0.91991 0.31138 0.76291 0.0
H1342 H 0.95416 0.32379 0.79812 0.0
H1343 H 0.95603 0.38025 0.83897 0.0
H1344 H 0.92193 0.36778 0.80505 0.0
H1345 H 0.9641 0.36416 0.91133 0.0
H1346 H 0.9872 0.37773 0.75076 0.0
H1347 H 0.98821 0.36868 0.6683 0.0
H1348 H 0.00637 0.32494 0.71048 0.0
H1349 H 0.00522 0.33356 0.79328 0.0
C1350 C 0.06216 0.42144 0.95165 0.0
C1351 C 0.07491 0.41301 0.96065 0.0
C1352 C 0.0423 0.40916 0.93376 0.0
C1353 C 0.03481 0.38823 0.92374 0.0
C1354 C 0.04731 0.37958 0.9337 0.0
C1355 C 0.06718 0.39185 0.95254 0.0
C1356 C 0.01432 0.37603 0.90072 0.0
C1357 C 0.01345 0.36915 0.85463 0.0
C1358 C 0.99619 0.37383 0.92158 0.0
C1359 C 0.99597 0.37998 0.97083 0.0
C1360 C 0.00314 0.37243 0.00697 0.0
C1361 C 0.00308 0.37841 0.05323 0.0
C1362 C 0.99579 0.39188 0.06386 0.0
C1363 C 0.98851 0.39935 0.02824 0.0
C1364 C 0.98854 0.39343 0.98191 0.0
C1365 C 0.92795 0.32667 0.77823 0.0
C1366 C 0.91827 0.33862 0.78121 0.0
C1367 C 0.94747 0.33372 0.7986 0.0
C1368 C 0.95768 0.35293 0.82166 0.0
C1369 C 0.94844 0.36529 0.82199 0.0
C1370 C 0.92899 0.35821 0.80223 0.0
C1371 C 0.97726 0.35989 0.84821 0.0
C1372 C 0.97796 0.36578 0.89515 0.0
C1373 C 0.99521 0.36131 0.82792 0.0
C1374 C 0.99586 0.35609 0.77822 0.0
C1375 C 0.99122 0.36604 0.74247 0.0
C1376 C 0.99186 0.36102 0.69567 0.0
C1377 C 0.99728 0.34618 0.68417 0.0
C1378 C 0.00213 0.33639 0.71944 0.0
C1379 C 1.0015 0.34134 0.76631 0.0
H1380 H 0.99777 0.34232 0.64791 0.0
H1381 H 0.99576 0.39649 0.0997 0.0
H1382 H 0.61522 0.92083 0.93873 0.0
H1383 H 0.63598 0.95621 0.96951 0.0
H1384 H 0.5804 0.95918 0.99035 0.0
H1385 H 0.55976 0.92394 0.96068 0.0
H1386 H 0.61328 0.996 0.95423 0.0
H1387 H 0.59883 0.94824 0.083 0.0
H1388 H 0.59885 0.91902 0.12267 0.0
H1389 H 0.66475 0.94864 0.10737 0.0
H1390 H 0.66507 0.97822 0.06801 0.0
H1391 H 0.62956 0.06964 0.11943 0.0
H1392 H 0.61723 0.03588 0.08351 0.0
H1393 H 0.67861 0.04434 0.09153 0.0
H1394 H 0.69094 0.0782 0.12903 0.0
H1395 H 0.64865 0.0036 0.10595 0.0
H1396 H 0.66267 0.05508 0.98996 0.0
H1397 H 0.66107 0.0842 0.95396 0.0
H1398 H 0.59508 0.0473 0.94448 0.0
H1399 H 0.59622 0.01793 0.98062 0.0
C1400 C 0.60758 0.92933 0.9486 0.0
C1401 C 0.58594 0.9198 0.94691 0.0
C1402 C 0.61939 0.94941 0.96664 0.0
C1403 C 0.60971 0.96028 0.98255 0.0
C1404 C 0.58821 0.95114 0.97825 0.0
C1405 C 0.57643 0.93104 0.96114 0.0
C1406 C 0.62153 0.98064 0.00628 0.0
C1407 C 0.62104 0.99768 0.98735 0.0
C1408 C 0.63203 0.98299 0.04902 0.0
C1409 C 0.63195 0.96526 0.07218 0.0
C1410 C 0.61329 0.94843 0.08783 0.0
C1411 C 0.61325 0.93183 0.11034 0.0
C1412 C 0.63178 0.93186 0.11722 0.0
C1413 C 0.6504 0.9486 0.1019 0.0
C1414 C 0.65054 0.96533 0.07966 0.0
C1415 C 0.6403 0.06404 0.1148 0.0
C1416 C 0.66117 0.07646 0.12712 0.0
C1417 C 0.6333 0.04483 0.0938 0.0
C1418 C 0.64711 0.03781 0.08351 0.0
C1419 C 0.66771 0.04952 0.09877 0.0
C1420 C 0.67471 0.06876 0.12051 0.0
C1421 C 0.64003 0.01891 0.05438 0.0
C1422 C 0.64137 0.00214 0.07228 0.0
C1423 C 0.63028 0.0168 0.01056 0.0
C1424 C 0.62953 0.03434 0.98823 0.0
C1425 C 0.6478 0.0532 0.9804 0.0
C1426 C 0.64698 0.06976 0.95998 0.0
C1427 C 0.628 0.06765 0.94714 0.0
C1428 C 0.60978 0.04892 0.95447 0.0
C1429 C 0.6105 0.03229 0.97479 0.0
H1430 H 0.62741 0.08051 0.9314 0.0
H1431 H 0.63171 0.91897 0.13462 0.0
H1432 H 0.69202 0.61165 0.11186 0.0
H1433 H 0.6763 0.63123 0.14359 0.0
H1434 H 0.61845 0.5745 0.16083 0.0
H1435 H 0.63419 0.55497 0.13043 0.0
H1436 H 0.61463 0.60835 0.12453 0.0
H1437 H 0.64578 0.59146 0.25347 0.0
H1438 H 0.67426 0.5909 0.29544 0.0
H1439 H 0.70995 0.65713 0.28949 0.0
H1440 H 0.68151 0.65803 0.24766 0.0
H1441 H 0.55584 0.6278 0.28145 0.0
H1442 H 0.576 0.61346 0.24785 0.0
H1443 H 0.63183 0.67205 0.26672 0.0
H1444 H 0.61161 0.68623 0.30228 0.0
H1445 H 0.63974 0.64138 0.2795 0.0
H1446 H 0.6061 0.65839 0.15979 0.0
H1447 H 0.57689 0.65844 0.11992 0.0
H1448 H 0.5461 0.59248 0.10636 0.0
H1449 H 0.57507 0.59197 0.14638 0.0
C1450 C 0.6758 0.6035 0.12116 0.0
C1451 C 0.66422 0.58185 0.11821 0.0
C1452 C 0.6669 0.61464 0.13973 0.0
C1453 C 0.64623 0.60429 0.15485 0.0
C1454 C 0.63439 0.5828 0.14935 0.0
C1455 C 0.64337 0.57167 0.1318 0.0
C1456 C 0.63708 0.61548 0.17885 0.0
C1457 C 0.62006 0.61553 0.15845 0.0
C1458 C 0.64445 0.62526 0.22261 0.0
C1459 C 0.66167 0.62479 0.247 0.0
C1460 C 0.65978 0.60588 0.26075 0.0
C1461 C 0.6759 0.60551 0.28463 0.0
C1462 C 0.694 0.62397 0.29487 0.0
C1463 C 0.69595 0.64284 0.28143 0.0
C1464 C 0.67982 0.6433 0.25777 0.0
C1465 C 0.57249 0.63744 0.27969 0.0
C1466 C 0.58219 0.65809 0.2946 0.0
C1467 C 0.58399 0.62932 0.25991 0.0
C1468 C 0.60539 0.64185 0.25323 0.0
C1469 C 0.61533 0.66211 0.27105 0.0
C1470 C 0.60381 0.67017 0.29172 0.0
C1471 C 0.61697 0.63399 0.22558 0.0
C1472 C 0.63445 0.63455 0.24523 0.0
C1473 C 0.61008 0.62486 0.18087 0.0
C1474 C 0.59271 0.62513 0.15636 0.0
C1475 C 0.59306 0.64388 0.14852 0.0
C1476 C 0.57655 0.644 0.12589 0.0
C1477 C 0.55962 0.62549 0.1108 0.0
C1478 C 0.55922 0.60681 0.11811 0.0
C1479 C 0.5757 0.6066 0.14065 0.0
H1480 H 0.54685 0.62563 0.09334 0.0
H1481 H 0.70646 0.62367 0.31341 0.0
H1482 H 0.08572 0.69209 0.28809 0.0
H1483 H 0.05048 0.67802 0.31922 0.0
H1484 H 0.04591 0.61861 0.33709 0.0
H1485 H 0.08114 0.63271 0.30737 0.0
H1486 H 0.00927 0.61743 0.29876 0.0
H1487 H 0.05703 0.64522 0.42952 0.0
H1488 H 0.08695 0.67253 0.47176 0.0
H1489 H 0.06006 0.71156 0.46618 0.0
H1490 H 0.02985 0.68432 0.42401 0.0
H1491 H 0.93013 0.55994 0.45332 0.0
H1492 H 0.96504 0.5795 0.42155 0.0
H1493 H 0.96393 0.63618 0.44052 0.0
H1494 H 0.929 0.6165 0.47407 0.0
H1495 H 0.00254 0.64242 0.45496 0.0
H1496 H 0.95195 0.6121 0.33422 0.0
H1497 H 0.92187 0.58422 0.29339 0.0
H1498 H 0.95394 0.55039 0.27756 0.0
H1499 H 0.9842 0.578 0.31857 0.0
C1500 C 0.07693 0.6759 0.29747 0.0
C1501 C 0.08601 0.6634 0.29491 0.0
C1502 C 0.05692 0.66794 0.31565 0.0
C1503 C 0.04564 0.64729 0.33069 0.0
C1504 C 0.05432 0.63455 0.32564 0.0
C1505 C 0.0744 0.6426 0.30853 0.0
C1506 C 0.02527 0.63906 0.35414 0.0
C1507 C 0.00778 0.62285 0.33292 0.0
C1508 C 0.02324 0.64646 0.39821 0.0
C1509 C 0.04135 0.66288 0.4232 0.0
C1510 C 0.05759 0.6597 0.43698 0.0
C1511 C 0.07458 0.67515 0.461 0.0
C1512 C 0.0755 0.69386 0.47139 0.0
C1513 C 0.05936 0.69709 0.458 0.0
C1514 C 0.04227 0.68162 0.43417 0.0
C1515 C 0.9376 0.57664 0.45209 0.0
C1516 C 0.92695 0.58673 0.4663 0.0
C1517 C 0.95746 0.5878 0.43341 0.0
C1518 C 0.9669 0.60927 0.42723 0.0
C1519 C 0.9569 0.61961 0.44455 0.0
C1520 C 0.93704 0.6084 0.46405 0.0
C1521 C 0.98649 0.62042 0.4 0.0
C1522 C 0.00386 0.6372 0.42043 0.0
C1523 C 0.98838 0.61362 0.35493 0.0
C1524 C 0.9703 0.59707 0.32973 0.0
C1525 C 0.95255 0.59867 0.32225 0.0
C1526 C 0.93547 0.58291 0.29908 0.0
C1527 C 0.93595 0.56551 0.28307 0.0
C1528 C 0.95358 0.56387 0.29001 0.0
C1529 C 0.97072 0.57959 0.31312 0.0
H1530 H 0.92269 0.55332 0.26519 0.0
H1531 H 0.08867 0.70581 0.49 0.0
H1532 H 0.38832 0.07979 0.44673 0.0
H1533 H 0.36833 0.04497 0.48089 0.0
H1534 H 0.42475 0.04381 0.50382 0.0
H1535 H 0.44465 0.0786 0.47099 0.0
H1536 H 0.39116 0.00578 0.46909 0.0
H1537 H 0.40709 0.0566 0.59115 0.0
H1538 H 0.40696 0.08657 0.62657 0.0
H1539 H 0.34066 0.05429 0.62207 0.0
H1540 H 0.34044 0.02413 0.58626 0.0
H1541 H 0.37322 0.93163 0.63452 0.0
H1542 H 0.38685 0.96576 0.59934 0.0
H1543 H 0.3267 0.96019 0.60951 0.0
H1544 H 0.31314 0.92605 0.64634 0.0
H1545 H 0.35739 1.00029 0.62204 0.0
H1546 H 0.34121 0.94775 0.5077 0.0
H1547 H 0.3415 0.91795 0.47158 0.0
H1548 H 0.40751 0.95318 0.45943 0.0
H1549 H 0.40768 0.98321 0.49561 0.0
C1550 C 0.39631 0.0718 0.45788 0.0
C1551 C 0.41797 0.08172 0.45585 0.0
C1552 C 0.38495 0.05204 0.47778 0.0
C1553 C 0.39509 0.04186 0.49515 0.0
C1554 C 0.41661 0.05135 0.49059 0.0
C1555 C 0.42795 0.07118 0.47172 0.0
C1556 C 0.38369 0.02192 0.52068 0.0
C1557 C 0.38381 0.00457 0.50255 0.0
C1558 C 0.37368 0.02022 0.56383 0.0
C1559 C 0.37376 0.03824 0.58554 0.0
C1560 C 0.39249 0.05597 0.59735 0.0
C1561 C 0.39248 0.07298 0.61757 0.0
C1562 C 0.37381 0.07239 0.62635 0.0
C1563 C 0.35511 0.05474 0.61513 0.0
C1564 C 0.35504 0.03768 0.59494 0.0
C1565 C 0.36309 0.93801 0.63076 0.0
C1566 C 0.34219 0.92631 0.64341 0.0
C1567 C 0.37081 0.95741 0.61012 0.0
C1568 C 0.35767 0.96532 0.60046 0.0
C1569 C 0.33711 0.95435 0.61628 0.0
C1570 C 0.3294 0.93495 0.63769 0.0
C1571 C 0.36522 0.98418 0.5709 0.0
C1572 C 0.3644 1.00133 0.58822 0.0
C1573 C 0.3745 0.98568 0.52672 0.0
C1574 C 0.37446 0.96769 0.50465 0.0
C1575 C 0.3558 0.94912 0.49756 0.0
C1576 C 0.35588 0.93218 0.47708 0.0
C1577 C 0.3745 0.93363 0.46345 0.0
C1578 C 0.39309 0.95207 0.47006 0.0
C1579 C 0.39311 0.96907 0.49043 0.0
H1580 H 0.37451 0.92049 0.44764 0.0
H1581 H 0.37383 0.08557 0.64201 0.0
H1582 H 0.36509 0.42967 0.58243 0.0
H1583 H 0.37976 0.40986 0.617 0.0
H1584 H 0.3197 0.36539 0.67039 0.0
H1585 H 0.30503 0.38532 0.63549 0.0
H1586 H 0.34902 0.37908 0.7385 0.0
H1587 H 0.34159 0.3512 0.58569 0.0
H1588 H 0.34444 0.3517 0.4998 0.0
H1589 H 0.41055 0.38711 0.51003 0.0
H1590 H 0.4081 0.38709 0.596 0.0
H1591 H 0.39434 0.31857 0.82451 0.0
H1592 H 0.372 0.33041 0.7895 0.0
H1593 H 0.4247 0.37925 0.7184 0.0
H1594 H 0.44683 0.36751 0.75265 0.0
H1595 H 0.39408 0.35768 0.65822 0.0
H1596 H 0.40112 0.38879 0.81021 0.0
H1597 H 0.39837 0.38875 0.89611 0.0
H1598 H 0.33296 0.3472 0.88713 0.0
H1599 H 0.33537 0.34678 0.80114 0.0
C1600 C 0.35492 0.41522 0.59997 0.0
C1601 C 0.33387 0.40863 0.6052 0.0
C1602 C 0.3633 0.40397 0.62 0.0
C1603 C 0.35083 0.38603 0.64615 0.0
C1604 C 0.32961 0.3791 0.65022 0.0
C1605 C 0.32119 0.3903 0.62977 0.0
C1606 C 0.36039 0.37558 0.6719 0.0
C1607 C 0.35853 0.37399 0.72084 0.0
C1608 C 0.37307 0.36923 0.64908 0.0
C1609 C 0.37464 0.36926 0.59734 0.0
C1610 C 0.35673 0.35924 0.56963 0.0
C1611 C 0.35828 0.35941 0.52092 0.0
C1612 C 0.37766 0.36946 0.49947 0.0
C1613 C 0.39554 0.37933 0.5267 0.0
C1614 C 0.39408 0.37922 0.57543 0.0
C1615 C 0.4012 0.33215 0.80242 0.0
C1616 C 0.42234 0.34204 0.79123 0.0
C1617 C 0.38841 0.33885 0.78219 0.0
C1618 C 0.39663 0.35562 0.75084 0.0
C1619 C 0.41792 0.36613 0.74192 0.0
C1620 C 0.43059 0.35945 0.76181 0.0
C1621 C 0.38323 0.36177 0.72492 0.0
C1622 C 0.38434 0.3625 0.67585 0.0
C1623 C 0.36991 0.36733 0.74766 0.0
C1624 C 0.36846 0.36755 0.7993 0.0
C1625 C 0.38618 0.37949 0.82658 0.0
C1626 C 0.38468 0.37958 0.87527 0.0
C1627 C 0.36552 0.36792 0.89707 0.0
C1628 C 0.3478 0.35619 0.8702 0.0
C1629 C 0.34922 0.35602 0.82149 0.0
H1630 H 0.36439 0.36802 0.93478 0.0
H1631 H 0.37882 0.36958 0.46175 0.0
loop_
_geom_bond_atom_site_label_1
_geom_bond_atom_site_label_2
_geom_bond_distance
_geom_bond_site_symmetry_2
_ccdc_geom_bond_type
Mn0 O5 2.095 . S
Mn0 O15 2.162 . S
Mn0 O16 2.297 . S
Mn0 O24 2.385 1_554 S
Mn0 O25 2.209 1_554 S
Mn0 O26 2.094 . S
Mn1 O6 2.121 1_556 S
Mn1 N8 2.257 . S
Mn1 N17 2.282 . S
Mn1 O25 2.215 . S
Mn1 O27 2.117 . S
C2 O24 1.234 . S
C2 O25 1.283 . S
C3 O15 1.281 . S
C3 O16 1.236 . S
C4 O26 1.240 1_556 S
C4 O27 1.264 . S
O5 Mn0 2.095 . S
O5 C14 1.250 . S
O6 Mn1 2.121 1_554 S
O6 C14 1.258 . S
C7 N8 1.326 . S
C7 C11 1.460 . S
C7 H13 0.929 . S
N8 Mn1 2.257 . S
N8 C7 1.326 . S
N8 C12 1.362 . S
C9 C10 1.258 . S
C9 C12 1.431 . S
C9 C29 1.449 . S
C10 C9 1.258 . S
C10 C11 1.477 . S
C10 H30 0.931 . S
C11 C7 1.460 . S
C11 C10 1.477 . S
C11 H31 0.930 . S
C12 N8 1.362 . S
C12 C9 1.431 . S
C12 C22 1.476 . S
H13 C7 0.929 . S
C14 O5 1.250 . S
C14 O6 1.258 . S
O15 Mn0 2.162 . S
O15 C3 1.281 . S
O16 Mn0 2.297 . S
O16 C3 1.236 . S
N17 Mn1 2.282 . S
N17 C18 1.328 . S
N17 C22 1.318 . S
C18 N17 1.328 . S
C18 C19 1.457 . S
C18 H23 0.929 . S
C19 C18 1.457 . S
C19 C20 1.291 . S
C19 H32 0.931 . S
C20 C19 1.291 . S
C20 C21 1.373 . S
C20 H33 0.929 . S
C21 C20 1.373 . S
C21 C22 1.396 . S
C21 C28 1.403 . S
C22 C12 1.476 . S
C22 N17 1.318 . S
C22 C21 1.396 . S
H23 C18 0.929 . S
O24 Mn0 2.385 1_556 S
O24 C2 1.234 . S
O25 Mn0 2.209 1_556 S
O25 Mn1 2.215 . S
O25 C2 1.283 . S
O26 Mn0 2.094 . S
O26 C4 1.240 1_554 S
O27 Mn1 2.117 . S
O27 C4 1.264 . S
C28 C21 1.403 . S
C28 C29 1.399 . S
C28 H34 0.929 . S
C29 C9 1.449 . S
C29 C28 1.399 . S
C29 H35 0.930 . S
H30 C10 0.931 . S
H31 C11 0.930 . S
H32 C19 0.931 . S
H33 C20 0.929 . S
H34 C28 0.929 . S
H35 C29 0.930 . S
Mn36 O41 2.095 . S
Mn36 O51 2.162 . S
Mn36 O52 2.297 . S
Mn36 O60 2.385 . S
Mn36 O61 2.209 . S
Mn36 O62 2.094 . S
Mn37 O42 2.121 . S
Mn37 N44 2.257 . S
Mn37 N53 2.282 . S
Mn37 O61 2.215 . S
Mn37 O63 2.117 . S
C38 O60 1.234 . S
C38 O61 1.283 . S
C39 O51 1.281 . S
C39 O52 1.236 . S
C40 O62 1.240 . S
C40 O63 1.264 . S
O41 Mn36 2.095 . S
O41 C50 1.250 . S
O42 Mn37 2.121 . S
O42 C50 1.258 . S
C43 N44 1.326 . S
C43 C47 1.460 . S
C43 H49 0.929 . S
N44 Mn37 2.257 . S
N44 C43 1.326 . S
N44 C48 1.362 . S
C45 C46 1.258 1_556 S
C45 C48 1.431 1_556 S
C45 C65 1.449 . S
C46 C45 1.258 1_554 S
C46 C47 1.477 . S
C46 H66 0.931 1_554 S
C47 C43 1.460 . S
C47 C46 1.477 . S
C47 H67 0.930 . S
C48 N44 1.362 . S
C48 C45 1.431 1_554 S
C48 C58 1.476 . S
H49 C43 0.929 . S
C50 O41 1.250 . S
C50 O42 1.258 . S
O51 Mn36 2.162 . S
O51 C39 1.281 . S
O52 Mn36 2.297 . S
O52 C39 1.236 . S
N53 Mn37 2.282 . S
N53 C54 1.328 . S
N53 C58 1.318 . S
C54 N53 1.328 . S
C54 C55 1.457 1_554 S
C54 H59 0.929 . S
C55 C54 1.457 1_556 S
C55 C56 1.291 . S
C55 H68 0.931 . S
C56 C55 1.291 . S
C56 C57 1.373 . S
C56 H69 0.929 . S
C57 C56 1.373 . S
C57 C58 1.396 1_556 S
C57 C64 1.403 . S
C58 C48 1.476 . S
C58 N53 1.318 . S
C58 C57 1.396 1_554 S
H59 C54 0.929 . S
O60 Mn36 2.385 . S
O60 C38 1.234 . S
O61 Mn36 2.209 . S
O61 Mn37 2.215 . S
O61 C38 1.283 . S
O62 Mn36 2.094 . S
O62 C40 1.240 . S
O63 Mn37 2.117 . S
O63 C40 1.264 . S
C64 C57 1.403 . S
C64 C65 1.399 . S
C64 H70 0.929 . S
C65 C45 1.449 . S
C65 C64 1.399 . S
C65 H71 0.930 . S
H66 C46 0.931 1_556 S
H67 C47 0.930 . S
H68 C55 0.931 . S
H69 C56 0.929 . S
H70 C64 0.929 . S
H71 C65 0.930 . S
Mn72 O77 2.095 . S
Mn72 O87 2.162 . S
Mn72 O88 2.297 . S
Mn72 O96 2.385 . S
Mn72 O97 2.209 . S
Mn72 O98 2.094 . S
Mn73 O78 2.121 . S
Mn73 N80 2.257 . S
Mn73 N89 2.282 . S
Mn73 O97 2.215 . S
Mn73 O99 2.117 . S
C74 O96 1.234 . S
C74 O97 1.283 . S
C75 O87 1.281 . S
C75 O88 1.236 . S
C76 O98 1.240 . S
C76 O99 1.264 . S
O77 Mn72 2.095 . S
O77 C86 1.250 . S
O78 Mn73 2.121 . S
O78 C86 1.258 . S
C79 N80 1.326 . S
C79 C83 1.460 . S
C79 H85 0.929 . S
N80 Mn73 2.257 . S
N80 C79 1.326 . S
N80 C84 1.362 . S
C81 C82 1.258 . S
C81 C84 1.431 . S
C81 C101 1.449 . S
C82 C81 1.258 . S
C82 C83 1.477 . S
C82 H102 0.931 . S
C83 C79 1.460 . S
C83 C82 1.477 . S
C83 H103 0.930 . S
C84 N80 1.362 . S
C84 C81 1.431 . S
C84 C94 1.476 . S
H85 C79 0.929 . S
C86 O77 1.250 . S
C86 O78 1.258 . S
O87 Mn72 2.162 . S
O87 C75 1.281 . S
O88 Mn72 2.297 . S
O88 C75 1.236 . S
N89 Mn73 2.282 . S
N89 C90 1.328 . S
N89 C94 1.318 . S
C90 N89 1.328 . S
C90 C91 1.457 . S
C90 H95 0.929 . S
C91 C90 1.457 . S
C91 C92 1.291 . S
C91 H104 0.931 . S
C92 C91 1.291 . S
C92 C93 1.373 . S
C92 H105 0.929 . S
C93 C92 1.373 . S
C93 C94 1.396 . S
C93 C100 1.403 . S
C94 C84 1.476 . S
C94 N89 1.318 . S
C94 C93 1.396 . S
H95 C90 0.929 . S
O96 Mn72 2.385 . S
O96 C74 1.234 . S
O97 Mn72 2.209 . S
O97 Mn73 2.215 . S
O97 C74 1.283 . S
O98 Mn72 2.094 . S
O98 C76 1.240 . S
O99 Mn73 2.117 . S
O99 C76 1.264 . S
C100 C93 1.403 . S
C100 C101 1.399 . S
C100 H106 0.929 . S
C101 C81 1.449 . S
C101 C100 1.399 . S
C101 H107 0.930 . S
H102 C82 0.931 . S
H103 C83 0.930 . S
H104 C91 0.931 . S
H105 C92 0.929 . S
H106 C100 0.929 . S
H107 C101 0.930 . S
Mn108 O113 2.095 . S
Mn108 O123 2.162 . S
Mn108 O124 2.297 . S
Mn108 O132 2.385 . S
Mn108 O133 2.209 . S
Mn108 O134 2.094 . S
Mn109 O114 2.121 . S
Mn109 N116 2.257 . S
Mn109 N125 2.282 . S
Mn109 O133 2.215 . S
Mn109 O135 2.117 . S
C110 O132 1.234 . S
C110 O133 1.283 . S
C111 O123 1.281 . S
C111 O124 1.236 . S
C112 O134 1.240 . S
C112 O135 1.264 . S
O113 Mn108 2.095 . S
O113 C122 1.250 . S
O114 Mn109 2.121 . S
O114 C122 1.258 . S
C115 N116 1.326 . S
C115 C119 1.460 . S
C115 H121 0.929 . S
N116 Mn109 2.257 . S
N116 C115 1.326 . S
N116 C120 1.362 . S
C117 C118 1.258 . S
C117 C120 1.431 . S
C117 C137 1.449 . S
C118 C117 1.258 . S
C118 C119 1.477 . S
C118 H138 0.931 . S
C119 C115 1.460 . S
C119 C118 1.477 . S
C119 H139 0.930 . S
C120 N116 1.362 . S
C120 C117 1.431 . S
C120 C130 1.476 . S
H121 C115 0.929 . S
C122 O113 1.250 . S
C122 O114 1.258 . S
O123 Mn108 2.162 . S
O123 C111 1.281 . S
O124 Mn108 2.297 . S
O124 C111 1.236 . S
N125 Mn109 2.282 . S
N125 C126 1.328 . S
N125 C130 1.318 . S
C126 N125 1.328 . S
C126 C127 1.457 . S
C126 H131 0.929 . S
C127 C126 1.457 . S
C127 C128 1.291 . S
C127 H140 0.931 . S
C128 C127 1.291 . S
C128 C129 1.373 . S
C128 H141 0.929 . S
C129 C128 1.373 . S
C129 C130 1.396 . S
C129 C136 1.403 . S
C130 C120 1.476 . S
C130 N125 1.318 . S
C130 C129 1.396 . S
H131 C126 0.929 . S
O132 Mn108 2.385 . S
O132 C110 1.234 . S
O133 Mn108 2.209 . S
O133 Mn109 2.215 . S
O133 C110 1.283 . S
O134 Mn108 2.094 . S
O134 C112 1.240 . S
O135 Mn109 2.117 . S
O135 C112 1.264 . S
C136 C129 1.403 . S
C136 C137 1.399 . S
C136 H142 0.929 . S
C137 C117 1.449 . S
C137 C136 1.399 . S
C137 H143 0.930 . S
H138 C118 0.931 . S
H139 C119 0.930 . S
H140 C127 0.931 . S
H141 C128 0.929 . S
H142 C136 0.929 . S
H143 C137 0.930 . S
Mn144 O149 2.095 . S
Mn144 O159 2.162 . S
Mn144 O160 2.297 . S
Mn144 O168 2.385 . S
Mn144 O169 2.209 . S
Mn144 O170 2.094 . S
Mn145 O150 2.121 . S
Mn145 N152 2.257 . S
Mn145 N161 2.282 . S
Mn145 O169 2.215 . S
Mn145 O171 2.117 . S
C146 O168 1.234 . S
C146 O169 1.283 . S
C147 O159 1.281 . S
C147 O160 1.236 . S
C148 O170 1.240 . S
C148 O171 1.264 . S
O149 Mn144 2.095 . S
O149 C158 1.250 . S
O150 Mn145 2.121 . S
O150 C158 1.258 . S
C151 N152 1.326 . S
C151 C155 1.460 . S
C151 H157 0.929 . S
N152 Mn145 2.257 . S
N152 C151 1.326 . S
N152 C156 1.362 . S
C153 C154 1.258 . S
C153 C156 1.431 . S
C153 C173 1.449 . S
C154 C153 1.258 . S
C154 C155 1.477 . S
C154 H174 0.931 . S
C155 C151 1.460 . S
C155 C154 1.477 . S
C155 H175 0.930 . S
C156 N152 1.362 . S
C156 C153 1.431 . S
C156 C166 1.476 . S
H157 C151 0.929 . S
C158 O149 1.250 . S
C158 O150 1.258 . S
O159 Mn144 2.162 . S
O159 C147 1.281 . S
O160 Mn144 2.297 . S
O160 C147 1.236 . S
N161 Mn145 2.282 . S
N161 C162 1.328 . S
N161 C166 1.318 . S
C162 N161 1.328 . S
C162 C163 1.457 . S
C162 H167 0.929 . S
C163 C162 1.457 . S
C163 C164 1.291 . S
C163 H176 0.931 . S
C164 C163 1.291 . S
C164 C165 1.373 . S
C164 H177 0.929 . S
C165 C164 1.373 . S
C165 C166 1.396 . S
C165 C172 1.403 . S
C166 C156 1.476 . S
C166 N161 1.318 . S
C166 C165 1.396 . S
H167 C162 0.929 . S
O168 Mn144 2.385 . S
O168 C146 1.234 . S
O169 Mn144 2.209 . S
O169 Mn145 2.215 . S
O169 C146 1.283 . S
O170 Mn144 2.094 . S
O170 C148 1.240 . S
O171 Mn145 2.117 . S
O171 C148 1.264 . S
C172 C165 1.403 . S
C172 C173 1.399 . S
C172 H178 0.929 . S
C173 C153 1.449 . S
C173 C172 1.399 . S
C173 H179 0.930 . S
H174 C154 0.931 . S
H175 C155 0.930 . S
H176 C163 0.931 . S
H177 C164 0.929 . S
H178 C172 0.929 . S
H179 C173 0.930 . S
Mn180 O185 2.095 . S
Mn180 O195 2.162 . S
Mn180 O196 2.297 . S
Mn180 O204 2.385 . S
Mn180 O205 2.209 . S
Mn180 O206 2.094 . S
Mn181 O186 2.121 . S
Mn181 N188 2.257 . S
Mn181 N197 2.282 . S
Mn181 O205 2.215 . S
Mn181 O207 2.117 . S
C182 O204 1.234 . S
C182 O205 1.283 . S
C183 O195 1.281 . S
C183 O196 1.236 . S
C184 O206 1.240 . S
C184 O207 1.264 . S
O185 Mn180 2.095 . S
O185 C194 1.250 . S
O186 Mn181 2.121 . S
O186 C194 1.258 . S
C187 N188 1.326 . S
C187 C191 1.460 . S
C187 H193 0.929 . S
N188 Mn181 2.257 . S
N188 C187 1.326 . S
N188 C192 1.362 . S
C189 C190 1.258 . S
C189 C192 1.431 . S
C189 C209 1.449 . S
C190 C189 1.258 . S
C190 C191 1.477 . S
C190 H210 0.931 . S
C191 C187 1.460 . S
C191 C190 1.477 . S
C191 H211 0.930 . S
C192 N188 1.362 . S
C192 C189 1.431 . S
C192 C202 1.476 . S
H193 C187 0.929 . S
C194 O185 1.250 . S
C194 O186 1.258 . S
O195 Mn180 2.162 . S
O195 C183 1.281 . S
O196 Mn180 2.297 . S
O196 C183 1.236 . S
N197 Mn181 2.282 . S
N197 C198 1.328 . S
N197 C202 1.318 . S
C198 N197 1.328 . S
C198 C199 1.457 . S
C198 H203 0.929 . S
C199 C198 1.457 . S
C199 C200 1.291 . S
C199 H212 0.931 . S
C200 C199 1.291 . S
C200 C201 1.373 . S
C200 H213 0.929 . S
C201 C200 1.373 . S
C201 C202 1.396 . S
C201 C208 1.403 . S
C202 C192 1.476 . S
C202 N197 1.318 . S
C202 C201 1.396 . S
H203 C198 0.929 . S
O204 Mn180 2.385 . S
O204 C182 1.234 . S
O205 Mn180 2.209 . S
O205 Mn181 2.215 . S
O205 C182 1.283 . S
O206 Mn180 2.094 . S
O206 C184 1.240 . S
O207 Mn181 2.117 . S
O207 C184 1.264 . S
C208 C201 1.403 . S
C208 C209 1.399 . S
C208 H214 0.929 . S
C209 C189 1.449 . S
C209 C208 1.399 . S
C209 H215 0.930 . S
H210 C190 0.931 . S
H211 C191 0.930 . S
H212 C199 0.931 . S
H213 C200 0.929 . S
H214 C208 0.929 . S
H215 C209 0.930 . S
Mn216 O221 2.095 . S
Mn216 O231 2.162 . S
Mn216 O232 2.297 . S
Mn216 O240 2.385 . S
Mn216 O241 2.209 . S
Mn216 O242 2.094 . S
Mn217 O222 2.121 . S
Mn217 N224 2.257 1_556 S
Mn217 N233 2.282 1_556 S
Mn217 O241 2.215 . S
Mn217 O243 2.117 . S
C218 O240 1.234 . S
C218 O241 1.283 . S
C219 O231 1.281 . S
C219 O232 1.236 . S
C220 O242 1.240 . S
C220 O243 1.264 . S
O221 Mn216 2.095 . S
O221 C230 1.250 . S
O222 Mn217 2.121 . S
O222 C230 1.258 . S
C223 N224 1.326 1_556 S
C223 C227 1.460 1_556 S
C223 H229 0.929 . S
N224 Mn217 2.257 1_554 S
N224 C223 1.326 1_554 S
N224 C228 1.362 . S
C225 C226 1.258 . S
C225 C228 1.431 . S
C225 C245 1.449 . S
C226 C225 1.258 . S
C226 C227 1.477 . S
C226 H246 0.931 . S
C227 C223 1.460 1_554 S
C227 C226 1.477 . S
C227 H247 0.930 . S
C228 N224 1.362 . S
C228 C225 1.431 . S
C228 C238 1.476 . S
H229 C223 0.929 . S
C230 O221 1.250 . S
C230 O222 1.258 . S
O231 Mn216 2.162 . S
O231 C219 1.281 . S
O232 Mn216 2.297 . S
O232 C219 1.236 . S
N233 Mn217 2.282 1_554 S
N233 C234 1.328 . S
N233 C238 1.318 . S
C234 N233 1.328 . S
C234 C235 1.457 . S
C234 H239 0.929 . S
C235 C234 1.457 . S
C235 C236 1.291 . S
C235 H248 0.931 . S
C236 C235 1.291 . S
C236 C237 1.373 . S
C236 H249 0.929 . S
C237 C236 1.373 . S
C237 C238 1.396 . S
C237 C244 1.403 . S
C238 C228 1.476 . S
C238 N233 1.318 . S
C238 C237 1.396 . S
H239 C234 0.929 . S
O240 Mn216 2.385 . S
O240 C218 1.234 . S
O241 Mn216 2.209 . S
O241 Mn217 2.215 . S
O241 C218 1.283 . S
O242 Mn216 2.094 . S
O242 C220 1.240 . S
O243 Mn217 2.117 . S
O243 C220 1.264 . S
C244 C237 1.403 . S
C244 C245 1.399 . S
C244 H250 0.929 . S
C245 C225 1.449 . S
C245 C244 1.399 . S
C245 H251 0.930 . S
H246 C226 0.931 . S
H247 C227 0.930 . S
H248 C235 0.931 . S
H249 C236 0.929 . S
H250 C244 0.929 . S
H251 C245 0.930 . S
Mn252 O257 2.095 . S
Mn252 O267 2.162 1_554 S
Mn252 O268 2.297 1_554 S
Mn252 O276 2.385 . S
Mn252 O277 2.209 . S
Mn252 O278 2.094 . S
Mn253 O258 2.121 . S
Mn253 N260 2.257 . S
Mn253 N269 2.282 . S
Mn253 O277 2.215 . S
Mn253 O279 2.117 . S
C254 O276 1.234 . S
C254 O277 1.283 . S
C255 O267 1.281 . S
C255 O268 1.236 . S
C256 O278 1.240 . S
C256 O279 1.264 . S
O257 Mn252 2.095 . S
O257 C266 1.250 . S
O258 Mn253 2.121 . S
O258 C266 1.258 . S
C259 N260 1.326 . S
C259 C263 1.460 . S
C259 H265 0.929 . S
N260 Mn253 2.257 . S
N260 C259 1.326 . S
N260 C264 1.362 . S
C261 C262 1.258 . S
C261 C264 1.431 . S
C261 C281 1.449 . S
C262 C261 1.258 . S
C262 C263 1.477 . S
C262 H282 0.931 . S
C263 C259 1.460 . S
C263 C262 1.477 . S
C263 H283 0.930 . S
C264 N260 1.362 . S
C264 C261 1.431 . S
C264 C274 1.476 . S
H265 C259 0.929 . S
C266 O257 1.250 . S
C266 O258 1.258 . S
O267 Mn252 2.162 1_556 S
O267 C255 1.281 . S
O268 Mn252 2.297 1_556 S
O268 C255 1.236 . S
N269 Mn253 2.282 . S
N269 C270 1.328 . S
N269 C274 1.318 . S
C270 N269 1.328 . S
C270 C271 1.457 . S
C270 H275 0.929 . S
C271 C270 1.457 . S
C271 C272 1.291 . S
C271 H284 0.931 . S
C272 C271 1.291 . S
C272 C273 1.373 . S
C272 H285 0.929 . S
C273 C272 1.373 . S
C273 C274 1.396 . S
C273 C280 1.403 . S
C274 C264 1.476 . S
C274 N269 1.318 . S
C274 C273 1.396 . S
H275 C270 0.929 . S
O276 Mn252 2.385 . S
O276 C254 1.234 . S
O277 Mn252 2.209 . S
O277 Mn253 2.215 . S
O277 C254 1.283 . S
O278 Mn252 2.094 . S
O278 C256 1.240 . S
O279 Mn253 2.117 . S
O279 C256 1.264 . S
C280 C273 1.403 . S
C280 C281 1.399 . S
C280 H286 0.929 . S
C281 C261 1.449 . S
C281 C280 1.399 . S
C281 H287 0.930 . S
H282 C262 0.931 . S
H283 C263 0.930 . S
H284 C271 0.931 . S
H285 C272 0.929 . S
H286 C280 0.929 . S
H287 C281 0.930 . S
Mn288 O293 2.095 . S
Mn288 O303 2.162 . S
Mn288 O304 2.297 . S
Mn288 O312 2.385 . S
Mn288 O313 2.209 . S
Mn288 O314 2.094 . S
Mn289 O294 2.121 . S
Mn289 N296 2.257 . S
Mn289 N305 2.282 . S
Mn289 O313 2.215 . S
Mn289 O315 2.117 . S
C290 O312 1.234 . S
C290 O313 1.283 . S
C291 O303 1.281 . S
C291 O304 1.236 . S
C292 O314 1.240 . S
C292 O315 1.264 . S
O293 Mn288 2.095 . S
O293 C302 1.250 . S
O294 Mn289 2.121 . S
O294 C302 1.258 . S
C295 N296 1.326 . S
C295 C299 1.460 . S
C295 H301 0.929 . S
N296 Mn289 2.257 . S
N296 C295 1.326 . S
N296 C300 1.362 . S
C297 C298 1.258 . S
C297 C300 1.431 . S
C297 C317 1.449 . S
C298 C297 1.258 . S
C298 C299 1.477 . S
C298 H318 0.931 . S
C299 C295 1.460 . S
C299 C298 1.477 . S
C299 H319 0.930 . S
C300 N296 1.362 . S
C300 C297 1.431 . S
C300 C310 1.476 . S
H301 C295 0.929 . S
C302 O293 1.250 . S
C302 O294 1.258 . S
O303 Mn288 2.162 . S
O303 C291 1.281 . S
O304 Mn288 2.297 . S
O304 C291 1.236 . S
N305 Mn289 2.282 . S
N305 C306 1.328 . S
N305 C310 1.318 . S
C306 N305 1.328 . S
C306 C307 1.457 . S
C306 H311 0.929 . S
C307 C306 1.457 . S
C307 C308 1.291 . S
C307 H320 0.931 . S
C308 C307 1.291 . S
C308 C309 1.373 . S
C308 H321 0.929 . S
C309 C308 1.373 . S
C309 C310 1.396 . S
C309 C316 1.403 . S
C310 C300 1.476 . S
C310 N305 1.318 . S
C310 C309 1.396 . S
H311 C306 0.929 . S
O312 Mn288 2.385 . S
O312 C290 1.234 . S
O313 Mn288 2.209 . S
O313 Mn289 2.215 . S
O313 C290 1.283 . S
O314 Mn288 2.094 . S
O314 C292 1.240 . S
O315 Mn289 2.117 . S
O315 C292 1.264 . S
C316 C309 1.403 . S
C316 C317 1.399 . S
C316 H322 0.929 . S
C317 C297 1.449 . S
C317 C316 1.399 . S
C317 H323 0.930 . S
H318 C298 0.931 . S
H319 C299 0.930 . S
H320 C307 0.931 . S
H321 C308 0.929 . S
H322 C316 0.929 . S
H323 C317 0.930 . S
Mn324 O329 2.095 . S
Mn324 O339 2.162 . S
Mn324 O340 2.297 . S
Mn324 O348 2.385 . S
Mn324 O349 2.209 . S
Mn324 O350 2.094 . S
Mn325 O330 2.121 . S
Mn325 N332 2.257 . S
Mn325 N341 2.282 . S
Mn325 O349 2.215 . S
Mn325 O351 2.117 . S
C326 O348 1.234 . S
C326 O349 1.283 . S
C327 O339 1.281 . S
C327 O340 1.236 . S
C328 O350 1.240 . S
C328 O351 1.264 . S
O329 Mn324 2.095 . S
O329 C338 1.250 . S
O330 Mn325 2.121 . S
O330 C338 1.258 . S
C331 N332 1.326 . S
C331 C335 1.460 . S
C331 H337 0.929 . S
N332 Mn325 2.257 . S
N332 C331 1.326 . S
N332 C336 1.362 . S
C333 C334 1.258 . S
C333 C336 1.431 . S
C333 C353 1.449 . S
C334 C333 1.258 . S
C334 C335 1.477 . S
C334 H354 0.931 . S
C335 C331 1.460 . S
C335 C334 1.477 . S
C335 H355 0.930 . S
C336 N332 1.362 . S
C336 C333 1.431 . S
C336 C346 1.476 . S
H337 C331 0.929 . S
C338 O329 1.250 . S
C338 O330 1.258 . S
O339 Mn324 2.162 . S
O339 C327 1.281 . S
O340 Mn324 2.297 . S
O340 C327 1.236 . S
N341 Mn325 2.282 . S
N341 C342 1.328 . S
N341 C346 1.318 . S
C342 N341 1.328 . S
C342 C343 1.457 . S
C342 H347 0.929 . S
C343 C342 1.457 . S
C343 C344 1.291 . S
C343 H356 0.931 . S
C344 C343 1.291 . S
C344 C345 1.373 . S
C344 H357 0.929 . S
C345 C344 1.373 . S
C345 C346 1.396 . S
C345 C352 1.403 . S
C346 C336 1.476 . S
C346 N341 1.318 . S
C346 C345 1.396 . S
H347 C342 0.929 . S
O348 Mn324 2.385 . S
O348 C326 1.234 . S
O349 Mn324 2.209 . S
O349 Mn325 2.215 . S
O349 C326 1.283 . S
O350 Mn324 2.094 . S
O350 C328 1.240 . S
O351 Mn325 2.117 . S
O351 C328 1.264 . S
C352 C345 1.403 . S
C352 C353 1.399 . S
C352 H358 0.929 . S
C353 C333 1.449 . S
C353 C352 1.399 . S
C353 H359 0.930 . S
H354 C334 0.931 . S
H355 C335 0.930 . S
H356 C343 0.931 . S
H357 C344 0.929 . S
H358 C352 0.929 . S
H359 C353 0.930 . S
Mn360 O365 2.095 . S
Mn360 O375 2.162 . S
Mn360 O376 2.297 . S
Mn360 O384 2.385 . S
Mn360 O385 2.209 . S
Mn360 O386 2.094 . S
Mn361 O366 2.121 . S
Mn361 N368 2.257 . S
Mn361 N377 2.282 . S
Mn361 O385 2.215 . S
Mn361 O387 2.117 . S
C362 O384 1.234 . S
C362 O385 1.283 . S
C363 O375 1.281 . S
C363 O376 1.236 . S
C364 O386 1.240 . S
C364 O387 1.264 . S
O365 Mn360 2.095 . S
O365 C374 1.250 . S
O366 Mn361 2.121 . S
O366 C374 1.258 . S
C367 N368 1.326 . S
C367 C371 1.460 . S
C367 H373 0.929 . S
N368 Mn361 2.257 . S
N368 C367 1.326 . S
N368 C372 1.362 . S
C369 C370 1.258 . S
C369 C372 1.431 . S
C369 C389 1.449 . S
C370 C369 1.258 . S
C370 C371 1.477 . S
C370 H390 0.931 . S
C371 C367 1.460 . S
C371 C370 1.477 . S
C371 H391 0.930 . S
C372 N368 1.362 . S
C372 C369 1.431 . S
C372 C382 1.476 . S
H373 C367 0.929 . S
C374 O365 1.250 . S
C374 O366 1.258 . S
O375 Mn360 2.162 . S
O375 C363 1.281 . S
O376 Mn360 2.297 . S
O376 C363 1.236 . S
N377 Mn361 2.282 . S
N377 C378 1.328 . S
N377 C382 1.318 . S
C378 N377 1.328 . S
C378 C379 1.457 . S
C378 H383 0.929 . S
C379 C378 1.457 . S
C379 C380 1.291 . S
C379 H392 0.931 . S
C380 C379 1.291 . S
C380 C381 1.373 . S
C380 H393 0.929 . S
C381 C380 1.373 . S
C381 C382 1.396 . S
C381 C388 1.403 . S
C382 C372 1.476 . S
C382 N377 1.318 . S
C382 C381 1.396 . S
H383 C378 0.929 . S
O384 Mn360 2.385 . S
O384 C362 1.234 . S
O385 Mn360 2.209 . S
O385 Mn361 2.215 . S
O385 C362 1.283 . S
O386 Mn360 2.094 . S
O386 C364 1.240 . S
O387 Mn361 2.117 . S
O387 C364 1.264 . S
C388 C381 1.403 . S
C388 C389 1.399 . S
C388 H394 0.929 . S
C389 C369 1.449 . S
C389 C388 1.399 . S
C389 H395 0.930 . S
H390 C370 0.931 . S
H391 C371 0.930 . S
H392 C379 0.931 . S
H393 C380 0.929 . S
H394 C388 0.929 . S
H395 C389 0.930 . S
Mn396 O401 2.095 . S
Mn396 O411 2.162 . S
Mn396 O412 2.297 . S
Mn396 O420 2.385 . S
Mn396 O421 2.209 . S
Mn396 O422 2.094 . S
Mn397 O402 2.121 . S
Mn397 N404 2.257 . S
Mn397 N413 2.282 . S
Mn397 O421 2.215 . S
Mn397 O423 2.117 . S
C398 O420 1.234 . S
C398 O421 1.283 . S
C399 O411 1.281 . S
C399 O412 1.236 . S
C400 O422 1.240 . S
C400 O423 1.264 . S
O401 Mn396 2.095 . S
O401 C410 1.250 . S
O402 Mn397 2.121 . S
O402 C410 1.258 . S
C403 N404 1.326 . S
C403 C407 1.460 . S
C403 H409 0.929 . S
N404 Mn397 2.257 . S
N404 C403 1.326 . S
N404 C408 1.362 . S
C405 C406 1.258 . S
C405 C408 1.431 . S
C405 C425 1.449 . S
C406 C405 1.258 . S
C406 C407 1.477 . S
C406 H426 0.931 . S
C407 C403 1.460 . S
C407 C406 1.477 . S
C407 H427 0.930 . S
C408 N404 1.362 . S
C408 C405 1.431 . S
C408 C418 1.476 . S
H409 C403 0.929 . S
C410 O401 1.250 . S
C410 O402 1.258 . S
O411 Mn396 2.162 . S
O411 C399 1.281 . S
O412 Mn396 2.297 . S
O412 C399 1.236 . S
N413 Mn397 2.282 . S
N413 C414 1.328 . S
N413 C418 1.318 . S
C414 N413 1.328 . S
C414 C415 1.457 . S
C414 H419 0.929 . S
C415 C414 1.457 . S
C415 C416 1.291 . S
C415 H428 0.931 . S
C416 C415 1.291 . S
C416 C417 1.373 . S
C416 H429 0.929 . S
C417 C416 1.373 . S
C417 C418 1.396 . S
C417 C424 1.403 . S
C418 C408 1.476 . S
C418 N413 1.318 . S
C418 C417 1.396 . S
H419 C414 0.929 . S
O420 Mn396 2.385 . S
O420 C398 1.234 . S
O421 Mn396 2.209 . S
O421 Mn397 2.215 . S
O421 C398 1.283 . S
O422 Mn396 2.094 . S
O422 C400 1.240 . S
O423 Mn397 2.117 . S
O423 C400 1.264 . S
C424 C417 1.403 . S
C424 C425 1.399 . S
C424 H430 0.929 . S
C425 C405 1.449 . S
C425 C424 1.399 . S
C425 H431 0.930 . S
H426 C406 0.931 . S
H427 C407 0.930 . S
H428 C415 0.931 . S
H429 C416 0.929 . S
H430 C424 0.929 . S
H431 C425 0.930 . S
H432 C450 0.951 . S
H433 C452 0.951 . S
H434 C454 0.950 . S
H435 C455 0.950 . S
H436 C457 0.950 . S
H437 C460 0.950 . S
H438 C461 0.950 . S
H439 C463 0.950 . S
H440 C464 0.950 . S
H441 C465 0.951 . S
H442 C467 0.951 . S
H443 C469 0.950 . S
H444 C470 0.950 . S
H445 C472 0.950 . S
H446 C475 0.950 . S
H447 C476 0.950 . S
H448 C478 0.950 . S
H449 C479 0.950 . S
C450 H432 0.951 . S
C450 C451 1.366 . S
C450 C452 1.388 . S
C451 C450 1.366 . S
C451 C455 1.385 . S
C452 H433 0.951 . S
C452 C450 1.388 . S
C452 C453 1.366 . S
C453 C452 1.366 . S
C453 C454 1.414 . S
C453 C456 1.499 . S
C454 H434 0.950 . S
C454 C453 1.414 . S
C454 C455 1.374 . S
C455 H435 0.950 . S
C455 C451 1.385 . S
C455 C454 1.374 . S
C456 C453 1.499 . S
C456 C457 1.373 . S
C456 C458 1.389 . S
C457 H436 0.950 . S
C457 C456 1.373 . S
C457 C473 1.377 . S
C458 C456 1.389 . S
C458 C459 1.524 . S
C458 C472 1.377 . S
C459 C458 1.524 . S
C459 C460 1.397 . S
C459 C464 1.363 . S
C460 H437 0.950 . S
C460 C459 1.397 . S
C460 C461 1.334 . S
C461 H438 0.950 . S
C461 C460 1.334 . S
C461 C462 1.287 . S
C462 C461 1.287 . S
C462 C463 1.524 . S
C462 H481 0.913 . S
C463 H439 0.950 . S
C463 C462 1.524 . S
C463 C464 1.415 . S
C464 H440 0.950 . S
C464 C459 1.363 . S
C464 C463 1.415 . S
C465 H441 0.951 . S
C465 C466 1.366 . S
C465 C467 1.388 . S
C466 C465 1.366 . S
C466 C470 1.385 . S
C467 H442 0.951 . S
C467 C465 1.388 . S
C467 C468 1.366 . S
C468 C467 1.366 . S
C468 C469 1.414 . S
C468 C471 1.499 . S
C469 H443 0.950 . S
C469 C468 1.414 . S
C469 C470 1.374 . S
C470 H444 0.950 . S
C470 C466 1.385 . S
C470 C469 1.374 . S
C471 C468 1.499 . S
C471 C472 1.373 . S
C471 C473 1.389 . S
C472 H445 0.950 . S
C472 C458 1.377 . S
C472 C471 1.373 . S
C473 C457 1.377 . S
C473 C471 1.389 . S
C473 C474 1.524 . S
C474 C473 1.524 . S
C474 C475 1.397 . S
C474 C479 1.363 . S
C475 H446 0.950 . S
C475 C474 1.397 . S
C475 C476 1.334 . S
C476 H447 0.950 . S
C476 C475 1.334 . S
C476 C477 1.287 . S
C477 C476 1.287 . S
C477 C478 1.524 . S
C477 H480 0.999 . S
C478 H448 0.950 . S
C478 C477 1.524 . S
C478 C479 1.415 . S
C479 H449 0.950 . S
C479 C474 1.363 . S
C479 C478 1.415 . S
H480 C477 0.999 . S
H481 C462 0.913 . S
H482 C500 0.951 . S
H483 C502 0.951 . S
H484 C504 0.950 . S
H485 C505 0.950 . S
H486 C507 0.950 . S
H487 C510 0.950 . S
H488 C511 0.950 . S
H489 C513 0.950 . S
H490 C514 0.950 . S
H491 C515 0.951 . S
H492 C517 0.951 . S
H493 C519 0.950 . S
H494 C520 0.950 . S
H495 C522 0.950 . S
H496 C525 0.950 . S
H497 C526 0.950 . S
H498 C528 0.950 . S
H499 C529 0.950 . S
C500 H482 0.951 . S
C500 C501 1.366 . S
C500 C502 1.388 . S
C501 C500 1.366 . S
C501 C505 1.385 . S
C502 H483 0.951 . S
C502 C500 1.388 . S
C502 C503 1.366 . S
C503 C502 1.366 . S
C503 C504 1.414 . S
C503 C506 1.499 . S
C504 H484 0.950 . S
C504 C503 1.414 . S
C504 C505 1.374 . S
C505 H485 0.950 . S
C505 C501 1.385 . S
C505 C504 1.374 . S
C506 C503 1.499 . S
C506 C507 1.373 . S
C506 C508 1.389 . S
C507 H486 0.950 . S
C507 C506 1.373 . S
C507 C523 1.377 . S
C508 C506 1.389 . S
C508 C509 1.524 . S
C508 C522 1.377 . S
C509 C508 1.524 . S
C509 C510 1.397 . S
C509 C514 1.363 . S
C510 H487 0.950 . S
C510 C509 1.397 . S
C510 C511 1.334 . S
C511 H488 0.950 . S
C511 C510 1.334 . S
C511 C512 1.287 . S
C512 C511 1.287 . S
C512 C513 1.524 . S
C512 H531 0.913 . S
C513 H489 0.950 . S
C513 C512 1.524 . S
C513 C514 1.415 . S
C514 H490 0.950 . S
C514 C509 1.363 . S
C514 C513 1.415 . S
C515 H491 0.951 . S
C515 C516 1.366 . S
C515 C517 1.388 . S
C516 C515 1.366 . S
C516 C520 1.385 . S
C517 H492 0.951 . S
C517 C515 1.388 . S
C517 C518 1.366 . S
C518 C517 1.366 . S
C518 C519 1.414 . S
C518 C521 1.499 . S
C519 H493 0.950 . S
C519 C518 1.414 . S
C519 C520 1.374 . S
C520 H494 0.950 . S
C520 C516 1.385 . S
C520 C519 1.374 . S
C521 C518 1.499 . S
C521 C522 1.373 . S
C521 C523 1.389 . S
C522 H495 0.950 . S
C522 C508 1.377 . S
C522 C521 1.373 . S
C523 C507 1.377 . S
C523 C521 1.389 . S
C523 C524 1.524 . S
C524 C523 1.524 . S
C524 C525 1.397 . S
C524 C529 1.363 . S
C525 H496 0.950 . S
C525 C524 1.397 . S
C525 C526 1.334 . S
C526 H497 0.950 . S
C526 C525 1.334 . S
C526 C527 1.287 . S
C527 C526 1.287 . S
C527 C528 1.524 . S
C527 H530 0.999 . S
C528 H498 0.950 . S
C528 C527 1.524 . S
C528 C529 1.415 . S
C529 H499 0.950 . S
C529 C524 1.363 . S
C529 C528 1.415 . S
H530 C527 0.999 . S
H531 C512 0.913 . S
H532 C550 0.951 . S
H533 C552 0.951 . S
H534 C554 0.950 . S
H535 C555 0.950 . S
H536 C557 0.950 . S
H537 C560 0.950 . S
H538 C561 0.950 . S
H539 C563 0.950 . S
H540 C564 0.950 . S
H541 C565 0.951 . S
H542 C567 0.951 . S
H543 C569 0.950 . S
H544 C570 0.950 . S
H545 C572 0.950 . S
H546 C575 0.950 . S
H547 C576 0.950 . S
H548 C578 0.950 . S
H549 C579 0.950 . S
C550 H532 0.951 . S
C550 C551 1.366 . S
C550 C552 1.388 . S
C551 C550 1.366 . S
C551 C555 1.385 . S
C552 H533 0.951 . S
C552 C550 1.388 . S
C552 C553 1.366 . S
C553 C552 1.366 . S
C553 C554 1.414 . S
C553 C556 1.499 . S
C554 H534 0.950 . S
C554 C553 1.414 . S
C554 C555 1.374 . S
C555 H535 0.950 . S
C555 C551 1.385 . S
C555 C554 1.374 . S
C556 C553 1.499 . S
C556 C557 1.373 . S
C556 C558 1.389 . S
C557 H536 0.950 . S
C557 C556 1.373 . S
C557 C573 1.377 . S
C558 C556 1.389 . S
C558 C559 1.524 . S
C558 C572 1.377 . S
C559 C558 1.524 . S
C559 C560 1.397 . S
C559 C564 1.363 . S
C560 H537 0.950 . S
C560 C559 1.397 . S
C560 C561 1.334 . S
C561 H538 0.950 . S
C561 C560 1.334 . S
C561 C562 1.287 . S
C562 C561 1.287 . S
C562 C563 1.524 . S
C562 H581 0.913 . S
C563 H539 0.950 . S
C563 C562 1.524 . S
C563 C564 1.415 . S
C564 H540 0.950 . S
C564 C559 1.363 . S
C564 C563 1.415 . S
C565 H541 0.951 . S
C565 C566 1.366 . S
C565 C567 1.388 . S
C566 C565 1.366 . S
C566 C570 1.385 . S
C567 H542 0.951 . S
C567 C565 1.388 . S
C567 C568 1.366 . S
C568 C567 1.366 . S
C568 C569 1.414 . S
C568 C571 1.499 . S
C569 H543 0.950 . S
C569 C568 1.414 . S
C569 C570 1.374 . S
C570 H544 0.950 . S
C570 C566 1.385 . S
C570 C569 1.374 . S
C571 C568 1.499 . S
C571 C572 1.373 . S
C571 C573 1.389 . S
C572 H545 0.950 . S
C572 C558 1.377 . S
C572 C571 1.373 . S
C573 C557 1.377 . S
C573 C571 1.389 . S
C573 C574 1.524 . S
C574 C573 1.524 . S
C574 C575 1.397 . S
C574 C579 1.363 . S
C575 H546 0.950 . S
C575 C574 1.397 . S
C575 C576 1.334 . S
C576 H547 0.950 . S
C576 C575 1.334 . S
C576 C577 1.287 . S
C577 C576 1.287 . S
C577 C578 1.524 . S
C577 H580 0.999 . S
C578 H548 0.950 . S
C578 C577 1.524 . S
C578 C579 1.415 . S
C579 H549 0.950 . S
C579 C574 1.363 . S
C579 C578 1.415 . S
H580 C577 0.999 . S
H581 C562 0.913 . S
H582 C600 0.951 . S
H583 C602 0.951 . S
H584 C604 0.950 . S
H585 C605 0.950 . S
H586 C607 0.950 . S
H587 C610 0.950 . S
H588 C611 0.950 . S
H589 C613 0.950 . S
H590 C614 0.950 . S
H591 C615 0.951 . S
H592 C617 0.951 . S
H593 C619 0.950 . S
H594 C620 0.950 . S
H595 C622 0.950 . S
H596 C625 0.950 . S
H597 C626 0.950 . S
H598 C628 0.950 . S
H599 C629 0.950 . S
C600 H582 0.951 . S
C600 C601 1.366 . S
C600 C602 1.388 . S
C601 C600 1.366 . S
C601 C605 1.385 . S
C602 H583 0.951 . S
C602 C600 1.388 . S
C602 C603 1.366 . S
C603 C602 1.366 . S
C603 C604 1.414 . S
C603 C606 1.499 . S
C604 H584 0.950 . S
C604 C603 1.414 . S
C604 C605 1.374 . S
C605 H585 0.950 . S
C605 C601 1.385 . S
C605 C604 1.374 . S
C606 C603 1.499 . S
C606 C607 1.373 . S
C606 C608 1.389 . S
C607 H586 0.950 . S
C607 C606 1.373 . S
C607 C623 1.377 . S
C608 C606 1.389 . S
C608 C609 1.524 . S
C608 C622 1.377 . S
C609 C608 1.524 . S
C609 C610 1.397 . S
C609 C614 1.363 . S
C610 H587 0.950 . S
C610 C609 1.397 . S
C610 C611 1.334 . S
C611 H588 0.950 . S
C611 C610 1.334 . S
C611 C612 1.287 . S
C612 C611 1.287 . S
C612 C613 1.524 . S
C612 H631 0.913 . S
C613 H589 0.950 . S
C613 C612 1.524 . S
C613 C614 1.415 . S
C614 H590 0.950 . S
C614 C609 1.363 . S
C614 C613 1.415 . S
C615 H591 0.951 . S
C615 C616 1.366 . S
C615 C617 1.388 . S
C616 C615 1.366 . S
C616 C620 1.385 . S
C617 H592 0.951 . S
C617 C615 1.388 . S
C617 C618 1.366 . S
C618 C617 1.366 . S
C618 C619 1.414 . S
C618 C621 1.499 . S
C619 H593 0.950 . S
C619 C618 1.414 . S
C619 C620 1.374 . S
C620 H594 0.950 . S
C620 C616 1.385 . S
C620 C619 1.374 . S
C621 C618 1.499 . S
C621 C622 1.373 . S
C621 C623 1.389 . S
C622 H595 0.950 . S
C622 C608 1.377 . S
C622 C621 1.373 . S
C623 C607 1.377 . S
C623 C621 1.389 . S
C623 C624 1.524 . S
C624 C623 1.524 . S
C624 C625 1.397 . S
C624 C629 1.363 . S
C625 H596 0.950 . S
C625 C624 1.397 . S
C625 C626 1.334 . S
C626 H597 0.950 . S
C626 C625 1.334 . S
C626 C627 1.287 . S
C627 C626 1.287 . S
C627 C628 1.524 . S
C627 H630 0.999 . S
C628 H598 0.950 . S
C628 C627 1.524 . S
C628 C629 1.415 . S
C629 H599 0.950 . S
C629 C624 1.363 . S
C629 C628 1.415 . S
H630 C627 0.999 . S
H631 C612 0.913 . S
H632 C650 0.951 . S
H633 C652 0.951 . S
H634 C654 0.950 . S
H635 C655 0.950 . S
H636 C657 0.950 . S
H637 C660 0.950 . S
H638 C661 0.950 . S
H639 C663 0.950 . S
H640 C664 0.950 . S
H641 C665 0.951 . S
H642 C667 0.951 . S
H643 C669 0.950 1_556 S
H644 C670 0.950 . S
H645 C672 0.950 . S
H646 C675 0.950 . S
H647 C676 0.950 . S
H648 C678 0.950 . S
H649 C679 0.950 . S
C650 H632 0.951 . S
C650 C651 1.366 . S
C650 C652 1.388 . S
C651 C650 1.366 . S
C651 C655 1.385 . S
C652 H633 0.951 . S
C652 C650 1.388 . S
C652 C653 1.366 . S
C653 C652 1.366 . S
C653 C654 1.414 . S
C653 C656 1.499 . S
C654 H634 0.950 . S
C654 C653 1.414 . S
C654 C655 1.374 . S
C655 H635 0.950 . S
C655 C651 1.385 . S
C655 C654 1.374 . S
C656 C653 1.499 . S
C656 C657 1.373 . S
C656 C658 1.389 . S
C657 H636 0.950 . S
C657 C656 1.373 . S
C657 C673 1.377 . S
C658 C656 1.389 . S
C658 C659 1.524 . S
C658 C672 1.377 . S
C659 C658 1.524 . S
C659 C660 1.397 . S
C659 C664 1.363 . S
C660 H637 0.950 . S
C660 C659 1.397 . S
C660 C661 1.334 . S
C661 H638 0.950 . S
C661 C660 1.334 . S
C661 C662 1.287 . S
C662 C661 1.287 . S
C662 C663 1.524 . S
C662 H681 0.913 . S
C663 H639 0.950 . S
C663 C662 1.524 . S
C663 C664 1.415 . S
C664 H640 0.950 . S
C664 C659 1.363 . S
C664 C663 1.415 . S
C665 H641 0.951 . S
C665 C666 1.366 . S
C665 C667 1.388 . S
C666 C665 1.366 . S
C666 C670 1.385 . S
C667 H642 0.951 . S
C667 C665 1.388 . S
C667 C668 1.366 . S
C668 C667 1.366 . S
C668 C669 1.414 . S
C668 C671 1.499 1_554 S
C669 H643 0.950 1_554 S
C669 C668 1.414 . S
C669 C670 1.374 . S
C670 H644 0.950 . S
C670 C666 1.385 . S
C670 C669 1.374 . S
C671 C668 1.499 1_556 S
C671 C672 1.373 . S
C671 C673 1.389 . S
C672 H645 0.950 . S
C672 C658 1.377 . S
C672 C671 1.373 . S
C673 C657 1.377 . S
C673 C671 1.389 . S
C673 C674 1.524 1_556 S
C674 C673 1.524 1_554 S
C674 C675 1.397 . S
C674 C679 1.363 . S
C675 H646 0.950 . S
C675 C674 1.397 . S
C675 C676 1.334 . S
C676 H647 0.950 . S
C676 C675 1.334 . S
C676 C677 1.287 . S
C677 C676 1.287 . S
C677 C678 1.524 . S
C677 H680 0.999 . S
C678 H648 0.950 . S
C678 C677 1.524 . S
C678 C679 1.415 . S
C679 H649 0.950 . S
C679 C674 1.363 . S
C679 C678 1.415 . S
H680 C677 0.999 . S
H681 C662 0.913 . S
H682 C700 0.951 . S
H683 C702 0.951 . S
H684 C704 0.950 . S
H685 C705 0.950 . S
H686 C707 0.950 . S
H687 C710 0.950 . S
H688 C711 0.950 . S
H689 C713 0.950 . S
H690 C714 0.950 . S
H691 C715 0.951 . S
H692 C717 0.951 . S
H693 C719 0.950 1_556 S
H694 C720 0.950 . S
H695 C722 0.950 . S
H696 C725 0.950 . S
H697 C726 0.950 . S
H698 C728 0.950 . S
H699 C729 0.950 . S
C700 H682 0.951 . S
C700 C701 1.366 . S
C700 C702 1.388 . S
C701 C700 1.366 . S
C701 C705 1.385 . S
C702 H683 0.951 . S
C702 C700 1.388 . S
C702 C703 1.366 . S
C703 C702 1.366 . S
C703 C704 1.414 . S
C703 C706 1.499 . S
C704 H684 0.950 . S
C704 C703 1.414 . S
C704 C705 1.374 . S
C705 H685 0.950 . S
C705 C701 1.385 . S
C705 C704 1.374 . S
C706 C703 1.499 . S
C706 C707 1.373 . S
C706 C708 1.389 . S
C707 H686 0.950 . S
C707 C706 1.373 . S
C707 C723 1.377 . S
C708 C706 1.389 . S
C708 C709 1.524 . S
C708 C722 1.377 . S
C709 C708 1.524 . S
C709 C710 1.397 . S
C709 C714 1.363 . S
C710 H687 0.950 . S
C710 C709 1.397 . S
C710 C711 1.334 . S
C711 H688 0.950 . S
C711 C710 1.334 . S
C711 C712 1.287 . S
C712 C711 1.287 . S
C712 C713 1.524 . S
C712 H731 0.913 . S
C713 H689 0.950 . S
C713 C712 1.524 . S
C713 C714 1.415 . S
C714 H690 0.950 . S
C714 C709 1.363 . S
C714 C713 1.415 . S
C715 H691 0.951 . S
C715 C716 1.366 1_554 S
C715 C717 1.388 . S
C716 C715 1.366 1_556 S
C716 C720 1.385 . S
C717 H692 0.951 . S
C717 C715 1.388 . S
C717 C718 1.366 . S
C718 C717 1.366 . S
C718 C719 1.414 . S
C718 C721 1.499 . S
C719 H693 0.950 1_554 S
C719 C718 1.414 . S
C719 C720 1.374 1_554 S
C720 H694 0.950 . S
C720 C716 1.385 . S
C720 C719 1.374 1_556 S
C721 C718 1.499 . S
C721 C722 1.373 . S
C721 C723 1.389 . S
C722 H695 0.950 . S
C722 C708 1.377 . S
C722 C721 1.373 . S
C723 C707 1.377 . S
C723 C721 1.389 . S
C723 C724 1.524 . S
C724 C723 1.524 . S
C724 C725 1.397 . S
C724 C729 1.363 . S
C725 H696 0.950 . S
C725 C724 1.397 . S
C725 C726 1.334 . S
C726 H697 0.950 . S
C726 C725 1.334 . S
C726 C727 1.287 . S
C727 C726 1.287 . S
C727 C728 1.524 . S
C727 H730 0.999 . S
C728 H698 0.950 . S
C728 C727 1.524 . S
C728 C729 1.415 . S
C729 H699 0.950 . S
C729 C724 1.363 . S
C729 C728 1.415 . S
H730 C727 0.999 . S
H731 C712 0.913 . S
H732 C750 0.951 . S
H733 C752 0.951 . S
H734 C754 0.950 . S
H735 C755 0.950 . S
H736 C757 0.950 . S
H737 C760 0.950 . S
H738 C761 0.950 . S
H739 C763 0.950 . S
H740 C764 0.950 . S
H741 C765 0.951 . S
H742 C767 0.951 . S
H743 C769 0.950 . S
H744 C770 0.950 . S
H745 C772 0.950 . S
H746 C775 0.950 . S
H747 C776 0.950 . S
H748 C778 0.950 . S
H749 C779 0.950 . S
C750 H732 0.951 . S
C750 C751 1.366 . S
C750 C752 1.388 . S
C751 C750 1.366 . S
C751 C755 1.385 . S
C752 H733 0.951 . S
C752 C750 1.388 . S
C752 C753 1.366 . S
C753 C752 1.366 . S
C753 C754 1.414 . S
C753 C756 1.499 . S
C754 H734 0.950 . S
C754 C753 1.414 . S
C754 C755 1.374 . S
C755 H735 0.950 . S
C755 C751 1.385 . S
C755 C754 1.374 . S
C756 C753 1.499 . S
C756 C757 1.373 . S
C756 C758 1.389 . S
C757 H736 0.950 . S
C757 C756 1.373 . S
C757 C773 1.377 . S
C758 C756 1.389 . S
C758 C759 1.524 . S
C758 C772 1.377 . S
C759 C758 1.524 . S
C759 C760 1.397 . S
C759 C764 1.363 . S
C760 H737 0.950 . S
C760 C759 1.397 . S
C760 C761 1.334 . S
C761 H738 0.950 . S
C761 C760 1.334 . S
C761 C762 1.287 . S
C762 C761 1.287 . S
C762 C763 1.524 1_554 S
C762 H781 0.913 . S
C763 H739 0.950 . S
C763 C762 1.524 1_556 S
C763 C764 1.415 1_556 S
C764 H740 0.950 . S
C764 C759 1.363 . S
C764 C763 1.415 1_554 S
C765 H741 0.951 . S
C765 C766 1.366 . S
C765 C767 1.388 . S
C766 C765 1.366 . S
C766 C770 1.385 . S
C767 H742 0.951 . S
C767 C765 1.388 . S
C767 C768 1.366 . S
C768 C767 1.366 . S
C768 C769 1.414 . S
C768 C771 1.499 . S
C769 H743 0.950 . S
C769 C768 1.414 . S
C769 C770 1.374 . S
C770 H744 0.950 . S
C770 C766 1.385 . S
C770 C769 1.374 . S
C771 C768 1.499 . S
C771 C772 1.373 . S
C771 C773 1.389 . S
C772 H745 0.950 . S
C772 C758 1.377 . S
C772 C771 1.373 . S
C773 C757 1.377 . S
C773 C771 1.389 . S
C773 C774 1.524 . S
C774 C773 1.524 . S
C774 C775 1.397 . S
C774 C779 1.363 . S
C775 H746 0.950 . S
C775 C774 1.397 . S
C775 C776 1.334 . S
C776 H747 0.950 . S
C776 C775 1.334 . S
C776 C777 1.287 . S
C777 C776 1.287 . S
C777 C778 1.524 . S
C777 H780 0.999 . S
C778 H748 0.950 . S
C778 C777 1.524 . S
C778 C779 1.415 . S
C779 H749 0.950 . S
C779 C774 1.363 . S
C779 C778 1.415 . S
H780 C777 0.999 . S
H781 C762 0.913 . S
H782 C800 0.951 . S
H783 C802 0.951 . S
H784 C804 0.950 . S
H785 C805 0.950 . S
H786 C807 0.950 . S
H787 C810 0.950 . S
H788 C811 0.950 . S
H789 C813 0.950 . S
H790 C814 0.950 . S
H791 C815 0.951 . S
H792 C817 0.951 . S
H793 C819 0.950 . S
H794 C820 0.950 . S
H795 C822 0.950 . S
H796 C825 0.950 . S
H797 C826 0.950 . S
H798 C828 0.950 . S
H799 C829 0.950 . S
C800 H782 0.951 . S
C800 C801 1.366 . S
C800 C802 1.388 . S
C801 C800 1.366 . S
C801 C805 1.385 . S
C802 H783 0.951 . S
C802 C800 1.388 . S
C802 C803 1.366 . S
C803 C802 1.366 . S
C803 C804 1.414 . S
C803 C806 1.499 . S
C804 H784 0.950 . S
C804 C803 1.414 . S
C804 C805 1.374 . S
C805 H785 0.950 . S
C805 C801 1.385 . S
C805 C804 1.374 . S
C806 C803 1.499 . S
C806 C807 1.373 . S
C806 C808 1.389 . S
C807 H786 0.950 . S
C807 C806 1.373 . S
C807 C823 1.377 . S
C808 C806 1.389 . S
C808 C809 1.524 . S
C808 C822 1.377 . S
C809 C808 1.524 . S
C809 C810 1.397 . S
C809 C814 1.363 . S
C810 H787 0.950 . S
C810 C809 1.397 . S
C810 C811 1.334 . S
C811 H788 0.950 . S
C811 C810 1.334 . S
C811 C812 1.287 . S
C812 C811 1.287 . S
C812 C813 1.524 . S
C812 H831 0.913 . S
C813 H789 0.950 . S
C813 C812 1.524 . S
C813 C814 1.415 . S
C814 H790 0.950 . S
C814 C809 1.363 . S
C814 C813 1.415 . S
C815 H791 0.951 . S
C815 C816 1.366 . S
C815 C817 1.388 . S
C816 C815 1.366 . S
C816 C820 1.385 . S
C817 H792 0.951 . S
C817 C815 1.388 . S
C817 C818 1.366 . S
C818 C817 1.366 . S
C818 C819 1.414 . S
C818 C821 1.499 . S
C819 H793 0.950 . S
C819 C818 1.414 . S
C819 C820 1.374 . S
C820 H794 0.950 . S
C820 C816 1.385 . S
C820 C819 1.374 . S
C821 C818 1.499 . S
C821 C822 1.373 . S
C821 C823 1.389 . S
C822 H795 0.950 . S
C822 C808 1.377 . S
C822 C821 1.373 . S
C823 C807 1.377 . S
C823 C821 1.389 . S
C823 C824 1.524 . S
C824 C823 1.524 . S
C824 C825 1.397 . S
C824 C829 1.363 . S
C825 H796 0.950 . S
C825 C824 1.397 . S
C825 C826 1.334 . S
C826 H797 0.950 . S
C826 C825 1.334 . S
C826 C827 1.287 . S
C827 C826 1.287 . S
C827 C828 1.524 . S
C827 H830 0.999 . S
C828 H798 0.950 . S
C828 C827 1.524 . S
C828 C829 1.415 . S
C829 H799 0.950 . S
C829 C824 1.363 . S
C829 C828 1.415 . S
H830 C827 0.999 . S
H831 C812 0.913 . S
H832 C850 0.951 . S
H833 C852 0.951 . S
H834 C854 0.950 . S
H835 C855 0.950 . S
H836 C857 0.950 . S
H837 C860 0.950 . S
H838 C861 0.950 . S
H839 C863 0.950 . S
H840 C864 0.950 . S
H841 C865 0.951 . S
H842 C867 0.951 . S
H843 C869 0.950 . S
H844 C870 0.950 . S
H845 C872 0.950 . S
H846 C875 0.950 . S
H847 C876 0.950 . S
H848 C878 0.950 . S
H849 C879 0.950 . S
C850 H832 0.951 . S
C850 C851 1.366 . S
C850 C852 1.388 . S
C851 C850 1.366 . S
C851 C855 1.385 . S
C852 H833 0.951 . S
C852 C850 1.388 . S
C852 C853 1.366 . S
C853 C852 1.366 . S
C853 C854 1.414 . S
C853 C856 1.499 . S
C854 H834 0.950 . S
C854 C853 1.414 . S
C854 C855 1.374 . S
C855 H835 0.950 . S
C855 C851 1.385 . S
C855 C854 1.374 . S
C856 C853 1.499 . S
C856 C857 1.373 . S
C856 C858 1.389 . S
C857 H836 0.950 . S
C857 C856 1.373 . S
C857 C873 1.377 . S
C858 C856 1.389 . S
C858 C859 1.524 . S
C858 C872 1.377 . S
C859 C858 1.524 . S
C859 C860 1.397 . S
C859 C864 1.363 . S
C860 H837 0.950 . S
C860 C859 1.397 . S
C860 C861 1.334 . S
C861 H838 0.950 . S
C861 C860 1.334 . S
C861 C862 1.287 . S
C862 C861 1.287 . S
C862 C863 1.524 . S
C862 H881 0.913 . S
C863 H839 0.950 . S
C863 C862 1.524 . S
C863 C864 1.415 . S
C864 H840 0.950 . S
C864 C859 1.363 . S
C864 C863 1.415 . S
C865 H841 0.951 . S
C865 C866 1.366 . S
C865 C867 1.388 . S
C866 C865 1.366 . S
C866 C870 1.385 . S
C867 H842 0.951 . S
C867 C865 1.388 . S
C867 C868 1.366 . S
C868 C867 1.366 . S
C868 C869 1.414 . S
C868 C871 1.499 . S
C869 H843 0.950 . S
C869 C868 1.414 . S
C869 C870 1.374 . S
C870 H844 0.950 . S
C870 C866 1.385 . S
C870 C869 1.374 . S
C871 C868 1.499 . S
C871 C872 1.373 . S
C871 C873 1.389 . S
C872 H845 0.950 . S
C872 C858 1.377 . S
C872 C871 1.373 . S
C873 C857 1.377 . S
C873 C871 1.389 . S
C873 C874 1.524 . S
C874 C873 1.524 . S
C874 C875 1.397 . S
C874 C879 1.363 . S
C875 H846 0.950 . S
C875 C874 1.397 . S
C875 C876 1.334 . S
C876 H847 0.950 . S
C876 C875 1.334 . S
C876 C877 1.287 . S
C877 C876 1.287 . S
C877 C878 1.524 . S
C877 H880 0.999 . S
C878 H848 0.950 . S
C878 C877 1.524 . S
C878 C879 1.415 . S
C879 H849 0.950 . S
C879 C874 1.363 . S
C879 C878 1.415 . S
H880 C877 0.999 . S
H881 C862 0.913 . S
H882 C900 0.951 . S
H883 C902 0.951 . S
H884 C904 0.950 . S
H885 C905 0.950 . S
H886 C907 0.950 . S
H887 C910 0.950 . S
H888 C911 0.950 . S
H889 C913 0.950 . S
H890 C914 0.950 . S
H891 C915 0.951 . S
H892 C917 0.951 . S
H893 C919 0.950 . S
H894 C920 0.950 . S
H895 C922 0.950 . S
H896 C925 0.950 . S
H897 C926 0.950 . S
H898 C928 0.950 . S
H899 C929 0.950 . S
C900 H882 0.951 . S
C900 C901 1.366 . S
C900 C902 1.388 . S
C901 C900 1.366 . S
C901 C905 1.385 . S
C902 H883 0.951 . S
C902 C900 1.388 . S
C902 C903 1.366 . S
C903 C902 1.366 . S
C903 C904 1.414 . S
C903 C906 1.499 . S
C904 H884 0.950 . S
C904 C903 1.414 . S
C904 C905 1.374 . S
C905 H885 0.950 . S
C905 C901 1.385 . S
C905 C904 1.374 . S
C906 C903 1.499 . S
C906 C907 1.373 . S
C906 C908 1.389 . S
C907 H886 0.950 . S
C907 C906 1.373 . S
C907 C923 1.377 . S
C908 C906 1.389 . S
C908 C909 1.524 . S
C908 C922 1.377 . S
C909 C908 1.524 . S
C909 C910 1.397 . S
C909 C914 1.363 . S
C910 H887 0.950 . S
C910 C909 1.397 . S
C910 C911 1.334 . S
C911 H888 0.950 . S
C911 C910 1.334 . S
C911 C912 1.287 . S
C912 C911 1.287 . S
C912 C913 1.524 . S
C912 H931 0.913 . S
C913 H889 0.950 . S
C913 C912 1.524 . S
C913 C914 1.415 . S
C914 H890 0.950 . S
C914 C909 1.363 . S
C914 C913 1.415 . S
C915 H891 0.951 . S
C915 C916 1.366 . S
C915 C917 1.388 . S
C916 C915 1.366 . S
C916 C920 1.385 . S
C917 H892 0.951 . S
C917 C915 1.388 . S
C917 C918 1.366 . S
C918 C917 1.366 . S
C918 C919 1.414 . S
C918 C921 1.499 . S
C919 H893 0.950 . S
C919 C918 1.414 . S
C919 C920 1.374 . S
C920 H894 0.950 . S
C920 C916 1.385 . S
C920 C919 1.374 . S
C921 C918 1.499 . S
C921 C922 1.373 . S
C921 C923 1.389 . S
C922 H895 0.950 . S
C922 C908 1.377 . S
C922 C921 1.373 . S
C923 C907 1.377 . S
C923 C921 1.389 . S
C923 C924 1.524 . S
C924 C923 1.524 . S
C924 C925 1.397 . S
C924 C929 1.363 . S
C925 H896 0.950 . S
C925 C924 1.397 . S
C925 C926 1.334 . S
C926 H897 0.950 . S
C926 C925 1.334 . S
C926 C927 1.287 . S
C927 C926 1.287 . S
C927 C928 1.524 . S
C927 H930 0.999 . S
C928 H898 0.950 . S
C928 C927 1.524 . S
C928 C929 1.415 . S
C929 H899 0.950 . S
C929 C924 1.363 . S
C929 C928 1.415 . S
H930 C927 0.999 . S
H931 C912 0.913 . S
H932 C950 0.951 . S
H933 C952 0.951 . S
H934 C954 0.950 . S
H935 C955 0.950 . S
H936 C957 0.950 . S
H937 C960 0.950 . S
H938 C961 0.950 . S
H939 C963 0.950 . S
H940 C964 0.950 . S
H941 C965 0.951 . S
H942 C967 0.951 . S
H943 C969 0.950 . S
H944 C970 0.950 . S
H945 C972 0.950 . S
H946 C975 0.950 . S
H947 C976 0.950 . S
H948 C978 0.950 . S
H949 C979 0.950 . S
C950 H932 0.951 . S
C950 C951 1.366 . S
C950 C952 1.388 . S
C951 C950 1.366 . S
C951 C955 1.385 . S
C952 H933 0.951 . S
C952 C950 1.388 . S
C952 C953 1.366 . S
C953 C952 1.366 . S
C953 C954 1.414 . S
C953 C956 1.499 . S
C954 H934 0.950 . S
C954 C953 1.414 . S
C954 C955 1.374 . S
C955 H935 0.950 . S
C955 C951 1.385 . S
C955 C954 1.374 . S
C956 C953 1.499 . S
C956 C957 1.373 . S
C956 C958 1.389 . S
C957 H936 0.950 . S
C957 C956 1.373 . S
C957 C973 1.377 . S
C958 C956 1.389 . S
C958 C959 1.524 . S
C958 C972 1.377 . S
C959 C958 1.524 . S
C959 C960 1.397 . S
C959 C964 1.363 . S
C960 H937 0.950 . S
C960 C959 1.397 . S
C960 C961 1.334 . S
C961 H938 0.950 . S
C961 C960 1.334 . S
C961 C962 1.287 . S
C962 C961 1.287 . S
C962 C963 1.524 . S
C962 H981 0.913 . S
C963 H939 0.950 . S
C963 C962 1.524 . S
C963 C964 1.415 . S
C964 H940 0.950 . S
C964 C959 1.363 . S
C964 C963 1.415 . S
C965 H941 0.951 . S
C965 C966 1.366 . S
C965 C967 1.388 . S
C966 C965 1.366 . S
C966 C970 1.385 . S
C967 H942 0.951 . S
C967 C965 1.388 . S
C967 C968 1.366 . S
C968 C967 1.366 . S
C968 C969 1.414 . S
C968 C971 1.499 . S
C969 H943 0.950 . S
C969 C968 1.414 . S
C969 C970 1.374 . S
C970 H944 0.950 . S
C970 C966 1.385 . S
C970 C969 1.374 . S
C971 C968 1.499 . S
C971 C972 1.373 . S
C971 C973 1.389 . S
C972 H945 0.950 . S
C972 C958 1.377 . S
C972 C971 1.373 . S
C973 C957 1.377 . S
C973 C971 1.389 . S
C973 C974 1.524 . S
C974 C973 1.524 . S
C974 C975 1.397 . S
C974 C979 1.363 . S
C975 H946 0.950 . S
C975 C974 1.397 . S
C975 C976 1.334 . S
C976 H947 0.950 . S
C976 C975 1.334 . S
C976 C977 1.287 . S
C977 C976 1.287 . S
C977 C978 1.524 . S
C977 H980 0.999 . S
C978 H948 0.950 . S
C978 C977 1.524 . S
C978 C979 1.415 . S
C979 H949 0.950 . S
C979 C974 1.363 . S
C979 C978 1.415 . S
H980 C977 0.999 . S
H981 C962 0.913 . S
H982 C1000 0.951 . S
H983 C1002 0.951 . S
H984 C1004 0.950 . S
H985 C1005 0.950 . S
H986 C1007 0.950 1_554 S
H987 C1010 0.950 . S
H988 C1011 0.950 . S
H989 C1013 0.950 . S
H990 C1014 0.950 . S
H991 C1015 0.951 . S
H992 C1017 0.951 . S
H993 C1019 0.950 . S
H994 C1020 0.950 . S
H995 C1022 0.950 . S
H996 C1025 0.950 . S
H997 C1026 0.950 . S
H998 C1028 0.950 . S
H999 C1029 0.950 . S
C1000 H982 0.951 . S
C1000 C1001 1.366 . S
C1000 C1002 1.388 . S
C1001 C1000 1.366 . S
C1001 C1005 1.385 . S
C1002 H983 0.951 . S
C1002 C1000 1.388 . S
C1002 C1003 1.366 . S
C1003 C1002 1.366 . S
C1003 C1004 1.414 . S
C1003 C1006 1.499 . S
C1004 H984 0.950 . S
C1004 C1003 1.414 . S
C1004 C1005 1.374 . S
C1005 H985 0.950 . S
C1005 C1001 1.385 . S
C1005 C1004 1.374 . S
C1006 C1003 1.499 . S
C1006 C1007 1.373 . S
C1006 C1008 1.389 . S
C1007 H986 0.950 1_556 S
C1007 C1006 1.373 . S
C1007 C1023 1.377 1_556 S
C1008 C1006 1.389 . S
C1008 C1009 1.524 . S
C1008 C1022 1.377 . S
C1009 C1008 1.524 . S
C1009 C1010 1.397 . S
C1009 C1014 1.363 . S
C1010 H987 0.950 . S
C1010 C1009 1.397 . S
C1010 C1011 1.334 . S
C1011 H988 0.950 . S
C1011 C1010 1.334 . S
C1011 C1012 1.287 . S
C1012 C1011 1.287 . S
C1012 C1013 1.524 . S
C1012 H1031 0.913 . S
C1013 H989 0.950 . S
C1013 C1012 1.524 . S
C1013 C1014 1.415 . S
C1014 H990 0.950 . S
C1014 C1009 1.363 . S
C1014 C1013 1.415 . S
C1015 H991 0.951 . S
C1015 C1016 1.366 . S
C1015 C1017 1.388 . S
C1016 C1015 1.366 . S
C1016 C1020 1.385 1_554 S
C1017 H992 0.951 . S
C1017 C1015 1.388 . S
C1017 C1018 1.366 1_554 S
C1018 C1017 1.366 1_556 S
C1018 C1019 1.414 . S
C1018 C1021 1.499 . S
C1019 H993 0.950 . S
C1019 C1018 1.414 . S
C1019 C1020 1.374 . S
C1020 H994 0.950 . S
C1020 C1016 1.385 1_556 S
C1020 C1019 1.374 . S
C1021 C1018 1.499 . S
C1021 C1022 1.373 . S
C1021 C1023 1.390 1_556 S
C1022 H995 0.950 . S
C1022 C1008 1.377 . S
C1022 C1021 1.373 . S
C1023 C1007 1.377 1_554 S
C1023 C1021 1.390 1_554 S
C1023 C1024 1.524 . S
C1024 C1023 1.524 . S
C1024 C1025 1.397 . S
C1024 C1029 1.363 . S
C1025 H996 0.950 . S
C1025 C1024 1.397 . S
C1025 C1026 1.334 . S
C1026 H997 0.950 . S
C1026 C1025 1.334 . S
C1026 C1027 1.287 . S
C1027 C1026 1.287 . S
C1027 C1028 1.524 . S
C1027 H1030 0.999 . S
C1028 H998 0.950 . S
C1028 C1027 1.524 . S
C1028 C1029 1.415 . S
C1029 H999 0.950 . S
C1029 C1024 1.363 . S
C1029 C1028 1.415 . S
H1030 C1027 0.999 . S
H1031 C1012 0.913 . S
H1032 C1050 0.951 . S
H1033 C1052 0.951 . S
H1034 C1054 0.950 . S
H1035 C1055 0.950 . S
H1036 C1057 0.950 . S
H1037 C1060 0.950 . S
H1038 C1061 0.950 . S
H1039 C1063 0.950 . S
H1040 C1064 0.950 . S
H1041 C1065 0.951 . S
H1042 C1067 0.951 . S
H1043 C1069 0.950 . S
H1044 C1070 0.950 . S
H1045 C1072 0.950 . S
H1046 C1075 0.950 . S
H1047 C1076 0.950 . S
H1048 C1078 0.950 . S
H1049 C1079 0.950 . S
C1050 H1032 0.951 . S
C1050 C1051 1.366 . S
C1050 C1052 1.388 . S
C1051 C1050 1.366 . S
C1051 C1055 1.385 . S
C1052 H1033 0.951 . S
C1052 C1050 1.388 . S
C1052 C1053 1.366 . S
C1053 C1052 1.366 . S
C1053 C1054 1.414 . S
C1053 C1056 1.499 . S
C1054 H1034 0.950 . S
C1054 C1053 1.414 . S
C1054 C1055 1.374 . S
C1055 H1035 0.950 . S
C1055 C1051 1.385 . S
C1055 C1054 1.374 . S
C1056 C1053 1.499 . S
C1056 C1057 1.373 . S
C1056 C1058 1.389 . S
C1057 H1036 0.950 . S
C1057 C1056 1.373 . S
C1057 C1073 1.377 . S
C1058 C1056 1.389 . S
C1058 C1059 1.524 . S
C1058 C1072 1.377 . S
C1059 C1058 1.524 . S
C1059 C1060 1.397 . S
C1059 C1064 1.363 . S
C1060 H1037 0.950 . S
C1060 C1059 1.397 . S
C1060 C1061 1.334 . S
C1061 H1038 0.950 . S
C1061 C1060 1.334 . S
C1061 C1062 1.287 . S
C1062 C1061 1.287 . S
C1062 C1063 1.524 . S
C1062 H1081 0.913 . S
C1063 H1039 0.950 . S
C1063 C1062 1.524 . S
C1063 C1064 1.415 . S
C1064 H1040 0.950 . S
C1064 C1059 1.363 . S
C1064 C1063 1.415 . S
C1065 H1041 0.951 . S
C1065 C1066 1.366 . S
C1065 C1067 1.388 . S
C1066 C1065 1.366 . S
C1066 C1070 1.385 . S
C1067 H1042 0.951 . S
C1067 C1065 1.388 . S
C1067 C1068 1.366 . S
C1068 C1067 1.366 . S
C1068 C1069 1.414 . S
C1068 C1071 1.499 . S
C1069 H1043 0.950 . S
C1069 C1068 1.414 . S
C1069 C1070 1.374 . S
C1070 H1044 0.950 . S
C1070 C1066 1.385 . S
C1070 C1069 1.374 . S
C1071 C1068 1.499 . S
C1071 C1072 1.373 . S
C1071 C1073 1.389 . S
C1072 H1045 0.950 . S
C1072 C1058 1.377 . S
C1072 C1071 1.373 . S
C1073 C1057 1.377 . S
C1073 C1071 1.389 . S
C1073 C1074 1.524 . S
C1074 C1073 1.524 . S
C1074 C1075 1.397 . S
C1074 C1079 1.363 . S
C1075 H1046 0.950 . S
C1075 C1074 1.397 . S
C1075 C1076 1.334 . S
C1076 H1047 0.950 . S
C1076 C1075 1.334 . S
C1076 C1077 1.287 . S
C1077 C1076 1.287 . S
C1077 C1078 1.524 . S
C1077 H1080 0.999 . S
C1078 H1048 0.950 . S
C1078 C1077 1.524 . S
C1078 C1079 1.415 . S
C1079 H1049 0.950 . S
C1079 C1074 1.363 . S
C1079 C1078 1.415 . S
H1080 C1077 0.999 . S
H1081 C1062 0.913 . S
H1082 C1100 0.951 . S
H1083 C1102 0.951 . S
H1084 C1104 0.950 1_556 S
H1085 C1105 0.950 . S
H1086 C1107 0.950 . S
H1087 C1110 0.950 . S
H1088 C1111 0.950 . S
H1089 C1113 0.950 . S
H1090 C1114 0.950 . S
H1091 C1115 0.951 . S
H1092 C1117 0.951 . S
H1093 C1119 0.950 . S
H1094 C1120 0.950 . S
H1095 C1122 0.950 . S
H1096 C1125 0.950 . S
H1097 C1126 0.950 . S
H1098 C1128 0.950 . S
H1099 C1129 0.950 . S
C1100 H1082 0.951 . S
C1100 C1101 1.366 . S
C1100 C1102 1.388 . S
C1101 C1100 1.366 . S
C1101 C1105 1.385 . S
C1102 H1083 0.951 . S
C1102 C1100 1.388 . S
C1102 C1103 1.366 . S
C1103 C1102 1.366 . S
C1103 C1104 1.414 . S
C1103 C1106 1.499 1_554 S
C1104 H1084 0.950 1_554 S
C1104 C1103 1.414 . S
C1104 C1105 1.374 . S
C1105 H1085 0.950 . S
C1105 C1101 1.385 . S
C1105 C1104 1.374 . S
C1106 C1103 1.499 1_556 S
C1106 C1107 1.373 . S
C1106 C1108 1.389 . S
C1107 H1086 0.950 . S
C1107 C1106 1.373 . S
C1107 C1123 1.377 . S
C1108 C1106 1.389 . S
C1108 C1109 1.524 1_556 S
C1108 C1122 1.377 . S
C1109 C1108 1.524 1_554 S
C1109 C1110 1.397 1_554 S
C1109 C1114 1.363 . S
C1110 H1087 0.950 . S
C1110 C1109 1.397 1_556 S
C1110 C1111 1.334 1_556 S
C1111 H1088 0.950 . S
C1111 C1110 1.334 1_554 S
C1111 C1112 1.287 . S
C1112 C1111 1.287 . S
C1112 C1113 1.524 . S
C1112 H1131 0.913 . S
C1113 H1089 0.950 . S
C1113 C1112 1.524 . S
C1113 C1114 1.415 . S
C1114 H1090 0.950 . S
C1114 C1109 1.363 . S
C1114 C1113 1.415 . S
C1115 H1091 0.951 . S
C1115 C1116 1.366 . S
C1115 C1117 1.388 . S
C1116 C1115 1.366 . S
C1116 C1120 1.385 . S
C1117 H1092 0.951 . S
C1117 C1115 1.388 . S
C1117 C1118 1.366 . S
C1118 C1117 1.366 . S
C1118 C1119 1.414 . S
C1118 C1121 1.499 . S
C1119 H1093 0.950 . S
C1119 C1118 1.414 . S
C1119 C1120 1.374 . S
C1120 H1094 0.950 . S
C1120 C1116 1.385 . S
C1120 C1119 1.374 . S
C1121 C1118 1.499 . S
C1121 C1122 1.373 . S
C1121 C1123 1.389 . S
C1122 H1095 0.950 . S
C1122 C1108 1.377 . S
C1122 C1121 1.373 . S
C1123 C1107 1.377 . S
C1123 C1121 1.389 . S
C1123 C1124 1.524 . S
C1124 C1123 1.524 . S
C1124 C1125 1.397 . S
C1124 C1129 1.363 . S
C1125 H1096 0.950 . S
C1125 C1124 1.397 . S
C1125 C1126 1.334 . S
C1126 H1097 0.950 . S
C1126 C1125 1.334 . S
C1126 C1127 1.287 . S
C1127 C1126 1.287 . S
C1127 C1128 1.524 . S
C1127 H1130 0.999 . S
C1128 H1098 0.950 . S
C1128 C1127 1.524 . S
C1128 C1129 1.415 . S
C1129 H1099 0.950 . S
C1129 C1124 1.363 . S
C1129 C1128 1.415 . S
H1130 C1127 0.999 . S
H1131 C1112 0.913 . S
H1132 C1150 0.951 . S
H1133 C1152 0.951 . S
H1134 C1154 0.950 . S
H1135 C1155 0.950 . S
H1136 C1157 0.950 . S
H1137 C1160 0.950 . S
H1138 C1161 0.950 . S
H1139 C1163 0.950 . S
H1140 C1164 0.950 . S
H1141 C1165 0.951 . S
H1142 C1167 0.951 1_556 S
H1143 C1169 0.950 . S
H1144 C1170 0.950 . S
H1145 C1172 0.950 . S
H1146 C1175 0.950 . S
H1147 C1176 0.950 . S
H1148 C1178 0.950 . S
H1149 C1179 0.950 . S
C1150 H1132 0.951 . S
C1150 C1151 1.366 . S
C1150 C1152 1.388 . S
C1151 C1150 1.366 . S
C1151 C1155 1.385 . S
C1152 H1133 0.951 . S
C1152 C1150 1.388 . S
C1152 C1153 1.366 . S
C1153 C1152 1.366 . S
C1153 C1154 1.414 . S
C1153 C1156 1.499 . S
C1154 H1134 0.950 . S
C1154 C1153 1.414 . S
C1154 C1155 1.374 . S
C1155 H1135 0.950 . S
C1155 C1151 1.385 . S
C1155 C1154 1.374 . S
C1156 C1153 1.499 . S
C1156 C1157 1.373 . S
C1156 C1158 1.389 . S
C1157 H1136 0.950 . S
C1157 C1156 1.373 . S
C1157 C1173 1.377 . S
C1158 C1156 1.389 . S
C1158 C1159 1.524 . S
C1158 C1172 1.377 . S
C1159 C1158 1.524 . S
C1159 C1160 1.397 . S
C1159 C1164 1.363 . S
C1160 H1137 0.950 . S
C1160 C1159 1.397 . S
C1160 C1161 1.334 . S
C1161 H1138 0.950 . S
C1161 C1160 1.334 . S
C1161 C1162 1.287 . S
C1162 C1161 1.287 . S
C1162 C1163 1.524 . S
C1162 H1181 0.913 . S
C1163 H1139 0.950 . S
C1163 C1162 1.524 . S
C1163 C1164 1.415 . S
C1164 H1140 0.950 . S
C1164 C1159 1.363 . S
C1164 C1163 1.415 . S
C1165 H1141 0.951 . S
C1165 C1166 1.366 . S
C1165 C1167 1.388 1_556 S
C1166 C1165 1.366 . S
C1166 C1170 1.385 1_556 S
C1167 H1142 0.951 1_554 S
C1167 C1165 1.388 1_554 S
C1167 C1168 1.366 . S
C1168 C1167 1.366 . S
C1168 C1169 1.414 . S
C1168 C1171 1.499 . S
C1169 H1143 0.950 . S
C1169 C1168 1.414 . S
C1169 C1170 1.374 . S
C1170 H1144 0.950 . S
C1170 C1166 1.385 1_554 S
C1170 C1169 1.374 . S
C1171 C1168 1.499 . S
C1171 C1172 1.373 . S
C1171 C1173 1.389 . S
C1172 H1145 0.950 . S
C1172 C1158 1.377 . S
C1172 C1171 1.373 . S
C1173 C1157 1.377 . S
C1173 C1171 1.389 . S
C1173 C1174 1.524 . S
C1174 C1173 1.524 . S
C1174 C1175 1.397 . S
C1174 C1179 1.363 . S
C1175 H1146 0.950 . S
C1175 C1174 1.397 . S
C1175 C1176 1.334 . S
C1176 H1147 0.950 . S
C1176 C1175 1.334 . S
C1176 C1177 1.287 . S
C1177 C1176 1.287 . S
C1177 C1178 1.524 . S
C1177 H1180 0.999 . S
C1178 H1148 0.950 . S
C1178 C1177 1.524 . S
C1178 C1179 1.415 . S
C1179 H1149 0.950 . S
C1179 C1174 1.363 . S
C1179 C1178 1.415 . S
H1180 C1177 0.999 . S
H1181 C1162 0.913 . S
H1182 C1200 0.951 . S
H1183 C1202 0.951 . S
H1184 C1204 0.950 . S
H1185 C1205 0.950 . S
H1186 C1207 0.950 . S
H1187 C1210 0.950 . S
H1188 C1211 0.950 . S
H1189 C1213 0.950 . S
H1190 C1214 0.950 . S
H1191 C1215 0.951 . S
H1192 C1217 0.951 . S
H1193 C1219 0.950 . S
H1194 C1220 0.950 . S
H1195 C1222 0.950 . S
H1196 C1225 0.950 . S
H1197 C1226 0.950 . S
H1198 C1228 0.950 . S
H1199 C1229 0.950 . S
C1200 H1182 0.951 . S
C1200 C1201 1.366 . S
C1200 C1202 1.388 . S
C1201 C1200 1.366 . S
C1201 C1205 1.385 . S
C1202 H1183 0.951 . S
C1202 C1200 1.388 . S
C1202 C1203 1.366 . S
C1203 C1202 1.366 . S
C1203 C1204 1.414 . S
C1203 C1206 1.499 . S
C1204 H1184 0.950 . S
C1204 C1203 1.414 . S
C1204 C1205 1.374 . S
C1205 H1185 0.950 . S
C1205 C1201 1.385 . S
C1205 C1204 1.374 . S
C1206 C1203 1.499 . S
C1206 C1207 1.373 . S
C1206 C1208 1.389 . S
C1207 H1186 0.950 . S
C1207 C1206 1.373 . S
C1207 C1223 1.377 . S
C1208 C1206 1.389 . S
C1208 C1209 1.524 . S
C1208 C1222 1.377 . S
C1209 C1208 1.524 . S
C1209 C1210 1.397 . S
C1209 C1214 1.363 . S
C1210 H1187 0.950 . S
C1210 C1209 1.397 . S
C1210 C1211 1.334 . S
C1211 H1188 0.950 . S
C1211 C1210 1.334 . S
C1211 C1212 1.287 . S
C1212 C1211 1.287 . S
C1212 C1213 1.524 . S
C1212 H1231 0.913 . S
C1213 H1189 0.950 . S
C1213 C1212 1.524 . S
C1213 C1214 1.415 . S
C1214 H1190 0.950 . S
C1214 C1209 1.363 . S
C1214 C1213 1.415 . S
C1215 H1191 0.951 . S
C1215 C1216 1.366 . S
C1215 C1217 1.388 . S
C1216 C1215 1.366 . S
C1216 C1220 1.385 . S
C1217 H1192 0.951 . S
C1217 C1215 1.388 . S
C1217 C1218 1.366 . S
C1218 C1217 1.366 . S
C1218 C1219 1.414 . S
C1218 C1221 1.499 . S
C1219 H1193 0.950 . S
C1219 C1218 1.414 . S
C1219 C1220 1.374 . S
C1220 H1194 0.950 . S
C1220 C1216 1.385 . S
C1220 C1219 1.374 . S
C1221 C1218 1.499 . S
C1221 C1222 1.373 . S
C1221 C1223 1.389 . S
C1222 H1195 0.950 . S
C1222 C1208 1.377 . S
C1222 C1221 1.373 . S
C1223 C1207 1.377 . S
C1223 C1221 1.389 . S
C1223 C1224 1.524 . S
C1224 C1223 1.524 . S
C1224 C1225 1.397 . S
C1224 C1229 1.363 . S
C1225 H1196 0.950 . S
C1225 C1224 1.397 . S
C1225 C1226 1.334 . S
C1226 H1197 0.950 . S
C1226 C1225 1.334 . S
C1226 C1227 1.287 . S
C1227 C1226 1.287 . S
C1227 C1228 1.524 . S
C1227 H1230 0.999 . S
C1228 H1198 0.950 . S
C1228 C1227 1.524 . S
C1228 C1229 1.415 . S
C1229 H1199 0.950 . S
C1229 C1224 1.363 . S
C1229 C1228 1.415 . S
H1230 C1227 0.999 . S
H1231 C1212 0.913 . S
H1232 C1250 0.951 . S
H1233 C1252 0.951 . S
H1234 C1254 0.950 . S
H1235 C1255 0.950 . S
H1236 C1257 0.950 . S
H1237 C1260 0.950 . S
H1238 C1261 0.950 . S
H1239 C1263 0.950 . S
H1240 C1264 0.950 . S
H1241 C1265 0.951 . S
H1242 C1267 0.951 . S
H1243 C1269 0.950 . S
H1244 C1270 0.950 . S
H1245 C1272 0.950 . S
H1246 C1275 0.950 . S
H1247 C1276 0.950 . S
H1248 C1278 0.950 . S
H1249 C1279 0.950 . S
C1250 H1232 0.951 . S
C1250 C1251 1.366 . S
C1250 C1252 1.388 . S
C1251 C1250 1.366 . S
C1251 C1255 1.385 . S
C1252 H1233 0.951 . S
C1252 C1250 1.388 . S
C1252 C1253 1.366 . S
C1253 C1252 1.366 . S
C1253 C1254 1.414 . S
C1253 C1256 1.499 . S
C1254 H1234 0.950 . S
C1254 C1253 1.414 . S
C1254 C1255 1.374 . S
C1255 H1235 0.950 . S
C1255 C1251 1.385 . S
C1255 C1254 1.374 . S
C1256 C1253 1.499 . S
C1256 C1257 1.373 . S
C1256 C1258 1.389 . S
C1257 H1236 0.950 . S
C1257 C1256 1.373 . S
C1257 C1273 1.377 . S
C1258 C1256 1.389 . S
C1258 C1259 1.524 . S
C1258 C1272 1.377 . S
C1259 C1258 1.524 . S
C1259 C1260 1.397 . S
C1259 C1264 1.363 . S
C1260 H1237 0.950 . S
C1260 C1259 1.397 . S
C1260 C1261 1.334 . S
C1261 H1238 0.950 . S
C1261 C1260 1.334 . S
C1261 C1262 1.287 . S
C1262 C1261 1.287 . S
C1262 C1263 1.524 . S
C1262 H1281 0.913 . S
C1263 H1239 0.950 . S
C1263 C1262 1.524 . S
C1263 C1264 1.415 . S
C1264 H1240 0.950 . S
C1264 C1259 1.363 . S
C1264 C1263 1.415 . S
C1265 H1241 0.951 . S
C1265 C1266 1.366 . S
C1265 C1267 1.388 . S
C1266 C1265 1.366 . S
C1266 C1270 1.385 . S
C1267 H1242 0.951 . S
C1267 C1265 1.388 . S
C1267 C1268 1.366 . S
C1268 C1267 1.366 . S
C1268 C1269 1.414 . S
C1268 C1271 1.499 . S
C1269 H1243 0.950 . S
C1269 C1268 1.414 . S
C1269 C1270 1.374 . S
C1270 H1244 0.950 . S
C1270 C1266 1.385 . S
C1270 C1269 1.374 . S
C1271 C1268 1.499 . S
C1271 C1272 1.373 . S
C1271 C1273 1.389 . S
C1272 H1245 0.950 . S
C1272 C1258 1.377 . S
C1272 C1271 1.373 . S
C1273 C1257 1.377 . S
C1273 C1271 1.389 . S
C1273 C1274 1.524 . S
C1274 C1273 1.524 . S
C1274 C1275 1.397 . S
C1274 C1279 1.363 . S
C1275 H1246 0.950 . S
C1275 C1274 1.397 . S
C1275 C1276 1.334 . S
C1276 H1247 0.950 . S
C1276 C1275 1.334 . S
C1276 C1277 1.287 . S
C1277 C1276 1.287 . S
C1277 C1278 1.524 . S
C1277 H1280 0.999 . S
C1278 H1248 0.950 . S
C1278 C1277 1.524 . S
C1278 C1279 1.415 . S
C1279 H1249 0.950 . S
C1279 C1274 1.363 . S
C1279 C1278 1.415 . S
H1280 C1277 0.999 . S
H1281 C1262 0.913 . S
H1282 C1300 0.951 . S
H1283 C1302 0.951 . S
H1284 C1304 0.950 . S
H1285 C1305 0.950 . S
H1286 C1307 0.950 . S
H1287 C1310 0.950 . S
H1288 C1311 0.950 . S
H1289 C1313 0.950 . S
H1290 C1314 0.950 . S
H1291 C1315 0.951 . S
H1292 C1317 0.951 . S
H1293 C1319 0.950 . S
H1294 C1320 0.950 . S
H1295 C1322 0.950 . S
H1296 C1325 0.950 . S
H1297 C1326 0.950 . S
H1298 C1328 0.950 . S
H1299 C1329 0.950 . S
C1300 H1282 0.951 . S
C1300 C1301 1.366 . S
C1300 C1302 1.388 . S
C1301 C1300 1.366 . S
C1301 C1305 1.385 . S
C1302 H1283 0.951 . S
C1302 C1300 1.388 . S
C1302 C1303 1.366 . S
C1303 C1302 1.366 . S
C1303 C1304 1.414 . S
C1303 C1306 1.499 . S
C1304 H1284 0.950 . S
C1304 C1303 1.414 . S
C1304 C1305 1.374 . S
C1305 H1285 0.950 . S
C1305 C1301 1.385 . S
C1305 C1304 1.374 . S
C1306 C1303 1.499 . S
C1306 C1307 1.373 . S
C1306 C1308 1.389 . S
C1307 H1286 0.950 . S
C1307 C1306 1.373 . S
C1307 C1323 1.377 . S
C1308 C1306 1.389 . S
C1308 C1309 1.524 . S
C1308 C1322 1.377 . S
C1309 C1308 1.524 . S
C1309 C1310 1.397 . S
C1309 C1314 1.363 . S
C1310 H1287 0.950 . S
C1310 C1309 1.397 . S
C1310 C1311 1.334 . S
C1311 H1288 0.950 . S
C1311 C1310 1.334 . S
C1311 C1312 1.287 . S
C1312 C1311 1.287 . S
C1312 C1313 1.524 . S
C1312 H1331 0.913 . S
C1313 H1289 0.950 . S
C1313 C1312 1.524 . S
C1313 C1314 1.415 . S
C1314 H1290 0.950 . S
C1314 C1309 1.363 . S
C1314 C1313 1.415 . S
C1315 H1291 0.951 . S
C1315 C1316 1.366 . S
C1315 C1317 1.388 . S
C1316 C1315 1.366 . S
C1316 C1320 1.385 . S
C1317 H1292 0.951 . S
C1317 C1315 1.388 . S
C1317 C1318 1.366 . S
C1318 C1317 1.366 . S
C1318 C1319 1.414 . S
C1318 C1321 1.499 . S
C1319 H1293 0.950 . S
C1319 C1318 1.414 . S
C1319 C1320 1.374 . S
C1320 H1294 0.950 . S
C1320 C1316 1.385 . S
C1320 C1319 1.374 . S
C1321 C1318 1.499 . S
C1321 C1322 1.373 . S
C1321 C1323 1.389 . S
C1322 H1295 0.950 . S
C1322 C1308 1.377 . S
C1322 C1321 1.373 . S
C1323 C1307 1.377 . S
C1323 C1321 1.389 . S
C1323 C1324 1.524 . S
C1324 C1323 1.524 . S
C1324 C1325 1.397 . S
C1324 C1329 1.363 . S
C1325 H1296 0.950 . S
C1325 C1324 1.397 . S
C1325 C1326 1.334 . S
C1326 H1297 0.950 . S
C1326 C1325 1.334 . S
C1326 C1327 1.287 . S
C1327 C1326 1.287 . S
C1327 C1328 1.524 . S
C1327 H1330 0.999 . S
C1328 H1298 0.950 . S
C1328 C1327 1.524 . S
C1328 C1329 1.415 . S
C1329 H1299 0.950 . S
C1329 C1324 1.363 . S
C1329 C1328 1.415 . S
H1330 C1327 0.999 . S
H1331 C1312 0.913 . S
H1332 C1350 0.951 1_554 S
H1333 C1352 0.951 . S
H1334 C1354 0.950 . S
H1335 C1355 0.950 . S
H1336 C1357 0.950 . S
H1337 C1360 0.950 . S
H1338 C1361 0.950 . S
H1339 C1363 0.950 . S
H1340 C1364 0.950 . S
H1341 C1365 0.951 . S
H1342 C1367 0.951 . S
H1343 C1369 0.950 . S
H1344 C1370 0.950 . S
H1345 C1372 0.950 . S
H1346 C1375 0.950 . S
H1347 C1376 0.950 . S
H1348 C1378 0.950 . S
H1349 C1379 0.950 . S
C1350 H1332 0.951 1_556 S
C1350 C1351 1.366 . S
C1350 C1352 1.388 . S
C1351 C1350 1.366 . S
C1351 C1355 1.385 . S
C1352 H1333 0.951 . S
C1352 C1350 1.388 . S
C1352 C1353 1.366 . S
C1353 C1352 1.366 . S
C1353 C1354 1.414 . S
C1353 C1356 1.499 . S
C1354 H1334 0.950 . S
C1354 C1353 1.414 . S
C1354 C1355 1.374 . S
C1355 H1335 0.950 . S
C1355 C1351 1.385 . S
C1355 C1354 1.374 . S
C1356 C1353 1.499 . S
C1356 C1357 1.373 . S
C1356 C1358 1.389 1_455 S
C1357 H1336 0.950 . S
C1357 C1356 1.373 . S
C1357 C1373 1.377 . S
C1358 C1356 1.389 1_655 S
C1358 C1359 1.524 . S
C1358 C1372 1.377 . S
C1359 C1358 1.524 . S
C1359 C1360 1.397 1_655 S
C1359 C1364 1.363 . S
C1360 H1337 0.950 . S
C1360 C1359 1.397 1_455 S
C1360 C1361 1.334 1_556 S
C1361 H1338 0.950 . S
C1361 C1360 1.334 1_554 S
C1361 C1362 1.287 1_455 S
C1362 C1361 1.287 1_655 S
C1362 C1363 1.524 . S
C1362 H1381 0.913 . S
C1363 H1339 0.950 . S
C1363 C1362 1.524 . S
C1363 C1364 1.415 1_554 S
C1364 H1340 0.950 . S
C1364 C1359 1.363 . S
C1364 C1363 1.415 1_556 S
C1365 H1341 0.951 . S
C1365 C1366 1.366 . S
C1365 C1367 1.388 . S
C1366 C1365 1.366 . S
C1366 C1370 1.385 . S
C1367 H1342 0.951 . S
C1367 C1365 1.388 . S
C1367 C1368 1.366 . S
C1368 C1367 1.366 . S
C1368 C1369 1.414 . S
C1368 C1371 1.499 . S
C1369 H1343 0.950 . S
C1369 C1368 1.414 . S
C1369 C1370 1.374 . S
C1370 H1344 0.950 . S
C1370 C1366 1.385 . S
C1370 C1369 1.374 . S
C1371 C1368 1.499 . S
C1371 C1372 1.373 . S
C1371 C1373 1.389 1_655 S
C1372 H1345 0.950 . S
C1372 C1358 1.377 . S
C1372 C1371 1.373 . S
C1373 C1357 1.377 . S
C1373 C1371 1.389 1_455 S
C1373 C1374 1.524 . S
C1374 C1373 1.524 . S
C1374 C1375 1.397 1_455 S
C1374 C1379 1.363 . S
C1375 H1346 0.950 . S
C1375 C1374 1.397 1_655 S
C1375 C1376 1.334 . S
C1376 H1347 0.950 . S
C1376 C1375 1.334 . S
C1376 C1377 1.287 1_655 S
C1377 C1376 1.287 1_455 S
C1377 C1378 1.524 . S
C1377 H1380 0.999 . S
C1378 H1348 0.950 . S
C1378 C1377 1.524 . S
C1378 C1379 1.415 . S
C1379 H1349 0.950 . S
C1379 C1374 1.363 . S
C1379 C1378 1.415 . S
H1380 C1377 0.999 . S
H1381 C1362 0.913 . S
H1382 C1400 0.951 . S
H1383 C1402 0.951 . S
H1384 C1404 0.950 . S
H1385 C1405 0.950 . S
H1386 C1407 0.950 . S
H1387 C1410 0.950 . S
H1388 C1411 0.950 . S
H1389 C1413 0.950 . S
H1390 C1414 0.950 1_545 S
H1391 C1415 0.951 . S
H1392 C1417 0.951 . S
H1393 C1419 0.950 . S
H1394 C1420 0.950 . S
H1395 C1422 0.950 . S
H1396 C1425 0.950 . S
H1397 C1426 0.950 . S
H1398 C1428 0.950 . S
H1399 C1429 0.950 1_565 S
C1400 H1382 0.951 . S
C1400 C1401 1.366 . S
C1400 C1402 1.388 . S
C1401 C1400 1.366 . S
C1401 C1405 1.385 . S
C1402 H1383 0.951 . S
C1402 C1400 1.388 . S
C1402 C1403 1.366 . S
C1403 C1402 1.366 . S
C1403 C1404 1.414 1_556 S
C1403 C1406 1.499 1_556 S
C1404 H1384 0.950 . S
C1404 C1403 1.414 1_554 S
C1404 C1405 1.374 1_554 S
C1405 H1385 0.950 . S
C1405 C1401 1.385 . S
C1405 C1404 1.374 1_556 S
C1406 C1403 1.499 1_554 S
C1406 C1407 1.373 . S
C1406 C1408 1.389 . S
C1407 H1386 0.950 . S
C1407 C1406 1.373 . S
C1407 C1423 1.377 1_565 S
C1408 C1406 1.389 . S
C1408 C1409 1.524 . S
C1408 C1422 1.377 1_565 S
C1409 C1408 1.524 . S
C1409 C1410 1.397 . S
C1409 C1414 1.363 1_554 S
C1410 H1387 0.950 . S
C1410 C1409 1.397 . S
C1410 C1411 1.334 . S
C1411 H1388 0.950 . S
C1411 C1410 1.334 . S
C1411 C1412 1.287 . S
C1412 C1411 1.287 . S
C1412 C1413 1.524 1_554 S
C1412 H1431 0.913 . S
C1413 H1389 0.950 . S
C1413 C1412 1.524 1_556 S
C1413 C1414 1.415 . S
C1414 H1390 0.950 1_565 S
C1414 C1409 1.363 1_556 S
C1414 C1413 1.415 . S
C1415 H1391 0.951 . S
C1415 C1416 1.366 . S
C1415 C1417 1.388 . S
C1416 C1415 1.366 . S
C1416 C1420 1.385 . S
C1417 H1392 0.951 . S
C1417 C1415 1.388 . S
C1417 C1418 1.366 . S
C1418 C1417 1.366 . S
C1418 C1419 1.414 . S
C1418 C1421 1.499 . S
C1419 H1393 0.950 . S
C1419 C1418 1.414 . S
C1419 C1420 1.374 . S
C1420 H1394 0.950 . S
C1420 C1416 1.385 . S
C1420 C1419 1.374 . S
C1421 C1418 1.499 . S
C1421 C1422 1.373 . S
C1421 C1423 1.389 . S
C1422 H1395 0.950 . S
C1422 C1408 1.377 1_545 S
C1422 C1421 1.373 . S
C1423 C1407 1.377 1_545 S
C1423 C1421 1.389 . S
C1423 C1424 1.524 . S
C1424 C1423 1.524 . S
C1424 C1425 1.397 . S
C1424 C1429 1.363 . S
C1425 H1396 0.950 . S
C1425 C1424 1.397 . S
C1425 C1426 1.334 . S
C1426 H1397 0.950 . S
C1426 C1425 1.334 . S
C1426 C1427 1.287 . S
C1427 C1426 1.287 . S
C1427 C1428 1.524 . S
C1427 H1430 0.999 . S
C1428 H1398 0.950 . S
C1428 C1427 1.524 . S
C1428 C1429 1.415 . S
C1429 H1399 0.950 1_545 S
C1429 C1424 1.363 . S
C1429 C1428 1.415 . S
H1430 C1427 0.999 . S
H1431 C1412 0.913 . S
H1432 C1450 0.951 . S
H1433 C1452 0.951 . S
H1434 C1454 0.950 . S
H1435 C1455 0.950 . S
H1436 C1457 0.950 . S
H1437 C1460 0.950 . S
H1438 C1461 0.950 . S
H1439 C1463 0.950 . S
H1440 C1464 0.950 . S
H1441 C1465 0.951 . S
H1442 C1467 0.951 . S
H1443 C1469 0.950 . S
H1444 C1470 0.950 . S
H1445 C1472 0.950 . S
H1446 C1475 0.950 . S
H1447 C1476 0.950 . S
H1448 C1478 0.950 . S
H1449 C1479 0.950 . S
C1450 H1432 0.951 . S
C1450 C1451 1.366 . S
C1450 C1452 1.388 . S
C1451 C1450 1.366 . S
C1451 C1455 1.385 . S
C1452 H1433 0.951 . S
C1452 C1450 1.388 . S
C1452 C1453 1.366 . S
C1453 C1452 1.366 . S
C1453 C1454 1.414 . S
C1453 C1456 1.499 . S
C1454 H1434 0.950 . S
C1454 C1453 1.414 . S
C1454 C1455 1.374 . S
C1455 H1435 0.950 . S
C1455 C1451 1.385 . S
C1455 C1454 1.374 . S
C1456 C1453 1.499 . S
C1456 C1457 1.373 . S
C1456 C1458 1.389 . S
C1457 H1436 0.950 . S
C1457 C1456 1.373 . S
C1457 C1473 1.377 . S
C1458 C1456 1.389 . S
C1458 C1459 1.524 . S
C1458 C1472 1.377 . S
C1459 C1458 1.524 . S
C1459 C1460 1.397 . S
C1459 C1464 1.363 . S
C1460 H1437 0.950 . S
C1460 C1459 1.397 . S
C1460 C1461 1.334 . S
C1461 H1438 0.950 . S
C1461 C1460 1.334 . S
C1461 C1462 1.287 . S
C1462 C1461 1.287 . S
C1462 C1463 1.524 . S
C1462 H1481 0.913 . S
C1463 H1439 0.950 . S
C1463 C1462 1.524 . S
C1463 C1464 1.415 . S
C1464 H1440 0.950 . S
C1464 C1459 1.363 . S
C1464 C1463 1.415 . S
C1465 H1441 0.951 . S
C1465 C1466 1.366 . S
C1465 C1467 1.388 . S
C1466 C1465 1.366 . S
C1466 C1470 1.385 . S
C1467 H1442 0.951 . S
C1467 C1465 1.388 . S
C1467 C1468 1.366 . S
C1468 C1467 1.366 . S
C1468 C1469 1.414 . S
C1468 C1471 1.499 . S
C1469 H1443 0.950 . S
C1469 C1468 1.414 . S
C1469 C1470 1.374 . S
C1470 H1444 0.950 . S
C1470 C1466 1.385 . S
C1470 C1469 1.374 . S
C1471 C1468 1.499 . S
C1471 C1472 1.373 . S
C1471 C1473 1.389 . S
C1472 H1445 0.950 . S
C1472 C1458 1.377 . S
C1472 C1471 1.373 . S
C1473 C1457 1.377 . S
C1473 C1471 1.389 . S
C1473 C1474 1.524 . S
C1474 C1473 1.524 . S
C1474 C1475 1.397 . S
C1474 C1479 1.363 . S
C1475 H1446 0.950 . S
C1475 C1474 1.397 . S
C1475 C1476 1.334 . S
C1476 H1447 0.950 . S
C1476 C1475 1.334 . S
C1476 C1477 1.287 . S
C1477 C1476 1.287 . S
C1477 C1478 1.524 . S
C1477 H1480 0.999 . S
C1478 H1448 0.950 . S
C1478 C1477 1.524 . S
C1478 C1479 1.415 . S
C1479 H1449 0.950 . S
C1479 C1474 1.363 . S
C1479 C1478 1.415 . S
H1480 C1477 0.999 . S
H1481 C1462 0.913 . S
H1482 C1500 0.951 . S
H1483 C1502 0.951 . S
H1484 C1504 0.950 . S
H1485 C1505 0.950 . S
H1486 C1507 0.950 . S
H1487 C1510 0.950 . S
H1488 C1511 0.950 . S
H1489 C1513 0.950 . S
H1490 C1514 0.950 . S
H1491 C1515 0.951 . S
H1492 C1517 0.951 . S
H1493 C1519 0.950 . S
H1494 C1520 0.950 . S
H1495 C1522 0.950 . S
H1496 C1525 0.950 . S
H1497 C1526 0.950 . S
H1498 C1528 0.950 . S
H1499 C1529 0.950 . S
C1500 H1482 0.951 . S
C1500 C1501 1.366 . S
C1500 C1502 1.388 . S
C1501 C1500 1.366 . S
C1501 C1505 1.385 . S
C1502 H1483 0.951 . S
C1502 C1500 1.388 . S
C1502 C1503 1.366 . S
C1503 C1502 1.366 . S
C1503 C1504 1.414 . S
C1503 C1506 1.499 . S
C1504 H1484 0.950 . S
C1504 C1503 1.414 . S
C1504 C1505 1.374 . S
C1505 H1485 0.950 . S
C1505 C1501 1.385 . S
C1505 C1504 1.374 . S
C1506 C1503 1.499 . S
C1506 C1507 1.373 . S
C1506 C1508 1.389 . S
C1507 H1486 0.950 . S
C1507 C1506 1.373 . S
C1507 C1523 1.377 1_455 S
C1508 C1506 1.389 . S
C1508 C1509 1.524 . S
C1508 C1522 1.377 1_455 S
C1509 C1508 1.524 . S
C1509 C1510 1.397 . S
C1509 C1514 1.363 . S
C1510 H1487 0.950 . S
C1510 C1509 1.397 . S
C1510 C1511 1.334 . S
C1511 H1488 0.950 . S
C1511 C1510 1.334 . S
C1511 C1512 1.287 . S
C1512 C1511 1.287 . S
C1512 C1513 1.524 . S
C1512 H1531 0.913 . S
C1513 H1489 0.950 . S
C1513 C1512 1.524 . S
C1513 C1514 1.415 . S
C1514 H1490 0.950 . S
C1514 C1509 1.363 . S
C1514 C1513 1.415 . S
C1515 H1491 0.951 . S
C1515 C1516 1.366 . S
C1515 C1517 1.388 . S
C1516 C1515 1.366 . S
C1516 C1520 1.385 . S
C1517 H1492 0.951 . S
C1517 C1515 1.388 . S
C1517 C1518 1.366 . S
C1518 C1517 1.366 . S
C1518 C1519 1.414 . S
C1518 C1521 1.499 . S
C1519 H1493 0.950 . S
C1519 C1518 1.414 . S
C1519 C1520 1.374 . S
C1520 H1494 0.950 . S
C1520 C1516 1.385 . S
C1520 C1519 1.374 . S
C1521 C1518 1.499 . S
C1521 C1522 1.373 . S
C1521 C1523 1.389 . S
C1522 H1495 0.950 . S
C1522 C1508 1.377 1_655 S
C1522 C1521 1.373 . S
C1523 C1507 1.377 1_655 S
C1523 C1521 1.389 . S
C1523 C1524 1.524 . S
C1524 C1523 1.524 . S
C1524 C1525 1.397 . S
C1524 C1529 1.363 . S
C1525 H1496 0.950 . S
C1525 C1524 1.397 . S
C1525 C1526 1.334 . S
C1526 H1497 0.950 . S
C1526 C1525 1.334 . S
C1526 C1527 1.287 . S
C1527 C1526 1.287 . S
C1527 C1528 1.524 . S
C1527 H1530 0.999 . S
C1528 H1498 0.950 . S
C1528 C1527 1.524 . S
C1528 C1529 1.415 . S
C1529 H1499 0.950 . S
C1529 C1524 1.363 . S
C1529 C1528 1.415 . S
H1530 C1527 0.999 . S
H1531 C1512 0.913 . S
H1532 C1550 0.951 . S
H1533 C1552 0.951 . S
H1534 C1554 0.950 . S
H1535 C1555 0.950 . S
H1536 C1557 0.950 . S
H1537 C1560 0.950 . S
H1538 C1561 0.950 . S
H1539 C1563 0.950 . S
H1540 C1564 0.907 1_565 S
H1541 C1565 0.951 . S
H1542 C1567 0.951 . S
H1543 C1569 0.950 . S
H1544 C1570 0.950 . S
H1545 C1572 0.950 . S
H1546 C1575 0.950 . S
H1547 C1576 0.950 . S
H1548 C1578 0.950 . S
H1549 C1579 0.908 1_545 S
C1550 H1532 0.951 . S
C1550 C1551 1.366 . S
C1550 C1552 1.388 . S
C1551 C1550 1.366 . S
C1551 C1555 1.385 . S
C1552 H1533 0.951 . S
C1552 C1550 1.388 . S
C1552 C1553 1.366 . S
C1553 C1552 1.366 . S
C1553 C1554 1.414 . S
C1553 C1556 1.499 . S
C1554 H1534 0.950 . S
C1554 C1553 1.414 . S
C1554 C1555 1.374 . S
C1555 H1535 0.950 . S
C1555 C1551 1.385 . S
C1555 C1554 1.374 . S
C1556 C1553 1.499 . S
C1556 C1557 1.373 . S
C1556 C1558 1.389 . S
C1557 H1536 0.950 . S
C1557 C1556 1.373 . S
C1557 C1573 1.377 1_545 S
C1558 C1556 1.389 . S
C1558 C1559 1.524 . S
C1558 C1572 1.377 1_545 S
C1559 C1558 1.524 . S
C1559 C1560 1.397 . S
C1559 C1564 1.363 . S
C1560 H1537 0.950 . S
C1560 C1559 1.397 . S
C1560 C1561 1.334 . S
C1561 H1538 0.950 . S
C1561 C1560 1.334 . S
C1561 C1562 1.287 . S
C1562 C1561 1.287 . S
C1562 C1563 1.524 . S
C1562 H1581 0.913 . S
C1563 H1539 0.950 . S
C1563 C1562 1.524 . S
C1563 C1564 1.415 . S
C1564 H1540 0.907 1_545 S
C1564 C1559 1.363 . S
C1564 C1563 1.415 . S
C1565 H1541 0.951 . S
C1565 C1566 1.366 . S
C1565 C1567 1.388 . S
C1566 C1565 1.366 . S
C1566 C1570 1.385 . S
C1567 H1542 0.951 . S
C1567 C1565 1.388 . S
C1567 C1568 1.366 . S
C1568 C1567 1.366 . S
C1568 C1569 1.414 . S
C1568 C1571 1.499 . S
C1569 H1543 0.950 . S
C1569 C1568 1.414 . S
C1569 C1570 1.374 . S
C1570 H1544 0.950 . S
C1570 C1566 1.385 . S
C1570 C1569 1.374 . S
C1571 C1568 1.499 . S
C1571 C1572 1.373 . S
C1571 C1573 1.389 . S
C1572 H1545 0.950 . S
C1572 C1558 1.377 1_565 S
C1572 C1571 1.373 . S
C1573 C1557 1.377 1_565 S
C1573 C1571 1.389 . S
C1573 C1574 1.524 . S
C1574 C1573 1.524 . S
C1574 C1575 1.397 . S
C1574 C1579 1.363 . S
C1575 H1546 0.950 . S
C1575 C1574 1.397 . S
C1575 C1576 1.334 . S
C1576 H1547 0.950 . S
C1576 C1575 1.334 . S
C1576 C1577 1.287 . S
C1577 C1576 1.287 . S
C1577 C1578 1.524 . S
C1577 H1580 0.999 . S
C1578 H1548 0.950 . S
C1578 C1577 1.524 . S
C1578 C1579 1.415 . S
C1579 H1549 0.908 1_565 S
C1579 C1574 1.363 . S
C1579 C1578 1.415 . S
H1580 C1577 0.999 . S
H1581 C1562 0.913 . S
H1582 C1600 0.951 . S
H1583 C1602 0.951 . S
H1584 C1604 0.950 . S
H1585 C1605 0.950 . S
H1586 C1607 0.950 . S
H1587 C1610 0.950 . S
H1588 C1611 0.950 . S
H1589 C1613 0.950 . S
H1590 C1614 0.950 . S
H1591 C1615 0.951 . S
H1592 C1617 0.951 . S
H1593 C1619 0.950 . S
H1594 C1620 0.950 . S
H1595 C1622 0.950 . S
H1596 C1625 0.950 . S
H1597 C1626 0.950 . S
H1598 C1628 0.950 . S
H1599 C1629 0.950 . S
C1600 H1582 0.951 . S
C1600 C1601 1.366 . S
C1600 C1602 1.388 . S
C1601 C1600 1.366 . S
C1601 C1605 1.385 . S
C1602 H1583 0.951 . S
C1602 C1600 1.388 . S
C1602 C1603 1.366 . S
C1603 C1602 1.366 . S
C1603 C1604 1.414 . S
C1603 C1606 1.499 . S
C1604 H1584 0.950 . S
C1604 C1603 1.414 . S
C1604 C1605 1.374 . S
C1605 H1585 0.950 . S
C1605 C1601 1.385 . S
C1605 C1604 1.374 . S
C1606 C1603 1.499 . S
C1606 C1607 1.373 . S
C1606 C1608 1.389 . S
C1607 H1586 0.950 . S
C1607 C1606 1.373 . S
C1607 C1623 1.377 . S
C1608 C1606 1.389 . S
C1608 C1609 1.524 . S
C1608 C1622 1.377 . S
C1609 C1608 1.524 . S
C1609 C1610 1.397 . S
C1609 C1614 1.363 . S
C1610 H1587 0.950 . S
C1610 C1609 1.397 . S
C1610 C1611 1.334 . S
C1611 H1588 0.950 . S
C1611 C1610 1.334 . S
C1611 C1612 1.287 . S
C1612 C1611 1.287 . S
C1612 C1613 1.524 . S
C1612 H1631 0.913 . S
C1613 H1589 0.950 . S
C1613 C1612 1.524 . S
C1613 C1614 1.415 . S
C1614 H1590 0.950 . S
C1614 C1609 1.363 . S
C1614 C1613 1.415 . S
C1615 H1591 0.951 . S
C1615 C1616 1.366 . S
C1615 C1617 1.388 . S
C1616 C1615 1.366 . S
C1616 C1620 1.385 . S
C1617 H1592 0.951 . S
C1617 C1615 1.388 . S
C1617 C1618 1.366 . S
C1618 C1617 1.366 . S
C1618 C1619 1.414 . S
C1618 C1621 1.499 . S
C1619 H1593 0.950 . S
C1619 C1618 1.414 . S
C1619 C1620 1.374 . S
C1620 H1594 0.950 . S
C1620 C1616 1.385 . S
C1620 C1619 1.374 . S
C1621 C1618 1.499 . S
C1621 C1622 1.373 . S
C1621 C1623 1.389 . S
C1622 H1595 0.950 . S
C1622 C1608 1.377 . S
C1622 C1621 1.373 . S
C1623 C1607 1.377 . S
C1623 C1621 1.389 . S
C1623 C1624 1.524 . S
C1624 C1623 1.524 . S
C1624 C1625 1.397 . S
C1624 C1629 1.363 . S
C1625 H1596 0.950 . S
C1625 C1624 1.397 . S
C1625 C1626 1.334 . S
C1626 H1597 0.950 . S
C1626 C1625 1.334 . S
C1626 C1627 1.287 . S
C1627 C1626 1.287 . S
C1627 C1628 1.524 . S
C1627 H1630 0.999 . S
C1628 H1598 0.950 . S
C1628 C1627 1.524 . S
C1628 C1629 1.415 . S
C1629 H1599 0.950 . S
C1629 C1624 1.363 . S
C1629 C1628 1.415 . S
H1630 C1627 0.999 . S
H1631 C1612 0.913 . S
C451 C3 1.255 . S
C466 C363 1.255 . S
C501 C399 1.254 . S
C516 C39 1.255 . S
C551 C75 1.255 . S
C566 C219 1.254 . S
C601 C111 1.255 . S
C616 C255 1.254 . S
C651 C147 1.254 . S
C666 C291 1.255 . S
C701 C327 1.255 . S
C716 C183 1.254 . S
C751 C14 1.577 . S
C766 C302 1.577 . S
C801 C50 1.577 . S
C816 C338 1.577 . S
C851 C374 1.577 . S
C866 C86 1.577 . S
C901 C122 1.577 . S
C916 C410 1.576 . S
C951 C158 1.577 . S
C966 C230 1.576 . S
C1001 C194 1.577 . S
C1016 C266 1.577 . S
C1051 C362 1.377 . S
C1066 C2 1.376 . S
C1101 C38 1.376 . S
C1116 C398 1.377 . S
C1151 C74 1.377 . S
C1166 C218 1.377 . S
C1201 C110 1.377 . S
C1216 C254 1.377 . S
C1251 C290 1.376 . S
C1266 C146 1.377 . S
C1301 C182 1.377 . S
C1316 C326 1.377 . S
C1351 C4 1.312 . S
C1366 C400 1.313 . S
C1401 C220 1.313 . S
C1416 C40 1.313 . S
C1451 C256 1.313 . S
C1466 C76 1.314 . S
C1501 C292 1.313 . S
C1516 C112 1.313 . S
C1551 C328 1.313 . S
C1566 C148 1.313 . S
C1601 C364 1.313 . S
C1616 C184 1.313 . S
