# Generated by pormake.
# Topology lcy, (6)-cn, num edge types: 1
# Building blocks:
#     Node 0, Type 0, BuildingBlock: VOLQOD_clean_sbu_1, # of connection points: 6
#     Node 1, Type 0, BuildingBlock: VOLQOD_clean_sbu_1, # of connection points: 6
#     Node 2, Type 0, BuildingBlock: VOLQOD_clean_sbu_1, # of connection points: 6
#     Node 3, Type 0, BuildingBlock: VOLQOD_clean_sbu_1, # of connection points: 6
#     Edge 4, Type (0, 0), BuildingBlock: UVAHIK_clean_linker_0, # of connection points: 2
#     Edge 5, Type (0, 0), BuildingBlock: UVAHIK_clean_linker_0, # of connection points: 2
#     Edge 6, Type (0, 0), BuildingBlock: UVAHIK_clean_linker_0, # of connection points: 2
#     Edge 7, Type (0, 0), BuildingBlock: UVAHIK_clean_linker_0, # of connection points: 2
#     Edge 8, Type (0, 0), BuildingBlock: UVAHIK_clean_linker_0, # of connection points: 2
#     Edge 9, Type (0, 0), BuildingBlock: UVAHIK_clean_linker_0, # of connection points: 2
#     Edge 10, Type (0, 0), BuildingBlock: UVAHIK_clean_linker_0, # of connection points: 2
#     Edge 11, Type (0, 0), BuildingBlock: UVAHIK_clean_linker_0, # of connection points: 2
#     Edge 12, Type (0, 0), BuildingBlock: UVAHIK_clean_linker_0, # of connection points: 2
#     Edge 13, Type (0, 0), BuildingBlock: UVAHIK_clean_linker_0, # of connection points: 2
#     Edge 14, Type (0, 0), BuildingBlock: UVAHIK_clean_linker_0, # of connection points: 2
#     Edge 15, Type (0, 0), BuildingBlock: UVAHIK_clean_linker_0, # of connection points: 2
# Relax obj value: 0.278
# Max RMSD: 0.253
# Mean RMSD: 0.248
data_MOF--net-lcy--node1-VOLQOD_clean_sbu_1--edge1-UVAHIK_clean_linker_0
_symmetry_space_group_name_H-M    P1
_symmetry_Int_Tables_number       1
_symmetry_cell_setting            triclinic
loop_
_symmetry_equiv_pos_as_xyz
'x, y, z'
_cell_length_a     34.030267
_cell_length_b     33.854247
_cell_length_c     33.88773
_cell_angle_alpha  91.376376
_cell_angle_beta   88.428781
_cell_angle_gamma 92.88074
loop_
_atom_site_label
_atom_site_type_symbol
_atom_site_fract_x
_atom_site_fract_y
_atom_site_fract_z
_atom_type_partial_charge
O0 O 0.39352 0.29888 0.43452 0.0
Zn1 Zn 0.35256 0.30578 0.39306 0.0
O2 O 0.3595 0.35637 0.36748 0.0
Zn3 Zn 0.31439 0.3882 0.37763 0.0
Zn4 Zn 0.40568 0.38382 0.38831 0.0
Zn5 Zn 0.36526 0.3488 0.31078 0.0
O6 O 0.29747 0.41338 0.32768 0.0
O7 O 0.32011 0.37058 0.28286 0.0
O8 O 0.29692 0.29791 0.41397 0.0
O9 O 0.26912 0.35317 0.3977 0.0
O10 O 0.32609 0.42988 0.4195 0.0
O11 O 0.39044 0.4266 0.42685 0.0
O12 O 0.43918 0.4076 0.34475 0.0
O13 O 0.35996 0.26201 0.35323 0.0
O14 O 0.41282 0.38074 0.29049 0.0
O15 O 0.36903 0.29131 0.29553 0.0
C16 C 0.42726 0.31658 0.43825 0.0
C17 C 0.29906 0.39952 0.29241 0.0
C18 C 0.3578 0.44149 0.4363 0.0
C19 C 0.26677 0.31859 0.41189 0.0
C20 C 0.4387 0.40331 0.30733 0.0
C21 C 0.36601 0.2602 0.31603 0.0
O22 O 0.43693 0.34763 0.41911 0.0
O23 O 0.9222 0.0652 0.67255 0.0
Zn24 Zn 0.88325 0.10815 0.67593 0.0
O25 O 0.84992 0.1071 0.63059 0.0
Zn26 Zn 0.84709 0.16072 0.61221 0.0
Zn27 Zn 0.87379 0.07497 0.58986 0.0
Zn28 Zn 0.79755 0.08446 0.64396 0.0
O29 O 0.79086 0.17436 0.60459 0.0
O30 O 0.75702 0.12257 0.6297 0.0
O31 O 0.91042 0.16153 0.6844 0.0
O32 O 0.8726 0.19951 0.65065 0.0
O33 O 0.87932 0.16817 0.56187 0.0
O34 O 0.90092 0.10843 0.54861 0.0
O35 O 0.83374 0.0378 0.56602 0.0
O36 O 0.84991 0.09825 0.72411 0.0
O37 O 0.78462 0.03495 0.6107 0.0
O38 O 0.79166 0.07526 0.70295 0.0
C39 C 0.93026 0.04042 0.64501 0.0
C40 C 0.75821 0.15632 0.61375 0.0
C41 C 0.90012 0.14498 0.54091 0.0
C42 C 0.89995 0.19557 0.67498 0.0
C43 C 0.80103 0.02251 0.57876 0.0
C44 C 0.81502 0.08441 0.73094 0.0
O45 O 0.91363 0.04094 0.61192 0.0
O46 O 0.08561 0.67452 0.79529 0.0
Zn47 Zn 0.09527 0.63829 0.83993 0.0
O48 O 0.14925 0.64354 0.85722 0.0
Zn49 Zn 0.17241 0.59177 0.85733 0.0
Zn50 Zn 0.17881 0.67695 0.82045 0.0
Zn51 Zn 0.15057 0.66828 0.90992 0.0
O52 O 0.18892 0.57862 0.91221 0.0
O53 O 0.16711 0.62886 0.9488 0.0
O54 O 0.08066 0.58239 0.82369 0.0
O55 O 0.13248 0.54939 0.83984 0.0
O56 O 0.21818 0.58863 0.81795 0.0
O57 O 0.21738 0.64654 0.78869 0.0
O58 O 0.20978 0.71885 0.84898 0.0
O59 O 0.05833 0.6546 0.88346 0.0
O60 O 0.19062 0.7149 0.91192 0.0
O61 O 0.09655 0.6846 0.9283 0.0
C62 C 0.10793 0.69946 0.77673 0.0
C63 C 0.18286 0.59555 0.94569 0.0
C64 C 0.23126 0.61261 0.7917 0.0
C65 C 0.09794 0.5501 0.82634 0.0
C66 C 0.21191 0.73104 0.88461 0.0
C67 C 0.06251 0.67449 0.91554 0.0
O68 O 0.14438 0.70371 0.78385 0.0
O69 O 0.53632 0.88901 0.17555 0.0
Zn70 Zn 0.58301 0.85411 0.17055 0.0
O71 O 0.61707 0.86646 0.12478 0.0
Zn72 Zn 0.61857 0.82098 0.08843 0.0
Zn73 Zn 0.59586 0.90994 0.09817 0.0
Zn74 Zn 0.67037 0.88169 0.14078 0.0
O75 O 0.67443 0.80865 0.07322 0.0
O76 O 0.70829 0.84285 0.11886 0.0
O77 O 0.56545 0.79641 0.16959 0.0
O78 O 0.59498 0.77296 0.11524 0.0
O79 O 0.58633 0.82885 0.04016 0.0
O80 O 0.5726 0.89194 0.04747 0.0
O81 O 0.63657 0.95252 0.08692 0.0
O82 O 0.61326 0.86386 0.21992 0.0
O83 O 0.68947 0.93375 0.11694 0.0
O84 O 0.6737 0.88395 0.20021 0.0
C85 C 0.52937 0.92018 0.15716 0.0
C86 C 0.70666 0.81769 0.09034 0.0
C87 C 0.57006 0.85932 0.0282 0.0
C88 C 0.57399 0.76763 0.14651 0.0
C89 C 0.67244 0.95816 0.09597 0.0
C90 C 0.64841 0.87555 0.2276 0.0
O91 O 0.55148 0.93234 0.12871 0.0
C92 C 0.22421 0.55009 0.98197 0.0
C93 C 0.19303 0.57564 0.98203 0.0
C94 C 0.23362 0.53139 0.01657 0.0
C95 C 0.21446 0.53421 0.12602 0.0
H96 H 0.25905 0.43125 0.11772 0.0
C97 C 0.27838 0.46056 0.2606 0.0
C98 C 0.27909 0.41919 0.26085 0.0
C99 C 0.26482 0.47947 0.22774 0.0
C100 C 0.24589 0.45964 0.12088 0.0
H101 H 0.14659 0.60104 0.01789 0.0
H102 H 0.16134 0.56686 0.07751 0.0
H103 H 0.24092 0.4634 0.05852 0.0
H104 H 0.26395 0.36492 0.2285 0.0
H105 H 0.23767 0.3975 0.17243 0.0
H106 H 0.21715 0.5293 0.18856 0.0
C107 C 0.17984 0.56237 0.05146 0.0
C108 C 0.23627 0.47861 0.08658 0.0
C109 C 0.17113 0.58182 0.01715 0.0
C110 C 0.264 0.39693 0.22878 0.0
C111 C 0.2494 0.41573 0.19643 0.0
C112 C 0.2232 0.51479 0.1604 0.0
C113 C 0.21135 0.53698 0.05179 0.0
C114 C 0.2208 0.51638 0.08856 0.0
C115 C 0.25075 0.45732 0.19483 0.0
C116 C 0.23941 0.47735 0.15835 0.0
H117 H 0.24177 0.54508 0.95533 0.0
H118 H 0.25867 0.51289 0.01564 0.0
H119 H 0.20319 0.56349 0.12899 0.0
H120 H 0.2903 0.47838 0.28486 0.0
H121 H 0.26697 0.51147 0.22764 0.0
C122 C 0.69954 0.88451 0.27926 0.0
C123 C 0.65977 0.87952 0.26934 0.0
C124 C 0.71003 0.8889 0.31872 0.0
C125 C 0.67325 0.92624 0.41289 0.0
H126 H 0.76382 0.87724 0.45384 0.0
C127 C 0.74038 0.98273 0.55819 0.0
C128 C 0.78107 0.99149 0.55407 0.0
C129 C 0.721 0.9582 0.53028 0.0
C130 C 0.73836 0.89106 0.44291 0.0
H131 H 0.59982 0.87469 0.29312 0.0
H132 H 0.6183 0.88308 0.36199 0.0
H133 H 0.73863 0.85567 0.38965 0.0
H134 H 0.83382 0.97879 0.51957 0.0
H135 H 0.80028 0.93698 0.47103 0.0
H136 H 0.67435 0.96339 0.46472 0.0
C137 C 0.64124 0.88336 0.33917 0.0
C138 C 0.72401 0.87871 0.40622 0.0
C139 C 0.63075 0.87852 0.29975 0.0
C140 C 0.80235 0.97302 0.52334 0.0
C141 C 0.78311 0.94858 0.49566 0.0
C142 C 0.68783 0.93888 0.44942 0.0
C143 C 0.68096 0.88878 0.34899 0.0
C144 C 0.69215 0.89711 0.39032 0.0
C145 C 0.74205 0.9419 0.498 0.0
C146 C 0.72146 0.92244 0.46415 0.0
H147 H 0.72259 0.88523 0.25656 0.0
H148 H 0.74087 0.89358 0.32548 0.0
H149 H 0.64874 0.94105 0.40121 0.0
H150 H 0.72323 -0.00363 0.58171 0.0
H151 H 0.68937 0.95318 0.53314 0.0
C152 C 0.26636 0.55978 0.75403 0.0
C153 C 0.26058 0.60007 0.76162 0.0
C154 C 0.28844 0.54795 0.72081 0.0
C155 C 0.34456 0.53028 0.65184 0.0
H156 H 0.31274 0.58329 0.55847 0.0
C157 C 0.38825 0.47586 0.49508 0.0
C158 C 0.35598 0.46977 0.47016 0.0
C159 C 0.38465 0.49794 0.53023 0.0
C160 C 0.32212 0.56838 0.58427 0.0
H161 H 0.2766 0.65969 0.74273 0.0
H162 H 0.31553 0.63903 0.68528 0.0
H163 H 0.29371 0.60877 0.62357 0.0
H164 H 0.29543 0.48411 0.46147 0.0
H165 H 0.28923 0.52263 0.52264 0.0
H166 H 0.37115 0.48863 0.61221 0.0
C167 C 0.30215 0.61656 0.70429 0.0
C168 C 0.3116 0.58319 0.62162 0.0
C169 C 0.27993 0.62835 0.73727 0.0
C170 C 0.3208 0.48809 0.48004 0.0
C171 C 0.31732 0.51038 0.51501 0.0
C172 C 0.35518 0.51551 0.6144 0.0
C173 C 0.30531 0.57623 0.69481 0.0
C174 C 0.32181 0.56372 0.6558 0.0
C175 C 0.34887 0.51469 0.54092 0.0
C176 C 0.34308 0.53381 0.58027 0.0
H177 H 0.25188 0.5373 0.7723 0.0
H178 H 0.29014 0.51661 0.71421 0.0
H179 H 0.35315 0.51488 0.67764 0.0
H180 H 0.41583 0.46222 0.48831 0.0
H181 H 0.40955 0.50116 0.54948 0.0
C182 C 0.67735 0.02218 0.06127 0.0
C183 C 0.69586 0.98915 0.07486 0.0
C184 C 0.69467 0.04452 0.03078 0.0
C185 C 0.7145 0.05494 0.94496 0.0
H186 H 0.82532 0.06351 0.91545 0.0
C187 C 0.76752 0.057 0.78252 0.0
C188 C 0.80165 0.07999 0.77254 0.0
C189 C 0.75574 0.05266 0.82209 0.0
C190 C 0.79424 0.06193 0.92332 0.0
H191 H 0.74875 0.9561 0.07044 0.0
H192 H 0.77841 -0.00596 0.01651 0.0
H193 H 0.8056 0.04989 0.98354 0.0
H194 H 0.84957 0.11741 0.79616 0.0
H195 H 0.8285 0.11065 0.86477 0.0
H196 H 0.70309 0.06738 0.88497 0.0
C197 C 0.75089 0.00337 0.02953 0.0
C198 C 0.78294 0.05373 0.96234 0.0
C199 C 0.73388 0.9815 0.06058 0.0
C200 C 0.82334 0.09906 0.80285 0.0
C201 C 0.81136 0.09508 0.84228 0.0
C202 C 0.7258 0.06354 0.90613 0.0
C203 C 0.73038 0.03366 0.01276 0.0
C204 C 0.7429 0.04913 0.97343 0.0
C205 C 0.7776 0.07161 0.85245 0.0
C206 C 0.76575 0.0661 0.89457 0.0
H207 H 0.64818 0.02897 0.0722 0.0
H208 H 0.67873 0.06855 0.01951 0.0
H209 H 0.68336 0.05104 0.95206 0.0
H210 H 0.75028 0.04184 0.75985 0.0
H211 H 0.72993 0.03378 0.82888 0.0
C212 C 0.95633 0.13736 0.49283 0.0
C213 C 0.92917 0.16188 0.51187 0.0
C214 C 0.99003 0.15379 0.47399 0.0
C215 C 0.04097 0.24503 0.43789 0.0
H216 H 0.13218 0.20213 0.48433 0.0
C217 C 0.19499 0.3244 0.42807 0.0
C218 C 0.22765 0.3008 0.42316 0.0
C219 C 0.15752 0.30711 0.43585 0.0
C220 C 0.10722 0.21408 0.47044 0.0
H221 H 0.91382 0.22286 0.522 0.0
H222 H 0.97269 0.25142 0.48882 0.0
H223 H 0.06723 0.17171 0.49768 0.0
H224 H 0.24662 0.24054 0.42242 0.0
H225 H 0.18139 0.21038 0.43493 0.0
H226 H 0.08107 0.28737 0.41044 0.0
C227 C 0.968 0.21953 0.48887 0.0
C228 C 0.06995 0.19659 0.47811 0.0
C229 C 0.93432 0.20311 0.50795 0.0
C230 C 0.22215 0.25962 0.42653 0.0
C231 C 0.18467 0.24231 0.4338 0.0
C232 C 0.07843 0.2623 0.42975 0.0
C233 C -0.00297 0.19498 0.47351 0.0
C234 C 0.03647 0.212 0.46213 0.0
C235 C 0.15185 0.2658 0.43844 0.0
C236 C 0.11199 0.24718 0.4462 0.0
H237 H 0.95306 0.10547 0.49477 0.0
H238 H 0.0117 0.13425 0.46169 0.0
H239 H 0.01556 0.25743 0.42524 0.0
H240 H 0.19832 0.35626 0.42576 0.0
H241 H 0.13306 0.32618 0.44004 0.0
C242 C 0.04948 0.72856 0.74743 0.0
C243 C 0.09054 0.72751 0.75023 0.0
C244 C 0.03289 0.75984 0.72884 0.0
C245 C 0.05412 0.84679 0.66582 0.0
H246 H 0.97334 0.89324 0.73241 0.0
C247 C 0.96914 0.0019 0.69103 0.0
C248 C 0.95611 0.0078 0.65273 0.0
C249 C 0.98832 0.96775 0.69952 0.0
C250 C -0.00392 0.88079 0.71365 0.0
H251 H 0.14642 0.75654 0.73255 0.0
H252 H 0.1174 0.81113 0.70047 0.0
H253 H -0.00084 0.8306 0.75017 0.0
H254 H 0.95535 0.98369 0.59273 0.0
H255 H 0.98877 0.92413 0.60773 0.0
H256 H 0.0514 0.8977 0.62974 0.0
C257 C 0.09804 0.78786 0.71264 0.0
C258 C 0.01039 0.84457 0.72345 0.0
C259 C 0.11465 0.75663 0.73125 0.0
C260 C 0.96479 0.97997 0.62263 0.0
C261 C 0.98409 0.94589 0.63113 0.0
C262 C 0.0396 0.88305 0.65588 0.0
C263 C 0.05701 0.79057 0.71262 0.0
C264 C 0.03974 0.82729 0.69982 0.0
C265 C -0.00501 0.93891 0.66989 0.0
C266 C 0.01073 0.90057 0.67998 0.0
H267 H 0.03005 0.70641 0.76138 0.0
H268 H 0.00112 0.76082 0.72856 0.0
H269 H 0.07669 0.83408 0.64704 0.0
H270 H 0.96315 0.02284 0.71484 0.0
H271 H -0.00291 0.96343 0.72954 0.0
C272 C 0.26545 0.77952 0.86349 0.0
C273 C 0.24341 0.76107 0.89427 0.0
C274 C 0.30054 0.8009 0.87119 0.0
C275 C 0.36278 0.84659 0.94833 0.0
H276 H 0.44876 0.80187 0.88733 0.0
C277 C 0.52977 0.81817 0.98034 0.0
C278 C 0.54188 0.85559 -0.00427 0.0
C279 C 0.49581 0.81366 0.95808 0.0
C280 C 0.42503 0.81496 0.90419 0.0
H281 H 0.23893 0.75389 0.95769 0.0
H282 H 0.30036 0.79167 0.97117 0.0
H283 H 0.38075 0.78403 0.87019 0.0
H284 H 0.53066 0.91825 -0.00428 0.0
H285 H 0.47136 0.91008 0.95726 0.0
H286 H 0.40704 0.87632 0.98327 0.0
C287 C 0.29043 0.78926 0.94106 0.0
C288 C 0.38619 0.805 0.89432 0.0
C289 C 0.25531 0.76759 0.93335 0.0
C290 C 0.52179 0.88887 0.98489 0.0
C291 C 0.48776 0.88429 0.96296 0.0
C292 C 0.40163 0.85697 0.95787 0.0
C293 C 0.31411 0.8046 0.90982 0.0
C294 C 0.35475 0.81994 0.91694 0.0
C295 C 0.47349 0.84646 0.951 0.0
C296 C 0.43305 0.84044 0.9365 0.0
H297 H 0.25679 0.77565 0.83306 0.0
H298 H 0.31799 0.81303 0.84671 0.0
H299 H 0.33904 0.85852 0.96612 0.0
H300 H 0.54468 0.79198 0.98793 0.0
H301 H 0.48538 0.78411 0.94915 0.0
C302 C 0.3715 0.21712 0.25521 0.0
C303 C 0.37039 0.2211 0.29657 0.0
C304 C 0.37779 0.18048 0.237 0.0
C305 C 0.382 0.07271 0.25558 0.0
H306 H 0.46022 0.07782 0.17034 0.0
C307 C 0.48405 0.94701 0.20955 0.0
C308 C 0.49642 0.94451 0.16975 0.0
C309 C 0.45854 0.97618 0.22222 0.0
C310 C 0.43771 0.07571 0.19352 0.0
H311 H 0.37364 0.18944 0.35128 0.0
H312 H 0.38579 0.12596 0.31955 0.0
H313 H 0.4346 0.1384 0.19741 0.0
H314 H 0.48867 0.96722 0.11132 0.0
H315 H 0.44361 0.0173 0.13323 0.0
H316 H 0.38673 0.00974 0.25251 0.0
C317 C 0.38101 0.15088 0.30112 0.0
C318 C 0.42296 0.11055 0.20906 0.0
C319 C 0.3744 0.18742 0.31932 0.0
C320 C 0.48018 0.96907 0.14234 0.0
C321 C 0.45446 -0.00222 0.15487 0.0
C322 C 0.39696 0.03769 0.24006 0.0
C323 C 0.38347 0.14713 0.25976 0.0
C324 C 0.39542 0.10957 0.24068 0.0
C325 C 0.44487 0.00289 0.19516 0.0
C326 C 0.42537 0.03895 0.20921 0.0
H327 H 0.36798 0.24239 0.23685 0.0
H328 H 0.37887 0.17841 0.20505 0.0
H329 H 0.36043 0.07096 0.27965 0.0
H330 H 0.49615 0.92836 0.23123 0.0
H331 H 0.45175 0.9795 0.2535 0.0
C332 C 0.72085 0.2119 0.58811 0.0
C333 C 0.72079 0.17402 0.60421 0.0
C334 C 0.6857 0.22753 0.57698 0.0
C335 C 0.58693 0.19643 0.54477 0.0
H336 H 0.56647 0.30731 0.56138 0.0
C337 C 0.44911 0.26457 0.48359 0.0
C338 C 0.45649 0.30071 0.46449 0.0
C339 C 0.47799 0.24905 0.50655 0.0
C340 C 0.57183 0.2763 0.55639 0.0
H341 H 0.68349 0.1233 0.62218 0.0
H342 H 0.62225 0.15069 0.60269 0.0
H343 H 0.62384 0.28047 0.59071 0.0
H344 H 0.49971 0.34933 0.45547 0.0
H345 H 0.5498 0.32214 0.49475 0.0
H346 H 0.53568 0.19248 0.50942 0.0
C347 C 0.64956 0.1681 0.59844 0.0
C348 C 0.60466 0.26096 0.57319 0.0
C349 C 0.68467 0.15253 0.60976 0.0
C350 C 0.49294 0.32138 0.46966 0.0
C351 C 0.52165 0.30595 0.49254 0.0
C352 C 0.55416 0.21181 0.52783 0.0
C353 C 0.64975 0.20558 0.58156 0.0
C354 C 0.61296 0.22105 0.56694 0.0
C355 C 0.51472 0.26945 0.51096 0.0
C356 C 0.54669 0.2521 0.53279 0.0
H357 H 0.74811 0.22928 0.58347 0.0
H358 H 0.68684 0.25634 0.56365 0.0
H359 H 0.59278 0.16563 0.53909 0.0
H360 H 0.42131 0.24796 0.48032 0.0
H361 H 0.47165 0.22101 0.52068 0.0
C362 C 0.09429 0.47619 0.81819 0.0
C363 C 0.07771 0.51281 0.81264 0.0
C364 C 0.07547 0.44116 0.8043 0.0
C365 C 0.00556 0.40405 0.73026 0.0
H366 H 0.99297 0.3116 0.79568 0.0
C367 C 0.90674 0.26898 0.68527 0.0
C368 C 0.92033 0.23129 0.69209 0.0
C369 C 0.92638 0.3028 0.7007 0.0
C370 C -0.0033 0.337 0.77687 0.0
H371 H 0.02815 0.54126 0.7885 0.0
H372 H -0.00449 0.48017 0.7643 0.0
H373 H 0.02697 0.37167 0.82138 0.0
H374 H 0.9652 0.19959 0.72063 0.0
H375 H -0.00014 0.25875 0.74699 0.0
H376 H 0.97574 0.36954 0.68562 0.0
C377 C 0.02317 0.47864 0.77913 0.0
C378 C 0.0161 0.37136 0.79162 0.0
C379 C 0.0418 0.51359 0.79321 0.0
C380 C 0.95386 0.22818 0.71494 0.0
C381 C 0.97363 0.26207 0.73022 0.0
C382 C 0.9864 0.3697 0.71545 0.0
C383 C 0.03991 0.44213 0.78436 0.0
C384 C 0.0204 0.40529 0.76854 0.0
C385 C 0.96019 0.29976 0.72312 0.0
C386 C 0.98146 0.33588 0.73869 0.0
H387 H 0.1219 0.47455 0.83308 0.0
H388 H 0.08912 0.41339 0.80848 0.0
H389 H 0.00908 0.42959 0.71159 0.0
H390 H 0.88085 0.27244 0.66803 0.0
H391 H 0.91485 0.33136 0.69529 0.0
C392 C 0.02964 0.70989 0.97249 0.0
C393 C 0.02683 0.68645 0.93778 0.0
C394 C -0.00436 0.7219 0.99253 0.0
C395 C 0.88838 0.69899 0.00265 0.0
H396 H 0.88464 0.80873 0.03734 0.0
C397 C 0.74324 0.77288 0.04388 0.0
C398 C 0.74333 0.79956 0.0763 0.0
C399 C 0.77827 0.75712 0.02983 0.0
C400 C 0.88539 0.77786 0.02834 0.0
H401 H 0.98598 0.65683 0.89725 0.0
H402 H 0.92707 0.67807 0.93188 0.0
H403 H 0.94547 0.7846 0.00834 0.0
H404 H 0.78027 0.82989 0.11994 0.0
H405 H 0.84112 0.80216 0.09559 0.0
H406 H 0.82809 0.69242 0.02213 0.0
C407 C 0.95545 0.68679 0.94393 0.0
C408 C 0.92025 0.76403 0.01177 0.0
C409 C 0.98932 0.67485 0.92391 0.0
C410 C 0.77911 0.80959 0.09476 0.0
C411 C 0.81407 0.79386 0.0807 0.0
C412 C 0.85351 0.71282 0.0192 0.0
C413 C 0.9582 0.7106 0.97832 0.0
C414 C 0.922 0.72455 -0.00164 0.0
C415 C 0.8141 0.76773 0.0479 0.0
C416 C 0.85154 0.75249 0.03189 0.0
H417 H 0.05807 0.71923 0.98405 0.0
H418 H -0.00134 0.73995 0.0192 0.0
H419 H 0.88901 0.66825 0.99313 0.0
H420 H 0.71623 0.76455 0.02895 0.0
H421 H 0.77741 0.73737 0.00421 0.0
C422 C 0.53538 0.72005 0.18972 0.0
C423 C 0.56161 0.72683 0.15761 0.0
C424 C 0.52632 0.68165 0.20227 0.0
C425 C 0.53029 0.57597 0.17249 0.0
H426 H 0.52139 0.56213 0.28565 0.0
C427 C 0.45381 0.43966 0.24511 0.0
C428 C 0.46482 0.42972 0.28314 0.0
C429 C 0.47281 0.47158 0.22594 0.0
C430 C 0.52453 0.56517 0.25397 0.0
H431 H 0.59809 0.69845 0.1128 0.0
H432 H 0.58279 0.63152 0.13521 0.0
H433 H 0.53858 0.62711 0.2601 0.0
H434 H 0.50717 0.44232 0.32896 0.0
H435 H 0.54134 0.49706 0.29488 0.0
H436 H 0.51673 0.51369 0.16653 0.0
C437 C 0.56883 0.65584 0.15036 0.0
C438 C 0.53365 0.60269 0.23929 0.0
C439 C 0.57768 0.69426 0.13761 0.0
C440 C 0.49765 0.44973 0.29993 0.0
C441 C 0.51702 0.48127 0.28052 0.0
C442 C 0.5214 0.53824 0.18722 0.0
C443 C 0.54355 0.64917 0.18323 0.0
C444 C 0.53587 0.60871 0.19842 0.0
C445 C 0.50352 0.49383 0.24424 0.0
C446 C 0.51779 0.53253 0.22815 0.0
H447 H 0.52219 0.74445 0.20554 0.0
H448 H 0.50596 0.67744 0.22712 0.0
H449 H 0.53172 0.57963 0.14082 0.0
H450 H 0.42858 0.42479 0.23139 0.0
H451 H 0.46149 0.48046 0.19813 0.0
loop_
_geom_bond_atom_site_label_1
_geom_bond_atom_site_label_2
_geom_bond_distance
_geom_bond_site_symmetry_2
_ccdc_geom_bond_type
O0 Zn1 1.953 . S
O0 C16 1.225 . S
Zn1 O0 1.953 . S
Zn1 O2 1.949 . S
Zn1 O8 1.919 . S
Zn1 O13 1.924 . S
O2 Zn1 1.949 . S
O2 Zn3 1.923 . S
O2 Zn4 1.950 . S
O2 Zn5 1.945 . S
Zn3 O2 1.923 . S
Zn3 O6 1.933 . S
Zn3 O9 1.941 . S
Zn3 O10 1.965 . S
Zn4 O2 1.950 . S
Zn4 O11 1.938 . S
Zn4 O12 1.906 . S
Zn4 O22 1.953 . S
Zn5 O2 1.945 . S
Zn5 O7 1.932 . S
Zn5 O14 1.977 . S
Zn5 O15 1.910 . S
O6 Zn3 1.933 . S
O6 C17 1.226 . S
O7 Zn5 1.932 . S
O7 C17 1.307 . S
O8 Zn1 1.919 . S
O8 C19 1.253 . S
O9 Zn3 1.941 . S
O9 C19 1.283 . S
O10 Zn3 1.965 . S
O10 C18 1.303 . S
O11 Zn4 1.938 . S
O11 C18 1.247 . S
O12 Zn4 1.906 . S
O12 C20 1.304 . S
O13 Zn1 1.924 . S
O13 C21 1.311 . S
O14 Zn5 1.977 . S
O14 C20 1.272 . S
O15 Zn5 1.910 . S
O15 C21 1.231 . S
C16 O0 1.225 . S
C16 O22 1.298 . S
C17 O6 1.226 . S
C17 O7 1.307 . S
C18 O10 1.303 . S
C18 O11 1.247 . S
C19 O8 1.253 . S
C19 O9 1.283 . S
C20 O12 1.304 . S
C20 O14 1.272 . S
C21 O13 1.311 . S
C21 O15 1.231 . S
O22 Zn4 1.953 . S
O22 C16 1.298 . S
O23 Zn24 1.953 . S
O23 C39 1.225 . S
Zn24 O23 1.953 . S
Zn24 O25 1.949 . S
Zn24 O31 1.919 . S
Zn24 O36 1.924 . S
O25 Zn24 1.949 . S
O25 Zn26 1.923 . S
O25 Zn27 1.950 . S
O25 Zn28 1.945 . S
Zn26 O25 1.923 . S
Zn26 O29 1.933 . S
Zn26 O32 1.941 . S
Zn26 O33 1.965 . S
Zn27 O25 1.950 . S
Zn27 O34 1.938 . S
Zn27 O35 1.906 . S
Zn27 O45 1.953 . S
Zn28 O25 1.945 . S
Zn28 O30 1.932 . S
Zn28 O37 1.977 . S
Zn28 O38 1.910 . S
O29 Zn26 1.933 . S
O29 C40 1.226 . S
O30 Zn28 1.932 . S
O30 C40 1.307 . S
O31 Zn24 1.919 . S
O31 C42 1.253 . S
O32 Zn26 1.941 . S
O32 C42 1.283 . S
O33 Zn26 1.965 . S
O33 C41 1.303 . S
O34 Zn27 1.938 . S
O34 C41 1.247 . S
O35 Zn27 1.906 . S
O35 C43 1.304 . S
O36 Zn24 1.924 . S
O36 C44 1.311 . S
O37 Zn28 1.977 . S
O37 C43 1.272 . S
O38 Zn28 1.910 . S
O38 C44 1.231 . S
C39 O23 1.225 . S
C39 O45 1.298 . S
C40 O29 1.226 . S
C40 O30 1.307 . S
C41 O33 1.303 . S
C41 O34 1.247 . S
C42 O31 1.253 . S
C42 O32 1.283 . S
C43 O35 1.304 . S
C43 O37 1.272 . S
C44 O36 1.311 . S
C44 O38 1.231 . S
O45 Zn27 1.953 . S
O45 C39 1.298 . S
O46 Zn47 1.953 . S
O46 C62 1.225 . S
Zn47 O46 1.953 . S
Zn47 O48 1.949 . S
Zn47 O54 1.919 . S
Zn47 O59 1.924 . S
O48 Zn47 1.949 . S
O48 Zn49 1.923 . S
O48 Zn50 1.950 . S
O48 Zn51 1.945 . S
Zn49 O48 1.923 . S
Zn49 O52 1.933 . S
Zn49 O55 1.941 . S
Zn49 O56 1.965 . S
Zn50 O48 1.950 . S
Zn50 O57 1.938 . S
Zn50 O58 1.906 . S
Zn50 O68 1.953 . S
Zn51 O48 1.945 . S
Zn51 O53 1.932 . S
Zn51 O60 1.977 . S
Zn51 O61 1.910 . S
O52 Zn49 1.933 . S
O52 C63 1.226 . S
O53 Zn51 1.932 . S
O53 C63 1.307 . S
O54 Zn47 1.919 . S
O54 C65 1.253 . S
O55 Zn49 1.941 . S
O55 C65 1.283 . S
O56 Zn49 1.965 . S
O56 C64 1.303 . S
O57 Zn50 1.938 . S
O57 C64 1.247 . S
O58 Zn50 1.906 . S
O58 C66 1.304 . S
O59 Zn47 1.924 . S
O59 C67 1.311 . S
O60 Zn51 1.977 . S
O60 C66 1.272 . S
O61 Zn51 1.910 . S
O61 C67 1.231 . S
C62 O46 1.225 . S
C62 O68 1.298 . S
C63 O52 1.226 . S
C63 O53 1.307 . S
C64 O56 1.303 . S
C64 O57 1.247 . S
C65 O54 1.253 . S
C65 O55 1.283 . S
C66 O58 1.304 . S
C66 O60 1.272 . S
C67 O59 1.311 . S
C67 O61 1.231 . S
O68 Zn50 1.953 . S
O68 C62 1.298 . S
O69 Zn70 1.953 . S
O69 C85 1.225 . S
Zn70 O69 1.953 . S
Zn70 O71 1.949 . S
Zn70 O77 1.919 . S
Zn70 O82 1.924 . S
O71 Zn70 1.949 . S
O71 Zn72 1.923 . S
O71 Zn73 1.950 . S
O71 Zn74 1.945 . S
Zn72 O71 1.923 . S
Zn72 O75 1.933 . S
Zn72 O78 1.941 . S
Zn72 O79 1.965 . S
Zn73 O71 1.950 . S
Zn73 O80 1.938 . S
Zn73 O81 1.906 . S
Zn73 O91 1.953 . S
Zn74 O71 1.945 . S
Zn74 O76 1.932 . S
Zn74 O83 1.977 . S
Zn74 O84 1.910 . S
O75 Zn72 1.933 . S
O75 C86 1.226 . S
O76 Zn74 1.932 . S
O76 C86 1.307 . S
O77 Zn70 1.919 . S
O77 C88 1.253 . S
O78 Zn72 1.941 . S
O78 C88 1.283 . S
O79 Zn72 1.965 . S
O79 C87 1.303 . S
O80 Zn73 1.938 . S
O80 C87 1.247 . S
O81 Zn73 1.906 . S
O81 C89 1.304 . S
O82 Zn70 1.924 . S
O82 C90 1.311 . S
O83 Zn74 1.977 . S
O83 C89 1.272 . S
O84 Zn74 1.910 . S
O84 C90 1.231 . S
C85 O69 1.225 . S
C85 O91 1.298 . S
C86 O75 1.226 . S
C86 O76 1.307 . S
C87 O79 1.303 . S
C87 O80 1.247 . S
C88 O77 1.253 . S
C88 O78 1.283 . S
C89 O81 1.304 . S
C89 O83 1.272 . S
C90 O82 1.311 . S
C90 O84 1.231 . S
O91 Zn73 1.953 . S
O91 C85 1.298 . S
C92 C93 1.349 . S
C92 C94 1.327 1_556 S
C92 H117 0.950 . S
C93 C92 1.349 . S
C93 C109 1.349 1_556 S
C94 C92 1.327 1_554 S
C94 C113 1.429 . S
C94 H118 0.950 . S
C95 C112 1.574 . S
C95 C114 1.368 . S
C95 H119 0.949 . S
H96 C100 0.949 . S
C97 C98 1.349 . S
C97 C99 1.327 . S
C97 H120 0.950 . S
C98 C97 1.349 . S
C98 C110 1.349 . S
C99 C97 1.327 . S
C99 C115 1.429 . S
C99 H121 0.950 . S
C100 H96 0.949 . S
C100 C108 1.574 . S
C100 C116 1.368 . S
H101 C109 0.950 . S
H102 C107 0.950 . S
H103 C108 0.949 . S
H104 C110 0.950 . S
H105 C111 0.950 . S
H106 C112 0.949 . S
C107 H102 0.950 . S
C107 C109 1.327 . S
C107 C113 1.429 . S
C108 C100 1.574 . S
C108 H103 0.949 . S
C108 C114 1.368 . S
C109 C93 1.349 1_554 S
C109 H101 0.950 . S
C109 C107 1.327 . S
C110 C98 1.349 . S
C110 H104 0.950 . S
C110 C111 1.327 . S
C111 H105 0.950 . S
C111 C110 1.327 . S
C111 C115 1.429 . S
C112 C95 1.574 . S
C112 H106 0.949 . S
C112 C116 1.368 . S
C113 C94 1.429 . S
C113 C107 1.429 . S
C113 C114 1.523 . S
C114 C95 1.368 . S
C114 C108 1.368 . S
C114 C113 1.523 . S
C115 C99 1.429 . S
C115 C111 1.429 . S
C115 C116 1.523 . S
C116 C100 1.368 . S
C116 C112 1.368 . S
C116 C115 1.523 . S
H117 C92 0.950 . S
H118 C94 0.950 . S
H119 C95 0.949 . S
H120 C97 0.950 . S
H121 C99 0.950 . S
C122 C123 1.349 . S
C122 C124 1.327 . S
C122 H147 0.950 . S
C123 C122 1.349 . S
C123 C139 1.349 . S
C124 C122 1.327 . S
C124 C143 1.429 . S
C124 H148 0.950 . S
C125 C142 1.574 . S
C125 C144 1.368 1_545 S
C125 H149 0.949 . S
H126 C130 0.949 . S
C127 C128 1.349 . S
C127 C129 1.327 . S
C127 H150 0.950 . S
C128 C127 1.349 . S
C128 C140 1.349 . S
C129 C127 1.327 . S
C129 C145 1.429 . S
C129 H151 0.950 . S
C130 H126 0.949 . S
C130 C138 1.574 . S
C130 C146 1.368 1_565 S
H131 C139 0.950 . S
H132 C137 0.950 1_545 S
H133 C138 0.949 . S
H134 C140 0.950 1_565 S
H135 C141 0.950 . S
H136 C142 0.949 . S
C137 H132 0.950 1_565 S
C137 C139 1.327 . S
C137 C143 1.429 . S
C138 C130 1.574 . S
C138 H133 0.949 . S
C138 C144 1.368 . S
C139 C123 1.349 . S
C139 H131 0.950 . S
C139 C137 1.327 . S
C140 C128 1.349 . S
C140 H134 0.950 1_545 S
C140 C141 1.327 1_545 S
C141 H135 0.950 . S
C141 C140 1.327 1_565 S
C141 C145 1.429 1_565 S
C142 C125 1.574 . S
C142 H136 0.949 . S
C142 C146 1.368 . S
C143 C124 1.429 . S
C143 C137 1.429 . S
C143 C144 1.523 . S
C144 C125 1.368 1_565 S
C144 C138 1.368 . S
C144 C143 1.523 . S
C145 C129 1.429 . S
C145 C141 1.429 1_545 S
C145 C146 1.523 . S
C146 C130 1.368 1_545 S
C146 C142 1.368 . S
C146 C145 1.523 . S
H147 C122 0.950 . S
H148 C124 0.950 . S
H149 C125 0.949 . S
H150 C127 0.950 . S
H151 C129 0.950 . S
C152 C153 1.349 . S
C152 C154 1.327 . S
C152 H177 0.950 . S
C153 C152 1.349 . S
C153 C169 1.349 . S
C154 C152 1.327 . S
C154 C173 1.429 . S
C154 H178 0.950 . S
C155 C172 1.574 . S
C155 C174 1.368 . S
C155 H179 0.949 . S
H156 C160 0.949 . S
C157 C158 1.349 . S
C157 C159 1.327 . S
C157 H180 0.950 . S
C158 C157 1.349 . S
C158 C170 1.349 . S
C159 C157 1.327 . S
C159 C175 1.429 . S
C159 H181 0.950 . S
C160 H156 0.949 . S
C160 C168 1.574 . S
C160 C176 1.368 . S
H161 C169 0.950 . S
H162 C167 0.950 . S
H163 C168 0.949 . S
H164 C170 0.950 . S
H165 C171 0.950 . S
H166 C172 0.949 . S
C167 H162 0.950 . S
C167 C169 1.327 . S
C167 C173 1.429 . S
C168 C160 1.574 . S
C168 H163 0.949 . S
C168 C174 1.368 . S
C169 C153 1.349 . S
C169 H161 0.950 . S
C169 C167 1.327 . S
C170 C158 1.349 . S
C170 H164 0.950 . S
C170 C171 1.327 . S
C171 H165 0.950 . S
C171 C170 1.327 . S
C171 C175 1.429 . S
C172 C155 1.574 . S
C172 H166 0.949 . S
C172 C176 1.368 . S
C173 C154 1.429 . S
C173 C167 1.429 . S
C173 C174 1.523 . S
C174 C155 1.368 . S
C174 C168 1.368 . S
C174 C173 1.523 . S
C175 C159 1.429 . S
C175 C171 1.429 . S
C175 C176 1.523 . S
C176 C160 1.368 . S
C176 C172 1.368 . S
C176 C175 1.523 . S
H177 C152 0.950 . S
H178 C154 0.950 . S
H179 C155 0.949 . S
H180 C157 0.950 . S
H181 C159 0.950 . S
C182 C183 1.349 . S
C182 C184 1.327 1_554 S
C182 H207 0.950 . S
C183 C182 1.349 . S
C183 C199 1.349 1_554 S
C184 C182 1.327 1_556 S
C184 C203 1.429 . S
C184 H208 0.950 1_565 S
C185 C202 1.574 . S
C185 C204 1.368 . S
C185 H209 0.949 . S
H186 C190 0.949 . S
C187 C188 1.349 . S
C187 C189 1.327 . S
C187 H210 0.950 . S
C188 C187 1.349 . S
C188 C200 1.349 . S
C189 C187 1.327 . S
C189 C205 1.429 . S
C189 H211 0.950 1_545 S
C190 H186 0.949 . S
C190 C198 1.574 . S
C190 C206 1.368 . S
H191 C199 0.950 . S
H192 C197 0.950 . S
H193 C198 0.949 . S
H194 C200 0.950 . S
H195 C201 0.950 . S
H196 C202 0.949 . S
C197 H192 0.950 . S
C197 C199 1.327 . S
C197 C203 1.429 . S
C198 C190 1.574 . S
C198 H193 0.949 . S
C198 C204 1.368 1_545 S
C199 C183 1.349 1_556 S
C199 H191 0.950 . S
C199 C197 1.327 . S
C200 C188 1.349 . S
C200 H194 0.950 . S
C200 C201 1.327 . S
C201 H195 0.950 . S
C201 C200 1.327 . S
C201 C205 1.429 . S
C202 C185 1.574 . S
C202 H196 0.949 . S
C202 C206 1.368 1_565 S
C203 C184 1.429 . S
C203 C197 1.429 . S
C203 C204 1.523 . S
C204 C185 1.368 . S
C204 C198 1.368 1_565 S
C204 C203 1.523 . S
C205 C189 1.429 . S
C205 C201 1.429 . S
C205 C206 1.523 . S
C206 C190 1.368 . S
C206 C202 1.368 1_545 S
C206 C205 1.523 . S
H207 C182 0.950 . S
H208 C184 0.950 1_545 S
H209 C185 0.949 . S
H210 C187 0.950 . S
H211 C189 0.950 1_565 S
C212 C213 1.349 1_455 S
C212 C214 1.327 . S
C212 H237 0.950 . S
C213 C212 1.349 1_655 S
C213 C229 1.349 . S
C214 C212 1.327 . S
C214 C233 1.429 . S
C214 H238 0.950 . S
C215 C232 1.574 . S
C215 C234 1.368 . S
C215 H239 0.949 . S
H216 C220 0.949 . S
C217 C218 1.349 . S
C217 C219 1.327 . S
C217 H240 0.950 . S
C218 C217 1.349 . S
C218 C230 1.349 . S
C219 C217 1.327 . S
C219 C235 1.429 . S
C219 H241 0.950 . S
C220 H216 0.949 . S
C220 C228 1.574 . S
C220 C236 1.368 . S
H221 C229 0.950 . S
H222 C227 0.950 . S
H223 C228 0.949 . S
H224 C230 0.950 . S
H225 C231 0.950 . S
H226 C232 0.949 . S
C227 H222 0.950 . S
C227 C229 1.327 1_455 S
C227 C233 1.429 . S
C228 C220 1.574 . S
C228 H223 0.949 . S
C228 C234 1.368 . S
C229 C213 1.349 . S
C229 H221 0.950 . S
C229 C227 1.327 1_655 S
C230 C218 1.349 . S
C230 H224 0.950 . S
C230 C231 1.327 . S
C231 H225 0.950 . S
C231 C230 1.327 . S
C231 C235 1.429 . S
C232 C215 1.574 . S
C232 H226 0.949 . S
C232 C236 1.368 . S
C233 C214 1.429 . S
C233 C227 1.429 . S
C233 C234 1.523 . S
C234 C215 1.368 . S
C234 C228 1.368 . S
C234 C233 1.523 . S
C235 C219 1.429 . S
C235 C231 1.429 . S
C235 C236 1.523 . S
C236 C220 1.368 . S
C236 C232 1.368 . S
C236 C235 1.523 . S
H237 C212 0.950 . S
H238 C214 0.950 . S
H239 C215 0.949 . S
H240 C217 0.950 . S
H241 C219 0.950 . S
C242 C243 1.349 . S
C242 C244 1.327 . S
C242 H267 0.950 . S
C243 C242 1.349 . S
C243 C259 1.349 . S
C244 C242 1.327 . S
C244 C263 1.429 . S
C244 H268 0.950 . S
C245 C262 1.574 . S
C245 C264 1.368 . S
C245 H269 0.949 . S
H246 C250 0.949 . S
C247 C248 1.349 . S
C247 C249 1.331 1_545 S
C247 H270 0.950 . S
C248 C247 1.349 . S
C248 C260 1.349 1_545 S
C249 C247 1.331 1_565 S
C249 C265 1.430 . S
C249 H271 0.945 1_655 S
C250 H246 0.949 . S
C250 C258 1.574 1_655 S
C250 C266 1.368 1_655 S
H251 C259 0.950 . S
H252 C257 0.950 . S
H253 C258 0.949 . S
H254 C260 0.950 . S
H255 C261 0.950 . S
H256 C262 0.949 . S
C257 H252 0.950 . S
C257 C259 1.327 . S
C257 C263 1.429 . S
C258 C250 1.574 1_455 S
C258 H253 0.949 . S
C258 C264 1.368 . S
C259 C243 1.349 . S
C259 H251 0.950 . S
C259 C257 1.327 . S
C260 C248 1.349 1_565 S
C260 H254 0.950 . S
C260 C261 1.327 . S
C261 H255 0.950 . S
C261 C260 1.327 . S
C261 C265 1.429 . S
C262 C245 1.574 . S
C262 H256 0.949 . S
C262 C266 1.368 . S
C263 C244 1.429 . S
C263 C257 1.429 . S
C263 C264 1.523 . S
C264 C245 1.368 . S
C264 C258 1.368 . S
C264 C263 1.523 . S
C265 C249 1.430 . S
C265 C261 1.429 . S
C265 C266 1.523 1_655 S
C266 C250 1.368 1_455 S
C266 C262 1.368 . S
C266 C265 1.523 1_455 S
H267 C242 0.950 . S
H268 C244 0.950 . S
H269 C245 0.949 . S
H270 C247 0.950 . S
H271 C249 0.945 1_455 S
C272 C273 1.349 . S
C272 C274 1.327 . S
C272 H297 0.950 . S
C273 C272 1.349 . S
C273 C289 1.349 . S
C274 C272 1.327 . S
C274 C293 1.429 . S
C274 H298 0.950 . S
C275 C292 1.574 . S
C275 C294 1.368 1_554 S
C275 H299 0.949 . S
H276 C280 0.949 . S
C277 C278 1.349 . S
C277 C279 1.327 . S
C277 H300 0.950 . S
C278 C277 1.349 . S
C278 C290 1.349 . S
C279 C277 1.327 . S
C279 C295 1.429 . S
C279 H301 0.950 . S
C280 H276 0.949 . S
C280 C288 1.574 . S
C280 C296 1.368 1_556 S
H281 C289 0.950 . S
H282 C287 0.950 1_554 S
H283 C288 0.949 . S
H284 C290 0.950 . S
H285 C291 0.950 1_556 S
H286 C292 0.949 . S
C287 H282 0.950 1_556 S
C287 C289 1.327 . S
C287 C293 1.429 . S
C288 C280 1.574 . S
C288 H283 0.949 . S
C288 C294 1.368 . S
C289 C273 1.349 . S
C289 H281 0.950 . S
C289 C287 1.327 . S
C290 C278 1.349 . S
C290 H284 0.950 . S
C290 C291 1.327 . S
C291 H285 0.950 1_554 S
C291 C290 1.327 . S
C291 C295 1.429 . S
C292 C275 1.574 . S
C292 H286 0.949 . S
C292 C296 1.368 . S
C293 C274 1.429 . S
C293 C287 1.429 . S
C293 C294 1.523 . S
C294 C275 1.368 1_556 S
C294 C288 1.368 . S
C294 C293 1.523 . S
C295 C279 1.429 . S
C295 C291 1.429 . S
C295 C296 1.523 . S
C296 C280 1.368 1_554 S
C296 C292 1.368 . S
C296 C295 1.523 . S
H297 C272 0.950 . S
H298 C274 0.950 . S
H299 C275 0.949 . S
H300 C277 0.950 . S
H301 C279 0.950 . S
C302 C303 1.349 . S
C302 C304 1.327 . S
C302 H327 0.950 . S
C303 C302 1.349 . S
C303 C319 1.349 . S
C304 C302 1.327 . S
C304 C323 1.429 . S
C304 H328 0.950 . S
C305 C322 1.574 . S
C305 C324 1.368 . S
C305 H329 0.949 . S
H306 C310 0.949 . S
C307 C308 1.349 . S
C307 C309 1.327 1_565 S
C307 H330 0.950 . S
C308 C307 1.349 . S
C308 C320 1.349 1_565 S
C309 C307 1.327 1_545 S
C309 C325 1.429 . S
C309 H331 0.950 . S
C310 H306 0.949 . S
C310 C318 1.574 . S
C310 C326 1.368 . S
H311 C319 0.950 . S
H312 C317 0.950 . S
H313 C318 0.949 . S
H314 C320 0.950 . S
H315 C321 0.950 . S
H316 C322 0.949 . S
C317 H312 0.950 . S
C317 C319 1.327 . S
C317 C323 1.429 . S
C318 C310 1.574 . S
C318 H313 0.949 . S
C318 C324 1.368 . S
C319 C303 1.349 . S
C319 H311 0.950 . S
C319 C317 1.327 . S
C320 C308 1.349 1_545 S
C320 H314 0.950 . S
C320 C321 1.327 . S
C321 H315 0.950 . S
C321 C320 1.327 . S
C321 C325 1.429 . S
C322 C305 1.574 . S
C322 H316 0.949 . S
C322 C326 1.368 . S
C323 C304 1.429 . S
C323 C317 1.429 . S
C323 C324 1.523 . S
C324 C305 1.368 . S
C324 C318 1.368 . S
C324 C323 1.523 . S
C325 C309 1.429 . S
C325 C321 1.429 . S
C325 C326 1.523 . S
C326 C310 1.368 . S
C326 C322 1.368 . S
C326 C325 1.523 . S
H327 C302 0.950 . S
H328 C304 0.950 . S
H329 C305 0.949 . S
H330 C307 0.950 . S
H331 C309 0.950 . S
C332 C333 1.349 . S
C332 C334 1.327 . S
C332 H357 0.950 . S
C333 C332 1.349 . S
C333 C349 1.349 . S
C334 C332 1.327 . S
C334 C353 1.429 . S
C334 H358 0.950 . S
C335 C352 1.574 . S
C335 C354 1.368 . S
C335 H359 0.949 . S
H336 C340 0.949 . S
C337 C338 1.349 . S
C337 C339 1.327 . S
C337 H360 0.950 . S
C338 C337 1.349 . S
C338 C350 1.349 . S
C339 C337 1.327 . S
C339 C355 1.429 . S
C339 H361 0.950 . S
C340 H336 0.949 . S
C340 C348 1.574 . S
C340 C356 1.368 . S
H341 C349 0.950 . S
H342 C347 0.950 . S
H343 C348 0.949 . S
H344 C350 0.950 . S
H345 C351 0.950 . S
H346 C352 0.949 . S
C347 H342 0.950 . S
C347 C349 1.327 . S
C347 C353 1.429 . S
C348 C340 1.574 . S
C348 H343 0.949 . S
C348 C354 1.368 . S
C349 C333 1.349 . S
C349 H341 0.950 . S
C349 C347 1.327 . S
C350 C338 1.349 . S
C350 H344 0.950 . S
C350 C351 1.327 . S
C351 H345 0.950 . S
C351 C350 1.327 . S
C351 C355 1.429 . S
C352 C335 1.574 . S
C352 H346 0.949 . S
C352 C356 1.368 . S
C353 C334 1.429 . S
C353 C347 1.429 . S
C353 C354 1.523 . S
C354 C335 1.368 . S
C354 C348 1.368 . S
C354 C353 1.523 . S
C355 C339 1.429 . S
C355 C351 1.429 . S
C355 C356 1.523 . S
C356 C340 1.368 . S
C356 C352 1.368 . S
C356 C355 1.523 . S
H357 C332 0.950 . S
H358 C334 0.950 . S
H359 C335 0.949 . S
H360 C337 0.950 . S
H361 C339 0.950 . S
C362 C363 1.349 . S
C362 C364 1.327 . S
C362 H387 0.950 . S
C363 C362 1.349 . S
C363 C379 1.349 . S
C364 C362 1.327 . S
C364 C383 1.429 . S
C364 H388 0.950 1_455 S
C365 C382 1.574 1_455 S
C365 C384 1.368 1_455 S
C365 H389 0.949 . S
H366 C370 0.949 . S
C367 C368 1.349 . S
C367 C369 1.327 . S
C367 H390 0.950 . S
C368 C367 1.349 . S
C368 C380 1.349 . S
C369 C367 1.327 . S
C369 C385 1.429 . S
C369 H391 0.950 . S
C370 H366 0.949 . S
C370 C378 1.574 . S
C370 C386 1.368 . S
H371 C379 0.950 . S
H372 C377 0.950 . S
H373 C378 0.949 . S
H374 C380 0.950 . S
H375 C381 0.950 . S
H376 C382 0.949 . S
C377 H372 0.950 . S
C377 C379 1.327 . S
C377 C383 1.429 . S
C378 C370 1.574 . S
C378 H373 0.949 . S
C378 C384 1.368 . S
C379 C363 1.349 . S
C379 H371 0.950 . S
C379 C377 1.327 . S
C380 C368 1.349 . S
C380 H374 0.950 . S
C380 C381 1.327 . S
C381 H375 0.950 . S
C381 C380 1.327 . S
C381 C385 1.429 . S
C382 C365 1.574 1_655 S
C382 H376 0.949 . S
C382 C386 1.368 . S
C383 C364 1.429 . S
C383 C377 1.429 . S
C383 C384 1.523 1_455 S
C384 C365 1.368 1_655 S
C384 C378 1.368 . S
C384 C383 1.523 1_655 S
C385 C369 1.429 . S
C385 C381 1.429 . S
C385 C386 1.523 . S
C386 C370 1.368 . S
C386 C382 1.368 . S
C386 C385 1.523 . S
H387 C362 0.950 . S
H388 C364 0.950 1_655 S
H389 C365 0.949 . S
H390 C367 0.950 . S
H391 C369 0.950 . S
C392 C393 1.349 . S
C392 C394 1.327 1_456 S
C392 H417 0.950 1_556 S
C393 C392 1.349 . S
C393 C409 1.349 1_455 S
C394 C392 1.327 1_654 S
C394 C413 1.429 1_554 S
C394 H418 0.950 . S
C395 C412 1.574 . S
C395 C414 1.358 1_556 S
C395 H419 0.949 . S
H396 C400 0.949 . S
C397 C398 1.349 . S
C397 C399 1.327 . S
C397 H420 0.950 . S
C398 C397 1.349 . S
C398 C410 1.349 . S
C399 C397 1.327 . S
C399 C415 1.429 . S
C399 H421 0.950 1_554 S
C400 H396 0.949 . S
C400 C408 1.574 . S
C400 C416 1.368 . S
H401 C409 0.946 1_455 S
H402 C407 0.950 . S
H403 C408 0.949 . S
H404 C410 0.950 . S
H405 C411 0.950 . S
H406 C412 0.949 . S
C407 H402 0.950 . S
C407 C409 1.327 . S
C407 C413 1.429 . S
C408 C400 1.574 . S
C408 H403 0.949 . S
C408 C414 1.382 . S
C409 C393 1.349 1_655 S
C409 H401 0.946 1_655 S
C409 C407 1.327 . S
C410 C398 1.349 . S
C410 H404 0.950 . S
C410 C411 1.327 . S
C411 H405 0.950 . S
C411 C410 1.327 . S
C411 C415 1.429 . S
C412 C395 1.574 . S
C412 H406 0.949 . S
C412 C416 1.368 1_556 S
C413 C394 1.429 1_556 S
C413 C407 1.429 . S
C413 C414 1.519 1_556 S
C414 C395 1.358 1_554 S
C414 C408 1.382 . S
C414 C413 1.519 1_554 S
C415 C399 1.429 . S
C415 C411 1.429 . S
C415 C416 1.523 . S
C416 C400 1.368 . S
C416 C412 1.368 1_554 S
C416 C415 1.523 . S
H417 C392 0.950 1_554 S
H418 C394 0.950 . S
H419 C395 0.949 . S
H420 C397 0.950 . S
H421 C399 0.950 1_556 S
C422 C423 1.349 . S
C422 C424 1.327 . S
C422 H447 0.950 . S
C423 C422 1.349 . S
C423 C439 1.349 . S
C424 C422 1.327 . S
C424 C443 1.429 . S
C424 H448 0.950 . S
C425 C442 1.574 . S
C425 C444 1.368 . S
C425 H449 0.949 . S
H426 C430 0.949 . S
C427 C428 1.349 . S
C427 C429 1.327 . S
C427 H450 0.950 . S
C428 C427 1.349 . S
C428 C440 1.349 . S
C429 C427 1.327 . S
C429 C445 1.429 . S
C429 H451 0.950 . S
C430 H426 0.949 . S
C430 C438 1.574 . S
C430 C446 1.368 . S
H431 C439 0.950 . S
H432 C437 0.950 . S
H433 C438 0.949 . S
H434 C440 0.950 . S
H435 C441 0.950 . S
H436 C442 0.949 . S
C437 H432 0.950 . S
C437 C439 1.327 . S
C437 C443 1.429 . S
C438 C430 1.574 . S
C438 H433 0.949 . S
C438 C444 1.368 . S
C439 C423 1.349 . S
C439 H431 0.950 . S
C439 C437 1.327 . S
C440 C428 1.349 . S
C440 H434 0.950 . S
C440 C441 1.327 . S
C441 H435 0.950 . S
C441 C440 1.327 . S
C441 C445 1.429 . S
C442 C425 1.574 . S
C442 H436 0.949 . S
C442 C446 1.368 . S
C443 C424 1.429 . S
C443 C437 1.429 . S
C443 C444 1.523 . S
C444 C425 1.368 . S
C444 C438 1.368 . S
C444 C443 1.523 . S
C445 C429 1.429 . S
C445 C441 1.429 . S
C445 C446 1.523 . S
C446 C430 1.368 . S
C446 C442 1.368 . S
C446 C445 1.523 . S
H447 C422 0.950 . S
H448 C424 0.950 . S
H449 C425 0.949 . S
H450 C427 0.950 . S
H451 C429 0.950 . S
C93 C63 1.507 . S
C98 C17 1.507 . S
C123 C90 1.129 . S
C128 C43 1.154 . S
C153 C64 1.354 . S
C158 C18 1.354 . S
C183 C89 1.151 . S
C188 C44 1.130 . S
C213 C41 1.167 . S
C218 C19 1.137 . S
C243 C62 1.587 . S
C248 C39 1.588 . S
C273 C66 1.151 . S
C278 C87 1.148 . S
C303 C21 1.272 . S
C308 C85 1.275 . S
C333 C40 1.577 . S
C338 C16 1.578 . S
C363 C65 1.147 . S
C368 C42 1.151 . S
C393 C67 1.263 . S
C398 C86 1.265 . S
C423 C88 1.126 . S
C428 C20 1.159 . S
