# Generated by pormake.
# Topology umj, (4)-cn, num edge types: 1
# Building blocks:
#     Node 0, Type 0, BuildingBlock: KOZSID_clean_sbu_0, # of connection points: 4
#     Node 1, Type 0, BuildingBlock: KOZSID_clean_sbu_0, # of connection points: 4
#     Node 2, Type 0, BuildingBlock: KOZSID_clean_sbu_0, # of connection points: 4
#     Node 3, Type 0, BuildingBlock: KOZSID_clean_sbu_0, # of connection points: 4
#     Node 4, Type 0, BuildingBlock: KOZSID_clean_sbu_0, # of connection points: 4
#     Node 5, Type 0, BuildingBlock: KOZSID_clean_sbu_0, # of connection points: 4
#     Node 6, Type 0, BuildingBlock: KOZSID_clean_sbu_0, # of connection points: 4
#     Node 7, Type 0, BuildingBlock: KOZSID_clean_sbu_0, # of connection points: 4
#     Node 8, Type 0, BuildingBlock: KOZSID_clean_sbu_0, # of connection points: 4
#     Node 9, Type 0, BuildingBlock: KOZSID_clean_sbu_0, # of connection points: 4
#     Node 10, Type 0, BuildingBlock: KOZSID_clean_sbu_0, # of connection points: 4
#     Node 11, Type 0, BuildingBlock: KOZSID_clean_sbu_0, # of connection points: 4
#     Edge 12, Type (0, 0), BuildingBlock: OJICUG_clean_linker_0, # of connection points: 2
#     Edge 13, Type (0, 0), BuildingBlock: OJICUG_clean_linker_0, # of connection points: 2
#     Edge 14, Type (0, 0), BuildingBlock: OJICUG_clean_linker_0, # of connection points: 2
#     Edge 15, Type (0, 0), BuildingBlock: OJICUG_clean_linker_0, # of connection points: 2
#     Edge 16, Type (0, 0), BuildingBlock: OJICUG_clean_linker_0, # of connection points: 2
#     Edge 17, Type (0, 0), BuildingBlock: OJICUG_clean_linker_0, # of connection points: 2
#     Edge 18, Type (0, 0), BuildingBlock: OJICUG_clean_linker_0, # of connection points: 2
#     Edge 19, Type (0, 0), BuildingBlock: OJICUG_clean_linker_0, # of connection points: 2
#     Edge 20, Type (0, 0), BuildingBlock: OJICUG_clean_linker_0, # of connection points: 2
#     Edge 21, Type (0, 0), BuildingBlock: OJICUG_clean_linker_0, # of connection points: 2
#     Edge 22, Type (0, 0), BuildingBlock: OJICUG_clean_linker_0, # of connection points: 2
#     Edge 23, Type (0, 0), BuildingBlock: OJICUG_clean_linker_0, # of connection points: 2
#     Edge 24, Type (0, 0), BuildingBlock: OJICUG_clean_linker_0, # of connection points: 2
#     Edge 25, Type (0, 0), BuildingBlock: OJICUG_clean_linker_0, # of connection points: 2
#     Edge 26, Type (0, 0), BuildingBlock: OJICUG_clean_linker_0, # of connection points: 2
#     Edge 27, Type (0, 0), BuildingBlock: OJICUG_clean_linker_0, # of connection points: 2
#     Edge 28, Type (0, 0), BuildingBlock: OJICUG_clean_linker_0, # of connection points: 2
#     Edge 29, Type (0, 0), BuildingBlock: OJICUG_clean_linker_0, # of connection points: 2
#     Edge 30, Type (0, 0), BuildingBlock: OJICUG_clean_linker_0, # of connection points: 2
#     Edge 31, Type (0, 0), BuildingBlock: OJICUG_clean_linker_0, # of connection points: 2
#     Edge 32, Type (0, 0), BuildingBlock: OJICUG_clean_linker_0, # of connection points: 2
#     Edge 33, Type (0, 0), BuildingBlock: OJICUG_clean_linker_0, # of connection points: 2
#     Edge 34, Type (0, 0), BuildingBlock: OJICUG_clean_linker_0, # of connection points: 2
#     Edge 35, Type (0, 0), BuildingBlock: OJICUG_clean_linker_0, # of connection points: 2
# Relax obj value: 0.053
# Max RMSD: 0.163
# Mean RMSD: 0.162
data_MOF--net-umj--node1-KOZSID_clean_sbu_0--edge1-OJICUG_clean_linker_0
_symmetry_space_group_name_H-M    P1
_symmetry_Int_Tables_number       1
_symmetry_cell_setting            triclinic
loop_
_symmetry_equiv_pos_as_xyz
'x, y, z'
_cell_length_a     30.843251
_cell_length_b     30.865787
_cell_length_c     70.565744
_cell_angle_alpha  90.010349
_cell_angle_beta   90.011372
_cell_angle_gamma 120.03493
loop_
_atom_site_label
_atom_site_type_symbol
_atom_site_fract_x
_atom_site_fract_y
_atom_site_fract_z
_atom_type_partial_charge
C0 C 0.05708 0.27127 0.04002 0.0
C1 C 0.02281 0.2611 0.02557 0.0
C2 C 0.98045 0.25687 0.03388 0.0
C3 C 0.99108 0.26482 0.05292 0.0
N4 N 0.03737 0.2736 0.05701 0.0
Co5 Co 0.0675 0.28681 0.08266 0.0
N6 N 1.00166 0.2583 0.0955 0.0
C7 C 0.95921 0.25146 0.08738 0.0
C8 C 0.91981 0.23314 0.0999 0.0
C9 C 0.93901 0.22886 0.11696 0.0
C10 C 0.98923 0.24478 0.11391 0.0
N11 N 0.09906 0.30023 0.10811 0.0
C12 C 0.07871 0.28158 0.12525 0.0
C13 C 0.11488 0.3016 0.13945 0.0
C14 C 0.15898 0.33445 0.13089 0.0
C15 C 0.14752 0.3326 0.11205 0.0
N16 N 0.13377 0.31595 0.07 0.0
C17 C 0.17857 0.34626 0.07809 0.0
C18 C 0.21822 0.357 0.06645 0.0
C19 C 0.19726 0.33217 0.04995 0.0
C20 C 0.14556 0.30841 0.05228 0.0
N21 N 0.071 0.35345 0.08296 0.0
C22 C 0.05158 0.43543 0.08228 0.0
C23 C 0.04511 0.40685 0.09875 0.0
C24 C 0.05572 0.36752 0.09888 0.0
C25 C 0.07089 0.42267 0.06633 0.0
C26 C 0.08009 0.38191 0.06694 0.0
N27 N 0.06015 0.2189 0.08243 0.0
C28 C 0.08955 0.16004 0.08766 0.0
C29 C 0.04202 0.11851 0.08317 0.0
C30 C 1.00449 0.12964 0.0783 0.0
C31 C 1.01438 0.17911 0.07772 0.0
C32 C 0.09767 0.20958 0.08735 0.0
H33 H 0.984 0.18474 0.07365 0.0
H34 H 0.13417 0.24026 0.09112 0.0
H35 H 0.04859 0.34664 0.11184 0.0
H36 H 0.09291 0.37238 0.0542 0.0
C37 C 0.95674 0.25628 0.0676 0.0
C38 C 0.1091 0.28215 0.03704 0.0
C39 C 0.02493 0.25055 0.12899 0.0
C40 C 0.18249 0.35418 0.09757 0.0
H41 H 0.02798 0.25731 0.01061 0.0
H42 H 0.94549 0.24728 0.02693 0.0
H43 H 0.88144 0.22297 0.09693 0.0
H44 H 0.91865 0.21613 0.13017 0.0
H45 H 0.10988 0.29429 0.15452 0.0
H46 H 0.19531 0.35598 0.13755 0.0
H47 H 0.25769 0.37759 0.06995 0.0
H48 H 0.21809 0.33143 0.03776 0.0
H49 H 0.02993 0.4128 0.11162 0.0
H50 H 0.07841 0.44334 0.05323 0.0
H51 H 0.12065 0.15478 0.0913 0.0
H52 H 0.9667 0.10042 0.07521 0.0
C53 C 0.80358 0.02822 0.37178 0.0
C54 C 0.78624 0.98742 0.35966 0.0
C55 C 0.74674 0.94762 0.36869 0.0
C56 C 0.74233 0.96549 0.386 0.0
N57 N 0.77678 1.01403 0.38826 0.0
Co58 Co 0.79166 0.05199 0.41231 0.0
N59 N 0.757 0.99092 0.42796 0.0
C60 C 0.72241 0.94555 0.42154 0.0
C61 C 0.70322 0.9105 0.43579 0.0
C62 C 0.72692 0.93581 0.45211 0.0
C63 C 0.75954 0.98504 0.44691 0.0
N64 N 0.80898 0.0917 0.43594 0.0
C65 C 0.80975 0.0778 0.45405 0.0
C66 C 0.82405 0.118 0.46633 0.0
C67 C 0.83103 0.15781 0.45549 0.0
C68 C 0.82107 0.14002 0.43727 0.0
N69 N 0.82451 0.11331 0.39689 0.0
C70 C 0.83008 0.15786 0.40187 0.0
C71 C 0.84758 0.19192 0.38732 0.0
C72 C 0.85348 0.16707 0.37232 0.0
C73 C 0.84017 0.1194 0.37877 0.0
N74 N 0.72697 0.05199 0.4107 0.0
C75 C 0.62702 0.03495 0.4088 0.0
C76 C 0.65025 0.0367 0.42618 0.0
C77 C 0.69934 0.04486 0.42681 0.0
C78 C 0.65672 0.04467 0.3924 0.0
C79 C 0.70628 0.05328 0.39365 0.0
N80 N 0.85416 0.04847 0.41398 0.0
C81 C 0.94402 0.08404 0.41711 0.0
C82 C 0.93934 0.03616 0.41591 0.0
C83 C 0.89121 0.99531 0.41353 0.0
C84 C 0.8499 1.0022 0.41244 0.0
C85 C 0.9009 0.08934 0.41632 0.0
H86 H 0.81426 0.96928 0.41011 0.0
H87 H 0.90525 0.12623 0.41751 0.0
H88 H 0.71415 0.04363 0.4405 0.0
H89 H 0.72726 0.05935 0.38071 0.0
C90 C 0.71649 0.93601 0.40187 0.0
C91 C 0.84305 0.08086 0.36752 0.0
C92 C 0.78996 0.02591 0.46032 0.0
C93 C 0.82768 0.1686 0.42097 0.0
H94 H 0.80104 0.98524 0.34609 0.0
H95 H 0.72649 0.90925 0.36379 0.0
H96 H 0.67666 0.87092 0.43442 0.0
H97 H 0.72086 0.91995 0.46619 0.0
H98 H 0.82732 0.11814 0.4816 0.0
H99 H 0.84254 0.19533 0.46032 0.0
H100 H 0.85704 0.23073 0.38777 0.0
H101 H 0.86675 0.18253 0.35836 0.0
H102 H 0.63058 0.0313 0.43944 0.0
H103 H 0.64145 0.04402 0.37853 0.0
H104 H 0.98053 0.117 0.41889 0.0
H105 H 0.88532 0.95781 0.41204 0.0
C106 C 0.78805 0.79496 0.70309 0.0
C107 C 0.81034 0.77561 0.69135 0.0
C108 C 0.80998 0.7366 0.70106 0.0
C109 C 0.78823 0.73432 0.71832 0.0
N110 N 0.77514 0.76964 0.7199 0.0
Co111 Co 0.75219 0.78689 0.74345 0.0
N112 N 0.7775 0.75281 0.75997 0.0
C113 C 0.78762 0.71724 0.75423 0.0
C114 C 0.80273 0.69879 0.769 0.0
C115 C 0.8013 0.72403 0.78489 0.0
C116 C 0.78556 0.7568 0.77896 0.0
N117 N 0.72975 0.80648 0.76652 0.0
C118 C 0.74402 0.8086 0.78475 0.0
C119 C 0.71852 0.82463 0.79646 0.0
C120 C 0.68614 0.83112 0.78516 0.0
C121 C 0.69393 0.81928 0.76723 0.0
N122 N 0.72464 0.81917 0.72724 0.0
C123 C 0.68574 0.82544 0.73166 0.0
C124 C 0.66931 0.84149 0.7166 0.0
C125 C 0.70001 0.84559 0.70183 0.0
C126 C 0.73415 0.83273 0.70892 0.0
N127 N 0.68688 0.72251 0.74214 0.0
C128 C 0.60347 0.62274 0.74057 0.0
C129 C 0.62477 0.64647 0.75789 0.0
C130 C 0.66588 0.69562 0.75837 0.0
C131 C 0.62429 0.65144 0.72403 0.0
C132 C 0.66533 0.70097 0.72512 0.0
N133 N 0.81922 0.84885 0.74476 0.0
C134 C 0.87634 0.93856 0.74715 0.0
C135 C 0.91876 0.93238 0.74551 0.0
C136 C 0.90926 0.88327 0.74382 0.0
C137 C 0.86036 0.84301 0.74333 0.0
C138 C 0.82696 0.89638 0.74674 0.0
H139 H 0.85644 0.80674 0.74164 0.0
H140 H 0.79522 0.90209 0.74788 0.0
H141 H 0.68186 0.71098 0.77201 0.0
H142 H 0.68054 0.72129 0.71207 0.0
C143 C 0.79121 0.7095 0.73468 0.0
C144 C 0.77574 0.83464 0.69816 0.0
C145 C 0.77536 0.78865 0.79174 0.0
C146 C 0.67233 0.82478 0.75062 0.0
H147 H 0.82659 0.78856 0.67753 0.0
H148 H 0.82708 0.71508 0.69656 0.0
H149 H 0.81509 0.67163 0.76824 0.0
H150 H 0.81057 0.71883 0.79919 0.0
H151 H 0.72157 0.8294 0.81169 0.0
H152 H 0.66048 0.84357 0.78948 0.0
H153 H 0.64005 0.85112 0.71654 0.0
H154 H 0.69808 0.85754 0.68759 0.0
H155 H 0.61107 0.62659 0.77115 0.0
H156 H 0.60912 0.63579 0.71025 0.0
H157 H 0.88105 0.97561 0.74847 0.0
H158 H 0.9396 0.87526 0.74306 0.0
C159 C 0.98691 0.75881 0.04042 0.0
C160 C 1.02163 0.77 0.02606 0.0
C161 C 0.06417 0.77485 0.03445 0.0
C162 C 0.05319 0.76622 0.05344 0.0
N163 N 1.00651 0.75642 0.05743 0.0
Co164 Co 0.97582 0.74205 0.08298 0.0
N165 N 0.04146 0.77129 0.09602 0.0
C166 C 0.08439 0.77918 0.088 0.0
C167 C 0.12356 0.79789 0.10064 0.0
C168 C 0.10371 0.80132 0.11767 0.0
C169 C 0.05337 0.78454 0.11448 0.0
N170 N 0.9437 0.72748 0.10833 0.0
C171 C 0.96351 0.746 0.12555 0.0
C172 C 0.9271 0.72515 0.13963 0.0
C173 C 0.88342 0.69189 0.13091 0.0
C174 C 0.89534 0.69435 0.1121 0.0
N175 N 0.90974 0.71217 0.07012 0.0
C176 C 0.86495 0.68105 0.07804 0.0
C177 C 0.82535 0.67006 0.06632 0.0
C178 C 0.84635 0.69557 0.04995 0.0
C179 C 0.89804 0.71996 0.05242 0.0
N180 N 0.97355 0.67599 0.08308 0.0
C181 C 0.99352 0.59438 0.0823 0.0
C182 C 0.99979 0.62279 0.09881 0.0
C183 C 0.98892 0.66194 0.09898 0.0
C184 C 0.97431 0.60721 0.06635 0.0
C185 C 0.96485 0.6478 0.06701 0.0
N186 N 0.98182 0.80937 0.08298 0.0
C187 C 0.95003 0.86629 0.08808 0.0
C188 C 0.99741 0.90826 0.08426 0.0
C189 C 0.03609 0.89912 0.07949 0.0
C190 C 0.02746 0.85007 0.07866 0.0
C191 C 0.94318 0.81728 0.08761 0.0
H192 H 0.05846 0.84544 0.07457 0.0
H193 H 0.90685 0.78591 0.09108 0.0
H194 H 0.99577 0.68262 0.11198 0.0
H195 H 0.95204 0.65737 0.05427 0.0
C196 C 0.0874 0.77502 0.06821 0.0
C197 C 0.93466 0.74709 0.03732 0.0
C198 C 1.01711 0.77778 0.12947 0.0
C199 C 0.86076 0.67263 0.09749 0.0
H200 H 1.01666 0.77409 0.01111 0.0
H201 H 0.09944 0.78529 0.02759 0.0
H202 H 0.16219 0.80889 0.09776 0.0
H203 H 0.12375 0.81408 0.13095 0.0
H204 H 0.9317 0.73223 0.15473 0.0
H205 H 0.84702 0.66972 0.13744 0.0
H206 H 0.78585 0.64888 0.0697 0.0
H207 H 0.82554 0.69636 0.03776 0.0
H208 H 1.01494 0.61681 0.11168 0.0
H209 H 0.96699 0.5867 0.05322 0.0
H210 H 0.91876 0.87133 0.09177 0.0
H211 H 0.07301 0.92988 0.07609 0.0
C212 C 0.24157 1.00075 0.37193 0.0
C213 C 0.25929 0.04149 0.35977 0.0
C214 C 0.2992 0.08106 0.36874 0.0
C215 C 0.30349 0.06314 0.38606 0.0
N216 N 0.26855 0.01479 0.38838 0.0
Co217 Co 0.2534 0.97702 0.41247 0.0
N218 N 0.28895 0.03817 0.42806 0.0
C219 C 0.32398 0.08326 0.42157 0.0
C220 C 0.34367 0.11843 0.43578 0.0
C221 C 0.31984 0.09349 0.45213 0.0
C222 C 0.28664 0.04434 0.447 0.0
N223 N 0.23583 0.93754 0.43616 0.0
C224 C 0.23549 0.95175 0.45425 0.0
C225 C 0.221 0.91164 0.46659 0.0
C226 C 0.2134 0.87154 0.45579 0.0
C227 C 0.22323 0.88909 0.43754 0.0
N228 N 0.21967 0.91558 0.39715 0.0
C229 C 0.21365 0.87088 0.40217 0.0
C230 C 0.19591 0.83675 0.38764 0.0
C231 C 0.19036 0.86172 0.37261 0.0
C232 C 0.20407 0.90953 0.37902 0.0
N233 N 0.31751 0.97593 0.41079 0.0
C234 C 0.4161 0.98981 0.40869 0.0
C235 C 0.39387 0.98948 0.42611 0.0
C236 C 0.34531 0.98278 0.42685 0.0
C237 C 0.38673 0.98146 0.39232 0.0
C238 C 0.33769 0.97413 0.39368 0.0
N239 N 0.19149 0.98166 0.41414 0.0
C240 C 0.10174 0.94767 0.41702 0.0
C241 C 0.10707 0.99579 0.41509 0.0
C242 C 0.15585 0.036 0.41304 0.0
C243 C 0.19662 0.02823 0.4124 0.0
C244 C 0.14437 0.94144 0.41654 0.0
H245 H 0.23263 0.06081 0.41032 0.0
H246 H 0.13933 0.90431 0.41793 0.0
H247 H 0.33111 0.98499 0.44054 0.0
H248 H 0.31657 0.96826 0.38079 0.0
C249 C 0.32979 0.09258 0.40189 0.0
C250 C 0.2016 0.94824 0.36774 0.0
C251 C 0.25581 1.00377 0.46045 0.0
C252 C 0.21612 0.86023 0.42127 0.0
H253 H 0.2445 0.04383 0.34622 0.0
H254 H 0.31986 0.11937 0.3638 0.0
H255 H 0.37064 0.15789 0.43436 0.0
H256 H 0.32618 0.10953 0.46619 0.0
H257 H 0.21802 0.91174 0.48187 0.0
H258 H 0.20161 0.834 0.46067 0.0
H259 H 0.18615 0.79785 0.38811 0.0
H260 H 0.17706 0.84625 0.35864 0.0
H261 H 0.41453 0.9962 0.43922 0.0
H262 H 0.40145 0.98055 0.3785 0.0
H263 H 0.06501 0.91494 0.41858 0.0
H264 H 0.16319 0.07408 0.41206 0.0
C265 C 0.25716 0.2354 0.70369 0.0
C266 C 0.23397 0.25424 0.69217 0.0
C267 C 0.23404 0.29294 0.70202 0.0
C268 C 0.25655 0.29555 0.71915 0.0
N269 N 0.27038 0.26076 0.7205 0.0
Co270 Co 0.29454 0.24392 0.74382 0.0
N271 N 0.26895 0.27718 0.76063 0.0
C272 C 0.25804 0.31235 0.75512 0.0
C273 C 0.24281 0.33018 0.77005 0.0
C274 C 0.245 0.30495 0.78581 0.0
C275 C 0.26126 0.27279 0.77964 0.0
N276 N 0.31815 0.2247 0.76666 0.0
C277 C 0.3042 0.22212 0.78495 0.0
C278 C 0.33048 0.20655 0.79645 0.0
C279 C 0.363 0.20082 0.78494 0.0
C280 C 0.35452 0.21264 0.76711 0.0
N281 N 0.32241 0.21253 0.72731 0.0
C282 C 0.36187 0.20694 0.73146 0.0
C283 C 0.37814 0.19128 0.71623 0.0
C284 C 0.34673 0.1867 0.70164 0.0
C285 C 0.31238 0.19892 0.70901 0.0
N286 N 0.35928 0.30885 0.7424 0.0
C287 C 0.44114 0.4096 0.74081 0.0
C288 C 0.42073 0.38527 0.75814 0.0
C289 C 0.38038 0.33572 0.75863 0.0
C290 C 0.42071 0.3806 0.72428 0.0
C291 C 0.38032 0.3307 0.72537 0.0
N292 N 0.22805 0.18137 0.74528 0.0
C293 C 0.17224 0.09138 0.74727 0.0
C294 C 0.1294 0.09698 0.74675 0.0
C295 C 0.13778 0.14566 0.74524 0.0
C296 C 0.18636 0.18645 0.7444 0.0
C297 C 0.22124 0.13407 0.74669 0.0
H298 H 0.18956 0.22244 0.74277 0.0
H299 H 0.25342 0.12894 0.74729 0.0
H300 H 0.36514 0.31992 0.7723 0.0
H301 H 0.36496 0.31042 0.71232 0.0
C302 C 0.25366 0.32006 0.73562 0.0
C303 C 0.27001 0.19622 0.69855 0.0
C304 C 0.27226 0.24111 0.79219 0.0
C305 C 0.37593 0.20768 0.75034 0.0
H306 H 0.21731 0.24115 0.67841 0.0
H307 H 0.21628 0.314 0.69771 0.0
H308 H 0.22982 0.35688 0.76949 0.0
H309 H 0.23583 0.30972 0.80018 0.0
H310 H 0.32778 0.20151 0.81167 0.0
H311 H 0.38917 0.18884 0.78905 0.0
H312 H 0.40775 0.18215 0.71594 0.0
H313 H 0.3483 0.17481 0.68735 0.0
H314 H 0.43537 0.40442 0.77147 0.0
H315 H 0.43448 0.39669 0.71043 0.0
H316 H 0.16802 0.05448 0.74834 0.0
H317 H 0.10668 0.15252 0.74424 0.0
C318 C 0.78991 1.00166 0.63033 0.0
C319 C 0.81364 0.04249 0.64242 0.0
C320 C 0.81393 0.08229 0.63342 0.0
C321 C 0.79136 0.0644 0.61615 0.0
N322 N 0.77712 0.01584 0.61389 0.0
Co323 Co 0.75376 0.97786 0.58986 0.0
N324 N 0.78028 0.03891 0.57419 0.0
C325 C 0.79121 0.0843 0.58061 0.0
C326 C 0.80719 0.11933 0.56635 0.0
C327 C 0.8055 0.09398 0.55004 0.0
C328 C 0.78873 0.04475 0.55525 0.0
N329 N 0.73109 0.93813 0.56624 0.0
C330 C 0.74576 0.95198 0.54813 0.0
C331 C 0.71957 0.91181 0.53586 0.0
C332 C 0.68659 0.87207 0.54671 0.0
C333 C 0.69462 0.88988 0.56494 0.0
N334 N 0.72519 0.91659 0.60528 0.0
C335 C 0.68599 0.87209 0.60034 0.0
C336 C 0.66944 0.83807 0.6149 0.0
C337 C 0.70044 0.86289 0.62986 0.0
C338 C 0.73492 0.9105 0.62338 0.0
N339 N 0.68914 0.97801 0.59152 0.0
C340 C 0.60634 0.99518 0.59349 0.0
C341 C 0.62773 0.99342 0.57609 0.0
C342 C 0.66861 0.98519 0.57543 0.0
C343 C 0.62637 0.98543 0.60987 0.0
C344 C 0.66726 0.97676 0.60858 0.0
N345 N 0.81973 0.98127 0.58813 0.0
C346 C 0.87387 0.94559 0.58506 0.0
C347 C 0.9172 0.99345 0.58624 0.0
C348 C 0.91005 0.03434 0.58857 0.0
C349 C 0.86187 0.02752 0.58965 0.0
C350 C 0.82547 0.94035 0.58584 0.0
H351 H 0.85927 0.06048 0.59194 0.0
H352 H 0.79282 0.90347 0.58468 0.0
H353 H 0.68458 0.98641 0.56173 0.0
H354 H 0.68221 0.97067 0.62151 0.0
C355 C 0.79498 0.09387 0.60028 0.0
C356 C 0.77666 0.94899 0.63456 0.0
C357 C 0.7782 1.00382 0.54186 0.0
C358 C 0.67264 0.86135 0.58125 0.0
H359 H 0.83085 0.04473 0.65595 0.0
H360 H 0.83223 0.12068 0.63831 0.0
H361 H 0.82037 0.15894 0.56771 0.0
H362 H 0.81538 0.10983 0.53595 0.0
H363 H 0.72261 0.91164 0.52059 0.0
H364 H 0.66036 0.83459 0.54189 0.0
H365 H 0.63994 0.79929 0.61448 0.0
H366 H 0.69835 0.84743 0.64382 0.0
H367 H 0.61344 0.99885 0.56284 0.0
H368 H 0.61181 0.98608 0.62375 0.0
H369 H 0.87732 0.91259 0.58333 0.0
H370 H 0.94176 0.07184 0.59004 0.0
C371 C 0.80379 0.756 0.9616 0.0
C372 C 0.78034 0.76608 0.97631 0.0
C373 C 0.74211 0.77077 0.96834 0.0
C374 C 0.74404 0.76309 0.94923 0.0
N375 N 0.78117 0.75405 0.9448 0.0
Co376 Co 0.79711 0.74126 0.91891 0.0
N377 N 0.76081 0.77145 0.90658 0.0
C378 C 0.72629 0.77935 0.91504 0.0
C379 C 0.70581 0.79893 0.90281 0.0
C380 C 0.7286 0.80298 0.8856 0.0
C381 C 0.76186 0.78564 0.88827 0.0
N382 N 0.81367 0.7275 0.89325 0.0
C383 C 0.81189 0.74662 0.87624 0.0
C384 C 0.8266 0.72596 0.86179 0.0
C385 C 0.83701 0.69224 0.87009 0.0
C386 C 0.82837 0.69423 0.88901 0.0
N387 N 0.8338 0.7111 0.93111 0.0
C388 C 0.84731 0.68041 0.92274 0.0
C389 C 0.87671 0.66948 0.93402 0.0
C390 C 0.88192 0.6946 0.95056 0.0
C391 C 0.85418 0.71864 0.94866 0.0
N392 N 0.73318 0.67524 0.91865 0.0
C393 C 0.63148 0.59379 0.91948 0.0
C394 C 0.65307 0.62313 0.90314 0.0
C395 C 0.70317 0.66221 0.90292 0.0
C396 C 0.66405 0.6056 0.93522 0.0
C397 C 0.71419 0.64612 0.93455 0.0
N398 N 0.85847 0.80865 0.91902 0.0
C399 C 0.94421 0.86785 0.90995 0.0
C400 C 0.9404 0.90891 0.91685 0.0
C401 C 0.89468 0.89744 0.92529 0.0
C402 C 0.85478 0.84811 0.926 0.0
C403 C 0.90314 0.81827 0.91126 0.0
H404 H 0.82032 0.84242 0.93201 0.0
H405 H 0.9072 0.78791 0.90567 0.0
H406 H 0.71657 0.68367 0.89007 0.0
H407 H 0.73705 0.65491 0.94713 0.0
C408 C 0.7189 0.77339 0.93479 0.0
C409 C 0.8451 0.74519 0.96412 0.0
C410 C 0.79056 0.77903 0.87289 0.0
C411 C 0.842 0.67229 0.90328 0.0
H412 H 0.78991 0.76973 0.99121 0.0
H413 H 0.7174 0.78078 0.97555 0.0
H414 H 0.67834 0.80988 0.90605 0.0
H415 H 0.72108 0.81638 0.87253 0.0
H416 H 0.82861 0.73351 0.84675 0.0
H417 H 0.85081 0.67016 0.8632 0.0
H418 H 0.89506 0.64862 0.93023 0.0
H419 H 0.9043 0.69536 0.96248 0.0
H420 H 0.63137 0.6179 0.89047 0.0
H421 H 0.65113 0.58428 0.9482 0.0
H422 H 0.97822 0.87374 0.9032 0.0
H423 H 0.88913 0.92637 0.93147 0.0
C424 C 0.03579 0.79396 0.29932 0.0
C425 C 0.9942 0.77489 0.3111 0.0
C426 C 0.95535 0.73576 0.30148 0.0
C427 C 0.97464 0.73315 0.28422 0.0
N428 N 0.02312 0.76838 0.28256 0.0
Co429 Co 0.06307 0.78533 0.25896 0.0
N430 N 1.0034 0.75114 0.24255 0.0
C431 C 0.95771 0.71566 0.24836 0.0
C432 C 0.92392 0.69711 0.23366 0.0
C433 C 0.95044 0.72219 0.21771 0.0
C434 C 0.9991 0.75496 0.22356 0.0
N435 N 0.10484 0.80464 0.23582 0.0
C436 C 0.09244 0.80657 0.21761 0.0
C437 C 0.13382 0.82232 0.20582 0.0
C438 C 0.17284 0.82886 0.21706 0.0
C439 C 0.15344 0.81731 0.23503 0.0
N440 N 0.12315 0.8177 0.27507 0.0
C441 C 0.16824 0.82382 0.27059 0.0
C442 C 0.2009 0.83995 0.2856 0.0
C443 C 0.17451 0.84427 0.3004 0.0
C444 C 0.12745 0.83146 0.29337 0.0
N445 N 0.06385 0.72093 0.2603 0.0
C446 C 0.04795 0.62139 0.26189 0.0
C447 C 0.05006 0.64493 0.24457 0.0
C448 C 0.05784 0.69395 0.24408 0.0
C449 C 0.05582 0.65014 0.27842 0.0
C450 C 0.06408 0.69955 0.27732 0.0
N451 N 0.05825 0.84737 0.25761 0.0
C452 C 0.0913 0.93712 0.25519 0.0
C453 C 0.04278 0.93115 0.25683 0.0
C454 C 1.00295 0.88209 0.25855 0.0
C455 C 1.01135 0.84171 0.25906 0.0
C456 C 0.09822 0.89482 0.25561 0.0
H457 H 0.97886 0.80548 0.26078 0.0
H458 H 0.13564 0.9004 0.25446 0.0
H459 H 0.05701 0.70916 0.23043 0.0
H460 H 0.06926 0.71994 0.29036 0.0
C461 C 0.94659 0.70816 0.26792 0.0
C462 C 0.08794 0.83363 0.30417 0.0
C463 C 0.04104 0.78671 0.21072 0.0
C464 C 0.18074 0.82293 0.25161 0.0
H465 H 0.99099 0.78811 0.32488 0.0
H466 H 0.91671 0.71441 0.30602 0.0
H467 H 0.88434 0.67001 0.23448 0.0
H468 H 0.93578 0.7169 0.20344 0.0
H469 H 0.13532 0.82686 0.19058 0.0
H470 H 0.21088 0.84114 0.21268 0.0
H471 H 0.23978 0.84948 0.28562 0.0
H472 H 0.18857 0.85632 0.31462 0.0
H473 H 0.04385 0.62499 0.23132 0.0
H474 H 0.05554 0.63462 0.29221 0.0
H475 H 0.1238 0.97409 0.25386 0.0
H476 H 0.96463 0.87421 0.25931 0.0
C477 C 0.25526 0.02934 0.63057 0.0
C478 C 0.23228 0.98861 0.64274 0.0
C479 C 0.23259 0.94907 0.63376 0.0
C480 C 0.25473 0.967 0.61644 0.0
N481 N 0.26813 0.01533 0.61411 0.0
Co482 Co 0.29069 0.05308 0.59 0.0
N483 N 0.26507 0.99192 0.57443 0.0
C484 C 0.25501 0.94686 0.58093 0.0
C485 C 0.23958 0.91168 0.56673 0.0
C486 C 0.24071 0.93658 0.55036 0.0
C487 C 0.25664 0.98571 0.55548 0.0
N488 N 0.31255 0.09255 0.56631 0.0
C489 C 0.298 0.0783 0.54821 0.0
C490 C 0.32352 0.11843 0.53588 0.0
C491 C 0.35598 0.1586 0.54667 0.0
C492 C 0.34833 0.14105 0.56492 0.0
N493 N 0.31839 0.11454 0.60532 0.0
C494 C 0.357 0.15931 0.60029 0.0
C495 C 0.37334 0.1935 0.6148 0.0
C496 C 0.34285 0.1685 0.62984 0.0
C497 C 0.30882 0.12061 0.62346 0.0
N498 N 0.356 0.05433 0.59167 0.0
C499 C 0.44071 0.04047 0.59373 0.0
C500 C 0.41877 0.04085 0.57632 0.0
C501 C 0.37692 0.04755 0.5756 0.0
C502 C 0.41972 0.04878 0.61011 0.0
C503 C 0.37801 0.05611 0.60877 0.0
N504 N 0.22405 0.04827 0.58834 0.0
C505 C 0.16824 0.08209 0.58533 0.0
C506 C 0.12541 0.03394 0.58728 0.0
C507 C 0.134 0.99381 0.58942 0.0
C508 C 0.18259 1.00168 0.59011 0.0
C509 C 0.21715 0.08842 0.58586 0.0
H510 H 0.18605 0.96916 0.59224 0.0
H511 H 0.24925 0.12557 0.58444 0.0
H512 H 0.36049 0.04535 0.56191 0.0
H513 H 0.36279 0.06193 0.62168 0.0
C514 C 0.25155 0.93757 0.60061 0.0
C515 C 0.26777 0.0818 0.63478 0.0
C516 C 0.26646 0.02624 0.542 0.0
C517 C 0.37006 0.16995 0.58118 0.0
H518 H 0.21521 0.98628 0.65631 0.0
H519 H 0.21496 0.91078 0.63871 0.0
H520 H 0.22712 0.87225 0.56815 0.0
H521 H 0.23107 0.92053 0.5363 0.0
H522 H 0.32042 0.11833 0.5206 0.0
H523 H 0.38166 0.19618 0.5418 0.0
H524 H 0.40242 0.23244 0.6143 0.0
H525 H 0.34502 0.184 0.64379 0.0
H526 H 0.43268 0.03417 0.5632 0.0
H527 H 0.43538 0.04965 0.62393 0.0
H528 H 0.16423 0.11476 0.5837 0.0
H529 H 0.10324 0.95571 0.59043 0.0
C530 C 0.24148 0.27373 0.96184 0.0
C531 C 0.26469 0.26377 0.97668 0.0
C532 C 0.30299 0.25894 0.96887 0.0
C533 C 0.30135 0.26641 0.94973 0.0
N534 N 0.26432 0.27548 0.94512 0.0
Co535 Co 0.24867 0.2879 0.91913 0.0
N536 N 0.28496 0.25739 0.90705 0.0
C537 C 0.31935 0.24954 0.91566 0.0
C538 C 0.33988 0.2297 0.90357 0.0
C539 C 0.31728 0.22544 0.8863 0.0
C540 C 0.28408 0.24293 0.88879 0.0
N541 N 0.23237 0.30129 0.89337 0.0
C542 C 0.23424 0.28187 0.87644 0.0
C543 C 0.21974 0.30238 0.86187 0.0
C544 C 0.20936 0.3363 0.87 0.0
C545 C 0.21783 0.33458 0.88896 0.0
N546 N 0.21202 0.3184 0.93109 0.0
C547 C 0.19877 0.34912 0.92258 0.0
C548 C 0.16946 0.36043 0.93374 0.0
C549 C 0.164 0.33553 0.95036 0.0
C550 C 0.1915 0.31119 0.94861 0.0
N551 N 0.31269 0.35385 0.91882 0.0
C552 C 0.41439 0.43531 0.91958 0.0
C553 C 0.39281 0.40565 0.9033 0.0
C554 C 0.34273 0.36657 0.90312 0.0
C555 C 0.38183 0.42379 0.9353 0.0
C556 C 0.33168 0.38325 0.93466 0.0
N557 N 0.18722 0.22058 0.91928 0.0
C558 C 0.10169 0.16133 0.90996 0.0
C559 C 0.10533 0.12031 0.91701 0.0
C560 C 0.15083 0.13183 0.92567 0.0
C561 C 0.19073 0.18116 0.92643 0.0
C562 C 0.14273 0.21091 0.91133 0.0
H563 H 0.22505 0.18688 0.93259 0.0
H564 H 0.13881 0.24124 0.9056 0.0
H565 H 0.32935 0.34488 0.89031 0.0
H566 H 0.30881 0.37469 0.94723 0.0
C567 C 0.32656 0.25581 0.93542 0.0
C568 C 0.20016 0.2846 0.96416 0.0
C569 C 0.25561 0.2494 0.87328 0.0
C570 C 0.20423 0.35689 0.9031 0.0
H571 H 0.2549 0.26027 0.99155 0.0
H572 H 0.32755 0.24892 0.9762 0.0
H573 H 0.36726 0.21874 0.90696 0.0
H574 H 0.3249 0.21182 0.87331 0.0
H575 H 0.21787 0.29463 0.84685 0.0
H576 H 0.19573 0.35836 0.86299 0.0
H577 H 0.1513 0.3814 0.92982 0.0
H578 H 0.14161 0.33508 0.96221 0.0
H579 H 0.41452 0.41064 0.89066 0.0
H580 H 0.39475 0.44536 0.94823 0.0
H581 H 0.06785 0.15541 0.90304 0.0
H582 H 0.15622 0.10294 0.93198 0.0
C583 C 1.00808 0.23456 0.29879 0.0
C584 C 0.04989 0.25324 0.31045 0.0
C585 C 0.08879 0.29204 0.30074 0.0
C586 C 0.06929 0.29484 0.28355 0.0
N587 N 1.02062 0.26006 0.28202 0.0
Co588 Co 0.98016 0.24346 0.25855 0.0
N589 N 0.0395 0.27704 0.24196 0.0
C590 C 0.0855 0.31215 0.24766 0.0
C591 C 0.11897 0.33033 0.23285 0.0
C592 C 0.09192 0.3054 0.21697 0.0
C593 C 0.0433 0.27308 0.22295 0.0
N594 N 0.93788 0.22446 0.23554 0.0
C595 C 0.94976 0.22231 0.21728 0.0
C596 C 0.90819 0.20692 0.20562 0.0
C597 C 0.86958 0.20081 0.21701 0.0
C598 C 0.8894 0.21226 0.23492 0.0
N599 N 0.92043 0.21172 0.27485 0.0
C600 C 0.87541 0.20599 0.27052 0.0
C601 C 0.84302 0.18998 0.28562 0.0
C602 C 0.86952 0.18531 0.3003 0.0
C603 C 0.91637 0.19783 0.29313 0.0
N604 N 0.98026 0.30829 0.25998 0.0
C605 C 0.99863 0.40881 0.26162 0.0
C606 C 0.99518 0.38467 0.24428 0.0
C607 C 0.98626 0.33525 0.24378 0.0
C608 C 0.98989 0.37972 0.27813 0.0
C609 C 0.98065 0.32994 0.27701 0.0
N610 N 0.98408 0.18096 0.25707 0.0
C611 C 0.94965 0.09098 0.25494 0.0
C612 C 0.99804 0.09646 0.2556 0.0
C613 C 0.03846 0.1451 0.25724 0.0
C614 C 0.03081 0.18596 0.25809 0.0
C615 C 0.9435 0.1337 0.25552 0.0
H616 H 0.06365 0.22193 0.25982 0.0
H617 H 0.90622 0.12864 0.2548 0.0
H618 H 0.98606 0.31964 0.2301 0.0
H619 H 0.97555 0.30958 0.29005 0.0
C620 C 0.09711 0.31957 0.26718 0.0
C621 C 0.9559 0.1953 0.30377 0.0
C622 C 1.00093 0.24162 0.21022 0.0
C623 C 0.86256 0.20695 0.25159 0.0
H624 H 0.05314 0.23995 0.3242 0.0
H625 H 0.12755 0.31304 0.30517 0.0
H626 H 0.15867 0.35706 0.23357 0.0
H627 H 0.10623 0.31047 0.20265 0.0
H628 H 0.9063 0.20232 0.19038 0.0
H629 H 0.83151 0.18888 0.21275 0.0
H630 H 0.80421 0.18068 0.28575 0.0
H631 H 0.85566 0.1732 0.31454 0.0
H632 H 0.99982 0.40386 0.23096 0.0
H633 H 0.99187 0.39565 0.29198 0.0
H634 H 0.91688 0.05412 0.25376 0.0
H635 H 0.07639 0.15188 0.25834 0.0
C636 C 1.00524 0.28109 0.17882 0.0
C637 C 1.00785 0.24379 0.18931 0.0
H638 H 1.00618 0.31084 0.15123 0.0
C639 C 1.01034 0.20534 0.17966 0.0
H640 H 1.00224 0.3105 0.18601 0.0
C641 C 1.01198 0.20519 0.15979 0.0
C642 C 1.00996 0.24285 0.14931 0.0
H643 H 1.01134 0.17569 0.18751 0.0
H644 H 1.01656 0.17671 0.15261 0.0
C645 C 1.00613 0.28055 0.159 0.0
C646 C 0.82445 0.01571 0.49121 0.0
C647 C 0.78569 0.01661 0.48111 0.0
H648 H 0.85262 1.01136 0.51865 0.0
C649 C 0.74603 0.01594 0.49113 0.0
H650 H 0.85585 0.01724 0.48373 0.0
C651 C 0.74508 1.01435 0.51094 0.0
C652 C 0.78362 1.0131 0.52108 0.0
H653 H 0.71633 0.01768 0.4836 0.0
H654 H 0.71375 1.01308 0.51839 0.0
C655 C 0.82312 1.01337 0.51109 0.0
C656 C 0.73967 0.74972 0.82317 0.0
C657 C 0.7801 0.78636 0.81266 0.0
H658 H 0.71047 0.72046 0.85078 0.0
C659 C 0.82156 0.82433 0.82228 0.0
H660 H 0.70687 0.72074 0.81599 0.0
C661 C 0.82335 0.82453 0.84216 0.0
C662 C 0.78317 0.78746 0.85267 0.0
H663 H 0.8526 0.85352 0.81442 0.0
H664 H 0.85682 0.85247 0.84933 0.0
C665 C 0.74111 0.75037 0.84299 0.0
C666 C 0.02934 0.8228 0.16032 0.0
C667 C 0.0317 0.78533 0.14983 0.0
H668 H 0.02982 0.8522 0.18805 0.0
C669 C 0.0357 0.74773 0.15951 0.0
H670 H 0.02463 0.8512 0.15314 0.0
C671 C 0.03653 0.74713 0.17933 0.0
C672 C 0.0337 0.7843 0.18983 0.0
H673 H 0.03593 0.71759 0.15172 0.0
H674 H 0.03977 0.71786 0.18651 0.0
C675 C 0.03095 0.82263 0.18019 0.0
C676 C 0.22167 0.01586 0.51112 0.0
C677 C 0.26134 0.01675 0.52122 0.0
H678 H 0.18909 1.01147 0.48368 0.0
C679 C 0.30032 0.0161 0.51118 0.0
H680 H 0.19182 0.01741 0.5186 0.0
C681 C 0.29965 1.01449 0.49137 0.0
C682 C 0.25985 1.01325 0.48124 0.0
H683 H 0.33179 0.01786 0.51871 0.0
H684 H 0.32968 1.01319 0.48391 0.0
C685 C 0.22063 1.0135 0.49124 0.0
C686 C 0.30777 0.27892 0.82379 0.0
C687 C 0.26742 0.24267 0.81312 0.0
H688 H 0.33647 0.30764 0.85151 0.0
C689 C 0.2256 0.20474 0.82258 0.0
H690 H 0.34079 0.30792 0.81674 0.0
C691 C 0.22339 0.20421 0.84246 0.0
C692 C 0.26346 0.24097 0.85312 0.0
H693 H 0.19455 0.1759 0.8146 0.0
H694 H 0.18964 0.17637 0.84949 0.0
C695 C 0.30591 0.27796 0.8436 0.0
C696 C 0.16207 0.3268 0.00869 0.0
C697 C 0.12871 0.28139 0.01761 0.0
H698 H 0.21416 0.36333 0.98609 0.0
C699 C 0.11947 0.23641 0.009 0.0
H700 H 0.17005 0.36207 0.01498 0.0
C701 C 0.14345 0.23709 0.99187 0.0
C702 C 0.17775 0.28278 0.98328 0.0
H703 H 0.09431 0.20089 0.01565 0.0
H704 H 0.13503 0.20204 0.98528 0.0
C705 C 0.18759 0.32752 0.99222 0.0
C706 C 0.86545 0.08293 0.33247 0.0
C707 C 0.88001 0.09901 0.35121 0.0
H708 H 0.88196 0.09793 0.30296 0.0
C709 C 0.92776 0.14177 0.35397 0.0
H710 H 0.82857 0.05238 0.32923 0.0
C711 C 0.95543 0.17229 0.33866 0.0
C712 C 0.93888 0.15808 0.31994 0.0
H713 H 0.94065 0.15536 0.3682 0.0
H714 H 0.98648 0.2089 0.34187 0.0
C715 C 0.89593 0.11053 0.31717 0.0
C716 C 0.8012 0.9195 0.68475 0.0
C717 C 0.796 0.87174 0.68195 0.0
H718 H 0.7921 0.97776 0.67283 0.0
C719 C 0.79762 0.8573 0.6632 0.0
H720 H 0.80041 0.93227 0.69899 0.0
C721 C 0.80026 0.88779 0.64792 0.0
C722 C 0.79573 0.93076 0.65075 0.0
H723 H 0.79166 0.82057 0.65998 0.0
H724 H 0.79902 0.87404 0.63368 0.0
C725 C 0.79806 0.94707 0.66951 0.0
C726 C 0.8823 0.7027 0.00879 0.0
C727 C 0.91528 0.74803 0.01786 0.0
H728 H 0.83077 0.66632 0.98601 0.0
C729 C 0.92455 0.79307 0.00929 0.0
H730 H 0.87438 0.66739 0.01501 0.0
C731 C 0.90095 0.79251 0.99208 0.0
C732 C 0.86699 0.74689 0.98334 0.0
H733 H 0.94946 0.82853 0.01604 0.0
H734 H 0.90941 0.82761 0.98552 0.0
C735 C 0.85708 0.70209 0.99224 0.0
C736 C 0.08876 0.85691 0.33907 0.0
C737 C 0.10508 0.87096 0.32032 0.0
H738 H 0.10384 0.87408 0.36857 0.0
C739 C 0.14795 0.91854 0.31749 0.0
H740 H 0.05779 0.82032 0.34234 0.0
C741 C 0.17868 0.94618 0.33273 0.0
C742 C 0.1644 0.9302 0.3515 0.0
H743 H 0.16168 0.93108 0.30325 0.0
H744 H 0.21553 0.97664 0.32942 0.0
C745 C 0.1166 0.88757 0.35433 0.0
C746 C 0.24331 0.14207 0.64843 0.0
C747 C 0.24889 0.09968 0.65115 0.0
H748 H 0.25145 0.20906 0.66054 0.0
C749 C 0.24791 0.08385 0.66989 0.0
H750 H 0.24353 0.15543 0.63421 0.0
C751 C 0.24511 0.11141 0.68521 0.0
C752 C 0.24932 0.15877 0.68245 0.0
H753 H 0.25466 0.05359 0.67309 0.0
H754 H 0.24693 0.09903 0.69941 0.0
C755 C 0.24629 0.17263 0.66375 0.0
C756 C 1.01486 0.53289 0.0989 0.0
C757 C 1.00772 0.55305 0.08195 0.0
H758 H 0.03637 0.48525 0.11257 0.0
C759 C 1.01569 0.53371 0.06491 0.0
H760 H 1.00846 0.54432 0.11258 0.0
C761 C 0.02969 0.49631 0.0649 0.0
C762 C 0.03746 0.47681 0.08194 0.0
H763 H 1.0116 0.54753 0.05134 0.0
H764 H 0.03392 0.48261 0.05133 0.0
C765 C 0.03013 0.49682 0.0989 0.0
C766 C 0.55399 0.04089 0.39381 0.0
C767 C 0.57241 0.02212 0.40807 0.0
H768 H 0.4915 0.04586 0.38272 0.0
C769 C 0.53772 0.99077 0.42191 0.0
H770 H 0.57882 0.06539 0.38291 0.0
C771 C 0.48761 0.97998 0.42188 0.0
C772 C 0.46947 0.99949 0.40789 0.0
H773 H 0.54897 0.97386 0.43286 0.0
H774 H 0.46282 0.9558 0.43287 0.0
C775 C 0.50349 0.02964 0.39369 0.0
C776 C 0.48546 0.4986 0.75435 0.0
C777 C 0.48224 0.46462 0.74022 0.0
H778 H 0.52412 0.57338 0.76544 0.0
C779 C 0.51875 0.48418 0.72571 0.0
H780 H 0.45782 0.48641 0.76554 0.0
C781 C 0.55713 0.53507 0.72558 0.0
C782 C 0.5608 0.56858 0.73998 0.0
H783 H 0.51856 0.45995 0.71459 0.0
H784 H 0.5848 0.5478 0.71438 0.0
C785 C 0.52384 0.54921 0.75427 0.0
C786 C 0.48825 1.00061 0.60869 0.0
C787 C 0.48438 0.03077 0.5945 0.0
H788 H 0.52778 0.96481 0.61943 0.0
C789 C 0.522 0.05025 0.58049 0.0
H790 H 0.46005 0.98439 0.61968 0.0
C791 C 0.56128 0.03942 0.58043 0.0
C792 C 0.56461 1.00805 0.59425 0.0
H793 H 0.52141 0.07444 0.56951 0.0
H794 H 0.58941 0.05631 0.56947 0.0
C795 C 0.52746 0.98932 0.60854 0.0
C796 C 0.49719 0.49607 0.93696 0.0
C797 C 0.4699 0.4766 0.91992 0.0
H798 H 0.56679 0.54724 0.95048 0.0
C799 C 0.49718 0.49646 0.90295 0.0
H800 H 0.47916 0.48239 0.95052 0.0
C801 C 0.5486 0.53243 0.90292 0.0
C802 C 0.57595 0.55254 0.91987 0.0
H803 H 0.47919 0.48482 0.88929 0.0
H804 H 0.56652 0.54385 0.88926 0.0
C805 C 0.54872 0.53335 0.93693 0.0
C806 C 0.05477 0.54832 0.24821 0.0
C807 C 0.03686 0.56741 0.26248 0.0
H808 H 0.05864 0.48591 0.23696 0.0
C809 C 1.00709 0.53376 0.27686 0.0
H810 H 0.07864 0.57263 0.23706 0.0
C811 C 0.99492 0.48299 0.27672 0.0
C812 C 1.0122 0.46371 0.26223 0.0
H813 H 0.99193 0.54628 0.28805 0.0
H814 H 0.9709 0.45864 0.28783 0.0
C815 C 0.04292 0.49785 0.24813 0.0
C816 C 0.99027 0.02617 0.07311 0.0
C817 C 0.03071 0.06428 0.08358 0.0
H818 H 0.94743 0.94819 0.06553 0.0
C819 C 0.05923 0.0493 0.09459 0.0
H820 H 0.9678 0.0349 0.06385 0.0
C821 C 0.04807 0.99899 0.09498 0.0
C822 C 1.00726 0.96135 0.08475 0.0
H823 H 0.09012 0.07619 0.10315 0.0
H824 H 0.07133 0.98938 0.10345 0.0
C825 C 0.97839 0.97576 0.07392 0.0
C826 C 0.98081 0.98696 0.42672 0.0
C827 C 0.98334 0.02752 0.41648 0.0
H828 H 1.01686 0.94536 0.43456 0.0
C829 C 0.02648 0.05686 0.40564 0.0
H830 H 0.94824 0.96345 0.4353 0.0
C831 C 0.06549 0.04574 0.40486 0.0
C832 C 0.0634 1.00542 0.41523 0.0
H833 H 0.02946 0.08759 0.39722 0.0
H834 H 0.09712 0.06867 0.3958 0.0
C835 C 1.02016 0.9762 0.42616 0.0
C836 C 0.03831 0.05705 0.75737 0.0
C837 C 0.07602 0.05366 0.74717 0.0
H838 H 0.96048 0.02272 0.765 0.0
C839 C 0.06116 1.01038 0.73625 0.0
H840 H 0.048 0.08956 0.76606 0.0
C841 C 1.01051 0.97224 0.73538 0.0
C842 C 0.97265 0.97534 0.74566 0.0
H843 H 0.08849 1.00658 0.72788 0.0
H844 H 1.00111 0.94044 0.72633 0.0
C845 C 0.98767 0.01867 0.75664 0.0
C846 C 1.00796 0.04254 0.57544 0.0
C847 C 0.96984 1.00204 0.5857 0.0
H848 H 0.08571 0.08414 0.56765 0.0
C849 C 0.98357 0.97278 0.59661 0.0
H850 H 0.99896 0.06599 0.56682 0.0
C851 C 0.03373 0.98393 0.59743 0.0
C852 C 0.07206 0.02422 0.58706 0.0
H853 H 0.95576 0.9421 0.60503 0.0
H854 H 0.04237 0.96107 0.60654 0.0
C855 C 0.05809 0.05334 0.57606 0.0
C856 C 0.03352 0.97555 0.91544 0.0
C857 C 0.98286 0.96304 0.91558 0.0
H858 H 0.11059 0.03284 0.915 0.0
C859 C 0.97321 1.00334 0.91505 0.0
H860 H 0.04343 0.94654 0.91583 0.0
C861 C 1.01226 0.05365 0.91525 0.0
C862 C 0.06291 0.06617 0.91567 0.0
H863 H 0.9352 0.99637 0.91451 0.0
H864 H 1.00233 0.08266 0.91549 0.0
C865 C 0.07257 0.02587 0.91532 0.0
C866 C 0.06091 0.01772 0.24579 0.0
C867 C 0.03217 0.97428 0.25668 0.0
H868 H 0.07218 0.08889 0.23647 0.0
C869 C 0.99116 0.97133 0.26688 0.0
H870 H 0.09222 0.02169 0.2375 0.0
C871 C 0.979 1.00966 0.26601 0.0
C872 C 1.00784 0.05303 0.25519 0.0
H873 H 0.96844 0.93948 0.27587 0.0
H874 H 0.94779 1.00593 0.27432 0.0
C875 C 0.04902 0.05631 0.24509 0.0
loop_
_geom_bond_atom_site_label_1
_geom_bond_atom_site_label_2
_geom_bond_distance
_geom_bond_site_symmetry_2
_ccdc_geom_bond_type
C0 C1 1.443 1_455 S
C0 N4 1.376 1_455 S
C0 C38 1.389 . S
C1 C0 1.443 1_655 S
C1 C2 1.340 . S
C1 H41 0.951 . S
C2 C1 1.340 . S
C2 C3 1.439 . S
C2 H42 0.950 . S
C3 C2 1.439 . S
C3 N4 1.374 . S
C3 C37 1.395 . S
N4 C0 1.376 1_655 S
N4 C3 1.374 . S
N4 Co5 2.008 1_655 S
Co5 N4 2.008 1_455 S
Co5 N6 1.995 1_455 S
Co5 N11 2.008 . S
Co5 N16 1.995 . S
Co5 N21 2.282 . S
Co5 N27 2.282 . S
N6 Co5 1.995 1_655 S
N6 C7 1.376 . S
N6 C10 1.383 . S
C7 N6 1.376 . S
C7 C8 1.446 . S
C7 C37 1.391 . S
C8 C7 1.446 . S
C8 C9 1.339 . S
C8 H43 0.949 . S
C9 C8 1.339 . S
C9 C10 1.439 . S
C9 H44 0.950 . S
C10 N6 1.383 . S
C10 C9 1.439 . S
C10 C39 1.392 . S
N11 Co5 2.008 . S
N11 C12 1.376 . S
N11 C15 1.374 . S
C12 N11 1.376 . S
C12 C13 1.443 . S
C12 C39 1.389 1_455 S
C13 C12 1.443 . S
C13 C14 1.340 . S
C13 H45 0.951 . S
C14 C13 1.340 . S
C14 C15 1.439 . S
C14 H46 0.950 . S
C15 N11 1.374 . S
C15 C14 1.439 . S
C15 C40 1.395 . S
N16 Co5 1.995 . S
N16 C17 1.376 . S
N16 C20 1.383 . S
C17 N16 1.376 . S
C17 C18 1.446 . S
C17 C40 1.391 . S
C18 C17 1.446 . S
C18 C19 1.339 . S
C18 H47 0.949 . S
C19 C18 1.339 . S
C19 C20 1.439 . S
C19 H48 0.950 . S
C20 N16 1.383 . S
C20 C19 1.439 . S
C20 C38 1.392 . S
N21 Co5 2.282 . S
N21 C24 1.332 . S
N21 C26 1.332 1_455 S
C22 C23 1.386 . S
C22 C25 1.388 1_455 S
C23 C22 1.386 . S
C23 C24 1.382 . S
C23 H49 0.950 . S
C24 N21 1.332 . S
C24 C23 1.382 . S
C24 H35 0.952 . S
C25 C22 1.388 1_655 S
C25 C26 1.382 . S
C25 H50 0.950 . S
C26 N21 1.332 1_655 S
C26 C25 1.382 . S
C26 H36 0.948 . S
N27 Co5 2.282 . S
N27 C31 1.332 1_455 S
N27 C32 1.332 . S
C28 C29 1.388 . S
C28 C32 1.382 . S
C28 H51 0.950 . S
C29 C28 1.388 . S
C29 C30 1.386 1_455 S
C30 C29 1.386 1_655 S
C30 C31 1.382 . S
C30 H52 0.950 . S
C31 N27 1.332 1_655 S
C31 C30 1.382 . S
C31 H33 0.952 . S
C32 N27 1.332 . S
C32 C28 1.382 . S
C32 H34 0.948 . S
H33 C31 0.952 . S
H34 C32 0.948 . S
H35 C24 0.952 . S
H36 C26 0.948 . S
C37 C3 1.395 . S
C37 C7 1.391 . S
C38 C0 1.389 . S
C38 C20 1.392 . S
C39 C10 1.392 . S
C39 C12 1.389 1_655 S
C40 C15 1.395 . S
C40 C17 1.391 . S
H41 C1 0.951 . S
H42 C2 0.950 . S
H43 C8 0.949 . S
H44 C9 0.950 . S
H45 C13 0.951 . S
H46 C14 0.950 . S
H47 C18 0.949 . S
H48 C19 0.950 . S
H49 C23 0.950 . S
H50 C25 0.950 . S
H51 C28 0.950 . S
H52 C30 0.950 . S
C53 C54 1.443 1_545 S
C53 N57 1.376 1_545 S
C53 C91 1.389 . S
C54 C53 1.443 1_565 S
C54 C55 1.340 . S
C54 H94 0.951 . S
C55 C54 1.340 . S
C55 C56 1.439 . S
C55 H95 0.950 . S
C56 C55 1.439 . S
C56 N57 1.374 . S
C56 C90 1.395 . S
N57 C53 1.376 1_565 S
N57 C56 1.374 . S
N57 Co58 2.008 1_565 S
Co58 N57 2.008 1_545 S
Co58 N59 1.995 1_545 S
Co58 N64 2.008 . S
Co58 N69 1.995 . S
Co58 N74 2.282 . S
Co58 N80 2.282 . S
N59 Co58 1.995 1_565 S
N59 C60 1.376 . S
N59 C63 1.383 . S
C60 N59 1.376 . S
C60 C61 1.446 . S
C60 C90 1.391 . S
C61 C60 1.446 . S
C61 C62 1.339 . S
C61 H96 0.949 . S
C62 C61 1.339 . S
C62 C63 1.439 . S
C62 H97 0.950 . S
C63 N59 1.383 . S
C63 C62 1.439 . S
C63 C92 1.392 . S
N64 Co58 2.008 . S
N64 C65 1.376 . S
N64 C68 1.374 . S
C65 N64 1.376 . S
C65 C66 1.443 . S
C65 C92 1.389 1_545 S
C66 C65 1.443 . S
C66 C67 1.340 . S
C66 H98 0.951 . S
C67 C66 1.340 . S
C67 C68 1.439 . S
C67 H99 0.950 . S
C68 N64 1.374 . S
C68 C67 1.439 . S
C68 C93 1.395 . S
N69 Co58 1.995 . S
N69 C70 1.376 . S
N69 C73 1.383 . S
C70 N69 1.376 . S
C70 C71 1.446 . S
C70 C93 1.391 . S
C71 C70 1.446 . S
C71 C72 1.339 . S
C71 H100 0.949 . S
C72 C71 1.339 . S
C72 C73 1.439 . S
C72 H101 0.950 . S
C73 N69 1.383 . S
C73 C72 1.439 . S
C73 C91 1.392 . S
N74 Co58 2.282 . S
N74 C77 1.332 . S
N74 C79 1.332 1_545 S
C75 C76 1.386 . S
C75 C78 1.388 1_545 S
C76 C75 1.386 . S
C76 C77 1.382 . S
C76 H102 0.950 . S
C77 N74 1.332 . S
C77 C76 1.382 . S
C77 H88 0.952 . S
C78 C75 1.388 1_565 S
C78 C79 1.382 . S
C78 H103 0.950 . S
C79 N74 1.332 1_565 S
C79 C78 1.382 . S
C79 H89 0.948 . S
N80 Co58 2.282 . S
N80 C84 1.332 1_545 S
N80 C85 1.332 . S
C81 C82 1.388 . S
C81 C85 1.382 . S
C81 H104 0.950 . S
C82 C81 1.388 . S
C82 C83 1.386 1_545 S
C83 C82 1.386 1_565 S
C83 C84 1.382 . S
C83 H105 0.950 . S
C84 N80 1.332 1_565 S
C84 C83 1.382 . S
C84 H86 0.952 . S
C85 N80 1.332 . S
C85 C81 1.382 . S
C85 H87 0.948 . S
H86 C84 0.952 . S
H87 C85 0.948 . S
H88 C77 0.952 . S
H89 C79 0.948 . S
C90 C56 1.395 . S
C90 C60 1.391 . S
C91 C53 1.389 . S
C91 C73 1.392 . S
C92 C63 1.392 . S
C92 C65 1.389 1_565 S
C93 C68 1.395 . S
C93 C70 1.391 . S
H94 C54 0.951 . S
H95 C55 0.950 . S
H96 C61 0.949 . S
H97 C62 0.950 . S
H98 C66 0.951 . S
H99 C67 0.950 . S
H100 C71 0.949 . S
H101 C72 0.950 . S
H102 C76 0.950 . S
H103 C78 0.950 . S
H104 C81 0.950 . S
H105 C83 0.950 . S
C106 C107 1.443 . S
C106 N110 1.376 . S
C106 C144 1.389 . S
C107 C106 1.443 . S
C107 C108 1.340 . S
C107 H147 0.951 . S
C108 C107 1.340 . S
C108 C109 1.439 . S
C108 H148 0.950 . S
C109 C108 1.439 . S
C109 N110 1.374 . S
C109 C143 1.395 . S
N110 C106 1.376 . S
N110 C109 1.374 . S
N110 Co111 2.008 . S
Co111 N110 2.008 . S
Co111 N112 1.995 . S
Co111 N117 2.008 . S
Co111 N122 1.995 . S
Co111 N127 2.282 . S
Co111 N133 2.282 . S
N112 Co111 1.995 . S
N112 C113 1.376 . S
N112 C116 1.383 . S
C113 N112 1.376 . S
C113 C114 1.446 . S
C113 C143 1.391 . S
C114 C113 1.446 . S
C114 C115 1.339 . S
C114 H149 0.949 . S
C115 C114 1.339 . S
C115 C116 1.439 . S
C115 H150 0.950 . S
C116 N112 1.383 . S
C116 C115 1.439 . S
C116 C145 1.392 . S
N117 Co111 2.008 . S
N117 C118 1.376 . S
N117 C121 1.374 . S
C118 N117 1.376 . S
C118 C119 1.443 . S
C118 C145 1.389 . S
C119 C118 1.443 . S
C119 C120 1.340 . S
C119 H151 0.951 . S
C120 C119 1.340 . S
C120 C121 1.439 . S
C120 H152 0.950 . S
C121 N117 1.374 . S
C121 C120 1.439 . S
C121 C146 1.395 . S
N122 Co111 1.995 . S
N122 C123 1.376 . S
N122 C126 1.383 . S
C123 N122 1.376 . S
C123 C124 1.446 . S
C123 C146 1.391 . S
C124 C123 1.446 . S
C124 C125 1.339 . S
C124 H153 0.949 . S
C125 C124 1.339 . S
C125 C126 1.439 . S
C125 H154 0.950 . S
C126 N122 1.383 . S
C126 C125 1.439 . S
C126 C144 1.392 . S
N127 Co111 2.282 . S
N127 C130 1.332 . S
N127 C132 1.332 . S
C128 C129 1.386 . S
C128 C131 1.388 . S
C129 C128 1.386 . S
C129 C130 1.382 . S
C129 H155 0.950 . S
C130 N127 1.332 . S
C130 C129 1.382 . S
C130 H141 0.952 . S
C131 C128 1.388 . S
C131 C132 1.382 . S
C131 H156 0.950 . S
C132 N127 1.332 . S
C132 C131 1.382 . S
C132 H142 0.948 . S
N133 Co111 2.282 . S
N133 C137 1.332 . S
N133 C138 1.332 . S
C134 C135 1.388 . S
C134 C138 1.382 . S
C134 H157 0.950 . S
C135 C134 1.388 . S
C135 C136 1.386 . S
C136 C135 1.386 . S
C136 C137 1.382 . S
C136 H158 0.950 . S
C137 N133 1.332 . S
C137 C136 1.382 . S
C137 H139 0.952 . S
C138 N133 1.332 . S
C138 C134 1.382 . S
C138 H140 0.948 . S
H139 C137 0.952 . S
H140 C138 0.948 . S
H141 C130 0.952 . S
H142 C132 0.948 . S
C143 C109 1.395 . S
C143 C113 1.391 . S
C144 C106 1.389 . S
C144 C126 1.392 . S
C145 C116 1.392 . S
C145 C118 1.389 . S
C146 C121 1.395 . S
C146 C123 1.391 . S
H147 C107 0.951 . S
H148 C108 0.950 . S
H149 C114 0.949 . S
H150 C115 0.950 . S
H151 C119 0.951 . S
H152 C120 0.950 . S
H153 C124 0.949 . S
H154 C125 0.950 . S
H155 C129 0.950 . S
H156 C131 0.950 . S
H157 C134 0.950 . S
H158 C136 0.950 . S
C159 C160 1.443 1_655 S
C159 N163 1.376 1_655 S
C159 C197 1.389 . S
C160 C159 1.443 1_455 S
C160 C161 1.340 . S
C160 H200 0.951 . S
C161 C160 1.340 . S
C161 C162 1.439 . S
C161 H201 0.950 . S
C162 C161 1.439 . S
C162 N163 1.374 . S
C162 C196 1.395 . S
N163 C159 1.376 1_455 S
N163 C162 1.374 . S
N163 Co164 2.008 1_455 S
Co164 N163 2.008 1_655 S
Co164 N165 1.995 1_655 S
Co164 N170 2.008 . S
Co164 N175 1.995 . S
Co164 N180 2.282 . S
Co164 N186 2.282 . S
N165 Co164 1.995 1_455 S
N165 C166 1.376 . S
N165 C169 1.383 . S
C166 N165 1.376 . S
C166 C167 1.446 . S
C166 C196 1.391 . S
C167 C166 1.446 . S
C167 C168 1.339 . S
C167 H202 0.949 . S
C168 C167 1.339 . S
C168 C169 1.439 . S
C168 H203 0.950 . S
C169 N165 1.383 . S
C169 C168 1.439 . S
C169 C198 1.392 . S
N170 Co164 2.008 . S
N170 C171 1.376 . S
N170 C174 1.374 . S
C171 N170 1.376 . S
C171 C172 1.443 . S
C171 C198 1.389 1_655 S
C172 C171 1.443 . S
C172 C173 1.340 . S
C172 H204 0.951 . S
C173 C172 1.340 . S
C173 C174 1.439 . S
C173 H205 0.950 . S
C174 N170 1.374 . S
C174 C173 1.439 . S
C174 C199 1.395 . S
N175 Co164 1.995 . S
N175 C176 1.376 . S
N175 C179 1.383 . S
C176 N175 1.376 . S
C176 C177 1.446 . S
C176 C199 1.391 . S
C177 C176 1.446 . S
C177 C178 1.339 . S
C177 H206 0.949 . S
C178 C177 1.339 . S
C178 C179 1.439 . S
C178 H207 0.950 . S
C179 N175 1.383 . S
C179 C178 1.439 . S
C179 C197 1.392 . S
N180 Co164 2.282 . S
N180 C183 1.332 . S
N180 C185 1.332 1_655 S
C181 C182 1.386 . S
C181 C184 1.388 1_655 S
C182 C181 1.386 . S
C182 C183 1.382 . S
C182 H208 0.950 . S
C183 N180 1.332 . S
C183 C182 1.382 . S
C183 H194 0.952 . S
C184 C181 1.388 1_455 S
C184 C185 1.382 . S
C184 H209 0.950 . S
C185 N180 1.332 1_455 S
C185 C184 1.382 . S
C185 H195 0.948 . S
N186 Co164 2.282 . S
N186 C190 1.332 1_655 S
N186 C191 1.332 . S
C187 C188 1.388 . S
C187 C191 1.382 . S
C187 H210 0.950 . S
C188 C187 1.388 . S
C188 C189 1.386 1_655 S
C189 C188 1.386 1_455 S
C189 C190 1.382 . S
C189 H211 0.950 . S
C190 N186 1.332 1_455 S
C190 C189 1.382 . S
C190 H192 0.952 . S
C191 N186 1.332 . S
C191 C187 1.382 . S
C191 H193 0.948 . S
H192 C190 0.952 . S
H193 C191 0.948 . S
H194 C183 0.952 . S
H195 C185 0.948 . S
C196 C162 1.395 . S
C196 C166 1.391 . S
C197 C159 1.389 . S
C197 C179 1.392 . S
C198 C169 1.392 . S
C198 C171 1.389 1_455 S
C199 C174 1.395 . S
C199 C176 1.391 . S
H200 C160 0.951 . S
H201 C161 0.950 . S
H202 C167 0.949 . S
H203 C168 0.950 . S
H204 C172 0.951 . S
H205 C173 0.950 . S
H206 C177 0.949 . S
H207 C178 0.950 . S
H208 C182 0.950 . S
H209 C184 0.950 . S
H210 C187 0.950 . S
H211 C189 0.950 . S
C212 C213 1.443 1_565 S
C212 N216 1.376 1_565 S
C212 C250 1.389 . S
C213 C212 1.443 1_545 S
C213 C214 1.340 . S
C213 H253 0.951 . S
C214 C213 1.340 . S
C214 C215 1.439 . S
C214 H254 0.950 . S
C215 C214 1.439 . S
C215 N216 1.374 . S
C215 C249 1.395 . S
N216 C212 1.376 1_545 S
N216 C215 1.374 . S
N216 Co217 2.008 1_545 S
Co217 N216 2.008 1_565 S
Co217 N218 1.995 1_565 S
Co217 N223 2.008 . S
Co217 N228 1.995 . S
Co217 N233 2.282 . S
Co217 N239 2.282 . S
N218 Co217 1.995 1_545 S
N218 C219 1.376 . S
N218 C222 1.383 . S
C219 N218 1.376 . S
C219 C220 1.446 . S
C219 C249 1.391 . S
C220 C219 1.446 . S
C220 C221 1.339 . S
C220 H255 0.949 . S
C221 C220 1.339 . S
C221 C222 1.439 . S
C221 H256 0.950 . S
C222 N218 1.383 . S
C222 C221 1.439 . S
C222 C251 1.392 . S
N223 Co217 2.008 . S
N223 C224 1.376 . S
N223 C227 1.374 . S
C224 N223 1.376 . S
C224 C225 1.443 . S
C224 C251 1.389 1_565 S
C225 C224 1.443 . S
C225 C226 1.340 . S
C225 H257 0.951 . S
C226 C225 1.340 . S
C226 C227 1.439 . S
C226 H258 0.950 . S
C227 N223 1.374 . S
C227 C226 1.439 . S
C227 C252 1.395 . S
N228 Co217 1.995 . S
N228 C229 1.376 . S
N228 C232 1.383 . S
C229 N228 1.376 . S
C229 C230 1.446 . S
C229 C252 1.391 . S
C230 C229 1.446 . S
C230 C231 1.339 . S
C230 H259 0.949 . S
C231 C230 1.339 . S
C231 C232 1.439 . S
C231 H260 0.950 . S
C232 N228 1.383 . S
C232 C231 1.439 . S
C232 C250 1.392 . S
N233 Co217 2.282 . S
N233 C236 1.332 . S
N233 C238 1.332 1_565 S
C234 C235 1.386 . S
C234 C237 1.388 1_565 S
C235 C234 1.386 . S
C235 C236 1.382 . S
C235 H261 0.950 . S
C236 N233 1.332 . S
C236 C235 1.382 . S
C236 H247 0.952 . S
C237 C234 1.388 1_545 S
C237 C238 1.382 . S
C237 H262 0.950 . S
C238 N233 1.332 1_545 S
C238 C237 1.382 . S
C238 H248 0.948 . S
N239 Co217 2.282 . S
N239 C243 1.332 1_565 S
N239 C244 1.332 . S
C240 C241 1.388 . S
C240 C244 1.382 . S
C240 H263 0.950 . S
C241 C240 1.388 . S
C241 C242 1.386 1_565 S
C242 C241 1.386 1_545 S
C242 C243 1.382 . S
C242 H264 0.950 . S
C243 N239 1.332 1_545 S
C243 C242 1.382 . S
C243 H245 0.952 . S
C244 N239 1.332 . S
C244 C240 1.382 . S
C244 H246 0.948 . S
H245 C243 0.952 . S
H246 C244 0.948 . S
H247 C236 0.952 . S
H248 C238 0.948 . S
C249 C215 1.395 . S
C249 C219 1.391 . S
C250 C212 1.389 . S
C250 C232 1.392 . S
C251 C222 1.392 . S
C251 C224 1.389 1_545 S
C252 C227 1.395 . S
C252 C229 1.391 . S
H253 C213 0.951 . S
H254 C214 0.950 . S
H255 C220 0.949 . S
H256 C221 0.950 . S
H257 C225 0.951 . S
H258 C226 0.950 . S
H259 C230 0.949 . S
H260 C231 0.950 . S
H261 C235 0.950 . S
H262 C237 0.950 . S
H263 C240 0.950 . S
H264 C242 0.950 . S
C265 C266 1.443 . S
C265 N269 1.376 . S
C265 C303 1.389 . S
C266 C265 1.443 . S
C266 C267 1.340 . S
C266 H306 0.951 . S
C267 C266 1.340 . S
C267 C268 1.439 . S
C267 H307 0.950 . S
C268 C267 1.439 . S
C268 N269 1.374 . S
C268 C302 1.395 . S
N269 C265 1.376 . S
N269 C268 1.374 . S
N269 Co270 2.008 . S
Co270 N269 2.008 . S
Co270 N271 1.995 . S
Co270 N276 2.008 . S
Co270 N281 1.995 . S
Co270 N286 2.282 . S
Co270 N292 2.282 . S
N271 Co270 1.995 . S
N271 C272 1.376 . S
N271 C275 1.383 . S
C272 N271 1.376 . S
C272 C273 1.446 . S
C272 C302 1.391 . S
C273 C272 1.446 . S
C273 C274 1.339 . S
C273 H308 0.949 . S
C274 C273 1.339 . S
C274 C275 1.439 . S
C274 H309 0.950 . S
C275 N271 1.383 . S
C275 C274 1.439 . S
C275 C304 1.392 . S
N276 Co270 2.008 . S
N276 C277 1.376 . S
N276 C280 1.374 . S
C277 N276 1.376 . S
C277 C278 1.443 . S
C277 C304 1.389 . S
C278 C277 1.443 . S
C278 C279 1.340 . S
C278 H310 0.951 . S
C279 C278 1.340 . S
C279 C280 1.439 . S
C279 H311 0.950 . S
C280 N276 1.374 . S
C280 C279 1.439 . S
C280 C305 1.395 . S
N281 Co270 1.995 . S
N281 C282 1.376 . S
N281 C285 1.383 . S
C282 N281 1.376 . S
C282 C283 1.446 . S
C282 C305 1.391 . S
C283 C282 1.446 . S
C283 C284 1.339 . S
C283 H312 0.949 . S
C284 C283 1.339 . S
C284 C285 1.439 . S
C284 H313 0.950 . S
C285 N281 1.383 . S
C285 C284 1.439 . S
C285 C303 1.392 . S
N286 Co270 2.282 . S
N286 C289 1.332 . S
N286 C291 1.332 . S
C287 C288 1.386 . S
C287 C290 1.388 . S
C288 C287 1.386 . S
C288 C289 1.382 . S
C288 H314 0.950 . S
C289 N286 1.332 . S
C289 C288 1.382 . S
C289 H300 0.952 . S
C290 C287 1.388 . S
C290 C291 1.382 . S
C290 H315 0.950 . S
C291 N286 1.332 . S
C291 C290 1.382 . S
C291 H301 0.948 . S
N292 Co270 2.282 . S
N292 C296 1.332 . S
N292 C297 1.332 . S
C293 C294 1.388 . S
C293 C297 1.382 . S
C293 H316 0.950 . S
C294 C293 1.388 . S
C294 C295 1.386 . S
C295 C294 1.386 . S
C295 C296 1.382 . S
C295 H317 0.950 . S
C296 N292 1.332 . S
C296 C295 1.382 . S
C296 H298 0.952 . S
C297 N292 1.332 . S
C297 C293 1.382 . S
C297 H299 0.948 . S
H298 C296 0.952 . S
H299 C297 0.948 . S
H300 C289 0.952 . S
H301 C291 0.948 . S
C302 C268 1.395 . S
C302 C272 1.391 . S
C303 C265 1.389 . S
C303 C285 1.392 . S
C304 C275 1.392 . S
C304 C277 1.389 . S
C305 C280 1.395 . S
C305 C282 1.391 . S
H306 C266 0.951 . S
H307 C267 0.950 . S
H308 C273 0.949 . S
H309 C274 0.950 . S
H310 C278 0.951 . S
H311 C279 0.950 . S
H312 C283 0.949 . S
H313 C284 0.950 . S
H314 C288 0.950 . S
H315 C290 0.950 . S
H316 C293 0.950 . S
H317 C295 0.950 . S
C318 C319 1.443 1_565 S
C318 N322 1.376 1_565 S
C318 C356 1.389 . S
C319 C318 1.443 1_545 S
C319 C320 1.340 . S
C319 H359 0.951 . S
C320 C319 1.340 . S
C320 C321 1.439 . S
C320 H360 0.950 . S
C321 C320 1.439 . S
C321 N322 1.374 . S
C321 C355 1.395 . S
N322 C318 1.376 1_545 S
N322 C321 1.374 . S
N322 Co323 2.008 1_545 S
Co323 N322 2.008 1_565 S
Co323 N324 1.995 1_565 S
Co323 N329 2.008 . S
Co323 N334 1.995 . S
Co323 N339 2.282 . S
Co323 N345 2.282 . S
N324 Co323 1.995 1_545 S
N324 C325 1.376 . S
N324 C328 1.383 . S
C325 N324 1.376 . S
C325 C326 1.446 . S
C325 C355 1.391 . S
C326 C325 1.446 . S
C326 C327 1.339 . S
C326 H361 0.949 . S
C327 C326 1.339 . S
C327 C328 1.439 . S
C327 H362 0.950 . S
C328 N324 1.383 . S
C328 C327 1.439 . S
C328 C357 1.392 . S
N329 Co323 2.008 . S
N329 C330 1.376 . S
N329 C333 1.374 . S
C330 N329 1.376 . S
C330 C331 1.443 . S
C330 C357 1.389 1_565 S
C331 C330 1.443 . S
C331 C332 1.340 . S
C331 H363 0.951 . S
C332 C331 1.340 . S
C332 C333 1.439 . S
C332 H364 0.950 . S
C333 N329 1.374 . S
C333 C332 1.439 . S
C333 C358 1.395 . S
N334 Co323 1.995 . S
N334 C335 1.376 . S
N334 C338 1.383 . S
C335 N334 1.376 . S
C335 C336 1.446 . S
C335 C358 1.391 . S
C336 C335 1.446 . S
C336 C337 1.339 . S
C336 H365 0.949 . S
C337 C336 1.339 . S
C337 C338 1.439 . S
C337 H366 0.950 . S
C338 N334 1.383 . S
C338 C337 1.439 . S
C338 C356 1.392 . S
N339 Co323 2.282 . S
N339 C342 1.332 . S
N339 C344 1.332 1_565 S
C340 C341 1.386 . S
C340 C343 1.388 1_565 S
C341 C340 1.386 . S
C341 C342 1.382 . S
C341 H367 0.950 . S
C342 N339 1.332 . S
C342 C341 1.382 . S
C342 H353 0.952 . S
C343 C340 1.388 1_545 S
C343 C344 1.382 . S
C343 H368 0.950 . S
C344 N339 1.332 1_545 S
C344 C343 1.382 . S
C344 H354 0.948 . S
N345 Co323 2.282 . S
N345 C349 1.332 1_565 S
N345 C350 1.332 . S
C346 C347 1.388 . S
C346 C350 1.382 . S
C346 H369 0.950 . S
C347 C346 1.388 . S
C347 C348 1.386 1_565 S
C348 C347 1.386 1_545 S
C348 C349 1.382 . S
C348 H370 0.950 . S
C349 N345 1.332 1_545 S
C349 C348 1.382 . S
C349 H351 0.952 . S
C350 N345 1.332 . S
C350 C346 1.382 . S
C350 H352 0.948 . S
H351 C349 0.952 . S
H352 C350 0.948 . S
H353 C342 0.952 . S
H354 C344 0.948 . S
C355 C321 1.395 . S
C355 C325 1.391 . S
C356 C318 1.389 . S
C356 C338 1.392 . S
C357 C328 1.392 . S
C357 C330 1.389 1_545 S
C358 C333 1.395 . S
C358 C335 1.391 . S
H359 C319 0.951 . S
H360 C320 0.950 . S
H361 C326 0.949 . S
H362 C327 0.950 . S
H363 C331 0.951 . S
H364 C332 0.950 . S
H365 C336 0.949 . S
H366 C337 0.950 . S
H367 C341 0.950 . S
H368 C343 0.950 . S
H369 C346 0.950 . S
H370 C348 0.950 . S
C371 C372 1.443 . S
C371 N375 1.376 . S
C371 C409 1.389 . S
C372 C371 1.443 . S
C372 C373 1.340 . S
C372 H412 0.951 . S
C373 C372 1.340 . S
C373 C374 1.439 . S
C373 H413 0.950 . S
C374 C373 1.439 . S
C374 N375 1.374 . S
C374 C408 1.395 . S
N375 C371 1.376 . S
N375 C374 1.374 . S
N375 Co376 2.008 . S
Co376 N375 2.008 . S
Co376 N377 1.995 . S
Co376 N382 2.008 . S
Co376 N387 1.995 . S
Co376 N392 2.282 . S
Co376 N398 2.282 . S
N377 Co376 1.995 . S
N377 C378 1.376 . S
N377 C381 1.383 . S
C378 N377 1.376 . S
C378 C379 1.446 . S
C378 C408 1.391 . S
C379 C378 1.446 . S
C379 C380 1.339 . S
C379 H414 0.949 . S
C380 C379 1.339 . S
C380 C381 1.439 . S
C380 H415 0.950 . S
C381 N377 1.383 . S
C381 C380 1.439 . S
C381 C410 1.392 . S
N382 Co376 2.008 . S
N382 C383 1.376 . S
N382 C386 1.374 . S
C383 N382 1.376 . S
C383 C384 1.443 . S
C383 C410 1.389 . S
C384 C383 1.443 . S
C384 C385 1.340 . S
C384 H416 0.951 . S
C385 C384 1.340 . S
C385 C386 1.439 . S
C385 H417 0.950 . S
C386 N382 1.374 . S
C386 C385 1.439 . S
C386 C411 1.395 . S
N387 Co376 1.995 . S
N387 C388 1.376 . S
N387 C391 1.383 . S
C388 N387 1.376 . S
C388 C389 1.446 . S
C388 C411 1.391 . S
C389 C388 1.446 . S
C389 C390 1.339 . S
C389 H418 0.949 . S
C390 C389 1.339 . S
C390 C391 1.439 . S
C390 H419 0.950 . S
C391 N387 1.383 . S
C391 C390 1.439 . S
C391 C409 1.392 . S
N392 Co376 2.282 . S
N392 C395 1.332 . S
N392 C397 1.332 . S
C393 C394 1.386 . S
C393 C396 1.388 . S
C394 C393 1.386 . S
C394 C395 1.382 . S
C394 H420 0.950 . S
C395 N392 1.332 . S
C395 C394 1.382 . S
C395 H406 0.952 . S
C396 C393 1.388 . S
C396 C397 1.382 . S
C396 H421 0.950 . S
C397 N392 1.332 . S
C397 C396 1.382 . S
C397 H407 0.948 . S
N398 Co376 2.282 . S
N398 C402 1.332 . S
N398 C403 1.332 . S
C399 C400 1.388 . S
C399 C403 1.382 . S
C399 H422 0.950 . S
C400 C399 1.388 . S
C400 C401 1.386 . S
C401 C400 1.386 . S
C401 C402 1.382 . S
C401 H423 0.950 . S
C402 N398 1.332 . S
C402 C401 1.382 . S
C402 H404 0.952 . S
C403 N398 1.332 . S
C403 C399 1.382 . S
C403 H405 0.948 . S
H404 C402 0.952 . S
H405 C403 0.948 . S
H406 C395 0.952 . S
H407 C397 0.948 . S
C408 C374 1.395 . S
C408 C378 1.391 . S
C409 C371 1.389 . S
C409 C391 1.392 . S
C410 C381 1.392 . S
C410 C383 1.389 . S
C411 C386 1.395 . S
C411 C388 1.391 . S
H412 C372 0.951 . S
H413 C373 0.950 . S
H414 C379 0.949 . S
H415 C380 0.950 . S
H416 C384 0.951 . S
H417 C385 0.950 . S
H418 C389 0.949 . S
H419 C390 0.950 . S
H420 C394 0.950 . S
H421 C396 0.950 . S
H422 C399 0.950 . S
H423 C401 0.950 . S
C424 C425 1.443 1_455 S
C424 N428 1.376 1_455 S
C424 C462 1.389 . S
C425 C424 1.443 1_655 S
C425 C426 1.340 . S
C425 H465 0.951 . S
C426 C425 1.340 . S
C426 C427 1.439 . S
C426 H466 0.950 . S
C427 C426 1.439 . S
C427 N428 1.374 . S
C427 C461 1.395 . S
N428 C424 1.376 1_655 S
N428 C427 1.374 . S
N428 Co429 2.008 1_655 S
Co429 N428 2.008 1_455 S
Co429 N430 1.995 1_455 S
Co429 N435 2.008 . S
Co429 N440 1.995 . S
Co429 N445 2.282 . S
Co429 N451 2.282 . S
N430 Co429 1.995 1_655 S
N430 C431 1.376 . S
N430 C434 1.383 . S
C431 N430 1.376 . S
C431 C432 1.446 . S
C431 C461 1.391 . S
C432 C431 1.446 . S
C432 C433 1.339 . S
C432 H467 0.949 . S
C433 C432 1.339 . S
C433 C434 1.439 . S
C433 H468 0.950 . S
C434 N430 1.383 . S
C434 C433 1.439 . S
C434 C463 1.392 . S
N435 Co429 2.008 . S
N435 C436 1.376 . S
N435 C439 1.374 . S
C436 N435 1.376 . S
C436 C437 1.443 . S
C436 C463 1.389 1_455 S
C437 C436 1.443 . S
C437 C438 1.340 . S
C437 H469 0.951 . S
C438 C437 1.340 . S
C438 C439 1.439 . S
C438 H470 0.950 . S
C439 N435 1.374 . S
C439 C438 1.439 . S
C439 C464 1.395 . S
N440 Co429 1.995 . S
N440 C441 1.376 . S
N440 C444 1.383 . S
C441 N440 1.376 . S
C441 C442 1.446 . S
C441 C464 1.391 . S
C442 C441 1.446 . S
C442 C443 1.339 . S
C442 H471 0.949 . S
C443 C442 1.339 . S
C443 C444 1.439 . S
C443 H472 0.950 . S
C444 N440 1.383 . S
C444 C443 1.439 . S
C444 C462 1.392 . S
N445 Co429 2.282 . S
N445 C448 1.332 . S
N445 C450 1.332 1_455 S
C446 C447 1.386 . S
C446 C449 1.388 1_455 S
C447 C446 1.386 . S
C447 C448 1.382 . S
C447 H473 0.950 . S
C448 N445 1.332 . S
C448 C447 1.382 . S
C448 H459 0.952 . S
C449 C446 1.388 1_655 S
C449 C450 1.382 . S
C449 H474 0.950 . S
C450 N445 1.332 1_655 S
C450 C449 1.382 . S
C450 H460 0.948 . S
N451 Co429 2.282 . S
N451 C455 1.332 1_455 S
N451 C456 1.332 . S
C452 C453 1.388 . S
C452 C456 1.382 . S
C452 H475 0.950 . S
C453 C452 1.388 . S
C453 C454 1.386 1_455 S
C454 C453 1.386 1_655 S
C454 C455 1.382 . S
C454 H476 0.950 . S
C455 N451 1.332 1_655 S
C455 C454 1.382 . S
C455 H457 0.952 . S
C456 N451 1.332 . S
C456 C452 1.382 . S
C456 H458 0.948 . S
H457 C455 0.952 . S
H458 C456 0.948 . S
H459 C448 0.952 . S
H460 C450 0.948 . S
C461 C427 1.395 . S
C461 C431 1.391 . S
C462 C424 1.389 . S
C462 C444 1.392 . S
C463 C434 1.392 . S
C463 C436 1.389 1_655 S
C464 C439 1.395 . S
C464 C441 1.391 . S
H465 C425 0.951 . S
H466 C426 0.950 . S
H467 C432 0.949 . S
H468 C433 0.950 . S
H469 C437 0.951 . S
H470 C438 0.950 . S
H471 C442 0.949 . S
H472 C443 0.950 . S
H473 C447 0.950 . S
H474 C449 0.950 . S
H475 C452 0.950 . S
H476 C454 0.950 . S
C477 C478 1.443 1_545 S
C477 N481 1.376 1_545 S
C477 C515 1.389 . S
C478 C477 1.443 1_565 S
C478 C479 1.340 . S
C478 H518 0.951 . S
C479 C478 1.340 . S
C479 C480 1.439 . S
C479 H519 0.950 . S
C480 C479 1.439 . S
C480 N481 1.374 . S
C480 C514 1.395 . S
N481 C477 1.376 1_565 S
N481 C480 1.374 . S
N481 Co482 2.008 1_565 S
Co482 N481 2.008 1_545 S
Co482 N483 1.995 1_545 S
Co482 N488 2.008 . S
Co482 N493 1.995 . S
Co482 N498 2.282 . S
Co482 N504 2.282 . S
N483 Co482 1.995 1_565 S
N483 C484 1.376 . S
N483 C487 1.383 . S
C484 N483 1.376 . S
C484 C485 1.446 . S
C484 C514 1.391 . S
C485 C484 1.446 . S
C485 C486 1.339 . S
C485 H520 0.949 . S
C486 C485 1.339 . S
C486 C487 1.439 . S
C486 H521 0.950 . S
C487 N483 1.383 . S
C487 C486 1.439 . S
C487 C516 1.392 . S
N488 Co482 2.008 . S
N488 C489 1.376 . S
N488 C492 1.374 . S
C489 N488 1.376 . S
C489 C490 1.443 . S
C489 C516 1.389 1_545 S
C490 C489 1.443 . S
C490 C491 1.340 . S
C490 H522 0.951 . S
C491 C490 1.340 . S
C491 C492 1.439 . S
C491 H523 0.950 . S
C492 N488 1.374 . S
C492 C491 1.439 . S
C492 C517 1.395 . S
N493 Co482 1.995 . S
N493 C494 1.376 . S
N493 C497 1.383 . S
C494 N493 1.376 . S
C494 C495 1.446 . S
C494 C517 1.391 . S
C495 C494 1.446 . S
C495 C496 1.339 . S
C495 H524 0.949 . S
C496 C495 1.339 . S
C496 C497 1.439 . S
C496 H525 0.950 . S
C497 N493 1.383 . S
C497 C496 1.439 . S
C497 C515 1.392 . S
N498 Co482 2.282 . S
N498 C501 1.332 . S
N498 C503 1.332 1_545 S
C499 C500 1.386 . S
C499 C502 1.388 1_545 S
C500 C499 1.386 . S
C500 C501 1.382 . S
C500 H526 0.950 . S
C501 N498 1.332 . S
C501 C500 1.382 . S
C501 H512 0.952 . S
C502 C499 1.388 1_565 S
C502 C503 1.382 . S
C502 H527 0.950 . S
C503 N498 1.332 1_565 S
C503 C502 1.382 . S
C503 H513 0.948 . S
N504 Co482 2.282 . S
N504 C508 1.332 1_545 S
N504 C509 1.332 . S
C505 C506 1.388 . S
C505 C509 1.382 . S
C505 H528 0.950 . S
C506 C505 1.388 . S
C506 C507 1.386 1_545 S
C507 C506 1.386 1_565 S
C507 C508 1.382 . S
C507 H529 0.950 . S
C508 N504 1.332 1_565 S
C508 C507 1.382 . S
C508 H510 0.952 . S
C509 N504 1.332 . S
C509 C505 1.382 . S
C509 H511 0.948 . S
H510 C508 0.952 . S
H511 C509 0.948 . S
H512 C501 0.952 . S
H513 C503 0.948 . S
C514 C480 1.395 . S
C514 C484 1.391 . S
C515 C477 1.389 . S
C515 C497 1.392 . S
C516 C487 1.392 . S
C516 C489 1.389 1_565 S
C517 C492 1.395 . S
C517 C494 1.391 . S
H518 C478 0.951 . S
H519 C479 0.950 . S
H520 C485 0.949 . S
H521 C486 0.950 . S
H522 C490 0.951 . S
H523 C491 0.950 . S
H524 C495 0.949 . S
H525 C496 0.950 . S
H526 C500 0.950 . S
H527 C502 0.950 . S
H528 C505 0.950 . S
H529 C507 0.950 . S
C530 C531 1.443 . S
C530 N534 1.376 . S
C530 C568 1.389 . S
C531 C530 1.443 . S
C531 C532 1.340 . S
C531 H571 0.951 . S
C532 C531 1.340 . S
C532 C533 1.439 . S
C532 H572 0.950 . S
C533 C532 1.439 . S
C533 N534 1.374 . S
C533 C567 1.395 . S
N534 C530 1.376 . S
N534 C533 1.374 . S
N534 Co535 2.008 . S
Co535 N534 2.008 . S
Co535 N536 1.995 . S
Co535 N541 2.008 . S
Co535 N546 1.995 . S
Co535 N551 2.282 . S
Co535 N557 2.282 . S
N536 Co535 1.995 . S
N536 C537 1.376 . S
N536 C540 1.383 . S
C537 N536 1.376 . S
C537 C538 1.446 . S
C537 C567 1.391 . S
C538 C537 1.446 . S
C538 C539 1.339 . S
C538 H573 0.949 . S
C539 C538 1.339 . S
C539 C540 1.439 . S
C539 H574 0.950 . S
C540 N536 1.383 . S
C540 C539 1.439 . S
C540 C569 1.392 . S
N541 Co535 2.008 . S
N541 C542 1.376 . S
N541 C545 1.374 . S
C542 N541 1.376 . S
C542 C543 1.443 . S
C542 C569 1.389 . S
C543 C542 1.443 . S
C543 C544 1.340 . S
C543 H575 0.951 . S
C544 C543 1.340 . S
C544 C545 1.439 . S
C544 H576 0.950 . S
C545 N541 1.374 . S
C545 C544 1.439 . S
C545 C570 1.395 . S
N546 Co535 1.995 . S
N546 C547 1.376 . S
N546 C550 1.383 . S
C547 N546 1.376 . S
C547 C548 1.446 . S
C547 C570 1.391 . S
C548 C547 1.446 . S
C548 C549 1.339 . S
C548 H577 0.949 . S
C549 C548 1.339 . S
C549 C550 1.439 . S
C549 H578 0.950 . S
C550 N546 1.383 . S
C550 C549 1.439 . S
C550 C568 1.392 . S
N551 Co535 2.282 . S
N551 C554 1.332 . S
N551 C556 1.332 . S
C552 C553 1.386 . S
C552 C555 1.388 . S
C553 C552 1.386 . S
C553 C554 1.382 . S
C553 H579 0.950 . S
C554 N551 1.332 . S
C554 C553 1.382 . S
C554 H565 0.952 . S
C555 C552 1.388 . S
C555 C556 1.382 . S
C555 H580 0.950 . S
C556 N551 1.332 . S
C556 C555 1.382 . S
C556 H566 0.948 . S
N557 Co535 2.282 . S
N557 C561 1.332 . S
N557 C562 1.332 . S
C558 C559 1.388 . S
C558 C562 1.382 . S
C558 H581 0.950 . S
C559 C558 1.388 . S
C559 C560 1.386 . S
C560 C559 1.386 . S
C560 C561 1.382 . S
C560 H582 0.950 . S
C561 N557 1.332 . S
C561 C560 1.382 . S
C561 H563 0.952 . S
C562 N557 1.332 . S
C562 C558 1.382 . S
C562 H564 0.948 . S
H563 C561 0.952 . S
H564 C562 0.948 . S
H565 C554 0.952 . S
H566 C556 0.948 . S
C567 C533 1.395 . S
C567 C537 1.391 . S
C568 C530 1.389 . S
C568 C550 1.392 . S
C569 C540 1.392 . S
C569 C542 1.389 . S
C570 C545 1.395 . S
C570 C547 1.391 . S
H571 C531 0.951 . S
H572 C532 0.950 . S
H573 C538 0.949 . S
H574 C539 0.950 . S
H575 C543 0.951 . S
H576 C544 0.950 . S
H577 C548 0.949 . S
H578 C549 0.950 . S
H579 C553 0.950 . S
H580 C555 0.950 . S
H581 C558 0.950 . S
H582 C560 0.950 . S
C583 C584 1.443 1_655 S
C583 N587 1.376 1_655 S
C583 C621 1.389 . S
C584 C583 1.443 1_455 S
C584 C585 1.340 . S
C584 H624 0.951 . S
C585 C584 1.340 . S
C585 C586 1.439 . S
C585 H625 0.950 . S
C586 C585 1.439 . S
C586 N587 1.374 . S
C586 C620 1.395 . S
N587 C583 1.376 1_455 S
N587 C586 1.374 . S
N587 Co588 2.008 1_455 S
Co588 N587 2.008 1_655 S
Co588 N589 1.995 1_655 S
Co588 N594 2.008 . S
Co588 N599 1.995 . S
Co588 N604 2.282 . S
Co588 N610 2.282 . S
N589 Co588 1.995 1_455 S
N589 C590 1.376 . S
N589 C593 1.383 . S
C590 N589 1.376 . S
C590 C591 1.446 . S
C590 C620 1.391 . S
C591 C590 1.446 . S
C591 C592 1.339 . S
C591 H626 0.949 . S
C592 C591 1.339 . S
C592 C593 1.439 . S
C592 H627 0.950 . S
C593 N589 1.383 . S
C593 C592 1.439 . S
C593 C622 1.392 . S
N594 Co588 2.008 . S
N594 C595 1.376 . S
N594 C598 1.374 . S
C595 N594 1.376 . S
C595 C596 1.443 . S
C595 C622 1.389 1_655 S
C596 C595 1.443 . S
C596 C597 1.340 . S
C596 H628 0.951 . S
C597 C596 1.340 . S
C597 C598 1.439 . S
C597 H629 0.950 . S
C598 N594 1.374 . S
C598 C597 1.439 . S
C598 C623 1.395 . S
N599 Co588 1.995 . S
N599 C600 1.376 . S
N599 C603 1.383 . S
C600 N599 1.376 . S
C600 C601 1.446 . S
C600 C623 1.391 . S
C601 C600 1.446 . S
C601 C602 1.339 . S
C601 H630 0.949 . S
C602 C601 1.339 . S
C602 C603 1.439 . S
C602 H631 0.950 . S
C603 N599 1.383 . S
C603 C602 1.439 . S
C603 C621 1.392 . S
N604 Co588 2.282 . S
N604 C607 1.332 . S
N604 C609 1.332 1_655 S
C605 C606 1.386 . S
C605 C608 1.388 1_655 S
C606 C605 1.386 . S
C606 C607 1.382 . S
C606 H632 0.950 . S
C607 N604 1.332 . S
C607 C606 1.382 . S
C607 H618 0.952 . S
C608 C605 1.388 1_455 S
C608 C609 1.382 . S
C608 H633 0.950 . S
C609 N604 1.332 1_455 S
C609 C608 1.382 . S
C609 H619 0.948 . S
N610 Co588 2.282 . S
N610 C614 1.332 1_655 S
N610 C615 1.332 . S
C611 C612 1.388 . S
C611 C615 1.382 . S
C611 H634 0.950 . S
C612 C611 1.388 . S
C612 C613 1.386 1_655 S
C613 C612 1.386 1_455 S
C613 C614 1.382 . S
C613 H635 0.950 . S
C614 N610 1.332 1_455 S
C614 C613 1.382 . S
C614 H616 0.952 . S
C615 N610 1.332 . S
C615 C611 1.382 . S
C615 H617 0.948 . S
H616 C614 0.952 . S
H617 C615 0.948 . S
H618 C607 0.952 . S
H619 C609 0.948 . S
C620 C586 1.395 . S
C620 C590 1.391 . S
C621 C583 1.389 . S
C621 C603 1.392 . S
C622 C593 1.392 . S
C622 C595 1.389 1_455 S
C623 C598 1.395 . S
C623 C600 1.391 . S
H624 C584 0.951 . S
H625 C585 0.950 . S
H626 C591 0.949 . S
H627 C592 0.950 . S
H628 C596 0.951 . S
H629 C597 0.950 . S
H630 C601 0.949 . S
H631 C602 0.950 . S
H632 C606 0.950 . S
H633 C608 0.950 . S
H634 C611 0.950 . S
H635 C613 0.950 . S
C636 C637 1.387 . S
C636 H640 0.950 . S
C636 C645 1.390 . S
C637 C636 1.387 . S
C637 C639 1.387 1_455 S
H638 C645 0.950 . S
C639 C637 1.387 1_655 S
C639 C641 1.390 . S
C639 H643 0.950 . S
H640 C636 0.950 . S
C641 C639 1.390 . S
C641 C642 1.387 . S
C641 H644 0.950 . S
C642 C641 1.387 . S
C642 C645 1.387 1_655 S
H643 C639 0.950 . S
H644 C641 0.950 . S
C645 C636 1.390 . S
C645 H638 0.950 . S
C645 C642 1.387 1_455 S
C646 C647 1.387 . S
C646 H650 0.950 . S
C646 C655 1.390 1_565 S
C647 C646 1.387 . S
C647 C649 1.387 . S
H648 C655 0.950 . S
C649 C647 1.387 . S
C649 C651 1.390 1_565 S
C649 H653 0.950 . S
H650 C646 0.950 . S
C651 C649 1.390 1_545 S
C651 C652 1.387 . S
C651 H654 0.950 . S
C652 C651 1.387 . S
C652 C655 1.387 . S
H653 C649 0.950 . S
H654 C651 0.950 . S
C655 C646 1.390 1_545 S
C655 H648 0.950 . S
C655 C652 1.387 . S
C656 C657 1.387 . S
C656 H660 0.950 . S
C656 C665 1.390 . S
C657 C656 1.387 . S
C657 C659 1.387 . S
H658 C665 0.950 . S
C659 C657 1.387 . S
C659 C661 1.390 . S
C659 H663 0.950 . S
H660 C656 0.950 . S
C661 C659 1.390 . S
C661 C662 1.387 . S
C661 H664 0.950 . S
C662 C661 1.387 . S
C662 C665 1.387 . S
H663 C659 0.950 . S
H664 C661 0.950 . S
C665 C656 1.390 . S
C665 H658 0.950 . S
C665 C662 1.387 . S
C666 C667 1.387 . S
C666 H670 0.950 . S
C666 C675 1.390 . S
C667 C666 1.387 . S
C667 C669 1.387 1_455 S
H668 C675 0.950 . S
C669 C667 1.387 1_655 S
C669 C671 1.390 . S
C669 H673 0.950 . S
H670 C666 0.950 . S
C671 C669 1.390 . S
C671 C672 1.387 . S
C671 H674 0.950 . S
C672 C671 1.387 . S
C672 C675 1.387 1_655 S
H673 C669 0.950 . S
H674 C671 0.950 . S
C675 C666 1.390 . S
C675 H668 0.950 . S
C675 C672 1.387 1_455 S
C676 C677 1.387 . S
C676 H680 0.950 . S
C676 C685 1.390 1_565 S
C677 C676 1.387 . S
C677 C679 1.387 . S
H678 C685 0.950 . S
C679 C677 1.387 . S
C679 C681 1.390 1_565 S
C679 H683 0.950 . S
H680 C676 0.950 . S
C681 C679 1.390 1_545 S
C681 C682 1.387 . S
C681 H684 0.950 . S
C682 C681 1.387 . S
C682 C685 1.387 . S
H683 C679 0.950 . S
H684 C681 0.950 . S
C685 C676 1.390 1_545 S
C685 H678 0.950 . S
C685 C682 1.387 . S
C686 C687 1.387 . S
C686 H690 0.950 . S
C686 C695 1.390 . S
C687 C686 1.387 . S
C687 C689 1.387 . S
H688 C695 0.950 . S
C689 C687 1.387 . S
C689 C691 1.390 . S
C689 H693 0.950 . S
H690 C686 0.950 . S
C691 C689 1.390 . S
C691 C692 1.387 . S
C691 H694 0.950 . S
C692 C691 1.387 . S
C692 C695 1.387 . S
H693 C689 0.950 . S
H694 C691 0.950 . S
C695 C686 1.390 . S
C695 H688 0.950 . S
C695 C692 1.387 . S
C696 C697 1.387 . S
C696 H700 0.950 . S
C696 C705 1.390 1_554 S
C697 C696 1.387 . S
C697 C699 1.387 . S
H698 C705 0.950 . S
C699 C697 1.387 . S
C699 C701 1.390 1_554 S
C699 H703 0.950 . S
H700 C696 0.950 . S
C701 C699 1.390 1_556 S
C701 C702 1.387 . S
C701 H704 0.950 . S
C702 C701 1.387 . S
C702 C705 1.387 . S
H703 C699 0.950 . S
H704 C701 0.950 . S
C705 C696 1.390 1_556 S
C705 H698 0.950 . S
C705 C702 1.387 . S
C706 C707 1.387 . S
C706 H710 0.950 . S
C706 C715 1.390 . S
C707 C706 1.387 . S
C707 C709 1.387 . S
H708 C715 0.950 . S
C709 C707 1.387 . S
C709 C711 1.390 . S
C709 H713 0.950 . S
H710 C706 0.950 . S
C711 C709 1.390 . S
C711 C712 1.387 . S
C711 H714 0.950 . S
C712 C711 1.387 . S
C712 C715 1.387 . S
H713 C709 0.950 . S
H714 C711 0.950 . S
C715 C706 1.390 . S
C715 H708 0.950 . S
C715 C712 1.387 . S
C716 C717 1.387 . S
C716 H720 0.950 . S
C716 C725 1.390 . S
C717 C716 1.387 . S
C717 C719 1.387 . S
H718 C725 0.950 . S
C719 C717 1.387 . S
C719 C721 1.390 . S
C719 H723 0.950 . S
H720 C716 0.950 . S
C721 C719 1.390 . S
C721 C722 1.387 . S
C721 H724 0.950 . S
C722 C721 1.387 . S
C722 C725 1.387 . S
H723 C719 0.950 . S
H724 C721 0.950 . S
C725 C716 1.390 . S
C725 H718 0.950 . S
C725 C722 1.387 . S
C726 C727 1.387 . S
C726 H730 0.950 . S
C726 C735 1.390 1_554 S
C727 C726 1.387 . S
C727 C729 1.387 . S
H728 C735 0.950 . S
C729 C727 1.387 . S
C729 C731 1.390 1_554 S
C729 H733 0.950 . S
H730 C726 0.950 . S
C731 C729 1.390 1_556 S
C731 C732 1.387 . S
C731 H734 0.950 . S
C732 C731 1.387 . S
C732 C735 1.387 . S
H733 C729 0.950 . S
H734 C731 0.950 . S
C735 C726 1.390 1_556 S
C735 H728 0.950 . S
C735 C732 1.387 . S
C736 C737 1.387 . S
C736 H740 0.950 . S
C736 C745 1.390 . S
C737 C736 1.387 . S
C737 C739 1.387 . S
H738 C745 0.950 . S
C739 C737 1.387 . S
C739 C741 1.390 . S
C739 H743 0.950 . S
H740 C736 0.950 . S
C741 C739 1.390 . S
C741 C742 1.387 . S
C741 H744 0.950 . S
C742 C741 1.387 . S
C742 C745 1.387 . S
H743 C739 0.950 . S
H744 C741 0.950 . S
C745 C736 1.390 . S
C745 H738 0.950 . S
C745 C742 1.387 . S
C746 C747 1.387 . S
C746 H750 0.950 . S
C746 C755 1.390 . S
C747 C746 1.387 . S
C747 C749 1.387 . S
H748 C755 0.950 . S
C749 C747 1.387 . S
C749 C751 1.390 . S
C749 H753 0.950 . S
H750 C746 0.950 . S
C751 C749 1.390 . S
C751 C752 1.387 . S
C751 H754 0.950 . S
C752 C751 1.387 . S
C752 C755 1.387 . S
H753 C749 0.950 . S
H754 C751 0.950 . S
C755 C746 1.390 . S
C755 H748 0.950 . S
C755 C752 1.387 . S
C756 C757 1.387 . S
C756 H760 0.950 . S
C756 C765 1.390 1_655 S
C757 C756 1.387 . S
C757 C759 1.387 . S
H758 C765 0.950 . S
C759 C757 1.387 . S
C759 C761 1.390 1_655 S
C759 H763 0.950 . S
H760 C756 0.950 . S
C761 C759 1.390 1_455 S
C761 C762 1.387 . S
C761 H764 0.950 . S
C762 C761 1.387 . S
C762 C765 1.387 . S
H763 C759 0.950 . S
H764 C761 0.950 . S
C765 C756 1.390 1_455 S
C765 H758 0.950 . S
C765 C762 1.387 . S
C766 C767 1.387 . S
C766 H770 0.950 . S
C766 C775 1.390 1_545 S
C767 C766 1.387 . S
C767 C769 1.387 . S
H768 C775 0.950 . S
C769 C767 1.387 . S
C769 C771 1.390 1_545 S
C769 H773 0.950 . S
H770 C766 0.950 . S
C771 C769 1.390 1_565 S
C771 C772 1.387 . S
C771 H774 0.950 . S
C772 C771 1.387 . S
C772 C775 1.387 . S
H773 C769 0.950 . S
H774 C771 0.950 . S
C775 C766 1.390 1_565 S
C775 H768 0.950 . S
C775 C772 1.387 . S
C776 C777 1.387 . S
C776 H780 0.950 . S
C776 C785 1.390 . S
C777 C776 1.387 . S
C777 C779 1.387 . S
H778 C785 0.950 . S
C779 C777 1.387 . S
C779 C781 1.390 . S
C779 H783 0.950 . S
H780 C776 0.950 . S
C781 C779 1.390 . S
C781 C782 1.387 . S
C781 H784 0.950 . S
C782 C781 1.387 . S
C782 C785 1.387 . S
H783 C779 0.950 . S
H784 C781 0.950 . S
C785 C776 1.390 . S
C785 H778 0.950 . S
C785 C782 1.387 . S
C786 C787 1.387 . S
C786 H790 0.950 . S
C786 C795 1.390 1_545 S
C787 C786 1.387 . S
C787 C789 1.387 . S
H788 C795 0.950 . S
C789 C787 1.387 . S
C789 C791 1.390 1_545 S
C789 H793 0.950 . S
H790 C786 0.950 . S
C791 C789 1.390 1_565 S
C791 C792 1.387 . S
C791 H794 0.950 . S
C792 C791 1.387 . S
C792 C795 1.387 . S
H793 C789 0.950 . S
H794 C791 0.950 . S
C795 C786 1.390 1_565 S
C795 H788 0.950 . S
C795 C792 1.387 . S
C796 C797 1.387 . S
C796 H800 0.950 . S
C796 C805 1.390 . S
C797 C796 1.387 . S
C797 C799 1.387 . S
H798 C805 0.950 . S
C799 C797 1.387 . S
C799 C801 1.390 . S
C799 H803 0.950 . S
H800 C796 0.950 . S
C801 C799 1.390 . S
C801 C802 1.387 . S
C801 H804 0.950 . S
C802 C801 1.387 . S
C802 C805 1.387 . S
H803 C799 0.950 . S
H804 C801 0.950 . S
C805 C796 1.390 . S
C805 H798 0.950 . S
C805 C802 1.387 . S
C806 C807 1.387 . S
C806 H810 0.950 . S
C806 C815 1.390 1_455 S
C807 C806 1.387 . S
C807 C809 1.387 . S
H808 C815 0.950 . S
C809 C807 1.387 . S
C809 C811 1.390 1_455 S
C809 H813 0.950 . S
H810 C806 0.950 . S
C811 C809 1.390 1_655 S
C811 C812 1.387 . S
C811 H814 0.950 . S
C812 C811 1.387 . S
C812 C815 1.387 . S
H813 C809 0.950 . S
H814 C811 0.950 . S
C815 C806 1.390 1_655 S
C815 H808 0.950 . S
C815 C812 1.387 . S
C816 C817 1.387 . S
C816 H820 0.950 . S
C816 C825 1.390 1_445 S
C817 C816 1.387 . S
C817 C819 1.387 . S
H818 C825 0.950 . S
C819 C817 1.387 . S
C819 C821 1.390 1_445 S
C819 H823 0.950 . S
H820 C816 0.950 . S
C821 C819 1.390 1_665 S
C821 C822 1.387 . S
C821 H824 0.950 . S
C822 C821 1.387 . S
C822 C825 1.387 . S
H823 C819 0.950 . S
H824 C821 0.950 . S
C825 C816 1.390 1_665 S
C825 H818 0.950 . S
C825 C822 1.387 . S
C826 C827 1.387 . S
C826 H830 0.950 . S
C826 C835 1.390 1_645 S
C827 C826 1.387 . S
C827 C829 1.387 . S
H828 C835 0.950 . S
C829 C827 1.387 . S
C829 C831 1.390 1_645 S
C829 H833 0.950 . S
H830 C826 0.950 . S
C831 C829 1.390 1_465 S
C831 C832 1.387 . S
C831 H834 0.950 . S
C832 C831 1.387 . S
C832 C835 1.387 . S
H833 C829 0.950 . S
H834 C831 0.950 . S
C835 C826 1.390 1_465 S
C835 H828 0.950 . S
C835 C832 1.387 . S
C836 C837 1.387 . S
C836 H840 0.950 . S
C836 C845 1.390 1_445 S
C837 C836 1.387 . S
C837 C839 1.387 . S
H838 C845 0.950 . S
C839 C837 1.387 . S
C839 C841 1.390 1_445 S
C839 H843 0.950 . S
H840 C836 0.950 . S
C841 C839 1.390 1_665 S
C841 C842 1.387 . S
C841 H844 0.950 . S
C842 C841 1.387 . S
C842 C845 1.387 . S
H843 C839 0.950 . S
H844 C841 0.950 . S
C845 C836 1.390 1_665 S
C845 H838 0.950 . S
C845 C842 1.387 . S
C846 C847 1.387 . S
C846 H850 0.950 . S
C846 C855 1.390 1_665 S
C847 C846 1.387 . S
C847 C849 1.387 . S
H848 C855 0.950 . S
C849 C847 1.387 . S
C849 C851 1.390 1_665 S
C849 H853 0.950 . S
H850 C846 0.950 . S
C851 C849 1.390 1_445 S
C851 C852 1.387 . S
C851 H854 0.950 . S
C852 C851 1.387 . S
C852 C855 1.387 . S
H853 C849 0.950 . S
H854 C851 0.950 . S
C855 C846 1.390 1_445 S
C855 H848 0.950 . S
C855 C852 1.387 . S
C856 C857 1.387 . S
C856 H860 0.950 . S
C856 C865 1.390 1_665 S
C857 C856 1.387 . S
C857 C859 1.387 . S
H858 C865 0.950 . S
C859 C857 1.387 . S
C859 C861 1.390 1_665 S
C859 H863 0.950 . S
H860 C856 0.950 . S
C861 C859 1.390 1_445 S
C861 C862 1.387 . S
C861 H864 0.950 . S
C862 C861 1.387 . S
C862 C865 1.387 . S
H863 C859 0.950 . S
H864 C861 0.950 . S
C865 C856 1.390 1_445 S
C865 H858 0.950 . S
C865 C862 1.387 . S
C866 C867 1.387 . S
C866 H870 0.950 . S
C866 C875 1.390 1_465 S
C867 C866 1.387 . S
C867 C869 1.387 . S
H868 C875 0.950 . S
C869 C867 1.387 . S
C869 C871 1.390 1_465 S
C869 H873 0.950 . S
H870 C866 0.950 . S
C871 C869 1.390 1_645 S
C871 C872 1.387 . S
C871 H874 0.950 . S
C872 C871 1.387 . S
C872 C875 1.387 . S
H873 C869 0.950 . S
H874 C871 0.950 . S
C875 C866 1.390 1_645 S
C875 H868 0.950 . S
C875 C872 1.387 . S
C637 C622 1.836 . S
C642 C39 1.835 . S
C647 C92 1.838 . S
C652 C357 1.838 . S
C657 C145 1.836 . S
C662 C410 1.836 . S
C667 C198 1.838 . S
C672 C463 1.837 . S
C677 C516 1.838 . S
C682 C251 1.838 . S
C687 C304 1.837 . S
C692 C569 1.835 . S
C697 C38 1.832 . S
C702 C568 1.832 . S
C707 C91 1.831 . S
C712 C621 1.831 . S
C717 C144 1.830 . S
C722 C356 1.831 . S
C727 C197 1.832 . S
C732 C409 1.832 . S
C737 C462 1.831 . S
C742 C250 1.831 . S
C747 C515 1.831 . S
C752 C303 1.831 . S
C757 C181 1.549 . S
C762 C22 1.549 . S
C767 C75 1.550 . S
C772 C234 1.550 . S
C777 C287 1.549 . S
C782 C128 1.549 . S
C787 C499 1.550 . S
C792 C340 1.550 . S
C797 C552 1.550 . S
C802 C393 1.550 . S
C807 C446 1.549 . S
C812 C605 1.549 . S
C817 C29 1.603 . S
C822 C188 1.603 . S
C827 C82 1.605 . S
C832 C241 1.605 . S
C837 C294 1.605 . S
C842 C135 1.605 . S
C847 C347 1.605 . S
C852 C506 1.605 . S
C857 C400 1.603 . S
C862 C559 1.603 . S
C867 C453 1.605 . S
C872 C612 1.605 . S
