# Generated by pormake.
# Topology wiv, (6)-cn, num edge types: 1
# Building blocks:
#     Node 0, Type 0, BuildingBlock: CUKXOW_clean_sbu_0, # of connection points: 6
#     Node 1, Type 0, BuildingBlock: CUKXOW_clean_sbu_0, # of connection points: 6
#     Node 2, Type 0, BuildingBlock: CUKXOW_clean_sbu_0, # of connection points: 6
#     Node 3, Type 0, BuildingBlock: CUKXOW_clean_sbu_0, # of connection points: 6
#     Node 4, Type 0, BuildingBlock: CUKXOW_clean_sbu_0, # of connection points: 6
#     Node 5, Type 0, BuildingBlock: CUKXOW_clean_sbu_0, # of connection points: 6
#     Node 6, Type 0, BuildingBlock: CUKXOW_clean_sbu_0, # of connection points: 6
#     Node 7, Type 0, BuildingBlock: CUKXOW_clean_sbu_0, # of connection points: 6
#     Node 8, Type 0, BuildingBlock: CUKXOW_clean_sbu_0, # of connection points: 6
#     Node 9, Type 0, BuildingBlock: CUKXOW_clean_sbu_0, # of connection points: 6
#     Node 10, Type 0, BuildingBlock: CUKXOW_clean_sbu_0, # of connection points: 6
#     Node 11, Type 0, BuildingBlock: CUKXOW_clean_sbu_0, # of connection points: 6
#     Node 12, Type 0, BuildingBlock: CUKXOW_clean_sbu_0, # of connection points: 6
#     Node 13, Type 0, BuildingBlock: CUKXOW_clean_sbu_0, # of connection points: 6
#     Node 14, Type 0, BuildingBlock: CUKXOW_clean_sbu_0, # of connection points: 6
#     Node 15, Type 0, BuildingBlock: CUKXOW_clean_sbu_0, # of connection points: 6
#     Edge 16, Type (0, 0), BuildingBlock: OJICUG_clean_linker_0, # of connection points: 2
#     Edge 17, Type (0, 0), BuildingBlock: OJICUG_clean_linker_0, # of connection points: 2
#     Edge 18, Type (0, 0), BuildingBlock: OJICUG_clean_linker_0, # of connection points: 2
#     Edge 19, Type (0, 0), BuildingBlock: OJICUG_clean_linker_0, # of connection points: 2
#     Edge 20, Type (0, 0), BuildingBlock: OJICUG_clean_linker_0, # of connection points: 2
#     Edge 21, Type (0, 0), BuildingBlock: OJICUG_clean_linker_0, # of connection points: 2
#     Edge 22, Type (0, 0), BuildingBlock: OJICUG_clean_linker_0, # of connection points: 2
#     Edge 23, Type (0, 0), BuildingBlock: OJICUG_clean_linker_0, # of connection points: 2
#     Edge 24, Type (0, 0), BuildingBlock: OJICUG_clean_linker_0, # of connection points: 2
#     Edge 25, Type (0, 0), BuildingBlock: OJICUG_clean_linker_0, # of connection points: 2
#     Edge 26, Type (0, 0), BuildingBlock: OJICUG_clean_linker_0, # of connection points: 2
#     Edge 27, Type (0, 0), BuildingBlock: OJICUG_clean_linker_0, # of connection points: 2
#     Edge 28, Type (0, 0), BuildingBlock: OJICUG_clean_linker_0, # of connection points: 2
#     Edge 29, Type (0, 0), BuildingBlock: OJICUG_clean_linker_0, # of connection points: 2
#     Edge 30, Type (0, 0), BuildingBlock: OJICUG_clean_linker_0, # of connection points: 2
#     Edge 31, Type (0, 0), BuildingBlock: OJICUG_clean_linker_0, # of connection points: 2
#     Edge 32, Type (0, 0), BuildingBlock: OJICUG_clean_linker_0, # of connection points: 2
#     Edge 33, Type (0, 0), BuildingBlock: OJICUG_clean_linker_0, # of connection points: 2
#     Edge 34, Type (0, 0), BuildingBlock: OJICUG_clean_linker_0, # of connection points: 2
#     Edge 35, Type (0, 0), BuildingBlock: OJICUG_clean_linker_0, # of connection points: 2
#     Edge 36, Type (0, 0), BuildingBlock: OJICUG_clean_linker_0, # of connection points: 2
#     Edge 37, Type (0, 0), BuildingBlock: OJICUG_clean_linker_0, # of connection points: 2
#     Edge 38, Type (0, 0), BuildingBlock: OJICUG_clean_linker_0, # of connection points: 2
#     Edge 39, Type (0, 0), BuildingBlock: OJICUG_clean_linker_0, # of connection points: 2
#     Edge 40, Type (0, 0), BuildingBlock: OJICUG_clean_linker_0, # of connection points: 2
#     Edge 41, Type (0, 0), BuildingBlock: OJICUG_clean_linker_0, # of connection points: 2
#     Edge 42, Type (0, 0), BuildingBlock: OJICUG_clean_linker_0, # of connection points: 2
#     Edge 43, Type (0, 0), BuildingBlock: OJICUG_clean_linker_0, # of connection points: 2
#     Edge 44, Type (0, 0), BuildingBlock: OJICUG_clean_linker_0, # of connection points: 2
#     Edge 45, Type (0, 0), BuildingBlock: OJICUG_clean_linker_0, # of connection points: 2
#     Edge 46, Type (0, 0), BuildingBlock: OJICUG_clean_linker_0, # of connection points: 2
#     Edge 47, Type (0, 0), BuildingBlock: OJICUG_clean_linker_0, # of connection points: 2
#     Edge 48, Type (0, 0), BuildingBlock: OJICUG_clean_linker_0, # of connection points: 2
#     Edge 49, Type (0, 0), BuildingBlock: OJICUG_clean_linker_0, # of connection points: 2
#     Edge 50, Type (0, 0), BuildingBlock: OJICUG_clean_linker_0, # of connection points: 2
#     Edge 51, Type (0, 0), BuildingBlock: OJICUG_clean_linker_0, # of connection points: 2
#     Edge 52, Type (0, 0), BuildingBlock: OJICUG_clean_linker_0, # of connection points: 2
#     Edge 53, Type (0, 0), BuildingBlock: OJICUG_clean_linker_0, # of connection points: 2
#     Edge 54, Type (0, 0), BuildingBlock: OJICUG_clean_linker_0, # of connection points: 2
#     Edge 55, Type (0, 0), BuildingBlock: OJICUG_clean_linker_0, # of connection points: 2
#     Edge 56, Type (0, 0), BuildingBlock: OJICUG_clean_linker_0, # of connection points: 2
#     Edge 57, Type (0, 0), BuildingBlock: OJICUG_clean_linker_0, # of connection points: 2
#     Edge 58, Type (0, 0), BuildingBlock: OJICUG_clean_linker_0, # of connection points: 2
#     Edge 59, Type (0, 0), BuildingBlock: OJICUG_clean_linker_0, # of connection points: 2
#     Edge 60, Type (0, 0), BuildingBlock: OJICUG_clean_linker_0, # of connection points: 2
#     Edge 61, Type (0, 0), BuildingBlock: OJICUG_clean_linker_0, # of connection points: 2
#     Edge 62, Type (0, 0), BuildingBlock: OJICUG_clean_linker_0, # of connection points: 2
#     Edge 63, Type (0, 0), BuildingBlock: OJICUG_clean_linker_0, # of connection points: 2
# Relax obj value: 0.076
# Max RMSD: 0.162
# Mean RMSD: 0.162
data_MOF--net-wiv--node1-CUKXOW_clean_sbu_0--edge1-OJICUG_clean_linker_0
_symmetry_space_group_name_H-M    P1
_symmetry_Int_Tables_number       1
_symmetry_cell_setting            triclinic
loop_
_symmetry_equiv_pos_as_xyz
'x, y, z'
_cell_length_a     49.301885
_cell_length_b     49.299957
_cell_length_c     10.194268
_cell_angle_alpha  89.984681
_cell_angle_beta   89.99997
_cell_angle_gamma 90.003612
loop_
_atom_site_label
_atom_site_type_symbol
_atom_site_fract_x
_atom_site_fract_y
_atom_site_fract_z
_atom_type_partial_charge
Tb0 Tb 0.4111 0.12837 0.21596 0.0
C1 C 0.3809 0.18437 0.20136 0.0
Tb2 Tb 0.34767 0.12905 0.17577 0.0
O3 O 0.41705 0.14233 1.01402 0.0
O4 O 0.38282 0.11983 0.06297 0.0
O5 O 0.40293 0.17131 0.24223 0.0
C6 C 0.29895 0.13012 0.06363 0.0
O7 O 0.35858 0.17192 0.15879 0.0
C8 C 0.36114 0.13255 0.42723 0.0
C9 C 0.37723 0.07373 0.22465 0.0
O10 O 0.31922 0.14562 1.03154 0.0
O11 O 0.30615 0.11409 0.1585 0.0
O12 O 0.33619 0.13159 0.38628 0.0
O13 O 0.37573 0.1318 0.32672 0.0
O14 O 0.35661 0.08589 0.16469 0.0
O15 O 0.39882 0.08716 0.26825 0.0
C16 C 0.46212 0.12062 0.2927 0.0
O17 O 0.45026 0.10811 0.19646 0.0
O18 O 0.44522 0.13755 0.34627 0.0
C19 C 0.39388 0.13328 0.97234 0.0
Tb20 Tb 0.13064 0.6431 0.95767 0.0
C21 C 0.07392 0.61541 0.90443 0.0
Tb22 Tb 0.12685 0.57774 0.91575 0.0
O23 O 0.13133 0.65342 0.74555 0.0
O24 O 0.12828 0.61417 0.8092 0.0
O25 O 0.08691 0.63666 0.95507 0.0
C26 C 0.12026 0.52753 0.82414 0.0
O27 O 0.08624 0.59257 0.86748 0.0
C28 C 0.12886 0.59264 0.16694 0.0
C29 C 0.18394 0.60654 0.94149 0.0
O30 O 0.10323 0.54054 0.89802 0.0
O31 O 0.14115 0.54295 0.80011 0.0
O32 O 0.12719 0.5676 0.12835 0.0
O33 O 0.12934 0.60667 0.06461 0.0
O34 O 0.17031 0.58506 0.89681 0.0
O35 O 0.17223 0.62905 0.98725 0.0
C36 C 0.13249 0.69178 0.07094 0.0
O37 O 0.14847 0.68354 0.97772 0.0
O38 O 0.11547 0.67258 0.10047 0.0
C39 C 0.12968 0.62828 0.70712 0.0
Tb40 Tb 0.57934 0.86056 0.19586 0.0
C41 C 0.60853 0.80392 0.1601 0.0
Tb42 Tb 0.64458 0.85773 0.15367 0.0
O43 O 0.56915 0.86099 0.9832 0.0
O44 O 0.60825 0.85958 1.04676 0.0
O45 O 0.58697 0.81706 0.20727 0.0
C46 C 0.69313 0.85723 1.04003 0.0
O47 O 0.631 0.81617 0.11711 0.0
C48 C 0.62987 0.85759 0.40438 0.0
C49 C 0.61624 0.91377 0.21457 0.0
O50 O 0.68479 0.83986 0.12707 0.0
O51 O 0.67411 0.87483 1.01678 0.0
O52 O 0.65503 0.85671 0.36569 0.0
O53 O 0.6157 0.85857 0.30248 0.0
O54 O 0.63741 0.90137 0.16003 0.0
O55 O 0.59367 0.90095 0.25124 0.0
C56 C 0.52933 0.86599 0.28974 0.0
O57 O 0.54194 0.88355 0.21708 0.0
O58 O 0.54502 0.84517 0.31094 0.0
C59 C 0.59422 0.86 0.94449 0.0
Tb60 Tb 0.85519 0.34739 0.95408 0.0
C61 C 0.91129 0.37606 0.89946 0.0
Tb62 Tb 0.85783 0.41265 0.91169 0.0
O63 O 0.85468 0.33692 0.74204 0.0
O64 O 0.85671 0.37624 0.80513 0.0
O65 O 0.89872 0.35489 0.95293 0.0
C66 C 0.86343 0.46273 0.81833 0.0
O67 O 0.89855 0.39851 0.86044 0.0
C68 C 0.85661 0.3978 0.16314 0.0
C69 C 0.80127 0.38295 0.94106 0.0
O70 O 0.881 0.44995 0.89019 0.0
O71 O 0.8425 0.44717 0.7975 0.0
O72 O 0.85776 0.42286 0.12434 0.0
O73 O 0.85622 0.38377 0.06092 0.0
O74 O 0.81445 0.40458 0.89487 0.0
O75 O 0.81349 0.36071 0.98686 0.0
C76 C 0.85506 0.29879 0.06746 0.0
O77 O 0.83771 0.30697 0.98001 0.0
O78 O 0.87239 0.31802 0.09142 0.0
C79 C 0.85574 0.36207 0.70326 0.0
Tb80 Tb 0.4098 0.35825 0.17781 0.0
C81 C 0.38032 0.30164 0.20997 0.0
Tb82 Tb 0.34452 0.35531 0.2198 0.0
O83 O 0.42004 0.35829 0.39034 0.0
O84 O 0.38091 0.35662 0.32687 0.0
O85 O 0.40185 0.31484 0.16285 0.0
C86 C 0.2958 0.3546 0.33151 0.0
O87 O 0.35801 0.3138 0.255 0.0
C88 C 0.35928 0.35586 0.96907 0.0
C89 C 0.37287 0.4116 0.167 0.0
O90 O 0.3043 0.33735 0.24436 0.0
O91 O 0.31478 0.37217 0.35614 0.0
O92 O 0.33414 0.3547 1.00769 0.0
O93 O 0.37343 0.35684 0.07101 0.0
O94 O 0.35163 0.39885 0.21875 0.0
O95 O 0.39548 0.39902 0.12877 0.0
C96 C 0.45985 0.36357 0.08299 0.0
O97 O 0.44714 0.38132 0.1541 0.0
O98 O 0.44423 0.34264 0.06364 0.0
C99 C 0.39497 0.35708 0.42906 0.0
Tb100 Tb 0.35522 0.64098 0.91136 0.0
C101 C 0.41132 0.6123 0.96588 0.0
Tb102 Tb 0.35785 0.57572 0.95373 0.0
O103 O 0.35471 0.65145 0.12339 0.0
O104 O 0.35674 0.61212 0.06031 0.0
O105 O 0.39874 0.63348 0.91243 0.0
C106 C 0.36344 0.52564 1.04704 0.0
O107 O 0.39858 0.58986 1.00494 0.0
C108 C 0.35663 0.59056 0.70229 0.0
C109 C 0.3013 0.60542 0.92441 0.0
O110 O 0.38102 0.53842 0.97522 0.0
O111 O 0.34251 0.54119 0.06787 0.0
O112 O 0.35778 0.5655 0.74109 0.0
O113 O 0.35623 0.6046 0.8045 0.0
O114 O 0.31448 0.58379 0.97061 0.0
O115 O 0.31351 0.62766 0.8786 0.0
C116 C 0.3551 0.68958 0.79802 0.0
O117 O 0.33774 0.68139 0.88545 0.0
O118 O 0.37243 0.67035 0.77403 0.0
C119 C 0.35578 0.6263 0.16217 0.0
Tb120 Tb 0.57687 0.63026 0.15407 0.0
C121 C 0.60719 0.68645 0.16636 0.0
Tb122 Tb 0.64035 0.63121 0.19315 0.0
O123 O 0.57098 0.64455 0.35544 0.0
O124 O 0.60527 0.62214 0.30683 0.0
O125 O 0.58511 0.67329 0.12646 0.0
C126 C 0.68928 0.63237 0.30287 0.0
O127 O 0.6295 0.67406 0.20919 0.0
C128 C 0.62673 0.63436 0.94191 0.0
C129 C 0.61104 0.5755 0.14988 0.0
O130 O 0.66907 0.64788 0.33579 0.0
O131 O 0.68188 0.61626 0.2087 0.0
O132 O 0.6517 0.63369 0.98266 0.0
O133 O 0.61214 0.63346 1.04236 0.0
O134 O 0.63178 0.58804 0.20684 0.0
O135 O 0.58919 0.58867 0.10667 0.0
C136 C 0.52563 0.62259 0.07898 0.0
O137 O 0.53771 0.60994 0.1741 0.0
O138 O 0.54248 0.63957 1.02516 0.0
C139 C 0.59423 0.63569 0.39704 0.0
Tb140 Tb 0.63061 0.34525 0.90765 0.0
C141 C 0.57389 0.37294 0.96072 0.0
Tb142 Tb 0.62682 0.41061 0.94955 0.0
O143 O 0.63129 0.33494 0.11977 0.0
O144 O 0.62823 0.37418 1.05611 0.0
O145 O 0.58688 0.35169 0.91014 0.0
C146 C 0.62024 0.46082 1.04116 0.0
O147 O 0.58621 0.39578 0.9977 0.0
C148 C 0.62885 0.39571 0.69838 0.0
C149 C 0.68392 0.38181 0.92394 0.0
O150 O 0.60322 0.44781 0.96724 0.0
O151 O 0.64112 0.44539 0.06523 0.0
O152 O 0.62717 0.42075 0.73696 0.0
O153 O 0.62933 0.38168 0.8007 0.0
O154 O 0.67028 0.40329 0.96857 0.0
O155 O 0.67221 0.3593 0.87817 0.0
C156 C 0.63246 0.29657 0.79447 0.0
O157 O 0.64841 0.30479 0.88784 0.0
O158 O 0.61547 0.31578 0.76472 0.0
C159 C 0.62963 0.36007 0.15819 0.0
Tb160 Tb 0.90986 0.63009 0.6869 0.0
C161 C 0.88039 0.6867 0.6547 0.0
Tb162 Tb 0.84458 0.63303 0.64491 0.0
O163 O 0.9201 0.63004 0.47438 0.0
O164 O 0.88097 0.63171 0.53783 0.0
O165 O 0.90191 0.6735 0.70181 0.0
C166 C 0.79586 0.63374 0.53321 0.0
O167 O 0.85808 0.67454 0.60968 0.0
C168 C 0.85934 0.63249 0.89564 0.0
C169 C 0.87292 0.57674 0.69784 0.0
O170 O 0.80437 0.65099 0.62036 0.0
O171 O 0.81484 0.61617 0.50858 0.0
O172 O 0.8342 0.63365 0.85702 0.0
O173 O 0.87349 0.63151 0.7937 0.0
O174 O 0.85168 0.58949 0.64606 0.0
O175 O 0.89554 0.58932 0.73602 0.0
C176 C 0.95991 0.62478 0.78177 0.0
O177 O 0.9472 0.60703 0.71064 0.0
O178 O 0.94428 0.64571 0.80111 0.0
C179 C 0.89503 0.63125 0.43565 0.0
Tb180 Tb 0.63044 0.14019 0.45848 0.0
C181 C 0.57601 0.11097 0.41138 0.0
Tb182 Tb 0.63136 0.07926 0.41761 0.0
O183 O 0.61928 0.14804 0.25402 0.0
O184 O 0.64156 0.11367 0.30297 0.0
O185 O 0.5878 0.13034 0.4811 0.0
C186 C 0.62536 0.02774 0.34051 0.0
O187 O 0.59027 0.0909 0.35884 0.0
C188 C 0.63377 0.09527 0.66324 0.0
C189 C 0.68729 0.10902 0.44674 0.0
O190 O 0.61282 0.03915 0.43759 0.0
O191 O 0.64132 0.04538 0.28587 0.0
O192 O 0.64479 0.07312 0.62008 0.0
O193 O 0.62008 0.1059 0.57248 0.0
O194 O 0.67483 0.08627 0.41163 0.0
O195 O 0.67401 0.13183 0.47428 0.0
C196 C 0.63326 0.19004 0.56102 0.0
O197 O 0.64364 0.16834 0.61276 0.0
O198 O 0.62151 0.18367 0.45157 0.0
C199 C 0.62892 0.12522 0.21121 0.0
Tb200 Tb 0.07682 0.3581 0.71089 0.0
C201 C 0.10713 0.30191 0.69857 0.0
Tb202 Tb 0.14031 0.35715 0.67178 0.0
O203 O 0.07093 0.34382 0.5095 0.0
O204 O 0.10523 0.36622 0.55812 0.0
O205 O 0.08506 0.31506 0.73846 0.0
C206 C 0.18923 0.35598 0.562 0.0
O207 O 0.12945 0.31429 0.65576 0.0
C208 C 0.12669 0.35399 0.92303 0.0
C209 C 0.11101 0.41285 0.71514 0.0
O210 O 0.16902 0.34047 0.52909 0.0
O211 O 0.18184 0.37208 0.6562 0.0
O212 O 0.15166 0.35466 0.88227 0.0
O213 O 0.11209 0.3549 0.82258 0.0
O214 O 0.13174 0.40032 0.65816 0.0
O215 O 0.08915 0.39969 0.75832 0.0
C216 C 0.02559 0.36576 0.78606 0.0
O217 O 0.03767 0.37843 0.69092 0.0
O218 O 0.04244 0.34879 0.83983 0.0
C219 C 0.09418 0.35267 0.4679 0.0
Tb220 Tb 0.35966 0.84466 0.45315 0.0
C221 C 0.41521 0.87398 0.40705 0.0
Tb222 Tb 0.36068 0.90819 0.41315 0.0
O223 O 0.35731 0.83328 0.24253 0.0
O224 O 0.35717 0.87282 0.30228 0.0
O225 O 0.40284 0.85327 0.46525 0.0
C226 C 0.36826 0.95934 0.3369 0.0
O227 O 0.40197 0.89574 0.36371 0.0
C228 C 0.35537 0.89082 0.6565 0.0
C229 C 0.30458 0.87801 0.42569 0.0
O230 O 0.38103 0.94735 0.43197 0.0
O231 O 0.35122 0.94246 0.28396 0.0
O232 O 0.34651 0.91408 0.61493 0.0
O233 O 0.36885 0.87983 0.56591 0.0
O234 O 0.31781 0.89995 0.38488 0.0
O235 O 0.31684 0.85568 0.46917 0.0
C236 C 0.35803 0.79589 0.56465 0.0
O237 O 0.34276 0.81632 0.59697 0.0
O238 O 0.37419 0.80298 0.47008 0.0
C239 C 0.35652 0.85825 0.2017 0.0
Tb240 Tb 0.91113 0.86 0.64903 0.0
C241 C 0.88094 0.80398 0.66354 0.0
Tb242 Tb 0.8477 0.85928 0.6892 0.0
O243 O 0.91707 0.84602 0.85097 0.0
O244 O 0.88285 0.86851 0.80203 0.0
O245 O 0.90297 0.81705 0.62269 0.0
C246 C 0.79898 0.85821 0.80135 0.0
O247 O 0.85862 0.81642 0.70613 0.0
C248 C 0.86117 0.85579 0.43775 0.0
C249 C 0.87724 0.91462 0.64042 0.0
O250 O 0.81925 0.8427 0.83343 0.0
O251 O 0.80618 0.87424 0.70648 0.0
O252 O 0.83622 0.85674 0.4787 0.0
O253 O 0.87576 0.85656 0.53825 0.0
O254 O 0.85663 0.90245 0.70034 0.0
O255 O 0.89884 0.90121 0.59681 0.0
C256 C 0.96215 0.86775 0.57241 0.0
O257 O 0.95029 0.88026 0.6686 0.0
O258 O 0.94525 0.85082 0.5188 0.0
C259 C 0.8939 0.85506 0.89264 0.0
Tb260 Tb 0.85959 0.14371 0.41246 0.0
C261 C 0.91514 0.1144 0.45849 0.0
Tb262 Tb 0.86061 0.08018 0.45243 0.0
O263 O 0.85724 0.15509 0.62307 0.0
O264 O 0.85712 0.11554 0.56332 0.0
O265 O 0.90277 0.1351 0.40032 0.0
C266 C 0.86822 0.02902 0.52853 0.0
O267 O 0.9019 0.09263 0.50184 0.0
C268 C 0.85529 0.09755 0.2091 0.0
C269 C 0.80451 0.11036 0.44004 0.0
O270 O 0.88097 0.04103 0.43347 0.0
O271 O 0.85117 0.04588 0.58155 0.0
O272 O 0.84642 0.0743 0.25068 0.0
O273 O 0.86877 0.10854 0.29967 0.0
O274 O 0.81774 0.08842 0.48083 0.0
O275 O 0.81677 0.13268 0.39651 0.0
C276 C 0.85796 0.19248 0.30096 0.0
O277 O 0.84268 0.17205 0.26866 0.0
O278 O 0.87412 0.18539 0.39551 0.0
C279 C 0.85646 0.13012 0.6639 0.0
Tb280 Tb 0.07929 0.12778 0.66939 0.0
C281 C 0.10847 0.18443 0.70505 0.0
Tb282 Tb 0.14453 0.13064 0.71157 0.0
O283 O 0.0691 0.12735 0.88205 0.0
O284 O 0.1082 0.12879 0.8185 0.0
O285 O 0.08692 0.17128 0.65791 0.0
C286 C 0.19308 0.13113 0.82519 0.0
O287 O 0.13094 0.1722 0.74807 0.0
C288 C 0.12982 0.13075 0.46087 0.0
C289 C 0.1162 0.07457 0.65082 0.0
O290 O 0.18474 0.1485 0.73814 0.0
O291 O 0.17405 0.11353 0.84847 0.0
O292 O 0.15498 0.13165 0.49955 0.0
O293 O 0.11565 0.12976 0.56277 0.0
O294 O 0.13737 0.08699 0.70532 0.0
O295 O 0.09362 0.08738 0.61411 0.0
C296 C 0.02928 0.12235 0.57551 0.0
O297 O 0.04188 0.10479 0.64816 0.0
O298 O 0.04497 0.14317 0.55432 0.0
C299 C 0.09417 0.12836 0.92076 0.0
Tb300 Tb 0.13051 0.84813 0.40729 0.0
C301 C 0.07607 0.87735 0.45431 0.0
Tb302 Tb 0.13142 0.90907 0.44816 0.0
O303 O 0.11937 0.84028 0.61176 0.0
O304 O 0.14162 0.87466 0.5628 0.0
O305 O 0.08787 0.85799 0.38458 0.0
C306 C 0.12539 0.9606 0.52518 0.0
O307 O 0.09033 0.89741 0.50692 0.0
C308 C 0.13384 0.89305 0.20254 0.0
C309 C 0.18736 0.87932 0.41909 0.0
O310 O 0.11284 0.94916 0.42815 0.0
O311 O 0.14137 0.94297 0.5798 0.0
O312 O 0.14485 0.91521 0.24569 0.0
O313 O 0.12015 0.88242 0.29328 0.0
O314 O 0.1749 0.90207 0.45421 0.0
O315 O 0.17408 0.85651 0.39152 0.0
C316 C 0.13332 0.79828 0.3047 0.0
O317 O 0.14378 0.81997 0.25316 0.0
O318 O 0.12151 0.80466 0.41398 0.0
C319 C 0.12899 0.8631 0.65457 0.0
C320 C 0.35351 0.00054 0.21303 0.0
C321 C 0.37147 0.98812 0.3013 0.0
H322 H 0.34113 0.03742 0.11963 0.0
C323 C 0.39197 0.0037 0.3599 0.0
H324 H 0.33751 0.98892 0.1666 0.0
C325 C 0.39421 0.03137 0.33255 0.0
C326 C 0.37581 0.04408 0.24695 0.0
H327 H 0.40612 -0.00543 0.42821 0.0
H328 H 0.41003 0.04288 0.38092 0.0
C329 C 0.35556 0.02831 0.18655 0.0
C330 C 0.00259 0.59813 0.79468 0.0
C331 C 0.98845 0.62212 0.82293 0.0
H332 H 0.04041 0.57714 0.79846 0.0
C333 C 0.00221 0.64364 0.8837 0.0
H334 H 0.99246 0.58118 0.74805 0.0
C335 C 0.02992 0.64141 0.91251 0.0
C336 C 0.04429 0.61758 0.88115 0.0
H337 H 0.99172 0.66237 0.90636 0.0
H338 H 0.04011 0.65851 0.95736 0.0
C339 C 0.03015 0.59586 0.82354 0.0
C340 C 0.59986 0.95556 0.32948 0.0
C341 C 0.61823 0.94323 0.24239 0.0
H342 H 0.5879 0.99188 0.42896 0.0
C343 C 0.63863 0.95924 0.18462 0.0
H344 H 0.58395 0.94388 0.37617 0.0
C345 C 0.64067 0.98693 0.21412 0.0
C346 C 0.62259 -0.00103 0.30315 0.0
H347 H 0.65303 0.95042 0.11669 0.0
H348 H 0.65665 -0.00122 0.16905 0.0
C349 C 0.60213 0.98307 0.36007 0.0
C350 C 0.95638 0.35346 0.935 0.0
C351 C 0.94087 0.37406 0.87572 0.0
H352 H -0.00444 0.33491 0.95435 0.0
C353 C 0.95381 0.39244 0.79075 0.0
H354 H 0.94708 0.33906 1.00148 0.0
C355 C 0.98145 0.38989 0.76326 0.0
C356 C -0.00321 0.36912 0.82119 0.0
H357 H 0.94252 0.40851 0.74314 0.0
H358 H 0.99076 0.40406 0.69561 0.0
C359 C 0.98414 0.35112 0.9085 0.0
C360 C 0.3472 0.45568 0.17837 0.0
C361 C 0.37084 0.44124 0.14435 0.0
H362 H 0.32635 0.49392 0.17492 0.0
C363 C 0.39237 0.4553 0.08479 0.0
H364 H 0.33025 0.44553 0.22485 0.0
C365 C 0.39007 0.48289 1.05659 0.0
C366 C 0.36624 0.49709 0.08746 0.0
H367 H 0.41092 0.44496 0.05769 0.0
H368 H 0.40684 0.49301 1.00837 0.0
C369 C 0.34494 0.48339 0.15019 0.0
C370 C 0.48417 0.63724 0.95662 0.0
C371 C 0.49683 0.61924 1.04391 0.0
H372 H 0.44711 0.6493 0.86373 0.0
C373 C 0.48149 0.59848 0.10189 0.0
H374 H 0.49559 0.65344 0.91074 0.0
C375 C 0.45385 0.59593 0.07447 0.0
C376 C 0.4409 0.6143 0.98954 0.0
H377 H 0.4908 0.58431 0.16952 0.0
H378 H 0.44256 0.57986 0.12214 0.0
C379 C 0.45641 0.6349 0.9302 0.0
C380 C 0.63577 0.53107 0.17132 0.0
C381 C 0.61267 0.54569 0.13089 0.0
H382 H 0.65623 0.49263 0.17535 0.0
C383 C 0.59155 0.53166 0.06786 0.0
H384 H 0.65241 0.54117 0.22054 0.0
C385 C 0.59381 0.5039 1.04236 0.0
C386 C 0.61719 0.48954 0.07936 0.0
H387 H 0.57343 0.54216 1.0358 0.0
H388 H 0.57742 0.4938 0.99116 0.0
C389 C 0.63799 0.50325 0.14579 0.0
C390 C 0.50217 0.34471 0.98121 0.0
C391 C 0.4884 0.36623 1.0419 0.0
H392 H 0.54008 0.32983 0.90771 0.0
C393 C 0.50254 0.39022 0.07016 0.0
H394 H 0.49168 0.32598 0.95854 0.0
C395 C 0.5301 0.3925 1.04141 0.0
C396 C 0.54425 0.37077 0.98389 0.0
H397 H 0.4924 0.40717 0.11673 0.0
H398 H 0.54036 0.41122 0.0665 0.0
C399 C 0.52988 0.34694 0.9525 0.0
C400 C 0.84496 0.50497 0.71495 0.0
C401 C 0.86625 0.49127 0.77781 0.0
H402 H 0.83029 0.5428 0.64006 0.0
C403 C 0.89007 0.50547 0.80866 0.0
H404 H 0.82637 0.49443 0.69023 0.0
C405 C 0.89239 0.53305 0.78031 0.0
C406 C 0.87087 0.54711 0.72062 0.0
H407 H 0.90684 0.49536 0.85697 0.0
H408 H 0.91095 0.54339 0.80741 0.0
C409 C 0.84724 0.53267 0.68663 0.0
C410 C 0.53041 0.13187 0.45172 0.0
C411 C 0.54645 0.11233 0.38775 0.0
H412 H 0.49094 0.14965 0.4724 0.0
C413 C 0.53415 0.0948 0.29674 0.0
H414 H 0.53923 0.14563 0.52269 0.0
C415 C 0.50659 0.09725 0.26766 0.0
C416 C 0.49076 0.11712 0.32965 0.0
H417 H 0.54591 0.07955 0.2456 0.0
H418 H 0.49775 0.08381 0.19527 0.0
C419 C 0.50277 0.13417 0.42321 0.0
C420 C 0.13799 0.4851 0.71944 0.0
C421 C 0.1172 0.49882 0.78588 0.0
H422 H 0.1524 0.44718 0.6446 0.0
C423 C 0.09381 0.48445 0.82283 0.0
H424 H 0.15624 0.49572 0.68992 0.0
C425 C 0.09154 0.4567 0.79726 0.0
C426 C 0.11265 0.44266 0.7342 0.0
H427 H 0.07742 0.49456 0.87404 0.0
H428 H 0.07341 0.4462 0.82927 0.0
C429 C 0.13576 0.45728 0.69384 0.0
C430 C 0.48624 0.89208 0.29708 0.0
C431 C 0.5008 0.8686 0.33031 0.0
H432 H 0.44794 0.91227 0.29558 0.0
C433 C 0.48745 0.84738 0.39535 0.0
H434 H 0.49609 0.90879 0.2471 0.0
C435 C 0.45971 0.84931 0.42317 0.0
C436 C 0.4449 0.87252 0.38632 0.0
H437 H 0.49827 0.82906 0.42198 0.0
H438 H 0.44982 0.83238 0.47109 0.0
C439 C 0.45861 0.89404 0.32478 0.0
C440 C 0.85556 0.96003 0.6787 0.0
C441 C 0.87581 0.94427 0.6182 0.0
H442 H 0.8375 -0.0006 0.6988 0.0
C443 C 0.8942 0.957 0.53261 0.0
H444 H 0.84114 0.95089 0.74561 0.0
C445 C 0.89195 0.98468 0.50535 0.0
C446 C 0.87144 0.00024 0.56404 0.0
H447 H 0.91002 0.94551 0.48417 0.0
H448 H 0.90608 0.99382 0.43703 0.0
C449 C 0.85349 0.9878 0.6523 0.0
C450 C 0.98618 0.09627 0.56822 0.0
C451 C 0.00074 0.11975 0.535 0.0
H452 H 0.94788 0.07609 0.56978 0.0
C453 C 0.98739 0.14098 0.47004 0.0
H454 H -0.00396 0.07956 0.61814 0.0
C455 C 0.95965 0.13906 0.44231 0.0
C456 C 0.94484 0.11585 0.47914 0.0
H457 H -0.00179 0.1593 0.44343 0.0
H458 H 0.94976 0.156 0.39445 0.0
C459 C 0.95854 0.09432 0.54059 0.0
C460 C 0.14068 0.00144 0.65139 0.0
C461 C 0.12259 0.98937 0.56249 0.0
H462 H 0.15303 0.03797 0.74865 0.0
C463 C 0.10211 0.00523 0.50563 0.0
H464 H 0.15669 0.9896 0.69642 0.0
C465 C 0.09982 0.03275 0.53615 0.0
C466 C 0.1182 0.04511 0.6231 0.0
H467 H 0.08787 -0.0036 0.43684 0.0
H468 H 0.08389 0.04441 0.48951 0.0
C469 C 0.13862 0.02912 0.68083 0.0
C470 C 0.03048 0.85645 0.41381 0.0
C471 C 0.04651 0.876 0.47781 0.0
H472 H 0.991 0.83869 0.39295 0.0
C473 C 0.0342 0.89354 0.5687 0.0
H474 H 0.03931 0.84268 0.34293 0.0
C475 C 0.00663 0.89111 0.59762 0.0
C476 C 0.9908 0.87123 0.53559 0.0
H477 H 0.04595 0.9088 0.61985 0.0
H478 H -0.00222 0.90457 0.66991 0.0
C479 C 0.00283 0.85416 0.44216 0.0
C480 C 0.4055 0.22892 0.20451 0.0
C481 C 0.38097 0.21435 0.20473 0.0
H482 H 0.42458 0.26801 0.20451 0.0
C483 C 0.35638 0.22872 0.20829 0.0
H484 H 0.42478 0.2184 0.20138 0.0
C485 C 0.35629 0.25702 0.21215 0.0
C486 C 0.38076 0.27164 0.2102 0.0
H487 H 0.33715 0.21809 0.20927 0.0
H488 H 0.33695 0.26745 0.21453 0.0
C489 C 0.40539 0.25731 0.20589 0.0
C490 C 0.25659 0.58084 0.93104 0.0
C491 C 0.27127 0.60529 0.92699 0.0
H492 H 0.21736 0.56199 0.93717 0.0
C493 C 0.25698 0.62995 0.92827 0.0
H494 H 0.26704 0.56151 0.93002 0.0
C495 C 0.22871 0.63022 0.93475 0.0
C496 C 0.21396 0.60584 0.93776 0.0
H497 H 0.26766 0.64915 0.92624 0.0
H498 H 0.21839 0.64962 0.9357 0.0
C499 C 0.22817 0.58111 0.9349 0.0
C500 C 0.63224 0.75906 0.15476 0.0
C501 C 0.60788 0.77387 0.15773 0.0
H502 H 0.65109 0.71999 0.15663 0.0
C503 C 0.58316 0.75966 0.16174 0.0
H504 H 0.65165 0.76934 0.15242 0.0
C505 C 0.58284 0.73124 0.16248 0.0
C506 C 0.60725 0.71649 0.16192 0.0
H507 H 0.56404 0.77048 0.1638 0.0
H508 H 0.56349 0.72085 0.1658 0.0
C509 C 0.63193 0.73073 0.15799 0.0
C510 C 0.75696 0.35842 0.93724 0.0
C511 C 0.77124 0.38308 0.93849 0.0
H512 H 0.71837 0.33873 0.92981 0.0
C513 C 0.75657 0.40752 0.93441 0.0
H514 H 0.76763 0.33921 0.9393 0.0
C515 C 0.72815 0.40724 0.93054 0.0
C516 C 0.71393 0.38252 0.9277 0.0
H517 H 0.76701 0.42685 0.93541 0.0
H518 H 0.71734 0.42637 0.92825 0.0
C519 C 0.72868 0.35814 0.93075 0.0
C520 C 0.90545 0.73104 0.65885 0.0
C521 C 0.88083 0.7167 0.6545 0.0
H522 H 0.92483 0.76995 0.66345 0.0
C523 C 0.85634 0.73132 0.65256 0.0
H524 H 0.92464 0.72035 0.66021 0.0
C525 C 0.85644 0.75962 0.65648 0.0
C526 C 0.88102 0.77399 0.66009 0.0
H527 H 0.83701 0.72089 0.65015 0.0
H528 H 0.8372 0.77024 0.65551 0.0
C529 C 0.90555 0.75943 0.66028 0.0
C530 C 0.75978 0.1344 0.44039 0.0
C531 C 0.77454 0.11002 0.4438 0.0
H532 H 0.72069 0.15324 0.44042 0.0
C533 C 0.76036 0.08532 0.45055 0.0
H534 H 0.77011 0.15378 0.43598 0.0
C535 C 0.73202 0.08501 0.45176 0.0
C536 C 0.71727 0.10939 0.4483 0.0
H537 H 0.77114 0.06618 0.453 0.0
H538 H 0.72169 0.06563 0.45586 0.0
C539 C 0.73145 0.1341 0.44365 0.0
C540 C 0.08278 0.25711 0.70249 0.0
C541 C 0.10719 0.27187 0.70304 0.0
H542 H 0.06398 0.21787 0.70124 0.0
C543 C 0.13187 0.25763 0.70702 0.0
H544 H 0.06344 0.2675 0.69915 0.0
C545 C 0.13218 0.2293 0.7103 0.0
C546 C 0.10782 0.21449 0.70734 0.0
H547 H 0.15104 0.26837 0.70837 0.0
H548 H 0.15159 0.21902 0.71267 0.0
C549 C 0.0831 0.22869 0.70329 0.0
C550 C 0.25985 0.85396 0.42531 0.0
C551 C 0.2746 0.87834 0.42199 0.0
H552 H 0.22076 0.83511 0.42523 0.0
C553 C 0.26043 0.90303 0.41538 0.0
H554 H 0.27018 0.83458 0.42961 0.0
C555 C 0.23209 0.90335 0.4142 0.0
C556 C 0.21734 0.87896 0.41755 0.0
H557 H 0.2712 0.92218 0.41301 0.0
H558 H 0.22175 0.92272 0.4102 0.0
C559 C 0.23152 0.85425 0.42208 0.0
C560 C 0.22625 0.11232 0.98563 0.0
C561 C 0.22009 0.13113 0.88671 0.0
H562 H 0.25619 0.09735 0.11952 0.0
C563 C 0.23999 0.14972 0.84635 0.0
H564 H 0.21121 0.0978 1.01854 0.0
C565 C 0.26576 0.14938 0.90368 0.0
C566 C 0.2719 0.13056 1.00261 0.0
H567 H 0.23571 0.1644 0.77005 0.0
H568 H 0.28084 0.16385 0.8707 0.0
C569 C 0.25194 0.11207 1.04331 0.0
C570 C 0.11743 0.72436 0.24351 0.0
C571 C 0.13324 0.71886 0.13218 0.0
H572 H 0.10533 0.75387 0.38622 0.0
C573 C 0.1495 0.73953 0.07903 0.0
H574 H 0.10478 0.70874 0.28652 0.0
C575 C 0.1496 0.76543 0.13523 0.0
C576 C 0.13373 0.77092 0.24642 0.0
H577 H 0.16187 0.73578 0.99311 0.0
H578 H 0.16208 0.78112 0.09172 0.0
C579 C 0.11779 0.75013 0.30061 0.0
C580 C 0.74004 0.83863 1.01878 0.0
C581 C 0.72013 0.85723 0.97846 0.0
H582 H 0.78087 0.82449 0.99435 0.0
C583 C 0.72629 0.87603 0.8795 0.0
H584 H 0.73576 0.82395 0.09511 0.0
C585 C 0.75197 0.87627 0.82176 0.0
C586 C 0.77193 0.85777 0.86242 0.0
H587 H 0.71126 0.89055 0.84662 0.0
H588 H 0.75622 0.89098 0.74552 0.0
C589 C 0.76579 0.83895 0.96139 0.0
C590 C 0.87444 0.26564 0.22632 0.0
C591 C 0.85548 0.27169 0.12792 0.0
H592 H 0.89001 0.23567 0.35846 0.0
C593 C 0.83724 0.25154 0.0867 0.0
H594 H 0.88871 0.28085 0.25981 0.0
C595 C 0.83807 0.22565 0.14269 0.0
C596 C 0.85706 0.21963 0.24107 0.0
H597 H 0.82246 0.25572 1.01074 0.0
H598 H 0.82386 0.21039 0.10911 0.0
C599 C 0.87519 0.23983 0.28261 0.0
C600 C 0.2488 0.33611 0.34938 0.0
C601 C 0.26863 0.35465 0.39114 0.0
H602 H 0.20783 0.32213 0.3707 0.0
C603 C 0.26221 0.37351 0.48933 0.0
H604 H 0.25328 0.32139 0.27355 0.0
C605 C 0.23633 0.37388 0.54493 0.0
C606 C 0.21645 0.35544 0.50287 0.0
H607 H 0.27717 0.388 0.52321 0.0
H608 H 0.23188 0.38864 0.62063 0.0
C609 C 0.22285 0.33655 0.40467 0.0
C610 C 0.3373 0.73683 0.77884 0.0
C611 C 0.35553 0.71668 0.7376 0.0
H612 H 0.32393 0.77798 0.75649 0.0
C613 C 0.37449 0.72273 0.63921 0.0
H614 H 0.32251 0.73265 0.85481 0.0
C615 C 0.37525 0.74855 0.58294 0.0
C616 C 0.35712 0.76875 0.62452 0.0
H617 H 0.38875 0.70752 0.60569 0.0
H618 H 0.39007 0.7527 0.5071 0.0
C619 C 0.33813 0.76272 0.7229 0.0
C620 C 0.72291 0.6518 0.46012 0.0
C621 C 0.7165 0.63291 0.36195 0.0
H622 H 0.75336 0.66696 0.59119 0.0
C623 C 0.73638 0.61447 0.31988 0.0
H624 H 0.7079 0.66623 0.4941 0.0
C625 C 0.76226 0.61483 0.37544 0.0
C626 C 0.76869 0.6337 0.47361 0.0
H627 H 0.73192 0.5997 0.2442 0.0
H628 H 0.77721 0.60034 0.34155 0.0
C629 C 0.74886 0.65224 0.51537 0.0
C630 C 0.61784 0.23823 0.56464 0.0
C631 C 0.63368 0.21741 0.61923 0.0
H632 H 0.60491 0.27965 0.57833 0.0
C633 C 0.64946 0.22288 0.73074 0.0
H634 H 0.60544 0.2345 0.47876 0.0
C635 C 0.64936 0.24879 0.78686 0.0
C636 C 0.6332 0.26948 0.7333 0.0
H637 H 0.66185 0.20716 0.77457 0.0
H638 H 0.66166 0.25252 0.87304 0.0
C639 C 0.61748 0.26401 0.62165 0.0
C640 C 0.35234 0.12254 0.66336 0.0
C641 C 0.36989 0.13248 0.56587 0.0
H642 H 0.34651 0.11413 0.86789 0.0
C643 C 0.39526 0.1428 0.60284 0.0
H644 H 0.33265 0.1144 0.6373 0.0
C645 C 0.40283 0.14344 0.73534 0.0
C646 C 0.38538 0.13326 0.83294 0.0
H647 H 0.40897 0.1509 0.52979 0.0
H648 H 0.42246 0.15174 0.76124 0.0
C649 C 0.36017 0.12255 0.7954 0.0
C650 C 0.12412 0.59182 0.53784 0.0
C651 C 0.12987 0.61889 0.56952 0.0
H652 H 0.11918 0.56242 0.38477 0.0
C653 C 0.13568 0.6373 0.4679 0.0
H654 H 0.11948 0.57727 0.61415 0.0
C655 C 0.13569 0.62881 0.33687 0.0
C656 C 0.12947 0.60188 0.30489 0.0
H657 H 0.14042 0.65828 0.48973 0.0
H658 H 0.14091 0.64319 0.26102 0.0
C659 C 0.12391 0.58339 0.40664 0.0
C660 C 0.59331 0.86309 0.57319 0.0
C661 C 0.62052 0.85789 0.54205 0.0
H662 H 0.56377 0.86796 0.72574 0.0
C663 C 0.6391 0.85316 0.64422 0.0
H664 H 0.57864 0.86696 0.49645 0.0
C665 C 0.63061 0.85362 0.77526 0.0
C666 C 0.60349 0.85917 0.80661 0.0
H667 H 0.6602 0.84891 0.62285 0.0
H668 H 0.64515 0.84927 0.85167 0.0
C669 C 0.58487 0.86373 0.70434 0.0
C670 C 0.86081 0.40715 0.4031 0.0
C671 C 0.85614 0.38852 0.30105 0.0
H672 H 0.8645 0.41338 0.61083 0.0
C673 C 0.85088 0.36135 0.33262 0.0
H674 H 0.86482 0.4283 0.38153 0.0
C675 C 0.85084 0.35283 0.46365 0.0
C676 C 0.85569 0.37143 0.56559 0.0
H677 H 0.84648 0.34678 0.25641 0.0
H678 H 0.84681 0.33169 0.4852 0.0
C679 C 0.86058 0.39869 0.53426 0.0
C680 C 0.35854 0.35126 0.59843 0.0
C681 C 0.3857 0.35653 0.56693 0.0
H682 H 0.3289 0.34707 0.75095 0.0
C683 C 0.40435 0.36115 0.66901 0.0
H684 H 0.34396 0.34692 0.52216 0.0
C685 C 0.3959 0.36083 0.80017 0.0
C686 C 0.36864 0.3559 0.83144 0.0
H687 H 0.42549 0.36518 0.64747 0.0
H688 H 0.41059 0.36472 0.87679 0.0
C689 C 0.35004 0.35111 0.72945 0.0
C690 C 0.3606 0.58968 0.33118 0.0
C691 C 0.35572 0.61694 0.29984 0.0
H692 H 0.36483 0.56007 0.4839 0.0
C693 C 0.35087 0.63553 0.40178 0.0
H694 H 0.36453 0.57499 0.2546 0.0
C695 C 0.35091 0.62702 0.5328 0.0
C696 C 0.35616 0.59985 0.56438 0.0
H697 H 0.34685 0.65667 0.38023 0.0
H698 H 0.34651 0.64159 0.60901 0.0
C699 C 0.36083 0.58121 0.46233 0.0
C700 C 0.63571 0.62485 0.70575 0.0
C701 C 0.61802 0.63445 0.80338 0.0
H702 H 0.6417 0.61687 0.50104 0.0
C703 C 0.59258 0.64463 0.76664 0.0
H704 H 0.65545 0.61683 0.7317 0.0
C705 C 0.58507 0.64546 0.63411 0.0
C706 C 0.60266 0.6356 0.53639 0.0
H707 H 0.57876 0.65246 0.83991 0.0
H708 H 0.56538 0.65362 0.6083 0.0
C709 C 0.62794 0.62504 0.57371 0.0
C710 C 0.63569 0.35955 0.52842 0.0
C711 C 0.62945 0.38648 0.56042 0.0
H712 H 0.64042 0.33008 0.37555 0.0
C713 C 0.62387 0.40496 0.45869 0.0
H714 H 0.64093 0.34518 0.60426 0.0
C715 C 0.62407 0.39653 0.32748 0.0
C716 C 0.62983 0.36947 0.29579 0.0
H717 H 0.61913 0.42593 0.48058 0.0
H718 H 0.6194 0.41108 0.25119 0.0
C719 C 0.63567 0.35106 0.39739 0.0
C720 C 0.8501 0.63723 0.13527 0.0
C721 C 0.8687 0.63244 1.03327 0.0
H722 H 0.84402 0.64142 0.34255 0.0
C723 C 0.89596 0.62751 0.06454 0.0
H724 H 0.82897 0.64128 0.11377 0.0
C725 C 0.90441 0.62719 0.19569 0.0
C726 C 0.88576 0.6318 0.29778 0.0
H727 H 0.91065 0.62362 0.98792 0.0
H728 H 0.92555 0.62315 0.21723 0.0
C729 C 0.8586 0.63708 0.26628 0.0
C730 C 0.61731 0.12564 0.84371 0.0
C731 C 0.63277 0.10325 0.80298 0.0
H732 H 0.60393 0.15003 1.00535 0.0
C733 C 0.64691 0.08806 0.89759 0.0
H734 H 0.60614 0.13765 0.773 0.0
C735 C 0.64557 0.09506 1.03049 0.0
C736 C 0.63008 0.11741 0.07127 0.0
H737 H 0.659 0.07069 0.86895 0.0
H738 H 0.6568 0.0831 0.10109 0.0
C739 C 0.61601 0.13267 0.97664 0.0
C740 C 0.08502 0.3429 0.23083 0.0
C741 C 0.10262 0.35277 0.32855 0.0
H742 H 0.07872 0.33589 1.02504 0.0
C743 C 0.12789 0.36333 0.29122 0.0
H744 H 0.06533 0.33474 0.25664 0.0
C745 C 0.13566 0.36352 0.15918 0.0
C746 C 0.11798 0.35391 0.06156 0.0
H747 H 0.14165 0.3715 0.36389 0.0
H748 H 0.15541 0.37154 0.13323 0.0
C749 C 0.09253 0.34373 0.0983 0.0
C750 C 0.34631 0.8924 1.02617 0.0
C751 C 0.35657 0.867 0.06309 0.0
H752 H 0.33729 0.91957 0.86772 0.0
C753 C 0.36632 0.84937 0.96552 0.0
H754 H 0.33836 0.90617 0.0993 0.0
C755 C 0.36617 0.85715 0.83342 0.0
C756 C 0.35551 0.88238 0.79593 0.0
H757 H 0.3744 0.82965 0.99157 0.0
H758 H 0.37443 0.84342 0.76083 0.0
C759 C 0.34553 0.89992 0.89361 0.0
C760 C 0.89529 0.84555 0.26215 0.0
C761 C 0.86991 0.85587 0.29911 0.0
H762 H 0.92249 0.83662 0.10375 0.0
C763 C 0.85236 0.86579 0.20161 0.0
H764 H 0.909 0.83746 0.33521 0.0
C765 C 0.86019 0.86578 0.06958 0.0
C766 C 0.8854 0.85508 1.03205 0.0
H767 H 0.83267 0.87392 0.22768 0.0
H768 H 0.84653 0.87419 0.99708 0.0
C769 C 0.90286 0.84491 0.12965 0.0
C770 C 0.86609 0.13123 1.03219 0.0
C771 C 0.85542 0.106 0.06967 0.0
H772 H 0.87432 0.15872 0.87405 0.0
C773 C 0.84546 0.08845 0.97199 0.0
H774 H 0.87434 0.14496 0.10479 0.0
C775 C 0.84624 0.09597 0.83943 0.0
C776 C 0.8565 0.12137 0.80251 0.0
H777 H 0.83722 0.0688 0.99787 0.0
H778 H 0.8383 0.08219 0.76629 0.0
C779 C 0.86624 0.139 0.90008 0.0
C780 C 0.08482 0.12461 0.1609 0.0
C781 C 0.10344 0.12918 0.05864 0.0
H782 H 0.07859 0.12137 0.36879 0.0
C783 C 0.13056 0.13474 0.08999 0.0
H784 H 0.06372 0.12038 0.1395 0.0
C785 C 0.13904 0.1352 0.22103 0.0
C786 C 0.12047 0.13045 0.32319 0.0
H787 H 0.1451 0.1391 1.01358 0.0
H788 H 0.16014 0.13945 0.24241 0.0
C789 C 0.09326 0.12525 0.29206 0.0
C790 C 0.11611 0.85563 0.88916 0.0
C791 C 0.13015 0.87091 0.7945 0.0
H792 H 0.10627 0.85063 0.09282 0.0
C793 C 0.14561 0.89328 0.83526 0.0
H794 H 0.10406 0.83824 0.86047 0.0
C795 C 0.14696 0.90029 0.96816 0.0
C796 C 0.13284 0.88508 0.06279 0.0
H797 H 0.15682 0.90526 0.76464 0.0
H798 H 0.15902 0.91767 0.99677 0.0
C799 C 0.11742 0.86266 1.0221 0.0
loop_
_geom_bond_atom_site_label_1
_geom_bond_atom_site_label_2
_geom_bond_distance
_geom_bond_site_symmetry_2
_ccdc_geom_bond_type
Tb0 O3 2.453 1_554 S
Tb0 O4 2.596 . S
Tb0 O5 2.374 . S
Tb0 O13 2.343 . S
Tb0 O15 2.353 . S
Tb0 O17 2.427 . S
Tb0 O18 2.513 . S
C1 O5 1.251 . S
C1 O7 1.263 . S
Tb2 O4 2.343 . S
Tb2 O7 2.353 . S
Tb2 O10 2.427 . S
Tb2 O11 2.513 . S
Tb2 O12 2.453 . S
Tb2 O13 2.596 . S
Tb2 O14 2.374 . S
O3 Tb0 2.453 1_556 S
O3 C19 1.245 . S
O4 Tb0 2.596 . S
O4 Tb2 2.343 . S
O4 C19 1.259 1_554 S
O5 Tb0 2.374 . S
O5 C1 1.251 . S
C6 O10 1.275 1_556 S
C6 O11 1.246 1_556 S
O7 C1 1.263 . S
O7 Tb2 2.353 . S
C8 O12 1.245 . S
C8 O13 1.259 . S
C9 O14 1.250 . S
C9 O15 1.263 . S
O10 Tb2 2.427 . S
O10 C6 1.275 1_554 S
O11 Tb2 2.513 . S
O11 C6 1.246 1_554 S
O12 Tb2 2.453 . S
O12 C8 1.245 . S
O13 Tb0 2.343 . S
O13 Tb2 2.596 . S
O13 C8 1.259 . S
O14 Tb2 2.374 . S
O14 C9 1.250 . S
O15 Tb0 2.353 . S
O15 C9 1.263 . S
C16 O17 1.275 . S
C16 O18 1.246 . S
O17 Tb0 2.427 . S
O17 C16 1.275 . S
O18 Tb0 2.513 . S
O18 C16 1.246 . S
C19 O3 1.245 . S
C19 O4 1.259 1_556 S
Tb20 O23 2.453 . S
Tb20 O24 2.596 . S
Tb20 O25 2.374 . S
Tb20 O33 2.343 . S
Tb20 O35 2.353 . S
Tb20 O37 2.427 . S
Tb20 O38 2.513 . S
C21 O25 1.251 . S
C21 O27 1.263 . S
Tb22 O24 2.343 . S
Tb22 O27 2.353 . S
Tb22 O30 2.427 . S
Tb22 O31 2.513 . S
Tb22 O32 2.453 1_556 S
Tb22 O33 2.596 . S
Tb22 O34 2.374 . S
O23 Tb20 2.453 . S
O23 C39 1.245 . S
O24 Tb20 2.596 . S
O24 Tb22 2.343 . S
O24 C39 1.259 . S
O25 Tb20 2.374 . S
O25 C21 1.251 . S
C26 O30 1.275 . S
C26 O31 1.246 . S
O27 C21 1.263 . S
O27 Tb22 2.353 . S
C28 O32 1.245 . S
C28 O33 1.259 1_554 S
C29 O34 1.250 . S
C29 O35 1.263 . S
O30 Tb22 2.427 . S
O30 C26 1.275 . S
O31 Tb22 2.513 . S
O31 C26 1.246 . S
O32 Tb22 2.453 1_554 S
O32 C28 1.245 . S
O33 Tb20 2.343 . S
O33 Tb22 2.596 . S
O33 C28 1.259 1_556 S
O34 Tb22 2.374 . S
O34 C29 1.250 . S
O35 Tb20 2.353 . S
O35 C29 1.263 . S
C36 O37 1.275 1_554 S
C36 O38 1.246 1_554 S
O37 Tb20 2.427 . S
O37 C36 1.275 1_556 S
O38 Tb20 2.513 . S
O38 C36 1.246 1_556 S
C39 O23 1.245 . S
C39 O24 1.259 . S
Tb40 O43 2.453 1_554 S
Tb40 O44 2.596 . S
Tb40 O45 2.374 . S
Tb40 O53 2.343 . S
Tb40 O55 2.353 . S
Tb40 O57 2.427 . S
Tb40 O58 2.513 . S
C41 O45 1.251 . S
C41 O47 1.263 . S
Tb42 O44 2.343 . S
Tb42 O47 2.353 . S
Tb42 O50 2.427 . S
Tb42 O51 2.513 . S
Tb42 O52 2.453 . S
Tb42 O53 2.596 . S
Tb42 O54 2.374 . S
O43 Tb40 2.453 1_556 S
O43 C59 1.245 . S
O44 Tb40 2.596 . S
O44 Tb42 2.343 . S
O44 C59 1.259 1_554 S
O45 Tb40 2.374 . S
O45 C41 1.251 . S
C46 O50 1.275 1_556 S
C46 O51 1.246 1_556 S
O47 C41 1.263 . S
O47 Tb42 2.353 . S
C48 O52 1.245 . S
C48 O53 1.259 . S
C49 O54 1.250 . S
C49 O55 1.263 . S
O50 Tb42 2.427 . S
O50 C46 1.275 1_554 S
O51 Tb42 2.513 . S
O51 C46 1.246 1_554 S
O52 Tb42 2.453 . S
O52 C48 1.245 . S
O53 Tb40 2.343 . S
O53 Tb42 2.596 . S
O53 C48 1.259 . S
O54 Tb42 2.374 . S
O54 C49 1.250 . S
O55 Tb40 2.353 . S
O55 C49 1.263 . S
C56 O57 1.275 . S
C56 O58 1.246 . S
O57 Tb40 2.427 . S
O57 C56 1.275 . S
O58 Tb40 2.513 . S
O58 C56 1.246 . S
C59 O43 1.245 . S
C59 O44 1.259 1_556 S
Tb60 O63 2.453 . S
Tb60 O64 2.596 . S
Tb60 O65 2.374 . S
Tb60 O73 2.343 . S
Tb60 O75 2.353 . S
Tb60 O77 2.427 . S
Tb60 O78 2.513 . S
C61 O65 1.251 . S
C61 O67 1.263 . S
Tb62 O64 2.343 . S
Tb62 O67 2.353 . S
Tb62 O70 2.427 . S
Tb62 O71 2.513 . S
Tb62 O72 2.453 1_556 S
Tb62 O73 2.596 . S
Tb62 O74 2.374 . S
O63 Tb60 2.453 . S
O63 C79 1.245 . S
O64 Tb60 2.596 . S
O64 Tb62 2.343 . S
O64 C79 1.259 . S
O65 Tb60 2.374 . S
O65 C61 1.251 . S
C66 O70 1.275 . S
C66 O71 1.246 . S
O67 C61 1.263 . S
O67 Tb62 2.353 . S
C68 O72 1.245 . S
C68 O73 1.259 1_554 S
C69 O74 1.250 . S
C69 O75 1.263 . S
O70 Tb62 2.427 . S
O70 C66 1.275 . S
O71 Tb62 2.513 . S
O71 C66 1.246 . S
O72 Tb62 2.453 1_554 S
O72 C68 1.245 . S
O73 Tb60 2.343 . S
O73 Tb62 2.596 . S
O73 C68 1.259 1_556 S
O74 Tb62 2.374 . S
O74 C69 1.250 . S
O75 Tb60 2.353 . S
O75 C69 1.263 . S
C76 O77 1.275 1_554 S
C76 O78 1.246 1_554 S
O77 Tb60 2.427 . S
O77 C76 1.275 1_556 S
O78 Tb60 2.513 . S
O78 C76 1.246 1_556 S
C79 O63 1.245 . S
C79 O64 1.259 . S
Tb80 O83 2.453 . S
Tb80 O84 2.596 . S
Tb80 O85 2.374 . S
Tb80 O93 2.343 1_554 S
Tb80 O95 2.353 . S
Tb80 O97 2.427 . S
Tb80 O98 2.513 . S
C81 O85 1.251 . S
C81 O87 1.263 . S
Tb82 O84 2.343 . S
Tb82 O87 2.353 . S
Tb82 O90 2.427 . S
Tb82 O91 2.513 . S
Tb82 O92 2.453 1_554 S
Tb82 O93 2.596 1_554 S
Tb82 O94 2.374 . S
O83 Tb80 2.453 . S
O83 C99 1.245 . S
O84 Tb80 2.596 . S
O84 Tb82 2.343 . S
O84 C99 1.259 . S
O85 Tb80 2.374 . S
O85 C81 1.251 . S
C86 O90 1.275 . S
C86 O91 1.246 . S
O87 C81 1.263 . S
O87 Tb82 2.353 . S
C88 O92 1.245 . S
C88 O93 1.259 . S
C89 O94 1.250 . S
C89 O95 1.263 . S
O90 Tb82 2.427 . S
O90 C86 1.275 . S
O91 Tb82 2.513 . S
O91 C86 1.246 . S
O92 Tb82 2.453 1_556 S
O92 C88 1.245 . S
O93 Tb80 2.343 1_556 S
O93 Tb82 2.596 1_556 S
O93 C88 1.259 . S
O94 Tb82 2.374 . S
O94 C89 1.250 . S
O95 Tb80 2.353 . S
O95 C89 1.263 . S
C96 O97 1.275 1_556 S
C96 O98 1.246 1_556 S
O97 Tb80 2.427 . S
O97 C96 1.275 1_554 S
O98 Tb80 2.513 . S
O98 C96 1.246 1_554 S
C99 O83 1.245 . S
C99 O84 1.259 . S
Tb100 O103 2.453 1_556 S
Tb100 O104 2.596 1_556 S
Tb100 O105 2.374 . S
Tb100 O113 2.343 . S
Tb100 O115 2.353 . S
Tb100 O117 2.427 . S
Tb100 O118 2.513 . S
C101 O105 1.251 . S
C101 O107 1.263 . S
Tb102 O104 2.343 1_556 S
Tb102 O107 2.353 . S
Tb102 O110 2.427 . S
Tb102 O111 2.513 . S
Tb102 O112 2.453 . S
Tb102 O113 2.596 . S
Tb102 O114 2.374 . S
O103 Tb100 2.453 1_554 S
O103 C119 1.245 . S
O104 Tb100 2.596 1_554 S
O104 Tb102 2.343 1_554 S
O104 C119 1.259 . S
O105 Tb100 2.374 . S
O105 C101 1.251 . S
C106 O110 1.275 1_554 S
C106 O111 1.246 1_554 S
O107 C101 1.263 . S
O107 Tb102 2.353 . S
C108 O112 1.245 . S
C108 O113 1.259 . S
C109 O114 1.250 . S
C109 O115 1.263 . S
O110 Tb102 2.427 . S
O110 C106 1.275 1_556 S
O111 Tb102 2.513 . S
O111 C106 1.246 1_556 S
O112 Tb102 2.453 . S
O112 C108 1.245 . S
O113 Tb100 2.343 . S
O113 Tb102 2.596 . S
O113 C108 1.259 . S
O114 Tb102 2.374 . S
O114 C109 1.250 . S
O115 Tb100 2.353 . S
O115 C109 1.263 . S
C116 O117 1.275 . S
C116 O118 1.246 . S
O117 Tb100 2.427 . S
O117 C116 1.275 . S
O118 Tb100 2.513 . S
O118 C116 1.246 . S
C119 O103 1.245 . S
C119 O104 1.259 . S
Tb120 O123 2.453 . S
Tb120 O124 2.596 . S
Tb120 O125 2.374 . S
Tb120 O133 2.343 1_554 S
Tb120 O135 2.353 . S
Tb120 O137 2.427 . S
Tb120 O138 2.513 . S
C121 O125 1.251 . S
C121 O127 1.263 . S
Tb122 O124 2.343 . S
Tb122 O127 2.353 . S
Tb122 O130 2.427 . S
Tb122 O131 2.513 . S
Tb122 O132 2.453 1_554 S
Tb122 O133 2.596 1_554 S
Tb122 O134 2.374 . S
O123 Tb120 2.453 . S
O123 C139 1.245 . S
O124 Tb120 2.596 . S
O124 Tb122 2.343 . S
O124 C139 1.259 . S
O125 Tb120 2.374 . S
O125 C121 1.251 . S
C126 O130 1.275 . S
C126 O131 1.246 . S
O127 C121 1.263 . S
O127 Tb122 2.353 . S
C128 O132 1.245 . S
C128 O133 1.259 . S
C129 O134 1.250 . S
C129 O135 1.263 . S
O130 Tb122 2.427 . S
O130 C126 1.275 . S
O131 Tb122 2.513 . S
O131 C126 1.246 . S
O132 Tb122 2.453 1_556 S
O132 C128 1.245 . S
O133 Tb120 2.343 1_556 S
O133 Tb122 2.596 1_556 S
O133 C128 1.259 . S
O134 Tb122 2.374 . S
O134 C129 1.250 . S
O135 Tb120 2.353 . S
O135 C129 1.263 . S
C136 O137 1.275 1_556 S
C136 O138 1.246 1_556 S
O137 Tb120 2.427 . S
O137 C136 1.275 1_554 S
O138 Tb120 2.513 . S
O138 C136 1.246 1_554 S
C139 O123 1.245 . S
C139 O124 1.259 . S
Tb140 O143 2.453 1_556 S
Tb140 O144 2.596 1_556 S
Tb140 O145 2.374 . S
Tb140 O153 2.343 . S
Tb140 O155 2.353 . S
Tb140 O157 2.427 . S
Tb140 O158 2.513 . S
C141 O145 1.251 . S
C141 O147 1.263 . S
Tb142 O144 2.343 1_556 S
Tb142 O147 2.353 . S
Tb142 O150 2.427 . S
Tb142 O151 2.513 . S
Tb142 O152 2.453 . S
Tb142 O153 2.596 . S
Tb142 O154 2.374 . S
O143 Tb140 2.453 1_554 S
O143 C159 1.245 . S
O144 Tb140 2.596 1_554 S
O144 Tb142 2.343 1_554 S
O144 C159 1.259 . S
O145 Tb140 2.374 . S
O145 C141 1.251 . S
C146 O150 1.275 1_554 S
C146 O151 1.246 1_554 S
O147 C141 1.263 . S
O147 Tb142 2.353 . S
C148 O152 1.245 . S
C148 O153 1.259 . S
C149 O154 1.250 . S
C149 O155 1.263 . S
O150 Tb142 2.427 . S
O150 C146 1.275 1_556 S
O151 Tb142 2.513 . S
O151 C146 1.246 1_556 S
O152 Tb142 2.453 . S
O152 C148 1.245 . S
O153 Tb140 2.343 . S
O153 Tb142 2.596 . S
O153 C148 1.259 . S
O154 Tb142 2.374 . S
O154 C149 1.250 . S
O155 Tb140 2.353 . S
O155 C149 1.263 . S
C156 O157 1.275 . S
C156 O158 1.246 . S
O157 Tb140 2.427 . S
O157 C156 1.275 . S
O158 Tb140 2.513 . S
O158 C156 1.246 . S
C159 O143 1.245 . S
C159 O144 1.259 . S
Tb160 O163 2.453 . S
Tb160 O164 2.596 . S
Tb160 O165 2.374 . S
Tb160 O173 2.343 . S
Tb160 O175 2.353 . S
Tb160 O177 2.427 . S
Tb160 O178 2.513 . S
C161 O165 1.251 . S
C161 O167 1.263 . S
Tb162 O164 2.343 . S
Tb162 O167 2.353 . S
Tb162 O170 2.427 . S
Tb162 O171 2.513 . S
Tb162 O172 2.453 . S
Tb162 O173 2.596 . S
Tb162 O174 2.374 . S
O163 Tb160 2.453 . S
O163 C179 1.245 . S
O164 Tb160 2.596 . S
O164 Tb162 2.343 . S
O164 C179 1.259 . S
O165 Tb160 2.374 . S
O165 C161 1.251 . S
C166 O170 1.275 . S
C166 O171 1.246 . S
O167 C161 1.263 . S
O167 Tb162 2.353 . S
C168 O172 1.245 . S
C168 O173 1.259 . S
C169 O174 1.250 . S
C169 O175 1.263 . S
O170 Tb162 2.427 . S
O170 C166 1.275 . S
O171 Tb162 2.513 . S
O171 C166 1.246 . S
O172 Tb162 2.453 . S
O172 C168 1.245 . S
O173 Tb160 2.343 . S
O173 Tb162 2.596 . S
O173 C168 1.259 . S
O174 Tb162 2.374 . S
O174 C169 1.250 . S
O175 Tb160 2.353 . S
O175 C169 1.263 . S
C176 O177 1.275 . S
C176 O178 1.246 . S
O177 Tb160 2.427 . S
O177 C176 1.275 . S
O178 Tb160 2.513 . S
O178 C176 1.246 . S
C179 O163 1.245 . S
C179 O164 1.259 . S
Tb180 O183 2.453 . S
Tb180 O184 2.596 . S
Tb180 O185 2.374 . S
Tb180 O193 2.343 . S
Tb180 O195 2.353 . S
Tb180 O197 2.427 . S
Tb180 O198 2.513 . S
C181 O185 1.251 . S
C181 O187 1.263 . S
Tb182 O184 2.343 . S
Tb182 O187 2.353 . S
Tb182 O190 2.427 . S
Tb182 O191 2.513 . S
Tb182 O192 2.453 . S
Tb182 O193 2.596 . S
Tb182 O194 2.374 . S
O183 Tb180 2.453 . S
O183 C199 1.245 . S
O184 Tb180 2.596 . S
O184 Tb182 2.343 . S
O184 C199 1.259 . S
O185 Tb180 2.374 . S
O185 C181 1.251 . S
C186 O190 1.275 . S
C186 O191 1.246 . S
O187 C181 1.263 . S
O187 Tb182 2.353 . S
C188 O192 1.245 . S
C188 O193 1.259 . S
C189 O194 1.250 . S
C189 O195 1.263 . S
O190 Tb182 2.427 . S
O190 C186 1.275 . S
O191 Tb182 2.513 . S
O191 C186 1.246 . S
O192 Tb182 2.453 . S
O192 C188 1.245 . S
O193 Tb180 2.343 . S
O193 Tb182 2.596 . S
O193 C188 1.259 . S
O194 Tb182 2.374 . S
O194 C189 1.250 . S
O195 Tb180 2.353 . S
O195 C189 1.263 . S
C196 O197 1.275 . S
C196 O198 1.246 . S
O197 Tb180 2.427 . S
O197 C196 1.275 . S
O198 Tb180 2.513 . S
O198 C196 1.246 . S
C199 O183 1.245 . S
C199 O184 1.259 . S
Tb200 O203 2.453 . S
Tb200 O204 2.596 . S
Tb200 O205 2.374 . S
Tb200 O213 2.343 . S
Tb200 O215 2.353 . S
Tb200 O217 2.427 . S
Tb200 O218 2.513 . S
C201 O205 1.251 . S
C201 O207 1.263 . S
Tb202 O204 2.343 . S
Tb202 O207 2.353 . S
Tb202 O210 2.427 . S
Tb202 O211 2.513 . S
Tb202 O212 2.453 . S
Tb202 O213 2.596 . S
Tb202 O214 2.374 . S
O203 Tb200 2.453 . S
O203 C219 1.245 . S
O204 Tb200 2.596 . S
O204 Tb202 2.343 . S
O204 C219 1.259 . S
O205 Tb200 2.374 . S
O205 C201 1.251 . S
C206 O210 1.275 . S
C206 O211 1.246 . S
O207 C201 1.263 . S
O207 Tb202 2.353 . S
C208 O212 1.245 . S
C208 O213 1.259 . S
C209 O214 1.250 . S
C209 O215 1.263 . S
O210 Tb202 2.427 . S
O210 C206 1.275 . S
O211 Tb202 2.513 . S
O211 C206 1.246 . S
O212 Tb202 2.453 . S
O212 C208 1.245 . S
O213 Tb200 2.343 . S
O213 Tb202 2.596 . S
O213 C208 1.259 . S
O214 Tb202 2.374 . S
O214 C209 1.250 . S
O215 Tb200 2.353 . S
O215 C209 1.263 . S
C216 O217 1.275 . S
C216 O218 1.246 . S
O217 Tb200 2.427 . S
O217 C216 1.275 . S
O218 Tb200 2.513 . S
O218 C216 1.246 . S
C219 O203 1.245 . S
C219 O204 1.259 . S
Tb220 O223 2.453 . S
Tb220 O224 2.596 . S
Tb220 O225 2.374 . S
Tb220 O233 2.343 . S
Tb220 O235 2.353 . S
Tb220 O237 2.427 . S
Tb220 O238 2.513 . S
C221 O225 1.251 . S
C221 O227 1.263 . S
Tb222 O224 2.343 . S
Tb222 O227 2.353 . S
Tb222 O230 2.427 . S
Tb222 O231 2.513 . S
Tb222 O232 2.453 . S
Tb222 O233 2.596 . S
Tb222 O234 2.374 . S
O223 Tb220 2.453 . S
O223 C239 1.245 . S
O224 Tb220 2.596 . S
O224 Tb222 2.343 . S
O224 C239 1.259 . S
O225 Tb220 2.374 . S
O225 C221 1.251 . S
C226 O230 1.275 . S
C226 O231 1.246 . S
O227 C221 1.263 . S
O227 Tb222 2.353 . S
C228 O232 1.245 . S
C228 O233 1.259 . S
C229 O234 1.250 . S
C229 O235 1.263 . S
O230 Tb222 2.427 . S
O230 C226 1.275 . S
O231 Tb222 2.513 . S
O231 C226 1.246 . S
O232 Tb222 2.453 . S
O232 C228 1.245 . S
O233 Tb220 2.343 . S
O233 Tb222 2.596 . S
O233 C228 1.259 . S
O234 Tb222 2.374 . S
O234 C229 1.250 . S
O235 Tb220 2.353 . S
O235 C229 1.263 . S
C236 O237 1.275 . S
C236 O238 1.246 . S
O237 Tb220 2.427 . S
O237 C236 1.275 . S
O238 Tb220 2.513 . S
O238 C236 1.246 . S
C239 O223 1.245 . S
C239 O224 1.259 . S
Tb240 O243 2.453 . S
Tb240 O244 2.596 . S
Tb240 O245 2.374 . S
Tb240 O253 2.343 . S
Tb240 O255 2.353 . S
Tb240 O257 2.427 . S
Tb240 O258 2.513 . S
C241 O245 1.251 . S
C241 O247 1.263 . S
Tb242 O244 2.343 . S
Tb242 O247 2.353 . S
Tb242 O250 2.427 . S
Tb242 O251 2.513 . S
Tb242 O252 2.453 . S
Tb242 O253 2.596 . S
Tb242 O254 2.374 . S
O243 Tb240 2.453 . S
O243 C259 1.245 . S
O244 Tb240 2.596 . S
O244 Tb242 2.343 . S
O244 C259 1.259 . S
O245 Tb240 2.374 . S
O245 C241 1.251 . S
C246 O250 1.275 . S
C246 O251 1.246 . S
O247 C241 1.263 . S
O247 Tb242 2.353 . S
C248 O252 1.245 . S
C248 O253 1.259 . S
C249 O254 1.250 . S
C249 O255 1.263 . S
O250 Tb242 2.427 . S
O250 C246 1.275 . S
O251 Tb242 2.513 . S
O251 C246 1.246 . S
O252 Tb242 2.453 . S
O252 C248 1.245 . S
O253 Tb240 2.343 . S
O253 Tb242 2.596 . S
O253 C248 1.259 . S
O254 Tb242 2.374 . S
O254 C249 1.250 . S
O255 Tb240 2.353 . S
O255 C249 1.263 . S
C256 O257 1.275 . S
C256 O258 1.246 . S
O257 Tb240 2.427 . S
O257 C256 1.275 . S
O258 Tb240 2.513 . S
O258 C256 1.246 . S
C259 O243 1.245 . S
C259 O244 1.259 . S
Tb260 O263 2.453 . S
Tb260 O264 2.596 . S
Tb260 O265 2.374 . S
Tb260 O273 2.343 . S
Tb260 O275 2.353 . S
Tb260 O277 2.427 . S
Tb260 O278 2.513 . S
C261 O265 1.251 . S
C261 O267 1.263 . S
Tb262 O264 2.343 . S
Tb262 O267 2.353 . S
Tb262 O270 2.427 . S
Tb262 O271 2.513 . S
Tb262 O272 2.453 . S
Tb262 O273 2.596 . S
Tb262 O274 2.374 . S
O263 Tb260 2.453 . S
O263 C279 1.245 . S
O264 Tb260 2.596 . S
O264 Tb262 2.343 . S
O264 C279 1.259 . S
O265 Tb260 2.374 . S
O265 C261 1.251 . S
C266 O270 1.275 . S
C266 O271 1.246 . S
O267 C261 1.263 . S
O267 Tb262 2.353 . S
C268 O272 1.245 . S
C268 O273 1.259 . S
C269 O274 1.250 . S
C269 O275 1.263 . S
O270 Tb262 2.427 . S
O270 C266 1.275 . S
O271 Tb262 2.513 . S
O271 C266 1.246 . S
O272 Tb262 2.453 . S
O272 C268 1.245 . S
O273 Tb260 2.343 . S
O273 Tb262 2.596 . S
O273 C268 1.259 . S
O274 Tb262 2.374 . S
O274 C269 1.250 . S
O275 Tb260 2.353 . S
O275 C269 1.263 . S
C276 O277 1.275 . S
C276 O278 1.246 . S
O277 Tb260 2.427 . S
O277 C276 1.275 . S
O278 Tb260 2.513 . S
O278 C276 1.246 . S
C279 O263 1.245 . S
C279 O264 1.259 . S
Tb280 O283 2.453 . S
Tb280 O284 2.596 . S
Tb280 O285 2.374 . S
Tb280 O293 2.343 . S
Tb280 O295 2.353 . S
Tb280 O297 2.427 . S
Tb280 O298 2.513 . S
C281 O285 1.251 . S
C281 O287 1.263 . S
Tb282 O284 2.343 . S
Tb282 O287 2.353 . S
Tb282 O290 2.427 . S
Tb282 O291 2.513 . S
Tb282 O292 2.453 . S
Tb282 O293 2.596 . S
Tb282 O294 2.374 . S
O283 Tb280 2.453 . S
O283 C299 1.245 . S
O284 Tb280 2.596 . S
O284 Tb282 2.343 . S
O284 C299 1.259 . S
O285 Tb280 2.374 . S
O285 C281 1.251 . S
C286 O290 1.275 . S
C286 O291 1.246 . S
O287 C281 1.263 . S
O287 Tb282 2.353 . S
C288 O292 1.245 . S
C288 O293 1.259 . S
C289 O294 1.250 . S
C289 O295 1.263 . S
O290 Tb282 2.427 . S
O290 C286 1.275 . S
O291 Tb282 2.513 . S
O291 C286 1.246 . S
O292 Tb282 2.453 . S
O292 C288 1.245 . S
O293 Tb280 2.343 . S
O293 Tb282 2.596 . S
O293 C288 1.259 . S
O294 Tb282 2.374 . S
O294 C289 1.250 . S
O295 Tb280 2.353 . S
O295 C289 1.263 . S
C296 O297 1.275 . S
C296 O298 1.246 . S
O297 Tb280 2.427 . S
O297 C296 1.275 . S
O298 Tb280 2.513 . S
O298 C296 1.246 . S
C299 O283 1.245 . S
C299 O284 1.259 . S
Tb300 O303 2.453 . S
Tb300 O304 2.596 . S
Tb300 O305 2.374 . S
Tb300 O313 2.343 . S
Tb300 O315 2.353 . S
Tb300 O317 2.427 . S
Tb300 O318 2.513 . S
C301 O305 1.251 . S
C301 O307 1.263 . S
Tb302 O304 2.343 . S
Tb302 O307 2.353 . S
Tb302 O310 2.427 . S
Tb302 O311 2.513 . S
Tb302 O312 2.453 . S
Tb302 O313 2.596 . S
Tb302 O314 2.374 . S
O303 Tb300 2.453 . S
O303 C319 1.245 . S
O304 Tb300 2.596 . S
O304 Tb302 2.343 . S
O304 C319 1.259 . S
O305 Tb300 2.374 . S
O305 C301 1.251 . S
C306 O310 1.275 . S
C306 O311 1.246 . S
O307 C301 1.263 . S
O307 Tb302 2.353 . S
C308 O312 1.245 . S
C308 O313 1.259 . S
C309 O314 1.250 . S
C309 O315 1.263 . S
O310 Tb302 2.427 . S
O310 C306 1.275 . S
O311 Tb302 2.513 . S
O311 C306 1.246 . S
O312 Tb302 2.453 . S
O312 C308 1.245 . S
O313 Tb300 2.343 . S
O313 Tb302 2.596 . S
O313 C308 1.259 . S
O314 Tb302 2.374 . S
O314 C309 1.250 . S
O315 Tb300 2.353 . S
O315 C309 1.263 . S
C316 O317 1.275 . S
C316 O318 1.246 . S
O317 Tb300 2.427 . S
O317 C316 1.275 . S
O318 Tb300 2.513 . S
O318 C316 1.246 . S
C319 O303 1.245 . S
C319 O304 1.259 . S
C320 C321 1.387 1_545 S
C320 H324 0.950 1_545 S
C320 C329 1.390 . S
C321 C320 1.387 1_565 S
C321 C323 1.387 1_565 S
H322 C329 0.950 . S
C323 C321 1.387 1_545 S
C323 C325 1.390 . S
C323 H327 0.950 1_545 S
H324 C320 0.950 1_565 S
C325 C323 1.390 . S
C325 C326 1.387 . S
C325 H328 0.950 . S
C326 C325 1.387 . S
C326 C329 1.387 . S
H327 C323 0.950 1_565 S
H328 C325 0.950 . S
C329 C320 1.390 . S
C329 H322 0.950 . S
C329 C326 1.387 . S
C330 C331 1.387 1_455 S
C330 H334 0.950 1_455 S
C330 C339 1.390 . S
C331 C330 1.387 1_655 S
C331 C333 1.387 1_655 S
H332 C339 0.950 . S
C333 C331 1.387 1_455 S
C333 C335 1.390 . S
C333 H337 0.950 1_455 S
H334 C330 0.950 1_655 S
C335 C333 1.390 . S
C335 C336 1.387 . S
C335 H338 0.950 . S
C336 C335 1.387 . S
C336 C339 1.387 . S
H337 C333 0.950 1_655 S
H338 C335 0.950 . S
C339 C330 1.390 . S
C339 H332 0.950 . S
C339 C336 1.387 . S
C340 C341 1.387 . S
C340 H344 0.950 . S
C340 C349 1.390 . S
C341 C340 1.387 . S
C341 C343 1.387 . S
H342 C349 0.950 1_545 S
C343 C341 1.387 . S
C343 C345 1.390 . S
C343 H347 0.950 . S
H344 C340 0.950 . S
C345 C343 1.390 . S
C345 C346 1.387 1_565 S
C345 H348 0.950 1_565 S
C346 C345 1.387 1_545 S
C346 C349 1.387 1_545 S
H347 C343 0.950 . S
H348 C345 0.950 1_545 S
C349 C340 1.390 . S
C349 H342 0.950 1_565 S
C349 C346 1.387 1_565 S
C350 C351 1.387 . S
C350 H354 0.950 . S
C350 C359 1.390 . S
C351 C350 1.387 . S
C351 C353 1.387 . S
H352 C359 0.950 1_455 S
C353 C351 1.387 . S
C353 C355 1.390 . S
C353 H357 0.950 . S
H354 C350 0.950 . S
C355 C353 1.390 . S
C355 C356 1.387 1_655 S
C355 H358 0.950 1_655 S
C356 C355 1.387 1_455 S
C356 C359 1.387 1_455 S
H357 C353 0.950 . S
H358 C355 0.950 1_455 S
C359 C350 1.390 . S
C359 H352 0.950 1_655 S
C359 C356 1.387 1_655 S
C360 C361 1.387 1_556 S
C360 H364 0.950 . S
C360 C369 1.390 . S
C361 C360 1.387 1_554 S
C361 C363 1.387 . S
H362 C369 0.950 . S
C363 C361 1.387 . S
C363 C365 1.390 . S
C363 H367 0.950 . S
H364 C360 0.950 . S
C365 C363 1.390 . S
C365 C366 1.387 . S
C365 H368 0.950 . S
C366 C365 1.387 . S
C366 C369 1.387 1_554 S
H367 C363 0.950 . S
H368 C365 0.950 . S
C369 C360 1.390 . S
C369 H362 0.950 . S
C369 C366 1.387 1_556 S
C370 C371 1.387 1_554 S
C370 H374 0.950 . S
C370 C379 1.390 . S
C371 C370 1.387 1_556 S
C371 C373 1.387 . S
H372 C379 0.950 . S
C373 C371 1.387 . S
C373 C375 1.390 . S
C373 H377 0.950 . S
H374 C370 0.950 . S
C375 C373 1.390 . S
C375 C376 1.387 . S
C375 H378 0.950 . S
C376 C375 1.387 . S
C376 C379 1.387 1_556 S
H377 C373 0.950 . S
H378 C375 0.950 . S
C379 C370 1.390 . S
C379 H372 0.950 . S
C379 C376 1.387 1_554 S
C380 C381 1.387 . S
C380 H384 0.950 . S
C380 C389 1.390 . S
C381 C380 1.387 . S
C381 C383 1.387 1_554 S
H382 C389 0.950 . S
C383 C381 1.387 1_556 S
C383 C385 1.390 . S
C383 H387 0.950 . S
H384 C380 0.950 . S
C385 C383 1.390 . S
C385 C386 1.387 1_556 S
C385 H388 0.950 . S
C386 C385 1.387 1_554 S
C386 C389 1.387 . S
H387 C383 0.950 . S
H388 C385 0.950 . S
C389 C380 1.390 . S
C389 H382 0.950 . S
C389 C386 1.387 . S
C390 C391 1.387 1_554 S
C390 H394 0.950 . S
C390 C399 1.390 . S
C391 C390 1.387 1_556 S
C391 C393 1.387 . S
H392 C399 0.950 . S
C393 C391 1.387 . S
C393 C395 1.390 . S
C393 H397 0.950 . S
H394 C390 0.950 . S
C395 C393 1.390 . S
C395 C396 1.387 . S
C395 H398 0.950 . S
C396 C395 1.387 . S
C396 C399 1.387 1_556 S
H397 C393 0.950 . S
H398 C395 0.950 . S
C399 C390 1.390 . S
C399 H392 0.950 . S
C399 C396 1.387 1_554 S
C400 C401 1.387 . S
C400 H404 0.950 . S
C400 C409 1.390 . S
C401 C400 1.387 . S
C401 C403 1.387 . S
H402 C409 0.950 . S
C403 C401 1.387 . S
C403 C405 1.390 . S
C403 H407 0.950 . S
H404 C400 0.950 . S
C405 C403 1.390 . S
C405 C406 1.387 . S
C405 H408 0.950 . S
C406 C405 1.387 . S
C406 C409 1.387 . S
H407 C403 0.950 . S
H408 C405 0.950 . S
C409 C400 1.390 . S
C409 H402 0.950 . S
C409 C406 1.387 . S
C410 C411 1.387 . S
C410 H414 0.950 . S
C410 C419 1.390 . S
C411 C410 1.387 . S
C411 C413 1.387 . S
H412 C419 0.950 . S
C413 C411 1.387 . S
C413 C415 1.390 . S
C413 H417 0.950 . S
H414 C410 0.950 . S
C415 C413 1.390 . S
C415 C416 1.387 . S
C415 H418 0.950 . S
C416 C415 1.387 . S
C416 C419 1.387 . S
H417 C413 0.950 . S
H418 C415 0.950 . S
C419 C410 1.390 . S
C419 H412 0.950 . S
C419 C416 1.387 . S
C420 C421 1.387 . S
C420 H424 0.950 . S
C420 C429 1.390 . S
C421 C420 1.387 . S
C421 C423 1.387 . S
H422 C429 0.950 . S
C423 C421 1.387 . S
C423 C425 1.390 . S
C423 H427 0.950 . S
H424 C420 0.950 . S
C425 C423 1.390 . S
C425 C426 1.387 . S
C425 H428 0.950 . S
C426 C425 1.387 . S
C426 C429 1.387 . S
H427 C423 0.950 . S
H428 C425 0.950 . S
C429 C420 1.390 . S
C429 H422 0.950 . S
C429 C426 1.387 . S
C430 C431 1.387 . S
C430 H434 0.950 . S
C430 C439 1.390 . S
C431 C430 1.387 . S
C431 C433 1.387 . S
H432 C439 0.950 . S
C433 C431 1.387 . S
C433 C435 1.390 . S
C433 H437 0.950 . S
H434 C430 0.950 . S
C435 C433 1.390 . S
C435 C436 1.387 . S
C435 H438 0.950 . S
C436 C435 1.387 . S
C436 C439 1.387 . S
H437 C433 0.950 . S
H438 C435 0.950 . S
C439 C430 1.390 . S
C439 H432 0.950 . S
C439 C436 1.387 . S
C440 C441 1.387 . S
C440 H444 0.950 . S
C440 C449 1.390 . S
C441 C440 1.387 . S
C441 C443 1.387 . S
H442 C449 0.950 1_545 S
C443 C441 1.387 . S
C443 C445 1.390 . S
C443 H447 0.950 . S
H444 C440 0.950 . S
C445 C443 1.390 . S
C445 C446 1.387 1_565 S
C445 H448 0.950 1_565 S
C446 C445 1.387 1_545 S
C446 C449 1.387 1_545 S
H447 C443 0.950 . S
H448 C445 0.950 1_545 S
C449 C440 1.390 . S
C449 H442 0.950 1_565 S
C449 C446 1.387 1_565 S
C450 C451 1.387 1_655 S
C450 H454 0.950 1_655 S
C450 C459 1.390 . S
C451 C450 1.387 1_455 S
C451 C453 1.387 1_455 S
H452 C459 0.950 . S
C453 C451 1.387 1_655 S
C453 C455 1.390 . S
C453 H457 0.950 1_655 S
H454 C450 0.950 1_455 S
C455 C453 1.390 . S
C455 C456 1.387 . S
C455 H458 0.950 . S
C456 C455 1.387 . S
C456 C459 1.387 . S
H457 C453 0.950 1_455 S
H458 C455 0.950 . S
C459 C450 1.390 . S
C459 H452 0.950 . S
C459 C456 1.387 . S
C460 C461 1.387 1_545 S
C460 H464 0.950 1_545 S
C460 C469 1.390 . S
C461 C460 1.387 1_565 S
C461 C463 1.387 1_565 S
H462 C469 0.950 . S
C463 C461 1.387 1_545 S
C463 C465 1.390 . S
C463 H467 0.950 1_545 S
H464 C460 0.950 1_565 S
C465 C463 1.390 . S
C465 C466 1.387 . S
C465 H468 0.950 . S
C466 C465 1.387 . S
C466 C469 1.387 . S
H467 C463 0.950 1_565 S
H468 C465 0.950 . S
C469 C460 1.390 . S
C469 H462 0.950 . S
C469 C466 1.387 . S
C470 C471 1.387 . S
C470 H474 0.950 . S
C470 C479 1.390 . S
C471 C470 1.387 . S
C471 C473 1.387 . S
H472 C479 0.950 1_655 S
C473 C471 1.387 . S
C473 C475 1.390 . S
C473 H477 0.950 . S
H474 C470 0.950 . S
C475 C473 1.390 . S
C475 C476 1.387 1_455 S
C475 H478 0.950 1_455 S
C476 C475 1.387 1_655 S
C476 C479 1.387 1_655 S
H477 C473 0.950 . S
H478 C475 0.950 1_655 S
C479 C470 1.390 . S
C479 H472 0.950 1_455 S
C479 C476 1.387 1_455 S
C480 C481 1.387 . S
C480 H484 0.950 . S
C480 C489 1.390 . S
C481 C480 1.387 . S
C481 C483 1.387 . S
H482 C489 0.950 . S
C483 C481 1.387 . S
C483 C485 1.390 . S
C483 H487 0.950 . S
H484 C480 0.950 . S
C485 C483 1.390 . S
C485 C486 1.387 . S
C485 H488 0.950 . S
C486 C485 1.387 . S
C486 C489 1.387 . S
H487 C483 0.950 . S
H488 C485 0.950 . S
C489 C480 1.390 . S
C489 H482 0.950 . S
C489 C486 1.387 . S
C490 C491 1.387 . S
C490 H494 0.950 . S
C490 C499 1.390 . S
C491 C490 1.387 . S
C491 C493 1.387 . S
H492 C499 0.950 . S
C493 C491 1.387 . S
C493 C495 1.390 . S
C493 H497 0.950 . S
H494 C490 0.950 . S
C495 C493 1.390 . S
C495 C496 1.387 . S
C495 H498 0.950 . S
C496 C495 1.387 . S
C496 C499 1.387 . S
H497 C493 0.950 . S
H498 C495 0.950 . S
C499 C490 1.390 . S
C499 H492 0.950 . S
C499 C496 1.387 . S
C500 C501 1.387 . S
C500 H504 0.950 . S
C500 C509 1.390 . S
C501 C500 1.387 . S
C501 C503 1.387 . S
H502 C509 0.950 . S
C503 C501 1.387 . S
C503 C505 1.390 . S
C503 H507 0.950 . S
H504 C500 0.950 . S
C505 C503 1.390 . S
C505 C506 1.387 . S
C505 H508 0.950 . S
C506 C505 1.387 . S
C506 C509 1.387 . S
H507 C503 0.950 . S
H508 C505 0.950 . S
C509 C500 1.390 . S
C509 H502 0.950 . S
C509 C506 1.387 . S
C510 C511 1.387 . S
C510 H514 0.950 . S
C510 C519 1.390 . S
C511 C510 1.387 . S
C511 C513 1.387 . S
H512 C519 0.950 . S
C513 C511 1.387 . S
C513 C515 1.390 . S
C513 H517 0.950 . S
H514 C510 0.950 . S
C515 C513 1.390 . S
C515 C516 1.387 . S
C515 H518 0.950 . S
C516 C515 1.387 . S
C516 C519 1.387 . S
H517 C513 0.950 . S
H518 C515 0.950 . S
C519 C510 1.390 . S
C519 H512 0.950 . S
C519 C516 1.387 . S
C520 C521 1.387 . S
C520 H524 0.950 . S
C520 C529 1.390 . S
C521 C520 1.387 . S
C521 C523 1.387 . S
H522 C529 0.950 . S
C523 C521 1.387 . S
C523 C525 1.390 . S
C523 H527 0.950 . S
H524 C520 0.950 . S
C525 C523 1.390 . S
C525 C526 1.387 . S
C525 H528 0.950 . S
C526 C525 1.387 . S
C526 C529 1.387 . S
H527 C523 0.950 . S
H528 C525 0.950 . S
C529 C520 1.390 . S
C529 H522 0.950 . S
C529 C526 1.387 . S
C530 C531 1.387 . S
C530 H534 0.950 . S
C530 C539 1.390 . S
C531 C530 1.387 . S
C531 C533 1.387 . S
H532 C539 0.950 . S
C533 C531 1.387 . S
C533 C535 1.390 . S
C533 H537 0.950 . S
H534 C530 0.950 . S
C535 C533 1.390 . S
C535 C536 1.387 . S
C535 H538 0.950 . S
C536 C535 1.387 . S
C536 C539 1.387 . S
H537 C533 0.950 . S
H538 C535 0.950 . S
C539 C530 1.390 . S
C539 H532 0.950 . S
C539 C536 1.387 . S
C540 C541 1.387 . S
C540 H544 0.950 . S
C540 C549 1.390 . S
C541 C540 1.387 . S
C541 C543 1.387 . S
H542 C549 0.950 . S
C543 C541 1.387 . S
C543 C545 1.390 . S
C543 H547 0.950 . S
H544 C540 0.950 . S
C545 C543 1.390 . S
C545 C546 1.387 . S
C545 H548 0.950 . S
C546 C545 1.387 . S
C546 C549 1.387 . S
H547 C543 0.950 . S
H548 C545 0.950 . S
C549 C540 1.390 . S
C549 H542 0.950 . S
C549 C546 1.387 . S
C550 C551 1.387 . S
C550 H554 0.950 . S
C550 C559 1.390 . S
C551 C550 1.387 . S
C551 C553 1.387 . S
H552 C559 0.950 . S
C553 C551 1.387 . S
C553 C555 1.390 . S
C553 H557 0.950 . S
H554 C550 0.950 . S
C555 C553 1.390 . S
C555 C556 1.387 . S
C555 H558 0.950 . S
C556 C555 1.387 . S
C556 C559 1.387 . S
H557 C553 0.950 . S
H558 C555 0.950 . S
C559 C550 1.390 . S
C559 H552 0.950 . S
C559 C556 1.387 . S
C560 C561 1.387 . S
C560 H564 0.950 . S
C560 C569 1.390 . S
C561 C560 1.387 . S
C561 C563 1.387 . S
H562 C569 0.950 . S
C563 C561 1.387 . S
C563 C565 1.390 . S
C563 H567 0.950 . S
H564 C560 0.950 . S
C565 C563 1.390 . S
C565 C566 1.387 . S
C565 H568 0.950 . S
C566 C565 1.387 . S
C566 C569 1.387 . S
H567 C563 0.950 . S
H568 C565 0.950 . S
C569 C560 1.390 . S
C569 H562 0.950 . S
C569 C566 1.387 . S
C570 C571 1.387 . S
C570 H574 0.950 . S
C570 C579 1.390 . S
C571 C570 1.387 . S
C571 C573 1.387 . S
H572 C579 0.950 . S
C573 C571 1.387 . S
C573 C575 1.390 . S
C573 H577 0.950 . S
H574 C570 0.950 . S
C575 C573 1.390 . S
C575 C576 1.387 . S
C575 H578 0.950 . S
C576 C575 1.387 . S
C576 C579 1.387 . S
H577 C573 0.950 . S
H578 C575 0.950 . S
C579 C570 1.390 . S
C579 H572 0.950 . S
C579 C576 1.387 . S
C580 C581 1.387 . S
C580 H584 0.950 . S
C580 C589 1.390 . S
C581 C580 1.387 . S
C581 C583 1.387 . S
H582 C589 0.950 . S
C583 C581 1.387 . S
C583 C585 1.390 . S
C583 H587 0.950 . S
H584 C580 0.950 . S
C585 C583 1.390 . S
C585 C586 1.387 . S
C585 H588 0.950 . S
C586 C585 1.387 . S
C586 C589 1.387 . S
H587 C583 0.950 . S
H588 C585 0.950 . S
C589 C580 1.390 . S
C589 H582 0.950 . S
C589 C586 1.387 . S
C590 C591 1.387 . S
C590 H594 0.950 . S
C590 C599 1.390 . S
C591 C590 1.387 . S
C591 C593 1.387 . S
H592 C599 0.950 . S
C593 C591 1.387 . S
C593 C595 1.390 . S
C593 H597 0.950 . S
H594 C590 0.950 . S
C595 C593 1.390 . S
C595 C596 1.387 . S
C595 H598 0.950 . S
C596 C595 1.387 . S
C596 C599 1.387 . S
H597 C593 0.950 . S
H598 C595 0.950 . S
C599 C590 1.390 . S
C599 H592 0.950 . S
C599 C596 1.387 . S
C600 C601 1.387 . S
C600 H604 0.950 . S
C600 C609 1.390 . S
C601 C600 1.387 . S
C601 C603 1.387 . S
H602 C609 0.950 . S
C603 C601 1.387 . S
C603 C605 1.390 . S
C603 H607 0.950 . S
H604 C600 0.950 . S
C605 C603 1.390 . S
C605 C606 1.387 . S
C605 H608 0.950 . S
C606 C605 1.387 . S
C606 C609 1.387 . S
H607 C603 0.950 . S
H608 C605 0.950 . S
C609 C600 1.390 . S
C609 H602 0.950 . S
C609 C606 1.387 . S
C610 C611 1.387 . S
C610 H614 0.950 . S
C610 C619 1.390 . S
C611 C610 1.387 . S
C611 C613 1.387 . S
H612 C619 0.950 . S
C613 C611 1.387 . S
C613 C615 1.390 . S
C613 H617 0.950 . S
H614 C610 0.950 . S
C615 C613 1.390 . S
C615 C616 1.387 . S
C615 H618 0.950 . S
C616 C615 1.387 . S
C616 C619 1.387 . S
H617 C613 0.950 . S
H618 C615 0.950 . S
C619 C610 1.390 . S
C619 H612 0.950 . S
C619 C616 1.387 . S
C620 C621 1.387 . S
C620 H624 0.950 . S
C620 C629 1.390 . S
C621 C620 1.387 . S
C621 C623 1.387 . S
H622 C629 0.950 . S
C623 C621 1.387 . S
C623 C625 1.390 . S
C623 H627 0.950 . S
H624 C620 0.950 . S
C625 C623 1.390 . S
C625 C626 1.387 . S
C625 H628 0.950 . S
C626 C625 1.387 . S
C626 C629 1.387 . S
H627 C623 0.950 . S
H628 C625 0.950 . S
C629 C620 1.390 . S
C629 H622 0.950 . S
C629 C626 1.387 . S
C630 C631 1.387 . S
C630 H634 0.950 . S
C630 C639 1.390 . S
C631 C630 1.387 . S
C631 C633 1.387 . S
H632 C639 0.950 . S
C633 C631 1.387 . S
C633 C635 1.390 . S
C633 H637 0.950 . S
H634 C630 0.950 . S
C635 C633 1.390 . S
C635 C636 1.387 . S
C635 H638 0.950 . S
C636 C635 1.387 . S
C636 C639 1.387 . S
H637 C633 0.950 . S
H638 C635 0.950 . S
C639 C630 1.390 . S
C639 H632 0.950 . S
C639 C636 1.387 . S
C640 C641 1.387 . S
C640 H644 0.950 . S
C640 C649 1.390 . S
C641 C640 1.387 . S
C641 C643 1.387 . S
H642 C649 0.950 . S
C643 C641 1.387 . S
C643 C645 1.390 . S
C643 H647 0.950 . S
H644 C640 0.950 . S
C645 C643 1.390 . S
C645 C646 1.387 . S
C645 H648 0.950 . S
C646 C645 1.387 . S
C646 C649 1.387 . S
H647 C643 0.950 . S
H648 C645 0.950 . S
C649 C640 1.390 . S
C649 H642 0.950 . S
C649 C646 1.387 . S
C650 C651 1.387 . S
C650 H654 0.950 . S
C650 C659 1.390 . S
C651 C650 1.387 . S
C651 C653 1.387 . S
H652 C659 0.950 . S
C653 C651 1.387 . S
C653 C655 1.390 . S
C653 H657 0.950 . S
H654 C650 0.950 . S
C655 C653 1.390 . S
C655 C656 1.387 . S
C655 H658 0.950 . S
C656 C655 1.387 . S
C656 C659 1.387 . S
H657 C653 0.950 . S
H658 C655 0.950 . S
C659 C650 1.390 . S
C659 H652 0.950 . S
C659 C656 1.387 . S
C660 C661 1.387 . S
C660 H664 0.950 . S
C660 C669 1.390 . S
C661 C660 1.387 . S
C661 C663 1.387 . S
H662 C669 0.950 . S
C663 C661 1.387 . S
C663 C665 1.390 . S
C663 H667 0.950 . S
H664 C660 0.950 . S
C665 C663 1.390 . S
C665 C666 1.387 . S
C665 H668 0.950 . S
C666 C665 1.387 . S
C666 C669 1.387 . S
H667 C663 0.950 . S
H668 C665 0.950 . S
C669 C660 1.390 . S
C669 H662 0.950 . S
C669 C666 1.387 . S
C670 C671 1.387 . S
C670 H674 0.950 . S
C670 C679 1.390 . S
C671 C670 1.387 . S
C671 C673 1.387 . S
H672 C679 0.950 . S
C673 C671 1.387 . S
C673 C675 1.390 . S
C673 H677 0.950 . S
H674 C670 0.950 . S
C675 C673 1.390 . S
C675 C676 1.387 . S
C675 H678 0.950 . S
C676 C675 1.387 . S
C676 C679 1.387 . S
H677 C673 0.950 . S
H678 C675 0.950 . S
C679 C670 1.390 . S
C679 H672 0.950 . S
C679 C676 1.387 . S
C680 C681 1.387 . S
C680 H684 0.950 . S
C680 C689 1.390 . S
C681 C680 1.387 . S
C681 C683 1.387 . S
H682 C689 0.950 . S
C683 C681 1.387 . S
C683 C685 1.390 . S
C683 H687 0.950 . S
H684 C680 0.950 . S
C685 C683 1.390 . S
C685 C686 1.387 . S
C685 H688 0.950 . S
C686 C685 1.387 . S
C686 C689 1.387 . S
H687 C683 0.950 . S
H688 C685 0.950 . S
C689 C680 1.390 . S
C689 H682 0.950 . S
C689 C686 1.387 . S
C690 C691 1.387 . S
C690 H694 0.950 . S
C690 C699 1.390 . S
C691 C690 1.387 . S
C691 C693 1.387 . S
H692 C699 0.950 . S
C693 C691 1.387 . S
C693 C695 1.390 . S
C693 H697 0.950 . S
H694 C690 0.950 . S
C695 C693 1.390 . S
C695 C696 1.387 . S
C695 H698 0.950 . S
C696 C695 1.387 . S
C696 C699 1.387 . S
H697 C693 0.950 . S
H698 C695 0.950 . S
C699 C690 1.390 . S
C699 H692 0.950 . S
C699 C696 1.387 . S
C700 C701 1.387 . S
C700 H704 0.950 . S
C700 C709 1.390 . S
C701 C700 1.387 . S
C701 C703 1.387 . S
H702 C709 0.950 . S
C703 C701 1.387 . S
C703 C705 1.390 . S
C703 H707 0.950 . S
H704 C700 0.950 . S
C705 C703 1.390 . S
C705 C706 1.387 . S
C705 H708 0.950 . S
C706 C705 1.387 . S
C706 C709 1.387 . S
H707 C703 0.950 . S
H708 C705 0.950 . S
C709 C700 1.390 . S
C709 H702 0.950 . S
C709 C706 1.387 . S
C710 C711 1.387 . S
C710 H714 0.950 . S
C710 C719 1.390 . S
C711 C710 1.387 . S
C711 C713 1.387 . S
H712 C719 0.950 . S
C713 C711 1.387 . S
C713 C715 1.390 . S
C713 H717 0.950 . S
H714 C710 0.950 . S
C715 C713 1.390 . S
C715 C716 1.387 . S
C715 H718 0.950 . S
C716 C715 1.387 . S
C716 C719 1.387 . S
H717 C713 0.950 . S
H718 C715 0.950 . S
C719 C710 1.390 . S
C719 H712 0.950 . S
C719 C716 1.387 . S
C720 C721 1.387 . S
C720 H724 0.950 . S
C720 C729 1.390 . S
C721 C720 1.387 . S
C721 C723 1.387 . S
H722 C729 0.950 . S
C723 C721 1.387 . S
C723 C725 1.390 . S
C723 H727 0.950 . S
H724 C720 0.950 . S
C725 C723 1.390 . S
C725 C726 1.387 . S
C725 H728 0.950 . S
C726 C725 1.387 . S
C726 C729 1.387 . S
H727 C723 0.950 . S
H728 C725 0.950 . S
C729 C720 1.390 . S
C729 H722 0.950 . S
C729 C726 1.387 . S
C730 C731 1.387 . S
C730 H734 0.950 . S
C730 C739 1.390 . S
C731 C730 1.387 . S
C731 C733 1.387 . S
H732 C739 0.952 . S
C733 C731 1.387 . S
C733 C735 1.390 . S
C733 H737 0.950 . S
H734 C730 0.950 . S
C735 C733 1.390 . S
C735 C736 1.387 . S
C735 H738 0.950 . S
C736 C735 1.387 . S
C736 C739 1.387 . S
H737 C733 0.950 . S
H738 C735 0.950 . S
C739 C730 1.390 . S
C739 H732 0.952 . S
C739 C736 1.387 . S
C740 C741 1.387 . S
C740 H744 0.950 . S
C740 C749 1.390 . S
C741 C740 1.387 . S
C741 C743 1.387 . S
H742 C749 0.950 . S
C743 C741 1.387 . S
C743 C745 1.390 . S
C743 H747 0.950 . S
H744 C740 0.950 . S
C745 C743 1.390 . S
C745 C746 1.387 . S
C745 H748 0.950 . S
C746 C745 1.387 . S
C746 C749 1.387 . S
H747 C743 0.950 . S
H748 C745 0.950 . S
C749 C740 1.390 . S
C749 H742 0.950 . S
C749 C746 1.387 . S
C750 C751 1.387 . S
C750 H754 0.950 . S
C750 C759 1.390 . S
C751 C750 1.387 . S
C751 C753 1.387 . S
H752 C759 0.950 . S
C753 C751 1.387 . S
C753 C755 1.390 . S
C753 H757 0.950 . S
H754 C750 0.950 . S
C755 C753 1.390 . S
C755 C756 1.387 . S
C755 H758 0.950 . S
C756 C755 1.387 . S
C756 C759 1.387 . S
H757 C753 0.950 . S
H758 C755 0.950 . S
C759 C750 1.390 . S
C759 H752 0.950 . S
C759 C756 1.387 . S
C760 C761 1.387 . S
C760 H764 0.950 . S
C760 C769 1.390 . S
C761 C760 1.387 . S
C761 C763 1.387 . S
H762 C769 0.950 . S
C763 C761 1.387 . S
C763 C765 1.390 . S
C763 H767 0.950 . S
H764 C760 0.950 . S
C765 C763 1.390 . S
C765 C766 1.387 1_554 S
C765 H768 0.950 . S
C766 C765 1.387 1_556 S
C766 C769 1.387 1_556 S
H767 C763 0.950 . S
H768 C765 0.950 . S
C769 C760 1.390 . S
C769 H762 0.950 . S
C769 C766 1.387 1_554 S
C770 C771 1.386 1_556 S
C770 H774 0.950 . S
C770 C779 1.390 . S
C771 C770 1.386 1_554 S
C771 C773 1.387 1_554 S
H772 C779 0.950 . S
C773 C771 1.387 1_556 S
C773 C775 1.390 . S
C773 H777 0.950 1_556 S
H774 C770 0.950 . S
C775 C773 1.390 . S
C775 C776 1.387 . S
C775 H778 0.950 . S
C776 C775 1.387 . S
C776 C779 1.387 . S
H777 C773 0.950 1_554 S
H778 C775 0.950 . S
C779 C770 1.390 . S
C779 H772 0.950 . S
C779 C776 1.387 . S
C780 C781 1.386 1_554 S
C780 H784 0.950 1_554 S
C780 C789 1.390 . S
C781 C780 1.386 1_556 S
C781 C783 1.385 1_556 S
H782 C789 0.950 . S
C783 C781 1.385 1_554 S
C783 C785 1.390 . S
C783 H787 0.950 . S
H784 C780 0.950 1_556 S
C785 C783 1.390 . S
C785 C786 1.387 . S
C785 H788 0.950 . S
C786 C785 1.387 . S
C786 C789 1.387 . S
H787 C783 0.950 . S
H788 C785 0.950 . S
C789 C780 1.390 . S
C789 H782 0.950 . S
C789 C786 1.387 . S
C790 C791 1.387 . S
C790 H794 0.950 . S
C790 C799 1.390 . S
C791 C790 1.387 . S
C791 C793 1.387 . S
H792 C799 0.950 . S
C793 C791 1.387 . S
C793 C795 1.390 . S
C793 H797 0.950 . S
H794 C790 0.950 . S
C795 C793 1.390 . S
C795 C796 1.387 1_556 S
C795 H798 0.950 1_556 S
C796 C795 1.387 1_554 S
C796 C799 1.386 1_554 S
H797 C793 0.950 . S
H798 C795 0.950 1_554 S
C799 C790 1.390 . S
C799 H792 0.950 . S
C799 C796 1.386 1_556 S
C321 C226 1.530 . S
C326 C9 1.626 . S
C331 C176 1.531 . S
C336 C21 1.627 . S
C341 C49 1.625 . S
C346 C186 1.528 . S
C351 C61 1.626 . S
C356 C216 1.529 . S
C361 C89 1.627 . S
C366 C106 1.531 . S
C371 C136 1.529 . S
C376 C101 1.626 . S
C381 C129 1.626 . S
C386 C146 1.530 . S
C391 C96 1.529 . S
C396 C141 1.626 . S
C401 C66 1.530 . S
C406 C169 1.626 . S
C411 C181 1.627 . S
C416 C16 1.530 . S
C421 C26 1.530 . S
C426 C209 1.626 . S
C431 C56 1.531 . S
C436 C221 1.627 . S
C441 C249 1.626 . S
C446 C266 1.530 . S
C451 C296 1.530 . S
C456 C261 1.626 . S
C461 C306 1.530 . S
C466 C289 1.626 . S
C471 C301 1.627 . S
C476 C256 1.530 . S
C481 C1 1.602 . S
C486 C81 1.602 . S
C491 C109 1.605 . S
C496 C29 1.605 . S
C501 C41 1.605 . S
C506 C121 1.605 . S
C511 C69 1.602 . S
C516 C149 1.602 . S
C521 C161 1.602 . S
C526 C241 1.602 . S
C531 C269 1.602 . S
C536 C189 1.602 . S
C541 C201 1.602 . S
C546 C281 1.602 . S
C551 C229 1.602 . S
C556 C309 1.602 . S
C561 C286 1.469 . S
C566 C6 1.469 . S
C571 C36 1.466 . S
C576 C316 1.466 . S
C581 C46 1.466 . S
C586 C246 1.466 . S
C591 C76 1.466 . S
C596 C276 1.466 . S
C601 C86 1.466 . S
C606 C206 1.466 . S
C611 C116 1.469 . S
C616 C236 1.469 . S
C621 C126 1.466 . S
C626 C166 1.466 . S
C631 C196 1.466 . S
C636 C156 1.466 . S
C641 C8 1.767 . S
C646 C19 1.767 . S
C651 C39 1.767 . S
C656 C28 1.767 . S
C661 C48 1.771 . S
C666 C59 1.771 . S
C671 C68 1.770 . S
C676 C79 1.770 . S
C681 C99 1.767 . S
C686 C88 1.767 . S
C691 C119 1.770 . S
C696 C108 1.770 . S
C701 C128 1.767 . S
C706 C139 1.767 . S
C711 C148 1.771 . S
C716 C159 1.771 . S
C721 C168 1.767 1_554 S
C726 C179 1.767 . S
C731 C188 1.770 . S
C736 C199 1.770 1_556 S
C741 C219 1.771 . S
C746 C208 1.771 1_554 S
C751 C239 1.767 1_556 S
C756 C228 1.767 . S
C761 C248 1.771 . S
C766 C259 1.772 . S
C771 C268 1.772 . S
C776 C279 1.770 . S
C781 C299 1.771 . S
C786 C288 1.768 . S
C791 C319 1.770 . S
C796 C308 1.772 . S
