# Generated by pormake.
# Topology ukh, (4)-cn, num edge types: 1
# Building blocks:
#     Node 0, Type 0, BuildingBlock: GALJAG_clean_sbu_0, # of connection points: 4
#     Node 1, Type 0, BuildingBlock: GALJAG_clean_sbu_0, # of connection points: 4
#     Node 2, Type 0, BuildingBlock: GALJAG_clean_sbu_0, # of connection points: 4
#     Node 3, Type 0, BuildingBlock: GALJAG_clean_sbu_0, # of connection points: 4
#     Node 4, Type 0, BuildingBlock: GALJAG_clean_sbu_0, # of connection points: 4
#     Node 5, Type 0, BuildingBlock: GALJAG_clean_sbu_0, # of connection points: 4
#     Node 6, Type 0, BuildingBlock: GALJAG_clean_sbu_0, # of connection points: 4
#     Node 7, Type 0, BuildingBlock: GALJAG_clean_sbu_0, # of connection points: 4
#     Node 8, Type 0, BuildingBlock: GALJAG_clean_sbu_0, # of connection points: 4
#     Node 9, Type 0, BuildingBlock: GALJAG_clean_sbu_0, # of connection points: 4
#     Node 10, Type 0, BuildingBlock: GALJAG_clean_sbu_0, # of connection points: 4
#     Node 11, Type 0, BuildingBlock: GALJAG_clean_sbu_0, # of connection points: 4
#     Edge 12, Type (0, 0), BuildingBlock: EZIPEK_clean_linker_0, # of connection points: 2
#     Edge 13, Type (0, 0), BuildingBlock: EZIPEK_clean_linker_0, # of connection points: 2
#     Edge 14, Type (0, 0), BuildingBlock: EZIPEK_clean_linker_0, # of connection points: 2
#     Edge 15, Type (0, 0), BuildingBlock: EZIPEK_clean_linker_0, # of connection points: 2
#     Edge 16, Type (0, 0), BuildingBlock: EZIPEK_clean_linker_0, # of connection points: 2
#     Edge 17, Type (0, 0), BuildingBlock: EZIPEK_clean_linker_0, # of connection points: 2
#     Edge 18, Type (0, 0), BuildingBlock: EZIPEK_clean_linker_0, # of connection points: 2
#     Edge 19, Type (0, 0), BuildingBlock: EZIPEK_clean_linker_0, # of connection points: 2
#     Edge 20, Type (0, 0), BuildingBlock: EZIPEK_clean_linker_0, # of connection points: 2
#     Edge 21, Type (0, 0), BuildingBlock: EZIPEK_clean_linker_0, # of connection points: 2
#     Edge 22, Type (0, 0), BuildingBlock: EZIPEK_clean_linker_0, # of connection points: 2
#     Edge 23, Type (0, 0), BuildingBlock: EZIPEK_clean_linker_0, # of connection points: 2
#     Edge 24, Type (0, 0), BuildingBlock: EZIPEK_clean_linker_0, # of connection points: 2
#     Edge 25, Type (0, 0), BuildingBlock: EZIPEK_clean_linker_0, # of connection points: 2
#     Edge 26, Type (0, 0), BuildingBlock: EZIPEK_clean_linker_0, # of connection points: 2
#     Edge 27, Type (0, 0), BuildingBlock: EZIPEK_clean_linker_0, # of connection points: 2
#     Edge 28, Type (0, 0), BuildingBlock: EZIPEK_clean_linker_0, # of connection points: 2
#     Edge 29, Type (0, 0), BuildingBlock: EZIPEK_clean_linker_0, # of connection points: 2
#     Edge 30, Type (0, 0), BuildingBlock: EZIPEK_clean_linker_0, # of connection points: 2
#     Edge 31, Type (0, 0), BuildingBlock: EZIPEK_clean_linker_0, # of connection points: 2
#     Edge 32, Type (0, 0), BuildingBlock: EZIPEK_clean_linker_0, # of connection points: 2
#     Edge 33, Type (0, 0), BuildingBlock: EZIPEK_clean_linker_0, # of connection points: 2
#     Edge 34, Type (0, 0), BuildingBlock: EZIPEK_clean_linker_0, # of connection points: 2
#     Edge 35, Type (0, 0), BuildingBlock: EZIPEK_clean_linker_0, # of connection points: 2
# Relax obj value: 0.072
# Max RMSD: 0.081
# Mean RMSD: 0.081
data_MOF--net-ukh--node1-GALJAG_clean_sbu_0--edge1-EZIPEK_clean_linker_0
_symmetry_space_group_name_H-M    P1
_symmetry_Int_Tables_number       1
_symmetry_cell_setting            triclinic
loop_
_symmetry_equiv_pos_as_xyz
'x, y, z'
_cell_length_a     23.003105
_cell_length_b     23.006173
_cell_length_c     49.629649
_cell_angle_alpha  90.025196
_cell_angle_beta   89.985349
_cell_angle_gamma 120.00402
loop_
_atom_site_label
_atom_site_type_symbol
_atom_site_fract_x
_atom_site_fract_y
_atom_site_fract_z
_atom_type_partial_charge
In0 In 0.29736 0.22035 0.06248 0.0
O1 O 0.40058 0.30615 0.04932 0.0
O2 O 0.33481 0.32995 0.07088 0.0
C3 C 0.28015 0.10828 0.03763 0.0
C4 C 0.31125 0.19604 0.11417 0.0
C5 C 0.19287 0.22212 0.03927 0.0
O6 O 0.31891 0.1661 0.02815 0.0
O7 O 0.25523 0.10807 0.06026 0.0
O8 O 0.1965 0.21759 0.06452 0.0
O9 O 0.24168 0.22634 0.02613 0.0
C10 C 0.3906 0.35107 0.05934 0.0
O11 O 0.25625 0.18682 0.10467 0.0
O12 O 0.35936 0.2177 0.09755 0.0
In13 In 0.11094 0.32034 0.38892 0.0
O14 O 0.08378 0.27364 0.4308 0.0
O15 O 0.17775 0.36367 0.42599 0.0
C16 C 0.01193 0.22166 0.35983 0.0
C17 C 0.07002 0.41129 0.38996 0.0
C18 C 0.21286 0.31951 0.36239 0.0
O19 O 0.03418 0.21048 0.38128 0.0
O20 O 0.03902 0.28268 0.3533 0.0
O21 O 0.20442 0.36977 0.36147 0.0
O22 O 0.17236 0.2725 0.37738 0.0
C23 C 0.13731 0.3181 0.44165 0.0
O24 O 0.12392 0.42318 0.37835 0.0
O25 O 0.03807 0.35468 0.40121 0.0
In26 In 0.78454 0.09983 0.72315 0.0
O27 O 0.6943 0.11134 0.71171 0.0
O28 O 0.67764 0.02766 0.73595 0.0
C29 C 0.8866 0.20035 0.69584 0.0
C30 C 0.81298 0.1275 0.77581 0.0
C31 C 0.78339 0.99983 0.69463 0.0
O32 O 0.82831 0.19309 0.69562 0.0
O33 O 0.89318 0.15956 0.71061 0.0
O34 O 0.8182 0.02346 0.71569 0.0
O35 O 0.74854 0.02601 0.68827 0.0
C36 C 0.65263 0.05835 0.72394 0.0
O37 O 0.80407 0.07378 0.76521 0.0
O38 O 0.80815 0.16769 0.7599 0.0
In39 In 0.66431 0.76943 0.05616 0.0
O40 O 0.7125 0.79278 0.09778 0.0
O41 O 0.62136 0.79468 0.0929 0.0
C42 C 0.75887 0.76442 0.02639 0.0
C43 C 0.57299 0.63765 0.05738 0.0
C44 C 0.66906 0.87384 0.02962 0.0
O45 O 0.771 0.79 0.04967 0.0
O46 O 0.69944 0.74109 0.01822 0.0
O47 O 0.61687 0.81639 0.02939 0.0
O48 O 0.71626 0.87868 0.04409 0.0
C49 C 0.66787 0.80182 0.10849 0.0
O50 O 0.56112 0.67968 0.04585 0.0
O51 O 0.62955 0.66221 0.06863 0.0
In52 In 0.92168 0.68218 0.394 0.0
O53 O 0.93533 0.7178 0.43738 0.0
O54 O 0.84403 0.62892 0.42713 0.0
C55 C 0.02824 0.78523 0.37038 0.0
C56 C 0.96117 0.59009 0.39275 0.0
C57 C 0.83021 0.69755 0.3657 0.0
O58 O 0.00925 0.79002 0.39374 0.0
O59 O 0.99507 0.7284 0.35943 0.0
O60 O 0.83564 0.64578 0.36298 0.0
O61 O 0.86896 0.73919 0.38287 0.0
C62 C 0.87903 0.67082 0.4451 0.0
O63 O 0.91016 0.58202 0.37985 0.0
O64 O 0.99059 0.64313 0.40654 0.0
In65 In 0.23479 0.91609 0.72768 0.0
O66 O 0.32101 0.89885 0.71476 0.0
O67 O 0.34369 0.98439 0.73883 0.0
C68 C 0.12587 0.82542 0.70007 0.0
C69 C 0.20225 0.87836 0.77935 0.0
C70 C 0.2395 0.02156 0.70264 0.0
O71 O 0.18179 0.82763 0.69781 0.0
O72 O 0.12524 0.86687 0.7165 0.0
O73 O 0.21955 0.00669 0.7267 0.0
O74 O 0.25903 0.98487 0.69167 0.0
C75 C 0.36542 0.95148 0.72635 0.0
O76 O 0.21985 0.93671 0.77108 0.0
O77 O 0.20168 0.83877 0.76157 0.0
In78 In 0.77593 0.67969 0.60764 0.0
O79 O 0.79396 0.71671 0.56445 0.0
O80 O 0.7949 0.62606 0.57328 0.0
C81 C 0.77479 0.78375 0.63171 0.0
C82 C 0.64617 0.58386 0.60833 0.0
C83 C 0.88637 0.69913 0.63457 0.0
O84 O 0.8031 0.78982 0.60924 0.0
O85 O 0.74504 0.72509 0.64115 0.0
O86 O 0.82802 0.66065 0.64367 0.0
O87 O 0.88777 0.72194 0.6114 0.0
C88 C 0.80126 0.66898 0.55584 0.0
O89 O 0.69085 0.57472 0.61922 0.0
O90 O 0.66731 0.63989 0.59696 0.0
In91 In 0.07609 0.76604 0.941 0.0
O92 O 0.09072 0.67844 0.95407 0.0
O93 O 0.00868 0.65825 0.92821 0.0
C94 C 0.16395 0.87136 0.97098 0.0
C95 C 0.11943 0.8004 0.88998 0.0
C96 C 0.96796 0.76078 0.96389 0.0
O97 O 0.16016 0.81469 0.97294 0.0
O98 O 0.12558 0.87454 0.95368 0.0
O99 O 0.98847 0.78613 0.94085 0.0
O100 O 0.00049 0.73645 0.97487 0.0
C101 C 0.03957 0.63524 0.94132 0.0
O102 O 0.06023 0.78249 0.8972 0.0
O103 O 0.15722 0.80083 0.90854 0.0
In104 In 0.32996 0.0946 0.27663 0.0
O105 O 0.43023 0.10002 0.28587 0.0
O106 O 0.35508 0.01431 0.26493 0.0
C107 C 0.32848 0.19695 0.30232 0.0
C108 C 0.32995 0.12956 0.22494 0.0
C109 C 0.23483 0.99797 0.30705 0.0
O110 O 0.38023 0.19081 0.30243 0.0
O111 O 0.27988 0.15336 0.28877 0.0
O112 O 0.22395 0.00728 0.2829 0.0
O113 O 0.29317 0.03708 0.3158 0.0
C114 C 0.413 0.04365 0.27518 0.0
O115 O 0.28045 0.07912 0.23547 0.0
O116 O 0.37976 0.16203 0.24026 0.0
In117 In 0.22603 0.31854 0.60737 0.0
O118 O 0.20041 0.26935 0.5659 0.0
O119 O 0.20586 0.36421 0.57023 0.0
C120 C 0.2298 0.22418 0.63767 0.0
C121 C 0.35875 0.40686 0.60737 0.0
C122 C 0.12077 0.31558 0.63256 0.0
O123 O 0.21142 0.21384 0.6133 0.0
O124 O 0.24589 0.28152 0.64669 0.0
O125 O 0.17807 0.36799 0.63229 0.0
O126 O 0.11641 0.26693 0.61919 0.0
C127 C 0.19591 0.31635 0.55486 0.0
O128 O 0.3174 0.41961 0.61897 0.0
O129 O 0.3331 0.35117 0.5954 0.0
In130 In 0.88979 0.216 0.94209 0.0
O131 O 0.91804 0.19275 0.90109 0.0
O132 O 0.82622 0.19412 0.90418 0.0
C133 C 0.98514 0.2204 0.97429 0.0
C134 C 0.93109 0.34794 0.94156 0.0
C135 C 0.78798 0.10928 0.96658 0.0
O136 O 0.97935 0.20177 0.95001 0.0
O137 O 0.94368 0.23737 0.98221 0.0
O138 O 0.7919 0.16616 0.96662 0.0
O139 O 0.83277 0.10602 0.95314 0.0
C140 C 0.86646 0.18634 0.88937 0.0
O141 O 0.8755 0.30552 0.95187 0.0
O142 O 0.96435 0.32373 0.93119 0.0
In143 In 0.69187 0.90731 0.27314 0.0
O144 O 0.72757 0.92902 0.22971 0.0
O145 O 0.63899 0.83554 0.23841 0.0
C146 C 0.797 0.01314 0.29672 0.0
C147 C 0.59304 0.93684 0.27524 0.0
C148 C 0.70968 0.81502 0.29979 0.0
O149 O 0.80308 0.98853 0.27487 0.0
O150 O 0.73801 0.98632 0.30572 0.0
O151 O 0.67402 0.8376 0.30943 0.0
O152 O 0.73078 0.83469 0.27628 0.0
C153 C 0.68065 0.87369 0.22093 0.0
O154 O 0.58696 0.88445 0.28631 0.0
O155 O 0.64752 0.97259 0.26293 0.0
C156 C 0.50554 0.52807 0.03291 0.0
C157 C 0.52513 0.56445 0.05752 0.0
C158 C 0.46559 0.45921 0.08289 0.0
C159 C 0.44042 0.42364 0.05836 0.0
N160 N 0.42726 0.42481 0.01018 0.0
N161 N 0.51479 0.56646 0.10582 0.0
C162 C 0.45799 0.45815 0.03337 0.0
C163 C 0.50279 0.53048 0.08251 0.0
N164 N 0.53439 0.55961 0.00921 0.0
N165 N 0.4556 0.4247 0.10647 0.0
H166 H 0.54029 0.6188 0.10626 0.0
H167 H 0.49399 0.54474 0.12434 0.0
H168 H 0.42932 0.37238 0.10748 0.0
H169 H 0.47862 0.44752 0.12456 0.0
H170 H 0.52765 0.53415 0.99109 0.0
H171 H 0.56978 0.6106 0.00799 0.0
H172 H 0.43221 0.44893 0.99186 0.0
H173 H 0.39238 0.37358 0.00964 0.0
C174 C 0.03019 0.47883 0.41538 0.0
C175 C 0.04471 0.45926 0.39031 0.0
C176 C 0.00767 0.52867 0.36662 0.0
C177 C 0.98653 0.54226 0.39154 0.0
N178 N 0.96581 0.51988 0.43909 0.0
N179 N 0.03592 0.45552 0.34177 0.0
C180 C 0.99448 0.51441 0.4158 0.0
C181 C 0.03048 0.48149 0.3658 0.0
N182 N 0.05286 0.46576 0.43879 0.0
N183 N 0.00876 0.56283 0.34391 0.0
H184 H 0.0517 0.42032 0.34023 0.0
H185 H 0.01904 0.46431 0.32358 0.0
H186 H 0.99318 0.5983 0.34363 0.0
H187 H 0.03077 0.56043 0.32591 0.0
H188 H 0.04945 0.48452 0.45746 0.0
H189 H 0.08142 0.44205 0.4392 0.0
H190 H 0.96427 0.49493 0.45682 0.0
H191 H 0.93749 0.54381 0.43998 0.0
C192 C 0.47434 0.98661 0.74971 0.0
C193 C 0.43821 0.97486 0.72526 0.0
C194 C 0.54253 0.0144 0.69962 0.0
C195 C 0.57932 0.0326 0.72413 0.0
N196 N 0.5818 0.0478 0.77228 0.0
N197 N 0.43907 0.98874 0.677 0.0
C198 C 0.54563 0.02185 0.74915 0.0
C199 C 0.47252 0.99159 0.70018 0.0
N200 N 0.44045 0.96224 0.77342 0.0
N201 N 0.57375 0.01629 0.67593 0.0
H202 H 0.38797 0.97288 0.67647 0.0
H203 H 0.46315 0.00765 0.65864 0.0
H204 H 0.62481 0.03225 0.67462 0.0
H205 H 0.54794 0.99647 0.65796 0.0
H206 H 0.46395 0.96319 0.79149 0.0
H207 H 0.38817 0.93504 0.77457 0.0
H208 H 0.56004 0.04736 0.79074 0.0
H209 H 0.63411 0.07592 0.77253 0.0
C210 C 0.53769 0.51421 0.63331 0.0
C211 C 0.57364 0.53356 0.60863 0.0
C212 C 0.46796 0.47611 0.58343 0.0
C213 C 0.43234 0.45252 0.60803 0.0
N214 N 0.43399 0.43754 0.65611 0.0
N215 N 0.57487 0.52145 0.56043 0.0
C216 C 0.46735 0.4683 0.63294 0.0
C217 C 0.53925 0.51108 0.58373 0.0
N218 N 0.57001 0.54188 0.65702 0.0
N219 N 0.43368 0.46743 0.55988 0.0
H220 H 0.62717 0.54514 0.56007 0.0
H221 H 0.5527 0.50069 0.54197 0.0
H222 H 0.38143 0.44356 0.55895 0.0
H223 H 0.45697 0.48945 0.54172 0.0
H224 H 0.54497 0.53567 0.67521 0.0
H225 H 0.62146 0.5755 0.65823 0.0
H226 H 0.45822 0.44129 0.6743 0.0
H227 H 0.38257 0.40345 0.65672 0.0
C228 C 0.97251 0.45659 0.91705 0.0
C229 C 0.95698 0.4212 0.94182 0.0
C230 C 0.99415 0.52633 0.96655 0.0
C231 C 0.01543 0.56231 0.94191 0.0
N232 N 0.0362 0.56343 0.89423 0.0
N233 N 0.96436 0.42322 0.99037 0.0
C234 C 0.00782 0.52789 0.91728 0.0
C235 C 0.97083 0.45623 0.96667 0.0
N236 N 0.95118 0.422 0.89332 0.0
N237 N 0.99326 0.55832 0.98964 0.0
H238 H 0.94777 0.372 0.99138 0.0
H239 H 0.98099 0.44767 0.00881 0.0
H240 H 0.00948 0.60948 0.99046 0.0
H241 H 0.97105 0.5331 0.00747 0.0
H242 H 0.95504 0.44493 0.8748 0.0
H243 H 0.92356 0.36972 0.89241 0.0
H244 H 0.03839 0.54127 0.87624 0.0
H245 H 0.06337 0.61576 0.89371 0.0
C246 C 0.48064 0.003 0.30046 0.0
C247 C 0.45603 0.01237 0.27554 0.0
C248 C 0.50886 0.95688 0.25187 0.0
C249 C 0.54065 0.95609 0.27616 0.0
N250 N 0.56323 0.98448 0.32323 0.0
N251 N 0.45156 0.00368 0.22697 0.0
C252 C 0.52803 0.98042 0.30043 0.0
C253 C 0.47094 0.99022 0.25109 0.0
N254 N 0.45651 0.01272 0.32419 0.0
N255 N 0.51382 0.9244 0.22965 0.0
H256 H 0.42323 0.02729 0.22544 0.0
H257 H 0.46789 0.99628 0.20839 0.0
H258 H 0.54093 0.89912 0.22963 0.0
H259 H 0.48621 0.91701 0.21209 0.0
H260 H 0.46733 0.99998 0.34291 0.0
H261 H 0.42025 0.02723 0.32512 0.0
H262 H 0.56222 0.00931 0.34062 0.0
H263 H 0.59737 0.96723 0.32418 0.0
C264 C 0.2931 0.18414 0.19054 0.0
C265 C 0.32865 0.15033 0.19687 0.0
C266 C 0.34891 0.14259 0.14899 0.0
C267 C 0.31839 0.18143 0.14268 0.0
N268 N 0.27604 0.25289 0.15814 0.0
N269 N 0.4045 0.11241 0.18295 0.0
C270 C 0.29433 0.20599 0.16364 0.0
C271 C 0.36121 0.13449 0.17635 0.0
N272 N 0.25815 0.19538 0.21016 0.0
N273 N 0.36266 0.1101 0.12908 0.0
H274 H 0.41562 0.10744 0.20284 0.0
H275 H 0.43448 0.10608 0.16886 0.0
H276 H 0.3512 0.11144 0.10886 0.0
H277 H 0.3787 0.07585 0.13299 0.0
H278 H 0.22524 0.213 0.20612 0.0
H279 H 0.25845 0.18271 0.23032 0.0
H280 H 0.26438 0.27734 0.17302 0.0
H281 H 0.27939 0.27279 0.13896 0.0
C282 C 0.20958 0.31372 0.47852 0.0
C283 C 0.15179 0.31667 0.47064 0.0
C284 C 0.11922 0.31145 0.518 0.0
C285 C 0.1804 0.31556 0.52589 0.0
N286 N 0.28875 0.33048 0.51406 0.0
N287 N 0.05671 0.32879 0.48274 0.0
C288 C 0.22699 0.31935 0.50626 0.0
C289 C 0.10785 0.31826 0.49034 0.0
N290 N 0.24614 0.3025 0.45962 0.0
N291 N 0.07082 0.29832 0.53684 0.0
H292 H 0.04657 0.33402 0.46269 0.0
H293 H 0.0279 0.33809 0.49637 0.0
H294 H 0.077 0.2916 0.55719 0.0
H295 H 0.02244 0.28776 0.53202 0.0
H296 H 0.28458 0.29287 0.46443 0.0
H297 H 0.23398 0.29639 0.43919 0.0
H298 H 0.32762 0.34147 0.50058 0.0
H299 H 0.30319 0.33425 0.53419 0.0
C300 C 0.8878 0.1996 0.81315 0.0
C301 C 0.82737 0.14199 0.80488 0.0
C302 C 0.79716 0.10954 0.85208 0.0
C303 C 0.85388 0.17063 0.86031 0.0
N304 N 0.94837 0.27873 0.84895 0.0
N305 N 0.71916 0.0474 0.81623 0.0
C306 C 0.89804 0.21704 0.84092 0.0
C307 C 0.78056 0.09824 0.82427 0.0
N308 N 0.93663 0.23604 0.79461 0.0
N309 N 0.76069 0.06113 0.87075 0.0
H310 H 0.70485 0.03734 0.79607 0.0
H311 H 0.6802 0.01884 0.82957 0.0
H312 H 0.77241 0.06713 0.89122 0.0
H313 H 0.72307 0.01282 0.86572 0.0
H314 H 0.98454 0.27428 0.79977 0.0
H315 H 0.93154 0.22404 0.77416 0.0
H316 H 0.97722 0.31749 0.83558 0.0
H317 H 0.95788 0.29329 0.86911 0.0
C318 C 0.67424 0.88129 0.14454 0.0
C319 C 0.67013 0.81968 0.13729 0.0
C320 C 0.67791 0.79582 0.18487 0.0
C321 C 0.67574 0.85437 0.19221 0.0
N322 N 0.65897 0.94612 0.17944 0.0
N323 N 0.6561 0.71248 0.15052 0.0
C324 C 0.67028 0.89529 0.17216 0.0
C325 C 0.66862 0.77524 0.15745 0.0
N326 N 0.68504 0.92782 0.12516 0.0
N327 N 0.69188 0.7615 0.20387 0.0
H328 H 0.64899 0.69544 0.13066 0.0
H329 H 0.64685 0.67524 0.16459 0.0
H330 H 0.70006 0.77536 0.22411 0.0
H331 H 0.70148 0.72296 0.19918 0.0
H332 H 0.69546 0.9764 0.12948 0.0
H333 H 0.69016 0.92011 0.10481 0.0
H334 H 0.6474 0.97296 0.16566 0.0
H335 H 0.65485 0.95741 0.19947 0.0
C336 C 0.87987 0.66654 0.52146 0.0
C337 C 0.81896 0.66538 0.52748 0.0
C338 C 0.79775 0.66915 0.47927 0.0
C339 C 0.85624 0.6656 0.47329 0.0
N340 N 0.94537 0.64698 0.48825 0.0
N341 N 0.71353 0.65277 0.51245 0.0
C342 C 0.89508 0.66016 0.49427 0.0
C343 C 0.77597 0.66295 0.50646 0.0
N344 N 0.92495 0.67726 0.54151 0.0
N345 N 0.76482 0.68167 0.45917 0.0
H346 H 0.69577 0.64797 0.53213 0.0
H347 H 0.67714 0.64313 0.49792 0.0
H348 H 0.77934 0.68705 0.439 0.0
H349 H 0.72653 0.69237 0.46273 0.0
H350 H 0.97335 0.68625 0.53787 0.0
H351 H 0.91657 0.68336 0.56168 0.0
H352 H 0.97045 0.63506 0.50276 0.0
H353 H 0.95792 0.64172 0.46856 0.0
C354 C 0.12582 0.86519 0.84843 0.0
C355 C 0.14278 0.82132 0.86192 0.0
C356 C 0.20628 0.82157 0.82221 0.0
C357 C 0.18131 0.85759 0.80763 0.0
N358 N 0.10261 0.89824 0.80547 0.0
N359 N 0.18764 0.74618 0.85934 0.0
C360 C 0.13688 0.87509 0.82032 0.0
C361 C 0.17992 0.79623 0.84822 0.0
N362 N 0.1018 0.89981 0.86253 0.0
N363 N 0.25703 0.81379 0.81185 0.0
H364 H 0.16711 0.72422 0.87787 0.0
H365 H 0.20844 0.72168 0.84887 0.0
H366 H 0.27969 0.83368 0.79335 0.0
H367 H 0.28137 0.79375 0.82292 0.0
H368 H 0.09468 0.937 0.85381 0.0
H369 H 0.09658 0.89731 0.88344 0.0
H370 H 0.06503 0.90562 0.81362 0.0
H371 H 0.10579 0.90247 0.78454 0.0
C372 C 0.26821 0.97031 0.99053 0.0
C373 C 0.19788 0.92568 0.9911 0.0
C374 C 0.18282 0.00309 0.01974 0.0
C375 C 0.25352 0.04583 0.02134 0.0
N376 N 0.36446 0.06465 0.01179 0.0
N377 N 0.09209 0.88991 0.01318 0.0
C378 C 0.29675 0.02791 0.00775 0.0
C379 C 0.15659 0.93894 0.00807 0.0
N380 N 0.30717 0.9587 0.97308 0.0
N381 N 0.14021 0.02534 0.02743 0.0
H382 H 0.07196 0.84137 0.00558 0.0
H383 H 0.06161 0.89546 0.02729 0.0
H384 H 0.15684 0.07445 0.03358 0.0
H385 H 0.08851 0.99777 0.02426 0.0
H386 H 0.35762 0.99303 0.96956 0.0
H387 H 0.28767 0.91589 0.96099 0.0
H388 H 0.39799 0.05056 0.00439 0.0
H389 H 0.38658 0.10643 0.02444 0.0
C390 C 0.26057 0.31093 0.31777 0.0
C391 C 0.26325 0.31216 0.34635 0.0
C392 C 0.32775 0.25367 0.34582 0.0
C393 C 0.32195 0.24925 0.31731 0.0
N394 N 0.30469 0.2932 0.27605 0.0
N395 N 0.31839 0.30686 0.38659 0.0
C396 C 0.2959 0.28491 0.30329 0.0
C397 C 0.30372 0.2912 0.35998 0.0
N398 N 0.22046 0.32958 0.30448 0.0
N399 N 0.35118 0.21812 0.35957 0.0
H400 H 0.30211 0.33548 0.39706 0.0
H401 H 0.35205 0.29787 0.39729 0.0
H402 H 0.36996 0.1905 0.35016 0.0
H403 H 0.34829 0.21274 0.38045 0.0
H404 H 0.20969 0.32113 0.28399 0.0
H405 H 0.1946 0.35005 0.3141 0.0
H406 H 0.29173 0.3233 0.26484 0.0
H407 H 0.33154 0.27545 0.26519 0.0
C408 C 0.93997 0.24758 0.6507 0.0
C409 C 0.94371 0.24983 0.67927 0.0
C410 C 0.06663 0.31274 0.67715 0.0
C411 C 0.0629 0.30802 0.64861 0.0
N412 N 0.99856 0.2931 0.60849 0.0
N413 N 0.00795 0.30349 0.71901 0.0
C414 C 1.00017 0.28293 0.63551 0.0
C415 C 0.00641 0.28923 0.69222 0.0
N416 N 0.88013 0.20801 0.63801 0.0
N417 N 0.12654 0.33472 0.69004 0.0
H418 H 0.96413 0.2876 0.73022 0.0
H419 H 0.05172 0.33655 0.72926 0.0
H420 H 0.17208 0.35284 0.67998 0.0
H421 H 0.13056 0.331 0.7108 0.0
H422 H 0.87623 0.19782 0.61743 0.0
H423 H 0.83458 0.18182 0.64816 0.0
H424 H 0.95468 0.28079 0.59799 0.0
H425 H 0.04243 0.3209 0.59732 0.0
C426 C 0.67693 0.928 0.98456 0.0
C427 C 0.67806 0.93153 0.01313 0.0
C428 C 0.73822 0.05438 0.01117 0.0
C429 C 0.73863 0.05092 0.9826 0.0
N430 N 0.6897 0.98663 0.94239 0.0
N431 N 0.68827 0.99552 0.05289 0.0
C432 C 0.7014 0.98822 0.96942 0.0
C433 C 0.7014 0.99411 0.02614 0.0
N434 N 0.65728 0.86834 0.97182 0.0
N435 N 0.77672 0.11404 0.02416 0.0
H436 H 0.65945 0.9516 0.06389 0.0
H437 H 0.69922 0.03932 0.06318 0.0
H438 H 0.80459 0.15962 0.01418 0.0
H439 H 0.78474 0.11765 0.0449 0.0
H440 H 0.6636 0.86461 0.95123 0.0
H441 H 0.63862 0.82284 0.98195 0.0
H442 H 0.65832 0.94271 0.93187 0.0
H443 H 0.70566 0.03044 0.9312 0.0
C444 C 0.69517 0.72242 0.33174 0.0
C445 C 0.73735 0.78065 0.31632 0.0
C446 C 0.83428 0.76899 0.32783 0.0
C447 C 0.7946 0.71731 0.34621 0.0
N448 N 0.68816 0.64723 0.36771 0.0
N449 N 0.85054 0.86984 0.30657 0.0
C450 C 0.72503 0.69434 0.34872 0.0
C451 C 0.80788 0.80673 0.31612 0.0
N452 N 0.62705 0.69307 0.32962 0.0
N453 N 0.89742 0.78196 0.32143 0.0
H454 H 0.8344 0.9024 0.29998 0.0
H455 H 0.90255 0.89306 0.30846 0.0
H456 H 0.91768 0.75379 0.32913 0.0
H457 H 0.92631 0.81548 0.30631 0.0
H458 H 0.59378 0.64716 0.33844 0.0
H459 H 0.60384 0.71202 0.31721 0.0
H460 H 0.63893 0.63363 0.37259 0.0
H461 H 0.70847 0.62449 0.37968 0.0
C462 C 0.02583 0.71853 0.68266 0.0
C463 C 0.06933 0.78899 0.68104 0.0
C464 C 0.98917 0.79926 0.65225 0.0
C465 C 0.94797 0.72828 0.65147 0.0
N466 N 0.93173 0.61924 0.66286 0.0
N467 N 0.10141 0.89244 0.65764 0.0
C468 C 0.96751 0.68734 0.66584 0.0
C469 C 0.05381 0.82796 0.66368 0.0
N470 N 0.03921 0.68195 0.7007 0.0
N471 N 0.96532 0.83991 0.64369 0.0
H472 H 0.15045 0.91424 0.66479 0.0
H473 H 0.0943 0.92113 0.64316 0.0
H474 H 0.91629 0.82171 0.63707 0.0
H475 H 0.99154 0.89181 0.6464 0.0
H476 H 0.00584 0.63166 0.70494 0.0
H477 H 0.0824 0.70334 0.7126 0.0
H478 H 0.94706 0.58715 0.67078 0.0
H479 H 0.88924 0.59518 0.65066 0.0
C480 C 0.01901 0.17299 0.01249 0.0
C481 C 0.03713 0.22275 0.99229 0.0
C482 C 0.15365 0.2795 0.00778 0.0
C483 C 0.13743 0.22521 0.02557 0.0
N484 N 0.056 0.11733 0.0438 0.0
N485 N 0.12127 0.32116 0.9691 0.0
C486 C 0.07028 0.17149 0.02796 0.0
C487 C 0.10439 0.27541 0.98946 0.0
N488 N 0.95279 0.12713 0.01685 0.0
N489 N 0.21546 0.33618 0.00923 0.0
H490 H 0.08602 0.32192 0.95611 0.0
H491 H 0.17062 0.35577 0.96396 0.0
H492 H 0.25198 0.34193 0.02314 0.0
H493 H 0.22838 0.38006 0.99865 0.0
H494 H 0.93571 0.09461 0.03326 0.0
H495 H 0.914 0.12442 0.00504 0.0
H496 H 0.01002 0.07284 0.04358 0.0
H497 H 0.09139 0.11476 0.05604 0.0
C498 C 0.90668 0.12299 0.29941 0.0
C499 C 0.85471 0.06518 0.31223 0.0
C500 C 0.90225 0.11325 0.35623 0.0
C501 C 0.95836 0.16735 0.34343 0.0
N502 N 0.02216 0.21222 0.30233 0.0
N503 N 0.81718 0.99666 0.35248 0.0
C504 C 0.96313 0.16904 0.31483 0.0
C505 C 0.85666 0.05759 0.34055 0.0
N506 N 0.90135 0.13577 0.27293 0.0
N507 N 0.89016 0.11587 0.38303 0.0
H508 H 0.78664 0.95305 0.34158 0.0
H509 H 0.82138 0.98794 0.37281 0.0
H510 H 0.91932 0.15761 0.39509 0.0
H511 H 0.84637 0.07971 0.39246 0.0
H512 H 0.93521 0.18072 0.26356 0.0
H513 H 0.85972 0.10494 0.2611 0.0
H514 H 0.02941 0.2109 0.28165 0.0
H515 H 0.06617 0.24368 0.31281 0.0
C516 C 0.7927 0.84482 0.67542 0.0
C517 C 0.78054 0.84143 0.64725 0.0
C518 C 0.78441 0.94944 0.64974 0.0
C519 C 0.78382 0.94601 0.67835 0.0
N520 N 0.77127 0.87995 0.71821 0.0
N521 N 0.75183 0.88549 0.60838 0.0
C522 C 0.78352 0.89082 0.69121 0.0
C523 C 0.77285 0.89238 0.63453 0.0
N524 N 0.8158 0.80642 0.68709 0.0
N525 N 0.79896 0.00781 0.63697 0.0
H526 H 0.73964 0.84313 0.59679 0.0
H527 H 0.73959 0.91872 0.59921 0.0
H528 H 0.8125 0.05234 0.64723 0.0
H529 H 0.80561 0.014 0.61618 0.0
H530 H 0.8307 0.81188 0.70721 0.0
H531 H 0.82817 0.77551 0.67609 0.0
H532 H 0.76489 0.83677 0.72775 0.0
H533 H 0.75947 0.90944 0.73043 0.0
C534 C 0.86228 0.82406 0.99825 0.0
C535 C 0.81091 0.76331 0.00947 0.0
C536 C 0.85621 0.70025 0.98657 0.0
C537 C 0.91174 0.76172 0.97785 0.0
N538 N 0.9727 0.88311 0.97804 0.0
N539 N 0.76149 0.64435 0.01702 0.0
C540 C 0.91602 0.82398 0.98421 0.0
C541 C 0.80833 0.70147 0.00429 0.0
N542 N 0.85863 0.88145 0.00035 0.0
N543 N 0.84818 0.64076 0.97717 0.0
H544 H 0.72511 0.64319 0.02993 0.0
H545 H 0.76171 0.59922 0.01649 0.0
H546 H 0.88172 0.63803 0.96378 0.0
H547 H 0.80537 0.59448 0.98059 0.0
H548 H 0.89039 0.92554 0.99003 0.0
H549 H 0.82013 0.88353 0.01062 0.0
H550 H 0.98211 0.92959 0.98518 0.0
H551 H 0.01325 0.88576 0.96761 0.0
C552 C 0.07737 0.89885 0.34899 0.0
C553 C 0.08358 0.84238 0.35609 0.0
C554 C 0.18764 0.88688 0.33 0.0
C555 C 0.18308 0.94473 0.32404 0.0
N556 N 0.13155 0.01241 0.33143 0.0
N557 N 0.14942 0.78747 0.35772 0.0
C558 C 0.13021 0.95268 0.33457 0.0
C559 C 0.14014 0.83774 0.34781 0.0
N560 N 0.01973 0.89973 0.3549 0.0
N561 N 0.23613 0.87798 0.31794 0.0
H562 H 0.11594 0.75102 0.37106 0.0
H563 H 0.19293 0.78505 0.35469 0.0
H564 H 0.27242 0.91338 0.30507 0.0
H565 H 0.23761 0.83356 0.31902 0.0
H566 H 0.00881 0.93538 0.34732 0.0
H567 H 0.98005 0.86185 0.36572 0.0
H568 H 0.09864 0.02409 0.34121 0.0
H569 H 0.16911 0.05272 0.3207 0.0
C570 C 0.29794 0.1315 0.67842 0.0
C571 C 0.23716 0.07577 0.68763 0.0
C572 C 0.17154 0.11603 0.66307 0.0
C573 C 0.23232 0.17289 0.65465 0.0
N574 N 0.35313 0.23987 0.65603 0.0
N575 N 0.11634 0.01768 0.69173 0.0
C576 C 0.29551 0.18221 0.6629 0.0
C577 C 0.17398 0.06894 0.68091 0.0
N578 N 0.35792 0.13533 0.68426 0.0
N579 N 0.1115 0.10667 0.65366 0.0
H580 H 0.11525 0.97996 0.70368 0.0
H581 H 0.06952 0.01402 0.69023 0.0
H582 H 0.10731 0.14193 0.64189 0.0
H583 H 0.06588 0.06253 0.65614 0.0
H584 H 0.40341 0.1697 0.67548 0.0
H585 H 0.36219 0.10191 0.69718 0.0
H586 H 0.40017 0.25384 0.66397 0.0
H587 H 0.35383 0.27617 0.64324 0.0
loop_
_geom_bond_atom_site_label_1
_geom_bond_atom_site_label_2
_geom_bond_distance
_geom_bond_site_symmetry_2
_ccdc_geom_bond_type
In0 O1 2.294 . S
In0 O2 2.326 . S
In0 O6 2.266 . S
In0 O7 2.326 . S
In0 O8 2.266 . S
In0 O9 2.326 . S
In0 O11 2.294 . S
In0 O12 2.326 . S
O1 In0 2.294 . S
O1 C10 1.240 . S
O2 In0 2.326 . S
O2 C10 1.252 . S
C3 O6 1.252 . S
C3 O7 1.260 . S
C4 O11 1.240 . S
C4 O12 1.252 . S
C5 O8 1.252 . S
C5 O9 1.260 . S
O6 In0 2.266 . S
O6 C3 1.252 . S
O7 In0 2.326 . S
O7 C3 1.260 . S
O8 In0 2.266 . S
O8 C5 1.252 . S
O9 In0 2.326 . S
O9 C5 1.260 . S
C10 O1 1.240 . S
C10 O2 1.252 . S
O11 In0 2.294 . S
O11 C4 1.240 . S
O12 In0 2.326 . S
O12 C4 1.252 . S
In13 O14 2.294 . S
In13 O15 2.326 . S
In13 O19 2.266 1_455 S
In13 O20 2.326 . S
In13 O21 2.266 . S
In13 O22 2.326 . S
In13 O24 2.294 . S
In13 O25 2.326 . S
O14 In13 2.294 . S
O14 C23 1.240 . S
O15 In13 2.326 . S
O15 C23 1.252 . S
C16 O19 1.252 . S
C16 O20 1.260 1_655 S
C17 O24 1.240 . S
C17 O25 1.252 . S
C18 O21 1.252 . S
C18 O22 1.260 . S
O19 In13 2.266 1_655 S
O19 C16 1.252 . S
O20 In13 2.326 . S
O20 C16 1.260 1_455 S
O21 In13 2.266 . S
O21 C18 1.252 . S
O22 In13 2.326 . S
O22 C18 1.260 . S
C23 O14 1.240 . S
C23 O15 1.252 . S
O24 In13 2.294 . S
O24 C17 1.240 . S
O25 In13 2.326 . S
O25 C17 1.252 . S
In26 O27 2.294 . S
In26 O28 2.326 . S
In26 O32 2.266 . S
In26 O33 2.326 . S
In26 O34 2.266 1_545 S
In26 O35 2.326 . S
In26 O37 2.294 . S
In26 O38 2.326 . S
O27 In26 2.294 . S
O27 C36 1.240 . S
O28 In26 2.326 . S
O28 C36 1.252 . S
C29 O32 1.252 . S
C29 O33 1.260 . S
C30 O37 1.240 . S
C30 O38 1.252 . S
C31 O34 1.252 . S
C31 O35 1.260 1_565 S
O32 In26 2.266 . S
O32 C29 1.252 . S
O33 In26 2.326 . S
O33 C29 1.260 . S
O34 In26 2.266 1_565 S
O34 C31 1.252 . S
O35 In26 2.326 . S
O35 C31 1.260 1_545 S
C36 O27 1.240 . S
C36 O28 1.252 . S
O37 In26 2.294 . S
O37 C30 1.240 . S
O38 In26 2.326 . S
O38 C30 1.252 . S
In39 O40 2.294 . S
In39 O41 2.326 . S
In39 O45 2.266 . S
In39 O46 2.326 . S
In39 O47 2.266 . S
In39 O48 2.326 . S
In39 O50 2.294 . S
In39 O51 2.326 . S
O40 In39 2.294 . S
O40 C49 1.240 . S
O41 In39 2.326 . S
O41 C49 1.252 . S
C42 O45 1.252 . S
C42 O46 1.260 . S
C43 O50 1.240 . S
C43 O51 1.252 . S
C44 O47 1.252 . S
C44 O48 1.260 . S
O45 In39 2.266 . S
O45 C42 1.252 . S
O46 In39 2.326 . S
O46 C42 1.260 . S
O47 In39 2.266 . S
O47 C44 1.252 . S
O48 In39 2.326 . S
O48 C44 1.260 . S
C49 O40 1.240 . S
C49 O41 1.252 . S
O50 In39 2.294 . S
O50 C43 1.240 . S
O51 In39 2.326 . S
O51 C43 1.252 . S
In52 O53 2.294 . S
In52 O54 2.326 . S
In52 O58 2.266 1_655 S
In52 O59 2.326 . S
In52 O60 2.266 . S
In52 O61 2.326 . S
In52 O63 2.294 . S
In52 O64 2.326 . S
O53 In52 2.294 . S
O53 C62 1.240 . S
O54 In52 2.326 . S
O54 C62 1.252 . S
C55 O58 1.252 . S
C55 O59 1.260 1_455 S
C56 O63 1.240 . S
C56 O64 1.252 . S
C57 O60 1.252 . S
C57 O61 1.260 . S
O58 In52 2.266 1_455 S
O58 C55 1.252 . S
O59 In52 2.326 . S
O59 C55 1.260 1_655 S
O60 In52 2.266 . S
O60 C57 1.252 . S
O61 In52 2.326 . S
O61 C57 1.260 . S
C62 O53 1.240 . S
C62 O54 1.252 . S
O63 In52 2.294 . S
O63 C56 1.240 . S
O64 In52 2.326 . S
O64 C56 1.252 . S
In65 O66 2.294 . S
In65 O67 2.326 . S
In65 O71 2.266 . S
In65 O72 2.326 . S
In65 O73 2.266 1_565 S
In65 O74 2.326 . S
In65 O76 2.294 . S
In65 O77 2.326 . S
O66 In65 2.294 . S
O66 C75 1.240 . S
O67 In65 2.326 . S
O67 C75 1.252 . S
C68 O71 1.252 . S
C68 O72 1.260 . S
C69 O76 1.240 . S
C69 O77 1.252 . S
C70 O73 1.252 . S
C70 O74 1.260 1_545 S
O71 In65 2.266 . S
O71 C68 1.252 . S
O72 In65 2.326 . S
O72 C68 1.260 . S
O73 In65 2.266 1_545 S
O73 C70 1.252 . S
O74 In65 2.326 . S
O74 C70 1.260 1_565 S
C75 O66 1.240 . S
C75 O67 1.252 . S
O76 In65 2.294 . S
O76 C69 1.240 . S
O77 In65 2.326 . S
O77 C69 1.252 . S
In78 O79 2.294 . S
In78 O80 2.326 . S
In78 O84 2.266 . S
In78 O85 2.326 . S
In78 O86 2.266 . S
In78 O87 2.326 . S
In78 O89 2.294 . S
In78 O90 2.326 . S
O79 In78 2.294 . S
O79 C88 1.240 . S
O80 In78 2.326 . S
O80 C88 1.252 . S
C81 O84 1.252 . S
C81 O85 1.260 . S
C82 O89 1.240 . S
C82 O90 1.252 . S
C83 O86 1.252 . S
C83 O87 1.260 . S
O84 In78 2.266 . S
O84 C81 1.252 . S
O85 In78 2.326 . S
O85 C81 1.260 . S
O86 In78 2.266 . S
O86 C83 1.252 . S
O87 In78 2.326 . S
O87 C83 1.260 . S
C88 O79 1.240 . S
C88 O80 1.252 . S
O89 In78 2.294 . S
O89 C82 1.240 . S
O90 In78 2.326 . S
O90 C82 1.252 . S
In91 O92 2.294 . S
In91 O93 2.326 . S
In91 O97 2.266 . S
In91 O98 2.326 . S
In91 O99 2.266 1_455 S
In91 O100 2.326 . S
In91 O102 2.294 . S
In91 O103 2.326 . S
O92 In91 2.294 . S
O92 C101 1.240 . S
O93 In91 2.326 . S
O93 C101 1.252 . S
C94 O97 1.252 . S
C94 O98 1.260 . S
C95 O102 1.240 . S
C95 O103 1.252 . S
C96 O99 1.252 . S
C96 O100 1.260 1_655 S
O97 In91 2.266 . S
O97 C94 1.252 . S
O98 In91 2.326 . S
O98 C94 1.260 . S
O99 In91 2.266 1_655 S
O99 C96 1.252 . S
O100 In91 2.326 . S
O100 C96 1.260 1_455 S
C101 O92 1.240 . S
C101 O93 1.252 . S
O102 In91 2.294 . S
O102 C95 1.240 . S
O103 In91 2.326 . S
O103 C95 1.252 . S
In104 O105 2.294 . S
In104 O106 2.326 . S
In104 O110 2.266 . S
In104 O111 2.326 . S
In104 O112 2.266 1_545 S
In104 O113 2.326 . S
In104 O115 2.294 . S
In104 O116 2.326 . S
O105 In104 2.294 . S
O105 C114 1.240 . S
O106 In104 2.326 . S
O106 C114 1.252 . S
C107 O110 1.252 . S
C107 O111 1.260 . S
C108 O115 1.240 . S
C108 O116 1.252 . S
C109 O112 1.252 . S
C109 O113 1.260 1_565 S
O110 In104 2.266 . S
O110 C107 1.252 . S
O111 In104 2.326 . S
O111 C107 1.260 . S
O112 In104 2.266 1_565 S
O112 C109 1.252 . S
O113 In104 2.326 . S
O113 C109 1.260 1_545 S
C114 O105 1.240 . S
C114 O106 1.252 . S
O115 In104 2.294 . S
O115 C108 1.240 . S
O116 In104 2.326 . S
O116 C108 1.252 . S
In117 O118 2.294 . S
In117 O119 2.326 . S
In117 O123 2.266 . S
In117 O124 2.326 . S
In117 O125 2.266 . S
In117 O126 2.326 . S
In117 O128 2.294 . S
In117 O129 2.326 . S
O118 In117 2.294 . S
O118 C127 1.240 . S
O119 In117 2.326 . S
O119 C127 1.252 . S
C120 O123 1.252 . S
C120 O124 1.260 . S
C121 O128 1.240 . S
C121 O129 1.252 . S
C122 O125 1.252 . S
C122 O126 1.260 . S
O123 In117 2.266 . S
O123 C120 1.252 . S
O124 In117 2.326 . S
O124 C120 1.260 . S
O125 In117 2.266 . S
O125 C122 1.252 . S
O126 In117 2.326 . S
O126 C122 1.260 . S
C127 O118 1.240 . S
C127 O119 1.252 . S
O128 In117 2.294 . S
O128 C121 1.240 . S
O129 In117 2.326 . S
O129 C121 1.252 . S
In130 O131 2.294 . S
In130 O132 2.326 . S
In130 O136 2.266 1_655 S
In130 O137 2.326 . S
In130 O138 2.266 . S
In130 O139 2.326 . S
In130 O141 2.294 . S
In130 O142 2.326 . S
O131 In130 2.294 . S
O131 C140 1.240 . S
O132 In130 2.326 . S
O132 C140 1.252 . S
C133 O136 1.252 . S
C133 O137 1.260 1_455 S
C134 O141 1.240 . S
C134 O142 1.252 . S
C135 O138 1.252 . S
C135 O139 1.260 . S
O136 In130 2.266 1_455 S
O136 C133 1.252 . S
O137 In130 2.326 . S
O137 C133 1.260 1_655 S
O138 In130 2.266 . S
O138 C135 1.252 . S
O139 In130 2.326 . S
O139 C135 1.260 . S
C140 O131 1.240 . S
C140 O132 1.252 . S
O141 In130 2.294 . S
O141 C134 1.240 . S
O142 In130 2.326 . S
O142 C134 1.252 . S
In143 O144 2.294 . S
In143 O145 2.326 . S
In143 O149 2.266 1_565 S
In143 O150 2.326 . S
In143 O151 2.266 . S
In143 O152 2.326 . S
In143 O154 2.294 . S
In143 O155 2.326 . S
O144 In143 2.294 . S
O144 C153 1.240 . S
O145 In143 2.326 . S
O145 C153 1.252 . S
C146 O149 1.252 . S
C146 O150 1.260 1_545 S
C147 O154 1.240 . S
C147 O155 1.252 . S
C148 O151 1.252 . S
C148 O152 1.260 . S
O149 In143 2.266 1_545 S
O149 C146 1.252 . S
O150 In143 2.326 . S
O150 C146 1.260 1_565 S
O151 In143 2.266 . S
O151 C148 1.252 . S
O152 In143 2.326 . S
O152 C148 1.260 . S
C153 O144 1.240 . S
C153 O145 1.252 . S
O154 In143 2.294 . S
O154 C147 1.240 . S
O155 In143 2.326 . S
O155 C147 1.252 . S
C156 C157 1.363 . S
C156 C162 1.379 . S
C156 N164 1.356 . S
C157 C156 1.363 . S
C157 C163 1.363 . S
C158 C159 1.363 . S
C158 C163 1.379 . S
C158 N165 1.356 . S
C159 C158 1.363 . S
C159 C162 1.363 . S
N160 C162 1.356 . S
N160 H172 0.984 . S
N160 H173 0.985 . S
N161 C163 1.356 . S
N161 H166 0.984 . S
N161 H167 0.985 . S
C162 C156 1.379 . S
C162 C159 1.363 . S
C162 N160 1.356 . S
C163 C157 1.363 . S
C163 C158 1.379 . S
C163 N161 1.356 . S
N164 C156 1.356 . S
N164 H170 0.984 . S
N164 H171 0.984 . S
N165 C158 1.356 . S
N165 H168 0.984 . S
N165 H169 0.985 . S
H166 N161 0.984 . S
H167 N161 0.985 . S
H168 N165 0.984 . S
H169 N165 0.985 . S
H170 N164 0.984 . S
H171 N164 0.984 . S
H172 N160 0.984 . S
H173 N160 0.985 . S
C174 C175 1.363 1_655 S
C174 C180 1.379 . S
C174 N182 1.354 1_655 S
C175 C174 1.363 1_455 S
C175 C181 1.363 . S
C176 C177 1.363 1_455 S
C176 C181 1.379 . S
C176 N183 1.354 1_455 S
C177 C176 1.363 1_655 S
C177 C180 1.363 . S
N178 C180 1.356 . S
N178 H190 0.984 . S
N178 H191 0.985 . S
N179 C181 1.356 . S
N179 H184 0.984 . S
N179 H185 0.985 . S
C180 C174 1.379 . S
C180 C177 1.363 . S
C180 N178 1.356 . S
C181 C175 1.363 . S
C181 C176 1.379 . S
C181 N179 1.356 . S
N182 C174 1.354 1_455 S
N182 H188 0.983 1_455 S
N182 H189 0.988 . S
N183 C176 1.354 1_655 S
N183 H186 0.988 . S
N183 H187 0.983 1_655 S
H184 N179 0.984 . S
H185 N179 0.985 . S
H186 N183 0.988 . S
H187 N183 0.983 1_455 S
H188 N182 0.983 1_655 S
H189 N182 0.988 . S
H190 N178 0.984 . S
H191 N178 0.985 . S
C192 C193 1.363 1_545 S
C192 C198 1.379 . S
C192 N200 1.358 1_545 S
C193 C192 1.363 1_565 S
C193 C199 1.363 . S
C194 C195 1.363 1_565 S
C194 C199 1.379 . S
C194 N201 1.358 1_565 S
C195 C194 1.363 1_545 S
C195 C198 1.363 . S
N196 C198 1.356 . S
N196 H208 0.984 . S
N196 H209 0.985 . S
N197 C199 1.356 . S
N197 H202 0.984 . S
N197 H203 0.985 . S
C198 C192 1.379 . S
C198 C195 1.363 . S
C198 N196 1.356 . S
C199 C193 1.363 . S
C199 C194 1.379 . S
C199 N197 1.356 . S
N200 C192 1.358 1_565 S
N200 H206 0.982 1_565 S
N200 H207 0.986 . S
N201 C194 1.358 1_545 S
N201 H204 0.986 . S
N201 H205 0.982 1_545 S
H202 N197 0.984 . S
H203 N197 0.985 . S
H204 N201 0.986 . S
H205 N201 0.982 1_565 S
H206 N200 0.982 1_545 S
H207 N200 0.986 . S
H208 N196 0.984 . S
H209 N196 0.985 . S
C210 C211 1.363 . S
C210 C216 1.379 . S
C210 N218 1.356 . S
C211 C210 1.363 . S
C211 C217 1.363 . S
C212 C213 1.363 . S
C212 C217 1.379 . S
C212 N219 1.356 . S
C213 C212 1.363 . S
C213 C216 1.363 . S
N214 C216 1.356 . S
N214 H226 0.984 . S
N214 H227 0.985 . S
N215 C217 1.356 . S
N215 H220 0.984 . S
N215 H221 0.985 . S
C216 C210 1.379 . S
C216 C213 1.363 . S
C216 N214 1.356 . S
C217 C211 1.363 . S
C217 C212 1.379 . S
C217 N215 1.356 . S
N218 C210 1.356 . S
N218 H224 0.984 . S
N218 H225 0.984 . S
N219 C212 1.356 . S
N219 H222 0.984 . S
N219 H223 0.985 . S
H220 N215 0.984 . S
H221 N215 0.985 . S
H222 N219 0.984 . S
H223 N219 0.985 . S
H224 N218 0.984 . S
H225 N218 0.984 . S
H226 N214 0.984 . S
H227 N214 0.985 . S
C228 C229 1.363 1_455 S
C228 C234 1.379 . S
C228 N236 1.358 1_455 S
C229 C228 1.363 1_655 S
C229 C235 1.363 . S
C230 C231 1.363 1_655 S
C230 C235 1.379 . S
C230 N237 1.358 1_655 S
C231 C230 1.363 1_455 S
C231 C234 1.363 . S
N232 C234 1.356 . S
N232 H244 0.984 . S
N232 H245 0.985 . S
N233 C235 1.356 . S
N233 H238 0.984 . S
N233 H239 0.985 . S
C234 C228 1.379 . S
C234 C231 1.363 . S
C234 N232 1.356 . S
C235 C229 1.363 . S
C235 C230 1.379 . S
C235 N233 1.356 . S
N236 C228 1.358 1_655 S
N236 H242 0.982 1_655 S
N236 H243 0.986 . S
N237 C230 1.358 1_455 S
N237 H240 0.986 . S
N237 H241 0.982 1_455 S
H238 N233 0.984 . S
H239 N233 0.985 . S
H240 N237 0.986 . S
H241 N237 0.982 1_655 S
H242 N236 0.982 1_455 S
H243 N236 0.986 . S
H244 N232 0.984 . S
H245 N232 0.985 . S
C246 C247 1.363 . S
C246 C252 1.379 . S
C246 N254 1.356 . S
C247 C246 1.363 . S
C247 C253 1.363 1_545 S
C248 C249 1.363 . S
C248 C253 1.379 . S
C248 N255 1.356 . S
C249 C248 1.363 . S
C249 C252 1.363 1_565 S
N250 C252 1.354 1_565 S
N250 H262 0.983 1_565 S
N250 H263 0.988 . S
N251 C253 1.354 1_545 S
N251 H256 0.988 . S
N251 H257 0.983 1_545 S
C252 C246 1.379 . S
C252 C249 1.363 1_545 S
C252 N250 1.354 1_545 S
C253 C247 1.363 1_565 S
C253 C248 1.379 . S
C253 N251 1.354 1_565 S
N254 C246 1.356 . S
N254 H260 0.984 . S
N254 H261 0.984 . S
N255 C248 1.356 . S
N255 H258 0.984 . S
N255 H259 0.985 . S
H256 N251 0.988 . S
H257 N251 0.983 1_565 S
H258 N255 0.984 . S
H259 N255 0.985 . S
H260 N254 0.984 . S
H261 N254 0.984 . S
H262 N250 0.983 1_545 S
H263 N250 0.988 . S
C264 C265 1.363 . S
C264 C270 1.379 . S
C264 N272 1.356 . S
C265 C264 1.363 . S
C265 C271 1.363 . S
C266 C267 1.363 . S
C266 C271 1.379 . S
C266 N273 1.356 . S
C267 C266 1.363 . S
C267 C270 1.363 . S
N268 C270 1.356 . S
N268 H280 0.984 . S
N268 H281 0.985 . S
N269 C271 1.356 . S
N269 H274 0.984 . S
N269 H275 0.985 . S
C270 C264 1.379 . S
C270 C267 1.363 . S
C270 N268 1.356 . S
C271 C265 1.363 . S
C271 C266 1.379 . S
C271 N269 1.356 . S
N272 C264 1.356 . S
N272 H278 0.984 . S
N272 H279 0.984 . S
N273 C266 1.356 . S
N273 H276 0.984 . S
N273 H277 0.985 . S
H274 N269 0.984 . S
H275 N269 0.985 . S
H276 N273 0.984 . S
H277 N273 0.985 . S
H278 N272 0.984 . S
H279 N272 0.984 . S
H280 N268 0.984 . S
H281 N268 0.985 . S
C282 C283 1.363 . S
C282 C288 1.379 . S
C282 N290 1.356 . S
C283 C282 1.363 . S
C283 C289 1.363 . S
C284 C285 1.363 . S
C284 C289 1.379 . S
C284 N291 1.356 . S
C285 C284 1.363 . S
C285 C288 1.363 . S
N286 C288 1.356 . S
N286 H298 0.984 . S
N286 H299 0.985 . S
N287 C289 1.356 . S
N287 H292 0.984 . S
N287 H293 0.985 . S
C288 C282 1.379 . S
C288 C285 1.363 . S
C288 N286 1.356 . S
C289 C283 1.363 . S
C289 C284 1.379 . S
C289 N287 1.356 . S
N290 C282 1.356 . S
N290 H296 0.984 . S
N290 H297 0.984 . S
N291 C284 1.356 . S
N291 H294 0.984 . S
N291 H295 0.985 . S
H292 N287 0.984 . S
H293 N287 0.985 . S
H294 N291 0.984 . S
H295 N291 0.985 . S
H296 N290 0.984 . S
H297 N290 0.984 . S
H298 N286 0.984 . S
H299 N286 0.985 . S
C300 C301 1.363 . S
C300 C306 1.379 . S
C300 N308 1.356 . S
C301 C300 1.363 . S
C301 C307 1.363 . S
C302 C303 1.363 . S
C302 C307 1.379 . S
C302 N309 1.356 . S
C303 C302 1.363 . S
C303 C306 1.363 . S
N304 C306 1.356 . S
N304 H316 0.984 . S
N304 H317 0.985 . S
N305 C307 1.356 . S
N305 H310 0.984 . S
N305 H311 0.985 . S
C306 C300 1.379 . S
C306 C303 1.363 . S
C306 N304 1.356 . S
C307 C301 1.363 . S
C307 C302 1.379 . S
C307 N305 1.356 . S
N308 C300 1.356 . S
N308 H314 0.984 . S
N308 H315 0.984 . S
N309 C302 1.356 . S
N309 H312 0.984 . S
N309 H313 0.985 . S
H310 N305 0.984 . S
H311 N305 0.985 . S
H312 N309 0.984 . S
H313 N309 0.985 . S
H314 N308 0.984 . S
H315 N308 0.984 . S
H316 N304 0.984 . S
H317 N304 0.985 . S
C318 C319 1.363 . S
C318 C324 1.379 . S
C318 N326 1.356 . S
C319 C318 1.363 . S
C319 C325 1.363 . S
C320 C321 1.363 . S
C320 C325 1.379 . S
C320 N327 1.356 . S
C321 C320 1.363 . S
C321 C324 1.363 . S
N322 C324 1.356 . S
N322 H334 0.984 . S
N322 H335 0.985 . S
N323 C325 1.356 . S
N323 H328 0.984 . S
N323 H329 0.985 . S
C324 C318 1.379 . S
C324 C321 1.363 . S
C324 N322 1.356 . S
C325 C319 1.363 . S
C325 C320 1.379 . S
C325 N323 1.356 . S
N326 C318 1.356 . S
N326 H332 0.984 . S
N326 H333 0.984 . S
N327 C320 1.356 . S
N327 H330 0.984 . S
N327 H331 0.985 . S
H328 N323 0.984 . S
H329 N323 0.985 . S
H330 N327 0.984 . S
H331 N327 0.985 . S
H332 N326 0.984 . S
H333 N326 0.984 . S
H334 N322 0.984 . S
H335 N322 0.985 . S
C336 C337 1.363 . S
C336 C342 1.379 . S
C336 N344 1.356 . S
C337 C336 1.363 . S
C337 C343 1.363 . S
C338 C339 1.363 . S
C338 C343 1.379 . S
C338 N345 1.356 . S
C339 C338 1.363 . S
C339 C342 1.363 . S
N340 C342 1.356 . S
N340 H352 0.984 . S
N340 H353 0.985 . S
N341 C343 1.356 . S
N341 H346 0.984 . S
N341 H347 0.985 . S
C342 C336 1.379 . S
C342 C339 1.363 . S
C342 N340 1.356 . S
C343 C337 1.363 . S
C343 C338 1.379 . S
C343 N341 1.356 . S
N344 C336 1.356 . S
N344 H350 0.984 . S
N344 H351 0.984 . S
N345 C338 1.356 . S
N345 H348 0.984 . S
N345 H349 0.985 . S
H346 N341 0.984 . S
H347 N341 0.985 . S
H348 N345 0.984 . S
H349 N345 0.985 . S
H350 N344 0.984 . S
H351 N344 0.984 . S
H352 N340 0.984 . S
H353 N340 0.985 . S
C354 C355 1.363 . S
C354 C360 1.379 . S
C354 N362 1.356 . S
C355 C354 1.363 . S
C355 C361 1.363 . S
C356 C357 1.363 . S
C356 C361 1.379 . S
C356 N363 1.356 . S
C357 C356 1.363 . S
C357 C360 1.363 . S
N358 C360 1.356 . S
N358 H370 0.984 . S
N358 H371 0.985 . S
N359 C361 1.356 . S
N359 H364 0.984 . S
N359 H365 0.985 . S
C360 C354 1.379 . S
C360 C357 1.363 . S
C360 N358 1.356 . S
C361 C355 1.363 . S
C361 C356 1.379 . S
C361 N359 1.356 . S
N362 C354 1.356 . S
N362 H368 0.984 . S
N362 H369 0.984 . S
N363 C356 1.356 . S
N363 H366 0.984 . S
N363 H367 0.985 . S
H364 N359 0.984 . S
H365 N359 0.985 . S
H366 N363 0.984 . S
H367 N363 0.985 . S
H368 N362 0.984 . S
H369 N362 0.984 . S
H370 N358 0.984 . S
H371 N358 0.985 . S
C372 C373 1.363 . S
C372 C378 1.379 1_565 S
C372 N380 1.356 . S
C373 C372 1.363 . S
C373 C379 1.362 1_556 S
C374 C375 1.363 . S
C374 C379 1.379 1_545 S
C374 N381 1.356 . S
C375 C374 1.363 . S
C375 C378 1.362 1_554 S
N376 C378 1.356 1_554 S
N376 H388 0.984 1_554 S
N376 H389 0.985 . S
N377 C379 1.356 1_556 S
N377 H382 0.984 . S
N377 H383 0.985 1_556 S
C378 C372 1.379 1_545 S
C378 C375 1.362 1_556 S
C378 N376 1.356 1_556 S
C379 C373 1.362 1_554 S
C379 C374 1.379 1_565 S
C379 N377 1.356 1_554 S
N380 C372 1.356 . S
N380 H386 0.984 . S
N380 H387 0.984 . S
N381 C374 1.356 . S
N381 H384 0.984 . S
N381 H385 0.985 . S
H382 N377 0.984 . S
H383 N377 0.985 1_554 S
H384 N381 0.984 . S
H385 N381 0.985 . S
H386 N380 0.984 . S
H387 N380 0.984 . S
H388 N376 0.984 1_556 S
H389 N376 0.985 . S
C390 C391 1.363 . S
C390 C396 1.379 . S
C390 N398 1.356 . S
C391 C390 1.363 . S
C391 C397 1.363 . S
C392 C393 1.363 . S
C392 C397 1.379 . S
C392 N399 1.356 . S
C393 C392 1.363 . S
C393 C396 1.363 . S
N394 C396 1.356 . S
N394 H406 0.984 . S
N394 H407 0.985 . S
N395 C397 1.356 . S
N395 H400 0.984 . S
N395 H401 0.985 . S
C396 C390 1.379 . S
C396 C393 1.363 . S
C396 N394 1.356 . S
C397 C391 1.363 . S
C397 C392 1.379 . S
C397 N395 1.356 . S
N398 C390 1.356 . S
N398 H404 0.984 . S
N398 H405 0.984 . S
N399 C392 1.356 . S
N399 H402 0.984 . S
N399 H403 0.985 . S
H400 N395 0.984 . S
H401 N395 0.985 . S
H402 N399 0.984 . S
H403 N399 0.985 . S
H404 N398 0.984 . S
H405 N398 0.984 . S
H406 N394 0.984 . S
H407 N394 0.985 . S
C408 C409 1.363 . S
C408 C414 1.379 1_655 S
C408 N416 1.356 . S
C409 C408 1.363 . S
C409 C415 1.363 . S
C410 C411 1.363 . S
C410 C415 1.379 1_455 S
C410 N417 1.356 . S
C411 C410 1.363 . S
C411 C414 1.363 . S
N412 C414 1.356 . S
N412 H424 0.984 1_455 S
N412 H425 0.985 . S
N413 C415 1.356 . S
N413 H418 0.984 . S
N413 H419 0.985 1_655 S
C414 C408 1.379 1_455 S
C414 C411 1.363 . S
C414 N412 1.356 . S
C415 C409 1.363 . S
C415 C410 1.379 1_655 S
C415 N413 1.356 . S
N416 C408 1.356 . S
N416 H422 0.984 . S
N416 H423 0.984 . S
N417 C410 1.356 . S
N417 H420 0.984 . S
N417 H421 0.985 . S
H418 N413 0.984 . S
H419 N413 0.985 1_455 S
H420 N417 0.984 . S
H421 N417 0.985 . S
H422 N416 0.984 . S
H423 N416 0.984 . S
H424 N412 0.984 1_655 S
H425 N412 0.985 . S
C426 C427 1.363 1_556 S
C426 C432 1.379 1_565 S
C426 N434 1.356 . S
C427 C426 1.363 1_554 S
C427 C433 1.363 . S
C428 C429 1.363 1_554 S
C428 C433 1.379 1_545 S
C428 N435 1.356 . S
C429 C428 1.363 1_556 S
C429 C432 1.363 . S
N430 C432 1.356 . S
N430 H442 0.984 1_545 S
N430 H443 0.985 . S
N431 C433 1.356 . S
N431 H436 0.984 . S
N431 H437 0.985 1_565 S
C432 C426 1.379 1_545 S
C432 C429 1.363 . S
C432 N430 1.356 . S
C433 C427 1.363 . S
C433 C428 1.379 1_565 S
C433 N431 1.356 . S
N434 C426 1.356 . S
N434 H440 0.984 . S
N434 H441 0.984 1_556 S
N435 C428 1.356 . S
N435 H438 0.984 1_554 S
N435 H439 0.985 . S
H436 N431 0.984 . S
H437 N431 0.985 1_545 S
H438 N435 0.984 1_556 S
H439 N435 0.985 . S
H440 N434 0.984 . S
H441 N434 0.984 1_554 S
H442 N430 0.984 1_565 S
H443 N430 0.985 . S
C444 C445 1.363 . S
C444 C450 1.379 . S
C444 N452 1.356 . S
C445 C444 1.363 . S
C445 C451 1.363 . S
C446 C447 1.363 . S
C446 C451 1.379 . S
C446 N453 1.356 . S
C447 C446 1.363 . S
C447 C450 1.363 . S
N448 C450 1.356 . S
N448 H460 0.984 . S
N448 H461 0.985 . S
N449 C451 1.356 . S
N449 H454 0.984 . S
N449 H455 0.985 . S
C450 C444 1.379 . S
C450 C447 1.363 . S
C450 N448 1.356 . S
C451 C445 1.363 . S
C451 C446 1.379 . S
C451 N449 1.356 . S
N452 C444 1.356 . S
N452 H458 0.984 . S
N452 H459 0.984 . S
N453 C446 1.356 . S
N453 H456 0.984 . S
N453 H457 0.985 . S
H454 N449 0.984 . S
H455 N449 0.985 . S
H456 N453 0.984 . S
H457 N453 0.985 . S
H458 N452 0.984 . S
H459 N452 0.984 . S
H460 N448 0.984 . S
H461 N448 0.985 . S
C462 C463 1.363 . S
C462 C468 1.379 1_455 S
C462 N470 1.356 . S
C463 C462 1.363 . S
C463 C469 1.363 . S
C464 C465 1.363 . S
C464 C469 1.379 1_655 S
C464 N471 1.356 . S
C465 C464 1.363 . S
C465 C468 1.363 . S
N466 C468 1.356 . S
N466 H478 0.984 . S
N466 H479 0.985 . S
N467 C469 1.356 . S
N467 H472 0.984 . S
N467 H473 0.985 . S
C468 C462 1.379 1_655 S
C468 C465 1.363 . S
C468 N466 1.356 . S
C469 C463 1.363 . S
C469 C464 1.379 1_455 S
C469 N467 1.356 . S
N470 C462 1.356 . S
N470 H476 0.984 . S
N470 H477 0.984 . S
N471 C464 1.356 . S
N471 H474 0.984 . S
N471 H475 0.985 . S
H472 N467 0.984 . S
H473 N467 0.985 . S
H474 N471 0.984 . S
H475 N471 0.985 . S
H476 N470 0.984 . S
H477 N470 0.984 . S
H478 N466 0.984 . S
H479 N466 0.985 . S
C480 C481 1.363 1_554 S
C480 C486 1.379 . S
C480 N488 1.356 1_455 S
C481 C480 1.363 1_556 S
C481 C487 1.363 . S
C482 C483 1.363 1_556 S
C482 C487 1.379 . S
C482 N489 1.356 . S
C483 C482 1.363 1_554 S
C483 C486 1.363 . S
N484 C486 1.356 . S
N484 H496 0.984 . S
N484 H497 0.985 . S
N485 C487 1.356 . S
N485 H490 0.984 . S
N485 H491 0.985 . S
C486 C480 1.379 . S
C486 C483 1.363 . S
C486 N484 1.356 . S
C487 C481 1.363 . S
C487 C482 1.379 . S
C487 N485 1.356 . S
N488 C480 1.356 1_655 S
N488 H494 0.984 . S
N488 H495 0.984 1_554 S
N489 C482 1.356 . S
N489 H492 0.984 1_556 S
N489 H493 0.985 . S
H490 N485 0.984 . S
H491 N485 0.985 . S
H492 N489 0.984 1_554 S
H493 N489 0.985 . S
H494 N488 0.984 . S
H495 N488 0.984 1_556 S
H496 N484 0.984 . S
H497 N484 0.985 . S
C498 C499 1.363 . S
C498 C504 1.379 . S
C498 N506 1.356 . S
C499 C498 1.363 . S
C499 C505 1.363 . S
C500 C501 1.363 . S
C500 C505 1.379 . S
C500 N507 1.356 . S
C501 C500 1.363 . S
C501 C504 1.363 . S
N502 C504 1.356 . S
N502 H514 0.984 1_655 S
N502 H515 0.985 1_655 S
N503 C505 1.356 . S
N503 H508 0.984 1_545 S
N503 H509 0.985 1_545 S
C504 C498 1.379 . S
C504 C501 1.363 . S
C504 N502 1.356 . S
C505 C499 1.363 . S
C505 C500 1.379 . S
C505 N503 1.356 . S
N506 C498 1.356 . S
N506 H512 0.984 . S
N506 H513 0.984 . S
N507 C500 1.356 . S
N507 H510 0.984 . S
N507 H511 0.985 . S
H508 N503 0.984 1_565 S
H509 N503 0.985 1_565 S
H510 N507 0.984 . S
H511 N507 0.985 . S
H512 N506 0.984 . S
H513 N506 0.984 . S
H514 N502 0.984 1_455 S
H515 N502 0.985 1_455 S
C516 C517 1.363 . S
C516 C522 1.379 . S
C516 N524 1.356 . S
C517 C516 1.363 . S
C517 C523 1.363 . S
C518 C519 1.363 . S
C518 C523 1.379 . S
C518 N525 1.356 . S
C519 C518 1.363 . S
C519 C522 1.363 . S
N520 C522 1.356 . S
N520 H532 0.984 . S
N520 H533 0.985 . S
N521 C523 1.356 . S
N521 H526 0.984 . S
N521 H527 0.985 . S
C522 C516 1.379 . S
C522 C519 1.363 . S
C522 N520 1.356 . S
C523 C517 1.363 . S
C523 C518 1.379 . S
C523 N521 1.356 . S
N524 C516 1.356 . S
N524 H530 0.984 . S
N524 H531 0.984 . S
N525 C518 1.356 . S
N525 H528 0.984 1_565 S
N525 H529 0.985 . S
H526 N521 0.984 . S
H527 N521 0.985 . S
H528 N525 0.984 1_545 S
H529 N525 0.985 . S
H530 N524 0.984 . S
H531 N524 0.984 . S
H532 N520 0.984 . S
H533 N520 0.985 . S
C534 C535 1.363 1_556 S
C534 C540 1.379 . S
C534 N542 1.356 . S
C535 C534 1.363 1_554 S
C535 C541 1.363 . S
C536 C537 1.363 1_554 S
C536 C541 1.379 . S
C536 N543 1.356 . S
C537 C536 1.363 1_556 S
C537 C540 1.363 . S
N538 C540 1.356 . S
N538 H550 0.984 . S
N538 H551 0.985 . S
N539 C541 1.356 . S
N539 H544 0.984 . S
N539 H545 0.985 . S
C540 C534 1.379 . S
C540 C537 1.363 . S
C540 N538 1.356 . S
C541 C535 1.363 . S
C541 C536 1.379 . S
C541 N539 1.356 . S
N542 C534 1.356 . S
N542 H548 0.984 . S
N542 H549 0.984 1_556 S
N543 C536 1.356 . S
N543 H546 0.984 1_554 S
N543 H547 0.985 . S
H544 N539 0.984 . S
H545 N539 0.985 . S
H546 N543 0.984 1_556 S
H547 N543 0.985 . S
H548 N542 0.984 . S
H549 N542 0.984 1_554 S
H550 N538 0.984 . S
H551 N538 0.985 . S
C552 C553 1.363 . S
C552 C558 1.379 . S
C552 N560 1.356 . S
C553 C552 1.363 . S
C553 C559 1.363 . S
C554 C555 1.363 . S
C554 C559 1.379 . S
C554 N561 1.356 . S
C555 C554 1.363 . S
C555 C558 1.363 . S
N556 C558 1.356 1_545 S
N556 H568 0.984 . S
N556 H569 0.985 . S
N557 C559 1.356 . S
N557 H562 0.984 . S
N557 H563 0.985 . S
C558 C552 1.379 . S
C558 C555 1.363 . S
C558 N556 1.356 1_565 S
C559 C553 1.363 . S
C559 C554 1.379 . S
C559 N557 1.356 . S
N560 C552 1.356 . S
N560 H566 0.984 . S
N560 H567 0.984 . S
N561 C554 1.356 . S
N561 H564 0.984 . S
N561 H565 0.985 . S
H562 N557 0.984 . S
H563 N557 0.985 . S
H564 N561 0.984 . S
H565 N561 0.985 . S
H566 N560 0.984 . S
H567 N560 0.984 . S
H568 N556 0.984 . S
H569 N556 0.985 . S
C570 C571 1.363 . S
C570 C576 1.379 . S
C570 N578 1.356 . S
C571 C570 1.363 . S
C571 C577 1.363 . S
C572 C573 1.363 . S
C572 C577 1.379 . S
C572 N579 1.356 . S
C573 C572 1.363 . S
C573 C576 1.363 . S
N574 C576 1.356 . S
N574 H586 0.984 . S
N574 H587 0.985 . S
N575 C577 1.356 1_565 S
N575 H580 0.984 . S
N575 H581 0.985 . S
C576 C570 1.379 . S
C576 C573 1.363 . S
C576 N574 1.356 . S
C577 C571 1.363 . S
C577 C572 1.379 . S
C577 N575 1.356 1_545 S
N578 C570 1.356 . S
N578 H584 0.984 . S
N578 H585 0.984 . S
N579 C572 1.356 . S
N579 H582 0.984 . S
N579 H583 0.985 . S
H580 N575 0.984 . S
H581 N575 0.985 . S
H582 N579 0.984 . S
H583 N579 0.985 . S
H584 N578 0.984 . S
H585 N578 0.984 . S
H586 N574 0.984 . S
H587 N574 0.985 . S
C157 C43 1.592 . S
C159 C10 1.592 . S
C175 C17 1.591 . S
C177 C56 1.591 . S
C193 C75 1.591 . S
C195 C36 1.591 . S
C211 C82 1.592 . S
C213 C121 1.592 . S
C229 C134 1.591 . S
C231 C101 1.591 . S
C247 C114 1.591 . S
C249 C147 1.591 . S
C265 C108 1.625 . S
C267 C4 1.625 . S
C283 C23 1.625 . S
C285 C127 1.625 . S
C301 C30 1.626 . S
C303 C140 1.626 . S
C319 C49 1.625 . S
C321 C153 1.625 . S
C337 C88 1.625 . S
C339 C62 1.625 . S
C355 C95 1.625 . S
C357 C69 1.625 . S
C373 C94 1.354 . S
C375 C3 1.354 . S
C391 C18 1.354 . S
C393 C107 1.354 . S
C409 C29 1.354 . S
C411 C122 1.354 . S
C427 C44 1.354 . S
C429 C135 1.354 . S
C445 C148 1.354 . S
C447 C57 1.354 . S
C463 C68 1.354 . S
C465 C83 1.354 . S
C481 C133 1.433 . S
C483 C5 1.433 . S
C499 C146 1.433 . S
C501 C16 1.433 . S
C517 C81 1.433 . S
C519 C31 1.433 . S
C535 C42 1.433 . S
C537 C96 1.433 . S
C553 C55 1.433 . S
C555 C109 1.433 . S
C571 C70 1.433 . S
C573 C120 1.433 . S
