# Generated by pormake.
# Topology uoh, (4)-cn, num edge types: 1
# Building blocks:
#     Node 0, Type 0, BuildingBlock: QUQFOY_clean_sbu_3, # of connection points: 4
#     Node 1, Type 0, BuildingBlock: QUQFOY_clean_sbu_3, # of connection points: 4
#     Node 2, Type 0, BuildingBlock: QUQFOY_clean_sbu_3, # of connection points: 4
#     Node 3, Type 0, BuildingBlock: QUQFOY_clean_sbu_3, # of connection points: 4
#     Node 4, Type 0, BuildingBlock: QUQFOY_clean_sbu_3, # of connection points: 4
#     Node 5, Type 0, BuildingBlock: QUQFOY_clean_sbu_3, # of connection points: 4
#     Node 6, Type 0, BuildingBlock: QUQFOY_clean_sbu_3, # of connection points: 4
#     Node 7, Type 0, BuildingBlock: QUQFOY_clean_sbu_3, # of connection points: 4
#     Node 8, Type 0, BuildingBlock: QUQFOY_clean_sbu_3, # of connection points: 4
#     Node 9, Type 0, BuildingBlock: QUQFOY_clean_sbu_3, # of connection points: 4
#     Node 10, Type 0, BuildingBlock: QUQFOY_clean_sbu_3, # of connection points: 4
#     Node 11, Type 0, BuildingBlock: QUQFOY_clean_sbu_3, # of connection points: 4
#     Node 12, Type 0, BuildingBlock: QUQFOY_clean_sbu_3, # of connection points: 4
#     Node 13, Type 0, BuildingBlock: QUQFOY_clean_sbu_3, # of connection points: 4
#     Node 14, Type 0, BuildingBlock: QUQFOY_clean_sbu_3, # of connection points: 4
#     Node 15, Type 0, BuildingBlock: QUQFOY_clean_sbu_3, # of connection points: 4
#     Node 16, Type 0, BuildingBlock: QUQFOY_clean_sbu_3, # of connection points: 4
#     Node 17, Type 0, BuildingBlock: QUQFOY_clean_sbu_3, # of connection points: 4
#     Node 18, Type 0, BuildingBlock: QUQFOY_clean_sbu_3, # of connection points: 4
#     Node 19, Type 0, BuildingBlock: QUQFOY_clean_sbu_3, # of connection points: 4
#     Node 20, Type 0, BuildingBlock: QUQFOY_clean_sbu_3, # of connection points: 4
#     Node 21, Type 0, BuildingBlock: QUQFOY_clean_sbu_3, # of connection points: 4
#     Node 22, Type 0, BuildingBlock: QUQFOY_clean_sbu_3, # of connection points: 4
#     Node 23, Type 0, BuildingBlock: QUQFOY_clean_sbu_3, # of connection points: 4
#     Node 24, Type 0, BuildingBlock: QUQFOY_clean_sbu_3, # of connection points: 4
#     Node 25, Type 0, BuildingBlock: QUQFOY_clean_sbu_3, # of connection points: 4
#     Node 26, Type 0, BuildingBlock: QUQFOY_clean_sbu_3, # of connection points: 4
#     Node 27, Type 0, BuildingBlock: QUQFOY_clean_sbu_3, # of connection points: 4
#     Node 28, Type 0, BuildingBlock: QUQFOY_clean_sbu_3, # of connection points: 4
#     Node 29, Type 0, BuildingBlock: QUQFOY_clean_sbu_3, # of connection points: 4
#     Node 30, Type 0, BuildingBlock: QUQFOY_clean_sbu_3, # of connection points: 4
#     Node 31, Type 0, BuildingBlock: QUQFOY_clean_sbu_3, # of connection points: 4
#     Node 32, Type 0, BuildingBlock: QUQFOY_clean_sbu_3, # of connection points: 4
#     Node 33, Type 0, BuildingBlock: QUQFOY_clean_sbu_3, # of connection points: 4
#     Node 34, Type 0, BuildingBlock: QUQFOY_clean_sbu_3, # of connection points: 4
#     Node 35, Type 0, BuildingBlock: QUQFOY_clean_sbu_3, # of connection points: 4
#     Edge 36, Type (0, 0), None
#     Edge 37, Type (0, 0), None
#     Edge 38, Type (0, 0), None
#     Edge 39, Type (0, 0), None
#     Edge 40, Type (0, 0), None
#     Edge 41, Type (0, 0), None
#     Edge 42, Type (0, 0), None
#     Edge 43, Type (0, 0), None
#     Edge 44, Type (0, 0), None
#     Edge 45, Type (0, 0), None
#     Edge 46, Type (0, 0), None
#     Edge 47, Type (0, 0), None
#     Edge 48, Type (0, 0), None
#     Edge 49, Type (0, 0), None
#     Edge 50, Type (0, 0), None
#     Edge 51, Type (0, 0), None
#     Edge 52, Type (0, 0), None
#     Edge 53, Type (0, 0), None
#     Edge 54, Type (0, 0), None
#     Edge 55, Type (0, 0), None
#     Edge 56, Type (0, 0), None
#     Edge 57, Type (0, 0), None
#     Edge 58, Type (0, 0), None
#     Edge 59, Type (0, 0), None
#     Edge 60, Type (0, 0), None
#     Edge 61, Type (0, 0), None
#     Edge 62, Type (0, 0), None
#     Edge 63, Type (0, 0), None
#     Edge 64, Type (0, 0), None
#     Edge 65, Type (0, 0), None
#     Edge 66, Type (0, 0), None
#     Edge 67, Type (0, 0), None
#     Edge 68, Type (0, 0), None
#     Edge 69, Type (0, 0), None
#     Edge 70, Type (0, 0), None
#     Edge 71, Type (0, 0), None
#     Edge 72, Type (0, 0), None
#     Edge 73, Type (0, 0), None
#     Edge 74, Type (0, 0), None
#     Edge 75, Type (0, 0), None
#     Edge 76, Type (0, 0), None
#     Edge 77, Type (0, 0), None
#     Edge 78, Type (0, 0), None
#     Edge 79, Type (0, 0), None
#     Edge 80, Type (0, 0), None
#     Edge 81, Type (0, 0), None
#     Edge 82, Type (0, 0), None
#     Edge 83, Type (0, 0), None
#     Edge 84, Type (0, 0), None
#     Edge 85, Type (0, 0), None
#     Edge 86, Type (0, 0), None
#     Edge 87, Type (0, 0), None
#     Edge 88, Type (0, 0), None
#     Edge 89, Type (0, 0), None
#     Edge 90, Type (0, 0), None
#     Edge 91, Type (0, 0), None
#     Edge 92, Type (0, 0), None
#     Edge 93, Type (0, 0), None
#     Edge 94, Type (0, 0), None
#     Edge 95, Type (0, 0), None
#     Edge 96, Type (0, 0), None
#     Edge 97, Type (0, 0), None
#     Edge 98, Type (0, 0), None
#     Edge 99, Type (0, 0), None
#     Edge 100, Type (0, 0), None
#     Edge 101, Type (0, 0), None
#     Edge 102, Type (0, 0), None
#     Edge 103, Type (0, 0), None
#     Edge 104, Type (0, 0), None
#     Edge 105, Type (0, 0), None
#     Edge 106, Type (0, 0), None
#     Edge 107, Type (0, 0), None
# Relax obj value: 0.084
# Max RMSD: 0.142
# Mean RMSD: 0.142
data_MOF--net-uoh--node1-QUQFOY_clean_sbu_3--edge1-none
_symmetry_space_group_name_H-M    P1
_symmetry_Int_Tables_number       1
_symmetry_cell_setting            triclinic
loop_
_symmetry_equiv_pos_as_xyz
'x, y, z'
_cell_length_a     45.244645
_cell_length_b     45.216048
_cell_length_c     12.89076
_cell_angle_alpha  90.082449
_cell_angle_beta   89.837672
_cell_angle_gamma 119.94106
loop_
_atom_site_label
_atom_site_type_symbol
_atom_site_fract_x
_atom_site_fract_y
_atom_site_fract_z
_atom_type_partial_charge
C0 C 0.17234 0.05988 0.05213 0.0
O1 O 0.17877 0.04224 0.1149 0.0
Cd2 Cd 0.19625 0.05632 0.29079 0.0
O3 O 0.17167 0.08624 0.08113 0.0
Cd4 Cd 0.18793 0.11865 0.23705 0.0
C5 C 0.26223 0.12264 0.1728 0.0
O6 O 0.16313 0.07786 0.375 0.0
O7 O 0.20039 0.13046 0.41403 0.0
O8 O 0.14036 0.12469 0.21546 0.0
C9 C 0.17654 0.10141 0.44272 0.0
O10 O 0.25313 0.09624 0.22845 0.0
C11 C 0.15693 0.15693 0.22455 0.0
O12 O 0.24356 0.13614 0.16401 0.0
O13 O 0.18932 0.17217 0.22899 0.0
C14 C 0.84837 0.09366 0.05072 0.0
O15 O 0.86576 0.11783 0.11344 0.0
Cd16 Cd 0.85199 0.12139 0.28973 0.0
O17 O 0.82225 0.06648 0.07984 0.0
Cd18 Cd 0.78988 0.05083 0.23601 0.0
C19 C 0.78577 0.12113 0.17259 0.0
O20 O 0.83071 0.06679 0.37347 0.0
O21 O 0.77819 0.05172 0.41308 0.0
O22 O 0.78344 -0.00301 0.21479 0.0
C23 C 0.80717 0.05673 0.44137 0.0
O24 O 0.81203 0.13842 0.22865 0.0
C25 C 0.75123 -0.01842 0.22436 0.0
O26 O 0.77246 0.08902 0.16327 0.0
O27 O 0.73619 -0.00104 0.22879 0.0
C28 C 0.81455 0.73599 0.05152 0.0
O29 O 0.7906 0.72998 0.1146 0.0
Cd30 Cd 0.78699 0.71216 0.29021 0.0
O31 O 0.84129 0.73612 0.0802 0.0
Cd32 Cd 0.85735 0.71987 0.23615 0.0
C33 C 0.78703 0.64583 0.17251 0.0
O34 O 0.84154 0.74494 0.37408 0.0
O35 O 0.85627 0.70718 0.41303 0.0
O36 O 0.91094 0.76738 0.21446 0.0
C37 C 0.85142 0.73129 0.4417 0.0
O38 O 0.76983 0.65522 0.22776 0.0
C39 C 0.92657 0.75076 0.224 0.0
O40 O 0.8192 0.66425 0.16373 0.0
O41 O 0.90942 0.71835 0.22838 0.0
C42 C 0.0415 0.19046 0.40402 0.0
O43 O 0.02403 0.19714 0.34138 0.0
Cd44 Cd 0.03791 0.21447 0.1652 0.0
O45 O 0.06768 0.18948 0.37481 0.0
Cd46 Cd 0.10006 0.20596 0.21867 0.0
C47 C 0.10417 0.28039 0.28255 0.0
O48 O 0.05926 0.18116 0.08111 0.0
O49 O 0.11182 0.21844 0.04161 0.0
O50 O 0.10633 0.15848 0.24006 0.0
C51 C 0.08279 0.19456 0.0132 0.0
O52 O 0.07788 0.2714 0.22675 0.0
C53 C 0.13856 0.17518 0.23074 0.0
O54 O 0.11753 0.26159 0.29157 0.0
O55 O 0.15367 0.20759 0.22623 0.0
C56 C 0.71769 0.83273 0.40306 0.0
O57 O 0.71161 0.80876 0.34009 0.0
Cd58 Cd 0.69388 0.80523 0.16448 0.0
O59 O 0.71793 0.85955 0.37428 0.0
Cd60 Cd 0.70177 0.87573 0.21843 0.0
C61 C 0.62767 0.80539 0.28259 0.0
O62 O 0.72672 0.85984 0.08035 0.0
O63 O 0.68918 0.87485 0.04158 0.0
O64 O 0.74934 0.92928 0.24012 0.0
C65 C 0.71317 0.86983 0.01277 0.0
O66 O 0.63699 0.78816 0.22725 0.0
C67 C 0.7328 0.94499 0.23089 0.0
O68 O 0.64614 0.83758 0.29122 0.0
O69 O 0.70041 0.9279 0.22653 0.0
C70 C 0.07481 0.86653 0.40438 0.0
O71 O 0.09887 0.88429 0.34152 0.0
Cd72 Cd 0.10262 0.87037 0.16559 0.0
O73 O 0.04795 0.84009 0.37543 0.0
Cd74 Cd 0.03232 0.80783 0.21927 0.0
C75 C 0.10276 0.80417 0.28267 0.0
O76 O 0.04807 0.84873 0.08182 0.0
O77 O 0.03348 0.79631 0.04231 0.0
O78 O -0.02147 0.80136 0.24066 0.0
C79 C 0.0382 0.82522 0.014 0.0
O80 O 0.11995 0.83065 0.2272 0.0
C81 C -0.03688 0.76915 0.23086 0.0
O82 O 0.0706 0.79052 0.29165 0.0
O83 O -0.01952 0.75407 0.22643 0.0
C84 C 0.71768 0.86666 0.90317 0.0
O85 O 0.71126 0.88431 0.84044 0.0
Cd86 Cd 0.69373 0.87024 0.66459 0.0
O87 O 0.71832 0.84027 0.87418 0.0
Cd88 Cd 0.702 0.80786 0.71828 0.0
C89 C 0.62774 0.80394 0.78268 0.0
O90 O 0.72677 0.84863 0.58028 0.0
O91 O 0.68946 0.79603 0.54137 0.0
O92 O 0.74955 0.80175 0.73968 0.0
C93 C 0.7133 0.82507 0.51261 0.0
O94 O 0.63686 0.83035 0.72703 0.0
C95 C 0.73294 0.76951 0.73064 0.0
O96 O 0.6464 0.79042 0.79142 0.0
O97 O 0.70055 0.75431 0.72631 0.0
C98 C 0.04119 0.83289 0.9045 0.0
O99 O 0.02378 0.8087 0.84185 0.0
Cd100 Cd 0.03749 0.80506 0.66556 0.0
O101 O 0.06732 0.86005 0.87536 0.0
Cd102 Cd 0.09967 0.87561 0.71921 0.0
C103 C 0.10365 0.80523 0.78277 0.0
O104 O 0.05888 0.85966 0.58169 0.0
O105 O 0.1114 0.87467 0.54223 0.0
O106 O 0.10621 0.92948 0.74027 0.0
C107 C 0.08243 0.86968 0.51386 0.0
O108 O 0.07739 0.78795 0.72672 0.0
C109 C 0.13842 0.94484 0.73077 0.0
O110 O 0.11699 0.83735 0.79202 0.0
O111 O 0.15342 0.92741 0.72644 0.0
C112 C 0.07512 0.19012 0.90372 0.0
O113 O 0.09909 0.19617 0.8407 0.0
Cd114 Cd 0.10278 0.21403 0.66512 0.0
O115 O 0.04838 0.19 0.87505 0.0
Cd116 Cd 0.03241 0.20635 0.71916 0.0
C117 C 0.10277 0.28035 0.78304 0.0
O118 O 0.04823 0.18132 0.58117 0.0
O119 O 0.03354 0.21912 0.54235 0.0
O120 O -0.02122 0.15888 0.74063 0.0
C121 C 0.03839 0.19501 0.51361 0.0
O122 O 0.11996 0.27097 0.72771 0.0
C123 C -0.03681 0.17554 0.73115 0.0
O124 O 0.0706 0.26194 0.79179 0.0
O125 O -0.01962 0.20795 0.72689 0.0
C126 C 0.84831 0.73587 0.55128 0.0
O127 O 0.86579 0.72921 0.61392 0.0
Cd128 Cd 0.85182 0.71178 0.79 0.0
O129 O 0.82208 0.73677 0.58042 0.0
Cd130 Cd 0.78967 0.72033 0.73651 0.0
C131 C 0.78553 0.6459 0.67243 0.0
O132 O 0.83044 0.74504 0.87417 0.0
O133 O 0.77785 0.70778 0.91354 0.0
O134 O 0.78349 0.76787 0.71516 0.0
C135 C 0.80689 0.73161 0.94203 0.0
O136 O 0.81183 0.65489 0.72822 0.0
C137 C 0.75127 0.75121 0.72443 0.0
O138 O 0.77217 0.66469 0.66346 0.0
O139 O 0.73611 0.7188 0.72889 0.0
C140 C 0.17211 0.09373 0.55226 0.0
O141 O 0.17812 0.11768 0.61523 0.0
Cd142 Cd 0.19595 0.12121 0.79073 0.0
O143 O 0.17199 0.06696 0.581 0.0
Cd144 Cd 0.18808 0.05069 0.73681 0.0
C145 C 0.26214 0.12101 0.67242 0.0
O146 O 0.1632 0.06662 0.87499 0.0
O147 O 0.20074 0.05159 0.91361 0.0
O148 O 0.14043 -0.0028 0.7151 0.0
C149 C 0.17679 0.05666 0.94252 0.0
O150 O 0.2528 0.13824 0.72766 0.0
C151 C 0.15692 -0.01857 0.72427 0.0
O152 O 0.2437 0.08881 0.66392 0.0
O153 O 0.18931 -0.00154 0.72863 0.0
C154 C 0.81483 0.05988 0.55084 0.0
O155 O 0.7908 0.04209 0.61372 0.0
Cd156 Cd 0.78706 0.05612 0.78955 0.0
O157 O 0.84166 0.08637 0.57971 0.0
Cd158 Cd 0.85742 0.11866 0.73585 0.0
C159 C 0.78705 0.12239 0.67228 0.0
O160 O 0.84159 0.07779 0.87344 0.0
O161 O 0.85623 0.13025 0.91276 0.0
O162 O 0.91117 0.12499 0.71451 0.0
C163 C 0.85143 0.10131 0.94119 0.0
O164 O 0.76985 0.0959 0.72766 0.0
C165 C 0.92663 0.15721 0.72426 0.0
O166 O 0.81922 0.13605 0.66338 0.0
O167 O 0.90934 0.17235 0.72863 0.0
C168 C 0.83923 0.39327 0.3854 0.0
O169 O 0.84559 0.37559 0.44821 0.0
Cd170 Cd 0.86314 0.38976 0.62402 0.0
O171 O 0.83863 0.41968 0.41436 0.0
Cd172 Cd 0.85477 0.45209 0.57032 0.0
C173 C 0.9291 0.45618 0.50605 0.0
O174 O 0.83 0.41128 0.70824 0.0
O175 O 0.86725 0.46387 0.74733 0.0
O176 O 0.80715 0.45805 0.54868 0.0
C177 C 0.84342 0.43482 0.776 0.0
O178 O 0.91997 0.42974 0.56156 0.0
C179 C 0.82368 0.4903 0.55781 0.0
O180 O 0.91043 0.46969 0.49734 0.0
O181 O 0.85608 0.50558 0.56229 0.0
C182 C 0.51484 0.42703 0.38403 0.0
O183 O 0.53239 0.45113 0.44679 0.0
Cd184 Cd 0.51847 0.45469 0.62294 0.0
O185 O 0.48859 0.39997 0.41312 0.0
Cd186 Cd 0.45625 0.38414 0.56937 0.0
C187 C 0.45219 0.45445 0.50592 0.0
O188 O 0.4971 0.40009 0.70673 0.0
O189 O 0.4446 0.38507 0.74648 0.0
O190 O 0.44992 0.33037 0.54788 0.0
C191 C 0.47359 0.39006 0.7747 0.0
O192 O 0.47853 0.47172 0.56158 0.0
C193 C 0.41771 0.3149 0.55757 0.0
O194 O 0.43876 0.4223 0.49682 0.0
O195 O 0.4026 0.33222 0.56216 0.0
C196 C 0.48133 0.06943 0.38478 0.0
O197 O 0.45737 0.06336 0.44787 0.0
Cd198 Cd 0.45374 0.04559 0.62354 0.0
O199 O 0.50811 0.06964 0.41345 0.0
Cd200 Cd 0.52411 0.05331 0.56938 0.0
C201 C 0.45373 -0.02075 0.50586 0.0
O202 O 0.5083 0.07838 0.70733 0.0
O203 O 0.52302 0.04062 0.74626 0.0
O204 O 0.57777 0.10078 0.54785 0.0
C205 C 0.51818 0.06473 0.77494 0.0
O206 O 0.43655 -0.01138 0.56124 0.0
C207 C 0.59334 0.08411 0.55735 0.0
O208 O 0.4859 -0.00231 0.49695 0.0
O209 O 0.57613 0.05169 0.56163 0.0
C210 C 0.70813 0.52366 0.73729 0.0
O211 O 0.69071 0.5304 0.67468 0.0
Cd212 Cd 0.70454 0.54772 0.49847 0.0
O213 O 0.73429 0.52264 0.70809 0.0
Cd214 Cd 0.76669 0.53921 0.55198 0.0
C215 C 0.77077 0.61364 0.6158 0.0
O216 O 0.72588 0.51439 0.41444 0.0
O217 O 0.77843 0.55167 0.37489 0.0
O218 O 0.77304 0.49177 0.5733 0.0
C219 C 0.74941 0.52778 0.34652 0.0
O220 O 0.7445 0.60467 0.55991 0.0
C221 C 0.80526 0.5085 0.564 0.0
O222 O 0.78412 0.59484 0.6249 0.0
O223 O 0.82033 0.54091 0.55953 0.0
C224 C 0.38447 0.16615 0.73641 0.0
O225 O 0.37836 0.14217 0.67348 0.0
Cd226 Cd 0.36068 0.1386 0.49781 0.0
O227 O 0.38474 0.19298 0.7076 0.0
Cd228 Cd 0.36848 0.20905 0.55175 0.0
C229 C 0.29442 0.13864 0.61584 0.0
O230 O 0.39348 0.19322 0.41369 0.0
O231 O 0.35589 0.20815 0.37492 0.0
O232 O 0.41597 0.26266 0.5733 0.0
C233 C 0.37991 0.20319 0.34611 0.0
O234 O 0.30375 0.12142 0.56046 0.0
C235 C 0.39936 0.2783 0.5641 0.0
O236 O 0.31288 0.17083 0.62451 0.0
O237 O 0.36697 0.26115 0.55982 0.0
C238 C 0.74189 0.19968 0.73766 0.0
O239 O 0.76588 0.21749 0.67468 0.0
Cd240 Cd 0.76953 0.20342 0.49883 0.0
O241 O 0.71505 0.1732 0.70881 0.0
Cd242 Cd 0.69913 0.14091 0.5526 0.0
C243 C 0.76944 0.13707 0.61604 0.0
O244 O 0.715 0.1818 0.41504 0.0
O245 O 0.70034 0.12935 0.37564 0.0
O246 O 0.64539 0.13463 0.57401 0.0
C247 C 0.70515 0.15829 0.34723 0.0
O248 O 0.78665 0.16357 0.56071 0.0
C249 C 0.6299 0.10241 0.56423 0.0
O250 O 0.73727 0.12342 0.62496 0.0
O251 O 0.64717 0.08725 0.55982 0.0
C252 C 0.38444 0.20004 0.23652 0.0
O253 O 0.37797 0.21767 0.17382 0.0
Cd254 Cd 0.36046 0.20364 -0.00205 0.0
O255 O 0.38512 0.17369 0.2075 0.0
Cd256 Cd 0.36875 0.14128 0.05161 0.0
C257 C 0.29448 0.13736 0.11603 0.0
O258 O 0.39353 0.18206 0.91363 0.0
O259 O 0.35621 0.12946 0.87471 0.0
O260 O 0.41629 0.13517 0.07297 0.0
C261 C 0.38007 0.1585 0.84597 0.0
O262 O 0.30358 0.16375 0.06034 0.0
C263 C 0.39968 0.10293 0.06393 0.0
O264 O 0.31315 0.12385 0.1248 0.0
O265 O 0.36729 0.08772 0.05962 0.0
C266 C 0.70827 0.16598 0.23771 0.0
O267 O 0.69084 0.14182 0.17496 0.0
Cd268 Cd 0.70474 0.13827 -0.0012 0.0
O269 O 0.73445 0.19311 0.20869 0.0
Cd270 Cd 0.76686 0.2089 0.05253 0.0
C271 C 0.77103 0.13865 0.11613 0.0
O272 O 0.72603 0.19286 0.91504 0.0
O273 O 0.77856 0.20796 0.87544 0.0
O274 O 0.77323 0.26272 0.07372 0.0
C275 C 0.74955 0.2029 0.84713 0.0
O276 O 0.74474 0.12134 0.06018 0.0
C277 C 0.80545 0.27816 0.06415 0.0
O278 O 0.78435 0.17077 0.12535 0.0
O279 O 0.82051 0.26079 0.05974 0.0
C280 C 0.74173 0.52332 0.23705 0.0
O281 O 0.7657 0.52938 0.17403 0.0
Cd282 Cd 0.76939 0.5472 -0.0016 0.0
O283 O 0.71497 0.52316 0.20837 0.0
Cd284 Cd 0.69901 0.53951 0.05243 0.0
C285 C 0.76938 0.61353 0.11619 0.0
O286 O 0.71485 0.51449 0.91444 0.0
O287 O 0.70017 0.55231 0.87565 0.0
O288 O 0.64534 0.49206 0.07378 0.0
C289 C 0.70501 0.5282 0.84689 0.0
O290 O 0.78657 0.60415 0.06086 0.0
C291 C 0.6298 0.50875 0.06431 0.0
O292 O 0.7372 0.59511 0.12499 0.0
O293 O 0.64702 0.54117 0.06012 0.0
C294 C 0.51506 0.0693 0.88453 0.0
O295 O 0.53256 0.06267 0.94716 0.0
Cd296 Cd 0.51859 0.04523 0.12323 0.0
O297 O 0.48882 0.07017 0.91367 0.0
Cd298 Cd 0.45642 0.05376 0.06979 0.0
C299 C 0.45226 -0.02067 0.00578 0.0
O300 O 0.4972 0.07849 0.20742 0.0
O301 O 0.44463 0.04122 0.24683 0.0
O302 O 0.45023 0.10129 0.04841 0.0
C303 C 0.47366 0.06505 0.27529 0.0
O304 O 0.47858 -0.01166 0.06147 0.0
C305 C 0.41801 0.08463 0.05771 0.0
O306 O 0.43888 -0.00189 -0.00316 0.0
O307 O 0.40286 0.05222 0.06221 0.0
C308 C 0.83901 0.42711 0.88554 0.0
O309 O 0.84505 0.45106 0.94855 0.0
Cd310 Cd 0.86285 0.45457 0.12407 0.0
O311 O 0.83884 0.40032 0.91422 0.0
Cd312 Cd 0.85493 0.38402 0.07004 0.0
C313 C 0.92903 0.45434 0.0058 0.0
O314 O 0.83006 0.39997 0.20824 0.0
O315 O 0.8676 0.38494 0.24688 0.0
O316 O 0.80732 0.33046 0.04846 0.0
C317 C 0.84366 0.39002 0.27579 0.0
O318 O 0.9197 0.47157 0.0611 0.0
C319 C 0.82386 0.31475 0.05762 0.0
O320 O 0.91057 0.42214 -0.00281 0.0
O321 O 0.85626 0.33184 0.0619 0.0
C322 C 0.48128 0.39323 0.88415 0.0
O323 O 0.45726 0.37544 0.9471 0.0
Cd324 Cd 0.45359 0.38953 0.12293 0.0
O325 O 0.50812 0.41972 0.91296 0.0
Cd326 Cd 0.52402 0.45202 0.06911 0.0
C327 C 0.45371 0.45587 0.00559 0.0
O328 O 0.50812 0.41116 0.20675 0.0
O329 O 0.52285 0.46365 0.24603 0.0
O330 O 0.57772 0.45825 0.0477 0.0
C331 C 0.51798 0.43469 0.27451 0.0
O332 O 0.43649 0.42938 0.06097 0.0
C333 C 0.59323 0.49047 0.05743 0.0
O334 O 0.48587 0.4695 -0.00333 0.0
O335 O 0.57598 0.50565 0.06181 0.0
C336 C 0.50556 0.72654 0.71873 0.0
O337 O 0.51198 0.70889 0.78147 0.0
Cd338 Cd 0.52948 0.72293 0.95735 0.0
O339 O 0.5049 0.75291 0.74777 0.0
Cd340 Cd 0.52121 0.7853 0.9037 0.0
C341 C 0.59549 0.78923 0.83943 0.0
O342 O 0.49637 0.74449 0.04159 0.0
O343 O 0.53367 0.79707 0.08067 0.0
O344 O 0.47366 0.79137 0.88215 0.0
C345 C 0.50979 0.76804 0.10933 0.0
O346 O 0.58636 0.76283 0.89506 0.0
C347 C 0.49024 0.82361 0.89126 0.0
O348 O 0.57683 0.80275 0.83066 0.0
O349 O 0.52263 0.83884 0.8957 0.0
C350 C 0.18131 0.76062 0.7176 0.0
O351 O 0.19883 0.78471 0.78042 0.0
Cd352 Cd 0.18478 0.78819 0.95648 0.0
O353 O 0.15505 0.73355 0.74661 0.0
Cd354 Cd 0.12266 0.71756 0.90284 0.0
C355 C 0.11839 0.78771 0.83922 0.0
O356 O 0.16353 0.7336 0.04021 0.0
O357 O 0.11101 0.71845 0.08002 0.0
O358 O 0.11653 0.66386 0.88121 0.0
C359 C 0.14003 0.72353 0.10822 0.0
O360 O 0.14473 0.80503 0.89491 0.0
C361 C 0.08432 0.64829 0.89093 0.0
O362 O 0.10502 0.75558 0.83017 0.0
O363 O 0.06912 0.66552 0.8956 0.0
C364 C 0.14798 0.40277 0.71837 0.0
O365 O 0.12402 0.39673 0.78146 0.0
Cd366 Cd 0.12041 0.37897 0.95714 0.0
O367 O 0.17476 0.40297 0.74706 0.0
Cd368 Cd 0.19078 0.38669 0.90301 0.0
C369 C 0.12042 0.31264 0.8394 0.0
O370 O 0.17497 0.41173 0.04099 0.0
O371 O 0.18969 0.37396 0.07985 0.0
O372 O 0.24441 0.43417 0.88145 0.0
C373 C 0.18485 0.39808 0.10857 0.0
O374 O 0.10323 0.32201 0.89476 0.0
C375 C 0.26 0.41751 0.89094 0.0
O376 O 0.1526 0.33107 0.83055 0.0
O377 O 0.24281 0.3851 0.89523 0.0
C378 C 0.37478 0.85708 0.07075 0.0
O379 O 0.35731 0.86376 0.00813 0.0
Cd380 Cd 0.3712 0.88112 0.83197 0.0
O381 O 0.40098 0.85613 0.04154 0.0
Cd382 Cd 0.43336 0.87263 0.8854 0.0
C383 C 0.43748 0.94706 0.94921 0.0
O384 O 0.39254 0.8478 0.7479 0.0
O385 O 0.44509 0.88507 0.7083 0.0
O386 O 0.43965 0.82517 0.90683 0.0
C387 C 0.41606 0.86119 0.67996 0.0
O388 O 0.41117 0.93806 0.89346 0.0
C389 C 0.47187 0.84186 0.89747 0.0
O390 O 0.45085 0.92827 0.95824 0.0
O391 O 0.48698 0.87427 0.89291 0.0
C392 C 0.05144 0.49967 0.06995 0.0
O393 O 0.04525 0.47565 0.00705 0.0
Cd394 Cd 0.02761 0.47204 0.83132 0.0
O395 O 0.05179 0.52654 0.04111 0.0
Cd396 Cd 0.03538 0.54245 0.88528 0.0
C397 C -0.03868 0.47197 0.94926 0.0
O398 O 0.06042 0.52666 0.7472 0.0
O399 O 0.02278 0.54154 0.70847 0.0
O400 O 0.08277 0.59615 0.90664 0.0
C401 C 0.04683 0.53663 0.67965 0.0
O402 O -0.02936 0.45477 0.89374 0.0
C403 C 0.06608 0.6117 0.89748 0.0
O404 O -0.02021 0.50415 0.95806 0.0
O405 O 0.03369 0.59446 0.89329 0.0
C406 C 0.40847 0.53312 0.0711 0.0
O407 O 0.43249 0.55088 0.00814 0.0
Cd408 Cd 0.43615 0.53687 0.83223 0.0
O409 O 0.38159 0.50668 0.04224 0.0
Cd410 Cd 0.36577 0.47439 0.88606 0.0
C411 C 0.43611 0.47056 0.94936 0.0
O412 O 0.3816 0.51528 0.74852 0.0
O413 O 0.3669 0.46282 0.70908 0.0
O414 O 0.31202 0.46806 0.90755 0.0
C415 C 0.37171 0.49177 0.68071 0.0
O416 O 0.45332 0.49704 0.89393 0.0
C417 C 0.29656 0.43584 0.89778 0.0
O418 O 0.40395 0.45695 0.95837 0.0
O419 O 0.31385 0.42071 0.89333 0.0
C420 C 0.05138 0.53351 0.57005 0.0
O421 O 0.04486 0.55111 0.5074 0.0
Cd422 Cd 0.02739 0.53716 0.33147 0.0
O423 O 0.0521 0.50717 0.54099 0.0
Cd424 Cd 0.03563 0.47479 0.3851 0.0
C425 C -0.03863 0.47091 0.44936 0.0
O426 O 0.06047 0.51558 0.24717 0.0
O427 O 0.02313 0.46299 0.20821 0.0
O428 O 0.0831 0.46857 0.40644 0.0
C429 C 0.04701 0.49201 0.1795 0.0
O430 O -0.02953 0.4973 0.39364 0.0
C431 C 0.06644 0.43632 0.39741 0.0
O432 O -0.01996 0.45741 0.45819 0.0
O433 O 0.03405 0.42117 0.39309 0.0
C434 C 0.3748 0.49945 0.5712 0.0
O435 O 0.35726 0.47533 0.50848 0.0
Cd436 Cd 0.37118 0.47173 0.33237 0.0
O437 O 0.40107 0.5265 0.54213 0.0
Cd438 Cd 0.43342 0.5423 0.38592 0.0
C439 C 0.43745 0.47198 0.44953 0.0
O440 O 0.3926 0.52632 0.24847 0.0
O441 O 0.44511 0.54133 0.20889 0.0
O442 O 0.43976 0.59609 0.40724 0.0
C443 C 0.41613 0.53632 0.18057 0.0
O444 O 0.41111 0.45471 0.39385 0.0
C445 C 0.47198 0.61154 0.39763 0.0
O446 O 0.45088 0.50413 0.4586 0.0
O447 O 0.48707 0.59421 0.39314 0.0
C448 C 0.40837 0.85672 0.57048 0.0
O449 O 0.43236 0.86283 0.50745 0.0
Cd450 Cd 0.43604 0.88061 0.33177 0.0
O451 O 0.38158 0.8565 0.54183 0.0
Cd452 Cd 0.36566 0.8729 0.38592 0.0
C453 C 0.43607 0.94694 0.44956 0.0
O454 O 0.38149 0.84789 0.24788 0.0
O455 O 0.3668 0.8857 0.20913 0.0
O456 O 0.31195 0.82547 0.40719 0.0
C457 C 0.37165 0.86159 0.18035 0.0
O458 O 0.45325 0.93758 0.39412 0.0
C459 C 0.29643 0.84219 0.39777 0.0
O460 O 0.4039 0.9285 0.45847 0.0
O461 O 0.31368 0.87461 0.39364 0.0
C462 C 0.18173 0.40263 0.21816 0.0
O463 O 0.19925 0.39602 0.28078 0.0
Cd464 Cd 0.18524 0.37852 0.4568 0.0
O465 O 0.15547 0.40346 0.24732 0.0
Cd466 Cd 0.12306 0.38704 0.4034 0.0
C467 C 0.11894 0.31264 0.3392 0.0
O468 O 0.16385 0.41178 0.54101 0.0
O469 O 0.11127 0.37452 0.58045 0.0
O470 O 0.11695 0.4346 0.38192 0.0
C471 C 0.14031 0.39836 0.60889 0.0
O472 O 0.14526 0.32165 0.39489 0.0
C473 C 0.08472 0.41798 0.39122 0.0
O474 O 0.10554 0.33141 0.33035 0.0
O475 O 0.06953 0.38557 0.39578 0.0
C476 C 0.50534 0.76035 0.21887 0.0
O477 O 0.51144 0.78434 0.2818 0.0
Cd478 Cd 0.52919 0.7879 0.4574 0.0
O479 O 0.5051 0.73353 0.24762 0.0
Cd480 Cd 0.52132 0.7174 0.40343 0.0
C481 C 0.59539 0.78777 0.33917 0.0
O482 O 0.49641 0.7333 0.54161 0.0
O483 O 0.53399 0.71831 0.58021 0.0
O484 O 0.47377 0.66381 0.38196 0.0
C485 C 0.51001 0.72334 0.60912 0.0
O486 O 0.58607 0.805 0.39455 0.0
C487 C 0.49035 0.64814 0.39109 0.0
O488 O 0.57692 0.75558 0.33054 0.0
O489 O 0.52275 0.66527 0.39531 0.0
C490 C 0.14774 0.72674 0.21767 0.0
O491 O 0.12378 0.70889 0.2807 0.0
Cd492 Cd 0.12016 0.72309 0.45644 0.0
O493 O 0.17454 0.75329 0.24642 0.0
Cd494 Cd 0.19063 0.78561 0.4026 0.0
C495 C 0.12038 0.7895 0.33893 0.0
O496 O 0.17468 0.74476 0.54031 0.0
O497 O 0.18941 0.79725 0.57952 0.0
O498 O 0.24431 0.79173 0.38116 0.0
C499 C 0.18451 0.76829 0.60806 0.0
O500 O 0.10315 0.76298 0.39418 0.0
C501 C 0.25987 0.82395 0.39089 0.0
O502 O 0.15255 0.80317 0.33014 0.0
O503 O 0.24266 0.83918 0.39528 0.0
loop_
_geom_bond_atom_site_label_1
_geom_bond_atom_site_label_2
_geom_bond_distance
_geom_bond_site_symmetry_2
_ccdc_geom_bond_type
C0 O1 1.306 . S
C0 O3 1.160 . S
O1 C0 1.306 . S
O1 Cd2 2.228 . S
Cd2 O1 2.228 . S
Cd2 O6 2.273 . S
Cd2 O10 2.277 . S
O3 C0 1.160 . S
O3 Cd4 2.203 . S
Cd4 O3 2.203 . S
Cd4 O6 2.411 . S
Cd4 O7 2.333 . S
Cd4 O8 2.352 . S
Cd4 O12 2.277 . S
Cd4 O13 2.356 . S
C5 O10 1.209 . S
C5 O12 1.226 . S
O6 Cd2 2.273 . S
O6 Cd4 2.411 . S
O6 C9 1.320 . S
O7 Cd4 2.333 . S
O7 C9 1.214 . S
O8 Cd4 2.352 . S
O8 C11 1.258 . S
C9 O6 1.320 . S
C9 O7 1.214 . S
O10 Cd2 2.277 . S
O10 C5 1.209 . S
C11 O8 1.258 . S
C11 O13 1.282 . S
O12 Cd4 2.277 . S
O12 C5 1.226 . S
O13 Cd4 2.356 . S
O13 C11 1.282 . S
C14 O15 1.306 . S
C14 O17 1.160 . S
O15 C14 1.306 . S
O15 Cd16 2.228 . S
Cd16 O15 2.228 . S
Cd16 O20 2.273 . S
Cd16 O24 2.277 . S
O17 C14 1.160 . S
O17 Cd18 2.203 . S
Cd18 O17 2.203 . S
Cd18 O20 2.411 . S
Cd18 O21 2.333 . S
Cd18 O22 2.352 . S
Cd18 O26 2.277 . S
Cd18 O27 2.356 . S
C19 O24 1.209 . S
C19 O26 1.226 . S
O20 Cd16 2.273 . S
O20 Cd18 2.411 . S
O20 C23 1.320 . S
O21 Cd18 2.333 . S
O21 C23 1.214 . S
O22 Cd18 2.352 . S
O22 C25 1.258 . S
C23 O20 1.320 . S
C23 O21 1.214 . S
O24 Cd16 2.277 . S
O24 C19 1.209 . S
C25 O22 1.258 . S
C25 O27 1.282 . S
O26 Cd18 2.277 . S
O26 C19 1.226 . S
O27 Cd18 2.356 . S
O27 C25 1.282 . S
C28 O29 1.306 . S
C28 O31 1.160 . S
O29 C28 1.306 . S
O29 Cd30 2.228 . S
Cd30 O29 2.228 . S
Cd30 O34 2.273 . S
Cd30 O38 2.277 . S
O31 C28 1.160 . S
O31 Cd32 2.203 . S
Cd32 O31 2.203 . S
Cd32 O34 2.411 . S
Cd32 O35 2.333 . S
Cd32 O36 2.352 . S
Cd32 O40 2.277 . S
Cd32 O41 2.356 . S
C33 O38 1.209 . S
C33 O40 1.226 . S
O34 Cd30 2.273 . S
O34 Cd32 2.411 . S
O34 C37 1.320 . S
O35 Cd32 2.333 . S
O35 C37 1.214 . S
O36 Cd32 2.352 . S
O36 C39 1.258 . S
C37 O34 1.320 . S
C37 O35 1.214 . S
O38 Cd30 2.277 . S
O38 C33 1.209 . S
C39 O36 1.258 . S
C39 O41 1.282 . S
O40 Cd32 2.277 . S
O40 C33 1.226 . S
O41 Cd32 2.356 . S
O41 C39 1.282 . S
C42 O43 1.306 . S
C42 O45 1.160 . S
O43 C42 1.306 . S
O43 Cd44 2.228 . S
Cd44 O43 2.228 . S
Cd44 O48 2.273 . S
Cd44 O52 2.277 . S
O45 C42 1.160 . S
O45 Cd46 2.203 . S
Cd46 O45 2.203 . S
Cd46 O48 2.411 . S
Cd46 O49 2.333 . S
Cd46 O50 2.352 . S
Cd46 O54 2.277 . S
Cd46 O55 2.356 . S
C47 O52 1.209 . S
C47 O54 1.226 . S
O48 Cd44 2.273 . S
O48 Cd46 2.411 . S
O48 C51 1.320 . S
O49 Cd46 2.333 . S
O49 C51 1.214 . S
O50 Cd46 2.352 . S
O50 C53 1.258 . S
C51 O48 1.320 . S
C51 O49 1.214 . S
O52 Cd44 2.277 . S
O52 C47 1.209 . S
C53 O50 1.258 . S
C53 O55 1.282 . S
O54 Cd46 2.277 . S
O54 C47 1.226 . S
O55 Cd46 2.356 . S
O55 C53 1.282 . S
C56 O57 1.306 . S
C56 O59 1.160 . S
O57 C56 1.306 . S
O57 Cd58 2.228 . S
Cd58 O57 2.228 . S
Cd58 O62 2.273 . S
Cd58 O66 2.277 . S
O59 C56 1.160 . S
O59 Cd60 2.203 . S
Cd60 O59 2.203 . S
Cd60 O62 2.411 . S
Cd60 O63 2.333 . S
Cd60 O64 2.352 . S
Cd60 O68 2.277 . S
Cd60 O69 2.356 . S
C61 O66 1.209 . S
C61 O68 1.226 . S
O62 Cd58 2.273 . S
O62 Cd60 2.411 . S
O62 C65 1.320 . S
O63 Cd60 2.333 . S
O63 C65 1.214 . S
O64 Cd60 2.352 . S
O64 C67 1.258 . S
C65 O62 1.320 . S
C65 O63 1.214 . S
O66 Cd58 2.277 . S
O66 C61 1.209 . S
C67 O64 1.258 . S
C67 O69 1.282 . S
O68 Cd60 2.277 . S
O68 C61 1.226 . S
O69 Cd60 2.356 . S
O69 C67 1.282 . S
C70 O71 1.306 . S
C70 O73 1.160 . S
O71 C70 1.306 . S
O71 Cd72 2.228 . S
Cd72 O71 2.228 . S
Cd72 O76 2.273 . S
Cd72 O80 2.277 . S
O73 C70 1.160 . S
O73 Cd74 2.203 . S
Cd74 O73 2.203 . S
Cd74 O76 2.411 . S
Cd74 O77 2.333 . S
Cd74 O78 2.352 . S
Cd74 O82 2.277 . S
Cd74 O83 2.356 . S
C75 O80 1.209 . S
C75 O82 1.226 . S
O76 Cd72 2.273 . S
O76 Cd74 2.411 . S
O76 C79 1.320 . S
O77 Cd74 2.333 . S
O77 C79 1.214 . S
O78 Cd74 2.352 . S
O78 C81 1.258 . S
C79 O76 1.320 . S
C79 O77 1.214 . S
O80 Cd72 2.277 . S
O80 C75 1.209 . S
C81 O78 1.258 . S
C81 O83 1.282 . S
O82 Cd74 2.277 . S
O82 C75 1.226 . S
O83 Cd74 2.356 . S
O83 C81 1.282 . S
C84 O85 1.306 . S
C84 O87 1.160 . S
O85 C84 1.306 . S
O85 Cd86 2.228 . S
Cd86 O85 2.228 . S
Cd86 O90 2.273 . S
Cd86 O94 2.277 . S
O87 C84 1.160 . S
O87 Cd88 2.203 . S
Cd88 O87 2.203 . S
Cd88 O90 2.411 . S
Cd88 O91 2.333 . S
Cd88 O92 2.352 . S
Cd88 O96 2.277 . S
Cd88 O97 2.356 . S
C89 O94 1.209 . S
C89 O96 1.226 . S
O90 Cd86 2.273 . S
O90 Cd88 2.411 . S
O90 C93 1.320 . S
O91 Cd88 2.333 . S
O91 C93 1.214 . S
O92 Cd88 2.352 . S
O92 C95 1.258 . S
C93 O90 1.320 . S
C93 O91 1.214 . S
O94 Cd86 2.277 . S
O94 C89 1.209 . S
C95 O92 1.258 . S
C95 O97 1.282 . S
O96 Cd88 2.277 . S
O96 C89 1.226 . S
O97 Cd88 2.356 . S
O97 C95 1.282 . S
C98 O99 1.306 . S
C98 O101 1.160 . S
O99 C98 1.306 . S
O99 Cd100 2.228 . S
Cd100 O99 2.228 . S
Cd100 O104 2.273 . S
Cd100 O108 2.277 . S
O101 C98 1.160 . S
O101 Cd102 2.203 . S
Cd102 O101 2.203 . S
Cd102 O104 2.411 . S
Cd102 O105 2.333 . S
Cd102 O106 2.352 . S
Cd102 O110 2.277 . S
Cd102 O111 2.356 . S
C103 O108 1.209 . S
C103 O110 1.226 . S
O104 Cd100 2.273 . S
O104 Cd102 2.411 . S
O104 C107 1.320 . S
O105 Cd102 2.333 . S
O105 C107 1.214 . S
O106 Cd102 2.352 . S
O106 C109 1.258 . S
C107 O104 1.320 . S
C107 O105 1.214 . S
O108 Cd100 2.277 . S
O108 C103 1.209 . S
C109 O106 1.258 . S
C109 O111 1.282 . S
O110 Cd102 2.277 . S
O110 C103 1.226 . S
O111 Cd102 2.356 . S
O111 C109 1.282 . S
C112 O113 1.306 . S
C112 O115 1.160 . S
O113 C112 1.306 . S
O113 Cd114 2.228 . S
Cd114 O113 2.228 . S
Cd114 O118 2.273 . S
Cd114 O122 2.277 . S
O115 C112 1.160 . S
O115 Cd116 2.203 . S
Cd116 O115 2.203 . S
Cd116 O118 2.411 . S
Cd116 O119 2.333 . S
Cd116 O120 2.352 . S
Cd116 O124 2.277 . S
Cd116 O125 2.356 . S
C117 O122 1.209 . S
C117 O124 1.226 . S
O118 Cd114 2.273 . S
O118 Cd116 2.411 . S
O118 C121 1.320 . S
O119 Cd116 2.333 . S
O119 C121 1.214 . S
O120 Cd116 2.352 . S
O120 C123 1.258 . S
C121 O118 1.320 . S
C121 O119 1.214 . S
O122 Cd114 2.277 . S
O122 C117 1.209 . S
C123 O120 1.258 . S
C123 O125 1.282 . S
O124 Cd116 2.277 . S
O124 C117 1.226 . S
O125 Cd116 2.356 . S
O125 C123 1.282 . S
C126 O127 1.306 . S
C126 O129 1.160 . S
O127 C126 1.306 . S
O127 Cd128 2.228 . S
Cd128 O127 2.228 . S
Cd128 O132 2.273 . S
Cd128 O136 2.277 . S
O129 C126 1.160 . S
O129 Cd130 2.203 . S
Cd130 O129 2.203 . S
Cd130 O132 2.411 . S
Cd130 O133 2.333 . S
Cd130 O134 2.352 . S
Cd130 O138 2.277 . S
Cd130 O139 2.356 . S
C131 O136 1.209 . S
C131 O138 1.226 . S
O132 Cd128 2.273 . S
O132 Cd130 2.411 . S
O132 C135 1.320 . S
O133 Cd130 2.333 . S
O133 C135 1.214 . S
O134 Cd130 2.352 . S
O134 C137 1.258 . S
C135 O132 1.320 . S
C135 O133 1.214 . S
O136 Cd128 2.277 . S
O136 C131 1.209 . S
C137 O134 1.258 . S
C137 O139 1.282 . S
O138 Cd130 2.277 . S
O138 C131 1.226 . S
O139 Cd130 2.356 . S
O139 C137 1.282 . S
C140 O141 1.306 . S
C140 O143 1.160 . S
O141 C140 1.306 . S
O141 Cd142 2.228 . S
Cd142 O141 2.228 . S
Cd142 O146 2.273 . S
Cd142 O150 2.277 . S
O143 C140 1.160 . S
O143 Cd144 2.203 . S
Cd144 O143 2.203 . S
Cd144 O146 2.411 . S
Cd144 O147 2.333 . S
Cd144 O148 2.352 . S
Cd144 O152 2.277 . S
Cd144 O153 2.356 . S
C145 O150 1.209 . S
C145 O152 1.226 . S
O146 Cd142 2.273 . S
O146 Cd144 2.411 . S
O146 C149 1.320 . S
O147 Cd144 2.333 . S
O147 C149 1.214 . S
O148 Cd144 2.352 . S
O148 C151 1.258 . S
C149 O146 1.320 . S
C149 O147 1.214 . S
O150 Cd142 2.277 . S
O150 C145 1.209 . S
C151 O148 1.258 . S
C151 O153 1.282 . S
O152 Cd144 2.277 . S
O152 C145 1.226 . S
O153 Cd144 2.356 . S
O153 C151 1.282 . S
C154 O155 1.306 . S
C154 O157 1.160 . S
O155 C154 1.306 . S
O155 Cd156 2.228 . S
Cd156 O155 2.228 . S
Cd156 O160 2.273 . S
Cd156 O164 2.277 . S
O157 C154 1.160 . S
O157 Cd158 2.203 . S
Cd158 O157 2.203 . S
Cd158 O160 2.411 . S
Cd158 O161 2.333 . S
Cd158 O162 2.352 . S
Cd158 O166 2.277 . S
Cd158 O167 2.356 . S
C159 O164 1.209 . S
C159 O166 1.226 . S
O160 Cd156 2.273 . S
O160 Cd158 2.411 . S
O160 C163 1.320 . S
O161 Cd158 2.333 . S
O161 C163 1.214 . S
O162 Cd158 2.352 . S
O162 C165 1.258 . S
C163 O160 1.320 . S
C163 O161 1.214 . S
O164 Cd156 2.277 . S
O164 C159 1.209 . S
C165 O162 1.258 . S
C165 O167 1.282 . S
O166 Cd158 2.277 . S
O166 C159 1.226 . S
O167 Cd158 2.356 . S
O167 C165 1.282 . S
C168 O169 1.306 . S
C168 O171 1.160 . S
O169 C168 1.306 . S
O169 Cd170 2.228 . S
Cd170 O169 2.228 . S
Cd170 O174 2.273 . S
Cd170 O178 2.277 . S
O171 C168 1.160 . S
O171 Cd172 2.203 . S
Cd172 O171 2.203 . S
Cd172 O174 2.411 . S
Cd172 O175 2.333 . S
Cd172 O176 2.352 . S
Cd172 O180 2.277 . S
Cd172 O181 2.356 . S
C173 O178 1.209 . S
C173 O180 1.226 . S
O174 Cd170 2.273 . S
O174 Cd172 2.411 . S
O174 C177 1.320 . S
O175 Cd172 2.333 . S
O175 C177 1.214 . S
O176 Cd172 2.352 . S
O176 C179 1.258 . S
C177 O174 1.320 . S
C177 O175 1.214 . S
O178 Cd170 2.277 . S
O178 C173 1.209 . S
C179 O176 1.258 . S
C179 O181 1.282 . S
O180 Cd172 2.277 . S
O180 C173 1.226 . S
O181 Cd172 2.356 . S
O181 C179 1.282 . S
C182 O183 1.306 . S
C182 O185 1.160 . S
O183 C182 1.306 . S
O183 Cd184 2.228 . S
Cd184 O183 2.228 . S
Cd184 O188 2.273 . S
Cd184 O192 2.277 . S
O185 C182 1.160 . S
O185 Cd186 2.203 . S
Cd186 O185 2.203 . S
Cd186 O188 2.411 . S
Cd186 O189 2.333 . S
Cd186 O190 2.352 . S
Cd186 O194 2.277 . S
Cd186 O195 2.356 . S
C187 O192 1.209 . S
C187 O194 1.226 . S
O188 Cd184 2.273 . S
O188 Cd186 2.411 . S
O188 C191 1.320 . S
O189 Cd186 2.333 . S
O189 C191 1.214 . S
O190 Cd186 2.352 . S
O190 C193 1.258 . S
C191 O188 1.320 . S
C191 O189 1.214 . S
O192 Cd184 2.277 . S
O192 C187 1.209 . S
C193 O190 1.258 . S
C193 O195 1.282 . S
O194 Cd186 2.277 . S
O194 C187 1.226 . S
O195 Cd186 2.356 . S
O195 C193 1.282 . S
C196 O197 1.306 . S
C196 O199 1.160 . S
O197 C196 1.306 . S
O197 Cd198 2.228 . S
Cd198 O197 2.228 . S
Cd198 O202 2.273 . S
Cd198 O206 2.277 . S
O199 C196 1.160 . S
O199 Cd200 2.203 . S
Cd200 O199 2.203 . S
Cd200 O202 2.411 . S
Cd200 O203 2.333 . S
Cd200 O204 2.352 . S
Cd200 O208 2.277 . S
Cd200 O209 2.356 . S
C201 O206 1.209 . S
C201 O208 1.226 . S
O202 Cd198 2.273 . S
O202 Cd200 2.411 . S
O202 C205 1.320 . S
O203 Cd200 2.333 . S
O203 C205 1.214 . S
O204 Cd200 2.352 . S
O204 C207 1.258 . S
C205 O202 1.320 . S
C205 O203 1.214 . S
O206 Cd198 2.277 . S
O206 C201 1.209 . S
C207 O204 1.258 . S
C207 O209 1.282 . S
O208 Cd200 2.277 . S
O208 C201 1.226 . S
O209 Cd200 2.356 . S
O209 C207 1.282 . S
C210 O211 1.306 . S
C210 O213 1.160 . S
O211 C210 1.306 . S
O211 Cd212 2.228 . S
Cd212 O211 2.228 . S
Cd212 O216 2.273 . S
Cd212 O220 2.277 . S
O213 C210 1.160 . S
O213 Cd214 2.203 . S
Cd214 O213 2.203 . S
Cd214 O216 2.411 . S
Cd214 O217 2.333 . S
Cd214 O218 2.352 . S
Cd214 O222 2.277 . S
Cd214 O223 2.356 . S
C215 O220 1.209 . S
C215 O222 1.226 . S
O216 Cd212 2.273 . S
O216 Cd214 2.411 . S
O216 C219 1.320 . S
O217 Cd214 2.333 . S
O217 C219 1.214 . S
O218 Cd214 2.352 . S
O218 C221 1.258 . S
C219 O216 1.320 . S
C219 O217 1.214 . S
O220 Cd212 2.277 . S
O220 C215 1.209 . S
C221 O218 1.258 . S
C221 O223 1.282 . S
O222 Cd214 2.277 . S
O222 C215 1.226 . S
O223 Cd214 2.356 . S
O223 C221 1.282 . S
C224 O225 1.306 . S
C224 O227 1.160 . S
O225 C224 1.306 . S
O225 Cd226 2.228 . S
Cd226 O225 2.228 . S
Cd226 O230 2.273 . S
Cd226 O234 2.277 . S
O227 C224 1.160 . S
O227 Cd228 2.203 . S
Cd228 O227 2.203 . S
Cd228 O230 2.411 . S
Cd228 O231 2.333 . S
Cd228 O232 2.352 . S
Cd228 O236 2.277 . S
Cd228 O237 2.356 . S
C229 O234 1.209 . S
C229 O236 1.226 . S
O230 Cd226 2.273 . S
O230 Cd228 2.411 . S
O230 C233 1.320 . S
O231 Cd228 2.333 . S
O231 C233 1.214 . S
O232 Cd228 2.352 . S
O232 C235 1.258 . S
C233 O230 1.320 . S
C233 O231 1.214 . S
O234 Cd226 2.277 . S
O234 C229 1.209 . S
C235 O232 1.258 . S
C235 O237 1.282 . S
O236 Cd228 2.277 . S
O236 C229 1.226 . S
O237 Cd228 2.356 . S
O237 C235 1.282 . S
C238 O239 1.306 . S
C238 O241 1.160 . S
O239 C238 1.306 . S
O239 Cd240 2.228 . S
Cd240 O239 2.228 . S
Cd240 O244 2.273 . S
Cd240 O248 2.277 . S
O241 C238 1.160 . S
O241 Cd242 2.203 . S
Cd242 O241 2.203 . S
Cd242 O244 2.411 . S
Cd242 O245 2.333 . S
Cd242 O246 2.352 . S
Cd242 O250 2.277 . S
Cd242 O251 2.356 . S
C243 O248 1.209 . S
C243 O250 1.226 . S
O244 Cd240 2.273 . S
O244 Cd242 2.411 . S
O244 C247 1.320 . S
O245 Cd242 2.333 . S
O245 C247 1.214 . S
O246 Cd242 2.352 . S
O246 C249 1.258 . S
C247 O244 1.320 . S
C247 O245 1.214 . S
O248 Cd240 2.277 . S
O248 C243 1.209 . S
C249 O246 1.258 . S
C249 O251 1.282 . S
O250 Cd242 2.277 . S
O250 C243 1.226 . S
O251 Cd242 2.356 . S
O251 C249 1.282 . S
C252 O253 1.306 . S
C252 O255 1.160 . S
O253 C252 1.306 . S
O253 Cd254 2.228 . S
Cd254 O253 2.228 . S
Cd254 O258 2.273 . S
Cd254 O262 2.277 . S
O255 C252 1.160 . S
O255 Cd256 2.203 . S
Cd256 O255 2.203 . S
Cd256 O258 2.411 . S
Cd256 O259 2.333 1_554 S
Cd256 O260 2.352 . S
Cd256 O264 2.277 . S
Cd256 O265 2.356 . S
C257 O262 1.209 . S
C257 O264 1.226 . S
O258 Cd254 2.273 . S
O258 Cd256 2.411 . S
O258 C261 1.320 1_554 S
O259 Cd256 2.333 1_556 S
O259 C261 1.214 . S
O260 Cd256 2.352 . S
O260 C263 1.258 . S
C261 O258 1.320 1_556 S
C261 O259 1.214 . S
O262 Cd254 2.277 . S
O262 C257 1.209 . S
C263 O260 1.258 . S
C263 O265 1.282 . S
O264 Cd256 2.277 . S
O264 C257 1.226 . S
O265 Cd256 2.356 . S
O265 C263 1.282 . S
C266 O267 1.306 . S
C266 O269 1.160 . S
O267 C266 1.306 . S
O267 Cd268 2.228 . S
Cd268 O267 2.228 . S
Cd268 O272 2.273 . S
Cd268 O276 2.277 . S
O269 C266 1.160 . S
O269 Cd270 2.203 . S
Cd270 O269 2.203 . S
Cd270 O272 2.411 . S
Cd270 O273 2.333 1_554 S
Cd270 O274 2.352 . S
Cd270 O278 2.277 . S
Cd270 O279 2.356 . S
C271 O276 1.209 . S
C271 O278 1.226 . S
O272 Cd268 2.273 . S
O272 Cd270 2.411 . S
O272 C275 1.320 1_554 S
O273 Cd270 2.333 1_556 S
O273 C275 1.214 . S
O274 Cd270 2.352 . S
O274 C277 1.258 . S
C275 O272 1.320 1_556 S
C275 O273 1.214 . S
O276 Cd268 2.277 . S
O276 C271 1.209 . S
C277 O274 1.258 . S
C277 O279 1.282 . S
O278 Cd270 2.277 . S
O278 C271 1.226 . S
O279 Cd270 2.356 . S
O279 C277 1.282 . S
C280 O281 1.306 . S
C280 O283 1.160 . S
O281 C280 1.306 . S
O281 Cd282 2.228 . S
Cd282 O281 2.228 . S
Cd282 O286 2.273 . S
Cd282 O290 2.277 . S
O283 C280 1.160 . S
O283 Cd284 2.203 . S
Cd284 O283 2.203 . S
Cd284 O286 2.411 . S
Cd284 O287 2.333 1_554 S
Cd284 O288 2.352 . S
Cd284 O292 2.277 . S
Cd284 O293 2.356 . S
C285 O290 1.209 . S
C285 O292 1.226 . S
O286 Cd282 2.273 . S
O286 Cd284 2.411 . S
O286 C289 1.320 1_554 S
O287 Cd284 2.333 1_556 S
O287 C289 1.214 . S
O288 Cd284 2.352 . S
O288 C291 1.258 . S
C289 O286 1.320 1_556 S
C289 O287 1.214 . S
O290 Cd282 2.277 . S
O290 C285 1.209 . S
C291 O288 1.258 . S
C291 O293 1.282 . S
O292 Cd284 2.277 . S
O292 C285 1.226 . S
O293 Cd284 2.356 . S
O293 C291 1.282 . S
C294 O295 1.306 . S
C294 O297 1.160 . S
O295 C294 1.306 . S
O295 Cd296 2.228 1_556 S
Cd296 O295 2.228 1_554 S
Cd296 O300 2.273 . S
Cd296 O304 2.277 . S
O297 C294 1.160 . S
O297 Cd298 2.203 1_556 S
Cd298 O297 2.203 1_554 S
Cd298 O300 2.411 . S
Cd298 O301 2.333 . S
Cd298 O302 2.352 . S
Cd298 O306 2.277 . S
Cd298 O307 2.356 . S
C299 O304 1.209 . S
C299 O306 1.226 . S
O300 Cd296 2.273 . S
O300 Cd298 2.411 . S
O300 C303 1.320 . S
O301 Cd298 2.333 . S
O301 C303 1.214 . S
O302 Cd298 2.352 . S
O302 C305 1.258 . S
C303 O300 1.320 . S
C303 O301 1.214 . S
O304 Cd296 2.277 . S
O304 C299 1.209 . S
C305 O302 1.258 . S
C305 O307 1.282 . S
O306 Cd298 2.277 . S
O306 C299 1.226 . S
O307 Cd298 2.356 . S
O307 C305 1.282 . S
C308 O309 1.306 . S
C308 O311 1.160 . S
O309 C308 1.306 . S
O309 Cd310 2.228 1_556 S
Cd310 O309 2.228 1_554 S
Cd310 O314 2.273 . S
Cd310 O318 2.277 . S
O311 C308 1.160 . S
O311 Cd312 2.203 1_556 S
Cd312 O311 2.203 1_554 S
Cd312 O314 2.411 . S
Cd312 O315 2.333 . S
Cd312 O316 2.352 . S
Cd312 O320 2.277 . S
Cd312 O321 2.356 . S
C313 O318 1.209 . S
C313 O320 1.226 . S
O314 Cd310 2.273 . S
O314 Cd312 2.411 . S
O314 C317 1.320 . S
O315 Cd312 2.333 . S
O315 C317 1.214 . S
O316 Cd312 2.352 . S
O316 C319 1.258 . S
C317 O314 1.320 . S
C317 O315 1.214 . S
O318 Cd310 2.277 . S
O318 C313 1.209 . S
C319 O316 1.258 . S
C319 O321 1.282 . S
O320 Cd312 2.277 . S
O320 C313 1.226 . S
O321 Cd312 2.356 . S
O321 C319 1.282 . S
C322 O323 1.306 . S
C322 O325 1.160 . S
O323 C322 1.306 . S
O323 Cd324 2.228 1_556 S
Cd324 O323 2.228 1_554 S
Cd324 O328 2.273 . S
Cd324 O332 2.277 . S
O325 C322 1.160 . S
O325 Cd326 2.203 1_556 S
Cd326 O325 2.203 1_554 S
Cd326 O328 2.411 . S
Cd326 O329 2.333 . S
Cd326 O330 2.352 . S
Cd326 O334 2.277 . S
Cd326 O335 2.356 . S
C327 O332 1.209 . S
C327 O334 1.226 . S
O328 Cd324 2.273 . S
O328 Cd326 2.411 . S
O328 C331 1.320 . S
O329 Cd326 2.333 . S
O329 C331 1.214 . S
O330 Cd326 2.352 . S
O330 C333 1.258 . S
C331 O328 1.320 . S
C331 O329 1.214 . S
O332 Cd324 2.277 . S
O332 C327 1.209 . S
C333 O330 1.258 . S
C333 O335 1.282 . S
O334 Cd326 2.277 . S
O334 C327 1.226 . S
O335 Cd326 2.356 . S
O335 C333 1.282 . S
C336 O337 1.306 . S
C336 O339 1.160 . S
O337 C336 1.306 . S
O337 Cd338 2.228 . S
Cd338 O337 2.228 . S
Cd338 O342 2.273 . S
Cd338 O346 2.277 . S
O339 C336 1.160 . S
O339 Cd340 2.203 . S
Cd340 O339 2.203 . S
Cd340 O342 2.411 . S
Cd340 O343 2.333 1_556 S
Cd340 O344 2.352 . S
Cd340 O348 2.277 . S
Cd340 O349 2.356 . S
C341 O346 1.209 . S
C341 O348 1.226 . S
O342 Cd338 2.273 . S
O342 Cd340 2.411 . S
O342 C345 1.320 1_556 S
O343 Cd340 2.333 1_554 S
O343 C345 1.214 . S
O344 Cd340 2.352 . S
O344 C347 1.258 . S
C345 O342 1.320 1_554 S
C345 O343 1.214 . S
O346 Cd338 2.277 . S
O346 C341 1.209 . S
C347 O344 1.258 . S
C347 O349 1.282 . S
O348 Cd340 2.277 . S
O348 C341 1.226 . S
O349 Cd340 2.356 . S
O349 C347 1.282 . S
C350 O351 1.306 . S
C350 O353 1.160 . S
O351 C350 1.306 . S
O351 Cd352 2.228 . S
Cd352 O351 2.228 . S
Cd352 O356 2.273 . S
Cd352 O360 2.277 . S
O353 C350 1.160 . S
O353 Cd354 2.203 . S
Cd354 O353 2.203 . S
Cd354 O356 2.411 . S
Cd354 O357 2.333 1_556 S
Cd354 O358 2.352 . S
Cd354 O362 2.277 . S
Cd354 O363 2.356 . S
C355 O360 1.209 . S
C355 O362 1.226 . S
O356 Cd352 2.273 . S
O356 Cd354 2.411 . S
O356 C359 1.320 1_556 S
O357 Cd354 2.333 1_554 S
O357 C359 1.214 . S
O358 Cd354 2.352 . S
O358 C361 1.258 . S
C359 O356 1.320 1_554 S
C359 O357 1.214 . S
O360 Cd352 2.277 . S
O360 C355 1.209 . S
C361 O358 1.258 . S
C361 O363 1.282 . S
O362 Cd354 2.277 . S
O362 C355 1.226 . S
O363 Cd354 2.356 . S
O363 C361 1.282 . S
C364 O365 1.306 . S
C364 O367 1.160 . S
O365 C364 1.306 . S
O365 Cd366 2.228 . S
Cd366 O365 2.228 . S
Cd366 O370 2.273 . S
Cd366 O374 2.277 . S
O367 C364 1.160 . S
O367 Cd368 2.203 . S
Cd368 O367 2.203 . S
Cd368 O370 2.411 . S
Cd368 O371 2.333 1_556 S
Cd368 O372 2.352 . S
Cd368 O376 2.277 . S
Cd368 O377 2.356 . S
C369 O374 1.209 . S
C369 O376 1.226 . S
O370 Cd366 2.273 . S
O370 Cd368 2.411 . S
O370 C373 1.320 1_556 S
O371 Cd368 2.333 1_554 S
O371 C373 1.214 . S
O372 Cd368 2.352 . S
O372 C375 1.258 . S
C373 O370 1.320 1_554 S
C373 O371 1.214 . S
O374 Cd366 2.277 . S
O374 C369 1.209 . S
C375 O372 1.258 . S
C375 O377 1.282 . S
O376 Cd368 2.277 . S
O376 C369 1.226 . S
O377 Cd368 2.356 . S
O377 C375 1.282 . S
C378 O379 1.306 . S
C378 O381 1.160 . S
O379 C378 1.306 . S
O379 Cd380 2.228 1_554 S
Cd380 O379 2.228 1_556 S
Cd380 O384 2.273 . S
Cd380 O388 2.277 . S
O381 C378 1.160 . S
O381 Cd382 2.203 1_554 S
Cd382 O381 2.203 1_556 S
Cd382 O384 2.411 . S
Cd382 O385 2.333 . S
Cd382 O386 2.352 . S
Cd382 O390 2.277 . S
Cd382 O391 2.356 . S
C383 O388 1.209 . S
C383 O390 1.226 . S
O384 Cd380 2.273 . S
O384 Cd382 2.411 . S
O384 C387 1.320 . S
O385 Cd382 2.333 . S
O385 C387 1.214 . S
O386 Cd382 2.352 . S
O386 C389 1.258 . S
C387 O384 1.320 . S
C387 O385 1.214 . S
O388 Cd380 2.277 . S
O388 C383 1.209 . S
C389 O386 1.258 . S
C389 O391 1.282 . S
O390 Cd382 2.277 . S
O390 C383 1.226 . S
O391 Cd382 2.356 . S
O391 C389 1.282 . S
C392 O393 1.306 . S
C392 O395 1.160 . S
O393 C392 1.306 . S
O393 Cd394 2.228 1_554 S
Cd394 O393 2.228 1_556 S
Cd394 O398 2.273 . S
Cd394 O402 2.277 . S
O395 C392 1.160 . S
O395 Cd396 2.203 1_554 S
Cd396 O395 2.203 1_556 S
Cd396 O398 2.411 . S
Cd396 O399 2.333 . S
Cd396 O400 2.352 . S
Cd396 O404 2.277 . S
Cd396 O405 2.356 . S
C397 O402 1.209 . S
C397 O404 1.226 . S
O398 Cd394 2.273 . S
O398 Cd396 2.411 . S
O398 C401 1.320 . S
O399 Cd396 2.333 . S
O399 C401 1.214 . S
O400 Cd396 2.352 . S
O400 C403 1.258 . S
C401 O398 1.320 . S
C401 O399 1.214 . S
O402 Cd394 2.277 . S
O402 C397 1.209 . S
C403 O400 1.258 . S
C403 O405 1.282 . S
O404 Cd396 2.277 . S
O404 C397 1.226 . S
O405 Cd396 2.356 . S
O405 C403 1.282 . S
C406 O407 1.306 . S
C406 O409 1.160 . S
O407 C406 1.306 . S
O407 Cd408 2.228 1_554 S
Cd408 O407 2.228 1_556 S
Cd408 O412 2.273 . S
Cd408 O416 2.277 . S
O409 C406 1.160 . S
O409 Cd410 2.203 1_554 S
Cd410 O409 2.203 1_556 S
Cd410 O412 2.411 . S
Cd410 O413 2.333 . S
Cd410 O414 2.352 . S
Cd410 O418 2.277 . S
Cd410 O419 2.356 . S
C411 O416 1.209 . S
C411 O418 1.226 . S
O412 Cd408 2.273 . S
O412 Cd410 2.411 . S
O412 C415 1.320 . S
O413 Cd410 2.333 . S
O413 C415 1.214 . S
O414 Cd410 2.352 . S
O414 C417 1.258 . S
C415 O412 1.320 . S
C415 O413 1.214 . S
O416 Cd408 2.277 . S
O416 C411 1.209 . S
C417 O414 1.258 . S
C417 O419 1.282 . S
O418 Cd410 2.277 . S
O418 C411 1.226 . S
O419 Cd410 2.356 . S
O419 C417 1.282 . S
C420 O421 1.306 . S
C420 O423 1.160 . S
O421 C420 1.306 . S
O421 Cd422 2.228 . S
Cd422 O421 2.228 . S
Cd422 O426 2.273 . S
Cd422 O430 2.277 . S
O423 C420 1.160 . S
O423 Cd424 2.203 . S
Cd424 O423 2.203 . S
Cd424 O426 2.411 . S
Cd424 O427 2.333 . S
Cd424 O428 2.352 . S
Cd424 O432 2.277 . S
Cd424 O433 2.356 . S
C425 O430 1.209 . S
C425 O432 1.226 . S
O426 Cd422 2.273 . S
O426 Cd424 2.411 . S
O426 C429 1.320 . S
O427 Cd424 2.333 . S
O427 C429 1.214 . S
O428 Cd424 2.352 . S
O428 C431 1.258 . S
C429 O426 1.320 . S
C429 O427 1.214 . S
O430 Cd422 2.277 . S
O430 C425 1.209 . S
C431 O428 1.258 . S
C431 O433 1.282 . S
O432 Cd424 2.277 . S
O432 C425 1.226 . S
O433 Cd424 2.356 . S
O433 C431 1.282 . S
C434 O435 1.306 . S
C434 O437 1.160 . S
O435 C434 1.306 . S
O435 Cd436 2.228 . S
Cd436 O435 2.228 . S
Cd436 O440 2.273 . S
Cd436 O444 2.277 . S
O437 C434 1.160 . S
O437 Cd438 2.203 . S
Cd438 O437 2.203 . S
Cd438 O440 2.411 . S
Cd438 O441 2.333 . S
Cd438 O442 2.352 . S
Cd438 O446 2.277 . S
Cd438 O447 2.356 . S
C439 O444 1.209 . S
C439 O446 1.226 . S
O440 Cd436 2.273 . S
O440 Cd438 2.411 . S
O440 C443 1.320 . S
O441 Cd438 2.333 . S
O441 C443 1.214 . S
O442 Cd438 2.352 . S
O442 C445 1.258 . S
C443 O440 1.320 . S
C443 O441 1.214 . S
O444 Cd436 2.277 . S
O444 C439 1.209 . S
C445 O442 1.258 . S
C445 O447 1.282 . S
O446 Cd438 2.277 . S
O446 C439 1.226 . S
O447 Cd438 2.356 . S
O447 C445 1.282 . S
C448 O449 1.306 . S
C448 O451 1.160 . S
O449 C448 1.306 . S
O449 Cd450 2.228 . S
Cd450 O449 2.228 . S
Cd450 O454 2.273 . S
Cd450 O458 2.277 . S
O451 C448 1.160 . S
O451 Cd452 2.203 . S
Cd452 O451 2.203 . S
Cd452 O454 2.411 . S
Cd452 O455 2.333 . S
Cd452 O456 2.352 . S
Cd452 O460 2.277 . S
Cd452 O461 2.356 . S
C453 O458 1.209 . S
C453 O460 1.226 . S
O454 Cd450 2.273 . S
O454 Cd452 2.411 . S
O454 C457 1.320 . S
O455 Cd452 2.333 . S
O455 C457 1.214 . S
O456 Cd452 2.352 . S
O456 C459 1.258 . S
C457 O454 1.320 . S
C457 O455 1.214 . S
O458 Cd450 2.277 . S
O458 C453 1.209 . S
C459 O456 1.258 . S
C459 O461 1.282 . S
O460 Cd452 2.277 . S
O460 C453 1.226 . S
O461 Cd452 2.356 . S
O461 C459 1.282 . S
C462 O463 1.306 . S
C462 O465 1.160 . S
O463 C462 1.306 . S
O463 Cd464 2.228 . S
Cd464 O463 2.228 . S
Cd464 O468 2.273 . S
Cd464 O472 2.277 . S
O465 C462 1.160 . S
O465 Cd466 2.203 . S
Cd466 O465 2.203 . S
Cd466 O468 2.411 . S
Cd466 O469 2.333 . S
Cd466 O470 2.352 . S
Cd466 O474 2.277 . S
Cd466 O475 2.356 . S
C467 O472 1.209 . S
C467 O474 1.226 . S
O468 Cd464 2.273 . S
O468 Cd466 2.411 . S
O468 C471 1.320 . S
O469 Cd466 2.333 . S
O469 C471 1.214 . S
O470 Cd466 2.352 . S
O470 C473 1.258 . S
C471 O468 1.320 . S
C471 O469 1.214 . S
O472 Cd464 2.277 . S
O472 C467 1.209 . S
C473 O470 1.258 . S
C473 O475 1.282 . S
O474 Cd466 2.277 . S
O474 C467 1.226 . S
O475 Cd466 2.356 . S
O475 C473 1.282 . S
C476 O477 1.306 . S
C476 O479 1.160 . S
O477 C476 1.306 . S
O477 Cd478 2.228 . S
Cd478 O477 2.228 . S
Cd478 O482 2.273 . S
Cd478 O486 2.277 . S
O479 C476 1.160 . S
O479 Cd480 2.203 . S
Cd480 O479 2.203 . S
Cd480 O482 2.411 . S
Cd480 O483 2.333 . S
Cd480 O484 2.352 . S
Cd480 O488 2.277 . S
Cd480 O489 2.356 . S
C481 O486 1.209 . S
C481 O488 1.226 . S
O482 Cd478 2.273 . S
O482 Cd480 2.411 . S
O482 C485 1.320 . S
O483 Cd480 2.333 . S
O483 C485 1.214 . S
O484 Cd480 2.352 . S
O484 C487 1.258 . S
C485 O482 1.320 . S
C485 O483 1.214 . S
O486 Cd478 2.277 . S
O486 C481 1.209 . S
C487 O484 1.258 . S
C487 O489 1.282 . S
O488 Cd480 2.277 . S
O488 C481 1.226 . S
O489 Cd480 2.356 . S
O489 C487 1.282 . S
C490 O491 1.306 . S
C490 O493 1.160 . S
O491 C490 1.306 . S
O491 Cd492 2.228 . S
Cd492 O491 2.228 . S
Cd492 O496 2.273 . S
Cd492 O500 2.277 . S
O493 C490 1.160 . S
O493 Cd494 2.203 . S
Cd494 O493 2.203 . S
Cd494 O496 2.411 . S
Cd494 O497 2.333 . S
Cd494 O498 2.352 . S
Cd494 O502 2.277 . S
Cd494 O503 2.356 . S
C495 O500 1.209 . S
C495 O502 1.226 . S
O496 Cd492 2.273 . S
O496 Cd494 2.411 . S
O496 C499 1.320 . S
O497 Cd494 2.333 . S
O497 C499 1.214 . S
O498 Cd494 2.352 . S
O498 C501 1.258 . S
C499 O496 1.320 . S
C499 O497 1.214 . S
O500 Cd492 2.277 . S
O500 C495 1.209 . S
C501 O498 1.258 . S
C501 O503 1.282 . S
O502 Cd494 2.277 . S
O502 C495 1.226 . S
O503 Cd494 2.356 . S
O503 C501 1.282 . S
C149 C0 1.479 1_556 S
C163 C14 1.479 1_556 S
C28 C135 1.479 1_554 S
C42 C121 1.479 . S
C56 C93 1.479 . S
C107 C70 1.479 . S
C65 C84 1.479 1_554 S
C79 C98 1.479 1_554 S
C112 C51 1.479 1_556 S
C37 C126 1.479 . S
C140 C9 1.479 . S
C154 C23 1.479 . S
C317 C168 1.479 . S
C331 C182 1.479 . S
C196 C303 1.479 . S
C210 C289 1.479 . S
C224 C261 1.479 . S
C238 C275 1.479 . S
C233 C252 1.479 . S
C247 C266 1.479 . S
C219 C280 1.479 . S
C205 C294 1.479 . S
C177 C308 1.479 . S
C191 C322 1.479 . S
C336 C485 1.479 . S
C499 C350 1.479 . S
C471 C364 1.479 . S
C378 C457 1.479 . S
C392 C429 1.479 . S
C406 C443 1.479 . S
C401 C420 1.479 . S
C415 C434 1.479 . S
C387 C448 1.479 . S
C462 C373 1.479 . S
C345 C476 1.479 . S
C490 C359 1.479 . S
C53 C11 1.507 . S
C67 C25 1.506 1_565 S
C39 C81 1.506 1_655 S
C137 C95 1.506 . S
C151 C109 1.506 1_545 S
C165 C123 1.506 1_655 S
C221 C179 1.506 . S
C235 C193 1.506 . S
C207 C249 1.506 . S
C263 C305 1.506 . S
C319 C277 1.506 . S
C291 C333 1.506 . S
C389 C347 1.506 . S
C403 C361 1.506 . S
C375 C417 1.506 . S
C431 C473 1.506 . S
C445 C487 1.506 . S
C459 C501 1.506 . S
C5 C257 1.546 . S
C271 C19 1.545 . S
C285 C33 1.545 . S
C467 C47 1.546 . S
C481 C61 1.545 . S
C495 C75 1.546 . S
C89 C341 1.546 . S
C355 C103 1.545 . S
C369 C117 1.545 . S
C131 C215 1.546 . S
C145 C229 1.545 . S
C159 C243 1.546 . S
C425 C173 1.546 1_455 S
C439 C187 1.546 . S
C201 C453 1.545 1_545 S
C299 C383 1.546 1_544 S
C313 C397 1.545 1_654 S
C327 C411 1.546 1_554 S
