# Generated by pormake.
# Topology uog, (4)-cn, num edge types: 1
# Building blocks:
#     Node 0, Type 0, BuildingBlock: KUFVIS_clean_sbu_0, # of connection points: 4
#     Node 1, Type 0, BuildingBlock: KUFVIS_clean_sbu_0, # of connection points: 4
#     Node 2, Type 0, BuildingBlock: KUFVIS_clean_sbu_0, # of connection points: 4
#     Node 3, Type 0, BuildingBlock: KUFVIS_clean_sbu_0, # of connection points: 4
#     Node 4, Type 0, BuildingBlock: KUFVIS_clean_sbu_0, # of connection points: 4
#     Node 5, Type 0, BuildingBlock: KUFVIS_clean_sbu_0, # of connection points: 4
#     Edge 6, Type (0, 0), BuildingBlock: XIVTED_clean_linker_0, # of connection points: 2
#     Edge 7, Type (0, 0), BuildingBlock: XIVTED_clean_linker_0, # of connection points: 2
#     Edge 8, Type (0, 0), BuildingBlock: XIVTED_clean_linker_0, # of connection points: 2
#     Edge 9, Type (0, 0), BuildingBlock: XIVTED_clean_linker_0, # of connection points: 2
#     Edge 10, Type (0, 0), BuildingBlock: XIVTED_clean_linker_0, # of connection points: 2
#     Edge 11, Type (0, 0), BuildingBlock: XIVTED_clean_linker_0, # of connection points: 2
#     Edge 12, Type (0, 0), BuildingBlock: XIVTED_clean_linker_0, # of connection points: 2
#     Edge 13, Type (0, 0), BuildingBlock: XIVTED_clean_linker_0, # of connection points: 2
#     Edge 14, Type (0, 0), BuildingBlock: XIVTED_clean_linker_0, # of connection points: 2
#     Edge 15, Type (0, 0), BuildingBlock: XIVTED_clean_linker_0, # of connection points: 2
#     Edge 16, Type (0, 0), BuildingBlock: XIVTED_clean_linker_0, # of connection points: 2
#     Edge 17, Type (0, 0), BuildingBlock: XIVTED_clean_linker_0, # of connection points: 2
# Relax obj value: 0.108
# Max RMSD: 0.206
# Mean RMSD: 0.204
data_MOF--net-uog--node1-KUFVIS_clean_sbu_0--edge1-XIVTED_clean_linker_0
_symmetry_space_group_name_H-M    P1
_symmetry_Int_Tables_number       1
_symmetry_cell_setting            triclinic
loop_
_symmetry_equiv_pos_as_xyz
'x, y, z'
_cell_length_a     28.676992
_cell_length_b     28.694865
_cell_length_c     41.823158
_cell_angle_alpha  90.001366
_cell_angle_beta   90.023737
_cell_angle_gamma 119.85816
loop_
_atom_site_label
_atom_site_type_symbol
_atom_site_fract_x
_atom_site_fract_y
_atom_site_fract_z
_atom_type_partial_charge
Mn0 Mn 0.59528 0.29306 0.14877 0.0
Mn1 Mn 0.70666 0.41477 0.14137 0.0
C2 C 0.62233 0.33075 0.09907 0.0
C3 C 0.55953 0.20028 0.15267 0.0
C4 C 0.59884 0.39978 0.16289 0.0
O5 O 0.63192 0.3041 0.19138 0.0
O6 O 0.70763 0.38329 0.18382 0.0
C7 C 0.78751 0.37938 0.13909 0.0
N8 N 0.76408 0.4057 0.12539 0.0
C9 C 0.82194 0.42902 0.07943 0.0
C10 C 0.84698 0.40253 0.09317 0.0
C11 C 0.82966 0.37759 0.12311 0.0
C12 C 0.78059 0.43005 0.09665 0.0
H13 H 0.77401 0.35977 0.16197 0.0
C14 C 0.67719 0.34193 0.20085 0.0
O15 O 0.53354 0.22301 0.16408 0.0
O16 O 0.60555 0.23117 0.13941 0.0
N17 N 0.71129 0.4496 0.10147 0.0
C18 C 0.68081 0.47064 0.09066 0.0
C19 C 0.6917 0.49545 0.06052 0.0
C20 C 0.7339 0.4986 0.04187 0.0
C21 C 0.76512 0.47724 0.05366 0.0
C22 C 0.75279 0.45352 0.08403 0.0
H23 H 0.64807 0.46801 0.10477 0.0
O24 O 0.57317 0.29266 0.10366 0.0
O25 O 0.65431 0.34479 0.12366 0.0
O26 O 0.57206 0.34839 0.16082 0.0
O27 O 0.64915 0.42767 0.15689 0.0
C28 C 0.8071 0.47734 0.03611 0.0
C29 C 0.8355 0.45327 0.04899 0.0
H30 H 0.87915 0.4006 0.08079 0.0
H31 H 0.84856 0.35678 0.13377 0.0
H32 H 0.66736 0.51176 0.05157 0.0
H33 H 0.74167 0.51707 0.01844 0.0
H34 H 0.81732 0.49509 0.01248 0.0
H35 H 0.86719 0.45294 0.03508 0.0
Mn36 Mn 0.31418 0.60275 0.48121 0.0
Mn37 Mn 0.30483 0.71535 0.48176 0.0
C38 C 0.30173 0.63507 0.434 0.0
C39 C 0.37249 0.56802 0.48254 0.0
C40 C 0.21156 0.60515 0.49872 0.0
O41 O 0.33839 0.6324 0.52527 0.0
O42 O 0.33775 0.71023 0.52284 0.0
C43 C 0.42127 0.79437 0.4801 0.0
N44 N 0.37136 0.77386 0.46702 0.0
C45 C 0.40564 0.838 0.42401 0.0
C46 C 0.45736 0.86012 0.43716 0.0
C47 C 0.4652 0.83813 0.4653 0.0
C48 C 0.36338 0.7946 0.43992 0.0
H49 H 0.42752 0.77737 0.50161 0.0
C50 C 0.34725 0.67655 0.53744 0.0
O51 O 0.32298 0.53947 0.49231 0.0
O52 O 0.38703 0.6154 0.47148 0.0
N53 N 0.27418 0.72642 0.44386 0.0
C54 C 0.22209 0.6994 0.43374 0.0
C55 C 0.20769 0.71559 0.4055 0.0
C56 C 0.2468 0.75971 0.38817 0.0
C57 C 0.29991 0.78754 0.3994 0.0
C58 C 0.31182 0.76979 0.42781 0.0
H59 H 0.19184 0.66542 0.44692 0.0
O60 O 0.29302 0.58624 0.43586 0.0
O61 O 0.32074 0.66477 0.45952 0.0
O62 O 0.23544 0.57809 0.49358 0.0
O63 O 0.23464 0.65632 0.49605 0.0
C64 C 0.34169 0.83161 0.38321 0.0
C65 C 0.39453 0.85677 0.39548 0.0
H66 H 0.49139 0.89369 0.42573 0.0
H67 H 0.50503 0.85478 0.47549 0.0
H68 H 0.16658 0.69399 0.39704 0.0
H69 H 0.23563 0.77177 0.36625 0.0
H70 H 0.33374 0.84612 0.36112 0.0
H71 H 0.42642 0.89026 0.38264 0.0
Mn72 Mn 0.70636 0.28621 0.82587 0.0
Mn73 Mn 0.71323 0.40696 0.82738 0.0
C74 C 0.71468 0.32808 0.87383 0.0
C75 C 0.6511 0.19319 0.82444 0.0
C76 C 0.8085 0.39291 0.81057 0.0
O77 O 0.68171 0.29239 0.78197 0.0
O78 O 0.68384 0.37168 0.78512 0.0
C79 C 0.59644 0.36859 0.82624 0.0
N80 N 0.64518 0.39707 0.8408 0.0
C81 C 0.60653 0.42166 0.88415 0.0
C82 C 0.556 0.39296 0.86947 0.0
C83 C 0.55094 0.3663 0.8404 0.0
C84 C 0.65054 0.42306 0.86872 0.0
H85 H 0.59228 0.34763 0.80405 0.0
C86 C 0.67427 0.32887 0.77002 0.0
O87 O 0.70018 0.21557 0.81374 0.0
O88 O 0.63473 0.22449 0.83571 0.0
N89 N 0.74039 0.44533 0.8667 0.0
C90 C 0.79137 0.46878 0.87861 0.0
C91 C 0.80284 0.49566 0.90812 0.0
C92 C 0.76192 0.49837 0.92499 0.0
C93 C 0.70996 0.47459 0.91204 0.0
C94 C 0.70103 0.44885 0.88237 0.0
H95 H 0.8229 0.46645 0.8659 0.0
O96 O 0.72692 0.29033 0.8715 0.0
O97 O 0.69672 0.33924 0.84805 0.0
O98 O 0.78471 0.34171 0.81392 0.0
O99 O 0.78498 0.42044 0.81445 0.0
C100 C 0.66638 0.47426 0.9278 0.0
C101 C 0.61472 0.44785 0.91385 0.0
H102 H 0.52071 0.39066 0.88046 0.0
H103 H 0.51201 0.34378 0.82903 0.0
H104 H 0.84304 0.51385 0.91797 0.0
H105 H 0.77075 0.51846 0.94796 0.0
H106 H 0.672 0.49356 0.95085 0.0
H107 H 0.5814 0.44731 0.92638 0.0
Mn108 Mn 0.40915 0.71611 0.15017 0.0
Mn109 Mn 0.29886 0.59288 0.14654 0.0
C110 C 0.38025 0.67426 0.10165 0.0
C111 C 0.44326 0.80882 0.15204 0.0
C112 C 0.40875 0.61172 0.1667 0.0
O113 O 0.3748 0.70766 0.19326 0.0
O114 O 0.29932 0.62761 0.18801 0.0
C115 C 0.21628 0.62595 0.14363 0.0
N116 N 0.23974 0.59915 0.13064 0.0
C117 C 0.17847 0.56966 0.08608 0.0
C118 C 0.15338 0.5966 0.09912 0.0
C119 C 0.17243 0.62492 0.12799 0.0
C120 C 0.22168 0.57169 0.1029 0.0
H121 H 0.231 0.64804 0.16571 0.0
C122 C 0.33017 0.67037 0.20383 0.0
O123 O 0.4707 0.78771 0.16358 0.0
O124 O 0.39686 0.7764 0.13964 0.0
N125 N 0.29272 0.55473 0.10777 0.0
C126 C 0.32333 0.53355 0.09746 0.0
C127 C 0.3108 0.50552 0.06833 0.0
C128 C 0.26676 0.49921 0.05023 0.0
C129 C 0.23542 0.52074 0.06153 0.0
C130 C 0.24957 0.54791 0.09087 0.0
H131 H 0.35738 0.53844 0.11118 0.0
O132 O 0.42915 0.71366 0.10499 0.0
O133 O 0.34931 0.66164 0.12665 0.0
O134 O 0.43463 0.66288 0.16309 0.0
O135 O 0.3581 0.58272 0.16208 0.0
C136 C 0.19149 0.51742 0.04447 0.0
C137 C 0.16304 0.54187 0.05674 0.0
H138 H 0.11981 0.59626 0.087 0.0
H139 H 0.15347 0.64607 0.13809 0.0
H140 H 0.33521 0.48905 0.05976 0.0
H141 H 0.25761 0.47812 0.02759 0.0
H142 H 0.17974 0.49685 0.02166 0.0
H143 H 0.12981 0.53968 0.04318 0.0
Mn144 Mn 0.70734 0.41664 0.47996 0.0
Mn145 Mn 0.71702 0.30431 0.47818 0.0
C146 C 0.71872 0.38564 0.43187 0.0
C147 C 0.64888 0.45114 0.4825 0.0
C148 C 0.8103 0.41399 0.4961 0.0
O149 O 0.68378 0.3855 0.52384 0.0
O150 O 0.6848 0.30796 0.51987 0.0
C151 C 0.60069 0.22486 0.47678 0.0
N152 N 0.65038 0.24605 0.46333 0.0
C153 C 0.61559 0.1833 0.41962 0.0
C154 C 0.56411 0.16049 0.43314 0.0
C155 C 0.55663 0.18144 0.46182 0.0
C156 C 0.65802 0.22628 0.43573 0.0
H157 H 0.59473 0.24109 0.49871 0.0
C158 C 0.67543 0.34104 0.5353 0.0
O159 O 0.69847 0.4795 0.49218 0.0
O160 O 0.6343 0.40405 0.47094 0.0
N161 N 0.7471 0.29478 0.43957 0.0
C162 C 0.7989 0.32266 0.42904 0.0
C163 C 0.81288 0.30768 0.4002 0.0
C164 C 0.77364 0.26392 0.38267 0.0
C165 C 0.72082 0.23526 0.39427 0.0
C166 C 0.70934 0.2518 0.42328 0.0
H167 H 0.82922 0.35639 0.44237 0.0
O168 O 0.72777 0.43449 0.43456 0.0
O169 O 0.7004 0.35534 0.4572 0.0
O170 O 0.78629 0.44115 0.49177 0.0
O171 O 0.7873 0.36298 0.49259 0.0
C172 C 0.67889 0.19159 0.37788 0.0
C173 C 0.62631 0.16567 0.39052 0.0
H174 H 0.52997 0.1272 0.42158 0.0
H175 H 0.51696 0.16426 0.4723 0.0
H176 H 0.85376 0.32994 0.39145 0.0
H177 H 0.78447 0.25281 0.36029 0.0
H178 H 0.68652 0.17801 0.35534 0.0
H179 H 0.59429 0.13253 0.37752 0.0
Mn180 Mn 0.31299 0.71215 0.8275 0.0
Mn181 Mn 0.30321 0.5901 0.82729 0.0
C182 C 0.30161 0.6677 0.87479 0.0
C183 C 0.3702 0.80493 0.82728 0.0
C184 C 0.21017 0.60759 0.80999 0.0
O185 O 0.33866 0.70712 0.78377 0.0
O186 O 0.33533 0.62723 0.7859 0.0
C187 C 0.41941 0.62565 0.82798 0.0
N188 N 0.36985 0.59743 0.84159 0.0
C189 C 0.40485 0.56833 0.88473 0.0
C190 C 0.45619 0.59673 0.87103 0.0
C191 C 0.46349 0.62555 0.84255 0.0
C192 C 0.36234 0.56945 0.86895 0.0
H193 H 0.42527 0.64818 0.80623 0.0
C194 C 0.34619 0.67095 0.77147 0.0
O195 O 0.32148 0.78401 0.81613 0.0
O196 O 0.38499 0.77232 0.83849 0.0
N197 N 0.27338 0.5499 0.86574 0.0
C198 C 0.22193 0.5271 0.87679 0.0
C199 C 0.20831 0.49833 0.90567 0.0
C200 C 0.24757 0.49301 0.92277 0.0
C201 C 0.30006 0.51623 0.91071 0.0
C202 C 0.31118 0.54405 0.88166 0.0
H203 H 0.19165 0.53131 0.86386 0.0
O204 O 0.29092 0.70658 0.87285 0.0
O205 O 0.32023 0.65714 0.84908 0.0
O206 O 0.23462 0.65857 0.81442 0.0
O207 O 0.23276 0.57909 0.81339 0.0
C208 C 0.34207 0.51391 0.92676 0.0
C209 C 0.39442 0.53993 0.91377 0.0
H210 H 0.49038 0.59713 0.88233 0.0
H211 H 0.50306 0.64783 0.83194 0.0
H212 H 0.16772 0.48057 0.91482 0.0
H213 H 0.23705 0.47132 0.94522 0.0
H214 H 0.33472 0.49284 0.94932 0.0
H215 H 0.42652 0.53844 0.92653 0.0
H216 H 0.50901 0.12995 0.20232 0.0
H217 H 0.43261 0.86719 0.10493 0.0
H218 H 0.56399 0.13861 0.10542 0.0
H219 H 0.49645 0.88191 0.20007 0.0
H220 H 0.45947 0.9627 0.10601 0.0
H221 H 0.48236 0.03363 0.20359 0.0
C222 C 0.51469 0.11135 0.18126 0.0
C223 C 0.53841 0.14181 0.15367 0.0
C224 C 0.46764 0.94497 0.1266 0.0
C225 C 0.50791 0.03296 0.15487 0.0
C226 C 0.45248 0.89072 0.12601 0.0
C227 C 0.46296 0.86707 0.15231 0.0
C228 C 0.49185 0.97542 0.1541 0.0
C229 C 0.48846 0.89909 0.17916 0.0
C230 C 0.50011 0.05689 0.18212 0.0
C231 C 0.54577 0.11633 0.12712 0.0
N232 N 0.50158 0.95178 0.17957 0.0
N233 N 0.53003 0.06325 0.12823 0.0
H234 H 0.35428 0.46564 0.49355 0.0
H235 H 0.66722 0.55362 0.49342 0.0
H236 H 0.48115 0.62845 0.4769 0.0
H237 H 0.54017 0.39058 0.47758 0.0
H238 H 0.59936 0.58205 0.49568 0.0
H239 H 0.42216 0.43727 0.49594 0.0
C240 C 0.39631 0.49535 0.4905 0.0
C241 C 0.41204 0.54933 0.48476 0.0
C242 C 0.58649 0.54005 0.49177 0.0
C243 C 0.48971 0.51749 0.48781 0.0
C244 C 0.62515 0.52386 0.49056 0.0
C245 C 0.60936 0.46981 0.48504 0.0
C246 C 0.53174 0.50172 0.48791 0.0
C247 C 0.55423 0.43281 0.48157 0.0
C248 C 0.43499 0.4792 0.4918 0.0
C249 C 0.46713 0.58628 0.48106 0.0
N250 N 0.51746 0.44941 0.48311 0.0
N251 N 0.50393 0.56973 0.48271 0.0
H252 H 0.8789 0.35429 0.80323 0.0
H253 H 0.14004 0.64721 0.80719 0.0
H254 H 0.87275 0.5017 0.80327 0.0
H255 H 0.14584 0.50028 0.7975 0.0
H256 H 0.04204 0.595 0.8022 0.0
H257 H 0.97674 0.40725 0.79771 0.0
C258 C 0.89789 0.39763 0.80177 0.0
C259 C 0.86726 0.42336 0.80398 0.0
C260 C 0.06489 0.57431 0.80086 0.0
C261 C 0.97949 0.48439 0.79791 0.0
C262 C 0.12094 0.60419 0.80363 0.0
C263 C 0.15151 0.57827 0.80306 0.0
C264 C 0.03913 0.51807 0.79766 0.0
C265 C 0.12421 0.52223 0.79837 0.0
C266 C 0.95385 0.42792 0.79865 0.0
C267 C 0.89442 0.47984 0.80189 0.0
N268 N 0.06975 0.49409 0.79616 0.0
N269 N 0.94882 0.50833 0.79926 0.0
H270 H 0.14827 0.64936 0.51192 0.0
H271 H 0.87338 0.36916 0.50802 0.0
H272 H 0.14038 0.49588 0.50083 0.0
H273 H 0.88136 0.52316 0.50052 0.0
H274 H 0.97052 0.41488 0.51408 0.0
H275 H 0.05084 0.60336 0.51653 0.0
C276 C 0.12624 0.60588 0.51077 0.0
C277 C 0.15294 0.57655 0.50563 0.0
C278 C 0.95106 0.43872 0.51134 0.0
C279 C 0.0406 0.52359 0.51088 0.0
C280 C 0.89537 0.41268 0.50792 0.0
C281 C 0.86879 0.44228 0.5034 0.0
C282 C 0.98087 0.49495 0.51036 0.0
C283 C 0.8999 0.49858 0.50377 0.0
C284 C 0.0704 0.57969 0.51334 0.0
C285 C 0.12178 0.52027 0.50461 0.0
N286 N 0.95433 0.52307 0.50696 0.0
N287 N 0.06725 0.49567 0.50698 0.0
H288 H 0.43752 0.8626 0.87509 0.0
H289 H 0.62752 0.12182 0.77506 0.0
H290 H 0.39179 0.87811 0.77919 0.0
H291 H 0.58934 0.13312 0.87339 0.0
H292 H 0.55607 0.02633 0.77477 0.0
H293 H 0.50823 0.9572 0.87386 0.0
C294 C 0.4422 0.88623 0.85387 0.0
C295 C 0.40854 0.86308 0.82736 0.0
C296 C 0.56385 0.04989 0.79638 0.0
C297 C 0.49039 0.97023 0.82536 0.0
C298 C 0.60481 0.10383 0.79667 0.0
C299 C 0.61428 0.13477 0.82439 0.0
C300 C 0.53364 0.02699 0.82424 0.0
C301 C 0.58325 0.11029 0.85164 0.0
C302 C 0.48251 0.93994 0.85316 0.0
C303 C 0.4165 0.89503 0.80027 0.0
N304 N 0.54463 0.05768 0.851 0.0
N305 N 0.45723 0.9471 0.79977 0.0
H306 H 0.51846 0.65232 0.16992 0.0
H307 H 0.49036 0.36038 0.17281 0.0
H308 H 0.36701 0.50453 0.1792 0.0
H309 H 0.64252 0.50858 0.1699 0.0
H310 H 0.44484 0.41271 0.17963 0.0
H311 H 0.56522 0.60082 0.17457 0.0
C312 C 0.49502 0.60925 0.17337 0.0
C313 C 0.4386 0.58287 0.17385 0.0
C314 C 0.48826 0.4337 0.17779 0.0
C315 C 0.49191 0.52347 0.17884 0.0
C316 C 0.51429 0.40377 0.17393 0.0
C317 C 0.57041 0.4299 0.17048 0.0
C318 C 0.51846 0.49021 0.17806 0.0
C319 C 0.59918 0.48642 0.17219 0.0
C320 C 0.52175 0.57978 0.17591 0.0
C321 C 0.41051 0.5268 0.17837 0.0
N322 N 0.5729 0.51455 0.17557 0.0
N323 N 0.43736 0.49905 0.18037 0.0
H324 H 0.78802 0.36591 0.92182 0.0
H325 H 0.58099 0.36272 0.05079 0.0
H326 H 0.6252 0.32322 0.89845 0.0
H327 H 0.70543 0.32529 0.07293 0.0
H328 H 0.6098 0.37606 -0.00554 0.0
H329 H 0.77131 0.38 0.97767 0.0
C330 C 0.74925 0.36087 0.92843 0.0
C331 C 0.70835 0.34512 0.90568 0.0
C332 C 0.63135 0.36599 0.01187 0.0
C333 C 0.68866 0.35972 0.9689 0.0
C334 C 0.61505 0.35847 0.04378 0.0
C335 C 0.64232 0.34486 0.06635 0.0
C336 C 0.67459 0.35902 0.00275 0.0
C337 C 0.685 0.33797 0.05628 0.0
C338 C 0.73971 0.36871 0.9601 0.0
C339 C 0.65822 0.33737 0.91526 0.0
N340 N 0.70005 0.34532 0.02515 0.0
N341 N 0.64966 0.34476 0.94627 0.0
H342 H 0.23939 0.60074 0.23736 0.0
H343 H 0.38017 0.72009 0.40191 0.0
H344 H 0.38766 0.75203 0.24612 0.0
H345 H 0.21605 0.59188 0.39439 0.0
H346 H 0.37866 0.74052 0.34528 0.0
H347 H 0.2241 0.60364 0.29455 0.0
C348 C 0.26838 0.6349 0.25116 0.0
C349 C 0.31558 0.67544 0.23702 0.0
C350 C 0.34241 0.70881 0.35611 0.0
C351 C 0.29851 0.67885 0.30248 0.0
C352 C 0.34324 0.6976 0.38846 0.0
C353 C 0.29772 0.65534 0.40269 0.0
C354 C 0.2964 0.67595 0.33777 0.0
C355 C 0.2516 0.62539 0.38411 0.0
C356 C 0.25954 0.63664 0.28383 0.0
C357 C 0.35123 0.7192 0.25605 0.0
N358 N 0.25224 0.63588 0.35245 0.0
N359 N 0.34243 0.71924 0.28789 0.0
H360 H 0.64648 0.24219 0.73116 0.0
H361 H 0.64478 0.39785 0.574 0.0
H362 H 0.6629 0.40031 0.73145 0.0
H363 H 0.66538 0.25856 0.57363 0.0
H364 H 0.62938 0.38758 0.6314 0.0
H365 H 0.6315 0.23693 0.6737 0.0
C366 C 0.6464 0.27568 0.71926 0.0
C367 C 0.65717 0.32237 0.73617 0.0
C368 C 0.63669 0.35893 0.61871 0.0
C369 C 0.63989 0.31625 0.6702 0.0
C370 C 0.64551 0.36467 0.58588 0.0
C371 C 0.65762 0.32965 0.56898 0.0
C372 C 0.6399 0.31786 0.63487 0.0
C373 C 0.65694 0.28692 0.58569 0.0
C374 C 0.63781 0.27252 0.68639 0.0
C375 C 0.65554 0.36388 0.7194 0.0
N376 N 0.64895 0.28263 0.61783 0.0
N377 N 0.64775 0.3601 0.68724 0.0
H378 H 0.38786 0.66723 0.90061 0.0
H379 H 0.29418 0.67269 0.07435 0.0
H380 H 0.22601 0.63061 0.92139 0.0
H381 H 0.42272 0.63993 0.05549 0.0
H382 H 0.26607 0.65301 0.01851 0.0
H383 H 0.39983 0.6517 0.95673 0.0
C384 C 0.35424 0.65394 0.91689 0.0
C385 C 0.30538 0.64843 0.90649 0.0
C386 C 0.29962 0.64878 0.02667 0.0
C387 C 0.31962 0.63398 0.97075 0.0
C388 C 0.31537 0.65969 0.05851 0.0
C389 C 0.35942 0.65589 0.06945 0.0
C390 C 0.32969 0.63625 0.00544 0.0
C391 C 0.38776 0.64206 0.04782 0.0
C392 C 0.36116 0.64556 0.94891 0.0
C393 C 0.26393 0.63424 0.92865 0.0
N394 N 0.37262 0.63304 0.01664 0.0
N395 N 0.27215 0.62801 0.95993 0.0
H396 H 0.63794 0.30094 0.40086 0.0
H397 H 0.76889 0.41438 0.23275 0.0
H398 H 0.8013 0.42929 0.38992 0.0
H399 H 0.62179 0.26305 0.24507 0.0
H400 H 0.78671 0.41503 0.28991 0.0
H401 H 0.63557 0.27981 0.34403 0.0
C402 C 0.67389 0.32335 0.38658 0.0
C403 C 0.72039 0.36569 0.39997 0.0
C404 C 0.75095 0.38129 0.27997 0.0
C405 C 0.71724 0.34427 0.33482 0.0
C406 C 0.74069 0.38097 0.24733 0.0
C407 C 0.69314 0.33927 0.23415 0.0
C408 C 0.71313 0.33994 0.29957 0.0
C409 C 0.65848 0.29665 0.25419 0.0
C410 C 0.67248 0.31177 0.35412 0.0
C411 C 0.76509 0.39564 0.38033 0.0
N412 N 0.66874 0.29855 0.28596 0.0
N413 N 0.7623 0.38469 0.3486 0.0
H414 H 0.35866 0.60107 0.73209 0.0
H415 H 0.36112 0.7594 0.57679 0.0
H416 H 0.37645 0.75972 0.73421 0.0
H417 H 0.3758 0.61665 0.57479 0.0
H418 H 0.37755 0.76591 0.63438 0.0
H419 H 0.37567 0.61097 0.67458 0.0
C420 C 0.36685 0.63822 0.72061 0.0
C421 C 0.36482 0.67902 0.73792 0.0
C422 C 0.37793 0.73361 0.62122 0.0
C423 C 0.38386 0.69048 0.67215 0.0
C424 C 0.36853 0.7299 0.58832 0.0
C425 C 0.36576 0.68673 0.57102 0.0
C426 C 0.38411 0.69362 0.63686 0.0
C427 C 0.37635 0.65002 0.58721 0.0
C428 C 0.3766 0.64391 0.68776 0.0
C429 C 0.37642 0.72661 0.72178 0.0
N430 N 0.38416 0.65382 0.61928 0.0
N431 N 0.38456 0.73065 0.68975 0.0
loop_
_geom_bond_atom_site_label_1
_geom_bond_atom_site_label_2
_geom_bond_distance
_geom_bond_site_symmetry_2
_ccdc_geom_bond_type
Mn0 O5 2.095 . S
Mn0 O15 2.162 . S
Mn0 O16 2.297 . S
Mn0 O24 2.385 . S
Mn0 O25 2.209 . S
Mn0 O26 2.094 . S
Mn1 O6 2.121 . S
Mn1 N8 2.257 . S
Mn1 N17 2.282 . S
Mn1 O25 2.215 . S
Mn1 O27 2.117 . S
C2 O24 1.234 . S
C2 O25 1.283 . S
C3 O15 1.281 . S
C3 O16 1.236 . S
C4 O26 1.240 . S
C4 O27 1.264 . S
O5 Mn0 2.095 . S
O5 C14 1.250 . S
O6 Mn1 2.121 . S
O6 C14 1.258 . S
C7 N8 1.326 . S
C7 C11 1.460 . S
C7 H13 0.929 . S
N8 Mn1 2.257 . S
N8 C7 1.326 . S
N8 C12 1.362 . S
C9 C10 1.258 . S
C9 C12 1.431 . S
C9 C29 1.449 . S
C10 C9 1.258 . S
C10 C11 1.477 . S
C10 H30 0.931 . S
C11 C7 1.460 . S
C11 C10 1.477 . S
C11 H31 0.930 . S
C12 N8 1.362 . S
C12 C9 1.431 . S
C12 C22 1.476 . S
H13 C7 0.929 . S
C14 O5 1.250 . S
C14 O6 1.258 . S
O15 Mn0 2.162 . S
O15 C3 1.281 . S
O16 Mn0 2.297 . S
O16 C3 1.236 . S
N17 Mn1 2.282 . S
N17 C18 1.328 . S
N17 C22 1.318 . S
C18 N17 1.328 . S
C18 C19 1.457 . S
C18 H23 0.929 . S
C19 C18 1.457 . S
C19 C20 1.291 . S
C19 H32 0.931 . S
C20 C19 1.291 . S
C20 C21 1.373 . S
C20 H33 0.929 . S
C21 C20 1.373 . S
C21 C22 1.396 . S
C21 C28 1.403 . S
C22 C12 1.476 . S
C22 N17 1.318 . S
C22 C21 1.396 . S
H23 C18 0.929 . S
O24 Mn0 2.385 . S
O24 C2 1.234 . S
O25 Mn0 2.209 . S
O25 Mn1 2.215 . S
O25 C2 1.283 . S
O26 Mn0 2.094 . S
O26 C4 1.240 . S
O27 Mn1 2.117 . S
O27 C4 1.264 . S
C28 C21 1.403 . S
C28 C29 1.399 . S
C28 H34 0.929 . S
C29 C9 1.449 . S
C29 C28 1.399 . S
C29 H35 0.930 . S
H30 C10 0.931 . S
H31 C11 0.930 . S
H32 C19 0.931 . S
H33 C20 0.929 . S
H34 C28 0.929 . S
H35 C29 0.930 . S
Mn36 O41 2.095 . S
Mn36 O51 2.162 . S
Mn36 O52 2.297 . S
Mn36 O60 2.385 . S
Mn36 O61 2.209 . S
Mn36 O62 2.094 . S
Mn37 O42 2.121 . S
Mn37 N44 2.257 . S
Mn37 N53 2.282 . S
Mn37 O61 2.215 . S
Mn37 O63 2.117 . S
C38 O60 1.234 . S
C38 O61 1.283 . S
C39 O51 1.281 . S
C39 O52 1.236 . S
C40 O62 1.240 . S
C40 O63 1.264 . S
O41 Mn36 2.095 . S
O41 C50 1.250 . S
O42 Mn37 2.121 . S
O42 C50 1.258 . S
C43 N44 1.326 . S
C43 C47 1.460 . S
C43 H49 0.929 . S
N44 Mn37 2.257 . S
N44 C43 1.326 . S
N44 C48 1.362 . S
C45 C46 1.258 . S
C45 C48 1.431 . S
C45 C65 1.449 . S
C46 C45 1.258 . S
C46 C47 1.477 . S
C46 H66 0.931 . S
C47 C43 1.460 . S
C47 C46 1.477 . S
C47 H67 0.930 . S
C48 N44 1.362 . S
C48 C45 1.431 . S
C48 C58 1.476 . S
H49 C43 0.929 . S
C50 O41 1.250 . S
C50 O42 1.258 . S
O51 Mn36 2.162 . S
O51 C39 1.281 . S
O52 Mn36 2.297 . S
O52 C39 1.236 . S
N53 Mn37 2.282 . S
N53 C54 1.328 . S
N53 C58 1.318 . S
C54 N53 1.328 . S
C54 C55 1.457 . S
C54 H59 0.929 . S
C55 C54 1.457 . S
C55 C56 1.291 . S
C55 H68 0.931 . S
C56 C55 1.291 . S
C56 C57 1.373 . S
C56 H69 0.929 . S
C57 C56 1.373 . S
C57 C58 1.396 . S
C57 C64 1.403 . S
C58 C48 1.476 . S
C58 N53 1.318 . S
C58 C57 1.396 . S
H59 C54 0.929 . S
O60 Mn36 2.385 . S
O60 C38 1.234 . S
O61 Mn36 2.209 . S
O61 Mn37 2.215 . S
O61 C38 1.283 . S
O62 Mn36 2.094 . S
O62 C40 1.240 . S
O63 Mn37 2.117 . S
O63 C40 1.264 . S
C64 C57 1.403 . S
C64 C65 1.399 . S
C64 H70 0.929 . S
C65 C45 1.449 . S
C65 C64 1.399 . S
C65 H71 0.930 . S
H66 C46 0.931 . S
H67 C47 0.930 . S
H68 C55 0.931 . S
H69 C56 0.929 . S
H70 C64 0.929 . S
H71 C65 0.930 . S
Mn72 O77 2.095 . S
Mn72 O87 2.162 . S
Mn72 O88 2.297 . S
Mn72 O96 2.385 . S
Mn72 O97 2.209 . S
Mn72 O98 2.094 . S
Mn73 O78 2.121 . S
Mn73 N80 2.257 . S
Mn73 N89 2.282 . S
Mn73 O97 2.215 . S
Mn73 O99 2.117 . S
C74 O96 1.234 . S
C74 O97 1.283 . S
C75 O87 1.281 . S
C75 O88 1.236 . S
C76 O98 1.240 . S
C76 O99 1.264 . S
O77 Mn72 2.095 . S
O77 C86 1.250 . S
O78 Mn73 2.121 . S
O78 C86 1.258 . S
C79 N80 1.326 . S
C79 C83 1.460 . S
C79 H85 0.929 . S
N80 Mn73 2.257 . S
N80 C79 1.326 . S
N80 C84 1.362 . S
C81 C82 1.258 . S
C81 C84 1.431 . S
C81 C101 1.449 . S
C82 C81 1.258 . S
C82 C83 1.477 . S
C82 H102 0.931 . S
C83 C79 1.460 . S
C83 C82 1.477 . S
C83 H103 0.930 . S
C84 N80 1.362 . S
C84 C81 1.431 . S
C84 C94 1.476 . S
H85 C79 0.929 . S
C86 O77 1.250 . S
C86 O78 1.258 . S
O87 Mn72 2.162 . S
O87 C75 1.281 . S
O88 Mn72 2.297 . S
O88 C75 1.236 . S
N89 Mn73 2.282 . S
N89 C90 1.328 . S
N89 C94 1.318 . S
C90 N89 1.328 . S
C90 C91 1.457 . S
C90 H95 0.929 . S
C91 C90 1.457 . S
C91 C92 1.291 . S
C91 H104 0.931 . S
C92 C91 1.291 . S
C92 C93 1.373 . S
C92 H105 0.929 . S
C93 C92 1.373 . S
C93 C94 1.396 . S
C93 C100 1.403 . S
C94 C84 1.476 . S
C94 N89 1.318 . S
C94 C93 1.396 . S
H95 C90 0.929 . S
O96 Mn72 2.385 . S
O96 C74 1.234 . S
O97 Mn72 2.209 . S
O97 Mn73 2.215 . S
O97 C74 1.283 . S
O98 Mn72 2.094 . S
O98 C76 1.240 . S
O99 Mn73 2.117 . S
O99 C76 1.264 . S
C100 C93 1.403 . S
C100 C101 1.399 . S
C100 H106 0.929 . S
C101 C81 1.449 . S
C101 C100 1.399 . S
C101 H107 0.930 . S
H102 C82 0.931 . S
H103 C83 0.930 . S
H104 C91 0.931 . S
H105 C92 0.929 . S
H106 C100 0.929 . S
H107 C101 0.930 . S
Mn108 O113 2.095 . S
Mn108 O123 2.162 . S
Mn108 O124 2.297 . S
Mn108 O132 2.385 . S
Mn108 O133 2.209 . S
Mn108 O134 2.094 . S
Mn109 O114 2.121 . S
Mn109 N116 2.257 . S
Mn109 N125 2.282 . S
Mn109 O133 2.215 . S
Mn109 O135 2.117 . S
C110 O132 1.234 . S
C110 O133 1.283 . S
C111 O123 1.281 . S
C111 O124 1.236 . S
C112 O134 1.240 . S
C112 O135 1.264 . S
O113 Mn108 2.095 . S
O113 C122 1.250 . S
O114 Mn109 2.121 . S
O114 C122 1.258 . S
C115 N116 1.326 . S
C115 C119 1.460 . S
C115 H121 0.929 . S
N116 Mn109 2.257 . S
N116 C115 1.326 . S
N116 C120 1.362 . S
C117 C118 1.258 . S
C117 C120 1.431 . S
C117 C137 1.449 . S
C118 C117 1.258 . S
C118 C119 1.477 . S
C118 H138 0.931 . S
C119 C115 1.460 . S
C119 C118 1.477 . S
C119 H139 0.930 . S
C120 N116 1.362 . S
C120 C117 1.431 . S
C120 C130 1.476 . S
H121 C115 0.929 . S
C122 O113 1.250 . S
C122 O114 1.258 . S
O123 Mn108 2.162 . S
O123 C111 1.281 . S
O124 Mn108 2.297 . S
O124 C111 1.236 . S
N125 Mn109 2.282 . S
N125 C126 1.328 . S
N125 C130 1.318 . S
C126 N125 1.328 . S
C126 C127 1.457 . S
C126 H131 0.929 . S
C127 C126 1.457 . S
C127 C128 1.291 . S
C127 H140 0.931 . S
C128 C127 1.291 . S
C128 C129 1.373 . S
C128 H141 0.929 . S
C129 C128 1.373 . S
C129 C130 1.396 . S
C129 C136 1.403 . S
C130 C120 1.476 . S
C130 N125 1.318 . S
C130 C129 1.396 . S
H131 C126 0.929 . S
O132 Mn108 2.385 . S
O132 C110 1.234 . S
O133 Mn108 2.209 . S
O133 Mn109 2.215 . S
O133 C110 1.283 . S
O134 Mn108 2.094 . S
O134 C112 1.240 . S
O135 Mn109 2.117 . S
O135 C112 1.264 . S
C136 C129 1.403 . S
C136 C137 1.399 . S
C136 H142 0.929 . S
C137 C117 1.449 . S
C137 C136 1.399 . S
C137 H143 0.930 . S
H138 C118 0.931 . S
H139 C119 0.930 . S
H140 C127 0.931 . S
H141 C128 0.929 . S
H142 C136 0.929 . S
H143 C137 0.930 . S
Mn144 O149 2.095 . S
Mn144 O159 2.162 . S
Mn144 O160 2.297 . S
Mn144 O168 2.385 . S
Mn144 O169 2.209 . S
Mn144 O170 2.094 . S
Mn145 O150 2.121 . S
Mn145 N152 2.257 . S
Mn145 N161 2.282 . S
Mn145 O169 2.215 . S
Mn145 O171 2.117 . S
C146 O168 1.234 . S
C146 O169 1.283 . S
C147 O159 1.281 . S
C147 O160 1.236 . S
C148 O170 1.240 . S
C148 O171 1.264 . S
O149 Mn144 2.095 . S
O149 C158 1.250 . S
O150 Mn145 2.121 . S
O150 C158 1.258 . S
C151 N152 1.326 . S
C151 C155 1.460 . S
C151 H157 0.929 . S
N152 Mn145 2.257 . S
N152 C151 1.326 . S
N152 C156 1.362 . S
C153 C154 1.258 . S
C153 C156 1.431 . S
C153 C173 1.449 . S
C154 C153 1.258 . S
C154 C155 1.477 . S
C154 H174 0.931 . S
C155 C151 1.460 . S
C155 C154 1.477 . S
C155 H175 0.930 . S
C156 N152 1.362 . S
C156 C153 1.431 . S
C156 C166 1.476 . S
H157 C151 0.929 . S
C158 O149 1.250 . S
C158 O150 1.258 . S
O159 Mn144 2.162 . S
O159 C147 1.281 . S
O160 Mn144 2.297 . S
O160 C147 1.236 . S
N161 Mn145 2.282 . S
N161 C162 1.328 . S
N161 C166 1.318 . S
C162 N161 1.328 . S
C162 C163 1.457 . S
C162 H167 0.929 . S
C163 C162 1.457 . S
C163 C164 1.291 . S
C163 H176 0.931 . S
C164 C163 1.291 . S
C164 C165 1.373 . S
C164 H177 0.929 . S
C165 C164 1.373 . S
C165 C166 1.396 . S
C165 C172 1.403 . S
C166 C156 1.476 . S
C166 N161 1.318 . S
C166 C165 1.396 . S
H167 C162 0.929 . S
O168 Mn144 2.385 . S
O168 C146 1.234 . S
O169 Mn144 2.209 . S
O169 Mn145 2.215 . S
O169 C146 1.283 . S
O170 Mn144 2.094 . S
O170 C148 1.240 . S
O171 Mn145 2.117 . S
O171 C148 1.264 . S
C172 C165 1.403 . S
C172 C173 1.399 . S
C172 H178 0.929 . S
C173 C153 1.449 . S
C173 C172 1.399 . S
C173 H179 0.930 . S
H174 C154 0.931 . S
H175 C155 0.930 . S
H176 C163 0.931 . S
H177 C164 0.929 . S
H178 C172 0.929 . S
H179 C173 0.930 . S
Mn180 O185 2.095 . S
Mn180 O195 2.162 . S
Mn180 O196 2.297 . S
Mn180 O204 2.385 . S
Mn180 O205 2.209 . S
Mn180 O206 2.094 . S
Mn181 O186 2.121 . S
Mn181 N188 2.257 . S
Mn181 N197 2.282 . S
Mn181 O205 2.215 . S
Mn181 O207 2.117 . S
C182 O204 1.234 . S
C182 O205 1.283 . S
C183 O195 1.281 . S
C183 O196 1.236 . S
C184 O206 1.240 . S
C184 O207 1.264 . S
O185 Mn180 2.095 . S
O185 C194 1.250 . S
O186 Mn181 2.121 . S
O186 C194 1.258 . S
C187 N188 1.326 . S
C187 C191 1.460 . S
C187 H193 0.929 . S
N188 Mn181 2.257 . S
N188 C187 1.326 . S
N188 C192 1.362 . S
C189 C190 1.258 . S
C189 C192 1.431 . S
C189 C209 1.449 . S
C190 C189 1.258 . S
C190 C191 1.477 . S
C190 H210 0.931 . S
C191 C187 1.460 . S
C191 C190 1.477 . S
C191 H211 0.930 . S
C192 N188 1.362 . S
C192 C189 1.431 . S
C192 C202 1.476 . S
H193 C187 0.929 . S
C194 O185 1.250 . S
C194 O186 1.258 . S
O195 Mn180 2.162 . S
O195 C183 1.281 . S
O196 Mn180 2.297 . S
O196 C183 1.236 . S
N197 Mn181 2.282 . S
N197 C198 1.328 . S
N197 C202 1.318 . S
C198 N197 1.328 . S
C198 C199 1.457 . S
C198 H203 0.929 . S
C199 C198 1.457 . S
C199 C200 1.291 . S
C199 H212 0.931 . S
C200 C199 1.291 . S
C200 C201 1.373 . S
C200 H213 0.929 . S
C201 C200 1.373 . S
C201 C202 1.396 . S
C201 C208 1.403 . S
C202 C192 1.476 . S
C202 N197 1.318 . S
C202 C201 1.396 . S
H203 C198 0.929 . S
O204 Mn180 2.385 . S
O204 C182 1.234 . S
O205 Mn180 2.209 . S
O205 Mn181 2.215 . S
O205 C182 1.283 . S
O206 Mn180 2.094 . S
O206 C184 1.240 . S
O207 Mn181 2.117 . S
O207 C184 1.264 . S
C208 C201 1.403 . S
C208 C209 1.399 . S
C208 H214 0.929 . S
C209 C189 1.449 . S
C209 C208 1.399 . S
C209 H215 0.930 . S
H210 C190 0.931 . S
H211 C191 0.930 . S
H212 C199 0.931 . S
H213 C200 0.929 . S
H214 C208 0.929 . S
H215 C209 0.930 . S
H216 C222 0.930 . S
H217 C226 0.930 . S
H218 C231 0.929 . S
H219 C229 0.929 . S
H220 C224 0.929 . S
H221 C230 0.929 . S
C222 H216 0.930 . S
C222 C223 1.367 . S
C222 C230 1.378 . S
C223 C222 1.367 . S
C223 C231 1.433 . S
C224 H220 0.929 . S
C224 C226 1.378 . S
C224 C228 1.350 . S
C225 C228 1.463 1_545 S
C225 C230 1.350 . S
C225 N233 1.427 . S
C226 H217 0.930 . S
C226 C224 1.378 . S
C226 C227 1.367 . S
C227 C226 1.367 . S
C227 C229 1.433 . S
C228 C224 1.350 . S
C228 C225 1.463 1_565 S
C228 N232 1.427 . S
C229 H219 0.929 . S
C229 C227 1.433 . S
C229 N232 1.384 . S
C230 H221 0.929 . S
C230 C222 1.378 . S
C230 C225 1.350 . S
C231 H218 0.929 . S
C231 C223 1.433 . S
C231 N233 1.384 . S
N232 C228 1.427 . S
N232 C229 1.384 . S
N233 C225 1.427 . S
N233 C231 1.384 . S
H234 C240 0.930 . S
H235 C244 0.930 . S
H236 C249 0.929 . S
H237 C247 0.929 . S
H238 C242 0.929 . S
H239 C248 0.929 . S
C240 H234 0.930 . S
C240 C241 1.367 . S
C240 C248 1.378 . S
C241 C240 1.367 . S
C241 C249 1.433 . S
C242 H238 0.929 . S
C242 C244 1.378 . S
C242 C246 1.350 . S
C243 C246 1.463 . S
C243 C248 1.350 . S
C243 N251 1.427 . S
C244 H235 0.930 . S
C244 C242 1.378 . S
C244 C245 1.367 . S
C245 C244 1.367 . S
C245 C247 1.433 . S
C246 C242 1.350 . S
C246 C243 1.463 . S
C246 N250 1.427 . S
C247 H237 0.929 . S
C247 C245 1.433 . S
C247 N250 1.384 . S
C248 H239 0.929 . S
C248 C240 1.378 . S
C248 C243 1.350 . S
C249 H236 0.929 . S
C249 C241 1.433 . S
C249 N251 1.384 . S
N250 C246 1.427 . S
N250 C247 1.384 . S
N251 C243 1.427 . S
N251 C249 1.384 . S
H252 C258 0.930 . S
H253 C262 0.930 . S
H254 C267 0.929 . S
H255 C265 0.929 . S
H256 C260 0.929 . S
H257 C266 0.929 . S
C258 H252 0.930 . S
C258 C259 1.367 . S
C258 C266 1.378 . S
C259 C258 1.367 . S
C259 C267 1.433 . S
C260 H256 0.929 . S
C260 C262 1.378 . S
C260 C264 1.350 . S
C261 C264 1.463 1_655 S
C261 C266 1.350 . S
C261 N269 1.427 . S
C262 H253 0.930 . S
C262 C260 1.378 . S
C262 C263 1.367 . S
C263 C262 1.367 . S
C263 C265 1.433 . S
C264 C260 1.350 . S
C264 C261 1.463 1_455 S
C264 N268 1.427 . S
C265 H255 0.929 . S
C265 C263 1.433 . S
C265 N268 1.384 . S
C266 H257 0.929 . S
C266 C258 1.378 . S
C266 C261 1.350 . S
C267 H254 0.929 . S
C267 C259 1.433 . S
C267 N269 1.384 . S
N268 C264 1.427 . S
N268 C265 1.384 . S
N269 C261 1.427 . S
N269 C267 1.384 . S
H270 C276 0.930 . S
H271 C280 0.930 . S
H272 C285 0.929 . S
H273 C283 0.929 . S
H274 C278 0.929 . S
H275 C284 0.929 . S
C276 H270 0.930 . S
C276 C277 1.367 . S
C276 C284 1.378 . S
C277 C276 1.367 . S
C277 C285 1.433 . S
C278 H274 0.929 . S
C278 C280 1.378 . S
C278 C282 1.350 . S
C279 C282 1.463 1_455 S
C279 C284 1.350 . S
C279 N287 1.427 . S
C280 H271 0.930 . S
C280 C278 1.378 . S
C280 C281 1.367 . S
C281 C280 1.367 . S
C281 C283 1.433 . S
C282 C278 1.350 . S
C282 C279 1.463 1_655 S
C282 N286 1.427 . S
C283 H273 0.929 . S
C283 C281 1.433 . S
C283 N286 1.384 . S
C284 H275 0.929 . S
C284 C276 1.378 . S
C284 C279 1.350 . S
C285 H272 0.929 . S
C285 C277 1.433 . S
C285 N287 1.384 . S
N286 C282 1.427 . S
N286 C283 1.384 . S
N287 C279 1.427 . S
N287 C285 1.384 . S
H288 C294 0.930 . S
H289 C298 0.930 . S
H290 C303 0.929 . S
H291 C301 0.929 . S
H292 C296 0.929 . S
H293 C302 0.929 . S
C294 H288 0.930 . S
C294 C295 1.367 . S
C294 C302 1.378 . S
C295 C294 1.367 . S
C295 C303 1.433 . S
C296 H292 0.929 . S
C296 C298 1.378 . S
C296 C300 1.350 . S
C297 C300 1.463 1_565 S
C297 C302 1.350 . S
C297 N305 1.427 . S
C298 H289 0.930 . S
C298 C296 1.378 . S
C298 C299 1.367 . S
C299 C298 1.367 . S
C299 C301 1.433 . S
C300 C296 1.350 . S
C300 C297 1.463 1_545 S
C300 N304 1.427 . S
C301 H291 0.929 . S
C301 C299 1.433 . S
C301 N304 1.384 . S
C302 H293 0.929 . S
C302 C294 1.378 . S
C302 C297 1.350 . S
C303 H290 0.929 . S
C303 C295 1.433 . S
C303 N305 1.384 . S
N304 C300 1.427 . S
N304 C301 1.384 . S
N305 C297 1.427 . S
N305 C303 1.384 . S
H306 C312 0.930 . S
H307 C316 0.930 . S
H308 C321 0.929 . S
H309 C319 0.929 . S
H310 C314 0.929 . S
H311 C320 0.929 . S
C312 H306 0.930 . S
C312 C313 1.367 . S
C312 C320 1.378 . S
C313 C312 1.367 . S
C313 C321 1.433 . S
C314 H310 0.929 . S
C314 C316 1.378 . S
C314 C318 1.350 . S
C315 C318 1.463 . S
C315 C320 1.350 . S
C315 N323 1.427 . S
C316 H307 0.930 . S
C316 C314 1.378 . S
C316 C317 1.367 . S
C317 C316 1.367 . S
C317 C319 1.433 . S
C318 C314 1.350 . S
C318 C315 1.463 . S
C318 N322 1.427 . S
C319 H309 0.929 . S
C319 C317 1.433 . S
C319 N322 1.384 . S
C320 H311 0.929 . S
C320 C312 1.378 . S
C320 C315 1.350 . S
C321 H308 0.929 . S
C321 C313 1.433 . S
C321 N323 1.384 . S
N322 C318 1.427 . S
N322 C319 1.384 . S
N323 C315 1.427 . S
N323 C321 1.384 . S
H324 C330 0.930 . S
H325 C334 0.930 . S
H326 C339 0.929 . S
H327 C337 0.929 . S
H328 C332 0.929 . S
H329 C338 0.929 . S
C330 H324 0.930 . S
C330 C331 1.367 . S
C330 C338 1.378 . S
C331 C330 1.367 . S
C331 C339 1.433 . S
C332 H328 0.929 . S
C332 C334 1.378 . S
C332 C336 1.350 . S
C333 C336 1.463 1_556 S
C333 C338 1.350 . S
C333 N341 1.427 . S
C334 H325 0.930 . S
C334 C332 1.378 . S
C334 C335 1.367 . S
C335 C334 1.367 . S
C335 C337 1.433 . S
C336 C332 1.350 . S
C336 C333 1.463 1_554 S
C336 N340 1.427 . S
C337 H327 0.929 . S
C337 C335 1.433 . S
C337 N340 1.384 . S
C338 H329 0.929 . S
C338 C330 1.378 . S
C338 C333 1.350 . S
C339 H326 0.929 . S
C339 C331 1.433 . S
C339 N341 1.384 . S
N340 C336 1.427 . S
N340 C337 1.384 . S
N341 C333 1.427 . S
N341 C339 1.384 . S
H342 C348 0.930 . S
H343 C352 0.930 . S
H344 C357 0.929 . S
H345 C355 0.929 . S
H346 C350 0.929 . S
H347 C356 0.929 . S
C348 H342 0.930 . S
C348 C349 1.367 . S
C348 C356 1.378 . S
C349 C348 1.367 . S
C349 C357 1.433 . S
C350 H346 0.929 . S
C350 C352 1.378 . S
C350 C354 1.350 . S
C351 C354 1.463 . S
C351 C356 1.350 . S
C351 N359 1.427 . S
C352 H343 0.930 . S
C352 C350 1.378 . S
C352 C353 1.367 . S
C353 C352 1.367 . S
C353 C355 1.433 . S
C354 C350 1.350 . S
C354 C351 1.463 . S
C354 N358 1.427 . S
C355 H345 0.929 . S
C355 C353 1.433 . S
C355 N358 1.384 . S
C356 H347 0.929 . S
C356 C348 1.378 . S
C356 C351 1.350 . S
C357 H344 0.929 . S
C357 C349 1.433 . S
C357 N359 1.384 . S
N358 C354 1.427 . S
N358 C355 1.384 . S
N359 C351 1.427 . S
N359 C357 1.384 . S
H360 C366 0.930 . S
H361 C370 0.930 . S
H362 C375 0.929 . S
H363 C373 0.929 . S
H364 C368 0.929 . S
H365 C374 0.929 . S
C366 H360 0.930 . S
C366 C367 1.367 . S
C366 C374 1.378 . S
C367 C366 1.367 . S
C367 C375 1.433 . S
C368 H364 0.929 . S
C368 C370 1.378 . S
C368 C372 1.350 . S
C369 C372 1.463 . S
C369 C374 1.350 . S
C369 N377 1.427 . S
C370 H361 0.930 . S
C370 C368 1.378 . S
C370 C371 1.367 . S
C371 C370 1.367 . S
C371 C373 1.433 . S
C372 C368 1.350 . S
C372 C369 1.463 . S
C372 N376 1.427 . S
C373 H363 0.929 . S
C373 C371 1.433 . S
C373 N376 1.384 . S
C374 H365 0.929 . S
C374 C366 1.378 . S
C374 C369 1.350 . S
C375 H362 0.929 . S
C375 C367 1.433 . S
C375 N377 1.384 . S
N376 C372 1.427 . S
N376 C373 1.384 . S
N377 C369 1.427 . S
N377 C375 1.384 . S
H378 C384 0.930 . S
H379 C388 0.930 . S
H380 C393 0.929 . S
H381 C391 0.929 . S
H382 C386 0.929 . S
H383 C392 0.929 . S
C384 H378 0.930 . S
C384 C385 1.367 . S
C384 C392 1.378 . S
C385 C384 1.367 . S
C385 C393 1.433 . S
C386 H382 0.929 . S
C386 C388 1.378 . S
C386 C390 1.350 . S
C387 C390 1.463 1_556 S
C387 C392 1.350 . S
C387 N395 1.427 . S
C388 H379 0.930 . S
C388 C386 1.378 . S
C388 C389 1.367 . S
C389 C388 1.367 . S
C389 C391 1.433 . S
C390 C386 1.350 . S
C390 C387 1.463 1_554 S
C390 N394 1.427 . S
C391 H381 0.929 . S
C391 C389 1.433 . S
C391 N394 1.384 . S
C392 H383 0.929 . S
C392 C384 1.378 . S
C392 C387 1.350 . S
C393 H380 0.929 . S
C393 C385 1.433 . S
C393 N395 1.384 . S
N394 C390 1.427 . S
N394 C391 1.384 . S
N395 C387 1.427 . S
N395 C393 1.384 . S
H396 C402 0.930 . S
H397 C406 0.930 . S
H398 C411 0.929 . S
H399 C409 0.929 . S
H400 C404 0.929 . S
H401 C410 0.929 . S
C402 H396 0.930 . S
C402 C403 1.367 . S
C402 C410 1.378 . S
C403 C402 1.367 . S
C403 C411 1.433 . S
C404 H400 0.929 . S
C404 C406 1.378 . S
C404 C408 1.350 . S
C405 C408 1.463 . S
C405 C410 1.350 . S
C405 N413 1.427 . S
C406 H397 0.930 . S
C406 C404 1.378 . S
C406 C407 1.367 . S
C407 C406 1.367 . S
C407 C409 1.433 . S
C408 C404 1.350 . S
C408 C405 1.463 . S
C408 N412 1.427 . S
C409 H399 0.929 . S
C409 C407 1.433 . S
C409 N412 1.384 . S
C410 H401 0.929 . S
C410 C402 1.378 . S
C410 C405 1.350 . S
C411 H398 0.929 . S
C411 C403 1.433 . S
C411 N413 1.384 . S
N412 C408 1.427 . S
N412 C409 1.384 . S
N413 C405 1.427 . S
N413 C411 1.384 . S
H414 C420 0.930 . S
H415 C424 0.930 . S
H416 C429 0.929 . S
H417 C427 0.929 . S
H418 C422 0.929 . S
H419 C428 0.929 . S
C420 H414 0.930 . S
C420 C421 1.367 . S
C420 C428 1.378 . S
C421 C420 1.367 . S
C421 C429 1.433 . S
C422 H418 0.929 . S
C422 C424 1.378 . S
C422 C426 1.350 . S
C423 C426 1.463 . S
C423 C428 1.350 . S
C423 N431 1.427 . S
C424 H415 0.930 . S
C424 C422 1.378 . S
C424 C425 1.367 . S
C425 C424 1.367 . S
C425 C427 1.433 . S
C426 C422 1.350 . S
C426 C423 1.463 . S
C426 N430 1.427 . S
C427 H417 0.929 . S
C427 C425 1.433 . S
C427 N430 1.384 . S
C428 H419 0.929 . S
C428 C420 1.378 . S
C428 C423 1.350 . S
C429 H416 0.929 . S
C429 C421 1.433 . S
C429 N431 1.384 . S
N430 C426 1.427 . S
N430 C427 1.384 . S
N431 C423 1.427 . S
N431 C429 1.384 . S
C223 C3 1.441 . S
C227 C111 1.443 . S
C241 C39 1.430 . S
C245 C147 1.428 . S
C259 C76 1.419 . S
C263 C184 1.419 . S
C277 C40 1.401 . S
C281 C148 1.401 . S
C295 C183 1.429 . S
C299 C75 1.428 . S
C313 C112 1.420 . S
C317 C4 1.421 . S
C331 C74 1.141 . S
C335 C2 1.149 . S
C349 C122 1.235 . S
C353 C38 1.173 . S
C367 C86 1.257 . S
C371 C158 1.245 . S
C385 C182 1.164 . S
C389 C110 1.158 . S
C403 C146 1.186 . S
C407 C14 1.227 . S
C421 C194 1.245 . S
C425 C50 1.259 . S
