# Generated by pormake.
# Topology pcb, (4)-cn, num edge types: 1
# Building blocks:
#     Node 0, Type 0, BuildingBlock: TATPOV_clean_sbu_0, # of connection points: 4
#     Node 1, Type 0, BuildingBlock: TATPOV_clean_sbu_0, # of connection points: 4
#     Node 2, Type 0, BuildingBlock: TATPOV_clean_sbu_0, # of connection points: 4
#     Node 3, Type 0, BuildingBlock: TATPOV_clean_sbu_0, # of connection points: 4
#     Node 4, Type 0, BuildingBlock: TATPOV_clean_sbu_0, # of connection points: 4
#     Node 5, Type 0, BuildingBlock: TATPOV_clean_sbu_0, # of connection points: 4
#     Node 6, Type 0, BuildingBlock: TATPOV_clean_sbu_0, # of connection points: 4
#     Node 7, Type 0, BuildingBlock: TATPOV_clean_sbu_0, # of connection points: 4
#     Node 8, Type 0, BuildingBlock: TATPOV_clean_sbu_0, # of connection points: 4
#     Node 9, Type 0, BuildingBlock: TATPOV_clean_sbu_0, # of connection points: 4
#     Node 10, Type 0, BuildingBlock: TATPOV_clean_sbu_0, # of connection points: 4
#     Node 11, Type 0, BuildingBlock: TATPOV_clean_sbu_0, # of connection points: 4
#     Node 12, Type 0, BuildingBlock: TATPOV_clean_sbu_0, # of connection points: 4
#     Node 13, Type 0, BuildingBlock: TATPOV_clean_sbu_0, # of connection points: 4
#     Node 14, Type 0, BuildingBlock: TATPOV_clean_sbu_0, # of connection points: 4
#     Node 15, Type 0, BuildingBlock: TATPOV_clean_sbu_0, # of connection points: 4
#     Edge 16, Type (0, 0), BuildingBlock: TEMPAE_clean_linker_10, # of connection points: 2
#     Edge 17, Type (0, 0), BuildingBlock: TEMPAE_clean_linker_10, # of connection points: 2
#     Edge 18, Type (0, 0), BuildingBlock: TEMPAE_clean_linker_10, # of connection points: 2
#     Edge 19, Type (0, 0), BuildingBlock: TEMPAE_clean_linker_10, # of connection points: 2
#     Edge 20, Type (0, 0), BuildingBlock: TEMPAE_clean_linker_10, # of connection points: 2
#     Edge 21, Type (0, 0), BuildingBlock: TEMPAE_clean_linker_10, # of connection points: 2
#     Edge 22, Type (0, 0), BuildingBlock: TEMPAE_clean_linker_10, # of connection points: 2
#     Edge 23, Type (0, 0), BuildingBlock: TEMPAE_clean_linker_10, # of connection points: 2
#     Edge 24, Type (0, 0), BuildingBlock: TEMPAE_clean_linker_10, # of connection points: 2
#     Edge 25, Type (0, 0), BuildingBlock: TEMPAE_clean_linker_10, # of connection points: 2
#     Edge 26, Type (0, 0), BuildingBlock: TEMPAE_clean_linker_10, # of connection points: 2
#     Edge 27, Type (0, 0), BuildingBlock: TEMPAE_clean_linker_10, # of connection points: 2
#     Edge 28, Type (0, 0), BuildingBlock: TEMPAE_clean_linker_10, # of connection points: 2
#     Edge 29, Type (0, 0), BuildingBlock: TEMPAE_clean_linker_10, # of connection points: 2
#     Edge 30, Type (0, 0), BuildingBlock: TEMPAE_clean_linker_10, # of connection points: 2
#     Edge 31, Type (0, 0), BuildingBlock: TEMPAE_clean_linker_10, # of connection points: 2
#     Edge 32, Type (0, 0), BuildingBlock: TEMPAE_clean_linker_10, # of connection points: 2
#     Edge 33, Type (0, 0), BuildingBlock: TEMPAE_clean_linker_10, # of connection points: 2
#     Edge 34, Type (0, 0), BuildingBlock: TEMPAE_clean_linker_10, # of connection points: 2
#     Edge 35, Type (0, 0), BuildingBlock: TEMPAE_clean_linker_10, # of connection points: 2
#     Edge 36, Type (0, 0), BuildingBlock: TEMPAE_clean_linker_10, # of connection points: 2
#     Edge 37, Type (0, 0), BuildingBlock: TEMPAE_clean_linker_10, # of connection points: 2
#     Edge 38, Type (0, 0), BuildingBlock: TEMPAE_clean_linker_10, # of connection points: 2
#     Edge 39, Type (0, 0), BuildingBlock: TEMPAE_clean_linker_10, # of connection points: 2
#     Edge 40, Type (0, 0), BuildingBlock: TEMPAE_clean_linker_10, # of connection points: 2
#     Edge 41, Type (0, 0), BuildingBlock: TEMPAE_clean_linker_10, # of connection points: 2
#     Edge 42, Type (0, 0), BuildingBlock: TEMPAE_clean_linker_10, # of connection points: 2
#     Edge 43, Type (0, 0), BuildingBlock: TEMPAE_clean_linker_10, # of connection points: 2
#     Edge 44, Type (0, 0), BuildingBlock: TEMPAE_clean_linker_10, # of connection points: 2
#     Edge 45, Type (0, 0), BuildingBlock: TEMPAE_clean_linker_10, # of connection points: 2
#     Edge 46, Type (0, 0), BuildingBlock: TEMPAE_clean_linker_10, # of connection points: 2
#     Edge 47, Type (0, 0), BuildingBlock: TEMPAE_clean_linker_10, # of connection points: 2
# Relax obj value: 0.184
# Max RMSD: 0.079
# Mean RMSD: 0.079
data_MOF--net-pcb--node1-TATPOV_clean_sbu_0--edge1-TEMPAE_clean_linker_10
_symmetry_space_group_name_H-M    P1
_symmetry_Int_Tables_number       1
_symmetry_cell_setting            triclinic
loop_
_symmetry_equiv_pos_as_xyz
'x, y, z'
_cell_length_a     47.628105
_cell_length_b     46.701981
_cell_length_c     46.710861
_cell_angle_alpha  89.863215
_cell_angle_beta   89.962649
_cell_angle_gamma 90.05767
loop_
_atom_site_label
_atom_site_type_symbol
_atom_site_fract_x
_atom_site_fract_y
_atom_site_fract_z
_atom_type_partial_charge
Zn0 Zn 0.07362 0.10987 0.16256 0.0
Zn1 Zn 0.11162 0.13472 0.19397 0.0
O2 O 0.07412 0.15259 0.20875 0.0
O3 O 0.04285 0.13047 0.18219 0.0
O4 O 0.14081 0.15486 0.21724 0.0
O5 O 0.08483 0.07138 0.17691 0.0
O6 O 0.11938 0.09142 0.201 0.0
C7 C 0.04861 0.14828 0.20167 0.0
C8 C 0.11281 0.14198 0.12885 0.0
O9 O 0.12299 0.14733 0.15344 0.0
O10 O 0.09127 0.1262 0.12671 0.0
C11 C 0.1412 0.18198 0.21516 0.0
O12 O 0.12211 0.1947 0.19931 0.0
C13 C 0.10612 0.06912 0.19289 0.0
Zn14 Zn 0.86437 0.19619 0.10892 0.0
Zn15 Zn 0.82594 0.21344 0.143 0.0
O16 O 0.86269 0.23013 0.16087 0.0
O17 O 0.89481 0.21504 0.13073 0.0
O18 O 0.79606 0.22941 0.16832 0.0
O19 O 0.84871 0.2164 0.07528 0.0
O20 O 0.81221 0.22595 0.10235 0.0
C21 C 0.88834 0.22859 0.15316 0.0
C22 C 0.83504 0.14962 0.13675 0.0
O23 O 0.82266 0.17009 0.14953 0.0
O24 O 0.85326 0.15507 0.1177 0.0
C25 C 0.79839 0.2279 0.19535 0.0
O26 O 0.82063 0.21553 0.2065 0.0
C27 C 0.8243 0.2266 0.07798 0.0
Zn28 Zn 0.88735 0.90469 0.14639 0.0
Zn29 Zn 0.84837 0.87828 0.17464 0.0
O30 O 0.88463 0.86169 0.19315 0.0
O31 O 0.91702 0.88521 0.16915 0.0
O32 O 0.81769 0.85886 0.19684 0.0
O33 O 0.87501 0.94324 0.15828 0.0
O34 O 0.83939 0.92202 0.17973 0.0
C35 C 0.91042 0.86702 0.18811 0.0
C36 C 0.85458 0.8682 0.11035 0.0
O37 O 0.84272 0.86211 0.13404 0.0
O38 O 0.87383 0.88692 0.10956 0.0
C39 C 0.8177 0.8317 0.19861 0.0
O40 O 0.83789 0.81727 0.18601 0.0
C41 C 0.85256 0.94478 0.17256 0.0
Zn42 Zn 0.08853 0.84115 0.08505 0.0
Zn43 Zn 0.12856 0.8146 0.11184 0.0
O44 O 0.09301 0.79583 0.1298 0.0
O45 O 0.05983 0.81812 0.10583 0.0
O46 O 0.16023 0.79424 0.13125 0.0
O47 O 0.10097 0.82821 0.04677 0.0
O48 O 0.13727 0.80851 0.06831 0.0
C49 C 0.06705 0.8 0.12459 0.0
C50 C 0.1216 0.87902 0.11955 0.0
O51 O 0.13389 0.85576 0.12619 0.0
O52 O 0.10184 0.87885 0.10142 0.0
C53 C 0.16197 0.79503 0.15837 0.0
O54 O 0.14247 0.8085 0.17298 0.0
C55 C 0.12383 0.81461 0.04546 0.0
Zn56 Zn 0.11683 0.88378 0.79752 0.0
Zn57 Zn 0.15516 0.85023 0.77898 0.0
O58 O 0.1184 0.8317 0.76336 0.0
O59 O 0.08625 0.86104 0.77975 0.0
O60 O 0.18517 0.82574 0.76202 0.0
O61 O 0.13153 0.91805 0.77736 0.0
O62 O 0.16786 0.89127 0.76659 0.0
C63 C 0.09264 0.83864 0.76608 0.0
C64 C 0.14737 0.85564 0.84298 0.0
O65 O 0.15935 0.84313 0.8221 0.0
O66 O 0.1291 0.87478 0.8382 0.0
C67 C 0.18388 0.79864 0.76376 0.0
O68 O 0.16247 0.7867 0.77697 0.0
C69 C 0.15576 0.91563 0.76661 0.0
Zn70 Zn 0.15086 0.10738 0.90577 0.0
Zn71 Zn 0.17193 0.14662 0.87545 0.0
O72 O 0.13005 0.15321 0.86636 0.0
O73 O 0.11249 0.12451 0.89927 0.0
O74 O 0.19255 0.17622 0.85249 0.0
O75 O 0.17234 0.11715 0.94062 0.0
O76 O 0.18229 0.15704 0.91777 0.0
C77 C 0.10898 0.14308 0.87981 0.0
C78 C 0.18121 0.08279 0.86116 0.0
O79 O 0.18709 0.10911 0.85696 0.0
O80 O 0.16455 0.07593 0.88109 0.0
C81 C 0.18938 0.17698 0.8255 0.0
O82 O 0.17135 0.15939 0.81351 0.0
C83 C 0.18252 0.14211 0.94069 0.0
Zn84 Zn 0.86758 0.08222 0.89926 0.0
Zn85 Zn 0.8459 0.1082 0.85592 0.0
O86 O 0.88753 0.11943 0.85089 0.0
O87 O 0.90613 0.09206 0.88429 0.0
O88 O 0.82603 0.12859 0.82417 0.0
O89 O 0.84987 0.04518 0.88879 0.0
O90 O 0.83797 0.0651 0.84784 0.0
C91 C 0.90902 0.10957 0.86376 0.0
C92 C 0.83082 0.12525 0.91789 0.0
O93 O 0.82689 0.1273 0.89099 0.0
O94 O 0.84852 0.10749 0.92744 0.0
C95 C 0.82897 0.15558 0.8226 0.0
O96 O 0.84627 0.16835 0.84039 0.0
C97 C 0.83963 0.04306 0.86394 0.0
Zn98 Zn 0.92463 0.80437 0.88958 0.0
Zn99 Zn 0.88292 0.78021 0.8633 0.0
O100 O 0.91827 0.76228 0.8439 0.0
O101 O 0.95274 0.78082 0.869 0.0
O102 O 0.85093 0.76114 0.84325 0.0
O103 O 0.91096 0.79202 0.92796 0.0
O104 O 0.87397 0.7738 0.90648 0.0
C105 C 0.94448 0.76463 0.84904 0.0
C106 C 0.89076 0.84449 0.85777 0.0
O107 O 0.87685 0.82199 0.85199 0.0
O108 O 0.91249 0.8428 0.87333 0.0
C109 C 0.84899 0.76456 0.81634 0.0
O110 O 0.8685 0.77933 0.80292 0.0
C111 C 0.88737 0.77967 0.92937 0.0
Zn112 Zn 0.62324 0.60771 0.64459 0.0
Zn113 Zn 0.65782 0.63682 0.67551 0.0
O114 O 0.61956 0.65226 0.69041 0.0
O115 O 0.59097 0.62496 0.66539 0.0
O116 O 0.68657 0.65642 0.69963 0.0
O117 O 0.63716 0.57007 0.65757 0.0
O118 O 0.66737 0.59389 0.68396 0.0
C119 C 0.59479 0.64418 0.68401 0.0
C120 C 0.65702 0.64516 0.61052 0.0
O121 O 0.66696 0.65193 0.63491 0.0
O122 O 0.63818 0.62611 0.60878 0.0
C123 C 0.68609 0.68287 0.70579 0.0
O124 O 0.66537 0.69888 0.69638 0.0
C125 C 0.65706 0.57017 0.67543 0.0
Zn126 Zn 0.38832 0.6218 0.58328 0.0
Zn127 Zn 0.35415 0.65523 0.61105 0.0
O128 O 0.39261 0.66974 0.62537 0.0
O129 O 0.42114 0.64359 0.59929 0.0
O130 O 0.32689 0.67994 0.63211 0.0
O131 O 0.37157 0.63222 0.54582 0.0
O132 O 0.34479 0.6635 0.56815 0.0
C133 C 0.41742 0.6629 0.6179 0.0
C134 C 0.35389 0.59018 0.62151 0.0
O135 O 0.34396 0.61496 0.6267 0.0
O136 O 0.37359 0.58729 0.60358 0.0
C137 C 0.32824 0.68119 0.65924 0.0
O138 O 0.3479 0.6667 0.67264 0.0
C139 C 0.35315 0.65164 0.54511 0.0
Zn140 Zn 0.38191 0.3663 0.64656 0.0
Zn141 Zn 0.35026 0.33732 0.67502 0.0
O142 O 0.38989 0.3206 0.68526 0.0
O143 O 0.41336 0.33851 0.649 0.0
O144 O 0.32346 0.31508 0.69961 0.0
O145 O 0.38108 0.39991 0.67287 0.0
O146 O 0.34218 0.37941 0.68735 0.0
C147 C 0.41232 0.32186 0.67033 0.0
C148 C 0.33941 0.3445 0.61181 0.0
O149 O 0.33651 0.32849 0.63375 0.0
O150 O 0.35616 0.36549 0.6127 0.0
C151 C 0.32523 0.2881 0.70248 0.0
O152 O 0.34541 0.27428 0.68922 0.0
C153 C 0.35825 0.40125 0.68658 0.0
Zn154 Zn 0.64007 0.34294 0.64141 0.0
Zn155 Zn 0.66911 0.31052 0.66667 0.0
O156 O 0.6289 0.30113 0.68236 0.0
O157 O 0.60956 0.34202 0.67061 0.0
O158 O 0.69451 0.28299 0.68678 0.0
O159 O 0.63682 0.31846 0.60663 0.0
O160 O 0.67604 0.30095 0.62364 0.0
C161 C 0.6083 0.31851 0.68399 0.0
C162 C 0.68443 0.37303 0.66411 0.0
O163 O 0.68481 0.35022 0.67912 0.0
O164 O 0.66872 0.3743 0.64235 0.0
C165 C 0.69262 0.27877 0.71356 0.0
O166 O 0.67319 0.29235 0.72818 0.0
C167 C 0.65877 0.30375 0.603 0.0
Zn168 Zn 0.60175 0.39848 0.38758 0.0
Zn169 Zn 0.63279 0.37431 0.35043 0.0
O170 O 0.59324 0.35883 0.33983 0.0
O171 O 0.56904 0.37411 0.37678 0.0
O172 O 0.65794 0.35489 0.32229 0.0
O173 O 0.60644 0.43677 0.36909 0.0
O174 O 0.63956 0.41764 0.34242 0.0
C175 C 0.57032 0.35969 0.35392 0.0
C176 C 0.64474 0.36718 0.41447 0.0
O177 O 0.6485 0.35896 0.38877 0.0
O178 O 0.62674 0.38633 0.41982 0.0
C179 C 0.65722 0.32776 0.32063 0.0
O180 O 0.63945 0.31349 0.3368 0.0
C181 C 0.62576 0.43949 0.35073 0.0
Zn182 Zn 0.59961 0.69058 0.39383 0.0
Zn183 Zn 0.63739 0.71046 0.36117 0.0
O184 O 0.60019 0.72494 0.34222 0.0
O185 O 0.56842 0.70485 0.36975 0.0
O186 O 0.66738 0.72934 0.33759 0.0
O187 O 0.61099 0.71242 0.42822 0.0
O188 O 0.64869 0.72211 0.40292 0.0
C189 C 0.57448 0.71983 0.34804 0.0
C190 C 0.63326 0.64646 0.36788 0.0
O191 O 0.64351 0.66751 0.354 0.0
O192 O 0.61514 0.6508 0.38726 0.0
C193 C 0.66614 0.72985 0.31043 0.0
O194 O 0.64477 0.71762 0.29752 0.0
C195 C 0.63553 0.72259 0.42673 0.0
Zn196 Zn 0.39801 0.62044 0.29489 0.0
Zn197 Zn 0.35794 0.6512 0.27565 0.0
O198 O 0.39417 0.67005 0.25856 0.0
O199 O 0.42677 0.63903 0.27036 0.0
O200 O 0.32653 0.67326 0.2578 0.0
O201 O 0.38108 0.58355 0.2829 0.0
O202 O 0.34631 0.60925 0.26587 0.0
C203 C 0.41974 0.66195 0.25784 0.0
C204 C 0.36938 0.65226 0.33919 0.0
O205 O 0.3537 0.65988 0.31847 0.0
O206 O 0.39021 0.63603 0.33457 0.0
C207 C 0.32631 0.70038 0.25587 0.0
O208 O 0.34775 0.71509 0.26573 0.0
C209 C 0.35754 0.58488 0.27049 0.0
Zn210 Zn 0.34619 0.37935 0.36392 0.0
Zn211 Zn 0.31791 0.34253 0.34207 0.0
O212 O 0.35739 0.3318 0.32644 0.0
O213 O 0.37683 0.37346 0.33517 0.0
O214 O 0.29184 0.31354 0.32522 0.0
O215 O 0.3487 0.36008 0.40188 0.0
O216 O 0.31304 0.33505 0.38589 0.0
C217 C 0.3779 0.3491 0.32346 0.0
C218 C 0.3037 0.40625 0.33576 0.0
O219 O 0.30286 0.38108 0.32525 0.0
O220 O 0.31868 0.41084 0.35759 0.0
C221 C 0.29362 0.30517 0.29944 0.0
O222 O 0.3136 0.31551 0.28298 0.0
C223 C 0.32924 0.34223 0.40638 0.0
C224 C 0.27436 0.27528 0.25959 0.0
C225 C 0.27251 0.28502 0.2879 0.0
C226 C 0.25368 0.25724 0.24811 0.0
C227 C 0.2306 0.24888 0.26533 0.0
C228 C 0.22892 0.25814 0.29408 0.0
C229 C 0.24993 0.27604 0.30505 0.0
C230 C 0.25621 0.24761 0.21737 0.0
C231 C 0.20457 0.2497 0.31307 0.0
C232 C 0.16294 0.22893 0.22767 0.0
C233 C 0.16366 0.19894 0.2289 0.0
C234 C 0.18457 0.24541 0.23956 0.0
C235 C 0.20752 0.23156 0.2529 0.0
C236 C 0.20831 0.2013 0.25441 0.0
C237 C 0.1863 0.18533 0.24245 0.0
C238 C 0.18291 0.27767 0.23773 0.0
C239 C 0.23252 0.18583 0.26843 0.0
H240 H 0.2918 0.28201 0.24626 0.0
H241 H 0.24835 0.28341 0.32698 0.0
H242 H 0.25504 0.22392 0.21615 0.0
H243 H 0.23844 0.25626 0.2047 0.0
H244 H 0.27617 0.25479 0.20732 0.0
H245 H 0.20702 0.25772 0.3353 0.0
H246 H 0.18475 0.25839 0.30412 0.0
H247 H 0.20243 0.22606 0.31376 0.0
H248 H 0.14549 0.23961 0.21729 0.0
H249 H 0.18703 0.16215 0.2434 0.0
H250 H 0.2013 0.28613 0.22581 0.0
H251 H 0.18358 0.28703 0.25952 0.0
H252 H 0.16348 0.2851 0.22689 0.0
H253 H 0.25243 0.19145 0.25743 0.0
H254 H 0.22989 0.1622 0.26794 0.0
H255 H 0.2346 0.19271 0.29105 0.0
C256 C 0.69845 0.32741 0.28756 0.0
C257 C 0.67697 0.31242 0.30169 0.0
C258 C 0.71792 0.31305 0.27029 0.0
C259 C 0.71573 0.28303 0.26693 0.0
C260 C 0.69393 0.2678 0.28085 0.0
C261 C 0.67484 0.28268 0.29817 0.0
C262 C 0.74099 0.32997 0.25585 0.0
C263 C 0.69084 0.23579 0.27751 0.0
C264 C 0.75171 0.25125 0.20201 0.0
C265 C 0.77674 0.24084 0.21392 0.0
C266 C 0.73139 0.26452 0.21914 0.0
C267 C 0.73634 0.26762 0.24883 0.0
C268 C 0.76138 0.25682 0.26106 0.0
C269 C 0.78126 0.24344 0.24345 0.0
C270 C 0.70481 0.27559 0.20541 0.0
C271 C 0.7674 0.25991 0.29264 0.0
H272 H 0.70028 0.35038 0.29024 0.0
H273 H 0.65825 0.27098 0.30897 0.0
H274 H 0.76179 0.32189 0.26285 0.0
H275 H 0.73982 0.32713 0.23231 0.0
H276 H 0.73978 0.35321 0.26069 0.0
H277 H 0.67247 0.22721 0.28944 0.0
H278 H 0.68846 0.23029 0.25455 0.0
H279 H 0.71005 0.22488 0.28534 0.0
H280 H 0.748 0.24917 0.17922 0.0
H281 H 0.80057 0.23546 0.25278 0.0
H282 H 0.70361 0.29918 0.20788 0.0
H283 H 0.68617 0.26633 0.21627 0.0
H284 H 0.70366 0.2704 0.18224 0.0
H285 H 0.76837 0.28294 0.29836 0.0
H286 H 0.78752 0.24966 0.29892 0.0
H287 H 0.75018 0.25019 0.30539 0.0
C288 C 0.79662 0.78677 0.21845 0.0
C289 C 0.79531 0.81654 0.21458 0.0
C290 C 0.77565 0.77213 0.23371 0.0
C291 C 0.75277 0.78762 0.24524 0.0
C292 C 0.75121 0.81762 0.24124 0.0
C293 C 0.77255 0.83174 0.22602 0.0
C294 C 0.77807 0.74012 0.23768 0.0
C295 C 0.72706 0.83483 0.25314 0.0
C296 C 0.68591 0.74727 0.26386 0.0
C297 C 0.68841 0.74431 0.29364 0.0
C298 C 0.70672 0.7613 0.2478 0.0
C299 C 0.73064 0.77249 0.26186 0.0
C300 C 0.73339 0.7694 0.29187 0.0
C301 C 0.71221 0.75542 0.30741 0.0
C302 C 0.70305 0.7643 0.21583 0.0
C303 C 0.75868 0.78094 0.30759 0.0
H304 H 0.81415 0.77487 0.20971 0.0
H305 H 0.77133 0.85473 0.22306 0.0
H306 H 0.77889 0.73485 0.26083 0.0
H307 H 0.75928 0.72933 0.22873 0.0
H308 H 0.79707 0.73122 0.22717 0.0
H309 H 0.72871 0.85795 0.24772 0.0
H310 H 0.70688 0.82652 0.24466 0.0
H311 H 0.72633 0.83258 0.27678 0.0
H312 H 0.66756 0.7388 0.25306 0.0
H313 H 0.71435 0.75316 0.3304 0.0
H314 H 0.72096 0.75418 0.20454 0.0
H315 H 0.70295 0.78729 0.20978 0.0
H316 H 0.68326 0.75433 0.20815 0.0
H317 H 0.77814 0.77133 0.2988 0.0
H318 H 0.75778 0.77646 0.33094 0.0
H319 H 0.76023 0.80444 0.30439 0.0
C320 C 0.27814 0.69925 0.23487 0.0
C321 C 0.30209 0.71499 0.24251 0.0
C322 C 0.2551 0.71254 0.22181 0.0
C323 C 0.25608 0.74228 0.2161 0.0
C324 C 0.28008 0.75837 0.22391 0.0
C325 C 0.3028 0.74453 0.23712 0.0
C326 C 0.22978 0.69471 0.21394 0.0
C327 C 0.28186 0.79012 0.21799 0.0
C328 C 0.2083 0.76996 0.15737 0.0
C329 C 0.18604 0.7816 0.17319 0.0
C330 C 0.2314 0.75743 0.1711 0.0
C331 C 0.23216 0.75635 0.20137 0.0
C332 C 0.2098 0.76806 0.21748 0.0
C333 C 0.18701 0.78063 0.20319 0.0
C334 C 0.25494 0.74522 0.15321 0.0
C335 C 0.20984 0.7671 0.2498 0.0
H336 H 0.27735 0.67642 0.23908 0.0
H337 H 0.32124 0.75683 0.24295 0.0
H338 H 0.21068 0.70358 0.2242 0.0
H339 H 0.22641 0.69549 0.19045 0.0
H340 H 0.23207 0.67196 0.22054 0.0
H341 H 0.30181 0.79963 0.22583 0.0
H342 H 0.28019 0.79412 0.19463 0.0
H343 H 0.26406 0.80135 0.22838 0.0
H344 H 0.20776 0.77072 0.13418 0.0
H345 H 0.16988 0.78956 0.21556 0.0
H346 H 0.25706 0.72194 0.15748 0.0
H347 H 0.27514 0.75543 0.15916 0.0
H348 H 0.25144 0.74839 0.12991 0.0
H349 H 0.21056 0.74454 0.25725 0.0
H350 H 0.19101 0.77752 0.25917 0.0
H351 H 0.22886 0.77792 0.25819 0.0
C352 C 0.31041 0.70176 0.70516 0.0
C353 C 0.30752 0.69818 0.6755 0.0
C354 C 0.29076 0.71772 0.72081 0.0
C355 C 0.26765 0.7302 0.70644 0.0
C356 C 0.26454 0.72655 0.67655 0.0
C357 C 0.28458 0.71067 0.66142 0.0
C358 C 0.29481 0.72137 0.75265 0.0
C359 C 0.24007 0.73946 0.66054 0.0
C360 C 0.20256 0.75111 0.74829 0.0
C361 C 0.20585 0.78087 0.75029 0.0
C362 C 0.22276 0.73423 0.73444 0.0
C363 C 0.24684 0.74747 0.72252 0.0
C364 C 0.25058 0.77741 0.72505 0.0
C365 C 0.22999 0.79377 0.73882 0.0
C366 C 0.21805 0.70235 0.73202 0.0
C367 C 0.27611 0.79223 0.71277 0.0
H368 H 0.32811 0.69221 0.71617 0.0
H369 H 0.28214 0.70791 0.63852 0.0
H370 H 0.29664 0.74445 0.75791 0.0
H371 H 0.27626 0.71296 0.76434 0.0
H372 H 0.31385 0.71017 0.76061 0.0
H373 H 0.24047 0.73421 0.63736 0.0
H374 H 0.22 0.7316 0.66975 0.0
H375 H 0.24028 0.76309 0.66289 0.0
H376 H 0.18396 0.74101 0.75711 0.0
H377 H 0.23277 0.81675 0.74044 0.0
H378 H 0.23622 0.69058 0.74107 0.0
H379 H 0.21636 0.69627 0.70914 0.0
H380 H 0.1987 0.69525 0.74328 0.0
H381 H 0.29554 0.78235 0.72138 0.0
H382 H 0.27645 0.81549 0.71767 0.0
H383 H 0.27655 0.78953 0.68918 0.0
C384 C 0.20348 0.19711 0.77794 0.0
C385 C 0.20758 0.1955 0.80763 0.0
C386 C 0.22179 0.213 0.76051 0.0
C387 C 0.24483 0.22743 0.77307 0.0
C388 C 0.24874 0.22639 0.80308 0.0
C389 C 0.23 0.21052 0.82002 0.0
C390 C 0.2168 0.2139 0.7286 0.0
C391 C 0.27313 0.24144 0.81722 0.0
C392 C 0.30825 0.24333 0.72639 0.0
C393 C 0.30463 0.27253 0.72043 0.0
C394 C 0.28892 0.2284 0.74351 0.0
C395 C 0.26531 0.24298 0.75474 0.0
C396 C 0.26143 0.2724 0.74866 0.0
C397 C 0.2812 0.28685 0.73167 0.0
C398 C 0.29383 0.19705 0.74972 0.0
C399 C 0.23641 0.28859 0.76011 0.0
H400 H 0.18615 0.18566 0.76822 0.0
H401 H 0.23334 0.20937 0.84295 0.0
H402 H 0.21552 0.23643 0.72112 0.0
H403 H 0.2347 0.20381 0.71727 0.0
H404 H 0.1972 0.20262 0.72235 0.0
H405 H 0.27273 0.23921 0.8409 0.0
H406 H 0.2932 0.23251 0.80913 0.0
H407 H 0.27291 0.26456 0.81172 0.0
H408 H 0.32631 0.23214 0.71785 0.0
H409 H 0.27818 0.3094 0.72707 0.0
H410 H 0.27574 0.18421 0.74205 0.0
H411 H 0.29549 0.19357 0.77317 0.0
H412 H 0.31324 0.18887 0.73939 0.0
H413 H 0.21669 0.27825 0.75286 0.0
H414 H 0.23626 0.31133 0.75307 0.0
H415 H 0.23643 0.28797 0.78386 0.0
C416 C 0.78856 0.15975 0.7887 0.0
C417 C 0.81086 0.17271 0.80342 0.0
C418 C 0.76953 0.1762 0.77274 0.0
C419 C 0.77305 0.20626 0.77132 0.0
C420 C 0.7961 0.21934 0.78524 0.0
C421 C 0.81469 0.20241 0.80121 0.0
C422 C 0.74515 0.16153 0.75819 0.0
C423 C 0.80068 0.25132 0.78392 0.0
C424 C 0.7356 0.24809 0.71308 0.0
C425 C 0.71272 0.25955 0.72814 0.0
C426 C 0.75534 0.23056 0.72681 0.0
C427 C 0.752 0.2242 0.75624 0.0
C428 C 0.72876 0.23535 0.77147 0.0
C429 C 0.70944 0.25298 0.75725 0.0
C430 C 0.77996 0.21915 0.70994 0.0
C431 C 0.72444 0.22883 0.80285 0.0
H432 H 0.78544 0.13681 0.79032 0.0
H433 H 0.83196 0.21255 0.8124 0.0
H434 H 0.72512 0.16901 0.76774 0.0
H435 H 0.74466 0.16723 0.73513 0.0
H436 H 0.74617 0.13785 0.76022 0.0
H437 H 0.82049 0.25794 0.79456 0.0
H438 H 0.80126 0.25865 0.76132 0.0
H439 H 0.78292 0.26246 0.79447 0.0
H440 H 0.73832 0.2531 0.69058 0.0
H441 H 0.69177 0.26167 0.76899 0.0
H442 H 0.78036 0.19543 0.71106 0.0
H443 H 0.79989 0.22698 0.71941 0.0
H444 H 0.77925 0.22573 0.68708 0.0
H445 H 0.72342 0.20533 0.80626 0.0
H446 H 0.70491 0.2386 0.8114 0.0
H447 H 0.74252 0.23696 0.81541 0.0
C448 C 0.80209 0.7405 0.81525 0.0
C449 C 0.82467 0.75299 0.80049 0.0
C450 C 0.77872 0.7298 0.80047 0.0
C451 C 0.77805 0.73146 0.77023 0.0
C452 C 0.80073 0.74409 0.75521 0.0
C453 C 0.82375 0.75479 0.77054 0.0
C454 C 0.75484 0.71657 0.81719 0.0
C455 C 0.80082 0.74602 0.72292 0.0
C456 C 0.73249 0.67852 0.73018 0.0
C457 C 0.70923 0.6954 0.72278 0.0
C458 C 0.75496 0.69 0.74571 0.0
C459 C 0.7541 0.71903 0.7542 0.0
C460 C 0.73058 0.73615 0.74709 0.0
C461 C 0.70842 0.72413 0.73136 0.0
C462 C 0.77976 0.67112 0.7528 0.0
C463 C 0.72893 0.76716 0.75599 0.0
H464 H 0.80258 0.73918 0.83842 0.0
H465 H 0.84112 0.76441 0.75899 0.0
H466 H 0.73485 0.72754 0.81189 0.0
H467 H 0.75237 0.69375 0.81114 0.0
H468 H 0.7582 0.71779 0.84069 0.0
H469 H 0.81983 0.75698 0.71453 0.0
H470 H 0.79982 0.72421 0.71361 0.0
H471 H 0.78199 0.75779 0.7154 0.0
H472 H 0.73333 0.65629 0.72361 0.0
H473 H 0.69048 0.73727 0.72578 0.0
H474 H 0.78288 0.67025 0.77631 0.0
H475 H 0.79917 0.68025 0.7433 0.0
H476 H 0.77707 0.64892 0.74475 0.0
H477 H 0.73087 0.7689 0.77959 0.0
H478 H 0.70893 0.7774 0.74927 0.0
H479 H 0.74665 0.77933 0.74646 0.0
C480 C 0.17641 0.18117 0.97611 0.0
C481 C 0.18854 0.15485 0.96883 0.0
C482 C 0.16982 0.18728 0.0048 0.0
C483 C 0.17543 0.16648 0.02615 0.0
C484 C 0.1922 0.14244 0.01931 0.0
C485 C 0.19855 0.13689 0.9906 0.0
C486 C 0.1534 0.214 0.01159 0.0
C487 C 0.19961 0.1202 0.04154 0.0
C488 C 0.15212 0.16823 0.10403 0.0
C489 C 0.12714 0.15227 0.10258 0.0
C490 C 0.16738 0.17497 0.07909 0.0
C491 C 0.1576 0.16507 0.05227 0.0
C492 C 0.13156 0.15041 0.05062 0.0
C493 C 0.11664 0.14438 0.07572 0.0
C494 C 0.19454 0.19136 0.08187 0.0
C495 C 0.12011 0.13952 0.02247 0.0
H496 H 0.1689 0.19529 0.95932 0.0
H497 H 0.20842 0.11676 0.98493 0.0
H498 H 0.13064 0.20888 0.01176 0.0
H499 H 0.15906 0.22238 0.03304 0.0
H500 H 0.15709 0.23096 0.99529 0.0
H501 H 0.21642 0.10559 0.03394 0.0
H502 H 0.20662 0.13051 0.06165 0.0
H503 H 0.18071 0.10716 0.04652 0.0
H504 H 0.16027 0.17473 0.12469 0.0
H505 H 0.09721 0.13238 0.07431 0.0
H506 H 0.19923 0.2041 0.06236 0.0
H507 H 0.21201 0.17604 0.08528 0.0
H508 H 0.19394 0.20596 0.10061 0.0
H509 H 0.11835 0.15735 0.00686 0.0
H510 H 0.0991 0.12943 0.02484 0.0
H511 H 0.13467 0.12342 0.01332 0.0
C512 C 0.80011 0.16789 0.92875 0.0
C513 C 0.81679 0.14495 0.93819 0.0
C514 C 0.79045 0.18876 0.94812 0.0
C515 C 0.79825 0.18687 0.97734 0.0
C516 C 0.81348 0.16261 0.9871 0.0
C517 C 0.82217 0.14193 0.96749 0.0
C518 C 0.77305 0.21321 0.93672 0.0
C519 C 0.82244 0.15918 0.01803 0.0
C520 C 0.82403 0.24122 0.02736 0.0
C521 C 0.80865 0.23235 0.05139 0.0
C522 C 0.81733 0.23071 0.00016 0.0
C523 C 0.79467 0.21129 -0.00258 0.0
C524 C 0.77511 0.20876 0.0201 0.0
C525 C 0.78252 0.21912 0.04732 0.0
C526 C 0.8376 0.23589 0.97587 0.0
C527 C 0.74901 0.19082 0.01692 0.0
H528 H 0.7954 0.17016 0.90615 0.0
H529 H 0.83451 0.12397 0.9751 0.0
H530 H 0.76212 0.2252 0.9539 0.0
H531 H 0.78682 0.22819 0.92471 0.0
H532 H 0.75716 0.20504 0.92137 0.0
H533 H 0.83443 0.13914 0.0218 0.0
H534 H 0.83588 0.17747 0.02449 0.0
H535 H 0.8038 0.15885 0.03223 0.0
H536 H 0.84373 0.25249 0.03042 0.0
H537 H 0.76998 0.21303 0.06574 0.0
H538 H 0.82607 0.23968 0.95562 0.0
H539 H 0.85101 0.21667 0.97295 0.0
H540 H 0.85146 0.25456 0.98008 0.0
H541 H 0.74083 0.19199 0.99469 0.0
H542 H 0.73243 0.19791 0.03206 0.0
H543 H 0.75402 0.16813 0.02177 0.0
C544 C 0.84552 0.78549 0.96086 0.0
C545 C 0.87381 0.77779 0.95773 0.0
C546 C 0.83525 0.7949 0.98746 0.0
C547 C 0.85376 0.79644 0.01113 0.0
C548 C 0.88103 0.78459 0.00887 0.0
C549 C 0.89076 0.77552 0.9821 0.0
C550 C 0.80574 0.80641 0.98925 0.0
C551 C 0.90126 0.78501 0.03375 0.0
C552 C 0.85701 0.86229 0.05754 0.0
C553 C 0.84844 0.85156 0.08417 0.0
C554 C 0.85672 0.84502 0.03312 0.0
C555 C 0.84771 0.81616 0.03534 0.0
C556 C 0.83681 0.80588 0.06163 0.0
C557 C 0.8373 0.82376 0.08585 0.0
C558 C 0.86812 0.85713 0.0054 0.0
C559 C 0.82653 0.77548 0.06485 0.0
H560 H 0.83227 0.78715 0.94207 0.0
H561 H 0.91254 0.76913 0.97976 0.0
H562 H 0.79619 0.80164 0.01041 0.0
H563 H 0.80623 0.83003 0.98659 0.0
H564 H 0.79219 0.79734 0.97216 0.0
H565 H 0.91971 0.77099 0.02993 0.0
H566 H 0.90892 0.80721 0.03707 0.0
H567 H 0.89069 0.77802 0.05373 0.0
H568 H 0.86521 0.88391 0.05603 0.0
H569 H 0.83053 0.81534 0.10638 0.0
H570 H 0.85326 0.85307 0.9876 0.0
H571 H 0.88822 0.8464 0.0 0.0
H572 H 0.87201 0.88056 0.00669 0.0
H573 H 0.81602 0.7679 0.04508 0.0
H574 H 0.81171 0.77336 0.08312 0.0
H575 H 0.84471 0.76124 0.06902 0.0
C576 C 0.16296 0.81671 0.00998 0.0
C577 C 0.1354 0.80873 0.01684 0.0
C578 C 0.17115 0.82009 0.98121 0.0
C579 C 0.15129 0.81512 0.95917 0.0
C580 C 0.12459 0.80372 0.96615 0.0
C581 C 0.1169 0.80091 0.99493 0.0
C582 C 0.19995 0.83183 0.97465 0.0
C583 C 0.10294 0.79751 0.94337 0.0
C584 C 0.14466 0.86448 0.89545 0.0
C585 C 0.15306 0.84676 0.87287 0.0
C586 C 0.14598 0.85504 0.92388 0.0
C587 C 0.15576 0.82704 0.92995 0.0
C588 C 0.16607 0.80971 0.90744 0.0
C589 C 0.16465 0.81983 0.87908 0.0
C590 C 0.13512 0.87445 0.94724 0.0
C591 C 0.17684 0.77985 0.91302 0.0
H592 H 0.17724 0.82286 0.02697 0.0
H593 H 0.09564 0.79452 0.00033 0.0
H594 H 0.20879 0.82185 0.9551 0.0
H595 H 0.19838 0.85521 0.97068 0.0
H596 H 0.21469 0.82834 0.99275 0.0
H597 H 0.08508 0.78475 0.95188 0.0
H598 H 0.09458 0.818 0.93485 0.0
H599 H 0.1125 0.78572 0.92524 0.0
H600 H 0.1361 0.8855 0.89084 0.0
H601 H 0.1713 0.80604 0.86171 0.0
H602 H 0.15049 0.87577 0.96502 0.0
H603 H 0.11535 0.86551 0.95613 0.0
H604 H 0.13084 0.89646 0.93933 0.0
H605 H 0.18975 0.77913 0.93277 0.0
H606 H 0.18957 0.77176 0.89481 0.0
H607 H 0.15878 0.76516 0.91617 0.0
C608 C -0.00215 0.15657 0.20853 0.0
C609 C 0.0254 0.16603 0.21292 0.0
C610 C 0.97531 0.17565 0.20921 0.0
C611 C 0.98036 0.20493 0.21553 0.0
C612 C 0.00743 0.21345 0.22488 0.0
C613 C 0.02991 0.19393 0.22302 0.0
C614 C 0.94685 0.16489 0.19961 0.0
C615 C 0.01342 0.24355 0.2347 0.0
C616 C 0.93814 0.24124 0.16014 0.0
C617 C 0.91149 0.2374 0.17225 0.0
C618 C 0.96236 0.23547 0.17603 0.0
C619 C 0.9596 0.22627 0.20483 0.0
C620 C 0.9333 0.22919 0.21868 0.0
C621 C 0.90916 0.23417 0.20202 0.0
C622 C 0.99022 0.23467 0.16059 0.0
C623 C 0.93008 0.22344 0.25026 0.0
H624 H 0.99417 0.13466 0.20185 0.0
H625 H 0.0511 0.2012 0.22736 0.0
H626 H 0.93086 0.16931 0.21623 0.0
H627 H 0.94036 0.17604 0.17968 0.0
H628 H 0.94676 0.14149 0.19539 0.0
H629 H 0.02557 0.24291 0.25498 0.0
H630 H 0.02676 0.25463 0.21864 0.0
H631 H 0.994 0.25618 0.23823 0.0
H632 H 0.93996 0.24508 0.1373 0.0
H633 H 0.88859 0.23227 0.21182 0.0
H634 H -0.00242 0.21219 0.15874 0.0
H635 H 0.00619 0.24681 0.1728 0.0
H636 H 0.9889 0.24396 0.13871 0.0
H637 H 0.92179 0.20149 0.25364 0.0
H638 H 0.91466 0.23856 0.25969 0.0
H639 H 0.95038 0.22553 0.26174 0.0
C640 C 0.86044 0.9945 0.18825 0.0
C641 C 0.8416 0.97353 0.17883 0.0
C642 C 0.85392 0.02364 0.18599 0.0
C643 C 0.82812 0.03194 0.17346 0.0
C644 C 0.80784 0.01077 0.16665 0.0
C645 C 0.81482 0.98162 0.16953 0.0
C646 C 0.87599 0.0454 0.19409 0.0
C647 C 0.77998 0.01874 0.15355 0.0
C648 C 0.81663 0.1125 0.17103 0.0
C649 C 0.82943 0.11946 0.14483 0.0
C650 C 0.81443 0.08384 0.18014 0.0
C651 C 0.82518 0.06176 0.16254 0.0
C652 C 0.83649 0.06863 0.13532 0.0
C653 C 0.83857 0.09734 0.12688 0.0
C654 C 0.80212 0.0774 0.20922 0.0
C655 C 0.84792 0.04576 0.11567 0.0
H656 H 0.88115 0.98813 0.19552 0.0
H657 H 0.80035 0.96535 0.16204 0.0
H658 H 0.88575 0.05423 0.17437 0.0
H659 H 0.86645 0.06351 0.20592 0.0
H660 H 0.89282 0.03586 0.20751 0.0
H661 H 0.76452 0.00099 0.15536 0.0
H662 H 0.77116 0.03813 0.16386 0.0
H663 H 0.78304 0.02367 0.13051 0.0
H664 H 0.80942 0.12949 0.18498 0.0
H665 H 0.84809 0.1025 0.10642 0.0
H666 H 0.81935 0.07253 0.22445 0.0
H667 H 0.78824 0.05833 0.20836 0.0
H668 H 0.78997 0.0958 0.21773 0.0
H669 H 0.86693 0.03604 0.12537 0.0
H670 H 0.85365 0.05439 0.09426 0.0
H671 H 0.83223 0.02844 0.11278 0.0
C672 C 0.96061 0.85983 0.19879 0.0
C673 C 0.93319 0.84911 0.19999 0.0
C674 C 0.98356 0.84133 0.19684 0.0
C675 C 0.97887 0.8113 0.19701 0.0
C676 C 0.95193 0.80076 0.20455 0.0
C677 C 0.92906 0.81985 0.20543 0.0
C678 C 0.01205 0.85411 0.19033 0.0
C679 C 0.94651 0.76925 0.20877 0.0
C680 C 0.01733 0.78765 0.1324 0.0
C681 C 0.04472 0.78826 0.14319 0.0
C682 C 0.99426 0.79047 0.15069 0.0
C683 C -0.00109 0.79315 0.18057 0.0
C684 C 0.02593 0.78709 0.1917 0.0
C685 C 0.04889 0.78525 0.17277 0.0
C686 C 0.96564 0.79502 0.13748 0.0
C687 C 0.03128 0.78572 0.22346 0.0
H688 H 0.96387 0.88265 0.19587 0.0
H689 H 0.90793 0.81145 0.20746 0.0
H690 H 0.02782 0.84601 0.20575 0.0
H691 H 0.01888 0.84785 0.16849 0.0
H692 H 0.01201 0.87787 0.19151 0.0
H693 H 0.93423 0.76594 0.22874 0.0
H694 H 0.93351 0.76098 0.19091 0.0
H695 H 0.96621 0.75665 0.21017 0.0
H696 H 0.01409 0.78865 0.10943 0.0
H697 H 0.07004 0.7846 0.18132 0.0
H698 H 0.95841 0.81725 0.14151 0.0
H699 H 0.9502 0.78017 0.14721 0.0
H700 H 0.96568 0.79141 0.11397 0.0
H701 H 0.04339 0.80482 0.23028 0.0
H702 H 0.04438 0.7667 0.22846 0.0
H703 H 0.01152 0.78445 0.23603 0.0
C704 C 0.14466 0.03369 0.18875 0.0
C705 C 0.1173 0.04017 0.19762 0.0
C706 C 0.15195 0.00547 0.18144 0.0
C707 C 0.13138 0.98361 0.18336 0.0
C708 C 0.10522 0.98954 0.19648 0.0
C709 C 0.09838 0.0179 0.20317 0.0
C710 C 0.1803 -0.00012 0.16823 0.0
C711 C 0.08297 0.96673 0.19981 0.0
C712 C 0.12054 0.93216 0.12218 0.0
C713 C 0.12868 0.90604 0.13434 0.0
C714 C 0.12317 0.9578 0.13738 0.0
C715 C 0.13398 0.95732 0.16565 0.0
C716 C 0.14391 0.93127 0.17742 0.0
C717 C 0.1412 0.90585 0.16154 0.0
C718 C 0.11274 0.98516 0.1237 0.0
C719 C 0.15569 0.92981 0.20735 0.0
H720 H 0.15928 0.05097 0.18439 0.0
H721 H 0.07726 0.02298 0.21022 0.0
H722 H 0.18842 0.97854 0.17458 0.0
H723 H 0.1783 0.00016 0.14456 0.0
H724 H 0.19582 0.01652 0.17446 0.0
H725 H 0.06615 0.97343 0.21486 0.0
H726 H 0.07324 0.96244 0.17866 0.0
H727 H 0.09229 0.94643 0.20764 0.0
H728 H 0.11124 0.93247 0.101 0.0
H729 H 0.14757 0.88568 0.17106 0.0
H730 H 0.12895 0.00215 0.1252 0.0
H731 H 0.09382 0.99283 0.13524 0.0
H732 H 0.10717 0.98223 0.1008 0.0
H733 H 0.16828 0.94914 0.21243 0.0
H734 H 0.16901 0.91052 0.21039 0.0
H735 H 0.13812 0.92867 0.22291 0.0
C736 C 0.99411 0.75474 0.83734 0.0
C737 C 0.96594 0.75391 0.82881 0.0
C738 C 0.01555 0.75842 0.8172 0.0
C739 C 0.00855 0.76012 0.78773 0.0
C740 C 0.98106 0.75252 0.77896 0.0
C741 C 0.9597 0.75012 0.7997 0.0
C742 C 0.04484 0.76471 0.82796 0.0
C743 C 0.97339 0.74995 0.74779 0.0
C744 C 0.04197 0.82765 0.76212 0.0
C745 C 0.06975 0.81837 0.75894 0.0
C746 C 0.02038 0.80817 0.76787 0.0
C747 C 0.0266 0.77847 0.7691 0.0
C748 C 0.05333 0.76886 0.75986 0.0
C749 C 0.07495 0.789 0.75546 0.0
C750 C 0.99201 0.81991 0.77642 0.0
C751 C 0.06006 0.73747 0.75708 0.0
H752 H -0.00088 0.75618 0.85995 0.0
H753 H 0.93803 0.7482 0.79286 0.0
H754 H 0.06005 0.74987 0.81794 0.0
H755 H 0.051 0.78691 0.82214 0.0
H756 H 0.0466 0.76238 0.85157 0.0
H757 H 0.96116 0.72998 0.7444 0.0
H758 H 0.95961 0.76802 0.74145 0.0
H759 H 0.99215 0.74959 0.73367 0.0
H760 H 0.03759 0.85039 0.76342 0.0
H761 H 0.0962 0.78155 0.75181 0.0
H762 H 0.9871 0.81384 0.79887 0.0
H763 H 0.97545 0.81085 0.76249 0.0
H764 H 0.99099 0.84362 0.77471 0.0
H765 H 0.07562 0.73118 0.7736 0.0
H766 H 0.07001 0.73351 0.73595 0.0
H767 H 0.04115 0.72368 0.75904 0.0
C768 C 0.15604 0.96742 0.75566 0.0
C769 C 0.17139 0.9423 0.76052 0.0
C770 C 0.16679 0.99404 0.76396 0.0
C771 C 0.19356 0.99525 0.77705 0.0
C772 C 0.21136 0.97104 0.77565 0.0
C773 C 0.19991 0.94444 0.76772 0.0
C774 C 0.14761 0.01974 0.7633 0.0
C775 C 0.24109 0.97235 0.78656 0.0
C776 C 0.20291 0.06667 0.81465 0.0
C777 C 0.19106 0.06015 0.84142 0.0
C778 C 0.20674 0.04514 0.79393 0.0
C779 C 0.19788 0.01679 0.80006 0.0
C780 C 0.18828 0.00986 0.828 0.0
C781 C 0.18541 0.03153 0.84831 0.0
C782 C 0.21873 0.05341 0.7652 0.0
C783 C 0.17864 0.97997 0.83597 0.0
H784 H 0.13429 0.9659 0.74894 0.0
H785 H 0.21226 0.92517 0.77062 0.0
H786 H 0.14008 0.02437 0.78531 0.0
H787 H 0.15909 0.03885 0.75544 0.0
H788 H 0.12904 0.01617 0.74937 0.0
H789 H 0.25435 0.95582 0.77613 0.0
H790 H 0.2504 0.99382 0.7827 0.0
H791 H 0.24126 0.96823 0.80996 0.0
H792 H 0.20788 0.0887 0.80929 0.0
H793 H 0.17699 0.02618 0.86922 0.0
H794 H 0.20257 0.06507 0.75268 0.0
H795 H 0.22588 0.03461 0.75268 0.0
H796 H 0.23673 0.06827 0.76808 0.0
H797 H 0.16086 0.97341 0.8221 0.0
H798 H 0.17167 0.9784 0.85862 0.0
H799 H 0.19591 0.96443 0.83275 0.0
C800 C 0.07161 0.14964 0.84299 0.0
C801 C 0.08005 0.15055 0.8717 0.0
C802 C 0.04293 0.14849 0.83587 0.0
C803 C 0.02259 0.14867 0.85803 0.0
C804 C 0.03118 0.15308 0.88671 0.0
C805 C 0.05985 0.15355 0.89322 0.0
C806 C 0.03466 0.14407 0.80504 0.0
C807 C 0.01022 0.15422 0.91095 0.0
C808 C 0.94328 0.14773 0.84939 0.0
C809 C 0.93759 0.11903 0.85609 0.0
C810 C 0.97116 0.15768 0.84782 0.0
C811 C 0.99354 0.13829 0.85267 0.0
C812 C 0.9877 0.10882 0.85682 0.0
C813 C 0.95981 0.09965 0.85879 0.0
C814 C 0.97646 0.18921 0.84327 0.0
C815 C 0.01087 0.08722 0.86141 0.0
H816 H 0.08731 0.14728 0.82635 0.0
H817 H 0.06649 0.15457 0.91541 0.0
H818 H 0.0306 0.12096 0.80137 0.0
H819 H 0.01512 0.15587 0.79982 0.0
H820 H 0.05156 0.15104 0.79016 0.0
H821 H 0.01983 0.16232 0.93104 0.0
H822 H 0.99222 0.16816 0.90525 0.0
H823 H 0.00189 0.1324 0.91508 0.0
H824 H 0.92605 0.16274 0.8473 0.0
H825 H 0.95535 0.07736 0.86356 0.0
H826 H 0.99529 0.19282 0.82974 0.0
H827 H 0.98036 0.1995 0.86429 0.0
H828 H 0.95814 0.19992 0.83317 0.0
H829 H 0.02738 0.08968 0.84482 0.0
H830 H 0.00297 0.06483 0.86083 0.0
H831 H 0.02083 0.09091 0.88256 0.0
C832 C 0.85424 0.87581 0.83487 0.0
C833 C 0.88039 0.87291 0.84847 0.0
C834 C 0.84252 0.90299 0.82991 0.0
C835 C 0.85723 0.92767 0.83903 0.0
C836 C 0.88451 0.92488 0.85078 0.0
C837 C 0.89576 0.89757 0.85527 0.0
C838 C 0.81371 0.90504 0.81667 0.0
C839 C 0.90112 0.95065 0.86058 0.0
C840 C 0.84353 0.00605 0.82579 0.0
C841 C 0.83411 0.01404 0.85305 0.0
C842 C 0.84812 0.97705 0.81927 0.0
C843 C 0.84313 0.956 0.84057 0.0
C844 C 0.82989 0.96385 0.86652 0.0
C845 C 0.82561 0.99285 0.87247 0.0
C846 C 0.8613 0.96938 0.79095 0.0
C847 C 0.82357 0.94207 0.88961 0.0
H848 H 0.84233 0.85687 0.82919 0.0
H849 H 0.91616 0.89557 0.86535 0.0
H850 H 0.79776 0.90673 0.8339 0.0
H851 H 0.81181 0.92431 0.80287 0.0
H852 H 0.80876 0.88575 0.80374 0.0
H853 H 0.92282 0.94495 0.86718 0.0
H854 H 0.90236 0.96686 0.84324 0.0
H855 H 0.89039 0.96075 0.87908 0.0
H856 H 0.85 0.02244 0.81068 0.0
H857 H 0.81791 -0.00091 0.89341 0.0
H858 H 0.85323 0.94856 0.78302 0.0
H859 H 0.88435 0.96733 0.79372 0.0
H860 H 0.8573 0.98614 0.77454 0.0
H861 H 0.81345 0.92281 0.88038 0.0
H862 H 0.80965 0.95092 0.9065 0.0
H863 H 0.84351 0.93518 0.8998 0.0
C864 C 0.63401 0.73591 0.47791 0.0
C865 C 0.65011 0.72832 0.454 0.0
C866 C 0.64296 0.72894 0.50561 0.0
C867 C 0.6686 0.71405 0.50925 0.0
C868 C 0.68712 0.71124 0.4857 0.0
C869 C 0.67759 0.71835 0.4581 0.0
C870 C 0.62296 0.73344 0.53026 0.0
C871 C 0.71536 0.69708 0.48904 0.0
C872 C 0.67918 0.68739 0.58554 0.0
C873 C 0.66527 0.66089 0.58424 0.0
C874 C 0.68255 0.70437 0.56081 0.0
C875 C 0.67146 0.69466 0.53442 0.0
C876 C 0.65934 0.66697 0.53274 0.0
C877 C 0.65656 0.65047 0.55759 0.0
C878 C 0.69644 0.73327 0.56351 0.0
C879 C 0.64745 0.65541 0.50505 0.0
H880 H 0.61299 0.74427 0.47479 0.0
H881 H 0.69035 0.71285 0.43969 0.0
H882 H 0.61266 0.7128 0.53571 0.0
H883 H 0.6344 0.74092 0.54951 0.0
H884 H 0.60636 0.74927 0.52492 0.0
H885 H 0.72985 0.70334 0.47146 0.0
H886 H 0.72506 0.7027 0.50989 0.0
H887 H 0.71267 0.67349 0.48842 0.0
H888 H 0.68623 0.69553 0.60603 0.0
H889 H 0.6463 0.62978 0.55628 0.0
H890 H 0.68042 0.74941 0.5695 0.0
H891 H 0.70639 0.74018 0.54315 0.0
H892 H 0.71261 0.73301 0.58064 0.0
H893 H 0.62961 0.66895 0.49796 0.0
H894 H 0.63983 0.63302 0.50723 0.0
H895 H 0.6636 0.656 0.48797 0.0
C896 C 0.33241 0.63867 0.49874 0.0
C897 C 0.34238 0.66014 0.51692 0.0
C898 C 0.33101 0.64307 0.46914 0.0
C899 C 0.34037 0.66944 0.45752 0.0
C900 C 0.34734 0.6923 0.47613 0.0
C901 C 0.34828 0.68735 0.50584 0.0
C902 C 0.32288 0.61825 0.4502 0.0
C903 C 0.35685 0.7209 0.46461 0.0
C904 C 0.38262 0.65582 0.3906 0.0
C905 C 0.36288 0.66092 0.36895 0.0
C906 C 0.37601 0.66039 0.4194 0.0
C907 C 0.34889 0.67033 0.42689 0.0
C908 C 0.32944 0.67736 0.40508 0.0
C909 C 0.33666 0.67253 0.37626 0.0
C910 C 0.39758 0.65285 0.44192 0.0
C911 C 0.30049 0.68838 0.41213 0.0
H912 H 0.32785 0.61763 0.50748 0.0
H913 H 0.35618 0.70387 0.51999 0.0
H914 H 0.30907 0.6255 0.43252 0.0
H915 H 0.34208 0.60894 0.44048 0.0
H916 H 0.3119 0.60111 0.46239 0.0
H917 H 0.35499 0.73798 0.48102 0.0
H918 H 0.3792 0.71942 0.45807 0.0
H919 H 0.34449 0.72714 0.44547 0.0
H920 H 0.40311 0.64733 0.38512 0.0
H921 H 0.32134 0.67674 0.35963 0.0
H922 H 0.39021 0.63409 0.45448 0.0
H923 H 0.40038 0.67091 0.45703 0.0
H924 H 0.41833 0.64756 0.43246 0.0
H925 H 0.28692 0.67017 0.41862 0.0
H926 H 0.29063 0.69909 0.39342 0.0
H927 H 0.30119 0.70366 0.43027 0.0
C928 C 0.29823 0.32594 0.44676 0.0
C929 C 0.32511 0.33145 0.43581 0.0
C930 C 0.29416 0.32177 0.47635 0.0
C931 C 0.31756 0.32308 0.49503 0.0
C932 C 0.34496 0.32572 0.48351 0.0
C933 C 0.34834 0.33 0.45409 0.0
C934 C 0.2647 0.31838 0.48769 0.0
C935 C 0.37064 0.32673 0.50248 0.0
C936 C 0.31917 0.36062 0.5658 0.0
C937 C 0.3256 0.33798 0.58435 0.0
C938 C 0.31309 0.35562 0.53696 0.0
C939 C 0.31383 0.32725 0.52636 0.0
C940 C 0.31715 0.30407 0.54569 0.0
C941 C 0.32299 0.30972 0.57467 0.0
C942 C 0.30905 0.38103 0.51731 0.0
C943 C 0.31735 0.27351 0.53536 0.0
H944 H 0.28022 0.32685 0.4326 0.0
H945 H 0.36922 0.33367 0.44554 0.0
H946 H 0.26416 0.30392 0.50656 0.0
H947 H 0.25667 0.33958 0.49452 0.0
H948 H 0.25033 0.30987 0.47101 0.0
H949 H 0.39046 0.32562 0.48998 0.0
H950 H 0.37067 0.34699 0.51485 0.0
H951 H 0.37037 0.30877 0.51805 0.0
H952 H 0.32068 0.38248 0.57346 0.0
H953 H 0.32779 0.29216 0.58908 0.0
H954 H 0.29123 0.37731 0.50252 0.0
H955 H 0.32822 0.3841 0.50412 0.0
H956 H 0.30509 0.40109 0.52939 0.0
H957 H 0.30187 0.27027 0.51793 0.0
H958 H 0.31269 0.25829 0.55306 0.0
H959 H 0.33845 0.26834 0.52674 0.0
C960 C 0.66933 0.32482 0.43622 0.0
C961 C 0.65898 0.35284 0.43866 0.0
C962 C 0.67718 0.30919 0.46074 0.0
C963 C 0.67435 0.32194 0.48807 0.0
C964 C 0.66662 0.35117 0.49017 0.0
C965 C 0.65911 0.36621 0.46545 0.0
C966 C 0.68642 0.27852 0.45731 0.0
C967 C 0.66376 0.36601 0.51877 0.0
C968 C 0.64427 0.28997 0.55423 0.0
C969 C 0.66608 0.29562 0.57348 0.0
C970 C 0.64804 0.29416 0.52482 0.0
C971 C 0.67422 0.30443 0.51468 0.0
C972 C 0.69753 0.30519 0.53346 0.0
C973 C 0.69317 0.30085 0.56293 0.0
C974 C 0.62281 0.29191 0.5054 0.0
C975 C 0.72616 0.31431 0.5231 0.0
H976 H 0.66963 0.31446 0.41548 0.0
H977 H 0.65179 0.38811 0.46734 0.0
H978 H 0.69996 0.27138 0.47527 0.0
H979 H 0.66763 0.26447 0.45664 0.0
H980 H 0.69798 0.27561 0.43686 0.0
H981 H 0.65935 0.38925 0.51645 0.0
H982 H 0.64635 0.35614 0.53115 0.0
H983 H 0.68327 0.36349 0.53146 0.0
H984 H 0.62345 0.28526 0.56242 0.0
H985 H 0.71022 0.30483 0.57778 0.0
H986 H 0.62856 0.28144 0.48495 0.0
H987 H 0.61498 0.31372 0.50033 0.0
H988 H 0.60546 0.27959 0.51551 0.0
H989 H 0.73006 0.30671 0.50095 0.0
H990 H 0.74295 0.30604 0.53739 0.0
H991 H 0.72743 0.33803 0.523 0.0
C992 C 0.54647 0.64211 0.70203 0.0
C993 C 0.56968 0.65897 0.69468 0.0
C994 C 0.51917 0.65221 0.69757 0.0
C995 C 0.51535 0.67972 0.68535 0.0
C996 C 0.53849 0.69872 0.68372 0.0
C997 C 0.56574 0.68797 0.68814 0.0
C998 C 0.49497 0.63162 0.70118 0.0
C999 C 0.53489 0.72903 0.67326 0.0
C1000 C 0.46893 0.66988 0.62117 0.0
C1001 C 0.44227 0.6747 0.63282 0.0
C1002 C 0.4932 0.67411 0.63741 0.0
C1003 C 0.49083 0.68388 0.66605 0.0
C1004 C 0.46421 0.69211 0.67676 0.0
C1005 C 0.44008 0.6872 0.66004 0.0
C1006 C 0.52111 0.6654 0.62461 0.0
C1007 C 0.46067 0.70419 0.70644 0.0
H1008 H 0.54966 0.61979 0.70764 0.0
H1009 H 0.58374 0.70121 0.68285 0.0
H1010 H 0.47685 0.64246 0.71133 0.0
H1011 H 0.48815 0.62384 0.67984 0.0
H1012 H 0.50084 0.61279 0.71446 0.0
H1013 H 0.55188 0.74306 0.68153 0.0
H1014 H 0.53588 0.72943 0.64953 0.0
H1015 H 0.51424 0.73781 0.67989 0.0
H1016 H 0.4708 0.66098 0.59984 0.0
H1017 H 0.41953 0.6915 0.66905 0.0
H1018 H 0.52983 0.64691 0.63661 0.0
H1019 H 0.53639 0.68324 0.62615 0.0
H1020 H 0.51928 0.65922 0.60173 0.0
H1021 H 0.45336 0.687 0.7211 0.0
H1022 H 0.44433 0.72115 0.70643 0.0
H1023 H 0.4805 0.71327 0.71498 0.0
C1024 C 0.33266 0.56626 0.66471 0.0
C1025 C 0.3438 0.56453 0.63695 0.0
C1026 C 0.32781 0.54128 0.68096 0.0
C1027 C 0.33435 0.51423 0.66902 0.0
C1028 C 0.3434 0.51248 0.64015 0.0
C1029 C 0.348 0.53762 0.62458 0.0
C1030 C 0.31745 0.5442 0.71131 0.0
C1031 C 0.35018 0.48414 0.62614 0.0
C1032 C 0.36828 0.45079 0.70211 0.0
C1033 C 0.34834 0.42982 0.69533 0.0
C1034 C 0.36227 0.47987 0.69815 0.0
C1035 C 0.33583 0.48786 0.68687 0.0
C1036 C 0.31414 0.46719 0.6851 0.0
C1037 C 0.32068 0.43814 0.68933 0.0
C1038 C 0.38568 0.50138 0.70161 0.0
C1039 C 0.28523 0.47515 0.67471 0.0
H1040 H 0.32919 0.58707 0.67432 0.0
H1041 H 0.35604 0.53619 0.6029 0.0
H1042 H 0.30567 0.52497 0.71848 0.0
H1043 H 0.3357 0.54712 0.72577 0.0
H1044 H 0.30376 0.56331 0.71358 0.0
H1045 H 0.35547 0.48654 0.60309 0.0
H1046 H 0.36834 0.47406 0.6371 0.0
H1047 H 0.3321 0.46928 0.62802 0.0
H1048 H 0.38953 0.44435 0.70744 0.0
H1049 H 0.30504 0.42197 0.68451 0.0
H1050 H 0.3777 0.52148 0.71119 0.0
H1051 H 0.39455 0.50665 0.68025 0.0
H1052 H 0.40289 0.49291 0.71527 0.0
H1053 H 0.2791 0.4967 0.68248 0.0
H1054 H 0.26931 0.45925 0.68184 0.0
H1055 H 0.28517 0.47568 0.65095 0.0
C1056 C 0.56232 0.33239 0.7043 0.0
C1057 C 0.58122 0.31053 0.69731 0.0
C1058 C 0.53366 0.32672 0.70757 0.0
C1059 C 0.52372 0.29834 0.70412 0.0
C1060 C 0.54329 0.27563 0.70167 0.0
C1061 C 0.57199 0.282 0.69797 0.0
C1062 C 0.51378 0.35169 0.71089 0.0
C1063 C 0.53375 0.2449 0.70002 0.0
C1064 C 0.44439 0.30056 0.70753 0.0
C1065 C 0.43843 0.30696 0.67881 0.0
C1066 C 0.47201 0.29393 0.71609 0.0
C1067 C 0.49389 0.2943 0.69549 0.0
C1068 C 0.48713 0.29731 0.6661 0.0
C1069 C 0.45948 0.30336 0.65818 0.0
C1070 C 0.47792 0.28901 0.74741 0.0
C1071 C 0.50954 0.2975 0.64314 0.0
H1072 H 0.56956 0.35442 0.70468 0.0
H1073 H 0.58661 0.2649 0.69315 0.0
H1074 H 0.50186 0.35483 0.69071 0.0
H1075 H 0.4984 0.34738 0.72818 0.0
H1076 H 0.52499 0.37194 0.71591 0.0
H1077 H 0.55028 0.23021 0.70814 0.0
H1078 H 0.51418 0.24141 0.71248 0.0
H1079 H 0.52953 0.23922 0.67739 0.0
H1080 H 0.42807 0.30279 0.72357 0.0
H1081 H 0.45476 0.30746 0.63583 0.0
H1082 H 0.48084 0.30993 0.7582 0.0
H1083 H 0.49717 0.27603 0.75069 0.0
H1084 H 0.45992 0.27806 0.7579 0.0
H1085 H 0.52328 0.31651 0.6459 0.0
H1086 H 0.5005 0.2982 0.62123 0.0
H1087 H 0.52291 0.27818 0.64491 0.0
C1088 C 0.65059 0.51834 0.68388 0.0
C1089 C 0.66818 0.54232 0.68527 0.0
C1090 C 0.66116 0.4907 0.68746 0.0
C1091 C 0.69022 0.48684 0.69272 0.0
C1092 C 0.70763 0.51109 0.69702 0.0
C1093 C 0.69637 0.53873 0.69313 0.0
C1094 C 0.64148 0.46563 0.68314 0.0
C1095 C 0.73844 0.50811 0.70377 0.0
C1096 C 0.69702 0.40774 0.70259 0.0
C1097 C 0.69797 0.39971 0.67371 0.0
C1098 C 0.69924 0.43677 0.71028 0.0
C1099 C 0.70212 0.45772 0.6885 0.0
C1100 C 0.70805 0.44898 0.66013 0.0
C1101 C 0.70576 0.41999 0.65305 0.0
C1102 C 0.69472 0.4452 0.74105 0.0
C1103 C 0.71241 0.47048 0.63635 0.0
H1104 H 0.62859 0.52109 0.67856 0.0
H1105 H 0.70999 0.55728 0.6946 0.0
H1106 H 0.64759 0.45368 0.6636 0.0
H1107 H 0.64279 0.45065 0.70153 0.0
H1108 H 0.61926 0.47245 0.68076 0.0
H1109 H 0.74563 0.52598 0.71762 0.0
H1110 H 0.7432 0.48749 0.71455 0.0
H1111 H 0.75068 0.5092 0.68358 0.0
H1112 H 0.69148 0.39199 0.71873 0.0
H1113 H 0.70725 0.4136 0.63079 0.0
H1114 H 0.67214 0.44979 0.7446 0.0
H1115 H 0.70681 0.46481 0.7464 0.0
H1116 H 0.70096 0.42766 0.75584 0.0
H1117 H 0.692 0.48054 0.63084 0.0
H1118 H 0.72104 0.46033 0.61674 0.0
H1119 H 0.72692 0.4877 0.64325 0.0
C1120 C 0.41531 0.31254 0.3149 0.0
C1121 C 0.40485 0.34028 0.31068 0.0
C1122 C 0.44437 0.30734 0.31329 0.0
C1123 C 0.46286 0.33053 0.30801 0.0
C1124 C 0.45179 0.35708 0.2987 0.0
C1125 C 0.42281 0.3616 0.30012 0.0
C1126 C 0.45541 0.27806 0.32083 0.0
C1127 C 0.47063 0.38213 0.2916 0.0
C1128 C 0.52045 0.34591 0.36069 0.0
C1129 C 0.5443 0.34609 0.34312 0.0
C1130 C 0.49409 0.33854 0.34991 0.0
C1131 C 0.49146 0.33048 0.32079 0.0
C1132 C 0.51589 0.32758 0.30371 0.0
C1133 C 0.54212 0.33573 0.31502 0.0
C1134 C 0.46879 0.34184 0.36924 0.0
C1135 C 0.51445 0.31759 0.27308 0.0
H1136 H 0.40138 0.29574 0.3224 0.0
H1137 H 0.41455 0.38283 0.29589 0.0
H1138 H 0.47522 0.2735 0.30916 0.0
H1139 H 0.4599 0.27705 0.34411 0.0
H1140 H 0.43974 0.26117 0.31579 0.0
H1141 H 0.45888 0.39999 0.28144 0.0
H1142 H 0.48052 0.39023 0.31152 0.0
H1143 H 0.48767 0.3754 0.27692 0.0
H1144 H 0.52204 0.35311 0.38268 0.0
H1145 H 0.56057 0.33522 0.30142 0.0
H1146 H 0.45665 0.3216 0.37007 0.0
H1147 H 0.45472 0.35876 0.36071 0.0
H1148 H 0.47467 0.3477 0.39148 0.0
H1149 H 0.49498 0.30533 0.26857 0.0
H1150 H 0.53288 0.30397 0.26795 0.0
H1151 H 0.51523 0.33644 0.2586 0.0
C1152 C 0.6605 0.47869 0.34252 0.0
C1153 C 0.63285 0.46858 0.34098 0.0
C1154 C 0.66609 0.50827 0.34155 0.0
C1155 C 0.64348 0.52778 0.33866 0.0
C1156 C 0.61602 0.51725 0.33371 0.0
C1157 C 0.61101 0.48777 0.33529 0.0
C1158 C 0.69568 0.51861 0.34658 0.0
C1159 C 0.59136 0.53719 0.32982 0.0
C1160 C 0.6385 0.59551 0.38204 0.0
C1161 C 0.6411 0.61668 0.36094 0.0
C1162 C 0.64156 0.56651 0.37533 0.0
C1163 C 0.64694 0.55839 0.34665 0.0
C1164 C 0.65151 0.57976 0.32557 0.0
C1165 C 0.64868 0.6088 0.33303 0.0
C1166 C 0.63706 0.54449 0.39866 0.0
C1167 C 0.65737 0.57201 0.29481 0.0
H1168 H 0.67738 0.46378 0.347 0.0
H1169 H 0.58965 0.47981 0.33386 0.0
H1170 H 0.70044 0.53771 0.33326 0.0
H1171 H 0.698 0.5249 0.36935 0.0
H1172 H 0.71133 0.50164 0.34188 0.0
H1173 H 0.57249 0.52578 0.32176 0.0
H1174 H 0.58602 0.54713 0.35069 0.0
H1175 H 0.59667 0.5547 0.31466 0.0
H1176 H 0.63311 0.60158 0.40376 0.0
H1177 H 0.65077 0.62516 0.31666 0.0
H1178 H 0.65415 0.52839 0.39843 0.0
H1179 H 0.617 0.533 0.39487 0.0
H1180 H 0.63618 0.55434 0.42028 0.0
H1181 H 0.67186 0.55349 0.29341 0.0
H1182 H 0.66654 0.59031 0.28276 0.0
H1183 H 0.63742 0.56579 0.28426 0.0
C1184 C 0.52402 0.71969 0.33514 0.0
C1185 C 0.5516 0.7271 0.32773 0.0
C1186 C 0.50292 0.71802 0.31448 0.0
C1187 C 0.50917 0.72522 0.28563 0.0
C1188 C 0.53593 0.73668 0.27879 0.0
C1189 C 0.55709 0.73714 0.29992 0.0
C1190 C 0.47478 0.70567 0.32329 0.0
C1191 C 0.5424 0.7477 0.24912 0.0
C1192 C 0.46963 0.67019 0.2459 0.0
C1193 C 0.44261 0.68161 0.24915 0.0
C1194 C 0.49333 0.68632 0.25323 0.0
C1195 C 0.48968 0.71478 0.26299 0.0
C1196 C 0.46332 0.72824 0.25921 0.0
C1197 C 0.43968 0.71128 0.25287 0.0
C1198 C 0.52125 0.67116 0.25554 0.0
C1199 C 0.45937 0.7595 0.26593 0.0
H1200 H 0.51931 0.71284 0.35681 0.0
H1201 H 0.57816 0.74386 0.29425 0.0
H1202 H 0.45773 0.72097 0.31824 0.0
H1203 H 0.47059 0.6856 0.31137 0.0
H1204 H 0.47371 0.70075 0.34655 0.0
H1205 H 0.56526 0.75116 0.24584 0.0
H1206 H 0.53452 0.73295 0.23237 0.0
H1207 H 0.53148 0.76846 0.246 0.0
H1208 H 0.47202 0.64748 0.24173 0.0
H1209 H 0.4189 0.72062 0.25432 0.0
H1210 H 0.52595 0.66681 0.27843 0.0
H1211 H 0.53839 0.68469 0.24688 0.0
H1212 H 0.52126 0.65045 0.2439 0.0
H1213 H 0.4536 0.76202 0.28879 0.0
H1214 H 0.44213 0.76873 0.25284 0.0
H1215 H 0.47898 0.77177 0.26194 0.0
C1216 C 0.29126 0.43076 0.28974 0.0
C1217 C 0.29315 0.43137 0.31972 0.0
C1218 C 0.29251 0.45635 0.27381 0.0
C1219 C 0.29642 0.48263 0.28833 0.0
C1220 C 0.29348 0.48348 0.31849 0.0
C1221 C 0.29162 0.45777 0.33381 0.0
C1222 C 0.29294 0.45486 0.24159 0.0
C1223 C 0.29644 0.51111 0.33498 0.0
C1224 C 0.35594 0.5318 0.26941 0.0
C1225 C 0.34185 0.55789 0.26579 0.0
C1226 C 0.34114 0.50633 0.27392 0.0
C1227 C 0.31137 0.50678 0.27407 0.0
C1228 C 0.29711 0.53224 0.2663 0.0
C1229 C 0.31254 0.55772 0.26256 0.0
C1230 C 0.35751 0.47968 0.28171 0.0
C1231 C 0.26555 0.53338 0.26417 0.0
H1232 H 0.29167 0.41041 0.27863 0.0
H1233 H 0.29209 0.45832 0.35702 0.0
H1234 H 0.28448 0.47478 0.23189 0.0
H1235 H 0.31487 0.45209 0.23408 0.0
H1236 H 0.28053 0.43628 0.23383 0.0
H1237 H 0.29106 0.50843 0.35798 0.0
H1238 H 0.31843 0.51888 0.33345 0.0
H1239 H 0.28265 0.52783 0.32576 0.0
H1240 H 0.37864 0.53162 0.27107 0.0
H1241 H 0.30146 0.5777 0.25914 0.0
H1242 H 0.35115 0.46155 0.26791 0.0
H1243 H 0.353 0.47357 0.30423 0.0
H1244 H 0.38054 0.48275 0.27945 0.0
H1245 H 0.25624 0.51192 0.26042 0.0
H1246 H 0.2591 0.54795 0.24654 0.0
H1247 H 0.25679 0.54217 0.28432 0.0
loop_
_geom_bond_atom_site_label_1
_geom_bond_atom_site_label_2
_geom_bond_distance
_geom_bond_site_symmetry_2
_ccdc_geom_bond_type
Zn0 O3 2.031 . S
Zn0 O5 2.049 . S
Zn0 O10 2.067 . S
Zn1 O2 1.962 . S
Zn1 O4 1.986 . S
Zn1 O6 1.996 . S
Zn1 O9 1.943 . S
O2 Zn1 1.962 . S
O2 C7 1.254 . S
O3 Zn0 2.031 . S
O3 C7 1.269 . S
O4 Zn1 1.986 . S
O4 C11 1.262 . S
O5 Zn0 2.049 . S
O5 C13 1.260 . S
O6 Zn1 1.996 . S
O6 C13 1.257 . S
C7 O2 1.254 . S
C7 O3 1.269 . S
C8 O9 1.249 . S
C8 O10 1.270 . S
O9 Zn1 1.943 . S
O9 C8 1.249 . S
O10 Zn0 2.067 . S
O10 C8 1.270 . S
C11 O4 1.262 . S
C11 O12 1.232 . S
O12 C11 1.232 . S
C13 O5 1.260 . S
C13 O6 1.257 . S
Zn14 O17 2.031 . S
Zn14 O19 2.049 . S
Zn14 O24 2.067 . S
Zn15 O16 1.962 . S
Zn15 O18 1.986 . S
Zn15 O20 1.996 . S
Zn15 O23 1.943 . S
O16 Zn15 1.962 . S
O16 C21 1.254 . S
O17 Zn14 2.031 . S
O17 C21 1.269 . S
O18 Zn15 1.986 . S
O18 C25 1.262 . S
O19 Zn14 2.049 . S
O19 C27 1.260 . S
O20 Zn15 1.996 . S
O20 C27 1.257 . S
C21 O16 1.254 . S
C21 O17 1.269 . S
C22 O23 1.249 . S
C22 O24 1.270 . S
O23 Zn15 1.943 . S
O23 C22 1.249 . S
O24 Zn14 2.067 . S
O24 C22 1.270 . S
C25 O18 1.262 . S
C25 O26 1.232 . S
O26 C25 1.232 . S
C27 O19 1.260 . S
C27 O20 1.257 . S
Zn28 O31 2.031 . S
Zn28 O33 2.049 . S
Zn28 O38 2.067 . S
Zn29 O30 1.962 . S
Zn29 O32 1.986 . S
Zn29 O34 1.996 . S
Zn29 O37 1.943 . S
O30 Zn29 1.962 . S
O30 C35 1.254 . S
O31 Zn28 2.031 . S
O31 C35 1.269 . S
O32 Zn29 1.986 . S
O32 C39 1.262 . S
O33 Zn28 2.049 . S
O33 C41 1.260 . S
O34 Zn29 1.996 . S
O34 C41 1.257 . S
C35 O30 1.254 . S
C35 O31 1.269 . S
C36 O37 1.249 . S
C36 O38 1.270 . S
O37 Zn29 1.943 . S
O37 C36 1.249 . S
O38 Zn28 2.067 . S
O38 C36 1.270 . S
C39 O32 1.262 . S
C39 O40 1.232 . S
O40 C39 1.232 . S
C41 O33 1.260 . S
C41 O34 1.257 . S
Zn42 O45 2.031 . S
Zn42 O47 2.049 . S
Zn42 O52 2.067 . S
Zn43 O44 1.962 . S
Zn43 O46 1.986 . S
Zn43 O48 1.996 . S
Zn43 O51 1.943 . S
O44 Zn43 1.962 . S
O44 C49 1.254 . S
O45 Zn42 2.031 . S
O45 C49 1.269 . S
O46 Zn43 1.986 . S
O46 C53 1.262 . S
O47 Zn42 2.049 . S
O47 C55 1.260 . S
O48 Zn43 1.996 . S
O48 C55 1.257 . S
C49 O44 1.254 . S
C49 O45 1.269 . S
C50 O51 1.249 . S
C50 O52 1.270 . S
O51 Zn43 1.943 . S
O51 C50 1.249 . S
O52 Zn42 2.067 . S
O52 C50 1.270 . S
C53 O46 1.262 . S
C53 O54 1.232 . S
O54 C53 1.232 . S
C55 O47 1.260 . S
C55 O48 1.257 . S
Zn56 O59 2.031 . S
Zn56 O61 2.049 . S
Zn56 O66 2.067 . S
Zn57 O58 1.962 . S
Zn57 O60 1.986 . S
Zn57 O62 1.996 . S
Zn57 O65 1.943 . S
O58 Zn57 1.962 . S
O58 C63 1.254 . S
O59 Zn56 2.031 . S
O59 C63 1.269 . S
O60 Zn57 1.986 . S
O60 C67 1.262 . S
O61 Zn56 2.049 . S
O61 C69 1.260 . S
O62 Zn57 1.996 . S
O62 C69 1.257 . S
C63 O58 1.254 . S
C63 O59 1.269 . S
C64 O65 1.249 . S
C64 O66 1.270 . S
O65 Zn57 1.943 . S
O65 C64 1.249 . S
O66 Zn56 2.067 . S
O66 C64 1.270 . S
C67 O60 1.262 . S
C67 O68 1.232 . S
O68 C67 1.232 . S
C69 O61 1.260 . S
C69 O62 1.257 . S
Zn70 O73 2.031 . S
Zn70 O75 2.049 . S
Zn70 O80 2.067 . S
Zn71 O72 1.962 . S
Zn71 O74 1.986 . S
Zn71 O76 1.996 . S
Zn71 O79 1.943 . S
O72 Zn71 1.962 . S
O72 C77 1.254 . S
O73 Zn70 2.031 . S
O73 C77 1.269 . S
O74 Zn71 1.986 . S
O74 C81 1.262 . S
O75 Zn70 2.049 . S
O75 C83 1.260 . S
O76 Zn71 1.996 . S
O76 C83 1.257 . S
C77 O72 1.254 . S
C77 O73 1.269 . S
C78 O79 1.249 . S
C78 O80 1.270 . S
O79 Zn71 1.943 . S
O79 C78 1.249 . S
O80 Zn70 2.067 . S
O80 C78 1.270 . S
C81 O74 1.262 . S
C81 O82 1.232 . S
O82 C81 1.232 . S
C83 O75 1.260 . S
C83 O76 1.257 . S
Zn84 O87 2.031 . S
Zn84 O89 2.049 . S
Zn84 O94 2.067 . S
Zn85 O86 1.962 . S
Zn85 O88 1.986 . S
Zn85 O90 1.996 . S
Zn85 O93 1.943 . S
O86 Zn85 1.962 . S
O86 C91 1.254 . S
O87 Zn84 2.031 . S
O87 C91 1.269 . S
O88 Zn85 1.986 . S
O88 C95 1.262 . S
O89 Zn84 2.049 . S
O89 C97 1.260 . S
O90 Zn85 1.996 . S
O90 C97 1.257 . S
C91 O86 1.254 . S
C91 O87 1.269 . S
C92 O93 1.249 . S
C92 O94 1.270 . S
O93 Zn85 1.943 . S
O93 C92 1.249 . S
O94 Zn84 2.067 . S
O94 C92 1.270 . S
C95 O88 1.262 . S
C95 O96 1.232 . S
O96 C95 1.232 . S
C97 O89 1.260 . S
C97 O90 1.257 . S
Zn98 O101 2.031 . S
Zn98 O103 2.049 . S
Zn98 O108 2.067 . S
Zn99 O100 1.962 . S
Zn99 O102 1.986 . S
Zn99 O104 1.996 . S
Zn99 O107 1.943 . S
O100 Zn99 1.962 . S
O100 C105 1.254 . S
O101 Zn98 2.031 . S
O101 C105 1.269 . S
O102 Zn99 1.986 . S
O102 C109 1.262 . S
O103 Zn98 2.049 . S
O103 C111 1.260 . S
O104 Zn99 1.996 . S
O104 C111 1.257 . S
C105 O100 1.254 . S
C105 O101 1.269 . S
C106 O107 1.249 . S
C106 O108 1.270 . S
O107 Zn99 1.943 . S
O107 C106 1.249 . S
O108 Zn98 2.067 . S
O108 C106 1.270 . S
C109 O102 1.262 . S
C109 O110 1.232 . S
O110 C109 1.232 . S
C111 O103 1.260 . S
C111 O104 1.257 . S
Zn112 O115 2.031 . S
Zn112 O117 2.049 . S
Zn112 O122 2.067 . S
Zn113 O114 1.962 . S
Zn113 O116 1.986 . S
Zn113 O118 1.996 . S
Zn113 O121 1.943 . S
O114 Zn113 1.962 . S
O114 C119 1.254 . S
O115 Zn112 2.031 . S
O115 C119 1.269 . S
O116 Zn113 1.986 . S
O116 C123 1.262 . S
O117 Zn112 2.049 . S
O117 C125 1.260 . S
O118 Zn113 1.996 . S
O118 C125 1.257 . S
C119 O114 1.254 . S
C119 O115 1.269 . S
C120 O121 1.249 . S
C120 O122 1.270 . S
O121 Zn113 1.943 . S
O121 C120 1.249 . S
O122 Zn112 2.067 . S
O122 C120 1.270 . S
C123 O116 1.262 . S
C123 O124 1.232 . S
O124 C123 1.232 . S
C125 O117 1.260 . S
C125 O118 1.257 . S
Zn126 O129 2.031 . S
Zn126 O131 2.049 . S
Zn126 O136 2.067 . S
Zn127 O128 1.962 . S
Zn127 O130 1.986 . S
Zn127 O132 1.996 . S
Zn127 O135 1.943 . S
O128 Zn127 1.962 . S
O128 C133 1.254 . S
O129 Zn126 2.031 . S
O129 C133 1.269 . S
O130 Zn127 1.986 . S
O130 C137 1.262 . S
O131 Zn126 2.049 . S
O131 C139 1.260 . S
O132 Zn127 1.996 . S
O132 C139 1.257 . S
C133 O128 1.254 . S
C133 O129 1.269 . S
C134 O135 1.249 . S
C134 O136 1.270 . S
O135 Zn127 1.943 . S
O135 C134 1.249 . S
O136 Zn126 2.067 . S
O136 C134 1.270 . S
C137 O130 1.262 . S
C137 O138 1.232 . S
O138 C137 1.232 . S
C139 O131 1.260 . S
C139 O132 1.257 . S
Zn140 O143 2.031 . S
Zn140 O145 2.049 . S
Zn140 O150 2.067 . S
Zn141 O142 1.962 . S
Zn141 O144 1.986 . S
Zn141 O146 1.996 . S
Zn141 O149 1.943 . S
O142 Zn141 1.962 . S
O142 C147 1.254 . S
O143 Zn140 2.031 . S
O143 C147 1.269 . S
O144 Zn141 1.986 . S
O144 C151 1.262 . S
O145 Zn140 2.049 . S
O145 C153 1.260 . S
O146 Zn141 1.996 . S
O146 C153 1.257 . S
C147 O142 1.254 . S
C147 O143 1.269 . S
C148 O149 1.249 . S
C148 O150 1.270 . S
O149 Zn141 1.943 . S
O149 C148 1.249 . S
O150 Zn140 2.067 . S
O150 C148 1.270 . S
C151 O144 1.262 . S
C151 O152 1.232 . S
O152 C151 1.232 . S
C153 O145 1.260 . S
C153 O146 1.257 . S
Zn154 O157 2.031 . S
Zn154 O159 2.049 . S
Zn154 O164 2.067 . S
Zn155 O156 1.962 . S
Zn155 O158 1.986 . S
Zn155 O160 1.996 . S
Zn155 O163 1.943 . S
O156 Zn155 1.962 . S
O156 C161 1.254 . S
O157 Zn154 2.031 . S
O157 C161 1.269 . S
O158 Zn155 1.986 . S
O158 C165 1.262 . S
O159 Zn154 2.049 . S
O159 C167 1.260 . S
O160 Zn155 1.996 . S
O160 C167 1.257 . S
C161 O156 1.254 . S
C161 O157 1.269 . S
C162 O163 1.249 . S
C162 O164 1.270 . S
O163 Zn155 1.943 . S
O163 C162 1.249 . S
O164 Zn154 2.067 . S
O164 C162 1.270 . S
C165 O158 1.262 . S
C165 O166 1.232 . S
O166 C165 1.232 . S
C167 O159 1.260 . S
C167 O160 1.257 . S
Zn168 O171 2.031 . S
Zn168 O173 2.049 . S
Zn168 O178 2.067 . S
Zn169 O170 1.962 . S
Zn169 O172 1.986 . S
Zn169 O174 1.996 . S
Zn169 O177 1.943 . S
O170 Zn169 1.962 . S
O170 C175 1.254 . S
O171 Zn168 2.031 . S
O171 C175 1.269 . S
O172 Zn169 1.986 . S
O172 C179 1.262 . S
O173 Zn168 2.049 . S
O173 C181 1.260 . S
O174 Zn169 1.996 . S
O174 C181 1.257 . S
C175 O170 1.254 . S
C175 O171 1.269 . S
C176 O177 1.249 . S
C176 O178 1.270 . S
O177 Zn169 1.943 . S
O177 C176 1.249 . S
O178 Zn168 2.067 . S
O178 C176 1.270 . S
C179 O172 1.262 . S
C179 O180 1.232 . S
O180 C179 1.232 . S
C181 O173 1.260 . S
C181 O174 1.257 . S
Zn182 O185 2.031 . S
Zn182 O187 2.049 . S
Zn182 O192 2.067 . S
Zn183 O184 1.962 . S
Zn183 O186 1.986 . S
Zn183 O188 1.996 . S
Zn183 O191 1.943 . S
O184 Zn183 1.962 . S
O184 C189 1.254 . S
O185 Zn182 2.031 . S
O185 C189 1.269 . S
O186 Zn183 1.986 . S
O186 C193 1.262 . S
O187 Zn182 2.049 . S
O187 C195 1.260 . S
O188 Zn183 1.996 . S
O188 C195 1.257 . S
C189 O184 1.254 . S
C189 O185 1.269 . S
C190 O191 1.249 . S
C190 O192 1.270 . S
O191 Zn183 1.943 . S
O191 C190 1.249 . S
O192 Zn182 2.067 . S
O192 C190 1.270 . S
C193 O186 1.262 . S
C193 O194 1.232 . S
O194 C193 1.232 . S
C195 O187 1.260 . S
C195 O188 1.257 . S
Zn196 O199 2.031 . S
Zn196 O201 2.049 . S
Zn196 O206 2.067 . S
Zn197 O198 1.962 . S
Zn197 O200 1.986 . S
Zn197 O202 1.996 . S
Zn197 O205 1.943 . S
O198 Zn197 1.962 . S
O198 C203 1.254 . S
O199 Zn196 2.031 . S
O199 C203 1.269 . S
O200 Zn197 1.986 . S
O200 C207 1.262 . S
O201 Zn196 2.049 . S
O201 C209 1.260 . S
O202 Zn197 1.996 . S
O202 C209 1.257 . S
C203 O198 1.254 . S
C203 O199 1.269 . S
C204 O205 1.249 . S
C204 O206 1.270 . S
O205 Zn197 1.943 . S
O205 C204 1.249 . S
O206 Zn196 2.067 . S
O206 C204 1.270 . S
C207 O200 1.262 . S
C207 O208 1.232 . S
O208 C207 1.232 . S
C209 O201 1.260 . S
C209 O202 1.257 . S
Zn210 O213 2.031 . S
Zn210 O215 2.049 . S
Zn210 O220 2.067 . S
Zn211 O212 1.962 . S
Zn211 O214 1.986 . S
Zn211 O216 1.996 . S
Zn211 O219 1.943 . S
O212 Zn211 1.962 . S
O212 C217 1.254 . S
O213 Zn210 2.031 . S
O213 C217 1.269 . S
O214 Zn211 1.986 . S
O214 C221 1.262 . S
O215 Zn210 2.049 . S
O215 C223 1.260 . S
O216 Zn211 1.996 . S
O216 C223 1.257 . S
C217 O212 1.254 . S
C217 O213 1.269 . S
C218 O219 1.249 . S
C218 O220 1.270 . S
O219 Zn211 1.943 . S
O219 C218 1.249 . S
O220 Zn210 2.067 . S
O220 C218 1.270 . S
C221 O214 1.262 . S
C221 O222 1.232 . S
O222 C221 1.232 . S
C223 O215 1.260 . S
C223 O216 1.257 . S
C224 C225 1.391 . S
C224 C226 1.394 . S
C224 H240 0.931 . S
C225 C224 1.391 . S
C225 C229 1.376 . S
C226 C224 1.394 . S
C226 C227 1.369 . S
C226 C230 1.531 . S
C227 C226 1.369 . S
C227 C228 1.410 . S
C227 C235 1.503 . S
C228 C227 1.410 . S
C228 C229 1.392 . S
C228 C231 1.511 . S
C229 C225 1.376 . S
C229 C228 1.392 . S
C229 H241 0.929 . S
C230 C226 1.531 . S
C230 H242 0.960 . S
C230 H243 0.962 . S
C230 H244 0.960 . S
C231 C228 1.511 . S
C231 H245 0.961 . S
C231 H246 0.961 . S
C231 H247 0.961 . S
C232 C233 1.370 . S
C232 C234 1.363 . S
C232 H248 0.931 . S
C233 C232 1.370 . S
C233 C237 1.408 . S
C234 C232 1.363 . S
C234 C235 1.370 . S
C234 C238 1.524 . S
C235 C227 1.503 . S
C235 C234 1.370 . S
C235 C236 1.403 . S
C236 C235 1.403 . S
C236 C237 1.404 . S
C236 C239 1.539 . S
C237 C233 1.408 . S
C237 C236 1.404 . S
C237 H249 0.930 . S
C238 C234 1.524 . S
C238 H250 0.956 . S
C238 H251 0.961 . S
C238 H252 0.961 . S
C239 C236 1.539 . S
C239 H253 0.958 . S
C239 H254 0.961 . S
C239 H255 0.960 . S
H240 C224 0.931 . S
H241 C229 0.929 . S
H242 C230 0.960 . S
H243 C230 0.962 . S
H244 C230 0.960 . S
H245 C231 0.961 . S
H246 C231 0.961 . S
H247 C231 0.961 . S
H248 C232 0.931 . S
H249 C237 0.930 . S
H250 C238 0.956 . S
H251 C238 0.961 . S
H252 C238 0.961 . S
H253 C239 0.958 . S
H254 C239 0.961 . S
H255 C239 0.960 . S
C256 C257 1.391 . S
C256 C258 1.394 . S
C256 H272 0.931 . S
C257 C256 1.391 . S
C257 C261 1.376 . S
C258 C256 1.394 . S
C258 C259 1.369 . S
C258 C262 1.531 . S
C259 C258 1.369 . S
C259 C260 1.410 . S
C259 C267 1.503 . S
C260 C259 1.410 . S
C260 C261 1.392 . S
C260 C263 1.511 . S
C261 C257 1.376 . S
C261 C260 1.392 . S
C261 H273 0.929 . S
C262 C258 1.531 . S
C262 H274 0.960 . S
C262 H275 0.962 . S
C262 H276 0.960 . S
C263 C260 1.511 . S
C263 H277 0.961 . S
C263 H278 0.961 . S
C263 H279 0.961 . S
C264 C265 1.370 . S
C264 C266 1.363 . S
C264 H280 0.931 . S
C265 C264 1.370 . S
C265 C269 1.408 . S
C266 C264 1.363 . S
C266 C267 1.370 . S
C266 C270 1.524 . S
C267 C259 1.503 . S
C267 C266 1.370 . S
C267 C268 1.403 . S
C268 C267 1.403 . S
C268 C269 1.404 . S
C268 C271 1.539 . S
C269 C265 1.408 . S
C269 C268 1.404 . S
C269 H281 0.930 . S
C270 C266 1.524 . S
C270 H282 0.956 . S
C270 H283 0.961 . S
C270 H284 0.961 . S
C271 C268 1.539 . S
C271 H285 0.958 . S
C271 H286 0.961 . S
C271 H287 0.960 . S
H272 C256 0.931 . S
H273 C261 0.929 . S
H274 C262 0.960 . S
H275 C262 0.962 . S
H276 C262 0.960 . S
H277 C263 0.961 . S
H278 C263 0.961 . S
H279 C263 0.961 . S
H280 C264 0.931 . S
H281 C269 0.930 . S
H282 C270 0.956 . S
H283 C270 0.961 . S
H284 C270 0.961 . S
H285 C271 0.958 . S
H286 C271 0.961 . S
H287 C271 0.960 . S
C288 C289 1.391 . S
C288 C290 1.394 . S
C288 H304 0.931 . S
C289 C288 1.391 . S
C289 C293 1.376 . S
C290 C288 1.394 . S
C290 C291 1.369 . S
C290 C294 1.531 . S
C291 C290 1.369 . S
C291 C292 1.410 . S
C291 C299 1.503 . S
C292 C291 1.410 . S
C292 C293 1.392 . S
C292 C295 1.511 . S
C293 C289 1.376 . S
C293 C292 1.392 . S
C293 H305 0.929 . S
C294 C290 1.531 . S
C294 H306 0.960 . S
C294 H307 0.962 . S
C294 H308 0.960 . S
C295 C292 1.511 . S
C295 H309 0.961 . S
C295 H310 0.961 . S
C295 H311 0.961 . S
C296 C297 1.370 . S
C296 C298 1.363 . S
C296 H312 0.931 . S
C297 C296 1.370 . S
C297 C301 1.408 . S
C298 C296 1.363 . S
C298 C299 1.370 . S
C298 C302 1.524 . S
C299 C291 1.503 . S
C299 C298 1.370 . S
C299 C300 1.403 . S
C300 C299 1.403 . S
C300 C301 1.404 . S
C300 C303 1.539 . S
C301 C297 1.408 . S
C301 C300 1.404 . S
C301 H313 0.930 . S
C302 C298 1.524 . S
C302 H314 0.956 . S
C302 H315 0.961 . S
C302 H316 0.961 . S
C303 C300 1.539 . S
C303 H317 0.958 . S
C303 H318 0.961 . S
C303 H319 0.960 . S
H304 C288 0.931 . S
H305 C293 0.929 . S
H306 C294 0.960 . S
H307 C294 0.962 . S
H308 C294 0.960 . S
H309 C295 0.961 . S
H310 C295 0.961 . S
H311 C295 0.961 . S
H312 C296 0.931 . S
H313 C301 0.930 . S
H314 C302 0.956 . S
H315 C302 0.961 . S
H316 C302 0.961 . S
H317 C303 0.958 . S
H318 C303 0.961 . S
H319 C303 0.960 . S
C320 C321 1.391 . S
C320 C322 1.394 . S
C320 H336 0.931 . S
C321 C320 1.391 . S
C321 C325 1.376 . S
C322 C320 1.394 . S
C322 C323 1.369 . S
C322 C326 1.531 . S
C323 C322 1.369 . S
C323 C324 1.410 . S
C323 C331 1.503 . S
C324 C323 1.410 . S
C324 C325 1.392 . S
C324 C327 1.511 . S
C325 C321 1.376 . S
C325 C324 1.392 . S
C325 H337 0.929 . S
C326 C322 1.531 . S
C326 H338 0.960 . S
C326 H339 0.962 . S
C326 H340 0.960 . S
C327 C324 1.511 . S
C327 H341 0.961 . S
C327 H342 0.961 . S
C327 H343 0.961 . S
C328 C329 1.370 . S
C328 C330 1.363 . S
C328 H344 0.931 . S
C329 C328 1.370 . S
C329 C333 1.408 . S
C330 C328 1.363 . S
C330 C331 1.370 . S
C330 C334 1.524 . S
C331 C323 1.503 . S
C331 C330 1.370 . S
C331 C332 1.403 . S
C332 C331 1.403 . S
C332 C333 1.404 . S
C332 C335 1.539 . S
C333 C329 1.408 . S
C333 C332 1.404 . S
C333 H345 0.930 . S
C334 C330 1.524 . S
C334 H346 0.956 . S
C334 H347 0.961 . S
C334 H348 0.961 . S
C335 C332 1.539 . S
C335 H349 0.958 . S
C335 H350 0.961 . S
C335 H351 0.960 . S
H336 C320 0.931 . S
H337 C325 0.929 . S
H338 C326 0.960 . S
H339 C326 0.962 . S
H340 C326 0.960 . S
H341 C327 0.961 . S
H342 C327 0.961 . S
H343 C327 0.961 . S
H344 C328 0.931 . S
H345 C333 0.930 . S
H346 C334 0.956 . S
H347 C334 0.961 . S
H348 C334 0.961 . S
H349 C335 0.958 . S
H350 C335 0.961 . S
H351 C335 0.960 . S
C352 C353 1.391 . S
C352 C354 1.394 . S
C352 H368 0.931 . S
C353 C352 1.391 . S
C353 C357 1.376 . S
C354 C352 1.394 . S
C354 C355 1.369 . S
C354 C358 1.531 . S
C355 C354 1.369 . S
C355 C356 1.410 . S
C355 C363 1.503 . S
C356 C355 1.410 . S
C356 C357 1.392 . S
C356 C359 1.511 . S
C357 C353 1.376 . S
C357 C356 1.392 . S
C357 H369 0.929 . S
C358 C354 1.531 . S
C358 H370 0.960 . S
C358 H371 0.962 . S
C358 H372 0.960 . S
C359 C356 1.511 . S
C359 H373 0.961 . S
C359 H374 0.961 . S
C359 H375 0.961 . S
C360 C361 1.370 . S
C360 C362 1.363 . S
C360 H376 0.931 . S
C361 C360 1.370 . S
C361 C365 1.408 . S
C362 C360 1.363 . S
C362 C363 1.370 . S
C362 C366 1.524 . S
C363 C355 1.503 . S
C363 C362 1.370 . S
C363 C364 1.403 . S
C364 C363 1.403 . S
C364 C365 1.404 . S
C364 C367 1.539 . S
C365 C361 1.408 . S
C365 C364 1.404 . S
C365 H377 0.930 . S
C366 C362 1.524 . S
C366 H378 0.956 . S
C366 H379 0.961 . S
C366 H380 0.961 . S
C367 C364 1.539 . S
C367 H381 0.958 . S
C367 H382 0.961 . S
C367 H383 0.960 . S
H368 C352 0.931 . S
H369 C357 0.929 . S
H370 C358 0.960 . S
H371 C358 0.962 . S
H372 C358 0.960 . S
H373 C359 0.961 . S
H374 C359 0.961 . S
H375 C359 0.961 . S
H376 C360 0.931 . S
H377 C365 0.930 . S
H378 C366 0.956 . S
H379 C366 0.961 . S
H380 C366 0.961 . S
H381 C367 0.958 . S
H382 C367 0.961 . S
H383 C367 0.960 . S
C384 C385 1.391 . S
C384 C386 1.394 . S
C384 H400 0.931 . S
C385 C384 1.391 . S
C385 C389 1.376 . S
C386 C384 1.394 . S
C386 C387 1.369 . S
C386 C390 1.531 . S
C387 C386 1.369 . S
C387 C388 1.410 . S
C387 C395 1.503 . S
C388 C387 1.410 . S
C388 C389 1.392 . S
C388 C391 1.511 . S
C389 C385 1.376 . S
C389 C388 1.392 . S
C389 H401 0.929 . S
C390 C386 1.531 . S
C390 H402 0.960 . S
C390 H403 0.962 . S
C390 H404 0.960 . S
C391 C388 1.511 . S
C391 H405 0.961 . S
C391 H406 0.961 . S
C391 H407 0.961 . S
C392 C393 1.370 . S
C392 C394 1.363 . S
C392 H408 0.931 . S
C393 C392 1.370 . S
C393 C397 1.408 . S
C394 C392 1.363 . S
C394 C395 1.370 . S
C394 C398 1.524 . S
C395 C387 1.503 . S
C395 C394 1.370 . S
C395 C396 1.403 . S
C396 C395 1.403 . S
C396 C397 1.404 . S
C396 C399 1.539 . S
C397 C393 1.408 . S
C397 C396 1.404 . S
C397 H409 0.930 . S
C398 C394 1.524 . S
C398 H410 0.956 . S
C398 H411 0.961 . S
C398 H412 0.961 . S
C399 C396 1.539 . S
C399 H413 0.958 . S
C399 H414 0.961 . S
C399 H415 0.960 . S
H400 C384 0.931 . S
H401 C389 0.929 . S
H402 C390 0.960 . S
H403 C390 0.962 . S
H404 C390 0.960 . S
H405 C391 0.961 . S
H406 C391 0.961 . S
H407 C391 0.961 . S
H408 C392 0.931 . S
H409 C397 0.930 . S
H410 C398 0.956 . S
H411 C398 0.961 . S
H412 C398 0.961 . S
H413 C399 0.958 . S
H414 C399 0.961 . S
H415 C399 0.960 . S
C416 C417 1.391 . S
C416 C418 1.394 . S
C416 H432 0.931 . S
C417 C416 1.391 . S
C417 C421 1.376 . S
C418 C416 1.394 . S
C418 C419 1.369 . S
C418 C422 1.531 . S
C419 C418 1.369 . S
C419 C420 1.410 . S
C419 C427 1.503 . S
C420 C419 1.410 . S
C420 C421 1.392 . S
C420 C423 1.511 . S
C421 C417 1.376 . S
C421 C420 1.392 . S
C421 H433 0.929 . S
C422 C418 1.531 . S
C422 H434 0.960 . S
C422 H435 0.962 . S
C422 H436 0.960 . S
C423 C420 1.511 . S
C423 H437 0.961 . S
C423 H438 0.961 . S
C423 H439 0.961 . S
C424 C425 1.370 . S
C424 C426 1.363 . S
C424 H440 0.931 . S
C425 C424 1.370 . S
C425 C429 1.408 . S
C426 C424 1.363 . S
C426 C427 1.370 . S
C426 C430 1.524 . S
C427 C419 1.503 . S
C427 C426 1.370 . S
C427 C428 1.403 . S
C428 C427 1.403 . S
C428 C429 1.404 . S
C428 C431 1.539 . S
C429 C425 1.408 . S
C429 C428 1.404 . S
C429 H441 0.930 . S
C430 C426 1.524 . S
C430 H442 0.956 . S
C430 H443 0.961 . S
C430 H444 0.961 . S
C431 C428 1.539 . S
C431 H445 0.958 . S
C431 H446 0.961 . S
C431 H447 0.960 . S
H432 C416 0.931 . S
H433 C421 0.929 . S
H434 C422 0.960 . S
H435 C422 0.962 . S
H436 C422 0.960 . S
H437 C423 0.961 . S
H438 C423 0.961 . S
H439 C423 0.961 . S
H440 C424 0.931 . S
H441 C429 0.930 . S
H442 C430 0.956 . S
H443 C430 0.961 . S
H444 C430 0.961 . S
H445 C431 0.958 . S
H446 C431 0.961 . S
H447 C431 0.960 . S
C448 C449 1.391 . S
C448 C450 1.394 . S
C448 H464 0.931 . S
C449 C448 1.391 . S
C449 C453 1.376 . S
C450 C448 1.394 . S
C450 C451 1.369 . S
C450 C454 1.531 . S
C451 C450 1.369 . S
C451 C452 1.410 . S
C451 C459 1.503 . S
C452 C451 1.410 . S
C452 C453 1.392 . S
C452 C455 1.511 . S
C453 C449 1.376 . S
C453 C452 1.392 . S
C453 H465 0.929 . S
C454 C450 1.531 . S
C454 H466 0.960 . S
C454 H467 0.962 . S
C454 H468 0.960 . S
C455 C452 1.511 . S
C455 H469 0.961 . S
C455 H470 0.961 . S
C455 H471 0.961 . S
C456 C457 1.370 . S
C456 C458 1.363 . S
C456 H472 0.931 . S
C457 C456 1.370 . S
C457 C461 1.408 . S
C458 C456 1.363 . S
C458 C459 1.370 . S
C458 C462 1.524 . S
C459 C451 1.503 . S
C459 C458 1.370 . S
C459 C460 1.403 . S
C460 C459 1.403 . S
C460 C461 1.404 . S
C460 C463 1.539 . S
C461 C457 1.408 . S
C461 C460 1.404 . S
C461 H473 0.930 . S
C462 C458 1.524 . S
C462 H474 0.956 . S
C462 H475 0.961 . S
C462 H476 0.961 . S
C463 C460 1.539 . S
C463 H477 0.958 . S
C463 H478 0.961 . S
C463 H479 0.960 . S
H464 C448 0.931 . S
H465 C453 0.929 . S
H466 C454 0.960 . S
H467 C454 0.962 . S
H468 C454 0.960 . S
H469 C455 0.961 . S
H470 C455 0.961 . S
H471 C455 0.961 . S
H472 C456 0.931 . S
H473 C461 0.930 . S
H474 C462 0.956 . S
H475 C462 0.961 . S
H476 C462 0.961 . S
H477 C463 0.958 . S
H478 C463 0.961 . S
H479 C463 0.960 . S
C480 C481 1.391 . S
C480 C482 1.394 . S
C480 H496 0.931 . S
C481 C480 1.391 . S
C481 C485 1.376 . S
C482 C480 1.394 . S
C482 C483 1.369 . S
C482 C486 1.531 1_556 S
C483 C482 1.369 . S
C483 C484 1.410 . S
C483 C491 1.503 1_556 S
C484 C483 1.410 . S
C484 C485 1.392 . S
C484 C487 1.511 . S
C485 C481 1.376 . S
C485 C484 1.392 . S
C485 H497 0.929 . S
C486 C482 1.531 1_554 S
C486 H498 0.960 . S
C486 H499 0.962 . S
C486 H500 0.960 1_554 S
C487 C484 1.511 . S
C487 H501 0.961 . S
C487 H502 0.961 1_556 S
C487 H503 0.961 . S
C488 C489 1.370 . S
C488 C490 1.363 . S
C488 H504 0.931 . S
C489 C488 1.370 . S
C489 C493 1.408 . S
C490 C488 1.363 . S
C490 C491 1.370 . S
C490 C494 1.524 . S
C491 C483 1.503 1_554 S
C491 C490 1.370 . S
C491 C492 1.403 . S
C492 C491 1.403 . S
C492 C493 1.404 . S
C492 C495 1.539 . S
C493 C489 1.408 . S
C493 C492 1.404 . S
C493 H505 0.930 . S
C494 C490 1.524 . S
C494 H506 0.956 . S
C494 H507 0.961 . S
C494 H508 0.961 . S
C495 C492 1.539 . S
C495 H509 0.958 . S
C495 H510 0.961 . S
C495 H511 0.960 . S
H496 C480 0.931 . S
H497 C485 0.929 . S
H498 C486 0.960 . S
H499 C486 0.962 . S
H500 C486 0.960 1_556 S
H501 C487 0.961 . S
H502 C487 0.961 1_554 S
H503 C487 0.961 . S
H504 C488 0.931 . S
H505 C493 0.930 . S
H506 C494 0.956 . S
H507 C494 0.961 . S
H508 C494 0.961 . S
H509 C495 0.958 . S
H510 C495 0.961 . S
H511 C495 0.960 . S
C512 C513 1.391 . S
C512 C514 1.394 . S
C512 H528 0.931 . S
C513 C512 1.391 . S
C513 C517 1.376 . S
C514 C512 1.394 . S
C514 C515 1.369 . S
C514 C518 1.531 . S
C515 C514 1.369 . S
C515 C516 1.410 . S
C515 C523 1.485 1_556 S
C516 C515 1.410 . S
C516 C517 1.392 . S
C516 C519 1.511 . S
C517 C513 1.376 . S
C517 C516 1.392 . S
C517 H529 0.929 . S
C518 C514 1.531 . S
C518 H530 0.960 . S
C518 H531 0.962 . S
C518 H532 0.960 . S
C519 C516 1.511 . S
C519 H533 0.961 . S
C519 H534 0.961 . S
C519 H535 0.961 . S
C520 C521 1.370 . S
C520 C522 1.363 . S
C520 H536 0.931 . S
C521 C520 1.370 . S
C521 C525 1.408 . S
C522 C520 1.363 . S
C522 C523 1.380 . S
C522 C526 1.524 . S
C523 C515 1.485 1_554 S
C523 C522 1.380 . S
C523 C524 1.411 . S
C524 C523 1.411 . S
C524 C525 1.404 . S
C524 C527 1.539 1_554 S
C525 C521 1.408 . S
C525 C524 1.404 . S
C525 H537 0.930 . S
C526 C522 1.524 . S
C526 H538 0.956 1_554 S
C526 H539 0.961 1_554 S
C526 H540 0.961 . S
C527 C524 1.539 1_556 S
C527 H541 0.958 . S
C527 H542 0.961 1_556 S
C527 H543 0.960 . S
H528 C512 0.931 . S
H529 C517 0.929 . S
H530 C518 0.960 . S
H531 C518 0.962 . S
H532 C518 0.960 . S
H533 C519 0.961 . S
H534 C519 0.961 . S
H535 C519 0.961 . S
H536 C520 0.931 . S
H537 C525 0.930 . S
H538 C526 0.956 1_556 S
H539 C526 0.961 1_556 S
H540 C526 0.961 . S
H541 C527 0.958 . S
H542 C527 0.961 1_554 S
H543 C527 0.960 . S
C544 C545 1.391 . S
C544 C546 1.394 . S
C544 H560 0.931 . S
C545 C544 1.391 . S
C545 C549 1.376 . S
C546 C544 1.394 . S
C546 C547 1.380 . S
C546 C550 1.531 1_556 S
C547 C546 1.380 . S
C547 C548 1.424 . S
C547 C555 1.478 1_556 S
C548 C547 1.424 . S
C548 C549 1.392 . S
C548 C551 1.511 . S
C549 C545 1.376 . S
C549 C548 1.392 . S
C549 H561 0.929 . S
C550 C546 1.531 1_554 S
C550 H562 0.960 . S
C550 H563 0.962 . S
C550 H564 0.960 1_554 S
C551 C548 1.511 . S
C551 H565 0.961 . S
C551 H566 0.961 1_556 S
C551 H567 0.961 . S
C552 C553 1.370 . S
C552 C554 1.363 . S
C552 H568 0.931 . S
C553 C552 1.370 . S
C553 C557 1.408 . S
C554 C552 1.363 . S
C554 C555 1.370 . S
C554 C558 1.524 . S
C555 C547 1.478 1_554 S
C555 C554 1.370 . S
C555 C556 1.403 . S
C556 C555 1.403 . S
C556 C557 1.404 . S
C556 C559 1.539 . S
C557 C553 1.408 . S
C557 C556 1.404 . S
C557 H569 0.930 . S
C558 C554 1.524 . S
C558 H570 0.956 . S
C558 H571 0.961 . S
C558 H572 0.961 . S
C559 C556 1.539 . S
C559 H573 0.958 . S
C559 H574 0.961 . S
C559 H575 0.960 . S
H560 C544 0.931 . S
H561 C549 0.929 . S
H562 C550 0.960 . S
H563 C550 0.962 . S
H564 C550 0.960 1_556 S
H565 C551 0.961 . S
H566 C551 0.961 1_554 S
H567 C551 0.961 . S
H568 C552 0.931 . S
H569 C557 0.930 . S
H570 C558 0.956 . S
H571 C558 0.961 . S
H572 C558 0.961 . S
H573 C559 0.958 . S
H574 C559 0.961 . S
H575 C559 0.960 . S
C576 C577 1.391 . S
C576 C578 1.394 . S
C576 H592 0.931 . S
C577 C576 1.391 . S
C577 C581 1.376 . S
C578 C576 1.394 . S
C578 C579 1.375 . S
C578 C582 1.542 . S
C579 C578 1.375 . S
C579 C580 1.415 . S
C579 C587 1.492 1_554 S
C580 C579 1.415 . S
C580 C581 1.392 . S
C580 C583 1.511 1_554 S
C581 C577 1.376 . S
C581 C580 1.392 . S
C581 H593 0.929 . S
C582 C578 1.542 . S
C582 H594 0.939 1_554 S
C582 H595 0.959 1_554 S
C582 H596 0.973 . S
C583 C580 1.511 1_556 S
C583 H597 0.961 1_556 S
C583 H598 0.961 . S
C583 H599 0.961 . S
C584 C585 1.370 . S
C584 C586 1.363 . S
C584 H600 0.931 . S
C585 C584 1.370 . S
C585 C589 1.408 . S
C586 C584 1.363 . S
C586 C587 1.370 . S
C586 C590 1.524 . S
C587 C579 1.492 1_556 S
C587 C586 1.370 . S
C587 C588 1.403 . S
C588 C587 1.403 . S
C588 C589 1.404 . S
C588 C591 1.539 . S
C589 C585 1.408 . S
C589 C588 1.404 . S
C589 H601 0.930 . S
C590 C586 1.524 . S
C590 H602 0.956 . S
C590 H603 0.961 . S
C590 H604 0.961 . S
C591 C588 1.539 . S
C591 H605 0.958 . S
C591 H606 0.961 . S
C591 H607 0.960 . S
H592 C576 0.931 . S
H593 C581 0.929 . S
H594 C582 0.939 1_556 S
H595 C582 0.959 1_556 S
H596 C582 0.973 . S
H597 C583 0.961 1_554 S
H598 C583 0.961 . S
H599 C583 0.961 . S
H600 C584 0.931 . S
H601 C589 0.930 . S
H602 C590 0.956 . S
H603 C590 0.961 . S
H604 C590 0.961 . S
H605 C591 0.958 . S
H606 C591 0.961 . S
H607 C591 0.960 . S
C608 C609 1.391 . S
C608 C610 1.394 . S
C608 H624 0.931 . S
C609 C608 1.391 . S
C609 C613 1.376 . S
C610 C608 1.394 . S
C610 C611 1.369 . S
C610 C614 1.531 . S
C611 C610 1.369 . S
C611 C612 1.410 . S
C611 C619 1.503 1_455 S
C612 C611 1.410 . S
C612 C613 1.392 . S
C612 C615 1.511 . S
C613 C609 1.376 . S
C613 C612 1.392 . S
C613 H625 0.929 . S
C614 C610 1.531 . S
C614 H626 0.960 1_455 S
C614 H627 0.962 . S
C614 H628 0.960 . S
C615 C612 1.511 . S
C615 H629 0.961 . S
C615 H630 0.984 . S
C615 H631 0.961 . S
C616 C617 1.370 . S
C616 C618 1.363 . S
C616 H632 0.931 . S
C617 C616 1.370 . S
C617 C621 1.408 . S
C618 C616 1.363 . S
C618 C619 1.370 . S
C618 C622 1.524 . S
C619 C611 1.503 1_655 S
C619 C618 1.370 . S
C619 C620 1.403 . S
C620 C619 1.403 . S
C620 C621 1.404 . S
C620 C623 1.539 . S
C621 C617 1.408 . S
C621 C620 1.404 . S
C621 H633 0.930 . S
C622 C618 1.524 . S
C622 H634 0.956 . S
C622 H635 0.961 1_655 S
C622 H636 0.961 . S
C623 C620 1.539 . S
C623 H637 0.958 . S
C623 H638 0.961 . S
C623 H639 0.960 1_655 S
H624 C608 0.931 . S
H625 C613 0.929 . S
H626 C614 0.960 1_655 S
H627 C614 0.962 . S
H628 C614 0.960 . S
H629 C615 0.961 . S
H630 C615 0.984 . S
H631 C615 0.961 . S
H632 C616 0.931 . S
H633 C621 0.930 . S
H634 C622 0.956 . S
H635 C622 0.961 1_455 S
H636 C622 0.961 . S
H637 C623 0.958 . S
H638 C623 0.961 . S
H639 C623 0.960 1_455 S
C640 C641 1.391 . S
C640 C642 1.394 . S
C640 H656 0.931 . S
C641 C640 1.391 . S
C641 C645 1.376 . S
C642 C640 1.394 . S
C642 C643 1.369 . S
C642 C646 1.531 . S
C643 C642 1.369 . S
C643 C644 1.410 . S
C643 C651 1.503 1_565 S
C644 C643 1.410 . S
C644 C645 1.392 . S
C644 C647 1.511 1_565 S
C645 C641 1.376 . S
C645 C644 1.392 . S
C645 H657 0.929 . S
C646 C642 1.531 . S
C646 H658 0.960 1_565 S
C646 H659 0.962 1_565 S
C646 H660 0.960 . S
C647 C644 1.511 1_545 S
C647 H661 0.961 1_545 S
C647 H662 0.961 . S
C647 H663 0.961 . S
C648 C649 1.370 . S
C648 C650 1.363 . S
C648 H664 0.931 . S
C649 C648 1.370 . S
C649 C653 1.408 . S
C650 C648 1.363 . S
C650 C651 1.370 . S
C650 C654 1.524 . S
C651 C643 1.503 1_545 S
C651 C650 1.370 . S
C651 C652 1.403 . S
C652 C651 1.403 . S
C652 C653 1.404 . S
C652 C655 1.539 . S
C653 C649 1.408 . S
C653 C652 1.404 . S
C653 H665 0.930 . S
C654 C650 1.524 . S
C654 H666 0.956 . S
C654 H667 0.961 . S
C654 H668 0.961 . S
C655 C652 1.539 . S
C655 H669 0.958 . S
C655 H670 0.961 . S
C655 H671 0.960 . S
H656 C640 0.931 . S
H657 C645 0.929 . S
H658 C646 0.960 1_545 S
H659 C646 0.962 1_545 S
H660 C646 0.960 . S
H661 C647 0.961 1_565 S
H662 C647 0.961 . S
H663 C647 0.961 . S
H664 C648 0.931 . S
H665 C653 0.930 . S
H666 C654 0.956 . S
H667 C654 0.961 . S
H668 C654 0.961 . S
H669 C655 0.958 . S
H670 C655 0.961 . S
H671 C655 0.960 . S
C672 C673 1.391 . S
C672 C674 1.394 . S
C672 H688 0.931 . S
C673 C672 1.391 . S
C673 C677 1.376 . S
C674 C672 1.394 . S
C674 C675 1.369 . S
C674 C678 1.531 . S
C675 C674 1.369 . S
C675 C676 1.410 . S
C675 C683 1.503 1_655 S
C676 C675 1.410 . S
C676 C677 1.392 . S
C676 C679 1.511 . S
C677 C673 1.376 . S
C677 C676 1.392 . S
C677 H689 0.929 . S
C678 C674 1.531 . S
C678 H690 0.960 1_655 S
C678 H691 0.962 . S
C678 H692 0.960 . S
C679 C676 1.511 . S
C679 H693 0.961 . S
C679 H694 0.961 1_655 S
C679 H695 0.961 . S
C680 C681 1.370 . S
C680 C682 1.363 . S
C680 H696 0.931 . S
C681 C680 1.370 . S
C681 C685 1.408 . S
C682 C680 1.363 . S
C682 C683 1.370 . S
C682 C686 1.524 . S
C683 C675 1.503 1_455 S
C683 C682 1.370 . S
C683 C684 1.403 . S
C684 C683 1.403 . S
C684 C685 1.404 . S
C684 C687 1.539 . S
C685 C681 1.408 . S
C685 C684 1.404 . S
C685 H697 0.930 . S
C686 C682 1.524 . S
C686 H698 0.956 1_455 S
C686 H699 0.961 1_455 S
C686 H700 0.961 . S
C687 C684 1.539 . S
C687 H701 0.958 . S
C687 H702 0.961 . S
C687 H703 0.960 . S
H688 C672 0.931 . S
H689 C677 0.929 . S
H690 C678 0.960 1_455 S
H691 C678 0.962 . S
H692 C678 0.960 . S
H693 C679 0.961 . S
H694 C679 0.961 1_455 S
H695 C679 0.961 . S
H696 C680 0.931 . S
H697 C685 0.930 . S
H698 C686 0.956 1_655 S
H699 C686 0.961 1_655 S
H700 C686 0.961 . S
H701 C687 0.958 . S
H702 C687 0.961 . S
H703 C687 0.960 . S
C704 C705 1.391 . S
C704 C706 1.394 . S
C704 H720 0.931 . S
C705 C704 1.391 . S
C705 C709 1.376 . S
C706 C704 1.394 . S
C706 C707 1.383 . S
C706 C710 1.531 1_545 S
C707 C706 1.383 . S
C707 C708 1.430 . S
C707 C715 1.469 1_545 S
C708 C707 1.430 . S
C708 C709 1.392 . S
C708 C711 1.511 . S
C709 C705 1.376 . S
C709 C708 1.392 . S
C709 H721 0.929 . S
C710 C706 1.531 1_565 S
C710 H722 0.960 . S
C710 H723 0.962 . S
C710 H724 0.960 1_565 S
C711 C708 1.511 . S
C711 H725 0.961 . S
C711 H726 0.961 1_545 S
C711 H727 0.961 . S
C712 C713 1.370 . S
C712 C714 1.363 . S
C712 H728 0.931 . S
C713 C712 1.370 . S
C713 C717 1.408 . S
C714 C712 1.363 . S
C714 C715 1.370 . S
C714 C718 1.524 . S
C715 C707 1.469 1_565 S
C715 C714 1.370 . S
C715 C716 1.403 . S
C716 C715 1.403 . S
C716 C717 1.404 . S
C716 C719 1.539 . S
C717 C713 1.408 . S
C717 C716 1.404 . S
C717 H729 0.930 . S
C718 C714 1.524 . S
C718 H730 0.956 . S
C718 H731 0.961 . S
C718 H732 0.961 . S
C719 C716 1.539 . S
C719 H733 0.958 . S
C719 H734 0.961 . S
C719 H735 0.960 . S
H720 C704 0.931 . S
H721 C709 0.929 . S
H722 C710 0.960 . S
H723 C710 0.962 . S
H724 C710 0.960 1_545 S
H725 C711 0.961 . S
H726 C711 0.961 1_565 S
H727 C711 0.961 . S
H728 C712 0.931 . S
H729 C717 0.930 . S
H730 C718 0.956 . S
H731 C718 0.961 . S
H732 C718 0.961 . S
H733 C719 0.958 . S
H734 C719 0.961 . S
H735 C719 0.960 . S
C736 C737 1.391 . S
C736 C738 1.394 . S
C736 H752 0.931 . S
C737 C736 1.391 . S
C737 C741 1.376 . S
C738 C736 1.394 . S
C738 C739 1.369 . S
C738 C742 1.531 . S
C739 C738 1.369 . S
C739 C740 1.410 . S
C739 C747 1.503 1_655 S
C740 C739 1.410 . S
C740 C741 1.392 . S
C740 C743 1.511 . S
C741 C737 1.376 . S
C741 C740 1.392 . S
C741 H753 0.929 . S
C742 C738 1.531 . S
C742 H754 0.960 1_655 S
C742 H755 0.962 . S
C742 H756 0.960 . S
C743 C740 1.511 . S
C743 H757 0.961 . S
C743 H758 0.959 . S
C743 H759 0.961 . S
C744 C745 1.370 . S
C744 C746 1.363 . S
C744 H760 0.931 . S
C745 C744 1.370 . S
C745 C749 1.408 . S
C746 C744 1.363 . S
C746 C747 1.370 . S
C746 C750 1.524 . S
C747 C739 1.503 1_455 S
C747 C746 1.370 . S
C747 C748 1.403 . S
C748 C747 1.403 . S
C748 C749 1.404 . S
C748 C751 1.539 . S
C749 C745 1.408 . S
C749 C748 1.404 . S
C749 H761 0.930 . S
C750 C746 1.524 . S
C750 H762 0.957 . S
C750 H763 0.961 1_455 S
C750 H764 0.961 . S
C751 C748 1.539 . S
C751 H765 0.958 . S
C751 H766 0.961 . S
C751 H767 0.960 . S
H752 C736 0.931 . S
H753 C741 0.929 . S
H754 C742 0.960 1_455 S
H755 C742 0.962 . S
H756 C742 0.960 . S
H757 C743 0.961 . S
H758 C743 0.959 . S
H759 C743 0.961 . S
H760 C744 0.931 . S
H761 C749 0.930 . S
H762 C750 0.957 . S
H763 C750 0.961 1_655 S
H764 C750 0.961 . S
H765 C751 0.958 . S
H766 C751 0.961 . S
H767 C751 0.960 . S
C768 C769 1.391 . S
C768 C770 1.394 . S
C768 H784 0.931 . S
C769 C768 1.391 . S
C769 C773 1.376 . S
C770 C768 1.394 . S
C770 C771 1.369 . S
C770 C774 1.531 1_565 S
C771 C770 1.369 . S
C771 C772 1.410 . S
C771 C779 1.503 1_565 S
C772 C771 1.410 . S
C772 C773 1.392 . S
C772 C775 1.511 . S
C773 C769 1.376 . S
C773 C772 1.392 . S
C773 H785 0.929 . S
C774 C770 1.531 1_545 S
C774 H786 0.960 . S
C774 H787 0.962 . S
C774 H788 0.960 1_545 S
C775 C772 1.511 . S
C775 H789 0.961 . S
C775 H790 0.961 1_565 S
C775 H791 0.961 . S
C776 C777 1.370 . S
C776 C778 1.363 . S
C776 H792 0.931 . S
C777 C776 1.370 . S
C777 C781 1.408 . S
C778 C776 1.363 . S
C778 C779 1.370 . S
C778 C782 1.524 . S
C779 C771 1.503 1_545 S
C779 C778 1.370 . S
C779 C780 1.403 . S
C780 C779 1.403 . S
C780 C781 1.404 . S
C780 C783 1.539 . S
C781 C777 1.408 . S
C781 C780 1.404 . S
C781 H793 0.930 . S
C782 C778 1.524 . S
C782 H794 0.956 . S
C782 H795 0.961 . S
C782 H796 0.961 . S
C783 C780 1.539 . S
C783 H797 0.958 . S
C783 H798 0.961 . S
C783 H799 0.960 . S
H784 C768 0.931 . S
H785 C773 0.929 . S
H786 C774 0.960 . S
H787 C774 0.962 . S
H788 C774 0.960 1_565 S
H789 C775 0.961 . S
H790 C775 0.961 1_545 S
H791 C775 0.961 . S
H792 C776 0.931 . S
H793 C781 0.930 . S
H794 C782 0.956 . S
H795 C782 0.961 . S
H796 C782 0.961 . S
H797 C783 0.958 . S
H798 C783 0.961 . S
H799 C783 0.960 . S
C800 C801 1.391 . S
C800 C802 1.394 . S
C800 H816 0.931 . S
C801 C800 1.391 . S
C801 C805 1.376 . S
C802 C800 1.394 . S
C802 C803 1.369 . S
C802 C806 1.531 . S
C803 C802 1.369 . S
C803 C804 1.410 . S
C803 C811 1.503 1_455 S
C804 C803 1.410 . S
C804 C805 1.392 . S
C804 C807 1.511 . S
C805 C801 1.376 . S
C805 C804 1.392 . S
C805 H817 0.929 . S
C806 C802 1.531 . S
C806 H818 0.960 . S
C806 H819 0.962 . S
C806 H820 0.960 . S
C807 C804 1.511 . S
C807 H821 0.961 . S
C807 H822 0.961 1_455 S
C807 H823 0.961 . S
C808 C809 1.370 . S
C808 C810 1.363 . S
C808 H824 0.931 . S
C809 C808 1.370 . S
C809 C813 1.408 . S
C810 C808 1.363 . S
C810 C811 1.370 . S
C810 C814 1.524 . S
C811 C803 1.503 1_655 S
C811 C810 1.370 . S
C811 C812 1.403 . S
C812 C811 1.403 . S
C812 C813 1.404 . S
C812 C815 1.539 . S
C813 C809 1.408 . S
C813 C812 1.404 . S
C813 H825 0.930 . S
C814 C810 1.524 . S
C814 H826 0.949 1_655 S
C814 H827 0.940 1_655 S
C814 H828 0.961 . S
C815 C812 1.539 . S
C815 H829 0.958 . S
C815 H830 0.961 . S
C815 H831 0.960 . S
H816 C800 0.931 . S
H817 C805 0.929 . S
H818 C806 0.960 . S
H819 C806 0.962 . S
H820 C806 0.960 . S
H821 C807 0.961 . S
H822 C807 0.961 1_655 S
H823 C807 0.961 . S
H824 C808 0.931 . S
H825 C813 0.930 . S
H826 C814 0.949 1_455 S
H827 C814 0.940 1_455 S
H828 C814 0.961 . S
H829 C815 0.958 . S
H830 C815 0.961 . S
H831 C815 0.960 . S
C832 C833 1.391 . S
C832 C834 1.394 . S
C832 H848 0.931 . S
C833 C832 1.391 . S
C833 C837 1.376 . S
C834 C832 1.394 . S
C834 C835 1.369 . S
C834 C838 1.531 . S
C835 C834 1.369 . S
C835 C836 1.410 . S
C835 C843 1.503 1_565 S
C836 C835 1.410 . S
C836 C837 1.392 . S
C836 C839 1.511 . S
C837 C833 1.376 . S
C837 C836 1.392 . S
C837 H849 0.929 . S
C838 C834 1.531 . S
C838 H850 0.960 . S
C838 H851 0.962 . S
C838 H852 0.960 . S
C839 C836 1.511 . S
C839 H853 0.961 . S
C839 H854 0.961 . S
C839 H855 0.961 . S
C840 C841 1.370 . S
C840 C842 1.363 . S
C840 H856 0.931 . S
C841 C840 1.370 . S
C841 C845 1.408 . S
C842 C840 1.363 . S
C842 C843 1.370 . S
C842 C846 1.524 1_545 S
C843 C835 1.503 1_545 S
C843 C842 1.370 . S
C843 C844 1.403 . S
C844 C843 1.403 . S
C844 C845 1.404 . S
C844 C847 1.539 . S
C845 C841 1.408 . S
C845 C844 1.404 . S
C845 H857 0.930 . S
C846 C842 1.524 1_565 S
C846 H858 0.956 . S
C846 H859 0.961 . S
C846 H860 0.961 1_565 S
C847 C844 1.539 . S
C847 H861 0.958 . S
C847 H862 0.961 . S
C847 H863 0.960 1_545 S
H848 C832 0.931 . S
H849 C837 0.929 . S
H850 C838 0.960 . S
H851 C838 0.962 . S
H852 C838 0.960 . S
H853 C839 0.961 . S
H854 C839 0.961 . S
H855 C839 0.961 . S
H856 C840 0.931 . S
H857 C845 0.930 . S
H858 C846 0.956 . S
H859 C846 0.961 . S
H860 C846 0.961 1_545 S
H861 C847 0.958 . S
H862 C847 0.961 . S
H863 C847 0.960 1_565 S
C864 C865 1.391 . S
C864 C866 1.394 . S
C864 H880 0.931 . S
C865 C864 1.391 . S
C865 C869 1.376 . S
C866 C864 1.394 . S
C866 C867 1.369 . S
C866 C870 1.531 . S
C867 C866 1.369 . S
C867 C868 1.410 . S
C867 C875 1.503 . S
C868 C867 1.410 . S
C868 C869 1.392 . S
C868 C871 1.511 . S
C869 C865 1.376 . S
C869 C868 1.392 . S
C869 H881 0.929 . S
C870 C866 1.531 . S
C870 H882 0.960 . S
C870 H883 0.962 . S
C870 H884 0.960 . S
C871 C868 1.511 . S
C871 H885 0.961 . S
C871 H886 0.961 . S
C871 H887 0.961 . S
C872 C873 1.370 . S
C872 C874 1.363 . S
C872 H888 0.931 . S
C873 C872 1.370 . S
C873 C877 1.408 . S
C874 C872 1.363 . S
C874 C875 1.370 . S
C874 C878 1.524 . S
C875 C867 1.503 . S
C875 C874 1.370 . S
C875 C876 1.403 . S
C876 C875 1.403 . S
C876 C877 1.404 . S
C876 C879 1.539 . S
C877 C873 1.408 . S
C877 C876 1.404 . S
C877 H889 0.930 . S
C878 C874 1.524 . S
C878 H890 0.956 . S
C878 H891 0.961 . S
C878 H892 0.961 . S
C879 C876 1.539 . S
C879 H893 0.958 . S
C879 H894 0.961 . S
C879 H895 0.960 . S
H880 C864 0.931 . S
H881 C869 0.929 . S
H882 C870 0.960 . S
H883 C870 0.962 . S
H884 C870 0.960 . S
H885 C871 0.961 . S
H886 C871 0.961 . S
H887 C871 0.961 . S
H888 C872 0.931 . S
H889 C877 0.930 . S
H890 C878 0.956 . S
H891 C878 0.961 . S
H892 C878 0.961 . S
H893 C879 0.958 . S
H894 C879 0.961 . S
H895 C879 0.960 . S
C896 C897 1.391 . S
C896 C898 1.394 . S
C896 H912 0.931 . S
C897 C896 1.391 . S
C897 C901 1.376 . S
C898 C896 1.394 . S
C898 C899 1.369 . S
C898 C902 1.531 . S
C899 C898 1.369 . S
C899 C900 1.410 . S
C899 C907 1.503 . S
C900 C899 1.410 . S
C900 C901 1.392 . S
C900 C903 1.511 . S
C901 C897 1.376 . S
C901 C900 1.392 . S
C901 H913 0.929 . S
C902 C898 1.531 . S
C902 H914 0.960 . S
C902 H915 0.962 . S
C902 H916 0.960 . S
C903 C900 1.511 . S
C903 H917 0.961 . S
C903 H918 0.961 . S
C903 H919 0.961 . S
C904 C905 1.370 . S
C904 C906 1.363 . S
C904 H920 0.931 . S
C905 C904 1.370 . S
C905 C909 1.408 . S
C906 C904 1.363 . S
C906 C907 1.370 . S
C906 C910 1.524 . S
C907 C899 1.503 . S
C907 C906 1.370 . S
C907 C908 1.403 . S
C908 C907 1.403 . S
C908 C909 1.404 . S
C908 C911 1.539 . S
C909 C905 1.408 . S
C909 C908 1.404 . S
C909 H921 0.930 . S
C910 C906 1.524 . S
C910 H922 0.956 . S
C910 H923 0.961 . S
C910 H924 0.961 . S
C911 C908 1.539 . S
C911 H925 0.958 . S
C911 H926 0.961 . S
C911 H927 0.960 . S
H912 C896 0.931 . S
H913 C901 0.929 . S
H914 C902 0.960 . S
H915 C902 0.962 . S
H916 C902 0.960 . S
H917 C903 0.961 . S
H918 C903 0.961 . S
H919 C903 0.961 . S
H920 C904 0.931 . S
H921 C909 0.930 . S
H922 C910 0.956 . S
H923 C910 0.961 . S
H924 C910 0.961 . S
H925 C911 0.958 . S
H926 C911 0.961 . S
H927 C911 0.960 . S
C928 C929 1.391 . S
C928 C930 1.394 . S
C928 H944 0.931 . S
C929 C928 1.391 . S
C929 C933 1.376 . S
C930 C928 1.394 . S
C930 C931 1.369 . S
C930 C934 1.531 . S
C931 C930 1.369 . S
C931 C932 1.410 . S
C931 C939 1.503 . S
C932 C931 1.410 . S
C932 C933 1.392 . S
C932 C935 1.511 . S
C933 C929 1.376 . S
C933 C932 1.392 . S
C933 H945 0.929 . S
C934 C930 1.531 . S
C934 H946 0.960 . S
C934 H947 0.962 . S
C934 H948 0.960 . S
C935 C932 1.511 . S
C935 H949 0.961 . S
C935 H950 0.961 . S
C935 H951 0.961 . S
C936 C937 1.370 . S
C936 C938 1.363 . S
C936 H952 0.931 . S
C937 C936 1.370 . S
C937 C941 1.408 . S
C938 C936 1.363 . S
C938 C939 1.370 . S
C938 C942 1.524 . S
C939 C931 1.503 . S
C939 C938 1.370 . S
C939 C940 1.403 . S
C940 C939 1.403 . S
C940 C941 1.404 . S
C940 C943 1.539 . S
C941 C937 1.408 . S
C941 C940 1.404 . S
C941 H953 0.930 . S
C942 C938 1.524 . S
C942 H954 0.956 . S
C942 H955 0.961 . S
C942 H956 0.961 . S
C943 C940 1.539 . S
C943 H957 0.958 . S
C943 H958 0.961 . S
C943 H959 0.960 . S
H944 C928 0.931 . S
H945 C933 0.929 . S
H946 C934 0.960 . S
H947 C934 0.962 . S
H948 C934 0.960 . S
H949 C935 0.961 . S
H950 C935 0.961 . S
H951 C935 0.961 . S
H952 C936 0.931 . S
H953 C941 0.930 . S
H954 C942 0.956 . S
H955 C942 0.961 . S
H956 C942 0.961 . S
H957 C943 0.958 . S
H958 C943 0.961 . S
H959 C943 0.960 . S
C960 C961 1.391 . S
C960 C962 1.394 . S
C960 H976 0.931 . S
C961 C960 1.391 . S
C961 C965 1.376 . S
C962 C960 1.394 . S
C962 C963 1.369 . S
C962 C966 1.531 . S
C963 C962 1.369 . S
C963 C964 1.410 . S
C963 C971 1.503 . S
C964 C963 1.410 . S
C964 C965 1.392 . S
C964 C967 1.511 . S
C965 C961 1.376 . S
C965 C964 1.392 . S
C965 H977 0.929 . S
C966 C962 1.531 . S
C966 H978 0.960 . S
C966 H979 0.962 . S
C966 H980 0.960 . S
C967 C964 1.511 . S
C967 H981 0.961 . S
C967 H982 0.961 . S
C967 H983 0.961 . S
C968 C969 1.370 . S
C968 C970 1.363 . S
C968 H984 0.931 . S
C969 C968 1.370 . S
C969 C973 1.408 . S
C970 C968 1.363 . S
C970 C971 1.370 . S
C970 C974 1.524 . S
C971 C963 1.503 . S
C971 C970 1.370 . S
C971 C972 1.403 . S
C972 C971 1.403 . S
C972 C973 1.404 . S
C972 C975 1.539 . S
C973 C969 1.408 . S
C973 C972 1.404 . S
C973 H985 0.930 . S
C974 C970 1.524 . S
C974 H986 0.956 . S
C974 H987 0.961 . S
C974 H988 0.961 . S
C975 C972 1.539 . S
C975 H989 0.958 . S
C975 H990 0.961 . S
C975 H991 0.960 . S
H976 C960 0.931 . S
H977 C965 0.929 . S
H978 C966 0.960 . S
H979 C966 0.962 . S
H980 C966 0.960 . S
H981 C967 0.961 . S
H982 C967 0.961 . S
H983 C967 0.961 . S
H984 C968 0.931 . S
H985 C973 0.930 . S
H986 C974 0.956 . S
H987 C974 0.961 . S
H988 C974 0.961 . S
H989 C975 0.958 . S
H990 C975 0.961 . S
H991 C975 0.960 . S
C992 C993 1.391 . S
C992 C994 1.394 . S
C992 H1008 0.931 . S
C993 C992 1.391 . S
C993 C997 1.376 . S
C994 C992 1.394 . S
C994 C995 1.369 . S
C994 C998 1.531 . S
C995 C994 1.369 . S
C995 C996 1.410 . S
C995 C1003 1.503 . S
C996 C995 1.410 . S
C996 C997 1.392 . S
C996 C999 1.511 . S
C997 C993 1.376 . S
C997 C996 1.392 . S
C997 H1009 0.929 . S
C998 C994 1.531 . S
C998 H1010 0.960 . S
C998 H1011 0.962 . S
C998 H1012 0.960 . S
C999 C996 1.511 . S
C999 H1013 0.961 . S
C999 H1014 0.961 . S
C999 H1015 0.961 . S
C1000 C1001 1.370 . S
C1000 C1002 1.363 . S
C1000 H1016 0.931 . S
C1001 C1000 1.370 . S
C1001 C1005 1.408 . S
C1002 C1000 1.363 . S
C1002 C1003 1.370 . S
C1002 C1006 1.524 . S
C1003 C995 1.503 . S
C1003 C1002 1.370 . S
C1003 C1004 1.403 . S
C1004 C1003 1.403 . S
C1004 C1005 1.404 . S
C1004 C1007 1.539 . S
C1005 C1001 1.408 . S
C1005 C1004 1.404 . S
C1005 H1017 0.930 . S
C1006 C1002 1.524 . S
C1006 H1018 0.956 . S
C1006 H1019 0.961 . S
C1006 H1020 0.961 . S
C1007 C1004 1.539 . S
C1007 H1021 0.958 . S
C1007 H1022 0.961 . S
C1007 H1023 0.960 . S
H1008 C992 0.931 . S
H1009 C997 0.929 . S
H1010 C998 0.960 . S
H1011 C998 0.962 . S
H1012 C998 0.960 . S
H1013 C999 0.961 . S
H1014 C999 0.961 . S
H1015 C999 0.961 . S
H1016 C1000 0.931 . S
H1017 C1005 0.930 . S
H1018 C1006 0.956 . S
H1019 C1006 0.961 . S
H1020 C1006 0.961 . S
H1021 C1007 0.958 . S
H1022 C1007 0.961 . S
H1023 C1007 0.960 . S
C1024 C1025 1.391 . S
C1024 C1026 1.394 . S
C1024 H1040 0.931 . S
C1025 C1024 1.391 . S
C1025 C1029 1.376 . S
C1026 C1024 1.394 . S
C1026 C1027 1.369 . S
C1026 C1030 1.531 . S
C1027 C1026 1.369 . S
C1027 C1028 1.410 . S
C1027 C1035 1.503 . S
C1028 C1027 1.410 . S
C1028 C1029 1.392 . S
C1028 C1031 1.511 . S
C1029 C1025 1.376 . S
C1029 C1028 1.392 . S
C1029 H1041 0.929 . S
C1030 C1026 1.531 . S
C1030 H1042 0.960 . S
C1030 H1043 0.962 . S
C1030 H1044 0.960 . S
C1031 C1028 1.511 . S
C1031 H1045 0.961 . S
C1031 H1046 0.961 . S
C1031 H1047 0.961 . S
C1032 C1033 1.370 . S
C1032 C1034 1.363 . S
C1032 H1048 0.931 . S
C1033 C1032 1.370 . S
C1033 C1037 1.408 . S
C1034 C1032 1.363 . S
C1034 C1035 1.370 . S
C1034 C1038 1.524 . S
C1035 C1027 1.503 . S
C1035 C1034 1.370 . S
C1035 C1036 1.403 . S
C1036 C1035 1.403 . S
C1036 C1037 1.404 . S
C1036 C1039 1.539 . S
C1037 C1033 1.408 . S
C1037 C1036 1.404 . S
C1037 H1049 0.930 . S
C1038 C1034 1.524 . S
C1038 H1050 0.956 . S
C1038 H1051 0.961 . S
C1038 H1052 0.961 . S
C1039 C1036 1.539 . S
C1039 H1053 0.958 . S
C1039 H1054 0.961 . S
C1039 H1055 0.960 . S
H1040 C1024 0.931 . S
H1041 C1029 0.929 . S
H1042 C1030 0.960 . S
H1043 C1030 0.962 . S
H1044 C1030 0.960 . S
H1045 C1031 0.961 . S
H1046 C1031 0.961 . S
H1047 C1031 0.961 . S
H1048 C1032 0.931 . S
H1049 C1037 0.930 . S
H1050 C1038 0.956 . S
H1051 C1038 0.961 . S
H1052 C1038 0.961 . S
H1053 C1039 0.958 . S
H1054 C1039 0.961 . S
H1055 C1039 0.960 . S
C1056 C1057 1.391 . S
C1056 C1058 1.394 . S
C1056 H1072 0.931 . S
C1057 C1056 1.391 . S
C1057 C1061 1.376 . S
C1058 C1056 1.394 . S
C1058 C1059 1.369 . S
C1058 C1062 1.531 . S
C1059 C1058 1.369 . S
C1059 C1060 1.410 . S
C1059 C1067 1.503 . S
C1060 C1059 1.410 . S
C1060 C1061 1.392 . S
C1060 C1063 1.511 . S
C1061 C1057 1.376 . S
C1061 C1060 1.392 . S
C1061 H1073 0.929 . S
C1062 C1058 1.531 . S
C1062 H1074 0.960 . S
C1062 H1075 0.962 . S
C1062 H1076 0.960 . S
C1063 C1060 1.511 . S
C1063 H1077 0.961 . S
C1063 H1078 0.961 . S
C1063 H1079 0.961 . S
C1064 C1065 1.370 . S
C1064 C1066 1.363 . S
C1064 H1080 0.931 . S
C1065 C1064 1.370 . S
C1065 C1069 1.408 . S
C1066 C1064 1.363 . S
C1066 C1067 1.370 . S
C1066 C1070 1.524 . S
C1067 C1059 1.503 . S
C1067 C1066 1.370 . S
C1067 C1068 1.403 . S
C1068 C1067 1.403 . S
C1068 C1069 1.404 . S
C1068 C1071 1.539 . S
C1069 C1065 1.408 . S
C1069 C1068 1.404 . S
C1069 H1081 0.930 . S
C1070 C1066 1.524 . S
C1070 H1082 0.956 . S
C1070 H1083 0.961 . S
C1070 H1084 0.961 . S
C1071 C1068 1.539 . S
C1071 H1085 0.958 . S
C1071 H1086 0.961 . S
C1071 H1087 0.960 . S
H1072 C1056 0.931 . S
H1073 C1061 0.929 . S
H1074 C1062 0.960 . S
H1075 C1062 0.962 . S
H1076 C1062 0.960 . S
H1077 C1063 0.961 . S
H1078 C1063 0.961 . S
H1079 C1063 0.961 . S
H1080 C1064 0.931 . S
H1081 C1069 0.930 . S
H1082 C1070 0.956 . S
H1083 C1070 0.961 . S
H1084 C1070 0.961 . S
H1085 C1071 0.958 . S
H1086 C1071 0.961 . S
H1087 C1071 0.960 . S
C1088 C1089 1.391 . S
C1088 C1090 1.394 . S
C1088 H1104 0.931 . S
C1089 C1088 1.391 . S
C1089 C1093 1.376 . S
C1090 C1088 1.394 . S
C1090 C1091 1.369 . S
C1090 C1094 1.531 . S
C1091 C1090 1.369 . S
C1091 C1092 1.410 . S
C1091 C1099 1.503 . S
C1092 C1091 1.410 . S
C1092 C1093 1.392 . S
C1092 C1095 1.511 . S
C1093 C1089 1.376 . S
C1093 C1092 1.392 . S
C1093 H1105 0.929 . S
C1094 C1090 1.531 . S
C1094 H1106 0.960 . S
C1094 H1107 0.962 . S
C1094 H1108 0.960 . S
C1095 C1092 1.511 . S
C1095 H1109 0.961 . S
C1095 H1110 0.961 . S
C1095 H1111 0.961 . S
C1096 C1097 1.370 . S
C1096 C1098 1.363 . S
C1096 H1112 0.931 . S
C1097 C1096 1.370 . S
C1097 C1101 1.408 . S
C1098 C1096 1.363 . S
C1098 C1099 1.370 . S
C1098 C1102 1.524 . S
C1099 C1091 1.503 . S
C1099 C1098 1.370 . S
C1099 C1100 1.403 . S
C1100 C1099 1.403 . S
C1100 C1101 1.404 . S
C1100 C1103 1.539 . S
C1101 C1097 1.408 . S
C1101 C1100 1.404 . S
C1101 H1113 0.930 . S
C1102 C1098 1.524 . S
C1102 H1114 0.956 . S
C1102 H1115 0.961 . S
C1102 H1116 0.961 . S
C1103 C1100 1.539 . S
C1103 H1117 0.958 . S
C1103 H1118 0.961 . S
C1103 H1119 0.960 . S
H1104 C1088 0.931 . S
H1105 C1093 0.929 . S
H1106 C1094 0.960 . S
H1107 C1094 0.962 . S
H1108 C1094 0.960 . S
H1109 C1095 0.961 . S
H1110 C1095 0.961 . S
H1111 C1095 0.961 . S
H1112 C1096 0.931 . S
H1113 C1101 0.930 . S
H1114 C1102 0.956 . S
H1115 C1102 0.961 . S
H1116 C1102 0.961 . S
H1117 C1103 0.958 . S
H1118 C1103 0.961 . S
H1119 C1103 0.960 . S
C1120 C1121 1.391 . S
C1120 C1122 1.394 . S
C1120 H1136 0.931 . S
C1121 C1120 1.391 . S
C1121 C1125 1.376 . S
C1122 C1120 1.394 . S
C1122 C1123 1.369 . S
C1122 C1126 1.531 . S
C1123 C1122 1.369 . S
C1123 C1124 1.410 . S
C1123 C1131 1.503 . S
C1124 C1123 1.410 . S
C1124 C1125 1.392 . S
C1124 C1127 1.511 . S
C1125 C1121 1.376 . S
C1125 C1124 1.392 . S
C1125 H1137 0.929 . S
C1126 C1122 1.531 . S
C1126 H1138 0.960 . S
C1126 H1139 0.962 . S
C1126 H1140 0.960 . S
C1127 C1124 1.511 . S
C1127 H1141 0.961 . S
C1127 H1142 0.961 . S
C1127 H1143 0.961 . S
C1128 C1129 1.370 . S
C1128 C1130 1.363 . S
C1128 H1144 0.931 . S
C1129 C1128 1.370 . S
C1129 C1133 1.408 . S
C1130 C1128 1.363 . S
C1130 C1131 1.370 . S
C1130 C1134 1.524 . S
C1131 C1123 1.503 . S
C1131 C1130 1.370 . S
C1131 C1132 1.403 . S
C1132 C1131 1.403 . S
C1132 C1133 1.404 . S
C1132 C1135 1.539 . S
C1133 C1129 1.408 . S
C1133 C1132 1.404 . S
C1133 H1145 0.930 . S
C1134 C1130 1.524 . S
C1134 H1146 0.956 . S
C1134 H1147 0.961 . S
C1134 H1148 0.961 . S
C1135 C1132 1.539 . S
C1135 H1149 0.958 . S
C1135 H1150 0.961 . S
C1135 H1151 0.960 . S
H1136 C1120 0.931 . S
H1137 C1125 0.929 . S
H1138 C1126 0.960 . S
H1139 C1126 0.962 . S
H1140 C1126 0.960 . S
H1141 C1127 0.961 . S
H1142 C1127 0.961 . S
H1143 C1127 0.961 . S
H1144 C1128 0.931 . S
H1145 C1133 0.930 . S
H1146 C1134 0.956 . S
H1147 C1134 0.961 . S
H1148 C1134 0.961 . S
H1149 C1135 0.958 . S
H1150 C1135 0.961 . S
H1151 C1135 0.960 . S
C1152 C1153 1.391 . S
C1152 C1154 1.394 . S
C1152 H1168 0.931 . S
C1153 C1152 1.391 . S
C1153 C1157 1.376 . S
C1154 C1152 1.394 . S
C1154 C1155 1.369 . S
C1154 C1158 1.531 . S
C1155 C1154 1.369 . S
C1155 C1156 1.410 . S
C1155 C1163 1.503 . S
C1156 C1155 1.410 . S
C1156 C1157 1.392 . S
C1156 C1159 1.511 . S
C1157 C1153 1.376 . S
C1157 C1156 1.392 . S
C1157 H1169 0.929 . S
C1158 C1154 1.531 . S
C1158 H1170 0.960 . S
C1158 H1171 0.962 . S
C1158 H1172 0.960 . S
C1159 C1156 1.511 . S
C1159 H1173 0.961 . S
C1159 H1174 0.961 . S
C1159 H1175 0.961 . S
C1160 C1161 1.370 . S
C1160 C1162 1.363 . S
C1160 H1176 0.931 . S
C1161 C1160 1.370 . S
C1161 C1165 1.408 . S
C1162 C1160 1.363 . S
C1162 C1163 1.370 . S
C1162 C1166 1.524 . S
C1163 C1155 1.503 . S
C1163 C1162 1.370 . S
C1163 C1164 1.403 . S
C1164 C1163 1.403 . S
C1164 C1165 1.404 . S
C1164 C1167 1.539 . S
C1165 C1161 1.408 . S
C1165 C1164 1.404 . S
C1165 H1177 0.930 . S
C1166 C1162 1.524 . S
C1166 H1178 0.956 . S
C1166 H1179 0.961 . S
C1166 H1180 0.961 . S
C1167 C1164 1.539 . S
C1167 H1181 0.958 . S
C1167 H1182 0.961 . S
C1167 H1183 0.960 . S
H1168 C1152 0.931 . S
H1169 C1157 0.929 . S
H1170 C1158 0.960 . S
H1171 C1158 0.962 . S
H1172 C1158 0.960 . S
H1173 C1159 0.961 . S
H1174 C1159 0.961 . S
H1175 C1159 0.961 . S
H1176 C1160 0.931 . S
H1177 C1165 0.930 . S
H1178 C1166 0.956 . S
H1179 C1166 0.961 . S
H1180 C1166 0.961 . S
H1181 C1167 0.958 . S
H1182 C1167 0.961 . S
H1183 C1167 0.960 . S
C1184 C1185 1.391 . S
C1184 C1186 1.394 . S
C1184 H1200 0.931 . S
C1185 C1184 1.391 . S
C1185 C1189 1.376 . S
C1186 C1184 1.394 . S
C1186 C1187 1.369 . S
C1186 C1190 1.531 . S
C1187 C1186 1.369 . S
C1187 C1188 1.410 . S
C1187 C1195 1.503 . S
C1188 C1187 1.410 . S
C1188 C1189 1.392 . S
C1188 C1191 1.511 . S
C1189 C1185 1.376 . S
C1189 C1188 1.392 . S
C1189 H1201 0.929 . S
C1190 C1186 1.531 . S
C1190 H1202 0.960 . S
C1190 H1203 0.962 . S
C1190 H1204 0.960 . S
C1191 C1188 1.511 . S
C1191 H1205 0.961 . S
C1191 H1206 0.961 . S
C1191 H1207 0.961 . S
C1192 C1193 1.370 . S
C1192 C1194 1.363 . S
C1192 H1208 0.931 . S
C1193 C1192 1.370 . S
C1193 C1197 1.408 . S
C1194 C1192 1.363 . S
C1194 C1195 1.370 . S
C1194 C1198 1.524 . S
C1195 C1187 1.503 . S
C1195 C1194 1.370 . S
C1195 C1196 1.403 . S
C1196 C1195 1.403 . S
C1196 C1197 1.404 . S
C1196 C1199 1.539 . S
C1197 C1193 1.408 . S
C1197 C1196 1.404 . S
C1197 H1209 0.930 . S
C1198 C1194 1.524 . S
C1198 H1210 0.956 . S
C1198 H1211 0.961 . S
C1198 H1212 0.961 . S
C1199 C1196 1.539 . S
C1199 H1213 0.958 . S
C1199 H1214 0.961 . S
C1199 H1215 0.960 . S
H1200 C1184 0.931 . S
H1201 C1189 0.929 . S
H1202 C1190 0.960 . S
H1203 C1190 0.962 . S
H1204 C1190 0.960 . S
H1205 C1191 0.961 . S
H1206 C1191 0.961 . S
H1207 C1191 0.961 . S
H1208 C1192 0.931 . S
H1209 C1197 0.930 . S
H1210 C1198 0.956 . S
H1211 C1198 0.961 . S
H1212 C1198 0.961 . S
H1213 C1199 0.958 . S
H1214 C1199 0.961 . S
H1215 C1199 0.960 . S
C1216 C1217 1.391 . S
C1216 C1218 1.394 . S
C1216 H1232 0.931 . S
C1217 C1216 1.391 . S
C1217 C1221 1.376 . S
C1218 C1216 1.394 . S
C1218 C1219 1.369 . S
C1218 C1222 1.531 . S
C1219 C1218 1.369 . S
C1219 C1220 1.410 . S
C1219 C1227 1.503 . S
C1220 C1219 1.410 . S
C1220 C1221 1.392 . S
C1220 C1223 1.511 . S
C1221 C1217 1.376 . S
C1221 C1220 1.392 . S
C1221 H1233 0.929 . S
C1222 C1218 1.531 . S
C1222 H1234 0.960 . S
C1222 H1235 0.962 . S
C1222 H1236 0.960 . S
C1223 C1220 1.511 . S
C1223 H1237 0.961 . S
C1223 H1238 0.961 . S
C1223 H1239 0.961 . S
C1224 C1225 1.370 . S
C1224 C1226 1.363 . S
C1224 H1240 0.931 . S
C1225 C1224 1.370 . S
C1225 C1229 1.408 . S
C1226 C1224 1.363 . S
C1226 C1227 1.370 . S
C1226 C1230 1.524 . S
C1227 C1219 1.503 . S
C1227 C1226 1.370 . S
C1227 C1228 1.403 . S
C1228 C1227 1.403 . S
C1228 C1229 1.404 . S
C1228 C1231 1.539 . S
C1229 C1225 1.408 . S
C1229 C1228 1.404 . S
C1229 H1241 0.930 . S
C1230 C1226 1.524 . S
C1230 H1242 0.956 . S
C1230 H1243 0.961 . S
C1230 H1244 0.961 . S
C1231 C1228 1.539 . S
C1231 H1245 0.958 . S
C1231 H1246 0.961 . S
C1231 H1247 0.960 . S
H1232 C1216 0.931 . S
H1233 C1221 0.929 . S
H1234 C1222 0.960 . S
H1235 C1222 0.962 . S
H1236 C1222 0.960 . S
H1237 C1223 0.961 . S
H1238 C1223 0.961 . S
H1239 C1223 0.961 . S
H1240 C1224 0.931 . S
H1241 C1229 0.930 . S
H1242 C1230 0.956 . S
H1243 C1230 0.961 . S
H1244 C1230 0.961 . S
H1245 C1231 0.958 . S
H1246 C1231 0.961 . S
H1247 C1231 0.960 . S
C225 C221 0.998 . S
C233 C11 0.988 . S
C257 C179 0.993 . S
C265 C25 0.981 . S
C289 C39 0.994 . S
C297 C193 0.990 . S
C321 C207 1.001 . S
C329 C53 0.982 . S
C353 C137 0.987 . S
C361 C67 0.993 . S
C385 C81 0.998 . S
C393 C151 0.988 . S
C417 C95 1.001 . S
C425 C165 0.982 . S
C449 C109 0.976 . S
C457 C123 0.986 . S
C481 C83 1.174 . S
C489 C8 1.376 . S
C513 C92 1.416 . S
C521 C27 1.264 . S
C545 C111 1.238 . S
C553 C36 1.395 . S
C577 C55 1.298 . S
C585 C64 1.400 . S
C609 C7 1.397 . S
C617 C21 1.381 . S
C641 C41 1.215 . S
C649 C22 1.376 . S
C673 C35 1.365 . S
C681 C49 1.379 . S
C705 C13 1.221 . S
C713 C50 1.392 . S
C737 C105 1.386 . S
C745 C63 1.384 . S
C769 C69 1.175 . S
C777 C78 1.375 . S
C801 C77 1.340 . S
C809 C91 1.362 . S
C833 C106 1.351 . S
C841 C97 1.216 . S
C865 C195 1.226 . S
C873 C120 1.393 . S
C897 C139 1.252 . S
C905 C204 1.382 . S
C929 C223 1.262 . S
C937 C148 1.399 . S
C961 C176 1.415 . S
C969 C167 1.265 . S
C993 C119 1.390 . S
C1001 C133 1.384 . S
C1025 C134 1.414 . S
C1033 C153 1.266 . S
C1057 C161 1.343 . S
C1065 C147 1.360 . S
C1089 C125 1.269 . S
C1097 C162 1.386 . S
C1121 C217 1.396 . S
C1129 C175 1.377 . S
C1153 C181 1.233 . S
C1161 C190 1.394 . S
C1185 C189 1.369 . S
C1193 C203 1.380 . S
C1217 C218 1.414 . S
C1225 C209 1.266 . S
