# Generated by pormake.
# Topology can, (4)-cn, num edge types: 1
# Building blocks:
#     Node 0, Type 0, BuildingBlock: CEKHIL_clean_sbu_0, # of connection points: 4
#     Node 1, Type 0, BuildingBlock: CEKHIL_clean_sbu_0, # of connection points: 4
#     Node 2, Type 0, BuildingBlock: CEKHIL_clean_sbu_0, # of connection points: 4
#     Node 3, Type 0, BuildingBlock: CEKHIL_clean_sbu_0, # of connection points: 4
#     Node 4, Type 0, BuildingBlock: CEKHIL_clean_sbu_0, # of connection points: 4
#     Node 5, Type 0, BuildingBlock: CEKHIL_clean_sbu_0, # of connection points: 4
#     Node 6, Type 0, BuildingBlock: CEKHIL_clean_sbu_0, # of connection points: 4
#     Node 7, Type 0, BuildingBlock: CEKHIL_clean_sbu_0, # of connection points: 4
#     Node 8, Type 0, BuildingBlock: CEKHIL_clean_sbu_0, # of connection points: 4
#     Node 9, Type 0, BuildingBlock: CEKHIL_clean_sbu_0, # of connection points: 4
#     Node 10, Type 0, BuildingBlock: CEKHIL_clean_sbu_0, # of connection points: 4
#     Node 11, Type 0, BuildingBlock: CEKHIL_clean_sbu_0, # of connection points: 4
#     Edge 12, Type (0, 0), BuildingBlock: XIVTED_clean_linker_0, # of connection points: 2
#     Edge 13, Type (0, 0), BuildingBlock: XIVTED_clean_linker_0, # of connection points: 2
#     Edge 14, Type (0, 0), BuildingBlock: XIVTED_clean_linker_0, # of connection points: 2
#     Edge 15, Type (0, 0), BuildingBlock: XIVTED_clean_linker_0, # of connection points: 2
#     Edge 16, Type (0, 0), BuildingBlock: XIVTED_clean_linker_0, # of connection points: 2
#     Edge 17, Type (0, 0), BuildingBlock: XIVTED_clean_linker_0, # of connection points: 2
#     Edge 18, Type (0, 0), BuildingBlock: XIVTED_clean_linker_0, # of connection points: 2
#     Edge 19, Type (0, 0), BuildingBlock: XIVTED_clean_linker_0, # of connection points: 2
#     Edge 20, Type (0, 0), BuildingBlock: XIVTED_clean_linker_0, # of connection points: 2
#     Edge 21, Type (0, 0), BuildingBlock: XIVTED_clean_linker_0, # of connection points: 2
#     Edge 22, Type (0, 0), BuildingBlock: XIVTED_clean_linker_0, # of connection points: 2
#     Edge 23, Type (0, 0), BuildingBlock: XIVTED_clean_linker_0, # of connection points: 2
#     Edge 24, Type (0, 0), BuildingBlock: XIVTED_clean_linker_0, # of connection points: 2
#     Edge 25, Type (0, 0), BuildingBlock: XIVTED_clean_linker_0, # of connection points: 2
#     Edge 26, Type (0, 0), BuildingBlock: XIVTED_clean_linker_0, # of connection points: 2
#     Edge 27, Type (0, 0), BuildingBlock: XIVTED_clean_linker_0, # of connection points: 2
#     Edge 28, Type (0, 0), BuildingBlock: XIVTED_clean_linker_0, # of connection points: 2
#     Edge 29, Type (0, 0), BuildingBlock: XIVTED_clean_linker_0, # of connection points: 2
#     Edge 30, Type (0, 0), BuildingBlock: XIVTED_clean_linker_0, # of connection points: 2
#     Edge 31, Type (0, 0), BuildingBlock: XIVTED_clean_linker_0, # of connection points: 2
#     Edge 32, Type (0, 0), BuildingBlock: XIVTED_clean_linker_0, # of connection points: 2
#     Edge 33, Type (0, 0), BuildingBlock: XIVTED_clean_linker_0, # of connection points: 2
#     Edge 34, Type (0, 0), BuildingBlock: XIVTED_clean_linker_0, # of connection points: 2
#     Edge 35, Type (0, 0), BuildingBlock: XIVTED_clean_linker_0, # of connection points: 2
# Relax obj value: 0.060
# Max RMSD: 0.044
# Mean RMSD: 0.044
data_MOF--net-can--node1-CEKHIL_clean_sbu_0--edge1-XIVTED_clean_linker_0
_symmetry_space_group_name_H-M    P1
_symmetry_Int_Tables_number       1
_symmetry_cell_setting            triclinic
loop_
_symmetry_equiv_pos_as_xyz
'x, y, z'
_cell_length_a     54.643277
_cell_length_b     54.65442
_cell_length_c     27.469721
_cell_angle_alpha  89.958737
_cell_angle_beta   90.021796
_cell_angle_gamma 120.02237
loop_
_atom_site_label
_atom_site_type_symbol
_atom_site_fract_x
_atom_site_fract_y
_atom_site_fract_z
_atom_type_partial_charge
Co0 Co 0.06734 0.39254 0.25447 0.0
O1 O 0.08378 0.36845 0.2553 0.0
O2 O 0.10531 0.41257 0.22862 0.0
C3 C 0.05047 0.38263 0.33121 0.0
O4 O 0.0585 0.42455 0.24989 0.0
Co5 Co 0.00315 0.37012 0.269 0.0
O6 O 0.01582 0.4104 0.28281 0.0
C7 C 0.02442 0.36342 0.17327 0.0
C8 C 0.10665 0.39001 0.23858 0.0
C9 C 0.03949 0.42968 0.26642 0.0
O10 O 0.05029 0.37817 0.18785 0.0
O11 O 0.00314 0.35654 0.20113 0.0
O12 O 0.07681 0.40119 0.32331 0.0
O13 O 0.03592 0.36938 0.29332 0.0
Co14 Co 0.67598 0.06412 0.75672 0.0
O15 O 0.71656 0.08207 0.75772 0.0
O16 O 0.69265 0.10211 0.73058 0.0
C17 C 0.66921 0.04755 0.83366 0.0
O18 O 0.63429 0.05283 0.75231 0.0
Co19 Co 0.63872 0.99891 0.77051 0.0
O20 O 0.6078 0.00767 0.77684 0.0
C21 C 0.66625 0.02191 0.67568 0.0
C22 C 0.71699 0.1044 0.74054 0.0
C23 C 0.61031 0.03121 0.76374 0.0
O24 O 0.67444 0.04736 0.69006 0.0
O25 O 0.65404 1.00036 0.70375 0.0
O26 O 0.67598 0.07357 0.82538 0.0
O27 O 0.66945 0.03348 0.79617 0.0
Co28 Co 0.61196 0.67445 0.25549 0.0
O29 O 0.63462 0.71506 0.25634 0.0
O30 O 0.5904 0.69109 0.23043 0.0
C31 C 0.62259 0.66773 0.33184 0.0
O32 O 0.5814 0.63275 0.25166 0.0
Co33 Co 0.63967 0.6369 0.26772 0.0
O34 O 0.60002 0.60641 0.27708 0.0
C35 C 0.64398 0.66493 0.17346 0.0
C36 C 0.61253 0.71545 0.24 0.0
C37 C 0.57892 0.60888 0.26429 0.0
O38 O 0.62668 0.67298 0.1883 0.0
O39 O 0.65334 0.65256 0.20108 0.0
O40 O 0.60323 0.67448 0.32454 0.0
O41 O 0.63644 0.66789 0.29375 0.0
Co42 Co 0.94037 0.61187 0.75835 0.0
O43 O 0.92217 0.63415 0.7646 0.0
O44 O 0.90228 0.59125 0.73249 0.0
C45 C 0.95798 0.61986 0.83465 0.0
O46 O 0.95155 0.58168 0.74895 0.0
Co47 Co 0.00568 0.63937 0.76872 0.0
O48 O 0.99705 0.59958 0.77074 0.0
C49 C 0.98154 0.64623 0.67699 0.0
C50 C 0.89991 0.61278 0.74603 0.0
C51 C 0.97323 0.57894 0.75771 0.0
O52 O 0.95627 0.62881 0.69205 0.0
O53 O 0.00349 0.65485 0.70383 0.0
O54 O 0.93186 0.60065 0.82671 0.0
O55 O 0.97154 0.63502 0.79749 0.0
Co56 Co 0.32886 0.93965 0.25333 0.0
O57 O 0.2883 0.9222 0.25335 0.0
O58 O 0.31193 0.9017 0.22704 0.0
C59 C 0.33519 0.95602 0.33026 0.0
O60 O 0.3705 0.95046 0.25011 0.0
Co61 Co 0.36664 0.00474 0.26761 0.0
O62 O 0.39686 0.99518 0.27669 0.0
C63 C 0.33965 0.98222 0.1723 0.0
C64 C 0.28766 0.89974 0.23638 0.0
C65 C 0.39436 0.9717 0.2633 0.0
O66 O 0.33112 0.95668 0.18663 0.0
O67 O 0.35193 0.00368 0.20048 0.0
O68 O 0.32816 0.92992 0.32201 0.0
O69 O 0.33545 0.97029 0.29266 0.0
Co70 Co 0.39529 0.33016 0.76175 0.0
O71 O 0.37184 0.28981 0.76431 0.0
O72 O 0.41572 0.31223 0.73658 0.0
C73 C 0.38582 0.33801 0.83807 0.0
O74 O 0.42624 0.37165 0.75605 0.0
Co75 Co 0.36806 0.36824 0.77335 0.0
O76 O 0.40797 0.39853 0.78035 0.0
C77 C 0.36257 0.33903 0.68013 0.0
C78 C 0.39321 0.28836 0.7473 0.0
C79 C 0.42887 0.39576 0.76744 0.0
O80 O 0.37998 0.33112 0.69492 0.0
O81 O 0.35349 0.35172 0.70752 0.0
O82 O 0.4048 0.33076 0.83058 0.0
O83 O 0.37167 0.33767 0.80029 0.0
Co84 Co 0.61106 0.93899 0.23839 0.0
O85 O 0.63431 0.92172 0.23717 0.0
O86 O 0.59031 0.90089 0.26426 0.0
C87 C 0.62079 0.95577 0.16156 0.0
O88 O 0.58005 0.94947 0.24301 0.0
Co89 Co 0.6378 0.00408 0.22492 0.0
O90 O 0.59789 0.99461 0.21896 0.0
C91 C 0.64336 0.98131 0.31933 0.0
C92 C 0.61264 0.89912 0.2542 0.0
C93 C 0.57716 0.97082 0.23193 0.0
O94 O 0.6262 0.95578 0.30511 0.0
O95 O 0.65227 0.00281 0.29126 0.0
O96 O 0.60175 0.92962 0.16963 0.0
O97 O 0.63483 0.96991 0.1992 0.0
Co98 Co 0.67628 0.61312 0.7367 0.0
O99 O 0.71684 0.63534 0.73237 0.0
O100 O 0.69321 0.5921 0.76306 0.0
C101 C 0.66798 0.62199 0.66012 0.0
O102 O 0.63466 0.58296 0.744 0.0
Co103 Co 0.63889 0.64102 0.72462 0.0
O104 O 0.60785 0.60129 0.71973 0.0
C105 C 0.66809 0.64658 0.81798 0.0
C106 C 0.71736 0.61371 0.75063 0.0
C107 C 0.61054 0.58043 0.73324 0.0
O108 O 0.67629 0.62942 0.80312 0.0
O109 O 0.65519 0.65546 0.79061 0.0
O110 O 0.67465 0.60262 0.66813 0.0
O111 O 0.66906 0.63675 0.69747 0.0
Co112 Co 0.0643 0.67462 0.24104 0.0
O113 O 0.08036 0.71509 0.23769 0.0
O114 O 0.10234 0.69345 0.26674 0.0
C115 C 0.04725 0.66589 0.16435 0.0
O116 O 0.05592 0.63401 0.24837 0.0
Co117 Co 1.00018 0.63201 0.22762 0.0
O118 O 0.01336 0.60462 0.2158 0.0
C119 C 0.02136 0.66236 0.32153 0.0
C120 C 0.10338 0.717 0.25507 0.0
C121 C 0.03713 0.60956 0.2326 0.0
O122 O 0.04725 0.67311 0.30727 0.0
O123 O 1.00011 0.64732 0.29395 0.0
O124 O 0.07368 0.67415 0.17246 0.0
O125 O 0.03272 0.6652 0.20185 0.0
Co126 Co 0.39418 0.06436 0.73467 0.0
O127 O 0.37076 0.08133 0.73284 0.0
O128 O 0.41467 0.10256 0.76043 0.0
C129 C 0.38462 0.0475 0.65796 0.0
O130 O 0.42516 0.05389 0.73975 0.0
Co131 Co 0.36726 0.9992 0.72177 0.0
O132 O 0.4072 0.00889 0.71487 0.0
C133 C 0.36172 0.02221 0.81581 0.0
C134 C 0.39221 0.10404 0.74999 0.0
C135 C 0.42798 0.03258 0.72809 0.0
O136 O 0.37894 0.04768 0.80137 0.0
O137 O 0.35277 1.00062 0.78799 0.0
O138 O 0.40362 0.07367 0.66593 0.0
O139 O 0.37053 0.03341 0.69561 0.0
Co140 Co 0.33108 0.39054 0.243 0.0
O141 O 0.29057 0.36732 0.24096 0.0
O142 O 0.31363 0.41132 0.26811 0.0
C143 C 0.33876 0.38094 0.16667 0.0
O144 O 0.37263 0.42139 0.24829 0.0
Co145 Co 0.36904 0.36321 0.23125 0.0
O146 O 0.39969 0.40305 0.22548 0.0
C147 C 0.34019 0.35807 0.32476 0.0
C148 C 0.28956 0.38898 0.25776 0.0
C149 C 0.39682 0.42397 0.23786 0.0
O150 O 0.33219 0.3754 0.30989 0.0
O151 O 0.35276 0.34887 0.29732 0.0
O152 O 0.33155 0.39994 0.1742 0.0
O153 O 0.33838 0.36675 0.20444 0.0
Co154 Co 0.93983 0.33027 0.73432 0.0
O155 O 0.92184 0.2897 0.73472 0.0
O156 O 0.9016 0.3139 0.75927 0.0
C157 C 0.9571 0.3362 0.658 0.0
O158 O 0.9512 0.37204 0.73681 0.0
Co159 Co 0.00514 0.36733 0.72222 0.0
O160 O 0.99626 0.39791 0.71154 0.0
C161 C 0.9812 0.34059 0.8172 0.0
C162 C 0.89938 0.28945 0.75068 0.0
C163 C 0.97275 0.39573 0.72387 0.0
O164 O 0.95592 0.33238 0.80181 0.0
O165 O 0.00304 0.3526 0.78975 0.0
O166 O 0.93102 0.32959 0.6652 0.0
O167 O 0.97082 0.33634 0.69631 0.0
H168 H 0.06221 0.37548 0.09802 0.0
H169 H 0.94261 0.32144 0.89255 0.0
H170 H 0.97274 0.33292 0.12926 0.0
H171 H 0.03125 0.35452 0.86211 0.0
H172 H 0.95286 0.32292 0.9796 0.0
H173 H 0.0511 0.3656 0.01146 0.0
C174 C 0.04026 0.36385 0.08686 0.0
C175 C 0.01844 0.35529 0.12116 0.0
C176 C 0.97001 0.32961 0.95376 0.0
C177 C 0.00554 0.34407 0.02197 0.0
C178 C 0.96414 0.32872 0.904 0.0
C179 C 0.98609 0.33814 0.86975 0.0
C180 C 0.99803 0.34012 0.96944 0.0
C181 C 0.0136 0.3473 0.88698 0.0
C182 C 0.03391 0.35822 0.03737 0.0
C183 C 0.99036 0.34019 0.10432 0.0
N184 N 0.01879 0.3483 0.93548 0.0
N185 N 0.98476 0.33531 0.05602 0.0
H186 H 0.67907 0.03229 0.36185 0.0
H187 H 0.65152 0.97118 0.63266 0.0
H188 H 0.62722 0.94355 0.39589 0.0
H189 H 0.68618 0.05969 0.59905 0.0
H190 H 0.64996 0.96106 0.54611 0.0
H191 H 0.68901 0.04246 0.44808 0.0
C192 C 0.66991 0.01482 0.38731 0.0
C193 C 0.65194 0.98695 0.37131 0.0
C194 C 0.65809 0.98272 0.55766 0.0
C195 C 0.66342 0.99872 0.4707 0.0
C196 C 0.65909 0.98862 0.60721 0.0
C197 C 0.66872 0.01639 0.62345 0.0
C198 C 0.66688 0.00469 0.52375 0.0
C199 C 0.67843 0.03797 0.58841 0.0
C200 C 0.67562 0.02075 0.4367 0.0
C201 C 0.64102 0.96534 0.40637 0.0
N202 N 0.67708 0.03163 0.54021 0.0
N203 N 0.6468 0.97171 0.45444 0.0
H204 H 0.62772 0.68717 0.09809 0.0
H205 H 0.68965 0.62964 0.8933 0.0
H206 H 0.67919 0.64953 0.12953 0.0
H207 H 0.65278 0.68182 0.86218 0.0
H208 H 0.68794 0.63851 0.9802 0.0
H209 H 0.63827 0.68717 0.01144 0.0
C210 C 0.64143 0.67918 0.08697 0.0
C211 C 0.65229 0.66808 0.12133 0.0
C212 C 0.68051 0.64826 0.95423 0.0
C213 C 0.66428 0.66779 0.02215 0.0
C214 C 0.68155 0.64323 0.90455 0.0
C215 C 0.67107 0.6547 0.87018 0.0
C216 C 0.66871 0.66467 0.9697 0.0
C217 C 0.66085 0.67223 0.88716 0.0
C218 C 0.64746 0.67917 0.03746 0.0
C219 C 0.67005 0.65808 0.10456 0.0
N220 N 0.65964 0.67639 0.93561 0.0
N221 N 0.67522 0.65792 0.05627 0.0
H222 H 0.96961 0.64385 0.36374 0.0
H223 H 0.03114 0.6849 0.63355 0.0
H224 H 0.05883 0.68824 0.39726 0.0
H225 H 0.94323 0.62703 0.60126 0.0
H226 H 0.04065 0.69343 0.54678 0.0
H227 H 0.95918 0.64465 0.44962 0.0
C228 C 0.98711 0.65401 0.38901 0.0
C229 C 0.01524 0.66572 0.37302 0.0
C230 C 0.01924 0.67907 0.55866 0.0
C231 C 0.00319 0.66662 0.47198 0.0
C232 C 0.01369 0.67418 0.60833 0.0
C233 C 0.98633 0.65484 0.62498 0.0
C234 C 0.99731 0.6646 0.52507 0.0
C235 C 0.96466 0.64195 0.59029 0.0
C236 C 0.98104 0.6544 0.43819 0.0
C237 C 0.03686 0.67879 0.40776 0.0
N238 N 0.97068 0.64686 0.54196 0.0
N239 N 0.03036 0.67869 0.45563 0.0
H240 H 0.32527 0.97156 0.8587 0.0
H241 H 0.35571 0.03323 0.12907 0.0
H242 H 0.37873 0.06017 0.892 0.0
H243 H 0.31865 0.94439 0.09593 0.0
H244 H 0.357 0.04331 0.04253 0.0
H245 H 0.3156 0.96166 0.94509 0.0
C246 C 0.33484 0.98906 0.88404 0.0
C247 C 0.3532 0.01679 0.8678 0.0
C248 C 0.34841 0.0216 0.05419 0.0
C249 C 0.34205 0.00536 0.96732 0.0
C250 C 0.34758 0.01573 0.10373 0.0
C251 C 0.33733 0.98786 0.12008 0.0
C252 C 0.33884 0.99949 0.02041 0.0
C253 C 0.32691 0.96619 0.08519 0.0
C254 C 0.32929 0.98329 0.93351 0.0
C255 C 0.36463 0.03847 0.90267 0.0
N256 N 0.3281 0.9725 0.03698 0.0
N257 N 0.35901 0.03225 0.95081 0.0
H258 H 0.31804 0.37461 0.39959 0.0
H259 H 0.37868 0.31642 0.60538 0.0
H260 H 0.3556 0.32298 0.36927 0.0
H261 H 0.32704 0.35395 0.63591 0.0
H262 H 0.36838 0.3164 0.51867 0.0
H263 H 0.3189 0.36515 0.48647 0.0
C264 C 0.32616 0.36105 0.41102 0.0
C265 C 0.33707 0.3499 0.37691 0.0
C266 C 0.35908 0.32436 0.54449 0.0
C267 C 0.33838 0.3392 0.47637 0.0
C268 C 0.36496 0.32436 0.59404 0.0
C269 C 0.35404 0.33551 0.62814 0.0
C270 C 0.34236 0.3358 0.52888 0.0
C271 C 0.33625 0.34541 0.61111 0.0
C272 C 0.32667 0.35566 0.46067 0.0
C273 C 0.34722 0.33234 0.39407 0.0
N274 N 0.33125 0.3456 0.56276 0.0
N275 N 0.34792 0.32783 0.44251 0.0
H276 H 0.01411 0.65185 0.85601 0.0
H277 H 0.99105 0.63856 0.14252 0.0
H278 H 0.93297 0.59749 0.92233 0.0
H279 H 0.07327 0.67164 0.07642 0.0
H280 H 0.96934 0.62465 0.06219 0.0
H281 H 0.03623 0.66064 0.93623 0.0
C282 C 1.00096 0.64165 0.88746 0.0
C283 C 0.97164 0.62401 0.88261 0.0
C284 C 0.99211 0.63477 0.06524 0.0
C285 C 0.99679 0.63418 0.97451 0.0
C286 C 0.00454 0.64281 0.11108 0.0
C287 C 0.03402 0.65638 0.11607 0.0
C288 C 0.00929 0.6407 0.02395 0.0
C289 C 0.05045 0.66126 0.07412 0.0
C290 C 0.01362 0.64662 0.93321 0.0
C291 C 0.95564 0.61126 0.92452 0.0
N292 N 0.03787 0.65364 0.02969 0.0
N293 N 0.9684 0.61681 0.96884 0.0
H294 H 0.33108 0.92988 0.41723 0.0
H295 H 0.40538 0.07354 0.5704 0.0
H296 H 0.35971 0.01197 0.35329 0.0
H297 H 0.35286 0.99155 0.6354 0.0
H298 H 0.39518 0.0512 0.48997 0.0
H299 H 0.34523 0.95219 0.49745 0.0
C300 C 0.34043 0.95259 0.42007 0.0
C301 C 0.34411 0.96911 0.37868 0.0
C302 C 0.38597 0.03813 0.52191 0.0
C303 C 0.36047 0.9947 0.46995 0.0
C304 C 0.39185 0.05084 0.56774 0.0
C305 C 0.37981 0.03436 0.60948 0.0
C306 C 0.3682 0.00875 0.518 0.0
C307 C 0.36244 0.00505 0.60409 0.0
C308 C 0.34843 0.96528 0.46579 0.0
C309 C 0.35636 0.99844 0.38432 0.0
N310 N 0.35716 0.99316 0.55915 0.0
N311 N 0.36415 0.01033 0.42915 0.0
H312 H 0.35449 0.36284 0.85906 0.0
H313 H 0.36378 0.34977 0.14559 0.0
H314 H 0.40651 0.33343 0.92618 0.0
H315 H 0.33497 0.40239 0.07887 0.0
H316 H 0.37778 0.34164 0.06553 0.0
H317 H 0.34527 0.37569 0.93924 0.0
C318 C 0.36407 0.35918 0.89069 0.0
C319 C 0.3812 0.34695 0.88609 0.0
C320 C 0.36856 0.35511 0.06844 0.0
C321 C 0.37054 0.36139 0.97788 0.0
C322 C 0.36047 0.35968 0.11408 0.0
C323 C 0.3481 0.37669 0.11874 0.0
C324 C 0.36387 0.36731 0.02712 0.0
C325 C 0.3444 0.38909 0.07678 0.0
C326 C 0.35886 0.36661 0.93641 0.0
C327 C 0.39314 0.34278 0.92822 0.0
N328 N 0.35205 0.38396 0.03258 0.0
N329 N 0.38738 0.34977 0.97251 0.0
H330 H 0.93198 0.33236 0.57012 0.0
H331 H 0.07662 0.40221 0.41925 0.0
H332 H 0.01316 0.3592 0.63635 0.0
H333 H 0.9944 0.35225 0.35349 0.0
H334 H 0.05402 0.39254 0.49953 0.0
H335 H 0.95494 0.3455 0.49034 0.0
C336 C 0.95464 0.3411 0.56787 0.0
C337 C 0.97069 0.34458 0.6098 0.0
C338 C 0.04097 0.38377 0.46745 0.0
C339 C 0.99707 0.35977 0.51892 0.0
C340 C 0.05383 0.38934 0.4217 0.0
C341 C 0.03735 0.37792 0.37976 0.0
C342 C 0.01144 0.36694 0.47106 0.0
C343 C 0.00792 0.36138 0.38492 0.0
C344 C 0.96771 0.34853 0.52238 0.0
C345 C 0.99998 0.35604 0.60488 0.0
N346 N 0.9959 0.35641 0.42973 0.0
N347 N 0.01226 0.36327 0.56022 0.0
H348 H 0.67282 0.07344 0.92065 0.0
H349 H 0.6002 0.92968 0.07398 0.0
H350 H 0.64523 0.9916 0.85667 0.0
H351 H 0.65218 0.01177 0.13884 0.0
H352 H 0.6101 0.95204 0.99352 0.0
H353 H 0.65896 0.05102 0.00089 0.0
C354 C 0.66375 0.05076 0.92348 0.0
C355 C 0.6603 0.03436 0.88208 0.0
C356 C 0.61926 0.96512 0.02544 0.0
C357 C 0.64427 0.00863 0.97339 0.0
C358 C 0.61356 0.9524 0.07129 0.0
C359 C 0.62553 0.9689 0.11301 0.0
C360 C 0.63677 0.99454 0.02147 0.0
C361 C 0.64266 0.99825 0.10755 0.0
C362 C 0.65591 0.038 0.96922 0.0
C363 C 0.6484 0.00505 0.88772 0.0
N364 N 0.64776 0.01015 0.0626 0.0
N365 N 0.64077 0.9931 0.93256 0.0
H366 H 0.6545 0.64341 0.35251 0.0
H367 H 0.64307 0.65324 0.63922 0.0
H368 H 0.60161 0.67156 0.42012 0.0
H369 H 0.67199 0.60092 0.57193 0.0
H370 H 0.62974 0.6622 0.55924 0.0
H371 H 0.66329 0.62974 0.43244 0.0
C372 C 0.64467 0.64665 0.38418 0.0
C373 C 0.62737 0.65872 0.37978 0.0
C374 C 0.63882 0.64861 0.56197 0.0
C375 C 0.63752 0.64332 0.47128 0.0
C376 C 0.64652 0.64354 0.6076 0.0
C377 C 0.65875 0.62638 0.61212 0.0
C378 C 0.64378 0.63679 0.52045 0.0
C379 C 0.66264 0.61429 0.56996 0.0
C380 C 0.64963 0.63874 0.42975 0.0
C381 C 0.61512 0.66235 0.42197 0.0
N382 N 0.65541 0.61994 0.52573 0.0
N383 N 0.62062 0.65489 0.46609 0.0
H384 H 0.05933 0.59621 0.31023 0.0
H385 H 0.06252 0.46635 0.19048 0.0
H386 H 0.02625 0.56863 0.16563 0.0
H387 H 0.02654 0.45827 0.33336 0.0
H388 H 0.06558 0.51263 0.18156 0.0
H389 H 0.06359 0.55367 0.31975 0.0
C390 C 0.05343 0.58142 0.28029 0.0
C391 C 0.0423 0.58568 0.23718 0.0
C392 C 0.05738 0.50077 0.215 0.0
C393 C 0.04773 0.53785 0.24741 0.0
C394 C 0.05575 0.47458 0.22023 0.0
C395 C 0.04414 0.45858 0.26262 0.0
C396 C 0.04817 0.51128 0.25306 0.0
C397 C 0.03544 0.46998 0.30002 0.0
C398 C 0.05574 0.55724 0.28584 0.0
C399 C 0.03473 0.56588 0.19951 0.0
N400 N 0.03777 0.49579 0.29451 0.0
N401 N 0.03775 0.54283 0.20535 0.0
H402 H 0.48016 0.07962 0.74719 0.0
H403 H 0.55601 0.98758 0.76733 0.0
H404 H 0.43995 0.99005 0.71821 0.0
H405 H 0.6045 0.07829 0.75054 0.0
H406 H 0.51285 0.98942 0.75852 0.0
H407 H 0.52562 0.08088 0.75606 0.0
C408 C 0.48083 0.06029 0.74258 0.0
C409 C 0.45607 0.03468 0.73206 0.0
C410 C 0.53288 0.00899 0.75668 0.0
C411 C 0.50776 0.03598 0.74257 0.0
C412 C 0.55766 0.00799 0.76196 0.0
C413 C 0.58408 0.03283 0.75957 0.0
C414 C 0.53422 0.03502 0.74927 0.0
C415 C 0.58462 0.05859 0.75239 0.0
C416 C 0.50677 0.06106 0.74756 0.0
C417 C 0.45829 0.01032 0.72635 0.0
N418 N 0.56 0.05906 0.7476 0.0
N419 N 0.48353 0.01159 0.73194 0.0
H420 H 0.52656 0.60298 0.24372 0.0
H421 H 0.45111 0.43473 0.2395 0.0
H422 H 0.56706 0.5548 0.28034 0.0
H423 H 0.40234 0.47706 0.24595 0.0
H424 H 0.49411 0.47995 0.24684 0.0
H425 H 0.4811 0.55849 0.23814 0.0
C426 C 0.52596 0.58318 0.2507 0.0
C427 C 0.55082 0.58273 0.26228 0.0
C428 C 0.47407 0.47949 0.24678 0.0
C429 C 0.49908 0.532 0.25564 0.0
C430 C 0.44937 0.45357 0.24232 0.0
C431 C 0.42292 0.45196 0.24208 0.0
C432 C 0.47264 0.50434 0.25067 0.0
C433 C 0.42226 0.47729 0.24615 0.0
C434 C 0.50001 0.55785 0.24761 0.0
C435 C 0.54866 0.55641 0.27113 0.0
N436 N 0.44682 0.50253 0.25009 0.0
N437 N 0.52339 0.53226 0.26735 0.0
H438 H 0.92531 0.52625 0.75035 0.0
H439 H 0.01478 0.44932 0.70321 0.0
H440 H 0.01647 0.56792 0.74977 0.0
H441 H 0.9272 0.40251 0.7474 0.0
H442 H 0.01338 0.49283 0.70921 0.0
H443 H 0.92348 0.48064 0.73981 0.0
C444 C 0.94489 0.52586 0.7479 0.0
C445 C 0.9711 0.551 0.75109 0.0
C446 C 0.99442 0.47309 0.71764 0.0
C447 C 0.9691 0.49913 0.73864 0.0
C448 C 0.99514 0.44808 0.71408 0.0
C449 C 0.97111 0.42205 0.72522 0.0
C450 C 0.96947 0.47235 0.73225 0.0
C451 C 0.94629 0.42207 0.73876 0.0
C452 C 0.94381 0.49984 0.74205 0.0
C453 C 0.99577 0.54919 0.74783 0.0
N454 N 0.9461 0.44688 0.742 0.0
N455 N 0.99414 0.52381 0.74163 0.0
H456 H 0.44837 0.01381 0.28029 0.0
H457 H 0.52446 0.92297 0.24253 0.0
H458 H 0.40039 0.92544 0.24146 0.0
H459 H 0.56573 0.01392 0.23186 0.0
H460 H 0.47878 0.92137 0.25134 0.0
H461 H 0.49156 0.01191 0.27366 0.0
C462 C 0.44681 0.99389 0.27045 0.0
C463 C 0.42052 0.96977 0.26108 0.0
C464 C 0.49793 0.94157 0.24691 0.0
C465 C 0.47051 0.96755 0.25331 0.0
C466 C 0.52397 0.94254 0.24202 0.0
C467 C 0.54905 0.96863 0.23641 0.0
C468 C 0.49715 0.96689 0.24696 0.0
C469 C 0.54709 0.99328 0.23588 0.0
C470 C 0.47164 0.99288 0.2665 0.0
C471 C 0.42016 0.9446 0.24872 0.0
N472 N 0.52173 0.99177 0.24133 0.0
N473 N 0.44483 0.94412 0.24516 0.0
H474 H 0.55617 0.56957 0.7326 0.0
H475 H 0.48129 0.40144 0.74808 0.0
H476 H 0.6051 0.52761 0.74506 0.0
H477 H 0.44045 0.45007 0.77829 0.0
H478 H 0.52661 0.44594 0.74008 0.0
H479 H 0.51319 0.52437 0.74121 0.0
C480 C 0.55794 0.55083 0.73703 0.0
C481 C 0.58442 0.55252 0.73816 0.0
C482 C 0.50764 0.44667 0.74865 0.0
C483 C 0.53478 0.50022 0.74818 0.0
C484 C 0.48179 0.42134 0.75313 0.0
C485 C 0.45689 0.4219 0.76375 0.0
C486 C 0.50842 0.47261 0.7543 0.0
C487 C 0.4589 0.44835 0.77003 0.0
C488 C 0.53327 0.52493 0.74218 0.0
C489 C 0.58515 0.52732 0.7442 0.0
N490 N 0.48406 0.47248 0.76497 0.0
N491 N 0.56063 0.50212 0.74884 0.0
H492 H 0.16005 0.435 0.22517 0.0
H493 H 0.23638 0.34334 0.25238 0.0
H494 H 0.11493 0.34493 0.24977 0.0
H495 H 0.28087 0.43417 0.26578 0.0
H496 H 0.19188 0.34347 0.24588 0.0
H497 H 0.20478 0.43504 0.23219 0.0
C498 C 0.15953 0.41518 0.23141 0.0
C499 C 0.13369 0.3899 0.23683 0.0
C500 C 0.21132 0.36338 0.2506 0.0
C501 C 0.18479 0.38986 0.24536 0.0
C502 C 0.23676 0.36332 0.25446 0.0
C503 C 0.26239 0.38878 0.25976 0.0
C504 C 0.21146 0.38913 0.25138 0.0
C505 C 0.26158 0.41403 0.26206 0.0
C506 C 0.18507 0.41526 0.23585 0.0
C507 C 0.13433 0.3649 0.24531 0.0
N508 N 0.23654 0.4136 0.25745 0.0
N509 N 0.15943 0.36551 0.2493 0.0
H510 H 0.84586 0.28178 0.76052 0.0
H511 H 0.7705 0.11302 0.74645 0.0
H512 H 0.89076 0.2359 0.74632 0.0
H513 H 0.72472 0.15788 0.72992 0.0
H514 H 0.81456 0.15808 0.75107 0.0
H515 H 0.80099 0.23682 0.75606 0.0
C516 C 0.84629 0.26225 0.7571 0.0
C517 C 0.8721 0.26259 0.75382 0.0
C518 C 0.79494 0.15815 0.74611 0.0
C519 C 0.82096 0.21123 0.74821 0.0
C520 C 0.76974 0.13239 0.74331 0.0
C521 C 0.74387 0.13166 0.73764 0.0
C522 C 0.79438 0.18354 0.74376 0.0
C523 C 0.74421 0.15747 0.73396 0.0
C524 C 0.82069 0.23665 0.75412 0.0
C525 C 0.87139 0.23668 0.74895 0.0
N526 N 0.76907 0.18239 0.73743 0.0
N527 N 0.8463 0.21213 0.74628 0.0
H528 H 0.56662 0.72283 0.22903 0.0
H529 H 0.65816 0.89146 0.24838 0.0
H530 H 0.65718 0.76915 0.2473 0.0
H531 H 0.56743 0.84526 0.26391 0.0
H532 H 0.65794 0.84679 0.24301 0.0
H533 H 0.56618 0.76744 0.23469 0.0
C534 C 0.58643 0.74239 0.23361 0.0
C535 C 0.61199 0.74226 0.23765 0.0
C536 C 0.63807 0.84635 0.24793 0.0
C537 C 0.61161 0.79327 0.24461 0.0
C538 C 0.63818 0.87188 0.25115 0.0
C539 C 0.61278 0.87211 0.25675 0.0
C540 C 0.61231 0.82071 0.2497 0.0
C541 C 0.58752 0.84606 0.25994 0.0
C542 C 0.58614 0.7678 0.23727 0.0
C543 C 0.63699 0.76822 0.24401 0.0
N544 N 0.58789 0.82139 0.256 0.0
N545 N 0.63617 0.7926 0.24728 0.0
H546 H 0.85804 0.58961 0.67696 0.0
H547 H 0.73481 0.5888 0.81866 0.0
H548 H 0.87954 0.63381 0.81419 0.0
H549 H 0.75975 0.63599 0.68432 0.0
H550 H 0.77946 0.58764 0.81766 0.0
H551 H 0.81249 0.58893 0.67828 0.0
C552 C 0.8531 0.59903 0.70732 0.0
C553 C 0.87256 0.61206 0.74525 0.0
C554 C 0.7749 0.59811 0.78849 0.0
C555 C 0.82064 0.61033 0.74782 0.0
C556 C 0.74962 0.59879 0.78902 0.0
C557 C 0.74389 0.61279 0.75182 0.0
C558 C 0.7938 0.61053 0.74956 0.0
C559 C 0.76364 0.62533 0.71402 0.0
C560 C 0.82728 0.59862 0.70804 0.0
C561 C 0.8652 0.6239 0.78396 0.0
N562 N 0.78763 0.62365 0.71352 0.0
N563 N 0.83965 0.62251 0.78456 0.0
H564 H 0.2796 0.84619 0.22663 0.0
H565 H 0.11085 0.76997 0.24253 0.0
H566 H 0.23417 0.89151 0.24124 0.0
H567 H 0.15713 0.72627 0.26763 0.0
H568 H 0.15566 0.8144 0.23511 0.0
H569 H 0.23464 0.80151 0.23248 0.0
C570 C 0.26015 0.84675 0.23035 0.0
C571 C 0.26064 0.87262 0.23345 0.0
C572 C 0.15603 0.79512 0.24255 0.0
C573 C 0.20922 0.82166 0.24061 0.0
C574 C 0.13044 0.76976 0.24696 0.0
C575 C 0.13023 0.74438 0.25592 0.0
C576 C 0.18167 0.79512 0.24647 0.0
C577 C 0.15629 0.74537 0.26106 0.0
C578 C 0.23454 0.82126 0.23415 0.0
C579 C 0.23481 0.87207 0.23874 0.0
N580 N 0.18096 0.77028 0.25591 0.0
N581 N 0.21019 0.84705 0.24217 0.0
H582 H 0.34781 0.23645 0.76412 0.0
H583 H 0.34707 0.11104 0.73344 0.0
H584 H 0.43634 0.27741 0.72692 0.0
H585 H 0.43566 0.15793 0.77049 0.0
H586 H 0.3462 0.15491 0.72975 0.0
H587 H 0.34644 0.19148 0.76788 0.0
C588 C 0.36691 0.23592 0.7558 0.0
C589 C 0.39216 0.26077 0.74464 0.0
C590 C 0.36573 0.15575 0.73996 0.0
C591 C 0.39062 0.20875 0.74786 0.0
C592 C 0.36629 0.13058 0.74176 0.0
C593 C 0.39141 0.13071 0.75286 0.0
C594 C 0.39045 0.18149 0.74968 0.0
C595 C 0.41574 0.15683 0.76241 0.0
C596 C 0.36606 0.21005 0.75763 0.0
C597 C 0.41633 0.25871 0.73506 0.0
N598 N 0.4147 0.18123 0.76038 0.0
N599 N 0.415 0.23313 0.73712 0.0
loop_
_geom_bond_atom_site_label_1
_geom_bond_atom_site_label_2
_geom_bond_distance
_geom_bond_site_symmetry_2
_ccdc_geom_bond_type
Co0 O1 2.216 . S
Co0 O2 2.091 . S
Co0 O4 2.004 . S
Co0 O10 2.021 . S
Co0 O12 2.137 . S
Co0 O13 2.244 . S
O1 Co0 2.216 . S
O1 C8 1.247 . S
O2 Co0 2.091 . S
O2 C8 1.261 . S
C3 O12 1.247 . S
C3 O13 1.272 . S
O4 Co0 2.004 . S
O4 C9 1.259 . S
Co5 O6 2.061 1_655 S
Co5 O11 2.075 . S
Co5 O13 2.135 1_655 S
O6 Co5 2.061 1_455 S
O6 C9 1.235 . S
C7 O10 1.238 . S
C7 O11 1.207 1_455 S
C8 O1 1.247 . S
C8 O2 1.261 . S
C9 O4 1.259 . S
C9 O6 1.235 . S
O10 Co0 2.021 . S
O10 C7 1.238 . S
O11 Co5 2.075 . S
O11 C7 1.207 1_655 S
O12 Co0 2.137 . S
O12 C3 1.247 . S
O13 Co0 2.244 . S
O13 C3 1.272 . S
O13 Co5 2.135 1_455 S
Co14 O15 2.216 . S
Co14 O16 2.091 . S
Co14 O18 2.004 . S
Co14 O24 2.021 . S
Co14 O26 2.137 . S
Co14 O27 2.244 . S
O15 Co14 2.216 . S
O15 C22 1.247 . S
O16 Co14 2.091 . S
O16 C22 1.261 . S
C17 O26 1.247 . S
C17 O27 1.272 . S
O18 Co14 2.004 . S
O18 C23 1.259 . S
Co19 O20 2.061 1_565 S
Co19 O25 2.052 . S
Co19 O27 2.135 1_565 S
O20 Co19 2.061 1_545 S
O20 C23 1.235 . S
C21 O24 1.238 . S
C21 O25 1.211 1_545 S
C22 O15 1.247 . S
C22 O16 1.261 . S
C23 O18 1.259 . S
C23 O20 1.235 . S
O24 Co14 2.021 . S
O24 C21 1.238 . S
O25 Co19 2.052 . S
O25 C21 1.211 1_565 S
O26 Co14 2.137 . S
O26 C17 1.247 . S
O27 Co14 2.244 . S
O27 C17 1.272 . S
O27 Co19 2.135 1_545 S
Co28 O29 2.216 . S
Co28 O30 2.091 . S
Co28 O32 2.004 . S
Co28 O38 2.021 . S
Co28 O40 2.137 . S
Co28 O41 2.244 . S
O29 Co28 2.216 . S
O29 C36 1.247 . S
O30 Co28 2.091 . S
O30 C36 1.261 . S
C31 O40 1.247 . S
C31 O41 1.272 . S
O32 Co28 2.004 . S
O32 C37 1.259 . S
Co33 O34 2.061 . S
Co33 O39 2.052 . S
Co33 O41 2.135 . S
O34 Co33 2.061 . S
O34 C37 1.235 . S
C35 O38 1.238 . S
C35 O39 1.241 . S
C36 O29 1.247 . S
C36 O30 1.261 . S
C37 O32 1.259 . S
C37 O34 1.235 . S
O38 Co28 2.021 . S
O38 C35 1.238 . S
O39 Co33 2.052 . S
O39 C35 1.241 . S
O40 Co28 2.137 . S
O40 C31 1.247 . S
O41 Co28 2.244 . S
O41 C31 1.272 . S
O41 Co33 2.135 . S
Co42 O43 2.216 . S
Co42 O44 2.091 . S
Co42 O46 2.004 . S
Co42 O52 2.021 . S
Co42 O54 2.137 . S
Co42 O55 2.244 . S
O43 Co42 2.216 . S
O43 C50 1.247 . S
O44 Co42 2.091 . S
O44 C50 1.261 . S
C45 O54 1.247 . S
C45 O55 1.272 . S
O46 Co42 2.004 . S
O46 C51 1.259 . S
Co47 O48 2.061 1_455 S
Co47 O53 2.075 . S
Co47 O55 2.135 1_455 S
O48 Co47 2.061 1_655 S
O48 C51 1.235 . S
C49 O52 1.238 . S
C49 O53 1.207 1_655 S
C50 O43 1.247 . S
C50 O44 1.261 . S
C51 O46 1.259 . S
C51 O48 1.235 . S
O52 Co42 2.021 . S
O52 C49 1.238 . S
O53 Co47 2.075 . S
O53 C49 1.207 1_455 S
O54 Co42 2.137 . S
O54 C45 1.247 . S
O55 Co42 2.244 . S
O55 C45 1.272 . S
O55 Co47 2.135 1_655 S
Co56 O57 2.216 . S
Co56 O58 2.091 . S
Co56 O60 2.004 . S
Co56 O66 2.021 . S
Co56 O68 2.137 . S
Co56 O69 2.244 . S
O57 Co56 2.216 . S
O57 C64 1.247 . S
O58 Co56 2.091 . S
O58 C64 1.261 . S
C59 O68 1.247 . S
C59 O69 1.272 . S
O60 Co56 2.004 . S
O60 C65 1.259 . S
Co61 O62 2.061 1_545 S
Co61 O67 2.052 . S
Co61 O69 2.135 1_545 S
O62 Co61 2.061 1_565 S
O62 C65 1.235 . S
C63 O66 1.238 . S
C63 O67 1.211 1_565 S
C64 O57 1.247 . S
C64 O58 1.261 . S
C65 O60 1.259 . S
C65 O62 1.235 . S
O66 Co56 2.021 . S
O66 C63 1.238 . S
O67 Co61 2.052 . S
O67 C63 1.211 1_545 S
O68 Co56 2.137 . S
O68 C59 1.247 . S
O69 Co56 2.244 . S
O69 C59 1.272 . S
O69 Co61 2.135 1_565 S
Co70 O71 2.216 . S
Co70 O72 2.091 . S
Co70 O74 2.004 . S
Co70 O80 2.021 . S
Co70 O82 2.137 . S
Co70 O83 2.244 . S
O71 Co70 2.216 . S
O71 C78 1.247 . S
O72 Co70 2.091 . S
O72 C78 1.261 . S
C73 O82 1.247 . S
C73 O83 1.272 . S
O74 Co70 2.004 . S
O74 C79 1.259 . S
Co75 O76 2.061 . S
Co75 O81 2.052 . S
Co75 O83 2.135 . S
O76 Co75 2.061 . S
O76 C79 1.235 . S
C77 O80 1.238 . S
C77 O81 1.241 . S
C78 O71 1.247 . S
C78 O72 1.261 . S
C79 O74 1.259 . S
C79 O76 1.235 . S
O80 Co70 2.021 . S
O80 C77 1.238 . S
O81 Co75 2.052 . S
O81 C77 1.241 . S
O82 Co70 2.137 . S
O82 C73 1.247 . S
O83 Co70 2.244 . S
O83 C73 1.272 . S
O83 Co75 2.135 . S
Co84 O85 2.216 . S
Co84 O86 2.091 . S
Co84 O88 2.004 . S
Co84 O94 2.021 . S
Co84 O96 2.137 . S
Co84 O97 2.244 . S
O85 Co84 2.216 . S
O85 C92 1.247 . S
O86 Co84 2.091 . S
O86 C92 1.261 . S
C87 O96 1.247 . S
C87 O97 1.272 . S
O88 Co84 2.004 . S
O88 C93 1.259 . S
Co89 O90 2.061 1_545 S
Co89 O95 2.075 . S
Co89 O97 2.135 1_545 S
O90 Co89 2.061 1_565 S
O90 C93 1.235 . S
C91 O94 1.238 . S
C91 O95 1.207 1_565 S
C92 O85 1.247 . S
C92 O86 1.261 . S
C93 O88 1.259 . S
C93 O90 1.235 . S
O94 Co84 2.021 . S
O94 C91 1.238 . S
O95 Co89 2.075 . S
O95 C91 1.207 1_545 S
O96 Co84 2.137 . S
O96 C87 1.247 . S
O97 Co84 2.244 . S
O97 C87 1.272 . S
O97 Co89 2.135 1_565 S
Co98 O99 2.216 . S
Co98 O100 2.091 . S
Co98 O102 2.004 . S
Co98 O108 2.021 . S
Co98 O110 2.137 . S
Co98 O111 2.244 . S
O99 Co98 2.216 . S
O99 C106 1.247 . S
O100 Co98 2.091 . S
O100 C106 1.261 . S
C101 O110 1.247 . S
C101 O111 1.272 . S
O102 Co98 2.004 . S
O102 C107 1.259 . S
Co103 O104 2.061 . S
Co103 O109 2.052 . S
Co103 O111 2.135 . S
O104 Co103 2.061 . S
O104 C107 1.235 . S
C105 O108 1.238 . S
C105 O109 1.241 . S
C106 O99 1.247 . S
C106 O100 1.261 . S
C107 O102 1.259 . S
C107 O104 1.235 . S
O108 Co98 2.021 . S
O108 C105 1.238 . S
O109 Co103 2.052 . S
O109 C105 1.241 . S
O110 Co98 2.137 . S
O110 C101 1.247 . S
O111 Co98 2.244 . S
O111 C101 1.272 . S
O111 Co103 2.135 . S
Co112 O113 2.216 . S
Co112 O114 2.091 . S
Co112 O116 2.004 . S
Co112 O122 2.021 . S
Co112 O124 2.137 . S
Co112 O125 2.244 . S
O113 Co112 2.216 . S
O113 C120 1.247 . S
O114 Co112 2.091 . S
O114 C120 1.261 . S
C115 O124 1.247 . S
C115 O125 1.272 . S
O116 Co112 2.004 . S
O116 C121 1.259 . S
Co117 O118 2.061 1_655 S
Co117 O123 2.052 . S
Co117 O125 2.135 1_655 S
O118 Co117 2.061 1_455 S
O118 C121 1.235 . S
C119 O122 1.238 . S
C119 O123 1.211 1_455 S
C120 O113 1.247 . S
C120 O114 1.261 . S
C121 O116 1.259 . S
C121 O118 1.235 . S
O122 Co112 2.021 . S
O122 C119 1.238 . S
O123 Co117 2.052 . S
O123 C119 1.211 1_655 S
O124 Co112 2.137 . S
O124 C115 1.247 . S
O125 Co112 2.244 . S
O125 C115 1.272 . S
O125 Co117 2.135 1_455 S
Co126 O127 2.216 . S
Co126 O128 2.091 . S
Co126 O130 2.004 . S
Co126 O136 2.021 . S
Co126 O138 2.137 . S
Co126 O139 2.244 . S
O127 Co126 2.216 . S
O127 C134 1.247 . S
O128 Co126 2.091 . S
O128 C134 1.261 . S
C129 O138 1.247 . S
C129 O139 1.272 . S
O130 Co126 2.004 . S
O130 C135 1.259 . S
Co131 O132 2.061 1_565 S
Co131 O137 2.075 . S
Co131 O139 2.135 1_565 S
O132 Co131 2.061 1_545 S
O132 C135 1.235 . S
C133 O136 1.238 . S
C133 O137 1.207 1_545 S
C134 O127 1.247 . S
C134 O128 1.261 . S
C135 O130 1.259 . S
C135 O132 1.235 . S
O136 Co126 2.021 . S
O136 C133 1.238 . S
O137 Co131 2.075 . S
O137 C133 1.207 1_565 S
O138 Co126 2.137 . S
O138 C129 1.247 . S
O139 Co126 2.244 . S
O139 C129 1.272 . S
O139 Co131 2.135 1_545 S
Co140 O141 2.216 . S
Co140 O142 2.091 . S
Co140 O144 2.004 . S
Co140 O150 2.021 . S
Co140 O152 2.137 . S
Co140 O153 2.244 . S
O141 Co140 2.216 . S
O141 C148 1.247 . S
O142 Co140 2.091 . S
O142 C148 1.261 . S
C143 O152 1.247 . S
C143 O153 1.272 . S
O144 Co140 2.004 . S
O144 C149 1.259 . S
Co145 O146 2.061 . S
Co145 O151 2.052 . S
Co145 O153 2.135 . S
O146 Co145 2.061 . S
O146 C149 1.235 . S
C147 O150 1.238 . S
C147 O151 1.241 . S
C148 O141 1.247 . S
C148 O142 1.261 . S
C149 O144 1.259 . S
C149 O146 1.235 . S
O150 Co140 2.021 . S
O150 C147 1.238 . S
O151 Co145 2.052 . S
O151 C147 1.241 . S
O152 Co140 2.137 . S
O152 C143 1.247 . S
O153 Co140 2.244 . S
O153 C143 1.272 . S
O153 Co145 2.135 . S
Co154 O155 2.216 . S
Co154 O156 2.091 . S
Co154 O158 2.004 . S
Co154 O164 2.021 . S
Co154 O166 2.137 . S
Co154 O167 2.244 . S
O155 Co154 2.216 . S
O155 C162 1.247 . S
O156 Co154 2.091 . S
O156 C162 1.261 . S
C157 O166 1.247 . S
C157 O167 1.272 . S
O158 Co154 2.004 . S
O158 C163 1.259 . S
Co159 O160 2.061 1_455 S
Co159 O165 2.052 . S
Co159 O167 2.135 1_455 S
O160 Co159 2.061 1_655 S
O160 C163 1.235 . S
C161 O164 1.238 . S
C161 O165 1.211 1_655 S
C162 O155 1.247 . S
C162 O156 1.261 . S
C163 O158 1.259 . S
C163 O160 1.235 . S
O164 Co154 2.021 . S
O164 C161 1.238 . S
O165 Co159 2.052 . S
O165 C161 1.211 1_455 S
O166 Co154 2.137 . S
O166 C157 1.247 . S
O167 Co154 2.244 . S
O167 C157 1.272 . S
O167 Co159 2.135 1_655 S
H168 C174 0.930 . S
H169 C178 0.930 . S
H170 C183 0.929 . S
H171 C181 0.929 . S
H172 C176 0.929 . S
H173 C182 0.929 . S
C174 H168 0.930 . S
C174 C175 1.367 . S
C174 C182 1.378 . S
C175 C174 1.367 . S
C175 C183 1.433 1_455 S
C176 H172 0.929 . S
C176 C178 1.378 . S
C176 C180 1.350 . S
C177 C180 1.463 1_454 S
C177 C182 1.350 . S
C177 N185 1.427 1_455 S
C178 H169 0.930 . S
C178 C176 1.378 . S
C178 C179 1.367 . S
C179 C178 1.367 . S
C179 C181 1.433 1_655 S
C180 C176 1.350 . S
C180 C177 1.463 1_656 S
C180 N184 1.427 1_655 S
C181 H171 0.929 . S
C181 C179 1.433 1_455 S
C181 N184 1.384 . S
C182 H173 0.929 . S
C182 C174 1.378 . S
C182 C177 1.350 . S
C183 H170 0.929 . S
C183 C175 1.433 1_655 S
C183 N185 1.384 . S
N184 C180 1.427 1_455 S
N184 C181 1.384 . S
N185 C177 1.427 1_655 S
N185 C183 1.384 . S
H186 C192 0.930 . S
H187 C196 0.930 . S
H188 C201 0.929 . S
H189 C199 0.929 . S
H190 C194 0.929 . S
H191 C200 0.929 . S
C192 H186 0.930 . S
C192 C193 1.367 1_545 S
C192 C200 1.378 . S
C193 C192 1.367 1_565 S
C193 C201 1.433 . S
C194 H190 0.929 . S
C194 C196 1.378 . S
C194 C198 1.350 1_565 S
C195 C198 1.463 1_565 S
C195 C200 1.350 1_565 S
C195 N203 1.427 . S
C196 H187 0.930 . S
C196 C194 1.378 . S
C196 C197 1.367 1_565 S
C197 C196 1.367 1_545 S
C197 C199 1.433 . S
C198 C194 1.350 1_545 S
C198 C195 1.463 1_545 S
C198 N202 1.427 . S
C199 H189 0.929 . S
C199 C197 1.433 . S
C199 N202 1.384 . S
C200 H191 0.929 . S
C200 C192 1.378 . S
C200 C195 1.350 1_545 S
C201 H188 0.929 . S
C201 C193 1.433 . S
C201 N203 1.384 . S
N202 C198 1.427 . S
N202 C199 1.384 . S
N203 C195 1.427 . S
N203 C201 1.384 . S
H204 C210 0.930 . S
H205 C214 0.930 . S
H206 C219 0.929 . S
H207 C217 0.929 . S
H208 C212 0.929 . S
H209 C218 0.929 . S
C210 H204 0.930 . S
C210 C211 1.367 . S
C210 C218 1.378 . S
C211 C210 1.367 . S
C211 C219 1.433 . S
C212 H208 0.929 . S
C212 C214 1.378 . S
C212 C216 1.350 . S
C213 C216 1.463 1_554 S
C213 C218 1.350 . S
C213 N221 1.427 . S
C214 H205 0.930 . S
C214 C212 1.378 . S
C214 C215 1.367 . S
C215 C214 1.367 . S
C215 C217 1.433 . S
C216 C212 1.350 . S
C216 C213 1.463 1_556 S
C216 N220 1.427 . S
C217 H207 0.929 . S
C217 C215 1.433 . S
C217 N220 1.384 . S
C218 H209 0.929 . S
C218 C210 1.378 . S
C218 C213 1.350 . S
C219 H206 0.929 . S
C219 C211 1.433 . S
C219 N221 1.384 . S
N220 C216 1.427 . S
N220 C217 1.384 . S
N221 C213 1.427 . S
N221 C219 1.384 . S
H222 C228 0.930 . S
H223 C232 0.930 . S
H224 C237 0.929 . S
H225 C235 0.929 . S
H226 C230 0.929 . S
H227 C236 0.929 . S
C228 H222 0.930 . S
C228 C229 1.367 1_655 S
C228 C236 1.378 . S
C229 C228 1.367 1_455 S
C229 C237 1.433 . S
C230 H226 0.929 . S
C230 C232 1.378 . S
C230 C234 1.350 1_455 S
C231 C234 1.463 1_455 S
C231 C236 1.350 1_455 S
C231 N239 1.427 . S
C232 H223 0.930 . S
C232 C230 1.378 . S
C232 C233 1.367 1_455 S
C233 C232 1.367 1_655 S
C233 C235 1.433 . S
C234 C230 1.350 1_655 S
C234 C231 1.463 1_655 S
C234 N238 1.427 . S
C235 H225 0.929 . S
C235 C233 1.433 . S
C235 N238 1.384 . S
C236 H227 0.929 . S
C236 C228 1.378 . S
C236 C231 1.350 1_655 S
C237 H224 0.929 . S
C237 C229 1.433 . S
C237 N239 1.384 . S
N238 C234 1.427 . S
N238 C235 1.384 . S
N239 C231 1.427 . S
N239 C237 1.384 . S
H240 C246 0.930 . S
H241 C250 0.930 . S
H242 C255 0.929 . S
H243 C253 0.929 . S
H244 C248 0.929 . S
H245 C254 0.929 . S
C246 H240 0.930 . S
C246 C247 1.367 1_565 S
C246 C254 1.378 . S
C247 C246 1.367 1_545 S
C247 C255 1.433 . S
C248 H244 0.929 . S
C248 C250 1.378 . S
C248 C252 1.350 1_545 S
C249 C252 1.463 1_546 S
C249 C254 1.350 1_545 S
C249 N257 1.427 . S
C250 H241 0.930 . S
C250 C248 1.378 . S
C250 C251 1.367 1_545 S
C251 C250 1.367 1_565 S
C251 C253 1.433 . S
C252 C248 1.350 1_565 S
C252 C249 1.463 1_564 S
C252 N256 1.427 . S
C253 H243 0.929 . S
C253 C251 1.433 . S
C253 N256 1.384 . S
C254 H245 0.929 . S
C254 C246 1.378 . S
C254 C249 1.350 1_565 S
C255 H242 0.929 . S
C255 C247 1.433 . S
C255 N257 1.384 . S
N256 C252 1.427 . S
N256 C253 1.384 . S
N257 C249 1.427 . S
N257 C255 1.384 . S
H258 C264 0.930 . S
H259 C268 0.930 . S
H260 C273 0.929 . S
H261 C271 0.929 . S
H262 C266 0.929 . S
H263 C272 0.929 . S
C264 H258 0.930 . S
C264 C265 1.367 . S
C264 C272 1.378 . S
C265 C264 1.367 . S
C265 C273 1.433 . S
C266 H262 0.929 . S
C266 C268 1.378 . S
C266 C270 1.350 . S
C267 C270 1.463 . S
C267 C272 1.350 . S
C267 N275 1.427 . S
C268 H259 0.930 . S
C268 C266 1.378 . S
C268 C269 1.367 . S
C269 C268 1.367 . S
C269 C271 1.433 . S
C270 C266 1.350 . S
C270 C267 1.463 . S
C270 N274 1.427 . S
C271 H261 0.929 . S
C271 C269 1.433 . S
C271 N274 1.384 . S
C272 H263 0.929 . S
C272 C264 1.378 . S
C272 C267 1.350 . S
C273 H260 0.929 . S
C273 C265 1.433 . S
C273 N275 1.384 . S
N274 C270 1.427 . S
N274 C271 1.384 . S
N275 C267 1.427 . S
N275 C273 1.384 . S
H276 C282 0.935 1_455 S
H277 C286 0.935 1_655 S
H278 C291 0.929 . S
H279 C289 0.929 . S
H280 C284 0.929 . S
H281 C290 0.929 . S
C282 H276 0.935 1_655 S
C282 C283 1.372 . S
C282 C290 1.370 1_655 S
C283 C282 1.372 . S
C283 C291 1.433 . S
C284 H280 0.929 . S
C284 C286 1.370 1_655 S
C284 C288 1.350 1_655 S
C285 C288 1.463 1_656 S
C285 C290 1.350 1_655 S
C285 N293 1.427 . S
C286 H277 0.935 1_455 S
C286 C284 1.370 1_455 S
C286 C287 1.372 . S
C287 C286 1.372 . S
C287 C289 1.433 . S
C288 C284 1.350 1_455 S
C288 C285 1.463 1_454 S
C288 N292 1.427 . S
C289 H279 0.929 . S
C289 C287 1.433 . S
C289 N292 1.384 . S
C290 H281 0.929 . S
C290 C282 1.370 1_455 S
C290 C285 1.350 1_455 S
C291 H278 0.929 . S
C291 C283 1.433 . S
C291 N293 1.384 . S
N292 C288 1.427 . S
N292 C289 1.384 . S
N293 C285 1.427 . S
N293 C291 1.384 . S
H294 C300 0.930 . S
H295 C304 0.930 . S
H296 C309 0.929 . S
H297 C307 0.929 . S
H298 C302 0.929 . S
H299 C308 0.929 . S
C300 H294 0.930 . S
C300 C301 1.367 . S
C300 C308 1.378 . S
C301 C300 1.367 . S
C301 C309 1.433 1_565 S
C302 H298 0.929 . S
C302 C304 1.378 . S
C302 C306 1.350 . S
C303 C306 1.463 1_565 S
C303 C308 1.350 . S
C303 N311 1.427 1_565 S
C304 H295 0.930 . S
C304 C302 1.378 . S
C304 C305 1.367 . S
C305 C304 1.367 . S
C305 C307 1.433 1_545 S
C306 C302 1.350 . S
C306 C303 1.463 1_545 S
C306 N310 1.427 1_545 S
C307 H297 0.929 . S
C307 C305 1.433 1_565 S
C307 N310 1.384 . S
C308 H299 0.929 . S
C308 C300 1.378 . S
C308 C303 1.350 . S
C309 H296 0.929 . S
C309 C301 1.433 1_545 S
C309 N311 1.384 . S
N310 C306 1.427 1_565 S
N310 C307 1.384 . S
N311 C303 1.427 1_545 S
N311 C309 1.384 . S
H312 C318 0.930 . S
H313 C322 0.930 . S
H314 C327 0.929 . S
H315 C325 0.929 . S
H316 C320 0.929 . S
H317 C326 0.929 . S
C318 H312 0.930 . S
C318 C319 1.367 . S
C318 C326 1.378 . S
C319 C318 1.367 . S
C319 C327 1.433 . S
C320 H316 0.929 . S
C320 C322 1.378 . S
C320 C324 1.350 . S
C321 C324 1.463 1_556 S
C321 C326 1.350 . S
C321 N329 1.427 . S
C322 H313 0.930 . S
C322 C320 1.378 . S
C322 C323 1.367 . S
C323 C322 1.367 . S
C323 C325 1.433 . S
C324 C320 1.350 . S
C324 C321 1.463 1_554 S
C324 N328 1.427 . S
C325 H315 0.929 . S
C325 C323 1.433 . S
C325 N328 1.384 . S
C326 H317 0.929 . S
C326 C318 1.378 . S
C326 C321 1.350 . S
C327 H314 0.929 . S
C327 C319 1.433 . S
C327 N329 1.384 . S
N328 C324 1.427 . S
N328 C325 1.384 . S
N329 C321 1.427 . S
N329 C327 1.384 . S
H330 C336 0.930 . S
H331 C340 0.930 . S
H332 C345 0.929 . S
H333 C343 0.929 . S
H334 C338 0.929 . S
H335 C344 0.929 . S
C336 H330 0.930 . S
C336 C337 1.367 . S
C336 C344 1.378 . S
C337 C336 1.367 . S
C337 C345 1.433 1_655 S
C338 H334 0.929 . S
C338 C340 1.378 . S
C338 C342 1.350 . S
C339 C342 1.463 1_655 S
C339 C344 1.350 . S
C339 N347 1.427 1_655 S
C340 H331 0.930 . S
C340 C338 1.378 . S
C340 C341 1.367 . S
C341 C340 1.367 . S
C341 C343 1.433 1_455 S
C342 C338 1.350 . S
C342 C339 1.463 1_455 S
C342 N346 1.427 1_455 S
C343 H333 0.929 . S
C343 C341 1.433 1_655 S
C343 N346 1.384 . S
C344 H335 0.929 . S
C344 C336 1.378 . S
C344 C339 1.350 . S
C345 H332 0.929 . S
C345 C337 1.433 1_455 S
C345 N347 1.384 . S
N346 C342 1.427 1_655 S
N346 C343 1.384 . S
N347 C339 1.427 1_455 S
N347 C345 1.384 . S
H348 C354 0.930 . S
H349 C358 0.930 . S
H350 C363 0.929 . S
H351 C361 0.929 . S
H352 C356 0.929 . S
H353 C362 0.929 . S
C354 H348 0.930 . S
C354 C355 1.367 . S
C354 C362 1.378 . S
C355 C354 1.367 . S
C355 C363 1.433 1_545 S
C356 H352 0.929 . S
C356 C358 1.378 . S
C356 C360 1.350 . S
C357 C360 1.463 1_546 S
C357 C362 1.350 . S
C357 N365 1.427 1_545 S
C358 H349 0.930 . S
C358 C356 1.378 . S
C358 C359 1.367 . S
C359 C358 1.367 . S
C359 C361 1.433 1_565 S
C360 C356 1.350 . S
C360 C357 1.463 1_564 S
C360 N364 1.427 1_565 S
C361 H351 0.929 . S
C361 C359 1.433 1_545 S
C361 N364 1.384 . S
C362 H353 0.929 . S
C362 C354 1.378 . S
C362 C357 1.350 . S
C363 H350 0.929 . S
C363 C355 1.433 1_565 S
C363 N365 1.384 . S
N364 C360 1.427 1_545 S
N364 C361 1.384 . S
N365 C357 1.427 1_565 S
N365 C363 1.384 . S
H366 C372 0.930 . S
H367 C376 0.930 . S
H368 C381 0.929 . S
H369 C379 0.929 . S
H370 C374 0.929 . S
H371 C380 0.929 . S
C372 H366 0.930 . S
C372 C373 1.367 . S
C372 C380 1.378 . S
C373 C372 1.367 . S
C373 C381 1.433 . S
C374 H370 0.929 . S
C374 C376 1.378 . S
C374 C378 1.350 . S
C375 C378 1.463 . S
C375 C380 1.350 . S
C375 N383 1.427 . S
C376 H367 0.930 . S
C376 C374 1.378 . S
C376 C377 1.367 . S
C377 C376 1.367 . S
C377 C379 1.433 . S
C378 C374 1.350 . S
C378 C375 1.463 . S
C378 N382 1.427 . S
C379 H369 0.929 . S
C379 C377 1.433 . S
C379 N382 1.384 . S
C380 H371 0.929 . S
C380 C372 1.378 . S
C380 C375 1.350 . S
C381 H368 0.929 . S
C381 C373 1.433 . S
C381 N383 1.384 . S
N382 C378 1.427 . S
N382 C379 1.384 . S
N383 C375 1.427 . S
N383 C381 1.384 . S
H384 C390 0.930 . S
H385 C394 0.930 . S
H386 C399 0.929 . S
H387 C397 0.929 . S
H388 C392 0.929 . S
H389 C398 0.929 . S
C390 H384 0.930 . S
C390 C391 1.367 . S
C390 C398 1.378 . S
C391 C390 1.367 . S
C391 C399 1.433 . S
C392 H388 0.929 . S
C392 C394 1.378 . S
C392 C396 1.350 . S
C393 C396 1.463 . S
C393 C398 1.350 . S
C393 N401 1.427 . S
C394 H385 0.930 . S
C394 C392 1.378 . S
C394 C395 1.367 . S
C395 C394 1.367 . S
C395 C397 1.433 . S
C396 C392 1.350 . S
C396 C393 1.463 . S
C396 N400 1.427 . S
C397 H387 0.929 . S
C397 C395 1.433 . S
C397 N400 1.384 . S
C398 H389 0.929 . S
C398 C390 1.378 . S
C398 C393 1.350 . S
C399 H386 0.929 . S
C399 C391 1.433 . S
C399 N401 1.384 . S
N400 C396 1.427 . S
N400 C397 1.384 . S
N401 C393 1.427 . S
N401 C399 1.384 . S
H402 C408 0.930 . S
H403 C412 0.930 . S
H404 C417 0.929 . S
H405 C415 0.929 . S
H406 C410 0.929 . S
H407 C416 0.929 . S
C408 H402 0.930 . S
C408 C409 1.367 . S
C408 C416 1.378 . S
C409 C408 1.367 . S
C409 C417 1.433 . S
C410 H406 0.929 . S
C410 C412 1.378 . S
C410 C414 1.350 . S
C411 C414 1.463 . S
C411 C416 1.350 . S
C411 N419 1.427 . S
C412 H403 0.930 . S
C412 C410 1.378 . S
C412 C413 1.367 . S
C413 C412 1.367 . S
C413 C415 1.433 . S
C414 C410 1.350 . S
C414 C411 1.463 . S
C414 N418 1.427 . S
C415 H405 0.929 . S
C415 C413 1.433 . S
C415 N418 1.384 . S
C416 H407 0.929 . S
C416 C408 1.378 . S
C416 C411 1.350 . S
C417 H404 0.929 . S
C417 C409 1.433 . S
C417 N419 1.384 . S
N418 C414 1.427 . S
N418 C415 1.384 . S
N419 C411 1.427 . S
N419 C417 1.384 . S
H420 C426 0.930 . S
H421 C430 0.930 . S
H422 C435 0.929 . S
H423 C433 0.929 . S
H424 C428 0.929 . S
H425 C434 0.929 . S
C426 H420 0.930 . S
C426 C427 1.367 . S
C426 C434 1.378 . S
C427 C426 1.367 . S
C427 C435 1.433 . S
C428 H424 0.929 . S
C428 C430 1.378 . S
C428 C432 1.350 . S
C429 C432 1.463 . S
C429 C434 1.350 . S
C429 N437 1.427 . S
C430 H421 0.930 . S
C430 C428 1.378 . S
C430 C431 1.367 . S
C431 C430 1.367 . S
C431 C433 1.433 . S
C432 C428 1.350 . S
C432 C429 1.463 . S
C432 N436 1.427 . S
C433 H423 0.929 . S
C433 C431 1.433 . S
C433 N436 1.384 . S
C434 H425 0.929 . S
C434 C426 1.378 . S
C434 C429 1.350 . S
C435 H422 0.929 . S
C435 C427 1.433 . S
C435 N437 1.384 . S
N436 C432 1.427 . S
N436 C433 1.384 . S
N437 C429 1.427 . S
N437 C435 1.384 . S
H438 C444 0.930 . S
H439 C448 0.930 . S
H440 C453 0.929 . S
H441 C451 0.929 . S
H442 C446 0.929 . S
H443 C452 0.929 . S
C444 H438 0.930 . S
C444 C445 1.367 . S
C444 C452 1.378 . S
C445 C444 1.367 . S
C445 C453 1.433 . S
C446 H442 0.929 . S
C446 C448 1.378 . S
C446 C450 1.350 . S
C447 C450 1.463 . S
C447 C452 1.350 . S
C447 N455 1.427 . S
C448 H439 0.930 . S
C448 C446 1.378 . S
C448 C449 1.367 . S
C449 C448 1.367 . S
C449 C451 1.433 . S
C450 C446 1.350 . S
C450 C447 1.463 . S
C450 N454 1.427 . S
C451 H441 0.929 . S
C451 C449 1.433 . S
C451 N454 1.384 . S
C452 H443 0.929 . S
C452 C444 1.378 . S
C452 C447 1.350 . S
C453 H440 0.929 . S
C453 C445 1.433 . S
C453 N455 1.384 . S
N454 C450 1.427 . S
N454 C451 1.384 . S
N455 C447 1.427 . S
N455 C453 1.384 . S
H456 C462 0.930 . S
H457 C466 0.930 . S
H458 C471 0.929 . S
H459 C469 0.929 . S
H460 C464 0.929 . S
H461 C470 0.929 . S
C462 H456 0.930 . S
C462 C463 1.367 . S
C462 C470 1.378 . S
C463 C462 1.367 . S
C463 C471 1.433 . S
C464 H460 0.929 . S
C464 C466 1.378 . S
C464 C468 1.350 . S
C465 C468 1.463 . S
C465 C470 1.350 . S
C465 N473 1.427 . S
C466 H457 0.930 . S
C466 C464 1.378 . S
C466 C467 1.367 . S
C467 C466 1.367 . S
C467 C469 1.433 . S
C468 C464 1.350 . S
C468 C465 1.463 . S
C468 N472 1.427 . S
C469 H459 0.929 . S
C469 C467 1.433 . S
C469 N472 1.384 . S
C470 H461 0.929 . S
C470 C462 1.378 . S
C470 C465 1.350 . S
C471 H458 0.929 . S
C471 C463 1.433 . S
C471 N473 1.384 . S
N472 C468 1.427 . S
N472 C469 1.384 . S
N473 C465 1.427 . S
N473 C471 1.384 . S
H474 C480 0.930 . S
H475 C484 0.930 . S
H476 C489 0.929 . S
H477 C487 0.929 . S
H478 C482 0.929 . S
H479 C488 0.929 . S
C480 H474 0.930 . S
C480 C481 1.367 . S
C480 C488 1.378 . S
C481 C480 1.367 . S
C481 C489 1.433 . S
C482 H478 0.929 . S
C482 C484 1.378 . S
C482 C486 1.350 . S
C483 C486 1.463 . S
C483 C488 1.350 . S
C483 N491 1.427 . S
C484 H475 0.930 . S
C484 C482 1.378 . S
C484 C485 1.367 . S
C485 C484 1.367 . S
C485 C487 1.433 . S
C486 C482 1.350 . S
C486 C483 1.463 . S
C486 N490 1.427 . S
C487 H477 0.929 . S
C487 C485 1.433 . S
C487 N490 1.384 . S
C488 H479 0.929 . S
C488 C480 1.378 . S
C488 C483 1.350 . S
C489 H476 0.929 . S
C489 C481 1.433 . S
C489 N491 1.384 . S
N490 C486 1.427 . S
N490 C487 1.384 . S
N491 C483 1.427 . S
N491 C489 1.384 . S
H492 C498 0.930 . S
H493 C502 0.930 . S
H494 C507 0.929 . S
H495 C505 0.929 . S
H496 C500 0.929 . S
H497 C506 0.929 . S
C498 H492 0.930 . S
C498 C499 1.367 . S
C498 C506 1.378 . S
C499 C498 1.367 . S
C499 C507 1.433 . S
C500 H496 0.929 . S
C500 C502 1.378 . S
C500 C504 1.350 . S
C501 C504 1.463 . S
C501 C506 1.350 . S
C501 N509 1.427 . S
C502 H493 0.930 . S
C502 C500 1.378 . S
C502 C503 1.367 . S
C503 C502 1.367 . S
C503 C505 1.433 . S
C504 C500 1.350 . S
C504 C501 1.463 . S
C504 N508 1.427 . S
C505 H495 0.929 . S
C505 C503 1.433 . S
C505 N508 1.384 . S
C506 H497 0.929 . S
C506 C498 1.378 . S
C506 C501 1.350 . S
C507 H494 0.929 . S
C507 C499 1.433 . S
C507 N509 1.384 . S
N508 C504 1.427 . S
N508 C505 1.384 . S
N509 C501 1.427 . S
N509 C507 1.384 . S
H510 C516 0.930 . S
H511 C520 0.930 . S
H512 C525 0.929 . S
H513 C523 0.929 . S
H514 C518 0.929 . S
H515 C524 0.929 . S
C516 H510 0.930 . S
C516 C517 1.367 . S
C516 C524 1.378 . S
C517 C516 1.367 . S
C517 C525 1.433 . S
C518 H514 0.929 . S
C518 C520 1.378 . S
C518 C522 1.350 . S
C519 C522 1.463 . S
C519 C524 1.350 . S
C519 N527 1.427 . S
C520 H511 0.930 . S
C520 C518 1.378 . S
C520 C521 1.367 . S
C521 C520 1.367 . S
C521 C523 1.433 . S
C522 C518 1.350 . S
C522 C519 1.463 . S
C522 N526 1.427 . S
C523 H513 0.929 . S
C523 C521 1.433 . S
C523 N526 1.384 . S
C524 H515 0.929 . S
C524 C516 1.378 . S
C524 C519 1.350 . S
C525 H512 0.929 . S
C525 C517 1.433 . S
C525 N527 1.384 . S
N526 C522 1.427 . S
N526 C523 1.384 . S
N527 C519 1.427 . S
N527 C525 1.384 . S
H528 C534 0.930 . S
H529 C538 0.930 . S
H530 C543 0.929 . S
H531 C541 0.929 . S
H532 C536 0.929 . S
H533 C542 0.929 . S
C534 H528 0.930 . S
C534 C535 1.367 . S
C534 C542 1.378 . S
C535 C534 1.367 . S
C535 C543 1.433 . S
C536 H532 0.929 . S
C536 C538 1.378 . S
C536 C540 1.350 . S
C537 C540 1.463 . S
C537 C542 1.350 . S
C537 N545 1.427 . S
C538 H529 0.930 . S
C538 C536 1.378 . S
C538 C539 1.367 . S
C539 C538 1.367 . S
C539 C541 1.433 . S
C540 C536 1.350 . S
C540 C537 1.463 . S
C540 N544 1.427 . S
C541 H531 0.929 . S
C541 C539 1.433 . S
C541 N544 1.384 . S
C542 H533 0.929 . S
C542 C534 1.378 . S
C542 C537 1.350 . S
C543 H530 0.929 . S
C543 C535 1.433 . S
C543 N545 1.384 . S
N544 C540 1.427 . S
N544 C541 1.384 . S
N545 C537 1.427 . S
N545 C543 1.384 . S
H546 C552 0.930 . S
H547 C556 0.930 . S
H548 C561 0.929 . S
H549 C559 0.929 . S
H550 C554 0.929 . S
H551 C560 0.929 . S
C552 H546 0.930 . S
C552 C553 1.367 . S
C552 C560 1.378 . S
C553 C552 1.367 . S
C553 C561 1.433 . S
C554 H550 0.929 . S
C554 C556 1.378 . S
C554 C558 1.350 . S
C555 C558 1.463 . S
C555 C560 1.350 . S
C555 N563 1.427 . S
C556 H547 0.930 . S
C556 C554 1.378 . S
C556 C557 1.367 . S
C557 C556 1.367 . S
C557 C559 1.433 . S
C558 C554 1.350 . S
C558 C555 1.463 . S
C558 N562 1.427 . S
C559 H549 0.929 . S
C559 C557 1.433 . S
C559 N562 1.384 . S
C560 H551 0.929 . S
C560 C552 1.378 . S
C560 C555 1.350 . S
C561 H548 0.929 . S
C561 C553 1.433 . S
C561 N563 1.384 . S
N562 C558 1.427 . S
N562 C559 1.384 . S
N563 C555 1.427 . S
N563 C561 1.384 . S
H564 C570 0.930 . S
H565 C574 0.930 . S
H566 C579 0.929 . S
H567 C577 0.929 . S
H568 C572 0.929 . S
H569 C578 0.929 . S
C570 H564 0.930 . S
C570 C571 1.367 . S
C570 C578 1.378 . S
C571 C570 1.367 . S
C571 C579 1.433 . S
C572 H568 0.929 . S
C572 C574 1.378 . S
C572 C576 1.350 . S
C573 C576 1.463 . S
C573 C578 1.350 . S
C573 N581 1.427 . S
C574 H565 0.930 . S
C574 C572 1.378 . S
C574 C575 1.367 . S
C575 C574 1.367 . S
C575 C577 1.433 . S
C576 C572 1.350 . S
C576 C573 1.463 . S
C576 N580 1.427 . S
C577 H567 0.929 . S
C577 C575 1.433 . S
C577 N580 1.384 . S
C578 H569 0.929 . S
C578 C570 1.378 . S
C578 C573 1.350 . S
C579 H566 0.929 . S
C579 C571 1.433 . S
C579 N581 1.384 . S
N580 C576 1.427 . S
N580 C577 1.384 . S
N581 C573 1.427 . S
N581 C579 1.384 . S
H582 C588 0.930 . S
H583 C592 0.930 . S
H584 C597 0.929 . S
H585 C595 0.929 . S
H586 C590 0.929 . S
H587 C596 0.929 . S
C588 H582 0.930 . S
C588 C589 1.367 . S
C588 C596 1.378 . S
C589 C588 1.367 . S
C589 C597 1.433 . S
C590 H586 0.929 . S
C590 C592 1.378 . S
C590 C594 1.350 . S
C591 C594 1.463 . S
C591 C596 1.350 . S
C591 N599 1.427 . S
C592 H583 0.930 . S
C592 C590 1.378 . S
C592 C593 1.367 . S
C593 C592 1.367 . S
C593 C595 1.433 . S
C594 C590 1.350 . S
C594 C591 1.463 . S
C594 N598 1.427 . S
C595 H585 0.929 . S
C595 C593 1.433 . S
C595 N598 1.384 . S
C596 H587 0.929 . S
C596 C588 1.378 . S
C596 C591 1.350 . S
C597 H584 0.929 . S
C597 C589 1.433 . S
C597 N599 1.384 . S
N598 C594 1.427 . S
N598 C595 1.384 . S
N599 C591 1.427 . S
N599 C597 1.384 . S
C175 C7 1.327 . S
C179 C161 1.328 . S
C193 C91 1.319 . S
C197 C21 1.325 . S
C211 C35 1.326 . S
C215 C105 1.329 . S
C229 C119 1.318 . S
C233 C49 1.327 . S
C247 C133 1.322 . S
C251 C63 1.321 . S
C265 C147 1.326 . S
C269 C77 1.329 . S
C283 C45 1.313 . S
C287 C115 1.308 . S
C301 C59 1.303 . S
C305 C129 1.304 . S
C319 C73 1.310 . S
C323 C143 1.313 . S
C337 C157 1.304 . S
C341 C3 1.302 . S
C355 C17 1.302 . S
C359 C87 1.306 . S
C373 C31 1.313 . S
C377 C101 1.308 . S
C391 C121 1.662 . S
C395 C9 1.662 . S
C409 C135 1.664 . S
C413 C23 1.659 . S
C427 C37 1.663 . S
C431 C149 1.660 . S
C445 C51 1.662 . S
C449 C163 1.660 . S
C463 C65 1.659 . S
C467 C93 1.664 . S
C481 C107 1.659 . S
C485 C79 1.664 . S
C499 C8 1.624 . S
C503 C148 1.626 . S
C517 C162 1.622 . S
C521 C22 1.625 . S
C535 C36 1.623 . S
C539 C92 1.627 . S
C553 C50 1.626 . S
C557 C106 1.625 . S
C571 C64 1.621 . S
C575 C120 1.627 . S
C589 C78 1.623 . S
C593 C134 1.623 . S
