# Generated by pormake.
# Topology sxb, (6)-cn, num edge types: 1
# Building blocks:
#     Node 0, Type 0, BuildingBlock: UKALOJ_clean_sbu_0, # of connection points: 6
#     Node 1, Type 0, BuildingBlock: UKALOJ_clean_sbu_0, # of connection points: 6
#     Node 2, Type 0, BuildingBlock: UKALOJ_clean_sbu_0, # of connection points: 6
#     Node 3, Type 0, BuildingBlock: UKALOJ_clean_sbu_0, # of connection points: 6
#     Edge 4, Type (0, 0), BuildingBlock: ZUJKAS_clean_linker_0, # of connection points: 2
#     Edge 5, Type (0, 0), BuildingBlock: ZUJKAS_clean_linker_0, # of connection points: 2
#     Edge 6, Type (0, 0), BuildingBlock: ZUJKAS_clean_linker_0, # of connection points: 2
#     Edge 7, Type (0, 0), BuildingBlock: ZUJKAS_clean_linker_0, # of connection points: 2
#     Edge 8, Type (0, 0), BuildingBlock: ZUJKAS_clean_linker_0, # of connection points: 2
#     Edge 9, Type (0, 0), BuildingBlock: ZUJKAS_clean_linker_0, # of connection points: 2
#     Edge 10, Type (0, 0), BuildingBlock: ZUJKAS_clean_linker_0, # of connection points: 2
#     Edge 11, Type (0, 0), BuildingBlock: ZUJKAS_clean_linker_0, # of connection points: 2
#     Edge 12, Type (0, 0), BuildingBlock: ZUJKAS_clean_linker_0, # of connection points: 2
#     Edge 13, Type (0, 0), BuildingBlock: ZUJKAS_clean_linker_0, # of connection points: 2
#     Edge 14, Type (0, 0), BuildingBlock: ZUJKAS_clean_linker_0, # of connection points: 2
#     Edge 15, Type (0, 0), BuildingBlock: ZUJKAS_clean_linker_0, # of connection points: 2
# Relax obj value: 0.101
# Max RMSD: 0.145
# Mean RMSD: 0.145
data_MOF--net-sxb--node1-UKALOJ_clean_sbu_0--edge1-ZUJKAS_clean_linker_0
_symmetry_space_group_name_H-M    P1
_symmetry_Int_Tables_number       1
_symmetry_cell_setting            triclinic
loop_
_symmetry_equiv_pos_as_xyz
'x, y, z'
_cell_length_a     18.422003
_cell_length_b     35.192604
_cell_length_c     49.392015
_cell_angle_alpha  98.64013
_cell_angle_beta   89.78596
_cell_angle_gamma 90.053726
loop_
_atom_site_label
_atom_site_type_symbol
_atom_site_fract_x
_atom_site_fract_y
_atom_site_fract_z
_atom_type_partial_charge
Zn0 Zn 0.98033 0.03574 0.05318 0.0
O1 O 0.02878 0.98191 0.05533 0.0
C2 C 0.11933 0.06634 0.03937 0.0
Zn3 Zn -0.00609 0.02821 1.00787 0.0
C4 C 0.05013 0.96159 0.03329 0.0
O5 O 0.04145 0.97405 1.01064 0.0
C6 C 0.9237 0.10227 0.0277 0.0
O7 O 0.8925 0.00199 1.00082 0.0
O8 O 0.88003 0.00865 0.04553 0.0
N9 N 0.01779 0.02027 0.96699 0.0
C10 C 0.97918 0.02318 0.94423 0.0
C11 C 0.08778 0.00874 0.93165 0.0
N12 N 0.08508 0.01116 0.95906 0.0
N13 N 0.02202 0.016 0.92173 0.0
C14 C -0.00773 0.03504 0.11626 0.0
C15 C 0.89462 0.06398 0.13044 0.0
N16 N 0.95718 0.04396 0.09413 0.0
N17 N 0.89657 0.06191 0.10303 0.0
N18 N 0.9539 0.04724 0.13932 0.0
H19 H 0.09652 0.02142 0.09702 0.0
H20 H 0.0581 0.98479 0.11427 0.0
H21 H 0.0969 0.02705 0.13401 0.0
C22 C 0.06541 0.01625 0.11531 0.0
C23 C 0.90088 0.03474 0.94427 0.0
H24 H 0.88386 0.05009 0.96447 0.0
H25 H 0.86695 0.00854 0.93962 0.0
H26 H 0.89086 0.05324 0.92835 0.0
O27 O 0.94686 0.0824 1.00577 0.0
O28 O 0.93126 0.08953 0.05028 0.0
C29 C 0.85501 -0.00249 0.02173 0.0
O30 O 0.08105 0.06269 0.06023 0.0
O31 O 0.09484 0.05461 0.01559 0.0
Zn32 Zn -0.01646 0.03184 0.5532 0.0
O33 O 0.88192 0.05815 0.55871 0.0
C34 C 0.9158 0.9576 0.53273 0.0
Zn35 Zn 0.97379 0.02479 0.50781 0.0
C36 C 0.84577 0.06244 0.53756 0.0
O37 O 0.87234 0.05123 0.51395 0.0
C38 C 0.11164 0.99432 0.5235 0.0
O39 O 0.02218 0.07885 0.50586 0.0
O40 O 0.03221 0.08588 0.55058 0.0
N41 N 0.95473 0.01561 0.46665 0.0
C42 C -0.00874 0.02416 0.44463 0.0
C43 C 0.89561 0.99374 0.43001 0.0
N44 N 0.89536 -0.00323 0.45748 0.0
N45 N 0.95509 0.01076 0.42136 0.0
C46 C 0.965 0.03087 0.61601 0.0
C47 C 0.05866 0.0622 0.63173 0.0
N48 N 0.00172 0.04083 0.59446 0.0
N49 N 0.05981 0.06029 0.60431 0.0
N50 N -0.00014 0.04385 0.63962 0.0
H51 H 0.86299 0.01599 0.59573 0.0
H52 H 0.86012 0.0195 0.63262 0.0
H53 H 0.90316 0.97904 0.61221 0.0
C54 C 0.89341 0.0104 0.61401 0.0
C55 C 0.06368 0.04377 0.44593 0.0
H56 H 0.05524 0.07511 0.44669 0.0
H57 H 0.09667 0.0331 0.42752 0.0
H58 H 0.0937 0.03919 0.46454 0.0
O59 O 0.07545 -0.00153 0.50232 0.0
O60 O 0.08498 0.00551 0.5471 0.0
C61 C 0.04267 0.09872 0.52816 0.0
O62 O 0.93568 0.9776 0.55505 0.0
O63 O 0.92556 0.97067 0.51037 0.0
Zn64 Zn 0.46359 0.52885 0.05225 0.0
O65 O 0.51139 0.47417 0.05127 0.0
C66 C 0.60311 0.56097 0.04164 0.0
Zn67 Zn 0.47894 0.52597 1.00716 0.0
C68 C 0.5345 0.45616 0.02863 0.0
O69 O 0.52715 0.47112 1.00689 0.0
C70 C 0.40843 0.59869 0.03085 0.0
O71 O 0.37814 0.5001 0.99757 0.0
O72 O 0.36341 0.50274 0.04191 0.0
N73 N 0.50483 0.52367 0.96659 0.0
C74 C 0.46593 0.52834 0.94421 0.0
C75 C 0.57573 0.51826 0.93137 0.0
N76 N 0.57293 0.51735 0.9585 0.0
N77 N 0.50927 0.52495 0.92182 0.0
C78 C 0.47419 0.52856 0.11564 0.0
C79 C 0.36308 0.53692 0.12722 0.0
N80 N 0.43637 0.53142 0.09269 0.0
N81 N 0.36744 0.53665 0.1 0.0
N82 N 0.42932 0.53206 0.13761 0.0
H83 H 0.56686 0.50354 0.13285 0.0
H84 H 0.58387 0.54798 0.12001 0.0
H85 H 0.57241 0.50435 0.09635 0.0
C86 C 0.55389 0.52035 0.1162 0.0
C87 C 0.38673 0.53812 0.9446 0.0
H88 H 0.36924 0.55237 0.96507 0.0
H89 H 0.35498 0.51123 0.93947 0.0
H90 H 0.37453 0.55711 0.92919 0.0
O91 O 0.43147 0.58064 1.00825 0.0
O92 O 0.41552 0.58371 0.05257 0.0
C93 C 0.33942 0.49384 0.01773 0.0
O94 O 0.56441 0.55474 0.06184 0.0
O95 O 0.57916 0.55202 0.01744 0.0
Zn96 Zn 0.52838 0.51852 0.55126 0.0
O97 O 0.42667 0.54497 0.55385 0.0
C98 C 0.45956 0.44454 0.53015 0.0
Zn99 Zn 0.52447 0.51024 0.50565 0.0
C100 C 0.39365 0.54887 0.53189 0.0
O101 O 0.42316 0.53709 0.50885 0.0
C102 C 0.65935 0.47993 0.52493 0.0
O103 O 0.57609 0.56373 0.50438 0.0
O104 O 0.57821 0.57234 0.54932 0.0
N105 N 0.51677 0.49908 0.4639 0.0
C106 C 0.50716 0.52121 0.44414 0.0
C107 C 0.51378 0.46307 0.42451 0.0
N108 N 0.52089 0.46302 0.45161 0.0
N109 N 0.50538 0.49923 0.41923 0.0
C110 C 0.49677 0.52438 0.61433 0.0
C111 C 0.60212 0.53915 0.63031 0.0
N112 N 0.54072 0.52773 0.59288 0.0
N113 N 0.60591 0.53712 0.60294 0.0
N114 N 0.53422 0.53138 0.63807 0.0
H115 H 0.40528 0.4989 0.59085 0.0
H116 H 0.38396 0.53828 0.61707 0.0
H117 H 0.40591 0.49232 0.62653 0.0
C118 C 0.41867 0.51246 0.6119 0.0
C119 C 0.49552 0.5638 0.44943 0.0
H120 H 0.47111 0.57272 0.46992 0.0
H121 H 0.45988 0.57302 0.43356 0.0
H122 H 0.54869 0.57842 0.4487 0.0
O123 O 0.6259 0.4835 0.50305 0.0
O124 O 0.63004 0.49197 0.54789 0.0
C125 C 0.59248 0.58444 0.52689 0.0
O126 O 0.47871 0.4646 0.55254 0.0
O127 O 0.47267 0.45687 0.50773 0.0
H128 H 0.35849 0.64632 0.07595 0.0
H129 H 0.29561 0.70779 0.07716 0.0
H130 H 0.31345 0.69771 0.9893 0.0
H131 H 0.37592 0.63615 0.9878 0.0
H132 H 0.3464 0.77548 0.05705 0.0
H133 H 0.0944 0.71658 1.00525 0.0
H134 H 0.15865 0.68698 0.02009 0.0
H135 H 0.17713 0.70157 0.98742 0.0
C136 C 0.34904 0.65715 0.05687 0.0
C137 C 0.37207 0.63631 0.03176 0.0
C138 C 0.31316 0.69226 0.05762 0.0
C139 C 0.29915 0.70694 0.0333 0.0
C140 C 0.32276 0.68649 1.00825 0.0
H141 H 0.10083 0.91125 0.98982 0.0
H142 H 0.16157 0.84976 0.99084 0.0
C143 C 0.35882 0.65145 1.00746 0.0
C144 C 0.26075 0.74398 0.03412 0.0
H145 H 0.10746 0.78447 1.01238 0.0
C146 C 0.29395 0.77751 0.04746 0.0
C147 C 0.19239 0.74635 0.02157 0.0
C148 C 0.15306 0.71096 1.00797 0.0
C149 C 0.2613 0.81363 0.04798 0.0
C150 C 0.19321 0.81604 0.03522 0.0
C151 C 0.15975 0.78245 0.02209 0.0
C152 C 0.15624 0.85325 0.0349 0.0
C153 C 0.30073 0.84903 0.06151 0.0
C154 C 0.13241 0.8753 0.05934 0.0
C155 C 0.09758 0.91046 0.05886 0.0
C156 C 0.08578 0.92408 0.03389 0.0
C157 C 0.10912 0.90164 1.00941 0.0
C158 C 0.1438 0.8665 1.00993 0.0
H159 H 0.35902 0.84319 0.06485 0.0
H160 H 0.29666 0.87262 0.04897 0.0
H161 H 0.27549 0.8591 0.08175 0.0
H162 H 0.14046 0.86522 0.07878 0.0
H163 H 0.08 0.92692 0.07805 0.0
H164 H 0.59322 0.41114 0.98396 0.0
H165 H 0.65754 0.35012 0.98275 0.0
H166 H 0.62592 0.3559 0.06982 0.0
H167 H 0.56094 0.41671 0.07125 0.0
H168 H 0.78401 0.33633 1.01139 0.0
H169 H 0.55354 0.2477 0.03895 0.0
H170 H 0.54087 0.29372 0.02767 0.0
H171 H 0.56754 0.29132 0.06234 0.0
C172 C 0.59939 0.3993 1.00284 0.0
C173 C 0.57152 0.41868 0.02769 0.0
C174 C 0.63628 0.36448 1.00209 0.0
C175 C 0.64556 0.34827 0.02611 0.0
C176 C 0.61804 0.36755 0.05095 0.0
H177 H 0.86393 0.15009 0.07065 0.0
H178 H 0.79825 0.21006 0.06929 0.0
C179 C 0.58119 0.40239 0.05174 0.0
C180 C 0.68614 0.31183 0.02535 0.0
H181 H 0.67101 0.21982 0.03885 0.0
C182 C 0.75927 0.31074 0.01719 0.0
C183 C 0.65358 0.27857 0.03296 0.0
C184 C 0.57438 0.27761 0.04074 0.0
C185 C 0.80133 0.27747 0.01709 0.0
C186 C 0.76894 0.24435 0.02497 0.0
C187 C 0.69565 0.24534 0.03289 0.0
C188 C 0.8104 0.20849 0.02557 0.0
C189 C 0.8805 0.27831 1.00925 0.0
C190 C 0.83863 0.18767 1.00137 0.0
C191 C 0.87629 0.15335 1.00204 0.0
C192 C 0.88611 0.13923 0.02696 0.0
C193 C 0.85766 0.16023 0.05114 0.0
C194 C 0.81996 0.19446 0.05042 0.0
H195 H 0.9008 0.30816 1.00978 0.0
H196 H 0.91421 0.26367 0.02316 0.0
H197 H 0.88776 0.26288 0.98812 0.0
H198 H 0.83068 0.19771 0.98191 0.0
H199 H 0.89703 0.13772 0.98302 0.0
H200 H 0.09545 0.14679 0.57225 0.0
H201 H 0.16428 0.20612 0.57218 0.0
H202 H 0.14793 0.19324 0.48421 0.0
H203 H 0.07822 0.13397 0.48404 0.0
H204 H 0.29697 0.21386 0.54558 0.0
H205 H 0.08293 0.30477 0.50899 0.0
H206 H 0.06265 0.26063 0.52199 0.0
H207 H 0.09703 0.25925 0.48776 0.0
C208 C 0.1058 0.15671 0.55287 0.0
C209 C 0.08111 0.13567 0.52813 0.0
C210 C 0.14529 0.1906 0.55289 0.0
C211 C 0.1605 0.20427 0.52824 0.0
C212 C 0.13562 0.18354 0.50351 0.0
H213 H 0.40778 0.39643 0.48586 0.0
H214 H 0.3374 0.33752 0.48576 0.0
C215 C 0.09607 0.14958 0.50344 0.0
C216 C 0.20501 0.23937 0.52841 0.0
H217 H 0.20228 0.33033 0.51226 0.0
C218 C 0.27624 0.23941 0.53842 0.0
C219 C 0.17773 0.27256 0.519 0.0
C220 C 0.10071 0.27462 0.50904 0.0
C221 C 0.32142 0.27163 0.53888 0.0
C222 C 0.29415 0.30481 0.52947 0.0
C223 C 0.22296 0.30477 0.51944 0.0
C224 C 0.3387 0.3399 0.52976 0.0
C225 C 0.39841 0.26964 0.5489 0.0
C226 C 0.36251 0.3608 0.55459 0.0
C227 C 0.40281 0.39453 0.55476 0.0
C228 C 0.41977 0.40797 0.53007 0.0
C229 C 0.39595 0.38682 0.50524 0.0
C230 C 0.35557 0.35319 0.50512 0.0
H231 H 0.41608 0.23952 0.54918 0.0
H232 H 0.43652 0.28337 0.53583 0.0
H233 H 0.40209 0.28532 0.57009 0.0
H234 H 0.34894 0.35134 0.57387 0.0
H235 H 0.41986 0.41029 0.57424 0.0
H236 H 0.87083 0.90755 0.48829 0.0
H237 H 0.81514 0.84441 0.48777 0.0
H238 H 0.82875 0.85769 0.57581 0.0
H239 H 0.88426 0.92107 0.57661 0.0
H240 H 0.87467 0.78007 0.50878 0.0
H241 H 0.61379 0.82892 0.55923 0.0
H242 H 0.67386 0.86092 0.54448 0.0
H243 H 0.69417 0.84719 0.57721 0.0
C244 C 0.8618 0.89717 0.50759 0.0
C245 C 0.88179 0.91944 0.53253 0.0
C246 C 0.83003 0.86106 0.50722 0.0
C247 C 0.81711 0.84665 0.53175 0.0
C248 C 0.8372 0.86864 0.55669 0.0
H249 H 0.63395 0.63518 0.57153 0.0
H250 H 0.69023 0.69819 0.57219 0.0
C251 C 0.8692 0.90476 0.55709 0.0
C252 C 0.78418 0.80815 0.53111 0.0
H253 H 0.63503 0.76181 0.55117 0.0
C254 C 0.82218 0.77601 0.51795 0.0
C255 C 0.71577 0.8031 0.54313 0.0
C256 C 0.67154 0.83683 0.55663 0.0
C257 C 0.79406 0.73874 0.51688 0.0
C258 C 0.72555 0.73367 0.52885 0.0
C259 C 0.68757 0.76584 0.54202 0.0
C260 C 0.69244 0.69517 0.52814 0.0
C261 C 0.83861 0.70506 0.5035 0.0
C262 C 0.67454 0.67272 0.50311 0.0
C263 C 0.64246 0.6366 0.50262 0.0
C264 C 0.62727 0.62243 0.52719 0.0
C265 C 0.64499 0.64516 0.55222 0.0
C266 C 0.67708 0.68121 0.55267 0.0
H267 H 0.89665 0.71289 0.50156 0.0
H268 H 0.83505 0.68065 0.51532 0.0
H269 H 0.8174 0.69524 0.48262 0.0
H270 H 0.68473 0.6833 0.48396 0.0
H271 H 0.62925 0.61992 0.48302 0.0
H272 H 0.20951 0.08718 1.00053 0.0
H273 H 0.34052 0.07727 0.9993 0.0
H274 H 0.33536 0.05564 0.08294 0.0
H275 H 0.20402 0.06537 0.08442 0.0
H276 H 0.46958 0.10138 0.03373 0.0
H277 H 0.3789 0.94982 0.03188 0.0
H278 H 0.31734 0.98772 0.02627 0.0
H279 H 0.34808 0.98421 0.06024 0.0
C280 C 0.23664 0.08187 0.01903 0.0
C281 C 0.19665 0.07588 0.0423 0.0
C282 C 0.31135 0.07621 0.01827 0.0
C283 C 0.34637 0.06467 0.04076 0.0
C284 C 0.30833 0.06398 0.06529 0.0
H285 H 0.76648 0.97545 0.06065 0.0
H286 H 0.63521 0.98427 0.06229 0.0
C287 C 0.23349 0.06977 0.06612 0.0
C288 C 0.41856 0.04723 0.03683 0.0
H289 H 0.50477 0.96044 0.02839 0.0
C290 C 0.4776 0.07064 0.03263 0.0
C291 C 0.42769 0.00699 0.03506 0.0
C292 C 0.36472 0.98053 0.03838 0.0
C293 C 0.54664 0.05484 0.02713 0.0
C294 C 0.55574 0.01459 0.02524 0.0
C295 C 0.49675 0.99117 0.02953 0.0
C296 C 0.62788 -0.00283 0.02094 0.0
C297 C 0.60961 0.08134 0.02388 0.0
C298 C 0.66524 -0.00166 0.99633 0.0
C299 C 0.74025 0.99328 0.99528 0.0
C300 C 0.7779 0.98735 0.01897 0.0
C301 C 0.73871 0.9807 0.04227 0.0
C302 C 0.66383 0.98568 0.04325 0.0
H303 H 0.59559 0.11199 0.03072 0.0
H304 H 0.65724 0.07388 0.03576 0.0
H305 H 0.62575 0.07807 1.00199 0.0
H306 H 0.63751 0.00666 0.97882 0.0
H307 H 0.76909 -0.00185 0.97697 0.0
H308 H 0.19823 0.99163 0.47837 0.0
H309 H 0.32983 -0.00043 0.47954 0.0
H310 H 0.33112 0.98456 0.56463 0.0
H311 H 0.19996 0.97627 0.56365 0.0
H312 H 0.37235 0.06479 0.51699 0.0
H313 H 0.52189 0.93391 0.53486 0.0
H314 H 0.43237 0.93201 0.51987 0.0
H315 H 0.44325 0.94459 0.55625 0.0
C316 C 0.22686 0.98822 0.49697 0.0
C317 C 0.18895 0.98437 0.52115 0.0
C318 C 0.30195 0.99287 0.4976 0.0
C319 C 0.33953 0.99304 0.52224 0.0
C320 C 0.3029 0.98423 0.54539 0.0
H321 H 0.75955 0.06601 0.58285 0.0
H322 H 0.62778 0.05892 0.58195 0.0
C323 C 0.22789 0.9797 0.54482 0.0
C324 C 0.41222 0.01016 0.52546 0.0
H325 H 0.58492 0.9935 0.54461 0.0
C326 C 0.41919 0.04917 0.52276 0.0
C327 C 0.4722 0.98976 0.53349 0.0
C328 C 0.46746 0.94765 0.53609 0.0
C329 C 0.48509 0.06854 0.52812 0.0
C330 C 0.54508 0.04813 0.53613 0.0
C331 C 0.53807 0.00913 0.53886 0.0
C332 C 0.61786 0.06514 0.53922 0.0
C333 C 0.4899 0.11063 0.52551 0.0
C334 C 0.65448 0.0735 0.51593 0.0
C335 C 0.7296 0.0775 0.51633 0.0
C336 C 0.76863 0.07277 0.53997 0.0
C337 C 0.73084 0.06943 0.56427 0.0
C338 C 0.65565 0.0653 0.5638 0.0
H339 H 0.43548 0.12439 0.5267 0.0
H340 H 0.52494 0.12626 0.54175 0.0
H341 H 0.51423 0.11368 0.50536 0.0
H342 H 0.62608 0.07316 0.49672 0.0
H343 H 0.75743 0.08057 0.49742 0.0
H344 H 0.6921 0.58929 1.00556 0.0
H345 H 0.82323 0.57998 1.00314 0.0
H346 H 0.82028 0.54332 0.08261 0.0
H347 H 0.68877 0.55227 0.08518 0.0
H348 H 0.95288 0.59847 0.03764 0.0
H349 H 0.86389 0.44542 0.02398 0.0
H350 H 0.80161 0.48452 0.02223 0.0
H351 H 0.8341 0.4752 0.05482 0.0
C352 C 0.71975 0.58076 0.02302 0.0
C353 C 0.68034 0.57044 0.04522 0.0
C354 C 0.79454 0.57546 0.02159 0.0
C355 C 0.83028 0.55994 0.04234 0.0
C356 C 0.79274 0.55477 0.06625 0.0
H357 H 0.24998 0.4659 0.05385 0.0
H358 H 0.11892 0.47556 0.05619 0.0
C359 C 0.7178 0.56016 0.06775 0.0
C360 C 0.9026 0.54314 0.03673 0.0
H361 H -0.01031 0.45699 0.02149 0.0
C362 C 0.96124 0.56761 0.03416 0.0
C363 C 0.9122 0.50278 0.03179 0.0
C364 C 0.84966 0.47531 0.0331 0.0
C365 C 0.03037 0.55268 0.02731 0.0
C366 C 0.03999 0.51232 0.02242 0.0
C367 C -0.01867 0.48785 0.02497 0.0
C368 C 0.11231 0.49549 0.01693 0.0
C369 C 0.09289 0.58014 0.02593 0.0
C370 C 0.15002 0.50046 0.99302 0.0
C371 C 0.2249 0.49484 0.99156 0.0
C372 C 0.26213 0.48454 1.01414 0.0
C373 C 0.22251 0.47443 0.03635 0.0
C374 C 0.14777 0.47995 0.03775 0.0
H375 H 0.07861 0.61008 0.0349 0.0
H376 H 0.14089 0.57104 0.03688 0.0
H377 H 0.10859 0.58007 1.0042 0.0
H378 H 0.12268 0.51189 0.97661 0.0
H379 H 0.25407 0.50256 0.97411 0.0
H380 H 0.30797 0.56081 0.48914 0.0
H381 H 0.17633 0.55361 0.48794 0.0
H382 H 0.17329 0.55169 0.57506 0.0
H383 H 0.30458 0.55924 0.57658 0.0
H384 H 0.1337 0.48298 0.50443 0.0
H385 H -0.01737 0.60678 0.56114 0.0
H386 H 0.07239 0.6115 0.54712 0.0
H387 H 0.06103 0.59232 0.57859 0.0
C388 C 0.279 0.56051 0.50824 0.0
C389 C 0.3165 0.55937 0.53283 0.0
C390 C 0.20388 0.55642 0.50749 0.0
C391 C 0.16579 0.55164 0.53133 0.0
C392 C 0.20199 0.5556 0.55649 0.0
H393 H 0.74598 0.46905 0.56766 0.0
H394 H 0.87748 0.47697 0.56859 0.0
C395 C 0.27713 0.55977 0.55729 0.0
C396 C 0.0931 0.53445 0.5291 0.0
H397 H 0.9192 0.54733 0.55178 0.0
C398 C 0.08645 0.49712 0.51454 0.0
C399 C 0.03256 0.55287 0.54274 0.0
C400 C 0.03708 0.59322 0.55811 0.0
C401 C 0.02034 0.47744 0.51347 0.0
C402 C 0.95981 0.49585 0.52712 0.0
C403 C 0.96643 0.5332 0.54165 0.0
C404 C 0.88726 0.47847 0.52512 0.0
C405 C 0.01591 0.43706 0.49815 0.0
C406 C 0.85074 0.47402 0.50002 0.0
C407 C 0.77568 0.46938 0.49937 0.0
C408 C 0.7367 0.46982 0.52392 0.0
C409 C 0.77464 0.46925 0.54848 0.0
C410 C 0.84966 0.47378 0.54909 0.0
H411 H 0.07039 0.42353 0.49511 0.0
H412 H -0.01927 0.41877 0.50919 0.0
H413 H -0.00815 0.43786 0.47768 0.0
H414 H 0.87907 0.47786 0.48136 0.0
H415 H 0.7479 0.46953 0.48009 0.0
H416 H 0.93794 0.95473 0.37867 0.0
H417 H 0.95321 0.95989 0.33007 0.0
H418 H 0.02238 0.07761 0.35168 0.0
H419 H 0.00624 0.07262 0.40031 0.0
H420 H 0.87592 0.01323 0.30422 0.0
H421 H 0.17413 0.03093 0.29369 0.0
H422 H 0.13353 0.01133 0.32196 0.0
H423 H 0.13198 0.06223 0.32143 0.0
C424 C 0.95757 0.98147 0.37299 0.0
C425 C 0.97224 0.01303 0.39322 0.0
C426 C 0.96635 0.98438 0.34531 0.0
C427 C -0.01007 0.01894 0.33732 0.0
C428 C 0.00589 0.05039 0.35746 0.0
H429 H 0.93033 0.10125 0.18294 0.0
H430 H 0.94422 0.09436 0.23134 0.0
C431 C -0.00298 0.04747 0.38523 0.0
C432 C -0.00887 0.02297 0.30792 0.0
H433 H 0.10173 0.0405 0.25549 0.0
C434 C 0.92533 0.01903 0.29355 0.0
C435 C 0.05576 0.03042 0.29409 0.0
C436 C 0.12809 0.03369 0.30845 0.0
C437 C 0.92225 0.02288 0.26575 0.0
C438 C -0.01346 0.03096 0.25205 0.0
C439 C 0.0526 0.03445 0.26623 0.0
C440 C -0.0149 0.03621 0.22298 0.0
C441 C 0.85034 0.01838 0.25109 0.0
C442 C 0.00416 0.00584 0.20245 0.0
C443 C -0.00421 0.00963 0.17485 0.0
C444 C 0.96907 0.04402 0.16744 0.0
C445 C 0.95145 0.07458 0.18814 0.0
C446 C 0.95955 0.07074 0.21569 0.0
H447 H 0.80693 0.00802 0.26384 0.0
H448 H 0.83348 0.04652 0.2456 0.0
H449 H 0.85568 -0.00211 0.23176 0.0
H450 H 0.02301 0.9788 0.20782 0.0
H451 H 0.00732 0.98516 0.15943 0.0
H452 H 0.90218 0.98892 0.89287 0.0
H453 H 0.88017 0.98993 0.84398 0.0
H454 H 0.08699 0.04526 0.8373 0.0
H455 H 0.10829 0.04522 0.88617 0.0
H456 H 0.88405 0.05762 0.81348 0.0
H457 H 0.08861 0.94477 0.7789 0.0
H458 H 0.04965 0.95146 0.81292 0.0
H459 H 0.12029 0.98294 0.80445 0.0
C460 C 0.94197 0.00217 0.88114 0.0
C461 C 0.00638 0.01768 0.89341 0.0
C462 C 0.92972 0.00235 0.85319 0.0
C463 C -0.01777 0.01743 0.8371 0.0
C464 C 0.04617 0.03316 0.84936 0.0
H465 H 0.0088 0.09804 0.68391 0.0
H466 H -0.008 0.08926 0.73181 0.0
C467 C 0.05822 0.03316 0.87721 0.0
C468 C 0.97138 0.01659 0.80739 0.0
H469 H 0.04609 0.98151 0.74538 0.0
C470 C 0.91867 0.04062 0.7985 0.0
C471 C 0.01607 0.99399 0.78796 0.0
C472 C 0.07148 0.96654 0.79643 0.0
C473 C 0.912 0.04406 0.77065 0.0
C474 C 0.9597 0.02317 0.7514 0.0
C475 C 0.00985 -0.00232 0.7602 0.0
C476 C 0.96227 0.02922 0.72238 0.0
C477 C 0.8547 0.07041 0.7621 0.0
C478 C 0.95199 -0.00172 0.70124 0.0
C479 C 0.96186 0.00328 0.6739 0.0
C480 C -0.01757 0.03926 0.66733 0.0
C481 C -0.0079 0.0702 0.68852 0.0
C482 C -0.01804 0.06526 0.71579 0.0
H483 H 0.80981 0.07508 0.77732 0.0
H484 H 0.87949 0.09876 0.76057 0.0
H485 H 0.83175 0.05865 0.74181 0.0
H486 H 0.93799 0.97008 0.70594 0.0
H487 H 0.95639 0.9787 0.65802 0.0
H488 H 0.41937 0.46467 0.37928 0.0
H489 H 0.41213 0.47815 0.33207 0.0
H490 H 0.5671 0.57011 0.35105 0.0
H491 H 0.5747 0.55644 0.39837 0.0
H492 H 0.37926 0.55449 0.31332 0.0
H493 H 0.65145 0.49231 0.2836 0.0
H494 H 0.60196 0.47999 0.31272 0.0
H495 H 0.6436 0.52636 0.31458 0.0
C496 C 0.45122 0.488 0.37338 0.0
C497 C 0.49679 0.50986 0.39244 0.0
C498 C 0.44706 0.49568 0.34652 0.0
C499 C 0.48934 0.52497 0.33813 0.0
C500 C 0.53421 0.54732 0.35719 0.0
H501 H 0.53812 0.56835 0.16819 0.0
H502 H 0.55621 0.57008 0.21763 0.0
C503 C 0.53791 0.53981 0.38421 0.0
C504 C 0.48724 0.53108 0.30917 0.0
H505 H 0.58101 0.5126 0.24886 0.0
C506 C 0.42357 0.54572 0.29923 0.0
C507 C 0.5454 0.51981 0.29099 0.0
C508 C 0.61457 0.50355 0.30079 0.0
C509 C 0.41586 0.54871 0.27138 0.0
C510 C 0.47263 0.53565 0.25289 0.0
C511 C 0.53743 0.52235 0.26303 0.0
C512 C 0.46404 0.53364 0.22285 0.0
C513 C 0.34687 0.56578 0.26205 0.0
C514 C 0.40764 0.51175 0.20931 0.0
C515 C 0.39753 0.51069 0.18123 0.0
C516 C 0.44445 0.53083 0.166 0.0
C517 C 0.50224 0.55188 0.17936 0.0
C518 C 0.51214 0.55315 0.20759 0.0
H519 H 0.32053 0.58526 0.27904 0.0
H520 H 0.35743 0.58212 0.24487 0.0
H521 H 0.30805 0.5423 0.25495 0.0
H522 H 0.37103 0.49564 0.22051 0.0
H523 H 0.35275 0.49423 0.17132 0.0
H524 H 0.60989 0.49785 0.67419 0.0
H525 H 0.57966 0.49608 0.72219 0.0
H526 H 0.3801 0.55668 0.71277 0.0
H527 H 0.41148 0.55935 0.66467 0.0
H528 H 0.45903 0.58818 0.75819 0.0
H529 H 0.43155 0.43141 0.75633 0.0
H530 H 0.51502 0.44352 0.74087 0.0
H531 H 0.42985 0.4534 0.72557 0.0
C532 C 0.55917 0.51037 0.68231 0.0
C533 C 0.51238 0.52807 0.66562 0.0
C534 C 0.54162 0.50907 0.70964 0.0
C535 C 0.47682 0.52546 0.7209 0.0
C536 C 0.4298 0.54329 0.70433 0.0
H537 H 0.39428 0.49438 0.8918 0.0
H538 H 0.37144 0.49757 0.84327 0.0
C539 C 0.44736 0.54448 0.67683 0.0
C540 C 0.46184 0.5263 0.75051 0.0
H541 H 0.45821 0.46877 0.80031 0.0
C542 C 0.45742 0.56207 0.76738 0.0
C543 C 0.45854 0.49225 0.76248 0.0
C544 C 0.45821 0.45298 0.74532 0.0
C545 C 0.45458 0.56469 0.79602 0.0
C546 C 0.45745 0.53068 0.80804 0.0
C547 C 0.45699 0.49488 0.79111 0.0
C548 C 0.46697 0.53157 0.83795 0.0
C549 C 0.44992 0.60392 0.81312 0.0
C550 C 0.52834 0.5494 0.851 0.0
C551 C 0.54096 0.54787 0.87866 0.0
C552 C 0.49256 0.52851 0.89387 0.0
C553 C 0.43111 0.51061 0.88083 0.0
C554 C 0.41844 0.51211 0.85307 0.0
H555 H 0.42399 0.62502 0.80157 0.0
H556 H 0.41869 0.60299 0.83228 0.0
H557 H 0.50554 0.61437 0.81867 0.0
H558 H 0.56766 0.56362 0.8396 0.0
H559 H 0.58913 0.56148 0.88819 0.0
loop_
_geom_bond_atom_site_label_1
_geom_bond_atom_site_label_2
_geom_bond_distance
_geom_bond_site_symmetry_2
_ccdc_geom_bond_type
Zn0 O1 2.055 1_645 S
Zn0 O8 2.046 1_545 S
Zn0 N16 2.036 . S
Zn0 O28 2.053 . S
Zn0 O30 2.066 1_655 S
O1 Zn0 2.055 1_465 S
O1 C4 1.259 . S
C2 O30 1.256 . S
C2 O31 1.244 1_554 S
Zn3 O5 2.046 1_545 S
Zn3 O7 2.055 1_445 S
Zn3 N9 2.034 . S
Zn3 O27 2.066 1_455 S
Zn3 O31 2.053 . S
C4 O1 1.259 . S
C4 O5 1.254 1_554 S
O5 Zn3 2.046 1_565 S
O5 C4 1.254 1_556 S
C6 O27 1.256 1_554 S
C6 O28 1.244 . S
O7 Zn3 2.055 1_665 S
O7 C29 1.259 1_556 S
O8 Zn0 2.046 1_565 S
O8 C29 1.254 . S
N9 Zn3 2.034 . S
N9 C10 1.306 1_455 S
N9 N12 1.398 1_545 S
C10 N9 1.306 1_655 S
C10 N13 1.367 1_655 S
C10 C23 1.481 . S
C11 N12 1.299 1_545 S
C11 N13 1.379 . S
N12 N9 1.398 1_565 S
N12 C11 1.299 1_565 S
N13 C10 1.367 1_455 S
N13 C11 1.379 . S
C14 N16 1.298 1_455 S
C14 N18 1.367 . S
C14 C22 1.481 1_545 S
C15 N17 1.299 . S
C15 N18 1.379 1_655 S
N16 Zn0 2.036 . S
N16 C14 1.298 1_655 S
N16 N17 1.398 . S
N17 C15 1.299 . S
N17 N16 1.398 . S
N18 C14 1.367 . S
N18 C15 1.379 1_455 S
H19 C22 0.980 . S
H20 C22 0.981 . S
H21 C22 0.981 . S
C22 C14 1.481 1_565 S
C22 H19 0.980 . S
C22 H20 0.981 . S
C22 H21 0.981 . S
C23 C10 1.481 . S
C23 H24 0.980 . S
C23 H25 0.981 . S
C23 H26 0.981 . S
H24 C23 0.980 . S
H25 C23 0.981 . S
H26 C23 0.981 . S
O27 Zn3 2.066 1_655 S
O27 C6 1.256 1_556 S
O28 Zn0 2.053 . S
O28 C6 1.244 . S
C29 O7 1.259 1_554 S
C29 O8 1.254 . S
O30 Zn0 2.066 1_455 S
O30 C2 1.256 . S
O31 C2 1.244 1_556 S
O31 Zn3 2.053 . S
Zn32 O33 2.055 1_455 S
Zn32 O40 2.046 . S
Zn32 N48 2.036 . S
Zn32 O60 2.053 . S
Zn32 O62 2.066 1_455 S
O33 Zn32 2.055 1_655 S
O33 C36 1.259 . S
C34 O62 1.256 1_565 S
C34 O63 1.244 . S
Zn35 O37 2.046 . S
Zn35 O39 2.055 1_655 S
Zn35 N41 2.036 . S
Zn35 O59 2.066 1_655 S
Zn35 O63 2.053 1_545 S
C36 O33 1.259 . S
C36 O37 1.254 . S
O37 Zn35 2.046 . S
O37 C36 1.254 . S
C38 O59 1.256 . S
C38 O60 1.244 . S
O39 Zn35 2.055 1_455 S
O39 C61 1.259 . S
O40 Zn32 2.046 . S
O40 C61 1.254 . S
N41 Zn35 2.036 . S
N41 C42 1.298 1_655 S
N41 N44 1.398 . S
C42 N41 1.298 1_455 S
C42 N45 1.367 . S
C42 C55 1.481 . S
C43 N44 1.299 . S
C43 N45 1.379 1_655 S
N44 N41 1.398 . S
N44 C43 1.299 . S
N45 C42 1.367 . S
N45 C43 1.379 1_455 S
C46 N48 1.298 1_655 S
C46 N50 1.367 1_655 S
C46 C54 1.481 . S
C47 N49 1.299 . S
C47 N50 1.379 . S
N48 Zn32 2.036 . S
N48 C46 1.298 1_455 S
N48 N49 1.398 . S
N49 C47 1.299 . S
N49 N48 1.398 . S
N50 C46 1.367 1_455 S
N50 C47 1.379 . S
H51 C54 0.980 . S
H52 C54 0.981 . S
H53 C54 0.981 . S
C54 C46 1.481 . S
C54 H51 0.980 . S
C54 H52 0.981 . S
C54 H53 0.981 . S
C55 C42 1.481 . S
C55 H56 0.980 . S
C55 H57 0.981 . S
C55 H58 0.981 . S
H56 C55 0.980 . S
H57 C55 0.981 . S
H58 C55 0.981 . S
O59 Zn35 2.066 1_455 S
O59 C38 1.256 . S
O60 Zn32 2.053 . S
O60 C38 1.244 . S
C61 O39 1.259 . S
C61 O40 1.254 . S
O62 Zn32 2.066 1_655 S
O62 C34 1.256 1_545 S
O63 C34 1.244 . S
O63 Zn35 2.053 1_565 S
Zn64 O65 2.055 . S
Zn64 O72 2.046 . S
Zn64 N80 2.036 . S
Zn64 O92 2.053 . S
Zn64 O94 2.066 . S
O65 Zn64 2.055 . S
O65 C68 1.259 . S
C66 O94 1.256 . S
C66 O95 1.244 1_554 S
Zn67 O69 2.046 . S
Zn67 O71 2.055 . S
Zn67 N73 2.036 . S
Zn67 O91 2.066 . S
Zn67 O95 2.053 . S
C68 O65 1.259 . S
C68 O69 1.254 1_554 S
O69 Zn67 2.046 . S
O69 C68 1.254 1_556 S
C70 O91 1.256 1_554 S
C70 O92 1.244 . S
O71 Zn67 2.055 . S
O71 C93 1.259 1_556 S
O72 Zn64 2.046 . S
O72 C93 1.254 . S
N73 Zn67 2.036 . S
N73 C74 1.298 . S
N73 N76 1.398 . S
C74 N73 1.298 . S
C74 N77 1.367 . S
C74 C87 1.481 . S
C75 N76 1.299 . S
C75 N77 1.379 . S
N76 N73 1.398 . S
N76 C75 1.299 . S
N77 C74 1.367 . S
N77 C75 1.379 . S
C78 N80 1.298 . S
C78 N82 1.367 . S
C78 C86 1.481 . S
C79 N81 1.299 . S
C79 N82 1.379 . S
N80 Zn64 2.036 . S
N80 C78 1.298 . S
N80 N81 1.398 . S
N81 C79 1.299 . S
N81 N80 1.398 . S
N82 C78 1.367 . S
N82 C79 1.379 . S
H83 C86 0.980 . S
H84 C86 0.981 . S
H85 C86 0.981 . S
C86 C78 1.481 . S
C86 H83 0.980 . S
C86 H84 0.981 . S
C86 H85 0.981 . S
C87 C74 1.481 . S
C87 H88 0.980 . S
C87 H89 0.981 . S
C87 H90 0.981 . S
H88 C87 0.980 . S
H89 C87 0.981 . S
H90 C87 0.981 . S
O91 Zn67 2.066 . S
O91 C70 1.256 1_556 S
O92 Zn64 2.053 . S
O92 C70 1.244 . S
C93 O71 1.259 1_554 S
C93 O72 1.254 . S
O94 Zn64 2.066 . S
O94 C66 1.256 . S
O95 C66 1.244 1_556 S
O95 Zn67 2.053 . S
Zn96 O97 2.055 . S
Zn96 O104 2.046 . S
Zn96 N112 2.036 . S
Zn96 O124 2.053 . S
Zn96 O126 2.066 . S
O97 Zn96 2.055 . S
O97 C100 1.259 . S
C98 O126 1.256 . S
C98 O127 1.244 . S
Zn99 O101 2.046 . S
Zn99 O103 2.055 . S
Zn99 N105 2.036 . S
Zn99 O123 2.066 . S
Zn99 O127 2.053 . S
C100 O97 1.259 . S
C100 O101 1.254 . S
O101 Zn99 2.046 . S
O101 C100 1.254 . S
C102 O123 1.256 . S
C102 O124 1.244 . S
O103 Zn99 2.055 . S
O103 C125 1.259 . S
O104 Zn96 2.046 . S
O104 C125 1.254 . S
N105 Zn99 2.036 . S
N105 C106 1.298 . S
N105 N108 1.398 . S
C106 N105 1.298 . S
C106 N109 1.367 . S
C106 C119 1.481 . S
C107 N108 1.299 . S
C107 N109 1.379 . S
N108 N105 1.398 . S
N108 C107 1.299 . S
N109 C106 1.367 . S
N109 C107 1.379 . S
C110 N112 1.298 . S
C110 N114 1.367 . S
C110 C118 1.481 . S
C111 N113 1.299 . S
C111 N114 1.379 . S
N112 Zn96 2.036 . S
N112 C110 1.298 . S
N112 N113 1.398 . S
N113 C111 1.299 . S
N113 N112 1.398 . S
N114 C110 1.367 . S
N114 C111 1.379 . S
H115 C118 0.980 . S
H116 C118 0.981 . S
H117 C118 0.981 . S
C118 C110 1.481 . S
C118 H115 0.980 . S
C118 H116 0.981 . S
C118 H117 0.981 . S
C119 C106 1.481 . S
C119 H120 0.980 . S
C119 H121 0.981 . S
C119 H122 0.981 . S
H120 C119 0.980 . S
H121 C119 0.981 . S
H122 C119 0.981 . S
O123 Zn99 2.066 . S
O123 C102 1.256 . S
O124 Zn96 2.053 . S
O124 C102 1.244 . S
C125 O103 1.259 . S
C125 O104 1.254 . S
O126 Zn96 2.066 . S
O126 C98 1.256 . S
O127 C98 1.244 . S
O127 Zn99 2.053 . S
H128 C136 0.929 . S
H129 C138 0.930 . S
H130 C140 0.930 1_556 S
H131 C143 0.929 1_556 S
H132 C146 0.930 . S
H133 C148 0.960 . S
H134 C148 0.960 . S
H135 C148 0.960 . S
C136 H128 0.929 . S
C136 C137 1.377 . S
C136 C138 1.384 . S
C137 C136 1.377 . S
C137 C143 1.390 . S
C138 H129 0.930 . S
C138 C136 1.384 . S
C138 C139 1.372 . S
C139 C138 1.372 . S
C139 C140 1.400 . S
C139 C144 1.490 . S
C140 H130 0.930 1_554 S
C140 C139 1.400 . S
C140 C143 1.386 . S
H141 C157 0.930 . S
H142 C158 0.931 . S
C143 H131 0.929 1_554 S
C143 C137 1.390 . S
C143 C140 1.386 . S
C144 C139 1.490 . S
C144 C146 1.395 . S
C144 C147 1.403 1_554 S
H145 C151 0.930 . S
C146 H132 0.930 . S
C146 C144 1.395 . S
C146 C149 1.403 . S
C147 C144 1.403 1_556 S
C147 C148 1.524 . S
C147 C151 1.400 . S
C148 H133 0.960 . S
C148 H134 0.960 . S
C148 H135 0.960 . S
C148 C147 1.524 . S
C149 C146 1.403 . S
C149 C150 1.392 . S
C149 C153 1.495 . S
C150 C149 1.392 . S
C150 C151 1.385 1_554 S
C150 C152 1.478 . S
C151 H145 0.930 . S
C151 C147 1.400 . S
C151 C150 1.385 1_556 S
C152 C150 1.478 . S
C152 C154 1.381 . S
C152 C158 1.383 . S
C153 C149 1.495 . S
C153 H159 0.959 . S
C153 H160 0.961 . S
C153 H161 0.960 . S
C154 C152 1.381 . S
C154 C155 1.394 . S
C154 H162 0.930 . S
C155 C154 1.394 . S
C155 C156 1.383 . S
C155 H163 0.929 1_455 S
C156 C155 1.383 . S
C156 C157 1.377 . S
C157 H141 0.930 . S
C157 C156 1.377 . S
C157 C158 1.379 . S
C158 H142 0.931 . S
C158 C152 1.383 . S
C158 C157 1.379 . S
H159 C153 0.959 . S
H160 C153 0.961 . S
H161 C153 0.960 . S
H162 C154 0.930 . S
H163 C155 0.929 1_655 S
H164 C172 0.929 . S
H165 C174 0.930 . S
H166 C176 0.930 . S
H167 C179 0.929 . S
H168 C182 0.930 . S
H169 C184 0.960 . S
H170 C184 0.960 1_556 S
H171 C184 0.960 . S
C172 H164 0.929 . S
C172 C173 1.377 1_556 S
C172 C174 1.384 . S
C173 C172 1.377 1_554 S
C173 C179 1.390 . S
C174 H165 0.930 . S
C174 C172 1.384 . S
C174 C175 1.372 1_556 S
C175 C174 1.372 1_554 S
C175 C176 1.400 . S
C175 C180 1.490 . S
C176 H166 0.930 . S
C176 C175 1.400 . S
C176 C179 1.386 . S
H177 C193 0.930 . S
H178 C194 0.931 . S
C179 H167 0.929 . S
C179 C173 1.390 . S
C179 C176 1.386 . S
C180 C175 1.490 . S
C180 C182 1.395 . S
C180 C183 1.403 . S
H181 C187 0.930 . S
C182 H168 0.930 . S
C182 C180 1.395 . S
C182 C185 1.403 . S
C183 C180 1.403 . S
C183 C184 1.524 . S
C183 C187 1.400 . S
C184 H169 0.960 . S
C184 H170 0.960 1_554 S
C184 H171 0.960 . S
C184 C183 1.524 . S
C185 C182 1.403 . S
C185 C186 1.392 . S
C185 C189 1.495 . S
C186 C185 1.392 . S
C186 C187 1.385 . S
C186 C188 1.478 . S
C187 H181 0.930 . S
C187 C183 1.400 . S
C187 C186 1.385 . S
C188 C186 1.478 . S
C188 C190 1.381 1_554 S
C188 C194 1.383 . S
C189 C185 1.495 . S
C189 H195 0.959 . S
C189 H196 0.961 . S
C189 H197 0.960 1_554 S
C190 C188 1.381 1_556 S
C190 C191 1.394 . S
C190 H198 0.930 . S
C191 C190 1.394 . S
C191 C192 1.383 1_556 S
C191 H199 0.929 . S
C192 C191 1.383 1_554 S
C192 C193 1.377 . S
C193 H177 0.930 . S
C193 C192 1.377 . S
C193 C194 1.379 . S
C194 H178 0.931 . S
C194 C188 1.383 . S
C194 C193 1.379 . S
H195 C189 0.959 . S
H196 C189 0.961 . S
H197 C189 0.960 1_556 S
H198 C190 0.930 . S
H199 C191 0.929 . S
H200 C208 0.929 . S
H201 C210 0.930 . S
H202 C212 0.930 . S
H203 C215 0.929 . S
H204 C218 0.930 . S
H205 C220 0.960 . S
H206 C220 0.960 . S
H207 C220 0.960 . S
C208 H200 0.929 . S
C208 C209 1.377 . S
C208 C210 1.384 . S
C209 C208 1.377 . S
C209 C215 1.390 . S
C210 H201 0.930 . S
C210 C208 1.384 . S
C210 C211 1.372 . S
C211 C210 1.372 . S
C211 C212 1.400 . S
C211 C216 1.490 . S
C212 H202 0.930 . S
C212 C211 1.400 . S
C212 C215 1.386 . S
H213 C229 0.930 . S
H214 C230 0.931 . S
C215 H203 0.929 . S
C215 C209 1.390 . S
C215 C212 1.386 . S
C216 C211 1.490 . S
C216 C218 1.395 . S
C216 C219 1.403 . S
H217 C223 0.930 . S
C218 H204 0.930 . S
C218 C216 1.395 . S
C218 C221 1.403 . S
C219 C216 1.403 . S
C219 C220 1.524 . S
C219 C223 1.400 . S
C220 H205 0.960 . S
C220 H206 0.960 . S
C220 H207 0.960 . S
C220 C219 1.524 . S
C221 C218 1.403 . S
C221 C222 1.392 . S
C221 C225 1.495 . S
C222 C221 1.392 . S
C222 C223 1.385 . S
C222 C224 1.478 . S
C223 H217 0.930 . S
C223 C219 1.400 . S
C223 C222 1.385 . S
C224 C222 1.478 . S
C224 C226 1.381 . S
C224 C230 1.383 . S
C225 C221 1.495 . S
C225 H231 0.959 . S
C225 H232 0.961 . S
C225 H233 0.960 . S
C226 C224 1.381 . S
C226 C227 1.394 . S
C226 H234 0.930 . S
C227 C226 1.394 . S
C227 C228 1.383 . S
C227 H235 0.929 . S
C228 C227 1.383 . S
C228 C229 1.377 . S
C229 H213 0.930 . S
C229 C228 1.377 . S
C229 C230 1.379 . S
C230 H214 0.931 . S
C230 C224 1.383 . S
C230 C229 1.379 . S
H231 C225 0.959 . S
H232 C225 0.961 . S
H233 C225 0.960 . S
H234 C226 0.930 . S
H235 C227 0.929 . S
H236 C244 0.929 . S
H237 C246 0.930 . S
H238 C248 0.930 . S
H239 C251 0.929 . S
H240 C254 0.930 . S
H241 C256 0.960 . S
H242 C256 0.960 . S
H243 C256 0.960 . S
C244 H236 0.929 . S
C244 C245 1.377 . S
C244 C246 1.384 . S
C245 C244 1.377 . S
C245 C251 1.390 . S
C246 H237 0.930 . S
C246 C244 1.384 . S
C246 C247 1.372 . S
C247 C246 1.372 . S
C247 C248 1.400 . S
C247 C252 1.490 . S
C248 H238 0.930 . S
C248 C247 1.400 . S
C248 C251 1.386 . S
H249 C265 0.930 . S
H250 C266 0.931 . S
C251 H239 0.929 . S
C251 C245 1.390 . S
C251 C248 1.386 . S
C252 C247 1.490 . S
C252 C254 1.395 . S
C252 C255 1.403 . S
H253 C259 0.930 . S
C254 H240 0.930 . S
C254 C252 1.395 . S
C254 C257 1.403 . S
C255 C252 1.403 . S
C255 C256 1.524 . S
C255 C259 1.400 . S
C256 H241 0.960 . S
C256 H242 0.960 . S
C256 H243 0.960 . S
C256 C255 1.524 . S
C257 C254 1.403 . S
C257 C258 1.392 . S
C257 C261 1.495 . S
C258 C257 1.392 . S
C258 C259 1.385 . S
C258 C260 1.478 . S
C259 H253 0.930 . S
C259 C255 1.400 . S
C259 C258 1.385 . S
C260 C258 1.478 . S
C260 C262 1.381 . S
C260 C266 1.383 . S
C261 C257 1.495 . S
C261 H267 0.959 . S
C261 H268 0.961 . S
C261 H269 0.960 . S
C262 C260 1.381 . S
C262 C263 1.394 . S
C262 H270 0.930 . S
C263 C262 1.394 . S
C263 C264 1.383 . S
C263 H271 0.929 . S
C264 C263 1.383 . S
C264 C265 1.377 . S
C265 H249 0.930 . S
C265 C264 1.377 . S
C265 C266 1.379 . S
C266 H250 0.931 . S
C266 C260 1.383 . S
C266 C265 1.379 . S
H267 C261 0.959 . S
H268 C261 0.961 . S
H269 C261 0.960 . S
H270 C262 0.930 . S
H271 C263 0.929 . S
H272 C280 0.929 . S
H273 C282 0.930 . S
H274 C284 0.930 . S
H275 C287 0.929 . S
H276 C290 0.930 . S
H277 C292 0.960 . S
H278 C292 0.960 . S
H279 C292 0.960 . S
C280 H272 0.929 . S
C280 C281 1.377 . S
C280 C282 1.384 . S
C281 C280 1.377 . S
C281 C287 1.390 1_545 S
C282 H273 0.930 . S
C282 C280 1.384 . S
C282 C283 1.372 . S
C283 C282 1.372 . S
C283 C284 1.400 1_545 S
C283 C288 1.490 . S
C284 H274 0.930 . S
C284 C283 1.400 1_565 S
C284 C287 1.386 . S
H285 C301 0.930 . S
H286 C302 0.931 . S
C287 H275 0.929 . S
C287 C281 1.390 1_565 S
C287 C284 1.386 . S
C288 C283 1.490 . S
C288 C290 1.395 . S
C288 C291 1.403 1_544 S
H289 C295 0.930 . S
C290 H276 0.930 . S
C290 C288 1.395 . S
C290 C293 1.403 . S
C291 C288 1.403 1_566 S
C291 C292 1.524 . S
C291 C295 1.400 . S
C292 H277 0.960 . S
C292 H278 0.960 . S
C292 H279 0.960 . S
C292 C291 1.524 . S
C293 C290 1.403 . S
C293 C294 1.392 . S
C293 C297 1.495 . S
C294 C293 1.392 . S
C294 C295 1.385 1_544 S
C294 C296 1.478 . S
C295 H289 0.930 . S
C295 C291 1.400 . S
C295 C294 1.385 1_566 S
C296 C294 1.478 . S
C296 C298 1.381 . S
C296 C302 1.383 1_545 S
C297 C293 1.495 . S
C297 H303 0.959 . S
C297 H304 0.961 . S
C297 H305 0.960 . S
C298 C296 1.381 . S
C298 C299 1.394 . S
C298 H306 0.930 . S
C299 C298 1.394 . S
C299 C300 1.383 1_545 S
C299 H307 0.929 . S
C300 C299 1.383 1_565 S
C300 C301 1.377 . S
C301 H285 0.930 . S
C301 C300 1.377 . S
C301 C302 1.379 . S
C302 H286 0.931 . S
C302 C296 1.383 1_565 S
C302 C301 1.379 . S
H303 C297 0.959 . S
H304 C297 0.961 . S
H305 C297 0.960 . S
H306 C298 0.930 . S
H307 C299 0.929 . S
H308 C316 0.929 . S
H309 C318 0.930 . S
H310 C320 0.930 . S
H311 C323 0.929 . S
H312 C326 0.930 . S
H313 C328 0.960 1_565 S
H314 C328 0.960 1_565 S
H315 C328 0.960 . S
C316 H308 0.929 . S
C316 C317 1.377 . S
C316 C318 1.384 . S
C317 C316 1.377 . S
C317 C323 1.390 . S
C318 H309 0.930 . S
C318 C316 1.384 . S
C318 C319 1.372 . S
C319 C318 1.372 . S
C319 C320 1.400 . S
C319 C324 1.490 . S
C320 H310 0.930 . S
C320 C319 1.400 . S
C320 C323 1.386 . S
H321 C337 0.930 . S
H322 C338 0.931 . S
C323 H311 0.929 . S
C323 C317 1.390 . S
C323 C320 1.386 . S
C324 C319 1.490 . S
C324 C326 1.395 . S
C324 C327 1.403 . S
H325 C331 0.930 . S
C326 H312 0.930 . S
C326 C324 1.395 . S
C326 C329 1.403 . S
C327 C324 1.403 . S
C327 C328 1.524 . S
C327 C331 1.400 . S
C328 H313 0.960 1_545 S
C328 H314 0.960 1_545 S
C328 H315 0.960 . S
C328 C327 1.524 . S
C329 C326 1.403 . S
C329 C330 1.392 . S
C329 C333 1.495 . S
C330 C329 1.392 . S
C330 C331 1.385 . S
C330 C332 1.478 . S
C331 H325 0.930 . S
C331 C327 1.400 . S
C331 C330 1.385 . S
C332 C330 1.478 . S
C332 C334 1.381 . S
C332 C338 1.383 . S
C333 C329 1.495 . S
C333 H339 0.959 . S
C333 H340 0.961 . S
C333 H341 0.960 . S
C334 C332 1.381 . S
C334 C335 1.394 . S
C334 H342 0.930 . S
C335 C334 1.394 . S
C335 C336 1.383 . S
C335 H343 0.929 . S
C336 C335 1.383 . S
C336 C337 1.377 . S
C337 H321 0.930 . S
C337 C336 1.377 . S
C337 C338 1.379 . S
C338 H322 0.931 . S
C338 C332 1.383 . S
C338 C337 1.379 . S
H339 C333 0.959 . S
H340 C333 0.961 . S
H341 C333 0.960 . S
H342 C334 0.930 . S
H343 C335 0.929 . S
H344 C352 0.929 . S
H345 C354 0.930 . S
H346 C356 0.930 . S
H347 C359 0.929 . S
H348 C362 0.930 . S
H349 C364 0.960 . S
H350 C364 0.960 . S
H351 C364 0.960 . S
C352 H344 0.929 . S
C352 C353 1.377 1_556 S
C352 C354 1.384 . S
C353 C352 1.377 1_554 S
C353 C359 1.390 . S
C354 H345 0.930 . S
C354 C352 1.384 . S
C354 C355 1.372 1_556 S
C355 C354 1.372 1_554 S
C355 C356 1.400 . S
C355 C360 1.490 . S
C356 H346 0.930 . S
C356 C355 1.400 . S
C356 C359 1.386 . S
H357 C373 0.930 . S
H358 C374 0.931 . S
C359 H347 0.929 . S
C359 C353 1.390 . S
C359 C356 1.386 . S
C360 C355 1.490 . S
C360 C362 1.395 1_554 S
C360 C363 1.403 . S
H361 C367 0.930 . S
C362 H348 0.930 . S
C362 C360 1.395 1_556 S
C362 C365 1.403 1_655 S
C363 C360 1.403 . S
C363 C364 1.524 . S
C363 C367 1.400 1_655 S
C364 H349 0.960 . S
C364 H350 0.960 . S
C364 H351 0.960 . S
C364 C363 1.524 . S
C365 C362 1.403 1_455 S
C365 C366 1.392 1_556 S
C365 C369 1.495 . S
C366 C365 1.392 1_554 S
C366 C367 1.385 . S
C366 C368 1.478 . S
C367 H361 0.930 . S
C367 C363 1.400 1_455 S
C367 C366 1.385 . S
C368 C366 1.478 . S
C368 C370 1.381 1_554 S
C368 C374 1.383 . S
C369 C365 1.495 . S
C369 H375 0.959 . S
C369 H376 0.961 . S
C369 H377 0.960 . S
C370 C368 1.381 1_556 S
C370 C371 1.394 . S
C370 H378 0.930 . S
C371 C370 1.394 . S
C371 C372 1.383 1_556 S
C371 H379 0.929 . S
C372 C371 1.383 1_554 S
C372 C373 1.377 . S
C373 H357 0.930 . S
C373 C372 1.377 . S
C373 C374 1.379 . S
C374 H358 0.931 . S
C374 C368 1.383 . S
C374 C373 1.379 . S
H375 C369 0.959 . S
H376 C369 0.961 . S
H377 C369 0.960 . S
H378 C370 0.930 . S
H379 C371 0.929 . S
H380 C388 0.929 . S
H381 C390 0.930 . S
H382 C392 0.930 . S
H383 C395 0.929 . S
H384 C398 0.930 . S
H385 C400 0.960 . S
H386 C400 0.960 . S
H387 C400 0.960 . S
C388 H380 0.929 . S
C388 C389 1.377 . S
C388 C390 1.384 . S
C389 C388 1.377 . S
C389 C395 1.390 . S
C390 H381 0.930 . S
C390 C388 1.384 . S
C390 C391 1.372 . S
C391 C390 1.372 . S
C391 C392 1.400 . S
C391 C396 1.490 . S
C392 H382 0.930 . S
C392 C391 1.400 . S
C392 C395 1.386 . S
H393 C409 0.930 . S
H394 C410 0.931 . S
C395 H383 0.929 . S
C395 C389 1.390 . S
C395 C392 1.386 . S
C396 C391 1.490 . S
C396 C398 1.395 . S
C396 C399 1.403 . S
H397 C403 0.930 . S
C398 H384 0.930 . S
C398 C396 1.395 . S
C398 C401 1.403 1_455 S
C399 C396 1.403 . S
C399 C400 1.524 . S
C399 C403 1.400 1_455 S
C400 H385 0.960 . S
C400 H386 0.960 . S
C400 H387 0.960 . S
C400 C399 1.524 . S
C401 C398 1.403 1_655 S
C401 C402 1.392 . S
C401 C405 1.495 . S
C402 C401 1.392 . S
C402 C403 1.385 . S
C402 C404 1.478 . S
C403 H397 0.930 . S
C403 C399 1.400 1_655 S
C403 C402 1.385 . S
C404 C402 1.478 . S
C404 C406 1.381 . S
C404 C410 1.383 . S
C405 C401 1.495 . S
C405 H411 0.959 . S
C405 H412 0.961 . S
C405 H413 0.960 . S
C406 C404 1.381 . S
C406 C407 1.394 . S
C406 H414 0.930 . S
C407 C406 1.394 . S
C407 C408 1.383 . S
C407 H415 0.929 . S
C408 C407 1.383 . S
C408 C409 1.377 . S
C409 H393 0.930 . S
C409 C408 1.377 . S
C409 C410 1.379 . S
C410 H394 0.931 . S
C410 C404 1.383 . S
C410 C409 1.379 . S
H411 C405 0.959 . S
H412 C405 0.961 . S
H413 C405 0.960 . S
H414 C406 0.930 . S
H415 C407 0.929 . S
H416 C424 0.929 1_565 S
H417 C426 0.930 1_565 S
H418 C428 0.930 1_655 S
H419 C431 0.929 1_655 S
H420 C434 0.930 1_655 S
H421 C436 0.960 . S
H422 C436 0.960 . S
H423 C436 0.960 . S
C424 H416 0.929 1_545 S
C424 C425 1.377 . S
C424 C426 1.384 . S
C425 C424 1.377 . S
C425 C431 1.390 . S
C426 H417 0.930 1_545 S
C426 C424 1.384 . S
C426 C427 1.372 . S
C427 C426 1.372 . S
C427 C428 1.400 . S
C427 C432 1.490 . S
C428 H418 0.930 1_455 S
C428 C427 1.400 . S
C428 C431 1.386 . S
H429 C445 0.930 1_655 S
H430 C446 0.931 . S
C431 H419 0.929 1_455 S
C431 C425 1.390 . S
C431 C428 1.386 . S
C432 C427 1.490 . S
C432 C434 1.395 1_545 S
C432 C435 1.403 . S
H433 C439 0.930 . S
C434 H420 0.930 1_455 S
C434 C432 1.395 1_565 S
C434 C437 1.403 . S
C435 C432 1.403 . S
C435 C436 1.524 . S
C435 C439 1.400 . S
C436 H421 0.960 . S
C436 H422 0.960 . S
C436 H423 0.960 . S
C436 C435 1.524 . S
C437 C434 1.403 . S
C437 C438 1.392 1_565 S
C437 C441 1.495 1_455 S
C438 C437 1.392 1_545 S
C438 C439 1.385 . S
C438 C440 1.478 . S
C439 H433 0.930 . S
C439 C435 1.400 . S
C439 C438 1.385 . S
C440 C438 1.478 . S
C440 C442 1.381 1_545 S
C440 C446 1.383 1_455 S
C441 C437 1.495 1_655 S
C441 H447 0.959 . S
C441 H448 0.961 . S
C441 H449 0.960 . S
C442 C440 1.381 1_565 S
C442 C443 1.394 . S
C442 H450 0.930 . S
C443 C442 1.394 . S
C443 C444 1.383 1_565 S
C443 H451 0.929 . S
C444 C443 1.383 1_545 S
C444 C445 1.377 . S
C445 H429 0.930 1_455 S
C445 C444 1.377 . S
C445 C446 1.379 1_455 S
C446 H430 0.931 . S
C446 C440 1.383 1_655 S
C446 C445 1.379 1_655 S
H447 C441 0.959 . S
H448 C441 0.961 . S
H449 C441 0.960 . S
H450 C442 0.930 . S
H451 C443 0.929 . S
H452 C460 0.929 . S
H453 C462 0.930 . S
H454 C464 0.930 . S
H455 C467 0.929 . S
H456 C470 0.930 . S
H457 C472 0.960 . S
H458 C472 0.960 . S
H459 C472 0.960 . S
C460 H452 0.929 . S
C460 C461 1.377 . S
C460 C462 1.384 . S
C461 C460 1.377 . S
C461 C467 1.390 1_655 S
C462 H453 0.930 . S
C462 C460 1.384 . S
C462 C463 1.372 . S
C463 C462 1.372 . S
C463 C464 1.400 1_655 S
C463 C468 1.490 . S
C464 H454 0.930 . S
C464 C463 1.400 1_455 S
C464 C467 1.386 . S
H465 C481 0.930 . S
H466 C482 0.931 . S
C467 H455 0.929 . S
C467 C461 1.390 1_455 S
C467 C464 1.386 . S
C468 C463 1.490 . S
C468 C470 1.395 . S
C468 C471 1.403 1_655 S
H469 C475 0.930 1_565 S
C470 H456 0.930 . S
C470 C468 1.395 . S
C470 C473 1.403 . S
C471 C468 1.403 1_455 S
C471 C472 1.524 1_545 S
C471 C475 1.400 . S
C472 H457 0.960 . S
C472 H458 0.960 . S
C472 H459 0.960 . S
C472 C471 1.524 1_565 S
C473 C470 1.403 . S
C473 C474 1.392 . S
C473 C477 1.495 . S
C474 C473 1.392 . S
C474 C475 1.385 1_655 S
C474 C476 1.478 . S
C475 H469 0.930 1_545 S
C475 C471 1.400 . S
C475 C474 1.385 1_455 S
C476 C474 1.478 . S
C476 C478 1.381 . S
C476 C482 1.383 1_655 S
C477 C473 1.495 . S
C477 H483 0.959 . S
C477 H484 0.961 . S
C477 H485 0.960 . S
C478 C476 1.381 . S
C478 C479 1.394 . S
C478 H486 0.930 . S
C479 C478 1.394 . S
C479 C480 1.383 . S
C479 H487 0.929 . S
C480 C479 1.383 . S
C480 C481 1.377 1_655 S
C481 H465 0.930 . S
C481 C480 1.377 1_455 S
C481 C482 1.379 . S
C482 H466 0.931 . S
C482 C476 1.383 1_455 S
C482 C481 1.379 . S
H483 C477 0.959 . S
H484 C477 0.961 . S
H485 C477 0.960 . S
H486 C478 0.930 . S
H487 C479 0.929 . S
H488 C496 0.929 . S
H489 C498 0.930 . S
H490 C500 0.930 . S
H491 C503 0.929 . S
H492 C506 0.930 . S
H493 C508 0.960 . S
H494 C508 0.960 . S
H495 C508 0.960 . S
C496 H488 0.929 . S
C496 C497 1.377 . S
C496 C498 1.384 . S
C497 C496 1.377 . S
C497 C503 1.390 . S
C498 H489 0.930 . S
C498 C496 1.384 . S
C498 C499 1.372 . S
C499 C498 1.372 . S
C499 C500 1.400 . S
C499 C504 1.490 . S
C500 H490 0.930 . S
C500 C499 1.400 . S
C500 C503 1.386 . S
H501 C517 0.930 . S
H502 C518 0.931 . S
C503 H491 0.929 . S
C503 C497 1.390 . S
C503 C500 1.386 . S
C504 C499 1.490 . S
C504 C506 1.395 . S
C504 C507 1.403 . S
H505 C511 0.930 . S
C506 H492 0.930 . S
C506 C504 1.395 . S
C506 C509 1.403 . S
C507 C504 1.403 . S
C507 C508 1.524 . S
C507 C511 1.400 . S
C508 H493 0.960 . S
C508 H494 0.960 . S
C508 H495 0.960 . S
C508 C507 1.524 . S
C509 C506 1.403 . S
C509 C510 1.392 . S
C509 C513 1.495 . S
C510 C509 1.392 . S
C510 C511 1.385 . S
C510 C512 1.478 . S
C511 H505 0.930 . S
C511 C507 1.400 . S
C511 C510 1.385 . S
C512 C510 1.478 . S
C512 C514 1.381 . S
C512 C518 1.383 . S
C513 C509 1.495 . S
C513 H519 0.959 . S
C513 H520 0.961 . S
C513 H521 0.960 . S
C514 C512 1.381 . S
C514 C515 1.394 . S
C514 H522 0.930 . S
C515 C514 1.394 . S
C515 C516 1.383 . S
C515 H523 0.929 . S
C516 C515 1.383 . S
C516 C517 1.377 . S
C517 H501 0.930 . S
C517 C516 1.377 . S
C517 C518 1.379 . S
C518 H502 0.931 . S
C518 C512 1.383 . S
C518 C517 1.379 . S
H519 C513 0.959 . S
H520 C513 0.961 . S
H521 C513 0.960 . S
H522 C514 0.930 . S
H523 C515 0.929 . S
H524 C532 0.929 . S
H525 C534 0.930 . S
H526 C536 0.930 . S
H527 C539 0.929 . S
H528 C542 0.930 . S
H529 C544 0.960 . S
H530 C544 0.960 . S
H531 C544 0.960 . S
C532 H524 0.929 . S
C532 C533 1.377 . S
C532 C534 1.384 . S
C533 C532 1.377 . S
C533 C539 1.390 . S
C534 H525 0.930 . S
C534 C532 1.384 . S
C534 C535 1.372 . S
C535 C534 1.372 . S
C535 C536 1.400 . S
C535 C540 1.490 . S
C536 H526 0.930 . S
C536 C535 1.400 . S
C536 C539 1.386 . S
H537 C553 0.930 . S
H538 C554 0.931 . S
C539 H527 0.929 . S
C539 C533 1.390 . S
C539 C536 1.386 . S
C540 C535 1.490 . S
C540 C542 1.395 . S
C540 C543 1.403 . S
H541 C547 0.930 . S
C542 H528 0.930 . S
C542 C540 1.395 . S
C542 C545 1.403 . S
C543 C540 1.403 . S
C543 C544 1.524 . S
C543 C547 1.400 . S
C544 H529 0.960 . S
C544 H530 0.960 . S
C544 H531 0.960 . S
C544 C543 1.524 . S
C545 C542 1.403 . S
C545 C546 1.392 . S
C545 C549 1.495 . S
C546 C545 1.392 . S
C546 C547 1.385 . S
C546 C548 1.478 . S
C547 H541 0.930 . S
C547 C543 1.400 . S
C547 C546 1.385 . S
C548 C546 1.478 . S
C548 C550 1.381 . S
C548 C554 1.383 . S
C549 C545 1.495 . S
C549 H555 0.959 . S
C549 H556 0.961 . S
C549 H557 0.960 . S
C550 C548 1.381 . S
C550 C551 1.394 . S
C550 H558 0.930 . S
C551 C550 1.394 . S
C551 C552 1.383 . S
C551 H559 0.929 . S
C552 C551 1.383 . S
C552 C553 1.377 . S
C553 H537 0.930 . S
C553 C552 1.377 . S
C553 C554 1.379 . S
C554 H538 0.931 . S
C554 C548 1.383 . S
C554 C553 1.379 . S
H555 C549 0.959 . S
H556 C549 0.961 . S
H557 C549 0.960 . S
H558 C550 0.930 . S
H559 C551 0.929 . S
C137 C70 1.552 . S
C156 C4 1.555 . S
C173 C68 1.560 . S
C192 C6 1.559 . S
C209 C61 1.561 . S
C228 C98 1.557 . S
C245 C34 1.553 . S
C264 C125 1.552 . S
C281 C2 0.711 . S
C300 C29 0.695 . S
C317 C38 0.714 . S
C336 C36 0.709 . S
C353 C66 0.705 . S
C372 C93 0.710 . S
C389 C100 0.709 . S
C408 C102 0.731 . S
C425 N45 1.480 . S
C444 N18 1.463 . S
C461 N13 1.454 1_655 S
C480 N50 1.453 1_655 S
C497 N109 1.473 . S
C516 N82 1.447 . S
C533 N114 1.455 . S
C552 N77 1.454 . S
