# Generated by pormake.
# Topology vba, (4)-cn, num edge types: 1
# Building blocks:
#     Node 0, Type 0, BuildingBlock: NAWXER_clean_sbu_0, # of connection points: 4
#     Node 1, Type 0, BuildingBlock: NAWXER_clean_sbu_0, # of connection points: 4
#     Node 2, Type 0, BuildingBlock: NAWXER_clean_sbu_0, # of connection points: 4
#     Node 3, Type 0, BuildingBlock: NAWXER_clean_sbu_0, # of connection points: 4
#     Node 4, Type 0, BuildingBlock: NAWXER_clean_sbu_0, # of connection points: 4
#     Node 5, Type 0, BuildingBlock: NAWXER_clean_sbu_0, # of connection points: 4
#     Node 6, Type 0, BuildingBlock: NAWXER_clean_sbu_0, # of connection points: 4
#     Node 7, Type 0, BuildingBlock: NAWXER_clean_sbu_0, # of connection points: 4
#     Node 8, Type 0, BuildingBlock: NAWXER_clean_sbu_0, # of connection points: 4
#     Node 9, Type 0, BuildingBlock: NAWXER_clean_sbu_0, # of connection points: 4
#     Node 10, Type 0, BuildingBlock: NAWXER_clean_sbu_0, # of connection points: 4
#     Node 11, Type 0, BuildingBlock: NAWXER_clean_sbu_0, # of connection points: 4
#     Node 12, Type 0, BuildingBlock: NAWXER_clean_sbu_0, # of connection points: 4
#     Node 13, Type 0, BuildingBlock: NAWXER_clean_sbu_0, # of connection points: 4
#     Node 14, Type 0, BuildingBlock: NAWXER_clean_sbu_0, # of connection points: 4
#     Node 15, Type 0, BuildingBlock: NAWXER_clean_sbu_0, # of connection points: 4
#     Node 16, Type 0, BuildingBlock: NAWXER_clean_sbu_0, # of connection points: 4
#     Node 17, Type 0, BuildingBlock: NAWXER_clean_sbu_0, # of connection points: 4
#     Node 18, Type 0, BuildingBlock: NAWXER_clean_sbu_0, # of connection points: 4
#     Node 19, Type 0, BuildingBlock: NAWXER_clean_sbu_0, # of connection points: 4
#     Node 20, Type 0, BuildingBlock: NAWXER_clean_sbu_0, # of connection points: 4
#     Node 21, Type 0, BuildingBlock: NAWXER_clean_sbu_0, # of connection points: 4
#     Node 22, Type 0, BuildingBlock: NAWXER_clean_sbu_0, # of connection points: 4
#     Node 23, Type 0, BuildingBlock: NAWXER_clean_sbu_0, # of connection points: 4
#     Node 24, Type 0, BuildingBlock: NAWXER_clean_sbu_0, # of connection points: 4
#     Node 25, Type 0, BuildingBlock: NAWXER_clean_sbu_0, # of connection points: 4
#     Node 26, Type 0, BuildingBlock: NAWXER_clean_sbu_0, # of connection points: 4
#     Node 27, Type 0, BuildingBlock: NAWXER_clean_sbu_0, # of connection points: 4
#     Node 28, Type 0, BuildingBlock: NAWXER_clean_sbu_0, # of connection points: 4
#     Node 29, Type 0, BuildingBlock: NAWXER_clean_sbu_0, # of connection points: 4
#     Node 30, Type 0, BuildingBlock: NAWXER_clean_sbu_0, # of connection points: 4
#     Node 31, Type 0, BuildingBlock: NAWXER_clean_sbu_0, # of connection points: 4
#     Edge 32, Type (0, 0), BuildingBlock: KIFKEQ_clean_linker_1, # of connection points: 2
#     Edge 33, Type (0, 0), BuildingBlock: KIFKEQ_clean_linker_1, # of connection points: 2
#     Edge 34, Type (0, 0), BuildingBlock: KIFKEQ_clean_linker_1, # of connection points: 2
#     Edge 35, Type (0, 0), BuildingBlock: KIFKEQ_clean_linker_1, # of connection points: 2
#     Edge 36, Type (0, 0), BuildingBlock: KIFKEQ_clean_linker_1, # of connection points: 2
#     Edge 37, Type (0, 0), BuildingBlock: KIFKEQ_clean_linker_1, # of connection points: 2
#     Edge 38, Type (0, 0), BuildingBlock: KIFKEQ_clean_linker_1, # of connection points: 2
#     Edge 39, Type (0, 0), BuildingBlock: KIFKEQ_clean_linker_1, # of connection points: 2
#     Edge 40, Type (0, 0), BuildingBlock: KIFKEQ_clean_linker_1, # of connection points: 2
#     Edge 41, Type (0, 0), BuildingBlock: KIFKEQ_clean_linker_1, # of connection points: 2
#     Edge 42, Type (0, 0), BuildingBlock: KIFKEQ_clean_linker_1, # of connection points: 2
#     Edge 43, Type (0, 0), BuildingBlock: KIFKEQ_clean_linker_1, # of connection points: 2
#     Edge 44, Type (0, 0), BuildingBlock: KIFKEQ_clean_linker_1, # of connection points: 2
#     Edge 45, Type (0, 0), BuildingBlock: KIFKEQ_clean_linker_1, # of connection points: 2
#     Edge 46, Type (0, 0), BuildingBlock: KIFKEQ_clean_linker_1, # of connection points: 2
#     Edge 47, Type (0, 0), BuildingBlock: KIFKEQ_clean_linker_1, # of connection points: 2
#     Edge 48, Type (0, 0), BuildingBlock: KIFKEQ_clean_linker_1, # of connection points: 2
#     Edge 49, Type (0, 0), BuildingBlock: KIFKEQ_clean_linker_1, # of connection points: 2
#     Edge 50, Type (0, 0), BuildingBlock: KIFKEQ_clean_linker_1, # of connection points: 2
#     Edge 51, Type (0, 0), BuildingBlock: KIFKEQ_clean_linker_1, # of connection points: 2
#     Edge 52, Type (0, 0), BuildingBlock: KIFKEQ_clean_linker_1, # of connection points: 2
#     Edge 53, Type (0, 0), BuildingBlock: KIFKEQ_clean_linker_1, # of connection points: 2
#     Edge 54, Type (0, 0), BuildingBlock: KIFKEQ_clean_linker_1, # of connection points: 2
#     Edge 55, Type (0, 0), BuildingBlock: KIFKEQ_clean_linker_1, # of connection points: 2
#     Edge 56, Type (0, 0), BuildingBlock: KIFKEQ_clean_linker_1, # of connection points: 2
#     Edge 57, Type (0, 0), BuildingBlock: KIFKEQ_clean_linker_1, # of connection points: 2
#     Edge 58, Type (0, 0), BuildingBlock: KIFKEQ_clean_linker_1, # of connection points: 2
#     Edge 59, Type (0, 0), BuildingBlock: KIFKEQ_clean_linker_1, # of connection points: 2
#     Edge 60, Type (0, 0), BuildingBlock: KIFKEQ_clean_linker_1, # of connection points: 2
#     Edge 61, Type (0, 0), BuildingBlock: KIFKEQ_clean_linker_1, # of connection points: 2
#     Edge 62, Type (0, 0), BuildingBlock: KIFKEQ_clean_linker_1, # of connection points: 2
#     Edge 63, Type (0, 0), BuildingBlock: KIFKEQ_clean_linker_1, # of connection points: 2
#     Edge 64, Type (0, 0), BuildingBlock: KIFKEQ_clean_linker_1, # of connection points: 2
#     Edge 65, Type (0, 0), BuildingBlock: KIFKEQ_clean_linker_1, # of connection points: 2
#     Edge 66, Type (0, 0), BuildingBlock: KIFKEQ_clean_linker_1, # of connection points: 2
#     Edge 67, Type (0, 0), BuildingBlock: KIFKEQ_clean_linker_1, # of connection points: 2
#     Edge 68, Type (0, 0), BuildingBlock: KIFKEQ_clean_linker_1, # of connection points: 2
#     Edge 69, Type (0, 0), BuildingBlock: KIFKEQ_clean_linker_1, # of connection points: 2
#     Edge 70, Type (0, 0), BuildingBlock: KIFKEQ_clean_linker_1, # of connection points: 2
#     Edge 71, Type (0, 0), BuildingBlock: KIFKEQ_clean_linker_1, # of connection points: 2
#     Edge 72, Type (0, 0), BuildingBlock: KIFKEQ_clean_linker_1, # of connection points: 2
#     Edge 73, Type (0, 0), BuildingBlock: KIFKEQ_clean_linker_1, # of connection points: 2
#     Edge 74, Type (0, 0), BuildingBlock: KIFKEQ_clean_linker_1, # of connection points: 2
#     Edge 75, Type (0, 0), BuildingBlock: KIFKEQ_clean_linker_1, # of connection points: 2
#     Edge 76, Type (0, 0), BuildingBlock: KIFKEQ_clean_linker_1, # of connection points: 2
#     Edge 77, Type (0, 0), BuildingBlock: KIFKEQ_clean_linker_1, # of connection points: 2
#     Edge 78, Type (0, 0), BuildingBlock: KIFKEQ_clean_linker_1, # of connection points: 2
#     Edge 79, Type (0, 0), BuildingBlock: KIFKEQ_clean_linker_1, # of connection points: 2
#     Edge 80, Type (0, 0), BuildingBlock: KIFKEQ_clean_linker_1, # of connection points: 2
#     Edge 81, Type (0, 0), BuildingBlock: KIFKEQ_clean_linker_1, # of connection points: 2
#     Edge 82, Type (0, 0), BuildingBlock: KIFKEQ_clean_linker_1, # of connection points: 2
#     Edge 83, Type (0, 0), BuildingBlock: KIFKEQ_clean_linker_1, # of connection points: 2
#     Edge 84, Type (0, 0), BuildingBlock: KIFKEQ_clean_linker_1, # of connection points: 2
#     Edge 85, Type (0, 0), BuildingBlock: KIFKEQ_clean_linker_1, # of connection points: 2
#     Edge 86, Type (0, 0), BuildingBlock: KIFKEQ_clean_linker_1, # of connection points: 2
#     Edge 87, Type (0, 0), BuildingBlock: KIFKEQ_clean_linker_1, # of connection points: 2
#     Edge 88, Type (0, 0), BuildingBlock: KIFKEQ_clean_linker_1, # of connection points: 2
#     Edge 89, Type (0, 0), BuildingBlock: KIFKEQ_clean_linker_1, # of connection points: 2
#     Edge 90, Type (0, 0), BuildingBlock: KIFKEQ_clean_linker_1, # of connection points: 2
#     Edge 91, Type (0, 0), BuildingBlock: KIFKEQ_clean_linker_1, # of connection points: 2
#     Edge 92, Type (0, 0), BuildingBlock: KIFKEQ_clean_linker_1, # of connection points: 2
#     Edge 93, Type (0, 0), BuildingBlock: KIFKEQ_clean_linker_1, # of connection points: 2
#     Edge 94, Type (0, 0), BuildingBlock: KIFKEQ_clean_linker_1, # of connection points: 2
#     Edge 95, Type (0, 0), BuildingBlock: KIFKEQ_clean_linker_1, # of connection points: 2
# Relax obj value: 0.002
# Max RMSD: 0.073
# Mean RMSD: 0.072
data_MOF--net-vba--node1-NAWXER_clean_sbu_0--edge1-KIFKEQ_clean_linker_1
_symmetry_space_group_name_H-M    P1
_symmetry_Int_Tables_number       1
_symmetry_cell_setting            triclinic
loop_
_symmetry_equiv_pos_as_xyz
'x, y, z'
_cell_length_a     17.160234
_cell_length_b     108.25016
_cell_length_c     57.115128
_cell_angle_alpha  89.982849
_cell_angle_beta   89.854473
_cell_angle_gamma 89.96128
loop_
_atom_site_label
_atom_site_type_symbol
_atom_site_fract_x
_atom_site_fract_y
_atom_site_fract_z
_atom_type_partial_charge
C0 C 0.39009 0.05287 0.0206 0.0
C1 C 0.25537 0.09306 0.02499 0.0
O2 O 0.31727 0.05291 0.01604 0.0
Zn3 Zn 0.21993 0.0646 0.01376 0.0
O4 O 0.42357 0.06287 0.02687 0.0
Zn5 Zn 0.33038 0.07344 0.02417 0.0
O6 O 0.26294 0.06667 0.05218 0.0
O7 O 0.15435 0.05807 0.03974 0.0
O8 O 0.32731 0.09134 0.02949 0.0
O9 O 0.21297 0.08386 0.01908 0.0
O10 O 0.20106 0.06293 0.97952 0.0
O11 O 0.31229 0.07211 0.98773 0.0
C12 C 0.19909 0.06107 0.05664 0.0
C13 C 0.2644 0.06794 0.97255 0.0
C14 C 0.8719 0.21809 0.01701 0.0
C15 C -0.00167 0.17716 0.02073 0.0
O16 O 0.94382 0.21756 1.01132 0.0
Zn17 Zn 0.03772 0.20526 1.00774 0.0
O18 O 0.83651 0.20829 0.02351 0.0
Zn19 Zn 0.92652 0.19712 0.01963 0.0
O20 O -0.0012 0.20391 0.04627 0.0
O21 O 0.10807 0.21171 0.0322 0.0
O22 O 0.92716 0.17925 0.02584 0.0
O23 O 0.04161 0.18609 0.0139 0.0
O24 O 0.05347 0.20658 0.97362 0.0
O25 O 0.94052 0.19818 0.98304 0.0
C26 C 0.06413 0.20926 0.04966 0.0
C27 C 0.98819 0.20199 0.9674 0.0
C28 C 0.18984 0.20945 0.22074 0.0
C29 C 0.24135 0.20294 0.30472 0.0
O30 O 0.25478 0.2043 0.22575 0.0
Zn31 Zn 0.32069 0.19826 0.25471 0.0
O32 O 0.14254 0.21226 0.23717 0.0
Zn33 Zn 0.207 0.20641 0.26334 0.0
O34 O 0.29996 0.2189 0.26124 0.0
O35 O 0.41079 0.20948 0.25309 0.0
O36 O 0.1803 0.20815 0.2967 0.0
O37 O 0.29397 0.19902 0.29071 0.0
O38 O 0.32497 0.1804 0.24935 0.0
O39 O 0.20683 0.18701 0.25834 0.0
C40 C 0.37323 0.21939 0.25745 0.0
C41 C 0.25313 0.17813 0.25316 0.0
C42 C 0.02373 0.09222 0.26017 0.0
C43 C 0.89679 0.05181 0.26956 0.0
O44 O 0.06962 0.08337 0.26579 0.0
Zn45 Zn 0.06685 0.06406 0.27255 0.0
O46 O 0.95141 0.09003 0.25731 0.0
Zn47 Zn 0.95466 0.07237 0.2641 0.0
O48 O 0.98324 0.07219 0.30025 0.0
O49 O 0.09736 0.06333 0.30598 0.0
O50 O 0.86247 0.06178 0.26365 0.0
O51 O 0.97044 0.05184 0.273 0.0
O52 O 0.12869 0.05748 0.24596 0.0
O53 O 0.01696 0.06558 0.23488 0.0
C54 C 0.03681 0.06862 0.31428 0.0
C55 C 0.08094 0.06017 0.22964 0.0
C56 C 0.75632 0.95606 0.05701 0.0
C57 C 0.8582 0.95988 0.97642 0.0
O58 O 0.82301 0.96039 0.05156 0.0
Zn59 Zn 0.81536 0.95798 0.01744 0.0
O60 O 0.71238 0.95177 0.0409 0.0
Zn61 Zn 0.70914 0.94948 1.00416 0.0
O62 O 0.70727 0.93157 1.00044 0.0
O63 O 0.82011 0.93844 0.01357 0.0
O64 O 0.79185 0.95459 0.97826 0.0
O65 O 0.89372 0.9636 0.99468 0.0
O66 O 0.72418 0.9703 1.00942 0.0
O67 O 0.62084 0.96022 0.99658 0.0
C68 C 0.77693 0.92944 1.00698 0.0
C69 C 0.65416 0.97037 1.00187 0.0
C70 C 0.95821 0.81329 0.97079 0.0
C71 C 0.0308 0.81726 0.05399 0.0
O72 O 0.91467 0.81002 0.98785 0.0
Zn73 Zn 0.98378 0.81566 0.01308 0.0
O74 O 0.02304 0.81868 0.97494 0.0
Zn75 Zn 0.09357 0.82454 1.00305 0.0
O76 O 0.18593 0.81418 0.99846 0.0
O77 O 0.07921 0.8037 1.00745 0.0
O78 O 0.07844 0.82187 0.03916 0.0
O79 O 0.96631 0.81279 0.04684 0.0
O80 O 0.97776 0.83513 1.00979 0.0
O81 O 0.09289 0.84249 0.9997 0.0
C82 C 0.15166 0.80391 1.00225 0.0
C83 C 0.02139 0.84434 1.00464 0.0
C84 C 0.81865 0.81278 0.80041 0.0
C85 C 0.74658 0.81895 0.71769 0.0
O86 O 0.86314 0.8102 0.78316 0.0
Zn87 Zn 0.79298 0.816 0.75817 0.0
O88 O 0.75255 0.81783 0.79663 0.0
Zn89 Zn 0.6802 0.82393 0.76938 0.0
O90 O 0.59166 0.81233 0.77295 0.0
O91 O 0.7012 0.80342 0.76171 0.0
O92 O 0.69771 0.82285 0.73293 0.0
O93 O 0.81084 0.81414 0.72427 0.0
O94 O 0.79306 0.83535 0.76293 0.0
O95 O 0.67764 0.84192 0.77467 0.0
C96 C 0.62907 0.80262 0.76696 0.0
C97 C 0.74822 0.84423 0.76912 0.0
C98 C 0.14703 0.96778 0.76023 0.0
C99 C -4e-05 0.92892 0.76784 0.0
O100 O 0.1768 0.95724 0.76455 0.0
Zn101 Zn 0.0785 0.94797 0.76513 0.0
O102 O 0.07302 0.96889 0.75874 0.0
Zn103 Zn 0.9703 0.9581 0.76067 0.0
O104 O 0.91941 0.96461 0.78914 0.0
O105 O 0.02707 0.95425 0.79656 0.0
O106 O 0.95741 0.93851 0.76464 0.0
O107 O 0.07367 0.93013 0.76927 0.0
O108 O 0.04014 0.94993 0.72995 0.0
O109 O 0.9315 0.96092 0.72879 0.0
C110 C 0.96816 0.96037 0.80391 0.0
C111 C 0.98542 0.95502 0.71819 0.0
C112 C 0.17445 0.56098 0.55039 0.0
C113 C 0.25901 0.56734 0.46835 0.0
O114 O 0.24093 0.56603 0.54724 0.0
Zn115 Zn 0.31639 0.57238 0.52086 0.0
O116 O 0.1314 0.55863 0.53274 0.0
Zn117 Zn 0.20485 0.56464 0.5085 0.0
O118 O 0.29625 0.55187 0.51305 0.0
O119 O 0.40419 0.56075 0.52554 0.0
O120 O 0.19207 0.56321 0.47421 0.0
O121 O 0.3058 0.57103 0.48425 0.0
O122 O 0.31722 0.59039 0.52657 0.0
O123 O 0.20279 0.58389 0.51427 0.0
C124 C 0.36756 0.55103 0.51921 0.0
C125 C 0.24667 0.59272 0.52112 0.0
C126 C 0.00129 0.67809 0.52308 0.0
C127 C 0.87698 0.71953 0.52052 0.0
O128 O 0.04482 0.687 0.51635 0.0
Zn129 Zn 0.04139 0.70625 0.51053 0.0
O130 O 0.93038 0.68029 0.5284 0.0
Zn131 Zn 0.93003 0.69829 0.52263 0.0
O132 O 0.94307 0.69953 0.48611 0.0
O133 O 0.0565 0.70771 0.47649 0.0
O134 O 0.84086 0.70975 0.52681 0.0
O135 O 0.94869 0.71883 0.51462 0.0
O136 O 0.11308 0.71251 0.53464 0.0
O137 O 0.00361 0.70493 0.54908 0.0
C138 C 0.99059 0.70332 0.47041 0.0
C139 C 0.06945 0.71017 0.55222 0.0
C140 C 0.27731 0.70248 0.80484 0.0
C141 C 0.20546 0.70791 0.72195 0.0
O142 O 0.32549 0.69829 0.78974 0.0
Zn143 Zn 0.34146 0.69629 0.75369 0.0
O144 O 0.21261 0.707 0.79797 0.0
Zn145 Zn 0.23021 0.70491 0.764 0.0
O146 O 0.22447 0.68561 0.75851 0.0
O147 O 0.3409 0.67826 0.74955 0.0
O148 O 0.16175 0.71106 0.73907 0.0
O149 O 0.27017 0.70243 0.72594 0.0
O150 O 0.43243 0.70721 0.74941 0.0
O151 O 0.32424 0.71708 0.75905 0.0
C152 C 0.26842 0.67648 0.75314 0.0
C153 C 0.39651 0.7173 0.7537 0.0
C154 C 0.99257 0.59384 0.754 0.0
C155 C 0.84993 0.55436 0.75623 0.0
O156 O 0.03418 0.58435 0.75879 0.0
Zn157 Zn 0.02199 0.56498 0.76383 0.0
O158 O 0.91942 0.59262 0.75094 0.0
Zn159 Zn 0.91362 0.5747 0.75515 0.0
O160 O 0.93511 0.57292 0.79105 0.0
O161 O 0.04305 0.56239 0.79757 0.0
O162 O 0.81757 0.56482 0.75279 0.0
O163 O 0.92301 0.55375 0.76015 0.0
O164 O 0.08502 0.55842 0.73788 0.0
O165 O 0.97843 0.56803 0.72614 0.0
C166 C 0.98329 0.56808 0.80536 0.0
C167 C 0.04069 0.56202 0.72129 0.0
C168 C 0.80494 0.45762 0.47193 0.0
C169 C 0.7366 0.45271 0.55517 0.0
O170 O 0.84872 0.46098 0.48879 0.0
Zn171 Zn 0.78162 0.45487 0.5142 0.0
O172 O 0.74117 0.45196 0.47631 0.0
Zn173 Zn 0.67213 0.44571 0.50442 0.0
O174 O 0.57871 0.45618 0.50042 0.0
O175 O 0.68509 0.46663 0.50934 0.0
O176 O 0.68896 0.44805 0.54047 0.0
O177 O 0.79976 0.45759 0.54785 0.0
O178 O 0.79031 0.43543 0.51037 0.0
O179 O 0.67618 0.42768 0.50054 0.0
C180 C 0.61258 0.46647 0.50437 0.0
C181 C 0.74816 0.42608 0.50514 0.0
C182 C 0.02176 0.31462 0.55549 0.0
C183 C 0.94249 0.31083 0.47272 0.0
O184 O 0.95595 0.3104 0.5489 0.0
Zn185 Zn 0.97026 0.31317 0.51494 0.0
O186 O 0.06852 0.3191 0.54028 0.0
Zn187 Zn 0.0809 0.32182 0.50415 0.0
O188 O 0.07952 0.33993 0.50067 0.0
O189 O 0.96515 0.3326 0.5115 0.0
O190 O 0.00784 0.31609 0.47667 0.0
O191 O 0.89919 0.30767 0.48992 0.0
O192 O 0.06356 0.30095 0.50846 0.0
O193 O 0.1714 0.31091 0.49869 0.0
C194 C 0.00827 0.3418 0.50599 0.0
C195 C 0.13543 0.30078 0.50261 0.0
C196 C 0.7552 0.34383 0.27181 0.0
C197 C 0.61958 0.30376 0.26751 0.0
O198 O 0.68338 0.34205 0.27646 0.0
Zn199 Zn 0.68002 0.32426 0.27057 0.0
O200 O 0.79775 0.33469 0.26551 0.0
Zn201 Zn 0.78958 0.31537 0.25989 0.0
O202 O 0.80901 0.31346 0.22612 0.0
O203 O 0.69852 0.32313 0.23407 0.0
O204 O 0.69213 0.30372 0.26251 0.0
O205 O 0.58654 0.3138 0.27378 0.0
O206 O 0.74756 0.31719 0.29812 0.0
O207 O 0.85551 0.30853 0.28499 0.0
C208 C 0.74688 0.31877 0.21913 0.0
C209 C 0.81106 0.3114 0.30208 0.0
C210 C 0.93095 0.46055 0.30132 0.0
C211 C 0.00372 0.45398 0.21883 0.0
O212 O 0.88577 0.46281 0.28413 0.0
Zn213 Zn 0.95621 0.45683 0.25937 0.0
O214 O 0.99717 0.4555 0.29761 0.0
Zn215 Zn 0.06948 0.44912 0.27047 0.0
O216 O 0.15766 0.46074 0.27381 0.0
O217 O 0.04769 0.46954 0.26272 0.0
O218 O 0.05291 0.45028 0.23407 0.0
O219 O 0.9382 0.45833 0.22551 0.0
O220 O 0.95626 0.43761 0.26497 0.0
O221 O 0.07223 0.43116 0.2762 0.0
C222 C 0.11976 0.47042 0.26794 0.0
C223 C 0.00131 0.42881 0.27128 0.0
C224 C 0.78824 0.06534 0.56577 0.0
C225 C 0.85496 0.0707 0.48271 0.0
O226 O 0.85064 0.0697 0.55704 0.0
Zn227 Zn 0.82022 0.06894 0.52439 0.0
O228 O 0.7319 0.0624 0.5521 0.0
Zn229 Zn 0.70794 0.06253 0.51487 0.0
O230 O 0.68811 0.0451 0.5089 0.0
O231 O 0.80958 0.04935 0.5186 0.0
O232 O 0.78473 0.06692 0.48581 0.0
O233 O 0.89642 0.07327 0.50047 0.0
O234 O 0.73301 0.08317 0.52194 0.0
O235 O 0.62263 0.07431 0.51189 0.0
C236 C 0.75743 0.04145 0.51272 0.0
C237 C 0.66012 0.08402 0.5172 0.0
C238 C 0.43233 0.17041 0.51814 0.0
C239 C 0.33766 0.21371 0.51874 0.0
O240 O 0.48221 0.17873 0.51267 0.0
Zn241 Zn 0.49308 0.19813 0.50921 0.0
O242 O 0.3634 0.17365 0.52391 0.0
Zn243 Zn 0.37705 0.19166 0.5199 0.0
O244 O 0.39573 0.19304 0.48332 0.0
O245 O 0.51354 0.20028 0.47562 0.0
O246 O 0.29499 0.20444 0.52392 0.0
O247 O 0.40913 0.21198 0.51349 0.0
O248 O 0.56617 0.20258 0.53414 0.0
O249 O 0.45281 0.19616 0.5478 0.0
C250 C 0.44735 0.19648 0.4685 0.0
C251 C 0.52163 0.20025 0.55149 0.0
C252 C 0.68502 0.20666 0.72041 0.0
C253 C 0.77397 0.20307 0.80254 0.0
O254 O 0.7538 0.20247 0.72367 0.0
Zn255 Zn 0.83292 0.19773 0.75024 0.0
O256 O 0.64214 0.20922 0.73806 0.0
Zn257 Zn 0.71866 0.20477 0.76247 0.0
O258 O 0.80477 0.21822 0.75655 0.0
O259 O 0.91594 0.21003 0.7447 0.0
O260 O 0.70558 0.20658 0.79678 0.0
O261 O 0.82164 0.19961 0.78663 0.0
O262 O 0.84133 0.17962 0.74631 0.0
O263 O 0.7249 0.18551 0.75833 0.0
C264 C 0.87573 0.21954 0.75022 0.0
C265 C 0.77169 0.17689 0.75224 0.0
C266 C 0.43072 0.04914 0.75182 0.0
C267 C 0.54372 0.09068 0.7595 0.0
O268 O 0.49685 0.04941 0.76214 0.0
Zn269 Zn 0.58142 0.06251 0.77339 0.0
O270 O 0.3993 0.0592 0.74511 0.0
Zn271 Zn 0.48118 0.07025 0.75608 0.0
O272 O 0.57651 0.0655 0.73365 0.0
O273 O 0.67192 0.05739 0.75465 0.0
O274 O 0.47705 0.08807 0.75109 0.0
O275 O 0.58547 0.08205 0.76833 0.0
O276 O 0.57616 0.06071 0.80763 0.0
O277 O 0.46778 0.06835 0.79298 0.0
C278 C 0.64481 0.0608 0.73492 0.0
C279 C 0.5067 0.06456 0.81068 0.0
C280 C 0.21233 0.95523 0.46523 0.0
C281 C 0.13252 0.95138 0.54763 0.0
O282 O 0.24622 0.96001 0.48285 0.0
Zn283 Zn 0.17892 0.95298 0.50681 0.0
O284 O 0.15362 0.94809 0.46846 0.0
Zn285 Zn 0.08509 0.94094 0.49697 0.0
O286 O 0.98177 0.94782 0.48994 0.0
O287 O 0.0716 0.96177 0.49826 0.0
O288 O 0.09181 0.94485 0.53353 0.0
O289 O 0.18975 0.9576 0.53971 0.0
O290 O 0.20996 0.93383 0.50574 0.0
O291 O 0.10596 0.92327 0.49532 0.0
C292 C 0.00177 0.95908 0.49232 0.0
C293 C 0.17762 0.92346 0.50101 0.0
C294 C 0.43139 0.81333 0.47509 0.0
C295 C 0.50115 0.81713 0.55846 0.0
O296 O 0.39006 0.8089 0.4917 0.0
Zn297 Zn 0.45755 0.8146 0.51747 0.0
O298 O 0.49476 0.81901 0.47974 0.0
Zn299 Zn 0.56569 0.82448 0.50783 0.0
O300 O 0.65971 0.81415 0.50309 0.0
O301 O 0.55458 0.80331 0.51165 0.0
O302 O 0.54776 0.82215 0.54383 0.0
O303 O 0.4407 0.81147 0.55118 0.0
O304 O 0.44713 0.83413 0.51467 0.0
O305 O 0.55956 0.84256 0.50465 0.0
C306 C 0.62693 0.80373 0.50653 0.0
C307 C 0.48743 0.84375 0.50971 0.0
C308 C 0.30643 0.81447 0.30332 0.0
C309 C 0.22715 0.81673 0.22049 0.0
O310 O 0.34711 0.81021 0.28641 0.0
Zn311 Zn 0.27688 0.81567 0.26122 0.0
O312 O 0.2419 0.81995 0.29916 0.0
Zn313 Zn 0.16827 0.825 0.27125 0.0
O314 O 0.076 0.81481 0.27731 0.0
O315 O 0.18131 0.80401 0.26819 0.0
O316 O 0.18075 0.82166 0.2353 0.0
O317 O 0.29199 0.81232 0.2275 0.0
O318 O 0.2846 0.83524 0.26356 0.0
O319 O 0.17011 0.84301 0.27333 0.0
C320 C 0.10934 0.80442 0.27388 0.0
C321 C 0.2418 0.84461 0.2683 0.0
C322 C 0.62594 0.96936 0.27741 0.0
C323 C 0.4983 0.92888 0.26947 0.0
O324 O 0.65771 0.959 0.28215 0.0
Zn325 Zn 0.56859 0.94875 0.27346 0.0
O326 O 0.55647 0.96966 0.26933 0.0
Zn327 Zn 0.4644 0.95757 0.25975 0.0
O328 O 0.3831 0.96282 0.28191 0.0
O329 O 0.48545 0.95437 0.29895 0.0
O330 O 0.4571 0.93808 0.26275 0.0
O331 O 0.56732 0.93075 0.27681 0.0
O332 O 0.56917 0.95151 0.23679 0.0
O333 O 0.4597 0.9604 0.22575 0.0
C334 C 0.41854 0.95954 0.30051 0.0
C335 C 0.52663 0.95606 0.22057 0.0
C336 C 0.74373 0.56806 0.96602 0.0
C337 C 0.68241 0.55996 0.04929 0.0
O338 O 0.793 0.57202 0.98099 0.0
Zn339 Zn 0.81384 0.57257 0.01731 0.0
O340 O 0.68132 0.56279 0.97299 0.0
Zn341 Zn 0.7019 0.56413 1.00691 0.0
O342 O 0.69703 0.58331 0.01325 0.0
O343 O 0.81237 0.59039 0.02372 0.0
O344 O 0.63656 0.5574 0.03241 0.0
O345 O 0.74664 0.5655 0.04504 0.0
O346 O 0.90585 0.5616 0.01905 0.0
O347 O 0.79745 0.55219 1.00841 0.0
C348 C 0.74039 0.59233 0.01954 0.0
C349 C 0.87035 0.5518 0.01266 0.0
C350 C 0.38112 0.71919 0.02324 0.0
C351 C 0.49256 0.67715 0.01941 0.0
O352 O 0.45194 0.71819 0.01664 0.0
Zn353 Zn 0.54037 0.70538 1.01002 0.0
O354 O 0.34238 0.70949 0.02842 0.0
Zn355 Zn 0.42719 0.6976 0.02184 0.0
O356 O 0.50639 0.70197 0.04837 0.0
O357 O 0.61518 0.71023 0.03463 0.0
O358 O 0.42227 0.67953 0.02522 0.0
O359 O 0.53802 0.686 0.01356 0.0
O360 O 0.55306 0.70774 0.97596 0.0
O361 O 0.43831 0.70004 0.98559 0.0
C362 C 0.57375 0.7066 0.0519 0.0
C363 C 0.48546 0.704 0.96996 0.0
C364 C 0.77491 0.70448 0.3061 0.0
C365 C 0.68667 0.70723 0.22415 0.0
O366 O 0.82167 0.7005 0.29038 0.0
Zn367 Zn 0.8331 0.69814 0.25418 0.0
O368 O 0.70758 0.7084 0.30019 0.0
Zn369 Zn 0.72 0.70609 0.26607 0.0
O370 O 0.72188 0.68672 0.26263 0.0
O371 O 0.83703 0.68 0.25088 0.0
O372 O 0.64535 0.71094 0.24138 0.0
O373 O 0.75393 0.70256 0.22771 0.0
O374 O 0.91822 0.71004 0.24776 0.0
O375 O 0.80876 0.7188 0.25949 0.0
C376 C 0.76667 0.67777 0.25683 0.0
C377 C 0.87963 0.71976 0.25294 0.0
C378 C 0.50185 0.59425 0.25335 0.0
C379 C 0.36048 0.55468 0.25047 0.0
O380 O 0.54194 0.58473 0.25898 0.0
Zn381 Zn 0.52976 0.5654 0.26283 0.0
O382 O 0.43004 0.59299 0.24823 0.0
Zn383 Zn 0.42273 0.57504 0.2519 0.0
O384 O 0.43294 0.57237 0.28807 0.0
O385 O 0.54172 0.56266 0.297 0.0
O386 O 0.32852 0.56512 0.24642 0.0
O387 O 0.43209 0.55414 0.25642 0.0
O388 O 0.59891 0.55908 0.23777 0.0
O389 O 0.49402 0.56855 0.22447 0.0
C390 C 0.47742 0.56754 0.30345 0.0
C391 C 0.55722 0.56264 0.22053 0.0
C392 C 0.21712 0.45495 0.05432 0.0
C393 C 0.30538 0.45548 0.97217 0.0
O394 O 0.2839 0.45887 0.04783 0.0
Zn395 Zn 0.27203 0.45525 0.01411 0.0
O396 O 0.17132 0.45015 0.03929 0.0
Zn397 Zn 0.16171 0.44632 1.00356 0.0
O398 O 0.16095 0.42824 1.00237 0.0
O399 O 0.27532 0.43574 0.01283 0.0
O400 O 0.23939 0.45048 0.97631 0.0
O401 O 0.34576 0.45985 0.98897 0.0
O402 O 0.18008 0.46724 1.00569 0.0
O403 O 0.07333 0.4571 0.99577 0.0
C404 C 0.23178 0.42646 1.00817 0.0
C405 C 0.10901 0.46729 0.99911 0.0
C406 C 0.50499 0.31629 0.05917 0.0
C407 C 0.42666 0.31241 0.97638 0.0
O408 O 0.44296 0.31087 0.05245 0.0
Zn409 Zn 0.45722 0.31372 0.0185 0.0
O410 O 0.55122 0.321 0.04407 0.0
Zn411 Zn 0.56591 0.32305 1.00785 0.0
O412 O 0.56387 0.34099 1.00442 0.0
O413 O 0.45013 0.33327 0.01526 0.0
O414 O 0.49131 0.31786 0.98038 0.0
O415 O 0.38639 0.30817 0.9934 0.0
O416 O 0.55181 0.30206 1.01195 0.0
O417 O 0.65755 0.3125 1.00222 0.0
C418 C 0.49236 0.3426 1.0098 0.0
C419 C 0.62358 0.30222 1.00607 0.0
C420 C 0.30161 0.31341 0.80449 0.0
C421 C 0.22628 0.31575 0.72118 0.0
O422 O 0.34256 0.30892 0.78785 0.0
Zn423 Zn 0.2747 0.31458 0.76213 0.0
O424 O 0.23833 0.31915 0.79988 0.0
Zn425 Zn 0.16714 0.32446 0.77163 0.0
O426 O 0.07264 0.3146 0.77732 0.0
O427 O 0.17675 0.3034 0.76884 0.0
O428 O 0.18061 0.32096 0.73583 0.0
O429 O 0.28992 0.311 0.72841 0.0
O430 O 0.28623 0.33412 0.7642 0.0
O431 O 0.17295 0.34249 0.77342 0.0
C432 C 0.10455 0.30408 0.77415 0.0
C433 C 0.24515 0.34373 0.76865 0.0
C434 C 0.5062 0.42773 0.76624 0.0
C435 C 0.61745 0.4697 0.77444 0.0
O436 O 0.57583 0.42996 0.7728 0.0
Zn437 Zn 0.57137 0.44815 0.77074 0.0
O438 O 0.46148 0.43673 0.7607 0.0
Zn439 Zn 0.45999 0.45621 0.75857 0.0
O440 O 0.45047 0.45924 0.7247 0.0
O441 O 0.56464 0.45143 0.7346 0.0
O442 O 0.54745 0.46893 0.76707 0.0
O443 O 0.65546 0.45985 0.77903 0.0
O444 O 0.48898 0.45201 0.79689 0.0
O445 O 0.38209 0.4606 0.78259 0.0
C446 C 0.51886 0.45571 0.71896 0.0
C447 C 0.42122 0.45663 0.8 0.0
H448 H 0.29436 0.06428 0.09402 0.0
H449 H 0.06264 0.05189 0.07625 0.0
H450 H 0.26546 0.06189 0.13514 0.0
H451 H 0.03398 0.04912 0.11805 0.0
H452 H 0.9834 0.06386 0.1928 0.0
H453 H 0.01064 0.0619 0.15139 0.0
H454 H 0.24173 0.04846 0.16723 0.0
H455 H 0.21496 0.05082 0.20915 0.0
C456 C 0.23716 0.06089 0.09884 0.0
C457 C 0.18045 0.05842 0.08166 0.0
C458 C 0.22092 0.05937 0.12262 0.0
C459 C 0.14739 0.0553 0.13014 0.0
C460 C 0.09109 0.05242 0.11296 0.0
C461 C 0.10748 0.05395 0.08897 0.0
C462 C 0.04008 0.0604 0.1876 0.0
C463 C 0.09743 0.05765 0.20445 0.0
C464 C 0.05536 0.05914 0.16368 0.0
C465 C 0.12849 0.05507 0.15576 0.0
C466 C 0.18503 0.05182 0.17262 0.0
C467 C 0.16969 0.0531 0.1967 0.0
H468 H 0.27955 0.20325 0.18329 0.0
H469 H 0.06267 0.22126 0.20133 0.0
H470 H 0.25203 0.20595 0.14217 0.0
H471 H 0.03599 0.22436 0.15963 0.0
H472 H 0.96751 0.20906 0.08717 0.0
H473 H -0.00053 0.21148 0.12797 0.0
H474 H 0.23854 0.2194 0.1093 0.0
H475 H 0.20654 0.21651 0.0678 0.0
C476 C 0.22615 0.20795 0.17851 0.0
C477 C 0.1727 0.2119 0.19571 0.0
C478 C 0.21091 0.20963 0.15477 0.0
C479 C 0.14186 0.21538 0.14744 0.0
C480 C 0.0894 0.21974 0.16464 0.0
C481 C 0.10457 0.21799 0.18854 0.0
C482 C 0.02706 0.2114 0.0916 0.0
C483 C 0.08492 0.21236 0.07415 0.0
C484 C 0.04511 0.21295 0.11515 0.0
C485 C 0.12162 0.21559 0.12208 0.0
C486 C 0.17909 0.21719 0.10459 0.0
C487 C 0.16087 0.2156 0.08081 0.0
H488 H 0.05313 0.94936 0.83805 0.0
H489 H 0.86115 0.97472 0.82821 0.0
H490 H 0.03595 0.95054 0.88011 0.0
H491 H 0.84453 0.97592 0.871 0.0
H492 H 0.89519 0.98102 0.95241 0.0
H493 H 0.92481 0.98251 0.91019 0.0
H494 H 0.91998 0.94273 0.90514 0.0
H495 H 0.88916 0.94131 0.94679 0.0
C496 C 0.00751 0.9553 0.84482 0.0
C497 C 0.95803 0.96188 0.82962 0.0
C498 C 0.99785 0.95595 0.86901 0.0
C499 C 0.93897 0.9633 0.87881 0.0
C500 C 0.89084 0.97025 0.86384 0.0
C501 C 0.89995 0.96949 0.83939 0.0
C502 C 0.90262 0.97264 0.94227 0.0
C503 C 0.89171 0.96104 0.95279 0.0
C504 C 0.9183 0.97349 0.91815 0.0
C505 C 0.92454 0.96274 0.90444 0.0
C506 C 0.91614 0.95117 0.9153 0.0
C507 C 0.89905 0.95034 0.93912 0.0
H508 H 0.95915 0.80458 0.81829 0.0
H509 H 0.72535 0.81503 0.83857 0.0
H510 H 0.99278 0.80201 0.85971 0.0
H511 H 0.75917 0.81285 0.87934 0.0
H512 H 0.82506 0.80256 0.95275 0.0
H513 H 0.79314 0.7996 0.91131 0.0
H514 H 0.01349 0.81596 0.89169 0.0
H515 H 0.04587 0.81858 0.93247 0.0
C516 C 0.91496 0.80625 0.83149 0.0
C517 C 0.84005 0.81018 0.82507 0.0
C518 C 0.93412 0.80482 0.85521 0.0
C519 C 0.87869 0.80729 0.87292 0.0
C520 C 0.80308 0.8107 0.86631 0.0
C521 C 0.78404 0.81211 0.84278 0.0
C522 C 0.86672 0.80541 0.93954 0.0
C523 C 0.93751 0.81092 0.94599 0.0
C524 C 0.84855 0.80374 0.91581 0.0
C525 C 0.90085 0.80754 0.89811 0.0
C526 C 0.97237 0.81271 0.90472 0.0
C527 C 0.99043 0.81436 0.92826 0.0
H528 H 0.02869 0.55513 0.56822 0.0
H529 H 0.2693 0.56022 0.58813 0.0
H530 H 0.99374 0.55266 0.60967 0.0
H531 H 0.23465 0.5582 0.62889 0.0
H532 H 0.16384 0.54898 0.70216 0.0
H533 H 0.19145 0.5457 0.66052 0.0
H534 H 0.98433 0.56631 0.6425 0.0
H535 H 0.95584 0.56923 0.68357 0.0
C536 C 0.07405 0.5556 0.58133 0.0
C537 C 0.15142 0.55807 0.57484 0.0
C538 C 0.05417 0.55426 0.60509 0.0
C539 C 0.11136 0.55532 0.62272 0.0
C540 C 0.18908 0.55716 0.61595 0.0
C541 C 0.20876 0.55849 0.59243 0.0
C542 C 0.12406 0.5527 0.68927 0.0
C543 C 0.0582 0.55947 0.69628 0.0
C544 C 0.13978 0.55085 0.66539 0.0
C545 C 0.09011 0.55576 0.64805 0.0
C546 C 0.02322 0.5622 0.65521 0.0
C547 C 0.00746 0.56401 0.67892 0.0
H548 H 0.97335 0.71093 0.58982 0.0
H549 H 0.21392 0.71647 0.56986 0.0
H550 H 0.00743 0.7129 0.6306 0.0
H551 H 0.24815 0.71891 0.61127 0.0
H552 H 0.28678 0.70086 0.68346 0.0
H553 H 0.25693 0.70444 0.64281 0.0
H554 H 0.05134 0.72499 0.66292 0.0
H555 H 0.08055 0.72107 0.70428 0.0
C556 C 0.03369 0.71276 0.59412 0.0
C557 C 0.09139 0.71326 0.57657 0.0
C558 C 0.05299 0.71407 0.61764 0.0
C559 C 0.13058 0.71595 0.62433 0.0
C560 C 0.18786 0.71724 0.6067 0.0
C561 C 0.16841 0.71592 0.58299 0.0
C562 C 0.23519 0.70621 0.6794 0.0
C563 C 0.18549 0.71057 0.69723 0.0
C564 C 0.21871 0.70841 0.65593 0.0
C565 C 0.15209 0.71508 0.64949 0.0
C566 C 0.10297 0.71972 0.66729 0.0
C567 C 0.11948 0.71748 0.69097 0.0
H568 H 0.0293 0.46135 0.33825 0.0
H569 H 0.7871 0.46649 0.32006 0.0
H570 H 0.99752 0.46313 0.3793 0.0
H571 H 0.75518 0.46872 0.36172 0.0
H572 H 0.72267 0.45033 0.43392 0.0
H573 H 0.74995 0.45405 0.39311 0.0
H574 H 0.95415 0.47512 0.41203 0.0
H575 H 0.92753 0.47109 0.45354 0.0
C576 C 0.96909 0.46306 0.343 0.0
C577 C 0.91029 0.4635 0.32586 0.0
C578 C 0.95111 0.46425 0.36666 0.0
C579 C 0.87377 0.46596 0.37391 0.0
C580 C 0.81532 0.46719 0.35671 0.0
C581 C 0.83345 0.46598 0.33285 0.0
C582 C 0.77342 0.45582 0.42956 0.0
C583 C 0.8235 0.46031 0.4471 0.0
C584 C 0.7884 0.45809 0.40601 0.0
C585 C 0.85384 0.46496 0.3992 0.0
C586 C 0.90338 0.46971 0.4167 0.0
C587 C 0.88837 0.4674 0.44046 0.0
H588 H 0.7157 0.31393 0.33972 0.0
H589 H 0.94731 0.30185 0.32048 0.0
H590 H 0.74631 0.31125 0.38064 0.0
H591 H 0.97753 0.29875 0.362 0.0
H592 H 0.03251 0.3152 0.43455 0.0
H593 H 0.00079 0.31259 0.3938 0.0
H594 H 0.77534 0.29793 0.41302 0.0
H595 H 0.80676 0.30088 0.45454 0.0
C596 C 0.77315 0.31053 0.34419 0.0
C597 C 0.8297 0.30833 0.32675 0.0
C598 C 0.79028 0.30883 0.3678 0.0
C599 C 0.86445 0.30484 0.37473 0.0
C600 C 0.92004 0.30202 0.35726 0.0
C601 C 0.90282 0.30375 0.33347 0.0
C602 C 0.97603 0.31135 0.43029 0.0
C603 C 0.92162 0.30841 0.44794 0.0
C604 C 0.95833 0.3097 0.40674 0.0
C605 C 0.88567 0.30501 0.4 0.0
C606 C 0.83174 0.30168 0.41762 0.0
C607 C 0.84959 0.30335 0.44139 0.0
H608 H 0.67838 0.05175 0.58894 0.0
H609 H 0.87892 0.07499 0.60087 0.0
H610 H 0.66033 0.04953 0.63108 0.0
H611 H 0.86047 0.07277 0.64321 0.0
H612 H 0.71131 0.07987 0.71212 0.0
H613 H 0.75826 0.08006 0.67166 0.0
H614 H 0.72139 0.04067 0.6673 0.0
H615 H 0.67473 0.04056 0.70801 0.0
C616 C 0.71894 0.05634 0.60055 0.0
C617 C 0.77984 0.06361 0.59149 0.0
C618 C 0.709 0.05496 0.62474 0.0
C619 C 0.75913 0.06093 0.64053 0.0
C620 C 0.82073 0.06808 0.6315 0.0
C621 C 0.83136 0.06933 0.60725 0.0
C622 C 0.71615 0.0712 0.70274 0.0
C623 C 0.69107 0.06016 0.71321 0.0
C624 C 0.74275 0.0713 0.67956 0.0
C625 C 0.74322 0.06039 0.6662 0.0
C626 C 0.72127 0.04923 0.67709 0.0
C627 C 0.69555 0.04912 0.70043 0.0
H628 H 0.65133 0.21255 0.56767 0.0
H629 H 0.44552 0.19311 0.59106 0.0
H630 H 0.68676 0.21644 0.60847 0.0
H631 H 0.48179 0.19664 0.63148 0.0
H632 H 0.53635 0.21116 0.7036 0.0
H633 H 0.49556 0.21142 0.66244 0.0
H634 H 0.73397 0.20513 0.64094 0.0
H635 H 0.77443 0.2053 0.68134 0.0
C636 C 0.61399 0.20905 0.58147 0.0
C637 C 0.54595 0.20246 0.57605 0.0
C638 C 0.63414 0.21127 0.60487 0.0
C639 C 0.58699 0.20688 0.62337 0.0
C640 C 0.51873 0.20039 0.61782 0.0
C641 C 0.49844 0.19824 0.59453 0.0
C642 C 0.5799 0.21003 0.69001 0.0
C643 C 0.65838 0.20808 0.69584 0.0
C644 C 0.55664 0.21009 0.66643 0.0
C645 C 0.61147 0.20822 0.64829 0.0
C646 C 0.69014 0.20676 0.65426 0.0
C647 C 0.71321 0.20673 0.67761 0.0
H648 H 0.14615 0.94731 0.42453 0.0
H649 H 0.33811 0.96904 0.45082 0.0
H650 H 0.19194 0.9505 0.38469 0.0
H651 H 0.38328 0.97242 0.41071 0.0
H652 H 0.49587 0.95874 0.34178 0.0
H653 H 0.44294 0.95951 0.38107 0.0
H654 H 0.21248 0.96543 0.35293 0.0
H655 H 0.26597 0.96445 0.31305 0.0
C656 C 0.19785 0.95287 0.42183 0.0
C657 C 0.239 0.9578 0.44096 0.0
C658 C 0.22361 0.9548 0.39889 0.0
C659 C 0.29131 0.9617 0.39444 0.0
C660 C 0.33133 0.96694 0.41353 0.0
C661 C 0.30543 0.96502 0.43653 0.0
C662 C 0.43386 0.96031 0.34385 0.0
C663 C 0.38495 0.9614 0.32421 0.0
C664 C 0.40362 0.96087 0.36649 0.0
C665 C 0.32344 0.96251 0.37023 0.0
C666 C 0.27452 0.96403 0.35063 0.0
C667 C 0.30508 0.96355 0.3278 0.0
H668 H 0.34667 0.79521 0.45214 0.0
H669 H 0.46667 0.82987 0.4417 0.0
H670 H 0.32042 0.79421 0.40962 0.0
H671 H 0.44057 0.82885 0.40007 0.0
H672 H 0.27589 0.83096 0.3372 0.0
H673 H 0.30252 0.82937 0.37881 0.0
H674 H 0.41565 0.79423 0.36777 0.0
H675 H 0.38901 0.79584 0.32535 0.0
C676 C 0.36675 0.80261 0.44087 0.0
C677 C 0.4084 0.81263 0.45021 0.0
C678 C 0.35277 0.80196 0.41663 0.0
C679 C 0.37915 0.81142 0.40169 0.0
C680 C 0.4199 0.82143 0.4112 0.0
C681 C 0.43457 0.822 0.43507 0.0
C682 C 0.30676 0.82289 0.34352 0.0
C683 C 0.33086 0.81355 0.32802 0.0
C684 C 0.32165 0.82197 0.36736 0.0
C685 C 0.36038 0.81164 0.37644 0.0
C686 C 0.38484 0.80222 0.3611 0.0
C687 C 0.37073 0.80323 0.33692 0.0
H688 H 0.78176 0.56078 0.08612 0.0
H689 H 0.54254 0.55246 0.06876 0.0
H690 H 0.75194 0.55897 0.12736 0.0
H691 H 0.51287 0.55022 0.11055 0.0
H692 H 0.4711 0.56836 0.18232 0.0
H693 H 0.50032 0.56486 0.14161 0.0
H694 H 0.71547 0.54678 0.16078 0.0
H695 H 0.68662 0.55058 0.2023 0.0
C696 C 0.72274 0.55836 0.09109 0.0
C697 C 0.66402 0.55701 0.07407 0.0
C698 C 0.70595 0.55717 0.11487 0.0
C699 C 0.62991 0.55456 0.12241 0.0
C700 C 0.57193 0.55246 0.10535 0.0
C701 C 0.58883 0.55367 0.0814 0.0
C702 C 0.52477 0.56358 0.17808 0.0
C703 C 0.57704 0.55988 0.19574 0.0
C704 C 0.54095 0.56142 0.15455 0.0
C705 C 0.60994 0.55546 0.14778 0.0
C706 C 0.66188 0.55148 0.16539 0.0
C707 C 0.64551 0.55365 0.18917 0.0
H708 H 0.70702 0.68919 0.19294 0.0
H709 H 0.61063 0.72585 0.20002 0.0
H710 H 0.6868 0.68989 0.15104 0.0
H711 H 0.58856 0.7265 0.15727 0.0
H712 H 0.65081 0.72527 0.07548 0.0
H713 H 0.67267 0.72625 0.11821 0.0
H714 H 0.57188 0.6899 0.12557 0.0
H715 H 0.55183 0.68887 0.08368 0.0
C716 C 0.68006 0.69735 0.18548 0.0
C717 C 0.65959 0.70742 0.19971 0.0
C718 C 0.66873 0.69776 0.16145 0.0
C719 C 0.63639 0.70826 0.15086 0.0
C720 C 0.61436 0.71834 0.16503 0.0
C721 C 0.62552 0.71789 0.18942 0.0
C722 C 0.63529 0.71744 0.08632 0.0
C723 C 0.60055 0.70694 0.07636 0.0
C724 C 0.64634 0.71808 0.1107 0.0
C725 C 0.62354 0.70817 0.12519 0.0
C726 C 0.59052 0.69764 0.11492 0.0
C727 C 0.57929 0.69704 0.09089 0.0
H728 H 0.35044 0.47555 0.82449 0.0
H729 H 0.431 0.43789 0.83018 0.0
H730 H 0.32668 0.47594 0.86716 0.0
H731 H 0.40896 0.4383 0.87209 0.0
H732 H 0.27629 0.43815 0.93998 0.0
H733 H 0.29591 0.43924 0.89809 0.0
H734 H 0.40906 0.47463 0.90578 0.0
H735 H 0.38745 0.47364 0.94851 0.0
C736 C 0.36114 0.46731 0.83477 0.0
C737 C 0.39135 0.45663 0.82414 0.0
C738 C 0.34911 0.4676 0.85913 0.0
C739 C 0.36641 0.45717 0.87293 0.0
C740 C 0.39447 0.44645 0.86197 0.0
C741 C 0.40677 0.4462 0.83794 0.0
C742 C 0.30614 0.44614 0.93285 0.0
C743 C 0.33085 0.45578 0.9475 0.0
C744 C 0.31725 0.44676 0.90881 0.0
C745 C 0.35372 0.45703 0.89863 0.0
C746 C 0.37998 0.46666 0.91321 0.0
C747 C 0.36898 0.46601 0.9376 0.0
H748 H 0.38685 0.29514 0.82688 0.0
H749 H 0.26478 0.32953 0.83853 0.0
H750 H 0.41219 0.29364 0.86938 0.0
H751 H 0.28986 0.32801 0.88018 0.0
H752 H 0.45164 0.32966 0.94357 0.0
H753 H 0.42458 0.32866 0.90196 0.0
H754 H 0.3198 0.29274 0.91095 0.0
H755 H 0.34709 0.29374 0.95342 0.0
C756 C 0.36613 0.30238 0.83841 0.0
C757 C 0.32423 0.31247 0.8294 0.0
C758 C 0.37956 0.30143 0.86265 0.0
C759 C 0.35233 0.31068 0.87796 0.0
C760 C 0.31126 0.32075 0.86878 0.0
C761 C 0.29719 0.32162 0.84489 0.0
C762 C 0.42238 0.32155 0.9368 0.0
C763 C 0.40097 0.31181 0.95175 0.0
C764 C 0.40719 0.32097 0.91295 0.0
C765 C 0.37072 0.3106 0.90327 0.0
C766 C 0.34876 0.30079 0.91807 0.0
C767 C 0.36322 0.30143 0.94229 0.0
H768 H 0.33985 0.03324 0.9957 0.0
H769 H 0.53566 0.0459 0.03667 0.0
H770 H 0.40296 0.01358 0.98959 0.0
H771 H 0.59888 0.02576 0.031 0.0
H772 H 0.72048 0.9929 0.99728 0.0
H773 H 0.65882 0.01299 1.0014 0.0
H774 H 0.43529 0.99517 1.01021 0.0
H775 H 0.49728 0.97497 1.00542 0.0
C776 C 0.3964 0.03179 1.00364 0.0
C777 C 0.43253 0.04113 0.01691 0.0
C778 C 0.43239 0.02043 1.00018 0.0
C779 C 0.50549 0.018 1.01 0.0
C780 C 0.54261 0.02738 0.02303 0.0
C781 C 0.50652 0.03889 0.02638 0.0
C782 C 0.65793 0.99327 0.99982 0.0
C783 C 0.61352 0.98237 1.00103 0.0
C784 C 0.6228 1.0048 1.00245 0.0
C785 C 0.54238 1.00571 1.00647 0.0
C786 C 0.49743 0.9948 1.00695 0.0
C787 C 0.53267 0.98323 1.00412 0.0
H788 H 0.7791 0.29716 0.01282 0.0
H789 H 0.55787 0.2801 0.99711 0.0
H790 H 0.83833 0.27663 0.01634 0.0
H791 H 0.61667 0.25978 1.00011 0.0
H792 H 0.72587 0.22522 0.03266 0.0
H793 H 0.66788 0.24589 0.0296 0.0
H794 H 0.87345 0.25887 0.99336 0.0
H795 H 0.93132 0.23865 0.9968 0.0
C796 C 0.7437 0.28905 1.00967 0.0
C797 C 0.66404 0.29022 1.00479 0.0
C798 C 0.77726 0.2773 1.01178 0.0
C799 C 0.73175 0.26656 1.00885 0.0
C800 C 0.65284 0.26782 1.0031 0.0
C801 C 0.61944 0.27949 1.00113 0.0
C802 C 0.75835 0.23251 0.02408 0.0
C803 C 0.8332 0.23027 0.01512 0.0
C804 C 0.72528 0.24433 0.02225 0.0
C805 C 0.76644 0.25405 1.01134 0.0
C806 C 0.84083 0.25171 1.00228 0.0
C807 C 0.87372 0.24002 1.00416 0.0
H808 H 0.30037 0.2416 0.25844 0.0
H809 H 0.52992 0.22511 0.25876 0.0
H810 H 0.3573 0.26197 0.26117 0.0
H811 H 0.58745 0.24575 0.26206 0.0
H812 H 0.66204 0.2844 0.24067 0.0
H813 H 0.60383 0.26408 0.23866 0.0
H814 H 0.42548 0.27556 0.28762 0.0
H815 H 0.48373 0.29625 0.28929 0.0
C816 C 0.36328 0.2423 0.25923 0.0
C817 C 0.41077 0.23168 0.25839 0.0
C818 C 0.39579 0.25404 0.261 0.0
C819 C 0.47676 0.25551 0.26202 0.0
C820 C 0.52465 0.24492 0.26109 0.0
C821 C 0.49193 0.2331 0.25922 0.0
C822 C 0.61024 0.28264 0.25104 0.0
C823 C 0.57763 0.29192 0.2653 0.0
C824 C 0.57731 0.27092 0.25 0.0
C825 C 0.51085 0.26811 0.26324 0.0
C826 C 0.47671 0.27746 0.27712 0.0
C827 C 0.50974 0.28931 0.27807 0.0
H828 H 0.78364 0.97369 0.27608 0.0
H829 H 0.56121 0.99186 0.28428 0.0
H830 H 0.84808 0.99383 0.27499 0.0
H831 H 0.62511 0.01186 0.28405 0.0
H832 H 0.75089 0.04552 0.25367 0.0
H833 H 0.68677 0.02544 0.25719 0.0
H834 H 0.88254 0.01162 0.29688 0.0
H835 H 0.94718 0.03141 0.29265 0.0
C836 C 0.74885 0.98197 0.27816 0.0
C837 C 0.66752 0.98121 0.28011 0.0
C838 C 0.78557 0.99353 0.27753 0.0
C839 C 0.74163 1.00452 0.27913 0.0
C840 C 0.66062 1.00365 0.28214 0.0
C841 C 0.62406 0.99216 0.28249 0.0
C842 C 0.77982 0.0382 0.26322 0.0
C843 C 0.85419 0.04004 0.27272 0.0
C844 C 0.7431 0.02669 0.26535 0.0
C845 C 0.77967 0.01685 0.27725 0.0
C846 C 0.85329 0.01886 0.28718 0.0
C847 C 0.89015 0.03027 0.28486 0.0
H848 H 0.22728 0.72632 0.02925 0.0
H849 H 0.45866 0.74064 0.01636 0.0
H850 H 0.17438 0.74722 0.02442 0.0
H851 H 0.40632 0.761 1.0104 0.0
H852 H 0.29667 0.79892 0.01954 0.0
H853 H 0.35046 0.77844 0.02756 0.0
H854 H 0.15137 0.76166 0.99387 0.0
H855 H 0.09679 0.78206 0.98692 0.0
C856 C 0.26673 0.73388 0.02556 0.0
C857 C 0.34694 0.73175 0.02304 0.0
C858 C 0.23656 0.74583 0.02252 0.0
C859 C 0.28609 0.75581 0.01678 0.0
C860 C 0.36638 0.75365 0.01508 0.0
C861 C 0.39632 0.74185 0.01832 0.0
C862 C 0.26566 0.79083 0.01343 0.0
C863 C 0.19311 0.79203 1.0025 0.0
C864 C 0.29595 0.77908 0.01814 0.0
C865 C 0.25464 0.76834 1.01167 0.0
C866 C 0.18372 0.76966 0.99973 0.0
C867 C 0.15312 0.78136 0.99536 0.0
H868 H 0.69313 0.78227 0.74722 0.0
H869 H 0.48343 0.79483 0.78198 0.0
H870 H 0.63917 0.76181 0.74355 0.0
H871 H 0.42938 0.77391 0.77874 0.0
H872 H 0.32702 0.73925 0.74561 0.0
H873 H 0.38179 0.75979 0.74941 0.0
H874 H 0.60605 0.7438 0.76576 0.0
H875 H 0.55086 0.72304 0.76139 0.0
C876 C 0.63543 0.78066 0.75432 0.0
C877 C 0.5926 0.79025 0.76502 0.0
C878 C 0.60478 0.76882 0.75232 0.0
C879 C 0.53033 0.76614 0.761 0.0
C880 C 0.48689 0.7757 0.77167 0.0
C881 C 0.5177 0.78767 0.77361 0.0
C882 C 0.38829 0.74009 0.74987 0.0
C883 C 0.43478 0.72952 0.75326 0.0
C884 C 0.41941 0.75189 0.75229 0.0
C885 C 0.49791 0.75348 0.75826 0.0
C886 C 0.54526 0.7429 0.76102 0.0
C887 C 0.51399 0.73101 0.75844 0.0
H888 H 0.11115 0.98724 0.73269 0.0
H889 H 0.29065 0.9735 0.77865 0.0
H890 H 0.1819 1.00646 0.7278 0.0
H891 H 0.36052 0.9931 0.77476 0.0
H892 H 0.49777 0.02639 0.75104 0.0
H893 H 0.43367 1.00636 0.75074 0.0
H894 H 0.2095 0.0246 0.74808 0.0
H895 H 0.27437 0.04462 0.74728 0.0
C896 C 0.16593 0.98837 0.74184 0.0
C897 C 0.1952 0.97891 0.7562 0.0
C898 C 0.20629 0.99946 0.73918 0.0
C899 C 0.27654 1.00151 0.75114 0.0
C900 C 0.30702 0.99186 0.76504 0.0
C901 C 0.26702 0.98062 0.76738 0.0
C902 C 0.43475 0.0261 0.7501 0.0
C903 C 0.39102 0.03709 0.74918 0.0
C904 C 0.3979 0.0146 0.75016 0.0
C905 C 0.3162 0.01377 0.74963 0.0
C906 C 0.27256 0.0248 0.74815 0.0
C907 C 0.30961 0.03632 0.74774 0.0
H908 H 0.45872 0.47144 0.51468 0.0
H909 H 0.6753 0.48871 0.49436 0.0
H910 H 0.40002 0.49191 0.51991 0.0
H911 H 0.6169 0.50898 0.4989 0.0
H912 H 0.51669 0.54383 0.5319 0.0
H913 H 0.57322 0.52309 0.52843 0.0
H914 H 0.35726 0.50968 0.49917 0.0
H915 H 0.30081 0.52996 0.50325 0.0
C916 C 0.49312 0.47959 0.51087 0.0
C917 C 0.57145 0.47847 0.50417 0.0
C918 C 0.45984 0.49133 0.51395 0.0
C919 C 0.50417 0.50214 0.51017 0.0
C920 C 0.58162 0.50092 0.50262 0.0
C921 C 0.61479 0.48926 0.49974 0.0
C922 C 0.48144 0.53642 0.52488 0.0
C923 C 0.40433 0.53862 0.5179 0.0
C924 C 0.51377 0.52454 0.52275 0.0
C925 C 0.46969 0.51467 0.5135 0.0
C926 C 0.39258 0.51693 0.50674 0.0
C927 C 0.36042 0.52869 0.50895 0.0
H928 H 0.78072 0.79896 0.51702 0.0
H929 H 0.5668 0.78151 0.49515 0.0
H930 H 0.84058 0.77854 0.52181 0.0
H931 H 0.62636 0.7613 0.49929 0.0
H932 H 0.72645 0.72644 0.53252 0.0
H933 H 0.66879 0.7471 0.52895 0.0
H934 H 0.88574 0.76095 0.50077 0.0
H935 H 0.94323 0.74074 0.50491 0.0
C936 C 0.74723 0.79079 0.51273 0.0
C937 C 0.66924 0.79183 0.50576 0.0
C938 C 0.78114 0.77908 0.51558 0.0
C939 C 0.73779 0.76823 0.51129 0.0
C940 C 0.66082 0.76939 0.5034 0.0
C941 C 0.62702 0.78101 0.50074 0.0
C942 C 0.76165 0.73393 0.5257 0.0
C943 C 0.83936 0.73187 0.51905 0.0
C944 C 0.72869 0.74576 0.52351 0.0
C945 C 0.77275 0.75573 0.51456 0.0
C946 C 0.8504 0.75361 0.5081 0.0
C947 C 0.88317 0.7419 0.51035 0.0
H948 H 0.89663 0.53268 0.73805 0.0
H949 H 0.70896 0.54953 0.77698 0.0
H950 H 0.84135 0.51234 0.74501 0.0
H951 H 0.65442 0.52904 0.78492 0.0
H952 H 0.5395 0.49143 0.77293 0.0
H953 H 0.59177 0.51195 0.76827 0.0
H954 H 0.82536 0.49741 0.77503 0.0
H955 H 0.77228 0.47647 0.77859 0.0
C956 C 0.84272 0.53199 0.7479 0.0
C957 C 0.80645 0.54265 0.75679 0.0
C958 C 0.8118 0.52031 0.75227 0.0
C959 C 0.74427 0.51896 0.76596 0.0
C960 C 0.70634 0.52971 0.77419 0.0
C961 C 0.73697 0.54147 0.76952 0.0
C962 C 0.60219 0.49254 0.77361 0.0
C963 C 0.65187 0.48224 0.77579 0.0
C964 C 0.63216 0.50441 0.77111 0.0
C965 C 0.71284 0.5064 0.77097 0.0
C966 C 0.76278 0.49618 0.7745 0.0
C967 C 0.73256 0.4842 0.77685 0.0
H968 H 0.28284 0.29423 0.51669 0.0
H969 H 0.07069 0.27968 0.48719 0.0
H970 H 0.33127 0.27312 0.52218 0.0
H971 H 0.11921 0.25873 0.49191 0.0
H972 H 0.18798 0.2225 0.52647 0.0
H973 H 0.14279 0.24388 0.52208 0.0
H974 H 0.37575 0.25513 0.5027 0.0
H975 H 0.42086 0.23422 0.50782 0.0
C976 C 0.24773 0.28653 0.51076 0.0
C977 C 0.1733 0.28856 0.50149 0.0
C978 C 0.27497 0.27443 0.51403 0.0
C979 C 0.22845 0.26417 0.50787 0.0
C980 C 0.15566 0.26634 0.49751 0.0
C981 C 0.12838 0.27836 0.49447 0.0
C982 C 0.22939 0.22958 0.5215 0.0
C983 C 0.30785 0.22658 0.51748 0.0
C984 C 0.20359 0.24182 0.51879 0.0
C985 C 0.25568 0.25126 0.51191 0.0
C986 C 0.33414 0.24822 0.50831 0.0
C987 C 0.35982 0.23611 0.51112 0.0
H988 H 0.27181 0.47756 0.27692 0.0
H989 H 0.04805 0.49152 0.25432 0.0
H990 H 0.32692 0.49832 0.27209 0.0
H991 H 0.10293 0.51179 0.24887 0.0
H992 H 0.20946 0.54985 0.26354 0.0
H993 H 0.15177 0.52936 0.26915 0.0
H994 H 0.36056 0.51249 0.24113 0.0
H995 H 0.41816 0.53283 0.2362 0.0
C996 C 0.23455 0.485 0.27096 0.0
C997 C 0.15571 0.48283 0.26603 0.0
C998 C 0.26601 0.49687 0.26803 0.0
C999 C 0.21919 0.50674 0.26005 0.0
C1000 C 0.14041 0.50451 0.25539 0.0
C1001 C 0.10914 0.49278 0.25839 0.0
C1002 C 0.24191 0.54175 0.25812 0.0
C1003 C 0.31796 0.54289 0.24943 0.0
C1004 C 0.20938 0.53001 0.26147 0.0
C1005 C 0.25223 0.51925 0.25596 0.0
C1006 C 0.32683 0.52052 0.24619 0.0
C1007 C 0.35933 0.53219 0.24305 0.0
H1008 H 0.85119 0.96146 0.50847 0.0
H1009 H 0.0315 0.98024 0.46957 0.0
H1010 H 0.77895 0.98107 0.512 0.0
H1011 H 0.95978 0.99956 0.47275 0.0
H1012 H 0.89991 0.03146 0.52064 0.0
H1013 H 0.94438 0.0107 0.51231 0.0
H1014 H 0.71419 1.00064 0.48885 0.0
H1015 H 0.66846 0.02177 0.49721 0.0
C1016 C 0.87366 0.96965 0.49991 0.0
C1017 C 0.94704 0.96942 0.48893 0.0
C1018 C 0.83262 0.98085 0.50199 0.0
C1019 C 0.86475 0.99185 0.49305 0.0
C1020 C 0.93441 0.99126 0.48017 0.0
C1021 C 0.97524 0.9802 0.47824 0.0
C1022 C 0.85819 0.0249 0.5138 0.0
C1023 C 0.7807 0.02836 0.50936 0.0
C1024 C 0.88394 0.01298 0.50893 0.0
C1025 C 0.83309 1.00414 0.49953 0.0
C1026 C 0.75459 1.00733 0.49598 0.0
C1027 C 0.72861 0.0194 0.50075 0.0
H1028 H 0.02948 0.22697 0.74634 0.0
H1029 H 0.79575 0.24086 0.75683 0.0
H1030 H 0.08053 0.24784 0.75264 0.0
H1031 H 0.84627 0.2613 0.76406 0.0
H1032 H 0.96 0.29943 0.75601 0.0
H1033 H 0.90508 0.27902 0.74793 0.0
H1034 H 0.09817 0.26196 0.7842 0.0
H1035 H 0.15368 0.28228 0.79139 0.0
C1036 C 0.98909 0.23445 0.7498 0.0
C1037 C 0.90873 0.23219 0.75122 0.0
C1038 C 0.0182 0.24639 0.7537 0.0
C1039 C 0.96751 0.25627 0.75917 0.0
C1040 C 0.88712 0.25402 0.75972 0.0
C1041 C 0.85821 0.24219 0.7557 0.0
C1042 C 0.98921 0.29131 0.76277 0.0
C1043 C 0.0606 0.2924 0.77444 0.0
C1044 C 0.95833 0.27959 0.75799 0.0
C1045 C 0.99802 0.26878 0.76502 0.0
C1046 C 0.06719 0.27002 0.77788 0.0
C1047 C 0.09828 0.28167 0.78239 0.0
H1048 H 0.16186 0.78271 0.29068 0.0
H1049 H 0.96497 0.79947 0.25624 0.0
H1050 H 0.10715 0.76228 0.28397 0.0
H1051 H 0.9112 0.77899 0.24844 0.0
H1052 H 0.80169 0.74128 0.25865 0.0
H1053 H 0.85358 0.76162 0.26505 0.0
H1054 H 0.08681 0.74769 0.2536 0.0
H1055 H 0.03419 0.72681 0.24837 0.0
C1056 C 0.10602 0.78198 0.28196 0.0
C1057 C 0.06696 0.79263 0.27421 0.0
C1058 C 0.0754 0.77027 0.27771 0.0
C1059 C 0.00546 0.76891 0.26526 0.0
C1060 C 0.96491 0.77965 0.25826 0.0
C1061 C 0.99515 0.79141 0.26286 0.0
C1062 C 0.86424 0.74246 0.25736 0.0
C1063 C 0.91396 0.73232 0.25323 0.0
C1064 C 0.89396 0.75425 0.26086 0.0
C1065 C 0.97444 0.75637 0.26002 0.0
C1066 C 0.02443 0.74634 0.25486 0.0
C1067 C 0.99445 0.7344 0.25156 0.0
H1068 H 0.17945 0.48906 0.98999 0.0
H1069 H 0.95381 0.47303 1.00429 0.0
H1070 H 0.12415 0.50966 0.99277 0.0
H1071 H 0.89811 0.49382 1.00739 0.0
H1072 H 0.81336 0.53224 0.98892 0.0
H1073 H 0.86966 0.51197 0.984 0.0
H1074 H 0.07218 0.5234 0.0232 0.0
H1075 H 0.01552 0.5441 0.02797 0.0
C1076 C 0.11764 0.48995 0.99355 0.0
C1077 C 0.07079 0.47944 0.997 0.0
C1078 C 0.08628 0.50178 0.99538 0.0
C1079 C 0.00721 0.50339 1.00068 0.0
C1080 C 0.9594 0.49286 1.00319 0.0
C1081 C 0.99094 0.48096 1.0013 0.0
C1082 C 0.86998 0.53051 0.99661 0.0
C1083 C 0.90976 0.53979 1.00909 0.0
C1084 C 0.90196 0.51882 0.99383 0.0
C1085 C 0.97476 0.51601 1.00343 0.0
C1086 C 0.01588 0.52533 0.01549 0.0
C1087 C 0.98364 0.53716 0.01827 0.0
H1088 H 0.38842 0.08019 0.95436 0.0
H1089 H 0.20027 0.05595 0.9341 0.0
H1090 H 0.44426 0.07863 0.91553 0.0
H1091 H 0.25689 0.05453 0.89453 0.0
H1092 H 0.35192 0.06741 0.82058 0.0
H1093 H 0.28821 0.06794 0.85881 0.0
H1094 H 0.5103 0.06201 0.89228 0.0
H1095 H 0.57441 0.06143 0.85394 0.0
C1096 C 0.35832 0.07457 0.94157 0.0
C1097 C 0.28976 0.06812 0.94755 0.0
C1098 C 0.39103 0.07362 0.91927 0.0
C1099 C 0.35604 0.06628 0.90204 0.0
C1100 C 0.28545 0.06023 0.9075 0.0
C1101 C 0.25278 0.06109 0.93011 0.0
C1102 C 0.38738 0.06618 0.83607 0.0
C1103 C 0.46865 0.06449 0.83415 0.0
C1104 C 0.35053 0.06639 0.85798 0.0
C1105 C 0.39405 0.06507 0.8786 0.0
C1106 C 0.47515 0.06318 0.87671 0.0
C1107 C 0.51195 0.06282 0.85475 0.0
H1108 H 0.85556 0.19164 0.9505 0.0
H1109 H 0.05781 0.21244 0.92845 0.0
H1110 H 0.80245 0.19287 0.91131 0.0
H1111 H 0.00371 0.21369 0.88881 0.0
H1112 H 0.92294 0.19948 0.81676 0.0
H1113 H 0.97517 0.19975 0.856 0.0
H1114 H 0.74647 0.20803 0.88356 0.0
H1115 H 0.69292 0.20766 0.8437 0.0
C1116 C 0.88908 0.19646 0.93727 0.0
C1117 C 0.96135 0.20194 0.9427 0.0
C1118 C 0.8579 0.19727 0.9148 0.0
C1119 C 0.89818 0.2035 0.897 0.0
C1120 C 0.97125 0.20879 0.90218 0.0
C1121 C 0.00248 0.20804 0.92484 0.0
C1122 C 0.88316 0.20136 0.83107 0.0
C1123 C 0.80319 0.20345 0.827 0.0
C1124 C 0.91369 0.20164 0.85364 0.0
C1125 C 0.86529 0.20395 0.87292 0.0
C1126 C 0.78525 0.20613 0.869 0.0
C1127 C 0.75451 0.20595 0.84622 0.0
H1128 H 0.48545 0.21356 0.43476 0.0
H1129 H 0.35436 0.18011 0.4466 0.0
H1130 H 0.42727 0.21535 0.39554 0.0
H1131 H 0.29719 0.18182 0.40774 0.0
H1132 H 0.2916 0.18244 0.32647 0.0
H1133 H 0.34487 0.1808 0.36588 0.0
H1134 H 0.28603 0.21898 0.37882 0.0
H1135 H 0.23143 0.22056 0.33908 0.0
C1136 C 0.4457 0.20647 0.42877 0.0
C1137 C 0.42488 0.19664 0.44357 0.0
C1138 C 0.41148 0.20759 0.40656 0.0
C1139 C 0.35711 0.19878 0.39874 0.0
C1140 C 0.33885 0.18874 0.41328 0.0
C1141 C 0.37186 0.18774 0.43547 0.0
C1142 C 0.28816 0.19039 0.33797 0.0
C1143 C 0.25639 0.20156 0.32996 0.0
C1144 C 0.31908 0.18947 0.36045 0.0
C1145 C 0.32032 0.19979 0.37531 0.0
C1146 C 0.28651 0.21092 0.36759 0.0
C1147 C 0.2541 0.21177 0.34509 0.0
H1148 H 0.77588 0.06928 0.44147 0.0
H1149 H 0.00845 0.07334 0.46917 0.0
H1150 H 0.82819 0.06934 0.40187 0.0
H1151 H 0.0611 0.0734 0.42914 0.0
H1152 H 0.11282 0.0577 0.35186 0.0
H1153 H 0.07473 0.05888 0.39341 0.0
H1154 H 0.89162 0.08454 0.37562 0.0
H1155 H 0.92878 0.0834 0.33474 0.0
C1156 C 0.83823 0.07026 0.43914 0.0
C1157 C 0.88777 0.07138 0.45858 0.0
C1158 C 0.86829 0.07032 0.41637 0.0
C1159 C 0.94889 0.07143 0.4123 0.0
C1160 C -0.00119 0.07248 0.43169 0.0
C1161 C 0.96852 0.07255 0.45459 0.0
C1162 C 0.0653 0.06373 0.35694 0.0
C1163 C 0.0233 0.07031 0.33986 0.0
C1164 C 0.04348 0.06441 0.38071 0.0
C1165 C 0.97917 0.07164 0.38776 0.0
C1166 C 0.94021 0.07867 0.37078 0.0
C1167 C 0.9619 0.07803 0.34726 0.0
H1168 H 0.61221 0.94895 0.07164 0.0
H1169 H 0.82851 0.96413 0.09746 0.0
H1170 H 0.557 0.9498 0.11068 0.0
H1171 H 0.77216 0.96505 0.13694 0.0
H1172 H 0.67321 0.94979 0.20666 0.0
H1173 H 0.72938 0.95057 0.16769 0.0
H1174 H 0.51204 0.96458 0.14048 0.0
H1175 H 0.45484 0.96371 0.17982 0.0
C1176 C 0.64827 0.95249 0.08565 0.0
C1177 C 0.72527 0.95642 0.08134 0.0
C1178 C 0.61601 0.95308 0.10807 0.0
C1179 C 0.65977 0.95757 0.12694 0.0
C1180 C 0.73697 0.96148 0.12277 0.0
C1181 C 0.76932 0.96096 0.10017 0.0
C1182 C 0.63696 0.95305 0.19244 0.0
C1183 C 0.55903 0.95661 0.19642 0.0
C1184 C 0.66972 0.9536 0.17007 0.0
C1185 C 0.62549 0.95767 0.15095 0.0
C1186 C 0.54757 0.9613 0.15484 0.0
C1187 C 0.51476 0.96083 0.17737 0.0
H1188 H 0.95218 0.80778 0.09239 0.0
H1189 H 0.16952 0.82481 0.07163 0.0
H1190 H 0.00122 0.80611 0.13262 0.0
H1191 H 0.21734 0.82319 0.11128 0.0
H1192 H 0.3091 0.80924 0.18115 0.0
H1193 H 0.25976 0.80799 0.14089 0.0
H1194 H 0.03399 0.82054 0.16455 0.0
H1195 H 0.0821 0.8217 0.20424 0.0
C1196 C 0.00996 0.81119 0.09636 0.0
C1197 C 0.05644 0.81649 0.07876 0.0
C1198 C 0.03819 0.81021 0.11935 0.0
C1199 C 0.11358 0.81442 0.12507 0.0
C1200 C 0.15978 0.81964 0.10742 0.0
C1201 C 0.13161 0.8207 0.08466 0.0
C1202 C 0.24901 0.81169 0.1777 0.0
C1203 C 0.20009 0.8157 0.19591 0.0
C1204 C 0.22068 0.81098 0.15469 0.0
C1205 C 0.14277 0.81415 0.14956 0.0
C1206 C 0.09379 0.81787 0.16789 0.0
C1207 C 0.12203 0.81867 0.19068 0.0
H1208 H 0.76924 0.8016 0.68314 0.0
H1209 H 0.663 0.83697 0.69727 0.0
H1210 H 0.7025 0.80091 0.64505 0.0
H1211 H 0.59636 0.83626 0.65984 0.0
H1212 H 0.56123 0.83678 0.58061 0.0
H1213 H 0.62665 0.83717 0.61826 0.0
H1214 H 0.56258 0.79907 0.62992 0.0
H1215 H 0.49698 0.79868 0.59161 0.0
C1216 C 0.73336 0.80934 0.67783 0.0
C1217 C 0.72194 0.8194 0.69297 0.0
C1218 C 0.69401 0.80884 0.6563 0.0
C1219 C 0.64353 0.81847 0.64955 0.0
C1220 C 0.63499 0.82872 0.66441 0.0
C1221 C 0.67348 0.82915 0.68583 0.0
C1222 C 0.55949 0.82856 0.59145 0.0
C1223 C 0.52328 0.81775 0.58336 0.0
C1224 C 0.59731 0.82876 0.61298 0.0
C1225 C 0.60045 0.81812 0.627 0.0
C1226 C 0.56193 0.80736 0.61933 0.0
C1227 C 0.52315 0.8072 0.59768 0.0
H1228 H 0.17019 0.96899 0.58049 0.0
H1229 H 0.0399 0.93522 0.57117 0.0
H1230 H 0.12369 0.97022 0.62113 0.0
H1231 H 0.99436 0.93644 0.61153 0.0
H1232 H 0.02945 0.93531 0.69254 0.0
H1233 H 0.06178 0.93474 0.65097 0.0
H1234 H 0.9912 0.97285 0.64408 0.0
H1235 H 0.95746 0.97335 0.68601 0.0
C1236 C 0.13217 0.9618 0.58713 0.0
C1237 C 0.10913 0.95197 0.57263 0.0
C1238 C 0.10485 0.96259 0.61027 0.0
C1239 C 0.05505 0.95346 0.61943 0.0
C1240 C 0.03274 0.9436 0.60497 0.0
C1241 C 0.05898 0.9429 0.58185 0.0
C1242 C 0.01913 0.94349 0.68204 0.0
C1243 C 0.99025 0.95433 0.6924 0.0
C1244 C 0.03782 0.94317 0.65826 0.0
C1245 C 0.02952 0.95377 0.64432 0.0
C1246 C -0.00132 0.96457 0.6545 0.0
C1247 C 0.97839 0.96481 0.67834 0.0
H1248 H 0.1831 0.5599 0.42801 0.0
H1249 H 0.4031 0.57405 0.45313 0.0
H1250 H 0.23767 0.55892 0.38828 0.0
H1251 H 0.45654 0.57308 0.41391 0.0
H1252 H 0.55172 0.55908 0.34345 0.0
H1253 H 0.49725 0.55812 0.38325 0.0
H1254 H 0.28165 0.5738 0.35816 0.0
H1255 H 0.33482 0.57473 0.31897 0.0
C1256 C 0.24264 0.56284 0.4251 0.0
C1257 C 0.28823 0.56712 0.44381 0.0
C1258 C 0.27404 0.56226 0.40238 0.0
C1259 C 0.3518 0.56583 0.39798 0.0
C1260 C 0.39708 0.57005 0.41671 0.0
C1261 C 0.36576 0.57073 0.43923 0.0
C1262 C 0.49286 0.56233 0.3465 0.0
C1263 C 0.44817 0.56705 0.32797 0.0
C1264 C 0.46157 0.56178 0.36926 0.0
C1265 C 0.38477 0.56581 0.37382 0.0
C1266 C 0.34033 0.57043 0.35524 0.0
C1267 C 0.37155 0.57108 0.33273 0.0
H1268 H 0.69551 0.71033 0.34693 0.0
H1269 H 0.9225 0.69987 0.32045 0.0
H1270 H 0.74938 0.71086 0.38675 0.0
H1271 H 0.97494 0.70033 0.35963 0.0
H1272 H 0.06198 0.71322 0.43128 0.0
H1273 H 0.00745 0.71465 0.39171 0.0
H1274 H 0.80097 0.69539 0.41493 0.0
H1275 H 0.85446 0.69395 0.45402 0.0
C1276 C 0.75648 0.70816 0.34955 0.0
C1277 C 0.80423 0.70497 0.33049 0.0
C1278 C 0.78738 0.70845 0.37229 0.0
C1279 C 0.86662 0.70568 0.37627 0.0
C1280 C 0.91415 0.70269 0.35715 0.0
C1281 C 0.88345 0.7023 0.33464 0.0
C1282 C 0.00534 0.70921 0.42784 0.0
C1283 C 0.96295 0.70345 0.44584 0.0
C1284 C 0.9739 0.71007 0.40525 0.0
C1285 C 0.89939 0.70525 0.40031 0.0
C1286 C 0.85764 0.69942 0.41826 0.0
C1287 C 0.88903 0.69849 0.44066 0.0
H1288 H 0.33661 0.70065 0.9555 0.0
H1289 H 0.56706 0.70909 0.92922 0.0
H1290 H 0.28527 0.70117 0.91612 0.0
H1291 H 0.51447 0.70971 0.88928 0.0
H1292 H 0.40923 0.69243 0.82271 0.0
H1293 H 0.46037 0.69411 0.86198 0.0
H1294 H 0.25781 0.71513 0.88284 0.0
H1295 H 0.20559 0.71346 0.84297 0.0
C1296 C 0.37661 0.70266 0.9413 0.0
C1297 C 0.45649 0.7047 0.94555 0.0
C1298 C 0.34661 0.70309 0.91869 0.0
C1299 C 0.39556 0.7055 0.89959 0.0
C1300 C 0.47537 0.70773 0.90371 0.0
C1301 C 0.50554 0.7074 0.92653 0.0
C1302 C 0.375 0.69742 0.83556 0.0
C1303 C 0.30293 0.70282 0.82961 0.0
C1304 C 0.40508 0.69848 0.85808 0.0
C1305 C 0.36386 0.70489 0.87543 0.0
C1306 C 0.29097 0.71012 0.86976 0.0
C1307 C 0.26084 0.70913 0.84701 0.0
H1308 H 0.9926 0.54966 0.83844 0.0
H1309 H 0.92086 0.58747 0.82808 0.0
H1310 H 0.92832 0.54965 0.87704 0.0
H1311 H 0.85677 0.58747 0.86607 0.0
H1312 H 0.82114 0.58675 0.94537 0.0
H1313 H 0.88653 0.58662 0.90758 0.0
H1314 H 0.78935 0.55067 0.89281 0.0
H1315 H 0.72386 0.55079 0.93121 0.0
C1316 C 0.96514 0.55805 0.84471 0.0
C1317 C 0.96253 0.56862 0.83045 0.0
C1318 C 0.92705 0.55798 0.86654 0.0
C1319 C 0.88668 0.56853 0.87451 0.0
C1320 C 0.88751 0.57922 0.86058 0.0
C1321 C 0.92462 0.57924 0.83884 0.0
C1322 C 0.8122 0.57893 0.93384 0.0
C1323 C 0.7666 0.56885 0.9411 0.0
C1324 C 0.85003 0.57882 0.91221 0.0
C1325 C 0.84384 0.56858 0.89725 0.0
C1326 C 0.79609 0.55862 0.90411 0.0
C1327 C 0.75735 0.55878 0.92584 0.0
H1328 H 0.61428 0.44066 0.5747 0.0
H1329 H 0.79984 0.4661 0.59167 0.0
H1330 H 0.56052 0.443 0.61365 0.0
H1331 H 0.74517 0.46842 0.6312 0.0
H1332 H 0.6706 0.45545 0.70593 0.0
H1333 H 0.72511 0.45562 0.66675 0.0
H1334 H 0.49369 0.4589 0.63785 0.0
H1335 H 0.4382 0.45861 0.67752 0.0
C1336 C 0.644 0.44674 0.58679 0.0
C1337 C 0.71154 0.45322 0.57999 0.0
C1338 C 0.6124 0.44817 0.60909 0.0
C1339 C 0.64761 0.45606 0.62535 0.0
C1340 C 0.71659 0.46229 0.61895 0.0
C1341 C 0.74821 0.46091 0.59641 0.0
C1342 C 0.63095 0.45626 0.69127 0.0
C1343 C 0.54973 0.45683 0.69483 0.0
C1344 C 0.66257 0.45649 0.6688 0.0
C1345 C 0.61386 0.45722 0.64922 0.0
C1346 C 0.53265 0.4582 0.65268 0.0
C1347 C 0.50082 0.45808 0.67533 0.0
H1348 H 0.94145 0.30728 0.59526 0.0
H1349 H 0.16709 0.31984 0.57126 0.0
H1350 H 0.99259 0.30606 0.63532 0.0
H1351 H 0.21698 0.31869 0.61075 0.0
H1352 H 0.30284 0.30601 0.68255 0.0
H1353 H 0.25168 0.30422 0.64255 0.0
H1354 H 0.03609 0.32119 0.6648 0.0
H1355 H 0.08591 0.32293 0.70416 0.0
C1356 C 0.00159 0.30977 0.59847 0.0
C1357 C 0.04964 0.31377 0.58004 0.0
C1358 C 0.03098 0.30907 0.62136 0.0
C1359 C 0.1091 0.31223 0.62618 0.0
C1360 C 0.1571 0.316 0.60765 0.0
C1361 C 0.12782 0.3168 0.58497 0.0
C1362 C 0.24468 0.30935 0.67883 0.0
C1363 C 0.19905 0.31469 0.69659 0.0
C1364 C 0.21525 0.30832 0.65597 0.0
C1365 C 0.13945 0.31249 0.65056 0.0
C1366 C 0.09397 0.31768 0.6684 0.0
C1367 C 0.12332 0.3188 0.69101 0.0
H1368 H 0.49565 0.29842 0.09343 0.0
H1369 H 0.57316 0.33568 0.08009 0.0
H1370 H 0.56064 0.29894 0.13184 0.0
H1371 H 0.6376 0.33621 0.11791 0.0
H1372 H 0.66812 0.33701 0.1975 0.0
H1373 H 0.60347 0.3362 0.1597 0.0
H1374 H 0.7019 0.30007 0.14714 0.0
H1375 H 0.76698 0.3009 0.18546 0.0
C1376 C 0.5248 0.30679 0.09896 0.0
C1377 C 0.52876 0.31705 0.08396 0.0
C1378 C 0.56311 0.30703 0.12069 0.0
C1379 C 0.60484 0.31759 0.12779 0.0
C1380 C 0.60578 0.32796 0.11305 0.0
C1381 C 0.56859 0.32767 0.09141 0.0
C1382 C 0.67742 0.329 0.18646 0.0
C1383 C 0.72333 0.31909 0.19428 0.0
C1384 C 0.64004 0.32851 0.16485 0.0
C1385 C 0.64692 0.31803 0.15052 0.0
C1386 C 0.69475 0.30821 0.15797 0.0
C1387 C 0.73316 0.30877 0.17964 0.0
H1388 H 0.13131 0.44271 0.20056 0.0
H1389 H 0.93623 0.46581 0.18116 0.0
H1390 H 0.18442 0.44453 0.16138 0.0
H1391 H 0.99032 0.46765 0.14151 0.0
H1392 H 0.06655 0.4538 0.06816 0.0
H1393 H 0.01389 0.45436 0.10745 0.0
H1394 H 0.24525 0.45996 0.1351 0.0
H1395 H 0.29908 0.45923 0.0952 0.0
C1396 C 0.0994 0.44817 0.18789 0.0
C1397 C 0.02924 0.45412 0.19403 0.0
C1398 C 0.13061 0.44932 0.16546 0.0
C1399 C 0.09242 0.45639 0.14845 0.0
C1400 C 0.02116 0.46213 0.15431 0.0
C1401 C 0.98987 0.46102 0.17693 0.0
C1402 C 0.10666 0.45519 0.08254 0.0
C1403 C 0.18745 0.45629 0.07856 0.0
C1404 C 0.07601 0.45564 0.1051 0.0
C1405 C 0.1252 0.45716 0.1244 0.0
C1406 C 0.20593 0.45864 0.12051 0.0
C1407 C 0.23681 0.45828 0.09773 0.0
H1408 H 0.14571 0.1705 1.00855 0.0
H1409 H 0.93279 0.15562 0.03765 0.0
H1410 H 0.20718 0.15044 1.01158 0.0
H1411 H 0.99569 0.13538 0.04119 0.0
H1412 H 0.10432 0.09886 0.0156 0.0
H1413 H 0.04202 0.11894 0.01637 0.0
H1414 H 0.25812 0.13556 0.03881 0.0
H1415 H 0.32167 0.11532 0.03749 0.0
C1416 C 0.1119 0.16295 0.01576 0.0
C1417 C 0.03391 0.1647 0.02279 0.0
C1418 C 0.14772 0.15143 0.0177 0.0
C1419 C 0.10681 0.14128 0.02677 0.0
C1420 C 0.02878 0.14299 0.03393 0.0
C1421 C 0.99267 0.15458 0.03195 0.0
C1422 C 0.13891 0.10676 0.02078 0.0
C1423 C 0.21844 0.10545 0.02635 0.0
C1424 C 0.10268 0.1183 0.02142 0.0
C1425 C 0.14477 0.12889 0.02768 0.0
C1426 C 0.2241 0.1276 0.03363 0.0
C1427 C 0.26058 0.116 0.03296 0.0
H1428 H 0.10581 0.17095 0.2642 0.0
H1429 H 0.32665 0.15653 0.23995 0.0
H1430 H 0.0512 0.15036 0.26405 0.0
H1431 H 0.27063 0.13574 0.23913 0.0
H1432 H 0.95099 0.11327 0.2442 0.0
H1433 H 0.00778 0.13385 0.23984 0.0
H1434 H 0.22771 0.1201 0.26581 0.0
H1435 H 0.17206 0.09961 0.26946 0.0
C1436 C 0.14274 0.16339 0.25858 0.0
C1437 C 0.22096 0.16542 0.25216 0.0
C1438 C 0.11092 0.15154 0.25831 0.0
C1439 C 0.15616 0.14135 0.25148 0.0
C1440 C 0.23427 0.14336 0.24474 0.0
C1441 C 0.2664 0.15528 0.24512 0.0
C1442 C 0.01148 0.11465 0.24888 0.0
C1443 C 0.05672 0.10479 0.25725 0.0
C1444 C 0.04409 0.12645 0.24646 0.0
C1445 C 0.12251 0.12866 0.25249 0.0
C1446 C 0.16768 0.11874 0.26061 0.0
C1447 C 0.13533 0.10697 0.2629 0.0
H1448 H 0.09113 0.86644 0.99312 0.0
H1449 H 0.87184 0.85065 0.01538 0.0
H1450 H 0.03084 0.88692 0.99254 0.0
H1451 H 0.81259 0.871 0.01526 0.0
H1452 H 0.70983 0.90788 0.99129 0.0
H1453 H 0.76977 0.88738 0.98942 0.0
H1454 H 0.98049 0.90209 0.01981 0.0
H1455 H 0.92169 0.92246 0.02126 0.0
C1456 C 0.03032 0.86733 0.99795 0.0
C1457 C 0.98655 0.85689 1.00433 0.0
C1458 C 0.99575 0.87906 0.99771 0.0
C1459 C 0.91671 0.88061 1.00383 0.0
C1460 C 0.87312 0.87015 1.01008 0.0
C1461 C 0.90751 0.85846 1.01033 0.0
C1462 C 0.76884 0.90671 0.9976 0.0
C1463 C 0.81075 0.91682 1.00643 0.0
C1464 C 0.80322 0.89497 0.99658 0.0
C1465 C 0.88021 0.8931 1.00437 0.0
C1466 C 0.92173 0.90322 0.01327 0.0
C1467 C 0.88753 0.91491 0.01428 0.0
H1468 H 0.88965 0.85148 0.75276 0.0
H1469 H 0.68265 0.86575 0.78649 0.0
H1470 H 0.94817 0.87177 0.75371 0.0
H1471 H 0.74287 0.88629 0.78796 0.0
H1472 H 0.84585 0.92342 0.76193 0.0
H1473 H 0.78321 0.90328 0.76333 0.0
H1474 H 0.00443 0.88635 0.77983 0.0
H1475 H 0.06766 0.90651 0.77776 0.0
C1476 C 0.85655 0.85895 0.76057 0.0
C1477 C 0.78124 0.85693 0.76963 0.0
C1478 C 0.89069 0.87063 0.76127 0.0
C1479 C 0.85093 0.8807 0.77117 0.0
C1480 C 0.77512 0.87876 0.78008 0.0
C1481 C 0.74058 0.86699 0.7793 0.0
C1482 C 0.88129 0.91541 0.76592 0.0
C1483 C 0.96211 0.9166 0.76956 0.0
C1484 C 0.84505 0.90385 0.7669 0.0
C1485 C 0.88855 0.89314 0.77161 0.0
C1486 C 0.96917 0.89436 0.77575 0.0
C1487 C 0.00553 0.90593 0.77466 0.0
H1488 H 0.15063 0.67146 0.51282 0.0
H1489 H 0.93187 0.65614 0.53661 0.0
H1490 H 0.20972 0.65114 0.51398 0.0
H1491 H 0.99218 0.63563 0.53826 0.0
H1492 H 0.09898 0.59969 0.50982 0.0
H1493 H 0.0401 0.61999 0.51206 0.0
H1494 H 0.25535 0.63487 0.53909 0.0
H1495 H 0.3155 0.61438 0.53637 0.0
C1496 C 0.11498 0.66376 0.51848 0.0
C1497 C 0.03601 0.66549 0.52451 0.0
C1498 C 0.14942 0.65207 0.51934 0.0
C1499 C 0.10612 0.64169 0.52627 0.0
C1500 C 0.02722 0.64339 0.53258 0.0
C1501 C 0.99257 0.65516 0.53172 0.0
C1502 C 0.13419 0.60725 0.51629 0.0
C1503 C 0.21246 0.60535 0.52282 0.0
C1504 C 0.09984 0.61893 0.51778 0.0
C1505 C 0.14251 0.62912 0.52586 0.0
C1506 C 0.2208 0.62725 0.53255 0.0
C1507 C 0.25537 0.6155 0.53106 0.0
H1508 H 0.1215 0.67153 0.73902 0.0
H1509 H 0.33238 0.65366 0.76222 0.0
H1510 H 0.05559 0.65174 0.73741 0.0
H1511 H 0.26519 0.63374 0.76204 0.0
H1512 H 0.14382 0.59816 0.74263 0.0
H1513 H 0.21164 0.61781 0.74049 0.0
H1514 H -0.00099 0.63667 0.76023 0.0
H1515 H 0.93036 0.61694 0.76095 0.0
C1516 C 0.1537 0.66331 0.74391 0.0
C1517 C 0.23209 0.66414 0.75081 0.0
C1518 C 0.11556 0.65193 0.74322 0.0
C1519 C 0.15416 0.64103 0.74991 0.0
C1520 C 0.23339 0.64186 0.75644 0.0
C1521 C 0.27214 0.65328 0.75665 0.0
C1522 C 0.11145 0.60653 0.74637 0.0
C1523 C 0.03164 0.60601 0.75195 0.0
C1524 C 0.15064 0.61784 0.74535 0.0
C1525 C 0.11151 0.62895 0.75033 0.0
C1526 C 0.03126 0.62839 0.75583 0.0
C1527 C 0.99165 0.61707 0.75638 0.0
H1528 H 0.89874 0.42031 0.51564 0.0
H1529 H 0.68294 0.40368 0.49294 0.0
H1530 H 0.96182 0.40026 0.515 0.0
H1531 H 0.7471 0.3835 0.49177 0.0
H1532 H 0.86088 0.34811 0.51912 0.0
H1533 H 0.79872 0.3682 0.51791 0.0
H1534 H 0.00989 0.38415 0.48981 0.0
H1535 H 0.07329 0.36389 0.49151 0.0
C1536 C 0.86462 0.41238 0.51036 0.0
C1537 C 0.78536 0.41365 0.50442 0.0
C1538 C 0.90128 0.40085 0.50981 0.0
C1539 C 0.85993 0.39021 0.50328 0.0
C1540 C 0.78067 0.39146 0.49717 0.0
C1541 C 0.74381 0.40304 0.49775 0.0
C1542 C 0.89448 0.35587 0.51267 0.0
C1543 C 0.97246 0.35434 0.50544 0.0
C1544 C 0.8583 0.36742 0.51179 0.0
C1545 C 0.8988 0.37784 0.50362 0.0
C1546 C 0.977 0.37635 0.49642 0.0
C1547 C 0.01343 0.36473 0.49733 0.0
H1548 H 0.90537 0.35009 0.2616 0.0
H1549 H 0.68814 0.36571 0.28608 0.0
H1550 H 0.96598 0.37032 0.2632 0.0
H1551 H 0.74979 0.38603 0.28824 0.0
H1552 H 0.85448 0.42176 0.25971 0.0
H1553 H 0.79666 0.40144 0.2616 0.0
H1554 H 0.0123 0.38661 0.28859 0.0
H1555 H 0.07161 0.40718 0.28619 0.0
C1556 C 0.87049 0.35783 0.26751 0.0
C1557 C 0.79146 0.35626 0.27355 0.0
C1558 C 0.90572 0.36945 0.26863 0.0
C1559 C 0.86301 0.37984 0.27584 0.0
C1560 C 0.78425 0.37825 0.28229 0.0
C1561 C 0.74885 0.3666 0.28113 0.0
C1562 C 0.89003 0.41422 0.26612 0.0
C1563 C 0.96806 0.41615 0.27278 0.0
C1564 C 0.8563 0.40253 0.2674 0.0
C1565 C 0.89935 0.39236 0.27542 0.0
C1566 C 0.97754 0.39423 0.28215 0.0
C1567 C 0.01157 0.40602 0.28084 0.0
H1568 H 0.72431 0.10608 0.52958 0.0
H1569 H 0.50705 0.08982 0.5072 0.0
H1570 H 0.66332 0.12631 0.53046 0.0
H1571 H 0.44587 0.11031 0.50772 0.0
H1572 H 0.35452 0.1494 0.53351 0.0
H1573 H 0.40465 0.12808 0.53381 0.0
H1574 H 0.61729 0.14062 0.501 0.0
H1575 H 0.56878 0.16156 0.50097 0.0
C1576 C 0.66345 0.1068 0.52477 0.0
C1577 C 0.62095 0.09629 0.51809 0.0
C1578 C 0.62843 0.11845 0.52521 0.0
C1579 C 0.54982 0.11999 0.51889 0.0
C1580 C 0.50641 0.10945 0.51278 0.0
C1581 C 0.54166 0.09773 0.51233 0.0
C1582 C 0.41179 0.14755 0.52632 0.0
C1583 C 0.45783 0.15726 0.51751 0.0
C1584 C 0.44042 0.13534 0.52642 0.0
C1585 C 0.51561 0.13266 0.51778 0.0
C1586 C 0.56005 0.14235 0.50834 0.0
C1587 C 0.53179 0.15442 0.50825 0.0
H1588 H 0.68583 0.09853 0.77485 0.0
H1589 H 0.47757 0.11147 0.74021 0.0
H1590 H 0.74305 0.119 0.7715 0.0
H1591 H 0.53568 0.13198 0.73653 0.0
H1592 H 0.62333 0.16958 0.76121 0.0
H1593 H 0.57017 0.14893 0.76196 0.0
H1594 H 0.79552 0.13405 0.74334 0.0
H1595 H 0.8501 0.15502 0.74293 0.0
C1596 C 0.65209 0.10574 0.7665 0.0
C1597 C 0.57661 0.10335 0.75796 0.0
C1598 C 0.68546 0.11747 0.76436 0.0
C1599 C 0.64424 0.12715 0.75369 0.0
C1600 C 0.56882 0.12476 0.74507 0.0
C1601 C 0.53541 0.113 0.74717 0.0
C1602 C 0.66211 0.16197 0.75721 0.0
C1603 C 0.74142 0.16402 0.75206 0.0
C1604 C 0.63109 0.15008 0.75745 0.0
C1605 C 0.67822 0.13981 0.75257 0.0
C1606 C 0.75767 0.14178 0.74734 0.0
C1607 C 0.78895 0.15378 0.74701 0.0
H1608 H 0.13076 0.89973 0.49158 0.0
H1609 H 0.33178 0.92104 0.51238 0.0
H1610 H 0.20877 0.8809 0.49317 0.0
H1611 H 0.40929 0.90219 0.5144 0.0
H1612 H 0.54175 0.86631 0.4937 0.0
H1613 H 0.46834 0.88572 0.49092 0.0
H1614 H 0.26844 0.86794 0.52226 0.0
H1615 H 0.34033 0.84874 0.52468 0.0
C1616 C 0.19145 0.90041 0.49657 0.0
C1617 C 0.22466 0.91191 0.50196 0.0
C1618 C 0.23624 0.88959 0.49758 0.0
C1619 C 0.31544 0.88999 0.50404 0.0
C1620 C 0.34885 0.90153 0.50914 0.0
C1621 C 0.30405 0.91234 0.50814 0.0
C1622 C 0.48231 0.8666 0.5001 0.0
C1623 C 0.44702 0.85592 0.50926 0.0
C1624 C 0.4402 0.87772 0.49854 0.0
C1625 C 0.36195 0.87837 0.50609 0.0
C1626 C 0.32776 0.86774 0.51574 0.0
C1627 C 0.36951 0.85671 0.51729 0.0
H1628 H 0.35387 0.92258 0.25387 0.0
H1629 H 0.56127 0.90686 0.28467 0.0
H1630 H 0.29215 0.90243 0.25408 0.0
H1631 H 0.49836 0.88657 0.28524 0.0
H1632 H 0.39237 0.85045 0.25779 0.0
H1633 H 0.45459 0.87057 0.25854 0.0
H1634 H 0.23766 0.88722 0.28061 0.0
H1635 H 0.17449 0.86697 0.27946 0.0
C1636 C 0.38645 0.91482 0.26076 0.0
C1637 C 0.46283 0.91637 0.26923 0.0
C1638 C 0.35056 0.90325 0.26105 0.0
C1639 C 0.38991 0.89287 0.2698 0.0
C1640 C 0.46656 0.89436 0.27817 0.0
C1641 C 0.50263 0.90599 0.27791 0.0
C1642 C 0.35758 0.85838 0.26279 0.0
C1643 C 0.27811 0.85707 0.2685 0.0
C1644 C 0.39368 0.86993 0.2634 0.0
C1645 C 0.3514 0.88053 0.26972 0.0
C1646 C 0.27182 0.87925 0.27542 0.0
C1647 C 0.23557 0.86765 0.27483 0.0
H1648 H 0.42606 0.65574 0.03668 0.0
H1649 H 0.63504 0.66986 1.00385 0.0
H1650 H 0.48674 0.63527 0.03916 0.0
H1651 H 0.69431 0.64961 1.00594 0.0
H1652 H 0.81005 0.61446 0.03118 0.0
H1653 H 0.74824 0.63484 0.0331 0.0
H1654 H 0.52768 0.61856 0.0139 0.0
H1655 H 0.58831 0.59836 0.01251 0.0
C1656 C 0.48447 0.65448 0.02986 0.0
C1657 C 0.52544 0.66446 0.02008 0.0
C1658 C 0.51935 0.64276 0.03127 0.0
C1659 C 0.59585 0.64081 0.02293 0.0
C1660 C 0.63617 0.6508 0.01302 0.0
C1661 C 0.60157 0.66243 1.01162 0.0
C1662 C 0.74835 0.61525 0.02752 0.0
C1663 C 0.70449 0.60477 0.02157 0.0
C1664 C 0.71288 0.62692 0.02852 0.0
C1665 C 0.63284 0.62835 0.02359 0.0
C1666 C 0.589 0.61782 0.01811 0.0
C1667 C 0.62426 0.60621 0.01712 0.0
H1668 H 0.83064 0.65608 0.23966 0.0
H1669 H 0.62413 0.6709 0.27285 0.0
H1670 H 0.76691 0.63583 0.23716 0.0
H1671 H 0.5619 0.65091 0.27061 0.0
H1672 H 0.43917 0.617 0.24264 0.0
H1673 H 0.50617 0.63693 0.24212 0.0
H1674 H 0.72073 0.61899 0.26223 0.0
H1675 H 0.65467 0.59916 0.26236 0.0
C1676 C 0.7722 0.65502 0.24656 0.0
C1677 C 0.73266 0.66515 0.25637 0.0
C1678 C 0.7356 0.64343 0.24513 0.0
C1679 C 0.65878 0.64178 0.25343 0.0
C1680 C 0.6202 0.65189 0.26354 0.0
C1681 C 0.6565 0.66337 0.265 0.0
C1682 C 0.50061 0.61731 0.24688 0.0
C1683 C 0.54119 0.60647 0.25268 0.0
C1684 C 0.53907 0.62873 0.24666 0.0
C1685 C 0.61895 0.62957 0.2522 0.0
C1686 C 0.65959 0.61869 0.2576 0.0
C1687 C 0.62127 0.60731 0.25786 0.0
H1688 H 0.1674 0.40426 0.99455 0.0
H1689 H 0.37743 0.42037 0.02287 0.0
H1690 H 0.23128 0.38403 0.99386 0.0
H1691 H 0.44007 0.40031 0.02252 0.0
H1692 H 0.55706 0.3649 0.99695 0.0
H1693 H 0.49232 0.38504 0.99566 0.0
H1694 H 0.27917 0.36832 0.02058 0.0
H1695 H 0.34276 0.34832 0.02147 0.0
C1696 C 0.22675 0.40349 1.00078 0.0
C1697 C 0.2671 0.41395 1.00874 0.0
C1698 C 0.26342 0.3919 1.00041 0.0
C1699 C 0.34112 0.39056 1.00799 0.0
C1700 C 0.38086 0.40102 0.01613 0.0
C1701 C 0.34443 0.41254 0.01651 0.0
C1702 C 0.49647 0.36555 1.00216 0.0
C1703 C 0.45536 0.35499 1.00934 0.0
C1704 C 0.45934 0.37708 1.00148 0.0
C1705 C 0.38036 0.37829 1.00797 0.0
C1706 C 0.33952 0.36771 0.0151 0.0
C1707 C 0.37645 0.35624 0.01579 0.0
H1708 H 0.36593 0.42078 0.74869 0.0
H1709 H 0.56966 0.40596 0.78308 0.0
H1710 H 0.30454 0.40066 0.74992 0.0
H1711 H 0.50688 0.38561 0.78458 0.0
H1712 H 0.39827 0.34877 0.75981 0.0
H1713 H 0.46342 0.3687 0.75952 0.0
H1714 H 0.24649 0.38656 0.77776 0.0
H1715 H 0.18056 0.36655 0.77765 0.0
C1716 C 0.39789 0.41321 0.75656 0.0
C1717 C 0.47296 0.41504 0.76587 0.0
C1718 C 0.3621 0.40166 0.75743 0.0
C1719 C 0.4001 0.39152 0.76762 0.0
C1720 C 0.47599 0.39322 0.77651 0.0
C1721 C 0.51206 0.40487 0.77566 0.0
C1722 C 0.36415 0.35693 0.76375 0.0
C1723 C 0.28378 0.35603 0.76862 0.0
C1724 C 0.40192 0.36837 0.76378 0.0
C1725 C 0.36043 0.37926 0.7686 0.0
C1726 C 0.28013 0.37837 0.77365 0.0
C1727 C 0.24226 0.3669 0.77367 0.0
loop_
_geom_bond_atom_site_label_1
_geom_bond_atom_site_label_2
_geom_bond_distance
_geom_bond_site_symmetry_2
_ccdc_geom_bond_type
C0 O2 1.247 1_554 S
C0 O4 1.258 . S
C1 O8 1.249 . S
C1 O9 1.255 1_554 S
O2 C0 1.247 1_556 S
O2 Zn3 2.028 . S
Zn3 O2 2.028 . S
Zn3 O7 2.035 1_556 S
Zn3 O9 2.035 . S
Zn3 O10 2.028 . S
O4 C0 1.258 . S
O4 Zn5 2.035 . S
Zn5 O4 2.035 . S
Zn5 O6 2.028 . S
Zn5 O8 2.028 . S
Zn5 O11 2.035 1_554 S
O6 Zn5 2.028 . S
O6 C12 1.247 . S
O7 Zn3 2.035 1_554 S
O7 C12 1.258 . S
O8 C1 1.249 . S
O8 Zn5 2.028 . S
O9 C1 1.255 1_556 S
O9 Zn3 2.035 . S
O10 Zn3 2.028 . S
O10 C13 1.247 . S
O11 Zn5 2.035 1_556 S
O11 C13 1.258 . S
C12 O6 1.247 . S
C12 O7 1.258 . S
C13 O10 1.247 . S
C13 O11 1.258 . S
C14 O16 1.247 1_554 S
C14 O18 1.258 . S
C15 O22 1.249 1_455 S
C15 O23 1.255 1_554 S
O16 C14 1.247 1_556 S
O16 Zn17 2.028 1_655 S
Zn17 O16 2.028 1_455 S
Zn17 O21 2.035 1_556 S
Zn17 O23 2.035 . S
Zn17 O24 2.028 . S
O18 C14 1.258 . S
O18 Zn19 2.035 . S
Zn19 O18 2.035 . S
Zn19 O20 2.028 . S
Zn19 O22 2.028 . S
Zn19 O25 2.035 1_554 S
O20 Zn19 2.028 . S
O20 C26 1.247 1_655 S
O21 Zn17 2.035 1_554 S
O21 C26 1.258 . S
O22 C15 1.249 1_655 S
O22 Zn19 2.028 . S
O23 C15 1.255 1_556 S
O23 Zn17 2.035 . S
O24 Zn17 2.028 . S
O24 C27 1.247 1_455 S
O25 Zn19 2.035 1_556 S
O25 C27 1.258 . S
C26 O20 1.247 1_455 S
C26 O21 1.258 . S
C27 O24 1.247 1_655 S
C27 O25 1.258 . S
C28 O30 1.247 . S
C28 O32 1.258 . S
C29 O36 1.247 . S
C29 O37 1.258 . S
O30 C28 1.247 . S
O30 Zn31 2.028 . S
Zn31 O30 2.028 . S
Zn31 O35 2.035 . S
Zn31 O37 2.035 . S
Zn31 O38 2.028 . S
O32 C28 1.258 . S
O32 Zn33 2.035 . S
Zn33 O32 2.035 . S
Zn33 O34 2.028 . S
Zn33 O36 2.028 . S
Zn33 O39 2.035 . S
O34 Zn33 2.028 . S
O34 C40 1.247 . S
O35 Zn31 2.035 . S
O35 C40 1.258 . S
O36 C29 1.247 . S
O36 Zn33 2.028 . S
O37 C29 1.258 . S
O37 Zn31 2.035 . S
O38 Zn31 2.028 . S
O38 C41 1.247 . S
O39 Zn33 2.035 . S
O39 C41 1.258 . S
C40 O34 1.247 . S
C40 O35 1.258 . S
C41 O38 1.247 . S
C41 O39 1.258 . S
C42 O44 1.247 . S
C42 O46 1.258 1_455 S
C43 O50 1.247 . S
C43 O51 1.258 . S
O44 C42 1.247 . S
O44 Zn45 2.028 . S
Zn45 O44 2.028 . S
Zn45 O49 2.035 . S
Zn45 O51 2.035 1_455 S
Zn45 O52 2.028 . S
O46 C42 1.258 1_655 S
O46 Zn47 2.035 . S
Zn47 O46 2.035 . S
Zn47 O48 2.028 . S
Zn47 O50 2.028 . S
Zn47 O53 2.035 . S
O48 Zn47 2.028 . S
O48 C54 1.247 . S
O49 Zn45 2.035 . S
O49 C54 1.258 1_455 S
O50 C43 1.247 . S
O50 Zn47 2.028 . S
O51 C43 1.258 . S
O51 Zn45 2.035 1_655 S
O52 Zn45 2.028 . S
O52 C55 1.247 . S
O53 Zn47 2.035 . S
O53 C55 1.258 1_655 S
C54 O48 1.247 . S
C54 O49 1.258 1_655 S
C55 O52 1.247 . S
C55 O53 1.258 1_455 S
C56 O58 1.247 . S
C56 O60 1.258 . S
C57 O64 1.247 . S
C57 O65 1.258 . S
O58 C56 1.247 . S
O58 Zn59 2.028 . S
Zn59 O58 2.028 . S
Zn59 O63 2.035 . S
Zn59 O65 2.035 1_554 S
Zn59 O66 2.028 . S
O60 C56 1.258 . S
O60 Zn61 2.035 1_554 S
Zn61 O60 2.035 1_556 S
Zn61 O62 2.028 . S
Zn61 O64 2.028 . S
Zn61 O67 2.035 . S
O62 Zn61 2.028 . S
O62 C68 1.249 . S
O63 Zn59 2.035 . S
O63 C68 1.255 1_554 S
O64 C57 1.247 . S
O64 Zn61 2.028 . S
O65 C57 1.258 . S
O65 Zn59 2.035 1_556 S
O66 Zn59 2.028 . S
O66 C69 1.247 1_554 S
O67 Zn61 2.035 . S
O67 C69 1.258 . S
C68 O62 1.249 . S
C68 O63 1.255 1_556 S
C69 O66 1.247 1_556 S
C69 O67 1.258 . S
C70 O72 1.247 . S
C70 O74 1.258 1_655 S
C71 O78 1.247 . S
C71 O79 1.258 1_455 S
O72 C70 1.247 . S
O72 Zn73 2.028 1_556 S
Zn73 O72 2.028 1_554 S
Zn73 O77 2.035 1_655 S
Zn73 O79 2.035 . S
Zn73 O80 2.028 . S
O74 C70 1.258 1_455 S
O74 Zn75 2.035 . S
Zn75 O74 2.035 . S
Zn75 O76 2.028 . S
Zn75 O78 2.028 1_556 S
Zn75 O81 2.035 . S
O76 Zn75 2.028 . S
O76 C82 1.247 . S
O77 Zn73 2.035 1_455 S
O77 C82 1.258 1_554 S
O78 C71 1.247 . S
O78 Zn75 2.028 1_554 S
O79 C71 1.258 1_655 S
O79 Zn73 2.035 . S
O80 Zn73 2.028 . S
O80 C83 1.244 1_554 S
O81 Zn75 2.035 . S
O81 C83 1.260 1_455 S
C82 O76 1.247 . S
C82 O77 1.258 1_556 S
C83 O80 1.244 1_556 S
C83 O81 1.260 1_655 S
C84 O86 1.247 . S
C84 O88 1.258 . S
C85 O92 1.247 . S
C85 O93 1.258 . S
O86 C84 1.247 . S
O86 Zn87 2.028 . S
Zn87 O86 2.028 . S
Zn87 O91 2.035 . S
Zn87 O93 2.035 . S
Zn87 O94 2.028 . S
O88 C84 1.258 . S
O88 Zn89 2.035 . S
Zn89 O88 2.035 . S
Zn89 O90 2.028 . S
Zn89 O92 2.028 . S
Zn89 O95 2.035 . S
O90 Zn89 2.028 . S
O90 C96 1.247 . S
O91 Zn87 2.035 . S
O91 C96 1.258 . S
O92 C85 1.247 . S
O92 Zn89 2.028 . S
O93 C85 1.258 . S
O93 Zn87 2.035 . S
O94 Zn87 2.028 . S
O94 C97 1.247 . S
O95 Zn89 2.035 . S
O95 C97 1.258 . S
C96 O90 1.247 . S
C96 O91 1.258 . S
C97 O94 1.247 . S
C97 O95 1.258 . S
C98 O100 1.247 . S
C98 O102 1.258 . S
C99 O106 1.247 . S
C99 O107 1.258 1_655 S
O100 C98 1.247 . S
O100 Zn101 2.028 . S
Zn101 O100 2.028 . S
Zn101 O105 2.035 . S
Zn101 O107 2.035 . S
Zn101 O108 2.028 . S
O102 C98 1.258 . S
O102 Zn103 2.035 1_455 S
Zn103 O102 2.035 1_655 S
Zn103 O104 2.028 . S
Zn103 O106 2.028 . S
Zn103 O109 2.035 . S
O104 Zn103 2.028 . S
O104 C110 1.247 . S
O105 Zn101 2.035 . S
O105 C110 1.258 1_455 S
O106 C99 1.247 . S
O106 Zn103 2.028 . S
O107 C99 1.258 1_455 S
O107 Zn101 2.035 . S
O108 Zn101 2.028 . S
O108 C111 1.247 . S
O109 Zn103 2.035 . S
O109 C111 1.258 1_655 S
C110 O104 1.247 . S
C110 O105 1.258 1_655 S
C111 O108 1.247 . S
C111 O109 1.258 1_455 S
C112 O114 1.247 . S
C112 O116 1.258 . S
C113 O120 1.247 . S
C113 O121 1.258 . S
O114 C112 1.247 . S
O114 Zn115 2.028 . S
Zn115 O114 2.028 . S
Zn115 O119 2.035 . S
Zn115 O121 2.035 . S
Zn115 O122 2.028 . S
O116 C112 1.258 . S
O116 Zn117 2.035 . S
Zn117 O116 2.035 . S
Zn117 O118 2.028 . S
Zn117 O120 2.028 . S
Zn117 O123 2.035 . S
O118 Zn117 2.028 . S
O118 C124 1.247 . S
O119 Zn115 2.035 . S
O119 C124 1.258 . S
O120 C113 1.247 . S
O120 Zn117 2.028 . S
O121 C113 1.258 . S
O121 Zn115 2.035 . S
O122 Zn115 2.028 . S
O122 C125 1.247 . S
O123 Zn117 2.035 . S
O123 C125 1.258 . S
C124 O118 1.247 . S
C124 O119 1.258 . S
C125 O122 1.247 . S
C125 O123 1.258 . S
C126 O128 1.247 . S
C126 O130 1.258 1_455 S
C127 O134 1.247 . S
C127 O135 1.258 . S
O128 C126 1.247 . S
O128 Zn129 2.028 . S
Zn129 O128 2.028 . S
Zn129 O133 2.035 . S
Zn129 O135 2.035 1_455 S
Zn129 O136 2.028 . S
O130 C126 1.258 1_655 S
O130 Zn131 2.035 . S
Zn131 O130 2.035 . S
Zn131 O132 2.028 . S
Zn131 O134 2.028 . S
Zn131 O137 2.035 . S
O132 Zn131 2.028 . S
O132 C138 1.247 . S
O133 Zn129 2.035 . S
O133 C138 1.258 1_455 S
O134 C127 1.247 . S
O134 Zn131 2.028 . S
O135 C127 1.258 . S
O135 Zn129 2.035 1_655 S
O136 Zn129 2.028 . S
O136 C139 1.247 . S
O137 Zn131 2.035 . S
O137 C139 1.258 1_655 S
C138 O132 1.247 . S
C138 O133 1.258 1_655 S
C139 O136 1.247 . S
C139 O137 1.258 1_455 S
C140 O142 1.247 . S
C140 O144 1.258 . S
C141 O148 1.247 . S
C141 O149 1.258 . S
O142 C140 1.247 . S
O142 Zn143 2.028 . S
Zn143 O142 2.028 . S
Zn143 O147 2.035 . S
Zn143 O149 2.035 . S
Zn143 O150 2.028 . S
O144 C140 1.258 . S
O144 Zn145 2.035 . S
Zn145 O144 2.035 . S
Zn145 O146 2.028 . S
Zn145 O148 2.028 . S
Zn145 O151 2.035 . S
O146 Zn145 2.028 . S
O146 C152 1.247 . S
O147 Zn143 2.035 . S
O147 C152 1.258 . S
O148 C141 1.247 . S
O148 Zn145 2.028 . S
O149 C141 1.258 . S
O149 Zn143 2.035 . S
O150 Zn143 2.028 . S
O150 C153 1.247 . S
O151 Zn145 2.035 . S
O151 C153 1.258 . S
C152 O146 1.247 . S
C152 O147 1.258 . S
C153 O150 1.247 . S
C153 O151 1.258 . S
C154 O156 1.247 . S
C154 O158 1.258 1_455 S
C155 O162 1.247 . S
C155 O163 1.258 . S
O156 C154 1.247 . S
O156 Zn157 2.028 . S
Zn157 O156 2.028 . S
Zn157 O161 2.035 . S
Zn157 O163 2.035 1_455 S
Zn157 O164 2.028 . S
O158 C154 1.258 1_655 S
O158 Zn159 2.035 . S
Zn159 O158 2.035 . S
Zn159 O160 2.028 . S
Zn159 O162 2.028 . S
Zn159 O165 2.035 . S
O160 Zn159 2.028 . S
O160 C166 1.247 . S
O161 Zn157 2.035 . S
O161 C166 1.258 1_455 S
O162 C155 1.247 . S
O162 Zn159 2.028 . S
O163 C155 1.258 . S
O163 Zn157 2.035 1_655 S
O164 Zn157 2.028 . S
O164 C167 1.247 . S
O165 Zn159 2.035 . S
O165 C167 1.258 1_655 S
C166 O160 1.247 . S
C166 O161 1.258 1_655 S
C167 O164 1.247 . S
C167 O165 1.258 1_455 S
C168 O170 1.247 . S
C168 O172 1.258 . S
C169 O176 1.247 . S
C169 O177 1.258 . S
O170 C168 1.247 . S
O170 Zn171 2.028 . S
Zn171 O170 2.028 . S
Zn171 O175 2.035 . S
Zn171 O177 2.035 . S
Zn171 O178 2.028 . S
O172 C168 1.258 . S
O172 Zn173 2.035 . S
Zn173 O172 2.035 . S
Zn173 O174 2.028 . S
Zn173 O176 2.028 . S
Zn173 O179 2.035 . S
O174 Zn173 2.028 . S
O174 C180 1.247 . S
O175 Zn171 2.035 . S
O175 C180 1.258 . S
O176 C169 1.247 . S
O176 Zn173 2.028 . S
O177 C169 1.258 . S
O177 Zn171 2.035 . S
O178 Zn171 2.028 . S
O178 C181 1.247 . S
O179 Zn173 2.035 . S
O179 C181 1.258 . S
C180 O174 1.247 . S
C180 O175 1.258 . S
C181 O178 1.247 . S
C181 O179 1.258 . S
C182 O184 1.247 1_455 S
C182 O186 1.258 . S
C183 O190 1.247 1_655 S
C183 O191 1.258 . S
O184 C182 1.247 1_655 S
O184 Zn185 2.028 . S
Zn185 O184 2.028 . S
Zn185 O189 2.035 . S
Zn185 O191 2.035 . S
Zn185 O192 2.028 1_655 S
O186 C182 1.258 . S
O186 Zn187 2.035 . S
Zn187 O186 2.035 . S
Zn187 O188 2.028 . S
Zn187 O190 2.028 . S
Zn187 O193 2.035 . S
O188 Zn187 2.028 . S
O188 C194 1.247 1_455 S
O189 Zn185 2.035 . S
O189 C194 1.258 . S
O190 C183 1.247 1_455 S
O190 Zn187 2.028 . S
O191 C183 1.258 . S
O191 Zn185 2.035 . S
O192 Zn185 2.028 1_455 S
O192 C195 1.247 . S
O193 Zn187 2.035 . S
O193 C195 1.258 . S
C194 O188 1.247 1_655 S
C194 O189 1.258 . S
C195 O192 1.247 . S
C195 O193 1.258 . S
C196 O198 1.247 . S
C196 O200 1.258 . S
C197 O204 1.247 . S
C197 O205 1.258 . S
O198 C196 1.247 . S
O198 Zn199 2.028 . S
Zn199 O198 2.028 . S
Zn199 O203 2.035 . S
Zn199 O205 2.035 . S
Zn199 O206 2.028 . S
O200 C196 1.258 . S
O200 Zn201 2.035 . S
Zn201 O200 2.035 . S
Zn201 O202 2.028 . S
Zn201 O204 2.028 . S
Zn201 O207 2.035 . S
O202 Zn201 2.028 . S
O202 C208 1.247 . S
O203 Zn199 2.035 . S
O203 C208 1.258 . S
O204 C197 1.247 . S
O204 Zn201 2.028 . S
O205 C197 1.258 . S
O205 Zn199 2.035 . S
O206 Zn199 2.028 . S
O206 C209 1.247 . S
O207 Zn201 2.035 . S
O207 C209 1.258 . S
C208 O202 1.247 . S
C208 O203 1.258 . S
C209 O206 1.247 . S
C209 O207 1.258 . S
C210 O212 1.247 . S
C210 O214 1.258 1_655 S
C211 O218 1.247 . S
C211 O219 1.258 1_455 S
O212 C210 1.247 . S
O212 Zn213 2.028 . S
Zn213 O212 2.028 . S
Zn213 O217 2.035 1_655 S
Zn213 O219 2.035 . S
Zn213 O220 2.028 . S
O214 C210 1.258 1_455 S
O214 Zn215 2.035 . S
Zn215 O214 2.035 . S
Zn215 O216 2.028 . S
Zn215 O218 2.028 . S
Zn215 O221 2.035 . S
O216 Zn215 2.028 . S
O216 C222 1.247 . S
O217 Zn213 2.035 1_455 S
O217 C222 1.258 . S
O218 C211 1.247 . S
O218 Zn215 2.028 . S
O219 C211 1.258 1_655 S
O219 Zn213 2.035 . S
O220 Zn213 2.028 . S
O220 C223 1.247 . S
O221 Zn215 2.035 . S
O221 C223 1.258 1_455 S
C222 O216 1.247 . S
C222 O217 1.258 . S
C223 O220 1.247 . S
C223 O221 1.258 1_655 S
C224 O226 1.247 . S
C224 O228 1.258 . S
C225 O232 1.247 . S
C225 O233 1.258 . S
O226 C224 1.247 . S
O226 Zn227 2.028 . S
Zn227 O226 2.028 . S
Zn227 O231 2.035 . S
Zn227 O233 2.035 . S
Zn227 O234 2.028 . S
O228 C224 1.258 . S
O228 Zn229 2.035 . S
Zn229 O228 2.035 . S
Zn229 O230 2.028 . S
Zn229 O232 2.028 . S
Zn229 O235 2.035 . S
O230 Zn229 2.028 . S
O230 C236 1.247 . S
O231 Zn227 2.035 . S
O231 C236 1.258 . S
O232 C225 1.247 . S
O232 Zn229 2.028 . S
O233 C225 1.258 . S
O233 Zn227 2.035 . S
O234 Zn227 2.028 . S
O234 C237 1.247 . S
O235 Zn229 2.035 . S
O235 C237 1.258 . S
C236 O230 1.247 . S
C236 O231 1.258 . S
C237 O234 1.247 . S
C237 O235 1.258 . S
C238 O240 1.247 . S
C238 O242 1.258 . S
C239 O246 1.247 . S
C239 O247 1.258 . S
O240 C238 1.247 . S
O240 Zn241 2.028 . S
Zn241 O240 2.028 . S
Zn241 O245 2.035 . S
Zn241 O247 2.035 . S
Zn241 O248 2.028 . S
O242 C238 1.258 . S
O242 Zn243 2.035 . S
Zn243 O242 2.035 . S
Zn243 O244 2.028 . S
Zn243 O246 2.028 . S
Zn243 O249 2.035 . S
O244 Zn243 2.028 . S
O244 C250 1.247 . S
O245 Zn241 2.035 . S
O245 C250 1.258 . S
O246 C239 1.247 . S
O246 Zn243 2.028 . S
O247 C239 1.258 . S
O247 Zn241 2.035 . S
O248 Zn241 2.028 . S
O248 C251 1.247 . S
O249 Zn243 2.035 . S
O249 C251 1.258 . S
C250 O244 1.247 . S
C250 O245 1.258 . S
C251 O248 1.247 . S
C251 O249 1.258 . S
C252 O254 1.247 . S
C252 O256 1.258 . S
C253 O260 1.247 . S
C253 O261 1.258 . S
O254 C252 1.247 . S
O254 Zn255 2.028 . S
Zn255 O254 2.028 . S
Zn255 O259 2.035 . S
Zn255 O261 2.035 . S
Zn255 O262 2.028 . S
O256 C252 1.258 . S
O256 Zn257 2.035 . S
Zn257 O256 2.035 . S
Zn257 O258 2.028 . S
Zn257 O260 2.028 . S
Zn257 O263 2.035 . S
O258 Zn257 2.028 . S
O258 C264 1.247 . S
O259 Zn255 2.035 . S
O259 C264 1.258 . S
O260 C253 1.247 . S
O260 Zn257 2.028 . S
O261 C253 1.258 . S
O261 Zn255 2.035 . S
O262 Zn255 2.028 . S
O262 C265 1.247 . S
O263 Zn257 2.035 . S
O263 C265 1.258 . S
C264 O258 1.247 . S
C264 O259 1.258 . S
C265 O262 1.247 . S
C265 O263 1.258 . S
C266 O268 1.247 . S
C266 O270 1.258 . S
C267 O274 1.247 . S
C267 O275 1.258 . S
O268 C266 1.247 . S
O268 Zn269 2.028 . S
Zn269 O268 2.028 . S
Zn269 O273 2.035 . S
Zn269 O275 2.035 . S
Zn269 O276 2.028 . S
O270 C266 1.258 . S
O270 Zn271 2.035 . S
Zn271 O270 2.035 . S
Zn271 O272 2.028 . S
Zn271 O274 2.028 . S
Zn271 O277 2.035 . S
O272 Zn271 2.028 . S
O272 C278 1.247 . S
O273 Zn269 2.035 . S
O273 C278 1.258 . S
O274 C267 1.247 . S
O274 Zn271 2.028 . S
O275 C267 1.258 . S
O275 Zn269 2.035 . S
O276 Zn269 2.028 . S
O276 C279 1.247 . S
O277 Zn271 2.035 . S
O277 C279 1.258 . S
C278 O272 1.247 . S
C278 O273 1.258 . S
C279 O276 1.247 . S
C279 O277 1.258 . S
C280 O282 1.247 . S
C280 O284 1.258 . S
C281 O288 1.247 . S
C281 O289 1.258 . S
O282 C280 1.247 . S
O282 Zn283 2.028 . S
Zn283 O282 2.028 . S
Zn283 O287 2.035 . S
Zn283 O289 2.035 . S
Zn283 O290 2.028 . S
O284 C280 1.258 . S
O284 Zn285 2.035 . S
Zn285 O284 2.035 . S
Zn285 O286 2.028 . S
Zn285 O288 2.028 . S
Zn285 O291 2.035 . S
O286 Zn285 2.028 . S
O286 C292 1.247 . S
O287 Zn283 2.035 . S
O287 C292 1.258 . S
O288 C281 1.247 . S
O288 Zn285 2.028 . S
O289 C281 1.258 . S
O289 Zn283 2.035 . S
O290 Zn283 2.028 . S
O290 C293 1.247 . S
O291 Zn285 2.035 . S
O291 C293 1.258 . S
C292 O286 1.247 . S
C292 O287 1.258 . S
C293 O290 1.247 . S
C293 O291 1.258 . S
C294 O296 1.247 . S
C294 O298 1.258 . S
C295 O302 1.247 . S
C295 O303 1.258 . S
O296 C294 1.247 . S
O296 Zn297 2.028 . S
Zn297 O296 2.028 . S
Zn297 O301 2.035 . S
Zn297 O303 2.035 . S
Zn297 O304 2.028 . S
O298 C294 1.258 . S
O298 Zn299 2.035 . S
Zn299 O298 2.035 . S
Zn299 O300 2.028 . S
Zn299 O302 2.028 . S
Zn299 O305 2.035 . S
O300 Zn299 2.028 . S
O300 C306 1.247 . S
O301 Zn297 2.035 . S
O301 C306 1.258 . S
O302 C295 1.247 . S
O302 Zn299 2.028 . S
O303 C295 1.258 . S
O303 Zn297 2.035 . S
O304 Zn297 2.028 . S
O304 C307 1.247 . S
O305 Zn299 2.035 . S
O305 C307 1.258 . S
C306 O300 1.247 . S
C306 O301 1.258 . S
C307 O304 1.247 . S
C307 O305 1.258 . S
C308 O310 1.247 . S
C308 O312 1.258 . S
C309 O316 1.247 . S
C309 O317 1.258 . S
O310 C308 1.247 . S
O310 Zn311 2.028 . S
Zn311 O310 2.028 . S
Zn311 O315 2.035 . S
Zn311 O317 2.035 . S
Zn311 O318 2.028 . S
O312 C308 1.258 . S
O312 Zn313 2.035 . S
Zn313 O312 2.035 . S
Zn313 O314 2.028 . S
Zn313 O316 2.028 . S
Zn313 O319 2.035 . S
O314 Zn313 2.028 . S
O314 C320 1.247 . S
O315 Zn311 2.035 . S
O315 C320 1.258 . S
O316 C309 1.247 . S
O316 Zn313 2.028 . S
O317 C309 1.258 . S
O317 Zn311 2.035 . S
O318 Zn311 2.028 . S
O318 C321 1.247 . S
O319 Zn313 2.035 . S
O319 C321 1.258 . S
C320 O314 1.247 . S
C320 O315 1.258 . S
C321 O318 1.247 . S
C321 O319 1.258 . S
C322 O324 1.247 . S
C322 O326 1.258 . S
C323 O330 1.247 . S
C323 O331 1.258 . S
O324 C322 1.247 . S
O324 Zn325 2.028 . S
Zn325 O324 2.028 . S
Zn325 O329 2.035 . S
Zn325 O331 2.035 . S
Zn325 O332 2.028 . S
O326 C322 1.258 . S
O326 Zn327 2.035 . S
Zn327 O326 2.035 . S
Zn327 O328 2.028 . S
Zn327 O330 2.028 . S
Zn327 O333 2.035 . S
O328 Zn327 2.028 . S
O328 C334 1.247 . S
O329 Zn325 2.035 . S
O329 C334 1.258 . S
O330 C323 1.247 . S
O330 Zn327 2.028 . S
O331 C323 1.258 . S
O331 Zn325 2.035 . S
O332 Zn325 2.028 . S
O332 C335 1.247 . S
O333 Zn327 2.035 . S
O333 C335 1.258 . S
C334 O328 1.247 . S
C334 O329 1.258 . S
C335 O332 1.247 . S
C335 O333 1.258 . S
C336 O338 1.247 . S
C336 O340 1.258 . S
C337 O344 1.247 . S
C337 O345 1.258 . S
O338 C336 1.247 . S
O338 Zn339 2.028 1_556 S
Zn339 O338 2.028 1_554 S
Zn339 O343 2.035 . S
Zn339 O345 2.035 . S
Zn339 O346 2.028 . S
O340 C336 1.258 . S
O340 Zn341 2.035 . S
Zn341 O340 2.035 . S
Zn341 O342 2.028 . S
Zn341 O344 2.028 1_556 S
Zn341 O347 2.035 . S
O342 Zn341 2.028 . S
O342 C348 1.245 1_556 S
O343 Zn339 2.035 . S
O343 C348 1.260 . S
O344 C337 1.247 . S
O344 Zn341 2.028 1_554 S
O345 C337 1.258 . S
O345 Zn339 2.035 . S
O346 Zn339 2.028 . S
O346 C349 1.247 . S
O347 Zn341 2.035 . S
O347 C349 1.258 1_556 S
C348 O342 1.245 1_554 S
C348 O343 1.260 . S
C349 O346 1.247 . S
C349 O347 1.258 1_554 S
C350 O352 1.247 1_554 S
C350 O354 1.258 . S
C351 O358 1.248 . S
C351 O359 1.256 1_554 S
O352 C350 1.247 1_556 S
O352 Zn353 2.028 . S
Zn353 O352 2.028 . S
Zn353 O357 2.035 1_556 S
Zn353 O359 2.035 . S
Zn353 O360 2.028 . S
O354 C350 1.258 . S
O354 Zn355 2.035 . S
Zn355 O354 2.035 . S
Zn355 O356 2.028 . S
Zn355 O358 2.028 . S
Zn355 O361 2.035 1_554 S
O356 Zn355 2.028 . S
O356 C362 1.247 . S
O357 Zn353 2.035 1_554 S
O357 C362 1.258 . S
O358 C351 1.248 . S
O358 Zn355 2.028 . S
O359 C351 1.256 1_556 S
O359 Zn353 2.035 . S
O360 Zn353 2.028 . S
O360 C363 1.247 . S
O361 Zn355 2.035 1_556 S
O361 C363 1.258 . S
C362 O356 1.247 . S
C362 O357 1.258 . S
C363 O360 1.247 . S
C363 O361 1.258 . S
C364 O366 1.247 . S
C364 O368 1.258 . S
C365 O372 1.247 . S
C365 O373 1.258 . S
O366 C364 1.247 . S
O366 Zn367 2.028 . S
Zn367 O366 2.028 . S
Zn367 O371 2.035 . S
Zn367 O373 2.035 . S
Zn367 O374 2.028 . S
O368 C364 1.258 . S
O368 Zn369 2.035 . S
Zn369 O368 2.035 . S
Zn369 O370 2.028 . S
Zn369 O372 2.028 . S
Zn369 O375 2.035 . S
O370 Zn369 2.028 . S
O370 C376 1.247 . S
O371 Zn367 2.035 . S
O371 C376 1.258 . S
O372 C365 1.247 . S
O372 Zn369 2.028 . S
O373 C365 1.258 . S
O373 Zn367 2.035 . S
O374 Zn367 2.028 . S
O374 C377 1.247 . S
O375 Zn369 2.035 . S
O375 C377 1.258 . S
C376 O370 1.247 . S
C376 O371 1.258 . S
C377 O374 1.247 . S
C377 O375 1.258 . S
C378 O380 1.247 . S
C378 O382 1.258 . S
C379 O386 1.247 . S
C379 O387 1.258 . S
O380 C378 1.247 . S
O380 Zn381 2.028 . S
Zn381 O380 2.028 . S
Zn381 O385 2.035 . S
Zn381 O387 2.035 . S
Zn381 O388 2.028 . S
O382 C378 1.258 . S
O382 Zn383 2.035 . S
Zn383 O382 2.035 . S
Zn383 O384 2.028 . S
Zn383 O386 2.028 . S
Zn383 O389 2.035 . S
O384 Zn383 2.028 . S
O384 C390 1.247 . S
O385 Zn381 2.035 . S
O385 C390 1.258 . S
O386 C379 1.247 . S
O386 Zn383 2.028 . S
O387 C379 1.258 . S
O387 Zn381 2.035 . S
O388 Zn381 2.028 . S
O388 C391 1.247 . S
O389 Zn383 2.035 . S
O389 C391 1.258 . S
C390 O384 1.247 . S
C390 O385 1.258 . S
C391 O388 1.247 . S
C391 O389 1.258 . S
C392 O394 1.247 . S
C392 O396 1.258 . S
C393 O400 1.247 . S
C393 O401 1.258 . S
O394 C392 1.247 . S
O394 Zn395 2.028 . S
Zn395 O394 2.028 . S
Zn395 O399 2.035 . S
Zn395 O401 2.035 1_554 S
Zn395 O402 2.028 . S
O396 C392 1.258 . S
O396 Zn397 2.035 1_554 S
Zn397 O396 2.035 1_556 S
Zn397 O398 2.028 . S
Zn397 O400 2.028 . S
Zn397 O403 2.035 . S
O398 Zn397 2.028 . S
O398 C404 1.249 . S
O399 Zn395 2.035 . S
O399 C404 1.256 1_554 S
O400 C393 1.247 . S
O400 Zn397 2.028 . S
O401 C393 1.258 . S
O401 Zn395 2.035 1_556 S
O402 Zn395 2.028 . S
O402 C405 1.247 1_554 S
O403 Zn397 2.035 . S
O403 C405 1.258 . S
C404 O398 1.249 . S
C404 O399 1.256 1_556 S
C405 O402 1.247 1_556 S
C405 O403 1.258 . S
C406 O408 1.247 . S
C406 O410 1.258 . S
C407 O414 1.247 . S
C407 O415 1.258 . S
O408 C406 1.247 . S
O408 Zn409 2.028 . S
Zn409 O408 2.028 . S
Zn409 O413 2.035 . S
Zn409 O415 2.035 1_554 S
Zn409 O416 2.028 . S
O410 C406 1.258 . S
O410 Zn411 2.035 1_554 S
Zn411 O410 2.035 1_556 S
Zn411 O412 2.028 . S
Zn411 O414 2.028 . S
Zn411 O417 2.035 . S
O412 Zn411 2.028 . S
O412 C418 1.248 . S
O413 Zn409 2.035 . S
O413 C418 1.256 1_554 S
O414 C407 1.247 . S
O414 Zn411 2.028 . S
O415 C407 1.258 . S
O415 Zn409 2.035 1_556 S
O416 Zn409 2.028 . S
O416 C419 1.247 1_554 S
O417 Zn411 2.035 . S
O417 C419 1.258 . S
C418 O412 1.248 . S
C418 O413 1.256 1_556 S
C419 O416 1.247 1_556 S
C419 O417 1.258 . S
C420 O422 1.247 . S
C420 O424 1.258 . S
C421 O428 1.247 . S
C421 O429 1.258 . S
O422 C420 1.247 . S
O422 Zn423 2.028 . S
Zn423 O422 2.028 . S
Zn423 O427 2.035 . S
Zn423 O429 2.035 . S
Zn423 O430 2.028 . S
O424 C420 1.258 . S
O424 Zn425 2.035 . S
Zn425 O424 2.035 . S
Zn425 O426 2.028 . S
Zn425 O428 2.028 . S
Zn425 O431 2.035 . S
O426 Zn425 2.028 . S
O426 C432 1.247 . S
O427 Zn423 2.035 . S
O427 C432 1.258 . S
O428 C421 1.247 . S
O428 Zn425 2.028 . S
O429 C421 1.258 . S
O429 Zn423 2.035 . S
O430 Zn423 2.028 . S
O430 C433 1.247 . S
O431 Zn425 2.035 . S
O431 C433 1.258 . S
C432 O426 1.247 . S
C432 O427 1.258 . S
C433 O430 1.247 . S
C433 O431 1.258 . S
C434 O436 1.247 . S
C434 O438 1.258 . S
C435 O442 1.247 . S
C435 O443 1.258 . S
O436 C434 1.247 . S
O436 Zn437 2.028 . S
Zn437 O436 2.028 . S
Zn437 O441 2.035 . S
Zn437 O443 2.035 . S
Zn437 O444 2.028 . S
O438 C434 1.258 . S
O438 Zn439 2.035 . S
Zn439 O438 2.035 . S
Zn439 O440 2.028 . S
Zn439 O442 2.028 . S
Zn439 O445 2.035 . S
O440 Zn439 2.028 . S
O440 C446 1.247 . S
O441 Zn437 2.035 . S
O441 C446 1.258 . S
O442 C435 1.247 . S
O442 Zn439 2.028 . S
O443 C435 1.258 . S
O443 Zn437 2.035 . S
O444 Zn437 2.028 . S
O444 C447 1.247 . S
O445 Zn439 2.035 . S
O445 C447 1.258 . S
C446 O440 1.247 . S
C446 O441 1.258 . S
C447 O444 1.247 . S
C447 O445 1.258 . S
H448 C456 0.950 . S
H449 C461 0.950 . S
H450 C458 0.950 . S
H451 C460 0.950 . S
H452 C462 0.950 1_655 S
H453 C464 0.957 . S
H454 C466 0.950 . S
H455 C467 0.950 . S
C456 H448 0.950 . S
C456 C457 1.386 . S
C456 C458 1.391 . S
C457 C456 1.386 . S
C457 C461 1.393 . S
C458 H450 0.950 . S
C458 C456 1.391 . S
C458 C459 1.400 . S
C459 C458 1.400 . S
C459 C460 1.398 . S
C459 C465 1.491 . S
C460 H451 0.950 . S
C460 C459 1.398 . S
C460 C461 1.391 . S
C461 H449 0.950 . S
C461 C457 1.393 . S
C461 C460 1.391 . S
C462 H452 0.950 1_455 S
C462 C463 1.386 . S
C462 C464 1.391 . S
C463 C462 1.386 . S
C463 C467 1.393 . S
C464 H453 0.957 . S
C464 C462 1.391 . S
C464 C465 1.400 . S
C465 C459 1.491 . S
C465 C464 1.400 . S
C465 C466 1.398 . S
C466 H454 0.950 . S
C466 C465 1.398 . S
C466 C467 1.391 . S
C467 H455 0.950 . S
C467 C463 1.393 . S
C467 C466 1.391 . S
H468 C476 0.950 . S
H469 C481 0.950 . S
H470 C478 0.950 . S
H471 C480 0.950 . S
H472 C482 0.950 1_655 S
H473 C484 0.949 . S
H474 C486 0.950 . S
H475 C487 0.950 . S
C476 H468 0.950 . S
C476 C477 1.386 . S
C476 C478 1.391 . S
C477 C476 1.386 . S
C477 C481 1.393 . S
C478 H470 0.950 . S
C478 C476 1.391 . S
C478 C479 1.400 . S
C479 C478 1.400 . S
C479 C480 1.398 . S
C479 C485 1.491 . S
C480 H471 0.950 . S
C480 C479 1.398 . S
C480 C481 1.391 . S
C481 H469 0.950 . S
C481 C477 1.393 . S
C481 C480 1.391 . S
C482 H472 0.950 1_455 S
C482 C483 1.386 . S
C482 C484 1.391 . S
C483 C482 1.386 . S
C483 C487 1.393 . S
C484 H473 0.949 . S
C484 C482 1.391 . S
C484 C485 1.400 . S
C485 C479 1.491 . S
C485 C484 1.400 . S
C485 C486 1.398 . S
C486 H474 0.950 . S
C486 C485 1.398 . S
C486 C487 1.391 . S
C487 H475 0.950 . S
C487 C483 1.393 . S
C487 C486 1.391 . S
H488 C496 0.950 . S
H489 C501 0.950 . S
H490 C498 0.950 . S
H491 C500 0.950 . S
H492 C502 0.950 . S
H493 C504 0.950 . S
H494 C506 0.950 . S
H495 C507 0.950 . S
C496 H488 0.950 . S
C496 C497 1.386 . S
C496 C498 1.391 . S
C497 C496 1.386 . S
C497 C501 1.393 . S
C498 H490 0.950 . S
C498 C496 1.391 . S
C498 C499 1.400 . S
C499 C498 1.400 . S
C499 C500 1.398 . S
C499 C505 1.491 . S
C500 H491 0.950 . S
C500 C499 1.398 . S
C500 C501 1.391 . S
C501 H489 0.950 . S
C501 C497 1.393 . S
C501 C500 1.391 . S
C502 H492 0.950 . S
C502 C503 1.386 . S
C502 C504 1.391 . S
C503 C502 1.386 . S
C503 C507 1.393 . S
C504 H493 0.950 . S
C504 C502 1.391 . S
C504 C505 1.400 . S
C505 C499 1.491 . S
C505 C504 1.400 . S
C505 C506 1.398 . S
C506 H494 0.950 . S
C506 C505 1.398 . S
C506 C507 1.391 . S
C507 H495 0.950 . S
C507 C503 1.393 . S
C507 C506 1.391 . S
H508 C516 0.950 . S
H509 C521 0.950 . S
H510 C518 0.950 . S
H511 C520 0.950 . S
H512 C522 0.950 . S
H513 C524 0.950 . S
H514 C526 0.950 . S
H515 C527 0.950 1_455 S
C516 H508 0.950 . S
C516 C517 1.386 . S
C516 C518 1.391 . S
C517 C516 1.386 . S
C517 C521 1.393 . S
C518 H510 0.950 . S
C518 C516 1.391 . S
C518 C519 1.400 . S
C519 C518 1.400 . S
C519 C520 1.398 . S
C519 C525 1.491 . S
C520 H511 0.950 . S
C520 C519 1.398 . S
C520 C521 1.391 . S
C521 H509 0.950 . S
C521 C517 1.393 . S
C521 C520 1.391 . S
C522 H512 0.950 . S
C522 C523 1.386 . S
C522 C524 1.391 . S
C523 C522 1.386 . S
C523 C527 1.393 . S
C524 H513 0.950 . S
C524 C522 1.391 . S
C524 C525 1.400 . S
C525 C519 1.491 . S
C525 C524 1.400 . S
C525 C526 1.398 . S
C526 H514 0.950 . S
C526 C525 1.398 . S
C526 C527 1.391 . S
C527 H515 0.950 1_655 S
C527 C523 1.393 . S
C527 C526 1.391 . S
H528 C536 0.950 . S
H529 C541 0.950 . S
H530 C538 0.950 . S
H531 C540 0.950 . S
H532 C542 0.950 . S
H533 C544 0.950 . S
H534 C546 0.950 1_655 S
H535 C547 0.950 1_655 S
C536 H528 0.950 . S
C536 C537 1.386 . S
C536 C538 1.391 . S
C537 C536 1.386 . S
C537 C541 1.393 . S
C538 H530 0.950 . S
C538 C536 1.391 . S
C538 C539 1.400 . S
C539 C538 1.400 . S
C539 C540 1.398 . S
C539 C545 1.491 . S
C540 H531 0.950 . S
C540 C539 1.398 . S
C540 C541 1.391 . S
C541 H529 0.950 . S
C541 C537 1.393 . S
C541 C540 1.391 . S
C542 H532 0.950 . S
C542 C543 1.386 . S
C542 C544 1.391 . S
C543 C542 1.386 . S
C543 C547 1.393 . S
C544 H533 0.950 . S
C544 C542 1.391 . S
C544 C545 1.400 . S
C545 C539 1.491 . S
C545 C544 1.400 . S
C545 C546 1.398 . S
C546 H534 0.950 1_455 S
C546 C545 1.398 . S
C546 C547 1.391 . S
C547 H535 0.950 1_455 S
C547 C543 1.393 . S
C547 C546 1.391 . S
H548 C556 0.950 1_655 S
H549 C561 0.950 . S
H550 C558 0.950 1_655 S
H551 C560 0.950 . S
H552 C562 0.950 . S
H553 C564 0.950 . S
H554 C566 0.950 . S
H555 C567 0.950 . S
C556 H548 0.950 1_455 S
C556 C557 1.386 . S
C556 C558 1.391 . S
C557 C556 1.386 . S
C557 C561 1.393 . S
C558 H550 0.950 1_455 S
C558 C556 1.391 . S
C558 C559 1.400 . S
C559 C558 1.400 . S
C559 C560 1.398 . S
C559 C565 1.491 . S
C560 H551 0.950 . S
C560 C559 1.398 . S
C560 C561 1.391 . S
C561 H549 0.950 . S
C561 C557 1.393 . S
C561 C560 1.391 . S
C562 H552 0.950 . S
C562 C563 1.386 . S
C562 C564 1.391 . S
C563 C562 1.386 . S
C563 C567 1.393 . S
C564 H553 0.950 . S
C564 C562 1.391 . S
C564 C565 1.400 . S
C565 C559 1.491 . S
C565 C564 1.400 . S
C565 C566 1.398 . S
C566 H554 0.950 . S
C566 C565 1.398 . S
C566 C567 1.391 . S
C567 H555 0.950 . S
C567 C563 1.393 . S
C567 C566 1.391 . S
H568 C576 0.950 1_455 S
H569 C581 0.950 . S
H570 C578 0.950 . S
H571 C580 0.950 . S
H572 C582 0.950 . S
H573 C584 0.950 . S
H574 C586 0.950 . S
H575 C587 0.950 . S
C576 H568 0.950 1_655 S
C576 C577 1.386 . S
C576 C578 1.391 . S
C577 C576 1.386 . S
C577 C581 1.393 . S
C578 H570 0.950 . S
C578 C576 1.391 . S
C578 C579 1.400 . S
C579 C578 1.400 . S
C579 C580 1.398 . S
C579 C585 1.491 . S
C580 H571 0.950 . S
C580 C579 1.398 . S
C580 C581 1.391 . S
C581 H569 0.950 . S
C581 C577 1.393 . S
C581 C580 1.391 . S
C582 H572 0.950 . S
C582 C583 1.386 . S
C582 C584 1.391 . S
C583 C582 1.386 . S
C583 C587 1.393 . S
C584 H573 0.950 . S
C584 C582 1.391 . S
C584 C585 1.400 . S
C585 C579 1.491 . S
C585 C584 1.400 . S
C585 C586 1.398 . S
C586 H574 0.950 . S
C586 C585 1.398 . S
C586 C587 1.391 . S
C587 H575 0.950 . S
C587 C583 1.393 . S
C587 C586 1.391 . S
H588 C596 0.950 . S
H589 C601 0.950 . S
H590 C598 0.950 . S
H591 C600 0.950 . S
H592 C602 0.950 1_455 S
H593 C604 0.950 . S
H594 C606 0.950 . S
H595 C607 0.950 . S
C596 H588 0.950 . S
C596 C597 1.386 . S
C596 C598 1.391 . S
C597 C596 1.386 . S
C597 C601 1.393 . S
C598 H590 0.950 . S
C598 C596 1.391 . S
C598 C599 1.400 . S
C599 C598 1.400 . S
C599 C600 1.398 . S
C599 C605 1.491 . S
C600 H591 0.950 . S
C600 C599 1.398 . S
C600 C601 1.391 . S
C601 H589 0.950 . S
C601 C597 1.393 . S
C601 C600 1.391 . S
C602 H592 0.950 1_655 S
C602 C603 1.386 . S
C602 C604 1.391 . S
C603 C602 1.386 . S
C603 C607 1.393 . S
C604 H593 0.950 . S
C604 C602 1.391 . S
C604 C605 1.400 . S
C605 C599 1.491 . S
C605 C604 1.400 . S
C605 C606 1.398 . S
C606 H594 0.950 . S
C606 C605 1.398 . S
C606 C607 1.391 . S
C607 H595 0.950 . S
C607 C603 1.393 . S
C607 C606 1.391 . S
H608 C616 0.950 . S
H609 C621 0.950 . S
H610 C618 0.950 . S
H611 C620 0.950 . S
H612 C622 0.950 . S
H613 C624 0.950 . S
H614 C626 0.950 . S
H615 C627 0.950 . S
C616 H608 0.950 . S
C616 C617 1.386 . S
C616 C618 1.391 . S
C617 C616 1.386 . S
C617 C621 1.393 . S
C618 H610 0.950 . S
C618 C616 1.391 . S
C618 C619 1.400 . S
C619 C618 1.400 . S
C619 C620 1.398 . S
C619 C625 1.491 . S
C620 H611 0.950 . S
C620 C619 1.398 . S
C620 C621 1.391 . S
C621 H609 0.950 . S
C621 C617 1.393 . S
C621 C620 1.391 . S
C622 H612 0.950 . S
C622 C623 1.386 . S
C622 C624 1.391 . S
C623 C622 1.386 . S
C623 C627 1.393 . S
C624 H613 0.950 . S
C624 C622 1.391 . S
C624 C625 1.400 . S
C625 C619 1.491 . S
C625 C624 1.400 . S
C625 C626 1.398 . S
C626 H614 0.950 . S
C626 C625 1.398 . S
C626 C627 1.391 . S
C627 H615 0.950 . S
C627 C623 1.393 . S
C627 C626 1.391 . S
H628 C636 0.950 . S
H629 C641 0.950 . S
H630 C638 0.950 . S
H631 C640 0.950 . S
H632 C642 0.950 . S
H633 C644 0.950 . S
H634 C646 0.950 . S
H635 C647 0.950 . S
C636 H628 0.950 . S
C636 C637 1.386 . S
C636 C638 1.391 . S
C637 C636 1.386 . S
C637 C641 1.393 . S
C638 H630 0.950 . S
C638 C636 1.391 . S
C638 C639 1.400 . S
C639 C638 1.400 . S
C639 C640 1.398 . S
C639 C645 1.491 . S
C640 H631 0.950 . S
C640 C639 1.398 . S
C640 C641 1.391 . S
C641 H629 0.950 . S
C641 C637 1.393 . S
C641 C640 1.391 . S
C642 H632 0.950 . S
C642 C643 1.386 . S
C642 C644 1.391 . S
C643 C642 1.386 . S
C643 C647 1.393 . S
C644 H633 0.950 . S
C644 C642 1.391 . S
C644 C645 1.400 . S
C645 C639 1.491 . S
C645 C644 1.400 . S
C645 C646 1.398 . S
C646 H634 0.950 . S
C646 C645 1.398 . S
C646 C647 1.391 . S
C647 H635 0.950 . S
C647 C643 1.393 . S
C647 C646 1.391 . S
H648 C656 0.950 . S
H649 C661 0.950 . S
H650 C658 0.950 . S
H651 C660 0.950 . S
H652 C662 0.950 . S
H653 C664 0.950 . S
H654 C666 0.950 . S
H655 C667 0.950 . S
C656 H648 0.950 . S
C656 C657 1.386 . S
C656 C658 1.391 . S
C657 C656 1.386 . S
C657 C661 1.393 . S
C658 H650 0.950 . S
C658 C656 1.391 . S
C658 C659 1.400 . S
C659 C658 1.400 . S
C659 C660 1.398 . S
C659 C665 1.491 . S
C660 H651 0.950 . S
C660 C659 1.398 . S
C660 C661 1.391 . S
C661 H649 0.950 . S
C661 C657 1.393 . S
C661 C660 1.391 . S
C662 H652 0.950 . S
C662 C663 1.386 . S
C662 C664 1.391 . S
C663 C662 1.386 . S
C663 C667 1.393 . S
C664 H653 0.950 . S
C664 C662 1.391 . S
C664 C665 1.400 . S
C665 C659 1.491 . S
C665 C664 1.400 . S
C665 C666 1.398 . S
C666 H654 0.950 . S
C666 C665 1.398 . S
C666 C667 1.391 . S
C667 H655 0.950 . S
C667 C663 1.393 . S
C667 C666 1.391 . S
H668 C676 0.950 . S
H669 C681 0.950 . S
H670 C678 0.950 . S
H671 C680 0.950 . S
H672 C682 0.950 . S
H673 C684 0.950 . S
H674 C686 0.950 . S
H675 C687 0.950 . S
C676 H668 0.950 . S
C676 C677 1.386 . S
C676 C678 1.391 . S
C677 C676 1.386 . S
C677 C681 1.393 . S
C678 H670 0.950 . S
C678 C676 1.391 . S
C678 C679 1.400 . S
C679 C678 1.400 . S
C679 C680 1.398 . S
C679 C685 1.491 . S
C680 H671 0.950 . S
C680 C679 1.398 . S
C680 C681 1.391 . S
C681 H669 0.950 . S
C681 C677 1.393 . S
C681 C680 1.391 . S
C682 H672 0.950 . S
C682 C683 1.386 . S
C682 C684 1.391 . S
C683 C682 1.386 . S
C683 C687 1.393 . S
C684 H673 0.950 . S
C684 C682 1.391 . S
C684 C685 1.400 . S
C685 C679 1.491 . S
C685 C684 1.400 . S
C685 C686 1.398 . S
C686 H674 0.950 . S
C686 C685 1.398 . S
C686 C687 1.391 . S
C687 H675 0.950 . S
C687 C683 1.393 . S
C687 C686 1.391 . S
H688 C696 0.950 . S
H689 C701 0.950 . S
H690 C698 0.950 . S
H691 C700 0.950 . S
H692 C702 0.950 . S
H693 C704 0.950 . S
H694 C706 0.950 . S
H695 C707 0.950 . S
C696 H688 0.950 . S
C696 C697 1.386 . S
C696 C698 1.391 . S
C697 C696 1.386 . S
C697 C701 1.393 . S
C698 H690 0.950 . S
C698 C696 1.391 . S
C698 C699 1.400 . S
C699 C698 1.400 . S
C699 C700 1.398 . S
C699 C705 1.491 . S
C700 H691 0.950 . S
C700 C699 1.398 . S
C700 C701 1.391 . S
C701 H689 0.950 . S
C701 C697 1.393 . S
C701 C700 1.391 . S
C702 H692 0.950 . S
C702 C703 1.386 . S
C702 C704 1.391 . S
C703 C702 1.386 . S
C703 C707 1.393 . S
C704 H693 0.950 . S
C704 C702 1.391 . S
C704 C705 1.400 . S
C705 C699 1.491 . S
C705 C704 1.400 . S
C705 C706 1.398 . S
C706 H694 0.950 . S
C706 C705 1.398 . S
C706 C707 1.391 . S
C707 H695 0.950 . S
C707 C703 1.393 . S
C707 C706 1.391 . S
H708 C716 0.950 . S
H709 C721 0.950 . S
H710 C718 0.950 . S
H711 C720 0.950 . S
H712 C722 0.950 . S
H713 C724 0.950 . S
H714 C726 0.950 . S
H715 C727 0.950 . S
C716 H708 0.950 . S
C716 C717 1.386 . S
C716 C718 1.391 . S
C717 C716 1.386 . S
C717 C721 1.393 . S
C718 H710 0.950 . S
C718 C716 1.391 . S
C718 C719 1.400 . S
C719 C718 1.400 . S
C719 C720 1.398 . S
C719 C725 1.491 . S
C720 H711 0.950 . S
C720 C719 1.398 . S
C720 C721 1.391 . S
C721 H709 0.950 . S
C721 C717 1.393 . S
C721 C720 1.391 . S
C722 H712 0.950 . S
C722 C723 1.386 . S
C722 C724 1.391 . S
C723 C722 1.386 . S
C723 C727 1.393 . S
C724 H713 0.950 . S
C724 C722 1.391 . S
C724 C725 1.400 . S
C725 C719 1.491 . S
C725 C724 1.400 . S
C725 C726 1.398 . S
C726 H714 0.950 . S
C726 C725 1.398 . S
C726 C727 1.391 . S
C727 H715 0.950 . S
C727 C723 1.393 . S
C727 C726 1.391 . S
H728 C736 0.950 . S
H729 C741 0.950 . S
H730 C738 0.950 . S
H731 C740 0.950 . S
H732 C742 0.950 . S
H733 C744 0.950 . S
H734 C746 0.950 . S
H735 C747 0.950 . S
C736 H728 0.950 . S
C736 C737 1.386 . S
C736 C738 1.391 . S
C737 C736 1.386 . S
C737 C741 1.393 . S
C738 H730 0.950 . S
C738 C736 1.391 . S
C738 C739 1.400 . S
C739 C738 1.400 . S
C739 C740 1.398 . S
C739 C745 1.491 . S
C740 H731 0.950 . S
C740 C739 1.398 . S
C740 C741 1.391 . S
C741 H729 0.950 . S
C741 C737 1.393 . S
C741 C740 1.391 . S
C742 H732 0.950 . S
C742 C743 1.386 . S
C742 C744 1.391 . S
C743 C742 1.386 . S
C743 C747 1.393 . S
C744 H733 0.950 . S
C744 C742 1.391 . S
C744 C745 1.400 . S
C745 C739 1.491 . S
C745 C744 1.400 . S
C745 C746 1.398 . S
C746 H734 0.950 . S
C746 C745 1.398 . S
C746 C747 1.391 . S
C747 H735 0.950 . S
C747 C743 1.393 . S
C747 C746 1.391 . S
H748 C756 0.950 . S
H749 C761 0.950 . S
H750 C758 0.950 . S
H751 C760 0.950 . S
H752 C762 0.950 . S
H753 C764 0.950 . S
H754 C766 0.950 . S
H755 C767 0.950 . S
C756 H748 0.950 . S
C756 C757 1.386 . S
C756 C758 1.391 . S
C757 C756 1.386 . S
C757 C761 1.393 . S
C758 H750 0.950 . S
C758 C756 1.391 . S
C758 C759 1.400 . S
C759 C758 1.400 . S
C759 C760 1.398 . S
C759 C765 1.491 . S
C760 H751 0.950 . S
C760 C759 1.398 . S
C760 C761 1.391 . S
C761 H749 0.950 . S
C761 C757 1.393 . S
C761 C760 1.391 . S
C762 H752 0.950 . S
C762 C763 1.386 . S
C762 C764 1.391 . S
C763 C762 1.386 . S
C763 C767 1.393 . S
C764 H753 0.950 . S
C764 C762 1.391 . S
C764 C765 1.400 . S
C765 C759 1.491 . S
C765 C764 1.400 . S
C765 C766 1.398 . S
C766 H754 0.950 . S
C766 C765 1.398 . S
C766 C767 1.391 . S
C767 H755 0.950 . S
C767 C763 1.393 . S
C767 C766 1.391 . S
H768 C776 0.950 . S
H769 C781 0.950 . S
H770 C778 0.950 1_565 S
H771 C780 0.950 . S
H772 C782 0.950 . S
H773 C784 0.950 1_545 S
H774 C786 0.950 . S
H775 C787 0.950 . S
C776 H768 0.950 . S
C776 C777 1.391 . S
C776 C778 1.391 . S
C777 C776 1.391 . S
C777 C781 1.388 1_556 S
C778 H770 0.950 1_545 S
C778 C776 1.391 . S
C778 C779 1.405 . S
C779 C778 1.405 . S
C779 C780 1.394 1_556 S
C779 C785 1.490 1_546 S
C780 H771 0.950 . S
C780 C779 1.394 1_554 S
C780 C781 1.391 . S
C781 H769 0.950 . S
C781 C777 1.388 1_554 S
C781 C780 1.391 . S
C782 H772 0.950 . S
C782 C783 1.391 . S
C782 C784 1.391 . S
C783 C782 1.391 . S
C783 C787 1.388 1_554 S
C784 H773 0.950 1_565 S
C784 C782 1.391 . S
C784 C785 1.405 . S
C785 C779 1.490 1_564 S
C785 C784 1.405 . S
C785 C786 1.394 1_554 S
C786 H774 0.950 . S
C786 C785 1.394 1_556 S
C786 C787 1.391 . S
C787 H775 0.950 . S
C787 C783 1.388 1_556 S
C787 C786 1.391 . S
H788 C796 0.950 . S
H789 C801 0.950 . S
H790 C798 0.950 . S
H791 C800 0.950 . S
H792 C802 0.950 . S
H793 C804 0.950 . S
H794 C806 0.950 . S
H795 C807 0.950 . S
C796 H788 0.950 . S
C796 C797 1.384 . S
C796 C798 1.391 . S
C797 C796 1.384 . S
C797 C801 1.395 1_556 S
C798 H790 0.950 . S
C798 C796 1.391 . S
C798 C799 1.402 1_556 S
C799 C798 1.402 1_554 S
C799 C800 1.397 . S
C799 C805 1.491 1_554 S
C800 H791 0.950 . S
C800 C799 1.397 . S
C800 C801 1.391 . S
C801 H789 0.950 . S
C801 C797 1.395 1_554 S
C801 C800 1.391 . S
C802 H792 0.950 . S
C802 C803 1.385 . S
C802 C804 1.391 . S
C803 C802 1.385 . S
C803 C807 1.394 1_554 S
C804 H793 0.950 . S
C804 C802 1.391 . S
C804 C805 1.403 1_554 S
C805 C799 1.491 1_556 S
C805 C804 1.403 1_556 S
C805 C806 1.396 . S
C806 H794 0.950 . S
C806 C805 1.396 . S
C806 C807 1.391 . S
C807 H795 0.950 . S
C807 C803 1.394 1_556 S
C807 C806 1.391 . S
H808 C816 0.950 . S
H809 C821 0.950 . S
H810 C818 0.950 . S
H811 C820 0.950 . S
H812 C822 0.950 . S
H813 C824 0.950 . S
H814 C826 0.950 . S
H815 C827 0.950 . S
C816 H808 0.950 . S
C816 C817 1.386 . S
C816 C818 1.391 . S
C817 C816 1.386 . S
C817 C821 1.393 . S
C818 H810 0.950 . S
C818 C816 1.391 . S
C818 C819 1.400 . S
C819 C818 1.400 . S
C819 C820 1.398 . S
C819 C825 1.491 . S
C820 H811 0.950 . S
C820 C819 1.398 . S
C820 C821 1.391 . S
C821 H809 0.950 . S
C821 C817 1.393 . S
C821 C820 1.391 . S
C822 H812 0.950 . S
C822 C823 1.386 . S
C822 C824 1.391 . S
C823 C822 1.386 . S
C823 C827 1.393 . S
C824 H813 0.950 . S
C824 C822 1.391 . S
C824 C825 1.400 . S
C825 C819 1.491 . S
C825 C824 1.400 . S
C825 C826 1.398 . S
C826 H814 0.950 . S
C826 C825 1.398 . S
C826 C827 1.391 . S
C827 H815 0.950 . S
C827 C823 1.393 . S
C827 C826 1.391 . S
H828 C836 0.950 . S
H829 C841 0.950 . S
H830 C838 0.950 . S
H831 C840 0.950 1_545 S
H832 C842 0.950 . S
H833 C844 0.950 . S
H834 C846 0.950 1_565 S
H835 C847 0.950 . S
C836 H828 0.950 . S
C836 C837 1.386 . S
C836 C838 1.391 . S
C837 C836 1.386 . S
C837 C841 1.393 . S
C838 H830 0.950 . S
C838 C836 1.391 . S
C838 C839 1.400 . S
C839 C838 1.400 . S
C839 C840 1.398 . S
C839 C845 1.491 1_565 S
C840 H831 0.950 1_565 S
C840 C839 1.398 . S
C840 C841 1.391 . S
C841 H829 0.950 . S
C841 C837 1.393 . S
C841 C840 1.391 . S
C842 H832 0.950 . S
C842 C843 1.386 . S
C842 C844 1.391 . S
C843 C842 1.386 . S
C843 C847 1.393 . S
C844 H833 0.950 . S
C844 C842 1.391 . S
C844 C845 1.400 . S
C845 C839 1.491 1_545 S
C845 C844 1.400 . S
C845 C846 1.398 . S
C846 H834 0.950 1_545 S
C846 C845 1.398 . S
C846 C847 1.391 . S
C847 H835 0.950 . S
C847 C843 1.393 . S
C847 C846 1.391 . S
H848 C856 0.950 . S
H849 C861 0.950 . S
H850 C858 0.950 . S
H851 C860 0.950 . S
H852 C862 0.950 . S
H853 C864 0.950 . S
H854 C866 0.950 . S
H855 C867 0.950 . S
C856 H848 0.950 . S
C856 C857 1.405 . S
C856 C858 1.391 . S
C857 C856 1.405 . S
C857 C861 1.374 1_554 S
C858 H850 0.950 . S
C858 C856 1.391 . S
C858 C859 1.403 . S
C859 C858 1.403 . S
C859 C860 1.396 1_554 S
C859 C865 1.491 1_554 S
C860 H851 0.950 . S
C860 C859 1.396 1_556 S
C860 C861 1.391 . S
C861 H849 0.950 . S
C861 C857 1.374 1_556 S
C861 C860 1.391 . S
C862 H852 0.950 . S
C862 C863 1.406 . S
C862 C864 1.391 . S
C863 C862 1.406 . S
C863 C867 1.373 1_556 S
C864 H853 0.950 . S
C864 C862 1.391 . S
C864 C865 1.404 . S
C865 C859 1.491 1_556 S
C865 C864 1.404 . S
C865 C866 1.395 1_556 S
C866 H854 0.950 . S
C866 C865 1.395 1_554 S
C866 C867 1.391 . S
C867 H855 0.950 . S
C867 C863 1.373 1_554 S
C867 C866 1.391 . S
H868 C876 0.950 . S
H869 C881 0.950 . S
H870 C878 0.950 . S
H871 C880 0.950 . S
H872 C882 0.950 . S
H873 C884 0.950 . S
H874 C886 0.950 . S
H875 C887 0.950 . S
C876 H868 0.950 . S
C876 C877 1.386 . S
C876 C878 1.391 . S
C877 C876 1.386 . S
C877 C881 1.393 . S
C878 H870 0.950 . S
C878 C876 1.391 . S
C878 C879 1.400 . S
C879 C878 1.400 . S
C879 C880 1.398 . S
C879 C885 1.491 . S
C880 H871 0.950 . S
C880 C879 1.398 . S
C880 C881 1.391 . S
C881 H869 0.950 . S
C881 C877 1.393 . S
C881 C880 1.391 . S
C882 H872 0.950 . S
C882 C883 1.386 . S
C882 C884 1.391 . S
C883 C882 1.386 . S
C883 C887 1.393 . S
C884 H873 0.950 . S
C884 C882 1.391 . S
C884 C885 1.400 . S
C885 C879 1.491 . S
C885 C884 1.400 . S
C885 C886 1.398 . S
C886 H874 0.950 . S
C886 C885 1.398 . S
C886 C887 1.391 . S
C887 H875 0.950 . S
C887 C883 1.393 . S
C887 C886 1.391 . S
H888 C896 0.950 . S
H889 C901 0.950 . S
H890 C898 0.950 1_545 S
H891 C900 0.950 . S
H892 C902 0.950 . S
H893 C904 0.950 1_565 S
H894 C906 0.950 . S
H895 C907 0.950 . S
C896 H888 0.950 . S
C896 C897 1.386 . S
C896 C898 1.391 . S
C897 C896 1.386 . S
C897 C901 1.393 . S
C898 H890 0.950 1_565 S
C898 C896 1.391 . S
C898 C899 1.400 . S
C899 C898 1.400 . S
C899 C900 1.398 . S
C899 C905 1.491 1_565 S
C900 H891 0.950 . S
C900 C899 1.398 . S
C900 C901 1.391 . S
C901 H889 0.950 . S
C901 C897 1.393 . S
C901 C900 1.391 . S
C902 H892 0.950 . S
C902 C903 1.386 . S
C902 C904 1.391 . S
C903 C902 1.386 . S
C903 C907 1.393 . S
C904 H893 0.950 1_545 S
C904 C902 1.391 . S
C904 C905 1.400 . S
C905 C899 1.491 1_545 S
C905 C904 1.400 . S
C905 C906 1.398 . S
C906 H894 0.950 . S
C906 C905 1.398 . S
C906 C907 1.391 . S
C907 H895 0.950 . S
C907 C903 1.393 . S
C907 C906 1.391 . S
H908 C916 0.950 . S
H909 C921 0.950 . S
H910 C918 0.950 . S
H911 C920 0.950 . S
H912 C922 0.950 . S
H913 C924 0.950 . S
H914 C926 0.950 . S
H915 C927 0.950 . S
C916 H908 0.950 . S
C916 C917 1.386 . S
C916 C918 1.391 . S
C917 C916 1.386 . S
C917 C921 1.393 . S
C918 H910 0.950 . S
C918 C916 1.391 . S
C918 C919 1.400 . S
C919 C918 1.400 . S
C919 C920 1.398 . S
C919 C925 1.491 . S
C920 H911 0.950 . S
C920 C919 1.398 . S
C920 C921 1.391 . S
C921 H909 0.950 . S
C921 C917 1.393 . S
C921 C920 1.391 . S
C922 H912 0.950 . S
C922 C923 1.386 . S
C922 C924 1.391 . S
C923 C922 1.386 . S
C923 C927 1.393 . S
C924 H913 0.950 . S
C924 C922 1.391 . S
C924 C925 1.400 . S
C925 C919 1.491 . S
C925 C924 1.400 . S
C925 C926 1.398 . S
C926 H914 0.950 . S
C926 C925 1.398 . S
C926 C927 1.391 . S
C927 H915 0.950 . S
C927 C923 1.393 . S
C927 C926 1.391 . S
H928 C936 0.950 . S
H929 C941 0.950 . S
H930 C938 0.950 . S
H931 C940 0.950 . S
H932 C942 0.950 . S
H933 C944 0.950 . S
H934 C946 0.950 . S
H935 C947 0.950 . S
C936 H928 0.950 . S
C936 C937 1.386 . S
C936 C938 1.391 . S
C937 C936 1.386 . S
C937 C941 1.393 . S
C938 H930 0.950 . S
C938 C936 1.391 . S
C938 C939 1.400 . S
C939 C938 1.400 . S
C939 C940 1.398 . S
C939 C945 1.491 . S
C940 H931 0.950 . S
C940 C939 1.398 . S
C940 C941 1.391 . S
C941 H929 0.950 . S
C941 C937 1.393 . S
C941 C940 1.391 . S
C942 H932 0.950 . S
C942 C943 1.386 . S
C942 C944 1.391 . S
C943 C942 1.386 . S
C943 C947 1.393 . S
C944 H933 0.950 . S
C944 C942 1.391 . S
C944 C945 1.400 . S
C945 C939 1.491 . S
C945 C944 1.400 . S
C945 C946 1.398 . S
C946 H934 0.950 . S
C946 C945 1.398 . S
C946 C947 1.391 . S
C947 H935 0.950 . S
C947 C943 1.393 . S
C947 C946 1.391 . S
H948 C956 0.950 . S
H949 C961 0.950 . S
H950 C958 0.950 . S
H951 C960 0.950 . S
H952 C962 0.950 . S
H953 C964 0.950 . S
H954 C966 0.950 . S
H955 C967 0.950 . S
C956 H948 0.950 . S
C956 C957 1.386 . S
C956 C958 1.391 . S
C957 C956 1.386 . S
C957 C961 1.393 . S
C958 H950 0.950 . S
C958 C956 1.391 . S
C958 C959 1.400 . S
C959 C958 1.400 . S
C959 C960 1.398 . S
C959 C965 1.491 . S
C960 H951 0.950 . S
C960 C959 1.398 . S
C960 C961 1.391 . S
C961 H949 0.950 . S
C961 C957 1.393 . S
C961 C960 1.391 . S
C962 H952 0.950 . S
C962 C963 1.386 . S
C962 C964 1.391 . S
C963 C962 1.386 . S
C963 C967 1.393 . S
C964 H953 0.950 . S
C964 C962 1.391 . S
C964 C965 1.400 . S
C965 C959 1.491 . S
C965 C964 1.400 . S
C965 C966 1.398 . S
C966 H954 0.950 . S
C966 C965 1.398 . S
C966 C967 1.391 . S
C967 H955 0.950 . S
C967 C963 1.393 . S
C967 C966 1.391 . S
H968 C976 0.950 . S
H969 C981 0.950 . S
H970 C978 0.950 . S
H971 C980 0.950 . S
H972 C982 0.950 . S
H973 C984 0.950 . S
H974 C986 0.950 . S
H975 C987 0.950 . S
C976 H968 0.950 . S
C976 C977 1.386 . S
C976 C978 1.391 . S
C977 C976 1.386 . S
C977 C981 1.393 . S
C978 H970 0.950 . S
C978 C976 1.391 . S
C978 C979 1.400 . S
C979 C978 1.400 . S
C979 C980 1.398 . S
C979 C985 1.491 . S
C980 H971 0.950 . S
C980 C979 1.398 . S
C980 C981 1.391 . S
C981 H969 0.950 . S
C981 C977 1.393 . S
C981 C980 1.391 . S
C982 H972 0.950 . S
C982 C983 1.386 . S
C982 C984 1.391 . S
C983 C982 1.386 . S
C983 C987 1.393 . S
C984 H973 0.950 . S
C984 C982 1.391 . S
C984 C985 1.400 . S
C985 C979 1.491 . S
C985 C984 1.400 . S
C985 C986 1.398 . S
C986 H974 0.950 . S
C986 C985 1.398 . S
C986 C987 1.391 . S
C987 H975 0.950 . S
C987 C983 1.393 . S
C987 C986 1.391 . S
H988 C996 0.950 . S
H989 C1001 0.950 . S
H990 C998 0.950 . S
H991 C1000 0.950 . S
H992 C1002 0.950 . S
H993 C1004 0.950 . S
H994 C1006 0.950 . S
H995 C1007 0.950 . S
C996 H988 0.950 . S
C996 C997 1.386 . S
C996 C998 1.391 . S
C997 C996 1.386 . S
C997 C1001 1.393 . S
C998 H990 0.950 . S
C998 C996 1.391 . S
C998 C999 1.400 . S
C999 C998 1.400 . S
C999 C1000 1.398 . S
C999 C1005 1.491 . S
C1000 H991 0.950 . S
C1000 C999 1.398 . S
C1000 C1001 1.391 . S
C1001 H989 0.950 . S
C1001 C997 1.393 . S
C1001 C1000 1.391 . S
C1002 H992 0.950 . S
C1002 C1003 1.386 . S
C1002 C1004 1.391 . S
C1003 C1002 1.386 . S
C1003 C1007 1.393 . S
C1004 H993 0.950 . S
C1004 C1002 1.391 . S
C1004 C1005 1.400 . S
C1005 C999 1.491 . S
C1005 C1004 1.400 . S
C1005 C1006 1.398 . S
C1006 H994 0.950 . S
C1006 C1005 1.398 . S
C1006 C1007 1.391 . S
C1007 H995 0.950 . S
C1007 C1003 1.393 . S
C1007 C1006 1.391 . S
H1008 C1016 0.950 . S
H1009 C1021 0.950 . S
H1010 C1018 0.950 1_655 S
H1011 C1020 0.878 1_545 S
H1012 C1022 0.950 . S
H1013 C1024 0.950 1_455 S
H1014 C1026 0.878 1_565 S
H1015 C1027 0.950 . S
C1016 H1008 0.950 . S
C1016 C1017 1.386 . S
C1016 C1018 1.391 . S
C1017 C1016 1.386 . S
C1017 C1021 1.393 . S
C1018 H1010 0.950 1_455 S
C1018 C1016 1.391 . S
C1018 C1019 1.400 . S
C1019 C1018 1.400 . S
C1019 C1020 1.398 . S
C1019 C1025 1.491 1_465 S
C1020 H1011 0.878 1_565 S
C1020 C1019 1.398 . S
C1020 C1021 1.391 . S
C1021 H1009 0.950 . S
C1021 C1017 1.393 . S
C1021 C1020 1.391 . S
C1022 H1012 0.950 . S
C1022 C1023 1.386 . S
C1022 C1024 1.391 . S
C1023 C1022 1.386 . S
C1023 C1027 1.393 . S
C1024 H1013 0.950 1_655 S
C1024 C1022 1.391 . S
C1024 C1025 1.400 . S
C1025 C1019 1.491 1_645 S
C1025 C1024 1.400 . S
C1025 C1026 1.398 . S
C1026 H1014 0.878 1_545 S
C1026 C1025 1.398 . S
C1026 C1027 1.391 . S
C1027 H1015 0.950 . S
C1027 C1023 1.393 . S
C1027 C1026 1.391 . S
H1028 C1036 0.950 . S
H1029 C1041 0.950 . S
H1030 C1038 0.950 . S
H1031 C1040 0.950 . S
H1032 C1042 0.950 . S
H1033 C1044 0.950 . S
H1034 C1046 0.950 . S
H1035 C1047 0.950 . S
C1036 H1028 0.950 . S
C1036 C1037 1.386 . S
C1036 C1038 1.391 1_655 S
C1037 C1036 1.386 . S
C1037 C1041 1.393 . S
C1038 H1030 0.950 . S
C1038 C1036 1.391 1_455 S
C1038 C1039 1.400 1_455 S
C1039 C1038 1.400 1_655 S
C1039 C1040 1.398 . S
C1039 C1045 1.491 1_655 S
C1040 H1031 0.950 . S
C1040 C1039 1.398 . S
C1040 C1041 1.391 . S
C1041 H1029 0.950 . S
C1041 C1037 1.393 . S
C1041 C1040 1.391 . S
C1042 H1032 0.950 . S
C1042 C1043 1.386 . S
C1042 C1044 1.391 1_455 S
C1043 C1042 1.386 . S
C1043 C1047 1.393 . S
C1044 H1033 0.950 . S
C1044 C1042 1.391 1_655 S
C1044 C1045 1.400 1_655 S
C1045 C1039 1.491 1_455 S
C1045 C1044 1.400 1_455 S
C1045 C1046 1.398 . S
C1046 H1034 0.950 . S
C1046 C1045 1.398 . S
C1046 C1047 1.391 . S
C1047 H1035 0.950 . S
C1047 C1043 1.393 . S
C1047 C1046 1.391 . S
H1048 C1056 0.950 . S
H1049 C1061 0.950 . S
H1050 C1058 0.950 . S
H1051 C1060 0.950 . S
H1052 C1062 0.950 . S
H1053 C1064 0.950 . S
H1054 C1066 0.950 . S
H1055 C1067 0.950 . S
C1056 H1048 0.950 . S
C1056 C1057 1.386 . S
C1056 C1058 1.391 . S
C1057 C1056 1.386 . S
C1057 C1061 1.393 . S
C1058 H1050 0.950 . S
C1058 C1056 1.391 . S
C1058 C1059 1.400 . S
C1059 C1058 1.400 . S
C1059 C1060 1.398 1_455 S
C1059 C1065 1.491 1_455 S
C1060 H1051 0.950 . S
C1060 C1059 1.398 1_655 S
C1060 C1061 1.391 1_655 S
C1061 H1049 0.950 . S
C1061 C1057 1.393 . S
C1061 C1060 1.391 1_455 S
C1062 H1052 0.950 . S
C1062 C1063 1.386 . S
C1062 C1064 1.391 . S
C1063 C1062 1.386 . S
C1063 C1067 1.393 . S
C1064 H1053 0.950 . S
C1064 C1062 1.391 . S
C1064 C1065 1.400 . S
C1065 C1059 1.491 1_655 S
C1065 C1064 1.400 . S
C1065 C1066 1.398 1_655 S
C1066 H1054 0.950 . S
C1066 C1065 1.398 1_455 S
C1066 C1067 1.391 1_455 S
C1067 H1055 0.950 . S
C1067 C1063 1.393 . S
C1067 C1066 1.391 1_655 S
H1068 C1076 0.950 . S
H1069 C1081 0.950 . S
H1070 C1078 0.950 . S
H1071 C1080 0.950 1_655 S
H1072 C1082 0.950 . S
H1073 C1084 0.950 . S
H1074 C1086 0.950 1_455 S
H1075 C1087 0.950 . S
C1076 H1068 0.950 . S
C1076 C1077 1.410 . S
C1076 C1078 1.391 . S
C1077 C1076 1.410 . S
C1077 C1081 1.369 1_556 S
C1078 H1070 0.950 . S
C1078 C1076 1.391 . S
C1078 C1079 1.406 . S
C1079 C1078 1.406 . S
C1079 C1080 1.392 1_556 S
C1079 C1085 1.490 1_456 S
C1080 H1071 0.950 1_455 S
C1080 C1079 1.392 1_554 S
C1080 C1081 1.391 . S
C1081 H1069 0.950 . S
C1081 C1077 1.369 1_554 S
C1081 C1080 1.391 . S
C1082 H1072 0.950 . S
C1082 C1083 1.410 . S
C1082 C1084 1.391 . S
C1083 C1082 1.410 . S
C1083 C1087 1.369 1_554 S
C1084 H1073 0.950 . S
C1084 C1082 1.391 . S
C1084 C1085 1.406 . S
C1085 C1079 1.490 1_654 S
C1085 C1084 1.406 . S
C1085 C1086 1.392 1_554 S
C1086 H1074 0.950 1_655 S
C1086 C1085 1.392 1_556 S
C1086 C1087 1.391 . S
C1087 H1075 0.950 . S
C1087 C1083 1.369 1_556 S
C1087 C1086 1.391 . S
H1088 C1096 0.950 . S
H1089 C1101 0.950 . S
H1090 C1098 0.950 . S
H1091 C1100 0.950 . S
H1092 C1102 0.950 . S
H1093 C1104 0.950 . S
H1094 C1106 0.950 . S
H1095 C1107 0.950 . S
C1096 H1088 0.950 . S
C1096 C1097 1.386 . S
C1096 C1098 1.391 . S
C1097 C1096 1.386 . S
C1097 C1101 1.393 . S
C1098 H1090 0.950 . S
C1098 C1096 1.391 . S
C1098 C1099 1.400 . S
C1099 C1098 1.400 . S
C1099 C1100 1.398 . S
C1099 C1105 1.491 . S
C1100 H1091 0.950 . S
C1100 C1099 1.398 . S
C1100 C1101 1.391 . S
C1101 H1089 0.950 . S
C1101 C1097 1.393 . S
C1101 C1100 1.391 . S
C1102 H1092 0.950 . S
C1102 C1103 1.386 . S
C1102 C1104 1.391 . S
C1103 C1102 1.386 . S
C1103 C1107 1.393 . S
C1104 H1093 0.950 . S
C1104 C1102 1.391 . S
C1104 C1105 1.400 . S
C1105 C1099 1.491 . S
C1105 C1104 1.400 . S
C1105 C1106 1.398 . S
C1106 H1094 0.950 . S
C1106 C1105 1.398 . S
C1106 C1107 1.391 . S
C1107 H1095 0.950 . S
C1107 C1103 1.393 . S
C1107 C1106 1.391 . S
H1108 C1116 0.950 . S
H1109 C1121 0.950 1_455 S
H1110 C1118 0.950 . S
H1111 C1120 0.950 . S
H1112 C1122 0.950 . S
H1113 C1124 0.950 . S
H1114 C1126 0.950 . S
H1115 C1127 0.950 . S
C1116 H1108 0.950 . S
C1116 C1117 1.386 . S
C1116 C1118 1.391 . S
C1117 C1116 1.386 . S
C1117 C1121 1.393 . S
C1118 H1110 0.950 . S
C1118 C1116 1.391 . S
C1118 C1119 1.400 . S
C1119 C1118 1.400 . S
C1119 C1120 1.398 . S
C1119 C1125 1.491 . S
C1120 H1111 0.950 . S
C1120 C1119 1.398 . S
C1120 C1121 1.391 . S
C1121 H1109 0.950 1_655 S
C1121 C1117 1.393 . S
C1121 C1120 1.391 . S
C1122 H1112 0.950 . S
C1122 C1123 1.386 . S
C1122 C1124 1.391 . S
C1123 C1122 1.386 . S
C1123 C1127 1.393 . S
C1124 H1113 0.950 . S
C1124 C1122 1.391 . S
C1124 C1125 1.400 . S
C1125 C1119 1.491 . S
C1125 C1124 1.400 . S
C1125 C1126 1.398 . S
C1126 H1114 0.950 . S
C1126 C1125 1.398 . S
C1126 C1127 1.391 . S
C1127 H1115 0.950 . S
C1127 C1123 1.393 . S
C1127 C1126 1.391 . S
H1128 C1136 0.950 . S
H1129 C1141 0.950 . S
H1130 C1138 0.950 . S
H1131 C1140 0.950 . S
H1132 C1142 0.950 . S
H1133 C1144 0.950 . S
H1134 C1146 0.950 . S
H1135 C1147 0.950 . S
C1136 H1128 0.950 . S
C1136 C1137 1.386 . S
C1136 C1138 1.391 . S
C1137 C1136 1.386 . S
C1137 C1141 1.393 . S
C1138 H1130 0.950 . S
C1138 C1136 1.391 . S
C1138 C1139 1.400 . S
C1139 C1138 1.400 . S
C1139 C1140 1.398 . S
C1139 C1145 1.491 . S
C1140 H1131 0.950 . S
C1140 C1139 1.398 . S
C1140 C1141 1.391 . S
C1141 H1129 0.950 . S
C1141 C1137 1.393 . S
C1141 C1140 1.391 . S
C1142 H1132 0.950 . S
C1142 C1143 1.386 . S
C1142 C1144 1.391 . S
C1143 C1142 1.386 . S
C1143 C1147 1.393 . S
C1144 H1133 0.950 . S
C1144 C1142 1.391 . S
C1144 C1145 1.400 . S
C1145 C1139 1.491 . S
C1145 C1144 1.400 . S
C1145 C1146 1.398 . S
C1146 H1134 0.950 . S
C1146 C1145 1.398 . S
C1146 C1147 1.391 . S
C1147 H1135 0.950 . S
C1147 C1143 1.393 . S
C1147 C1146 1.391 . S
H1148 C1156 0.950 . S
H1149 C1161 0.950 . S
H1150 C1158 0.950 . S
H1151 C1160 0.950 . S
H1152 C1162 0.950 . S
H1153 C1164 0.950 . S
H1154 C1166 0.950 . S
H1155 C1167 0.950 . S
C1156 H1148 0.950 . S
C1156 C1157 1.386 . S
C1156 C1158 1.391 . S
C1157 C1156 1.386 . S
C1157 C1161 1.393 . S
C1158 H1150 0.950 . S
C1158 C1156 1.391 . S
C1158 C1159 1.400 . S
C1159 C1158 1.400 . S
C1159 C1160 1.398 . S
C1159 C1165 1.491 . S
C1160 H1151 0.950 . S
C1160 C1159 1.398 . S
C1160 C1161 1.391 . S
C1161 H1149 0.950 . S
C1161 C1157 1.393 . S
C1161 C1160 1.391 . S
C1162 H1152 0.950 . S
C1162 C1163 1.386 . S
C1162 C1164 1.391 . S
C1163 C1162 1.386 . S
C1163 C1167 1.393 . S
C1164 H1153 0.950 . S
C1164 C1162 1.391 . S
C1164 C1165 1.400 . S
C1165 C1159 1.491 . S
C1165 C1164 1.400 . S
C1165 C1166 1.398 . S
C1166 H1154 0.950 . S
C1166 C1165 1.398 . S
C1166 C1167 1.391 . S
C1167 H1155 0.950 . S
C1167 C1163 1.393 . S
C1167 C1166 1.391 . S
H1168 C1176 0.950 . S
H1169 C1181 0.950 . S
H1170 C1178 0.950 . S
H1171 C1180 0.950 . S
H1172 C1182 0.950 . S
H1173 C1184 0.950 . S
H1174 C1186 0.950 . S
H1175 C1187 0.950 . S
C1176 H1168 0.950 . S
C1176 C1177 1.386 . S
C1176 C1178 1.391 . S
C1177 C1176 1.386 . S
C1177 C1181 1.393 . S
C1178 H1170 0.950 . S
C1178 C1176 1.391 . S
C1178 C1179 1.400 . S
C1179 C1178 1.400 . S
C1179 C1180 1.398 . S
C1179 C1185 1.491 . S
C1180 H1171 0.950 . S
C1180 C1179 1.398 . S
C1180 C1181 1.391 . S
C1181 H1169 0.950 . S
C1181 C1177 1.393 . S
C1181 C1180 1.391 . S
C1182 H1172 0.950 . S
C1182 C1183 1.386 . S
C1182 C1184 1.391 . S
C1183 C1182 1.386 . S
C1183 C1187 1.393 . S
C1184 H1173 0.950 . S
C1184 C1182 1.391 . S
C1184 C1185 1.400 . S
C1185 C1179 1.491 . S
C1185 C1184 1.400 . S
C1185 C1186 1.398 . S
C1186 H1174 0.950 . S
C1186 C1185 1.398 . S
C1186 C1187 1.391 . S
C1187 H1175 0.950 . S
C1187 C1183 1.393 . S
C1187 C1186 1.391 . S
H1188 C1196 0.950 1_655 S
H1189 C1201 0.950 . S
H1190 C1198 0.950 1_655 S
H1191 C1200 0.950 . S
H1192 C1202 0.950 . S
H1193 C1204 0.950 . S
H1194 C1206 0.950 . S
H1195 C1207 0.950 . S
C1196 H1188 0.950 1_455 S
C1196 C1197 1.386 . S
C1196 C1198 1.391 . S
C1197 C1196 1.386 . S
C1197 C1201 1.393 . S
C1198 H1190 0.950 1_455 S
C1198 C1196 1.391 . S
C1198 C1199 1.400 . S
C1199 C1198 1.400 . S
C1199 C1200 1.398 . S
C1199 C1205 1.491 . S
C1200 H1191 0.950 . S
C1200 C1199 1.398 . S
C1200 C1201 1.391 . S
C1201 H1189 0.950 . S
C1201 C1197 1.393 . S
C1201 C1200 1.391 . S
C1202 H1192 0.950 . S
C1202 C1203 1.386 . S
C1202 C1204 1.391 . S
C1203 C1202 1.386 . S
C1203 C1207 1.393 . S
C1204 H1193 0.950 . S
C1204 C1202 1.391 . S
C1204 C1205 1.400 . S
C1205 C1199 1.491 . S
C1205 C1204 1.400 . S
C1205 C1206 1.398 . S
C1206 H1194 0.950 . S
C1206 C1205 1.398 . S
C1206 C1207 1.391 . S
C1207 H1195 0.950 . S
C1207 C1203 1.393 . S
C1207 C1206 1.391 . S
H1208 C1216 0.950 . S
H1209 C1221 0.950 . S
H1210 C1218 0.950 . S
H1211 C1220 0.950 . S
H1212 C1222 0.950 . S
H1213 C1224 0.950 . S
H1214 C1226 0.950 . S
H1215 C1227 0.950 . S
C1216 H1208 0.950 . S
C1216 C1217 1.386 . S
C1216 C1218 1.391 . S
C1217 C1216 1.386 . S
C1217 C1221 1.393 . S
C1218 H1210 0.950 . S
C1218 C1216 1.391 . S
C1218 C1219 1.400 . S
C1219 C1218 1.400 . S
C1219 C1220 1.398 . S
C1219 C1225 1.491 . S
C1220 H1211 0.950 . S
C1220 C1219 1.398 . S
C1220 C1221 1.391 . S
C1221 H1209 0.950 . S
C1221 C1217 1.393 . S
C1221 C1220 1.391 . S
C1222 H1212 0.950 . S
C1222 C1223 1.386 . S
C1222 C1224 1.391 . S
C1223 C1222 1.386 . S
C1223 C1227 1.393 . S
C1224 H1213 0.950 . S
C1224 C1222 1.391 . S
C1224 C1225 1.400 . S
C1225 C1219 1.491 . S
C1225 C1224 1.400 . S
C1225 C1226 1.398 . S
C1226 H1214 0.950 . S
C1226 C1225 1.398 . S
C1226 C1227 1.391 . S
C1227 H1215 0.950 . S
C1227 C1223 1.393 . S
C1227 C1226 1.391 . S
H1228 C1236 0.950 . S
H1229 C1241 0.950 . S
H1230 C1238 0.950 . S
H1231 C1240 0.950 . S
H1232 C1242 0.950 . S
H1233 C1244 0.950 . S
H1234 C1246 0.950 . S
H1235 C1247 0.950 . S
C1236 H1228 0.950 . S
C1236 C1237 1.386 . S
C1236 C1238 1.391 . S
C1237 C1236 1.386 . S
C1237 C1241 1.393 . S
C1238 H1230 0.950 . S
C1238 C1236 1.391 . S
C1238 C1239 1.400 . S
C1239 C1238 1.400 . S
C1239 C1240 1.398 . S
C1239 C1245 1.491 . S
C1240 H1231 0.950 . S
C1240 C1239 1.398 . S
C1240 C1241 1.391 . S
C1241 H1229 0.950 . S
C1241 C1237 1.393 . S
C1241 C1240 1.391 . S
C1242 H1232 0.950 . S
C1242 C1243 1.386 . S
C1242 C1244 1.391 . S
C1243 C1242 1.386 . S
C1243 C1247 1.393 . S
C1244 H1233 0.950 . S
C1244 C1242 1.391 . S
C1244 C1245 1.400 . S
C1245 C1239 1.491 . S
C1245 C1244 1.400 . S
C1245 C1246 1.398 . S
C1246 H1234 0.950 . S
C1246 C1245 1.398 . S
C1246 C1247 1.391 . S
C1247 H1235 0.950 . S
C1247 C1243 1.393 . S
C1247 C1246 1.391 . S
H1248 C1256 0.950 . S
H1249 C1261 0.950 . S
H1250 C1258 0.950 . S
H1251 C1260 0.950 . S
H1252 C1262 0.950 . S
H1253 C1264 0.950 . S
H1254 C1266 0.950 . S
H1255 C1267 0.950 . S
C1256 H1248 0.950 . S
C1256 C1257 1.386 . S
C1256 C1258 1.391 . S
C1257 C1256 1.386 . S
C1257 C1261 1.393 . S
C1258 H1250 0.950 . S
C1258 C1256 1.391 . S
C1258 C1259 1.400 . S
C1259 C1258 1.400 . S
C1259 C1260 1.398 . S
C1259 C1265 1.491 . S
C1260 H1251 0.950 . S
C1260 C1259 1.398 . S
C1260 C1261 1.391 . S
C1261 H1249 0.950 . S
C1261 C1257 1.393 . S
C1261 C1260 1.391 . S
C1262 H1252 0.950 . S
C1262 C1263 1.386 . S
C1262 C1264 1.391 . S
C1263 C1262 1.386 . S
C1263 C1267 1.393 . S
C1264 H1253 0.950 . S
C1264 C1262 1.391 . S
C1264 C1265 1.400 . S
C1265 C1259 1.491 . S
C1265 C1264 1.400 . S
C1265 C1266 1.398 . S
C1266 H1254 0.950 . S
C1266 C1265 1.398 . S
C1266 C1267 1.391 . S
C1267 H1255 0.950 . S
C1267 C1263 1.393 . S
C1267 C1266 1.391 . S
H1268 C1276 0.950 . S
H1269 C1281 0.950 . S
H1270 C1278 0.950 . S
H1271 C1280 0.950 . S
H1272 C1282 0.950 1_455 S
H1273 C1284 0.950 . S
H1274 C1286 0.950 . S
H1275 C1287 0.950 . S
C1276 H1268 0.950 . S
C1276 C1277 1.386 . S
C1276 C1278 1.391 . S
C1277 C1276 1.386 . S
C1277 C1281 1.393 . S
C1278 H1270 0.950 . S
C1278 C1276 1.391 . S
C1278 C1279 1.400 . S
C1279 C1278 1.400 . S
C1279 C1280 1.398 . S
C1279 C1285 1.491 . S
C1280 H1271 0.950 . S
C1280 C1279 1.398 . S
C1280 C1281 1.391 . S
C1281 H1269 0.950 . S
C1281 C1277 1.393 . S
C1281 C1280 1.391 . S
C1282 H1272 0.950 1_655 S
C1282 C1283 1.386 . S
C1282 C1284 1.391 . S
C1283 C1282 1.386 . S
C1283 C1287 1.393 . S
C1284 H1273 0.950 . S
C1284 C1282 1.391 . S
C1284 C1285 1.400 . S
C1285 C1279 1.491 . S
C1285 C1284 1.400 . S
C1285 C1286 1.398 . S
C1286 H1274 0.950 . S
C1286 C1285 1.398 . S
C1286 C1287 1.391 . S
C1287 H1275 0.950 . S
C1287 C1283 1.393 . S
C1287 C1286 1.391 . S
H1288 C1296 0.950 . S
H1289 C1301 0.950 . S
H1290 C1298 0.950 . S
H1291 C1300 0.950 . S
H1292 C1302 0.950 . S
H1293 C1304 0.950 . S
H1294 C1306 0.950 . S
H1295 C1307 0.950 . S
C1296 H1288 0.950 . S
C1296 C1297 1.386 . S
C1296 C1298 1.391 . S
C1297 C1296 1.386 . S
C1297 C1301 1.393 . S
C1298 H1290 0.950 . S
C1298 C1296 1.391 . S
C1298 C1299 1.400 . S
C1299 C1298 1.400 . S
C1299 C1300 1.398 . S
C1299 C1305 1.491 . S
C1300 H1291 0.950 . S
C1300 C1299 1.398 . S
C1300 C1301 1.391 . S
C1301 H1289 0.950 . S
C1301 C1297 1.393 . S
C1301 C1300 1.391 . S
C1302 H1292 0.950 . S
C1302 C1303 1.386 . S
C1302 C1304 1.391 . S
C1303 C1302 1.386 . S
C1303 C1307 1.393 . S
C1304 H1293 0.950 . S
C1304 C1302 1.391 . S
C1304 C1305 1.400 . S
C1305 C1299 1.491 . S
C1305 C1304 1.400 . S
C1305 C1306 1.398 . S
C1306 H1294 0.950 . S
C1306 C1305 1.398 . S
C1306 C1307 1.391 . S
C1307 H1295 0.950 . S
C1307 C1303 1.393 . S
C1307 C1306 1.391 . S
H1308 C1316 0.950 . S
H1309 C1321 0.950 . S
H1310 C1318 0.950 . S
H1311 C1320 0.950 . S
H1312 C1322 0.950 . S
H1313 C1324 0.950 . S
H1314 C1326 0.950 . S
H1315 C1327 0.950 . S
C1316 H1308 0.950 . S
C1316 C1317 1.386 . S
C1316 C1318 1.391 . S
C1317 C1316 1.386 . S
C1317 C1321 1.393 . S
C1318 H1310 0.950 . S
C1318 C1316 1.391 . S
C1318 C1319 1.400 . S
C1319 C1318 1.400 . S
C1319 C1320 1.398 . S
C1319 C1325 1.491 . S
C1320 H1311 0.950 . S
C1320 C1319 1.398 . S
C1320 C1321 1.391 . S
C1321 H1309 0.950 . S
C1321 C1317 1.393 . S
C1321 C1320 1.391 . S
C1322 H1312 0.950 . S
C1322 C1323 1.386 . S
C1322 C1324 1.391 . S
C1323 C1322 1.386 . S
C1323 C1327 1.393 . S
C1324 H1313 0.950 . S
C1324 C1322 1.391 . S
C1324 C1325 1.400 . S
C1325 C1319 1.491 . S
C1325 C1324 1.400 . S
C1325 C1326 1.398 . S
C1326 H1314 0.950 . S
C1326 C1325 1.398 . S
C1326 C1327 1.391 . S
C1327 H1315 0.950 . S
C1327 C1323 1.393 . S
C1327 C1326 1.391 . S
H1328 C1336 0.950 . S
H1329 C1341 0.950 . S
H1330 C1338 0.950 . S
H1331 C1340 0.950 . S
H1332 C1342 0.950 . S
H1333 C1344 0.950 . S
H1334 C1346 0.950 . S
H1335 C1347 0.950 . S
C1336 H1328 0.950 . S
C1336 C1337 1.386 . S
C1336 C1338 1.391 . S
C1337 C1336 1.386 . S
C1337 C1341 1.393 . S
C1338 H1330 0.950 . S
C1338 C1336 1.391 . S
C1338 C1339 1.400 . S
C1339 C1338 1.400 . S
C1339 C1340 1.398 . S
C1339 C1345 1.491 . S
C1340 H1331 0.950 . S
C1340 C1339 1.398 . S
C1340 C1341 1.391 . S
C1341 H1329 0.950 . S
C1341 C1337 1.393 . S
C1341 C1340 1.391 . S
C1342 H1332 0.950 . S
C1342 C1343 1.386 . S
C1342 C1344 1.391 . S
C1343 C1342 1.386 . S
C1343 C1347 1.393 . S
C1344 H1333 0.950 . S
C1344 C1342 1.391 . S
C1344 C1345 1.400 . S
C1345 C1339 1.491 . S
C1345 C1344 1.400 . S
C1345 C1346 1.398 . S
C1346 H1334 0.950 . S
C1346 C1345 1.398 . S
C1346 C1347 1.391 . S
C1347 H1335 0.950 . S
C1347 C1343 1.393 . S
C1347 C1346 1.391 . S
H1348 C1356 0.950 . S
H1349 C1361 0.950 . S
H1350 C1358 0.950 . S
H1351 C1360 0.950 . S
H1352 C1362 0.950 . S
H1353 C1364 0.950 . S
H1354 C1366 0.950 . S
H1355 C1367 0.950 . S
C1356 H1348 0.950 . S
C1356 C1357 1.386 . S
C1356 C1358 1.391 . S
C1357 C1356 1.386 . S
C1357 C1361 1.393 . S
C1358 H1350 0.950 . S
C1358 C1356 1.391 . S
C1358 C1359 1.400 . S
C1359 C1358 1.400 . S
C1359 C1360 1.398 . S
C1359 C1365 1.491 . S
C1360 H1351 0.950 . S
C1360 C1359 1.398 . S
C1360 C1361 1.391 . S
C1361 H1349 0.950 . S
C1361 C1357 1.393 . S
C1361 C1360 1.391 . S
C1362 H1352 0.950 . S
C1362 C1363 1.386 . S
C1362 C1364 1.391 . S
C1363 C1362 1.386 . S
C1363 C1367 1.393 . S
C1364 H1353 0.950 . S
C1364 C1362 1.391 . S
C1364 C1365 1.400 . S
C1365 C1359 1.491 . S
C1365 C1364 1.400 . S
C1365 C1366 1.398 . S
C1366 H1354 0.950 . S
C1366 C1365 1.398 . S
C1366 C1367 1.391 . S
C1367 H1355 0.950 . S
C1367 C1363 1.393 . S
C1367 C1366 1.391 . S
H1368 C1376 0.950 . S
H1369 C1381 0.950 . S
H1370 C1378 0.950 . S
H1371 C1380 0.950 . S
H1372 C1382 0.950 . S
H1373 C1384 0.950 . S
H1374 C1386 0.950 . S
H1375 C1387 0.950 . S
C1376 H1368 0.950 . S
C1376 C1377 1.386 . S
C1376 C1378 1.391 . S
C1377 C1376 1.386 . S
C1377 C1381 1.393 . S
C1378 H1370 0.950 . S
C1378 C1376 1.391 . S
C1378 C1379 1.400 . S
C1379 C1378 1.400 . S
C1379 C1380 1.398 . S
C1379 C1385 1.491 . S
C1380 H1371 0.950 . S
C1380 C1379 1.398 . S
C1380 C1381 1.391 . S
C1381 H1369 0.950 . S
C1381 C1377 1.393 . S
C1381 C1380 1.391 . S
C1382 H1372 0.950 . S
C1382 C1383 1.386 . S
C1382 C1384 1.391 . S
C1383 C1382 1.386 . S
C1383 C1387 1.393 . S
C1384 H1373 0.950 . S
C1384 C1382 1.391 . S
C1384 C1385 1.400 . S
C1385 C1379 1.491 . S
C1385 C1384 1.400 . S
C1385 C1386 1.398 . S
C1386 H1374 0.950 . S
C1386 C1385 1.398 . S
C1386 C1387 1.391 . S
C1387 H1375 0.950 . S
C1387 C1383 1.393 . S
C1387 C1386 1.391 . S
H1388 C1396 0.950 . S
H1389 C1401 0.950 1_655 S
H1390 C1398 0.950 . S
H1391 C1400 0.950 1_655 S
H1392 C1402 0.950 . S
H1393 C1404 0.950 . S
H1394 C1406 0.950 . S
H1395 C1407 0.950 . S
C1396 H1388 0.950 . S
C1396 C1397 1.386 . S
C1396 C1398 1.391 . S
C1397 C1396 1.386 . S
C1397 C1401 1.393 . S
C1398 H1390 0.950 . S
C1398 C1396 1.391 . S
C1398 C1399 1.400 . S
C1399 C1398 1.400 . S
C1399 C1400 1.398 . S
C1399 C1405 1.491 . S
C1400 H1391 0.950 1_455 S
C1400 C1399 1.398 . S
C1400 C1401 1.391 . S
C1401 H1389 0.950 1_455 S
C1401 C1397 1.393 . S
C1401 C1400 1.391 . S
C1402 H1392 0.950 . S
C1402 C1403 1.386 . S
C1402 C1404 1.391 . S
C1403 C1402 1.386 . S
C1403 C1407 1.393 . S
C1404 H1393 0.950 . S
C1404 C1402 1.391 . S
C1404 C1405 1.400 . S
C1405 C1399 1.491 . S
C1405 C1404 1.400 . S
C1405 C1406 1.398 . S
C1406 H1394 0.950 . S
C1406 C1405 1.398 . S
C1406 C1407 1.391 . S
C1407 H1395 0.950 . S
C1407 C1403 1.393 . S
C1407 C1406 1.391 . S
H1408 C1416 0.950 . S
H1409 C1421 0.950 1_655 S
H1410 C1418 0.950 . S
H1411 C1420 0.950 . S
H1412 C1422 0.950 . S
H1413 C1424 0.950 . S
H1414 C1426 0.950 . S
H1415 C1427 0.950 . S
C1416 H1408 0.950 . S
C1416 C1417 1.386 1_556 S
C1416 C1418 1.391 . S
C1417 C1416 1.386 1_554 S
C1417 C1421 1.393 . S
C1418 H1410 0.950 . S
C1418 C1416 1.391 . S
C1418 C1419 1.400 1_556 S
C1419 C1418 1.400 1_554 S
C1419 C1420 1.398 . S
C1419 C1425 1.491 . S
C1420 H1411 0.950 . S
C1420 C1419 1.398 . S
C1420 C1421 1.391 . S
C1421 H1409 0.950 1_455 S
C1421 C1417 1.393 . S
C1421 C1420 1.391 . S
C1422 H1412 0.950 . S
C1422 C1423 1.398 . S
C1422 C1424 1.391 . S
C1423 C1422 1.398 . S
C1423 C1427 1.381 1_554 S
C1424 H1413 0.950 . S
C1424 C1422 1.391 . S
C1424 C1425 1.400 . S
C1425 C1419 1.491 . S
C1425 C1424 1.400 . S
C1425 C1426 1.398 1_554 S
C1426 H1414 0.950 . S
C1426 C1425 1.398 1_556 S
C1426 C1427 1.391 . S
C1427 H1415 0.950 . S
C1427 C1423 1.381 1_556 S
C1427 C1426 1.391 . S
H1428 C1436 0.950 . S
H1429 C1441 0.950 . S
H1430 C1438 0.950 . S
H1431 C1440 0.950 . S
H1432 C1442 0.950 . S
H1433 C1444 0.950 . S
H1434 C1446 0.950 . S
H1435 C1447 0.950 . S
C1436 H1428 0.950 . S
C1436 C1437 1.386 . S
C1436 C1438 1.391 . S
C1437 C1436 1.386 . S
C1437 C1441 1.393 . S
C1438 H1430 0.950 . S
C1438 C1436 1.391 . S
C1438 C1439 1.400 . S
C1439 C1438 1.400 . S
C1439 C1440 1.398 . S
C1439 C1445 1.491 . S
C1440 H1431 0.950 . S
C1440 C1439 1.398 . S
C1440 C1441 1.391 . S
C1441 H1429 0.950 . S
C1441 C1437 1.393 . S
C1441 C1440 1.391 . S
C1442 H1432 0.950 . S
C1442 C1443 1.386 . S
C1442 C1444 1.391 . S
C1443 C1442 1.386 . S
C1443 C1447 1.393 . S
C1444 H1433 0.950 . S
C1444 C1442 1.391 . S
C1444 C1445 1.400 . S
C1445 C1439 1.491 . S
C1445 C1444 1.400 . S
C1445 C1446 1.398 . S
C1446 H1434 0.950 . S
C1446 C1445 1.398 . S
C1446 C1447 1.391 . S
C1447 H1435 0.950 . S
C1447 C1443 1.393 . S
C1447 C1446 1.391 . S
H1448 C1456 0.950 1_455 S
H1449 C1461 0.950 . S
H1450 C1458 0.950 . S
H1451 C1460 0.950 . S
H1452 C1462 0.950 . S
H1453 C1464 0.950 . S
H1454 C1466 0.950 . S
H1455 C1467 0.950 . S
C1456 H1448 0.950 1_655 S
C1456 C1457 1.386 . S
C1456 C1458 1.391 . S
C1457 C1456 1.386 . S
C1457 C1461 1.393 1_556 S
C1458 H1450 0.950 . S
C1458 C1456 1.391 . S
C1458 C1459 1.400 . S
C1459 C1458 1.400 . S
C1459 C1460 1.398 1_556 S
C1459 C1465 1.491 . S
C1460 H1451 0.950 . S
C1460 C1459 1.398 1_554 S
C1460 C1461 1.391 . S
C1461 H1449 0.950 . S
C1461 C1457 1.393 1_554 S
C1461 C1460 1.391 . S
C1462 H1452 0.950 . S
C1462 C1463 1.363 1_554 S
C1462 C1464 1.391 . S
C1463 C1462 1.363 1_556 S
C1463 C1467 1.416 . S
C1464 H1453 0.950 . S
C1464 C1462 1.391 . S
C1464 C1465 1.400 1_554 S
C1465 C1459 1.491 . S
C1465 C1464 1.400 1_556 S
C1465 C1466 1.398 . S
C1466 H1454 0.950 . S
C1466 C1465 1.398 . S
C1466 C1467 1.391 . S
C1467 H1455 0.950 . S
C1467 C1463 1.416 . S
C1467 C1466 1.391 . S
H1468 C1476 0.950 . S
H1469 C1481 0.950 . S
H1470 C1478 0.950 . S
H1471 C1480 0.950 . S
H1472 C1482 0.950 . S
H1473 C1484 0.950 . S
H1474 C1486 0.946 1_455 S
H1475 C1487 0.950 1_455 S
C1476 H1468 0.950 . S
C1476 C1477 1.386 . S
C1476 C1478 1.391 . S
C1477 C1476 1.386 . S
C1477 C1481 1.393 . S
C1478 H1470 0.950 . S
C1478 C1476 1.391 . S
C1478 C1479 1.400 . S
C1479 C1478 1.400 . S
C1479 C1480 1.398 . S
C1479 C1485 1.491 . S
C1480 H1471 0.950 . S
C1480 C1479 1.398 . S
C1480 C1481 1.391 . S
C1481 H1469 0.950 . S
C1481 C1477 1.393 . S
C1481 C1480 1.391 . S
C1482 H1472 0.950 . S
C1482 C1483 1.386 . S
C1482 C1484 1.391 . S
C1483 C1482 1.386 . S
C1483 C1487 1.393 . S
C1484 H1473 0.950 . S
C1484 C1482 1.391 . S
C1484 C1485 1.400 . S
C1485 C1479 1.491 . S
C1485 C1484 1.400 . S
C1485 C1486 1.398 . S
C1486 H1474 0.946 1_655 S
C1486 C1485 1.398 . S
C1486 C1487 1.391 . S
C1487 H1475 0.950 1_655 S
C1487 C1483 1.393 . S
C1487 C1486 1.391 . S
H1488 C1496 0.950 . S
H1489 C1501 0.950 1_655 S
H1490 C1498 0.950 . S
H1491 C1500 0.950 . S
H1492 C1502 0.950 . S
H1493 C1504 0.950 . S
H1494 C1506 0.950 . S
H1495 C1507 0.950 . S
C1496 H1488 0.950 . S
C1496 C1497 1.386 . S
C1496 C1498 1.391 . S
C1497 C1496 1.386 . S
C1497 C1501 1.393 . S
C1498 H1490 0.950 . S
C1498 C1496 1.391 . S
C1498 C1499 1.400 . S
C1499 C1498 1.400 . S
C1499 C1500 1.398 . S
C1499 C1505 1.491 . S
C1500 H1491 0.950 . S
C1500 C1499 1.398 . S
C1500 C1501 1.391 . S
C1501 H1489 0.950 1_455 S
C1501 C1497 1.393 . S
C1501 C1500 1.391 . S
C1502 H1492 0.950 . S
C1502 C1503 1.386 . S
C1502 C1504 1.391 . S
C1503 C1502 1.386 . S
C1503 C1507 1.393 . S
C1504 H1493 0.950 . S
C1504 C1502 1.391 . S
C1504 C1505 1.400 . S
C1505 C1499 1.491 . S
C1505 C1504 1.400 . S
C1505 C1506 1.398 . S
C1506 H1494 0.950 . S
C1506 C1505 1.398 . S
C1506 C1507 1.391 . S
C1507 H1495 0.950 . S
C1507 C1503 1.393 . S
C1507 C1506 1.391 . S
H1508 C1516 0.950 . S
H1509 C1521 0.950 . S
H1510 C1518 0.950 . S
H1511 C1520 0.950 . S
H1512 C1522 0.950 . S
H1513 C1524 0.950 . S
H1514 C1526 0.950 . S
H1515 C1527 0.950 . S
C1516 H1508 0.950 . S
C1516 C1517 1.386 . S
C1516 C1518 1.391 . S
C1517 C1516 1.386 . S
C1517 C1521 1.393 . S
C1518 H1510 0.950 . S
C1518 C1516 1.391 . S
C1518 C1519 1.400 . S
C1519 C1518 1.400 . S
C1519 C1520 1.398 . S
C1519 C1525 1.491 . S
C1520 H1511 0.950 . S
C1520 C1519 1.398 . S
C1520 C1521 1.391 . S
C1521 H1509 0.950 . S
C1521 C1517 1.393 . S
C1521 C1520 1.391 . S
C1522 H1512 0.950 . S
C1522 C1523 1.386 . S
C1522 C1524 1.391 . S
C1523 C1522 1.386 . S
C1523 C1527 1.393 . S
C1524 H1513 0.950 . S
C1524 C1522 1.391 . S
C1524 C1525 1.400 . S
C1525 C1519 1.491 . S
C1525 C1524 1.400 . S
C1525 C1526 1.398 . S
C1526 H1514 0.950 . S
C1526 C1525 1.398 . S
C1526 C1527 1.391 . S
C1527 H1515 0.950 . S
C1527 C1523 1.393 . S
C1527 C1526 1.391 . S
H1528 C1536 0.950 . S
H1529 C1541 0.950 . S
H1530 C1538 0.950 . S
H1531 C1540 0.950 . S
H1532 C1542 0.950 . S
H1533 C1544 0.950 . S
H1534 C1546 0.950 1_455 S
H1535 C1547 0.950 1_455 S
C1536 H1528 0.950 . S
C1536 C1537 1.386 . S
C1536 C1538 1.391 . S
C1537 C1536 1.386 . S
C1537 C1541 1.393 . S
C1538 H1530 0.950 . S
C1538 C1536 1.391 . S
C1538 C1539 1.400 . S
C1539 C1538 1.400 . S
C1539 C1540 1.398 . S
C1539 C1545 1.491 . S
C1540 H1531 0.950 . S
C1540 C1539 1.398 . S
C1540 C1541 1.391 . S
C1541 H1529 0.950 . S
C1541 C1537 1.393 . S
C1541 C1540 1.391 . S
C1542 H1532 0.950 . S
C1542 C1543 1.386 . S
C1542 C1544 1.391 . S
C1543 C1542 1.386 . S
C1543 C1547 1.393 . S
C1544 H1533 0.950 . S
C1544 C1542 1.391 . S
C1544 C1545 1.400 . S
C1545 C1539 1.491 . S
C1545 C1544 1.400 . S
C1545 C1546 1.398 . S
C1546 H1534 0.950 1_655 S
C1546 C1545 1.398 . S
C1546 C1547 1.391 . S
C1547 H1535 0.950 1_655 S
C1547 C1543 1.393 . S
C1547 C1546 1.391 . S
H1548 C1556 0.950 . S
H1549 C1561 0.950 . S
H1550 C1558 0.950 . S
H1551 C1560 0.950 . S
H1552 C1562 0.950 . S
H1553 C1564 0.950 . S
H1554 C1566 0.950 . S
H1555 C1567 0.950 1_455 S
C1556 H1548 0.950 . S
C1556 C1557 1.386 . S
C1556 C1558 1.391 . S
C1557 C1556 1.386 . S
C1557 C1561 1.393 . S
C1558 H1550 0.950 . S
C1558 C1556 1.391 . S
C1558 C1559 1.400 . S
C1559 C1558 1.400 . S
C1559 C1560 1.398 . S
C1559 C1565 1.491 . S
C1560 H1551 0.950 . S
C1560 C1559 1.398 . S
C1560 C1561 1.391 . S
C1561 H1549 0.950 . S
C1561 C1557 1.393 . S
C1561 C1560 1.391 . S
C1562 H1552 0.950 . S
C1562 C1563 1.386 . S
C1562 C1564 1.391 . S
C1563 C1562 1.386 . S
C1563 C1567 1.393 . S
C1564 H1553 0.950 . S
C1564 C1562 1.391 . S
C1564 C1565 1.400 . S
C1565 C1559 1.491 . S
C1565 C1564 1.400 . S
C1565 C1566 1.398 . S
C1566 H1554 0.950 . S
C1566 C1565 1.398 . S
C1566 C1567 1.391 . S
C1567 H1555 0.950 1_655 S
C1567 C1563 1.393 . S
C1567 C1566 1.391 . S
H1568 C1576 0.950 . S
H1569 C1581 0.950 . S
H1570 C1578 0.950 . S
H1571 C1580 0.950 . S
H1572 C1582 0.950 . S
H1573 C1584 0.950 . S
H1574 C1586 0.950 . S
H1575 C1587 0.950 . S
C1576 H1568 0.950 . S
C1576 C1577 1.386 . S
C1576 C1578 1.391 . S
C1577 C1576 1.386 . S
C1577 C1581 1.393 . S
C1578 H1570 0.950 . S
C1578 C1576 1.391 . S
C1578 C1579 1.400 . S
C1579 C1578 1.400 . S
C1579 C1580 1.398 . S
C1579 C1585 1.491 . S
C1580 H1571 0.950 . S
C1580 C1579 1.398 . S
C1580 C1581 1.391 . S
C1581 H1569 0.950 . S
C1581 C1577 1.393 . S
C1581 C1580 1.391 . S
C1582 H1572 0.950 . S
C1582 C1583 1.386 . S
C1582 C1584 1.391 . S
C1583 C1582 1.386 . S
C1583 C1587 1.393 . S
C1584 H1573 0.950 . S
C1584 C1582 1.391 . S
C1584 C1585 1.400 . S
C1585 C1579 1.491 . S
C1585 C1584 1.400 . S
C1585 C1586 1.398 . S
C1586 H1574 0.950 . S
C1586 C1585 1.398 . S
C1586 C1587 1.391 . S
C1587 H1575 0.950 . S
C1587 C1583 1.393 . S
C1587 C1586 1.391 . S
H1588 C1596 0.950 . S
H1589 C1601 0.950 . S
H1590 C1598 0.950 . S
H1591 C1600 0.950 . S
H1592 C1602 0.950 . S
H1593 C1604 0.950 . S
H1594 C1606 0.950 . S
H1595 C1607 0.950 . S
C1596 H1588 0.950 . S
C1596 C1597 1.386 . S
C1596 C1598 1.391 . S
C1597 C1596 1.386 . S
C1597 C1601 1.393 . S
C1598 H1590 0.950 . S
C1598 C1596 1.391 . S
C1598 C1599 1.400 . S
C1599 C1598 1.400 . S
C1599 C1600 1.398 . S
C1599 C1605 1.491 . S
C1600 H1591 0.950 . S
C1600 C1599 1.398 . S
C1600 C1601 1.391 . S
C1601 H1589 0.950 . S
C1601 C1597 1.393 . S
C1601 C1600 1.391 . S
C1602 H1592 0.950 . S
C1602 C1603 1.386 . S
C1602 C1604 1.391 . S
C1603 C1602 1.386 . S
C1603 C1607 1.393 . S
C1604 H1593 0.950 . S
C1604 C1602 1.391 . S
C1604 C1605 1.400 . S
C1605 C1599 1.491 . S
C1605 C1604 1.400 . S
C1605 C1606 1.398 . S
C1606 H1594 0.950 . S
C1606 C1605 1.398 . S
C1606 C1607 1.391 . S
C1607 H1595 0.950 . S
C1607 C1603 1.393 . S
C1607 C1606 1.391 . S
H1608 C1616 0.950 . S
H1609 C1621 0.950 . S
H1610 C1618 0.950 . S
H1611 C1620 0.950 . S
H1612 C1622 0.950 . S
H1613 C1624 0.950 . S
H1614 C1626 0.950 . S
H1615 C1627 0.950 . S
C1616 H1608 0.950 . S
C1616 C1617 1.386 . S
C1616 C1618 1.391 . S
C1617 C1616 1.386 . S
C1617 C1621 1.393 . S
C1618 H1610 0.950 . S
C1618 C1616 1.391 . S
C1618 C1619 1.400 . S
C1619 C1618 1.400 . S
C1619 C1620 1.398 . S
C1619 C1625 1.491 . S
C1620 H1611 0.950 . S
C1620 C1619 1.398 . S
C1620 C1621 1.391 . S
C1621 H1609 0.950 . S
C1621 C1617 1.393 . S
C1621 C1620 1.391 . S
C1622 H1612 0.950 . S
C1622 C1623 1.386 . S
C1622 C1624 1.391 . S
C1623 C1622 1.386 . S
C1623 C1627 1.393 . S
C1624 H1613 0.950 . S
C1624 C1622 1.391 . S
C1624 C1625 1.400 . S
C1625 C1619 1.491 . S
C1625 C1624 1.400 . S
C1625 C1626 1.398 . S
C1626 H1614 0.950 . S
C1626 C1625 1.398 . S
C1626 C1627 1.391 . S
C1627 H1615 0.950 . S
C1627 C1623 1.393 . S
C1627 C1626 1.391 . S
H1628 C1636 0.950 . S
H1629 C1641 0.950 . S
H1630 C1638 0.950 . S
H1631 C1640 0.950 . S
H1632 C1642 0.950 . S
H1633 C1644 0.950 . S
H1634 C1646 0.950 . S
H1635 C1647 0.950 . S
C1636 H1628 0.950 . S
C1636 C1637 1.386 . S
C1636 C1638 1.391 . S
C1637 C1636 1.386 . S
C1637 C1641 1.393 . S
C1638 H1630 0.950 . S
C1638 C1636 1.391 . S
C1638 C1639 1.400 . S
C1639 C1638 1.400 . S
C1639 C1640 1.398 . S
C1639 C1645 1.491 . S
C1640 H1631 0.950 . S
C1640 C1639 1.398 . S
C1640 C1641 1.391 . S
C1641 H1629 0.950 . S
C1641 C1637 1.393 . S
C1641 C1640 1.391 . S
C1642 H1632 0.950 . S
C1642 C1643 1.386 . S
C1642 C1644 1.391 . S
C1643 C1642 1.386 . S
C1643 C1647 1.393 . S
C1644 H1633 0.950 . S
C1644 C1642 1.391 . S
C1644 C1645 1.400 . S
C1645 C1639 1.491 . S
C1645 C1644 1.400 . S
C1645 C1646 1.398 . S
C1646 H1634 0.950 . S
C1646 C1645 1.398 . S
C1646 C1647 1.391 . S
C1647 H1635 0.950 . S
C1647 C1643 1.393 . S
C1647 C1646 1.391 . S
H1648 C1656 0.950 . S
H1649 C1661 0.954 . S
H1650 C1658 0.950 . S
H1651 C1660 0.950 . S
H1652 C1662 0.950 . S
H1653 C1664 0.948 1_556 S
H1654 C1666 0.950 . S
H1655 C1667 0.950 . S
C1656 H1648 0.950 . S
C1656 C1657 1.388 . S
C1656 C1658 1.391 . S
C1657 C1656 1.388 . S
C1657 C1661 1.389 1_554 S
C1658 H1650 0.950 . S
C1658 C1656 1.391 . S
C1658 C1659 1.400 . S
C1659 C1658 1.400 . S
C1659 C1660 1.398 1_554 S
C1659 C1665 1.491 . S
C1660 H1651 0.950 . S
C1660 C1659 1.398 1_556 S
C1660 C1661 1.392 . S
C1661 H1649 0.954 . S
C1661 C1657 1.389 1_556 S
C1661 C1660 1.392 . S
C1662 H1652 0.950 . S
C1662 C1663 1.386 . S
C1662 C1664 1.392 . S
C1663 C1662 1.386 . S
C1663 C1667 1.393 . S
C1664 H1653 0.948 1_554 S
C1664 C1662 1.392 . S
C1664 C1665 1.402 . S
C1665 C1659 1.491 . S
C1665 C1664 1.402 . S
C1665 C1666 1.398 . S
C1666 H1654 0.950 . S
C1666 C1665 1.398 . S
C1666 C1667 1.391 . S
C1667 H1655 0.950 . S
C1667 C1663 1.393 . S
C1667 C1666 1.391 . S
H1668 C1676 0.950 . S
H1669 C1681 0.950 . S
H1670 C1678 0.950 . S
H1671 C1680 0.950 . S
H1672 C1682 0.950 . S
H1673 C1684 0.950 . S
H1674 C1686 0.950 . S
H1675 C1687 0.950 . S
C1676 H1668 0.950 . S
C1676 C1677 1.386 . S
C1676 C1678 1.391 . S
C1677 C1676 1.386 . S
C1677 C1681 1.393 . S
C1678 H1670 0.950 . S
C1678 C1676 1.391 . S
C1678 C1679 1.400 . S
C1679 C1678 1.400 . S
C1679 C1680 1.398 . S
C1679 C1685 1.491 . S
C1680 H1671 0.950 . S
C1680 C1679 1.398 . S
C1680 C1681 1.391 . S
C1681 H1669 0.950 . S
C1681 C1677 1.393 . S
C1681 C1680 1.391 . S
C1682 H1672 0.950 . S
C1682 C1683 1.386 . S
C1682 C1684 1.391 . S
C1683 C1682 1.386 . S
C1683 C1687 1.393 . S
C1684 H1673 0.950 . S
C1684 C1682 1.391 . S
C1684 C1685 1.400 . S
C1685 C1679 1.491 . S
C1685 C1684 1.400 . S
C1685 C1686 1.398 . S
C1686 H1674 0.950 . S
C1686 C1685 1.398 . S
C1686 C1687 1.391 . S
C1687 H1675 0.950 . S
C1687 C1683 1.393 . S
C1687 C1686 1.391 . S
H1688 C1696 0.950 . S
H1689 C1701 0.950 . S
H1690 C1698 0.950 . S
H1691 C1700 0.950 . S
H1692 C1702 0.950 . S
H1693 C1704 0.950 . S
H1694 C1706 0.950 . S
H1695 C1707 0.950 . S
C1696 H1688 0.950 . S
C1696 C1697 1.386 . S
C1696 C1698 1.391 . S
C1697 C1696 1.386 . S
C1697 C1701 1.393 1_556 S
C1698 H1690 0.950 . S
C1698 C1696 1.391 . S
C1698 C1699 1.400 . S
C1699 C1698 1.400 . S
C1699 C1700 1.398 1_556 S
C1699 C1705 1.491 . S
C1700 H1691 0.950 . S
C1700 C1699 1.398 1_554 S
C1700 C1701 1.391 . S
C1701 H1689 0.950 . S
C1701 C1697 1.393 1_554 S
C1701 C1700 1.391 . S
C1702 H1692 0.950 . S
C1702 C1703 1.375 1_554 S
C1702 C1704 1.391 . S
C1703 C1702 1.375 1_556 S
C1703 C1707 1.404 . S
C1704 H1693 0.950 . S
C1704 C1702 1.391 . S
C1704 C1705 1.400 1_554 S
C1705 C1699 1.491 . S
C1705 C1704 1.400 1_556 S
C1705 C1706 1.398 . S
C1706 H1694 0.950 . S
C1706 C1705 1.398 . S
C1706 C1707 1.391 . S
C1707 H1695 0.950 . S
C1707 C1703 1.404 . S
C1707 C1706 1.391 . S
H1708 C1716 0.950 . S
H1709 C1721 0.950 . S
H1710 C1718 0.950 . S
H1711 C1720 0.950 . S
H1712 C1722 0.950 . S
H1713 C1724 0.950 . S
H1714 C1726 0.950 . S
H1715 C1727 0.950 . S
C1716 H1708 0.950 . S
C1716 C1717 1.386 . S
C1716 C1718 1.391 . S
C1717 C1716 1.386 . S
C1717 C1721 1.393 . S
C1718 H1710 0.950 . S
C1718 C1716 1.391 . S
C1718 C1719 1.400 . S
C1719 C1718 1.400 . S
C1719 C1720 1.398 . S
C1719 C1725 1.491 . S
C1720 H1711 0.950 . S
C1720 C1719 1.398 . S
C1720 C1721 1.391 . S
C1721 H1709 0.950 . S
C1721 C1717 1.393 . S
C1721 C1720 1.391 . S
C1722 H1712 0.950 . S
C1722 C1723 1.386 . S
C1722 C1724 1.391 . S
C1723 C1722 1.386 . S
C1723 C1727 1.393 . S
C1724 H1713 0.950 . S
C1724 C1722 1.391 . S
C1724 C1725 1.400 . S
C1725 C1719 1.491 . S
C1725 C1724 1.400 . S
C1725 C1726 1.398 . S
C1726 H1714 0.950 . S
C1726 C1725 1.398 . S
C1726 C1727 1.391 . S
C1727 H1715 0.950 . S
C1727 C1723 1.393 . S
C1727 C1726 1.391 . S
C457 C12 1.545 . S
C463 C55 1.541 . S
C477 C28 1.546 . S
C483 C26 1.542 . S
C497 C110 1.545 . S
C503 C57 1.544 . S
C517 C84 1.545 . S
C523 C70 1.541 . S
C537 C112 1.542 . S
C543 C167 1.545 . S
C557 C139 1.545 . S
C563 C141 1.541 . S
C577 C210 1.541 . S
C583 C168 1.544 . S
C597 C209 1.542 . S
C603 C183 1.545 . S
C617 C224 1.543 . S
C623 C278 1.544 . S
C637 C251 1.542 . S
C643 C252 1.545 . S
C657 C280 1.540 . S
C663 C334 1.545 . S
C677 C294 1.542 . S
C683 C308 1.542 . S
C697 C337 1.545 . S
C703 C391 1.542 . S
C717 C365 1.543 . S
C723 C362 1.542 . S
C737 C447 1.543 . S
C743 C393 1.543 . S
C757 C420 1.543 . S
C763 C407 1.542 . S
C777 C0 1.556 1_556 S
C783 C69 1.556 1_554 S
C797 C419 1.554 . S
C803 C14 1.554 . S
C817 C40 1.556 . S
C823 C197 1.556 . S
C837 C322 1.561 . S
C843 C43 1.561 . S
C857 C350 1.562 . S
C863 C82 1.561 . S
C877 C96 1.552 . S
C883 C153 1.552 . S
C897 C98 1.553 . S
C903 C266 1.554 . S
C917 C180 1.560 . S
C923 C124 1.561 . S
C937 C306 1.552 . S
C943 C127 1.552 . S
C957 C155 1.560 . S
C963 C435 1.561 . S
C977 C195 1.561 . S
C983 C239 1.560 . S
C997 C222 1.556 . S
C1003 C379 1.556 . S
C1017 C292 1.561 . S
C1023 C236 1.561 . S
C1037 C264 1.556 . S
C1043 C432 1.555 . S
C1057 C320 1.554 . S
C1063 C377 1.554 . S
C1077 C405 1.555 . S
C1083 C349 1.553 . S
C1097 C13 1.470 . S
C1103 C279 1.466 . S
C1117 C27 1.472 . S
C1123 C253 1.468 . S
C1137 C250 1.468 . S
C1143 C29 1.466 . S
C1157 C225 1.471 . S
C1163 C54 1.474 . S
C1177 C56 1.465 . S
C1183 C335 1.469 . S
C1197 C71 1.472 . S
C1203 C309 1.468 . S
C1217 C85 1.473 . S
C1223 C295 1.472 . S
C1237 C281 1.473 . S
C1243 C111 1.472 . S
C1257 C113 1.467 . S
C1263 C390 1.472 . S
C1277 C364 1.466 . S
C1283 C138 1.470 . S
C1297 C363 1.469 . S
C1303 C140 1.467 . S
C1317 C166 1.468 . S
C1323 C336 1.466 . S
C1337 C169 1.466 . S
C1343 C446 1.469 . S
C1357 C182 1.469 . S
C1363 C421 1.466 . S
C1377 C406 1.471 . S
C1383 C208 1.473 . S
C1397 C211 1.467 . S
C1403 C392 1.471 . S
C1417 C15 1.552 . S
C1423 C1 1.547 . S
C1437 C41 1.554 . S
C1443 C42 1.554 . S
C1457 C83 1.554 . S
C1463 C68 1.549 . S
C1477 C97 1.545 . S
C1483 C99 1.549 . S
C1497 C126 1.548 . S
C1503 C125 1.543 . S
C1517 C152 1.545 . S
C1523 C154 1.544 . S
C1537 C181 1.545 . S
C1543 C194 1.549 . S
C1557 C196 1.543 . S
C1563 C223 1.547 . S
C1577 C237 1.549 . S
C1583 C238 1.553 . S
C1597 C267 1.546 . S
C1603 C265 1.543 . S
C1617 C293 1.553 . S
C1623 C307 1.549 . S
C1637 C323 1.544 . S
C1643 C321 1.546 . S
C1657 C351 1.546 . S
C1663 C348 1.553 . S
C1677 C376 1.549 . S
C1683 C378 1.553 . S
C1697 C404 1.554 . S
C1703 C418 1.549 . S
C1717 C434 1.550 . S
C1723 C433 1.554 . S
