# Generated by pormake.
# Topology umw, (4)-cn, num edge types: 1
# Building blocks:
#     Node 0, Type 0, BuildingBlock: UXUYUI_clean_sbu_0, # of connection points: 4
#     Node 1, Type 0, BuildingBlock: UXUYUI_clean_sbu_0, # of connection points: 4
#     Node 2, Type 0, BuildingBlock: UXUYUI_clean_sbu_0, # of connection points: 4
#     Node 3, Type 0, BuildingBlock: UXUYUI_clean_sbu_0, # of connection points: 4
#     Node 4, Type 0, BuildingBlock: UXUYUI_clean_sbu_0, # of connection points: 4
#     Node 5, Type 0, BuildingBlock: UXUYUI_clean_sbu_0, # of connection points: 4
#     Node 6, Type 0, BuildingBlock: UXUYUI_clean_sbu_0, # of connection points: 4
#     Node 7, Type 0, BuildingBlock: UXUYUI_clean_sbu_0, # of connection points: 4
#     Edge 8, Type (0, 0), BuildingBlock: CIFDUS_clean_linker_0, # of connection points: 2
#     Edge 9, Type (0, 0), BuildingBlock: CIFDUS_clean_linker_0, # of connection points: 2
#     Edge 10, Type (0, 0), BuildingBlock: CIFDUS_clean_linker_0, # of connection points: 2
#     Edge 11, Type (0, 0), BuildingBlock: CIFDUS_clean_linker_0, # of connection points: 2
#     Edge 12, Type (0, 0), BuildingBlock: CIFDUS_clean_linker_0, # of connection points: 2
#     Edge 13, Type (0, 0), BuildingBlock: CIFDUS_clean_linker_0, # of connection points: 2
#     Edge 14, Type (0, 0), BuildingBlock: CIFDUS_clean_linker_0, # of connection points: 2
#     Edge 15, Type (0, 0), BuildingBlock: CIFDUS_clean_linker_0, # of connection points: 2
#     Edge 16, Type (0, 0), BuildingBlock: CIFDUS_clean_linker_0, # of connection points: 2
#     Edge 17, Type (0, 0), BuildingBlock: CIFDUS_clean_linker_0, # of connection points: 2
#     Edge 18, Type (0, 0), BuildingBlock: CIFDUS_clean_linker_0, # of connection points: 2
#     Edge 19, Type (0, 0), BuildingBlock: CIFDUS_clean_linker_0, # of connection points: 2
#     Edge 20, Type (0, 0), BuildingBlock: CIFDUS_clean_linker_0, # of connection points: 2
#     Edge 21, Type (0, 0), BuildingBlock: CIFDUS_clean_linker_0, # of connection points: 2
#     Edge 22, Type (0, 0), BuildingBlock: CIFDUS_clean_linker_0, # of connection points: 2
#     Edge 23, Type (0, 0), BuildingBlock: CIFDUS_clean_linker_0, # of connection points: 2
# Relax obj value: 0.239
# Max RMSD: 0.148
# Mean RMSD: 0.148
data_MOF--net-umw--node1-UXUYUI_clean_sbu_0--edge1-CIFDUS_clean_linker_0
_symmetry_space_group_name_H-M    P1
_symmetry_Int_Tables_number       1
_symmetry_cell_setting            triclinic
loop_
_symmetry_equiv_pos_as_xyz
'x, y, z'
_cell_length_a     57.881228
_cell_length_b     57.896125
_cell_length_c     32.027844
_cell_angle_alpha  90.02019
_cell_angle_beta   89.989185
_cell_angle_gamma 89.979683
loop_
_atom_site_label
_atom_site_type_symbol
_atom_site_fract_x
_atom_site_fract_y
_atom_site_fract_z
_atom_type_partial_charge
Li0 Li 0.38241 0.14676 0.27056 0.0
Li1 Li 0.40952 0.17478 0.30485 0.0
Li2 Li 0.3743 0.18823 0.2735 0.0
Li3 Li 0.40594 0.17637 0.23039 0.0
C4 C 0.36044 0.17068 0.34692 0.0
N5 N 0.3244 0.18246 0.39928 0.0
C6 C 0.36448 0.18458 0.38184 0.0
C7 C 0.33816 0.16255 0.33884 0.0
C8 C 0.34601 0.1904 0.40789 0.0
C9 C 0.32015 0.16876 0.36564 0.0
C10 C 0.43505 0.1395 0.28437 0.0
C11 C 0.47444 0.14069 0.30896 0.0
N12 N 0.47145 0.11973 0.32732 0.0
C13 C 0.43241 0.11791 0.30329 0.0
C14 C 0.45629 0.15094 0.28699 0.0
C15 C 0.45101 0.10822 0.32491 0.0
C16 C 0.37282 0.10197 0.23946 0.0
N17 N 0.37185 0.11587 0.27361 0.0
C18 C 0.36237 0.08386 0.31734 0.0
C19 C 0.36634 0.10742 0.31191 0.0
C20 C 0.36425 0.06884 0.28304 0.0
C21 C 0.36894 0.07824 0.24345 0.0
H22 H 0.37766 0.10917 0.20954 0.0
H23 H 0.36615 0.11882 0.33865 0.0
C24 C 0.44299 0.19665 0.35588 0.0
N25 N 0.42887 0.17804 0.3519 0.0
C26 C 0.45746 0.19863 0.39055 0.0
C27 C 0.44228 0.1624 0.41635 0.0
C28 C 0.42803 0.16121 0.38138 0.0
C29 C 0.45731 0.18125 0.42114 0.0
H30 H 0.44308 0.20986 0.33207 0.0
H31 H 0.41635 0.14678 0.37748 0.0
C32 C 0.35178 0.17157 0.20557 0.0
N33 N 0.3096 0.17991 0.16819 0.0
C34 C 0.34854 0.19144 0.18149 0.0
C35 C 0.33364 0.15588 0.21048 0.0
C36 C 0.32705 0.19537 0.16292 0.0
C37 C 0.31242 0.16042 0.19135 0.0
C38 C 0.41373 0.21968 0.24598 0.0
C39 C 0.39871 0.23495 0.22586 0.0
C40 C 0.43756 0.22178 0.24004 0.0
C41 C 0.40781 0.25206 0.19988 0.0
C42 C 0.44598 0.23908 0.21372 0.0
N43 N 0.43105 0.25373 0.19436 0.0
C44 C 0.3586 0.22663 0.31427 0.0
C45 C 0.32774 0.20849 0.27861 0.0
C46 C 0.34329 0.24114 0.33523 0.0
N47 N 0.35067 0.21034 0.28731 0.0
C48 C 0.3118 0.22315 0.29808 0.0
C49 C 0.31939 0.23937 0.32787 0.0
H50 H 0.37681 0.22729 0.32171 0.0
H51 H 0.32154 0.19495 0.25845 0.0
C52 C 0.44336 0.16788 0.17726 0.0
N53 N 0.42352 0.18034 0.17996 0.0
C54 C 0.45797 0.17028 0.14296 0.0
C55 C 0.43123 0.19789 0.11367 0.0
C56 C 0.41713 0.19502 0.14886 0.0
C57 C 0.45204 0.18544 0.11044 0.0
H58 H 0.448 0.1561 0.20189 0.0
H59 H 0.40123 0.20467 0.15147 0.0
O60 O 0.37815 0.16541 0.32033 0.0
O61 O 0.41687 0.14953 0.26383 0.0
O62 O 0.37276 0.16717 0.22337 0.0
O63 O 0.40515 0.20258 0.27101 0.0
H64 H 0.38165 0.19105 0.38841 0.0
H65 H 0.33476 0.15187 0.31179 0.0
H66 H 0.34882 0.2013 0.43484 0.0
H67 H 0.30276 0.16278 0.35958 0.0
H68 H 0.49088 0.14945 0.31157 0.0
H69 H 0.41619 0.10874 0.30151 0.0
H70 H 0.45859 0.16776 0.27288 0.0
H71 H 0.44917 0.09156 0.33983 0.0
H72 H 0.35861 0.07735 0.3483 0.0
H73 H 0.37083 0.06725 0.21631 0.0
H74 H 0.4689 0.21337 0.39306 0.0
H75 H 0.44141 0.14883 0.43958 0.0
H76 H 0.36238 0.20376 0.17745 0.0
H77 H 0.3359 0.14038 0.22891 0.0
H78 H 0.32425 0.21072 0.14435 0.0
H79 H 0.2982 0.14846 0.19494 0.0
H80 H 0.38021 0.2335 0.22995 0.0
H81 H 0.44941 0.20998 0.25512 0.0
H82 H 0.39639 0.26394 0.18397 0.0
H83 H 0.46437 0.24081 0.20858 0.0
H84 H 0.35021 0.25276 0.35854 0.0
H85 H 0.29367 0.22123 0.29065 0.0
H86 H 0.47395 0.16057 0.14237 0.0
H87 H 0.42579 0.20958 0.08919 0.0
Li88 Li 0.82873 0.41379 0.55808 0.0
Li89 Li 0.85526 0.38596 0.52093 0.0
Li90 Li 0.82497 0.40652 0.48311 0.0
Li91 Li 0.81458 0.37598 0.53055 0.0
C92 C 0.85622 0.43974 0.49285 0.0
N93 N 0.86364 0.47928 0.44655 0.0
C94 C 0.87378 0.44031 0.46295 0.0
C95 C 0.84248 0.45928 0.49938 0.0
C96 C 0.87725 0.46048 0.43982 0.0
C97 C 0.8465 0.4791 0.4756 0.0
C98 C 0.84589 0.36296 0.59544 0.0
C99 C 0.85573 0.32251 0.59687 0.0
N100 N 0.86157 0.32451 0.63785 0.0
C101 C 0.85196 0.36465 0.63754 0.0
C102 C 0.84777 0.34176 0.57489 0.0
C103 C 0.85987 0.34499 0.65845 0.0
C104 C 0.80704 0.43374 0.62699 0.0
N105 N 0.82617 0.43473 0.60251 0.0
C106 C 0.84209 0.46496 0.64404 0.0
C107 C 0.84357 0.44984 0.61025 0.0
C108 C 0.82259 0.46431 0.67019 0.0
C109 C 0.80486 0.44849 0.66121 0.0
H110 H 0.79363 0.4213 0.62013 0.0
H111 H 0.85864 0.45005 0.59028 0.0
C112 C 0.89602 0.3639 0.4897 0.0
N113 N 0.88618 0.37534 0.52223 0.0
C114 C 0.91922 0.35716 0.49181 0.0
C115 C 0.92136 0.37374 0.56102 0.0
C116 C 0.89828 0.3803 0.55744 0.0
C117 C 0.9322 0.36217 0.52783 0.0
H118 H 0.88595 0.36026 0.46203 0.0
H119 H 0.89001 0.38964 0.58259 0.0
C120 C 0.77864 0.4129 0.51586 0.0
N121 N 0.73392 0.42488 0.4949 0.0
C122 C 0.76508 0.39786 0.49215 0.0
C123 C 0.76939 0.43392 0.52934 0.0
C124 C 0.74253 0.40425 0.48177 0.0
C125 C 0.74677 0.4397 0.51829 0.0
C126 C 0.82471 0.35757 0.45153 0.0
C127 C 0.80647 0.36366 0.42513 0.0
C128 C 0.83391 0.33527 0.4496 0.0
C129 C 0.79747 0.3472 0.39771 0.0
C130 C 0.82441 0.31928 0.42179 0.0
N131 N 0.80652 0.32552 0.39666 0.0
C132 C 0.83287 0.41737 0.39857 0.0
C133 C 0.80394 0.44044 0.4302 0.0
C134 C 0.83182 0.43063 0.36218 0.0
N135 N 0.81922 0.42261 0.43179 0.0
C136 C 0.80223 0.45406 0.39438 0.0
C137 C 0.81656 0.4495 0.35992 0.0
H138 H 0.84523 0.40341 0.40101 0.0
H139 H 0.79375 0.44476 0.45727 0.0
C140 C 0.7886 0.35357 0.58941 0.0
N141 N 0.7931 0.35276 0.54776 0.0
C142 C 0.77294 0.33827 0.60741 0.0
C143 C 0.76597 0.32196 0.53911 0.0
C144 C 0.78219 0.33734 0.52245 0.0
C145 C 0.7613 0.32231 0.58215 0.0
H146 H 0.79705 0.36636 0.60869 0.0
H147 H 0.78569 0.33716 0.48939 0.0
O148 O 0.85206 0.41996 0.51486 0.0
O149 O 0.83821 0.38206 0.57449 0.0
O150 O 0.8007 0.40697 0.5267 0.0
O151 O 0.83399 0.37345 0.47834 0.0
H152 H 0.88446 0.42526 0.45744 0.0
H153 H 0.8286 0.45899 0.52201 0.0
H154 H 0.89071 0.46116 0.41643 0.0
H155 H 0.83589 0.49429 0.48008 0.0
H156 H 0.85727 0.30598 0.58135 0.0
H157 H 0.8506 0.38098 0.65384 0.0
H158 H 0.84308 0.34021 0.54236 0.0
H159 H 0.86465 0.34603 0.69105 0.0
H160 H 0.85602 0.47707 0.64954 0.0
H161 H 0.7897 0.44717 0.68089 0.0
H162 H 0.92693 0.3482 0.46559 0.0
H163 H 0.93081 0.37831 0.58902 0.0
H164 H 0.77181 0.38137 0.48208 0.0
H165 H 0.77966 0.44572 0.54786 0.0
H166 H 0.73185 0.39279 0.46335 0.0
H167 H 0.73942 0.45597 0.5283 0.0
H168 H 0.79927 0.38087 0.42579 0.0
H169 H 0.84829 0.33035 0.4693 0.0
H170 H 0.78328 0.35165 0.37726 0.0
H171 H 0.83129 0.30194 0.42011 0.0
H172 H 0.84349 0.42666 0.33674 0.0
H173 H 0.79005 0.46826 0.39398 0.0
H174 H 0.7695 0.33931 0.64061 0.0
H175 H 0.75722 0.30988 0.51867 0.0
Li176 Li 0.58907 0.8277 0.8061 0.0
Li177 Li 0.61572 0.8517 0.76599 0.0
Li178 Li 0.59169 0.82028 0.73203 0.0
Li179 Li 0.62403 0.81064 0.77725 0.0
C180 C 0.56162 0.8588 0.77427 0.0
N181 N 0.52117 0.87761 0.8049 0.0
C182 C 0.56169 0.88085 0.79199 0.0
C183 C 0.54096 0.8464 0.77172 0.0
C184 C 0.54106 0.89005 0.8074 0.0
C185 C 0.52069 0.85618 0.7875 0.0
C186 C 0.6425 0.84051 0.83603 0.0
C187 C 0.68296 0.84926 0.82773 0.0
N188 N 0.68557 0.84883 0.86993 0.0
C189 C 0.64556 0.84011 0.87928 0.0
C190 C 0.66132 0.84509 0.80999 0.0
C191 C 0.66748 0.84438 0.89583 0.0
C192 C 0.55709 0.80991 0.8647 0.0
N193 N 0.57011 0.8285 0.85403 0.0
C194 C 0.55828 0.84874 0.91533 0.0
C195 C 0.57104 0.84765 0.87846 0.0
C196 C 0.54473 0.82975 0.92745 0.0
C197 C 0.54417 0.81017 0.90148 0.0
H198 H 0.55711 0.79472 0.84512 0.0
H199 H 0.58189 0.86202 0.8694 0.0
C200 C 0.63066 0.8917 0.72309 0.0
N201 N 0.62655 0.8824 0.7613 0.0
C202 C 0.63503 0.91533 0.71919 0.0
C203 C 0.6317 0.91906 0.79417 0.0
C204 C 0.62739 0.8954 0.7966 0.0
C205 C 0.635 0.92944 0.75498 0.0
H206 H 0.62962 0.88092 0.69555 0.0
H207 H 0.62356 0.88757 0.82647 0.0
C208 C 0.58331 0.77739 0.76374 0.0
N209 N 0.56471 0.73669 0.73377 0.0
C210 C 0.5978 0.7592 0.75191 0.0
C211 C 0.55936 0.77479 0.76072 0.0
C212 C 0.58806 0.73878 0.73675 0.0
C213 C 0.55029 0.75411 0.74535 0.0
C214 C 0.64066 0.81845 0.69679 0.0
C215 C 0.63666 0.79637 0.68078 0.0
C216 C 0.66065 0.83043 0.68538 0.0
C217 C 0.65284 0.78653 0.65374 0.0
C218 C 0.67641 0.82001 0.65823 0.0
N219 N 0.67222 0.79845 0.64312 0.0
C220 C 0.56152 0.83277 0.66859 0.0
C221 C 0.57179 0.79328 0.66375 0.0
C222 C 0.54644 0.83058 0.63487 0.0
N223 N 0.57353 0.81421 0.6829 0.0
C224 C 0.55683 0.79029 0.62982 0.0
C225 C 0.54366 0.80905 0.61532 0.0
H226 H 0.56349 0.84936 0.68363 0.0
H227 H 0.58167 0.77876 0.67499 0.0
C228 C 0.64198 0.77934 0.83088 0.0
N229 N 0.64753 0.78958 0.79409 0.0
C230 C 0.65772 0.76498 0.85103 0.0
C231 C 0.68468 0.7715 0.79465 0.0
C232 C 0.66842 0.78603 0.77572 0.0
C233 C 0.67949 0.76086 0.83307 0.0
H234 H 0.62543 0.78293 0.84518 0.0
H235 H 0.67273 0.79477 0.74701 0.0
O236 O 0.58171 0.84928 0.75979 0.0
O237 O 0.62125 0.83589 0.81938 0.0
O238 O 0.5925 0.79745 0.77899 0.0
O239 O 0.62511 0.82837 0.72342 0.0
H240 H 0.57752 0.89069 0.7941 0.0
H241 H 0.54062 0.82935 0.7579 0.0
H242 H 0.54087 0.90705 0.82141 0.0
H243 H 0.5046 0.84673 0.78594 0.0
H244 H 0.69769 0.85279 0.80795 0.0
H245 H 0.63115 0.83646 0.89981 0.0
H246 H 0.65927 0.8453 0.77645 0.0
H247 H 0.67012 0.84412 0.92927 0.0
H248 H 0.55903 0.86428 0.9341 0.0
H249 H 0.53432 0.79498 0.90995 0.0
H250 H 0.63768 0.92261 0.68842 0.0
H251 H 0.63114 0.9293 0.82246 0.0
H252 H 0.61636 0.76084 0.75423 0.0
H253 H 0.54789 0.78864 0.76987 0.0
H254 H 0.59906 0.7246 0.72731 0.0
H255 H 0.5318 0.75191 0.74261 0.0
H256 H 0.62135 0.78688 0.68944 0.0
H257 H 0.66395 0.84759 0.69741 0.0
H258 H 0.65001 0.7694 0.64124 0.0
H259 H 0.69198 0.82905 0.64918 0.0
H260 H 0.53711 0.84567 0.62415 0.0
H261 H 0.55524 0.77336 0.61574 0.0
H262 H 0.65305 0.75775 0.88103 0.0
H263 H 0.70117 0.76876 0.77946 0.0
Li264 Li 0.14443 0.61359 0.01632 0.0
Li265 Li 0.16918 0.58664 0.05427 0.0
Li266 Li 0.18346 0.62438 0.03231 0.0
Li267 Li 0.17652 0.59364 0.98134 0.0
C268 C 0.14101 0.62689 0.09462 0.0
N269 N 0.10358 0.64518 0.13693 0.0
C270 C 0.12857 0.61327 0.12282 0.0
C271 C 0.13438 0.64983 0.08801 0.0
C272 C 0.10973 0.62284 0.14393 0.0
C273 C 0.1154 0.65874 0.10964 0.0
C274 C 0.14053 0.56474 0.97849 0.0
C275 C 0.14433 0.52893 0.94044 0.0
N276 N 0.12541 0.53455 0.9174 0.0
C277 C 0.12115 0.57016 0.95436 0.0
C278 C 0.15221 0.54393 0.9715 0.0
C279 C 0.11376 0.55466 0.92369 0.0
C280 C 0.10575 0.64264 0.99368 0.0
N281 N 0.11303 0.62314 0.01338 0.0
C282 C 0.07521 0.6161 0.04009 0.0
C283 C 0.09821 0.60964 0.03543 0.0
C284 C 0.06727 0.63636 0.02098 0.0
C285 C 0.08261 0.64953 0.99679 0.0
H286 H 0.11796 0.65305 0.9764 0.0
H287 H 0.10452 0.59414 0.05044 0.0
C288 C 0.17497 0.57231 0.13718 0.0
N289 N 0.16979 0.56473 0.09817 0.0
C290 C 0.1749 0.55699 0.17074 0.0
C291 C 0.1652 0.52616 0.12294 0.0
C292 C 0.16494 0.54219 0.09051 0.0
C293 C 0.16993 0.5335 0.16392 0.0
H294 H 0.17874 0.5904 0.14228 0.0
H295 H 0.16088 0.53662 0.05927 0.0
C296 C 0.17863 0.64546 0.96157 0.0
N297 N 0.2031 0.68325 0.9331 0.0
C298 C 0.19735 0.64239 0.93458 0.0
C299 C 0.17225 0.66772 0.97391 0.0
C300 C 0.20952 0.66173 0.92055 0.0
C301 C 0.18488 0.68661 0.95924 0.0
C302 C 0.21337 0.58194 0.05326 0.0
C303 C 0.22418 0.59315 0.08664 0.0
C304 C 0.21616 0.5581 0.04831 0.0
C305 C 0.23767 0.58033 0.1144 0.0
C306 C 0.22976 0.54589 0.07679 0.0
N307 N 0.24015 0.55716 0.10896 0.0
C308 C 0.1981 0.662 0.08196 0.0
C309 C 0.22557 0.64932 0.0321 0.0
C310 C 0.21417 0.67711 0.09951 0.0
N311 N 0.20409 0.64834 0.04918 0.0
C312 C 0.24228 0.66406 0.04891 0.0
C313 C 0.23675 0.67788 0.0836 0.0
H314 H 0.18124 0.66039 0.09592 0.0
H315 H 0.23004 0.63786 0.00667 0.0
C316 C 0.17141 0.57955 0.89735 0.0
N317 N 0.18584 0.5788 0.93079 0.0
C318 C 0.17467 0.56446 0.86383 0.0
C319 C 0.20888 0.54976 0.89797 0.0
C320 C 0.20486 0.56504 0.93094 0.0
C321 C 0.19316 0.54868 0.86457 0.0
H322 H 0.15642 0.59071 0.89808 0.0
H323 H 0.21632 0.56512 0.95752 0.0
O324 O 0.15918 0.61767 0.07283 0.0
O325 O 0.14817 0.57982 0.00842 0.0
O326 O 0.16684 0.62673 0.97636 0.0
O327 O 0.19954 0.59408 0.02642 0.0
H328 H 0.13311 0.59538 0.12785 0.0
H329 H 0.14349 0.66052 0.06576 0.0
H330 H 0.0999 0.61246 0.16565 0.0
H331 H 0.10999 0.6764 0.10455 0.0
H332 H 0.15337 0.51292 0.93441 0.0
H333 H 0.11199 0.58623 0.95894 0.0
H334 H 0.16762 0.53969 0.98895 0.0
H335 H 0.09882 0.55867 0.90475 0.0
H336 H 0.06372 0.60541 0.0585 0.0
H337 H 0.0769 0.66521 0.98151 0.0
H338 H 0.17823 0.56366 0.20174 0.0
H339 H 0.16175 0.50821 0.11583 0.0
H340 H 0.20256 0.62526 0.92488 0.0
H341 H 0.15783 0.67036 0.99488 0.0
H342 H 0.22411 0.65963 0.89979 0.0
H343 H 0.18022 0.70393 0.9687 0.0
H344 H 0.22195 0.61149 0.09148 0.0
H345 H 0.2075 0.549 0.02332 0.0
H346 H 0.24607 0.58878 0.14041 0.0
H347 H 0.23192 0.52742 0.07348 0.0
H348 H 0.20931 0.68715 0.12667 0.0
H349 H 0.25949 0.66421 0.03564 0.0
H350 H 0.162 0.56421 0.83897 0.0
H351 H 0.22369 0.53836 0.89936 0.0
Li352 Li 0.40444 0.82324 0.31469 0.0
Li353 Li 0.37494 0.81297 0.26574 0.0
Li354 Li 0.4112 0.82746 0.2394 0.0
Li355 Li 0.38274 0.85369 0.27593 0.0
C356 C 0.4237 0.78369 0.27554 0.0
N357 N 0.46013 0.75335 0.28543 0.0
C358 C 0.41948 0.76018 0.28177 0.0
C359 C 0.44643 0.79174 0.27395 0.0
C360 C 0.43813 0.74512 0.28683 0.0
C361 C 0.46462 0.77614 0.27911 0.0
C362 C 0.3606 0.81795 0.34848 0.0
C363 C 0.33467 0.81381 0.40695 0.0
N364 N 0.34067 0.79116 0.41009 0.0
C365 C 0.3665 0.79463 0.35227 0.0
C366 C 0.34457 0.82764 0.37601 0.0
C367 C 0.35624 0.78138 0.38363 0.0
C368 C 0.42328 0.83784 0.3897 0.0
N369 N 0.41969 0.81839 0.36687 0.0
C370 C 0.44091 0.79589 0.41643 0.0
C371 C 0.42777 0.79753 0.37989 0.0
C372 C 0.44546 0.81585 0.43999 0.0
C373 C 0.43615 0.83698 0.42649 0.0
H374 H 0.41664 0.8542 0.3786 0.0
H375 H 0.42436 0.78219 0.36176 0.0
C376 C 0.35803 0.77585 0.22088 0.0
N377 N 0.35153 0.79177 0.24971 0.0
C378 C 0.34154 0.76202 0.20137 0.0
C379 C 0.31205 0.78031 0.24342 0.0
C380 C 0.32913 0.79405 0.26175 0.0
C381 C 0.31808 0.76434 0.21205 0.0
H382 H 0.37594 0.77478 0.21141 0.0
H383 H 0.32442 0.80711 0.28435 0.0
C384 C 0.43574 0.86374 0.28628 0.0
N385 N 0.47469 0.89127 0.28977 0.0
C386 C 0.43524 0.88613 0.26996 0.0
C387 C 0.45596 0.85548 0.3049 0.0
C388 C 0.45514 0.89974 0.27186 0.0
C389 C 0.47549 0.86963 0.30622 0.0
C390 C 0.36237 0.83363 0.19528 0.0
C391 C 0.36606 0.8208 0.15892 0.0
C392 C 0.3403 0.84205 0.20429 0.0
C393 C 0.34745 0.81633 0.13234 0.0
C394 C 0.32214 0.83721 0.17692 0.0
N395 N 0.32605 0.82454 0.14185 0.0
C396 C 0.4329 0.80548 0.17257 0.0
C397 C 0.44416 0.84455 0.1813 0.0
C398 C 0.44633 0.80361 0.13658 0.0
N399 N 0.43204 0.82573 0.19398 0.0
C400 C 0.45793 0.84343 0.14559 0.0
C401 C 0.45892 0.82282 0.12252 0.0
H402 H 0.42271 0.79092 0.18301 0.0
H403 H 0.44267 0.86062 0.19813 0.0
C404 C 0.36699 0.89564 0.31224 0.0
N405 N 0.37185 0.88447 0.27599 0.0
C406 C 0.36112 0.91907 0.31167 0.0
C407 C 0.36495 0.91874 0.23648 0.0
C408 C 0.37066 0.89537 0.2385 0.0
C409 C 0.36041 0.93103 0.27343 0.0
H410 H 0.36819 0.88649 0.3416 0.0
H411 H 0.37494 0.88606 0.21025 0.0
O412 O 0.40555 0.79858 0.2708 0.0
O413 O 0.37038 0.83138 0.31811 0.0
O414 O 0.4163 0.85029 0.28502 0.0
O415 O 0.38018 0.83754 0.22238 0.0
H416 H 0.40195 0.75369 0.28293 0.0
H417 H 0.44999 0.80978 0.26846 0.0
H418 H 0.43512 0.72689 0.29187 0.0
H419 H 0.4823 0.78214 0.27799 0.0
H420 H 0.32224 0.82108 0.42847 0.0
H421 H 0.37881 0.78677 0.33128 0.0
H422 H 0.33983 0.84568 0.37346 0.0
H423 H 0.36064 0.76331 0.38692 0.0
H424 H 0.44748 0.77921 0.42609 0.0
H425 H 0.4394 0.85283 0.44345 0.0
H426 H 0.34709 0.75039 0.17689 0.0
H427 H 0.29428 0.7825 0.25319 0.0
H428 H 0.41973 0.89287 0.25565 0.0
H429 H 0.45659 0.83842 0.31854 0.0
H430 H 0.45504 0.91704 0.2591 0.0
H431 H 0.49126 0.86344 0.32046 0.0
H432 H 0.38305 0.81413 0.15158 0.0
H433 H 0.33718 0.85192 0.23245 0.0
H434 H 0.34999 0.80627 0.10425 0.0
H435 H 0.30492 0.84345 0.18365 0.0
H436 H 0.44675 0.78737 0.11979 0.0
H437 H 0.46706 0.85874 0.13538 0.0
H438 H 0.35751 0.92779 0.34086 0.0
H439 H 0.36503 0.92728 0.2064 0.0
Li440 Li 0.17447 0.40702 0.5644 0.0
Li441 Li 0.18847 0.37628 0.52111 0.0
Li442 Li 0.17149 0.40976 0.48884 0.0
Li443 Li 0.14674 0.38013 0.52572 0.0
C444 C 0.21647 0.42093 0.54134 0.0
N445 N 0.25041 0.44665 0.58024 0.0
C446 C 0.23502 0.40989 0.56089 0.0
C447 C 0.21528 0.44504 0.54124 0.0
C448 C 0.252 0.42321 0.58042 0.0
C449 C 0.23257 0.45774 0.56122 0.0
C450 C 0.17721 0.35389 0.59132 0.0
C451 C 0.17369 0.31376 0.6103 0.0
N452 N 0.1945 0.31493 0.62993 0.0
C453 C 0.19846 0.35477 0.61192 0.0
C454 C 0.16463 0.3333 0.5906 0.0
C455 C 0.20696 0.33484 0.63113 0.0
C456 C 0.1604 0.44213 0.61846 0.0
N457 N 0.17746 0.42629 0.61297 0.0
C458 C 0.19895 0.44266 0.66961 0.0
C459 C 0.19617 0.42576 0.6387 0.0
C460 C 0.18222 0.4601 0.67404 0.0
C461 C 0.16248 0.4593 0.64869 0.0
H462 H 0.1453 0.44179 0.59877 0.0
H463 H 0.2093 0.41271 0.63446 0.0
C464 C 0.22961 0.36529 0.48364 0.0
N465 N 0.21319 0.35524 0.5079 0.0
C466 C 0.24644 0.35198 0.464 0.0
C467 C 0.22994 0.318 0.49588 0.0
C468 C 0.21316 0.33203 0.51462 0.0
C469 C 0.24662 0.3279 0.46938 0.0
H470 H 0.2288 0.38362 0.47736 0.0
H471 H 0.19948 0.32415 0.53248 0.0
C472 C 0.13369 0.4325 0.51522 0.0
N473 N 0.10787 0.46843 0.48283 0.0
C474 C 0.11148 0.42841 0.49976 0.0
C475 C 0.1427 0.4549 0.51446 0.0
C476 C 0.09871 0.4468 0.48347 0.0
C477 C 0.1294 0.47282 0.49786 0.0
C478 C 0.17314 0.36094 0.4477 0.0
C479 C 0.18731 0.36735 0.41433 0.0
C480 C 0.16778 0.33766 0.45397 0.0
C481 C 0.19616 0.35025 0.388 0.0
C482 C 0.17696 0.32109 0.42691 0.0
N483 N 0.19087 0.32767 0.39481 0.0
C484 C 0.19423 0.43854 0.43217 0.0
C485 C 0.15427 0.43393 0.41852 0.0
C486 C 0.1966 0.45306 0.39773 0.0
N487 N 0.17327 0.42956 0.4421 0.0
C488 C 0.15571 0.44878 0.3844 0.0
C489 C 0.17712 0.45857 0.37346 0.0
H490 H 0.2092 0.43418 0.45074 0.0
H491 H 0.13797 0.42594 0.42629 0.0
C492 C 0.10247 0.37115 0.55813 0.0
N493 N 0.11664 0.36738 0.525 0.0
C494 C 0.07884 0.36656 0.55489 0.0
C495 C 0.08514 0.35315 0.4843 0.0
C496 C 0.10859 0.35814 0.48881 0.0
C497 C 0.06977 0.35807 0.51712 0.0
H498 H 0.10931 0.37904 0.58615 0.0
H499 H 0.12015 0.35584 0.46263 0.0
O500 O 0.19961 0.4082 0.52221 0.0
O501 O 0.16847 0.37322 0.57273 0.0
O502 O 0.14652 0.41469 0.53117 0.0
O503 O 0.16491 0.37735 0.47457 0.0
H504 H 0.2362 0.39124 0.56134 0.0
H505 H 0.20112 0.45385 0.52603 0.0
H506 H 0.2664 0.4149 0.59586 0.0
H507 H 0.23179 0.4764 0.5616 0.0
H508 H 0.1642 0.29767 0.60992 0.0
H509 H 0.20832 0.37063 0.61287 0.0
H510 H 0.14808 0.33243 0.5749 0.0
H511 H 0.22345 0.33521 0.64701 0.0
H512 H 0.21437 0.44256 0.68875 0.0
H513 H 0.14884 0.47199 0.6519 0.0
H514 H 0.25844 0.36046 0.44311 0.0
H515 H 0.22942 0.29955 0.50124 0.0
H516 H 0.10419 0.41123 0.50004 0.0
H517 H 0.15982 0.45839 0.52638 0.0
H518 H 0.08154 0.44387 0.47126 0.0
H519 H 0.13621 0.49021 0.49691 0.0
H520 H 0.19167 0.3853 0.40917 0.0
H521 H 0.15699 0.33243 0.47991 0.0
H522 H 0.20732 0.35492 0.36225 0.0
H523 H 0.17314 0.30299 0.43159 0.0
H524 H 0.21358 0.4596 0.38997 0.0
H525 H 0.14012 0.45265 0.3671 0.0
H526 H 0.06766 0.37098 0.58079 0.0
H527 H 0.07899 0.34635 0.45483 0.0
Li528 Li 0.62462 0.18541 0.76479 0.0
Li529 Li 0.5933 0.17415 0.80882 0.0
Li530 Li 0.61721 0.14407 0.77621 0.0
Li531 Li 0.58895 0.16843 0.73372 0.0
C532 C 0.64124 0.17714 0.84624 0.0
N533 N 0.67104 0.19692 0.90335 0.0
C534 C 0.63406 0.19596 0.87032 0.0
C535 C 0.66346 0.16815 0.85164 0.0
C536 C 0.64941 0.20577 0.89891 0.0
C537 C 0.67831 0.17847 0.88055 0.0
C538 C 0.58526 0.21911 0.77466 0.0
C539 C 0.55618 0.24891 0.7724 0.0
N540 N 0.56997 0.26274 0.79599 0.0
C541 C 0.59927 0.2337 0.79841 0.0
C542 C 0.56365 0.22683 0.76108 0.0
C543 C 0.59119 0.25567 0.80906 0.0
C544 C 0.64626 0.21283 0.70746 0.0
N545 N 0.64757 0.20745 0.74866 0.0
C546 C 0.68052 0.23199 0.75664 0.0
C547 C 0.66412 0.21687 0.77352 0.0
C548 C 0.68014 0.23716 0.71363 0.0
C549 C 0.66258 0.22728 0.68911 0.0
H550 H 0.63271 0.20539 0.6885 0.0
H551 H 0.66472 0.21273 0.80631 0.0
C552 C 0.58145 0.1684 0.89326 0.0
N553 N 0.57511 0.17969 0.85786 0.0
C554 C 0.56679 0.16809 0.92786 0.0
C555 C 0.53973 0.19184 0.88969 0.0
C556 C 0.55487 0.19157 0.85569 0.0
C557 C 0.54538 0.1795 0.92601 0.0
H558 H 0.5974 0.15866 0.89385 0.0
H559 H 0.54975 0.19965 0.8268 0.0
C560 C 0.64226 0.15693 0.70186 0.0
N561 N 0.68379 0.15084 0.66085 0.0
C562 C 0.6431 0.15764 0.65828 0.0
C563 C 0.6625 0.15312 0.7246 0.0
C564 C 0.66428 0.15452 0.63811 0.0
C565 C 0.68334 0.15008 0.70329 0.0
C566 C 0.56418 0.1389 0.80083 0.0
C567 C 0.56685 0.12318 0.83356 0.0
C568 C 0.5424 0.14824 0.79243 0.0
C569 C 0.54767 0.11726 0.85777 0.0
C570 C 0.52364 0.14185 0.81732 0.0
N571 N 0.52665 0.12665 0.84925 0.0
C572 C 0.63222 0.10255 0.81578 0.0
C573 C 0.63166 0.10232 0.74179 0.0
C574 C 0.63779 0.07903 0.8165 0.0
N575 N 0.62892 0.11351 0.77874 0.0
C576 C 0.63757 0.079 0.74103 0.0
C577 C 0.64006 0.06681 0.7787 0.0
H578 H 0.62961 0.11185 0.84471 0.0
H579 H 0.6285 0.1113 0.71279 0.0
C580 C 0.56968 0.18645 0.66046 0.0
N581 N 0.5695 0.16814 0.68693 0.0
C582 C 0.55595 0.1862 0.62465 0.0
C583 C 0.54211 0.14831 0.64442 0.0
C584 C 0.55618 0.14926 0.67971 0.0
C585 C 0.54196 0.16691 0.61621 0.0
H586 H 0.5807 0.2011 0.66701 0.0
H587 H 0.55657 0.13491 0.70131 0.0
O588 O 0.62647 0.1671 0.81831 0.0
O589 O 0.59286 0.19762 0.7635 0.0
O590 O 0.62176 0.16038 0.72215 0.0
O591 O 0.58289 0.14556 0.77774 0.0
H592 H 0.61682 0.2029 0.86709 0.0
H593 H 0.66917 0.15336 0.83373 0.0
H594 H 0.64411 0.2204 0.91762 0.0
H595 H 0.69559 0.17177 0.88491 0.0
H596 H 0.53942 0.25505 0.76239 0.0
H597 H 0.61628 0.22824 0.8082 0.0
H598 H 0.55272 0.21579 0.74226 0.0
H599 H 0.60182 0.26713 0.82756 0.0
H600 H 0.69329 0.23952 0.7772 0.0
H601 H 0.6616 0.23019 0.65579 0.0
H602 H 0.57187 0.15848 0.95539 0.0
H603 H 0.52324 0.20053 0.88671 0.0
H604 H 0.62755 0.16068 0.6403 0.0
H605 H 0.66211 0.15262 0.75833 0.0
H606 H 0.66521 0.15506 0.6044 0.0
H607 H 0.69915 0.14716 0.72049 0.0
H608 H 0.58363 0.1159 0.84056 0.0
H609 H 0.5401 0.16061 0.76743 0.0
H610 H 0.54951 0.10527 0.88346 0.0
H611 H 0.50672 0.14908 0.81143 0.0
H612 H 0.63926 0.07034 0.84631 0.0
H613 H 0.63958 0.07051 0.71113 0.0
H614 H 0.55661 0.20076 0.60347 0.0
H615 H 0.53138 0.13324 0.63944 0.0
Li616 Li 0.81246 0.62398 0.02102 0.0
Li617 Li 0.82728 0.59419 0.0647 0.0
Li618 Li 0.85446 0.62132 0.02645 0.0
Li619 Li 0.83101 0.59089 0.9904 0.0
C620 C 0.82432 0.64852 0.08856 0.0
N621 N 0.80878 0.68968 0.12195 0.0
C622 C 0.80275 0.64959 0.10806 0.0
C623 C 0.83809 0.66831 0.08632 0.0
C624 C 0.79516 0.67059 0.12463 0.0
C625 C 0.8299 0.68897 0.10336 0.0
C626 C 0.78668 0.57908 0.04569 0.0
C627 C 0.77354 0.54279 0.07408 0.0
N628 N 0.75609 0.55402 0.09403 0.0
C629 C 0.76861 0.59025 0.06647 0.0
C630 C 0.78915 0.55515 0.04943 0.0
C631 C 0.75331 0.57727 0.09072 0.0
C632 C 0.76932 0.63514 0.98859 0.0
N633 N 0.78777 0.64504 0.00781 0.0
C634 C 0.77322 0.68275 0.99209 0.0
C635 C 0.7899 0.66842 0.01014 0.0
C636 C 0.7543 0.67293 0.97107 0.0
C637 C 0.7523 0.64877 0.97014 0.0
H638 H 0.76846 0.61657 0.98547 0.0
H639 H 0.80516 0.67602 0.02374 0.0
C640 C 0.83883 0.55832 0.12026 0.0
N641 N 0.82431 0.57656 0.11527 0.0
C642 C 0.83681 0.54386 0.15489 0.0
C643 C 0.80543 0.56768 0.17982 0.0
C644 C 0.80804 0.58168 0.14452 0.0
C645 C 0.8198 0.54831 0.18508 0.0
H646 H 0.85203 0.55491 0.09733 0.0
H647 H 0.79684 0.59641 0.14018 0.0
C648 C 0.82618 0.6367 0.94485 0.0
N649 N 0.80458 0.66363 0.88524 0.0
C650 C 0.81091 0.62666 0.91631 0.0
C651 C 0.8305 0.66044 0.94298 0.0
C652 C 0.80015 0.64057 0.88643 0.0
C653 C 0.81941 0.67375 0.91262 0.0
C654 C 0.86885 0.57005 0.01399 0.0
C655 C 0.88984 0.5757 0.99493 0.0
C656 C 0.86092 0.54724 0.01255 0.0
C657 C 0.90251 0.55845 0.97473 0.0
C658 C 0.87407 0.53051 0.99196 0.0
N659 N 0.89442 0.53641 0.97363 0.0
C660 C 0.89894 0.62871 0.05726 0.0
C661 C 0.89121 0.64795 0.99349 0.0
C662 C 0.92239 0.63406 0.0541 0.0
N663 N 0.88408 0.63516 0.02662 0.0
C664 C 0.91444 0.65406 0.98944 0.0
C665 C 0.93059 0.64638 0.0192 0.0
H666 H 0.89282 0.61806 0.08271 0.0
H667 H 0.87916 0.65234 0.96903 0.0
C668 C 0.81515 0.5549 0.93752 0.0
N669 N 0.83184 0.57105 0.94351 0.0
C670 C 0.81613 0.54028 0.90293 0.0
C671 C 0.85129 0.55944 0.88126 0.0
C672 C 0.8495 0.57381 0.91601 0.0
C673 C 0.83447 0.54239 0.87447 0.0
H674 H 0.80107 0.55341 0.95949 0.0
H675 H 0.86223 0.58717 0.92124 0.0
O676 O 0.83217 0.62814 0.07241 0.0
O677 O 0.80203 0.59153 0.02223 0.0
O678 O 0.83632 0.62347 0.97515 0.0
O679 O 0.85593 0.5868 0.03323 0.0
H680 H 0.79189 0.63443 0.11001 0.0
H681 H 0.85488 0.66772 0.07147 0.0
H682 H 0.77844 0.67172 0.13958 0.0
H683 H 0.84033 0.70445 0.10175 0.0
H684 H 0.77535 0.52429 0.07746 0.0
H685 H 0.76654 0.60878 0.06435 0.0
H686 H 0.80314 0.54622 0.03393 0.0
H687 H 0.7393 0.58571 0.10708 0.0
H688 H 0.77544 0.7013 0.99361 0.0
H689 H 0.73832 0.64041 0.95353 0.0
H690 H 0.84863 0.52947 0.15818 0.0
H691 H 0.79206 0.57172 0.20231 0.0
H692 H 0.80708 0.6084 0.91761 0.0
H693 H 0.84185 0.66862 0.96538 0.0
H694 H 0.78819 0.63305 0.86434 0.0
H695 H 0.82243 0.69217 0.91107 0.0
H696 H 0.8962 0.59323 0.99519 0.0
H697 H 0.8446 0.54255 0.02661 0.0
H698 H 0.91873 0.56263 0.95973 0.0
H699 H 0.86804 0.51284 0.99039 0.0
H700 H 0.93407 0.62731 0.07748 0.0
H701 H 0.91979 0.66388 0.96236 0.0
H702 H 0.80286 0.5273 0.89874 0.0
H703 H 0.86547 0.56184 0.85963 0.0
H704 H 0.48346 0.14695 0.45387 0.0
H705 H 0.46586 0.21877 0.47048 0.0
H706 H 0.4908 0.22079 0.532 0.0
H707 H 0.51665 0.20178 0.58213 0.0
H708 H 0.53466 0.13006 0.56457 0.0
H709 H 0.51005 0.12823 0.50286 0.0
C710 C 0.48499 0.16299 0.47115 0.0
C711 C 0.47279 0.18264 0.45784 0.0
C712 C 0.49927 0.164 0.50643 0.0
C713 C 0.47523 0.20345 0.47999 0.0
C714 C 0.48938 0.20459 0.51525 0.0
C715 C 0.51541 0.18582 0.56454 0.0
C716 C 0.5274 0.16606 0.57812 0.0
C717 C 0.5014 0.18494 0.52883 0.0
C718 C 0.52532 0.14542 0.55526 0.0
C719 C 0.51137 0.14439 0.51979 0.0
H720 H 0.85682 0.47546 0.7246 0.0
H721 H 0.78464 0.48761 0.69882 0.0
H722 H 0.78184 0.51239 0.76032 0.0
H723 H 0.80004 0.53101 0.82089 0.0
H724 H 0.8724 0.51954 0.8456 0.0
H725 H 0.87512 0.49444 0.78442 0.0
C726 C 0.84054 0.48374 0.73212 0.0
C727 C 0.82098 0.47969 0.70712 0.0
C728 C 0.83911 0.49813 0.76722 0.0
C729 C 0.79989 0.49022 0.71781 0.0
C730 C 0.7983 0.50449 0.75284 0.0
C731 C 0.81634 0.52285 0.813 0.0
C732 C 0.83597 0.52705 0.83764 0.0
C733 C 0.81779 0.50853 0.77777 0.0
C734 C 0.8571 0.51669 0.82681 0.0
C735 C 0.85864 0.50229 0.79198 0.0
H736 H 0.50214 0.83931 0.10832 0.0
H737 H 0.44561 0.80384 0.04837 0.0
H738 H 0.46716 0.80279 0.98283 0.0
H739 H 0.5016 0.81283 0.94218 0.0
H740 H 0.55852 0.84758 0.00254 0.0
H741 H 0.53699 0.84859 0.06798 0.0
C742 C 0.49452 0.83145 0.08083 0.0
C743 C 0.47234 0.82167 0.08317 0.0
C744 C 0.50696 0.83097 0.04325 0.0
C745 C 0.46278 0.81125 0.04749 0.0
C746 C 0.47502 0.81077 0.00994 0.0
C747 C 0.50942 0.8204 0.96974 0.0
C748 C 0.53162 0.8302 0.96731 0.0
C749 C 0.49709 0.82064 0.00745 0.0
C750 C 0.54131 0.84026 0.00325 0.0
C751 C 0.52909 0.8407 0.04081 0.0
H752 H 0.15347 0.45635 0.29984 0.0
H753 H 0.20539 0.49634 0.36449 0.0
H754 H 0.20882 0.52188 0.30445 0.0
H755 H 0.19665 0.53332 0.2343 0.0
H756 H 0.14117 0.49622 0.17375 0.0
H757 H 0.13969 0.46913 0.23165 0.0
C758 C 0.16529 0.47085 0.30128 0.0
C759 C 0.17914 0.47427 0.33687 0.0
C760 C 0.16665 0.48599 0.26726 0.0
C761 C 0.19477 0.4929 0.33737 0.0
C762 C 0.19663 0.50769 0.30313 0.0
C763 C 0.18396 0.51955 0.23388 0.0
C764 C 0.16914 0.5169 0.19935 0.0
C765 C 0.18256 0.50446 0.26802 0.0
C766 C 0.15321 0.49852 0.19927 0.0
C767 C 0.15215 0.48309 0.23264 0.0
H768 H 0.32548 0.28281 0.36032 0.0
H769 H 0.27535 0.22761 0.35292 0.0
H770 H 0.24857 0.25006 0.39513 0.0
H771 H 0.23935 0.28523 0.43479 0.0
H772 H 0.29158 0.33792 0.44941 0.0
H773 H 0.31767 0.31618 0.4046 0.0
C774 C 0.30891 0.27535 0.36836 0.0
C775 C 0.30265 0.25342 0.35287 0.0
C776 C 0.29389 0.28787 0.39431 0.0
C777 C 0.28067 0.24461 0.36317 0.0
C778 C 0.26535 0.25733 0.38791 0.0
C779 C 0.25658 0.2918 0.42896 0.0
C780 C 0.26328 0.31339 0.44534 0.0
C781 C 0.27182 0.27894 0.40384 0.0
C782 C 0.28564 0.32166 0.43663 0.0
C783 C 0.30068 0.30917 0.4111 0.0
H784 H 0.76659 0.29427 0.64925 0.0
H785 H 0.71687 0.31589 0.55699 0.0
H786 H 0.68712 0.29224 0.59053 0.0
H787 H 0.67514 0.26653 0.64706 0.0
H788 H 0.72583 0.24206 0.7358 0.0
H789 H 0.75505 0.26645 0.70354 0.0
C790 C 0.74923 0.2937 0.63651 0.0
C791 C 0.74384 0.30676 0.60082 0.0
C792 C 0.73233 0.27989 0.65567 0.0
C793 C 0.72141 0.30579 0.58427 0.0
C794 C 0.7044 0.29242 0.60358 0.0
C795 C 0.69263 0.26609 0.65909 0.0
C796 C 0.69803 0.25234 0.69414 0.0
C797 C 0.70966 0.27947 0.6394 0.0
C798 C 0.72082 0.25273 0.70958 0.0
C799 C 0.7377 0.2665 0.69082 0.0
H800 H 0.76309 0.71088 0.92318 0.0
H801 H 0.70744 0.66759 0.96705 0.0
H802 H 0.67979 0.69013 0.92652 0.0
H803 H 0.67138 0.72186 0.87854 0.0
H804 H 0.7265 0.7668 0.8379 0.0
H805 H 0.7544 0.74361 0.87673 0.0
C806 C 0.74487 0.70659 0.9244 0.0
C807 C 0.73738 0.68756 0.94823 0.0
C808 C 0.72898 0.71974 0.90121 0.0
C809 C 0.71374 0.68198 0.94868 0.0
C810 C 0.69789 0.6949 0.92559 0.0
C811 C 0.68944 0.72682 0.87847 0.0
C812 C 0.69671 0.74616 0.85525 0.0
C813 C 0.70532 0.71377 0.90169 0.0
C814 C 0.72035 0.75185 0.85487 0.0
C815 C 0.73633 0.73872 0.87745 0.0
H816 H 0.2334 0.72194 0.11293 0.0
H817 H 0.28043 0.66433 0.10374 0.0
H818 H 0.30941 0.68567 0.14348 0.0
H819 H 0.32092 0.72011 0.1826 0.0
H820 H 0.27466 0.77857 0.18912 0.0
H821 H 0.24558 0.75712 0.15008 0.0
C822 C 0.25001 0.71409 0.11964 0.0
C823 C 0.25477 0.69162 0.10529 0.0
C824 C 0.26659 0.72644 0.14262 0.0
C825 C 0.27645 0.68173 0.11388 0.0
C826 C 0.29295 0.69385 0.13693 0.0
C827 C 0.30461 0.72834 0.17513 0.0
C828 C 0.30008 0.75096 0.18915 0.0
C829 C 0.28817 0.71616 0.15163 0.0
C830 C 0.27856 0.76104 0.17967 0.0
C831 C 0.26196 0.74887 0.15688 0.0
H832 H 0.37714 0.96349 0.32682 0.0
H833 H 0.33511 0.95573 0.21641 0.0
H834 H 0.33194 0.99767 0.21025 0.0
H835 H 0.34254 0.03665 0.23461 0.0
H836 H 0.38453 0.04396 0.34516 0.0
H837 H 0.3857 0.00214 0.35347 0.0
C838 C 0.36688 0.97091 0.30188 0.0
C839 C 0.35649 0.95642 0.27204 0.0
C840 C 0.3651 0.99501 0.29853 0.0
C841 C 0.34359 0.96645 0.23949 0.0
C842 C 0.34169 0.99045 0.23601 0.0
C843 C 0.35189 0.02905 0.26055 0.0
C844 C 0.36339 0.04343 0.28921 0.0
C845 C 0.35268 0.00491 0.26499 0.0
C846 C 0.37525 0.03334 0.32294 0.0
C847 C 0.37608 0.0094 0.32757 0.0
H848 H 0.96475 0.36853 0.46782 0.0
H849 H 0.95583 0.34367 0.59374 0.0
H850 H 0.99758 0.33861 0.60065 0.0
H851 H 0.03678 0.34358 0.57238 0.0
H852 H 0.04544 0.36998 0.44727 0.0
H853 H 0.00371 0.37138 0.43823 0.0
C854 C 0.9719 0.36158 0.49648 0.0
C855 C 0.95722 0.35661 0.53027 0.0
C856 C 0.99593 0.35896 0.50041 0.0
C857 C 0.9668 0.34791 0.56743 0.0
C858 C 0.99067 0.34496 0.57138 0.0
C859 C 0.02954 0.34959 0.54311 0.0
C860 C 0.04433 0.35665 0.51064 0.0
C861 C 0.00544 0.35088 0.53836 0.0
C862 C 0.03459 0.36407 0.47266 0.0
C863 C 0.01066 0.36511 0.46754 0.0
H864 H 0.65863 0.95989 0.80436 0.0
H865 H 0.6131 0.95645 0.69777 0.0
H866 H 0.61149 0.99844 0.69493 0.0
H867 H 0.62062 0.03588 0.7254 0.0
H868 H 0.66645 0.04011 0.83148 0.0
H869 H 0.66973 0.998 0.83256 0.0
C870 C 0.64843 0.96836 0.78044 0.0
C871 C 0.63604 0.955 0.75129 0.0
C872 C 0.64733 0.99262 0.77924 0.0
C873 C 0.6231 0.96625 0.7202 0.0
C874 C 0.62197 0.99029 0.71878 0.0
C875 C 0.63177 0.02774 0.74827 0.0
C876 C 0.64329 0.04128 0.77827 0.0
C877 C 0.63377 0.00361 0.74845 0.0
C878 C 0.65713 0.03018 0.80831 0.0
C879 C 0.65913 0.00609 0.8088 0.0
H880 H 0.96471 0.65324 0.07708 0.0
H881 H 0.95377 0.64481 0.94449 0.0
H882 H 0.99526 0.6443 0.93292 0.0
H883 H 0.03478 0.64164 0.96102 0.0
H884 H 0.0455 0.64581 0.09389 0.0
H885 H 0.00412 0.65223 0.10487 0.0
C886 C 0.97133 0.65126 0.04562 0.0
C887 C 0.95592 0.64896 0.01186 0.0
C888 C 0.9953 0.64997 0.03924 0.0
C889 C 0.96501 0.64699 0.9712 0.0
C890 C 0.98885 0.64641 0.96448 0.0
C891 C 0.028 0.6444 0.99221 0.0
C892 C 0.04295 0.64332 0.02662 0.0
C893 C 0.00414 0.6473 0.99833 0.0
C894 C 0.03414 0.64658 0.06704 0.0
C895 C 0.01054 0.65019 0.07328 0.0
H896 H 0.51862 0.21313 0.96139 0.0
H897 H 0.53367 0.1402 0.9674 0.0
H898 H 0.50562 0.13554 0.02361 0.0
H899 H 0.47691 0.15199 0.07094 0.0
H900 H 0.46252 0.22513 0.06739 0.0
H901 H 0.48961 0.22972 0.00944 0.0
C902 C 0.51567 0.19623 0.97496 0.0
C903 C 0.52839 0.17709 0.96051 0.0
C904 C 0.49948 0.19365 0.00741 0.0
C905 C 0.52445 0.15529 0.97849 0.0
C906 C 0.50828 0.15257 0.01043 0.0
C907 C 0.47983 0.16902 0.05787 0.0
C908 C 0.46771 0.18819 0.07382 0.0
C909 C 0.49579 0.17163 0.02524 0.0
C910 C 0.47136 0.20999 0.05556 0.0
C911 C 0.48702 0.21268 0.02261 0.0
H912 H 0.82102 0.50134 0.18624 0.0
H913 H 0.81304 0.56061 0.26667 0.0
H914 H 0.81065 0.53527 0.32756 0.0
H915 H 0.81261 0.49645 0.35819 0.0
H916 H 0.82012 0.43713 0.27758 0.0
H917 H 0.82152 0.4624 0.21665 0.0
C918 C 0.81886 0.50872 0.21713 0.0
C919 C 0.81734 0.53285 0.22189 0.0
C920 C 0.81763 0.49407 0.252 0.0
C921 C 0.81409 0.5421 0.26205 0.0
C922 C 0.81286 0.52763 0.29692 0.0
C923 C 0.81418 0.48898 0.32728 0.0
C924 C 0.8163 0.46486 0.32262 0.0
C925 C 0.81478 0.5036 0.29229 0.0
C926 C 0.81878 0.45561 0.28225 0.0
C927 C 0.81944 0.47005 0.24732 0.0
H928 H 0.50062 0.82757 0.6087 0.0
H929 H 0.54931 0.78441 0.54285 0.0
H930 H 0.52262 0.78149 0.48394 0.0
H931 H 0.48631 0.79302 0.4495 0.0
H932 H 0.43823 0.83697 0.51507 0.0
H933 H 0.46399 0.83806 0.5754 0.0
C934 C 0.50548 0.81763 0.58136 0.0
C935 C 0.52704 0.80638 0.58015 0.0
C936 C 0.4902 0.81628 0.54742 0.0
C937 C 0.53278 0.79313 0.54482 0.0
C938 C 0.51758 0.79156 0.51099 0.0
C939 C 0.48134 0.80256 0.47724 0.0
C940 C 0.46041 0.81497 0.4777 0.0
C941 C 0.49633 0.80325 0.51177 0.0
C942 C 0.45435 0.8275 0.5137 0.0
C943 C 0.46904 0.82807 0.54826 0.0
H944 H 0.18463 0.55172 0.78087 0.0
H945 H 0.20508 0.50346 0.8767 0.0
H946 H 0.20503 0.47211 0.82587 0.0
H947 H 0.19665 0.45779 0.75505 0.0
H948 H 0.17478 0.50587 0.66009 0.0
H949 H 0.17748 0.5377 0.70981 0.0
C950 C 0.18905 0.53435 0.79069 0.0
C951 C 0.19488 0.53006 0.83262 0.0
C952 C 0.18849 0.51625 0.7615 0.0
C953 C 0.2009 0.50744 0.84455 0.0
C954 C 0.20066 0.4894 0.81555 0.0
C955 C 0.19275 0.47527 0.74518 0.0
C956 C 0.18532 0.47941 0.70406 0.0
C957 C 0.19418 0.49353 0.77406 0.0
C958 C 0.18016 0.50216 0.69178 0.0
C959 C 0.1818 0.5204 0.72013 0.0
loop_
_geom_bond_atom_site_label_1
_geom_bond_atom_site_label_2
_geom_bond_distance
_geom_bond_site_symmetry_2
_ccdc_geom_bond_type
Li0 N17 1.990 . S
Li0 O60 1.956 . S
Li0 O61 1.970 . S
Li0 O62 1.961 . S
Li1 N25 1.990 . S
Li1 O60 1.970 . S
Li1 O61 1.956 . S
Li1 O63 1.961 . S
Li2 N47 1.990 . S
Li2 O60 1.961 . S
Li2 O62 1.956 . S
Li2 O63 1.970 . S
Li3 N53 1.990 . S
Li3 O61 1.961 . S
Li3 O62 1.970 . S
Li3 O63 1.956 . S
C4 C6 1.348 . S
C4 C7 1.356 . S
C4 O60 1.325 . S
N5 C8 1.314 . S
N5 C9 1.279 . S
C6 C4 1.348 . S
C6 C8 1.353 . S
C6 H64 0.929 . S
C7 C4 1.356 . S
C7 C9 1.358 . S
C7 H65 0.930 . S
C8 N5 1.314 . S
C8 C6 1.353 . S
C8 H66 0.930 . S
C9 N5 1.279 . S
C9 C7 1.358 . S
C9 H67 0.930 . S
C10 C13 1.348 . S
C10 C14 1.356 . S
C10 O61 1.325 . S
C11 N12 1.279 . S
C11 C14 1.358 . S
C11 H68 0.930 . S
N12 C11 1.279 . S
N12 C15 1.314 . S
C13 C10 1.348 . S
C13 C15 1.353 . S
C13 H69 0.929 . S
C14 C10 1.356 . S
C14 C11 1.358 . S
C14 H70 0.930 . S
C15 N12 1.314 . S
C15 C13 1.353 . S
C15 H71 0.930 . S
C16 N17 1.314 . S
C16 C21 1.353 . S
C16 H22 0.930 . S
N17 Li0 1.990 . S
N17 C16 1.314 . S
N17 C19 1.279 . S
C18 C19 1.358 . S
C18 C20 1.356 . S
C18 H72 0.930 . S
C19 N17 1.279 . S
C19 C18 1.358 . S
C19 H23 0.930 . S
C20 C18 1.356 . S
C20 C21 1.348 . S
C21 C16 1.353 . S
C21 C20 1.348 . S
C21 H73 0.929 . S
H22 C16 0.930 . S
H23 C19 0.930 . S
C24 N25 1.314 . S
C24 C26 1.353 . S
C24 H30 0.930 . S
N25 Li1 1.990 . S
N25 C24 1.314 . S
N25 C28 1.279 . S
C26 C24 1.353 . S
C26 C29 1.348 . S
C26 H74 0.929 . S
C27 C28 1.358 . S
C27 C29 1.356 . S
C27 H75 0.930 . S
C28 N25 1.279 . S
C28 C27 1.358 . S
C28 H31 0.930 . S
C29 C26 1.348 . S
C29 C27 1.356 . S
H30 C24 0.930 . S
H31 C28 0.930 . S
C32 C34 1.348 . S
C32 C35 1.356 . S
C32 O62 1.325 . S
N33 C36 1.314 . S
N33 C37 1.279 . S
C34 C32 1.348 . S
C34 C36 1.353 . S
C34 H76 0.929 . S
C35 C32 1.356 . S
C35 C37 1.358 . S
C35 H77 0.930 . S
C36 N33 1.314 . S
C36 C34 1.353 . S
C36 H78 0.930 . S
C37 N33 1.279 . S
C37 C35 1.358 . S
C37 H79 0.930 . S
C38 C39 1.348 . S
C38 C40 1.356 . S
C38 O63 1.325 . S
C39 C38 1.348 . S
C39 C41 1.353 . S
C39 H80 0.929 . S
C40 C38 1.356 . S
C40 C42 1.358 . S
C40 H81 0.930 . S
C41 C39 1.353 . S
C41 N43 1.314 . S
C41 H82 0.930 . S
C42 C40 1.358 . S
C42 N43 1.279 . S
C42 H83 0.930 . S
N43 C41 1.314 . S
N43 C42 1.279 . S
C44 C46 1.353 . S
C44 N47 1.314 . S
C44 H50 0.930 . S
C45 N47 1.279 . S
C45 C48 1.358 . S
C45 H51 0.930 . S
C46 C44 1.353 . S
C46 C49 1.348 . S
C46 H84 0.929 . S
N47 Li2 1.990 . S
N47 C44 1.314 . S
N47 C45 1.279 . S
C48 C45 1.358 . S
C48 C49 1.356 . S
C48 H85 0.930 . S
C49 C46 1.348 . S
C49 C48 1.356 . S
H50 C44 0.930 . S
H51 C45 0.930 . S
C52 N53 1.314 . S
C52 C54 1.353 . S
C52 H58 0.930 . S
N53 Li3 1.990 . S
N53 C52 1.314 . S
N53 C56 1.279 . S
C54 C52 1.353 . S
C54 C57 1.348 . S
C54 H86 0.929 . S
C55 C56 1.358 . S
C55 C57 1.356 . S
C55 H87 0.930 . S
C56 N53 1.279 . S
C56 C55 1.358 . S
C56 H59 0.930 . S
C57 C54 1.348 . S
C57 C55 1.356 . S
H58 C52 0.930 . S
H59 C56 0.930 . S
O60 Li0 1.956 . S
O60 Li1 1.970 . S
O60 Li2 1.961 . S
O60 C4 1.325 . S
O61 Li0 1.970 . S
O61 Li1 1.956 . S
O61 Li3 1.961 . S
O61 C10 1.325 . S
O62 Li0 1.961 . S
O62 Li2 1.956 . S
O62 Li3 1.970 . S
O62 C32 1.325 . S
O63 Li1 1.961 . S
O63 Li2 1.970 . S
O63 Li3 1.956 . S
O63 C38 1.325 . S
H64 C6 0.929 . S
H65 C7 0.930 . S
H66 C8 0.930 . S
H67 C9 0.930 . S
H68 C11 0.930 . S
H69 C13 0.929 . S
H70 C14 0.930 . S
H71 C15 0.930 . S
H72 C18 0.930 . S
H73 C21 0.929 . S
H74 C26 0.929 . S
H75 C27 0.930 . S
H76 C34 0.929 . S
H77 C35 0.930 . S
H78 C36 0.930 . S
H79 C37 0.930 . S
H80 C39 0.929 . S
H81 C40 0.930 . S
H82 C41 0.930 . S
H83 C42 0.930 . S
H84 C46 0.929 . S
H85 C48 0.930 . S
H86 C54 0.929 . S
H87 C55 0.930 . S
Li88 N105 1.990 . S
Li88 O148 1.956 . S
Li88 O149 1.970 . S
Li88 O150 1.961 . S
Li89 N113 1.990 . S
Li89 O148 1.970 . S
Li89 O149 1.956 . S
Li89 O151 1.961 . S
Li90 N135 1.990 . S
Li90 O148 1.961 . S
Li90 O150 1.956 . S
Li90 O151 1.970 . S
Li91 N141 1.990 . S
Li91 O149 1.961 . S
Li91 O150 1.970 . S
Li91 O151 1.956 . S
C92 C94 1.348 . S
C92 C95 1.356 . S
C92 O148 1.325 . S
N93 C96 1.314 . S
N93 C97 1.279 . S
C94 C92 1.348 . S
C94 C96 1.353 . S
C94 H152 0.929 . S
C95 C92 1.356 . S
C95 C97 1.358 . S
C95 H153 0.930 . S
C96 N93 1.314 . S
C96 C94 1.353 . S
C96 H154 0.930 . S
C97 N93 1.279 . S
C97 C95 1.358 . S
C97 H155 0.930 . S
C98 C101 1.348 . S
C98 C102 1.356 . S
C98 O149 1.325 . S
C99 N100 1.279 . S
C99 C102 1.358 . S
C99 H156 0.930 . S
N100 C99 1.279 . S
N100 C103 1.314 . S
C101 C98 1.348 . S
C101 C103 1.353 . S
C101 H157 0.929 . S
C102 C98 1.356 . S
C102 C99 1.358 . S
C102 H158 0.930 . S
C103 N100 1.314 . S
C103 C101 1.353 . S
C103 H159 0.930 . S
C104 N105 1.314 . S
C104 C109 1.353 . S
C104 H110 0.930 . S
N105 Li88 1.990 . S
N105 C104 1.314 . S
N105 C107 1.279 . S
C106 C107 1.358 . S
C106 C108 1.356 . S
C106 H160 0.930 . S
C107 N105 1.279 . S
C107 C106 1.358 . S
C107 H111 0.930 . S
C108 C106 1.356 . S
C108 C109 1.348 . S
C109 C104 1.353 . S
C109 C108 1.348 . S
C109 H161 0.929 . S
H110 C104 0.930 . S
H111 C107 0.930 . S
C112 N113 1.314 . S
C112 C114 1.353 . S
C112 H118 0.930 . S
N113 Li89 1.990 . S
N113 C112 1.314 . S
N113 C116 1.279 . S
C114 C112 1.353 . S
C114 C117 1.348 . S
C114 H162 0.929 . S
C115 C116 1.358 . S
C115 C117 1.356 . S
C115 H163 0.930 . S
C116 N113 1.279 . S
C116 C115 1.358 . S
C116 H119 0.930 . S
C117 C114 1.348 . S
C117 C115 1.356 . S
H118 C112 0.930 . S
H119 C116 0.930 . S
C120 C122 1.348 . S
C120 C123 1.356 . S
C120 O150 1.325 . S
N121 C124 1.314 . S
N121 C125 1.279 . S
C122 C120 1.348 . S
C122 C124 1.353 . S
C122 H164 0.929 . S
C123 C120 1.356 . S
C123 C125 1.358 . S
C123 H165 0.930 . S
C124 N121 1.314 . S
C124 C122 1.353 . S
C124 H166 0.930 . S
C125 N121 1.279 . S
C125 C123 1.358 . S
C125 H167 0.930 . S
C126 C127 1.348 . S
C126 C128 1.356 . S
C126 O151 1.325 . S
C127 C126 1.348 . S
C127 C129 1.353 . S
C127 H168 0.929 . S
C128 C126 1.356 . S
C128 C130 1.358 . S
C128 H169 0.930 . S
C129 C127 1.353 . S
C129 N131 1.314 . S
C129 H170 0.930 . S
C130 C128 1.358 . S
C130 N131 1.279 . S
C130 H171 0.930 . S
N131 C129 1.314 . S
N131 C130 1.279 . S
C132 C134 1.353 . S
C132 N135 1.314 . S
C132 H138 0.930 . S
C133 N135 1.279 . S
C133 C136 1.358 . S
C133 H139 0.930 . S
C134 C132 1.353 . S
C134 C137 1.348 . S
C134 H172 0.929 . S
N135 Li90 1.990 . S
N135 C132 1.314 . S
N135 C133 1.279 . S
C136 C133 1.358 . S
C136 C137 1.356 . S
C136 H173 0.930 . S
C137 C134 1.348 . S
C137 C136 1.356 . S
H138 C132 0.930 . S
H139 C133 0.930 . S
C140 N141 1.314 . S
C140 C142 1.353 . S
C140 H146 0.930 . S
N141 Li91 1.990 . S
N141 C140 1.314 . S
N141 C144 1.279 . S
C142 C140 1.353 . S
C142 C145 1.348 . S
C142 H174 0.929 . S
C143 C144 1.358 . S
C143 C145 1.356 . S
C143 H175 0.930 . S
C144 N141 1.279 . S
C144 C143 1.358 . S
C144 H147 0.930 . S
C145 C142 1.348 . S
C145 C143 1.356 . S
H146 C140 0.930 . S
H147 C144 0.930 . S
O148 Li88 1.956 . S
O148 Li89 1.970 . S
O148 Li90 1.961 . S
O148 C92 1.325 . S
O149 Li88 1.970 . S
O149 Li89 1.956 . S
O149 Li91 1.961 . S
O149 C98 1.325 . S
O150 Li88 1.961 . S
O150 Li90 1.956 . S
O150 Li91 1.970 . S
O150 C120 1.325 . S
O151 Li89 1.961 . S
O151 Li90 1.970 . S
O151 Li91 1.956 . S
O151 C126 1.325 . S
H152 C94 0.929 . S
H153 C95 0.930 . S
H154 C96 0.930 . S
H155 C97 0.930 . S
H156 C99 0.930 . S
H157 C101 0.929 . S
H158 C102 0.930 . S
H159 C103 0.930 . S
H160 C106 0.930 . S
H161 C109 0.929 . S
H162 C114 0.929 . S
H163 C115 0.930 . S
H164 C122 0.929 . S
H165 C123 0.930 . S
H166 C124 0.930 . S
H167 C125 0.930 . S
H168 C127 0.929 . S
H169 C128 0.930 . S
H170 C129 0.930 . S
H171 C130 0.930 . S
H172 C134 0.929 . S
H173 C136 0.930 . S
H174 C142 0.929 . S
H175 C143 0.930 . S
Li176 N193 1.990 . S
Li176 O236 1.956 . S
Li176 O237 1.970 . S
Li176 O238 1.961 . S
Li177 N201 1.990 . S
Li177 O236 1.970 . S
Li177 O237 1.956 . S
Li177 O239 1.961 . S
Li178 N223 1.990 . S
Li178 O236 1.961 . S
Li178 O238 1.956 . S
Li178 O239 1.970 . S
Li179 N229 1.990 . S
Li179 O237 1.961 . S
Li179 O238 1.970 . S
Li179 O239 1.956 . S
C180 C182 1.348 . S
C180 C183 1.356 . S
C180 O236 1.325 . S
N181 C184 1.314 . S
N181 C185 1.279 . S
C182 C180 1.348 . S
C182 C184 1.353 . S
C182 H240 0.929 . S
C183 C180 1.356 . S
C183 C185 1.358 . S
C183 H241 0.930 . S
C184 N181 1.314 . S
C184 C182 1.353 . S
C184 H242 0.930 . S
C185 N181 1.279 . S
C185 C183 1.358 . S
C185 H243 0.930 . S
C186 C189 1.348 . S
C186 C190 1.356 . S
C186 O237 1.325 . S
C187 N188 1.279 . S
C187 C190 1.358 . S
C187 H244 0.930 . S
N188 C187 1.279 . S
N188 C191 1.314 . S
C189 C186 1.348 . S
C189 C191 1.353 . S
C189 H245 0.929 . S
C190 C186 1.356 . S
C190 C187 1.358 . S
C190 H246 0.930 . S
C191 N188 1.314 . S
C191 C189 1.353 . S
C191 H247 0.930 . S
C192 N193 1.314 . S
C192 C197 1.353 . S
C192 H198 0.930 . S
N193 Li176 1.990 . S
N193 C192 1.314 . S
N193 C195 1.279 . S
C194 C195 1.358 . S
C194 C196 1.356 . S
C194 H248 0.930 . S
C195 N193 1.279 . S
C195 C194 1.358 . S
C195 H199 0.930 . S
C196 C194 1.356 . S
C196 C197 1.348 . S
C197 C192 1.353 . S
C197 C196 1.348 . S
C197 H249 0.929 . S
H198 C192 0.930 . S
H199 C195 0.930 . S
C200 N201 1.314 . S
C200 C202 1.353 . S
C200 H206 0.930 . S
N201 Li177 1.990 . S
N201 C200 1.314 . S
N201 C204 1.279 . S
C202 C200 1.353 . S
C202 C205 1.348 . S
C202 H250 0.929 . S
C203 C204 1.358 . S
C203 C205 1.356 . S
C203 H251 0.930 . S
C204 N201 1.279 . S
C204 C203 1.358 . S
C204 H207 0.930 . S
C205 C202 1.348 . S
C205 C203 1.356 . S
H206 C200 0.930 . S
H207 C204 0.930 . S
C208 C210 1.348 . S
C208 C211 1.356 . S
C208 O238 1.325 . S
N209 C212 1.314 . S
N209 C213 1.279 . S
C210 C208 1.348 . S
C210 C212 1.353 . S
C210 H252 0.929 . S
C211 C208 1.356 . S
C211 C213 1.358 . S
C211 H253 0.930 . S
C212 N209 1.314 . S
C212 C210 1.353 . S
C212 H254 0.930 . S
C213 N209 1.279 . S
C213 C211 1.358 . S
C213 H255 0.930 . S
C214 C215 1.348 . S
C214 C216 1.356 . S
C214 O239 1.325 . S
C215 C214 1.348 . S
C215 C217 1.353 . S
C215 H256 0.929 . S
C216 C214 1.356 . S
C216 C218 1.358 . S
C216 H257 0.930 . S
C217 C215 1.353 . S
C217 N219 1.314 . S
C217 H258 0.930 . S
C218 C216 1.358 . S
C218 N219 1.279 . S
C218 H259 0.930 . S
N219 C217 1.314 . S
N219 C218 1.279 . S
C220 C222 1.353 . S
C220 N223 1.314 . S
C220 H226 0.930 . S
C221 N223 1.279 . S
C221 C224 1.358 . S
C221 H227 0.930 . S
C222 C220 1.353 . S
C222 C225 1.348 . S
C222 H260 0.929 . S
N223 Li178 1.990 . S
N223 C220 1.314 . S
N223 C221 1.279 . S
C224 C221 1.358 . S
C224 C225 1.356 . S
C224 H261 0.930 . S
C225 C222 1.348 . S
C225 C224 1.356 . S
H226 C220 0.930 . S
H227 C221 0.930 . S
C228 N229 1.314 . S
C228 C230 1.353 . S
C228 H234 0.930 . S
N229 Li179 1.990 . S
N229 C228 1.314 . S
N229 C232 1.279 . S
C230 C228 1.353 . S
C230 C233 1.348 . S
C230 H262 0.929 . S
C231 C232 1.358 . S
C231 C233 1.356 . S
C231 H263 0.930 . S
C232 N229 1.279 . S
C232 C231 1.358 . S
C232 H235 0.930 . S
C233 C230 1.348 . S
C233 C231 1.356 . S
H234 C228 0.930 . S
H235 C232 0.930 . S
O236 Li176 1.956 . S
O236 Li177 1.970 . S
O236 Li178 1.961 . S
O236 C180 1.325 . S
O237 Li176 1.970 . S
O237 Li177 1.956 . S
O237 Li179 1.961 . S
O237 C186 1.325 . S
O238 Li176 1.961 . S
O238 Li178 1.956 . S
O238 Li179 1.970 . S
O238 C208 1.325 . S
O239 Li177 1.961 . S
O239 Li178 1.970 . S
O239 Li179 1.956 . S
O239 C214 1.325 . S
H240 C182 0.929 . S
H241 C183 0.930 . S
H242 C184 0.930 . S
H243 C185 0.930 . S
H244 C187 0.930 . S
H245 C189 0.929 . S
H246 C190 0.930 . S
H247 C191 0.930 . S
H248 C194 0.930 . S
H249 C197 0.929 . S
H250 C202 0.929 . S
H251 C203 0.930 . S
H252 C210 0.929 . S
H253 C211 0.930 . S
H254 C212 0.930 . S
H255 C213 0.930 . S
H256 C215 0.929 . S
H257 C216 0.930 . S
H258 C217 0.930 . S
H259 C218 0.930 . S
H260 C222 0.929 . S
H261 C224 0.930 . S
H262 C230 0.929 . S
H263 C231 0.930 . S
Li264 N281 1.990 . S
Li264 O324 1.956 . S
Li264 O325 1.970 . S
Li264 O326 1.961 1_554 S
Li265 N289 1.990 . S
Li265 O324 1.970 . S
Li265 O325 1.956 . S
Li265 O327 1.961 . S
Li266 N311 1.990 . S
Li266 O324 1.961 . S
Li266 O326 1.956 1_554 S
Li266 O327 1.970 . S
Li267 N317 1.990 . S
Li267 O325 1.961 1_556 S
Li267 O326 1.970 . S
Li267 O327 1.956 1_556 S
C268 C270 1.348 . S
C268 C271 1.356 . S
C268 O324 1.325 . S
N269 C272 1.314 . S
N269 C273 1.279 . S
C270 C268 1.348 . S
C270 C272 1.353 . S
C270 H328 0.929 . S
C271 C268 1.356 . S
C271 C273 1.358 . S
C271 H329 0.930 . S
C272 N269 1.314 . S
C272 C270 1.353 . S
C272 H330 0.930 . S
C273 N269 1.279 . S
C273 C271 1.358 . S
C273 H331 0.930 . S
C274 C277 1.348 . S
C274 C278 1.356 . S
C274 O325 1.325 . S
C275 N276 1.279 . S
C275 C278 1.358 . S
C275 H332 0.930 1_554 S
N276 C275 1.279 . S
N276 C279 1.314 . S
C277 C274 1.348 . S
C277 C279 1.353 . S
C277 H333 0.929 . S
C278 C274 1.356 . S
C278 C275 1.358 . S
C278 H334 0.930 . S
C279 N276 1.314 . S
C279 C277 1.353 . S
C279 H335 0.930 . S
C280 N281 1.314 1_556 S
C280 C285 1.353 . S
C280 H286 0.930 . S
N281 Li264 1.990 . S
N281 C280 1.314 1_554 S
N281 C283 1.279 . S
C282 C283 1.358 . S
C282 C284 1.356 . S
C282 H336 0.930 . S
C283 N281 1.279 . S
C283 C282 1.358 . S
C283 H287 0.930 . S
C284 C282 1.356 . S
C284 C285 1.348 1_554 S
C285 C280 1.353 . S
C285 C284 1.348 1_556 S
C285 H337 0.929 . S
H286 C280 0.930 . S
H287 C283 0.930 . S
C288 N289 1.314 . S
C288 C290 1.353 . S
C288 H294 0.930 . S
N289 Li265 1.990 . S
N289 C288 1.314 . S
N289 C292 1.279 . S
C290 C288 1.353 . S
C290 C293 1.348 . S
C290 H338 0.929 . S
C291 C292 1.358 . S
C291 C293 1.356 . S
C291 H339 0.930 . S
C292 N289 1.279 . S
C292 C291 1.358 . S
C292 H295 0.930 . S
C293 C290 1.348 . S
C293 C291 1.356 . S
H294 C288 0.930 . S
H295 C292 0.930 . S
C296 C298 1.348 . S
C296 C299 1.356 . S
C296 O326 1.325 . S
N297 C300 1.314 . S
N297 C301 1.279 . S
C298 C296 1.348 . S
C298 C300 1.353 . S
C298 H340 0.929 . S
C299 C296 1.356 . S
C299 C301 1.358 . S
C299 H341 0.930 . S
C300 N297 1.314 . S
C300 C298 1.353 . S
C300 H342 0.930 . S
C301 N297 1.279 . S
C301 C299 1.358 . S
C301 H343 0.930 . S
C302 C303 1.348 . S
C302 C304 1.356 . S
C302 O327 1.325 . S
C303 C302 1.348 . S
C303 C305 1.353 . S
C303 H344 0.929 . S
C304 C302 1.356 . S
C304 C306 1.358 . S
C304 H345 0.930 . S
C305 C303 1.353 . S
C305 N307 1.314 . S
C305 H346 0.930 . S
C306 C304 1.358 . S
C306 N307 1.279 . S
C306 H347 0.930 . S
N307 C305 1.314 . S
N307 C306 1.279 . S
C308 C310 1.353 . S
C308 N311 1.314 . S
C308 H314 0.930 . S
C309 N311 1.279 . S
C309 C312 1.358 . S
C309 H315 0.930 1_554 S
C310 C308 1.353 . S
C310 C313 1.348 . S
C310 H348 0.929 . S
N311 Li266 1.990 . S
N311 C308 1.314 . S
N311 C309 1.279 . S
C312 C309 1.358 . S
C312 C313 1.356 . S
C312 H349 0.951 . S
C313 C310 1.348 . S
C313 C312 1.356 . S
H314 C308 0.930 . S
H315 C309 0.930 1_556 S
C316 N317 1.314 . S
C316 C318 1.353 . S
C316 H322 0.930 . S
N317 Li267 1.990 . S
N317 C316 1.314 . S
N317 C320 1.279 . S
C318 C316 1.353 . S
C318 C321 1.348 . S
C318 H350 0.929 . S
C319 C320 1.358 . S
C319 C321 1.356 . S
C319 H351 0.930 . S
C320 N317 1.279 . S
C320 C319 1.358 . S
C320 H323 0.930 . S
C321 C318 1.348 . S
C321 C319 1.356 . S
H322 C316 0.930 . S
H323 C320 0.930 . S
O324 Li264 1.956 . S
O324 Li265 1.970 . S
O324 Li266 1.961 . S
O324 C268 1.325 . S
O325 Li264 1.970 . S
O325 Li265 1.956 . S
O325 Li267 1.961 1_554 S
O325 C274 1.325 . S
O326 Li264 1.961 1_556 S
O326 Li266 1.956 1_556 S
O326 Li267 1.970 . S
O326 C296 1.325 . S
O327 Li265 1.961 . S
O327 Li266 1.970 . S
O327 Li267 1.956 1_554 S
O327 C302 1.325 . S
H328 C270 0.929 . S
H329 C271 0.930 . S
H330 C272 0.930 . S
H331 C273 0.930 . S
H332 C275 0.930 1_556 S
H333 C277 0.929 . S
H334 C278 0.930 . S
H335 C279 0.930 . S
H336 C282 0.930 . S
H337 C285 0.929 . S
H338 C290 0.929 . S
H339 C291 0.930 . S
H340 C298 0.929 . S
H341 C299 0.930 . S
H342 C300 0.930 . S
H343 C301 0.930 . S
H344 C303 0.929 . S
H345 C304 0.930 . S
H346 C305 0.930 . S
H347 C306 0.930 . S
H348 C310 0.929 . S
H349 C312 0.951 . S
H350 C318 0.929 . S
H351 C319 0.930 . S
Li352 N369 1.990 . S
Li352 O412 1.956 . S
Li352 O413 1.970 . S
Li352 O414 1.961 . S
Li353 N377 1.990 . S
Li353 O412 1.970 . S
Li353 O413 1.956 . S
Li353 O415 1.961 . S
Li354 N399 1.990 . S
Li354 O412 1.961 . S
Li354 O414 1.956 . S
Li354 O415 1.970 . S
Li355 N405 1.990 . S
Li355 O413 1.961 . S
Li355 O414 1.970 . S
Li355 O415 1.956 . S
C356 C358 1.348 . S
C356 C359 1.356 . S
C356 O412 1.325 . S
N357 C360 1.314 . S
N357 C361 1.279 . S
C358 C356 1.348 . S
C358 C360 1.353 . S
C358 H416 0.929 . S
C359 C356 1.356 . S
C359 C361 1.358 . S
C359 H417 0.930 . S
C360 N357 1.314 . S
C360 C358 1.353 . S
C360 H418 0.930 . S
C361 N357 1.279 . S
C361 C359 1.358 . S
C361 H419 0.930 . S
C362 C365 1.348 . S
C362 C366 1.356 . S
C362 O413 1.325 . S
C363 N364 1.279 . S
C363 C366 1.358 . S
C363 H420 0.930 . S
N364 C363 1.279 . S
N364 C367 1.314 . S
C365 C362 1.348 . S
C365 C367 1.353 . S
C365 H421 0.929 . S
C366 C362 1.356 . S
C366 C363 1.358 . S
C366 H422 0.930 . S
C367 N364 1.314 . S
C367 C365 1.353 . S
C367 H423 0.930 . S
C368 N369 1.314 . S
C368 C373 1.353 . S
C368 H374 0.930 . S
N369 Li352 1.990 . S
N369 C368 1.314 . S
N369 C371 1.279 . S
C370 C371 1.358 . S
C370 C372 1.356 . S
C370 H424 0.930 . S
C371 N369 1.279 . S
C371 C370 1.358 . S
C371 H375 0.930 . S
C372 C370 1.356 . S
C372 C373 1.348 . S
C373 C368 1.353 . S
C373 C372 1.348 . S
C373 H425 0.929 . S
H374 C368 0.930 . S
H375 C371 0.930 . S
C376 N377 1.314 . S
C376 C378 1.353 . S
C376 H382 0.930 . S
N377 Li353 1.990 . S
N377 C376 1.314 . S
N377 C380 1.279 . S
C378 C376 1.353 . S
C378 C381 1.348 . S
C378 H426 0.929 . S
C379 C380 1.358 . S
C379 C381 1.356 . S
C379 H427 0.930 . S
C380 N377 1.279 . S
C380 C379 1.358 . S
C380 H383 0.930 . S
C381 C378 1.348 . S
C381 C379 1.356 . S
H382 C376 0.930 . S
H383 C380 0.930 . S
C384 C386 1.348 . S
C384 C387 1.356 . S
C384 O414 1.325 . S
N385 C388 1.314 . S
N385 C389 1.279 . S
C386 C384 1.348 . S
C386 C388 1.353 . S
C386 H428 0.929 . S
C387 C384 1.356 . S
C387 C389 1.358 . S
C387 H429 0.930 . S
C388 N385 1.314 . S
C388 C386 1.353 . S
C388 H430 0.930 . S
C389 N385 1.279 . S
C389 C387 1.358 . S
C389 H431 0.930 . S
C390 C391 1.348 . S
C390 C392 1.356 . S
C390 O415 1.325 . S
C391 C390 1.348 . S
C391 C393 1.353 . S
C391 H432 0.929 . S
C392 C390 1.356 . S
C392 C394 1.358 . S
C392 H433 0.930 . S
C393 C391 1.353 . S
C393 N395 1.314 . S
C393 H434 0.930 . S
C394 C392 1.358 . S
C394 N395 1.279 . S
C394 H435 0.930 . S
N395 C393 1.314 . S
N395 C394 1.279 . S
C396 C398 1.353 . S
C396 N399 1.314 . S
C396 H402 0.930 . S
C397 N399 1.279 . S
C397 C400 1.358 . S
C397 H403 0.930 . S
C398 C396 1.353 . S
C398 C401 1.348 . S
C398 H436 0.929 . S
N399 Li354 1.990 . S
N399 C396 1.314 . S
N399 C397 1.279 . S
C400 C397 1.358 . S
C400 C401 1.356 . S
C400 H437 0.930 . S
C401 C398 1.348 . S
C401 C400 1.356 . S
H402 C396 0.930 . S
H403 C397 0.930 . S
C404 N405 1.314 . S
C404 C406 1.353 . S
C404 H410 0.930 . S
N405 Li355 1.990 . S
N405 C404 1.314 . S
N405 C408 1.279 . S
C406 C404 1.353 . S
C406 C409 1.348 . S
C406 H438 0.929 . S
C407 C408 1.358 . S
C407 C409 1.356 . S
C407 H439 0.930 . S
C408 N405 1.279 . S
C408 C407 1.358 . S
C408 H411 0.930 . S
C409 C406 1.348 . S
C409 C407 1.356 . S
H410 C404 0.930 . S
H411 C408 0.930 . S
O412 Li352 1.956 . S
O412 Li353 1.970 . S
O412 Li354 1.961 . S
O412 C356 1.325 . S
O413 Li352 1.970 . S
O413 Li353 1.956 . S
O413 Li355 1.961 . S
O413 C362 1.325 . S
O414 Li352 1.961 . S
O414 Li354 1.956 . S
O414 Li355 1.970 . S
O414 C384 1.325 . S
O415 Li353 1.961 . S
O415 Li354 1.970 . S
O415 Li355 1.956 . S
O415 C390 1.325 . S
H416 C358 0.929 . S
H417 C359 0.930 . S
H418 C360 0.930 . S
H419 C361 0.930 . S
H420 C363 0.930 . S
H421 C365 0.929 . S
H422 C366 0.930 . S
H423 C367 0.930 . S
H424 C370 0.930 . S
H425 C373 0.929 . S
H426 C378 0.929 . S
H427 C379 0.930 . S
H428 C386 0.929 . S
H429 C387 0.930 . S
H430 C388 0.930 . S
H431 C389 0.930 . S
H432 C391 0.929 . S
H433 C392 0.930 . S
H434 C393 0.930 . S
H435 C394 0.930 . S
H436 C398 0.929 . S
H437 C400 0.930 . S
H438 C406 0.929 . S
H439 C407 0.930 . S
Li440 N457 1.990 . S
Li440 O500 1.956 . S
Li440 O501 1.970 . S
Li440 O502 1.961 . S
Li441 N465 1.990 . S
Li441 O500 1.970 . S
Li441 O501 1.956 . S
Li441 O503 1.961 . S
Li442 N487 1.990 . S
Li442 O500 1.961 . S
Li442 O502 1.956 . S
Li442 O503 1.970 . S
Li443 N493 1.990 . S
Li443 O501 1.961 . S
Li443 O502 1.970 . S
Li443 O503 1.956 . S
C444 C446 1.348 . S
C444 C447 1.356 . S
C444 O500 1.325 . S
N445 C448 1.314 . S
N445 C449 1.279 . S
C446 C444 1.348 . S
C446 C448 1.353 . S
C446 H504 0.929 . S
C447 C444 1.356 . S
C447 C449 1.358 . S
C447 H505 0.930 . S
C448 N445 1.314 . S
C448 C446 1.353 . S
C448 H506 0.930 . S
C449 N445 1.279 . S
C449 C447 1.358 . S
C449 H507 0.930 . S
C450 C453 1.348 . S
C450 C454 1.356 . S
C450 O501 1.325 . S
C451 N452 1.279 . S
C451 C454 1.358 . S
C451 H508 0.930 . S
N452 C451 1.279 . S
N452 C455 1.314 . S
C453 C450 1.348 . S
C453 C455 1.353 . S
C453 H509 0.929 . S
C454 C450 1.356 . S
C454 C451 1.358 . S
C454 H510 0.930 . S
C455 N452 1.314 . S
C455 C453 1.353 . S
C455 H511 0.930 . S
C456 N457 1.314 . S
C456 C461 1.353 . S
C456 H462 0.930 . S
N457 Li440 1.990 . S
N457 C456 1.314 . S
N457 C459 1.279 . S
C458 C459 1.358 . S
C458 C460 1.356 . S
C458 H512 0.930 . S
C459 N457 1.279 . S
C459 C458 1.358 . S
C459 H463 0.930 . S
C460 C458 1.356 . S
C460 C461 1.348 . S
C461 C456 1.353 . S
C461 C460 1.348 . S
C461 H513 0.929 . S
H462 C456 0.930 . S
H463 C459 0.930 . S
C464 N465 1.314 . S
C464 C466 1.353 . S
C464 H470 0.930 . S
N465 Li441 1.990 . S
N465 C464 1.314 . S
N465 C468 1.279 . S
C466 C464 1.353 . S
C466 C469 1.348 . S
C466 H514 0.929 . S
C467 C468 1.358 . S
C467 C469 1.356 . S
C467 H515 0.930 . S
C468 N465 1.279 . S
C468 C467 1.358 . S
C468 H471 0.930 . S
C469 C466 1.348 . S
C469 C467 1.356 . S
H470 C464 0.930 . S
H471 C468 0.930 . S
C472 C474 1.348 . S
C472 C475 1.356 . S
C472 O502 1.325 . S
N473 C476 1.314 . S
N473 C477 1.279 . S
C474 C472 1.348 . S
C474 C476 1.353 . S
C474 H516 0.929 . S
C475 C472 1.356 . S
C475 C477 1.358 . S
C475 H517 0.930 . S
C476 N473 1.314 . S
C476 C474 1.353 . S
C476 H518 0.930 . S
C477 N473 1.279 . S
C477 C475 1.358 . S
C477 H519 0.930 . S
C478 C479 1.348 . S
C478 C480 1.356 . S
C478 O503 1.325 . S
C479 C478 1.348 . S
C479 C481 1.353 . S
C479 H520 0.929 . S
C480 C478 1.356 . S
C480 C482 1.358 . S
C480 H521 0.930 . S
C481 C479 1.353 . S
C481 N483 1.314 . S
C481 H522 0.930 . S
C482 C480 1.358 . S
C482 N483 1.279 . S
C482 H523 0.930 . S
N483 C481 1.314 . S
N483 C482 1.279 . S
C484 C486 1.353 . S
C484 N487 1.314 . S
C484 H490 0.930 . S
C485 N487 1.279 . S
C485 C488 1.358 . S
C485 H491 0.930 . S
C486 C484 1.353 . S
C486 C489 1.348 . S
C486 H524 0.929 . S
N487 Li442 1.990 . S
N487 C484 1.314 . S
N487 C485 1.279 . S
C488 C485 1.358 . S
C488 C489 1.356 . S
C488 H525 0.930 . S
C489 C486 1.348 . S
C489 C488 1.356 . S
H490 C484 0.930 . S
H491 C485 0.930 . S
C492 N493 1.314 . S
C492 C494 1.353 . S
C492 H498 0.930 . S
N493 Li443 1.990 . S
N493 C492 1.314 . S
N493 C496 1.279 . S
C494 C492 1.353 . S
C494 C497 1.348 . S
C494 H526 0.929 . S
C495 C496 1.358 . S
C495 C497 1.356 . S
C495 H527 0.930 . S
C496 N493 1.279 . S
C496 C495 1.358 . S
C496 H499 0.930 . S
C497 C494 1.348 . S
C497 C495 1.356 . S
H498 C492 0.930 . S
H499 C496 0.930 . S
O500 Li440 1.956 . S
O500 Li441 1.970 . S
O500 Li442 1.961 . S
O500 C444 1.325 . S
O501 Li440 1.970 . S
O501 Li441 1.956 . S
O501 Li443 1.961 . S
O501 C450 1.325 . S
O502 Li440 1.961 . S
O502 Li442 1.956 . S
O502 Li443 1.970 . S
O502 C472 1.325 . S
O503 Li441 1.961 . S
O503 Li442 1.970 . S
O503 Li443 1.956 . S
O503 C478 1.325 . S
H504 C446 0.929 . S
H505 C447 0.930 . S
H506 C448 0.930 . S
H507 C449 0.930 . S
H508 C451 0.930 . S
H509 C453 0.929 . S
H510 C454 0.930 . S
H511 C455 0.930 . S
H512 C458 0.930 . S
H513 C461 0.929 . S
H514 C466 0.929 . S
H515 C467 0.930 . S
H516 C474 0.929 . S
H517 C475 0.930 . S
H518 C476 0.930 . S
H519 C477 0.930 . S
H520 C479 0.929 . S
H521 C480 0.930 . S
H522 C481 0.930 . S
H523 C482 0.930 . S
H524 C486 0.929 . S
H525 C488 0.930 . S
H526 C494 0.929 . S
H527 C495 0.930 . S
Li528 N545 1.990 . S
Li528 O588 1.956 . S
Li528 O589 1.970 . S
Li528 O590 1.961 . S
Li529 N553 1.990 . S
Li529 O588 1.970 . S
Li529 O589 1.956 . S
Li529 O591 1.961 . S
Li530 N575 1.990 . S
Li530 O588 1.961 . S
Li530 O590 1.956 . S
Li530 O591 1.970 . S
Li531 N581 1.990 . S
Li531 O589 1.961 . S
Li531 O590 1.970 . S
Li531 O591 1.956 . S
C532 C534 1.348 . S
C532 C535 1.356 . S
C532 O588 1.325 . S
N533 C536 1.314 . S
N533 C537 1.279 . S
C534 C532 1.348 . S
C534 C536 1.353 . S
C534 H592 0.929 . S
C535 C532 1.356 . S
C535 C537 1.358 . S
C535 H593 0.930 . S
C536 N533 1.314 . S
C536 C534 1.353 . S
C536 H594 0.930 . S
C537 N533 1.279 . S
C537 C535 1.358 . S
C537 H595 0.930 . S
C538 C541 1.348 . S
C538 C542 1.356 . S
C538 O589 1.325 . S
C539 N540 1.279 . S
C539 C542 1.358 . S
C539 H596 0.930 . S
N540 C539 1.279 . S
N540 C543 1.314 . S
C541 C538 1.348 . S
C541 C543 1.353 . S
C541 H597 0.929 . S
C542 C538 1.356 . S
C542 C539 1.358 . S
C542 H598 0.930 . S
C543 N540 1.314 . S
C543 C541 1.353 . S
C543 H599 0.930 . S
C544 N545 1.314 . S
C544 C549 1.353 . S
C544 H550 0.930 . S
N545 Li528 1.990 . S
N545 C544 1.314 . S
N545 C547 1.279 . S
C546 C547 1.358 . S
C546 C548 1.356 . S
C546 H600 0.930 . S
C547 N545 1.279 . S
C547 C546 1.358 . S
C547 H551 0.930 . S
C548 C546 1.356 . S
C548 C549 1.348 . S
C549 C544 1.353 . S
C549 C548 1.348 . S
C549 H601 0.929 . S
H550 C544 0.930 . S
H551 C547 0.930 . S
C552 N553 1.314 . S
C552 C554 1.353 . S
C552 H558 0.930 . S
N553 Li529 1.990 . S
N553 C552 1.314 . S
N553 C556 1.279 . S
C554 C552 1.353 . S
C554 C557 1.348 . S
C554 H602 0.929 . S
C555 C556 1.358 . S
C555 C557 1.356 . S
C555 H603 0.930 . S
C556 N553 1.279 . S
C556 C555 1.358 . S
C556 H559 0.930 . S
C557 C554 1.348 . S
C557 C555 1.356 . S
H558 C552 0.930 . S
H559 C556 0.930 . S
C560 C562 1.348 . S
C560 C563 1.356 . S
C560 O590 1.325 . S
N561 C564 1.314 . S
N561 C565 1.279 . S
C562 C560 1.348 . S
C562 C564 1.353 . S
C562 H604 0.929 . S
C563 C560 1.356 . S
C563 C565 1.358 . S
C563 H605 0.930 . S
C564 N561 1.314 . S
C564 C562 1.353 . S
C564 H606 0.930 . S
C565 N561 1.279 . S
C565 C563 1.358 . S
C565 H607 0.930 . S
C566 C567 1.348 . S
C566 C568 1.356 . S
C566 O591 1.325 . S
C567 C566 1.348 . S
C567 C569 1.353 . S
C567 H608 0.929 . S
C568 C566 1.356 . S
C568 C570 1.358 . S
C568 H609 0.930 . S
C569 C567 1.353 . S
C569 N571 1.314 . S
C569 H610 0.930 . S
C570 C568 1.358 . S
C570 N571 1.279 . S
C570 H611 0.930 . S
N571 C569 1.314 . S
N571 C570 1.279 . S
C572 C574 1.353 . S
C572 N575 1.314 . S
C572 H578 0.930 . S
C573 N575 1.279 . S
C573 C576 1.358 . S
C573 H579 0.930 . S
C574 C572 1.353 . S
C574 C577 1.348 . S
C574 H612 0.929 . S
N575 Li530 1.990 . S
N575 C572 1.314 . S
N575 C573 1.279 . S
C576 C573 1.358 . S
C576 C577 1.356 . S
C576 H613 0.930 . S
C577 C574 1.348 . S
C577 C576 1.356 . S
H578 C572 0.930 . S
H579 C573 0.930 . S
C580 N581 1.314 . S
C580 C582 1.353 . S
C580 H586 0.930 . S
N581 Li531 1.990 . S
N581 C580 1.314 . S
N581 C584 1.279 . S
C582 C580 1.353 . S
C582 C585 1.348 . S
C582 H614 0.929 . S
C583 C584 1.358 . S
C583 C585 1.356 . S
C583 H615 0.930 . S
C584 N581 1.279 . S
C584 C583 1.358 . S
C584 H587 0.930 . S
C585 C582 1.348 . S
C585 C583 1.356 . S
H586 C580 0.930 . S
H587 C584 0.930 . S
O588 Li528 1.956 . S
O588 Li529 1.970 . S
O588 Li530 1.961 . S
O588 C532 1.325 . S
O589 Li528 1.970 . S
O589 Li529 1.956 . S
O589 Li531 1.961 . S
O589 C538 1.325 . S
O590 Li528 1.961 . S
O590 Li530 1.956 . S
O590 Li531 1.970 . S
O590 C560 1.325 . S
O591 Li529 1.961 . S
O591 Li530 1.970 . S
O591 Li531 1.956 . S
O591 C566 1.325 . S
H592 C534 0.929 . S
H593 C535 0.930 . S
H594 C536 0.930 . S
H595 C537 0.930 . S
H596 C539 0.930 . S
H597 C541 0.929 . S
H598 C542 0.930 . S
H599 C543 0.930 . S
H600 C546 0.930 . S
H601 C549 0.929 . S
H602 C554 0.929 . S
H603 C555 0.930 . S
H604 C562 0.929 . S
H605 C563 0.930 . S
H606 C564 0.930 . S
H607 C565 0.930 . S
H608 C567 0.929 . S
H609 C568 0.930 . S
H610 C569 0.930 . S
H611 C570 0.930 . S
H612 C574 0.929 . S
H613 C576 0.930 . S
H614 C582 0.929 . S
H615 C583 0.930 . S
Li616 N633 1.990 1_554 S
Li616 O676 1.956 . S
Li616 O677 1.970 . S
Li616 O678 1.961 1_554 S
Li617 N641 1.990 . S
Li617 O676 1.970 . S
Li617 O677 1.956 . S
Li617 O679 1.961 . S
Li618 N663 1.990 . S
Li618 O676 1.961 . S
Li618 O678 1.956 1_554 S
Li618 O679 1.970 . S
Li619 N669 1.990 . S
Li619 O677 1.961 1_556 S
Li619 O678 1.970 . S
Li619 O679 1.956 1_556 S
C620 C622 1.348 . S
C620 C623 1.356 . S
C620 O676 1.325 . S
N621 C624 1.314 . S
N621 C625 1.279 . S
C622 C620 1.348 . S
C622 C624 1.353 . S
C622 H680 0.929 . S
C623 C620 1.356 . S
C623 C625 1.358 . S
C623 H681 0.930 . S
C624 N621 1.314 . S
C624 C622 1.353 . S
C624 H682 0.930 . S
C625 N621 1.279 . S
C625 C623 1.358 . S
C625 H683 0.930 . S
C626 C629 1.348 . S
C626 C630 1.356 . S
C626 O677 1.325 . S
C627 N628 1.279 . S
C627 C630 1.358 . S
C627 H684 0.927 1_554 S
N628 C627 1.279 . S
N628 C631 1.314 . S
C629 C626 1.348 . S
C629 C631 1.353 . S
C629 H685 0.929 . S
C630 C626 1.356 . S
C630 C627 1.358 . S
C630 H686 0.930 . S
C631 N628 1.314 . S
C631 C629 1.353 . S
C631 H687 0.930 . S
C632 N633 1.314 . S
C632 C637 1.353 . S
C632 H638 0.930 . S
N633 Li616 1.990 1_556 S
N633 C632 1.314 . S
N633 C635 1.279 1_556 S
C634 C635 1.358 . S
C634 C636 1.356 1_554 S
C634 H688 0.930 . S
C635 N633 1.279 1_554 S
C635 C634 1.358 . S
C635 H639 0.930 . S
C636 C634 1.356 1_556 S
C636 C637 1.348 . S
C637 C632 1.353 . S
C637 C636 1.348 . S
C637 H689 0.929 . S
H638 C632 0.930 . S
H639 C635 0.930 . S
C640 N641 1.314 . S
C640 C642 1.353 . S
C640 H646 0.930 . S
N641 Li617 1.990 . S
N641 C640 1.314 . S
N641 C644 1.279 . S
C642 C640 1.353 . S
C642 C645 1.348 . S
C642 H690 0.929 . S
C643 C644 1.358 . S
C643 C645 1.356 . S
C643 H691 0.930 . S
C644 N641 1.279 . S
C644 C643 1.358 . S
C644 H647 0.930 . S
C645 C642 1.348 . S
C645 C643 1.356 . S
H646 C640 0.930 . S
H647 C644 0.930 . S
C648 C650 1.348 . S
C648 C651 1.356 . S
C648 O678 1.325 . S
N649 C652 1.314 . S
N649 C653 1.279 . S
C650 C648 1.348 . S
C650 C652 1.353 . S
C650 H692 0.929 . S
C651 C648 1.356 . S
C651 C653 1.358 . S
C651 H693 0.930 . S
C652 N649 1.314 . S
C652 C650 1.353 . S
C652 H694 0.930 . S
C653 N649 1.279 . S
C653 C651 1.358 . S
C653 H695 0.930 . S
C654 C655 1.348 . S
C654 C656 1.356 . S
C654 O679 1.325 . S
C655 C654 1.348 . S
C655 C657 1.353 . S
C655 H696 0.929 . S
C656 C654 1.356 . S
C656 C658 1.358 . S
C656 H697 0.930 . S
C657 C655 1.353 . S
C657 N659 1.314 . S
C657 H698 0.930 . S
C658 C656 1.358 . S
C658 N659 1.279 . S
C658 H699 0.930 . S
N659 C657 1.314 . S
N659 C658 1.279 . S
C660 C662 1.353 . S
C660 N663 1.314 . S
C660 H666 0.930 . S
C661 N663 1.279 1_556 S
C661 C664 1.358 . S
C661 H667 0.930 . S
C662 C660 1.353 . S
C662 C665 1.348 . S
C662 H700 0.929 . S
N663 Li618 1.990 . S
N663 C660 1.314 . S
N663 C661 1.279 1_554 S
C664 C661 1.358 . S
C664 C665 1.356 1_556 S
C664 H701 0.930 . S
C665 C662 1.348 . S
C665 C664 1.356 1_554 S
H666 C660 0.930 . S
H667 C661 0.930 . S
C668 N669 1.314 . S
C668 C670 1.353 . S
C668 H674 0.930 . S
N669 Li619 1.990 . S
N669 C668 1.314 . S
N669 C672 1.279 . S
C670 C668 1.353 . S
C670 C673 1.348 . S
C670 H702 0.929 . S
C671 C672 1.358 . S
C671 C673 1.356 . S
C671 H703 0.930 . S
C672 N669 1.279 . S
C672 C671 1.358 . S
C672 H675 0.930 . S
C673 C670 1.348 . S
C673 C671 1.356 . S
H674 C668 0.930 . S
H675 C672 0.930 . S
O676 Li616 1.956 . S
O676 Li617 1.970 . S
O676 Li618 1.961 . S
O676 C620 1.325 . S
O677 Li616 1.970 . S
O677 Li617 1.956 . S
O677 Li619 1.961 1_554 S
O677 C626 1.325 . S
O678 Li616 1.961 1_556 S
O678 Li618 1.956 1_556 S
O678 Li619 1.970 . S
O678 C648 1.325 . S
O679 Li617 1.961 . S
O679 Li618 1.970 . S
O679 Li619 1.956 1_554 S
O679 C654 1.325 . S
H680 C622 0.929 . S
H681 C623 0.930 . S
H682 C624 0.930 . S
H683 C625 0.930 . S
H684 C627 0.927 1_556 S
H685 C629 0.929 . S
H686 C630 0.930 . S
H687 C631 0.930 . S
H688 C634 0.930 . S
H689 C637 0.929 . S
H690 C642 0.929 . S
H691 C643 0.930 . S
H692 C650 0.929 . S
H693 C651 0.930 . S
H694 C652 0.930 . S
H695 C653 0.930 . S
H696 C655 0.929 . S
H697 C656 0.930 . S
H698 C657 0.930 . S
H699 C658 0.930 . S
H700 C662 0.929 . S
H701 C664 0.930 . S
H702 C670 0.929 . S
H703 C671 0.930 . S
H704 C710 0.930 . S
H705 C713 0.930 . S
H706 C714 0.930 . S
H707 C715 0.930 . S
H708 C718 0.930 . S
H709 C719 0.930 . S
C710 H704 0.930 . S
C710 C711 1.355 . S
C710 C712 1.415 . S
C711 C710 1.355 . S
C711 C713 1.419 . S
C712 C710 1.415 . S
C712 C717 1.425 . S
C712 C719 1.409 . S
C713 H705 0.930 . S
C713 C711 1.419 . S
C713 C714 1.362 . S
C714 H706 0.930 . S
C714 C713 1.362 . S
C714 C717 1.409 . S
C715 H707 0.930 . S
C715 C716 1.355 . S
C715 C717 1.415 . S
C716 C715 1.355 . S
C716 C718 1.419 . S
C717 C712 1.425 . S
C717 C714 1.409 . S
C717 C715 1.415 . S
C718 H708 0.930 . S
C718 C716 1.419 . S
C718 C719 1.362 . S
C719 H709 0.930 . S
C719 C712 1.409 . S
C719 C718 1.362 . S
H720 C726 0.930 . S
H721 C729 0.930 . S
H722 C730 0.930 . S
H723 C731 0.930 . S
H724 C734 0.930 . S
H725 C735 0.930 . S
C726 H720 0.930 . S
C726 C727 1.355 . S
C726 C728 1.415 . S
C727 C726 1.355 . S
C727 C729 1.419 . S
C728 C726 1.415 . S
C728 C733 1.425 . S
C728 C735 1.409 . S
C729 H721 0.930 . S
C729 C727 1.419 . S
C729 C730 1.362 . S
C730 H722 0.930 . S
C730 C729 1.362 . S
C730 C733 1.409 . S
C731 H723 0.930 . S
C731 C732 1.355 . S
C731 C733 1.415 . S
C732 C731 1.355 . S
C732 C734 1.419 . S
C733 C728 1.425 . S
C733 C730 1.409 . S
C733 C731 1.415 . S
C734 H724 0.930 . S
C734 C732 1.419 . S
C734 C735 1.362 . S
C735 H725 0.930 . S
C735 C728 1.409 . S
C735 C734 1.362 . S
H736 C742 0.930 . S
H737 C745 0.930 . S
H738 C746 0.930 1_556 S
H739 C747 0.930 . S
H740 C750 0.930 . S
H741 C751 0.930 . S
C742 H736 0.930 . S
C742 C743 1.355 . S
C742 C744 1.415 . S
C743 C742 1.355 . S
C743 C745 1.419 . S
C744 C742 1.415 . S
C744 C749 1.425 . S
C744 C751 1.409 . S
C745 H737 0.930 . S
C745 C743 1.419 . S
C745 C746 1.362 . S
C746 H738 0.930 1_554 S
C746 C745 1.362 . S
C746 C749 1.409 . S
C747 H739 0.930 . S
C747 C748 1.355 . S
C747 C749 1.415 1_556 S
C748 C747 1.355 . S
C748 C750 1.419 . S
C749 C744 1.425 . S
C749 C746 1.409 . S
C749 C747 1.415 1_554 S
C750 H740 0.930 . S
C750 C748 1.419 . S
C750 C751 1.362 1_556 S
C751 H741 0.930 . S
C751 C744 1.409 . S
C751 C750 1.362 1_554 S
H752 C758 0.930 . S
H753 C761 0.930 . S
H754 C762 0.930 . S
H755 C763 0.930 . S
H756 C766 0.930 . S
H757 C767 0.930 . S
C758 H752 0.930 . S
C758 C759 1.355 . S
C758 C760 1.415 . S
C759 C758 1.355 . S
C759 C761 1.419 . S
C760 C758 1.415 . S
C760 C765 1.425 . S
C760 C767 1.409 . S
C761 H753 0.930 . S
C761 C759 1.419 . S
C761 C762 1.362 . S
C762 H754 0.930 . S
C762 C761 1.362 . S
C762 C765 1.409 . S
C763 H755 0.930 . S
C763 C764 1.355 . S
C763 C765 1.415 . S
C764 C763 1.355 . S
C764 C766 1.419 . S
C765 C760 1.425 . S
C765 C762 1.409 . S
C765 C763 1.415 . S
C766 H756 0.930 . S
C766 C764 1.419 . S
C766 C767 1.362 . S
C767 H757 0.930 . S
C767 C760 1.409 . S
C767 C766 1.362 . S
H768 C774 0.930 . S
H769 C777 0.930 . S
H770 C778 0.930 . S
H771 C779 0.930 . S
H772 C782 0.930 . S
H773 C783 0.930 . S
C774 H768 0.930 . S
C774 C775 1.355 . S
C774 C776 1.415 . S
C775 C774 1.355 . S
C775 C777 1.419 . S
C776 C774 1.415 . S
C776 C781 1.425 . S
C776 C783 1.409 . S
C777 H769 0.930 . S
C777 C775 1.419 . S
C777 C778 1.362 . S
C778 H770 0.930 . S
C778 C777 1.362 . S
C778 C781 1.409 . S
C779 H771 0.930 . S
C779 C780 1.355 . S
C779 C781 1.415 . S
C780 C779 1.355 . S
C780 C782 1.419 . S
C781 C776 1.425 . S
C781 C778 1.409 . S
C781 C779 1.415 . S
C782 H772 0.930 . S
C782 C780 1.419 . S
C782 C783 1.362 . S
C783 H773 0.930 . S
C783 C776 1.409 . S
C783 C782 1.362 . S
H784 C790 0.930 . S
H785 C793 0.930 . S
H786 C794 0.930 . S
H787 C795 0.930 . S
H788 C798 0.930 . S
H789 C799 0.930 . S
C790 H784 0.930 . S
C790 C791 1.355 . S
C790 C792 1.415 . S
C791 C790 1.355 . S
C791 C793 1.419 . S
C792 C790 1.415 . S
C792 C797 1.425 . S
C792 C799 1.409 . S
C793 H785 0.930 . S
C793 C791 1.419 . S
C793 C794 1.362 . S
C794 H786 0.930 . S
C794 C793 1.362 . S
C794 C797 1.409 . S
C795 H787 0.930 . S
C795 C796 1.355 . S
C795 C797 1.415 . S
C796 C795 1.355 . S
C796 C798 1.419 . S
C797 C792 1.425 . S
C797 C794 1.409 . S
C797 C795 1.415 . S
C798 H788 0.930 . S
C798 C796 1.419 . S
C798 C799 1.362 . S
C799 H789 0.930 . S
C799 C792 1.409 . S
C799 C798 1.362 . S
H800 C806 0.930 . S
H801 C809 0.919 1_554 S
H802 C810 0.930 . S
H803 C811 0.930 . S
H804 C814 0.930 . S
H805 C815 0.930 . S
C806 H800 0.930 . S
C806 C807 1.355 . S
C806 C808 1.415 . S
C807 C806 1.355 . S
C807 C809 1.419 . S
C808 C806 1.415 . S
C808 C813 1.425 . S
C808 C815 1.409 . S
C809 H801 0.919 1_556 S
C809 C807 1.419 . S
C809 C810 1.362 . S
C810 H802 0.930 . S
C810 C809 1.362 . S
C810 C813 1.409 . S
C811 H803 0.930 . S
C811 C812 1.355 . S
C811 C813 1.415 . S
C812 C811 1.355 . S
C812 C814 1.419 . S
C813 C808 1.425 . S
C813 C810 1.409 . S
C813 C811 1.415 . S
C814 H804 0.930 . S
C814 C812 1.419 . S
C814 C815 1.362 . S
C815 H805 0.930 . S
C815 C808 1.409 . S
C815 C814 1.362 . S
H816 C822 0.930 . S
H817 C825 0.930 . S
H818 C826 0.930 . S
H819 C827 0.930 . S
H820 C830 0.930 . S
H821 C831 0.930 . S
C822 H816 0.930 . S
C822 C823 1.355 . S
C822 C824 1.415 . S
C823 C822 1.355 . S
C823 C825 1.419 . S
C824 C822 1.415 . S
C824 C829 1.425 . S
C824 C831 1.409 . S
C825 H817 0.930 . S
C825 C823 1.419 . S
C825 C826 1.362 . S
C826 H818 0.930 . S
C826 C825 1.362 . S
C826 C829 1.409 . S
C827 H819 0.930 . S
C827 C828 1.355 . S
C827 C829 1.415 . S
C828 C827 1.355 . S
C828 C830 1.419 . S
C829 C824 1.425 . S
C829 C826 1.409 . S
C829 C827 1.415 . S
C830 H820 0.930 . S
C830 C828 1.419 . S
C830 C831 1.362 . S
C831 H821 0.930 . S
C831 C824 1.409 . S
C831 C830 1.362 . S
H832 C838 0.930 . S
H833 C841 0.930 . S
H834 C842 0.930 . S
H835 C843 0.930 . S
H836 C846 0.930 . S
H837 C847 0.930 . S
C838 H832 0.930 . S
C838 C839 1.355 . S
C838 C840 1.415 . S
C839 C838 1.355 . S
C839 C841 1.419 . S
C840 C838 1.415 . S
C840 C845 1.425 1_565 S
C840 C847 1.409 1_565 S
C841 H833 0.930 . S
C841 C839 1.419 . S
C841 C842 1.362 . S
C842 H834 0.930 . S
C842 C841 1.362 . S
C842 C845 1.409 1_565 S
C843 H835 0.930 . S
C843 C844 1.355 . S
C843 C845 1.415 . S
C844 C843 1.355 . S
C844 C846 1.419 . S
C845 C840 1.425 1_545 S
C845 C842 1.409 1_545 S
C845 C843 1.415 . S
C846 H836 0.930 . S
C846 C844 1.419 . S
C846 C847 1.362 . S
C847 H837 0.930 . S
C847 C840 1.409 1_545 S
C847 C846 1.362 . S
H848 C854 0.930 . S
H849 C857 0.930 . S
H850 C858 0.930 . S
H851 C859 0.930 . S
H852 C862 0.930 . S
H853 C863 0.930 . S
C854 H848 0.930 . S
C854 C855 1.355 . S
C854 C856 1.415 . S
C855 C854 1.355 . S
C855 C857 1.419 . S
C856 C854 1.415 . S
C856 C861 1.425 1_655 S
C856 C863 1.409 1_655 S
C857 H849 0.930 . S
C857 C855 1.419 . S
C857 C858 1.362 . S
C858 H850 0.930 . S
C858 C857 1.362 . S
C858 C861 1.409 1_655 S
C859 H851 0.930 . S
C859 C860 1.355 . S
C859 C861 1.415 . S
C860 C859 1.355 . S
C860 C862 1.419 . S
C861 C856 1.425 1_455 S
C861 C858 1.409 1_455 S
C861 C859 1.415 . S
C862 H852 0.930 . S
C862 C860 1.419 . S
C862 C863 1.362 . S
C863 H853 0.930 . S
C863 C856 1.409 1_455 S
C863 C862 1.362 . S
H864 C870 0.930 . S
H865 C873 0.930 . S
H866 C874 0.930 . S
H867 C875 0.930 . S
H868 C878 0.930 . S
H869 C879 0.930 . S
C870 H864 0.930 . S
C870 C871 1.355 . S
C870 C872 1.415 . S
C871 C870 1.355 . S
C871 C873 1.419 . S
C872 C870 1.415 . S
C872 C877 1.425 1_565 S
C872 C879 1.409 1_565 S
C873 H865 0.930 . S
C873 C871 1.419 . S
C873 C874 1.362 . S
C874 H866 0.930 . S
C874 C873 1.362 . S
C874 C877 1.409 1_565 S
C875 H867 0.930 . S
C875 C876 1.355 . S
C875 C877 1.415 . S
C876 C875 1.355 . S
C876 C878 1.419 . S
C877 C872 1.425 1_545 S
C877 C874 1.409 1_545 S
C877 C875 1.415 . S
C878 H868 0.930 . S
C878 C876 1.419 . S
C878 C879 1.362 . S
C879 H869 0.930 . S
C879 C872 1.409 1_545 S
C879 C878 1.362 . S
H880 C886 0.930 . S
H881 C889 0.930 . S
H882 C890 0.930 . S
H883 C891 0.930 . S
H884 C894 0.930 . S
H885 C895 0.930 . S
C886 H880 0.930 . S
C886 C887 1.355 . S
C886 C888 1.415 . S
C887 C886 1.355 . S
C887 C889 1.419 1_554 S
C888 C886 1.415 . S
C888 C893 1.425 1_655 S
C888 C895 1.409 1_655 S
C889 H881 0.930 . S
C889 C887 1.419 1_556 S
C889 C890 1.362 . S
C890 H882 0.930 . S
C890 C889 1.362 . S
C890 C893 1.409 1_656 S
C891 H883 0.930 . S
C891 C892 1.355 1_556 S
C891 C893 1.415 1_556 S
C892 C891 1.355 1_554 S
C892 C894 1.419 . S
C893 C888 1.425 1_455 S
C893 C890 1.409 1_454 S
C893 C891 1.415 1_554 S
C894 H884 0.930 . S
C894 C892 1.419 . S
C894 C895 1.362 . S
C895 H885 0.930 . S
C895 C888 1.409 1_455 S
C895 C894 1.362 . S
H896 C902 0.930 . S
H897 C905 0.930 . S
H898 C906 0.930 . S
H899 C907 0.930 . S
H900 C910 0.930 . S
H901 C911 0.930 . S
C902 H896 0.930 . S
C902 C903 1.355 1_554 S
C902 C904 1.415 . S
C903 C902 1.355 1_556 S
C903 C905 1.419 . S
C904 C902 1.415 . S
C904 C909 1.425 . S
C904 C911 1.409 . S
C905 H897 0.930 . S
C905 C903 1.419 . S
C905 C906 1.362 . S
C906 H898 0.930 . S
C906 C905 1.362 . S
C906 C909 1.409 1_556 S
C907 H899 0.930 . S
C907 C908 1.355 . S
C907 C909 1.415 . S
C908 C907 1.355 . S
C908 C910 1.419 . S
C909 C904 1.425 . S
C909 C906 1.409 1_554 S
C909 C907 1.415 . S
C910 H900 0.930 . S
C910 C908 1.419 . S
C910 C911 1.362 . S
C911 H901 0.930 . S
C911 C904 1.409 . S
C911 C910 1.362 . S
H912 C918 0.930 . S
H913 C921 0.930 . S
H914 C922 0.930 . S
H915 C923 0.930 . S
H916 C926 0.930 . S
H917 C927 0.930 . S
C918 H912 0.930 . S
C918 C919 1.355 . S
C918 C920 1.415 . S
C919 C918 1.355 . S
C919 C921 1.419 . S
C920 C918 1.415 . S
C920 C925 1.425 . S
C920 C927 1.409 . S
C921 H913 0.930 . S
C921 C919 1.419 . S
C921 C922 1.362 . S
C922 H914 0.930 . S
C922 C921 1.362 . S
C922 C925 1.409 . S
C923 H915 0.930 . S
C923 C924 1.355 . S
C923 C925 1.415 . S
C924 C923 1.355 . S
C924 C926 1.419 . S
C925 C920 1.425 . S
C925 C922 1.409 . S
C925 C923 1.415 . S
C926 H916 0.930 . S
C926 C924 1.419 . S
C926 C927 1.362 . S
C927 H917 0.930 . S
C927 C920 1.409 . S
C927 C926 1.362 . S
H928 C934 0.930 . S
H929 C937 0.930 . S
H930 C938 0.930 . S
H931 C939 0.930 . S
H932 C942 0.930 . S
H933 C943 0.930 . S
C934 H928 0.930 . S
C934 C935 1.355 . S
C934 C936 1.415 . S
C935 C934 1.355 . S
C935 C937 1.419 . S
C936 C934 1.415 . S
C936 C941 1.425 . S
C936 C943 1.409 . S
C937 H929 0.930 . S
C937 C935 1.419 . S
C937 C938 1.362 . S
C938 H930 0.930 . S
C938 C937 1.362 . S
C938 C941 1.409 . S
C939 H931 0.930 . S
C939 C940 1.355 . S
C939 C941 1.415 . S
C940 C939 1.355 . S
C940 C942 1.419 . S
C941 C936 1.425 . S
C941 C938 1.409 . S
C941 C939 1.415 . S
C942 H932 0.930 . S
C942 C940 1.419 . S
C942 C943 1.362 . S
C943 H933 0.930 . S
C943 C936 1.409 . S
C943 C942 1.362 . S
H944 C950 0.930 . S
H945 C953 0.930 . S
H946 C954 0.930 . S
H947 C955 0.930 . S
H948 C958 0.930 . S
H949 C959 0.930 . S
C950 H944 0.930 . S
C950 C951 1.355 . S
C950 C952 1.415 . S
C951 C950 1.355 . S
C951 C953 1.419 . S
C952 C950 1.415 . S
C952 C957 1.425 . S
C952 C959 1.409 . S
C953 H945 0.930 . S
C953 C951 1.419 . S
C953 C954 1.362 . S
C954 H946 0.930 . S
C954 C953 1.362 . S
C954 C957 1.409 . S
C955 H947 0.930 . S
C955 C956 1.355 . S
C955 C957 1.415 . S
C956 C955 1.355 . S
C956 C958 1.419 . S
C957 C952 1.425 . S
C957 C954 1.409 . S
C957 C955 1.415 . S
C958 H948 0.930 . S
C958 C956 1.419 . S
C958 C959 1.362 . S
C959 H949 0.930 . S
C959 C952 1.409 . S
C959 C958 1.362 . S
C711 C29 0.908 . S
C716 C585 0.894 . S
C727 C108 0.916 . S
C732 C673 0.896 . S
C743 C401 0.905 . S
C748 C196 0.896 . S
C759 C489 0.916 . S
C764 C293 0.891 . S
C775 C49 1.453 . S
C780 C469 1.444 . S
C791 C145 1.521 . S
C796 C548 1.527 . S
C807 C636 1.529 . S
C812 C233 1.531 . S
C823 C313 1.500 . S
C828 C381 1.511 . S
C839 C409 1.403 . S
C844 C20 1.363 . S
C855 C117 1.399 . S
C860 C497 1.362 . S
C871 C205 1.362 . S
C876 C577 1.402 . S
C887 C665 1.378 . S
C892 C284 1.378 . S
C903 C557 1.718 . S
C908 C57 1.738 . S
C919 C645 1.754 . S
C924 C137 1.729 . S
C935 C225 1.769 . S
C940 C372 1.749 . S
C951 C321 1.718 . S
C956 C460 1.720 . S
