# Generated by pormake.
# Topology crs, (6)-cn, num edge types: 1
# Building blocks:
#     Node 0, Type 0, BuildingBlock: MIFKUJ_clean_sbu_0, # of connection points: 6
#     Node 1, Type 0, BuildingBlock: MIFKUJ_clean_sbu_0, # of connection points: 6
#     Node 2, Type 0, BuildingBlock: MIFKUJ_clean_sbu_0, # of connection points: 6
#     Node 3, Type 0, BuildingBlock: MIFKUJ_clean_sbu_0, # of connection points: 6
#     Node 4, Type 0, BuildingBlock: MIFKUJ_clean_sbu_0, # of connection points: 6
#     Node 5, Type 0, BuildingBlock: MIFKUJ_clean_sbu_0, # of connection points: 6
#     Node 6, Type 0, BuildingBlock: MIFKUJ_clean_sbu_0, # of connection points: 6
#     Node 7, Type 0, BuildingBlock: MIFKUJ_clean_sbu_0, # of connection points: 6
#     Node 8, Type 0, BuildingBlock: MIFKUJ_clean_sbu_0, # of connection points: 6
#     Node 9, Type 0, BuildingBlock: MIFKUJ_clean_sbu_0, # of connection points: 6
#     Node 10, Type 0, BuildingBlock: MIFKUJ_clean_sbu_0, # of connection points: 6
#     Node 11, Type 0, BuildingBlock: MIFKUJ_clean_sbu_0, # of connection points: 6
#     Node 12, Type 0, BuildingBlock: MIFKUJ_clean_sbu_0, # of connection points: 6
#     Node 13, Type 0, BuildingBlock: MIFKUJ_clean_sbu_0, # of connection points: 6
#     Node 14, Type 0, BuildingBlock: MIFKUJ_clean_sbu_0, # of connection points: 6
#     Node 15, Type 0, BuildingBlock: MIFKUJ_clean_sbu_0, # of connection points: 6
#     Edge 16, Type (0, 0), BuildingBlock: OJICUG_clean_linker_0, # of connection points: 2
#     Edge 17, Type (0, 0), BuildingBlock: OJICUG_clean_linker_0, # of connection points: 2
#     Edge 18, Type (0, 0), BuildingBlock: OJICUG_clean_linker_0, # of connection points: 2
#     Edge 19, Type (0, 0), BuildingBlock: OJICUG_clean_linker_0, # of connection points: 2
#     Edge 20, Type (0, 0), BuildingBlock: OJICUG_clean_linker_0, # of connection points: 2
#     Edge 21, Type (0, 0), BuildingBlock: OJICUG_clean_linker_0, # of connection points: 2
#     Edge 22, Type (0, 0), BuildingBlock: OJICUG_clean_linker_0, # of connection points: 2
#     Edge 23, Type (0, 0), BuildingBlock: OJICUG_clean_linker_0, # of connection points: 2
#     Edge 24, Type (0, 0), BuildingBlock: OJICUG_clean_linker_0, # of connection points: 2
#     Edge 25, Type (0, 0), BuildingBlock: OJICUG_clean_linker_0, # of connection points: 2
#     Edge 26, Type (0, 0), BuildingBlock: OJICUG_clean_linker_0, # of connection points: 2
#     Edge 27, Type (0, 0), BuildingBlock: OJICUG_clean_linker_0, # of connection points: 2
#     Edge 28, Type (0, 0), BuildingBlock: OJICUG_clean_linker_0, # of connection points: 2
#     Edge 29, Type (0, 0), BuildingBlock: OJICUG_clean_linker_0, # of connection points: 2
#     Edge 30, Type (0, 0), BuildingBlock: OJICUG_clean_linker_0, # of connection points: 2
#     Edge 31, Type (0, 0), BuildingBlock: OJICUG_clean_linker_0, # of connection points: 2
#     Edge 32, Type (0, 0), BuildingBlock: OJICUG_clean_linker_0, # of connection points: 2
#     Edge 33, Type (0, 0), BuildingBlock: OJICUG_clean_linker_0, # of connection points: 2
#     Edge 34, Type (0, 0), BuildingBlock: OJICUG_clean_linker_0, # of connection points: 2
#     Edge 35, Type (0, 0), BuildingBlock: OJICUG_clean_linker_0, # of connection points: 2
#     Edge 36, Type (0, 0), BuildingBlock: OJICUG_clean_linker_0, # of connection points: 2
#     Edge 37, Type (0, 0), BuildingBlock: OJICUG_clean_linker_0, # of connection points: 2
#     Edge 38, Type (0, 0), BuildingBlock: OJICUG_clean_linker_0, # of connection points: 2
#     Edge 39, Type (0, 0), BuildingBlock: OJICUG_clean_linker_0, # of connection points: 2
#     Edge 40, Type (0, 0), BuildingBlock: OJICUG_clean_linker_0, # of connection points: 2
#     Edge 41, Type (0, 0), BuildingBlock: OJICUG_clean_linker_0, # of connection points: 2
#     Edge 42, Type (0, 0), BuildingBlock: OJICUG_clean_linker_0, # of connection points: 2
#     Edge 43, Type (0, 0), BuildingBlock: OJICUG_clean_linker_0, # of connection points: 2
#     Edge 44, Type (0, 0), BuildingBlock: OJICUG_clean_linker_0, # of connection points: 2
#     Edge 45, Type (0, 0), BuildingBlock: OJICUG_clean_linker_0, # of connection points: 2
#     Edge 46, Type (0, 0), BuildingBlock: OJICUG_clean_linker_0, # of connection points: 2
#     Edge 47, Type (0, 0), BuildingBlock: OJICUG_clean_linker_0, # of connection points: 2
#     Edge 48, Type (0, 0), BuildingBlock: OJICUG_clean_linker_0, # of connection points: 2
#     Edge 49, Type (0, 0), BuildingBlock: OJICUG_clean_linker_0, # of connection points: 2
#     Edge 50, Type (0, 0), BuildingBlock: OJICUG_clean_linker_0, # of connection points: 2
#     Edge 51, Type (0, 0), BuildingBlock: OJICUG_clean_linker_0, # of connection points: 2
#     Edge 52, Type (0, 0), BuildingBlock: OJICUG_clean_linker_0, # of connection points: 2
#     Edge 53, Type (0, 0), BuildingBlock: OJICUG_clean_linker_0, # of connection points: 2
#     Edge 54, Type (0, 0), BuildingBlock: OJICUG_clean_linker_0, # of connection points: 2
#     Edge 55, Type (0, 0), BuildingBlock: OJICUG_clean_linker_0, # of connection points: 2
#     Edge 56, Type (0, 0), BuildingBlock: OJICUG_clean_linker_0, # of connection points: 2
#     Edge 57, Type (0, 0), BuildingBlock: OJICUG_clean_linker_0, # of connection points: 2
#     Edge 58, Type (0, 0), BuildingBlock: OJICUG_clean_linker_0, # of connection points: 2
#     Edge 59, Type (0, 0), BuildingBlock: OJICUG_clean_linker_0, # of connection points: 2
#     Edge 60, Type (0, 0), BuildingBlock: OJICUG_clean_linker_0, # of connection points: 2
#     Edge 61, Type (0, 0), BuildingBlock: OJICUG_clean_linker_0, # of connection points: 2
#     Edge 62, Type (0, 0), BuildingBlock: OJICUG_clean_linker_0, # of connection points: 2
#     Edge 63, Type (0, 0), BuildingBlock: OJICUG_clean_linker_0, # of connection points: 2
# Relax obj value: 0.340
# Max RMSD: 0.302
# Mean RMSD: 0.251
data_MOF--net-crs--node1-MIFKUJ_clean_sbu_0--edge1-OJICUG_clean_linker_0
_symmetry_space_group_name_H-M    P1
_symmetry_Int_Tables_number       1
_symmetry_cell_setting            triclinic
loop_
_symmetry_equiv_pos_as_xyz
'x, y, z'
_cell_length_a     33.856568
_cell_length_b     33.537413
_cell_length_c     33.755791
_cell_angle_alpha  89.874419
_cell_angle_beta   89.978649
_cell_angle_gamma 75.473349
loop_
_atom_site_label
_atom_site_type_symbol
_atom_site_fract_x
_atom_site_fract_y
_atom_site_fract_z
_atom_type_partial_charge
Zn0 Zn 0.01094 0.03928 0.98324 0.0
Zn1 Zn 0.95933 0.99077 0.02744 0.0
C2 C 0.96468 0.11361 0.02381 0.0
O3 O 0.94934 0.12487 0.98861 0.0
C4 C 0.00334 0.91308 0.99026 0.0
O5 O 0.02245 0.90488 0.02429 0.0
O6 O 0.04855 0.06527 0.95288 0.0
O7 O 0.04667 0.98813 0.00724 0.0
O8 O 0.0081 0.99362 0.06038 0.0
C9 C 0.03764 0.09481 0.92841 0.0
O10 O -0.00108 0.10822 0.91901 0.0
O11 O -0.01021 0.07866 0.02808 0.0
C12 C 0.92283 0.93716 0.07663 0.0
O13 O 0.95941 0.912 0.07738 0.0
O14 O 0.9177 0.97217 0.06017 0.0
O15 O 0.92575 0.04114 0.99998 0.0
O16 O 0.96554 0.03366 0.94787 0.0
O17 O -0.02288 0.94727 0.98543 0.0
C18 C 0.0432 0.98339 0.04433 0.0
C19 C 0.93001 0.04285 0.96269 0.0
Zn20 Zn 0.95355 0.24007 0.27102 0.0
Zn21 Zn -0.0019 0.26895 0.20707 0.0
C22 C -0.00024 0.26478 0.33178 0.0
O23 O 0.00589 0.22527 0.33949 0.0
C24 C 0.95125 0.23521 0.14625 0.0
O25 O 0.92746 0.2725 0.14219 0.0
O26 O 0.92032 0.22441 0.31506 0.0
O27 O 0.91304 0.27169 0.23145 0.0
O28 O 0.95102 0.3152 0.22449 0.0
C29 C 0.89874 0.25757 0.32992 0.0
O30 O 0.89769 0.29258 0.31195 0.0
O31 O -0.01974 0.27917 0.30054 0.0
C32 C 0.02882 0.30454 0.13882 0.0
O33 O -0.00751 0.30747 0.1237 0.0
O34 O 0.0361 0.292 0.1742 0.0
O35 O 0.03562 0.23437 0.24713 0.0
O36 O -0.00304 0.19113 0.25278 0.0
O37 O -0.02017 0.22851 0.1717 0.0
C38 C 0.91583 0.30839 0.22638 0.0
C39 C 0.03228 0.19777 0.25185 0.0
Zn40 Zn 0.76518 0.26335 0.53897 0.0
Zn41 Zn 0.72445 0.21703 0.48518 0.0
C42 C 0.82151 0.26972 0.48249 0.0
O43 O 0.80977 0.30679 0.49774 0.0
C44 C 0.64411 0.25436 0.51143 0.0
O45 O 0.63568 0.25197 0.47366 0.0
O46 O 0.79254 0.29704 0.57439 0.0
O47 O 0.72014 0.30295 0.5086 0.0
O48 O 0.73496 0.26554 0.45464 0.0
C49 C 0.7783 0.33561 0.57908 0.0
O50 O 0.74032 0.35236 0.56886 0.0
O51 O 0.8075 0.24114 0.49717 0.0
C52 C 0.70962 0.14456 0.44503 0.0
O53 O 0.74647 0.12567 0.45705 0.0
O54 O 0.69675 0.18314 0.4505 0.0
O55 O 0.7671 0.17678 0.51807 0.0
O56 O 0.75288 0.21673 0.57023 0.0
O57 O 0.68063 0.24187 0.52337 0.0
C58 C 0.72252 0.30074 0.47094 0.0
C59 C 0.76326 0.18075 0.55551 0.0
Zn60 Zn 0.75595 0.03399 0.78683 0.0
Zn61 Zn 0.71867 0.0039 0.71747 0.0
C62 C 0.70673 0.00991 0.84745 0.0
O63 O 0.69722 0.04981 0.85389 0.0
C64 C 0.75451 0.04078 0.65287 0.0
O65 O 0.75599 0.00527 0.63581 0.0
O66 O 0.78826 0.05718 0.82686 0.0
O67 O 0.79958 -0.0002 0.75134 0.0
O68 O 0.7612 0.9576 0.73975 0.0
C69 C 0.80502 0.03193 0.85371 0.0
O70 O 0.80037 0.99424 0.85345 0.0
O71 O 0.72969 0.99569 0.81824 0.0
C72 C 0.656 0.97217 0.68007 0.0
O73 O 0.63709 0.97971 0.71426 0.0
O74 O 0.69083 0.97926 0.67578 0.0
O75 O 0.67541 0.03412 0.75434 0.0
O76 O 0.71069 0.07974 0.76455 0.0
O77 O 0.74208 0.04627 0.68853 0.0
C78 C 0.7963 0.96356 0.7447 0.0
C79 C 0.67639 0.07105 0.76095 0.0
Zn80 Zn 0.4663 0.76039 0.32719 0.0
Zn81 Zn 0.5188 0.77136 0.25492 0.0
C82 C 0.5017 0.8056 0.38633 0.0
O83 O 0.50228 0.77311 0.40836 0.0
C84 C 0.47197 0.74272 0.19464 0.0
O85 O 0.4638 0.78162 0.18393 0.0
O86 O 0.42603 0.74767 0.36638 0.0
O87 O 0.43171 0.78461 0.28069 0.0
O88 O 0.47395 0.82273 0.26736 0.0
C89 C 0.40304 0.77668 0.38606 0.0
O90 O 0.40681 0.81446 0.38149 0.0
O91 O 0.48977 0.8059 0.35057 0.0
C92 C 0.57852 0.75976 0.19442 0.0
O93 O 0.57717 0.72146 0.20084 0.0
O94 O 0.55614 0.7882 0.2152 0.0
O95 O 0.55554 0.73842 0.29756 0.0
O96 O 0.50911 0.70745 0.31755 0.0
O97 O 0.49377 0.7312 0.22526 0.0
C98 C 0.43773 0.81836 0.26838 0.0
C99 C 0.54628 0.70652 0.31111 0.0
Zn100 Zn 0.21768 0.71629 0.5277 0.0
Zn101 Zn 0.20768 0.8424 0.50645 0.0
C102 C 0.26606 0.65267 0.57828 0.0
O103 O 0.28902 0.64282 0.54664 0.0
C104 C 0.16213 0.90664 0.45855 0.0
O105 O 0.15625 0.92439 0.49348 0.0
O106 O 0.17671 0.68977 0.50285 0.0
O107 O 0.19119 0.77489 0.5413 0.0
O108 O 0.16812 0.83997 0.55211 0.0
C109 C 0.1873 0.65224 0.49227 0.0
O110 O 0.22612 0.63275 0.49316 0.0
O111 O 0.23633 0.68444 0.57742 0.0
C112 C 0.26312 0.88745 0.48903 0.0
O113 O 0.25531 0.87283 0.45464 0.0
O114 O 0.24575 0.87799 0.5198 0.0
O115 O 0.24309 0.78453 0.49361 0.0
O116 O 0.26527 0.71736 0.49116 0.0
O117 O 0.17799 0.86806 0.45716 0.0
C118 C 0.16816 0.80321 0.56134 0.0
C119 C 0.26976 0.75282 0.48193 0.0
Zn120 Zn 0.25082 0.51079 0.8116 0.0
Zn121 Zn 0.19431 0.49938 0.74356 0.0
C122 C 0.20793 0.47889 0.87254 0.0
O123 O 0.20179 0.51666 0.88606 0.0
C124 C 0.24334 0.52992 0.68736 0.0
O125 O 0.25036 0.492 0.67404 0.0
O126 O 0.29155 0.52374 0.85021 0.0
O127 O 0.28253 0.48118 0.76563 0.0
O128 O 0.23685 0.44629 0.7532 0.0
C129 C 0.3162 0.49362 0.86718 0.0
O130 O 0.31478 0.45594 0.85802 0.0
O131 O 0.22648 0.46979 0.83983 0.0
C132 C 0.15353 0.45945 0.68287 0.0
O133 O 0.18239 0.4258 0.68961 0.0
O134 O 0.15303 0.49181 0.70262 0.0
O135 O 0.16217 0.52764 0.79003 0.0
O136 O 0.20762 0.56281 0.80123 0.0
O137 O 0.22111 0.53996 0.71786 0.0
C138 C 0.27386 0.44827 0.75425 0.0
C139 C 0.17063 0.56094 0.80037 0.0
Zn140 Zn -0.01341 0.55659 0.536 0.0
Zn141 Zn 0.97098 0.43611 0.51644 0.0
C142 C 0.95162 0.62784 0.57802 0.0
O143 O 0.94206 0.63967 0.54136 0.0
C144 C 0.00771 0.3686 0.46519 0.0
O145 O 0.02256 0.35159 0.4989 0.0
O146 O 0.02925 0.58034 0.51054 0.0
O147 O 0.00848 0.49626 0.54923 0.0
O148 O 0.02019 0.42963 0.55336 0.0
C149 C 0.06537 0.56062 0.50192 0.0
O150 O 0.07636 0.52054 0.50723 0.0
O151 O 0.96971 0.5904 0.58455 0.0
C152 C 0.89368 0.4322 0.55486 0.0
O153 O 0.88238 0.47232 0.5499 0.0
O154 O 0.92889 0.41235 0.54343 0.0
O155 O 0.94932 0.49656 0.50405 0.0
O156 O 0.93798 0.56302 0.49913 0.0
O157 O -0.01407 0.40543 0.46528 0.0
C158 C 0.02918 0.46268 0.56399 0.0
C159 C 0.92819 0.53013 0.48966 0.0
Zn160 Zn 0.20921 0.21671 0.98464 0.0
Zn161 Zn 0.25089 0.27719 0.02159 0.0
C162 C 0.25543 0.14571 0.02807 0.0
O163 O 0.26816 0.13289 0.99243 0.0
C164 C 0.2065 0.34983 0.98359 0.0
O165 O 0.19827 0.35995 0.02083 0.0
O166 O 0.17831 0.18305 0.95494 0.0
O167 O 0.16787 0.26683 0.00431 0.0
O168 O 0.20567 0.26957 0.05653 0.0
C169 C 0.14719 0.19774 0.93358 0.0
O170 O 0.13478 0.23779 0.92848 0.0
O171 O 0.23184 0.1815 0.03208 0.0
C172 C 0.31811 0.29904 0.06189 0.0
O173 O 0.33526 0.25932 0.06048 0.0
O174 O 0.28163 0.31232 0.04996 0.0
O175 O 0.29256 0.22848 1.0001 0.0
O176 O 0.25372 0.22446 0.94915 0.0
O177 O 0.22702 0.31351 0.97562 0.0
C178 C 0.17069 0.27588 0.04054 0.0
C179 C 0.28891 0.2215 0.96353 0.0
Zn180 Zn 0.25569 0.02711 0.27559 0.0
Zn181 Zn 0.21546 0.9916 0.21138 0.0
C182 C 0.204 0.00756 0.33621 0.0
O183 O 0.19676 0.04752 0.34178 0.0
C184 C 0.26478 0.02475 0.15143 0.0
O185 O 0.2894 0.9877 0.14905 0.0
O186 O 0.28312 0.05513 0.31534 0.0
O187 O 0.30008 0.99018 0.24329 0.0
O188 O 0.26223 0.94686 0.23283 0.0
C189 C 0.31852 0.06091 0.31099 0.0
O190 O 0.33841 0.04988 0.27774 0.0
O191 O 0.22835 0.99111 0.30871 0.0
C192 C 0.1855 0.95623 0.14226 0.0
O193 O 0.22081 0.95634 0.12623 0.0
O194 O 0.17903 0.96657 0.17828 0.0
O195 O 0.17516 0.02697 0.24863 0.0
O196 O 0.21265 0.07136 0.24942 0.0
O197 O 0.23486 0.03136 0.17539 0.0
C198 C 0.2972 0.95354 0.23803 0.0
C199 C 0.17767 0.06405 0.25034 0.0
Zn200 Zn 0.44888 0.23755 0.77589 0.0
Zn201 Zn 0.48453 0.26224 0.70232 0.0
C202 C 0.50265 0.26011 0.83196 0.0
O203 O 0.51058 0.22023 0.83841 0.0
C204 C 0.44573 0.22621 0.64032 0.0
O205 O 0.4421 0.26279 0.62451 0.0
O206 O 0.41832 0.21632 0.81893 0.0
O207 O 0.40441 0.27115 0.74076 0.0
O208 O 0.44302 0.31115 0.72196 0.0
C209 C 0.40503 0.24074 0.84743 0.0
O210 O 0.4111 0.27789 0.84715 0.0
O211 O 0.47815 0.27551 0.80413 0.0
C212 C 0.53668 0.25195 0.6389 0.0
O213 O 0.53724 0.21377 0.64817 0.0
O214 O 0.51577 0.28136 0.65943 0.0
O215 O 0.52765 0.23358 0.74016 0.0
O216 O 0.49168 0.18951 0.75405 0.0
O217 O 0.45912 0.21987 0.67565 0.0
C218 C 0.40802 0.30645 0.73037 0.0
C219 C 0.52621 0.19739 0.74959 0.0
Zn220 Zn 0.95884 0.75565 0.81432 0.0
Zn221 Zn 0.01358 0.77677 0.75298 0.0
C222 C 0.00016 0.78546 0.8783 0.0
O223 O 0.00718 0.74722 0.89091 0.0
C224 C 0.96902 0.74964 0.69068 0.0
O225 O 0.96406 0.78788 0.67869 0.0
O226 O 0.91865 0.7393 0.85106 0.0
O227 O 0.92619 0.78832 0.77041 0.0
O228 O 0.96956 0.82712 0.76728 0.0
C229 C 0.89369 0.76892 0.8682 0.0
O230 O 0.89521 0.80684 0.86003 0.0
O231 O -0.01809 0.79518 0.84553 0.0
C232 C 0.07406 0.76521 0.69298 0.0
O233 O 0.07368 0.72676 0.70005 0.0
O234 O 0.05123 0.7936 0.71353 0.0
O235 O 0.04807 0.74295 0.79553 0.0
O236 O 0.00338 0.70577 0.80143 0.0
O237 O -0.01181 0.73815 0.72269 0.0
C238 C 0.93327 0.82329 0.76437 0.0
C239 C 0.04014 0.70848 0.80244 0.0
Zn240 Zn 0.74932 0.49578 0.32465 0.0
Zn241 Zn 0.69543 0.48819 0.25167 0.0
C242 C 0.71746 0.45066 0.38386 0.0
O243 O 0.71776 0.48373 0.40454 0.0
C244 C 0.74032 0.5157 0.19018 0.0
O245 O 0.74537 0.4772 0.17915 0.0
O246 O 0.79089 0.50189 0.3653 0.0
O247 O 0.78231 0.47406 0.27659 0.0
O248 O 0.73983 0.43636 0.26287 0.0
C249 C 0.79795 0.53527 0.37727 0.0
O250 O 0.77671 0.57047 0.36265 0.0
O251 O 0.72659 0.44994 0.34726 0.0
C252 C 0.63532 0.502 0.19099 0.0
O253 O 0.63635 0.54017 0.19844 0.0
O254 O 0.65754 0.47306 0.21148 0.0
O255 O 0.65995 0.52057 0.29519 0.0
O256 O 0.70676 0.54973 0.31796 0.0
O257 O 0.72101 0.52776 0.22206 0.0
C258 C 0.77596 0.441 0.26299 0.0
C259 C 0.66959 0.55152 0.3104 0.0
Zn260 Zn 0.72315 0.70783 0.02901 0.0
Zn261 Zn 0.73597 0.82937 0.02485 0.0
C262 C 0.76179 0.63246 0.07224 0.0
O263 O 0.77916 0.61977 0.03817 0.0
C264 C 0.69483 0.90273 0.978 0.0
O265 O 0.67716 0.9178 0.01128 0.0
O266 O 0.67444 0.69518 1.00325 0.0
O267 O 0.70425 0.76555 0.04997 0.0
O268 O 0.69063 0.82995 0.06604 0.0
C269 C 0.67532 0.6611 0.98656 0.0
O270 O 0.71035 0.63356 0.98294 0.0
O271 O 0.73926 0.66884 0.07496 0.0
C272 C 0.7789 0.87862 0.06933 0.0
O273 O 0.74224 0.90321 0.07328 0.0
O274 O 0.78319 0.84495 0.05071 0.0
O275 O 0.75642 0.77141 1.00387 0.0
O276 O 0.76943 0.70653 0.98899 0.0
O277 O 0.71845 0.86672 0.97777 0.0
C278 C 0.68427 0.79448 0.07143 0.0
C279 C 0.77687 0.74156 0.98364 0.0
Zn280 Zn 0.45135 0.01007 0.51101 0.0
Zn281 Zn 0.51788 0.03797 0.4807 0.0
C282 C 0.39878 0.06586 0.45781 0.0
O283 O 0.37697 0.07498 0.49027 0.0
C284 C 0.5752 0.97998 0.53234 0.0
O285 O 0.59178 0.96139 0.49999 0.0
O286 O 0.4036 0.98668 0.52408 0.0
O287 O 0.49699 0.96037 0.49948 0.0
O288 O 0.50824 0.99123 0.44508 0.0
C289 C 0.39433 0.9681 0.49401 0.0
O290 O 0.41652 0.96586 0.4618 0.0
O291 O 0.43377 0.04091 0.46 0.0
C292 C 0.59175 0.04845 0.43848 0.0
O293 O 0.60196 0.00831 0.4338 0.0
O294 O 0.55806 0.06558 0.45508 0.0
O295 O 0.47347 0.08634 0.50307 0.0
O296 O 0.45952 0.04962 0.55262 0.0
O297 O 0.54514 0.01131 0.52994 0.0
C298 C 0.50746 0.95809 0.46328 0.0
C299 C 0.46174 0.08424 0.53879 0.0
Zn300 Zn 0.48508 0.55596 0.02912 0.0
Zn301 Zn 0.48986 0.43 0.0122 0.0
C302 C 0.4455 0.62576 0.07925 0.0
O303 O 0.42274 0.63839 0.04793 0.0
C304 C 0.52574 0.36189 0.96205 0.0
O305 O 0.534 0.34339 0.99652 0.0
O306 O 0.52832 0.57553 0.99998 0.0
O307 O 0.51177 0.49744 0.04384 0.0
O308 O 0.5348 0.43183 0.05265 0.0
C309 C 0.5251 0.61282 0.99033 0.0
O310 O 0.49035 0.64014 0.99631 0.0
O311 O 0.47124 0.59093 0.07831 0.0
C312 C 0.41746 0.41344 0.04985 0.0
O313 O 0.40182 0.45345 0.04855 0.0
O314 O 0.45325 0.39847 0.0368 0.0
O315 O 0.45871 0.48848 0.99855 0.0
O316 O 0.43649 0.555 0.99284 0.0
O317 O 0.50976 0.40044 0.96134 0.0
C318 C 0.53566 0.46825 0.06226 0.0
C319 C 0.4333 0.5191 0.98346 0.0
C320 C 0.93042 0.18253 0.05239 0.0
C321 C 0.95649 0.14299 0.05722 0.0
H322 H 0.90783 0.24273 0.07705 0.0
C323 C -0.02289 0.13281 0.0934 0.0
H324 H 0.91386 0.19123 0.02497 0.0
C325 C 0.97373 0.1623 0.12315 0.0
C326 C 0.94949 0.20256 0.11746 0.0
H327 H -0.00282 0.10251 0.09824 0.0
H328 H -0.00872 0.1539 0.15008 0.0
C329 C 0.92686 0.21202 0.08229 0.0
C330 C 0.85436 0.29854 0.42781 0.0
C331 C 0.84439 0.26421 0.44498 0.0
H332 H 0.87877 0.32321 0.37819 0.0
C333 C 0.8537 0.22651 0.4245 0.0
H334 H 0.84781 0.32804 0.44275 0.0
C335 C 0.87195 0.22366 0.38698 0.0
C336 C 0.8804 0.25864 0.36948 0.0
H337 H 0.84622 0.19958 0.43708 0.0
H338 H 0.87859 0.19454 0.37139 0.0
C339 C 0.87187 0.29586 0.3905 0.0
C340 C 0.75569 0.11513 0.64575 0.0
C341 C 0.76175 0.07566 0.62912 0.0
H342 H 0.7517 0.17907 0.63575 0.0
C343 C 0.77164 0.07055 0.58863 0.0
H344 H 0.74807 0.12024 0.67681 0.0
C345 C 0.77368 0.10435 0.565 0.0
C346 C 0.76588 0.14413 0.58127 0.0
H347 H 0.77661 0.04058 0.57481 0.0
H348 H 0.7802 0.09943 0.53373 0.0
C349 C 0.75775 0.14893 0.62213 0.0
C350 C 0.89472 0.06272 0.898 0.0
C351 C 0.89428 0.04746 0.93676 0.0
H352 H 0.86528 0.07105 0.84117 0.0
C353 C 0.86131 0.03218 0.94917 0.0
H354 H 0.91987 0.07468 0.88787 0.0
C355 C 0.83091 0.02921 0.92237 0.0
C356 C 0.83233 0.04268 0.88317 0.0
H357 H 0.86039 0.01997 0.97882 0.0
H358 H 0.80708 0.01493 0.93183 0.0
C359 C 0.86352 0.06089 0.87146 0.0
C360 C 0.11916 0.96181 0.05171 0.0
C361 C 0.08016 0.96924 0.06892 0.0
H362 H 0.18339 0.95108 0.06147 0.0
C363 C 0.07687 0.96595 0.1102 0.0
H364 H 0.12276 0.9636 0.01992 0.0
C365 C 0.11166 0.95854 0.13399 0.0
C366 C 0.15041 0.95438 0.11697 0.0
H367 H 0.04732 0.97091 0.12434 0.0
H368 H 0.10788 0.95827 0.16585 0.0
C369 C 0.15397 0.95442 0.07552 0.0
C370 C 0.0315 0.30145 0.4296 0.0
C371 C 0.01135 0.34351 0.42868 0.0
H372 H 0.04413 0.24367 0.39937 0.0
C373 C -0.00826 0.36043 0.39352 0.0
H374 H 0.04717 0.28749 0.45607 0.0
C375 C -0.00986 0.33527 0.36087 0.0
C376 C 0.00802 0.2927 0.3628 0.0
H377 H -0.0239 0.39279 0.39174 0.0
H378 H 0.9731 0.34886 0.33493 0.0
C379 C 0.02979 0.27631 0.39704 0.0
C380 C 0.61627 0.28151 0.57668 0.0
C381 C 0.61151 0.262 0.54088 0.0
H382 H 0.59468 0.29463 0.63618 0.0
C383 C 0.57879 0.24382 0.53609 0.0
H384 H 0.64158 0.29547 0.58083 0.0
C385 C 0.55309 0.24216 0.56792 0.0
C386 C 0.55911 0.25988 0.60424 0.0
H387 H 0.57498 0.22816 0.50885 0.0
H388 H 0.5295 0.22572 0.56468 0.0
C389 C 0.58967 0.28103 0.60813 0.0
C390 C 0.71512 0.93898 0.8754 0.0
C391 C 0.69777 0.9816 0.878 0.0
H392 H 0.72761 0.88063 0.90483 0.0
C393 C 0.67547 -0.00269 0.91215 0.0
H394 H 0.73239 0.92581 0.84949 0.0
C395 C 0.67268 0.97134 0.94396 0.0
C396 C 0.69223 0.92914 0.94233 0.0
H397 H 0.66155 0.02997 0.91503 0.0
H398 H 0.65669 0.9847 0.97045 0.0
C399 C 0.71243 0.91306 0.90723 0.0
C400 C 0.09469 0.29529 0.04768 0.0
C401 C 0.13354 0.29005 0.06472 0.0
H402 H 0.03063 0.30491 0.05787 0.0
C403 C 0.13671 0.29589 0.10567 0.0
H404 H 0.09124 0.29149 0.01612 0.0
C405 C 0.10203 0.30364 0.12953 0.0
C406 C 0.06351 0.30586 0.11289 0.0
H407 H 0.16616 0.29263 0.11962 0.0
H408 H 0.1057 0.3059 0.16126 0.0
C409 C 0.05992 0.30327 0.07158 0.0
C410 C 0.72386 0.37423 0.38529 0.0
C411 C 0.71339 0.4127 0.40443 0.0
H412 H 0.73506 0.30866 0.39121 0.0
C413 C 0.70276 0.41406 0.44475 0.0
H414 H 0.73241 0.37203 0.35429 0.0
C415 C 0.70419 0.37781 0.46584 0.0
C416 C 0.71645 0.33919 0.44723 0.0
H417 H 0.69444 0.44312 0.46042 0.0
H418 H 0.69677 0.38009 0.4971 0.0
C419 C 0.72546 0.33787 0.40649 0.0
C420 C 0.63631 0.95043 0.57384 0.0
C421 C 0.59436 0.96879 0.57117 0.0
H422 H 0.68902 0.937 0.61122 0.0
C423 C 0.57184 0.98134 0.60592 0.0
H424 H 0.6543 0.94036 0.5475 0.0
C425 C 0.59156 0.97883 0.64242 0.0
C426 C 0.63414 0.96443 0.64447 0.0
H427 H 0.5393 0.99517 0.60461 0.0
H428 H 0.57388 0.99117 0.66837 0.0
C429 C 0.65614 0.9486 0.61025 0.0
C430 C 0.02685 0.83962 0.96872 0.0
C431 C 0.00819 0.88096 0.95958 0.0
H432 H 0.03904 0.77674 0.95 0.0
C433 C -0.00889 0.89086 0.92183 0.0
H434 H 0.0404 0.83106 0.99755 0.0
C435 C -0.00936 0.85983 0.89454 0.0
C436 C 0.00689 0.81823 0.9046 0.0
H437 H -0.02315 0.92249 0.91379 0.0
H438 H -0.02415 0.86844 0.86623 0.0
C439 C 0.02603 0.80849 0.94152 0.0
C440 C 0.10876 0.10233 0.92543 0.0
C441 C 0.06699 0.11925 0.91871 0.0
H442 H 0.16719 0.11399 0.93462 0.0
C443 C 0.05331 0.16129 0.90923 0.0
H444 H 0.12028 0.06988 0.93218 0.0
C445 C 0.08028 0.18676 0.91079 0.0
C446 C 0.1212 0.17042 0.92176 0.0
H447 H 0.02128 0.17514 0.90372 0.0
H448 H 0.06838 0.21957 0.9063 0.0
C449 C 0.13562 0.12765 0.92689 0.0
C450 C 0.59645 0.59185 0.31493 0.0
C451 C 0.63814 0.59106 0.3148 0.0
H452 H 0.5349 0.62879 0.31466 0.0
C453 C 0.64941 0.62869 0.31595 0.0
H454 H 0.58673 0.56345 0.31407 0.0
C455 C 0.61967 0.66625 0.31558 0.0
C456 C 0.57797 0.66703 0.31487 0.0
H457 H 0.68128 0.62919 0.31564 0.0
H458 H 0.62935 0.69469 0.31527 0.0
C459 C 0.56674 0.62936 0.31537 0.0
C460 C 0.31384 0.91841 0.45633 0.0
C461 C 0.29469 0.91064 0.49135 0.0
H462 H 0.35999 0.94254 0.42991 0.0
C463 C 0.30724 0.92372 0.52773 0.0
H464 H 0.3048 0.90904 0.42773 0.0
C465 C 0.33922 0.94334 0.52897 0.0
C466 C 0.35909 0.94979 0.49387 0.0
H467 H 0.29289 0.91818 0.55518 0.0
H468 H 0.34894 0.95259 0.55733 0.0
C469 C 0.34568 0.93759 0.45758 0.0
C470 C 0.06505 0.63201 0.80754 0.0
C471 C 0.07361 0.6709 0.80674 0.0
H472 H 0.08907 0.56669 0.80631 0.0
C473 C 0.11444 0.67326 0.8074 0.0
H474 H 0.03389 0.62912 0.80724 0.0
C475 C 0.14609 0.6374 0.80709 0.0
C476 C 0.13748 0.59855 0.80582 0.0
H477 H 0.122 0.70279 0.80702 0.0
H478 H 0.17727 0.64022 0.80635 0.0
C479 C 0.09667 0.59619 0.80695 0.0
C480 C 0.84957 0.34365 0.58467 0.0
C481 C 0.80741 0.36188 0.5827 0.0
H482 H 0.90985 0.35158 0.57738 0.0
C483 C 0.79409 0.40478 0.57727 0.0
H484 H 0.86097 0.31076 0.58907 0.0
C485 C 0.82228 0.42828 0.57056 0.0
C486 C 0.86426 0.40929 0.56901 0.0
H487 H 0.76185 0.41987 0.57571 0.0
H488 H 0.811 0.46085 0.5643 0.0
C489 C 0.87765 0.36705 0.57772 0.0
C490 C 0.32974 0.87808 0.24478 0.0
C491 C 0.33381 0.91869 0.24216 0.0
H492 H 0.35928 0.8147 0.25521 0.0
C493 C 0.37287 0.92576 0.24605 0.0
H494 H 0.30013 0.87152 0.24194 0.0
C495 C 0.40692 0.89306 0.25345 0.0
C496 C 0.40252 0.85268 0.2575 0.0
H497 H 0.37708 0.95668 0.24413 0.0
H498 H 0.43646 0.89958 0.25708 0.0
C499 C 0.36366 0.8455 0.25255 0.0
C500 C 0.3464 0.41682 0.73663 0.0
C501 C 0.30709 0.41206 0.7443 0.0
H502 H 0.40894 0.38722 0.72559 0.0
C503 C 0.30051 0.37233 0.74449 0.0
H504 H 0.3523 0.44711 0.73598 0.0
C505 C 0.33314 0.33784 0.7389 0.0
C506 C 0.37272 0.3426 0.73249 0.0
H507 H 0.27048 0.36778 0.75034 0.0
H508 H 0.3275 0.30748 0.74041 0.0
C509 C 0.37883 0.38248 0.73054 0.0
C510 C 0.14316 0.75288 0.60318 0.0
C511 C 0.14401 0.79376 0.59507 0.0
H512 H 0.12089 0.71181 0.64052 0.0
C513 C 0.12189 0.82532 0.61968 0.0
H514 H 0.15943 0.7279 0.58456 0.0
C515 C 0.09946 0.81613 0.65176 0.0
C516 C 0.09876 0.77517 0.65991 0.0
H517 H 0.12192 0.85715 0.61421 0.0
H518 H 0.08259 0.84113 0.67007 0.0
C519 C 0.12095 0.74367 0.63529 0.0
C520 C 0.19609 0.93883 0.35948 0.0
C521 C 0.18687 0.98186 0.36381 0.0
H522 H 0.19439 0.88111 0.38559 0.0
C523 C 0.16337 -6e-05 0.39647 0.0
H524 H 0.2137 0.92396 0.3344 0.0
C525 C 0.15223 0.9754 0.42581 0.0
C526 C 0.16425 0.93223 0.42311 0.0
H527 H 0.15522 0.03304 0.40044 0.0
H528 H 0.1362 0.99027 0.45171 0.0
C529 C 0.18473 0.91427 0.38875 0.0
C530 C 0.93927 0.73076 0.62785 0.0
C531 C 0.95784 0.7189 0.66466 0.0
H532 H 0.92208 0.71113 0.57169 0.0
C533 C 0.96909 0.67687 0.67477 0.0
H534 H 0.92986 0.76293 0.61937 0.0
C535 C 0.96468 0.64714 0.64742 0.0
C536 C 0.94886 0.65891 0.6095 0.0
H537 H -0.01685 0.66674 0.70309 0.0
H538 H -0.02445 0.61492 0.65534 0.0
C539 C 0.93475 0.70104 0.60054 0.0
C540 C 0.32301 0.72809 0.42983 0.0
C541 C 0.30551 0.75709 0.45885 0.0
H542 H 0.36792 0.71151 0.38389 0.0
C543 C 0.32248 0.79048 0.46583 0.0
H544 H 0.31088 0.70165 0.4243 0.0
C545 C 0.35439 0.79667 0.44239 0.0
C546 C 0.37095 0.76863 0.41229 0.0
H547 H 0.31134 0.81151 0.48983 0.0
H548 H 0.36621 0.82331 0.44798 0.0
C549 C 0.3556 0.73375 0.40678 0.0
C550 C 0.29097 0.04737 0.08782 0.0
C551 C 0.26763 0.05721 0.12252 0.0
H552 H 0.30552 0.06769 0.03068 0.0
C553 C 0.24391 0.09777 0.12764 0.0
H554 H 0.30963 0.01644 0.083 0.0
C555 C 0.24177 0.12719 0.09781 0.0
C556 C 0.26301 0.11664 0.06201 0.0
H557 H 0.22583 0.10647 0.15419 0.0
H558 H 0.22198 0.15769 0.10217 0.0
C559 C 0.28854 0.07674 0.05779 0.0
C560 C 0.81238 0.78765 0.94765 0.0
C561 C 0.80732 0.74787 0.9544 0.0
H562 H 0.84324 0.82542 0.91514 0.0
C563 C 0.83107 0.71476 0.9326 0.0
H564 H 0.79467 0.81384 0.96396 0.0
C565 C 0.85929 0.7214 0.90458 0.0
C566 C 0.86404 0.76131 0.89768 0.0
H567 H 0.82786 0.68374 0.93715 0.0
H568 H 0.8772 0.69533 0.88821 0.0
C569 C 0.84027 0.7943 0.91955 0.0
C570 C 0.23868 0.60377 0.67151 0.0
C571 C 0.25589 0.56183 0.66385 0.0
H572 H 0.22877 0.66567 0.65041 0.0
C573 C 0.28188 0.55077 0.63107 0.0
H574 H 0.21876 0.61334 0.69672 0.0
C575 C 0.28803 0.58086 0.60475 0.0
C576 C 0.26789 0.62246 0.61055 0.0
H577 H 0.29598 0.51872 0.62469 0.0
H578 H 0.30638 0.57116 0.57855 0.0
C579 C 0.24445 0.63379 0.64499 0.0
C580 C 0.31699 0.0879 0.37986 0.0
C581 C 0.33954 0.07206 0.34594 0.0
H582 H 0.31828 0.09941 0.44199 0.0
C583 C 0.38233 0.06165 0.34777 0.0
H584 H 0.28394 0.09673 0.37915 0.0
C585 C 0.40206 0.06293 0.3839 0.0
C586 C 0.37927 0.07499 0.41863 0.0
H587 H 0.40053 0.04959 0.32204 0.0
H588 H 0.43498 0.05192 0.38505 0.0
C589 C 0.3367 0.08958 0.41586 0.0
C590 C 0.85408 0.86483 0.08056 0.0
C591 C 0.81541 0.89273 0.08017 0.0
H592 H 0.91873 0.85705 0.08093 0.0
C593 C 0.81255 0.93486 0.08564 0.0
H594 H 0.85718 0.83211 0.07685 0.0
C595 C 0.84783 0.94919 0.08764 0.0
C596 C 0.88654 0.92158 0.08476 0.0
H597 H 0.78317 0.95709 0.0857 0.0
H598 H 0.84476 0.98209 0.08917 0.0
C599 C 0.88936 0.87911 0.08316 0.0
C600 C 0.63811 0.13961 0.43277 0.0
C601 C 0.68008 0.12032 0.43445 0.0
H602 H 0.57727 0.13194 0.43258 0.0
C603 C 0.69268 0.07717 0.43141 0.0
H604 H 0.62724 0.17279 0.43484 0.0
C605 C 0.66385 0.05369 0.42975 0.0
C606 C 0.62191 0.07294 0.43155 0.0
H607 H 0.72476 0.06135 0.4324 0.0
H608 H 0.6745 0.02042 0.42961 0.0
C609 C 0.60938 0.11618 0.43159 0.0
C610 C 0.80626 0.36769 0.24315 0.0
C611 C 0.81075 0.40771 0.24948 0.0
H612 H 0.83603 0.30478 0.2306 0.0
C613 C 0.84938 0.4154 0.24438 0.0
H614 H 0.77685 0.36084 0.2467 0.0
C615 C 0.88316 0.38344 0.23482 0.0
C616 C 0.87912 0.343 0.23046 0.0
H617 H 0.85376 0.44601 0.24861 0.0
H618 H 0.9127 0.39024 0.23235 0.0
C619 C 0.84016 0.3356 0.23387 0.0
C620 C 0.13749 0.56324 0.4882 0.0
C621 C 0.09608 0.58373 0.49222 0.0
H622 H 0.19895 0.56889 0.48447 0.0
C623 C 0.0847 0.62704 0.49075 0.0
H624 H 0.14725 0.52992 0.48895 0.0
C625 C 0.1143 0.64938 0.48827 0.0
C626 C 0.15591 0.62892 0.48705 0.0
H627 H 0.05301 0.64384 0.49338 0.0
H628 H 0.10459 0.6827 0.48914 0.0
C629 C 0.16713 0.58562 0.48557 0.0
C630 C 0.60026 0.09312 0.76129 0.0
C631 C 0.63797 0.10361 0.76105 0.0
H632 H 0.53526 0.11461 0.7581 0.0
C633 C 0.6385 0.14525 0.75885 0.0
H634 H 0.59888 0.06125 0.76313 0.0
C635 C 0.60207 0.17574 0.75568 0.0
C636 C 0.56441 0.16518 0.755 0.0
H637 H 0.66707 0.15426 0.75857 0.0
H638 H 0.60348 0.20757 0.75333 0.0
C639 C 0.56381 0.12365 0.75846 0.0
C640 C 0.73749 0.58823 0.16983 0.0
C641 C 0.75156 0.54571 0.16298 0.0
H642 H 0.72992 0.64907 0.1466 0.0
C643 C 0.7733 0.53221 0.12798 0.0
H644 H 0.72076 0.59966 0.19655 0.0
C645 C 0.77876 0.56057 0.09938 0.0
C646 C 0.76236 0.60298 0.10509 0.0
H647 H 0.78483 0.49965 0.12196 0.0
H648 H 0.79418 0.54907 0.07204 0.0
C649 C 0.74273 0.61657 0.14114 0.0
C650 C 0.87134 0.56914 0.44656 0.0
C651 C 0.89419 0.53129 0.46179 0.0
H652 H 0.82309 0.60014 0.40807 0.0
C653 C 0.88459 0.49481 0.44962 0.0
H654 H 0.8779 0.59784 0.45541 0.0
C655 C 0.85312 0.49617 0.42244 0.0
C656 C 0.83056 0.53403 0.40685 0.0
H657 H 0.90158 0.46518 0.46083 0.0
H658 H 0.84667 0.46745 0.41348 0.0
C659 C 0.83987 0.5705 0.41941 0.0
C660 C 0.11755 0.42349 0.63487 0.0
C661 C 0.12219 0.46022 0.65195 0.0
H662 H 0.0845 0.39542 0.59386 0.0
C663 C 0.09665 0.49787 0.63906 0.0
H664 H 0.13674 0.394 0.64406 0.0
C665 C 0.06703 0.49873 0.60995 0.0
C666 C 0.06191 0.46193 0.59339 0.0
H667 H 0.09959 0.52678 0.65137 0.0
H668 H 0.04777 0.52822 0.60084 0.0
C669 C 0.08759 0.42432 0.60608 0.0
C670 C 0.62555 0.73809 0.13707 0.0
C671 C 0.60497 0.76935 0.16274 0.0
H672 H 0.66589 0.72172 0.08787 0.0
C673 C 0.60977 0.8095 0.15752 0.0
H674 H 0.62234 0.70689 0.14003 0.0
C675 C 0.63514 0.818 0.12755 0.0
C676 C 0.65596 0.78654 0.10215 0.0
H677 H 0.59423 0.83429 0.17678 0.0
H678 H 0.63868 0.84907 0.12451 0.0
C679 C 0.65057 0.74662 0.10707 0.0
C680 C 0.60881 0.45235 0.14935 0.0
C681 C 0.61008 0.49301 0.15798 0.0
H682 H 0.58445 0.41256 0.1122 0.0
C683 C 0.58759 0.5252 0.13416 0.0
H684 H 0.62594 0.42683 0.16702 0.0
C685 C 0.56413 0.51699 0.10265 0.0
C686 C 0.56241 0.47643 0.0943 0.0
H687 H 0.58807 0.55686 0.13977 0.0
H688 H 0.54724 0.54252 0.08491 0.0
C689 C 0.58519 0.44414 0.11783 0.0
C690 C 0.41019 0.34279 0.06528 0.0
C691 C 0.39214 0.38516 0.06094 0.0
H692 H 0.40088 0.28224 0.0699 0.0
C693 C 0.34953 0.39934 0.06332 0.0
H694 H 0.44303 0.33096 0.06411 0.0
C695 C 0.32531 0.37134 0.06659 0.0
C696 C 0.34332 0.32869 0.06775 0.0
H697 H 0.33474 0.43182 0.06034 0.0
H698 H 0.29244 0.38302 0.06603 0.0
C699 C 0.38602 0.31484 0.06881 0.0
C700 C 0.10812 0.17146 0.25349 0.0
C701 C 0.06932 0.16342 0.254 0.0
H702 H 0.17269 0.14644 0.25199 0.0
C703 C 0.06645 0.12236 0.25479 0.0
H704 H 0.1114 0.20277 0.25295 0.0
C705 C 0.10168 0.09001 0.25415 0.0
C706 C 0.14044 0.09812 0.25278 0.0
H707 H 0.037 0.11517 0.25517 0.0
H708 H 0.0985 0.05866 0.25422 0.0
C709 C 0.14329 0.13917 0.25291 0.0
C710 C 0.18252 0.42359 0.96292 0.0
C711 C 0.19933 0.38219 0.9527 0.0
H712 H 0.17171 0.48675 0.94541 0.0
C713 C 0.21365 0.37279 0.91389 0.0
H714 H 0.17089 0.43188 0.99247 0.0
C715 C 0.21404 0.4043 0.88686 0.0
C716 C 0.20021 0.44581 0.89815 0.0
H717 H 0.22652 0.34118 0.90497 0.0
H718 H 0.22718 0.39607 0.85783 0.0
C719 C 0.18301 0.4551 0.93594 0.0
C720 C 0.35272 0.24119 0.94567 0.0
C721 C 0.32343 0.2195 0.93655 0.0
H722 H 0.40146 0.26526 0.92393 0.0
C723 C 0.32441 0.20059 0.89934 0.0
H724 H 0.35245 0.2563 0.97404 0.0
C725 C 0.35302 0.20506 0.87094 0.0
C726 C 0.38018 0.22942 0.87911 0.0
H727 H 0.30209 0.18369 0.89173 0.0
H728 H 0.35219 0.19166 0.84187 0.0
C729 C 0.38054 0.24655 0.91696 0.0
C730 C 0.40048 0.47295 0.94409 0.0
C731 C 0.40241 0.51298 0.95455 0.0
H732 H 0.372 0.43553 0.90844 0.0
C733 C 0.37542 0.54676 0.93628 0.0
H734 H 0.42083 0.44621 0.95755 0.0
C735 C 0.34735 0.54061 0.90792 0.0
C736 C 0.34569 0.50054 0.89725 0.0
H737 H 0.37616 0.57798 0.94364 0.0
H738 H 0.32706 0.56726 0.89427 0.0
C739 C 0.37248 0.46682 0.91582 0.0
C740 C 0.63617 0.60856 0.97283 0.0
C741 C 0.63652 0.6499 0.97879 0.0
H742 H 0.60034 0.56436 0.9715 0.0
C743 C 0.59917 0.6797 0.98224 0.0
H744 H 0.66439 0.5849 0.96983 0.0
C745 C 0.56241 0.66796 0.98296 0.0
C746 C 0.56236 0.62617 0.98057 0.0
H747 H 0.59841 0.7119 0.98645 0.0
H748 H 0.53436 0.69139 0.98788 0.0
C749 C 0.59943 0.59678 0.97387 0.0
C750 C 0.86023 0.85394 0.74809 0.0
C751 C 0.89915 0.85937 0.75635 0.0
H752 H 0.79742 0.88255 0.73746 0.0
C753 C 0.90462 0.8995 0.75848 0.0
H754 H 0.8551 0.82339 0.746 0.0
C755 C 0.87138 0.9336 0.75376 0.0
C756 C 0.83224 0.92806 0.74656 0.0
H757 H 0.93432 0.9046 0.76483 0.0
H758 H 0.87622 0.96419 0.75653 0.0
C759 C 0.82717 0.8879 0.74311 0.0
C760 C 0.44401 0.19511 0.57304 0.0
C761 C 0.44405 0.19081 0.61454 0.0
H762 H 0.44988 0.16495 0.51664 0.0
C763 C 0.44701 0.15153 0.63075 0.0
H764 H 0.44205 0.22484 0.55947 0.0
C765 C 0.45119 0.11718 0.60607 0.0
C766 C 0.4531 0.12122 0.56463 0.0
H767 H 0.44726 0.14711 0.66255 0.0
H768 H 0.45444 0.0872 0.61958 0.0
C769 C 0.44876 0.1607 0.5484 0.0
C770 C 0.50081 0.33015 0.85932 0.0
C771 C 0.51534 0.28708 0.86152 0.0
H772 H 0.49315 0.3878 0.88927 0.0
C773 C 0.53833 0.26966 0.89477 0.0
H774 H 0.48315 0.34458 0.83404 0.0
C775 C 0.54396 0.29438 0.92647 0.0
C776 C 0.5269 0.33712 0.92556 0.0
H777 H 0.55031 0.23663 0.89729 0.0
H778 H 0.56007 0.27971 0.95247 0.0
C779 C 0.50661 0.35494 0.89101 0.0
C780 C 0.50525 0.87987 0.38233 0.0
C781 C 0.50878 0.84357 0.40464 0.0
H782 H 0.5026 0.94458 0.3832 0.0
C783 C 0.51594 0.84476 0.44558 0.0
H784 H 0.49974 0.88009 0.35071 0.0
C785 C 0.51737 0.88162 0.46409 0.0
C786 C 0.51201 0.91832 0.44219 0.0
H787 H 0.51897 0.81749 0.46374 0.0
H788 H 0.52149 0.88158 0.49592 0.0
C789 C 0.50702 0.91684 0.4009 0.0
C790 C 0.47197 0.64135 0.14535 0.0
C791 C 0.44698 0.6546 0.11214 0.0
H792 H 0.49911 0.6587 0.19775 0.0
C793 C 0.42694 0.69657 0.1087 0.0
H794 H 0.48778 0.6092 0.14899 0.0
C795 C 0.43373 0.725 0.13649 0.0
C796 C 0.46041 0.71204 0.16853 0.0
H797 H 0.40744 0.70785 0.08355 0.0
H798 H 0.41908 0.75734 0.13212 0.0
C799 C 0.47846 0.66974 0.17334 0.0
loop_
_geom_bond_atom_site_label_1
_geom_bond_atom_site_label_2
_geom_bond_distance
_geom_bond_site_symmetry_2
_ccdc_geom_bond_type
Zn0 O6 1.969 1_554 S
Zn0 O7 1.965 . S
Zn0 O11 2.024 1_455 S
Zn0 O16 1.969 1_454 S
Zn1 O8 1.969 1_656 S
Zn1 O14 1.969 1_556 S
Zn1 O15 1.965 1_565 S
Zn1 O17 2.024 1_655 S
C2 O3 1.229 . S
C2 O11 1.058 . S
O3 C2 1.229 . S
C4 O5 1.229 . S
C4 O17 1.058 . S
O5 C4 1.229 . S
O6 Zn0 1.969 1_556 S
O6 C9 1.267 . S
O7 Zn0 1.965 . S
O7 C18 1.260 1_545 S
O8 Zn1 1.969 1_454 S
O8 C18 1.258 . S
C9 O6 1.267 . S
C9 O10 1.228 1_556 S
O10 C9 1.228 1_554 S
O11 Zn0 2.024 1_655 S
O11 C2 1.058 . S
C12 O13 1.228 1_554 S
C12 O14 1.267 . S
O13 C12 1.228 1_556 S
O14 Zn1 1.969 1_554 S
O14 C12 1.267 . S
O15 Zn1 1.965 1_545 S
O15 C19 1.260 . S
O16 Zn0 1.969 1_656 S
O16 C19 1.258 . S
O17 Zn1 2.024 1_455 S
O17 C4 1.058 . S
C18 O7 1.260 1_565 S
C18 O8 1.258 . S
C19 O15 1.260 . S
C19 O16 1.258 . S
Zn20 O26 1.969 1_455 S
Zn20 O27 1.965 1_455 S
Zn20 O31 2.024 . S
Zn20 O36 1.969 . S
Zn21 O28 1.969 1_455 S
Zn21 O34 1.969 . S
Zn21 O35 1.965 . S
Zn21 O37 2.024 . S
C22 O23 1.229 . S
C22 O31 1.058 . S
O23 C22 1.229 . S
C24 O25 1.229 . S
C24 O37 1.058 . S
O25 C24 1.229 . S
O26 Zn20 1.969 1_655 S
O26 C29 1.267 . S
O27 Zn20 1.965 1_655 S
O27 C38 1.260 . S
O28 Zn21 1.969 1_655 S
O28 C38 1.258 . S
C29 O26 1.267 . S
C29 O30 1.228 . S
O30 C29 1.228 . S
O31 Zn20 2.024 . S
O31 C22 1.058 . S
C32 O33 1.228 . S
C32 O34 1.267 . S
O33 C32 1.228 . S
O34 Zn21 1.969 . S
O34 C32 1.267 . S
O35 Zn21 1.965 . S
O35 C39 1.260 . S
O36 Zn20 1.969 . S
O36 C39 1.258 . S
O37 Zn21 2.024 . S
O37 C24 1.058 . S
C38 O27 1.260 . S
C38 O28 1.258 . S
C39 O35 1.260 . S
C39 O36 1.258 . S
Zn40 O46 1.969 . S
Zn40 O47 1.965 . S
Zn40 O51 2.024 . S
Zn40 O56 1.969 . S
Zn41 O48 1.969 . S
Zn41 O54 1.969 . S
Zn41 O55 1.965 . S
Zn41 O57 2.024 . S
C42 O43 1.229 . S
C42 O51 1.058 . S
O43 C42 1.229 . S
C44 O45 1.229 . S
C44 O57 1.058 . S
O45 C44 1.229 . S
O46 Zn40 1.969 . S
O46 C49 1.267 . S
O47 Zn40 1.965 . S
O47 C58 1.260 . S
O48 Zn41 1.969 . S
O48 C58 1.258 . S
C49 O46 1.267 . S
C49 O50 1.228 . S
O50 C49 1.228 . S
O51 Zn40 2.024 . S
O51 C42 1.058 . S
C52 O53 1.228 . S
C52 O54 1.267 . S
O53 C52 1.228 . S
O54 Zn41 1.969 . S
O54 C52 1.267 . S
O55 Zn41 1.965 . S
O55 C59 1.260 . S
O56 Zn40 1.969 . S
O56 C59 1.258 . S
O57 Zn41 2.024 . S
O57 C44 1.058 . S
C58 O47 1.260 . S
C58 O48 1.258 . S
C59 O55 1.260 . S
C59 O56 1.258 . S
Zn60 O66 1.969 . S
Zn60 O67 1.965 . S
Zn60 O71 2.024 1_545 S
Zn60 O76 1.969 . S
Zn61 O68 1.969 . S
Zn61 O74 1.969 . S
Zn61 O75 1.965 . S
Zn61 O77 2.024 . S
C62 O63 1.229 1_565 S
C62 O71 1.058 . S
O63 C62 1.229 1_545 S
C64 O65 1.229 . S
C64 O77 1.058 . S
O65 C64 1.229 . S
O66 Zn60 1.969 . S
O66 C69 1.267 . S
O67 Zn60 1.965 . S
O67 C78 1.260 1_545 S
O68 Zn61 1.969 . S
O68 C78 1.258 1_545 S
C69 O66 1.267 . S
C69 O70 1.228 1_545 S
O70 C69 1.228 1_565 S
O71 Zn60 2.024 1_565 S
O71 C62 1.058 . S
C72 O73 1.228 . S
C72 O74 1.267 . S
O73 C72 1.228 . S
O74 Zn61 1.969 . S
O74 C72 1.267 . S
O75 Zn61 1.965 . S
O75 C79 1.260 . S
O76 Zn60 1.969 . S
O76 C79 1.258 . S
O77 Zn61 2.024 . S
O77 C64 1.058 . S
C78 O67 1.260 1_565 S
C78 O68 1.258 1_565 S
C79 O75 1.260 . S
C79 O76 1.258 . S
Zn80 O86 1.969 . S
Zn80 O87 1.965 . S
Zn80 O91 2.024 . S
Zn80 O96 1.969 . S
Zn81 O88 1.969 . S
Zn81 O94 1.969 . S
Zn81 O95 1.965 . S
Zn81 O97 2.024 . S
C82 O83 1.229 . S
C82 O91 1.058 . S
O83 C82 1.229 . S
C84 O85 1.229 . S
C84 O97 1.058 . S
O85 C84 1.229 . S
O86 Zn80 1.969 . S
O86 C89 1.267 . S
O87 Zn80 1.965 . S
O87 C98 1.260 . S
O88 Zn81 1.969 . S
O88 C98 1.258 . S
C89 O86 1.267 . S
C89 O90 1.228 . S
O90 C89 1.228 . S
O91 Zn80 2.024 . S
O91 C82 1.058 . S
C92 O93 1.228 . S
C92 O94 1.267 . S
O93 C92 1.228 . S
O94 Zn81 1.969 . S
O94 C92 1.267 . S
O95 Zn81 1.965 . S
O95 C99 1.260 . S
O96 Zn80 1.969 . S
O96 C99 1.258 . S
O97 Zn81 2.024 . S
O97 C84 1.058 . S
C98 O87 1.260 . S
C98 O88 1.258 . S
C99 O95 1.260 . S
C99 O96 1.258 . S
Zn100 O106 1.969 . S
Zn100 O107 1.965 . S
Zn100 O111 2.024 . S
Zn100 O116 1.969 . S
Zn101 O108 1.969 . S
Zn101 O114 1.969 . S
Zn101 O115 1.965 . S
Zn101 O117 2.024 . S
C102 O103 1.229 . S
C102 O111 1.058 . S
O103 C102 1.229 . S
C104 O105 1.229 . S
C104 O117 1.058 . S
O105 C104 1.229 . S
O106 Zn100 1.969 . S
O106 C109 1.267 . S
O107 Zn100 1.965 . S
O107 C118 1.260 . S
O108 Zn101 1.969 . S
O108 C118 1.258 . S
C109 O106 1.267 . S
C109 O110 1.228 . S
O110 C109 1.228 . S
O111 Zn100 2.024 . S
O111 C102 1.058 . S
C112 O113 1.228 . S
C112 O114 1.267 . S
O113 C112 1.228 . S
O114 Zn101 1.969 . S
O114 C112 1.267 . S
O115 Zn101 1.965 . S
O115 C119 1.260 . S
O116 Zn100 1.969 . S
O116 C119 1.258 . S
O117 Zn101 2.024 . S
O117 C104 1.058 . S
C118 O107 1.260 . S
C118 O108 1.258 . S
C119 O115 1.260 . S
C119 O116 1.258 . S
Zn120 O126 1.969 . S
Zn120 O127 1.965 . S
Zn120 O131 2.024 . S
Zn120 O136 1.969 . S
Zn121 O128 1.969 . S
Zn121 O134 1.969 . S
Zn121 O135 1.965 . S
Zn121 O137 2.024 . S
C122 O123 1.229 . S
C122 O131 1.058 . S
O123 C122 1.229 . S
C124 O125 1.229 . S
C124 O137 1.058 . S
O125 C124 1.229 . S
O126 Zn120 1.969 . S
O126 C129 1.267 . S
O127 Zn120 1.965 . S
O127 C138 1.260 . S
O128 Zn121 1.969 . S
O128 C138 1.258 . S
C129 O126 1.267 . S
C129 O130 1.228 . S
O130 C129 1.228 . S
O131 Zn120 2.024 . S
O131 C122 1.058 . S
C132 O133 1.228 . S
C132 O134 1.267 . S
O133 C132 1.228 . S
O134 Zn121 1.969 . S
O134 C132 1.267 . S
O135 Zn121 1.965 . S
O135 C139 1.260 . S
O136 Zn120 1.969 . S
O136 C139 1.258 . S
O137 Zn121 2.024 . S
O137 C124 1.058 . S
C138 O127 1.260 . S
C138 O128 1.258 . S
C139 O135 1.260 . S
C139 O136 1.258 . S
Zn140 O146 1.969 . S
Zn140 O147 1.965 . S
Zn140 O151 2.024 . S
Zn140 O156 1.969 1_455 S
Zn141 O148 1.969 . S
Zn141 O154 1.969 1_455 S
Zn141 O155 1.965 1_455 S
Zn141 O157 2.024 . S
C142 O143 1.229 . S
C142 O151 1.058 1_655 S
O143 C142 1.229 . S
C144 O145 1.229 . S
C144 O157 1.058 . S
O145 C144 1.229 . S
O146 Zn140 1.969 . S
O146 C149 1.267 . S
O147 Zn140 1.965 . S
O147 C158 1.260 . S
O148 Zn141 1.969 . S
O148 C158 1.258 . S
C149 O146 1.267 . S
C149 O150 1.228 . S
O150 C149 1.228 . S
O151 Zn140 2.024 . S
O151 C142 1.058 1_455 S
C152 O153 1.228 . S
C152 O154 1.267 . S
O153 C152 1.228 . S
O154 Zn141 1.969 1_655 S
O154 C152 1.267 . S
O155 Zn141 1.965 1_655 S
O155 C159 1.260 . S
O156 Zn140 1.969 1_655 S
O156 C159 1.258 . S
O157 Zn141 2.024 . S
O157 C144 1.058 . S
C158 O147 1.260 . S
C158 O148 1.258 . S
C159 O155 1.260 . S
C159 O156 1.258 . S
Zn160 O166 1.969 1_554 S
Zn160 O167 1.965 . S
Zn160 O171 2.024 . S
Zn160 O176 1.969 1_554 S
Zn161 O168 1.969 1_556 S
Zn161 O174 1.969 1_556 S
Zn161 O175 1.965 . S
Zn161 O177 2.024 . S
C162 O163 1.229 . S
C162 O171 1.058 . S
O163 C162 1.229 . S
C164 O165 1.229 . S
C164 O177 1.058 . S
O165 C164 1.229 . S
O166 Zn160 1.969 1_556 S
O166 C169 1.267 . S
O167 Zn160 1.965 . S
O167 C178 1.260 . S
O168 Zn161 1.969 1_554 S
O168 C178 1.258 . S
C169 O166 1.267 . S
C169 O170 1.228 1_556 S
O170 C169 1.228 1_554 S
O171 Zn160 2.024 . S
O171 C162 1.058 . S
C172 O173 1.228 1_554 S
C172 O174 1.267 . S
O173 C172 1.228 1_556 S
O174 Zn161 1.969 1_554 S
O174 C172 1.267 . S
O175 Zn161 1.965 . S
O175 C179 1.260 . S
O176 Zn160 1.969 1_556 S
O176 C179 1.258 . S
O177 Zn161 2.024 . S
O177 C164 1.058 . S
C178 O167 1.260 . S
C178 O168 1.258 . S
C179 O175 1.260 . S
C179 O176 1.258 . S
Zn180 O186 1.969 1_565 S
Zn180 O187 1.965 . S
Zn180 O191 2.024 . S
Zn180 O196 1.969 1_565 S
Zn181 O188 1.969 1_545 S
Zn181 O194 1.969 1_545 S
Zn181 O195 1.965 . S
Zn181 O197 2.024 . S
C182 O183 1.229 . S
C182 O191 1.058 . S
O183 C182 1.229 . S
C184 O185 1.229 . S
C184 O197 1.058 . S
O185 C184 1.229 . S
O186 Zn180 1.969 1_545 S
O186 C189 1.271 . S
O187 Zn180 1.965 . S
O187 C198 1.260 . S
O188 Zn181 1.969 1_565 S
O188 C198 1.258 . S
C189 O186 1.271 . S
C189 O190 1.220 1_545 S
O190 C189 1.220 1_565 S
O191 Zn180 2.024 . S
O191 C182 1.058 . S
C192 O193 1.247 . S
C192 O194 1.259 1_545 S
O193 C192 1.247 . S
O194 Zn181 1.969 1_565 S
O194 C192 1.259 1_565 S
O195 Zn181 1.965 . S
O195 C199 1.260 . S
O196 Zn180 1.969 1_545 S
O196 C199 1.258 . S
O197 Zn181 2.024 . S
O197 C184 1.058 . S
C198 O187 1.260 . S
C198 O188 1.258 . S
C199 O195 1.260 . S
C199 O196 1.258 . S
Zn200 O206 1.969 . S
Zn200 O207 1.965 . S
Zn200 O211 2.024 . S
Zn200 O216 1.969 . S
Zn201 O208 1.969 . S
Zn201 O214 1.969 . S
Zn201 O215 1.965 . S
Zn201 O217 2.024 . S
C202 O203 1.229 . S
C202 O211 1.058 . S
O203 C202 1.229 . S
C204 O205 1.229 . S
C204 O217 1.058 . S
O205 C204 1.229 . S
O206 Zn200 1.969 . S
O206 C209 1.267 . S
O207 Zn200 1.965 . S
O207 C218 1.260 . S
O208 Zn201 1.969 . S
O208 C218 1.258 . S
C209 O206 1.267 . S
C209 O210 1.228 . S
O210 C209 1.228 . S
O211 Zn200 2.024 . S
O211 C202 1.058 . S
C212 O213 1.228 . S
C212 O214 1.267 . S
O213 C212 1.228 . S
O214 Zn201 1.969 . S
O214 C212 1.267 . S
O215 Zn201 1.965 . S
O215 C219 1.260 . S
O216 Zn200 1.969 . S
O216 C219 1.258 . S
O217 Zn201 2.024 . S
O217 C204 1.058 . S
C218 O207 1.260 . S
C218 O208 1.258 . S
C219 O215 1.260 . S
C219 O216 1.258 . S
Zn220 O226 1.969 . S
Zn220 O227 1.965 . S
Zn220 O231 2.024 1_655 S
Zn220 O236 1.969 1_655 S
Zn221 O228 1.969 1_455 S
Zn221 O234 1.969 . S
Zn221 O235 1.965 . S
Zn221 O237 2.024 1_455 S
C222 O223 1.229 . S
C222 O231 1.058 . S
O223 C222 1.229 . S
C224 O225 1.229 . S
C224 O237 1.058 . S
O225 C224 1.229 . S
O226 Zn220 1.969 . S
O226 C229 1.267 . S
O227 Zn220 1.965 . S
O227 C238 1.260 . S
O228 Zn221 1.969 1_655 S
O228 C238 1.258 . S
C229 O226 1.267 . S
C229 O230 1.228 . S
O230 C229 1.228 . S
O231 Zn220 2.024 1_455 S
O231 C222 1.058 . S
C232 O233 1.228 . S
C232 O234 1.267 . S
O233 C232 1.228 . S
O234 Zn221 1.969 . S
O234 C232 1.267 . S
O235 Zn221 1.965 . S
O235 C239 1.260 . S
O236 Zn220 1.969 1_455 S
O236 C239 1.258 . S
O237 Zn221 2.024 1_655 S
O237 C224 1.058 . S
C238 O227 1.260 . S
C238 O228 1.258 . S
C239 O235 1.260 . S
C239 O236 1.258 . S
Zn240 O246 1.969 . S
Zn240 O247 1.965 . S
Zn240 O251 2.024 . S
Zn240 O256 1.969 . S
Zn241 O248 1.969 . S
Zn241 O254 1.969 . S
Zn241 O255 1.965 . S
Zn241 O257 2.024 . S
C242 O243 1.229 . S
C242 O251 1.058 . S
O243 C242 1.229 . S
C244 O245 1.229 . S
C244 O257 1.058 . S
O245 C244 1.229 . S
O246 Zn240 1.969 . S
O246 C249 1.267 . S
O247 Zn240 1.965 . S
O247 C258 1.260 . S
O248 Zn241 1.969 . S
O248 C258 1.258 . S
C249 O246 1.267 . S
C249 O250 1.228 . S
O250 C249 1.228 . S
O251 Zn240 2.024 . S
O251 C242 1.058 . S
C252 O253 1.228 . S
C252 O254 1.267 . S
O253 C252 1.228 . S
O254 Zn241 1.969 . S
O254 C252 1.267 . S
O255 Zn241 1.965 . S
O255 C259 1.260 . S
O256 Zn240 1.969 . S
O256 C259 1.258 . S
O257 Zn241 2.024 . S
O257 C244 1.058 . S
C258 O247 1.260 . S
C258 O248 1.258 . S
C259 O255 1.260 . S
C259 O256 1.258 . S
Zn260 O266 1.969 1_554 S
Zn260 O267 1.965 . S
Zn260 O271 2.024 . S
Zn260 O276 1.969 1_554 S
Zn261 O268 1.969 . S
Zn261 O274 1.969 . S
Zn261 O275 1.965 1_554 S
Zn261 O277 2.024 1_554 S
C262 O263 1.229 . S
C262 O271 1.058 . S
O263 C262 1.229 . S
C264 O265 1.229 . S
C264 O277 1.058 . S
O265 C264 1.229 . S
O266 Zn260 1.969 1_556 S
O266 C269 1.267 1_556 S
O267 Zn260 1.965 . S
O267 C278 1.260 . S
O268 Zn261 1.969 . S
O268 C278 1.258 . S
C269 O266 1.267 1_554 S
C269 O270 1.228 . S
O270 C269 1.228 . S
O271 Zn260 2.024 . S
O271 C262 1.058 . S
C272 O273 1.228 1_554 S
C272 O274 1.267 . S
O273 C272 1.228 1_556 S
O274 Zn261 1.969 . S
O274 C272 1.267 . S
O275 Zn261 1.965 1_556 S
O275 C279 1.260 . S
O276 Zn260 1.969 1_556 S
O276 C279 1.258 . S
O277 Zn261 2.024 1_556 S
O277 C264 1.058 . S
C278 O267 1.260 . S
C278 O268 1.258 . S
C279 O275 1.260 . S
C279 O276 1.258 . S
Zn280 O286 1.969 1_545 S
Zn280 O287 1.965 1_545 S
Zn280 O291 2.024 . S
Zn280 O296 1.969 . S
Zn281 O288 1.969 1_545 S
Zn281 O294 1.969 . S
Zn281 O295 1.965 . S
Zn281 O297 2.024 . S
C282 O283 1.229 . S
C282 O291 1.058 . S
O283 C282 1.229 . S
C284 O285 1.229 . S
C284 O297 1.058 . S
O285 C284 1.229 . S
O286 Zn280 1.969 1_565 S
O286 C289 1.267 . S
O287 Zn280 1.965 1_565 S
O287 C298 1.260 . S
O288 Zn281 1.969 1_565 S
O288 C298 1.258 . S
C289 O286 1.267 . S
C289 O290 1.228 . S
O290 C289 1.228 . S
O291 Zn280 2.024 . S
O291 C282 1.058 . S
C292 O293 1.228 . S
C292 O294 1.267 . S
O293 C292 1.228 . S
O294 Zn281 1.969 . S
O294 C292 1.267 . S
O295 Zn281 1.965 . S
O295 C299 1.260 . S
O296 Zn280 1.969 . S
O296 C299 1.258 . S
O297 Zn281 2.024 . S
O297 C284 1.058 . S
C298 O287 1.260 . S
C298 O288 1.258 . S
C299 O295 1.260 . S
C299 O296 1.258 . S
Zn300 O306 1.969 1_554 S
Zn300 O307 1.965 . S
Zn300 O311 2.024 . S
Zn300 O316 1.969 1_554 S
Zn301 O308 1.969 . S
Zn301 O314 1.969 . S
Zn301 O315 1.965 1_554 S
Zn301 O317 2.024 1_554 S
C302 O303 1.229 . S
C302 O311 1.058 . S
O303 C302 1.229 . S
C304 O305 1.229 . S
C304 O317 1.058 . S
O305 C304 1.229 . S
O306 Zn300 1.969 1_556 S
O306 C309 1.267 1_556 S
O307 Zn300 1.965 . S
O307 C318 1.260 . S
O308 Zn301 1.969 . S
O308 C318 1.258 . S
C309 O306 1.267 1_554 S
C309 O310 1.228 . S
O310 C309 1.228 . S
O311 Zn300 2.024 . S
O311 C302 1.058 . S
C312 O313 1.228 1_554 S
C312 O314 1.267 . S
O313 C312 1.228 1_556 S
O314 Zn301 1.969 . S
O314 C312 1.267 . S
O315 Zn301 1.965 1_556 S
O315 C319 1.260 . S
O316 Zn300 1.969 1_556 S
O316 C319 1.258 . S
O317 Zn301 2.024 1_556 S
O317 C304 1.058 . S
C318 O307 1.260 . S
C318 O308 1.258 . S
C319 O315 1.260 . S
C319 O316 1.258 . S
C320 C321 1.387 . S
C320 H324 0.950 . S
C320 C329 1.390 . S
C321 C320 1.387 . S
C321 C323 1.387 . S
H322 C329 0.950 . S
C323 C321 1.387 . S
C323 C325 1.390 . S
C323 H327 0.950 . S
H324 C320 0.950 . S
C325 C323 1.390 . S
C325 C326 1.387 . S
C325 H328 0.950 1_655 S
C326 C325 1.387 . S
C326 C329 1.387 . S
H327 C323 0.950 . S
H328 C325 0.950 1_455 S
C329 C320 1.390 . S
C329 H322 0.950 . S
C329 C326 1.387 . S
C330 C331 1.387 . S
C330 H334 0.950 . S
C330 C339 1.390 . S
C331 C330 1.387 . S
C331 C333 1.387 . S
H332 C339 0.950 . S
C333 C331 1.387 . S
C333 C335 1.390 . S
C333 H337 0.950 . S
H334 C330 0.950 . S
C335 C333 1.390 . S
C335 C336 1.387 . S
C335 H338 0.950 . S
C336 C335 1.387 . S
C336 C339 1.387 . S
H337 C333 0.950 . S
H338 C335 0.950 . S
C339 C330 1.390 . S
C339 H332 0.950 . S
C339 C336 1.387 . S
C340 C341 1.387 . S
C340 H344 0.950 . S
C340 C349 1.390 . S
C341 C340 1.387 . S
C341 C343 1.387 . S
H342 C349 0.950 . S
C343 C341 1.387 . S
C343 C345 1.390 . S
C343 H347 0.950 . S
H344 C340 0.950 . S
C345 C343 1.390 . S
C345 C346 1.387 . S
C345 H348 0.950 . S
C346 C345 1.387 . S
C346 C349 1.387 . S
H347 C343 0.950 . S
H348 C345 0.950 . S
C349 C340 1.390 . S
C349 H342 0.950 . S
C349 C346 1.387 . S
C350 C351 1.387 . S
C350 H354 0.950 . S
C350 C359 1.390 . S
C351 C350 1.387 . S
C351 C353 1.387 . S
H352 C359 0.950 . S
C353 C351 1.387 . S
C353 C355 1.390 . S
C353 H357 0.950 1_545 S
H354 C350 0.950 . S
C355 C353 1.390 . S
C355 C356 1.387 . S
C355 H358 0.950 1_545 S
C356 C355 1.387 . S
C356 C359 1.387 . S
H357 C353 0.950 1_565 S
H358 C355 0.950 1_565 S
C359 C350 1.390 . S
C359 H352 0.950 . S
C359 C356 1.387 . S
C360 C361 1.387 1_545 S
C360 H364 0.950 . S
C360 C369 1.390 . S
C361 C360 1.387 1_565 S
C361 C363 1.387 . S
H362 C369 0.950 . S
C363 C361 1.387 . S
C363 C365 1.390 . S
C363 H367 0.950 . S
H364 C360 0.950 . S
C365 C363 1.390 . S
C365 C366 1.387 . S
C365 H368 0.950 . S
C366 C365 1.387 . S
C366 C369 1.387 1_565 S
H367 C363 0.950 . S
H368 C365 0.950 . S
C369 C360 1.390 . S
C369 H362 0.950 . S
C369 C366 1.387 1_545 S
C370 C371 1.387 . S
C370 H374 0.950 . S
C370 C379 1.390 . S
C371 C370 1.387 . S
C371 C373 1.387 . S
H372 C379 0.950 . S
C373 C371 1.387 . S
C373 C375 1.390 . S
C373 H377 0.950 . S
H374 C370 0.950 . S
C375 C373 1.390 . S
C375 C376 1.387 . S
C375 H378 0.950 . S
C376 C375 1.387 . S
C376 C379 1.387 . S
H377 C373 0.950 . S
H378 C375 0.950 . S
C379 C370 1.390 . S
C379 H372 0.950 . S
C379 C376 1.387 . S
C380 C381 1.387 . S
C380 H384 0.950 . S
C380 C389 1.390 . S
C381 C380 1.387 . S
C381 C383 1.387 . S
H382 C389 0.950 . S
C383 C381 1.387 . S
C383 C385 1.390 . S
C383 H387 0.950 . S
H384 C380 0.950 . S
C385 C383 1.390 . S
C385 C386 1.387 . S
C385 H388 0.950 . S
C386 C385 1.387 . S
C386 C389 1.387 . S
H387 C383 0.950 . S
H388 C385 0.950 . S
C389 C380 1.390 . S
C389 H382 0.950 . S
C389 C386 1.387 . S
C390 C391 1.387 . S
C390 H394 0.950 . S
C390 C399 1.390 . S
C391 C390 1.387 . S
C391 C393 1.387 . S
H392 C399 0.950 . S
C393 C391 1.387 . S
C393 C395 1.390 . S
C393 H397 0.950 . S
H394 C390 0.950 . S
C395 C393 1.390 . S
C395 C396 1.387 . S
C395 H398 0.950 . S
C396 C395 1.387 . S
C396 C399 1.387 . S
H397 C393 0.950 . S
H398 C395 0.950 . S
C399 C390 1.390 . S
C399 H392 0.950 . S
C399 C396 1.387 . S
C400 C401 1.387 . S
C400 H404 0.950 . S
C400 C409 1.390 . S
C401 C400 1.387 . S
C401 C403 1.387 . S
H402 C409 0.950 . S
C403 C401 1.387 . S
C403 C405 1.390 . S
C403 H407 0.950 . S
H404 C400 0.950 . S
C405 C403 1.390 . S
C405 C406 1.387 . S
C405 H408 0.950 . S
C406 C405 1.387 . S
C406 C409 1.387 . S
H407 C403 0.950 . S
H408 C405 0.950 . S
C409 C400 1.390 . S
C409 H402 0.950 . S
C409 C406 1.387 . S
C410 C411 1.387 . S
C410 H414 0.950 . S
C410 C419 1.390 . S
C411 C410 1.387 . S
C411 C413 1.387 . S
H412 C419 0.950 . S
C413 C411 1.387 . S
C413 C415 1.390 . S
C413 H417 0.950 . S
H414 C410 0.950 . S
C415 C413 1.390 . S
C415 C416 1.387 . S
C415 H418 0.950 . S
C416 C415 1.387 . S
C416 C419 1.387 . S
H417 C413 0.950 . S
H418 C415 0.950 . S
C419 C410 1.390 . S
C419 H412 0.950 . S
C419 C416 1.387 . S
C420 C421 1.387 . S
C420 H424 0.950 . S
C420 C429 1.390 . S
C421 C420 1.387 . S
C421 C423 1.387 1_565 S
H422 C429 0.950 . S
C423 C421 1.387 1_545 S
C423 C425 1.390 . S
C423 H427 0.950 . S
H424 C420 0.950 . S
C425 C423 1.390 . S
C425 C426 1.387 . S
C425 H428 0.950 . S
C426 C425 1.387 . S
C426 C429 1.387 1_545 S
H427 C423 0.950 . S
H428 C425 0.950 . S
C429 C420 1.390 . S
C429 H422 0.950 . S
C429 C426 1.387 1_565 S
C430 C431 1.387 . S
C430 H434 0.950 . S
C430 C439 1.390 . S
C431 C430 1.387 . S
C431 C433 1.387 . S
H432 C439 0.950 . S
C433 C431 1.387 . S
C433 C435 1.390 . S
C433 H437 0.950 . S
H434 C430 0.950 . S
C435 C433 1.390 . S
C435 C436 1.387 . S
C435 H438 0.950 . S
C436 C435 1.387 . S
C436 C439 1.387 . S
H437 C433 0.950 . S
H438 C435 0.950 . S
C439 C430 1.390 . S
C439 H432 0.950 . S
C439 C436 1.387 . S
C440 C441 1.387 . S
C440 H444 0.950 . S
C440 C449 1.390 . S
C441 C440 1.387 . S
C441 C443 1.387 1_556 S
H442 C449 0.950 . S
C443 C441 1.387 1_554 S
C443 C445 1.390 . S
C443 H447 0.950 . S
H444 C440 0.950 . S
C445 C443 1.390 . S
C445 C446 1.387 1_554 S
C445 H448 0.950 . S
C446 C445 1.387 1_556 S
C446 C449 1.387 . S
H447 C443 0.950 . S
H448 C445 0.950 . S
C449 C440 1.390 . S
C449 H442 0.950 . S
C449 C446 1.387 . S
C450 C451 1.387 . S
C450 H454 0.950 . S
C450 C459 1.390 . S
C451 C450 1.387 . S
C451 C453 1.387 . S
H452 C459 0.950 . S
C453 C451 1.387 . S
C453 C455 1.390 . S
C453 H457 0.950 . S
H454 C450 0.950 . S
C455 C453 1.390 . S
C455 C456 1.387 . S
C455 H458 0.950 . S
C456 C455 1.387 . S
C456 C459 1.387 . S
H457 C453 0.950 . S
H458 C455 0.950 . S
C459 C450 1.390 . S
C459 H452 0.950 . S
C459 C456 1.387 . S
C460 C461 1.387 . S
C460 H464 0.950 . S
C460 C469 1.390 . S
C461 C460 1.387 . S
C461 C463 1.387 . S
H462 C469 0.950 . S
C463 C461 1.387 . S
C463 C465 1.390 . S
C463 H467 0.950 . S
H464 C460 0.950 . S
C465 C463 1.390 . S
C465 C466 1.387 . S
C465 H468 0.950 . S
C466 C465 1.387 . S
C466 C469 1.387 . S
H467 C463 0.950 . S
H468 C465 0.950 . S
C469 C460 1.390 . S
C469 H462 0.950 . S
C469 C466 1.387 . S
C470 C471 1.387 . S
C470 H474 0.950 . S
C470 C479 1.390 . S
C471 C470 1.387 . S
C471 C473 1.387 . S
H472 C479 0.950 . S
C473 C471 1.387 . S
C473 C475 1.390 . S
C473 H477 0.950 . S
H474 C470 0.950 . S
C475 C473 1.390 . S
C475 C476 1.387 . S
C475 H478 0.950 . S
C476 C475 1.387 . S
C476 C479 1.387 . S
H477 C473 0.950 . S
H478 C475 0.950 . S
C479 C470 1.390 . S
C479 H472 0.950 . S
C479 C476 1.387 . S
C480 C481 1.387 . S
C480 H484 0.950 . S
C480 C489 1.390 . S
C481 C480 1.387 . S
C481 C483 1.387 . S
H482 C489 0.950 . S
C483 C481 1.387 . S
C483 C485 1.390 . S
C483 H487 0.950 . S
H484 C480 0.950 . S
C485 C483 1.390 . S
C485 C486 1.387 . S
C485 H488 0.950 . S
C486 C485 1.387 . S
C486 C489 1.387 . S
H487 C483 0.950 . S
H488 C485 0.950 . S
C489 C480 1.390 . S
C489 H482 0.950 . S
C489 C486 1.387 . S
C490 C491 1.387 . S
C490 H494 0.950 . S
C490 C499 1.390 . S
C491 C490 1.387 . S
C491 C493 1.387 . S
H492 C499 0.950 . S
C493 C491 1.387 . S
C493 C495 1.390 . S
C493 H497 0.950 . S
H494 C490 0.950 . S
C495 C493 1.390 . S
C495 C496 1.387 . S
C495 H498 0.950 . S
C496 C495 1.387 . S
C496 C499 1.387 . S
H497 C493 0.950 . S
H498 C495 0.950 . S
C499 C490 1.390 . S
C499 H492 0.950 . S
C499 C496 1.387 . S
C500 C501 1.387 . S
C500 H504 0.950 . S
C500 C509 1.390 . S
C501 C500 1.387 . S
C501 C503 1.387 . S
H502 C509 0.950 . S
C503 C501 1.387 . S
C503 C505 1.390 . S
C503 H507 0.950 . S
H504 C500 0.950 . S
C505 C503 1.390 . S
C505 C506 1.387 . S
C505 H508 0.950 . S
C506 C505 1.387 . S
C506 C509 1.387 . S
H507 C503 0.950 . S
H508 C505 0.950 . S
C509 C500 1.390 . S
C509 H502 0.950 . S
C509 C506 1.387 . S
C510 C511 1.387 . S
C510 H514 0.950 . S
C510 C519 1.390 . S
C511 C510 1.387 . S
C511 C513 1.387 . S
H512 C519 0.950 . S
C513 C511 1.387 . S
C513 C515 1.390 . S
C513 H517 0.950 . S
H514 C510 0.950 . S
C515 C513 1.390 . S
C515 C516 1.387 . S
C515 H518 0.950 . S
C516 C515 1.387 . S
C516 C519 1.387 . S
H517 C513 0.950 . S
H518 C515 0.950 . S
C519 C510 1.390 . S
C519 H512 0.950 . S
C519 C516 1.387 . S
C520 C521 1.387 . S
C520 H524 0.950 . S
C520 C529 1.390 . S
C521 C520 1.387 . S
C521 C523 1.387 . S
H522 C529 0.950 . S
C523 C521 1.387 . S
C523 C525 1.390 . S
C523 H527 0.950 . S
H524 C520 0.950 . S
C525 C523 1.390 . S
C525 C526 1.387 . S
C525 H528 0.950 . S
C526 C525 1.387 . S
C526 C529 1.387 . S
H527 C523 0.950 . S
H528 C525 0.950 . S
C529 C520 1.390 . S
C529 H522 0.950 . S
C529 C526 1.387 . S
C530 C531 1.387 1_455 S
C530 H534 0.950 . S
C530 C539 1.390 . S
C531 C530 1.387 1_655 S
C531 C533 1.387 . S
H532 C539 0.950 . S
C533 C531 1.387 . S
C533 C535 1.390 . S
C533 H537 0.950 . S
H534 C530 0.950 . S
C535 C533 1.390 . S
C535 C536 1.387 . S
C535 H538 0.950 . S
C536 C535 1.387 . S
C536 C539 1.387 1_655 S
H537 C533 0.950 . S
H538 C535 0.950 . S
C539 C530 1.390 . S
C539 H532 0.950 . S
C539 C536 1.387 1_455 S
C540 C541 1.387 . S
C540 H544 0.950 . S
C540 C549 1.390 . S
C541 C540 1.387 . S
C541 C543 1.387 . S
H542 C549 0.950 . S
C543 C541 1.387 . S
C543 C545 1.390 . S
C543 H547 0.950 . S
H544 C540 0.950 . S
C545 C543 1.390 . S
C545 C546 1.387 . S
C545 H548 0.950 . S
C546 C545 1.387 . S
C546 C549 1.387 . S
H547 C543 0.950 . S
H548 C545 0.950 . S
C549 C540 1.390 . S
C549 H542 0.950 . S
C549 C546 1.387 . S
C550 C551 1.387 . S
C550 H554 0.950 . S
C550 C559 1.390 . S
C551 C550 1.387 . S
C551 C553 1.387 . S
H552 C559 0.950 . S
C553 C551 1.387 . S
C553 C555 1.390 . S
C553 H557 0.950 . S
H554 C550 0.950 . S
C555 C553 1.390 . S
C555 C556 1.387 . S
C555 H558 0.950 . S
C556 C555 1.387 . S
C556 C559 1.387 . S
H557 C553 0.950 . S
H558 C555 0.950 . S
C559 C550 1.390 . S
C559 H552 0.950 . S
C559 C556 1.387 . S
C560 C561 1.387 . S
C560 H564 0.950 . S
C560 C569 1.390 . S
C561 C560 1.387 . S
C561 C563 1.387 . S
H562 C569 0.950 . S
C563 C561 1.387 . S
C563 C565 1.390 . S
C563 H567 0.950 . S
H564 C560 0.950 . S
C565 C563 1.390 . S
C565 C566 1.387 . S
C565 H568 0.950 . S
C566 C565 1.387 . S
C566 C569 1.387 . S
H567 C563 0.950 . S
H568 C565 0.950 . S
C569 C560 1.390 . S
C569 H562 0.950 . S
C569 C566 1.387 . S
C570 C571 1.387 . S
C570 H574 0.950 . S
C570 C579 1.390 . S
C571 C570 1.387 . S
C571 C573 1.387 . S
H572 C579 0.950 . S
C573 C571 1.387 . S
C573 C575 1.390 . S
C573 H577 0.950 . S
H574 C570 0.950 . S
C575 C573 1.390 . S
C575 C576 1.387 . S
C575 H578 0.950 . S
C576 C575 1.387 . S
C576 C579 1.387 . S
H577 C573 0.950 . S
H578 C575 0.950 . S
C579 C570 1.390 . S
C579 H572 0.950 . S
C579 C576 1.387 . S
C580 C581 1.387 . S
C580 H584 0.950 . S
C580 C589 1.390 . S
C581 C580 1.387 . S
C581 C583 1.387 . S
H582 C589 0.950 . S
C583 C581 1.387 . S
C583 C585 1.390 . S
C583 H587 0.950 1_545 S
H584 C580 0.950 . S
C585 C583 1.390 . S
C585 C586 1.387 . S
C585 H588 0.950 . S
C586 C585 1.387 . S
C586 C589 1.387 . S
H587 C583 0.950 1_565 S
H588 C585 0.950 . S
C589 C580 1.390 . S
C589 H582 0.950 . S
C589 C586 1.387 . S
C590 C591 1.387 1_556 S
C590 H594 0.950 . S
C590 C599 1.390 . S
C591 C590 1.387 1_554 S
C591 C593 1.387 . S
H592 C599 0.950 . S
C593 C591 1.387 . S
C593 C595 1.390 . S
C593 H597 0.950 . S
H594 C590 0.950 . S
C595 C593 1.390 . S
C595 C596 1.387 . S
C595 H598 0.950 . S
C596 C595 1.387 . S
C596 C599 1.387 1_554 S
H597 C593 0.950 . S
H598 C595 0.950 . S
C599 C590 1.390 . S
C599 H592 0.950 . S
C599 C596 1.387 1_556 S
C600 C601 1.387 . S
C600 H604 0.950 . S
C600 C609 1.390 . S
C601 C600 1.387 . S
C601 C603 1.387 . S
H602 C609 0.950 . S
C603 C601 1.387 . S
C603 C605 1.390 . S
C603 H607 0.950 . S
H604 C600 0.950 . S
C605 C603 1.390 . S
C605 C606 1.387 . S
C605 H608 0.950 . S
C606 C605 1.387 . S
C606 C609 1.387 . S
H607 C603 0.950 . S
H608 C605 0.950 . S
C609 C600 1.390 . S
C609 H602 0.950 . S
C609 C606 1.387 . S
C610 C611 1.387 . S
C610 H614 0.950 . S
C610 C619 1.390 . S
C611 C610 1.387 . S
C611 C613 1.387 . S
H612 C619 0.950 . S
C613 C611 1.387 . S
C613 C615 1.390 . S
C613 H617 0.950 . S
H614 C610 0.950 . S
C615 C613 1.390 . S
C615 C616 1.387 . S
C615 H618 0.950 . S
C616 C615 1.387 . S
C616 C619 1.387 . S
H617 C613 0.950 . S
H618 C615 0.950 . S
C619 C610 1.390 . S
C619 H612 0.950 . S
C619 C616 1.387 . S
C620 C621 1.387 . S
C620 H624 0.950 . S
C620 C629 1.390 . S
C621 C620 1.387 . S
C621 C623 1.387 . S
H622 C629 0.950 . S
C623 C621 1.387 . S
C623 C625 1.390 . S
C623 H627 0.950 . S
H624 C620 0.950 . S
C625 C623 1.390 . S
C625 C626 1.387 . S
C625 H628 0.950 . S
C626 C625 1.387 . S
C626 C629 1.387 . S
H627 C623 0.950 . S
H628 C625 0.950 . S
C629 C620 1.390 . S
C629 H622 0.950 . S
C629 C626 1.387 . S
C630 C631 1.387 . S
C630 H634 0.950 . S
C630 C639 1.390 . S
C631 C630 1.387 . S
C631 C633 1.387 . S
H632 C639 0.950 . S
C633 C631 1.387 . S
C633 C635 1.390 . S
C633 H637 0.950 . S
H634 C630 0.950 . S
C635 C633 1.390 . S
C635 C636 1.387 . S
C635 H638 0.950 . S
C636 C635 1.387 . S
C636 C639 1.387 . S
H637 C633 0.950 . S
H638 C635 0.950 . S
C639 C630 1.390 . S
C639 H632 0.950 . S
C639 C636 1.387 . S
C640 C641 1.387 . S
C640 H644 0.950 . S
C640 C649 1.390 . S
C641 C640 1.387 . S
C641 C643 1.387 . S
H642 C649 0.950 . S
C643 C641 1.387 . S
C643 C645 1.390 . S
C643 H647 0.950 . S
H644 C640 0.950 . S
C645 C643 1.390 . S
C645 C646 1.387 . S
C645 H648 0.950 . S
C646 C645 1.387 . S
C646 C649 1.387 . S
H647 C643 0.950 . S
H648 C645 0.950 . S
C649 C640 1.390 . S
C649 H642 0.950 . S
C649 C646 1.387 . S
C650 C651 1.387 . S
C650 H654 0.950 . S
C650 C659 1.390 . S
C651 C650 1.387 . S
C651 C653 1.387 . S
H652 C659 0.950 . S
C653 C651 1.387 . S
C653 C655 1.390 . S
C653 H657 0.950 . S
H654 C650 0.950 . S
C655 C653 1.390 . S
C655 C656 1.387 . S
C655 H658 0.950 . S
C656 C655 1.387 . S
C656 C659 1.387 . S
H657 C653 0.950 . S
H658 C655 0.950 . S
C659 C650 1.390 . S
C659 H652 0.950 . S
C659 C656 1.387 . S
C660 C661 1.387 . S
C660 H664 0.950 . S
C660 C669 1.390 . S
C661 C660 1.387 . S
C661 C663 1.387 . S
H662 C669 0.950 . S
C663 C661 1.387 . S
C663 C665 1.390 . S
C663 H667 0.950 . S
H664 C660 0.950 . S
C665 C663 1.390 . S
C665 C666 1.387 . S
C665 H668 0.950 . S
C666 C665 1.387 . S
C666 C669 1.387 . S
H667 C663 0.950 . S
H668 C665 0.950 . S
C669 C660 1.390 . S
C669 H662 0.950 . S
C669 C666 1.387 . S
C670 C671 1.387 . S
C670 H674 0.950 . S
C670 C679 1.390 . S
C671 C670 1.387 . S
C671 C673 1.387 . S
H672 C679 0.950 . S
C673 C671 1.387 . S
C673 C675 1.390 . S
C673 H677 0.950 . S
H674 C670 0.950 . S
C675 C673 1.390 . S
C675 C676 1.387 . S
C675 H678 0.950 . S
C676 C675 1.387 . S
C676 C679 1.387 . S
H677 C673 0.950 . S
H678 C675 0.950 . S
C679 C670 1.390 . S
C679 H672 0.950 . S
C679 C676 1.387 . S
C680 C681 1.387 . S
C680 H684 0.950 . S
C680 C689 1.390 . S
C681 C680 1.387 . S
C681 C683 1.387 . S
H682 C689 0.950 . S
C683 C681 1.387 . S
C683 C685 1.390 . S
C683 H687 0.950 . S
H684 C680 0.950 . S
C685 C683 1.390 . S
C685 C686 1.387 . S
C685 H688 0.950 . S
C686 C685 1.387 . S
C686 C689 1.387 . S
H687 C683 0.950 . S
H688 C685 0.950 . S
C689 C680 1.390 . S
C689 H682 0.950 . S
C689 C686 1.387 . S
C690 C691 1.387 . S
C690 H694 0.950 . S
C690 C699 1.390 . S
C691 C690 1.387 . S
C691 C693 1.387 1_554 S
H692 C699 0.950 . S
C693 C691 1.387 1_556 S
C693 C695 1.390 . S
C693 H697 0.950 . S
H694 C690 0.950 . S
C695 C693 1.390 . S
C695 C696 1.387 1_556 S
C695 H698 0.950 . S
C696 C695 1.387 1_554 S
C696 C699 1.387 . S
H697 C693 0.950 . S
H698 C695 0.950 . S
C699 C690 1.390 . S
C699 H692 0.950 . S
C699 C696 1.387 . S
C700 C701 1.387 . S
C700 H704 0.950 . S
C700 C709 1.390 . S
C701 C700 1.387 . S
C701 C703 1.387 . S
H702 C709 0.950 . S
C703 C701 1.387 . S
C703 C705 1.390 . S
C703 H707 0.950 . S
H704 C700 0.950 . S
C705 C703 1.390 . S
C705 C706 1.387 . S
C705 H708 0.950 . S
C706 C705 1.387 . S
C706 C709 1.387 . S
H707 C703 0.950 . S
H708 C705 0.950 . S
C709 C700 1.390 . S
C709 H702 0.950 . S
C709 C706 1.387 . S
C710 C711 1.387 . S
C710 H714 0.950 . S
C710 C719 1.390 . S
C711 C710 1.387 . S
C711 C713 1.387 . S
H712 C719 0.950 . S
C713 C711 1.387 . S
C713 C715 1.390 . S
C713 H717 0.950 . S
H714 C710 0.950 . S
C715 C713 1.390 . S
C715 C716 1.387 . S
C715 H718 0.950 . S
C716 C715 1.387 . S
C716 C719 1.387 . S
H717 C713 0.950 . S
H718 C715 0.950 . S
C719 C710 1.390 . S
C719 H712 0.950 . S
C719 C716 1.387 . S
C720 C721 1.387 . S
C720 H724 0.950 . S
C720 C729 1.390 . S
C721 C720 1.387 . S
C721 C723 1.387 . S
H722 C729 0.950 . S
C723 C721 1.387 . S
C723 C725 1.390 . S
C723 H727 0.950 . S
H724 C720 0.950 . S
C725 C723 1.390 . S
C725 C726 1.387 . S
C725 H728 0.950 . S
C726 C725 1.387 . S
C726 C729 1.387 . S
H727 C723 0.950 . S
H728 C725 0.950 . S
C729 C720 1.390 . S
C729 H722 0.950 . S
C729 C726 1.387 . S
C730 C731 1.387 . S
C730 H734 0.950 . S
C730 C739 1.390 . S
C731 C730 1.387 . S
C731 C733 1.387 . S
H732 C739 0.950 . S
C733 C731 1.387 . S
C733 C735 1.390 . S
C733 H737 0.950 . S
H734 C730 0.950 . S
C735 C733 1.390 . S
C735 C736 1.387 . S
C735 H738 0.950 . S
C736 C735 1.387 . S
C736 C739 1.387 . S
H737 C733 0.950 . S
H738 C735 0.950 . S
C739 C730 1.390 . S
C739 H732 0.950 . S
C739 C736 1.387 . S
C740 C741 1.387 . S
C740 H744 0.950 . S
C740 C749 1.390 . S
C741 C740 1.387 . S
C741 C743 1.387 1_556 S
H742 C749 0.950 . S
C743 C741 1.387 1_554 S
C743 C745 1.390 . S
C743 H747 0.950 . S
H744 C740 0.950 . S
C745 C743 1.390 . S
C745 C746 1.387 1_554 S
C745 H748 0.950 . S
C746 C745 1.387 1_556 S
C746 C749 1.387 . S
H747 C743 0.950 . S
H748 C745 0.950 . S
C749 C740 1.390 . S
C749 H742 0.950 . S
C749 C746 1.387 . S
C750 C751 1.387 . S
C750 H754 0.950 . S
C750 C759 1.390 . S
C751 C750 1.387 . S
C751 C753 1.387 . S
H752 C759 0.950 . S
C753 C751 1.387 . S
C753 C755 1.390 . S
C753 H757 0.950 . S
H754 C750 0.950 . S
C755 C753 1.390 . S
C755 C756 1.387 . S
C755 H758 0.950 . S
C756 C755 1.387 . S
C756 C759 1.387 . S
H757 C753 0.950 . S
H758 C755 0.950 . S
C759 C750 1.390 . S
C759 H752 0.950 . S
C759 C756 1.387 . S
C760 C761 1.387 . S
C760 H764 0.950 . S
C760 C769 1.390 . S
C761 C760 1.387 . S
C761 C763 1.387 . S
H762 C769 0.950 . S
C763 C761 1.387 . S
C763 C765 1.390 . S
C763 H767 0.950 . S
H764 C760 0.950 . S
C765 C763 1.390 . S
C765 C766 1.387 . S
C765 H768 0.950 . S
C766 C765 1.387 . S
C766 C769 1.387 . S
H767 C763 0.950 . S
H768 C765 0.950 . S
C769 C760 1.390 . S
C769 H762 0.950 . S
C769 C766 1.387 . S
C770 C771 1.387 . S
C770 H774 0.950 . S
C770 C779 1.390 . S
C771 C770 1.387 . S
C771 C773 1.387 . S
H772 C779 0.950 . S
C773 C771 1.387 . S
C773 C775 1.390 . S
C773 H777 0.950 . S
H774 C770 0.950 . S
C775 C773 1.390 . S
C775 C776 1.387 . S
C775 H778 0.950 . S
C776 C775 1.387 . S
C776 C779 1.387 . S
H777 C773 0.950 . S
H778 C775 0.950 . S
C779 C770 1.390 . S
C779 H772 0.950 . S
C779 C776 1.387 . S
C780 C781 1.387 . S
C780 H784 0.950 . S
C780 C789 1.390 . S
C781 C780 1.387 . S
C781 C783 1.387 . S
H782 C789 0.950 . S
C783 C781 1.387 . S
C783 C785 1.390 . S
C783 H787 0.950 . S
H784 C780 0.950 . S
C785 C783 1.390 . S
C785 C786 1.387 . S
C785 H788 0.950 . S
C786 C785 1.387 . S
C786 C789 1.387 . S
H787 C783 0.950 . S
H788 C785 0.950 . S
C789 C780 1.390 . S
C789 H782 0.950 . S
C789 C786 1.387 . S
C790 C791 1.387 . S
C790 H794 0.950 . S
C790 C799 1.390 . S
C791 C790 1.387 . S
C791 C793 1.387 . S
H792 C799 0.950 . S
C793 C791 1.387 . S
C793 C795 1.390 . S
C793 H797 0.950 . S
H794 C790 0.950 . S
C795 C793 1.390 . S
C795 C796 1.387 . S
C795 H798 0.950 . S
C796 C795 1.387 . S
C796 C799 1.387 . S
H797 C793 0.950 . S
H798 C795 0.950 . S
C799 C790 1.390 . S
C799 H792 0.950 . S
C799 C796 1.387 . S
C321 C2 0.901 . S
C326 C24 1.005 1_655 S
C331 C42 0.923 . S
C336 C29 1.052 . S
C341 C64 1.252 . S
C346 C59 1.332 . S
C351 C19 0.998 . S
C356 C69 0.979 . S
C361 C18 0.968 . S
C366 C192 0.953 1_565 S
C371 C144 0.856 . S
C376 C22 0.852 . S
C381 C44 0.946 . S
C386 C212 1.087 . S
C391 C62 1.342 . S
C396 C264 1.176 . S
C401 C178 0.969 . S
C406 C32 0.962 . S
C411 C242 1.469 . S
C416 C58 1.523 . S
C421 C284 0.949 1_565 S
C426 C72 1.087 . S
C431 C4 0.886 . S
C436 C222 0.923 . S
C441 C9 0.701 . S
C446 C169 0.701 . S
C451 C259 2.074 . S
C456 C99 2.074 . S
C461 C112 0.773 . S
C466 C289 0.772 . S
C471 C239 1.742 . S
C476 C139 1.740 . S
C481 C49 0.774 . S
C486 C152 0.774 . S
C491 C198 1.791 . S
C496 C98 1.790 . S
C501 C138 1.884 . S
C506 C218 1.881 . S
C511 C118 1.386 . S
C516 C232 1.411 . S
C521 C182 0.859 . S
C526 C104 0.850 . S
C531 C224 0.951 . S
C536 C142 0.917 . S
C541 C119 1.545 . S
C546 C89 1.566 . S
C551 C184 1.004 . S
C556 C162 0.903 . S
C561 C279 1.359 . S
C566 C229 1.361 . S
C571 C124 0.948 . S
C576 C102 0.921 . S
C581 C189 1.060 . S
C586 C282 0.919 . S
C591 C272 0.732 . S
C596 C12 0.727 . S
C601 C52 0.766 . S
C606 C292 0.766 . S
C611 C258 1.790 . S
C616 C38 1.791 . S
C621 C149 0.735 . S
C626 C109 0.735 . S
C631 C79 1.837 . S
C636 C219 1.837 . S
C641 C244 1.265 . S
C646 C262 1.173 . S
C651 C159 1.545 . S
C656 C249 1.567 . S
C661 C132 1.412 . S
C666 C158 1.386 . S
C671 C92 1.369 . S
C676 C278 1.389 . S
C681 C252 1.369 . S
C686 C318 1.388 . S
C691 C312 0.729 . S
C696 C172 0.727 . S
C701 C39 1.712 . S
C706 C199 1.712 . S
C711 C164 0.886 . S
C716 C122 0.924 . S
C721 C179 0.998 . S
C726 C209 0.979 . S
C731 C319 1.359 . S
C736 C129 1.359 . S
C741 C269 0.766 1_556 S
C746 C309 0.766 1_556 S
C751 C238 1.884 . S
C756 C78 1.882 . S
C761 C204 1.254 . S
C766 C299 1.331 . S
C771 C202 1.342 . S
C776 C304 1.177 . S
C781 C82 1.467 . S
C786 C298 1.525 . S
C791 C302 1.172 . S
C796 C84 1.267 . S
