# Generated by pormake.
# Topology crs, (6)-cn, num edge types: 1
# Building blocks:
#     Node 0, Type 0, BuildingBlock: UKALOJ_clean_sbu_0, # of connection points: 6
#     Node 1, Type 0, BuildingBlock: UKALOJ_clean_sbu_0, # of connection points: 6
#     Node 2, Type 0, BuildingBlock: UKALOJ_clean_sbu_0, # of connection points: 6
#     Node 3, Type 0, BuildingBlock: UKALOJ_clean_sbu_0, # of connection points: 6
#     Node 4, Type 0, BuildingBlock: UKALOJ_clean_sbu_0, # of connection points: 6
#     Node 5, Type 0, BuildingBlock: UKALOJ_clean_sbu_0, # of connection points: 6
#     Node 6, Type 0, BuildingBlock: UKALOJ_clean_sbu_0, # of connection points: 6
#     Node 7, Type 0, BuildingBlock: UKALOJ_clean_sbu_0, # of connection points: 6
#     Node 8, Type 0, BuildingBlock: UKALOJ_clean_sbu_0, # of connection points: 6
#     Node 9, Type 0, BuildingBlock: UKALOJ_clean_sbu_0, # of connection points: 6
#     Node 10, Type 0, BuildingBlock: UKALOJ_clean_sbu_0, # of connection points: 6
#     Node 11, Type 0, BuildingBlock: UKALOJ_clean_sbu_0, # of connection points: 6
#     Node 12, Type 0, BuildingBlock: UKALOJ_clean_sbu_0, # of connection points: 6
#     Node 13, Type 0, BuildingBlock: UKALOJ_clean_sbu_0, # of connection points: 6
#     Node 14, Type 0, BuildingBlock: UKALOJ_clean_sbu_0, # of connection points: 6
#     Node 15, Type 0, BuildingBlock: UKALOJ_clean_sbu_0, # of connection points: 6
#     Edge 16, Type (0, 0), BuildingBlock: XIVTED_clean_linker_0, # of connection points: 2
#     Edge 17, Type (0, 0), BuildingBlock: XIVTED_clean_linker_0, # of connection points: 2
#     Edge 18, Type (0, 0), BuildingBlock: XIVTED_clean_linker_0, # of connection points: 2
#     Edge 19, Type (0, 0), BuildingBlock: XIVTED_clean_linker_0, # of connection points: 2
#     Edge 20, Type (0, 0), BuildingBlock: XIVTED_clean_linker_0, # of connection points: 2
#     Edge 21, Type (0, 0), BuildingBlock: XIVTED_clean_linker_0, # of connection points: 2
#     Edge 22, Type (0, 0), BuildingBlock: XIVTED_clean_linker_0, # of connection points: 2
#     Edge 23, Type (0, 0), BuildingBlock: XIVTED_clean_linker_0, # of connection points: 2
#     Edge 24, Type (0, 0), BuildingBlock: XIVTED_clean_linker_0, # of connection points: 2
#     Edge 25, Type (0, 0), BuildingBlock: XIVTED_clean_linker_0, # of connection points: 2
#     Edge 26, Type (0, 0), BuildingBlock: XIVTED_clean_linker_0, # of connection points: 2
#     Edge 27, Type (0, 0), BuildingBlock: XIVTED_clean_linker_0, # of connection points: 2
#     Edge 28, Type (0, 0), BuildingBlock: XIVTED_clean_linker_0, # of connection points: 2
#     Edge 29, Type (0, 0), BuildingBlock: XIVTED_clean_linker_0, # of connection points: 2
#     Edge 30, Type (0, 0), BuildingBlock: XIVTED_clean_linker_0, # of connection points: 2
#     Edge 31, Type (0, 0), BuildingBlock: XIVTED_clean_linker_0, # of connection points: 2
#     Edge 32, Type (0, 0), BuildingBlock: XIVTED_clean_linker_0, # of connection points: 2
#     Edge 33, Type (0, 0), BuildingBlock: XIVTED_clean_linker_0, # of connection points: 2
#     Edge 34, Type (0, 0), BuildingBlock: XIVTED_clean_linker_0, # of connection points: 2
#     Edge 35, Type (0, 0), BuildingBlock: XIVTED_clean_linker_0, # of connection points: 2
#     Edge 36, Type (0, 0), BuildingBlock: XIVTED_clean_linker_0, # of connection points: 2
#     Edge 37, Type (0, 0), BuildingBlock: XIVTED_clean_linker_0, # of connection points: 2
#     Edge 38, Type (0, 0), BuildingBlock: XIVTED_clean_linker_0, # of connection points: 2
#     Edge 39, Type (0, 0), BuildingBlock: XIVTED_clean_linker_0, # of connection points: 2
#     Edge 40, Type (0, 0), BuildingBlock: XIVTED_clean_linker_0, # of connection points: 2
#     Edge 41, Type (0, 0), BuildingBlock: XIVTED_clean_linker_0, # of connection points: 2
#     Edge 42, Type (0, 0), BuildingBlock: XIVTED_clean_linker_0, # of connection points: 2
#     Edge 43, Type (0, 0), BuildingBlock: XIVTED_clean_linker_0, # of connection points: 2
#     Edge 44, Type (0, 0), BuildingBlock: XIVTED_clean_linker_0, # of connection points: 2
#     Edge 45, Type (0, 0), BuildingBlock: XIVTED_clean_linker_0, # of connection points: 2
#     Edge 46, Type (0, 0), BuildingBlock: XIVTED_clean_linker_0, # of connection points: 2
#     Edge 47, Type (0, 0), BuildingBlock: XIVTED_clean_linker_0, # of connection points: 2
#     Edge 48, Type (0, 0), BuildingBlock: XIVTED_clean_linker_0, # of connection points: 2
#     Edge 49, Type (0, 0), BuildingBlock: XIVTED_clean_linker_0, # of connection points: 2
#     Edge 50, Type (0, 0), BuildingBlock: XIVTED_clean_linker_0, # of connection points: 2
#     Edge 51, Type (0, 0), BuildingBlock: XIVTED_clean_linker_0, # of connection points: 2
#     Edge 52, Type (0, 0), BuildingBlock: XIVTED_clean_linker_0, # of connection points: 2
#     Edge 53, Type (0, 0), BuildingBlock: XIVTED_clean_linker_0, # of connection points: 2
#     Edge 54, Type (0, 0), BuildingBlock: XIVTED_clean_linker_0, # of connection points: 2
#     Edge 55, Type (0, 0), BuildingBlock: XIVTED_clean_linker_0, # of connection points: 2
#     Edge 56, Type (0, 0), BuildingBlock: XIVTED_clean_linker_0, # of connection points: 2
#     Edge 57, Type (0, 0), BuildingBlock: XIVTED_clean_linker_0, # of connection points: 2
#     Edge 58, Type (0, 0), BuildingBlock: XIVTED_clean_linker_0, # of connection points: 2
#     Edge 59, Type (0, 0), BuildingBlock: XIVTED_clean_linker_0, # of connection points: 2
#     Edge 60, Type (0, 0), BuildingBlock: XIVTED_clean_linker_0, # of connection points: 2
#     Edge 61, Type (0, 0), BuildingBlock: XIVTED_clean_linker_0, # of connection points: 2
#     Edge 62, Type (0, 0), BuildingBlock: XIVTED_clean_linker_0, # of connection points: 2
#     Edge 63, Type (0, 0), BuildingBlock: XIVTED_clean_linker_0, # of connection points: 2
# Relax obj value: 0.488
# Max RMSD: 0.348
# Mean RMSD: 0.257
data_MOF--net-crs--node1-UKALOJ_clean_sbu_0--edge1-XIVTED_clean_linker_0
_symmetry_space_group_name_H-M    P1
_symmetry_Int_Tables_number       1
_symmetry_cell_setting            triclinic
loop_
_symmetry_equiv_pos_as_xyz
'x, y, z'
_cell_length_a     45.745266
_cell_length_b     45.794843
_cell_length_c     40.92663
_cell_angle_alpha  86.524468
_cell_angle_beta   93.523135
_cell_angle_gamma 102.61174
loop_
_atom_site_label
_atom_site_type_symbol
_atom_site_fract_x
_atom_site_fract_y
_atom_site_fract_z
_atom_type_partial_charge
Zn0 Zn -0.001 0.04203 0.96261 0.0
O1 O 0.03628 0.04547 -0.00403 0.0
C2 C 0.03595 0.08543 0.91621 0.0
Zn3 Zn 0.02353 0.02063 0.92906 0.0
C4 C 0.05896 0.03484 0.991 0.0
O5 O 0.06046 0.0234 0.96376 0.0
C6 C 0.96268 0.0264 0.90214 0.0
O7 O 0.00465 0.97941 0.95192 0.0
O8 O 0.98102 0.00025 0.98595 0.0
N9 N 0.04413 -0.00043 0.89779 0.0
C10 C 0.03264 0.97672 0.87833 0.0
C11 C 0.07994 0.98762 0.87321 0.0
N12 N 0.0735 0.00643 0.89449 0.0
N13 N 0.05458 0.96911 0.86239 0.0
C14 C 0.98839 0.08527 0.01381 0.0
C15 C 0.94105 0.07306 0.01847 0.0
N16 N 0.97761 0.06298 0.99342 0.0
N17 N 0.94818 0.05548 -0.00374 0.0
N18 N 0.96597 0.09181 0.02991 0.0
H19 H 0.03243 0.10068 0.99435 0.0
H20 H 0.03208 0.09163 0.03762 0.0
H21 H 0.02194 0.12563 0.02172 0.0
C22 C 0.02054 0.10179 0.01677 0.0
C23 C 0.00037 0.96027 0.87652 0.0
H24 H 0.98794 0.96433 0.89742 0.0
H25 H -0.00117 0.9358 0.87574 0.0
H26 H 0.98927 0.96772 0.85365 0.0
O27 O 0.98617 0.01804 0.8952 0.0
O28 O 0.96172 0.03739 0.92965 0.0
C29 C 0.98804 0.97704 0.97602 0.0
O30 O 0.01759 0.08345 0.93873 0.0
O31 O 0.04297 0.06193 0.90725 0.0
Zn32 Zn 0.02987 0.27632 0.2569 0.0
O33 O 0.01581 0.24251 0.22342 0.0
C34 C 0.06591 0.31289 0.20439 0.0
Zn35 Zn 0.004 0.30447 0.22638 0.0
C36 C -0.00054 0.24574 0.19785 0.0
O37 O 0.99062 0.2701 0.19238 0.0
C38 C 0.03518 0.33464 0.28604 0.0
O39 O 0.96576 0.28503 0.25342 0.0
O40 O -0.00798 0.25898 0.28503 0.0
N41 N 0.97991 0.33011 0.19847 0.0
C42 C 0.95676 0.34177 0.20599 0.0
C43 C 0.96146 0.34919 0.15445 0.0
N44 N 0.98298 0.33492 0.16647 0.0
N45 N 0.94466 0.35353 0.17883 0.0
C46 C 0.04852 0.22029 0.29002 0.0
C47 C 0.09194 0.23843 0.31124 0.0
N48 N 0.05402 0.25017 0.28387 0.0
N49 N 0.08089 0.26145 0.2973 0.0
N50 N 0.07209 0.21235 0.3069 0.0
H51 H 0.00039 0.20978 0.27976 0.0
H52 H 0.01556 0.17927 0.29824 0.0
H53 H 0.02123 0.19094 0.25595 0.0
C54 C 0.01974 0.19896 0.28064 0.0
C55 C 0.94641 0.34258 0.23994 0.0
H56 H 0.92745 0.32338 0.24433 0.0
H57 H 0.9383 0.36343 0.24253 0.0
H58 H 0.96454 0.34128 0.25874 0.0
O59 O 0.0181 0.33874 0.26118 0.0
O60 O 0.04403 0.31021 0.28988 0.0
C61 C 0.96714 0.26612 0.27716 0.0
O62 O 0.06737 0.29383 0.22806 0.0
O63 O 0.04193 0.32245 0.19878 0.0
Zn64 Zn 0.75431 0.24651 0.53994 0.0
O65 O 0.70818 0.23275 0.53062 0.0
C66 C 0.75808 0.18232 0.55625 0.0
Zn67 Zn 0.76018 0.2215 0.49682 0.0
C68 C 0.69624 0.21586 0.50781 0.0
O69 O 0.71289 0.20688 0.48845 0.0
C70 C 0.81776 0.25173 0.53126 0.0
O71 O 0.75748 0.26136 0.46855 0.0
O72 O 0.75302 0.28646 0.51118 0.0
N73 N 0.76941 0.20216 0.45572 0.0
C74 C 0.78768 0.21435 0.43152 0.0
C75 C 0.77441 0.16755 0.42417 0.0
N76 N 0.76111 0.17306 0.45105 0.0
N77 N 0.79084 0.19324 0.41131 0.0
C78 C 0.73034 0.25695 0.60613 0.0
C79 C 0.75159 0.30244 0.61386 0.0
N80 N 0.74792 0.26677 0.5808 0.0
N81 N 0.76138 0.29494 0.5858 0.0
N82 N 0.7325 0.2788 0.62736 0.0
H83 H 0.70777 0.21394 0.58695 0.0
H84 H 0.68635 0.22984 0.61377 0.0
H85 H 0.71676 0.21367 0.63015 0.0
C86 C 0.70914 0.22691 0.60901 0.0
C87 C 0.80471 0.24639 0.42881 0.0
H88 H 0.79326 0.2587 0.40969 0.0
H89 H 0.82779 0.24757 0.42108 0.0
H90 H 0.80633 0.25786 0.45194 0.0
O91 O 0.80737 0.23609 0.50691 0.0
O92 O 0.79993 0.26001 0.54934 0.0
C93 C 0.75407 0.28535 0.48034 0.0
O94 O 0.75535 0.20661 0.56791 0.0
O95 O 0.76111 0.1815 0.52567 0.0
Zn96 Zn 0.70096 0.96538 0.76948 0.0
O97 O 0.70831 0.00036 0.73294 0.0
C98 C 0.65175 0.93401 0.72492 0.0
Zn99 Zn 0.71751 0.93736 0.73468 0.0
C100 C 0.71875 -0.00212 0.70537 0.0
O101 O 0.72478 0.97312 0.69875 0.0
C102 C 0.70317 0.90591 0.80033 0.0
O103 O 0.76149 0.95318 0.75458 0.0
O104 O 0.74497 0.98063 0.78833 0.0
N105 N 0.73307 0.9099 0.70461 0.0
C106 C 0.75501 0.89434 0.7099 0.0
C107 C 0.73569 0.88516 0.66192 0.0
N108 N 0.72111 0.90409 0.67476 0.0
N109 N 0.75725 0.87887 0.68341 0.0
C110 C 0.66481 0.00872 0.7969 0.0
C111 C 0.68456 0.01448 0.84525 0.0
N112 N 0.686 0.99217 0.80056 0.0
N113 N 0.69817 -0.0042 0.83065 0.0
N114 N 0.66335 0.02278 0.8247 0.0
H115 H 0.65772 0.007 0.74415 0.0
H116 H 0.64358 0.03583 0.76225 0.0
H117 H 0.62446 -0.00272 0.76699 0.0
C118 C 0.64684 0.01251 0.76565 0.0
C119 C 0.77306 0.89271 0.7416 0.0
H120 H 0.79487 0.90886 0.73986 0.0
H121 H 0.77759 0.86996 0.74633 0.0
H122 H 0.76164 0.89829 0.76259 0.0
O123 O 0.71074 0.90226 0.77173 0.0
O124 O 0.69569 0.93021 0.80605 0.0
C125 C 0.76662 0.97167 0.77723 0.0
O126 O 0.65703 0.95027 0.74959 0.0
O127 O 0.67291 0.92372 0.71426 0.0
Zn128 Zn 0.55557 0.8073 0.25469 0.0
O129 O 0.54819 0.77028 0.22422 0.0
C130 C 0.59871 0.84492 0.2094 0.0
Zn131 Zn 0.53408 0.83258 0.21549 0.0
C132 C 0.53524 0.77219 0.196 0.0
O133 O 0.52811 0.79654 0.18589 0.0
C134 C 0.55438 0.86827 0.27309 0.0
O135 O 0.49255 0.81203 0.23661 0.0
O136 O 0.51518 0.78896 0.2758 0.0
N137 N 0.51268 0.85479 0.18018 0.0
C138 C 0.49389 0.87328 0.18296 0.0
C139 C 0.49892 0.87017 0.1319 0.0
N140 N 0.51582 0.85287 0.14844 0.0
N141 N 0.48531 0.88351 0.15311 0.0
C142 C 0.57832 0.75808 0.29948 0.0
C143 C 0.6147 0.78502 0.32628 0.0
N144 N 0.57863 0.7869 0.29026 0.0
N145 N 0.60102 0.80357 0.30729 0.0
N146 N 0.60071 0.75633 0.32212 0.0
H147 H 0.53599 0.73726 0.2764 0.0
H148 H 0.55415 0.71191 0.30141 0.0
H149 H 0.56844 0.72616 0.26236 0.0
C150 C 0.55791 0.73181 0.28416 0.0
C151 C 0.48231 0.87987 0.21467 0.0
H152 H 0.48489 0.86296 0.23438 0.0
H153 H 0.45825 0.88077 0.21136 0.0
H154 H 0.49494 0.90204 0.2225 0.0
O155 O 0.54078 0.86903 0.24525 0.0
O156 O 0.56237 0.84448 0.28377 0.0
C157 C 0.49119 0.79431 0.26193 0.0
O158 O 0.59599 0.82605 0.23361 0.0
O159 O 0.57553 0.85185 0.1952 0.0
Zn160 Zn 0.23132 0.7675 0.46005 0.0
O161 O 0.20188 0.72817 0.4738 0.0
C162 C 0.28008 0.74232 0.49343 0.0
Zn163 Zn 0.25105 0.74169 0.42668 0.0
C164 C 0.20037 0.70395 0.4598 0.0
O165 O 0.21782 0.70297 0.43713 0.0
C166 C 0.28278 0.80579 0.42926 0.0
O167 O 0.22347 0.75339 0.38748 0.0
O168 O 0.20086 0.77521 0.42153 0.0
N169 N 0.27007 0.71804 0.39672 0.0
C170 C 0.28562 0.7269 0.36968 0.0
C171 C 0.29068 0.68268 0.38362 0.0
N172 N 0.27275 0.69033 0.40501 0.0
N173 N 0.29898 0.70518 0.36101 0.0
C174 C 0.20108 0.78441 0.5199 0.0
C175 C 0.18746 0.82416 0.50144 0.0
N176 N 0.21174 0.79102 0.48976 0.0
N177 N 0.20356 0.81593 0.4785 0.0
N178 N 0.18584 0.80489 0.52778 0.0
H179 H 0.21732 0.74338 0.52988 0.0
H180 H 0.1798 0.74222 0.54218 0.0
H181 H 0.21164 0.76209 0.56535 0.0
C182 C 0.20271 0.75635 0.54022 0.0
C183 C 0.29032 0.75793 0.3539 0.0
H184 H 0.27288 0.76961 0.36034 0.0
H185 H 0.28941 0.75717 0.32688 0.0
H186 H 0.31277 0.77094 0.36189 0.0
O187 O 0.28492 0.78111 0.41806 0.0
O188 O 0.2608 0.80663 0.44629 0.0
C189 C 0.20322 0.76732 0.39275 0.0
O190 O 0.26273 0.75977 0.49796 0.0
O191 O 0.27863 0.73024 0.46609 0.0
Zn192 Zn 0.35269 0.62137 0.74158 0.0
O193 O 0.36145 0.65634 0.70566 0.0
C194 C 0.30779 0.58744 0.69373 0.0
Zn195 Zn 0.37208 0.59417 0.70948 0.0
C196 C 0.3754 0.65471 0.68016 0.0
O197 O 0.38462 0.63101 0.67587 0.0
C198 C 0.3459 0.56073 0.77019 0.0
O199 O 0.41322 0.60612 0.73609 0.0
O200 O 0.39542 0.63669 0.76479 0.0
N201 N 0.38886 0.56727 0.68097 0.0
C202 C 0.39868 0.54206 0.68927 0.0
C203 C 0.39485 0.54574 0.63708 0.0
N204 N 0.3867 0.56968 0.64851 0.0
N205 N 0.40222 0.528 0.66226 0.0
C206 C 0.31098 0.65999 0.76528 0.0
C207 C 0.3241 0.66261 0.81608 0.0
N208 N 0.33466 0.64694 0.77053 0.0
N209 N 0.34302 0.64894 0.80201 0.0
N210 N 0.3039 0.66996 0.79352 0.0
H211 H 0.30636 0.65763 0.71259 0.0
H212 H 0.28455 0.68082 0.72919 0.0
H213 H 0.27312 0.64088 0.73434 0.0
C214 C 0.29286 0.65989 0.73346 0.0
C215 C 0.40572 0.53155 0.72372 0.0
H216 H 0.41215 0.55062 0.73995 0.0
H217 H 0.42426 0.51939 0.72429 0.0
H218 H 0.38571 0.51588 0.7333 0.0
O219 O 0.35694 0.55722 0.74333 0.0
O220 O 0.34359 0.58668 0.77706 0.0
C221 C 0.41703 0.6249 0.75839 0.0
O222 O 0.30959 0.60346 0.7184 0.0
O223 O 0.33149 0.58201 0.68341 0.0
Zn224 Zn 0.00449 0.47108 0.52922 0.0
O225 O 0.01964 0.46057 0.48555 0.0
C226 C 0.99058 0.40694 0.55219 0.0
Zn227 Zn 0.04175 0.45687 0.55807 0.0
C228 C 0.04135 0.4474 0.48579 0.0
O229 O 0.05483 0.44209 0.51302 0.0
C230 C 0.00353 0.48168 0.60013 0.0
O231 O 0.06737 0.50003 0.54688 0.0
O232 O 0.02884 0.51458 0.5222 0.0
N233 N 0.07865 0.44687 0.58311 0.0
C234 C 0.09805 0.46327 0.60466 0.0
C235 C 0.11711 0.42698 0.59287 0.0
N236 N 0.09041 0.42416 0.57605 0.0
N237 N 0.12221 0.45115 0.61133 0.0
C238 C 0.95303 0.47888 0.47832 0.0
C239 C 0.9386 0.51455 0.49936 0.0
N240 N 0.96943 0.48503 0.50643 0.0
N241 N 0.96039 0.50713 0.51944 0.0
N242 N 0.93368 0.49731 0.47328 0.0
H243 H 0.93307 0.44513 0.44432 0.0
H244 H 0.96261 0.43566 0.47174 0.0
H245 H 0.97168 0.46278 0.43822 0.0
C246 C 0.95508 0.45403 0.45699 0.0
C247 C 0.09522 0.49281 0.61695 0.0
H248 H 0.07692 0.50188 0.6045 0.0
H249 H 0.11648 0.50966 0.61398 0.0
H250 H 0.09106 0.4899 0.64349 0.0
O251 O 0.02745 0.47175 0.6021 0.0
O252 O 0.98921 0.48203 0.57276 0.0
C253 C 0.05618 0.52027 0.53176 0.0
O254 O 0.98052 0.42702 0.53506 0.0
O255 O 0.016 0.41335 0.56755 0.0
Zn256 Zn 0.22982 0.31667 0.96095 0.0
O257 O 0.26518 0.34674 0.98244 0.0
C258 C 0.27184 0.28533 0.92968 0.0
Zn259 Zn 0.24369 0.28063 0.9924 0.0
C260 C 0.28476 0.33826 0.00161 0.0
O261 O 0.28178 0.31079 0.00996 0.0
C262 C 0.18911 0.25889 0.95066 0.0
O263 O 0.21884 0.29154 0.02946 0.0
O264 O 0.20173 0.32523 -0.00226 0.0
N265 N 0.25811 0.24911 0.02151 0.0
C266 C 0.24691 0.23059 0.04661 0.0
C267 C 0.292 0.2264 0.04201 0.0
N268 N 0.28607 0.24644 0.01869 0.0
N269 N 0.26793 0.21624 0.06009 0.0
C270 C 0.23914 0.37395 0.91609 0.0
C271 C 0.19493 0.37691 0.89869 0.0
N272 N 0.22009 0.35062 0.93026 0.0
N273 N 0.19259 0.35243 0.91938 0.0
N274 N 0.22393 0.39074 0.89659 0.0
H275 H 0.28139 0.35975 0.92607 0.0
H276 H 0.28015 0.39588 0.94017 0.0
H277 H 0.28314 0.39123 0.89747 0.0
C278 C 0.27281 0.38025 0.92014 0.0
C279 C 0.21516 0.22574 0.05651 0.0
H280 H 0.21405 0.24079 0.0764 0.0
H281 H 0.20697 0.20222 0.06561 0.0
H282 H 0.20036 0.23108 0.03555 0.0
O283 O 0.20606 0.25029 0.9734 0.0
O284 O 0.1939 0.28613 0.94035 0.0
C285 C 0.20277 0.311 0.02542 0.0
O286 O 0.25868 0.30706 0.92455 0.0
O287 O 0.26829 0.26989 0.9563 0.0
Zn288 Zn 0.2113 -0.00021 0.25721 0.0
O289 O 0.23052 0.04479 0.24423 0.0
C290 C 0.18462 0.99205 0.18957 0.0
Zn291 Zn 0.24148 0.98432 0.22489 0.0
C292 C 0.25072 0.0504 0.22344 0.0
O293 O 0.25947 0.02898 0.21159 0.0
C294 C 0.20073 0.93356 0.25732 0.0
O295 O 0.27443 0.98581 0.26413 0.0
O296 O 0.24442 0.00095 0.29592 0.0
N297 N 0.26821 0.96987 0.19417 0.0
C298 C 0.29813 0.97629 0.19112 0.0
C299 C 0.2792 0.9423 0.15792 0.0
N300 N 0.25649 0.9489 0.17337 0.0
N301 N 0.30566 0.95904 0.16868 0.0
C302 C 0.16519 0.03107 0.2849 0.0
C303 C 0.1655 0.01581 0.33521 0.0
N304 N 0.18428 0.01243 0.28879 0.0
N305 N 0.18437 0.00287 0.32002 0.0
N306 N 0.15294 0.03328 0.31354 0.0
H307 H 0.1781 0.05013 0.23668 0.0
H308 H 0.15843 0.07176 0.25921 0.0
H309 H 0.13851 0.03772 0.24153 0.0
C310 C 0.16005 0.04873 0.25377 0.0
C311 C 0.31961 0.00027 0.20913 0.0
H312 H 0.30869 0.01822 0.21558 0.0
H313 H 0.33905 0.01025 0.19415 0.0
H314 H 0.32784 0.99035 0.23229 0.0
O315 O 0.22217 0.93951 0.23804 0.0
O316 O 0.19204 0.95483 0.26957 0.0
C317 C 0.26958 -0.00539 0.29178 0.0
O318 O 0.17895 -0.00077 0.21766 0.0
O319 O 0.209 0.98392 0.186 0.0
Zn320 Zn 0.50211 0.23756 0.7967 0.0
O321 O 0.4755 0.20458 0.76754 0.0
C322 C 0.5464 0.25284 0.74402 0.0
Zn323 Zn 0.49087 0.27003 0.75778 0.0
C324 C 0.46092 0.20974 0.7412 0.0
O325 O 0.46302 0.23657 0.72998 0.0
C326 C 0.53158 0.2979 0.81364 0.0
O327 O 0.45455 0.27345 0.7846 0.0
O328 O 0.46286 0.23914 0.82198 0.0
N329 N 0.48376 0.30317 0.72485 0.0
C330 C 0.45925 0.31327 0.71383 0.0
C331 C 0.49719 0.34312 0.69404 0.0
N332 N 0.50725 0.32161 0.71227 0.0
N333 N 0.46712 0.33857 0.69462 0.0
C334 C 0.52315 0.17983 0.82185 0.0
C335 C 0.52982 0.18492 0.87331 0.0
N336 N 0.51346 0.20461 0.82851 0.0
N337 N 0.51744 0.20756 0.86056 0.0
N338 N 0.53348 0.16704 0.84956 0.0
H339 H 0.52115 0.18585 0.76844 0.0
H340 H 0.50758 0.14863 0.78446 0.0
H341 H 0.54721 0.1641 0.78531 0.0
C342 C 0.52497 0.16938 0.78804 0.0
C343 C 0.42778 0.2973 0.72044 0.0
H344 H 0.42618 0.27279 0.72333 0.0
H345 H 0.41197 0.3022 0.70024 0.0
H346 H 0.4212 0.30484 0.74356 0.0
O347 O 0.51897 0.30307 0.78601 0.0
O348 O 0.52778 0.2712 0.82569 0.0
C349 C 0.44718 0.2577 0.81063 0.0
O350 O 0.54164 0.2382 0.77119 0.0
O351 O 0.52723 0.267 0.73172 0.0
Zn352 Zn 0.01569 0.70781 0.76105 0.0
O353 O 0.00856 0.66591 0.74145 0.0
C354 C 0.03561 0.73714 0.69566 0.0
Zn355 Zn 0.97864 0.71768 0.72694 0.0
C356 C 0.98847 0.65661 0.71945 0.0
O357 O 0.97142 0.67376 0.70778 0.0
C358 C 0.00819 0.76855 0.76931 0.0
O359 O 0.94998 0.69952 0.76454 0.0
O360 O 0.98608 0.68933 0.79813 0.0
N361 N 0.94273 0.72822 0.69906 0.0
C362 C 0.92383 0.7457 0.70593 0.0
C363 C 0.91198 0.73149 0.65739 0.0
N364 N 0.93522 0.71933 0.66889 0.0
N365 N 0.90459 0.74836 0.68011 0.0
C366 C 0.07745 0.6936 0.78187 0.0
C367 C 0.08034 0.6989 0.83344 0.0
N368 N 0.05121 0.69931 0.78992 0.0
N369 N 0.05296 0.7024 0.82201 0.0
N370 N 0.09616 0.69358 0.80862 0.0
H371 H 0.06371 0.67742 0.73352 0.0
H372 H 0.09936 0.67057 0.74974 0.0
H373 H 0.09624 0.70759 0.73541 0.0
C374 C 0.0844 0.68675 0.74819 0.0
C375 C 0.92303 0.75897 0.73845 0.0
H376 H 0.93202 0.74591 0.75869 0.0
H377 H 0.89973 0.76001 0.7435 0.0
H378 H 0.93679 0.78212 0.73787 0.0
O379 O 0.98799 0.76138 0.74669 0.0
O380 O 0.02281 0.74941 0.78074 0.0
C381 C 0.95843 0.6889 0.79199 0.0
O382 O 0.04464 0.72726 0.7233 0.0
O383 O 0.00774 0.7353 0.68949 0.0
Zn384 Zn 0.70885 0.5103 0.29836 0.0
O385 O 0.71669 0.55003 0.26663 0.0
C386 C 0.66178 0.47904 0.25123 0.0
Zn387 Zn 0.72699 0.48654 0.26121 0.0
C388 C 0.72833 0.54976 0.23927 0.0
O389 O 0.73367 0.52544 0.23049 0.0
C390 C 0.71091 0.44762 0.32101 0.0
O391 O 0.76985 0.50159 0.28279 0.0
O392 O 0.75171 0.52372 0.32054 0.0
N393 N 0.74398 0.46603 0.2264 0.0
C394 C 0.76331 0.44758 0.22804 0.0
C395 C 0.75425 0.45799 0.1774 0.0
N396 N 0.73825 0.47232 0.19494 0.0
N397 N 0.76995 0.44213 0.19762 0.0
C398 C 0.69647 0.56095 0.33855 0.0
C399 C 0.65196 0.54259 0.35276 0.0
N400 N 0.68976 0.53199 0.33076 0.0
N401 N 0.66225 0.5205 0.34012 0.0
N402 N 0.67285 0.5684 0.35173 0.0
H403 H 0.7446 0.56955 0.34375 0.0
H404 H 0.72911 0.60139 0.34988 0.0
H405 H 0.73013 0.58883 0.30912 0.0
C406 C 0.72674 0.5814 0.33511 0.0
C407 C 0.77722 0.43651 0.25922 0.0
H408 H 0.80138 0.43738 0.25644 0.0
H409 H 0.76599 0.41283 0.26466 0.0
H410 H 0.77479 0.44961 0.28027 0.0
O411 O 0.72092 0.44798 0.29266 0.0
O412 O 0.70274 0.47066 0.32998 0.0
C413 C 0.77392 0.51661 0.30835 0.0
O414 O 0.66564 0.4958 0.27542 0.0
O415 O 0.6842 0.47162 0.24002 0.0
Zn416 Zn 0.79898 0.78503 0.06044 0.0
O417 O 0.7524 0.76725 0.05738 0.0
C418 C 0.80861 0.73396 0.10191 0.0
Zn419 Zn 0.81065 0.75197 0.02927 0.0
C420 C 0.74502 0.74441 0.04014 0.0
O421 O 0.76498 0.73427 0.02708 0.0
C422 C 0.86498 0.79285 0.049 0.0
O423 O 0.80427 0.77658 0.98466 0.0
O424 O 0.79394 0.80992 0.01564 0.0
N425 N 0.81689 0.71646 0.00526 0.0
C426 C 0.82993 0.71499 0.97704 0.0
C427 C 0.81675 0.67025 -0.00282 0.0
N428 N 0.80865 0.68867 0.01774 0.0
N429 N 0.82983 0.68631 0.97136 0.0
C430 C 0.77865 0.82562 0.10872 0.0
C431 C 0.80113 0.86881 0.09043 0.0
N432 N 0.79482 0.82138 0.08383 0.0
N433 N 0.80902 0.8482 0.07273 0.0
N434 N 0.7825 0.85513 0.11351 0.0
H435 H 0.75623 0.77904 0.11676 0.0
H436 H 0.73439 0.80623 0.12428 0.0
H437 H 0.76413 0.80061 0.15285 0.0
C438 C 0.75713 0.80126 0.12643 0.0
C439 C 0.84432 0.74163 0.95605 0.0
H440 H 0.85238 0.76155 0.97077 0.0
H441 H 0.82754 0.74676 0.93708 0.0
H442 H 0.86348 0.73692 0.94347 0.0
O443 O 0.85693 0.77041 0.03133 0.0
O444 O 0.84533 0.80234 0.06334 0.0
C445 C 0.79599 0.80103 0.98723 0.0
O446 O 0.80213 0.75927 0.10474 0.0
O447 O 0.81476 0.72692 0.07395 0.0
Zn448 Zn 0.45998 0.02936 0.53029 0.0
O449 O 0.48646 0.01434 0.57042 0.0
C450 C 0.503 0.08503 0.51687 0.0
Zn451 Zn 0.49127 0.02238 0.49419 0.0
C452 C 0.51071 0.00735 0.56354 0.0
O453 O 0.51821 0.01023 0.534 0.0
C454 C 0.43925 0.04008 0.46009 0.0
O455 O 0.47147 0.97724 0.48899 0.0
O456 O 0.43843 0.98447 0.5227 0.0
N457 N 0.52495 0.0216 0.46515 0.0
C458 C 0.52609 0.01249 0.4348 0.0
C459 C 0.57111 0.03017 0.45208 0.0
N460 N 0.55287 0.03281 0.47576 0.0
N461 N 0.55478 0.018 0.42592 0.0
C462 C 0.4291 0.04593 0.58935 0.0
C463 C 0.38286 0.03497 0.57369 0.0
N464 N 0.42735 0.03308 0.5604 0.0
N465 N 0.39857 0.02599 0.55084 0.0
N466 N 0.40154 0.04712 0.59832 0.0
H467 H 0.45906 0.04884 0.63189 0.0
H468 H 0.4578 0.08409 0.61106 0.0
H469 H 0.47784 0.05914 0.59429 0.0
C470 C 0.45776 0.06027 0.60733 0.0
C471 C 0.49945 -0.00352 0.41482 0.0
H472 H 0.47955 0.98902 0.42967 0.0
H473 H 0.50472 0.97675 0.40389 0.0
H474 H 0.49394 0.01185 0.39452 0.0
O475 O 0.46381 0.03322 0.45438 0.0
O476 O 0.43303 0.04212 0.48963 0.0
C477 C 0.44731 0.9676 0.50362 0.0
O478 O 0.48199 0.07552 0.53623 0.0
O479 O 0.5103 0.06714 0.49819 0.0
Zn480 Zn 0.51001 0.54264 0.0227 0.0
O481 O 0.51435 0.51852 0.0675 0.0
C482 C 0.57196 0.57541 0.02647 0.0
Zn483 Zn 0.53893 0.51792 -0.00079 0.0
C484 C 0.5313 0.49991 0.06974 0.0
O485 O 0.545 0.49592 0.0449 0.0
C486 C 0.5177 0.56112 0.95226 0.0
O487 O 0.5019 0.48248 0.98868 0.0
O488 O 0.47412 0.50983 0.00893 0.0
N489 N 0.56789 0.49617 0.98036 0.0
C490 C 0.56648 0.48145 0.95263 0.0
C491 C 0.60532 0.4745 0.98089 0.0
N492 N 0.5922 0.4921 -0.00227 0.0
N493 N 0.58979 0.46779 0.95232 0.0
C494 C 0.48346 0.5783 0.07018 0.0
C495 C 0.44442 0.58615 0.04306 0.0
N496 N 0.4813 0.56396 0.04213 0.0
N497 N 0.45676 0.56843 0.02551 0.0
N498 N 0.46053 0.59231 0.07143 0.0
H499 H 0.50139 0.57371 0.11946 0.0
H500 H 0.52101 0.60543 0.09593 0.0
H501 H 0.52602 0.56833 0.08926 0.0
C502 C 0.50959 0.58146 0.09482 0.0
C503 C 0.54112 0.47843 0.92712 0.0
H504 H 0.52251 0.48792 0.93461 0.0
H505 H 0.53259 0.45448 0.9219 0.0
H506 H 0.54946 0.49053 0.90409 0.0
O507 O 0.53258 0.54062 0.95343 0.0
O508 O 0.50583 0.5664 0.9779 0.0
C509 C 0.47634 0.4863 -0.00451 0.0
O510 O 0.54631 0.5763 0.03574 0.0
O511 O 0.57525 0.55339 0.01066 0.0
H512 H 0.93303 0.13372 0.03333 0.0
H513 H 0.02268 0.19584 0.19782 0.0
H514 H 0.00269 0.09644 0.08417 0.0
H515 H 0.95998 0.24103 0.14389 0.0
H516 H 0.01191 0.1569 0.1585 0.0
H517 H 0.93872 0.17087 0.07566 0.0
C518 C 0.94943 0.13343 0.05352 0.0
C519 C 0.96791 0.11265 0.05512 0.0
C520 C 0.00033 0.1752 0.15524 0.0
C521 C 0.97447 0.15445 0.10334 0.0
C522 C 0.00635 0.19743 0.17789 0.0
C523 C -0.00793 0.22168 0.17431 0.0
C524 C 0.97992 0.17714 0.12859 0.0
C525 C 0.97151 0.22272 0.14756 0.0
C526 C 0.95276 0.15456 0.07751 0.0
C527 C 0.98868 0.11274 0.0817 0.0
N528 N 0.96607 0.20075 0.12561 0.0
N529 N 0.99147 0.13339 0.1047 0.0
H530 H 0.79163 0.22797 0.35591 0.0
H531 H 0.96226 0.22552 0.32972 0.0
H532 H 0.83872 0.16797 0.41091 0.0
H533 H 0.90967 0.27351 0.26408 0.0
H534 H 0.91695 0.20263 0.35847 0.0
H535 H 0.8337 0.24271 0.31974 0.0
C536 C 0.81065 0.2174 0.35969 0.0
C537 C 0.81192 0.19674 0.38609 0.0
C538 C 0.91532 0.21811 0.3377 0.0
C539 C 0.8604 0.21393 0.34577 0.0
C540 C 0.94122 0.23132 0.32137 0.0
C541 C 0.93991 0.25193 0.29476 0.0
C542 C 0.8879 0.22563 0.32746 0.0
C543 C 0.91194 0.25828 0.28484 0.0
C544 C 0.83471 0.2259 0.3393 0.0
C545 C 0.837 0.18377 0.39049 0.0
N546 N 0.88713 0.24536 0.30132 0.0
N547 N 0.86052 0.1929 0.37081 0.0
H548 H 0.73811 0.00093 0.64263 0.0
H549 H 0.75264 0.17812 0.62229 0.0
H550 H 0.71358 0.05482 0.7151 0.0
H551 H 0.75756 0.12455 0.54033 0.0
H552 H 0.74391 0.13302 0.65788 0.0
H553 H 0.74979 0.04575 0.6057 0.0
C554 C 0.73512 0.02211 0.65075 0.0
C555 C 0.72488 0.02413 0.68202 0.0
C556 C 0.74694 0.13104 0.63214 0.0
C557 C 0.73844 0.07531 0.64015 0.0
C558 C 0.75204 0.15685 0.61175 0.0
C559 C 0.75561 0.15512 0.57816 0.0
C560 C 0.74546 0.10312 0.61902 0.0
C561 C 0.75484 0.12689 0.56606 0.0
C562 C 0.74179 0.04764 0.62968 0.0
C563 C 0.7214 0.05214 0.69126 0.0
N564 N 0.74973 0.10191 0.5865 0.0
N565 N 0.72827 0.07657 0.67049 0.0
H566 H 0.95761 0.00666 0.83975 0.0
H567 H 0.81835 0.95747 0.75938 0.0
H568 H 0.90724 0.03592 0.91248 0.0
H569 H 0.78488 0.00983 0.8268 0.0
H570 H 0.86815 0.97231 0.78524 0.0
H571 H 0.91237 -0.00421 0.80422 0.0
C572 C 0.93695 0.01067 0.84827 0.0
C573 C 0.93609 0.02178 0.87931 0.0
C574 C 0.85024 0.98117 0.7941 0.0
C575 C 0.8838 0.0086 0.83915 0.0
C576 C 0.82157 0.97234 0.77947 0.0
C577 C 0.79735 0.98215 0.79115 0.0
C578 C 0.85473 0.0002 0.8205 0.0
C579 C 0.80286 0.00157 0.81708 0.0
C580 C 0.91093 0.0042 0.82803 0.0
C581 C 0.9089 0.02712 0.88886 0.0
N582 N 0.83092 0.00979 0.83099 0.0
N583 N 0.88383 0.0203 0.86894 0.0
H584 H 0.1082 0.00937 0.99186 0.0
H585 H 0.13368 0.01447 0.18691 0.0
H586 H 0.05874 0.05261 0.0534 0.0
H587 H 0.19093 0.98012 0.1259 0.0
H588 H 0.10481 0.02678 0.13791 0.0
H589 H 0.13891 -0.00182 0.04021 0.0
C590 C 0.10409 0.01694 0.01538 0.0
C591 C 0.08083 0.03198 0.01852 0.0
C592 C 0.12364 0.01647 0.13522 0.0
C593 C 0.11544 0.01875 0.07394 0.0
C594 C 0.14002 0.00925 0.16325 0.0
C595 C 0.16482 -0.00369 0.16055 0.0
C596 C 0.13202 0.01065 0.1042 0.0
C597 C 0.17199 0.9901 0.12916 0.0
C598 C 0.1215 0.01037 0.043 0.0
C599 C 0.07643 0.04108 0.04968 0.0
N600 N 0.15571 -0.0026 0.1022 0.0
N601 N 0.09339 0.03413 0.07614 0.0
H602 H 0.07511 0.40587 0.47696 0.0
H603 H 0.01595 0.38706 0.29013 0.0
H604 H 0.02381 0.4636 0.42375 0.0
H605 H 0.07142 0.33214 0.3413 0.0
H606 H 0.02378 0.41925 0.33683 0.0
H607 H 0.07956 0.3826 0.42565 0.0
C608 C 0.0652 0.41396 0.45444 0.0
C609 C 0.04862 0.43633 0.45474 0.0
C610 C 0.03453 0.40035 0.33768 0.0
C611 C 0.05331 0.40968 0.39608 0.0
C612 C 0.03009 0.382 0.31096 0.0
C613 C 0.04274 0.35667 0.31192 0.0
C614 C 0.05159 0.39321 0.36562 0.0
C615 C 0.06095 0.35125 0.33958 0.0
C616 C 0.06762 0.40061 0.42516 0.0
C617 C 0.03627 0.446 0.4248 0.0
N618 N 0.06454 0.36915 0.36544 0.0
N619 N 0.03857 0.4324 0.39681 0.0
H620 H 0.71973 0.24031 0.67995 0.0
H621 H 0.56554 0.28973 0.69165 0.0
H622 H 0.69819 0.31899 0.63007 0.0
H623 H 0.59332 0.22546 0.76177 0.0
H624 H 0.61462 0.29982 0.66901 0.0
H625 H 0.67526 0.23486 0.71242 0.0
C626 C 0.70587 0.25673 0.67643 0.0
C627 C 0.71198 0.27975 0.65206 0.0
C628 C 0.61013 0.28356 0.68942 0.0
C629 C 0.66148 0.27369 0.68842 0.0
C630 C 0.58192 0.27751 0.70216 0.0
C631 C 0.57528 0.25661 0.72858 0.0
C632 C 0.6319 0.2684 0.70286 0.0
C633 C 0.59753 0.24168 0.7413 0.0
C634 C 0.6806 0.25364 0.69483 0.0
C635 C 0.69398 0.30089 0.64861 0.0
N636 N 0.62494 0.24777 0.72817 0.0
N637 N 0.66919 0.29706 0.66619 0.0
H638 H 0.6977 0.91109 0.86591 0.0
H639 H 0.79066 0.78565 0.92273 0.0
H640 H 0.72565 0.85515 0.79804 0.0
H641 H 0.77315 0.85148 0.98579 0.0
H642 H 0.76433 0.80809 0.87716 0.0
H643 H 0.72029 0.88496 0.91104 0.0
C644 C 0.708 0.89288 0.86049 0.0
C645 C 0.7099 0.88552 0.828 0.0
C646 C 0.76642 0.81768 0.90095 0.0
C647 C 0.73654 0.85586 0.87971 0.0
C648 C 0.78168 0.80504 0.92692 0.0
C649 C 0.78424 0.81671 0.95819 0.0
C650 C 0.75345 0.84202 0.90635 0.0
C651 C 0.77186 0.84171 0.96217 0.0
C652 C 0.72123 0.87817 0.88631 0.0
C653 C 0.72369 0.86171 0.82264 0.0
N654 N 0.75692 0.85336 0.93667 0.0
N655 N 0.73673 0.84795 0.84818 0.0
H656 H 0.20969 0.29288 0.08941 0.0
H657 H 0.06668 0.34619 0.14624 0.0
H658 H 0.15732 0.34201 0.02488 0.0
H659 H 0.11994 0.29611 0.20842 0.0
H660 H 0.10278 0.35061 0.10357 0.0
H661 H 0.18002 0.29902 0.13471 0.0
C662 C 0.1919 0.305 0.08473 0.0
C663 C 0.18571 0.31657 0.05313 0.0
C664 C 0.10676 0.33901 0.12671 0.0
C665 C 0.15149 0.3238 0.10527 0.0
C666 C 0.08623 0.33659 0.15119 0.0
C667 C 0.09011 0.32048 0.1809 0.0
C668 C 0.13131 0.3252 0.13196 0.0
C669 C 0.11587 0.30853 0.18586 0.0
C670 C 0.17501 0.30862 0.11073 0.0
C671 C 0.16272 0.33256 0.04879 0.0
N672 N 0.13528 0.31088 0.16154 0.0
N673 N 0.14622 0.33547 0.07455 0.0
H674 H 0.7217 0.39344 0.30755 0.0
H675 H 0.74063 0.3385 0.49578 0.0
H676 H 0.7052 0.44373 0.38778 0.0
H677 H 0.75418 0.28905 0.41353 0.0
H678 H 0.72744 0.37736 0.45735 0.0
H679 H 0.73206 0.35436 0.34664 0.0
C680 C 0.71988 0.39612 0.33342 0.0
C681 C 0.7126 0.42198 0.34437 0.0
C682 C 0.73341 0.35803 0.44778 0.0
C683 C 0.72498 0.3773 0.38954 0.0
C684 C 0.74112 0.33593 0.4697 0.0
C685 C 0.74865 0.31048 0.4579 0.0
C686 C 0.73322 0.35463 0.41386 0.0
C687 C 0.74869 0.30827 0.42384 0.0
C688 C 0.72596 0.3738 0.3558 0.0
C689 C 0.71061 0.42412 0.37823 0.0
N690 N 0.74106 0.32997 0.40311 0.0
N691 N 0.717 0.40217 0.39966 0.0
H692 H 0.55789 0.98229 0.55325 0.0
H693 H 0.60055 0.95068 0.74112 0.0
H694 H 0.50504 9e-05 0.6306 0.0
H695 H 0.64008 0.91865 0.6611 0.0
H696 H 0.5629 0.96549 0.70235 0.0
H697 H 0.58688 0.95751 0.59326 0.0
C698 C 0.55242 0.98114 0.57875 0.0
C699 C 0.52906 -0.00645 0.58856 0.0
C700 C 0.57946 0.9547 0.69338 0.0
C701 C 0.56235 0.96476 0.63482 0.0
C702 C 0.60091 0.9461 0.71553 0.0
C703 C 0.62393 0.93392 0.7043 0.0
C704 C 0.58115 0.95123 0.65975 0.0
C705 C 0.62297 0.92814 0.67093 0.0
C706 C 0.5689 0.96669 0.60161 0.0
C707 C 0.52295 0.99099 0.62197 0.0
N708 N 0.60233 0.93735 0.6498 0.0
N709 N 0.53966 0.97706 0.64397 0.0
H710 H 0.01725 0.95385 0.80949 0.0
H711 H 0.05023 0.78955 0.8171 0.0
H712 H 0.08634 0.92616 0.8721 0.0
H713 H 0.98507 0.81754 0.74829 0.0
H714 H 0.06499 0.8403 0.83556 0.0
H715 H 0.00712 0.9054 0.78379 0.0
C716 C 0.03046 0.93756 0.81746 0.0
C717 C 0.05225 0.94349 0.84318 0.0
C718 C 0.04748 0.83544 0.8164 0.0
C719 C 0.04094 0.88836 0.81426 0.0
C720 C 0.03889 0.80636 0.80592 0.0
C721 C 0.01614 0.79918 0.78127 0.0
C722 C 0.03319 0.85763 0.8023 0.0
C723 C 0.00245 0.82199 0.7676 0.0
C724 C 0.02473 0.91001 0.80288 0.0
C725 C 0.06931 0.92219 0.85236 0.0
N726 N 0.01113 0.85024 0.77841 0.0
N727 N 0.06304 0.89535 0.83819 0.0
H728 H 0.0844 0.0976 0.8781 0.0
H729 H 0.13368 0.26668 0.92881 0.0
H730 H 0.0262 0.14054 0.92853 0.0
H731 H 0.19012 0.20217 0.9369 0.0
H732 H 0.09246 0.22819 0.90591 0.0
H733 H 0.12071 0.14524 0.87431 0.0
C734 C 0.0788 0.11722 0.88745 0.0
C735 C 0.05279 0.11498 0.90473 0.0
C736 C 0.11411 0.22284 0.91216 0.0
C737 C 0.09399 0.16915 0.90023 0.0
C738 C 0.13741 0.24454 0.92531 0.0
C739 C 0.16485 0.2371 0.93526 0.0
C740 C 0.11891 0.1941 0.90817 0.0
C741 C 0.16896 0.2084 0.93012 0.0
C742 C 0.09954 0.14431 0.88529 0.0
C743 C 0.04642 0.14121 0.91582 0.0
N744 N 0.14613 0.18784 0.91693 0.0
N745 N 0.06729 0.16726 0.91401 0.0
H746 H 0.63737 0.58538 0.39425 0.0
H747 H 0.65462 0.74895 0.30719 0.0
H748 H 0.69089 0.61721 0.31098 0.0
H749 H 0.57584 0.70656 0.35837 0.0
H750 H 0.67554 0.70449 0.31982 0.0
H751 H 0.62098 0.63333 0.39178 0.0
C752 C 0.64629 0.60272 0.3761 0.0
C753 C 0.66642 0.59765 0.35361 0.0
C754 C 0.65373 0.70489 0.32846 0.0
C755 C 0.64776 0.65203 0.35048 0.0
C756 C 0.64192 0.7302 0.32135 0.0
C757 C 0.61343 0.73093 0.3314 0.0
C758 C 0.63698 0.68022 0.34601 0.0
C759 C 0.5977 0.70635 0.34981 0.0
C760 C 0.63686 0.62988 0.3746 0.0
C761 C 0.67672 0.6205 0.32996 0.0
N762 N 0.60964 0.68175 0.35646 0.0
N763 N 0.66734 0.64663 0.32911 0.0
H764 H 0.28106 0.86325 0.43963 0.0
H765 H 0.45607 0.92743 0.45976 0.0
H766 H 0.34185 0.80746 0.4188 0.0
H767 H 0.39059 0.94579 0.52294 0.0
H768 H 0.41675 0.88873 0.43445 0.0
H769 H 0.32381 0.90231 0.4559 0.0
C770 C 0.30347 0.85952 0.43771 0.0
C771 C 0.30798 0.8319 0.42858 0.0
C772 C 0.41131 0.90115 0.45409 0.0
C773 C 0.35678 0.87619 0.44771 0.0
C774 C 0.43367 0.92296 0.46875 0.0
C775 C 0.42654 0.93998 0.49339 0.0
C776 C 0.38179 0.89701 0.4638 0.0
C777 C 0.39715 0.93338 0.50397 0.0
C778 C 0.32779 0.88167 0.44731 0.0
C779 C 0.3375 0.82841 0.42602 0.0
N780 N 0.37579 0.91274 0.48877 0.0
N781 N 0.36099 0.85023 0.43614 0.0
H782 H 0.124 0.65954 0.85057 0.0
H783 H 0.28192 0.71688 0.7673 0.0
H784 H 0.13921 0.72652 0.77141 0.0
H785 H 0.26351 0.64075 0.8357 0.0
H786 H 0.23167 0.72562 0.77437 0.0
H787 H 0.17719 0.65693 0.85146 0.0
C788 C 0.13867 0.67364 0.83344 0.0
C789 C 0.12732 0.69257 0.81026 0.0
C790 C 0.23865 0.70709 0.78801 0.0
C791 C 0.18777 0.69016 0.81122 0.0
C792 C 0.26718 0.70212 0.78385 0.0
C793 C 0.27629 0.67774 0.80041 0.0
C794 C 0.21928 0.68756 0.80902 0.0
C795 C 0.257 0.65967 0.82241 0.0
C796 C 0.16888 0.6722 0.83388 0.0
C797 C 0.14704 0.71086 0.78882 0.0
N798 N 0.22922 0.66475 0.82587 0.0
N799 N 0.17629 0.70909 0.78968 0.0
H800 H 0.84707 0.26825 0.58918 0.0
H801 H 0.96878 0.37859 0.4976 0.0
H802 H 0.86193 0.25955 0.48747 0.0
H803 H 0.9755 0.36524 0.6027 0.0
H804 H 0.93491 0.32974 0.49402 0.0
H805 H 0.89834 0.29697 0.59655 0.0
C806 C 0.86141 0.27191 0.56855 0.0
C807 C 0.85015 0.26242 0.53743 0.0
C808 C 0.94418 0.33705 0.51789 0.0
C809 C 0.9085 0.29551 0.54555 0.0
C810 C 0.96327 0.36502 0.51992 0.0
C811 C 0.9741 0.37592 0.55053 0.0
C812 C 0.93511 0.32039 0.54681 0.0
C813 C 0.96707 0.35753 0.57873 0.0
C814 C 0.89073 0.28813 0.57282 0.0
C815 C 0.86969 0.26703 0.51171 0.0
N816 N 0.94724 0.33081 0.57629 0.0
N817 N 0.8978 0.28402 0.51612 0.0
H818 H 0.32082 0.94382 0.11022 0.0
H819 H 0.48654 0.937 0.17774 0.0
H820 H 0.35612 0.96274 0.20868 0.0
H821 H 0.43664 0.87284 0.11121 0.0
H822 H 0.44459 0.96253 0.17515 0.0
H823 H 0.36872 0.9316 0.09807 0.0
C824 C 0.33884 0.94623 0.12895 0.0
C825 C 0.33469 0.95533 0.16021 0.0
C826 C 0.44307 0.9432 0.16063 0.0
C827 C 0.38919 0.94191 0.14637 0.0
C828 C 0.46684 0.92865 0.1622 0.0
C829 C 0.46433 0.90234 0.14556 0.0
C830 C 0.41685 0.93146 0.14197 0.0
C831 C 0.43898 0.89288 0.12473 0.0
C832 C 0.36602 0.93932 0.12198 0.0
C833 C 0.35855 0.95754 0.1838 0.0
N834 N 0.4158 0.90717 0.12392 0.0
N835 N 0.38475 0.95095 0.17635 0.0
H836 H 0.44175 0.51026 0.6256 0.0
H837 H 0.42161 0.35421 0.72447 0.0
H838 H 0.37233 0.478 0.69351 0.0
H839 H 0.47588 0.37496 0.64017 0.0
H840 H 0.40016 0.39741 0.70995 0.0
H841 H 0.4523 0.45971 0.62689 0.0
C842 C 0.4287 0.4924 0.64059 0.0
C843 C 0.40698 0.49825 0.66041 0.0
C844 C 0.41623 0.3922 0.69408 0.0
C845 C 0.41851 0.44085 0.66197 0.0
C846 C 0.42816 0.36707 0.70211 0.0
C847 C 0.45014 0.36047 0.68309 0.0
C848 C 0.42693 0.41144 0.66736 0.0
C849 C 0.45888 0.37925 0.65537 0.0
C850 C 0.43459 0.46365 0.64131 0.0
C851 C 0.39015 0.47451 0.67902 0.0
N852 N 0.44758 0.40415 0.64857 0.0
N853 N 0.39651 0.44693 0.67968 0.0
H854 H 0.1983 0.80102 0.59308 0.0
H855 H 0.0245 0.75311 0.63128 0.0
H856 H 0.12656 0.80196 0.52015 0.0
H857 H 0.09657 0.75367 0.70463 0.0
H858 H 0.06142 0.77504 0.59106 0.0
H859 H 0.16137 0.78809 0.63548 0.0
C860 C 0.1747 0.79865 0.58619 0.0
C861 C 0.16519 0.80197 0.55331 0.0
C862 C 0.06915 0.77041 0.61599 0.0
C863 C 0.12294 0.78734 0.60117 0.0
C864 C 0.04808 0.75784 0.63893 0.0
C865 C 0.05751 0.75103 0.67121 0.0
C866 C 0.09985 0.77622 0.62541 0.0
C867 C 0.08833 0.75788 0.67984 0.0
C868 C 0.15366 0.79138 0.61026 0.0
C869 C 0.13456 0.79947 0.54539 0.0
N870 N 0.1084 0.76994 0.65703 0.0
N871 N 0.11442 0.79194 0.56913 0.0
H872 H 0.15492 0.91309 0.29838 0.0
H873 H 0.20903 0.76254 0.32725 0.0
H874 H 0.21536 0.88267 0.23793 0.0
H875 H 0.15892 0.79863 0.39492 0.0
H876 H 0.19375 0.79554 0.28364 0.0
H877 H 0.13973 0.86227 0.32213 0.0
C878 C 0.16466 0.89563 0.28973 0.0
C879 C 0.18731 0.90228 0.26712 0.0
C880 C 0.18542 0.79566 0.30783 0.0
C881 C 0.17009 0.84424 0.29421 0.0
C882 C 0.19409 0.77676 0.33276 0.0
C883 C 0.18631 0.77889 0.36502 0.0
C884 C 0.16925 0.81691 0.31549 0.0
C885 C 0.16632 0.79711 0.37057 0.0
C886 C 0.15585 0.86658 0.30317 0.0
C887 C 0.19851 0.87867 0.25609 0.0
N888 N 0.15912 0.81607 0.3462 0.0
N889 N 0.19027 0.85078 0.27029 0.0
H890 H 0.02311 0.6168 0.73941 0.0
H891 H 0.95126 0.50018 0.60457 0.0
H892 H 0.94873 0.62706 0.67266 0.0
H893 H 0.03707 0.50192 0.6555 0.0
H894 H 0.94331 0.53901 0.63911 0.0
H895 H 0.02199 0.56831 0.71763 0.0
C896 C 0.00634 0.6088 0.72028 0.0
C897 C 0.98617 0.62629 0.70754 0.0
C898 C 0.96364 0.53054 0.64312 0.0
C899 C 0.98483 0.57046 0.68259 0.0
C900 C 0.96815 0.5082 0.62358 0.0
C901 C -0.00484 0.49816 0.62677 0.0
C902 C 0.98627 0.54293 0.66606 0.0
C903 C 0.01604 0.50915 0.65202 0.0
C904 C 0.00575 0.58102 0.70792 0.0
C905 C 0.96487 0.6145 0.68299 0.0
N906 N 0.01136 0.53134 0.67038 0.0
N907 N 0.9649 0.58737 0.67112 0.0
H908 H 0.35316 0.69772 0.3839 0.0
H909 H 0.43486 0.7963 0.23591 0.0
H910 H 0.30508 0.72305 0.29679 0.0
H911 H 0.48114 0.75578 0.31546 0.0
H912 H 0.38698 0.76852 0.25636 0.0
H913 H 0.40027 0.71568 0.35698 0.0
C914 C 0.3526 0.70657 0.35878 0.0
C915 C 0.32546 0.70968 0.34272 0.0
C916 C 0.40766 0.76562 0.26918 0.0
C917 C 0.37914 0.73107 0.31201 0.0
C918 C 0.43496 0.78164 0.25769 0.0
C919 C 0.462 0.77857 0.2742 0.0
C920 C 0.4075 0.7466 0.29744 0.0
C921 C 0.46084 0.75905 0.30209 0.0
C922 C 0.37946 0.71709 0.34349 0.0
C923 C 0.32577 0.72131 0.31026 0.0
N924 N 0.43405 0.74395 0.3129 0.0
N925 N 0.35231 0.73213 0.29606 0.0
H926 H 0.29929 0.07145 0.187 0.0
H927 H 0.24075 0.21598 0.11772 0.0
H928 H 0.22421 0.09825 0.22631 0.0
H929 H 0.29545 0.17012 0.0662 0.0
H930 H 0.24176 0.18016 0.16456 0.0
H931 H 0.30759 0.11674 0.15141 0.0
C932 C 0.28493 0.0872 0.18861 0.0
C933 C 0.2606 0.08083 0.20899 0.0
C934 C 0.25349 0.17803 0.14293 0.0
C935 C 0.26958 0.13225 0.16795 0.0
C936 C 0.25244 0.19806 0.116 0.0
C937 C 0.26714 0.19525 0.08763 0.0
C938 C 0.26983 0.15556 0.14151 0.0
C939 C 0.28349 0.17273 0.08746 0.0
C940 C 0.28956 0.11294 0.16817 0.0
C941 C 0.243 0.10221 0.21058 0.0
N942 N 0.28429 0.15368 0.11392 0.0
N943 N 0.24746 0.12682 0.18973 0.0
H944 H 0.87452 0.65643 0.9765 0.0
H945 H 0.89784 0.68268 0.78472 0.0
H946 H 0.81545 0.69247 0.90721 0.0
H947 H 0.9683 0.67028 0.856 0.0
H948 H 0.86205 0.67166 0.82774 0.0
H949 H 0.90337 0.64697 0.93092 0.0
C950 C 0.8673 0.66156 0.95152 0.0
C951 C 0.84305 0.67546 0.94517 0.0
C952 C 0.88527 0.67098 0.8339 0.0
C953 C 0.87549 0.66504 0.8935 0.0
C954 C 0.90575 0.6773 0.80938 0.0
C955 C 0.93623 0.67804 0.81697 0.0
C956 C 0.89532 0.66552 0.86629 0.0
C957 C 0.94507 0.67038 0.84921 0.0
C958 C 0.88374 0.65638 0.92566 0.0
C959 C 0.83432 0.68197 0.91272 0.0
N960 N 0.92473 0.66485 0.87288 0.0
N961 N 0.85074 0.67698 0.88801 0.0
H962 H 0.35896 0.70845 0.68182 0.0
H963 H 0.32302 0.70966 0.48984 0.0
H964 H 0.39005 0.65231 0.61663 0.0
H965 H 0.28725 0.76126 0.55622 0.0
H966 H 0.35679 0.69687 0.53416 0.0
H967 H 0.34349 0.73733 0.63446 0.0
C968 C 0.36328 0.70267 0.65755 0.0
C969 C 0.37508 0.67743 0.65311 0.0
C970 C 0.34179 0.71125 0.53897 0.0
C971 C 0.35686 0.71001 0.59886 0.0
C972 C 0.32236 0.71843 0.51372 0.0
C973 C 0.30187 0.73607 0.51954 0.0
C974 C 0.34061 0.72161 0.57033 0.0
C975 C 0.30239 0.74724 0.55078 0.0
C976 C 0.35426 0.71909 0.6305 0.0
C977 C 0.38057 0.67129 0.62117 0.0
N978 N 0.32121 0.73951 0.57513 0.0
N979 N 0.37078 0.68706 0.59518 0.0
H980 H 0.26776 0.01708 0.35201 0.0
H981 H 0.44309 0.0304 0.3953 0.0
H982 H 0.32718 0.98649 0.29046 0.0
H983 H 0.38173 0.04777 0.46405 0.0
H984 H 0.4017 0.01977 0.35426 0.0
H985 H 0.30964 0.03189 0.39186 0.0
C986 C 0.28954 0.01325 0.34694 0.0
C987 C 0.29394 0.0006 0.31768 0.0
C988 C 0.39732 0.02617 0.37822 0.0
C989 C 0.34213 0.01801 0.36305 0.0
C990 C 0.42103 0.03254 0.40163 0.0
C991 C 0.41591 0.03986 0.4333 0.0
C992 C 0.36821 0.02716 0.38644 0.0
C993 C 0.38676 0.04219 0.43999 0.0
C994 C 0.31349 0.02188 0.36965 0.0
C995 C 0.32273 -0.0037 0.31248 0.0
N996 N 0.36398 0.03564 0.41685 0.0
N997 N 0.34572 0.00511 0.33485 0.0
H998 H 0.90671 0.79458 0.00339 0.0
H999 H 0.96288 0.96472 0.03547 0.0
H1000 H 0.89191 0.83463 0.09199 0.0
H1001 H 0.99111 0.92244 0.955 0.0
H1002 H 0.94452 0.9154 0.06163 0.0
H1003 H 0.94708 0.83776 0.99151 0.0
C1004 C 0.91268 0.81194 0.02095 0.0
C1005 C 0.89536 0.81167 0.04808 0.0
C1006 C 0.95507 0.91687 0.03844 0.0
C1007 C 0.94071 0.86126 0.03431 0.0
C1008 C 0.96524 0.94503 0.02335 0.0
C1009 C 0.97785 0.94757 0.99272 0.0
C1010 C 0.95707 0.89109 0.02248 0.0
C1011 C 0.98105 0.92141 0.97843 0.0
C1012 C 0.93558 0.83674 0.01404 0.0
C1013 C 0.9042 0.83452 0.07023 0.0
N1014 N 0.97025 0.8942 0.99319 0.0
N1015 N 0.92578 0.85883 0.06242 0.0
H1016 H 0.66069 0.1874 0.4578 0.0
H1017 H 0.52868 0.11883 0.56838 0.0
H1018 H 0.65699 0.22008 0.55392 0.0
H1019 H 0.51909 0.11975 0.46293 0.0
H1020 H 0.57291 0.16017 0.56413 0.0
H1021 H 0.60702 0.16523 0.45863 0.0
C1022 C 0.64853 0.19017 0.47889 0.0
C1023 C 0.66337 0.2052 0.50597 0.0
C1024 C 0.56048 0.152 0.54194 0.0
C1025 C 0.60217 0.17973 0.50732 0.0
C1026 C 0.53511 0.12867 0.54443 0.0
C1027 C 0.52071 0.11583 0.51595 0.0
C1028 C 0.57136 0.16187 0.51082 0.0
C1029 C 0.53002 0.12895 0.48543 0.0
C1030 C 0.61787 0.17771 0.47932 0.0
C1031 C 0.64647 0.20839 0.53261 0.0
N1032 N 0.55522 0.15079 0.48361 0.0
N1033 N 0.61687 0.19525 0.5329 0.0
H1034 H 0.81409 0.46339 0.15634 0.0
H1035 H 0.89098 0.32401 0.19919 0.0
H1036 H 0.77597 0.38638 0.21755 0.0
H1037 H 0.93585 0.40562 0.14973 0.0
H1038 H 0.84524 0.3434 0.19819 0.0
H1039 H 0.85535 0.43947 0.14544 0.0
C1040 C 0.81436 0.44126 0.16712 0.0
C1041 C 0.7922 0.42695 0.18837 0.0
C1042 C 0.86499 0.35713 0.18744 0.0
C1043 C 0.83889 0.39958 0.17622 0.0
C1044 C 0.89106 0.34614 0.18825 0.0
C1045 C 0.91718 0.36377 0.17544 0.0
C1046 C 0.86508 0.38596 0.17364 0.0
C1047 C 0.91608 0.39172 0.16023 0.0
C1048 C 0.83786 0.4277 0.16106 0.0
C1049 C 0.79319 0.39833 0.20174 0.0
N1050 N 0.89046 0.40221 0.16008 0.0
N1051 N 0.81633 0.38564 0.19565 0.0
H1052 H 0.04961 0.55603 0.47776 0.0
H1053 H 0.184 0.68867 0.52189 0.0
H1054 H 0.10667 0.54924 0.56468 0.0
H1055 H 0.16856 0.65892 0.42302 0.0
H1056 H 0.14745 0.64431 0.54062 0.0
H1057 H 0.085 0.60169 0.45985 0.0
C1058 C 0.06936 0.56446 0.49326 0.0
C1059 C 0.07545 0.54909 0.52266 0.0
C1060 C 0.15214 0.64762 0.51487 0.0
C1061 C 0.11534 0.60077 0.50256 0.0
C1062 C 0.17276 0.6728 0.50417 0.0
C1063 C 0.17907 0.67717 0.47094 0.0
C1064 C 0.13732 0.6273 0.49197 0.0
C1065 C 0.16426 0.65603 0.44887 0.0
C1066 C 0.08952 0.59018 0.4829 0.0
C1067 C 0.10139 0.56056 0.54179 0.0
N1068 N 0.14366 0.63196 0.45976 0.0
N1069 N 0.12044 0.58598 0.53147 0.0
H1070 H 0.68109 0.07435 0.85568 0.0
H1071 H 0.58631 0.1696 0.88356 0.0
H1072 H 0.60349 0.01738 0.81071 0.0
H1073 H 0.52057 0.11247 0.82271 0.0
H1074 H 0.61908 0.13437 0.88277 0.0
H1075 H 0.65052 0.10946 0.86704 0.0
C1076 C 0.65744 0.06927 0.84835 0.0
C1077 C 0.64496 0.04331 0.83162 0.0
C1078 C 0.59779 0.12943 0.86909 0.0
C1079 C 0.60902 0.08307 0.84532 0.0
C1080 C 0.57883 0.14948 0.87005 0.0
C1081 C 0.5511 0.14437 0.8524 0.0
C1082 C 0.589 0.10402 0.8501 0.0
C1083 C 0.54225 0.11781 0.83561 0.0
C1084 C 0.63975 0.08928 0.85503 0.0
C1085 C 0.61422 0.03763 0.82271 0.0
N1086 N 0.56124 0.09882 0.8346 0.0
N1087 N 0.59737 0.05739 0.82954 0.0
H1088 H 0.75824 0.55604 0.18293 0.0
H1089 H 0.77791 0.73316 0.15785 0.0
H1090 H 0.72402 0.60755 0.25072 0.0
H1091 H 0.82519 0.68018 0.10555 0.0
H1092 H 0.75852 0.68883 0.19327 0.0
H1093 H 0.78129 0.60216 0.15367 0.0
C1094 C 0.75532 0.57707 0.19157 0.0
C1095 C 0.73916 0.57782 0.21946 0.0
C1096 C 0.77353 0.68711 0.17437 0.0
C1097 C 0.76604 0.63118 0.18598 0.0
C1098 C 0.78487 0.71247 0.15436 0.0
C1099 C 0.80306 0.71034 0.12851 0.0
C1100 C 0.78033 0.65952 0.16831 0.0
C1101 C 0.81108 0.68287 0.12496 0.0
C1102 C 0.76878 0.60351 0.17495 0.0
C1103 C 0.7363 0.60589 0.22938 0.0
N1104 N 0.79939 0.65854 0.14431 0.0
N1105 N 0.74963 0.6315 0.21263 0.0
H1106 H 0.94348 0.49694 0.40857 0.0
H1107 H 0.8241 0.49796 0.29329 0.0
H1108 H 0.8788 0.50808 0.47641 0.0
H1109 H 0.78991 0.54541 0.36525 0.0
H1110 H 0.86732 0.49548 0.33017 0.0
H1111 H 0.90953 0.50732 0.36296 0.0
C1112 C 0.92172 0.50068 0.41374 0.0
C1113 C 0.91332 0.50069 0.4461 0.0
C1114 C 0.85094 0.5073 0.33753 0.0
C1115 C 0.8748 0.51322 0.39448 0.0
C1116 C 0.82613 0.50865 0.31647 0.0
C1117 C 0.80315 0.52149 0.32649 0.0
C1118 C 0.85264 0.51894 0.3687 0.0
C1119 C 0.80692 0.53497 0.35672 0.0
C1120 C 0.90246 0.50687 0.38776 0.0
C1121 C 0.88573 0.50742 0.4517 0.0
N1122 N 0.83095 0.53285 0.37702 0.0
N1123 N 0.86742 0.51339 0.42613 0.0
H1124 H 0.25302 0.57607 0.72136 0.0
H1125 H 0.1751 0.46426 0.58272 0.0
H1126 H 0.29678 0.5604 0.6356 0.0
H1127 H 0.13315 0.47292 0.6719 0.0
H1128 H 0.22033 0.49915 0.60228 0.0
H1129 H 0.20786 0.54031 0.70273 0.0
C1130 C 0.25291 0.56559 0.69831 0.0
C1131 C 0.27867 0.5711 0.68004 0.0
C1132 C 0.20138 0.49327 0.6178 0.0
C1133 C 0.22756 0.52982 0.65903 0.0
C1134 C 0.1758 0.47305 0.6068 0.0
C1135 C 0.15052 0.46604 0.6257 0.0
C1136 C 0.20156 0.50659 0.6479 0.0
C1137 C 0.15221 0.47822 0.65655 0.0
C1138 C 0.2273 0.5449 0.68791 0.0
C1139 C 0.27745 0.55668 0.65054 0.0
N1140 N 0.17721 0.49821 0.6666 0.0
N1141 N 0.25241 0.5366 0.64107 0.0
H1142 H 0.61437 0.87741 0.15213 0.0
H1143 H 0.77833 0.85162 0.17883 0.0
H1144 H 0.65164 0.84447 0.2429 0.0
H1145 H 0.74443 0.88877 0.08904 0.0
H1146 H 0.73688 0.86264 0.2074 0.0
H1147 H 0.6652 0.89437 0.13286 0.0
C1148 C 0.63326 0.87409 0.16811 0.0
C1149 C 0.62885 0.85862 0.19861 0.0
C1150 C 0.73879 0.86913 0.18161 0.0
C1151 C 0.68672 0.878 0.17704 0.0
C1152 C 0.76245 0.86289 0.1655 0.0
C1153 C 0.76405 0.86885 0.13174 0.0
C1154 C 0.71633 0.88058 0.1634 0.0
C1155 C 0.74345 0.88371 0.11518 0.0
C1156 C 0.66225 0.88389 0.15722 0.0
C1157 C 0.65401 0.85543 0.21871 0.0
N1158 N 0.71984 0.8884 0.13102 0.0
N1159 N 0.68184 0.86461 0.20736 0.0
H1160 H 0.61212 0.50234 0.25714 0.0
H1161 H 0.55505 0.45043 0.08111 0.0
H1162 H 0.64417 0.43672 0.20594 0.0
H1163 H 0.52207 0.51635 0.13075 0.0
H1164 H 0.57598 0.43382 0.13331 0.0
H1165 H 0.56829 0.49649 0.21888 0.0
C1166 C 0.60958 0.48619 0.23833 0.0
C1167 C 0.63224 0.47074 0.23391 0.0
C1168 C 0.56368 0.45154 0.13298 0.0
C1169 C 0.58249 0.46412 0.1901 0.0
C1170 C 0.55178 0.46105 0.10315 0.0
C1171 C 0.53769 0.48539 0.10158 0.0
C1172 C 0.56209 0.46699 0.16122 0.0
C1173 C 0.53336 0.49788 0.13088 0.0
C1174 C 0.58457 0.48286 0.21648 0.0
C1175 C 0.62763 0.44976 0.20954 0.0
N1176 N 0.54624 0.48905 0.15948 0.0
N1177 N 0.60355 0.4475 0.18814 0.0
H1178 H 0.47119 0.42552 -0.00136 0.0
H1179 H 0.29302 0.39842 0.00375 0.0
H1180 H 0.4201 0.49454 0.98452 0.0
H1181 H 0.34024 0.32616 0.01381 0.0
H1182 H 0.34071 0.43413 0.00084 0.0
H1183 H 0.42413 0.38802 0.00438 0.0
C1184 C 0.45003 0.43259 -0.00402 0.0
C1185 C 0.44926 0.46296 0.99135 0.0
C1186 C 0.34078 0.41049 0.00402 0.0
C1187 C 0.39607 0.42091 -0.00129 0.0
C1188 C 0.31358 0.39019 0.00601 0.0
C1189 C 0.31289 0.35948 0.00869 0.0
C1190 C 0.36741 0.39993 0.00446 0.0
C1191 C 0.34 0.34979 0.01176 0.0
C1192 C 0.42332 0.41137 -0.00028 0.0
C1193 C 0.42151 0.47127 0.9884 0.0
N1194 N 0.36635 0.37004 0.00908 0.0
N1195 N 0.39602 0.45036 0.99239 0.0
H1196 H 0.09988 0.19284 0.36143 0.0
H1197 H 0.10038 0.03758 0.28252 0.0
H1198 H 0.05976 0.16584 0.26693 0.0
H1199 H 0.16294 0.07368 0.36037 0.0
H1200 H 0.07418 0.0783 0.2869 0.0
H1201 H 0.1138 0.14386 0.37039 0.0
C1202 C 0.09345 0.17635 0.34297 0.0
C1203 C 0.0779 0.18299 0.31385 0.0
C1204 C 0.09339 0.07714 0.30338 0.0
C1205 C 0.09354 0.12745 0.32374 0.0
C1206 C 0.10823 0.05399 0.30083 0.0
C1207 C 0.1341 0.05303 0.32054 0.0
C1208 C 0.10468 0.09948 0.32571 0.0
C1209 C 0.14316 0.07411 0.34458 0.0
C1210 C 0.10128 0.14853 0.34807 0.0
C1211 C 0.07044 0.16121 0.29035 0.0
N1212 N 0.12875 0.09694 0.34615 0.0
N1213 N 0.07837 0.13448 0.2958 0.0
H1214 H 0.22753 0.39533 0.83112 0.0
H1215 H 0.33082 0.56037 0.83358 0.0
H1216 H 0.25104 0.4442 0.91879 0.0
H1217 H 0.32657 0.50251 0.75321 0.0
H1218 H 0.29872 0.51956 0.86408 0.0
H1219 H 0.25909 0.43686 0.79994 0.0
C1220 C 0.23872 0.41531 0.84344 0.0
C1221 C 0.23654 0.41694 0.87718 0.0
C1222 C 0.30503 0.51567 0.83991 0.0
C1223 C 0.27308 0.46372 0.84248 0.0
C1224 C 0.3235 0.5389 0.82257 0.0
C1225 C 0.33139 0.53478 0.79086 0.0
C1226 C 0.29402 0.48822 0.82528 0.0
C1227 C 0.32119 0.50654 0.77771 0.0
C1228 C 0.25704 0.43869 0.82592 0.0
C1229 C 0.25199 0.44264 0.8926 0.0
N1230 N 0.30273 0.48438 0.79487 0.0
N1231 N 0.26971 0.46507 0.87515 0.0
H1232 H 0.2929 0.23443 0.92838 0.0
H1233 H 0.4185 0.30403 0.80175 0.0
H1234 H 0.30042 0.32208 0.88023 0.0
H1235 H 0.41481 0.2199 0.85661 0.0
H1236 H 0.37305 0.3093 0.82665 0.0
H1237 H 0.33428 0.2267 0.89779 0.0
C1238 C 0.30306 0.25196 0.91102 0.0
C1239 C 0.29336 0.27908 0.90702 0.0
C1240 C 0.38207 0.28964 0.83319 0.0
C1241 C 0.34115 0.27043 0.87214 0.0
C1242 C 0.408 0.28652 0.8189 0.0
C1243 C 0.42034 0.26131 0.82691 0.0
C1244 C 0.36828 0.26741 0.85575 0.0
C1245 C 0.4061 0.2397 0.84979 0.0
C1246 C 0.3268 0.24754 0.89365 0.0
C1247 C 0.30719 0.30085 0.88401 0.0
N1248 N 0.38077 0.24323 0.86339 0.0
N1249 N 0.33064 0.29616 0.86762 0.0
H1250 H 0.53127 0.55052 0.89024 0.0
H1251 H 0.4312 0.65981 0.81155 0.0
H1252 H 0.49435 0.61108 0.94409 0.0
H1253 H 0.46367 0.59649 0.75711 0.0
H1254 H 0.46628 0.65241 0.85698 0.0
H1255 H 0.51777 0.57599 0.83904 0.0
C1256 C 0.52069 0.5694 0.89131 0.0
C1257 C 0.51323 0.57824 0.92137 0.0
C1258 C 0.46619 0.64059 0.83483 0.0
C1259 C 0.49785 0.60746 0.8631 0.0
C1260 C 0.44625 0.64494 0.80878 0.0
C1261 C 0.44386 0.62804 0.78092 0.0
C1262 C 0.48352 0.61894 0.83307 0.0
C1263 C 0.46427 0.60948 0.77848 0.0
C1264 C 0.51306 0.58398 0.8621 0.0
C1265 C 0.49989 0.60307 0.9214 0.0
N1266 N 0.48276 0.60485 0.80458 0.0
N1267 N 0.49228 0.61654 0.8927 0.0
H1268 H 0.70175 0.73335 0.08548 0.0
H1269 H 0.6245 0.58775 -0.0042 0.0
H1270 H 0.71889 0.71678 0.98652 0.0
H1271 H 0.57554 0.62228 0.06606 0.0
H1272 H 0.66291 0.63367 -0.00228 0.0
H1273 H 0.65619 0.69311 0.08264 0.0
C1274 C 0.69533 0.72192 0.06288 0.0
C1275 C 0.71406 0.72776 0.03636 0.0
C1276 C 0.64372 0.63123 0.01268 0.0
C1277 C 0.66333 0.68196 0.03332 0.0
C1278 C 0.622 0.60488 0.01191 0.0
C1279 C 0.59683 0.60135 0.0307 0.0
C1280 C 0.64043 0.65402 0.03268 0.0
C1281 C 0.59465 0.62432 0.05108 0.0
C1282 C 0.66964 0.69891 0.06137 0.0
C1283 C 0.70516 0.71241 0.00766 0.0
N1284 N 0.61633 0.64984 0.05165 0.0
N1285 N 0.68067 0.6898 0.00709 0.0
H1286 H 0.84739 0.7316 0.65585 0.0
H1287 H 0.7431 0.82398 0.65841 0.0
H1288 H 0.91128 0.80638 0.69469 0.0
H1289 H 0.81734 0.88984 0.69658 0.0
H1290 H 0.77683 0.7901 0.65316 0.0
H1291 H 0.8091 0.76159 0.65218 0.0
C1292 C 0.85322 0.75443 0.6636 0.0
C1293 C 0.88221 0.76628 0.67643 0.0
C1294 C 0.78604 0.81181 0.66278 0.0
C1295 C 0.83864 0.80122 0.67238 0.0
C1296 C 0.76663 0.83121 0.66565 0.0
C1297 C 0.77732 0.85936 0.67875 0.0
C1298 C 0.81656 0.82083 0.67287 0.0
C1299 C 0.80798 0.86792 0.68746 0.0
C1300 C 0.83132 0.77169 0.66165 0.0
C1301 C 0.8889 0.79604 0.68578 0.0
N1302 N 0.82641 0.84872 0.68453 0.0
N1303 N 0.8673 0.81235 0.68374 0.0
H1304 H 0.44841 0.15092 0.76205 0.0
H1305 H 0.37972 0.09688 0.58755 0.0
H1306 H 0.43055 0.21075 0.68125 0.0
H1307 H 0.4107 0.04023 0.66354 0.0
H1308 H 0.38419 0.13627 0.62675 0.0
H1309 H 0.42181 0.10849 0.7313 0.0
C1310 C 0.4387 0.15517 0.73788 0.0
C1311 C 0.44229 0.18439 0.72385 0.0
C1312 C 0.38924 0.11494 0.63514 0.0
C1313 C 0.41176 0.13579 0.68851 0.0
C1314 C 0.38634 0.09245 0.61291 0.0
C1315 C 0.39514 0.06568 0.62259 0.0
C1316 C 0.4011 0.1104 0.66705 0.0
C1317 C 0.40397 0.06083 0.6554 0.0
C1318 C 0.42339 0.1309 0.7204 0.0
C1319 C 0.42872 0.18854 0.69275 0.0
N1320 N 0.40724 0.08322 0.67642 0.0
N1321 N 0.4144 0.16442 0.67588 0.0
H1322 H 0.54889 0.35628 0.79184 0.0
H1323 H 0.59703 0.41238 0.97097 0.0
H1324 H 0.5549 0.29695 0.87694 0.0
H1325 H 0.58974 0.47112 0.88608 0.0
H1326 H 0.59192 0.37041 0.93523 0.0
H1327 H 0.57312 0.3987 0.82404 0.0
C1328 C 0.55554 0.35214 0.81727 0.0
C1329 C 0.54933 0.3231 0.83194 0.0
C1330 C 0.59186 0.39254 0.92431 0.0
C1331 C 0.57701 0.37163 0.86899 0.0
C1332 C 0.59496 0.41644 0.94468 0.0
C1333 C 0.59291 0.44486 0.93131 0.0
C1334 C 0.58663 0.39723 0.89041 0.0
C1335 C 0.59038 0.44923 0.89721 0.0
C1336 C 0.56947 0.37639 0.83562 0.0
C1337 C 0.55891 0.31902 0.86479 0.0
N1338 N 0.5868 0.42552 0.87789 0.0
N1339 N 0.5719 0.3431 0.88237 0.0
H1340 H 0.58867 0.87632 0.33008 0.0
H1341 H 0.53895 0.02548 0.36187 0.0
H1342 H 0.53896 0.92204 0.25847 0.0
H1343 H 0.59621 0.9845 0.42881 0.0
H1344 H 0.54801 -0.00564 0.31864 0.0
H1345 H 0.59994 0.92084 0.36212 0.0
C1346 C 0.58012 0.89574 0.32111 0.0
C1347 C 0.56213 0.89525 0.29209 0.0
C1348 C 0.55917 -0.0074 0.34256 0.0
C1349 C 0.57508 0.94627 0.32844 0.0
C1350 C 0.55393 0.01028 0.36708 0.0
C1351 C 0.56608 0.00652 0.39884 0.0
C1352 C 0.57635 0.97093 0.35029 0.0
C1353 C 0.5861 0.98745 0.40456 0.0
C1354 C 0.58681 0.92127 0.33923 0.0
C1355 C 0.55228 0.92124 0.28114 0.0
N1356 N 0.59008 0.96972 0.38066 0.0
N1357 N 0.55853 0.94561 0.29961 0.0
H1358 H 0.46078 0.59255 0.13743 0.0
H1359 H 0.51535 0.77063 0.13203 0.0
H1360 H 0.46222 0.64885 0.04916 0.0
H1361 H 0.5288 0.71329 0.21679 0.0
H1362 H 0.49 0.72667 0.10285 0.0
H1363 H 0.47745 0.63739 0.16933 0.0
C1364 C 0.46396 0.61448 0.125 0.0
C1365 C 0.46081 0.6173 0.0908 0.0
C1366 C 0.49861 0.72367 0.12778 0.0
C1367 C 0.47997 0.66823 0.12652 0.0
C1368 C 0.51331 0.74872 0.14437 0.0
C1369 C 0.52437 0.74554 0.17681 0.0
C1370 C 0.49483 0.69524 0.14379 0.0
C1371 C 0.52095 0.71668 0.19168 0.0
C1372 C 0.47365 0.63995 0.14303 0.0
C1373 C 0.46454 0.64596 0.07557 0.0
N1374 N 0.50634 0.69257 0.17504 0.0
N1375 N 0.47441 0.67041 0.0935 0.0
loop_
_geom_bond_atom_site_label_1
_geom_bond_atom_site_label_2
_geom_bond_distance
_geom_bond_site_symmetry_2
_ccdc_geom_bond_type
Zn0 O1 2.055 . S
Zn0 O8 2.046 1_455 S
Zn0 N16 2.036 1_455 S
Zn0 O28 2.053 1_454 S
Zn0 O30 2.066 . S
O1 Zn0 2.055 . S
O1 C4 1.259 . S
C2 O30 1.256 1_556 S
C2 O31 1.244 . S
Zn3 O5 2.043 1_546 S
Zn3 O7 2.051 1_446 S
Zn3 N9 2.029 1_545 S
Zn3 O27 2.072 1_455 S
Zn3 O31 2.062 . S
C4 O1 1.259 . S
C4 O5 1.254 1_545 S
O5 Zn3 2.043 1_564 S
O5 C4 1.254 1_565 S
C6 O27 1.256 . S
C6 O28 1.244 . S
O7 Zn3 2.051 1_664 S
O7 C29 1.259 . S
O8 Zn0 2.046 1_655 S
O8 C29 1.254 1_545 S
N9 Zn3 2.029 1_565 S
N9 C10 1.298 . S
N9 N12 1.398 . S
C10 N9 1.298 . S
C10 N13 1.367 . S
C10 C23 1.481 1_455 S
C11 N12 1.299 . S
C11 N13 1.379 . S
N12 N9 1.398 . S
N12 C11 1.299 . S
N13 C10 1.367 . S
N13 C11 1.379 . S
C14 N16 1.298 1_455 S
C14 N18 1.367 1_455 S
C14 C22 1.481 . S
C15 N17 1.299 . S
C15 N18 1.379 . S
N16 Zn0 2.036 1_655 S
N16 C14 1.298 1_655 S
N16 N17 1.398 . S
N17 C15 1.299 . S
N17 N16 1.398 . S
N18 C14 1.367 1_655 S
N18 C15 1.379 . S
H19 C22 0.980 . S
H20 C22 0.981 . S
H21 C22 0.981 . S
C22 C14 1.481 . S
C22 H19 0.980 . S
C22 H20 0.981 . S
C22 H21 0.981 . S
C23 C10 1.481 1_655 S
C23 H24 0.980 . S
C23 H25 0.981 . S
C23 H26 0.981 . S
H24 C23 0.980 . S
H25 C23 0.981 . S
H26 C23 0.981 . S
O27 Zn3 2.072 1_655 S
O27 C6 1.256 . S
O28 Zn0 2.053 1_656 S
O28 C6 1.244 . S
C29 O7 1.259 . S
C29 O8 1.254 1_565 S
O30 Zn0 2.066 . S
O30 C2 1.256 1_554 S
O31 C2 1.244 . S
O31 Zn3 2.062 . S
Zn32 O33 2.055 . S
Zn32 O40 2.046 . S
Zn32 N48 2.036 . S
Zn32 O60 2.053 . S
Zn32 O62 2.066 . S
O33 Zn32 2.055 . S
O33 C36 1.259 . S
C34 O62 1.256 . S
C34 O63 1.244 . S
Zn35 O37 2.046 . S
Zn35 O39 2.055 1_455 S
Zn35 N41 2.037 1_455 S
Zn35 O59 2.066 . S
Zn35 O63 2.053 . S
C36 O33 1.259 . S
C36 O37 1.254 . S
O37 Zn35 2.046 . S
O37 C36 1.254 . S
C38 O59 1.256 . S
C38 O60 1.244 . S
O39 Zn35 2.055 1_655 S
O39 C61 1.259 1_655 S
O40 Zn32 2.046 . S
O40 C61 1.254 . S
N41 Zn35 2.037 1_655 S
N41 C42 1.297 . S
N41 N44 1.398 1_655 S
C42 N41 1.297 . S
C42 N45 1.367 . S
C42 C55 1.481 . S
C43 N44 1.299 1_655 S
C43 N45 1.379 . S
N44 N41 1.398 1_455 S
N44 C43 1.299 1_455 S
N45 C42 1.367 . S
N45 C43 1.379 . S
C46 N48 1.298 . S
C46 N50 1.367 . S
C46 C54 1.481 . S
C47 N49 1.299 . S
C47 N50 1.379 . S
N48 Zn32 2.036 . S
N48 C46 1.298 . S
N48 N49 1.398 . S
N49 C47 1.299 . S
N49 N48 1.398 . S
N50 C46 1.367 . S
N50 C47 1.379 . S
H51 C54 0.980 . S
H52 C54 0.981 . S
H53 C54 0.981 . S
C54 C46 1.481 . S
C54 H51 0.980 . S
C54 H52 0.981 . S
C54 H53 0.981 . S
C55 C42 1.481 . S
C55 H56 0.980 . S
C55 H57 0.981 . S
C55 H58 0.981 . S
H56 C55 0.980 . S
H57 C55 0.981 . S
H58 C55 0.981 . S
O59 Zn35 2.066 . S
O59 C38 1.256 . S
O60 Zn32 2.053 . S
O60 C38 1.244 . S
C61 O39 1.259 1_455 S
C61 O40 1.254 . S
O62 Zn32 2.066 . S
O62 C34 1.256 . S
O63 C34 1.244 . S
O63 Zn35 2.053 . S
Zn64 O65 2.055 . S
Zn64 O72 2.046 . S
Zn64 N80 2.036 . S
Zn64 O92 2.053 . S
Zn64 O94 2.066 . S
O65 Zn64 2.055 . S
O65 C68 1.259 . S
C66 O94 1.256 . S
C66 O95 1.244 . S
Zn67 O69 2.046 . S
Zn67 O71 2.055 . S
Zn67 N73 2.036 . S
Zn67 O91 2.066 . S
Zn67 O95 2.053 . S
C68 O65 1.259 . S
C68 O69 1.254 . S
O69 Zn67 2.046 . S
O69 C68 1.254 . S
C70 O91 1.256 . S
C70 O92 1.244 . S
O71 Zn67 2.055 . S
O71 C93 1.259 . S
O72 Zn64 2.046 . S
O72 C93 1.254 . S
N73 Zn67 2.036 . S
N73 C74 1.298 . S
N73 N76 1.398 . S
C74 N73 1.298 . S
C74 N77 1.367 . S
C74 C87 1.481 . S
C75 N76 1.299 . S
C75 N77 1.379 . S
N76 N73 1.398 . S
N76 C75 1.299 . S
N77 C74 1.367 . S
N77 C75 1.379 . S
C78 N80 1.298 . S
C78 N82 1.367 . S
C78 C86 1.481 . S
C79 N81 1.299 . S
C79 N82 1.379 . S
N80 Zn64 2.036 . S
N80 C78 1.298 . S
N80 N81 1.398 . S
N81 C79 1.299 . S
N81 N80 1.398 . S
N82 C78 1.367 . S
N82 C79 1.379 . S
H83 C86 0.980 . S
H84 C86 0.981 . S
H85 C86 0.981 . S
C86 C78 1.481 . S
C86 H83 0.980 . S
C86 H84 0.981 . S
C86 H85 0.981 . S
C87 C74 1.481 . S
C87 H88 0.980 . S
C87 H89 0.981 . S
C87 H90 0.981 . S
H88 C87 0.980 . S
H89 C87 0.981 . S
H90 C87 0.981 . S
O91 Zn67 2.066 . S
O91 C70 1.256 . S
O92 Zn64 2.053 . S
O92 C70 1.244 . S
C93 O71 1.259 . S
C93 O72 1.254 . S
O94 Zn64 2.066 . S
O94 C66 1.256 . S
O95 C66 1.244 . S
O95 Zn67 2.053 . S
Zn96 O97 2.055 . S
Zn96 O104 2.046 . S
Zn96 N112 2.036 . S
Zn96 O124 2.053 . S
Zn96 O126 2.066 . S
O97 Zn96 2.055 . S
O97 C100 1.259 . S
C98 O126 1.256 . S
C98 O127 1.249 . S
Zn99 O101 2.046 . S
Zn99 O103 2.055 . S
Zn99 N105 2.036 1_545 S
Zn99 O123 2.066 1_545 S
Zn99 O127 2.052 . S
C100 O97 1.259 . S
C100 O101 1.254 . S
O101 Zn99 2.046 . S
O101 C100 1.254 . S
C102 O123 1.256 . S
C102 O124 1.244 1_565 S
O103 Zn99 2.055 . S
O103 C125 1.259 . S
O104 Zn96 2.046 . S
O104 C125 1.254 . S
N105 Zn99 2.036 1_565 S
N105 C106 1.298 . S
N105 N108 1.398 . S
C106 N105 1.298 . S
C106 N109 1.367 . S
C106 C119 1.481 . S
C107 N108 1.299 . S
C107 N109 1.379 . S
N108 N105 1.398 . S
N108 C107 1.299 . S
N109 C106 1.367 . S
N109 C107 1.379 . S
C110 N112 1.298 . S
C110 N114 1.367 . S
C110 C118 1.481 . S
C111 N113 1.299 . S
C111 N114 1.379 . S
N112 Zn96 2.036 . S
N112 C110 1.298 . S
N112 N113 1.398 . S
N113 C111 1.299 . S
N113 N112 1.398 . S
N114 C110 1.367 . S
N114 C111 1.379 . S
H115 C118 0.980 . S
H116 C118 0.981 . S
H117 C118 0.981 . S
C118 C110 1.481 . S
C118 H115 0.980 . S
C118 H116 0.981 . S
C118 H117 0.981 . S
C119 C106 1.481 . S
C119 H120 0.980 . S
C119 H121 0.981 . S
C119 H122 0.981 . S
H120 C119 0.980 . S
H121 C119 0.981 . S
H122 C119 0.981 . S
O123 Zn99 2.066 1_565 S
O123 C102 1.256 . S
O124 Zn96 2.053 . S
O124 C102 1.244 1_545 S
C125 O103 1.259 . S
C125 O104 1.254 . S
O126 Zn96 2.066 . S
O126 C98 1.256 . S
O127 C98 1.249 . S
O127 Zn99 2.052 . S
Zn128 O129 2.055 . S
Zn128 O136 2.046 . S
Zn128 N144 2.036 . S
Zn128 O156 2.053 . S
Zn128 O158 2.066 . S
O129 Zn128 2.055 . S
O129 C132 1.259 . S
C130 O158 1.256 . S
C130 O159 1.244 . S
Zn131 O133 2.046 . S
Zn131 O135 2.055 . S
Zn131 N137 2.036 . S
Zn131 O155 2.066 . S
Zn131 O159 2.053 . S
C132 O129 1.259 . S
C132 O133 1.254 . S
O133 Zn131 2.046 . S
O133 C132 1.254 . S
C134 O155 1.256 . S
C134 O156 1.244 . S
O135 Zn131 2.055 . S
O135 C157 1.259 . S
O136 Zn128 2.046 . S
O136 C157 1.254 . S
N137 Zn131 2.036 . S
N137 C138 1.298 . S
N137 N140 1.398 . S
C138 N137 1.298 . S
C138 N141 1.367 . S
C138 C151 1.481 . S
C139 N140 1.299 . S
C139 N141 1.379 . S
N140 N137 1.398 . S
N140 C139 1.299 . S
N141 C138 1.367 . S
N141 C139 1.379 . S
C142 N144 1.298 . S
C142 N146 1.367 . S
C142 C150 1.481 . S
C143 N145 1.299 . S
C143 N146 1.379 . S
N144 Zn128 2.036 . S
N144 C142 1.298 . S
N144 N145 1.398 . S
N145 C143 1.299 . S
N145 N144 1.398 . S
N146 C142 1.367 . S
N146 C143 1.379 . S
H147 C150 0.980 . S
H148 C150 0.981 . S
H149 C150 0.981 . S
C150 C142 1.481 . S
C150 H147 0.980 . S
C150 H148 0.981 . S
C150 H149 0.981 . S
C151 C138 1.481 . S
C151 H152 0.980 . S
C151 H153 0.981 . S
C151 H154 0.981 . S
H152 C151 0.980 . S
H153 C151 0.981 . S
H154 C151 0.981 . S
O155 Zn131 2.066 . S
O155 C134 1.256 . S
O156 Zn128 2.053 . S
O156 C134 1.244 . S
C157 O135 1.259 . S
C157 O136 1.254 . S
O158 Zn128 2.066 . S
O158 C130 1.256 . S
O159 C130 1.244 . S
O159 Zn131 2.053 . S
Zn160 O161 2.055 . S
Zn160 O168 2.046 . S
Zn160 N176 2.036 . S
Zn160 O188 2.053 . S
Zn160 O190 2.066 . S
O161 Zn160 2.055 . S
O161 C164 1.259 . S
C162 O190 1.256 . S
C162 O191 1.244 . S
Zn163 O165 2.046 . S
Zn163 O167 2.055 . S
Zn163 N169 2.036 . S
Zn163 O187 2.066 . S
Zn163 O191 2.053 . S
C164 O161 1.259 . S
C164 O165 1.254 . S
O165 Zn163 2.046 . S
O165 C164 1.254 . S
C166 O187 1.256 . S
C166 O188 1.244 . S
O167 Zn163 2.055 . S
O167 C189 1.259 . S
O168 Zn160 2.046 . S
O168 C189 1.254 . S
N169 Zn163 2.036 . S
N169 C170 1.298 . S
N169 N172 1.398 . S
C170 N169 1.298 . S
C170 N173 1.367 . S
C170 C183 1.481 . S
C171 N172 1.299 . S
C171 N173 1.379 . S
N172 N169 1.398 . S
N172 C171 1.299 . S
N173 C170 1.367 . S
N173 C171 1.379 . S
C174 N176 1.298 . S
C174 N178 1.367 . S
C174 C182 1.481 . S
C175 N177 1.299 . S
C175 N178 1.379 . S
N176 Zn160 2.036 . S
N176 C174 1.298 . S
N176 N177 1.398 . S
N177 C175 1.299 . S
N177 N176 1.398 . S
N178 C174 1.367 . S
N178 C175 1.379 . S
H179 C182 0.980 . S
H180 C182 0.981 . S
H181 C182 0.981 . S
C182 C174 1.481 . S
C182 H179 0.980 . S
C182 H180 0.981 . S
C182 H181 0.981 . S
C183 C170 1.481 . S
C183 H184 0.980 . S
C183 H185 0.981 . S
C183 H186 0.981 . S
H184 C183 0.980 . S
H185 C183 0.981 . S
H186 C183 0.981 . S
O187 Zn163 2.066 . S
O187 C166 1.256 . S
O188 Zn160 2.053 . S
O188 C166 1.244 . S
C189 O167 1.259 . S
C189 O168 1.254 . S
O190 Zn160 2.066 . S
O190 C162 1.256 . S
O191 C162 1.244 . S
O191 Zn163 2.053 . S
Zn192 O193 2.055 . S
Zn192 O200 2.046 . S
Zn192 N208 2.036 . S
Zn192 O220 2.053 . S
Zn192 O222 2.066 . S
O193 Zn192 2.055 . S
O193 C196 1.259 . S
C194 O222 1.256 . S
C194 O223 1.244 . S
Zn195 O197 2.046 . S
Zn195 O199 2.055 . S
Zn195 N201 2.036 . S
Zn195 O219 2.066 . S
Zn195 O223 2.053 . S
C196 O193 1.259 . S
C196 O197 1.254 . S
O197 Zn195 2.046 . S
O197 C196 1.254 . S
C198 O219 1.256 . S
C198 O220 1.244 . S
O199 Zn195 2.055 . S
O199 C221 1.259 . S
O200 Zn192 2.046 . S
O200 C221 1.254 . S
N201 Zn195 2.036 . S
N201 C202 1.298 . S
N201 N204 1.398 . S
C202 N201 1.298 . S
C202 N205 1.367 . S
C202 C215 1.481 . S
C203 N204 1.299 . S
C203 N205 1.379 . S
N204 N201 1.398 . S
N204 C203 1.299 . S
N205 C202 1.367 . S
N205 C203 1.379 . S
C206 N208 1.298 . S
C206 N210 1.367 . S
C206 C214 1.481 . S
C207 N209 1.299 . S
C207 N210 1.379 . S
N208 Zn192 2.036 . S
N208 C206 1.298 . S
N208 N209 1.398 . S
N209 C207 1.299 . S
N209 N208 1.398 . S
N210 C206 1.367 . S
N210 C207 1.379 . S
H211 C214 0.980 . S
H212 C214 0.981 . S
H213 C214 0.981 . S
C214 C206 1.481 . S
C214 H211 0.980 . S
C214 H212 0.981 . S
C214 H213 0.981 . S
C215 C202 1.481 . S
C215 H216 0.980 . S
C215 H217 0.981 . S
C215 H218 0.981 . S
H216 C215 0.980 . S
H217 C215 0.981 . S
H218 C215 0.981 . S
O219 Zn195 2.066 . S
O219 C198 1.256 . S
O220 Zn192 2.053 . S
O220 C198 1.244 . S
C221 O199 1.259 . S
C221 O200 1.254 . S
O222 Zn192 2.066 . S
O222 C194 1.256 . S
O223 C194 1.244 . S
O223 Zn195 2.053 . S
Zn224 O225 2.055 1_655 S
Zn224 O232 2.046 1_655 S
Zn224 N240 2.036 . S
Zn224 O252 2.053 . S
Zn224 O254 2.066 . S
O225 Zn224 2.055 1_455 S
O225 C228 1.259 . S
C226 O254 1.256 . S
C226 O255 1.242 . S
Zn227 O229 2.046 . S
Zn227 O231 2.055 . S
Zn227 N233 2.036 . S
Zn227 O251 2.066 . S
Zn227 O255 2.054 1_455 S
C228 O225 1.259 . S
C228 O229 1.254 . S
O229 Zn227 2.046 . S
O229 C228 1.254 . S
C230 O251 1.256 . S
C230 O252 1.244 1_455 S
O231 Zn227 2.055 . S
O231 C253 1.259 . S
O232 Zn224 2.046 1_455 S
O232 C253 1.254 . S
N233 Zn227 2.036 . S
N233 C234 1.298 . S
N233 N236 1.398 . S
C234 N233 1.298 . S
C234 N237 1.367 . S
C234 C247 1.481 . S
C235 N236 1.299 . S
C235 N237 1.379 . S
N236 N233 1.398 . S
N236 C235 1.299 . S
N237 C234 1.367 . S
N237 C235 1.379 . S
C238 N240 1.298 . S
C238 N242 1.367 . S
C238 C246 1.481 . S
C239 N241 1.299 . S
C239 N242 1.379 . S
N240 Zn224 2.036 . S
N240 C238 1.298 . S
N240 N241 1.398 . S
N241 C239 1.299 . S
N241 N240 1.398 . S
N242 C238 1.367 . S
N242 C239 1.379 . S
H243 C246 0.980 . S
H244 C246 0.981 . S
H245 C246 0.981 . S
C246 C238 1.481 . S
C246 H243 0.980 . S
C246 H244 0.981 . S
C246 H245 0.981 . S
C247 C234 1.481 . S
C247 H248 0.980 . S
C247 H249 0.981 . S
C247 H250 0.981 . S
H248 C247 0.980 . S
H249 C247 0.981 . S
H250 C247 0.981 . S
O251 Zn227 2.066 . S
O251 C230 1.256 . S
O252 Zn224 2.053 . S
O252 C230 1.244 1_655 S
C253 O231 1.259 . S
C253 O232 1.254 . S
O254 Zn224 2.066 . S
O254 C226 1.256 . S
O255 C226 1.242 . S
O255 Zn227 2.054 1_655 S
Zn256 O257 2.055 1_556 S
Zn256 O264 2.046 1_556 S
Zn256 N272 2.036 . S
Zn256 O284 2.053 . S
Zn256 O286 2.066 . S
O257 Zn256 2.055 1_554 S
O257 C260 1.259 . S
C258 O286 1.256 . S
C258 O287 1.244 . S
Zn259 O261 2.046 . S
Zn259 O263 2.055 . S
Zn259 N265 2.036 . S
Zn259 O283 2.066 . S
Zn259 O287 2.053 1_554 S
C260 O257 1.259 . S
C260 O261 1.254 . S
O261 Zn259 2.046 . S
O261 C260 1.254 . S
C262 O283 1.256 1_556 S
C262 O284 1.244 . S
O263 Zn259 2.055 . S
O263 C285 1.259 . S
O264 Zn256 2.046 1_554 S
O264 C285 1.254 . S
N265 Zn259 2.036 . S
N265 C266 1.298 . S
N265 N268 1.398 . S
C266 N265 1.298 . S
C266 N269 1.367 . S
C266 C279 1.481 . S
C267 N268 1.299 . S
C267 N269 1.379 . S
N268 N265 1.398 . S
N268 C267 1.299 . S
N269 C266 1.367 . S
N269 C267 1.379 . S
C270 N272 1.298 . S
C270 N274 1.367 . S
C270 C278 1.481 . S
C271 N273 1.299 . S
C271 N274 1.379 . S
N272 Zn256 2.036 . S
N272 C270 1.298 . S
N272 N273 1.398 . S
N273 C271 1.299 . S
N273 N272 1.398 . S
N274 C270 1.367 . S
N274 C271 1.379 . S
H275 C278 0.980 . S
H276 C278 0.981 . S
H277 C278 0.981 . S
C278 C270 1.481 . S
C278 H275 0.980 . S
C278 H276 0.981 . S
C278 H277 0.981 . S
C279 C266 1.481 . S
C279 H280 0.980 . S
C279 H281 0.981 . S
C279 H282 0.981 . S
H280 C279 0.980 . S
H281 C279 0.981 . S
H282 C279 0.981 . S
O283 Zn259 2.066 . S
O283 C262 1.256 1_554 S
O284 Zn256 2.053 . S
O284 C262 1.244 . S
C285 O263 1.259 . S
C285 O264 1.254 . S
O286 Zn256 2.066 . S
O286 C258 1.256 . S
O287 C258 1.244 . S
O287 Zn259 2.053 1_556 S
Zn288 O289 2.055 . S
Zn288 O296 2.046 . S
Zn288 N304 2.036 . S
Zn288 O316 2.053 1_545 S
Zn288 O318 2.066 . S
O289 Zn288 2.055 . S
O289 C292 1.259 . S
C290 O318 1.256 1_565 S
C290 O319 1.244 . S
Zn291 O293 2.046 1_565 S
Zn291 O295 2.055 1_565 S
Zn291 N297 2.036 . S
Zn291 O315 2.066 . S
Zn291 O319 2.053 . S
C292 O289 1.259 . S
C292 O293 1.254 . S
O293 Zn291 2.046 1_545 S
O293 C292 1.254 . S
C294 O315 1.256 . S
C294 O316 1.244 . S
O295 Zn291 2.055 1_545 S
O295 C317 1.259 . S
O296 Zn288 2.046 . S
O296 C317 1.254 . S
N297 Zn291 2.036 . S
N297 C298 1.298 . S
N297 N300 1.398 . S
C298 N297 1.298 . S
C298 N301 1.367 . S
C298 C311 1.481 . S
C299 N300 1.299 . S
C299 N301 1.379 . S
N300 N297 1.398 . S
N300 C299 1.299 . S
N301 C298 1.367 . S
N301 C299 1.379 . S
C302 N304 1.298 . S
C302 N306 1.367 . S
C302 C310 1.481 . S
C303 N305 1.299 . S
C303 N306 1.379 . S
N304 Zn288 2.036 . S
N304 C302 1.298 . S
N304 N305 1.398 . S
N305 C303 1.299 . S
N305 N304 1.398 . S
N306 C302 1.367 . S
N306 C303 1.379 . S
H307 C310 0.980 . S
H308 C310 0.981 . S
H309 C310 0.981 . S
C310 C302 1.481 . S
C310 H307 0.980 . S
C310 H308 0.981 . S
C310 H309 0.981 . S
C311 C298 1.481 . S
C311 H312 0.980 . S
C311 H313 0.981 . S
C311 H314 0.981 . S
H312 C311 0.980 . S
H313 C311 0.981 . S
H314 C311 0.981 . S
O315 Zn291 2.066 . S
O315 C294 1.256 . S
O316 Zn288 2.053 1_565 S
O316 C294 1.244 . S
C317 O295 1.259 . S
C317 O296 1.254 . S
O318 Zn288 2.066 . S
O318 C290 1.256 1_545 S
O319 C290 1.244 . S
O319 Zn291 2.053 . S
Zn320 O321 2.055 . S
Zn320 O328 2.046 . S
Zn320 N336 2.036 . S
Zn320 O348 2.053 . S
Zn320 O350 2.066 . S
O321 Zn320 2.055 . S
O321 C324 1.259 . S
C322 O350 1.256 . S
C322 O351 1.244 . S
Zn323 O325 2.046 . S
Zn323 O327 2.055 . S
Zn323 N329 2.036 . S
Zn323 O347 2.066 . S
Zn323 O351 2.053 . S
C324 O321 1.259 . S
C324 O325 1.254 . S
O325 Zn323 2.046 . S
O325 C324 1.254 . S
C326 O347 1.256 . S
C326 O348 1.244 . S
O327 Zn323 2.055 . S
O327 C349 1.259 . S
O328 Zn320 2.046 . S
O328 C349 1.254 . S
N329 Zn323 2.036 . S
N329 C330 1.298 . S
N329 N332 1.398 . S
C330 N329 1.298 . S
C330 N333 1.367 . S
C330 C343 1.481 . S
C331 N332 1.299 . S
C331 N333 1.379 . S
N332 N329 1.398 . S
N332 C331 1.299 . S
N333 C330 1.367 . S
N333 C331 1.379 . S
C334 N336 1.298 . S
C334 N338 1.367 . S
C334 C342 1.481 . S
C335 N337 1.299 . S
C335 N338 1.379 . S
N336 Zn320 2.036 . S
N336 C334 1.298 . S
N336 N337 1.398 . S
N337 C335 1.299 . S
N337 N336 1.398 . S
N338 C334 1.367 . S
N338 C335 1.379 . S
H339 C342 0.980 . S
H340 C342 0.981 . S
H341 C342 0.981 . S
C342 C334 1.481 . S
C342 H339 0.980 . S
C342 H340 0.981 . S
C342 H341 0.981 . S
C343 C330 1.481 . S
C343 H344 0.980 . S
C343 H345 0.981 . S
C343 H346 0.981 . S
H344 C343 0.980 . S
H345 C343 0.981 . S
H346 C343 0.981 . S
O347 Zn323 2.066 . S
O347 C326 1.256 . S
O348 Zn320 2.053 . S
O348 C326 1.244 . S
C349 O327 1.259 . S
C349 O328 1.254 . S
O350 Zn320 2.066 . S
O350 C322 1.256 . S
O351 C322 1.244 . S
O351 Zn323 2.053 . S
Zn352 O353 2.055 . S
Zn352 O360 2.046 1_455 S
Zn352 N368 2.036 . S
Zn352 O380 2.053 . S
Zn352 O382 2.066 . S
O353 Zn352 2.055 . S
O353 C356 1.259 1_455 S
C354 O382 1.256 . S
C354 O383 1.244 . S
Zn355 O357 2.046 . S
Zn355 O359 2.055 . S
Zn355 N361 2.036 . S
Zn355 O379 2.066 1_655 S
Zn355 O383 2.053 1_655 S
C356 O353 1.259 1_655 S
C356 O357 1.254 . S
O357 Zn355 2.046 . S
O357 C356 1.254 . S
C358 O379 1.256 . S
C358 O380 1.244 . S
O359 Zn355 2.055 . S
O359 C381 1.259 . S
O360 Zn352 2.046 1_655 S
O360 C381 1.254 . S
N361 Zn355 2.036 . S
N361 C362 1.298 . S
N361 N364 1.398 . S
C362 N361 1.298 . S
C362 N365 1.367 . S
C362 C375 1.481 . S
C363 N364 1.299 . S
C363 N365 1.379 . S
N364 N361 1.398 . S
N364 C363 1.299 . S
N365 C362 1.367 . S
N365 C363 1.379 . S
C366 N368 1.298 . S
C366 N370 1.367 . S
C366 C374 1.481 . S
C367 N369 1.299 . S
C367 N370 1.379 . S
N368 Zn352 2.036 . S
N368 C366 1.298 . S
N368 N369 1.398 . S
N369 C367 1.299 . S
N369 N368 1.398 . S
N370 C366 1.367 . S
N370 C367 1.379 . S
H371 C374 0.980 . S
H372 C374 0.981 . S
H373 C374 0.981 . S
C374 C366 1.481 . S
C374 H371 0.980 . S
C374 H372 0.981 . S
C374 H373 0.981 . S
C375 C362 1.481 . S
C375 H376 0.980 . S
C375 H377 0.981 . S
C375 H378 0.981 . S
H376 C375 0.980 . S
H377 C375 0.981 . S
H378 C375 0.981 . S
O379 Zn355 2.066 1_455 S
O379 C358 1.256 . S
O380 Zn352 2.053 . S
O380 C358 1.244 . S
C381 O359 1.259 . S
C381 O360 1.254 . S
O382 Zn352 2.066 . S
O382 C354 1.256 . S
O383 C354 1.244 . S
O383 Zn355 2.053 1_455 S
Zn384 O385 2.055 . S
Zn384 O392 2.046 . S
Zn384 N400 2.036 . S
Zn384 O412 2.053 . S
Zn384 O414 2.066 . S
O385 Zn384 2.055 . S
O385 C388 1.259 . S
C386 O414 1.256 . S
C386 O415 1.244 . S
Zn387 O389 2.046 . S
Zn387 O391 2.055 . S
Zn387 N393 2.036 . S
Zn387 O411 2.066 . S
Zn387 O415 2.053 . S
C388 O385 1.259 . S
C388 O389 1.254 . S
O389 Zn387 2.046 . S
O389 C388 1.254 . S
C390 O411 1.256 . S
C390 O412 1.244 . S
O391 Zn387 2.055 . S
O391 C413 1.259 . S
O392 Zn384 2.046 . S
O392 C413 1.254 . S
N393 Zn387 2.036 . S
N393 C394 1.298 . S
N393 N396 1.398 . S
C394 N393 1.298 . S
C394 N397 1.367 . S
C394 C407 1.481 . S
C395 N396 1.299 . S
C395 N397 1.379 . S
N396 N393 1.398 . S
N396 C395 1.299 . S
N397 C394 1.367 . S
N397 C395 1.379 . S
C398 N400 1.298 . S
C398 N402 1.367 . S
C398 C406 1.481 . S
C399 N401 1.299 . S
C399 N402 1.379 . S
N400 Zn384 2.036 . S
N400 C398 1.298 . S
N400 N401 1.398 . S
N401 C399 1.299 . S
N401 N400 1.398 . S
N402 C398 1.367 . S
N402 C399 1.379 . S
H403 C406 0.980 . S
H404 C406 0.981 . S
H405 C406 0.981 . S
C406 C398 1.481 . S
C406 H403 0.980 . S
C406 H404 0.981 . S
C406 H405 0.981 . S
C407 C394 1.481 . S
C407 H408 0.980 . S
C407 H409 0.981 . S
C407 H410 0.981 . S
H408 C407 0.980 . S
H409 C407 0.981 . S
H410 C407 0.981 . S
O411 Zn387 2.066 . S
O411 C390 1.256 . S
O412 Zn384 2.053 . S
O412 C390 1.244 . S
C413 O391 1.259 . S
C413 O392 1.254 . S
O414 Zn384 2.066 . S
O414 C386 1.256 . S
O415 C386 1.244 . S
O415 Zn387 2.053 . S
Zn416 O417 2.055 . S
Zn416 O424 2.046 1_554 S
Zn416 N432 2.036 . S
Zn416 O444 2.053 . S
Zn416 O446 2.066 . S
O417 Zn416 2.055 . S
O417 C420 1.259 1_554 S
C418 O446 1.256 . S
C418 O447 1.244 . S
Zn419 O421 2.046 . S
Zn419 O423 2.055 . S
Zn419 N425 2.036 . S
Zn419 O443 2.066 . S
Zn419 O447 2.053 1_556 S
C420 O417 1.259 1_556 S
C420 O421 1.254 . S
O421 Zn419 2.046 . S
O421 C420 1.254 . S
C422 O443 1.256 1_554 S
C422 O444 1.244 . S
O423 Zn419 2.055 . S
O423 C445 1.259 . S
O424 Zn416 2.046 1_556 S
O424 C445 1.254 . S
N425 Zn419 2.036 . S
N425 C426 1.298 . S
N425 N428 1.398 . S
C426 N425 1.298 . S
C426 N429 1.367 . S
C426 C439 1.481 . S
C427 N428 1.299 . S
C427 N429 1.379 . S
N428 N425 1.398 . S
N428 C427 1.299 . S
N429 C426 1.367 . S
N429 C427 1.379 . S
C430 N432 1.298 . S
C430 N434 1.367 . S
C430 C438 1.481 . S
C431 N433 1.299 . S
C431 N434 1.379 . S
N432 Zn416 2.036 . S
N432 C430 1.298 . S
N432 N433 1.398 . S
N433 C431 1.299 . S
N433 N432 1.398 . S
N434 C430 1.367 . S
N434 C431 1.379 . S
H435 C438 0.980 . S
H436 C438 0.981 . S
H437 C438 0.981 . S
C438 C430 1.481 . S
C438 H435 0.980 . S
C438 H436 0.981 . S
C438 H437 0.981 . S
C439 C426 1.481 . S
C439 H440 0.980 . S
C439 H441 0.981 . S
C439 H442 0.981 . S
H440 C439 0.980 . S
H441 C439 0.981 . S
H442 C439 0.981 . S
O443 Zn419 2.066 . S
O443 C422 1.256 1_556 S
O444 Zn416 2.053 . S
O444 C422 1.244 . S
C445 O423 1.259 . S
C445 O424 1.254 . S
O446 Zn416 2.066 . S
O446 C418 1.256 . S
O447 C418 1.244 . S
O447 Zn419 2.053 1_554 S
Zn448 O449 2.055 . S
Zn448 O456 2.046 . S
Zn448 N464 2.036 . S
Zn448 O476 2.053 . S
Zn448 O478 2.066 . S
O449 Zn448 2.055 . S
O449 C452 1.259 . S
C450 O478 1.256 . S
C450 O479 1.244 . S
Zn451 O453 2.046 1_545 S
Zn451 O455 2.055 1_545 S
Zn451 N457 2.036 1_545 S
Zn451 O475 2.066 . S
Zn451 O479 2.053 . S
C452 O449 1.259 . S
C452 O453 1.254 1_545 S
O453 Zn451 2.046 1_565 S
O453 C452 1.254 1_565 S
C454 O475 1.256 . S
C454 O476 1.244 . S
O455 Zn451 2.055 1_565 S
O455 C477 1.259 . S
O456 Zn448 2.046 . S
O456 C477 1.254 1_545 S
N457 Zn451 2.036 1_565 S
N457 C458 1.298 . S
N457 N460 1.398 . S
C458 N457 1.298 . S
C458 N461 1.367 . S
C458 C471 1.481 . S
C459 N460 1.299 . S
C459 N461 1.379 . S
N460 N457 1.398 . S
N460 C459 1.299 . S
N461 C458 1.367 . S
N461 C459 1.379 . S
C462 N464 1.298 . S
C462 N466 1.367 . S
C462 C470 1.481 . S
C463 N465 1.299 . S
C463 N466 1.379 . S
N464 Zn448 2.036 . S
N464 C462 1.298 . S
N464 N465 1.398 . S
N465 C463 1.299 . S
N465 N464 1.398 . S
N466 C462 1.367 . S
N466 C463 1.379 . S
H467 C470 0.980 . S
H468 C470 0.981 . S
H469 C470 0.981 . S
C470 C462 1.481 . S
C470 H467 0.980 . S
C470 H468 0.981 . S
C470 H469 0.981 . S
C471 C458 1.481 . S
C471 H472 0.980 . S
C471 H473 0.981 . S
C471 H474 0.981 . S
H472 C471 0.980 . S
H473 C471 0.981 . S
H474 C471 0.981 . S
O475 Zn451 2.066 . S
O475 C454 1.256 . S
O476 Zn448 2.053 . S
O476 C454 1.244 . S
C477 O455 1.259 . S
C477 O456 1.254 1_565 S
O478 Zn448 2.066 . S
O478 C450 1.256 . S
O479 C450 1.244 . S
O479 Zn451 2.053 . S
Zn480 O481 2.055 . S
Zn480 O488 2.046 . S
Zn480 N496 2.036 . S
Zn480 O508 2.053 1_554 S
Zn480 O510 2.066 . S
O481 Zn480 2.055 . S
O481 C484 1.259 . S
C482 O510 1.256 1_556 S
C482 O511 1.244 . S
Zn483 O485 2.046 1_556 S
Zn483 O487 2.055 1_556 S
Zn483 N489 2.036 . S
Zn483 O507 2.066 . S
Zn483 O511 2.053 . S
C484 O481 1.259 . S
C484 O485 1.254 . S
O485 Zn483 2.046 1_554 S
O485 C484 1.254 . S
C486 O507 1.256 . S
C486 O508 1.244 . S
O487 Zn483 2.055 1_554 S
O487 C509 1.259 . S
O488 Zn480 2.046 . S
O488 C509 1.254 . S
N489 Zn483 2.036 . S
N489 C490 1.298 . S
N489 N492 1.398 . S
C490 N489 1.298 . S
C490 N493 1.367 . S
C490 C503 1.481 . S
C491 N492 1.299 . S
C491 N493 1.379 . S
N492 N489 1.398 . S
N492 C491 1.299 . S
N493 C490 1.367 . S
N493 C491 1.379 . S
C494 N496 1.298 . S
C494 N498 1.367 . S
C494 C502 1.481 . S
C495 N497 1.299 . S
C495 N498 1.379 . S
N496 Zn480 2.036 . S
N496 C494 1.298 . S
N496 N497 1.398 . S
N497 C495 1.299 . S
N497 N496 1.398 . S
N498 C494 1.367 . S
N498 C495 1.379 . S
H499 C502 0.980 . S
H500 C502 0.981 . S
H501 C502 0.981 . S
C502 C494 1.481 . S
C502 H499 0.980 . S
C502 H500 0.981 . S
C502 H501 0.981 . S
C503 C490 1.481 . S
C503 H504 0.980 . S
C503 H505 0.981 . S
C503 H506 0.981 . S
H504 C503 0.980 . S
H505 C503 0.981 . S
H506 C503 0.981 . S
O507 Zn483 2.066 . S
O507 C486 1.256 . S
O508 Zn480 2.053 1_556 S
O508 C486 1.244 . S
C509 O487 1.259 . S
C509 O488 1.254 . S
O510 Zn480 2.066 . S
O510 C482 1.256 1_554 S
O511 C482 1.244 . S
O511 Zn483 2.053 . S
H512 C518 0.930 . S
H513 C522 0.930 . S
H514 C527 0.929 . S
H515 C525 0.929 . S
H516 C520 0.929 . S
H517 C526 0.929 . S
C518 H512 0.930 . S
C518 C519 1.367 1_455 S
C518 C526 1.378 . S
C519 C518 1.367 1_655 S
C519 C527 1.433 . S
C520 H516 0.929 . S
C520 C522 1.378 . S
C520 C524 1.350 . S
C521 C524 1.463 . S
C521 C526 1.350 . S
C521 N529 1.428 1_455 S
C522 H513 0.930 . S
C522 C520 1.378 . S
C522 C523 1.367 . S
C523 C522 1.367 . S
C523 C525 1.433 . S
C524 C520 1.350 . S
C524 C521 1.463 . S
C524 N528 1.427 . S
C525 H515 0.929 . S
C525 C523 1.433 . S
C525 N528 1.384 . S
C526 H517 0.929 . S
C526 C518 1.378 . S
C526 C521 1.350 . S
C527 H514 0.929 . S
C527 C519 1.433 . S
C527 N529 1.382 . S
N528 C524 1.427 . S
N528 C525 1.384 . S
N529 C521 1.428 1_655 S
N529 C527 1.382 . S
H530 C536 0.930 . S
H531 C540 0.930 1_455 S
H532 C545 0.929 . S
H533 C543 0.929 . S
H534 C538 0.929 . S
H535 C544 0.929 . S
C536 H530 0.930 . S
C536 C537 1.367 . S
C536 C544 1.378 . S
C537 C536 1.367 . S
C537 C545 1.433 . S
C538 H534 0.929 . S
C538 C540 1.378 . S
C538 C542 1.350 . S
C539 C542 1.463 . S
C539 C544 1.350 . S
C539 N547 1.427 . S
C540 H531 0.930 1_655 S
C540 C538 1.378 . S
C540 C541 1.367 . S
C541 C540 1.367 . S
C541 C543 1.433 . S
C542 C538 1.350 . S
C542 C539 1.463 . S
C542 N546 1.427 . S
C543 H533 0.929 . S
C543 C541 1.433 . S
C543 N546 1.384 . S
C544 H535 0.929 . S
C544 C536 1.378 . S
C544 C539 1.350 . S
C545 H532 0.929 . S
C545 C537 1.433 . S
C545 N547 1.384 . S
N546 C542 1.427 . S
N546 C543 1.384 . S
N547 C539 1.427 . S
N547 C545 1.384 . S
H548 C554 0.930 . S
H549 C558 0.930 . S
H550 C563 0.929 . S
H551 C561 0.929 . S
H552 C556 0.929 . S
H553 C562 0.929 . S
C554 H548 0.930 . S
C554 C555 1.367 . S
C554 C562 1.378 . S
C555 C554 1.367 . S
C555 C563 1.433 . S
C556 H552 0.929 . S
C556 C558 1.378 . S
C556 C560 1.350 . S
C557 C560 1.463 . S
C557 C562 1.350 . S
C557 N565 1.427 . S
C558 H549 0.930 . S
C558 C556 1.378 . S
C558 C559 1.367 . S
C559 C558 1.367 . S
C559 C561 1.433 . S
C560 C556 1.350 . S
C560 C557 1.463 . S
C560 N564 1.427 . S
C561 H551 0.929 . S
C561 C559 1.433 . S
C561 N564 1.384 . S
C562 H553 0.929 . S
C562 C554 1.378 . S
C562 C557 1.350 . S
C563 H550 0.929 . S
C563 C555 1.433 . S
C563 N565 1.384 . S
N564 C560 1.427 . S
N564 C561 1.384 . S
N565 C557 1.427 . S
N565 C563 1.384 . S
H566 C572 0.930 1_565 S
H567 C576 0.930 . S
H568 C581 0.929 . S
H569 C579 0.929 . S
H570 C574 0.929 . S
H571 C580 0.929 1_565 S
C572 H566 0.930 1_545 S
C572 C573 1.367 . S
C572 C580 1.378 . S
C573 C572 1.367 . S
C573 C581 1.433 . S
C574 H570 0.929 . S
C574 C576 1.378 . S
C574 C578 1.350 . S
C575 C578 1.463 . S
C575 C580 1.350 . S
C575 N583 1.427 . S
C576 H567 0.930 . S
C576 C574 1.378 . S
C576 C577 1.367 . S
C577 C576 1.367 . S
C577 C579 1.433 . S
C578 C574 1.350 . S
C578 C575 1.463 . S
C578 N582 1.427 . S
C579 H569 0.929 . S
C579 C577 1.433 . S
C579 N582 1.384 . S
C580 H571 0.929 1_545 S
C580 C572 1.378 . S
C580 C575 1.350 . S
C581 H568 0.929 . S
C581 C573 1.433 . S
C581 N583 1.384 . S
N582 C578 1.427 . S
N582 C579 1.384 . S
N583 C575 1.427 . S
N583 C581 1.384 . S
H584 C590 0.930 . S
H585 C594 0.930 . S
H586 C599 0.929 . S
H587 C597 0.929 . S
H588 C592 0.929 . S
H589 C598 0.929 . S
C590 H584 0.930 . S
C590 C591 1.367 1_565 S
C590 C598 1.378 . S
C591 C590 1.367 1_545 S
C591 C599 1.433 . S
C592 H588 0.929 . S
C592 C594 1.378 . S
C592 C596 1.350 1_545 S
C593 C596 1.463 . S
C593 C598 1.350 . S
C593 N601 1.427 1_565 S
C594 H585 0.930 . S
C594 C592 1.378 . S
C594 C595 1.367 1_545 S
C595 C594 1.367 1_565 S
C595 C597 1.433 . S
C596 C592 1.350 1_565 S
C596 C593 1.463 . S
C596 N600 1.427 . S
C597 H587 0.929 . S
C597 C595 1.433 . S
C597 N600 1.384 . S
C598 H589 0.929 . S
C598 C590 1.378 . S
C598 C593 1.350 . S
C599 H586 0.929 . S
C599 C591 1.433 . S
C599 N601 1.384 . S
N600 C596 1.427 . S
N600 C597 1.384 . S
N601 C593 1.427 1_545 S
N601 C599 1.384 . S
H602 C608 0.930 . S
H603 C612 0.930 . S
H604 C617 0.929 . S
H605 C615 0.929 . S
H606 C610 0.929 . S
H607 C616 0.929 . S
C608 H602 0.930 . S
C608 C609 1.367 . S
C608 C616 1.378 . S
C609 C608 1.367 . S
C609 C617 1.433 . S
C610 H606 0.929 . S
C610 C612 1.378 . S
C610 C614 1.350 . S
C611 C614 1.463 . S
C611 C616 1.350 . S
C611 N619 1.427 . S
C612 H603 0.930 . S
C612 C610 1.378 . S
C612 C613 1.367 . S
C613 C612 1.367 . S
C613 C615 1.433 . S
C614 C610 1.350 . S
C614 C611 1.463 . S
C614 N618 1.427 . S
C615 H605 0.929 . S
C615 C613 1.433 . S
C615 N618 1.384 . S
C616 H607 0.929 . S
C616 C608 1.378 . S
C616 C611 1.350 . S
C617 H604 0.929 . S
C617 C609 1.433 . S
C617 N619 1.384 . S
N618 C614 1.427 . S
N618 C615 1.384 . S
N619 C611 1.427 . S
N619 C617 1.384 . S
H620 C626 0.930 . S
H621 C630 0.930 . S
H622 C635 0.929 . S
H623 C633 0.929 . S
H624 C628 0.929 . S
H625 C634 0.929 . S
C626 H620 0.930 . S
C626 C627 1.367 . S
C626 C634 1.378 . S
C627 C626 1.367 . S
C627 C635 1.433 . S
C628 H624 0.929 . S
C628 C630 1.378 . S
C628 C632 1.350 . S
C629 C632 1.463 . S
C629 C634 1.350 . S
C629 N637 1.427 . S
C630 H621 0.930 . S
C630 C628 1.378 . S
C630 C631 1.367 . S
C631 C630 1.367 . S
C631 C633 1.433 . S
C632 C628 1.350 . S
C632 C629 1.463 . S
C632 N636 1.427 . S
C633 H623 0.929 . S
C633 C631 1.433 . S
C633 N636 1.384 . S
C634 H625 0.929 . S
C634 C626 1.378 . S
C634 C629 1.350 . S
C635 H622 0.929 . S
C635 C627 1.433 . S
C635 N637 1.384 . S
N636 C632 1.427 . S
N636 C633 1.384 . S
N637 C629 1.427 . S
N637 C635 1.384 . S
H638 C644 0.930 . S
H639 C648 0.930 . S
H640 C653 0.929 . S
H641 C651 0.929 . S
H642 C646 0.929 . S
H643 C652 0.929 . S
C644 H638 0.930 . S
C644 C645 1.367 . S
C644 C652 1.378 . S
C645 C644 1.367 . S
C645 C653 1.433 . S
C646 H642 0.929 . S
C646 C648 1.378 . S
C646 C650 1.350 . S
C647 C650 1.463 . S
C647 C652 1.350 . S
C647 N655 1.427 . S
C648 H639 0.930 . S
C648 C646 1.378 . S
C648 C649 1.367 . S
C649 C648 1.367 . S
C649 C651 1.433 . S
C650 C646 1.350 . S
C650 C647 1.463 . S
C650 N654 1.427 . S
C651 H641 0.929 . S
C651 C649 1.433 . S
C651 N654 1.384 . S
C652 H643 0.929 . S
C652 C644 1.378 . S
C652 C647 1.350 . S
C653 H640 0.929 . S
C653 C645 1.433 . S
C653 N655 1.384 . S
N654 C650 1.427 . S
N654 C651 1.384 . S
N655 C647 1.427 . S
N655 C653 1.384 . S
H656 C662 0.930 . S
H657 C666 0.930 . S
H658 C671 0.929 . S
H659 C669 0.929 . S
H660 C664 0.929 . S
H661 C670 0.929 . S
C662 H656 0.930 . S
C662 C663 1.367 . S
C662 C670 1.378 . S
C663 C662 1.367 . S
C663 C671 1.433 . S
C664 H660 0.929 . S
C664 C666 1.378 . S
C664 C668 1.350 . S
C665 C668 1.463 . S
C665 C670 1.350 . S
C665 N673 1.427 . S
C666 H657 0.930 . S
C666 C664 1.378 . S
C666 C667 1.367 . S
C667 C666 1.367 . S
C667 C669 1.433 . S
C668 C664 1.350 . S
C668 C665 1.463 . S
C668 N672 1.427 . S
C669 H659 0.929 . S
C669 C667 1.433 . S
C669 N672 1.384 . S
C670 H661 0.929 . S
C670 C662 1.378 . S
C670 C665 1.350 . S
C671 H658 0.929 . S
C671 C663 1.433 . S
C671 N673 1.384 . S
N672 C668 1.427 . S
N672 C669 1.384 . S
N673 C665 1.427 . S
N673 C671 1.384 . S
H674 C680 0.930 . S
H675 C684 0.930 . S
H676 C689 0.929 . S
H677 C687 0.929 . S
H678 C682 0.929 . S
H679 C688 0.929 . S
C680 H674 0.930 . S
C680 C681 1.367 . S
C680 C688 1.378 . S
C681 C680 1.367 . S
C681 C689 1.433 . S
C682 H678 0.929 . S
C682 C684 1.378 . S
C682 C686 1.350 . S
C683 C686 1.463 . S
C683 C688 1.350 . S
C683 N691 1.427 . S
C684 H675 0.930 . S
C684 C682 1.378 . S
C684 C685 1.367 . S
C685 C684 1.367 . S
C685 C687 1.433 . S
C686 C682 1.350 . S
C686 C683 1.463 . S
C686 N690 1.427 . S
C687 H677 0.929 . S
C687 C685 1.433 . S
C687 N690 1.384 . S
C688 H679 0.929 . S
C688 C680 1.378 . S
C688 C683 1.350 . S
C689 H676 0.929 . S
C689 C681 1.433 . S
C689 N691 1.384 . S
N690 C686 1.427 . S
N690 C687 1.384 . S
N691 C683 1.427 . S
N691 C689 1.384 . S
H692 C698 0.930 . S
H693 C702 0.930 . S
H694 C707 0.929 . S
H695 C705 0.929 . S
H696 C700 0.929 . S
H697 C706 0.929 . S
C698 H692 0.930 . S
C698 C699 1.367 1_565 S
C698 C706 1.378 . S
C699 C698 1.367 1_545 S
C699 C707 1.433 . S
C700 H696 0.929 . S
C700 C702 1.378 . S
C700 C704 1.350 . S
C701 C704 1.463 . S
C701 C706 1.350 1_545 S
C701 N709 1.427 . S
C702 H693 0.930 . S
C702 C700 1.378 . S
C702 C703 1.367 . S
C703 C702 1.367 . S
C703 C705 1.433 1_545 S
C704 C700 1.350 . S
C704 C701 1.463 . S
C704 N708 1.427 1_545 S
C705 H695 0.929 . S
C705 C703 1.433 1_565 S
C705 N708 1.384 . S
C706 H697 0.929 . S
C706 C698 1.378 . S
C706 C701 1.350 1_565 S
C707 H694 0.929 . S
C707 C699 1.433 . S
C707 N709 1.384 . S
N708 C704 1.427 1_565 S
N708 C705 1.384 . S
N709 C701 1.427 . S
N709 C707 1.384 . S
H710 C716 0.924 1_655 S
H711 C720 0.930 . S
H712 C725 0.929 . S
H713 C723 0.929 1_655 S
H714 C718 0.929 . S
H715 C724 0.929 1_655 S
C716 H710 0.924 1_455 S
C716 C717 1.367 . S
C716 C724 1.378 . S
C717 C716 1.367 . S
C717 C725 1.433 . S
C718 H714 0.929 . S
C718 C720 1.378 . S
C718 C722 1.350 . S
C719 C722 1.463 . S
C719 C724 1.350 . S
C719 N727 1.427 . S
C720 H711 0.930 . S
C720 C718 1.378 . S
C720 C721 1.367 . S
C721 C720 1.367 . S
C721 C723 1.433 . S
C722 C718 1.350 . S
C722 C719 1.463 . S
C722 N726 1.427 . S
C723 H713 0.929 1_455 S
C723 C721 1.433 . S
C723 N726 1.384 . S
C724 H715 0.929 1_455 S
C724 C716 1.378 . S
C724 C719 1.350 . S
C725 H712 0.929 . S
C725 C717 1.433 . S
C725 N727 1.384 . S
N726 C722 1.427 . S
N726 C723 1.384 . S
N727 C719 1.427 . S
N727 C725 1.384 . S
H728 C734 0.930 . S
H729 C738 0.930 . S
H730 C743 0.929 . S
H731 C741 0.929 . S
H732 C736 0.929 . S
H733 C742 0.929 . S
C734 H728 0.930 . S
C734 C735 1.367 1_554 S
C734 C742 1.378 . S
C735 C734 1.367 1_556 S
C735 C743 1.433 . S
C736 H732 0.929 . S
C736 C738 1.378 . S
C736 C740 1.350 . S
C737 C740 1.463 . S
C737 C742 1.350 1_556 S
C737 N745 1.427 . S
C738 H729 0.930 . S
C738 C736 1.378 . S
C738 C739 1.367 . S
C739 C738 1.367 . S
C739 C741 1.433 1_556 S
C740 C736 1.350 . S
C740 C737 1.463 . S
C740 N744 1.427 1_556 S
C741 H731 0.929 . S
C741 C739 1.433 1_554 S
C741 N744 1.384 . S
C742 H733 0.929 . S
C742 C734 1.378 . S
C742 C737 1.350 1_554 S
C743 H730 0.929 . S
C743 C735 1.433 . S
C743 N745 1.384 . S
N744 C740 1.427 1_554 S
N744 C741 1.384 . S
N745 C737 1.427 . S
N745 C743 1.384 . S
H746 C752 0.930 . S
H747 C756 0.930 . S
H748 C761 0.929 . S
H749 C759 0.929 . S
H750 C754 0.929 . S
H751 C760 0.929 . S
C752 H746 0.930 . S
C752 C753 1.367 . S
C752 C760 1.378 . S
C753 C752 1.367 . S
C753 C761 1.433 . S
C754 H750 0.929 . S
C754 C756 1.378 . S
C754 C758 1.350 . S
C755 C758 1.463 . S
C755 C760 1.350 . S
C755 N763 1.427 . S
C756 H747 0.930 . S
C756 C754 1.378 . S
C756 C757 1.367 . S
C757 C756 1.367 . S
C757 C759 1.433 . S
C758 C754 1.350 . S
C758 C755 1.463 . S
C758 N762 1.427 . S
C759 H749 0.929 . S
C759 C757 1.433 . S
C759 N762 1.384 . S
C760 H751 0.929 . S
C760 C752 1.378 . S
C760 C755 1.350 . S
C761 H748 0.929 . S
C761 C753 1.433 . S
C761 N763 1.384 . S
N762 C758 1.427 . S
N762 C759 1.384 . S
N763 C755 1.427 . S
N763 C761 1.384 . S
H764 C770 0.930 . S
H765 C774 0.930 . S
H766 C779 0.929 . S
H767 C777 0.929 . S
H768 C772 0.929 . S
H769 C778 0.929 . S
C770 H764 0.930 . S
C770 C771 1.367 . S
C770 C778 1.378 . S
C771 C770 1.367 . S
C771 C779 1.433 . S
C772 H768 0.929 . S
C772 C774 1.378 . S
C772 C776 1.350 . S
C773 C776 1.463 . S
C773 C778 1.350 . S
C773 N781 1.427 . S
C774 H765 0.930 . S
C774 C772 1.378 . S
C774 C775 1.367 . S
C775 C774 1.367 . S
C775 C777 1.433 . S
C776 C772 1.350 . S
C776 C773 1.463 . S
C776 N780 1.427 . S
C777 H767 0.929 . S
C777 C775 1.433 . S
C777 N780 1.384 . S
C778 H769 0.929 . S
C778 C770 1.378 . S
C778 C773 1.350 . S
C779 H766 0.929 . S
C779 C771 1.433 . S
C779 N781 1.384 . S
N780 C776 1.427 . S
N780 C777 1.384 . S
N781 C773 1.427 . S
N781 C779 1.384 . S
H782 C788 0.930 . S
H783 C792 0.930 . S
H784 C797 0.929 . S
H785 C795 0.929 . S
H786 C790 0.929 . S
H787 C796 0.929 . S
C788 H782 0.930 . S
C788 C789 1.367 . S
C788 C796 1.378 . S
C789 C788 1.367 . S
C789 C797 1.433 . S
C790 H786 0.929 . S
C790 C792 1.378 . S
C790 C794 1.350 . S
C791 C794 1.463 . S
C791 C796 1.350 . S
C791 N799 1.427 . S
C792 H783 0.930 . S
C792 C790 1.378 . S
C792 C793 1.367 . S
C793 C792 1.367 . S
C793 C795 1.433 . S
C794 C790 1.350 . S
C794 C791 1.463 . S
C794 N798 1.427 . S
C795 H785 0.929 . S
C795 C793 1.433 . S
C795 N798 1.384 . S
C796 H787 0.929 . S
C796 C788 1.378 . S
C796 C791 1.350 . S
C797 H784 0.929 . S
C797 C789 1.433 . S
C797 N799 1.384 . S
N798 C794 1.427 . S
N798 C795 1.384 . S
N799 C791 1.427 . S
N799 C797 1.384 . S
H800 C806 0.930 . S
H801 C810 0.930 . S
H802 C815 0.929 . S
H803 C813 0.929 . S
H804 C808 0.929 . S
H805 C814 0.929 . S
C806 H800 0.930 . S
C806 C807 1.367 . S
C806 C814 1.378 . S
C807 C806 1.367 . S
C807 C815 1.433 . S
C808 H804 0.929 . S
C808 C810 1.378 . S
C808 C812 1.350 . S
C809 C812 1.463 . S
C809 C814 1.350 . S
C809 N817 1.427 . S
C810 H801 0.930 . S
C810 C808 1.378 . S
C810 C811 1.367 . S
C811 C810 1.367 . S
C811 C813 1.433 . S
C812 C808 1.350 . S
C812 C809 1.463 . S
C812 N816 1.427 . S
C813 H803 0.929 . S
C813 C811 1.433 . S
C813 N816 1.384 . S
C814 H805 0.929 . S
C814 C806 1.378 . S
C814 C809 1.350 . S
C815 H802 0.929 . S
C815 C807 1.433 . S
C815 N817 1.384 . S
N816 C812 1.427 . S
N816 C813 1.384 . S
N817 C809 1.427 . S
N817 C815 1.384 . S
H818 C824 0.930 . S
H819 C828 0.930 . S
H820 C833 0.929 . S
H821 C831 0.929 . S
H822 C826 0.929 . S
H823 C832 0.929 . S
C824 H818 0.930 . S
C824 C825 1.367 . S
C824 C832 1.378 . S
C825 C824 1.367 . S
C825 C833 1.433 . S
C826 H822 0.929 . S
C826 C828 1.378 . S
C826 C830 1.350 . S
C827 C830 1.463 . S
C827 C832 1.350 . S
C827 N835 1.427 . S
C828 H819 0.930 . S
C828 C826 1.378 . S
C828 C829 1.367 . S
C829 C828 1.367 . S
C829 C831 1.433 . S
C830 C826 1.350 . S
C830 C827 1.463 . S
C830 N834 1.427 . S
C831 H821 0.929 . S
C831 C829 1.433 . S
C831 N834 1.384 . S
C832 H823 0.929 . S
C832 C824 1.378 . S
C832 C827 1.350 . S
C833 H820 0.929 . S
C833 C825 1.433 . S
C833 N835 1.384 . S
N834 C830 1.427 . S
N834 C831 1.384 . S
N835 C827 1.427 . S
N835 C833 1.384 . S
H836 C842 0.930 . S
H837 C846 0.930 . S
H838 C851 0.929 . S
H839 C849 0.929 . S
H840 C844 0.929 . S
H841 C850 0.929 . S
C842 H836 0.930 . S
C842 C843 1.367 . S
C842 C850 1.378 . S
C843 C842 1.367 . S
C843 C851 1.433 . S
C844 H840 0.929 . S
C844 C846 1.378 . S
C844 C848 1.350 . S
C845 C848 1.463 . S
C845 C850 1.350 . S
C845 N853 1.427 . S
C846 H837 0.930 . S
C846 C844 1.378 . S
C846 C847 1.367 . S
C847 C846 1.367 . S
C847 C849 1.433 . S
C848 C844 1.350 . S
C848 C845 1.463 . S
C848 N852 1.427 . S
C849 H839 0.929 . S
C849 C847 1.433 . S
C849 N852 1.384 . S
C850 H841 0.929 . S
C850 C842 1.378 . S
C850 C845 1.350 . S
C851 H838 0.929 . S
C851 C843 1.433 . S
C851 N853 1.384 . S
N852 C848 1.427 . S
N852 C849 1.384 . S
N853 C845 1.427 . S
N853 C851 1.384 . S
H854 C860 0.930 . S
H855 C864 0.930 . S
H856 C869 0.929 . S
H857 C867 0.929 . S
H858 C862 0.929 . S
H859 C868 0.929 . S
C860 H854 0.930 . S
C860 C861 1.367 . S
C860 C868 1.378 . S
C861 C860 1.367 . S
C861 C869 1.433 . S
C862 H858 0.929 . S
C862 C864 1.378 . S
C862 C866 1.350 . S
C863 C866 1.463 . S
C863 C868 1.350 . S
C863 N871 1.427 . S
C864 H855 0.930 . S
C864 C862 1.378 . S
C864 C865 1.367 . S
C865 C864 1.367 . S
C865 C867 1.433 . S
C866 C862 1.350 . S
C866 C863 1.463 . S
C866 N870 1.427 . S
C867 H857 0.929 . S
C867 C865 1.433 . S
C867 N870 1.384 . S
C868 H859 0.929 . S
C868 C860 1.378 . S
C868 C863 1.350 . S
C869 H856 0.929 . S
C869 C861 1.433 . S
C869 N871 1.384 . S
N870 C866 1.427 . S
N870 C867 1.384 . S
N871 C863 1.427 . S
N871 C869 1.384 . S
H872 C878 0.930 . S
H873 C882 0.930 . S
H874 C887 0.929 . S
H875 C885 0.929 . S
H876 C880 0.929 . S
H877 C886 0.929 . S
C878 H872 0.930 . S
C878 C879 1.367 . S
C878 C886 1.378 . S
C879 C878 1.367 . S
C879 C887 1.433 . S
C880 H876 0.929 . S
C880 C882 1.378 . S
C880 C884 1.350 . S
C881 C884 1.463 . S
C881 C886 1.350 . S
C881 N889 1.427 . S
C882 H873 0.930 . S
C882 C880 1.378 . S
C882 C883 1.367 . S
C883 C882 1.367 . S
C883 C885 1.433 . S
C884 C880 1.350 . S
C884 C881 1.463 . S
C884 N888 1.427 . S
C885 H875 0.929 . S
C885 C883 1.433 . S
C885 N888 1.384 . S
C886 H877 0.929 . S
C886 C878 1.378 . S
C886 C881 1.350 . S
C887 H874 0.929 . S
C887 C879 1.433 . S
C887 N889 1.384 . S
N888 C884 1.427 . S
N888 C885 1.384 . S
N889 C881 1.427 . S
N889 C887 1.384 . S
H890 C896 0.930 . S
H891 C900 0.930 . S
H892 C905 0.929 . S
H893 C903 0.929 . S
H894 C898 0.929 . S
H895 C904 0.929 . S
C896 H890 0.930 . S
C896 C897 1.367 . S
C896 C904 1.378 . S
C897 C896 1.367 . S
C897 C905 1.433 . S
C898 H894 0.929 . S
C898 C900 1.378 . S
C898 C902 1.350 1_455 S
C899 C902 1.463 . S
C899 C904 1.350 . S
C899 N907 1.427 . S
C900 H891 0.930 . S
C900 C898 1.378 . S
C900 C901 1.367 . S
C901 C900 1.367 . S
C901 C903 1.433 1_455 S
C902 C898 1.350 1_655 S
C902 C899 1.463 . S
C902 N906 1.427 . S
C903 H893 0.929 . S
C903 C901 1.433 1_655 S
C903 N906 1.384 . S
C904 H895 0.929 . S
C904 C896 1.378 . S
C904 C899 1.350 . S
C905 H892 0.929 . S
C905 C897 1.433 . S
C905 N907 1.384 . S
N906 C902 1.427 . S
N906 C903 1.384 . S
N907 C899 1.427 . S
N907 C905 1.384 . S
H908 C914 0.930 . S
H909 C918 0.930 . S
H910 C923 0.929 . S
H911 C921 0.929 . S
H912 C916 0.929 . S
H913 C922 0.929 . S
C914 H908 0.930 . S
C914 C915 1.367 . S
C914 C922 1.378 . S
C915 C914 1.367 . S
C915 C923 1.433 . S
C916 H912 0.929 . S
C916 C918 1.378 . S
C916 C920 1.350 . S
C917 C920 1.463 . S
C917 C922 1.350 . S
C917 N925 1.427 . S
C918 H909 0.930 . S
C918 C916 1.378 . S
C918 C919 1.367 . S
C919 C918 1.367 . S
C919 C921 1.433 . S
C920 C916 1.350 . S
C920 C917 1.463 . S
C920 N924 1.427 . S
C921 H911 0.929 . S
C921 C919 1.433 . S
C921 N924 1.384 . S
C922 H913 0.929 . S
C922 C914 1.378 . S
C922 C917 1.350 . S
C923 H910 0.929 . S
C923 C915 1.433 . S
C923 N925 1.384 . S
N924 C920 1.427 . S
N924 C921 1.384 . S
N925 C917 1.427 . S
N925 C923 1.384 . S
H926 C932 0.930 . S
H927 C936 0.930 . S
H928 C941 0.929 . S
H929 C939 0.929 . S
H930 C934 0.929 . S
H931 C940 0.929 . S
C932 H926 0.930 . S
C932 C933 1.367 . S
C932 C940 1.378 . S
C933 C932 1.367 . S
C933 C941 1.433 . S
C934 H930 0.929 . S
C934 C936 1.378 . S
C934 C938 1.350 . S
C935 C938 1.463 . S
C935 C940 1.350 . S
C935 N943 1.427 . S
C936 H927 0.930 . S
C936 C934 1.378 . S
C936 C937 1.367 . S
C937 C936 1.367 . S
C937 C939 1.433 . S
C938 C934 1.350 . S
C938 C935 1.463 . S
C938 N942 1.427 . S
C939 H929 0.929 . S
C939 C937 1.433 . S
C939 N942 1.384 . S
C940 H931 0.929 . S
C940 C932 1.378 . S
C940 C935 1.350 . S
C941 H928 0.929 . S
C941 C933 1.433 . S
C941 N943 1.384 . S
N942 C938 1.427 . S
N942 C939 1.384 . S
N943 C935 1.427 . S
N943 C941 1.384 . S
H944 C950 0.930 . S
H945 C954 0.930 . S
H946 C959 0.929 . S
H947 C957 0.929 . S
H948 C952 0.929 . S
H949 C958 0.929 . S
C950 H944 0.930 . S
C950 C951 1.367 . S
C950 C958 1.378 . S
C951 C950 1.367 . S
C951 C959 1.433 . S
C952 H948 0.929 . S
C952 C954 1.378 . S
C952 C956 1.350 . S
C953 C956 1.463 . S
C953 C958 1.350 . S
C953 N961 1.427 . S
C954 H945 0.930 . S
C954 C952 1.378 . S
C954 C955 1.367 . S
C955 C954 1.367 . S
C955 C957 1.433 . S
C956 C952 1.350 . S
C956 C953 1.463 . S
C956 N960 1.427 . S
C957 H947 0.929 . S
C957 C955 1.433 . S
C957 N960 1.384 . S
C958 H949 0.929 . S
C958 C950 1.378 . S
C958 C953 1.350 . S
C959 H946 0.929 . S
C959 C951 1.433 . S
C959 N961 1.384 . S
N960 C956 1.427 . S
N960 C957 1.384 . S
N961 C953 1.427 . S
N961 C959 1.384 . S
H962 C968 0.930 . S
H963 C972 0.930 . S
H964 C977 0.929 . S
H965 C975 0.929 . S
H966 C970 0.929 . S
H967 C976 0.929 . S
C968 H962 0.930 . S
C968 C969 1.367 . S
C968 C976 1.378 . S
C969 C968 1.367 . S
C969 C977 1.433 . S
C970 H966 0.929 . S
C970 C972 1.378 . S
C970 C974 1.350 . S
C971 C974 1.463 . S
C971 C976 1.350 . S
C971 N979 1.427 . S
C972 H963 0.930 . S
C972 C970 1.378 . S
C972 C973 1.367 . S
C973 C972 1.367 . S
C973 C975 1.433 . S
C974 C970 1.350 . S
C974 C971 1.463 . S
C974 N978 1.427 . S
C975 H965 0.929 . S
C975 C973 1.433 . S
C975 N978 1.384 . S
C976 H967 0.929 . S
C976 C968 1.378 . S
C976 C971 1.350 . S
C977 H964 0.929 . S
C977 C969 1.433 . S
C977 N979 1.384 . S
N978 C974 1.427 . S
N978 C975 1.384 . S
N979 C971 1.427 . S
N979 C977 1.384 . S
H980 C986 0.930 . S
H981 C990 0.952 . S
H982 C995 0.929 1_565 S
H983 C993 0.929 . S
H984 C988 0.929 1_565 S
H985 C994 0.929 . S
C986 H980 0.930 . S
C986 C987 1.367 . S
C986 C994 1.378 . S
C987 C986 1.367 . S
C987 C995 1.433 . S
C988 H984 0.929 1_545 S
C988 C990 1.378 . S
C988 C992 1.350 . S
C989 C992 1.463 . S
C989 C994 1.350 . S
C989 N997 1.427 . S
C990 H981 0.952 . S
C990 C988 1.378 . S
C990 C991 1.367 . S
C991 C990 1.367 . S
C991 C993 1.433 . S
C992 C988 1.350 . S
C992 C989 1.463 . S
C992 N996 1.427 . S
C993 H983 0.929 . S
C993 C991 1.433 . S
C993 N996 1.384 . S
C994 H985 0.929 . S
C994 C986 1.378 . S
C994 C989 1.350 . S
C995 H982 0.929 1_545 S
C995 C987 1.433 . S
C995 N997 1.384 . S
N996 C992 1.427 . S
N996 C993 1.384 . S
N997 C989 1.427 . S
N997 C995 1.384 . S
H998 C1004 0.930 . S
H999 C1008 0.930 . S
H1000 C1013 0.929 . S
H1001 C1011 0.929 . S
H1002 C1006 0.929 . S
H1003 C1012 0.929 . S
C1004 H998 0.930 . S
C1004 C1005 1.367 . S
C1004 C1012 1.378 . S
C1005 C1004 1.367 . S
C1005 C1013 1.433 . S
C1006 H1002 0.929 . S
C1006 C1008 1.378 . S
C1006 C1010 1.350 . S
C1007 C1010 1.463 . S
C1007 C1012 1.350 . S
C1007 N1015 1.427 . S
C1008 H999 0.930 . S
C1008 C1006 1.378 . S
C1008 C1009 1.367 . S
C1009 C1008 1.367 . S
C1009 C1011 1.433 . S
C1010 C1006 1.350 . S
C1010 C1007 1.463 . S
C1010 N1014 1.427 . S
C1011 H1001 0.929 . S
C1011 C1009 1.433 . S
C1011 N1014 1.384 . S
C1012 H1003 0.929 . S
C1012 C1004 1.378 . S
C1012 C1007 1.350 . S
C1013 H1000 0.929 . S
C1013 C1005 1.433 . S
C1013 N1015 1.384 . S
N1014 C1010 1.427 . S
N1014 C1011 1.384 . S
N1015 C1007 1.427 . S
N1015 C1013 1.384 . S
H1016 C1022 0.930 . S
H1017 C1026 0.930 . S
H1018 C1031 0.929 . S
H1019 C1029 0.929 . S
H1020 C1024 0.929 . S
H1021 C1030 0.929 . S
C1022 H1016 0.930 . S
C1022 C1023 1.367 . S
C1022 C1030 1.378 . S
C1023 C1022 1.367 . S
C1023 C1031 1.433 . S
C1024 H1020 0.929 . S
C1024 C1026 1.378 . S
C1024 C1028 1.350 . S
C1025 C1028 1.463 . S
C1025 C1030 1.350 . S
C1025 N1033 1.427 . S
C1026 H1017 0.930 . S
C1026 C1024 1.378 . S
C1026 C1027 1.367 . S
C1027 C1026 1.367 . S
C1027 C1029 1.433 . S
C1028 C1024 1.350 . S
C1028 C1025 1.463 . S
C1028 N1032 1.427 . S
C1029 H1019 0.929 . S
C1029 C1027 1.433 . S
C1029 N1032 1.384 . S
C1030 H1021 0.929 . S
C1030 C1022 1.378 . S
C1030 C1025 1.350 . S
C1031 H1018 0.929 . S
C1031 C1023 1.433 . S
C1031 N1033 1.384 . S
N1032 C1028 1.427 . S
N1032 C1029 1.384 . S
N1033 C1025 1.427 . S
N1033 C1031 1.384 . S
H1034 C1040 0.930 . S
H1035 C1044 0.930 . S
H1036 C1049 0.929 . S
H1037 C1047 0.929 . S
H1038 C1042 0.929 . S
H1039 C1048 0.929 . S
C1040 H1034 0.930 . S
C1040 C1041 1.367 . S
C1040 C1048 1.378 . S
C1041 C1040 1.367 . S
C1041 C1049 1.433 . S
C1042 H1038 0.929 . S
C1042 C1044 1.378 . S
C1042 C1046 1.350 . S
C1043 C1046 1.463 . S
C1043 C1048 1.350 . S
C1043 N1051 1.427 . S
C1044 H1035 0.930 . S
C1044 C1042 1.378 . S
C1044 C1045 1.367 . S
C1045 C1044 1.367 . S
C1045 C1047 1.433 . S
C1046 C1042 1.350 . S
C1046 C1043 1.463 . S
C1046 N1050 1.427 . S
C1047 H1037 0.929 . S
C1047 C1045 1.433 . S
C1047 N1050 1.384 . S
C1048 H1039 0.929 . S
C1048 C1040 1.378 . S
C1048 C1043 1.350 . S
C1049 H1036 0.929 . S
C1049 C1041 1.433 . S
C1049 N1051 1.384 . S
N1050 C1046 1.427 . S
N1050 C1047 1.384 . S
N1051 C1043 1.427 . S
N1051 C1049 1.384 . S
H1052 C1058 0.930 . S
H1053 C1062 0.930 . S
H1054 C1067 0.929 . S
H1055 C1065 0.929 . S
H1056 C1060 0.929 . S
H1057 C1066 0.929 . S
C1058 H1052 0.930 . S
C1058 C1059 1.367 . S
C1058 C1066 1.378 . S
C1059 C1058 1.367 . S
C1059 C1067 1.433 . S
C1060 H1056 0.929 . S
C1060 C1062 1.378 . S
C1060 C1064 1.350 . S
C1061 C1064 1.463 . S
C1061 C1066 1.350 . S
C1061 N1069 1.427 . S
C1062 H1053 0.930 . S
C1062 C1060 1.378 . S
C1062 C1063 1.367 . S
C1063 C1062 1.367 . S
C1063 C1065 1.433 . S
C1064 C1060 1.350 . S
C1064 C1061 1.463 . S
C1064 N1068 1.427 . S
C1065 H1055 0.929 . S
C1065 C1063 1.433 . S
C1065 N1068 1.384 . S
C1066 H1057 0.929 . S
C1066 C1058 1.378 . S
C1066 C1061 1.350 . S
C1067 H1054 0.929 . S
C1067 C1059 1.433 . S
C1067 N1069 1.384 . S
N1068 C1064 1.427 . S
N1068 C1065 1.384 . S
N1069 C1061 1.427 . S
N1069 C1067 1.384 . S
H1070 C1076 0.930 . S
H1071 C1080 0.930 . S
H1072 C1085 0.929 . S
H1073 C1083 0.929 . S
H1074 C1078 0.929 . S
H1075 C1084 0.929 . S
C1076 H1070 0.930 . S
C1076 C1077 1.367 . S
C1076 C1084 1.378 . S
C1077 C1076 1.367 . S
C1077 C1085 1.433 . S
C1078 H1074 0.929 . S
C1078 C1080 1.378 . S
C1078 C1082 1.350 . S
C1079 C1082 1.463 . S
C1079 C1084 1.350 . S
C1079 N1087 1.427 . S
C1080 H1071 0.930 . S
C1080 C1078 1.378 . S
C1080 C1081 1.367 . S
C1081 C1080 1.367 . S
C1081 C1083 1.433 . S
C1082 C1078 1.350 . S
C1082 C1079 1.463 . S
C1082 N1086 1.427 . S
C1083 H1073 0.929 . S
C1083 C1081 1.433 . S
C1083 N1086 1.384 . S
C1084 H1075 0.929 . S
C1084 C1076 1.378 . S
C1084 C1079 1.350 . S
C1085 H1072 0.929 . S
C1085 C1077 1.433 . S
C1085 N1087 1.384 . S
N1086 C1082 1.427 . S
N1086 C1083 1.384 . S
N1087 C1079 1.427 . S
N1087 C1085 1.384 . S
H1088 C1094 0.930 . S
H1089 C1098 0.930 . S
H1090 C1103 0.929 . S
H1091 C1101 0.929 . S
H1092 C1096 0.929 . S
H1093 C1102 0.929 . S
C1094 H1088 0.930 . S
C1094 C1095 1.367 . S
C1094 C1102 1.378 . S
C1095 C1094 1.367 . S
C1095 C1103 1.433 . S
C1096 H1092 0.929 . S
C1096 C1098 1.378 . S
C1096 C1100 1.350 . S
C1097 C1100 1.463 . S
C1097 C1102 1.350 . S
C1097 N1105 1.427 . S
C1098 H1089 0.930 . S
C1098 C1096 1.378 . S
C1098 C1099 1.367 . S
C1099 C1098 1.367 . S
C1099 C1101 1.433 . S
C1100 C1096 1.350 . S
C1100 C1097 1.463 . S
C1100 N1104 1.427 . S
C1101 H1091 0.929 . S
C1101 C1099 1.433 . S
C1101 N1104 1.384 . S
C1102 H1093 0.929 . S
C1102 C1094 1.378 . S
C1102 C1097 1.350 . S
C1103 H1090 0.929 . S
C1103 C1095 1.433 . S
C1103 N1105 1.384 . S
N1104 C1100 1.427 . S
N1104 C1101 1.384 . S
N1105 C1097 1.427 . S
N1105 C1103 1.384 . S
H1106 C1112 0.930 . S
H1107 C1116 0.930 . S
H1108 C1121 0.929 . S
H1109 C1119 0.929 . S
H1110 C1114 0.929 . S
H1111 C1120 0.929 . S
C1112 H1106 0.930 . S
C1112 C1113 1.367 . S
C1112 C1120 1.378 . S
C1113 C1112 1.367 . S
C1113 C1121 1.433 . S
C1114 H1110 0.929 . S
C1114 C1116 1.378 . S
C1114 C1118 1.350 . S
C1115 C1118 1.463 . S
C1115 C1120 1.350 . S
C1115 N1123 1.427 . S
C1116 H1107 0.930 . S
C1116 C1114 1.378 . S
C1116 C1117 1.367 . S
C1117 C1116 1.367 . S
C1117 C1119 1.433 . S
C1118 C1114 1.350 . S
C1118 C1115 1.463 . S
C1118 N1122 1.427 . S
C1119 H1109 0.929 . S
C1119 C1117 1.433 . S
C1119 N1122 1.384 . S
C1120 H1111 0.929 . S
C1120 C1112 1.378 . S
C1120 C1115 1.350 . S
C1121 H1108 0.929 . S
C1121 C1113 1.433 . S
C1121 N1123 1.384 . S
N1122 C1118 1.427 . S
N1122 C1119 1.384 . S
N1123 C1115 1.427 . S
N1123 C1121 1.384 . S
H1124 C1130 0.930 . S
H1125 C1134 0.930 . S
H1126 C1139 0.929 . S
H1127 C1137 0.929 . S
H1128 C1132 0.929 . S
H1129 C1138 0.929 . S
C1130 H1124 0.930 . S
C1130 C1131 1.367 . S
C1130 C1138 1.378 . S
C1131 C1130 1.367 . S
C1131 C1139 1.433 . S
C1132 H1128 0.929 . S
C1132 C1134 1.378 . S
C1132 C1136 1.350 . S
C1133 C1136 1.463 . S
C1133 C1138 1.350 . S
C1133 N1141 1.427 . S
C1134 H1125 0.930 . S
C1134 C1132 1.378 . S
C1134 C1135 1.367 . S
C1135 C1134 1.367 . S
C1135 C1137 1.433 . S
C1136 C1132 1.350 . S
C1136 C1133 1.463 . S
C1136 N1140 1.427 . S
C1137 H1127 0.929 . S
C1137 C1135 1.433 . S
C1137 N1140 1.384 . S
C1138 H1129 0.929 . S
C1138 C1130 1.378 . S
C1138 C1133 1.350 . S
C1139 H1126 0.929 . S
C1139 C1131 1.433 . S
C1139 N1141 1.384 . S
N1140 C1136 1.427 . S
N1140 C1137 1.384 . S
N1141 C1133 1.427 . S
N1141 C1139 1.384 . S
H1142 C1148 0.930 . S
H1143 C1152 0.930 . S
H1144 C1157 0.929 . S
H1145 C1155 0.929 . S
H1146 C1150 0.929 . S
H1147 C1156 0.929 . S
C1148 H1142 0.930 . S
C1148 C1149 1.367 . S
C1148 C1156 1.378 . S
C1149 C1148 1.367 . S
C1149 C1157 1.433 . S
C1150 H1146 0.929 . S
C1150 C1152 1.378 . S
C1150 C1154 1.350 . S
C1151 C1154 1.463 . S
C1151 C1156 1.350 . S
C1151 N1159 1.427 . S
C1152 H1143 0.930 . S
C1152 C1150 1.378 . S
C1152 C1153 1.367 . S
C1153 C1152 1.367 . S
C1153 C1155 1.433 . S
C1154 C1150 1.350 . S
C1154 C1151 1.463 . S
C1154 N1158 1.427 . S
C1155 H1145 0.929 . S
C1155 C1153 1.433 . S
C1155 N1158 1.384 . S
C1156 H1147 0.929 . S
C1156 C1148 1.378 . S
C1156 C1151 1.350 . S
C1157 H1144 0.929 . S
C1157 C1149 1.433 . S
C1157 N1159 1.384 . S
N1158 C1154 1.427 . S
N1158 C1155 1.384 . S
N1159 C1151 1.427 . S
N1159 C1157 1.384 . S
H1160 C1166 0.930 . S
H1161 C1170 0.930 . S
H1162 C1175 0.929 . S
H1163 C1173 0.929 . S
H1164 C1168 0.929 . S
H1165 C1174 0.929 . S
C1166 H1160 0.930 . S
C1166 C1167 1.367 . S
C1166 C1174 1.378 . S
C1167 C1166 1.367 . S
C1167 C1175 1.433 . S
C1168 H1164 0.929 . S
C1168 C1170 1.378 . S
C1168 C1172 1.350 . S
C1169 C1172 1.463 . S
C1169 C1174 1.350 . S
C1169 N1177 1.427 . S
C1170 H1161 0.930 . S
C1170 C1168 1.378 . S
C1170 C1171 1.367 . S
C1171 C1170 1.367 . S
C1171 C1173 1.433 . S
C1172 C1168 1.350 . S
C1172 C1169 1.463 . S
C1172 N1176 1.427 . S
C1173 H1163 0.929 . S
C1173 C1171 1.433 . S
C1173 N1176 1.384 . S
C1174 H1165 0.929 . S
C1174 C1166 1.378 . S
C1174 C1169 1.350 . S
C1175 H1162 0.929 . S
C1175 C1167 1.433 . S
C1175 N1177 1.384 . S
N1176 C1172 1.427 . S
N1176 C1173 1.384 . S
N1177 C1169 1.427 . S
N1177 C1175 1.384 . S
H1178 C1184 0.930 . S
H1179 C1188 0.930 . S
H1180 C1193 0.929 . S
H1181 C1191 0.929 . S
H1182 C1186 0.929 . S
H1183 C1192 0.929 . S
C1184 H1178 0.930 . S
C1184 C1185 1.367 . S
C1184 C1192 1.378 . S
C1185 C1184 1.367 . S
C1185 C1193 1.433 . S
C1186 H1182 0.929 . S
C1186 C1188 1.378 . S
C1186 C1190 1.350 . S
C1187 C1190 1.463 . S
C1187 C1192 1.350 . S
C1187 N1195 1.427 . S
C1188 H1179 0.930 . S
C1188 C1186 1.378 . S
C1188 C1189 1.367 . S
C1189 C1188 1.367 . S
C1189 C1191 1.433 . S
C1190 C1186 1.350 . S
C1190 C1187 1.463 . S
C1190 N1194 1.427 . S
C1191 H1181 0.929 . S
C1191 C1189 1.433 . S
C1191 N1194 1.384 . S
C1192 H1183 0.929 . S
C1192 C1184 1.378 . S
C1192 C1187 1.350 . S
C1193 H1180 0.929 . S
C1193 C1185 1.433 . S
C1193 N1195 1.384 . S
N1194 C1190 1.427 . S
N1194 C1191 1.384 . S
N1195 C1187 1.427 . S
N1195 C1193 1.384 . S
H1196 C1202 0.930 . S
H1197 C1206 0.930 . S
H1198 C1211 0.929 . S
H1199 C1209 0.929 . S
H1200 C1204 0.929 . S
H1201 C1210 0.929 . S
C1202 H1196 0.930 . S
C1202 C1203 1.367 . S
C1202 C1210 1.378 . S
C1203 C1202 1.367 . S
C1203 C1211 1.433 . S
C1204 H1200 0.929 . S
C1204 C1206 1.378 . S
C1204 C1208 1.350 . S
C1205 C1208 1.463 . S
C1205 C1210 1.350 . S
C1205 N1213 1.427 . S
C1206 H1197 0.930 . S
C1206 C1204 1.378 . S
C1206 C1207 1.367 . S
C1207 C1206 1.367 . S
C1207 C1209 1.433 . S
C1208 C1204 1.350 . S
C1208 C1205 1.463 . S
C1208 N1212 1.427 . S
C1209 H1199 0.929 . S
C1209 C1207 1.433 . S
C1209 N1212 1.384 . S
C1210 H1201 0.929 . S
C1210 C1202 1.378 . S
C1210 C1205 1.350 . S
C1211 H1198 0.929 . S
C1211 C1203 1.433 . S
C1211 N1213 1.384 . S
N1212 C1208 1.427 . S
N1212 C1209 1.384 . S
N1213 C1205 1.427 . S
N1213 C1211 1.384 . S
H1214 C1220 0.930 . S
H1215 C1224 0.930 . S
H1216 C1229 0.929 . S
H1217 C1227 0.929 . S
H1218 C1222 0.929 . S
H1219 C1228 0.929 . S
C1220 H1214 0.930 . S
C1220 C1221 1.367 . S
C1220 C1228 1.378 . S
C1221 C1220 1.367 . S
C1221 C1229 1.433 . S
C1222 H1218 0.929 . S
C1222 C1224 1.378 . S
C1222 C1226 1.350 . S
C1223 C1226 1.463 . S
C1223 C1228 1.350 . S
C1223 N1231 1.427 . S
C1224 H1215 0.930 . S
C1224 C1222 1.378 . S
C1224 C1225 1.367 . S
C1225 C1224 1.367 . S
C1225 C1227 1.433 . S
C1226 C1222 1.350 . S
C1226 C1223 1.463 . S
C1226 N1230 1.427 . S
C1227 H1217 0.929 . S
C1227 C1225 1.433 . S
C1227 N1230 1.384 . S
C1228 H1219 0.929 . S
C1228 C1220 1.378 . S
C1228 C1223 1.350 . S
C1229 H1216 0.929 . S
C1229 C1221 1.433 . S
C1229 N1231 1.384 . S
N1230 C1226 1.427 . S
N1230 C1227 1.384 . S
N1231 C1223 1.427 . S
N1231 C1229 1.384 . S
H1232 C1238 0.930 . S
H1233 C1242 0.930 . S
H1234 C1247 0.929 . S
H1235 C1245 0.929 . S
H1236 C1240 0.929 . S
H1237 C1246 0.929 . S
C1238 H1232 0.930 . S
C1238 C1239 1.367 . S
C1238 C1246 1.378 . S
C1239 C1238 1.367 . S
C1239 C1247 1.433 . S
C1240 H1236 0.929 . S
C1240 C1242 1.378 . S
C1240 C1244 1.350 . S
C1241 C1244 1.463 . S
C1241 C1246 1.350 . S
C1241 N1249 1.427 . S
C1242 H1233 0.930 . S
C1242 C1240 1.378 . S
C1242 C1243 1.367 . S
C1243 C1242 1.367 . S
C1243 C1245 1.433 . S
C1244 C1240 1.350 . S
C1244 C1241 1.463 . S
C1244 N1248 1.427 . S
C1245 H1235 0.929 . S
C1245 C1243 1.433 . S
C1245 N1248 1.384 . S
C1246 H1237 0.929 . S
C1246 C1238 1.378 . S
C1246 C1241 1.350 . S
C1247 H1234 0.929 . S
C1247 C1239 1.433 . S
C1247 N1249 1.384 . S
N1248 C1244 1.427 . S
N1248 C1245 1.384 . S
N1249 C1241 1.427 . S
N1249 C1247 1.384 . S
H1250 C1256 0.930 . S
H1251 C1260 0.930 . S
H1252 C1265 0.929 . S
H1253 C1263 0.929 . S
H1254 C1258 0.929 . S
H1255 C1264 0.929 . S
C1256 H1250 0.930 . S
C1256 C1257 1.367 . S
C1256 C1264 1.378 . S
C1257 C1256 1.367 . S
C1257 C1265 1.433 . S
C1258 H1254 0.929 . S
C1258 C1260 1.378 . S
C1258 C1262 1.350 . S
C1259 C1262 1.463 . S
C1259 C1264 1.350 . S
C1259 N1267 1.427 . S
C1260 H1251 0.930 . S
C1260 C1258 1.378 . S
C1260 C1261 1.367 . S
C1261 C1260 1.367 . S
C1261 C1263 1.433 . S
C1262 C1258 1.350 . S
C1262 C1259 1.463 . S
C1262 N1266 1.427 . S
C1263 H1253 0.929 . S
C1263 C1261 1.433 . S
C1263 N1266 1.384 . S
C1264 H1255 0.929 . S
C1264 C1256 1.378 . S
C1264 C1259 1.350 . S
C1265 H1252 0.929 . S
C1265 C1257 1.433 . S
C1265 N1267 1.384 . S
N1266 C1262 1.427 . S
N1266 C1263 1.384 . S
N1267 C1259 1.427 . S
N1267 C1265 1.384 . S
H1268 C1274 0.930 . S
H1269 C1278 0.930 . S
H1270 C1283 0.929 . S
H1271 C1281 0.935 . S
H1272 C1276 0.929 . S
H1273 C1282 0.929 . S
C1274 H1268 0.930 . S
C1274 C1275 1.367 . S
C1274 C1282 1.378 . S
C1275 C1274 1.367 . S
C1275 C1283 1.433 . S
C1276 H1272 0.929 . S
C1276 C1278 1.378 . S
C1276 C1280 1.350 . S
C1277 C1280 1.463 . S
C1277 C1282 1.350 . S
C1277 N1285 1.427 . S
C1278 H1269 0.930 . S
C1278 C1276 1.378 . S
C1278 C1279 1.367 . S
C1279 C1278 1.367 . S
C1279 C1281 1.433 . S
C1280 C1276 1.350 . S
C1280 C1277 1.463 . S
C1280 N1284 1.427 . S
C1281 H1271 0.935 . S
C1281 C1279 1.433 . S
C1281 N1284 1.384 . S
C1282 H1273 0.929 . S
C1282 C1274 1.378 . S
C1282 C1277 1.350 . S
C1283 H1270 0.929 . S
C1283 C1275 1.433 . S
C1283 N1285 1.384 . S
N1284 C1280 1.427 . S
N1284 C1281 1.384 . S
N1285 C1277 1.427 . S
N1285 C1283 1.384 . S
H1286 C1292 0.930 . S
H1287 C1296 0.930 . S
H1288 C1301 0.929 . S
H1289 C1299 0.929 . S
H1290 C1294 0.929 . S
H1291 C1300 0.929 . S
C1292 H1286 0.930 . S
C1292 C1293 1.367 . S
C1292 C1300 1.378 . S
C1293 C1292 1.367 . S
C1293 C1301 1.433 . S
C1294 H1290 0.929 . S
C1294 C1296 1.378 . S
C1294 C1298 1.350 . S
C1295 C1298 1.463 . S
C1295 C1300 1.350 . S
C1295 N1303 1.427 . S
C1296 H1287 0.930 . S
C1296 C1294 1.378 . S
C1296 C1297 1.367 . S
C1297 C1296 1.367 . S
C1297 C1299 1.433 . S
C1298 C1294 1.350 . S
C1298 C1295 1.463 . S
C1298 N1302 1.427 . S
C1299 H1289 0.929 . S
C1299 C1297 1.433 . S
C1299 N1302 1.384 . S
C1300 H1291 0.929 . S
C1300 C1292 1.378 . S
C1300 C1295 1.350 . S
C1301 H1288 0.929 . S
C1301 C1293 1.433 . S
C1301 N1303 1.384 . S
N1302 C1298 1.427 . S
N1302 C1299 1.384 . S
N1303 C1295 1.427 . S
N1303 C1301 1.384 . S
H1304 C1310 0.930 . S
H1305 C1314 0.930 . S
H1306 C1319 0.929 . S
H1307 C1317 0.929 . S
H1308 C1312 0.929 . S
H1309 C1318 0.929 . S
C1310 H1304 0.930 . S
C1310 C1311 1.367 . S
C1310 C1318 1.378 . S
C1311 C1310 1.367 . S
C1311 C1319 1.433 . S
C1312 H1308 0.929 . S
C1312 C1314 1.378 . S
C1312 C1316 1.350 . S
C1313 C1316 1.463 . S
C1313 C1318 1.350 . S
C1313 N1321 1.427 . S
C1314 H1305 0.930 . S
C1314 C1312 1.378 . S
C1314 C1315 1.367 . S
C1315 C1314 1.367 . S
C1315 C1317 1.433 . S
C1316 C1312 1.350 . S
C1316 C1313 1.463 . S
C1316 N1320 1.427 . S
C1317 H1307 0.929 . S
C1317 C1315 1.433 . S
C1317 N1320 1.384 . S
C1318 H1309 0.929 . S
C1318 C1310 1.378 . S
C1318 C1313 1.350 . S
C1319 H1306 0.929 . S
C1319 C1311 1.433 . S
C1319 N1321 1.384 . S
N1320 C1316 1.427 . S
N1320 C1317 1.384 . S
N1321 C1313 1.427 . S
N1321 C1319 1.384 . S
H1322 C1328 0.930 . S
H1323 C1332 0.930 . S
H1324 C1337 0.929 . S
H1325 C1335 0.929 . S
H1326 C1330 0.929 . S
H1327 C1336 0.929 . S
C1328 H1322 0.930 . S
C1328 C1329 1.367 . S
C1328 C1336 1.378 . S
C1329 C1328 1.367 . S
C1329 C1337 1.433 . S
C1330 H1326 0.929 . S
C1330 C1332 1.378 . S
C1330 C1334 1.350 . S
C1331 C1334 1.463 . S
C1331 C1336 1.350 . S
C1331 N1339 1.427 . S
C1332 H1323 0.930 . S
C1332 C1330 1.378 . S
C1332 C1333 1.367 . S
C1333 C1332 1.367 . S
C1333 C1335 1.433 . S
C1334 C1330 1.350 . S
C1334 C1331 1.463 . S
C1334 N1338 1.427 . S
C1335 H1325 0.929 . S
C1335 C1333 1.433 . S
C1335 N1338 1.384 . S
C1336 H1327 0.929 . S
C1336 C1328 1.378 . S
C1336 C1331 1.350 . S
C1337 H1324 0.929 . S
C1337 C1329 1.433 . S
C1337 N1339 1.384 . S
N1338 C1334 1.427 . S
N1338 C1335 1.384 . S
N1339 C1331 1.427 . S
N1339 C1337 1.384 . S
H1340 C1346 0.930 . S
H1341 C1350 0.930 . S
H1342 C1355 0.929 . S
H1343 C1353 0.929 . S
H1344 C1348 0.929 . S
H1345 C1354 0.929 . S
C1346 H1340 0.930 . S
C1346 C1347 1.367 . S
C1346 C1354 1.378 . S
C1347 C1346 1.367 . S
C1347 C1355 1.433 . S
C1348 H1344 0.929 . S
C1348 C1350 1.378 . S
C1348 C1352 1.350 . S
C1349 C1352 1.463 . S
C1349 C1354 1.350 . S
C1349 N1357 1.427 . S
C1350 H1341 0.930 . S
C1350 C1348 1.378 . S
C1350 C1351 1.367 . S
C1351 C1350 1.367 . S
C1351 C1353 1.433 . S
C1352 C1348 1.350 . S
C1352 C1349 1.463 . S
C1352 N1356 1.427 . S
C1353 H1343 0.929 . S
C1353 C1351 1.433 . S
C1353 N1356 1.384 . S
C1354 H1345 0.929 . S
C1354 C1346 1.378 . S
C1354 C1349 1.350 . S
C1355 H1342 0.929 . S
C1355 C1347 1.433 . S
C1355 N1357 1.384 . S
N1356 C1352 1.427 . S
N1356 C1353 1.384 . S
N1357 C1349 1.427 . S
N1357 C1355 1.384 . S
H1358 C1364 0.930 . S
H1359 C1368 0.930 . S
H1360 C1373 0.929 . S
H1361 C1371 0.929 . S
H1362 C1366 0.929 . S
H1363 C1372 0.929 . S
C1364 H1358 0.930 . S
C1364 C1365 1.367 . S
C1364 C1372 1.378 . S
C1365 C1364 1.367 . S
C1365 C1373 1.433 . S
C1366 H1362 0.929 . S
C1366 C1368 1.378 . S
C1366 C1370 1.350 . S
C1367 C1370 1.463 . S
C1367 C1372 1.350 . S
C1367 N1375 1.427 . S
C1368 H1359 0.930 . S
C1368 C1366 1.378 . S
C1368 C1369 1.367 . S
C1369 C1368 1.367 . S
C1369 C1371 1.433 . S
C1370 C1366 1.350 . S
C1370 C1367 1.463 . S
C1370 N1374 1.427 . S
C1371 H1361 0.929 . S
C1371 C1369 1.433 . S
C1371 N1374 1.384 . S
C1372 H1363 0.929 . S
C1372 C1364 1.378 . S
C1372 C1367 1.350 . S
C1373 H1360 0.929 . S
C1373 C1365 1.433 . S
C1373 N1375 1.384 . S
N1374 C1370 1.427 . S
N1374 C1371 1.384 . S
N1375 C1367 1.427 . S
N1375 C1373 1.384 . S
C519 N18 0.774 . S
C523 C36 0.769 . S
C537 N77 0.772 . S
C541 C61 0.777 1_655 S
C555 C100 1.425 . S
C559 C66 1.430 . S
C573 C6 1.428 . S
C577 C125 1.423 . S
C591 C4 1.619 . S
C595 C290 1.595 . S
C609 C228 1.609 . S
C613 C38 1.573 . S
C627 N82 1.045 . S
C631 C322 1.047 . S
C645 C102 1.496 . S
C649 C445 1.507 . S
C663 C285 1.607 . S
C667 C34 1.576 . S
C681 C390 1.601 . S
C685 C93 1.620 . S
C699 C452 1.508 . S
C703 C98 1.488 . S
C717 N13 1.045 . S
C721 C358 1.048 . S
C735 C2 1.194 . S
C739 C262 1.202 . S
C753 N402 0.470 . S
C757 N146 0.446 . S
C771 C166 1.146 . S
C775 C477 1.140 . S
C789 N370 0.206 . S
C793 N210 0.216 . S
C807 C70 1.198 . S
C811 C226 1.194 . S
C825 N301 0.461 . S
C829 N141 0.435 . S
C843 N205 0.190 . S
C847 N333 0.233 . S
C861 N178 0.626 . S
C865 C354 0.623 . S
C879 C294 1.006 . S
C883 C189 1.015 . S
C897 C356 1.416 . S
C901 C230 1.440 . S
C915 N173 0.373 . S
C919 C157 0.359 . S
C933 C292 0.398 . S
C937 N269 0.394 . S
C951 N429 0.571 . S
C955 C381 0.558 . S
C969 C196 1.061 . S
C973 C162 1.084 . S
C987 C317 1.296 . S
C991 C454 1.299 . S
C1005 C422 1.092 . S
C1009 C29 1.091 . S
C1023 C68 1.092 . S
C1027 C450 1.089 . S
C1041 N397 0.705 . S
C1045 N45 0.706 . S
C1059 C253 1.030 . S
C1063 C164 1.029 . S
C1077 N114 0.377 . S
C1081 N338 0.351 . S
C1095 C388 1.300 . S
C1099 C418 1.305 . S
C1113 N242 0.391 . S
C1117 C413 0.389 . S
C1131 C194 0.711 . S
C1135 N237 0.711 . S
C1149 C130 0.611 . S
C1153 N434 0.613 . S
C1167 C386 0.993 . S
C1171 C484 1.014 . S
C1185 C509 1.028 . S
C1189 C260 1.026 . S
C1203 N50 0.724 . S
C1207 N306 0.730 . S
C1221 N274 0.728 . S
C1225 C198 0.725 . S
C1239 C258 1.440 . S
C1243 C349 1.415 . S
C1257 C486 1.084 . S
C1261 C221 1.068 . S
C1275 C420 1.140 . S
C1279 C482 1.145 . S
C1293 N365 0.357 . S
C1297 N109 0.405 . S
C1311 C324 0.567 . S
C1315 N466 0.582 . S
C1329 C326 0.598 . S
C1333 N493 0.601 . S
C1347 C134 0.610 . S
C1351 N461 0.613 . S
C1365 N498 0.369 . S
C1369 C132 0.370 . S
