# Generated by pormake.
# Topology mdf, (4)-cn, num edge types: 1
# Building blocks:
#     Node 0, Type 0, BuildingBlock: UXUYUI_clean_sbu_0, # of connection points: 4
#     Node 1, Type 0, BuildingBlock: UXUYUI_clean_sbu_0, # of connection points: 4
#     Node 2, Type 0, BuildingBlock: UXUYUI_clean_sbu_0, # of connection points: 4
#     Node 3, Type 0, BuildingBlock: UXUYUI_clean_sbu_0, # of connection points: 4
#     Node 4, Type 0, BuildingBlock: UXUYUI_clean_sbu_0, # of connection points: 4
#     Node 5, Type 0, BuildingBlock: UXUYUI_clean_sbu_0, # of connection points: 4
#     Node 6, Type 0, BuildingBlock: UXUYUI_clean_sbu_0, # of connection points: 4
#     Node 7, Type 0, BuildingBlock: UXUYUI_clean_sbu_0, # of connection points: 4
#     Edge 8, Type (0, 0), BuildingBlock: AJUNOK_clean_linker_0, # of connection points: 2
#     Edge 9, Type (0, 0), BuildingBlock: AJUNOK_clean_linker_0, # of connection points: 2
#     Edge 10, Type (0, 0), BuildingBlock: AJUNOK_clean_linker_0, # of connection points: 2
#     Edge 11, Type (0, 0), BuildingBlock: AJUNOK_clean_linker_0, # of connection points: 2
#     Edge 12, Type (0, 0), BuildingBlock: AJUNOK_clean_linker_0, # of connection points: 2
#     Edge 13, Type (0, 0), BuildingBlock: AJUNOK_clean_linker_0, # of connection points: 2
#     Edge 14, Type (0, 0), BuildingBlock: AJUNOK_clean_linker_0, # of connection points: 2
#     Edge 15, Type (0, 0), BuildingBlock: AJUNOK_clean_linker_0, # of connection points: 2
#     Edge 16, Type (0, 0), BuildingBlock: AJUNOK_clean_linker_0, # of connection points: 2
#     Edge 17, Type (0, 0), BuildingBlock: AJUNOK_clean_linker_0, # of connection points: 2
#     Edge 18, Type (0, 0), BuildingBlock: AJUNOK_clean_linker_0, # of connection points: 2
#     Edge 19, Type (0, 0), BuildingBlock: AJUNOK_clean_linker_0, # of connection points: 2
#     Edge 20, Type (0, 0), BuildingBlock: AJUNOK_clean_linker_0, # of connection points: 2
#     Edge 21, Type (0, 0), BuildingBlock: AJUNOK_clean_linker_0, # of connection points: 2
#     Edge 22, Type (0, 0), BuildingBlock: AJUNOK_clean_linker_0, # of connection points: 2
#     Edge 23, Type (0, 0), BuildingBlock: AJUNOK_clean_linker_0, # of connection points: 2
# Relax obj value: 0.090
# Max RMSD: 0.078
# Mean RMSD: 0.078
data_MOF--net-mdf--node1-UXUYUI_clean_sbu_0--edge1-AJUNOK_clean_linker_0
_symmetry_space_group_name_H-M    P1
_symmetry_Int_Tables_number       1
_symmetry_cell_setting            triclinic
loop_
_symmetry_equiv_pos_as_xyz
'x, y, z'
_cell_length_a     41.062359
_cell_length_b     41.016174
_cell_length_c     18.641456
_cell_angle_alpha  89.91564
_cell_angle_beta   89.957217
_cell_angle_gamma 89.846254
loop_
_atom_site_label
_atom_site_type_symbol
_atom_site_fract_x
_atom_site_fract_y
_atom_site_fract_z
_atom_type_partial_charge
Li0 Li 0.24314 0.58141 0.4529 0.0
Li1 Li 0.23208 0.53784 0.36577 0.0
Li2 Li 0.28554 0.54374 0.41262 0.0
Li3 Li 0.2651 0.58292 0.32437 0.0
C4 C 0.2548 0.50823 0.50796 0.0
N5 N 0.27726 0.45646 0.58912 0.0
C6 C 0.25262 0.47643 0.48158 0.0
C7 C 0.26812 0.51369 0.57583 0.0
C8 C 0.26417 0.45058 0.5234 0.0
C9 C 0.27942 0.4872 0.61597 0.0
C10 C 0.18857 0.58206 0.33392 0.0
C11 C 0.15148 0.57137 0.23661 0.0
N12 N 0.1261 0.57254 0.2835 0.0
C13 C 0.16216 0.58326 0.38115 0.0
C14 C 0.18325 0.57631 0.26099 0.0
C15 C 0.13074 0.57841 0.35457 0.0
C16 C 0.22707 0.63868 0.5341 0.0
N17 N 0.22478 0.60565 0.53025 0.0
C18 C 0.19315 0.60412 0.63784 0.0
C19 C 0.20839 0.58827 0.58072 0.0
C20 C 0.19453 0.63825 0.64281 0.0
C21 C 0.21214 0.65558 0.59056 0.0
H22 H 0.24024 0.65187 0.49306 0.0
H23 H 0.20694 0.56203 0.57625 0.0
C24 C 0.19944 0.49482 0.27102 0.0
N25 N 0.19929 0.50773 0.33811 0.0
C26 C 0.17535 0.4727 0.25066 0.0
C27 C 0.15156 0.47759 0.36887 0.0
C28 C 0.17607 0.49963 0.38692 0.0
C29 C 0.15096 0.4639 0.29989 0.0
H30 H 0.21827 0.50174 0.23342 0.0
H31 H 0.17662 0.51035 0.43989 0.0
C32 C 0.30938 0.608 0.4601 0.0
N33 N 0.35037 0.64404 0.54639 0.0
C34 C 0.33337 0.62769 0.42944 0.0
C35 C 0.30646 0.60635 0.53473 0.0
C36 C 0.35367 0.64591 0.47391 0.0
C37 C 0.32753 0.62465 0.57746 0.0
C38 C 0.30025 0.53177 0.26922 0.0
C39 C 0.32772 0.55103 0.28169 0.0
C40 C 0.30072 0.50892 0.2137 0.0
C41 C 0.35515 0.54719 0.23812 0.0
C42 C 0.32863 0.50579 0.17133 0.0
N43 N 0.35503 0.52485 0.18429 0.0
C44 C 0.3253 0.4884 0.40897 0.0
C45 C 0.3455 0.52772 0.49031 0.0
C46 C 0.35079 0.46717 0.42558 0.0
N47 N 0.32307 0.51811 0.44099 0.0
C48 C 0.37141 0.50706 0.50895 0.0
C49 C 0.37433 0.47632 0.47621 0.0
H50 H 0.30696 0.48097 0.37083 0.0
H51 H 0.34317 0.55114 0.51603 0.0
C52 C 0.28892 0.6402 0.25466 0.0
N53 N 0.27661 0.60981 0.24447 0.0
C54 C 0.30204 0.6576 0.19686 0.0
C55 C 0.28777 0.61288 0.1188 0.0
C56 C 0.27485 0.59645 0.17788 0.0
C57 C 0.30247 0.64342 0.12834 0.0
H58 H 0.28953 0.65048 0.30801 0.0
H59 H 0.26448 0.57245 0.17105 0.0
O60 O 0.24451 0.53392 0.46695 0.0
O61 O 0.21958 0.58572 0.35921 0.0
O62 O 0.28764 0.59213 0.41703 0.0
O63 O 0.27284 0.53523 0.31047 0.0
H64 H 0.24258 0.4718 0.42894 0.0
H65 H 0.26989 0.53814 0.59712 0.0
H66 H 0.26287 0.42587 0.50346 0.0
H67 H 0.28996 0.49108 0.66842 0.0
H68 H 0.14699 0.56662 0.18043 0.0
H69 H 0.16594 0.58762 0.43779 0.0
H70 H 0.20351 0.57519 0.22388 0.0
H71 H 0.11005 0.57919 0.39048 0.0
H72 H 0.18046 0.58978 0.67782 0.0
H73 H 0.21379 0.68191 0.5926 0.0
H74 H 0.1761 0.4622 0.19741 0.0
H75 H 0.13315 0.47145 0.40824 0.0
H76 H 0.3361 0.62918 0.37182 0.0
H77 H 0.28808 0.59124 0.5594 0.0
H78 H 0.37189 0.66171 0.45066 0.0
H79 H 0.32554 0.62365 0.63529 0.0
H80 H 0.32794 0.56881 0.32432 0.0
H81 H 0.27968 0.4938 0.20335 0.0
H82 H 0.37652 0.56199 0.24708 0.0
H83 H 0.32929 0.48824 0.1281 0.0
H84 H 0.35206 0.44377 0.39886 0.0
H85 H 0.38856 0.51483 0.54952 0.0
H86 H 0.313 0.68121 0.20615 0.0
H87 H 0.28701 0.60147 0.06645 0.0
Li88 Li 0.43029 0.75141 0.70165 0.0
Li89 Li 0.4717 0.73495 0.61356 0.0
Li90 Li 0.4711 0.79015 0.66411 0.0
Li91 Li 0.42948 0.77274 0.57812 0.0
C92 C 0.50402 0.75535 0.75578 0.0
N93 N 0.5578 0.77343 0.83516 0.0
C94 C 0.53532 0.7472 0.7322 0.0
C95 C 0.50006 0.7725 0.81995 0.0
C96 C 0.5622 0.75659 0.77308 0.0
C97 C 0.52756 0.78149 0.85923 0.0
C98 C 0.42398 0.69477 0.59394 0.0
C99 C 0.43562 0.65123 0.51083 0.0
N100 N 0.4299 0.62907 0.56368 0.0
C101 C 0.41796 0.67156 0.6473 0.0
C102 C 0.43241 0.68455 0.52486 0.0
C103 C 0.42109 0.63846 0.63092 0.0
C104 C 0.37207 0.73502 0.77922 0.0
N105 N 0.4052 0.73556 0.78099 0.0
C106 C 0.40543 0.7089 0.89511 0.0
C107 C 0.42197 0.72295 0.83748 0.0
C108 C 0.3713 0.70772 0.89452 0.0
C109 C 0.35449 0.72145 0.83625 0.0
H110 H 0.35931 0.74458 0.733 0.0
H111 H 0.44827 0.72311 0.83711 0.0
C112 C 0.51902 0.70335 0.52623 0.0
N113 N 0.5002 0.70024 0.58583 0.0
C114 C 0.54044 0.67842 0.50648 0.0
C115 C 0.52299 0.64765 0.61018 0.0
C116 C 0.50214 0.67332 0.62832 0.0
C117 C 0.54241 0.64994 0.54831 0.0
H118 H 0.51779 0.72539 0.49461 0.0
H119 H 0.4875 0.67184 0.67644 0.0
C120 C 0.398 0.80748 0.70962 0.0
N121 N 0.34524 0.82575 0.79258 0.0
C122 C 0.36737 0.81161 0.67817 0.0
C123 C 0.40186 0.8129 0.78313 0.0
C124 C 0.34101 0.82095 0.72101 0.0
C125 C 0.37482 0.82185 0.82426 0.0
C126 C 0.47921 0.79156 0.49824 0.0
C127 C 0.48535 0.82502 0.49431 0.0
C128 C 0.47362 0.77397 0.43526 0.0
C129 C 0.48565 0.84037 0.42735 0.0
C130 C 0.47402 0.79023 0.36937 0.0
N131 N 0.47998 0.82281 0.36681 0.0
C132 C 0.52985 0.8236 0.66409 0.0
C133 C 0.4897 0.84918 0.73631 0.0
C134 C 0.55259 0.84734 0.68218 0.0
N135 N 0.49922 0.82478 0.69158 0.0
C136 C 0.51177 0.87353 0.75597 0.0
C137 C 0.54378 0.87252 0.72935 0.0
H138 H 0.5366 0.80406 0.62807 0.0
H139 H 0.46512 0.84963 0.75704 0.0
C140 C 0.38744 0.76808 0.45498 0.0
N141 N 0.40357 0.78846 0.50005 0.0
C142 C 0.37119 0.78057 0.39483 0.0
C143 C 0.38836 0.83463 0.4292 0.0
C144 C 0.40368 0.82121 0.48914 0.0
C145 C 0.3721 0.81427 0.38041 0.0
H146 H 0.38756 0.74211 0.46518 0.0
H147 H 0.41657 0.83685 0.52611 0.0
O148 O 0.47744 0.74735 0.71533 0.0
O149 O 0.42267 0.7273 0.60979 0.0
O150 O 0.42407 0.79823 0.66862 0.0
O151 O 0.47806 0.77622 0.56344 0.0
H152 H 0.53887 0.73418 0.68239 0.0
H153 H 0.47601 0.77918 0.83872 0.0
H154 H 0.58658 0.75064 0.75527 0.0
H155 H 0.52486 0.79497 0.90871 0.0
H156 H 0.44257 0.643 0.45787 0.0
H157 H 0.41139 0.67899 0.70104 0.0
H158 H 0.43711 0.70218 0.48294 0.0
H159 H 0.41668 0.62024 0.67178 0.0
H160 H 0.41919 0.69872 0.9394 0.0
H161 H 0.32815 0.72075 0.83384 0.0
H162 H 0.55578 0.68173 0.45977 0.0
H163 H 0.52386 0.62622 0.64413 0.0
H164 H 0.36394 0.80754 0.62135 0.0
H165 H 0.42537 0.80976 0.80834 0.0
H166 H 0.31717 0.82427 0.6974 0.0
H167 H 0.37739 0.82587 0.88132 0.0
H168 H 0.48936 0.83913 0.54245 0.0
H169 H 0.46853 0.74814 0.43731 0.0
H170 H 0.49019 0.86628 0.42355 0.0
H171 H 0.46946 0.77697 0.32029 0.0
H172 H 0.57676 0.84614 0.65906 0.0
H173 H 0.50406 0.89265 0.79227 0.0
H174 H 0.35816 0.76401 0.36009 0.0
H175 H 0.38993 0.86068 0.42033 0.0
Li176 Li 0.29663 0.98212 0.84414 0.0
Li177 Li 0.27998 0.94012 0.93327 0.0
Li178 Li 0.25738 0.93954 0.80763 0.0
Li179 Li 0.23928 0.98027 0.89332 0.0
C180 C 0.33221 0.92676 0.80801 0.0
N181 N 0.39119 0.91318 0.74294 0.0
C182 C 0.35627 0.90948 0.84519 0.0
C183 C 0.33819 0.93722 0.73789 0.0
C184 C 0.38597 0.90295 0.81141 0.0
C185 C 0.36811 0.93002 0.70582 0.0
C186 C 0.29454 0.99495 1.00982 0.0
C187 C 0.29195 0.99365 0.13915 0.0
N188 N 0.32207 1.00727 0.14235 0.0
C189 C 0.32536 1.00919 0.01446 0.0
C190 C 0.27759 0.98736 0.07271 0.0
C191 C 0.33889 0.01514 0.08192 0.0
C192 C 0.32208 0.04076 0.7906 0.0
N193 N 0.33107 0.01121 0.8172 0.0
C194 C 0.38729 0.02637 0.81204 0.0
C195 C 0.36296 1.00379 0.82877 0.0
C196 C 0.37873 0.05687 0.78307 0.0
C197 C 0.34558 0.06391 0.77252 0.0
H198 H 0.29652 0.04644 0.78384 0.0
H199 H 0.36953 0.98072 0.85284 0.0
C200 C 0.27876 0.8877 0.0343 0.0
N201 N 0.29622 0.91377 0.01071 0.0
C202 C 0.2898 0.86918 0.09259 0.0
C203 C 0.33699 0.90409 0.09993 0.0
C204 C 0.3253 0.92161 0.04101 0.0
C205 C 0.319 0.87773 0.12647 0.0
H206 H 0.25612 0.88142 1.00822 0.0
H207 H 0.33935 0.94166 0.01976 0.0
C208 C 0.24428 0.98998 0.7226 0.0
N209 N 0.22434 0.9935 0.58105 0.0
C210 C 0.21265 0.9809 0.70349 0.0
C211 C 0.2658 1.00071 0.66943 0.0
C212 C 0.20304 0.98284 0.63173 0.0
C213 C 0.25524 1.0024 0.59827 0.0
C214 C 0.20436 0.93098 0.93378 0.0
C215 C 0.1759 0.93049 0.89266 0.0
C216 C 0.20211 0.93137 1.00859 0.0
C217 C 0.14568 0.931 0.9271 0.0
C218 C 0.17144 0.93188 0.04102 0.0
N219 N 0.14411 0.93182 0.99992 0.0
C220 C 0.21957 0.88944 0.74405 0.0
C221 C 0.25528 0.91553 0.66256 0.0
C222 C 0.20494 0.87222 0.68803 0.0
N223 N 0.24343 0.91154 0.73021 0.0
C224 C 0.2413 0.89893 0.60495 0.0
C225 C 0.21509 0.87774 0.61714 0.0
H226 H 0.21114 0.8859 0.79839 0.0
H227 H 0.27457 0.93269 0.65248 0.0
C228 C 0.20848 0.02786 0.98163 0.0
N229 N 0.20394 1.00835 0.92354 0.0
C230 C 0.1841 0.04949 1.00364 0.0
C231 C 0.15076 0.03104 0.90529 0.0
C232 C 0.17578 0.00979 0.8852 0.0
C233 C 0.15474 0.05125 0.96531 0.0
H234 H 0.23124 0.02712 0.01035 0.0
H235 H 0.17269 0.99469 0.83855 0.0
O236 O 0.30323 0.93387 0.84075 0.0
O237 O 0.28105 0.98863 0.9441 0.0
O238 O 0.25425 0.98798 0.79265 0.0
O239 O 0.23423 0.93164 0.90103 0.0
H240 H 0.35206 0.90124 0.89957 0.0
H241 H 0.32026 0.95144 0.70919 0.0
H242 H 0.40485 0.88969 0.83957 0.0
H243 H 0.37309 0.93806 0.65163 0.0
H244 H 0.27913 0.98773 0.18817 0.0
H245 H 0.33874 0.01558 0.96661 0.0
H246 H 0.25358 0.97676 0.07031 0.0
H247 H 0.36278 0.02603 0.08621 0.0
H248 H 0.41244 0.02029 0.82338 0.0
H249 H 0.33785 0.08713 0.75053 0.0
H250 H 0.27551 0.84877 0.11171 0.0
H251 H 0.35982 0.91103 0.1246 0.0
H252 H 0.19601 0.97142 0.74309 0.0
H253 H 0.29056 1.00722 0.68252 0.0
H254 H 0.17874 0.97557 0.61624 0.0
H255 H 0.27168 0.01059 0.55667 0.0
H256 H 0.17706 0.93049 0.83472 0.0
H257 H 0.22376 0.93135 0.04137 0.0
H258 H 0.12347 0.93098 0.89593 0.0
H259 H 0.16937 0.93236 0.09887 0.0
H260 H 0.185 0.8558 0.69969 0.0
H261 H 0.25035 0.90325 0.55119 0.0
H262 H 0.18823 0.06478 0.05006 0.0
H263 H 0.12885 0.0322 0.87307 0.0
Li264 Li 0.03372 0.7857 0.11552 0.0
Li265 Li 0.07607 0.77209 0.20404 0.0
Li266 Li 0.07538 0.74632 0.082 0.0
Li267 Li 0.03489 0.72942 0.1733 0.0
C268 C 0.08405 0.82353 0.07994 0.0
N269 N 0.08608 0.88603 0.02479 0.0
C270 C 0.0954 0.84924 0.12212 0.0
C271 C 0.07431 0.8295 1.00928 0.0
C272 C 0.09612 0.8807 0.09334 0.0
C273 C 0.07541 0.8613 0.98246 0.0
C274 C 0.0149 0.78102 0.2822 0.0
C275 C 0.99862 0.76627 0.40229 0.0
N276 N 0.98765 0.79719 0.41309 0.0
C277 C 1.00301 0.81252 0.29415 0.0
C278 C 0.0123 0.75758 0.33639 0.0
C279 C 0.98952 0.82028 0.36082 0.0
C280 C 0.97837 0.81013 0.04335 0.0
N281 N 1.00415 0.81913 0.08441 0.0
C282 C 0.9857 0.87453 0.08476 0.0
C283 C 1.00794 0.85056 0.10602 0.0
C284 C 0.95889 0.86604 0.04193 0.0
C285 C 0.95525 0.83322 0.0218 0.0
H286 H 0.9754 0.78485 0.02843 0.0
H287 H 0.02802 0.85701 0.1405 0.0
C288 C 0.1325 0.77759 0.29393 0.0
N289 N 0.10257 0.79024 0.27901 0.0
C290 C 0.15176 0.7912 0.34803 0.0
C291 C 0.1096 0.83126 0.36878 0.0
C292 C 0.09109 0.81676 0.31478 0.0
C293 C 0.1404 0.81854 0.38584 0.0
H294 H 0.14156 0.75705 0.26354 0.0
H295 H 0.0678 0.8271 0.30052 0.0
C296 C 0.02429 0.726 1.00795 0.0
N297 N 0.02069 0.69274 0.87942 0.0
C298 C 0.02128 0.69206 1.00756 0.0
C299 C 0.02508 0.74306 0.94302 0.0
C300 C 0.01957 0.67569 0.942 0.0
C301 C 0.02335 0.72579 0.8786 0.0
C302 C 0.09804 0.70467 0.22505 0.0
C303 C 0.11996 0.68093 0.20112 0.0
C304 C 0.09251 0.70834 0.2986 0.0
C305 C 0.1357 0.661 0.25116 0.0
C306 C 0.10858 0.68781 0.34694 0.0
N307 N 0.12969 0.66477 0.32242 0.0
C308 C 0.11558 0.74868 0.95577 0.0
C309 C 0.1016 0.69599 0.99781 0.0
C310 C 0.13151 0.73523 0.89629 0.0
N311 N 0.10065 0.72897 1.00443 0.0
C312 C 0.11703 0.68156 0.93913 0.0
C313 C 0.13179 0.70127 0.88683 0.0
H314 H 0.11467 0.77482 0.9624 0.0
H315 H 0.08964 0.68088 0.03738 0.0
C316 C 0.97608 0.69664 0.17693 0.0
N317 N 1.00669 0.69512 0.20444 0.0
C318 C 0.95314 0.67281 0.19406 0.0
C319 C 0.99332 0.64649 0.26911 0.0
C320 C 0.01569 0.67063 0.24961 0.0
C321 C 0.96159 0.64722 0.24071 0.0
H322 H 0.96959 0.71633 0.14097 0.0
H323 H 0.04008 0.66977 0.2709 0.0
O324 O 0.08231 0.79273 0.10785 0.0
O325 O 0.02793 0.77294 0.21696 0.0
O326 O 0.02696 0.74238 0.07153 0.0
O327 O 0.08325 0.72504 0.1767 0.0
H328 H 0.10333 0.84502 0.17664 0.0
H329 H 0.06554 0.80989 0.97589 0.0
H330 H 0.10459 0.90088 0.12555 0.0
H331 H 0.06765 0.86633 0.92811 0.0
H332 H 0.99658 0.74838 0.44476 0.0
H333 H 1.00446 0.83088 0.25266 0.0
H334 H 0.02046 0.73285 0.32762 0.0
H335 H 0.98051 0.84465 0.37096 0.0
H336 H 0.98943 0.89947 0.10185 0.0
H337 H 0.93439 0.82525 0.99106 0.0
H338 H 0.17551 0.78086 0.35929 0.0
H339 H 0.09986 0.85218 0.39706 0.0
H340 H 0.02083 0.67845 0.05731 0.0
H341 H 0.02716 0.76933 0.94238 0.0
H342 H 0.01752 0.6494 0.94087 0.0
H343 H 0.02415 0.73866 0.82794 0.0
H344 H 0.12504 0.67811 0.14454 0.0
H345 H 0.07636 0.72712 0.31821 0.0
H346 H 0.15288 0.64272 0.23331 0.0
H347 H 0.10448 0.69038 0.40398 0.0
H348 H 0.14274 0.7512 0.85716 0.0
H349 H 0.11725 0.65524 0.93445 0.0
H350 H 0.92909 0.67427 0.17046 0.0
H351 H 1.00072 0.62775 0.30669 0.0
Li352 Li 0.74189 0.08151 0.94323 0.0
Li353 Li 0.72562 0.04297 0.84948 0.0
Li354 Li 0.7785 0.03855 0.90345 0.0
Li355 Li 0.76777 0.08251 0.81937 0.0
C356 C 0.72876 1.00151 0.96505 0.0
N357 N 0.71346 0.93674 0.98862 0.0
C358 C 0.74001 0.9774 0.91805 0.0
C359 C 0.7096 0.99259 0.02387 0.0
C360 C 0.73204 0.94483 0.93092 0.0
C361 C 0.70219 0.95973 0.03495 0.0
C362 C 0.69029 0.10087 0.83327 0.0
C363 C 0.64898 0.11922 0.75031 0.0
N364 N 0.62712 0.12061 0.80506 0.0
C365 C 0.66748 0.10286 0.8888 0.0
C366 C 0.68104 0.10944 0.76352 0.0
C367 C 0.63564 0.11274 0.87341 0.0
C368 C 0.73211 0.14064 0.01945 0.0
N369 N 0.72804 0.10776 0.02174 0.0
C370 C 0.70285 0.11142 0.13701 0.0
C371 C 0.71394 0.09296 0.07905 0.0
C372 C 0.70636 0.14549 0.1361 0.0
C373 C 0.72147 0.1601 0.07651 0.0
H374 H 0.74358 0.15172 0.97322 0.0
H375 H 0.71109 0.06681 0.07945 0.0
C376 C 0.69471 0.99288 0.76805 0.0
N377 N 0.68958 0.01687 0.81715 0.0
C378 C 0.67032 0.97037 0.75272 0.0
C379 C 0.63538 0.99753 0.83818 0.0
C380 C 0.66059 0.01947 0.85222 0.0
C381 C 0.64045 0.97221 0.78894 0.0
H382 H 0.71822 0.98994 0.74324 0.0
H383 H 0.65755 0.0375 0.8938 0.0
C384 C 0.81623 0.08255 0.95542 0.0
N385 N 0.87192 0.07061 0.03419 0.0
C386 C 0.84658 0.08199 0.92156 0.0
C387 C 0.81419 0.07755 0.02946 0.0
C388 C 0.87443 0.07563 0.96225 0.0
C389 C 0.84266 0.07159 0.06837 0.0
C390 C 0.76899 0.02894 0.72923 0.0
C391 C 0.79108 1.0062 0.70166 0.0
C392 C 0.74793 0.04543 0.68279 0.0
C393 C 0.79175 1.00039 0.62784 0.0
C394 C 0.74939 0.03901 0.6093 0.0
N395 N 0.77109 0.0168 0.58357 0.0
C396 C 0.81093 0.99285 0.99666 0.0
C397 C 0.83735 1.00407 0.88638 0.0
C398 C 0.83494 0.97003 0.01468 0.0
N399 N 0.81226 1.00886 0.93278 0.0
C400 C 0.86216 0.98194 0.90279 0.0
C401 C 0.86079 0.96395 0.96696 0.0
H402 H 0.791 0.99744 0.03322 0.0
H403 H 0.83817 0.01766 0.83667 0.0
C404 C 0.77068 0.13517 0.71866 0.0
N405 N 0.78624 0.10846 0.74532 0.0
C406 C 0.78418 0.15253 0.66123 0.0
C407 C 0.82963 0.11491 0.66118 0.0
C408 C 0.8152 0.09821 0.71807 0.0
C409 C 0.81397 0.14228 0.6317 0.0
H410 H 0.74773 0.14285 0.74162 0.0
H411 H 0.82683 0.0767 0.73996 0.0
O412 O 0.73543 0.03376 0.95251 0.0
O413 O 0.72176 0.09176 0.84756 0.0
O414 O 0.78847 0.08643 0.9159 0.0
O415 O 0.76833 0.03523 0.80125 0.0
H416 H 0.75463 0.98364 0.87187 0.0
H417 H 0.70033 0.01082 0.06044 0.0
H418 H 0.74056 0.92599 0.89489 0.0
H419 H 0.68738 0.95253 0.08027 0.0
H420 H 0.64152 0.12592 0.69662 0.0
H421 H 0.67411 0.09644 0.94311 0.0
H422 H 0.69842 0.10884 0.71996 0.0
H423 H 0.61771 0.11415 0.91584 0.0
H424 H 0.69118 0.0992 0.18166 0.0
H425 H 0.72522 0.1862 0.07424 0.0
H426 H 0.67507 0.95114 0.71431 0.0
H427 H 0.61278 0.99938 0.86789 0.0
H428 H 0.84853 0.0857 0.86426 0.0
H429 H 0.79081 0.07769 0.05633 0.0
H430 H 0.89805 0.0746 0.93659 0.0
H431 H 0.84146 0.06744 0.12563 0.0
H432 H 0.80743 0.99306 0.73689 0.0
H433 H 0.73066 0.06293 0.70343 0.0
H434 H 0.80871 0.98283 0.60576 0.0
H435 H 0.73326 0.05166 0.57274 0.0
H436 H 0.83295 0.95685 0.06487 0.0
H437 H 0.88222 0.97905 0.86562 0.0
H438 H 0.77162 0.17378 0.64045 0.0
H439 H 0.85253 0.10617 0.63954 0.0
Li440 Li 0.94039 0.24254 0.19477 0.0
Li441 Li 0.9811 0.22951 0.10756 0.0
Li442 Li 0.98219 0.28288 0.15649 0.0
Li443 Li 0.93897 0.26589 0.06702 0.0
C444 C 0.9945 0.24755 0.2801 0.0
N445 N 1.00633 0.2603 0.4233 0.0
C446 C 0.01572 0.22765 0.31928 0.0
C447 C 0.97923 0.27388 0.31392 0.0
C448 C 0.0214 0.23451 0.39158 0.0
C449 C 0.98556 0.27995 0.38628 0.0
C450 C 0.9305 0.18932 0.07824 0.0
C451 C 0.91655 0.15048 0.98654 0.0
N452 N 0.9263 0.12584 0.03057 0.0
C453 C 0.93991 0.16363 0.12302 0.0
C454 C 0.91841 0.18278 1.00973 0.0
C455 C 0.93773 0.13167 0.09777 0.0
C456 C 0.88452 0.23912 0.28661 0.0
N457 N 0.91453 0.22664 0.2722 0.0
C458 C 0.9101 0.18944 0.37041 0.0
C459 C 0.92736 0.20211 0.31235 0.0
C460 C 0.87922 0.20206 0.38746 0.0
C461 C 0.86641 0.22728 0.34469 0.0
H462 H 0.87468 0.25832 0.25318 0.0
H463 H 0.9511 0.19233 0.29922 0.0
C464 C 0.03744 0.1912 0.11932 0.0
N465 N 0.0104 0.19507 0.07805 0.0
C466 C 0.06064 0.16748 0.10236 0.0
C467 C 0.02803 0.15212 1.00015 0.0
C468 C 1.00555 0.17632 0.01882 0.0
C469 C 0.05594 0.14742 0.0424 0.0
H470 H 0.04121 0.20687 0.16507 0.0
H471 H 0.98461 0.18047 0.9851 0.0
C472 C 0.9188 0.31785 0.17109 0.0
N473 N 0.88661 0.37667 0.18641 0.0
C474 C 0.91778 0.34006 0.11416 0.0
C475 C 0.90359 0.32567 0.23597 0.0
C476 C 0.90139 0.36967 0.12298 0.0
C477 C 0.88739 0.3555 0.24261 0.0
C478 C 0.01042 0.26201 1.00728 0.0
C479 C 0.04314 0.2665 0.02518 0.0
C480 C 1.00236 0.24702 0.94237 0.0
C481 C 0.06731 0.25574 0.97796 0.0
C482 C 0.02725 0.23669 0.89651 0.0
N483 N 0.05893 0.24118 0.91515 0.0
C484 C 0.04027 0.30926 0.21005 0.0
C485 C 1.00072 0.34958 0.18309 0.0
C486 C 0.06268 0.33317 0.22973 0.0
N487 N 0.01001 0.31777 0.18686 0.0
C488 C 0.02235 0.3743 0.20241 0.0
C489 C 0.05394 0.36622 0.2252 0.0
H490 H 0.04722 0.28382 0.21209 0.0
H491 H 0.97673 0.35594 0.1644 0.0
C492 C 0.8784 0.28155 1.00038 0.0
N493 N 0.91132 0.28154 0.99227 0.0
C494 C 0.85845 0.29589 0.94815 0.0
C495 C 0.90667 0.3091 0.87978 0.0
C496 C 0.92562 0.29496 0.93355 0.0
C497 C 0.87262 0.31005 0.88689 0.0
H498 H 0.86773 0.27131 0.04845 0.0
H499 H 0.95184 0.29557 0.92935 0.0
O500 O 0.98853 0.24078 0.20937 0.0
O501 O 0.933 0.22078 0.10133 0.0
O502 O 0.93358 0.28814 0.16266 0.0
O503 O 0.98643 0.27172 0.0536 0.0
H504 H 0.02756 0.207 0.29421 0.0
H505 H 0.96278 0.28958 0.2848 0.0
H506 H 0.03775 0.21928 0.4225 0.0
H507 H 0.97394 0.30028 0.413 0.0
H508 H 0.90748 0.14499 0.93345 0.0
H509 H 0.94935 0.16837 0.17613 0.0
H510 H 0.9109 0.20248 0.97467 0.0
H511 H 0.94526 0.11152 0.13144 0.0
H512 H 0.92073 0.16975 0.4014 0.0
H513 H 0.84291 0.23803 0.35652 0.0
H514 H 0.08197 0.16473 0.13601 0.0
H515 H 0.02397 0.1377 0.95238 0.0
H516 H 0.92989 0.33473 0.06403 0.0
H517 H 0.90423 0.30889 0.28076 0.0
H518 H 0.90046 0.38709 0.07941 0.0
H519 H 0.87538 0.36179 0.2924 0.0
H520 H 0.04982 0.27794 0.07521 0.0
H521 H 0.97719 0.24272 0.92826 0.0
H522 H 0.09274 0.25892 0.99132 0.0
H523 H 0.02137 0.22483 0.84639 0.0
H524 H 0.08685 0.32591 0.24682 0.0
H525 H 0.01441 0.39947 0.19956 0.0
H526 H 0.83239 0.29683 0.95684 0.0
H527 H 0.91864 0.31967 0.8335 0.0
Li528 Li 0.77895 0.47856 0.37654 0.0
Li529 Li 0.76137 0.43793 0.46565 0.0
Li530 Li 0.7427 0.4351 0.34091 0.0
Li531 Li 0.72278 0.47761 0.42228 0.0
C532 C 0.82004 0.42983 0.36197 0.0
N533 N 0.88602 0.43221 0.33319 0.0
C534 C 0.84258 0.42218 0.4156 0.0
C535 C 0.83105 0.43824 0.29342 0.0
C536 C 0.87584 0.42347 0.39994 0.0
C537 C 0.8645 0.43959 0.28013 0.0
C538 C 0.75503 0.51299 0.51284 0.0
C539 C 0.7265 0.53905 0.61042 0.0
N540 N 0.73427 0.5687 0.58263 0.0
C541 C 0.76278 0.54373 0.48531 0.0
C542 C 0.7368 0.5106 0.576 0.0
C543 C 0.75207 0.5716 0.52139 0.0
C544 C 0.80926 0.52785 0.29281 0.0
N545 N 0.81358 0.50727 0.34929 0.0
C546 C 0.86649 0.52936 0.37157 0.0
C547 C 0.84129 0.50795 0.38923 0.0
C548 C 0.86269 0.55079 0.31344 0.0
C549 C 0.83361 0.55002 0.27402 0.0
H550 H 0.78668 0.52745 0.26311 0.0
H551 H 0.8437 0.49205 0.43522 0.0
C552 C 0.78016 0.38051 0.54111 0.0
N553 N 0.77574 0.41328 0.54675 0.0
C554 C 0.79272 0.36269 0.59887 0.0
C555 C 0.79556 0.41262 0.66723 0.0
C556 C 0.78305 0.42945 0.6082 0.0
C557 C 0.80084 0.37884 0.66282 0.0
H558 H 0.77468 0.36836 0.49111 0.0
H559 H 0.77993 0.45556 0.61088 0.0
C560 C 0.72417 0.48235 0.25615 0.0
N561 N 0.69511 0.47795 0.12289 0.0
C562 C 0.69029 0.48405 0.2499 0.0
C563 C 0.74328 0.47857 0.19461 0.0
C564 C 0.67606 0.4818 0.18202 0.0
C565 C 0.72812 0.4763 0.12774 0.0
C566 C 0.70651 0.40473 0.47193 0.0
C567 C 0.7041 0.37337 0.44317 0.0
C568 C 0.69976 0.40973 0.54463 0.0
C569 C 0.69489 0.34752 0.48765 0.0
C570 C 0.69101 0.38318 0.5875 0.0
N571 N 0.68867 0.35291 0.55832 0.0
C572 C 0.7519 0.39506 0.21655 0.0
C573 C 0.69728 0.40267 0.25437 0.0
C574 C 0.74152 0.37751 0.15652 0.0
N575 N 0.72975 0.40758 0.26334 0.0
C576 C 0.68586 0.38527 0.19532 0.0
C577 C 0.70805 0.37284 0.14488 0.0
H578 H 0.77758 0.39919 0.22508 0.0
H579 H 0.68022 0.413 0.29235 0.0
C580 C 0.68618 0.53482 0.40966 0.0
N581 N 0.68712 0.50577 0.44481 0.0
C582 C 0.66163 0.5574 0.42444 0.0
C583 C 0.63956 0.51997 0.5121 0.0
C584 C 0.66437 0.49787 0.49494 0.0
C585 C 0.63799 0.55007 0.47631 0.0
H586 H 0.70478 0.54055 0.37054 0.0
H587 H 0.66569 0.47465 0.52218 0.0
O588 O 0.7874 0.42966 0.37681 0.0
O589 O 0.76438 0.48541 0.47703 0.0
O590 O 0.7385 0.48343 0.32234 0.0
O591 O 0.71544 0.43039 0.4292 0.0
H592 H 0.83454 0.41565 0.46896 0.0
H593 H 0.81397 0.44445 0.25142 0.0
H594 H 0.89357 0.41774 0.44099 0.0
H595 H 0.87336 0.44655 0.22765 0.0
H596 H 0.71217 0.53755 0.65903 0.0
H597 H 0.77658 0.54609 0.43618 0.0
H598 H 0.73014 0.48703 0.59752 0.0
H599 H 0.75777 0.59554 0.50051 0.0
H600 H 0.88837 0.52972 0.40397 0.0
H601 H 0.82979 0.5664 0.22916 0.0
H602 H 0.79718 0.33682 0.59255 0.0
H603 H 0.8016 0.426 0.71547 0.0
H604 H 0.67509 0.48655 0.297 0.0
H605 H 0.76951 0.47691 0.19852 0.0
H606 H 0.64987 0.48289 0.17642 0.0
H607 H 0.74259 0.47309 0.07974 0.0
H608 H 0.70938 0.36896 0.38718 0.0
H609 H 0.70188 0.43373 0.56804 0.0
H610 H 0.69282 0.32314 0.46605 0.0
H611 H 0.68605 0.38665 0.64397 0.0
H612 H 0.75942 0.36784 0.11947 0.0
H613 H 0.65986 0.38235 0.18809 0.0
H614 H 0.66144 0.58059 0.39658 0.0
H615 H 0.62171 0.51358 0.55251 0.0
Li616 Li 0.54868 0.29735 0.60461 0.0
Li617 Li 0.58869 0.27838 0.69425 0.0
Li618 Li 0.58989 0.25785 0.57072 0.0
Li619 Li 0.5467 0.24133 0.65426 0.0
C620 C 0.6006 0.33518 0.58762 0.0
N621 N 0.60631 0.40072 0.55553 0.0
C622 C 0.6076 0.3576 0.64182 0.0
C623 C 0.59657 0.34608 0.51709 0.0
C624 C 0.61026 0.39065 0.62454 0.0
C625 C 0.59961 0.3793 0.50194 0.0
C626 C 0.51443 0.2775 0.74623 0.0
C627 C 0.48895 0.25076 0.84691 0.0
N628 N 0.45957 0.26272 0.82564 0.0
C629 C 0.48401 0.28964 0.7255 0.0
C630 C 0.51699 0.25803 0.8076 0.0
C631 C 0.45656 0.28186 0.76636 0.0
C632 C 0.50039 0.32854 0.52041 0.0
N633 N 0.52155 0.33312 0.57552 0.0
C634 C 0.49937 0.38624 0.59768 0.0
C635 C 0.52144 0.36126 0.61411 0.0
C636 C 0.47692 0.38195 0.54171 0.0
C637 C 0.47776 0.35272 0.50257 0.0
H638 H 0.50039 0.30569 0.49166 0.0
H639 H 0.53782 0.36392 0.6591 0.0
C640 C 0.64715 0.29239 0.77193 0.0
N641 N 0.61404 0.29189 0.77476 0.0
C642 C 0.66517 0.30316 0.83098 0.0
C643 C 0.61467 0.31319 0.89394 0.0
C644 C 0.5977 0.30205 0.83406 0.0
C645 C 0.64886 0.31402 0.89287 0.0
H646 H 0.65955 0.28462 0.72369 0.0
H647 H 0.5714 0.30204 0.8345 0.0
C648 C 0.54083 0.24145 0.48814 0.0
N649 N 0.54182 0.21113 0.35595 0.0
C650 C 0.53446 0.20809 0.48294 0.0
C651 C 0.54746 0.25946 0.42612 0.0
C652 C 0.53508 0.1932 0.41558 0.0
C653 C 0.54796 0.24365 0.3598 0.0
C654 C 0.61869 0.22099 0.70227 0.0
C655 C 0.64993 0.21793 0.67312 0.0
C656 C 0.6134 0.21294 0.77424 0.0
C657 C 0.67541 0.20692 0.71662 0.0
C658 C 0.63955 0.2022 0.81606 0.0
N659 N 0.66974 0.19941 0.78661 0.0
C660 C 0.63256 0.26133 0.44827 0.0
C661 C 0.61708 0.20851 0.48691 0.0
C662 C 0.64962 0.24811 0.39011 0.0
N663 N 0.61637 0.24145 0.49451 0.0
C664 C 0.63376 0.19429 0.42973 0.0
C665 C 0.64996 0.21416 0.37984 0.0
H666 H 0.6319 0.28742 0.45595 0.0
H667 H 0.60405 0.19331 0.52467 0.0
C668 C 0.48578 0.21009 0.66206 0.0
N669 N 0.51773 0.20675 0.67978 0.0
C670 C 0.4635 0.18566 0.67944 0.0
C671 C 0.50752 0.15428 0.73121 0.0
C672 C 0.52895 0.17949 0.71338 0.0
C673 C 0.47433 0.15725 0.71418 0.0
H674 H 0.47763 0.23179 0.63428 0.0
H675 H 0.55452 0.17726 0.72612 0.0
O676 O 0.59783 0.30272 0.60346 0.0
O677 O 0.54151 0.28425 0.70614 0.0
O678 O 0.54128 0.25628 0.55377 0.0
O679 O 0.59342 0.23176 0.66057 0.0
H680 H 0.61078 0.34964 0.6967 0.0
H681 H 0.59089 0.3291 0.47458 0.0
H682 H 0.61563 0.40828 0.66595 0.0
H683 H 0.59655 0.38807 0.4476 0.0
H684 H 0.49054 0.23554 0.89423 0.0
H685 H 0.48154 0.30463 0.67805 0.0
H686 H 0.54032 0.24833 0.82419 0.0
H687 H 0.43284 0.29096 0.75078 0.0
H688 H 0.49906 0.40813 0.63009 0.0
H689 H 0.46077 0.34846 0.45918 0.0
H690 H 0.69151 0.30297 0.82821 0.0
H691 H 0.60111 0.32175 0.94013 0.0
H692 H 0.52945 0.19377 0.53046 0.0
H693 H 0.55264 0.28527 0.42935 0.0
H694 H 0.53037 0.16736 0.41074 0.0
H695 H 0.55334 0.25721 0.31143 0.0
H696 H 0.65452 0.22415 0.61764 0.0
H697 H 0.58941 0.21526 0.79774 0.0
H698 H 0.69971 0.20443 0.6948 0.0
H699 H 0.63583 0.19601 0.8719 0.0
H700 H 0.66234 0.26421 0.35358 0.0
H701 H 0.63332 0.16804 0.42358 0.0
H702 H 0.43813 0.18872 0.66499 0.0
H703 H 0.51673 0.13286 0.75861 0.0
C704 C 0.32925 0.70745 0.99242 0.0
C705 C 0.3535 0.69097 0.95318 0.0
C706 C 0.31287 0.69205 0.04935 0.0
C707 C 0.31978 0.65948 0.06796 0.0
H708 H 0.32329 0.73255 0.97972 0.0
H709 H 0.29451 0.7056 0.07864 0.0
S710 S 0.38104 0.60573 0.9814 0.0
N711 N 0.38345 0.64038 0.9365 0.0
N712 N 0.35278 0.61149 0.04317 0.0
C713 C 0.34385 0.64277 0.02877 0.0
C714 C 0.36069 0.6585 0.97149 0.0
C715 C 0.33965 0.85841 0.31977 0.0
C716 C 0.35663 0.82855 0.31496 0.0
C717 C 0.32705 0.87386 0.2586 0.0
C718 C 0.33052 0.85983 0.19043 0.0
H719 H 0.33627 0.87017 0.37123 0.0
H720 H 0.31475 0.89711 0.26451 0.0
S721 S 0.3724 0.78229 0.14705 0.0
N722 N 0.37631 0.78585 0.2349 0.0
N723 N 0.35143 0.81457 0.12064 0.0
C724 C 0.34661 0.82977 0.1845 0.0
C725 C 0.35988 0.81415 0.2466 0.0
C726 C 0.17319 0.8148 0.49916 0.0
C727 C 0.16056 0.83383 0.44272 0.0
C728 C 0.191 0.82907 0.55521 0.0
C729 C 0.19726 0.86279 0.55617 0.0
H730 H 0.16867 0.7888 0.5008 0.0
H731 H 0.19995 0.81362 0.5981 0.0
S732 S 0.17028 0.92315 0.42003 0.0
N733 N 0.15622 0.88798 0.3904 0.0
N734 N 0.18946 0.91478 0.49569 0.0
C735 C 0.18517 0.88197 0.49947 0.0
C736 C 0.16686 0.86751 0.44283 0.0
C737 C 0.17906 0.69408 0.80255 0.0
C738 C 0.14691 0.68631 0.8223 0.0
C739 C 0.19416 0.67891 0.74367 0.0
C740 C 0.17761 0.65549 0.70239 0.0
H741 H 0.1929 0.71142 0.8339 0.0
H742 H 0.21922 0.68496 0.73146 0.0
S743 S 0.09166 0.62985 0.72634 0.0
N744 N 0.09812 0.65588 0.79227 0.0
N745 N 0.12632 0.62755 0.68162 0.0
C746 C 0.14505 0.64846 0.7201 0.0
C747 C 0.12976 0.66381 0.77999 0.0
C748 C 0.86184 0.16928 0.57427 0.0
C749 C 0.82903 0.15977 0.57038 0.0
C750 C 0.8775 0.18368 0.51551 0.0
C751 C 0.86105 0.18895 0.45025 0.0
H752 H 0.87561 0.16534 0.6231 0.0
H753 H 0.90284 0.19051 0.52111 0.0
S754 S 0.77497 0.16769 0.41198 0.0
N755 N 0.7805 0.1565 0.49626 0.0
N756 N 0.81003 0.18318 0.3852 0.0
C757 C 0.82803 0.17998 0.44597 0.0
C758 C 0.81201 0.16547 0.50614 0.0
C759 C 0.86303 0.35791 0.80621 0.0
C760 C 0.85262 0.3274 0.83212 0.0
C761 C 0.8458 0.37445 0.75254 0.0
C762 C 0.81734 0.36127 0.72246 0.0
H763 H 0.88482 0.36916 0.82747 0.0
H764 H 0.8553 0.3975 0.73339 0.0
S765 S 0.77857 0.28301 0.77362 0.0
N766 N 0.81141 0.285 0.82458 0.0
N767 N 0.7785 0.31665 0.72483 0.0
C768 C 0.80613 0.33117 0.74886 0.0
C769 C 0.82378 0.31419 0.80357 0.0
C770 C 0.67194 0.33162 0.08633 0.0
C771 C 0.69589 0.3559 0.07979 0.0
C772 C 0.65776 0.31741 0.02562 0.0
C773 C 0.66689 0.32697 0.95588 0.0
H774 H 0.66375 0.32383 0.13889 0.0
H775 H 0.63911 0.29912 0.03337 0.0
S776 S 0.72858 0.38957 0.90954 0.0
N777 N 0.7284 0.38871 0.99811 0.0
N778 N 0.70165 0.36212 0.88393 0.0
C779 C 0.69145 0.35062 0.94854 0.0
C780 C 0.70595 0.36506 0.01048 0.0
C781 C 0.70045 0.15538 0.26811 0.0
C782 C 0.694 0.16531 0.19719 0.0
C783 C 0.68692 0.17193 0.32677 0.0
C784 C 0.66646 0.19914 0.31697 0.0
H785 H 0.71583 0.13439 0.27839 0.0
H786 H 0.69224 0.1631 0.38032 0.0
S787 S 0.64177 0.23503 0.14238 0.0
N788 N 0.66579 0.20424 0.12055 0.0
N789 N 0.64048 0.2354 0.23092 0.0
C790 C 0.66042 0.20986 0.24648 0.0
C791 C 0.67416 0.19295 0.18662 0.0
C792 C 0.39392 0.42009 0.50739 0.0
C793 C 0.40107 0.45323 0.49544 0.0
C794 C 0.41857 0.39739 0.52244 0.0
C795 C 0.45141 0.40685 0.52663 0.0
H796 H 0.36899 0.41159 0.5053 0.0
H797 H 0.41181 0.37219 0.53139 0.0
S798 S 0.48347 0.49027 0.49735 0.0
N799 N 0.44369 0.49415 0.48703 0.0
N800 N 0.48995 0.45145 0.51643 0.0
C801 C 0.45898 0.43989 0.51544 0.0
C802 C 0.43385 0.46306 0.49965 0.0
C803 C 0.5835 0.95517 0.75832 0.0
C804 C 0.61548 0.94668 0.77801 0.0
C805 C 0.56014 0.93107 0.74421 0.0
C806 C 0.56797 0.89771 0.74962 0.0
H807 H 0.57677 0.98057 0.75199 0.0
H808 H 0.53606 0.93858 0.72704 0.0
S809 S 0.64704 0.86306 0.80911 0.0
N810 N 0.65292 0.90287 0.80868 0.0
N811 N 0.60904 0.85764 0.78288 0.0
C812 C 0.5995 0.88904 0.77225 0.0
C813 C 0.62323 0.9135 0.78627 0.0
C814 C 0.11367 0.13085 0.01865 0.0
C815 C 0.08057 0.12233 0.02316 0.0
C816 C 0.13744 0.10769 1.00035 0.0
C817 C 0.12904 0.07509 0.98603 0.0
H818 H 0.12122 0.15574 0.02836 0.0
H819 H 0.16255 0.11552 0.99629 0.0
S820 S 0.04605 0.03978 0.99648 0.0
N821 N 0.04076 0.07876 0.01546 0.0
N822 N 0.08544 0.03512 0.98158 0.0
C823 C 0.09606 0.06615 0.99146 0.0
C824 C 0.07185 0.08978 1.00988 0.0
C825 C 0.90478 0.6313 0.2759 0.0
C826 C 0.93706 0.62194 0.26016 0.0
C827 C 0.88092 0.60813 0.29279 0.0
C828 C 0.88845 0.57472 0.29544 0.0
H829 H 0.89789 0.65681 0.27569 0.0
H830 H 0.85645 0.61646 0.30467 0.0
S831 S 0.96846 0.53695 0.25513 0.0
N832 N 0.97469 0.57647 0.24514 0.0
N833 N 0.92992 0.53312 0.27903 0.0
C834 C 0.92048 0.5649 0.28002 0.0
C835 C 0.94476 0.58844 0.26195 0.0
C836 C 0.39912 0.1145 0.78638 0.0
C837 C 0.40396 0.08178 0.76599 0.0
C838 C 0.42206 0.13863 0.76979 0.0
C839 C 0.45089 0.131 0.7326 0.0
H840 H 0.37748 0.12153 0.81586 0.0
H841 H 0.41729 0.16346 0.78664 0.0
S842 S 0.47465 0.04956 0.66372 0.0
N843 N 0.43935 0.04338 0.70396 0.0
N844 N 0.48267 0.08871 0.67389 0.0
C845 C 0.45615 0.09846 0.71198 0.0
C846 C 0.43268 0.07387 0.72842 0.0
C847 C 0.89934 0.93724 0.05379 0.0
C848 C 0.88609 0.939 0.98425 0.0
C849 C 0.92292 0.9138 0.07168 0.0
C850 C 0.93432 0.89111 0.0208 0.0
H851 H 0.89156 0.95426 0.09479 0.0
H852 H 0.93197 0.91319 0.12624 0.0
S853 S 0.90773 0.88539 0.83092 0.0
N854 N 0.88579 0.91552 0.86444 0.0
N855 N 0.93114 0.87253 0.89716 0.0
C856 C 0.9215 0.89277 0.95086 0.0
C857 C 0.89725 0.91645 0.93279 0.0
C858 C 0.0959 0.38966 0.30779 0.0
C859 C 0.0779 0.39196 0.24376 0.0
C860 C 0.11915 0.41323 0.32586 0.0
C861 C 0.12551 0.43985 0.2803 0.0
H862 H 0.09189 0.36953 0.34439 0.0
H863 H 0.13264 0.4103 0.37539 0.0
S864 S 0.08485 0.45735 0.1068 0.0
N865 N 0.06807 0.42304 0.13463 0.0
N866 N 0.11139 0.4676 0.16927 0.0
C867 C 0.10754 0.44259 0.21639 0.0
C868 C 0.08379 0.41864 0.19805 0.0
C869 C 0.58548 0.60919 0.58222 0.0
C870 C 0.5655 0.62331 0.52911 0.0
C871 C 0.60839 0.58499 0.56501 0.0
C872 C 0.6123 0.57419 0.49401 0.0
H873 H 0.58396 0.61744 0.6373 0.0
H874 H 0.62373 0.57526 0.60723 0.0
S875 S 0.56395 0.60064 0.33643 0.0
N876 N 0.54948 0.62262 0.40347 0.0
N877 N 0.59306 0.57768 0.37112 0.0
C878 C 0.59204 0.58744 0.44072 0.0
C879 C 0.56852 0.61186 0.45825 0.0
loop_
_geom_bond_atom_site_label_1
_geom_bond_atom_site_label_2
_geom_bond_distance
_geom_bond_site_symmetry_2
_ccdc_geom_bond_type
Li0 N17 1.990 . S
Li0 O60 1.956 . S
Li0 O61 1.970 . S
Li0 O62 1.961 . S
Li1 N25 1.990 . S
Li1 O60 1.970 . S
Li1 O61 1.956 . S
Li1 O63 1.961 . S
Li2 N47 1.990 . S
Li2 O60 1.961 . S
Li2 O62 1.956 . S
Li2 O63 1.970 . S
Li3 N53 1.990 . S
Li3 O61 1.961 . S
Li3 O62 1.970 . S
Li3 O63 1.956 . S
C4 C6 1.348 . S
C4 C7 1.356 . S
C4 O60 1.325 . S
N5 C8 1.314 . S
N5 C9 1.279 . S
C6 C4 1.348 . S
C6 C8 1.353 . S
C6 H64 0.929 . S
C7 C4 1.356 . S
C7 C9 1.358 . S
C7 H65 0.930 . S
C8 N5 1.314 . S
C8 C6 1.353 . S
C8 H66 0.930 . S
C9 N5 1.279 . S
C9 C7 1.358 . S
C9 H67 0.930 . S
C10 C13 1.348 . S
C10 C14 1.356 . S
C10 O61 1.325 . S
C11 N12 1.279 . S
C11 C14 1.358 . S
C11 H68 0.930 . S
N12 C11 1.279 . S
N12 C15 1.314 . S
C13 C10 1.348 . S
C13 C15 1.353 . S
C13 H69 0.929 . S
C14 C10 1.356 . S
C14 C11 1.358 . S
C14 H70 0.930 . S
C15 N12 1.314 . S
C15 C13 1.353 . S
C15 H71 0.930 . S
C16 N17 1.314 . S
C16 C21 1.353 . S
C16 H22 0.930 . S
N17 Li0 1.990 . S
N17 C16 1.314 . S
N17 C19 1.279 . S
C18 C19 1.358 . S
C18 C20 1.356 . S
C18 H72 0.930 . S
C19 N17 1.279 . S
C19 C18 1.358 . S
C19 H23 0.930 . S
C20 C18 1.356 . S
C20 C21 1.348 . S
C21 C16 1.353 . S
C21 C20 1.348 . S
C21 H73 0.929 . S
H22 C16 0.930 . S
H23 C19 0.930 . S
C24 N25 1.314 . S
C24 C26 1.353 . S
C24 H30 0.930 . S
N25 Li1 1.990 . S
N25 C24 1.314 . S
N25 C28 1.279 . S
C26 C24 1.353 . S
C26 C29 1.348 . S
C26 H74 0.929 . S
C27 C28 1.358 . S
C27 C29 1.356 . S
C27 H75 0.930 . S
C28 N25 1.279 . S
C28 C27 1.358 . S
C28 H31 0.930 . S
C29 C26 1.348 . S
C29 C27 1.356 . S
H30 C24 0.930 . S
H31 C28 0.930 . S
C32 C34 1.348 . S
C32 C35 1.356 . S
C32 O62 1.325 . S
N33 C36 1.314 . S
N33 C37 1.279 . S
C34 C32 1.348 . S
C34 C36 1.353 . S
C34 H76 0.929 . S
C35 C32 1.356 . S
C35 C37 1.358 . S
C35 H77 0.930 . S
C36 N33 1.314 . S
C36 C34 1.353 . S
C36 H78 0.930 . S
C37 N33 1.279 . S
C37 C35 1.358 . S
C37 H79 0.930 . S
C38 C39 1.348 . S
C38 C40 1.356 . S
C38 O63 1.325 . S
C39 C38 1.348 . S
C39 C41 1.353 . S
C39 H80 0.929 . S
C40 C38 1.356 . S
C40 C42 1.358 . S
C40 H81 0.930 . S
C41 C39 1.353 . S
C41 N43 1.314 . S
C41 H82 0.930 . S
C42 C40 1.358 . S
C42 N43 1.279 . S
C42 H83 0.930 . S
N43 C41 1.314 . S
N43 C42 1.279 . S
C44 C46 1.353 . S
C44 N47 1.314 . S
C44 H50 0.930 . S
C45 N47 1.279 . S
C45 C48 1.358 . S
C45 H51 0.930 . S
C46 C44 1.353 . S
C46 C49 1.348 . S
C46 H84 0.929 . S
N47 Li2 1.990 . S
N47 C44 1.314 . S
N47 C45 1.279 . S
C48 C45 1.358 . S
C48 C49 1.356 . S
C48 H85 0.930 . S
C49 C46 1.348 . S
C49 C48 1.356 . S
H50 C44 0.930 . S
H51 C45 0.930 . S
C52 N53 1.314 . S
C52 C54 1.353 . S
C52 H58 0.930 . S
N53 Li3 1.990 . S
N53 C52 1.314 . S
N53 C56 1.279 . S
C54 C52 1.353 . S
C54 C57 1.348 . S
C54 H86 0.929 . S
C55 C56 1.358 . S
C55 C57 1.356 . S
C55 H87 0.930 . S
C56 N53 1.279 . S
C56 C55 1.358 . S
C56 H59 0.930 . S
C57 C54 1.348 . S
C57 C55 1.356 . S
H58 C52 0.930 . S
H59 C56 0.930 . S
O60 Li0 1.956 . S
O60 Li1 1.970 . S
O60 Li2 1.961 . S
O60 C4 1.325 . S
O61 Li0 1.970 . S
O61 Li1 1.956 . S
O61 Li3 1.961 . S
O61 C10 1.325 . S
O62 Li0 1.961 . S
O62 Li2 1.956 . S
O62 Li3 1.970 . S
O62 C32 1.325 . S
O63 Li1 1.961 . S
O63 Li2 1.970 . S
O63 Li3 1.956 . S
O63 C38 1.325 . S
H64 C6 0.929 . S
H65 C7 0.930 . S
H66 C8 0.930 . S
H67 C9 0.930 . S
H68 C11 0.930 . S
H69 C13 0.929 . S
H70 C14 0.930 . S
H71 C15 0.930 . S
H72 C18 0.930 . S
H73 C21 0.929 . S
H74 C26 0.929 . S
H75 C27 0.930 . S
H76 C34 0.929 . S
H77 C35 0.930 . S
H78 C36 0.930 . S
H79 C37 0.930 . S
H80 C39 0.929 . S
H81 C40 0.930 . S
H82 C41 0.930 . S
H83 C42 0.930 . S
H84 C46 0.929 . S
H85 C48 0.930 . S
H86 C54 0.929 . S
H87 C55 0.930 . S
Li88 N105 1.990 . S
Li88 O148 1.956 . S
Li88 O149 1.970 . S
Li88 O150 1.961 . S
Li89 N113 1.990 . S
Li89 O148 1.970 . S
Li89 O149 1.956 . S
Li89 O151 1.961 . S
Li90 N135 1.990 . S
Li90 O148 1.961 . S
Li90 O150 1.956 . S
Li90 O151 1.970 . S
Li91 N141 1.990 . S
Li91 O149 1.961 . S
Li91 O150 1.970 . S
Li91 O151 1.956 . S
C92 C94 1.348 . S
C92 C95 1.356 . S
C92 O148 1.325 . S
N93 C96 1.314 . S
N93 C97 1.279 . S
C94 C92 1.348 . S
C94 C96 1.353 . S
C94 H152 0.929 . S
C95 C92 1.356 . S
C95 C97 1.358 . S
C95 H153 0.930 . S
C96 N93 1.314 . S
C96 C94 1.353 . S
C96 H154 0.930 . S
C97 N93 1.279 . S
C97 C95 1.358 . S
C97 H155 0.930 . S
C98 C101 1.348 . S
C98 C102 1.356 . S
C98 O149 1.325 . S
C99 N100 1.279 . S
C99 C102 1.358 . S
C99 H156 0.930 . S
N100 C99 1.279 . S
N100 C103 1.314 . S
C101 C98 1.348 . S
C101 C103 1.353 . S
C101 H157 0.929 . S
C102 C98 1.356 . S
C102 C99 1.358 . S
C102 H158 0.930 . S
C103 N100 1.314 . S
C103 C101 1.353 . S
C103 H159 0.930 . S
C104 N105 1.314 . S
C104 C109 1.353 . S
C104 H110 0.930 . S
N105 Li88 1.990 . S
N105 C104 1.314 . S
N105 C107 1.279 . S
C106 C107 1.358 . S
C106 C108 1.356 . S
C106 H160 0.930 . S
C107 N105 1.279 . S
C107 C106 1.358 . S
C107 H111 0.930 . S
C108 C106 1.356 . S
C108 C109 1.348 . S
C109 C104 1.353 . S
C109 C108 1.348 . S
C109 H161 0.929 . S
H110 C104 0.930 . S
H111 C107 0.930 . S
C112 N113 1.314 . S
C112 C114 1.353 . S
C112 H118 0.930 . S
N113 Li89 1.990 . S
N113 C112 1.314 . S
N113 C116 1.279 . S
C114 C112 1.353 . S
C114 C117 1.348 . S
C114 H162 0.929 . S
C115 C116 1.358 . S
C115 C117 1.356 . S
C115 H163 0.930 . S
C116 N113 1.279 . S
C116 C115 1.358 . S
C116 H119 0.930 . S
C117 C114 1.348 . S
C117 C115 1.356 . S
H118 C112 0.930 . S
H119 C116 0.930 . S
C120 C122 1.348 . S
C120 C123 1.356 . S
C120 O150 1.325 . S
N121 C124 1.314 . S
N121 C125 1.279 . S
C122 C120 1.348 . S
C122 C124 1.353 . S
C122 H164 0.929 . S
C123 C120 1.356 . S
C123 C125 1.358 . S
C123 H165 0.930 . S
C124 N121 1.314 . S
C124 C122 1.353 . S
C124 H166 0.930 . S
C125 N121 1.279 . S
C125 C123 1.358 . S
C125 H167 0.930 . S
C126 C127 1.348 . S
C126 C128 1.356 . S
C126 O151 1.325 . S
C127 C126 1.348 . S
C127 C129 1.353 . S
C127 H168 0.929 . S
C128 C126 1.356 . S
C128 C130 1.358 . S
C128 H169 0.930 . S
C129 C127 1.353 . S
C129 N131 1.314 . S
C129 H170 0.930 . S
C130 C128 1.358 . S
C130 N131 1.279 . S
C130 H171 0.930 . S
N131 C129 1.314 . S
N131 C130 1.279 . S
C132 C134 1.353 . S
C132 N135 1.314 . S
C132 H138 0.930 . S
C133 N135 1.279 . S
C133 C136 1.358 . S
C133 H139 0.930 . S
C134 C132 1.353 . S
C134 C137 1.348 . S
C134 H172 0.929 . S
N135 Li90 1.990 . S
N135 C132 1.314 . S
N135 C133 1.279 . S
C136 C133 1.358 . S
C136 C137 1.356 . S
C136 H173 0.930 . S
C137 C134 1.348 . S
C137 C136 1.356 . S
H138 C132 0.930 . S
H139 C133 0.930 . S
C140 N141 1.314 . S
C140 C142 1.353 . S
C140 H146 0.930 . S
N141 Li91 1.990 . S
N141 C140 1.314 . S
N141 C144 1.279 . S
C142 C140 1.353 . S
C142 C145 1.348 . S
C142 H174 0.929 . S
C143 C144 1.358 . S
C143 C145 1.356 . S
C143 H175 0.930 . S
C144 N141 1.279 . S
C144 C143 1.358 . S
C144 H147 0.930 . S
C145 C142 1.348 . S
C145 C143 1.356 . S
H146 C140 0.930 . S
H147 C144 0.930 . S
O148 Li88 1.956 . S
O148 Li89 1.970 . S
O148 Li90 1.961 . S
O148 C92 1.325 . S
O149 Li88 1.970 . S
O149 Li89 1.956 . S
O149 Li91 1.961 . S
O149 C98 1.325 . S
O150 Li88 1.961 . S
O150 Li90 1.956 . S
O150 Li91 1.970 . S
O150 C120 1.325 . S
O151 Li89 1.961 . S
O151 Li90 1.970 . S
O151 Li91 1.956 . S
O151 C126 1.325 . S
H152 C94 0.929 . S
H153 C95 0.930 . S
H154 C96 0.930 . S
H155 C97 0.930 . S
H156 C99 0.930 . S
H157 C101 0.929 . S
H158 C102 0.930 . S
H159 C103 0.930 . S
H160 C106 0.930 . S
H161 C109 0.929 . S
H162 C114 0.929 . S
H163 C115 0.930 . S
H164 C122 0.929 . S
H165 C123 0.930 . S
H166 C124 0.930 . S
H167 C125 0.930 . S
H168 C127 0.929 . S
H169 C128 0.930 . S
H170 C129 0.930 . S
H171 C130 0.930 . S
H172 C134 0.929 . S
H173 C136 0.930 . S
H174 C142 0.929 . S
H175 C143 0.930 . S
Li176 N193 1.990 . S
Li176 O236 1.956 . S
Li176 O237 1.970 . S
Li176 O238 1.961 . S
Li177 N201 1.990 1_556 S
Li177 O236 1.970 . S
Li177 O237 1.956 . S
Li177 O239 1.961 . S
Li178 N223 1.990 . S
Li178 O236 1.961 . S
Li178 O238 1.956 . S
Li178 O239 1.970 . S
Li179 N229 1.990 . S
Li179 O237 1.961 . S
Li179 O238 1.970 . S
Li179 O239 1.956 . S
C180 C182 1.348 . S
C180 C183 1.356 . S
C180 O236 1.325 . S
N181 C184 1.314 . S
N181 C185 1.279 . S
C182 C180 1.348 . S
C182 C184 1.353 . S
C182 H240 0.929 . S
C183 C180 1.356 . S
C183 C185 1.358 . S
C183 H241 0.930 . S
C184 N181 1.314 . S
C184 C182 1.353 . S
C184 H242 0.930 . S
C185 N181 1.279 . S
C185 C183 1.358 . S
C185 H243 0.930 . S
C186 C189 1.348 1_565 S
C186 C190 1.356 1_556 S
C186 O237 1.325 . S
C187 N188 1.279 . S
C187 C190 1.358 1_545 S
C187 H244 0.930 . S
N188 C187 1.279 . S
N188 C191 1.314 . S
C189 C186 1.348 1_545 S
C189 C191 1.353 1_556 S
C189 H245 0.930 1_545 S
C190 C186 1.356 1_554 S
C190 C187 1.358 1_565 S
C190 H246 0.930 . S
C191 N188 1.314 . S
C191 C189 1.353 1_554 S
C191 H247 0.930 . S
C192 N193 1.314 1_545 S
C192 C197 1.353 . S
C192 H198 0.930 . S
N193 Li176 1.990 . S
N193 C192 1.314 1_565 S
N193 C195 1.279 . S
C194 C195 1.358 1_545 S
C194 C196 1.356 . S
C194 H248 0.930 1_545 S
C195 N193 1.279 . S
C195 C194 1.358 1_565 S
C195 H199 0.930 . S
C196 C194 1.356 . S
C196 C197 1.348 . S
C197 C192 1.353 . S
C197 C196 1.348 . S
C197 H249 0.929 . S
H198 C192 0.930 . S
H199 C195 0.930 . S
C200 N201 1.314 . S
C200 C202 1.353 . S
C200 H206 0.930 1_554 S
N201 Li177 1.990 1_554 S
N201 C200 1.314 . S
N201 C204 1.279 . S
C202 C200 1.353 . S
C202 C205 1.348 . S
C202 H250 0.929 . S
C203 C204 1.358 . S
C203 C205 1.356 . S
C203 H251 0.930 . S
C204 N201 1.279 . S
C204 C203 1.358 . S
C204 H207 0.930 . S
C205 C202 1.348 . S
C205 C203 1.356 . S
H206 C200 0.930 1_556 S
H207 C204 0.930 . S
C208 C210 1.348 1_565 S
C208 C211 1.356 . S
C208 O238 1.325 . S
N209 C212 1.314 . S
N209 C213 1.279 . S
C210 C208 1.348 1_545 S
C210 C212 1.353 . S
C210 H252 0.930 1_545 S
C211 C208 1.356 . S
C211 C213 1.358 1_565 S
C211 H253 0.930 . S
C212 N209 1.314 . S
C212 C210 1.353 . S
C212 H254 0.930 . S
C213 N209 1.279 . S
C213 C211 1.358 1_545 S
C213 H255 0.930 . S
C214 C215 1.348 . S
C214 C216 1.356 1_556 S
C214 O239 1.325 . S
C215 C214 1.348 . S
C215 C217 1.353 . S
C215 H256 0.929 . S
C216 C214 1.356 1_554 S
C216 C218 1.358 . S
C216 H257 0.930 . S
C217 C215 1.353 . S
C217 N219 1.314 . S
C217 H258 0.930 . S
C218 C216 1.358 . S
C218 N219 1.279 1_554 S
C218 H259 0.930 . S
N219 C217 1.314 . S
N219 C218 1.279 1_556 S
C220 C222 1.353 . S
C220 N223 1.314 . S
C220 H226 0.930 . S
C221 N223 1.279 . S
C221 C224 1.358 . S
C221 H227 0.930 . S
C222 C220 1.353 . S
C222 C225 1.348 . S
C222 H260 0.929 . S
N223 Li178 1.990 . S
N223 C220 1.314 . S
N223 C221 1.279 . S
C224 C221 1.358 . S
C224 C225 1.356 . S
C224 H261 0.930 . S
C225 C222 1.348 . S
C225 C224 1.356 . S
H226 C220 0.930 . S
H227 C221 0.930 . S
C228 N229 1.314 1_545 S
C228 C230 1.353 . S
C228 H234 0.930 . S
N229 Li179 1.990 . S
N229 C228 1.314 1_565 S
N229 C232 1.279 . S
C230 C228 1.353 . S
C230 C233 1.348 . S
C230 H262 0.929 . S
C231 C232 1.358 1_545 S
C231 C233 1.356 . S
C231 H263 0.930 1_545 S
C232 N229 1.279 . S
C232 C231 1.358 1_565 S
C232 H235 0.930 . S
C233 C230 1.348 . S
C233 C231 1.356 . S
H234 C228 0.930 . S
H235 C232 0.930 . S
O236 Li176 1.956 . S
O236 Li177 1.970 . S
O236 Li178 1.961 . S
O236 C180 1.325 . S
O237 Li176 1.970 . S
O237 Li177 1.956 . S
O237 Li179 1.961 . S
O237 C186 1.325 . S
O238 Li176 1.961 . S
O238 Li178 1.956 . S
O238 Li179 1.970 . S
O238 C208 1.325 . S
O239 Li177 1.961 . S
O239 Li178 1.970 . S
O239 Li179 1.956 . S
O239 C214 1.325 . S
H240 C182 0.929 . S
H241 C183 0.930 . S
H242 C184 0.930 . S
H243 C185 0.930 . S
H244 C187 0.930 . S
H245 C189 0.930 1_565 S
H246 C190 0.930 . S
H247 C191 0.930 . S
H248 C194 0.930 1_565 S
H249 C197 0.929 . S
H250 C202 0.929 . S
H251 C203 0.930 . S
H252 C210 0.930 1_565 S
H253 C211 0.930 . S
H254 C212 0.930 . S
H255 C213 0.930 . S
H256 C215 0.929 . S
H257 C216 0.930 . S
H258 C217 0.930 . S
H259 C218 0.930 . S
H260 C222 0.929 . S
H261 C224 0.930 . S
H262 C230 0.929 . S
H263 C231 0.930 1_565 S
Li264 N281 1.990 . S
Li264 O324 1.956 . S
Li264 O325 1.970 . S
Li264 O326 1.961 . S
Li265 N289 1.990 . S
Li265 O324 1.970 . S
Li265 O325 1.956 . S
Li265 O327 1.961 . S
Li266 N311 1.990 1_554 S
Li266 O324 1.961 . S
Li266 O326 1.956 . S
Li266 O327 1.970 . S
Li267 N317 1.990 . S
Li267 O325 1.961 . S
Li267 O326 1.970 . S
Li267 O327 1.956 . S
C268 C270 1.348 . S
C268 C271 1.356 1_554 S
C268 O324 1.325 . S
N269 C272 1.314 . S
N269 C273 1.279 1_554 S
C270 C268 1.348 . S
C270 C272 1.353 . S
C270 H328 0.929 . S
C271 C268 1.356 1_556 S
C271 C273 1.358 . S
C271 H329 0.930 . S
C272 N269 1.314 . S
C272 C270 1.353 . S
C272 H330 0.930 . S
C273 N269 1.279 1_556 S
C273 C271 1.358 . S
C273 H331 0.930 . S
C274 C277 1.348 1_455 S
C274 C278 1.356 . S
C274 O325 1.325 . S
C275 N276 1.279 . S
C275 C278 1.358 1_655 S
C275 H332 0.930 . S
N276 C275 1.279 . S
N276 C279 1.314 . S
C277 C274 1.348 1_655 S
C277 C279 1.353 . S
C277 H333 0.930 1_655 S
C278 C274 1.356 . S
C278 C275 1.358 1_455 S
C278 H334 0.930 . S
C279 N276 1.314 . S
C279 C277 1.353 . S
C279 H335 0.930 . S
C280 N281 1.314 1_655 S
C280 C285 1.353 . S
C280 H286 0.930 . S
N281 Li264 1.990 . S
N281 C280 1.314 1_455 S
N281 C283 1.279 . S
C282 C283 1.358 1_655 S
C282 C284 1.356 . S
C282 H336 0.930 1_655 S
C283 N281 1.279 . S
C283 C282 1.358 1_455 S
C283 H287 0.930 . S
C284 C282 1.356 . S
C284 C285 1.348 . S
C285 C280 1.353 . S
C285 C284 1.348 . S
C285 H337 0.929 . S
H286 C280 0.930 . S
H287 C283 0.930 . S
C288 N289 1.314 . S
C288 C290 1.353 . S
C288 H294 0.930 . S
N289 Li265 1.990 . S
N289 C288 1.314 . S
N289 C292 1.279 . S
C290 C288 1.353 . S
C290 C293 1.348 . S
C290 H338 0.929 . S
C291 C292 1.358 . S
C291 C293 1.356 . S
C291 H339 0.930 . S
C292 N289 1.279 . S
C292 C291 1.358 . S
C292 H295 0.930 . S
C293 C290 1.348 . S
C293 C291 1.356 . S
H294 C288 0.930 . S
H295 C292 0.930 . S
C296 C298 1.348 1_455 S
C296 C299 1.356 1_554 S
C296 O326 1.325 . S
N297 C300 1.314 . S
N297 C301 1.279 . S
C298 C296 1.348 1_655 S
C298 C300 1.353 1_554 S
C298 H340 0.930 1_655 S
C299 C296 1.356 1_556 S
C299 C301 1.358 1_455 S
C299 H341 0.930 . S
C300 N297 1.314 . S
C300 C298 1.353 1_556 S
C300 H342 0.930 . S
C301 N297 1.279 . S
C301 C299 1.358 1_655 S
C301 H343 0.930 . S
C302 C303 1.348 . S
C302 C304 1.356 . S
C302 O327 1.325 . S
C303 C302 1.348 . S
C303 C305 1.353 . S
C303 H344 0.929 . S
C304 C302 1.356 . S
C304 C306 1.358 . S
C304 H345 0.930 . S
C305 C303 1.353 . S
C305 N307 1.314 . S
C305 H346 0.930 . S
C306 C304 1.358 . S
C306 N307 1.279 . S
C306 H347 0.930 . S
N307 C305 1.314 . S
N307 C306 1.279 . S
C308 C310 1.353 . S
C308 N311 1.314 . S
C308 H314 0.930 1_556 S
C309 N311 1.279 . S
C309 C312 1.358 . S
C309 H315 0.930 . S
C310 C308 1.353 . S
C310 C313 1.348 . S
C310 H348 0.929 . S
N311 Li266 1.990 1_556 S
N311 C308 1.314 . S
N311 C309 1.279 . S
C312 C309 1.358 . S
C312 C313 1.356 . S
C312 H349 0.930 . S
C313 C310 1.348 . S
C313 C312 1.356 . S
H314 C308 0.930 1_554 S
H315 C309 0.930 . S
C316 N317 1.314 1_655 S
C316 C318 1.353 . S
C316 H322 0.930 . S
N317 Li267 1.990 . S
N317 C316 1.314 1_455 S
N317 C320 1.279 . S
C318 C316 1.353 . S
C318 C321 1.348 . S
C318 H350 0.929 . S
C319 C320 1.358 1_655 S
C319 C321 1.356 . S
C319 H351 0.930 1_655 S
C320 N317 1.279 . S
C320 C319 1.358 1_455 S
C320 H323 0.930 . S
C321 C318 1.348 . S
C321 C319 1.356 . S
H322 C316 0.930 . S
H323 C320 0.930 . S
O324 Li264 1.956 . S
O324 Li265 1.970 . S
O324 Li266 1.961 . S
O324 C268 1.325 . S
O325 Li264 1.970 . S
O325 Li265 1.956 . S
O325 Li267 1.961 . S
O325 C274 1.325 . S
O326 Li264 1.961 . S
O326 Li266 1.956 . S
O326 Li267 1.970 . S
O326 C296 1.325 . S
O327 Li265 1.961 . S
O327 Li266 1.970 . S
O327 Li267 1.956 . S
O327 C302 1.325 . S
H328 C270 0.929 . S
H329 C271 0.930 . S
H330 C272 0.930 . S
H331 C273 0.930 . S
H332 C275 0.930 . S
H333 C277 0.930 1_455 S
H334 C278 0.930 . S
H335 C279 0.930 . S
H336 C282 0.930 1_455 S
H337 C285 0.929 . S
H338 C290 0.929 . S
H339 C291 0.930 . S
H340 C298 0.930 1_455 S
H341 C299 0.930 . S
H342 C300 0.930 . S
H343 C301 0.930 . S
H344 C303 0.929 . S
H345 C304 0.930 . S
H346 C305 0.930 . S
H347 C306 0.930 . S
H348 C310 0.929 . S
H349 C312 0.930 . S
H350 C318 0.929 . S
H351 C319 0.930 1_455 S
Li352 N369 1.990 1_556 S
Li352 O412 1.956 . S
Li352 O413 1.970 . S
Li352 O414 1.961 . S
Li353 N377 1.990 . S
Li353 O412 1.970 . S
Li353 O413 1.956 . S
Li353 O415 1.961 . S
Li354 N399 1.990 . S
Li354 O412 1.961 . S
Li354 O414 1.956 . S
Li354 O415 1.970 . S
Li355 N405 1.990 . S
Li355 O413 1.961 . S
Li355 O414 1.970 . S
Li355 O415 1.956 . S
C356 C358 1.348 1_545 S
C356 C359 1.356 1_556 S
C356 O412 1.325 . S
N357 C360 1.314 . S
N357 C361 1.279 . S
C358 C356 1.348 1_565 S
C358 C360 1.353 1_556 S
C358 H416 0.930 1_565 S
C359 C356 1.356 1_554 S
C359 C361 1.358 1_545 S
C359 H417 0.930 . S
C360 N357 1.314 . S
C360 C358 1.353 1_554 S
C360 H418 0.930 . S
C361 N357 1.279 . S
C361 C359 1.358 1_565 S
C361 H419 0.930 . S
C362 C365 1.348 . S
C362 C366 1.356 . S
C362 O413 1.325 . S
C363 N364 1.279 . S
C363 C366 1.358 . S
C363 H420 0.930 . S
N364 C363 1.279 . S
N364 C367 1.314 . S
C365 C362 1.348 . S
C365 C367 1.353 . S
C365 H421 0.929 . S
C366 C362 1.356 . S
C366 C363 1.358 . S
C366 H422 0.930 . S
C367 N364 1.314 . S
C367 C365 1.353 . S
C367 H423 0.930 . S
C368 N369 1.314 . S
C368 C373 1.353 . S
C368 H374 0.930 1_554 S
N369 Li352 1.990 1_554 S
N369 C368 1.314 . S
N369 C371 1.279 . S
C370 C371 1.358 . S
C370 C372 1.356 . S
C370 H424 0.930 . S
C371 N369 1.279 . S
C371 C370 1.358 . S
C371 H375 0.930 . S
C372 C370 1.356 . S
C372 C373 1.348 . S
C373 C368 1.353 . S
C373 C372 1.348 . S
C373 H425 0.929 . S
H374 C368 0.930 1_556 S
H375 C371 0.930 . S
C376 N377 1.314 1_565 S
C376 C378 1.353 . S
C376 H382 0.930 . S
N377 Li353 1.990 . S
N377 C376 1.314 1_545 S
N377 C380 1.279 . S
C378 C376 1.353 . S
C378 C381 1.348 . S
C378 H426 0.929 . S
C379 C380 1.358 1_565 S
C379 C381 1.356 . S
C379 H427 0.930 1_565 S
C380 N377 1.279 . S
C380 C379 1.358 1_545 S
C380 H383 0.930 . S
C381 C378 1.348 . S
C381 C379 1.356 . S
H382 C376 0.930 . S
H383 C380 0.930 . S
C384 C386 1.348 . S
C384 C387 1.356 1_556 S
C384 O414 1.325 . S
N385 C388 1.314 . S
N385 C389 1.279 1_556 S
C386 C384 1.348 . S
C386 C388 1.353 . S
C386 H428 0.929 . S
C387 C384 1.356 1_554 S
C387 C389 1.358 . S
C387 H429 0.930 . S
C388 N385 1.314 . S
C388 C386 1.353 . S
C388 H430 0.930 . S
C389 N385 1.279 1_554 S
C389 C387 1.358 . S
C389 H431 0.930 . S
C390 C391 1.348 1_545 S
C390 C392 1.356 . S
C390 O415 1.325 . S
C391 C390 1.348 1_565 S
C391 C393 1.353 . S
C391 H432 0.930 1_565 S
C392 C390 1.356 . S
C392 C394 1.358 1_545 S
C392 H433 0.930 . S
C393 C391 1.353 . S
C393 N395 1.314 . S
C393 H434 0.930 . S
C394 C392 1.358 1_565 S
C394 N395 1.279 . S
C394 H435 0.930 . S
N395 C393 1.314 . S
N395 C394 1.279 . S
C396 C398 1.353 . S
C396 N399 1.314 1_565 S
C396 H402 0.930 . S
C397 N399 1.279 . S
C397 C400 1.358 1_545 S
C397 H403 0.930 . S
C398 C396 1.353 . S
C398 C401 1.348 . S
C398 H436 0.929 . S
N399 Li354 1.990 . S
N399 C396 1.314 1_545 S
N399 C397 1.279 . S
C400 C397 1.358 1_565 S
C400 C401 1.356 . S
C400 H437 0.930 1_565 S
C401 C398 1.348 . S
C401 C400 1.356 . S
H402 C396 0.930 . S
H403 C397 0.930 . S
C404 N405 1.314 . S
C404 C406 1.353 . S
C404 H410 0.930 . S
N405 Li355 1.990 . S
N405 C404 1.314 . S
N405 C408 1.279 . S
C406 C404 1.353 . S
C406 C409 1.348 . S
C406 H438 0.929 . S
C407 C408 1.358 . S
C407 C409 1.356 . S
C407 H439 0.930 . S
C408 N405 1.279 . S
C408 C407 1.358 . S
C408 H411 0.930 . S
C409 C406 1.348 . S
C409 C407 1.356 . S
H410 C404 0.930 . S
H411 C408 0.930 . S
O412 Li352 1.956 . S
O412 Li353 1.970 . S
O412 Li354 1.961 . S
O412 C356 1.325 . S
O413 Li352 1.970 . S
O413 Li353 1.956 . S
O413 Li355 1.961 . S
O413 C362 1.325 . S
O414 Li352 1.961 . S
O414 Li354 1.956 . S
O414 Li355 1.970 . S
O414 C384 1.325 . S
O415 Li353 1.961 . S
O415 Li354 1.970 . S
O415 Li355 1.956 . S
O415 C390 1.325 . S
H416 C358 0.930 1_545 S
H417 C359 0.930 . S
H418 C360 0.930 . S
H419 C361 0.930 . S
H420 C363 0.930 . S
H421 C365 0.929 . S
H422 C366 0.930 . S
H423 C367 0.930 . S
H424 C370 0.930 . S
H425 C373 0.929 . S
H426 C378 0.929 . S
H427 C379 0.930 1_545 S
H428 C386 0.929 . S
H429 C387 0.930 . S
H430 C388 0.930 . S
H431 C389 0.930 . S
H432 C391 0.930 1_545 S
H433 C392 0.930 . S
H434 C393 0.930 . S
H435 C394 0.930 . S
H436 C398 0.929 . S
H437 C400 0.930 1_545 S
H438 C406 0.929 . S
H439 C407 0.930 . S
Li440 N457 1.990 . S
Li440 O500 1.956 . S
Li440 O501 1.970 . S
Li440 O502 1.961 . S
Li441 N465 1.990 . S
Li441 O500 1.970 . S
Li441 O501 1.956 . S
Li441 O503 1.961 . S
Li442 N487 1.990 . S
Li442 O500 1.961 . S
Li442 O502 1.956 . S
Li442 O503 1.970 . S
Li443 N493 1.990 1_554 S
Li443 O501 1.961 . S
Li443 O502 1.970 . S
Li443 O503 1.956 . S
C444 C446 1.348 1_655 S
C444 C447 1.356 . S
C444 O500 1.325 . S
N445 C448 1.314 . S
N445 C449 1.279 . S
C446 C444 1.348 1_455 S
C446 C448 1.353 . S
C446 H504 0.930 1_455 S
C447 C444 1.356 . S
C447 C449 1.358 1_655 S
C447 H505 0.930 . S
C448 N445 1.314 . S
C448 C446 1.353 . S
C448 H506 0.930 . S
C449 N445 1.279 . S
C449 C447 1.358 1_455 S
C449 H507 0.930 . S
C450 C453 1.348 . S
C450 C454 1.356 1_554 S
C450 O501 1.325 . S
C451 N452 1.279 1_556 S
C451 C454 1.358 . S
C451 H508 0.930 . S
N452 C451 1.279 1_554 S
N452 C455 1.314 . S
C453 C450 1.348 . S
C453 C455 1.353 . S
C453 H509 0.929 . S
C454 C450 1.356 1_556 S
C454 C451 1.358 . S
C454 H510 0.930 . S
C455 N452 1.314 . S
C455 C453 1.353 . S
C455 H511 0.930 . S
C456 N457 1.314 . S
C456 C461 1.353 . S
C456 H462 0.930 . S
N457 Li440 1.990 . S
N457 C456 1.314 . S
N457 C459 1.279 . S
C458 C459 1.358 . S
C458 C460 1.356 . S
C458 H512 0.930 . S
C459 N457 1.279 . S
C459 C458 1.358 . S
C459 H463 0.930 . S
C460 C458 1.356 . S
C460 C461 1.348 . S
C461 C456 1.353 . S
C461 C460 1.348 . S
C461 H513 0.929 . S
H462 C456 0.930 . S
H463 C459 0.930 . S
C464 N465 1.314 1_455 S
C464 C466 1.353 . S
C464 H470 0.930 . S
N465 Li441 1.990 . S
N465 C464 1.314 1_655 S
N465 C468 1.279 . S
C466 C464 1.353 . S
C466 C469 1.348 . S
C466 H514 0.929 . S
C467 C468 1.358 1_455 S
C467 C469 1.356 . S
C467 H515 0.930 1_455 S
C468 N465 1.279 . S
C468 C467 1.358 1_655 S
C468 H471 0.930 . S
C469 C466 1.348 . S
C469 C467 1.356 . S
H470 C464 0.930 . S
H471 C468 0.930 . S
C472 C474 1.348 . S
C472 C475 1.356 . S
C472 O502 1.325 . S
N473 C476 1.314 . S
N473 C477 1.279 . S
C474 C472 1.348 . S
C474 C476 1.353 . S
C474 H516 0.929 . S
C475 C472 1.356 . S
C475 C477 1.358 . S
C475 H517 0.930 . S
C476 N473 1.314 . S
C476 C474 1.353 . S
C476 H518 0.930 . S
C477 N473 1.279 . S
C477 C475 1.358 . S
C477 H519 0.930 . S
C478 C479 1.348 1_655 S
C478 C480 1.356 1_554 S
C478 O503 1.325 . S
C479 C478 1.348 1_455 S
C479 C481 1.353 1_554 S
C479 H520 0.930 1_455 S
C480 C478 1.356 1_556 S
C480 C482 1.358 1_655 S
C480 H521 0.930 . S
C481 C479 1.353 1_556 S
C481 N483 1.314 . S
C481 H522 0.930 . S
C482 C480 1.358 1_455 S
C482 N483 1.279 . S
C482 H523 0.930 . S
N483 C481 1.314 . S
N483 C482 1.279 . S
C484 C486 1.353 . S
C484 N487 1.314 1_455 S
C484 H490 0.930 . S
C485 N487 1.279 . S
C485 C488 1.358 1_655 S
C485 H491 0.930 . S
C486 C484 1.353 . S
C486 C489 1.348 . S
C486 H524 0.929 . S
N487 Li442 1.990 . S
N487 C484 1.314 1_655 S
N487 C485 1.279 . S
C488 C485 1.358 1_455 S
C488 C489 1.356 . S
C488 H525 0.930 1_455 S
C489 C486 1.348 . S
C489 C488 1.356 . S
H490 C484 0.930 . S
H491 C485 0.930 . S
C492 N493 1.314 . S
C492 C494 1.353 . S
C492 H498 0.930 1_556 S
N493 Li443 1.990 1_556 S
N493 C492 1.314 . S
N493 C496 1.279 . S
C494 C492 1.353 . S
C494 C497 1.348 . S
C494 H526 0.929 . S
C495 C496 1.358 . S
C495 C497 1.356 . S
C495 H527 0.930 . S
C496 N493 1.279 . S
C496 C495 1.358 . S
C496 H499 0.930 . S
C497 C494 1.348 . S
C497 C495 1.356 . S
H498 C492 0.930 1_554 S
H499 C496 0.930 . S
O500 Li440 1.956 . S
O500 Li441 1.970 . S
O500 Li442 1.961 . S
O500 C444 1.325 . S
O501 Li440 1.970 . S
O501 Li441 1.956 . S
O501 Li443 1.961 . S
O501 C450 1.325 . S
O502 Li440 1.961 . S
O502 Li442 1.956 . S
O502 Li443 1.970 . S
O502 C472 1.325 . S
O503 Li441 1.961 . S
O503 Li442 1.970 . S
O503 Li443 1.956 . S
O503 C478 1.325 . S
H504 C446 0.930 1_655 S
H505 C447 0.930 . S
H506 C448 0.930 . S
H507 C449 0.930 . S
H508 C451 0.930 . S
H509 C453 0.929 . S
H510 C454 0.930 . S
H511 C455 0.930 . S
H512 C458 0.930 . S
H513 C461 0.929 . S
H514 C466 0.929 . S
H515 C467 0.930 1_655 S
H516 C474 0.929 . S
H517 C475 0.930 . S
H518 C476 0.930 . S
H519 C477 0.930 . S
H520 C479 0.930 1_655 S
H521 C480 0.930 . S
H522 C481 0.930 . S
H523 C482 0.930 . S
H524 C486 0.929 . S
H525 C488 0.930 1_655 S
H526 C494 0.929 . S
H527 C495 0.930 . S
Li528 N545 1.990 . S
Li528 O588 1.956 . S
Li528 O589 1.970 . S
Li528 O590 1.961 . S
Li529 N553 1.990 . S
Li529 O588 1.970 . S
Li529 O589 1.956 . S
Li529 O591 1.961 . S
Li530 N575 1.990 . S
Li530 O588 1.961 . S
Li530 O590 1.956 . S
Li530 O591 1.970 . S
Li531 N581 1.990 . S
Li531 O589 1.961 . S
Li531 O590 1.970 . S
Li531 O591 1.956 . S
C532 C534 1.348 . S
C532 C535 1.356 . S
C532 O588 1.325 . S
N533 C536 1.314 . S
N533 C537 1.279 . S
C534 C532 1.348 . S
C534 C536 1.353 . S
C534 H592 0.929 . S
C535 C532 1.356 . S
C535 C537 1.358 . S
C535 H593 0.930 . S
C536 N533 1.314 . S
C536 C534 1.353 . S
C536 H594 0.930 . S
C537 N533 1.279 . S
C537 C535 1.358 . S
C537 H595 0.930 . S
C538 C541 1.348 . S
C538 C542 1.356 . S
C538 O589 1.325 . S
C539 N540 1.279 . S
C539 C542 1.358 . S
C539 H596 0.930 . S
N540 C539 1.279 . S
N540 C543 1.314 . S
C541 C538 1.348 . S
C541 C543 1.353 . S
C541 H597 0.929 . S
C542 C538 1.356 . S
C542 C539 1.358 . S
C542 H598 0.930 . S
C543 N540 1.314 . S
C543 C541 1.353 . S
C543 H599 0.930 . S
C544 N545 1.314 . S
C544 C549 1.353 . S
C544 H550 0.930 . S
N545 Li528 1.990 . S
N545 C544 1.314 . S
N545 C547 1.279 . S
C546 C547 1.358 . S
C546 C548 1.356 . S
C546 H600 0.930 . S
C547 N545 1.279 . S
C547 C546 1.358 . S
C547 H551 0.930 . S
C548 C546 1.356 . S
C548 C549 1.348 . S
C549 C544 1.353 . S
C549 C548 1.348 . S
C549 H601 0.929 . S
H550 C544 0.930 . S
H551 C547 0.930 . S
C552 N553 1.314 . S
C552 C554 1.353 . S
C552 H558 0.930 . S
N553 Li529 1.990 . S
N553 C552 1.314 . S
N553 C556 1.279 . S
C554 C552 1.353 . S
C554 C557 1.348 . S
C554 H602 0.929 . S
C555 C556 1.358 . S
C555 C557 1.356 . S
C555 H603 0.930 . S
C556 N553 1.279 . S
C556 C555 1.358 . S
C556 H559 0.930 . S
C557 C554 1.348 . S
C557 C555 1.356 . S
H558 C552 0.930 . S
H559 C556 0.930 . S
C560 C562 1.348 . S
C560 C563 1.356 . S
C560 O590 1.325 . S
N561 C564 1.314 . S
N561 C565 1.279 . S
C562 C560 1.348 . S
C562 C564 1.353 . S
C562 H604 0.929 . S
C563 C560 1.356 . S
C563 C565 1.358 . S
C563 H605 0.930 . S
C564 N561 1.314 . S
C564 C562 1.353 . S
C564 H606 0.930 . S
C565 N561 1.279 . S
C565 C563 1.358 . S
C565 H607 0.930 . S
C566 C567 1.348 . S
C566 C568 1.356 . S
C566 O591 1.325 . S
C567 C566 1.348 . S
C567 C569 1.353 . S
C567 H608 0.929 . S
C568 C566 1.356 . S
C568 C570 1.358 . S
C568 H609 0.930 . S
C569 C567 1.353 . S
C569 N571 1.314 . S
C569 H610 0.930 . S
C570 C568 1.358 . S
C570 N571 1.279 . S
C570 H611 0.930 . S
N571 C569 1.314 . S
N571 C570 1.279 . S
C572 C574 1.353 . S
C572 N575 1.314 . S
C572 H578 0.930 . S
C573 N575 1.279 . S
C573 C576 1.358 . S
C573 H579 0.930 . S
C574 C572 1.353 . S
C574 C577 1.348 . S
C574 H612 0.929 . S
N575 Li530 1.990 . S
N575 C572 1.314 . S
N575 C573 1.279 . S
C576 C573 1.358 . S
C576 C577 1.356 . S
C576 H613 0.930 . S
C577 C574 1.348 . S
C577 C576 1.356 . S
H578 C572 0.930 . S
H579 C573 0.930 . S
C580 N581 1.314 . S
C580 C582 1.353 . S
C580 H586 0.930 . S
N581 Li531 1.990 . S
N581 C580 1.314 . S
N581 C584 1.279 . S
C582 C580 1.353 . S
C582 C585 1.348 . S
C582 H614 0.929 . S
C583 C584 1.358 . S
C583 C585 1.356 . S
C583 H615 0.930 . S
C584 N581 1.279 . S
C584 C583 1.358 . S
C584 H587 0.930 . S
C585 C582 1.348 . S
C585 C583 1.356 . S
H586 C580 0.930 . S
H587 C584 0.930 . S
O588 Li528 1.956 . S
O588 Li529 1.970 . S
O588 Li530 1.961 . S
O588 C532 1.325 . S
O589 Li528 1.970 . S
O589 Li529 1.956 . S
O589 Li531 1.961 . S
O589 C538 1.325 . S
O590 Li528 1.961 . S
O590 Li530 1.956 . S
O590 Li531 1.970 . S
O590 C560 1.325 . S
O591 Li529 1.961 . S
O591 Li530 1.970 . S
O591 Li531 1.956 . S
O591 C566 1.325 . S
H592 C534 0.929 . S
H593 C535 0.930 . S
H594 C536 0.930 . S
H595 C537 0.930 . S
H596 C539 0.930 . S
H597 C541 0.929 . S
H598 C542 0.930 . S
H599 C543 0.930 . S
H600 C546 0.930 . S
H601 C549 0.929 . S
H602 C554 0.929 . S
H603 C555 0.930 . S
H604 C562 0.929 . S
H605 C563 0.930 . S
H606 C564 0.930 . S
H607 C565 0.930 . S
H608 C567 0.929 . S
H609 C568 0.930 . S
H610 C569 0.930 . S
H611 C570 0.930 . S
H612 C574 0.929 . S
H613 C576 0.930 . S
H614 C582 0.929 . S
H615 C583 0.930 . S
Li616 N633 1.990 . S
Li616 O676 1.956 . S
Li616 O677 1.970 . S
Li616 O678 1.961 . S
Li617 N641 1.990 . S
Li617 O676 1.970 . S
Li617 O677 1.956 . S
Li617 O679 1.961 . S
Li618 N663 1.990 . S
Li618 O676 1.961 . S
Li618 O678 1.956 . S
Li618 O679 1.970 . S
Li619 N669 1.990 . S
Li619 O677 1.961 . S
Li619 O678 1.970 . S
Li619 O679 1.956 . S
C620 C622 1.348 . S
C620 C623 1.356 . S
C620 O676 1.325 . S
N621 C624 1.314 . S
N621 C625 1.279 . S
C622 C620 1.348 . S
C622 C624 1.353 . S
C622 H680 0.929 . S
C623 C620 1.356 . S
C623 C625 1.358 . S
C623 H681 0.930 . S
C624 N621 1.314 . S
C624 C622 1.353 . S
C624 H682 0.930 . S
C625 N621 1.279 . S
C625 C623 1.358 . S
C625 H683 0.930 . S
C626 C629 1.348 . S
C626 C630 1.356 . S
C626 O677 1.325 . S
C627 N628 1.279 . S
C627 C630 1.358 . S
C627 H684 0.930 . S
N628 C627 1.279 . S
N628 C631 1.314 . S
C629 C626 1.348 . S
C629 C631 1.353 . S
C629 H685 0.929 . S
C630 C626 1.356 . S
C630 C627 1.358 . S
C630 H686 0.930 . S
C631 N628 1.314 . S
C631 C629 1.353 . S
C631 H687 0.930 . S
C632 N633 1.314 . S
C632 C637 1.353 . S
C632 H638 0.930 . S
N633 Li616 1.990 . S
N633 C632 1.314 . S
N633 C635 1.279 . S
C634 C635 1.358 . S
C634 C636 1.356 . S
C634 H688 0.930 . S
C635 N633 1.279 . S
C635 C634 1.358 . S
C635 H639 0.930 . S
C636 C634 1.356 . S
C636 C637 1.348 . S
C637 C632 1.353 . S
C637 C636 1.348 . S
C637 H689 0.929 . S
H638 C632 0.930 . S
H639 C635 0.930 . S
C640 N641 1.314 . S
C640 C642 1.353 . S
C640 H646 0.930 . S
N641 Li617 1.990 . S
N641 C640 1.314 . S
N641 C644 1.279 . S
C642 C640 1.353 . S
C642 C645 1.348 . S
C642 H690 0.929 . S
C643 C644 1.358 . S
C643 C645 1.356 . S
C643 H691 0.930 . S
C644 N641 1.279 . S
C644 C643 1.358 . S
C644 H647 0.930 . S
C645 C642 1.348 . S
C645 C643 1.356 . S
H646 C640 0.930 . S
H647 C644 0.930 . S
C648 C650 1.348 . S
C648 C651 1.356 . S
C648 O678 1.325 . S
N649 C652 1.314 . S
N649 C653 1.279 . S
C650 C648 1.348 . S
C650 C652 1.353 . S
C650 H692 0.929 . S
C651 C648 1.356 . S
C651 C653 1.358 . S
C651 H693 0.930 . S
C652 N649 1.314 . S
C652 C650 1.353 . S
C652 H694 0.930 . S
C653 N649 1.279 . S
C653 C651 1.358 . S
C653 H695 0.930 . S
C654 C655 1.348 . S
C654 C656 1.356 . S
C654 O679 1.325 . S
C655 C654 1.348 . S
C655 C657 1.353 . S
C655 H696 0.929 . S
C656 C654 1.356 . S
C656 C658 1.358 . S
C656 H697 0.930 . S
C657 C655 1.353 . S
C657 N659 1.314 . S
C657 H698 0.930 . S
C658 C656 1.358 . S
C658 N659 1.279 . S
C658 H699 0.930 . S
N659 C657 1.314 . S
N659 C658 1.279 . S
C660 C662 1.353 . S
C660 N663 1.314 . S
C660 H666 0.930 . S
C661 N663 1.279 . S
C661 C664 1.358 . S
C661 H667 0.930 . S
C662 C660 1.353 . S
C662 C665 1.348 . S
C662 H700 0.929 . S
N663 Li618 1.990 . S
N663 C660 1.314 . S
N663 C661 1.279 . S
C664 C661 1.358 . S
C664 C665 1.356 . S
C664 H701 0.930 . S
C665 C662 1.348 . S
C665 C664 1.356 . S
H666 C660 0.930 . S
H667 C661 0.930 . S
C668 N669 1.314 . S
C668 C670 1.353 . S
C668 H674 0.930 . S
N669 Li619 1.990 . S
N669 C668 1.314 . S
N669 C672 1.279 . S
C670 C668 1.353 . S
C670 C673 1.348 . S
C670 H702 0.929 . S
C671 C672 1.358 . S
C671 C673 1.356 . S
C671 H703 0.930 . S
C672 N669 1.279 . S
C672 C671 1.358 . S
C672 H675 0.930 . S
C673 C670 1.348 . S
C673 C671 1.356 . S
H674 C668 0.930 . S
H675 C672 0.930 . S
O676 Li616 1.956 . S
O676 Li617 1.970 . S
O676 Li618 1.961 . S
O676 C620 1.325 . S
O677 Li616 1.970 . S
O677 Li617 1.956 . S
O677 Li619 1.961 . S
O677 C626 1.325 . S
O678 Li616 1.961 . S
O678 Li618 1.956 . S
O678 Li619 1.970 . S
O678 C648 1.325 . S
O679 Li617 1.961 . S
O679 Li618 1.970 . S
O679 Li619 1.956 . S
O679 C654 1.325 . S
H680 C622 0.929 . S
H681 C623 0.930 . S
H682 C624 0.930 . S
H683 C625 0.930 . S
H684 C627 0.930 . S
H685 C629 0.929 . S
H686 C630 0.930 . S
H687 C631 0.930 . S
H688 C634 0.930 . S
H689 C637 0.929 . S
H690 C642 0.929 . S
H691 C643 0.930 . S
H692 C650 0.929 . S
H693 C651 0.930 . S
H694 C652 0.930 . S
H695 C653 0.930 . S
H696 C655 0.929 . S
H697 C656 0.930 . S
H698 C657 0.930 . S
H699 C658 0.930 . S
H700 C662 0.929 . S
H701 C664 0.930 . S
H702 C670 0.929 . S
H703 C671 0.930 . S
C704 C705 1.369 . S
C704 C706 1.419 1_556 S
C704 H708 0.930 . S
C705 C704 1.369 . S
C705 C714 1.429 . S
C706 C704 1.419 1_554 S
C706 C707 1.363 . S
C706 H709 0.929 . S
C707 C706 1.363 . S
C707 C713 1.428 . S
H708 C704 0.930 . S
H709 C706 0.929 . S
S710 N711 1.613 . S
S710 N712 1.610 1_556 S
N711 S710 1.613 . S
N711 C714 1.350 . S
N712 S710 1.610 1_554 S
N712 C713 1.351 . S
C713 C707 1.428 . S
C713 N712 1.351 . S
C713 C714 1.434 1_554 S
C714 C705 1.429 . S
C714 N711 1.350 . S
C714 C713 1.434 1_556 S
C715 C716 1.369 . S
C715 C717 1.419 . S
C715 H719 0.930 . S
C716 C715 1.369 . S
C716 C725 1.429 . S
C717 C715 1.419 . S
C717 C718 1.363 . S
C717 H720 0.929 . S
C718 C717 1.363 . S
C718 C724 1.428 . S
H719 C715 0.930 . S
H720 C717 0.929 . S
S721 N722 1.613 . S
S721 N723 1.610 . S
N722 S721 1.613 . S
N722 C725 1.350 . S
N723 S721 1.610 . S
N723 C724 1.351 . S
C724 C718 1.428 . S
C724 N723 1.351 . S
C724 C725 1.434 . S
C725 C716 1.429 . S
C725 N722 1.350 . S
C725 C724 1.434 . S
C726 C727 1.369 . S
C726 C728 1.419 . S
C726 H730 0.930 . S
C727 C726 1.369 . S
C727 C736 1.429 . S
C728 C726 1.419 . S
C728 C729 1.363 . S
C728 H731 0.929 . S
C729 C728 1.363 . S
C729 C735 1.428 . S
H730 C726 0.930 . S
H731 C728 0.929 . S
S732 N733 1.613 . S
S732 N734 1.610 . S
N733 S732 1.613 . S
N733 C736 1.350 . S
N734 S732 1.610 . S
N734 C735 1.351 . S
C735 C729 1.428 . S
C735 N734 1.351 . S
C735 C736 1.434 . S
C736 C727 1.429 . S
C736 N733 1.350 . S
C736 C735 1.434 . S
C737 C738 1.369 . S
C737 C739 1.419 . S
C737 H741 0.930 . S
C738 C737 1.369 . S
C738 C747 1.429 . S
C739 C737 1.419 . S
C739 C740 1.363 . S
C739 H742 0.929 . S
C740 C739 1.363 . S
C740 C746 1.428 . S
H741 C737 0.930 . S
H742 C739 0.929 . S
S743 N744 1.613 . S
S743 N745 1.610 . S
N744 S743 1.613 . S
N744 C747 1.350 . S
N745 S743 1.610 . S
N745 C746 1.351 . S
C746 C740 1.428 . S
C746 N745 1.351 . S
C746 C747 1.434 . S
C747 C738 1.429 . S
C747 N744 1.350 . S
C747 C746 1.434 . S
C748 C749 1.369 . S
C748 C750 1.419 . S
C748 H752 0.930 . S
C749 C748 1.369 . S
C749 C758 1.429 . S
C750 C748 1.419 . S
C750 C751 1.363 . S
C750 H753 0.929 . S
C751 C750 1.363 . S
C751 C757 1.428 . S
H752 C748 0.930 . S
H753 C750 0.929 . S
S754 N755 1.613 . S
S754 N756 1.610 . S
N755 S754 1.613 . S
N755 C758 1.350 . S
N756 S754 1.610 . S
N756 C757 1.351 . S
C757 C751 1.428 . S
C757 N756 1.351 . S
C757 C758 1.434 . S
C758 C749 1.429 . S
C758 N755 1.350 . S
C758 C757 1.434 . S
C759 C760 1.369 . S
C759 C761 1.419 . S
C759 H763 0.930 . S
C760 C759 1.369 . S
C760 C769 1.429 . S
C761 C759 1.419 . S
C761 C762 1.363 . S
C761 H764 0.929 . S
C762 C761 1.363 . S
C762 C768 1.428 . S
H763 C759 0.930 . S
H764 C761 0.929 . S
S765 N766 1.613 . S
S765 N767 1.610 . S
N766 S765 1.613 . S
N766 C769 1.350 . S
N767 S765 1.610 . S
N767 C768 1.351 . S
C768 C762 1.428 . S
C768 N767 1.351 . S
C768 C769 1.434 . S
C769 C760 1.429 . S
C769 N766 1.350 . S
C769 C768 1.434 . S
C770 C771 1.369 . S
C770 C772 1.419 1_554 S
C770 H774 0.930 . S
C771 C770 1.369 . S
C771 C780 1.437 . S
C772 C770 1.419 1_556 S
C772 C773 1.363 . S
C772 H775 0.929 . S
C773 C772 1.363 . S
C773 C779 1.428 . S
H774 C770 0.930 . S
H775 C772 0.929 . S
S776 N777 1.613 . S
S776 N778 1.610 . S
N777 S776 1.613 . S
N777 C780 1.349 1_556 S
N778 S776 1.610 . S
N778 C779 1.351 . S
C779 C773 1.428 . S
C779 N778 1.351 . S
C779 C780 1.426 1_556 S
C780 C771 1.437 . S
C780 N777 1.349 1_554 S
C780 C779 1.426 1_554 S
C781 C782 1.369 . S
C781 C783 1.419 . S
C781 H785 0.930 . S
C782 C781 1.369 . S
C782 C791 1.429 . S
C783 C781 1.419 . S
C783 C784 1.363 . S
C783 H786 0.929 . S
C784 C783 1.363 . S
C784 C790 1.428 . S
H785 C781 0.930 . S
H786 C783 0.929 . S
S787 N788 1.613 . S
S787 N789 1.610 . S
N788 S787 1.613 . S
N788 C791 1.350 . S
N789 S787 1.610 . S
N789 C790 1.351 . S
C790 C784 1.428 . S
C790 N789 1.351 . S
C790 C791 1.434 . S
C791 C782 1.429 . S
C791 N788 1.350 . S
C791 C790 1.434 . S
C792 C793 1.369 . S
C792 C794 1.419 . S
C792 H796 0.930 . S
C793 C792 1.369 . S
C793 C802 1.429 . S
C794 C792 1.419 . S
C794 C795 1.363 . S
C794 H797 0.929 . S
C795 C794 1.363 . S
C795 C801 1.428 . S
H796 C792 0.930 . S
H797 C794 0.929 . S
S798 N799 1.613 . S
S798 N800 1.610 . S
N799 S798 1.613 . S
N799 C802 1.350 . S
N800 S798 1.610 . S
N800 C801 1.351 . S
C801 C795 1.428 . S
C801 N800 1.351 . S
C801 C802 1.434 . S
C802 C793 1.429 . S
C802 N799 1.350 . S
C802 C801 1.434 . S
C803 C804 1.369 . S
C803 C805 1.419 . S
C803 H807 0.930 . S
C804 C803 1.369 . S
C804 C813 1.429 . S
C805 C803 1.419 . S
C805 C806 1.363 . S
C805 H808 0.929 . S
C806 C805 1.363 . S
C806 C812 1.428 . S
H807 C803 0.930 . S
H808 C805 0.929 . S
S809 N810 1.613 . S
S809 N811 1.610 . S
N810 S809 1.613 . S
N810 C813 1.350 . S
N811 S809 1.610 . S
N811 C812 1.351 . S
C812 C806 1.428 . S
C812 N811 1.351 . S
C812 C813 1.434 . S
C813 C804 1.429 . S
C813 N810 1.350 . S
C813 C812 1.434 . S
C814 C815 1.369 . S
C814 C816 1.419 . S
C814 H818 0.930 . S
C815 C814 1.369 . S
C815 C824 1.429 1_556 S
C816 C814 1.419 . S
C816 C817 1.363 1_556 S
C816 H819 0.929 . S
C817 C816 1.363 1_554 S
C817 C823 1.428 . S
H818 C814 0.930 . S
H819 C816 0.929 . S
S820 N821 1.613 . S
S820 N822 1.610 . S
N821 S820 1.613 . S
N821 C824 1.350 . S
N822 S820 1.610 . S
N822 C823 1.351 . S
C823 C817 1.428 . S
C823 N822 1.351 . S
C823 C824 1.434 . S
C824 C815 1.429 1_554 S
C824 N821 1.350 . S
C824 C823 1.434 . S
C825 C826 1.369 . S
C825 C827 1.419 . S
C825 H829 0.930 . S
C826 C825 1.369 . S
C826 C835 1.429 . S
C827 C825 1.419 . S
C827 C828 1.363 . S
C827 H830 0.929 . S
C828 C827 1.363 . S
C828 C834 1.428 . S
H829 C825 0.930 . S
H830 C827 0.929 . S
S831 N832 1.613 . S
S831 N833 1.610 . S
N832 S831 1.613 . S
N832 C835 1.350 . S
N833 S831 1.610 . S
N833 C834 1.351 . S
C834 C828 1.428 . S
C834 N833 1.351 . S
C834 C835 1.434 . S
C835 C826 1.429 . S
C835 N832 1.350 . S
C835 C834 1.434 . S
C836 C837 1.369 . S
C836 C838 1.419 . S
C836 H840 0.930 . S
C837 C836 1.369 . S
C837 C846 1.429 . S
C838 C836 1.419 . S
C838 C839 1.363 . S
C838 H841 0.929 . S
C839 C838 1.363 . S
C839 C845 1.428 . S
H840 C836 0.930 . S
H841 C838 0.929 . S
S842 N843 1.613 . S
S842 N844 1.610 . S
N843 S842 1.613 . S
N843 C846 1.350 . S
N844 S842 1.610 . S
N844 C845 1.351 . S
C845 C839 1.428 . S
C845 N844 1.351 . S
C845 C846 1.434 . S
C846 C837 1.429 . S
C846 N843 1.350 . S
C846 C845 1.434 . S
C847 C848 1.369 . S
C847 C849 1.419 . S
C847 H851 0.930 . S
C848 C847 1.369 . S
C848 C857 1.429 1_554 S
C849 C847 1.419 . S
C849 C850 1.363 1_554 S
C849 H852 0.929 . S
C850 C849 1.363 1_556 S
C850 C856 1.428 . S
H851 C847 0.930 . S
H852 C849 0.929 . S
S853 N854 1.613 . S
S853 N855 1.610 . S
N854 S853 1.613 . S
N854 C857 1.350 . S
N855 S853 1.610 . S
N855 C856 1.351 . S
C856 C850 1.428 . S
C856 N855 1.351 . S
C856 C857 1.434 . S
C857 C848 1.429 1_556 S
C857 N854 1.350 . S
C857 C856 1.434 . S
C858 C859 1.369 . S
C858 C860 1.419 . S
C858 H862 0.930 . S
C859 C858 1.369 . S
C859 C868 1.429 . S
C860 C858 1.419 . S
C860 C861 1.363 . S
C860 H863 0.929 . S
C861 C860 1.363 . S
C861 C867 1.428 . S
H862 C858 0.930 . S
H863 C860 0.929 . S
S864 N865 1.613 . S
S864 N866 1.610 . S
N865 S864 1.613 . S
N865 C868 1.350 . S
N866 S864 1.610 . S
N866 C867 1.351 . S
C867 C861 1.428 . S
C867 N866 1.351 . S
C867 C868 1.434 . S
C868 C859 1.429 . S
C868 N865 1.350 . S
C868 C867 1.434 . S
C869 C870 1.369 . S
C869 C871 1.419 . S
C869 H873 0.930 . S
C870 C869 1.369 . S
C870 C879 1.429 . S
C871 C869 1.419 . S
C871 C872 1.363 . S
C871 H874 0.929 . S
C872 C871 1.363 . S
C872 C878 1.428 . S
H873 C869 0.930 . S
H874 C871 0.929 . S
S875 N876 1.613 . S
S875 N877 1.610 . S
N876 S875 1.613 . S
N876 C879 1.350 . S
N877 S875 1.610 . S
N877 C878 1.351 . S
C878 C872 1.428 . S
C878 N877 1.351 . S
C878 C879 1.434 . S
C879 C870 1.429 . S
C879 N876 1.350 . S
C879 C878 1.434 . S
C705 C108 1.409 . S
C707 C57 1.408 . S
C716 C145 1.408 . S
C718 C205 1.412 . S
C727 C293 1.409 . S
C729 C225 1.408 . S
C738 C313 1.408 . S
C740 C20 1.409 . S
C749 C409 1.407 . S
C751 C460 1.411 . S
C760 C497 1.410 . S
C762 C557 1.411 . S
C771 C577 1.407 . S
C773 C645 1.411 . S
C782 C372 1.412 . S
C784 C665 1.409 . S
C793 C49 1.568 . S
C795 C636 1.571 . S
C804 C381 1.569 . S
C806 C137 1.569 . S
C815 C469 1.567 1_556 S
C817 C233 1.572 1_554 S
C826 C321 1.568 . S
C828 C548 1.571 . S
C837 C196 1.570 . S
C839 C673 1.570 . S
C848 C401 1.569 1_554 S
C850 C284 1.569 1_556 S
C859 C489 1.567 . S
C861 C29 1.572 . S
C870 C117 1.572 . S
C872 C585 1.567 . S
