# Generated by pormake.
# Topology wjo, (5)-cn, num edge types: 1
# Building blocks:
#     Node 0, Type 0, BuildingBlock: XOMCOT_clean_sbu_1, # of connection points: 5
#     Node 1, Type 0, BuildingBlock: XOMCOT_clean_sbu_1, # of connection points: 5
#     Node 2, Type 0, BuildingBlock: XOMCOT_clean_sbu_1, # of connection points: 5
#     Node 3, Type 0, BuildingBlock: XOMCOT_clean_sbu_1, # of connection points: 5
#     Node 4, Type 0, BuildingBlock: XOMCOT_clean_sbu_1, # of connection points: 5
#     Node 5, Type 0, BuildingBlock: XOMCOT_clean_sbu_1, # of connection points: 5
#     Node 6, Type 0, BuildingBlock: XOMCOT_clean_sbu_1, # of connection points: 5
#     Node 7, Type 0, BuildingBlock: XOMCOT_clean_sbu_1, # of connection points: 5
#     Node 8, Type 0, BuildingBlock: XOMCOT_clean_sbu_1, # of connection points: 5
#     Node 9, Type 0, BuildingBlock: XOMCOT_clean_sbu_1, # of connection points: 5
#     Node 10, Type 0, BuildingBlock: XOMCOT_clean_sbu_1, # of connection points: 5
#     Node 11, Type 0, BuildingBlock: XOMCOT_clean_sbu_1, # of connection points: 5
#     Edge 12, Type (0, 0), BuildingBlock: KIFKEQ_clean_linker_1, # of connection points: 2
#     Edge 13, Type (0, 0), BuildingBlock: KIFKEQ_clean_linker_1, # of connection points: 2
#     Edge 14, Type (0, 0), BuildingBlock: KIFKEQ_clean_linker_1, # of connection points: 2
#     Edge 15, Type (0, 0), BuildingBlock: KIFKEQ_clean_linker_1, # of connection points: 2
#     Edge 16, Type (0, 0), BuildingBlock: KIFKEQ_clean_linker_1, # of connection points: 2
#     Edge 17, Type (0, 0), BuildingBlock: KIFKEQ_clean_linker_1, # of connection points: 2
#     Edge 18, Type (0, 0), BuildingBlock: KIFKEQ_clean_linker_1, # of connection points: 2
#     Edge 19, Type (0, 0), BuildingBlock: KIFKEQ_clean_linker_1, # of connection points: 2
#     Edge 20, Type (0, 0), BuildingBlock: KIFKEQ_clean_linker_1, # of connection points: 2
#     Edge 21, Type (0, 0), BuildingBlock: KIFKEQ_clean_linker_1, # of connection points: 2
#     Edge 22, Type (0, 0), BuildingBlock: KIFKEQ_clean_linker_1, # of connection points: 2
#     Edge 23, Type (0, 0), BuildingBlock: KIFKEQ_clean_linker_1, # of connection points: 2
#     Edge 24, Type (0, 0), BuildingBlock: KIFKEQ_clean_linker_1, # of connection points: 2
#     Edge 25, Type (0, 0), BuildingBlock: KIFKEQ_clean_linker_1, # of connection points: 2
#     Edge 26, Type (0, 0), BuildingBlock: KIFKEQ_clean_linker_1, # of connection points: 2
#     Edge 27, Type (0, 0), BuildingBlock: KIFKEQ_clean_linker_1, # of connection points: 2
#     Edge 28, Type (0, 0), BuildingBlock: KIFKEQ_clean_linker_1, # of connection points: 2
#     Edge 29, Type (0, 0), BuildingBlock: KIFKEQ_clean_linker_1, # of connection points: 2
#     Edge 30, Type (0, 0), BuildingBlock: KIFKEQ_clean_linker_1, # of connection points: 2
#     Edge 31, Type (0, 0), BuildingBlock: KIFKEQ_clean_linker_1, # of connection points: 2
#     Edge 32, Type (0, 0), BuildingBlock: KIFKEQ_clean_linker_1, # of connection points: 2
#     Edge 33, Type (0, 0), BuildingBlock: KIFKEQ_clean_linker_1, # of connection points: 2
#     Edge 34, Type (0, 0), BuildingBlock: KIFKEQ_clean_linker_1, # of connection points: 2
#     Edge 35, Type (0, 0), BuildingBlock: KIFKEQ_clean_linker_1, # of connection points: 2
#     Edge 36, Type (0, 0), BuildingBlock: KIFKEQ_clean_linker_1, # of connection points: 2
#     Edge 37, Type (0, 0), BuildingBlock: KIFKEQ_clean_linker_1, # of connection points: 2
#     Edge 38, Type (0, 0), BuildingBlock: KIFKEQ_clean_linker_1, # of connection points: 2
#     Edge 39, Type (0, 0), BuildingBlock: KIFKEQ_clean_linker_1, # of connection points: 2
#     Edge 40, Type (0, 0), BuildingBlock: KIFKEQ_clean_linker_1, # of connection points: 2
#     Edge 41, Type (0, 0), BuildingBlock: KIFKEQ_clean_linker_1, # of connection points: 2
# Relax obj value: 0.387
# Max RMSD: 0.204
# Mean RMSD: 0.201
data_MOF--net-wjo--node1-XOMCOT_clean_sbu_1--edge1-KIFKEQ_clean_linker_1
_symmetry_space_group_name_H-M    P1
_symmetry_Int_Tables_number       1
_symmetry_cell_setting            triclinic
loop_
_symmetry_equiv_pos_as_xyz
'x, y, z'
_cell_length_a     48.251698
_cell_length_b     48.172902
_cell_length_c     28.807519
_cell_angle_alpha  90.021758
_cell_angle_beta   89.995747
_cell_angle_gamma 120.06135
loop_
_atom_site_label
_atom_site_type_symbol
_atom_site_fract_x
_atom_site_fract_y
_atom_site_fract_z
_atom_type_partial_charge
C0 C 0.23568 0.34203 0.88398 0.0
C1 C 0.23992 0.31934 0.86123 0.0
N2 N 0.2525 0.30714 0.8913 0.0
N3 N 0.24547 0.34425 0.92822 0.0
C4 C 0.25563 0.3228 0.93171 0.0
H5 H 0.22664 0.35654 0.86903 0.0
Co6 Co 0.24547 0.37327 0.97042 0.0
C7 C 0.27318 0.36487 0.05786 0.0
O8 O 0.28856 0.39606 0.0646 0.0
N9 N 0.24425 0.40276 0.01249 0.0
C10 C 0.24997 0.44577 0.04995 0.0
C11 C 0.25594 0.43474 0.0093 0.0
C12 C 0.22975 0.39486 0.05449 0.0
N13 N 0.23375 0.42063 0.07854 0.0
O14 O 0.20104 0.34484 0.9825 0.0
H15 H 0.26826 0.44961 0.97987 0.0
H16 H 0.2181 0.37073 0.06829 0.0
O17 O 0.25615 0.35296 0.02132 0.0
C18 C 0.18142 0.35092 0.96167 0.0
O19 O 0.19271 0.3747 0.93176 0.0
N20 N 0.28893 0.40171 0.95595 0.0
C21 C 0.3511 0.4499 0.93459 0.0
C22 C 0.34572 0.42284 0.96011 0.0
C23 C 0.31439 0.39858 0.96942 0.0
C24 C 0.29366 0.42567 0.92623 0.0
C25 C 0.32452 0.45047 0.91594 0.0
H26 H 0.31094 0.37752 0.98756 0.0
H27 H 0.27321 0.42629 0.91206 0.0
H28 H 0.26548 0.31903 0.96309 0.0
H29 H 0.23498 0.31316 0.8249 0.0
H30 H 0.25738 0.47047 0.058 0.0
H31 H 0.36554 0.42048 0.97294 0.0
H32 H 0.32738 0.47044 0.8951 0.0
C33 C 0.89655 0.22886 0.05065 0.0
C34 C 0.9232 0.23398 0.02625 0.0
N35 N 0.9494 0.25285 0.05193 0.0
N36 N 0.90577 0.24431 0.0916 0.0
C37 C 0.93808 0.25871 0.09146 0.0
H38 H 0.87195 0.21479 0.0393 0.0
Co39 Co 0.87754 0.24413 0.13536 0.0
C40 C 0.91633 0.27579 0.2193 0.0
O41 O 0.89996 0.29056 0.2258 0.0
N42 N 0.84774 0.24261 0.17951 0.0
C43 C 0.80981 0.2458 0.21935 0.0
C44 C 0.82537 0.25167 0.17733 0.0
C45 C 0.84397 0.22984 0.22243 0.0
N46 N 0.82197 0.23247 0.24782 0.0
O47 O 0.86338 0.20012 0.14922 0.0
H48 H 0.82036 0.26203 0.14765 0.0
H49 H 0.85794 0.21958 0.23539 0.0
O50 O 0.91057 0.25751 0.184 0.0
C51 C 0.83591 0.1804 0.13276 0.0
O52 O 0.82156 0.19156 0.10618 0.0
N53 N 0.89012 0.28679 0.11897 0.0
C54 C 0.89754 0.34665 0.09857 0.0
C55 C 0.92205 0.34426 0.12102 0.0
C56 C 0.91813 0.31396 0.13013 0.0
C57 C 0.86842 0.28889 0.09121 0.0
C58 C 0.87117 0.31854 0.08158 0.0
H59 H 0.93734 0.31267 0.14711 0.0
H60 H 0.84781 0.26718 0.07869 0.0
H61 H 0.95304 0.27378 0.11934 0.0
H62 H 0.92315 0.2243 0.99234 0.0
H63 H 0.79184 0.25198 0.22873 0.0
H64 H 0.94339 0.36546 0.13324 0.0
H65 H 0.8524 0.3194 0.06214 0.0
C66 C 0.6778 0.89727 0.22793 0.0
C67 C 0.70082 0.92482 0.20662 0.0
N68 N 0.7047 0.95014 0.23166 0.0
N69 N 0.66739 0.90517 0.2664 0.0
C70 C 0.68414 0.93757 0.26765 0.0
H71 H 0.66912 0.873 0.21605 0.0
Co72 Co 0.63683 0.87581 0.30696 0.0
C73 C 0.64336 0.9117 0.39424 0.0
O74 O 0.6122 0.89536 0.40059 0.0
N75 N 0.60608 0.84498 0.34771 0.0
C76 C 0.5622 0.80774 0.38354 0.0
C77 C 0.57411 0.82523 0.34341 0.0
C78 C 0.61303 0.83769 0.38989 0.0
N79 N 0.58677 0.81586 0.41289 0.0
O80 O 0.66479 0.8596 0.32181 0.0
H81 H 0.55985 0.82331 0.31353 0.0
H82 H 0.6369 0.84971 0.40455 0.0
O83 O 0.65577 0.90684 0.35807 0.0
C84 C 0.65803 0.83309 0.30277 0.0
O85 O 0.63402 0.82009 0.2733 0.0
N86 N 0.60875 0.89077 0.28979 0.0
C87 C 0.55923 0.90229 0.26629 0.0
C88 C 0.58517 0.92435 0.29336 0.0
C89 C 0.60994 0.91839 0.30419 0.0
C90 C 0.58618 0.8715 0.25839 0.0
C91 C 0.5607 0.87625 0.24709 0.0
H92 H 0.62965 0.93597 0.32455 0.0
H93 H 0.5868 0.85097 0.2444 0.0
H94 H 0.68158 0.95175 0.29455 0.0
H95 H 0.71321 0.92614 0.17464 0.0
H96 H 0.53732 0.79061 0.39067 0.0
H97 H 0.58615 0.94584 0.30674 0.0
H98 H 0.54167 0.85872 0.22535 0.0
C99 C 0.7801 0.67007 0.3875 0.0
C100 C 0.77539 0.69228 0.36434 0.0
N101 N 0.75806 0.70064 0.3917 0.0
N102 N 0.76599 0.66442 0.42941 0.0
C103 C 0.75286 0.68348 0.43118 0.0
H104 H 0.79268 0.6584 0.37439 0.0
Co105 Co 0.76562 0.63466 0.47057 0.0
C106 C 0.73241 0.63736 0.55491 0.0
O107 O 0.71789 0.60587 0.55653 0.0
N108 N 0.76673 0.60465 0.51193 0.0
C109 C 0.76215 0.56188 0.54883 0.0
C110 C 0.75628 0.57291 0.50807 0.0
C111 C 0.78025 0.61241 0.5546 0.0
N112 N 0.7771 0.58682 0.57813 0.0
O113 O 0.80942 0.66393 0.48584 0.0
H114 H 0.74501 0.55817 0.47809 0.0
H115 H 0.79082 0.63632 0.5691 0.0
O116 O 0.75189 0.65237 0.52167 0.0
C117 C 0.82977 0.65857 0.46573 0.0
O118 O 0.81936 0.63488 0.43571 0.0
N119 N 0.72286 0.60544 0.45255 0.0
C120 C 0.66167 0.55633 0.42839 0.0
C121 C 0.66587 0.58361 0.45213 0.0
C122 C 0.69671 0.60827 0.46289 0.0
C123 C 0.71943 0.58148 0.42376 0.0
C124 C 0.68905 0.55615 0.41229 0.0
H125 H 0.69921 0.62922 0.48023 0.0
H126 H 0.74048 0.58127 0.41137 0.0
H127 H 0.73894 0.68403 0.4602 0.0
H128 H 0.78404 0.7014 0.32986 0.0
H129 H 0.75576 0.53737 0.55637 0.0
H130 H 0.64551 0.58578 0.46276 0.0
H131 H 0.68718 0.53613 0.39264 0.0
C132 C 0.11464 0.7814 0.5522 0.0
C133 C 0.08839 0.77819 0.52863 0.0
N134 N 0.06206 0.76034 0.55464 0.0
N135 N 0.10502 0.7657 0.59288 0.0
C136 C 0.07293 0.75325 0.59357 0.0
H137 H 0.13919 0.79409 0.54029 0.0
Co138 Co 0.13236 0.76257 0.63503 0.0
C139 C 0.09222 0.72582 0.71414 0.0
O140 O 0.10729 0.70943 0.71485 0.0
N141 N 0.16118 0.76067 0.67804 0.0
C142 C 0.19784 0.75433 0.71619 0.0
C143 C 0.18236 0.75015 0.67445 0.0
C144 C 0.16539 0.77229 0.72185 0.0
N145 N 0.18701 0.76821 0.74598 0.0
O146 O 0.14771 0.80602 0.65367 0.0
H147 H 0.18704 0.74036 0.64382 0.0
H148 H 0.15196 0.78273 0.73629 0.0
O149 O 0.0993 0.74765 0.68362 0.0
C150 C 0.17549 0.82592 0.63847 0.0
O151 O 0.18993 0.81533 0.61098 0.0
N152 N 0.1183 0.72038 0.6134 0.0
C153 C 0.10628 0.65984 0.58539 0.0
C154 C 0.08231 0.66362 0.60702 0.0
C155 C 0.08854 0.69421 0.61973 0.0
C156 C 0.13987 0.7177 0.5861 0.0
C157 C 0.13486 0.68762 0.5729 0.0
H158 H 0.06958 0.69646 0.63577 0.0
H159 H 0.16193 0.73903 0.5765 0.0
H160 H 0.0577 0.73846 0.62143 0.0
H161 H 0.08878 0.78822 0.49487 0.0
H162 H 0.21592 0.74795 0.72382 0.0
H163 H 0.05909 0.64309 0.61479 0.0
H164 H 0.15385 0.68625 0.55498 0.0
C165 C 0.33526 0.10956 0.72265 0.0
C166 C 0.31203 0.08167 0.70225 0.0
N167 N 0.30501 0.0572 0.73146 0.0
N168 N 0.34267 0.10272 0.76461 0.0
C169 C 0.3238 0.0706 0.769 0.0
H170 H 0.34644 0.13326 0.70748 0.0
Co171 Co 0.37317 0.13267 0.80481 0.0
C172 C 0.37364 0.09548 0.88568 0.0
O173 O 0.40511 0.11207 0.88538 0.0
N174 N 0.40356 0.16385 0.84579 0.0
C175 C 0.44589 0.20292 0.88238 0.0
C176 C 0.43469 0.18675 0.84103 0.0
C177 C 0.39626 0.16784 0.88974 0.0
N178 N 0.42162 0.19082 0.91303 0.0
O179 O 0.34359 0.14603 0.82329 0.0
H180 H 0.44884 0.192 0.80997 0.0
H181 H 0.37285 0.15312 0.90505 0.0
O182 O 0.35762 0.10096 0.85532 0.0
C183 C 0.34596 0.17004 0.8013 0.0
O184 O 0.36683 0.18233 0.76731 0.0
N185 N 0.40276 0.12038 0.78366 0.0
C186 C 0.45284 0.11044 0.7572 0.0
C187 C 0.4254 0.08598 0.77893 0.0
C188 C 0.4003 0.09118 0.79093 0.0
C189 C 0.42667 0.14223 0.75608 0.0
C190 C 0.45252 0.13831 0.74372 0.0
H191 H 0.37943 0.07187 0.80724 0.0
H192 H 0.4264 0.1636 0.74535 0.0
H193 H 0.32385 0.05711 0.79897 0.0
H194 H 0.30193 0.07942 0.66797 0.0
H195 H 0.47001 0.22215 0.88925 0.0
H196 H 0.42348 0.06318 0.78735 0.0
H197 H 0.47253 0.15758 0.72553 0.0
C198 C 0.66859 0.77378 0.94423 0.0
C199 C 0.69216 0.77058 0.96606 0.0
N200 N 0.70456 0.75853 0.9354 0.0
N201 N 0.66598 0.76379 0.90003 0.0
C202 C 0.6882 0.75471 0.8955 0.0
H203 H 0.65371 0.78217 0.95978 0.0
Co204 Co 0.63563 0.76247 0.85949 0.0
C205 C 0.63832 0.72887 0.7755 0.0
O206 O 0.60684 0.71344 0.77478 0.0
N207 N 0.60484 0.76244 0.81855 0.0
C208 C 0.5616 0.75697 0.78217 0.0
C209 C 0.57313 0.75169 0.82292 0.0
C210 C 0.61206 0.77549 0.77557 0.0
N211 N 0.58619 0.7718 0.75234 0.0
O212 O 0.66388 0.80646 0.84376 0.0
H213 H 0.55877 0.74068 0.85328 0.0
H214 H 0.63583 0.78619 0.76074 0.0
O215 O 0.65333 0.74902 0.80807 0.0
C216 C 0.65644 0.826 0.86175 0.0
O217 O 0.63197 0.81473 0.8904 0.0
N218 N 0.6075 0.71967 0.87815 0.0
C219 C 0.55999 0.65811 0.90377 0.0
C220 C 0.58743 0.6629 0.88001 0.0
C221 C 0.61138 0.694 0.86866 0.0
C222 C 0.58345 0.7158 0.90697 0.0
C223 C 0.55891 0.6852 0.9192 0.0
H224 H 0.63265 0.69716 0.85156 0.0
H225 H 0.5826 0.73665 0.91895 0.0
H226 H 0.69204 0.74515 0.86375 0.0
H227 H 0.69874 0.77572 0.00224 0.0
H228 H 0.53701 0.7503 0.77507 0.0
H229 H 0.59023 0.6428 0.86985 0.0
H230 H 0.53874 0.68287 0.93889 0.0
C231 C 0.89692 0.6724 0.11155 0.0
C232 C 0.92376 0.69502 0.13448 0.0
N233 N 0.94949 0.70341 0.10719 0.0
N234 N 0.90546 0.66656 0.06982 0.0
C235 C 0.93762 0.68583 0.06802 0.0
H236 H 0.87271 0.66058 0.12478 0.0
Co237 Co 0.87657 0.63654 0.02834 0.0
C238 C 0.91481 0.63605 0.94908 0.0
O239 O 0.89789 0.60454 0.9493 0.0
N240 N 0.8462 0.60641 0.98626 0.0
C241 C 0.8078 0.56404 0.94878 0.0
C242 C 0.82344 0.57514 0.99048 0.0
C243 C 0.84268 0.61389 0.94218 0.0
N244 N 0.82009 0.58851 0.91843 0.0
O245 O 0.86398 0.6665 0.00866 0.0
H246 H 0.81791 0.56081 0.02143 0.0
H247 H 0.85745 0.63743 0.92716 0.0
O248 O 0.9093 0.65223 0.97922 0.0
C249 C 0.83953 0.66413 0.02919 0.0
O250 O 0.82619 0.64292 0.0626 0.0
N251 N 0.88801 0.60663 0.05065 0.0
C252 C 0.89561 0.55538 0.07789 0.0
C253 C 0.92088 0.58236 0.05658 0.0
C254 C 0.91686 0.60821 0.04427 0.0
C255 C 0.86553 0.58319 0.07815 0.0
C256 C 0.86832 0.55675 0.09096 0.0
H257 H 0.93662 0.6288 0.02808 0.0
H258 H 0.84443 0.58419 0.0881 0.0
H259 H 0.95216 0.68619 0.03921 0.0
H260 H 0.92414 0.70436 0.16877 0.0
H261 H 0.78877 0.53988 0.94147 0.0
H262 H 0.94294 0.58293 0.04749 0.0
H263 H 0.84894 0.53719 0.10977 0.0
C264 C 0.22897 0.89604 0.2739 0.0
C265 C 0.23365 0.92366 0.29522 0.0
N266 N 0.25292 0.94874 0.26802 0.0
N267 N 0.24505 0.90367 0.23334 0.0
C268 C 0.25936 0.93597 0.2307 0.0
H269 H 0.21503 0.87193 0.28733 0.0
Co270 Co 0.24591 0.87417 0.19266 0.0
C271 C 0.28257 0.91151 0.11136 0.0
O272 O 0.29737 0.89485 0.11091 0.0
N273 N 0.24542 0.84333 0.15118 0.0
C274 C 0.24918 0.80466 0.11418 0.0
C275 C 0.25472 0.82118 0.15531 0.0
C276 C 0.2331 0.83863 0.10778 0.0
N277 N 0.23563 0.8158 0.08432 0.0
O278 O 0.20266 0.86022 0.17501 0.0
H279 H 0.26469 0.81664 0.18584 0.0
H280 H 0.22344 0.85267 0.09302 0.0
O281 O 0.26145 0.90608 0.14237 0.0
C282 C 0.18222 0.83434 0.19479 0.0
O283 O 0.19247 0.82131 0.22539 0.0
N284 N 0.28794 0.88684 0.21328 0.0
C285 C 0.34764 0.89631 0.2396 0.0
C286 C 0.34509 0.92077 0.21725 0.0
C287 C 0.31487 0.91581 0.20527 0.0
C288 C 0.2898 0.86508 0.24133 0.0
C289 C 0.31946 0.86878 0.25365 0.0
H290 H 0.31354 0.93501 0.18821 0.0
H291 H 0.26806 0.84386 0.25223 0.0
H292 H 0.27424 0.94999 0.20201 0.0
H293 H 0.22441 0.92525 0.32876 0.0
H294 H 0.25451 0.78578 0.10695 0.0
H295 H 0.36623 0.94294 0.20723 0.0
H296 H 0.32035 0.84998 0.27306 0.0
C297 C 0.33214 0.22371 0.43874 0.0
C298 C 0.30949 0.22855 0.46047 0.0
N299 N 0.3065 0.25089 0.43641 0.0
N300 N 0.3432 0.24271 0.401 0.0
C301 C 0.3272 0.25907 0.40059 0.0
H302 H 0.34008 0.20735 0.44971 0.0
Co303 Co 0.37338 0.24382 0.35991 0.0
C304 C 0.36476 0.27101 0.27178 0.0
O305 O 0.39573 0.28591 0.26377 0.0
N306 N 0.40384 0.24376 0.31855 0.0
C307 C 0.44776 0.25144 0.28183 0.0
C308 C 0.43597 0.25708 0.32202 0.0
C309 C 0.3967 0.22881 0.27684 0.0
N310 N 0.42297 0.23387 0.25327 0.0
O311 O 0.34554 0.19925 0.34643 0.0
H312 H 0.45042 0.27037 0.3513 0.0
H313 H 0.37268 0.21612 0.26278 0.0
O314 O 0.35336 0.25472 0.30904 0.0
C315 C 0.35379 0.17991 0.36286 0.0
O316 O 0.37935 0.1914 0.38939 0.0
N317 N 0.40137 0.28728 0.37576 0.0
C318 C 0.45088 0.34882 0.39778 0.0
C319 C 0.42527 0.34446 0.36963 0.0
C320 C 0.40045 0.3135 0.35965 0.0
C321 C 0.4238 0.29116 0.40779 0.0
C322 C 0.4492 0.32166 0.41858 0.0
H323 H 0.38093 0.31107 0.33865 0.0
H324 H 0.42313 0.27022 0.42273 0.0
H325 H 0.33033 0.27639 0.37429 0.0
H326 H 0.29668 0.21702 0.49199 0.0
H327 H 0.4727 0.26003 0.27404 0.0
H328 H 0.4246 0.36478 0.35486 0.0
H329 H 0.46806 0.3237 0.44118 0.0
C330 C 0.11333 0.3421 0.61507 0.0
C331 C 0.0866 0.31987 0.63865 0.0
N332 N 0.06136 0.30764 0.60935 0.0
N333 N 0.10519 0.34408 0.57108 0.0
C334 C 0.07345 0.32287 0.5685 0.0
H335 H 0.13714 0.35649 0.62927 0.0
Co336 Co 0.13404 0.37273 0.52843 0.0
C337 C 0.09732 0.36542 0.44215 0.0
O338 O 0.11346 0.39667 0.43613 0.0
N339 N 0.16466 0.40191 0.4858 0.0
C340 C 0.20261 0.44455 0.44848 0.0
C341 C 0.18595 0.43365 0.48939 0.0
C342 C 0.17035 0.39395 0.44321 0.0
N343 N 0.19249 0.41954 0.41927 0.0
O344 O 0.14922 0.34364 0.51561 0.0
H345 H 0.1896 0.44844 0.51938 0.0
H346 H 0.1571 0.36994 0.42907 0.0
O347 O 0.10237 0.35291 0.47807 0.0
C348 C 0.17629 0.35121 0.53329 0.0
O349 O 0.19016 0.37645 0.56055 0.0
N350 N 0.12006 0.40185 0.54377 0.0
C351 C 0.10928 0.45228 0.56358 0.0
C352 C 0.08612 0.425 0.53994 0.0
C353 C 0.09168 0.39962 0.53124 0.0
C354 C 0.14034 0.42585 0.57267 0.0
C355 C 0.13595 0.45182 0.58198 0.0
H356 H 0.07335 0.37866 0.51371 0.0
H357 H 0.16106 0.42564 0.58657 0.0
H358 H 0.05949 0.31899 0.53744 0.0
H359 H 0.08587 0.31402 0.67504 0.0
H360 H 0.2206 0.46907 0.44076 0.0
H361 H 0.06453 0.42377 0.52668 0.0
H362 H 0.15363 0.47167 0.60247 0.0
C363 C 0.78114 0.1106 0.77832 0.0
C364 C 0.77552 0.08259 0.79932 0.0
N365 N 0.75523 0.05786 0.77234 0.0
N366 N 0.7647 0.10359 0.7381 0.0
C367 C 0.74897 0.07122 0.73558 0.0
H368 H 0.7963 0.13458 0.79155 0.0
Co369 Co 0.76613 0.13387 0.6967 0.0
C370 C 0.73587 0.09797 0.60965 0.0
O371 O 0.72217 0.11531 0.6027 0.0
N372 N 0.76898 0.16553 0.65516 0.0
C373 C 0.76761 0.20555 0.61862 0.0
C374 C 0.76035 0.18814 0.65912 0.0
C375 C 0.78286 0.17094 0.61284 0.0
N376 N 0.78153 0.19443 0.58927 0.0
O377 O 0.80989 0.14742 0.68288 0.0
H378 H 0.74962 0.19227 0.68918 0.0
H379 H 0.79246 0.15667 0.59881 0.0
O380 O 0.75295 0.10248 0.64592 0.0
C381 C 0.83123 0.17226 0.70378 0.0
O382 O 0.82229 0.18577 0.73551 0.0
N383 N 0.72338 0.12147 0.71249 0.0
C384 C 0.66315 0.11304 0.73317 0.0
C385 C 0.66602 0.08963 0.70819 0.0
C386 C 0.69641 0.09404 0.69885 0.0
C387 C 0.72078 0.14216 0.74196 0.0
C388 C 0.69095 0.13895 0.75176 0.0
H389 H 0.69786 0.07551 0.68003 0.0
H390 H 0.74222 0.16229 0.75608 0.0
H391 H 0.7335 0.05761 0.70715 0.0
H392 H 0.78516 0.08053 0.83224 0.0
H393 H 0.76286 0.22483 0.61148 0.0
H394 H 0.64511 0.0687 0.69442 0.0
H395 H 0.68971 0.15687 0.77295 0.0
H396 H 0.21051 0.46936 0.36023 0.0
H397 H 0.19097 0.37165 0.36795 0.0
H398 H 0.21964 0.46989 0.27714 0.0
H399 H 0.20038 0.3722 0.28463 0.0
H400 H 0.18556 0.37331 0.12816 0.0
H401 H 0.176 0.37325 0.21136 0.0
H402 H 0.25685 0.46946 0.22184 0.0
H403 H 0.26615 0.46954 0.13887 0.0
C404 C 0.2087 0.44816 0.34433 0.0
C405 C 0.20008 0.42048 0.37074 0.0
C406 C 0.21386 0.44843 0.29662 0.0
C407 C 0.21063 0.42105 0.27418 0.0
C408 C 0.20248 0.3935 0.30071 0.0
C409 C 0.19722 0.39321 0.34845 0.0
C410 C 0.20123 0.39442 0.14828 0.0
C411 C 0.22656 0.42144 0.12688 0.0
C412 C 0.19586 0.39436 0.19596 0.0
C413 C 0.21577 0.4213 0.22331 0.0
C414 C 0.24078 0.44848 0.20172 0.0
C415 C 0.24607 0.44857 0.15407 0.0
H416 H 0.86494 0.23884 0.31302 0.0
H417 H 0.76642 0.21376 0.29365 0.0
H418 H 0.85655 0.23193 0.39631 0.0
H419 H 0.75746 0.20568 0.37724 0.0
H420 H 0.75911 0.22344 0.53158 0.0
H421 H 0.76982 0.23373 0.44912 0.0
H422 H 0.83127 0.19243 0.45392 0.0
H423 H 0.82234 0.18415 0.53676 0.0
C424 C 0.8413 0.23131 0.32657 0.0
C425 C 0.81627 0.22669 0.29682 0.0
C426 C 0.83645 0.22731 0.3744 0.0
C427 C 0.80631 0.2182 0.39365 0.0
C428 C 0.78115 0.21329 0.36375 0.0
C429 C 0.78616 0.21769 0.31587 0.0
C430 C 0.77542 0.21713 0.51537 0.0
C431 C 0.78967 0.20275 0.54109 0.0
C432 C 0.78116 0.22257 0.46777 0.0
C433 C 0.80113 0.2136 0.44463 0.0
C434 C 0.81594 0.1999 0.47054 0.0
C435 C 0.81046 0.19475 0.51815 0.0
H436 H 0.63292 0.81324 0.46281 0.0
H437 H 0.53719 0.79862 0.47216 0.0
H438 H 0.63202 0.80257 0.54568 0.0
H439 H 0.53628 0.78809 0.55498 0.0
H440 H 0.53611 0.74045 0.69351 0.0
H441 H 0.53542 0.74973 0.61047 0.0
H442 H 0.63285 0.82844 0.6186 0.0
H443 H 0.63352 0.819 0.70159 0.0
C444 C 0.6117 0.80777 0.48256 0.0
C445 C 0.58517 0.80686 0.46091 0.0
C446 C 0.61121 0.80176 0.53006 0.0
C447 C 0.58418 0.79476 0.55701 0.0
C448 C 0.55735 0.79308 0.53514 0.0
C449 C 0.55783 0.79903 0.48761 0.0
C450 C 0.5572 0.76002 0.67771 0.0
C451 C 0.58491 0.77892 0.70411 0.0
C452 C 0.55685 0.7653 0.63008 0.0
C453 C 0.58418 0.78964 0.60784 0.0
C454 C 0.61163 0.80903 0.63449 0.0
C455 C 0.61199 0.80371 0.68206 0.0
H456 H 0.82549 0.63414 0.62722 0.0
H457 H 0.74533 0.53776 0.63831 0.0
H458 H 0.83595 0.6341 0.71005 0.0
H459 H 0.75529 0.53778 0.72117 0.0
H460 H 0.80097 0.53812 0.86021 0.0
H461 H 0.79162 0.53719 0.77695 0.0
H462 H 0.81323 0.63572 0.78325 0.0
H463 H 0.82313 0.63666 0.86638 0.0
C464 C 0.81008 0.61298 0.64743 0.0
C465 C 0.78461 0.58597 0.62628 0.0
C466 C 0.81595 0.61297 0.69492 0.0
C467 C 0.79632 0.58601 0.72241 0.0
C468 C 0.77117 0.5588 0.701 0.0
C469 C 0.76545 0.55874 0.65346 0.0
C470 C 0.80336 0.55943 0.84385 0.0
C471 C 0.8128 0.58746 0.86979 0.0
C472 C 0.79804 0.55894 0.79611 0.0
C473 C 0.8018 0.58643 0.77328 0.0
C474 C 0.81076 0.61432 0.79948 0.0
C475 C 0.8163 0.61486 0.84715 0.0
H476 H 0.20472 0.73654 0.80562 0.0
H477 H 0.18743 0.81601 0.79589 0.0
H478 H 0.21585 0.74697 0.88828 0.0
H479 H 0.19905 0.82689 0.87837 0.0
H480 H 0.18833 0.81665 0.03511 0.0
H481 H 0.17672 0.80484 0.95279 0.0
H482 H 0.25412 0.78443 0.94209 0.0
H483 H 0.26525 0.79575 0.02459 0.0
C484 C 0.20375 0.75653 0.82104 0.0
C485 C 0.19514 0.77541 0.79428 0.0
C486 C 0.21011 0.76252 0.86844 0.0
C487 C 0.20822 0.78769 0.8901 0.0
C488 C 0.20009 0.80689 0.86307 0.0
C489 C 0.19353 0.80075 0.81576 0.0
C490 C 0.20285 0.80967 0.0151 0.0
C491 C 0.22772 0.80717 0.03629 0.0
C492 C 0.19629 0.80301 0.96789 0.0
C493 C 0.21462 0.79388 0.94067 0.0
C494 C 0.23924 0.79097 0.96208 0.0
C495 C 0.24563 0.79743 0.00939 0.0
H496 H 0.47267 0.21205 0.97048 0.0
H497 H 0.3732 0.18639 0.9659 0.0
H498 H 0.47378 0.22146 0.05378 0.0
H499 H 0.37429 0.19607 0.04909 0.0
H500 H 0.37747 0.18341 0.20485 0.0
H501 H 0.37773 0.17313 0.12198 0.0
H502 H 0.47146 0.25747 0.10972 0.0
H503 H 0.47123 0.26747 0.1925 0.0
C504 C 0.45118 0.20888 0.98715 0.0
C505 C 0.42284 0.19841 0.96161 0.0
C506 C 0.45177 0.2142 0.03492 0.0
C507 C 0.42406 0.20931 0.05821 0.0
C508 C 0.39588 0.1994 0.03245 0.0
C509 C 0.39526 0.19396 0.98474 0.0
C510 C 0.39812 0.19968 0.18442 0.0
C511 C 0.42429 0.22625 0.20525 0.0
C512 C 0.39825 0.19389 0.13692 0.0
C513 C 0.42452 0.21463 0.1091 0.0
C514 C 0.451 0.24079 0.13018 0.0
C515 C 0.45091 0.2465 0.17771 0.0
H516 H 0.2334 0.26535 0.81878 0.0
H517 H 0.29347 0.29502 0.94114 0.0
H518 H 0.25271 0.229 0.79855 0.0
H519 H 0.312 0.2579 0.92118 0.0
H520 H 0.31874 0.16763 0.88592 0.0
H521 H 0.29288 0.19805 0.91024 0.0
H522 H 0.30679 0.23862 0.77277 0.0
H523 H 0.33263 0.20859 0.74868 0.0
C524 C 0.25068 0.26426 0.84146 0.0
C525 C 0.26212 0.2837 0.88134 0.0
C526 C 0.2616 0.24321 0.82991 0.0
C527 C 0.28396 0.24072 0.85815 0.0
C528 C 0.29452 0.2591 0.89897 0.0
C529 C 0.28384 0.28044 0.91035 0.0
C530 C 0.31583 0.18272 0.86083 0.0
C531 C 0.32766 0.18574 0.8154 0.0
C532 C 0.30128 0.20028 0.87482 0.0
C533 C 0.29781 0.22067 0.84337 0.0
C534 C 0.30882 0.22287 0.79764 0.0
C535 C 0.32376 0.20578 0.78392 0.0
H536 H 0.15087 0.30666 0.03088 0.0
H537 H 0.13398 0.35691 0.92021 0.0
H538 H 0.09434 0.28103 0.05276 0.0
H539 H 0.078 0.33195 0.94254 0.0
H540 H 0.97359 0.26017 0.96483 0.0
H541 H 0.0291 0.28086 0.94285 0.0
H542 H 0.05659 0.29511 0.0874 0.0
H543 H 1.00065 0.27306 0.10962 0.0
C544 C 0.13509 0.31209 0.01106 0.0
C545 C 0.14692 0.33377 0.97371 0.0
C546 C 0.10277 0.29762 0.02385 0.0
C547 C 0.0816 0.30442 -0.00059 0.0
C548 C 0.09347 0.32578 0.96172 0.0
C549 C 0.12568 0.34025 0.94905 0.0
C550 C 0.99129 0.26724 0.99208 0.0
C551 C 0.98246 0.26492 0.03908 0.0
C552 C 0.02327 0.27949 0.9794 0.0
C553 C 0.04738 0.28983 0.01332 0.0
C554 C 0.0386 0.28711 0.06037 0.0
C555 C 0.00653 0.27484 0.0731 0.0
H556 H 0.77272 0.13752 0.12023 0.0
H557 H 0.8592 0.14632 0.17889 0.0
H558 H 0.74255 0.08231 0.14706 0.0
H559 H 0.82867 0.0904 0.20542 0.0
H560 H 0.76268 0.9772 0.18971 0.0
H561 H 0.79632 0.03355 0.16736 0.0
H562 H 0.72707 0.05503 0.22678 0.0
H563 H 0.6935 0.99882 0.24903 0.0
C564 C 0.78539 0.12763 0.13861 0.0
C565 C 0.81842 0.14635 0.1474 0.0
C566 C 0.76799 0.09603 0.15427 0.0
C567 C 0.78322 0.08217 0.17859 0.0
C568 C 0.81638 0.10055 0.18666 0.0
C569 C 0.8338 0.13249 0.17155 0.0
C570 C 0.75474 0.99402 0.19807 0.0
C571 C 0.72538 0.98359 0.2209 0.0
C572 C 0.7741 0.02626 0.18565 0.0
C573 C 0.76422 0.04858 0.19517 0.0
C574 C 0.73515 0.03826 0.21874 0.0
C575 C 0.71605 0.00616 0.23175 0.0
H576 H 0.74862 0.71658 0.30513 0.0
H577 H 0.73953 0.73263 0.45057 0.0
H578 H 0.72731 0.75096 0.28431 0.0
H579 H 0.71676 0.76619 0.42945 0.0
H580 H 0.70341 0.84823 0.37079 0.0
H581 H 0.72942 0.8177 0.3931 0.0
H582 H 0.67581 0.74759 0.28711 0.0
H583 H 0.6505 0.77815 0.26438 0.0
C584 C 0.74231 0.72756 0.3328 0.0
C585 C 0.74588 0.72168 0.37964 0.0
C586 C 0.72967 0.74705 0.32077 0.0
C587 C 0.72006 0.76115 0.35518 0.0
C588 C 0.72411 0.75585 0.40207 0.0
C589 C 0.73682 0.73628 0.41418 0.0
C590 C 0.69744 0.82644 0.35206 0.0
C591 C 0.675 0.81572 0.31565 0.0
C592 C 0.71213 0.80882 0.36508 0.0
C593 C 0.70479 0.78025 0.34179 0.0
C594 C 0.68244 0.76973 0.30531 0.0
C595 C 0.66777 0.78722 0.29243 0.0
H596 H 0.01105 0.74066 0.61268 0.0
H597 H 0.03781 0.75451 0.46777 0.0
H598 H 0.95505 0.71836 0.59082 0.0
H599 H 0.98221 0.73361 0.4462 0.0
H600 H 0.87833 0.65473 0.42414 0.0
H601 H 0.93442 0.6816 0.44604 0.0
H602 H 0.9159 0.73076 0.5566 0.0
H603 H 0.85916 0.70316 0.53509 0.0
C604 C 1.00512 0.73914 0.57621 0.0
C605 C 0.02912 0.7492 0.54205 0.0
C606 C 0.97299 0.72671 0.5637 0.0
C607 C 0.96408 0.72402 0.51673 0.0
C608 C 0.98816 0.73491 0.48268 0.0
C609 C 0.0202 0.74727 0.49515 0.0
C610 C 0.88615 0.67139 0.45299 0.0
C611 C 0.86423 0.67679 0.47785 0.0
C612 C 0.91844 0.68699 0.46537 0.0
C613 C 0.92975 0.70846 0.50299 0.0
C614 C 0.90791 0.71417 0.52768 0.0
C615 C 0.87547 0.69855 0.51515 0.0
H616 H 0.31335 0.00832 0.75929 0.0
H617 H 0.24948 0.02992 0.683 0.0
H618 H 0.27993 0.9516 0.73963 0.0
H619 H 0.21588 0.97296 0.66336 0.0
H620 H 0.15078 0.86052 0.67914 0.0
H621 H 0.18054 0.9167 0.70493 0.0
H622 H 0.26884 0.92309 0.65977 0.0
H623 H 0.23943 0.86763 0.63352 0.0
C624 C 0.2919 1.00086 0.73894 0.0
C625 C 0.28406 0.02353 0.72254 0.0
C626 C 0.2729 0.96846 0.72744 0.0
C627 C 0.2454 0.95798 0.69989 0.0
C628 C 0.23687 0.98042 0.68485 0.0
C629 C 0.25619 0.01296 0.69575 0.0
C630 C 0.17653 0.874 0.67473 0.0
C631 C 0.19275 0.8597 0.65418 0.0
C632 C 0.19349 0.90608 0.68934 0.0
C633 C 0.22697 0.92408 0.68454 0.0
C634 C 0.24309 0.90966 0.66431 0.0
C635 C 0.22617 0.87794 0.64901 0.0
H636 H 0.80173 0.67913 0.08041 0.0
H637 H 0.84283 0.69066 0.94369 0.0
H638 H 0.77277 0.70572 0.0547 0.0
H639 H 0.81337 0.71718 0.91768 0.0
H640 H 0.71604 0.71677 0.88648 0.0
H641 H 0.75315 0.69827 0.90685 0.0
H642 H 0.78415 0.76043 0.02659 0.0
H643 H 0.74788 0.77971 0.00585 0.0
C644 C 0.8048 0.68765 0.04493 0.0
C645 C 0.82457 0.6829 0.01408 0.0
C646 C 0.78833 0.703 0.03028 0.0
C647 C 0.79085 0.71355 0.98421 0.0
C648 C 0.81095 0.7092 0.95336 0.0
C649 C 0.82795 0.69427 0.9683 0.0
C650 C 0.73115 0.72707 0.91661 0.0
C651 C 0.72844 0.74948 0.94484 0.0
C652 C 0.75246 0.71641 0.92825 0.0
C653 C 0.77131 0.72771 0.96852 0.0
C654 C 0.76955 0.75096 0.99571 0.0
C655 C 0.74855 0.76185 0.98388 0.0
H656 H 1.00002 0.73425 0.04796 0.0
H657 H 0.97491 0.72149 0.19353 0.0
H658 H 0.05637 0.76785 0.06872 0.0
H659 H 0.03064 0.75603 0.2139 0.0
H660 H 0.13387 0.7811 0.23507 0.0
H661 H 0.07795 0.75141 0.21269 0.0
H662 H 0.0962 0.81966 0.10307 0.0
H663 H 0.1529 0.84932 0.12505 0.0
C664 C 0.00637 0.73865 0.0843 0.0
C665 C 0.98271 0.72483 0.11898 0.0
C666 C 0.03868 0.75827 0.09618 0.0
C667 C 0.04807 0.76449 0.143 0.0
C668 C 0.02434 0.75137 0.17751 0.0
C669 C 0.99218 0.73177 0.16571 0.0
C670 C 0.12606 0.78997 0.20629 0.0
C671 C 0.14788 0.81766 0.18193 0.0
C672 C 0.09386 0.77299 0.19362 0.0
C673 C 0.08249 0.78323 0.15625 0.0
C674 C 0.10425 0.81102 0.13183 0.0
C675 C 0.13665 0.82814 0.14463 0.0
H676 H 0.31162 0.99754 0.2455 0.0
H677 H 0.22357 0.97574 0.31441 0.0
H678 H 0.33481 0.05396 0.26703 0.0
H679 H 0.2468 0.03236 0.33593 0.0
H680 H 0.29503 0.14486 0.32092 0.0
H681 H 0.26914 0.08865 0.29573 0.0
H682 H 0.34985 0.08226 0.34673 0.0
H683 H 0.37544 0.13786 0.37235 0.0
C684 C 0.2971 0.0049 0.26471 0.0
C685 C 0.26582 0.98225 0.27839 0.0
C686 C 0.31043 0.03711 0.27732 0.0
C687 C 0.29261 0.04745 0.30328 0.0
C688 C 0.26099 0.02503 0.31575 0.0
C689 C 0.24782 0.99267 0.30376 0.0
C690 C 0.30712 0.13136 0.3269 0.0
C691 C 0.33724 0.14578 0.34871 0.0
C692 C 0.2923 0.09925 0.31259 0.0
C693 C 0.30763 0.08124 0.31905 0.0
C694 C 0.33767 0.09569 0.34088 0.0
C695 C 0.35219 0.12749 0.35583 0.0
H696 H 0.24802 0.22007 0.47694 0.0
H697 H 0.31928 0.31159 0.42151 0.0
H698 H 0.21487 0.24322 0.49933 0.0
H699 H 0.28621 0.33468 0.44381 0.0
H700 H 0.23909 0.37094 0.54865 0.0
H701 H 0.26932 0.34575 0.52292 0.0
H702 H 0.184 0.26877 0.4606 0.0
H703 H 0.15347 0.29427 0.48599 0.0
C704 C 0.25654 0.24509 0.46951 0.0
C705 C 0.2863 0.26406 0.44766 0.0
C706 C 0.23747 0.25824 0.48195 0.0
C707 C 0.24804 0.29075 0.47346 0.0
C708 C 0.27759 0.3096 0.45106 0.0
C709 C 0.2964 0.29634 0.43801 0.0
C710 C 0.22663 0.34857 0.52965 0.0
C711 C 0.19383 0.33459 0.5194 0.0
C712 C 0.24405 0.33428 0.51463 0.0
C713 C 0.22906 0.30544 0.48953 0.0
C714 C 0.19611 0.29099 0.48001 0.0
C715 C 0.17869 0.3056 0.49447 0.0
H716 H 0.00774 0.29417 0.55964 0.0
H717 H 0.03913 0.26798 0.68443 0.0
H718 H 0.95227 0.25773 0.58127 0.0
H719 H 0.98368 0.23244 0.70626 0.0
H720 H 0.88315 0.21299 0.75503 0.0
H721 H 0.93897 0.24282 0.7303 0.0
H722 H 0.91213 0.19773 0.59556 0.0
H723 H 0.85602 0.16748 0.62053 0.0
C724 C 1.00309 0.28056 0.59136 0.0
C725 C 0.02834 0.28461 0.62045 0.0
C726 C 0.97115 0.2596 0.60371 0.0
C727 C 0.96367 0.24243 0.6456 0.0
C728 C 0.98875 0.24573 0.67406 0.0
C729 C 0.02063 0.26634 0.66153 0.0
C730 C 0.88919 0.20914 0.72031 0.0
C731 C 0.86525 0.18785 0.68977 0.0
C732 C 0.92116 0.22613 0.70622 0.0
C733 C 0.92989 0.22261 0.661 0.0
C734 C 0.90603 0.201 0.63054 0.0
C735 C 0.87402 0.18353 0.64495 0.0
H736 H 0.78507 0.03012 0.8153 0.0
H737 H 0.69614 0.00945 0.75038 0.0
H738 H 0.76215 0.97322 0.83449 0.0
H739 H 0.67321 0.95266 0.76967 0.0
H740 H 0.63472 0.86775 0.87397 0.0
H741 H 0.65954 0.9234 0.84895 0.0
H742 H 0.73914 0.91746 0.79198 0.0
H743 H 0.71396 0.86114 0.81653 0.0
C744 C 0.76067 0.01339 0.80508 0.0
C745 C 0.74232 0.02421 0.78157 0.0
C746 C 0.74768 0.98086 0.81568 0.0
C747 C 0.71592 0.95863 0.80366 0.0
C748 C 0.69773 0.96936 0.77954 0.0
C749 C 0.71088 1.00178 0.76827 0.0
C750 C 0.65755 0.87822 0.8562 0.0
C751 C 0.67243 0.86005 0.84733 0.0
C752 C 0.67162 0.91004 0.84158 0.0
C753 C 0.70114 0.92464 0.81836 0.0
C754 C 0.71636 0.90672 0.80994 0.0
C755 C 0.70195 0.87456 0.82389 0.0
H756 H 0.26894 0.30684 0.04116 0.0
H757 H 0.28902 0.37682 0.14891 0.0
H758 H 0.28485 0.27725 0.09353 0.0
H759 H 0.30409 0.3468 0.20142 0.0
H760 H 0.31012 0.27235 0.29261 0.0
H761 H 0.28076 0.28924 0.24119 0.0
H762 H 0.34342 0.29847 0.12796 0.0
H763 H 0.37318 0.28244 0.17938 0.0
C764 C 0.27611 0.31554 0.07621 0.0
C765 C 0.27822 0.34437 0.09078 0.0
C766 C 0.28519 0.29861 0.10611 0.0
C767 C 0.29565 0.30982 0.15136 0.0
C768 C 0.29585 0.33755 0.16679 0.0
C769 C 0.28749 0.35482 0.13664 0.0
C770 C 0.31721 0.27746 0.25655 0.0
C771 C 0.34407 0.27645 0.23997 0.0
C772 C 0.30049 0.28713 0.22726 0.0
C773 C 0.30989 0.29508 0.18075 0.0
C774 C 0.33555 0.29219 0.16358 0.0
C775 C 0.35268 0.28326 0.19305 0.0
H776 H 0.97155 0.27441 0.20263 0.0
H777 H 0.91901 0.29059 0.31044 0.0
H778 H 0.01648 0.29023 0.25652 0.0
H779 H 0.96325 0.30533 0.36427 0.0
H780 H 0.04134 0.30926 0.45787 0.0
H781 H 0.99681 0.2809 0.40327 0.0
H782 H 0.0525 0.34827 0.2957 0.0
H783 H 0.09659 0.37702 0.35033 0.0
C784 C 0.96936 0.28068 0.23801 0.0
C785 C 0.94198 0.28155 0.25235 0.0
C786 C 0.99498 0.2897 0.26871 0.0
C787 C 0.99314 0.29881 0.31446 0.0
C788 C 0.96509 0.29806 0.32933 0.0
C789 C 0.93991 0.28985 0.29844 0.0
C790 C 0.04422 0.31763 0.42239 0.0
C791 C 0.07219 0.3455 0.40839 0.0
C792 C 0.0188 0.30146 0.39125 0.0
C793 C 0.02136 0.31246 0.3454 0.0
C794 C 0.05007 0.33917 0.33074 0.0
C795 C 0.07514 0.35573 0.36208 0.0
H796 H 0.69892 0.96761 0.37594 0.0
H797 H 0.63212 0.91478 0.48572 0.0
H798 H 0.7273 0.01369 0.42815 0.0
H799 H 0.66096 0.96041 0.53802 0.0
H800 H 0.73682 0.04261 0.62725 0.0
H801 H 0.71966 0.9967 0.575 0.0
H802 H 0.7036 0.04862 0.46624 0.0
H803 H 0.71987 0.09413 0.51861 0.0
C804 C 0.69074 0.96563 0.41142 0.0
C805 C 0.66318 0.93783 0.42676 0.0
C806 C 0.70691 0.99194 0.44116 0.0
C807 C 0.69624 0.99045 0.48695 0.0
C808 C 0.66976 0.96201 0.50296 0.0
C809 C 0.65319 0.93604 0.47299 0.0
C810 C 0.72998 0.04434 0.59206 0.0
C811 C 0.72927 0.07173 0.5771 0.0
C812 C 0.7202 0.01812 0.56227 0.0
C813 C 0.71041 0.01929 0.51675 0.0
C814 C 0.71131 0.0473 0.50109 0.0
C815 C 0.72036 0.07318 0.53114 0.0
H816 H 0.68984 0.61081 0.62546 0.0
H817 H 0.75419 0.70223 0.56173 0.0
H818 H 0.67064 0.63693 0.67782 0.0
H819 H 0.73481 0.72853 0.61544 0.0
H820 H 0.70336 0.75285 0.76671 0.0
H821 H 0.73014 0.73425 0.71264 0.0
H822 H 0.6386 0.6668 0.65332 0.0
H823 H 0.61199 0.68519 0.7061 0.0
C824 C 0.70015 0.63656 0.62281 0.0
C825 C 0.72331 0.65439 0.58897 0.0
C826 C 0.6891 0.65146 0.6529 0.0
C827 C 0.7011 0.6846 0.65029 0.0
C828 C 0.7253 0.7029 0.61803 0.0
C829 C 0.73624 0.68785 0.58732 0.0
C830 C 0.68907 0.73433 0.74172 0.0
C831 C 0.65551 0.72024 0.74108 0.0
C832 C 0.7044 0.72385 0.71078 0.0
C833 C 0.68629 0.69897 0.6793 0.0
C834 C 0.653 0.68581 0.67764 0.0
C835 C 0.63781 0.6964 0.70797 0.0
H836 H 0.07874 0.76233 0.77235 0.0
H837 H 0.04327 0.66568 0.72376 0.0
H838 H 0.03576 0.74254 0.83041 0.0
H839 H 0.99933 0.64599 0.7788 0.0
H840 H 0.95086 0.61249 0.91481 0.0
H841 H 0.99323 0.63641 0.85767 0.0
H842 H 0.98057 0.71908 0.84927 0.0
H843 H 0.939 0.69547 0.90925 0.0
C844 C 0.06122 0.73697 0.77354 0.0
C845 C 0.06428 0.71536 0.74435 0.0
C846 C 0.03659 0.72559 0.80658 0.0
C847 C 0.01439 0.6925 0.81015 0.0
C848 C 0.01658 0.67142 0.77847 0.0
C849 C 0.04153 0.68266 0.74653 0.0
C850 C 0.95718 0.63582 0.90085 0.0
C851 C 0.9415 0.65202 0.91599 0.0
C852 C 0.98133 0.64949 0.86768 0.0
C853 C 0.9899 0.6794 0.84775 0.0
C854 C 0.9747 0.69606 0.86385 0.0
C855 C 0.95085 0.68256 0.89804 0.0
H856 H 0.34382 0.95287 0.08884 0.0
H857 H 0.2473 0.93282 0.06476 0.0
H858 H 0.36413 0.99777 0.03564 0.0
H859 H 0.26727 0.97669 0.00819 0.0
H860 H 0.31885 0.07581 0.93608 0.0
H861 H 0.29542 0.03191 0.99266 0.0
H862 H 0.36803 0.00767 0.95771 0.0
H863 H 0.39229 0.05264 0.90452 0.0
C864 C 0.32692 0.95797 0.07151 0.0
C865 C 0.29405 0.93932 0.08031 0.0
C866 C 0.33849 0.98356 0.04059 0.0
C867 C 0.31736 0.99055 0.0164 0.0
C868 C 0.28433 0.97221 0.02619 0.0
C869 C 0.27282 0.947 0.05835 0.0
C870 C 0.32958 0.06092 0.94087 0.0
C871 C 0.35756 0.06772 0.91681 0.0
C872 C 0.31615 0.03569 0.97301 0.0
C873 C 0.33012 0.01645 0.98068 0.0
C874 C 0.35723 0.02258 0.9544 0.0
C875 C 0.37105 0.0482 0.9235 0.0
H876 H 0.52096 0.63352 0.98013 0.0
H877 H 0.53546 0.60854 0.84175 0.0
H878 H 0.47202 0.58167 0.98701 0.0
H879 H 0.48722 0.55626 0.84933 0.0
H880 H 0.37785 0.48739 0.8574 0.0
H881 H 0.42987 0.53613 0.85122 0.0
H882 H 0.45115 0.52412 0.99297 0.0
H883 H 0.39865 0.47603 -0.00029 0.0
C884 C 0.51388 0.61687 0.95134 0.0
C885 C 0.53209 0.6253 0.91031 0.0
C886 C 0.48599 0.58699 0.95546 0.0
C887 C 0.47561 0.56484 0.91862 0.0
C888 C 0.49432 0.57291 0.87814 0.0
C889 C 0.52222 0.60275 0.87404 0.0
C890 C 0.39361 0.49514 0.88725 0.0
C891 C 0.38398 0.47785 0.92911 0.0
C892 C 0.4236 0.52291 0.88356 0.0
C893 C 0.44467 0.5341 0.92166 0.0
C894 C 0.43536 0.51637 0.96314 0.0
C895 C 0.4054 0.48857 0.9668 0.0
H896 H 0.94768 0.40563 0.07342 0.0
H897 H 0.84908 0.35795 0.11822 0.0
H898 H 0.94798 0.45653 0.06943 0.0
H899 H 0.8495 0.40855 0.11567 0.0
H900 H 0.84829 0.49497 0.05763 0.0
H901 H 0.84977 0.44541 0.06198 0.0
H902 H 0.94666 0.49772 0.11452 0.0
H903 H 0.94534 0.54772 0.10884 0.0
C904 C 0.92616 0.4061 0.08263 0.0
C905 C 0.89823 0.37776 0.0955 0.0
C906 C 0.92634 0.43526 0.08062 0.0
C907 C 0.89868 0.43671 0.09193 0.0
C908 C 0.871 0.40833 0.10558 0.0
C909 C 0.87074 0.37926 0.10709 0.0
C910 C 0.86978 0.49586 0.07069 0.0
C911 C 0.89658 0.52522 0.08335 0.0
C912 C 0.87065 0.46739 0.07321 0.0
C913 C 0.89826 0.4674 0.08893 0.0
C914 C 0.92513 0.49682 0.10171 0.0
C915 C 0.92434 0.52545 0.09873 0.0
H916 H 0.51976 0.88684 0.18994 0.0
H917 H 0.53219 0.92421 0.32965 0.0
H918 H 0.46917 0.8865 0.18414 0.0
H919 H 0.48223 0.92489 0.32286 0.0
H920 H 0.40379 0.94741 0.27116 0.0
H921 H 0.45641 0.9514 0.27611 0.0
H922 H 0.41532 0.85442 0.22504 0.0
H923 H 0.36296 0.85044 0.22002 0.0
C924 C 0.51188 0.89508 0.21937 0.0
C925 C 0.53013 0.90534 0.2604 0.0
C926 C 0.48291 0.89497 0.21592 0.0
C927 C 0.47171 0.90549 0.25316 0.0
C928 C 0.49043 0.9169 0.29347 0.0
C929 C 0.51919 0.91665 0.29718 0.0
C930 C 0.40607 0.92697 0.26113 0.0
C931 C 0.37926 0.89856 0.24544 0.0
C932 C 0.43609 0.92921 0.26409 0.0
C933 C 0.43995 0.90329 0.25065 0.0
C934 C 0.41312 0.87489 0.23513 0.0
C935 C 0.38309 0.87249 0.2328 0.0
H936 H 0.48775 0.37524 0.4758 0.0
H937 H 0.48003 0.39544 0.33174 0.0
H938 H 0.5377 0.42618 0.48215 0.0
H939 H 0.5291 0.44697 0.33872 0.0
H940 H 0.63747 0.51609 0.35297 0.0
H941 H 0.58573 0.46707 0.34636 0.0
H942 H 0.55999 0.48348 0.4831 0.0
H943 H 0.61223 0.5316 0.49062 0.0
C944 C 0.49655 0.39062 0.44558 0.0
C945 C 0.47983 0.38112 0.40324 0.0
C946 C 0.52504 0.42003 0.44935 0.0
C947 C 0.53751 0.44069 0.41089 0.0
C948 C 0.52043 0.4315 0.36887 0.0
C949 C 0.49199 0.4021 0.36508 0.0
C950 C 0.62084 0.5092 0.3817 0.0
C951 C 0.62914 0.52782 0.42236 0.0
C952 C 0.59099 0.48125 0.37771 0.0
C953 C 0.56867 0.47125 0.41426 0.0
C954 C 0.57672 0.49023 0.45451 0.0
C955 C 0.60656 0.51812 0.45853 0.0
H956 H 0.12736 0.6383 0.51243 0.0
H957 H 0.07666 0.60775 0.64302 0.0
H958 H 0.12622 0.58724 0.50625 0.0
H959 H 0.07491 0.55651 0.63602 0.0
H960 H 0.05645 0.45731 0.5851 0.0
H961 H 0.05274 0.50623 0.58731 0.0
H962 H 0.1528 0.56237 0.55089 0.0
H963 H 0.15641 0.51373 0.54817 0.0
C964 C 0.11585 0.62073 0.53973 0.0
C965 C 0.10233 0.62738 0.57841 0.0
C966 C 0.11515 0.59144 0.53609 0.0
C967 C 0.10068 0.56798 0.57083 0.0
C968 C 0.08598 0.57401 0.6085 0.0
C969 C 0.0869 0.6034 0.61236 0.0
C970 C 0.07758 0.48012 0.57749 0.0
C971 C 0.10676 0.48171 0.56673 0.0
C972 C 0.0755 0.50809 0.57895 0.0
C973 C 0.10244 0.53809 0.56899 0.0
C974 C 0.13154 0.53958 0.55815 0.0
C975 C 0.1337 0.51176 0.55719 0.0
H976 H 0.60496 0.06086 0.75526 0.0
H977 H 0.65021 0.16139 0.72027 0.0
H978 H 0.55293 0.05815 0.75884 0.0
H979 H 0.59841 0.15874 0.7242 0.0
H980 H 0.49624 0.13288 0.68506 0.0
H981 H 0.54651 0.13254 0.67933 0.0
H982 H 0.52583 0.08085 0.80879 0.0
H983 H 0.47611 0.08196 0.81552 0.0
C984 C 0.60378 0.08235 0.74842 0.0
C985 C 0.63167 0.11137 0.73769 0.0
C986 C 0.57406 0.08083 0.75066 0.0
C987 C 0.5716 0.10819 0.74154 0.0
C988 C 0.5995 0.13718 0.73087 0.0
C989 C 0.62921 0.13878 0.72919 0.0
C990 C 0.50239 0.12156 0.71247 0.0
C991 C 0.48202 0.10759 0.75088 0.0
C992 C 0.53119 0.12131 0.70908 0.0
C993 C 0.54016 0.1068 0.74373 0.0
C994 C 0.51941 0.09193 0.78132 0.0
C995 C 0.49078 0.09246 0.78499 0.0
loop_
_geom_bond_atom_site_label_1
_geom_bond_atom_site_label_2
_geom_bond_distance
_geom_bond_site_symmetry_2
_ccdc_geom_bond_type
C0 C1 1.351 . S
C0 N3 1.368 . S
C0 H5 0.931 . S
C1 C0 1.351 . S
C1 N2 1.373 . S
C1 H29 0.930 . S
N2 C1 1.373 . S
N2 C4 1.340 . S
N3 C0 1.368 . S
N3 C4 1.321 . S
N3 Co6 2.135 1_556 S
C4 N2 1.340 . S
C4 N3 1.321 . S
C4 H28 0.930 . S
H5 C0 0.931 . S
Co6 N3 2.135 1_554 S
Co6 N9 2.121 . S
Co6 O14 2.055 . S
Co6 O17 2.039 . S
Co6 N20 2.140 1_554 S
C7 O8 1.227 . S
C7 O17 1.265 . S
O8 C7 1.227 . S
N9 Co6 2.121 . S
N9 C11 1.375 . S
N9 C12 1.313 . S
C10 C11 1.338 . S
C10 N13 1.377 . S
C10 H30 0.930 . S
C11 N9 1.375 . S
C11 C10 1.338 . S
C11 H15 0.931 . S
C12 N9 1.313 . S
C12 N13 1.344 . S
C12 H16 0.930 . S
N13 C10 1.377 . S
N13 C12 1.344 . S
O14 Co6 2.055 . S
O14 C18 1.253 1_554 S
H15 C11 0.931 . S
H16 C12 0.930 . S
O17 Co6 2.039 . S
O17 C7 1.265 . S
C18 O14 1.253 1_556 S
C18 O19 1.227 . S
O19 C18 1.227 . S
N20 Co6 2.140 1_556 S
N20 C23 1.346 . S
N20 C24 1.345 . S
C21 C22 1.387 . S
C21 C25 1.391 . S
C22 C21 1.387 . S
C22 C23 1.369 . S
C22 H31 0.929 . S
C23 N20 1.346 . S
C23 C22 1.369 . S
C23 H26 0.928 . S
C24 N20 1.345 . S
C24 C25 1.371 . S
C24 H27 0.931 . S
C25 C21 1.391 . S
C25 C24 1.371 . S
C25 H32 0.930 . S
H26 C23 0.928 . S
H27 C24 0.931 . S
H28 C4 0.930 . S
H29 C1 0.930 . S
H30 C10 0.930 . S
H31 C22 0.929 . S
H32 C25 0.930 . S
C33 C34 1.351 . S
C33 N36 1.368 . S
C33 H38 0.931 . S
C34 C33 1.351 . S
C34 N35 1.373 . S
C34 H62 0.930 1_554 S
N35 C34 1.373 . S
N35 C37 1.340 . S
N36 C33 1.368 . S
N36 C37 1.321 . S
N36 Co39 2.135 . S
C37 N35 1.340 . S
C37 N36 1.321 . S
C37 H61 0.930 . S
H38 C33 0.931 . S
Co39 N36 2.135 . S
Co39 N42 2.121 . S
Co39 O47 2.055 . S
Co39 O50 2.039 . S
Co39 N53 2.140 . S
C40 O41 1.227 . S
C40 O50 1.265 . S
O41 C40 1.227 . S
N42 Co39 2.121 . S
N42 C44 1.375 . S
N42 C45 1.313 . S
C43 C44 1.338 . S
C43 N46 1.377 . S
C43 H63 0.930 . S
C44 N42 1.375 . S
C44 C43 1.338 . S
C44 H48 0.931 . S
C45 N42 1.313 . S
C45 N46 1.344 . S
C45 H49 0.930 . S
N46 C43 1.377 . S
N46 C45 1.344 . S
O47 Co39 2.055 . S
O47 C51 1.253 . S
H48 C44 0.931 . S
H49 C45 0.930 . S
O50 Co39 2.039 . S
O50 C40 1.265 . S
C51 O47 1.253 . S
C51 O52 1.227 . S
O52 C51 1.227 . S
N53 Co39 2.140 . S
N53 C56 1.346 . S
N53 C57 1.345 . S
C54 C55 1.387 . S
C54 C58 1.391 . S
C55 C54 1.387 . S
C55 C56 1.369 . S
C55 H64 0.929 . S
C56 N53 1.346 . S
C56 C55 1.369 . S
C56 H59 0.928 . S
C57 N53 1.345 . S
C57 C58 1.371 . S
C57 H60 0.931 . S
C58 C54 1.391 . S
C58 C57 1.371 . S
C58 H65 0.930 . S
H59 C56 0.928 . S
H60 C57 0.931 . S
H61 C37 0.930 . S
H62 C34 0.930 1_556 S
H63 C43 0.930 . S
H64 C55 0.929 . S
H65 C58 0.930 . S
C66 C67 1.351 . S
C66 N69 1.368 . S
C66 H71 0.931 . S
C67 C66 1.351 . S
C67 N68 1.373 . S
C67 H95 0.930 . S
N68 C67 1.373 . S
N68 C70 1.340 . S
N69 C66 1.368 . S
N69 C70 1.321 . S
N69 Co72 2.135 . S
C70 N68 1.340 . S
C70 N69 1.321 . S
C70 H94 0.930 . S
H71 C66 0.931 . S
Co72 N69 2.135 . S
Co72 N75 2.121 . S
Co72 O80 2.055 . S
Co72 O83 2.039 . S
Co72 N86 2.140 . S
C73 O74 1.227 . S
C73 O83 1.265 . S
O74 C73 1.227 . S
N75 Co72 2.121 . S
N75 C77 1.375 . S
N75 C78 1.313 . S
C76 C77 1.338 . S
C76 N79 1.377 . S
C76 H96 0.930 . S
C77 N75 1.375 . S
C77 C76 1.338 . S
C77 H81 0.931 . S
C78 N75 1.313 . S
C78 N79 1.344 . S
C78 H82 0.930 . S
N79 C76 1.377 . S
N79 C78 1.344 . S
O80 Co72 2.055 . S
O80 C84 1.253 . S
H81 C77 0.931 . S
H82 C78 0.930 . S
O83 Co72 2.039 . S
O83 C73 1.265 . S
C84 O80 1.253 . S
C84 O85 1.227 . S
O85 C84 1.227 . S
N86 Co72 2.140 . S
N86 C89 1.346 . S
N86 C90 1.345 . S
C87 C88 1.387 . S
C87 C91 1.391 . S
C88 C87 1.387 . S
C88 C89 1.369 . S
C88 H97 0.929 . S
C89 N86 1.346 . S
C89 C88 1.369 . S
C89 H92 0.928 . S
C90 N86 1.345 . S
C90 C91 1.371 . S
C90 H93 0.931 . S
C91 C87 1.391 . S
C91 C90 1.371 . S
C91 H98 0.930 . S
H92 C89 0.928 . S
H93 C90 0.931 . S
H94 C70 0.930 . S
H95 C67 0.930 . S
H96 C76 0.930 . S
H97 C88 0.929 . S
H98 C91 0.930 . S
C99 C100 1.351 . S
C99 N102 1.368 . S
C99 H104 0.931 . S
C100 C99 1.351 . S
C100 N101 1.373 . S
C100 H128 0.930 . S
N101 C100 1.373 . S
N101 C103 1.340 . S
N102 C99 1.368 . S
N102 C103 1.321 . S
N102 Co105 2.135 . S
C103 N101 1.340 . S
C103 N102 1.321 . S
C103 H127 0.930 . S
H104 C99 0.931 . S
Co105 N102 2.135 . S
Co105 N108 2.121 . S
Co105 O113 2.055 . S
Co105 O116 2.039 . S
Co105 N119 2.140 . S
C106 O107 1.227 . S
C106 O116 1.265 . S
O107 C106 1.227 . S
N108 Co105 2.121 . S
N108 C110 1.375 . S
N108 C111 1.313 . S
C109 C110 1.338 . S
C109 N112 1.377 . S
C109 H129 0.930 . S
C110 N108 1.375 . S
C110 C109 1.338 . S
C110 H114 0.931 . S
C111 N108 1.313 . S
C111 N112 1.344 . S
C111 H115 0.930 . S
N112 C109 1.377 . S
N112 C111 1.344 . S
O113 Co105 2.055 . S
O113 C117 1.253 . S
H114 C110 0.931 . S
H115 C111 0.930 . S
O116 Co105 2.039 . S
O116 C106 1.265 . S
C117 O113 1.253 . S
C117 O118 1.227 . S
O118 C117 1.227 . S
N119 Co105 2.140 . S
N119 C122 1.346 . S
N119 C123 1.345 . S
C120 C121 1.387 . S
C120 C124 1.391 . S
C121 C120 1.387 . S
C121 C122 1.369 . S
C121 H130 0.929 . S
C122 N119 1.346 . S
C122 C121 1.369 . S
C122 H125 0.928 . S
C123 N119 1.345 . S
C123 C124 1.371 . S
C123 H126 0.931 . S
C124 C120 1.391 . S
C124 C123 1.371 . S
C124 H131 0.930 . S
H125 C122 0.928 . S
H126 C123 0.931 . S
H127 C103 0.930 . S
H128 C100 0.930 . S
H129 C109 0.930 . S
H130 C121 0.929 . S
H131 C124 0.930 . S
C132 C133 1.351 . S
C132 N135 1.368 . S
C132 H137 0.931 . S
C133 C132 1.351 . S
C133 N134 1.373 . S
C133 H161 0.930 . S
N134 C133 1.373 . S
N134 C136 1.340 . S
N135 C132 1.368 . S
N135 C136 1.321 . S
N135 Co138 2.135 . S
C136 N134 1.340 . S
C136 N135 1.321 . S
C136 H160 0.930 . S
H137 C132 0.931 . S
Co138 N135 2.135 . S
Co138 N141 2.121 . S
Co138 O146 2.055 . S
Co138 O149 2.039 . S
Co138 N152 2.140 . S
C139 O140 1.227 . S
C139 O149 1.265 . S
O140 C139 1.227 . S
N141 Co138 2.121 . S
N141 C143 1.375 . S
N141 C144 1.313 . S
C142 C143 1.338 . S
C142 N145 1.377 . S
C142 H162 0.930 . S
C143 N141 1.375 . S
C143 C142 1.338 . S
C143 H147 0.931 . S
C144 N141 1.313 . S
C144 N145 1.344 . S
C144 H148 0.930 . S
N145 C142 1.377 . S
N145 C144 1.344 . S
O146 Co138 2.055 . S
O146 C150 1.253 . S
H147 C143 0.931 . S
H148 C144 0.930 . S
O149 Co138 2.039 . S
O149 C139 1.265 . S
C150 O146 1.253 . S
C150 O151 1.227 . S
O151 C150 1.227 . S
N152 Co138 2.140 . S
N152 C155 1.346 . S
N152 C156 1.345 . S
C153 C154 1.387 . S
C153 C157 1.391 . S
C154 C153 1.387 . S
C154 C155 1.369 . S
C154 H163 0.929 . S
C155 N152 1.346 . S
C155 C154 1.369 . S
C155 H158 0.928 . S
C156 N152 1.345 . S
C156 C157 1.371 . S
C156 H159 0.931 . S
C157 C153 1.391 . S
C157 C156 1.371 . S
C157 H164 0.930 . S
H158 C155 0.928 . S
H159 C156 0.931 . S
H160 C136 0.930 . S
H161 C133 0.930 . S
H162 C142 0.930 . S
H163 C154 0.929 . S
H164 C157 0.930 . S
C165 C166 1.351 . S
C165 N168 1.368 . S
C165 H170 0.931 . S
C166 C165 1.351 . S
C166 N167 1.373 . S
C166 H194 0.930 . S
N167 C166 1.373 . S
N167 C169 1.340 . S
N168 C165 1.368 . S
N168 C169 1.321 . S
N168 Co171 2.135 . S
C169 N167 1.340 . S
C169 N168 1.321 . S
C169 H193 0.930 . S
H170 C165 0.931 . S
Co171 N168 2.135 . S
Co171 N174 2.121 . S
Co171 O179 2.055 . S
Co171 O182 2.039 . S
Co171 N185 2.140 . S
C172 O173 1.227 . S
C172 O182 1.265 . S
O173 C172 1.227 . S
N174 Co171 2.121 . S
N174 C176 1.375 . S
N174 C177 1.313 . S
C175 C176 1.338 . S
C175 N178 1.377 . S
C175 H195 0.930 . S
C176 N174 1.375 . S
C176 C175 1.338 . S
C176 H180 0.931 . S
C177 N174 1.313 . S
C177 N178 1.344 . S
C177 H181 0.930 . S
N178 C175 1.377 . S
N178 C177 1.344 . S
O179 Co171 2.055 . S
O179 C183 1.253 . S
H180 C176 0.931 . S
H181 C177 0.930 . S
O182 Co171 2.039 . S
O182 C172 1.265 . S
C183 O179 1.253 . S
C183 O184 1.227 . S
O184 C183 1.227 . S
N185 Co171 2.140 . S
N185 C188 1.346 . S
N185 C189 1.345 . S
C186 C187 1.387 . S
C186 C190 1.391 . S
C187 C186 1.387 . S
C187 C188 1.369 . S
C187 H196 0.929 . S
C188 N185 1.346 . S
C188 C187 1.369 . S
C188 H191 0.928 . S
C189 N185 1.345 . S
C189 C190 1.371 . S
C189 H192 0.931 . S
C190 C186 1.391 . S
C190 C189 1.371 . S
C190 H197 0.930 . S
H191 C188 0.928 . S
H192 C189 0.931 . S
H193 C169 0.930 . S
H194 C166 0.930 . S
H195 C175 0.930 . S
H196 C187 0.929 . S
H197 C190 0.930 . S
C198 C199 1.351 . S
C198 N201 1.368 . S
C198 H203 0.931 . S
C199 C198 1.351 . S
C199 N200 1.373 . S
C199 H227 0.930 1_556 S
N200 C199 1.373 . S
N200 C202 1.340 . S
N201 C198 1.368 . S
N201 C202 1.321 . S
N201 Co204 2.135 . S
C202 N200 1.340 . S
C202 N201 1.321 . S
C202 H226 0.930 . S
H203 C198 0.931 . S
Co204 N201 2.135 . S
Co204 N207 2.121 . S
Co204 O212 2.055 . S
Co204 O215 2.039 . S
Co204 N218 2.140 . S
C205 O206 1.227 . S
C205 O215 1.265 . S
O206 C205 1.227 . S
N207 Co204 2.121 . S
N207 C209 1.375 . S
N207 C210 1.313 . S
C208 C209 1.338 . S
C208 N211 1.377 . S
C208 H228 0.930 . S
C209 N207 1.375 . S
C209 C208 1.338 . S
C209 H213 0.931 . S
C210 N207 1.313 . S
C210 N211 1.344 . S
C210 H214 0.930 . S
N211 C208 1.377 . S
N211 C210 1.344 . S
O212 Co204 2.055 . S
O212 C216 1.253 . S
H213 C209 0.931 . S
H214 C210 0.930 . S
O215 Co204 2.039 . S
O215 C205 1.265 . S
C216 O212 1.253 . S
C216 O217 1.227 . S
O217 C216 1.227 . S
N218 Co204 2.140 . S
N218 C221 1.346 . S
N218 C222 1.345 . S
C219 C220 1.387 . S
C219 C223 1.391 . S
C220 C219 1.387 . S
C220 C221 1.369 . S
C220 H229 0.929 . S
C221 N218 1.346 . S
C221 C220 1.369 . S
C221 H224 0.928 . S
C222 N218 1.345 . S
C222 C223 1.371 . S
C222 H225 0.931 . S
C223 C219 1.391 . S
C223 C222 1.371 . S
C223 H230 0.930 . S
H224 C221 0.928 . S
H225 C222 0.931 . S
H226 C202 0.930 . S
H227 C199 0.930 1_554 S
H228 C208 0.930 . S
H229 C220 0.929 . S
H230 C223 0.930 . S
C231 C232 1.351 . S
C231 N234 1.368 . S
C231 H236 0.931 . S
C232 C231 1.351 . S
C232 N233 1.373 . S
C232 H260 0.930 . S
N233 C232 1.373 . S
N233 C235 1.340 . S
N234 C231 1.368 . S
N234 C235 1.321 . S
N234 Co237 2.135 1_554 S
C235 N233 1.340 . S
C235 N234 1.321 . S
C235 H259 0.930 . S
H236 C231 0.931 . S
Co237 N234 2.135 1_556 S
Co237 N240 2.121 . S
Co237 O245 2.055 . S
Co237 O248 2.039 . S
Co237 N251 2.140 1_556 S
C238 O239 1.227 . S
C238 O248 1.265 . S
O239 C238 1.227 . S
N240 Co237 2.121 . S
N240 C242 1.375 . S
N240 C243 1.313 . S
C241 C242 1.338 . S
C241 N244 1.377 . S
C241 H261 0.930 . S
C242 N240 1.375 . S
C242 C241 1.338 . S
C242 H246 0.931 . S
C243 N240 1.313 . S
C243 N244 1.344 . S
C243 H247 0.930 . S
N244 C241 1.377 . S
N244 C243 1.344 . S
O245 Co237 2.055 . S
O245 C249 1.253 1_556 S
H246 C242 0.931 . S
H247 C243 0.930 . S
O248 Co237 2.039 . S
O248 C238 1.265 . S
C249 O245 1.253 1_554 S
C249 O250 1.227 . S
O250 C249 1.227 . S
N251 Co237 2.140 1_554 S
N251 C254 1.346 . S
N251 C255 1.345 . S
C252 C253 1.387 . S
C252 C256 1.391 . S
C253 C252 1.387 . S
C253 C254 1.369 . S
C253 H262 0.929 . S
C254 N251 1.346 . S
C254 C253 1.369 . S
C254 H257 0.928 . S
C255 N251 1.345 . S
C255 C256 1.371 . S
C255 H258 0.931 . S
C256 C252 1.391 . S
C256 C255 1.371 . S
C256 H263 0.930 . S
H257 C254 0.928 . S
H258 C255 0.931 . S
H259 C235 0.930 . S
H260 C232 0.930 . S
H261 C241 0.930 . S
H262 C253 0.929 . S
H263 C256 0.930 . S
C264 C265 1.351 . S
C264 N267 1.368 . S
C264 H269 0.931 . S
C265 C264 1.351 . S
C265 N266 1.373 . S
C265 H293 0.930 . S
N266 C265 1.373 . S
N266 C268 1.340 . S
N267 C264 1.368 . S
N267 C268 1.321 . S
N267 Co270 2.135 . S
C268 N266 1.340 . S
C268 N267 1.321 . S
C268 H292 0.930 . S
H269 C264 0.931 . S
Co270 N267 2.135 . S
Co270 N273 2.121 . S
Co270 O278 2.055 . S
Co270 O281 2.039 . S
Co270 N284 2.140 . S
C271 O272 1.227 . S
C271 O281 1.265 . S
O272 C271 1.227 . S
N273 Co270 2.121 . S
N273 C275 1.375 . S
N273 C276 1.313 . S
C274 C275 1.338 . S
C274 N277 1.377 . S
C274 H294 0.930 . S
C275 N273 1.375 . S
C275 C274 1.338 . S
C275 H279 0.931 . S
C276 N273 1.313 . S
C276 N277 1.344 . S
C276 H280 0.930 . S
N277 C274 1.377 . S
N277 C276 1.344 . S
O278 Co270 2.055 . S
O278 C282 1.253 . S
H279 C275 0.931 . S
H280 C276 0.930 . S
O281 Co270 2.039 . S
O281 C271 1.265 . S
C282 O278 1.253 . S
C282 O283 1.227 . S
O283 C282 1.227 . S
N284 Co270 2.140 . S
N284 C287 1.346 . S
N284 C288 1.345 . S
C285 C286 1.387 . S
C285 C289 1.391 . S
C286 C285 1.387 . S
C286 C287 1.369 . S
C286 H295 0.929 . S
C287 N284 1.346 . S
C287 C286 1.369 . S
C287 H290 0.928 . S
C288 N284 1.345 . S
C288 C289 1.371 . S
C288 H291 0.931 . S
C289 C285 1.391 . S
C289 C288 1.371 . S
C289 H296 0.930 . S
H290 C287 0.928 . S
H291 C288 0.931 . S
H292 C268 0.930 . S
H293 C265 0.930 . S
H294 C274 0.930 . S
H295 C286 0.929 . S
H296 C289 0.930 . S
C297 C298 1.351 . S
C297 N300 1.368 . S
C297 H302 0.931 . S
C298 C297 1.351 . S
C298 N299 1.373 . S
C298 H326 0.930 . S
N299 C298 1.373 . S
N299 C301 1.340 . S
N300 C297 1.368 . S
N300 C301 1.321 . S
N300 Co303 2.135 . S
C301 N299 1.340 . S
C301 N300 1.321 . S
C301 H325 0.930 . S
H302 C297 0.931 . S
Co303 N300 2.135 . S
Co303 N306 2.121 . S
Co303 O311 2.055 . S
Co303 O314 2.039 . S
Co303 N317 2.140 . S
C304 O305 1.227 . S
C304 O314 1.265 . S
O305 C304 1.227 . S
N306 Co303 2.121 . S
N306 C308 1.375 . S
N306 C309 1.313 . S
C307 C308 1.338 . S
C307 N310 1.377 . S
C307 H327 0.930 . S
C308 N306 1.375 . S
C308 C307 1.338 . S
C308 H312 0.931 . S
C309 N306 1.313 . S
C309 N310 1.344 . S
C309 H313 0.930 . S
N310 C307 1.377 . S
N310 C309 1.344 . S
O311 Co303 2.055 . S
O311 C315 1.253 . S
H312 C308 0.931 . S
H313 C309 0.930 . S
O314 Co303 2.039 . S
O314 C304 1.265 . S
C315 O311 1.253 . S
C315 O316 1.227 . S
O316 C315 1.227 . S
N317 Co303 2.140 . S
N317 C320 1.346 . S
N317 C321 1.345 . S
C318 C319 1.387 . S
C318 C322 1.391 . S
C319 C318 1.387 . S
C319 C320 1.369 . S
C319 H328 0.929 . S
C320 N317 1.346 . S
C320 C319 1.369 . S
C320 H323 0.928 . S
C321 N317 1.345 . S
C321 C322 1.371 . S
C321 H324 0.931 . S
C322 C318 1.391 . S
C322 C321 1.371 . S
C322 H329 0.930 . S
H323 C320 0.928 . S
H324 C321 0.931 . S
H325 C301 0.930 . S
H326 C298 0.930 . S
H327 C307 0.930 . S
H328 C319 0.929 . S
H329 C322 0.930 . S
C330 C331 1.351 . S
C330 N333 1.368 . S
C330 H335 0.931 . S
C331 C330 1.351 . S
C331 N332 1.373 . S
C331 H359 0.930 . S
N332 C331 1.373 . S
N332 C334 1.340 . S
N333 C330 1.368 . S
N333 C334 1.321 . S
N333 Co336 2.135 . S
C334 N332 1.340 . S
C334 N333 1.321 . S
C334 H358 0.930 . S
H335 C330 0.931 . S
Co336 N333 2.135 . S
Co336 N339 2.121 . S
Co336 O344 2.055 . S
Co336 O347 2.039 . S
Co336 N350 2.140 . S
C337 O338 1.227 . S
C337 O347 1.265 . S
O338 C337 1.227 . S
N339 Co336 2.121 . S
N339 C341 1.375 . S
N339 C342 1.313 . S
C340 C341 1.338 . S
C340 N343 1.377 . S
C340 H360 0.930 . S
C341 N339 1.375 . S
C341 C340 1.338 . S
C341 H345 0.931 . S
C342 N339 1.313 . S
C342 N343 1.344 . S
C342 H346 0.930 . S
N343 C340 1.377 . S
N343 C342 1.344 . S
O344 Co336 2.055 . S
O344 C348 1.253 . S
H345 C341 0.931 . S
H346 C342 0.930 . S
O347 Co336 2.039 . S
O347 C337 1.265 . S
C348 O344 1.253 . S
C348 O349 1.227 . S
O349 C348 1.227 . S
N350 Co336 2.140 . S
N350 C353 1.346 . S
N350 C354 1.345 . S
C351 C352 1.387 . S
C351 C355 1.391 . S
C352 C351 1.387 . S
C352 C353 1.369 . S
C352 H361 0.929 . S
C353 N350 1.346 . S
C353 C352 1.369 . S
C353 H356 0.928 . S
C354 N350 1.345 . S
C354 C355 1.371 . S
C354 H357 0.931 . S
C355 C351 1.391 . S
C355 C354 1.371 . S
C355 H362 0.930 . S
H356 C353 0.928 . S
H357 C354 0.931 . S
H358 C334 0.930 . S
H359 C331 0.930 . S
H360 C340 0.930 . S
H361 C352 0.929 . S
H362 C355 0.930 . S
C363 C364 1.351 . S
C363 N366 1.368 . S
C363 H368 0.931 . S
C364 C363 1.351 . S
C364 N365 1.373 . S
C364 H392 0.930 . S
N365 C364 1.373 . S
N365 C367 1.340 . S
N366 C363 1.368 . S
N366 C367 1.321 . S
N366 Co369 2.135 . S
C367 N365 1.340 . S
C367 N366 1.321 . S
C367 H391 0.930 . S
H368 C363 0.931 . S
Co369 N366 2.135 . S
Co369 N372 2.121 . S
Co369 O377 2.055 . S
Co369 O380 2.039 . S
Co369 N383 2.140 . S
C370 O371 1.227 . S
C370 O380 1.265 . S
O371 C370 1.227 . S
N372 Co369 2.121 . S
N372 C374 1.375 . S
N372 C375 1.313 . S
C373 C374 1.338 . S
C373 N376 1.377 . S
C373 H393 0.930 . S
C374 N372 1.375 . S
C374 C373 1.338 . S
C374 H378 0.931 . S
C375 N372 1.313 . S
C375 N376 1.344 . S
C375 H379 0.930 . S
N376 C373 1.377 . S
N376 C375 1.344 . S
O377 Co369 2.055 . S
O377 C381 1.253 . S
H378 C374 0.931 . S
H379 C375 0.930 . S
O380 Co369 2.039 . S
O380 C370 1.265 . S
C381 O377 1.253 . S
C381 O382 1.227 . S
O382 C381 1.227 . S
N383 Co369 2.140 . S
N383 C386 1.346 . S
N383 C387 1.345 . S
C384 C385 1.387 . S
C384 C388 1.391 . S
C385 C384 1.387 . S
C385 C386 1.369 . S
C385 H394 0.929 . S
C386 N383 1.346 . S
C386 C385 1.369 . S
C386 H389 0.928 . S
C387 N383 1.345 . S
C387 C388 1.371 . S
C387 H390 0.931 . S
C388 C384 1.391 . S
C388 C387 1.371 . S
C388 H395 0.930 . S
H389 C386 0.928 . S
H390 C387 0.931 . S
H391 C367 0.930 . S
H392 C364 0.930 . S
H393 C373 0.930 . S
H394 C385 0.929 . S
H395 C388 0.930 . S
H396 C404 0.950 . S
H397 C409 0.950 . S
H398 C406 0.950 . S
H399 C408 0.950 . S
H400 C410 0.950 . S
H401 C412 0.950 . S
H402 C414 0.950 . S
H403 C415 0.950 . S
C404 H396 0.950 . S
C404 C405 1.386 . S
C404 C406 1.391 . S
C405 C404 1.386 . S
C405 C409 1.393 . S
C406 H398 0.950 . S
C406 C404 1.391 . S
C406 C407 1.400 . S
C407 C406 1.400 . S
C407 C408 1.398 . S
C407 C413 1.491 . S
C408 H399 0.950 . S
C408 C407 1.398 . S
C408 C409 1.391 . S
C409 H397 0.950 . S
C409 C405 1.393 . S
C409 C408 1.391 . S
C410 H400 0.950 . S
C410 C411 1.386 . S
C410 C412 1.391 . S
C411 C410 1.386 . S
C411 C415 1.393 . S
C412 H401 0.950 . S
C412 C410 1.391 . S
C412 C413 1.400 . S
C413 C407 1.491 . S
C413 C412 1.400 . S
C413 C414 1.398 . S
C414 H402 0.950 . S
C414 C413 1.398 . S
C414 C415 1.391 . S
C415 H403 0.950 . S
C415 C411 1.393 . S
C415 C414 1.391 . S
H416 C424 0.950 . S
H417 C429 0.950 . S
H418 C426 0.950 . S
H419 C428 0.950 . S
H420 C430 0.950 . S
H421 C432 0.950 . S
H422 C434 0.950 . S
H423 C435 0.950 . S
C424 H416 0.950 . S
C424 C425 1.386 . S
C424 C426 1.391 . S
C425 C424 1.386 . S
C425 C429 1.393 . S
C426 H418 0.950 . S
C426 C424 1.391 . S
C426 C427 1.400 . S
C427 C426 1.400 . S
C427 C428 1.398 . S
C427 C433 1.491 . S
C428 H419 0.950 . S
C428 C427 1.398 . S
C428 C429 1.391 . S
C429 H417 0.950 . S
C429 C425 1.393 . S
C429 C428 1.391 . S
C430 H420 0.950 . S
C430 C431 1.386 . S
C430 C432 1.391 . S
C431 C430 1.386 . S
C431 C435 1.393 . S
C432 H421 0.950 . S
C432 C430 1.391 . S
C432 C433 1.400 . S
C433 C427 1.491 . S
C433 C432 1.400 . S
C433 C434 1.398 . S
C434 H422 0.950 . S
C434 C433 1.398 . S
C434 C435 1.391 . S
C435 H423 0.950 . S
C435 C431 1.393 . S
C435 C434 1.391 . S
H436 C444 0.950 . S
H437 C449 0.950 . S
H438 C446 0.950 . S
H439 C448 0.950 . S
H440 C450 0.950 . S
H441 C452 0.950 . S
H442 C454 0.950 . S
H443 C455 0.950 . S
C444 H436 0.950 . S
C444 C445 1.386 . S
C444 C446 1.391 . S
C445 C444 1.386 . S
C445 C449 1.393 . S
C446 H438 0.950 . S
C446 C444 1.391 . S
C446 C447 1.400 . S
C447 C446 1.400 . S
C447 C448 1.398 . S
C447 C453 1.491 . S
C448 H439 0.950 . S
C448 C447 1.398 . S
C448 C449 1.391 . S
C449 H437 0.950 . S
C449 C445 1.393 . S
C449 C448 1.391 . S
C450 H440 0.950 . S
C450 C451 1.386 . S
C450 C452 1.391 . S
C451 C450 1.386 . S
C451 C455 1.393 . S
C452 H441 0.950 . S
C452 C450 1.391 . S
C452 C453 1.400 . S
C453 C447 1.491 . S
C453 C452 1.400 . S
C453 C454 1.398 . S
C454 H442 0.950 . S
C454 C453 1.398 . S
C454 C455 1.391 . S
C455 H443 0.950 . S
C455 C451 1.393 . S
C455 C454 1.391 . S
H456 C464 0.950 . S
H457 C469 0.950 . S
H458 C466 0.950 . S
H459 C468 0.950 . S
H460 C470 0.950 . S
H461 C472 0.950 . S
H462 C474 0.950 . S
H463 C475 0.950 . S
C464 H456 0.950 . S
C464 C465 1.386 . S
C464 C466 1.391 . S
C465 C464 1.386 . S
C465 C469 1.393 . S
C466 H458 0.950 . S
C466 C464 1.391 . S
C466 C467 1.400 . S
C467 C466 1.400 . S
C467 C468 1.398 . S
C467 C473 1.491 . S
C468 H459 0.950 . S
C468 C467 1.398 . S
C468 C469 1.391 . S
C469 H457 0.950 . S
C469 C465 1.393 . S
C469 C468 1.391 . S
C470 H460 0.950 . S
C470 C471 1.386 . S
C470 C472 1.391 . S
C471 C470 1.386 . S
C471 C475 1.393 . S
C472 H461 0.950 . S
C472 C470 1.391 . S
C472 C473 1.400 . S
C473 C467 1.491 . S
C473 C472 1.400 . S
C473 C474 1.398 . S
C474 H462 0.950 . S
C474 C473 1.398 . S
C474 C475 1.391 . S
C475 H463 0.950 . S
C475 C471 1.393 . S
C475 C474 1.391 . S
H476 C484 0.950 . S
H477 C489 0.950 . S
H478 C486 0.950 . S
H479 C488 0.950 . S
H480 C490 0.950 . S
H481 C492 0.950 . S
H482 C494 0.950 . S
H483 C495 0.950 . S
C484 H476 0.950 . S
C484 C485 1.386 . S
C484 C486 1.391 . S
C485 C484 1.386 . S
C485 C489 1.393 . S
C486 H478 0.950 . S
C486 C484 1.391 . S
C486 C487 1.400 . S
C487 C486 1.400 . S
C487 C488 1.398 . S
C487 C493 1.491 . S
C488 H479 0.950 . S
C488 C487 1.398 . S
C488 C489 1.391 . S
C489 H477 0.950 . S
C489 C485 1.393 . S
C489 C488 1.391 . S
C490 H480 0.950 . S
C490 C491 1.386 . S
C490 C492 1.391 1_554 S
C491 C490 1.386 . S
C491 C495 1.393 . S
C492 H481 0.950 . S
C492 C490 1.391 1_556 S
C492 C493 1.400 . S
C493 C487 1.491 . S
C493 C492 1.400 . S
C493 C494 1.398 . S
C494 H482 0.950 . S
C494 C493 1.398 . S
C494 C495 1.391 1_556 S
C495 H483 0.950 . S
C495 C491 1.393 . S
C495 C494 1.391 1_554 S
H496 C504 0.950 . S
H497 C509 0.950 . S
H498 C506 0.950 . S
H499 C508 0.950 . S
H500 C510 0.950 . S
H501 C512 0.950 . S
H502 C514 0.950 . S
H503 C515 0.950 . S
C504 H496 0.950 . S
C504 C505 1.386 . S
C504 C506 1.391 1_556 S
C505 C504 1.386 . S
C505 C509 1.393 . S
C506 H498 0.950 . S
C506 C504 1.391 1_554 S
C506 C507 1.400 . S
C507 C506 1.400 . S
C507 C508 1.398 . S
C507 C513 1.491 . S
C508 H499 0.950 . S
C508 C507 1.398 . S
C508 C509 1.391 1_554 S
C509 H497 0.950 . S
C509 C505 1.393 . S
C509 C508 1.391 1_556 S
C510 H500 0.950 . S
C510 C511 1.386 . S
C510 C512 1.391 . S
C511 C510 1.386 . S
C511 C515 1.393 . S
C512 H501 0.950 . S
C512 C510 1.391 . S
C512 C513 1.400 . S
C513 C507 1.491 . S
C513 C512 1.400 . S
C513 C514 1.398 . S
C514 H502 0.950 . S
C514 C513 1.398 . S
C514 C515 1.391 . S
C515 H503 0.950 . S
C515 C511 1.393 . S
C515 C514 1.391 . S
H516 C524 0.950 . S
H517 C529 0.950 . S
H518 C526 0.950 . S
H519 C528 0.950 . S
H520 C530 0.950 . S
H521 C532 0.950 . S
H522 C534 0.950 . S
H523 C535 0.950 . S
C524 H516 0.950 . S
C524 C525 1.386 . S
C524 C526 1.391 . S
C525 C524 1.386 . S
C525 C529 1.393 . S
C526 H518 0.950 . S
C526 C524 1.391 . S
C526 C527 1.400 . S
C527 C526 1.400 . S
C527 C528 1.398 . S
C527 C533 1.491 . S
C528 H519 0.950 . S
C528 C527 1.398 . S
C528 C529 1.391 . S
C529 H517 0.950 . S
C529 C525 1.393 . S
C529 C528 1.391 . S
C530 H520 0.950 . S
C530 C531 1.386 . S
C530 C532 1.391 . S
C531 C530 1.386 . S
C531 C535 1.393 . S
C532 H521 0.950 . S
C532 C530 1.391 . S
C532 C533 1.400 . S
C533 C527 1.491 . S
C533 C532 1.400 . S
C533 C534 1.398 . S
C534 H522 0.950 . S
C534 C533 1.398 . S
C534 C535 1.391 . S
C535 H523 0.950 . S
C535 C531 1.393 . S
C535 C534 1.391 . S
H536 C544 0.950 . S
H537 C549 0.950 . S
H538 C546 0.950 . S
H539 C548 0.950 . S
H540 C550 0.950 1_655 S
H541 C552 0.950 . S
H542 C554 0.950 . S
H543 C555 0.950 . S
C544 H536 0.950 . S
C544 C545 1.386 1_554 S
C544 C546 1.391 . S
C545 C544 1.386 1_556 S
C545 C549 1.393 . S
C546 H538 0.950 . S
C546 C544 1.391 . S
C546 C547 1.400 . S
C547 C546 1.400 . S
C547 C548 1.398 1_554 S
C547 C553 1.491 . S
C548 H539 0.950 . S
C548 C547 1.398 1_556 S
C548 C549 1.391 . S
C549 H537 0.950 . S
C549 C545 1.393 . S
C549 C548 1.391 . S
C550 H540 0.950 1_455 S
C550 C551 1.386 1_456 S
C550 C552 1.391 . S
C551 C550 1.386 1_654 S
C551 C555 1.393 1_655 S
C552 H541 0.950 . S
C552 C550 1.391 . S
C552 C553 1.400 1_556 S
C553 C547 1.491 . S
C553 C552 1.400 1_554 S
C553 C554 1.398 . S
C554 H542 0.950 . S
C554 C553 1.398 . S
C554 C555 1.391 . S
C555 H543 0.950 . S
C555 C551 1.393 1_455 S
C555 C554 1.391 . S
H556 C564 0.950 . S
H557 C569 0.950 . S
H558 C566 0.950 . S
H559 C568 0.950 . S
H560 C570 0.950 1_565 S
H561 C572 0.950 . S
H562 C574 0.950 . S
H563 C575 0.950 . S
C564 H556 0.950 . S
C564 C565 1.386 . S
C564 C566 1.391 . S
C565 C564 1.386 . S
C565 C569 1.393 . S
C566 H558 0.950 . S
C566 C564 1.391 . S
C566 C567 1.400 . S
C567 C566 1.400 . S
C567 C568 1.398 . S
C567 C573 1.491 . S
C568 H559 0.950 . S
C568 C567 1.398 . S
C568 C569 1.391 . S
C569 H557 0.950 . S
C569 C565 1.393 . S
C569 C568 1.391 . S
C570 H560 0.950 1_545 S
C570 C571 1.386 1_545 S
C570 C572 1.391 . S
C571 C570 1.386 1_565 S
C571 C575 1.393 1_565 S
C572 H561 0.950 . S
C572 C570 1.391 . S
C572 C573 1.400 . S
C573 C567 1.491 . S
C573 C572 1.400 . S
C573 C574 1.398 . S
C574 H562 0.950 . S
C574 C573 1.398 . S
C574 C575 1.391 . S
C575 H563 0.950 . S
C575 C571 1.393 1_545 S
C575 C574 1.391 . S
H576 C584 0.950 . S
H577 C589 0.950 . S
H578 C586 0.950 . S
H579 C588 0.950 . S
H580 C590 0.950 . S
H581 C592 0.950 . S
H582 C594 0.950 . S
H583 C595 0.950 . S
C584 H576 0.950 . S
C584 C585 1.386 . S
C584 C586 1.391 . S
C585 C584 1.386 . S
C585 C589 1.393 . S
C586 H578 0.950 . S
C586 C584 1.391 . S
C586 C587 1.400 . S
C587 C586 1.400 . S
C587 C588 1.398 . S
C587 C593 1.491 . S
C588 H579 0.950 . S
C588 C587 1.398 . S
C588 C589 1.391 . S
C589 H577 0.950 . S
C589 C585 1.393 . S
C589 C588 1.391 . S
C590 H580 0.950 . S
C590 C591 1.386 . S
C590 C592 1.391 . S
C591 C590 1.386 . S
C591 C595 1.393 . S
C592 H581 0.950 . S
C592 C590 1.391 . S
C592 C593 1.400 . S
C593 C587 1.491 . S
C593 C592 1.400 . S
C593 C594 1.398 . S
C594 H582 0.950 . S
C594 C593 1.398 . S
C594 C595 1.391 . S
C595 H583 0.950 . S
C595 C591 1.393 . S
C595 C594 1.391 . S
H596 C604 0.950 1_455 S
H597 C609 0.950 1_455 S
H598 C606 0.950 . S
H599 C608 0.950 . S
H600 C610 0.950 . S
H601 C612 0.950 . S
H602 C614 0.950 . S
H603 C615 0.950 . S
C604 H596 0.950 1_655 S
C604 C605 1.386 1_655 S
C604 C606 1.391 . S
C605 C604 1.386 1_455 S
C605 C609 1.393 1_455 S
C606 H598 0.950 . S
C606 C604 1.391 . S
C606 C607 1.400 . S
C607 C606 1.400 . S
C607 C608 1.398 . S
C607 C613 1.491 . S
C608 H599 0.950 . S
C608 C607 1.398 . S
C608 C609 1.391 . S
C609 H597 0.950 1_655 S
C609 C605 1.393 1_655 S
C609 C608 1.391 . S
C610 H600 0.950 . S
C610 C611 1.386 . S
C610 C612 1.391 . S
C611 C610 1.386 . S
C611 C615 1.393 . S
C612 H601 0.950 . S
C612 C610 1.391 . S
C612 C613 1.400 . S
C613 C607 1.491 . S
C613 C612 1.400 . S
C613 C614 1.398 . S
C614 H602 0.950 . S
C614 C613 1.398 . S
C614 C615 1.391 . S
C615 H603 0.950 . S
C615 C611 1.393 . S
C615 C614 1.391 . S
H616 C624 0.950 . S
H617 C629 0.950 . S
H618 C626 0.950 . S
H619 C628 0.950 . S
H620 C630 0.950 . S
H621 C632 0.950 . S
H622 C634 0.950 . S
H623 C635 0.950 . S
C624 H616 0.950 . S
C624 C625 1.386 1_565 S
C624 C626 1.391 . S
C625 C624 1.386 1_545 S
C625 C629 1.393 . S
C626 H618 0.950 . S
C626 C624 1.391 . S
C626 C627 1.400 . S
C627 C626 1.400 . S
C627 C628 1.398 . S
C627 C633 1.491 . S
C628 H619 0.950 . S
C628 C627 1.398 . S
C628 C629 1.391 1_565 S
C629 H617 0.950 . S
C629 C625 1.393 . S
C629 C628 1.391 1_545 S
C630 H620 0.950 . S
C630 C631 1.386 . S
C630 C632 1.391 . S
C631 C630 1.386 . S
C631 C635 1.393 . S
C632 H621 0.950 . S
C632 C630 1.391 . S
C632 C633 1.400 . S
C633 C627 1.491 . S
C633 C632 1.400 . S
C633 C634 1.398 . S
C634 H622 0.950 . S
C634 C633 1.398 . S
C634 C635 1.391 . S
C635 H623 0.950 . S
C635 C631 1.393 . S
C635 C634 1.391 . S
H636 C644 0.950 . S
H637 C649 0.950 . S
H638 C646 0.950 . S
H639 C648 0.950 . S
H640 C650 0.950 . S
H641 C652 0.950 . S
H642 C654 0.950 . S
H643 C655 0.950 . S
C644 H636 0.950 . S
C644 C645 1.386 . S
C644 C646 1.391 . S
C645 C644 1.386 . S
C645 C649 1.393 1_554 S
C646 H638 0.950 . S
C646 C644 1.391 . S
C646 C647 1.400 1_554 S
C647 C646 1.400 1_556 S
C647 C648 1.398 . S
C647 C653 1.491 . S
C648 H639 0.950 . S
C648 C647 1.398 . S
C648 C649 1.391 . S
C649 H637 0.950 . S
C649 C645 1.393 1_556 S
C649 C648 1.391 . S
C650 H640 0.950 . S
C650 C651 1.386 . S
C650 C652 1.391 . S
C651 C650 1.386 . S
C651 C655 1.393 1_556 S
C652 H641 0.950 . S
C652 C650 1.391 . S
C652 C653 1.400 . S
C653 C647 1.491 . S
C653 C652 1.400 . S
C653 C654 1.398 1_556 S
C654 H642 0.950 . S
C654 C653 1.398 1_554 S
C654 C655 1.391 . S
C655 H643 0.950 . S
C655 C651 1.393 1_554 S
C655 C654 1.391 . S
H656 C664 0.950 1_655 S
H657 C669 0.950 1_655 S
H658 C666 0.950 . S
H659 C668 0.950 . S
H660 C670 0.950 . S
H661 C672 0.950 . S
H662 C674 0.950 . S
H663 C675 0.950 . S
C664 H656 0.950 1_455 S
C664 C665 1.386 1_455 S
C664 C666 1.391 . S
C665 C664 1.386 1_655 S
C665 C669 1.393 1_655 S
C666 H658 0.950 . S
C666 C664 1.391 . S
C666 C667 1.400 . S
C667 C666 1.400 . S
C667 C668 1.398 . S
C667 C673 1.491 . S
C668 H659 0.950 . S
C668 C667 1.398 . S
C668 C669 1.391 . S
C669 H657 0.950 1_455 S
C669 C665 1.393 1_455 S
C669 C668 1.391 . S
C670 H660 0.950 . S
C670 C671 1.386 . S
C670 C672 1.391 . S
C671 C670 1.386 . S
C671 C675 1.393 . S
C672 H661 0.950 . S
C672 C670 1.391 . S
C672 C673 1.400 . S
C673 C667 1.491 . S
C673 C672 1.400 . S
C673 C674 1.398 . S
C674 H662 0.950 . S
C674 C673 1.398 . S
C674 C675 1.391 . S
C675 H663 0.950 . S
C675 C671 1.393 . S
C675 C674 1.391 . S
H676 C684 0.950 . S
H677 C689 0.950 . S
H678 C686 0.950 . S
H679 C688 0.950 . S
H680 C690 0.950 . S
H681 C692 0.950 . S
H682 C694 0.950 . S
H683 C695 0.950 . S
C684 H676 0.950 . S
C684 C685 1.386 1_545 S
C684 C686 1.391 . S
C685 C684 1.386 1_565 S
C685 C689 1.393 . S
C686 H678 0.950 . S
C686 C684 1.391 . S
C686 C687 1.400 . S
C687 C686 1.400 . S
C687 C688 1.398 . S
C687 C693 1.491 . S
C688 H679 0.950 . S
C688 C687 1.398 . S
C688 C689 1.391 1_545 S
C689 H677 0.950 . S
C689 C685 1.393 . S
C689 C688 1.391 1_565 S
C690 H680 0.950 . S
C690 C691 1.386 . S
C690 C692 1.391 . S
C691 C690 1.386 . S
C691 C695 1.393 . S
C692 H681 0.950 . S
C692 C690 1.391 . S
C692 C693 1.400 . S
C693 C687 1.491 . S
C693 C692 1.400 . S
C693 C694 1.398 . S
C694 H682 0.950 . S
C694 C693 1.398 . S
C694 C695 1.391 . S
C695 H683 0.950 . S
C695 C691 1.393 . S
C695 C694 1.391 . S
H696 C704 0.950 . S
H697 C709 0.950 . S
H698 C706 0.950 . S
H699 C708 0.950 . S
H700 C710 0.950 . S
H701 C712 0.950 . S
H702 C714 0.950 . S
H703 C715 0.950 . S
C704 H696 0.950 . S
C704 C705 1.386 . S
C704 C706 1.391 . S
C705 C704 1.386 . S
C705 C709 1.393 . S
C706 H698 0.950 . S
C706 C704 1.391 . S
C706 C707 1.400 . S
C707 C706 1.400 . S
C707 C708 1.398 . S
C707 C713 1.491 . S
C708 H699 0.950 . S
C708 C707 1.398 . S
C708 C709 1.391 . S
C709 H697 0.950 . S
C709 C705 1.393 . S
C709 C708 1.391 . S
C710 H700 0.950 . S
C710 C711 1.386 . S
C710 C712 1.391 . S
C711 C710 1.386 . S
C711 C715 1.393 . S
C712 H701 0.950 . S
C712 C710 1.391 . S
C712 C713 1.400 . S
C713 C707 1.491 . S
C713 C712 1.400 . S
C713 C714 1.398 . S
C714 H702 0.950 . S
C714 C713 1.398 . S
C714 C715 1.391 . S
C715 H703 0.950 . S
C715 C711 1.393 . S
C715 C714 1.391 . S
H716 C724 0.950 . S
H717 C729 0.950 . S
H718 C726 0.950 . S
H719 C728 0.950 . S
H720 C730 0.950 . S
H721 C732 0.950 . S
H722 C734 0.950 . S
H723 C735 0.950 . S
C724 H716 0.950 . S
C724 C725 1.386 1_655 S
C724 C726 1.391 . S
C725 C724 1.386 1_455 S
C725 C729 1.393 . S
C726 H718 0.950 . S
C726 C724 1.391 . S
C726 C727 1.400 . S
C727 C726 1.400 . S
C727 C728 1.398 . S
C727 C733 1.491 . S
C728 H719 0.950 . S
C728 C727 1.398 . S
C728 C729 1.391 1_655 S
C729 H717 0.950 . S
C729 C725 1.393 . S
C729 C728 1.391 1_455 S
C730 H720 0.950 . S
C730 C731 1.386 . S
C730 C732 1.391 . S
C731 C730 1.386 . S
C731 C735 1.393 . S
C732 H721 0.950 . S
C732 C730 1.391 . S
C732 C733 1.400 . S
C733 C727 1.491 . S
C733 C732 1.400 . S
C733 C734 1.398 . S
C734 H722 0.950 . S
C734 C733 1.398 . S
C734 C735 1.391 . S
C735 H723 0.950 . S
C735 C731 1.393 . S
C735 C734 1.391 . S
H736 C744 0.950 . S
H737 C749 0.950 . S
H738 C746 0.950 . S
H739 C748 0.950 . S
H740 C750 0.950 . S
H741 C752 0.950 . S
H742 C754 0.950 . S
H743 C755 0.950 . S
C744 H736 0.950 . S
C744 C745 1.386 . S
C744 C746 1.391 1_545 S
C745 C744 1.386 . S
C745 C749 1.393 1_545 S
C746 H738 0.950 . S
C746 C744 1.391 1_565 S
C746 C747 1.400 . S
C747 C746 1.400 . S
C747 C748 1.398 . S
C747 C753 1.491 . S
C748 H739 0.950 . S
C748 C747 1.398 . S
C748 C749 1.391 . S
C749 H737 0.950 . S
C749 C745 1.393 1_565 S
C749 C748 1.391 . S
C750 H740 0.950 . S
C750 C751 1.386 . S
C750 C752 1.391 . S
C751 C750 1.386 . S
C751 C755 1.393 . S
C752 H741 0.950 . S
C752 C750 1.391 . S
C752 C753 1.400 . S
C753 C747 1.491 . S
C753 C752 1.400 . S
C753 C754 1.398 . S
C754 H742 0.950 . S
C754 C753 1.398 . S
C754 C755 1.391 . S
C755 H743 0.950 . S
C755 C751 1.393 . S
C755 C754 1.391 . S
H756 C764 0.950 . S
H757 C769 0.950 . S
H758 C766 0.950 . S
H759 C768 0.950 . S
H760 C770 0.950 . S
H761 C772 0.950 . S
H762 C774 0.950 . S
H763 C775 0.950 . S
C764 H756 0.950 . S
C764 C765 1.386 . S
C764 C766 1.391 . S
C765 C764 1.386 . S
C765 C769 1.393 . S
C766 H758 0.950 . S
C766 C764 1.391 . S
C766 C767 1.400 . S
C767 C766 1.400 . S
C767 C768 1.398 . S
C767 C773 1.491 . S
C768 H759 0.950 . S
C768 C767 1.398 . S
C768 C769 1.391 . S
C769 H757 0.950 . S
C769 C765 1.393 . S
C769 C768 1.391 . S
C770 H760 0.950 . S
C770 C771 1.386 . S
C770 C772 1.391 . S
C771 C770 1.386 . S
C771 C775 1.393 . S
C772 H761 0.950 . S
C772 C770 1.391 . S
C772 C773 1.400 . S
C773 C767 1.491 . S
C773 C772 1.400 . S
C773 C774 1.398 . S
C774 H762 0.950 . S
C774 C773 1.398 . S
C774 C775 1.391 . S
C775 H763 0.950 . S
C775 C771 1.393 . S
C775 C774 1.391 . S
H776 C784 0.950 . S
H777 C789 0.950 . S
H778 C786 0.950 1_455 S
H779 C788 0.950 . S
H780 C790 0.950 . S
H781 C792 0.950 1_655 S
H782 C794 0.950 . S
H783 C795 0.950 . S
C784 H776 0.950 . S
C784 C785 1.386 . S
C784 C786 1.391 . S
C785 C784 1.386 . S
C785 C789 1.393 . S
C786 H778 0.950 1_655 S
C786 C784 1.391 . S
C786 C787 1.400 . S
C787 C786 1.400 . S
C787 C788 1.398 . S
C787 C793 1.491 1_655 S
C788 H779 0.950 . S
C788 C787 1.398 . S
C788 C789 1.391 . S
C789 H777 0.950 . S
C789 C785 1.393 . S
C789 C788 1.391 . S
C790 H780 0.950 . S
C790 C791 1.386 . S
C790 C792 1.391 . S
C791 C790 1.386 . S
C791 C795 1.393 . S
C792 H781 0.950 1_455 S
C792 C790 1.391 . S
C792 C793 1.400 . S
C793 C787 1.491 1_455 S
C793 C792 1.400 . S
C793 C794 1.398 . S
C794 H782 0.950 . S
C794 C793 1.398 . S
C794 C795 1.391 . S
C795 H783 0.950 . S
C795 C791 1.393 . S
C795 C794 1.391 . S
H796 C804 0.950 . S
H797 C809 0.950 . S
H798 C806 0.950 1_545 S
H799 C808 0.950 . S
H800 C810 0.950 . S
H801 C812 0.950 1_565 S
H802 C814 0.950 . S
H803 C815 0.950 . S
C804 H796 0.950 . S
C804 C805 1.386 . S
C804 C806 1.391 . S
C805 C804 1.386 . S
C805 C809 1.393 . S
C806 H798 0.950 1_565 S
C806 C804 1.391 . S
C806 C807 1.400 . S
C807 C806 1.400 . S
C807 C808 1.398 . S
C807 C813 1.491 1_565 S
C808 H799 0.950 . S
C808 C807 1.398 . S
C808 C809 1.391 . S
C809 H797 0.950 . S
C809 C805 1.393 . S
C809 C808 1.391 . S
C810 H800 0.950 . S
C810 C811 1.386 . S
C810 C812 1.391 . S
C811 C810 1.386 . S
C811 C815 1.393 . S
C812 H801 0.950 1_545 S
C812 C810 1.391 . S
C812 C813 1.400 . S
C813 C807 1.491 1_545 S
C813 C812 1.400 . S
C813 C814 1.398 . S
C814 H802 0.950 . S
C814 C813 1.398 . S
C814 C815 1.391 . S
C815 H803 0.950 . S
C815 C811 1.393 . S
C815 C814 1.391 . S
H816 C824 0.950 . S
H817 C829 0.950 . S
H818 C826 0.950 . S
H819 C828 0.950 . S
H820 C830 0.950 . S
H821 C832 0.950 . S
H822 C834 0.950 . S
H823 C835 0.950 . S
C824 H816 0.950 . S
C824 C825 1.386 . S
C824 C826 1.391 . S
C825 C824 1.386 . S
C825 C829 1.393 . S
C826 H818 0.950 . S
C826 C824 1.391 . S
C826 C827 1.400 . S
C827 C826 1.400 . S
C827 C828 1.398 . S
C827 C833 1.491 . S
C828 H819 0.950 . S
C828 C827 1.398 . S
C828 C829 1.391 . S
C829 H817 0.950 . S
C829 C825 1.393 . S
C829 C828 1.391 . S
C830 H820 0.950 . S
C830 C831 1.386 . S
C830 C832 1.391 . S
C831 C830 1.386 . S
C831 C835 1.393 . S
C832 H821 0.950 . S
C832 C830 1.391 . S
C832 C833 1.400 . S
C833 C827 1.491 . S
C833 C832 1.400 . S
C833 C834 1.398 . S
C834 H822 0.950 . S
C834 C833 1.398 . S
C834 C835 1.391 . S
C835 H823 0.950 . S
C835 C831 1.393 . S
C835 C834 1.391 . S
H836 C844 0.950 . S
H837 C849 0.950 . S
H838 C846 0.950 . S
H839 C848 0.949 1_655 S
H840 C850 0.950 . S
H841 C852 0.950 . S
H842 C854 0.950 1_455 S
H843 C855 0.950 . S
C844 H836 0.950 . S
C844 C845 1.386 . S
C844 C846 1.391 . S
C845 C844 1.386 . S
C845 C849 1.393 . S
C846 H838 0.950 . S
C846 C844 1.391 . S
C846 C847 1.400 . S
C847 C846 1.400 . S
C847 C848 1.398 . S
C847 C853 1.491 1_455 S
C848 H839 0.949 1_455 S
C848 C847 1.398 . S
C848 C849 1.391 . S
C849 H837 0.950 . S
C849 C845 1.393 . S
C849 C848 1.391 . S
C850 H840 0.950 . S
C850 C851 1.386 . S
C850 C852 1.391 . S
C851 C850 1.386 . S
C851 C855 1.393 . S
C852 H841 0.950 . S
C852 C850 1.391 . S
C852 C853 1.400 . S
C853 C847 1.491 1_655 S
C853 C852 1.400 . S
C853 C854 1.398 . S
C854 H842 0.950 1_655 S
C854 C853 1.398 . S
C854 C855 1.391 . S
C855 H843 0.950 . S
C855 C851 1.393 . S
C855 C854 1.391 . S
H856 C864 0.950 . S
H857 C869 0.950 . S
H858 C866 0.950 . S
H859 C868 0.950 1_545 S
H860 C870 0.950 . S
H861 C872 0.950 . S
H862 C874 0.950 1_565 S
H863 C875 0.950 . S
C864 H856 0.950 . S
C864 C865 1.386 . S
C864 C866 1.391 . S
C865 C864 1.386 . S
C865 C869 1.393 . S
C866 H858 0.950 . S
C866 C864 1.391 . S
C866 C867 1.400 . S
C867 C866 1.400 . S
C867 C868 1.398 . S
C867 C873 1.491 1_564 S
C868 H859 0.950 1_565 S
C868 C867 1.398 . S
C868 C869 1.391 . S
C869 H857 0.950 . S
C869 C865 1.393 . S
C869 C868 1.391 . S
C870 H860 0.950 . S
C870 C871 1.386 . S
C870 C872 1.391 . S
C871 C870 1.386 . S
C871 C875 1.393 . S
C872 H861 0.950 . S
C872 C870 1.391 . S
C872 C873 1.400 . S
C873 C867 1.491 1_546 S
C873 C872 1.400 . S
C873 C874 1.398 . S
C874 H862 0.950 1_545 S
C874 C873 1.398 . S
C874 C875 1.391 . S
C875 H863 0.950 . S
C875 C871 1.393 . S
C875 C874 1.391 . S
H876 C884 0.950 . S
H877 C889 0.950 . S
H878 C886 0.950 . S
H879 C888 0.950 . S
H880 C890 0.950 . S
H881 C892 0.950 . S
H882 C894 0.950 . S
H883 C895 0.950 . S
C884 H876 0.950 . S
C884 C885 1.386 . S
C884 C886 1.391 . S
C885 C884 1.386 . S
C885 C889 1.393 . S
C886 H878 0.950 . S
C886 C884 1.391 . S
C886 C887 1.400 . S
C887 C886 1.400 . S
C887 C888 1.398 . S
C887 C893 1.491 . S
C888 H879 0.950 . S
C888 C887 1.398 . S
C888 C889 1.391 . S
C889 H877 0.950 . S
C889 C885 1.393 . S
C889 C888 1.391 . S
C890 H880 0.950 . S
C890 C891 1.386 . S
C890 C892 1.391 . S
C891 C890 1.386 . S
C891 C895 1.393 . S
C892 H881 0.950 . S
C892 C890 1.391 . S
C892 C893 1.400 . S
C893 C887 1.491 . S
C893 C892 1.400 . S
C893 C894 1.398 . S
C894 H882 0.950 . S
C894 C893 1.398 . S
C894 C895 1.391 . S
C895 H883 0.950 . S
C895 C891 1.393 . S
C895 C894 1.391 . S
H896 C904 0.950 . S
H897 C909 0.950 . S
H898 C906 0.950 . S
H899 C908 0.950 . S
H900 C910 0.950 . S
H901 C912 0.950 . S
H902 C914 0.950 . S
H903 C915 0.950 . S
C904 H896 0.950 . S
C904 C905 1.386 . S
C904 C906 1.391 . S
C905 C904 1.386 . S
C905 C909 1.393 . S
C906 H898 0.950 . S
C906 C904 1.391 . S
C906 C907 1.400 . S
C907 C906 1.400 . S
C907 C908 1.398 . S
C907 C913 1.491 . S
C908 H899 0.950 . S
C908 C907 1.398 . S
C908 C909 1.391 . S
C909 H897 0.950 . S
C909 C905 1.393 . S
C909 C908 1.391 . S
C910 H900 0.950 . S
C910 C911 1.386 . S
C910 C912 1.391 . S
C911 C910 1.386 . S
C911 C915 1.393 . S
C912 H901 0.950 . S
C912 C910 1.391 . S
C912 C913 1.400 . S
C913 C907 1.491 . S
C913 C912 1.400 . S
C913 C914 1.398 . S
C914 H902 0.950 . S
C914 C913 1.398 . S
C914 C915 1.391 . S
C915 H903 0.950 . S
C915 C911 1.393 . S
C915 C914 1.391 . S
H916 C924 0.950 . S
H917 C929 0.950 . S
H918 C926 0.950 . S
H919 C928 0.950 . S
H920 C930 0.950 . S
H921 C932 0.950 . S
H922 C934 0.950 . S
H923 C935 0.950 . S
C924 H916 0.950 . S
C924 C925 1.386 . S
C924 C926 1.391 . S
C925 C924 1.386 . S
C925 C929 1.393 . S
C926 H918 0.950 . S
C926 C924 1.391 . S
C926 C927 1.400 . S
C927 C926 1.400 . S
C927 C928 1.398 . S
C927 C933 1.491 . S
C928 H919 0.950 . S
C928 C927 1.398 . S
C928 C929 1.391 . S
C929 H917 0.950 . S
C929 C925 1.393 . S
C929 C928 1.391 . S
C930 H920 0.950 . S
C930 C931 1.386 . S
C930 C932 1.391 . S
C931 C930 1.386 . S
C931 C935 1.393 . S
C932 H921 0.950 . S
C932 C930 1.391 . S
C932 C933 1.400 . S
C933 C927 1.491 . S
C933 C932 1.400 . S
C933 C934 1.398 . S
C934 H922 0.950 . S
C934 C933 1.398 . S
C934 C935 1.391 . S
C935 H923 0.950 . S
C935 C931 1.393 . S
C935 C934 1.391 . S
H936 C944 0.950 . S
H937 C949 0.950 . S
H938 C946 0.950 . S
H939 C948 0.950 . S
H940 C950 0.950 . S
H941 C952 0.950 . S
H942 C954 0.950 . S
H943 C955 0.950 . S
C944 H936 0.950 . S
C944 C945 1.386 . S
C944 C946 1.391 . S
C945 C944 1.386 . S
C945 C949 1.393 . S
C946 H938 0.950 . S
C946 C944 1.391 . S
C946 C947 1.400 . S
C947 C946 1.400 . S
C947 C948 1.398 . S
C947 C953 1.491 . S
C948 H939 0.950 . S
C948 C947 1.398 . S
C948 C949 1.391 . S
C949 H937 0.950 . S
C949 C945 1.393 . S
C949 C948 1.391 . S
C950 H940 0.950 . S
C950 C951 1.386 . S
C950 C952 1.391 . S
C951 C950 1.386 . S
C951 C955 1.393 . S
C952 H941 0.950 . S
C952 C950 1.391 . S
C952 C953 1.400 . S
C953 C947 1.491 . S
C953 C952 1.400 . S
C953 C954 1.398 . S
C954 H942 0.950 . S
C954 C953 1.398 . S
C954 C955 1.391 . S
C955 H943 0.950 . S
C955 C951 1.393 . S
C955 C954 1.391 . S
H956 C964 0.950 . S
H957 C969 0.950 . S
H958 C966 0.950 . S
H959 C968 0.950 . S
H960 C970 0.950 . S
H961 C972 0.950 . S
H962 C974 0.950 . S
H963 C975 0.950 . S
C964 H956 0.950 . S
C964 C965 1.386 . S
C964 C966 1.391 . S
C965 C964 1.386 . S
C965 C969 1.393 . S
C966 H958 0.950 . S
C966 C964 1.391 . S
C966 C967 1.400 . S
C967 C966 1.400 . S
C967 C968 1.398 . S
C967 C973 1.491 . S
C968 H959 0.950 . S
C968 C967 1.398 . S
C968 C969 1.391 . S
C969 H957 0.950 . S
C969 C965 1.393 . S
C969 C968 1.391 . S
C970 H960 0.950 . S
C970 C971 1.386 . S
C970 C972 1.391 . S
C971 C970 1.386 . S
C971 C975 1.393 . S
C972 H961 0.950 . S
C972 C970 1.391 . S
C972 C973 1.400 . S
C973 C967 1.491 . S
C973 C972 1.400 . S
C973 C974 1.398 . S
C974 H962 0.950 . S
C974 C973 1.398 . S
C974 C975 1.391 . S
C975 H963 0.950 . S
C975 C971 1.393 . S
C975 C974 1.391 . S
H976 C984 0.950 . S
H977 C989 0.950 . S
H978 C986 0.950 . S
H979 C988 0.950 . S
H980 C990 0.950 . S
H981 C992 0.950 . S
H982 C994 0.950 . S
H983 C995 0.950 . S
C984 H976 0.950 . S
C984 C985 1.386 . S
C984 C986 1.391 . S
C985 C984 1.386 . S
C985 C989 1.393 . S
C986 H978 0.950 . S
C986 C984 1.391 . S
C986 C987 1.400 . S
C987 C986 1.400 . S
C987 C988 1.398 . S
C987 C993 1.491 . S
C988 H979 0.950 . S
C988 C987 1.398 . S
C988 C989 1.391 . S
C989 H977 0.950 . S
C989 C985 1.393 . S
C989 C988 1.391 . S
C990 H980 0.950 . S
C990 C991 1.386 . S
C990 C992 1.391 . S
C991 C990 1.386 . S
C991 C995 1.393 . S
C992 H981 0.950 . S
C992 C990 1.391 . S
C992 C993 1.400 . S
C993 C987 1.491 . S
C993 C992 1.400 . S
C993 C994 1.398 . S
C994 H982 0.950 . S
C994 C993 1.398 . S
C994 C995 1.391 . S
C995 H983 0.950 . S
C995 C991 1.393 . S
C995 C994 1.391 . S
C405 N343 0.968 . S
C411 N13 0.950 . S
C425 N46 1.023 . S
C431 N376 1.002 . S
C445 N79 0.996 . S
C451 N211 1.005 . S
C465 N112 0.920 . S
C471 N244 0.904 . S
C485 N145 1.028 . S
C491 N277 1.047 . S
C505 N178 1.045 . S
C511 N310 1.050 . S
C525 N2 1.728 . S
C531 C183 1.698 . S
C545 C18 1.717 . S
C551 N35 1.719 . S
C565 C51 1.747 . S
C571 N68 1.745 . S
C585 N101 1.742 . S
C591 C84 1.742 . S
C605 N134 1.805 . S
C611 C117 1.782 . S
C625 N167 1.752 . S
C631 C150 1.748 . S
C645 C249 1.722 . S
C651 N200 1.732 . S
C665 N233 1.723 . S
C671 C282 1.690 . S
C685 N266 1.751 . S
C691 C315 1.747 . S
C705 N299 1.811 . S
C711 C348 1.784 . S
C725 N332 1.733 . S
C731 C381 1.734 . S
C745 N365 1.755 . S
C751 C216 1.734 . S
C765 C7 0.684 . S
C771 C304 0.689 . S
C785 C40 0.823 . S
C791 C337 0.826 . S
C805 C73 0.787 . S
C811 C370 0.791 . S
C825 C106 0.824 . S
C831 C205 0.831 . S
C845 C139 0.705 . S
C851 C238 0.700 . S
C865 C271 0.756 . S
C871 C172 0.751 . S
C885 C219 1.372 . S
C891 C21 1.365 . S
C905 C54 1.375 . S
C911 C252 1.375 . S
C925 C87 1.385 . S
C931 C285 1.375 . S
C945 C318 1.408 . S
C951 C120 1.404 . S
C965 C153 1.413 . S
C971 C351 1.406 . S
C985 C384 1.393 . S
C991 C186 1.381 . S
