# Generated by pormake.
# Topology xfu, (5)-cn, num edge types: 1
# Building blocks:
#     Node 0, Type 0, BuildingBlock: BEQFEK_clean_sbu_0, # of connection points: 5
#     Node 1, Type 0, BuildingBlock: BEQFEK_clean_sbu_0, # of connection points: 5
#     Node 2, Type 0, BuildingBlock: BEQFEK_clean_sbu_0, # of connection points: 5
#     Node 3, Type 0, BuildingBlock: BEQFEK_clean_sbu_0, # of connection points: 5
#     Node 4, Type 0, BuildingBlock: BEQFEK_clean_sbu_0, # of connection points: 5
#     Node 5, Type 0, BuildingBlock: BEQFEK_clean_sbu_0, # of connection points: 5
#     Node 6, Type 0, BuildingBlock: BEQFEK_clean_sbu_0, # of connection points: 5
#     Node 7, Type 0, BuildingBlock: BEQFEK_clean_sbu_0, # of connection points: 5
#     Edge 8, Type (0, 0), BuildingBlock: XUDNAN_clean_linker_2, # of connection points: 2
#     Edge 9, Type (0, 0), BuildingBlock: XUDNAN_clean_linker_2, # of connection points: 2
#     Edge 10, Type (0, 0), BuildingBlock: XUDNAN_clean_linker_2, # of connection points: 2
#     Edge 11, Type (0, 0), BuildingBlock: XUDNAN_clean_linker_2, # of connection points: 2
#     Edge 12, Type (0, 0), BuildingBlock: XUDNAN_clean_linker_2, # of connection points: 2
#     Edge 13, Type (0, 0), BuildingBlock: XUDNAN_clean_linker_2, # of connection points: 2
#     Edge 14, Type (0, 0), BuildingBlock: XUDNAN_clean_linker_2, # of connection points: 2
#     Edge 15, Type (0, 0), BuildingBlock: XUDNAN_clean_linker_2, # of connection points: 2
#     Edge 16, Type (0, 0), BuildingBlock: XUDNAN_clean_linker_2, # of connection points: 2
#     Edge 17, Type (0, 0), BuildingBlock: XUDNAN_clean_linker_2, # of connection points: 2
#     Edge 18, Type (0, 0), BuildingBlock: XUDNAN_clean_linker_2, # of connection points: 2
#     Edge 19, Type (0, 0), BuildingBlock: XUDNAN_clean_linker_2, # of connection points: 2
#     Edge 20, Type (0, 0), BuildingBlock: XUDNAN_clean_linker_2, # of connection points: 2
#     Edge 21, Type (0, 0), BuildingBlock: XUDNAN_clean_linker_2, # of connection points: 2
#     Edge 22, Type (0, 0), BuildingBlock: XUDNAN_clean_linker_2, # of connection points: 2
#     Edge 23, Type (0, 0), BuildingBlock: XUDNAN_clean_linker_2, # of connection points: 2
#     Edge 24, Type (0, 0), BuildingBlock: XUDNAN_clean_linker_2, # of connection points: 2
#     Edge 25, Type (0, 0), BuildingBlock: XUDNAN_clean_linker_2, # of connection points: 2
#     Edge 26, Type (0, 0), BuildingBlock: XUDNAN_clean_linker_2, # of connection points: 2
#     Edge 27, Type (0, 0), BuildingBlock: XUDNAN_clean_linker_2, # of connection points: 2
# Relax obj value: 0.266
# Max RMSD: 0.181
# Mean RMSD: 0.181
data_MOF--net-xfu--node1-BEQFEK_clean_sbu_0--edge1-XUDNAN_clean_linker_2
_symmetry_space_group_name_H-M    P1
_symmetry_Int_Tables_number       1
_symmetry_cell_setting            triclinic
loop_
_symmetry_equiv_pos_as_xyz
'x, y, z'
_cell_length_a     30.090248
_cell_length_b     30.15945
_cell_length_c     56.338946
_cell_angle_alpha  90.081443
_cell_angle_beta   90.034441
_cell_angle_gamma 90.058984
loop_
_atom_site_label
_atom_site_type_symbol
_atom_site_fract_x
_atom_site_fract_y
_atom_site_fract_z
_atom_type_partial_charge
Co0 Co 0.05909 0.28066 0.66567 0.0
Co1 Co 0.07183 0.19823 0.63223 0.0
C2 C 0.13958 0.27021 0.63467 0.0
O3 O 0.11598 0.29254 0.64908 0.0
O4 O 0.12722 0.23247 0.62702 0.0
C5 C 0.05433 0.37254 0.67846 0.0
O6 O 0.06593 0.37884 0.65624 0.0
C7 C 0.0803 0.1527 0.58662 0.0
C8 C 0.04569 0.08936 0.59341 0.0
C9 C 0.06473 0.11455 0.57555 0.0
N10 N 0.06938 0.15086 0.60972 0.0
N11 N 0.04976 0.1124 0.6138 0.0
C12 C 0.10447 0.19092 0.57558 0.0
H13 H 0.13525 0.19765 0.58579 0.0
H14 H 0.08351 0.22111 0.57649 0.0
H15 H 0.11385 0.184 0.55691 0.0
C16 C 0.97212 0.28355 0.64176 0.0
N17 N 0.01362 0.26754 0.644 0.0
N18 N 0.0195 0.2346 0.62898 0.0
C19 C 0.98216 0.22991 0.6159 0.0
C20 C 0.95064 0.26035 0.62375 0.0
C21 C 0.95198 0.3159 0.65884 0.0
H22 H 0.96718 0.31206 0.67664 0.0
H23 H 0.95851 0.35011 0.65251 0.0
H24 H 0.91557 0.31103 0.66047 0.0
O25 O 0.06531 0.23071 0.68764 0.0
O26 O 0.07477 0.17154 0.6646 0.0
H27 H 0.97518 0.1633 0.6033 0.0
H28 H 0.94662 0.20402 0.58534 0.0
C29 C 0.97684 0.19738 0.59601 0.0
H30 H 0.00572 0.19982 0.584 0.0
H31 H 0.03692 0.10295 0.63024 0.0
O32 O 0.04693 0.3333 0.68562 0.0
C33 C 0.07117 0.18925 0.68507 0.0
Co34 Co 0.80899 0.57269 0.16314 0.0
Co35 Co 0.89986 0.57416 0.13602 0.0
C36 C 0.82862 0.64168 0.12702 0.0
O37 O 0.80249 0.62383 0.14196 0.0
O38 O 0.86758 0.6267 0.12328 0.0
C39 C 0.71434 0.57291 0.17319 0.0
O40 O 0.70954 0.5873 0.15134 0.0
C41 C 0.9548 0.56176 0.09388 0.0
C42 C 0.02034 0.54612 0.10948 0.0
C43 C 0.99785 0.54939 0.08808 0.0
N44 N 0.952 0.56529 0.1176 0.0
N45 N 0.99143 0.55663 0.12681 0.0
C46 C 0.91561 0.56512 0.07762 0.0
H47 H 0.88416 0.56176 0.08774 0.0
H48 H 0.91727 0.53926 0.06361 0.0
H49 H 0.91592 0.59808 0.0689 0.0
C50 C 0.80671 0.48217 0.14495 0.0
N51 N 0.8249 0.52276 0.1455 0.0
N52 N 0.86388 0.52188 0.13492 0.0
C53 C 0.87204 0.47996 0.12773 0.0
C54 C 0.83595 0.45363 0.13377 0.0
C55 C 0.76485 0.46983 0.15769 0.0
H56 H 0.76942 0.47505 0.17704 0.0
H57 H 0.73748 0.49161 0.15161 0.0
H58 H 0.75541 0.43478 0.15434 0.0
O59 O 0.85436 0.58323 0.18796 0.0
O60 O 0.91906 0.58608 0.16909 0.0
H61 H 0.94311 0.47773 0.12999 0.0
H62 H 0.91807 0.42719 0.11893 0.0
C63 C 0.91606 0.46392 0.11884 0.0
H64 H 0.9209 0.47555 0.10037 0.0
H65 H 0.99813 0.55609 0.14499 0.0
O66 O 0.75297 0.56372 0.18081 0.0
C67 C 0.89639 0.58783 0.18812 0.0
Co68 Co 0.52458 0.3274 0.6678 0.0
Co69 Co 0.53116 0.41082 0.6349 0.0
C70 C 0.45139 0.35175 0.63389 0.0
O71 O 0.4682 0.32619 0.64949 0.0
O72 O 0.47221 0.38582 0.62646 0.0
C73 C 0.50877 0.23665 0.68149 0.0
O74 O 0.48285 0.23526 0.66274 0.0
C75 C 0.53175 0.46718 0.59237 0.0
C76 C 0.57463 0.52263 0.60417 0.0
C77 C 0.55019 0.5071 0.58506 0.0
N78 N 0.54518 0.45934 0.61472 0.0
N79 N 0.57074 0.49258 0.62167 0.0
C80 C 0.49937 0.43833 0.57932 0.0
H81 H 0.46756 0.43766 0.58923 0.0
H82 H 0.51222 0.40387 0.57867 0.0
H83 H 0.49256 0.45039 0.56112 0.0
C84 C 0.60998 0.30729 0.64475 0.0
N85 N 0.57396 0.33308 0.64757 0.0
N86 N 0.57646 0.36709 0.63306 0.0
C87 C 0.61396 0.36351 0.62008 0.0
C88 C 0.63641 0.32539 0.62704 0.0
C89 C 0.6205 0.26851 0.66036 0.0
H90 H 0.6122 0.27664 0.67904 0.0
H91 H 0.59995 0.23972 0.65483 0.0
H92 H 0.65611 0.2593 0.65949 0.0
O93 O 0.52186 0.37692 0.69068 0.0
O94 O 0.52634 0.43592 0.66738 0.0
H95 H 0.63738 0.42715 0.6091 0.0
H96 H 0.6549 0.38211 0.59004 0.0
C97 C 0.62717 0.39523 0.60094 0.0
H98 H 0.59833 0.40162 0.5892 0.0
H99 H 0.58541 0.4948 0.63842 0.0
O100 O 0.52927 0.27226 0.68653 0.0
C101 C 0.52248 0.41878 0.68792 0.0
Co102 Co 0.78845 0.0119 0.15982 0.0
Co103 Co 0.70153 0.02778 0.13044 0.0
C104 C 0.759 0.94622 0.12444 0.0
O105 O 0.78746 0.95921 0.1396 0.0
O106 O 0.72451 0.96903 0.11981 0.0
C107 C 0.87971 0.9945 0.1726 0.0
O108 O 0.88327 0.97817 0.15106 0.0
C109 C 0.65466 0.03231 0.08587 0.0
C110 C 0.59061 0.06365 0.09499 0.0
C111 C 0.61389 0.04427 0.07646 0.0
N112 N 0.65533 0.04327 0.10893 0.0
N113 N 0.61712 0.0624 0.11431 0.0
C114 C 0.69313 0.01183 0.0731 0.0
H115 H 0.72487 0.02288 0.08126 0.0
H116 H 0.69271 0.02082 0.054 0.0
H117 H 0.69107 0.97522 0.07464 0.0
C118 C 0.80999 0.09963 0.14162 0.0
N119 N 0.78436 0.06327 0.14146 0.0
N120 N 0.74686 0.07189 0.1304 0.0
C121 C 0.74694 0.11483 0.12377 0.0
C122 C 0.7869 0.13394 0.13091 0.0
C123 C 0.85388 0.10262 0.15406 0.0
H124 H 0.87521 0.07465 0.14836 0.0
H125 H 0.87124 0.13418 0.14998 0.0
H126 H 0.84869 0.10006 0.17351 0.0
O127 O 0.73891 0.0105 0.1829 0.0
O128 O 0.67625 0.02066 0.16265 0.0
H129 H 0.7124 0.1745 0.11268 0.0
H130 H 0.6977 0.12429 0.09696 0.0
C131 C 0.70674 0.13834 0.11452 0.0
H132 H 0.67838 0.13254 0.12671 0.0
H133 H 0.60868 0.07351 0.13127 0.0
O134 O 0.84301 0.01115 0.17923 0.0
C135 C 0.6968 0.01423 0.1821 0.0
Co136 Co 0.04061 0.81534 0.33408 0.0
Co137 Co 0.02903 0.89986 0.36573 0.0
C138 C 0.9578 0.83397 0.36355 0.0
O139 O 0.9802 0.81271 0.34815 0.0
O140 O 0.97309 0.86861 0.37354 0.0
C141 C 0.03168 0.72314 0.32521 0.0
O142 O 0.01591 0.72319 0.34696 0.0
C143 C 0.02176 0.96096 0.40676 0.0
C144 C 0.05643 0.01994 0.3926 0.0
C145 C 0.03568 0.00349 0.41265 0.0
N146 N 0.03457 0.95246 0.38433 0.0
N147 N 0.05487 0.98801 0.37594 0.0
C148 C 0.99521 0.9295 0.42165 0.0
H149 H 0.96646 0.91709 0.41127 0.0
H150 H 0.01595 0.90046 0.4264 0.0
H151 H 0.98271 0.94557 0.43805 0.0
C152 C 0.1261 0.81144 0.35957 0.0
N153 N 0.08493 0.82789 0.35666 0.0
N154 N 0.07955 0.86242 0.37066 0.0
C155 C 0.11666 0.86783 0.38378 0.0
C156 C 0.14781 0.83618 0.37696 0.0
C157 C 0.14614 0.77764 0.34327 0.0
H158 H 0.12896 0.77783 0.32588 0.0
H159 H 0.14237 0.74426 0.35128 0.0
H160 H 0.18202 0.78417 0.34036 0.0
O161 O 0.0415 0.86134 0.31006 0.0
O162 O 0.02602 0.92081 0.33181 0.0
H163 H 0.12702 0.93559 0.39364 0.0
H164 H 0.15109 0.89597 0.41404 0.0
C165 C 0.12229 0.90295 0.40233 0.0
H166 H 0.09211 0.90454 0.41348 0.0
H167 H 0.06832 0.9902 0.35891 0.0
O168 O 0.04846 0.75861 0.31703 0.0
C169 C 0.03341 0.90249 0.31178 0.0
Co170 Co 0.26442 0.52839 0.83368 0.0
Co171 Co 0.18369 0.51603 0.86813 0.0
C172 C 0.25317 0.44706 0.8646 0.0
O173 O 0.27275 0.46918 0.8485 0.0
O174 O 0.21833 0.46163 0.87466 0.0
C175 C 0.35583 0.52253 0.82051 0.0
O176 O 0.35825 0.49762 0.83957 0.0
C177 C 0.1375 0.50535 0.91313 0.0
C178 C 0.07062 0.53187 0.90541 0.0
C179 C 0.09639 0.51377 0.92337 0.0
N180 N 0.13597 0.5178 0.89027 0.0
N181 N 0.0958 0.53323 0.88567 0.0
C182 C 0.17925 0.4905 0.92522 0.0
H183 H 0.20888 0.50257 0.91544 0.0
H184 H 0.18055 0.50293 0.94376 0.0
H185 H 0.18018 0.45373 0.92551 0.0
C186 C 0.26862 0.61491 0.85784 0.0
N187 N 0.25266 0.57335 0.85606 0.0
N188 N 0.21965 0.56811 0.87109 0.0
C189 C 0.21464 0.60591 0.88365 0.0
C190 C 0.24522 0.63711 0.87553 0.0
C191 C 0.30041 0.63454 0.84028 0.0
H192 H 0.29484 0.61981 0.82249 0.0
H193 H 0.33492 0.62687 0.84587 0.0
H194 H 0.29656 0.671 0.83886 0.0
O195 O 0.21442 0.52541 0.81142 0.0
O196 O 0.15724 0.51192 0.83541 0.0
H197 H 0.14704 0.6131 0.89475 0.0
H198 H 0.18657 0.64304 0.91304 0.0
C199 C 0.1807 0.6122 0.90277 0.0
H200 H 0.18219 0.584 0.91526 0.0
H201 H 0.0859 0.54556 0.86919 0.0
O202 O 0.31909 0.54074 0.81514 0.0
C203 C 0.17331 0.51764 0.81468 0.0
Co204 Co 0.56819 0.76431 0.32498 0.0
Co205 Co 0.56627 0.68616 0.36153 0.0
C206 C 0.64612 0.74289 0.35658 0.0
O207 O 0.62799 0.76411 0.33968 0.0
O208 O 0.62571 0.71221 0.36752 0.0
C209 C 0.57981 0.85481 0.31407 0.0
O210 O 0.59172 0.856 0.33651 0.0
C211 C 0.56767 0.64454 0.40812 0.0
C212 C 0.52464 0.58585 0.40313 0.0
C213 C 0.54806 0.60952 0.42012 0.0
N214 N 0.55543 0.6424 0.38523 0.0
N215 N 0.53033 0.60682 0.38223 0.0
C216 C 0.59817 0.67938 0.41791 0.0
H217 H 0.63082 0.67673 0.40891 0.0
H218 H 0.58458 0.71278 0.41401 0.0
H219 H 0.60384 0.67563 0.43723 0.0
C220 C 0.48705 0.78975 0.35079 0.0
N221 N 0.5227 0.7635 0.34783 0.0
N222 N 0.5215 0.73109 0.36343 0.0
C223 C 0.48525 0.73644 0.37728 0.0
C224 C 0.46232 0.77383 0.36972 0.0
C225 C 0.47435 0.82608 0.33401 0.0
H226 H 0.4841 0.81713 0.31565 0.0
H227 H 0.49204 0.85694 0.33913 0.0
H228 H 0.43805 0.83246 0.33436 0.0
O229 O 0.56196 0.71277 0.30425 0.0
O230 O 0.56614 0.65627 0.32956 0.0
H231 H 0.46658 0.67293 0.39092 0.0
H232 H 0.44383 0.71911 0.40745 0.0
C233 C 0.47326 0.70687 0.39762 0.0
H234 H 0.50147 0.70538 0.41018 0.0
H235 H 0.51574 0.5978 0.36612 0.0
O236 O 0.56626 0.81841 0.30527 0.0
C237 C 0.56282 0.67139 0.30847 0.0
Co238 Co 0.31948 0.06303 0.82925 0.0
Co239 Co 0.39928 0.05654 0.86453 0.0
C240 C 0.34351 0.13675 0.8636 0.0
O241 O 0.32143 0.12035 0.84641 0.0
O242 O 0.37448 0.11525 0.87382 0.0
C243 C 0.2275 0.07464 0.81836 0.0
O244 O 0.22456 0.08557 0.84089 0.0
C245 C 0.45324 0.04848 0.90807 0.0
C246 C 0.50829 0.00657 0.895 0.0
C247 C 0.49181 0.02695 0.91521 0.0
N248 N 0.44726 0.04075 0.88477 0.0
N249 N 0.48058 0.0162 0.87703 0.0
C250 C 0.42026 0.07225 0.92335 0.0
H251 H 0.43126 0.10708 0.9258 0.0
H252 H 0.38705 0.07245 0.91478 0.0
H253 H 0.41791 0.05637 0.94107 0.0
C254 C 0.29562 0.97829 0.85196 0.0
N255 N 0.32183 0.01422 0.84997 0.0
N256 N 0.35472 0.01139 0.86527 0.0
C257 C 0.34989 0.97367 0.87791 0.0
C258 C 0.31216 0.95152 0.86992 0.0
C259 C 0.25824 0.9678 0.83529 0.0
H260 H 0.26641 0.97954 0.81718 0.0
H261 H 0.22778 0.98508 0.84139 0.0
H262 H 0.2515 0.93166 0.83455 0.0
O263 O 0.36924 0.06179 0.80717 0.0
O264 O 0.42614 0.06237 0.83214 0.0
H265 H 0.41341 0.95185 0.89025 0.0
H266 H 0.36715 0.93058 0.90733 0.0
C267 C 0.38017 0.95977 0.89761 0.0
H268 H 0.38393 0.98745 0.91036 0.0
H269 H 0.48369 0.00495 0.85959 0.0
O270 O 0.26482 0.06277 0.81001 0.0
C271 C 0.41079 0.06323 0.81106 0.0
H272 H 0.05375 0.96988 0.45683 0.0
H273 H 0.01558 0.09007 0.41994 0.0
H274 H 0.01805 0.13148 0.45784 0.0
H275 H 0.99161 0.99137 0.51162 0.0
H276 H 0.03442 0.96834 0.53028 0.0
H277 H 0.02696 0.94783 0.50048 0.0
H278 H 0.10964 0.96485 0.49141 0.0
H279 H 0.11723 0.9859 0.52106 0.0
H280 H 0.13062 0.02025 0.49589 0.0
H281 H 0.02578 0.15982 0.49922 0.0
H282 H 0.03858 0.17388 0.54175 0.0
H283 H 0.07403 0.03581 0.5519 0.0
C284 C 0.04468 0.00461 0.45689 0.0
C285 C 0.03336 0.02672 0.43565 0.0
C286 C 0.02373 0.07259 0.43616 0.0
C287 C 0.02505 0.0963 0.45754 0.0
C288 C 0.0365 0.07362 0.47818 0.0
C289 C 0.04608 0.02882 0.47808 0.0
C290 C 0.05918 0.01289 0.50261 0.0
C291 C 0.02606 0.97805 0.51179 0.0
C292 C 0.10701 0.99492 0.50273 0.0
C293 C 0.0557 0.05582 0.51646 0.0
C294 C 0.04245 0.09036 0.502 0.0
C295 C 0.03667 0.13318 0.51067 0.0
C296 C 0.04467 0.14098 0.5348 0.0
C297 C 0.05895 0.10628 0.54989 0.0
C298 C 0.06396 0.06307 0.54062 0.0
H299 H 0.98534 0.59047 0.04512 0.0
H300 H 0.051 0.47888 0.07859 0.0
H301 H 0.08043 0.45528 0.03963 0.0
H302 H 0.95479 0.53467 0.99031 0.0
H303 H 0.96571 0.58252 0.97208 0.0
H304 H 0.94834 0.58962 0.00245 0.0
H305 H 0.01826 0.63743 0.01083 0.0
H306 H 0.03577 0.63055 0.9805 0.0
H307 H 0.07251 0.61515 0.00438 0.0
H308 H 0.10202 0.44349 0.99718 0.0
H309 H 0.11938 0.44754 0.95446 0.0
H310 H 0.0422 0.56854 0.94884 0.0
C311 C 0.00532 0.5607 0.04415 0.0
C312 C 0.01541 0.53603 0.06471 0.0
C313 C 0.04288 0.49811 0.06295 0.0
C314 C 0.0595 0.48433 0.04093 0.0
C315 C 0.04864 0.50914 0.02092 0.0
C316 C 0.02252 0.54673 0.02233 0.0
C317 C 0.01758 0.56859 0.99829 0.0
C318 C 0.9687 0.56885 0.99031 0.0
C319 C 0.03721 0.61571 0.99853 0.0
C320 C 0.04516 0.5375 0.98319 0.0
C321 C 0.06243 0.50323 0.99656 0.0
C322 C 0.08911 0.47045 0.98657 0.0
C323 C 0.09918 0.47328 0.96234 0.0
C324 C 0.0832 0.50903 0.94851 0.0
C325 C 0.05507 0.54095 0.95902 0.0
H326 H 0.55933 0.47131 0.5406 0.0
H327 H 0.53361 0.59444 0.57794 0.0
H328 H 0.52867 0.63395 0.53957 0.0
H329 H 0.62736 0.5172 0.4954 0.0
H330 H 0.60653 0.48171 0.47215 0.0
H331 H 0.60631 0.4628 0.50244 0.0
H332 H 0.52164 0.44774 0.49979 0.0
H333 H 0.52162 0.46639 0.46942 0.0
H334 H 0.48485 0.49172 0.49072 0.0
H335 H 0.5265 0.65974 0.4975 0.0
H336 H 0.5299 0.6711 0.45415 0.0
H337 H 0.55814 0.53139 0.44401 0.0
C338 C 0.55161 0.50637 0.54062 0.0
C339 C 0.54567 0.52981 0.56207 0.0
C340 C 0.53769 0.57599 0.56157 0.0
C341 C 0.53474 0.59859 0.53992 0.0
C342 C 0.54028 0.57447 0.51903 0.0
C343 C 0.54864 0.52942 0.51917 0.0
C344 C 0.55469 0.51165 0.49422 0.0
C345 C 0.60151 0.49221 0.49087 0.0
C346 C 0.51854 0.47735 0.48819 0.0
C347 C 0.5487 0.55383 0.48004 0.0
C348 C 0.54024 0.58961 0.49473 0.0
C349 C 0.53354 0.63211 0.48583 0.0
C350 C 0.53599 0.63831 0.46125 0.0
C351 C 0.5457 0.60235 0.44595 0.0
C352 C 0.55131 0.55947 0.45544 0.0
H353 H 0.49594 0.08841 0.9516 0.0
H354 H 0.53066 0.95311 0.93295 0.0
H355 H 0.56343 0.9425 0.97262 0.0
H356 H 0.59366 0.11186 0.98485 0.0
H357 H 0.56592 0.14468 0.00711 0.0
H358 H 0.5435 0.14148 0.97752 0.0
H359 H 0.46819 0.11426 0.99438 0.0
H360 H 0.49034 0.11752 0.02406 0.0
H361 H 0.46688 0.06622 0.01338 0.0
H362 H 0.59324 0.9464 0.01349 0.0
H363 H 0.62017 0.96514 0.05356 0.0
H364 H 0.56653 0.09791 0.04643 0.0
C365 C 0.50955 0.0563 0.95605 0.0
C366 C 0.51014 0.02132 0.93934 0.0
C367 C 0.52981 0.9803 0.94552 0.0
C368 C 0.54832 0.97388 0.96802 0.0
C369 C 0.54706 0.00889 0.98411 0.0
C370 C 0.52828 0.04931 0.97849 0.0
C371 C 0.53273 0.08181 0.99893 0.0
C372 C 0.56062 0.12235 0.99166 0.0
C373 C 0.48679 0.09576 0.00824 0.0
C374 C 0.55715 0.0533 0.01681 0.0
C375 C 0.56494 0.01135 0.00783 0.0
C376 C 0.58757 0.97918 0.02071 0.0
C377 C 0.60313 0.99027 0.04334 0.0
C378 C 0.59626 0.03323 0.05277 0.0
C379 C 0.57231 0.0649 0.03951 0.0
H380 H 0.2237 0.05517 0.77103 0.0
H381 H 0.14648 0.11119 0.82877 0.0
H382 H 0.08889 0.13427 0.8002 0.0
H383 H 0.20954 0.13871 0.73275 0.0
H384 H 0.20531 0.10597 0.70604 0.0
H385 H 0.23502 0.08469 0.73118 0.0
H386 H 0.18502 0.01467 0.73132 0.0
H387 H 0.15514 0.0357 0.70597 0.0
H388 H 0.12546 0.02067 0.73256 0.0
H389 H 0.04914 0.16518 0.76551 0.0
H390 H 0.02878 0.19942 0.72727 0.0
H391 H 0.12967 0.12146 0.69168 0.0
C392 C 0.19397 0.07097 0.77778 0.0
C393 C 0.18956 0.08141 0.80212 0.0
C394 C 0.15048 0.10266 0.81021 0.0
C395 C 0.11749 0.11575 0.79411 0.0
C396 C 0.12376 0.10664 0.77007 0.0
C397 C 0.16075 0.08411 0.76196 0.0
C398 C 0.16237 0.08326 0.73508 0.0
C399 C 0.20559 0.10444 0.72574 0.0
C400 C 0.15664 0.03574 0.72568 0.0
C401 C 0.12216 0.11137 0.72935 0.0
C402 C 0.09985 0.12379 0.74979 0.0
C403 C 0.06536 0.15456 0.74934 0.0
C404 C 0.05415 0.17396 0.72758 0.0
C405 C 0.07722 0.16238 0.7066 0.0
C406 C 0.1106 0.12966 0.70738 0.0
H407 H 0.05182 0.71684 0.27789 0.0
H408 H 0.98148 0.64951 0.33465 0.0
H409 H 0.94614 0.60019 0.30529 0.0
H410 H 0.96616 0.72198 0.23956 0.0
H411 H 0.99701 0.71229 0.21264 0.0
H412 H 0.02434 0.73606 0.23801 0.0
H413 H 0.08297 0.67326 0.23751 0.0
H414 H 0.05628 0.64956 0.21178 0.0
H415 H 0.065 0.61622 0.23789 0.0
H416 H 0.90682 0.56987 0.27001 0.0
H417 H 0.87239 0.55443 0.23106 0.0
H418 H 0.97004 0.63866 0.19687 0.0
C419 C 0.03031 0.69062 0.28425 0.0
C420 C 0.01941 0.6871 0.30859 0.0
C421 C 0.99055 0.65278 0.31614 0.0
C422 C 0.97024 0.62458 0.29957 0.0
C423 C 0.97978 0.63059 0.27558 0.0
C424 C 0.00992 0.66209 0.26794 0.0
C425 C 0.01104 0.66469 0.24108 0.0
C426 C 0.9989 0.71152 0.23233 0.0
C427 C 0.05653 0.65004 0.2315 0.0
C428 C 0.97522 0.63136 0.23485 0.0
C429 C 0.95783 0.61185 0.25502 0.0
C430 C 0.92101 0.58387 0.25404 0.0
C431 C 0.90147 0.5756 0.2319 0.0
C432 C 0.91899 0.59496 0.21103 0.0
C433 C 0.95675 0.6226 0.21252 0.0
H434 H 0.41583 0.45675 0.81323 0.0
H435 H 0.37551 0.58593 0.78749 0.0
H436 H 0.42804 0.57882 0.75396 0.0
H437 H 0.53519 0.45914 0.79129 0.0
H438 H 0.53227 0.40143 0.78308 0.0
H439 H 0.50098 0.42155 0.80816 0.0
H440 H 0.42873 0.39014 0.78955 0.0
H441 H 0.45955 0.37023 0.76446 0.0
H442 H 0.41308 0.40697 0.76 0.0
H443 H 0.47469 0.55274 0.7202 0.0
H444 H 0.50668 0.50834 0.68771 0.0
H445 H 0.51356 0.39427 0.73448 0.0
C446 C 0.41954 0.48434 0.80111 0.0
C447 C 0.39233 0.52222 0.80309 0.0
C448 C 0.39655 0.55688 0.78636 0.0
C449 C 0.42645 0.55319 0.76736 0.0
C450 C 0.45166 0.51457 0.76535 0.0
C451 C 0.44849 0.48071 0.78181 0.0
C452 C 0.47316 0.43973 0.77362 0.0
C453 C 0.51276 0.4299 0.79001 0.0
C454 C 0.44175 0.39944 0.77179 0.0
C455 C 0.4887 0.45496 0.74942 0.0
C456 C 0.47721 0.49865 0.74529 0.0
C457 C 0.4846 0.51878 0.72339 0.0
C458 C 0.50278 0.49321 0.705 0.0
C459 C 0.51259 0.44773 0.70851 0.0
C460 C 0.50683 0.42901 0.73128 0.0
H461 H 0.55785 0.86362 0.26712 0.0
H462 H 0.6226 0.93195 0.32553 0.0
H463 H 0.64875 0.98958 0.29792 0.0
H464 H 0.63992 0.87527 0.22734 0.0
H465 H 0.6058 0.88439 0.2015 0.0
H466 H 0.5839 0.85404 0.22626 0.0
H467 H 0.51782 0.90877 0.22924 0.0
H468 H 0.53943 0.9393 0.20427 0.0
H469 H 0.52847 0.96739 0.23191 0.0
H470 H 0.68172 0.02892 0.26366 0.0
H471 H 0.71474 0.05032 0.22519 0.0
H472 H 0.6255 0.96033 0.18876 0.0
C473 C 0.57625 0.89151 0.27423 0.0
C474 C 0.58823 0.89326 0.29847 0.0
C475 C 0.61284 0.92997 0.30706 0.0
C476 C 0.62775 0.96299 0.2915 0.0
C477 C 0.61701 0.95929 0.26752 0.0
C478 C 0.59108 0.92493 0.25896 0.0
C479 C 0.58831 0.92593 0.23211 0.0
C480 C 0.60553 0.88234 0.22118 0.0
C481 C 0.54067 0.93596 0.2239 0.0
C482 C 0.61912 0.9644 0.22684 0.0
C483 C 0.63483 0.98358 0.24754 0.0
C484 C 0.6685 0.01536 0.24732 0.0
C485 C 0.68717 0.02719 0.22546 0.0
C486 C 0.67175 0.00767 0.20417 0.0
C487 C 0.63651 0.97688 0.2048 0.0
H488 H 0.97181 0.96612 0.3023 0.0
H489 H 0.08033 0.89214 0.27099 0.0
H490 H 0.06012 0.92059 0.23141 0.0
H491 H 0.89692 0.93847 0.26122 0.0
H492 H 0.86701 0.99019 0.26017 0.0
H493 H 0.89678 0.97508 0.28656 0.0
H494 H 0.94162 0.04838 0.28479 0.0
H495 H 0.91146 0.06413 0.25845 0.0
H496 H 0.97134 0.06264 0.25809 0.0
H497 H 0.01981 0.94353 0.19513 0.0
H498 H 0.96271 0.95988 0.16493 0.0
H499 H 0.87902 0.0178 0.21949 0.0
C500 C 0.99258 0.95787 0.28724 0.0
C501 C 0.02801 0.92766 0.28962 0.0
C502 C 0.05336 0.91574 0.26946 0.0
C503 C 0.04221 0.93184 0.24694 0.0
C504 C 0.00559 0.95978 0.24491 0.0
C505 C 0.98134 0.9731 0.26455 0.0
C506 C 0.93942 0.99723 0.25722 0.0
C507 C 0.8976 0.97382 0.26686 0.0
C508 C 0.94108 0.046 0.26511 0.0
C509 C 0.94269 0.99319 0.2305 0.0
C510 C 0.98157 0.97242 0.22372 0.0
C511 C 0.98975 0.96083 0.20015 0.0
C512 C 0.95703 0.97005 0.18312 0.0
C513 C 0.91649 0.99023 0.18983 0.0
C514 C 0.90992 0.0029 0.21373 0.0
H515 H 0.10909 0.45525 0.80743 0.0
H516 H 0.17642 0.56565 0.77394 0.0
H517 H 0.13887 0.54842 0.73605 0.0
H518 H 0.12671 0.38339 0.76272 0.0
H519 H 0.07482 0.35371 0.76472 0.0
H520 H 0.09679 0.38133 0.79042 0.0
H521 H 0.02366 0.42591 0.79482 0.0
H522 H 0.0013 0.39816 0.76906 0.0
H523 H 0.0032 0.45787 0.77011 0.0
H524 H 0.10523 0.51231 0.70079 0.0
H525 H 0.08232 0.45772 0.67056 0.0
H526 H 0.03903 0.36845 0.72633 0.0
C527 C 0.11422 0.47689 0.79235 0.0
C528 C 0.14484 0.51224 0.79359 0.0
C529 C 0.15256 0.53874 0.77331 0.0
C530 C 0.13121 0.52934 0.75178 0.0
C531 C 0.10243 0.49315 0.7508 0.0
C532 C 0.09384 0.4673 0.77057 0.0
C533 C 0.06772 0.42613 0.76392 0.0
C534 C 0.09304 0.38367 0.77084 0.0
C535 C 0.0212 0.4271 0.77515 0.0
C536 C 0.06513 0.43165 0.73723 0.0
C537 C 0.08414 0.47117 0.7301 0.0
C538 C 0.08944 0.48168 0.70617 0.0
C539 C 0.07637 0.45038 0.6891 0.0
C540 C 0.05888 0.40878 0.69605 0.0
C541 C 0.05181 0.40015 0.72042 0.0
H542 H 0.62262 0.60556 0.30147 0.0
H543 H 0.5124 0.67404 0.26859 0.0
H544 H 0.53062 0.6394 0.23011 0.0
H545 H 0.69474 0.62906 0.25982 0.0
H546 H 0.72609 0.57815 0.25989 0.0
H547 H 0.69634 0.5947 0.28599 0.0
H548 H 0.6535 0.52017 0.28614 0.0
H549 H 0.68371 0.50296 0.26008 0.0
H550 H 0.62381 0.50272 0.25994 0.0
H551 H 0.57038 0.61348 0.19443 0.0
H552 H 0.62862 0.59932 0.16459 0.0
H553 H 0.71534 0.54949 0.22001 0.0
C554 C 0.60088 0.61095 0.28642 0.0
C555 C 0.56553 0.64141 0.28794 0.0
C556 C 0.53907 0.64998 0.26773 0.0
C557 C 0.54917 0.63038 0.24584 0.0
C558 C 0.58599 0.60248 0.24447 0.0
C559 C 0.61127 0.59237 0.2643 0.0
C560 C 0.65382 0.56885 0.25738 0.0
C561 C 0.69513 0.59424 0.26628 0.0
C562 C 0.65368 0.52081 0.26642 0.0
C563 C 0.65005 0.57032 0.23059 0.0
C564 C 0.61006 0.58849 0.22349 0.0
C565 C 0.6013 0.5981 0.19972 0.0
C566 C 0.63468 0.59011 0.18288 0.0
C567 C 0.67653 0.57332 0.18996 0.0
C568 C 0.68351 0.56187 0.214 0.0
H569 H 0.38864 0.06776 0.76415 0.0
H570 H 0.49996 0.08277 0.81251 0.0
H571 H 0.54407 0.11639 0.78036 0.0
H572 H 0.45722 0.05193 0.70737 0.0
H573 H 0.41726 0.08375 0.69073 0.0
H574 H 0.39919 0.04983 0.71524 0.0
H575 H 0.36182 0.11846 0.73435 0.0
H576 H 0.38015 0.15262 0.71024 0.0
H577 H 0.39477 0.16723 0.74028 0.0
H578 H 0.56856 0.16423 0.74701 0.0
H579 H 0.5728 0.21878 0.71447 0.0
H580 H 0.44622 0.17215 0.68735 0.0
C581 C 0.42292 0.07641 0.76776 0.0
C582 C 0.44079 0.07269 0.79087 0.0
C583 C 0.48557 0.08504 0.79493 0.0
C584 C 0.51095 0.10413 0.77673 0.0
C585 C 0.49131 0.10989 0.75451 0.0
C586 C 0.44853 0.09557 0.74983 0.0
C587 C 0.4327 0.11124 0.72573 0.0
C588 C 0.42623 0.07183 0.70876 0.0
C589 C 0.38988 0.13904 0.7278 0.0
C590 C 0.47196 0.13935 0.71834 0.0
C591 C 0.50586 0.13735 0.73492 0.0
C592 C 0.5429 0.16502 0.73355 0.0
C593 C 0.54489 0.1961 0.71511 0.0
C594 C 0.50999 0.19931 0.69834 0.0
C595 C 0.47387 0.16959 0.69958 0.0
H596 H 0.89885 0.33423 0.61806 0.0
H597 H 0.89383 0.19052 0.61737 0.0
H598 H 0.81319 0.1932 0.61033 0.0
H599 H 0.80634 0.3444 0.65391 0.0
H600 H 0.78594 0.39489 0.64075 0.0
H601 H 0.84429 0.38233 0.63975 0.0
H602 H 0.8432 0.38979 0.59391 0.0
H603 H 0.78461 0.4022 0.59478 0.0
H604 H 0.80465 0.35702 0.57676 0.0
H605 H 0.73279 0.2106 0.60763 0.0
H606 H 0.65762 0.24097 0.61438 0.0
H607 H 0.71356 0.37262 0.62246 0.0
C608 C 0.88083 0.30339 0.61595 0.0
C609 C 0.90283 0.2622 0.61753 0.0
C610 C 0.87806 0.22249 0.61519 0.0
C611 C 0.83213 0.22367 0.61132 0.0
C612 C 0.81129 0.26481 0.61029 0.0
C613 C 0.83472 0.30399 0.61286 0.0
C614 C 0.80368 0.34329 0.61498 0.0
C615 C 0.81046 0.36763 0.63876 0.0
C616 C 0.80938 0.37494 0.59384 0.0
C617 C 0.75918 0.31989 0.61402 0.0
C618 C 0.76436 0.2748 0.61055 0.0
C619 C 0.72826 0.24587 0.61019 0.0
C620 C 0.68582 0.26332 0.61414 0.0
C621 C 0.68008 0.30897 0.61899 0.0
C622 C 0.71707 0.33771 0.61836 0.0
H623 H 0.82449 0.38997 0.09964 0.0
H624 H 0.84636 0.41006 0.17494 0.0
H625 H 0.83756 0.32975 0.18194 0.0
H626 H 0.74081 0.30885 0.1051 0.0
H627 H 0.75855 0.27519 0.08041 0.0
H628 H 0.77018 0.33378 0.08063 0.0
H629 H 0.85423 0.3181 0.0753 0.0
H630 H 0.84282 0.25943 0.0747 0.0
H631 H 0.8821 0.28161 0.09578 0.0
H632 H 0.81903 0.25082 0.18158 0.0
H633 H 0.79949 0.173 0.17348 0.0
H634 H 0.79247 0.20113 0.09808 0.0
C635 C 0.82826 0.37698 0.11744 0.0
C636 C 0.83604 0.40545 0.13684 0.0
C637 C 0.8404 0.38817 0.16 0.0
C638 C 0.8354 0.34286 0.16411 0.0
C639 C 0.82644 0.31555 0.14478 0.0
C640 C 0.82351 0.33158 0.12185 0.0
C641 C 0.81231 0.29476 0.10449 0.0
C642 C 0.76782 0.3037 0.09192 0.0
C643 C 0.85013 0.28808 0.08651 0.0
C644 C 0.80872 0.25585 0.12136 0.0
C645 C 0.81686 0.2689 0.1445 0.0
C646 C 0.8135 0.23985 0.16352 0.0
C647 C 0.80245 0.19584 0.15875 0.0
C648 C 0.79557 0.18127 0.13515 0.0
C649 C 0.79814 0.21166 0.11622 0.0
H650 H 0.38585 0.72654 0.37651 0.0
H651 H 0.44088 0.85923 0.38012 0.0
H652 H 0.36586 0.88945 0.38763 0.0
H653 H 0.29154 0.75116 0.34629 0.0
H654 H 0.25473 0.71411 0.36188 0.0
H655 H 0.31314 0.702 0.36035 0.0
H656 H 0.3175 0.69863 0.40625 0.0
H657 H 0.2588 0.71017 0.40796 0.0
H658 H 0.29787 0.74489 0.42361 0.0
H659 H 0.28513 0.90577 0.38661 0.0
H660 H 0.20416 0.90707 0.38104 0.0
H661 H 0.20072 0.76337 0.3837 0.0
C662 C 0.38227 0.76171 0.37987 0.0
C663 C 0.41892 0.79067 0.37792 0.0
C664 C 0.41297 0.83667 0.38155 0.0
C665 C 0.37063 0.85403 0.38594 0.0
C666 C 0.33489 0.82473 0.38716 0.0
C667 C 0.34033 0.77944 0.38473 0.0
C668 C 0.29603 0.75557 0.38512 0.0
C669 C 0.28844 0.72918 0.36204 0.0
C670 C 0.29234 0.72554 0.40704 0.0
C671 C 0.26476 0.7947 0.38689 0.0
C672 C 0.28789 0.83426 0.38813 0.0
C673 C 0.26651 0.87506 0.38667 0.0
C674 C 0.22034 0.87545 0.38369 0.0
C675 C 0.19587 0.83534 0.38268 0.0
C676 C 0.21846 0.79456 0.38479 0.0
H677 H 0.35851 0.87407 0.87519 0.0
H678 H 0.2264 0.93044 0.88021 0.0
H679 H 0.1951 0.85565 0.88671 0.0
H680 H 0.33134 0.78076 0.84385 0.0
H681 H 0.36842 0.74325 0.85891 0.0
H682 H 0.38131 0.80143 0.85769 0.0
H683 H 0.38614 0.80461 0.90359 0.0
H684 H 0.37378 0.74616 0.90497 0.0
H685 H 0.34001 0.78518 0.92114 0.0
H686 H 0.17746 0.77505 0.88531 0.0
H687 H 0.17495 0.69405 0.87998 0.0
H688 H 0.31898 0.6893 0.88118 0.0
C689 C 0.32323 0.87076 0.87854 0.0
C690 C 0.29475 0.90782 0.87727 0.0
C691 C 0.24861 0.90224 0.88102 0.0
C692 C 0.23063 0.86001 0.88484 0.0
C693 C 0.25944 0.82391 0.88538 0.0
C694 C 0.30487 0.82889 0.88282 0.0
C695 C 0.32814 0.78438 0.88273 0.0
C696 C 0.35379 0.77705 0.85941 0.0
C697 C 0.35883 0.77982 0.9044 0.0
C698 C 0.28853 0.75358 0.88455 0.0
C699 C 0.24923 0.77709 0.88611 0.0
C700 C 0.20801 0.75615 0.88504 0.0
C701 C 0.20691 0.71003 0.88219 0.0
C702 C 0.24677 0.68522 0.88088 0.0
C703 C 0.288 0.70737 0.88252 0.0
H704 H 0.40227 0.27549 0.63806 0.0
H705 H 0.39493 0.41164 0.61348 0.0
H706 H 0.31431 0.40304 0.60699 0.0
H707 H 0.3157 0.23073 0.5966 0.0
H708 H 0.29491 0.19294 0.61874 0.0
H709 H 0.35287 0.20814 0.61858 0.0
H710 H 0.3465 0.23388 0.66232 0.0
H711 H 0.28858 0.21922 0.66259 0.0
H712 H 0.30543 0.27482 0.67021 0.0
H713 H 0.23348 0.38411 0.61023 0.0
H714 H 0.15884 0.35282 0.61832 0.0
H715 H 0.21878 0.22728 0.63736 0.0
C716 C 0.38391 0.30315 0.63074 0.0
C717 C 0.40491 0.34425 0.62629 0.0
C718 C 0.37967 0.37973 0.61685 0.0
C719 C 0.3338 0.3752 0.61316 0.0
C720 C 0.31387 0.3347 0.61848 0.0
C721 C 0.33825 0.29895 0.62657 0.0
C722 C 0.30847 0.25978 0.6321 0.0
C723 C 0.31859 0.22058 0.61551 0.0
C724 C 0.3125 0.24616 0.65836 0.0
C725 C 0.26338 0.27968 0.62678 0.0
C726 C 0.2672 0.32298 0.61899 0.0
C727 C 0.23003 0.34983 0.61559 0.0
C728 C 0.1879 0.33196 0.62029 0.0
C729 C 0.1834 0.28753 0.62786 0.0
C730 C 0.22151 0.26093 0.63081 0.0
H731 H 0.87745 0.71628 0.12077 0.0
H732 H 0.74653 0.6604 0.10957 0.0
H733 H 0.71828 0.73407 0.0979 0.0
H734 H 0.84222 0.80363 0.15099 0.0
H735 H 0.88203 0.8436 0.14029 0.0
H736 H 0.89562 0.78573 0.14007 0.0
H737 H 0.91171 0.78939 0.09492 0.0
H738 H 0.89839 0.84769 0.09504 0.0
H739 H 0.86991 0.81061 0.07503 0.0
H740 H 0.70095 0.8141 0.09516 0.0
H741 H 0.69439 0.89358 0.10497 0.0
H742 H 0.83539 0.89826 0.12087 0.0
C743 C 0.84345 0.71938 0.11468 0.0
C744 C 0.81428 0.68289 0.11551 0.0
C745 C 0.7694 0.68812 0.10864 0.0
C746 C 0.7532 0.72973 0.10186 0.0
C747 C 0.78228 0.76575 0.10226 0.0
C748 C 0.82656 0.76098 0.10851 0.0
C749 C 0.84862 0.8056 0.11216 0.0
C750 C 0.86821 0.80986 0.13737 0.0
C751 C 0.88427 0.8138 0.09315 0.0
C752 C 0.80918 0.83595 0.10866 0.0
C753 C 0.77167 0.81253 0.10199 0.0
C754 C 0.73028 0.83294 0.09989 0.0
C755 C 0.72684 0.87809 0.10553 0.0
C756 C 0.76438 0.90188 0.11377 0.0
C757 C 0.80622 0.88083 0.11451 0.0
H758 H 0.71492 0.75779 0.32661 0.0
H759 H 0.68062 0.75236 0.40123 0.0
H760 H 0.75744 0.77532 0.41179 0.0
H761 H 0.82568 0.71163 0.33398 0.0
H762 H 0.84911 0.74529 0.31072 0.0
H763 H 0.7915 0.72919 0.30945 0.0
H764 H 0.76861 0.81182 0.30607 0.0
H765 H 0.8261 0.82818 0.30744 0.0
H766 H 0.78686 0.85064 0.32841 0.0
H767 H 0.83682 0.80568 0.41344 0.0
H768 H 0.91454 0.83039 0.40639 0.0
H769 H 0.89748 0.80708 0.33101 0.0
C770 C 0.72372 0.76137 0.34516 0.0
C771 C 0.69213 0.75388 0.36316 0.0
C772 C 0.70467 0.75807 0.38726 0.0
C773 C 0.74803 0.77121 0.39337 0.0
C774 C 0.77845 0.77882 0.37513 0.0
C775 C 0.76701 0.77309 0.35154 0.0
C776 C 0.80601 0.78164 0.33529 0.0
C777 C 0.81883 0.73942 0.32156 0.0
C778 C 0.7963 0.82038 0.31831 0.0
C779 C 0.84108 0.79393 0.35334 0.0
C780 C 0.82456 0.79281 0.37622 0.0
C781 C 0.85033 0.80585 0.39564 0.0
C782 C 0.89422 0.81994 0.39151 0.0
C783 C 0.91187 0.81979 0.36825 0.0
C784 C 0.88494 0.80652 0.34903 0.0
H785 H 0.34394 0.20703 0.83408 0.0
H786 H 0.32336 0.17027 0.90754 0.0
H787 H 0.30135 0.24784 0.91686 0.0
H788 H 0.39065 0.31803 0.84704 0.0
H789 H 0.36527 0.34211 0.8211 0.0
H790 H 0.38143 0.28459 0.82094 0.0
H791 H 0.30107 0.26216 0.8094 0.0
H792 H 0.28462 0.31947 0.80966 0.0
H793 H 0.25537 0.27984 0.82779 0.0
H794 H 0.27238 0.32737 0.91634 0.0
H795 H 0.24751 0.40389 0.90732 0.0
H796 H 0.2946 0.38904 0.83503 0.0
C797 C 0.33536 0.21561 0.85219 0.0
C798 C 0.33493 0.18312 0.87014 0.0
C799 C 0.32388 0.19509 0.89366 0.0
C800 C 0.31132 0.23889 0.89904 0.0
C801 C 0.31131 0.27018 0.88077 0.0
C802 C 0.32408 0.25919 0.85793 0.0
C803 C 0.32114 0.29856 0.84141 0.0
C804 C 0.36737 0.31159 0.83208 0.0
C805 C 0.2886 0.28944 0.82087 0.0
C806 C 0.30316 0.33317 0.85826 0.0
C807 C 0.29745 0.31627 0.88087 0.0
C808 C 0.27767 0.34122 0.89886 0.0
C809 C 0.26348 0.38449 0.89357 0.0
C810 C 0.2698 0.40244 0.87061 0.0
C811 C 0.29033 0.3765 0.8529 0.0
loop_
_geom_bond_atom_site_label_1
_geom_bond_atom_site_label_2
_geom_bond_distance
_geom_bond_site_symmetry_2
_ccdc_geom_bond_type
Co0 O3 1.970 . S
Co0 N17 1.989 . S
Co0 O25 1.967 . S
Co0 O32 1.920 . S
Co1 O4 1.966 . S
Co1 N10 2.022 . S
Co1 N18 1.993 . S
Co1 O26 1.941 . S
C2 O3 1.258 . S
C2 O4 1.263 . S
O3 Co0 1.970 . S
O3 C2 1.258 . S
O4 Co1 1.966 . S
O4 C2 1.263 . S
C5 O6 1.235 . S
C5 O32 1.289 . S
O6 C5 1.235 . S
C7 C9 1.400 . S
C7 N10 1.351 . S
C7 C12 1.501 . S
C8 C9 1.387 . S
C8 N11 1.341 . S
C9 C7 1.400 . S
C9 C8 1.387 . S
N10 Co1 2.022 . S
N10 C7 1.351 . S
N10 N11 1.365 . S
N11 C8 1.341 . S
N11 N10 1.365 . S
N11 H31 0.862 . S
C12 C7 1.501 . S
C12 H13 0.961 . S
C12 H14 0.961 . S
C12 H15 0.960 . S
H13 C12 0.961 . S
H14 C12 0.961 . S
H15 C12 0.960 . S
C16 N17 1.342 1_655 S
C16 C20 1.401 . S
C16 C21 1.499 . S
N17 Co0 1.989 . S
N17 C16 1.342 1_455 S
N17 N18 1.388 . S
N18 Co1 1.993 . S
N18 N17 1.388 . S
N18 C19 1.346 1_455 S
C19 N18 1.346 1_655 S
C19 C20 1.396 . S
C19 C29 1.510 . S
C20 C16 1.401 . S
C20 C19 1.396 . S
C21 C16 1.499 . S
C21 H22 0.958 . S
C21 H23 0.960 . S
C21 H24 0.961 . S
H22 C21 0.958 . S
H23 C21 0.960 . S
H24 C21 0.961 . S
O25 Co0 1.967 . S
O25 C33 1.258 . S
O26 Co1 1.941 . S
O26 C33 1.266 . S
H27 C29 0.959 . S
H28 C29 0.961 . S
C29 C19 1.510 . S
C29 H27 0.959 . S
C29 H28 0.961 . S
C29 H30 0.960 . S
H30 C29 0.960 . S
H31 N11 0.862 . S
O32 Co0 1.920 . S
O32 C5 1.289 . S
C33 O25 1.258 . S
C33 O26 1.266 . S
Co34 O37 1.970 . S
Co34 N51 1.989 . S
Co34 O59 1.967 . S
Co34 O66 1.920 . S
Co35 O38 1.966 . S
Co35 N44 2.022 . S
Co35 N52 1.993 . S
Co35 O60 1.941 . S
C36 O37 1.258 . S
C36 O38 1.263 . S
O37 Co34 1.970 . S
O37 C36 1.258 . S
O38 Co35 1.966 . S
O38 C36 1.263 . S
C39 O40 1.235 . S
C39 O66 1.289 . S
O40 C39 1.235 . S
C41 C43 1.400 . S
C41 N44 1.351 . S
C41 C46 1.501 . S
C42 C43 1.387 . S
C42 N45 1.341 . S
C43 C41 1.400 . S
C43 C42 1.387 . S
N44 Co35 2.022 . S
N44 C41 1.351 . S
N44 N45 1.365 . S
N45 C42 1.341 . S
N45 N44 1.365 . S
N45 H65 0.862 . S
C46 C41 1.501 . S
C46 H47 0.961 . S
C46 H48 0.961 . S
C46 H49 0.960 . S
H47 C46 0.961 . S
H48 C46 0.961 . S
H49 C46 0.960 . S
C50 N51 1.342 . S
C50 C54 1.401 . S
C50 C55 1.499 . S
N51 Co34 1.989 . S
N51 C50 1.342 . S
N51 N52 1.388 . S
N52 Co35 1.993 . S
N52 N51 1.388 . S
N52 C53 1.346 . S
C53 N52 1.346 . S
C53 C54 1.396 . S
C53 C63 1.510 . S
C54 C50 1.401 . S
C54 C53 1.396 . S
C55 C50 1.499 . S
C55 H56 0.959 . S
C55 H57 0.960 . S
C55 H58 0.961 . S
H56 C55 0.959 . S
H57 C55 0.960 . S
H58 C55 0.961 . S
O59 Co34 1.967 . S
O59 C67 1.258 . S
O60 Co35 1.941 . S
O60 C67 1.266 . S
H61 C63 0.959 . S
H62 C63 0.961 . S
C63 C53 1.510 . S
C63 H61 0.959 . S
C63 H62 0.961 . S
C63 H64 0.960 . S
H64 C63 0.960 . S
H65 N45 0.862 . S
O66 Co34 1.920 . S
O66 C39 1.289 . S
C67 O59 1.258 . S
C67 O60 1.266 . S
Co68 O71 1.970 . S
Co68 N85 1.989 . S
Co68 O93 1.967 . S
Co68 O100 1.920 . S
Co69 O72 1.966 . S
Co69 N78 2.022 . S
Co69 N86 1.993 . S
Co69 O94 1.941 . S
C70 O71 1.258 . S
C70 O72 1.263 . S
O71 Co68 1.970 . S
O71 C70 1.258 . S
O72 Co69 1.966 . S
O72 C70 1.263 . S
C73 O74 1.235 . S
C73 O100 1.289 . S
O74 C73 1.235 . S
C75 C77 1.400 . S
C75 N78 1.351 . S
C75 C80 1.501 . S
C76 C77 1.387 . S
C76 N79 1.341 . S
C77 C75 1.400 . S
C77 C76 1.387 . S
N78 Co69 2.022 . S
N78 C75 1.351 . S
N78 N79 1.365 . S
N79 C76 1.341 . S
N79 N78 1.365 . S
N79 H99 0.862 . S
C80 C75 1.501 . S
C80 H81 0.961 . S
C80 H82 0.961 . S
C80 H83 0.960 . S
H81 C80 0.961 . S
H82 C80 0.961 . S
H83 C80 0.960 . S
C84 N85 1.342 . S
C84 C88 1.401 . S
C84 C89 1.499 . S
N85 Co68 1.989 . S
N85 C84 1.342 . S
N85 N86 1.388 . S
N86 Co69 1.993 . S
N86 N85 1.388 . S
N86 C87 1.346 . S
C87 N86 1.346 . S
C87 C88 1.396 . S
C87 C97 1.510 . S
C88 C84 1.401 . S
C88 C87 1.396 . S
C89 C84 1.499 . S
C89 H90 0.959 . S
C89 H91 0.960 . S
C89 H92 0.961 . S
H90 C89 0.959 . S
H91 C89 0.960 . S
H92 C89 0.961 . S
O93 Co68 1.967 . S
O93 C101 1.258 . S
O94 Co69 1.941 . S
O94 C101 1.266 . S
H95 C97 0.959 . S
H96 C97 0.961 . S
C97 C87 1.510 . S
C97 H95 0.959 . S
C97 H96 0.961 . S
C97 H98 0.960 . S
H98 C97 0.960 . S
H99 N79 0.862 . S
O100 Co68 1.920 . S
O100 C73 1.289 . S
C101 O93 1.258 . S
C101 O94 1.266 . S
Co102 O105 1.970 1_545 S
Co102 N119 1.989 . S
Co102 O127 1.967 1_545 S
Co102 O134 1.920 . S
Co103 O106 1.966 1_545 S
Co103 N112 2.022 . S
Co103 N120 1.993 . S
Co103 O128 1.941 . S
C104 O105 1.258 . S
C104 O106 1.263 . S
O105 Co102 1.970 1_565 S
O105 C104 1.258 . S
O106 Co103 1.966 1_565 S
O106 C104 1.263 . S
C107 O108 1.235 . S
C107 O134 1.289 . S
O108 C107 1.235 . S
C109 C111 1.400 . S
C109 N112 1.351 . S
C109 C114 1.501 1_545 S
C110 C111 1.387 . S
C110 N113 1.341 . S
C111 C109 1.400 . S
C111 C110 1.387 . S
N112 Co103 2.022 . S
N112 C109 1.351 . S
N112 N113 1.365 . S
N113 C110 1.341 . S
N113 N112 1.365 . S
N113 H133 0.862 . S
C114 C109 1.501 1_565 S
C114 H115 0.961 . S
C114 H116 0.961 1_565 S
C114 H117 0.960 . S
H115 C114 0.961 . S
H116 C114 0.961 1_545 S
H117 C114 0.960 . S
C118 N119 1.342 . S
C118 C122 1.401 . S
C118 C123 1.499 . S
N119 Co102 1.989 . S
N119 C118 1.342 . S
N119 N120 1.388 . S
N120 Co103 1.993 . S
N120 N119 1.388 . S
N120 C121 1.346 . S
C121 N120 1.346 . S
C121 C122 1.396 . S
C121 C131 1.510 . S
C122 C118 1.401 . S
C122 C121 1.396 . S
C123 C118 1.499 . S
C123 H124 0.959 . S
C123 H125 0.960 . S
C123 H126 0.961 . S
H124 C123 0.959 . S
H125 C123 0.960 . S
H126 C123 0.961 . S
O127 Co102 1.967 1_565 S
O127 C135 1.258 . S
O128 Co103 1.941 . S
O128 C135 1.266 1_545 S
H129 C131 0.959 . S
H130 C131 0.961 . S
C131 C121 1.510 . S
C131 H129 0.959 . S
C131 H130 0.961 . S
C131 H132 0.960 . S
H132 C131 0.960 . S
H133 N113 0.862 . S
O134 Co102 1.920 . S
O134 C107 1.289 . S
C135 O127 1.258 . S
C135 O128 1.266 1_565 S
Co136 O139 1.970 1_455 S
Co136 N153 1.989 . S
Co136 O161 1.967 1_455 S
Co136 O168 1.920 . S
Co137 O140 1.966 1_455 S
Co137 N146 2.022 . S
Co137 N154 1.993 . S
Co137 O162 1.941 . S
C138 O139 1.258 . S
C138 O140 1.263 . S
O139 Co136 1.970 1_655 S
O139 C138 1.258 . S
O140 Co137 1.966 1_655 S
O140 C138 1.263 . S
C141 O142 1.235 . S
C141 O168 1.289 . S
O142 C141 1.235 . S
C143 C145 1.400 . S
C143 N146 1.351 . S
C143 C148 1.501 1_455 S
C144 C145 1.387 . S
C144 N147 1.341 . S
C145 C143 1.400 . S
C145 C144 1.387 . S
N146 Co137 2.022 . S
N146 C143 1.351 . S
N146 N147 1.365 . S
N147 C144 1.341 . S
N147 N146 1.365 . S
N147 H167 0.862 . S
C148 C143 1.501 1_655 S
C148 H149 0.961 . S
C148 H150 0.961 1_655 S
C148 H151 0.960 . S
H149 C148 0.961 . S
H150 C148 0.961 1_455 S
H151 C148 0.960 . S
C152 N153 1.342 . S
C152 C156 1.401 . S
C152 C157 1.499 . S
N153 Co136 1.989 . S
N153 C152 1.342 . S
N153 N154 1.388 . S
N154 Co137 1.993 . S
N154 N153 1.388 . S
N154 C155 1.346 . S
C155 N154 1.346 . S
C155 C156 1.396 . S
C155 C165 1.510 . S
C156 C152 1.401 . S
C156 C155 1.396 . S
C157 C152 1.499 . S
C157 H158 0.959 . S
C157 H159 0.960 . S
C157 H160 0.961 . S
H158 C157 0.959 . S
H159 C157 0.960 . S
H160 C157 0.961 . S
O161 Co136 1.967 1_655 S
O161 C169 1.258 . S
O162 Co137 1.941 . S
O162 C169 1.266 1_455 S
H163 C165 0.959 . S
H164 C165 0.961 . S
C165 C155 1.510 . S
C165 H163 0.959 . S
C165 H164 0.961 . S
C165 H166 0.960 . S
H166 C165 0.960 . S
H167 N147 0.862 . S
O168 Co136 1.920 . S
O168 C141 1.289 . S
C169 O161 1.258 . S
C169 O162 1.266 1_655 S
Co170 O173 1.970 . S
Co170 N187 1.989 . S
Co170 O195 1.967 . S
Co170 O202 1.920 . S
Co171 O174 1.966 . S
Co171 N180 2.022 . S
Co171 N188 1.993 . S
Co171 O196 1.941 . S
C172 O173 1.258 . S
C172 O174 1.263 . S
O173 Co170 1.970 . S
O173 C172 1.258 . S
O174 Co171 1.966 . S
O174 C172 1.263 . S
C175 O176 1.235 . S
C175 O202 1.289 . S
O176 C175 1.235 . S
C177 C179 1.400 . S
C177 N180 1.351 . S
C177 C182 1.501 . S
C178 C179 1.387 . S
C178 N181 1.341 . S
C179 C177 1.400 . S
C179 C178 1.387 . S
N180 Co171 2.022 . S
N180 C177 1.351 . S
N180 N181 1.365 . S
N181 C178 1.341 . S
N181 N180 1.365 . S
N181 H201 0.862 . S
C182 C177 1.501 . S
C182 H183 0.961 . S
C182 H184 0.961 . S
C182 H185 0.960 . S
H183 C182 0.961 . S
H184 C182 0.961 . S
H185 C182 0.960 . S
C186 N187 1.342 . S
C186 C190 1.401 . S
C186 C191 1.499 . S
N187 Co170 1.989 . S
N187 C186 1.342 . S
N187 N188 1.388 . S
N188 Co171 1.993 . S
N188 N187 1.388 . S
N188 C189 1.346 . S
C189 N188 1.346 . S
C189 C190 1.396 . S
C189 C199 1.510 . S
C190 C186 1.401 . S
C190 C189 1.396 . S
C191 C186 1.499 . S
C191 H192 0.959 . S
C191 H193 0.960 . S
C191 H194 0.961 . S
H192 C191 0.959 . S
H193 C191 0.960 . S
H194 C191 0.961 . S
O195 Co170 1.967 . S
O195 C203 1.258 . S
O196 Co171 1.941 . S
O196 C203 1.266 . S
H197 C199 0.959 . S
H198 C199 0.961 . S
C199 C189 1.510 . S
C199 H197 0.959 . S
C199 H198 0.961 . S
C199 H200 0.960 . S
H200 C199 0.960 . S
H201 N181 0.862 . S
O202 Co170 1.920 . S
O202 C175 1.289 . S
C203 O195 1.258 . S
C203 O196 1.266 . S
Co204 O207 1.970 . S
Co204 N221 1.989 . S
Co204 O229 1.967 . S
Co204 O236 1.920 . S
Co205 O208 1.966 . S
Co205 N214 2.022 . S
Co205 N222 1.993 . S
Co205 O230 1.941 . S
C206 O207 1.258 . S
C206 O208 1.263 . S
O207 Co204 1.970 . S
O207 C206 1.258 . S
O208 Co205 1.966 . S
O208 C206 1.263 . S
C209 O210 1.235 . S
C209 O236 1.289 . S
O210 C209 1.235 . S
C211 C213 1.400 . S
C211 N214 1.351 . S
C211 C216 1.501 . S
C212 C213 1.387 . S
C212 N215 1.341 . S
C213 C211 1.400 . S
C213 C212 1.387 . S
N214 Co205 2.022 . S
N214 C211 1.351 . S
N214 N215 1.365 . S
N215 C212 1.341 . S
N215 N214 1.365 . S
N215 H235 0.862 . S
C216 C211 1.501 . S
C216 H217 0.961 . S
C216 H218 0.961 . S
C216 H219 0.960 . S
H217 C216 0.961 . S
H218 C216 0.961 . S
H219 C216 0.960 . S
C220 N221 1.342 . S
C220 C224 1.401 . S
C220 C225 1.499 . S
N221 Co204 1.989 . S
N221 C220 1.342 . S
N221 N222 1.388 . S
N222 Co205 1.993 . S
N222 N221 1.388 . S
N222 C223 1.346 . S
C223 N222 1.346 . S
C223 C224 1.396 . S
C223 C233 1.510 . S
C224 C220 1.401 . S
C224 C223 1.396 . S
C225 C220 1.499 . S
C225 H226 0.959 . S
C225 H227 0.960 . S
C225 H228 0.961 . S
H226 C225 0.959 . S
H227 C225 0.960 . S
H228 C225 0.961 . S
O229 Co204 1.967 . S
O229 C237 1.258 . S
O230 Co205 1.941 . S
O230 C237 1.266 . S
H231 C233 0.959 . S
H232 C233 0.961 . S
C233 C223 1.510 . S
C233 H231 0.959 . S
C233 H232 0.961 . S
C233 H234 0.960 . S
H234 C233 0.960 . S
H235 N215 0.862 . S
O236 Co204 1.920 . S
O236 C209 1.289 . S
C237 O229 1.258 . S
C237 O230 1.266 . S
Co238 O241 1.970 . S
Co238 N255 1.989 . S
Co238 O263 1.967 . S
Co238 O270 1.920 . S
Co239 O242 1.966 . S
Co239 N248 2.022 . S
Co239 N256 1.993 . S
Co239 O264 1.941 . S
C240 O241 1.258 . S
C240 O242 1.263 . S
O241 Co238 1.970 . S
O241 C240 1.258 . S
O242 Co239 1.966 . S
O242 C240 1.263 . S
C243 O244 1.235 . S
C243 O270 1.289 . S
O244 C243 1.235 . S
C245 C247 1.400 . S
C245 N248 1.351 . S
C245 C250 1.501 . S
C246 C247 1.387 . S
C246 N249 1.341 . S
C247 C245 1.400 . S
C247 C246 1.387 . S
N248 Co239 2.022 . S
N248 C245 1.351 . S
N248 N249 1.365 . S
N249 C246 1.341 . S
N249 N248 1.365 . S
N249 H269 0.862 . S
C250 C245 1.501 . S
C250 H251 0.961 . S
C250 H252 0.961 . S
C250 H253 0.960 . S
H251 C250 0.961 . S
H252 C250 0.961 . S
H253 C250 0.960 . S
C254 N255 1.342 1_565 S
C254 C258 1.401 . S
C254 C259 1.499 . S
N255 Co238 1.989 . S
N255 C254 1.342 1_545 S
N255 N256 1.388 . S
N256 Co239 1.993 . S
N256 N255 1.388 . S
N256 C257 1.346 1_545 S
C257 N256 1.346 1_565 S
C257 C258 1.396 . S
C257 C267 1.510 . S
C258 C254 1.401 . S
C258 C257 1.396 . S
C259 C254 1.499 . S
C259 H260 0.959 . S
C259 H261 0.960 . S
C259 H262 0.961 . S
H260 C259 0.959 . S
H261 C259 0.960 . S
H262 C259 0.961 . S
O263 Co238 1.967 . S
O263 C271 1.258 . S
O264 Co239 1.941 . S
O264 C271 1.266 . S
H265 C267 0.959 . S
H266 C267 0.961 . S
C267 C257 1.510 . S
C267 H265 0.959 . S
C267 H266 0.961 . S
C267 H268 0.960 . S
H268 C267 0.960 . S
H269 N249 0.862 . S
O270 Co238 1.920 . S
O270 C243 1.289 . S
C271 O263 1.258 . S
C271 O264 1.266 . S
H272 C284 0.930 . S
H273 C286 0.930 . S
H274 C287 0.930 . S
H275 C291 0.959 1_655 S
H276 C291 0.959 . S
H277 C291 0.961 . S
H278 C292 0.960 . S
H279 C292 0.961 . S
H280 C292 0.949 1_545 S
H281 C295 0.929 . S
H282 C296 0.931 . S
H283 C298 0.930 . S
C284 H272 0.930 . S
C284 C285 1.399 . S
C284 C289 1.399 1_565 S
C285 C284 1.399 . S
C285 C286 1.376 1_565 S
C286 H273 0.930 . S
C286 C285 1.376 1_545 S
C286 C287 1.388 . S
C287 H274 0.930 . S
C287 C286 1.388 . S
C287 C288 1.390 . S
C288 C287 1.390 . S
C288 C289 1.394 . S
C288 C294 1.465 . S
C289 C284 1.399 1_545 S
C289 C288 1.394 . S
C289 C290 1.516 . S
C290 C289 1.516 . S
C290 C291 1.502 1_545 S
C290 C292 1.561 1_545 S
C290 C293 1.526 . S
C291 H275 0.959 1_455 S
C291 H276 0.959 . S
C291 H277 0.961 . S
C291 C290 1.502 1_565 S
C292 H278 0.960 . S
C292 H279 0.961 . S
C292 H280 0.949 1_565 S
C292 C290 1.561 1_565 S
C293 C290 1.526 . S
C293 C294 1.396 . S
C293 C298 1.390 . S
C294 C288 1.465 . S
C294 C293 1.396 . S
C294 C295 1.399 . S
C295 H281 0.929 . S
C295 C294 1.399 . S
C295 C296 1.385 . S
C296 H282 0.931 . S
C296 C295 1.385 . S
C296 C297 1.389 . S
C297 C296 1.389 . S
C297 C298 1.387 . S
C298 H283 0.930 . S
C298 C293 1.390 . S
C298 C297 1.387 . S
H299 C311 0.930 . S
H300 C313 0.930 1_655 S
H301 C314 0.930 . S
H302 C318 0.959 1_655 S
H303 C318 0.959 . S
H304 C318 0.961 1_655 S
H305 C319 0.960 . S
H306 C319 0.952 1_556 S
H307 C319 0.959 . S
H308 C322 0.929 . S
H309 C323 0.931 . S
H310 C325 0.930 . S
C311 H299 0.930 . S
C311 C312 1.399 . S
C311 C316 1.399 1_655 S
C312 C311 1.399 . S
C312 C313 1.376 1_655 S
C313 H300 0.930 1_455 S
C313 C312 1.376 1_455 S
C313 C314 1.389 . S
C314 H301 0.930 . S
C314 C313 1.389 . S
C314 C315 1.390 . S
C315 C314 1.390 . S
C315 C316 1.394 . S
C315 C321 1.465 1_554 S
C316 C311 1.399 1_455 S
C316 C315 1.394 . S
C316 C317 1.516 1_554 S
C317 C316 1.516 1_556 S
C317 C318 1.502 . S
C317 C319 1.561 1_556 S
C317 C320 1.526 . S
C318 H302 0.959 1_455 S
C318 H303 0.959 . S
C318 H304 0.961 1_455 S
C318 C317 1.502 . S
C319 H305 0.960 . S
C319 H306 0.952 1_554 S
C319 H307 0.959 . S
C319 C317 1.561 1_554 S
C320 C317 1.526 . S
C320 C321 1.396 . S
C320 C325 1.390 . S
C321 C315 1.465 1_556 S
C321 C320 1.396 . S
C321 C322 1.399 . S
C322 H308 0.929 . S
C322 C321 1.399 . S
C322 C323 1.385 . S
C323 H309 0.931 . S
C323 C322 1.385 . S
C323 C324 1.389 . S
C324 C323 1.389 . S
C324 C325 1.387 . S
C325 H310 0.930 . S
C325 C320 1.390 . S
C325 C324 1.387 . S
H326 C338 0.930 . S
H327 C340 0.930 . S
H328 C341 0.930 . S
H329 C345 0.959 . S
H330 C345 0.959 . S
H331 C345 0.961 . S
H332 C346 0.960 . S
H333 C346 0.961 . S
H334 C346 0.959 . S
H335 C349 0.929 . S
H336 C350 0.931 . S
H337 C352 0.930 . S
C338 H326 0.930 . S
C338 C339 1.399 . S
C338 C343 1.399 . S
C339 C338 1.399 . S
C339 C340 1.376 . S
C340 H327 0.930 . S
C340 C339 1.376 . S
C340 C341 1.388 . S
C341 H328 0.930 . S
C341 C340 1.388 . S
C341 C342 1.390 . S
C342 C341 1.390 . S
C342 C343 1.394 . S
C342 C348 1.465 . S
C343 C338 1.399 . S
C343 C342 1.394 . S
C343 C344 1.516 . S
C344 C343 1.516 . S
C344 C345 1.502 . S
C344 C346 1.561 . S
C344 C347 1.526 . S
C345 H329 0.959 . S
C345 H330 0.959 . S
C345 H331 0.961 . S
C345 C344 1.502 . S
C346 H332 0.960 . S
C346 H333 0.961 . S
C346 H334 0.959 . S
C346 C344 1.561 . S
C347 C344 1.526 . S
C347 C348 1.396 . S
C347 C352 1.390 . S
C348 C342 1.465 . S
C348 C347 1.396 . S
C348 C349 1.399 . S
C349 H335 0.929 . S
C349 C348 1.399 . S
C349 C350 1.385 . S
C350 H336 0.931 . S
C350 C349 1.385 . S
C350 C351 1.389 . S
C351 C350 1.389 . S
C351 C352 1.387 . S
C352 H337 0.930 . S
C352 C347 1.390 . S
C352 C351 1.387 . S
H353 C365 0.930 . S
H354 C367 0.930 1_565 S
H355 C368 0.930 . S
H356 C372 0.959 . S
H357 C372 0.959 . S
H358 C372 0.961 . S
H359 C373 0.960 1_556 S
H360 C373 0.961 . S
H361 C373 0.959 . S
H362 C376 0.929 . S
H363 C377 0.931 1_565 S
H364 C379 0.930 . S
C365 H353 0.930 . S
C365 C366 1.399 . S
C365 C370 1.399 . S
C366 C365 1.399 . S
C366 C367 1.376 . S
C367 H354 0.930 1_545 S
C367 C366 1.376 . S
C367 C368 1.388 1_545 S
C368 H355 0.930 . S
C368 C367 1.388 1_565 S
C368 C369 1.390 1_565 S
C369 C368 1.390 1_545 S
C369 C370 1.394 . S
C369 C375 1.465 1_556 S
C370 C365 1.399 . S
C370 C369 1.394 . S
C370 C371 1.516 . S
C371 C370 1.516 . S
C371 C372 1.502 . S
C371 C373 1.561 1_556 S
C371 C374 1.526 1_556 S
C372 H356 0.959 . S
C372 H357 0.959 . S
C372 H358 0.961 . S
C372 C371 1.502 . S
C373 H359 0.960 1_554 S
C373 H360 0.961 . S
C373 H361 0.959 . S
C373 C371 1.561 1_554 S
C374 C371 1.526 1_554 S
C374 C375 1.396 . S
C374 C379 1.390 . S
C375 C369 1.465 1_554 S
C375 C374 1.396 . S
C375 C376 1.399 1_545 S
C376 H362 0.929 . S
C376 C375 1.399 1_565 S
C376 C377 1.385 1_565 S
C377 H363 0.931 1_545 S
C377 C376 1.385 1_545 S
C377 C378 1.389 . S
C378 C377 1.389 . S
C378 C379 1.387 . S
C379 H364 0.930 . S
C379 C374 1.390 . S
C379 C378 1.387 . S
H380 C392 0.930 . S
H381 C394 0.930 . S
H382 C395 0.930 . S
H383 C399 0.959 . S
H384 C399 0.959 . S
H385 C399 0.961 . S
H386 C400 0.960 . S
H387 C400 0.961 . S
H388 C400 0.959 . S
H389 C403 0.929 . S
H390 C404 0.931 . S
H391 C406 0.930 . S
C392 H380 0.930 . S
C392 C393 1.399 . S
C392 C397 1.399 . S
C393 C392 1.399 . S
C393 C394 1.376 . S
C394 H381 0.930 . S
C394 C393 1.376 . S
C394 C395 1.388 . S
C395 H382 0.930 . S
C395 C394 1.388 . S
C395 C396 1.390 . S
C396 C395 1.390 . S
C396 C397 1.394 . S
C396 C402 1.465 . S
C397 C392 1.399 . S
C397 C396 1.394 . S
C397 C398 1.516 . S
C398 C397 1.516 . S
C398 C399 1.502 . S
C398 C400 1.561 . S
C398 C401 1.526 . S
C399 H383 0.959 . S
C399 H384 0.959 . S
C399 H385 0.961 . S
C399 C398 1.502 . S
C400 H386 0.960 . S
C400 H387 0.961 . S
C400 H388 0.959 . S
C400 C398 1.561 . S
C401 C398 1.526 . S
C401 C402 1.396 . S
C401 C406 1.390 . S
C402 C396 1.465 . S
C402 C401 1.396 . S
C402 C403 1.399 . S
C403 H389 0.929 . S
C403 C402 1.399 . S
C403 C404 1.385 . S
C404 H390 0.931 . S
C404 C403 1.385 . S
C404 C405 1.389 . S
C405 C404 1.389 . S
C405 C406 1.387 . S
C406 H391 0.930 . S
C406 C401 1.390 . S
C406 C405 1.387 . S
H407 C419 0.930 . S
H408 C421 0.930 . S
H409 C422 0.930 . S
H410 C426 0.959 . S
H411 C426 0.959 . S
H412 C426 0.961 . S
H413 C427 0.960 . S
H414 C427 0.961 . S
H415 C427 0.959 . S
H416 C430 0.929 . S
H417 C431 0.931 . S
H418 C433 0.930 . S
C419 H407 0.930 . S
C419 C420 1.399 . S
C419 C424 1.399 1_455 S
C420 C419 1.399 . S
C420 C421 1.376 . S
C421 H408 0.930 . S
C421 C420 1.376 . S
C421 C422 1.388 1_455 S
C422 H409 0.930 . S
C422 C421 1.388 1_655 S
C422 C423 1.390 . S
C423 C422 1.390 . S
C423 C424 1.394 . S
C423 C429 1.465 . S
C424 C419 1.399 1_655 S
C424 C423 1.394 . S
C424 C425 1.516 . S
C425 C424 1.516 . S
C425 C426 1.502 . S
C425 C427 1.561 1_655 S
C425 C428 1.526 . S
C426 H410 0.959 . S
C426 H411 0.959 . S
C426 H412 0.961 . S
C426 C425 1.502 . S
C427 H413 0.960 . S
C427 H414 0.961 . S
C427 H415 0.959 . S
C427 C425 1.561 1_455 S
C428 C425 1.526 . S
C428 C429 1.396 . S
C428 C433 1.390 . S
C429 C423 1.465 . S
C429 C428 1.396 . S
C429 C430 1.399 . S
C430 H416 0.929 . S
C430 C429 1.399 . S
C430 C431 1.385 . S
C431 H417 0.931 . S
C431 C430 1.385 . S
C431 C432 1.389 . S
C432 C431 1.389 . S
C432 C433 1.387 . S
C433 H418 0.930 . S
C433 C428 1.390 . S
C433 C432 1.387 . S
H434 C446 0.930 . S
H435 C448 0.930 . S
H436 C449 0.930 . S
H437 C453 0.959 . S
H438 C453 0.959 . S
H439 C453 0.961 . S
H440 C454 0.960 . S
H441 C454 0.961 . S
H442 C454 0.959 . S
H443 C457 0.929 . S
H444 C458 0.931 . S
H445 C460 0.930 . S
C446 H434 0.930 . S
C446 C447 1.399 . S
C446 C451 1.399 . S
C447 C446 1.399 . S
C447 C448 1.376 . S
C448 H435 0.930 . S
C448 C447 1.376 . S
C448 C449 1.388 . S
C449 H436 0.930 . S
C449 C448 1.388 . S
C449 C450 1.390 . S
C450 C449 1.390 . S
C450 C451 1.394 . S
C450 C456 1.465 . S
C451 C446 1.399 . S
C451 C450 1.394 . S
C451 C452 1.516 . S
C452 C451 1.516 . S
C452 C453 1.502 . S
C452 C454 1.561 . S
C452 C455 1.526 . S
C453 H437 0.959 . S
C453 H438 0.959 . S
C453 H439 0.961 . S
C453 C452 1.502 . S
C454 H440 0.960 . S
C454 H441 0.961 . S
C454 H442 0.959 . S
C454 C452 1.561 . S
C455 C452 1.526 . S
C455 C456 1.396 . S
C455 C460 1.390 . S
C456 C450 1.465 . S
C456 C455 1.396 . S
C456 C457 1.399 . S
C457 H443 0.929 . S
C457 C456 1.399 . S
C457 C458 1.385 . S
C458 H444 0.931 . S
C458 C457 1.385 . S
C458 C459 1.389 . S
C459 C458 1.389 . S
C459 C460 1.387 . S
C460 H445 0.930 . S
C460 C455 1.390 . S
C460 C459 1.387 . S
H461 C473 0.930 . S
H462 C475 0.930 . S
H463 C476 0.930 . S
H464 C480 0.959 . S
H465 C480 0.959 . S
H466 C480 0.961 . S
H467 C481 0.960 . S
H468 C481 0.961 . S
H469 C481 0.959 . S
H470 C484 0.929 . S
H471 C485 0.931 . S
H472 C487 0.930 . S
C473 H461 0.930 . S
C473 C474 1.399 . S
C473 C478 1.399 . S
C474 C473 1.399 . S
C474 C475 1.376 . S
C475 H462 0.930 . S
C475 C474 1.376 . S
C475 C476 1.388 . S
C476 H463 0.930 . S
C476 C475 1.388 . S
C476 C477 1.390 . S
C477 C476 1.390 . S
C477 C478 1.394 . S
C477 C483 1.465 . S
C478 C473 1.399 . S
C478 C477 1.394 . S
C478 C479 1.516 . S
C479 C478 1.516 . S
C479 C480 1.502 . S
C479 C481 1.561 . S
C479 C482 1.526 . S
C480 H464 0.959 . S
C480 H465 0.959 . S
C480 H466 0.961 . S
C480 C479 1.502 . S
C481 H467 0.960 . S
C481 H468 0.961 . S
C481 H469 0.959 . S
C481 C479 1.561 . S
C482 C479 1.526 . S
C482 C483 1.396 . S
C482 C487 1.390 . S
C483 C477 1.465 . S
C483 C482 1.396 . S
C483 C484 1.399 1_565 S
C484 H470 0.929 . S
C484 C483 1.399 1_545 S
C484 C485 1.385 . S
C485 H471 0.931 . S
C485 C484 1.385 . S
C485 C486 1.389 1_545 S
C486 C485 1.389 1_565 S
C486 C487 1.387 . S
C487 H472 0.930 . S
C487 C482 1.390 . S
C487 C486 1.387 . S
H488 C500 0.930 . S
H489 C502 0.930 . S
H490 C503 0.926 1_445 S
H491 C507 0.959 . S
H492 C507 0.959 . S
H493 C507 0.961 . S
H494 C508 0.960 . S
H495 C508 0.961 . S
H496 C508 0.959 . S
H497 C511 0.929 . S
H498 C512 0.931 . S
H499 C514 0.930 . S
C500 H488 0.930 . S
C500 C501 1.399 . S
C500 C505 1.399 . S
C501 C500 1.399 . S
C501 C502 1.376 1_655 S
C502 H489 0.930 . S
C502 C501 1.376 1_455 S
C502 C503 1.386 1_455 S
C503 H490 0.926 1_665 S
C503 C502 1.386 1_655 S
C503 C504 1.396 . S
C504 C503 1.396 . S
C504 C505 1.394 . S
C504 C510 1.465 . S
C505 C500 1.399 . S
C505 C504 1.394 . S
C505 C506 1.516 . S
C506 C505 1.516 . S
C506 C507 1.502 . S
C506 C508 1.561 . S
C506 C509 1.526 . S
C507 H491 0.959 . S
C507 H492 0.959 . S
C507 H493 0.961 . S
C507 C506 1.502 . S
C508 H494 0.960 . S
C508 H495 0.961 . S
C508 H496 0.959 . S
C508 C506 1.561 . S
C509 C506 1.526 . S
C509 C510 1.396 . S
C509 C514 1.390 . S
C510 C504 1.465 . S
C510 C509 1.396 . S
C510 C511 1.399 1_565 S
C511 H497 0.929 . S
C511 C510 1.399 1_545 S
C511 C512 1.385 . S
C512 H498 0.931 . S
C512 C511 1.385 . S
C512 C513 1.389 . S
C513 C512 1.389 . S
C513 C514 1.387 1_545 S
C514 H499 0.930 . S
C514 C509 1.390 . S
C514 C513 1.387 1_565 S
H515 C527 0.930 . S
H516 C529 0.930 . S
H517 C530 0.930 . S
H518 C534 0.959 . S
H519 C534 0.959 . S
H520 C534 0.961 . S
H521 C535 0.960 . S
H522 C535 0.961 . S
H523 C535 0.959 . S
H524 C538 0.929 . S
H525 C539 0.931 . S
H526 C541 0.930 . S
C527 H515 0.930 . S
C527 C528 1.399 . S
C527 C532 1.399 . S
C528 C527 1.399 . S
C528 C529 1.376 . S
C529 H516 0.930 . S
C529 C528 1.376 . S
C529 C530 1.388 . S
C530 H517 0.930 . S
C530 C529 1.388 . S
C530 C531 1.390 . S
C531 C530 1.390 . S
C531 C532 1.394 . S
C531 C537 1.465 . S
C532 C527 1.399 . S
C532 C531 1.394 . S
C532 C533 1.516 . S
C533 C532 1.516 . S
C533 C534 1.502 . S
C533 C535 1.561 . S
C533 C536 1.526 . S
C534 H518 0.959 . S
C534 H519 0.959 . S
C534 H520 0.961 . S
C534 C533 1.502 . S
C535 H521 0.960 . S
C535 H522 0.961 . S
C535 H523 0.959 . S
C535 C533 1.561 . S
C536 C533 1.526 . S
C536 C537 1.396 . S
C536 C541 1.390 . S
C537 C531 1.465 . S
C537 C536 1.396 . S
C537 C538 1.399 . S
C538 H524 0.929 . S
C538 C537 1.399 . S
C538 C539 1.385 . S
C539 H525 0.931 . S
C539 C538 1.385 . S
C539 C540 1.389 . S
C540 C539 1.389 . S
C540 C541 1.387 . S
C541 H526 0.930 . S
C541 C536 1.390 . S
C541 C540 1.387 . S
H542 C554 0.930 . S
H543 C556 0.930 . S
H544 C557 0.930 . S
H545 C561 0.959 . S
H546 C561 0.959 . S
H547 C561 0.961 . S
H548 C562 0.960 . S
H549 C562 0.961 . S
H550 C562 0.959 . S
H551 C565 0.929 . S
H552 C566 0.931 . S
H553 C568 0.930 . S
C554 H542 0.930 . S
C554 C555 1.399 . S
C554 C559 1.399 . S
C555 C554 1.399 . S
C555 C556 1.376 . S
C556 H543 0.930 . S
C556 C555 1.376 . S
C556 C557 1.388 . S
C557 H544 0.930 . S
C557 C556 1.388 . S
C557 C558 1.390 . S
C558 C557 1.390 . S
C558 C559 1.394 . S
C558 C564 1.465 . S
C559 C554 1.399 . S
C559 C558 1.394 . S
C559 C560 1.516 . S
C560 C559 1.516 . S
C560 C561 1.502 . S
C560 C562 1.561 . S
C560 C563 1.526 . S
C561 H545 0.959 . S
C561 H546 0.959 . S
C561 H547 0.961 . S
C561 C560 1.502 . S
C562 H548 0.960 . S
C562 H549 0.961 . S
C562 H550 0.959 . S
C562 C560 1.561 . S
C563 C560 1.526 . S
C563 C564 1.396 . S
C563 C568 1.390 . S
C564 C558 1.465 . S
C564 C563 1.396 . S
C564 C565 1.399 . S
C565 H551 0.929 . S
C565 C564 1.399 . S
C565 C566 1.385 . S
C566 H552 0.931 . S
C566 C565 1.385 . S
C566 C567 1.389 . S
C567 C566 1.389 . S
C567 C568 1.387 . S
C568 H553 0.930 . S
C568 C563 1.390 . S
C568 C567 1.387 . S
H569 C581 0.930 . S
H570 C583 0.930 . S
H571 C584 0.930 . S
H572 C588 0.959 . S
H573 C588 0.959 . S
H574 C588 0.961 . S
H575 C589 0.960 . S
H576 C589 0.961 . S
H577 C589 0.959 . S
H578 C592 0.929 . S
H579 C593 0.931 . S
H580 C595 0.930 . S
C581 H569 0.930 . S
C581 C582 1.399 . S
C581 C586 1.399 . S
C582 C581 1.399 . S
C582 C583 1.376 . S
C583 H570 0.930 . S
C583 C582 1.376 . S
C583 C584 1.388 . S
C584 H571 0.930 . S
C584 C583 1.388 . S
C584 C585 1.390 . S
C585 C584 1.390 . S
C585 C586 1.394 . S
C585 C591 1.465 . S
C586 C581 1.399 . S
C586 C585 1.394 . S
C586 C587 1.516 . S
C587 C586 1.516 . S
C587 C588 1.502 . S
C587 C589 1.561 . S
C587 C590 1.526 . S
C588 H572 0.959 . S
C588 H573 0.959 . S
C588 H574 0.961 . S
C588 C587 1.502 . S
C589 H575 0.960 . S
C589 H576 0.961 . S
C589 H577 0.959 . S
C589 C587 1.561 . S
C590 C587 1.526 . S
C590 C591 1.396 . S
C590 C595 1.390 . S
C591 C585 1.465 . S
C591 C590 1.396 . S
C591 C592 1.399 . S
C592 H578 0.929 . S
C592 C591 1.399 . S
C592 C593 1.385 . S
C593 H579 0.931 . S
C593 C592 1.385 . S
C593 C594 1.389 . S
C594 C593 1.389 . S
C594 C595 1.387 . S
C595 H580 0.930 . S
C595 C590 1.390 . S
C595 C594 1.387 . S
H596 C608 0.930 . S
H597 C610 0.930 . S
H598 C611 0.930 . S
H599 C615 0.959 . S
H600 C615 0.959 . S
H601 C615 0.961 . S
H602 C616 0.960 . S
H603 C616 0.961 . S
H604 C616 0.959 . S
H605 C619 0.929 . S
H606 C620 0.931 . S
H607 C622 0.930 . S
C608 H596 0.930 . S
C608 C609 1.399 . S
C608 C613 1.399 . S
C609 C608 1.399 . S
C609 C610 1.376 . S
C610 H597 0.930 . S
C610 C609 1.376 . S
C610 C611 1.388 . S
C611 H598 0.930 . S
C611 C610 1.388 . S
C611 C612 1.390 . S
C612 C611 1.390 . S
C612 C613 1.394 . S
C612 C618 1.465 . S
C613 C608 1.399 . S
C613 C612 1.394 . S
C613 C614 1.516 . S
C614 C613 1.516 . S
C614 C615 1.502 . S
C614 C616 1.561 . S
C614 C617 1.526 . S
C615 H599 0.959 . S
C615 H600 0.959 . S
C615 H601 0.961 . S
C615 C614 1.502 . S
C616 H602 0.960 . S
C616 H603 0.961 . S
C616 H604 0.959 . S
C616 C614 1.561 . S
C617 C614 1.526 . S
C617 C618 1.396 . S
C617 C622 1.390 . S
C618 C612 1.465 . S
C618 C617 1.396 . S
C618 C619 1.399 . S
C619 H605 0.929 . S
C619 C618 1.399 . S
C619 C620 1.385 . S
C620 H606 0.931 . S
C620 C619 1.385 . S
C620 C621 1.389 . S
C621 C620 1.389 . S
C621 C622 1.387 . S
C622 H607 0.930 . S
C622 C617 1.390 . S
C622 C621 1.387 . S
H623 C635 0.930 . S
H624 C637 0.930 . S
H625 C638 0.930 . S
H626 C642 0.959 . S
H627 C642 0.959 . S
H628 C642 0.961 . S
H629 C643 0.960 . S
H630 C643 0.961 . S
H631 C643 0.959 . S
H632 C646 0.929 . S
H633 C647 0.931 . S
H634 C649 0.930 . S
C635 H623 0.930 . S
C635 C636 1.399 . S
C635 C640 1.399 . S
C636 C635 1.399 . S
C636 C637 1.376 . S
C637 H624 0.930 . S
C637 C636 1.376 . S
C637 C638 1.388 . S
C638 H625 0.930 . S
C638 C637 1.388 . S
C638 C639 1.390 . S
C639 C638 1.390 . S
C639 C640 1.394 . S
C639 C645 1.465 . S
C640 C635 1.399 . S
C640 C639 1.394 . S
C640 C641 1.516 . S
C641 C640 1.516 . S
C641 C642 1.502 . S
C641 C643 1.561 . S
C641 C644 1.526 . S
C642 H626 0.959 . S
C642 H627 0.959 . S
C642 H628 0.961 . S
C642 C641 1.502 . S
C643 H629 0.960 . S
C643 H630 0.961 . S
C643 H631 0.959 . S
C643 C641 1.561 . S
C644 C641 1.526 . S
C644 C645 1.396 . S
C644 C649 1.390 . S
C645 C639 1.465 . S
C645 C644 1.396 . S
C645 C646 1.399 . S
C646 H632 0.929 . S
C646 C645 1.399 . S
C646 C647 1.385 . S
C647 H633 0.931 . S
C647 C646 1.385 . S
C647 C648 1.389 . S
C648 C647 1.389 . S
C648 C649 1.387 . S
C649 H634 0.930 . S
C649 C644 1.390 . S
C649 C648 1.387 . S
H650 C662 0.930 . S
H651 C664 0.930 . S
H652 C665 0.930 . S
H653 C669 0.959 . S
H654 C669 0.959 . S
H655 C669 0.961 . S
H656 C670 0.960 . S
H657 C670 0.961 . S
H658 C670 0.959 . S
H659 C673 0.929 . S
H660 C674 0.931 . S
H661 C676 0.930 . S
C662 H650 0.930 . S
C662 C663 1.399 . S
C662 C667 1.399 . S
C663 C662 1.399 . S
C663 C664 1.376 . S
C664 H651 0.930 . S
C664 C663 1.376 . S
C664 C665 1.388 . S
C665 H652 0.930 . S
C665 C664 1.388 . S
C665 C666 1.390 . S
C666 C665 1.390 . S
C666 C667 1.394 . S
C666 C672 1.465 . S
C667 C662 1.399 . S
C667 C666 1.394 . S
C667 C668 1.516 . S
C668 C667 1.516 . S
C668 C669 1.502 . S
C668 C670 1.561 . S
C668 C671 1.526 . S
C669 H653 0.959 . S
C669 H654 0.959 . S
C669 H655 0.961 . S
C669 C668 1.502 . S
C670 H656 0.960 . S
C670 H657 0.961 . S
C670 H658 0.959 . S
C670 C668 1.561 . S
C671 C668 1.526 . S
C671 C672 1.396 . S
C671 C676 1.390 . S
C672 C666 1.465 . S
C672 C671 1.396 . S
C672 C673 1.399 . S
C673 H659 0.929 . S
C673 C672 1.399 . S
C673 C674 1.385 . S
C674 H660 0.931 . S
C674 C673 1.385 . S
C674 C675 1.389 . S
C675 C674 1.389 . S
C675 C676 1.387 . S
C676 H661 0.930 . S
C676 C671 1.390 . S
C676 C675 1.387 . S
H677 C689 0.930 . S
H678 C691 0.930 . S
H679 C692 0.930 . S
H680 C696 0.959 . S
H681 C696 0.959 . S
H682 C696 0.961 . S
H683 C697 0.960 . S
H684 C697 0.961 . S
H685 C697 0.959 . S
H686 C700 0.929 . S
H687 C701 0.931 . S
H688 C703 0.930 . S
C689 H677 0.930 . S
C689 C690 1.399 . S
C689 C694 1.399 . S
C690 C689 1.399 . S
C690 C691 1.376 . S
C691 H678 0.930 . S
C691 C690 1.376 . S
C691 C692 1.388 . S
C692 H679 0.930 . S
C692 C691 1.388 . S
C692 C693 1.390 . S
C693 C692 1.390 . S
C693 C694 1.394 . S
C693 C699 1.465 . S
C694 C689 1.399 . S
C694 C693 1.394 . S
C694 C695 1.516 . S
C695 C694 1.516 . S
C695 C696 1.502 . S
C695 C697 1.561 . S
C695 C698 1.526 . S
C696 H680 0.959 . S
C696 H681 0.959 . S
C696 H682 0.961 . S
C696 C695 1.502 . S
C697 H683 0.960 . S
C697 H684 0.961 . S
C697 H685 0.959 . S
C697 C695 1.561 . S
C698 C695 1.526 . S
C698 C699 1.396 . S
C698 C703 1.390 . S
C699 C693 1.465 . S
C699 C698 1.396 . S
C699 C700 1.399 . S
C700 H686 0.929 . S
C700 C699 1.399 . S
C700 C701 1.385 . S
C701 H687 0.931 . S
C701 C700 1.385 . S
C701 C702 1.389 . S
C702 C701 1.389 . S
C702 C703 1.387 . S
C703 H688 0.930 . S
C703 C698 1.390 . S
C703 C702 1.387 . S
H704 C716 0.930 . S
H705 C718 0.930 . S
H706 C719 0.930 . S
H707 C723 0.959 . S
H708 C723 0.959 . S
H709 C723 0.961 . S
H710 C724 0.960 . S
H711 C724 0.961 . S
H712 C724 0.959 . S
H713 C727 0.929 . S
H714 C728 0.931 . S
H715 C730 0.930 . S
C716 H704 0.930 . S
C716 C717 1.399 . S
C716 C721 1.399 . S
C717 C716 1.399 . S
C717 C718 1.376 . S
C718 H705 0.930 . S
C718 C717 1.376 . S
C718 C719 1.388 . S
C719 H706 0.930 . S
C719 C718 1.388 . S
C719 C720 1.390 . S
C720 C719 1.390 . S
C720 C721 1.394 . S
C720 C726 1.465 . S
C721 C716 1.399 . S
C721 C720 1.394 . S
C721 C722 1.516 . S
C722 C721 1.516 . S
C722 C723 1.502 . S
C722 C724 1.561 . S
C722 C725 1.526 . S
C723 H707 0.959 . S
C723 H708 0.959 . S
C723 H709 0.961 . S
C723 C722 1.502 . S
C724 H710 0.960 . S
C724 H711 0.961 . S
C724 H712 0.959 . S
C724 C722 1.561 . S
C725 C722 1.526 . S
C725 C726 1.396 . S
C725 C730 1.390 . S
C726 C720 1.465 . S
C726 C725 1.396 . S
C726 C727 1.399 . S
C727 H713 0.929 . S
C727 C726 1.399 . S
C727 C728 1.385 . S
C728 H714 0.931 . S
C728 C727 1.385 . S
C728 C729 1.389 . S
C729 C728 1.389 . S
C729 C730 1.387 . S
C730 H715 0.930 . S
C730 C725 1.390 . S
C730 C729 1.387 . S
H731 C743 0.930 . S
H732 C745 0.930 . S
H733 C746 0.930 . S
H734 C750 0.959 . S
H735 C750 0.959 . S
H736 C750 0.961 . S
H737 C751 0.960 . S
H738 C751 0.961 . S
H739 C751 0.959 . S
H740 C754 0.929 . S
H741 C755 0.931 . S
H742 C757 0.930 . S
C743 H731 0.930 . S
C743 C744 1.399 . S
C743 C748 1.399 . S
C744 C743 1.399 . S
C744 C745 1.376 . S
C745 H732 0.930 . S
C745 C744 1.376 . S
C745 C746 1.388 . S
C746 H733 0.930 . S
C746 C745 1.388 . S
C746 C747 1.390 . S
C747 C746 1.390 . S
C747 C748 1.394 . S
C747 C753 1.465 . S
C748 C743 1.399 . S
C748 C747 1.394 . S
C748 C749 1.516 . S
C749 C748 1.516 . S
C749 C750 1.502 . S
C749 C751 1.561 . S
C749 C752 1.526 . S
C750 H734 0.959 . S
C750 H735 0.959 . S
C750 H736 0.961 . S
C750 C749 1.502 . S
C751 H737 0.960 . S
C751 H738 0.961 . S
C751 H739 0.959 . S
C751 C749 1.561 . S
C752 C749 1.526 . S
C752 C753 1.396 . S
C752 C757 1.390 . S
C753 C747 1.465 . S
C753 C752 1.396 . S
C753 C754 1.399 . S
C754 H740 0.929 . S
C754 C753 1.399 . S
C754 C755 1.385 . S
C755 H741 0.931 . S
C755 C754 1.385 . S
C755 C756 1.389 . S
C756 C755 1.389 . S
C756 C757 1.387 . S
C757 H742 0.930 . S
C757 C752 1.390 . S
C757 C756 1.387 . S
H758 C770 0.930 . S
H759 C772 0.930 . S
H760 C773 0.930 . S
H761 C777 0.959 . S
H762 C777 0.959 . S
H763 C777 0.961 . S
H764 C778 0.960 . S
H765 C778 0.961 . S
H766 C778 0.959 . S
H767 C781 0.929 . S
H768 C782 0.931 . S
H769 C784 0.930 . S
C770 H758 0.930 . S
C770 C771 1.399 . S
C770 C775 1.399 . S
C771 C770 1.399 . S
C771 C772 1.376 . S
C772 H759 0.930 . S
C772 C771 1.376 . S
C772 C773 1.388 . S
C773 H760 0.930 . S
C773 C772 1.388 . S
C773 C774 1.390 . S
C774 C773 1.390 . S
C774 C775 1.394 . S
C774 C780 1.465 . S
C775 C770 1.399 . S
C775 C774 1.394 . S
C775 C776 1.516 . S
C776 C775 1.516 . S
C776 C777 1.502 . S
C776 C778 1.561 . S
C776 C779 1.526 . S
C777 H761 0.959 . S
C777 H762 0.959 . S
C777 H763 0.961 . S
C777 C776 1.502 . S
C778 H764 0.960 . S
C778 H765 0.961 . S
C778 H766 0.959 . S
C778 C776 1.561 . S
C779 C776 1.526 . S
C779 C780 1.396 . S
C779 C784 1.390 . S
C780 C774 1.465 . S
C780 C779 1.396 . S
C780 C781 1.399 . S
C781 H767 0.929 . S
C781 C780 1.399 . S
C781 C782 1.385 . S
C782 H768 0.931 . S
C782 C781 1.385 . S
C782 C783 1.389 . S
C783 C782 1.389 . S
C783 C784 1.387 . S
C784 H769 0.930 . S
C784 C779 1.390 . S
C784 C783 1.387 . S
H785 C797 0.930 . S
H786 C799 0.930 . S
H787 C800 0.930 . S
H788 C804 0.959 . S
H789 C804 0.959 . S
H790 C804 0.961 . S
H791 C805 0.960 . S
H792 C805 0.961 . S
H793 C805 0.959 . S
H794 C808 0.929 . S
H795 C809 0.931 . S
H796 C811 0.930 . S
C797 H785 0.930 . S
C797 C798 1.399 . S
C797 C802 1.399 . S
C798 C797 1.399 . S
C798 C799 1.376 . S
C799 H786 0.930 . S
C799 C798 1.376 . S
C799 C800 1.388 . S
C800 H787 0.930 . S
C800 C799 1.388 . S
C800 C801 1.390 . S
C801 C800 1.390 . S
C801 C802 1.394 . S
C801 C807 1.465 . S
C802 C797 1.399 . S
C802 C801 1.394 . S
C802 C803 1.516 . S
C803 C802 1.516 . S
C803 C804 1.502 . S
C803 C805 1.561 . S
C803 C806 1.526 . S
C804 H788 0.959 . S
C804 H789 0.959 . S
C804 H790 0.961 . S
C804 C803 1.502 . S
C805 H791 0.960 . S
C805 H792 0.961 . S
C805 H793 0.959 . S
C805 C803 1.561 . S
C806 C803 1.526 . S
C806 C807 1.396 . S
C806 C811 1.390 . S
C807 C801 1.465 . S
C807 C806 1.396 . S
C807 C808 1.399 . S
C808 H794 0.929 . S
C808 C807 1.399 . S
C808 C809 1.385 . S
C809 H795 0.931 . S
C809 C808 1.385 . S
C809 C810 1.389 . S
C810 C809 1.389 . S
C810 C811 1.387 . S
C811 H796 0.930 . S
C811 C806 1.390 . S
C811 C810 1.387 . S
C285 C145 1.415 . S
C297 C9 1.492 . S
C312 C43 1.426 . S
C324 C179 1.466 . S
C339 C77 1.410 . S
C351 C213 1.492 . S
C366 C247 1.480 . S
C378 C111 1.436 . S
C393 C243 0.797 . S
C405 C33 0.800 . S
C420 C141 0.842 . S
C432 C67 0.834 . S
C447 C175 0.842 . S
C459 C101 0.838 . S
C474 C209 0.834 . S
C486 C135 0.827 . S
C501 C169 0.850 . S
C513 C107 0.856 . S
C528 C203 0.848 . S
C540 C5 0.843 . S
C555 C237 0.845 . S
C567 C39 0.836 . S
C582 C271 0.815 . S
C594 C73 0.837 . S
C609 C20 1.278 . S
C621 C88 1.264 . S
C636 C54 1.275 . S
C648 C122 1.265 . S
C663 C224 1.269 . S
C675 C156 1.282 . S
C690 C258 1.268 . S
C702 C190 1.281 . S
C717 C70 1.227 . S
C729 C2 1.248 . S
C744 C36 1.207 . S
C756 C104 1.185 . S
C771 C206 1.251 . S
C783 C138 1.248 . S
C798 C240 1.241 . S
C810 C172 1.236 . S
