# Generated by pormake.
# Topology wft, (7)-cn, num edge types: 1
# Building blocks:
#     Node 0, Type 0, BuildingBlock: NUHQUE_clean_sbu_2, # of connection points: 7
#     Node 1, Type 0, BuildingBlock: NUHQUE_clean_sbu_2, # of connection points: 7
#     Node 2, Type 0, BuildingBlock: NUHQUE_clean_sbu_2, # of connection points: 7
#     Node 3, Type 0, BuildingBlock: NUHQUE_clean_sbu_2, # of connection points: 7
#     Node 4, Type 0, BuildingBlock: NUHQUE_clean_sbu_2, # of connection points: 7
#     Node 5, Type 0, BuildingBlock: NUHQUE_clean_sbu_2, # of connection points: 7
#     Node 6, Type 0, BuildingBlock: NUHQUE_clean_sbu_2, # of connection points: 7
#     Node 7, Type 0, BuildingBlock: NUHQUE_clean_sbu_2, # of connection points: 7
#     Edge 8, Type (0, 0), BuildingBlock: EZIPEK_clean_linker_0, # of connection points: 2
#     Edge 9, Type (0, 0), BuildingBlock: EZIPEK_clean_linker_0, # of connection points: 2
#     Edge 10, Type (0, 0), BuildingBlock: EZIPEK_clean_linker_0, # of connection points: 2
#     Edge 11, Type (0, 0), BuildingBlock: EZIPEK_clean_linker_0, # of connection points: 2
#     Edge 12, Type (0, 0), BuildingBlock: EZIPEK_clean_linker_0, # of connection points: 2
#     Edge 13, Type (0, 0), BuildingBlock: EZIPEK_clean_linker_0, # of connection points: 2
#     Edge 14, Type (0, 0), BuildingBlock: EZIPEK_clean_linker_0, # of connection points: 2
#     Edge 15, Type (0, 0), BuildingBlock: EZIPEK_clean_linker_0, # of connection points: 2
#     Edge 16, Type (0, 0), BuildingBlock: EZIPEK_clean_linker_0, # of connection points: 2
#     Edge 17, Type (0, 0), BuildingBlock: EZIPEK_clean_linker_0, # of connection points: 2
#     Edge 18, Type (0, 0), BuildingBlock: EZIPEK_clean_linker_0, # of connection points: 2
#     Edge 19, Type (0, 0), BuildingBlock: EZIPEK_clean_linker_0, # of connection points: 2
#     Edge 20, Type (0, 0), BuildingBlock: EZIPEK_clean_linker_0, # of connection points: 2
#     Edge 21, Type (0, 0), BuildingBlock: EZIPEK_clean_linker_0, # of connection points: 2
#     Edge 22, Type (0, 0), BuildingBlock: EZIPEK_clean_linker_0, # of connection points: 2
#     Edge 23, Type (0, 0), BuildingBlock: EZIPEK_clean_linker_0, # of connection points: 2
#     Edge 24, Type (0, 0), BuildingBlock: EZIPEK_clean_linker_0, # of connection points: 2
#     Edge 25, Type (0, 0), BuildingBlock: EZIPEK_clean_linker_0, # of connection points: 2
#     Edge 26, Type (0, 0), BuildingBlock: EZIPEK_clean_linker_0, # of connection points: 2
#     Edge 27, Type (0, 0), BuildingBlock: EZIPEK_clean_linker_0, # of connection points: 2
#     Edge 28, Type (0, 0), BuildingBlock: EZIPEK_clean_linker_0, # of connection points: 2
#     Edge 29, Type (0, 0), BuildingBlock: EZIPEK_clean_linker_0, # of connection points: 2
#     Edge 30, Type (0, 0), BuildingBlock: EZIPEK_clean_linker_0, # of connection points: 2
#     Edge 31, Type (0, 0), BuildingBlock: EZIPEK_clean_linker_0, # of connection points: 2
#     Edge 32, Type (0, 0), BuildingBlock: EZIPEK_clean_linker_0, # of connection points: 2
#     Edge 33, Type (0, 0), BuildingBlock: EZIPEK_clean_linker_0, # of connection points: 2
#     Edge 34, Type (0, 0), BuildingBlock: EZIPEK_clean_linker_0, # of connection points: 2
#     Edge 35, Type (0, 0), BuildingBlock: EZIPEK_clean_linker_0, # of connection points: 2
# Relax obj value: 0.108
# Max RMSD: 0.180
# Mean RMSD: 0.180
data_MOF--net-wft--node1-NUHQUE_clean_sbu_2--edge1-EZIPEK_clean_linker_0
_symmetry_space_group_name_H-M    P1
_symmetry_Int_Tables_number       1
_symmetry_cell_setting            triclinic
loop_
_symmetry_equiv_pos_as_xyz
'x, y, z'
_cell_length_a     25.623624
_cell_length_b     25.624438
_cell_length_c     27.658419
_cell_angle_alpha  89.964264
_cell_angle_beta   90.485935
_cell_angle_gamma 89.996578
loop_
_atom_site_label
_atom_site_type_symbol
_atom_site_fract_x
_atom_site_fract_y
_atom_site_fract_z
_atom_type_partial_charge
O0 O 0.32805 0.36757 0.43928 0.0
Tb1 Tb 0.36021 0.28967 0.4346 0.0
Eu2 Eu 0.3473 0.16336 0.37765 0.0
C3 C 0.28673 0.37624 0.46589 0.0
O4 O 0.26446 0.33596 0.48653 0.0
C5 C 0.29135 0.20153 0.47048 0.0
O6 O 0.3882 0.0863 0.38022 0.0
C7 C 0.28648 0.17542 0.30405 0.0
C8 C 0.42283 0.07498 0.34723 0.0
O9 O 0.42782 0.10533 0.30934 0.0
C10 C 0.4379 0.25032 0.36159 0.0
C11 C 0.2517 0.18231 0.26201 0.0
C12 C 0.19748 0.18723 0.26829 0.0
C13 C 0.16416 0.1915 0.22783 0.0
C14 C 0.18539 0.19011 0.18132 0.0
C15 C 0.23948 0.18681 0.17469 0.0
C16 C 0.27262 0.18316 0.21527 0.0
O17 O 0.28996 0.24456 0.4448 0.0
O18 O 0.30819 0.15906 0.44981 0.0
O19 O 0.40716 0.32008 0.49433 0.0
O20 O 0.41125 0.23929 0.47782 0.0
C21 C 0.42925 0.27607 0.50566 0.0
O22 O 0.42685 0.2013 0.37149 0.0
O23 O 0.40262 0.28708 0.36705 0.0
O24 O 0.30411 0.1292 0.31709 0.0
O25 O 0.30179 0.21519 0.3309 0.0
H26 H 0.18133 0.18822 0.30437 0.0
H27 H 0.15977 0.19372 0.15006 0.0
H28 H 0.31451 0.18072 0.21039 0.0
O29 O 0.37699 0.65461 0.64995 0.0
Tb30 Tb 0.29872 0.62478 0.65845 0.0
Eu31 Eu 0.17366 0.63152 0.69398 0.0
C32 C 0.38697 0.70416 0.64176 0.0
O33 O 0.35463 0.74035 0.65664 0.0
C34 C 0.21998 0.6928 0.60419 0.0
O35 O 0.09569 0.59249 0.68874 0.0
C36 C 0.18452 0.68624 0.77189 0.0
C37 C 0.08159 0.56003 0.7229 0.0
O38 O 0.11049 0.55546 0.76206 0.0
C39 C 0.25679 0.54656 0.72617 0.0
C40 C 0.19111 0.72595 0.81 0.0
C41 C 0.20262 0.77777 0.798 0.0
C42 C 0.21231 0.81388 0.83488 0.0
C43 C 0.21053 0.7977 0.88313 0.0
C44 C 0.19145 0.74834 0.89708 0.0
C45 C 0.18661 0.71125 0.85911 0.0
O46 O 0.2605 0.69606 0.63341 0.0
O47 O 0.17869 0.66745 0.61924 0.0
O48 O 0.33246 0.56254 0.61516 0.0
O49 O 0.25155 0.578 0.60817 0.0
C50 C 0.28972 0.54875 0.5933 0.0
O51 O 0.21099 0.55282 0.70522 0.0
O52 O 0.28944 0.58597 0.72723 0.0
O53 O 0.13826 0.67473 0.75377 0.0
O54 O 0.22435 0.67253 0.74493 0.0
H55 H 0.20519 0.78964 0.76048 0.0
H56 H 0.22599 0.82494 0.90884 0.0
H57 H 0.18089 0.67034 0.86701 0.0
O58 O 0.64298 0.61106 0.43028 0.0
Tb59 Tb 0.61652 0.69148 0.42771 0.0
Eu60 Eu 0.6383 0.81435 0.38599 0.0
C61 C 0.69183 0.59966 0.44049 0.0
O62 O 0.7285 0.63352 0.4302 0.0
C63 C 0.68599 0.7698 0.48473 0.0
O64 O 0.60701 0.89492 0.37335 0.0
C65 C 0.70933 0.79024 0.32363 0.0
C66 C 0.56362 0.90784 0.39524 0.0
O67 O 0.54338 0.87578 0.42704 0.0
C68 C 0.54703 0.73832 0.35309 0.0
C69 C 0.73366 0.78109 0.27604 0.0
C70 C 0.78684 0.76791 0.27691 0.0
C71 C 0.81487 0.76289 0.23403 0.0
C72 C 0.7888 0.76807 0.18977 0.0
C73 C 0.73572 0.78173 0.18741 0.0
C74 C 0.70789 0.78882 0.23102 0.0
O75 O 0.68657 0.72585 0.45996 0.0
O76 O 0.66403 0.81088 0.46469 0.0
O77 O 0.55503 0.65683 0.47101 0.0
O78 O 0.56657 0.73851 0.47477 0.0
C79 C 0.53899 0.69964 0.49086 0.0
O80 O 0.55714 0.78516 0.36964 0.0
O81 O 0.58344 0.7027 0.35631 0.0
O82 O 0.7011 0.83835 0.33827 0.0
O83 O 0.67813 0.75512 0.34272 0.0
H84 H 0.80721 0.76355 0.31122 0.0
H85 H 0.81088 0.76419 0.15663 0.0
H86 H 0.66754 0.80142 0.22992 0.0
O87 O 0.61192 0.34366 0.64201 0.0
Tb88 Tb 0.69161 0.36994 0.65376 0.0
Eu89 Eu 0.81483 0.34918 0.69458 0.0
C90 C 0.59967 0.29392 0.63999 0.0
O91 O 0.63301 0.2586 0.65542 0.0
C92 C 0.76894 0.3065 0.59602 0.0
O93 O 0.89484 0.38206 0.70651 0.0
C94 C 0.79579 0.2714 0.75187 0.0
C95 C 0.90599 0.42591 0.68431 0.0
O96 O 0.87179 0.4464 0.6542 0.0
C97 C 0.73595 0.43663 0.73406 0.0
C98 C 0.79162 0.24337 0.79852 0.0
C99 C 0.78666 0.18897 0.79576 0.0
C100 C 0.78227 0.15852 0.83744 0.0
C101 C 0.78307 0.18289 0.88274 0.0
C102 C 0.78924 0.23736 0.88704 0.0
C103 C 0.79294 0.26786 0.84436 0.0
O104 O 0.72798 0.30032 0.62362 0.0
O105 O 0.80947 0.33109 0.61433 0.0
O106 O 0.6616 0.43137 0.60699 0.0
O107 O 0.74364 0.42312 0.61501 0.0
C108 C 0.70664 0.44938 0.59368 0.0
O109 O 0.78319 0.42736 0.71793 0.0
O110 O 0.69878 0.40226 0.72593 0.0
O111 O 0.84233 0.28084 0.73415 0.0
O112 O 0.75953 0.30504 0.73849 0.0
H113 H 0.78569 0.16997 0.76071 0.0
H114 H 0.77818 0.15928 0.91458 0.0
H115 H 0.79705 0.30986 0.84688 0.0
O116 O 0.83141 0.11396 0.12669 0.0
Tb117 Tb 0.86733 0.19039 0.13134 0.0
Eu118 Eu 0.8461 0.31541 0.19514 0.0
C119 C 0.78049 0.10782 0.12425 0.0
O120 O 0.74982 0.14564 0.13869 0.0
C121 C 0.80521 0.28157 0.09216 0.0
O122 O 0.88112 0.39578 0.19806 0.0
C123 C 0.77029 0.30111 0.25515 0.0
C124 C 0.92173 0.40461 0.22619 0.0
O125 O 0.93555 0.36978 0.25866 0.0
C126 C 0.94142 0.22989 0.21224 0.0
C127 C 0.74448 0.28871 0.30144 0.0
C128 C 0.69047 0.27917 0.29933 0.0
C129 C 0.66178 0.27106 0.34154 0.0
C130 C 0.68789 0.27036 0.38609 0.0
C131 C 0.74135 0.28241 0.38972 0.0
C132 C 0.76993 0.2916 0.347 0.0
O133 O 0.7995 0.23778 0.11601 0.0
O134 O 0.82231 0.32225 0.11618 0.0
O135 O 0.91007 0.15726 0.07097 0.0
O136 O 0.92174 0.23713 0.08907 0.0
C137 C 0.93501 0.19968 0.05998 0.0
O138 O 0.92359 0.27808 0.21391 0.0
O139 O 0.91209 0.19036 0.19809 0.0
O140 O 0.79454 0.34605 0.25036 0.0
O141 O 0.78844 0.2633 0.22764 0.0
H142 H 0.67015 0.28024 0.26478 0.0
H143 H 0.66536 0.26484 0.41877 0.0
H144 H 0.81067 0.30274 0.34931 0.0
O145 O 0.11813 0.12763 0.94971 0.0
Tb146 Tb 0.1976 0.10125 0.94229 0.0
Eu147 Eu 0.31444 0.13877 0.87194 0.0
C148 C 0.10128 0.17168 0.93117 0.0
O149 O 0.13123 0.19918 0.90251 0.0
C150 C 0.27781 0.18276 0.9709 0.0
O151 O 0.39652 0.10943 0.87248 0.0
C152 C 0.29621 0.20323 0.80286 0.0
C153 C 0.40846 0.0702 0.84427 0.0
O154 O 0.37613 0.05634 0.80951 0.0
C155 C 0.24096 0.03343 0.85935 0.0
C156 C 0.28601 0.23685 0.76098 0.0
C157 C 0.28357 0.29091 0.76794 0.0
C158 C 0.27917 0.3247 0.72827 0.0
C159 C 0.27773 0.30407 0.68134 0.0
C160 C 0.27998 0.2499 0.67392 0.0
C161 C 0.28362 0.21622 0.71401 0.0
O162 O 0.23261 0.17752 0.94899 0.0
O163 O 0.31998 0.17346 0.9463 0.0
O164 O 0.17241 0.05523 1.00381 0.0
O165 O 0.2533 0.05947 0.98863 0.0
C166 C 0.21854 0.03994 1.01751 0.0
O167 O 0.28704 0.05612 0.85874 0.0
O168 O 0.1989 0.0565 0.87606 0.0
O169 O 0.34364 0.18677 0.81322 0.0
O170 O 0.25824 0.18439 0.8297 0.0
H171 H 0.28626 0.30687 0.80418 0.0
H172 H 0.27537 0.33022 0.65053 0.0
H173 H 0.28627 0.17441 0.7085 0.0
O174 O 0.14331 0.86525 0.1299 0.0
Tb175 Tb 0.11034 0.78765 0.13564 0.0
Eu176 Eu 0.14158 0.66293 0.20298 0.0
C177 C 0.19033 0.87699 0.14573 0.0
O178 O 0.21655 0.8431 0.17193 0.0
C179 C 0.18216 0.70026 0.10433 0.0
O180 O 0.10417 0.5862 0.22007 0.0
C181 C 0.20964 0.6931 0.26584 0.0
C182 C 0.06915 0.56962 0.1887 0.0
O183 O 0.06274 0.59514 0.14791 0.0
C184 C 0.03904 0.74054 0.21331 0.0
C185 C 0.23814 0.70767 0.31013 0.0
C186 C 0.29183 0.71634 0.30547 0.0
C187 C 0.32319 0.72537 0.34609 0.0
C188 C 0.30017 0.72817 0.39167 0.0
C189 C 0.2465 0.71803 0.39764 0.0
C190 C 0.21528 0.70762 0.35641 0.0
O191 O 0.18106 0.74263 0.13079 0.0
O192 O 0.17124 0.65662 0.12645 0.0
O193 O 0.06597 0.81865 0.0747 0.0
O194 O 0.05967 0.73774 0.09156 0.0
C195 C 0.04373 0.77494 0.06304 0.0
O196 O 0.05966 0.69338 0.21299 0.0
O197 O 0.06564 0.78277 0.20155 0.0
O198 O 0.20302 0.64356 0.25459 0.0
O199 O 0.17804 0.7263 0.24382 0.0
H200 H 0.30988 0.71345 0.27022 0.0
H201 H 0.32501 0.73389 0.4232 0.0
H202 H 0.17455 0.69727 0.36051 0.0
O203 O 0.86145 0.8458 0.93804 0.0
Tb204 Tb 0.78313 0.87323 0.92407 0.0
Eu205 Eu 0.66562 0.85118 0.88081 0.0
C206 C 0.87391 0.79658 0.93205 0.0
O207 O 0.84102 0.76438 0.91094 0.0
C208 C 0.70709 0.80817 0.9811 0.0
O209 O 0.58644 0.88636 0.87146 0.0
C210 C 0.6838 0.7741 0.82272 0.0
C211 C 0.57994 0.93314 0.88976 0.0
O212 O 0.61739 0.95403 0.91605 0.0
C213 C 0.7462 0.93648 0.84014 0.0
C214 C 0.69591 0.74246 0.77941 0.0
C215 C 0.70861 0.69011 0.78769 0.0
C216 C 0.72936 0.65988 0.75077 0.0
C217 C 0.74326 0.68437 0.70755 0.0
C218 C 0.7192 0.73196 0.69328 0.0
C219 C 0.69562 0.76158 0.73119 0.0
O220 O 0.74885 0.80278 0.95453 0.0
O221 O 0.66653 0.83143 0.96121 0.0
O222 O 0.80703 0.93934 0.9685 0.0
O223 O 0.72594 0.92356 0.95958 0.0
C224 C 0.76014 0.95392 0.98009 0.0
O225 O 0.69889 0.92851 0.85647 0.0
O226 O 0.78204 0.90174 0.85073 0.0
O227 O 0.63632 0.79133 0.83095 0.0
O228 O 0.7213 0.79959 0.84551 0.0
H229 H 0.70187 0.67261 0.82281 0.0
H230 H 0.76816 0.66279 0.68342 0.0
H231 H 0.67686 0.7986 0.72411 0.0
C232 C 0.24941 0.23525 0.09664 0.0
C233 C 0.26045 0.19014 0.12472 0.0
C234 C 0.30182 0.14978 0.05448 0.0
C235 C 0.28006 0.18955 1.02435 0.0
N236 N 0.23593 0.27231 1.01687 0.0
N237 N 0.29452 0.10238 0.1298 0.0
C238 C 0.25486 0.2331 0.04558 0.0
C239 C 0.2869 0.14721 0.1038 0.0
N240 N 0.23474 0.28037 0.11915 0.0
N241 N 0.33608 0.11395 1.03645 0.0
H242 H 0.28283 0.09789 0.16553 0.0
H243 H 0.30815 0.0678 0.11471 0.0
H244 H 0.34706 0.1119 1.00046 0.0
H245 H 0.3573 0.08836 0.0583 0.0
H246 H 0.23016 0.31592 0.10139 0.0
H247 H 0.23226 0.28348 0.15668 0.0
H248 H 0.21179 0.30197 1.02939 0.0
H249 H 0.24274 0.27406 0.97977 0.0
C250 C 0.15211 0.6775 1.01737 0.0
C251 C 0.18599 0.70474 0.05031 0.0
C252 C 0.20151 0.76843 0.98775 0.0
C253 C 0.18152 0.73549 0.95067 0.0
N254 N 0.12032 0.66533 0.93533 0.0
N255 N 0.25511 0.76872 0.05854 0.0
C256 C 0.15267 0.69082 0.96673 0.0
C257 C 0.21591 0.74647 1.03215 0.0
N258 N 0.116 0.64281 1.03426 0.0
N259 N 0.19349 0.82099 0.98668 0.0
H260 H 0.2684 0.75307 0.09125 0.0
H261 H 0.27706 0.79949 0.04452 0.0
H262 H 0.16796 0.83812 0.96166 0.0
H263 H 0.20514 0.84525 1.01515 0.0
H264 H 0.08666 0.62633 1.01302 0.0
H265 H 0.11179 0.63283 0.07029 0.0
H266 H 0.10682 0.62749 0.94103 0.0
H267 H 0.10555 0.68336 0.90429 0.0
C268 C 0.67496 0.76912 0.06062 0.0
C269 C 0.71044 0.80202 1.03533 0.0
C270 C 0.74141 0.83563 0.11361 0.0
C271 C 0.71474 0.79577 0.13832 0.0
N272 N 0.65717 0.72173 0.13511 0.0
N273 N 0.78842 0.85597 0.04198 0.0
C274 C 0.68112 0.762 0.11186 0.0
C275 C 0.74668 0.83243 0.06291 0.0
N276 N 0.63639 0.74366 1.03579 0.0
N277 N 0.76402 0.87541 0.13911 0.0
H278 H 0.79754 0.85178 1.00598 0.0
H279 H 0.81806 0.8741 0.06183 0.0
H280 H 0.76056 0.87853 0.17659 0.0
H281 H 0.78098 0.90773 0.12253 0.0
H282 H 0.60633 0.72354 0.05278 0.0
H283 H 0.63274 0.74527 0.99824 0.0
H284 H 0.63701 0.69215 0.11713 0.0
H285 H 0.65998 0.71658 0.17245 0.0
C286 C 0.74562 0.25696 0.96643 0.0
C287 C 0.79056 0.26084 0.93696 0.0
C288 C 0.83998 0.29554 1.00684 0.0
C289 C 0.79786 0.2823 0.03806 0.0
N290 N 0.70933 0.25216 0.0471 0.0
N291 N 0.88186 0.28173 0.92947 0.0
C292 C 0.75019 0.26388 1.01754 0.0
C293 C 0.83783 0.28055 0.95705 0.0
N294 N 0.69819 0.24769 0.94512 0.0
N295 N 0.88241 0.32204 1.02434 0.0
H296 H 0.88219 0.27125 0.89309 0.0
H297 H 0.91902 0.28897 0.94343 0.0
H298 H 0.88775 0.33195 0.06045 0.0
H299 H 0.91084 0.33822 1.00223 0.0
H300 H 0.66293 0.24911 0.96348 0.0
H301 H 0.6936 0.24348 0.9078 0.0
H302 H 0.67633 0.23177 1.03567 0.0
H303 H 0.70926 0.26111 0.08388 0.0
C304 C 0.79468 0.26013 0.46551 0.0
C305 C 0.76174 0.29477 0.43931 0.0
C306 C 0.72878 0.32975 0.5147 0.0
C307 C 0.76479 0.29919 0.54213 0.0
N308 N 0.83871 0.24061 0.5417 0.0
N309 N 0.71424 0.37551 0.43952 0.0
C310 C 0.80042 0.26648 0.51685 0.0
C311 C 0.73532 0.33446 0.46436 0.0
N312 N 0.81851 0.22007 0.44191 0.0
N313 N 0.68596 0.35154 0.53526 0.0
H314 H 0.72038 0.38051 0.40253 0.0
H315 H 0.69608 0.40686 0.45651 0.0
H316 H 0.67551 0.3446 0.57067 0.0
H317 H 0.65684 0.37029 0.5152 0.0
H318 H 0.83839 0.19012 0.45968 0.0
H319 H 0.81589 0.21558 0.40448 0.0
H320 H 0.86875 0.22047 0.52473 0.0
H321 H 0.84201 0.24184 0.5793 0.0
C322 C 0.3256 0.20578 0.60478 0.0
C323 C 0.27998 0.22925 0.62362 0.0
C324 C 0.23889 0.22746 0.54313 0.0
C325 C 0.28462 0.20401 0.52402 0.0
N326 N 0.36602 0.15762 0.54036 0.0
N327 N 0.18902 0.25074 0.61425 0.0
C328 C 0.32592 0.18842 0.55598 0.0
C329 C 0.2353 0.2365 0.59377 0.0
N330 N 0.37013 0.20335 0.63239 0.0
N331 N 0.19891 0.24139 0.51273 0.0
H332 H 0.18494 0.25668 0.65135 0.0
H333 H 0.15367 0.25212 0.5955 0.0
H334 H 0.19771 0.23093 0.4763 0.0
H335 H 0.16803 0.26525 0.523 0.0
H336 H 0.40639 0.19273 0.61881 0.0
H337 H 0.37247 0.21684 0.66787 0.0
H338 H 0.39232 0.13949 0.56387 0.0
H339 H 0.37187 0.14636 0.50483 0.0
C340 C 0.19492 0.74155 0.47369 0.0
C341 C 0.22836 0.70742 0.44797 0.0
C342 C 0.26239 0.67359 0.52367 0.0
C343 C 0.22546 0.70263 0.55079 0.0
N344 N 0.15045 0.7598 0.54929 0.0
N345 N 0.27658 0.62712 0.44941 0.0
C346 C 0.18926 0.73485 0.52498 0.0
C347 C 0.25555 0.66845 0.47346 0.0
N348 N 0.17034 0.7812 0.44977 0.0
N349 N 0.30656 0.65392 0.54409 0.0
H350 H 0.26991 0.62114 0.41254 0.0
H351 H 0.29508 0.59639 0.46728 0.0
H352 H 0.31611 0.6583 0.58011 0.0
H353 H 0.33711 0.6399 0.5231 0.0
H354 H 0.14976 0.81061 0.46728 0.0
H355 H 0.17318 0.78607 0.41244 0.0
H356 H 0.12004 0.77945 0.53189 0.0
H357 H 0.14731 0.75845 0.58685 0.0
C358 C 0.70853 0.79901 0.62233 0.0
C359 C 0.71618 0.74677 0.63918 0.0
C360 C 0.73103 0.7239 0.55405 0.0
C361 C 0.70546 0.76945 0.53706 0.0
N362 N 0.66812 0.85341 0.56153 0.0
N363 N 0.71826 0.65639 0.6119 0.0
C364 C 0.69326 0.80805 0.57291 0.0
C365 C 0.72323 0.7082 0.60244 0.0
N366 N 0.72074 0.84044 0.65115 0.0
N367 N 0.76202 0.69517 0.5244 0.0
H368 H 0.69516 0.64276 0.64006 0.0
H369 H 0.73157 0.62766 0.58857 0.0
H370 H 0.77267 0.70853 0.49023 0.0
H371 H 0.78275 0.66262 0.53664 0.0
H372 H 0.71857 0.87893 0.63898 0.0
H373 H 0.74099 0.83595 0.68373 0.0
H374 H 0.6538 0.87821 0.58824 0.0
H375 H 0.66005 0.86629 0.52675 0.0
C376 C 0.49498 0.03906 0.39867 0.0
C377 C 0.46216 0.03429 0.35726 0.0
C378 C 0.50663 0.95354 0.33485 0.0
C379 C 0.53355 0.9542 0.37992 0.0
N380 N 0.55202 -0.00428 0.45633 0.0
N381 N 0.43253 0.98486 0.28822 0.0
C382 C 0.52734 -0.00352 0.41233 0.0
C383 C 0.46718 0.99123 0.32562 0.0
N384 N 0.4969 0.0851 0.42366 0.0
N385 N 0.51874 0.91703 0.30077 0.0
H386 H 0.40298 0.01163 0.28038 0.0
H387 H 0.43026 0.95102 0.26747 0.0
H388 H 0.54637 0.88783 0.3064 0.0
H389 H 0.50469 0.91843 0.26535 0.0
H390 H 0.52395 0.09274 0.45106 0.0
H391 H 0.4749 0.11775 0.41398 0.0
H392 H 0.544 0.02221 0.48384 0.0
H393 H 0.57859 0.96673 0.46636 0.0
C394 C -0.0059 0.45974 0.66201 0.0
C395 C 0.9538 0.45529 0.69649 0.0
C396 C -0.00376 0.52102 0.74754 0.0
C397 C 0.03794 0.52352 0.71433 0.0
N398 N 0.0833 0.48558 0.64667 0.0
N399 N 0.92207 0.47233 0.77682 0.0
C400 C 0.03883 0.49019 0.67333 0.0
C401 C 0.95676 0.48281 0.74089 0.0
N402 N 0.98956 0.43506 0.61838 0.0
N403 N -0.00718 0.55686 0.78398 0.0
H404 H 0.89211 0.44513 0.77314 0.0
H405 H 0.92596 0.48703 0.81177 0.0
H406 H 0.02055 0.58608 0.7896 0.0
H407 H 0.96017 0.56066 0.80588 0.0
H408 H 0.01458 0.44197 0.58959 0.0
H409 H 0.95882 0.40986 0.60994 0.0
H410 H 0.08786 0.45805 0.61936 0.0
H411 H 0.11768 0.50555 0.65492 0.0
C412 C 0.96409 0.48888 0.2503 0.0
C413 C 0.95742 0.44845 0.21586 0.0
C414 C 0.02982 0.48336 0.16839 0.0
C415 C 0.03322 0.52641 0.20032 0.0
N416 N -0.00315 0.57581 0.26637 0.0
N417 N 0.97787 0.41184 0.1376 0.0
C418 C -0.00126 0.53069 0.24007 0.0
C419 C 0.98829 0.44718 0.17342 0.0
N420 N 0.93724 0.48744 0.29277 0.0
N421 N 0.06763 0.47583 0.13449 0.0
H422 H 0.94886 0.38355 0.13994 0.0
H423 H -0.00471 0.41314 0.10374 0.0
H424 H 0.09925 0.50106 0.13039 0.0
H425 H 0.0706 0.44204 0.11379 0.0
H426 H 0.94523 0.51226 0.32171 0.0
H427 H 0.90907 0.45925 0.3003 0.0
H428 H 0.96833 0.58341 0.29202 0.0
H429 H 0.02086 0.60779 0.25977 0.0
C430 C 0.45664 0.01332 0.90355 0.0
C431 C 0.4529 0.036 0.85666 0.0
C432 C 0.52638 0.98296 0.82955 0.0
C433 C 0.53362 0.96469 0.8776 0.0
N434 N 0.50964 0.96613 0.96175 0.0
N435 N 0.48963 0.05004 0.77783 0.0
C436 C 0.50007 0.98119 0.91506 0.0
C437 C 0.4891 0.02272 0.82032 0.0
N438 N 0.41746 0.0199 0.93631 0.0
N439 N 0.55501 0.96254 0.79263 0.0
H440 H 0.4638 0.0805 0.7703 0.0
H441 H 0.51884 0.04618 0.75212 0.0
H442 H 0.58432 0.9349 0.79767 0.0
H443 H 0.54703 0.97008 0.75631 0.0
H444 H 0.41514 -0.00101 0.96852 0.0
H445 H 0.38444 0.04257 0.92988 0.0
H446 H 0.491 0.98266 0.99136 0.0
H447 H 0.5384 0.93912 0.97129 0.0
C448 C 0.52153 0.30339 0.37367 0.0
C449 C 0.49329 0.2631 0.34939 0.0
C450 C 0.57595 0.2282 0.31843 0.0
C451 C 0.60346 0.26994 0.34041 0.0
N452 N 0.59961 0.3564 0.37458 0.0
N453 N 0.4931 0.1989 0.2858 0.0
C454 C 0.57531 0.31045 0.36348 0.0
C455 C 0.52045 0.22911 0.31775 0.0
N456 N 0.49866 0.3332 0.40845 0.0
N457 N 0.60246 0.1867 0.29979 0.0
H458 H 0.45261 0.20152 0.28213 0.0
H459 H 0.51089 0.17628 0.25934 0.0
H460 H 0.64309 0.18436 0.29999 0.0
H461 H 0.58392 0.15277 0.28798 0.0
H462 H 0.51991 0.35785 0.43124 0.0
H463 H 0.4596 0.33059 0.41754 0.0
H464 H 0.57981 0.38891 0.3877 0.0
H465 H 0.63816 0.36397 0.36508 0.0
C466 C 0.32231 0.41245 0.72248 0.0
C467 C 0.27837 0.38215 0.73569 0.0
C468 C 0.23412 0.46133 0.76258 0.0
C469 C 0.27244 0.49226 0.73966 0.0
N470 N 0.35625 0.49676 0.69959 0.0
N471 N 0.19045 0.37778 0.76608 0.0
C472 C 0.31795 0.46787 0.72071 0.0
C473 C 0.23388 0.4065 0.75568 0.0
N474 N 0.36864 0.3882 0.71302 0.0
N475 N 0.19845 0.48479 0.79179 0.0
H476 H 0.18848 0.33746 0.76129 0.0
H477 H 0.15499 0.39455 0.77571 0.0
H478 H 0.20002 0.52469 0.79934 0.0
H479 H 0.17175 0.46419 0.81262 0.0
H480 H 0.40359 0.40806 0.70778 0.0
H481 H 0.37322 0.3478 0.71504 0.0
H482 H 0.38531 0.48056 0.67818 0.0
H483 H 0.35886 0.53706 0.70246 0.0
C484 C 0.46261 0.76481 0.31564 0.0
C485 C 0.49157 0.72571 0.34031 0.0
C486 C 0.4093 0.67978 0.35688 0.0
C487 C 0.38104 0.7246 0.34166 0.0
N488 N 0.3808 0.81149 0.30831 0.0
N489 N 0.49119 0.6429 0.38344 0.0
C490 C 0.40764 0.76746 0.3211 0.0
C491 C 0.46475 0.68191 0.3602 0.0
N492 N 0.48784 0.79853 0.28563 0.0
N493 N 0.38319 0.6344 0.36634 0.0
H494 H 0.5312 0.63745 0.38144 0.0
H495 H 0.47303 0.61583 0.40584 0.0
H496 H 0.34286 0.6309 0.36246 0.0
H497 H 0.40168 0.59886 0.3729 0.0
H498 H 0.46833 0.82461 0.26293 0.0
H499 H 0.52788 0.79589 0.27935 0.0
H500 H 0.39913 0.84606 0.29815 0.0
H501 H 0.34039 0.81476 0.31148 0.0
C502 C 0.76954 0.57313 0.77394 0.0
C503 C 0.72728 0.60161 0.75388 0.0
C504 C 0.67964 0.51921 0.73897 0.0
C505 C 0.7252 0.49085 0.75257 0.0
N506 N 0.80165 0.48964 0.803 0.0
N507 N 0.64104 0.60303 0.71791 0.0
C508 C 0.76667 0.51767 0.77607 0.0
C509 C 0.68176 0.57496 0.73701 0.0
N510 N 0.81342 0.59893 0.78896 0.0
N511 N 0.63364 0.4935 0.731 0.0
H512 H 0.60963 0.58654 0.69941 0.0
H513 H 0.6398 0.6437 0.71789 0.0
H514 H 0.62859 0.45408 0.73838 0.0
H515 H 0.59828 0.51191 0.7237 0.0
H516 H 0.84806 0.58014 0.79845 0.0
H517 H 0.81628 0.63956 0.78891 0.0
H518 H 0.82956 0.50665 0.82554 0.0
H519 H 0.79848 0.44924 0.80712 0.0
C520 C 0.03582 0.25923 0.20626 0.0
C521 C -0.00144 0.22145 0.22209 0.0
C522 C 0.07125 0.16337 0.24516 0.0
C523 C 0.10743 0.20296 0.23278 0.0
N524 N 0.12318 0.29372 0.21567 0.0
N525 N 0.98258 0.14338 0.26878 0.0
C526 C 0.0892 0.25273 0.2185 0.0
C527 C 0.01678 0.17512 0.24517 0.0
N528 N 0.02173 0.29878 0.1756 0.0
N529 N 0.08864 0.11421 0.25552 0.0
H530 H 0.94318 0.15246 0.27256 0.0
H531 H -0.00561 0.11139 0.2894 0.0
H532 H 0.12818 0.10455 0.25669 0.0
H533 H 0.06374 0.08238 0.2595 0.0
H534 H 0.0486 0.32434 0.16032 0.0
H535 H 0.98538 0.30104 0.15874 0.0
H536 H 0.11101 0.33203 0.20971 0.0
H537 H 0.1627 0.29026 0.22457 0.0
C538 C 0.1944 0.96002 0.81604 0.0
C539 C 0.23752 0.9777 0.84411 0.0
C540 C 0.27298 0.88885 0.84354 0.0
C541 C 0.22485 0.86977 0.82557 0.0
N542 N 0.13687 0.88757 0.79812 0.0
N543 N 0.31253 0.95441 0.89392 0.0
C544 C 0.18488 0.90545 0.81205 0.0
C545 C 0.27608 0.94114 0.85976 0.0
N546 N 0.16307 -0.00489 0.79258 0.0
N547 N 0.31474 0.85598 0.84764 0.0
H548 H 0.31255 0.99011 0.91169 0.0
H549 H 0.33833 0.92758 0.90936 0.0
H550 H 0.31287 0.81712 0.83637 0.0
H551 H 0.352 0.86878 0.85736 0.0
H552 H 0.1336 0.98402 0.76852 0.0
H553 H 0.17032 0.03517 0.79293 0.0
H554 H 0.10466 0.91197 0.79361 0.0
H555 H 0.12828 0.84806 0.79415 0.0
C556 C 0.89321 0.70894 0.2139 0.0
C557 C 0.87245 0.75485 0.23456 0.0
C558 C 0.96147 0.78635 0.25035 0.0
C559 C 0.98179 0.74473 0.22239 0.0
N560 N 0.96314 0.67365 0.16665 0.0
N561 N 0.88707 0.84207 0.26513 0.0
C562 C 0.94676 0.70746 0.20161 0.0
C563 C 0.90661 0.79494 0.25096 0.0
N564 N 0.8617 0.66683 0.20557 0.0
N565 N -0.00586 0.81661 0.27774 0.0
H566 H 0.84729 0.85058 0.26526 0.0
H567 H 0.91067 0.87426 0.2725 0.0
H568 H 0.03417 0.80977 0.28043 0.0
H569 H 0.98072 0.84452 0.30203 0.0
H570 H 0.87607 0.63063 0.19478 0.0
H571 H 0.82216 0.66656 0.21434 0.0
H572 H 0.93787 0.64891 0.14786 0.0
H573 H -0.00014 0.67569 0.15103 0.0
C574 C 0.81867 0.06675 0.83656 0.0
C575 C 0.77505 0.10087 0.83285 0.0
C576 C 0.71867 0.0263 0.81366 0.0
C577 C 0.76006 0.99142 0.82497 0.0
N578 N 0.85347 0.97955 0.82435 0.0
N579 N 0.68256 0.11326 0.8209 0.0
C580 C 0.81151 0.0118 0.82995 0.0
C581 C 0.72485 0.0807 0.82181 0.0
N582 N 0.86668 0.08684 0.84772 0.0
N583 N 0.67461 0.00738 0.79182 0.0
H584 H 0.68542 0.15347 0.82624 0.0
H585 H 0.6442 0.09996 0.81873 0.0
H586 H 0.67174 0.96856 0.78071 0.0
H587 H 0.64445 0.03094 0.77892 0.0
H588 H 0.89874 0.0641 0.85739 0.0
H589 H 0.87377 0.12683 0.85012 0.0
H590 H 0.89207 0.99207 0.82512 0.0
H591 H 0.84976 0.94153 0.81155 0.0
C592 C 0.31348 0.46927 0.47924 0.0
C593 C 0.27594 0.42959 0.48484 0.0
C594 C 0.24231 0.47262 0.55682 0.0
C595 C 0.28528 0.50781 0.55575 0.0
N596 N 0.36654 0.53469 0.51775 0.0
N597 N 0.18969 0.40992 0.51243 0.0
C598 C 0.32219 0.50501 0.51747 0.0
C599 C 0.23544 0.43651 0.5185 0.0
N600 N 0.33789 0.4752 0.43591 0.0
N601 N 0.21116 0.46981 0.59662 0.0
H602 H 0.18303 0.38616 0.48235 0.0
H603 H 0.15669 0.41657 0.5333 0.0
H604 H 0.21705 0.49249 0.62738 0.0
H605 H 0.18341 0.44063 0.60149 0.0
H606 H 0.36217 0.50665 0.428 0.0
H607 H 0.32745 0.453 0.40572 0.0
H608 H 0.3971 0.52851 0.4938 0.0
H609 H 0.37546 0.56283 0.54345 0.0
C610 C 0.45756 0.74016 0.52534 0.0
C611 C 0.49874 0.70311 0.52892 0.0
C612 C 0.47511 0.68585 0.61243 0.0
C613 C 0.42909 0.71544 0.60691 0.0
N614 N 0.37162 0.76428 0.55301 0.0
N615 N 0.53167 0.62674 0.57151 0.0
C616 C 0.41902 0.74169 0.56223 0.0
C617 C 0.50344 0.67186 0.57107 0.0
N618 N 0.45357 0.77207 0.48588 0.0
N619 N 0.49097 0.66957 0.6572 0.0
H620 H 0.54833 0.6105 0.54098 0.0
H621 H 0.53166 0.60129 0.60094 0.0
H622 H 0.47103 0.67999 0.68852 0.0
H623 H 0.52668 0.65097 0.66315 0.0
H624 H 0.42807 0.80373 0.48425 0.0
H625 H 0.47728 0.7684 0.45563 0.0
H626 H 0.36033 0.77737 0.51882 0.0
H627 H 0.34158 0.7664 0.57791 0.0
C628 C 0.74462 0.4873 0.51728 0.0
C629 C 0.71246 0.49261 0.55867 0.0
C630 C 0.67523 0.57316 0.52555 0.0
C631 C 0.70104 0.56338 0.48128 0.0
N632 N 0.75825 0.51062 0.43314 0.0
N633 N 0.65105 0.54265 0.60503 0.0
C634 C 0.73582 0.52072 0.47681 0.0
C635 C 0.67874 0.5361 0.56342 0.0
N636 N 0.7833 0.45058 0.5163 0.0
N637 N 0.65041 0.6198 0.53264 0.0
H638 H 0.65878 0.52141 0.63639 0.0
H639 H 0.6201 0.56852 0.60862 0.0
H640 H 0.65119 0.65039 0.50804 0.0
H641 H 0.63417 0.63145 0.56515 0.0
H642 H 0.81102 0.44831 0.48911 0.0
H643 H 0.79099 0.4248 0.54446 0.0
H644 H 0.7789 0.47665 0.42556 0.0
H645 H 0.75286 0.53462 0.40304 0.0
C646 C 0.46198 0.29144 0.58975 0.0
C647 C 0.47064 0.27059 0.54294 0.0
C648 C 0.56333 0.25765 0.5625 0.0
C649 C 0.55456 0.27865 0.60932 0.0
N650 N 0.49488 0.30441 0.67141 0.0
N651 N 0.52712 0.22475 0.48742 0.0
C652 C 0.50358 0.29217 0.62408 0.0
C653 C 0.52034 0.25018 0.53039 0.0
N654 N 0.41408 0.31127 0.60119 0.0
N655 N 0.61318 0.24836 0.54728 0.0
H656 H 0.49851 0.22181 0.46071 0.0
H657 H 0.56039 0.20324 0.4793 0.0
H658 H 0.64593 0.25154 0.56959 0.0
H659 H 0.62289 0.24098 0.51145 0.0
H660 H 0.4072 0.33376 0.63175 0.0
H661 H 0.38107 0.30666 0.57929 0.0
H662 H 0.45787 0.30928 0.68593 0.0
H663 H 0.52471 0.30492 0.69733 0.0
C664 C 0.77302 0.04699 1.00139 0.0
C665 C 0.74921 -0.0014 1.01204 0.0
C666 C 0.73456 0.02626 0.09553 0.0
C667 C 0.76159 0.07309 0.0854 0.0
N668 N 0.79008 0.13571 1.02641 0.0
N669 N 0.69169 0.94908 0.06323 0.0
C670 C 0.77528 0.08595 1.03741 0.0
C671 C 0.72438 0.99058 0.05712 0.0
N672 N 0.79513 0.05494 0.95727 0.0
N673 N 0.72092 0.01498 0.14198 0.0
H674 H 0.68267 0.92308 1.0355 0.0
H675 H 0.66965 0.94317 0.0942 0.0
H676 H 0.72683 0.04127 0.17031 0.0
H677 H 0.70636 0.97893 0.15279 0.0
H678 H 0.82073 0.08547 0.95006 0.0
H679 H 0.78957 0.02918 0.92856 0.0
H680 H 0.79582 0.14879 0.99141 0.0
H681 H 0.79205 0.16543 0.05196 0.0
C682 C 0.96342 0.18165 0.9755 0.0
C683 C 0.97459 0.20319 1.02164 0.0
C684 C 0.0623 0.22586 0.99491 0.0
C685 C 0.05465 0.19468 0.95336 0.0
N686 N -0.00154 0.14273 0.90278 0.0
N687 N 0.03859 0.23665 0.07827 0.0
C688 C 0.00504 0.17308 0.94289 0.0
C689 C 0.0247 0.2241 1.03198 0.0
N690 N 0.91315 0.16993 0.96284 0.0
N691 N 0.1066 0.25499 1.0 0.0
H692 H 0.0142 0.22974 0.10742 0.0
H693 H 0.07638 0.24724 0.08848 0.0
H694 H 0.13513 0.25659 0.9734 0.0
H695 H 0.1121 0.28164 1.02804 0.0
H696 H 0.90196 0.15796 0.92836 0.0
H697 H 0.88178 0.17772 0.98541 0.0
H698 H 0.96526 0.12031 0.89638 0.0
H699 H 0.02767 0.13834 0.87702 0.0
C700 C 0.18535 0.97329 0.13323 0.0
C701 C 0.21408 0.92638 0.12845 0.0
C702 C 0.2612 0.96262 0.05956 0.0
C703 C 0.22779 0.00687 0.06078 0.0
N704 N 0.17496 0.06389 0.10923 0.0
N705 N 0.29388 0.88612 0.10161 0.0
C706 C 0.19551 0.0154 0.10136 0.0
C707 C 0.25714 0.92438 0.09664 0.0
N708 N 0.14704 0.97657 0.16711 0.0
N709 N 0.29425 0.95506 1.02176 0.0
H710 H 0.29295 0.8584 0.12908 0.0
H711 H 0.32841 0.88537 0.08203 0.0
H712 H 0.30171 0.98338 0.99589 0.0
H713 H 0.31307 0.91978 1.01511 0.0
H714 H 0.12025 0.00706 0.16874 0.0
H715 H 0.14137 0.94739 0.19291 0.0
H716 H 0.15427 0.07392 0.14009 0.0
H717 H 0.18352 0.09573 0.08709 0.0
C718 C 0.90807 0.76113 1.00917 0.0
C719 C 0.91791 0.77646 0.9609 0.0
C720 C 0.01167 0.77929 0.97775 0.0
C721 C 0.00104 0.77078 1.02734 0.0
N722 N 0.93877 0.76324 0.09191 0.0
N723 N 0.97741 0.79844 0.89745 0.0
C724 C 0.94924 0.76327 0.04353 0.0
C725 C 0.96944 0.78433 0.94447 0.0
N726 N 0.85908 0.74582 1.02234 0.0
N727 N 0.06218 0.78334 0.96297 0.0
H728 H 0.94713 0.79958 0.87198 0.0
H729 H 0.01319 0.8102 0.88372 0.0
H730 H 0.09333 0.7822 0.98728 0.0
H731 H 0.07366 0.7852 0.92704 0.0
H732 H 0.85055 0.72981 0.05598 0.0
H733 H 0.82775 0.74451 0.9981 0.0
H734 H 0.90118 0.7639 0.10593 0.0
H735 H 0.96769 0.76797 0.11823 0.0
loop_
_geom_bond_atom_site_label_1
_geom_bond_atom_site_label_2
_geom_bond_distance
_geom_bond_site_symmetry_2
_ccdc_geom_bond_type
O0 Tb1 2.292 . S
O0 C3 1.255 . S
Tb1 O0 2.292 . S
Tb1 O17 2.326 . S
Tb1 O19 2.500 . S
Tb1 O20 2.473 . S
Tb1 O23 2.324 . S
Eu2 O6 2.292 . S
Eu2 C7 2.852 . S
Eu2 O18 2.324 . S
Eu2 O22 2.326 . S
Eu2 O24 2.500 . S
Eu2 O25 2.473 . S
C3 O0 1.255 . S
C3 O4 1.247 . S
O4 C3 1.247 . S
C5 O17 1.242 . S
C5 O18 1.258 . S
O6 Eu2 2.292 . S
O6 C8 1.255 . S
C7 Eu2 2.852 . S
C7 C11 1.503 . S
C7 O24 1.273 . S
C7 O25 1.257 . S
C8 O6 1.255 . S
C8 O9 1.247 . S
O9 C8 1.247 . S
C10 O22 1.242 . S
C10 O23 1.258 . S
C11 C7 1.503 . S
C11 C12 1.379 . S
C11 C16 1.392 . S
C12 C11 1.379 . S
C12 C13 1.404 . S
C12 H26 0.929 . S
C13 C12 1.404 . S
C13 C14 1.389 . S
C14 C13 1.389 . S
C14 C15 1.399 . S
C14 H27 0.931 . S
C15 C14 1.399 . S
C15 C16 1.390 . S
C16 C11 1.392 . S
C16 C15 1.390 . S
C16 H28 0.929 . S
O17 Tb1 2.326 . S
O17 C5 1.242 . S
O18 Eu2 2.324 . S
O18 C5 1.258 . S
O19 Tb1 2.500 . S
O19 C21 1.273 . S
O20 Tb1 2.473 . S
O20 C21 1.257 . S
C21 O19 1.273 . S
C21 O20 1.257 . S
O22 Eu2 2.326 . S
O22 C10 1.242 . S
O23 Tb1 2.324 . S
O23 C10 1.258 . S
O24 Eu2 2.500 . S
O24 C7 1.273 . S
O25 Eu2 2.473 . S
O25 C7 1.257 . S
H26 C12 0.929 . S
H27 C14 0.931 . S
H28 C16 0.929 . S
O29 Tb30 2.292 . S
O29 C32 1.255 . S
Tb30 O29 2.292 . S
Tb30 O46 2.326 . S
Tb30 O48 2.500 . S
Tb30 O49 2.473 . S
Tb30 O52 2.324 . S
Eu31 O35 2.292 . S
Eu31 C36 2.852 . S
Eu31 O47 2.324 . S
Eu31 O51 2.326 . S
Eu31 O53 2.500 . S
Eu31 O54 2.473 . S
C32 O29 1.255 . S
C32 O33 1.247 . S
O33 C32 1.247 . S
C34 O46 1.242 . S
C34 O47 1.258 . S
O35 Eu31 2.292 . S
O35 C37 1.255 . S
C36 Eu31 2.852 . S
C36 C40 1.503 . S
C36 O53 1.273 . S
C36 O54 1.257 . S
C37 O35 1.255 . S
C37 O38 1.247 . S
O38 C37 1.247 . S
C39 O51 1.242 . S
C39 O52 1.258 . S
C40 C36 1.503 . S
C40 C41 1.379 . S
C40 C45 1.392 . S
C41 C40 1.379 . S
C41 C42 1.404 . S
C41 H55 0.929 . S
C42 C41 1.404 . S
C42 C43 1.389 . S
C43 C42 1.389 . S
C43 C44 1.399 . S
C43 H56 0.931 . S
C44 C43 1.399 . S
C44 C45 1.390 . S
C45 C40 1.392 . S
C45 C44 1.390 . S
C45 H57 0.929 . S
O46 Tb30 2.326 . S
O46 C34 1.242 . S
O47 Eu31 2.324 . S
O47 C34 1.258 . S
O48 Tb30 2.500 . S
O48 C50 1.273 . S
O49 Tb30 2.473 . S
O49 C50 1.257 . S
C50 O48 1.273 . S
C50 O49 1.257 . S
O51 Eu31 2.326 . S
O51 C39 1.242 . S
O52 Tb30 2.324 . S
O52 C39 1.258 . S
O53 Eu31 2.500 . S
O53 C36 1.273 . S
O54 Eu31 2.473 . S
O54 C36 1.257 . S
H55 C41 0.929 . S
H56 C43 0.931 . S
H57 C45 0.929 . S
O58 Tb59 2.292 . S
O58 C61 1.255 . S
Tb59 O58 2.292 . S
Tb59 O75 2.326 . S
Tb59 O77 2.500 . S
Tb59 O78 2.473 . S
Tb59 O81 2.324 . S
Eu60 O64 2.292 . S
Eu60 C65 2.852 . S
Eu60 O76 2.324 . S
Eu60 O80 2.326 . S
Eu60 O82 2.500 . S
Eu60 O83 2.473 . S
C61 O58 1.255 . S
C61 O62 1.247 . S
O62 C61 1.247 . S
C63 O75 1.242 . S
C63 O76 1.258 . S
O64 Eu60 2.292 . S
O64 C66 1.255 . S
C65 Eu60 2.852 . S
C65 C69 1.503 . S
C65 O82 1.273 . S
C65 O83 1.257 . S
C66 O64 1.255 . S
C66 O67 1.247 . S
O67 C66 1.247 . S
C68 O80 1.242 . S
C68 O81 1.258 . S
C69 C65 1.503 . S
C69 C70 1.379 . S
C69 C74 1.392 . S
C70 C69 1.379 . S
C70 C71 1.404 . S
C70 H84 0.929 . S
C71 C70 1.404 . S
C71 C72 1.389 . S
C72 C71 1.389 . S
C72 C73 1.399 . S
C72 H85 0.931 . S
C73 C72 1.399 . S
C73 C74 1.390 . S
C74 C69 1.392 . S
C74 C73 1.390 . S
C74 H86 0.929 . S
O75 Tb59 2.326 . S
O75 C63 1.242 . S
O76 Eu60 2.324 . S
O76 C63 1.258 . S
O77 Tb59 2.500 . S
O77 C79 1.273 . S
O78 Tb59 2.473 . S
O78 C79 1.257 . S
C79 O77 1.273 . S
C79 O78 1.257 . S
O80 Eu60 2.326 . S
O80 C68 1.242 . S
O81 Tb59 2.324 . S
O81 C68 1.258 . S
O82 Eu60 2.500 . S
O82 C65 1.273 . S
O83 Eu60 2.473 . S
O83 C65 1.257 . S
H84 C70 0.929 . S
H85 C72 0.931 . S
H86 C74 0.929 . S
O87 Tb88 2.292 . S
O87 C90 1.255 . S
Tb88 O87 2.292 . S
Tb88 O104 2.326 . S
Tb88 O106 2.500 . S
Tb88 O107 2.473 . S
Tb88 O110 2.324 . S
Eu89 O93 2.292 . S
Eu89 C94 2.852 . S
Eu89 O105 2.324 . S
Eu89 O109 2.326 . S
Eu89 O111 2.500 . S
Eu89 O112 2.473 . S
C90 O87 1.255 . S
C90 O91 1.247 . S
O91 C90 1.247 . S
C92 O104 1.242 . S
C92 O105 1.258 . S
O93 Eu89 2.292 . S
O93 C95 1.255 . S
C94 Eu89 2.852 . S
C94 C98 1.503 . S
C94 O111 1.273 . S
C94 O112 1.257 . S
C95 O93 1.255 . S
C95 O96 1.247 . S
O96 C95 1.247 . S
C97 O109 1.242 . S
C97 O110 1.258 . S
C98 C94 1.503 . S
C98 C99 1.379 . S
C98 C103 1.392 . S
C99 C98 1.379 . S
C99 C100 1.404 . S
C99 H113 0.929 . S
C100 C99 1.404 . S
C100 C101 1.389 . S
C101 C100 1.389 . S
C101 C102 1.399 . S
C101 H114 0.931 . S
C102 C101 1.399 . S
C102 C103 1.390 . S
C103 C98 1.392 . S
C103 C102 1.390 . S
C103 H115 0.929 . S
O104 Tb88 2.326 . S
O104 C92 1.242 . S
O105 Eu89 2.324 . S
O105 C92 1.258 . S
O106 Tb88 2.500 . S
O106 C108 1.273 . S
O107 Tb88 2.473 . S
O107 C108 1.257 . S
C108 O106 1.273 . S
C108 O107 1.257 . S
O109 Eu89 2.326 . S
O109 C97 1.242 . S
O110 Tb88 2.324 . S
O110 C97 1.258 . S
O111 Eu89 2.500 . S
O111 C94 1.273 . S
O112 Eu89 2.473 . S
O112 C94 1.257 . S
H113 C99 0.929 . S
H114 C101 0.931 . S
H115 C103 0.929 . S
O116 Tb117 2.292 . S
O116 C119 1.255 . S
Tb117 O116 2.292 . S
Tb117 O133 2.326 . S
Tb117 O135 2.500 . S
Tb117 O136 2.473 . S
Tb117 O139 2.324 . S
Eu118 O122 2.292 . S
Eu118 C123 2.852 . S
Eu118 O134 2.324 . S
Eu118 O138 2.326 . S
Eu118 O140 2.500 . S
Eu118 O141 2.473 . S
C119 O116 1.255 . S
C119 O120 1.247 . S
O120 C119 1.247 . S
C121 O133 1.242 . S
C121 O134 1.258 . S
O122 Eu118 2.292 . S
O122 C124 1.255 . S
C123 Eu118 2.852 . S
C123 C127 1.503 . S
C123 O140 1.273 . S
C123 O141 1.257 . S
C124 O122 1.255 . S
C124 O125 1.247 1_655 S
O125 C124 1.247 1_455 S
C126 O138 1.242 . S
C126 O139 1.258 . S
C127 C123 1.503 . S
C127 C128 1.379 . S
C127 C132 1.392 . S
C128 C127 1.379 . S
C128 C129 1.404 . S
C128 H142 0.929 . S
C129 C128 1.404 . S
C129 C130 1.389 . S
C130 C129 1.389 . S
C130 C131 1.399 . S
C130 H143 0.931 . S
C131 C130 1.399 . S
C131 C132 1.390 . S
C132 C127 1.392 . S
C132 C131 1.390 . S
C132 H144 0.929 . S
O133 Tb117 2.326 . S
O133 C121 1.242 . S
O134 Eu118 2.324 . S
O134 C121 1.258 . S
O135 Tb117 2.500 . S
O135 C137 1.273 . S
O136 Tb117 2.473 . S
O136 C137 1.257 . S
C137 O135 1.273 . S
C137 O136 1.257 . S
O138 Eu118 2.326 . S
O138 C126 1.242 . S
O139 Tb117 2.324 . S
O139 C126 1.258 . S
O140 Eu118 2.500 . S
O140 C123 1.273 . S
O141 Eu118 2.473 . S
O141 C123 1.257 . S
H142 C128 0.929 . S
H143 C130 0.931 . S
H144 C132 0.929 . S
O145 Tb146 2.292 . S
O145 C148 1.255 . S
Tb146 O145 2.292 . S
Tb146 O162 2.326 . S
Tb146 O164 2.500 . S
Tb146 O165 2.473 . S
Tb146 O168 2.324 . S
Eu147 O151 2.292 . S
Eu147 C152 2.852 . S
Eu147 O163 2.324 . S
Eu147 O167 2.326 . S
Eu147 O169 2.500 . S
Eu147 O170 2.473 . S
C148 O145 1.255 . S
C148 O149 1.247 . S
O149 C148 1.247 . S
C150 O162 1.242 . S
C150 O163 1.258 . S
O151 Eu147 2.292 . S
O151 C153 1.255 . S
C152 Eu147 2.852 . S
C152 C156 1.503 . S
C152 O169 1.273 . S
C152 O170 1.257 . S
C153 O151 1.255 . S
C153 O154 1.247 1_545 S
O154 C153 1.247 1_565 S
C155 O167 1.242 . S
C155 O168 1.258 . S
C156 C152 1.503 . S
C156 C157 1.379 . S
C156 C161 1.392 . S
C157 C156 1.379 . S
C157 C158 1.404 . S
C157 H171 0.929 . S
C158 C157 1.404 . S
C158 C159 1.389 . S
C159 C158 1.389 . S
C159 C160 1.399 . S
C159 H172 0.931 . S
C160 C159 1.399 . S
C160 C161 1.390 . S
C161 C156 1.392 . S
C161 C160 1.390 . S
C161 H173 0.929 . S
O162 Tb146 2.326 . S
O162 C150 1.242 . S
O163 Eu147 2.324 . S
O163 C150 1.258 . S
O164 Tb146 2.500 . S
O164 C166 1.273 . S
O165 Tb146 2.473 . S
O165 C166 1.257 . S
C166 O164 1.273 . S
C166 O165 1.257 . S
O167 Eu147 2.326 . S
O167 C155 1.242 . S
O168 Tb146 2.324 . S
O168 C155 1.258 . S
O169 Eu147 2.500 . S
O169 C152 1.273 . S
O170 Eu147 2.473 . S
O170 C152 1.257 . S
H171 C157 0.929 . S
H172 C159 0.931 . S
H173 C161 0.929 . S
O174 Tb175 2.292 . S
O174 C177 1.255 . S
Tb175 O174 2.292 . S
Tb175 O191 2.326 . S
Tb175 O193 2.500 . S
Tb175 O194 2.473 . S
Tb175 O197 2.324 . S
Eu176 O180 2.292 . S
Eu176 C181 2.852 . S
Eu176 O192 2.324 . S
Eu176 O196 2.326 . S
Eu176 O198 2.500 . S
Eu176 O199 2.473 . S
C177 O174 1.255 . S
C177 O178 1.247 . S
O178 C177 1.247 . S
C179 O191 1.242 . S
C179 O192 1.258 . S
O180 Eu176 2.292 . S
O180 C182 1.255 . S
C181 Eu176 2.852 . S
C181 C185 1.503 . S
C181 O198 1.273 . S
C181 O199 1.257 . S
C182 O180 1.255 . S
C182 O183 1.247 1_455 S
O183 C182 1.247 1_655 S
C184 O196 1.242 . S
C184 O197 1.258 . S
C185 C181 1.503 . S
C185 C186 1.379 . S
C185 C190 1.392 . S
C186 C185 1.379 . S
C186 C187 1.404 . S
C186 H200 0.929 . S
C187 C186 1.404 . S
C187 C188 1.389 . S
C188 C187 1.389 . S
C188 C189 1.399 . S
C188 H201 0.931 . S
C189 C188 1.399 . S
C189 C190 1.390 . S
C190 C185 1.392 . S
C190 C189 1.390 . S
C190 H202 0.929 . S
O191 Tb175 2.326 . S
O191 C179 1.242 . S
O192 Eu176 2.324 . S
O192 C179 1.258 . S
O193 Tb175 2.500 . S
O193 C195 1.273 . S
O194 Tb175 2.473 . S
O194 C195 1.257 . S
C195 O193 1.273 . S
C195 O194 1.257 . S
O196 Eu176 2.326 . S
O196 C184 1.242 . S
O197 Tb175 2.324 . S
O197 C184 1.258 . S
O198 Eu176 2.500 . S
O198 C181 1.273 . S
O199 Eu176 2.473 . S
O199 C181 1.257 . S
H200 C186 0.929 . S
H201 C188 0.931 . S
H202 C190 0.929 . S
O203 Tb204 2.292 . S
O203 C206 1.255 . S
Tb204 O203 2.292 . S
Tb204 O220 2.326 . S
Tb204 O222 2.500 . S
Tb204 O223 2.473 . S
Tb204 O226 2.324 . S
Eu205 O209 2.292 . S
Eu205 C210 2.852 . S
Eu205 O221 2.324 . S
Eu205 O225 2.326 . S
Eu205 O227 2.500 . S
Eu205 O228 2.473 . S
C206 O203 1.255 . S
C206 O207 1.247 . S
O207 C206 1.247 . S
C208 O220 1.242 . S
C208 O221 1.258 . S
O209 Eu205 2.292 . S
O209 C211 1.255 . S
C210 Eu205 2.852 . S
C210 C214 1.503 . S
C210 O227 1.273 . S
C210 O228 1.257 . S
C211 O209 1.255 . S
C211 O212 1.247 1_565 S
O212 C211 1.247 1_545 S
C213 O225 1.242 . S
C213 O226 1.258 . S
C214 C210 1.503 . S
C214 C215 1.379 . S
C214 C219 1.392 . S
C215 C214 1.379 . S
C215 C216 1.404 . S
C215 H229 0.929 . S
C216 C215 1.404 . S
C216 C217 1.389 . S
C217 C216 1.389 . S
C217 C218 1.399 . S
C217 H230 0.931 . S
C218 C217 1.399 . S
C218 C219 1.390 . S
C219 C214 1.392 . S
C219 C218 1.390 . S
C219 H231 0.929 . S
O220 Tb204 2.326 . S
O220 C208 1.242 . S
O221 Eu205 2.324 . S
O221 C208 1.258 . S
O222 Tb204 2.500 . S
O222 C224 1.273 . S
O223 Tb204 2.473 . S
O223 C224 1.257 . S
C224 O222 1.273 . S
C224 O223 1.257 . S
O225 Eu205 2.326 . S
O225 C213 1.242 . S
O226 Tb204 2.324 . S
O226 C213 1.258 . S
O227 Eu205 2.500 . S
O227 C210 1.273 . S
O228 Eu205 2.473 . S
O228 C210 1.257 . S
H229 C215 0.929 . S
H230 C217 0.931 . S
H231 C219 0.929 . S
C232 C233 1.363 . S
C232 C238 1.379 . S
C232 N240 1.356 . S
C233 C232 1.363 . S
C233 C239 1.363 . S
C234 C235 1.363 . S
C234 C239 1.379 . S
C234 N241 1.356 . S
C235 C234 1.363 . S
C235 C238 1.363 . S
N236 C238 1.356 1_556 S
N236 H248 0.984 . S
N236 H249 0.985 . S
N237 C239 1.356 . S
N237 H242 0.984 . S
N237 H243 0.985 . S
C238 C232 1.379 . S
C238 C235 1.363 . S
C238 N236 1.356 1_554 S
C239 C233 1.363 . S
C239 C234 1.379 . S
C239 N237 1.356 . S
N240 C232 1.356 . S
N240 H246 0.984 . S
N240 H247 0.984 . S
N241 C234 1.356 . S
N241 H244 0.984 1_554 S
N241 H245 0.985 . S
H242 N237 0.984 . S
H243 N237 0.985 . S
H244 N241 0.984 1_556 S
H245 N241 0.985 . S
H246 N240 0.984 . S
H247 N240 0.984 . S
H248 N236 0.984 . S
H249 N236 0.985 . S
C250 C251 1.363 . S
C250 C256 1.379 . S
C250 N258 1.356 . S
C251 C250 1.363 . S
C251 C257 1.363 . S
C252 C253 1.363 . S
C252 C257 1.379 . S
C252 N259 1.356 . S
C253 C252 1.363 . S
C253 C256 1.363 . S
N254 C256 1.356 . S
N254 H266 0.984 . S
N254 H267 0.985 . S
N255 C257 1.356 1_554 S
N255 H260 0.984 . S
N255 H261 0.985 . S
C256 C250 1.379 . S
C256 C253 1.363 . S
C256 N254 1.356 . S
C257 C251 1.363 . S
C257 C252 1.379 . S
C257 N255 1.356 1_556 S
N258 C250 1.356 . S
N258 H264 0.984 . S
N258 H265 0.984 1_556 S
N259 C252 1.356 . S
N259 H262 0.984 . S
N259 H263 0.985 . S
H260 N255 0.984 . S
H261 N255 0.985 . S
H262 N259 0.984 . S
H263 N259 0.985 . S
H264 N258 0.984 . S
H265 N258 0.984 1_554 S
H266 N254 0.984 . S
H267 N254 0.985 . S
C268 C269 1.363 . S
C268 C274 1.379 . S
C268 N276 1.356 . S
C269 C268 1.363 . S
C269 C275 1.363 . S
C270 C271 1.363 . S
C270 C275 1.379 . S
C270 N277 1.356 . S
C271 C270 1.363 . S
C271 C274 1.363 . S
N272 C274 1.356 . S
N272 H284 0.984 . S
N272 H285 0.985 . S
N273 C275 1.356 1_556 S
N273 H278 0.984 . S
N273 H279 0.985 . S
C274 C268 1.379 . S
C274 C271 1.363 . S
C274 N272 1.356 . S
C275 C269 1.363 . S
C275 C270 1.379 . S
C275 N273 1.356 1_554 S
N276 C268 1.356 . S
N276 H282 0.984 . S
N276 H283 0.984 1_554 S
N277 C270 1.356 . S
N277 H280 0.984 . S
N277 H281 0.985 . S
H278 N273 0.984 . S
H279 N273 0.985 . S
H280 N277 0.984 . S
H281 N277 0.985 . S
H282 N276 0.984 . S
H283 N276 0.984 1_556 S
H284 N272 0.984 . S
H285 N272 0.985 . S
C286 C287 1.363 . S
C286 C292 1.379 . S
C286 N294 1.356 . S
C287 C286 1.363 . S
C287 C293 1.363 . S
C288 C289 1.363 . S
C288 C293 1.379 . S
C288 N295 1.356 1_556 S
C289 C288 1.363 . S
C289 C292 1.363 . S
N290 C292 1.361 . S
N290 H302 0.986 . S
N290 H303 0.978 1_556 S
N291 C293 1.356 . S
N291 H296 0.984 . S
N291 H297 0.985 . S
C292 C286 1.379 . S
C292 C289 1.363 . S
C292 N290 1.361 . S
C293 C287 1.363 . S
C293 C288 1.379 . S
C293 N291 1.356 . S
N294 C286 1.356 . S
N294 H300 0.984 . S
N294 H301 0.984 . S
N295 C288 1.356 1_554 S
N295 H298 0.984 . S
N295 H299 0.985 . S
H296 N291 0.984 . S
H297 N291 0.985 . S
H298 N295 0.984 . S
H299 N295 0.985 . S
H300 N294 0.984 . S
H301 N294 0.984 . S
H302 N290 0.986 . S
H303 N290 0.978 1_554 S
C304 C305 1.363 . S
C304 C310 1.379 . S
C304 N312 1.356 . S
C305 C304 1.363 . S
C305 C311 1.363 . S
C306 C307 1.363 . S
C306 C311 1.379 . S
C306 N313 1.356 . S
C307 C306 1.363 . S
C307 C310 1.363 . S
N308 C310 1.356 . S
N308 H320 0.984 . S
N308 H321 0.985 . S
N309 C311 1.356 . S
N309 H314 0.984 . S
N309 H315 0.985 . S
C310 C304 1.379 . S
C310 C307 1.363 . S
C310 N308 1.356 . S
C311 C305 1.363 . S
C311 C306 1.379 . S
C311 N309 1.356 . S
N312 C304 1.356 . S
N312 H318 0.984 . S
N312 H319 0.984 . S
N313 C306 1.356 . S
N313 H316 0.984 . S
N313 H317 0.985 . S
H314 N309 0.984 . S
H315 N309 0.985 . S
H316 N313 0.984 . S
H317 N313 0.985 . S
H318 N312 0.984 . S
H319 N312 0.984 . S
H320 N308 0.984 . S
H321 N308 0.985 . S
C322 C323 1.363 . S
C322 C328 1.379 . S
C322 N330 1.356 . S
C323 C322 1.363 . S
C323 C329 1.363 . S
C324 C325 1.363 . S
C324 C329 1.379 . S
C324 N331 1.356 . S
C325 C324 1.363 . S
C325 C328 1.363 . S
N326 C328 1.356 . S
N326 H338 0.984 . S
N326 H339 0.985 . S
N327 C329 1.356 . S
N327 H332 0.984 . S
N327 H333 0.985 . S
C328 C322 1.379 . S
C328 C325 1.363 . S
C328 N326 1.356 . S
C329 C323 1.363 . S
C329 C324 1.379 . S
C329 N327 1.356 . S
N330 C322 1.356 . S
N330 H336 0.984 . S
N330 H337 0.984 . S
N331 C324 1.356 . S
N331 H334 0.984 . S
N331 H335 0.985 . S
H332 N327 0.984 . S
H333 N327 0.985 . S
H334 N331 0.984 . S
H335 N331 0.985 . S
H336 N330 0.984 . S
H337 N330 0.984 . S
H338 N326 0.984 . S
H339 N326 0.985 . S
C340 C341 1.363 . S
C340 C346 1.379 . S
C340 N348 1.356 . S
C341 C340 1.363 . S
C341 C347 1.363 . S
C342 C343 1.363 . S
C342 C347 1.379 . S
C342 N349 1.356 . S
C343 C342 1.363 . S
C343 C346 1.363 . S
N344 C346 1.356 . S
N344 H356 0.984 . S
N344 H357 0.985 . S
N345 C347 1.356 . S
N345 H350 0.984 . S
N345 H351 0.985 . S
C346 C340 1.379 . S
C346 C343 1.363 . S
C346 N344 1.356 . S
C347 C341 1.363 . S
C347 C342 1.379 . S
C347 N345 1.356 . S
N348 C340 1.356 . S
N348 H354 0.984 . S
N348 H355 0.984 . S
N349 C342 1.356 . S
N349 H352 0.984 . S
N349 H353 0.985 . S
H350 N345 0.984 . S
H351 N345 0.985 . S
H352 N349 0.984 . S
H353 N349 0.985 . S
H354 N348 0.984 . S
H355 N348 0.984 . S
H356 N344 0.984 . S
H357 N344 0.985 . S
C358 C359 1.363 . S
C358 C364 1.379 . S
C358 N366 1.356 . S
C359 C358 1.363 . S
C359 C365 1.363 . S
C360 C361 1.363 . S
C360 C365 1.379 . S
C360 N367 1.356 . S
C361 C360 1.363 . S
C361 C364 1.363 . S
N362 C364 1.356 . S
N362 H374 0.984 . S
N362 H375 0.985 . S
N363 C365 1.356 . S
N363 H368 0.984 . S
N363 H369 0.985 . S
C364 C358 1.379 . S
C364 C361 1.363 . S
C364 N362 1.356 . S
C365 C359 1.363 . S
C365 C360 1.379 . S
C365 N363 1.356 . S
N366 C358 1.356 . S
N366 H372 0.984 . S
N366 H373 0.984 . S
N367 C360 1.356 . S
N367 H370 0.984 . S
N367 H371 0.985 . S
H368 N363 0.984 . S
H369 N363 0.985 . S
H370 N367 0.984 . S
H371 N367 0.985 . S
H372 N366 0.984 . S
H373 N366 0.984 . S
H374 N362 0.984 . S
H375 N362 0.985 . S
C376 C377 1.363 . S
C376 C382 1.379 1_545 S
C376 N384 1.356 . S
C377 C376 1.363 . S
C377 C383 1.363 . S
C378 C379 1.363 . S
C378 C383 1.379 1_565 S
C378 N385 1.356 . S
C379 C378 1.363 . S
C379 C382 1.363 . S
N380 C382 1.356 . S
N380 H392 0.984 . S
N380 H393 0.985 . S
N381 C383 1.356 . S
N381 H386 0.984 . S
N381 H387 0.985 . S
C382 C376 1.379 1_565 S
C382 C379 1.363 . S
C382 N380 1.356 . S
C383 C377 1.363 . S
C383 C378 1.379 1_545 S
C383 N381 1.356 . S
N384 C376 1.356 . S
N384 H390 0.984 . S
N384 H391 0.984 . S
N385 C378 1.356 . S
N385 H388 0.984 . S
N385 H389 0.985 . S
H386 N381 0.984 . S
H387 N381 0.985 . S
H388 N385 0.984 . S
H389 N385 0.985 . S
H390 N384 0.984 . S
H391 N384 0.984 . S
H392 N380 0.984 . S
H393 N380 0.985 . S
C394 C395 1.363 . S
C394 C400 1.379 1_655 S
C394 N402 1.356 . S
C395 C394 1.363 . S
C395 C401 1.363 . S
C396 C397 1.363 . S
C396 C401 1.379 1_455 S
C396 N403 1.356 . S
C397 C396 1.363 . S
C397 C400 1.363 . S
N398 C400 1.356 . S
N398 H410 0.984 . S
N398 H411 0.985 . S
N399 C401 1.356 . S
N399 H404 0.984 . S
N399 H405 0.985 . S
C400 C394 1.379 1_455 S
C400 C397 1.363 . S
C400 N398 1.356 . S
C401 C395 1.363 . S
C401 C396 1.379 1_655 S
C401 N399 1.356 . S
N402 C394 1.356 . S
N402 H408 0.984 . S
N402 H409 0.984 . S
N403 C396 1.356 . S
N403 H406 0.984 . S
N403 H407 0.985 . S
H404 N399 0.984 . S
H405 N399 0.985 . S
H406 N403 0.984 . S
H407 N403 0.985 . S
H408 N402 0.984 . S
H409 N402 0.984 . S
H410 N398 0.984 . S
H411 N398 0.985 . S
C412 C413 1.363 . S
C412 C418 1.379 . S
C412 N420 1.356 . S
C413 C412 1.363 . S
C413 C419 1.363 1_655 S
C414 C415 1.363 . S
C414 C419 1.379 . S
C414 N421 1.356 . S
C415 C414 1.363 . S
C415 C418 1.363 1_455 S
N416 C418 1.356 . S
N416 H428 0.984 . S
N416 H429 0.985 . S
N417 C419 1.356 . S
N417 H422 0.984 . S
N417 H423 0.985 . S
C418 C412 1.379 . S
C418 C415 1.363 1_655 S
C418 N416 1.356 . S
C419 C413 1.363 1_455 S
C419 C414 1.379 . S
C419 N417 1.356 . S
N420 C412 1.356 . S
N420 H426 0.984 . S
N420 H427 0.984 . S
N421 C414 1.356 . S
N421 H424 0.984 . S
N421 H425 0.985 . S
H422 N417 0.984 . S
H423 N417 0.985 . S
H424 N421 0.984 . S
H425 N421 0.985 . S
H426 N420 0.984 . S
H427 N420 0.984 . S
H428 N416 0.984 . S
H429 N416 0.985 . S
C430 C431 1.363 . S
C430 C436 1.379 . S
C430 N438 1.356 . S
C431 C430 1.363 . S
C431 C437 1.363 1_545 S
C432 C433 1.363 . S
C432 C437 1.379 . S
C432 N439 1.356 . S
C433 C432 1.363 . S
C433 C436 1.363 1_565 S
N434 C436 1.356 . S
N434 H446 0.984 . S
N434 H447 0.985 . S
N435 C437 1.356 . S
N435 H440 0.984 . S
N435 H441 0.985 . S
C436 C430 1.379 . S
C436 C433 1.363 1_545 S
C436 N434 1.356 . S
C437 C431 1.363 1_565 S
C437 C432 1.379 . S
C437 N435 1.356 . S
N438 C430 1.356 . S
N438 H444 0.984 . S
N438 H445 0.984 . S
N439 C432 1.356 . S
N439 H442 0.984 . S
N439 H443 0.985 . S
H440 N435 0.984 . S
H441 N435 0.985 . S
H442 N439 0.984 . S
H443 N439 0.985 . S
H444 N438 0.984 . S
H445 N438 0.984 . S
H446 N434 0.984 . S
H447 N434 0.985 . S
C448 C449 1.363 . S
C448 C454 1.379 . S
C448 N456 1.356 . S
C449 C448 1.363 . S
C449 C455 1.363 . S
C450 C451 1.363 . S
C450 C455 1.379 . S
C450 N457 1.356 . S
C451 C450 1.363 . S
C451 C454 1.363 . S
N452 C454 1.356 . S
N452 H464 0.984 . S
N452 H465 0.985 . S
N453 C455 1.356 . S
N453 H458 0.984 . S
N453 H459 0.985 . S
C454 C448 1.379 . S
C454 C451 1.363 . S
C454 N452 1.356 . S
C455 C449 1.363 . S
C455 C450 1.379 . S
C455 N453 1.356 . S
N456 C448 1.356 . S
N456 H462 0.984 . S
N456 H463 0.984 . S
N457 C450 1.356 . S
N457 H460 0.984 . S
N457 H461 0.985 . S
H458 N453 0.984 . S
H459 N453 0.985 . S
H460 N457 0.984 . S
H461 N457 0.985 . S
H462 N456 0.984 . S
H463 N456 0.984 . S
H464 N452 0.984 . S
H465 N452 0.985 . S
C466 C467 1.363 . S
C466 C472 1.379 . S
C466 N474 1.356 . S
C467 C466 1.363 . S
C467 C473 1.363 . S
C468 C469 1.363 . S
C468 C473 1.379 . S
C468 N475 1.356 . S
C469 C468 1.363 . S
C469 C472 1.363 . S
N470 C472 1.356 . S
N470 H482 0.984 . S
N470 H483 0.985 . S
N471 C473 1.356 . S
N471 H476 0.984 . S
N471 H477 0.985 . S
C472 C466 1.379 . S
C472 C469 1.363 . S
C472 N470 1.356 . S
C473 C467 1.363 . S
C473 C468 1.379 . S
C473 N471 1.356 . S
N474 C466 1.356 . S
N474 H480 0.984 . S
N474 H481 0.984 . S
N475 C468 1.356 . S
N475 H478 0.984 . S
N475 H479 0.985 . S
H476 N471 0.984 . S
H477 N471 0.985 . S
H478 N475 0.984 . S
H479 N475 0.985 . S
H480 N474 0.984 . S
H481 N474 0.984 . S
H482 N470 0.984 . S
H483 N470 0.985 . S
C484 C485 1.363 . S
C484 C490 1.379 . S
C484 N492 1.356 . S
C485 C484 1.363 . S
C485 C491 1.363 . S
C486 C487 1.363 . S
C486 C491 1.379 . S
C486 N493 1.356 . S
C487 C486 1.363 . S
C487 C490 1.363 . S
N488 C490 1.356 . S
N488 H500 0.984 . S
N488 H501 0.985 . S
N489 C491 1.356 . S
N489 H494 0.984 . S
N489 H495 0.985 . S
C490 C484 1.379 . S
C490 C487 1.363 . S
C490 N488 1.356 . S
C491 C485 1.363 . S
C491 C486 1.379 . S
C491 N489 1.356 . S
N492 C484 1.356 . S
N492 H498 0.984 . S
N492 H499 0.984 . S
N493 C486 1.356 . S
N493 H496 0.984 . S
N493 H497 0.985 . S
H494 N489 0.984 . S
H495 N489 0.985 . S
H496 N493 0.984 . S
H497 N493 0.985 . S
H498 N492 0.984 . S
H499 N492 0.984 . S
H500 N488 0.984 . S
H501 N488 0.985 . S
C502 C503 1.363 . S
C502 C508 1.379 . S
C502 N510 1.356 . S
C503 C502 1.363 . S
C503 C509 1.363 . S
C504 C505 1.363 . S
C504 C509 1.379 . S
C504 N511 1.356 . S
C505 C504 1.363 . S
C505 C508 1.363 . S
N506 C508 1.356 . S
N506 H518 0.984 . S
N506 H519 0.985 . S
N507 C509 1.356 . S
N507 H512 0.984 . S
N507 H513 0.985 . S
C508 C502 1.379 . S
C508 C505 1.363 . S
C508 N506 1.356 . S
C509 C503 1.363 . S
C509 C504 1.379 . S
C509 N507 1.356 . S
N510 C502 1.356 . S
N510 H516 0.984 . S
N510 H517 0.984 . S
N511 C504 1.356 . S
N511 H514 0.984 . S
N511 H515 0.985 . S
H512 N507 0.984 . S
H513 N507 0.985 . S
H514 N511 0.984 . S
H515 N511 0.985 . S
H516 N510 0.984 . S
H517 N510 0.984 . S
H518 N506 0.984 . S
H519 N506 0.985 . S
C520 C521 1.363 . S
C520 C526 1.379 . S
C520 N528 1.356 1_455 S
C521 C520 1.363 . S
C521 C527 1.363 . S
C522 C523 1.363 . S
C522 C527 1.379 . S
C522 N529 1.356 . S
C523 C522 1.363 . S
C523 C526 1.363 . S
N524 C526 1.356 . S
N524 H536 0.984 . S
N524 H537 0.985 . S
N525 C527 1.356 . S
N525 H530 0.984 1_455 S
N525 H531 0.985 . S
C526 C520 1.379 . S
C526 C523 1.363 . S
C526 N524 1.356 . S
C527 C521 1.363 . S
C527 C522 1.379 . S
C527 N525 1.356 . S
N528 C520 1.356 1_655 S
N528 H534 0.984 . S
N528 H535 0.984 . S
N529 C522 1.356 . S
N529 H532 0.984 . S
N529 H533 0.985 . S
H530 N525 0.984 1_655 S
H531 N525 0.985 . S
H532 N529 0.984 . S
H533 N529 0.985 . S
H534 N528 0.984 . S
H535 N528 0.984 . S
H536 N524 0.984 . S
H537 N524 0.985 . S
C538 C539 1.363 . S
C538 C544 1.379 . S
C538 N546 1.356 . S
C539 C538 1.363 . S
C539 C545 1.363 . S
C540 C541 1.363 . S
C540 C545 1.379 . S
C540 N547 1.356 . S
C541 C540 1.363 . S
C541 C544 1.363 . S
N542 C544 1.356 . S
N542 H554 0.984 . S
N542 H555 0.985 . S
N543 C545 1.356 1_545 S
N543 H548 0.984 . S
N543 H549 0.985 . S
C544 C538 1.379 . S
C544 C541 1.363 . S
C544 N542 1.356 . S
C545 C539 1.363 . S
C545 C540 1.379 . S
C545 N543 1.356 1_565 S
N546 C538 1.356 . S
N546 H552 0.984 . S
N546 H553 0.984 1_565 S
N547 C540 1.356 . S
N547 H550 0.984 . S
N547 H551 0.985 . S
H548 N543 0.984 . S
H549 N543 0.985 . S
H550 N547 0.984 . S
H551 N547 0.985 . S
H552 N546 0.984 . S
H553 N546 0.984 1_545 S
H554 N542 0.984 . S
H555 N542 0.985 . S
C556 C557 1.363 . S
C556 C562 1.379 . S
C556 N564 1.356 . S
C557 C556 1.363 . S
C557 C563 1.363 . S
C558 C559 1.363 . S
C558 C563 1.379 . S
C558 N565 1.356 . S
C559 C558 1.363 . S
C559 C562 1.363 . S
N560 C562 1.356 1_455 S
N560 H572 0.984 . S
N560 H573 0.985 . S
N561 C563 1.356 . S
N561 H566 0.984 . S
N561 H567 0.985 . S
C562 C556 1.379 . S
C562 C559 1.363 . S
C562 N560 1.356 1_655 S
C563 C557 1.363 . S
C563 C558 1.379 . S
C563 N561 1.356 . S
N564 C556 1.356 . S
N564 H570 0.984 . S
N564 H571 0.984 . S
N565 C558 1.356 . S
N565 H568 0.984 1_655 S
N565 H569 0.985 . S
H566 N561 0.984 . S
H567 N561 0.985 . S
H568 N565 0.984 1_455 S
H569 N565 0.985 . S
H570 N564 0.984 . S
H571 N564 0.984 . S
H572 N560 0.984 . S
H573 N560 0.985 . S
C574 C575 1.363 . S
C574 C580 1.379 . S
C574 N582 1.356 . S
C575 C574 1.363 . S
C575 C581 1.363 . S
C576 C577 1.363 . S
C576 C581 1.379 . S
C576 N583 1.356 1_545 S
C577 C576 1.363 . S
C577 C580 1.363 . S
N578 C580 1.356 . S
N578 H590 0.984 . S
N578 H591 0.985 1_545 S
N579 C581 1.356 . S
N579 H584 0.984 . S
N579 H585 0.985 . S
C580 C574 1.379 . S
C580 C577 1.363 . S
C580 N578 1.356 . S
C581 C575 1.363 . S
C581 C576 1.379 . S
C581 N579 1.356 . S
N582 C574 1.356 . S
N582 H588 0.984 . S
N582 H589 0.984 . S
N583 C576 1.356 1_565 S
N583 H586 0.984 . S
N583 H587 0.985 . S
H584 N579 0.984 . S
H585 N579 0.985 . S
H586 N583 0.984 . S
H587 N583 0.985 . S
H588 N582 0.984 . S
H589 N582 0.984 . S
H590 N578 0.984 . S
H591 N578 0.985 1_565 S
C592 C593 1.363 . S
C592 C598 1.379 . S
C592 N600 1.356 . S
C593 C592 1.363 . S
C593 C599 1.363 . S
C594 C595 1.363 . S
C594 C599 1.379 . S
C594 N601 1.356 . S
C595 C594 1.363 . S
C595 C598 1.363 . S
N596 C598 1.356 . S
N596 H608 0.984 . S
N596 H609 0.985 . S
N597 C599 1.356 . S
N597 H602 0.984 . S
N597 H603 0.985 . S
C598 C592 1.379 . S
C598 C595 1.363 . S
C598 N596 1.356 . S
C599 C593 1.363 . S
C599 C594 1.379 . S
C599 N597 1.356 . S
N600 C592 1.356 . S
N600 H606 0.984 . S
N600 H607 0.984 . S
N601 C594 1.356 . S
N601 H604 0.984 . S
N601 H605 0.985 . S
H602 N597 0.984 . S
H603 N597 0.985 . S
H604 N601 0.984 . S
H605 N601 0.985 . S
H606 N600 0.984 . S
H607 N600 0.984 . S
H608 N596 0.984 . S
H609 N596 0.985 . S
C610 C611 1.363 . S
C610 C616 1.379 . S
C610 N618 1.356 . S
C611 C610 1.363 . S
C611 C617 1.363 . S
C612 C613 1.363 . S
C612 C617 1.379 . S
C612 N619 1.356 . S
C613 C612 1.363 . S
C613 C616 1.363 . S
N614 C616 1.356 . S
N614 H626 0.984 . S
N614 H627 0.985 . S
N615 C617 1.356 . S
N615 H620 0.984 . S
N615 H621 0.985 . S
C616 C610 1.379 . S
C616 C613 1.363 . S
C616 N614 1.356 . S
C617 C611 1.363 . S
C617 C612 1.379 . S
C617 N615 1.356 . S
N618 C610 1.356 . S
N618 H624 0.984 . S
N618 H625 0.984 . S
N619 C612 1.356 . S
N619 H622 0.984 . S
N619 H623 0.985 . S
H620 N615 0.984 . S
H621 N615 0.985 . S
H622 N619 0.984 . S
H623 N619 0.985 . S
H624 N618 0.984 . S
H625 N618 0.984 . S
H626 N614 0.984 . S
H627 N614 0.985 . S
C628 C629 1.363 . S
C628 C634 1.379 . S
C628 N636 1.356 . S
C629 C628 1.363 . S
C629 C635 1.363 . S
C630 C631 1.363 . S
C630 C635 1.379 . S
C630 N637 1.356 . S
C631 C630 1.363 . S
C631 C634 1.363 . S
N632 C634 1.356 . S
N632 H644 0.984 . S
N632 H645 0.985 . S
N633 C635 1.356 . S
N633 H638 0.984 . S
N633 H639 0.985 . S
C634 C628 1.379 . S
C634 C631 1.363 . S
C634 N632 1.356 . S
C635 C629 1.363 . S
C635 C630 1.379 . S
C635 N633 1.356 . S
N636 C628 1.356 . S
N636 H642 0.984 . S
N636 H643 0.984 . S
N637 C630 1.356 . S
N637 H640 0.984 . S
N637 H641 0.985 . S
H638 N633 0.984 . S
H639 N633 0.985 . S
H640 N637 0.984 . S
H641 N637 0.985 . S
H642 N636 0.984 . S
H643 N636 0.984 . S
H644 N632 0.984 . S
H645 N632 0.985 . S
C646 C647 1.363 . S
C646 C652 1.379 . S
C646 N654 1.356 . S
C647 C646 1.363 . S
C647 C653 1.363 . S
C648 C649 1.363 . S
C648 C653 1.379 . S
C648 N655 1.356 . S
C649 C648 1.363 . S
C649 C652 1.363 . S
N650 C652 1.356 . S
N650 H662 0.984 . S
N650 H663 0.985 . S
N651 C653 1.356 . S
N651 H656 0.984 . S
N651 H657 0.985 . S
C652 C646 1.379 . S
C652 C649 1.363 . S
C652 N650 1.356 . S
C653 C647 1.363 . S
C653 C648 1.379 . S
C653 N651 1.356 . S
N654 C646 1.356 . S
N654 H660 0.984 . S
N654 H661 0.984 . S
N655 C648 1.356 . S
N655 H658 0.984 . S
N655 H659 0.985 . S
H656 N651 0.984 . S
H657 N651 0.985 . S
H658 N655 0.984 . S
H659 N655 0.985 . S
H660 N654 0.984 . S
H661 N654 0.984 . S
H662 N650 0.984 . S
H663 N650 0.985 . S
C664 C665 1.363 1_545 S
C664 C670 1.379 1_556 S
C664 N672 1.356 . S
C665 C664 1.363 1_565 S
C665 C671 1.363 1_556 S
C666 C667 1.363 . S
C666 C671 1.379 1_545 S
C666 N673 1.356 . S
C667 C666 1.363 . S
C667 C670 1.363 . S
N668 C670 1.356 . S
N668 H680 0.984 1_554 S
N668 H681 0.985 . S
N669 C671 1.356 . S
N669 H674 0.984 1_554 S
N669 H675 0.985 . S
C670 C664 1.379 1_554 S
C670 C667 1.363 . S
C670 N668 1.356 . S
C671 C665 1.363 1_554 S
C671 C666 1.379 1_565 S
C671 N669 1.356 . S
N672 C664 1.356 . S
N672 H678 0.984 . S
N672 H679 0.984 . S
N673 C666 1.356 . S
N673 H676 0.984 . S
N673 H677 0.985 1_545 S
H674 N669 0.984 1_556 S
H675 N669 0.985 . S
H676 N673 0.984 . S
H677 N673 0.985 1_565 S
H678 N672 0.984 . S
H679 N672 0.984 . S
H680 N668 0.984 1_556 S
H681 N668 0.985 . S
C682 C683 1.363 1_556 S
C682 C688 1.379 1_655 S
C682 N690 1.356 . S
C683 C682 1.363 1_554 S
C683 C689 1.363 1_655 S
C684 C685 1.363 . S
C684 C689 1.379 1_556 S
C684 N691 1.356 . S
C685 C684 1.363 . S
C685 C688 1.363 . S
N686 C688 1.356 . S
N686 H698 0.984 . S
N686 H699 0.985 . S
N687 C689 1.356 . S
N687 H692 0.984 1_455 S
N687 H693 0.985 . S
C688 C682 1.379 1_455 S
C688 C685 1.363 . S
C688 N686 1.356 . S
C689 C683 1.363 1_455 S
C689 C684 1.379 1_554 S
C689 N687 1.356 . S
N690 C682 1.356 . S
N690 H696 0.984 . S
N690 H697 0.984 1_556 S
N691 C684 1.356 . S
N691 H694 0.984 . S
N691 H695 0.985 1_556 S
H692 N687 0.984 1_655 S
H693 N687 0.985 . S
H694 N691 0.984 . S
H695 N691 0.985 1_554 S
H696 N690 0.984 . S
H697 N690 0.984 1_554 S
H698 N686 0.984 . S
H699 N686 0.985 . S
C700 C701 1.363 . S
C700 C706 1.379 1_565 S
C700 N708 1.356 . S
C701 C700 1.363 . S
C701 C707 1.363 . S
C702 C703 1.363 1_565 S
C702 C707 1.379 1_556 S
C702 N709 1.356 . S
C703 C702 1.363 1_545 S
C703 C706 1.363 1_556 S
N704 C706 1.356 . S
N704 H716 0.984 . S
N704 H717 0.985 1_554 S
N705 C707 1.356 . S
N705 H710 0.984 . S
N705 H711 0.977 1_554 S
C706 C700 1.379 1_545 S
C706 C703 1.363 1_554 S
C706 N704 1.356 . S
C707 C701 1.363 . S
C707 C702 1.379 1_554 S
C707 N705 1.356 . S
N708 C700 1.356 . S
N708 H714 0.984 . S
N708 H715 0.984 . S
N709 C702 1.356 . S
N709 H712 0.984 1_565 S
N709 H713 0.985 . S
H710 N705 0.984 . S
H711 N705 0.977 1_556 S
H712 N709 0.984 1_545 S
H713 N709 0.985 . S
H714 N708 0.984 . S
H715 N708 0.984 . S
H716 N704 0.984 . S
H717 N704 0.985 1_556 S
C718 C719 1.363 . S
C718 C724 1.379 1_556 S
C718 N726 1.356 . S
C719 C718 1.363 . S
C719 C725 1.363 . S
C720 C721 1.363 1_556 S
C720 C725 1.379 1_455 S
C720 N727 1.356 . S
C721 C720 1.363 1_554 S
C721 C724 1.363 1_455 S
N722 C724 1.356 . S
N722 H734 0.984 . S
N722 H735 0.985 . S
N723 C725 1.356 . S
N723 H728 0.984 . S
N723 H729 0.985 1_655 S
C724 C718 1.379 1_554 S
C724 C721 1.363 1_655 S
C724 N722 1.356 . S
C725 C719 1.363 . S
C725 C720 1.379 1_655 S
C725 N723 1.356 . S
N726 C718 1.356 . S
N726 H732 0.984 1_556 S
N726 H733 0.984 . S
N727 C720 1.356 . S
N727 H730 0.984 1_556 S
N727 H731 0.985 . S
H728 N723 0.984 . S
H729 N723 0.985 1_455 S
H730 N727 0.984 1_554 S
H731 N727 0.985 . S
H732 N726 0.984 1_554 S
H733 N726 0.984 . S
H734 N722 0.984 . S
H735 N722 0.985 . S
C233 C15 2.108 . S
C235 C150 2.085 1_554 S
C251 C179 2.085 1_556 S
C253 C44 2.108 . S
C269 C208 2.085 1_554 S
C271 C73 2.108 . S
C287 C102 2.108 . S
C289 C121 2.085 1_556 S
C305 C131 2.108 . S
C307 C92 2.085 . S
C323 C160 2.108 . S
C325 C5 2.085 . S
C341 C189 2.108 . S
C343 C34 2.085 . S
C359 C218 2.108 . S
C361 C63 2.085 . S
C377 C8 1.220 . S
C379 C66 1.220 . S
C395 C95 1.220 . S
C397 C37 1.220 . S
C413 C124 1.220 . S
C415 C182 1.220 . S
C431 C153 1.220 . S
C433 C211 1.220 . S
C449 C10 2.142 . S
C451 C129 2.012 . S
C467 C158 2.012 . S
C469 C39 2.142 . S
C485 C68 2.142 . S
C487 C187 2.012 . S
C503 C216 2.012 . S
C505 C97 2.142 . S
C521 C126 2.142 1_455 S
C523 C13 2.012 . S
C539 C155 2.142 1_565 S
C541 C42 2.012 . S
C557 C71 2.012 . S
C559 C184 2.142 1_655 S
C575 C100 2.012 . S
C577 C213 2.142 1_545 S
C593 C3 1.019 . S
C595 C50 1.030 . S
C611 C79 1.030 . S
C613 C32 1.019 . S
C629 C108 1.030 . S
C631 C61 1.019 . S
C647 C21 1.030 . S
C649 C90 1.019 . S
C665 C224 1.030 . S
C667 C119 1.019 . S
C683 C137 1.030 . S
C685 C148 1.019 . S
C701 C177 1.019 . S
C703 C166 1.030 . S
C719 C206 1.019 . S
C721 C195 1.030 . S
