# Generated by pormake.
# Topology wlt, (5)-cn, num edge types: 1
# Building blocks:
#     Node 0, Type 0, BuildingBlock: XOMCOT_clean_sbu_1, # of connection points: 5
#     Node 1, Type 0, BuildingBlock: XOMCOT_clean_sbu_1, # of connection points: 5
#     Node 2, Type 0, BuildingBlock: XOMCOT_clean_sbu_1, # of connection points: 5
#     Node 3, Type 0, BuildingBlock: XOMCOT_clean_sbu_1, # of connection points: 5
#     Node 4, Type 0, BuildingBlock: XOMCOT_clean_sbu_1, # of connection points: 5
#     Node 5, Type 0, BuildingBlock: XOMCOT_clean_sbu_1, # of connection points: 5
#     Node 6, Type 0, BuildingBlock: XOMCOT_clean_sbu_1, # of connection points: 5
#     Node 7, Type 0, BuildingBlock: XOMCOT_clean_sbu_1, # of connection points: 5
#     Node 8, Type 0, BuildingBlock: XOMCOT_clean_sbu_1, # of connection points: 5
#     Node 9, Type 0, BuildingBlock: XOMCOT_clean_sbu_1, # of connection points: 5
#     Node 10, Type 0, BuildingBlock: XOMCOT_clean_sbu_1, # of connection points: 5
#     Node 11, Type 0, BuildingBlock: XOMCOT_clean_sbu_1, # of connection points: 5
#     Node 12, Type 0, BuildingBlock: XOMCOT_clean_sbu_1, # of connection points: 5
#     Node 13, Type 0, BuildingBlock: XOMCOT_clean_sbu_1, # of connection points: 5
#     Node 14, Type 0, BuildingBlock: XOMCOT_clean_sbu_1, # of connection points: 5
#     Node 15, Type 0, BuildingBlock: XOMCOT_clean_sbu_1, # of connection points: 5
#     Node 16, Type 0, BuildingBlock: XOMCOT_clean_sbu_1, # of connection points: 5
#     Node 17, Type 0, BuildingBlock: XOMCOT_clean_sbu_1, # of connection points: 5
#     Node 18, Type 0, BuildingBlock: XOMCOT_clean_sbu_1, # of connection points: 5
#     Node 19, Type 0, BuildingBlock: XOMCOT_clean_sbu_1, # of connection points: 5
#     Node 20, Type 0, BuildingBlock: XOMCOT_clean_sbu_1, # of connection points: 5
#     Node 21, Type 0, BuildingBlock: XOMCOT_clean_sbu_1, # of connection points: 5
#     Node 22, Type 0, BuildingBlock: XOMCOT_clean_sbu_1, # of connection points: 5
#     Node 23, Type 0, BuildingBlock: XOMCOT_clean_sbu_1, # of connection points: 5
#     Node 24, Type 0, BuildingBlock: XOMCOT_clean_sbu_1, # of connection points: 5
#     Node 25, Type 0, BuildingBlock: XOMCOT_clean_sbu_1, # of connection points: 5
#     Node 26, Type 0, BuildingBlock: XOMCOT_clean_sbu_1, # of connection points: 5
#     Node 27, Type 0, BuildingBlock: XOMCOT_clean_sbu_1, # of connection points: 5
#     Node 28, Type 0, BuildingBlock: XOMCOT_clean_sbu_1, # of connection points: 5
#     Node 29, Type 0, BuildingBlock: XOMCOT_clean_sbu_1, # of connection points: 5
#     Node 30, Type 0, BuildingBlock: XOMCOT_clean_sbu_1, # of connection points: 5
#     Node 31, Type 0, BuildingBlock: XOMCOT_clean_sbu_1, # of connection points: 5
#     Node 32, Type 0, BuildingBlock: XOMCOT_clean_sbu_1, # of connection points: 5
#     Node 33, Type 0, BuildingBlock: XOMCOT_clean_sbu_1, # of connection points: 5
#     Node 34, Type 0, BuildingBlock: XOMCOT_clean_sbu_1, # of connection points: 5
#     Node 35, Type 0, BuildingBlock: XOMCOT_clean_sbu_1, # of connection points: 5
#     Edge 36, Type (0, 0), None
#     Edge 37, Type (0, 0), None
#     Edge 38, Type (0, 0), None
#     Edge 39, Type (0, 0), None
#     Edge 40, Type (0, 0), None
#     Edge 41, Type (0, 0), None
#     Edge 42, Type (0, 0), None
#     Edge 43, Type (0, 0), None
#     Edge 44, Type (0, 0), None
#     Edge 45, Type (0, 0), None
#     Edge 46, Type (0, 0), None
#     Edge 47, Type (0, 0), None
#     Edge 48, Type (0, 0), None
#     Edge 49, Type (0, 0), None
#     Edge 50, Type (0, 0), None
#     Edge 51, Type (0, 0), None
#     Edge 52, Type (0, 0), None
#     Edge 53, Type (0, 0), None
#     Edge 54, Type (0, 0), None
#     Edge 55, Type (0, 0), None
#     Edge 56, Type (0, 0), None
#     Edge 57, Type (0, 0), None
#     Edge 58, Type (0, 0), None
#     Edge 59, Type (0, 0), None
#     Edge 60, Type (0, 0), None
#     Edge 61, Type (0, 0), None
#     Edge 62, Type (0, 0), None
#     Edge 63, Type (0, 0), None
#     Edge 64, Type (0, 0), None
#     Edge 65, Type (0, 0), None
#     Edge 66, Type (0, 0), None
#     Edge 67, Type (0, 0), None
#     Edge 68, Type (0, 0), None
#     Edge 69, Type (0, 0), None
#     Edge 70, Type (0, 0), None
#     Edge 71, Type (0, 0), None
#     Edge 72, Type (0, 0), None
#     Edge 73, Type (0, 0), None
#     Edge 74, Type (0, 0), None
#     Edge 75, Type (0, 0), None
#     Edge 76, Type (0, 0), None
#     Edge 77, Type (0, 0), None
#     Edge 78, Type (0, 0), None
#     Edge 79, Type (0, 0), None
#     Edge 80, Type (0, 0), None
#     Edge 81, Type (0, 0), None
#     Edge 82, Type (0, 0), None
#     Edge 83, Type (0, 0), None
#     Edge 84, Type (0, 0), None
#     Edge 85, Type (0, 0), None
#     Edge 86, Type (0, 0), None
#     Edge 87, Type (0, 0), None
#     Edge 88, Type (0, 0), None
#     Edge 89, Type (0, 0), None
#     Edge 90, Type (0, 0), None
#     Edge 91, Type (0, 0), None
#     Edge 92, Type (0, 0), None
#     Edge 93, Type (0, 0), None
#     Edge 94, Type (0, 0), None
#     Edge 95, Type (0, 0), None
#     Edge 96, Type (0, 0), None
#     Edge 97, Type (0, 0), None
#     Edge 98, Type (0, 0), None
#     Edge 99, Type (0, 0), None
#     Edge 100, Type (0, 0), None
#     Edge 101, Type (0, 0), None
#     Edge 102, Type (0, 0), None
#     Edge 103, Type (0, 0), None
#     Edge 104, Type (0, 0), None
#     Edge 105, Type (0, 0), None
#     Edge 106, Type (0, 0), None
#     Edge 107, Type (0, 0), None
#     Edge 108, Type (0, 0), None
#     Edge 109, Type (0, 0), None
#     Edge 110, Type (0, 0), None
#     Edge 111, Type (0, 0), None
#     Edge 112, Type (0, 0), None
#     Edge 113, Type (0, 0), None
#     Edge 114, Type (0, 0), None
#     Edge 115, Type (0, 0), None
#     Edge 116, Type (0, 0), None
#     Edge 117, Type (0, 0), None
#     Edge 118, Type (0, 0), None
#     Edge 119, Type (0, 0), None
#     Edge 120, Type (0, 0), None
#     Edge 121, Type (0, 0), None
#     Edge 122, Type (0, 0), None
#     Edge 123, Type (0, 0), None
#     Edge 124, Type (0, 0), None
#     Edge 125, Type (0, 0), None
# Relax obj value: 0.229
# Max RMSD: 0.203
# Mean RMSD: 0.202
data_MOF--net-wlt--node1-XOMCOT_clean_sbu_1--edge1-none
_symmetry_space_group_name_H-M    P1
_symmetry_Int_Tables_number       1
_symmetry_cell_setting            triclinic
loop_
_symmetry_equiv_pos_as_xyz
'x, y, z'
_cell_length_a     32.379978
_cell_length_b     32.379756
_cell_length_c     27.275163
_cell_angle_alpha  90.000622
_cell_angle_beta   89.999105
_cell_angle_gamma 119.99817
loop_
_atom_site_label
_atom_site_type_symbol
_atom_site_fract_x
_atom_site_fract_y
_atom_site_fract_z
_atom_type_partial_charge
C0 C 0.18756 0.19183 0.02019 0.0
C1 C 0.15936 0.20004 -0.01133 0.0
N2 N 0.18824 0.23511 0.95798 0.0
N3 N 0.23407 0.22316 0.01087 0.0
C4 C 0.23331 0.24809 0.97162 0.0
H5 H 0.17464 0.16563 0.04927 0.0
Co6 Co 0.28626 0.23311 0.04905 0.0
C7 C 0.31657 0.34199 0.07727 0.0
O8 O 0.31258 0.34401 0.12498 0.0
N9 N 0.33803 0.24322 0.08969 0.0
C10 C 0.36541 0.24372 0.16494 0.0
C11 C 0.34407 0.26184 0.13543 0.0
C12 C 0.36102 0.21819 0.09121 0.0
N13 N 0.37471 0.21513 0.13728 0.0
O14 O 0.26962 0.16649 0.03238 0.0
H15 H 0.32669 0.28031 0.14933 0.0
H16 H 0.3643 0.19965 0.05995 0.0
O17 O 0.30639 0.30235 0.05644 0.0
C18 C 0.27191 0.12802 0.03561 0.0
O19 O 0.29817 0.12325 0.06929 0.0
N20 N 0.24691 0.2128 0.10607 0.0
C21 C 0.21562 0.19823 0.20256 0.0
C22 C 0.2129 0.23271 0.17347 0.0
C23 C 0.22804 0.23884 0.12473 0.0
C24 C 0.24351 0.17518 0.13231 0.0
C25 C 0.22775 0.16712 0.18037 0.0
H26 H 0.22787 0.26674 0.10323 0.0
H27 H 0.25831 0.1544 0.11922 0.0
H28 H 0.26509 0.27741 0.95564 0.0
H29 H 0.12075 0.18179 -0.01163 0.0
H30 H 0.36878 0.2472 0.20439 0.0
H31 H 0.20307 0.25736 0.18905 0.0
H32 H 0.22919 0.13935 0.20117 0.0
C33 C 0.88607 1.01134 0.02019 0.0
C34 C 0.87786 0.97491 -0.01133 0.0
N35 N 0.84278 0.96873 0.95798 0.0
N36 N 0.85474 1.02652 0.01087 0.0
C37 C 0.8298 1.00082 0.97163 0.0
H38 H 0.91227 1.0246 0.04927 0.0
Co39 Co 0.84479 0.06874 0.04905 0.0
C40 C 0.73592 0.9902 0.07728 0.0
O41 O 0.73389 0.98419 0.12498 0.0
N42 N 0.83468 0.11041 0.08969 0.0
C43 C 0.83419 0.13729 0.16495 0.0
C44 C 0.81607 0.09783 0.13544 0.0
C45 C 0.85971 0.15843 0.09121 0.0
N46 N 0.86276 0.17518 0.13729 0.0
O47 O 0.91142 0.11873 0.03238 0.0
H48 H 0.7976 0.06198 0.14934 0.0
H49 H 0.87825 0.18025 0.05995 0.0
O50 O 0.77556 1.01965 0.05645 0.0
C51 C 0.94987 0.15949 0.03561 0.0
O52 O 0.95465 0.19052 0.06929 0.0
N53 N 0.86511 0.04971 0.10607 0.0
C54 C 0.87968 0.03299 0.20256 0.0
C55 C 0.8452 0.99579 0.17347 0.0
C56 C 0.83907 1.0048 0.12473 0.0
C57 C 0.90273 0.08393 0.13231 0.0
C58 C 0.91079 0.07623 0.18037 0.0
H59 H 0.81116 0.97673 0.10323 0.0
H60 H 0.92351 0.11951 0.11922 0.0
H61 H 0.80048 1.00328 0.95565 0.0
H62 H 0.8961 0.95455 -0.01164 0.0
H63 H 0.83071 0.13719 0.20439 0.0
H64 H 0.82055 0.96132 0.18905 0.0
H65 H 0.93856 0.10543 0.20117 0.0
C66 C 0.06655 0.89034 0.02019 0.0
C67 C 0.10297 0.91855 -0.01133 0.0
N68 N 0.10916 0.88966 0.95798 0.0
N69 N 0.05137 0.84383 0.01087 0.0
C70 C 0.07708 0.84459 0.97162 0.0
H71 H 0.05328 0.90327 0.04927 0.0
Co72 Co 1.00915 0.79165 0.04905 0.0
C73 C 0.0877 0.76133 0.07727 0.0
O74 O 0.09371 0.76531 0.12498 0.0
N75 N 0.96748 0.73987 0.08969 0.0
C76 C 0.9406 0.7125 0.16495 0.0
C77 C 0.98006 0.73384 0.13543 0.0
C78 C 0.91946 0.71688 0.09121 0.0
N79 N 0.90272 0.70319 0.13728 0.0
O80 O 0.95916 0.80828 0.03238 0.0
H81 H 1.01592 0.75122 0.14934 0.0
H82 H 0.89765 0.7136 0.05995 0.0
O83 O 0.05824 0.77151 0.05644 0.0
C84 C 0.91841 0.80599 0.03561 0.0
O85 O 0.88737 0.77973 0.06929 0.0
N86 N 1.02818 0.831 0.10607 0.0
C87 C 1.0449 0.86229 0.20256 0.0
C88 C 0.0821 0.86501 0.17347 0.0
C89 C 0.07309 0.84987 0.12474 0.0
C90 C 0.99396 0.8344 0.13231 0.0
C91 C 1.00165 0.85016 0.18037 0.0
H92 H 0.10116 0.85003 0.10323 0.0
H93 H 0.95838 0.8196 0.11922 0.0
H94 H 0.07462 0.81281 0.95565 0.0
H95 H 0.12334 0.95716 -0.01164 0.0
H96 H 0.9407 0.70912 0.20439 0.0
H97 H 0.11658 0.87484 0.18905 0.0
H98 H 0.97245 0.84873 0.20117 0.0
C99 C 0.20738 0.17199 0.43887 0.0
C100 C 0.21559 0.14378 0.47039 0.0
N101 N 0.25067 0.17267 0.50108 0.0
N102 N 0.23871 0.2185 0.44819 0.0
C103 C 0.26365 0.21774 0.48743 0.0
H104 H 0.18118 0.15906 0.40979 0.0
Co105 Co 0.24867 0.27068 0.41001 0.0
C106 C 0.35754 0.30097 0.38178 0.0
O107 O 0.35955 0.29695 0.33408 0.0
N108 N 0.25879 0.32246 0.36936 0.0
C109 C 0.25929 0.34983 0.2941 0.0
C110 C 0.27741 0.3285 0.32362 0.0
C111 C 0.23375 0.34545 0.36783 0.0
N112 N 0.2307 0.35913 0.32175 0.0
O113 O 0.18205 0.25406 0.42667 0.0
H114 H 0.29589 0.31112 0.30973 0.0
H115 H 0.2152 0.34872 0.39909 0.0
O116 O 0.3179 0.29081 0.40261 0.0
C117 C 0.14359 0.25635 0.42344 0.0
O118 O 0.1388 0.2826 0.38977 0.0
N119 N 0.22834 0.23133 0.35298 0.0
C120 C 0.21378 0.20006 0.2565 0.0
C121 C 0.24826 0.19732 0.28558 0.0
C122 C 0.25438 0.21245 0.33432 0.0
C123 C 0.19073 0.22794 0.32675 0.0
C124 C 0.18267 0.2122 0.27868 0.0
H125 H 0.28228 0.21227 0.35583 0.0
H126 H 0.16996 0.24276 0.33983 0.0
H127 H 0.29297 0.24952 0.50341 0.0
H128 H 0.19734 0.10518 0.4707 0.0
H129 H 0.26278 0.35321 0.25466 0.0
H130 H 0.2729 0.18748 0.27 0.0
H131 H 0.15491 0.21364 0.25787 0.0
C132 C 0.90591 0.05099 0.43887 0.0
C133 C 0.93412 0.08741 0.47039 0.0
N134 N 0.90523 0.0936 0.50108 0.0
N135 N 0.8594 0.03581 0.44818 0.0
C136 C 0.86016 0.06152 0.48743 0.0
H137 H 0.91884 0.03772 0.40979 0.0
Co138 Co 0.80722 0.99359 0.41 0.0
C139 C 0.77693 0.07217 0.38178 0.0
O140 O 0.78094 0.0782 0.33408 0.0
N141 N 0.75544 0.95193 0.36936 0.0
C142 C 0.72807 0.92507 0.2941 0.0
C143 C 0.74941 0.96452 0.32362 0.0
C144 C 0.73245 0.90391 0.36783 0.0
N145 N 0.71877 0.88718 0.32175 0.0
O146 O 0.82384 0.94359 0.42667 0.0
H147 H 0.76679 1.00038 0.30972 0.0
H148 H 0.72917 0.88209 0.39909 0.0
O149 O 0.78709 0.0427 0.4026 0.0
C150 C 0.82155 0.90284 0.42344 0.0
O151 O 0.7953 0.87181 0.38976 0.0
N152 N 0.84657 1.01262 0.35298 0.0
C153 C 0.87785 1.02932 0.2565 0.0
C154 C 0.88059 0.06654 0.28558 0.0
C155 C 0.86545 0.05753 0.33432 0.0
C156 C 0.84996 0.97839 0.32674 0.0
C157 C 0.86571 0.98608 0.27868 0.0
H158 H 0.86563 0.0856 0.35582 0.0
H159 H 0.83515 0.94281 0.33983 0.0
H160 H 0.82838 0.05906 0.5034 0.0
H161 H 0.97273 0.10777 0.4707 0.0
H162 H 0.72469 0.92517 0.25465 0.0
H163 H 0.89042 0.10101 0.27 0.0
H164 H 0.86427 0.95688 0.25787 0.0
C165 C 1.0269 0.87053 0.43887 0.0
C166 C 0.99048 0.86231 0.47039 0.0
N167 N 0.98429 0.82723 0.50108 0.0
N168 N 1.04208 0.83919 0.44818 0.0
C169 C 1.01638 0.81425 0.48743 0.0
H170 H 1.04017 0.89673 0.40979 0.0
Co171 Co 0.0843 0.82923 0.41 0.0
C172 C 1.00573 0.72037 0.38177 0.0
O173 O 0.9997 0.71835 0.33407 0.0
N174 N 0.12596 0.81912 0.36936 0.0
C175 C 0.15283 0.81862 0.29409 0.0
C176 C 0.11338 0.8005 0.32361 0.0
C177 C 0.17398 0.84414 0.36783 0.0
N178 N 0.19072 0.8472 0.32175 0.0
O179 O 0.1343 0.89586 0.42667 0.0
H180 H 0.07752 0.78203 0.30972 0.0
H181 H 0.1958 0.86269 0.39909 0.0
O182 O 1.0352 0.76001 0.4026 0.0
C183 C 0.17505 0.93432 0.42344 0.0
O184 O 0.20608 0.93909 0.38976 0.0
N185 N 0.06528 0.84956 0.35298 0.0
C186 C 0.04857 0.86413 0.2565 0.0
C187 C 1.01135 0.82965 0.28558 0.0
C188 C 1.02036 0.82353 0.33432 0.0
C189 C 0.0995 0.88718 0.32675 0.0
C190 C 0.09181 0.89524 0.27868 0.0
H191 H 0.99229 0.79563 0.35583 0.0
H192 H 0.13508 0.90796 0.33983 0.0
H193 H 1.01884 0.78493 0.5034 0.0
H194 H 0.97011 0.88055 0.4707 0.0
H195 H 0.15273 0.81513 0.25465 0.0
H196 H 0.97688 0.80501 0.27 0.0
H197 H 0.12101 0.923 0.25787 0.0
C198 C 0.90589 0.87052 0.93887 0.0
C199 C 0.93411 0.8623 0.97037 0.0
N200 N 0.90522 0.8272 0.00104 0.0
N201 N 0.85938 0.83918 0.94819 0.0
C202 C 0.86015 0.81423 -0.01258 0.0
H203 H 0.91882 0.89673 0.9098 0.0
Co204 Co 0.8072 0.82923 0.91001 0.0
C205 C 0.7769 0.72036 0.88179 0.0
O206 O 0.78092 0.71835 0.83408 0.0
N207 N 0.75542 0.81912 0.86937 0.0
C208 C 0.72804 0.81861 0.79411 0.0
C209 C 0.74938 0.80049 0.82363 0.0
C210 C 0.73243 0.84414 0.86785 0.0
N211 N 0.71874 0.8472 0.82177 0.0
O212 O 0.82384 0.89586 0.92667 0.0
H213 H 0.76676 0.78201 0.80974 0.0
H214 H 0.72916 0.86269 0.8991 0.0
O215 O 0.78707 0.76 0.90262 0.0
C216 C 0.82155 0.93432 0.92343 0.0
O217 O 0.79528 0.93909 0.88976 0.0
N218 N 0.84655 0.84954 0.85299 0.0
C219 C 0.87782 0.8641 0.7565 0.0
C220 C 0.88056 0.82963 0.78559 0.0
C221 C 0.86543 0.82351 0.83433 0.0
C222 C 0.84994 0.88716 0.82674 0.0
C223 C 0.86569 0.89521 0.77868 0.0
H224 H 0.86561 0.79561 0.85584 0.0
H225 H 0.83512 0.90793 0.83982 0.0
H226 H 0.82837 0.78491 0.0034 0.0
H227 H 0.97271 0.88055 0.97069 0.0
H228 H 0.72467 0.81512 0.75467 0.0
H229 H 0.8904 0.80498 0.77001 0.0
H230 H 0.86424 0.92297 0.75787 0.0
C231 C 0.20737 0.05098 0.93887 0.0
C232 C 0.2156 0.08742 0.97038 0.0
N233 N 0.2507 0.09363 0.00104 0.0
N234 N 0.2387 0.03581 0.94819 0.0
C235 C 0.26366 0.06153 -0.01259 0.0
H236 H 0.18116 0.0377 0.90981 0.0
Co237 Co 0.24866 0.99358 0.91001 0.0
C238 C 0.35753 0.07214 0.88178 0.0
O239 O 0.35954 0.07816 0.83407 0.0
N240 N 0.25877 0.95191 0.86937 0.0
C241 C 0.25928 0.92504 0.79411 0.0
C242 C 0.27739 0.9645 0.82362 0.0
C243 C 0.23375 0.90389 0.86784 0.0
N244 N 0.2307 0.88715 0.82176 0.0
O245 O 0.18203 0.94359 0.92667 0.0
H246 H 0.29586 1.00035 0.80973 0.0
H247 H 0.2152 0.88207 0.8991 0.0
O248 O 0.31789 0.04267 0.90261 0.0
C249 C 0.14357 0.90284 0.92343 0.0
O250 O 0.13881 0.8718 0.88976 0.0
N251 N 0.22834 1.01261 0.85299 0.0
C252 C 0.21379 1.02933 0.7565 0.0
C253 C 0.24826 0.06654 0.78559 0.0
C254 C 0.25438 0.05753 0.83433 0.0
C255 C 0.19073 0.97839 0.82674 0.0
C256 C 0.18268 0.98609 0.77868 0.0
H257 H 0.28228 0.0856 0.85584 0.0
H258 H 0.16995 0.94281 0.83982 0.0
H259 H 0.29298 0.05906 0.00339 0.0
H260 H 0.19735 0.10778 0.97069 0.0
H261 H 0.26276 0.92515 0.75466 0.0
H262 H 0.2729 0.10102 0.77001 0.0
H263 H 0.15492 0.95689 0.75787 0.0
C264 C 1.02692 0.17199 0.93887 0.0
C265 C 0.99048 0.14378 0.97037 0.0
N266 N 0.98427 0.17267 0.00104 0.0
N267 N 1.04209 0.2185 0.94819 0.0
C268 C 1.01637 0.21774 -0.01259 0.0
H269 H 1.04021 0.15907 0.9098 0.0
Co270 Co 0.08432 0.27068 0.91001 0.0
C271 C 1.00575 0.30099 0.88178 0.0
O272 O 0.99973 0.29698 0.83408 0.0
N273 N 0.12598 0.32246 0.86937 0.0
C274 C 0.15285 0.34984 0.79411 0.0
C275 C 0.1134 0.3285 0.82363 0.0
C276 C 0.174 0.34546 0.86784 0.0
N277 N 0.19074 0.35915 0.82177 0.0
O278 O 0.13431 0.25404 0.92667 0.0
H279 H 0.07754 0.31112 0.80973 0.0
H280 H 0.19582 0.34873 0.8991 0.0
O281 O 1.03522 0.29082 0.90261 0.0
C282 C 0.17506 0.25634 0.92343 0.0
O283 O 0.2061 0.28261 0.88976 0.0
N284 N 0.06529 0.23133 0.85299 0.0
C285 C 0.04857 0.20006 0.7565 0.0
C286 C 1.01136 0.19732 0.78559 0.0
C287 C 1.02037 0.21245 0.83433 0.0
C288 C 0.09951 0.22794 0.82674 0.0
C289 C 0.09181 0.21219 0.77868 0.0
H290 H 0.9923 0.21228 0.85583 0.0
H291 H 0.13509 0.24276 0.83982 0.0
H292 H 1.01883 0.24952 0.00339 0.0
H293 H 0.97013 0.10517 0.97069 0.0
H294 H 0.15275 0.35322 0.75467 0.0
H295 H 0.97688 0.18749 0.77001 0.0
H296 H 0.12101 0.21363 0.75787 0.0
C297 C 0.88607 0.89032 0.5202 0.0
C298 C 0.87784 0.91854 0.48869 0.0
N299 N 0.84275 0.88965 0.45802 0.0
N300 N 0.85473 0.84381 0.51087 0.0
C301 C 0.82979 0.84459 0.47164 0.0
H302 H 0.91228 0.90325 0.54927 0.0
Co303 Co 0.84478 0.79163 0.54904 0.0
C304 C 0.73591 0.7613 0.57727 0.0
O305 O 0.73389 0.76529 0.62497 0.0
N306 N 0.83468 0.73985 0.58967 0.0
C307 C 0.83417 0.71247 0.66493 0.0
C308 C 0.81606 0.7338 0.63542 0.0
C309 C 0.85971 0.71685 0.59119 0.0
N310 N 0.86276 0.70317 0.63727 0.0
O311 O 0.91142 0.80828 0.53238 0.0
H312 H 0.79758 0.75119 0.64932 0.0
H313 H 0.87825 0.71359 0.55993 0.0
O314 O 0.77555 0.77148 0.55643 0.0
C315 C 0.94988 0.80599 0.53562 0.0
O316 O 0.95464 0.77971 0.56929 0.0
N317 N 0.86509 0.83097 0.60607 0.0
C318 C 0.87965 0.86225 0.70256 0.0
C319 C 0.84517 0.86498 0.67347 0.0
C320 C 0.83905 0.84984 0.62473 0.0
C321 C 0.90271 0.83437 0.63231 0.0
C322 C 0.91077 0.85012 0.68037 0.0
H323 H 0.81115 0.85001 0.60323 0.0
H324 H 0.92349 0.81956 0.61923 0.0
H325 H 0.80047 0.8128 0.45566 0.0
H326 H 0.8961 0.95715 0.48838 0.0
H327 H 0.83069 0.70908 0.70437 0.0
H328 H 0.82053 0.87481 0.68905 0.0
H329 H 0.93853 0.84869 0.70118 0.0
C330 C 0.18756 1.01135 0.5202 0.0
C331 C 0.15935 0.97491 0.48869 0.0
N332 N 0.18824 0.9687 0.45802 0.0
N333 N 0.23408 1.02652 0.51088 0.0
C334 C 0.23331 1.0008 0.47164 0.0
H335 H 0.17464 1.02464 0.54927 0.0
Co336 Co 0.28626 0.06876 0.54904 0.0
C337 C 0.31659 0.99021 0.57727 0.0
O338 O 0.3126 0.98421 0.62498 0.0
N339 N 0.33804 0.11043 0.58968 0.0
C340 C 0.36542 0.13731 0.66493 0.0
C341 C 0.34408 0.09785 0.63542 0.0
C342 C 0.36104 0.15845 0.59119 0.0
N343 N 0.37473 0.1752 0.63727 0.0
O344 O 0.26961 0.11874 0.53239 0.0
H345 H 0.32669 0.062 0.64933 0.0
H346 H 0.36431 0.18027 0.55993 0.0
O347 O 0.30641 1.01967 0.55644 0.0
C348 C 0.2719 0.15949 0.53563 0.0
O349 O 0.29818 0.19054 0.56929 0.0
N350 N 0.24692 0.04973 0.60607 0.0
C351 C 0.21563 0.03301 0.70256 0.0
C352 C 0.2129 0.9958 0.67348 0.0
C353 C 0.22804 1.00481 0.62474 0.0
C354 C 0.24351 0.08395 0.63231 0.0
C355 C 0.22776 0.07625 0.68038 0.0
H356 H 0.22788 0.97674 0.60323 0.0
H357 H 0.25832 0.11953 0.61923 0.0
H358 H 0.26509 1.00327 0.45566 0.0
H359 H 0.12074 0.95456 0.48838 0.0
H360 H 0.36881 0.13722 0.70438 0.0
H361 H 0.20308 0.96133 0.68905 0.0
H362 H 0.22919 0.10545 0.70118 0.0
C363 C 0.06655 0.19182 0.52019 0.0
C364 C 0.10299 0.20005 0.48869 0.0
N365 N 0.1092 0.23515 0.45802 0.0
N366 N 0.05137 0.22315 0.51087 0.0
C367 C 0.07709 0.24811 0.47164 0.0
H368 H 0.05327 0.16561 0.54926 0.0
Co369 Co 1.00914 0.2331 0.54905 0.0
C370 C 0.08768 0.34198 0.57728 0.0
O371 O 0.09368 0.344 0.62498 0.0
N372 N 0.96746 0.24321 0.58968 0.0
C373 C 0.94058 0.24371 0.66494 0.0
C374 C 0.98004 0.26182 0.63543 0.0
C375 C 0.91944 0.21819 0.5912 0.0
N376 N 0.9027 0.21513 0.63727 0.0
O377 O 0.95916 0.16647 0.53238 0.0
H378 H 1.01589 0.28029 0.64933 0.0
H379 H 0.89763 0.19964 0.55994 0.0
O380 O 0.05822 0.30234 0.55644 0.0
C381 C 0.91841 0.12801 0.53563 0.0
O382 O 0.88736 0.12325 0.56929 0.0
N383 N 1.02817 0.21279 0.60607 0.0
C384 C 1.04489 0.19823 0.70256 0.0
C385 C 0.0821 0.23271 0.67347 0.0
C386 C 0.07309 0.23883 0.62473 0.0
C387 C 0.99396 0.17517 0.63231 0.0
C388 C 1.00165 0.16711 0.68037 0.0
H389 H 0.10115 0.26674 0.60323 0.0
H390 H 0.95837 0.15439 0.61923 0.0
H391 H 0.07463 0.27743 0.45566 0.0
H392 H 0.12335 0.1818 0.48838 0.0
H393 H 0.94068 0.24719 0.70438 0.0
H394 H 0.11657 0.25736 0.68905 0.0
H395 H 0.97245 0.13935 0.70118 0.0
C396 C 0.85421 0.52514 0.35355 0.0
C397 C 0.826 0.53335 0.32202 0.0
N398 N 0.85489 0.56839 0.29129 0.0
N399 N 0.90072 0.55644 0.3442 0.0
C400 C 0.89995 0.58135 0.30493 0.0
H401 H 0.84128 0.49896 0.38265 0.0
Co402 Co 0.95291 0.56642 0.38236 0.0
C403 C 0.98318 0.67528 0.41058 0.0
O404 O 0.97915 0.6773 0.45828 0.0
N405 N 1.00471 0.57655 0.42299 0.0
C406 C 1.03209 0.57707 0.49825 0.0
C407 C 1.01076 0.59519 0.46872 0.0
C408 C 1.02769 0.55151 0.42453 0.0
N409 N 1.04138 0.54847 0.47061 0.0
O410 O 0.9363 0.4998 0.36571 0.0
H411 H 0.99338 0.61367 0.48261 0.0
H412 H 1.03096 0.53295 0.39328 0.0
O413 O 0.97303 0.63565 0.38975 0.0
C414 C 0.93858 0.46133 0.36894 0.0
O415 O 0.96484 0.45655 0.40261 0.0
N416 N 0.91358 0.5461 0.4394 0.0
C417 C 0.88231 0.53153 0.53589 0.0
C418 C 0.87956 0.566 0.5068 0.0
C419 C 0.89469 0.57212 0.45806 0.0
C420 C 0.91021 0.50849 0.46564 0.0
C421 C 0.89446 0.50044 0.51371 0.0
H422 H 0.8945 0.60002 0.43655 0.0
H423 H 0.92504 0.48773 0.45256 0.0
H424 H 0.93174 0.61065 0.28893 0.0
H425 H 0.78739 0.51512 0.32173 0.0
H426 H 1.03547 0.58057 0.53769 0.0
H427 H 0.86971 0.59063 0.52237 0.0
H428 H 0.89592 0.47268 0.53452 0.0
C429 C 0.55276 0.34467 0.35354 0.0
C430 C 0.54455 0.30825 0.32201 0.0
N431 N 0.50951 0.3021 0.29129 0.0
N432 N 0.52146 0.35988 0.3442 0.0
C433 C 0.49654 0.3342 0.30493 0.0
H434 H 0.57894 0.35791 0.38264 0.0
Co435 Co 0.51148 0.4021 0.38237 0.0
C436 C 0.40262 0.32351 0.41059 0.0
O437 O 0.4006 0.31747 0.45829 0.0
N438 N 0.50136 0.44376 0.423 0.0
C439 C 0.50083 0.47062 0.49826 0.0
C440 C 0.48272 0.43117 0.46873 0.0
C441 C 0.52639 0.49178 0.42453 0.0
N442 N 0.52943 0.50851 0.47061 0.0
O443 O 0.57811 0.4521 0.3657 0.0
H444 H 0.46424 0.39532 0.48262 0.0
H445 H 0.54494 0.51361 0.39328 0.0
O446 O 0.44226 0.35299 0.38976 0.0
C447 C 0.61657 0.49285 0.36894 0.0
O448 O 0.62134 0.52389 0.40261 0.0
N449 N 0.53181 0.38309 0.4394 0.0
C450 C 0.54638 0.36638 0.53589 0.0
C451 C 0.51191 0.32916 0.5068 0.0
C452 C 0.50578 0.33817 0.45806 0.0
C453 C 0.56941 0.41732 0.46564 0.0
C454 C 0.57747 0.40963 0.5137 0.0
H455 H 0.47789 0.31009 0.43655 0.0
H456 H 0.59018 0.4529 0.45256 0.0
H457 H 0.46725 0.33669 0.28893 0.0
H458 H 0.56278 0.28787 0.32172 0.0
H459 H 0.49734 0.47051 0.5377 0.0
H460 H 0.48728 0.29468 0.52237 0.0
H461 H 0.60522 0.43883 0.53451 0.0
C462 C 0.73322 0.2237 0.35354 0.0
C463 C 0.76964 0.2519 0.32202 0.0
N464 N 0.77579 0.22301 0.29129 0.0
N465 N 0.71802 0.17718 0.3442 0.0
C466 C 0.74369 0.17795 0.30493 0.0
H467 H 0.71998 0.23663 0.38264 0.0
Co468 Co 0.6758 0.12499 0.38237 0.0
C469 C 0.75439 0.09472 0.41058 0.0
O470 O 0.76043 0.09874 0.45829 0.0
N471 N 0.63413 0.0732 0.423 0.0
C472 C 0.60727 0.04581 0.49826 0.0
C473 C 0.64672 0.06715 0.46873 0.0
C474 C 0.58611 0.05021 0.42453 0.0
N475 N 0.56938 0.03652 0.47061 0.0
O476 O 0.62579 0.14161 0.36571 0.0
H477 H 0.68258 0.08453 0.48262 0.0
H478 H 0.56429 0.04694 0.39328 0.0
O479 O 0.72491 0.10487 0.38976 0.0
C480 C 0.58504 0.13932 0.36894 0.0
O481 O 0.554 0.11306 0.40261 0.0
N482 N 0.69481 0.16433 0.4394 0.0
C483 C 0.71152 0.1956 0.53589 0.0
C484 C 0.74873 0.19835 0.5068 0.0
C485 C 0.73972 0.18322 0.45806 0.0
C486 C 0.66058 0.1677 0.46564 0.0
C487 C 0.66827 0.18345 0.51371 0.0
H488 H 0.7678 0.1834 0.43655 0.0
H489 H 0.62499 0.15288 0.45256 0.0
H490 H 0.74121 0.14616 0.28893 0.0
H491 H 0.79002 0.29051 0.32172 0.0
H492 H 0.60738 0.04243 0.5377 0.0
H493 H 0.78321 0.2082 0.52237 0.0
H494 H 0.63906 0.182 0.53452 0.0
C495 C 0.87404 0.50534 0.77219 0.0
C496 C 0.88226 0.47714 0.80371 0.0
N497 N 0.91734 0.50603 0.8344 0.0
N498 N 0.90538 0.55186 0.7815 0.0
C499 C 0.93032 0.5511 0.82075 0.0
H500 H 0.84785 0.49241 0.74311 0.0
Co501 Co 0.91532 0.60403 0.74332 0.0
C502 C 1.02421 0.63436 0.71511 0.0
O503 O 1.02623 0.63035 0.66741 0.0
N504 N 0.92541 0.6558 0.70266 0.0
C505 C 0.92581 0.68305 0.62736 0.0
C506 C 0.94403 0.66183 0.65692 0.0
C507 C 0.90029 0.67869 0.70111 0.0
N508 N 0.89714 0.69225 0.655 0.0
O509 O 0.84868 0.58738 0.75998 0.0
H510 H 0.96257 0.6445 0.64305 0.0
H511 H 0.88174 0.68196 0.73236 0.0
O512 O 0.98456 0.62418 0.73593 0.0
C513 C 0.81019 0.58961 0.75674 0.0
O514 O 0.80536 0.61581 0.72303 0.0
N515 N 0.89502 0.56467 0.6863 0.0
C516 C 0.88047 0.53337 0.58982 0.0
C517 C 0.91496 0.53067 0.61891 0.0
C518 C 0.92108 0.54581 0.66765 0.0
C519 C 0.85739 0.56124 0.66006 0.0
C520 C 0.84934 0.54548 0.612 0.0
H521 H 0.94898 0.54566 0.68916 0.0
H522 H 0.83659 0.57603 0.67314 0.0
H523 H 0.95964 0.58288 0.83672 0.0
H524 H 0.86402 0.43853 0.80402 0.0
H525 H 0.92928 0.68641 0.58792 0.0
H526 H 0.93962 0.52085 0.60334 0.0
H527 H 0.82156 0.5469 0.59119 0.0
C528 C 0.57256 0.3843 0.77219 0.0
C529 C 0.60076 0.42072 0.80371 0.0
N530 N 0.57187 0.42691 0.8344 0.0
N531 N 0.52604 0.36912 0.7815 0.0
C532 C 0.5268 0.39483 0.82075 0.0
H533 H 0.58549 0.37103 0.74311 0.0
Co534 Co 0.47387 0.3269 0.74331 0.0
C535 C 0.44354 0.40545 0.71511 0.0
O536 O 0.44754 0.41148 0.6674 0.0
N537 N 0.42211 0.28522 0.70266 0.0
C538 C 0.39485 0.25836 0.62736 0.0
C539 C 0.41607 0.2978 0.65691 0.0
C540 C 0.39921 0.23721 0.7011 0.0
N541 N 0.38565 0.2205 0.655 0.0
O542 O 0.49053 0.27691 0.75997 0.0
H543 H 0.4334 0.33367 0.64304 0.0
H544 H 0.39594 0.21539 0.73236 0.0
O545 O 0.45372 0.37598 0.73593 0.0
C546 C 0.48829 0.23618 0.75673 0.0
O547 O 0.46209 0.20516 0.72302 0.0
N548 N 0.51323 0.34595 0.6863 0.0
C549 C 0.54453 0.3627 0.58982 0.0
C550 C 0.54724 0.39989 0.61891 0.0
C551 C 0.53209 0.39087 0.66765 0.0
C552 C 0.51666 0.31175 0.66006 0.0
C553 C 0.53243 0.31946 0.612 0.0
H554 H 0.53224 0.41893 0.68915 0.0
H555 H 0.50187 0.27617 0.67313 0.0
H556 H 0.49502 0.39236 0.83672 0.0
H557 H 0.63937 0.44108 0.80402 0.0
H558 H 0.39149 0.25848 0.58791 0.0
H559 H 0.55705 0.43437 0.60334 0.0
H560 H 0.53102 0.29027 0.59119 0.0
C561 C 0.69359 0.20386 0.77219 0.0
C562 C 0.65716 0.19564 0.80371 0.0
N563 N 0.65098 0.16056 0.8344 0.0
N564 N 0.70877 0.17253 0.7815 0.0
C565 C 0.68307 0.14758 0.82075 0.0
H566 H 0.70685 0.23006 0.74312 0.0
Co567 Co 0.751 0.16258 0.74331 0.0
C568 C 0.67245 0.0537 0.7151 0.0
O569 O 0.66642 0.05167 0.6674 0.0
N570 N 0.79267 0.15249 0.70266 0.0
C571 C 0.81953 0.15209 0.62736 0.0
C572 C 0.78009 0.13388 0.65691 0.0
C573 C 0.84069 0.17761 0.7011 0.0
N574 N 0.8574 0.18076 0.655 0.0
O575 O 0.80098 0.22922 0.75998 0.0
H576 H 0.74423 0.11535 0.64304 0.0
H577 H 0.86251 0.19615 0.73236 0.0
O578 O 0.70192 0.09335 0.73592 0.0
C579 C 0.84171 0.26771 0.75674 0.0
O580 O 0.87274 0.27254 0.72303 0.0
N581 N 0.73194 0.18289 0.6863 0.0
C582 C 0.71519 0.19744 0.58982 0.0
C583 C 0.678 0.16295 0.61891 0.0
C584 C 0.68703 0.15683 0.66765 0.0
C585 C 0.76614 0.22052 0.66006 0.0
C586 C 0.75843 0.22857 0.612 0.0
H587 H 0.65897 0.12892 0.68915 0.0
H588 H 0.80173 0.24132 0.67314 0.0
H589 H 0.68554 0.11826 0.83672 0.0
H590 H 0.6368 0.21388 0.80403 0.0
H591 H 0.81942 0.14862 0.58791 0.0
H592 H 0.64353 0.13829 0.60334 0.0
H593 H 0.78762 0.25635 0.59119 0.0
C594 C 0.57254 0.20385 0.27219 0.0
C595 C 0.60075 0.19562 0.3037 0.0
N596 N 0.57186 0.16052 0.33436 0.0
N597 N 0.52603 0.17252 0.2815 0.0
C598 C 0.52679 0.14756 0.32073 0.0
H599 H 0.58547 0.23007 0.24313 0.0
Co600 Co 0.47386 0.16258 0.24332 0.0
C601 C 0.44351 0.05369 0.21512 0.0
O602 O 0.44752 0.05167 0.16741 0.0
N603 N 0.42209 0.15249 0.20267 0.0
C604 C 0.39482 0.15209 0.12738 0.0
C605 C 0.41605 0.13387 0.15693 0.0
C606 C 0.39919 0.17761 0.20112 0.0
N607 N 0.38563 0.18076 0.15501 0.0
O608 O 0.49053 0.22923 0.25997 0.0
H609 H 0.43338 0.11534 0.14305 0.0
H610 H 0.39592 0.19616 0.23237 0.0
O611 O 0.45369 0.09334 0.23594 0.0
C612 C 0.48829 0.26772 0.25672 0.0
O613 O 0.46207 0.27253 0.22302 0.0
N614 N 0.51321 0.18287 0.1863 0.0
C615 C 0.54451 0.19741 0.08982 0.0
C616 C 0.54722 0.16292 0.11892 0.0
C617 C 0.53207 0.15681 0.16765 0.0
C618 C 0.51664 0.2205 0.16006 0.0
C619 C 0.5324 0.22854 0.112 0.0
H620 H 0.53222 0.1289 0.18917 0.0
H621 H 0.50184 0.24129 0.17313 0.0
H622 H 0.49501 0.11824 0.33671 0.0
H623 H 0.63936 0.21388 0.30401 0.0
H624 H 0.39146 0.14861 0.08793 0.0
H625 H 0.55703 0.13826 0.10335 0.0
H626 H 0.53099 0.25632 0.09118 0.0
C627 C 0.87404 0.3843 0.27219 0.0
C628 C 0.88227 0.42074 0.3037 0.0
N629 N 0.91737 0.42694 0.33436 0.0
N630 N 0.90537 0.36912 0.2815 0.0
C631 C 0.93033 0.39484 0.32073 0.0
H632 H 0.84782 0.37102 0.24313 0.0
Co633 Co 0.91531 0.32689 0.24332 0.0
C634 C 1.0242 0.40542 0.21511 0.0
O635 O 1.02622 0.41144 0.1674 0.0
N636 N 0.9254 0.2852 0.20267 0.0
C637 C 0.9258 0.25834 0.12737 0.0
C638 C 0.94401 0.29778 0.15692 0.0
C639 C 0.90029 0.23719 0.20112 0.0
N640 N 0.89714 0.22048 0.15501 0.0
O641 O 0.84866 0.27691 0.25997 0.0
H642 H 0.96254 0.33365 0.14304 0.0
H643 H 0.88174 0.21537 0.23237 0.0
O644 O 0.98455 0.37596 0.23594 0.0
C645 C 0.81018 0.23618 0.25672 0.0
O646 O 0.80536 0.20515 0.22302 0.0
N647 N 0.89502 0.34595 0.1863 0.0
C648 C 0.88047 0.36271 0.08983 0.0
C649 C 0.91496 0.3999 0.11892 0.0
C650 C 0.92107 0.39087 0.16765 0.0
C651 C 0.85739 0.31175 0.16006 0.0
C652 C 0.84934 0.31947 0.112 0.0
H653 H 0.94898 0.41892 0.18916 0.0
H654 H 0.83659 0.27616 0.17313 0.0
H655 H 0.95965 0.39237 0.33671 0.0
H656 H 0.86402 0.44109 0.30402 0.0
H657 H 0.92927 0.25845 0.08792 0.0
H658 H 0.93962 0.43437 0.10335 0.0
H659 H 0.82156 0.29028 0.09119 0.0
C660 C 0.6936 0.50535 0.27219 0.0
C661 C 0.65717 0.47714 0.3037 0.0
N662 N 0.65096 0.50603 0.33436 0.0
N663 N 0.70878 0.55186 0.2815 0.0
C664 C 0.68306 0.5511 0.32073 0.0
H665 H 0.70689 0.49242 0.24313 0.0
Co666 Co 0.75101 0.60403 0.24332 0.0
C667 C 0.67248 0.63438 0.21511 0.0
O668 O 0.66645 0.63038 0.16741 0.0
N669 N 0.79269 0.6558 0.20267 0.0
C670 C 0.81955 0.68306 0.12737 0.0
C671 C 0.78011 0.66183 0.15692 0.0
C672 C 0.84071 0.6787 0.20112 0.0
N673 N 0.85742 0.69226 0.15501 0.0
O674 O 0.80099 0.58736 0.25997 0.0
H675 H 0.74425 0.6445 0.14304 0.0
H676 H 0.86252 0.68197 0.23237 0.0
O677 O 0.70193 0.62419 0.23594 0.0
C678 C 0.84172 0.5896 0.25672 0.0
O679 O 0.87275 0.61582 0.22302 0.0
N680 N 0.73195 0.56467 0.1863 0.0
C681 C 0.71519 0.53337 0.08982 0.0
C682 C 0.678 0.53067 0.11892 0.0
C683 C 0.68703 0.54581 0.16765 0.0
C684 C 0.76615 0.56124 0.16006 0.0
C685 C 0.75843 0.54548 0.112 0.0
H686 H 0.65898 0.54567 0.18917 0.0
H687 H 0.80173 0.57603 0.17313 0.0
H688 H 0.68552 0.58288 0.33671 0.0
H689 H 0.63681 0.43853 0.30402 0.0
H690 H 0.81944 0.68642 0.08792 0.0
H691 H 0.64353 0.52085 0.10335 0.0
H692 H 0.78762 0.54689 0.09118 0.0
C693 C 0.55276 0.22368 0.85355 0.0
C694 C 0.54453 0.25189 0.82204 0.0
N695 N 0.50947 0.223 0.79133 0.0
N696 N 0.52145 0.17717 0.84421 0.0
C697 C 0.49653 0.17794 0.80495 0.0
H698 H 0.57894 0.23661 0.88264 0.0
Co699 Co 0.51148 0.12497 0.88236 0.0
C700 C 0.40262 0.09469 0.91058 0.0
O701 O 0.4006 0.09873 0.95828 0.0
N702 N 0.50135 0.07317 0.92298 0.0
C703 C 0.50082 0.04578 -0.00176 0.0
C704 C 0.48271 0.06712 0.96871 0.0
C705 C 0.52639 0.05019 0.92451 0.0
N706 N 0.52943 0.0365 0.97059 0.0
O707 O 0.57811 0.14161 0.86571 0.0
H708 H 0.46422 0.08449 -0.01739 0.0
H709 H 0.54495 0.04693 0.89326 0.0
O710 O 0.44225 0.10485 0.88975 0.0
C711 C 0.61657 0.13932 0.86895 0.0
O712 O 0.62134 0.11304 0.90261 0.0
N713 N 0.53179 0.1643 0.9394 0.0
C714 C 0.54635 0.19557 0.03589 0.0
C715 C 0.51189 0.19832 0.0068 0.0
C716 C 0.50576 0.18319 0.95806 0.0
C717 C 0.56939 0.16767 0.96565 0.0
C718 C 0.57745 0.18341 0.01371 0.0
H719 H 0.47788 0.18338 0.93655 0.0
H720 H 0.59015 0.15284 0.95257 0.0
H721 H 0.46723 0.14615 0.78894 0.0
H722 H 0.56277 0.2905 0.82174 0.0
H723 H 0.49733 0.0424 0.03768 0.0
H724 H 0.48725 0.20817 0.02237 0.0
H725 H 0.6052 0.18196 0.03452 0.0
C726 C 0.85421 0.34468 0.85355 0.0
C727 C 0.826 0.30825 0.82204 0.0
N728 N 0.85489 0.30207 0.79134 0.0
N729 N 0.90072 0.35988 0.84421 0.0
C730 C 0.89995 0.33419 0.80495 0.0
H731 H 0.84128 0.35794 0.88264 0.0
Co732 Co 0.95291 0.40211 0.88236 0.0
C733 C 0.9832 0.32353 0.91058 0.0
O734 O 0.97917 0.31749 0.95828 0.0
N735 N 1.00471 0.44378 0.92299 0.0
C736 C 1.0321 0.47064 -0.00176 0.0
C737 C 1.01076 0.43119 0.96872 0.0
C738 C 1.0277 0.4918 0.92452 0.0
N739 N 1.0414 0.50853 0.97059 0.0
O740 O 0.93628 0.45211 0.86571 0.0
H741 H 0.99339 0.39534 -0.01739 0.0
H742 H 1.03097 0.51362 0.89327 0.0
O743 O 0.97304 0.35301 0.88975 0.0
C744 C 0.93857 0.49286 0.86895 0.0
O745 O 0.96485 0.5239 0.90261 0.0
N746 N 0.91359 0.3831 0.9394 0.0
C747 C 0.88231 0.36639 0.03589 0.0
C748 C 0.87956 0.32917 0.0068 0.0
C749 C 0.8947 0.33818 0.95806 0.0
C750 C 0.91021 0.41733 0.96565 0.0
C751 C 0.89447 0.40964 0.01371 0.0
H752 H 0.89451 0.3101 0.93655 0.0
H753 H 0.92504 0.45292 0.95257 0.0
H754 H 0.93174 0.33668 0.78894 0.0
H755 H 0.78739 0.28788 0.82174 0.0
H756 H 1.03549 0.47054 0.03768 0.0
H757 H 0.86972 0.29469 0.02237 0.0
H758 H 0.89592 0.43885 0.03453 0.0
C759 C 0.73322 0.52513 0.85355 0.0
C760 C 0.76965 0.53336 0.82204 0.0
N761 N 0.77582 0.56842 0.79134 0.0
N762 N 0.71801 0.55644 0.84421 0.0
C763 C 0.74371 0.58137 0.80495 0.0
H764 H 0.71996 0.49894 0.88264 0.0
Co765 Co 0.67578 0.56641 0.88237 0.0
C766 C 0.75436 0.67527 0.91059 0.0
O767 O 0.7604 0.67729 0.95829 0.0
N768 N 0.63411 0.57653 0.92299 0.0
C769 C 0.60725 0.57706 -0.00176 0.0
C770 C 0.6467 0.59517 0.96872 0.0
C771 C 0.5861 0.5515 0.92452 0.0
N772 N 0.56936 0.54846 0.9706 0.0
O773 O 0.62579 0.49978 0.86571 0.0
H774 H 0.68256 0.61365 -0.01738 0.0
H775 H 0.56427 0.53295 0.89327 0.0
O776 O 0.72488 0.63563 0.88975 0.0
C777 C 0.58504 0.46132 0.86895 0.0
O778 O 0.554 0.45655 0.90261 0.0
N779 N 0.6948 0.54609 0.9394 0.0
C780 C 0.71151 0.53153 0.03589 0.0
C781 C 0.74873 0.56599 0.0068 0.0
C782 C 0.73972 0.57212 0.95806 0.0
C783 C 0.66057 0.50849 0.96565 0.0
C784 C 0.66826 0.50043 0.01371 0.0
H785 H 0.76779 0.60001 0.93655 0.0
H786 H 0.62498 0.48772 0.95257 0.0
H787 H 0.74121 0.61066 0.78895 0.0
H788 H 0.79003 0.51512 0.82174 0.0
H789 H 0.60736 0.58056 0.03769 0.0
H790 H 0.78321 0.59063 0.02237 0.0
H791 H 0.63905 0.47268 0.03452 0.0
C792 C 0.52089 0.85847 0.68689 0.0
C793 C 0.49269 0.86668 0.65536 0.0
N794 N 0.52158 0.90172 0.62464 0.0
N795 N 0.56741 0.88978 0.67755 0.0
C796 C 0.56665 0.91469 0.63828 0.0
H797 H 0.50796 0.8323 0.71599 0.0
Co798 Co 0.61959 0.89973 0.71572 0.0
C799 C 0.64991 1.00862 0.74392 0.0
O800 O 0.64589 1.01065 0.79162 0.0
N801 N 0.67138 0.90984 0.75636 0.0
C802 C 0.69864 0.91026 0.83166 0.0
C803 C 0.67742 0.92847 0.8021 0.0
C804 C 0.69426 0.88471 0.75792 0.0
N805 N 0.70783 0.88157 0.80403 0.0
O806 O 0.60294 0.8331 0.69907 0.0
H807 H 0.6601 0.94702 0.81596 0.0
H808 H 0.69753 0.86615 0.72667 0.0
O809 O 0.63974 0.96897 0.7231 0.0
C810 C 0.60518 0.7946 0.70231 0.0
O811 O 0.63138 0.78977 0.73601 0.0
N812 N 0.58025 0.87944 0.77275 0.0
C813 C 0.54895 0.86488 0.86922 0.0
C814 C 0.54624 0.89937 0.84013 0.0
C815 C 0.56138 0.90549 0.7914 0.0
C816 C 0.57684 0.84182 0.79899 0.0
C817 C 0.56108 0.83377 0.84705 0.0
H818 H 0.56122 0.93339 0.76989 0.0
H819 H 0.59165 0.82104 0.78592 0.0
H820 H 0.59844 0.94398 0.62228 0.0
H821 H 0.45408 0.84846 0.65507 0.0
H822 H 0.70201 0.91374 0.8711 0.0
H823 H 0.53641 0.92402 0.8557 0.0
H824 H 0.56251 0.806 0.86787 0.0
C825 C 0.21943 0.67802 0.68689 0.0
C826 C 0.21121 0.6416 0.65536 0.0
N827 N 0.17617 0.63546 0.62464 0.0
N828 N 0.18812 0.69323 0.67755 0.0
C829 C 0.16321 0.66756 0.63828 0.0
H830 H 0.2456 0.69126 0.71599 0.0
Co831 Co 0.17817 0.73546 0.71572 0.0
C832 C 0.06929 0.6569 0.74392 0.0
O833 O 0.06726 0.65086 0.79163 0.0
N834 N 0.16806 0.77714 0.75636 0.0
C835 C 0.16765 0.80399 0.83166 0.0
C836 C 0.14943 0.76455 0.8021 0.0
C837 C 0.19318 0.82515 0.75792 0.0
N838 N 0.19632 0.84186 0.80403 0.0
O839 O 0.24481 0.78545 0.69907 0.0
H840 H 0.13089 0.72869 0.81598 0.0
H841 H 0.21174 0.84697 0.72667 0.0
O842 O 0.10893 0.68637 0.7231 0.0
C843 C 0.2833 0.82618 0.70231 0.0
O844 O 0.28812 0.85721 0.73601 0.0
N845 N 0.19847 0.71642 0.77275 0.0
C846 C 0.21302 0.69967 0.86922 0.0
C847 C 0.17854 0.66247 0.84013 0.0
C848 C 0.17242 0.6715 0.7914 0.0
C849 C 0.23609 0.75063 0.79899 0.0
C850 C 0.24414 0.74291 0.84705 0.0
H851 H 0.14452 0.64344 0.76989 0.0
H852 H 0.25687 0.78621 0.78592 0.0
H853 H 0.13391 0.67006 0.62228 0.0
H854 H 0.22943 0.62122 0.65506 0.0
H855 H 0.16416 0.80387 0.87111 0.0
H856 H 0.15389 0.628 0.8557 0.0
H857 H 0.27191 0.77211 0.86786 0.0
C858 C 0.39987 0.55701 0.68689 0.0
C859 C 0.43628 0.58521 0.65536 0.0
N860 N 0.44243 0.55632 0.62464 0.0
N861 N 0.38466 0.51049 0.67755 0.0
C862 C 0.41034 0.51125 0.63828 0.0
H863 H 0.38663 0.56995 0.71599 0.0
Co864 Co 0.34243 0.45831 0.71572 0.0
C865 C 0.421 0.42799 0.74392 0.0
O866 O 0.42704 0.43201 0.79162 0.0
N867 N 0.30076 0.40653 0.75636 0.0
C868 C 0.2739 0.37926 0.83166 0.0
C869 C 0.31334 0.40048 0.8021 0.0
C870 C 0.25274 0.38364 0.75792 0.0
N871 N 0.23604 0.37007 0.80403 0.0
O872 O 0.29244 0.47496 0.69907 0.0
H873 H 0.34921 0.41781 0.81597 0.0
H874 H 0.23092 0.38037 0.72667 0.0
O875 O 0.39152 0.43816 0.7231 0.0
C876 C 0.25172 0.47273 0.70231 0.0
O877 O 0.22068 0.44652 0.73602 0.0
N878 N 0.36148 0.49765 0.77275 0.0
C879 C 0.37822 0.52896 0.86923 0.0
C880 C 0.41542 0.53167 0.84014 0.0
C881 C 0.40639 0.51652 0.7914 0.0
C882 C 0.32727 0.50107 0.79899 0.0
C883 C 0.33498 0.51683 0.84705 0.0
H884 H 0.43446 0.51668 0.76989 0.0
H885 H 0.29168 0.48626 0.78592 0.0
H886 H 0.40784 0.47946 0.62228 0.0
H887 H 0.45667 0.62382 0.65506 0.0
H888 H 0.27402 0.37589 0.87111 0.0
H889 H 0.4499 0.5415 0.8557 0.0
H890 H 0.30579 0.51541 0.86787 0.0
C891 C 0.54069 0.83865 0.1055 0.0
C892 C 0.5489 0.81045 0.13703 0.0
N893 N 0.58395 0.83935 0.16775 0.0
N894 N 0.57199 0.88517 0.11484 0.0
C895 C 0.59691 0.88441 0.15411 0.0
H896 H 0.51451 0.82572 0.0764 0.0
Co897 Co 0.58196 0.93735 0.07667 0.0
C898 C 0.69083 0.96764 0.04847 0.0
O899 O 0.69286 0.96359 0.00077 0.0
N900 N 0.59207 0.98914 0.03603 0.0
C901 C 0.5925 1.0164 0.96072 0.0
C902 C 0.61071 0.99519 -0.00971 0.0
C903 C 0.56694 1.01202 0.03445 0.0
N904 N 0.56381 1.02559 -0.01166 0.0
O905 O 0.51532 0.92072 0.09332 0.0
H906 H 0.62926 0.97787 0.97643 0.0
H907 H 0.54838 1.01529 0.0657 0.0
O908 O 0.65119 0.95749 0.06928 0.0
C909 C 0.47683 0.92295 0.09008 0.0
O910 O 0.47199 0.94915 0.05637 0.0
N911 N 0.56165 0.89801 0.01964 0.0
C912 C 0.54711 0.86673 0.92316 0.0
C913 C 0.58158 0.86399 0.95225 0.0
C914 C 0.5877 0.87913 0.00099 0.0
C915 C 0.52404 0.89461 -0.00661 0.0
C916 C 0.51599 0.87886 0.94533 0.0
H917 H 0.61559 0.87896 0.0225 0.0
H918 H 0.50326 0.90943 0.00646 0.0
H919 H 0.62621 0.9162 0.17011 0.0
H920 H 0.53068 0.77185 0.13733 0.0
H921 H 0.59599 1.01977 0.92128 0.0
H922 H 0.60622 0.85416 0.93669 0.0
H923 H 0.48823 0.8803 0.92451 0.0
C924 C 0.23925 0.71764 0.1055 0.0
C925 C 0.26745 0.75405 0.13703 0.0
N926 N 0.23855 0.7602 0.16775 0.0
N927 N 0.19273 0.70243 0.11484 0.0
C928 C 0.19349 0.72811 0.15411 0.0
H929 H 0.25218 0.70439 0.07641 0.0
Co930 Co 0.14055 0.66021 0.07666 0.0
C931 C 0.11026 0.7388 0.04846 0.0
O932 O 0.11431 0.74487 0.00077 0.0
N933 N 0.08877 0.61854 0.03602 0.0
C934 C 0.0615 0.5917 0.96072 0.0
C935 C 0.08272 0.63113 -0.00972 0.0
C936 C 0.06588 0.57053 0.03445 0.0
N937 N 0.05231 0.55383 -0.01166 0.0
O938 O 0.15719 0.61021 0.09332 0.0
H939 H 0.10004 0.667 0.97642 0.0
H940 H 0.06261 0.5487 0.06569 0.0
O941 O 0.12041 0.70931 0.06928 0.0
C942 C 0.15495 0.56948 0.09008 0.0
O943 O 0.12875 0.53845 0.05637 0.0
N944 N 0.17989 0.67925 0.01964 0.0
C945 C 0.21118 0.69598 0.92316 0.0
C946 C 0.21391 0.73319 0.95225 0.0
C947 C 0.19877 0.72417 0.00099 0.0
C948 C 0.1833 0.64503 -0.00661 0.0
C949 C 0.19905 0.65274 0.94533 0.0
H950 H 0.19894 0.75223 0.0225 0.0
H951 H 0.16849 0.60945 0.00646 0.0
H952 H 0.1617 0.72562 0.1701 0.0
H953 H 0.30605 0.77443 0.13733 0.0
H954 H 0.05814 0.59182 0.92127 0.0
H955 H 0.22375 0.76767 0.93669 0.0
H956 H 0.19762 0.62354 0.92451 0.0
C957 C 0.36025 0.53721 0.10551 0.0
C958 C 0.32383 0.52899 0.13704 0.0
N959 N 0.31769 0.49395 0.16775 0.0
N960 N 0.37546 0.50591 0.11484 0.0
C961 C 0.34979 0.48099 0.1541 0.0
H962 H 0.37349 0.56339 0.07641 0.0
Co963 Co 0.41769 0.49595 0.07666 0.0
C964 C 0.3391 0.38707 0.04846 0.0
O965 O 0.33303 0.38505 0.00076 0.0
N966 N 0.45936 0.48583 0.03602 0.0
C967 C 0.4862 0.48541 0.96072 0.0
C968 C 0.44676 0.4672 -0.00972 0.0
C969 C 0.50737 0.51096 0.03445 0.0
N970 N 0.52407 0.51409 -0.01166 0.0
O971 O 0.46768 0.56258 0.09332 0.0
H972 H 0.4109 0.44865 0.97642 0.0
H973 H 0.5292 0.52951 0.0657 0.0
O974 O 0.36859 0.42671 0.06928 0.0
C975 C 0.50841 0.60107 0.09008 0.0
O976 O 0.53944 0.6059 0.05637 0.0
N977 N 0.39865 0.51625 0.01964 0.0
C978 C 0.38191 0.5308 0.92316 0.0
C979 C 0.34471 0.49633 0.95225 0.0
C980 C 0.35373 0.49021 0.00099 0.0
C981 C 0.43286 0.55387 -0.00661 0.0
C982 C 0.42515 0.56192 0.94533 0.0
H983 H 0.32566 0.46232 0.0225 0.0
H984 H 0.46845 0.57465 0.00646 0.0
H985 H 0.35228 0.45169 0.1701 0.0
H986 H 0.30345 0.54722 0.13734 0.0
H987 H 0.48607 0.48192 0.92127 0.0
H988 H 0.31023 0.47168 0.93669 0.0
H989 H 0.45435 0.58968 0.92451 0.0
C990 C 0.23923 0.53721 0.6055 0.0
C991 C 0.26744 0.52898 0.63702 0.0
N992 N 0.23854 0.49392 0.66771 0.0
N993 N 0.19272 0.5059 0.61484 0.0
C994 C 0.19348 0.48097 0.65409 0.0
H995 H 0.25216 0.5634 0.57642 0.0
Co996 Co 0.14053 0.49594 0.57667 0.0
C997 C 0.11023 0.38706 0.54847 0.0
O998 O 0.11429 0.38505 0.50077 0.0
N999 N 0.08875 0.48583 0.53603 0.0
C1000 C 0.06148 0.4854 0.46073 0.0
C1001 C 0.0827 0.46719 0.4903 0.0
C1002 C 0.06586 0.51096 0.53446 0.0
N1003 N 0.05229 0.51409 0.48836 0.0
O1004 O 0.15719 0.56258 0.59331 0.0
H1005 H 0.10002 0.44864 0.47643 0.0
H1006 H 0.06259 0.52952 0.56571 0.0
O1007 O 0.12039 0.42671 0.56929 0.0
C1008 C 0.15495 0.60108 0.59007 0.0
O1009 O 0.12874 0.6059 0.55637 0.0
N1010 N 0.17987 0.51624 0.51964 0.0
C1011 C 0.21116 0.53078 0.42316 0.0
C1012 C 0.21389 0.49631 0.45226 0.0
C1013 C 0.19875 0.49019 0.501 0.0
C1014 C 0.18327 0.55385 0.49339 0.0
C1015 C 0.19903 0.56189 0.44533 0.0
H1016 H 0.19892 0.4623 0.52251 0.0
H1017 H 0.16846 0.57462 0.50645 0.0
H1018 H 0.16169 0.45167 0.6701 0.0
H1019 H 0.30604 0.54722 0.63732 0.0
H1020 H 0.05811 0.48191 0.42129 0.0
H1021 H 0.22372 0.47166 0.4367 0.0
H1022 H 0.19759 0.58965 0.42451 0.0
C1023 C 0.54068 0.71763 0.60551 0.0
C1024 C 0.54891 0.75407 0.63702 0.0
N1025 N 0.58398 0.76024 0.66771 0.0
N1026 N 0.57199 0.70242 0.61484 0.0
C1027 C 0.59692 0.72812 0.65409 0.0
H1028 H 0.51449 0.70438 0.57642 0.0
Co1029 Co 0.58194 0.6602 0.57667 0.0
C1030 C 0.69082 0.73877 0.54846 0.0
O1031 O 0.69284 0.74483 0.50077 0.0
N1032 N 0.59205 0.61852 0.53603 0.0
C1033 C 0.59248 0.59168 0.46073 0.0
C1034 C 0.61069 0.63111 0.49029 0.0
C1035 C 0.56694 0.57051 0.53446 0.0
N1036 N 0.5638 0.55381 0.48835 0.0
O1037 O 0.51531 0.61021 0.59331 0.0
H1038 H 0.62923 0.66698 0.47642 0.0
H1039 H 0.54838 0.54868 0.56571 0.0
O1040 O 0.65118 0.70929 0.56929 0.0
C1041 C 0.47682 0.56948 0.59007 0.0
O1042 O 0.472 0.53845 0.55637 0.0
N1043 N 0.56165 0.67924 0.51964 0.0
C1044 C 0.5471 0.69599 0.42316 0.0
C1045 C 0.58158 0.73319 0.45226 0.0
C1046 C 0.58769 0.72416 0.501 0.0
C1047 C 0.52404 0.64503 0.49339 0.0
C1048 C 0.51599 0.65274 0.44533 0.0
H1049 H 0.61559 0.75223 0.52251 0.0
H1050 H 0.50326 0.60944 0.50646 0.0
H1051 H 0.62622 0.72562 0.67009 0.0
H1052 H 0.53068 0.77444 0.63733 0.0
H1053 H 0.59597 0.5918 0.42128 0.0
H1054 H 0.60623 0.76767 0.4367 0.0
H1055 H 0.48823 0.62355 0.42451 0.0
C1056 C 0.36027 0.83865 0.60551 0.0
C1057 C 0.32384 0.81045 0.63702 0.0
N1058 N 0.31766 0.83935 0.66771 0.0
N1059 N 0.37547 0.88517 0.61484 0.0
C1060 C 0.34978 0.88441 0.65409 0.0
H1061 H 0.37353 0.82572 0.57642 0.0
Co1062 Co 0.4177 0.93735 0.57667 0.0
C1063 C 0.33912 0.96766 0.54847 0.0
O1064 O 0.33306 0.96361 0.50077 0.0
N1065 N 0.45937 0.98914 0.53603 0.0
C1066 C 0.48622 1.01641 0.46073 0.0
C1067 C 0.44678 0.99518 0.49029 0.0
C1068 C 0.50739 1.01203 0.53446 0.0
N1069 N 0.52409 1.0256 0.48835 0.0
O1070 O 0.46769 0.9207 0.59331 0.0
H1071 H 0.41092 0.97786 0.47642 0.0
H1072 H 0.52921 1.0153 0.56571 0.0
O1073 O 0.36861 0.9575 0.56929 0.0
C1074 C 0.50842 0.92294 0.59006 0.0
O1075 O 0.53945 0.94915 0.55637 0.0
N1076 N 0.39866 0.89801 0.51964 0.0
C1077 C 0.38191 0.86672 0.42316 0.0
C1078 C 0.34471 0.86399 0.45226 0.0
C1079 C 0.35373 0.87913 0.50099 0.0
C1080 C 0.43287 0.89461 0.49339 0.0
C1081 C 0.42515 0.87885 0.44533 0.0
H1082 H 0.32567 0.87896 0.52251 0.0
H1083 H 0.46845 0.90942 0.50645 0.0
H1084 H 0.35227 0.9162 0.67009 0.0
H1085 H 0.30346 0.77184 0.63732 0.0
H1086 H 0.4861 1.01978 0.42128 0.0
H1087 H 0.31023 0.85416 0.4367 0.0
H1088 H 0.45435 0.88028 0.42451 0.0
C1089 C 0.21942 0.557 0.18689 0.0
C1090 C 0.2112 0.5852 0.15538 0.0
N1091 N 0.17614 0.55631 0.12468 0.0
N1092 N 0.18812 0.51048 0.17755 0.0
C1093 C 0.16319 0.51125 0.1383 0.0
H1094 H 0.24561 0.56993 0.21598 0.0
Co1095 Co 0.17817 0.4583 0.21572 0.0
C1096 C 0.06928 0.42796 0.24392 0.0
O1097 O 0.06726 0.43199 0.29162 0.0
N1098 N 0.16806 0.40651 0.25635 0.0
C1099 C 0.16764 0.37923 0.33164 0.0
C1100 C 0.14943 0.40046 0.30209 0.0
C1101 C 0.19319 0.38362 0.25791 0.0
N1102 N 0.19632 0.37005 0.30401 0.0
O1103 O 0.24481 0.47496 0.19908 0.0
H1104 H 0.13088 0.41778 0.31596 0.0
H1105 H 0.21175 0.38035 0.22666 0.0
O1106 O 0.10892 0.43814 0.22309 0.0
C1107 C 0.2833 0.47272 0.20232 0.0
O1108 O 0.28812 0.4465 0.23601 0.0
N1109 N 0.19845 0.49763 0.27275 0.0
C1110 C 0.213 0.52893 0.36922 0.0
C1111 C 0.17852 0.53164 0.34013 0.0
C1112 C 0.1724 0.5165 0.2914 0.0
C1113 C 0.23607 0.50104 0.299 0.0
C1114 C 0.24412 0.5168 0.34706 0.0
H1115 H 0.1445 0.51666 0.26988 0.0
H1116 H 0.25685 0.48623 0.28593 0.0
H1117 H 0.1339 0.47946 0.12229 0.0
H1118 H 0.22943 0.62381 0.15508 0.0
H1119 H 0.16415 0.37586 0.37109 0.0
H1120 H 0.15387 0.54147 0.3557 0.0
H1121 H 0.27188 0.51537 0.36787 0.0
C1122 C 0.52089 0.67803 0.18689 0.0
C1123 C 0.49269 0.6416 0.15538 0.0
N1124 N 0.52158 0.63543 0.12468 0.0
N1125 N 0.56741 0.69324 0.17755 0.0
C1126 C 0.56665 0.66755 0.1383 0.0
H1127 H 0.50796 0.69129 0.21598 0.0
Co1128 Co 0.61959 0.73547 0.21572 0.0
C1129 C 0.64993 0.65692 0.24392 0.0
O1130 O 0.6459 0.65087 0.29162 0.0
N1131 N 0.67138 0.77716 0.25635 0.0
C1132 C 0.69866 0.80401 0.33165 0.0
C1133 C 0.67743 0.76457 0.30209 0.0
C1134 C 0.69427 0.82517 0.25791 0.0
N1135 N 0.70785 0.84188 0.30401 0.0
O1136 O 0.60293 0.78546 0.19908 0.0
H1137 H 0.66011 0.72871 0.31597 0.0
H1138 H 0.69754 0.84699 0.22666 0.0
O1139 O 0.63975 0.68639 0.2231 0.0
C1140 C 0.60517 0.82618 0.20232 0.0
O1141 O 0.63139 0.85722 0.23602 0.0
N1142 N 0.58026 0.71643 0.27275 0.0
C1143 C 0.54896 0.69968 0.36923 0.0
C1144 C 0.54624 0.66248 0.34014 0.0
C1145 C 0.56139 0.67151 0.2914 0.0
C1146 C 0.57685 0.75064 0.299 0.0
C1147 C 0.56109 0.74293 0.34706 0.0
H1148 H 0.56123 0.64345 0.26989 0.0
H1149 H 0.59165 0.78623 0.28593 0.0
H1150 H 0.59843 0.67004 0.12229 0.0
H1151 H 0.45408 0.62123 0.15508 0.0
H1152 H 0.70203 0.8039 0.37109 0.0
H1153 H 0.53642 0.628 0.3557 0.0
H1154 H 0.56251 0.77212 0.36787 0.0
C1155 C 0.39987 0.85847 0.18689 0.0
C1156 C 0.4363 0.8667 0.15538 0.0
N1157 N 0.44247 0.90176 0.12468 0.0
N1158 N 0.38466 0.88977 0.17755 0.0
C1159 C 0.41035 0.9147 0.1383 0.0
H1160 H 0.38661 0.83228 0.21598 0.0
Co1161 Co 0.34242 0.89972 0.21572 0.0
C1162 C 0.42097 1.00861 0.24392 0.0
O1163 O 0.42701 1.01063 0.29163 0.0
N1164 N 0.30074 0.90983 0.25635 0.0
C1165 C 0.27388 0.91025 0.33165 0.0
C1166 C 0.31332 0.92846 0.3021 0.0
C1167 C 0.25273 0.88471 0.25791 0.0
N1168 N 0.23602 0.88157 0.30401 0.0
O1169 O 0.29244 0.83308 0.19908 0.0
H1170 H 0.34918 0.94699 0.31597 0.0
H1171 H 0.23091 0.86615 0.22666 0.0
O1172 O 0.3915 0.96896 0.2231 0.0
C1173 C 0.25172 0.79459 0.20232 0.0
O1174 O 0.22068 0.78978 0.23601 0.0
N1175 N 0.36147 0.87943 0.27275 0.0
C1176 C 0.37822 0.86488 0.36922 0.0
C1177 C 0.41541 0.89936 0.34014 0.0
C1178 C 0.40639 0.90548 0.2914 0.0
C1179 C 0.32726 0.84181 0.299 0.0
C1180 C 0.33497 0.83376 0.34706 0.0
H1181 H 0.43445 0.93338 0.26989 0.0
H1182 H 0.29167 0.82103 0.28593 0.0
H1183 H 0.40785 0.944 0.1223 0.0
H1184 H 0.45668 0.84847 0.15508 0.0
H1185 H 0.274 0.91373 0.37109 0.0
H1186 H 0.44989 0.92401 0.3557 0.0
H1187 H 0.30578 0.80599 0.36787 0.0
loop_
_geom_bond_atom_site_label_1
_geom_bond_atom_site_label_2
_geom_bond_distance
_geom_bond_site_symmetry_2
_ccdc_geom_bond_type
C0 C1 1.351 . S
C0 N3 1.368 . S
C0 H5 0.931 . S
C1 C0 1.351 . S
C1 N2 1.373 . S
C1 H29 0.930 . S
N2 C1 1.373 . S
N2 C4 1.340 . S
N3 C0 1.368 . S
N3 C4 1.321 . S
N3 Co6 2.135 . S
C4 N2 1.340 . S
C4 N3 1.321 . S
C4 H28 0.930 . S
H5 C0 0.931 . S
Co6 N3 2.135 . S
Co6 N9 2.121 . S
Co6 O14 2.055 . S
Co6 O17 2.039 . S
Co6 N20 2.140 . S
C7 O8 1.227 . S
C7 O17 1.265 . S
O8 C7 1.227 . S
N9 Co6 2.121 . S
N9 C11 1.375 . S
N9 C12 1.313 . S
C10 C11 1.338 . S
C10 N13 1.377 . S
C10 H30 0.930 . S
C11 N9 1.375 . S
C11 C10 1.338 . S
C11 H15 0.931 . S
C12 N9 1.313 . S
C12 N13 1.344 . S
C12 H16 0.930 . S
N13 C10 1.377 . S
N13 C12 1.344 . S
O14 Co6 2.055 . S
O14 C18 1.253 . S
H15 C11 0.931 . S
H16 C12 0.930 . S
O17 Co6 2.039 . S
O17 C7 1.265 . S
C18 O14 1.253 . S
C18 O19 1.227 . S
O19 C18 1.227 . S
N20 Co6 2.140 . S
N20 C23 1.346 . S
N20 C24 1.345 . S
C21 C22 1.387 . S
C21 C25 1.391 . S
C22 C21 1.387 . S
C22 C23 1.369 . S
C22 H31 0.929 . S
C23 N20 1.346 . S
C23 C22 1.369 . S
C23 H26 0.928 . S
C24 N20 1.345 . S
C24 C25 1.371 . S
C24 H27 0.931 . S
C25 C21 1.391 . S
C25 C24 1.371 . S
C25 H32 0.930 . S
H26 C23 0.928 . S
H27 C24 0.931 . S
H28 C4 0.930 . S
H29 C1 0.930 . S
H30 C10 0.930 . S
H31 C22 0.929 . S
H32 C25 0.930 . S
C33 C34 1.351 . S
C33 N36 1.368 . S
C33 H38 0.931 1_565 S
C34 C33 1.351 . S
C34 N35 1.373 . S
C34 H62 0.930 . S
N35 C34 1.373 . S
N35 C37 1.340 . S
N36 C33 1.368 . S
N36 C37 1.321 . S
N36 Co39 2.135 1_565 S
C37 N35 1.340 . S
C37 N36 1.321 . S
C37 H61 0.930 . S
H38 C33 0.931 1_545 S
Co39 N36 2.135 1_545 S
Co39 N42 2.121 . S
Co39 O47 2.055 . S
Co39 O50 2.039 . S
Co39 N53 2.140 . S
C40 O41 1.227 . S
C40 O50 1.265 1_565 S
O41 C40 1.227 . S
N42 Co39 2.121 . S
N42 C44 1.375 . S
N42 C45 1.313 . S
C43 C44 1.338 . S
C43 N46 1.377 . S
C43 H63 0.930 . S
C44 N42 1.375 . S
C44 C43 1.338 . S
C44 H48 0.931 . S
C45 N42 1.313 . S
C45 N46 1.344 . S
C45 H49 0.930 . S
N46 C43 1.377 . S
N46 C45 1.344 . S
O47 Co39 2.055 . S
O47 C51 1.253 . S
H48 C44 0.931 . S
H49 C45 0.930 . S
O50 Co39 2.039 . S
O50 C40 1.265 1_545 S
C51 O47 1.253 . S
C51 O52 1.227 . S
O52 C51 1.227 . S
N53 Co39 2.140 . S
N53 C56 1.346 1_545 S
N53 C57 1.345 . S
C54 C55 1.387 . S
C54 C58 1.391 1_565 S
C55 C54 1.387 . S
C55 C56 1.369 . S
C55 H64 0.929 . S
C56 N53 1.346 1_565 S
C56 C55 1.369 . S
C56 H59 0.928 . S
C57 N53 1.345 . S
C57 C58 1.371 . S
C57 H60 0.931 . S
C58 C54 1.391 1_545 S
C58 C57 1.371 . S
C58 H65 0.930 . S
H59 C56 0.928 . S
H60 C57 0.931 . S
H61 C37 0.930 . S
H62 C34 0.930 . S
H63 C43 0.930 . S
H64 C55 0.929 . S
H65 C58 0.930 . S
C66 C67 1.351 . S
C66 N69 1.368 . S
C66 H71 0.931 1_455 S
C67 C66 1.351 . S
C67 N68 1.373 . S
C67 H95 0.930 . S
N68 C67 1.373 . S
N68 C70 1.340 . S
N69 C66 1.368 . S
N69 C70 1.321 . S
N69 Co72 2.135 1_455 S
C70 N68 1.340 . S
C70 N69 1.321 . S
C70 H94 0.930 . S
H71 C66 0.931 1_655 S
Co72 N69 2.135 1_655 S
Co72 N75 2.121 . S
Co72 O80 2.055 . S
Co72 O83 2.039 . S
Co72 N86 2.140 . S
C73 O74 1.227 . S
C73 O83 1.265 1_455 S
O74 C73 1.227 . S
N75 Co72 2.121 . S
N75 C77 1.375 . S
N75 C78 1.313 . S
C76 C77 1.338 . S
C76 N79 1.377 . S
C76 H96 0.930 . S
C77 N75 1.375 . S
C77 C76 1.338 . S
C77 H81 0.931 . S
C78 N75 1.313 . S
C78 N79 1.344 . S
C78 H82 0.930 . S
N79 C76 1.377 . S
N79 C78 1.344 . S
O80 Co72 2.055 . S
O80 C84 1.253 . S
H81 C77 0.931 . S
H82 C78 0.930 . S
O83 Co72 2.039 . S
O83 C73 1.265 1_655 S
C84 O80 1.253 . S
C84 O85 1.227 . S
O85 C84 1.227 . S
N86 Co72 2.140 . S
N86 C89 1.346 1_655 S
N86 C90 1.345 . S
C87 C88 1.387 . S
C87 C91 1.391 1_455 S
C88 C87 1.387 . S
C88 C89 1.369 . S
C88 H97 0.929 . S
C89 N86 1.346 1_455 S
C89 C88 1.369 . S
C89 H92 0.928 . S
C90 N86 1.345 . S
C90 C91 1.371 . S
C90 H93 0.931 . S
C91 C87 1.391 1_655 S
C91 C90 1.371 . S
C91 H98 0.930 . S
H92 C89 0.928 . S
H93 C90 0.931 . S
H94 C70 0.930 . S
H95 C67 0.930 . S
H96 C76 0.930 . S
H97 C88 0.929 . S
H98 C91 0.930 . S
C99 C100 1.351 . S
C99 N102 1.368 . S
C99 H104 0.931 . S
C100 C99 1.351 . S
C100 N101 1.373 . S
C100 H128 0.930 . S
N101 C100 1.373 . S
N101 C103 1.340 . S
N102 C99 1.368 . S
N102 C103 1.321 . S
N102 Co105 2.135 . S
C103 N101 1.340 . S
C103 N102 1.321 . S
C103 H127 0.930 . S
H104 C99 0.931 . S
Co105 N102 2.135 . S
Co105 N108 2.121 . S
Co105 O113 2.055 . S
Co105 O116 2.039 . S
Co105 N119 2.140 . S
C106 O107 1.227 . S
C106 O116 1.265 . S
O107 C106 1.227 . S
N108 Co105 2.121 . S
N108 C110 1.375 . S
N108 C111 1.313 . S
C109 C110 1.338 . S
C109 N112 1.377 . S
C109 H129 0.930 . S
C110 N108 1.375 . S
C110 C109 1.338 . S
C110 H114 0.931 . S
C111 N108 1.313 . S
C111 N112 1.344 . S
C111 H115 0.930 . S
N112 C109 1.377 . S
N112 C111 1.344 . S
O113 Co105 2.055 . S
O113 C117 1.253 . S
H114 C110 0.931 . S
H115 C111 0.930 . S
O116 Co105 2.039 . S
O116 C106 1.265 . S
C117 O113 1.253 . S
C117 O118 1.227 . S
O118 C117 1.227 . S
N119 Co105 2.140 . S
N119 C122 1.346 . S
N119 C123 1.345 . S
C120 C121 1.387 . S
C120 C124 1.391 . S
C121 C120 1.387 . S
C121 C122 1.369 . S
C121 H130 0.929 . S
C122 N119 1.346 . S
C122 C121 1.369 . S
C122 H125 0.928 . S
C123 N119 1.345 . S
C123 C124 1.371 . S
C123 H126 0.931 . S
C124 C120 1.391 . S
C124 C123 1.371 . S
C124 H131 0.930 . S
H125 C122 0.928 . S
H126 C123 0.931 . S
H127 C103 0.930 . S
H128 C100 0.930 . S
H129 C109 0.930 . S
H130 C121 0.929 . S
H131 C124 0.930 . S
C132 C133 1.351 . S
C132 N135 1.368 . S
C132 H137 0.931 1_545 S
C133 C132 1.351 . S
C133 N134 1.373 . S
C133 H161 0.930 . S
N134 C133 1.373 . S
N134 C136 1.340 . S
N135 C132 1.368 . S
N135 C136 1.321 . S
N135 Co138 2.135 1_545 S
C136 N134 1.340 . S
C136 N135 1.321 . S
C136 H160 0.930 . S
H137 C132 0.931 1_565 S
Co138 N135 2.135 1_565 S
Co138 N141 2.121 . S
Co138 O146 2.055 . S
Co138 O149 2.039 . S
Co138 N152 2.140 . S
C139 O140 1.227 . S
C139 O149 1.265 1_545 S
O140 C139 1.227 . S
N141 Co138 2.121 . S
N141 C143 1.375 . S
N141 C144 1.313 . S
C142 C143 1.338 . S
C142 N145 1.377 . S
C142 H162 0.930 . S
C143 N141 1.375 . S
C143 C142 1.338 . S
C143 H147 0.931 . S
C144 N141 1.313 . S
C144 N145 1.344 . S
C144 H148 0.930 . S
N145 C142 1.377 . S
N145 C144 1.344 . S
O146 Co138 2.055 . S
O146 C150 1.253 . S
H147 C143 0.931 . S
H148 C144 0.930 . S
O149 Co138 2.039 . S
O149 C139 1.265 1_565 S
C150 O146 1.253 . S
C150 O151 1.227 . S
O151 C150 1.227 . S
N152 Co138 2.140 . S
N152 C155 1.346 1_565 S
N152 C156 1.345 . S
C153 C154 1.387 . S
C153 C157 1.391 1_545 S
C154 C153 1.387 . S
C154 C155 1.369 . S
C154 H163 0.929 . S
C155 N152 1.346 1_545 S
C155 C154 1.369 . S
C155 H158 0.928 . S
C156 N152 1.345 . S
C156 C157 1.371 . S
C156 H159 0.931 . S
C157 C153 1.391 1_565 S
C157 C156 1.371 . S
C157 H164 0.930 . S
H158 C155 0.928 . S
H159 C156 0.931 . S
H160 C136 0.930 . S
H161 C133 0.930 . S
H162 C142 0.930 . S
H163 C154 0.929 . S
H164 C157 0.930 . S
C165 C166 1.351 . S
C165 N168 1.368 . S
C165 H170 0.931 1_655 S
C166 C165 1.351 . S
C166 N167 1.373 . S
C166 H194 0.930 . S
N167 C166 1.373 . S
N167 C169 1.340 . S
N168 C165 1.368 . S
N168 C169 1.321 . S
N168 Co171 2.135 1_655 S
C169 N167 1.340 . S
C169 N168 1.321 . S
C169 H193 0.930 . S
H170 C165 0.931 1_455 S
Co171 N168 2.135 1_455 S
Co171 N174 2.121 . S
Co171 O179 2.055 . S
Co171 O182 2.039 . S
Co171 N185 2.140 . S
C172 O173 1.227 . S
C172 O182 1.265 1_655 S
O173 C172 1.227 . S
N174 Co171 2.121 . S
N174 C176 1.375 . S
N174 C177 1.313 . S
C175 C176 1.338 . S
C175 N178 1.377 . S
C175 H195 0.930 . S
C176 N174 1.375 . S
C176 C175 1.338 . S
C176 H180 0.931 . S
C177 N174 1.313 . S
C177 N178 1.344 . S
C177 H181 0.930 . S
N178 C175 1.377 . S
N178 C177 1.344 . S
O179 Co171 2.055 . S
O179 C183 1.253 . S
H180 C176 0.931 . S
H181 C177 0.930 . S
O182 Co171 2.039 . S
O182 C172 1.265 1_455 S
C183 O179 1.253 . S
C183 O184 1.227 . S
O184 C183 1.227 . S
N185 Co171 2.140 . S
N185 C188 1.346 1_455 S
N185 C189 1.345 . S
C186 C187 1.387 . S
C186 C190 1.391 1_655 S
C187 C186 1.387 . S
C187 C188 1.369 . S
C187 H196 0.929 . S
C188 N185 1.346 1_655 S
C188 C187 1.369 . S
C188 H191 0.928 . S
C189 N185 1.345 . S
C189 C190 1.371 . S
C189 H192 0.931 . S
C190 C186 1.391 1_455 S
C190 C189 1.371 . S
C190 H197 0.930 . S
H191 C188 0.928 . S
H192 C189 0.931 . S
H193 C169 0.930 . S
H194 C166 0.930 . S
H195 C175 0.930 . S
H196 C187 0.929 . S
H197 C190 0.930 . S
C198 C199 1.351 . S
C198 N201 1.368 . S
C198 H203 0.931 . S
C199 C198 1.351 . S
C199 N200 1.373 . S
C199 H227 0.930 . S
N200 C199 1.373 . S
N200 C202 1.340 . S
N201 C198 1.368 . S
N201 C202 1.321 . S
N201 Co204 2.135 . S
C202 N200 1.340 . S
C202 N201 1.321 . S
C202 H226 0.930 . S
H203 C198 0.931 . S
Co204 N201 2.135 . S
Co204 N207 2.121 . S
Co204 O212 2.055 . S
Co204 O215 2.039 . S
Co204 N218 2.140 . S
C205 O206 1.227 . S
C205 O215 1.265 . S
O206 C205 1.227 . S
N207 Co204 2.121 . S
N207 C209 1.375 . S
N207 C210 1.313 . S
C208 C209 1.338 . S
C208 N211 1.377 . S
C208 H228 0.930 . S
C209 N207 1.375 . S
C209 C208 1.338 . S
C209 H213 0.931 . S
C210 N207 1.313 . S
C210 N211 1.344 . S
C210 H214 0.930 . S
N211 C208 1.377 . S
N211 C210 1.344 . S
O212 Co204 2.055 . S
O212 C216 1.253 . S
H213 C209 0.931 . S
H214 C210 0.930 . S
O215 Co204 2.039 . S
O215 C205 1.265 . S
C216 O212 1.253 . S
C216 O217 1.227 . S
O217 C216 1.227 . S
N218 Co204 2.140 . S
N218 C221 1.346 . S
N218 C222 1.345 . S
C219 C220 1.387 . S
C219 C223 1.391 . S
C220 C219 1.387 . S
C220 C221 1.369 . S
C220 H229 0.929 . S
C221 N218 1.346 . S
C221 C220 1.369 . S
C221 H224 0.928 . S
C222 N218 1.345 . S
C222 C223 1.371 . S
C222 H225 0.931 . S
C223 C219 1.391 . S
C223 C222 1.371 . S
C223 H230 0.930 . S
H224 C221 0.928 . S
H225 C222 0.931 . S
H226 C202 0.930 . S
H227 C199 0.930 . S
H228 C208 0.930 . S
H229 C220 0.929 . S
H230 C223 0.930 . S
C231 C232 1.351 . S
C231 N234 1.368 . S
C231 H236 0.931 1_545 S
C232 C231 1.351 . S
C232 N233 1.373 . S
C232 H260 0.930 . S
N233 C232 1.373 . S
N233 C235 1.340 . S
N234 C231 1.368 . S
N234 C235 1.321 . S
N234 Co237 2.135 1_545 S
C235 N233 1.340 . S
C235 N234 1.321 . S
C235 H259 0.930 . S
H236 C231 0.931 1_565 S
Co237 N234 2.135 1_565 S
Co237 N240 2.121 . S
Co237 O245 2.055 . S
Co237 O248 2.039 . S
Co237 N251 2.140 . S
C238 O239 1.227 . S
C238 O248 1.265 1_545 S
O239 C238 1.227 . S
N240 Co237 2.121 . S
N240 C242 1.375 . S
N240 C243 1.313 . S
C241 C242 1.338 . S
C241 N244 1.377 . S
C241 H261 0.930 . S
C242 N240 1.375 . S
C242 C241 1.338 . S
C242 H246 0.931 . S
C243 N240 1.313 . S
C243 N244 1.344 . S
C243 H247 0.930 . S
N244 C241 1.377 . S
N244 C243 1.344 . S
O245 Co237 2.055 . S
O245 C249 1.253 . S
H246 C242 0.931 . S
H247 C243 0.930 . S
O248 Co237 2.039 . S
O248 C238 1.265 1_565 S
C249 O245 1.253 . S
C249 O250 1.227 . S
O250 C249 1.227 . S
N251 Co237 2.140 . S
N251 C254 1.346 1_565 S
N251 C255 1.345 . S
C252 C253 1.387 . S
C252 C256 1.391 1_545 S
C253 C252 1.387 . S
C253 C254 1.369 . S
C253 H262 0.929 . S
C254 N251 1.346 1_545 S
C254 C253 1.369 . S
C254 H257 0.928 . S
C255 N251 1.345 . S
C255 C256 1.371 . S
C255 H258 0.931 . S
C256 C252 1.391 1_565 S
C256 C255 1.371 . S
C256 H263 0.930 . S
H257 C254 0.928 . S
H258 C255 0.931 . S
H259 C235 0.930 . S
H260 C232 0.930 . S
H261 C241 0.930 . S
H262 C253 0.929 . S
H263 C256 0.930 . S
C264 C265 1.351 . S
C264 N267 1.368 . S
C264 H269 0.931 1_655 S
C265 C264 1.351 . S
C265 N266 1.373 . S
C265 H293 0.930 . S
N266 C265 1.373 . S
N266 C268 1.340 . S
N267 C264 1.368 . S
N267 C268 1.321 . S
N267 Co270 2.135 1_655 S
C268 N266 1.340 . S
C268 N267 1.321 . S
C268 H292 0.930 . S
H269 C264 0.931 1_455 S
Co270 N267 2.135 1_455 S
Co270 N273 2.121 . S
Co270 O278 2.055 . S
Co270 O281 2.039 . S
Co270 N284 2.140 . S
C271 O272 1.227 . S
C271 O281 1.265 1_655 S
O272 C271 1.227 . S
N273 Co270 2.121 . S
N273 C275 1.375 . S
N273 C276 1.313 . S
C274 C275 1.338 . S
C274 N277 1.377 . S
C274 H294 0.930 . S
C275 N273 1.375 . S
C275 C274 1.338 . S
C275 H279 0.931 . S
C276 N273 1.313 . S
C276 N277 1.344 . S
C276 H280 0.930 . S
N277 C274 1.377 . S
N277 C276 1.344 . S
O278 Co270 2.055 . S
O278 C282 1.253 . S
H279 C275 0.931 . S
H280 C276 0.930 . S
O281 Co270 2.039 . S
O281 C271 1.265 1_455 S
C282 O278 1.253 . S
C282 O283 1.227 . S
O283 C282 1.227 . S
N284 Co270 2.140 . S
N284 C287 1.346 1_455 S
N284 C288 1.345 . S
C285 C286 1.387 . S
C285 C289 1.391 1_655 S
C286 C285 1.387 . S
C286 C287 1.369 . S
C286 H295 0.929 . S
C287 N284 1.346 1_655 S
C287 C286 1.369 . S
C287 H290 0.928 . S
C288 N284 1.345 . S
C288 C289 1.371 . S
C288 H291 0.931 . S
C289 C285 1.391 1_455 S
C289 C288 1.371 . S
C289 H296 0.930 . S
H290 C287 0.928 . S
H291 C288 0.931 . S
H292 C268 0.930 . S
H293 C265 0.930 . S
H294 C274 0.930 . S
H295 C286 0.929 . S
H296 C289 0.930 . S
C297 C298 1.351 . S
C297 N300 1.368 . S
C297 H302 0.931 . S
C298 C297 1.351 . S
C298 N299 1.373 . S
C298 H326 0.930 . S
N299 C298 1.373 . S
N299 C301 1.340 . S
N300 C297 1.368 . S
N300 C301 1.321 . S
N300 Co303 2.135 . S
C301 N299 1.340 . S
C301 N300 1.321 . S
C301 H325 0.930 . S
H302 C297 0.931 . S
Co303 N300 2.135 . S
Co303 N306 2.121 . S
Co303 O311 2.055 . S
Co303 O314 2.039 . S
Co303 N317 2.140 . S
C304 O305 1.227 . S
C304 O314 1.265 . S
O305 C304 1.227 . S
N306 Co303 2.121 . S
N306 C308 1.375 . S
N306 C309 1.313 . S
C307 C308 1.338 . S
C307 N310 1.377 . S
C307 H327 0.930 . S
C308 N306 1.375 . S
C308 C307 1.338 . S
C308 H312 0.931 . S
C309 N306 1.313 . S
C309 N310 1.344 . S
C309 H313 0.930 . S
N310 C307 1.377 . S
N310 C309 1.344 . S
O311 Co303 2.055 . S
O311 C315 1.253 . S
H312 C308 0.931 . S
H313 C309 0.930 . S
O314 Co303 2.039 . S
O314 C304 1.265 . S
C315 O311 1.253 . S
C315 O316 1.227 . S
O316 C315 1.227 . S
N317 Co303 2.140 . S
N317 C320 1.346 . S
N317 C321 1.345 . S
C318 C319 1.387 . S
C318 C322 1.391 . S
C319 C318 1.387 . S
C319 C320 1.369 . S
C319 H328 0.929 . S
C320 N317 1.346 . S
C320 C319 1.369 . S
C320 H323 0.928 . S
C321 N317 1.345 . S
C321 C322 1.371 . S
C321 H324 0.931 . S
C322 C318 1.391 . S
C322 C321 1.371 . S
C322 H329 0.930 . S
H323 C320 0.928 . S
H324 C321 0.931 . S
H325 C301 0.930 . S
H326 C298 0.930 . S
H327 C307 0.930 . S
H328 C319 0.929 . S
H329 C322 0.930 . S
C330 C331 1.351 . S
C330 N333 1.368 . S
C330 H335 0.931 1_565 S
C331 C330 1.351 . S
C331 N332 1.373 . S
C331 H359 0.930 . S
N332 C331 1.373 . S
N332 C334 1.340 . S
N333 C330 1.368 . S
N333 C334 1.321 . S
N333 Co336 2.135 1_565 S
C334 N332 1.340 . S
C334 N333 1.321 . S
C334 H358 0.930 . S
H335 C330 0.931 1_545 S
Co336 N333 2.135 1_545 S
Co336 N339 2.121 . S
Co336 O344 2.055 . S
Co336 O347 2.039 . S
Co336 N350 2.140 . S
C337 O338 1.227 . S
C337 O347 1.265 1_565 S
O338 C337 1.227 . S
N339 Co336 2.121 . S
N339 C341 1.375 . S
N339 C342 1.313 . S
C340 C341 1.338 . S
C340 N343 1.377 . S
C340 H360 0.930 . S
C341 N339 1.375 . S
C341 C340 1.338 . S
C341 H345 0.931 . S
C342 N339 1.313 . S
C342 N343 1.344 . S
C342 H346 0.930 . S
N343 C340 1.377 . S
N343 C342 1.344 . S
O344 Co336 2.055 . S
O344 C348 1.253 . S
H345 C341 0.931 . S
H346 C342 0.930 . S
O347 Co336 2.039 . S
O347 C337 1.265 1_545 S
C348 O344 1.253 . S
C348 O349 1.227 . S
O349 C348 1.227 . S
N350 Co336 2.140 . S
N350 C353 1.346 1_545 S
N350 C354 1.345 . S
C351 C352 1.387 . S
C351 C355 1.391 1_565 S
C352 C351 1.387 . S
C352 C353 1.369 . S
C352 H361 0.929 . S
C353 N350 1.346 1_565 S
C353 C352 1.369 . S
C353 H356 0.928 . S
C354 N350 1.345 . S
C354 C355 1.371 . S
C354 H357 0.931 . S
C355 C351 1.391 1_545 S
C355 C354 1.371 . S
C355 H362 0.930 . S
H356 C353 0.928 . S
H357 C354 0.931 . S
H358 C334 0.930 . S
H359 C331 0.930 . S
H360 C340 0.930 . S
H361 C352 0.929 . S
H362 C355 0.930 . S
C363 C364 1.351 . S
C363 N366 1.368 . S
C363 H368 0.931 1_455 S
C364 C363 1.351 . S
C364 N365 1.373 . S
C364 H392 0.930 . S
N365 C364 1.373 . S
N365 C367 1.340 . S
N366 C363 1.368 . S
N366 C367 1.321 . S
N366 Co369 2.135 1_455 S
C367 N365 1.340 . S
C367 N366 1.321 . S
C367 H391 0.930 . S
H368 C363 0.931 1_655 S
Co369 N366 2.135 1_655 S
Co369 N372 2.121 . S
Co369 O377 2.055 . S
Co369 O380 2.039 . S
Co369 N383 2.140 . S
C370 O371 1.227 . S
C370 O380 1.265 1_455 S
O371 C370 1.227 . S
N372 Co369 2.121 . S
N372 C374 1.375 . S
N372 C375 1.313 . S
C373 C374 1.338 . S
C373 N376 1.377 . S
C373 H393 0.930 . S
C374 N372 1.375 . S
C374 C373 1.338 . S
C374 H378 0.931 . S
C375 N372 1.313 . S
C375 N376 1.344 . S
C375 H379 0.930 . S
N376 C373 1.377 . S
N376 C375 1.344 . S
O377 Co369 2.055 . S
O377 C381 1.253 . S
H378 C374 0.931 . S
H379 C375 0.930 . S
O380 Co369 2.039 . S
O380 C370 1.265 1_655 S
C381 O377 1.253 . S
C381 O382 1.227 . S
O382 C381 1.227 . S
N383 Co369 2.140 . S
N383 C386 1.346 1_655 S
N383 C387 1.345 . S
C384 C385 1.387 . S
C384 C388 1.391 1_455 S
C385 C384 1.387 . S
C385 C386 1.369 . S
C385 H394 0.929 . S
C386 N383 1.346 1_455 S
C386 C385 1.369 . S
C386 H389 0.928 . S
C387 N383 1.345 . S
C387 C388 1.371 . S
C387 H390 0.931 . S
C388 C384 1.391 1_655 S
C388 C387 1.371 . S
C388 H395 0.930 . S
H389 C386 0.928 . S
H390 C387 0.931 . S
H391 C367 0.930 . S
H392 C364 0.930 . S
H393 C373 0.930 . S
H394 C385 0.929 . S
H395 C388 0.930 . S
C396 C397 1.351 . S
C396 N399 1.368 . S
C396 H401 0.931 . S
C397 C396 1.351 . S
C397 N398 1.373 . S
C397 H425 0.930 . S
N398 C397 1.373 . S
N398 C400 1.340 . S
N399 C396 1.368 . S
N399 C400 1.321 . S
N399 Co402 2.135 . S
C400 N398 1.340 . S
C400 N399 1.321 . S
C400 H424 0.930 . S
H401 C396 0.931 . S
Co402 N399 2.135 . S
Co402 N405 2.121 . S
Co402 O410 2.055 . S
Co402 O413 2.039 . S
Co402 N416 2.140 . S
C403 O404 1.227 . S
C403 O413 1.265 . S
O404 C403 1.227 . S
N405 Co402 2.121 . S
N405 C407 1.375 . S
N405 C408 1.313 . S
C406 C407 1.338 1_455 S
C406 N409 1.377 . S
C406 H426 0.930 . S
C407 N405 1.375 . S
C407 C406 1.338 1_655 S
C407 H411 0.931 . S
C408 N405 1.313 . S
C408 N409 1.344 1_655 S
C408 H412 0.930 . S
N409 C406 1.377 . S
N409 C408 1.344 1_455 S
O410 Co402 2.055 . S
O410 C414 1.253 . S
H411 C407 0.931 . S
H412 C408 0.930 . S
O413 Co402 2.039 . S
O413 C403 1.265 . S
C414 O410 1.253 . S
C414 O415 1.227 . S
O415 C414 1.227 . S
N416 Co402 2.140 . S
N416 C419 1.346 . S
N416 C420 1.345 . S
C417 C418 1.387 . S
C417 C421 1.391 . S
C418 C417 1.387 . S
C418 C419 1.369 . S
C418 H427 0.929 . S
C419 N416 1.346 . S
C419 C418 1.369 . S
C419 H422 0.928 . S
C420 N416 1.345 . S
C420 C421 1.371 . S
C420 H423 0.931 . S
C421 C417 1.391 . S
C421 C420 1.371 . S
C421 H428 0.930 . S
H422 C419 0.928 . S
H423 C420 0.931 . S
H424 C400 0.930 . S
H425 C397 0.930 . S
H426 C406 0.930 . S
H427 C418 0.929 . S
H428 C421 0.930 . S
C429 C430 1.351 . S
C429 N432 1.368 . S
C429 H434 0.931 . S
C430 C429 1.351 . S
C430 N431 1.373 . S
C430 H458 0.930 . S
N431 C430 1.373 . S
N431 C433 1.340 . S
N432 C429 1.368 . S
N432 C433 1.321 . S
N432 Co435 2.135 . S
C433 N431 1.340 . S
C433 N432 1.321 . S
C433 H457 0.930 . S
H434 C429 0.931 . S
Co435 N432 2.135 . S
Co435 N438 2.121 . S
Co435 O443 2.055 . S
Co435 O446 2.039 . S
Co435 N449 2.140 . S
C436 O437 1.227 . S
C436 O446 1.265 . S
O437 C436 1.227 . S
N438 Co435 2.121 . S
N438 C440 1.375 . S
N438 C441 1.313 . S
C439 C440 1.338 . S
C439 N442 1.377 . S
C439 H459 0.930 . S
C440 N438 1.375 . S
C440 C439 1.338 . S
C440 H444 0.931 . S
C441 N438 1.313 . S
C441 N442 1.344 . S
C441 H445 0.930 . S
N442 C439 1.377 . S
N442 C441 1.344 . S
O443 Co435 2.055 . S
O443 C447 1.253 . S
H444 C440 0.931 . S
H445 C441 0.930 . S
O446 Co435 2.039 . S
O446 C436 1.265 . S
C447 O443 1.253 . S
C447 O448 1.227 . S
O448 C447 1.227 . S
N449 Co435 2.140 . S
N449 C452 1.346 . S
N449 C453 1.345 . S
C450 C451 1.387 . S
C450 C454 1.391 . S
C451 C450 1.387 . S
C451 C452 1.369 . S
C451 H460 0.929 . S
C452 N449 1.346 . S
C452 C451 1.369 . S
C452 H455 0.928 . S
C453 N449 1.345 . S
C453 C454 1.371 . S
C453 H456 0.931 . S
C454 C450 1.391 . S
C454 C453 1.371 . S
C454 H461 0.930 . S
H455 C452 0.928 . S
H456 C453 0.931 . S
H457 C433 0.930 . S
H458 C430 0.930 . S
H459 C439 0.930 . S
H460 C451 0.929 . S
H461 C454 0.930 . S
C462 C463 1.351 . S
C462 N465 1.368 . S
C462 H467 0.931 . S
C463 C462 1.351 . S
C463 N464 1.373 . S
C463 H491 0.930 . S
N464 C463 1.373 . S
N464 C466 1.340 . S
N465 C462 1.368 . S
N465 C466 1.321 . S
N465 Co468 2.135 . S
C466 N464 1.340 . S
C466 N465 1.321 . S
C466 H490 0.930 . S
H467 C462 0.931 . S
Co468 N465 2.135 . S
Co468 N471 2.121 . S
Co468 O476 2.055 . S
Co468 O479 2.039 . S
Co468 N482 2.140 . S
C469 O470 1.227 . S
C469 O479 1.265 . S
O470 C469 1.227 . S
N471 Co468 2.121 . S
N471 C473 1.375 . S
N471 C474 1.313 . S
C472 C473 1.338 1_565 S
C472 N475 1.377 . S
C472 H492 0.930 . S
C473 N471 1.375 . S
C473 C472 1.338 1_545 S
C473 H477 0.931 . S
C474 N471 1.313 . S
C474 N475 1.344 1_545 S
C474 H478 0.930 . S
N475 C472 1.377 . S
N475 C474 1.344 1_565 S
O476 Co468 2.055 . S
O476 C480 1.253 . S
H477 C473 0.931 . S
H478 C474 0.930 . S
O479 Co468 2.039 . S
O479 C469 1.265 . S
C480 O476 1.253 . S
C480 O481 1.227 . S
O481 C480 1.227 . S
N482 Co468 2.140 . S
N482 C485 1.346 . S
N482 C486 1.345 . S
C483 C484 1.387 . S
C483 C487 1.391 . S
C484 C483 1.387 . S
C484 C485 1.369 . S
C484 H493 0.929 . S
C485 N482 1.346 . S
C485 C484 1.369 . S
C485 H488 0.928 . S
C486 N482 1.345 . S
C486 C487 1.371 . S
C486 H489 0.931 . S
C487 C483 1.391 . S
C487 C486 1.371 . S
C487 H494 0.930 . S
H488 C485 0.928 . S
H489 C486 0.931 . S
H490 C466 0.930 . S
H491 C463 0.930 . S
H492 C472 0.930 . S
H493 C484 0.929 . S
H494 C487 0.930 . S
C495 C496 1.351 . S
C495 N498 1.368 . S
C495 H500 0.931 . S
C496 C495 1.351 . S
C496 N497 1.373 . S
C496 H524 0.930 . S
N497 C496 1.373 . S
N497 C499 1.340 . S
N498 C495 1.368 . S
N498 C499 1.321 . S
N498 Co501 2.135 . S
C499 N497 1.340 . S
C499 N498 1.321 . S
C499 H523 0.930 . S
H500 C495 0.931 . S
Co501 N498 2.135 . S
Co501 N504 2.121 . S
Co501 O509 2.055 . S
Co501 O512 2.039 . S
Co501 N515 2.140 . S
C502 O503 1.227 . S
C502 O512 1.265 . S
O503 C502 1.227 . S
N504 Co501 2.121 . S
N504 C506 1.375 . S
N504 C507 1.313 . S
C505 C506 1.338 . S
C505 N508 1.377 . S
C505 H525 0.930 . S
C506 N504 1.375 . S
C506 C505 1.338 . S
C506 H510 0.931 . S
C507 N504 1.313 . S
C507 N508 1.344 . S
C507 H511 0.930 . S
N508 C505 1.377 . S
N508 C507 1.344 . S
O509 Co501 2.055 . S
O509 C513 1.253 . S
H510 C506 0.931 . S
H511 C507 0.930 . S
O512 Co501 2.039 . S
O512 C502 1.265 . S
C513 O509 1.253 . S
C513 O514 1.227 . S
O514 C513 1.227 . S
N515 Co501 2.140 . S
N515 C518 1.346 . S
N515 C519 1.345 . S
C516 C517 1.387 . S
C516 C520 1.391 . S
C517 C516 1.387 . S
C517 C518 1.369 . S
C517 H526 0.929 . S
C518 N515 1.346 . S
C518 C517 1.369 . S
C518 H521 0.928 . S
C519 N515 1.345 . S
C519 C520 1.371 . S
C519 H522 0.931 . S
C520 C516 1.391 . S
C520 C519 1.371 . S
C520 H527 0.930 . S
H521 C518 0.928 . S
H522 C519 0.931 . S
H523 C499 0.930 . S
H524 C496 0.930 . S
H525 C505 0.930 . S
H526 C517 0.929 . S
H527 C520 0.930 . S
C528 C529 1.351 . S
C528 N531 1.368 . S
C528 H533 0.931 . S
C529 C528 1.351 . S
C529 N530 1.373 . S
C529 H557 0.930 . S
N530 C529 1.373 . S
N530 C532 1.340 . S
N531 C528 1.368 . S
N531 C532 1.321 . S
N531 Co534 2.135 . S
C532 N530 1.340 . S
C532 N531 1.321 . S
C532 H556 0.930 . S
H533 C528 0.931 . S
Co534 N531 2.135 . S
Co534 N537 2.121 . S
Co534 O542 2.055 . S
Co534 O545 2.039 . S
Co534 N548 2.140 . S
C535 O536 1.227 . S
C535 O545 1.265 . S
O536 C535 1.227 . S
N537 Co534 2.121 . S
N537 C539 1.375 . S
N537 C540 1.313 . S
C538 C539 1.338 . S
C538 N541 1.377 . S
C538 H558 0.930 . S
C539 N537 1.375 . S
C539 C538 1.338 . S
C539 H543 0.931 . S
C540 N537 1.313 . S
C540 N541 1.344 . S
C540 H544 0.930 . S
N541 C538 1.377 . S
N541 C540 1.344 . S
O542 Co534 2.055 . S
O542 C546 1.253 . S
H543 C539 0.931 . S
H544 C540 0.930 . S
O545 Co534 2.039 . S
O545 C535 1.265 . S
C546 O542 1.253 . S
C546 O547 1.227 . S
O547 C546 1.227 . S
N548 Co534 2.140 . S
N548 C551 1.346 . S
N548 C552 1.345 . S
C549 C550 1.387 . S
C549 C553 1.391 . S
C550 C549 1.387 . S
C550 C551 1.369 . S
C550 H559 0.929 . S
C551 N548 1.346 . S
C551 C550 1.369 . S
C551 H554 0.928 . S
C552 N548 1.345 . S
C552 C553 1.371 . S
C552 H555 0.931 . S
C553 C549 1.391 . S
C553 C552 1.371 . S
C553 H560 0.930 . S
H554 C551 0.928 . S
H555 C552 0.931 . S
H556 C532 0.930 . S
H557 C529 0.930 . S
H558 C538 0.930 . S
H559 C550 0.929 . S
H560 C553 0.930 . S
C561 C562 1.351 . S
C561 N564 1.368 . S
C561 H566 0.931 . S
C562 C561 1.351 . S
C562 N563 1.373 . S
C562 H590 0.930 . S
N563 C562 1.373 . S
N563 C565 1.340 . S
N564 C561 1.368 . S
N564 C565 1.321 . S
N564 Co567 2.135 . S
C565 N563 1.340 . S
C565 N564 1.321 . S
C565 H589 0.930 . S
H566 C561 0.931 . S
Co567 N564 2.135 . S
Co567 N570 2.121 . S
Co567 O575 2.055 . S
Co567 O578 2.039 . S
Co567 N581 2.140 . S
C568 O569 1.227 . S
C568 O578 1.265 . S
O569 C568 1.227 . S
N570 Co567 2.121 . S
N570 C572 1.375 . S
N570 C573 1.313 . S
C571 C572 1.338 . S
C571 N574 1.377 . S
C571 H591 0.930 . S
C572 N570 1.375 . S
C572 C571 1.338 . S
C572 H576 0.931 . S
C573 N570 1.313 . S
C573 N574 1.344 . S
C573 H577 0.930 . S
N574 C571 1.377 . S
N574 C573 1.344 . S
O575 Co567 2.055 . S
O575 C579 1.253 . S
H576 C572 0.931 . S
H577 C573 0.930 . S
O578 Co567 2.039 . S
O578 C568 1.265 . S
C579 O575 1.253 . S
C579 O580 1.227 . S
O580 C579 1.227 . S
N581 Co567 2.140 . S
N581 C584 1.346 . S
N581 C585 1.345 . S
C582 C583 1.387 . S
C582 C586 1.391 . S
C583 C582 1.387 . S
C583 C584 1.369 . S
C583 H592 0.929 . S
C584 N581 1.346 . S
C584 C583 1.369 . S
C584 H587 0.928 . S
C585 N581 1.345 . S
C585 C586 1.371 . S
C585 H588 0.931 . S
C586 C582 1.391 . S
C586 C585 1.371 . S
C586 H593 0.930 . S
H587 C584 0.928 . S
H588 C585 0.931 . S
H589 C565 0.930 . S
H590 C562 0.930 . S
H591 C571 0.930 . S
H592 C583 0.929 . S
H593 C586 0.930 . S
C594 C595 1.351 . S
C594 N597 1.368 . S
C594 H599 0.931 . S
C595 C594 1.351 . S
C595 N596 1.373 . S
C595 H623 0.930 . S
N596 C595 1.373 . S
N596 C598 1.340 . S
N597 C594 1.368 . S
N597 C598 1.321 . S
N597 Co600 2.135 . S
C598 N596 1.340 . S
C598 N597 1.321 . S
C598 H622 0.930 . S
H599 C594 0.931 . S
Co600 N597 2.135 . S
Co600 N603 2.121 . S
Co600 O608 2.055 . S
Co600 O611 2.039 . S
Co600 N614 2.140 . S
C601 O602 1.227 . S
C601 O611 1.265 . S
O602 C601 1.227 . S
N603 Co600 2.121 . S
N603 C605 1.375 . S
N603 C606 1.313 . S
C604 C605 1.338 . S
C604 N607 1.377 . S
C604 H624 0.930 . S
C605 N603 1.375 . S
C605 C604 1.338 . S
C605 H609 0.931 . S
C606 N603 1.313 . S
C606 N607 1.344 . S
C606 H610 0.930 . S
N607 C604 1.377 . S
N607 C606 1.344 . S
O608 Co600 2.055 . S
O608 C612 1.253 . S
H609 C605 0.931 . S
H610 C606 0.930 . S
O611 Co600 2.039 . S
O611 C601 1.265 . S
C612 O608 1.253 . S
C612 O613 1.227 . S
O613 C612 1.227 . S
N614 Co600 2.140 . S
N614 C617 1.346 . S
N614 C618 1.345 . S
C615 C616 1.387 . S
C615 C619 1.391 . S
C616 C615 1.387 . S
C616 C617 1.369 . S
C616 H625 0.929 . S
C617 N614 1.346 . S
C617 C616 1.369 . S
C617 H620 0.928 . S
C618 N614 1.345 . S
C618 C619 1.371 . S
C618 H621 0.931 . S
C619 C615 1.391 . S
C619 C618 1.371 . S
C619 H626 0.930 . S
H620 C617 0.928 . S
H621 C618 0.931 . S
H622 C598 0.930 . S
H623 C595 0.930 . S
H624 C604 0.930 . S
H625 C616 0.929 . S
H626 C619 0.930 . S
C627 C628 1.351 . S
C627 N630 1.368 . S
C627 H632 0.931 . S
C628 C627 1.351 . S
C628 N629 1.373 . S
C628 H656 0.930 . S
N629 C628 1.373 . S
N629 C631 1.340 . S
N630 C627 1.368 . S
N630 C631 1.321 . S
N630 Co633 2.135 . S
C631 N629 1.340 . S
C631 N630 1.321 . S
C631 H655 0.930 . S
H632 C627 0.931 . S
Co633 N630 2.135 . S
Co633 N636 2.121 . S
Co633 O641 2.055 . S
Co633 O644 2.039 . S
Co633 N647 2.140 . S
C634 O635 1.227 . S
C634 O644 1.265 . S
O635 C634 1.227 . S
N636 Co633 2.121 . S
N636 C638 1.375 . S
N636 C639 1.313 . S
C637 C638 1.338 . S
C637 N640 1.377 . S
C637 H657 0.930 . S
C638 N636 1.375 . S
C638 C637 1.338 . S
C638 H642 0.931 . S
C639 N636 1.313 . S
C639 N640 1.344 . S
C639 H643 0.930 . S
N640 C637 1.377 . S
N640 C639 1.344 . S
O641 Co633 2.055 . S
O641 C645 1.253 . S
H642 C638 0.931 . S
H643 C639 0.930 . S
O644 Co633 2.039 . S
O644 C634 1.265 . S
C645 O641 1.253 . S
C645 O646 1.227 . S
O646 C645 1.227 . S
N647 Co633 2.140 . S
N647 C650 1.346 . S
N647 C651 1.345 . S
C648 C649 1.387 . S
C648 C652 1.391 . S
C649 C648 1.387 . S
C649 C650 1.369 . S
C649 H658 0.929 . S
C650 N647 1.346 . S
C650 C649 1.369 . S
C650 H653 0.928 . S
C651 N647 1.345 . S
C651 C652 1.371 . S
C651 H654 0.931 . S
C652 C648 1.391 . S
C652 C651 1.371 . S
C652 H659 0.930 . S
H653 C650 0.928 . S
H654 C651 0.931 . S
H655 C631 0.930 . S
H656 C628 0.930 . S
H657 C637 0.930 . S
H658 C649 0.929 . S
H659 C652 0.930 . S
C660 C661 1.351 . S
C660 N663 1.368 . S
C660 H665 0.931 . S
C661 C660 1.351 . S
C661 N662 1.373 . S
C661 H689 0.930 . S
N662 C661 1.373 . S
N662 C664 1.340 . S
N663 C660 1.368 . S
N663 C664 1.321 . S
N663 Co666 2.135 . S
C664 N662 1.340 . S
C664 N663 1.321 . S
C664 H688 0.930 . S
H665 C660 0.931 . S
Co666 N663 2.135 . S
Co666 N669 2.121 . S
Co666 O674 2.055 . S
Co666 O677 2.039 . S
Co666 N680 2.140 . S
C667 O668 1.227 . S
C667 O677 1.265 . S
O668 C667 1.227 . S
N669 Co666 2.121 . S
N669 C671 1.375 . S
N669 C672 1.313 . S
C670 C671 1.338 . S
C670 N673 1.377 . S
C670 H690 0.930 . S
C671 N669 1.375 . S
C671 C670 1.338 . S
C671 H675 0.931 . S
C672 N669 1.313 . S
C672 N673 1.344 . S
C672 H676 0.930 . S
N673 C670 1.377 . S
N673 C672 1.344 . S
O674 Co666 2.055 . S
O674 C678 1.253 . S
H675 C671 0.931 . S
H676 C672 0.930 . S
O677 Co666 2.039 . S
O677 C667 1.265 . S
C678 O674 1.253 . S
C678 O679 1.227 . S
O679 C678 1.227 . S
N680 Co666 2.140 . S
N680 C683 1.346 . S
N680 C684 1.345 . S
C681 C682 1.387 . S
C681 C685 1.391 . S
C682 C681 1.387 . S
C682 C683 1.369 . S
C682 H691 0.929 . S
C683 N680 1.346 . S
C683 C682 1.369 . S
C683 H686 0.928 . S
C684 N680 1.345 . S
C684 C685 1.371 . S
C684 H687 0.931 . S
C685 C681 1.391 . S
C685 C684 1.371 . S
C685 H692 0.930 . S
H686 C683 0.928 . S
H687 C684 0.931 . S
H688 C664 0.930 . S
H689 C661 0.930 . S
H690 C670 0.930 . S
H691 C682 0.929 . S
H692 C685 0.930 . S
C693 C694 1.351 . S
C693 N696 1.368 . S
C693 H698 0.931 . S
C694 C693 1.351 . S
C694 N695 1.373 . S
C694 H722 0.930 . S
N695 C694 1.373 . S
N695 C697 1.340 . S
N696 C693 1.368 . S
N696 C697 1.321 . S
N696 Co699 2.135 . S
C697 N695 1.340 . S
C697 N696 1.321 . S
C697 H721 0.930 . S
H698 C693 0.931 . S
Co699 N696 2.135 . S
Co699 N702 2.121 . S
Co699 O707 2.055 . S
Co699 O710 2.039 . S
Co699 N713 2.140 . S
C700 O701 1.227 . S
C700 O710 1.265 . S
O701 C700 1.227 . S
N702 Co699 2.121 . S
N702 C704 1.375 . S
N702 C705 1.313 . S
C703 C704 1.338 1_565 S
C703 N706 1.377 . S
C703 H723 0.930 1_556 S
C704 N702 1.375 . S
C704 C703 1.338 1_545 S
C704 H708 0.931 . S
C705 N702 1.313 . S
C705 N706 1.344 1_545 S
C705 H709 0.930 . S
N706 C703 1.377 . S
N706 C705 1.344 1_565 S
O707 Co699 2.055 . S
O707 C711 1.253 . S
H708 C704 0.931 . S
H709 C705 0.930 . S
O710 Co699 2.039 . S
O710 C700 1.265 . S
C711 O707 1.253 . S
C711 O712 1.227 . S
O712 C711 1.227 . S
N713 Co699 2.140 . S
N713 C716 1.346 . S
N713 C717 1.345 1_556 S
C714 C715 1.387 . S
C714 C718 1.391 . S
C715 C714 1.387 . S
C715 C716 1.369 1_554 S
C715 H724 0.929 . S
C716 N713 1.346 . S
C716 C715 1.369 1_556 S
C716 H719 0.928 . S
C717 N713 1.345 1_554 S
C717 C718 1.371 . S
C717 H720 0.931 . S
C718 C714 1.391 . S
C718 C717 1.371 . S
C718 H725 0.930 . S
H719 C716 0.928 . S
H720 C717 0.931 . S
H721 C697 0.930 . S
H722 C694 0.930 . S
H723 C703 0.930 1_554 S
H724 C715 0.929 . S
H725 C718 0.930 . S
C726 C727 1.351 . S
C726 N729 1.368 . S
C726 H731 0.931 . S
C727 C726 1.351 . S
C727 N728 1.373 . S
C727 H755 0.930 . S
N728 C727 1.373 . S
N728 C730 1.340 . S
N729 C726 1.368 . S
N729 C730 1.321 . S
N729 Co732 2.135 . S
C730 N728 1.340 . S
C730 N729 1.321 . S
C730 H754 0.930 . S
H731 C726 0.931 . S
Co732 N729 2.135 . S
Co732 N735 2.121 . S
Co732 O740 2.055 . S
Co732 O743 2.039 . S
Co732 N746 2.140 . S
C733 O734 1.227 . S
C733 O743 1.265 . S
O734 C733 1.227 . S
N735 Co732 2.121 . S
N735 C737 1.375 . S
N735 C738 1.313 . S
C736 C737 1.338 1_455 S
C736 N739 1.377 . S
C736 H756 0.930 1_556 S
C737 N735 1.375 . S
C737 C736 1.338 1_655 S
C737 H741 0.931 . S
C738 N735 1.313 . S
C738 N739 1.344 1_655 S
C738 H742 0.930 . S
N739 C736 1.377 . S
N739 C738 1.344 1_455 S
O740 Co732 2.055 . S
O740 C744 1.253 . S
H741 C737 0.931 . S
H742 C738 0.930 . S
O743 Co732 2.039 . S
O743 C733 1.265 . S
C744 O740 1.253 . S
C744 O745 1.227 . S
O745 C744 1.227 . S
N746 Co732 2.140 . S
N746 C749 1.346 . S
N746 C750 1.345 1_556 S
C747 C748 1.387 . S
C747 C751 1.391 . S
C748 C747 1.387 . S
C748 C749 1.369 1_554 S
C748 H757 0.929 . S
C749 N746 1.346 . S
C749 C748 1.369 1_556 S
C749 H752 0.928 . S
C750 N746 1.345 1_554 S
C750 C751 1.371 . S
C750 H753 0.931 . S
C751 C747 1.391 . S
C751 C750 1.371 . S
C751 H758 0.930 . S
H752 C749 0.928 . S
H753 C750 0.931 . S
H754 C730 0.930 . S
H755 C727 0.930 . S
H756 C736 0.930 1_554 S
H757 C748 0.929 . S
H758 C751 0.930 . S
C759 C760 1.351 . S
C759 N762 1.368 . S
C759 H764 0.931 . S
C760 C759 1.351 . S
C760 N761 1.373 . S
C760 H788 0.930 . S
N761 C760 1.373 . S
N761 C763 1.340 . S
N762 C759 1.368 . S
N762 C763 1.321 . S
N762 Co765 2.135 . S
C763 N761 1.340 . S
C763 N762 1.321 . S
C763 H787 0.930 . S
H764 C759 0.931 . S
Co765 N762 2.135 . S
Co765 N768 2.121 . S
Co765 O773 2.055 . S
Co765 O776 2.039 . S
Co765 N779 2.140 . S
C766 O767 1.227 . S
C766 O776 1.265 . S
O767 C766 1.227 . S
N768 Co765 2.121 . S
N768 C770 1.375 . S
N768 C771 1.313 . S
C769 C770 1.338 . S
C769 N772 1.377 . S
C769 H789 0.930 1_556 S
C770 N768 1.375 . S
C770 C769 1.338 . S
C770 H774 0.931 . S
C771 N768 1.313 . S
C771 N772 1.344 . S
C771 H775 0.930 . S
N772 C769 1.377 . S
N772 C771 1.344 . S
O773 Co765 2.055 . S
O773 C777 1.253 . S
H774 C770 0.931 . S
H775 C771 0.930 . S
O776 Co765 2.039 . S
O776 C766 1.265 . S
C777 O773 1.253 . S
C777 O778 1.227 . S
O778 C777 1.227 . S
N779 Co765 2.140 . S
N779 C782 1.346 . S
N779 C783 1.345 1_556 S
C780 C781 1.387 . S
C780 C784 1.391 . S
C781 C780 1.387 . S
C781 C782 1.369 1_554 S
C781 H790 0.929 . S
C782 N779 1.346 . S
C782 C781 1.369 1_556 S
C782 H785 0.928 . S
C783 N779 1.345 1_554 S
C783 C784 1.371 . S
C783 H786 0.931 . S
C784 C780 1.391 . S
C784 C783 1.371 . S
C784 H791 0.930 . S
H785 C782 0.928 . S
H786 C783 0.931 . S
H787 C763 0.930 . S
H788 C760 0.930 . S
H789 C769 0.930 1_554 S
H790 C781 0.929 . S
H791 C784 0.930 . S
C792 C793 1.351 . S
C792 N795 1.368 . S
C792 H797 0.931 . S
C793 C792 1.351 . S
C793 N794 1.373 . S
C793 H821 0.930 . S
N794 C793 1.373 . S
N794 C796 1.340 . S
N795 C792 1.368 . S
N795 C796 1.321 . S
N795 Co798 2.135 . S
C796 N794 1.340 . S
C796 N795 1.321 . S
C796 H820 0.930 . S
H797 C792 0.931 . S
Co798 N795 2.135 . S
Co798 N801 2.121 . S
Co798 O806 2.055 . S
Co798 O809 2.039 . S
Co798 N812 2.140 . S
C799 O800 1.227 . S
C799 O809 1.265 . S
O800 C799 1.227 . S
N801 Co798 2.121 . S
N801 C803 1.375 . S
N801 C804 1.313 . S
C802 C803 1.338 . S
C802 N805 1.377 . S
C802 H822 0.930 . S
C803 N801 1.375 . S
C803 C802 1.338 . S
C803 H807 0.931 . S
C804 N801 1.313 . S
C804 N805 1.344 . S
C804 H808 0.930 . S
N805 C802 1.377 . S
N805 C804 1.344 . S
O806 Co798 2.055 . S
O806 C810 1.253 . S
H807 C803 0.931 . S
H808 C804 0.930 . S
O809 Co798 2.039 . S
O809 C799 1.265 . S
C810 O806 1.253 . S
C810 O811 1.227 . S
O811 C810 1.227 . S
N812 Co798 2.140 . S
N812 C815 1.346 . S
N812 C816 1.345 . S
C813 C814 1.387 . S
C813 C817 1.391 . S
C814 C813 1.387 . S
C814 C815 1.369 . S
C814 H823 0.929 . S
C815 N812 1.346 . S
C815 C814 1.369 . S
C815 H818 0.928 . S
C816 N812 1.345 . S
C816 C817 1.371 . S
C816 H819 0.931 . S
C817 C813 1.391 . S
C817 C816 1.371 . S
C817 H824 0.930 . S
H818 C815 0.928 . S
H819 C816 0.931 . S
H820 C796 0.930 . S
H821 C793 0.930 . S
H822 C802 0.930 . S
H823 C814 0.929 . S
H824 C817 0.930 . S
C825 C826 1.351 . S
C825 N828 1.368 . S
C825 H830 0.931 . S
C826 C825 1.351 . S
C826 N827 1.373 . S
C826 H854 0.930 . S
N827 C826 1.373 . S
N827 C829 1.340 . S
N828 C825 1.368 . S
N828 C829 1.321 . S
N828 Co831 2.135 . S
C829 N827 1.340 . S
C829 N828 1.321 . S
C829 H853 0.930 . S
H830 C825 0.931 . S
Co831 N828 2.135 . S
Co831 N834 2.121 . S
Co831 O839 2.055 . S
Co831 O842 2.039 . S
Co831 N845 2.140 . S
C832 O833 1.227 . S
C832 O842 1.265 . S
O833 C832 1.227 . S
N834 Co831 2.121 . S
N834 C836 1.375 . S
N834 C837 1.313 . S
C835 C836 1.338 . S
C835 N838 1.377 . S
C835 H855 0.930 . S
C836 N834 1.375 . S
C836 C835 1.338 . S
C836 H840 0.931 . S
C837 N834 1.313 . S
C837 N838 1.344 . S
C837 H841 0.930 . S
N838 C835 1.377 . S
N838 C837 1.344 . S
O839 Co831 2.055 . S
O839 C843 1.253 . S
H840 C836 0.931 . S
H841 C837 0.930 . S
O842 Co831 2.039 . S
O842 C832 1.265 . S
C843 O839 1.253 . S
C843 O844 1.227 . S
O844 C843 1.227 . S
N845 Co831 2.140 . S
N845 C848 1.346 . S
N845 C849 1.345 . S
C846 C847 1.387 . S
C846 C850 1.391 . S
C847 C846 1.387 . S
C847 C848 1.369 . S
C847 H856 0.929 . S
C848 N845 1.346 . S
C848 C847 1.369 . S
C848 H851 0.928 . S
C849 N845 1.345 . S
C849 C850 1.371 . S
C849 H852 0.931 . S
C850 C846 1.391 . S
C850 C849 1.371 . S
C850 H857 0.930 . S
H851 C848 0.928 . S
H852 C849 0.931 . S
H853 C829 0.930 . S
H854 C826 0.930 . S
H855 C835 0.930 . S
H856 C847 0.929 . S
H857 C850 0.930 . S
C858 C859 1.351 . S
C858 N861 1.368 . S
C858 H863 0.931 . S
C859 C858 1.351 . S
C859 N860 1.373 . S
C859 H887 0.930 . S
N860 C859 1.373 . S
N860 C862 1.340 . S
N861 C858 1.368 . S
N861 C862 1.321 . S
N861 Co864 2.135 . S
C862 N860 1.340 . S
C862 N861 1.321 . S
C862 H886 0.930 . S
H863 C858 0.931 . S
Co864 N861 2.135 . S
Co864 N867 2.121 . S
Co864 O872 2.055 . S
Co864 O875 2.039 . S
Co864 N878 2.140 . S
C865 O866 1.227 . S
C865 O875 1.265 . S
O866 C865 1.227 . S
N867 Co864 2.121 . S
N867 C869 1.375 . S
N867 C870 1.313 . S
C868 C869 1.338 . S
C868 N871 1.377 . S
C868 H888 0.930 . S
C869 N867 1.375 . S
C869 C868 1.338 . S
C869 H873 0.931 . S
C870 N867 1.313 . S
C870 N871 1.344 . S
C870 H874 0.930 . S
N871 C868 1.377 . S
N871 C870 1.344 . S
O872 Co864 2.055 . S
O872 C876 1.253 . S
H873 C869 0.931 . S
H874 C870 0.930 . S
O875 Co864 2.039 . S
O875 C865 1.265 . S
C876 O872 1.253 . S
C876 O877 1.227 . S
O877 C876 1.227 . S
N878 Co864 2.140 . S
N878 C881 1.346 . S
N878 C882 1.345 . S
C879 C880 1.387 . S
C879 C883 1.391 . S
C880 C879 1.387 . S
C880 C881 1.369 . S
C880 H889 0.929 . S
C881 N878 1.346 . S
C881 C880 1.369 . S
C881 H884 0.928 . S
C882 N878 1.345 . S
C882 C883 1.371 . S
C882 H885 0.931 . S
C883 C879 1.391 . S
C883 C882 1.371 . S
C883 H890 0.930 . S
H884 C881 0.928 . S
H885 C882 0.931 . S
H886 C862 0.930 . S
H887 C859 0.930 . S
H888 C868 0.930 . S
H889 C880 0.929 . S
H890 C883 0.930 . S
C891 C892 1.351 . S
C891 N894 1.368 . S
C891 H896 0.931 . S
C892 C891 1.351 . S
C892 N893 1.373 . S
C892 H920 0.930 . S
N893 C892 1.373 . S
N893 C895 1.340 . S
N894 C891 1.368 . S
N894 C895 1.321 . S
N894 Co897 2.135 . S
C895 N893 1.340 . S
C895 N894 1.321 . S
C895 H919 0.930 . S
H896 C891 0.931 . S
Co897 N894 2.135 . S
Co897 N900 2.121 . S
Co897 O905 2.055 . S
Co897 O908 2.039 . S
Co897 N911 2.140 . S
C898 O899 1.227 . S
C898 O908 1.265 . S
O899 C898 1.227 . S
N900 Co897 2.121 . S
N900 C902 1.375 . S
N900 C903 1.313 . S
C901 C902 1.338 1_545 S
C901 N904 1.377 . S
C901 H921 0.930 1_554 S
C902 N900 1.375 . S
C902 C901 1.338 1_565 S
C902 H906 0.931 . S
C903 N900 1.313 . S
C903 N904 1.344 1_565 S
C903 H907 0.930 . S
N904 C901 1.377 . S
N904 C903 1.344 1_545 S
O905 Co897 2.055 . S
O905 C909 1.253 . S
H906 C902 0.931 . S
H907 C903 0.930 . S
O908 Co897 2.039 . S
O908 C898 1.265 . S
C909 O905 1.253 . S
C909 O910 1.227 . S
O910 C909 1.227 . S
N911 Co897 2.140 . S
N911 C914 1.346 . S
N911 C915 1.345 1_554 S
C912 C913 1.387 . S
C912 C916 1.391 . S
C913 C912 1.387 . S
C913 C914 1.369 1_556 S
C913 H922 0.929 . S
C914 N911 1.346 . S
C914 C913 1.369 1_554 S
C914 H917 0.928 . S
C915 N911 1.345 1_556 S
C915 C916 1.371 . S
C915 H918 0.931 . S
C916 C912 1.391 . S
C916 C915 1.371 . S
C916 H923 0.930 . S
H917 C914 0.928 . S
H918 C915 0.931 . S
H919 C895 0.930 . S
H920 C892 0.930 . S
H921 C901 0.930 1_556 S
H922 C913 0.929 . S
H923 C916 0.930 . S
C924 C925 1.351 . S
C924 N927 1.368 . S
C924 H929 0.931 . S
C925 C924 1.351 . S
C925 N926 1.373 . S
C925 H953 0.930 . S
N926 C925 1.373 . S
N926 C928 1.340 . S
N927 C924 1.368 . S
N927 C928 1.321 . S
N927 Co930 2.135 . S
C928 N926 1.340 . S
C928 N927 1.321 . S
C928 H952 0.930 . S
H929 C924 0.931 . S
Co930 N927 2.135 . S
Co930 N933 2.121 . S
Co930 O938 2.055 . S
Co930 O941 2.039 . S
Co930 N944 2.140 . S
C931 O932 1.227 . S
C931 O941 1.265 . S
O932 C931 1.227 . S
N933 Co930 2.121 . S
N933 C935 1.375 . S
N933 C936 1.313 . S
C934 C935 1.338 1_655 S
C934 N937 1.377 . S
C934 H954 0.930 1_554 S
C935 N933 1.375 . S
C935 C934 1.338 1_455 S
C935 H939 0.931 . S
C936 N933 1.313 . S
C936 N937 1.344 1_455 S
C936 H940 0.930 . S
N937 C934 1.377 . S
N937 C936 1.344 1_655 S
O938 Co930 2.055 . S
O938 C942 1.253 . S
H939 C935 0.931 . S
H940 C936 0.930 . S
O941 Co930 2.039 . S
O941 C931 1.265 . S
C942 O938 1.253 . S
C942 O943 1.227 . S
O943 C942 1.227 . S
N944 Co930 2.140 . S
N944 C947 1.346 . S
N944 C948 1.345 1_554 S
C945 C946 1.387 . S
C945 C949 1.391 . S
C946 C945 1.387 . S
C946 C947 1.369 1_556 S
C946 H955 0.929 . S
C947 N944 1.346 . S
C947 C946 1.369 1_554 S
C947 H950 0.928 . S
C948 N944 1.345 1_556 S
C948 C949 1.371 . S
C948 H951 0.931 . S
C949 C945 1.391 . S
C949 C948 1.371 . S
C949 H956 0.930 . S
H950 C947 0.928 . S
H951 C948 0.931 . S
H952 C928 0.930 . S
H953 C925 0.930 . S
H954 C934 0.930 1_556 S
H955 C946 0.929 . S
H956 C949 0.930 . S
C957 C958 1.351 . S
C957 N960 1.368 . S
C957 H962 0.931 . S
C958 C957 1.351 . S
C958 N959 1.373 . S
C958 H986 0.930 . S
N959 C958 1.373 . S
N959 C961 1.340 . S
N960 C957 1.368 . S
N960 C961 1.321 . S
N960 Co963 2.135 . S
C961 N959 1.340 . S
C961 N960 1.321 . S
C961 H985 0.930 . S
H962 C957 0.931 . S
Co963 N960 2.135 . S
Co963 N966 2.121 . S
Co963 O971 2.055 . S
Co963 O974 2.039 . S
Co963 N977 2.140 . S
C964 O965 1.227 . S
C964 O974 1.265 . S
O965 C964 1.227 . S
N966 Co963 2.121 . S
N966 C968 1.375 . S
N966 C969 1.313 . S
C967 C968 1.338 . S
C967 N970 1.377 . S
C967 H987 0.930 1_554 S
C968 N966 1.375 . S
C968 C967 1.338 . S
C968 H972 0.931 . S
C969 N966 1.313 . S
C969 N970 1.344 . S
C969 H973 0.930 . S
N970 C967 1.377 . S
N970 C969 1.344 . S
O971 Co963 2.055 . S
O971 C975 1.253 . S
H972 C968 0.931 . S
H973 C969 0.930 . S
O974 Co963 2.039 . S
O974 C964 1.265 . S
C975 O971 1.253 . S
C975 O976 1.227 . S
O976 C975 1.227 . S
N977 Co963 2.140 . S
N977 C980 1.346 . S
N977 C981 1.345 1_554 S
C978 C979 1.387 . S
C978 C982 1.391 . S
C979 C978 1.387 . S
C979 C980 1.369 1_556 S
C979 H988 0.929 . S
C980 N977 1.346 . S
C980 C979 1.369 1_554 S
C980 H983 0.928 . S
C981 N977 1.345 1_556 S
C981 C982 1.371 . S
C981 H984 0.931 . S
C982 C978 1.391 . S
C982 C981 1.371 . S
C982 H989 0.930 . S
H983 C980 0.928 . S
H984 C981 0.931 . S
H985 C961 0.930 . S
H986 C958 0.930 . S
H987 C967 0.930 1_556 S
H988 C979 0.929 . S
H989 C982 0.930 . S
C990 C991 1.351 . S
C990 N993 1.368 . S
C990 H995 0.931 . S
C991 C990 1.351 . S
C991 N992 1.373 . S
C991 H1019 0.930 . S
N992 C991 1.373 . S
N992 C994 1.340 . S
N993 C990 1.368 . S
N993 C994 1.321 . S
N993 Co996 2.135 . S
C994 N992 1.340 . S
C994 N993 1.321 . S
C994 H1018 0.930 . S
H995 C990 0.931 . S
Co996 N993 2.135 . S
Co996 N999 2.121 . S
Co996 O1004 2.055 . S
Co996 O1007 2.039 . S
Co996 N1010 2.140 . S
C997 O998 1.227 . S
C997 O1007 1.265 . S
O998 C997 1.227 . S
N999 Co996 2.121 . S
N999 C1001 1.375 . S
N999 C1002 1.313 . S
C1000 C1001 1.338 1_655 S
C1000 N1003 1.377 . S
C1000 H1020 0.930 . S
C1001 N999 1.375 . S
C1001 C1000 1.338 1_455 S
C1001 H1005 0.931 . S
C1002 N999 1.313 . S
C1002 N1003 1.344 1_455 S
C1002 H1006 0.930 . S
N1003 C1000 1.377 . S
N1003 C1002 1.344 1_655 S
O1004 Co996 2.055 . S
O1004 C1008 1.253 . S
H1005 C1001 0.931 . S
H1006 C1002 0.930 . S
O1007 Co996 2.039 . S
O1007 C997 1.265 . S
C1008 O1004 1.253 . S
C1008 O1009 1.227 . S
O1009 C1008 1.227 . S
N1010 Co996 2.140 . S
N1010 C1013 1.346 . S
N1010 C1014 1.345 . S
C1011 C1012 1.387 . S
C1011 C1015 1.391 . S
C1012 C1011 1.387 . S
C1012 C1013 1.369 . S
C1012 H1021 0.929 . S
C1013 N1010 1.346 . S
C1013 C1012 1.369 . S
C1013 H1016 0.928 . S
C1014 N1010 1.345 . S
C1014 C1015 1.371 . S
C1014 H1017 0.931 . S
C1015 C1011 1.391 . S
C1015 C1014 1.371 . S
C1015 H1022 0.930 . S
H1016 C1013 0.928 . S
H1017 C1014 0.931 . S
H1018 C994 0.930 . S
H1019 C991 0.930 . S
H1020 C1000 0.930 . S
H1021 C1012 0.929 . S
H1022 C1015 0.930 . S
C1023 C1024 1.351 . S
C1023 N1026 1.368 . S
C1023 H1028 0.931 . S
C1024 C1023 1.351 . S
C1024 N1025 1.373 . S
C1024 H1052 0.930 . S
N1025 C1024 1.373 . S
N1025 C1027 1.340 . S
N1026 C1023 1.368 . S
N1026 C1027 1.321 . S
N1026 Co1029 2.135 . S
C1027 N1025 1.340 . S
C1027 N1026 1.321 . S
C1027 H1051 0.930 . S
H1028 C1023 0.931 . S
Co1029 N1026 2.135 . S
Co1029 N1032 2.121 . S
Co1029 O1037 2.055 . S
Co1029 O1040 2.039 . S
Co1029 N1043 2.140 . S
C1030 O1031 1.227 . S
C1030 O1040 1.265 . S
O1031 C1030 1.227 . S
N1032 Co1029 2.121 . S
N1032 C1034 1.375 . S
N1032 C1035 1.313 . S
C1033 C1034 1.338 . S
C1033 N1036 1.377 . S
C1033 H1053 0.930 . S
C1034 N1032 1.375 . S
C1034 C1033 1.338 . S
C1034 H1038 0.931 . S
C1035 N1032 1.313 . S
C1035 N1036 1.344 . S
C1035 H1039 0.930 . S
N1036 C1033 1.377 . S
N1036 C1035 1.344 . S
O1037 Co1029 2.055 . S
O1037 C1041 1.253 . S
H1038 C1034 0.931 . S
H1039 C1035 0.930 . S
O1040 Co1029 2.039 . S
O1040 C1030 1.265 . S
C1041 O1037 1.253 . S
C1041 O1042 1.227 . S
O1042 C1041 1.227 . S
N1043 Co1029 2.140 . S
N1043 C1046 1.346 . S
N1043 C1047 1.345 . S
C1044 C1045 1.387 . S
C1044 C1048 1.391 . S
C1045 C1044 1.387 . S
C1045 C1046 1.369 . S
C1045 H1054 0.929 . S
C1046 N1043 1.346 . S
C1046 C1045 1.369 . S
C1046 H1049 0.928 . S
C1047 N1043 1.345 . S
C1047 C1048 1.371 . S
C1047 H1050 0.931 . S
C1048 C1044 1.391 . S
C1048 C1047 1.371 . S
C1048 H1055 0.930 . S
H1049 C1046 0.928 . S
H1050 C1047 0.931 . S
H1051 C1027 0.930 . S
H1052 C1024 0.930 . S
H1053 C1033 0.930 . S
H1054 C1045 0.929 . S
H1055 C1048 0.930 . S
C1056 C1057 1.351 . S
C1056 N1059 1.368 . S
C1056 H1061 0.931 . S
C1057 C1056 1.351 . S
C1057 N1058 1.373 . S
C1057 H1085 0.930 . S
N1058 C1057 1.373 . S
N1058 C1060 1.340 . S
N1059 C1056 1.368 . S
N1059 C1060 1.321 . S
N1059 Co1062 2.135 . S
C1060 N1058 1.340 . S
C1060 N1059 1.321 . S
C1060 H1084 0.930 . S
H1061 C1056 0.931 . S
Co1062 N1059 2.135 . S
Co1062 N1065 2.121 . S
Co1062 O1070 2.055 . S
Co1062 O1073 2.039 . S
Co1062 N1076 2.140 . S
C1063 O1064 1.227 . S
C1063 O1073 1.265 . S
O1064 C1063 1.227 . S
N1065 Co1062 2.121 . S
N1065 C1067 1.375 . S
N1065 C1068 1.313 . S
C1066 C1067 1.338 1_545 S
C1066 N1069 1.377 . S
C1066 H1086 0.930 . S
C1067 N1065 1.375 . S
C1067 C1066 1.338 1_565 S
C1067 H1071 0.931 . S
C1068 N1065 1.313 . S
C1068 N1069 1.344 1_565 S
C1068 H1072 0.930 . S
N1069 C1066 1.377 . S
N1069 C1068 1.344 1_545 S
O1070 Co1062 2.055 . S
O1070 C1074 1.253 . S
H1071 C1067 0.931 . S
H1072 C1068 0.930 . S
O1073 Co1062 2.039 . S
O1073 C1063 1.265 . S
C1074 O1070 1.253 . S
C1074 O1075 1.227 . S
O1075 C1074 1.227 . S
N1076 Co1062 2.140 . S
N1076 C1079 1.346 . S
N1076 C1080 1.345 . S
C1077 C1078 1.387 . S
C1077 C1081 1.391 . S
C1078 C1077 1.387 . S
C1078 C1079 1.369 . S
C1078 H1087 0.929 . S
C1079 N1076 1.346 . S
C1079 C1078 1.369 . S
C1079 H1082 0.928 . S
C1080 N1076 1.345 . S
C1080 C1081 1.371 . S
C1080 H1083 0.931 . S
C1081 C1077 1.391 . S
C1081 C1080 1.371 . S
C1081 H1088 0.930 . S
H1082 C1079 0.928 . S
H1083 C1080 0.931 . S
H1084 C1060 0.930 . S
H1085 C1057 0.930 . S
H1086 C1066 0.930 . S
H1087 C1078 0.929 . S
H1088 C1081 0.930 . S
C1089 C1090 1.351 . S
C1089 N1092 1.368 . S
C1089 H1094 0.931 . S
C1090 C1089 1.351 . S
C1090 N1091 1.373 . S
C1090 H1118 0.930 . S
N1091 C1090 1.373 . S
N1091 C1093 1.340 . S
N1092 C1089 1.368 . S
N1092 C1093 1.321 . S
N1092 Co1095 2.135 . S
C1093 N1091 1.340 . S
C1093 N1092 1.321 . S
C1093 H1117 0.930 . S
H1094 C1089 0.931 . S
Co1095 N1092 2.135 . S
Co1095 N1098 2.121 . S
Co1095 O1103 2.055 . S
Co1095 O1106 2.039 . S
Co1095 N1109 2.140 . S
C1096 O1097 1.227 . S
C1096 O1106 1.265 . S
O1097 C1096 1.227 . S
N1098 Co1095 2.121 . S
N1098 C1100 1.375 . S
N1098 C1101 1.313 . S
C1099 C1100 1.338 . S
C1099 N1102 1.377 . S
C1099 H1119 0.930 . S
C1100 N1098 1.375 . S
C1100 C1099 1.338 . S
C1100 H1104 0.931 . S
C1101 N1098 1.313 . S
C1101 N1102 1.344 . S
C1101 H1105 0.930 . S
N1102 C1099 1.377 . S
N1102 C1101 1.344 . S
O1103 Co1095 2.055 . S
O1103 C1107 1.253 . S
H1104 C1100 0.931 . S
H1105 C1101 0.930 . S
O1106 Co1095 2.039 . S
O1106 C1096 1.265 . S
C1107 O1103 1.253 . S
C1107 O1108 1.227 . S
O1108 C1107 1.227 . S
N1109 Co1095 2.140 . S
N1109 C1112 1.346 . S
N1109 C1113 1.345 . S
C1110 C1111 1.387 . S
C1110 C1114 1.391 . S
C1111 C1110 1.387 . S
C1111 C1112 1.369 . S
C1111 H1120 0.929 . S
C1112 N1109 1.346 . S
C1112 C1111 1.369 . S
C1112 H1115 0.928 . S
C1113 N1109 1.345 . S
C1113 C1114 1.371 . S
C1113 H1116 0.931 . S
C1114 C1110 1.391 . S
C1114 C1113 1.371 . S
C1114 H1121 0.930 . S
H1115 C1112 0.928 . S
H1116 C1113 0.931 . S
H1117 C1093 0.930 . S
H1118 C1090 0.930 . S
H1119 C1099 0.930 . S
H1120 C1111 0.929 . S
H1121 C1114 0.930 . S
C1122 C1123 1.351 . S
C1122 N1125 1.368 . S
C1122 H1127 0.931 . S
C1123 C1122 1.351 . S
C1123 N1124 1.373 . S
C1123 H1151 0.930 . S
N1124 C1123 1.373 . S
N1124 C1126 1.340 . S
N1125 C1122 1.368 . S
N1125 C1126 1.321 . S
N1125 Co1128 2.135 . S
C1126 N1124 1.340 . S
C1126 N1125 1.321 . S
C1126 H1150 0.930 . S
H1127 C1122 0.931 . S
Co1128 N1125 2.135 . S
Co1128 N1131 2.121 . S
Co1128 O1136 2.055 . S
Co1128 O1139 2.039 . S
Co1128 N1142 2.140 . S
C1129 O1130 1.227 . S
C1129 O1139 1.265 . S
O1130 C1129 1.227 . S
N1131 Co1128 2.121 . S
N1131 C1133 1.375 . S
N1131 C1134 1.313 . S
C1132 C1133 1.338 . S
C1132 N1135 1.377 . S
C1132 H1152 0.930 . S
C1133 N1131 1.375 . S
C1133 C1132 1.338 . S
C1133 H1137 0.931 . S
C1134 N1131 1.313 . S
C1134 N1135 1.344 . S
C1134 H1138 0.930 . S
N1135 C1132 1.377 . S
N1135 C1134 1.344 . S
O1136 Co1128 2.055 . S
O1136 C1140 1.253 . S
H1137 C1133 0.931 . S
H1138 C1134 0.930 . S
O1139 Co1128 2.039 . S
O1139 C1129 1.265 . S
C1140 O1136 1.253 . S
C1140 O1141 1.227 . S
O1141 C1140 1.227 . S
N1142 Co1128 2.140 . S
N1142 C1145 1.346 . S
N1142 C1146 1.345 . S
C1143 C1144 1.387 . S
C1143 C1147 1.391 . S
C1144 C1143 1.387 . S
C1144 C1145 1.369 . S
C1144 H1153 0.929 . S
C1145 N1142 1.346 . S
C1145 C1144 1.369 . S
C1145 H1148 0.928 . S
C1146 N1142 1.345 . S
C1146 C1147 1.371 . S
C1146 H1149 0.931 . S
C1147 C1143 1.391 . S
C1147 C1146 1.371 . S
C1147 H1154 0.930 . S
H1148 C1145 0.928 . S
H1149 C1146 0.931 . S
H1150 C1126 0.930 . S
H1151 C1123 0.930 . S
H1152 C1132 0.930 . S
H1153 C1144 0.929 . S
H1154 C1147 0.930 . S
C1155 C1156 1.351 . S
C1155 N1158 1.368 . S
C1155 H1160 0.931 . S
C1156 C1155 1.351 . S
C1156 N1157 1.373 . S
C1156 H1184 0.930 . S
N1157 C1156 1.373 . S
N1157 C1159 1.340 . S
N1158 C1155 1.368 . S
N1158 C1159 1.321 . S
N1158 Co1161 2.135 . S
C1159 N1157 1.340 . S
C1159 N1158 1.321 . S
C1159 H1183 0.930 . S
H1160 C1155 0.931 . S
Co1161 N1158 2.135 . S
Co1161 N1164 2.121 . S
Co1161 O1169 2.055 . S
Co1161 O1172 2.039 . S
Co1161 N1175 2.140 . S
C1162 O1163 1.227 . S
C1162 O1172 1.265 . S
O1163 C1162 1.227 . S
N1164 Co1161 2.121 . S
N1164 C1166 1.375 . S
N1164 C1167 1.313 . S
C1165 C1166 1.338 . S
C1165 N1168 1.377 . S
C1165 H1185 0.930 . S
C1166 N1164 1.375 . S
C1166 C1165 1.338 . S
C1166 H1170 0.931 . S
C1167 N1164 1.313 . S
C1167 N1168 1.344 . S
C1167 H1171 0.930 . S
N1168 C1165 1.377 . S
N1168 C1167 1.344 . S
O1169 Co1161 2.055 . S
O1169 C1173 1.253 . S
H1170 C1166 0.931 . S
H1171 C1167 0.930 . S
O1172 Co1161 2.039 . S
O1172 C1162 1.265 . S
C1173 O1169 1.253 . S
C1173 O1174 1.227 . S
O1174 C1173 1.227 . S
N1175 Co1161 2.140 . S
N1175 C1178 1.346 . S
N1175 C1179 1.345 . S
C1176 C1177 1.387 . S
C1176 C1180 1.391 . S
C1177 C1176 1.387 . S
C1177 C1178 1.369 . S
C1177 H1186 0.929 . S
C1178 N1175 1.346 . S
C1178 C1177 1.369 . S
C1178 H1181 0.928 . S
C1179 N1175 1.345 . S
C1179 C1180 1.371 . S
C1179 H1182 0.931 . S
C1180 C1176 1.391 . S
C1180 C1179 1.371 . S
C1180 H1187 0.930 . S
H1181 C1178 0.928 . S
H1182 C1179 0.931 . S
H1183 C1159 0.930 . S
H1184 C1156 0.930 . S
H1185 C1165 0.930 . S
H1186 C1177 0.929 . S
H1187 C1180 0.930 . S
C120 C21 1.067 . S
C54 C153 1.067 1_565 S
C186 C87 1.067 1_655 S
C318 C219 1.067 . S
C252 C351 1.067 1_545 S
C384 C285 1.067 1_455 S
C516 C417 1.067 . S
C450 C549 1.067 . S
C582 C483 1.067 . S
C615 C714 1.067 . S
C648 C747 1.067 . S
C780 C681 1.067 . S
C912 C813 1.067 . S
C945 C846 1.067 . S
C978 C879 1.067 . S
C1110 C1011 1.067 . S
C1044 C1143 1.067 . S
C1176 C1077 1.067 . S
C7 C964 2.433 . S
C898 C40 2.433 . S
C73 C931 2.433 . S
C436 C106 2.433 . S
C139 C469 2.433 . S
C403 C172 2.433 . S
C766 C205 2.433 . S
C700 C238 2.433 . S
C733 C271 2.433 . S
C304 C1030 2.433 . S
C1063 C337 2.433 . S
C370 C997 2.433 . S
C832 C502 2.433 1_455 S
C865 C535 2.433 . S
C799 C568 2.433 1_565 S
C601 C1162 2.433 1_545 S
C634 C1096 2.433 1_655 S
C1129 C667 2.433 . S
N13 N607 2.414 . S
N640 N46 2.414 . S
N79 N673 2.414 . S
N1102 N112 2.414 . S
N145 N1135 2.414 . S
N1168 N178 2.414 . S
N211 N805 2.414 . S
N244 N838 2.414 . S
N277 N871 2.414 . S
N508 N310 2.414 . S
N541 N343 2.414 . S
N376 N574 2.414 . S
N409 N1003 2.414 1_455 S
N1036 N442 2.414 . S
N475 N1069 2.414 1_565 S
N904 N706 2.414 1_544 S
N739 N937 2.414 1_456 S
N970 N772 2.414 1_554 S
N233 C18 1.576 1_556 S
C51 N266 1.576 1_554 S
C84 N200 1.575 1_554 S
C117 N365 1.576 . S
C150 N299 1.575 . S
C183 N332 1.576 . S
N35 C216 1.576 1_554 S
N68 C249 1.576 1_554 S
N2 C282 1.575 1_554 S
C315 N167 1.576 . S
C348 N101 1.575 . S
C381 N134 1.576 . S
C414 N629 1.576 . S
N662 C447 1.576 . S
N596 C480 1.575 . S
C513 N761 1.576 . S
N695 C546 1.575 . S
N728 C579 1.576 . S
C612 N431 1.576 . S
C645 N464 1.576 . S
N398 C678 1.575 . S
N563 C711 1.576 . S
N497 C744 1.575 . S
N530 C777 1.576 . S
C810 N1025 1.576 . S
N1058 C843 1.576 . S
N992 C876 1.575 . S
C909 N1157 1.576 . S
C942 N1091 1.575 . S
C975 N1124 1.576 . S
N827 C1008 1.576 . S
N860 C1041 1.576 . S
C1074 N794 1.575 . S
C1107 N959 1.576 . S
C1140 N893 1.575 . S
C1173 N926 1.576 . S
