# Generated by pormake.
# Topology wip, (6)-cn, num edge types: 1
# Building blocks:
#     Node 0, Type 0, BuildingBlock: GEDQOX_clean_sbu_0, # of connection points: 6
#     Node 1, Type 0, BuildingBlock: GEDQOX_clean_sbu_0, # of connection points: 6
#     Node 2, Type 0, BuildingBlock: GEDQOX_clean_sbu_0, # of connection points: 6
#     Node 3, Type 0, BuildingBlock: GEDQOX_clean_sbu_0, # of connection points: 6
#     Node 4, Type 0, BuildingBlock: GEDQOX_clean_sbu_0, # of connection points: 6
#     Node 5, Type 0, BuildingBlock: GEDQOX_clean_sbu_0, # of connection points: 6
#     Node 6, Type 0, BuildingBlock: GEDQOX_clean_sbu_0, # of connection points: 6
#     Node 7, Type 0, BuildingBlock: GEDQOX_clean_sbu_0, # of connection points: 6
#     Node 8, Type 0, BuildingBlock: GEDQOX_clean_sbu_0, # of connection points: 6
#     Node 9, Type 0, BuildingBlock: GEDQOX_clean_sbu_0, # of connection points: 6
#     Node 10, Type 0, BuildingBlock: GEDQOX_clean_sbu_0, # of connection points: 6
#     Node 11, Type 0, BuildingBlock: GEDQOX_clean_sbu_0, # of connection points: 6
#     Node 12, Type 0, BuildingBlock: GEDQOX_clean_sbu_0, # of connection points: 6
#     Node 13, Type 0, BuildingBlock: GEDQOX_clean_sbu_0, # of connection points: 6
#     Node 14, Type 0, BuildingBlock: GEDQOX_clean_sbu_0, # of connection points: 6
#     Node 15, Type 0, BuildingBlock: GEDQOX_clean_sbu_0, # of connection points: 6
#     Node 16, Type 0, BuildingBlock: GEDQOX_clean_sbu_0, # of connection points: 6
#     Node 17, Type 0, BuildingBlock: GEDQOX_clean_sbu_0, # of connection points: 6
#     Node 18, Type 0, BuildingBlock: GEDQOX_clean_sbu_0, # of connection points: 6
#     Node 19, Type 0, BuildingBlock: GEDQOX_clean_sbu_0, # of connection points: 6
#     Node 20, Type 0, BuildingBlock: GEDQOX_clean_sbu_0, # of connection points: 6
#     Node 21, Type 0, BuildingBlock: GEDQOX_clean_sbu_0, # of connection points: 6
#     Node 22, Type 0, BuildingBlock: GEDQOX_clean_sbu_0, # of connection points: 6
#     Node 23, Type 0, BuildingBlock: GEDQOX_clean_sbu_0, # of connection points: 6
#     Node 24, Type 0, BuildingBlock: GEDQOX_clean_sbu_0, # of connection points: 6
#     Node 25, Type 0, BuildingBlock: GEDQOX_clean_sbu_0, # of connection points: 6
#     Node 26, Type 0, BuildingBlock: GEDQOX_clean_sbu_0, # of connection points: 6
#     Node 27, Type 0, BuildingBlock: GEDQOX_clean_sbu_0, # of connection points: 6
#     Node 28, Type 0, BuildingBlock: GEDQOX_clean_sbu_0, # of connection points: 6
#     Node 29, Type 0, BuildingBlock: GEDQOX_clean_sbu_0, # of connection points: 6
#     Node 30, Type 0, BuildingBlock: GEDQOX_clean_sbu_0, # of connection points: 6
#     Node 31, Type 0, BuildingBlock: GEDQOX_clean_sbu_0, # of connection points: 6
#     Edge 32, Type (0, 0), BuildingBlock: CIFDUS_clean_linker_0, # of connection points: 2
#     Edge 33, Type (0, 0), BuildingBlock: CIFDUS_clean_linker_0, # of connection points: 2
#     Edge 34, Type (0, 0), BuildingBlock: CIFDUS_clean_linker_0, # of connection points: 2
#     Edge 35, Type (0, 0), BuildingBlock: CIFDUS_clean_linker_0, # of connection points: 2
#     Edge 36, Type (0, 0), BuildingBlock: CIFDUS_clean_linker_0, # of connection points: 2
#     Edge 37, Type (0, 0), BuildingBlock: CIFDUS_clean_linker_0, # of connection points: 2
#     Edge 38, Type (0, 0), BuildingBlock: CIFDUS_clean_linker_0, # of connection points: 2
#     Edge 39, Type (0, 0), BuildingBlock: CIFDUS_clean_linker_0, # of connection points: 2
#     Edge 40, Type (0, 0), BuildingBlock: CIFDUS_clean_linker_0, # of connection points: 2
#     Edge 41, Type (0, 0), BuildingBlock: CIFDUS_clean_linker_0, # of connection points: 2
#     Edge 42, Type (0, 0), BuildingBlock: CIFDUS_clean_linker_0, # of connection points: 2
#     Edge 43, Type (0, 0), BuildingBlock: CIFDUS_clean_linker_0, # of connection points: 2
#     Edge 44, Type (0, 0), BuildingBlock: CIFDUS_clean_linker_0, # of connection points: 2
#     Edge 45, Type (0, 0), BuildingBlock: CIFDUS_clean_linker_0, # of connection points: 2
#     Edge 46, Type (0, 0), BuildingBlock: CIFDUS_clean_linker_0, # of connection points: 2
#     Edge 47, Type (0, 0), BuildingBlock: CIFDUS_clean_linker_0, # of connection points: 2
#     Edge 48, Type (0, 0), BuildingBlock: CIFDUS_clean_linker_0, # of connection points: 2
#     Edge 49, Type (0, 0), BuildingBlock: CIFDUS_clean_linker_0, # of connection points: 2
#     Edge 50, Type (0, 0), BuildingBlock: CIFDUS_clean_linker_0, # of connection points: 2
#     Edge 51, Type (0, 0), BuildingBlock: CIFDUS_clean_linker_0, # of connection points: 2
#     Edge 52, Type (0, 0), BuildingBlock: CIFDUS_clean_linker_0, # of connection points: 2
#     Edge 53, Type (0, 0), BuildingBlock: CIFDUS_clean_linker_0, # of connection points: 2
#     Edge 54, Type (0, 0), BuildingBlock: CIFDUS_clean_linker_0, # of connection points: 2
#     Edge 55, Type (0, 0), BuildingBlock: CIFDUS_clean_linker_0, # of connection points: 2
#     Edge 56, Type (0, 0), BuildingBlock: CIFDUS_clean_linker_0, # of connection points: 2
#     Edge 57, Type (0, 0), BuildingBlock: CIFDUS_clean_linker_0, # of connection points: 2
#     Edge 58, Type (0, 0), BuildingBlock: CIFDUS_clean_linker_0, # of connection points: 2
#     Edge 59, Type (0, 0), BuildingBlock: CIFDUS_clean_linker_0, # of connection points: 2
#     Edge 60, Type (0, 0), BuildingBlock: CIFDUS_clean_linker_0, # of connection points: 2
#     Edge 61, Type (0, 0), BuildingBlock: CIFDUS_clean_linker_0, # of connection points: 2
#     Edge 62, Type (0, 0), BuildingBlock: CIFDUS_clean_linker_0, # of connection points: 2
#     Edge 63, Type (0, 0), BuildingBlock: CIFDUS_clean_linker_0, # of connection points: 2
#     Edge 64, Type (0, 0), BuildingBlock: CIFDUS_clean_linker_0, # of connection points: 2
#     Edge 65, Type (0, 0), BuildingBlock: CIFDUS_clean_linker_0, # of connection points: 2
#     Edge 66, Type (0, 0), BuildingBlock: CIFDUS_clean_linker_0, # of connection points: 2
#     Edge 67, Type (0, 0), BuildingBlock: CIFDUS_clean_linker_0, # of connection points: 2
#     Edge 68, Type (0, 0), BuildingBlock: CIFDUS_clean_linker_0, # of connection points: 2
#     Edge 69, Type (0, 0), BuildingBlock: CIFDUS_clean_linker_0, # of connection points: 2
#     Edge 70, Type (0, 0), BuildingBlock: CIFDUS_clean_linker_0, # of connection points: 2
#     Edge 71, Type (0, 0), BuildingBlock: CIFDUS_clean_linker_0, # of connection points: 2
#     Edge 72, Type (0, 0), BuildingBlock: CIFDUS_clean_linker_0, # of connection points: 2
#     Edge 73, Type (0, 0), BuildingBlock: CIFDUS_clean_linker_0, # of connection points: 2
#     Edge 74, Type (0, 0), BuildingBlock: CIFDUS_clean_linker_0, # of connection points: 2
#     Edge 75, Type (0, 0), BuildingBlock: CIFDUS_clean_linker_0, # of connection points: 2
#     Edge 76, Type (0, 0), BuildingBlock: CIFDUS_clean_linker_0, # of connection points: 2
#     Edge 77, Type (0, 0), BuildingBlock: CIFDUS_clean_linker_0, # of connection points: 2
#     Edge 78, Type (0, 0), BuildingBlock: CIFDUS_clean_linker_0, # of connection points: 2
#     Edge 79, Type (0, 0), BuildingBlock: CIFDUS_clean_linker_0, # of connection points: 2
#     Edge 80, Type (0, 0), BuildingBlock: CIFDUS_clean_linker_0, # of connection points: 2
#     Edge 81, Type (0, 0), BuildingBlock: CIFDUS_clean_linker_0, # of connection points: 2
#     Edge 82, Type (0, 0), BuildingBlock: CIFDUS_clean_linker_0, # of connection points: 2
#     Edge 83, Type (0, 0), BuildingBlock: CIFDUS_clean_linker_0, # of connection points: 2
#     Edge 84, Type (0, 0), BuildingBlock: CIFDUS_clean_linker_0, # of connection points: 2
#     Edge 85, Type (0, 0), BuildingBlock: CIFDUS_clean_linker_0, # of connection points: 2
#     Edge 86, Type (0, 0), BuildingBlock: CIFDUS_clean_linker_0, # of connection points: 2
#     Edge 87, Type (0, 0), BuildingBlock: CIFDUS_clean_linker_0, # of connection points: 2
#     Edge 88, Type (0, 0), BuildingBlock: CIFDUS_clean_linker_0, # of connection points: 2
#     Edge 89, Type (0, 0), BuildingBlock: CIFDUS_clean_linker_0, # of connection points: 2
#     Edge 90, Type (0, 0), BuildingBlock: CIFDUS_clean_linker_0, # of connection points: 2
#     Edge 91, Type (0, 0), BuildingBlock: CIFDUS_clean_linker_0, # of connection points: 2
#     Edge 92, Type (0, 0), BuildingBlock: CIFDUS_clean_linker_0, # of connection points: 2
#     Edge 93, Type (0, 0), BuildingBlock: CIFDUS_clean_linker_0, # of connection points: 2
#     Edge 94, Type (0, 0), BuildingBlock: CIFDUS_clean_linker_0, # of connection points: 2
#     Edge 95, Type (0, 0), BuildingBlock: CIFDUS_clean_linker_0, # of connection points: 2
#     Edge 96, Type (0, 0), BuildingBlock: CIFDUS_clean_linker_0, # of connection points: 2
#     Edge 97, Type (0, 0), BuildingBlock: CIFDUS_clean_linker_0, # of connection points: 2
#     Edge 98, Type (0, 0), BuildingBlock: CIFDUS_clean_linker_0, # of connection points: 2
#     Edge 99, Type (0, 0), BuildingBlock: CIFDUS_clean_linker_0, # of connection points: 2
#     Edge 100, Type (0, 0), BuildingBlock: CIFDUS_clean_linker_0, # of connection points: 2
#     Edge 101, Type (0, 0), BuildingBlock: CIFDUS_clean_linker_0, # of connection points: 2
#     Edge 102, Type (0, 0), BuildingBlock: CIFDUS_clean_linker_0, # of connection points: 2
#     Edge 103, Type (0, 0), BuildingBlock: CIFDUS_clean_linker_0, # of connection points: 2
#     Edge 104, Type (0, 0), BuildingBlock: CIFDUS_clean_linker_0, # of connection points: 2
#     Edge 105, Type (0, 0), BuildingBlock: CIFDUS_clean_linker_0, # of connection points: 2
#     Edge 106, Type (0, 0), BuildingBlock: CIFDUS_clean_linker_0, # of connection points: 2
#     Edge 107, Type (0, 0), BuildingBlock: CIFDUS_clean_linker_0, # of connection points: 2
#     Edge 108, Type (0, 0), BuildingBlock: CIFDUS_clean_linker_0, # of connection points: 2
#     Edge 109, Type (0, 0), BuildingBlock: CIFDUS_clean_linker_0, # of connection points: 2
#     Edge 110, Type (0, 0), BuildingBlock: CIFDUS_clean_linker_0, # of connection points: 2
#     Edge 111, Type (0, 0), BuildingBlock: CIFDUS_clean_linker_0, # of connection points: 2
#     Edge 112, Type (0, 0), BuildingBlock: CIFDUS_clean_linker_0, # of connection points: 2
#     Edge 113, Type (0, 0), BuildingBlock: CIFDUS_clean_linker_0, # of connection points: 2
#     Edge 114, Type (0, 0), BuildingBlock: CIFDUS_clean_linker_0, # of connection points: 2
#     Edge 115, Type (0, 0), BuildingBlock: CIFDUS_clean_linker_0, # of connection points: 2
#     Edge 116, Type (0, 0), BuildingBlock: CIFDUS_clean_linker_0, # of connection points: 2
#     Edge 117, Type (0, 0), BuildingBlock: CIFDUS_clean_linker_0, # of connection points: 2
#     Edge 118, Type (0, 0), BuildingBlock: CIFDUS_clean_linker_0, # of connection points: 2
#     Edge 119, Type (0, 0), BuildingBlock: CIFDUS_clean_linker_0, # of connection points: 2
#     Edge 120, Type (0, 0), BuildingBlock: CIFDUS_clean_linker_0, # of connection points: 2
#     Edge 121, Type (0, 0), BuildingBlock: CIFDUS_clean_linker_0, # of connection points: 2
#     Edge 122, Type (0, 0), BuildingBlock: CIFDUS_clean_linker_0, # of connection points: 2
#     Edge 123, Type (0, 0), BuildingBlock: CIFDUS_clean_linker_0, # of connection points: 2
#     Edge 124, Type (0, 0), BuildingBlock: CIFDUS_clean_linker_0, # of connection points: 2
#     Edge 125, Type (0, 0), BuildingBlock: CIFDUS_clean_linker_0, # of connection points: 2
#     Edge 126, Type (0, 0), BuildingBlock: CIFDUS_clean_linker_0, # of connection points: 2
#     Edge 127, Type (0, 0), BuildingBlock: CIFDUS_clean_linker_0, # of connection points: 2
# Relax obj value: 0.294
# Max RMSD: 0.275
# Mean RMSD: 0.247
data_MOF--net-wip--node1-GEDQOX_clean_sbu_0--edge1-CIFDUS_clean_linker_0
_symmetry_space_group_name_H-M    P1
_symmetry_Int_Tables_number       1
_symmetry_cell_setting            triclinic
loop_
_symmetry_equiv_pos_as_xyz
'x, y, z'
_cell_length_a     56.110506
_cell_length_b     56.152764
_cell_length_c     32.348304
_cell_angle_alpha  90.017131
_cell_angle_beta   89.928891
_cell_angle_gamma 89.833305
loop_
_atom_site_label
_atom_site_type_symbol
_atom_site_fract_x
_atom_site_fract_y
_atom_site_fract_z
_atom_type_partial_charge
Nd0 Nd 0.09104 0.44501 0.08578 0.0
Nd1 Nd 0.05987 0.4122 0.13714 0.0
C2 C 0.11142 0.47225 0.02868 0.0
C3 C 0.10734 0.48297 0.98753 0.0
C4 C 0.08444 0.4846 0.97043 0.0
C5 C 0.081 0.49558 0.93194 0.0
C6 C 0.1004 0.50514 0.90967 0.0
C7 C 0.12338 0.50289 0.92659 0.0
C8 C 0.12678 0.49196 0.96512 0.0
C9 C 0.11455 0.40712 0.12225 0.0
C10 C 0.05111 0.41126 0.04093 0.0
C11 C 0.04287 0.38403 0.196 0.0
C12 C 0.03716 0.38759 0.24017 0.0
C13 C 0.03672 0.36808 0.26717 0.0
C14 C 0.03135 0.37131 0.30914 0.0
C15 C 0.02632 0.39417 0.32496 0.0
C16 C 0.02708 0.41373 0.29776 0.0
C17 C 0.03251 0.41048 0.25584 0.0
C18 C 0.03668 0.45357 0.11551 0.0
C19 C 0.09234 0.4547 0.18303 0.0
O20 O 0.09896 0.4807 0.05971 0.0
O21 O 0.11386 0.44908 0.03007 0.0
O22 O 0.1238 0.42789 0.11577 0.0
O23 O 0.09435 0.40618 0.10492 0.0
O24 O 0.06143 0.43228 0.0423 0.0
O25 O 0.05209 0.39656 0.07281 0.0
O26 O 0.06541 0.385 0.18616 0.0
O27 O 0.02939 0.39533 0.16953 0.0
O28 O 0.0273 0.43251 0.11391 0.0
O29 O 0.05835 0.45191 0.12585 0.0
O30 O 0.07899 0.43535 0.18628 0.0
O31 O 0.09832 0.46381 0.14689 0.0
H32 H 0.0692 0.47757 0.98699 0.0
H33 H 0.06309 0.49663 0.91963 0.0
H34 H 0.13869 0.51019 0.91063 0.0
H35 H 0.14463 0.49082 0.97773 0.0
H36 H 0.04041 0.35031 0.25576 0.0
H37 H 0.03073 0.35583 0.32905 0.0
H38 H 0.02368 0.43161 0.30893 0.0
H39 H 0.03305 0.42586 0.23562 0.0
Nd40 Nd 0.7974 0.8276 0.33766 0.0
Nd41 Nd 0.82913 0.79395 0.38832 0.0
C42 C 0.77071 0.85017 0.28213 0.0
C43 C 0.76051 0.84682 0.24038 0.0
C44 C 0.76098 0.82454 0.22078 0.0
C45 C 0.75077 0.82164 0.18156 0.0
C46 C 0.73974 0.84094 0.16108 0.0
C47 C 0.73977 0.86334 0.18062 0.0
C48 C 0.75003 0.86621 0.21984 0.0
C49 C 0.83758 0.84745 0.37273 0.0
C50 C 0.82724 0.7841 0.29183 0.0
C51 C 0.85884 0.7757 0.4437 0.0
C52 C 0.85926 0.77126 0.48872 0.0
C53 C 0.84983 0.78772 0.51719 0.0
C54 C 0.84994 0.78267 0.55966 0.0
C55 C 0.85962 0.76112 0.57443 0.0
C56 C 0.86899 0.74475 0.54568 0.0
C57 C 0.86878 0.74977 0.50336 0.0
C58 C 0.78571 0.77431 0.36892 0.0
C59 C 0.78877 0.82875 0.43565 0.0
O60 O 0.76193 0.83709 0.31199 0.0
O61 O 0.79389 0.85232 0.28439 0.0
O62 O 0.81723 0.85827 0.36949 0.0
O63 O 0.83653 0.82755 0.35449 0.0
O64 O 0.80801 0.79768 0.29274 0.0
O65 O 0.84188 0.78289 0.32376 0.0
O66 O 0.85969 0.79784 0.43129 0.0
O67 O 0.84392 0.76289 0.42227 0.0
O68 O 0.80579 0.76275 0.36841 0.0
O69 O 0.78948 0.79578 0.37811 0.0
O70 O 0.80826 0.81533 0.43832 0.0
O71 O 0.77904 0.83418 0.39964 0.0
H72 H 0.76906 0.80935 0.23596 0.0
H73 H 0.75148 0.8042 0.16729 0.0
H74 H 0.73128 0.87854 0.16614 0.0
H75 H 0.74952 0.88359 0.2344 0.0
H76 H 0.84243 0.80447 0.50662 0.0
H77 H 0.84278 0.79576 0.58095 0.0
H78 H 0.87626 0.72786 0.55586 0.0
H79 H 0.87599 0.73676 0.48196 0.0
Nd80 Nd 0.40463 0.55527 0.57919 0.0
Nd81 Nd 0.43465 0.58973 0.6297 0.0
C82 C 0.38579 0.52591 0.52358 0.0
C83 C 0.38996 0.51486 0.48218 0.0
C84 C 0.39653 0.49074 0.4794 0.0
C85 C 0.39919 0.47961 0.44089 0.0
C86 C 0.39519 0.4922 0.40385 0.0
C87 C 0.38837 0.5163 0.40656 0.0
C88 C 0.3858 0.52749 0.44521 0.0
C89 C 0.38091 0.59433 0.61127 0.0
C90 C 0.44526 0.5888 0.53362 0.0
C91 C 0.45041 0.62032 0.68561 0.0
C92 C 0.45256 0.6207 0.73118 0.0
C93 C 0.43275 0.61709 0.75717 0.0
C94 C 0.43556 0.61672 0.80021 0.0
C95 C 0.45823 0.6197 0.81799 0.0
C96 C 0.47792 0.62339 0.79189 0.0
C97 C 0.47509 0.62398 0.74901 0.0
C98 C 0.45822 0.5479 0.61238 0.0
C99 C 0.4017 0.54848 0.67743 0.0
O100 O 0.399 0.51871 0.55455 0.0
O101 O 0.3811 0.54876 0.52521 0.0
O102 O 0.37176 0.57321 0.60837 0.0
O103 O 0.40115 0.59446 0.59411 0.0
O104 O 0.43372 0.56834 0.53454 0.0
O105 O 0.44499 0.60343 0.56559 0.0
O106 O 0.42899 0.62131 0.66984 0.0
O107 O 0.46422 0.60523 0.66627 0.0
O108 O 0.46766 0.5689 0.6095 0.0
O109 O 0.43641 0.54986 0.62148 0.0
O110 O 0.41334 0.56898 0.67966 0.0
O111 O 0.39804 0.53765 0.6417 0.0
H112 H 0.3994 0.48033 0.50715 0.0
H113 H 0.40411 0.46095 0.44017 0.0
H114 H 0.38535 0.52662 0.37877 0.0
H115 H 0.38042 0.54602 0.44604 0.0
H116 H 0.41516 0.61431 0.74434 0.0
H117 H 0.42008 0.6137 0.81953 0.0
H118 H 0.49555 0.62606 0.80469 0.0
H119 H 0.4906 0.62682 0.72966 0.0
Nd120 Nd 0.6913 0.15942 0.82023 0.0
Nd121 Nd 0.66119 0.19286 0.87339 0.0
C122 C 0.71662 0.13726 0.76203 0.0
C123 C 0.72698 0.14001 0.71999 0.0
C124 C 0.72993 0.11984 0.69471 0.0
C125 C 0.74142 0.12153 0.6562 0.0
C126 C 0.75039 0.14346 0.64215 0.0
C127 C 0.74659 0.16381 0.66699 0.0
C128 C 0.73502 0.16212 0.7054 0.0
C129 C 0.65198 0.13929 0.85795 0.0
C130 C 0.65963 0.20227 0.77672 0.0
C131 C 0.63403 0.21133 0.93287 0.0
C132 C 0.63601 0.21515 0.97801 0.0
C133 C 0.61577 0.22138 1.0011 0.0
C134 C 0.61755 0.22594 0.04362 0.0
C135 C 0.63966 0.22433 0.0641 0.0
C136 C 0.65987 0.21767 0.04078 0.0
C137 C 0.65806 0.21318 0.99823 0.0
C138 C 0.70355 0.21312 0.84976 0.0
C139 C 0.70224 0.15733 0.91702 0.0
O140 O 0.7261 0.14965 0.79213 0.0
O141 O 0.69341 0.13571 0.76505 0.0
O142 O 0.67215 0.12842 0.85249 0.0
O143 O 0.65258 0.15934 0.84022 0.0
O144 O 0.67914 0.1891 0.77616 0.0
O145 O 0.64605 0.20354 0.81013 0.0
O146 O 0.63233 0.18929 0.9203 0.0
O147 O 0.64827 0.2239 0.9096 0.0
O148 O 0.68301 0.22379 0.84857 0.0
O149 O 0.70074 0.19156 0.86004 0.0
O150 O 0.68377 0.17192 0.92126 0.0
O151 O 0.71044 0.15081 0.88047 0.0
H152 H 0.72385 0.10258 0.70525 0.0
H153 H 0.74409 0.10548 0.63818 0.0
H154 H 0.75285 0.1811 0.65694 0.0
H155 H 0.73277 0.17801 0.72402 0.0
H156 H 0.59859 0.22306 0.98611 0.0
H157 H 0.60165 0.2313 0.06021 0.0
H158 H 0.67714 0.21586 0.05539 0.0
H159 H 0.67391 0.20839 0.981 0.0
Nd160 Nd 0.08133 0.55536 0.5842 0.0
Nd161 Nd 0.04556 0.58756 0.62937 0.0
C162 C 0.1115 0.53678 0.52988 0.0
C163 C 0.11078 0.53222 0.48522 0.0
C164 C 0.09219 0.54154 0.46113 0.0
C165 C 0.08876 0.53352 0.42073 0.0
C166 C 0.10413 0.51636 0.40365 0.0
C167 C 0.12371 0.50829 0.4268 0.0
C168 C 0.1269 0.51604 0.46752 0.0
C169 C 0.0504 0.53057 0.63223 0.0
C170 C 0.03023 0.57205 0.53903 0.0
C171 C 0.01721 0.61063 0.68134 0.0
C172 C 0.01041 0.61017 0.72546 0.0
C173 C 0.98653 0.61397 0.73645 0.0
C174 C 0.97967 0.61438 0.77803 0.0
C175 C -0.00341 0.61092 0.80958 0.0
C176 C 0.02048 0.60663 0.79842 0.0
C177 C 0.02734 0.60635 0.75675 0.0
C178 C 0.07722 0.60986 0.5765 0.0
C179 C 0.08843 0.56117 0.68241 0.0
O180 O 0.11216 0.55905 0.54155 0.0
O181 O 0.09653 0.52417 0.55163 0.0
O182 O 0.07228 0.52402 0.62572 0.0
O183 O 0.04476 0.54869 0.61097 0.0
O184 O 0.05267 0.56499 0.53417 0.0
O185 O 0.02177 0.57868 0.5752 0.0
O186 O 0.01008 0.5927 0.65869 0.0
O187 O 0.03889 0.61752 0.6724 0.0
O188 O 0.05488 0.6156 0.57943 0.0
O189 O 0.08207 0.59362 0.60207 0.0
O190 O 0.06678 0.5704 0.68191 0.0
O191 O 0.10034 0.55716 0.6476 0.0
H192 H 0.0797 0.5542 0.47406 0.0
H193 H 0.07365 0.54011 0.40328 0.0
H194 H 0.13571 0.49495 0.41427 0.0
H195 H 0.14128 0.50859 0.48577 0.0
H196 H 0.97316 0.61684 0.71281 0.0
H197 H 0.96108 0.61737 0.78548 0.0
H198 H 0.034 0.60412 0.8219 0.0
H199 H 0.0459 0.60351 0.74905 0.0
Nd200 Nd 0.69021 0.83061 0.83343 0.0
Nd201 Nd 0.65789 0.79314 0.8747 0.0
C202 C 0.7083 0.86257 0.78234 0.0
C203 C 0.71837 0.86174 0.74033 0.0
C204 C 0.70756 0.84822 0.70898 0.0
C205 C 0.71869 0.84565 0.67057 0.0
C206 C 0.74091 0.85632 0.663 0.0
C207 C 0.7514 0.87025 0.69411 0.0
C208 C 0.74017 0.87299 0.7324 0.0
C209 C 0.71497 0.79575 0.87262 0.0
C210 C 0.6702 0.78324 0.7795 0.0
C211 C 0.63692 0.76371 0.92735 0.0
C212 C 0.6373 0.75967 0.97263 0.0
C213 C 0.63482 0.73656 0.98854 0.0
C214 C 0.63406 0.73268 0.03138 0.0
C215 C 0.63577 0.75188 0.05927 0.0
C216 C 0.63891 0.77495 0.04308 0.0
C217 C 0.63957 0.7788 1.00033 0.0
C218 C 0.63524 0.82842 0.83019 0.0
C219 C 0.68519 0.8339 0.93166 0.0
O220 O 0.68541 0.85875 0.7861 0.0
O221 O 0.72084 0.85172 0.81066 0.0
O222 O 0.7224 0.81752 0.86937 0.0
O223 O 0.69601 0.79231 0.85223 0.0
O224 O 0.68114 0.80422 0.78 0.0
O225 O 0.66109 0.77356 0.81321 0.0
O226 O 0.65623 0.75804 0.90673 0.0
O227 O 0.62738 0.78376 0.91481 0.0
O228 O 0.62841 0.80635 0.83084 0.0
O229 O 0.6525 0.83135 0.85475 0.0
O230 O 0.67625 0.81229 0.92852 0.0
O231 O 0.68836 0.84737 0.8985 0.0
H232 H 0.69085 0.83913 0.71446 0.0
H233 H 0.71034 0.8346 0.6473 0.0
H234 H 0.76842 0.87883 0.68896 0.0
H235 H 0.74883 0.88339 0.75624 0.0
H236 H 0.63305 0.72152 0.96778 0.0
H237 H 0.63143 0.71471 0.0426 0.0
H238 H 0.64075 0.79013 0.06348 0.0
H239 H 0.64157 0.79682 0.98894 0.0
Nd240 Nd 0.40659 0.44299 0.07395 0.0
Nd241 Nd 0.442 0.40849 0.11688 0.0
C242 C 0.37577 0.46388 1.02356 0.0
C243 C 0.37656 0.47506 0.98237 0.0
C244 C 0.36496 0.49691 0.97614 0.0
C245 C 0.3669 0.50877 0.93829 0.0
C246 C 0.38041 0.49891 0.90587 0.0
C247 C 0.39164 0.47675 0.91193 0.0
C248 C 0.38982 0.46497 0.94989 0.0
C249 C 0.44495 0.46475 0.10882 0.0
C250 C 0.45129 0.41751 1.02041 0.0
C251 C 0.47088 0.38633 0.16899 0.0
C252 C 0.47507 0.38665 0.21411 0.0
C253 C 0.49817 0.38338 0.22968 0.0
C254 C 0.50222 0.38296 0.27244 0.0
C255 C 0.48321 0.38579 0.30048 0.0
C256 C 0.46014 0.38956 0.28464 0.0
C257 C 0.45612 0.38995 0.24197 0.0
C258 C 0.40509 0.3878 0.07403 0.0
C259 C 0.40336 0.43963 0.17261 0.0
O260 O 0.37879 0.4408 1.02541 0.0
O261 O 0.38714 0.47517 0.05275 0.0
O262 O 0.42404 0.47451 0.10662 0.0
O263 O 0.4456 0.44514 0.08991 0.0
O264 O 0.43038 0.42871 1.02011 0.0
O265 O 0.46145 0.41028 0.0551 0.0
O266 O 0.47711 0.40541 0.14844 0.0
O267 O 0.45046 0.3776 0.15669 0.0
O268 O 0.4265 0.37904 0.07581 0.0
O269 O 0.40339 0.40583 0.09739 0.0
O270 O 0.42447 0.42935 0.16993 0.0
O271 O 0.39003 0.443 0.13931 0.0
H272 H 0.3547 0.50502 1.00084 0.0
H273 H 0.35785 0.52569 0.93442 0.0
H274 H 0.4024 0.46883 0.88771 0.0
H275 H 0.39912 0.44821 0.95404 0.0
H276 H 0.51305 0.38084 0.20875 0.0
H277 H 0.52017 0.37982 0.28351 0.0
H278 H 0.44514 0.39222 0.30525 0.0
H279 H 0.43813 0.39263 0.23076 0.0
Nd280 Nd 0.8017 0.16476 0.31845 0.0
Nd281 Nd 0.83668 0.1959 0.36977 0.0
C282 C 0.78208 0.13705 0.26227 0.0
C283 C 0.78031 0.13674 0.2171 0.0
C284 C 0.79085 0.1549 0.19366 0.0
C285 C 0.7843 0.15819 0.15242 0.0
C286 C 0.76732 0.14321 0.13404 0.0
C287 C 0.75836 0.12382 0.15662 0.0
C288 C 0.76471 0.12071 0.19804 0.0
C289 C 0.7795 0.19428 0.37251 0.0
C290 C 0.82333 0.21429 0.27665 0.0
C291 C 0.8588 0.22804 0.41588 0.0
C292 C 0.86113 0.23206 0.46083 0.0
C293 C 0.86704 0.25469 0.47592 0.0
C294 C 0.86806 0.25896 0.5186 0.0
C295 C 0.86314 0.24064 0.54708 0.0
C296 C 0.8572 0.21795 0.53166 0.0
C297 C 0.85618 0.21373 0.48902 0.0
C298 C 0.85571 0.15813 0.32542 0.0
C299 C 0.80882 0.15347 0.41703 0.0
O300 O 0.80304 0.13252 0.2786 0.0
O301 O 0.77104 0.15501 0.27979 0.0
O302 O 0.77138 0.17339 0.36291 0.0
O303 O 0.79784 0.1995 0.35175 0.0
O304 O 0.80893 0.19572 0.27251 0.0
O305 O 0.83601 0.21821 0.31041 0.0
O306 O 0.8374 0.23109 0.40089 0.0
O307 O 0.8694 0.20917 0.40069 0.0
O308 O 0.86287 0.16326 0.36258 0.0
O309 O 0.8402 0.1726 0.31434 0.0
O310 O 0.81825 0.17482 0.42011 0.0
O311 O 0.80527 0.14333 0.38027 0.0
H312 H 0.80298 0.1674 0.20788 0.0
H313 H 0.7916 0.17314 0.1355 0.0
H314 H 0.74513 0.11212 0.14321 0.0
H315 H 0.75629 0.10671 0.21584 0.0
H316 H 0.87075 0.26913 0.45467 0.0
H317 H 0.87294 0.27656 0.52928 0.0
H318 H 0.85294 0.2035 0.55254 0.0
H319 H 0.85132 0.19619 0.47803 0.0
Nd320 Nd 0.94036 0.58294 0.24041 0.0
Nd321 Nd 0.90968 0.54899 0.29009 0.0
C322 C 0.95686 0.61266 0.18356 0.0
C323 C 0.9617 0.61017 0.139 0.0
C324 C 0.96617 0.63035 0.11479 0.0
C325 C 0.97133 0.62796 0.07261 0.0
C326 C 0.9721 0.60531 0.0539 0.0
C327 C 0.96722 0.58515 0.07831 0.0
C328 C 0.96209 0.58757 0.12044 0.0
C329 C 0.96375 0.54118 0.25863 0.0
C330 C 0.90731 0.54189 0.19214 0.0
C331 C 0.89034 0.52028 0.34638 0.0
C332 C 0.89453 0.50899 0.38763 0.0
C333 C 0.90287 0.4854 0.39017 0.0
C334 C 0.90554 0.47409 0.42852 0.0
C335 C 0.89984 0.48593 0.4657 0.0
C336 C 0.89119 0.50945 0.4632 0.0
C337 C 0.88856 0.52082 0.42471 0.0
C338 C 0.88638 0.58811 0.25718 0.0
C339 C 0.95009 0.58222 0.33634 0.0
O340 O 0.93448 0.61185 0.19457 0.0
O341 O 0.97054 0.60016 0.20797 0.0
O342 O 0.97315 0.56218 0.26113 0.0
O343 O 0.94201 0.54295 0.24886 0.0
O344 O 0.91968 0.56193 0.19033 0.0
O345 O 0.90278 0.53127 0.22774 0.0
O346 O 0.90287 0.51265 0.31479 0.0
O347 O 0.88656 0.54329 0.34505 0.0
O348 O 0.87714 0.56704 0.26028 0.0
O349 O 0.90648 0.58828 0.27484 0.0
O350 O 0.93881 0.56166 0.33478 0.0
O351 O 0.94973 0.59708 0.3047 0.0
H352 H 0.96593 0.64793 0.12859 0.0
H353 H 0.97523 0.64383 0.05486 0.0
H354 H 0.96729 0.56749 0.06482 0.0
H355 H 0.95859 0.57175 0.13862 0.0
H356 H 0.90715 0.4755 0.36237 0.0
H357 H 0.91188 0.45585 0.42897 0.0
H358 H 0.88681 0.51923 0.49106 0.0
H359 H 0.88173 0.53887 0.42406 0.0
Nd360 Nd 0.16253 0.18705 0.98433 0.0
Nd361 Nd 0.19781 0.15673 0.03319 0.0
C362 C 0.13129 0.20192 0.92858 0.0
C363 C 0.13173 0.20632 0.88362 0.0
C364 C 0.11071 0.20425 0.86065 0.0
C365 C 0.11057 0.20949 0.81836 0.0
C366 C 0.13148 0.21705 0.79811 0.0
C367 C 0.15275 0.21832 0.8211 0.0
C368 C 0.15288 0.21294 0.86339 0.0
C369 C 0.20314 0.21167 1.00428 0.0
C370 C 0.2062 0.1575 0.9353 0.0
C371 C 0.22694 0.13657 0.08785 0.0
C372 C 0.23861 0.13974 0.12885 0.0
C373 C 0.22556 0.13993 0.16611 0.0
C374 C 0.23728 0.14151 0.20443 0.0
C375 C 0.2623 0.14304 0.20638 0.0
C376 C 0.27524 0.1427 0.16905 0.0
C377 C 0.26357 0.141 0.13093 0.0
C378 C 0.1597 0.13302 0.99828 0.0
C379 C 0.16345 0.19597 0.08074 0.0
O380 O 0.13296 0.17974 0.94037 0.0
O381 O 0.14401 0.21627 0.95139 0.0
O382 O 0.18178 0.22054 1.00582 0.0
O383 O 0.2022 0.18995 0.99416 0.0
O384 O 0.18548 0.16889 0.93337 0.0
O385 O 0.21653 0.1526 0.971 0.0
O386 O 0.23437 0.1498 0.05708 0.0
O387 O 0.20391 0.13284 0.08686 0.0
O388 O 0.1812 0.12456 0.99993 0.0
O389 O 0.15884 0.1526 1.01742 0.0
O390 O 0.18422 0.18492 0.07904 0.0
O391 O 0.14859 0.19572 0.0491 0.0
H392 H 0.09428 0.19885 0.87556 0.0
H393 H 0.09399 0.20772 0.80157 0.0
H394 H 0.16917 0.22416 0.80676 0.0
H395 H 0.16942 0.21438 0.88047 0.0
H396 H 0.20629 0.1388 0.16576 0.0
H397 H 0.22674 0.14198 0.23248 0.0
H398 H 0.29452 0.14354 0.16929 0.0
H399 H 0.27416 0.14046 0.10291 0.0
Nd400 Nd 0.54329 0.41436 0.73058 0.0
Nd401 Nd 0.57857 0.44496 0.78069 0.0
C402 C 0.52225 0.38811 0.67319 0.0
C403 C 0.52273 0.38799 0.62753 0.0
C404 C 0.51713 0.3672 0.60565 0.0
C405 C 0.51586 0.3675 0.56237 0.0
C406 C 0.52029 0.38861 0.54017 0.0
C407 C 0.52656 0.40924 0.56226 0.0
C408 C 0.52767 0.40895 0.60544 0.0
C409 C 0.52376 0.4563 0.75839 0.0
C410 C 0.57722 0.45527 0.68352 0.0
C411 C 0.59966 0.47256 0.83661 0.0
C412 C 0.59586 0.48409 0.87782 0.0
C413 C 0.59981 0.47172 0.91515 0.0
C414 C 0.59724 0.48327 0.95356 0.0
C415 C 0.59066 0.50747 0.95567 0.0
C416 C 0.58706 0.51981 0.91826 0.0
C417 C 0.58968 0.50834 0.88004 0.0
C418 C 0.59903 0.4071 0.73941 0.0
C419 C 0.53891 0.4107 0.82826 0.0
O420 O 0.54161 0.38127 0.69233 0.0
O421 O 0.51251 0.40687 0.69015 0.0
O422 O 0.51331 0.43573 0.76093 0.0
O423 O 0.54483 0.45345 0.74543 0.0
O424 O 0.56349 0.4362 0.68116 0.0
O425 O 0.58376 0.46442 0.71936 0.0
O426 O 0.58737 0.4808 0.80526 0.0
O427 O 0.60246 0.44939 0.83508 0.0
O428 O 0.61002 0.42689 0.74714 0.0
O429 O 0.57906 0.40676 0.75769 0.0
O430 O 0.5524 0.42991 0.82881 0.0
O431 O 0.53472 0.39867 0.79399 0.0
H432 H 0.51329 0.35083 0.62207 0.0
H433 H 0.51127 0.35124 0.54628 0.0
H434 H 0.52981 0.42586 0.54626 0.0
H435 H 0.53183 0.42529 0.62162 0.0
H436 H 0.60492 0.45312 0.91477 0.0
H437 H 0.60001 0.47312 0.98161 0.0
H438 H 0.58239 0.53854 0.91844 0.0
H439 H 0.58701 0.5186 0.85206 0.0
Nd440 Nd 0.33062 0.80247 0.48014 0.0
Nd441 Nd 0.29807 0.83492 0.53067 0.0
C442 C 0.35931 0.78571 0.42162 0.0
C443 C 0.35619 0.78221 0.37668 0.0
C444 C 0.37563 0.77589 0.3517 0.0
C445 C 0.3726 0.77244 0.30908 0.0
C446 C 0.35007 0.77543 0.29057 0.0
C447 C 0.33067 0.78197 0.31582 0.0
C448 C 0.33368 0.78519 0.35841 0.0
C449 C 0.28744 0.78166 0.49727 0.0
C450 C 0.2902 0.83755 0.4333 0.0
C451 C 0.27181 0.85633 0.58822 0.0
C452 C 0.26127 0.85217 0.62982 0.0
C453 C 0.24482 0.8338 0.63691 0.0
C454 C 0.23494 0.83042 0.67627 0.0
C455 C 0.24131 0.84517 0.70978 0.0
C456 C 0.25753 0.86377 0.70242 0.0
C457 C 0.26734 0.86722 0.66293 0.0
C458 C 0.33802 0.85603 0.49656 0.0
C459 C 0.32838 0.792 0.5758 0.0
O460 O 0.35973 0.80778 0.43436 0.0
O461 O 0.34635 0.77214 0.44546 0.0
O462 O 0.30776 0.77055 0.49801 0.0
O463 O 0.2907 0.80337 0.48908 0.0
O464 O 0.30995 0.82457 0.43119 0.0
O465 O 0.27976 0.8423 0.46903 0.0
O466 O 0.26275 0.84487 0.5566 0.0
O467 O 0.29504 0.85808 0.58618 0.0
O468 O 0.31736 0.86625 0.49967 0.0
O469 O 0.33736 0.83603 0.51452 0.0
O470 O 0.30802 0.8037 0.57339 0.0
O471 O 0.34398 0.79254 0.54513 0.0
H472 H 0.39316 0.77357 0.36516 0.0
H473 H 0.38798 0.7677 0.29053 0.0
H474 H 0.31303 0.78418 0.3028 0.0
H475 H 0.31837 0.78985 0.37715 0.0
H476 H 0.23956 0.82198 0.6121 0.0
H477 H 0.22218 0.81618 0.68036 0.0
H478 H 0.26308 0.87536 0.72736 0.0
H479 H 0.27986 0.88164 0.6583 0.0
Nd480 Nd 0.95382 0.40967 0.75246 0.0
Nd481 Nd 0.91418 0.43841 0.79535 0.0
C482 C 0.98525 0.39177 0.69969 0.0
C483 C 0.99174 0.39373 0.6554 0.0
C484 C 0.01585 0.39485 0.64408 0.0
C485 C 0.02252 0.39507 0.60235 0.0
C486 C 0.00521 0.39422 0.5709 0.0
C487 C 0.981 0.39384 0.58235 0.0
C488 C 0.97434 0.39348 0.62414 0.0
C489 C 0.92206 0.38315 0.79838 0.0
C490 C 0.91061 0.43384 0.6969 0.0
C491 C 0.88212 0.45391 0.84923 0.0
C492 C 0.88437 0.46747 0.88785 0.0
C493 C 0.86574 0.4678 0.91673 0.0
C494 C 0.86831 0.48022 0.95402 0.0
C495 C 0.88955 0.49249 0.96281 0.0
C496 C 0.90818 0.49196 0.93371 0.0
C497 C 0.90564 0.4795 0.89665 0.0
C498 C 0.94645 0.46634 0.75591 0.0
C499 C 0.96386 0.42274 0.84734 0.0
O500 O 0.98981 0.41015 0.72336 0.0
O501 O 0.96486 0.38162 0.70839 0.0
O502 O 0.94457 0.37827 0.79465 0.0
O503 O 0.91654 0.40047 0.77509 0.0
O504 O 0.93304 0.427 0.69949 0.0
O505 O 0.89706 0.43538 0.73045 0.0
O506 O 0.89109 0.43246 0.85006 0.0
O507 O 0.88767 0.46539 0.81547 0.0
O508 O 0.92423 0.4721 0.76049 0.0
O509 O 0.95163 0.44758 0.77567 0.0
O510 O 0.94226 0.43248 0.84731 0.0
O511 O 0.97365 0.41383 0.81355 0.0
H512 H 0.02959 0.39513 0.66758 0.0
H513 H 0.04131 0.39573 0.5947 0.0
H514 H 0.96719 0.39297 0.55903 0.0
H515 H 0.9556 0.39248 0.63195 0.0
H516 H 0.84929 0.45842 0.91052 0.0
H517 H 0.85362 0.4804 0.97578 0.0
H518 H 0.92491 0.50084 0.93989 0.0
H519 H 0.92036 0.47913 0.87493 0.0
Nd520 Nd 0.33841 0.1977 0.49015 0.0
Nd521 Nd 0.30774 0.16085 0.53511 0.0
C522 C 0.35963 0.2265 0.43676 0.0
C523 C 0.36007 0.23027 0.39148 0.0
C524 C 0.35996 0.2535 0.37557 0.0
C525 C 0.36091 0.25743 0.33282 0.0
C526 C 0.36196 0.23816 0.30499 0.0
C527 C 0.36174 0.21486 0.32113 0.0
C528 C 0.36086 0.21097 0.36385 0.0
C529 C 0.3622 0.16565 0.54004 0.0
C530 C 0.31341 0.15422 0.43701 0.0
C531 C 0.29041 0.12985 0.58884 0.0
C532 C 0.27985 0.13112 0.63049 0.0
C533 C 0.29019 0.14491 0.66193 0.0
C534 C 0.27867 0.14751 0.70003 0.0
C535 C 0.25651 0.1366 0.70714 0.0
C536 C 0.24645 0.12247 0.67588 0.0
C537 C 0.25807 0.1197 0.63796 0.0
C538 C 0.28165 0.19267 0.49093 0.0
C539 C 0.32328 0.21195 0.5819 0.0
O540 O 0.33985 0.23207 0.45599 0.0
O541 O 0.36928 0.2068 0.4506 0.0
O542 O 0.36732 0.18815 0.53811 0.0
O543 O 0.34566 0.16075 0.51504 0.0
O544 O 0.32162 0.17618 0.43765 0.0
O545 O 0.3103 0.14201 0.47168 0.0
O546 O 0.31317 0.13446 0.58531 0.0
O547 O 0.27773 0.1395 0.55946 0.0
O548 O 0.27539 0.17069 0.49637 0.0
O549 O 0.30006 0.19785 0.51154 0.0
O550 O 0.31548 0.18972 0.58582 0.0
O551 O 0.33061 0.22061 0.54626 0.0
H552 H 0.3594 0.26866 0.39628 0.0
H553 H 0.36136 0.2756 0.32166 0.0
H554 H 0.36217 0.19957 0.30074 0.0
H555 H 0.36097 0.19285 0.37528 0.0
H556 H 0.30688 0.15412 0.6568 0.0
H557 H 0.28672 0.15867 0.72346 0.0
H558 H 0.22953 0.11366 0.68068 0.0
H559 H 0.24977 0.10905 0.61407 0.0
Nd560 Nd 0.54173 0.59459 0.23863 0.0
Nd561 Nd 0.57452 0.55872 0.28344 0.0
C562 C 0.51553 0.61833 0.18465 0.0
C563 C 0.5102 0.61617 0.14 0.0
C564 C 0.48643 0.61554 0.12662 0.0
C565 C 0.48104 0.61319 0.08456 0.0
C566 C 0.49934 0.61155 0.05484 0.0
C567 C 0.52317 0.61214 0.06847 0.0
C568 C 0.52853 0.61433 0.11051 0.0
C569 C 0.57693 0.61368 0.28787 0.0
C570 C 0.58051 0.56254 0.1852 0.0
C571 C 0.60362 0.5383 0.33719 0.0
C572 C 0.60077 0.52592 0.37687 0.0
C573 C 0.58031 0.51238 0.385 0.0
C574 C 0.5777 0.50075 0.42286 0.0
C575 C 0.59538 0.50266 0.45342 0.0
C576 C 0.61568 0.51656 0.44543 0.0
C577 C 0.61837 0.52806 0.40736 0.0
C578 C 0.53786 0.53794 0.24203 0.0
C579 C 0.52615 0.58143 0.33111 0.0
O580 O 0.50685 0.60167 0.20859 0.0
O581 O 0.53726 0.62452 0.1948 0.0
O582 O 0.5556 0.62252 0.28476 0.0
O583 O 0.57937 0.59633 0.2633 0.0
O584 O 0.5596 0.57331 0.18648 0.0
O585 O 0.59293 0.55883 0.21946 0.0
O586 O 0.59877 0.56106 0.33743 0.0
O587 O 0.59522 0.52743 0.30459 0.0
O588 O 0.55829 0.52752 0.24754 0.0
O589 O 0.53664 0.55723 0.26176 0.0
O590 O 0.5468 0.56986 0.33434 0.0
O591 O 0.51865 0.59059 0.29589 0.0
H592 H 0.47199 0.61674 0.1488 0.0
H593 H 0.4625 0.61238 0.07545 0.0
H594 H 0.53778 0.61126 0.04664 0.0
H595 H 0.54706 0.6146 0.11983 0.0
H596 H 0.56631 0.51083 0.36212 0.0
H597 H 0.5617 0.49049 0.42842 0.0
H598 H 0.62962 0.51826 0.46838 0.0
H599 H 0.63417 0.53861 0.4017 0.0
Nd600 Nd 0.15636 0.7947 0.99089 0.0
Nd601 Nd 0.18791 0.83112 0.03654 0.0
C602 C 0.13449 0.76641 0.93765 0.0
C603 C 0.13658 0.75933 0.89391 0.0
C604 C 0.15814 0.76159 0.87214 0.0
C605 C 0.1594 0.75537 0.83019 0.0
C606 C 0.1391 0.74689 0.80929 0.0
C607 C 0.11766 0.74449 0.83154 0.0
C608 C 0.11644 0.75067 0.87335 0.0
C609 C 0.13309 0.82829 0.03882 0.0
C610 C 0.1852 0.83524 0.93802 0.0
C611 C 0.20456 0.86254 0.09024 0.0
C612 C 0.2186 0.86105 0.12839 0.0
C613 C 0.21676 0.87907 0.15819 0.0
C614 C 0.22934 0.87725 0.19536 0.0
C615 C 0.24398 0.85738 0.20316 0.0
C616 C 0.24584 0.83942 0.17301 0.0
C617 C 0.23316 0.84119 0.13602 0.0
C618 C 0.21375 0.79748 0.99594 0.0
C619 C 0.16971 0.78086 0.08361 0.0
O620 O 0.1513 0.75909 0.9627 0.0
O621 O 0.12792 0.78844 0.94462 0.0
O622 O 0.12673 0.80615 0.03631 0.0
O623 O 0.15036 0.83216 1.01469 0.0
O624 O 0.17702 0.81333 0.93972 0.0
O625 O 0.18625 0.84871 0.97169 0.0
O626 O 0.18313 0.85364 0.0923 0.0
O627 O 0.21564 0.85673 0.05614 0.0
O628 O 0.22168 0.8187 1.00342 0.0
O629 O 0.19425 0.79373 1.01434 0.0
O630 O 0.17867 0.80268 0.08731 0.0
O631 O 0.16229 0.77226 0.04799 0.0
H632 H 0.1739 0.76833 0.88746 0.0
H633 H 0.17613 0.75765 0.81394 0.0
H634 H 0.1018 0.73767 0.81668 0.0
H635 H 0.09967 0.74878 0.88965 0.0
H636 H 0.20544 0.89443 0.15284 0.0
H637 H 0.22767 0.89141 0.21793 0.0
H638 H 0.25666 0.82372 0.17841 0.0
H639 H 0.23453 0.82692 0.11356 0.0
Nd640 Nd 0.57638 0.93559 0.58838 0.0
Nd641 Nd 0.54669 0.89613 0.64053 0.0
C642 C 0.594 0.96492 0.53118 0.0
C643 C 0.59117 0.97444 0.488 0.0
C644 C 0.6046 0.96493 0.45492 0.0
C645 C 0.60343 0.97491 0.41496 0.0
C646 C 0.5888 0.99477 0.40675 0.0
C647 C 0.57557 0.00438 0.44006 0.0
C648 C 0.57676 0.99444 0.4799 0.0
C649 C 0.6011 0.8978 0.62254 0.0
C650 C 0.53792 0.89841 0.5423 0.0
C651 C 0.53745 0.86168 0.69384 0.0
C652 C 0.52824 0.86246 0.73659 0.0
C653 C 0.5297 0.84239 0.76224 0.0
C654 C 0.52229 0.8437 0.80364 0.0
C655 C 0.5133 0.86517 0.82014 0.0
C656 C 0.51192 0.88522 0.79413 0.0
C657 C 0.51938 0.8839 0.7529 0.0
C658 C 0.52035 0.93715 0.63497 0.0
C659 C 0.57528 0.94121 0.68749 0.0
O660 O 0.57904 0.97179 0.56018 0.0
O661 O 0.60069 0.94268 0.53552 0.0
O662 O 0.60951 0.91927 0.6196 0.0
O663 O 0.58096 0.89677 0.60515 0.0
O664 O 0.55039 0.91842 0.54187 0.0
O665 O 0.5361 0.88458 0.57531 0.0
O666 O 0.5586 0.87098 0.68898 0.0
O667 O 0.52255 0.86804 0.66459 0.0
O668 O 0.5128 0.91787 0.65255 0.0
O669 O 0.54065 0.93358 0.61922 0.0
O670 O 0.56608 0.91945 0.68871 0.0
O671 O 0.57876 0.95301 0.65245 0.0
H672 H 0.61627 0.94981 0.45996 0.0
H673 H 0.61377 0.96682 0.39037 0.0
H674 H 0.56443 0.01993 0.43555 0.0
H675 H 0.56656 0.00268 0.50452 0.0
H676 H 0.53677 0.82576 0.75037 0.0
H677 H 0.52345 0.82787 0.82264 0.0
H678 H 0.50552 0.90214 0.80586 0.0
H679 H 0.51854 0.89975 0.73387 0.0
Nd680 Nd 0.2993 0.33478 0.83047 0.0
Nd681 Nd 0.33473 0.3038 0.87807 0.0
C682 C 0.26985 0.35458 0.77581 0.0
C683 C 0.2604 0.35127 0.73333 0.0
C684 C 0.25784 0.32856 0.71574 0.0
C685 C 0.24772 0.32591 0.67633 0.0
C686 C 0.23998 0.34591 0.65346 0.0
C687 C 0.24336 0.36866 0.67067 0.0
C688 C 0.2534 0.37127 0.71018 0.0
C689 C 0.33861 0.35799 0.86191 0.0
C690 C 0.33292 0.29481 0.78191 0.0
C691 C 0.36486 0.28685 0.93404 0.0
C692 C 0.36322 0.28374 0.97924 0.0
C693 C 0.3836 0.27839 1.00248 0.0
C694 C 0.38192 0.27495 0.04532 0.0
C695 C 0.35979 0.27688 0.06572 0.0
C696 C 0.33945 0.2825 0.04217 0.0
C697 C 0.34115 0.28585 0.99942 0.0
C698 C 0.2927 0.28088 0.8607 0.0
C699 C 0.29412 0.33642 0.92891 0.0
O700 O 0.26296 0.33955 0.8044 0.0
O701 O 0.29236 0.36023 0.77913 0.0
O702 O 0.3174 0.36717 0.85999 0.0
O703 O 0.33876 0.33794 0.84402 0.0
O704 O 0.31238 0.30632 0.78425 0.0
O705 O 0.34811 0.29489 0.81311 0.0
O706 O 0.3654 0.30878 0.92069 0.0
O707 O 0.35073 0.27345 0.91207 0.0
O708 O 0.31366 0.27134 0.85692 0.0
O709 O 0.29474 0.30239 0.87136 0.0
O710 O 0.31485 0.32507 0.92889 0.0
O711 O 0.28217 0.34032 0.89429 0.0
H712 H 0.26337 0.31285 0.73267 0.0
H713 H 0.24577 0.30812 0.66385 0.0
H714 H 0.23751 0.38442 0.65423 0.0
H715 H 0.25529 0.38899 0.72301 0.0
H716 H 0.40081 0.27679 0.98749 0.0
H717 H 0.39799 0.27098 0.06251 0.0
H718 H 0.32208 0.28386 0.05664 0.0
H719 H 0.32514 0.28983 0.98205 0.0
Nd720 Nd 0.9132 0.04724 0.08792 0.0
Nd721 Nd 0.94508 0.0808 0.13824 0.0
C722 C 0.89296 0.01899 0.03191 0.0
C723 C 0.89572 0.00713 0.99079 0.0
C724 C 0.8934 0.98228 0.9883 0.0
C725 C 0.89447 0.97049 0.95014 0.0
C726 C 0.89786 0.98316 0.91299 0.0
C727 C 0.89996 0.00814 0.91533 0.0
C728 C 0.89895 0.01999 0.95376 0.0
C729 C 0.89128 0.08675 0.12212 0.0
C730 C 0.95339 0.0811 0.04175 0.0
C731 C 0.96098 0.11006 0.19628 0.0
C732 C 0.96597 0.10755 0.24096 0.0
C733 C 0.96499 0.12752 0.26696 0.0
C734 C 0.97021 0.12537 0.30919 0.0
C735 C 0.97655 0.10317 0.32631 0.0
C736 C 0.97698 0.08309 0.30018 0.0
C737 C 0.9717 0.08525 0.25803 0.0
C738 C 0.96736 0.03858 0.11856 0.0
C739 C 0.91219 0.03916 0.18604 0.0
O740 O 0.90578 0.01103 0.06284 0.0
O741 O 0.88986 0.04211 0.03314 0.0
O742 O 0.88145 0.06591 0.11964 0.0
O743 O 0.91121 0.08637 0.10401 0.0
O744 O 0.94202 0.06053 0.04281 0.0
O745 O 0.95375 0.09545 0.07411 0.0
O746 O 0.9386 0.109 0.18535 0.0
O747 O 0.97494 0.0982 0.17121 0.0
O748 O 0.97755 0.05931 0.11732 0.0
O749 O 0.94569 0.04109 0.12818 0.0
O750 O 0.92532 0.05872 0.18799 0.0
O751 O 0.9063 0.02934 0.15033 0.0
H752 H 0.89048 0.97189 1.01606 0.0
H753 H 0.8924 0.95132 0.94976 0.0
H754 H 0.90281 0.01851 0.88754 0.0
H755 H 0.90064 0.03919 0.95442 0.0
H756 H 0.96044 0.14485 0.2545 0.0
H757 H 0.96985 0.14124 0.32822 0.0
H758 H 0.98135 0.06566 0.31234 0.0
H759 H 0.97224 0.0695 0.23868 0.0
Nd760 Nd 0.18297 0.65603 0.32925 0.0
Nd761 Nd 0.15118 0.68929 0.38024 0.0
C762 C 0.21033 0.63468 0.27289 0.0
C763 C 0.22065 0.63861 0.23118 0.0
C764 C 0.22058 0.6612 0.21267 0.0
C765 C 0.23078 0.66457 0.17345 0.0
C766 C 0.24145 0.64544 0.1518 0.0
C767 C 0.24106 0.62275 0.1703 0.0
C768 C 0.23078 0.61941 0.20949 0.0
C769 C 0.1415 0.6364 0.3605 0.0
C770 C 0.1537 0.70014 0.28446 0.0
C771 C 0.12158 0.70758 0.43585 0.0
C772 C 0.12169 0.71239 0.48081 0.0
C773 C 0.12879 0.69504 0.5097 0.0
C774 C 0.12926 0.70038 0.55205 0.0
C775 C 0.12241 0.72308 0.56631 0.0
C776 C 0.11531 0.74032 0.53723 0.0
C777 C 0.11498 0.73502 0.49502 0.0
C778 C 0.19523 0.70849 0.36393 0.0
C779 C 0.18953 0.65241 0.42763 0.0
O780 O 0.21873 0.64756 0.30332 0.0
O781 O 0.18721 0.63202 0.27502 0.0
O782 O 0.16159 0.62507 0.3571 0.0
O783 O 0.14349 0.65668 0.34389 0.0
O784 O 0.17303 0.68672 0.2856 0.0
O785 O 0.13874 0.70093 0.31598 0.0
O786 O 0.12095 0.68534 0.42396 0.0
O787 O 0.13597 0.72047 0.41342 0.0
O788 O 0.17529 0.72023 0.36246 0.0
O789 O 0.19111 0.68692 0.37208 0.0
O790 O 0.1706 0.66659 0.42988 0.0
O791 O 0.19966 0.64707 0.39183 0.0
H792 H 0.2128 0.67628 0.22868 0.0
H793 H 0.23031 0.68225 0.1601 0.0
H794 H 0.24925 0.60764 0.15502 0.0
H795 H 0.231 0.60179 0.22313 0.0
H796 H 0.13391 0.67736 0.49961 0.0
H797 H 0.13455 0.68662 0.57366 0.0
H798 H 0.11021 0.75805 0.5471 0.0
H799 H 0.10954 0.7487 0.47334 0.0
Nd800 Nd 0.58784 0.05441 0.0784 0.0
Nd801 Nd 0.55655 0.08975 0.12622 0.0
C802 C 0.61501 0.03358 1.02152 0.0
C803 C 0.61356 0.02864 0.97676 0.0
C804 C 0.59763 0.04108 0.9511 0.0
C805 C 0.59423 0.03394 0.90995 0.0
C806 C 0.60663 0.01415 0.89381 0.0
C807 C 0.62331 0.00247 0.91928 0.0
C808 C 0.62666 0.0096 0.96029 0.0
C809 C 0.5521 0.03296 0.12007 0.0
C810 C 0.53995 0.07972 0.03416 0.0
C811 C 0.53225 0.11579 0.1802 0.0
C812 C 0.5257 0.11526 0.22433 0.0
C813 C 0.52757 0.09428 0.24766 0.0
C814 C 0.52174 0.09431 0.28981 0.0
C815 C 0.51388 0.11535 0.30939 0.0
C816 C 0.51199 0.13629 0.28565 0.0
C817 C 0.51788 0.13622 0.24361 0.0
C818 C 0.59116 0.10921 0.07573 0.0
C819 C 0.59229 0.05368 0.17831 0.0
O820 O 0.61771 0.05572 0.03307 0.0
O821 O 0.59964 0.02221 0.04439 0.0
O822 O 0.57289 0.02334 0.11445 0.0
O823 O 0.54988 0.05266 0.10146 0.0
O824 O 0.56103 0.06927 0.02911 0.0
O825 O 0.53224 0.08662 0.07074 0.0
O826 O 0.52242 0.09977 0.15628 0.0
O827 O 0.55483 0.11913 0.17198 0.0
O828 O 0.56986 0.11787 0.07994 0.0
O829 O 0.59391 0.09161 0.09963 0.0
O830 O 0.5727 0.06668 0.17731 0.0
O831 O 0.60485 0.04966 0.14399 0.0
H832 H 0.58727 0.05582 0.96318 0.0
H833 H 0.58117 0.04328 0.89136 0.0
H834 H 0.6335 0.98746 0.90772 0.0
H835 H 0.63902 -0.00025 0.97956 0.0
H836 H 0.5336 0.07793 0.23329 0.0
H837 H 0.52368 0.07792 0.30713 0.0
H838 H 0.50565 0.15271 0.29941 0.0
H839 H 0.51631 0.1526 0.22609 0.0
Nd840 Nd 0.19108 0.32854 0.32484 0.0
Nd841 Nd 0.15973 0.29273 0.37271 0.0
C842 C 0.20976 0.35824 0.27007 0.0
C843 C 0.21209 0.36051 0.22497 0.0
C844 C 0.19993 0.34517 0.19801 0.0
C845 C 0.20561 0.34484 0.15577 0.0
C846 C 0.22363 0.35974 0.14007 0.0
C847 C 0.23468 0.376 0.16696 0.0
C848 C 0.22899 0.37633 0.20899 0.0
C849 C 0.21639 0.29811 0.37327 0.0
C850 C 0.17436 0.27712 0.28184 0.0
C851 C 0.13873 0.26455 0.42723 0.0
C852 C 0.14115 0.25853 0.4714 0.0
C853 C 0.16269 0.26202 0.49263 0.0
C854 C 0.16454 0.25614 0.53464 0.0
C855 C 0.14483 0.2468 0.55619 0.0
C856 C 0.12331 0.24346 0.53465 0.0
C857 C 0.12152 0.24927 0.49272 0.0
C858 C 0.13594 0.32214 0.31807 0.0
C859 C 0.18637 0.33621 0.42384 0.0
O860 O 0.18861 0.36127 0.28631 0.0
O861 O 0.22136 0.34038 0.28639 0.0
O862 O 0.22284 0.31991 0.36626 0.0
O863 O 0.19819 0.29246 0.35251 0.0
O864 O 0.18043 0.29972 0.2758 0.0
O865 O 0.16894 0.26879 0.31871 0.0
O866 O 0.15595 0.25749 0.40271 0.0
O867 O 0.13117 0.28609 0.4188 0.0
O868 O 0.13023 0.30012 0.32488 0.0
O869 O 0.15253 0.32833 0.34218 0.0
O870 O 0.17669 0.31487 0.42397 0.0
O871 O 0.19074 0.34765 0.38866 0.0
H872 H 0.18686 0.33275 0.20987 0.0
H873 H 0.19684 0.33205 0.13591 0.0
H874 H 0.24834 0.38796 0.1557 0.0
H875 H 0.23856 0.38827 0.22936 0.0
H876 H 0.17805 0.2693 0.47677 0.0
H877 H 0.18129 0.25917 0.55036 0.0
H878 H 0.10789 0.23602 0.55007 0.0
H879 H 0.10476 0.24644 0.47687 0.0
Nd880 Nd 0.91775 0.9319 0.5832 0.0
Nd881 Nd 0.94152 0.89158 0.63351 0.0
C882 C 0.88974 0.95786 0.53566 0.0
C883 C 0.89256 0.96635 0.49296 0.0
C884 C 0.91537 0.96716 0.47518 0.0
C885 C 0.91867 0.97712 0.43612 0.0
C886 C 0.89918 0.98619 0.41388 0.0
C887 C 0.87617 0.98439 0.43087 0.0
C888 C 0.8729 0.97463 0.47035 0.0
C889 C 0.959 0.94493 0.6195 0.0
C890 C 0.96307 0.90454 0.54132 0.0
C891 C 0.96785 0.86268 0.67946 0.0
C892 C 0.97566 0.86251 0.72305 0.0
C893 C 0.97271 0.88267 0.74832 0.0
C894 C 0.97883 0.88181 0.79034 0.0
C895 C 0.98786 0.8607 0.80796 0.0
C896 C 0.9911 0.8407 0.78223 0.0
C897 C 0.98506 0.84161 0.74026 0.0
C898 C 0.90335 0.87888 0.58368 0.0
C899 C 0.9059 0.92736 0.68367 0.0
O900 O 0.88688 0.93485 0.54042 0.0
O901 O 0.90479 0.96698 0.56216 0.0
O902 O 0.95186 0.95351 0.58424 0.0
O903 O 0.94359 0.93155 0.63591 0.0
O904 O 0.94366 0.91733 0.53393 0.0
O905 O 0.96731 0.89471 0.57784 0.0
O906 O 0.9769 0.8792 0.65565 0.0
O907 O 0.945 0.8597 0.67348 0.0
O908 O 0.90671 0.86971 0.62 0.0
O909 O 0.91995 0.8927 0.57548 0.0
O910 O 0.92416 0.9126 0.6859 0.0
O911 O 0.89768 0.93455 0.64709 0.0
H912 H 0.93076 0.96066 0.492 0.0
H913 H 0.93653 0.97804 0.42348 0.0
H914 H 0.86089 0.99132 0.4143 0.0
H915 H 0.85517 0.97405 0.48359 0.0
H916 H 0.96527 0.89895 0.73573 0.0
H917 H 0.97583 0.89745 0.80926 0.0
H918 H -0.00173 0.82425 0.7946 0.0
H919 H 0.98743 0.82586 0.72134 0.0
Nd920 Nd 0.29289 0.65761 0.82328 0.0
Nd921 Nd 0.32372 0.69579 0.86595 0.0
C922 C 0.27707 0.62563 0.76996 0.0
C923 C 0.26374 0.62784 0.73112 0.0
C924 C 0.25208 0.64927 0.72158 0.0
C925 C 0.23948 0.65162 0.68464 0.0
C926 C 0.23846 0.63262 0.65636 0.0
C927 C 0.25044 0.61125 0.66578 0.0
C928 C 0.26295 0.60887 0.703 0.0
C929 C 0.26646 0.69206 0.86016 0.0
C930 C 0.31182 0.70608 0.7707 0.0
C931 C 0.34385 0.7254 0.91922 0.0
C932 C 0.34328 0.72943 0.96446 0.0
C933 C 0.34529 0.7526 0.98032 0.0
C934 C 0.34618 0.7565 1.02313 0.0
C935 C 0.3451 0.73727 0.051 0.0
C936 C 0.34238 0.71412 0.03491 0.0
C937 C 0.34153 0.71025 0.99218 0.0
C938 C 0.34779 0.66095 0.82236 0.0
C939 C 0.29634 0.65472 0.92193 0.0
O940 O 0.29878 0.63396 0.76922 0.0
O941 O 0.26545 0.6318 0.80336 0.0
O942 O 0.25913 0.67037 0.85529 0.0
O943 O 0.28599 0.69574 0.84158 0.0
O944 O 0.30101 0.68503 0.77089 0.0
O945 O 0.32094 0.71559 0.80453 0.0
O946 O 0.32456 0.7308 0.89842 0.0
O947 O 0.35375 0.70551 0.90672 0.0
O948 O 0.35407 0.68317 0.82327 0.0
O949 O 0.33024 0.65766 0.84622 0.0
O950 O 0.30462 0.67661 0.91903 0.0
O951 O 0.2943 0.64105 0.8887 0.0
H952 H 0.25277 0.66423 0.74272 0.0
H953 H 0.23082 0.66844 0.67792 0.0
H954 H 0.2499 0.59631 0.64462 0.0
H955 H 0.27201 0.59227 0.70981 0.0
H956 H 0.34667 0.76767 0.95954 0.0
H957 H 0.34846 0.77453 0.03433 0.0
H958 H 0.34105 0.69892 0.05538 0.0
H959 H 0.33986 0.69219 0.98082 0.0
Nd960 Nd 0.45574 0.10154 0.72901 0.0
Nd961 Nd 0.42654 0.06059 0.77903 0.0
C962 C 0.46457 0.13736 0.67852 0.0
C963 C 0.4712 0.1383 0.63408 0.0
C964 C 0.45563 0.12975 0.60337 0.0
C965 C 0.46257 0.12932 0.56183 0.0
C966 C 0.48522 0.13748 0.54982 0.0
C967 C 0.50061 0.14643 0.58046 0.0
C968 C 0.49366 0.14684 0.62208 0.0
C969 C 0.48182 0.06021 0.73012 0.0
C970 C 0.42698 0.05752 0.67958 0.0
C971 C 0.40943 0.03055 0.83547 0.0
C972 C 0.41241 0.02085 0.87836 0.0
C973 C 0.43315 0.00878 0.89098 0.0
C974 C 0.43449 -0.00186 0.93036 0.0
C975 C 0.41512 -0.00087 0.95835 0.0
C976 C 0.3947 0.01191 0.94604 0.0
C977 C 0.39337 0.02252 0.90667 0.0
C978 C 0.40119 0.09881 0.74783 0.0
C979 C 0.46651 0.09584 0.82591 0.0
O980 O 0.44309 0.12983 0.68701 0.0
O981 O 0.48063 0.12885 0.70403 0.0
O982 O 0.48921 0.07983 0.71346 0.0
O983 O 0.46179 0.06357 0.74698 0.0
O984 O 0.43605 0.07935 0.67969 0.0
O985 O 0.42377 0.0448 0.71378 0.0
O986 O 0.42445 0.02411 0.80623 0.0
O987 O 0.40247 0.05274 0.83192 0.0
O988 O 0.39294 0.07727 0.75044 0.0
O989 O 0.42154 0.0997 0.76467 0.0
O990 O 0.45363 0.07613 0.82496 0.0
O991 O 0.46792 0.11083 0.79443 0.0
H992 H 0.4381 0.12315 0.61135 0.0
H993 H 0.45009 0.12271 0.53907 0.0
H994 H 0.51825 0.15267 0.57241 0.0
H995 H 0.50602 0.1535 0.64501 0.0
H996 H 0.44824 0.0072 0.87024 0.0
H997 H 0.45075 0.98889 0.9387 0.0
H998 H 0.37933 0.01299 0.96622 0.0
H999 H 0.37707 0.03158 0.8979 0.0
Nd1000 Nd 0.64989 0.68687 0.49006 0.0
Nd1001 Nd 0.68021 0.65297 0.54204 0.0
C1002 C 0.62285 0.70555 0.43095 0.0
C1003 C 0.6258 0.70834 0.3858 0.0
C1004 C 0.6066 0.71586 0.36137 0.0
C1005 C 0.6094 0.71882 0.31859 0.0
C1006 C 0.63148 0.7142 0.29933 0.0
C1007 C 0.65061 0.70635 0.32402 0.0
C1008 C 0.64782 0.70355 0.36679 0.0
C1009 C 0.69378 0.70549 0.50866 0.0
C1010 C 0.68884 0.64973 0.44451 0.0
C1011 C 0.70549 0.63025 0.59949 0.0
C1012 C 0.71656 0.63352 0.6407 0.0
C1013 C 0.72083 0.65626 0.65705 0.0
C1014 C 0.73217 0.65884 0.69546 0.0
C1015 C 0.73951 0.63874 0.71847 0.0
C1016 C 0.73462 0.616 0.7023 0.0
C1017 C 0.72332 0.61345 0.66385 0.0
C1018 C 0.63923 0.63405 0.50742 0.0
C1019 C 0.65124 0.69727 0.58584 0.0
O1020 O 0.62048 0.68377 0.4444 0.0
O1021 O 0.63718 0.71808 0.45407 0.0
O1022 O 0.67393 0.71741 0.50984 0.0
O1023 O 0.68958 0.68395 0.50034 0.0
O1024 O 0.66963 0.66344 0.44167 0.0
O1025 O 0.69865 0.6447 0.48064 0.0
O1026 O 0.71503 0.64162 0.56825 0.0
O1027 O 0.68219 0.63001 0.59798 0.0
O1028 O 0.65918 0.62257 0.51131 0.0
O1029 O 0.64108 0.65404 0.52505 0.0
O1030 O 0.67108 0.68464 0.5844 0.0
O1031 O 0.63615 0.69753 0.55446 0.0
H1032 H 0.58943 0.71953 0.37538 0.0
H1033 H 0.59418 0.72454 0.30054 0.0
H1034 H 0.66792 0.70282 0.31044 0.0
H1035 H 0.66294 0.69785 0.38508 0.0
H1036 H 0.71558 0.67201 0.63996 0.0
H1037 H 0.73524 0.67664 0.70712 0.0
H1038 H 0.74014 0.60014 0.71878 0.0
H1039 H 0.72017 0.59572 0.65188 0.0
Nd1040 Nd 0.04903 0.89861 0.23836 0.0
Nd1041 Nd 0.08183 0.93107 0.28986 0.0
C1042 C 0.03064 0.87002 0.18131 0.0
C1043 C 0.02832 0.86979 0.13573 0.0
C1044 C 0.04649 0.87843 0.10988 0.0
C1045 C 0.0433 0.87919 0.06689 0.0
C1046 C 0.0219 0.87123 0.04883 0.0
C1047 C 0.00392 0.8623 0.07492 0.0
C1048 C 0.0071 0.86164 0.11784 0.0
C1049 C 0.02824 0.94132 0.25964 0.0
C1050 C 0.08374 0.93861 0.19138 0.0
C1051 C 0.10239 0.95863 0.3467 0.0
C1052 C 0.0992 0.9691 0.38901 0.0
C1053 C 0.08804 0.99136 0.39415 0.0
C1054 C 0.08613 0.0019 0.43333 0.0
C1055 C 0.09533 0.99062 0.46891 0.0
C1056 C 0.10694 0.96855 0.46375 0.0
C1057 C 0.10887 0.95796 0.42436 0.0
C1058 C 0.10299 0.8914 0.25464 0.0
C1059 C 0.04056 0.89771 0.33517 0.0
O1060 O 0.05198 0.86724 0.19679 0.0
O1061 O 0.01831 0.88628 0.20078 0.0
O1062 O 0.01754 0.92088 0.26123 0.0
O1063 O 0.04974 0.93828 0.24942 0.0
O1064 O 0.07143 0.91853 0.18939 0.0
O1065 O 0.08814 0.94933 0.22706 0.0
O1066 O 0.08914 0.96685 0.3165 0.0
O1067 O 0.1062 0.93568 0.3436 0.0
O1068 O 0.11345 0.91184 0.25895 0.0
O1069 O 0.08289 0.89209 0.27234 0.0
O1070 O 0.05307 0.91763 0.33538 0.0
O1071 O 0.03934 0.88403 0.30202 0.0
H1072 H 0.06306 0.88474 0.12291 0.0
H1073 H 0.05764 0.88593 0.04778 0.0
H1074 H 0.98711 0.85632 0.06227 0.0
H1075 H 0.99279 0.85503 0.13717 0.0
H1076 H 0.08088 0.00083 0.36776 0.0
H1077 H 0.07749 0.01912 0.43564 0.0
H1078 H 0.11416 0.95924 0.49025 0.0
H1079 H 0.11801 0.94102 0.4216 0.0
Nd1080 Nd 0.83047 0.30415 0.97713 0.0
Nd1081 Nd 0.79831 0.3356 0.03092 0.0
C1082 C 0.85819 0.286 0.91822 0.0
C1083 C 0.8589 0.286 0.87258 0.0
C1084 C 0.87881 0.27665 0.85196 0.0
C1085 C 0.87884 0.27443 0.80882 0.0
C1086 C 0.85892 0.28155 0.78536 0.0
C1087 C 0.83924 0.29161 0.80619 0.0
C1088 C 0.83921 0.29373 0.84935 0.0
C1089 C 0.78938 0.28147 1.00093 0.0
C1090 C 0.78813 0.3376 0.93387 0.0
C1091 C 0.77116 0.35657 0.08793 0.0
C1092 C 0.76077 0.35418 0.13002 0.0
C1093 C 0.75855 0.37448 0.1552 0.0
C1094 C 0.74693 0.3733 0.19363 0.0
C1095 C 0.7371 0.35175 0.20774 0.0
C1096 C 0.74013 0.33123 0.183 0.0
C1097 C 0.75181 0.33242 0.14464 0.0
C1098 C 0.83533 0.35878 0.99126 0.0
C1099 C 0.83267 0.29454 0.07411 0.0
O1100 O 0.86276 0.30606 0.93702 0.0
O1101 O 0.84032 0.2747 0.93488 0.0
O1102 O 0.8105 0.27209 1.00278 0.0
O1103 O 0.79101 0.30318 0.99091 0.0
O1104 O 0.80885 0.32645 0.9299 0.0
O1105 O 0.77805 0.34086 0.97039 0.0
O1106 O 0.76279 0.34288 0.05854 0.0
O1107 O 0.79417 0.35991 0.08498 0.0
O1108 O 0.81462 0.36814 0.99873 0.0
O1109 O 0.83663 0.3387 1.00898 0.0
O1110 O 0.81286 0.30725 0.07558 0.0
O1111 O 0.84581 0.29343 0.04017 0.0
H1112 H 0.89417 0.27058 0.86931 0.0
H1113 H 0.89445 0.26699 0.79384 0.0
H1114 H 0.82352 0.29711 0.78929 0.0
H1115 H 0.82355 0.3008 0.86464 0.0
H1116 H 0.76529 0.39149 0.14462 0.0
H1117 H 0.74486 0.38947 0.21154 0.0
H1118 H 0.73321 0.31421 0.1931 0.0
H1119 H 0.75343 0.31643 0.1261 0.0
Nd1120 Nd 0.4444 0.90105 0.23842 0.0
Nd1121 Nd 0.42652 0.94273 0.29007 0.0
C1122 C 0.46699 0.86895 0.19261 0.0
C1123 C 0.4751 0.86759 0.14925 0.0
C1124 C 0.4732 0.88737 0.12289 0.0
C1125 C 0.48027 0.88567 0.0814 0.0
C1126 C 0.48943 0.86415 0.06545 0.0
C1127 C 0.49129 0.84442 0.09218 0.0
C1128 C 0.48418 0.84614 0.1336 0.0
C1129 C 0.40485 0.89209 0.28798 0.0
C1130 C 0.41526 0.94217 0.18825 0.0
C1131 C 0.4014 0.97157 0.33789 0.0
C1132 C 0.40017 0.97603 0.38271 0.0
C1133 C 0.415 0.96348 0.41009 0.0
C1134 C 0.41586 0.96973 0.45197 0.0
C1135 C 0.40193 0.9887 0.46721 0.0
C1136 C 0.38635 0.0005 0.43985 0.0
C1137 C 0.38555 0.99426 0.39799 0.0
C1138 C 0.46961 0.95053 0.25475 0.0
C1139 C 0.46649 0.90861 0.33162 0.0
O1140 O 0.47798 0.88424 0.21643 0.0
O1141 O 0.4439 0.8691 0.19814 0.0
O1142 O 0.40696 0.88377 0.25076 0.0
O1143 O 0.42304 0.90359 0.29692 0.0
O1144 O 0.43028 0.92415 0.18584 0.0
O1145 O 0.40873 0.95072 0.22509 0.0
O1146 O 0.39333 0.95099 0.32483 0.0
O1147 O 0.42148 0.97768 0.32026 0.0
O1148 O 0.46394 0.95804 0.2915 0.0
O1149 O 0.45224 0.94049 0.23714 0.0
O1150 O 0.44818 0.92278 0.33953 0.0
O1151 O 0.47041 0.89995 0.29412 0.0
H1152 H 0.46623 0.90412 0.13439 0.0
H1153 H 0.47881 0.90131 0.06196 0.0
H1154 H 0.49791 0.82748 0.08094 0.0
H1155 H 0.48561 0.83063 0.15336 0.0
H1156 H 0.4265 0.94939 0.39882 0.0
H1157 H 0.42821 0.9604 0.47196 0.0
H1158 H 0.37508 0.01492 0.45064 0.0
H1159 H 0.37398 0.00413 0.37732 0.0
Nd1160 Nd 0.82491 0.68807 0.99881 0.0
Nd1161 Nd 0.79178 0.65342 0.04435 0.0
C1162 C 0.84779 0.7157 0.94564 0.0
C1163 C 0.84595 0.72249 0.90173 0.0
C1164 C 0.82486 0.71891 0.87927 0.0
C1165 C 0.82367 0.72514 0.83735 0.0
C1166 C 0.84356 0.73507 0.81711 0.0
C1167 C 0.86455 0.73875 0.84004 0.0
C1168 C 0.86572 0.73248 0.88184 0.0
C1169 C 0.84686 0.65484 0.04903 0.0
C1170 C 0.79636 0.64703 0.94588 0.0
C1171 C 0.77239 0.62325 0.09751 0.0
C1172 C 0.76149 0.62426 0.13899 0.0
C1173 C 0.77251 0.63627 0.17193 0.0
C1174 C 0.76096 0.63825 0.21017 0.0
C1175 C 0.73813 0.6285 0.21595 0.0
C1176 C 0.72736 0.6162 0.18311 0.0
C1177 C 0.73898 0.61403 0.14507 0.0
C1178 C 0.76789 0.6869 0.99982 0.0
C1179 C 0.81096 0.70329 0.0908 0.0
O1180 O 0.83088 0.7234 0.97019 0.0
O1181 O 0.85395 0.69363 0.95319 0.0
O1182 O 0.8537 0.67681 0.04581 0.0
O1183 O 0.82978 0.65083 1.02459 0.0
O1184 O 0.80558 0.66858 0.94671 0.0
O1185 O 0.79321 0.63473 0.98048 0.0
O1186 O 0.79537 0.62676 0.09464 0.0
O1187 O 0.76043 0.63383 0.06818 0.0
O1188 O 0.75986 0.66558 1.00603 0.0
O1189 O 0.78671 0.69069 1.02018 0.0
O1190 O 0.8017 0.68164 0.09502 0.0
O1191 O 0.81866 0.71136 0.05497 0.0
H1192 H 0.80937 0.71119 0.89409 0.0
H1193 H 0.80729 0.72182 0.82065 0.0
H1194 H 0.88008 0.74671 0.82579 0.0
H1195 H 0.88213 0.73546 0.89869 0.0
H1196 H 0.7898 0.6445 0.16797 0.0
H1197 H 0.76958 0.64802 0.23482 0.0
H1198 H 0.70989 0.60832 0.1868 0.0
H1199 H 0.73018 0.60471 0.12008 0.0
Nd1200 Nd 0.05231 0.08398 0.74556 0.0
Nd1201 Nd 0.07974 0.04486 0.7969 0.0
C1202 C 0.02263 0.10942 0.69957 0.0
C1203 C 0.01529 0.10925 0.65549 0.0
C1204 C 0.99098 0.10933 0.64536 0.0
C1205 C 0.98364 0.10911 0.60397 0.0
C1206 C 0.00045 0.1089 0.57156 0.0
C1207 C 0.02484 0.1085 0.58187 0.0
C1208 C 0.03217 0.10859 0.6233 0.0
C1209 C 0.09144 0.09855 0.79127 0.0
C1210 C 0.08957 0.04935 0.6969 0.0
C1211 C 0.10605 0.02326 0.85316 0.0
C1212 C 0.10865 0.02192 0.89834 0.0
C1213 C 0.09239 0.03333 0.92485 0.0
C1214 C 0.09232 0.02811 0.96725 0.0
C1215 C 0.10841 0.01129 0.98355 0.0
C1216 C 0.12563 0.00117 0.95717 0.0
C1217 C 0.12571 0.00641 0.91496 0.0
C1218 C 0.04822 0.02629 0.74288 0.0
C1219 C 0.03245 0.07143 0.83832 0.0
O1220 O 0.0158 0.09128 0.72191 0.0
O1221 O 0.04446 0.11606 0.70788 0.0
O1222 O 0.08646 0.10756 0.75531 0.0
O1223 O 0.07578 0.08399 0.80106 0.0
O1224 O 0.07015 0.0625 0.69508 0.0
O1225 O 0.10006 0.04454 0.73304 0.0
O1226 O 0.11285 0.04293 0.83456 0.0
O1227 O 0.0861 0.01456 0.83859 0.0
O1228 O 0.06697 0.01482 0.75555 0.0
O1229 O 0.04523 0.04558 0.76237 0.0
O1230 O 0.04912 0.05472 0.84183 0.0
O1231 O 0.03027 0.08534 0.80546 0.0
H1232 H 0.97761 0.10954 0.66955 0.0
H1233 H 0.96472 0.10895 0.59741 0.0
H1234 H 0.03834 0.10858 0.55793 0.0
H1235 H 0.05107 0.10828 0.63007 0.0
H1236 H 0.07901 0.0453 0.91248 0.0
H1237 H 0.07878 0.03611 0.98673 0.0
H1238 H 0.13845 0.9884 0.96892 0.0
H1239 H 0.13837 -0.00257 0.89495 0.0
Nd1240 Nd 0.65408 0.30126 0.48328 0.0
Nd1241 Nd 0.69184 0.33235 0.53031 0.0
C1242 C 0.63134 0.26895 0.43833 0.0
C1243 C 0.63091 0.26232 0.39401 0.0
C1244 C 0.6221 0.24006 0.38193 0.0
C1245 C 0.6216 0.23357 0.34007 0.0
C1246 C 0.62991 0.24924 0.30921 0.0
C1247 C 0.63904 0.27148 0.32163 0.0
C1248 C 0.63955 0.27791 0.36355 0.0
C1249 C 0.63636 0.33773 0.53304 0.0
C1250 C 0.68004 0.34445 0.43389 0.0
C1251 C 0.71562 0.35979 0.58179 0.0
C1252 C 0.72079 0.36277 0.62586 0.0
C1253 C 0.73849 0.37898 0.63741 0.0
C1254 C 0.7475 0.37885 0.67757 0.0
C1255 C 0.73892 0.3625 0.70685 0.0
C1256 C 0.72002 0.34733 0.69595 0.0
C1257 C 0.71109 0.34737 0.65554 0.0
C1258 C 0.71086 0.30327 0.4716 0.0
C1259 C 0.67096 0.28302 0.57476 0.0
O1260 O 0.65118 0.26454 0.45807 0.0
O1261 O 0.62221 0.28969 0.44802 0.0
O1262 O 0.62611 0.33128 0.4988 0.0
O1263 O 0.65366 0.32433 0.53958 0.0
O1264 O 0.67039 0.32316 0.43152 0.0
O1265 O 0.68501 0.35435 0.47027 0.0
O1266 O 0.6941 0.36514 0.56866 0.0
O1267 O 0.72443 0.3404 0.56512 0.0
O1268 O 0.71966 0.32391 0.48086 0.0
O1269 O 0.69372 0.29806 0.49516 0.0
O1270 O 0.68567 0.30151 0.57715 0.0
O1271 O 0.65692 0.27909 0.54261 0.0
H1272 H 0.61557 0.22765 0.40491 0.0
H1273 H 0.61485 0.21615 0.33195 0.0
H1274 H 0.64538 0.28414 0.29893 0.0
H1275 H 0.64654 0.29515 0.37218 0.0
H1276 H 0.74624 0.39089 0.61476 0.0
H1277 H 0.76186 0.39091 0.68531 0.0
H1278 H 0.71317 0.33447 0.71788 0.0
H1279 H 0.69754 0.33459 0.64694 0.0
H1280 H 0.06484 0.45967 0.25056 0.0
H1281 H 0.13326 0.4789 0.20014 0.0
H1282 H 0.14325 0.49986 0.26441 0.0
H1283 H 0.13242 0.51218 0.33557 0.0
H1284 H 0.06271 0.49501 0.38299 0.0
H1285 H 0.05313 0.4739 0.31909 0.0
C1286 C 0.08198 0.46838 0.25377 0.0
C1287 C 0.09845 0.4676 0.22112 0.0
C1288 C 0.08723 0.48084 0.29011 0.0
C1289 C 0.12037 0.47933 0.2251 0.0
C1290 C 0.12606 0.49125 0.26176 0.0
C1291 C 0.11515 0.50386 0.33163 0.0
C1292 C 0.09827 0.50506 0.3637 0.0
C1293 C 0.10963 0.49207 0.29453 0.0
C1294 C 0.07586 0.49443 0.35844 0.0
C1295 C 0.07043 0.48227 0.32209 0.0
H1296 H 0.72288 0.85888 0.58517 0.0
H1297 H 0.78747 0.84382 0.65258 0.0
H1298 H 0.80819 0.83464 0.58799 0.0
H1299 H 0.80746 0.82945 0.51287 0.0
H1300 H 0.74312 0.84497 0.44497 0.0
H1301 H 0.72273 0.85537 0.5093 0.0
C1302 C 0.74148 0.85357 0.58563 0.0
C1303 C 0.75362 0.85196 0.62352 0.0
C1304 C 0.75327 0.84834 0.5484 0.0
C1305 C 0.77781 0.84538 0.62373 0.0
C1306 C 0.78962 0.84 0.58688 0.0
C1307 C 0.789 0.83514 0.5121 0.0
C1308 C 0.77681 0.83631 0.47422 0.0
C1309 C 0.77746 0.84121 0.54911 0.0
C1310 C 0.75295 0.84398 0.47371 0.0
C1311 C 0.74125 0.84986 0.5105 0.0
H1312 H 0.40013 0.56745 0.75482 0.0
H1313 H 0.38805 0.50222 0.68738 0.0
H1314 H 0.37989 0.48132 0.75194 0.0
H1315 H 0.37762 0.48113 0.82779 0.0
H1316 H 0.38991 0.54621 0.89527 0.0
H1317 H 0.39634 0.56762 0.83045 0.0
C1318 C 0.39561 0.54868 0.7542 0.0
C1319 C 0.39482 0.53641 0.71629 0.0
C1320 C 0.391 0.53672 0.79147 0.0
C1321 C 0.38872 0.51214 0.71607 0.0
C1322 C 0.38415 0.50012 0.75302 0.0
C1323 C 0.38178 0.49998 0.82828 0.0
C1324 C 0.38338 0.51202 0.86629 0.0
C1325 C 0.38551 0.51216 0.79092 0.0
C1326 C 0.38838 0.53655 0.86641 0.0
C1327 C 0.39218 0.54879 0.82938 0.0
H1328 H 0.76042 0.11471 0.0668 0.0
H1329 H 0.74941 0.18616 0.11217 0.0
H1330 H 0.72783 0.19658 0.04928 0.0
H1331 H 0.71106 0.18513 0.98262 0.0
H1332 H 0.72363 0.11472 0.93417 0.0
H1333 H 0.74557 0.10395 0.99716 0.0
C1334 C 0.75342 0.13257 0.06261 0.0
C1335 C 0.75651 0.14966 0.09389 0.0
C1336 C 0.74116 0.1385 1.02615 0.0
C1337 C 0.7475 0.17281 0.08822 0.0
C1338 C 0.73499 0.17872 0.05248 0.0
C1339 C 0.71848 0.16738 0.98602 0.0
C1340 C 0.71553 0.15058 0.95437 0.0
C1341 C 0.73151 0.16165 1.02152 0.0
C1342 C 0.72571 0.12786 0.95843 0.0
C1343 C 0.7382 0.12174 0.99433 0.0
H1344 H 0.91445 0.55851 0.11431 0.0
H1345 H 0.8843 0.49933 0.18148 0.0
H1346 H 0.87512 0.47934 0.11633 0.0
H1347 H 0.87756 0.47776 0.04033 0.0
H1348 H 0.90849 0.53672 0.97388 0.0
H1349 H 0.91574 0.55756 0.03888 0.0
C1350 C 0.90581 0.54126 0.11486 0.0
C1351 C 0.90022 0.53039 0.15284 0.0
C1352 C 0.90087 0.52974 0.07738 0.0
C1353 C 0.88886 0.50811 0.15274 0.0
C1354 C 0.88364 0.49663 0.11548 0.0
C1355 C 0.88558 0.49531 0.04008 0.0
C1356 C 0.89256 0.50562 1.00233 0.0
C1357 C 0.88981 0.50716 0.07762 0.0
C1358 C 0.90323 0.52825 1.00254 0.0
C1359 C 0.90729 0.54023 0.03967 0.0
H1360 H 0.18807 0.15837 0.85751 0.0
H1361 H 0.2527 0.14408 0.92558 0.0
H1362 H 0.27394 0.13636 0.86103 0.0
H1363 H 0.27431 0.13413 0.78511 0.0
H1364 H 0.2096 0.14797 0.71728 0.0
H1365 H 0.18819 0.15522 0.78194 0.0
C1366 C 0.2068 0.15352 0.85828 0.0
C1367 C 0.21878 0.15182 0.89633 0.0
C1368 C 0.21888 0.14899 0.82109 0.0
C1369 C 0.243 0.14539 0.89674 0.0
C1370 C 0.2552 0.14105 0.85983 0.0
C1371 C 0.25555 0.13882 0.78456 0.0
C1372 C 0.24356 0.14052 0.74655 0.0
C1373 C 0.24335 0.14289 0.82182 0.0
C1374 C 0.21916 0.14631 0.74622 0.0
C1375 C 0.20694 0.15058 0.78313 0.0
H1376 H 0.60287 0.52033 0.53071 0.0
H1377 H 0.58147 0.45679 0.46565 0.0
H1378 H 0.57524 0.43627 0.53129 0.0
H1379 H 0.57468 0.43672 0.60657 0.0
H1380 H 0.59495 0.50031 0.67263 0.0
H1381 H 0.60329 0.52037 0.60701 0.0
C1382 C 0.59706 0.50193 0.53098 0.0
C1383 C 0.59254 0.49012 0.49343 0.0
C1384 C 0.5933 0.49029 0.56885 0.0
C1385 C 0.58477 0.46635 0.49416 0.0
C1386 C 0.58127 0.45459 0.53162 0.0
C1387 C 0.58083 0.45502 0.60674 0.0
C1388 C 0.58395 0.4671 0.64443 0.0
C1389 C 0.58523 0.46647 0.56908 0.0
C1390 C 0.59242 0.49061 0.64403 0.0
C1391 C 0.59708 0.50212 0.60653 0.0
H1392 H 0.30937 0.8352 0.35653 0.0
H1393 H 0.24585 0.85703 0.42202 0.0
H1394 H 0.2264 0.86638 0.35638 0.0
H1395 H 0.22661 0.86582 0.2803 0.0
H1396 H 0.29002 0.84321 0.21541 0.0
H1397 H 0.31033 0.83657 0.2812 0.0
C1398 C 0.29127 0.84203 0.35658 0.0
C1399 C 0.27899 0.84517 0.39414 0.0
C1400 C 0.28014 0.84708 0.31884 0.0
C1401 C 0.25569 0.8544 0.39355 0.0
C1402 C 0.24453 0.85967 0.35602 0.0
C1403 C 0.24498 0.85975 0.28057 0.0
C1404 C 0.25675 0.85491 0.24305 0.0
C1405 C 0.25647 0.85574 0.31847 0.0
C1406 C 0.28047 0.84677 0.24388 0.0
C1407 C 0.2921 0.84302 0.28142 0.0
H1408 H 0.60175 0.96791 0.87112 0.0
H1409 H 0.59883 0.03917 0.8217 0.0
H1410 H 0.58936 0.02318 0.75313 0.0
H1411 H 0.58178 0.98854 0.70703 0.0
H1412 H 0.58434 0.9177 0.7589 0.0
H1413 H 0.59458 0.93392 0.82607 0.0
C1414 C 0.59942 0.98 0.84528 0.0
C1415 C 0.60126 0.00472 0.85164 0.0
C1416 C 0.59397 0.97071 0.80612 0.0
C1417 C 0.59746 0.02006 0.81785 0.0
C1418 C 0.59214 0.01092 0.77854 0.0
C1419 C 0.58473 0.9767 0.733 0.0
C1420 C 0.5823 0.95191 0.72768 0.0
C1421 C 0.59035 0.98622 0.77225 0.0
C1422 C 0.58596 0.93684 0.76188 0.0
C1423 C 0.59186 0.94609 0.80049 0.0
H1424 H 0.24722 0.34307 0.95017 0.0
H1425 H 0.31867 0.34424 0.99946 0.0
H1426 H 0.30318 0.35257 0.06817 0.0
H1427 H 0.26956 0.3576 0.11515 0.0
H1428 H 0.19771 0.35479 0.0684 0.0
H1429 H 0.21303 0.3487 0.99809 0.0
C1430 C 0.25934 0.34551 0.9759 0.0
C1431 C 0.28408 0.34331 0.96954 0.0
C1432 C 0.25023 0.34971 1.01592 0.0
C1433 C 0.29957 0.346 1.00336 0.0
C1434 C 0.29073 0.35069 0.04278 0.0
C1435 C 0.25721 0.35606 0.08951 0.0
C1436 C 0.23253 0.3569 0.09696 0.0
C1437 C 0.26613 0.35234 0.0495 0.0
C1438 C 0.2168 0.35417 0.0635 0.0
C1439 C 0.22556 0.35077 1.0233 0.0
H1440 H 0.93116 0.04768 0.26128 0.0
H1441 H 0.87927 0.00383 0.19919 0.0
H1442 H 0.86988 0.98403 0.26472 0.0
H1443 H 0.87719 0.97873 0.33977 0.0
H1444 H 0.93051 0.02181 0.39963 0.0
H1445 H 0.93857 0.04243 0.33473 0.0
C1446 C 0.91767 0.03389 0.26194 0.0
C1447 C 0.90586 0.02731 0.22538 0.0
C1448 C 0.9127 0.0224 0.29935 0.0
C1449 C 0.88864 0.00921 0.2269 0.0
C1450 C 0.88326 -0.0021 0.26435 0.0
C1451 C 0.89045 0.99273 0.33846 0.0
C1452 C 0.90329 -0.00125 0.37428 0.0
C1453 C 0.89526 0.00429 0.30078 0.0
C1454 C 0.92058 0.01676 0.37231 0.0
C1455 C 0.92514 0.02858 0.33529 0.0
H1456 H 0.17263 0.65877 0.50546 0.0
H1457 H 0.23131 0.62763 0.43782 0.0
H1458 H 0.25098 0.61738 0.50285 0.0
H1459 H 0.25273 0.6198 0.57892 0.0
H1460 H 0.19425 0.65187 0.64571 0.0
H1461 H 0.17333 0.65936 0.58086 0.0
C1462 C 0.18966 0.64965 0.50478 0.0
C1463 C 0.20055 0.6442 0.46672 0.0
C1464 C 0.20099 0.64413 0.54218 0.0
C1465 C 0.22253 0.63212 0.46663 0.0
C1466 C 0.23383 0.62631 0.50383 0.0
C1467 C 0.23526 0.62812 0.57926 0.0
C1468 C 0.22513 0.63542 0.61703 0.0
C1469 C 0.2234 0.63258 0.54178 0.0
C1470 C 0.20258 0.64639 0.61699 0.0
C1471 C 0.19057 0.65061 0.57996 0.0
H1472 H 0.42094 0.01065 0.6571 0.0
H1473 H 0.41796 0.08249 0.6097 0.0
H1474 H 0.40902 0.06761 0.5411 0.0
H1475 H 0.40397 0.03451 0.49339 0.0
H1476 H 0.40735 0.96228 0.53839 0.0
H1477 H 0.41458 0.97694 0.6086 0.0
C1478 C 0.4181 0.02299 0.6318 0.0
C1479 C 0.42014 0.04766 0.63873 0.0
C1480 C 0.41328 0.01426 0.59175 0.0
C1481 C 0.41664 0.06342 0.60543 0.0
C1482 C 0.4115 0.05494 0.56601 0.0
C1483 C 0.40581 0.02191 0.5186 0.0
C1484 C 0.40495 -0.00268 0.51052 0.0
C1485 C 0.41002 0.03043 0.5587 0.0
C1486 C 0.40807 0.98132 0.54359 0.0
C1487 C 0.41211 0.98969 0.58382 0.0
H1488 H 0.75518 0.62229 0.29398 0.0
H1489 H 0.69196 0.64243 0.22655 0.0
H1490 H 0.6707 0.64931 0.29144 0.0
H1491 H 0.67058 0.6512 0.36697 0.0
H1492 H 0.73376 0.63137 0.43496 0.0
H1493 H 0.75446 0.62259 0.37018 0.0
C1494 C 0.73676 0.62822 0.29358 0.0
C1495 C 0.72518 0.63189 0.25556 0.0
C1496 C 0.72464 0.63215 0.33101 0.0
C1497 C 0.70121 0.63927 0.25542 0.0
C1498 C 0.68907 0.64331 0.29248 0.0
C1499 C 0.68886 0.64486 0.36771 0.0
C1500 C 0.70065 0.6421 0.40578 0.0
C1501 C 0.70068 0.64 0.33041 0.0
C1502 C 0.72423 0.6336 0.40611 0.0
C1503 C 0.73613 0.62869 0.36906 0.0
H1504 H 0.08974 0.98592 0.17224 0.0
H1505 H 0.09362 0.91515 0.12076 0.0
H1506 H 0.10314 0.93134 0.05319 0.0
H1507 H 0.10804 0.96536 1.00751 0.0
H1508 H 0.10151 0.03667 0.05555 0.0
H1509 H 0.09499 0.02068 0.12533 0.0
C1510 C 0.09307 0.97412 0.14631 0.0
C1511 C 0.09139 0.94929 0.15173 0.0
C1512 C 0.09773 0.98369 0.10675 0.0
C1513 C 0.0951 0.93425 0.1176 0.0
C1514 C 0.10043 0.94351 0.07881 0.0
C1515 C 0.10562 0.97745 0.03335 0.0
C1516 C 0.10558 0.00216 1.02645 0.0
C1517 C 0.10151 0.96817 0.07291 0.0
C1518 C 0.10167 0.01756 0.0601 0.0
C1519 C 0.09799 0.00842 0.09997 0.0
H1520 H 0.71938 0.35939 0.78402 0.0
H1521 H 0.78658 0.35866 0.71904 0.0
H1522 H 0.80776 0.35192 0.78378 0.0
H1523 H 0.8072 0.34495 0.85825 0.0
H1524 H 0.74037 0.34577 0.92433 0.0
H1525 H 0.71905 0.354 0.85991 0.0
C1526 C 0.73865 0.35782 0.78421 0.0
C1527 C 0.7514 0.35961 0.7469 0.0
C1528 C 0.75078 0.35402 0.82167 0.0
C1529 C 0.77639 0.35768 0.74747 0.0
C1530 C 0.78852 0.35371 0.78441 0.0
C1531 C 0.78797 0.34701 0.85861 0.0
C1532 C 0.77536 0.34465 0.89591 0.0
C1533 C 0.77589 0.3517 0.82161 0.0
C1534 C 0.75049 0.34765 0.89599 0.0
C1535 C 0.73828 0.35221 0.85914 0.0
H1536 H 0.14442 0.36847 0.29828 0.0
H1537 H 0.11144 0.30467 0.25195 0.0
H1538 H 0.10219 0.32472 0.18678 0.0
H1539 H 0.10414 0.36061 0.14192 0.0
H1540 H 0.13982 0.42324 0.18779 0.0
H1541 H 0.14824 0.40325 0.25277 0.0
C1542 C 0.13559 0.35886 0.27364 0.0
C1543 C 0.12902 0.33503 0.2798 0.0
C1544 C 0.13105 0.37026 0.23568 0.0
C1545 C 0.11675 0.32306 0.24809 0.0
C1546 C 0.1116 0.33447 0.21061 0.0
C1547 C 0.1139 0.36974 0.16609 0.0
C1548 C 0.12114 0.39344 0.15992 0.0
C1549 C 0.11883 0.35805 0.20384 0.0
C1550 C 0.13396 0.40499 0.19148 0.0
C1551 C 0.13868 0.39364 0.22895 0.0
H1552 H 0.91664 0.86136 0.50979 0.0
H1553 H 0.85477 0.87753 0.58374 0.0
H1554 H 0.82896 0.87067 0.52368 0.0
H1555 H 0.82454 0.86255 0.44917 0.0
H1556 H 0.88586 0.84195 0.377 0.0
H1557 H 0.91167 0.84857 0.43718 0.0
C1558 C 0.89742 0.86277 0.51289 0.0
C1559 C 0.88748 0.86974 0.55105 0.0
C1560 C 0.88281 0.85847 0.47843 0.0
C1561 C 0.86268 0.87178 0.55483 0.0
C1562 C 0.84802 0.8681 0.52039 0.0
C1563 C 0.84352 0.85925 0.44668 0.0
C1564 C 0.85336 0.85189 0.4086 0.0
C1565 C 0.85795 0.86188 0.48188 0.0
C1566 C 0.87797 0.84777 0.40588 0.0
C1567 C 0.89264 0.85141 0.44032 0.0
H1568 H 0.36717 0.67342 0.7485 0.0
H1569 H 0.34194 0.61279 0.81748 0.0
H1570 H 0.34878 0.58706 0.75735 0.0
H1571 H 0.36093 0.58211 0.68472 0.0
H1572 H 0.38749 0.64236 0.61635 0.0
H1573 H 0.38043 0.6682 0.67636 0.0
C1574 C 0.36337 0.65453 0.75051 0.0
C1575 C 0.35398 0.64499 0.78739 0.0
C1576 C 0.36708 0.63995 0.71566 0.0
C1577 C 0.34912 0.62051 0.78944 0.0
C1578 C 0.35289 0.60586 0.75499 0.0
C1579 C 0.36501 0.60094 0.68282 0.0
C1580 C 0.37464 0.61039 0.64605 0.0
C1581 C 0.36156 0.61545 0.71779 0.0
C1582 C 0.37997 0.63476 0.64422 0.0
C1583 C 0.37608 0.64945 0.6786 0.0
H1584 H 0.66535 0.11762 0.92916 0.0
H1585 H 0.60486 0.15004 0.86913 0.0
H1586 H 0.58075 0.1439 0.93162 0.0
H1587 H 0.57725 0.12995 1.00373 0.0
H1588 H 0.63829 0.09887 0.06428 0.0
H1589 H 0.66205 0.10429 1.00135 0.0
C1590 C 0.64682 0.12318 0.9296 0.0
C1591 C 0.63682 0.13419 0.89447 0.0
C1592 C 0.63335 0.12015 0.96592 0.0
C1593 C 0.61289 0.14148 0.89572 0.0
C1594 C 0.59918 0.13808 0.9315 0.0
C1595 C 0.59581 0.12452 1.00326 0.0
C1596 C 0.60601 0.1139 0.03861 0.0
C1597 C 0.60929 0.12763 0.96691 0.0
C1598 C 0.63004 0.10695 0.03744 0.0
C1599 C 0.64358 0.10998 1.00143 0.0
H1600 H 0.0634 0.62797 0.5017 0.0
H1601 H 0.12514 0.60459 0.57 0.0
H1602 H 0.14988 0.6089 0.50824 0.0
H1603 H 0.15368 0.61771 0.43453 0.0
H1604 H 0.09355 0.64534 0.36693 0.0
H1605 H 0.06811 0.64013 0.42826 0.0
C1606 C 0.08232 0.6241 0.50312 0.0
C1607 C 0.09238 0.61556 0.54024 0.0
C1608 C 0.09653 0.62685 0.46742 0.0
C1609 C 0.11694 0.61084 0.54169 0.0
C1610 C 0.13107 0.61321 0.50634 0.0
C1611 C 0.13503 0.62269 0.43314 0.0
C1612 C 0.12548 0.63186 0.39617 0.0
C1613 C 0.12098 0.62082 0.46893 0.0
C1614 C 0.10125 0.63814 0.39497 0.0
C1615 C 0.0868 0.63533 0.43011 0.0
H1616 H 0.62083 0.90936 0.69642 0.0
H1617 H 0.59728 0.84944 0.62403 0.0
H1618 H 0.60542 0.82265 0.68228 0.0
H1619 H 0.61792 0.81657 0.75457 0.0
H1620 H 0.6404 0.8767 0.82754 0.0
H1621 H 0.63349 0.90327 0.7686 0.0
C1622 C 0.61775 0.89039 0.69325 0.0
C1623 C 0.6085 0.88133 0.65596 0.0
C1624 C 0.62184 0.87527 0.72723 0.0
C1625 C 0.60445 0.85676 0.65238 0.0
C1626 C 0.60895 0.84151 0.68576 0.0
C1627 C 0.62112 0.83553 0.75767 0.0
C1628 C 0.62962 0.84471 0.79542 0.0
C1629 C 0.61729 0.85061 0.72354 0.0
C1630 C 0.63385 0.86926 0.79884 0.0
C1631 C 0.63001 0.8844 0.76509 0.0
H1632 H 0.41732 0.36821 1.00026 0.0
H1633 H 0.35766 0.39797 0.06697 0.0
H1634 H 0.33234 0.39307 1.00586 0.0
H1635 H 0.32718 0.38 0.93391 0.0
H1636 H 0.38642 0.34912 0.86768 0.0
H1637 H 0.41219 0.35534 0.92798 0.0
C1638 C 0.3987 0.37341 1.00157 0.0
C1639 C 0.3893 0.38339 0.03816 0.0
C1640 C 0.38436 0.37068 0.96625 0.0
C1641 C 0.36525 0.39024 0.03921 0.0
C1642 C 0.35084 0.38755 1.00422 0.0
C1643 C 0.3458 0.37484 0.93246 0.0
C1644 C 0.35492 0.36406 0.89636 0.0
C1645 C 0.36023 0.37786 0.96757 0.0
C1646 C 0.37904 0.35744 0.89509 0.0
C1647 C 0.39368 0.36084 0.92965 0.0
H1648 H 0.87228 0.16947 0.25037 0.0
H1649 H 0.86207 0.10992 0.33229 0.0
H1650 H 0.87108 0.08224 0.27535 0.0
H1651 H 0.87849 0.07538 0.20083 0.0
H1652 H 0.8927 0.1351 0.12091 0.0
H1653 H 0.88472 0.16261 0.17828 0.0
C1654 C 0.87266 0.15042 0.25595 0.0
C1655 C 0.86679 0.14164 0.29544 0.0
C1656 C 0.87784 0.13481 0.22319 0.0
C1657 C 0.86702 0.117 0.30235 0.0
C1658 C 0.8718 0.10125 0.26965 0.0
C1659 C 0.88002 0.09441 0.19606 0.0
C1660 C 0.88588 0.10329 0.15655 0.0
C1661 C 0.87664 0.10998 0.2297 0.0
C1662 C 0.88795 0.12795 0.1509 0.0
C1663 C 0.88356 0.14361 0.18373 0.0
H1664 H 0.86341 0.57642 0.18637 0.0
H1665 H 0.89518 0.63589 0.24983 0.0
H1666 H 0.88626 0.66177 0.19057 0.0
H1667 H 0.86962 0.66725 0.12031 0.0
H1668 H 0.83896 0.60719 0.05676 0.0
H1669 H 0.84763 0.58162 0.11618 0.0
C1670 C 0.86822 0.5951 0.18745 0.0
C1671 C 0.87982 0.60429 0.22263 0.0
C1672 C 0.86349 0.60965 0.15299 0.0
C1673 C 0.88616 0.62845 0.22322 0.0
C1674 C 0.88115 0.64319 0.18926 0.0
C1675 C 0.865 0.64852 0.11937 0.0
C1676 C 0.85357 0.63913 0.08414 0.0
C1677 C 0.86995 0.63395 0.15385 0.0
C1678 C 0.84766 0.61486 0.0835 0.0
C1679 C 0.85255 0.60026 0.11754 0.0
H1680 H 0.0789 0.11248 0.86749 0.0
H1681 H 0.1396 0.10604 0.78654 0.0
H1682 H 0.16638 0.1149 0.84467 0.0
H1683 H 0.17224 0.12164 0.91953 0.0
H1684 H 0.11123 0.13213 0.99866 0.0
H1685 H 0.08457 0.12375 0.94035 0.0
C1686 C 0.09799 0.11352 0.86246 0.0
C1687 C 0.10738 0.10875 0.82289 0.0
C1688 C 0.11307 0.11873 0.89584 0.0
C1689 C 0.13205 0.11001 0.81661 0.0
C1690 C 0.1473 0.11478 0.84994 0.0
C1691 C 0.15312 0.12227 0.92395 0.0
C1692 C 0.14364 0.12728 0.96343 0.0
C1693 C 0.138 0.11866 0.88985 0.0
C1694 C 0.11885 0.1281 0.96866 0.0
C1695 C 0.10367 0.12348 0.93531 0.0
H1696 H 0.65468 0.34474 0.60906 0.0
H1697 H 0.59382 0.36256 0.53362 0.0
H1698 H 0.57593 0.38401 0.59219 0.0
H1699 H 0.57823 0.39787 0.66426 0.0
H1700 H 0.63967 0.38126 0.73844 0.0
H1701 H 0.6568 0.35867 0.68075 0.0
C1702 C 0.63753 0.35341 0.60522 0.0
C1703 C 0.62563 0.35213 0.56685 0.0
C1704 C 0.62739 0.3655 0.63896 0.0
C1705 C 0.60339 0.36337 0.56265 0.0
C1706 C 0.59312 0.3755 0.59623 0.0
C1707 C 0.59495 0.38887 0.66843 0.0
C1708 C 0.60721 0.39064 0.70634 0.0
C1709 C 0.60493 0.37656 0.63461 0.0
C1710 C 0.62959 0.37965 0.71003 0.0
C1711 C 0.63947 0.36694 0.67692 0.0
H1712 H 0.32524 0.87207 0.42059 0.0
H1713 H 0.38647 0.85155 0.4928 0.0
H1714 H 0.41259 0.86017 0.43367 0.0
H1715 H 0.4178 0.87443 0.362 0.0
H1716 H 0.35614 0.89016 0.28743 0.0
H1717 H 0.33003 0.88151 0.34659 0.0
C1718 C 0.34427 0.86919 0.42331 0.0
C1719 C 0.35398 0.86129 0.46115 0.0
C1720 C 0.35891 0.87295 0.38861 0.0
C1721 C 0.37866 0.85774 0.46412 0.0
C1722 C 0.39352 0.86255 0.43028 0.0
C1723 C 0.39859 0.87557 0.35858 0.0
C1724 C 0.3888 0.88294 0.32053 0.0
C1725 C 0.38382 0.8702 0.39244 0.0
C1726 C 0.36398 0.88431 0.3163 0.0
C1727 C 0.34913 0.87959 0.35022 0.0
H1728 H 0.87514 0.39212 0.81714 0.0
H1729 H 0.93739 0.35472 0.86094 0.0
H1730 H 0.91654 0.34391 0.92435 0.0
H1731 H 0.88114 0.34679 0.96976 0.0
H1732 H 0.81958 0.38574 0.92706 0.0
H1733 H 0.83976 0.39491 0.86234 0.0
C1734 C 0.88411 0.38164 0.84061 0.0
C1735 C 0.90793 0.37465 0.83444 0.0
C1736 C 0.87224 0.37609 0.87788 0.0
C1737 C 0.91911 0.36058 0.86485 0.0
C1738 C 0.90725 0.35449 0.9014 0.0
C1739 C 0.8722 0.35725 0.94622 0.0
C1740 C 0.84884 0.3654 0.95335 0.0
C1741 C 0.88395 0.3625 0.90868 0.0
C1742 C 0.8376 0.37925 0.92267 0.0
C1743 C 0.84906 0.38438 0.88534 0.0
H1744 H 0.38002 0.17903 0.61501 0.0
H1745 H 0.35935 0.11742 0.54408 0.0
H1746 H 0.36802 0.09164 0.60314 0.0
H1747 H 0.38162 0.08652 0.67459 0.0
H1748 H 0.40314 0.14758 0.74594 0.0
H1749 H 0.39342 0.17383 0.68748 0.0
C1750 C 0.37764 0.15993 0.61242 0.0
C1751 C 0.36911 0.1501 0.57514 0.0
C1752 C 0.38249 0.14521 0.64674 0.0
C1753 C 0.36592 0.12537 0.57237 0.0
C1754 C 0.37077 0.11065 0.60619 0.0
C1755 C 0.38404 0.1056 0.6775 0.0
C1756 C 0.39328 0.11512 0.71442 0.0
C1757 C 0.37898 0.12037 0.64353 0.0
C1758 C 0.39616 0.13987 0.71777 0.0
C1759 C 0.39075 0.15481 0.68426 0.0
H1760 H 0.56358 0.63194 0.36242 0.0
H1761 H 0.62407 0.60311 0.29675 0.0
H1762 H 0.64807 0.60519 0.35983 0.0
H1763 H 0.65158 0.61441 0.43379 0.0
H1764 H 0.59206 0.64538 0.49902 0.0
H1765 H 0.56756 0.64244 0.43633 0.0
C1766 C 0.5821 0.62637 0.36182 0.0
C1767 C 0.59205 0.61728 0.32495 0.0
C1768 C 0.59573 0.6275 0.39832 0.0
C1769 C 0.61603 0.61009 0.32472 0.0
C1770 C 0.62969 0.61115 0.36085 0.0
C1771 C 0.63322 0.62044 0.43441 0.0
C1772 C 0.62361 0.63012 0.47105 0.0
C1773 C 0.61965 0.61957 0.39791 0.0
C1774 C 0.59979 0.63782 0.47125 0.0
C1775 C 0.58589 0.63631 0.43533 0.0
H1776 H 0.11179 0.81506 0.11114 0.0
H1777 H 0.14213 0.87555 0.04823 0.0
H1778 H 0.1376 0.89963 0.11075 0.0
H1779 H 0.12504 0.90357 0.18318 0.0
H1780 H 0.0924 0.84415 0.24542 0.0
H1781 H 0.09808 0.81941 0.18352 0.0
C1782 C 0.11706 0.83363 0.11094 0.0
C1783 C 0.12744 0.84349 0.0751 0.0
C1784 C 0.11421 0.84744 0.14702 0.0
C1785 C 0.13416 0.86755 0.07539 0.0
C1786 C 0.13169 0.88128 0.11122 0.0
C1787 C 0.1193 0.88515 0.18334 0.0
C1788 C 0.1083 0.87567 0.21886 0.0
C1789 C 0.12187 0.87139 0.14726 0.0
C1790 C 0.10092 0.85181 0.21847 0.0
C1791 C 0.10401 0.83775 0.183 0.0
H1792 H 0.95406 0.5147 0.19104 0.0
H1793 H 0.00779 0.52762 0.28359 0.0
H1794 H 0.03645 0.50367 0.24417 0.0
H1795 H 0.04629 0.4804 0.18257 0.0
H1796 H 0.99256 0.46702 0.09028 0.0
H1797 H 0.96388 0.49111 0.12955 0.0
C1798 C 0.97186 0.51178 0.2031 0.0
C1799 C 0.97879 0.52247 0.24052 0.0
C1800 C 0.98838 0.49887 0.17952 0.0
C1801 C 0.00206 0.51912 0.25523 0.0
C1802 C 0.01849 0.5058 0.23241 0.0
C1803 C 0.02848 0.48319 0.17054 0.0
C1804 C 0.02158 0.47238 0.13323 0.0
C1805 C 0.01195 0.49604 0.19413 0.0
C1806 C -0.00171 0.47563 0.11854 0.0
C1807 C 0.98185 0.48902 0.14129 0.0
H1808 H 0.78342 0.73018 0.40252 0.0
H1809 H 0.74154 0.79323 0.37804 0.0
H1810 H 0.71026 0.77872 0.42422 0.0
H1811 H 0.69592 0.74917 0.47351 0.0
H1812 H 0.73766 0.68602 0.49797 0.0
H1813 H 0.76882 0.70033 0.45125 0.0
C1814 C 0.76722 0.74052 0.40649 0.0
C1815 C 0.76465 0.76269 0.38673 0.0
C1816 C 0.74988 0.73258 0.43432 0.0
C1817 C 0.7437 0.77598 0.39259 0.0
C1818 C 0.72605 0.7679 0.41949 0.0
C1819 C 0.71204 0.73872 0.46936 0.0
C1820 C 0.71468 0.71668 0.4895 0.0
C1821 C 0.72927 0.74654 0.44126 0.0
C1822 C 0.73549 0.70323 0.48325 0.0
C1823 C 0.75305 0.71119 0.45605 0.0
H1824 H 0.53732 0.48788 0.69983 0.0
H1825 H 0.47764 0.46761 0.77633 0.0
H1826 H 0.45115 0.49258 0.73441 0.0
H1827 H 0.44491 0.51809 0.67398 0.0
H1828 H 0.50458 0.53746 0.59678 0.0
H1829 H 0.53117 0.51332 0.63982 0.0
C1830 C 0.51862 0.4892 0.70794 0.0
C1831 C 0.50942 0.47597 0.74128 0.0
C1832 C 0.50344 0.50247 0.68254 0.0
C1833 C 0.48511 0.47785 0.75108 0.0
C1834 C 0.46995 0.49175 0.72672 0.0
C1835 C 0.46364 0.51668 0.66603 0.0
C1836 C 0.4728 0.52928 0.63196 0.0
C1837 C 0.47885 0.50357 0.69173 0.0
C1838 C 0.49716 0.5276 0.62253 0.0
C1839 C 0.51236 0.51416 0.64748 0.0
H1840 H 0.7317 0.20054 0.9141 0.0
H1841 H 0.71719 0.2577 0.82859 0.0
H1842 H 0.74028 0.2851 0.87156 0.0
H1843 H 0.76241 0.29301 0.93483 0.0
H1844 H 0.77724 0.23601 1.02053 0.0
H1845 H 0.75473 0.20834 0.97699 0.0
C1846 C 0.73406 0.21883 0.90432 0.0
C1847 C 0.72296 0.22711 0.86804 0.0
C1848 C 0.74633 0.23463 0.93011 0.0
C1849 C 0.72592 0.25093 0.85607 0.0
C1850 C 0.73869 0.26664 0.881 0.0
C1851 C 0.76029 0.27468 0.94459 0.0
C1852 C 0.77109 0.2666 0.98125 0.0
C1853 C 0.74835 0.2588 0.9186 0.0
C1854 C 0.76862 0.24266 0.99286 0.0
C1855 C 0.75613 0.22681 0.96766 0.0
H1856 H 0.99417 0.45977 0.74702 0.0
H1857 H 0.93593 0.5056 0.71115 0.0
H1858 H 0.96294 0.53004 0.67026 0.0
H1859 H 0.00308 0.5381 0.64367 0.0
H1860 H 0.06136 0.49224 0.67924 0.0
H1861 H 0.03448 0.46819 0.7212 0.0
C1862 C 0.98749 0.47511 0.73025 0.0
C1863 C 0.96322 0.48092 0.73205 0.0
C1864 C 0.0031 0.48909 0.70669 0.0
C1865 C 0.95465 0.50085 0.71029 0.0
C1866 C 0.97004 0.51483 0.68685 0.0
C1867 C 0.00983 0.52288 0.66071 0.0
C1868 C 0.03401 0.51681 0.65824 0.0
C1869 C 0.99429 0.50909 0.68471 0.0
C1870 C 0.04268 0.49712 0.68051 0.0
C1871 C 0.02736 0.48336 0.70453 0.0
H1872 H 0.78017 0.7329 0.98709 0.0
H1873 H 0.72843 0.67967 0.95341 0.0
H1874 H 0.7075 0.70848 0.91005 0.0
H1875 H 0.70358 0.74909 0.88243 0.0
H1876 H 0.75518 0.8023 0.917 0.0
H1877 H 0.77655 0.77325 0.95893 0.0
C1878 C 0.76434 0.72767 0.97018 0.0
C1879 C 0.75572 0.70439 0.97353 0.0
C1880 C 0.75238 0.7443 0.9454 0.0
C1881 C 0.73526 0.69766 0.95145 0.0
C1882 C 0.7233 0.71407 0.92661 0.0
C1883 C 0.71949 0.75423 0.89917 0.0
C1884 C 0.7278 0.77769 0.89675 0.0
C1885 C 0.73163 0.73748 0.92351 0.0
C1886 C 0.74847 0.78425 0.91839 0.0
C1887 C 0.7607 0.76769 0.94244 0.0
H1888 H 0.44414 0.50515 0.15319 0.0
H1889 H 0.49077 0.44851 0.11278 0.0
H1890 H 0.52392 0.46643 0.15076 0.0
H1891 H 0.53928 0.49806 0.19582 0.0
H1892 H 0.4925 0.5547 0.23578 0.0
H1893 H 0.45958 0.537 0.19714 0.0
C1894 C 0.46159 0.49679 0.1526 0.0
C1895 C 0.46513 0.47556 0.13051 0.0
C1896 C 0.48041 0.50719 0.17429 0.0
C1897 C 0.48772 0.46482 0.1299 0.0
C1898 C 0.50662 0.47506 0.15149 0.0
C1899 C 0.52185 0.50647 0.19606 0.0
C1900 C 0.51815 0.52752 0.21858 0.0
C1901 C 0.50311 0.49619 0.1739 0.0
C1902 C 0.49564 0.53845 0.21855 0.0
C1903 C 0.47687 0.52834 0.19657 0.0
H1904 H 0.78363 0.24206 0.36988 0.0
H1905 H 0.74296 0.18511 0.42465 0.0
H1906 H 0.71668 0.21405 0.45826 0.0
H1907 H 0.70554 0.25552 0.47209 0.0
H1908 H 0.7462 0.31243 0.41711 0.0
H1909 H 0.772 0.28347 0.38255 0.0
C1910 C 0.76911 0.23607 0.38945 0.0
C1911 C 0.76512 0.21168 0.39506 0.0
C1912 C 0.75394 0.25272 0.40799 0.0
C1913 C 0.74622 0.20394 0.42006 0.0
C1914 C 0.73118 0.22041 0.43907 0.0
C1915 C 0.71989 0.2615 0.45214 0.0
C1916 C 0.72417 0.28589 0.44711 0.0
C1917 C 0.73481 0.24483 0.43304 0.0
C1918 C 0.74278 0.29361 0.42142 0.0
C1919 C 0.75755 0.27713 0.40187 0.0
H1920 H 0.26212 0.29311 0.9219 0.0
H1921 H 0.2827 0.23498 0.84196 0.0
H1922 H 0.25896 0.20744 0.88356 0.0
H1923 H 0.23405 0.19991 0.94371 0.0
H1924 H 0.21242 0.25794 1.02292 0.0
H1925 H 0.23641 0.28561 0.98169 0.0
C1926 C 0.26101 0.27452 0.91302 0.0
C1927 C 0.27395 0.26601 0.87878 0.0
C1928 C 0.24812 0.25876 0.93787 0.0
C1929 C 0.27262 0.24186 0.86797 0.0
C1930 C 0.25941 0.22611 0.89208 0.0
C1931 C 0.23488 0.21851 0.95251 0.0
C1932 C 0.22173 0.22691 0.98655 0.0
C1933 C 0.24759 0.23431 0.92758 0.0
C1934 C 0.22274 0.25112 0.99715 0.0
C1935 C 0.23608 0.26693 0.97323 0.0
H1936 H 0.1975 0.75308 0.39543 0.0
H1937 H 0.23903 0.6891 0.37708 0.0
H1938 H 0.27044 0.70504 0.4216 0.0
H1939 H 0.28537 0.73668 0.46677 0.0
H1940 H 0.24336 0.80031 0.48565 0.0
H1941 H 0.21202 0.78428 0.44131 0.0
C1942 C 0.21359 0.74275 0.4005 0.0
C1943 C 0.2161 0.72003 0.38267 0.0
C1944 C 0.23098 0.75156 0.42735 0.0
C1945 C 0.23691 0.70677 0.39007 0.0
C1946 C 0.25465 0.71571 0.41597 0.0
C1947 C 0.26915 0.74685 0.46192 0.0
C1948 C 0.26657 0.76961 0.4796 0.0
C1949 C 0.25165 0.73789 0.43534 0.0
C1950 C 0.24558 0.78265 0.47266 0.0
C1951 C 0.22787 0.77366 0.44685 0.0
H1952 H 0.288 0.24039 0.48436 0.0
H1953 H 0.24265 0.18269 0.44529 0.0
H1954 H 0.21777 0.21039 0.40645 0.0
H1955 H 0.20923 0.25088 0.38266 0.0
H1956 H 0.25459 0.30869 0.42098 0.0
H1957 H 0.27905 0.28115 0.46128 0.0
C1958 C 0.27268 0.23397 0.4673 0.0
C1959 C 0.26709 0.20968 0.46761 0.0
C1960 C 0.25844 0.24997 0.445 0.0
C1961 C 0.24721 0.20143 0.44552 0.0
C1962 C 0.23298 0.21721 0.42331 0.0
C1963 C 0.22442 0.25739 0.39997 0.0
C1964 C 0.23029 0.28159 0.39876 0.0
C1965 C 0.23845 0.2415 0.42277 0.0
C1966 C 0.24992 0.28998 0.42133 0.0
C1967 C 0.26389 0.27429 0.44434 0.0
H1968 H 0.27836 0.73811 0.87463 0.0
H1969 H 0.22484 0.68515 0.90051 0.0
H1970 H 0.20337 0.71321 0.94448 0.0
H1971 H 0.20054 0.75238 0.97762 0.0
H1972 H 0.25429 0.80523 0.95263 0.0
H1973 H 0.27507 0.77763 0.90671 0.0
C1974 C 0.26201 0.7328 0.88993 0.0
C1975 C 0.25324 0.70969 0.88463 0.0
C1976 C 0.2499 0.74892 0.91558 0.0
C1977 C 0.23194 0.70294 0.90425 0.0
C1978 C 0.21967 0.71892 0.92947 0.0
C1979 C 0.21678 0.75778 0.96205 0.0
C1980 C 0.22602 0.78059 0.96862 0.0
C1981 C 0.22862 0.74186 0.9357 0.0
C1982 C 0.247 0.78757 0.94824 0.0
C1983 C 0.25885 0.77187 0.92189 0.0
H1984 H 0.4597 0.01832 0.71404 0.0
H1985 H 0.5286 0.05181 0.71951 0.0
H1986 H 0.54666 0.01775 0.68429 0.0
H1987 H 0.54239 0.97922 0.64951 0.0
H1988 H 0.47348 0.94575 0.64401 0.0
H1989 H 0.45536 0.97998 0.67866 0.0
C1990 C 0.47866 0.01798 0.70808 0.0
C1991 C 0.49285 0.03735 0.71948 0.0
C1992 C 0.48866 -0.00109 0.68606 0.0
C1993 C 0.51744 0.03682 0.71134 0.0
C1994 C 0.52769 0.01758 0.69062 0.0
C1995 C 0.5234 0.97964 0.65523 0.0
C1996 C 0.50924 0.96017 0.64417 0.0
C1997 C 0.51336 -0.00121 0.67697 0.0
C1998 C 0.48462 0.9608 0.65196 0.0
C1999 C 0.47434 0.98012 0.67239 0.0
H2000 H 0.04347 0.97296 0.20242 0.0
H2001 H 0.98235 0.95361 0.27617 0.0
H2002 H 0.95723 0.98042 0.23525 0.0
H2003 H 0.95255 0.00742 0.17677 0.0
H2004 H 0.01361 0.027 0.10311 0.0
H2005 H 0.03888 0.00052 0.14448 0.0
C2006 C 0.02476 0.97492 0.21012 0.0
C2007 C 0.01473 0.96145 0.24241 0.0
C2008 C 0.01036 0.98947 0.18544 0.0
C2009 C 0.99042 0.96401 0.25169 0.0
C2010 C 0.97605 0.979 0.22792 0.0
C2011 C 0.97129 0.00563 0.16921 0.0
C2012 C 0.98122 0.01892 0.13663 0.0
C2013 C 0.98574 0.99129 0.19413 0.0
C2014 C 0.00559 0.01663 0.12768 0.0
C2015 C 0.02005 0.00184 0.1517 0.0
H2016 H 0.46277 0.97973 0.19056 0.0
H2017 H 0.51682 0.9498 0.26974 0.0
H2018 H 0.54744 0.97358 0.23483 0.0
H2019 H 0.55836 0.00264 0.18208 0.0
H2020 H 0.50405 0.03574 0.10725 0.0
H2021 H 0.47348 0.01107 0.14063 0.0
C2022 C 0.48136 0.97825 0.19952 0.0
C2023 C 0.488 0.9628 0.23154 0.0
C2024 C 0.49846 0.99265 0.18063 0.0
C2025 C 0.51175 0.96137 0.2444 0.0
C2026 C 0.52908 0.975 0.22474 0.0
C2027 C 0.53978 0.00452 0.17335 0.0
C2028 C 0.53323 0.02064 0.14234 0.0
C2029 C 0.52257 0.99071 0.19297 0.0
C2030 C 0.50924 0.02336 0.13132 0.0
C2031 C 0.49191 0.0092 0.1501 0.0
H2032 H 0.97222 0.9908 0.61545 0.0
H2033 H 0.98634 0.92458 0.67844 0.0
H2034 H 0.016 0.94424 0.72198 0.0
H2035 H 0.03697 0.98034 0.74265 0.0
H2036 H 0.02019 0.04746 0.68482 0.0
H2037 H 0.99205 0.02746 0.6384 0.0
C2038 C 0.98204 0.9807 0.63844 0.0
C2039 C 0.97763 0.95632 0.64367 0.0
C2040 C -0.00182 0.99232 0.66427 0.0
C2041 C 0.98982 0.94336 0.67399 0.0
C2042 C 0.00662 0.95458 0.69883 0.0
C2043 C 0.02707 0.99053 0.71988 0.0
C2044 C 0.03037 0.01516 0.71675 0.0
C2045 C 0.01076 0.97905 0.69436 0.0
C2046 C 0.0175 0.02845 0.68772 0.0
C2047 C 0.00164 0.01701 0.66115 0.0
H2048 H 0.01582 0.4402 1.01754 0.0
H2049 H 0.04978 0.37376 0.9861 0.0
H2050 H 0.02582 0.37144 0.92246 0.0
H2051 H -0.00338 0.38989 0.87397 0.0
H2052 H 0.96153 0.45535 0.9091 0.0
H2053 H 0.98452 0.45657 0.97305 0.0
C2054 C 0.01771 0.42503 0.99697 0.0
C2055 C 0.03448 0.40716 1.00626 0.0
C2056 C 0.00386 0.42386 0.96092 0.0
C2057 C 0.03679 0.38757 0.97965 0.0
C2058 C 0.02325 0.3864 0.94317 0.0
C2059 C 0.99407 0.4044 0.89568 0.0
C2060 C 0.97762 0.42271 0.88649 0.0
C2061 C 0.00701 0.40469 0.93311 0.0
C2062 C 0.97412 0.44112 0.91529 0.0
C2063 C 0.98726 0.44183 0.95189 0.0
H2064 H 0.83294 0.69774 0.16565 0.0
H2065 H 0.79095 0.74673 0.09332 0.0
H2066 H 0.79371 0.77666 0.14794 0.0
H2067 H 0.80791 0.78894 0.21586 0.0
H2068 H 0.8511 0.7412 0.28871 0.0
H2069 H 0.84881 0.71107 0.23389 0.0
C2070 C 0.82421 0.71489 0.16232 0.0
C2071 C 0.81136 0.71998 0.12601 0.0
C2072 C 0.82655 0.73238 0.19347 0.0
C2073 C 0.80065 0.74242 0.1213 0.0
C2074 C 0.80237 0.75956 0.15236 0.0
C2075 C 0.81701 0.77202 0.21973 0.0
C2076 C 0.82963 0.76736 0.25644 0.0
C2077 C 0.81535 0.75479 0.18844 0.0
C2078 C 0.84148 0.74539 0.26062 0.0
C2079 C 0.83992 0.72804 0.22946 0.0
H2080 H 0.53 0.60324 0.40643 0.0
H2081 H 0.48388 0.55941 0.33217 0.0
H2082 H 0.45402 0.5591 0.38728 0.0
H2083 H 0.44136 0.5705 0.45676 0.0
H2084 H 0.48604 0.61577 0.53119 0.0
H2085 H 0.51584 0.6169 0.47564 0.0
C2086 C 0.51344 0.59356 0.40269 0.0
C2087 C 0.50915 0.58103 0.3658 0.0
C2088 C 0.496 0.59403 0.43419 0.0
C2089 C 0.48751 0.56895 0.3606 0.0
C2090 C 0.47044 0.56886 0.39197 0.0
C2091 C 0.4575 0.58086 0.46072 0.0
C2092 C 0.46147 0.59302 0.49809 0.0
C2093 C 0.47449 0.58131 0.42886 0.0
C2094 C 0.48242 0.60645 0.50257 0.0
C2095 C 0.49958 0.60689 0.47097 0.0
H2096 H 0.6771 0.19715 0.69926 0.0
H2097 H 0.63463 0.24451 0.77444 0.0
H2098 H 0.63484 0.2742 0.71881 0.0
H2099 H 0.64913 0.28753 0.64961 0.0
H2100 H 0.69072 0.2393 0.57496 0.0
H2101 H 0.68923 0.20924 0.62976 0.0
C2102 C 0.66761 0.21385 0.7034 0.0
C2103 C 0.65586 0.21857 0.74107 0.0
C2104 C 0.66806 0.23085 0.67156 0.0
C2105 C 0.64359 0.24027 0.74567 0.0
C2106 C 0.64394 0.25737 0.714 0.0
C2107 C 0.6579 0.27043 0.64567 0.0
C2108 C 0.67038 0.26561 0.60882 0.0
C2109 C 0.6565 0.25303 0.67707 0.0
C2110 C 0.68131 0.24336 0.60339 0.0
C2111 C 0.68034 0.22619 0.63458 0.0
H2112 H 0.95719 0.63268 0.98916 0.0
H2113 H 0.0014 0.572 1.01841 0.0
H2114 H 0.01261 0.5681 0.94572 0.0
H2115 H 0.01037 0.58232 0.87374 0.0
H2116 H 0.96663 0.64345 0.84505 0.0
H2117 H 0.95482 0.64676 0.91742 0.0
C2118 C 0.96941 0.6187 0.9797 0.0
C2119 C 0.97845 0.6027 1.00934 0.0
C2120 C 0.97588 0.61661 0.93784 0.0
C2121 C 0.99394 0.58442 0.99629 0.0
C2122 C 0.00049 0.58226 0.95472 0.0
C2123 C -0.00163 0.59645 0.88338 0.0
C2124 C 0.98939 0.61258 0.85386 0.0
C2125 C 0.99166 0.59832 0.92521 0.0
C2126 C 0.97358 0.63058 0.8669 0.0
C2127 C 0.96691 0.63259 0.90838 0.0
H2128 H 0.61428 0.75056 0.25177 0.0
H2129 H 0.65594 0.686 0.24429 0.0
H2130 H 0.66132 0.69201 0.17004 0.0
H2131 H 0.65401 0.71557 0.10678 0.0
H2132 H 0.61157 0.77966 0.1147 0.0
H2133 H 0.60679 0.77384 0.18888 0.0
C2134 C 0.62434 0.73765 0.23389 0.0
C2135 C 0.63461 0.71781 0.25382 0.0
C2136 C 0.62734 0.74118 0.19109 0.0
C2137 C 0.648 0.70156 0.23004 0.0
C2138 C 0.651 0.70492 0.18744 0.0
C2139 C 0.64358 0.72819 0.12465 0.0
C2140 C 0.63327 0.74811 0.10488 0.0
C2141 C 0.64072 0.72467 0.16756 0.0
C2142 C 0.62007 0.76439 0.12891 0.0
C2143 C 0.61716 0.76099 0.17142 0.0
H2144 H 0.48472 0.36916 0.4941 0.0
H2145 H 0.54918 0.41038 0.48324 0.0
H2146 H 0.54347 0.41328 0.40849 0.0
H2147 H 0.51981 0.40448 0.34606 0.0
H2148 H 0.45554 0.36293 0.35745 0.0
H2149 H 0.46154 0.35985 0.43191 0.0
C2150 C 0.49771 0.37851 0.47534 0.0
C2151 C 0.51739 0.38947 0.49436 0.0
C2152 C 0.49426 0.38019 0.43237 0.0
C2153 C 0.53376 0.40193 0.46954 0.0
C2154 C 0.53055 0.40353 0.42673 0.0
C2155 C 0.50722 0.39459 0.36478 0.0
C2156 C 0.48719 0.38404 0.34601 0.0
C2157 C 0.5108 0.3928 0.40778 0.0
C2158 C 0.47091 0.37156 0.37098 0.0
C2159 C 0.47441 0.36963 0.41361 0.0
H2160 H 0.87481 0.24294 0.74193 0.0
H2161 H 0.8415 0.31166 0.72567 0.0
H2162 H 0.8398 0.30514 0.65101 0.0
H2163 H 0.84754 0.27977 0.59014 0.0
H2164 H 0.88148 0.21137 0.60678 0.0
H2165 H 0.88315 0.21797 0.68125 0.0
C2166 C 0.86744 0.25665 0.72207 0.0
C2167 C 0.85838 0.27781 0.73961 0.0
C2168 C 0.86653 0.2528 0.67909 0.0
C2169 C 0.84843 0.29511 0.71324 0.0
C2170 C 0.84754 0.29144 0.67044 0.0
C2171 C 0.85552 0.2664 0.60998 0.0
C2172 C 0.86433 0.24506 0.59262 0.0
C2173 C 0.85651 0.27034 0.65299 0.0
C2174 C 0.87425 0.22781 0.61911 0.0
C2175 C 0.87536 0.23163 0.66178 0.0
H2176 H 0.0353 0.59304 0.46321 0.0
H2177 H 0.98725 0.55118 0.53745 0.0
H2178 H 0.95755 0.55206 0.48232 0.0
H2179 H 0.94535 0.56421 0.41308 0.0
H2180 H 0.99181 0.60779 0.3388 0.0
H2181 H 0.02171 0.60746 0.39417 0.0
C2182 C 0.01838 0.58399 0.46692 0.0
C2183 C 0.0135 0.5717 0.5039 0.0
C2184 C 0.00097 0.58529 0.43549 0.0
C2185 C 0.99137 0.56051 0.50901 0.0
C2186 C 0.97437 0.56113 0.47764 0.0
C2187 C 0.96189 0.57392 0.40916 0.0
C2188 C 0.96632 0.58604 0.37189 0.0
C2189 C 0.97893 0.5735 0.44086 0.0
C2190 C 0.98781 0.59858 0.36738 0.0
C2191 C 0.00504 0.59814 0.39885 0.0
H2192 H 0.15255 0.28155 0.20666 0.0
H2193 H 0.19533 0.23406 0.28068 0.0
H2194 H 0.19409 0.20395 0.22623 0.0
H2195 H 0.18161 0.19136 0.15741 0.0
H2196 H 0.1373 0.23739 0.08331 0.0
H2197 H 0.13766 0.26751 0.1383 0.0
C2198 C 0.16172 0.26466 0.21047 0.0
C2199 C 0.17437 0.26007 0.24716 0.0
C2200 C 0.16025 0.24704 0.17945 0.0
C2201 C 0.1857 0.23797 0.25245 0.0
C2202 C 0.18489 0.22073 0.22147 0.0
C2203 C 0.17173 0.20785 0.15348 0.0
C2204 C 0.15943 0.21211 0.11635 0.0
C2205 C 0.17221 0.22505 0.18492 0.0
C2206 C 0.14666 0.23353 0.11182 0.0
C2207 C 0.14713 0.25088 0.14304 0.0
H2208 H 0.4985 0.40859 1.00882 0.0
H2209 H 0.43232 0.41706 0.94259 0.0
H2210 H 0.4533 0.41197 0.87687 0.0
H2211 H 0.49108 0.40832 0.83787 0.0
H2212 H 0.55736 0.4034 0.90435 0.0
H2213 H 0.53581 0.40328 0.9702 0.0
C2214 C 0.48862 0.40911 0.98004 0.0
C2215 C 0.4639 0.41344 0.98066 0.0
C2216 C 0.50087 0.40657 0.94233 0.0
C2217 C 0.45141 0.41413 0.94302 0.0
C2218 C 0.46338 0.41108 0.90539 0.0
C2219 C 0.50065 0.40648 0.86683 0.0
C2220 C 0.52568 0.4053 0.86648 0.0
C2221 C 0.48817 0.40764 0.9046 0.0
C2222 C 0.53805 0.40385 0.90407 0.0
C2223 C 0.52575 0.40403 0.94165 0.0
H2224 H 0.29614 0.76029 0.60187 0.0
H2225 H 0.36641 0.78667 0.6288 0.0
H2226 H 0.36753 0.76254 0.69235 0.0
H2227 H 0.34722 0.73532 0.74205 0.0
H2228 H 0.27807 0.70718 0.71085 0.0
H2229 H 0.27772 0.73059 0.64724 0.0
C2230 C 0.31182 0.76055 0.62148 0.0
C2231 C 0.33113 0.77529 0.61093 0.0
C2232 C 0.31237 0.74647 0.65737 0.0
C2233 C 0.35141 0.77534 0.63624 0.0
C2234 C 0.35194 0.76169 0.67267 0.0
C2235 C 0.33212 0.73436 0.72123 0.0
C2236 C 0.31252 0.71979 0.73147 0.0
C2237 C 0.33233 0.74745 0.68392 0.0
C2238 C 0.2933 0.71831 0.70382 0.0
C2239 C 0.29308 0.7317 0.66744 0.0
H2240 H 0.04688 0.37325 0.39233 0.0
H2241 H 0.99137 0.42267 0.35782 0.0
H2242 H 0.98021 0.42748 0.43042 0.0
H2243 H 0.98569 0.41704 0.50397 0.0
H2244 H 0.04102 0.36722 0.53787 0.0
H2245 H 0.05269 0.36324 0.46556 0.0
C2246 C 0.03224 0.38497 0.40063 0.0
C2247 C 0.01996 0.39749 0.36947 0.0
C2248 C 0.02587 0.38763 0.4425 0.0
C2249 C 0.00131 0.41295 0.38105 0.0
C2250 C 0.99481 0.41562 0.42261 0.0
C2251 C 0.00024 0.40524 0.49551 0.0
C2252 C 0.01246 0.3925 0.52653 0.0
C2253 C 0.00688 0.40295 0.45363 0.0
C2254 C 0.03148 0.37752 0.5149 0.0
C2255 C 0.03809 0.3751 0.47343 0.0
H2256 H 0.38197 0.24276 0.11219 0.0
H2257 H 0.33299 0.30191 0.12181 0.0
H2258 H 0.32895 0.29493 0.19599 0.0
H2259 H 0.33926 0.27202 0.25834 0.0
H2260 H 0.38923 0.21366 0.24891 0.0
H2261 H 0.39281 0.22032 0.17468 0.0
C2262 C 0.37061 0.25431 0.13055 0.0
C2263 C 0.35781 0.27285 0.11123 0.0
C2264 C 0.36842 0.25027 0.17333 0.0
C2265 C 0.34284 0.28733 0.13559 0.0
C2266 C 0.3406 0.28343 0.17813 0.0
C2267 C 0.35111 0.26088 0.24017 0.0
C2268 C 0.3639 0.24231 0.25946 0.0
C2269 C 0.35329 0.26494 0.19737 0.0
C2270 C 0.37885 0.22784 0.23504 0.0
C2271 C 0.38107 0.23175 0.19252 0.0
H2272 H 0.46308 0.63297 1.01185 0.0
H2273 H 0.52287 0.58517 0.99609 0.0
H2274 H 0.51523 0.58328 0.92211 0.0
H2275 H 0.49217 0.59581 0.86134 0.0
H2276 H 0.43161 0.64241 0.87694 0.0
H2277 H 0.43852 0.64355 0.95161 0.0
C2278 C 0.47425 0.62182 0.99245 0.0
C2279 C 0.49371 0.60943 1.00984 0.0
C2280 C 0.46957 0.62052 0.94978 0.0
C2281 C 0.5081 0.59535 0.98376 0.0
C2282 C 0.50364 0.5941 0.94134 0.0
C2283 C 0.48051 0.60624 0.88112 0.0
C2284 C 0.46152 0.61916 0.86359 0.0
C2285 C 0.48459 0.6068 0.92395 0.0
C2286 C 0.44628 0.63223 0.88968 0.0
C2287 C 0.45031 0.63298 0.93234 0.0
H2288 H 0.10602 0.75716 0.75048 0.0
H2289 H 0.17429 0.72299 0.76703 0.0
H2290 H 0.17517 0.71233 0.69366 0.0
H2291 H 0.15627 0.71254 0.62455 0.0
H2292 H 0.08779 0.74658 0.60921 0.0
H2293 H 0.08719 0.75721 0.68229 0.0
C2294 C 0.12101 0.74718 0.73818 0.0
C2295 C 0.13999 0.74079 0.7644 0.0
C2296 C 0.12135 0.74105 0.69607 0.0
C2297 C 0.15952 0.72832 0.74758 0.0
C2298 C 0.15996 0.72209 0.70564 0.0
C2299 C 0.14115 0.72212 0.63732 0.0
C2300 C 0.12213 0.72881 0.6113 0.0
C2301 C 0.14093 0.72829 0.67957 0.0
C2302 C 0.1028 0.74147 0.62831 0.0
C2303 C 0.10239 0.74749 0.67018 0.0
H2304 H 0.4564 0.89332 0.40932 0.0
H2305 H 0.51452 0.9127 0.32904 0.0
H2306 H 0.54252 0.90952 0.38686 0.0
H2307 H 0.54972 0.90473 0.46166 0.0
H2308 H 0.49226 0.88222 0.54098 0.0
H2309 H 0.46482 0.88257 0.48215 0.0
C2310 C 0.47527 0.89646 0.40453 0.0
C2311 C 0.48347 0.90341 0.36525 0.0
C2312 C 0.49134 0.89399 0.43769 0.0
C2313 C 0.50791 0.90725 0.35907 0.0
C2314 C 0.52388 0.90553 0.39213 0.0
C2315 C 0.5313 0.89937 0.4658 0.0
C2316 C 0.52299 0.89351 0.50557 0.0
C2317 C 0.51572 0.89937 0.43175 0.0
C2318 C 0.49913 0.88656 0.51059 0.0
C2319 C 0.48338 0.887 0.47704 0.0
H2320 H 0.34872 0.21059 0.65377 0.0
H2321 H 0.29586 0.25109 0.58737 0.0
H2322 H 0.29519 0.28106 0.64227 0.0
H2323 H 0.3095 0.29572 0.70878 0.0
H2324 H 0.36355 0.25661 0.77517 0.0
H2325 H 0.36446 0.22652 0.72026 0.0
C2326 C 0.33693 0.22588 0.65179 0.0
C2327 C 0.32199 0.22853 0.61717 0.0
C2328 C 0.33721 0.24348 0.68299 0.0
C2329 C 0.30721 0.24864 0.61413 0.0
C2330 C 0.30696 0.26581 0.64532 0.0
C2331 C 0.32168 0.28075 0.71119 0.0
C2332 C 0.33645 0.2785 0.74616 0.0
C2333 C 0.32194 0.26348 0.67977 0.0
C2334 C 0.35216 0.25897 0.74848 0.0
C2335 C 0.3525 0.2416 0.71725 0.0
H2336 H 0.94734 0.06443 0.96411 0.0
H2337 H 0.99441 0.1075 0.03808 0.0
H2338 H 0.0232 0.1088 0.98106 0.0
H2339 H 0.03632 0.09486 0.91161 0.0
H2340 H 0.98849 0.05256 0.83806 0.0
H2341 H 0.95869 0.05359 0.89344 0.0
C2342 C 0.96375 0.07441 0.96757 0.0
C2343 C 0.96876 0.08579 1.00534 0.0
C2344 C 0.98021 0.07492 0.93486 0.0
C2345 C 0.99002 0.09877 1.00922 0.0
C2346 C 0.0066 0.09931 0.97675 0.0
C2347 C 0.01926 0.08607 0.90787 0.0
C2348 C 0.01448 0.07348 0.87125 0.0
C2349 C 0.00211 0.08701 0.93973 0.0
C2350 C 0.99241 0.06224 0.86622 0.0
C2351 C 0.97543 0.06286 0.8978 0.0
H2352 H 0.14702 0.7862 0.15793 0.0
H2353 H 0.1912 0.73823 0.08718 0.0
H2354 H 0.18875 0.70841 0.14197 0.0
H2355 H 0.17403 0.69585 0.20928 0.0
H2356 H 0.12893 0.74255 0.2809 0.0
H2357 H 0.13099 0.77267 0.22601 0.0
C2358 C 0.15631 0.76931 0.15503 0.0
C2359 C 0.16965 0.76445 0.11911 0.0
C2360 C 0.15421 0.75188 0.18628 0.0
C2361 C 0.18111 0.74235 0.11489 0.0
C2362 C 0.17957 0.72527 0.14602 0.0
C2363 C 0.16452 0.71256 0.21292 0.0
C2364 C 0.15141 0.71694 0.24924 0.0
C2365 C 0.16608 0.72978 0.18167 0.0
C2366 C 0.13897 0.7386 0.2531 0.0
C2367 C 0.14038 0.75594 0.22191 0.0
H2368 H 0.52336 0.14983 0.36667 0.0
H2369 H 0.48985 0.08117 0.35319 0.0
H2370 H 0.47852 0.08174 0.42609 0.0
H2371 H 0.47751 0.10198 0.49356 0.0
H2372 H 0.50993 0.17121 0.50633 0.0
H2373 H 0.5222 0.17013 0.43392 0.0
C2374 C 0.51339 0.13506 0.37952 0.0
C2375 C 0.50745 0.11551 0.35422 0.0
C2376 C 0.50671 0.13558 0.42145 0.0
C2377 C 0.49494 0.09634 0.37185 0.0
C2378 C 0.4883 0.09671 0.41355 0.0
C2379 C 0.48708 0.11695 0.48045 0.0
C2380 C 0.49273 0.13667 0.50554 0.0
C2381 C 0.49397 0.11629 0.43861 0.0
C2382 C 0.50555 0.15567 0.48804 0.0
C2383 C 0.51247 0.15513 0.4465 0.0
H2384 H 0.11227 0.25532 0.61698 0.0
H2385 H 0.18141 0.22377 0.59588 0.0
H2386 H 0.18357 0.2119 0.66855 0.0
H2387 H 0.16518 0.20937 0.73777 0.0
H2388 H 0.09629 0.24181 0.75837 0.0
H2389 H 0.09447 0.25377 0.68613 0.0
C2390 C 0.12777 0.24571 0.62818 0.0
C2391 C 0.14658 0.24036 0.60084 0.0
C2392 C 0.12885 0.23885 0.66993 0.0
C2393 C 0.16673 0.22832 0.61621 0.0
C2394 C 0.16792 0.22138 0.65775 0.0
C2395 C 0.14986 0.21925 0.72661 0.0
C2396 C 0.1308 0.2244 0.75371 0.0
C2397 C 0.14902 0.22644 0.68489 0.0
C2398 C 0.11101 0.23705 0.73829 0.0
C2399 C 0.11001 0.24412 0.69694 0.0
H2400 H 0.00113 0.83817 0.99855 0.0
H2401 H 0.03394 0.90754 0.99615 0.0
H2402 H 0.02653 0.91046 0.92187 0.0
H2403 H 0.01012 0.89353 0.85738 0.0
H2404 H 0.97699 0.82429 0.86057 0.0
H2405 H 0.98503 0.82122 0.93445 0.0
C2406 C 0.00655 0.85401 0.98188 0.0
C2407 C 0.01805 0.87261 1.00315 0.0
C2408 C 0.00215 0.85562 0.93912 0.0
C2409 C 0.0253 0.89281 0.98068 0.0
C2410 C 0.02092 0.89457 0.93816 0.0
C2411 C 0.00455 0.87782 0.87429 0.0
C2412 C 0.99301 0.85914 0.85321 0.0
C2413 C 0.00925 0.87613 0.91703 0.0
C2414 C 0.98619 0.83881 0.87569 0.0
C2415 C 0.99067 0.83708 0.91809 0.0
H2416 H 0.36867 0.73991 0.24259 0.0
H2417 H 0.32371 0.80225 0.23642 0.0
H2418 H 0.31787 0.7959 0.16243 0.0
H2419 H 0.32571 0.77267 0.09899 0.0
H2420 H 0.37103 0.71056 0.10548 0.0
H2421 H 0.37644 0.71676 0.17948 0.0
C2422 C 0.35777 0.75225 0.22501 0.0
C2423 C 0.34673 0.77158 0.24522 0.0
C2424 C 0.35445 0.74847 0.18237 0.0
C2425 C 0.33229 0.7871 0.22192 0.0
C2426 C 0.32901 0.78354 0.17947 0.0
C2427 C 0.33688 0.76057 0.11654 0.0
C2428 C 0.34787 0.74112 0.09647 0.0
C2429 C 0.34002 0.76428 0.1593 0.0
C2430 C 0.36204 0.72547 0.12001 0.0
C2431 C 0.3653 0.72909 0.16238 0.0
H2432 H 0.45689 0.08235 0.90405 0.0
H2433 H 0.5112 0.11534 0.82931 0.0
H2434 H 0.53945 0.11264 0.887 0.0
H2435 H 0.54932 0.09823 0.95778 0.0
H2436 H 0.49375 0.06731 0.03247 0.0
H2437 H 0.46548 0.0714 0.97555 0.0
C2438 C 0.4748 0.08932 0.9006 0.0
C2439 C 0.48196 0.09902 0.86253 0.0
C2440 C 0.49085 0.0876 0.93366 0.0
C2441 C 0.50518 0.10806 0.85851 0.0
C2442 C 0.52142 0.10623 0.89131 0.0
C2443 C 0.53102 0.09239 0.96131 0.0
C2444 C 0.52358 0.08219 0.99886 0.0
C2445 C 0.5146 0.09553 0.92877 0.0
C2446 C 0.49979 0.07509 1.00366 0.0
C2447 C 0.48363 0.07749 0.97122 0.0
H2448 H 0.68275 0.73057 0.60822 0.0
H2449 H 0.61464 0.70121 0.64188 0.0
H2450 H 0.61443 0.72528 0.70551 0.0
H2451 H 0.63511 0.75304 0.75341 0.0
H2452 H 0.70201 0.78411 0.71612 0.0
H2453 H 0.70125 0.76111 0.65203 0.0
C2454 C 0.66769 0.72975 0.62927 0.0
C2455 C 0.64873 0.7142 0.62061 0.0
C2456 C 0.66766 0.74376 0.66527 0.0
C2457 C 0.6293 0.71324 0.64785 0.0
C2458 C 0.62931 0.72685 0.68431 0.0
C2459 C 0.64949 0.75475 0.73117 0.0
C2460 C 0.66882 0.76996 0.73986 0.0
C2461 C 0.64862 0.74186 0.69372 0.0
C2462 C 0.68704 0.77243 0.71036 0.0
C2463 C 0.68662 0.75927 0.67368 0.0
H2464 H 0.04928 0.90691 0.41613 0.0
H2465 H 0.99566 0.87933 0.33385 0.0
H2466 H 0.96666 0.87888 0.39048 0.0
H2467 H 0.95575 0.8893 0.46258 0.0
H2468 H 0.0103 0.91366 0.54598 0.0
H2469 H 0.03973 0.9125 0.48997 0.0
C2470 C 0.03136 0.90039 0.41085 0.0
C2471 C 0.02461 0.89319 0.37087 0.0
C2472 C 0.01489 0.89991 0.44369 0.0
C2473 C 0.00137 0.88472 0.36443 0.0
C2474 C 0.98471 0.88469 0.39672 0.0
C2475 C 0.97415 0.89414 0.46838 0.0
C2476 C 0.98091 0.9018 0.50805 0.0
C2477 C 0.99112 0.89272 0.43629 0.0
C2478 C 0.00479 0.90773 0.51559 0.0
C2479 C 0.02158 0.9071 0.48359 0.0
H2480 H 0.82103 0.30158 0.15436 0.0
H2481 H 0.85314 0.25017 0.07227 0.0
H2482 H 0.85253 0.22025 0.12747 0.0
H2483 H 0.84023 0.20796 0.19831 0.0
H2484 H 0.81032 0.26043 0.28073 0.0
H2485 H 0.81234 0.29059 0.22619 0.0
C2486 C 0.82832 0.28395 0.14876 0.0
C2487 C 0.83717 0.27815 0.10926 0.0
C2488 C 0.82784 0.26689 0.18055 0.0
C2489 C 0.84654 0.25522 0.10252 0.0
C2490 C 0.84591 0.23801 0.13395 0.0
C2491 C 0.83418 0.22602 0.20407 0.0
C2492 C 0.82477 0.23202 0.24307 0.0
C2493 C 0.83611 0.24349 0.17286 0.0
C2494 C 0.81741 0.25549 0.25073 0.0
C2495 C 0.81864 0.27271 0.21965 0.0
H2496 H 0.53487 0.84607 0.88841 0.0
H2497 H 0.47407 0.88811 0.85127 0.0
H2498 H 0.46161 0.89186 0.92331 0.0
H2499 H 0.46765 0.88291 0.99704 0.0
H2500 H 0.52856 0.84101 0.03423 0.0
H2501 H 0.54092 0.83713 0.96218 0.0
C2502 C 0.51875 0.85585 0.896 0.0
C2503 C 0.50549 0.86681 0.86425 0.0
C2504 C 0.51161 0.85791 0.93763 0.0
C2505 C 0.48484 0.87973 0.87494 0.0
C2506 C 0.47761 0.8818 0.9162 0.0
C2507 C 0.48375 0.87311 0.98948 0.0
C2508 C 0.49707 0.86222 1.02126 0.0
C2509 C 0.49088 0.87102 0.94785 0.0
C2510 C 0.51772 0.8493 1.01056 0.0
C2511 C 0.5249 0.84717 0.96929 0.0
H2512 H 0.82456 0.76818 0.63228 0.0
H2513 H 0.89637 0.74165 0.61811 0.0
H2514 H 0.89754 0.73103 0.69114 0.0
H2515 H 0.87818 0.72869 0.75888 0.0
H2516 H 0.80669 0.75582 0.77428 0.0
H2517 H 0.80534 0.76653 0.70105 0.0
C2518 C 0.84054 0.76029 0.64528 0.0
C2519 C 0.86031 0.75563 0.61954 0.0
C2520 C 0.84111 0.75415 0.68753 0.0
C2521 C 0.88077 0.74513 0.63692 0.0
C2522 C 0.8815 0.73913 0.6788 0.0
C2523 C 0.86237 0.73719 0.74642 0.0
C2524 C 0.8426 0.74146 0.7723 0.0
C2525 C 0.86177 0.74346 0.70436 0.0
C2526 C 0.8221 0.75204 0.75515 0.0
C2527 C 0.82136 0.75833 0.71326 0.0
H2528 H 0.0198 0.08549 0.5049 0.0
H2529 H 0.96322 0.13413 0.53824 0.0
H2530 H 0.95043 0.136 0.46633 0.0
H2531 H 0.95569 0.12461 0.39336 0.0
H2532 H 0.01304 0.07705 0.35964 0.0
H2533 H 0.02508 0.07412 0.43195 0.0
C2534 C 0.00479 0.09668 0.49648 0.0
C2535 C 0.99256 0.10964 0.52733 0.0
C2536 C -0.00239 0.09791 0.45478 0.0
C2537 C 0.97285 0.12367 0.51557 0.0
C2538 C 0.96559 0.1249 0.47426 0.0
C2539 C 0.97092 0.11371 0.40176 0.0
C2540 C 0.98339 0.10108 0.37085 0.0
C2541 C 0.97789 0.11221 0.44353 0.0
C2542 C 0.00286 0.08674 0.38263 0.0
C2543 C 0.00988 0.08516 0.42405 0.0
H2544 H 0.60826 0.21386 0.12658 0.0
H2545 H 0.67572 0.24819 0.10363 0.0
H2546 H 0.67891 0.25847 0.17671 0.0
H2547 H 0.66237 0.25824 0.2474 0.0
H2548 H 0.59417 0.22518 0.26954 0.0
H2549 H 0.59155 0.21403 0.19688 0.0
C2550 C 0.62359 0.22377 0.13738 0.0
C2551 C 0.6417 0.23017 0.10923 0.0
C2552 C 0.62524 0.22988 0.17957 0.0
C2553 C 0.66162 0.24265 0.12436 0.0
C2554 C 0.6634 0.24873 0.16625 0.0
C2555 C 0.64682 0.24877 0.23636 0.0
C2556 C 0.62855 0.24254 0.26436 0.0
C2557 C 0.64528 0.24252 0.19417 0.0
C2558 C 0.60874 0.22993 0.24919 0.0
C2559 C 0.60712 0.22365 0.20742 0.0
H2560 H 0.06698 0.56643 0.75685 0.0
H2561 H 0.12831 0.53362 0.69957 0.0
H2562 H 0.13793 0.51379 0.76518 0.0
H2563 H 0.12714 0.50385 0.83795 0.0
H2564 H 0.06487 0.53673 0.89238 0.0
H2565 H 0.05723 0.55813 0.82835 0.0
C2566 C 0.0827 0.55524 0.75848 0.0
C2567 C 0.09693 0.55169 0.72297 0.0
C2568 C 0.08771 0.54353 0.79578 0.0
C2569 C 0.11711 0.53691 0.72626 0.0
C2570 C 0.12249 0.5254 0.76377 0.0
C2571 C 0.11201 0.51585 0.83589 0.0
C2572 C 0.09644 0.51836 0.87007 0.0
C2573 C 0.10765 0.52826 0.79861 0.0
C2574 C 0.07687 0.53394 0.86656 0.0
C2575 C 0.07258 0.54639 0.82998 0.0
H2576 H 0.6834 0.80811 1.00231 0.0
H2577 H 0.70916 0.875 0.95447 0.0
H2578 H 0.72799 0.88342 1.02143 0.0
H2579 H 0.7387 0.87057 0.09283 0.0
H2580 H 0.71223 0.80327 0.13813 0.0
H2581 H 0.6923 0.79623 0.07257 0.0
C2582 C 0.69277 0.82478 1.00632 0.0
C2583 C 0.69461 0.84096 0.97308 0.0
C2584 C 0.70377 0.82927 0.04446 0.0
C2585 C 0.70723 0.86226 0.97937 0.0
C2586 C 0.71813 0.86701 1.01766 0.0
C2587 C 0.72841 0.85446 0.08848 0.0
C2588 C 0.72732 0.83734 0.12055 0.0
C2589 C 0.71677 0.85047 0.05034 0.0
C2590 C 0.71396 0.81652 0.114 0.0
C2591 C 0.70233 0.81254 0.07652 0.0
H2592 H 0.36781 0.49528 0.33305 0.0
H2593 H 0.43135 0.46223 0.38209 0.0
H2594 H 0.43823 0.44221 0.31642 0.0
H2595 H 0.42732 0.43494 0.24494 0.0
H2596 H 0.36438 0.46765 0.1933 0.0
H2597 H 0.35618 0.48688 0.26006 0.0
C2598 C 0.38321 0.48378 0.32928 0.0
C2599 C 0.39897 0.48027 0.36287 0.0
C2600 C 0.38716 0.47219 0.29099 0.0
C2601 C 0.4187 0.46507 0.3573 0.0
C2602 C 0.42274 0.45366 0.31957 0.0
C2603 C 0.41158 0.44601 0.24806 0.0
C2604 C 0.39644 0.44965 0.21379 0.0
C2605 C 0.40715 0.45712 0.28625 0.0
C2606 C 0.37629 0.46432 0.21898 0.0
C2607 C 0.37168 0.47545 0.25718 0.0
H2608 H 0.82133 0.16505 0.49501 0.0
H2609 H 0.77222 0.12092 0.4273 0.0
H2610 H 0.75016 0.11291 0.49153 0.0
H2611 H 0.74267 0.12194 0.56619 0.0
H2612 H 0.79152 0.16813 0.63074 0.0
H2613 H 0.81535 0.17231 0.56832 0.0
C2614 C 0.80599 0.15337 0.49414 0.0
C2615 C 0.79852 0.14363 0.45608 0.0
C2616 C 0.79294 0.1497 0.53067 0.0
C2617 C 0.77863 0.12844 0.45602 0.0
C2618 C 0.76581 0.12414 0.49276 0.0
C2619 C 0.75864 0.13275 0.56666 0.0
C2620 C 0.76498 0.14501 0.6033 0.0
C2621 C 0.77242 0.13522 0.53015 0.0
C2622 C 0.78578 0.15895 0.60305 0.0
C2623 C 0.7996 0.16119 0.56736 0.0
H2624 H 0.93432 0.43001 0.62431 0.0
H2625 H 0.8694 0.45867 0.67599 0.0
H2626 H 0.86007 0.47725 0.60904 0.0
H2627 H 0.87159 0.48672 0.53611 0.0
H2628 H 0.9376 0.45819 0.48793 0.0
H2629 H 0.94517 0.43826 0.55328 0.0
C2630 C 0.91791 0.44004 0.6212 0.0
C2631 C 0.90256 0.44275 0.65554 0.0
C2632 C 0.91295 0.45093 0.58307 0.0
C2633 C 0.88149 0.45602 0.65026 0.0
C2634 C 0.87626 0.46683 0.61197 0.0
C2635 C 0.88766 0.4762 0.53998 0.0
C2636 C 0.90391 0.47394 0.50662 0.0
C2637 C 0.89207 0.4647 0.57823 0.0
C2638 C 0.92453 0.46002 0.5124 0.0
C2639 C 0.92898 0.44866 0.54999 0.0
H2640 H 0.25481 0.11958 0.28038 0.0
H2641 H 0.29849 0.1736 0.22336 0.0
H2642 H 0.3196 0.17959 0.28815 0.0
H2643 H 0.32458 0.17121 0.36131 0.0
H2644 H 0.281 0.11829 0.42108 0.0
H2645 H 0.26133 0.1098 0.35488 0.0
C2646 C 0.26893 0.13267 0.28222 0.0
C2647 C 0.27502 0.14608 0.24673 0.0
C2648 C 0.28118 0.13609 0.31999 0.0
C2649 C 0.29356 0.1628 0.24974 0.0
C2650 C 0.30564 0.16631 0.28692 0.0
C2651 C 0.31102 0.15755 0.36001 0.0
C2652 C 0.30437 0.14542 0.39639 0.0
C2653 C 0.29952 0.15319 0.32222 0.0
C2654 C 0.28673 0.12776 0.39366 0.0
C2655 C 0.27528 0.1231 0.35582 0.0
H2656 H 0.61702 0.5044 0.02788 0.0
H2657 H 0.55482 0.5383 0.97546 0.0
H2658 H 0.54763 0.55915 0.04022 0.0
H2659 H 0.558 0.56738 0.11152 0.0
H2660 H 0.61912 0.53335 0.16706 0.0
H2661 H 0.6278 0.51325 0.10122 0.0
C2662 C 0.60185 0.51628 0.03067 0.0
C2663 C 0.58661 0.5198 0.99632 0.0
C2664 C 0.59767 0.52838 0.06847 0.0
C2665 C 0.56714 0.53546 1.00075 0.0
C2666 C 0.56291 0.54738 0.03794 0.0
C2667 C 0.57341 0.55575 0.1095 0.0
C2668 C 0.58791 0.55204 0.14458 0.0
C2669 C 0.57802 0.54401 0.07192 0.0
C2670 C 0.6077 0.53675 0.14074 0.0
C2671 C 0.61258 0.52511 0.10306 0.0
H2672 H 0.20107 0.80583 0.87852 0.0
H2673 H 0.19477 0.8806 0.90735 0.0
H2674 H 0.21191 0.89049 0.83927 0.0
H2675 H 0.22753 0.87734 0.77041 0.0
H2676 H 0.23414 0.80194 0.74576 0.0
H2677 H 0.21755 0.79296 0.81328 0.0
C2678 C 0.20315 0.82441 0.87009 0.0
C2679 C 0.19616 0.84248 0.89792 0.0
C2680 C 0.21297 0.82982 0.8314 0.0
C2681 C 0.19981 0.86634 0.88653 0.0
C2682 C 0.20957 0.87195 0.84755 0.0
C2683 C 0.22551 0.85896 0.77993 0.0
C2684 C 0.23178 0.84036 0.75229 0.0
C2685 C 0.21609 0.85378 0.81954 0.0
C2686 C 0.22894 0.81666 0.76548 0.0
C2687 C 0.21961 0.81146 0.80437 0.0
H2688 H 0.62357 0.00116 0.3458 0.0
H2689 H 0.54842 0.01132 0.36963 0.0
H2690 H 0.54359 0.02984 0.30237 0.0
H2691 H 0.56001 0.04376 0.23761 0.0
H2692 H 0.63448 0.03377 0.20941 0.0
H2693 H 0.6401 0.01419 0.27703 0.0
C2694 C 0.6061 0.00727 0.3362 0.0
C2695 C 0.58647 0.00511 0.36378 0.0
C2696 C 0.60329 0.01798 0.29662 0.0
C2697 C 0.56403 0.0132 0.3502 0.0
C2698 C 0.56117 0.0237 0.31137 0.0
C2699 C 0.57768 0.03765 0.24609 0.0
C2700 C 0.59692 0.04086 0.21837 0.0
C2701 C 0.58064 0.02643 0.28461 0.0
C2702 C 0.61935 0.03183 0.22994 0.0
C2703 C 0.62253 0.02064 0.26874 0.0
H2704 H 0.17752 0.3171 0.4991 0.0
H2705 H 0.21715 0.37366 0.44079 0.0
H2706 H 0.2368 0.38229 0.50702 0.0
H2707 H 0.24466 0.37164 0.58086 0.0
H2708 H 0.2057 0.31337 0.63556 0.0
H2709 H 0.18437 0.30722 0.57102 0.0
C2710 C 0.19031 0.33151 0.50055 0.0
C2711 C 0.19576 0.34469 0.46457 0.0
C2712 C 0.20206 0.33576 0.53814 0.0
C2713 C 0.21236 0.36332 0.46779 0.0
C2714 C 0.22379 0.36809 0.50567 0.0
C2715 C 0.2314 0.3577 0.57869 0.0
C2716 C 0.22707 0.34281 0.61322 0.0
C2717 C 0.21911 0.3541 0.54095 0.0
C2718 C 0.20984 0.32479 0.60955 0.0
C2719 C 0.19744 0.32137 0.57265 0.0
H2720 H 0.87899 0.99441 0.83603 0.0
H2721 H 0.92227 0.94199 0.89873 0.0
H2722 H 0.9262 0.91936 0.83499 0.0
H2723 H 0.91875 0.91469 0.76146 0.0
H2724 H 0.87704 0.96702 0.69572 0.0
H2725 H 0.87073 0.98903 0.76054 0.0
C2726 C 0.88934 0.97808 0.83569 0.0
C2727 C 0.90017 0.96995 0.87266 0.0
C2728 C 0.89163 0.96494 0.79838 0.0
C2729 C 0.91337 0.9486 0.87133 0.0
C2730 C 0.91572 0.93561 0.83471 0.0
C2731 C 0.90802 0.93079 0.76103 0.0
C2732 C 0.89837 0.93905 0.72333 0.0
C2733 C 0.90499 0.94359 0.7981 0.0
C2734 C 0.88453 0.96 0.72406 0.0
C2735 C 0.88112 0.97274 0.76118 0.0
H2736 H 0.24263 0.61648 0.08238 0.0
H2737 H 0.26883 0.68346 0.12953 0.0
H2738 H 0.28864 0.69123 0.06406 0.0
H2739 H 0.29772 0.68001 0.99333 0.0
H2740 H 0.27243 0.61336 0.94384 0.0
H2741 H 0.2535 0.60432 1.01056 0.0
C2742 C 0.25283 0.63269 0.07849 0.0
C2743 C 0.25383 0.64949 0.11115 0.0
C2744 C 0.26447 0.63709 0.04036 0.0
C2745 C 0.26711 0.67043 0.10504 0.0
C2746 C 0.27868 0.67483 0.06757 0.0
C2747 C 0.28838 0.66328 0.99691 0.0
C2748 C 0.28673 0.64735 0.96322 0.0
C2749 C 0.27735 0.6584 0.035 0.0
C2750 C 0.27422 0.62593 0.96903 0.0
C2751 C 0.26326 0.62083 1.00721 0.0
H2752 H 0.42782 0.92871 0.11038 0.0
H2753 H 0.39153 0.98515 0.17579 0.0
H2754 H 0.38791 0.00763 0.11087 0.0
H2755 H 0.39698 0.01206 0.03544 0.0
H2756 H 0.4343 0.95513 0.97277 0.0
H2757 H 0.436 0.93252 0.03677 0.0
C2758 C 0.41888 0.94585 0.11078 0.0
C2759 C 0.40987 0.95503 0.14848 0.0
C2760 C 0.41741 0.95889 0.07361 0.0
C2761 C 0.39846 0.97738 0.14756 0.0
C2762 C 0.39656 0.99036 0.11033 0.0
C2763 C 0.40536 0.99465 0.03566 0.0
C2764 C 0.41577 0.98563 0.99878 0.0
C2765 C 0.40626 0.98144 0.07313 0.0
C2766 C 0.42662 0.96299 1.00031 0.0
C2767 C 0.42741 0.94984 0.03703 0.0
H2768 H 0.80428 0.66674 0.87073 0.0
H2769 H 0.76528 0.60992 0.9295 0.0
H2770 H 0.74466 0.60178 0.86405 0.0
H2771 H 0.73573 0.61292 0.79104 0.0
H2772 H 0.77461 0.67084 0.73502 0.0
H2773 H 0.79674 0.67674 0.79882 0.0
C2774 C 0.79141 0.65239 0.86946 0.0
C2775 C 0.78638 0.63901 0.90537 0.0
C2776 C 0.77921 0.64831 0.83222 0.0
C2777 C 0.76972 0.62042 0.9025 0.0
C2778 C 0.75774 0.61592 0.86509 0.0
C2779 C 0.74918 0.6267 0.79267 0.0
C2780 C 0.75317 0.64161 0.75805 0.0
C2781 C 0.76202 0.63007 0.82987 0.0
C2782 C 0.77065 0.65944 0.76112 0.0
C2783 C 0.78352 0.66271 0.79761 0.0
H2784 H 0.12635 0.99312 0.53629 0.0
H2785 H 0.05526 0.01245 0.49716 0.0
H2786 H 0.04825 0.03227 0.56264 0.0
H2787 H 0.06158 0.04457 0.62982 0.0
H2788 H 0.13145 0.02513 0.67431 0.0
H2789 H 0.13954 0.00479 0.60803 0.0
C2790 C 0.10929 0.00155 0.54222 0.0
C2791 C 0.09153 0.00158 0.51094 0.0
C2792 C 0.10516 0.013 0.58081 0.0
C2793 C 0.06954 0.01259 0.51965 0.0
C2794 C 0.06541 0.02387 0.55738 0.0
C2795 C 0.07883 0.03617 0.62544 0.0
C2796 C 0.09607 0.03691 0.65728 0.0
C2797 C 0.0831 0.02439 0.5879 0.0
C2798 C 0.1179 0.02516 0.65051 0.0
C2799 C 0.12247 0.01348 0.61253 0.0
H2800 H 0.66629 0.33294 0.35637 0.0
H2801 H 0.71691 0.37638 0.42208 0.0
H2802 H 0.73867 0.38346 0.35733 0.0
H2803 H 0.7456 0.37361 0.28302 0.0
H2804 H 0.69538 0.32811 0.22018 0.0
H2805 H 0.67174 0.32496 0.28303 0.0
C2806 C 0.6819 0.34427 0.35665 0.0
C2807 C 0.68989 0.35405 0.39434 0.0
C2808 C 0.69483 0.34736 0.3198 0.0
C2809 C 0.71009 0.36883 0.39366 0.0
C2810 C 0.72276 0.37259 0.35664 0.0
C2811 C 0.72936 0.36319 0.28298 0.0
C2812 C 0.72259 0.35081 0.24673 0.0
C2813 C 0.71569 0.36136 0.31967 0.0
C2814 C 0.70146 0.33737 0.24757 0.0
C2815 C 0.68774 0.33574 0.2835 0.0
loop_
_geom_bond_atom_site_label_1
_geom_bond_atom_site_label_2
_geom_bond_distance
_geom_bond_site_symmetry_2
_ccdc_geom_bond_type
Nd0 C2 2.836 . S
Nd0 O20 2.500 . S
Nd0 O21 2.492 . S
Nd0 O22 2.487 . S
Nd0 O23 2.682 . S
Nd0 O24 2.410 . S
Nd0 O29 2.414 . S
Nd0 O31 2.424 . S
Nd1 C11 2.836 . S
Nd1 O23 2.414 . S
Nd1 O25 2.424 . S
Nd1 O26 2.500 . S
Nd1 O27 2.492 . S
Nd1 O28 2.487 . S
Nd1 O29 2.682 . S
Nd1 O30 2.410 . S
C2 Nd0 2.836 . S
C2 C3 1.498 1_554 S
C2 O20 1.258 . S
C2 O21 1.239 . S
C3 C2 1.498 1_556 S
C3 C4 1.366 . S
C3 C8 1.407 . S
C4 C3 1.366 . S
C4 C5 1.392 . S
C4 H32 0.930 . S
C5 C4 1.392 . S
C5 C6 1.398 . S
C5 H33 0.929 . S
C6 C5 1.398 . S
C6 C7 1.352 . S
C7 C6 1.352 . S
C7 C8 1.384 . S
C7 H34 0.930 . S
C8 C3 1.407 . S
C8 C7 1.384 . S
C8 H35 0.929 . S
C9 O22 1.241 . S
C9 O23 1.273 . S
C10 O24 1.251 . S
C10 O25 1.268 . S
C11 Nd1 2.836 . S
C11 C12 1.498 . S
C11 O26 1.258 . S
C11 O27 1.239 . S
C12 C11 1.498 . S
C12 C13 1.366 . S
C12 C17 1.407 1_455 S
C13 C12 1.366 . S
C13 C14 1.392 . S
C13 H36 0.930 . S
C14 C13 1.392 . S
C14 C15 1.398 . S
C14 H37 0.929 . S
C15 C14 1.398 . S
C15 C16 1.352 1_455 S
C16 C15 1.352 1_655 S
C16 C17 1.384 . S
C16 H38 0.930 . S
C17 C12 1.407 1_655 S
C17 C16 1.384 . S
C17 H39 0.929 . S
C18 O28 1.241 . S
C18 O29 1.273 . S
C19 O30 1.251 . S
C19 O31 1.268 . S
O20 Nd0 2.500 . S
O20 C2 1.258 . S
O21 Nd0 2.492 . S
O21 C2 1.239 . S
O22 Nd0 2.487 . S
O22 C9 1.241 . S
O23 Nd0 2.682 . S
O23 Nd1 2.414 . S
O23 C9 1.273 . S
O24 Nd0 2.410 . S
O24 C10 1.251 . S
O25 Nd1 2.424 . S
O25 C10 1.268 . S
O26 Nd1 2.500 . S
O26 C11 1.258 . S
O27 Nd1 2.492 . S
O27 C11 1.239 . S
O28 Nd1 2.487 . S
O28 C18 1.241 . S
O29 Nd0 2.414 . S
O29 Nd1 2.682 . S
O29 C18 1.273 . S
O30 Nd1 2.410 . S
O30 C19 1.251 . S
O31 Nd0 2.424 . S
O31 C19 1.268 . S
H32 C4 0.930 . S
H33 C5 0.929 . S
H34 C7 0.930 . S
H35 C8 0.929 . S
H36 C13 0.930 . S
H37 C14 0.929 . S
H38 C16 0.930 . S
H39 C17 0.929 . S
Nd40 C42 2.836 . S
Nd40 O60 2.500 . S
Nd40 O61 2.492 . S
Nd40 O62 2.487 . S
Nd40 O63 2.682 . S
Nd40 O64 2.410 . S
Nd40 O69 2.414 . S
Nd40 O71 2.424 . S
Nd41 C51 2.836 . S
Nd41 O63 2.414 . S
Nd41 O65 2.424 . S
Nd41 O66 2.500 . S
Nd41 O67 2.492 . S
Nd41 O68 2.487 . S
Nd41 O69 2.682 . S
Nd41 O70 2.410 . S
C42 Nd40 2.836 . S
C42 C43 1.498 . S
C42 O60 1.258 . S
C42 O61 1.239 . S
C43 C42 1.498 . S
C43 C44 1.366 . S
C43 C48 1.407 . S
C44 C43 1.366 . S
C44 C45 1.392 . S
C44 H72 0.930 . S
C45 C44 1.392 . S
C45 C46 1.398 . S
C45 H73 0.929 . S
C46 C45 1.398 . S
C46 C47 1.352 . S
C47 C46 1.352 . S
C47 C48 1.384 . S
C47 H74 0.930 . S
C48 C43 1.407 . S
C48 C47 1.384 . S
C48 H75 0.929 . S
C49 O62 1.241 . S
C49 O63 1.273 . S
C50 O64 1.251 . S
C50 O65 1.268 . S
C51 Nd41 2.836 . S
C51 C52 1.498 . S
C51 O66 1.258 . S
C51 O67 1.239 . S
C52 C51 1.498 . S
C52 C53 1.366 . S
C52 C57 1.407 . S
C53 C52 1.366 . S
C53 C54 1.392 . S
C53 H76 0.930 . S
C54 C53 1.392 . S
C54 C55 1.398 . S
C54 H77 0.929 . S
C55 C54 1.398 . S
C55 C56 1.352 . S
C56 C55 1.352 . S
C56 C57 1.384 . S
C56 H78 0.930 . S
C57 C52 1.407 . S
C57 C56 1.384 . S
C57 H79 0.929 . S
C58 O68 1.241 . S
C58 O69 1.273 . S
C59 O70 1.251 . S
C59 O71 1.268 . S
O60 Nd40 2.500 . S
O60 C42 1.258 . S
O61 Nd40 2.492 . S
O61 C42 1.239 . S
O62 Nd40 2.487 . S
O62 C49 1.241 . S
O63 Nd40 2.682 . S
O63 Nd41 2.414 . S
O63 C49 1.273 . S
O64 Nd40 2.410 . S
O64 C50 1.251 . S
O65 Nd41 2.424 . S
O65 C50 1.268 . S
O66 Nd41 2.500 . S
O66 C51 1.258 . S
O67 Nd41 2.492 . S
O67 C51 1.239 . S
O68 Nd41 2.487 . S
O68 C58 1.241 . S
O69 Nd40 2.414 . S
O69 Nd41 2.682 . S
O69 C58 1.273 . S
O70 Nd41 2.410 . S
O70 C59 1.251 . S
O71 Nd40 2.424 . S
O71 C59 1.268 . S
H72 C44 0.930 . S
H73 C45 0.929 . S
H74 C47 0.930 . S
H75 C48 0.929 . S
H76 C53 0.930 . S
H77 C54 0.929 . S
H78 C56 0.930 . S
H79 C57 0.929 . S
Nd80 C82 2.836 . S
Nd80 O100 2.500 . S
Nd80 O101 2.492 . S
Nd80 O102 2.487 . S
Nd80 O103 2.682 . S
Nd80 O104 2.410 . S
Nd80 O109 2.414 . S
Nd80 O111 2.424 . S
Nd81 C91 2.836 . S
Nd81 O103 2.414 . S
Nd81 O105 2.424 . S
Nd81 O106 2.500 . S
Nd81 O107 2.492 . S
Nd81 O108 2.487 . S
Nd81 O109 2.682 . S
Nd81 O110 2.410 . S
C82 Nd80 2.836 . S
C82 C83 1.498 . S
C82 O100 1.258 . S
C82 O101 1.239 . S
C83 C82 1.498 . S
C83 C84 1.366 . S
C83 C88 1.407 . S
C84 C83 1.366 . S
C84 C85 1.392 . S
C84 H112 0.930 . S
C85 C84 1.392 . S
C85 C86 1.398 . S
C85 H113 0.929 . S
C86 C85 1.398 . S
C86 C87 1.352 . S
C87 C86 1.352 . S
C87 C88 1.384 . S
C87 H114 0.930 . S
C88 C83 1.407 . S
C88 C87 1.384 . S
C88 H115 0.929 . S
C89 O102 1.241 . S
C89 O103 1.273 . S
C90 O104 1.251 . S
C90 O105 1.268 . S
C91 Nd81 2.836 . S
C91 C92 1.498 . S
C91 O106 1.258 . S
C91 O107 1.239 . S
C92 C91 1.498 . S
C92 C93 1.366 . S
C92 C97 1.407 . S
C93 C92 1.366 . S
C93 C94 1.392 . S
C93 H116 0.930 . S
C94 C93 1.392 . S
C94 C95 1.398 . S
C94 H117 0.929 . S
C95 C94 1.398 . S
C95 C96 1.352 . S
C96 C95 1.352 . S
C96 C97 1.384 . S
C96 H118 0.930 . S
C97 C92 1.407 . S
C97 C96 1.384 . S
C97 H119 0.929 . S
C98 O108 1.241 . S
C98 O109 1.273 . S
C99 O110 1.251 . S
C99 O111 1.268 . S
O100 Nd80 2.500 . S
O100 C82 1.258 . S
O101 Nd80 2.492 . S
O101 C82 1.239 . S
O102 Nd80 2.487 . S
O102 C89 1.241 . S
O103 Nd80 2.682 . S
O103 Nd81 2.414 . S
O103 C89 1.273 . S
O104 Nd80 2.410 . S
O104 C90 1.251 . S
O105 Nd81 2.424 . S
O105 C90 1.268 . S
O106 Nd81 2.500 . S
O106 C91 1.258 . S
O107 Nd81 2.492 . S
O107 C91 1.239 . S
O108 Nd81 2.487 . S
O108 C98 1.241 . S
O109 Nd80 2.414 . S
O109 Nd81 2.682 . S
O109 C98 1.273 . S
O110 Nd81 2.410 . S
O110 C99 1.251 . S
O111 Nd80 2.424 . S
O111 C99 1.268 . S
H112 C84 0.930 . S
H113 C85 0.929 . S
H114 C87 0.930 . S
H115 C88 0.929 . S
H116 C93 0.930 . S
H117 C94 0.929 . S
H118 C96 0.930 . S
H119 C97 0.929 . S
Nd120 C122 2.836 . S
Nd120 O140 2.500 . S
Nd120 O141 2.492 . S
Nd120 O142 2.487 . S
Nd120 O143 2.682 . S
Nd120 O144 2.410 . S
Nd120 O149 2.414 . S
Nd120 O151 2.424 . S
Nd121 C131 2.836 . S
Nd121 O143 2.414 . S
Nd121 O145 2.424 . S
Nd121 O146 2.500 . S
Nd121 O147 2.492 . S
Nd121 O148 2.487 . S
Nd121 O149 2.682 . S
Nd121 O150 2.410 . S
C122 Nd120 2.836 . S
C122 C123 1.498 . S
C122 O140 1.258 . S
C122 O141 1.239 . S
C123 C122 1.498 . S
C123 C124 1.366 . S
C123 C128 1.407 . S
C124 C123 1.366 . S
C124 C125 1.392 . S
C124 H152 0.930 . S
C125 C124 1.392 . S
C125 C126 1.398 . S
C125 H153 0.929 . S
C126 C125 1.398 . S
C126 C127 1.352 . S
C127 C126 1.352 . S
C127 C128 1.384 . S
C127 H154 0.930 . S
C128 C123 1.407 . S
C128 C127 1.384 . S
C128 H155 0.929 . S
C129 O142 1.241 . S
C129 O143 1.273 . S
C130 O144 1.251 . S
C130 O145 1.268 . S
C131 Nd121 2.836 . S
C131 C132 1.498 1_556 S
C131 O146 1.258 . S
C131 O147 1.239 . S
C132 C131 1.498 1_554 S
C132 C133 1.366 . S
C132 C137 1.407 . S
C133 C132 1.366 . S
C133 C134 1.392 . S
C133 H156 0.930 . S
C134 C133 1.392 . S
C134 C135 1.398 . S
C134 H157 0.929 . S
C135 C134 1.398 . S
C135 C136 1.352 . S
C136 C135 1.352 . S
C136 C137 1.384 . S
C136 H158 0.930 . S
C137 C132 1.407 . S
C137 C136 1.384 . S
C137 H159 0.929 . S
C138 O148 1.241 . S
C138 O149 1.273 . S
C139 O150 1.251 . S
C139 O151 1.268 . S
O140 Nd120 2.500 . S
O140 C122 1.258 . S
O141 Nd120 2.492 . S
O141 C122 1.239 . S
O142 Nd120 2.487 . S
O142 C129 1.241 . S
O143 Nd120 2.682 . S
O143 Nd121 2.414 . S
O143 C129 1.273 . S
O144 Nd120 2.410 . S
O144 C130 1.251 . S
O145 Nd121 2.424 . S
O145 C130 1.268 . S
O146 Nd121 2.500 . S
O146 C131 1.258 . S
O147 Nd121 2.492 . S
O147 C131 1.239 . S
O148 Nd121 2.487 . S
O148 C138 1.241 . S
O149 Nd120 2.414 . S
O149 Nd121 2.682 . S
O149 C138 1.273 . S
O150 Nd121 2.410 . S
O150 C139 1.251 . S
O151 Nd120 2.424 . S
O151 C139 1.268 . S
H152 C124 0.930 . S
H153 C125 0.929 . S
H154 C127 0.930 . S
H155 C128 0.929 . S
H156 C133 0.930 . S
H157 C134 0.929 . S
H158 C136 0.930 . S
H159 C137 0.929 . S
Nd160 C162 2.836 . S
Nd160 O180 2.500 . S
Nd160 O181 2.492 . S
Nd160 O182 2.487 . S
Nd160 O183 2.682 . S
Nd160 O184 2.410 . S
Nd160 O189 2.414 . S
Nd160 O191 2.424 . S
Nd161 C171 2.836 . S
Nd161 O183 2.414 . S
Nd161 O185 2.424 . S
Nd161 O186 2.500 . S
Nd161 O187 2.492 . S
Nd161 O188 2.487 . S
Nd161 O189 2.682 . S
Nd161 O190 2.410 . S
C162 Nd160 2.836 . S
C162 C163 1.498 . S
C162 O180 1.258 . S
C162 O181 1.239 . S
C163 C162 1.498 . S
C163 C164 1.366 . S
C163 C168 1.407 . S
C164 C163 1.366 . S
C164 C165 1.392 . S
C164 H192 0.930 . S
C165 C164 1.392 . S
C165 C166 1.398 . S
C165 H193 0.929 . S
C166 C165 1.398 . S
C166 C167 1.352 . S
C167 C166 1.352 . S
C167 C168 1.384 . S
C167 H194 0.930 . S
C168 C163 1.407 . S
C168 C167 1.384 . S
C168 H195 0.929 . S
C169 O182 1.241 . S
C169 O183 1.273 . S
C170 O184 1.251 . S
C170 O185 1.268 . S
C171 Nd161 2.836 . S
C171 C172 1.498 . S
C171 O186 1.258 . S
C171 O187 1.239 . S
C172 C171 1.498 . S
C172 C173 1.366 . S
C172 C177 1.407 . S
C173 C172 1.366 . S
C173 C174 1.392 . S
C173 H196 0.930 . S
C174 C173 1.392 . S
C174 C175 1.398 . S
C174 H197 0.929 . S
C175 C174 1.398 . S
C175 C176 1.352 . S
C176 C175 1.352 . S
C176 C177 1.384 . S
C176 H198 0.930 . S
C177 C172 1.407 . S
C177 C176 1.384 . S
C177 H199 0.929 . S
C178 O188 1.241 . S
C178 O189 1.273 . S
C179 O190 1.251 . S
C179 O191 1.268 . S
O180 Nd160 2.500 . S
O180 C162 1.258 . S
O181 Nd160 2.492 . S
O181 C162 1.239 . S
O182 Nd160 2.487 . S
O182 C169 1.241 . S
O183 Nd160 2.682 . S
O183 Nd161 2.414 . S
O183 C169 1.273 . S
O184 Nd160 2.410 . S
O184 C170 1.251 . S
O185 Nd161 2.424 . S
O185 C170 1.268 . S
O186 Nd161 2.500 . S
O186 C171 1.258 . S
O187 Nd161 2.492 . S
O187 C171 1.239 . S
O188 Nd161 2.487 . S
O188 C178 1.241 . S
O189 Nd160 2.414 . S
O189 Nd161 2.682 . S
O189 C178 1.273 . S
O190 Nd161 2.410 . S
O190 C179 1.251 . S
O191 Nd160 2.424 . S
O191 C179 1.268 . S
H192 C164 0.930 . S
H193 C165 0.929 . S
H194 C167 0.930 . S
H195 C168 0.929 . S
H196 C173 0.930 . S
H197 C174 0.929 . S
H198 C176 0.930 . S
H199 C177 0.929 . S
Nd200 C202 2.836 . S
Nd200 O220 2.500 . S
Nd200 O221 2.492 . S
Nd200 O222 2.487 . S
Nd200 O223 2.682 . S
Nd200 O224 2.410 . S
Nd200 O229 2.414 . S
Nd200 O231 2.424 . S
Nd201 C211 2.836 . S
Nd201 O223 2.414 . S
Nd201 O225 2.424 . S
Nd201 O226 2.500 . S
Nd201 O227 2.492 . S
Nd201 O228 2.487 . S
Nd201 O229 2.682 . S
Nd201 O230 2.410 . S
C202 Nd200 2.836 . S
C202 C203 1.498 . S
C202 O220 1.258 . S
C202 O221 1.239 . S
C203 C202 1.498 . S
C203 C204 1.366 . S
C203 C208 1.407 . S
C204 C203 1.366 . S
C204 C205 1.392 . S
C204 H232 0.930 . S
C205 C204 1.392 . S
C205 C206 1.398 . S
C205 H233 0.929 . S
C206 C205 1.398 . S
C206 C207 1.352 . S
C207 C206 1.352 . S
C207 C208 1.384 . S
C207 H234 0.930 . S
C208 C203 1.407 . S
C208 C207 1.384 . S
C208 H235 0.929 . S
C209 O222 1.241 . S
C209 O223 1.273 . S
C210 O224 1.251 . S
C210 O225 1.268 . S
C211 Nd201 2.836 . S
C211 C212 1.498 . S
C211 O226 1.258 . S
C211 O227 1.239 . S
C212 C211 1.498 . S
C212 C213 1.366 . S
C212 C217 1.407 . S
C213 C212 1.366 . S
C213 C214 1.392 1_556 S
C213 H236 0.930 . S
C214 C213 1.392 1_554 S
C214 C215 1.398 . S
C214 H237 0.929 . S
C215 C214 1.398 . S
C215 C216 1.352 . S
C216 C215 1.352 . S
C216 C217 1.384 1_554 S
C216 H238 0.930 . S
C217 C212 1.407 . S
C217 C216 1.384 1_556 S
C217 H239 0.929 . S
C218 O228 1.241 . S
C218 O229 1.273 . S
C219 O230 1.251 . S
C219 O231 1.268 . S
O220 Nd200 2.500 . S
O220 C202 1.258 . S
O221 Nd200 2.492 . S
O221 C202 1.239 . S
O222 Nd200 2.487 . S
O222 C209 1.241 . S
O223 Nd200 2.682 . S
O223 Nd201 2.414 . S
O223 C209 1.273 . S
O224 Nd200 2.410 . S
O224 C210 1.251 . S
O225 Nd201 2.424 . S
O225 C210 1.268 . S
O226 Nd201 2.500 . S
O226 C211 1.258 . S
O227 Nd201 2.492 . S
O227 C211 1.239 . S
O228 Nd201 2.487 . S
O228 C218 1.241 . S
O229 Nd200 2.414 . S
O229 Nd201 2.682 . S
O229 C218 1.273 . S
O230 Nd201 2.410 . S
O230 C219 1.251 . S
O231 Nd200 2.424 . S
O231 C219 1.268 . S
H232 C204 0.930 . S
H233 C205 0.929 . S
H234 C207 0.930 . S
H235 C208 0.929 . S
H236 C213 0.930 . S
H237 C214 0.929 . S
H238 C216 0.930 . S
H239 C217 0.929 . S
Nd240 C242 2.836 1_554 S
Nd240 O260 2.500 1_554 S
Nd240 O261 2.492 1_554 S
Nd240 O262 2.487 . S
Nd240 O263 2.682 . S
Nd240 O264 2.410 1_554 S
Nd240 O269 2.414 . S
Nd240 O271 2.424 . S
Nd241 C251 2.836 . S
Nd241 O263 2.414 . S
Nd241 O265 2.424 . S
Nd241 O266 2.500 . S
Nd241 O267 2.492 . S
Nd241 O268 2.487 . S
Nd241 O269 2.682 . S
Nd241 O270 2.410 . S
C242 Nd240 2.836 1_556 S
C242 C243 1.498 . S
C242 O260 1.258 . S
C242 O261 1.239 . S
C243 C242 1.498 . S
C243 C244 1.366 . S
C243 C248 1.407 . S
C244 C243 1.366 . S
C244 C245 1.392 . S
C244 H272 0.930 . S
C245 C244 1.392 . S
C245 C246 1.398 . S
C245 H273 0.929 . S
C246 C245 1.398 . S
C246 C247 1.352 . S
C247 C246 1.352 . S
C247 C248 1.384 . S
C247 H274 0.930 . S
C248 C243 1.407 . S
C248 C247 1.384 . S
C248 H275 0.929 . S
C249 O262 1.241 . S
C249 O263 1.273 . S
C250 O264 1.251 . S
C250 O265 1.268 1_556 S
C251 Nd241 2.836 . S
C251 C252 1.498 . S
C251 O266 1.258 . S
C251 O267 1.239 . S
C252 C251 1.498 . S
C252 C253 1.366 . S
C252 C257 1.407 . S
C253 C252 1.366 . S
C253 C254 1.392 . S
C253 H276 0.930 . S
C254 C253 1.392 . S
C254 C255 1.398 . S
C254 H277 0.929 . S
C255 C254 1.398 . S
C255 C256 1.352 . S
C256 C255 1.352 . S
C256 C257 1.384 . S
C256 H278 0.930 . S
C257 C252 1.407 . S
C257 C256 1.384 . S
C257 H279 0.929 . S
C258 O268 1.241 . S
C258 O269 1.273 . S
C259 O270 1.251 . S
C259 O271 1.268 . S
O260 Nd240 2.500 1_556 S
O260 C242 1.258 . S
O261 Nd240 2.492 1_556 S
O261 C242 1.239 . S
O262 Nd240 2.487 . S
O262 C249 1.241 . S
O263 Nd240 2.682 . S
O263 Nd241 2.414 . S
O263 C249 1.273 . S
O264 Nd240 2.410 1_556 S
O264 C250 1.251 . S
O265 Nd241 2.424 . S
O265 C250 1.268 1_554 S
O266 Nd241 2.500 . S
O266 C251 1.258 . S
O267 Nd241 2.492 . S
O267 C251 1.239 . S
O268 Nd241 2.487 . S
O268 C258 1.241 . S
O269 Nd240 2.414 . S
O269 Nd241 2.682 . S
O269 C258 1.273 . S
O270 Nd241 2.410 . S
O270 C259 1.251 . S
O271 Nd240 2.424 . S
O271 C259 1.268 . S
H272 C244 0.930 . S
H273 C245 0.929 . S
H274 C247 0.930 . S
H275 C248 0.929 . S
H276 C253 0.930 . S
H277 C254 0.929 . S
H278 C256 0.930 . S
H279 C257 0.929 . S
Nd280 C282 2.836 . S
Nd280 O300 2.500 . S
Nd280 O301 2.492 . S
Nd280 O302 2.487 . S
Nd280 O303 2.682 . S
Nd280 O304 2.410 . S
Nd280 O309 2.414 . S
Nd280 O311 2.424 . S
Nd281 C291 2.836 . S
Nd281 O303 2.414 . S
Nd281 O305 2.424 . S
Nd281 O306 2.500 . S
Nd281 O307 2.492 . S
Nd281 O308 2.487 . S
Nd281 O309 2.682 . S
Nd281 O310 2.410 . S
C282 Nd280 2.836 . S
C282 C283 1.498 . S
C282 O300 1.258 . S
C282 O301 1.239 . S
C283 C282 1.498 . S
C283 C284 1.366 . S
C283 C288 1.407 . S
C284 C283 1.366 . S
C284 C285 1.392 . S
C284 H312 0.930 . S
C285 C284 1.392 . S
C285 C286 1.398 . S
C285 H313 0.929 . S
C286 C285 1.398 . S
C286 C287 1.352 . S
C287 C286 1.352 . S
C287 C288 1.384 . S
C287 H314 0.930 . S
C288 C283 1.407 . S
C288 C287 1.384 . S
C288 H315 0.929 . S
C289 O302 1.241 . S
C289 O303 1.273 . S
C290 O304 1.251 . S
C290 O305 1.268 . S
C291 Nd281 2.836 . S
C291 C292 1.498 . S
C291 O306 1.258 . S
C291 O307 1.239 . S
C292 C291 1.498 . S
C292 C293 1.366 . S
C292 C297 1.407 . S
C293 C292 1.366 . S
C293 C294 1.392 . S
C293 H316 0.930 . S
C294 C293 1.392 . S
C294 C295 1.398 . S
C294 H317 0.929 . S
C295 C294 1.398 . S
C295 C296 1.352 . S
C296 C295 1.352 . S
C296 C297 1.384 . S
C296 H318 0.930 . S
C297 C292 1.407 . S
C297 C296 1.384 . S
C297 H319 0.929 . S
C298 O308 1.241 . S
C298 O309 1.273 . S
C299 O310 1.251 . S
C299 O311 1.268 . S
O300 Nd280 2.500 . S
O300 C282 1.258 . S
O301 Nd280 2.492 . S
O301 C282 1.239 . S
O302 Nd280 2.487 . S
O302 C289 1.241 . S
O303 Nd280 2.682 . S
O303 Nd281 2.414 . S
O303 C289 1.273 . S
O304 Nd280 2.410 . S
O304 C290 1.251 . S
O305 Nd281 2.424 . S
O305 C290 1.268 . S
O306 Nd281 2.500 . S
O306 C291 1.258 . S
O307 Nd281 2.492 . S
O307 C291 1.239 . S
O308 Nd281 2.487 . S
O308 C298 1.241 . S
O309 Nd280 2.414 . S
O309 Nd281 2.682 . S
O309 C298 1.273 . S
O310 Nd281 2.410 . S
O310 C299 1.251 . S
O311 Nd280 2.424 . S
O311 C299 1.268 . S
H312 C284 0.930 . S
H313 C285 0.929 . S
H314 C287 0.930 . S
H315 C288 0.929 . S
H316 C293 0.930 . S
H317 C294 0.929 . S
H318 C296 0.930 . S
H319 C297 0.929 . S
Nd320 C322 2.836 . S
Nd320 O340 2.500 . S
Nd320 O341 2.492 . S
Nd320 O342 2.487 . S
Nd320 O343 2.682 . S
Nd320 O344 2.410 . S
Nd320 O349 2.414 . S
Nd320 O351 2.424 . S
Nd321 C331 2.836 . S
Nd321 O343 2.414 . S
Nd321 O345 2.424 . S
Nd321 O346 2.500 . S
Nd321 O347 2.492 . S
Nd321 O348 2.487 . S
Nd321 O349 2.682 . S
Nd321 O350 2.410 . S
C322 Nd320 2.836 . S
C322 C323 1.498 . S
C322 O340 1.258 . S
C322 O341 1.239 . S
C323 C322 1.498 . S
C323 C324 1.366 . S
C323 C328 1.407 1_655 S
C324 C323 1.366 . S
C324 C325 1.392 1_554 S
C324 H352 0.930 . S
C325 C324 1.392 1_556 S
C325 C326 1.398 . S
C325 H353 0.929 . S
C326 C325 1.398 . S
C326 C327 1.352 1_655 S
C327 C326 1.352 1_455 S
C327 C328 1.384 1_556 S
C327 H354 0.930 . S
C328 C323 1.407 1_455 S
C328 C327 1.384 1_554 S
C328 H355 0.929 . S
C329 O342 1.241 . S
C329 O343 1.273 . S
C330 O344 1.251 . S
C330 O345 1.268 . S
C331 Nd321 2.836 . S
C331 C332 1.498 . S
C331 O346 1.258 . S
C331 O347 1.239 . S
C332 C331 1.498 . S
C332 C333 1.366 . S
C332 C337 1.407 . S
C333 C332 1.366 . S
C333 C334 1.392 . S
C333 H356 0.930 . S
C334 C333 1.392 . S
C334 C335 1.398 . S
C334 H357 0.929 . S
C335 C334 1.398 . S
C335 C336 1.352 . S
C336 C335 1.352 . S
C336 C337 1.384 . S
C336 H358 0.930 . S
C337 C332 1.407 . S
C337 C336 1.384 . S
C337 H359 0.929 . S
C338 O348 1.241 . S
C338 O349 1.273 . S
C339 O350 1.251 . S
C339 O351 1.268 . S
O340 Nd320 2.500 . S
O340 C322 1.258 . S
O341 Nd320 2.492 . S
O341 C322 1.239 . S
O342 Nd320 2.487 . S
O342 C329 1.241 . S
O343 Nd320 2.682 . S
O343 Nd321 2.414 . S
O343 C329 1.273 . S
O344 Nd320 2.410 . S
O344 C330 1.251 . S
O345 Nd321 2.424 . S
O345 C330 1.268 . S
O346 Nd321 2.500 . S
O346 C331 1.258 . S
O347 Nd321 2.492 . S
O347 C331 1.239 . S
O348 Nd321 2.487 . S
O348 C338 1.241 . S
O349 Nd320 2.414 . S
O349 Nd321 2.682 . S
O349 C338 1.273 . S
O350 Nd321 2.410 . S
O350 C339 1.251 . S
O351 Nd320 2.424 . S
O351 C339 1.268 . S
H352 C324 0.930 . S
H353 C325 0.929 . S
H354 C327 0.930 . S
H355 C328 0.929 . S
H356 C333 0.930 . S
H357 C334 0.929 . S
H358 C336 0.930 . S
H359 C337 0.929 . S
Nd360 C362 2.836 . S
Nd360 O380 2.500 . S
Nd360 O381 2.492 . S
Nd360 O382 2.487 . S
Nd360 O383 2.682 . S
Nd360 O384 2.410 . S
Nd360 O389 2.414 . S
Nd360 O391 2.424 . S
Nd361 C371 2.836 1_556 S
Nd361 O383 2.414 . S
Nd361 O385 2.424 . S
Nd361 O386 2.500 1_556 S
Nd361 O387 2.492 1_556 S
Nd361 O388 2.487 . S
Nd361 O389 2.682 . S
Nd361 O390 2.410 1_556 S
C362 Nd360 2.836 . S
C362 C363 1.498 . S
C362 O380 1.258 . S
C362 O381 1.239 . S
C363 C362 1.498 . S
C363 C364 1.366 . S
C363 C368 1.407 . S
C364 C363 1.366 . S
C364 C365 1.392 . S
C364 H392 0.930 . S
C365 C364 1.392 . S
C365 C366 1.398 . S
C365 H393 0.929 . S
C366 C365 1.398 . S
C366 C367 1.352 . S
C367 C366 1.352 . S
C367 C368 1.384 . S
C367 H394 0.930 . S
C368 C363 1.407 . S
C368 C367 1.384 . S
C368 H395 0.929 . S
C369 O382 1.241 . S
C369 O383 1.273 . S
C370 O384 1.251 . S
C370 O385 1.268 . S
C371 Nd361 2.836 1_554 S
C371 C372 1.498 . S
C371 O386 1.258 . S
C371 O387 1.239 . S
C372 C371 1.498 . S
C372 C373 1.366 . S
C372 C377 1.407 . S
C373 C372 1.366 . S
C373 C374 1.392 . S
C373 H396 0.930 . S
C374 C373 1.392 . S
C374 C375 1.398 . S
C374 H397 0.929 . S
C375 C374 1.398 . S
C375 C376 1.352 . S
C376 C375 1.352 . S
C376 C377 1.384 . S
C376 H398 0.930 . S
C377 C372 1.407 . S
C377 C376 1.384 . S
C377 H399 0.929 . S
C378 O388 1.241 . S
C378 O389 1.273 . S
C379 O390 1.251 . S
C379 O391 1.268 1_554 S
O380 Nd360 2.500 . S
O380 C362 1.258 . S
O381 Nd360 2.492 . S
O381 C362 1.239 . S
O382 Nd360 2.487 . S
O382 C369 1.241 . S
O383 Nd360 2.682 . S
O383 Nd361 2.414 . S
O383 C369 1.273 . S
O384 Nd360 2.410 . S
O384 C370 1.251 . S
O385 Nd361 2.424 . S
O385 C370 1.268 . S
O386 Nd361 2.500 1_554 S
O386 C371 1.258 . S
O387 Nd361 2.492 1_554 S
O387 C371 1.239 . S
O388 Nd361 2.487 . S
O388 C378 1.241 . S
O389 Nd360 2.414 . S
O389 Nd361 2.682 . S
O389 C378 1.273 . S
O390 Nd361 2.410 1_554 S
O390 C379 1.251 . S
O391 Nd360 2.424 . S
O391 C379 1.268 1_556 S
H392 C364 0.930 . S
H393 C365 0.929 . S
H394 C367 0.930 . S
H395 C368 0.929 . S
H396 C373 0.930 . S
H397 C374 0.929 . S
H398 C376 0.930 . S
H399 C377 0.929 . S
Nd400 C402 2.836 . S
Nd400 O420 2.500 . S
Nd400 O421 2.492 . S
Nd400 O422 2.487 . S
Nd400 O423 2.682 . S
Nd400 O424 2.410 . S
Nd400 O429 2.414 . S
Nd400 O431 2.424 . S
Nd401 C411 2.836 . S
Nd401 O423 2.414 . S
Nd401 O425 2.424 . S
Nd401 O426 2.500 . S
Nd401 O427 2.492 . S
Nd401 O428 2.487 . S
Nd401 O429 2.682 . S
Nd401 O430 2.410 . S
C402 Nd400 2.836 . S
C402 C403 1.498 . S
C402 O420 1.258 . S
C402 O421 1.239 . S
C403 C402 1.498 . S
C403 C404 1.366 . S
C403 C408 1.407 . S
C404 C403 1.366 . S
C404 C405 1.392 . S
C404 H432 0.930 . S
C405 C404 1.392 . S
C405 C406 1.398 . S
C405 H433 0.929 . S
C406 C405 1.398 . S
C406 C407 1.352 . S
C407 C406 1.352 . S
C407 C408 1.384 . S
C407 H434 0.930 . S
C408 C403 1.407 . S
C408 C407 1.384 . S
C408 H435 0.929 . S
C409 O422 1.241 . S
C409 O423 1.273 . S
C410 O424 1.251 . S
C410 O425 1.268 . S
C411 Nd401 2.836 . S
C411 C412 1.498 . S
C411 O426 1.258 . S
C411 O427 1.239 . S
C412 C411 1.498 . S
C412 C413 1.366 . S
C412 C417 1.407 . S
C413 C412 1.366 . S
C413 C414 1.392 . S
C413 H436 0.930 . S
C414 C413 1.392 . S
C414 C415 1.398 . S
C414 H437 0.929 . S
C415 C414 1.398 . S
C415 C416 1.352 . S
C416 C415 1.352 . S
C416 C417 1.384 . S
C416 H438 0.930 . S
C417 C412 1.407 . S
C417 C416 1.384 . S
C417 H439 0.929 . S
C418 O428 1.241 . S
C418 O429 1.273 . S
C419 O430 1.251 . S
C419 O431 1.268 . S
O420 Nd400 2.500 . S
O420 C402 1.258 . S
O421 Nd400 2.492 . S
O421 C402 1.239 . S
O422 Nd400 2.487 . S
O422 C409 1.241 . S
O423 Nd400 2.682 . S
O423 Nd401 2.414 . S
O423 C409 1.273 . S
O424 Nd400 2.410 . S
O424 C410 1.251 . S
O425 Nd401 2.424 . S
O425 C410 1.268 . S
O426 Nd401 2.500 . S
O426 C411 1.258 . S
O427 Nd401 2.492 . S
O427 C411 1.239 . S
O428 Nd401 2.487 . S
O428 C418 1.241 . S
O429 Nd400 2.414 . S
O429 Nd401 2.682 . S
O429 C418 1.273 . S
O430 Nd401 2.410 . S
O430 C419 1.251 . S
O431 Nd400 2.424 . S
O431 C419 1.268 . S
H432 C404 0.930 . S
H433 C405 0.929 . S
H434 C407 0.930 . S
H435 C408 0.929 . S
H436 C413 0.930 . S
H437 C414 0.929 . S
H438 C416 0.930 . S
H439 C417 0.929 . S
Nd440 C442 2.836 . S
Nd440 O460 2.500 . S
Nd440 O461 2.492 . S
Nd440 O462 2.487 . S
Nd440 O463 2.682 . S
Nd440 O464 2.410 . S
Nd440 O469 2.414 . S
Nd440 O471 2.424 . S
Nd441 C451 2.836 . S
Nd441 O463 2.414 . S
Nd441 O465 2.424 . S
Nd441 O466 2.500 . S
Nd441 O467 2.492 . S
Nd441 O468 2.487 . S
Nd441 O469 2.682 . S
Nd441 O470 2.410 . S
C442 Nd440 2.836 . S
C442 C443 1.498 . S
C442 O460 1.258 . S
C442 O461 1.239 . S
C443 C442 1.498 . S
C443 C444 1.366 . S
C443 C448 1.407 . S
C444 C443 1.366 . S
C444 C445 1.392 . S
C444 H472 0.930 . S
C445 C444 1.392 . S
C445 C446 1.398 . S
C445 H473 0.929 . S
C446 C445 1.398 . S
C446 C447 1.352 . S
C447 C446 1.352 . S
C447 C448 1.384 . S
C447 H474 0.930 . S
C448 C443 1.407 . S
C448 C447 1.384 . S
C448 H475 0.929 . S
C449 O462 1.241 . S
C449 O463 1.273 . S
C450 O464 1.251 . S
C450 O465 1.268 . S
C451 Nd441 2.836 . S
C451 C452 1.498 . S
C451 O466 1.258 . S
C451 O467 1.239 . S
C452 C451 1.498 . S
C452 C453 1.366 . S
C452 C457 1.407 . S
C453 C452 1.366 . S
C453 C454 1.392 . S
C453 H476 0.930 . S
C454 C453 1.392 . S
C454 C455 1.398 . S
C454 H477 0.929 . S
C455 C454 1.398 . S
C455 C456 1.352 . S
C456 C455 1.352 . S
C456 C457 1.384 . S
C456 H478 0.930 . S
C457 C452 1.407 . S
C457 C456 1.384 . S
C457 H479 0.929 . S
C458 O468 1.241 . S
C458 O469 1.273 . S
C459 O470 1.251 . S
C459 O471 1.268 . S
O460 Nd440 2.500 . S
O460 C442 1.258 . S
O461 Nd440 2.492 . S
O461 C442 1.239 . S
O462 Nd440 2.487 . S
O462 C449 1.241 . S
O463 Nd440 2.682 . S
O463 Nd441 2.414 . S
O463 C449 1.273 . S
O464 Nd440 2.410 . S
O464 C450 1.251 . S
O465 Nd441 2.424 . S
O465 C450 1.268 . S
O466 Nd441 2.500 . S
O466 C451 1.258 . S
O467 Nd441 2.492 . S
O467 C451 1.239 . S
O468 Nd441 2.487 . S
O468 C458 1.241 . S
O469 Nd440 2.414 . S
O469 Nd441 2.682 . S
O469 C458 1.273 . S
O470 Nd441 2.410 . S
O470 C459 1.251 . S
O471 Nd440 2.424 . S
O471 C459 1.268 . S
H472 C444 0.930 . S
H473 C445 0.929 . S
H474 C447 0.930 . S
H475 C448 0.929 . S
H476 C453 0.930 . S
H477 C454 0.929 . S
H478 C456 0.930 . S
H479 C457 0.929 . S
Nd480 C482 2.836 . S
Nd480 O500 2.500 . S
Nd480 O501 2.492 . S
Nd480 O502 2.487 . S
Nd480 O503 2.682 . S
Nd480 O504 2.410 . S
Nd480 O509 2.414 . S
Nd480 O511 2.424 . S
Nd481 C491 2.836 . S
Nd481 O503 2.414 . S
Nd481 O505 2.424 . S
Nd481 O506 2.500 . S
Nd481 O507 2.492 . S
Nd481 O508 2.487 . S
Nd481 O509 2.682 . S
Nd481 O510 2.410 . S
C482 Nd480 2.836 . S
C482 C483 1.498 . S
C482 O500 1.258 . S
C482 O501 1.239 . S
C483 C482 1.498 . S
C483 C484 1.366 . S
C483 C488 1.407 . S
C484 C483 1.366 . S
C484 C485 1.392 . S
C484 H512 0.930 . S
C485 C484 1.392 . S
C485 C486 1.398 . S
C485 H513 0.929 . S
C486 C485 1.398 . S
C486 C487 1.352 . S
C487 C486 1.352 . S
C487 C488 1.384 . S
C487 H514 0.930 . S
C488 C483 1.407 . S
C488 C487 1.384 . S
C488 H515 0.929 . S
C489 O502 1.241 . S
C489 O503 1.273 . S
C490 O504 1.251 . S
C490 O505 1.268 . S
C491 Nd481 2.836 . S
C491 C492 1.498 . S
C491 O506 1.258 . S
C491 O507 1.239 . S
C492 C491 1.498 . S
C492 C493 1.366 . S
C492 C497 1.407 . S
C493 C492 1.366 . S
C493 C494 1.392 . S
C493 H516 0.930 . S
C494 C493 1.392 . S
C494 C495 1.398 . S
C494 H517 0.929 . S
C495 C494 1.398 . S
C495 C496 1.352 . S
C496 C495 1.352 . S
C496 C497 1.384 . S
C496 H518 0.930 . S
C497 C492 1.407 . S
C497 C496 1.384 . S
C497 H519 0.929 . S
C498 O508 1.241 . S
C498 O509 1.273 . S
C499 O510 1.251 . S
C499 O511 1.268 . S
O500 Nd480 2.500 . S
O500 C482 1.258 . S
O501 Nd480 2.492 . S
O501 C482 1.239 . S
O502 Nd480 2.487 . S
O502 C489 1.241 . S
O503 Nd480 2.682 . S
O503 Nd481 2.414 . S
O503 C489 1.273 . S
O504 Nd480 2.410 . S
O504 C490 1.251 . S
O505 Nd481 2.424 . S
O505 C490 1.268 . S
O506 Nd481 2.500 . S
O506 C491 1.258 . S
O507 Nd481 2.492 . S
O507 C491 1.239 . S
O508 Nd481 2.487 . S
O508 C498 1.241 . S
O509 Nd480 2.414 . S
O509 Nd481 2.682 . S
O509 C498 1.273 . S
O510 Nd481 2.410 . S
O510 C499 1.251 . S
O511 Nd480 2.424 . S
O511 C499 1.268 . S
H512 C484 0.930 . S
H513 C485 0.929 . S
H514 C487 0.930 . S
H515 C488 0.929 . S
H516 C493 0.930 . S
H517 C494 0.929 . S
H518 C496 0.930 . S
H519 C497 0.929 . S
Nd520 C522 2.836 . S
Nd520 O540 2.500 . S
Nd520 O541 2.492 . S
Nd520 O542 2.487 . S
Nd520 O543 2.682 . S
Nd520 O544 2.410 . S
Nd520 O549 2.414 . S
Nd520 O551 2.424 . S
Nd521 C531 2.836 . S
Nd521 O543 2.414 . S
Nd521 O545 2.424 . S
Nd521 O546 2.500 . S
Nd521 O547 2.492 . S
Nd521 O548 2.487 . S
Nd521 O549 2.682 . S
Nd521 O550 2.410 . S
C522 Nd520 2.836 . S
C522 C523 1.498 . S
C522 O540 1.258 . S
C522 O541 1.239 . S
C523 C522 1.498 . S
C523 C524 1.366 . S
C523 C528 1.407 . S
C524 C523 1.366 . S
C524 C525 1.392 . S
C524 H552 0.930 . S
C525 C524 1.392 . S
C525 C526 1.398 . S
C525 H553 0.929 . S
C526 C525 1.398 . S
C526 C527 1.352 . S
C527 C526 1.352 . S
C527 C528 1.384 . S
C527 H554 0.930 . S
C528 C523 1.407 . S
C528 C527 1.384 . S
C528 H555 0.929 . S
C529 O542 1.241 . S
C529 O543 1.273 . S
C530 O544 1.251 . S
C530 O545 1.268 . S
C531 Nd521 2.836 . S
C531 C532 1.498 . S
C531 O546 1.258 . S
C531 O547 1.239 . S
C532 C531 1.498 . S
C532 C533 1.366 . S
C532 C537 1.407 . S
C533 C532 1.366 . S
C533 C534 1.392 . S
C533 H556 0.930 . S
C534 C533 1.392 . S
C534 C535 1.398 . S
C534 H557 0.929 . S
C535 C534 1.398 . S
C535 C536 1.352 . S
C536 C535 1.352 . S
C536 C537 1.384 . S
C536 H558 0.930 . S
C537 C532 1.407 . S
C537 C536 1.384 . S
C537 H559 0.929 . S
C538 O548 1.241 . S
C538 O549 1.273 . S
C539 O550 1.251 . S
C539 O551 1.268 . S
O540 Nd520 2.500 . S
O540 C522 1.258 . S
O541 Nd520 2.492 . S
O541 C522 1.239 . S
O542 Nd520 2.487 . S
O542 C529 1.241 . S
O543 Nd520 2.682 . S
O543 Nd521 2.414 . S
O543 C529 1.273 . S
O544 Nd520 2.410 . S
O544 C530 1.251 . S
O545 Nd521 2.424 . S
O545 C530 1.268 . S
O546 Nd521 2.500 . S
O546 C531 1.258 . S
O547 Nd521 2.492 . S
O547 C531 1.239 . S
O548 Nd521 2.487 . S
O548 C538 1.241 . S
O549 Nd520 2.414 . S
O549 Nd521 2.682 . S
O549 C538 1.273 . S
O550 Nd521 2.410 . S
O550 C539 1.251 . S
O551 Nd520 2.424 . S
O551 C539 1.268 . S
H552 C524 0.930 . S
H553 C525 0.929 . S
H554 C527 0.930 . S
H555 C528 0.929 . S
H556 C533 0.930 . S
H557 C534 0.929 . S
H558 C536 0.930 . S
H559 C537 0.929 . S
Nd560 C562 2.836 . S
Nd560 O580 2.500 . S
Nd560 O581 2.492 . S
Nd560 O582 2.487 . S
Nd560 O583 2.682 . S
Nd560 O584 2.410 . S
Nd560 O589 2.414 . S
Nd560 O591 2.424 . S
Nd561 C571 2.836 . S
Nd561 O583 2.414 . S
Nd561 O585 2.424 . S
Nd561 O586 2.500 . S
Nd561 O587 2.492 . S
Nd561 O588 2.487 . S
Nd561 O589 2.682 . S
Nd561 O590 2.410 . S
C562 Nd560 2.836 . S
C562 C563 1.498 . S
C562 O580 1.258 . S
C562 O581 1.239 . S
C563 C562 1.498 . S
C563 C564 1.366 . S
C563 C568 1.407 . S
C564 C563 1.366 . S
C564 C565 1.392 . S
C564 H592 0.930 . S
C565 C564 1.392 . S
C565 C566 1.398 . S
C565 H593 0.929 . S
C566 C565 1.398 . S
C566 C567 1.352 . S
C567 C566 1.352 . S
C567 C568 1.384 . S
C567 H594 0.930 . S
C568 C563 1.407 . S
C568 C567 1.384 . S
C568 H595 0.929 . S
C569 O582 1.241 . S
C569 O583 1.273 . S
C570 O584 1.251 . S
C570 O585 1.268 . S
C571 Nd561 2.836 . S
C571 C572 1.498 . S
C571 O586 1.258 . S
C571 O587 1.239 . S
C572 C571 1.498 . S
C572 C573 1.366 . S
C572 C577 1.407 . S
C573 C572 1.366 . S
C573 C574 1.392 . S
C573 H596 0.930 . S
C574 C573 1.392 . S
C574 C575 1.398 . S
C574 H597 0.929 . S
C575 C574 1.398 . S
C575 C576 1.352 . S
C576 C575 1.352 . S
C576 C577 1.384 . S
C576 H598 0.930 . S
C577 C572 1.407 . S
C577 C576 1.384 . S
C577 H599 0.929 . S
C578 O588 1.241 . S
C578 O589 1.273 . S
C579 O590 1.251 . S
C579 O591 1.268 . S
O580 Nd560 2.500 . S
O580 C562 1.258 . S
O581 Nd560 2.492 . S
O581 C562 1.239 . S
O582 Nd560 2.487 . S
O582 C569 1.241 . S
O583 Nd560 2.682 . S
O583 Nd561 2.414 . S
O583 C569 1.273 . S
O584 Nd560 2.410 . S
O584 C570 1.251 . S
O585 Nd561 2.424 . S
O585 C570 1.268 . S
O586 Nd561 2.500 . S
O586 C571 1.258 . S
O587 Nd561 2.492 . S
O587 C571 1.239 . S
O588 Nd561 2.487 . S
O588 C578 1.241 . S
O589 Nd560 2.414 . S
O589 Nd561 2.682 . S
O589 C578 1.273 . S
O590 Nd561 2.410 . S
O590 C579 1.251 . S
O591 Nd560 2.424 . S
O591 C579 1.268 . S
H592 C564 0.930 . S
H593 C565 0.929 . S
H594 C567 0.930 . S
H595 C568 0.929 . S
H596 C573 0.930 . S
H597 C574 0.929 . S
H598 C576 0.930 . S
H599 C577 0.929 . S
Nd600 C602 2.836 . S
Nd600 O620 2.500 . S
Nd600 O621 2.492 . S
Nd600 O622 2.487 . S
Nd600 O623 2.682 1_556 S
Nd600 O624 2.410 . S
Nd600 O629 2.414 . S
Nd600 O631 2.424 1_556 S
Nd601 C611 2.836 . S
Nd601 O623 2.414 . S
Nd601 O625 2.424 1_554 S
Nd601 O626 2.500 . S
Nd601 O627 2.492 . S
Nd601 O628 2.487 . S
Nd601 O629 2.682 1_554 S
Nd601 O630 2.410 . S
C602 Nd600 2.836 . S
C602 C603 1.498 . S
C602 O620 1.258 . S
C602 O621 1.239 . S
C603 C602 1.498 . S
C603 C604 1.366 . S
C603 C608 1.407 . S
C604 C603 1.366 . S
C604 C605 1.392 . S
C604 H632 0.930 . S
C605 C604 1.392 . S
C605 C606 1.398 . S
C605 H633 0.929 . S
C606 C605 1.398 . S
C606 C607 1.352 . S
C607 C606 1.352 . S
C607 C608 1.384 . S
C607 H634 0.930 . S
C608 C603 1.407 . S
C608 C607 1.384 . S
C608 H635 0.929 . S
C609 O622 1.241 1_554 S
C609 O623 1.273 . S
C610 O624 1.251 . S
C610 O625 1.268 . S
C611 Nd601 2.836 . S
C611 C612 1.498 . S
C611 O626 1.258 . S
C611 O627 1.239 . S
C612 C611 1.498 . S
C612 C613 1.366 . S
C612 C617 1.407 . S
C613 C612 1.366 . S
C613 C614 1.392 . S
C613 H636 0.930 . S
C614 C613 1.392 . S
C614 C615 1.398 . S
C614 H637 0.929 . S
C615 C614 1.398 . S
C615 C616 1.352 . S
C616 C615 1.352 . S
C616 C617 1.384 . S
C616 H638 0.930 . S
C617 C612 1.407 . S
C617 C616 1.384 . S
C617 H639 0.929 . S
C618 O628 1.241 1_556 S
C618 O629 1.273 . S
C619 O630 1.251 . S
C619 O631 1.268 . S
O620 Nd600 2.500 . S
O620 C602 1.258 . S
O621 Nd600 2.492 . S
O621 C602 1.239 . S
O622 Nd600 2.487 . S
O622 C609 1.241 1_556 S
O623 Nd600 2.682 1_554 S
O623 Nd601 2.414 . S
O623 C609 1.273 . S
O624 Nd600 2.410 . S
O624 C610 1.251 . S
O625 Nd601 2.424 1_556 S
O625 C610 1.268 . S
O626 Nd601 2.500 . S
O626 C611 1.258 . S
O627 Nd601 2.492 . S
O627 C611 1.239 . S
O628 Nd601 2.487 . S
O628 C618 1.241 1_554 S
O629 Nd600 2.414 . S
O629 Nd601 2.682 1_556 S
O629 C618 1.273 . S
O630 Nd601 2.410 . S
O630 C619 1.251 . S
O631 Nd600 2.424 1_554 S
O631 C619 1.268 . S
H632 C604 0.930 . S
H633 C605 0.929 . S
H634 C607 0.930 . S
H635 C608 0.929 . S
H636 C613 0.930 . S
H637 C614 0.929 . S
H638 C616 0.930 . S
H639 C617 0.929 . S
Nd640 C642 2.836 . S
Nd640 O660 2.500 . S
Nd640 O661 2.492 . S
Nd640 O662 2.487 . S
Nd640 O663 2.682 . S
Nd640 O664 2.410 . S
Nd640 O669 2.414 . S
Nd640 O671 2.424 . S
Nd641 C651 2.836 . S
Nd641 O663 2.414 . S
Nd641 O665 2.424 . S
Nd641 O666 2.500 . S
Nd641 O667 2.492 . S
Nd641 O668 2.487 . S
Nd641 O669 2.682 . S
Nd641 O670 2.410 . S
C642 Nd640 2.836 . S
C642 C643 1.498 . S
C642 O660 1.258 . S
C642 O661 1.239 . S
C643 C642 1.498 . S
C643 C644 1.366 . S
C643 C648 1.407 . S
C644 C643 1.366 . S
C644 C645 1.392 . S
C644 H672 0.930 . S
C645 C644 1.392 . S
C645 C646 1.398 . S
C645 H673 0.929 . S
C646 C645 1.398 . S
C646 C647 1.352 . S
C647 C646 1.352 . S
C647 C648 1.384 . S
C647 H674 0.930 . S
C648 C643 1.407 . S
C648 C647 1.384 . S
C648 H675 0.929 . S
C649 O662 1.241 . S
C649 O663 1.273 . S
C650 O664 1.251 . S
C650 O665 1.268 . S
C651 Nd641 2.836 . S
C651 C652 1.498 . S
C651 O666 1.258 . S
C651 O667 1.239 . S
C652 C651 1.498 . S
C652 C653 1.366 . S
C652 C657 1.407 . S
C653 C652 1.366 . S
C653 C654 1.392 . S
C653 H676 0.930 . S
C654 C653 1.392 . S
C654 C655 1.398 . S
C654 H677 0.929 . S
C655 C654 1.398 . S
C655 C656 1.352 . S
C656 C655 1.352 . S
C656 C657 1.384 . S
C656 H678 0.930 . S
C657 C652 1.407 . S
C657 C656 1.384 . S
C657 H679 0.929 . S
C658 O668 1.241 . S
C658 O669 1.273 . S
C659 O670 1.251 . S
C659 O671 1.268 . S
O660 Nd640 2.500 . S
O660 C642 1.258 . S
O661 Nd640 2.492 . S
O661 C642 1.239 . S
O662 Nd640 2.487 . S
O662 C649 1.241 . S
O663 Nd640 2.682 . S
O663 Nd641 2.414 . S
O663 C649 1.273 . S
O664 Nd640 2.410 . S
O664 C650 1.251 . S
O665 Nd641 2.424 . S
O665 C650 1.268 . S
O666 Nd641 2.500 . S
O666 C651 1.258 . S
O667 Nd641 2.492 . S
O667 C651 1.239 . S
O668 Nd641 2.487 . S
O668 C658 1.241 . S
O669 Nd640 2.414 . S
O669 Nd641 2.682 . S
O669 C658 1.273 . S
O670 Nd641 2.410 . S
O670 C659 1.251 . S
O671 Nd640 2.424 . S
O671 C659 1.268 . S
H672 C644 0.930 . S
H673 C645 0.929 . S
H674 C647 0.930 . S
H675 C648 0.929 . S
H676 C653 0.930 . S
H677 C654 0.929 . S
H678 C656 0.930 . S
H679 C657 0.929 . S
Nd680 C682 2.836 . S
Nd680 O700 2.500 . S
Nd680 O701 2.492 . S
Nd680 O702 2.487 . S
Nd680 O703 2.682 . S
Nd680 O704 2.410 . S
Nd680 O709 2.414 . S
Nd680 O711 2.424 . S
Nd681 C691 2.836 . S
Nd681 O703 2.414 . S
Nd681 O705 2.424 . S
Nd681 O706 2.500 . S
Nd681 O707 2.492 . S
Nd681 O708 2.487 . S
Nd681 O709 2.682 . S
Nd681 O710 2.410 . S
C682 Nd680 2.836 . S
C682 C683 1.498 . S
C682 O700 1.258 . S
C682 O701 1.239 . S
C683 C682 1.498 . S
C683 C684 1.366 . S
C683 C688 1.407 . S
C684 C683 1.366 . S
C684 C685 1.392 . S
C684 H712 0.930 . S
C685 C684 1.392 . S
C685 C686 1.398 . S
C685 H713 0.929 . S
C686 C685 1.398 . S
C686 C687 1.352 . S
C687 C686 1.352 . S
C687 C688 1.384 . S
C687 H714 0.930 . S
C688 C683 1.407 . S
C688 C687 1.384 . S
C688 H715 0.929 . S
C689 O702 1.241 . S
C689 O703 1.273 . S
C690 O704 1.251 . S
C690 O705 1.268 . S
C691 Nd681 2.836 . S
C691 C692 1.498 1_556 S
C691 O706 1.258 . S
C691 O707 1.239 . S
C692 C691 1.498 1_554 S
C692 C693 1.366 . S
C692 C697 1.407 . S
C693 C692 1.366 . S
C693 C694 1.392 . S
C693 H716 0.930 . S
C694 C693 1.392 . S
C694 C695 1.398 . S
C694 H717 0.929 . S
C695 C694 1.398 . S
C695 C696 1.352 . S
C696 C695 1.352 . S
C696 C697 1.384 . S
C696 H718 0.930 . S
C697 C692 1.407 . S
C697 C696 1.384 . S
C697 H719 0.929 . S
C698 O708 1.241 . S
C698 O709 1.273 . S
C699 O710 1.251 . S
C699 O711 1.268 . S
O700 Nd680 2.500 . S
O700 C682 1.258 . S
O701 Nd680 2.492 . S
O701 C682 1.239 . S
O702 Nd680 2.487 . S
O702 C689 1.241 . S
O703 Nd680 2.682 . S
O703 Nd681 2.414 . S
O703 C689 1.273 . S
O704 Nd680 2.410 . S
O704 C690 1.251 . S
O705 Nd681 2.424 . S
O705 C690 1.268 . S
O706 Nd681 2.500 . S
O706 C691 1.258 . S
O707 Nd681 2.492 . S
O707 C691 1.239 . S
O708 Nd681 2.487 . S
O708 C698 1.241 . S
O709 Nd680 2.414 . S
O709 Nd681 2.682 . S
O709 C698 1.273 . S
O710 Nd681 2.410 . S
O710 C699 1.251 . S
O711 Nd680 2.424 . S
O711 C699 1.268 . S
H712 C684 0.930 . S
H713 C685 0.929 . S
H714 C687 0.930 . S
H715 C688 0.929 . S
H716 C693 0.930 . S
H717 C694 0.929 . S
H718 C696 0.930 . S
H719 C697 0.929 . S
Nd720 C722 2.836 . S
Nd720 O740 2.500 . S
Nd720 O741 2.492 . S
Nd720 O742 2.487 . S
Nd720 O743 2.682 . S
Nd720 O744 2.410 . S
Nd720 O749 2.414 . S
Nd720 O751 2.424 . S
Nd721 C731 2.836 . S
Nd721 O743 2.414 . S
Nd721 O745 2.424 . S
Nd721 O746 2.500 . S
Nd721 O747 2.492 . S
Nd721 O748 2.487 . S
Nd721 O749 2.682 . S
Nd721 O750 2.410 . S
C722 Nd720 2.836 . S
C722 C723 1.498 1_554 S
C722 O740 1.258 . S
C722 O741 1.239 . S
C723 C722 1.498 1_556 S
C723 C724 1.366 . S
C723 C728 1.407 . S
C724 C723 1.366 . S
C724 C725 1.392 . S
C724 H752 0.930 . S
C725 C724 1.392 . S
C725 C726 1.398 . S
C725 H753 0.929 . S
C726 C725 1.398 . S
C726 C727 1.352 . S
C727 C726 1.352 . S
C727 C728 1.384 . S
C727 H754 0.930 . S
C728 C723 1.407 . S
C728 C727 1.384 . S
C728 H755 0.929 . S
C729 O742 1.241 . S
C729 O743 1.273 . S
C730 O744 1.251 . S
C730 O745 1.268 . S
C731 Nd721 2.836 . S
C731 C732 1.498 . S
C731 O746 1.258 . S
C731 O747 1.239 . S
C732 C731 1.498 . S
C732 C733 1.366 . S
C732 C737 1.407 1_655 S
C733 C732 1.366 . S
C733 C734 1.392 . S
C733 H756 0.930 . S
C734 C733 1.392 . S
C734 C735 1.398 . S
C734 H757 0.929 . S
C735 C734 1.398 . S
C735 C736 1.352 1_655 S
C736 C735 1.352 1_455 S
C736 C737 1.384 . S
C736 H758 0.930 . S
C737 C732 1.407 1_455 S
C737 C736 1.384 . S
C737 H759 0.929 . S
C738 O748 1.241 . S
C738 O749 1.273 . S
C739 O750 1.251 . S
C739 O751 1.268 . S
O740 Nd720 2.500 . S
O740 C722 1.258 . S
O741 Nd720 2.492 . S
O741 C722 1.239 . S
O742 Nd720 2.487 . S
O742 C729 1.241 . S
O743 Nd720 2.682 . S
O743 Nd721 2.414 . S
O743 C729 1.273 . S
O744 Nd720 2.410 . S
O744 C730 1.251 . S
O745 Nd721 2.424 . S
O745 C730 1.268 . S
O746 Nd721 2.500 . S
O746 C731 1.258 . S
O747 Nd721 2.492 . S
O747 C731 1.239 . S
O748 Nd721 2.487 . S
O748 C738 1.241 . S
O749 Nd720 2.414 . S
O749 Nd721 2.682 . S
O749 C738 1.273 . S
O750 Nd721 2.410 . S
O750 C739 1.251 . S
O751 Nd720 2.424 . S
O751 C739 1.268 . S
H752 C724 0.930 . S
H753 C725 0.929 . S
H754 C727 0.930 . S
H755 C728 0.929 . S
H756 C733 0.930 . S
H757 C734 0.929 . S
H758 C736 0.930 . S
H759 C737 0.929 . S
Nd760 C762 2.836 . S
Nd760 O780 2.500 . S
Nd760 O781 2.492 . S
Nd760 O782 2.487 . S
Nd760 O783 2.682 . S
Nd760 O784 2.410 . S
Nd760 O789 2.414 . S
Nd760 O791 2.424 . S
Nd761 C771 2.836 . S
Nd761 O783 2.414 . S
Nd761 O785 2.424 . S
Nd761 O786 2.500 . S
Nd761 O787 2.492 . S
Nd761 O788 2.487 . S
Nd761 O789 2.682 . S
Nd761 O790 2.410 . S
C762 Nd760 2.836 . S
C762 C763 1.498 . S
C762 O780 1.258 . S
C762 O781 1.239 . S
C763 C762 1.498 . S
C763 C764 1.366 . S
C763 C768 1.407 . S
C764 C763 1.366 . S
C764 C765 1.392 . S
C764 H792 0.930 . S
C765 C764 1.392 . S
C765 C766 1.398 . S
C765 H793 0.929 . S
C766 C765 1.398 . S
C766 C767 1.352 . S
C767 C766 1.352 . S
C767 C768 1.384 . S
C767 H794 0.930 . S
C768 C763 1.407 . S
C768 C767 1.384 . S
C768 H795 0.929 . S
C769 O782 1.241 . S
C769 O783 1.273 . S
C770 O784 1.251 . S
C770 O785 1.268 . S
C771 Nd761 2.836 . S
C771 C772 1.498 . S
C771 O786 1.258 . S
C771 O787 1.239 . S
C772 C771 1.498 . S
C772 C773 1.366 . S
C772 C777 1.407 . S
C773 C772 1.366 . S
C773 C774 1.392 . S
C773 H796 0.930 . S
C774 C773 1.392 . S
C774 C775 1.398 . S
C774 H797 0.929 . S
C775 C774 1.398 . S
C775 C776 1.352 . S
C776 C775 1.352 . S
C776 C777 1.384 . S
C776 H798 0.930 . S
C777 C772 1.407 . S
C777 C776 1.384 . S
C777 H799 0.929 . S
C778 O788 1.241 . S
C778 O789 1.273 . S
C779 O790 1.251 . S
C779 O791 1.268 . S
O780 Nd760 2.500 . S
O780 C762 1.258 . S
O781 Nd760 2.492 . S
O781 C762 1.239 . S
O782 Nd760 2.487 . S
O782 C769 1.241 . S
O783 Nd760 2.682 . S
O783 Nd761 2.414 . S
O783 C769 1.273 . S
O784 Nd760 2.410 . S
O784 C770 1.251 . S
O785 Nd761 2.424 . S
O785 C770 1.268 . S
O786 Nd761 2.500 . S
O786 C771 1.258 . S
O787 Nd761 2.492 . S
O787 C771 1.239 . S
O788 Nd761 2.487 . S
O788 C778 1.241 . S
O789 Nd760 2.414 . S
O789 Nd761 2.682 . S
O789 C778 1.273 . S
O790 Nd761 2.410 . S
O790 C779 1.251 . S
O791 Nd760 2.424 . S
O791 C779 1.268 . S
H792 C764 0.930 . S
H793 C765 0.929 . S
H794 C767 0.930 . S
H795 C768 0.929 . S
H796 C773 0.930 . S
H797 C774 0.929 . S
H798 C776 0.930 . S
H799 C777 0.929 . S
Nd800 C802 2.836 1_544 S
Nd800 O820 2.500 1_554 S
Nd800 O821 2.492 1_544 S
Nd800 O822 2.487 1_545 S
Nd800 O823 2.682 . S
Nd800 O824 2.410 1_554 S
Nd800 O829 2.414 . S
Nd800 O831 2.424 . S
Nd801 C811 2.836 . S
Nd801 O823 2.414 . S
Nd801 O825 2.424 . S
Nd801 O826 2.500 . S
Nd801 O827 2.492 . S
Nd801 O828 2.487 . S
Nd801 O829 2.682 . S
Nd801 O830 2.410 . S
C802 Nd800 2.836 1_566 S
C802 C803 1.498 . S
C802 O820 1.258 1_565 S
C802 O821 1.239 . S
C803 C802 1.498 . S
C803 C804 1.366 1_565 S
C803 C808 1.407 . S
C804 C803 1.366 1_545 S
C804 C805 1.392 1_545 S
C804 H832 0.930 . S
C805 C804 1.392 1_565 S
C805 C806 1.398 . S
C805 H833 0.929 1_565 S
C806 C805 1.398 . S
C806 C807 1.352 . S
C807 C806 1.352 . S
C807 C808 1.384 . S
C807 H834 0.930 . S
C808 C803 1.407 . S
C808 C807 1.384 . S
C808 H835 0.929 . S
C809 O822 1.241 1_545 S
C809 O823 1.273 . S
C810 O824 1.251 . S
C810 O825 1.268 1_556 S
C811 Nd801 2.836 . S
C811 C812 1.498 . S
C811 O826 1.258 . S
C811 O827 1.239 . S
C812 C811 1.498 . S
C812 C813 1.366 . S
C812 C817 1.407 . S
C813 C812 1.366 . S
C813 C814 1.392 . S
C813 H836 0.930 . S
C814 C813 1.392 . S
C814 C815 1.398 . S
C814 H837 0.929 . S
C815 C814 1.398 . S
C815 C816 1.352 . S
C816 C815 1.352 . S
C816 C817 1.384 . S
C816 H838 0.930 . S
C817 C812 1.407 . S
C817 C816 1.384 . S
C817 H839 0.929 . S
C818 O828 1.241 . S
C818 O829 1.273 . S
C819 O830 1.251 . S
C819 O831 1.268 . S
O820 Nd800 2.500 1_556 S
O820 C802 1.258 1_545 S
O821 Nd800 2.492 1_566 S
O821 C802 1.239 . S
O822 Nd800 2.487 1_565 S
O822 C809 1.241 1_565 S
O823 Nd800 2.682 . S
O823 Nd801 2.414 . S
O823 C809 1.273 . S
O824 Nd800 2.410 1_556 S
O824 C810 1.251 . S
O825 Nd801 2.424 . S
O825 C810 1.268 1_554 S
O826 Nd801 2.500 . S
O826 C811 1.258 . S
O827 Nd801 2.492 . S
O827 C811 1.239 . S
O828 Nd801 2.487 . S
O828 C818 1.241 . S
O829 Nd800 2.414 . S
O829 Nd801 2.682 . S
O829 C818 1.273 . S
O830 Nd801 2.410 . S
O830 C819 1.251 . S
O831 Nd800 2.424 . S
O831 C819 1.268 . S
H832 C804 0.930 . S
H833 C805 0.929 1_545 S
H834 C807 0.930 . S
H835 C808 0.929 . S
H836 C813 0.930 . S
H837 C814 0.929 . S
H838 C816 0.930 . S
H839 C817 0.929 . S
Nd840 C842 2.836 . S
Nd840 O860 2.500 . S
Nd840 O861 2.492 . S
Nd840 O862 2.487 . S
Nd840 O863 2.682 . S
Nd840 O864 2.410 . S
Nd840 O869 2.414 . S
Nd840 O871 2.424 . S
Nd841 C851 2.836 . S
Nd841 O863 2.414 . S
Nd841 O865 2.424 . S
Nd841 O866 2.500 . S
Nd841 O867 2.492 . S
Nd841 O868 2.487 . S
Nd841 O869 2.682 . S
Nd841 O870 2.410 . S
C842 Nd840 2.836 . S
C842 C843 1.498 . S
C842 O860 1.258 . S
C842 O861 1.239 . S
C843 C842 1.498 . S
C843 C844 1.366 . S
C843 C848 1.407 . S
C844 C843 1.366 . S
C844 C845 1.392 . S
C844 H872 0.930 . S
C845 C844 1.392 . S
C845 C846 1.398 . S
C845 H873 0.929 . S
C846 C845 1.398 . S
C846 C847 1.352 . S
C847 C846 1.352 . S
C847 C848 1.384 . S
C847 H874 0.930 . S
C848 C843 1.407 . S
C848 C847 1.384 . S
C848 H875 0.929 . S
C849 O862 1.241 . S
C849 O863 1.273 . S
C850 O864 1.251 . S
C850 O865 1.268 . S
C851 Nd841 2.836 . S
C851 C852 1.498 . S
C851 O866 1.258 . S
C851 O867 1.239 . S
C852 C851 1.498 . S
C852 C853 1.366 . S
C852 C857 1.407 . S
C853 C852 1.366 . S
C853 C854 1.392 . S
C853 H876 0.930 . S
C854 C853 1.392 . S
C854 C855 1.398 . S
C854 H877 0.929 . S
C855 C854 1.398 . S
C855 C856 1.352 . S
C856 C855 1.352 . S
C856 C857 1.384 . S
C856 H878 0.930 . S
C857 C852 1.407 . S
C857 C856 1.384 . S
C857 H879 0.929 . S
C858 O868 1.241 . S
C858 O869 1.273 . S
C859 O870 1.251 . S
C859 O871 1.268 . S
O860 Nd840 2.500 . S
O860 C842 1.258 . S
O861 Nd840 2.492 . S
O861 C842 1.239 . S
O862 Nd840 2.487 . S
O862 C849 1.241 . S
O863 Nd840 2.682 . S
O863 Nd841 2.414 . S
O863 C849 1.273 . S
O864 Nd840 2.410 . S
O864 C850 1.251 . S
O865 Nd841 2.424 . S
O865 C850 1.268 . S
O866 Nd841 2.500 . S
O866 C851 1.258 . S
O867 Nd841 2.492 . S
O867 C851 1.239 . S
O868 Nd841 2.487 . S
O868 C858 1.241 . S
O869 Nd840 2.414 . S
O869 Nd841 2.682 . S
O869 C858 1.273 . S
O870 Nd841 2.410 . S
O870 C859 1.251 . S
O871 Nd840 2.424 . S
O871 C859 1.268 . S
H872 C844 0.930 . S
H873 C845 0.929 . S
H874 C847 0.930 . S
H875 C848 0.929 . S
H876 C853 0.930 . S
H877 C854 0.929 . S
H878 C856 0.930 . S
H879 C857 0.929 . S
Nd880 C882 2.836 1_565 S
Nd880 O900 2.500 . S
Nd880 O901 2.492 1_565 S
Nd880 O902 2.487 1_565 S
Nd880 O903 2.682 . S
Nd880 O904 2.410 . S
Nd880 O909 2.414 . S
Nd880 O911 2.424 . S
Nd881 C891 2.836 . S
Nd881 O903 2.414 . S
Nd881 O905 2.424 . S
Nd881 O906 2.500 . S
Nd881 O907 2.492 . S
Nd881 O908 2.487 . S
Nd881 O909 2.682 . S
Nd881 O910 2.410 . S
C882 Nd880 2.836 1_545 S
C882 C883 1.498 . S
C882 O900 1.258 1_545 S
C882 O901 1.239 . S
C883 C882 1.498 . S
C883 C884 1.366 1_545 S
C883 C888 1.407 . S
C884 C883 1.366 1_565 S
C884 C885 1.392 1_565 S
C884 H912 0.930 . S
C885 C884 1.392 1_545 S
C885 C886 1.398 . S
C885 H913 0.929 1_545 S
C886 C885 1.398 . S
C886 C887 1.352 . S
C887 C886 1.352 . S
C887 C888 1.384 . S
C887 H914 0.930 . S
C888 C883 1.407 . S
C888 C887 1.384 . S
C888 H915 0.929 . S
C889 O902 1.241 1_565 S
C889 O903 1.273 . S
C890 O904 1.251 . S
C890 O905 1.268 . S
C891 Nd881 2.836 . S
C891 C892 1.498 . S
C891 O906 1.258 . S
C891 O907 1.239 . S
C892 C891 1.498 . S
C892 C893 1.366 . S
C892 C897 1.407 . S
C893 C892 1.366 . S
C893 C894 1.392 . S
C893 H916 0.930 . S
C894 C893 1.392 . S
C894 C895 1.398 . S
C894 H917 0.929 . S
C895 C894 1.398 . S
C895 C896 1.352 . S
C896 C895 1.352 . S
C896 C897 1.384 . S
C896 H918 0.930 . S
C897 C892 1.407 . S
C897 C896 1.384 . S
C897 H919 0.929 . S
C898 O908 1.241 . S
C898 O909 1.273 . S
C899 O910 1.251 . S
C899 O911 1.268 . S
O900 Nd880 2.500 . S
O900 C882 1.258 1_565 S
O901 Nd880 2.492 1_545 S
O901 C882 1.239 . S
O902 Nd880 2.487 1_545 S
O902 C889 1.241 1_545 S
O903 Nd880 2.682 . S
O903 Nd881 2.414 . S
O903 C889 1.273 . S
O904 Nd880 2.410 . S
O904 C890 1.251 . S
O905 Nd881 2.424 . S
O905 C890 1.268 . S
O906 Nd881 2.500 . S
O906 C891 1.258 . S
O907 Nd881 2.492 . S
O907 C891 1.239 . S
O908 Nd881 2.487 . S
O908 C898 1.241 . S
O909 Nd880 2.414 . S
O909 Nd881 2.682 . S
O909 C898 1.273 . S
O910 Nd881 2.410 . S
O910 C899 1.251 . S
O911 Nd880 2.424 . S
O911 C899 1.268 . S
H912 C884 0.930 . S
H913 C885 0.929 1_565 S
H914 C887 0.930 . S
H915 C888 0.929 . S
H916 C893 0.930 . S
H917 C894 0.929 . S
H918 C896 0.930 . S
H919 C897 0.929 . S
Nd920 C922 2.836 . S
Nd920 O940 2.500 . S
Nd920 O941 2.492 . S
Nd920 O942 2.487 . S
Nd920 O943 2.682 . S
Nd920 O944 2.410 . S
Nd920 O949 2.414 . S
Nd920 O951 2.424 . S
Nd921 C931 2.836 . S
Nd921 O943 2.414 . S
Nd921 O945 2.424 . S
Nd921 O946 2.500 . S
Nd921 O947 2.492 . S
Nd921 O948 2.487 . S
Nd921 O949 2.682 . S
Nd921 O950 2.410 . S
C922 Nd920 2.836 . S
C922 C923 1.498 . S
C922 O940 1.258 . S
C922 O941 1.239 . S
C923 C922 1.498 . S
C923 C924 1.366 . S
C923 C928 1.407 . S
C924 C923 1.366 . S
C924 C925 1.392 . S
C924 H952 0.930 . S
C925 C924 1.392 . S
C925 C926 1.398 . S
C925 H953 0.929 . S
C926 C925 1.398 . S
C926 C927 1.352 . S
C927 C926 1.352 . S
C927 C928 1.384 . S
C927 H954 0.930 . S
C928 C923 1.407 . S
C928 C927 1.384 . S
C928 H955 0.929 . S
C929 O942 1.241 . S
C929 O943 1.273 . S
C930 O944 1.251 . S
C930 O945 1.268 . S
C931 Nd921 2.836 . S
C931 C932 1.498 . S
C931 O946 1.258 . S
C931 O947 1.239 . S
C932 C931 1.498 . S
C932 C933 1.366 . S
C932 C937 1.407 . S
C933 C932 1.366 . S
C933 C934 1.392 1_556 S
C933 H956 0.930 . S
C934 C933 1.392 1_554 S
C934 C935 1.398 . S
C934 H957 0.929 . S
C935 C934 1.398 . S
C935 C936 1.352 . S
C936 C935 1.352 . S
C936 C937 1.384 1_554 S
C936 H958 0.930 . S
C937 C932 1.407 . S
C937 C936 1.384 1_556 S
C937 H959 0.929 . S
C938 O948 1.241 . S
C938 O949 1.273 . S
C939 O950 1.251 . S
C939 O951 1.268 . S
O940 Nd920 2.500 . S
O940 C922 1.258 . S
O941 Nd920 2.492 . S
O941 C922 1.239 . S
O942 Nd920 2.487 . S
O942 C929 1.241 . S
O943 Nd920 2.682 . S
O943 Nd921 2.414 . S
O943 C929 1.273 . S
O944 Nd920 2.410 . S
O944 C930 1.251 . S
O945 Nd921 2.424 . S
O945 C930 1.268 . S
O946 Nd921 2.500 . S
O946 C931 1.258 . S
O947 Nd921 2.492 . S
O947 C931 1.239 . S
O948 Nd921 2.487 . S
O948 C938 1.241 . S
O949 Nd920 2.414 . S
O949 Nd921 2.682 . S
O949 C938 1.273 . S
O950 Nd921 2.410 . S
O950 C939 1.251 . S
O951 Nd920 2.424 . S
O951 C939 1.268 . S
H952 C924 0.930 . S
H953 C925 0.929 . S
H954 C927 0.930 . S
H955 C928 0.929 . S
H956 C933 0.930 . S
H957 C934 0.929 . S
H958 C936 0.930 . S
H959 C937 0.929 . S
Nd960 C962 2.836 . S
Nd960 O980 2.500 . S
Nd960 O981 2.492 . S
Nd960 O982 2.487 . S
Nd960 O983 2.682 . S
Nd960 O984 2.410 . S
Nd960 O989 2.414 . S
Nd960 O991 2.424 . S
Nd961 C971 2.836 . S
Nd961 O983 2.414 . S
Nd961 O985 2.424 . S
Nd961 O986 2.500 . S
Nd961 O987 2.492 . S
Nd961 O988 2.487 . S
Nd961 O989 2.682 . S
Nd961 O990 2.410 . S
C962 Nd960 2.836 . S
C962 C963 1.498 . S
C962 O980 1.258 . S
C962 O981 1.239 . S
C963 C962 1.498 . S
C963 C964 1.366 . S
C963 C968 1.407 . S
C964 C963 1.366 . S
C964 C965 1.392 . S
C964 H992 0.930 . S
C965 C964 1.392 . S
C965 C966 1.398 . S
C965 H993 0.929 . S
C966 C965 1.398 . S
C966 C967 1.352 . S
C967 C966 1.352 . S
C967 C968 1.384 . S
C967 H994 0.930 . S
C968 C963 1.407 . S
C968 C967 1.384 . S
C968 H995 0.929 . S
C969 O982 1.241 . S
C969 O983 1.273 . S
C970 O984 1.251 . S
C970 O985 1.268 . S
C971 Nd961 2.836 . S
C971 C972 1.498 . S
C971 O986 1.258 . S
C971 O987 1.239 . S
C972 C971 1.498 . S
C972 C973 1.366 . S
C972 C977 1.407 . S
C973 C972 1.366 . S
C973 C974 1.392 . S
C973 H996 0.930 . S
C974 C973 1.392 . S
C974 C975 1.398 . S
C974 H997 0.929 . S
C975 C974 1.398 . S
C975 C976 1.352 . S
C976 C975 1.352 . S
C976 C977 1.384 . S
C976 H998 0.930 . S
C977 C972 1.407 . S
C977 C976 1.384 . S
C977 H999 0.929 . S
C978 O988 1.241 . S
C978 O989 1.273 . S
C979 O990 1.251 . S
C979 O991 1.268 . S
O980 Nd960 2.500 . S
O980 C962 1.258 . S
O981 Nd960 2.492 . S
O981 C962 1.239 . S
O982 Nd960 2.487 . S
O982 C969 1.241 . S
O983 Nd960 2.682 . S
O983 Nd961 2.414 . S
O983 C969 1.273 . S
O984 Nd960 2.410 . S
O984 C970 1.251 . S
O985 Nd961 2.424 . S
O985 C970 1.268 . S
O986 Nd961 2.500 . S
O986 C971 1.258 . S
O987 Nd961 2.492 . S
O987 C971 1.239 . S
O988 Nd961 2.487 . S
O988 C978 1.241 . S
O989 Nd960 2.414 . S
O989 Nd961 2.682 . S
O989 C978 1.273 . S
O990 Nd961 2.410 . S
O990 C979 1.251 . S
O991 Nd960 2.424 . S
O991 C979 1.268 . S
H992 C964 0.930 . S
H993 C965 0.929 . S
H994 C967 0.930 . S
H995 C968 0.929 . S
H996 C973 0.930 . S
H997 C974 0.929 . S
H998 C976 0.930 . S
H999 C977 0.929 . S
Nd1000 C1002 2.836 . S
Nd1000 O1020 2.500 . S
Nd1000 O1021 2.492 . S
Nd1000 O1022 2.487 . S
Nd1000 O1023 2.682 . S
Nd1000 O1024 2.410 . S
Nd1000 O1029 2.414 . S
Nd1000 O1031 2.424 . S
Nd1001 C1011 2.836 . S
Nd1001 O1023 2.414 . S
Nd1001 O1025 2.424 . S
Nd1001 O1026 2.500 . S
Nd1001 O1027 2.492 . S
Nd1001 O1028 2.487 . S
Nd1001 O1029 2.682 . S
Nd1001 O1030 2.410 . S
C1002 Nd1000 2.836 . S
C1002 C1003 1.498 . S
C1002 O1020 1.258 . S
C1002 O1021 1.239 . S
C1003 C1002 1.498 . S
C1003 C1004 1.366 . S
C1003 C1008 1.407 . S
C1004 C1003 1.366 . S
C1004 C1005 1.392 . S
C1004 H1032 0.930 . S
C1005 C1004 1.392 . S
C1005 C1006 1.398 . S
C1005 H1033 0.929 . S
C1006 C1005 1.398 . S
C1006 C1007 1.352 . S
C1007 C1006 1.352 . S
C1007 C1008 1.384 . S
C1007 H1034 0.930 . S
C1008 C1003 1.407 . S
C1008 C1007 1.384 . S
C1008 H1035 0.929 . S
C1009 O1022 1.241 . S
C1009 O1023 1.273 . S
C1010 O1024 1.251 . S
C1010 O1025 1.268 . S
C1011 Nd1001 2.836 . S
C1011 C1012 1.498 . S
C1011 O1026 1.258 . S
C1011 O1027 1.239 . S
C1012 C1011 1.498 . S
C1012 C1013 1.366 . S
C1012 C1017 1.407 . S
C1013 C1012 1.366 . S
C1013 C1014 1.392 . S
C1013 H1036 0.930 . S
C1014 C1013 1.392 . S
C1014 C1015 1.398 . S
C1014 H1037 0.929 . S
C1015 C1014 1.398 . S
C1015 C1016 1.352 . S
C1016 C1015 1.352 . S
C1016 C1017 1.384 . S
C1016 H1038 0.930 . S
C1017 C1012 1.407 . S
C1017 C1016 1.384 . S
C1017 H1039 0.929 . S
C1018 O1028 1.241 . S
C1018 O1029 1.273 . S
C1019 O1030 1.251 . S
C1019 O1031 1.268 . S
O1020 Nd1000 2.500 . S
O1020 C1002 1.258 . S
O1021 Nd1000 2.492 . S
O1021 C1002 1.239 . S
O1022 Nd1000 2.487 . S
O1022 C1009 1.241 . S
O1023 Nd1000 2.682 . S
O1023 Nd1001 2.414 . S
O1023 C1009 1.273 . S
O1024 Nd1000 2.410 . S
O1024 C1010 1.251 . S
O1025 Nd1001 2.424 . S
O1025 C1010 1.268 . S
O1026 Nd1001 2.500 . S
O1026 C1011 1.258 . S
O1027 Nd1001 2.492 . S
O1027 C1011 1.239 . S
O1028 Nd1001 2.487 . S
O1028 C1018 1.241 . S
O1029 Nd1000 2.414 . S
O1029 Nd1001 2.682 . S
O1029 C1018 1.273 . S
O1030 Nd1001 2.410 . S
O1030 C1019 1.251 . S
O1031 Nd1000 2.424 . S
O1031 C1019 1.268 . S
H1032 C1004 0.930 . S
H1033 C1005 0.929 . S
H1034 C1007 0.930 . S
H1035 C1008 0.929 . S
H1036 C1013 0.930 . S
H1037 C1014 0.929 . S
H1038 C1016 0.930 . S
H1039 C1017 0.929 . S
Nd1040 C1042 2.836 . S
Nd1040 O1060 2.500 . S
Nd1040 O1061 2.492 . S
Nd1040 O1062 2.487 . S
Nd1040 O1063 2.682 . S
Nd1040 O1064 2.410 . S
Nd1040 O1069 2.414 . S
Nd1040 O1071 2.424 . S
Nd1041 C1051 2.836 . S
Nd1041 O1063 2.414 . S
Nd1041 O1065 2.424 . S
Nd1041 O1066 2.500 . S
Nd1041 O1067 2.492 . S
Nd1041 O1068 2.487 . S
Nd1041 O1069 2.682 . S
Nd1041 O1070 2.410 . S
C1042 Nd1040 2.836 . S
C1042 C1043 1.498 . S
C1042 O1060 1.258 . S
C1042 O1061 1.239 . S
C1043 C1042 1.498 . S
C1043 C1044 1.366 . S
C1043 C1048 1.407 1_455 S
C1044 C1043 1.366 . S
C1044 C1045 1.392 1_554 S
C1044 H1072 0.930 . S
C1045 C1044 1.392 1_556 S
C1045 C1046 1.398 . S
C1045 H1073 0.929 . S
C1046 C1045 1.398 . S
C1046 C1047 1.352 1_455 S
C1047 C1046 1.352 1_655 S
C1047 C1048 1.384 1_556 S
C1047 H1074 0.930 . S
C1048 C1043 1.407 1_655 S
C1048 C1047 1.384 1_554 S
C1048 H1075 0.929 . S
C1049 O1062 1.241 . S
C1049 O1063 1.273 . S
C1050 O1064 1.251 . S
C1050 O1065 1.268 . S
C1051 Nd1041 2.836 . S
C1051 C1052 1.498 . S
C1051 O1066 1.258 . S
C1051 O1067 1.239 . S
C1052 C1051 1.498 . S
C1052 C1053 1.366 . S
C1052 C1057 1.407 . S
C1053 C1052 1.366 . S
C1053 C1054 1.392 . S
C1053 H1076 0.930 . S
C1054 C1053 1.392 . S
C1054 C1055 1.398 . S
C1054 H1077 0.929 . S
C1055 C1054 1.398 . S
C1055 C1056 1.352 . S
C1056 C1055 1.352 . S
C1056 C1057 1.384 . S
C1056 H1078 0.930 . S
C1057 C1052 1.407 . S
C1057 C1056 1.384 . S
C1057 H1079 0.929 . S
C1058 O1068 1.241 . S
C1058 O1069 1.273 . S
C1059 O1070 1.251 . S
C1059 O1071 1.268 . S
O1060 Nd1040 2.500 . S
O1060 C1042 1.258 . S
O1061 Nd1040 2.492 . S
O1061 C1042 1.239 . S
O1062 Nd1040 2.487 . S
O1062 C1049 1.241 . S
O1063 Nd1040 2.682 . S
O1063 Nd1041 2.414 . S
O1063 C1049 1.273 . S
O1064 Nd1040 2.410 . S
O1064 C1050 1.251 . S
O1065 Nd1041 2.424 . S
O1065 C1050 1.268 . S
O1066 Nd1041 2.500 . S
O1066 C1051 1.258 . S
O1067 Nd1041 2.492 . S
O1067 C1051 1.239 . S
O1068 Nd1041 2.487 . S
O1068 C1058 1.241 . S
O1069 Nd1040 2.414 . S
O1069 Nd1041 2.682 . S
O1069 C1058 1.273 . S
O1070 Nd1041 2.410 . S
O1070 C1059 1.251 . S
O1071 Nd1040 2.424 . S
O1071 C1059 1.268 . S
H1072 C1044 0.930 . S
H1073 C1045 0.929 . S
H1074 C1047 0.930 . S
H1075 C1048 0.929 . S
H1076 C1053 0.930 . S
H1077 C1054 0.929 . S
H1078 C1056 0.930 . S
H1079 C1057 0.929 . S
Nd1080 C1082 2.836 . S
Nd1080 O1100 2.500 . S
Nd1080 O1101 2.492 . S
Nd1080 O1102 2.487 . S
Nd1080 O1103 2.682 . S
Nd1080 O1104 2.410 . S
Nd1080 O1109 2.414 . S
Nd1080 O1111 2.424 . S
Nd1081 C1091 2.836 1_556 S
Nd1081 O1103 2.414 . S
Nd1081 O1105 2.424 . S
Nd1081 O1106 2.500 1_556 S
Nd1081 O1107 2.492 1_556 S
Nd1081 O1108 2.487 . S
Nd1081 O1109 2.682 . S
Nd1081 O1110 2.410 1_556 S
C1082 Nd1080 2.836 . S
C1082 C1083 1.498 . S
C1082 O1100 1.258 . S
C1082 O1101 1.239 . S
C1083 C1082 1.498 . S
C1083 C1084 1.366 . S
C1083 C1088 1.407 . S
C1084 C1083 1.366 . S
C1084 C1085 1.392 . S
C1084 H1112 0.930 . S
C1085 C1084 1.392 . S
C1085 C1086 1.398 . S
C1085 H1113 0.929 . S
C1086 C1085 1.398 . S
C1086 C1087 1.352 . S
C1087 C1086 1.352 . S
C1087 C1088 1.384 . S
C1087 H1114 0.930 . S
C1088 C1083 1.407 . S
C1088 C1087 1.384 . S
C1088 H1115 0.929 . S
C1089 O1102 1.241 . S
C1089 O1103 1.273 . S
C1090 O1104 1.251 . S
C1090 O1105 1.268 . S
C1091 Nd1081 2.836 1_554 S
C1091 C1092 1.498 . S
C1091 O1106 1.258 . S
C1091 O1107 1.239 . S
C1092 C1091 1.498 . S
C1092 C1093 1.366 . S
C1092 C1097 1.407 . S
C1093 C1092 1.366 . S
C1093 C1094 1.392 . S
C1093 H1116 0.930 . S
C1094 C1093 1.392 . S
C1094 C1095 1.398 . S
C1094 H1117 0.929 . S
C1095 C1094 1.398 . S
C1095 C1096 1.352 . S
C1096 C1095 1.352 . S
C1096 C1097 1.384 . S
C1096 H1118 0.930 . S
C1097 C1092 1.407 . S
C1097 C1096 1.384 . S
C1097 H1119 0.929 . S
C1098 O1108 1.241 . S
C1098 O1109 1.273 . S
C1099 O1110 1.251 . S
C1099 O1111 1.268 1_554 S
O1100 Nd1080 2.500 . S
O1100 C1082 1.258 . S
O1101 Nd1080 2.492 . S
O1101 C1082 1.239 . S
O1102 Nd1080 2.487 . S
O1102 C1089 1.241 . S
O1103 Nd1080 2.682 . S
O1103 Nd1081 2.414 . S
O1103 C1089 1.273 . S
O1104 Nd1080 2.410 . S
O1104 C1090 1.251 . S
O1105 Nd1081 2.424 . S
O1105 C1090 1.268 . S
O1106 Nd1081 2.500 1_554 S
O1106 C1091 1.258 . S
O1107 Nd1081 2.492 1_554 S
O1107 C1091 1.239 . S
O1108 Nd1081 2.487 . S
O1108 C1098 1.241 . S
O1109 Nd1080 2.414 . S
O1109 Nd1081 2.682 . S
O1109 C1098 1.273 . S
O1110 Nd1081 2.410 1_554 S
O1110 C1099 1.251 . S
O1111 Nd1080 2.424 . S
O1111 C1099 1.268 1_556 S
H1112 C1084 0.930 . S
H1113 C1085 0.929 . S
H1114 C1087 0.930 . S
H1115 C1088 0.929 . S
H1116 C1093 0.930 . S
H1117 C1094 0.929 . S
H1118 C1096 0.930 . S
H1119 C1097 0.929 . S
Nd1120 C1122 2.836 . S
Nd1120 O1140 2.500 . S
Nd1120 O1141 2.492 . S
Nd1120 O1142 2.487 . S
Nd1120 O1143 2.682 . S
Nd1120 O1144 2.410 . S
Nd1120 O1149 2.414 . S
Nd1120 O1151 2.424 . S
Nd1121 C1131 2.836 1_565 S
Nd1121 O1143 2.414 . S
Nd1121 O1145 2.424 . S
Nd1121 O1146 2.500 . S
Nd1121 O1147 2.492 1_565 S
Nd1121 O1148 2.487 1_565 S
Nd1121 O1149 2.682 . S
Nd1121 O1150 2.410 . S
C1122 Nd1120 2.836 . S
C1122 C1123 1.498 . S
C1122 O1140 1.258 . S
C1122 O1141 1.239 . S
C1123 C1122 1.498 . S
C1123 C1124 1.366 . S
C1123 C1128 1.407 . S
C1124 C1123 1.366 . S
C1124 C1125 1.392 . S
C1124 H1152 0.930 . S
C1125 C1124 1.392 . S
C1125 C1126 1.398 . S
C1125 H1153 0.929 . S
C1126 C1125 1.398 . S
C1126 C1127 1.352 . S
C1127 C1126 1.352 . S
C1127 C1128 1.384 . S
C1127 H1154 0.930 . S
C1128 C1123 1.407 . S
C1128 C1127 1.384 . S
C1128 H1155 0.929 . S
C1129 O1142 1.241 . S
C1129 O1143 1.273 . S
C1130 O1144 1.251 . S
C1130 O1145 1.268 . S
C1131 Nd1121 2.836 1_545 S
C1131 C1132 1.498 . S
C1131 O1146 1.258 1_545 S
C1131 O1147 1.239 . S
C1132 C1131 1.498 . S
C1132 C1133 1.366 1_545 S
C1132 C1137 1.407 . S
C1133 C1132 1.366 1_565 S
C1133 C1134 1.392 1_565 S
C1133 H1156 0.930 . S
C1134 C1133 1.392 1_545 S
C1134 C1135 1.398 . S
C1134 H1157 0.929 1_545 S
C1135 C1134 1.398 . S
C1135 C1136 1.352 . S
C1136 C1135 1.352 . S
C1136 C1137 1.384 . S
C1136 H1158 0.930 . S
C1137 C1132 1.407 . S
C1137 C1136 1.384 . S
C1137 H1159 0.929 . S
C1138 O1148 1.241 1_565 S
C1138 O1149 1.273 . S
C1139 O1150 1.251 . S
C1139 O1151 1.268 . S
O1140 Nd1120 2.500 . S
O1140 C1122 1.258 . S
O1141 Nd1120 2.492 . S
O1141 C1122 1.239 . S
O1142 Nd1120 2.487 . S
O1142 C1129 1.241 . S
O1143 Nd1120 2.682 . S
O1143 Nd1121 2.414 . S
O1143 C1129 1.273 . S
O1144 Nd1120 2.410 . S
O1144 C1130 1.251 . S
O1145 Nd1121 2.424 . S
O1145 C1130 1.268 . S
O1146 Nd1121 2.500 . S
O1146 C1131 1.258 1_565 S
O1147 Nd1121 2.492 1_545 S
O1147 C1131 1.239 . S
O1148 Nd1121 2.487 1_545 S
O1148 C1138 1.241 1_545 S
O1149 Nd1120 2.414 . S
O1149 Nd1121 2.682 . S
O1149 C1138 1.273 . S
O1150 Nd1121 2.410 . S
O1150 C1139 1.251 . S
O1151 Nd1120 2.424 . S
O1151 C1139 1.268 . S
H1152 C1124 0.930 . S
H1153 C1125 0.929 . S
H1154 C1127 0.930 . S
H1155 C1128 0.929 . S
H1156 C1133 0.930 . S
H1157 C1134 0.929 1_565 S
H1158 C1136 0.930 . S
H1159 C1137 0.929 . S
Nd1160 C1162 2.836 . S
Nd1160 O1180 2.500 . S
Nd1160 O1181 2.492 . S
Nd1160 O1182 2.487 . S
Nd1160 O1183 2.682 1_556 S
Nd1160 O1184 2.410 . S
Nd1160 O1189 2.414 . S
Nd1160 O1191 2.424 1_556 S
Nd1161 C1171 2.836 . S
Nd1161 O1183 2.414 . S
Nd1161 O1185 2.424 1_554 S
Nd1161 O1186 2.500 . S
Nd1161 O1187 2.492 . S
Nd1161 O1188 2.487 . S
Nd1161 O1189 2.682 1_554 S
Nd1161 O1190 2.410 . S
C1162 Nd1160 2.836 . S
C1162 C1163 1.498 . S
C1162 O1180 1.258 . S
C1162 O1181 1.239 . S
C1163 C1162 1.498 . S
C1163 C1164 1.366 . S
C1163 C1168 1.407 . S
C1164 C1163 1.366 . S
C1164 C1165 1.392 . S
C1164 H1192 0.930 . S
C1165 C1164 1.392 . S
C1165 C1166 1.398 . S
C1165 H1193 0.929 . S
C1166 C1165 1.398 . S
C1166 C1167 1.352 . S
C1167 C1166 1.352 . S
C1167 C1168 1.384 . S
C1167 H1194 0.930 . S
C1168 C1163 1.407 . S
C1168 C1167 1.384 . S
C1168 H1195 0.929 . S
C1169 O1182 1.241 1_554 S
C1169 O1183 1.273 . S
C1170 O1184 1.251 . S
C1170 O1185 1.268 . S
C1171 Nd1161 2.836 . S
C1171 C1172 1.498 . S
C1171 O1186 1.258 . S
C1171 O1187 1.239 . S
C1172 C1171 1.498 . S
C1172 C1173 1.366 . S
C1172 C1177 1.407 . S
C1173 C1172 1.366 . S
C1173 C1174 1.392 . S
C1173 H1196 0.930 . S
C1174 C1173 1.392 . S
C1174 C1175 1.398 . S
C1174 H1197 0.929 . S
C1175 C1174 1.398 . S
C1175 C1176 1.352 . S
C1176 C1175 1.352 . S
C1176 C1177 1.384 . S
C1176 H1198 0.930 . S
C1177 C1172 1.407 . S
C1177 C1176 1.384 . S
C1177 H1199 0.929 . S
C1178 O1188 1.241 1_556 S
C1178 O1189 1.273 . S
C1179 O1190 1.251 . S
C1179 O1191 1.268 . S
O1180 Nd1160 2.500 . S
O1180 C1162 1.258 . S
O1181 Nd1160 2.492 . S
O1181 C1162 1.239 . S
O1182 Nd1160 2.487 . S
O1182 C1169 1.241 1_556 S
O1183 Nd1160 2.682 1_554 S
O1183 Nd1161 2.414 . S
O1183 C1169 1.273 . S
O1184 Nd1160 2.410 . S
O1184 C1170 1.251 . S
O1185 Nd1161 2.424 1_556 S
O1185 C1170 1.268 . S
O1186 Nd1161 2.500 . S
O1186 C1171 1.258 . S
O1187 Nd1161 2.492 . S
O1187 C1171 1.239 . S
O1188 Nd1161 2.487 . S
O1188 C1178 1.241 1_554 S
O1189 Nd1160 2.414 . S
O1189 Nd1161 2.682 1_556 S
O1189 C1178 1.273 . S
O1190 Nd1161 2.410 . S
O1190 C1179 1.251 . S
O1191 Nd1160 2.424 1_554 S
O1191 C1179 1.268 . S
H1192 C1164 0.930 . S
H1193 C1165 0.929 . S
H1194 C1167 0.930 . S
H1195 C1168 0.929 . S
H1196 C1173 0.930 . S
H1197 C1174 0.929 . S
H1198 C1176 0.930 . S
H1199 C1177 0.929 . S
Nd1200 C1202 2.836 . S
Nd1200 O1220 2.500 . S
Nd1200 O1221 2.492 . S
Nd1200 O1222 2.487 . S
Nd1200 O1223 2.682 . S
Nd1200 O1224 2.410 . S
Nd1200 O1229 2.414 . S
Nd1200 O1231 2.424 . S
Nd1201 C1211 2.836 1_545 S
Nd1201 O1223 2.414 . S
Nd1201 O1225 2.424 . S
Nd1201 O1226 2.500 . S
Nd1201 O1227 2.492 1_545 S
Nd1201 O1228 2.487 1_545 S
Nd1201 O1229 2.682 . S
Nd1201 O1230 2.410 . S
C1202 Nd1200 2.836 . S
C1202 C1203 1.498 . S
C1202 O1220 1.258 . S
C1202 O1221 1.239 . S
C1203 C1202 1.498 . S
C1203 C1204 1.366 . S
C1203 C1208 1.407 . S
C1204 C1203 1.366 . S
C1204 C1205 1.392 . S
C1204 H1232 0.930 . S
C1205 C1204 1.392 . S
C1205 C1206 1.398 . S
C1205 H1233 0.929 . S
C1206 C1205 1.398 . S
C1206 C1207 1.352 . S
C1207 C1206 1.352 . S
C1207 C1208 1.384 . S
C1207 H1234 0.930 . S
C1208 C1203 1.407 . S
C1208 C1207 1.384 . S
C1208 H1235 0.929 . S
C1209 O1222 1.241 . S
C1209 O1223 1.273 . S
C1210 O1224 1.251 . S
C1210 O1225 1.268 . S
C1211 Nd1201 2.836 1_565 S
C1211 C1212 1.498 . S
C1211 O1226 1.258 1_565 S
C1211 O1227 1.239 . S
C1212 C1211 1.498 . S
C1212 C1213 1.366 1_565 S
C1212 C1217 1.407 . S
C1213 C1212 1.366 1_545 S
C1213 C1214 1.392 1_545 S
C1213 H1236 0.930 . S
C1214 C1213 1.392 1_565 S
C1214 C1215 1.398 . S
C1214 H1237 0.929 1_565 S
C1215 C1214 1.398 . S
C1215 C1216 1.352 . S
C1216 C1215 1.352 . S
C1216 C1217 1.384 . S
C1216 H1238 0.930 . S
C1217 C1212 1.407 . S
C1217 C1216 1.384 . S
C1217 H1239 0.929 . S
C1218 O1228 1.241 1_545 S
C1218 O1229 1.273 . S
C1219 O1230 1.251 . S
C1219 O1231 1.268 . S
O1220 Nd1200 2.500 . S
O1220 C1202 1.258 . S
O1221 Nd1200 2.492 . S
O1221 C1202 1.239 . S
O1222 Nd1200 2.487 . S
O1222 C1209 1.241 . S
O1223 Nd1200 2.682 . S
O1223 Nd1201 2.414 . S
O1223 C1209 1.273 . S
O1224 Nd1200 2.410 . S
O1224 C1210 1.251 . S
O1225 Nd1201 2.424 . S
O1225 C1210 1.268 . S
O1226 Nd1201 2.500 . S
O1226 C1211 1.258 1_545 S
O1227 Nd1201 2.492 1_565 S
O1227 C1211 1.239 . S
O1228 Nd1201 2.487 1_565 S
O1228 C1218 1.241 1_565 S
O1229 Nd1200 2.414 . S
O1229 Nd1201 2.682 . S
O1229 C1218 1.273 . S
O1230 Nd1201 2.410 . S
O1230 C1219 1.251 . S
O1231 Nd1200 2.424 . S
O1231 C1219 1.268 . S
H1232 C1204 0.930 . S
H1233 C1205 0.929 . S
H1234 C1207 0.930 . S
H1235 C1208 0.929 . S
H1236 C1213 0.930 . S
H1237 C1214 0.929 1_545 S
H1238 C1216 0.930 . S
H1239 C1217 0.929 . S
Nd1240 C1242 2.836 . S
Nd1240 O1260 2.500 . S
Nd1240 O1261 2.492 . S
Nd1240 O1262 2.487 . S
Nd1240 O1263 2.682 . S
Nd1240 O1264 2.410 . S
Nd1240 O1269 2.414 . S
Nd1240 O1271 2.424 . S
Nd1241 C1251 2.836 . S
Nd1241 O1263 2.414 . S
Nd1241 O1265 2.424 . S
Nd1241 O1266 2.500 . S
Nd1241 O1267 2.492 . S
Nd1241 O1268 2.487 . S
Nd1241 O1269 2.682 . S
Nd1241 O1270 2.410 . S
C1242 Nd1240 2.836 . S
C1242 C1243 1.498 . S
C1242 O1260 1.258 . S
C1242 O1261 1.239 . S
C1243 C1242 1.498 . S
C1243 C1244 1.366 . S
C1243 C1248 1.407 . S
C1244 C1243 1.366 . S
C1244 C1245 1.392 . S
C1244 H1272 0.930 . S
C1245 C1244 1.392 . S
C1245 C1246 1.398 . S
C1245 H1273 0.929 . S
C1246 C1245 1.398 . S
C1246 C1247 1.352 . S
C1247 C1246 1.352 . S
C1247 C1248 1.384 . S
C1247 H1274 0.930 . S
C1248 C1243 1.407 . S
C1248 C1247 1.384 . S
C1248 H1275 0.929 . S
C1249 O1262 1.241 . S
C1249 O1263 1.273 . S
C1250 O1264 1.251 . S
C1250 O1265 1.268 . S
C1251 Nd1241 2.836 . S
C1251 C1252 1.498 . S
C1251 O1266 1.258 . S
C1251 O1267 1.239 . S
C1252 C1251 1.498 . S
C1252 C1253 1.366 . S
C1252 C1257 1.407 . S
C1253 C1252 1.366 . S
C1253 C1254 1.392 . S
C1253 H1276 0.930 . S
C1254 C1253 1.392 . S
C1254 C1255 1.398 . S
C1254 H1277 0.929 . S
C1255 C1254 1.398 . S
C1255 C1256 1.352 . S
C1256 C1255 1.352 . S
C1256 C1257 1.384 . S
C1256 H1278 0.930 . S
C1257 C1252 1.407 . S
C1257 C1256 1.384 . S
C1257 H1279 0.929 . S
C1258 O1268 1.241 . S
C1258 O1269 1.273 . S
C1259 O1270 1.251 . S
C1259 O1271 1.268 . S
O1260 Nd1240 2.500 . S
O1260 C1242 1.258 . S
O1261 Nd1240 2.492 . S
O1261 C1242 1.239 . S
O1262 Nd1240 2.487 . S
O1262 C1249 1.241 . S
O1263 Nd1240 2.682 . S
O1263 Nd1241 2.414 . S
O1263 C1249 1.273 . S
O1264 Nd1240 2.410 . S
O1264 C1250 1.251 . S
O1265 Nd1241 2.424 . S
O1265 C1250 1.268 . S
O1266 Nd1241 2.500 . S
O1266 C1251 1.258 . S
O1267 Nd1241 2.492 . S
O1267 C1251 1.239 . S
O1268 Nd1241 2.487 . S
O1268 C1258 1.241 . S
O1269 Nd1240 2.414 . S
O1269 Nd1241 2.682 . S
O1269 C1258 1.273 . S
O1270 Nd1241 2.410 . S
O1270 C1259 1.251 . S
O1271 Nd1240 2.424 . S
O1271 C1259 1.268 . S
H1272 C1244 0.930 . S
H1273 C1245 0.929 . S
H1274 C1247 0.930 . S
H1275 C1248 0.929 . S
H1276 C1253 0.930 . S
H1277 C1254 0.929 . S
H1278 C1256 0.930 . S
H1279 C1257 0.929 . S
H1280 C1286 0.930 . S
H1281 C1289 0.930 . S
H1282 C1290 0.930 . S
H1283 C1291 0.930 . S
H1284 C1294 0.930 . S
H1285 C1295 0.930 . S
C1286 H1280 0.930 . S
C1286 C1287 1.355 . S
C1286 C1288 1.415 . S
C1287 C1286 1.355 . S
C1287 C1289 1.419 . S
C1288 C1286 1.415 . S
C1288 C1293 1.425 . S
C1288 C1295 1.409 . S
C1289 H1281 0.930 . S
C1289 C1287 1.419 . S
C1289 C1290 1.362 . S
C1290 H1282 0.930 . S
C1290 C1289 1.362 . S
C1290 C1293 1.409 . S
C1291 H1283 0.930 . S
C1291 C1292 1.355 . S
C1291 C1293 1.415 . S
C1292 C1291 1.355 . S
C1292 C1294 1.419 . S
C1293 C1288 1.425 . S
C1293 C1290 1.409 . S
C1293 C1291 1.415 . S
C1294 H1284 0.930 . S
C1294 C1292 1.419 . S
C1294 C1295 1.362 . S
C1295 H1285 0.930 . S
C1295 C1288 1.409 . S
C1295 C1294 1.362 . S
H1296 C1302 0.930 . S
H1297 C1305 0.930 . S
H1298 C1306 0.930 . S
H1299 C1307 0.930 . S
H1300 C1310 0.930 . S
H1301 C1311 0.930 . S
C1302 H1296 0.930 . S
C1302 C1303 1.355 . S
C1302 C1304 1.415 . S
C1303 C1302 1.355 . S
C1303 C1305 1.419 . S
C1304 C1302 1.415 . S
C1304 C1309 1.425 . S
C1304 C1311 1.409 . S
C1305 H1297 0.930 . S
C1305 C1303 1.419 . S
C1305 C1306 1.362 . S
C1306 H1298 0.930 . S
C1306 C1305 1.362 . S
C1306 C1309 1.409 . S
C1307 H1299 0.930 . S
C1307 C1308 1.355 . S
C1307 C1309 1.415 . S
C1308 C1307 1.355 . S
C1308 C1310 1.419 . S
C1309 C1304 1.425 . S
C1309 C1306 1.409 . S
C1309 C1307 1.415 . S
C1310 H1300 0.930 . S
C1310 C1308 1.419 . S
C1310 C1311 1.362 . S
C1311 H1301 0.930 . S
C1311 C1304 1.409 . S
C1311 C1310 1.362 . S
H1312 C1318 0.930 . S
H1313 C1321 0.930 . S
H1314 C1322 0.930 . S
H1315 C1323 0.930 . S
H1316 C1326 0.930 . S
H1317 C1327 0.930 . S
C1318 H1312 0.930 . S
C1318 C1319 1.355 . S
C1318 C1320 1.415 . S
C1319 C1318 1.355 . S
C1319 C1321 1.419 . S
C1320 C1318 1.415 . S
C1320 C1325 1.425 . S
C1320 C1327 1.409 . S
C1321 H1313 0.930 . S
C1321 C1319 1.419 . S
C1321 C1322 1.362 . S
C1322 H1314 0.930 . S
C1322 C1321 1.362 . S
C1322 C1325 1.409 . S
C1323 H1315 0.930 . S
C1323 C1324 1.355 . S
C1323 C1325 1.415 . S
C1324 C1323 1.355 . S
C1324 C1326 1.419 . S
C1325 C1320 1.425 . S
C1325 C1322 1.409 . S
C1325 C1323 1.415 . S
C1326 H1316 0.930 . S
C1326 C1324 1.419 . S
C1326 C1327 1.362 . S
C1327 H1317 0.930 . S
C1327 C1320 1.409 . S
C1327 C1326 1.362 . S
H1328 C1334 0.930 . S
H1329 C1337 0.930 . S
H1330 C1338 0.930 1_556 S
H1331 C1339 0.930 . S
H1332 C1342 0.930 . S
H1333 C1343 0.930 . S
C1334 H1328 0.930 . S
C1334 C1335 1.355 . S
C1334 C1336 1.415 . S
C1335 C1334 1.355 . S
C1335 C1337 1.419 . S
C1336 C1334 1.415 . S
C1336 C1341 1.425 1_554 S
C1336 C1343 1.409 . S
C1337 H1329 0.930 . S
C1337 C1335 1.419 . S
C1337 C1338 1.362 . S
C1338 H1330 0.930 1_554 S
C1338 C1337 1.362 . S
C1338 C1341 1.409 1_554 S
C1339 H1331 0.930 . S
C1339 C1340 1.355 . S
C1339 C1341 1.415 . S
C1340 C1339 1.355 . S
C1340 C1342 1.419 . S
C1341 C1336 1.425 1_556 S
C1341 C1338 1.409 1_556 S
C1341 C1339 1.415 . S
C1342 H1332 0.930 . S
C1342 C1340 1.419 . S
C1342 C1343 1.362 1_556 S
C1343 H1333 0.930 . S
C1343 C1336 1.409 . S
C1343 C1342 1.362 1_554 S
H1344 C1350 0.930 . S
H1345 C1353 0.930 . S
H1346 C1354 0.930 . S
H1347 C1355 0.930 . S
H1348 C1358 0.930 . S
H1349 C1359 0.930 . S
C1350 H1344 0.930 . S
C1350 C1351 1.355 . S
C1350 C1352 1.415 . S
C1351 C1350 1.355 . S
C1351 C1353 1.419 . S
C1352 C1350 1.415 . S
C1352 C1357 1.425 . S
C1352 C1359 1.409 . S
C1353 H1345 0.930 . S
C1353 C1351 1.419 . S
C1353 C1354 1.362 . S
C1354 H1346 0.930 . S
C1354 C1353 1.362 . S
C1354 C1357 1.409 . S
C1355 H1347 0.930 . S
C1355 C1356 1.355 1_554 S
C1355 C1357 1.415 . S
C1356 C1355 1.355 1_556 S
C1356 C1358 1.419 . S
C1357 C1352 1.425 . S
C1357 C1354 1.409 . S
C1357 C1355 1.415 . S
C1358 H1348 0.930 . S
C1358 C1356 1.419 . S
C1358 C1359 1.362 1_556 S
C1359 H1349 0.930 . S
C1359 C1352 1.409 . S
C1359 C1358 1.362 1_554 S
H1360 C1366 0.930 . S
H1361 C1369 0.930 . S
H1362 C1370 0.930 . S
H1363 C1371 0.930 . S
H1364 C1374 0.930 . S
H1365 C1375 0.930 . S
C1366 H1360 0.930 . S
C1366 C1367 1.355 . S
C1366 C1368 1.415 . S
C1367 C1366 1.355 . S
C1367 C1369 1.419 . S
C1368 C1366 1.415 . S
C1368 C1373 1.425 . S
C1368 C1375 1.409 . S
C1369 H1361 0.930 . S
C1369 C1367 1.419 . S
C1369 C1370 1.362 . S
C1370 H1362 0.930 . S
C1370 C1369 1.362 . S
C1370 C1373 1.409 . S
C1371 H1363 0.930 . S
C1371 C1372 1.355 . S
C1371 C1373 1.415 . S
C1372 C1371 1.355 . S
C1372 C1374 1.419 . S
C1373 C1368 1.425 . S
C1373 C1370 1.409 . S
C1373 C1371 1.415 . S
C1374 H1364 0.930 . S
C1374 C1372 1.419 . S
C1374 C1375 1.362 . S
C1375 H1365 0.930 . S
C1375 C1368 1.409 . S
C1375 C1374 1.362 . S
H1376 C1382 0.930 . S
H1377 C1385 0.930 . S
H1378 C1386 0.930 . S
H1379 C1387 0.930 . S
H1380 C1390 0.930 . S
H1381 C1391 0.930 . S
C1382 H1376 0.930 . S
C1382 C1383 1.355 . S
C1382 C1384 1.415 . S
C1383 C1382 1.355 . S
C1383 C1385 1.419 . S
C1384 C1382 1.415 . S
C1384 C1389 1.425 . S
C1384 C1391 1.409 . S
C1385 H1377 0.930 . S
C1385 C1383 1.419 . S
C1385 C1386 1.362 . S
C1386 H1378 0.930 . S
C1386 C1385 1.362 . S
C1386 C1389 1.409 . S
C1387 H1379 0.930 . S
C1387 C1388 1.355 . S
C1387 C1389 1.415 . S
C1388 C1387 1.355 . S
C1388 C1390 1.419 . S
C1389 C1384 1.425 . S
C1389 C1386 1.409 . S
C1389 C1387 1.415 . S
C1390 H1380 0.930 . S
C1390 C1388 1.419 . S
C1390 C1391 1.362 . S
C1391 H1381 0.930 . S
C1391 C1384 1.409 . S
C1391 C1390 1.362 . S
H1392 C1398 0.930 . S
H1393 C1401 0.930 . S
H1394 C1402 0.930 . S
H1395 C1403 0.930 . S
H1396 C1406 0.930 . S
H1397 C1407 0.930 . S
C1398 H1392 0.930 . S
C1398 C1399 1.355 . S
C1398 C1400 1.415 . S
C1399 C1398 1.355 . S
C1399 C1401 1.419 . S
C1400 C1398 1.415 . S
C1400 C1405 1.425 . S
C1400 C1407 1.409 . S
C1401 H1393 0.930 . S
C1401 C1399 1.419 . S
C1401 C1402 1.362 . S
C1402 H1394 0.930 . S
C1402 C1401 1.362 . S
C1402 C1405 1.409 . S
C1403 H1395 0.930 . S
C1403 C1404 1.355 . S
C1403 C1405 1.415 . S
C1404 C1403 1.355 . S
C1404 C1406 1.419 . S
C1405 C1400 1.425 . S
C1405 C1402 1.409 . S
C1405 C1403 1.415 . S
C1406 H1396 0.930 . S
C1406 C1404 1.419 . S
C1406 C1407 1.362 . S
C1407 H1397 0.930 . S
C1407 C1400 1.409 . S
C1407 C1406 1.362 . S
H1408 C1414 0.930 . S
H1409 C1417 0.930 . S
H1410 C1418 0.930 . S
H1411 C1419 0.930 . S
H1412 C1422 0.930 . S
H1413 C1423 0.930 . S
C1414 H1408 0.930 . S
C1414 C1415 1.355 . S
C1414 C1416 1.415 . S
C1415 C1414 1.355 . S
C1415 C1417 1.419 . S
C1416 C1414 1.415 . S
C1416 C1421 1.425 . S
C1416 C1423 1.409 . S
C1417 H1409 0.930 . S
C1417 C1415 1.419 . S
C1417 C1418 1.362 . S
C1418 H1410 0.930 . S
C1418 C1417 1.362 . S
C1418 C1421 1.409 . S
C1419 H1411 0.930 . S
C1419 C1420 1.355 . S
C1419 C1421 1.415 . S
C1420 C1419 1.355 . S
C1420 C1422 1.419 . S
C1421 C1416 1.425 . S
C1421 C1418 1.409 . S
C1421 C1419 1.415 . S
C1422 H1412 0.930 . S
C1422 C1420 1.419 . S
C1422 C1423 1.362 . S
C1423 H1413 0.930 . S
C1423 C1416 1.409 . S
C1423 C1422 1.362 . S
H1424 C1430 0.930 . S
H1425 C1433 0.930 . S
H1426 C1434 0.930 . S
H1427 C1435 0.930 . S
H1428 C1438 0.930 . S
H1429 C1439 0.930 1_556 S
C1430 H1424 0.930 . S
C1430 C1431 1.355 . S
C1430 C1432 1.415 . S
C1431 C1430 1.355 . S
C1431 C1433 1.419 . S
C1432 C1430 1.415 . S
C1432 C1437 1.425 1_556 S
C1432 C1439 1.409 1_556 S
C1433 H1425 0.930 . S
C1433 C1431 1.419 . S
C1433 C1434 1.362 1_556 S
C1434 H1426 0.930 . S
C1434 C1433 1.362 1_554 S
C1434 C1437 1.409 . S
C1435 H1427 0.930 . S
C1435 C1436 1.355 . S
C1435 C1437 1.415 . S
C1436 C1435 1.355 . S
C1436 C1438 1.419 . S
C1437 C1432 1.425 1_554 S
C1437 C1434 1.409 . S
C1437 C1435 1.415 . S
C1438 H1428 0.930 . S
C1438 C1436 1.419 . S
C1438 C1439 1.362 . S
C1439 H1429 0.930 1_554 S
C1439 C1432 1.409 1_554 S
C1439 C1438 1.362 . S
H1440 C1446 0.930 . S
H1441 C1449 0.930 . S
H1442 C1450 0.930 . S
H1443 C1451 0.930 . S
H1444 C1454 0.930 . S
H1445 C1455 0.930 . S
C1446 H1440 0.930 . S
C1446 C1447 1.355 . S
C1446 C1448 1.415 . S
C1447 C1446 1.355 . S
C1447 C1449 1.419 . S
C1448 C1446 1.415 . S
C1448 C1453 1.425 . S
C1448 C1455 1.409 . S
C1449 H1441 0.930 . S
C1449 C1447 1.419 . S
C1449 C1450 1.362 . S
C1450 H1442 0.930 . S
C1450 C1449 1.362 . S
C1450 C1453 1.409 . S
C1451 H1443 0.930 . S
C1451 C1452 1.355 . S
C1451 C1453 1.415 . S
C1452 C1451 1.355 . S
C1452 C1454 1.419 . S
C1453 C1448 1.425 . S
C1453 C1450 1.409 . S
C1453 C1451 1.415 . S
C1454 H1444 0.930 . S
C1454 C1452 1.419 . S
C1454 C1455 1.362 . S
C1455 H1445 0.930 . S
C1455 C1448 1.409 . S
C1455 C1454 1.362 . S
H1456 C1462 0.930 . S
H1457 C1465 0.930 . S
H1458 C1466 0.930 . S
H1459 C1467 0.930 . S
H1460 C1470 0.930 . S
H1461 C1471 0.930 . S
C1462 H1456 0.930 . S
C1462 C1463 1.355 . S
C1462 C1464 1.415 . S
C1463 C1462 1.355 . S
C1463 C1465 1.419 . S
C1464 C1462 1.415 . S
C1464 C1469 1.425 . S
C1464 C1471 1.409 . S
C1465 H1457 0.930 . S
C1465 C1463 1.419 . S
C1465 C1466 1.362 . S
C1466 H1458 0.930 . S
C1466 C1465 1.362 . S
C1466 C1469 1.409 . S
C1467 H1459 0.930 . S
C1467 C1468 1.355 . S
C1467 C1469 1.415 . S
C1468 C1467 1.355 . S
C1468 C1470 1.419 . S
C1469 C1464 1.425 . S
C1469 C1466 1.409 . S
C1469 C1467 1.415 . S
C1470 H1460 0.930 . S
C1470 C1468 1.419 . S
C1470 C1471 1.362 . S
C1471 H1461 0.930 . S
C1471 C1464 1.409 . S
C1471 C1470 1.362 . S
H1472 C1478 0.930 . S
H1473 C1481 0.930 . S
H1474 C1482 0.930 . S
H1475 C1483 0.930 . S
H1476 C1486 0.930 . S
H1477 C1487 0.930 . S
C1478 H1472 0.930 . S
C1478 C1479 1.355 . S
C1478 C1480 1.415 . S
C1479 C1478 1.355 . S
C1479 C1481 1.419 . S
C1480 C1478 1.415 . S
C1480 C1485 1.425 . S
C1480 C1487 1.409 . S
C1481 H1473 0.930 . S
C1481 C1479 1.419 . S
C1481 C1482 1.362 . S
C1482 H1474 0.930 . S
C1482 C1481 1.362 . S
C1482 C1485 1.409 . S
C1483 H1475 0.930 . S
C1483 C1484 1.355 . S
C1483 C1485 1.415 . S
C1484 C1483 1.355 . S
C1484 C1486 1.419 . S
C1485 C1480 1.425 . S
C1485 C1482 1.409 . S
C1485 C1483 1.415 . S
C1486 H1476 0.930 . S
C1486 C1484 1.419 . S
C1486 C1487 1.362 . S
C1487 H1477 0.930 . S
C1487 C1480 1.409 . S
C1487 C1486 1.362 . S
H1488 C1494 0.930 . S
H1489 C1497 0.930 . S
H1490 C1498 0.930 . S
H1491 C1499 0.930 . S
H1492 C1502 0.930 . S
H1493 C1503 0.930 . S
C1494 H1488 0.930 . S
C1494 C1495 1.355 . S
C1494 C1496 1.415 . S
C1495 C1494 1.355 . S
C1495 C1497 1.419 . S
C1496 C1494 1.415 . S
C1496 C1501 1.425 . S
C1496 C1503 1.409 . S
C1497 H1489 0.930 . S
C1497 C1495 1.419 . S
C1497 C1498 1.362 . S
C1498 H1490 0.930 . S
C1498 C1497 1.362 . S
C1498 C1501 1.409 . S
C1499 H1491 0.930 . S
C1499 C1500 1.355 . S
C1499 C1501 1.415 . S
C1500 C1499 1.355 . S
C1500 C1502 1.419 . S
C1501 C1496 1.425 . S
C1501 C1498 1.409 . S
C1501 C1499 1.415 . S
C1502 H1492 0.930 . S
C1502 C1500 1.419 . S
C1502 C1503 1.362 . S
C1503 H1493 0.930 . S
C1503 C1496 1.409 . S
C1503 C1502 1.362 . S
H1504 C1510 0.930 . S
H1505 C1513 0.930 . S
H1506 C1514 0.930 . S
H1507 C1515 0.930 . S
H1508 C1518 0.888 1_545 S
H1509 C1519 0.930 . S
C1510 H1504 0.930 . S
C1510 C1511 1.355 . S
C1510 C1512 1.415 . S
C1511 C1510 1.355 . S
C1511 C1513 1.419 . S
C1512 C1510 1.415 . S
C1512 C1517 1.425 . S
C1512 C1519 1.409 . S
C1513 H1505 0.930 . S
C1513 C1511 1.419 . S
C1513 C1514 1.362 . S
C1514 H1506 0.930 . S
C1514 C1513 1.362 . S
C1514 C1517 1.409 . S
C1515 H1507 0.930 . S
C1515 C1516 1.355 . S
C1515 C1517 1.415 1_556 S
C1516 C1515 1.355 . S
C1516 C1518 1.419 1_556 S
C1517 C1512 1.425 . S
C1517 C1514 1.409 . S
C1517 C1515 1.415 1_554 S
C1518 H1508 0.888 1_565 S
C1518 C1516 1.419 1_554 S
C1518 C1519 1.362 . S
C1519 H1509 0.930 . S
C1519 C1512 1.409 . S
C1519 C1518 1.362 . S
H1520 C1526 0.930 . S
H1521 C1529 0.930 . S
H1522 C1530 0.930 . S
H1523 C1531 0.930 . S
H1524 C1534 0.930 . S
H1525 C1535 0.930 . S
C1526 H1520 0.930 . S
C1526 C1527 1.355 . S
C1526 C1528 1.415 . S
C1527 C1526 1.355 . S
C1527 C1529 1.419 . S
C1528 C1526 1.415 . S
C1528 C1533 1.425 . S
C1528 C1535 1.409 . S
C1529 H1521 0.930 . S
C1529 C1527 1.419 . S
C1529 C1530 1.362 . S
C1530 H1522 0.930 . S
C1530 C1529 1.362 . S
C1530 C1533 1.409 . S
C1531 H1523 0.930 . S
C1531 C1532 1.355 . S
C1531 C1533 1.415 . S
C1532 C1531 1.355 . S
C1532 C1534 1.419 . S
C1533 C1528 1.425 . S
C1533 C1530 1.409 . S
C1533 C1531 1.415 . S
C1534 H1524 0.930 . S
C1534 C1532 1.419 . S
C1534 C1535 1.362 . S
C1535 H1525 0.930 . S
C1535 C1528 1.409 . S
C1535 C1534 1.362 . S
H1536 C1542 0.930 . S
H1537 C1545 0.930 . S
H1538 C1546 0.930 . S
H1539 C1547 0.930 . S
H1540 C1550 0.930 . S
H1541 C1551 0.930 . S
C1542 H1536 0.930 . S
C1542 C1543 1.355 . S
C1542 C1544 1.415 . S
C1543 C1542 1.355 . S
C1543 C1545 1.419 . S
C1544 C1542 1.415 . S
C1544 C1549 1.425 . S
C1544 C1551 1.409 . S
C1545 H1537 0.930 . S
C1545 C1543 1.419 . S
C1545 C1546 1.362 . S
C1546 H1538 0.930 . S
C1546 C1545 1.362 . S
C1546 C1549 1.409 . S
C1547 H1539 0.930 . S
C1547 C1548 1.355 . S
C1547 C1549 1.415 . S
C1548 C1547 1.355 . S
C1548 C1550 1.419 . S
C1549 C1544 1.425 . S
C1549 C1546 1.409 . S
C1549 C1547 1.415 . S
C1550 H1540 0.930 . S
C1550 C1548 1.419 . S
C1550 C1551 1.362 . S
C1551 H1541 0.930 . S
C1551 C1544 1.409 . S
C1551 C1550 1.362 . S
H1552 C1558 0.930 . S
H1553 C1561 0.930 . S
H1554 C1562 0.930 . S
H1555 C1563 0.930 . S
H1556 C1566 0.930 . S
H1557 C1567 0.930 . S
C1558 H1552 0.930 . S
C1558 C1559 1.355 . S
C1558 C1560 1.415 . S
C1559 C1558 1.355 . S
C1559 C1561 1.419 . S
C1560 C1558 1.415 . S
C1560 C1565 1.425 . S
C1560 C1567 1.409 . S
C1561 H1553 0.930 . S
C1561 C1559 1.419 . S
C1561 C1562 1.362 . S
C1562 H1554 0.930 . S
C1562 C1561 1.362 . S
C1562 C1565 1.409 . S
C1563 H1555 0.930 . S
C1563 C1564 1.355 . S
C1563 C1565 1.415 . S
C1564 C1563 1.355 . S
C1564 C1566 1.419 . S
C1565 C1560 1.425 . S
C1565 C1562 1.409 . S
C1565 C1563 1.415 . S
C1566 H1556 0.930 . S
C1566 C1564 1.419 . S
C1566 C1567 1.362 . S
C1567 H1557 0.930 . S
C1567 C1560 1.409 . S
C1567 C1566 1.362 . S
H1568 C1574 0.930 . S
H1569 C1577 0.930 . S
H1570 C1578 0.930 . S
H1571 C1579 0.930 . S
H1572 C1582 0.930 . S
H1573 C1583 0.930 . S
C1574 H1568 0.930 . S
C1574 C1575 1.355 . S
C1574 C1576 1.415 . S
C1575 C1574 1.355 . S
C1575 C1577 1.419 . S
C1576 C1574 1.415 . S
C1576 C1581 1.425 . S
C1576 C1583 1.409 . S
C1577 H1569 0.930 . S
C1577 C1575 1.419 . S
C1577 C1578 1.362 . S
C1578 H1570 0.930 . S
C1578 C1577 1.362 . S
C1578 C1581 1.409 . S
C1579 H1571 0.930 . S
C1579 C1580 1.355 . S
C1579 C1581 1.415 . S
C1580 C1579 1.355 . S
C1580 C1582 1.419 . S
C1581 C1576 1.425 . S
C1581 C1578 1.409 . S
C1581 C1579 1.415 . S
C1582 H1572 0.930 . S
C1582 C1580 1.419 . S
C1582 C1583 1.362 . S
C1583 H1573 0.930 . S
C1583 C1576 1.409 . S
C1583 C1582 1.362 . S
H1584 C1590 0.930 . S
H1585 C1593 0.930 . S
H1586 C1594 0.930 . S
H1587 C1595 0.930 . S
H1588 C1598 0.930 . S
H1589 C1599 0.930 . S
C1590 H1584 0.930 . S
C1590 C1591 1.355 . S
C1590 C1592 1.415 . S
C1591 C1590 1.355 . S
C1591 C1593 1.419 . S
C1592 C1590 1.415 . S
C1592 C1597 1.425 . S
C1592 C1599 1.409 . S
C1593 H1585 0.930 . S
C1593 C1591 1.419 . S
C1593 C1594 1.362 . S
C1594 H1586 0.930 . S
C1594 C1593 1.362 . S
C1594 C1597 1.409 . S
C1595 H1587 0.930 . S
C1595 C1596 1.355 1_556 S
C1595 C1597 1.415 . S
C1596 C1595 1.355 1_554 S
C1596 C1598 1.419 . S
C1597 C1592 1.425 . S
C1597 C1594 1.409 . S
C1597 C1595 1.415 . S
C1598 H1588 0.930 . S
C1598 C1596 1.419 . S
C1598 C1599 1.362 1_554 S
C1599 H1589 0.930 . S
C1599 C1592 1.409 . S
C1599 C1598 1.362 1_556 S
H1600 C1606 0.930 . S
H1601 C1609 0.930 . S
H1602 C1610 0.930 . S
H1603 C1611 0.930 . S
H1604 C1614 0.930 . S
H1605 C1615 0.930 . S
C1606 H1600 0.930 . S
C1606 C1607 1.355 . S
C1606 C1608 1.415 . S
C1607 C1606 1.355 . S
C1607 C1609 1.419 . S
C1608 C1606 1.415 . S
C1608 C1613 1.425 . S
C1608 C1615 1.409 . S
C1609 H1601 0.930 . S
C1609 C1607 1.419 . S
C1609 C1610 1.362 . S
C1610 H1602 0.930 . S
C1610 C1609 1.362 . S
C1610 C1613 1.409 . S
C1611 H1603 0.930 . S
C1611 C1612 1.355 . S
C1611 C1613 1.415 . S
C1612 C1611 1.355 . S
C1612 C1614 1.419 . S
C1613 C1608 1.425 . S
C1613 C1610 1.409 . S
C1613 C1611 1.415 . S
C1614 H1604 0.930 . S
C1614 C1612 1.419 . S
C1614 C1615 1.362 . S
C1615 H1605 0.930 . S
C1615 C1608 1.409 . S
C1615 C1614 1.362 . S
H1616 C1622 0.930 . S
H1617 C1625 0.930 . S
H1618 C1626 0.930 . S
H1619 C1627 0.930 . S
H1620 C1630 0.930 . S
H1621 C1631 0.930 . S
C1622 H1616 0.930 . S
C1622 C1623 1.355 . S
C1622 C1624 1.415 . S
C1623 C1622 1.355 . S
C1623 C1625 1.419 . S
C1624 C1622 1.415 . S
C1624 C1629 1.425 . S
C1624 C1631 1.409 . S
C1625 H1617 0.930 . S
C1625 C1623 1.419 . S
C1625 C1626 1.362 . S
C1626 H1618 0.930 . S
C1626 C1625 1.362 . S
C1626 C1629 1.409 . S
C1627 H1619 0.930 . S
C1627 C1628 1.355 . S
C1627 C1629 1.415 . S
C1628 C1627 1.355 . S
C1628 C1630 1.419 . S
C1629 C1624 1.425 . S
C1629 C1626 1.409 . S
C1629 C1627 1.415 . S
C1630 H1620 0.930 . S
C1630 C1628 1.419 . S
C1630 C1631 1.362 . S
C1631 H1621 0.930 . S
C1631 C1624 1.409 . S
C1631 C1630 1.362 . S
H1632 C1638 0.930 . S
H1633 C1641 0.930 . S
H1634 C1642 0.930 . S
H1635 C1643 0.930 . S
H1636 C1646 0.930 . S
H1637 C1647 0.930 . S
C1638 H1632 0.930 . S
C1638 C1639 1.355 1_556 S
C1638 C1640 1.415 . S
C1639 C1638 1.355 1_554 S
C1639 C1641 1.419 . S
C1640 C1638 1.415 . S
C1640 C1645 1.425 . S
C1640 C1647 1.409 . S
C1641 H1633 0.930 . S
C1641 C1639 1.419 . S
C1641 C1642 1.362 1_554 S
C1642 H1634 0.930 . S
C1642 C1641 1.362 1_556 S
C1642 C1645 1.409 . S
C1643 H1635 0.930 . S
C1643 C1644 1.355 . S
C1643 C1645 1.415 . S
C1644 C1643 1.355 . S
C1644 C1646 1.419 . S
C1645 C1640 1.425 . S
C1645 C1642 1.409 . S
C1645 C1643 1.415 . S
C1646 H1636 0.930 . S
C1646 C1644 1.419 . S
C1646 C1647 1.362 . S
C1647 H1637 0.930 . S
C1647 C1640 1.409 . S
C1647 C1646 1.362 . S
H1648 C1654 0.930 . S
H1649 C1657 0.930 . S
H1650 C1658 0.930 . S
H1651 C1659 0.930 . S
H1652 C1662 0.930 . S
H1653 C1663 0.930 . S
C1654 H1648 0.930 . S
C1654 C1655 1.355 . S
C1654 C1656 1.415 . S
C1655 C1654 1.355 . S
C1655 C1657 1.419 . S
C1656 C1654 1.415 . S
C1656 C1661 1.425 . S
C1656 C1663 1.409 . S
C1657 H1649 0.930 . S
C1657 C1655 1.419 . S
C1657 C1658 1.362 . S
C1658 H1650 0.930 . S
C1658 C1657 1.362 . S
C1658 C1661 1.409 . S
C1659 H1651 0.930 . S
C1659 C1660 1.355 . S
C1659 C1661 1.415 . S
C1660 C1659 1.355 . S
C1660 C1662 1.419 . S
C1661 C1656 1.425 . S
C1661 C1658 1.409 . S
C1661 C1659 1.415 . S
C1662 H1652 0.930 . S
C1662 C1660 1.419 . S
C1662 C1663 1.362 . S
C1663 H1653 0.930 . S
C1663 C1656 1.409 . S
C1663 C1662 1.362 . S
H1664 C1670 0.930 . S
H1665 C1673 0.930 . S
H1666 C1674 0.930 . S
H1667 C1675 0.930 . S
H1668 C1678 0.930 . S
H1669 C1679 0.930 . S
C1670 H1664 0.930 . S
C1670 C1671 1.355 . S
C1670 C1672 1.415 . S
C1671 C1670 1.355 . S
C1671 C1673 1.419 . S
C1672 C1670 1.415 . S
C1672 C1677 1.425 . S
C1672 C1679 1.409 . S
C1673 H1665 0.930 . S
C1673 C1671 1.419 . S
C1673 C1674 1.362 . S
C1674 H1666 0.930 . S
C1674 C1673 1.362 . S
C1674 C1677 1.409 . S
C1675 H1667 0.930 . S
C1675 C1676 1.355 . S
C1675 C1677 1.415 . S
C1676 C1675 1.355 . S
C1676 C1678 1.419 . S
C1677 C1672 1.425 . S
C1677 C1674 1.409 . S
C1677 C1675 1.415 . S
C1678 H1668 0.930 . S
C1678 C1676 1.419 . S
C1678 C1679 1.362 . S
C1679 H1669 0.930 . S
C1679 C1672 1.409 . S
C1679 C1678 1.362 . S
H1680 C1686 0.930 . S
H1681 C1689 0.930 . S
H1682 C1690 0.930 . S
H1683 C1691 0.930 . S
H1684 C1694 0.930 . S
H1685 C1695 0.930 . S
C1686 H1680 0.930 . S
C1686 C1687 1.355 . S
C1686 C1688 1.415 . S
C1687 C1686 1.355 . S
C1687 C1689 1.419 . S
C1688 C1686 1.415 . S
C1688 C1693 1.425 . S
C1688 C1695 1.409 . S
C1689 H1681 0.930 . S
C1689 C1687 1.419 . S
C1689 C1690 1.362 . S
C1690 H1682 0.930 . S
C1690 C1689 1.362 . S
C1690 C1693 1.409 . S
C1691 H1683 0.930 . S
C1691 C1692 1.355 . S
C1691 C1693 1.415 . S
C1692 C1691 1.355 . S
C1692 C1694 1.419 . S
C1693 C1688 1.425 . S
C1693 C1690 1.409 . S
C1693 C1691 1.415 . S
C1694 H1684 0.930 . S
C1694 C1692 1.419 . S
C1694 C1695 1.362 . S
C1695 H1685 0.930 . S
C1695 C1688 1.409 . S
C1695 C1694 1.362 . S
H1696 C1702 0.930 . S
H1697 C1705 0.930 . S
H1698 C1706 0.930 . S
H1699 C1707 0.930 . S
H1700 C1710 0.930 . S
H1701 C1711 0.930 . S
C1702 H1696 0.930 . S
C1702 C1703 1.355 . S
C1702 C1704 1.415 . S
C1703 C1702 1.355 . S
C1703 C1705 1.419 . S
C1704 C1702 1.415 . S
C1704 C1709 1.425 . S
C1704 C1711 1.409 . S
C1705 H1697 0.930 . S
C1705 C1703 1.419 . S
C1705 C1706 1.362 . S
C1706 H1698 0.930 . S
C1706 C1705 1.362 . S
C1706 C1709 1.409 . S
C1707 H1699 0.930 . S
C1707 C1708 1.355 . S
C1707 C1709 1.415 . S
C1708 C1707 1.355 . S
C1708 C1710 1.419 . S
C1709 C1704 1.425 . S
C1709 C1706 1.409 . S
C1709 C1707 1.415 . S
C1710 H1700 0.930 . S
C1710 C1708 1.419 . S
C1710 C1711 1.362 . S
C1711 H1701 0.930 . S
C1711 C1704 1.409 . S
C1711 C1710 1.362 . S
H1712 C1718 0.930 . S
H1713 C1721 0.930 . S
H1714 C1722 0.930 . S
H1715 C1723 0.930 . S
H1716 C1726 0.930 . S
H1717 C1727 0.930 . S
C1718 H1712 0.930 . S
C1718 C1719 1.355 . S
C1718 C1720 1.415 . S
C1719 C1718 1.355 . S
C1719 C1721 1.419 . S
C1720 C1718 1.415 . S
C1720 C1725 1.425 . S
C1720 C1727 1.409 . S
C1721 H1713 0.930 . S
C1721 C1719 1.419 . S
C1721 C1722 1.362 . S
C1722 H1714 0.930 . S
C1722 C1721 1.362 . S
C1722 C1725 1.409 . S
C1723 H1715 0.930 . S
C1723 C1724 1.355 . S
C1723 C1725 1.415 . S
C1724 C1723 1.355 . S
C1724 C1726 1.419 . S
C1725 C1720 1.425 . S
C1725 C1722 1.409 . S
C1725 C1723 1.415 . S
C1726 H1716 0.930 . S
C1726 C1724 1.419 . S
C1726 C1727 1.362 . S
C1727 H1717 0.930 . S
C1727 C1720 1.409 . S
C1727 C1726 1.362 . S
H1728 C1734 0.930 . S
H1729 C1737 0.930 . S
H1730 C1738 0.930 . S
H1731 C1739 0.930 . S
H1732 C1742 0.930 . S
H1733 C1743 0.930 . S
C1734 H1728 0.930 . S
C1734 C1735 1.355 . S
C1734 C1736 1.415 . S
C1735 C1734 1.355 . S
C1735 C1737 1.419 . S
C1736 C1734 1.415 . S
C1736 C1741 1.425 . S
C1736 C1743 1.409 . S
C1737 H1729 0.930 . S
C1737 C1735 1.419 . S
C1737 C1738 1.362 . S
C1738 H1730 0.930 . S
C1738 C1737 1.362 . S
C1738 C1741 1.409 . S
C1739 H1731 0.930 . S
C1739 C1740 1.355 . S
C1739 C1741 1.415 . S
C1740 C1739 1.355 . S
C1740 C1742 1.419 . S
C1741 C1736 1.425 . S
C1741 C1738 1.409 . S
C1741 C1739 1.415 . S
C1742 H1732 0.930 . S
C1742 C1740 1.419 . S
C1742 C1743 1.362 . S
C1743 H1733 0.930 . S
C1743 C1736 1.409 . S
C1743 C1742 1.362 . S
H1744 C1750 0.930 . S
H1745 C1753 0.930 . S
H1746 C1754 0.930 . S
H1747 C1755 0.930 . S
H1748 C1758 0.930 . S
H1749 C1759 0.930 . S
C1750 H1744 0.930 . S
C1750 C1751 1.355 . S
C1750 C1752 1.415 . S
C1751 C1750 1.355 . S
C1751 C1753 1.419 . S
C1752 C1750 1.415 . S
C1752 C1757 1.425 . S
C1752 C1759 1.409 . S
C1753 H1745 0.930 . S
C1753 C1751 1.419 . S
C1753 C1754 1.362 . S
C1754 H1746 0.930 . S
C1754 C1753 1.362 . S
C1754 C1757 1.409 . S
C1755 H1747 0.930 . S
C1755 C1756 1.355 . S
C1755 C1757 1.415 . S
C1756 C1755 1.355 . S
C1756 C1758 1.419 . S
C1757 C1752 1.425 . S
C1757 C1754 1.409 . S
C1757 C1755 1.415 . S
C1758 H1748 0.930 . S
C1758 C1756 1.419 . S
C1758 C1759 1.362 . S
C1759 H1749 0.930 . S
C1759 C1752 1.409 . S
C1759 C1758 1.362 . S
H1760 C1766 0.930 . S
H1761 C1769 0.930 . S
H1762 C1770 0.930 . S
H1763 C1771 0.930 . S
H1764 C1774 0.930 . S
H1765 C1775 0.930 . S
C1766 H1760 0.930 . S
C1766 C1767 1.355 . S
C1766 C1768 1.415 . S
C1767 C1766 1.355 . S
C1767 C1769 1.419 . S
C1768 C1766 1.415 . S
C1768 C1773 1.425 . S
C1768 C1775 1.409 . S
C1769 H1761 0.930 . S
C1769 C1767 1.419 . S
C1769 C1770 1.362 . S
C1770 H1762 0.930 . S
C1770 C1769 1.362 . S
C1770 C1773 1.409 . S
C1771 H1763 0.930 . S
C1771 C1772 1.355 . S
C1771 C1773 1.415 . S
C1772 C1771 1.355 . S
C1772 C1774 1.419 . S
C1773 C1768 1.425 . S
C1773 C1770 1.409 . S
C1773 C1771 1.415 . S
C1774 H1764 0.930 . S
C1774 C1772 1.419 . S
C1774 C1775 1.362 . S
C1775 H1765 0.930 . S
C1775 C1768 1.409 . S
C1775 C1774 1.362 . S
H1776 C1782 0.930 . S
H1777 C1785 0.930 . S
H1778 C1786 0.930 . S
H1779 C1787 0.930 . S
H1780 C1790 0.930 . S
H1781 C1791 0.930 . S
C1782 H1776 0.930 . S
C1782 C1783 1.355 . S
C1782 C1784 1.415 . S
C1783 C1782 1.355 . S
C1783 C1785 1.419 . S
C1784 C1782 1.415 . S
C1784 C1789 1.425 . S
C1784 C1791 1.409 . S
C1785 H1777 0.930 . S
C1785 C1783 1.419 . S
C1785 C1786 1.362 . S
C1786 H1778 0.930 . S
C1786 C1785 1.362 . S
C1786 C1789 1.409 . S
C1787 H1779 0.930 . S
C1787 C1788 1.355 . S
C1787 C1789 1.415 . S
C1788 C1787 1.355 . S
C1788 C1790 1.419 . S
C1789 C1784 1.425 . S
C1789 C1786 1.409 . S
C1789 C1787 1.415 . S
C1790 H1780 0.930 . S
C1790 C1788 1.419 . S
C1790 C1791 1.362 . S
C1791 H1781 0.930 . S
C1791 C1784 1.409 . S
C1791 C1790 1.362 . S
H1792 C1798 0.930 . S
H1793 C1801 0.930 . S
H1794 C1802 0.930 . S
H1795 C1803 0.930 . S
H1796 C1806 0.930 . S
H1797 C1807 0.930 . S
C1798 H1792 0.930 . S
C1798 C1799 1.355 . S
C1798 C1800 1.415 . S
C1799 C1798 1.355 . S
C1799 C1801 1.419 . S
C1800 C1798 1.415 . S
C1800 C1805 1.425 1_655 S
C1800 C1807 1.409 . S
C1801 H1793 0.930 . S
C1801 C1799 1.419 . S
C1801 C1802 1.362 1_655 S
C1802 H1794 0.930 . S
C1802 C1801 1.362 1_455 S
C1802 C1805 1.409 . S
C1803 H1795 0.930 . S
C1803 C1804 1.355 . S
C1803 C1805 1.415 . S
C1804 C1803 1.355 . S
C1804 C1806 1.419 . S
C1805 C1800 1.425 1_455 S
C1805 C1802 1.409 . S
C1805 C1803 1.415 . S
C1806 H1796 0.930 . S
C1806 C1804 1.419 . S
C1806 C1807 1.362 1_455 S
C1807 H1797 0.930 . S
C1807 C1800 1.409 . S
C1807 C1806 1.362 1_655 S
H1808 C1814 0.930 . S
H1809 C1817 0.930 . S
H1810 C1818 0.930 . S
H1811 C1819 0.930 . S
H1812 C1822 0.930 . S
H1813 C1823 0.930 . S
C1814 H1808 0.930 . S
C1814 C1815 1.355 . S
C1814 C1816 1.415 . S
C1815 C1814 1.355 . S
C1815 C1817 1.419 . S
C1816 C1814 1.415 . S
C1816 C1821 1.425 . S
C1816 C1823 1.409 . S
C1817 H1809 0.930 . S
C1817 C1815 1.419 . S
C1817 C1818 1.362 . S
C1818 H1810 0.930 . S
C1818 C1817 1.362 . S
C1818 C1821 1.409 . S
C1819 H1811 0.930 . S
C1819 C1820 1.355 . S
C1819 C1821 1.415 . S
C1820 C1819 1.355 . S
C1820 C1822 1.419 . S
C1821 C1816 1.425 . S
C1821 C1818 1.409 . S
C1821 C1819 1.415 . S
C1822 H1812 0.930 . S
C1822 C1820 1.419 . S
C1822 C1823 1.362 . S
C1823 H1813 0.930 . S
C1823 C1816 1.409 . S
C1823 C1822 1.362 . S
H1824 C1830 0.930 . S
H1825 C1833 0.930 . S
H1826 C1834 0.930 . S
H1827 C1835 0.930 . S
H1828 C1838 0.930 . S
H1829 C1839 0.930 . S
C1830 H1824 0.930 . S
C1830 C1831 1.355 . S
C1830 C1832 1.415 . S
C1831 C1830 1.355 . S
C1831 C1833 1.419 . S
C1832 C1830 1.415 . S
C1832 C1837 1.425 . S
C1832 C1839 1.409 . S
C1833 H1825 0.930 . S
C1833 C1831 1.419 . S
C1833 C1834 1.362 . S
C1834 H1826 0.930 . S
C1834 C1833 1.362 . S
C1834 C1837 1.409 . S
C1835 H1827 0.930 . S
C1835 C1836 1.355 . S
C1835 C1837 1.415 . S
C1836 C1835 1.355 . S
C1836 C1838 1.419 . S
C1837 C1832 1.425 . S
C1837 C1834 1.409 . S
C1837 C1835 1.415 . S
C1838 H1828 0.930 . S
C1838 C1836 1.419 . S
C1838 C1839 1.362 . S
C1839 H1829 0.930 . S
C1839 C1832 1.409 . S
C1839 C1838 1.362 . S
H1840 C1846 0.930 . S
H1841 C1849 0.930 . S
H1842 C1850 0.930 . S
H1843 C1851 0.930 . S
H1844 C1854 0.930 . S
H1845 C1855 0.930 . S
C1846 H1840 0.930 . S
C1846 C1847 1.355 . S
C1846 C1848 1.415 . S
C1847 C1846 1.355 . S
C1847 C1849 1.419 . S
C1848 C1846 1.415 . S
C1848 C1853 1.425 . S
C1848 C1855 1.409 . S
C1849 H1841 0.930 . S
C1849 C1847 1.419 . S
C1849 C1850 1.362 . S
C1850 H1842 0.930 . S
C1850 C1849 1.362 . S
C1850 C1853 1.409 . S
C1851 H1843 0.930 . S
C1851 C1852 1.355 . S
C1851 C1853 1.415 . S
C1852 C1851 1.355 . S
C1852 C1854 1.419 . S
C1853 C1848 1.425 . S
C1853 C1850 1.409 . S
C1853 C1851 1.415 . S
C1854 H1844 0.930 . S
C1854 C1852 1.419 . S
C1854 C1855 1.362 . S
C1855 H1845 0.930 . S
C1855 C1848 1.409 . S
C1855 C1854 1.362 . S
H1856 C1862 0.930 . S
H1857 C1865 0.930 . S
H1858 C1866 0.930 . S
H1859 C1867 0.930 . S
H1860 C1870 0.930 . S
H1861 C1871 0.930 . S
C1862 H1856 0.930 . S
C1862 C1863 1.355 . S
C1862 C1864 1.415 . S
C1863 C1862 1.355 . S
C1863 C1865 1.419 . S
C1864 C1862 1.415 . S
C1864 C1869 1.425 1_655 S
C1864 C1871 1.409 . S
C1865 H1857 0.930 . S
C1865 C1863 1.419 . S
C1865 C1866 1.362 1_655 S
C1866 H1858 0.930 . S
C1866 C1865 1.362 1_455 S
C1866 C1869 1.409 . S
C1867 H1859 0.930 . S
C1867 C1868 1.355 . S
C1867 C1869 1.415 . S
C1868 C1867 1.355 . S
C1868 C1870 1.419 . S
C1869 C1864 1.425 1_455 S
C1869 C1866 1.409 . S
C1869 C1867 1.415 . S
C1870 H1860 0.930 . S
C1870 C1868 1.419 . S
C1870 C1871 1.362 1_455 S
C1871 H1861 0.930 . S
C1871 C1864 1.409 . S
C1871 C1870 1.362 1_655 S
H1872 C1878 0.930 . S
H1873 C1881 0.930 . S
H1874 C1882 0.930 . S
H1875 C1883 0.930 . S
H1876 C1886 0.930 . S
H1877 C1887 0.930 . S
C1878 H1872 0.930 . S
C1878 C1879 1.355 . S
C1878 C1880 1.415 . S
C1879 C1878 1.355 . S
C1879 C1881 1.419 . S
C1880 C1878 1.415 . S
C1880 C1885 1.425 . S
C1880 C1887 1.409 . S
C1881 H1873 0.930 . S
C1881 C1879 1.419 . S
C1881 C1882 1.362 . S
C1882 H1874 0.930 . S
C1882 C1881 1.362 . S
C1882 C1885 1.409 . S
C1883 H1875 0.930 . S
C1883 C1884 1.355 . S
C1883 C1885 1.415 . S
C1884 C1883 1.355 . S
C1884 C1886 1.419 . S
C1885 C1880 1.425 . S
C1885 C1882 1.409 . S
C1885 C1883 1.415 . S
C1886 H1876 0.930 . S
C1886 C1884 1.419 . S
C1886 C1887 1.362 . S
C1887 H1877 0.930 . S
C1887 C1880 1.409 . S
C1887 C1886 1.362 . S
H1888 C1894 0.930 . S
H1889 C1897 0.930 . S
H1890 C1898 0.930 . S
H1891 C1899 0.930 . S
H1892 C1902 0.930 . S
H1893 C1903 0.930 . S
C1894 H1888 0.930 . S
C1894 C1895 1.355 . S
C1894 C1896 1.415 . S
C1895 C1894 1.355 . S
C1895 C1897 1.419 . S
C1896 C1894 1.415 . S
C1896 C1901 1.425 . S
C1896 C1903 1.409 . S
C1897 H1889 0.930 . S
C1897 C1895 1.419 . S
C1897 C1898 1.362 . S
C1898 H1890 0.930 . S
C1898 C1897 1.362 . S
C1898 C1901 1.409 . S
C1899 H1891 0.930 . S
C1899 C1900 1.355 . S
C1899 C1901 1.415 . S
C1900 C1899 1.355 . S
C1900 C1902 1.419 . S
C1901 C1896 1.425 . S
C1901 C1898 1.409 . S
C1901 C1899 1.415 . S
C1902 H1892 0.930 . S
C1902 C1900 1.419 . S
C1902 C1903 1.362 . S
C1903 H1893 0.930 . S
C1903 C1896 1.409 . S
C1903 C1902 1.362 . S
H1904 C1910 0.930 . S
H1905 C1913 0.930 . S
H1906 C1914 0.930 . S
H1907 C1915 0.930 . S
H1908 C1918 0.930 . S
H1909 C1919 0.930 . S
C1910 H1904 0.930 . S
C1910 C1911 1.355 . S
C1910 C1912 1.415 . S
C1911 C1910 1.355 . S
C1911 C1913 1.419 . S
C1912 C1910 1.415 . S
C1912 C1917 1.425 . S
C1912 C1919 1.409 . S
C1913 H1905 0.930 . S
C1913 C1911 1.419 . S
C1913 C1914 1.362 . S
C1914 H1906 0.930 . S
C1914 C1913 1.362 . S
C1914 C1917 1.409 . S
C1915 H1907 0.930 . S
C1915 C1916 1.355 . S
C1915 C1917 1.415 . S
C1916 C1915 1.355 . S
C1916 C1918 1.419 . S
C1917 C1912 1.425 . S
C1917 C1914 1.409 . S
C1917 C1915 1.415 . S
C1918 H1908 0.930 . S
C1918 C1916 1.419 . S
C1918 C1919 1.362 . S
C1919 H1909 0.930 . S
C1919 C1912 1.409 . S
C1919 C1918 1.362 . S
H1920 C1926 0.930 . S
H1921 C1929 0.930 . S
H1922 C1930 0.930 . S
H1923 C1931 0.930 . S
H1924 C1934 0.930 . S
H1925 C1935 0.930 . S
C1926 H1920 0.930 . S
C1926 C1927 1.355 . S
C1926 C1928 1.415 . S
C1927 C1926 1.355 . S
C1927 C1929 1.419 . S
C1928 C1926 1.415 . S
C1928 C1933 1.425 . S
C1928 C1935 1.409 . S
C1929 H1921 0.930 . S
C1929 C1927 1.419 . S
C1929 C1930 1.362 . S
C1930 H1922 0.930 . S
C1930 C1929 1.362 . S
C1930 C1933 1.409 . S
C1931 H1923 0.930 . S
C1931 C1932 1.355 . S
C1931 C1933 1.415 . S
C1932 C1931 1.355 . S
C1932 C1934 1.419 . S
C1933 C1928 1.425 . S
C1933 C1930 1.409 . S
C1933 C1931 1.415 . S
C1934 H1924 0.930 . S
C1934 C1932 1.419 . S
C1934 C1935 1.362 . S
C1935 H1925 0.930 . S
C1935 C1928 1.409 . S
C1935 C1934 1.362 . S
H1936 C1942 0.930 . S
H1937 C1945 0.930 . S
H1938 C1946 0.930 . S
H1939 C1947 0.930 . S
H1940 C1950 0.930 . S
H1941 C1951 0.930 . S
C1942 H1936 0.930 . S
C1942 C1943 1.355 . S
C1942 C1944 1.415 . S
C1943 C1942 1.355 . S
C1943 C1945 1.419 . S
C1944 C1942 1.415 . S
C1944 C1949 1.425 . S
C1944 C1951 1.409 . S
C1945 H1937 0.930 . S
C1945 C1943 1.419 . S
C1945 C1946 1.362 . S
C1946 H1938 0.930 . S
C1946 C1945 1.362 . S
C1946 C1949 1.409 . S
C1947 H1939 0.930 . S
C1947 C1948 1.355 . S
C1947 C1949 1.415 . S
C1948 C1947 1.355 . S
C1948 C1950 1.419 . S
C1949 C1944 1.425 . S
C1949 C1946 1.409 . S
C1949 C1947 1.415 . S
C1950 H1940 0.930 . S
C1950 C1948 1.419 . S
C1950 C1951 1.362 . S
C1951 H1941 0.930 . S
C1951 C1944 1.409 . S
C1951 C1950 1.362 . S
H1952 C1958 0.930 . S
H1953 C1961 0.930 . S
H1954 C1962 0.930 . S
H1955 C1963 0.930 . S
H1956 C1966 0.930 . S
H1957 C1967 0.930 . S
C1958 H1952 0.930 . S
C1958 C1959 1.355 . S
C1958 C1960 1.415 . S
C1959 C1958 1.355 . S
C1959 C1961 1.419 . S
C1960 C1958 1.415 . S
C1960 C1965 1.425 . S
C1960 C1967 1.409 . S
C1961 H1953 0.930 . S
C1961 C1959 1.419 . S
C1961 C1962 1.362 . S
C1962 H1954 0.930 . S
C1962 C1961 1.362 . S
C1962 C1965 1.409 . S
C1963 H1955 0.930 . S
C1963 C1964 1.355 . S
C1963 C1965 1.415 . S
C1964 C1963 1.355 . S
C1964 C1966 1.419 . S
C1965 C1960 1.425 . S
C1965 C1962 1.409 . S
C1965 C1963 1.415 . S
C1966 H1956 0.930 . S
C1966 C1964 1.419 . S
C1966 C1967 1.362 . S
C1967 H1957 0.930 . S
C1967 C1960 1.409 . S
C1967 C1966 1.362 . S
H1968 C1974 0.930 . S
H1969 C1977 0.930 . S
H1970 C1978 0.930 . S
H1971 C1979 0.930 . S
H1972 C1982 0.930 . S
H1973 C1983 0.930 . S
C1974 H1968 0.930 . S
C1974 C1975 1.355 . S
C1974 C1976 1.415 . S
C1975 C1974 1.355 . S
C1975 C1977 1.419 . S
C1976 C1974 1.415 . S
C1976 C1981 1.425 . S
C1976 C1983 1.409 . S
C1977 H1969 0.930 . S
C1977 C1975 1.419 . S
C1977 C1978 1.362 . S
C1978 H1970 0.930 . S
C1978 C1977 1.362 . S
C1978 C1981 1.409 . S
C1979 H1971 0.930 . S
C1979 C1980 1.355 . S
C1979 C1981 1.415 . S
C1980 C1979 1.355 . S
C1980 C1982 1.419 . S
C1981 C1976 1.425 . S
C1981 C1978 1.409 . S
C1981 C1979 1.415 . S
C1982 H1972 0.930 . S
C1982 C1980 1.419 . S
C1982 C1983 1.362 . S
C1983 H1973 0.930 . S
C1983 C1976 1.409 . S
C1983 C1982 1.362 . S
H1984 C1990 0.930 . S
H1985 C1993 0.930 . S
H1986 C1994 0.930 . S
H1987 C1995 0.930 . S
H1988 C1998 0.930 . S
H1989 C1999 0.930 . S
C1990 H1984 0.930 . S
C1990 C1991 1.355 . S
C1990 C1992 1.415 1_545 S
C1991 C1990 1.355 . S
C1991 C1993 1.419 . S
C1992 C1990 1.415 1_565 S
C1992 C1997 1.425 1_565 S
C1992 C1999 1.409 . S
C1993 H1985 0.930 . S
C1993 C1991 1.419 . S
C1993 C1994 1.362 . S
C1994 H1986 0.930 . S
C1994 C1993 1.362 . S
C1994 C1997 1.409 . S
C1995 H1987 0.930 . S
C1995 C1996 1.355 . S
C1995 C1997 1.415 1_565 S
C1996 C1995 1.355 . S
C1996 C1998 1.419 . S
C1997 C1992 1.425 1_545 S
C1997 C1994 1.409 . S
C1997 C1995 1.415 1_545 S
C1998 H1988 0.930 . S
C1998 C1996 1.419 . S
C1998 C1999 1.362 . S
C1999 H1989 0.930 . S
C1999 C1992 1.409 . S
C1999 C1998 1.362 . S
H2000 C2006 0.916 1_655 S
H2001 C2009 0.930 . S
H2002 C2010 0.930 . S
H2003 C2011 0.930 1_455 S
H2004 C2014 0.930 . S
H2005 C2015 0.930 . S
C2006 H2000 0.916 1_455 S
C2006 C2007 1.378 . S
C2006 C2008 1.407 1_465 S
C2007 C2006 1.378 . S
C2007 C2009 1.419 . S
C2008 C2006 1.407 1_645 S
C2008 C2013 1.425 1_645 S
C2008 C2015 1.409 . S
C2009 H2001 0.930 . S
C2009 C2007 1.419 . S
C2009 C2010 1.362 . S
C2010 H2002 0.930 . S
C2010 C2009 1.362 . S
C2010 C2013 1.409 . S
C2011 H2003 0.930 1_655 S
C2011 C2012 1.355 . S
C2011 C2013 1.415 1_645 S
C2012 C2011 1.355 . S
C2012 C2014 1.419 . S
C2013 C2008 1.425 1_465 S
C2013 C2010 1.409 . S
C2013 C2011 1.415 1_465 S
C2014 H2004 0.930 . S
C2014 C2012 1.419 . S
C2014 C2015 1.362 . S
C2015 H2005 0.930 . S
C2015 C2008 1.409 . S
C2015 C2014 1.362 . S
H2016 C2022 0.930 . S
H2017 C2025 0.930 . S
H2018 C2026 0.930 . S
H2019 C2027 0.930 . S
H2020 C2030 0.930 . S
H2021 C2031 0.930 . S
C2022 H2016 0.930 . S
C2022 C2023 1.355 . S
C2022 C2024 1.415 . S
C2023 C2022 1.355 . S
C2023 C2025 1.419 1_565 S
C2024 C2022 1.415 . S
C2024 C2029 1.425 1_565 S
C2024 C2031 1.409 . S
C2025 H2017 0.930 . S
C2025 C2023 1.419 1_545 S
C2025 C2026 1.362 . S
C2026 H2018 0.930 . S
C2026 C2025 1.362 . S
C2026 C2029 1.409 . S
C2027 H2019 0.930 . S
C2027 C2028 1.355 . S
C2027 C2029 1.415 . S
C2028 C2027 1.355 . S
C2028 C2030 1.419 1_545 S
C2029 C2024 1.425 1_545 S
C2029 C2026 1.409 . S
C2029 C2027 1.415 . S
C2030 H2020 0.930 . S
C2030 C2028 1.419 1_565 S
C2030 C2031 1.362 . S
C2031 H2021 0.930 . S
C2031 C2024 1.409 . S
C2031 C2030 1.362 . S
H2032 C2038 0.930 . S
H2033 C2041 0.930 . S
H2034 C2042 0.930 . S
H2035 C2043 0.930 . S
H2036 C2046 0.930 . S
H2037 C2047 0.930 . S
C2038 H2032 0.930 . S
C2038 C2039 1.355 1_545 S
C2038 C2040 1.415 . S
C2039 C2038 1.355 1_565 S
C2039 C2041 1.419 . S
C2040 C2038 1.415 . S
C2040 C2045 1.425 1_645 S
C2040 C2047 1.409 . S
C2041 H2033 0.930 . S
C2041 C2039 1.419 . S
C2041 C2042 1.362 1_655 S
C2042 H2034 0.930 . S
C2042 C2041 1.362 1_455 S
C2042 C2045 1.409 . S
C2043 H2035 0.930 . S
C2043 C2044 1.355 1_565 S
C2043 C2045 1.415 . S
C2044 C2043 1.355 1_545 S
C2044 C2046 1.419 . S
C2045 C2040 1.425 1_465 S
C2045 C2042 1.409 . S
C2045 C2043 1.415 . S
C2046 H2036 0.930 . S
C2046 C2044 1.419 . S
C2046 C2047 1.362 1_455 S
C2047 H2037 0.930 . S
C2047 C2040 1.409 . S
C2047 C2046 1.362 1_655 S
H2048 C2054 0.930 . S
H2049 C2057 0.930 . S
H2050 C2058 0.930 . S
H2051 C2059 0.930 1_455 S
H2052 C2062 0.930 . S
H2053 C2063 0.930 . S
C2054 H2048 0.930 . S
C2054 C2055 1.355 1_655 S
C2054 C2056 1.415 . S
C2055 C2054 1.355 1_455 S
C2055 C2057 1.419 . S
C2056 C2054 1.415 . S
C2056 C2061 1.425 1_655 S
C2056 C2063 1.409 . S
C2057 H2049 0.930 . S
C2057 C2055 1.419 . S
C2057 C2058 1.362 . S
C2058 H2050 0.930 . S
C2058 C2057 1.362 . S
C2058 C2061 1.409 . S
C2059 H2051 0.930 1_655 S
C2059 C2060 1.355 . S
C2059 C2061 1.415 1_655 S
C2060 C2059 1.355 . S
C2060 C2062 1.419 . S
C2061 C2056 1.425 1_455 S
C2061 C2058 1.409 . S
C2061 C2059 1.415 1_455 S
C2062 H2052 0.930 . S
C2062 C2060 1.419 . S
C2062 C2063 1.362 . S
C2063 H2053 0.930 . S
C2063 C2056 1.409 . S
C2063 C2062 1.362 . S
H2064 C2070 0.930 . S
H2065 C2073 0.930 . S
H2066 C2074 0.930 . S
H2067 C2075 0.930 . S
H2068 C2078 0.930 . S
H2069 C2079 0.930 . S
C2070 H2064 0.930 . S
C2070 C2071 1.355 . S
C2070 C2072 1.415 . S
C2071 C2070 1.355 . S
C2071 C2073 1.419 . S
C2072 C2070 1.415 . S
C2072 C2077 1.425 . S
C2072 C2079 1.409 . S
C2073 H2065 0.930 . S
C2073 C2071 1.419 . S
C2073 C2074 1.362 . S
C2074 H2066 0.930 . S
C2074 C2073 1.362 . S
C2074 C2077 1.409 . S
C2075 H2067 0.930 . S
C2075 C2076 1.355 . S
C2075 C2077 1.415 . S
C2076 C2075 1.355 . S
C2076 C2078 1.419 . S
C2077 C2072 1.425 . S
C2077 C2074 1.409 . S
C2077 C2075 1.415 . S
C2078 H2068 0.930 . S
C2078 C2076 1.419 . S
C2078 C2079 1.362 . S
C2079 H2069 0.930 . S
C2079 C2072 1.409 . S
C2079 C2078 1.362 . S
H2080 C2086 0.930 . S
H2081 C2089 0.930 . S
H2082 C2090 0.930 . S
H2083 C2091 0.930 . S
H2084 C2094 0.930 . S
H2085 C2095 0.930 . S
C2086 H2080 0.930 . S
C2086 C2087 1.355 . S
C2086 C2088 1.415 . S
C2087 C2086 1.355 . S
C2087 C2089 1.419 . S
C2088 C2086 1.415 . S
C2088 C2093 1.425 . S
C2088 C2095 1.409 . S
C2089 H2081 0.930 . S
C2089 C2087 1.419 . S
C2089 C2090 1.362 . S
C2090 H2082 0.930 . S
C2090 C2089 1.362 . S
C2090 C2093 1.409 . S
C2091 H2083 0.930 . S
C2091 C2092 1.355 . S
C2091 C2093 1.415 . S
C2092 C2091 1.355 . S
C2092 C2094 1.419 . S
C2093 C2088 1.425 . S
C2093 C2090 1.409 . S
C2093 C2091 1.415 . S
C2094 H2084 0.930 . S
C2094 C2092 1.419 . S
C2094 C2095 1.362 . S
C2095 H2085 0.930 . S
C2095 C2088 1.409 . S
C2095 C2094 1.362 . S
H2096 C2102 0.930 . S
H2097 C2105 0.930 . S
H2098 C2106 0.930 . S
H2099 C2107 0.930 . S
H2100 C2110 0.930 . S
H2101 C2111 0.930 . S
C2102 H2096 0.930 . S
C2102 C2103 1.355 . S
C2102 C2104 1.415 . S
C2103 C2102 1.355 . S
C2103 C2105 1.419 . S
C2104 C2102 1.415 . S
C2104 C2109 1.425 . S
C2104 C2111 1.409 . S
C2105 H2097 0.930 . S
C2105 C2103 1.419 . S
C2105 C2106 1.362 . S
C2106 H2098 0.930 . S
C2106 C2105 1.362 . S
C2106 C2109 1.409 . S
C2107 H2099 0.930 . S
C2107 C2108 1.355 . S
C2107 C2109 1.415 . S
C2108 C2107 1.355 . S
C2108 C2110 1.419 . S
C2109 C2104 1.425 . S
C2109 C2106 1.409 . S
C2109 C2107 1.415 . S
C2110 H2100 0.930 . S
C2110 C2108 1.419 . S
C2110 C2111 1.362 . S
C2111 H2101 0.930 . S
C2111 C2104 1.409 . S
C2111 C2110 1.362 . S
H2112 C2118 0.930 . S
H2113 C2121 0.930 . S
H2114 C2122 0.930 . S
H2115 C2123 0.930 . S
H2116 C2126 0.930 . S
H2117 C2127 0.930 1_655 S
C2118 H2112 0.930 . S
C2118 C2119 1.355 1_655 S
C2118 C2120 1.415 1_655 S
C2119 C2118 1.355 1_455 S
C2119 C2121 1.419 . S
C2120 C2118 1.415 1_455 S
C2120 C2125 1.425 . S
C2120 C2127 1.409 . S
C2121 H2113 0.930 . S
C2121 C2119 1.419 . S
C2121 C2122 1.362 . S
C2122 H2114 0.930 . S
C2122 C2121 1.362 . S
C2122 C2125 1.409 . S
C2123 H2115 0.930 . S
C2123 C2124 1.355 . S
C2123 C2125 1.415 . S
C2124 C2123 1.355 . S
C2124 C2126 1.419 . S
C2125 C2120 1.425 . S
C2125 C2122 1.409 . S
C2125 C2123 1.415 . S
C2126 H2116 0.930 . S
C2126 C2124 1.419 . S
C2126 C2127 1.362 . S
C2127 H2117 0.930 1_455 S
C2127 C2120 1.409 . S
C2127 C2126 1.362 . S
H2128 C2134 0.930 . S
H2129 C2137 0.930 . S
H2130 C2138 0.930 . S
H2131 C2139 0.930 . S
H2132 C2142 0.930 . S
H2133 C2143 0.930 . S
C2134 H2128 0.930 . S
C2134 C2135 1.355 . S
C2134 C2136 1.415 . S
C2135 C2134 1.355 . S
C2135 C2137 1.419 . S
C2136 C2134 1.415 . S
C2136 C2141 1.425 . S
C2136 C2143 1.409 . S
C2137 H2129 0.930 . S
C2137 C2135 1.419 . S
C2137 C2138 1.362 . S
C2138 H2130 0.930 . S
C2138 C2137 1.362 . S
C2138 C2141 1.409 . S
C2139 H2131 0.930 . S
C2139 C2140 1.355 . S
C2139 C2141 1.415 . S
C2140 C2139 1.355 . S
C2140 C2142 1.419 . S
C2141 C2136 1.425 . S
C2141 C2138 1.409 . S
C2141 C2139 1.415 . S
C2142 H2132 0.930 . S
C2142 C2140 1.419 . S
C2142 C2143 1.362 . S
C2143 H2133 0.930 . S
C2143 C2136 1.409 . S
C2143 C2142 1.362 . S
H2144 C2150 0.930 . S
H2145 C2153 0.930 . S
H2146 C2154 0.930 . S
H2147 C2155 0.930 . S
H2148 C2158 0.930 . S
H2149 C2159 0.930 . S
C2150 H2144 0.930 . S
C2150 C2151 1.355 . S
C2150 C2152 1.415 . S
C2151 C2150 1.355 . S
C2151 C2153 1.419 . S
C2152 C2150 1.415 . S
C2152 C2157 1.425 . S
C2152 C2159 1.409 . S
C2153 H2145 0.930 . S
C2153 C2151 1.419 . S
C2153 C2154 1.362 . S
C2154 H2146 0.930 . S
C2154 C2153 1.362 . S
C2154 C2157 1.409 . S
C2155 H2147 0.930 . S
C2155 C2156 1.355 . S
C2155 C2157 1.415 . S
C2156 C2155 1.355 . S
C2156 C2158 1.419 . S
C2157 C2152 1.425 . S
C2157 C2154 1.409 . S
C2157 C2155 1.415 . S
C2158 H2148 0.930 . S
C2158 C2156 1.419 . S
C2158 C2159 1.362 . S
C2159 H2149 0.930 . S
C2159 C2152 1.409 . S
C2159 C2158 1.362 . S
H2160 C2166 0.930 . S
H2161 C2169 0.930 . S
H2162 C2170 0.930 . S
H2163 C2171 0.930 . S
H2164 C2174 0.930 . S
H2165 C2175 0.930 . S
C2166 H2160 0.930 . S
C2166 C2167 1.355 . S
C2166 C2168 1.415 . S
C2167 C2166 1.355 . S
C2167 C2169 1.419 . S
C2168 C2166 1.415 . S
C2168 C2173 1.425 . S
C2168 C2175 1.409 . S
C2169 H2161 0.930 . S
C2169 C2167 1.419 . S
C2169 C2170 1.362 . S
C2170 H2162 0.930 . S
C2170 C2169 1.362 . S
C2170 C2173 1.409 . S
C2171 H2163 0.930 . S
C2171 C2172 1.355 . S
C2171 C2173 1.415 . S
C2172 C2171 1.355 . S
C2172 C2174 1.419 . S
C2173 C2168 1.425 . S
C2173 C2170 1.409 . S
C2173 C2171 1.415 . S
C2174 H2164 0.930 . S
C2174 C2172 1.419 . S
C2174 C2175 1.362 . S
C2175 H2165 0.930 . S
C2175 C2168 1.409 . S
C2175 C2174 1.362 . S
H2176 C2182 0.930 . S
H2177 C2185 0.930 . S
H2178 C2186 0.946 . S
H2179 C2187 0.930 . S
H2180 C2190 0.930 . S
H2181 C2191 0.930 . S
C2182 H2176 0.930 . S
C2182 C2183 1.355 . S
C2182 C2184 1.415 . S
C2183 C2182 1.355 . S
C2183 C2185 1.419 . S
C2184 C2182 1.415 . S
C2184 C2189 1.425 . S
C2184 C2191 1.409 . S
C2185 H2177 0.930 . S
C2185 C2183 1.419 . S
C2185 C2186 1.362 . S
C2186 H2178 0.946 . S
C2186 C2185 1.362 . S
C2186 C2189 1.409 . S
C2187 H2179 0.930 . S
C2187 C2188 1.355 . S
C2187 C2189 1.415 1_655 S
C2188 C2187 1.355 . S
C2188 C2190 1.419 . S
C2189 C2184 1.425 . S
C2189 C2186 1.409 . S
C2189 C2187 1.415 1_455 S
C2190 H2180 0.930 . S
C2190 C2188 1.419 . S
C2190 C2191 1.362 1_655 S
C2191 H2181 0.930 . S
C2191 C2184 1.409 . S
C2191 C2190 1.362 1_455 S
H2192 C2198 0.930 . S
H2193 C2201 0.930 . S
H2194 C2202 0.930 . S
H2195 C2203 0.930 . S
H2196 C2206 0.930 . S
H2197 C2207 0.930 . S
C2198 H2192 0.930 . S
C2198 C2199 1.355 . S
C2198 C2200 1.415 . S
C2199 C2198 1.355 . S
C2199 C2201 1.419 . S
C2200 C2198 1.415 . S
C2200 C2205 1.425 . S
C2200 C2207 1.409 . S
C2201 H2193 0.930 . S
C2201 C2199 1.419 . S
C2201 C2202 1.362 . S
C2202 H2194 0.930 . S
C2202 C2201 1.362 . S
C2202 C2205 1.409 . S
C2203 H2195 0.930 . S
C2203 C2204 1.355 . S
C2203 C2205 1.415 . S
C2204 C2203 1.355 . S
C2204 C2206 1.419 . S
C2205 C2200 1.425 . S
C2205 C2202 1.409 . S
C2205 C2203 1.415 . S
C2206 H2196 0.930 . S
C2206 C2204 1.419 . S
C2206 C2207 1.362 . S
C2207 H2197 0.930 . S
C2207 C2200 1.409 . S
C2207 C2206 1.362 . S
H2208 C2214 0.930 . S
H2209 C2217 0.930 . S
H2210 C2218 0.930 . S
H2211 C2219 0.930 . S
H2212 C2222 0.930 . S
H2213 C2223 0.930 . S
C2214 H2208 0.930 . S
C2214 C2215 1.355 . S
C2214 C2216 1.415 . S
C2215 C2214 1.355 . S
C2215 C2217 1.419 . S
C2216 C2214 1.415 . S
C2216 C2221 1.425 . S
C2216 C2223 1.409 . S
C2217 H2209 0.930 . S
C2217 C2215 1.419 . S
C2217 C2218 1.362 . S
C2218 H2210 0.930 . S
C2218 C2217 1.362 . S
C2218 C2221 1.409 . S
C2219 H2211 0.930 . S
C2219 C2220 1.355 . S
C2219 C2221 1.415 . S
C2220 C2219 1.355 . S
C2220 C2222 1.419 . S
C2221 C2216 1.425 . S
C2221 C2218 1.409 . S
C2221 C2219 1.415 . S
C2222 H2212 0.930 . S
C2222 C2220 1.419 . S
C2222 C2223 1.362 . S
C2223 H2213 0.930 . S
C2223 C2216 1.409 . S
C2223 C2222 1.362 . S
H2224 C2230 0.930 . S
H2225 C2233 0.930 . S
H2226 C2234 0.930 . S
H2227 C2235 0.930 . S
H2228 C2238 0.930 . S
H2229 C2239 0.930 . S
C2230 H2224 0.930 . S
C2230 C2231 1.355 . S
C2230 C2232 1.415 . S
C2231 C2230 1.355 . S
C2231 C2233 1.419 . S
C2232 C2230 1.415 . S
C2232 C2237 1.425 . S
C2232 C2239 1.409 . S
C2233 H2225 0.930 . S
C2233 C2231 1.419 . S
C2233 C2234 1.362 . S
C2234 H2226 0.930 . S
C2234 C2233 1.362 . S
C2234 C2237 1.409 . S
C2235 H2227 0.930 . S
C2235 C2236 1.355 . S
C2235 C2237 1.415 . S
C2236 C2235 1.355 . S
C2236 C2238 1.419 . S
C2237 C2232 1.425 . S
C2237 C2234 1.409 . S
C2237 C2235 1.415 . S
C2238 H2228 0.930 . S
C2238 C2236 1.419 . S
C2238 C2239 1.362 . S
C2239 H2229 0.930 . S
C2239 C2232 1.409 . S
C2239 C2238 1.362 . S
H2240 C2246 0.930 . S
H2241 C2249 0.930 . S
H2242 C2250 0.930 . S
H2243 C2251 0.930 . S
H2244 C2254 0.930 . S
H2245 C2255 0.930 1_455 S
C2246 H2240 0.930 . S
C2246 C2247 1.355 1_455 S
C2246 C2248 1.415 1_455 S
C2247 C2246 1.355 1_655 S
C2247 C2249 1.419 . S
C2248 C2246 1.415 1_655 S
C2248 C2253 1.425 . S
C2248 C2255 1.409 . S
C2249 H2241 0.930 . S
C2249 C2247 1.419 . S
C2249 C2250 1.362 . S
C2250 H2242 0.930 . S
C2250 C2249 1.362 . S
C2250 C2253 1.409 . S
C2251 H2243 0.930 . S
C2251 C2252 1.355 . S
C2251 C2253 1.415 . S
C2252 C2251 1.355 . S
C2252 C2254 1.419 . S
C2253 C2248 1.425 . S
C2253 C2250 1.409 . S
C2253 C2251 1.415 . S
C2254 H2244 0.930 . S
C2254 C2252 1.419 . S
C2254 C2255 1.362 . S
C2255 H2245 0.930 1_655 S
C2255 C2248 1.409 . S
C2255 C2254 1.362 . S
H2256 C2262 0.930 . S
H2257 C2265 0.930 . S
H2258 C2266 0.930 . S
H2259 C2267 0.930 . S
H2260 C2270 0.930 . S
H2261 C2271 0.930 . S
C2262 H2256 0.930 . S
C2262 C2263 1.355 . S
C2262 C2264 1.415 . S
C2263 C2262 1.355 . S
C2263 C2265 1.419 . S
C2264 C2262 1.415 . S
C2264 C2269 1.425 . S
C2264 C2271 1.409 . S
C2265 H2257 0.930 . S
C2265 C2263 1.419 . S
C2265 C2266 1.362 . S
C2266 H2258 0.930 . S
C2266 C2265 1.362 . S
C2266 C2269 1.409 . S
C2267 H2259 0.930 . S
C2267 C2268 1.355 . S
C2267 C2269 1.415 . S
C2268 C2267 1.355 . S
C2268 C2270 1.419 . S
C2269 C2264 1.425 . S
C2269 C2266 1.409 . S
C2269 C2267 1.415 . S
C2270 H2260 0.930 . S
C2270 C2268 1.419 . S
C2270 C2271 1.362 . S
C2271 H2261 0.930 . S
C2271 C2264 1.409 . S
C2271 C2270 1.362 . S
H2272 C2278 0.930 1_554 S
H2273 C2281 0.930 . S
H2274 C2282 0.930 . S
H2275 C2283 0.930 . S
H2276 C2286 0.930 . S
H2277 C2287 0.930 . S
C2278 H2272 0.930 1_556 S
C2278 C2279 1.355 . S
C2278 C2280 1.415 . S
C2279 C2278 1.355 . S
C2279 C2281 1.419 . S
C2280 C2278 1.415 . S
C2280 C2285 1.425 . S
C2280 C2287 1.409 . S
C2281 H2273 0.930 . S
C2281 C2279 1.419 . S
C2281 C2282 1.362 . S
C2282 H2274 0.930 . S
C2282 C2281 1.362 . S
C2282 C2285 1.409 . S
C2283 H2275 0.930 . S
C2283 C2284 1.355 . S
C2283 C2285 1.415 . S
C2284 C2283 1.355 . S
C2284 C2286 1.419 . S
C2285 C2280 1.425 . S
C2285 C2282 1.409 . S
C2285 C2283 1.415 . S
C2286 H2276 0.930 . S
C2286 C2284 1.419 . S
C2286 C2287 1.362 . S
C2287 H2277 0.930 . S
C2287 C2280 1.409 . S
C2287 C2286 1.362 . S
H2288 C2294 0.930 . S
H2289 C2297 0.930 . S
H2290 C2298 0.930 . S
H2291 C2299 0.930 . S
H2292 C2302 0.930 . S
H2293 C2303 0.930 . S
C2294 H2288 0.930 . S
C2294 C2295 1.355 . S
C2294 C2296 1.415 . S
C2295 C2294 1.355 . S
C2295 C2297 1.419 . S
C2296 C2294 1.415 . S
C2296 C2301 1.425 . S
C2296 C2303 1.409 . S
C2297 H2289 0.930 . S
C2297 C2295 1.419 . S
C2297 C2298 1.362 . S
C2298 H2290 0.930 . S
C2298 C2297 1.362 . S
C2298 C2301 1.409 . S
C2299 H2291 0.930 . S
C2299 C2300 1.355 . S
C2299 C2301 1.415 . S
C2300 C2299 1.355 . S
C2300 C2302 1.419 . S
C2301 C2296 1.425 . S
C2301 C2298 1.409 . S
C2301 C2299 1.415 . S
C2302 H2292 0.930 . S
C2302 C2300 1.419 . S
C2302 C2303 1.362 . S
C2303 H2293 0.930 . S
C2303 C2296 1.409 . S
C2303 C2302 1.362 . S
H2304 C2310 0.930 . S
H2305 C2313 0.930 . S
H2306 C2314 0.930 . S
H2307 C2315 0.930 . S
H2308 C2318 0.930 . S
H2309 C2319 0.930 . S
C2310 H2304 0.930 . S
C2310 C2311 1.355 . S
C2310 C2312 1.415 . S
C2311 C2310 1.355 . S
C2311 C2313 1.419 . S
C2312 C2310 1.415 . S
C2312 C2317 1.425 . S
C2312 C2319 1.409 . S
C2313 H2305 0.930 . S
C2313 C2311 1.419 . S
C2313 C2314 1.362 . S
C2314 H2306 0.930 . S
C2314 C2313 1.362 . S
C2314 C2317 1.409 . S
C2315 H2307 0.930 . S
C2315 C2316 1.355 . S
C2315 C2317 1.415 . S
C2316 C2315 1.355 . S
C2316 C2318 1.419 . S
C2317 C2312 1.425 . S
C2317 C2314 1.409 . S
C2317 C2315 1.415 . S
C2318 H2308 0.930 . S
C2318 C2316 1.419 . S
C2318 C2319 1.362 . S
C2319 H2309 0.930 . S
C2319 C2312 1.409 . S
C2319 C2318 1.362 . S
H2320 C2326 0.930 . S
H2321 C2329 0.930 . S
H2322 C2330 0.930 . S
H2323 C2331 0.930 . S
H2324 C2334 0.930 . S
H2325 C2335 0.930 . S
C2326 H2320 0.930 . S
C2326 C2327 1.355 . S
C2326 C2328 1.415 . S
C2327 C2326 1.355 . S
C2327 C2329 1.419 . S
C2328 C2326 1.415 . S
C2328 C2333 1.425 . S
C2328 C2335 1.409 . S
C2329 H2321 0.930 . S
C2329 C2327 1.419 . S
C2329 C2330 1.362 . S
C2330 H2322 0.930 . S
C2330 C2329 1.362 . S
C2330 C2333 1.409 . S
C2331 H2323 0.930 . S
C2331 C2332 1.355 . S
C2331 C2333 1.415 . S
C2332 C2331 1.355 . S
C2332 C2334 1.419 . S
C2333 C2328 1.425 . S
C2333 C2330 1.409 . S
C2333 C2331 1.415 . S
C2334 H2324 0.930 . S
C2334 C2332 1.419 . S
C2334 C2335 1.362 . S
C2335 H2325 0.930 . S
C2335 C2328 1.409 . S
C2335 C2334 1.362 . S
H2336 C2342 0.930 1_554 S
H2337 C2345 0.930 . S
H2338 C2346 0.930 . S
H2339 C2347 0.930 . S
H2340 C2350 0.930 . S
H2341 C2351 0.930 . S
C2342 H2336 0.930 1_556 S
C2342 C2343 1.355 . S
C2342 C2344 1.415 1_655 S
C2343 C2342 1.355 . S
C2343 C2345 1.419 . S
C2344 C2342 1.415 1_455 S
C2344 C2349 1.425 . S
C2344 C2351 1.409 . S
C2345 H2337 0.930 . S
C2345 C2343 1.419 . S
C2345 C2346 1.362 . S
C2346 H2338 0.930 . S
C2346 C2345 1.362 . S
C2346 C2349 1.409 1_655 S
C2347 H2339 0.930 . S
C2347 C2348 1.355 . S
C2347 C2349 1.415 . S
C2348 C2347 1.355 . S
C2348 C2350 1.419 . S
C2349 C2344 1.425 . S
C2349 C2346 1.409 1_455 S
C2349 C2347 1.415 . S
C2350 H2340 0.930 . S
C2350 C2348 1.419 . S
C2350 C2351 1.362 . S
C2351 H2341 0.930 . S
C2351 C2344 1.409 . S
C2351 C2350 1.362 . S
H2352 C2358 0.930 . S
H2353 C2361 0.930 . S
H2354 C2362 0.930 . S
H2355 C2363 0.930 . S
H2356 C2366 0.930 . S
H2357 C2367 0.930 . S
C2358 H2352 0.930 . S
C2358 C2359 1.355 . S
C2358 C2360 1.415 . S
C2359 C2358 1.355 . S
C2359 C2361 1.419 . S
C2360 C2358 1.415 . S
C2360 C2365 1.425 . S
C2360 C2367 1.409 . S
C2361 H2353 0.930 . S
C2361 C2359 1.419 . S
C2361 C2362 1.362 . S
C2362 H2354 0.930 . S
C2362 C2361 1.362 . S
C2362 C2365 1.409 . S
C2363 H2355 0.930 . S
C2363 C2364 1.355 . S
C2363 C2365 1.415 . S
C2364 C2363 1.355 . S
C2364 C2366 1.419 . S
C2365 C2360 1.425 . S
C2365 C2362 1.409 . S
C2365 C2363 1.415 . S
C2366 H2356 0.930 . S
C2366 C2364 1.419 . S
C2366 C2367 1.362 . S
C2367 H2357 0.930 . S
C2367 C2360 1.409 . S
C2367 C2366 1.362 . S
H2368 C2374 0.930 . S
H2369 C2377 0.930 . S
H2370 C2378 0.930 . S
H2371 C2379 0.930 . S
H2372 C2382 0.930 . S
H2373 C2383 0.930 . S
C2374 H2368 0.930 . S
C2374 C2375 1.355 . S
C2374 C2376 1.415 . S
C2375 C2374 1.355 . S
C2375 C2377 1.419 . S
C2376 C2374 1.415 . S
C2376 C2381 1.425 . S
C2376 C2383 1.409 . S
C2377 H2369 0.930 . S
C2377 C2375 1.419 . S
C2377 C2378 1.362 . S
C2378 H2370 0.930 . S
C2378 C2377 1.362 . S
C2378 C2381 1.409 . S
C2379 H2371 0.930 . S
C2379 C2380 1.355 . S
C2379 C2381 1.415 . S
C2380 C2379 1.355 . S
C2380 C2382 1.419 . S
C2381 C2376 1.425 . S
C2381 C2378 1.409 . S
C2381 C2379 1.415 . S
C2382 H2372 0.930 . S
C2382 C2380 1.419 . S
C2382 C2383 1.362 . S
C2383 H2373 0.930 . S
C2383 C2376 1.409 . S
C2383 C2382 1.362 . S
H2384 C2390 0.930 . S
H2385 C2393 0.930 . S
H2386 C2394 0.930 . S
H2387 C2395 0.930 . S
H2388 C2398 0.930 . S
H2389 C2399 0.930 . S
C2390 H2384 0.930 . S
C2390 C2391 1.355 . S
C2390 C2392 1.415 . S
C2391 C2390 1.355 . S
C2391 C2393 1.419 . S
C2392 C2390 1.415 . S
C2392 C2397 1.425 . S
C2392 C2399 1.409 . S
C2393 H2385 0.930 . S
C2393 C2391 1.419 . S
C2393 C2394 1.362 . S
C2394 H2386 0.930 . S
C2394 C2393 1.362 . S
C2394 C2397 1.409 . S
C2395 H2387 0.930 . S
C2395 C2396 1.355 . S
C2395 C2397 1.415 . S
C2396 C2395 1.355 . S
C2396 C2398 1.419 . S
C2397 C2392 1.425 . S
C2397 C2394 1.409 . S
C2397 C2395 1.415 . S
C2398 H2388 0.930 . S
C2398 C2396 1.419 . S
C2398 C2399 1.362 . S
C2399 H2389 0.930 . S
C2399 C2392 1.409 . S
C2399 C2398 1.362 . S
H2400 C2406 0.930 . S
H2401 C2409 0.930 . S
H2402 C2410 0.930 . S
H2403 C2411 0.930 . S
H2404 C2414 0.930 . S
H2405 C2415 0.930 . S
C2406 H2400 0.930 . S
C2406 C2407 1.355 1_655 S
C2406 C2408 1.415 . S
C2407 C2406 1.355 1_455 S
C2407 C2409 1.419 . S
C2408 C2406 1.415 . S
C2408 C2413 1.425 . S
C2408 C2415 1.409 . S
C2409 H2401 0.930 . S
C2409 C2407 1.419 . S
C2409 C2410 1.362 . S
C2410 H2402 0.930 . S
C2410 C2409 1.362 . S
C2410 C2413 1.409 1_455 S
C2411 H2403 0.930 . S
C2411 C2412 1.355 . S
C2411 C2413 1.415 . S
C2412 C2411 1.355 . S
C2412 C2414 1.419 . S
C2413 C2408 1.425 . S
C2413 C2410 1.409 1_655 S
C2413 C2411 1.415 . S
C2414 H2404 0.930 . S
C2414 C2412 1.419 . S
C2414 C2415 1.362 . S
C2415 H2405 0.930 . S
C2415 C2408 1.409 . S
C2415 C2414 1.362 . S
H2416 C2422 0.930 . S
H2417 C2425 0.930 . S
H2418 C2426 0.930 . S
H2419 C2427 0.930 . S
H2420 C2430 0.930 . S
H2421 C2431 0.930 . S
C2422 H2416 0.930 . S
C2422 C2423 1.355 . S
C2422 C2424 1.415 . S
C2423 C2422 1.355 . S
C2423 C2425 1.419 . S
C2424 C2422 1.415 . S
C2424 C2429 1.425 . S
C2424 C2431 1.409 . S
C2425 H2417 0.930 . S
C2425 C2423 1.419 . S
C2425 C2426 1.362 . S
C2426 H2418 0.930 . S
C2426 C2425 1.362 . S
C2426 C2429 1.409 . S
C2427 H2419 0.930 . S
C2427 C2428 1.355 . S
C2427 C2429 1.415 . S
C2428 C2427 1.355 . S
C2428 C2430 1.419 . S
C2429 C2424 1.425 . S
C2429 C2426 1.409 . S
C2429 C2427 1.415 . S
C2430 H2420 0.930 . S
C2430 C2428 1.419 . S
C2430 C2431 1.362 . S
C2431 H2421 0.930 . S
C2431 C2424 1.409 . S
C2431 C2430 1.362 . S
H2432 C2438 0.930 . S
H2433 C2441 0.930 . S
H2434 C2442 0.930 . S
H2435 C2443 0.930 . S
H2436 C2446 0.930 . S
H2437 C2447 0.930 . S
C2438 H2432 0.930 . S
C2438 C2439 1.355 . S
C2438 C2440 1.415 . S
C2439 C2438 1.355 . S
C2439 C2441 1.419 . S
C2440 C2438 1.415 . S
C2440 C2445 1.425 . S
C2440 C2447 1.409 . S
C2441 H2433 0.930 . S
C2441 C2439 1.419 . S
C2441 C2442 1.362 . S
C2442 H2434 0.930 . S
C2442 C2441 1.362 . S
C2442 C2445 1.409 . S
C2443 H2435 0.930 . S
C2443 C2444 1.355 . S
C2443 C2445 1.415 . S
C2444 C2443 1.355 . S
C2444 C2446 1.419 . S
C2445 C2440 1.425 . S
C2445 C2442 1.409 . S
C2445 C2443 1.415 . S
C2446 H2436 0.930 . S
C2446 C2444 1.419 . S
C2446 C2447 1.362 . S
C2447 H2437 0.930 . S
C2447 C2440 1.409 . S
C2447 C2446 1.362 . S
H2448 C2454 0.930 . S
H2449 C2457 0.930 . S
H2450 C2458 0.930 . S
H2451 C2459 0.930 . S
H2452 C2462 0.930 . S
H2453 C2463 0.930 . S
C2454 H2448 0.930 . S
C2454 C2455 1.355 . S
C2454 C2456 1.415 . S
C2455 C2454 1.355 . S
C2455 C2457 1.419 . S
C2456 C2454 1.415 . S
C2456 C2461 1.425 . S
C2456 C2463 1.409 . S
C2457 H2449 0.930 . S
C2457 C2455 1.419 . S
C2457 C2458 1.362 . S
C2458 H2450 0.930 . S
C2458 C2457 1.362 . S
C2458 C2461 1.409 . S
C2459 H2451 0.930 . S
C2459 C2460 1.355 . S
C2459 C2461 1.415 . S
C2460 C2459 1.355 . S
C2460 C2462 1.419 . S
C2461 C2456 1.425 . S
C2461 C2458 1.409 . S
C2461 C2459 1.415 . S
C2462 H2452 0.930 . S
C2462 C2460 1.419 . S
C2462 C2463 1.362 . S
C2463 H2453 0.930 . S
C2463 C2456 1.409 . S
C2463 C2462 1.362 . S
H2464 C2470 0.930 . S
H2465 C2473 0.930 . S
H2466 C2474 0.930 . S
H2467 C2475 0.930 . S
H2468 C2478 0.930 . S
H2469 C2479 0.930 . S
C2470 H2464 0.930 . S
C2470 C2471 1.355 . S
C2470 C2472 1.415 1_455 S
C2471 C2470 1.355 . S
C2471 C2473 1.419 . S
C2472 C2470 1.415 1_655 S
C2472 C2477 1.425 . S
C2472 C2479 1.409 . S
C2473 H2465 0.930 . S
C2473 C2471 1.419 . S
C2473 C2474 1.362 . S
C2474 H2466 0.930 . S
C2474 C2473 1.362 . S
C2474 C2477 1.409 1_455 S
C2475 H2467 0.930 . S
C2475 C2476 1.355 . S
C2475 C2477 1.415 . S
C2476 C2475 1.355 . S
C2476 C2478 1.419 . S
C2477 C2472 1.425 . S
C2477 C2474 1.409 1_655 S
C2477 C2475 1.415 . S
C2478 H2468 0.930 . S
C2478 C2476 1.419 . S
C2478 C2479 1.362 . S
C2479 H2469 0.930 . S
C2479 C2472 1.409 . S
C2479 C2478 1.362 . S
H2480 C2486 0.930 . S
H2481 C2489 0.930 . S
H2482 C2490 0.930 . S
H2483 C2491 0.930 . S
H2484 C2494 0.930 . S
H2485 C2495 0.930 . S
C2486 H2480 0.930 . S
C2486 C2487 1.355 . S
C2486 C2488 1.415 . S
C2487 C2486 1.355 . S
C2487 C2489 1.419 . S
C2488 C2486 1.415 . S
C2488 C2493 1.425 . S
C2488 C2495 1.409 . S
C2489 H2481 0.930 . S
C2489 C2487 1.419 . S
C2489 C2490 1.362 . S
C2490 H2482 0.930 . S
C2490 C2489 1.362 . S
C2490 C2493 1.409 . S
C2491 H2483 0.930 . S
C2491 C2492 1.355 . S
C2491 C2493 1.415 . S
C2492 C2491 1.355 . S
C2492 C2494 1.419 . S
C2493 C2488 1.425 . S
C2493 C2490 1.409 . S
C2493 C2491 1.415 . S
C2494 H2484 0.930 . S
C2494 C2492 1.419 . S
C2494 C2495 1.362 . S
C2495 H2485 0.930 . S
C2495 C2488 1.409 . S
C2495 C2494 1.362 . S
H2496 C2502 0.930 . S
H2497 C2505 0.930 . S
H2498 C2506 0.930 . S
H2499 C2507 0.930 . S
H2500 C2510 0.930 . S
H2501 C2511 0.930 . S
C2502 H2496 0.930 . S
C2502 C2503 1.355 . S
C2502 C2504 1.415 . S
C2503 C2502 1.355 . S
C2503 C2505 1.419 . S
C2504 C2502 1.415 . S
C2504 C2509 1.425 . S
C2504 C2511 1.409 . S
C2505 H2497 0.930 . S
C2505 C2503 1.419 . S
C2505 C2506 1.362 . S
C2506 H2498 0.930 . S
C2506 C2505 1.362 . S
C2506 C2509 1.409 . S
C2507 H2499 0.930 . S
C2507 C2508 1.355 1_556 S
C2507 C2509 1.415 . S
C2508 C2507 1.355 1_554 S
C2508 C2510 1.419 . S
C2509 C2504 1.425 . S
C2509 C2506 1.409 . S
C2509 C2507 1.415 . S
C2510 H2500 0.930 . S
C2510 C2508 1.419 . S
C2510 C2511 1.362 1_554 S
C2511 H2501 0.930 . S
C2511 C2504 1.409 . S
C2511 C2510 1.362 1_556 S
H2512 C2518 0.930 . S
H2513 C2521 0.930 . S
H2514 C2522 0.930 . S
H2515 C2523 0.930 . S
H2516 C2526 0.930 . S
H2517 C2527 0.930 . S
C2518 H2512 0.930 . S
C2518 C2519 1.355 . S
C2518 C2520 1.415 . S
C2519 C2518 1.355 . S
C2519 C2521 1.419 . S
C2520 C2518 1.415 . S
C2520 C2525 1.425 . S
C2520 C2527 1.409 . S
C2521 H2513 0.930 . S
C2521 C2519 1.419 . S
C2521 C2522 1.362 . S
C2522 H2514 0.930 . S
C2522 C2521 1.362 . S
C2522 C2525 1.409 . S
C2523 H2515 0.930 . S
C2523 C2524 1.355 . S
C2523 C2525 1.415 . S
C2524 C2523 1.355 . S
C2524 C2526 1.419 . S
C2525 C2520 1.425 . S
C2525 C2522 1.409 . S
C2525 C2523 1.415 . S
C2526 H2516 0.930 . S
C2526 C2524 1.419 . S
C2526 C2527 1.362 . S
C2527 H2517 0.930 . S
C2527 C2520 1.409 . S
C2527 C2526 1.362 . S
H2528 C2534 0.930 . S
H2529 C2537 0.930 . S
H2530 C2538 0.930 1_655 S
H2531 C2539 0.930 . S
H2532 C2542 0.930 . S
H2533 C2543 0.930 . S
C2534 H2528 0.930 . S
C2534 C2535 1.355 . S
C2534 C2536 1.415 . S
C2535 C2534 1.355 . S
C2535 C2537 1.419 . S
C2536 C2534 1.415 . S
C2536 C2541 1.425 . S
C2536 C2543 1.409 . S
C2537 H2529 0.930 . S
C2537 C2535 1.419 . S
C2537 C2538 1.362 . S
C2538 H2530 0.930 1_455 S
C2538 C2537 1.362 . S
C2538 C2541 1.409 . S
C2539 H2531 0.930 . S
C2539 C2540 1.355 1_655 S
C2539 C2541 1.415 1_655 S
C2540 C2539 1.355 1_455 S
C2540 C2542 1.419 . S
C2541 C2536 1.425 . S
C2541 C2538 1.409 . S
C2541 C2539 1.415 1_455 S
C2542 H2532 0.930 . S
C2542 C2540 1.419 . S
C2542 C2543 1.362 . S
C2543 H2533 0.930 . S
C2543 C2536 1.409 . S
C2543 C2542 1.362 . S
H2544 C2550 0.930 . S
H2545 C2553 0.930 . S
H2546 C2554 0.930 . S
H2547 C2555 0.930 . S
H2548 C2558 0.930 . S
H2549 C2559 0.930 . S
C2550 H2544 0.930 . S
C2550 C2551 1.355 . S
C2550 C2552 1.415 . S
C2551 C2550 1.355 . S
C2551 C2553 1.419 . S
C2552 C2550 1.415 . S
C2552 C2557 1.425 . S
C2552 C2559 1.409 . S
C2553 H2545 0.930 . S
C2553 C2551 1.419 . S
C2553 C2554 1.362 . S
C2554 H2546 0.930 . S
C2554 C2553 1.362 . S
C2554 C2557 1.409 . S
C2555 H2547 0.930 . S
C2555 C2556 1.355 . S
C2555 C2557 1.415 . S
C2556 C2555 1.355 . S
C2556 C2558 1.419 . S
C2557 C2552 1.425 . S
C2557 C2554 1.409 . S
C2557 C2555 1.415 . S
C2558 H2548 0.930 . S
C2558 C2556 1.419 . S
C2558 C2559 1.362 . S
C2559 H2549 0.930 . S
C2559 C2552 1.409 . S
C2559 C2558 1.362 . S
H2560 C2566 0.930 . S
H2561 C2569 0.930 . S
H2562 C2570 0.930 . S
H2563 C2571 0.930 . S
H2564 C2574 0.930 . S
H2565 C2575 0.930 . S
C2566 H2560 0.930 . S
C2566 C2567 1.355 . S
C2566 C2568 1.415 . S
C2567 C2566 1.355 . S
C2567 C2569 1.419 . S
C2568 C2566 1.415 . S
C2568 C2573 1.425 . S
C2568 C2575 1.409 . S
C2569 H2561 0.930 . S
C2569 C2567 1.419 . S
C2569 C2570 1.362 . S
C2570 H2562 0.930 . S
C2570 C2569 1.362 . S
C2570 C2573 1.409 . S
C2571 H2563 0.930 . S
C2571 C2572 1.355 . S
C2571 C2573 1.415 . S
C2572 C2571 1.355 . S
C2572 C2574 1.419 . S
C2573 C2568 1.425 . S
C2573 C2570 1.409 . S
C2573 C2571 1.415 . S
C2574 H2564 0.930 . S
C2574 C2572 1.419 . S
C2574 C2575 1.362 . S
C2575 H2565 0.930 . S
C2575 C2568 1.409 . S
C2575 C2574 1.362 . S
H2576 C2582 0.930 . S
H2577 C2585 0.930 . S
H2578 C2586 0.930 . S
H2579 C2587 0.930 . S
H2580 C2590 0.930 . S
H2581 C2591 0.930 . S
C2582 H2576 0.930 . S
C2582 C2583 1.355 . S
C2582 C2584 1.415 1_556 S
C2583 C2582 1.355 . S
C2583 C2585 1.419 . S
C2584 C2582 1.415 1_554 S
C2584 C2589 1.425 . S
C2584 C2591 1.409 . S
C2585 H2577 0.930 . S
C2585 C2583 1.419 . S
C2585 C2586 1.362 . S
C2586 H2578 0.930 . S
C2586 C2585 1.362 . S
C2586 C2589 1.409 1_556 S
C2587 H2579 0.930 . S
C2587 C2588 1.355 . S
C2587 C2589 1.415 . S
C2588 C2587 1.355 . S
C2588 C2590 1.419 . S
C2589 C2584 1.425 . S
C2589 C2586 1.409 1_554 S
C2589 C2587 1.415 . S
C2590 H2580 0.930 . S
C2590 C2588 1.419 . S
C2590 C2591 1.362 . S
C2591 H2581 0.930 . S
C2591 C2584 1.409 . S
C2591 C2590 1.362 . S
H2592 C2598 0.930 . S
H2593 C2601 0.930 . S
H2594 C2602 0.930 . S
H2595 C2603 0.930 . S
H2596 C2606 0.930 . S
H2597 C2607 0.930 . S
C2598 H2592 0.930 . S
C2598 C2599 1.355 . S
C2598 C2600 1.415 . S
C2599 C2598 1.355 . S
C2599 C2601 1.419 . S
C2600 C2598 1.415 . S
C2600 C2605 1.425 . S
C2600 C2607 1.409 . S
C2601 H2593 0.930 . S
C2601 C2599 1.419 . S
C2601 C2602 1.362 . S
C2602 H2594 0.930 . S
C2602 C2601 1.362 . S
C2602 C2605 1.409 . S
C2603 H2595 0.930 . S
C2603 C2604 1.355 . S
C2603 C2605 1.415 . S
C2604 C2603 1.355 . S
C2604 C2606 1.419 . S
C2605 C2600 1.425 . S
C2605 C2602 1.409 . S
C2605 C2603 1.415 . S
C2606 H2596 0.930 . S
C2606 C2604 1.419 . S
C2606 C2607 1.362 . S
C2607 H2597 0.930 . S
C2607 C2600 1.409 . S
C2607 C2606 1.362 . S
H2608 C2614 0.930 . S
H2609 C2617 0.930 . S
H2610 C2618 0.930 . S
H2611 C2619 0.930 . S
H2612 C2622 0.930 . S
H2613 C2623 0.930 . S
C2614 H2608 0.930 . S
C2614 C2615 1.355 . S
C2614 C2616 1.415 . S
C2615 C2614 1.355 . S
C2615 C2617 1.419 . S
C2616 C2614 1.415 . S
C2616 C2621 1.425 . S
C2616 C2623 1.409 . S
C2617 H2609 0.930 . S
C2617 C2615 1.419 . S
C2617 C2618 1.362 . S
C2618 H2610 0.930 . S
C2618 C2617 1.362 . S
C2618 C2621 1.409 . S
C2619 H2611 0.930 . S
C2619 C2620 1.355 . S
C2619 C2621 1.415 . S
C2620 C2619 1.355 . S
C2620 C2622 1.419 . S
C2621 C2616 1.425 . S
C2621 C2618 1.409 . S
C2621 C2619 1.415 . S
C2622 H2612 0.930 . S
C2622 C2620 1.419 . S
C2622 C2623 1.362 . S
C2623 H2613 0.930 . S
C2623 C2616 1.409 . S
C2623 C2622 1.362 . S
H2624 C2630 0.930 . S
H2625 C2633 0.930 . S
H2626 C2634 0.930 . S
H2627 C2635 0.930 . S
H2628 C2638 0.930 . S
H2629 C2639 0.930 . S
C2630 H2624 0.930 . S
C2630 C2631 1.355 . S
C2630 C2632 1.415 . S
C2631 C2630 1.355 . S
C2631 C2633 1.419 . S
C2632 C2630 1.415 . S
C2632 C2637 1.425 . S
C2632 C2639 1.409 . S
C2633 H2625 0.930 . S
C2633 C2631 1.419 . S
C2633 C2634 1.362 . S
C2634 H2626 0.930 . S
C2634 C2633 1.362 . S
C2634 C2637 1.409 . S
C2635 H2627 0.930 . S
C2635 C2636 1.355 . S
C2635 C2637 1.415 . S
C2636 C2635 1.355 . S
C2636 C2638 1.419 . S
C2637 C2632 1.425 . S
C2637 C2634 1.409 . S
C2637 C2635 1.415 . S
C2638 H2628 0.930 . S
C2638 C2636 1.419 . S
C2638 C2639 1.362 . S
C2639 H2629 0.930 . S
C2639 C2632 1.409 . S
C2639 C2638 1.362 . S
H2640 C2646 0.930 . S
H2641 C2649 0.930 . S
H2642 C2650 0.930 . S
H2643 C2651 0.930 . S
H2644 C2654 0.930 . S
H2645 C2655 0.930 . S
C2646 H2640 0.930 . S
C2646 C2647 1.355 . S
C2646 C2648 1.415 . S
C2647 C2646 1.355 . S
C2647 C2649 1.419 . S
C2648 C2646 1.415 . S
C2648 C2653 1.425 . S
C2648 C2655 1.409 . S
C2649 H2641 0.930 . S
C2649 C2647 1.419 . S
C2649 C2650 1.362 . S
C2650 H2642 0.930 . S
C2650 C2649 1.362 . S
C2650 C2653 1.409 . S
C2651 H2643 0.930 . S
C2651 C2652 1.355 . S
C2651 C2653 1.415 . S
C2652 C2651 1.355 . S
C2652 C2654 1.419 . S
C2653 C2648 1.425 . S
C2653 C2650 1.409 . S
C2653 C2651 1.415 . S
C2654 H2644 0.930 . S
C2654 C2652 1.419 . S
C2654 C2655 1.362 . S
C2655 H2645 0.930 . S
C2655 C2648 1.409 . S
C2655 C2654 1.362 . S
H2656 C2662 0.930 . S
H2657 C2665 0.930 . S
H2658 C2666 0.930 . S
H2659 C2667 0.930 . S
H2660 C2670 0.930 . S
H2661 C2671 0.930 . S
C2662 H2656 0.930 . S
C2662 C2663 1.355 1_554 S
C2662 C2664 1.415 . S
C2663 C2662 1.355 1_556 S
C2663 C2665 1.419 . S
C2664 C2662 1.415 . S
C2664 C2669 1.425 . S
C2664 C2671 1.409 . S
C2665 H2657 0.930 . S
C2665 C2663 1.419 . S
C2665 C2666 1.362 1_556 S
C2666 H2658 0.930 . S
C2666 C2665 1.362 1_554 S
C2666 C2669 1.409 . S
C2667 H2659 0.930 . S
C2667 C2668 1.355 . S
C2667 C2669 1.415 . S
C2668 C2667 1.355 . S
C2668 C2670 1.419 . S
C2669 C2664 1.425 . S
C2669 C2666 1.409 . S
C2669 C2667 1.415 . S
C2670 H2660 0.930 . S
C2670 C2668 1.419 . S
C2670 C2671 1.362 . S
C2671 H2661 0.930 . S
C2671 C2664 1.409 . S
C2671 C2670 1.362 . S
H2672 C2678 0.930 . S
H2673 C2681 0.930 . S
H2674 C2682 0.930 . S
H2675 C2683 0.930 . S
H2676 C2686 0.930 . S
H2677 C2687 0.930 . S
C2678 H2672 0.930 . S
C2678 C2679 1.355 . S
C2678 C2680 1.415 . S
C2679 C2678 1.355 . S
C2679 C2681 1.419 . S
C2680 C2678 1.415 . S
C2680 C2685 1.425 . S
C2680 C2687 1.409 . S
C2681 H2673 0.930 . S
C2681 C2679 1.419 . S
C2681 C2682 1.362 . S
C2682 H2674 0.930 . S
C2682 C2681 1.362 . S
C2682 C2685 1.409 . S
C2683 H2675 0.930 . S
C2683 C2684 1.355 . S
C2683 C2685 1.415 . S
C2684 C2683 1.355 . S
C2684 C2686 1.419 . S
C2685 C2680 1.425 . S
C2685 C2682 1.409 . S
C2685 C2683 1.415 . S
C2686 H2676 0.930 . S
C2686 C2684 1.419 . S
C2686 C2687 1.362 . S
C2687 H2677 0.930 . S
C2687 C2680 1.409 . S
C2687 C2686 1.362 . S
H2688 C2694 0.930 . S
H2689 C2697 0.930 . S
H2690 C2698 0.930 . S
H2691 C2699 0.930 . S
H2692 C2702 0.930 . S
H2693 C2703 0.930 . S
C2694 H2688 0.930 . S
C2694 C2695 1.355 . S
C2694 C2696 1.415 . S
C2695 C2694 1.355 . S
C2695 C2697 1.419 . S
C2696 C2694 1.415 . S
C2696 C2701 1.425 1_565 S
C2696 C2703 1.409 . S
C2697 H2689 0.930 . S
C2697 C2695 1.419 . S
C2697 C2698 1.362 1_565 S
C2698 H2690 0.930 . S
C2698 C2697 1.362 1_545 S
C2698 C2701 1.409 . S
C2699 H2691 0.930 . S
C2699 C2700 1.355 . S
C2699 C2701 1.415 . S
C2700 C2699 1.355 . S
C2700 C2702 1.419 1_545 S
C2701 C2696 1.425 1_545 S
C2701 C2698 1.409 . S
C2701 C2699 1.415 . S
C2702 H2692 0.930 . S
C2702 C2700 1.419 1_565 S
C2702 C2703 1.362 . S
C2703 H2693 0.930 . S
C2703 C2696 1.409 . S
C2703 C2702 1.362 . S
H2704 C2710 0.930 . S
H2705 C2713 0.930 . S
H2706 C2714 0.930 . S
H2707 C2715 0.930 . S
H2708 C2718 0.930 . S
H2709 C2719 0.930 . S
C2710 H2704 0.930 . S
C2710 C2711 1.355 . S
C2710 C2712 1.415 . S
C2711 C2710 1.355 . S
C2711 C2713 1.419 . S
C2712 C2710 1.415 . S
C2712 C2717 1.425 . S
C2712 C2719 1.409 . S
C2713 H2705 0.930 . S
C2713 C2711 1.419 . S
C2713 C2714 1.362 . S
C2714 H2706 0.930 . S
C2714 C2713 1.362 . S
C2714 C2717 1.409 . S
C2715 H2707 0.930 . S
C2715 C2716 1.355 . S
C2715 C2717 1.415 . S
C2716 C2715 1.355 . S
C2716 C2718 1.419 . S
C2717 C2712 1.425 . S
C2717 C2714 1.409 . S
C2717 C2715 1.415 . S
C2718 H2708 0.930 . S
C2718 C2716 1.419 . S
C2718 C2719 1.362 . S
C2719 H2709 0.930 . S
C2719 C2712 1.409 . S
C2719 C2718 1.362 . S
H2720 C2726 0.930 1_565 S
H2721 C2729 0.930 . S
H2722 C2730 0.930 . S
H2723 C2731 0.930 . S
H2724 C2734 0.930 . S
H2725 C2735 0.930 . S
C2726 H2720 0.930 1_545 S
C2726 C2727 1.355 . S
C2726 C2728 1.405 1_545 S
C2727 C2726 1.355 . S
C2727 C2729 1.419 . S
C2728 C2726 1.405 1_565 S
C2728 C2733 1.404 1_565 S
C2728 C2735 1.440 . S
C2729 H2721 0.930 . S
C2729 C2727 1.419 . S
C2729 C2730 1.362 . S
C2730 H2722 0.930 . S
C2730 C2729 1.362 . S
C2730 C2733 1.409 . S
C2731 H2723 0.930 . S
C2731 C2732 1.355 1_545 S
C2731 C2733 1.415 . S
C2732 C2731 1.355 1_565 S
C2732 C2734 1.419 . S
C2733 C2728 1.404 1_545 S
C2733 C2730 1.409 . S
C2733 C2731 1.415 . S
C2734 H2724 0.930 . S
C2734 C2732 1.419 . S
C2734 C2735 1.362 . S
C2735 H2725 0.930 . S
C2735 C2728 1.440 . S
C2735 C2734 1.362 . S
H2736 C2742 0.930 . S
H2737 C2745 0.930 . S
H2738 C2746 0.930 . S
H2739 C2747 0.930 . S
H2740 C2750 0.930 . S
H2741 C2751 0.930 . S
C2742 H2736 0.930 . S
C2742 C2743 1.355 . S
C2742 C2744 1.415 . S
C2743 C2742 1.355 . S
C2743 C2745 1.419 . S
C2744 C2742 1.415 . S
C2744 C2749 1.425 . S
C2744 C2751 1.409 1_554 S
C2745 H2737 0.930 . S
C2745 C2743 1.419 . S
C2745 C2746 1.362 . S
C2746 H2738 0.930 . S
C2746 C2745 1.362 . S
C2746 C2749 1.409 . S
C2747 H2739 0.930 . S
C2747 C2748 1.355 . S
C2747 C2749 1.415 1_556 S
C2748 C2747 1.355 . S
C2748 C2750 1.419 . S
C2749 C2744 1.425 . S
C2749 C2746 1.409 . S
C2749 C2747 1.415 1_554 S
C2750 H2740 0.930 . S
C2750 C2748 1.419 . S
C2750 C2751 1.362 . S
C2751 H2741 0.930 . S
C2751 C2744 1.409 1_556 S
C2751 C2750 1.362 . S
H2752 C2758 0.930 . S
H2753 C2761 0.930 . S
H2754 C2762 0.930 . S
H2755 C2763 0.930 . S
H2756 C2766 0.931 . S
H2757 C2767 0.930 . S
C2758 H2752 0.930 . S
C2758 C2759 1.355 . S
C2758 C2760 1.415 . S
C2759 C2758 1.355 . S
C2759 C2761 1.419 1_565 S
C2760 C2758 1.415 . S
C2760 C2765 1.425 1_565 S
C2760 C2767 1.409 . S
C2761 H2753 0.930 . S
C2761 C2759 1.419 1_545 S
C2761 C2762 1.362 . S
C2762 H2754 0.930 . S
C2762 C2761 1.362 . S
C2762 C2765 1.409 . S
C2763 H2755 0.930 . S
C2763 C2764 1.355 1_554 S
C2763 C2765 1.415 . S
C2764 C2763 1.355 1_556 S
C2764 C2766 1.417 1_545 S
C2765 C2760 1.425 1_545 S
C2765 C2762 1.409 . S
C2765 C2763 1.415 . S
C2766 H2756 0.931 . S
C2766 C2764 1.417 1_565 S
C2766 C2767 1.364 1_556 S
C2767 H2757 0.930 . S
C2767 C2760 1.409 . S
C2767 C2766 1.364 1_554 S
H2768 C2774 0.930 . S
H2769 C2777 0.930 . S
H2770 C2778 0.930 . S
H2771 C2779 0.930 . S
H2772 C2782 0.930 . S
H2773 C2783 0.930 . S
C2774 H2768 0.930 . S
C2774 C2775 1.355 . S
C2774 C2776 1.415 . S
C2775 C2774 1.355 . S
C2775 C2777 1.419 . S
C2776 C2774 1.415 . S
C2776 C2781 1.425 . S
C2776 C2783 1.409 . S
C2777 H2769 0.930 . S
C2777 C2775 1.419 . S
C2777 C2778 1.362 . S
C2778 H2770 0.930 . S
C2778 C2777 1.362 . S
C2778 C2781 1.409 . S
C2779 H2771 0.930 . S
C2779 C2780 1.355 . S
C2779 C2781 1.415 . S
C2780 C2779 1.355 . S
C2780 C2782 1.419 . S
C2781 C2776 1.425 . S
C2781 C2778 1.409 . S
C2781 C2779 1.415 . S
C2782 H2772 0.930 . S
C2782 C2780 1.419 . S
C2782 C2783 1.362 . S
C2783 H2773 0.930 . S
C2783 C2776 1.409 . S
C2783 C2782 1.362 . S
H2784 C2790 0.930 . S
H2785 C2793 0.930 . S
H2786 C2794 0.930 . S
H2787 C2795 0.930 . S
H2788 C2798 0.930 . S
H2789 C2799 0.930 . S
C2790 H2784 0.930 . S
C2790 C2791 1.355 . S
C2790 C2792 1.415 . S
C2791 C2790 1.355 . S
C2791 C2793 1.419 . S
C2792 C2790 1.415 . S
C2792 C2797 1.425 . S
C2792 C2799 1.409 1_565 S
C2793 H2785 0.930 . S
C2793 C2791 1.419 . S
C2793 C2794 1.362 . S
C2794 H2786 0.930 . S
C2794 C2793 1.362 . S
C2794 C2797 1.409 . S
C2795 H2787 0.930 . S
C2795 C2796 1.355 1_565 S
C2795 C2797 1.415 . S
C2796 C2795 1.355 1_545 S
C2796 C2798 1.419 . S
C2797 C2792 1.425 . S
C2797 C2794 1.409 . S
C2797 C2795 1.415 . S
C2798 H2788 0.930 . S
C2798 C2796 1.419 . S
C2798 C2799 1.362 . S
C2799 H2789 0.930 . S
C2799 C2792 1.409 1_545 S
C2799 C2798 1.362 . S
H2800 C2806 0.930 . S
H2801 C2809 0.930 . S
H2802 C2810 0.930 . S
H2803 C2811 0.930 . S
H2804 C2814 0.930 . S
H2805 C2815 0.930 . S
C2806 H2800 0.930 . S
C2806 C2807 1.355 . S
C2806 C2808 1.415 . S
C2807 C2806 1.355 . S
C2807 C2809 1.419 . S
C2808 C2806 1.415 . S
C2808 C2813 1.425 . S
C2808 C2815 1.409 . S
C2809 H2801 0.930 . S
C2809 C2807 1.419 . S
C2809 C2810 1.362 . S
C2810 H2802 0.930 . S
C2810 C2809 1.362 . S
C2810 C2813 1.409 . S
C2811 H2803 0.930 . S
C2811 C2812 1.355 . S
C2811 C2813 1.415 . S
C2812 C2811 1.355 . S
C2812 C2814 1.419 . S
C2813 C2808 1.425 . S
C2813 C2810 1.409 . S
C2813 C2811 1.415 . S
C2814 H2804 0.930 . S
C2814 C2812 1.419 . S
C2814 C2815 1.362 . S
C2815 H2805 0.930 . S
C2815 C2808 1.409 . S
C2815 C2814 1.362 . S
C1287 C19 0.528 . S
C1292 C166 0.433 . S
C1303 C206 0.391 . S
C1308 C59 0.516 . S
C1319 C99 0.506 . S
C1324 C246 0.476 . S
C1335 C286 0.471 . S
C1340 C139 0.509 . S
C1351 C330 0.433 . S
C1356 C495 0.436 . S
C1367 C370 0.517 . S
C1372 C535 0.391 . S
C1383 C575 0.410 . S
C1388 C410 0.529 . S
C1399 C450 0.428 . S
C1404 C615 0.441 . S
C1415 C806 0.511 . S
C1420 C659 0.390 . S
C1431 C699 0.480 . S
C1436 C846 0.501 . S
C1447 C739 0.528 . S
C1452 C886 0.403 . S
C1463 C779 0.526 . S
C1468 C926 0.438 . S
C1479 C970 0.456 . S
C1484 C1135 0.517 . S
C1495 C1175 0.414 . S
C1500 C1010 0.457 . S
C1511 C1050 0.468 . S
C1516 C1215 0.510 . S
C1527 C1255 0.451 . S
C1532 C1090 0.418 . S
C1543 C858 1.577 . S
C1548 C9 1.545 . S
C1559 C898 1.617 . S
C1564 C49 1.599 . S
C1575 C938 1.604 . S
C1580 C89 1.567 . S
C1591 C129 1.627 . S
C1596 C818 1.645 . S
C1607 C178 1.673 . S
C1612 C769 1.646 . S
C1623 C649 1.650 . S
C1628 C218 1.674 . S
C1639 C258 1.673 . S
C1644 C689 1.651 . S
C1655 C298 1.605 . S
C1660 C729 1.585 . S
C1671 C338 1.578 . S
C1676 C1169 1.616 . S
C1687 C1209 1.579 . S
C1692 C378 1.553 . S
C1703 C1249 1.576 . S
C1708 C418 1.545 . S
C1719 C458 1.563 . S
C1724 C1129 1.586 . S
C1735 C489 1.593 . S
C1740 C1098 1.556 . S
C1751 C529 1.673 . S
C1756 C978 1.651 . S
C1767 C569 1.620 . S
C1772 C1018 1.583 . S
C1783 C609 1.618 . S
C1788 C1058 1.581 . S
C1799 C329 0.941 . S
C1804 C18 0.941 . S
C1815 C58 1.102 . S
C1820 C1009 1.102 . S
C1831 C409 0.922 . S
C1836 C98 0.922 . S
C1847 C138 1.053 . S
C1852 C1089 1.053 . S
C1863 C498 0.945 . S
C1868 C169 0.945 . S
C1879 C1178 0.943 . S
C1884 C209 0.943 . S
C1895 C249 0.875 . S
C1900 C578 0.875 . S
C1911 C289 0.855 . S
C1916 C1258 0.855 . S
C1927 C698 0.923 . S
C1932 C369 0.923 . S
C1943 C778 1.019 . S
C1948 C449 1.019 . S
C1959 C538 0.878 . S
C1964 C849 0.878 . S
C1975 C929 0.878 . S
C1980 C618 0.878 . S
C1991 C969 1.007 . S
C1996 C658 1.007 . S
C2007 C1049 0.922 . S
C2012 C738 0.922 . S
C2023 C1138 0.943 . S
C2028 C809 0.943 . S
C2039 C889 0.922 . S
C2044 C1218 0.922 . S
C2055 C10 2.116 1_556 S
C2060 C499 2.150 . S
C2071 C1179 2.130 . S
C2076 C50 2.126 . S
C2087 C579 2.120 . S
C2092 C90 2.106 . S
C2103 C130 2.092 . S
C2108 C1259 2.123 . S
C2119 C326 0.929 1_455 S
C2124 C175 0.936 . S
C2135 C1006 0.925 . S
C2140 C215 0.983 . S
C2151 C406 0.929 . S
C2156 C255 0.989 . S
C2167 C1086 0.929 . S
C2172 C295 0.989 . S
C2183 C170 2.133 . S
C2188 C339 2.089 . S
C2199 C850 2.120 . S
C2204 C379 2.105 . S
C2215 C250 2.149 . S
C2220 C419 2.110 . S
C2231 C459 2.103 . S
C2236 C930 2.146 . S
C2247 C15 0.963 1_655 S
C2252 C486 0.917 . S
C2263 C695 0.921 . S
C2268 C526 0.966 . S
C2279 C566 0.962 1_556 S
C2284 C95 1.007 . S
C2295 C606 0.923 . S
C2300 C775 0.944 . S
C2311 C1139 2.133 . S
C2316 C650 2.128 . S
C2327 C539 2.143 . S
C2332 C690 2.131 . S
C2343 C730 2.130 1_556 S
C2348 C1219 2.137 . S
C2359 C619 2.126 . S
C2364 C770 2.090 . S
C2375 C815 0.927 . S
C2380 C966 0.938 . S
C2391 C855 0.936 . S
C2396 C366 0.999 . S
C2407 C1046 1.001 . S
C2412 C895 0.987 . S
C2423 C446 0.929 . S
C2428 C935 0.988 . S
C2439 C979 2.095 . S
C2444 C810 2.141 . S
C2455 C1019 2.105 . S
C2460 C210 2.147 . S
C2471 C1059 2.089 . S
C2476 C890 2.131 . S
C2487 C1099 2.106 . S
C2492 C290 2.120 . S
C2503 C655 0.932 . S
C2508 C1126 0.932 . S
C2519 C55 0.983 . S
C2524 C1166 0.922 . S
C2535 C1206 0.950 . S
C2540 C735 0.922 1_455 S
C2551 C135 0.942 . S
C2556 C1246 0.924 . S
C2567 C179 2.187 . S
C2572 C6 2.144 . S
C2583 C219 2.173 . S
C2588 C46 2.150 . S
C2599 C86 2.150 . S
C2604 C259 2.190 . S
C2615 C299 2.179 . S
C2620 C126 2.176 . S
C2631 C490 2.187 . S
C2636 C335 2.145 . S
C2647 C375 2.170 . S
C2652 C530 2.172 . S
C2663 C415 2.158 . S
C2668 C570 2.171 . S
C2679 C610 2.191 . S
C2684 C455 2.155 . S
C2695 C646 2.168 . S
C2700 C819 2.171 . S
C2711 C859 2.178 . S
C2716 C686 2.145 . S
C2727 C726 2.156 . S
C2732 C899 2.191 . S
C2743 C766 2.145 . S
C2748 C939 2.177 . S
C2759 C1130 2.171 . S
C2764 C975 2.159 . S
C2775 C1170 2.172 . S
C2780 C1015 2.155 . S
C2791 C1055 2.161 . S
C2796 C1210 2.190 . S
C2807 C1250 2.189 . S
C2812 C1095 2.166 . S
