# Generated by pormake.
# Topology fee, (5)-cn, num edge types: 1
# Building blocks:
#     Node 0, Type 0, BuildingBlock: XOMCOT_clean_sbu_0, # of connection points: 5
#     Node 1, Type 0, BuildingBlock: XOMCOT_clean_sbu_0, # of connection points: 5
#     Node 2, Type 0, BuildingBlock: XOMCOT_clean_sbu_0, # of connection points: 5
#     Node 3, Type 0, BuildingBlock: XOMCOT_clean_sbu_0, # of connection points: 5
#     Edge 4, Type (0, 0), BuildingBlock: XIVTED_clean_linker_0, # of connection points: 2
#     Edge 5, Type (0, 0), BuildingBlock: XIVTED_clean_linker_0, # of connection points: 2
#     Edge 6, Type (0, 0), BuildingBlock: XIVTED_clean_linker_0, # of connection points: 2
#     Edge 7, Type (0, 0), BuildingBlock: XIVTED_clean_linker_0, # of connection points: 2
#     Edge 8, Type (0, 0), BuildingBlock: XIVTED_clean_linker_0, # of connection points: 2
#     Edge 9, Type (0, 0), BuildingBlock: XIVTED_clean_linker_0, # of connection points: 2
#     Edge 10, Type (0, 0), BuildingBlock: XIVTED_clean_linker_0, # of connection points: 2
#     Edge 11, Type (0, 0), BuildingBlock: XIVTED_clean_linker_0, # of connection points: 2
#     Edge 12, Type (0, 0), BuildingBlock: XIVTED_clean_linker_0, # of connection points: 2
#     Edge 13, Type (0, 0), BuildingBlock: XIVTED_clean_linker_0, # of connection points: 2
# Relax obj value: 0.155
# Max RMSD: 0.169
# Mean RMSD: 0.151
data_MOF--net-fee--node1-XOMCOT_clean_sbu_0--edge1-XIVTED_clean_linker_0
_symmetry_space_group_name_H-M    P1
_symmetry_Int_Tables_number       1
_symmetry_cell_setting            triclinic
loop_
_symmetry_equiv_pos_as_xyz
'x, y, z'
_cell_length_a     38.724977
_cell_length_b     38.752517
_cell_length_c     17.807143
_cell_angle_alpha  96.385524
_cell_angle_beta   96.448893
_cell_angle_gamma 89.867194
loop_
_atom_site_label
_atom_site_type_symbol
_atom_site_fract_x
_atom_site_fract_y
_atom_site_fract_z
_atom_type_partial_charge
Co0 Co 0.18107 0.53564 0.09281 0.0
C1 C 0.1859 0.53737 0.26055 0.0
C2 C 0.20061 0.58601 0.22565 0.0
C3 C 0.20239 0.58948 0.30357 0.0
N4 N 0.19045 0.55335 0.19879 0.0
N5 N 0.19294 0.55898 0.32568 0.0
H6 H 0.17658 0.5109 0.25743 0.0
H7 H 0.20568 0.60625 0.19105 0.0
C8 C 0.24518 0.56413 0.03705 0.0
O9 O 0.25163 0.53361 1.00158 0.0
N10 N 0.1707 0.51867 0.98496 0.0
C11 C 0.15004 0.49133 0.95503 0.0
C12 C 0.14771 0.48877 0.87714 0.0
C13 C 0.17891 0.53345 0.9238 0.0
N14 N 0.16601 0.51517 0.8575 0.0
C15 C 0.20428 0.46528 0.08755 0.0
C16 C 0.27309 0.47955 0.14048 0.0
C17 C 0.26334 0.44549 0.11039 0.0
C18 C 0.22811 0.43835 0.08674 0.0
C19 C 0.24809 0.50576 0.14089 0.0
N20 N 0.2148 0.49887 0.10822 0.0
H21 H 0.17736 0.45897 0.07048 0.0
H22 H 0.2559 0.53187 0.16423 0.0
H23 H 0.13619 0.47488 0.98686 0.0
H24 H 0.19343 0.5574 0.92715 0.0
O25 O 0.1404 0.51189 0.11463 0.0
O26 O 0.14118 0.56579 0.08381 0.0
O27 O 0.21776 0.56884 0.07048 0.0
C28 C 0.12339 0.53999 0.10175 0.0
H29 H 0.2099 0.61287 0.34079 0.0
H30 H 0.13268 0.46962 0.83798 0.0
H31 H 0.29979 0.48596 0.16245 0.0
H32 H 0.21905 0.41235 0.06495 0.0
Co33 Co 0.45733 0.1881 0.0875 0.0
C34 C 0.45627 0.19405 0.25487 0.0
C35 C 0.40705 0.20641 0.19625 0.0
C36 C 0.404 0.20889 0.27281 0.0
N37 N 0.43984 0.19739 0.1851 0.0
N38 N 0.43489 0.20103 0.30966 0.0
H39 H 0.48313 0.18638 0.26507 0.0
H40 H 0.38642 0.20993 0.15169 0.0
C41 C 0.42825 0.24999 1.01278 0.0
O42 O 0.45827 0.25535 0.98788 0.0
N43 N 0.47423 0.17774 0.98793 0.0
C44 C 0.50271 0.1592 0.97276 0.0
C45 C 0.5048 0.1556 0.89589 0.0
C46 C 0.45845 0.18343 0.91864 0.0
N47 N 0.47704 0.17098 0.86166 0.0
C48 C 0.52745 0.21432 0.11676 0.0
C49 C 0.5106 0.28326 0.14863 0.0
C50 C 0.54455 0.2749 0.13276 0.0
C51 C 0.5533 0.2397 0.12211 0.0
C52 C 0.48568 0.25677 0.14406 0.0
N53 N 0.49355 0.2233 0.11956 0.0
H54 H 0.53469 0.1875 0.10833 0.0
H55 H 0.45947 0.26358 0.15483 0.0
H56 H 0.5204 0.14765 1.01386 0.0
H57 H 0.4333 0.19531 0.90947 0.0
O58 O 0.48161 0.14832 0.12179 0.0
O59 O 0.42755 0.14738 0.06489 0.0
O60 O 0.42377 0.22362 0.04798 0.0
C61 C 0.45359 0.13046 0.09559 0.0
H62 H 0.38044 0.21468 0.29898 0.0
H63 H 0.52531 0.14257 0.86766 0.0
H64 H 0.50269 0.30996 0.16001 0.0
H65 H 0.57971 0.23175 0.11537 0.0
Co66 Co 0.80743 0.54219 0.12247 0.0
C67 C 0.80265 0.54369 0.95585 0.0
C68 C 0.79177 0.59333 0.01438 0.0
C69 C 0.78995 0.59645 0.93787 0.0
N70 N 0.79948 0.56025 0.02542 0.0
N71 N 0.79689 0.56528 0.90116 0.0
H72 H 0.80929 0.51656 0.94575 0.0
H73 H 0.78865 0.61402 0.05899 0.0
C74 C 0.74517 0.57105 0.1947 0.0
O75 O 0.73974 0.54076 0.21824 0.0
N76 N 0.81655 0.52478 0.22162 0.0
C77 C 0.83445 0.496 0.2374 0.0
C78 C 0.83766 0.49408 0.31434 0.0
C79 C 0.81099 0.54092 0.29054 0.0
N80 N 0.82275 0.52227 0.3479 0.0
C81 C 0.77946 0.47262 0.09084 0.0
C82 C 0.71167 0.49138 0.04995 0.0
C83 C 0.71863 0.45698 0.06359 0.0
C84 C 0.75329 0.44733 0.08023 0.0
C85 C 0.73887 0.51571 0.06 0.0
N86 N 0.77164 0.50679 0.08782 0.0
H87 H 0.80589 0.46466 0.10293 0.0
H88 H 0.73313 0.54219 0.04968 0.0
H89 H 0.84599 0.47809 0.19679 0.0
H90 H 0.79978 0.5664 0.29913 0.0
O91 O 0.84718 0.5174 0.08947 0.0
O92 O 0.84862 0.57122 0.14744 0.0
O93 O 0.77191 0.576 0.16099 0.0
C94 C 0.86536 0.54507 0.11678 0.0
H95 H 0.78519 0.62016 0.91167 0.0
H96 H 0.85022 0.47346 0.34309 0.0
H97 H 0.6854 0.49958 0.03358 0.0
H98 H 0.76004 0.42078 0.08862 0.0
Co99 Co 0.45583 0.81473 0.11361 0.0
C100 C 0.45554 0.80883 0.94646 0.0
C101 C 0.40648 0.79392 0.9792 0.0
C102 C 0.40392 0.79131 0.90115 0.0
N103 N 0.43887 0.80466 1.00741 0.0
N104 N 0.43471 0.80079 0.88066 0.0
H105 H 0.48219 0.81782 0.95035 0.0
H106 H 0.38579 0.78919 1.0129 0.0
C107 C 0.42728 0.75083 0.17009 0.0
O108 O 0.4577 0.7446 0.20644 0.0
N109 N 0.47214 0.82577 0.2216 0.0
C110 C 0.49896 0.84708 0.25159 0.0
C111 C 0.50097 0.85007 0.32941 0.0
C112 C 0.45718 0.81765 0.28257 0.0
N113 N 0.47475 0.83145 0.34905 0.0
C114 C 0.52649 0.79221 0.12167 0.0
C115 C 0.51317 0.72328 0.069 0.0
C116 C 0.54713 0.73351 0.0992 0.0
C117 C 0.55376 0.76877 0.12292 0.0
C118 C 0.4866 0.7479 0.06815 0.0
N119 N 0.49303 0.78129 0.1004 0.0
H120 H 0.53246 0.81918 0.13861 0.0
H121 H 0.4606 0.73974 0.04447 0.0
H122 H 0.51555 0.86076 0.21978 0.0
H123 H 0.43313 0.80324 0.27883 0.0
O124 O 0.47946 0.85537 0.09138 0.0
O125 O 0.42528 0.85434 0.12054 0.0
O126 O 0.42265 0.77803 0.13589 0.0
C127 C 0.45114 0.87221 0.10313 0.0
H128 H 0.38075 0.78429 0.8626 0.0
H129 H 0.52033 0.86494 0.36829 0.0
H130 H 0.50713 0.69653 0.04706 0.0
H131 H 0.57965 0.77817 0.14489 0.0
H132 H 0.17683 0.57774 0.8079 0.0
H133 H 0.19214 0.49587 0.37971 0.0
H134 H 0.16599 0.46817 0.73286 0.0
H135 H 0.18557 0.60594 0.44837 0.0
H136 H 0.18592 0.48493 0.51006 0.0
H137 H 0.18426 0.58839 0.67782 0.0
C138 C 0.17618 0.55591 0.76421 0.0
C139 C 0.17063 0.52203 0.78131 0.0
C140 C 0.18588 0.51148 0.49643 0.0
C141 C 0.17895 0.53399 0.63215 0.0
C142 C 0.18928 0.51775 0.42181 0.0
C143 C 0.18948 0.55191 0.40249 0.0
C144 C 0.18277 0.53954 0.55236 0.0
C145 C 0.18616 0.57919 0.46024 0.0
C146 C 0.18021 0.56201 0.68982 0.0
C147 C 0.16966 0.49475 0.72207 0.0
N148 N 0.18298 0.57241 0.53234 0.0
N149 N 0.17383 0.50131 0.65025 0.0
H150 H 0.50072 0.13011 0.74414 0.0
H151 H 0.40502 0.23735 0.424 0.0
H152 H 0.43693 0.21937 0.7945 0.0
H153 H 0.48088 0.15827 0.37916 0.0
H154 H 0.41448 0.22974 0.55911 0.0
H155 H 0.49154 0.13835 0.6098 0.0
C156 C 0.48484 0.15152 0.72723 0.0
C157 C 0.46978 0.17421 0.78134 0.0
C158 C 0.42917 0.21412 0.51983 0.0
C159 C 0.45887 0.18358 0.62651 0.0
C160 C 0.42368 0.21836 0.44259 0.0
C161 C 0.44209 0.19831 0.39004 0.0
C162 C 0.45309 0.18945 0.54495 0.0
C163 C 0.46635 0.17448 0.41762 0.0
C164 C 0.47954 0.15615 0.6502 0.0
C165 C 0.44883 0.20103 0.75513 0.0
N166 N 0.47099 0.17057 0.49308 0.0
N167 N 0.44406 0.20499 0.67969 0.0
H168 H 0.83788 0.5171 0.83331 0.0
H169 H 0.77547 0.56443 0.41325 0.0
H170 H 0.7628 0.59645 0.78586 0.0
H171 H 0.86222 0.49778 0.46658 0.0
H172 H 0.76863 0.57483 0.54857 0.0
H173 H 0.84438 0.50682 0.69766 0.0
C174 C 0.82253 0.53214 0.79431 0.0
C175 C 0.79982 0.55773 0.82104 0.0
C176 C 0.78921 0.55799 0.53056 0.0
C177 C 0.80737 0.54638 0.66569 0.0
C178 C 0.79331 0.55222 0.45322 0.0
C179 C 0.81944 0.5301 0.42798 0.0
C180 C 0.81129 0.54142 0.58322 0.0
C181 C 0.84136 0.51457 0.4828 0.0
C182 C 0.82646 0.52648 0.71691 0.0
C183 C 0.78093 0.57679 0.76789 0.0
N184 N 0.83672 0.52045 0.55761 0.0
N185 N 0.7851 0.57071 0.69282 0.0
H186 H 0.47965 0.84621 0.83658 0.0
H187 H 0.43823 0.77892 0.39403 0.0
H188 H 0.40695 0.76316 0.75057 0.0
H189 H 0.49535 0.8734 0.47933 0.0
H190 H 0.42899 0.77054 0.52428 0.0
H191 H 0.48956 0.85352 0.70604 0.0
C192 C 0.46604 0.82928 0.79029 0.0
C193 C 0.44236 0.8041 0.80447 0.0
C194 C 0.4435 0.79313 0.51433 0.0
C195 C 0.45325 0.81253 0.65485 0.0
C196 C 0.44859 0.79807 0.43982 0.0
C197 C 0.46769 0.8269 0.42526 0.0
C198 C 0.45773 0.81707 0.57489 0.0
C199 C 0.48095 0.85051 0.48746 0.0
C200 C 0.47146 0.83365 0.71572 0.0
C201 C 0.42508 0.78319 0.74214 0.0
N202 N 0.4758 0.84501 0.55939 0.0
N203 N 0.43087 0.78785 0.67008 0.0
H204 H 0.9097 0.60142 0.14706 0.0
H205 H 0.07948 0.48638 0.11074 0.0
H206 H 0.90744 0.49077 0.08148 0.0
H207 H 0.08104 0.5971 0.10048 0.0
H208 H 0.01683 0.48847 0.11465 0.0
H209 H 0.97299 0.60136 0.14368 0.0
C210 C 0.9225 0.57717 0.13198 0.0
C211 C 0.90334 0.54605 0.11447 0.0
C212 C 0.03081 0.51234 0.11146 0.0
C213 C 0.9754 0.54577 0.11118 0.0
C214 C 0.06663 0.5112 0.10954 0.0
C215 C 0.08549 0.54162 0.10519 0.0
C216 C 0.01358 0.5442 0.10983 0.0
C217 C 0.06741 0.57303 0.10357 0.0
C218 C 0.95853 0.57717 0.12986 0.0
C219 C 0.92116 0.51537 0.09516 0.0
N220 N 0.03239 0.57356 0.10619 0.0
N221 N 0.95615 0.51599 0.09444 0.0
H222 H 0.394 0.91453 0.10499 0.0
H223 H 0.50749 0.08811 0.13228 0.0
H224 H 0.50484 0.91621 0.09538 0.0
H225 H 0.39686 0.08653 0.065 0.0
H226 H 0.50588 0.02534 0.13379 0.0
H227 H 0.39335 0.97792 0.10338 0.0
C228 C 0.41812 0.9282 0.10241 0.0
C229 C 0.44951 0.91012 0.10022 0.0
C230 C 0.48192 0.03867 0.11863 0.0
C231 C 0.44901 0.98226 0.09924 0.0
C232 C 0.48279 0.07455 0.11809 0.0
C233 C 0.45226 0.09255 0.09835 0.0
C234 C 0.45023 0.02053 0.10005 0.0
C235 C 0.42101 0.07358 0.08029 0.0
C236 C 0.41772 0.96427 0.10135 0.0
C237 C 0.48003 0.92904 0.09688 0.0
N238 N 0.42075 0.03852 0.08179 0.0
N239 N 0.47903 0.96403 0.09693 0.0
H240 H 0.36164 0.24581 0.04791 0.0
H241 H 0.32737 0.45017 0.05986 0.0
H242 H 0.43558 0.31801 0.98664 0.0
H243 H 0.25847 0.3772 0.13564 0.0
H244 H 0.36705 0.40255 0.03004 0.0
H245 H 0.32216 0.29368 0.07273 0.0
C246 C 0.36946 0.27171 0.0389 0.0
C247 C 0.40211 0.27789 0.01562 0.0
C248 C 0.34329 0.39701 0.05341 0.0
C249 C 0.35701 0.3331 0.04481 0.0
C250 C 0.3208 0.42424 0.07121 0.0
C251 C 0.28945 0.41768 0.10006 0.0
C252 C 0.33436 0.36297 0.06451 0.0
C253 C 0.28206 0.38344 0.11245 0.0
C254 C 0.34692 0.29911 0.05344 0.0
C255 C 0.41064 0.31201 1.00435 0.0
N256 N 0.30425 0.35744 0.09439 0.0
N257 N 0.38833 0.3384 0.0196 0.0
H258 H 0.6594 0.46749 0.13281 0.0
H259 H 0.59236 0.27129 0.03023 0.0
H260 H 0.71347 0.38897 1.00133 0.0
H261 H 0.55416 0.34133 0.20771 0.0
H262 H 0.63289 0.31605 1.00917 0.0
H263 H 0.6158 0.4239 0.14838 0.0
C264 C 0.66177 0.44119 0.1062 0.0
C265 C 0.69009 0.43179 0.06573 0.0
C266 C 0.61575 0.32162 0.05293 0.0
C267 C 0.64063 0.3818 0.08414 0.0
C268 C 0.59273 0.2959 0.06565 0.0
C269 C 0.56996 0.3022 0.12175 0.0
C270 C 0.61596 0.35421 0.09591 0.0
C271 C 0.57101 0.33522 0.16365 0.0
C272 C 0.6371 0.41628 0.11579 0.0
C273 C 0.69221 0.39725 0.03348 0.0
N274 N 0.59364 0.35999 0.14988 0.0
N275 N 0.66784 0.37352 0.04342 0.0
H276 H 0.54361 0.66938 0.14967 0.0
H277 H 0.74835 0.63733 0.15686 0.0
H278 H 0.61525 0.73949 0.07335 0.0
H279 H 0.67747 0.56336 0.22279 0.0
H280 H 0.6999 0.67627 0.13255 0.0
H281 H 0.59192 0.63034 0.17863 0.0
C282 C 0.5694 0.67635 0.13805 0.0
C283 C 0.57538 0.70785 0.10928 0.0
C284 C 0.69491 0.65162 0.15277 0.0
C285 C 0.63088 0.66366 0.14378 0.0
C286 C 0.72264 0.6294 0.16703 0.0
C287 C 0.71699 0.5969 0.19154 0.0
C288 C 0.66113 0.64136 0.16288 0.0
C289 C 0.68308 0.58818 0.2041 0.0
C290 C 0.59702 0.65423 0.15535 0.0
C291 C 0.60946 0.71576 0.09649 0.0
N292 N 0.65638 0.61018 0.18911 0.0
N293 N 0.63586 0.69391 0.11402 0.0
H294 H 0.35779 0.75976 0.13286 0.0
H295 H 0.31526 0.55775 0.02997 0.0
H296 H 0.43388 0.68073 0.17572 0.0
H297 H 0.23621 0.63355 0.07482 0.0
H298 H 0.35975 0.60335 0.0659 0.0
H299 H 0.31323 0.71445 0.09733 0.0
C300 C 0.36503 0.73287 0.13556 0.0
C301 C 0.39954 0.72399 0.15771 0.0
C302 C 0.33264 0.60996 0.06749 0.0
C303 C 0.34886 0.67201 0.11535 0.0
C304 C 0.30723 0.58407 0.04619 0.0
C305 C 0.27198 0.59191 0.04924 0.0
C306 C 0.32266 0.64399 0.09088 0.0
C307 C 0.26309 0.62637 0.07173 0.0
C308 C 0.33961 0.70704 0.11512 0.0
C309 C 0.40751 0.68873 0.15981 0.0
N310 N 0.28824 0.65114 0.09149 0.0
N311 N 0.38241 0.66397 0.13812 0.0
loop_
_geom_bond_atom_site_label_1
_geom_bond_atom_site_label_2
_geom_bond_distance
_geom_bond_site_symmetry_2
_ccdc_geom_bond_type
Co0 N4 2.148 . S
Co0 N10 2.128 1_554 S
Co0 N20 2.194 . S
Co0 O25 2.351 . S
Co0 O26 2.155 . S
Co0 O27 2.096 . S
C1 N4 1.301 . S
C1 N5 1.328 . S
C1 H6 0.930 . S
C2 C3 1.333 . S
C2 N4 1.317 . S
C2 H7 0.930 . S
C3 C2 1.333 . S
C3 N5 1.350 . S
C3 H29 0.931 . S
N4 Co0 2.148 . S
N4 C1 1.301 . S
N4 C2 1.317 . S
N5 C1 1.328 . S
N5 C3 1.350 . S
H6 C1 0.930 . S
H7 C2 0.930 . S
C8 O9 1.224 . S
C8 O27 1.247 . S
O9 C8 1.224 . S
N10 Co0 2.128 1_556 S
N10 C11 1.355 . S
N10 C13 1.311 . S
C11 N10 1.355 . S
C11 C12 1.363 . S
C11 H23 0.929 . S
C12 C11 1.363 . S
C12 N14 1.375 . S
C12 H30 0.931 . S
C13 N10 1.311 . S
C13 N14 1.347 . S
C13 H24 0.929 . S
N14 C12 1.375 . S
N14 C13 1.347 . S
C15 C18 1.365 . S
C15 N20 1.328 . S
C15 H21 0.929 . S
C16 C17 1.362 . S
C16 C19 1.378 . S
C16 H31 0.929 . S
C17 C16 1.362 . S
C17 C18 1.366 . S
C18 C15 1.365 . S
C18 C17 1.366 . S
C18 H32 0.930 . S
C19 C16 1.378 . S
C19 N20 1.315 . S
C19 H22 0.930 . S
N20 Co0 2.194 . S
N20 C15 1.328 . S
N20 C19 1.315 . S
H21 C15 0.929 . S
H22 C19 0.930 . S
H23 C11 0.929 . S
H24 C13 0.929 . S
O25 Co0 2.351 . S
O25 C28 1.244 . S
O26 Co0 2.155 . S
O26 C28 1.240 . S
O27 Co0 2.096 . S
O27 C8 1.247 . S
C28 O25 1.244 . S
C28 O26 1.240 . S
H29 C3 0.931 . S
H30 C12 0.931 . S
H31 C16 0.929 . S
H32 C18 0.930 . S
Co33 N37 2.148 . S
Co33 N43 2.128 1_554 S
Co33 N53 2.194 . S
Co33 O58 2.351 . S
Co33 O59 2.155 . S
Co33 O60 2.096 . S
C34 N37 1.301 . S
C34 N38 1.328 . S
C34 H39 0.930 . S
C35 C36 1.333 . S
C35 N37 1.317 . S
C35 H40 0.930 . S
C36 C35 1.333 . S
C36 N38 1.350 . S
C36 H62 0.931 . S
N37 Co33 2.148 . S
N37 C34 1.301 . S
N37 C35 1.317 . S
N38 C34 1.328 . S
N38 C36 1.350 . S
H39 C34 0.930 . S
H40 C35 0.930 . S
C41 O42 1.224 . S
C41 O60 1.247 . S
O42 C41 1.224 . S
N43 Co33 2.128 1_556 S
N43 C44 1.355 . S
N43 C46 1.311 . S
C44 N43 1.355 . S
C44 C45 1.363 . S
C44 H56 0.929 . S
C45 C44 1.363 . S
C45 N47 1.375 . S
C45 H63 0.931 . S
C46 N43 1.311 . S
C46 N47 1.347 . S
C46 H57 0.929 . S
N47 C45 1.375 . S
N47 C46 1.347 . S
C48 C51 1.365 . S
C48 N53 1.328 . S
C48 H54 0.929 . S
C49 C50 1.362 . S
C49 C52 1.378 . S
C49 H64 0.929 . S
C50 C49 1.362 . S
C50 C51 1.366 . S
C51 C48 1.365 . S
C51 C50 1.366 . S
C51 H65 0.930 . S
C52 C49 1.378 . S
C52 N53 1.315 . S
C52 H55 0.930 . S
N53 Co33 2.194 . S
N53 C48 1.328 . S
N53 C52 1.315 . S
H54 C48 0.929 . S
H55 C52 0.930 . S
H56 C44 0.929 . S
H57 C46 0.929 . S
O58 Co33 2.351 . S
O58 C61 1.244 . S
O59 Co33 2.155 . S
O59 C61 1.240 . S
O60 Co33 2.096 . S
O60 C41 1.247 . S
C61 O58 1.244 . S
C61 O59 1.240 . S
H62 C36 0.931 . S
H63 C45 0.931 . S
H64 C49 0.929 . S
H65 C51 0.930 . S
Co66 N70 2.148 . S
Co66 N76 2.128 . S
Co66 N86 2.194 . S
Co66 O91 2.351 . S
Co66 O92 2.155 . S
Co66 O93 2.096 . S
C67 N70 1.301 1_556 S
C67 N71 1.328 . S
C67 H72 0.930 . S
C68 C69 1.333 . S
C68 N70 1.317 1_556 S
C68 H73 0.930 1_556 S
C69 C68 1.333 . S
C69 N71 1.350 . S
C69 H95 0.931 . S
N70 Co66 2.148 . S
N70 C67 1.301 1_554 S
N70 C68 1.317 1_554 S
N71 C67 1.328 . S
N71 C69 1.350 . S
H72 C67 0.930 . S
H73 C68 0.930 1_554 S
C74 O75 1.224 . S
C74 O93 1.247 . S
O75 C74 1.224 . S
N76 Co66 2.128 . S
N76 C77 1.355 . S
N76 C79 1.311 . S
C77 N76 1.355 . S
C77 C78 1.363 . S
C77 H89 0.929 . S
C78 C77 1.363 . S
C78 N80 1.375 . S
C78 H96 0.931 . S
C79 N76 1.311 . S
C79 N80 1.347 . S
C79 H90 0.929 . S
N80 C78 1.375 . S
N80 C79 1.347 . S
C81 C84 1.365 . S
C81 N86 1.328 . S
C81 H87 0.929 . S
C82 C83 1.362 . S
C82 C85 1.378 . S
C82 H97 0.929 . S
C83 C82 1.362 . S
C83 C84 1.366 . S
C84 C81 1.365 . S
C84 C83 1.366 . S
C84 H98 0.930 . S
C85 C82 1.378 . S
C85 N86 1.315 . S
C85 H88 0.930 . S
N86 Co66 2.194 . S
N86 C81 1.328 . S
N86 C85 1.315 . S
H87 C81 0.929 . S
H88 C85 0.930 . S
H89 C77 0.929 . S
H90 C79 0.929 . S
O91 Co66 2.351 . S
O91 C94 1.244 . S
O92 Co66 2.155 . S
O92 C94 1.240 . S
O93 Co66 2.096 . S
O93 C74 1.247 . S
C94 O91 1.244 . S
C94 O92 1.240 . S
H95 C69 0.931 . S
H96 C78 0.931 . S
H97 C82 0.929 . S
H98 C84 0.930 . S
Co99 N103 2.148 . S
Co99 N109 2.128 . S
Co99 N119 2.194 . S
Co99 O124 2.351 . S
Co99 O125 2.155 . S
Co99 O126 2.096 . S
C100 N103 1.301 1_556 S
C100 N104 1.328 . S
C100 H105 0.930 . S
C101 C102 1.333 . S
C101 N103 1.317 1_556 S
C101 H106 0.930 . S
C102 C101 1.333 . S
C102 N104 1.350 . S
C102 H128 0.931 . S
N103 Co99 2.148 . S
N103 C100 1.301 1_554 S
N103 C101 1.317 1_554 S
N104 C100 1.328 . S
N104 C102 1.350 . S
H105 C100 0.930 . S
H106 C101 0.930 . S
C107 O108 1.224 . S
C107 O126 1.247 . S
O108 C107 1.224 . S
N109 Co99 2.128 . S
N109 C110 1.355 . S
N109 C112 1.311 . S
C110 N109 1.355 . S
C110 C111 1.363 . S
C110 H122 0.929 . S
C111 C110 1.363 . S
C111 N113 1.375 . S
C111 H129 0.931 . S
C112 N109 1.311 . S
C112 N113 1.347 . S
C112 H123 0.929 . S
N113 C111 1.375 . S
N113 C112 1.347 . S
C114 C117 1.365 . S
C114 N119 1.328 . S
C114 H120 0.929 . S
C115 C116 1.362 . S
C115 C118 1.378 . S
C115 H130 0.929 . S
C116 C115 1.362 . S
C116 C117 1.366 . S
C117 C114 1.365 . S
C117 C116 1.366 . S
C117 H131 0.930 . S
C118 C115 1.378 . S
C118 N119 1.315 . S
C118 H121 0.930 . S
N119 Co99 2.194 . S
N119 C114 1.328 . S
N119 C118 1.315 . S
H120 C114 0.929 . S
H121 C118 0.930 . S
H122 C110 0.929 . S
H123 C112 0.929 . S
O124 Co99 2.351 . S
O124 C127 1.244 . S
O125 Co99 2.155 . S
O125 C127 1.240 . S
O126 Co99 2.096 . S
O126 C107 1.247 . S
C127 O124 1.244 . S
C127 O125 1.240 . S
H128 C102 0.931 . S
H129 C111 0.931 . S
H130 C115 0.929 . S
H131 C117 0.930 . S
H132 C138 0.930 . S
H133 C142 0.930 . S
H134 C147 0.929 . S
H135 C145 0.929 . S
H136 C140 0.929 . S
H137 C146 0.929 . S
C138 H132 0.930 . S
C138 C139 1.367 . S
C138 C146 1.378 . S
C139 C138 1.367 . S
C139 C147 1.433 . S
C140 H136 0.929 . S
C140 C142 1.378 . S
C140 C144 1.350 . S
C141 C144 1.463 . S
C141 C146 1.350 . S
C141 N149 1.427 . S
C142 H133 0.930 . S
C142 C140 1.378 . S
C142 C143 1.367 . S
C143 C142 1.367 . S
C143 C145 1.433 . S
C144 C140 1.350 . S
C144 C141 1.463 . S
C144 N148 1.427 . S
C145 H135 0.929 . S
C145 C143 1.433 . S
C145 N148 1.384 . S
C146 H137 0.929 . S
C146 C138 1.378 . S
C146 C141 1.350 . S
C147 H134 0.929 . S
C147 C139 1.433 . S
C147 N149 1.384 . S
N148 C144 1.427 . S
N148 C145 1.384 . S
N149 C141 1.427 . S
N149 C147 1.384 . S
H150 C156 0.930 . S
H151 C160 0.930 . S
H152 C165 0.929 . S
H153 C163 0.929 . S
H154 C158 0.929 . S
H155 C164 0.929 . S
C156 H150 0.930 . S
C156 C157 1.367 . S
C156 C164 1.378 . S
C157 C156 1.367 . S
C157 C165 1.433 . S
C158 H154 0.929 . S
C158 C160 1.378 . S
C158 C162 1.350 . S
C159 C162 1.463 . S
C159 C164 1.350 . S
C159 N167 1.427 . S
C160 H151 0.930 . S
C160 C158 1.378 . S
C160 C161 1.367 . S
C161 C160 1.367 . S
C161 C163 1.433 . S
C162 C158 1.350 . S
C162 C159 1.463 . S
C162 N166 1.427 . S
C163 H153 0.929 . S
C163 C161 1.433 . S
C163 N166 1.384 . S
C164 H155 0.929 . S
C164 C156 1.378 . S
C164 C159 1.350 . S
C165 H152 0.929 . S
C165 C157 1.433 . S
C165 N167 1.384 . S
N166 C162 1.427 . S
N166 C163 1.384 . S
N167 C159 1.427 . S
N167 C165 1.384 . S
H168 C174 0.930 . S
H169 C178 0.930 . S
H170 C183 0.929 . S
H171 C181 0.929 . S
H172 C176 0.929 . S
H173 C182 0.929 . S
C174 H168 0.930 . S
C174 C175 1.367 . S
C174 C182 1.378 . S
C175 C174 1.367 . S
C175 C183 1.433 . S
C176 H172 0.929 . S
C176 C178 1.378 . S
C176 C180 1.350 . S
C177 C180 1.463 . S
C177 C182 1.350 . S
C177 N185 1.427 . S
C178 H169 0.930 . S
C178 C176 1.378 . S
C178 C179 1.367 . S
C179 C178 1.367 . S
C179 C181 1.433 . S
C180 C176 1.350 . S
C180 C177 1.463 . S
C180 N184 1.427 . S
C181 H171 0.929 . S
C181 C179 1.433 . S
C181 N184 1.384 . S
C182 H173 0.929 . S
C182 C174 1.378 . S
C182 C177 1.350 . S
C183 H170 0.929 . S
C183 C175 1.433 . S
C183 N185 1.384 . S
N184 C180 1.427 . S
N184 C181 1.384 . S
N185 C177 1.427 . S
N185 C183 1.384 . S
H186 C192 0.930 . S
H187 C196 0.930 . S
H188 C201 0.929 . S
H189 C199 0.929 . S
H190 C194 0.929 . S
H191 C200 0.929 . S
C192 H186 0.930 . S
C192 C193 1.367 . S
C192 C200 1.378 . S
C193 C192 1.367 . S
C193 C201 1.433 . S
C194 H190 0.929 . S
C194 C196 1.378 . S
C194 C198 1.350 . S
C195 C198 1.463 . S
C195 C200 1.350 . S
C195 N203 1.427 . S
C196 H187 0.930 . S
C196 C194 1.378 . S
C196 C197 1.367 . S
C197 C196 1.367 . S
C197 C199 1.433 . S
C198 C194 1.350 . S
C198 C195 1.463 . S
C198 N202 1.427 . S
C199 H189 0.929 . S
C199 C197 1.433 . S
C199 N202 1.384 . S
C200 H191 0.929 . S
C200 C192 1.378 . S
C200 C195 1.350 . S
C201 H188 0.929 . S
C201 C193 1.433 . S
C201 N203 1.384 . S
N202 C198 1.427 . S
N202 C199 1.384 . S
N203 C195 1.427 . S
N203 C201 1.384 . S
H204 C210 0.930 . S
H205 C214 0.930 1_556 S
H206 C219 0.929 . S
H207 C217 0.929 . S
H208 C212 0.929 1_556 S
H209 C218 0.929 . S
C210 H204 0.930 . S
C210 C211 1.367 . S
C210 C218 1.378 . S
C211 C210 1.367 . S
C211 C219 1.433 . S
C212 H208 0.929 1_554 S
C212 C214 1.378 . S
C212 C216 1.350 . S
C213 C216 1.463 1_655 S
C213 C218 1.350 . S
C213 N221 1.427 . S
C214 H205 0.930 1_554 S
C214 C212 1.378 . S
C214 C215 1.367 . S
C215 C214 1.367 . S
C215 C217 1.433 . S
C216 C212 1.350 . S
C216 C213 1.463 1_455 S
C216 N220 1.427 . S
C217 H207 0.929 . S
C217 C215 1.433 . S
C217 N220 1.384 . S
C218 H209 0.929 . S
C218 C210 1.378 . S
C218 C213 1.350 . S
C219 H206 0.929 . S
C219 C211 1.433 . S
C219 N221 1.384 . S
N220 C216 1.427 . S
N220 C217 1.384 . S
N221 C213 1.427 . S
N221 C219 1.384 . S
H222 C228 0.930 . S
H223 C232 0.930 . S
H224 C237 0.929 . S
H225 C235 0.929 1_556 S
H226 C230 0.929 . S
H227 C236 0.929 1_556 S
C228 H222 0.930 . S
C228 C229 1.367 . S
C228 C236 1.378 . S
C229 C228 1.367 . S
C229 C237 1.433 . S
C230 H226 0.929 . S
C230 C232 1.378 . S
C230 C234 1.350 . S
C231 C234 1.463 1_565 S
C231 C236 1.350 . S
C231 N239 1.427 . S
C232 H223 0.930 . S
C232 C230 1.378 . S
C232 C233 1.367 . S
C233 C232 1.367 . S
C233 C235 1.433 . S
C234 C230 1.350 . S
C234 C231 1.463 1_545 S
C234 N238 1.427 . S
C235 H225 0.929 1_554 S
C235 C233 1.433 . S
C235 N238 1.384 . S
C236 H227 0.929 1_554 S
C236 C228 1.378 . S
C236 C231 1.350 . S
C237 H224 0.929 . S
C237 C229 1.433 . S
C237 N239 1.384 . S
N238 C234 1.427 . S
N238 C235 1.384 . S
N239 C231 1.427 . S
N239 C237 1.384 . S
H240 C246 0.930 . S
H241 C250 0.930 . S
H242 C255 0.929 1_556 S
H243 C253 0.929 . S
H244 C248 0.929 . S
H245 C254 0.929 . S
C246 H240 0.930 . S
C246 C247 1.367 . S
C246 C254 1.378 . S
C247 C246 1.367 . S
C247 C255 1.433 . S
C248 H244 0.929 . S
C248 C250 1.378 . S
C248 C252 1.350 . S
C249 C252 1.463 . S
C249 C254 1.350 . S
C249 N257 1.427 . S
C250 H241 0.930 . S
C250 C248 1.378 . S
C250 C251 1.367 . S
C251 C250 1.367 . S
C251 C253 1.433 . S
C252 C248 1.350 . S
C252 C249 1.463 . S
C252 N256 1.427 . S
C253 H243 0.929 . S
C253 C251 1.433 . S
C253 N256 1.384 . S
C254 H245 0.929 . S
C254 C246 1.378 . S
C254 C249 1.350 . S
C255 H242 0.929 1_554 S
C255 C247 1.433 . S
C255 N257 1.384 . S
N256 C252 1.427 . S
N256 C253 1.384 . S
N257 C249 1.427 . S
N257 C255 1.384 . S
H258 C264 0.930 . S
H259 C268 0.935 . S
H260 C273 0.929 . S
H261 C271 0.929 . S
H262 C266 0.929 . S
H263 C272 0.929 . S
C264 H258 0.930 . S
C264 C265 1.367 . S
C264 C272 1.378 . S
C265 C264 1.367 . S
C265 C273 1.433 . S
C266 H262 0.929 . S
C266 C268 1.378 . S
C266 C270 1.350 . S
C267 C270 1.463 . S
C267 C272 1.350 . S
C267 N275 1.427 . S
C268 H259 0.935 . S
C268 C266 1.378 . S
C268 C269 1.367 . S
C269 C268 1.367 . S
C269 C271 1.433 . S
C270 C266 1.350 . S
C270 C267 1.463 . S
C270 N274 1.427 . S
C271 H261 0.929 . S
C271 C269 1.433 . S
C271 N274 1.384 . S
C272 H263 0.929 . S
C272 C264 1.378 . S
C272 C267 1.350 . S
C273 H260 0.929 . S
C273 C265 1.433 . S
C273 N275 1.384 . S
N274 C270 1.427 . S
N274 C271 1.384 . S
N275 C267 1.427 . S
N275 C273 1.384 . S
H276 C282 0.930 . S
H277 C286 0.930 . S
H278 C291 0.929 . S
H279 C289 0.929 . S
H280 C284 0.929 . S
H281 C290 0.929 . S
C282 H276 0.930 . S
C282 C283 1.367 . S
C282 C290 1.378 . S
C283 C282 1.367 . S
C283 C291 1.433 . S
C284 H280 0.929 . S
C284 C286 1.378 . S
C284 C288 1.350 . S
C285 C288 1.463 . S
C285 C290 1.350 . S
C285 N293 1.427 . S
C286 H277 0.930 . S
C286 C284 1.378 . S
C286 C287 1.367 . S
C287 C286 1.367 . S
C287 C289 1.433 . S
C288 C284 1.350 . S
C288 C285 1.463 . S
C288 N292 1.427 . S
C289 H279 0.929 . S
C289 C287 1.433 . S
C289 N292 1.384 . S
C290 H281 0.929 . S
C290 C282 1.378 . S
C290 C285 1.350 . S
C291 H278 0.929 . S
C291 C283 1.433 . S
C291 N293 1.384 . S
N292 C288 1.427 . S
N292 C289 1.384 . S
N293 C285 1.427 . S
N293 C291 1.384 . S
H294 C300 0.930 . S
H295 C304 0.930 . S
H296 C309 0.929 . S
H297 C307 0.929 . S
H298 C302 0.929 . S
H299 C308 0.929 . S
C300 H294 0.930 . S
C300 C301 1.367 . S
C300 C308 1.378 . S
C301 C300 1.367 . S
C301 C309 1.433 . S
C302 H298 0.929 . S
C302 C304 1.378 . S
C302 C306 1.350 . S
C303 C306 1.463 . S
C303 C308 1.350 . S
C303 N311 1.427 . S
C304 H295 0.930 . S
C304 C302 1.378 . S
C304 C305 1.367 . S
C305 C304 1.367 . S
C305 C307 1.433 . S
C306 C302 1.350 . S
C306 C303 1.463 . S
C306 N310 1.427 . S
C307 H297 0.929 . S
C307 C305 1.433 . S
C307 N310 1.384 . S
C308 H299 0.929 . S
C308 C300 1.378 . S
C308 C303 1.350 . S
C309 H296 0.929 . S
C309 C301 1.433 . S
C309 N311 1.384 . S
N310 C306 1.427 . S
N310 C307 1.384 . S
N311 C303 1.427 . S
N311 C309 1.384 . S
C139 N14 1.458 . S
C143 N5 1.464 . S
C157 N47 1.458 . S
C161 N38 1.466 . S
C175 N71 1.476 . S
C179 N80 1.468 . S
C193 N104 1.464 . S
C197 N113 1.458 . S
C211 C94 0.982 . S
C215 C28 0.983 . S
C229 C127 0.981 . S
C233 C61 0.982 . S
C247 C41 1.476 . S
C251 C17 1.492 . S
C265 C83 1.229 . S
C269 C50 1.235 . S
C283 C116 1.494 . S
C287 C74 1.473 . S
C301 C107 1.791 . S
C305 C8 1.785 . S
