# Generated by pormake.
# Topology wfa, (4)-cn, num edge types: 1
# Building blocks:
#     Node 0, Type 0, BuildingBlock: KOZSID_clean_sbu_0, # of connection points: 4
#     Node 1, Type 0, BuildingBlock: KOZSID_clean_sbu_0, # of connection points: 4
#     Node 2, Type 0, BuildingBlock: KOZSID_clean_sbu_0, # of connection points: 4
#     Node 3, Type 0, BuildingBlock: KOZSID_clean_sbu_0, # of connection points: 4
#     Node 4, Type 0, BuildingBlock: KOZSID_clean_sbu_0, # of connection points: 4
#     Node 5, Type 0, BuildingBlock: KOZSID_clean_sbu_0, # of connection points: 4
#     Node 6, Type 0, BuildingBlock: KOZSID_clean_sbu_0, # of connection points: 4
#     Node 7, Type 0, BuildingBlock: KOZSID_clean_sbu_0, # of connection points: 4
#     Node 8, Type 0, BuildingBlock: KOZSID_clean_sbu_0, # of connection points: 4
#     Node 9, Type 0, BuildingBlock: KOZSID_clean_sbu_0, # of connection points: 4
#     Node 10, Type 0, BuildingBlock: KOZSID_clean_sbu_0, # of connection points: 4
#     Node 11, Type 0, BuildingBlock: KOZSID_clean_sbu_0, # of connection points: 4
#     Node 12, Type 0, BuildingBlock: KOZSID_clean_sbu_0, # of connection points: 4
#     Node 13, Type 0, BuildingBlock: KOZSID_clean_sbu_0, # of connection points: 4
#     Node 14, Type 0, BuildingBlock: KOZSID_clean_sbu_0, # of connection points: 4
#     Node 15, Type 0, BuildingBlock: KOZSID_clean_sbu_0, # of connection points: 4
#     Edge 16, Type (0, 0), BuildingBlock: AJUNOK_clean_linker_0, # of connection points: 2
#     Edge 17, Type (0, 0), BuildingBlock: AJUNOK_clean_linker_0, # of connection points: 2
#     Edge 18, Type (0, 0), BuildingBlock: AJUNOK_clean_linker_0, # of connection points: 2
#     Edge 19, Type (0, 0), BuildingBlock: AJUNOK_clean_linker_0, # of connection points: 2
#     Edge 20, Type (0, 0), BuildingBlock: AJUNOK_clean_linker_0, # of connection points: 2
#     Edge 21, Type (0, 0), BuildingBlock: AJUNOK_clean_linker_0, # of connection points: 2
#     Edge 22, Type (0, 0), BuildingBlock: AJUNOK_clean_linker_0, # of connection points: 2
#     Edge 23, Type (0, 0), BuildingBlock: AJUNOK_clean_linker_0, # of connection points: 2
#     Edge 24, Type (0, 0), BuildingBlock: AJUNOK_clean_linker_0, # of connection points: 2
#     Edge 25, Type (0, 0), BuildingBlock: AJUNOK_clean_linker_0, # of connection points: 2
#     Edge 26, Type (0, 0), BuildingBlock: AJUNOK_clean_linker_0, # of connection points: 2
#     Edge 27, Type (0, 0), BuildingBlock: AJUNOK_clean_linker_0, # of connection points: 2
#     Edge 28, Type (0, 0), BuildingBlock: AJUNOK_clean_linker_0, # of connection points: 2
#     Edge 29, Type (0, 0), BuildingBlock: AJUNOK_clean_linker_0, # of connection points: 2
#     Edge 30, Type (0, 0), BuildingBlock: AJUNOK_clean_linker_0, # of connection points: 2
#     Edge 31, Type (0, 0), BuildingBlock: AJUNOK_clean_linker_0, # of connection points: 2
#     Edge 32, Type (0, 0), BuildingBlock: AJUNOK_clean_linker_0, # of connection points: 2
#     Edge 33, Type (0, 0), BuildingBlock: AJUNOK_clean_linker_0, # of connection points: 2
#     Edge 34, Type (0, 0), BuildingBlock: AJUNOK_clean_linker_0, # of connection points: 2
#     Edge 35, Type (0, 0), BuildingBlock: AJUNOK_clean_linker_0, # of connection points: 2
#     Edge 36, Type (0, 0), BuildingBlock: AJUNOK_clean_linker_0, # of connection points: 2
#     Edge 37, Type (0, 0), BuildingBlock: AJUNOK_clean_linker_0, # of connection points: 2
#     Edge 38, Type (0, 0), BuildingBlock: AJUNOK_clean_linker_0, # of connection points: 2
#     Edge 39, Type (0, 0), BuildingBlock: AJUNOK_clean_linker_0, # of connection points: 2
#     Edge 40, Type (0, 0), BuildingBlock: AJUNOK_clean_linker_0, # of connection points: 2
#     Edge 41, Type (0, 0), BuildingBlock: AJUNOK_clean_linker_0, # of connection points: 2
#     Edge 42, Type (0, 0), BuildingBlock: AJUNOK_clean_linker_0, # of connection points: 2
#     Edge 43, Type (0, 0), BuildingBlock: AJUNOK_clean_linker_0, # of connection points: 2
#     Edge 44, Type (0, 0), BuildingBlock: AJUNOK_clean_linker_0, # of connection points: 2
#     Edge 45, Type (0, 0), BuildingBlock: AJUNOK_clean_linker_0, # of connection points: 2
#     Edge 46, Type (0, 0), BuildingBlock: AJUNOK_clean_linker_0, # of connection points: 2
#     Edge 47, Type (0, 0), BuildingBlock: AJUNOK_clean_linker_0, # of connection points: 2
# Relax obj value: 0.133
# Max RMSD: 0.285
# Mean RMSD: 0.214
data_MOF--net-wfa--node1-KOZSID_clean_sbu_0--edge1-AJUNOK_clean_linker_0
_symmetry_space_group_name_H-M    P1
_symmetry_Int_Tables_number       1
_symmetry_cell_setting            triclinic
loop_
_symmetry_equiv_pos_as_xyz
'x, y, z'
_cell_length_a     45.427822
_cell_length_b     47.682312
_cell_length_c     19.494039
_cell_angle_alpha  88.662631
_cell_angle_beta   88.580416
_cell_angle_gamma 89.441419
loop_
_atom_site_label
_atom_site_type_symbol
_atom_site_fract_x
_atom_site_fract_y
_atom_site_fract_z
_atom_type_partial_charge
C0 C 0.51909 0.03667 0.98965 0.0
C1 C 0.51229 0.05938 0.94689 0.0
C2 C 0.53835 0.07303 0.93165 0.0
C3 C 0.55978 0.05833 0.96625 0.0
N4 N 0.54862 0.03613 1.00136 0.0
Co5 Co 0.57013 1.01248 0.06902 0.0
N6 N 0.60036 0.04138 0.08353 0.0
C7 C 0.60608 0.06297 0.03957 0.0
C8 C 0.62963 0.07857 0.0588 0.0
C9 C 0.63965 0.06563 0.11765 0.0
C10 C 0.6216 0.04275 0.13143 0.0
N11 N 0.59044 0.98814 0.13754 0.0
C12 C 0.61138 0.99428 0.18336 0.0
C13 C 0.61878 0.97054 0.22218 0.0
C14 C 0.60288 0.94878 0.19786 0.0
C15 C 0.58641 0.96029 0.14615 0.0
N16 N 0.53985 0.98394 0.05403 0.0
C17 C 0.54232 0.95629 0.0674 0.0
C18 C 0.5168 0.94219 0.05455 0.0
C19 C 0.49705 0.96242 0.03313 0.0
C20 C 0.51159 0.9878 0.03471 0.0
N21 N 0.59615 0.99753 0.99506 0.0
C22 C 0.63854 0.99371 0.88635 0.0
C23 C 0.64673 0.99372 0.95511 0.0
C24 C 0.62556 0.99487 0.00777 0.0
C25 C 0.608 0.99294 0.87391 0.0
C26 C 0.5872 0.99512 0.92888 0.0
N27 N 0.54549 0.02874 0.14145 0.0
C28 C 0.51733 0.02637 0.24767 0.0
C29 C 0.51223 0.0554 0.24301 0.0
C30 C 0.52339 0.0705 0.18651 0.0
C31 C 0.54052 0.05704 0.13778 0.0
C32 C 0.5336 1.01322 0.19501 0.0
H33 H 0.55032 0.06994 0.0978 0.0
H34 H 0.53725 0.99084 0.19839 0.0
H35 H 0.63368 0.99605 0.05868 0.0
H36 H 0.56403 0.99625 0.9176 0.0
C37 C 0.58709 0.06925 0.98495 0.0
C38 C 0.49809 1.01536 0.01883 0.0
C39 C 0.62774 0.02088 0.1845 0.0
C40 C 0.56475 0.94639 0.10995 0.0
H41 H 0.49095 0.06648 0.93044 0.0
H42 H 0.54076 0.0929 0.90422 0.0
H43 H 0.63844 0.09718 0.0333 0.0
H44 H 0.65868 0.07178 0.14584 0.0
H45 H 0.6347 0.96887 0.26248 0.0
H46 H 0.60306 0.92723 0.21645 0.0
H47 H 0.5122 0.92028 0.0653 0.0
H48 H 0.47428 0.95911 0.02063 0.0
H49 H 0.6696 0.99444 0.96916 0.0
H50 H 0.60002 0.9913 0.82237 0.0
H51 H 0.50961 1.01427 0.29213 0.0
H52 H 0.52078 0.09312 0.18272 0.0
C53 C 0.56735 0.66995 0.13347 0.0
C54 C 0.59593 0.66271 0.1506 0.0
C55 C 0.614 0.67517 0.10211 0.0
C56 C 0.59546 0.68939 0.05876 0.0
N57 N 0.56672 0.6873 0.07752 0.0
Co58 Co 0.53236 0.70381 0.02763 0.0
N59 N 0.55842 0.71917 0.95094 0.0
C60 C 0.58786 0.71531 0.94407 0.0
C61 C 0.60028 0.72985 0.88938 0.0
C62 C 0.57757 0.74432 0.86017 0.0
C63 C 0.55237 0.7377 0.89859 0.0
N64 N 0.4982 0.72126 0.97772 0.0
C65 C 0.49774 0.73981 0.92341 0.0
C66 C 0.46925 0.74811 0.90819 0.0
C67 C 0.4511 0.73511 0.95554 0.0
C68 C 0.46945 0.7196 0.99672 0.0
N69 N 0.50609 0.68837 0.10308 0.0
C70 C 0.47643 0.69091 0.10756 0.0
C71 C 0.46389 0.67572 0.16079 0.0
C72 C 0.48679 0.66206 0.19119 0.0
C73 C 0.5123 0.66993 0.15497 0.0
N74 N 0.53686 0.73947 0.07958 0.0
C75 C 0.54454 0.78388 0.17327 0.0
C76 C 0.51665 0.773 0.16082 0.0
C77 C 0.51331 0.75128 0.11405 0.0
C78 C 0.56827 0.77306 0.1344 0.0
C79 C 0.56395 0.75133 0.08792 0.0
N80 N 0.52789 0.66682 0.97992 0.0
C81 C 0.49748 0.62541 0.96679 0.0
C82 C 0.52208 0.60723 0.96262 0.0
C83 C 0.54965 0.62063 0.95905 0.0
C84 C 0.55195 0.64998 0.96635 0.0
C85 C 0.5008 0.65461 0.97478 0.0
H86 H 0.57369 0.65839 0.96493 0.0
H87 H 0.48101 0.66673 0.97986 0.0
H88 H 0.49147 0.74388 0.10789 0.0
H89 H 0.58303 0.74388 0.06067 0.0
C90 C 0.60381 0.70185 0.99583 0.0
C91 C 0.5415 0.6576 0.1674 0.0
C92 C 0.5236 0.75097 0.88605 0.0
C93 C 0.46073 0.70537 0.05705 0.0
H94 H 0.6028 0.64872 0.19184 0.0
H95 H 0.63768 0.67288 0.09699 0.0
H96 H 0.62341 0.7312 0.87507 0.0
H97 H 0.57964 0.75904 0.81729 0.0
H98 H 0.4624 0.76269 0.86815 0.0
H99 H 0.42746 0.73759 0.96104 0.0
H100 H 0.44069 0.67361 0.1737 0.0
H101 H 0.48434 0.64712 0.23331 0.0
H102 H 0.49733 0.78093 0.188 0.0
H103 H 0.59041 0.78044 0.14167 0.0
H104 H 0.47539 0.61717 0.96574 0.0
H105 H 0.56994 0.60876 0.95546 0.0
C106 C 1.0047 0.51001 0.92622 0.0
C107 C 1.01149 0.4863 0.88881 0.0
C108 C 0.98518 0.47331 0.87643 0.0
C109 C 0.96352 0.48942 0.90715 0.0
N110 N 0.97483 0.5119 0.93689 0.0
Co111 Co 0.95314 0.53699 1.00058 0.0
N112 N 0.9222 0.50922 0.0228 0.0
C113 C 0.91597 0.48742 0.98317 0.0
C114 C 0.89205 0.47258 0.00809 0.0
C115 C 0.88254 0.48625 0.06615 0.0
C116 C 0.90124 0.50876 0.07375 0.0
N117 N 0.93336 0.56268 0.0658 0.0
C118 C 0.9127 0.55742 0.11577 0.0
C119 C 0.90482 0.58203 0.14871 0.0
C120 C 0.92062 0.60328 0.11701 0.0
C121 C 0.93735 0.59062 0.06671 0.0
N122 N 0.98441 0.56434 0.97767 0.0
C123 C 0.98248 0.59225 0.98468 0.0
C124 C 1.00897 0.60521 0.97041 0.0
C125 C 0.02868 0.58399 0.95524 0.0
C126 C 1.01318 0.55917 0.96123 0.0
N127 N 0.92711 0.55152 0.92563 0.0
C128 C 0.88283 0.55673 0.82467 0.0
C129 C 0.87613 0.55941 0.89435 0.0
C130 C 0.89814 0.55702 0.94299 0.0
C131 C 0.91292 0.55356 0.80575 0.0
C132 C 0.93471 0.551 0.85701 0.0
N133 N 0.97675 0.52123 0.07481 0.0
C134 C 1.0056 0.52489 0.17627 0.0
C135 C 1.01031 0.49578 0.17718 0.0
C136 C 0.99744 0.47981 0.12736 0.0
C137 C 0.98039 0.49275 0.07796 0.0
C138 C 0.98908 0.53737 0.12344 0.0
H139 H 0.97009 0.47943 0.04216 0.0
H140 H 0.98623 0.55988 0.12188 0.0
H141 H 0.89059 0.55747 0.99534 0.0
H142 H 0.95733 0.54713 0.84125 0.0
C143 C 0.93546 0.47969 0.92899 0.0
C144 C 0.02612 0.53087 0.95193 0.0
C145 C 0.89681 0.53071 0.12551 0.0
C146 C 0.95956 0.60344 0.02564 0.0
H147 H 0.03291 0.47819 0.87428 0.0
H148 H 0.98259 0.45301 0.85376 0.0
H149 H 0.88292 0.45377 0.9874 0.0
H150 H 0.86367 0.48065 0.09842 0.0
H151 H 0.8886 0.58456 0.18974 0.0
H152 H 0.92024 0.62525 0.12986 0.0
H153 H 0.01416 0.62706 0.97721 0.0
H154 H 0.05201 0.5863 0.94471 0.0
H155 H 0.85348 0.56222 0.91191 0.0
H156 H 0.91941 0.55157 0.75224 0.0
H157 H 0.01473 0.53777 0.21538 0.0
H158 H 0.99963 0.45714 0.12806 0.0
C159 C 0.95675 0.8913 0.11285 0.0
C160 C 0.92827 0.90096 0.12528 0.0
C161 C 0.9113 0.89001 0.07573 0.0
C162 C 0.93032 0.8744 0.03596 0.0
N163 N 0.95827 0.8742 0.0583 0.0
Co164 Co 0.99349 0.85651 0.01202 0.0
N165 N 0.96981 0.8444 0.93317 0.0
C166 C 0.94193 0.8523 0.91993 0.0
C167 C 0.93314 0.8449 0.85611 0.0
C168 C 0.95651 0.83038 0.82836 0.0
C169 C 0.97766 0.82846 0.87854 0.0
N170 N 0.02812 0.83738 0.96511 0.0
C171 C 0.02803 0.81591 0.91923 0.0
C172 C 0.05538 0.80258 0.91665 0.0
C173 C 0.07342 0.81672 0.95833 0.0
C174 C 0.05619 0.83718 0.98711 0.0
N175 N 0.01768 0.86899 0.08957 0.0
C176 C 0.04691 0.86498 0.09667 0.0
C177 C 0.058 0.87795 0.15235 0.0
C178 C 0.03453 0.89184 0.18121 0.0
C179 C 1.01048 0.88657 0.14096 0.0
N180 N 0.98492 0.82049 0.06353 0.0
C181 C 0.97297 0.77701 0.16226 0.0
C182 C 1.0017 0.78551 0.14644 0.0
C183 C 1.00712 0.80675 0.09732 0.0
C184 C 0.95034 0.78914 0.12326 0.0
C185 C 0.9568 0.81062 0.07397 0.0
N186 N 1.00217 0.89412 0.9656 0.0
C187 C 0.03486 0.9345 0.9644 0.0
C188 C 1.01114 0.95365 0.96074 0.0
C189 C 0.98344 0.94196 0.94996 0.0
C190 C 0.97964 0.91261 0.95093 0.0
C191 C 0.02998 0.90521 0.96579 0.0
H192 H 0.95779 0.90548 0.94388 0.0
H193 H 0.04892 0.8919 0.97042 0.0
H194 H 0.02954 0.81241 0.0897 0.0
H195 H 0.93877 0.8197 0.04638 0.0
C196 C 0.92413 0.86471 0.97062 0.0
C197 C 0.98221 0.90114 0.14885 0.0
C198 C 1.00239 0.808 0.87752 0.0
C199 C 0.0635 0.85057 0.0474 0.0
H200 H 0.92089 0.91566 0.16363 0.0
H201 H 0.88834 0.8947 0.06661 0.0
H202 H 0.91188 0.84859 0.83352 0.0
H203 H 0.9569 0.82028 0.77919 0.0
H204 H 0.06175 0.78335 0.89235 0.0
H205 H 0.09556 0.81064 0.97218 0.0
H206 H 0.08065 0.87833 0.16822 0.0
H207 H 0.0353 0.90542 0.22486 0.0
H208 H 0.02009 0.7763 0.17355 0.0
H209 H 0.92768 0.78303 0.13277 0.0
H210 H 0.05721 0.94192 0.96743 0.0
H211 H 0.96423 0.95533 0.94403 0.0
C212 C 0.0168 0.99391 0.56888 0.0
C213 C 1.00873 0.9688 0.60123 0.0
C214 C 0.03442 0.95439 0.61532 0.0
C215 C 0.05692 0.97107 0.59019 0.0
N216 N 0.04681 0.99523 0.56223 0.0
Co217 Co 0.07044 0.02236 0.50542 0.0
N218 N 0.10293 0.99521 0.48939 0.0
C219 C 0.10793 0.97213 0.52872 0.0
C220 C 0.13324 0.95814 0.50907 0.0
C221 C 0.14498 0.97365 0.45482 0.0
C222 C 0.12608 0.99628 0.44409 0.0
N223 N 0.09182 0.04957 0.44447 0.0
C224 C 0.11456 0.04546 0.39928 0.0
C225 C 0.12238 0.07056 0.36632 0.0
C226 C 0.10459 0.09107 0.39366 0.0
C227 C 0.08668 0.07746 0.44109 0.0
N228 N 0.03829 0.04962 0.52393 0.0
C229 C 0.04019 0.07769 0.51807 0.0
C230 C 0.01374 0.09089 0.53231 0.0
C231 C 0.99402 0.06973 0.5464 0.0
C232 C 1.00953 0.04474 0.53954 0.0
N233 N 0.09291 0.03463 0.58698 0.0
C234 C 0.13592 0.03342 0.69194 0.0
C235 C 0.14106 0.04698 0.62818 0.0
C236 C 0.12005 0.04676 0.57691 0.0
C237 C 0.10704 0.02343 0.70426 0.0
C238 C 0.08574 0.02532 0.65244 0.0
N239 N 0.04991 1.00864 0.42584 0.0
C240 C 0.01786 1.01446 0.3295 0.0
C241 C 0.01495 0.98524 0.32651 0.0
C242 C 0.03166 0.96827 0.37 0.0
C243 C 0.04902 0.98025 0.41833 0.0
C244 C 0.03529 0.02585 0.38062 0.0
H245 H 0.06081 0.96612 0.45148 0.0
H246 H 0.03632 0.04836 0.38489 0.0
H247 H 0.12737 0.05515 0.52813 0.0
H248 H 0.06404 0.01747 0.66489 0.0
C249 C 0.08602 0.96209 0.5754 0.0
C250 C 0.99632 1.01668 0.5452 0.0
C251 C 0.13167 0.01919 0.39357 0.0
C252 C 0.06346 0.08959 0.47926 0.0
H253 H 0.98686 0.9609 0.6114 0.0
H254 H 0.03623 0.93318 0.63592 0.0
H255 H 0.14173 0.93858 0.5302 0.0
H256 H 0.16522 0.96898 0.42674 0.0
H257 H 0.1398 0.07392 0.32825 0.0
H258 H 0.10461 0.11322 0.38016 0.0
H259 H 1.00867 0.11303 0.52651 0.0
H260 H 0.97065 0.07231 0.55677 0.0
H261 H 0.16193 0.05685 0.61586 0.0
H262 H 0.10084 1.01289 0.75196 0.0
H263 H 1.00602 0.02823 0.29463 0.0
H264 H 0.03119 0.9456 0.36709 0.0
C265 C 0.46272 0.15776 0.45381 0.0
C266 C 0.4356 0.14454 0.45484 0.0
C267 C 0.41712 0.15998 0.49604 0.0
C268 C 0.43398 0.18135 0.5191 0.0
N269 N 0.46189 0.1805 0.4946 0.0
Co270 Co 0.49524 0.20366 0.52551 0.0
N271 N 0.47232 0.21741 0.60768 0.0
C272 C 0.44317 0.21379 0.61896 0.0
C273 C 0.43215 0.22736 0.67529 0.0
C274 C 0.45551 0.2412 0.70068 0.0
C275 C 0.4797 0.23527 0.65831 0.0
N276 N 0.52888 0.22684 0.55678 0.0
C277 C 0.53167 0.24317 0.613 0.0
C278 C 0.55855 0.25676 0.61139 0.0
C279 C 0.5724 0.25014 0.5508 0.0
C280 C 0.55352 0.2326 0.51915 0.0
N281 N 0.51776 0.19098 0.44331 0.0
C282 C 0.5419 0.20314 0.41532 0.0
C283 C 0.55131 0.19098 0.35541 0.0
C284 C 0.53195 0.16963 0.3456 0.0
C285 C 0.51215 0.16974 0.40104 0.0
N286 N 0.48091 0.23603 0.46918 0.0
C287 C 0.47357 0.28055 0.37286 0.0
C288 C 0.47981 0.28588 0.44143 0.0
C289 C 0.48323 0.26332 0.48879 0.0
C290 C 0.46841 0.25277 0.35545 0.0
C291 C 0.47191 0.23104 0.40402 0.0
N292 N 0.50975 0.16954 0.57652 0.0
C293 C 0.54468 0.13086 0.56676 0.0
C294 C 0.52347 0.11048 0.58771 0.0
C295 C 0.4966 0.12206 0.61342 0.0
C296 C 0.49031 0.1512 0.60767 0.0
C297 C 0.53757 0.15974 0.56235 0.0
H298 H 0.46862 0.15836 0.62309 0.0
H299 H 0.55395 0.17373 0.54044 0.0
H300 H 0.48894 0.26802 0.54015 0.0
H301 H 0.46906 0.20997 0.38691 0.0
C302 C 0.42672 0.19757 0.5756 0.0
C303 C 0.48894 0.14892 0.41367 0.0
C304 C 0.50792 0.2501 0.663 0.0
C305 C 0.55766 0.22216 0.45308 0.0
H306 H 0.42971 0.12521 0.43123 0.0
H307 H 0.3948 0.15477 0.51197 0.0
H308 H 0.40959 0.22781 0.69451 0.0
H309 H 0.45437 0.25517 0.74358 0.0
H310 H 0.56646 0.27141 0.64815 0.0
H311 H 0.59325 0.25808 0.53096 0.0
H312 H 0.57074 0.19604 0.32448 0.0
H313 H 0.53288 0.15505 0.30385 0.0
H314 H 0.48353 0.30712 0.45749 0.0
H315 H 0.46291 0.24769 0.30343 0.0
H316 H 0.56638 0.12547 0.54839 0.0
H317 H 0.47958 0.10891 0.636 0.0
C318 C 0.50555 0.53467 0.51865 0.0
C319 C 0.51048 0.55818 0.55727 0.0
C320 C 0.48561 0.57472 0.55361 0.0
C321 C 0.46635 0.56006 0.5152 0.0
N322 N 0.47731 0.53522 0.49539 0.0
Co323 Co 0.45504 0.50632 0.44591 0.0
N324 N 0.42388 0.53365 0.41693 0.0
C325 C 0.41933 0.55902 0.44444 0.0
C326 C 0.39434 0.57225 0.42147 0.0
C327 C 0.38205 0.55392 0.37742 0.0
C328 C 0.40023 0.53038 0.37616 0.0
N329 N 0.43439 0.47724 0.39389 0.0
C330 C 0.41219 0.47963 0.3482 0.0
C331 C 0.4044 0.45341 0.3254 0.0
C332 C 0.4213 0.43403 0.36014 0.0
C333 C 0.43873 0.44937 0.40155 0.0
N334 N 0.48473 0.479 0.48079 0.0
C335 C 0.47981 0.45144 0.48928 0.0
C336 C 0.49975 0.43839 0.53144 0.0
C337 C 0.51863 0.45916 0.54968 0.0
C338 C 0.51012 0.48344 0.51465 0.0
N339 N 0.42952 0.49827 0.52857 0.0
C340 C 0.38793 0.49848 0.63908 0.0
C341 C 0.37994 0.49113 0.57334 0.0
C342 C 0.40068 0.49124 0.5196 0.0
C343 C 0.41796 0.50325 0.65004 0.0
C344 C 0.43844 0.5029 0.5941 0.0
N345 N 0.47968 0.51538 0.36274 0.0
C346 C 0.52847 0.52974 0.32674 0.0
C347 C 0.51621 0.55176 0.28844 0.0
C348 C 0.48616 0.55148 0.27609 0.0
C349 C 0.46837 0.53251 0.3124 0.0
C350 C 0.50953 0.51068 0.36073 0.0
H351 H 0.44542 0.53342 0.30211 0.0
H352 H 0.51932 0.49325 0.38758 0.0
H353 H 0.39237 0.48699 0.47021 0.0
H354 H 0.46118 0.5075 0.60361 0.0
C355 C 0.43926 0.56975 0.49076 0.0
C356 C 0.52636 0.51045 0.51212 0.0
C357 C 0.39427 0.50527 0.33597 0.0
C358 C 0.45861 0.43857 0.44981 0.0
H359 H 0.52955 0.56261 0.58702 0.0
H360 H 0.48212 0.59507 0.57603 0.0
H361 H 0.38591 0.5927 0.4354 0.0
H362 H 0.36179 0.55728 0.35021 0.0
H363 H 0.38698 0.44862 0.29079 0.0
H364 H 0.42027 0.41142 0.35715 0.0
H365 H 0.50101 0.41634 0.54569 0.0
H366 H 0.53732 0.45637 0.58214 0.0
H367 H 0.35729 0.48622 0.56264 0.0
H368 H 0.42536 0.50836 0.7006 0.0
H369 H 0.55206 0.52806 0.33302 0.0
H370 H 0.4762 0.56712 0.24247 0.0
C371 C 0.06616 0.39467 0.38967 0.0
C372 C 0.09441 0.40427 0.37515 0.0
C373 C 0.11259 0.39034 0.41952 0.0
C374 C 0.09451 0.37327 0.45898 0.0
N375 N 0.06597 0.37495 0.44109 0.0
Co376 Co 0.03158 0.35725 0.49145 0.0
N377 N 0.05676 0.34248 0.5672 0.0
C378 C 0.08558 0.34785 0.57481 0.0
C379 C 0.09551 0.34046 0.63861 0.0
C380 C 0.07182 0.32864 0.67254 0.0
C381 C 0.04917 0.32802 0.62605 0.0
N382 N 0.99733 0.3389 0.54231 0.0
C383 C 0.99732 0.31811 0.59218 0.0
C384 C 0.9698 0.30562 0.59798 0.0
C385 C 0.95164 0.31996 0.5549 0.0
C386 C 0.96898 0.33959 0.52221 0.0
N387 N 1.00601 0.37206 0.41683 0.0
C388 C 0.97686 0.3681 0.41082 0.0
C389 C 0.96525 0.38115 0.3541 0.0
C390 C 0.98831 0.39514 0.32345 0.0
C391 C 1.01253 0.39006 0.36425 0.0
N392 N 0.03842 0.32185 0.43823 0.0
C393 C 0.04861 0.27943 0.33873 0.0
C394 C 0.02015 0.28857 0.35683 0.0
C395 C 0.0156 0.3092 0.40637 0.0
C396 C 0.07181 0.29063 0.37551 0.0
C397 C 0.06625 0.31141 0.425 0.0
N398 N 0.02527 0.394 0.53999 0.0
C399 C 0.9956 0.43671 0.55083 0.0
C400 C 0.02075 0.45318 0.5587 0.0
C401 C 0.04753 0.43891 0.56508 0.0
C402 C 0.0491 0.40962 0.55791 0.0
C403 C 0.99833 0.4074 0.54122 0.0
H404 H 0.07036 0.4004 0.56304 0.0
H405 H 0.97864 0.39615 0.53112 0.0
H406 H 0.99331 0.31506 0.41654 0.0
H407 H 0.08486 0.31933 0.45072 0.0
C408 C 0.10226 0.36087 0.52195 0.0
C409 C 0.03966 0.40613 0.35796 0.0
C410 C 0.02278 0.31011 0.63538 0.0
C411 C 0.96088 0.3536 0.46181 0.0
H412 H 0.10112 0.42069 0.33914 0.0
H413 H 0.13579 0.39411 0.42623 0.0
H414 H 0.11737 0.3432 0.65809 0.0
H415 H 0.07185 0.31975 0.72413 0.0
H416 H 0.96331 0.28692 0.62621 0.0
H417 H 0.92916 0.31471 0.54358 0.0
H418 H 0.94252 0.38155 0.33872 0.0
H419 H 0.98703 0.40903 0.27887 0.0
H420 H 1.00123 0.2801 0.33195 0.0
H421 H 0.09434 0.28427 0.36443 0.0
H422 H 0.97412 0.44664 0.54773 0.0
H423 H 0.06746 0.45043 0.574 0.0
C424 C 0.3509 0.04919 0.04782 0.0
C425 C 0.36269 0.07467 0.06511 0.0
C426 C 0.34075 0.09444 0.05655 0.0
C427 C 0.31677 0.07998 0.03472 0.0
N428 N 0.32225 0.05234 0.03001 0.0
Co429 Co 0.29477 0.02416 0.99502 0.0
N430 N 0.2714 0.0531 0.94489 0.0
C431 C 0.27199 0.08082 0.95654 0.0
C432 C 0.25288 0.09597 0.91633 0.0
C433 C 0.23909 0.07653 0.87775 0.0
C434 C 0.25055 0.05044 0.89659 0.0
N435 N 0.26722 0.99569 0.9617 0.0
C436 C 0.24601 0.99777 0.91374 0.0
C437 C 0.23081 0.97274 0.91034 0.0
C438 C 0.24259 0.95471 0.95856 0.0
C439 C 0.26432 0.96959 0.98879 0.0
N440 N 0.31946 0.99575 0.0437 0.0
C441 C 0.31144 0.96934 0.06005 0.0
C442 C 0.33457 0.95342 0.08407 0.0
C443 C 0.35855 0.97089 0.08214 0.0
C444 C 0.34876 0.99679 0.05776 0.0
N445 N 0.26854 0.02813 0.07678 0.0
C446 C 0.22821 0.02485 0.18933 0.0
C447 C 0.25881 0.02313 0.19913 0.0
C448 C 0.2786 0.02503 0.14221 0.0
C449 C 0.21865 0.02961 0.12243 0.0
C450 C 0.23886 0.03106 0.0676 0.0
N451 N 0.32023 0.01933 0.91427 0.0
C452 C 0.3539 0.98688 0.86226 0.0
C453 C 0.37366 1.00869 0.84825 0.0
C454 C 0.36334 0.03641 0.85446 0.0
C455 C 0.33617 0.04129 0.8875 0.0
C456 C 0.32715 0.99267 0.89501 0.0
H457 H 0.32988 0.06261 0.89873 0.0
H458 H 0.31408 0.97509 0.91226 0.0
H459 H 0.30194 0.02302 0.15084 0.0
H460 H 0.22996 0.03344 0.01736 0.0
C461 C 0.29268 0.09193 1.00067 0.0
C462 C 0.36722 0.02231 0.0492 0.0
C463 C 0.23794 0.02366 0.87535 0.0
C464 C 0.28506 0.95876 0.03513 0.0
H465 H 0.38499 0.07859 0.08037 0.0
H466 H 0.34286 0.11694 0.06044 0.0
H467 H 0.24947 0.11847 0.91487 0.0
H468 H 0.2218 0.08097 0.84175 0.0
H469 H 0.21276 0.96816 0.8773 0.0
H470 H 0.23645 0.93314 0.96914 0.0
H471 H 0.33467 0.93115 0.09611 0.0
H472 H 0.38075 0.96482 0.09499 0.0
H473 H 0.2674 0.01938 0.24985 0.0
H474 H 0.19541 0.03172 0.11196 0.0
H475 H 0.36018 0.96521 0.85416 0.0
H476 H 0.37731 0.05416 0.84215 0.0
C477 C 0.47396 0.47125 0.95478 0.0
C478 C 0.44826 0.48682 0.94574 0.0
C479 C 0.42681 0.46833 0.92879 0.0
C480 C 0.44041 0.44251 0.92719 0.0
N481 N 0.46908 0.44364 0.9425 0.0
Co482 Co 0.4976 0.41182 0.93571 0.0
N483 N 0.47195 0.3903 0.87498 0.0
C484 C 0.44302 0.39517 0.86684 0.0
C485 C 0.4305 0.37689 0.82293 0.0
C486 C 0.4529 0.35917 0.80274 0.0
C487 C 0.47803 0.36768 0.83534 0.0
N488 N 0.52614 0.37996 0.93018 0.0
C489 C 0.52756 0.35766 0.88764 0.0
C490 C 0.5509 0.34004 0.90473 0.0
C491 C 0.56387 0.35131 0.96062 0.0
C492 C 0.54802 0.37527 0.97457 0.0
N493 N 0.52333 0.43402 0.9944 0.0
C494 C 0.54552 0.42355 0.03174 0.0
C495 C 0.56004 0.44407 0.06564 0.0
C496 C 0.54611 0.46891 0.04806 0.0
C497 C 0.52391 0.46225 1.00387 0.0
N498 N 0.47976 0.39302 0.01812 0.0
C499 C 0.47228 0.3608 0.14034 0.0
C500 C 0.47457 0.39014 0.14212 0.0
C501 C 0.47798 0.40593 0.08026 0.0
C502 C 0.47031 0.34861 0.07604 0.0
C503 C 0.47418 0.36488 0.01613 0.0
N504 N 0.51625 0.42983 0.85539 0.0
C505 C 0.56125 0.44496 0.80079 0.0
C506 C 0.54566 0.45967 0.75057 0.0
C507 C 0.51486 0.45886 0.75251 0.0
C508 C 0.50046 0.44341 0.80541 0.0
C509 C 0.54626 0.43029 0.85235 0.0
H510 H 0.47672 0.44294 0.80687 0.0
H511 H 0.55916 0.42007 0.8912 0.0
H512 H 0.4812 0.42829 0.08305 0.0
H513 H 0.47495 0.35395 0.96854 0.0
C514 C 0.42951 0.41916 0.89398 0.0
C515 C 0.50263 0.48288 0.97506 0.0
C516 C 0.50601 0.35155 0.83429 0.0
C517 C 0.55544 0.39585 0.02179 0.0
H518 H 0.4452 0.50925 0.94808 0.0
H519 H 0.40463 0.47355 0.9135 0.0
H520 H 0.40792 0.37674 0.80649 0.0
H521 H 0.45076 0.34156 0.76925 0.0
H522 H 0.55771 0.3209 0.87997 0.0
H523 H 0.5831 0.34336 0.98669 0.0
H524 H 0.57939 0.44154 0.09653 0.0
H525 H 0.55175 0.48955 0.06528 0.0
H526 H 0.4755 0.40061 0.19072 0.0
H527 H 0.46747 0.32618 0.07191 0.0
H528 H 0.5851 0.44542 0.80136 0.0
H529 H 0.50219 0.47006 0.71409 0.0
C530 C 0.16927 0.48621 1.00311 0.0
C531 C 0.15408 0.46176 0.01879 0.0
C532 C 0.1742 0.44011 0.0134 0.0
C533 C 0.20061 0.45244 0.99499 0.0
N534 N 0.19832 0.48053 0.98997 0.0
Co535 Co 0.22998 0.50635 0.95732 0.0
N536 N 0.25157 0.4763 0.90785 0.0
C537 C 0.24738 0.44861 0.9183 0.0
C538 C 0.26536 0.43257 0.87698 0.0
C539 C 0.28221 0.45136 0.8391 0.0
C540 C 0.27374 0.47798 0.85978 0.0
N541 N 0.26149 0.53253 0.92684 0.0
C542 C 0.28387 0.52937 0.88019 0.0
C543 C 0.30226 0.55248 0.87974 0.0
C544 C 0.29097 0.57046 0.92802 0.0
C545 C 0.26646 0.55738 0.95562 0.0
N546 N 0.20646 0.53602 1.00405 0.0
C547 C 0.21657 0.56124 0.0212 0.0
C548 C 0.19411 0.57927 0.03991 0.0
C549 C 0.16844 0.56454 0.03336 0.0
C550 C 0.17645 0.53793 0.01208 0.0
N551 N 0.25378 0.49848 0.04057 0.0
C552 C 0.29457 0.49945 0.14887 0.0
C553 C 0.26435 0.50523 0.16085 0.0
C554 C 0.24429 0.50452 0.10603 0.0
C555 C 0.30311 0.49139 0.08299 0.0
C556 C 0.28286 0.49115 0.03056 0.0
N557 N 0.20809 0.51513 0.87469 0.0
C558 C 0.18248 0.55194 0.8154 0.0
C559 C 0.16051 0.53307 0.79944 0.0
C560 C 0.16631 0.50427 0.80775 0.0
C561 C 0.19065 0.49564 0.84583 0.0
C562 C 0.20612 0.54255 0.85333 0.0
H563 H 0.1933 0.47362 0.85846 0.0
H564 H 0.22043 0.55822 0.87238 0.0
H565 H 0.22149 0.5101 0.116 0.0
H566 H 0.2919 0.48674 0.98079 0.0
C567 C 0.22427 0.4388 0.96157 0.0
C568 C 0.15561 0.51451 1.00037 0.0
C569 C 0.28976 0.50392 0.84029 0.0
C570 C 0.24511 0.56941 0.99986 0.0
H571 H 0.13075 0.45975 0.03019 0.0
H572 H 0.16944 0.41791 0.01613 0.0
H573 H 0.26592 0.40993 0.87394 0.0
H574 H 0.29933 0.44596 0.80203 0.0
H575 H 0.32201 0.55582 0.84852 0.0
H576 H 0.29925 0.59092 0.94016 0.0
H577 H 0.19589 0.60135 0.05059 0.0
H578 H 0.1465 0.57307 0.04041 0.0
H579 H 0.25647 0.51146 0.21114 0.0
H580 H 0.3259 0.48617 0.07092 0.0
H581 H 0.17959 0.5743 0.80625 0.0
H582 H 0.1505 0.48882 0.79301 0.0
C583 C 0.05285 0.08773 0.95042 0.0
C584 C 0.0775 0.07142 0.9356 0.0
C585 C 0.09707 0.08849 0.90063 0.0
C586 C 0.08328 0.11411 0.89515 0.0
N587 N 0.05653 0.11446 0.92644 0.0
Co588 Co 0.02824 0.1466 0.92601 0.0
N589 N 0.04865 0.1652 0.84636 0.0
C590 C 0.0728 0.15528 0.81339 0.0
C591 C 0.0749 0.16446 0.74624 0.0
C592 C 0.05116 0.18198 0.73733 0.0
C593 C 0.03701 0.18397 0.80103 0.0
N594 N 1.00098 0.17978 0.9276 0.0
C595 C 1.00085 0.20383 0.88747 0.0
C596 C 0.98413 0.22451 0.91968 0.0
C597 C 0.97297 0.21294 0.97991 0.0
C598 C 0.9839 0.18605 0.98284 0.0
N599 N 1.00693 0.12628 1.00183 0.0
C600 C 0.98716 0.13766 0.04541 0.0
C601 C 0.97377 0.11771 0.08753 0.0
C602 C 0.98586 0.09229 0.06844 0.0
C603 C 1.00597 0.09809 0.01561 0.0
N604 N 0.05229 0.16666 0.9931 0.0
C605 C 0.06172 0.20193 0.1056 0.0
C606 C 0.05992 0.17262 0.11462 0.0
C607 C 0.05586 0.15539 0.05776 0.0
C608 C 0.06248 0.21248 0.03763 0.0
C609 C 0.05828 0.19456 0.98242 0.0
N610 N 1.00271 0.12697 0.86328 0.0
C611 C 0.95393 0.1091 0.8495 0.0
C612 C 0.96495 0.08805 0.80733 0.0
C613 C 0.99487 0.08848 0.7878 0.0
C614 C 0.01349 0.10819 0.8166 0.0
C615 C 0.97299 0.12842 0.87616 0.0
H616 H 0.0367 0.10712 0.80408 0.0
H617 H 0.96365 0.14311 0.91165 0.0
H618 H 0.05293 0.13317 0.0673 0.0
H619 H 0.05725 0.20395 0.93176 0.0
C620 C 0.08937 0.13336 0.84187 0.0
C621 C 0.02549 0.07698 0.98254 0.0
C622 C 0.01826 0.20807 0.82189 0.0
C623 C 0.97839 0.16585 0.03565 0.0
H624 H 0.08036 0.04917 0.94485 0.0
H625 H 0.11734 0.08214 0.87492 0.0
H626 H 0.09108 0.15834 0.7076 0.0
H627 H 0.04632 0.19378 0.69078 0.0
H628 H 0.98125 0.24619 0.90398 0.0
H629 H 0.95922 0.22324 0.01801 0.0
H630 H 0.95627 0.12102 0.12523 0.0
H631 H 0.98051 0.07188 0.09053 0.0
H632 H 0.05952 0.16308 0.16554 0.0
H633 H 0.06489 0.23475 0.02716 0.0
H634 H 0.93073 0.1101 0.86365 0.0
H635 H 1.00399 0.07292 0.75347 0.0
C636 C 0.85146 0.98611 0.49954 0.0
C637 C 0.86436 0.96143 0.47704 0.0
C638 C 0.84289 0.9413 0.48237 0.0
C639 C 0.81813 0.95483 0.50758 0.0
N640 N 0.8227 0.98219 0.51735 0.0
Co641 Co 0.79402 1.00905 0.55794 0.0
N642 N 0.77155 0.97857 0.6056 0.0
C643 C 0.77273 0.9514 0.58794 0.0
C644 C 0.75301 0.93503 0.62456 0.0
C645 C 0.73816 0.95303 0.66716 0.0
C646 C 0.74981 0.97961 0.6547 0.0
N647 N 0.76522 0.03615 0.59732 0.0
C648 C 0.74504 0.0329 0.64955 0.0
C649 C 0.73132 0.05842 0.66305 0.0
C650 C 0.74188 0.07752 0.61484 0.0
C651 C 0.76203 0.063 0.57545 0.0
N652 N 0.81795 0.03871 0.511 0.0
C653 C 0.80917 0.06528 0.49859 0.0
C654 C 0.83225 0.08207 0.47716 0.0
C655 C 0.85692 0.06502 0.47699 0.0
C656 C 0.84763 0.03845 0.49742 0.0
N657 N 0.76797 1.00655 0.47777 0.0
C658 C 0.7271 1.01353 0.37097 0.0
C659 C 0.75769 1.01448 0.35713 0.0
C660 C 0.77778 1.01105 0.41136 0.0
C661 C 0.71782 1.00728 0.43832 0.0
C662 C 0.73825 1.00387 0.49013 0.0
N663 N 0.81902 1.01308 0.63775 0.0
C664 C 0.8474 0.04607 0.69889 0.0
C665 C 0.86737 0.02505 0.71667 0.0
C666 C 0.86043 0.99711 0.70354 0.0
C667 C 0.83593 0.99151 0.66325 0.0
C668 C 0.8233 0.03965 0.66039 0.0
H669 H 0.83213 0.97022 0.64808 0.0
H670 H 0.81013 0.05705 0.64322 0.0
H671 H 0.80109 1.01301 0.40006 0.0
H672 H 0.72941 1.00043 0.54104 0.0
C673 C 0.79399 0.94174 0.54036 0.0
C674 C 0.86683 1.01299 0.50355 0.0
C675 C 0.73651 1.00561 0.68224 0.0
C676 C 0.78248 0.075 0.52805 0.0
H677 H 0.88705 0.95821 0.46058 0.0
H678 H 0.84575 0.91905 0.47427 0.0
H679 H 0.74963 0.91269 0.62046 0.0
H680 H 0.71987 0.94726 0.70096 0.0
H681 H 0.7152 0.06288 0.70318 0.0
H682 H 0.7365 0.09966 0.6112 0.0
H683 H 0.83182 0.10462 0.46933 0.0
H684 H 0.87917 0.07189 0.46621 0.0
H685 H 0.76598 0.01882 0.30546 0.0
H686 H 0.69458 1.00553 0.45151 0.0
H687 H 0.85166 0.06782 0.70998 0.0
H688 H 0.87515 0.98018 0.71859 0.0
C689 C 0.56295 0.9706 0.59903 0.0
C690 C 0.58613 0.98446 0.62799 0.0
C691 C 0.60707 0.96476 0.64376 0.0
C692 C 0.59498 0.93951 0.62842 0.0
N693 N 0.56762 0.9423 0.60351 0.0
Co694 Co 0.53772 0.91203 0.60308 0.0
N695 N 0.55994 0.88788 0.66873 0.0
C696 C 0.58868 0.89043 0.68191 0.0
C697 C 0.59875 0.87052 0.7277 0.0
C698 C 0.57491 0.85412 0.7439 0.0
C699 C 0.55145 0.86506 0.70707 0.0
N700 N 0.50799 0.88177 0.60211 0.0
C701 C 0.50396 0.85892 0.64456 0.0
C702 C 0.48092 0.84286 0.62226 0.0
C703 C 0.47077 0.85583 0.56341 0.0
C704 C 0.48799 0.87917 0.55286 0.0
N705 N 0.51556 0.93718 0.53987 0.0
C706 C 0.49458 0.92879 0.49772 0.0
C707 C 0.4826 0.95088 0.4609 0.0
C708 C 0.49684 0.97451 0.48189 0.0
C709 C 0.51668 0.96571 0.53108 0.0
N710 N 0.55751 0.89334 0.52365 0.0
C711 C 0.56139 0.86088 0.40338 0.0
C712 C 0.5608 0.89045 0.39941 0.0
C713 C 0.55948 0.90626 0.46005 0.0
C714 C 0.56365 0.84848 0.46893 0.0
C715 C 0.56179 0.86483 0.52763 0.0
N716 N 0.51627 0.92961 0.67919 0.0
C717 C 0.46946 0.94761 0.71749 0.0
C718 C 0.48286 0.96302 0.76745 0.0
C719 C 0.51328 0.96014 0.77624 0.0
C720 C 0.52972 0.94286 0.73149 0.0
C721 C 0.48636 0.93121 0.67427 0.0
H722 H 0.55324 0.94117 0.73723 0.0
H723 H 0.47504 0.92118 0.63413 0.0
H724 H 0.55748 0.9288 0.4551 0.0
H725 H 0.5609 0.85365 0.57606 0.0
C726 C 0.60385 0.9144 0.66017 0.0
C727 C 0.53713 0.98464 0.56652 0.0
C728 C 0.52286 0.851 0.70302 0.0
C729 C 0.48328 0.90133 0.50473 0.0
H730 H 0.58724 1.00626 0.64103 0.0
H731 H 0.62692 0.96816 0.67191 0.0
H732 H 0.62058 0.86862 0.74847 0.0
H733 H 0.57503 0.8358 0.77772 0.0
H734 H 0.47252 0.82365 0.64565 0.0
H735 H 0.45243 0.84943 0.53325 0.0
H736 H 0.46463 0.95018 0.42556 0.0
H737 H 0.49286 0.99578 0.46358 0.0
H738 H 0.5594 0.90134 0.35026 0.0
H739 H 0.56518 0.82589 0.47534 0.0
H740 H 0.4459 0.9491 0.71007 0.0
H741 H 0.52418 0.97153 0.81563 0.0
C742 C 0.67112 0.55308 0.44179 0.0
C743 C 0.65813 0.57576 0.4081 0.0
C744 C 0.67663 0.59822 0.41504 0.0
C745 C 0.70039 0.58789 0.45043 0.0
N746 N 0.69809 0.56034 0.46455 0.0
Co747 Co 0.72776 0.537 0.51312 0.0
N748 N 0.74534 0.56959 0.55769 0.0
C749 C 0.73958 0.59661 0.54093 0.0
C750 C 0.75205 0.61485 0.585 0.0
C751 C 0.76713 0.59826 0.63109 0.0
C752 C 0.76399 0.57067 0.61135 0.0
N753 N 0.75773 0.51293 0.5587 0.0
C754 C 0.77796 0.51888 0.60666 0.0
C755 C 0.79771 0.49656 0.61398 0.0
C756 C 0.78981 0.47646 0.56892 0.0
C757 C 0.76582 0.48738 0.53603 0.0
N758 N 0.70905 0.50474 0.4703 0.0
C759 C 0.72335 0.48121 0.45283 0.0
C760 C 0.70716 0.465 0.41069 0.0
C761 C 0.68086 0.47929 0.40286 0.0
C762 C 0.68154 0.50251 0.44461 0.0
N763 N 0.75579 0.54134 0.434 0.0
C764 C 0.79877 0.53815 0.32672 0.0
C765 C 0.7688 0.53355 0.31465 0.0
C766 C 0.74769 0.5356 0.36858 0.0
C767 C 0.80624 0.54585 0.39295 0.0
C768 C 0.78467 0.54738 0.44524 0.0
N769 N 0.70015 0.53227 0.59053 0.0
C770 C 0.66983 0.49815 0.64845 0.0
C771 C 0.64534 0.51639 0.6442 0.0
C772 C 0.65079 0.54451 0.62531 0.0
C773 C 0.67897 0.55227 0.60216 0.0
C774 C 0.69681 0.5062 0.61958 0.0
H775 H 0.68223 0.57364 0.58445 0.0
H776 H 0.71368 0.49033 0.61391 0.0
H777 H 0.72496 0.53143 0.3579 0.0
H778 H 0.79185 0.55252 0.49548 0.0
C779 C 0.71999 0.60377 0.48812 0.0
C780 C 0.65816 0.52464 0.45121 0.0
C781 C 0.78194 0.54663 0.63814 0.0
C782 C 0.75001 0.47423 0.48442 0.0
H783 H 0.63707 0.5763 0.38334 0.0
H784 H 0.67212 0.61986 0.4006 0.0
H785 H 0.74996 0.63748 0.58467 0.0
H786 H 0.77971 0.6058 0.67318 0.0
H787 H 0.81694 0.49538 0.6455 0.0
H788 H 0.80076 0.45657 0.56002 0.0
H789 H 0.7136 0.44526 0.38822 0.0
H790 H 0.66376 0.47366 0.36825 0.0
H791 H 0.76171 0.52742 0.26462 0.0
H792 H 0.82885 0.55033 0.40488 0.0
H793 H 0.66775 0.47685 0.6683 0.0
H794 H 0.63348 0.56007 0.6221 0.0
C795 C 0.97803 0.58672 0.56349 0.0
C796 C 0.95374 0.56939 0.5653 0.0
C797 C 0.93118 0.5844 0.59472 0.0
C798 C 0.9426 0.61036 0.60753 0.0
N799 N 0.97089 0.61254 0.58688 0.0
Co800 Co 0.99545 0.64651 0.59287 0.0
N801 N 0.96914 0.66355 0.66376 0.0
C802 C 0.94376 0.6522 0.6878 0.0
C803 C 0.93615 0.66107 0.75232 0.0
C804 C 0.95757 0.67967 0.76874 0.0
C805 C 0.97612 0.68274 0.71145 0.0
N806 N 0.01929 0.68125 0.59561 0.0
C807 C 0.01625 0.70436 0.63554 0.0
C808 C 0.03205 0.72657 0.6058 0.0
C809 C 0.04627 0.7167 0.54818 0.0
C810 C 0.03783 0.68931 0.54394 0.0
N811 N 0.02269 0.62792 0.52608 0.0
C812 C 0.04346 0.64099 0.48752 0.0
C813 C 0.06186 0.62238 0.45431 0.0
C814 C 0.05195 0.59602 0.47346 0.0
C815 C 0.02765 0.59987 0.51685 0.0
N816 N 0.97343 0.66487 0.51733 0.0
C817 C 0.9617 0.69884 0.40019 0.0
C818 C 0.96822 0.67009 0.39433 0.0
C819 C 0.97351 0.65341 0.45349 0.0
C820 C 0.95789 0.70916 0.4667 0.0
C821 C 0.96356 0.69192 0.5242 0.0
N822 N 0.01841 0.62881 0.66548 0.0
C823 C 0.06692 0.61517 0.69902 0.0
C824 C 0.05528 0.59327 0.73921 0.0
C825 C 0.02478 0.59108 0.74816 0.0
C826 C 1.00653 0.60939 0.71082 0.0
C827 C 0.04817 0.63274 0.66287 0.0
H828 H 0.98305 0.60658 0.71526 0.0
H829 H 0.05819 0.64789 0.62821 0.0
H830 H 0.97993 0.63176 0.4469 0.0
H831 H 0.96232 0.70139 0.57382 0.0
C832 C 0.93143 0.62911 0.65605 0.0
C833 C 1.00803 0.57729 0.54522 0.0
C834 C 0.99728 0.7063 0.6991 0.0
C835 C 0.04829 0.66982 0.49559 0.0
H836 H 0.95295 0.54758 0.55134 0.0
H837 H 0.91015 0.57592 0.61066 0.0
H838 H 0.91834 0.6535 0.78546 0.0
H839 H 0.95907 0.68996 0.81737 0.0
H840 H 0.0327 0.74805 0.62211 0.0
H841 H 0.0608 0.72826 0.51323 0.0
H842 H 0.08131 0.62726 0.42328 0.0
H843 H 0.06199 0.57652 0.45785 0.0
H844 H 0.97128 0.66087 0.3444 0.0
H845 H 0.95207 0.73097 0.47435 0.0
H846 H 0.09052 0.61757 0.69208 0.0
H847 H 0.01528 0.57465 0.78075 0.0
C848 C 0.47052 0.11119 0.33658 0.0
C849 C 0.49191 0.1208 0.38143 0.0
C850 C 0.47538 0.087 0.29801 0.0
C851 C 0.50208 0.07201 0.30169 0.0
H852 H 0.451 0.12362 0.3265 0.0
H853 H 0.45939 0.08153 0.26033 0.0
S854 S 0.56732 0.09162 0.39779 0.0
N855 N 0.54184 0.11457 0.42093 0.0
N856 N 0.55108 0.0699 0.3467 0.0
C857 C 0.52346 0.08113 0.34622 0.0
C858 C 0.51845 0.10546 0.38599 0.0
C859 C 0.52839 0.60144 0.30418 0.0
C860 C 0.53289 0.57682 0.26691 0.0
C861 C 0.53441 0.62779 0.27414 0.0
C862 C 0.54407 0.63019 0.20528 0.0
H863 H 0.51787 0.60043 0.35469 0.0
H864 H 0.52888 0.64642 0.3027 0.0
S865 S 0.56784 0.57147 0.09477 0.0
N866 N 0.55383 0.55594 0.16457 0.0
N867 N 0.56481 0.60557 0.10715 0.0
C868 C 0.5524 0.60556 0.17114 0.0
C869 C 0.54663 0.57874 0.20213 0.0
C870 C 0.04817 0.4616 0.21685 0.0
C871 C 0.02515 0.48046 0.23332 0.0
C872 C 0.05472 0.43866 0.26038 0.0
C873 C 0.03879 0.43416 0.3223 0.0
H874 H 0.05912 0.46301 0.16687 0.0
H875 H 0.07043 0.4231 0.24242 0.0
S876 S 0.97738 0.47833 0.3896 0.0
N877 N 0.98753 0.49401 0.31659 0.0
N878 N 1.00008 0.45133 0.39906 0.0
C879 C 0.01741 0.45426 0.34166 0.0
C880 C 1.01064 0.47743 0.29717 0.0
C881 C 0.99658 0.95093 0.16316 0.0
C882 C 0.98096 0.92739 0.18835 0.0
C883 C 1.00411 0.97257 0.20686 0.0
C884 C 0.99633 0.97106 0.27692 0.0
H885 H 1.0052 0.95129 0.11096 0.0
H886 H 0.0186 0.98894 0.18754 0.0
S887 S 0.94984 0.91692 0.36411 0.0
N888 N 0.95401 0.906 0.2846 0.0
N889 N 0.96747 0.947 0.3665 0.0
C890 C 0.97737 0.9495 0.30029 0.0
C891 C 0.96998 0.9274 0.25607 0.0
C892 C 0.41829 0.97981 0.87623 0.0
C893 C 0.40541 1.00179 0.83704 0.0
C894 C 0.4468 0.97 0.86125 0.0
C895 C 0.46349 0.98193 0.80691 0.0
H896 H 0.40576 0.9692 0.91693 0.0
H897 H 0.45455 0.95115 0.8875 0.0
S898 S 0.44282 0.04355 0.69901 0.0
N899 N 0.41352 0.03784 0.74879 0.0
N900 N 0.46751 0.01969 0.72197 0.0
C901 C 0.45246 1.00609 0.77349 0.0
C902 C 0.42324 1.0159 0.78797 0.0
C903 C 0.61045 0.47629 0.63962 0.0
C904 C 0.61498 0.50472 0.65475 0.0
C905 C 0.58528 0.46223 0.66274 0.0
C906 C 0.56301 0.47623 0.69964 0.0
H907 H 0.62721 0.46409 0.61309 0.0
H908 H 0.58438 0.4397 0.65704 0.0
S909 S 0.557 0.55274 0.72447 0.0
N910 N 0.59041 0.54801 0.69116 0.0
N911 N 0.54221 0.52126 0.73102 0.0
C912 C 0.56438 0.50547 0.70358 0.0
C913 C 0.59059 0.51989 0.68181 0.0
C914 C 0.09297 0.579 0.8216 0.0
C915 C 0.07597 0.57214 0.76573 0.0
C916 C 0.11952 0.56505 0.83363 0.0
C917 C 0.13035 0.54417 0.78919 0.0
H918 H 0.08685 0.59666 0.85303 0.0
H919 H 0.13229 0.57151 0.87667 0.0
S920 S 0.09217 0.51694 0.63925 0.0
N921 N 0.07007 0.54184 0.66881 0.0
N922 N 0.12045 0.51553 0.69102 0.0
C923 C 0.11244 0.5357 0.73606 0.0
C924 C 0.08514 0.54983 0.72425 0.0
C925 C 0.93894 0.06421 0.71417 0.0
C926 C 0.94459 0.06627 0.78423 0.0
C927 C 0.91501 0.04871 0.69229 0.0
C928 C 0.89658 0.03388 0.73942 0.0
H929 H 0.95154 0.07651 0.67666 0.0
H930 H 0.9096 0.05002 0.63853 0.0
S931 S 0.90376 0.03039 0.92791 0.0
N932 N 0.93083 0.051 0.90058 0.0
N933 N 0.88672 0.02075 0.85848 0.0
C934 C 0.90326 0.03413 0.80905 0.0
C935 C 0.92712 0.05055 0.83168 0.0
C936 C 0.69055 0.98397 0.84162 0.0
C937 C 0.66224 0.99563 0.83036 0.0
C938 C 0.71425 0.98819 0.79491 0.0
C939 C 0.71077 1.00314 0.73262 0.0
H940 H 0.69476 0.97144 0.88738 0.0
H941 H 0.73554 0.97923 0.80724 0.0
S942 S 0.6414 0.03642 0.67387 0.0
N943 N 0.63274 0.02342 0.75082 0.0
N944 N 0.67605 0.02743 0.65879 0.0
C945 C 0.68237 1.01361 0.71839 0.0
C946 C 0.65849 1.01069 0.76785 0.0
C947 C 0.51354 0.82678 0.8183 0.0
C948 C 0.51806 0.82476 0.74672 0.0
C949 C 0.51464 0.80287 0.86247 0.0
C950 C 0.52065 0.77591 0.83712 0.0
H951 H 0.51018 0.8472 0.84059 0.0
H952 H 0.51162 0.8056 0.91721 0.0
S953 S 0.5335 0.75895 0.65403 0.0
N954 N 0.52855 0.79334 0.65287 0.0
N955 N 0.52988 0.74857 0.73525 0.0
C956 C 0.52434 0.7735 0.76555 0.0
C957 C 0.52329 0.79782 0.72063 0.0
C958 C 0.83511 0.5352 0.78792 0.0
C959 C 0.8578 0.55485 0.77511 0.0
C960 C 0.81063 0.5334 0.74495 0.0
C961 C 0.80769 0.55072 0.68577 0.0
H962 H 0.83626 0.52099 0.83198 0.0
H963 H 0.79394 0.51794 0.75774 0.0
S964 S 0.85886 0.60809 0.63326 0.0
N965 N 0.87337 0.59455 0.70375 0.0
N966 N 0.82989 0.58882 0.618 0.0
C967 C 0.8302 0.57057 0.67248 0.0
C968 C 0.85455 0.57316 0.71805 0.0
C969 C 0.02543 0.7713 0.79492 0.0
C970 C 1.00099 0.78132 0.83395 0.0
C971 C 0.02442 0.74637 0.75691 0.0
C972 C 0.99773 0.73249 0.74455 0.0
H973 H 0.04565 0.78297 0.79149 0.0
H974 H 0.04493 0.73854 0.73513 0.0
S975 S 0.92502 0.75394 0.82019 0.0
N976 N 0.9489 0.77345 0.85923 0.0
N977 N 0.94454 0.73595 0.76366 0.0
C978 C 0.97228 0.74449 0.77628 0.0
C979 C 0.9744 0.76654 0.82554 0.0
C980 C 0.19066 0.02749 0.71542 0.0
C981 C 0.16122 0.02926 0.74152 0.0
C982 C 0.21509 0.02541 0.7585 0.0
C983 C 0.21152 0.02418 0.83009 0.0
H984 H 0.19522 0.02754 0.66071 0.0
H985 H 0.23703 0.0248 0.73547 0.0
S986 S 0.14061 0.02465 0.9278 0.0
N987 N 0.13091 0.02777 0.84682 0.0
N988 N 0.17689 0.02295 0.92629 0.0
C989 C 0.18265 0.02465 0.85762 0.0
C990 C 0.15759 0.02721 0.81394 0.0
C991 C 0.50837 0.27423 0.77882 0.0
C992 C 0.5097 0.2762 0.70643 0.0
C993 C 0.50785 0.2984 0.8198 0.0
C994 C 0.50898 0.32574 0.79037 0.0
H995 H 0.50709 0.25377 0.804 0.0
H996 H 0.50595 0.29569 0.87503 0.0
S997 S 0.51303 0.34288 0.60389 0.0
N998 N 0.51241 0.30825 0.60768 0.0
N999 N 0.51171 0.35316 0.68425 0.0
C1000 C 0.51071 0.32799 0.7183 0.0
C1001 C 0.51113 0.30346 0.67661 0.0
C1002 C 0.36547 0.48754 0.75719 0.0
C1003 C 0.36427 0.50198 0.69341 0.0
C1004 C 0.34147 0.48825 0.8047 0.0
C1005 C 0.31539 0.50336 0.79007 0.0
H1006 H 0.38468 0.47496 0.76961 0.0
H1007 H 0.34318 0.47668 0.85293 0.0
S1008 S 0.30237 0.54727 0.63446 0.0
N1009 N 0.33566 0.53389 0.62149 0.0
N1010 N 0.29085 0.53473 0.71 0.0
C1011 C 0.31448 0.51876 0.72804 0.0
C1012 C 0.33877 0.51815 0.67994 0.0
C1013 C 0.99721 0.2783 0.72843 0.0
C1014 C 0.0223 0.28488 0.68659 0.0
C1015 C 0.99551 0.25345 0.76964 0.0
C1016 C 0.02043 0.23628 0.7818 0.0
H1017 H 0.97829 0.29219 0.72926 0.0
H1018 H 0.97424 0.24779 0.79149 0.0
S1019 S 0.09485 0.24879 0.70347 0.0
N1020 N 0.07316 0.2709 0.66196 0.0
N1021 N 0.07366 0.23358 0.76299 0.0
C1022 C 0.04708 0.24557 0.74968 0.0
C1023 C 0.04726 0.26742 0.69734 0.0
C1024 C 0.15705 1.00355 0.2849 0.0
C1025 C 0.15813 0.0182 0.34632 0.0
C1026 C 0.18035 1.00492 0.23612 0.0
C1027 C 0.20572 0.02111 0.24653 0.0
H1028 H 0.13766 0.9916 0.2736 0.0
H1029 H 0.17819 0.99359 0.189 0.0
S1030 S 0.21974 0.06197 0.40199 0.0
N1031 N 0.18711 0.04789 0.41758 0.0
N1032 N 0.2306 0.05115 0.32544 0.0
C1033 C 0.20747 0.03492 0.30938 0.0
C1034 C 0.18376 0.03333 0.35924 0.0
C1035 C 0.45623 0.32657 0.31792 0.0
C1036 C 0.47507 0.30287 0.31757 0.0
C1037 C 0.45591 0.34594 0.26173 0.0
C1038 C 0.47444 0.34225 0.20337 0.0
H1039 H 0.44097 0.32961 0.36073 0.0
H1040 H 0.44039 0.36332 0.26295 0.0
S1041 S 0.5311 0.28619 0.18262 0.0
N1042 N 0.51482 0.27868 0.25734 0.0
N1043 N 0.51457 0.31485 0.15323 0.0
C1044 C 0.49447 0.31951 0.20467 0.0
C1045 C 0.49469 0.29991 0.26125 0.0
C1046 C 0.36866 0.51785 0.22591 0.0
C1047 C 0.36771 0.50472 0.29115 0.0
C1048 C 0.34452 0.5169 0.182 0.0
C1049 C 0.31814 0.50288 0.20126 0.0
H1050 H 0.38844 0.52857 0.2082 0.0
H1051 H 0.3467 0.52698 0.13178 0.0
S1052 S 0.30395 0.46661 0.36917 0.0
N1053 N 0.33782 0.47854 0.37479 0.0
N1054 N 0.2926 0.47648 0.2923 0.0
C1055 C 0.31662 0.49051 0.26758 0.0
C1056 C 0.34132 0.49144 0.31232 0.0
C1057 C 0.04149 0.24552 0.16279 0.0
C1058 C 0.06009 0.22163 0.16561 0.0
C1059 C 0.03821 0.26382 0.21835 0.0
C1060 C 0.05347 0.25948 0.27998 0.0
H1061 H 0.02875 0.24989 0.11748 0.0
H1062 H 0.02352 0.28171 0.21272 0.0
S1063 S 0.10538 0.20043 0.31471 0.0
N1064 N 0.0945 0.19505 0.23589 0.0
N1065 N 0.08812 0.22918 0.34005 0.0
C1066 C 0.07242 0.23587 0.28349 0.0
C1067 C 0.07566 0.21704 0.2268 0.0
C1068 C 0.67946 1.00449 0.21342 0.0
C1069 C 0.65503 0.02227 0.22684 0.0
C1070 C 0.70359 1.00284 0.25782 0.0
C1071 C 0.70428 0.01894 0.31743 0.0
H1072 H 0.67937 0.99096 0.16955 0.0
H1073 H 0.72113 0.9879 0.24715 0.0
S1074 S 0.6479 0.07173 0.36995 0.0
N1075 N 0.63455 0.05824 0.30003 0.0
N1076 N 0.67967 0.05554 0.38282 0.0
C1077 C 0.68078 0.03804 0.32881 0.0
C1078 C 0.6563 0.03965 0.28369 0.0
C1079 C 0.53828 0.81922 0.34816 0.0
C1080 C 0.55719 0.84255 0.34199 0.0
C1081 C 0.53418 0.80093 0.29355 0.0
C1082 C 0.54877 0.8048 0.22939 0.0
H1083 H 0.52631 0.81497 0.39596 0.0
H1084 H 0.51976 0.78318 0.30236 0.0
S1085 S 0.59973 0.86326 0.18394 0.0
N1086 N 0.59019 0.86876 0.26488 0.0
N1087 N 0.58211 0.83479 0.16213 0.0
C1088 C 0.56738 0.82832 0.22178 0.0
C1089 C 0.57154 0.84708 0.2777 0.0
C1090 C 0.84945 0.52109 0.28888 0.0
C1091 C 0.82252 0.53445 0.27224 0.0
C1092 C 0.87295 0.51896 0.24064 0.0
C1093 C 0.8705 0.52991 0.17354 0.0
H1094 H 0.85257 0.51242 0.34005 0.0
H1095 H 0.89343 0.50924 0.2564 0.0
S1096 S 0.80536 0.56657 0.10223 0.0
N1097 N 0.7953 0.55872 0.18237 0.0
N1098 N 0.83918 0.55409 0.09198 0.0
C1099 C 0.84365 0.54261 0.15536 0.0
C1100 C 0.81975 0.54498 0.20447 0.0
C1101 C 0.98041 0.76277 0.28562 0.0
C1102 C 0.96747 0.75725 0.22243 0.0
C1103 C 0.97781 0.7441 0.34227 0.0
C1104 C 0.96225 0.71874 0.33887 0.0
H1105 H 0.993 0.78173 0.29128 0.0
H1106 H 0.98886 0.74934 0.38883 0.0
S1107 S 0.92353 0.69437 0.18578 0.0
N1108 N 0.93797 0.72464 0.16014 0.0
N1109 N 0.93295 0.68952 0.26658 0.0
C1110 C 0.94881 0.71304 0.27618 0.0
C1111 C 0.95131 0.7323 0.2183 0.0
C1112 C 0.41584 0.03214 0.98569 0.0
C1113 C 0.40083 0.02173 0.04497 0.0
C1114 C 0.44677 0.02994 0.97665 0.0
C1115 C 0.46488 0.01946 0.02923 0.0
H1116 H 0.40353 0.04165 0.94488 0.0
H1117 H 0.45613 0.03554 0.92684 0.0
S1118 S 0.43764 0.99581 0.20239 0.0
N1119 N 0.40724 1.00407 0.16142 0.0
N1120 N 0.46515 1.00176 0.14714 0.0
C1121 C 0.45031 1.01103 0.09128 0.0
C1122 C 0.4186 1.01209 0.09902 0.0
C1123 C 0.4898 0.53364 0.00721 0.0
C1124 C 0.50875 0.51439 0.97391 0.0
C1125 C 0.49431 0.56298 1.00261 0.0
C1126 C 0.51843 0.57512 0.9655 0.0
H1127 H 0.47131 0.52599 0.03809 0.0
H1128 H 0.47883 0.5762 0.03023 0.0
S1129 S 0.57878 0.53301 0.88309 0.0
N1130 N 0.55513 0.50919 0.91163 0.0
N1131 N 0.56401 0.56369 0.90257 0.0
C1132 C 0.53874 0.55571 0.93577 0.0
C1133 C 0.5339 0.52574 0.94039 0.0
C1134 C 0.07838 0.51254 0.91831 0.0
C1135 C 0.05895 0.52537 0.96608 0.0
C1136 C 0.10874 0.50822 0.93151 0.0
C1137 C 0.12224 0.51819 0.99071 0.0
H1138 H 0.07057 0.50654 0.86896 0.0
H1139 H 0.12188 0.49724 0.89398 0.0
S1140 S 0.0812 0.55029 0.13662 0.0
N1141 N 0.05578 0.54595 0.07883 0.0
N1142 N 0.11226 0.53828 0.10213 0.0
C1143 C 0.103 0.53029 0.0399 0.0
C1144 C 0.07187 0.53408 0.02745 0.0
C1145 C 1.00068 0.03406 0.93668 0.0
C1146 C 0.01965 0.04567 0.98416 0.0
C1147 C 0.99797 1.0047 0.92968 0.0
C1148 C 0.01478 0.98522 0.96873 0.0
H1149 H 0.98854 0.04789 0.9029 0.0
H1150 H 0.98314 0.99729 0.89159 0.0
S1151 S 0.06885 1.00507 0.0995 0.0
N1152 N 0.05556 0.03543 0.07128 0.0
N1153 N 0.05173 0.98074 0.05705 0.0
C1154 C 0.03409 0.99677 0.01641 0.0
C1155 C 0.03618 0.02669 0.02449 0.0
C1156 C 0.94383 1.00093 0.57965 0.0
C1157 C 0.96355 1.01349 0.53144 0.0
C1158 C 0.91318 1.0 0.56838 0.0
C1159 C 0.90014 1.01331 0.51108 0.0
H1160 H 0.9517 0.99267 0.62797 0.0
H1161 H 0.89947 0.98922 0.60604 0.0
S1162 S 0.94186 0.04589 0.36445 0.0
N1163 N 0.96746 0.03715 0.41987 0.0
N1164 N 0.91027 0.03589 0.40042 0.0
C1165 C 0.91959 0.02496 0.46114 0.0
C1166 C 0.95094 0.02523 0.47143 0.0
C1167 C 0.50664 0.02997 0.58036 0.0
C1168 C 0.53368 0.01685 0.56362 0.0
C1169 C 0.50376 0.05955 0.58615 0.0
C1170 C 0.52805 0.0782 0.58018 0.0
H1171 H 0.4873 0.01718 0.5891 0.0
H1172 H 0.48178 0.06755 0.59494 0.0
S1173 S 0.6035 0.05439 0.52418 0.0
N1174 N 0.5836 0.02577 0.52255 0.0
N1175 N 0.58101 0.07899 0.55311 0.0
C1176 C 0.55534 0.06491 0.56176 0.0
C1177 C 0.55734 0.03516 0.54841 0.0
C1178 C 0.6055 0.54242 0.48379 0.0
C1179 C 0.62467 0.51972 0.46755 0.0
C1180 C 0.57471 0.5394 0.49586 0.0
C1181 C 0.5602 0.51318 0.49609 0.0
H1182 H 0.61408 0.56325 0.48874 0.0
H1183 H 0.56257 0.55853 0.50384 0.0
S1184 S 0.59918 0.44573 0.45759 0.0
N1185 N 0.62569 0.46893 0.45814 0.0
N1186 N 0.56874 0.46387 0.47123 0.0
C1187 C 0.579 0.49019 0.47887 0.0
C1188 C 0.61065 0.4932 0.46828 0.0
C1189 C 0.02626 0.53032 0.4953 0.0
C1190 C 0.01521 0.5459 0.55125 0.0
C1191 C 0.02916 0.50067 0.49928 0.0
C1192 C 0.01948 0.48489 0.55767 0.0
H1193 H 0.03144 0.54072 0.44676 0.0
H1194 H 0.0381 0.4899 0.45505 0.0
S1195 S 0.98998 0.51476 0.7193 0.0
N1196 N 0.99629 0.54249 0.669 0.0
N1197 N 0.99968 0.48724 0.67377 0.0
C1198 C 1.00874 0.50002 0.61402 0.0
C1199 C 1.00693 0.5302 0.61123 0.0
loop_
_geom_bond_atom_site_label_1
_geom_bond_atom_site_label_2
_geom_bond_distance
_geom_bond_site_symmetry_2
_ccdc_geom_bond_type
C0 C1 1.439 1_554 S
C0 N4 1.376 . S
C0 C38 1.412 . S
C1 C0 1.439 1_556 S
C1 C2 1.339 1_556 S
C1 H41 0.957 . S
C2 C1 1.339 1_554 S
C2 C3 1.439 . S
C2 H42 0.950 1_554 S
C3 C2 1.439 . S
C3 N4 1.374 . S
C3 C37 1.395 . S
N4 C0 1.376 . S
N4 C3 1.374 . S
N4 Co5 2.008 . S
Co5 N4 2.008 . S
Co5 N6 1.995 . S
Co5 N11 2.008 1_545 S
Co5 N16 1.995 1_545 S
Co5 N21 2.282 1_545 S
Co5 N27 2.282 . S
N6 Co5 1.995 . S
N6 C7 1.376 . S
N6 C10 1.383 . S
C7 N6 1.376 . S
C7 C8 1.446 . S
C7 C37 1.391 . S
C8 C7 1.446 . S
C8 C9 1.339 . S
C8 H43 0.949 . S
C9 C8 1.339 . S
C9 C10 1.439 . S
C9 H44 0.950 . S
C10 N6 1.383 . S
C10 C9 1.439 . S
C10 C39 1.376 1_545 S
N11 Co5 2.008 1_565 S
N11 C12 1.376 . S
N11 C15 1.374 . S
C12 N11 1.376 . S
C12 C13 1.443 . S
C12 C39 1.404 . S
C13 C12 1.443 . S
C13 C14 1.340 . S
C13 H45 0.951 . S
C14 C13 1.340 . S
C14 C15 1.439 . S
C14 H46 0.950 . S
C15 N11 1.374 . S
C15 C14 1.439 . S
C15 C40 1.395 . S
N16 Co5 1.995 1_565 S
N16 C17 1.376 . S
N16 C20 1.383 . S
C17 N16 1.376 . S
C17 C18 1.446 . S
C17 C40 1.391 . S
C18 C17 1.446 . S
C18 C19 1.339 . S
C18 H47 0.949 . S
C19 C18 1.339 . S
C19 C20 1.439 . S
C19 H48 0.950 . S
C20 N16 1.383 . S
C20 C19 1.439 . S
C20 C38 1.368 1_565 S
N21 Co5 2.282 1_565 S
N21 C24 1.332 . S
N21 C26 1.332 1_554 S
C22 C23 1.386 . S
C22 C25 1.388 . S
C23 C22 1.386 . S
C23 C24 1.382 1_556 S
C23 H49 0.950 . S
C24 N21 1.332 . S
C24 C23 1.382 1_554 S
C24 H35 0.952 . S
C25 C22 1.388 . S
C25 C26 1.382 . S
C25 H50 0.950 1_565 S
C26 N21 1.332 1_556 S
C26 C25 1.382 . S
C26 H36 0.948 1_565 S
N27 Co5 2.282 . S
N27 C31 1.332 . S
N27 C32 1.332 . S
C28 C29 1.388 . S
C28 C32 1.382 . S
C28 H51 0.950 . S
C29 C28 1.388 . S
C29 C30 1.386 . S
C30 C29 1.386 . S
C30 C31 1.382 . S
C30 H52 0.950 . S
C31 N27 1.332 . S
C31 C30 1.382 . S
C31 H33 0.952 . S
C32 N27 1.332 . S
C32 C28 1.382 . S
C32 H34 0.948 1_545 S
H33 C31 0.952 . S
H34 C32 0.948 1_565 S
H35 C24 0.952 . S
H36 C26 0.948 1_545 S
C37 C3 1.395 . S
C37 C7 1.391 . S
C38 C0 1.412 . S
C38 C20 1.368 1_545 S
C39 C10 1.376 1_565 S
C39 C12 1.404 . S
C40 C15 1.395 . S
C40 C17 1.391 . S
H41 C1 0.957 . S
H42 C2 0.950 1_556 S
H43 C8 0.949 . S
H44 C9 0.950 . S
H45 C13 0.951 . S
H46 C14 0.950 . S
H47 C18 0.949 . S
H48 C19 0.950 . S
H49 C23 0.950 . S
H50 C25 0.950 1_545 S
H51 C28 0.950 . S
H52 C30 0.950 . S
C53 C54 1.443 . S
C53 N57 1.376 . S
C53 C91 1.389 . S
C54 C53 1.443 . S
C54 C55 1.340 . S
C54 H94 0.951 . S
C55 C54 1.340 . S
C55 C56 1.439 . S
C55 H95 0.950 . S
C56 C55 1.439 . S
C56 N57 1.374 . S
C56 C90 1.395 . S
N57 C53 1.376 . S
N57 C56 1.374 . S
N57 Co58 2.008 . S
Co58 N57 2.008 . S
Co58 N59 1.995 1_554 S
Co58 N64 2.008 . S
Co58 N69 1.995 . S
Co58 N74 2.282 . S
Co58 N80 2.282 1_554 S
N59 Co58 1.995 1_556 S
N59 C60 1.376 . S
N59 C63 1.383 . S
C60 N59 1.376 . S
C60 C61 1.446 . S
C60 C90 1.391 1_556 S
C61 C60 1.446 . S
C61 C62 1.339 . S
C61 H96 0.949 . S
C62 C61 1.339 . S
C62 C63 1.439 . S
C62 H97 0.950 . S
C63 N59 1.383 . S
C63 C62 1.439 . S
C63 C92 1.392 . S
N64 Co58 2.008 . S
N64 C65 1.376 1_554 S
N64 C68 1.374 . S
C65 N64 1.376 1_556 S
C65 C66 1.443 . S
C65 C92 1.389 . S
C66 C65 1.443 . S
C66 C67 1.340 . S
C66 H98 0.951 . S
C67 C66 1.340 . S
C67 C68 1.439 1_556 S
C67 H99 0.950 . S
C68 N64 1.374 . S
C68 C67 1.439 1_554 S
C68 C93 1.395 . S
N69 Co58 1.995 . S
N69 C70 1.376 . S
N69 C73 1.383 . S
C70 N69 1.376 . S
C70 C71 1.446 . S
C70 C93 1.391 . S
C71 C70 1.446 . S
C71 C72 1.339 . S
C71 H100 0.949 . S
C72 C71 1.339 . S
C72 C73 1.439 . S
C72 H101 0.950 . S
C73 N69 1.383 . S
C73 C72 1.439 . S
C73 C91 1.392 . S
N74 Co58 2.282 . S
N74 C77 1.332 . S
N74 C79 1.332 . S
C75 C76 1.386 . S
C75 C78 1.388 . S
C76 C75 1.386 . S
C76 C77 1.382 . S
C76 H102 0.950 . S
C77 N74 1.332 . S
C77 C76 1.382 . S
C77 H88 0.952 . S
C78 C75 1.388 . S
C78 C79 1.382 . S
C78 H103 0.950 . S
C79 N74 1.332 . S
C79 C78 1.382 . S
C79 H89 0.948 . S
N80 Co58 2.282 1_556 S
N80 C84 1.332 . S
N80 C85 1.332 . S
C81 C82 1.388 . S
C81 C85 1.382 . S
C81 H104 0.950 . S
C82 C81 1.388 . S
C82 C83 1.386 . S
C83 C82 1.386 . S
C83 C84 1.382 . S
C83 H105 0.950 . S
C84 N80 1.332 . S
C84 C83 1.382 . S
C84 H86 0.952 . S
C85 N80 1.332 . S
C85 C81 1.382 . S
C85 H87 0.948 . S
H86 C84 0.952 . S
H87 C85 0.948 . S
H88 C77 0.952 . S
H89 C79 0.948 . S
C90 C56 1.395 . S
C90 C60 1.391 1_554 S
C91 C53 1.389 . S
C91 C73 1.392 . S
C92 C63 1.392 . S
C92 C65 1.389 . S
C93 C68 1.395 . S
C93 C70 1.391 . S
H94 C54 0.951 . S
H95 C55 0.950 . S
H96 C61 0.949 . S
H97 C62 0.950 . S
H98 C66 0.951 . S
H99 C67 0.950 . S
H100 C71 0.949 . S
H101 C72 0.950 . S
H102 C76 0.950 . S
H103 C78 0.950 . S
H104 C81 0.950 . S
H105 C83 0.950 . S
C106 C107 1.440 1_554 S
C106 N110 1.380 . S
C106 C144 1.389 1_654 S
C107 C106 1.440 1_556 S
C107 C108 1.340 . S
C107 H147 0.951 1_655 S
C108 C107 1.340 . S
C108 C109 1.439 1_556 S
C108 H148 0.950 . S
C109 C108 1.439 1_554 S
C109 N110 1.374 . S
C109 C143 1.395 . S
N110 C106 1.380 . S
N110 C109 1.374 . S
N110 Co111 2.008 . S
Co111 N110 2.008 . S
Co111 N112 1.995 . S
Co111 N117 2.008 . S
Co111 N122 1.995 . S
Co111 N127 2.282 1_554 S
Co111 N133 2.282 . S
N112 Co111 1.995 . S
N112 C113 1.376 . S
N112 C116 1.383 . S
C113 N112 1.376 . S
C113 C114 1.446 . S
C113 C143 1.391 . S
C114 C113 1.446 . S
C114 C115 1.339 . S
C114 H149 0.949 . S
C115 C114 1.339 . S
C115 C116 1.439 . S
C115 H150 0.950 . S
C116 N112 1.383 . S
C116 C115 1.439 . S
C116 C145 1.392 . S
N117 Co111 2.008 . S
N117 C118 1.376 . S
N117 C121 1.374 . S
C118 N117 1.376 . S
C118 C119 1.443 . S
C118 C145 1.389 . S
C119 C118 1.443 . S
C119 C120 1.340 . S
C119 H151 0.951 . S
C120 C119 1.340 . S
C120 C121 1.439 . S
C120 H152 0.950 . S
C121 N117 1.374 . S
C121 C120 1.439 . S
C121 C146 1.395 . S
N122 Co111 1.995 . S
N122 C123 1.376 . S
N122 C126 1.383 1_655 S
C123 N122 1.376 . S
C123 C124 1.446 1_655 S
C123 C146 1.391 . S
C124 C123 1.446 1_455 S
C124 C125 1.339 . S
C124 H153 0.949 . S
C125 C124 1.339 . S
C125 C126 1.439 . S
C125 H154 0.949 1_554 S
C126 N122 1.383 1_455 S
C126 C125 1.439 . S
C126 C144 1.392 1_554 S
N127 Co111 2.282 1_556 S
N127 C130 1.332 . S
N127 C132 1.332 . S
C128 C129 1.386 . S
C128 C131 1.388 . S
C129 C128 1.386 . S
C129 C130 1.382 . S
C129 H155 0.950 . S
C130 N127 1.332 . S
C130 C129 1.382 . S
C130 H141 0.952 . S
C131 C128 1.388 . S
C131 C132 1.382 . S
C131 H156 0.950 . S
C132 N127 1.332 . S
C132 C131 1.382 . S
C132 H142 0.948 . S
N133 Co111 2.282 . S
N133 C137 1.332 . S
N133 C138 1.332 . S
C134 C135 1.388 . S
C134 C138 1.382 1_455 S
C134 H157 0.950 . S
C135 C134 1.388 . S
C135 C136 1.386 1_455 S
C136 C135 1.386 1_655 S
C136 C137 1.382 . S
C136 H158 0.950 . S
C137 N133 1.332 . S
C137 C136 1.382 . S
C137 H139 0.952 . S
C138 N133 1.332 . S
C138 C134 1.382 1_655 S
C138 H140 0.948 1_655 S
H139 C137 0.952 . S
H140 C138 0.948 1_455 S
H141 C130 0.952 . S
H142 C132 0.948 . S
C143 C109 1.395 . S
C143 C113 1.391 . S
C144 C106 1.389 1_456 S
C144 C126 1.392 1_556 S
C145 C116 1.392 . S
C145 C118 1.389 . S
C146 C121 1.395 . S
C146 C123 1.391 . S
H147 C107 0.951 1_455 S
H148 C108 0.950 . S
H149 C114 0.949 . S
H150 C115 0.950 . S
H151 C119 0.951 . S
H152 C120 0.950 . S
H153 C124 0.949 . S
H154 C125 0.949 1_556 S
H155 C129 0.950 . S
H156 C131 0.950 . S
H157 C134 0.950 . S
H158 C136 0.950 . S
C159 C160 1.443 . S
C159 N163 1.376 . S
C159 C197 1.389 1_655 S
C160 C159 1.443 . S
C160 C161 1.340 . S
C160 H200 0.951 . S
C161 C160 1.340 . S
C161 C162 1.439 . S
C161 H201 0.950 . S
C162 C161 1.439 . S
C162 N163 1.374 . S
C162 C196 1.395 . S
N163 C159 1.376 . S
N163 C162 1.374 . S
N163 Co164 2.008 1_655 S
Co164 N163 2.008 1_455 S
Co164 N165 1.995 1_454 S
Co164 N170 2.008 1_554 S
Co164 N175 1.995 . S
Co164 N180 2.282 1_455 S
Co164 N186 2.282 1_554 S
N165 Co164 1.995 1_656 S
N165 C166 1.377 . S
N165 C169 1.383 . S
C166 N165 1.377 . S
C166 C167 1.451 . S
C166 C196 1.386 1_556 S
C167 C166 1.451 . S
C167 C168 1.339 . S
C167 H202 0.949 . S
C168 C167 1.339 . S
C168 C169 1.439 . S
C168 H203 0.950 . S
C169 N165 1.383 . S
C169 C168 1.439 . S
C169 C198 1.392 . S
N170 Co164 2.008 1_556 S
N170 C171 1.376 . S
N170 C174 1.374 . S
C171 N170 1.376 . S
C171 C172 1.443 . S
C171 C198 1.389 1_455 S
C172 C171 1.443 . S
C172 C173 1.340 . S
C172 H204 0.951 . S
C173 C172 1.340 . S
C173 C174 1.439 . S
C173 H205 0.950 . S
C174 N170 1.374 . S
C174 C173 1.439 . S
C174 C199 1.395 1_556 S
N175 Co164 1.995 . S
N175 C176 1.376 . S
N175 C179 1.383 . S
C176 N175 1.376 . S
C176 C177 1.446 . S
C176 C199 1.391 . S
C177 C176 1.446 . S
C177 C178 1.339 . S
C177 H206 0.949 . S
C178 C177 1.339 . S
C178 C179 1.439 . S
C178 H207 0.950 . S
C179 N175 1.383 . S
C179 C178 1.439 . S
C179 C197 1.392 . S
N180 Co164 2.282 1_655 S
N180 C183 1.332 1_655 S
N180 C185 1.332 . S
C181 C182 1.384 . S
C181 C184 1.390 1_455 S
C182 C181 1.384 . S
C182 C183 1.382 . S
C182 H208 0.950 . S
C183 N180 1.332 1_455 S
C183 C182 1.382 . S
C183 H194 0.952 . S
C184 C181 1.390 1_655 S
C184 C185 1.382 . S
C184 H209 0.950 . S
C185 N180 1.332 . S
C185 C184 1.382 . S
C185 H195 0.948 . S
N186 Co164 2.282 1_556 S
N186 C190 1.332 1_455 S
N186 C191 1.332 . S
C187 C188 1.390 . S
C187 C191 1.382 . S
C187 H210 0.950 . S
C188 C187 1.390 . S
C188 C189 1.384 1_455 S
C189 C188 1.384 1_655 S
C189 C190 1.382 . S
C189 H211 0.950 . S
C190 N186 1.332 1_655 S
C190 C189 1.382 . S
C190 H192 0.952 . S
C191 N186 1.332 . S
C191 C187 1.382 . S
C191 H193 0.948 . S
H192 C190 0.952 . S
H193 C191 0.948 . S
H194 C183 0.952 . S
H195 C185 0.948 . S
C196 C162 1.395 . S
C196 C166 1.386 1_554 S
C197 C159 1.389 1_455 S
C197 C179 1.392 . S
C198 C169 1.392 . S
C198 C171 1.389 1_655 S
C199 C174 1.395 1_554 S
C199 C176 1.391 . S
H200 C160 0.951 . S
H201 C161 0.950 . S
H202 C167 0.949 . S
H203 C168 0.950 . S
H204 C172 0.951 . S
H205 C173 0.950 . S
H206 C177 0.949 . S
H207 C178 0.950 . S
H208 C182 0.950 . S
H209 C184 0.950 . S
H210 C187 0.950 . S
H211 C189 0.950 . S
C212 C213 1.442 1_455 S
C212 N216 1.380 . S
C212 C250 1.387 1_455 S
C213 C212 1.442 1_655 S
C213 C214 1.340 1_655 S
C213 H253 0.951 . S
C214 C213 1.340 1_455 S
C214 C215 1.439 . S
C214 H254 0.950 . S
C215 C214 1.439 . S
C215 N216 1.374 . S
C215 C249 1.395 . S
N216 C212 1.380 . S
N216 C215 1.374 . S
N216 Co217 2.008 . S
Co217 N216 2.008 . S
Co217 N218 1.995 . S
Co217 N223 2.008 1_565 S
Co217 N228 1.995 1_565 S
Co217 N233 2.282 1_565 S
Co217 N239 2.282 . S
N218 Co217 1.995 . S
N218 C219 1.376 . S
N218 C222 1.383 . S
C219 N218 1.376 . S
C219 C220 1.446 . S
C219 C249 1.391 . S
C220 C219 1.446 . S
C220 C221 1.339 . S
C220 H255 0.949 . S
C221 C220 1.339 . S
C221 C222 1.439 . S
C221 H256 0.950 . S
C222 N218 1.383 . S
C222 C221 1.439 . S
C222 C251 1.392 1_565 S
N223 Co217 2.008 1_545 S
N223 C224 1.376 . S
N223 C227 1.374 . S
C224 N223 1.376 . S
C224 C225 1.443 . S
C224 C251 1.389 . S
C225 C224 1.443 . S
C225 C226 1.340 . S
C225 H257 0.951 . S
C226 C225 1.340 . S
C226 C227 1.439 . S
C226 H258 0.950 . S
C227 N223 1.374 . S
C227 C226 1.439 . S
C227 C252 1.395 . S
N228 Co217 1.995 1_545 S
N228 C229 1.376 . S
N228 C232 1.383 1_455 S
C229 N228 1.376 . S
C229 C230 1.446 1_455 S
C229 C252 1.391 . S
C230 C229 1.446 1_655 S
C230 C231 1.339 . S
C230 H259 0.949 . S
C231 C230 1.339 . S
C231 C232 1.439 . S
C231 H260 0.950 . S
C232 N228 1.383 1_655 S
C232 C231 1.439 . S
C232 C250 1.392 1_545 S
N233 Co217 2.282 1_545 S
N233 C236 1.332 . S
N233 C238 1.329 1_545 S
C234 C235 1.386 . S
C234 C237 1.388 . S
C235 C234 1.386 . S
C235 C236 1.382 . S
C235 H261 0.950 . S
C236 N233 1.332 . S
C236 C235 1.382 . S
C236 H247 0.952 . S
C237 C234 1.388 . S
C237 C238 1.380 1_545 S
C237 H262 0.950 1_545 S
C238 N233 1.329 1_565 S
C238 C237 1.380 1_565 S
C238 H248 0.953 . S
N239 Co217 2.282 . S
N239 C243 1.332 . S
N239 C244 1.335 1_565 S
C240 C241 1.388 . S
C240 C244 1.384 1_665 S
C240 H263 0.950 1_565 S
C241 C240 1.388 . S
C241 C242 1.386 1_655 S
C242 C241 1.386 1_455 S
C242 C243 1.382 . S
C242 H264 0.950 . S
C243 N239 1.332 . S
C243 C242 1.382 . S
C243 H245 0.952 . S
C244 N239 1.335 1_545 S
C244 C240 1.384 1_445 S
C244 H246 0.943 . S
H245 C243 0.952 . S
H246 C244 0.943 . S
H247 C236 0.952 . S
H248 C238 0.953 . S
C249 C215 1.395 . S
C249 C219 1.391 . S
C250 C212 1.387 1_655 S
C250 C232 1.392 1_565 S
C251 C222 1.392 1_545 S
C251 C224 1.389 . S
C252 C227 1.395 . S
C252 C229 1.391 . S
H253 C213 0.951 . S
H254 C214 0.950 . S
H255 C220 0.949 . S
H256 C221 0.950 . S
H257 C225 0.951 . S
H258 C226 0.950 . S
H259 C230 0.949 . S
H260 C231 0.950 . S
H261 C235 0.950 . S
H262 C237 0.950 1_565 S
H263 C240 0.950 1_545 S
H264 C242 0.950 . S
C265 C266 1.443 . S
C265 N269 1.376 . S
C265 C303 1.389 . S
C266 C265 1.443 . S
C266 C267 1.340 . S
C266 H306 0.951 . S
C267 C266 1.340 . S
C267 C268 1.439 . S
C267 H307 0.950 . S
C268 C267 1.439 . S
C268 N269 1.374 . S
C268 C302 1.395 . S
N269 C265 1.376 . S
N269 C268 1.374 . S
N269 Co270 2.008 . S
Co270 N269 2.008 . S
Co270 N271 1.995 . S
Co270 N276 2.008 . S
Co270 N281 1.995 . S
Co270 N286 2.282 . S
Co270 N292 2.282 . S
N271 Co270 1.995 . S
N271 C272 1.376 . S
N271 C275 1.383 . S
C272 N271 1.376 . S
C272 C273 1.446 . S
C272 C302 1.391 . S
C273 C272 1.446 . S
C273 C274 1.339 . S
C273 H308 0.949 . S
C274 C273 1.339 . S
C274 C275 1.439 . S
C274 H309 0.950 . S
C275 N271 1.383 . S
C275 C274 1.439 . S
C275 C304 1.392 . S
N276 Co270 2.008 . S
N276 C277 1.376 . S
N276 C280 1.374 . S
C277 N276 1.376 . S
C277 C278 1.443 . S
C277 C304 1.389 . S
C278 C277 1.443 . S
C278 C279 1.340 . S
C278 H310 0.951 . S
C279 C278 1.340 . S
C279 C280 1.439 . S
C279 H311 0.950 . S
C280 N276 1.374 . S
C280 C279 1.439 . S
C280 C305 1.395 . S
N281 Co270 1.995 . S
N281 C282 1.376 . S
N281 C285 1.383 . S
C282 N281 1.376 . S
C282 C283 1.446 . S
C282 C305 1.391 . S
C283 C282 1.446 . S
C283 C284 1.339 . S
C283 H312 0.949 . S
C284 C283 1.339 . S
C284 C285 1.439 . S
C284 H313 0.950 . S
C285 N281 1.383 . S
C285 C284 1.439 . S
C285 C303 1.392 . S
N286 Co270 2.282 . S
N286 C289 1.332 . S
N286 C291 1.332 . S
C287 C288 1.386 . S
C287 C290 1.388 . S
C288 C287 1.386 . S
C288 C289 1.382 . S
C288 H314 0.950 . S
C289 N286 1.332 . S
C289 C288 1.382 . S
C289 H300 0.952 . S
C290 C287 1.388 . S
C290 C291 1.382 . S
C290 H315 0.950 . S
C291 N286 1.332 . S
C291 C290 1.382 . S
C291 H301 0.948 . S
N292 Co270 2.282 . S
N292 C296 1.332 . S
N292 C297 1.332 . S
C293 C294 1.388 . S
C293 C297 1.382 . S
C293 H316 0.950 . S
C294 C293 1.388 . S
C294 C295 1.386 . S
C295 C294 1.386 . S
C295 C296 1.382 . S
C295 H317 0.950 . S
C296 N292 1.332 . S
C296 C295 1.382 . S
C296 H298 0.952 . S
C297 N292 1.332 . S
C297 C293 1.382 . S
C297 H299 0.948 . S
H298 C296 0.952 . S
H299 C297 0.948 . S
H300 C289 0.952 . S
H301 C291 0.948 . S
C302 C268 1.395 . S
C302 C272 1.391 . S
C303 C265 1.389 . S
C303 C285 1.392 . S
C304 C275 1.392 . S
C304 C277 1.389 . S
C305 C280 1.395 . S
C305 C282 1.391 . S
H306 C266 0.951 . S
H307 C267 0.950 . S
H308 C273 0.949 . S
H309 C274 0.950 . S
H310 C278 0.951 . S
H311 C279 0.950 . S
H312 C283 0.949 . S
H313 C284 0.950 . S
H314 C288 0.950 . S
H315 C290 0.950 . S
H316 C293 0.950 . S
H317 C295 0.950 . S
C318 C319 1.443 . S
C318 N322 1.376 . S
C318 C356 1.389 . S
C319 C318 1.443 . S
C319 C320 1.340 . S
C319 H359 0.951 . S
C320 C319 1.340 . S
C320 C321 1.439 . S
C320 H360 0.950 . S
C321 C320 1.439 . S
C321 N322 1.374 . S
C321 C355 1.395 . S
N322 C318 1.376 . S
N322 C321 1.374 . S
N322 Co323 2.008 . S
Co323 N322 2.008 . S
Co323 N324 1.995 . S
Co323 N329 2.008 . S
Co323 N334 1.995 . S
Co323 N339 2.282 . S
Co323 N345 2.282 . S
N324 Co323 1.995 . S
N324 C325 1.376 . S
N324 C328 1.383 . S
C325 N324 1.376 . S
C325 C326 1.446 . S
C325 C355 1.391 . S
C326 C325 1.446 . S
C326 C327 1.339 . S
C326 H361 0.949 . S
C327 C326 1.339 . S
C327 C328 1.439 . S
C327 H362 0.950 . S
C328 N324 1.383 . S
C328 C327 1.439 . S
C328 C357 1.392 . S
N329 Co323 2.008 . S
N329 C330 1.376 . S
N329 C333 1.374 . S
C330 N329 1.376 . S
C330 C331 1.443 . S
C330 C357 1.389 . S
C331 C330 1.443 . S
C331 C332 1.340 . S
C331 H363 0.951 . S
C332 C331 1.340 . S
C332 C333 1.439 . S
C332 H364 0.950 . S
C333 N329 1.374 . S
C333 C332 1.439 . S
C333 C358 1.395 . S
N334 Co323 1.995 . S
N334 C335 1.376 . S
N334 C338 1.383 . S
C335 N334 1.376 . S
C335 C336 1.446 . S
C335 C358 1.391 . S
C336 C335 1.446 . S
C336 C337 1.339 . S
C336 H365 0.949 . S
C337 C336 1.339 . S
C337 C338 1.439 . S
C337 H366 0.950 . S
C338 N334 1.383 . S
C338 C337 1.439 . S
C338 C356 1.392 . S
N339 Co323 2.282 . S
N339 C342 1.332 . S
N339 C344 1.332 . S
C340 C341 1.386 . S
C340 C343 1.388 . S
C341 C340 1.386 . S
C341 C342 1.382 . S
C341 H367 0.950 . S
C342 N339 1.332 . S
C342 C341 1.382 . S
C342 H353 0.952 . S
C343 C340 1.388 . S
C343 C344 1.382 . S
C343 H368 0.950 . S
C344 N339 1.332 . S
C344 C343 1.382 . S
C344 H354 0.948 . S
N345 Co323 2.282 . S
N345 C349 1.332 . S
N345 C350 1.332 . S
C346 C347 1.388 . S
C346 C350 1.382 . S
C346 H369 0.950 . S
C347 C346 1.388 . S
C347 C348 1.386 . S
C348 C347 1.386 . S
C348 C349 1.382 . S
C348 H370 0.950 . S
C349 N345 1.332 . S
C349 C348 1.382 . S
C349 H351 0.952 . S
C350 N345 1.332 . S
C350 C346 1.382 . S
C350 H352 0.948 . S
H351 C349 0.952 . S
H352 C350 0.948 . S
H353 C342 0.952 . S
H354 C344 0.948 . S
C355 C321 1.395 . S
C355 C325 1.391 . S
C356 C318 1.389 . S
C356 C338 1.392 . S
C357 C328 1.392 . S
C357 C330 1.389 . S
C358 C333 1.395 . S
C358 C335 1.391 . S
H359 C319 0.951 . S
H360 C320 0.950 . S
H361 C326 0.949 . S
H362 C327 0.950 . S
H363 C331 0.951 . S
H364 C332 0.950 . S
H365 C336 0.949 . S
H366 C337 0.950 . S
H367 C341 0.950 . S
H368 C343 0.950 . S
H369 C346 0.950 . S
H370 C348 0.950 . S
C371 C372 1.443 . S
C371 N375 1.376 . S
C371 C409 1.389 1_455 S
C372 C371 1.443 . S
C372 C373 1.340 . S
C372 H412 0.951 . S
C373 C372 1.340 . S
C373 C374 1.439 . S
C373 H413 0.950 . S
C374 C373 1.439 . S
C374 N375 1.374 . S
C374 C408 1.395 . S
N375 C371 1.376 . S
N375 C374 1.374 . S
N375 Co376 2.008 1_455 S
Co376 N375 2.008 1_655 S
Co376 N377 1.995 1_655 S
Co376 N382 2.008 . S
Co376 N387 1.995 . S
Co376 N392 2.282 1_655 S
Co376 N398 2.282 . S
N377 Co376 1.995 1_455 S
N377 C378 1.376 . S
N377 C381 1.383 . S
C378 N377 1.376 . S
C378 C379 1.446 . S
C378 C408 1.391 . S
C379 C378 1.446 . S
C379 C380 1.339 . S
C379 H414 0.949 . S
C380 C379 1.339 . S
C380 C381 1.439 . S
C380 H415 0.950 . S
C381 N377 1.383 . S
C381 C380 1.439 . S
C381 C410 1.392 . S
N382 Co376 2.008 . S
N382 C383 1.376 . S
N382 C386 1.374 . S
C383 N382 1.376 . S
C383 C384 1.443 . S
C383 C410 1.389 1_655 S
C384 C383 1.443 . S
C384 C385 1.340 . S
C384 H416 0.951 . S
C385 C384 1.340 . S
C385 C386 1.439 . S
C385 H417 0.950 . S
C386 N382 1.374 . S
C386 C385 1.439 . S
C386 C411 1.395 . S
N387 Co376 1.995 . S
N387 C388 1.376 . S
N387 C391 1.383 . S
C388 N387 1.376 . S
C388 C389 1.446 . S
C388 C411 1.391 . S
C389 C388 1.446 . S
C389 C390 1.339 . S
C389 H418 0.949 . S
C390 C389 1.339 . S
C390 C391 1.439 . S
C390 H419 0.950 . S
C391 N387 1.383 . S
C391 C390 1.439 . S
C391 C409 1.392 . S
N392 Co376 2.282 1_455 S
N392 C395 1.332 1_455 S
N392 C397 1.332 . S
C393 C394 1.396 . S
C393 C396 1.377 1_655 S
C394 C393 1.396 . S
C394 C395 1.382 . S
C394 H420 0.950 . S
C395 N392 1.332 1_655 S
C395 C394 1.382 . S
C395 H406 0.952 . S
C396 C393 1.377 1_455 S
C396 C397 1.382 . S
C396 H421 0.950 . S
C397 N392 1.332 . S
C397 C396 1.382 . S
C397 H407 0.948 . S
N398 Co376 2.282 . S
N398 C402 1.332 1_655 S
N398 C403 1.332 . S
C399 C400 1.386 1_655 S
C399 C403 1.382 . S
C399 H422 0.950 . S
C400 C399 1.386 1_455 S
C400 C401 1.388 . S
C401 C400 1.388 . S
C401 C402 1.382 . S
C401 H423 0.950 . S
C402 N398 1.332 1_455 S
C402 C401 1.382 . S
C402 H404 0.952 . S
C403 N398 1.332 . S
C403 C399 1.382 . S
C403 H405 0.948 . S
H404 C402 0.952 . S
H405 C403 0.948 . S
H406 C395 0.952 . S
H407 C397 0.948 . S
C408 C374 1.395 . S
C408 C378 1.391 . S
C409 C371 1.389 1_655 S
C409 C391 1.392 . S
C410 C381 1.392 . S
C410 C383 1.389 1_455 S
C411 C386 1.395 . S
C411 C388 1.391 . S
H412 C372 0.951 . S
H413 C373 0.950 . S
H414 C379 0.949 . S
H415 C380 0.950 . S
H416 C384 0.951 . S
H417 C385 0.950 . S
H418 C389 0.949 . S
H419 C390 0.950 . S
H420 C394 0.950 . S
H421 C396 0.950 . S
H422 C399 0.950 . S
H423 C401 0.950 . S
C424 C425 1.443 . S
C424 N428 1.376 . S
C424 C462 1.389 . S
C425 C424 1.443 . S
C425 C426 1.340 . S
C425 H465 0.951 . S
C426 C425 1.340 . S
C426 C427 1.439 1_554 S
C426 H466 0.950 . S
C427 C426 1.439 1_556 S
C427 N428 1.374 1_556 S
C427 C461 1.395 . S
N428 C424 1.376 . S
N428 C427 1.374 1_554 S
N428 Co429 2.008 1_544 S
Co429 N428 2.008 1_566 S
Co429 N430 1.995 1_565 S
Co429 N435 2.008 . S
Co429 N440 1.995 1_556 S
Co429 N445 2.282 1_566 S
Co429 N451 2.282 . S
N430 Co429 1.995 1_545 S
N430 C431 1.376 . S
N430 C434 1.383 . S
C431 N430 1.376 . S
C431 C432 1.446 . S
C431 C461 1.391 . S
C432 C431 1.446 . S
C432 C433 1.339 . S
C432 H467 0.949 . S
C433 C432 1.339 . S
C433 C434 1.439 . S
C433 H468 0.950 . S
C434 N430 1.383 . S
C434 C433 1.439 . S
C434 C463 1.392 1_545 S
N435 Co429 2.008 . S
N435 C436 1.376 . S
N435 C439 1.374 1_556 S
C436 N435 1.376 . S
C436 C437 1.443 . S
C436 C463 1.389 . S
C437 C436 1.443 . S
C437 C438 1.340 . S
C437 H469 0.951 . S
C438 C437 1.340 . S
C438 C439 1.439 1_556 S
C438 H470 0.950 . S
C439 N435 1.374 1_554 S
C439 C438 1.439 1_554 S
C439 C464 1.395 . S
N440 Co429 1.995 1_554 S
N440 C441 1.376 . S
N440 C444 1.383 . S
C441 N440 1.376 . S
C441 C442 1.446 . S
C441 C464 1.391 . S
C442 C441 1.446 . S
C442 C443 1.339 . S
C442 H471 0.949 . S
C443 C442 1.339 . S
C443 C444 1.439 . S
C443 H472 0.950 . S
C444 N440 1.383 . S
C444 C443 1.439 . S
C444 C462 1.392 1_565 S
N445 Co429 2.282 1_544 S
N445 C448 1.332 1_545 S
N445 C450 1.332 . S
C446 C447 1.386 1_545 S
C446 C449 1.388 . S
C447 C446 1.386 1_565 S
C447 C448 1.382 . S
C447 H473 0.950 . S
C448 N445 1.332 1_565 S
C448 C447 1.382 . S
C448 H459 0.952 . S
C449 C446 1.388 . S
C449 C450 1.382 . S
C449 H474 0.950 . S
C450 N445 1.332 . S
C450 C449 1.382 . S
C450 H460 0.948 . S
N451 Co429 2.282 . S
N451 C455 1.332 1_565 S
N451 C456 1.332 . S
C452 C453 1.388 . S
C452 C456 1.382 . S
C452 H475 0.950 . S
C453 C452 1.388 . S
C453 C454 1.386 1_565 S
C454 C453 1.386 1_545 S
C454 C455 1.382 . S
C454 H476 0.950 . S
C455 N451 1.332 1_545 S
C455 C454 1.382 . S
C455 H457 0.952 . S
C456 N451 1.332 . S
C456 C452 1.382 . S
C456 H458 0.948 . S
H457 C455 0.952 . S
H458 C456 0.948 . S
H459 C448 0.952 . S
H460 C450 0.948 . S
C461 C427 1.395 . S
C461 C431 1.391 . S
C462 C424 1.389 . S
C462 C444 1.392 1_545 S
C463 C434 1.392 1_565 S
C463 C436 1.389 . S
C464 C439 1.395 . S
C464 C441 1.391 . S
H465 C425 0.951 . S
H466 C426 0.950 . S
H467 C432 0.949 . S
H468 C433 0.950 . S
H469 C437 0.951 . S
H470 C438 0.950 . S
H471 C442 0.949 . S
H472 C443 0.950 . S
H473 C447 0.950 . S
H474 C449 0.950 . S
H475 C452 0.950 . S
H476 C454 0.950 . S
C477 C478 1.443 . S
C477 N481 1.376 . S
C477 C515 1.389 . S
C478 C477 1.443 . S
C478 C479 1.340 . S
C478 H518 0.951 . S
C479 C478 1.340 . S
C479 C480 1.439 . S
C479 H519 0.950 . S
C480 C479 1.439 . S
C480 N481 1.374 . S
C480 C514 1.395 . S
N481 C477 1.376 . S
N481 C480 1.374 . S
N481 Co482 2.008 . S
Co482 N481 2.008 . S
Co482 N483 1.995 . S
Co482 N488 2.008 . S
Co482 N493 1.995 . S
Co482 N498 2.282 . S
Co482 N504 2.282 . S
N483 Co482 1.995 . S
N483 C484 1.376 . S
N483 C487 1.383 . S
C484 N483 1.376 . S
C484 C485 1.446 . S
C484 C514 1.391 . S
C485 C484 1.446 . S
C485 C486 1.339 . S
C485 H520 0.949 . S
C486 C485 1.339 . S
C486 C487 1.439 . S
C486 H521 0.950 . S
C487 N483 1.383 . S
C487 C486 1.439 . S
C487 C516 1.392 . S
N488 Co482 2.008 . S
N488 C489 1.376 . S
N488 C492 1.374 . S
C489 N488 1.376 . S
C489 C490 1.443 . S
C489 C516 1.389 . S
C490 C489 1.443 . S
C490 C491 1.340 . S
C490 H522 0.951 . S
C491 C490 1.340 . S
C491 C492 1.439 . S
C491 H523 0.950 . S
C492 N488 1.374 . S
C492 C491 1.439 . S
C492 C517 1.395 . S
N493 Co482 1.995 . S
N493 C494 1.376 . S
N493 C497 1.383 . S
C494 N493 1.376 . S
C494 C495 1.446 . S
C494 C517 1.391 . S
C495 C494 1.446 . S
C495 C496 1.339 . S
C495 H524 0.949 . S
C496 C495 1.339 . S
C496 C497 1.439 . S
C496 H525 0.947 1_556 S
C497 N493 1.383 . S
C497 C496 1.439 . S
C497 C515 1.392 . S
N498 Co482 2.282 . S
N498 C501 1.332 . S
N498 C503 1.332 . S
C499 C500 1.386 . S
C499 C502 1.388 1_554 S
C500 C499 1.386 . S
C500 C501 1.382 1_554 S
C500 H526 0.950 . S
C501 N498 1.332 . S
C501 C500 1.382 1_556 S
C501 H512 0.952 . S
C502 C499 1.388 1_556 S
C502 C503 1.382 . S
C502 H527 0.950 . S
C503 N498 1.332 . S
C503 C502 1.382 . S
C503 H513 0.948 . S
N504 Co482 2.282 . S
N504 C508 1.332 . S
N504 C509 1.332 . S
C505 C506 1.388 . S
C505 C509 1.382 . S
C505 H528 0.950 . S
C506 C505 1.388 . S
C506 C507 1.386 . S
C507 C506 1.386 . S
C507 C508 1.382 . S
C507 H529 0.950 . S
C508 N504 1.332 . S
C508 C507 1.382 . S
C508 H510 0.952 . S
C509 N504 1.332 . S
C509 C505 1.382 . S
C509 H511 0.948 . S
H510 C508 0.952 . S
H511 C509 0.948 . S
H512 C501 0.952 . S
H513 C503 0.948 . S
C514 C480 1.395 . S
C514 C484 1.391 . S
C515 C477 1.389 . S
C515 C497 1.392 . S
C516 C487 1.392 . S
C516 C489 1.389 . S
C517 C492 1.395 . S
C517 C494 1.391 . S
H518 C478 0.951 . S
H519 C479 0.950 . S
H520 C485 0.949 . S
H521 C486 0.950 . S
H522 C490 0.951 . S
H523 C491 0.950 . S
H524 C495 0.949 . S
H525 C496 0.947 1_554 S
H526 C500 0.950 . S
H527 C502 0.950 . S
H528 C505 0.950 . S
H529 C507 0.950 . S
C530 C531 1.443 . S
C530 N534 1.376 1_554 S
C530 C568 1.389 . S
C531 C530 1.443 . S
C531 C532 1.340 1_554 S
C531 H571 0.951 . S
C532 C531 1.340 1_556 S
C532 C533 1.439 . S
C532 H572 0.950 . S
C533 C532 1.439 . S
C533 N534 1.374 . S
C533 C567 1.395 . S
N534 C530 1.376 1_556 S
N534 C533 1.374 . S
N534 Co535 2.008 . S
Co535 N534 2.008 . S
Co535 N536 1.995 . S
Co535 N541 2.008 . S
Co535 N546 1.995 . S
Co535 N551 2.282 1_556 S
Co535 N557 2.282 . S
N536 Co535 1.995 . S
N536 C537 1.376 . S
N536 C540 1.383 . S
C537 N536 1.376 . S
C537 C538 1.446 . S
C537 C567 1.391 . S
C538 C537 1.446 . S
C538 C539 1.339 . S
C538 H573 0.949 . S
C539 C538 1.339 . S
C539 C540 1.439 . S
C539 H574 0.950 . S
C540 N536 1.383 . S
C540 C539 1.439 . S
C540 C569 1.392 . S
N541 Co535 2.008 . S
N541 C542 1.376 . S
N541 C545 1.374 . S
C542 N541 1.376 . S
C542 C543 1.443 . S
C542 C569 1.389 . S
C543 C542 1.443 . S
C543 C544 1.340 . S
C543 H575 0.951 . S
C544 C543 1.340 . S
C544 C545 1.439 . S
C544 H576 0.950 . S
C545 N541 1.374 . S
C545 C544 1.439 . S
C545 C570 1.395 . S
N546 Co535 1.995 . S
N546 C547 1.376 1_556 S
N546 C550 1.383 1_556 S
C547 N546 1.376 1_554 S
C547 C548 1.446 . S
C547 C570 1.391 1_554 S
C548 C547 1.446 . S
C548 C549 1.339 . S
C548 H577 0.949 . S
C549 C548 1.339 . S
C549 C550 1.439 . S
C549 H578 0.950 . S
C550 N546 1.383 1_554 S
C550 C549 1.439 . S
C550 C568 1.392 . S
N551 Co535 2.282 1_554 S
N551 C554 1.332 . S
N551 C556 1.332 . S
C552 C553 1.386 . S
C552 C555 1.388 . S
C553 C552 1.386 . S
C553 C554 1.382 . S
C553 H579 0.950 . S
C554 N551 1.332 . S
C554 C553 1.382 . S
C554 H565 0.952 . S
C555 C552 1.388 . S
C555 C556 1.382 . S
C555 H580 0.950 . S
C556 N551 1.332 . S
C556 C555 1.382 . S
C556 H566 0.948 1_554 S
N557 Co535 2.282 . S
N557 C561 1.332 . S
N557 C562 1.332 . S
C558 C559 1.388 . S
C558 C562 1.382 . S
C558 H581 0.950 . S
C559 C558 1.388 . S
C559 C560 1.386 . S
C560 C559 1.386 . S
C560 C561 1.382 . S
C560 H582 0.950 . S
C561 N557 1.332 . S
C561 C560 1.382 . S
C561 H563 0.952 . S
C562 N557 1.332 . S
C562 C558 1.382 . S
C562 H564 0.948 . S
H563 C561 0.952 . S
H564 C562 0.948 . S
H565 C554 0.952 . S
H566 C556 0.948 1_556 S
C567 C533 1.395 . S
C567 C537 1.391 . S
C568 C530 1.389 . S
C568 C550 1.392 . S
C569 C540 1.392 . S
C569 C542 1.389 . S
C570 C545 1.395 . S
C570 C547 1.391 1_556 S
H571 C531 0.951 . S
H572 C532 0.950 . S
H573 C538 0.949 . S
H574 C539 0.950 . S
H575 C543 0.951 . S
H576 C544 0.950 . S
H577 C548 0.949 . S
H578 C549 0.950 . S
H579 C553 0.950 . S
H580 C555 0.950 . S
H581 C558 0.950 . S
H582 C560 0.950 . S
C583 C584 1.443 . S
C583 N587 1.376 . S
C583 C621 1.380 1_455 S
C584 C583 1.443 . S
C584 C585 1.340 . S
C584 H624 0.951 . S
C585 C584 1.340 . S
C585 C586 1.439 . S
C585 H625 0.950 . S
C586 C585 1.439 . S
C586 N587 1.374 . S
C586 C620 1.395 . S
N587 C583 1.376 . S
N587 C586 1.374 . S
N587 Co588 2.008 1_455 S
Co588 N587 2.008 1_655 S
Co588 N589 1.995 1_655 S
Co588 N594 2.008 . S
Co588 N599 1.995 . S
Co588 N604 2.282 1_655 S
Co588 N610 2.282 . S
N589 Co588 1.995 1_455 S
N589 C590 1.376 . S
N589 C593 1.383 . S
C590 N589 1.376 . S
C590 C591 1.446 . S
C590 C620 1.391 . S
C591 C590 1.446 . S
C591 C592 1.339 . S
C591 H626 0.949 . S
C592 C591 1.339 . S
C592 C593 1.439 . S
C592 H627 0.950 . S
C593 N589 1.383 . S
C593 C592 1.439 . S
C593 C622 1.393 . S
N594 Co588 2.008 . S
N594 C595 1.376 . S
N594 C598 1.374 . S
C595 N594 1.376 . S
C595 C596 1.443 . S
C595 C622 1.387 1_655 S
C596 C595 1.443 . S
C596 C597 1.340 . S
C596 H628 0.951 . S
C597 C596 1.340 . S
C597 C598 1.439 . S
C597 H629 0.950 . S
C598 N594 1.374 . S
C598 C597 1.439 . S
C598 C623 1.395 . S
N599 Co588 1.995 . S
N599 C600 1.376 . S
N599 C603 1.383 . S
C600 N599 1.376 . S
C600 C601 1.446 1_556 S
C600 C623 1.391 . S
C601 C600 1.446 1_554 S
C601 C602 1.339 . S
C601 H630 0.949 . S
C602 C601 1.339 . S
C602 C603 1.439 1_554 S
C602 H631 0.950 . S
C603 N599 1.383 . S
C603 C602 1.439 1_556 S
C603 C621 1.400 . S
N604 Co588 2.282 1_455 S
N604 C607 1.332 1_556 S
N604 C609 1.332 . S
C605 C606 1.386 . S
C605 C608 1.388 1_554 S
C606 C605 1.386 . S
C606 C607 1.382 . S
C606 H632 0.950 . S
C607 N604 1.332 1_554 S
C607 C606 1.382 . S
C607 H618 0.952 1_455 S
C608 C605 1.388 1_556 S
C608 C609 1.382 . S
C608 H633 0.950 . S
C609 N604 1.332 . S
C609 C608 1.382 . S
C609 H619 0.948 . S
N610 Co588 2.282 . S
N610 C614 1.332 . S
N610 C615 1.332 . S
C611 C612 1.388 . S
C611 C615 1.382 . S
C611 H634 0.950 . S
C612 C611 1.388 . S
C612 C613 1.386 . S
C613 C612 1.386 . S
C613 C614 1.382 . S
C613 H635 0.950 . S
C614 N610 1.332 . S
C614 C613 1.382 . S
C614 H616 0.952 1_655 S
C615 N610 1.332 . S
C615 C611 1.382 . S
C615 H617 0.948 . S
H616 C614 0.952 1_455 S
H617 C615 0.948 . S
H618 C607 0.952 1_655 S
H619 C609 0.948 . S
C620 C586 1.395 . S
C620 C590 1.391 . S
C621 C583 1.380 1_655 S
C621 C603 1.400 . S
C622 C593 1.393 . S
C622 C595 1.387 1_455 S
C623 C598 1.395 . S
C623 C600 1.391 . S
H624 C584 0.951 . S
H625 C585 0.950 . S
H626 C591 0.949 . S
H627 C592 0.950 . S
H628 C596 0.951 . S
H629 C597 0.950 . S
H630 C601 0.949 . S
H631 C602 0.950 . S
H632 C606 0.950 . S
H633 C608 0.950 . S
H634 C611 0.950 . S
H635 C613 0.950 . S
C636 C637 1.443 . S
C636 N640 1.376 . S
C636 C674 1.389 . S
C637 C636 1.443 . S
C637 C638 1.340 . S
C637 H677 0.951 . S
C638 C637 1.340 . S
C638 C639 1.439 . S
C638 H678 0.950 . S
C639 C638 1.439 . S
C639 N640 1.374 . S
C639 C673 1.395 . S
N640 C636 1.376 . S
N640 C639 1.374 . S
N640 Co641 2.008 1_565 S
Co641 N640 2.008 1_545 S
Co641 N642 1.995 1_545 S
Co641 N647 2.008 . S
Co641 N652 1.995 . S
Co641 N657 2.282 1_545 S
Co641 N663 2.282 . S
N642 Co641 1.995 1_565 S
N642 C643 1.376 . S
N642 C646 1.383 . S
C643 N642 1.376 . S
C643 C644 1.446 . S
C643 C673 1.391 . S
C644 C643 1.446 . S
C644 C645 1.339 . S
C644 H679 0.949 . S
C645 C644 1.339 . S
C645 C646 1.439 . S
C645 H680 0.950 . S
C646 N642 1.383 . S
C646 C645 1.439 . S
C646 C675 1.392 1_565 S
N647 Co641 2.008 . S
N647 C648 1.376 . S
N647 C651 1.374 . S
C648 N647 1.376 . S
C648 C649 1.443 . S
C648 C675 1.389 . S
C649 C648 1.443 . S
C649 C650 1.340 . S
C649 H681 0.951 . S
C650 C649 1.340 . S
C650 C651 1.439 . S
C650 H682 0.950 . S
C651 N647 1.374 . S
C651 C650 1.439 . S
C651 C676 1.395 . S
N652 Co641 1.995 . S
N652 C653 1.376 . S
N652 C656 1.383 . S
C653 N652 1.376 . S
C653 C654 1.446 . S
C653 C676 1.391 . S
C654 C653 1.446 . S
C654 C655 1.339 . S
C654 H683 0.949 . S
C655 C654 1.339 . S
C655 C656 1.439 . S
C655 H684 0.950 . S
C656 N652 1.383 . S
C656 C655 1.439 . S
C656 C674 1.392 1_545 S
N657 Co641 2.282 1_565 S
N657 C660 1.332 1_565 S
N657 C662 1.332 . S
C658 C659 1.424 . S
C658 C661 1.388 . S
C659 C658 1.424 . S
C659 C660 1.373 1_565 S
C659 H685 0.921 1_565 S
C660 N657 1.332 1_545 S
C660 C659 1.373 1_545 S
C660 H671 0.952 . S
C661 C658 1.388 . S
C661 C662 1.382 . S
C661 H686 0.950 . S
C662 N657 1.332 . S
C662 C661 1.382 . S
C662 H672 0.948 . S
N663 Co641 2.282 . S
N663 C667 1.332 1_545 S
N663 C668 1.332 . S
C664 C665 1.388 . S
C664 C668 1.382 . S
C664 H687 0.950 . S
C665 C664 1.388 . S
C665 C666 1.386 . S
C666 C665 1.386 . S
C666 C667 1.382 1_545 S
C666 H688 0.950 1_545 S
C667 N663 1.332 1_565 S
C667 C666 1.382 1_565 S
C667 H669 0.952 . S
C668 N663 1.332 . S
C668 C664 1.382 . S
C668 H670 0.948 . S
H669 C667 0.952 . S
H670 C668 0.948 . S
H671 C660 0.952 . S
H672 C662 0.948 . S
C673 C639 1.395 . S
C673 C643 1.391 . S
C674 C636 1.389 . S
C674 C656 1.392 1_565 S
C675 C646 1.392 1_545 S
C675 C648 1.389 . S
C676 C651 1.395 . S
C676 C653 1.391 . S
H677 C637 0.951 . S
H678 C638 0.950 . S
H679 C644 0.949 . S
H680 C645 0.950 . S
H681 C649 0.951 . S
H682 C650 0.950 . S
H683 C654 0.949 . S
H684 C655 0.950 . S
H685 C659 0.921 1_545 S
H686 C661 0.950 . S
H687 C664 0.950 . S
H688 C666 0.950 1_565 S
C689 C690 1.443 . S
C689 N693 1.376 . S
C689 C727 1.389 . S
C690 C689 1.443 . S
C690 C691 1.340 . S
C690 H730 0.951 1_565 S
C691 C690 1.340 . S
C691 C692 1.439 . S
C691 H731 0.950 . S
C692 C691 1.439 . S
C692 N693 1.374 . S
C692 C726 1.395 . S
N693 C689 1.376 . S
N693 C692 1.374 . S
N693 Co694 2.008 . S
Co694 N693 2.008 . S
Co694 N695 1.995 . S
Co694 N700 2.008 . S
Co694 N705 1.995 . S
Co694 N710 2.282 . S
Co694 N716 2.282 . S
N695 Co694 1.995 . S
N695 C696 1.376 . S
N695 C699 1.383 . S
C696 N695 1.376 . S
C696 C697 1.446 . S
C696 C726 1.391 . S
C697 C696 1.446 . S
C697 C698 1.339 . S
C697 H732 0.949 . S
C698 C697 1.339 . S
C698 C699 1.439 . S
C698 H733 0.950 . S
C699 N695 1.383 . S
C699 C698 1.439 . S
C699 C728 1.392 . S
N700 Co694 2.008 . S
N700 C701 1.376 . S
N700 C704 1.374 . S
C701 N700 1.376 . S
C701 C702 1.443 . S
C701 C728 1.389 . S
C702 C701 1.443 . S
C702 C703 1.340 . S
C702 H734 0.951 . S
C703 C702 1.340 . S
C703 C704 1.439 . S
C703 H735 0.950 . S
C704 N700 1.374 . S
C704 C703 1.439 . S
C704 C729 1.395 . S
N705 Co694 1.995 . S
N705 C706 1.376 . S
N705 C709 1.383 . S
C706 N705 1.376 . S
C706 C707 1.446 . S
C706 C729 1.391 . S
C707 C706 1.446 . S
C707 C708 1.339 . S
C707 H736 0.949 . S
C708 C707 1.339 . S
C708 C709 1.439 . S
C708 H737 0.950 . S
C709 N705 1.383 . S
C709 C708 1.439 . S
C709 C727 1.392 . S
N710 Co694 2.282 . S
N710 C713 1.332 . S
N710 C715 1.332 . S
C711 C712 1.386 . S
C711 C714 1.388 . S
C712 C711 1.386 . S
C712 C713 1.382 . S
C712 H738 0.950 . S
C713 N710 1.332 . S
C713 C712 1.382 . S
C713 H724 0.952 . S
C714 C711 1.388 . S
C714 C715 1.382 . S
C714 H739 0.950 . S
C715 N710 1.332 . S
C715 C714 1.382 . S
C715 H725 0.948 . S
N716 Co694 2.282 . S
N716 C720 1.332 . S
N716 C721 1.332 . S
C717 C718 1.388 . S
C717 C721 1.382 . S
C717 H740 0.950 . S
C718 C717 1.388 . S
C718 C719 1.386 . S
C719 C718 1.386 . S
C719 C720 1.382 . S
C719 H741 0.950 . S
C720 N716 1.332 . S
C720 C719 1.382 . S
C720 H722 0.952 . S
C721 N716 1.332 . S
C721 C717 1.382 . S
C721 H723 0.948 . S
H722 C720 0.952 . S
H723 C721 0.948 . S
H724 C713 0.952 . S
H725 C715 0.948 . S
C726 C692 1.395 . S
C726 C696 1.391 . S
C727 C689 1.389 . S
C727 C709 1.392 . S
C728 C699 1.392 . S
C728 C701 1.389 . S
C729 C704 1.395 . S
C729 C706 1.391 . S
H730 C690 0.951 1_545 S
H731 C691 0.950 . S
H732 C697 0.949 . S
H733 C698 0.950 . S
H734 C702 0.951 . S
H735 C703 0.950 . S
H736 C707 0.949 . S
H737 C708 0.950 . S
H738 C712 0.950 . S
H739 C714 0.950 . S
H740 C717 0.950 . S
H741 C719 0.950 . S
C742 C743 1.443 . S
C742 N746 1.376 . S
C742 C780 1.389 . S
C743 C742 1.443 . S
C743 C744 1.340 . S
C743 H783 0.951 . S
C744 C743 1.340 . S
C744 C745 1.439 . S
C744 H784 0.950 . S
C745 C744 1.439 . S
C745 N746 1.374 . S
C745 C779 1.395 . S
N746 C742 1.376 . S
N746 C745 1.374 . S
N746 Co747 2.008 . S
Co747 N746 2.008 . S
Co747 N748 1.995 . S
Co747 N753 2.008 . S
Co747 N758 1.995 . S
Co747 N763 2.282 . S
Co747 N769 2.282 . S
N748 Co747 1.995 . S
N748 C749 1.376 . S
N748 C752 1.383 . S
C749 N748 1.376 . S
C749 C750 1.446 . S
C749 C779 1.391 . S
C750 C749 1.446 . S
C750 C751 1.339 . S
C750 H785 0.949 . S
C751 C750 1.339 . S
C751 C752 1.439 . S
C751 H786 0.950 . S
C752 N748 1.383 . S
C752 C751 1.439 . S
C752 C781 1.392 . S
N753 Co747 2.008 . S
N753 C754 1.376 . S
N753 C757 1.374 . S
C754 N753 1.376 . S
C754 C755 1.443 . S
C754 C781 1.389 . S
C755 C754 1.443 . S
C755 C756 1.340 . S
C755 H787 0.951 . S
C756 C755 1.340 . S
C756 C757 1.439 . S
C756 H788 0.950 . S
C757 N753 1.374 . S
C757 C756 1.439 . S
C757 C782 1.395 . S
N758 Co747 1.995 . S
N758 C759 1.376 . S
N758 C762 1.383 . S
C759 N758 1.376 . S
C759 C760 1.446 . S
C759 C782 1.391 . S
C760 C759 1.446 . S
C760 C761 1.339 . S
C760 H789 0.949 . S
C761 C760 1.339 . S
C761 C762 1.439 . S
C761 H790 0.950 . S
C762 N758 1.383 . S
C762 C761 1.439 . S
C762 C780 1.392 . S
N763 Co747 2.282 . S
N763 C766 1.332 . S
N763 C768 1.332 . S
C764 C765 1.386 . S
C764 C767 1.388 . S
C765 C764 1.386 . S
C765 C766 1.382 . S
C765 H791 0.950 . S
C766 N763 1.332 . S
C766 C765 1.382 . S
C766 H777 0.952 . S
C767 C764 1.388 . S
C767 C768 1.382 . S
C767 H792 0.950 . S
C768 N763 1.332 . S
C768 C767 1.382 . S
C768 H778 0.948 . S
N769 Co747 2.282 . S
N769 C773 1.332 . S
N769 C774 1.332 . S
C770 C771 1.388 . S
C770 C774 1.382 . S
C770 H793 0.950 . S
C771 C770 1.388 . S
C771 C772 1.386 . S
C772 C771 1.386 . S
C772 C773 1.382 . S
C772 H794 0.950 . S
C773 N769 1.332 . S
C773 C772 1.382 . S
C773 H775 0.952 . S
C774 N769 1.332 . S
C774 C770 1.382 . S
C774 H776 0.948 . S
H775 C773 0.952 . S
H776 C774 0.948 . S
H777 C766 0.952 . S
H778 C768 0.948 . S
C779 C745 1.395 . S
C779 C749 1.391 . S
C780 C742 1.389 . S
C780 C762 1.392 . S
C781 C752 1.392 . S
C781 C754 1.389 . S
C782 C757 1.395 . S
C782 C759 1.391 . S
H783 C743 0.951 . S
H784 C744 0.950 . S
H785 C750 0.949 . S
H786 C751 0.950 . S
H787 C755 0.951 . S
H788 C756 0.950 . S
H789 C760 0.949 . S
H790 C761 0.950 . S
H791 C765 0.950 . S
H792 C767 0.950 . S
H793 C770 0.950 . S
H794 C772 0.950 . S
C795 C796 1.443 . S
C795 N799 1.376 . S
C795 C833 1.389 . S
C796 C795 1.443 . S
C796 C797 1.340 . S
C796 H836 0.951 . S
C797 C796 1.340 . S
C797 C798 1.439 . S
C797 H837 0.950 . S
C798 C797 1.439 . S
C798 N799 1.374 . S
C798 C832 1.395 . S
N799 C795 1.376 . S
N799 C798 1.374 . S
N799 Co800 2.008 1_655 S
Co800 N799 2.008 1_455 S
Co800 N801 1.995 1_455 S
Co800 N806 2.008 . S
Co800 N811 1.995 . S
Co800 N816 2.282 1_455 S
Co800 N822 2.282 . S
N801 Co800 1.995 1_655 S
N801 C802 1.376 . S
N801 C805 1.383 . S
C802 N801 1.376 . S
C802 C803 1.446 . S
C802 C832 1.391 . S
C803 C802 1.446 . S
C803 C804 1.339 . S
C803 H838 0.949 . S
C804 C803 1.339 . S
C804 C805 1.439 . S
C804 H839 0.950 . S
C805 N801 1.383 . S
C805 C804 1.439 . S
C805 C834 1.392 1_655 S
N806 Co800 2.008 . S
N806 C807 1.376 . S
N806 C810 1.374 . S
C807 N806 1.376 . S
C807 C808 1.443 . S
C807 C834 1.389 . S
C808 C807 1.443 . S
C808 C809 1.340 . S
C808 H840 0.951 . S
C809 C808 1.340 . S
C809 C810 1.439 . S
C809 H841 0.950 . S
C810 N806 1.374 . S
C810 C809 1.439 . S
C810 C835 1.395 . S
N811 Co800 1.995 . S
N811 C812 1.376 . S
N811 C815 1.383 . S
C812 N811 1.376 . S
C812 C813 1.446 . S
C812 C835 1.391 . S
C813 C812 1.446 . S
C813 C814 1.339 . S
C813 H842 0.949 . S
C814 C813 1.339 . S
C814 C815 1.439 . S
C814 H843 0.950 . S
C815 N811 1.383 . S
C815 C814 1.439 . S
C815 C833 1.392 1_455 S
N816 Co800 2.282 1_655 S
N816 C819 1.332 . S
N816 C821 1.332 . S
C817 C818 1.386 . S
C817 C820 1.388 . S
C818 C817 1.386 . S
C818 C819 1.382 . S
C818 H844 0.950 . S
C819 N816 1.332 . S
C819 C818 1.382 . S
C819 H830 0.952 1_655 S
C820 C817 1.388 . S
C820 C821 1.382 . S
C820 H845 0.950 . S
C821 N816 1.332 . S
C821 C820 1.382 . S
C821 H831 0.948 . S
N822 Co800 2.282 . S
N822 C826 1.332 . S
N822 C827 1.332 . S
C823 C824 1.388 . S
C823 C827 1.382 . S
C823 H846 0.950 . S
C824 C823 1.388 . S
C824 C825 1.386 . S
C825 C824 1.386 . S
C825 C826 1.382 . S
C825 H847 0.950 . S
C826 N822 1.332 . S
C826 C825 1.382 . S
C826 H828 0.952 1_455 S
C827 N822 1.332 . S
C827 C823 1.382 . S
C827 H829 0.948 . S
H828 C826 0.952 1_655 S
H829 C827 0.948 . S
H830 C819 0.952 1_455 S
H831 C821 0.948 . S
C832 C798 1.395 . S
C832 C802 1.391 . S
C833 C795 1.389 . S
C833 C815 1.392 1_655 S
C834 C805 1.392 1_455 S
C834 C807 1.389 . S
C835 C810 1.395 . S
C835 C812 1.391 . S
H836 C796 0.951 . S
H837 C797 0.950 . S
H838 C803 0.949 . S
H839 C804 0.950 . S
H840 C808 0.951 . S
H841 C809 0.950 . S
H842 C813 0.949 . S
H843 C814 0.950 . S
H844 C818 0.950 . S
H845 C820 0.950 . S
H846 C823 0.950 . S
H847 C825 0.950 . S
C848 C849 1.369 . S
C848 C850 1.419 . S
C848 H852 0.930 . S
C849 C848 1.369 . S
C849 C858 1.429 . S
C850 C848 1.419 . S
C850 C851 1.363 . S
C850 H853 0.929 . S
C851 C850 1.363 . S
C851 C857 1.428 . S
H852 C848 0.930 . S
H853 C850 0.929 . S
S854 N855 1.613 . S
S854 N856 1.610 . S
N855 S854 1.613 . S
N855 C858 1.350 . S
N856 S854 1.610 . S
N856 C857 1.351 . S
C857 C851 1.428 . S
C857 N856 1.351 . S
C857 C858 1.434 . S
C858 C849 1.429 . S
C858 N855 1.350 . S
C858 C857 1.434 . S
C859 C860 1.369 . S
C859 C861 1.419 . S
C859 H863 0.930 . S
C860 C859 1.369 . S
C860 C869 1.429 . S
C861 C859 1.419 . S
C861 C862 1.363 . S
C861 H864 0.929 . S
C862 C861 1.363 . S
C862 C868 1.428 . S
H863 C859 0.930 . S
H864 C861 0.929 . S
S865 N866 1.613 . S
S865 N867 1.610 . S
N866 S865 1.613 . S
N866 C869 1.350 . S
N867 S865 1.610 . S
N867 C868 1.351 . S
C868 C862 1.428 . S
C868 N867 1.351 . S
C868 C869 1.434 . S
C869 C860 1.429 . S
C869 N866 1.350 . S
C869 C868 1.434 . S
C870 C871 1.369 . S
C870 C872 1.419 . S
C870 H874 0.930 . S
C871 C870 1.369 . S
C871 C880 1.429 1_455 S
C872 C870 1.419 . S
C872 C873 1.363 1_455 S
C872 H875 0.929 . S
C873 C872 1.363 1_655 S
C873 C879 1.428 . S
H874 C870 0.930 . S
H875 C872 0.929 . S
S876 N877 1.613 . S
S876 N878 1.610 . S
N877 S876 1.613 . S
N877 C880 1.350 . S
N878 S876 1.610 . S
N878 C879 1.351 . S
C879 C873 1.428 . S
C879 N878 1.351 . S
C879 C880 1.434 . S
C880 C871 1.429 1_655 S
C880 N877 1.350 . S
C880 C879 1.434 . S
C881 C882 1.369 . S
C881 C883 1.419 . S
C881 H885 0.930 . S
C882 C881 1.369 . S
C882 C891 1.429 1_455 S
C883 C881 1.419 . S
C883 C884 1.363 1_455 S
C883 H886 0.929 . S
C884 C883 1.363 1_655 S
C884 C890 1.428 . S
H885 C881 0.930 . S
H886 C883 0.929 . S
S887 N888 1.613 . S
S887 N889 1.610 . S
N888 S887 1.613 . S
N888 C891 1.350 . S
N889 S887 1.610 . S
N889 C890 1.351 . S
C890 C884 1.428 . S
C890 N889 1.351 . S
C890 C891 1.434 . S
C891 C882 1.429 1_655 S
C891 N888 1.350 . S
C891 C890 1.434 . S
C892 C893 1.369 . S
C892 C894 1.419 . S
C892 H896 0.930 . S
C893 C892 1.369 . S
C893 C902 1.429 . S
C894 C892 1.419 . S
C894 C895 1.363 . S
C894 H897 0.929 . S
C895 C894 1.363 . S
C895 C901 1.428 . S
H896 C892 0.930 . S
H897 C894 0.929 . S
S898 N899 1.606 1_545 S
S898 N900 1.610 1_545 S
N899 S898 1.606 1_565 S
N899 C902 1.365 . S
N900 S898 1.610 1_565 S
N900 C901 1.351 . S
C901 C895 1.428 . S
C901 N900 1.351 . S
C901 C902 1.434 . S
C902 C893 1.429 . S
C902 N899 1.365 . S
C902 C901 1.434 . S
C903 C904 1.369 . S
C903 C905 1.419 . S
C903 H907 0.930 . S
C904 C903 1.369 . S
C904 C913 1.429 . S
C905 C903 1.419 . S
C905 C906 1.363 . S
C905 H908 0.929 . S
C906 C905 1.363 . S
C906 C912 1.428 . S
H907 C903 0.930 . S
H908 C905 0.929 . S
S909 N910 1.613 . S
S909 N911 1.610 . S
N910 S909 1.613 . S
N910 C913 1.350 . S
N911 S909 1.610 . S
N911 C912 1.351 . S
C912 C906 1.428 . S
C912 N911 1.351 . S
C912 C913 1.434 . S
C913 C904 1.429 . S
C913 N910 1.350 . S
C913 C912 1.434 . S
C914 C915 1.369 . S
C914 C916 1.419 . S
C914 H918 0.930 . S
C915 C914 1.369 . S
C915 C924 1.429 . S
C916 C914 1.419 . S
C916 C917 1.363 . S
C916 H919 0.929 . S
C917 C916 1.363 . S
C917 C923 1.428 . S
H918 C914 0.930 . S
H919 C916 0.929 . S
S920 N921 1.613 . S
S920 N922 1.610 . S
N921 S920 1.613 . S
N921 C924 1.350 . S
N922 S920 1.610 . S
N922 C923 1.351 . S
C923 C917 1.428 . S
C923 N922 1.351 . S
C923 C924 1.434 . S
C924 C915 1.429 . S
C924 N921 1.350 . S
C924 C923 1.434 . S
C925 C926 1.369 . S
C925 C927 1.419 . S
C925 H929 0.930 . S
C926 C925 1.369 . S
C926 C935 1.429 . S
C927 C925 1.419 . S
C927 C928 1.363 . S
C927 H930 0.929 . S
C928 C927 1.363 . S
C928 C934 1.428 . S
H929 C925 0.930 . S
H930 C927 0.929 . S
S931 N932 1.613 1_565 S
S931 N933 1.610 . S
N932 S931 1.613 1_545 S
N932 C935 1.350 . S
N933 S931 1.610 . S
N933 C934 1.351 1_565 S
C934 C928 1.428 . S
C934 N933 1.351 1_545 S
C934 C935 1.434 . S
C935 C926 1.429 . S
C935 N932 1.350 . S
C935 C934 1.434 . S
C936 C937 1.369 . S
C936 C938 1.419 . S
C936 H940 0.930 . S
C937 C936 1.369 . S
C937 C946 1.429 . S
C938 C936 1.419 . S
C938 C939 1.363 . S
C938 H941 0.929 . S
C939 C938 1.363 . S
C939 C945 1.428 1_565 S
H940 C936 0.930 . S
H941 C938 0.929 . S
S942 N943 1.613 . S
S942 N944 1.610 . S
N943 S942 1.613 . S
N943 C946 1.350 1_545 S
N944 S942 1.610 . S
N944 C945 1.351 . S
C945 C939 1.428 1_545 S
C945 N944 1.351 . S
C945 C946 1.434 1_545 S
C946 C937 1.429 . S
C946 N943 1.350 1_565 S
C946 C945 1.434 1_565 S
C947 C948 1.369 . S
C947 C949 1.419 . S
C947 H951 0.930 . S
C948 C947 1.369 . S
C948 C957 1.429 . S
C949 C947 1.419 . S
C949 C950 1.363 . S
C949 H952 0.929 . S
C950 C949 1.363 . S
C950 C956 1.428 . S
H951 C947 0.930 . S
H952 C949 0.929 . S
S953 N954 1.613 . S
S953 N955 1.610 . S
N954 S953 1.613 . S
N954 C957 1.350 . S
N955 S953 1.610 . S
N955 C956 1.351 . S
C956 C950 1.428 . S
C956 N955 1.351 . S
C956 C957 1.434 . S
C957 C948 1.429 . S
C957 N954 1.350 . S
C957 C956 1.434 . S
C958 C959 1.369 . S
C958 C960 1.419 . S
C958 H962 0.930 . S
C959 C958 1.369 . S
C959 C968 1.429 . S
C960 C958 1.419 . S
C960 C961 1.363 . S
C960 H963 0.929 . S
C961 C960 1.363 . S
C961 C967 1.428 . S
H962 C958 0.930 . S
H963 C960 0.929 . S
S964 N965 1.613 . S
S964 N966 1.610 . S
N965 S964 1.613 . S
N965 C968 1.350 . S
N966 S964 1.610 . S
N966 C967 1.351 . S
C967 C961 1.428 . S
C967 N966 1.351 . S
C967 C968 1.434 . S
C968 C959 1.429 . S
C968 N965 1.350 . S
C968 C967 1.434 . S
C969 C970 1.369 1_455 S
C969 C971 1.419 . S
C969 H973 0.930 . S
C970 C969 1.369 1_655 S
C970 C979 1.429 . S
C971 C969 1.419 . S
C971 C972 1.363 1_455 S
C971 H974 0.929 . S
C972 C971 1.363 1_655 S
C972 C978 1.428 . S
H973 C969 0.930 . S
H974 C971 0.929 . S
S975 N976 1.613 . S
S975 N977 1.610 . S
N976 S975 1.613 . S
N976 C979 1.350 . S
N977 S975 1.610 . S
N977 C978 1.351 . S
C978 C972 1.428 . S
C978 N977 1.351 . S
C978 C979 1.434 . S
C979 C970 1.429 . S
C979 N976 1.350 . S
C979 C978 1.434 . S
C980 C981 1.369 . S
C980 C982 1.419 . S
C980 H984 0.930 . S
C981 C980 1.369 . S
C981 C990 1.429 . S
C982 C980 1.419 . S
C982 C983 1.363 . S
C982 H985 0.929 . S
C983 C982 1.363 . S
C983 C989 1.428 . S
H984 C980 0.930 . S
H985 C982 0.929 . S
S986 N987 1.613 . S
S986 N988 1.610 . S
N987 S986 1.613 . S
N987 C990 1.350 . S
N988 S986 1.610 . S
N988 C989 1.351 . S
C989 C983 1.428 . S
C989 N988 1.351 . S
C989 C990 1.434 . S
C990 C981 1.429 . S
C990 N987 1.350 . S
C990 C989 1.434 . S
C991 C992 1.369 . S
C991 C993 1.419 . S
C991 H995 0.930 . S
C992 C991 1.369 . S
C992 C1001 1.429 . S
C993 C991 1.419 . S
C993 C994 1.363 . S
C993 H996 0.929 . S
C994 C993 1.363 . S
C994 C1000 1.428 . S
H995 C991 0.930 . S
H996 C993 0.929 . S
S997 N998 1.613 . S
S997 N999 1.610 . S
N998 S997 1.613 . S
N998 C1001 1.350 . S
N999 S997 1.610 . S
N999 C1000 1.351 . S
C1000 C994 1.428 . S
C1000 N999 1.351 . S
C1000 C1001 1.434 . S
C1001 C992 1.429 . S
C1001 N998 1.350 . S
C1001 C1000 1.434 . S
C1002 C1003 1.369 . S
C1002 C1004 1.419 . S
C1002 H1006 0.930 . S
C1003 C1002 1.369 . S
C1003 C1012 1.429 . S
C1004 C1002 1.419 . S
C1004 C1005 1.363 . S
C1004 H1007 0.929 . S
C1005 C1004 1.363 . S
C1005 C1011 1.428 . S
H1006 C1002 0.930 . S
H1007 C1004 0.929 . S
S1008 N1009 1.613 . S
S1008 N1010 1.610 . S
N1009 S1008 1.613 . S
N1009 C1012 1.350 . S
N1010 S1008 1.610 . S
N1010 C1011 1.351 . S
C1011 C1005 1.428 . S
C1011 N1010 1.351 . S
C1011 C1012 1.434 . S
C1012 C1003 1.429 . S
C1012 N1009 1.350 . S
C1012 C1011 1.434 . S
C1013 C1014 1.369 1_655 S
C1013 C1015 1.419 . S
C1013 H1017 0.930 . S
C1014 C1013 1.369 1_455 S
C1014 C1023 1.429 . S
C1015 C1013 1.419 . S
C1015 C1016 1.363 1_655 S
C1015 H1018 0.929 . S
C1016 C1015 1.363 1_455 S
C1016 C1022 1.428 . S
H1017 C1013 0.930 . S
H1018 C1015 0.929 . S
S1019 N1020 1.613 . S
S1019 N1021 1.610 . S
N1020 S1019 1.613 . S
N1020 C1023 1.350 . S
N1021 S1019 1.610 . S
N1021 C1022 1.351 . S
C1022 C1016 1.428 . S
C1022 N1021 1.351 . S
C1022 C1023 1.434 . S
C1023 C1014 1.429 . S
C1023 N1020 1.350 . S
C1023 C1022 1.434 . S
C1024 C1025 1.369 . S
C1024 C1026 1.419 . S
C1024 H1028 0.930 . S
C1025 C1024 1.369 . S
C1025 C1034 1.429 . S
C1026 C1024 1.419 . S
C1026 C1027 1.363 . S
C1026 H1029 0.929 . S
C1027 C1026 1.363 . S
C1027 C1033 1.428 . S
H1028 C1024 0.930 . S
H1029 C1026 0.929 . S
S1030 N1031 1.613 . S
S1030 N1032 1.598 1_565 S
N1031 S1030 1.613 . S
N1031 C1034 1.350 1_565 S
N1032 S1030 1.598 1_545 S
N1032 C1033 1.360 . S
C1033 C1027 1.428 . S
C1033 N1032 1.360 . S
C1033 C1034 1.434 . S
C1034 C1025 1.429 . S
C1034 N1031 1.350 1_545 S
C1034 C1033 1.434 . S
C1035 C1036 1.369 . S
C1035 C1037 1.419 . S
C1035 H1039 0.930 . S
C1036 C1035 1.369 . S
C1036 C1045 1.429 . S
C1037 C1035 1.419 . S
C1037 C1038 1.363 . S
C1037 H1040 0.929 . S
C1038 C1037 1.363 . S
C1038 C1044 1.428 . S
H1039 C1035 0.930 . S
H1040 C1037 0.929 . S
S1041 N1042 1.613 . S
S1041 N1043 1.610 . S
N1042 S1041 1.613 . S
N1042 C1045 1.350 . S
N1043 S1041 1.610 . S
N1043 C1044 1.351 . S
C1044 C1038 1.428 . S
C1044 N1043 1.351 . S
C1044 C1045 1.434 . S
C1045 C1036 1.429 . S
C1045 N1042 1.350 . S
C1045 C1044 1.434 . S
C1046 C1047 1.369 . S
C1046 C1048 1.419 . S
C1046 H1050 0.930 . S
C1047 C1046 1.369 . S
C1047 C1056 1.429 . S
C1048 C1046 1.419 . S
C1048 C1049 1.363 . S
C1048 H1051 0.929 . S
C1049 C1048 1.363 . S
C1049 C1055 1.428 . S
H1050 C1046 0.930 . S
H1051 C1048 0.929 . S
S1052 N1053 1.613 . S
S1052 N1054 1.610 . S
N1053 S1052 1.613 . S
N1053 C1056 1.350 . S
N1054 S1052 1.610 . S
N1054 C1055 1.351 . S
C1055 C1049 1.428 . S
C1055 N1054 1.351 . S
C1055 C1056 1.434 . S
C1056 C1047 1.429 . S
C1056 N1053 1.350 . S
C1056 C1055 1.434 . S
C1057 C1058 1.369 . S
C1057 C1059 1.419 . S
C1057 H1061 0.930 . S
C1058 C1057 1.369 . S
C1058 C1067 1.429 . S
C1059 C1057 1.419 . S
C1059 C1060 1.363 . S
C1059 H1062 0.929 1_455 S
C1060 C1059 1.363 . S
C1060 C1066 1.428 . S
H1061 C1057 0.930 . S
H1062 C1059 0.929 1_655 S
S1063 N1064 1.613 . S
S1063 N1065 1.610 . S
N1064 S1063 1.613 . S
N1064 C1067 1.350 . S
N1065 S1063 1.610 . S
N1065 C1066 1.351 . S
C1066 C1060 1.428 . S
C1066 N1065 1.351 . S
C1066 C1067 1.434 . S
C1067 C1058 1.429 . S
C1067 N1064 1.350 . S
C1067 C1066 1.434 . S
C1068 C1069 1.369 . S
C1068 C1070 1.419 . S
C1068 H1072 0.930 . S
C1069 C1068 1.369 . S
C1069 C1078 1.429 . S
C1070 C1068 1.419 . S
C1070 C1071 1.363 . S
C1070 H1073 0.929 . S
C1071 C1070 1.363 . S
C1071 C1077 1.428 . S
H1072 C1068 0.930 . S
H1073 C1070 0.929 . S
S1074 N1075 1.613 . S
S1074 N1076 1.610 . S
N1075 S1074 1.613 . S
N1075 C1078 1.350 . S
N1076 S1074 1.610 . S
N1076 C1077 1.351 . S
C1077 C1071 1.428 . S
C1077 N1076 1.351 . S
C1077 C1078 1.434 . S
C1078 C1069 1.429 . S
C1078 N1075 1.350 . S
C1078 C1077 1.434 . S
C1079 C1080 1.369 . S
C1079 C1081 1.419 . S
C1079 H1083 0.930 . S
C1080 C1079 1.369 . S
C1080 C1089 1.429 . S
C1081 C1079 1.419 . S
C1081 C1082 1.363 . S
C1081 H1084 0.929 . S
C1082 C1081 1.363 . S
C1082 C1088 1.428 . S
H1083 C1079 0.930 . S
H1084 C1081 0.929 . S
S1085 N1086 1.613 . S
S1085 N1087 1.610 . S
N1086 S1085 1.613 . S
N1086 C1089 1.350 . S
N1087 S1085 1.610 . S
N1087 C1088 1.351 . S
C1088 C1082 1.428 . S
C1088 N1087 1.351 . S
C1088 C1089 1.434 . S
C1089 C1080 1.429 . S
C1089 N1086 1.350 . S
C1089 C1088 1.434 . S
C1090 C1091 1.369 . S
C1090 C1092 1.419 . S
C1090 H1094 0.930 . S
C1091 C1090 1.369 . S
C1091 C1100 1.429 . S
C1092 C1090 1.419 . S
C1092 C1093 1.363 . S
C1092 H1095 0.929 . S
C1093 C1092 1.363 . S
C1093 C1099 1.428 . S
H1094 C1090 0.930 . S
H1095 C1092 0.929 . S
S1096 N1097 1.613 . S
S1096 N1098 1.610 . S
N1097 S1096 1.613 . S
N1097 C1100 1.350 . S
N1098 S1096 1.610 . S
N1098 C1099 1.351 . S
C1099 C1093 1.428 . S
C1099 N1098 1.351 . S
C1099 C1100 1.434 . S
C1100 C1091 1.429 . S
C1100 N1097 1.350 . S
C1100 C1099 1.434 . S
C1101 C1102 1.369 . S
C1101 C1103 1.419 . S
C1101 H1105 0.930 . S
C1102 C1101 1.369 . S
C1102 C1111 1.429 . S
C1103 C1101 1.419 . S
C1103 C1104 1.363 . S
C1103 H1106 0.929 . S
C1104 C1103 1.363 . S
C1104 C1110 1.428 . S
H1105 C1101 0.930 . S
H1106 C1103 0.929 . S
S1107 N1108 1.613 . S
S1107 N1109 1.610 1_455 S
N1108 S1107 1.613 . S
N1108 C1111 1.350 1_455 S
N1109 S1107 1.610 1_655 S
N1109 C1110 1.351 . S
C1110 C1104 1.428 . S
C1110 N1109 1.351 . S
C1110 C1111 1.434 . S
C1111 C1102 1.429 . S
C1111 N1108 1.350 1_655 S
C1111 C1110 1.434 . S
C1112 C1113 1.369 . S
C1112 C1114 1.419 . S
C1112 H1116 0.930 1_554 S
C1113 C1112 1.369 . S
C1113 C1122 1.429 1_545 S
C1114 C1112 1.419 . S
C1114 C1115 1.372 . S
C1114 H1117 0.929 1_554 S
C1115 C1114 1.372 . S
C1115 C1121 1.422 1_545 S
H1116 C1112 0.930 1_556 S
H1117 C1114 0.929 1_556 S
S1118 N1119 1.613 . S
S1118 N1120 1.610 . S
N1119 S1118 1.613 . S
N1119 C1122 1.350 . S
N1120 S1118 1.610 . S
N1120 C1121 1.351 . S
C1121 C1115 1.422 1_565 S
C1121 N1120 1.351 . S
C1121 C1122 1.434 . S
C1122 C1113 1.429 1_565 S
C1122 N1119 1.350 . S
C1122 C1121 1.434 . S
C1123 C1124 1.369 . S
C1123 C1125 1.419 . S
C1123 H1127 0.930 . S
C1124 C1123 1.369 . S
C1124 C1133 1.429 . S
C1125 C1123 1.419 . S
C1125 C1126 1.363 . S
C1125 H1128 0.929 . S
C1126 C1125 1.363 . S
C1126 C1132 1.428 . S
H1127 C1123 0.930 . S
H1128 C1125 0.929 . S
S1129 N1130 1.613 . S
S1129 N1131 1.610 . S
N1130 S1129 1.613 . S
N1130 C1133 1.350 . S
N1131 S1129 1.610 . S
N1131 C1132 1.351 . S
C1132 C1126 1.428 . S
C1132 N1131 1.351 . S
C1132 C1133 1.434 . S
C1133 C1124 1.429 . S
C1133 N1130 1.350 . S
C1133 C1132 1.434 . S
C1134 C1135 1.369 1_556 S
C1134 C1136 1.419 . S
C1134 H1138 0.930 . S
C1135 C1134 1.369 1_554 S
C1135 C1144 1.429 . S
C1136 C1134 1.419 . S
C1136 C1137 1.363 1_556 S
C1136 H1139 0.929 . S
C1137 C1136 1.363 1_554 S
C1137 C1143 1.428 . S
H1138 C1134 0.930 . S
H1139 C1136 0.929 . S
S1140 N1141 1.613 . S
S1140 N1142 1.610 . S
N1141 S1140 1.613 . S
N1141 C1144 1.350 . S
N1142 S1140 1.610 . S
N1142 C1143 1.351 . S
C1143 C1137 1.428 . S
C1143 N1142 1.351 . S
C1143 C1144 1.434 . S
C1144 C1135 1.429 . S
C1144 N1141 1.350 . S
C1144 C1143 1.434 . S
C1145 C1146 1.392 . S
C1145 C1147 1.419 1_545 S
C1145 H1149 0.930 . S
C1146 C1145 1.392 . S
C1146 C1155 1.406 1_655 S
C1147 C1145 1.419 1_565 S
C1147 C1148 1.370 . S
C1147 H1150 0.929 . S
C1148 C1147 1.370 . S
C1148 C1154 1.421 1_655 S
H1149 C1145 0.930 . S
H1150 C1147 0.929 . S
S1151 N1152 1.613 1_565 S
S1151 N1153 1.610 . S
N1152 S1151 1.613 1_545 S
N1152 C1155 1.350 . S
N1153 S1151 1.610 . S
N1153 C1154 1.351 . S
C1154 C1148 1.421 1_455 S
C1154 N1153 1.351 . S
C1154 C1155 1.434 1_565 S
C1155 C1146 1.406 1_455 S
C1155 N1152 1.350 . S
C1155 C1154 1.434 1_545 S
C1156 C1157 1.369 1_545 S
C1156 C1158 1.419 . S
C1156 H1160 0.930 . S
C1157 C1156 1.369 1_565 S
C1157 C1166 1.429 . S
C1158 C1156 1.419 . S
C1158 C1159 1.363 1_545 S
C1158 H1161 0.929 . S
C1159 C1158 1.363 1_565 S
C1159 C1165 1.428 . S
H1160 C1156 0.930 . S
H1161 C1158 0.929 . S
S1162 N1163 1.613 . S
S1162 N1164 1.610 . S
N1163 S1162 1.613 . S
N1163 C1166 1.350 . S
N1164 S1162 1.610 . S
N1164 C1165 1.351 . S
C1165 C1159 1.428 . S
C1165 N1164 1.351 . S
C1165 C1166 1.434 . S
C1166 C1157 1.429 . S
C1166 N1163 1.350 . S
C1166 C1165 1.434 . S
C1167 C1168 1.369 . S
C1167 C1169 1.419 . S
C1167 H1171 0.930 1_545 S
C1168 C1167 1.369 . S
C1168 C1177 1.429 . S
C1169 C1167 1.419 . S
C1169 C1170 1.363 . S
C1169 H1172 0.929 . S
C1170 C1169 1.363 . S
C1170 C1176 1.428 . S
H1171 C1167 0.930 1_565 S
H1172 C1169 0.929 . S
S1173 N1174 1.613 . S
S1173 N1175 1.610 . S
N1174 S1173 1.613 . S
N1174 C1177 1.350 . S
N1175 S1173 1.610 . S
N1175 C1176 1.351 . S
C1176 C1170 1.428 . S
C1176 N1175 1.351 . S
C1176 C1177 1.434 . S
C1177 C1168 1.429 . S
C1177 N1174 1.350 . S
C1177 C1176 1.434 . S
C1178 C1179 1.369 . S
C1178 C1180 1.419 . S
C1178 H1182 0.930 . S
C1179 C1178 1.369 . S
C1179 C1188 1.429 . S
C1180 C1178 1.419 . S
C1180 C1181 1.363 . S
C1180 H1183 0.929 . S
C1181 C1180 1.363 . S
C1181 C1187 1.428 . S
H1182 C1178 0.930 . S
H1183 C1180 0.929 . S
S1184 N1185 1.613 . S
S1184 N1186 1.610 . S
N1185 S1184 1.613 . S
N1185 C1188 1.350 . S
N1186 S1184 1.610 . S
N1186 C1187 1.351 . S
C1187 C1181 1.428 . S
C1187 N1186 1.351 . S
C1187 C1188 1.434 . S
C1188 C1179 1.429 . S
C1188 N1185 1.350 . S
C1188 C1187 1.434 . S
C1189 C1190 1.362 1_455 S
C1189 C1191 1.419 . S
C1189 H1193 0.930 . S
C1190 C1189 1.362 1_655 S
C1190 C1199 1.436 . S
C1191 C1189 1.419 . S
C1191 C1192 1.365 . S
C1191 H1194 0.929 . S
C1192 C1191 1.365 . S
C1192 C1198 1.426 1_455 S
H1193 C1189 0.930 . S
H1194 C1191 0.929 . S
S1195 N1196 1.613 . S
S1195 N1197 1.610 . S
N1196 S1195 1.613 . S
N1196 C1199 1.350 . S
N1197 S1195 1.610 . S
N1197 C1198 1.351 . S
C1198 C1192 1.426 1_655 S
C1198 N1197 1.351 . S
C1198 C1199 1.434 . S
C1199 C1190 1.436 . S
C1199 N1196 1.350 . S
C1199 C1198 1.434 . S
C849 C303 1.305 . S
C851 C29 1.231 . S
C860 C347 1.419 . S
C862 C91 1.486 . S
C871 C135 1.199 . S
C873 C409 1.344 . S
C882 C197 1.066 . S
C884 C241 0.955 . S
C893 C453 1.455 . S
C895 C718 1.319 . S
C904 C771 1.734 . S
C906 C506 1.695 . S
C915 C824 1.608 . S
C917 C559 1.608 . S
C926 C612 1.113 . S
C928 C665 1.192 . S
C937 C22 2.371 . S
C939 C675 2.464 1_565 S
C948 C728 2.191 . S
C950 C92 2.162 . S
C959 C128 2.592 . S
C961 C781 2.705 . S
C970 C198 1.997 . S
C972 C834 1.992 1_655 S
C981 C234 2.405 . S
C983 C463 2.494 1_545 S
C992 C304 2.426 . S
C994 C516 2.473 . S
C1003 C340 2.415 . S
C1005 C569 2.492 . S
C1014 C410 1.768 . S
C1016 C622 1.745 . S
C1025 C251 1.403 . S
C1027 C446 1.440 . S
C1036 C287 2.084 . S
C1038 C499 2.064 . S
C1047 C357 2.224 . S
C1049 C552 2.141 . S
C1058 C605 2.091 . S
C1060 C393 2.165 1_455 S
C1069 C39 1.694 . S
C1071 C658 1.689 . S
C1080 C711 2.212 . S
C1082 C75 2.284 . S
C1091 C764 1.817 . S
C1093 C145 1.849 . S
C1102 C181 2.099 1_655 S
C1104 C817 2.048 . S
C1113 C462 1.703 . S
C1115 C38 1.747 . S
C1124 C515 2.275 . S
C1126 C82 2.194 . S
C1135 C144 2.493 1_554 S
C1137 C568 2.414 . S
C1146 C621 2.069 . S
C1148 C188 2.024 1_655 S
C1157 C250 2.065 . S
C1159 C674 2.000 . S
C1168 C727 2.578 1_545 S
C1170 C294 2.474 . S
C1179 C780 2.089 . S
C1181 C356 2.150 . S
C1190 C833 1.747 . S
C1192 C400 1.710 . S
