# Generated by pormake.
# Topology ukj, (4)-cn, num edge types: 1
# Building blocks:
#     Node 0, Type 0, BuildingBlock: CEKHIL_clean_sbu_0, # of connection points: 4
#     Node 1, Type 0, BuildingBlock: CEKHIL_clean_sbu_0, # of connection points: 4
#     Node 2, Type 0, BuildingBlock: CEKHIL_clean_sbu_0, # of connection points: 4
#     Node 3, Type 0, BuildingBlock: CEKHIL_clean_sbu_0, # of connection points: 4
#     Node 4, Type 0, BuildingBlock: CEKHIL_clean_sbu_0, # of connection points: 4
#     Node 5, Type 0, BuildingBlock: CEKHIL_clean_sbu_0, # of connection points: 4
#     Node 6, Type 0, BuildingBlock: CEKHIL_clean_sbu_0, # of connection points: 4
#     Node 7, Type 0, BuildingBlock: CEKHIL_clean_sbu_0, # of connection points: 4
#     Node 8, Type 0, BuildingBlock: CEKHIL_clean_sbu_0, # of connection points: 4
#     Node 9, Type 0, BuildingBlock: CEKHIL_clean_sbu_0, # of connection points: 4
#     Node 10, Type 0, BuildingBlock: CEKHIL_clean_sbu_0, # of connection points: 4
#     Node 11, Type 0, BuildingBlock: CEKHIL_clean_sbu_0, # of connection points: 4
#     Node 12, Type 0, BuildingBlock: CEKHIL_clean_sbu_0, # of connection points: 4
#     Node 13, Type 0, BuildingBlock: CEKHIL_clean_sbu_0, # of connection points: 4
#     Node 14, Type 0, BuildingBlock: CEKHIL_clean_sbu_0, # of connection points: 4
#     Node 15, Type 0, BuildingBlock: CEKHIL_clean_sbu_0, # of connection points: 4
#     Node 16, Type 0, BuildingBlock: CEKHIL_clean_sbu_0, # of connection points: 4
#     Node 17, Type 0, BuildingBlock: CEKHIL_clean_sbu_0, # of connection points: 4
#     Node 18, Type 0, BuildingBlock: CEKHIL_clean_sbu_0, # of connection points: 4
#     Node 19, Type 0, BuildingBlock: CEKHIL_clean_sbu_0, # of connection points: 4
#     Node 20, Type 0, BuildingBlock: CEKHIL_clean_sbu_0, # of connection points: 4
#     Node 21, Type 0, BuildingBlock: CEKHIL_clean_sbu_0, # of connection points: 4
#     Node 22, Type 0, BuildingBlock: CEKHIL_clean_sbu_0, # of connection points: 4
#     Node 23, Type 0, BuildingBlock: CEKHIL_clean_sbu_0, # of connection points: 4
#     Node 24, Type 0, BuildingBlock: CEKHIL_clean_sbu_0, # of connection points: 4
#     Node 25, Type 0, BuildingBlock: CEKHIL_clean_sbu_0, # of connection points: 4
#     Node 26, Type 0, BuildingBlock: CEKHIL_clean_sbu_0, # of connection points: 4
#     Node 27, Type 0, BuildingBlock: CEKHIL_clean_sbu_0, # of connection points: 4
#     Node 28, Type 0, BuildingBlock: CEKHIL_clean_sbu_0, # of connection points: 4
#     Node 29, Type 0, BuildingBlock: CEKHIL_clean_sbu_0, # of connection points: 4
#     Node 30, Type 0, BuildingBlock: CEKHIL_clean_sbu_0, # of connection points: 4
#     Node 31, Type 0, BuildingBlock: CEKHIL_clean_sbu_0, # of connection points: 4
#     Edge 32, Type (0, 0), BuildingBlock: UVAHIK_clean_linker_0, # of connection points: 2
#     Edge 33, Type (0, 0), BuildingBlock: UVAHIK_clean_linker_0, # of connection points: 2
#     Edge 34, Type (0, 0), BuildingBlock: UVAHIK_clean_linker_0, # of connection points: 2
#     Edge 35, Type (0, 0), BuildingBlock: UVAHIK_clean_linker_0, # of connection points: 2
#     Edge 36, Type (0, 0), BuildingBlock: UVAHIK_clean_linker_0, # of connection points: 2
#     Edge 37, Type (0, 0), BuildingBlock: UVAHIK_clean_linker_0, # of connection points: 2
#     Edge 38, Type (0, 0), BuildingBlock: UVAHIK_clean_linker_0, # of connection points: 2
#     Edge 39, Type (0, 0), BuildingBlock: UVAHIK_clean_linker_0, # of connection points: 2
#     Edge 40, Type (0, 0), BuildingBlock: UVAHIK_clean_linker_0, # of connection points: 2
#     Edge 41, Type (0, 0), BuildingBlock: UVAHIK_clean_linker_0, # of connection points: 2
#     Edge 42, Type (0, 0), BuildingBlock: UVAHIK_clean_linker_0, # of connection points: 2
#     Edge 43, Type (0, 0), BuildingBlock: UVAHIK_clean_linker_0, # of connection points: 2
#     Edge 44, Type (0, 0), BuildingBlock: UVAHIK_clean_linker_0, # of connection points: 2
#     Edge 45, Type (0, 0), BuildingBlock: UVAHIK_clean_linker_0, # of connection points: 2
#     Edge 46, Type (0, 0), BuildingBlock: UVAHIK_clean_linker_0, # of connection points: 2
#     Edge 47, Type (0, 0), BuildingBlock: UVAHIK_clean_linker_0, # of connection points: 2
#     Edge 48, Type (0, 0), BuildingBlock: UVAHIK_clean_linker_0, # of connection points: 2
#     Edge 49, Type (0, 0), BuildingBlock: UVAHIK_clean_linker_0, # of connection points: 2
#     Edge 50, Type (0, 0), BuildingBlock: UVAHIK_clean_linker_0, # of connection points: 2
#     Edge 51, Type (0, 0), BuildingBlock: UVAHIK_clean_linker_0, # of connection points: 2
#     Edge 52, Type (0, 0), BuildingBlock: UVAHIK_clean_linker_0, # of connection points: 2
#     Edge 53, Type (0, 0), BuildingBlock: UVAHIK_clean_linker_0, # of connection points: 2
#     Edge 54, Type (0, 0), BuildingBlock: UVAHIK_clean_linker_0, # of connection points: 2
#     Edge 55, Type (0, 0), BuildingBlock: UVAHIK_clean_linker_0, # of connection points: 2
#     Edge 56, Type (0, 0), BuildingBlock: UVAHIK_clean_linker_0, # of connection points: 2
#     Edge 57, Type (0, 0), BuildingBlock: UVAHIK_clean_linker_0, # of connection points: 2
#     Edge 58, Type (0, 0), BuildingBlock: UVAHIK_clean_linker_0, # of connection points: 2
#     Edge 59, Type (0, 0), BuildingBlock: UVAHIK_clean_linker_0, # of connection points: 2
#     Edge 60, Type (0, 0), BuildingBlock: UVAHIK_clean_linker_0, # of connection points: 2
#     Edge 61, Type (0, 0), BuildingBlock: UVAHIK_clean_linker_0, # of connection points: 2
#     Edge 62, Type (0, 0), BuildingBlock: UVAHIK_clean_linker_0, # of connection points: 2
#     Edge 63, Type (0, 0), BuildingBlock: UVAHIK_clean_linker_0, # of connection points: 2
#     Edge 64, Type (0, 0), BuildingBlock: UVAHIK_clean_linker_0, # of connection points: 2
#     Edge 65, Type (0, 0), BuildingBlock: UVAHIK_clean_linker_0, # of connection points: 2
#     Edge 66, Type (0, 0), BuildingBlock: UVAHIK_clean_linker_0, # of connection points: 2
#     Edge 67, Type (0, 0), BuildingBlock: UVAHIK_clean_linker_0, # of connection points: 2
#     Edge 68, Type (0, 0), BuildingBlock: UVAHIK_clean_linker_0, # of connection points: 2
#     Edge 69, Type (0, 0), BuildingBlock: UVAHIK_clean_linker_0, # of connection points: 2
#     Edge 70, Type (0, 0), BuildingBlock: UVAHIK_clean_linker_0, # of connection points: 2
#     Edge 71, Type (0, 0), BuildingBlock: UVAHIK_clean_linker_0, # of connection points: 2
#     Edge 72, Type (0, 0), BuildingBlock: UVAHIK_clean_linker_0, # of connection points: 2
#     Edge 73, Type (0, 0), BuildingBlock: UVAHIK_clean_linker_0, # of connection points: 2
#     Edge 74, Type (0, 0), BuildingBlock: UVAHIK_clean_linker_0, # of connection points: 2
#     Edge 75, Type (0, 0), BuildingBlock: UVAHIK_clean_linker_0, # of connection points: 2
#     Edge 76, Type (0, 0), BuildingBlock: UVAHIK_clean_linker_0, # of connection points: 2
#     Edge 77, Type (0, 0), BuildingBlock: UVAHIK_clean_linker_0, # of connection points: 2
#     Edge 78, Type (0, 0), BuildingBlock: UVAHIK_clean_linker_0, # of connection points: 2
#     Edge 79, Type (0, 0), BuildingBlock: UVAHIK_clean_linker_0, # of connection points: 2
#     Edge 80, Type (0, 0), BuildingBlock: UVAHIK_clean_linker_0, # of connection points: 2
#     Edge 81, Type (0, 0), BuildingBlock: UVAHIK_clean_linker_0, # of connection points: 2
#     Edge 82, Type (0, 0), BuildingBlock: UVAHIK_clean_linker_0, # of connection points: 2
#     Edge 83, Type (0, 0), BuildingBlock: UVAHIK_clean_linker_0, # of connection points: 2
#     Edge 84, Type (0, 0), BuildingBlock: UVAHIK_clean_linker_0, # of connection points: 2
#     Edge 85, Type (0, 0), BuildingBlock: UVAHIK_clean_linker_0, # of connection points: 2
#     Edge 86, Type (0, 0), BuildingBlock: UVAHIK_clean_linker_0, # of connection points: 2
#     Edge 87, Type (0, 0), BuildingBlock: UVAHIK_clean_linker_0, # of connection points: 2
#     Edge 88, Type (0, 0), BuildingBlock: UVAHIK_clean_linker_0, # of connection points: 2
#     Edge 89, Type (0, 0), BuildingBlock: UVAHIK_clean_linker_0, # of connection points: 2
#     Edge 90, Type (0, 0), BuildingBlock: UVAHIK_clean_linker_0, # of connection points: 2
#     Edge 91, Type (0, 0), BuildingBlock: UVAHIK_clean_linker_0, # of connection points: 2
#     Edge 92, Type (0, 0), BuildingBlock: UVAHIK_clean_linker_0, # of connection points: 2
#     Edge 93, Type (0, 0), BuildingBlock: UVAHIK_clean_linker_0, # of connection points: 2
#     Edge 94, Type (0, 0), BuildingBlock: UVAHIK_clean_linker_0, # of connection points: 2
#     Edge 95, Type (0, 0), BuildingBlock: UVAHIK_clean_linker_0, # of connection points: 2
# Relax obj value: 0.081
# Max RMSD: 0.175
# Mean RMSD: 0.174
data_MOF--net-ukj--node1-CEKHIL_clean_sbu_0--edge1-UVAHIK_clean_linker_0
_symmetry_space_group_name_H-M    P1
_symmetry_Int_Tables_number       1
_symmetry_cell_setting            triclinic
loop_
_symmetry_equiv_pos_as_xyz
'x, y, z'
_cell_length_a     39.971622
_cell_length_b     81.583976
_cell_length_c     72.858089
_cell_angle_alpha  89.964933
_cell_angle_beta   89.992074
_cell_angle_gamma 90.00376
loop_
_atom_site_label
_atom_site_type_symbol
_atom_site_fract_x
_atom_site_fract_y
_atom_site_fract_z
_atom_type_partial_charge
Co0 Co 0.13736 0.34522 0.2407 0.0
O1 O 0.09414 0.33515 0.24066 0.0
O2 O 0.13952 0.32393 0.22862 0.0
C3 C 0.13687 0.35225 0.27038 0.0
O4 O 0.18638 0.35256 0.23904 0.0
Co5 Co 0.13955 0.38278 0.24848 0.0
O6 O 0.18842 0.37907 0.24798 0.0
C7 C 0.11978 0.37119 0.21196 0.0
C8 C 0.10773 0.32278 0.23245 0.0
C9 C 0.20257 0.36587 0.24273 0.0
O10 O 0.12675 0.35644 0.21688 0.0
O11 O 0.12091 0.38343 0.22292 0.0
O12 O 0.14537 0.33755 0.2655 0.0
O13 O 0.12546 0.36157 0.25746 0.0
Co14 Co 0.12234 0.90801 0.24107 0.0
O15 O 0.16531 0.91829 0.24032 0.0
O16 O 0.11903 0.92951 0.22942 0.0
C17 C 0.12515 0.90069 0.27065 0.0
O18 O 0.07343 0.90033 0.24027 0.0
Co19 Co 0.12132 0.87046 0.2485 0.0
O20 O 0.07281 0.87456 0.25147 0.0
C21 C 0.13708 0.88242 0.21146 0.0
C22 C 0.151 0.93077 0.23271 0.0
C23 C 0.05771 0.88735 0.24572 0.0
O24 O 0.13129 0.89714 0.21687 0.0
O25 O 0.13671 0.87003 0.22226 0.0
O26 O 0.11582 0.91536 0.26608 0.0
O27 O 0.1359 0.89158 0.25739 0.0
Co28 Co 0.1346 0.90508 0.98895 0.0
O29 O 0.09099 0.9147 0.98784 0.0
O30 O 0.13487 0.92653 0.00074 0.0
C31 C 0.13654 0.89761 0.9594 0.0
O32 O 0.18375 0.89831 -0.00817 0.0
Co33 Co 0.13901 0.86745 0.98191 0.0
O34 O 0.18763 0.8717 0.98353 0.0
C35 C 0.11664 0.87929 0.01787 0.0
C36 C 0.10336 0.92732 -0.00383 0.0
C37 C 0.20078 0.88512 0.98883 0.0
O38 O 0.12287 0.89407 0.01275 0.0
O39 O 0.11914 0.86691 0.00718 0.0
O40 O 0.14408 0.91247 0.96419 0.0
O41 O 0.12463 0.88837 0.97226 0.0
Co42 Co 0.12382 0.34527 0.98787 0.0
O43 O 0.16664 0.33489 0.98894 0.0
O44 O 0.11977 0.32367 -0.00088 0.0
C45 C 0.12791 0.35294 0.95844 0.0
O46 O 0.07497 0.353 0.98831 0.0
Co47 Co 0.12371 0.38297 0.98113 0.0
O48 O 0.07469 0.37972 0.9802 0.0
C49 C 0.1379 0.37039 0.01808 0.0
C50 C 0.15185 0.32237 -0.00382 0.0
C51 C 0.05957 0.36656 0.98473 0.0
O52 O 0.13189 0.35579 0.01235 0.0
O53 O 0.13843 0.38292 0.00749 0.0
O54 O 0.11826 0.33825 0.96269 0.0
O55 O 0.13814 0.36191 0.97194 0.0
Co56 Co 0.87043 0.65789 0.7385 0.0
O57 O 0.91341 0.66769 0.74215 0.0
O58 O 0.86546 0.67963 0.74926 0.0
C59 C 0.87995 0.65005 0.70951 0.0
O60 O 0.82133 0.65088 0.73587 0.0
Co61 Co 0.86858 0.62023 0.73151 0.0
O62 O 0.82173 0.62514 0.72463 0.0
C63 C 0.8761 0.63254 0.76926 0.0
C64 C 0.89798 0.68054 0.74815 0.0
C65 C 0.80623 0.63817 0.72926 0.0
O66 O 0.8727 0.6473 0.76336 0.0
O67 O 0.87756 0.62005 0.75864 0.0
O68 O 0.87059 0.66492 0.71312 0.0
O69 O 0.88673 0.64098 0.72359 0.0
Co70 Co 0.88512 0.09482 0.73963 0.0
O71 O 0.84189 0.08498 0.74194 0.0
O72 O 0.88896 0.0733 0.75109 0.0
C73 C 0.87911 0.10222 0.71026 0.0
O74 O 0.9344 0.1019 0.73856 0.0
Co75 Co 0.88755 0.13238 0.7321 0.0
O76 O 0.93492 0.12738 0.72659 0.0
C77 C 0.87515 0.1206 0.76961 0.0
C78 C 0.85664 0.07231 0.74889 0.0
C79 C 0.95004 0.11448 0.73198 0.0
O80 O 0.87951 0.10578 0.76408 0.0
O81 O 0.87533 0.133 0.75883 0.0
O82 O 0.88811 0.08742 0.71446 0.0
O83 O 0.87054 0.11148 0.72387 0.0
Co84 Co 0.86971 0.09494 -0.00733 0.0
O85 O 0.9126 0.08472 -0.00532 0.0
O86 O 0.8689 0.0734 0.98106 0.0
C87 C 0.86645 0.10261 0.02213 0.0
O88 O 0.82122 0.1024 0.98883 0.0
Co89 Co 0.86734 0.13259 -0.0008 0.0
O90 O 0.81856 0.12917 -0.00337 0.0
C91 C 0.89123 0.12017 0.96383 0.0
C92 C 0.90005 0.07222 0.98622 0.0
C93 C 0.80485 0.11588 -0.0087 0.0
O94 O 0.88354 0.10558 0.96901 0.0
O95 O 0.88909 0.13267 0.97437 0.0
O96 O 0.85816 0.08787 0.01725 0.0
O97 O 0.8798 0.11158 0.00946 0.0
Co98 Co 0.88475 0.65506 -0.00904 0.0
O99 O 0.84118 0.66466 -0.00735 0.0
O100 O 0.88432 0.67638 0.97887 0.0
C101 C 0.88804 0.64795 0.02063 0.0
O102 O 0.93378 0.64831 0.98736 0.0
Co103 Co 0.88992 0.6176 -0.00159 0.0
O104 O 0.9384 0.62173 -0.00429 0.0
C105 C 0.86456 0.629 0.96287 0.0
C106 C 0.85305 0.67718 0.98391 0.0
C107 C 0.95111 0.63517 -0.00989 0.0
O108 O 0.87154 0.64381 0.96755 0.0
O109 O 0.8678 0.61675 0.9737 0.0
O110 O 0.89557 0.66271 0.01544 0.0
O111 O 0.8756 0.63853 0.0081 0.0
Co112 Co 0.13437 0.84426 0.74055 0.0
O113 O 0.09145 0.83392 0.73952 0.0
O114 O 0.1377 0.82332 0.72778 0.0
C115 C 0.13224 0.85039 0.77045 0.0
O116 O 0.18326 0.852 0.73987 0.0
Co117 Co 0.13581 0.88149 0.74985 0.0
O118 O 0.18415 0.87705 0.75291 0.0
C119 C 0.11812 0.87104 0.71252 0.0
C120 C 0.10579 0.82186 0.73113 0.0
C121 C 0.19912 0.86457 0.74629 0.0
O122 O 0.12453 0.85612 0.71702 0.0
O123 O 0.11914 0.88298 0.7239 0.0
O124 O 0.14142 0.8359 0.76515 0.0
O125 O 0.12122 0.86003 0.75771 0.0
Co126 Co 0.11836 0.40887 0.74024 0.0
O127 O 0.16103 0.41924 0.73783 0.0
O128 O 0.11339 0.43025 0.72851 0.0
C129 C 0.12482 0.40184 0.76973 0.0
O130 O 0.06955 0.40107 0.74126 0.0
Co131 Co 0.11857 0.37138 0.74815 0.0
O132 O 0.0704 0.37536 0.75262 0.0
C133 C 0.12992 0.38304 0.7105 0.0
C134 C 0.14568 0.43161 0.73062 0.0
C135 C 0.05457 0.38807 0.74726 0.0
O136 O 0.12456 0.3978 0.71591 0.0
O137 O 0.13094 0.37075 0.72143 0.0
O138 O 0.11478 0.41644 0.76535 0.0
O139 O 0.13401 0.39262 0.75621 0.0
Co140 Co 0.13472 0.40656 0.48901 0.0
O141 O 0.09158 0.41664 0.48772 0.0
O142 O 0.13569 0.42786 0.5011 0.0
C143 C 0.13712 0.39948 0.45935 0.0
O144 O 0.18346 0.39922 0.49218 0.0
Co145 Co 0.13776 0.36902 0.48135 0.0
O146 O 0.18651 0.3727 0.48343 0.0
C147 C 0.11423 0.38061 0.51719 0.0
C148 C 0.10434 0.42901 0.49632 0.0
C149 C 0.20007 0.38591 0.48908 0.0
O150 O 0.1217 0.39536 0.51249 0.0
O151 O 0.11647 0.36838 0.50628 0.0
O152 O 0.14527 0.41417 0.46448 0.0
O153 O 0.12443 0.39019 0.47193 0.0
Co154 Co 0.12278 0.8452 0.48917 0.0
O155 O 0.16577 0.83502 0.49058 0.0
O156 O 0.119 0.82375 0.50082 0.0
C157 C 0.12695 0.85247 0.45962 0.0
O158 O 0.0738 0.85272 0.48926 0.0
Co159 Co 0.12229 0.88282 0.48179 0.0
O160 O 0.07337 0.87933 0.48064 0.0
C161 C 0.13596 0.87081 0.51902 0.0
C162 C 0.15113 0.82253 0.498 0.0
C163 C 0.05833 0.86618 0.48533 0.0
O164 O 0.13031 0.85611 0.5135 0.0
O165 O 0.13651 0.8832 0.50823 0.0
O166 O 0.11765 0.83778 0.46409 0.0
O167 O 0.13692 0.86166 0.473 0.0
Co168 Co 0.87321 0.15782 0.24029 0.0
O169 O 0.91629 0.16792 0.24181 0.0
O170 O 0.86946 0.17936 0.25171 0.0
C171 C 0.87764 0.15036 0.21082 0.0
O172 O 0.82416 0.15039 0.24023 0.0
Co173 Co 0.87254 0.12012 0.23318 0.0
O174 O 0.82361 0.12364 0.23216 0.0
C175 C 0.88544 0.13233 0.27042 0.0
C176 C 0.90163 0.18051 0.249 0.0
C177 C 0.80865 0.13688 0.23656 0.0
O178 O 0.88017 0.14703 0.26476 0.0
O179 O 0.88614 0.1199 0.25971 0.0
O180 O 0.86856 0.16512 0.21513 0.0
O181 O 0.88735 0.14122 0.22431 0.0
Co182 Co 0.88549 0.59402 0.23942 0.0
O183 O 0.84263 0.58379 0.24172 0.0
O184 O 0.89012 0.57259 0.25099 0.0
C185 C 0.87948 0.60123 0.20995 0.0
O186 O 0.93446 0.60156 0.2385 0.0
Co187 Co 0.88631 0.63155 0.23171 0.0
O188 O 0.93429 0.62722 0.22699 0.0
C189 C 0.87443 0.61981 0.2693 0.0
C190 C 0.85784 0.57131 0.24878 0.0
C191 C 0.94977 0.61442 0.23236 0.0
O192 O 0.87945 0.60503 0.26382 0.0
O193 O 0.87374 0.63213 0.25841 0.0
O194 O 0.88903 0.58655 0.21429 0.0
O195 O 0.87036 0.61046 0.22349 0.0
Co196 Co 0.87176 0.59445 0.49125 0.0
O197 O 0.91454 0.58404 0.48995 0.0
O198 O 0.86792 0.57347 0.47863 0.0
C199 C 0.87511 0.60071 0.52111 0.0
O200 O 0.82292 0.60222 0.4909 0.0
Co201 Co 0.87054 0.63168 0.5004 0.0
O202 O 0.82216 0.62741 0.50355 0.0
C203 C 0.8875 0.62109 0.46301 0.0
C204 C 0.8999 0.57195 0.48175 0.0
C205 C 0.80712 0.61487 0.49715 0.0
O206 O 0.88107 0.60619 0.46759 0.0
O207 O 0.88674 0.63306 0.47435 0.0
O208 O 0.86539 0.58625 0.516 0.0
O209 O 0.88561 0.61027 0.50818 0.0
Co210 Co 0.88364 0.15665 0.49165 0.0
O211 O 0.84063 0.1669 0.49162 0.0
O212 O 0.88589 0.17773 0.47902 0.0
C213 C 0.88332 0.15024 0.52151 0.0
O214 O 0.9325 0.14898 0.48995 0.0
Co215 Co 0.88554 0.11934 0.50047 0.0
O216 O 0.93411 0.12369 0.50239 0.0
C217 C 0.86538 0.13017 0.46368 0.0
C218 C 0.8542 0.17907 0.48304 0.0
C219 C 0.94871 0.13627 0.49575 0.0
O220 O 0.8723 0.14502 0.46821 0.0
O221 O 0.86699 0.11811 0.4749 0.0
O222 O 0.89226 0.16477 0.5162 0.0
O223 O 0.87157 0.14073 0.50887 0.0
Co224 Co 0.63245 0.34464 0.73626 0.0
O225 O 0.58946 0.33444 0.73459 0.0
O226 O 0.63658 0.32301 0.72511 0.0
C227 C 0.62736 0.35234 0.76564 0.0
O228 O 0.68145 0.35217 0.73654 0.0
Co229 Co 0.63269 0.38239 0.74308 0.0
O230 O 0.68155 0.37886 0.74482 0.0
C231 C 0.62059 0.36991 0.70585 0.0
C232 C 0.60437 0.32181 0.72765 0.0
C233 C 0.69677 0.36568 0.74045 0.0
O234 O 0.62588 0.35524 0.71164 0.0
O235 O 0.6196 0.38239 0.71647 0.0
O236 O 0.63667 0.33757 0.76153 0.0
O237 O 0.61783 0.36133 0.75199 0.0
Co238 Co 0.62146 0.90696 0.73831 0.0
O239 O 0.66504 0.91665 0.73919 0.0
O240 O 0.62102 0.92825 0.72614 0.0
C241 C 0.61975 0.90005 0.76806 0.0
O242 O 0.57233 0.90008 0.73559 0.0
Co243 Co 0.6171 0.86949 0.74632 0.0
O244 O 0.56848 0.87357 0.74436 0.0
C245 C 0.63993 0.88067 0.71013 0.0
C246 C 0.65252 0.92915 0.73071 0.0
C247 C 0.55533 0.88691 0.73878 0.0
O248 O 0.63335 0.89553 0.71477 0.0
O249 O 0.63748 0.86852 0.72118 0.0
O250 O 0.61197 0.91478 0.7629 0.0
O251 O 0.6316 0.89058 0.75541 0.0
Co252 Co 0.63628 0.90778 0.48699 0.0
O253 O 0.59344 0.91798 0.48938 0.0
O254 O 0.64088 0.92907 0.4989 0.0
C255 C 0.63039 0.90087 0.45744 0.0
O256 O 0.6852 0.90021 0.48601 0.0
Co257 Co 0.63674 0.87032 0.47899 0.0
O258 O 0.6848 0.87458 0.47446 0.0
C259 C 0.62509 0.88177 0.51666 0.0
C260 C 0.60859 0.93034 0.49674 0.0
C261 C 0.7004 0.88733 0.47987 0.0
O262 O 0.63014 0.89656 0.51125 0.0
O263 O 0.62438 0.8695 0.50572 0.0
O264 O 0.63991 0.91552 0.46194 0.0
O265 O 0.62114 0.89153 0.47087 0.0
Co266 Co 0.62189 0.34582 0.48455 0.0
O267 O 0.66482 0.33551 0.48447 0.0
O268 O 0.61959 0.32475 0.49718 0.0
C269 C 0.6221 0.35225 0.45467 0.0
O270 O 0.57311 0.35354 0.48642 0.0
Co271 Co 0.61992 0.38311 0.47577 0.0
O272 O 0.57128 0.37887 0.4741 0.0
C273 C 0.6404 0.37226 0.51251 0.0
C274 C 0.65124 0.32337 0.49311 0.0
C275 C 0.5568 0.36627 0.48078 0.0
O276 O 0.6335 0.35742 0.50798 0.0
O277 O 0.63863 0.38433 0.50131 0.0
O278 O 0.61301 0.33774 0.46001 0.0
O279 O 0.63395 0.36174 0.4673 0.0
Co280 Co 0.37222 0.65705 0.24017 0.0
O281 O 0.41548 0.66709 0.24036 0.0
O282 O 0.36965 0.67883 0.25111 0.0
C283 C 0.37421 0.64894 0.21082 0.0
O284 O 0.32313 0.64977 0.24146 0.0
Co285 Co 0.37059 0.61922 0.23404 0.0
O286 O 0.32167 0.6229 0.23391 0.0
C287 C 0.38669 0.63212 0.27061 0.0
C288 C 0.40157 0.67986 0.24756 0.0
C289 C 0.30719 0.63626 0.23835 0.0
O290 O 0.38107 0.64673 0.26473 0.0
O291 O 0.38641 0.61949 0.26019 0.0
O292 O 0.36557 0.6638 0.21494 0.0
O293 O 0.38494 0.64008 0.22431 0.0
Co294 Co 0.38546 0.09641 0.23781 0.0
O295 O 0.34189 0.08685 0.23977 0.0
O296 O 0.38837 0.07484 0.24926 0.0
C297 C 0.38033 0.10395 0.20843 0.0
O298 O 0.43497 0.10317 0.23713 0.0
Co299 Co 0.38903 0.13397 0.23047 0.0
O300 O 0.43636 0.12866 0.22519 0.0
C301 C 0.37503 0.12214 0.26778 0.0
C302 C 0.35607 0.07409 0.24688 0.0
C303 C 0.45105 0.11566 0.23065 0.0
O304 O 0.37947 0.10733 0.26225 0.0
O305 O 0.37573 0.13456 0.25704 0.0
O306 O 0.38888 0.08907 0.21261 0.0
O307 O 0.3717 0.1132 0.22203 0.0
Co308 Co 0.37056 0.09465 0.49097 0.0
O309 O 0.41357 0.08444 0.49189 0.0
O310 O 0.36885 0.07323 0.47914 0.0
C311 C 0.36944 0.10199 0.52059 0.0
O312 O 0.32186 0.10222 0.48822 0.0
Co313 Co 0.36891 0.13225 0.49811 0.0
O314 O 0.31998 0.12892 0.49636 0.0
C315 C 0.39006 0.12017 0.46205 0.0
C316 C 0.40038 0.07205 0.48354 0.0
C317 C 0.30581 0.11573 0.4911 0.0
O318 O 0.3827 0.10553 0.46719 0.0
O319 O 0.38876 0.13256 0.47279 0.0
O320 O 0.36077 0.08731 0.51569 0.0
O321 O 0.38188 0.1111 0.50776 0.0
Co322 Co 0.38535 0.65702 0.49181 0.0
O323 O 0.3424 0.66732 0.49268 0.0
O324 O 0.38691 0.6781 0.47922 0.0
C325 C 0.3872 0.65043 0.52164 0.0
O326 O 0.43397 0.6494 0.48897 0.0
Co327 Co 0.38747 0.61962 0.50018 0.0
O328 O 0.43633 0.62297 0.49814 0.0
C329 C 0.36509 0.63075 0.46395 0.0
C330 C 0.35549 0.67946 0.4838 0.0
C331 C 0.45024 0.63604 0.49231 0.0
O332 O 0.37247 0.64554 0.4685 0.0
O333 O 0.36705 0.61862 0.47504 0.0
O334 O 0.39573 0.66498 0.51621 0.0
O335 O 0.37447 0.64099 0.50921 0.0
Co336 Co 0.63462 0.84669 0.23851 0.0
O337 O 0.59108 0.83696 0.2394 0.0
O338 O 0.6352 0.8253 0.22656 0.0
C339 C 0.63596 0.85386 0.26819 0.0
O340 O 0.68375 0.85363 0.23582 0.0
Co341 Co 0.63863 0.88422 0.24603 0.0
O342 O 0.68731 0.88019 0.24438 0.0
C343 C 0.61657 0.87269 0.20987 0.0
C344 C 0.60366 0.82441 0.23104 0.0
C345 C 0.70064 0.86685 0.23894 0.0
O346 O 0.62295 0.85788 0.2148 0.0
O347 O 0.6189 0.88497 0.22072 0.0
O348 O 0.64392 0.83911 0.26321 0.0
O349 O 0.62418 0.86321 0.2554 0.0
Co350 Co 0.62381 0.40768 0.23687 0.0
O351 O 0.66678 0.41741 0.23291 0.0
O352 O 0.61872 0.42936 0.22598 0.0
C353 C 0.63364 0.39999 0.26589 0.0
O354 O 0.57472 0.40078 0.23982 0.0
Co355 Co 0.62171 0.37006 0.24418 0.0
O356 O 0.57504 0.37511 0.2513 0.0
C357 C 0.62847 0.38213 0.20626 0.0
C358 C 0.65125 0.43026 0.22695 0.0
C359 C 0.5596 0.38815 0.24663 0.0
O360 O 0.62554 0.39695 0.21209 0.0
O361 O 0.62989 0.36969 0.21696 0.0
O362 O 0.62444 0.41486 0.26218 0.0
O363 O 0.64017 0.39081 0.25187 0.0
Co364 Co 0.63636 0.40648 0.98443 0.0
O365 O 0.59343 0.41678 0.98471 0.0
O366 O 0.63902 0.42756 -0.00302 0.0
C367 C 0.63532 0.40003 0.95457 0.0
O368 O 0.68522 0.39875 0.98582 0.0
Co369 Co 0.6379 0.36918 0.97581 0.0
O370 O 0.68644 0.37343 0.97349 0.0
C371 C 0.61792 0.38012 0.01256 0.0
C372 C 0.60725 0.42893 -0.0068 0.0
C373 C 0.70125 0.38602 0.97993 0.0
O374 O 0.62531 0.39491 0.008 0.0
O375 O 0.6192 0.36805 0.00137 0.0
O376 O 0.64453 0.41454 0.95981 0.0
O377 O 0.6238 0.39055 0.96732 0.0
Co378 Co 0.62239 0.84481 0.98655 0.0
O379 O 0.66529 0.83449 0.98748 0.0
O380 O 0.61879 0.82334 -0.00181 0.0
C381 C 0.62552 0.85218 0.957 0.0
O382 O 0.5735 0.85246 0.9871 0.0
Co383 Co 0.6213 0.88239 0.97916 0.0
O384 O 0.57291 0.87817 0.97576 0.0
C385 C 0.6363 0.8704 0.01629 0.0
C386 C 0.65079 0.82202 -0.00499 0.0
C387 C 0.5578 0.86538 0.98147 0.0
O388 O 0.63087 0.85567 0.0108 0.0
O389 O 0.63599 0.88281 0.00552 0.0
O390 O 0.6163 0.83748 0.9615 0.0
O391 O 0.63609 0.86129 0.97031 0.0
Co392 Co 0.37245 0.15649 0.73921 0.0
O393 O 0.41547 0.16668 0.74066 0.0
O394 O 0.36865 0.17794 0.75082 0.0
C395 C 0.37658 0.14923 0.70967 0.0
O396 O 0.32344 0.149 0.73929 0.0
Co397 Co 0.37176 0.11886 0.73175 0.0
O398 O 0.3228 0.12233 0.73094 0.0
C399 C 0.38543 0.13079 0.76902 0.0
C400 C 0.40078 0.17918 0.74801 0.0
C401 C 0.30789 0.13552 0.73553 0.0
O402 O 0.37987 0.14553 0.76354 0.0
O403 O 0.38599 0.11845 0.75818 0.0
O404 O 0.36739 0.16394 0.71412 0.0
O405 O 0.38651 0.14002 0.72305 0.0
Co406 Co 0.38419 0.59481 0.73985 0.0
O407 O 0.34085 0.58497 0.74146 0.0
O408 O 0.38753 0.57309 0.75091 0.0
C409 C 0.37959 0.6027 0.7105 0.0
O410 O 0.43342 0.60195 0.73961 0.0
Co411 Co 0.38549 0.6326 0.73332 0.0
O412 O 0.43427 0.62876 0.73173 0.0
C413 C 0.37292 0.61998 0.77044 0.0
C414 C 0.35528 0.5722 0.74838 0.0
C415 C 0.44909 0.61542 0.73588 0.0
O416 O 0.37791 0.60533 0.76454 0.0
O417 O 0.37222 0.63254 0.7599 0.0
O418 O 0.38827 0.58782 0.71456 0.0
O419 O 0.37022 0.6117 0.72417 0.0
Co420 Co 0.3728 0.59468 -0.00785 0.0
O421 O 0.41588 0.58452 -0.00811 0.0
O422 O 0.37055 0.5737 0.97938 0.0
C423 C 0.37332 0.60087 0.02208 0.0
O424 O 0.32386 0.60226 -0.00933 0.0
Co425 Co 0.37056 0.6319 0.00116 0.0
O426 O 0.32213 0.62736 0.00354 0.0
C427 C 0.39025 0.62136 0.96419 0.0
C428 C 0.4023 0.57239 0.98326 0.0
C429 C 0.30758 0.61482 -0.00321 0.0
O430 O 0.38376 0.60647 0.96873 0.0
O431 O 0.38848 0.63338 0.97544 0.0
O432 O 0.36449 0.58637 0.01665 0.0
O433 O 0.3849 0.61052 0.00948 0.0
Co434 Co 0.38341 0.1573 -0.01051 0.0
O435 O 0.34067 0.16777 0.98823 0.0
O436 O 0.38717 0.17805 0.97638 0.0
C437 C 0.38084 0.15154 0.01948 0.0
O438 O 0.43218 0.14943 0.98898 0.0
Co439 Co 0.38451 0.1202 -0.00055 0.0
O440 O 0.43301 0.12443 0.00214 0.0
C441 C 0.36663 0.13024 0.962 0.0
C442 C 0.35527 0.17967 0.97966 0.0
C443 C 0.44801 0.13684 -0.00461 0.0
O444 O 0.37344 0.14518 0.96618 0.0
O445 O 0.36749 0.11845 0.97359 0.0
O446 O 0.39043 0.16591 0.01399 0.0
O447 O 0.36989 0.14179 0.00685 0.0
C448 C 0.10665 0.36091 0.18056 0.0
C449 C 0.11299 0.37418 0.19231 0.0
C450 C 0.10509 0.36323 0.16165 0.0
C451 C 0.13851 0.39005 0.12606 0.0
H452 H 0.0809 0.36384 0.09489 0.0
C453 C 0.14109 0.3888 0.04568 0.0
C454 C 0.14027 0.37291 0.03815 0.0
C455 C 0.13726 0.3911 0.0646 0.0
C456 C 0.09714 0.37123 0.10345 0.0
H457 H 0.12087 0.4005 0.19349 0.0
H458 H 0.11795 0.40454 0.16029 0.0
H459 H 0.07061 0.36471 0.12784 0.0
H460 H 0.13738 0.34697 0.0448 0.0
H461 H 0.13067 0.35107 0.07758 0.0
H462 H 0.16529 0.39632 0.1015 0.0
C463 C 0.11457 0.39232 0.16579 0.0
C464 C 0.09124 0.37175 0.12227 0.0
C465 C 0.11597 0.39 0.18479 0.0
C466 C 0.13771 0.35939 0.05004 0.0
C467 C 0.13364 0.36171 0.06882 0.0
C468 C 0.14427 0.38962 0.10713 0.0
C469 C 0.10984 0.37888 0.15402 0.0
C470 C 0.11251 0.38072 0.13385 0.0
C471 C 0.13234 0.37757 0.07619 0.0
C472 C 0.12426 0.37977 0.0958 0.0
H473 H 0.10405 0.34857 0.18589 0.0
H474 H 0.10178 0.35259 0.15295 0.0
H475 H 0.15548 0.39697 0.13466 0.0
H476 H 0.14315 0.39949 0.03693 0.0
H477 H 0.13655 0.40346 0.07003 0.0
C478 C 0.11315 0.86076 0.04528 0.0
C479 C 0.10964 0.87647 0.03753 0.0
C480 C 0.11223 0.85868 0.06432 0.0
C481 C 0.09024 0.87984 0.10777 0.0
H482 H 0.16502 0.8555 0.12811 0.0
C483 C 0.13877 0.89299 0.17934 0.0
C484 C 0.14021 0.8796 0.19147 0.0
C485 C 0.13497 0.89046 0.16057 0.0
C486 C 0.14383 0.86216 0.12259 0.0
H487 H 0.10005 0.90209 0.04361 0.0
H488 H 0.0987 0.89849 0.0766 0.0
H489 H 0.15402 0.85445 0.09507 0.0
H490 H 0.14171 0.85301 0.19315 0.0
H491 H 0.13556 0.84868 0.16008 0.0
H492 H 0.081 0.88812 0.13513 0.0
C493 C 0.10205 0.88775 0.06807 0.0
C494 C 0.13737 0.86149 0.10374 0.0
C495 C 0.10307 0.88984 0.04911 0.0
C496 C 0.14045 0.8636 0.18421 0.0
C497 C 0.1369 0.86109 0.16531 0.0
C498 C 0.09689 0.88062 0.1265 0.0
C499 C 0.10752 0.87224 0.07592 0.0
C500 C 0.11104 0.8707 0.09609 0.0
C501 C 0.13284 0.87452 0.15348 0.0
C502 C 0.12425 0.87216 0.13398 0.0
H503 H 0.11821 0.85019 0.03673 0.0
H504 H 0.1161 0.84655 0.06999 0.0
H505 H 0.06937 0.88678 0.10234 0.0
H506 H 0.13898 0.90548 0.18437 0.0
H507 H 0.13263 0.90101 0.15161 0.0
C508 C 0.86828 0.64297 0.80122 0.0
C509 C 0.8751 0.6298 0.78934 0.0
C510 C 0.86316 0.64025 0.81988 0.0
C511 C 0.87985 0.6122 0.85767 0.0
H512 H 0.80519 0.63493 0.88028 0.0
C513 C 0.8586 0.61029 0.93577 0.0
C514 C 0.85527 0.62599 0.94354 0.0
C515 C 0.8551 0.60809 0.91684 0.0
C516 C 0.82608 0.62848 0.87416 0.0
H517 H 0.88337 0.60351 0.78802 0.0
H518 H 0.87484 0.59887 0.82084 0.0
H519 H 0.81299 0.63642 0.84712 0.0
H520 H 0.84322 0.65142 0.93776 0.0
H521 H 0.83726 0.64759 0.90491 0.0
H522 H 0.89374 0.60482 0.8848 0.0
C523 C 0.87319 0.61124 0.81553 0.0
C524 C 0.83058 0.62936 0.85522 0.0
C525 C 0.87808 0.61393 0.79676 0.0
C526 C 0.84622 0.63919 0.93219 0.0
C527 C 0.84253 0.63697 0.91335 0.0
C528 C 0.87543 0.61138 0.87668 0.0
C529 C 0.86496 0.62435 0.82716 0.0
C530 C 0.85806 0.62164 0.84687 0.0
C531 C 0.84788 0.6215 0.9054 0.0
C532 C 0.84906 0.61993 0.88516 0.0
H533 H 0.86592 0.65537 0.79606 0.0
H534 H 0.85757 0.65063 0.82863 0.0
H535 H 0.90126 0.60617 0.85157 0.0
H536 H 0.86552 0.59986 0.94415 0.0
H537 H 0.85899 0.596 0.91109 0.0
C538 C 0.90073 0.10911 0.93237 0.0
C539 C 0.89855 0.12272 0.94414 0.0
C540 C 0.89984 0.11123 0.91343 0.0
C541 C 0.90951 0.13854 0.87468 0.0
H542 H 0.83593 0.11329 0.85445 0.0
C543 C 0.87668 0.13907 0.79717 0.0
C544 C 0.87217 0.12336 0.78959 0.0
C545 C 0.87775 0.14118 0.81621 0.0
C546 C 0.85664 0.12037 0.85985 0.0
H547 H 0.89725 0.14934 0.94516 0.0
H548 H 0.89613 0.15294 0.9118 0.0
H549 H 0.84663 0.11262 0.88733 0.0
H550 H 0.8638 0.0977 0.79608 0.0
H551 H 0.86588 0.10136 0.82903 0.0
H552 H 0.92031 0.14578 0.84701 0.0
C553 C 0.89806 0.14069 0.91743 0.0
C554 C 0.86273 0.11998 0.87864 0.0
C555 C 0.89871 0.13858 0.93649 0.0
C556 C 0.86742 0.10996 0.80142 0.0
C557 C 0.86838 0.11208 0.82036 0.0
C558 C 0.90362 0.1388 0.85574 0.0
C559 C 0.8971 0.12697 0.90585 0.0
C560 C 0.88967 0.12872 0.88614 0.0
C561 C 0.87404 0.12765 0.82798 0.0
C562 C 0.8776 0.12937 0.84812 0.0
H563 H 0.9012 0.09673 0.93775 0.0
H564 H 0.89976 0.10049 0.90468 0.0
H565 H 0.93032 0.14544 0.88025 0.0
H566 H 0.88048 0.14964 0.78842 0.0
H567 H 0.88184 0.15334 0.82172 0.0
C568 C 0.10433 0.8616 0.68089 0.0
C569 C 0.11167 0.87453 0.69295 0.0
C570 C 0.10257 0.86434 0.66206 0.0
C571 C 0.13698 0.89116 0.62685 0.0
H572 H 0.07689 0.86635 0.59565 0.0
C573 C 0.13921 0.8896 0.54633 0.0
C574 C 0.1379 0.87362 0.53906 0.0
C575 C 0.13521 0.89221 0.56519 0.0
C576 C 0.09377 0.87338 0.60422 0.0
H577 H 0.12133 0.90067 0.69476 0.0
H578 H 0.11818 0.90544 0.66165 0.0
H579 H 0.06709 0.86717 0.62866 0.0
H580 H 0.13376 0.8478 0.54615 0.0
H581 H 0.12668 0.85243 0.57882 0.0
H582 H 0.16397 0.89707 0.60223 0.0
C583 C 0.11407 0.89317 0.66688 0.0
C584 C 0.08817 0.87386 0.62307 0.0
C585 C 0.11563 0.89044 0.68581 0.0
C586 C 0.13453 0.86029 0.55117 0.0
C587 C 0.13025 0.86292 0.56989 0.0
C588 C 0.14244 0.89078 0.60789 0.0
C589 C 0.10816 0.88006 0.6548 0.0
C590 C 0.1104 0.88225 0.63466 0.0
C591 C 0.12957 0.87889 0.57698 0.0
C592 C 0.12154 0.88139 0.59655 0.0
H593 H 0.10095 0.84922 0.68593 0.0
H594 H 0.09837 0.85393 0.65312 0.0
H595 H 0.15466 0.89765 0.63545 0.0
H596 H 0.14189 0.90014 0.53741 0.0
H597 H 0.135 0.90463 0.57043 0.0
C598 C 0.09898 0.39086 0.54832 0.0
C599 C 0.1058 0.37759 0.53664 0.0
C600 C 0.09637 0.38851 0.5672 0.0
C601 C 0.12836 0.36157 0.603 0.0
H602 H 0.07106 0.38832 0.63374 0.0
C603 C 0.13131 0.36402 0.68336 0.0
C604 C 0.13129 0.38006 0.69048 0.0
C605 C 0.12699 0.36136 0.66454 0.0
C606 C 0.08717 0.38076 0.6253 0.0
H607 H 0.11316 0.35124 0.53552 0.0
H608 H 0.10839 0.34714 0.56863 0.0
H609 H 0.061 0.38721 0.60077 0.0
H610 H 0.12919 0.40589 0.68318 0.0
H611 H 0.1216 0.40117 0.65056 0.0
H612 H 0.15485 0.3554 0.62768 0.0
C613 C 0.10549 0.35938 0.56311 0.0
C614 C 0.08141 0.38011 0.60647 0.0
C615 C 0.10796 0.36173 0.54415 0.0
C616 C 0.12888 0.39336 0.67827 0.0
C617 C 0.12433 0.39069 0.65958 0.0
C618 C 0.13397 0.36213 0.62193 0.0
C619 C 0.10052 0.37282 0.57485 0.0
C620 C 0.10265 0.37098 0.59503 0.0
C621 C 0.12235 0.37469 0.65263 0.0
C622 C 0.1141 0.37219 0.6331 0.0
H623 H 0.09696 0.40322 0.54299 0.0
H624 H 0.09288 0.39915 0.57586 0.0
H625 H 0.14533 0.35452 0.59452 0.0
H626 H 0.13324 0.3535 0.69237 0.0
H627 H 0.12578 0.34891 0.65942 0.0
C628 C 0.88182 0.14281 0.30254 0.0
C629 C 0.88657 0.12955 0.29049 0.0
C630 C 0.87681 0.1401 0.3212 0.0
C631 C 0.88905 0.11194 0.35914 0.0
H632 H 0.81308 0.13512 0.3798 0.0
C633 C 0.86173 0.11106 0.4368 0.0
C634 C 0.8579 0.12687 0.44418 0.0
C635 C 0.85981 0.10858 0.41784 0.0
C636 C 0.83433 0.12854 0.37423 0.0
H637 H 0.89213 0.1031 0.28892 0.0
H638 H 0.88394 0.09847 0.3218 0.0
H639 H 0.8236 0.13643 0.34687 0.0
H640 H 0.84666 0.15224 0.43764 0.0
H641 H 0.84348 0.14796 0.40477 0.0
H642 H 0.90068 0.10466 0.38664 0.0
C643 C 0.88366 0.1109 0.31658 0.0
C644 C 0.84036 0.12931 0.35542 0.0
C645 C 0.8884 0.11358 0.29779 0.0
C646 C 0.85001 0.13993 0.43238 0.0
C647 C 0.84791 0.13744 0.41352 0.0
C648 C 0.88314 0.11125 0.37804 0.0
C649 C 0.87675 0.12412 0.3283 0.0
C650 C 0.86835 0.12145 0.34781 0.0
C651 C 0.85368 0.12185 0.40599 0.0
C652 C 0.85631 0.11999 0.38582 0.0
H653 H 0.88054 0.15529 0.2975 0.0
H654 H 0.87228 0.15053 0.33007 0.0
H655 H 0.91076 0.10575 0.35354 0.0
H656 H 0.86779 0.10074 0.44555 0.0
H657 H 0.86401 0.0964 0.41241 0.0
C658 C 0.87076 0.63876 0.29646 0.0
C659 C 0.8729 0.62275 0.28933 0.0
C660 C 0.87436 0.64153 0.31532 0.0
C661 C 0.91535 0.62334 0.35496 0.0
H662 H 0.8521 0.6471 0.38528 0.0
C663 C 0.9017 0.61157 0.43146 0.0
C664 C 0.89392 0.62452 0.44342 0.0
C665 C 0.90392 0.61427 0.41264 0.0
C666 C 0.87041 0.64076 0.37693 0.0
H667 H 0.87844 0.59705 0.29663 0.0
H668 H 0.88483 0.60196 0.32928 0.0
H669 H 0.84431 0.64634 0.35194 0.0
H670 H 0.88372 0.65061 0.44507 0.0
H671 H 0.8876 0.6553 0.41196 0.0
H672 H 0.9411 0.61742 0.37979 0.0
C673 C 0.88087 0.61234 0.32026 0.0
C674 C 0.86584 0.64028 0.3579 0.0
C675 C 0.87698 0.60955 0.30154 0.0
C676 C 0.88978 0.64038 0.4362 0.0
C677 C 0.89178 0.64306 0.41726 0.0
C678 C 0.92004 0.62391 0.37388 0.0
C679 C 0.88048 0.62836 0.32724 0.0
C680 C 0.88762 0.63106 0.34688 0.0
C681 C 0.89833 0.62996 0.40529 0.0
C682 C 0.89695 0.6321 0.38513 0.0
H683 H 0.86749 0.6492 0.28745 0.0
H684 H 0.87376 0.65398 0.32046 0.0
H685 H 0.93289 0.61645 0.34665 0.0
H686 H 0.9052 0.59922 0.43658 0.0
H687 H 0.90859 0.60387 0.40377 0.0
C688 C 0.6441 0.39132 0.53944 0.0
C689 C 0.64804 0.37553 0.532 0.0
C690 C 0.64612 0.39375 0.55841 0.0
C691 C 0.67199 0.37374 0.60193 0.0
H692 H 0.59538 0.39627 0.62276 0.0
C693 C 0.62512 0.35935 0.67378 0.0
C694 C 0.61974 0.3726 0.68576 0.0
C695 C 0.63019 0.36204 0.65512 0.0
C696 C 0.61713 0.39016 0.61713 0.0
H697 H 0.65958 0.35018 0.53844 0.0
H698 H 0.66294 0.35438 0.57132 0.0
H699 H 0.60533 0.39747 0.58966 0.0
H700 H 0.61325 0.39901 0.68721 0.0
H701 H 0.62159 0.4036 0.65434 0.0
H702 H 0.68292 0.36583 0.62926 0.0
C703 C 0.65835 0.36491 0.56261 0.0
C704 C 0.62297 0.3909 0.59823 0.0
C705 C 0.65615 0.36247 0.54374 0.0
C706 C 0.61746 0.38853 0.67839 0.0
C707 C 0.62228 0.39119 0.65961 0.0
C708 C 0.66603 0.37291 0.62074 0.0
C709 C 0.65245 0.38047 0.5702 0.0
C710 C 0.64987 0.38226 0.59038 0.0
C711 C 0.62972 0.378 0.64795 0.0
C712 C 0.63799 0.38068 0.62842 0.0
H713 H 0.63787 0.40165 0.53074 0.0
H714 H 0.64182 0.40591 0.56389 0.0
H715 H 0.69329 0.36724 0.59632 0.0
H716 H 0.62678 0.3469 0.67889 0.0
H717 H 0.63513 0.35162 0.64631 0.0
C718 C 0.6447 0.8615 0.68336 0.0
C719 C 0.64771 0.8774 0.69065 0.0
C720 C 0.64697 0.85893 0.66443 0.0
C721 C 0.67263 0.87883 0.62086 0.0
H722 H 0.59842 0.85471 0.59962 0.0
C723 C 0.62629 0.89209 0.54887 0.0
C724 C 0.62368 0.87879 0.53669 0.0
C725 C 0.63064 0.88942 0.56758 0.0
C726 C 0.61953 0.86126 0.60539 0.0
H727 H 0.6576 0.90287 0.68392 0.0
H728 H 0.66138 0.89841 0.65109 0.0
H729 H 0.60726 0.85413 0.63286 0.0
H730 H 0.62122 0.85224 0.53487 0.0
H731 H 0.62826 0.84766 0.56788 0.0
H732 H 0.68389 0.88659 0.59352 0.0
C733 C 0.65739 0.8879 0.65992 0.0
C734 C 0.62472 0.86088 0.62437 0.0
C735 C 0.65497 0.89048 0.67876 0.0
C736 C 0.62331 0.86276 0.54386 0.0
C737 C 0.62739 0.8601 0.56271 0.0
C738 C 0.66728 0.8793 0.60199 0.0
C739 C 0.65259 0.87217 0.6525 0.0
C740 C 0.6507 0.8701 0.63233 0.0
C741 C 0.63218 0.87343 0.57459 0.0
C742 C 0.64009 0.87095 0.59417 0.0
H743 H 0.63911 0.85115 0.69215 0.0
H744 H 0.64351 0.84665 0.65909 0.0
H745 H 0.69326 0.88577 0.62657 0.0
H746 H 0.62629 0.90461 0.54393 0.0
H747 H 0.63352 0.89991 0.57657 0.0
C748 C 0.38562 0.64315 0.30256 0.0
C749 C 0.38908 0.62966 0.2907 0.0
C750 C 0.38103 0.64076 0.32131 0.0
C751 C 0.3911 0.61277 0.35971 0.0
H752 H 0.31544 0.63676 0.37953 0.0
C753 C 0.36087 0.61179 0.43697 0.0
C754 C 0.35728 0.62758 0.44446 0.0
C755 C 0.35946 0.60945 0.41798 0.0
C756 C 0.33662 0.62998 0.37421 0.0
H757 H 0.39318 0.60312 0.28955 0.0
H758 H 0.3857 0.59905 0.32255 0.0
H759 H 0.32734 0.63803 0.34675 0.0
H760 H 0.34679 0.65305 0.43803 0.0
H761 H 0.34453 0.64901 0.40511 0.0
H762 H 0.40129 0.6053 0.38731 0.0
C763 C 0.38607 0.61142 0.31713 0.0
C764 C 0.34345 0.63073 0.35549 0.0
C765 C 0.3904 0.61378 0.29826 0.0
C766 C 0.34993 0.64075 0.43271 0.0
C767 C 0.34838 0.6384 0.4138 0.0
C768 C 0.38443 0.61212 0.37853 0.0
C769 C 0.38013 0.62487 0.32866 0.0
C770 C 0.37128 0.62253 0.34816 0.0
C771 C 0.35414 0.62284 0.40618 0.0
C772 C 0.35767 0.62112 0.38603 0.0
H773 H 0.38483 0.65556 0.2973 0.0
H774 H 0.37727 0.65135 0.33004 0.0
H775 H 0.41265 0.60631 0.35433 0.0
H776 H 0.3665 0.60138 0.44567 0.0
H777 H 0.36355 0.59728 0.41249 0.0
C778 C 0.39644 0.13886 0.43484 0.0
C779 C 0.39609 0.12291 0.44225 0.0
C780 C 0.39506 0.1412 0.41583 0.0
C781 C 0.35883 0.12114 0.37664 0.0
H782 H 0.41737 0.14699 0.3456 0.0
C783 C 0.36588 0.11144 0.29944 0.0
C784 C 0.37123 0.12486 0.28772 0.0
C785 C 0.36602 0.11352 0.31839 0.0
C786 C 0.40039 0.14001 0.35416 0.0
H787 H 0.39734 0.09698 0.43544 0.0
H788 H 0.39469 0.10115 0.40246 0.0
H789 H 0.42678 0.14633 0.37886 0.0
H790 H 0.37969 0.15114 0.28673 0.0
H791 H 0.37965 0.15476 0.32005 0.0
H792 H 0.33244 0.1147 0.35222 0.0
C793 C 0.39546 0.11178 0.41137 0.0
C794 C 0.40593 0.13958 0.37312 0.0
C795 C 0.39708 0.10943 0.43026 0.0
C796 C 0.37546 0.14055 0.2954 0.0
C797 C 0.37571 0.14261 0.31445 0.0
C798 C 0.3531 0.12169 0.35782 0.0
C799 C 0.39315 0.12764 0.40405 0.0
C800 C 0.38578 0.12972 0.38437 0.0
C801 C 0.37145 0.12906 0.32613 0.0
C802 C 0.37443 0.1307 0.3463 0.0
H803 H 0.39585 0.14951 0.44369 0.0
H804 H 0.39349 0.15355 0.41041 0.0
H805 H 0.34251 0.11374 0.38516 0.0
H806 H 0.36242 0.0992 0.29401 0.0
H807 H 0.36311 0.10278 0.327 0.0
C808 C 0.613 0.89146 0.18266 0.0
C809 C 0.60944 0.87569 0.19025 0.0
C810 C 0.61178 0.89371 0.16364 0.0
C811 C 0.58873 0.87301 0.12009 0.0
H812 H 0.66372 0.89711 0.09963 0.0
C813 C 0.63687 0.85981 0.04842 0.0
C814 C 0.63893 0.8732 0.03631 0.0
C815 C 0.63281 0.86234 0.06717 0.0
C816 C 0.64246 0.89053 0.10518 0.0
H817 H 0.5995 0.85015 0.18395 0.0
H818 H 0.5976 0.85404 0.151 0.0
H819 H 0.65315 0.89803 0.13272 0.0
H820 H 0.64112 0.89977 0.03467 0.0
H821 H 0.63455 0.90411 0.06772 0.0
H822 H 0.57898 0.86491 0.09271 0.0
C823 C 0.60122 0.86469 0.15963 0.0
C824 C 0.63625 0.89112 0.12406 0.0
C825 C 0.60256 0.86244 0.17856 0.0
C826 C 0.6394 0.88918 0.04359 0.0
C827 C 0.63561 0.8917 0.06248 0.0
C828 C 0.59511 0.87231 0.10132 0.0
C829 C 0.6067 0.88026 0.15193 0.0
C830 C 0.60987 0.88196 0.13176 0.0
C831 C 0.63104 0.87829 0.07427 0.0
C832 C 0.62256 0.88068 0.0938 0.0
H833 H 0.6183 0.90194 0.1913 0.0
H834 H 0.61569 0.90587 0.15809 0.0
H835 H 0.56781 0.86611 0.12556 0.0
H836 H 0.63684 0.84732 0.04338 0.0
H837 H 0.63008 0.8518 0.07611 0.0
C838 C 0.61234 0.3611 0.03948 0.0
C839 C 0.60962 0.37694 0.032 0.0
C840 C 0.6087 0.35863 0.05838 0.0
C841 C 0.5791 0.37852 0.10116 0.0
H842 H 0.65292 0.35547 0.12417 0.0
C843 C 0.62041 0.39249 0.17429 0.0
C844 C 0.62704 0.37932 0.1862 0.0
C845 C 0.61517 0.38977 0.15564 0.0
C846 C 0.63185 0.3617 0.11795 0.0
H847 H 0.59888 0.40241 0.03829 0.0
H848 H 0.59266 0.39812 0.07105 0.0
H849 H 0.64641 0.35452 0.09084 0.0
H850 H 0.63462 0.35299 0.18763 0.0
H851 H 0.62591 0.34832 0.15482 0.0
H852 H 0.56535 0.38625 0.12817 0.0
C853 C 0.59752 0.38758 0.06241 0.0
C854 C 0.62803 0.36112 0.09889 0.0
C855 C 0.60139 0.39007 0.04362 0.0
C856 C 0.62953 0.36341 0.17885 0.0
C857 C 0.62453 0.36071 0.16009 0.0
C858 C 0.58298 0.37915 0.12016 0.0
C859 C 0.6019 0.37192 0.07006 0.0
C860 C 0.60225 0.36998 0.09027 0.0
C861 C 0.61664 0.37385 0.14841 0.0
C862 C 0.61002 0.37119 0.12866 0.0
H863 H 0.61863 0.35073 0.03088 0.0
H864 H 0.61193 0.3464 0.06391 0.0
H865 H 0.55861 0.3852 0.09492 0.0
H866 H 0.61838 0.40492 0.1794 0.0
H867 H 0.60985 0.40017 0.14686 0.0
C868 C 0.38281 0.14105 0.80123 0.0
C869 C 0.38708 0.12786 0.78904 0.0
C870 C 0.37818 0.13823 0.8199 0.0
C871 C 0.39097 0.11028 0.85772 0.0
H872 H 0.3142 0.13292 0.87825 0.0
C873 C 0.36417 0.11058 0.93557 0.0
C874 C 0.35984 0.12652 0.94253 0.0
C875 C 0.3624 0.10769 0.91668 0.0
C876 C 0.33565 0.12648 0.87272 0.0
H877 H 0.39229 0.1014 0.78719 0.0
H878 H 0.3848 0.09657 0.82012 0.0
H879 H 0.32435 0.13392 0.84527 0.0
H880 H 0.34811 0.15169 0.9353 0.0
H881 H 0.34514 0.14668 0.90256 0.0
H882 H 0.40324 0.10353 0.88532 0.0
C883 C 0.38457 0.10904 0.81499 0.0
C884 C 0.34145 0.12707 0.85389 0.0
C885 C 0.38891 0.11184 0.79618 0.0
C886 C 0.35181 0.13929 0.93037 0.0
C887 C 0.34982 0.13639 0.91159 0.0
C888 C 0.3853 0.10979 0.87666 0.0
C889 C 0.37804 0.1222 0.82684 0.0
C890 C 0.36975 0.11945 0.84633 0.0
C891 C 0.35588 0.12066 0.90449 0.0
C892 C 0.35821 0.11838 0.88438 0.0
H893 H 0.38158 0.15357 0.79631 0.0
H894 H 0.37392 0.1486 0.82888 0.0
H895 H 0.41291 0.10429 0.85214 0.0
H896 H 0.3704 0.10049 0.94461 0.0
H897 H 0.36691 0.09543 0.91157 0.0
C898 C 0.36927 0.63839 0.79804 0.0
C899 C 0.37194 0.62253 0.79055 0.0
C900 C 0.37366 0.64092 0.81688 0.0
C901 C 0.41674 0.6225 0.85594 0.0
H902 H 0.35484 0.64659 0.88675 0.0
C903 C 0.40592 0.61171 0.9329 0.0
C904 C 0.39754 0.62471 0.94467 0.0
C905 C 0.4081 0.6142 0.91403 0.0
C906 C 0.37279 0.64016 0.87827 0.0
H907 H 0.37939 0.59682 0.79724 0.0
H908 H 0.38701 0.6013 0.8299 0.0
H909 H 0.34574 0.64558 0.85357 0.0
H910 H 0.3867 0.65075 0.94594 0.0
H911 H 0.39061 0.6551 0.91279 0.0
H912 H 0.44349 0.61678 0.88052 0.0
C913 C 0.38206 0.61177 0.82116 0.0
C914 C 0.36746 0.63952 0.85932 0.0
C915 C 0.3774 0.60921 0.80244 0.0
C916 C 0.39317 0.64047 0.93723 0.0
C917 C 0.39516 0.64295 0.91826 0.0
C918 C 0.4222 0.62322 0.87481 0.0
C919 C 0.38109 0.62767 0.82848 0.0
C920 C 0.38877 0.63022 0.84811 0.0
C921 C 0.4019 0.62974 0.90645 0.0
C922 C 0.39966 0.63158 0.88625 0.0
H923 H 0.365 0.64892 0.7893 0.0
H924 H 0.37261 0.65329 0.82226 0.0
H925 H 0.43398 0.61556 0.8475 0.0
H926 H 0.40968 0.59943 0.93819 0.0
H927 H 0.41299 0.60371 0.90532 0.0
C928 C 0.90591 0.21122 0.25009 0.0
C929 C 0.92097 0.19575 0.25174 0.0
C930 C 0.92577 0.22534 0.24855 0.0
C931 C 0.0128 0.24102 0.25437 0.0
H932 H 0.988 0.27104 0.21541 0.0
C933 C 0.10251 0.29217 0.23037 0.0
C934 C 0.08779 0.30777 0.22952 0.0
C935 C 0.08234 0.27814 0.23168 0.0
C936 C 0.9952 0.2628 0.22638 0.0
H937 H 0.9683 0.18299 0.25438 0.0
H938 H 1.00265 0.2074 0.25185 0.0
H939 H 0.95115 0.24817 0.22303 0.0
H940 H 0.04074 0.32091 0.22798 0.0
H941 H 0.00579 0.29659 0.23 0.0
H942 H 0.05691 0.25562 0.25767 0.0
C943 C 0.97571 0.2088 0.25169 0.0
C944 C 0.97394 0.24977 0.23086 0.0
C945 C 0.95598 0.19476 0.25309 0.0
C946 C 0.05276 0.30902 0.22868 0.0
C947 C 0.03271 0.29506 0.22978 0.0
C948 C 0.03409 0.25402 0.24986 0.0
C949 C 0.96096 0.22421 0.24882 0.0
C950 C 0.98249 0.23871 0.2449 0.0
C951 C 0.04719 0.2795 0.23192 0.0
C952 C 0.02555 0.26507 0.23581 0.0
H953 H 0.87899 0.21232 0.24889 0.0
H954 H 0.91362 0.23708 0.24664 0.0
H955 H 0.02 0.23284 0.2654 0.0
H956 H 0.12944 0.29087 0.23114 0.0
H957 H 0.09423 0.26627 0.23306 0.0
C958 C 0.15543 0.96149 0.23104 0.0
C959 C 0.1705 0.94597 0.23 0.0
C960 C 0.17528 0.97563 0.23258 0.0
C961 C 0.25971 0.98765 0.24861 0.0
H962 H 0.23931 0.02937 0.22584 0.0
C963 C 0.35048 0.04345 0.24903 0.0
C964 C 0.336 0.0591 0.2499 0.0
C965 C 0.33012 0.02947 0.24789 0.0
C966 C 0.24513 0.01786 0.23252 0.0
H967 H 0.2179 0.93315 0.22825 0.0
H968 H 0.25224 0.95765 0.23039 0.0
H969 H 0.20372 0.00573 0.21967 0.0
H970 H 0.28908 0.07235 0.25178 0.0
H971 H 0.25385 0.0481 0.25029 0.0
H972 H 0.30114 0.99976 0.26143 0.0
C973 C 0.22528 0.95898 0.23065 0.0
C974 C 0.22472 0.0043 0.22893 0.0
C975 C 0.20556 0.94494 0.22923 0.0
C976 C 0.30099 0.06044 0.25092 0.0
C977 C 0.28075 0.04655 0.24988 0.0
C978 C 0.28011 0.00121 0.25219 0.0
C979 C 0.21047 0.97444 0.23302 0.0
C980 C 0.23185 0.989 0.23686 0.0
C981 C 0.29497 0.03094 0.24769 0.0
C982 C 0.2731 0.01648 0.24419 0.0
H983 H 0.12847 0.96262 0.23182 0.0
H984 H 0.16307 0.98736 0.23436 0.0
H985 H 0.26556 0.97613 0.25526 0.0
H986 H 0.37738 0.04206 0.24809 0.0
H987 H 0.3419 0.01761 0.24622 0.0
C988 C 0.09667 0.95768 0.00124 0.0
C989 C 0.08244 0.94211 -0.00134 0.0
C990 C 0.07655 0.97176 0.0005 0.0
C991 C 0.99604 0.98569 0.98081 0.0
H992 H 0.00865 0.02351 0.01216 0.0
C993 C 0.90563 0.04172 0.98173 0.0
C994 C 0.92039 0.05719 0.98416 0.0
C995 C 0.9252 0.02747 0.98286 0.0
C996 C 0.00504 0.01311 0.00314 0.0
H997 H 0.0358 0.929 -0.00542 0.0
H998 H 1.00093 0.95336 -0.00631 0.0
H999 H 0.04337 0.99926 0.01665 0.0
H1000 H 0.96741 0.06993 0.98844 0.0
H1001 H 1.00131 0.04529 -0.01 0.0
H1002 H 0.95777 0.99955 0.96727 0.0
C1003 C 0.0276 0.95482 -0.00428 0.0
C1004 C 0.02496 0.99921 0.00575 0.0
C1005 C 0.04762 0.94084 -0.00361 0.0
C1006 C 0.95519 0.05817 0.98673 0.0
C1007 C 0.97464 0.04403 0.98779 0.0
C1008 C 0.97613 0.99959 0.9782 0.0
C1009 C 0.04188 0.97048 -0.00277 0.0
C1010 C 0.02071 0.98532 -0.00538 0.0
C1011 C 0.95983 0.02848 0.9864 0.0
C1012 C 0.98048 0.01351 -0.01073 0.0
H1013 H 0.12345 0.95903 0.00293 0.0
H1014 H 0.08835 0.98366 0.0017 0.0
H1015 H 0.99247 0.9753 0.97177 0.0
H1016 H 0.87886 0.0406 0.97983 0.0
H1017 H 0.913 0.01566 0.98174 0.0
C1018 C 0.3515 0.21028 0.97726 0.0
C1019 C 0.33628 0.19482 0.97593 0.0
C1020 C 0.33176 0.22446 0.97831 0.0
C1021 C 0.24535 0.24058 0.97203 0.0
H1022 H 0.26896 0.2693 0.01238 0.0
C1023 C 0.15578 0.29165 -0.0034 0.0
C1024 C 0.17093 0.30705 -0.00122 0.0
C1025 C 0.17556 0.27753 -0.00517 0.0
C1026 C 0.26211 0.26147 0.00099 0.0
H1027 H 0.28895 0.1821 0.97314 0.0
H1028 H 0.25475 0.2067 0.97468 0.0
H1029 H 0.30575 0.24657 0.00438 0.0
H1030 H 0.21827 0.31966 0.00214 0.0
H1031 H 0.2525 0.29522 -0.00073 0.0
H1032 H 0.20169 0.25549 0.96864 0.0
C1033 C 0.28171 0.208 0.97505 0.0
C1034 C 0.28334 0.24851 -0.00369 0.0
C1035 C 0.30133 0.19388 0.9742 0.0
C1036 C 0.2059 0.30794 0.00045 0.0
C1037 C 0.22555 0.2939 -0.00115 0.0
C1038 C 0.22413 0.25356 0.97669 0.0
C1039 C 0.29658 0.22339 0.97782 0.0
C1040 C 0.27521 0.23789 0.98179 0.0
C1041 C 0.21075 0.27859 -0.00458 0.0
C1042 C 0.23224 0.26416 -0.00876 0.0
H1043 H 0.37838 0.21132 0.97874 0.0
H1044 H 0.34396 0.2362 0.98018 0.0
H1045 H 0.23847 0.23268 0.96069 0.0
H1046 H 0.12889 0.29064 -0.00486 0.0
H1047 H 0.16338 0.26586 -0.00752 0.0
C1048 C 0.95186 0.69488 0.75359 0.0
C1049 C 0.9171 0.69585 0.75093 0.0
C1050 C 0.97194 0.70879 0.75196 0.0
C1051 C 0.97284 0.74864 0.72837 0.0
H1052 H 0.05313 0.75576 0.75716 0.0
C1053 C 0.05161 0.80788 0.7256 0.0
C1054 C 0.08647 0.80675 0.72766 0.0
C1055 C 0.03157 0.79391 0.7266 0.0
C1056 C 0.0311 0.75378 0.7488 0.0
H1057 H 0.8758 0.71233 0.74555 0.0
H1058 H 0.91094 0.73687 0.74295 0.0
H1059 H 0.01537 0.73341 0.76519 0.0
H1060 H 0.128 0.79004 0.73131 0.0
H1061 H 0.09283 0.76541 0.73307 0.0
H1062 H 0.98849 0.76915 0.71211 0.0
C1063 C 0.9227 0.72523 0.74604 0.0
C1064 C 0.00931 0.74103 0.75348 0.0
C1065 C 0.90249 0.71125 0.74779 0.0
C1066 C 0.1012 0.79123 0.72955 0.0
C1067 C 0.08103 0.77719 0.73079 0.0
C1068 C 0.99459 0.76144 0.72374 0.0
C1069 C 0.95778 0.72405 0.74755 0.0
C1070 C 0.9799 0.73828 0.74332 0.0
C1071 C 0.04591 0.77847 0.72989 0.0
C1072 C 0.02398 0.76416 0.7339 0.0
H1073 H 0.96384 0.68317 0.75603 0.0
H1074 H 0.99878 0.70735 0.75311 0.0
H1075 H 0.95083 0.74668 0.72 0.0
H1076 H 0.03961 0.81972 0.72413 0.0
H1077 H 0.00466 0.79536 0.72592 0.0
C1078 C 0.65873 0.95973 0.72855 0.0
C1079 C 0.67312 0.94404 0.72837 0.0
C1080 C 0.67904 0.97367 0.73035 0.0
C1081 C 0.76282 0.98519 0.74816 0.0
H1082 H 0.74372 0.02704 0.72534 0.0
C1083 C 0.8524 0.04159 0.75051 0.0
C1084 C 0.83724 0.05708 0.75169 0.0
C1085 C 0.83266 0.02743 0.74888 0.0
C1086 C 0.74918 0.01547 0.732 0.0
H1087 H 0.71996 0.93065 0.72842 0.0
H1088 H 0.75523 0.95482 0.73087 0.0
H1089 H 0.70876 0.00341 0.71823 0.0
H1090 H 0.78974 0.0698 0.7537 0.0
H1091 H 0.75558 0.04525 0.75126 0.0
H1092 H 0.80342 0.99728 0.76182 0.0
C1093 C 0.72836 0.95645 0.73033 0.0
C1094 C 0.72912 0.00192 0.72789 0.0
C1095 C 0.70814 0.9426 0.72872 0.0
C1096 C 0.80217 0.05804 0.7526 0.0
C1097 C 0.78255 0.04398 0.75103 0.0
C1098 C 0.78297 0.99874 0.7522 0.0
C1099 C 0.71409 0.97213 0.73184 0.0
C1100 C 0.73565 0.98659 0.73592 0.0
C1101 C 0.79748 0.02858 0.74845 0.0
C1102 C 0.77629 0.01406 0.74424 0.0
H1103 H 0.63179 0.96118 0.72846 0.0
H1104 H 0.66716 0.98555 0.73151 0.0
H1105 H 0.76824 0.97366 0.7549 0.0
H1106 H 0.87936 0.0405 0.74965 0.0
H1107 H 0.84493 0.01573 0.74695 0.0
C1108 C 0.6543 0.79133 -0.00166 0.0
C1109 C 0.67003 0.80672 -0.00227 0.0
C1110 C 0.67342 0.77692 -0.0028 0.0
C1111 C 0.75464 0.76298 0.9789 0.0
H1112 H 0.73857 0.72366 0.00737 0.0
C1113 C 0.84588 0.70756 0.97951 0.0
C1114 C 0.83188 0.69188 0.98142 0.0
C1115 C 0.82543 0.72152 0.98044 0.0
C1116 C 0.74311 0.73446 -0.00091 0.0
H1117 H 0.71806 0.81909 -0.00311 0.0
H1118 H 0.7511 0.79416 -0.00478 0.0
H1119 H 0.70376 0.74781 0.0124 0.0
H1120 H 0.78541 0.67841 0.98446 0.0
H1121 H 0.7499 0.70256 0.98551 0.0
H1122 H 0.79383 0.74968 0.9655 0.0
C1123 C 0.72412 0.79312 -0.00395 0.0
C1124 C 0.72317 0.74831 0.00204 0.0
C1125 C 0.70515 0.80741 -0.00283 0.0
C1126 C 0.797 0.69037 0.98316 0.0
C1127 C 0.77663 0.70423 0.98394 0.0
C1128 C 0.77447 0.74912 0.97589 0.0
C1129 C 0.70849 0.77773 -0.00457 0.0
C1130 C 0.72889 0.76277 -0.00791 0.0
C1131 C 0.79063 0.72 0.98316 0.0
C1132 C 0.76908 0.7347 0.98599 0.0
H1133 H 0.62727 0.79043 -0.00134 0.0
H1134 H 0.66066 0.76522 -0.00321 0.0
H1135 H 0.75929 0.77385 0.97074 0.0
H1136 H 0.8727 0.70909 0.97827 0.0
H1137 H 0.8371 0.73348 0.97985 0.0
C1138 C 0.30073 0.55832 0.75322 0.0
C1139 C 0.33555 0.55706 0.751 0.0
C1140 C 0.2803 0.54453 0.7516 0.0
C1141 C 0.27857 0.50479 0.72826 0.0
H1142 H 0.19849 0.49772 0.75726 0.0
C1143 C 0.19929 0.44588 0.72448 0.0
C1144 C 0.16457 0.44687 0.72724 0.0
C1145 C 0.21931 0.45984 0.72564 0.0
C1146 C 0.22043 0.49969 0.74882 0.0
H1147 H 0.37656 0.54024 0.74633 0.0
H1148 H 0.34073 0.51593 0.74359 0.0
H1149 H 0.23658 0.51994 0.76527 0.0
H1150 H 0.1232 0.46339 0.73224 0.0
H1151 H 0.15828 0.48803 0.73413 0.0
H1152 H 0.26242 0.48455 0.71179 0.0
C1153 C 0.32926 0.52768 0.74643 0.0
C1154 C 0.24243 0.51235 0.75351 0.0
C1155 C 0.34982 0.54154 0.74824 0.0
C1156 C 0.14988 0.46231 0.72994 0.0
C1157 C 0.17003 0.47634 0.73127 0.0
C1158 C 0.25655 0.49214 0.72355 0.0
C1159 C 0.29417 0.52914 0.74757 0.0
C1160 C 0.27179 0.51505 0.74331 0.0
C1161 C 0.20511 0.47516 0.72972 0.0
C1162 C 0.22723 0.4894 0.73379 0.0
H1163 H 0.28904 0.57015 0.75535 0.0
H1164 H 0.25346 0.54615 0.75247 0.0
H1165 H 0.30057 0.50674 0.71986 0.0
H1166 H 0.2113 0.43413 0.72236 0.0
H1167 H 0.24616 0.45842 0.72446 0.0
C1168 C 0.90361 0.54134 0.47875 0.0
C1169 C 0.91901 0.55679 0.47819 0.0
C1170 C 0.92318 0.52708 0.47961 0.0
C1171 C 0.01025 0.51127 0.47416 0.0
H1172 H 0.98341 0.48019 0.51165 0.0
C1173 C 0.09871 0.45961 0.4985 0.0
C1174 C 0.08406 0.44398 0.49878 0.0
C1175 C 0.07857 0.47363 0.49693 0.0
C1176 C 0.99118 0.48872 0.50107 0.0
H1177 H 0.96661 0.56945 0.47665 0.0
H1178 H 1.00046 0.5448 0.47802 0.0
H1179 H 0.94707 0.50331 0.50433 0.0
H1180 H 0.03702 0.43075 0.49891 0.0
H1181 H 1.00209 0.45504 0.49649 0.0
H1182 H 0.05449 0.49673 0.47102 0.0
C1183 C 0.9735 0.54352 0.47786 0.0
C1184 C 0.97021 0.50189 0.49676 0.0
C1185 C 0.95405 0.55769 0.47714 0.0
C1186 C 0.04901 0.44266 0.49869 0.0
C1187 C 0.02896 0.4566 0.49735 0.0
C1188 C 0.03126 0.49812 0.47851 0.0
C1189 C 0.95839 0.52807 0.47974 0.0
C1190 C 0.97951 0.51336 0.48327 0.0
C1191 C 0.04348 0.47221 0.49588 0.0
C1192 C 0.022 0.4867 0.49204 0.0
H1193 H 0.87665 0.54031 0.47967 0.0
H1194 H 0.91076 0.51532 0.48075 0.0
H1195 H 0.01805 0.51977 0.46356 0.0
H1196 H 0.12567 0.46096 0.49842 0.0
H1197 H 0.09046 0.48553 0.49607 0.0
C1198 C 0.35027 0.71 0.48067 0.0
C1199 C 0.33544 0.69441 0.48077 0.0
C1200 C 0.33026 0.72409 0.48176 0.0
C1201 C 0.24301 0.73937 0.47725 0.0
H1202 H 0.26989 0.7705 0.51463 0.0
C1203 C 0.1552 0.79184 0.50004 0.0
C1204 C 0.17045 0.80731 0.50094 0.0
C1205 C 0.17488 0.77764 0.49879 0.0
C1206 C 0.2621 0.762 0.50406 0.0
H1207 H 0.28826 0.6813 0.48073 0.0
H1208 H 0.25357 0.70572 0.48235 0.0
H1209 H 0.30631 0.74746 0.50728 0.0
H1210 H 0.21799 0.82003 0.50255 0.0
H1211 H 0.25202 0.7955 0.50046 0.0
H1212 H 0.19889 0.75396 0.47395 0.0
C1213 C 0.28046 0.70719 0.48156 0.0
C1214 C 0.2831 0.74885 0.49976 0.0
C1215 C 0.30038 0.69318 0.48069 0.0
C1216 C 0.20551 0.80826 0.50182 0.0
C1217 C 0.22507 0.79416 0.50069 0.0
C1218 C 0.22205 0.75257 0.4815 0.0
C1219 C 0.29514 0.72279 0.48272 0.0
C1220 C 0.27381 0.73737 0.48632 0.0
C1221 C 0.21009 0.7787 0.49859 0.0
C1222 C 0.23134 0.76406 0.49495 0.0
H1223 H 0.37724 0.71128 0.48084 0.0
H1224 H 0.34227 0.73598 0.48238 0.0
H1225 H 0.23523 0.7308 0.46675 0.0
H1226 H 0.12823 0.79076 0.49923 0.0
H1227 H 0.16256 0.76587 0.49748 0.0
C1228 C 0.80421 0.5568 0.25433 0.0
C1229 C 0.83899 0.55595 0.25169 0.0
C1230 C 0.78436 0.54281 0.25268 0.0
C1231 C 0.78377 0.50373 0.22806 0.0
H1232 H 0.70426 0.49519 0.25703 0.0
C1233 C 0.70493 0.44478 0.22138 0.0
C1234 C 0.67022 0.44563 0.22428 0.0
C1235 C 0.72496 0.45867 0.22333 0.0
C1236 C 0.72606 0.49757 0.24862 0.0
H1237 H 0.88058 0.53965 0.24634 0.0
H1238 H 0.84577 0.515 0.24352 0.0
H1239 H 0.74189 0.51737 0.26584 0.0
H1240 H 0.62893 0.46192 0.23037 0.0
H1241 H 0.66399 0.48642 0.23358 0.0
H1242 H 0.76791 0.48398 0.21079 0.0
C1243 C 0.83388 0.52658 0.24672 0.0
C1244 C 0.74779 0.51021 0.25376 0.0
C1245 C 0.85386 0.54062 0.24858 0.0
C1246 C 0.65558 0.46093 0.22793 0.0
C1247 C 0.67574 0.47488 0.23002 0.0
C1248 C 0.76203 0.49111 0.2229 0.0
C1249 C 0.79878 0.52764 0.24817 0.0
C1250 C 0.7769 0.51345 0.24354 0.0
C1251 C 0.7108 0.47378 0.22834 0.0
C1252 C 0.73288 0.48787 0.23311 0.0
H1253 H 0.79208 0.56847 0.25675 0.0
H1254 H 0.75748 0.54412 0.25381 0.0
H1255 H 0.80558 0.50612 0.21965 0.0
H1256 H 0.71692 0.43314 0.21856 0.0
H1257 H 0.7518 0.45731 0.222 0.0
C1258 C 0.7062 0.30952 0.49624 0.0
C1259 C 0.67112 0.30837 0.49632 0.0
C1260 C 0.72597 0.29546 0.49546 0.0
C1261 C 0.72599 0.25035 0.50058 0.0
H1262 H 0.79959 0.25296 0.46591 0.0
C1263 C 0.79921 0.19291 0.48 0.0
C1264 C 0.83429 0.19407 0.47987 0.0
C1265 C 0.77943 0.20696 0.48084 0.0
C1266 C 0.77938 0.25207 0.47576 0.0
H1267 H 0.62919 0.29158 0.49672 0.0
H1268 H 0.66388 0.26681 0.49527 0.0
H1269 H 0.76459 0.27694 0.47132 0.0
H1270 H 0.8762 0.21087 0.47949 0.0
H1271 H 0.84149 0.23563 0.48105 0.0
H1272 H 0.74079 0.22547 0.50502 0.0
C1273 C 0.67607 0.27865 0.4959 0.0
C1274 C 0.75931 0.26582 0.47891 0.0
C1275 C 0.65618 0.29281 0.49679 0.0
C1276 C 0.84922 0.20964 0.47944 0.0
C1277 C 0.82931 0.22379 0.4804 0.0
C1278 C 0.74607 0.2366 0.49743 0.0
C1279 C 0.71118 0.27987 0.4946 0.0
C1280 C 0.73241 0.26515 0.49139 0.0
C1281 C 0.7942 0.22255 0.48172 0.0
C1282 C 0.77297 0.23727 0.48495 0.0
H1283 H 0.71845 0.32136 0.49608 0.0
H1284 H 0.75291 0.29685 0.49504 0.0
H1285 H 0.70578 0.24946 0.51043 0.0
H1286 H 0.78697 0.18106 0.48014 0.0
H1287 H 0.75249 0.20557 0.4813 0.0
C1288 C 0.45492 0.19357 0.75233 0.0
C1289 C 0.41994 0.19447 0.75074 0.0
C1290 C 0.47458 0.20763 0.75075 0.0
C1291 C 0.47289 0.24784 0.72838 0.0
H1292 H 0.55477 0.25515 0.75573 0.0
C1293 C 0.55028 0.30733 0.72342 0.0
C1294 C 0.58526 0.30647 0.7251 0.0
C1295 C 0.53063 0.29328 0.72514 0.0
C1296 C 0.53227 0.25313 0.74776 0.0
H1297 H 0.37788 0.2109 0.74731 0.0
H1298 H 0.41235 0.23568 0.74465 0.0
H1299 H 0.51811 0.23244 0.76412 0.0
H1300 H 0.6273 0.29009 0.72886 0.0
H1301 H 0.59286 0.26532 0.73171 0.0
H1302 H 0.48706 0.2685 0.712 0.0
C1303 C 0.42455 0.22401 0.74694 0.0
C1304 C 0.51112 0.24018 0.75267 0.0
C1305 C 0.40478 0.20988 0.7487 0.0
C1306 C 0.60042 0.29109 0.72738 0.0
C1307 C 0.58065 0.27697 0.72926 0.0
C1308 C 0.49405 0.26077 0.72347 0.0
C1309 C 0.45974 0.22295 0.7474 0.0
C1310 C 0.48116 0.23737 0.74304 0.0
C1311 C 0.54546 0.278 0.72869 0.0
C1312 C 0.52401 0.26359 0.7331 0.0
H1313 H 0.4673 0.18184 0.75391 0.0
H1314 H 0.50153 0.20632 0.75109 0.0
H1315 H 0.45039 0.24581 0.72042 0.0
H1316 H 0.53789 0.31904 0.72165 0.0
H1317 H 0.50368 0.29459 0.72471 0.0
C1318 C 0.4556 0.05854 0.48001 0.0
C1319 C 0.4206 0.0571 0.48084 0.0
C1320 C 0.47597 0.04471 0.48117 0.0
C1321 C 0.47599 0.0036 0.50109 0.0
H1322 H 0.55811 0.99824 0.47339 0.0
C1323 C 0.55462 0.94448 0.50236 0.0
C1324 C 0.58951 0.9455 0.50036 0.0
C1325 C 0.53481 0.95853 0.5017 0.0
C1326 C 0.53558 0.99971 0.48148 0.0
H1327 H 0.37933 0.04 0.48264 0.0
H1328 H 0.41512 0.01559 0.48468 0.0
H1329 H 0.52069 0.021 0.46633 0.0
H1330 H 0.63132 0.96214 0.49723 0.0
H1331 H 0.5966 0.98693 0.49627 0.0
H1332 H 0.4909 0.98237 0.51632 0.0
C1333 C 0.42672 0.02752 0.48323 0.0
C1334 C 0.51398 0.01268 0.47732 0.0
C1335 C 0.40623 0.04143 0.48184 0.0
C1336 C 0.60449 0.96101 0.4989 0.0
C1337 C 0.58456 0.97515 0.4981 0.0
C1338 C 0.49763 0.99066 0.5053 0.0
C1339 C 0.46184 0.02908 0.48337 0.0
C1340 C 0.48389 0.01475 0.48704 0.0
C1341 C 0.54939 0.974 0.49893 0.0
C1342 C 0.52765 0.98851 0.4955 0.0
H1343 H 0.46735 0.07049 0.47922 0.0
H1344 H 0.50285 0.04638 0.48133 0.0
H1345 H 0.45337 0.00506 0.50912 0.0
H1346 H 0.54237 0.93267 0.50355 0.0
H1347 H 0.50789 0.95711 0.50228 0.0
C1348 C 0.54798 0.81091 0.22972 0.0
C1349 C 0.58297 0.80954 0.22859 0.0
C1350 C 0.52789 0.79697 0.2309 0.0
C1351 C 0.52663 0.75181 0.22527 0.0
H1352 H 0.45547 0.75436 0.26143 0.0
C1353 C 0.45635 0.69424 0.24859 0.0
C1354 C 0.42126 0.69512 0.24949 0.0
C1355 C 0.47558 0.70841 0.24681 0.0
C1356 C 0.47498 0.75349 0.25116 0.0
H1357 H 0.62429 0.79247 0.22684 0.0
H1358 H 0.58912 0.76793 0.22905 0.0
H1359 H 0.49008 0.77836 0.25532 0.0
H1360 H 0.37889 0.71165 0.25022 0.0
H1361 H 0.41267 0.73661 0.24713 0.0
H1362 H 0.51164 0.7269 0.22121 0.0
C1363 C 0.57719 0.77984 0.2289 0.0
C1364 C 0.49482 0.76726 0.2476 0.0
C1365 C 0.59738 0.79388 0.22759 0.0
C1366 C 0.40589 0.7106 0.24967 0.0
C1367 C 0.42525 0.72487 0.24783 0.0
C1368 C 0.50682 0.73804 0.22885 0.0
C1369 C 0.54226 0.78127 0.23113 0.0
C1370 C 0.52093 0.7666 0.23462 0.0
C1371 C 0.46027 0.72387 0.24582 0.0
C1372 C 0.48086 0.73868 0.24191 0.0
H1373 H 0.53608 0.82283 0.23031 0.0
H1374 H 0.50106 0.79854 0.23206 0.0
H1375 H 0.54615 0.75092 0.21501 0.0
H1376 H 0.469 0.6825 0.2486 0.0
H1377 H 0.50251 0.70721 0.2458 0.0
C1378 C 0.55238 0.44269 -0.00296 0.0
C1379 C 0.58743 0.44391 -0.00345 0.0
C1380 C 0.53244 0.45668 -0.00374 0.0
C1381 C 0.53217 0.50187 0.00025 0.0
H1382 H 0.4572 0.49846 0.96658 0.0
C1383 C 0.45733 0.55875 0.97951 0.0
C1384 C 0.42228 0.55747 0.9799 0.0
C1385 C 0.47736 0.54478 0.98029 0.0
C1386 C 0.4778 0.49958 0.97615 0.0
H1387 H 0.6292 0.46078 -0.00406 0.0
H1388 H 0.59421 0.48546 -0.00552 0.0
H1389 H 0.49265 0.47465 0.97214 0.0
H1390 H 0.38062 0.54052 0.98031 0.0
H1391 H 0.41575 0.5159 0.98178 0.0
H1392 H 0.5173 0.52679 0.00428 0.0
C1393 C 0.58217 0.4736 -0.00443 0.0
C1394 C 0.49813 0.48593 0.97939 0.0
C1395 C 0.60225 0.45951 -0.00353 0.0
C1396 C 0.40758 0.54184 0.97987 0.0
C1397 C 0.42773 0.52778 0.98077 0.0
C1398 C 0.51183 0.51552 -0.00298 0.0
C1399 C 0.54703 0.47228 -0.00519 0.0
C1400 C 0.52552 0.48689 -0.00848 0.0
C1401 C 0.46287 0.52915 0.98163 0.0
C1402 C 0.48443 0.51456 0.9849 0.0
H1403 H 0.54024 0.43081 -0.00269 0.0
H1404 H 0.5055 0.45523 -0.00374 0.0
H1405 H 0.55277 0.50298 0.00982 0.0
H1406 H 0.46937 0.57065 0.97934 0.0
H1407 H 0.50428 0.54628 0.98037 0.0
C1408 C 0.14691 0.40608 0.42654 0.0
C1409 C 0.1403 0.39432 0.44014 0.0
C1410 C 0.14818 0.40156 0.40815 0.0
C1411 C 0.16342 0.36764 0.37732 0.0
H1412 H 0.10701 0.39161 0.34328 0.0
C1413 C 0.14256 0.34573 0.30346 0.0
C1414 C 0.13911 0.35753 0.28958 0.0
C1415 C 0.14393 0.35045 0.32179 0.0
C1416 C 0.12336 0.38498 0.35252 0.0
H1417 H 0.13079 0.36857 0.44537 0.0
H1418 H 0.13365 0.36058 0.41298 0.0
H1419 H 0.10773 0.39928 0.37559 0.0
H1420 H 0.13512 0.38349 0.28376 0.0
H1421 H 0.13878 0.39188 0.31586 0.0
H1422 H 0.17977 0.35358 0.35431 0.0
C1423 C 0.13759 0.37329 0.41667 0.0
C1424 C 0.12358 0.38932 0.37101 0.0
C1425 C 0.13584 0.37786 0.43511 0.0
C1426 C 0.13754 0.37417 0.29427 0.0
C1427 C 0.13945 0.37893 0.31264 0.0
C1428 C 0.1636 0.36345 0.35877 0.0
C1429 C 0.14332 0.38517 0.40307 0.0
C1430 C 0.14345 0.38062 0.38354 0.0
C1431 C 0.14246 0.3671 0.32661 0.0
C1432 C 0.14337 0.372 0.34618 0.0
H1433 H 0.15045 0.41887 0.43006 0.0
H1434 H 0.15293 0.41088 0.39786 0.0
H1435 H 0.1792 0.3609 0.38677 0.0
H1436 H 0.14354 0.33278 0.3002 0.0
H1437 H 0.14552 0.34099 0.33219 0.0
C1438 C 0.11711 0.90664 0.30374 0.0
C1439 C 0.12432 0.89525 0.28985 0.0
C1440 C 0.11737 0.90189 0.32208 0.0
C1441 C 0.10741 0.86703 0.35233 0.0
H1442 H 0.15864 0.89302 0.38695 0.0
C1443 C 0.12715 0.84589 0.42647 0.0
C1444 C 0.12719 0.85776 0.44039 0.0
C1445 C 0.12712 0.85056 0.40812 0.0
C1446 C 0.14379 0.88578 0.37753 0.0
H1447 H 0.13675 0.8699 0.2841 0.0
H1448 H 0.13676 0.86148 0.31641 0.0
H1449 H 0.15756 0.90078 0.35463 0.0
H1450 H 0.127 0.88377 0.44624 0.0
H1451 H 0.12561 0.89206 0.41399 0.0
H1452 H 0.09276 0.85228 0.37515 0.0
C1453 C 0.13109 0.8741 0.31298 0.0
C1454 C 0.14336 0.89017 0.35904 0.0
C1455 C 0.13119 0.87891 0.29458 0.0
C1456 C 0.12717 0.87442 0.4357 0.0
C1457 C 0.12655 0.87912 0.41725 0.0
C1458 C 0.10744 0.86275 0.37086 0.0
C1459 C 0.12451 0.88562 0.32685 0.0
C1460 C 0.12526 0.8808 0.34632 0.0
C1461 C 0.12648 0.86721 0.40326 0.0
C1462 C 0.12578 0.87203 0.38366 0.0
H1463 H 0.11163 0.91932 0.30049 0.0
H1464 H 0.11181 0.91091 0.33254 0.0
H1465 H 0.09292 0.85975 0.34276 0.0
H1466 H 0.12756 0.83293 0.42976 0.0
H1467 H 0.12791 0.84107 0.39774 0.0
C1468 C 0.14025 0.84333 0.80328 0.0
C1469 C 0.13449 0.85529 0.78979 0.0
C1470 C 0.14204 0.84771 0.82172 0.0
C1471 C 0.16116 0.8813 0.85236 0.0
H1472 H 0.10535 0.85808 0.88734 0.0
C1473 C 0.14373 0.90379 0.92631 0.0
C1474 C 0.13964 0.89214 0.9403 0.0
C1475 C 0.145 0.8989 0.90802 0.0
C1476 C 0.12158 0.86448 0.87783 0.0
H1477 H 0.12656 0.8812 0.78481 0.0
H1478 H 0.13024 0.88893 0.81724 0.0
H1479 H 0.1038 0.85044 0.85503 0.0
H1480 H 0.13478 0.86626 0.94638 0.0
H1481 H 0.13823 0.85757 0.91437 0.0
H1482 H 0.17958 0.89512 0.87509 0.0
C1483 C 0.1332 0.87618 0.81345 0.0
C1484 C 0.12048 0.86017 0.85934 0.0
C1485 C 0.13094 0.87176 0.79498 0.0
C1486 C 0.13768 0.87547 0.93578 0.0
C1487 C 0.13946 0.87054 0.91746 0.0
C1488 C 0.16265 0.88546 0.8709 0.0
C1489 C 0.13853 0.86415 0.82693 0.0
C1490 C 0.14005 0.86864 0.84647 0.0
C1491 C 0.14273 0.88223 0.90336 0.0
C1492 C 0.14263 0.8772 0.88383 0.0
H1493 H 0.14308 0.83053 0.79964 0.0
H1494 H 0.14642 0.83826 0.83189 0.0
H1495 H 0.17678 0.88783 0.84266 0.0
H1496 H 0.14509 0.91675 0.92942 0.0
H1497 H 0.14687 0.90827 0.89753 0.0
C1498 C 0.13254 0.38011 0.79354 0.0
C1499 C 0.12597 0.39651 0.78896 0.0
C1500 C 0.13355 0.3753 0.81193 0.0
C1501 C 0.14789 0.39096 0.85813 0.0
H1502 H 0.09495 0.35376 0.87402 0.0
C1503 C 0.12984 0.37504 0.9347 0.0
C1504 C 0.12876 0.35836 0.93926 0.0
C1505 C 0.12993 0.37987 0.91629 0.0
C1506 C 0.1103 0.36403 0.86979 0.0
H1507 H 0.11547 0.42074 0.79984 0.0
H1508 H 0.11753 0.41233 0.83188 0.0
H1509 H 0.09552 0.36139 0.84171 0.0
H1510 H 0.12803 0.3336 0.92842 0.0
H1511 H 0.12955 0.34193 0.89648 0.0
H1512 H 0.16328 0.39346 0.88607 0.0
C1513 C 0.12197 0.40325 0.82131 0.0
C1514 C 0.11052 0.36839 0.8513 0.0
C1515 C 0.12059 0.40801 0.80299 0.0
C1516 C 0.12841 0.34658 0.92525 0.0
C1517 C 0.12907 0.35136 0.90693 0.0
C1518 C 0.14804 0.38648 0.8766 0.0
C1519 C 0.1284 0.38687 0.82593 0.0
C1520 C 0.1292 0.38191 0.84536 0.0
C1521 C 0.12945 0.36805 0.90221 0.0
C1522 C 0.12919 0.37297 0.88264 0.0
H1523 H 0.13675 0.37103 0.78296 0.0
H1524 H 0.13868 0.3626 0.81524 0.0
H1525 H 0.16268 0.40139 0.85378 0.0
H1526 H 0.12999 0.38433 0.94532 0.0
H1527 H 0.12981 0.39283 0.91311 0.0
C1528 C 0.88175 0.62731 0.68652 0.0
C1529 C 0.88138 0.64412 0.69053 0.0
C1530 C 0.88106 0.622 0.66829 0.0
C1531 C 0.8587 0.63684 0.62186 0.0
H1532 H 0.91054 0.59947 0.6054 0.0
C1533 C 0.88085 0.62186 0.54562 0.0
C1534 C 0.87502 0.60553 0.54051 0.0
C1535 C 0.88117 0.62623 0.56413 0.0
C1536 C 0.8958 0.60987 0.60989 0.0
H1537 H 0.88146 0.66858 0.67884 0.0
H1538 H 0.88145 0.6594 0.6472 0.0
H1539 H 0.9126 0.60759 0.63765 0.0
H1540 H 0.86506 0.58096 0.55058 0.0
H1541 H 0.86599 0.58863 0.58293 0.0
H1542 H 0.84258 0.63932 0.59399 0.0
C1543 C 0.88107 0.65026 0.65799 0.0
C1544 C 0.89685 0.61447 0.62833 0.0
C1545 C 0.88133 0.65552 0.67612 0.0
C1546 C 0.86957 0.59365 0.55415 0.0
C1547 C 0.87029 0.59799 0.57264 0.0
C1548 C 0.85798 0.63236 0.60343 0.0
C1549 C 0.88036 0.63346 0.65384 0.0
C1550 C 0.87848 0.62809 0.63447 0.0
C1551 C 0.87606 0.61431 0.57776 0.0
C1552 C 0.87662 0.61889 0.5973 0.0
H1553 H 0.88171 0.61829 0.69744 0.0
H1554 H 0.88028 0.60897 0.66553 0.0
H1555 H 0.84363 0.64716 0.62623 0.0
H1556 H 0.88512 0.63123 0.53535 0.0
H1557 H 0.88587 0.63889 0.56781 0.0
C1558 C 0.88142 0.0963 0.67697 0.0
C1559 C 0.87961 0.10788 0.69116 0.0
C1560 C 0.88277 0.10135 0.65876 0.0
C1561 C 0.86602 0.13668 0.62855 0.0
H1562 H 0.9215 0.11203 0.59464 0.0
C1563 C 0.89166 0.15725 0.55434 0.0
C1564 C 0.88537 0.14535 0.54085 0.0
C1565 C 0.89225 0.15293 0.57282 0.0
C1566 C 0.90582 0.11894 0.60398 0.0
H1567 H 0.87776 0.13378 0.69762 0.0
H1568 H 0.88119 0.14273 0.66564 0.0
H1569 H 0.92057 0.10449 0.62701 0.0
H1570 H 0.87558 0.11959 0.53593 0.0
H1571 H 0.87714 0.11195 0.56843 0.0
H1572 H 0.8519 0.15132 0.60543 0.0
C1573 C 0.88083 0.12972 0.66859 0.0
C1574 C 0.90515 0.11462 0.62248 0.0
C1575 C 0.879 0.12463 0.68687 0.0
C1576 C 0.88039 0.12898 0.54609 0.0
C1577 C 0.88142 0.12462 0.56461 0.0
C1578 C 0.86706 0.14112 0.61009 0.0
C1579 C 0.88287 0.11811 0.65435 0.0
C1580 C 0.88492 0.12331 0.63493 0.0
C1581 C 0.88699 0.13661 0.57809 0.0
C1582 C 0.8867 0.13218 0.59766 0.0
H1583 H 0.88157 0.08328 0.67992 0.0
H1584 H 0.88347 0.09208 0.64814 0.0
H1585 H 0.84983 0.14347 0.63772 0.0
H1586 H 0.8956 0.16997 0.55065 0.0
H1587 H 0.89689 0.16233 0.583 0.0
C1588 C 0.87514 0.12814 0.18727 0.0
C1589 C 0.87696 0.14483 0.19169 0.0
C1590 C 0.87267 0.12328 0.16892 0.0
C1591 C 0.85067 0.13979 0.12296 0.0
H1592 H 0.89596 0.10077 0.10553 0.0
C1593 C 0.87127 0.12413 0.04636 0.0
C1594 C 0.86369 0.10795 0.04131 0.0
C1595 C 0.87083 0.12868 0.06483 0.0
C1596 C 0.88302 0.11164 0.11029 0.0
H1597 H 0.87903 0.16951 0.18068 0.0
H1598 H 0.87622 0.16108 0.14881 0.0
H1599 H 0.90032 0.10839 0.1378 0.0
H1600 H 0.84884 0.08398 0.05139 0.0
H1601 H 0.84849 0.09194 0.0836 0.0
H1602 H 0.83431 0.14323 0.09524 0.0
C1603 C 0.87532 0.15172 0.15935 0.0
C1604 C 0.88536 0.11596 0.12876 0.0
C1605 C 0.8772 0.15655 0.17761 0.0
C1606 C 0.8549 0.09653 0.05491 0.0
C1607 C 0.85485 0.10103 0.07333 0.0
C1608 C 0.84874 0.13558 0.10446 0.0
C1609 C 0.8725 0.13506 0.15477 0.0
C1610 C 0.86931 0.13013 0.13529 0.0
C1611 C 0.86319 0.11707 0.07844 0.0
C1612 C 0.86491 0.12149 0.09801 0.0
H1613 H 0.87475 0.11891 0.19795 0.0
H1614 H 0.8702 0.11035 0.16587 0.0
H1615 H 0.83739 0.15059 0.12761 0.0
H1616 H 0.87804 0.13316 0.03611 0.0
H1617 H 0.87744 0.14113 0.06852 0.0
C1618 C 0.88674 0.62658 0.04515 0.0
C1619 C 0.89006 0.64306 0.03999 0.0
C1620 C 0.88659 0.62225 0.06368 0.0
C1621 C 0.9066 0.63818 0.11021 0.0
H1622 H 0.84537 0.60395 0.12558 0.0
C1623 C 0.87613 0.62339 0.18626 0.0
C1624 C 0.87962 0.60675 0.19077 0.0
C1625 C 0.87709 0.62836 0.1679 0.0
C1626 C 0.86259 0.61351 0.12143 0.0
H1627 H 0.89615 0.66793 0.04997 0.0
H1628 H 0.89469 0.66049 0.08222 0.0
H1629 H 0.8488 0.61134 0.09324 0.0
H1630 H 0.88645 0.58224 0.1798 0.0
H1631 H 0.88765 0.5909 0.14786 0.0
H1632 H 0.91974 0.64049 0.13861 0.0
C1633 C 0.89312 0.65082 0.07208 0.0
C1634 C 0.8648 0.61766 0.10292 0.0
C1635 C 0.89377 0.6551 0.05359 0.0
C1636 C 0.88371 0.59516 0.17671 0.0
C1637 C 0.88423 0.60008 0.15844 0.0
C1638 C 0.90405 0.63416 0.12877 0.0
C1639 C 0.88925 0.63436 0.07737 0.0
C1640 C 0.88703 0.62995 0.09707 0.0
C1641 C 0.88103 0.6167 0.15388 0.0
C1642 C 0.88224 0.62171 0.13447 0.0
H1643 H 0.8841 0.61707 0.03488 0.0
H1644 H 0.88428 0.60942 0.06728 0.0
H1645 H 0.92431 0.64755 0.10615 0.0
H1646 H 0.87301 0.63255 0.19688 0.0
H1647 H 0.87445 0.64125 0.16464 0.0
C1648 C 0.63054 0.37894 0.9299 0.0
C1649 C 0.63651 0.39521 0.93517 0.0
C1650 C 0.63078 0.37466 0.91135 0.0
C1651 C 0.61675 0.39153 0.86585 0.0
H1652 H 0.66797 0.35417 0.84883 0.0
C1653 C 0.62771 0.37484 0.78894 0.0
C1654 C 0.62773 0.35807 0.78471 0.0
C1655 C 0.62956 0.37994 0.80723 0.0
C1656 C 0.65316 0.36451 0.85339 0.0
H1657 H 0.6476 0.41976 0.92537 0.0
H1658 H 0.64758 0.41227 0.89298 0.0
H1659 H 0.66944 0.36162 0.88119 0.0
H1660 H 0.62846 0.33349 0.79605 0.0
H1661 H 0.63032 0.3423 0.82779 0.0
H1662 H 0.59962 0.39419 0.83822 0.0
C1663 C 0.64273 0.40287 0.90316 0.0
C1664 C 0.65414 0.36878 0.87188 0.0
C1665 C 0.64292 0.4071 0.92167 0.0
C1666 C 0.62883 0.34651 0.79895 0.0
C1667 C 0.63016 0.35157 0.81714 0.0
C1668 C 0.6154 0.38714 0.84736 0.0
C1669 C 0.63657 0.38664 0.89786 0.0
C1670 C 0.63586 0.38227 0.87826 0.0
C1671 C 0.63101 0.36833 0.82152 0.0
C1672 C 0.63342 0.3735 0.84095 0.0
H1673 H 0.62558 0.36955 0.94006 0.0
H1674 H 0.6258 0.36207 0.90752 0.0
H1675 H 0.60226 0.40194 0.87053 0.0
H1676 H 0.62701 0.38396 0.77815 0.0
H1677 H 0.63048 0.39294 0.81014 0.0
C1678 C 0.61786 0.84635 0.92389 0.0
C1679 C 0.62394 0.85779 0.93787 0.0
C1680 C 0.61681 0.85131 0.90564 0.0
C1681 C 0.60028 0.8858 0.87589 0.0
H1682 H 0.65436 0.862 0.84061 0.0
C1683 C 0.61465 0.90707 0.80106 0.0
C1684 C 0.61757 0.89507 0.78737 0.0
C1685 C 0.61449 0.90263 0.81951 0.0
C1686 C 0.63866 0.8686 0.85021 0.0
H1687 H 0.63311 0.88342 0.94391 0.0
H1688 H 0.63077 0.8922 0.91171 0.0
H1689 H 0.65618 0.85433 0.8729 0.0
H1690 H 0.62144 0.86903 0.78201 0.0
H1691 H 0.61981 0.86112 0.81431 0.0
H1692 H 0.58194 0.89978 0.85323 0.0
C1693 C 0.62702 0.87938 0.91501 0.0
C1694 C 0.63994 0.86428 0.86869 0.0
C1695 C 0.6285 0.87437 0.93334 0.0
C1696 C 0.61945 0.87851 0.79236 0.0
C1697 C 0.61874 0.87402 0.81085 0.0
C1698 C 0.59862 0.88999 0.85735 0.0
C1699 C 0.62147 0.86783 0.90105 0.0
C1700 C 0.62076 0.87284 0.88165 0.0
C1701 C 0.61671 0.88606 0.82464 0.0
C1702 C 0.61782 0.88143 0.8443 0.0
H1703 H 0.6142 0.83348 0.927 0.0
H1704 H 0.61214 0.84223 0.89509 0.0
H1705 H 0.585 0.89243 0.88567 0.0
H1706 H 0.6134 0.91996 0.79756 0.0
H1707 H 0.61348 0.91224 0.82974 0.0
C1708 C 0.63504 0.90721 0.42426 0.0
C1709 C 0.63053 0.89553 0.4382 0.0
C1710 C 0.63542 0.90246 0.40594 0.0
C1711 C 0.65378 0.86837 0.37598 0.0
H1712 H 0.59877 0.89168 0.34071 0.0
C1713 C 0.64084 0.847 0.30125 0.0
C1714 C 0.6376 0.85893 0.28749 0.0
C1715 C 0.64053 0.85147 0.31967 0.0
C1716 C 0.61471 0.88522 0.35031 0.0
H1717 H 0.6231 0.86974 0.44406 0.0
H1718 H 0.62428 0.86132 0.41174 0.0
H1719 H 0.59639 0.89919 0.37305 0.0
H1720 H 0.63257 0.88491 0.28201 0.0
H1721 H 0.63334 0.89289 0.31431 0.0
H1722 H 0.67292 0.8547 0.35331 0.0
C1723 C 0.62735 0.87416 0.41513 0.0
C1724 C 0.61311 0.88944 0.36882 0.0
C1725 C 0.62654 0.87896 0.43353 0.0
C1726 C 0.63486 0.87548 0.29241 0.0
C1727 C 0.63507 0.88001 0.31089 0.0
C1728 C 0.65574 0.86428 0.35743 0.0
C1729 C 0.63167 0.88591 0.40123 0.0
C1730 C 0.6326 0.88104 0.38178 0.0
C1731 C 0.63752 0.86802 0.32473 0.0
C1732 C 0.63615 0.87264 0.34439 0.0
H1733 H 0.63818 0.92009 0.42748 0.0
H1734 H 0.63914 0.9117 0.39544 0.0
H1735 H 0.66937 0.86188 0.38574 0.0
H1736 H 0.64272 0.83411 0.29781 0.0
H1737 H 0.64184 0.84189 0.32994 0.0
C1738 C 0.614 0.34514 0.42181 0.0
C1739 C 0.62076 0.35703 0.43525 0.0
C1740 C 0.61449 0.34931 0.40328 0.0
C1741 C 0.6057 0.38354 0.3717 0.0
H1742 H 0.65971 0.3573 0.33861 0.0
C1743 C 0.63496 0.40561 0.29922 0.0
C1744 C 0.63448 0.39412 0.28491 0.0
C1745 C 0.63343 0.40048 0.31739 0.0
C1746 C 0.64412 0.36459 0.34761 0.0
H1747 H 0.63243 0.38262 0.44002 0.0
H1748 H 0.63282 0.38999 0.40746 0.0
H1749 H 0.65535 0.34955 0.3709 0.0
H1750 H 0.63276 0.36827 0.27822 0.0
H1751 H 0.62913 0.3592 0.31018 0.0
H1752 H 0.59392 0.39845 0.34853 0.0
C1753 C 0.62731 0.37745 0.41134 0.0
C1754 C 0.64173 0.36019 0.36607 0.0
C1755 C 0.62721 0.37324 0.42991 0.0
C1756 C 0.63324 0.37735 0.28906 0.0
C1757 C 0.63126 0.37218 0.30733 0.0
C1758 C 0.60777 0.38784 0.35324 0.0
C1759 C 0.62133 0.36547 0.3979 0.0
C1760 C 0.62281 0.36975 0.37827 0.0
C1761 C 0.63088 0.38374 0.32166 0.0
C1762 C 0.62739 0.37856 0.34104 0.0
H1763 H 0.60892 0.33254 0.42557 0.0
H1764 H 0.60947 0.33992 0.39314 0.0
H1765 H 0.59056 0.39094 0.38084 0.0
H1766 H 0.63635 0.41863 0.29639 0.0
H1767 H 0.63416 0.40967 0.3281 0.0
C1768 C 0.373 0.62625 0.18776 0.0
C1769 C 0.37259 0.64304 0.19183 0.0
C1770 C 0.37093 0.62098 0.16954 0.0
C1771 C 0.34775 0.63586 0.12298 0.0
H1772 H 0.40143 0.59907 0.10668 0.0
C1773 C 0.37611 0.62191 0.04692 0.0
C1774 C 0.37106 0.60561 0.04147 0.0
C1775 C 0.37445 0.62613 0.06547 0.0
C1776 C 0.38616 0.60929 0.11112 0.0
H1777 H 0.37047 0.66752 0.18026 0.0
H1778 H 0.36827 0.65845 0.14863 0.0
H1779 H 0.40197 0.60684 0.139 0.0
H1780 H 0.36023 0.58094 0.05097 0.0
H1781 H 0.35783 0.58832 0.08335 0.0
H1782 H 0.33294 0.6386 0.09491 0.0
C1783 C 0.36893 0.64926 0.15936 0.0
C1784 C 0.38629 0.61369 0.12962 0.0
C1785 C 0.37046 0.65447 0.1775 0.0
C1786 C 0.36423 0.59361 0.0548 0.0
C1787 C 0.363 0.59779 0.07331 0.0
C1788 C 0.34802 0.6316 0.10447 0.0
C1789 C 0.36888 0.63246 0.15514 0.0
C1790 C 0.3673 0.62712 0.13573 0.0
C1791 C 0.36816 0.61405 0.07878 0.0
C1792 C 0.36737 0.61836 0.0984 0.0
H1793 H 0.37443 0.61721 0.19863 0.0
H1794 H 0.37057 0.60795 0.16676 0.0
H1795 H 0.33224 0.64604 0.12729 0.0
H1796 H 0.38136 0.63137 0.03689 0.0
H1797 H 0.3787 0.63875 0.06944 0.0
C1798 C 0.38282 0.09813 0.17511 0.0
C1799 C 0.3809 0.10966 0.18935 0.0
C1800 C 0.38367 0.10324 0.15692 0.0
C1801 C 0.36479 0.13849 0.12698 0.0
H1802 H 0.41966 0.11425 0.09243 0.0
C1803 C 0.38786 0.15897 0.0523 0.0
C1804 C 0.38208 0.14691 0.03893 0.0
C1805 C 0.38844 0.1548 0.07083 0.0
C1806 C 0.40414 0.12104 0.10195 0.0
H1807 H 0.37855 0.13553 0.1959 0.0
H1808 H 0.38113 0.14459 0.16394 0.0
H1809 H 0.4203 0.10673 0.1248 0.0
H1810 H 0.37278 0.12106 0.03426 0.0
H1811 H 0.37435 0.1137 0.06682 0.0
H1812 H 0.34924 0.153 0.104 0.0
C1813 C 0.3812 0.13157 0.16685 0.0
C1814 C 0.40438 0.11674 0.12045 0.0
C1815 C 0.37987 0.12642 0.18512 0.0
C1816 C 0.37725 0.13057 0.04433 0.0
C1817 C 0.37828 0.12637 0.06288 0.0
C1818 C 0.36491 0.14293 0.10849 0.0
C1819 C 0.38316 0.12001 0.15256 0.0
C1820 C 0.38436 0.12527 0.13313 0.0
C1821 C 0.3837 0.13848 0.07625 0.0
C1822 C 0.38429 0.13411 0.09584 0.0
H1823 H 0.38331 0.08511 0.17801 0.0
H1824 H 0.38436 0.094 0.14625 0.0
H1825 H 0.34875 0.14516 0.13634 0.0
H1826 H 0.39162 0.17167 0.04848 0.0
H1827 H 0.39292 0.1643 0.08093 0.0
C1828 C 0.37572 0.12717 0.68589 0.0
C1829 C 0.37612 0.14385 0.69047 0.0
C1830 C 0.37405 0.1224 0.6675 0.0
C1831 C 0.35219 0.1387 0.62143 0.0
H1832 H 0.40129 0.10071 0.60426 0.0
C1833 C 0.37441 0.12347 0.54486 0.0
C1834 C 0.36759 0.10721 0.53984 0.0
C1835 C 0.37417 0.128 0.56334 0.0
C1836 C 0.38733 0.1113 0.60895 0.0
H1837 H 0.37625 0.16863 0.67968 0.0
H1838 H 0.37478 0.16037 0.64773 0.0
H1839 H 0.40406 0.10832 0.63659 0.0
H1840 H 0.35466 0.083 0.55001 0.0
H1841 H 0.35468 0.09092 0.58223 0.0
H1842 H 0.33632 0.14188 0.59358 0.0
C1843 C 0.37445 0.15093 0.65817 0.0
C1844 C 0.38874 0.1156 0.62744 0.0
C1845 C 0.37555 0.15567 0.67649 0.0
C1846 C 0.36007 0.09563 0.5535 0.0
C1847 C 0.36024 0.1001 0.57193 0.0
C1848 C 0.35118 0.13452 0.6029 0.0
C1849 C 0.37327 0.13425 0.65344 0.0
C1850 C 0.37123 0.12938 0.63389 0.0
C1851 C 0.36752 0.11628 0.57699 0.0
C1852 C 0.36871 0.12079 0.59654 0.0
H1853 H 0.37598 0.11786 0.69649 0.0
H1854 H 0.37279 0.10945 0.66432 0.0
H1855 H 0.33782 0.14919 0.62599 0.0
H1856 H 0.38022 0.13262 0.53456 0.0
H1857 H 0.37997 0.14056 0.567 0.0
C1858 C 0.38118 0.62533 0.68733 0.0
C1859 C 0.38068 0.60855 0.69147 0.0
C1860 C 0.38372 0.63053 0.66909 0.0
C1861 C 0.40803 0.6152 0.62297 0.0
H1862 H 0.35761 0.65274 0.60566 0.0
C1863 C 0.38401 0.62937 0.54647 0.0
C1864 C 0.38975 0.64562 0.54102 0.0
C1865 C 0.38507 0.62517 0.56504 0.0
C1866 C 0.372 0.64231 0.61039 0.0
H1867 H 0.38127 0.58402 0.67999 0.0
H1868 H 0.38435 0.593 0.64833 0.0
H1869 H 0.35473 0.64503 0.63799 0.0
H1870 H 0.40151 0.67018 0.5505 0.0
H1871 H 0.40287 0.66283 0.58293 0.0
H1872 H 0.42434 0.61222 0.59518 0.0
C1873 C 0.38406 0.60221 0.65902 0.0
C1874 C 0.37051 0.63794 0.62889 0.0
C1875 C 0.38201 0.59706 0.67718 0.0
C1876 C 0.39696 0.65755 0.55434 0.0
C1877 C 0.39759 0.65339 0.57288 0.0
C1878 C 0.40915 0.61945 0.60446 0.0
C1879 C 0.38538 0.61898 0.65475 0.0
C1880 C 0.38828 0.62424 0.63535 0.0
C1881 C 0.39146 0.6372 0.57837 0.0
C1882 C 0.391 0.63297 0.59802 0.0
H1883 H 0.38033 0.63441 0.69816 0.0
H1884 H 0.38498 0.64354 0.66626 0.0
H1885 H 0.42265 0.60481 0.62757 0.0
H1886 H 0.37846 0.61996 0.53644 0.0
H1887 H 0.38011 0.6126 0.56902 0.0
C1888 C 0.25353 0.38123 0.2337 0.0
C1889 C 0.23925 0.36666 0.24036 0.0
C1890 C 0.28811 0.38336 0.23349 0.0
C1891 C 0.36952 0.36168 0.23834 0.0
H1892 H 0.40094 0.4052 0.25131 0.0
C1893 C 0.5068 0.37437 0.25664 0.0
C1894 C 0.52248 0.38768 0.24781 0.0
C1895 C 0.47223 0.37229 0.25578 0.0
C1896 C 0.39255 0.39304 0.2475 0.0
H1897 H 0.24995 0.34262 0.25143 0.0
H1898 H 0.31084 0.34645 0.25159 0.0
H1899 H 0.34108 0.39986 0.24933 0.0
H1900 H 0.51354 0.40974 0.23194 0.0
H1901 H 0.45262 0.40621 0.2307 0.0
H1902 H 0.4212 0.35484 0.23702 0.0
C1903 C 0.29522 0.35616 0.2462 0.0
C1904 C 0.35821 0.38995 0.24629 0.0
C1905 C 0.26037 0.35393 0.24613 0.0
C1906 C 0.50234 0.39937 0.2389 0.0
C1907 C 0.46749 0.39732 0.23815 0.0
C1908 C 0.40386 0.36475 0.23974 0.0
C1909 C 0.30947 0.37109 0.24026 0.0
C1910 C 0.34618 0.37423 0.24162 0.0
C1911 C 0.45224 0.38352 0.2462 0.0
C1912 C 0.41574 0.38046 0.24435 0.0
H1913 H 0.23782 0.39117 0.22891 0.0
H1914 H 0.29804 0.39479 0.22824 0.0
H1915 H 0.36132 0.34952 0.23446 0.0
H1916 H 0.52132 0.3652 0.26387 0.0
H1917 H 0.46115 0.36174 0.26247 0.0
C1918 C 0.7514 0.8819 0.22887 0.0
C1919 C 0.73714 0.86736 0.23565 0.0
C1920 C 0.786 0.88374 0.22782 0.0
C1921 C 0.86714 0.86153 0.23053 0.0
H1922 H 0.90017 0.90426 0.24538 0.0
C1923 C 0.00408 0.87229 0.25111 0.0
C1924 C 0.0206 0.88634 0.24442 0.0
C1925 C 0.96973 0.87027 0.24877 0.0
C1926 C 0.89138 0.89235 0.24096 0.0
H1927 H 0.7479 0.84304 0.24593 0.0
H1928 H 0.80889 0.84636 0.24459 0.0
H1929 H 0.84017 0.89949 0.24339 0.0
H1930 H 0.01332 0.9095 0.23036 0.0
H1931 H 0.95274 0.90602 0.22646 0.0
H1932 H 0.91856 0.85433 0.22862 0.0
C1933 C 0.79317 0.85629 0.2398 0.0
C1934 C 0.85692 0.88957 0.23978 0.0
C1935 C 0.75827 0.85435 0.24059 0.0
C1936 C 1.00148 0.89857 0.23573 0.0
C1937 C 0.96681 0.89656 0.23348 0.0
C1938 C 0.90162 0.86429 0.23184 0.0
C1939 C 0.80744 0.8712 0.23382 0.0
C1940 C 0.84429 0.87411 0.23461 0.0
C1941 C 0.95069 0.88225 0.23976 0.0
C1942 C 0.91413 0.87969 0.23721 0.0
H1943 H 0.73568 0.89205 0.22465 0.0
H1944 H 0.79592 0.89518 0.22259 0.0
H1945 H 0.85843 0.84957 0.22623 0.0
H1946 H 0.01772 0.86262 0.25802 0.0
H1947 H 0.95803 0.85929 0.25413 0.0
C1948 C 0.25181 0.87042 -0.00095 0.0
C1949 C 0.23728 0.88479 -0.00797 0.0
C1950 C 0.28645 0.86869 -8e-05 0.0
C1951 C 0.36725 0.89103 -0.00383 0.0
H1952 H 0.40034 0.84814 0.98196 0.0
C1953 C 0.50409 0.88015 0.97546 0.0
C1954 C 0.52069 0.86629 0.98255 0.0
C1955 C 0.46972 0.88214 0.97769 0.0
C1956 C 0.39152 0.86011 0.98618 0.0
H1957 H 0.24754 0.90895 0.98113 0.0
H1958 H 0.30858 0.90582 0.98216 0.0
H1959 H 0.34034 0.85283 0.98421 0.0
H1960 H 0.51355 0.84338 -0.00286 0.0
H1961 H 0.45294 0.8468 0.00087 0.0
H1962 H 0.41865 0.89836 -0.00237 0.0
C1963 C 0.29308 0.89594 0.98728 0.0
C1964 C 0.35708 0.86283 0.98752 0.0
C1965 C 0.25815 0.89777 0.98667 0.0
C1966 C 0.50163 0.85418 -0.00853 0.0
C1967 C 0.46695 0.85615 -0.00638 0.0
C1968 C 0.40172 0.88833 -0.0053 0.0
C1969 C 0.30761 0.88118 -0.00651 0.0
C1970 C 0.34444 0.87834 -0.00751 0.0
C1971 C 0.45076 0.8703 0.98699 0.0
C1972 C 0.41423 0.87286 -0.01043 0.0
H1973 H 0.23628 0.8603 0.00357 0.0
H1974 H 0.29661 0.85737 0.00534 0.0
H1975 H 0.35852 0.90304 0.00029 0.0
H1976 H 0.51771 0.88971 0.96833 0.0
H1977 H 0.45792 0.89299 0.97206 0.0
C1978 C 1.00152 0.35442 0.98304 0.0
C1979 C 0.02277 0.36771 0.98672 0.0
C1980 C 0.96664 0.35646 0.98363 0.0
C1981 C 0.90206 0.38949 0.98181 0.0
H1982 H 0.84228 0.35483 -0.00253 0.0
C1983 C 0.75757 0.39786 0.98893 0.0
C1984 C 0.73837 0.38514 0.98124 0.0
C1985 C 0.79243 0.3962 -0.00935 0.0
C1986 C 0.8587 0.36462 -0.00698 0.0
H1987 H 0.02425 0.39323 -0.00493 0.0
H1988 H 0.96414 0.39659 -0.00324 0.0
H1989 H 0.90262 0.35049 -0.00129 0.0
H1990 H 0.74128 0.36083 0.96902 0.0
H1991 H 0.80121 0.3581 0.97207 0.0
H1992 H 0.85798 0.40362 0.97622 0.0
C1993 C 0.97396 0.38478 -0.00736 0.0
C1994 C 0.8933 0.3621 -0.00637 0.0
C1995 C 0.00854 0.38281 -0.00822 0.0
C1996 C 0.75495 0.3709 0.97515 0.0
C1997 C 0.78945 0.36922 0.97699 0.0
C1998 C 0.86747 0.39205 0.98136 0.0
C1999 C 0.95244 0.37177 0.98819 0.0
C2000 C 0.91548 0.37445 0.9879 0.0
C2001 C 0.80862 0.38175 0.98489 0.0
C2002 C 0.84539 0.37958 0.98676 0.0
H2003 H 0.0118 0.34265 0.97909 0.0
H2004 H 0.95087 0.34617 0.98 0.0
H2005 H 0.91824 0.39921 0.97696 0.0
H2006 H 0.7457 0.40897 -0.00623 0.0
H2007 H 0.80664 0.40608 -0.0032 0.0
C2008 C 0.75346 0.62425 0.71947 0.0
C2009 C 0.7691 0.63761 0.72823 0.0
C2010 C 0.71891 0.6221 0.72041 0.0
C2011 C 0.63913 0.64276 0.72885 0.0
H2012 H 0.6081 0.59916 0.74175 0.0
C2013 C 0.50056 0.63086 0.74376 0.0
C2014 C 0.48596 0.61631 0.73726 0.0
C2015 C 0.53511 0.63301 0.74348 0.0
C2016 C 0.61625 0.61134 0.73789 0.0
H2017 H 0.76009 0.65964 0.74411 0.0
H2018 H 0.6992 0.65597 0.74551 0.0
H2019 H 0.66796 0.60453 0.73908 0.0
H2020 H 0.49617 0.59232 0.72594 0.0
H2021 H 0.55708 0.59619 0.72491 0.0
H2022 H 0.58763 0.64956 0.7272 0.0
C2023 C 0.71409 0.64712 0.73803 0.0
C2024 C 0.65058 0.61444 0.73644 0.0
C2025 C 0.74893 0.64924 0.73719 0.0
C2026 C 0.50682 0.60363 0.73108 0.0
C2027 C 0.54167 0.60588 0.73053 0.0
C2028 C 0.60481 0.63964 0.73012 0.0
C2029 C 0.69888 0.63329 0.73001 0.0
C2030 C 0.66239 0.63019 0.7319 0.0
C2031 C 0.55617 0.62077 0.73639 0.0
C2032 C 0.59286 0.6239 0.73475 0.0
H2033 H 0.76799 0.61512 0.7122 0.0
H2034 H 0.70787 0.61154 0.71375 0.0
H2035 H 0.64746 0.65495 0.72509 0.0
H2036 H 0.48511 0.64075 0.74893 0.0
H2037 H 0.54526 0.6444 0.74869 0.0
C2038 C 0.00343 0.12835 0.72318 0.0
C2039 C 0.98723 0.11497 0.7316 0.0
C2040 C 0.038 0.13022 0.72431 0.0
C2041 C 0.11684 0.10873 0.73177 0.0
H2042 H 0.14983 0.15182 0.74528 0.0
C2043 C 0.25692 0.11971 0.74363 0.0
C2044 C 0.27111 0.13447 0.73743 0.0
C2045 C 0.22234 0.11762 0.7441 0.0
C2046 C 0.14114 0.13978 0.74126 0.0
H2047 H 0.99527 0.09264 0.74715 0.0
H2048 H 0.05631 0.09582 0.74885 0.0
H2049 H 0.08972 0.14691 0.74348 0.0
H2050 H 0.26019 0.15883 0.72735 0.0
H2051 H 0.19929 0.15506 0.72755 0.0
H2052 H 0.16801 0.10165 0.72896 0.0
C2053 C 0.04178 0.10491 0.74151 0.0
C2054 C 0.10667 0.13694 0.74032 0.0
C2055 C 0.00687 0.10308 0.74051 0.0
C2056 C 0.24987 0.14736 0.73223 0.0
C2057 C 0.21501 0.14516 0.73241 0.0
C2058 C 0.15132 0.11161 0.7325 0.0
C2059 C 0.05754 0.11871 0.73374 0.0
C2060 C 0.09416 0.12141 0.73551 0.0
C2061 C 0.20084 0.13012 0.73806 0.0
C2062 C 0.16398 0.12717 0.73727 0.0
H2063 H 0.98935 0.13769 0.71596 0.0
H2064 H 0.04948 0.14077 0.71783 0.0
H2065 H 0.10794 0.09671 0.72779 0.0
H2066 H 0.27267 0.10965 0.74805 0.0
H2067 H 0.21252 0.10608 0.74911 0.0
C2068 C 0.50419 0.14795 0.98518 0.0
C2069 C 0.4851 0.13585 -0.00589 0.0
C2070 C 0.5389 0.14601 0.98312 0.0
C2071 C 0.60424 0.11392 0.98222 0.0
H2072 H 0.66547 0.14917 -0.00604 0.0
C2073 C 0.74696 0.1037 -0.00771 0.0
C2074 C 0.76849 0.11663 0.98762 0.0
C2075 C 0.71215 0.10578 -0.00889 0.0
C2076 C 0.6488 0.13924 -0.00971 0.0
H2077 H 0.48809 0.11242 0.00835 0.0
H2078 H 0.54787 0.10919 0.00472 0.0
H2079 H 0.60541 0.15398 -0.00452 0.0
H2080 H 0.77081 0.14134 0.97673 0.0
H2081 H 0.71069 0.14471 0.97395 0.0
H2082 H 0.6475 0.09917 0.97699 0.0
C2083 C 0.53609 0.12002 -0.00095 0.0
C2084 C 0.61432 0.14203 -0.00879 0.0
C2085 C 0.5017 0.12199 0.00123 0.0
C2086 C 0.75476 0.13125 0.98073 0.0
C2087 C 0.72023 0.13323 0.97928 0.0
C2088 C 0.63873 0.11116 0.98115 0.0
C2089 C 0.55508 0.13188 -0.01019 0.0
C2090 C 0.59166 0.12935 0.98742 0.0
C2091 C 0.69835 0.12074 0.98498 0.0
C2092 C 0.66151 0.12374 0.98534 0.0
H2093 H 0.49229 0.15875 0.97952 0.0
H2094 H 0.55297 0.15537 0.97593 0.0
H2095 H 0.58735 0.10395 0.97899 0.0
H2096 H 0.75691 0.09234 -0.00229 0.0
H2097 H 0.69612 0.0959 -0.00429 0.0
C2098 C 0.25201 0.60407 0.98518 0.0
C2099 C 0.2705 0.61566 -0.00476 0.0
C2100 C 0.21737 0.60607 0.98275 0.0
C2101 C 0.15186 0.63812 0.98329 0.0
H2102 H 0.09021 0.60219 -0.00886 0.0
C2103 C 0.00863 0.64758 -0.0078 0.0
C2104 C 0.98741 0.63493 0.98632 0.0
C2105 C 0.0435 0.64565 -0.00882 0.0
C2106 C 0.10701 0.61233 0.98854 0.0
H2107 H 0.26651 0.63811 0.01122 0.0
H2108 H 0.20689 0.64144 0.00699 0.0
H2109 H 0.15017 0.5973 -0.00676 0.0
H2110 H 0.98564 0.61099 0.9735 0.0
H2111 H 0.04591 0.60794 0.97096 0.0
H2112 H 0.10883 0.65318 0.97859 0.0
C2113 C 0.21908 0.631 0.00068 0.0
C2114 C 0.14145 0.60949 -0.0102 0.0
C2115 C 0.25338 0.62899 0.00318 0.0
C2116 C 1.00149 0.62085 0.97837 0.0
C2117 C 0.03609 0.61904 0.97708 0.0
C2118 C 0.11743 0.64095 0.98189 0.0
C2119 C 0.2007 0.61973 -0.00976 0.0
C2120 C 0.16424 0.62239 0.98743 0.0
C2121 C 0.05765 0.63114 0.98403 0.0
C2122 C 0.09448 0.62812 0.98467 0.0
H2123 H 0.26434 0.59369 0.97885 0.0
H2124 H 0.20378 0.59716 0.97465 0.0
H2125 H 0.16886 0.64828 0.98115 0.0
H2126 H 0.99836 0.6585 -0.00152 0.0
H2127 H 0.05928 0.65522 -0.00324 0.0
C2128 C 0.50487 0.87229 0.7277 0.0
C2129 C 0.51891 0.88647 0.73544 0.0
C2130 C 0.47029 0.87028 0.7268 0.0
C2131 C 0.38868 0.89176 0.73223 0.0
H2132 H 0.35719 0.84792 0.74377 0.0
C2133 C 0.2529 0.87889 0.75332 0.0
C2134 C 0.23623 0.86554 0.74515 0.0
C2135 C 0.2872 0.8811 0.75105 0.0
C2136 C 0.36557 0.86017 0.74029 0.0
H2137 H 0.50788 0.91001 0.74766 0.0
H2138 H 0.44697 0.90638 0.74662 0.0
H2139 H 0.41701 0.85319 0.74147 0.0
H2140 H 0.24324 0.84368 0.72868 0.0
H2141 H 0.3038 0.84746 0.72491 0.0
H2142 H 0.33705 0.89876 0.73165 0.0
C2143 C 0.46277 0.89689 0.7409 0.0
C2144 C 0.39991 0.86322 0.73892 0.0
C2145 C 0.49763 0.89901 0.74153 0.0
C2146 C 0.2552 0.85408 0.73517 0.0
C2147 C 0.28984 0.85626 0.73299 0.0
C2148 C 0.35435 0.88872 0.73377 0.0
C2149 C 0.44871 0.88228 0.73395 0.0
C2150 C 0.41198 0.87908 0.73493 0.0
C2151 C 0.30604 0.86999 0.74065 0.0
C2152 C 0.34242 0.87291 0.73794 0.0
H2153 H 0.52077 0.86251 0.72268 0.0
H2154 H 0.46051 0.85912 0.72082 0.0
H2155 H 0.39693 0.90404 0.72886 0.0
H2156 H 0.23937 0.88791 0.76131 0.0
H2157 H 0.29903 0.89158 0.75749 0.0
C2158 C 0.74805 0.38191 0.73401 0.0
C2159 C 0.73367 0.36682 0.73902 0.0
C2160 C 0.78262 0.38399 0.73386 0.0
C2161 C 0.86375 0.3618 0.7349 0.0
H2162 H 0.89659 0.40379 0.7523 0.0
C2163 C 1.00179 0.37254 0.7535 0.0
C2164 C 0.0174 0.38691 0.74699 0.0
C2165 C 0.96732 0.37039 0.75197 0.0
C2166 C 0.88782 0.39209 0.7472 0.0
H2167 H 0.7444 0.34188 0.74724 0.0
H2168 H 0.80537 0.3456 0.74753 0.0
H2169 H 0.8366 0.39879 0.75081 0.0
H2170 H 0.00838 0.41051 0.7342 0.0
H2171 H 0.94759 0.4068 0.73178 0.0
H2172 H 0.91523 0.35503 0.73178 0.0
C2173 C 0.7897 0.35579 0.74343 0.0
C2174 C 0.85338 0.38918 0.74631 0.0
C2175 C 0.75481 0.35363 0.74332 0.0
C2176 C 0.99726 0.39932 0.73939 0.0
C2177 C 0.96248 0.39719 0.73799 0.0
C2178 C 0.89823 0.36467 0.73596 0.0
C2179 C 0.80399 0.37112 0.739 0.0
C2180 C 0.84083 0.37401 0.74011 0.0
C2181 C 0.94726 0.38257 0.74402 0.0
C2182 C 0.91064 0.37983 0.74216 0.0
H2183 H 0.73246 0.39224 0.73024 0.0
H2184 H 0.79256 0.39579 0.72979 0.0
H2185 H 0.85511 0.35008 0.72979 0.0
H2186 H 0.01623 0.36271 0.75957 0.0
H2187 H 0.95631 0.35915 0.75709 0.0
C2188 C 0.25773 0.39835 0.48803 0.0
C2189 C 0.23651 0.38524 0.49247 0.0
C2190 C 0.2926 0.39639 0.48893 0.0
C2191 C 0.35643 0.36317 0.4883 0.0
H2192 H 0.41763 0.39834 0.50043 0.0
C2193 C 0.50127 0.35478 0.49156 0.0
C2194 C 0.51981 0.3672 0.48282 0.0
C2195 C 0.46664 0.35657 0.4942 0.0
C2196 C 0.40081 0.3884 0.49697 0.0
H2197 H 0.23482 0.36028 0.50266 0.0
H2198 H 0.29504 0.35708 0.50492 0.0
H2199 H 0.35745 0.40286 0.50295 0.0
H2200 H 0.51593 0.39108 0.46965 0.0
H2201 H 0.45636 0.39405 0.47425 0.0
H2202 H 0.39988 0.34873 0.4823 0.0
C2203 C 0.28521 0.36864 0.5 0.0
C2204 C 0.3663 0.39102 0.49834 0.0
C2205 C 0.25062 0.37052 0.49884 0.0
C2206 C 0.50277 0.38126 0.47657 0.0
C2207 C 0.46849 0.38307 0.47932 0.0
C2208 C 0.39092 0.36052 0.48706 0.0
C2209 C 0.30675 0.38134 0.49453 0.0
C2210 C 0.34361 0.37849 0.49385 0.0
C2211 C 0.45003 0.37086 0.4883 0.0
C2212 C 0.41349 0.37317 0.49114 0.0
H2213 H 0.24747 0.4098 0.48301 0.0
H2214 H 0.30838 0.40643 0.48452 0.0
H2215 H 0.33981 0.35329 0.48438 0.0
H2216 H 0.51352 0.34382 0.49657 0.0
H2217 H 0.45299 0.34694 0.50118 0.0
C2218 C 1.00038 0.85404 0.48289 0.0
C2219 C 0.0215 0.86727 0.48704 0.0
C2220 C 0.96548 0.85613 0.48299 0.0
C2221 C 0.90151 0.88938 0.48044 0.0
H2222 H 0.84025 0.85498 0.49506 0.0
C2223 C 0.75747 0.89883 0.48773 0.0
C2224 C 0.73757 0.88637 0.48006 0.0
C2225 C 0.7923 0.89688 0.48905 0.0
C2226 C 0.8571 0.86469 0.49087 0.0
H2227 H 0.02274 0.89268 0.49578 0.0
H2228 H 0.96259 0.89612 0.49663 0.0
H2229 H 0.90044 0.85024 0.49692 0.0
H2230 H 0.7392 0.8623 0.46722 0.0
H2231 H 0.79921 0.85904 0.46958 0.0
H2232 H 0.85803 0.90385 0.47457 0.0
C2233 C 0.97254 0.88434 0.4925 0.0
C2234 C 0.8916 0.86194 0.49185 0.0
C2235 C 0.00713 0.88232 0.49214 0.0
C2236 C 0.75346 0.87216 0.47337 0.0
C2237 C 0.78797 0.87018 0.47482 0.0
C2238 C 0.86702 0.89217 0.47963 0.0
C2239 C 0.95117 0.87143 0.4875 0.0
C2240 C 0.91431 0.87423 0.48658 0.0
C2241 C 0.80778 0.88239 0.48286 0.0
C2242 C 0.84444 0.87981 0.48469 0.0
H2243 H 0.0108 0.84231 0.4789 0.0
H2244 H 0.94983 0.84591 0.47898 0.0
H2245 H 0.91811 0.89905 0.4759 0.0
H2246 H 0.74613 0.90991 0.49305 0.0
H2247 H 0.80701 0.90652 0.49532 0.0
C2248 C 0.50486 0.12905 0.22174 0.0
C2249 C 0.48825 0.11596 0.23047 0.0
C2250 C 0.53941 0.13088 0.22313 0.0
C2251 C 0.61794 0.10963 0.23215 0.0
H2252 H 0.65024 0.15307 0.24476 0.0
C2253 C 0.75765 0.12117 0.24482 0.0
C2254 C 0.77185 0.13583 0.23832 0.0
C2255 C 0.72309 0.119 0.2451 0.0
C2256 C 0.64176 0.14092 0.241 0.0
H2257 H 0.49558 0.09404 0.24684 0.0
H2258 H 0.55662 0.09713 0.24901 0.0
H2259 H 0.59025 0.14803 0.2425 0.0
H2260 H 0.76097 0.15994 0.2275 0.0
H2261 H 0.7001 0.15602 0.22738 0.0
H2262 H 0.66924 0.10257 0.23004 0.0
C2263 C 0.5424 0.10604 0.24122 0.0
C2264 C 0.60734 0.13801 0.2398 0.0
C2265 C 0.5075 0.10426 0.23995 0.0
C2266 C 0.75063 0.14855 0.23263 0.0
C2267 C 0.71579 0.14627 0.23262 0.0
C2268 C 0.65238 0.11258 0.23314 0.0
C2269 C 0.55853 0.11961 0.23316 0.0
C2270 C 0.59507 0.12236 0.23529 0.0
C2271 C 0.70161 0.13132 0.23857 0.0
C2272 C 0.66481 0.12827 0.23758 0.0
H2273 H 0.4911 0.13822 0.21407 0.0
H2274 H 0.55119 0.14123 0.21641 0.0
H2275 H 0.60923 0.09751 0.22843 0.0
H2276 H 0.77341 0.11124 0.2496 0.0
H2277 H 0.71326 0.10755 0.25034 0.0
C2278 C 0.00302 0.62911 0.22496 0.0
C2279 C 0.98695 0.6153 0.23255 0.0
C2280 C 0.03749 0.63119 0.22658 0.0
C2281 C 0.11656 0.6097 0.23423 0.0
H2282 H 0.14882 0.65276 0.24837 0.0
C2283 C 0.25616 0.62078 0.24714 0.0
C2284 C 0.27045 0.63541 0.24063 0.0
C2285 C 0.22157 0.61875 0.24764 0.0
C2286 C 0.14031 0.64073 0.2442 0.0
H2287 H 0.99516 0.59254 0.24727 0.0
H2288 H 0.05594 0.59613 0.24988 0.0
H2289 H 0.08878 0.64774 0.24606 0.0
H2290 H 0.25968 0.65967 0.23017 0.0
H2291 H 0.19873 0.656 0.23051 0.0
H2292 H 0.16787 0.60273 0.23186 0.0
C2293 C 0.04143 0.60536 0.24275 0.0
C2294 C 0.10588 0.63782 0.24295 0.0
C2295 C 0.00665 0.60329 0.24124 0.0
C2296 C 0.24929 0.64829 0.23529 0.0
C2297 C 0.21441 0.64615 0.23552 0.0
C2298 C 0.15098 0.61263 0.23532 0.0
C2299 C 0.05707 0.61951 0.23572 0.0
C2300 C 0.09363 0.6223 0.23787 0.0
C2301 C 0.20016 0.63119 0.24135 0.0
C2302 C 0.16336 0.62818 0.24032 0.0
H2303 H 0.9889 0.63857 0.21798 0.0
H2304 H 0.04885 0.64203 0.22066 0.0
H2305 H 0.10792 0.59769 0.23004 0.0
H2306 H 0.27184 0.61074 0.25169 0.0
H2307 H 0.21164 0.60728 0.25278 0.0
C2308 C 0.75085 0.60354 0.48745 0.0
C2309 C 0.77 0.61581 0.49603 0.0
C2310 C 0.71611 0.60544 0.48545 0.0
C2311 C 0.65092 0.63749 0.48374 0.0
H2312 H 0.58957 0.60265 0.49678 0.0
C2313 C 0.5082 0.64815 0.49319 0.0
C2314 C 0.48666 0.63512 0.48894 0.0
C2315 C 0.54301 0.646 0.49223 0.0
C2316 C 0.60627 0.61246 0.49274 0.0
H2317 H 0.76713 0.63947 0.50973 0.0
H2318 H 0.70731 0.64264 0.50619 0.0
H2319 H 0.64962 0.59781 0.49838 0.0
H2320 H 0.48434 0.61009 0.47904 0.0
H2321 H 0.54446 0.60656 0.47663 0.0
H2322 H 0.60773 0.65215 0.47802 0.0
C2323 C 0.71906 0.6317 0.50076 0.0
C2324 C 0.64074 0.60965 0.49371 0.0
C2325 C 0.75346 0.62978 0.50288 0.0
C2326 C 0.5004 0.62027 0.48271 0.0
C2327 C 0.53493 0.61821 0.48147 0.0
C2328 C 0.61645 0.64027 0.48261 0.0
C2329 C 0.7 0.61969 0.49184 0.0
C2330 C 0.66344 0.6222 0.48945 0.0
C2331 C 0.55679 0.63084 0.48674 0.0
C2332 C 0.59362 0.62783 0.48725 0.0
H2333 H 0.7627 0.59264 0.482 0.0
H2334 H 0.70198 0.59595 0.47852 0.0
H2335 H 0.66786 0.64735 0.48014 0.0
H2336 H 0.49822 0.65969 0.4981 0.0
H2337 H 0.55904 0.65599 0.49649 0.0
C2338 C 0.00463 0.14778 0.48554 0.0
C2339 C 0.98577 0.13534 0.49402 0.0
C2340 C 0.03936 0.14599 0.48328 0.0
C2341 C 0.10522 0.11414 0.48112 0.0
H2342 H 0.16589 0.14901 0.49493 0.0
C2343 C 0.24773 0.10364 0.49181 0.0
C2344 C 0.26934 0.1167 0.48775 0.0
C2345 C 0.21292 0.10577 0.4906 0.0
C2346 C 0.14938 0.1392 0.49068 0.0
H2347 H 0.98918 0.11141 0.50715 0.0
H2348 H 0.04887 0.10845 0.50319 0.0
H2349 H 0.10576 0.15369 0.49614 0.0
H2350 H 0.27174 0.14178 0.47793 0.0
H2351 H 0.2117 0.14527 0.47516 0.0
H2352 H 0.14871 0.09961 0.47566 0.0
C2353 C 0.03694 0.11945 0.49803 0.0
C2354 C 0.11486 0.14193 0.49141 0.0
C2355 C 1.00257 0.12126 0.5004 0.0
C2356 C 0.25566 0.13157 0.4815 0.0
C2357 C 0.22115 0.13361 0.48003 0.0
C2358 C 0.13975 0.11144 0.48025 0.0
C2359 C 0.05575 0.13167 0.48931 0.0
C2360 C 0.09239 0.12935 0.4869 0.0
C2361 C 0.19921 0.12094 0.48505 0.0
C2362 C 0.16234 0.12388 0.48521 0.0
H2363 H 0.99257 0.15877 0.48045 0.0
H2364 H 0.05329 0.15565 0.47651 0.0
H2365 H 0.08849 0.10426 0.47733 0.0
H2366 H 0.25762 0.09207 0.4967 0.0
H2367 H 0.19682 0.09574 0.49467 0.0
loop_
_geom_bond_atom_site_label_1
_geom_bond_atom_site_label_2
_geom_bond_distance
_geom_bond_site_symmetry_2
_ccdc_geom_bond_type
Co0 O1 2.216 . S
Co0 O2 2.091 . S
Co0 O4 2.004 . S
Co0 O10 2.021 . S
Co0 O12 2.137 . S
Co0 O13 2.244 . S
O1 Co0 2.216 . S
O1 C8 1.247 . S
O2 Co0 2.091 . S
O2 C8 1.261 . S
C3 O12 1.247 . S
C3 O13 1.272 . S
O4 Co0 2.004 . S
O4 C9 1.259 . S
Co5 O6 2.061 . S
Co5 O11 2.052 . S
Co5 O13 2.135 . S
O6 Co5 2.061 . S
O6 C9 1.235 . S
C7 O10 1.238 . S
C7 O11 1.241 . S
C8 O1 1.247 . S
C8 O2 1.261 . S
C9 O4 1.259 . S
C9 O6 1.235 . S
O10 Co0 2.021 . S
O10 C7 1.238 . S
O11 Co5 2.052 . S
O11 C7 1.241 . S
O12 Co0 2.137 . S
O12 C3 1.247 . S
O13 Co0 2.244 . S
O13 C3 1.272 . S
O13 Co5 2.135 . S
Co14 O15 2.216 . S
Co14 O16 2.091 . S
Co14 O18 2.004 . S
Co14 O24 2.021 . S
Co14 O26 2.137 . S
Co14 O27 2.244 . S
O15 Co14 2.216 . S
O15 C22 1.247 . S
O16 Co14 2.091 . S
O16 C22 1.261 . S
C17 O26 1.247 . S
C17 O27 1.272 . S
O18 Co14 2.004 . S
O18 C23 1.259 . S
Co19 O20 2.061 . S
Co19 O25 2.052 . S
Co19 O27 2.135 . S
O20 Co19 2.061 . S
O20 C23 1.235 . S
C21 O24 1.238 . S
C21 O25 1.241 . S
C22 O15 1.247 . S
C22 O16 1.261 . S
C23 O18 1.259 . S
C23 O20 1.235 . S
O24 Co14 2.021 . S
O24 C21 1.238 . S
O25 Co19 2.052 . S
O25 C21 1.241 . S
O26 Co14 2.137 . S
O26 C17 1.247 . S
O27 Co14 2.244 . S
O27 C17 1.272 . S
O27 Co19 2.135 . S
Co28 O29 2.216 . S
Co28 O30 2.091 . S
Co28 O32 2.004 . S
Co28 O38 2.021 1_556 S
Co28 O40 2.137 . S
Co28 O41 2.244 . S
O29 Co28 2.216 . S
O29 C36 1.247 . S
O30 Co28 2.091 . S
O30 C36 1.261 . S
C31 O40 1.247 . S
C31 O41 1.272 . S
O32 Co28 2.004 . S
O32 C37 1.264 . S
Co33 O34 2.061 . S
Co33 O39 2.052 . S
Co33 O41 2.135 1_554 S
O34 Co33 2.061 . S
O34 C37 1.231 1_554 S
C35 O38 1.238 . S
C35 O39 1.241 . S
C36 O29 1.247 . S
C36 O30 1.261 . S
C37 O32 1.264 . S
C37 O34 1.231 1_556 S
O38 Co28 2.021 1_554 S
O38 C35 1.238 . S
O39 Co33 2.052 . S
O39 C35 1.241 . S
O40 Co28 2.137 . S
O40 C31 1.247 . S
O41 Co28 2.244 . S
O41 C31 1.272 . S
O41 Co33 2.135 1_556 S
Co42 O43 2.216 . S
Co42 O44 2.091 . S
Co42 O46 2.004 . S
Co42 O52 2.021 1_556 S
Co42 O54 2.137 . S
Co42 O55 2.244 . S
O43 Co42 2.216 . S
O43 C50 1.247 . S
O44 Co42 2.091 . S
O44 C50 1.261 . S
C45 O54 1.247 . S
C45 O55 1.272 . S
O46 Co42 2.004 . S
O46 C51 1.264 . S
Co47 O48 2.061 . S
Co47 O53 2.052 . S
Co47 O55 2.135 1_554 S
O48 Co47 2.061 . S
O48 C51 1.231 1_554 S
C49 O52 1.238 . S
C49 O53 1.241 . S
C50 O43 1.247 . S
C50 O44 1.261 . S
C51 O46 1.264 . S
C51 O48 1.231 1_556 S
O52 Co42 2.021 1_554 S
O52 C49 1.238 . S
O53 Co47 2.052 . S
O53 C49 1.241 . S
O54 Co42 2.137 . S
O54 C45 1.247 . S
O55 Co42 2.244 . S
O55 C45 1.272 . S
O55 Co47 2.135 1_556 S
Co56 O57 2.216 . S
Co56 O58 2.091 . S
Co56 O60 2.004 . S
Co56 O66 2.021 . S
Co56 O68 2.137 . S
Co56 O69 2.244 . S
O57 Co56 2.216 . S
O57 C64 1.247 . S
O58 Co56 2.091 . S
O58 C64 1.261 . S
C59 O68 1.247 . S
C59 O69 1.272 . S
O60 Co56 2.004 . S
O60 C65 1.259 . S
Co61 O62 2.061 . S
Co61 O67 2.052 . S
Co61 O69 2.135 . S
O62 Co61 2.061 . S
O62 C65 1.235 . S
C63 O66 1.238 . S
C63 O67 1.241 . S
C64 O57 1.247 . S
C64 O58 1.261 . S
C65 O60 1.259 . S
C65 O62 1.235 . S
O66 Co56 2.021 . S
O66 C63 1.238 . S
O67 Co61 2.052 . S
O67 C63 1.241 . S
O68 Co56 2.137 . S
O68 C59 1.247 . S
O69 Co56 2.244 . S
O69 C59 1.272 . S
O69 Co61 2.135 . S
Co70 O71 2.216 . S
Co70 O72 2.091 . S
Co70 O74 2.004 . S
Co70 O80 2.021 . S
Co70 O82 2.137 . S
Co70 O83 2.244 . S
O71 Co70 2.216 . S
O71 C78 1.247 . S
O72 Co70 2.091 . S
O72 C78 1.261 . S
C73 O82 1.247 . S
C73 O83 1.272 . S
O74 Co70 2.004 . S
O74 C79 1.259 . S
Co75 O76 2.061 . S
Co75 O81 2.052 . S
Co75 O83 2.135 . S
O76 Co75 2.061 . S
O76 C79 1.235 . S
C77 O80 1.238 . S
C77 O81 1.241 . S
C78 O71 1.247 . S
C78 O72 1.261 . S
C79 O74 1.259 . S
C79 O76 1.235 . S
O80 Co70 2.021 . S
O80 C77 1.238 . S
O81 Co75 2.052 . S
O81 C77 1.241 . S
O82 Co70 2.137 . S
O82 C73 1.247 . S
O83 Co70 2.244 . S
O83 C73 1.272 . S
O83 Co75 2.135 . S
Co84 O85 2.216 . S
Co84 O86 2.091 . S
Co84 O88 2.004 . S
Co84 O94 2.021 1_554 S
Co84 O96 2.137 . S
Co84 O97 2.244 . S
O85 Co84 2.216 . S
O85 C92 1.247 . S
O86 Co84 2.091 . S
O86 C92 1.261 . S
C87 O96 1.247 . S
C87 O97 1.272 . S
O88 Co84 2.004 . S
O88 C93 1.264 . S
Co89 O90 2.061 . S
Co89 O95 2.052 . S
Co89 O97 2.135 1_556 S
O90 Co89 2.061 . S
O90 C93 1.231 1_556 S
C91 O94 1.238 . S
C91 O95 1.241 . S
C92 O85 1.247 . S
C92 O86 1.261 . S
C93 O88 1.264 . S
C93 O90 1.231 1_554 S
O94 Co84 2.021 1_556 S
O94 C91 1.238 . S
O95 Co89 2.052 . S
O95 C91 1.241 . S
O96 Co84 2.137 . S
O96 C87 1.247 . S
O97 Co84 2.244 . S
O97 C87 1.272 . S
O97 Co89 2.135 1_554 S
Co98 O99 2.216 . S
Co98 O100 2.091 . S
Co98 O102 2.004 . S
Co98 O108 2.021 1_554 S
Co98 O110 2.137 . S
Co98 O111 2.244 . S
O99 Co98 2.216 . S
O99 C106 1.247 . S
O100 Co98 2.091 . S
O100 C106 1.261 . S
C101 O110 1.247 . S
C101 O111 1.272 . S
O102 Co98 2.004 . S
O102 C107 1.264 . S
Co103 O104 2.061 . S
Co103 O109 2.052 . S
Co103 O111 2.135 1_556 S
O104 Co103 2.061 . S
O104 C107 1.231 1_556 S
C105 O108 1.238 . S
C105 O109 1.241 . S
C106 O99 1.247 . S
C106 O100 1.261 . S
C107 O102 1.264 . S
C107 O104 1.231 1_554 S
O108 Co98 2.021 1_556 S
O108 C105 1.238 . S
O109 Co103 2.052 . S
O109 C105 1.241 . S
O110 Co98 2.137 . S
O110 C101 1.247 . S
O111 Co98 2.244 . S
O111 C101 1.272 . S
O111 Co103 2.135 1_554 S
Co112 O113 2.216 . S
Co112 O114 2.091 . S
Co112 O116 2.004 . S
Co112 O122 2.021 . S
Co112 O124 2.137 . S
Co112 O125 2.244 . S
O113 Co112 2.216 . S
O113 C120 1.247 . S
O114 Co112 2.091 . S
O114 C120 1.261 . S
C115 O124 1.247 . S
C115 O125 1.272 . S
O116 Co112 2.004 . S
O116 C121 1.259 . S
Co117 O118 2.061 . S
Co117 O123 2.052 . S
Co117 O125 2.135 . S
O118 Co117 2.061 . S
O118 C121 1.235 . S
C119 O122 1.238 . S
C119 O123 1.241 . S
C120 O113 1.247 . S
C120 O114 1.261 . S
C121 O116 1.259 . S
C121 O118 1.235 . S
O122 Co112 2.021 . S
O122 C119 1.238 . S
O123 Co117 2.052 . S
O123 C119 1.241 . S
O124 Co112 2.137 . S
O124 C115 1.247 . S
O125 Co112 2.244 . S
O125 C115 1.272 . S
O125 Co117 2.135 . S
Co126 O127 2.216 . S
Co126 O128 2.091 . S
Co126 O130 2.004 . S
Co126 O136 2.021 . S
Co126 O138 2.137 . S
Co126 O139 2.244 . S
O127 Co126 2.216 . S
O127 C134 1.247 . S
O128 Co126 2.091 . S
O128 C134 1.261 . S
C129 O138 1.247 . S
C129 O139 1.272 . S
O130 Co126 2.004 . S
O130 C135 1.259 . S
Co131 O132 2.061 . S
Co131 O137 2.052 . S
Co131 O139 2.135 . S
O132 Co131 2.061 . S
O132 C135 1.235 . S
C133 O136 1.238 . S
C133 O137 1.241 . S
C134 O127 1.247 . S
C134 O128 1.261 . S
C135 O130 1.259 . S
C135 O132 1.235 . S
O136 Co126 2.021 . S
O136 C133 1.238 . S
O137 Co131 2.052 . S
O137 C133 1.241 . S
O138 Co126 2.137 . S
O138 C129 1.247 . S
O139 Co126 2.244 . S
O139 C129 1.272 . S
O139 Co131 2.135 . S
Co140 O141 2.216 . S
Co140 O142 2.091 . S
Co140 O144 2.004 . S
Co140 O150 2.021 . S
Co140 O152 2.137 . S
Co140 O153 2.244 . S
O141 Co140 2.216 . S
O141 C148 1.247 . S
O142 Co140 2.091 . S
O142 C148 1.261 . S
C143 O152 1.247 . S
C143 O153 1.272 . S
O144 Co140 2.004 . S
O144 C149 1.259 . S
Co145 O146 2.061 . S
Co145 O151 2.052 . S
Co145 O153 2.135 . S
O146 Co145 2.061 . S
O146 C149 1.235 . S
C147 O150 1.238 . S
C147 O151 1.241 . S
C148 O141 1.247 . S
C148 O142 1.261 . S
C149 O144 1.259 . S
C149 O146 1.235 . S
O150 Co140 2.021 . S
O150 C147 1.238 . S
O151 Co145 2.052 . S
O151 C147 1.241 . S
O152 Co140 2.137 . S
O152 C143 1.247 . S
O153 Co140 2.244 . S
O153 C143 1.272 . S
O153 Co145 2.135 . S
Co154 O155 2.216 . S
Co154 O156 2.091 . S
Co154 O158 2.004 . S
Co154 O164 2.021 . S
Co154 O166 2.137 . S
Co154 O167 2.244 . S
O155 Co154 2.216 . S
O155 C162 1.247 . S
O156 Co154 2.091 . S
O156 C162 1.261 . S
C157 O166 1.247 . S
C157 O167 1.272 . S
O158 Co154 2.004 . S
O158 C163 1.259 . S
Co159 O160 2.061 . S
Co159 O165 2.052 . S
Co159 O167 2.135 . S
O160 Co159 2.061 . S
O160 C163 1.235 . S
C161 O164 1.238 . S
C161 O165 1.241 . S
C162 O155 1.247 . S
C162 O156 1.261 . S
C163 O158 1.259 . S
C163 O160 1.235 . S
O164 Co154 2.021 . S
O164 C161 1.238 . S
O165 Co159 2.052 . S
O165 C161 1.241 . S
O166 Co154 2.137 . S
O166 C157 1.247 . S
O167 Co154 2.244 . S
O167 C157 1.272 . S
O167 Co159 2.135 . S
Co168 O169 2.216 . S
Co168 O170 2.091 . S
Co168 O172 2.004 . S
Co168 O178 2.021 . S
Co168 O180 2.137 . S
Co168 O181 2.244 . S
O169 Co168 2.216 . S
O169 C176 1.247 . S
O170 Co168 2.091 . S
O170 C176 1.261 . S
C171 O180 1.247 . S
C171 O181 1.272 . S
O172 Co168 2.004 . S
O172 C177 1.259 . S
Co173 O174 2.061 . S
Co173 O179 2.052 . S
Co173 O181 2.135 . S
O174 Co173 2.061 . S
O174 C177 1.235 . S
C175 O178 1.238 . S
C175 O179 1.241 . S
C176 O169 1.247 . S
C176 O170 1.261 . S
C177 O172 1.259 . S
C177 O174 1.235 . S
O178 Co168 2.021 . S
O178 C175 1.238 . S
O179 Co173 2.052 . S
O179 C175 1.241 . S
O180 Co168 2.137 . S
O180 C171 1.247 . S
O181 Co168 2.244 . S
O181 C171 1.272 . S
O181 Co173 2.135 . S
Co182 O183 2.216 . S
Co182 O184 2.091 . S
Co182 O186 2.004 . S
Co182 O192 2.021 . S
Co182 O194 2.137 . S
Co182 O195 2.244 . S
O183 Co182 2.216 . S
O183 C190 1.247 . S
O184 Co182 2.091 . S
O184 C190 1.261 . S
C185 O194 1.247 . S
C185 O195 1.272 . S
O186 Co182 2.004 . S
O186 C191 1.259 . S
Co187 O188 2.061 . S
Co187 O193 2.052 . S
Co187 O195 2.135 . S
O188 Co187 2.061 . S
O188 C191 1.235 . S
C189 O192 1.238 . S
C189 O193 1.241 . S
C190 O183 1.247 . S
C190 O184 1.261 . S
C191 O186 1.259 . S
C191 O188 1.235 . S
O192 Co182 2.021 . S
O192 C189 1.238 . S
O193 Co187 2.052 . S
O193 C189 1.241 . S
O194 Co182 2.137 . S
O194 C185 1.247 . S
O195 Co182 2.244 . S
O195 C185 1.272 . S
O195 Co187 2.135 . S
Co196 O197 2.216 . S
Co196 O198 2.091 . S
Co196 O200 2.004 . S
Co196 O206 2.021 . S
Co196 O208 2.137 . S
Co196 O209 2.244 . S
O197 Co196 2.216 . S
O197 C204 1.247 . S
O198 Co196 2.091 . S
O198 C204 1.261 . S
C199 O208 1.247 . S
C199 O209 1.272 . S
O200 Co196 2.004 . S
O200 C205 1.259 . S
Co201 O202 2.061 . S
Co201 O207 2.052 . S
Co201 O209 2.135 . S
O202 Co201 2.061 . S
O202 C205 1.235 . S
C203 O206 1.238 . S
C203 O207 1.241 . S
C204 O197 1.247 . S
C204 O198 1.261 . S
C205 O200 1.259 . S
C205 O202 1.235 . S
O206 Co196 2.021 . S
O206 C203 1.238 . S
O207 Co201 2.052 . S
O207 C203 1.241 . S
O208 Co196 2.137 . S
O208 C199 1.247 . S
O209 Co196 2.244 . S
O209 C199 1.272 . S
O209 Co201 2.135 . S
Co210 O211 2.216 . S
Co210 O212 2.091 . S
Co210 O214 2.004 . S
Co210 O220 2.021 . S
Co210 O222 2.137 . S
Co210 O223 2.244 . S
O211 Co210 2.216 . S
O211 C218 1.247 . S
O212 Co210 2.091 . S
O212 C218 1.261 . S
C213 O222 1.247 . S
C213 O223 1.272 . S
O214 Co210 2.004 . S
O214 C219 1.259 . S
Co215 O216 2.061 . S
Co215 O221 2.052 . S
Co215 O223 2.135 . S
O216 Co215 2.061 . S
O216 C219 1.235 . S
C217 O220 1.238 . S
C217 O221 1.241 . S
C218 O211 1.247 . S
C218 O212 1.261 . S
C219 O214 1.259 . S
C219 O216 1.235 . S
O220 Co210 2.021 . S
O220 C217 1.238 . S
O221 Co215 2.052 . S
O221 C217 1.241 . S
O222 Co210 2.137 . S
O222 C213 1.247 . S
O223 Co210 2.244 . S
O223 C213 1.272 . S
O223 Co215 2.135 . S
Co224 O225 2.216 . S
Co224 O226 2.091 . S
Co224 O228 2.004 . S
Co224 O234 2.021 . S
Co224 O236 2.137 . S
Co224 O237 2.244 . S
O225 Co224 2.216 . S
O225 C232 1.247 . S
O226 Co224 2.091 . S
O226 C232 1.261 . S
C227 O236 1.247 . S
C227 O237 1.272 . S
O228 Co224 2.004 . S
O228 C233 1.259 . S
Co229 O230 2.061 . S
Co229 O235 2.052 . S
Co229 O237 2.135 . S
O230 Co229 2.061 . S
O230 C233 1.235 . S
C231 O234 1.238 . S
C231 O235 1.241 . S
C232 O225 1.247 . S
C232 O226 1.261 . S
C233 O228 1.259 . S
C233 O230 1.235 . S
O234 Co224 2.021 . S
O234 C231 1.238 . S
O235 Co229 2.052 . S
O235 C231 1.241 . S
O236 Co224 2.137 . S
O236 C227 1.247 . S
O237 Co224 2.244 . S
O237 C227 1.272 . S
O237 Co229 2.135 . S
Co238 O239 2.216 . S
Co238 O240 2.091 . S
Co238 O242 2.004 . S
Co238 O248 2.021 . S
Co238 O250 2.137 . S
Co238 O251 2.244 . S
O239 Co238 2.216 . S
O239 C246 1.247 . S
O240 Co238 2.091 . S
O240 C246 1.261 . S
C241 O250 1.247 . S
C241 O251 1.272 . S
O242 Co238 2.004 . S
O242 C247 1.259 . S
Co243 O244 2.061 . S
Co243 O249 2.052 . S
Co243 O251 2.135 . S
O244 Co243 2.061 . S
O244 C247 1.235 . S
C245 O248 1.238 . S
C245 O249 1.241 . S
C246 O239 1.247 . S
C246 O240 1.261 . S
C247 O242 1.259 . S
C247 O244 1.235 . S
O248 Co238 2.021 . S
O248 C245 1.238 . S
O249 Co243 2.052 . S
O249 C245 1.241 . S
O250 Co238 2.137 . S
O250 C241 1.247 . S
O251 Co238 2.244 . S
O251 C241 1.272 . S
O251 Co243 2.135 . S
Co252 O253 2.216 . S
Co252 O254 2.091 . S
Co252 O256 2.004 . S
Co252 O262 2.021 . S
Co252 O264 2.137 . S
Co252 O265 2.244 . S
O253 Co252 2.216 . S
O253 C260 1.247 . S
O254 Co252 2.091 . S
O254 C260 1.261 . S
C255 O264 1.247 . S
C255 O265 1.272 . S
O256 Co252 2.004 . S
O256 C261 1.259 . S
Co257 O258 2.061 . S
Co257 O263 2.052 . S
Co257 O265 2.135 . S
O258 Co257 2.061 . S
O258 C261 1.235 . S
C259 O262 1.238 . S
C259 O263 1.241 . S
C260 O253 1.247 . S
C260 O254 1.261 . S
C261 O256 1.259 . S
C261 O258 1.235 . S
O262 Co252 2.021 . S
O262 C259 1.238 . S
O263 Co257 2.052 . S
O263 C259 1.241 . S
O264 Co252 2.137 . S
O264 C255 1.247 . S
O265 Co252 2.244 . S
O265 C255 1.272 . S
O265 Co257 2.135 . S
Co266 O267 2.216 . S
Co266 O268 2.091 . S
Co266 O270 2.004 . S
Co266 O276 2.021 . S
Co266 O278 2.137 . S
Co266 O279 2.244 . S
O267 Co266 2.216 . S
O267 C274 1.247 . S
O268 Co266 2.091 . S
O268 C274 1.261 . S
C269 O278 1.247 . S
C269 O279 1.272 . S
O270 Co266 2.004 . S
O270 C275 1.259 . S
Co271 O272 2.061 . S
Co271 O277 2.052 . S
Co271 O279 2.135 . S
O272 Co271 2.061 . S
O272 C275 1.235 . S
C273 O276 1.238 . S
C273 O277 1.241 . S
C274 O267 1.247 . S
C274 O268 1.261 . S
C275 O270 1.259 . S
C275 O272 1.235 . S
O276 Co266 2.021 . S
O276 C273 1.238 . S
O277 Co271 2.052 . S
O277 C273 1.241 . S
O278 Co266 2.137 . S
O278 C269 1.247 . S
O279 Co266 2.244 . S
O279 C269 1.272 . S
O279 Co271 2.135 . S
Co280 O281 2.216 . S
Co280 O282 2.091 . S
Co280 O284 2.004 . S
Co280 O290 2.021 . S
Co280 O292 2.137 . S
Co280 O293 2.244 . S
O281 Co280 2.216 . S
O281 C288 1.247 . S
O282 Co280 2.091 . S
O282 C288 1.261 . S
C283 O292 1.247 . S
C283 O293 1.272 . S
O284 Co280 2.004 . S
O284 C289 1.259 . S
Co285 O286 2.061 . S
Co285 O291 2.052 . S
Co285 O293 2.135 . S
O286 Co285 2.061 . S
O286 C289 1.235 . S
C287 O290 1.238 . S
C287 O291 1.241 . S
C288 O281 1.247 . S
C288 O282 1.261 . S
C289 O284 1.259 . S
C289 O286 1.235 . S
O290 Co280 2.021 . S
O290 C287 1.238 . S
O291 Co285 2.052 . S
O291 C287 1.241 . S
O292 Co280 2.137 . S
O292 C283 1.247 . S
O293 Co280 2.244 . S
O293 C283 1.272 . S
O293 Co285 2.135 . S
Co294 O295 2.216 . S
Co294 O296 2.091 . S
Co294 O298 2.004 . S
Co294 O304 2.021 . S
Co294 O306 2.137 . S
Co294 O307 2.244 . S
O295 Co294 2.216 . S
O295 C302 1.247 . S
O296 Co294 2.091 . S
O296 C302 1.261 . S
C297 O306 1.247 . S
C297 O307 1.272 . S
O298 Co294 2.004 . S
O298 C303 1.259 . S
Co299 O300 2.061 . S
Co299 O305 2.052 . S
Co299 O307 2.135 . S
O300 Co299 2.061 . S
O300 C303 1.235 . S
C301 O304 1.238 . S
C301 O305 1.241 . S
C302 O295 1.247 . S
C302 O296 1.261 . S
C303 O298 1.259 . S
C303 O300 1.235 . S
O304 Co294 2.021 . S
O304 C301 1.238 . S
O305 Co299 2.052 . S
O305 C301 1.241 . S
O306 Co294 2.137 . S
O306 C297 1.247 . S
O307 Co294 2.244 . S
O307 C297 1.272 . S
O307 Co299 2.135 . S
Co308 O309 2.216 . S
Co308 O310 2.091 . S
Co308 O312 2.004 . S
Co308 O318 2.021 . S
Co308 O320 2.137 . S
Co308 O321 2.244 . S
O309 Co308 2.216 . S
O309 C316 1.247 . S
O310 Co308 2.091 . S
O310 C316 1.261 . S
C311 O320 1.247 . S
C311 O321 1.272 . S
O312 Co308 2.004 . S
O312 C317 1.259 . S
Co313 O314 2.061 . S
Co313 O319 2.052 . S
Co313 O321 2.135 . S
O314 Co313 2.061 . S
O314 C317 1.235 . S
C315 O318 1.238 . S
C315 O319 1.241 . S
C316 O309 1.247 . S
C316 O310 1.261 . S
C317 O312 1.259 . S
C317 O314 1.235 . S
O318 Co308 2.021 . S
O318 C315 1.238 . S
O319 Co313 2.052 . S
O319 C315 1.241 . S
O320 Co308 2.137 . S
O320 C311 1.247 . S
O321 Co308 2.244 . S
O321 C311 1.272 . S
O321 Co313 2.135 . S
Co322 O323 2.216 . S
Co322 O324 2.091 . S
Co322 O326 2.004 . S
Co322 O332 2.021 . S
Co322 O334 2.137 . S
Co322 O335 2.244 . S
O323 Co322 2.216 . S
O323 C330 1.247 . S
O324 Co322 2.091 . S
O324 C330 1.261 . S
C325 O334 1.247 . S
C325 O335 1.272 . S
O326 Co322 2.004 . S
O326 C331 1.259 . S
Co327 O328 2.061 . S
Co327 O333 2.052 . S
Co327 O335 2.135 . S
O328 Co327 2.061 . S
O328 C331 1.235 . S
C329 O332 1.238 . S
C329 O333 1.241 . S
C330 O323 1.247 . S
C330 O324 1.261 . S
C331 O326 1.259 . S
C331 O328 1.235 . S
O332 Co322 2.021 . S
O332 C329 1.238 . S
O333 Co327 2.052 . S
O333 C329 1.241 . S
O334 Co322 2.137 . S
O334 C325 1.247 . S
O335 Co322 2.244 . S
O335 C325 1.272 . S
O335 Co327 2.135 . S
Co336 O337 2.216 . S
Co336 O338 2.091 . S
Co336 O340 2.004 . S
Co336 O346 2.021 . S
Co336 O348 2.137 . S
Co336 O349 2.244 . S
O337 Co336 2.216 . S
O337 C344 1.247 . S
O338 Co336 2.091 . S
O338 C344 1.261 . S
C339 O348 1.247 . S
C339 O349 1.272 . S
O340 Co336 2.004 . S
O340 C345 1.259 . S
Co341 O342 2.061 . S
Co341 O347 2.052 . S
Co341 O349 2.135 . S
O342 Co341 2.061 . S
O342 C345 1.235 . S
C343 O346 1.238 . S
C343 O347 1.241 . S
C344 O337 1.247 . S
C344 O338 1.261 . S
C345 O340 1.259 . S
C345 O342 1.235 . S
O346 Co336 2.021 . S
O346 C343 1.238 . S
O347 Co341 2.052 . S
O347 C343 1.241 . S
O348 Co336 2.137 . S
O348 C339 1.247 . S
O349 Co336 2.244 . S
O349 C339 1.272 . S
O349 Co341 2.135 . S
Co350 O351 2.216 . S
Co350 O352 2.091 . S
Co350 O354 2.004 . S
Co350 O360 2.021 . S
Co350 O362 2.137 . S
Co350 O363 2.244 . S
O351 Co350 2.216 . S
O351 C358 1.247 . S
O352 Co350 2.091 . S
O352 C358 1.261 . S
C353 O362 1.247 . S
C353 O363 1.272 . S
O354 Co350 2.004 . S
O354 C359 1.259 . S
Co355 O356 2.061 . S
Co355 O361 2.052 . S
Co355 O363 2.135 . S
O356 Co355 2.061 . S
O356 C359 1.235 . S
C357 O360 1.238 . S
C357 O361 1.241 . S
C358 O351 1.247 . S
C358 O352 1.261 . S
C359 O354 1.259 . S
C359 O356 1.235 . S
O360 Co350 2.021 . S
O360 C357 1.238 . S
O361 Co355 2.052 . S
O361 C357 1.241 . S
O362 Co350 2.137 . S
O362 C353 1.247 . S
O363 Co350 2.244 . S
O363 C353 1.272 . S
O363 Co355 2.135 . S
Co364 O365 2.216 . S
Co364 O366 2.091 . S
Co364 O368 2.004 . S
Co364 O374 2.021 1_556 S
Co364 O376 2.137 . S
Co364 O377 2.244 . S
O365 Co364 2.216 . S
O365 C372 1.247 . S
O366 Co364 2.091 . S
O366 C372 1.261 . S
C367 O376 1.247 . S
C367 O377 1.272 . S
O368 Co364 2.004 . S
O368 C373 1.264 . S
Co369 O370 2.061 . S
Co369 O375 2.052 . S
Co369 O377 2.135 1_554 S
O370 Co369 2.061 . S
O370 C373 1.231 1_554 S
C371 O374 1.238 . S
C371 O375 1.241 . S
C372 O365 1.247 . S
C372 O366 1.261 . S
C373 O368 1.264 . S
C373 O370 1.231 1_556 S
O374 Co364 2.021 1_554 S
O374 C371 1.238 . S
O375 Co369 2.052 . S
O375 C371 1.241 . S
O376 Co364 2.137 . S
O376 C367 1.247 . S
O377 Co364 2.244 . S
O377 C367 1.272 . S
O377 Co369 2.135 1_556 S
Co378 O379 2.216 . S
Co378 O380 2.091 . S
Co378 O382 2.004 . S
Co378 O388 2.021 1_556 S
Co378 O390 2.137 . S
Co378 O391 2.244 . S
O379 Co378 2.216 . S
O379 C386 1.247 . S
O380 Co378 2.091 . S
O380 C386 1.261 . S
C381 O390 1.247 . S
C381 O391 1.272 . S
O382 Co378 2.004 . S
O382 C387 1.264 . S
Co383 O384 2.061 . S
Co383 O389 2.052 . S
Co383 O391 2.135 1_554 S
O384 Co383 2.061 . S
O384 C387 1.231 1_554 S
C385 O388 1.238 . S
C385 O389 1.241 . S
C386 O379 1.247 . S
C386 O380 1.261 . S
C387 O382 1.264 . S
C387 O384 1.231 1_556 S
O388 Co378 2.021 1_554 S
O388 C385 1.238 . S
O389 Co383 2.052 . S
O389 C385 1.241 . S
O390 Co378 2.137 . S
O390 C381 1.247 . S
O391 Co378 2.244 . S
O391 C381 1.272 . S
O391 Co383 2.135 1_556 S
Co392 O393 2.216 . S
Co392 O394 2.091 . S
Co392 O396 2.004 . S
Co392 O402 2.021 . S
Co392 O404 2.137 . S
Co392 O405 2.244 . S
O393 Co392 2.216 . S
O393 C400 1.247 . S
O394 Co392 2.091 . S
O394 C400 1.261 . S
C395 O404 1.247 . S
C395 O405 1.272 . S
O396 Co392 2.004 . S
O396 C401 1.259 . S
Co397 O398 2.061 . S
Co397 O403 2.052 . S
Co397 O405 2.135 . S
O398 Co397 2.061 . S
O398 C401 1.235 . S
C399 O402 1.238 . S
C399 O403 1.241 . S
C400 O393 1.247 . S
C400 O394 1.261 . S
C401 O396 1.259 . S
C401 O398 1.235 . S
O402 Co392 2.021 . S
O402 C399 1.238 . S
O403 Co397 2.052 . S
O403 C399 1.241 . S
O404 Co392 2.137 . S
O404 C395 1.247 . S
O405 Co392 2.244 . S
O405 C395 1.272 . S
O405 Co397 2.135 . S
Co406 O407 2.216 . S
Co406 O408 2.091 . S
Co406 O410 2.004 . S
Co406 O416 2.021 . S
Co406 O418 2.137 . S
Co406 O419 2.244 . S
O407 Co406 2.216 . S
O407 C414 1.247 . S
O408 Co406 2.091 . S
O408 C414 1.261 . S
C409 O418 1.247 . S
C409 O419 1.272 . S
O410 Co406 2.004 . S
O410 C415 1.259 . S
Co411 O412 2.061 . S
Co411 O417 2.052 . S
Co411 O419 2.135 . S
O412 Co411 2.061 . S
O412 C415 1.235 . S
C413 O416 1.238 . S
C413 O417 1.241 . S
C414 O407 1.247 . S
C414 O408 1.261 . S
C415 O410 1.259 . S
C415 O412 1.235 . S
O416 Co406 2.021 . S
O416 C413 1.238 . S
O417 Co411 2.052 . S
O417 C413 1.241 . S
O418 Co406 2.137 . S
O418 C409 1.247 . S
O419 Co406 2.244 . S
O419 C409 1.272 . S
O419 Co411 2.135 . S
Co420 O421 2.216 . S
Co420 O422 2.091 . S
Co420 O424 2.004 . S
Co420 O430 2.021 1_554 S
Co420 O432 2.137 . S
Co420 O433 2.244 . S
O421 Co420 2.216 . S
O421 C428 1.247 . S
O422 Co420 2.091 . S
O422 C428 1.261 . S
C423 O432 1.247 . S
C423 O433 1.272 . S
O424 Co420 2.004 . S
O424 C429 1.264 . S
Co425 O426 2.061 . S
Co425 O431 2.052 . S
Co425 O433 2.135 1_556 S
O426 Co425 2.061 . S
O426 C429 1.231 1_556 S
C427 O430 1.238 . S
C427 O431 1.241 . S
C428 O421 1.247 . S
C428 O422 1.261 . S
C429 O424 1.264 . S
C429 O426 1.231 1_554 S
O430 Co420 2.021 1_556 S
O430 C427 1.238 . S
O431 Co425 2.052 . S
O431 C427 1.241 . S
O432 Co420 2.137 . S
O432 C423 1.247 . S
O433 Co420 2.244 . S
O433 C423 1.272 . S
O433 Co425 2.135 1_554 S
Co434 O435 2.216 . S
Co434 O436 2.091 . S
Co434 O438 2.004 . S
Co434 O444 2.021 1_554 S
Co434 O446 2.137 . S
Co434 O447 2.244 . S
O435 Co434 2.216 . S
O435 C442 1.247 . S
O436 Co434 2.091 . S
O436 C442 1.261 . S
C437 O446 1.247 . S
C437 O447 1.272 . S
O438 Co434 2.004 . S
O438 C443 1.264 . S
Co439 O440 2.061 . S
Co439 O445 2.052 . S
Co439 O447 2.135 1_556 S
O440 Co439 2.061 . S
O440 C443 1.231 1_556 S
C441 O444 1.238 . S
C441 O445 1.241 . S
C442 O435 1.247 . S
C442 O436 1.261 . S
C443 O438 1.264 . S
C443 O440 1.231 1_554 S
O444 Co434 2.021 1_556 S
O444 C441 1.238 . S
O445 Co439 2.052 . S
O445 C441 1.241 . S
O446 Co434 2.137 . S
O446 C437 1.247 . S
O447 Co434 2.244 . S
O447 C437 1.272 . S
O447 Co439 2.135 1_554 S
C448 C449 1.349 . S
C448 C450 1.327 . S
C448 H473 0.950 . S
C449 C448 1.349 . S
C449 C465 1.349 . S
C450 C448 1.327 . S
C450 C469 1.429 . S
C450 H474 0.950 . S
C451 C468 1.574 . S
C451 C470 1.368 . S
C451 H475 0.949 . S
H452 C456 0.949 . S
C453 C454 1.349 . S
C453 C455 1.327 . S
C453 H476 0.950 . S
C454 C453 1.349 . S
C454 C466 1.349 . S
C455 C453 1.327 . S
C455 C471 1.429 . S
C455 H477 0.950 . S
C456 H452 0.949 . S
C456 C464 1.574 . S
C456 C472 1.368 . S
H457 C465 0.950 . S
H458 C463 0.950 . S
H459 C464 0.949 . S
H460 C466 0.950 . S
H461 C467 0.950 . S
H462 C468 0.949 . S
C463 H458 0.950 . S
C463 C465 1.327 . S
C463 C469 1.429 . S
C464 C456 1.574 . S
C464 H459 0.949 . S
C464 C470 1.368 . S
C465 C449 1.349 . S
C465 H457 0.950 . S
C465 C463 1.327 . S
C466 C454 1.349 . S
C466 H460 0.950 . S
C466 C467 1.327 . S
C467 H461 0.950 . S
C467 C466 1.327 . S
C467 C471 1.429 . S
C468 C451 1.574 . S
C468 H462 0.949 . S
C468 C472 1.368 . S
C469 C450 1.429 . S
C469 C463 1.429 . S
C469 C470 1.523 . S
C470 C451 1.368 . S
C470 C464 1.368 . S
C470 C469 1.523 . S
C471 C455 1.429 . S
C471 C467 1.429 . S
C471 C472 1.523 . S
C472 C456 1.368 . S
C472 C468 1.368 . S
C472 C471 1.523 . S
H473 C448 0.950 . S
H474 C450 0.950 . S
H475 C451 0.949 . S
H476 C453 0.950 . S
H477 C455 0.950 . S
C478 C479 1.349 . S
C478 C480 1.327 . S
C478 H503 0.950 . S
C479 C478 1.349 . S
C479 C495 1.349 . S
C480 C478 1.327 . S
C480 C499 1.429 . S
C480 H504 0.950 . S
C481 C498 1.574 . S
C481 C500 1.368 . S
C481 H505 0.949 . S
H482 C486 0.949 . S
C483 C484 1.349 . S
C483 C485 1.327 . S
C483 H506 0.950 . S
C484 C483 1.349 . S
C484 C496 1.349 . S
C485 C483 1.327 . S
C485 C501 1.429 . S
C485 H507 0.950 . S
C486 H482 0.949 . S
C486 C494 1.574 . S
C486 C502 1.368 . S
H487 C495 0.950 . S
H488 C493 0.950 . S
H489 C494 0.949 . S
H490 C496 0.950 . S
H491 C497 0.950 . S
H492 C498 0.949 . S
C493 H488 0.950 . S
C493 C495 1.327 . S
C493 C499 1.429 . S
C494 C486 1.574 . S
C494 H489 0.949 . S
C494 C500 1.368 . S
C495 C479 1.349 . S
C495 H487 0.950 . S
C495 C493 1.327 . S
C496 C484 1.349 . S
C496 H490 0.950 . S
C496 C497 1.327 . S
C497 H491 0.950 . S
C497 C496 1.327 . S
C497 C501 1.429 . S
C498 C481 1.574 . S
C498 H492 0.949 . S
C498 C502 1.368 . S
C499 C480 1.429 . S
C499 C493 1.429 . S
C499 C500 1.523 . S
C500 C481 1.368 . S
C500 C494 1.368 . S
C500 C499 1.523 . S
C501 C485 1.429 . S
C501 C497 1.429 . S
C501 C502 1.523 . S
C502 C486 1.368 . S
C502 C498 1.368 . S
C502 C501 1.523 . S
H503 C478 0.950 . S
H504 C480 0.950 . S
H505 C481 0.949 . S
H506 C483 0.950 . S
H507 C485 0.950 . S
C508 C509 1.349 . S
C508 C510 1.327 . S
C508 H533 0.950 . S
C509 C508 1.349 . S
C509 C525 1.349 . S
C510 C508 1.327 . S
C510 C529 1.429 . S
C510 H534 0.950 . S
C511 C528 1.574 . S
C511 C530 1.368 . S
C511 H535 0.949 . S
H512 C516 0.949 . S
C513 C514 1.349 . S
C513 C515 1.327 . S
C513 H536 0.950 . S
C514 C513 1.349 . S
C514 C526 1.349 . S
C515 C513 1.327 . S
C515 C531 1.429 . S
C515 H537 0.950 . S
C516 H512 0.949 . S
C516 C524 1.574 . S
C516 C532 1.368 . S
H517 C525 0.950 . S
H518 C523 0.950 . S
H519 C524 0.949 . S
H520 C526 0.950 . S
H521 C527 0.950 . S
H522 C528 0.949 . S
C523 H518 0.950 . S
C523 C525 1.327 . S
C523 C529 1.429 . S
C524 C516 1.574 . S
C524 H519 0.949 . S
C524 C530 1.368 . S
C525 C509 1.349 . S
C525 H517 0.950 . S
C525 C523 1.327 . S
C526 C514 1.349 . S
C526 H520 0.950 . S
C526 C527 1.327 . S
C527 H521 0.950 . S
C527 C526 1.327 . S
C527 C531 1.429 . S
C528 C511 1.574 . S
C528 H522 0.949 . S
C528 C532 1.368 . S
C529 C510 1.429 . S
C529 C523 1.429 . S
C529 C530 1.523 . S
C530 C511 1.368 . S
C530 C524 1.368 . S
C530 C529 1.523 . S
C531 C515 1.429 . S
C531 C527 1.429 . S
C531 C532 1.523 . S
C532 C516 1.368 . S
C532 C528 1.368 . S
C532 C531 1.523 . S
H533 C508 0.950 . S
H534 C510 0.950 . S
H535 C511 0.949 . S
H536 C513 0.950 . S
H537 C515 0.950 . S
C538 C539 1.349 . S
C538 C540 1.327 . S
C538 H563 0.950 . S
C539 C538 1.349 . S
C539 C555 1.349 . S
C540 C538 1.327 . S
C540 C559 1.429 . S
C540 H564 0.950 . S
C541 C558 1.574 . S
C541 C560 1.368 . S
C541 H565 0.949 . S
H542 C546 0.949 . S
C543 C544 1.349 . S
C543 C545 1.327 . S
C543 H566 0.950 . S
C544 C543 1.349 . S
C544 C556 1.349 . S
C545 C543 1.327 . S
C545 C561 1.429 . S
C545 H567 0.950 . S
C546 H542 0.949 . S
C546 C554 1.574 . S
C546 C562 1.368 . S
H547 C555 0.950 . S
H548 C553 0.950 . S
H549 C554 0.949 . S
H550 C556 0.950 . S
H551 C557 0.950 . S
H552 C558 0.949 . S
C553 H548 0.950 . S
C553 C555 1.327 . S
C553 C559 1.429 . S
C554 C546 1.574 . S
C554 H549 0.949 . S
C554 C560 1.368 . S
C555 C539 1.349 . S
C555 H547 0.950 . S
C555 C553 1.327 . S
C556 C544 1.349 . S
C556 H550 0.950 . S
C556 C557 1.327 . S
C557 H551 0.950 . S
C557 C556 1.327 . S
C557 C561 1.429 . S
C558 C541 1.574 . S
C558 H552 0.949 . S
C558 C562 1.368 . S
C559 C540 1.429 . S
C559 C553 1.429 . S
C559 C560 1.523 . S
C560 C541 1.368 . S
C560 C554 1.368 . S
C560 C559 1.523 . S
C561 C545 1.429 . S
C561 C557 1.429 . S
C561 C562 1.523 . S
C562 C546 1.368 . S
C562 C558 1.368 . S
C562 C561 1.523 . S
H563 C538 0.950 . S
H564 C540 0.950 . S
H565 C541 0.949 . S
H566 C543 0.950 . S
H567 C545 0.950 . S
C568 C569 1.349 . S
C568 C570 1.327 . S
C568 H593 0.950 . S
C569 C568 1.349 . S
C569 C585 1.349 . S
C570 C568 1.327 . S
C570 C589 1.429 . S
C570 H594 0.950 . S
C571 C588 1.574 . S
C571 C590 1.368 . S
C571 H595 0.949 . S
H572 C576 0.949 . S
C573 C574 1.349 . S
C573 C575 1.327 . S
C573 H596 0.950 . S
C574 C573 1.349 . S
C574 C586 1.349 . S
C575 C573 1.327 . S
C575 C591 1.429 . S
C575 H597 0.950 . S
C576 H572 0.949 . S
C576 C584 1.574 . S
C576 C592 1.368 . S
H577 C585 0.950 . S
H578 C583 0.950 . S
H579 C584 0.949 . S
H580 C586 0.950 . S
H581 C587 0.950 . S
H582 C588 0.949 . S
C583 H578 0.950 . S
C583 C585 1.327 . S
C583 C589 1.429 . S
C584 C576 1.574 . S
C584 H579 0.949 . S
C584 C590 1.368 . S
C585 C569 1.349 . S
C585 H577 0.950 . S
C585 C583 1.327 . S
C586 C574 1.349 . S
C586 H580 0.950 . S
C586 C587 1.327 . S
C587 H581 0.950 . S
C587 C586 1.327 . S
C587 C591 1.429 . S
C588 C571 1.574 . S
C588 H582 0.949 . S
C588 C592 1.368 . S
C589 C570 1.429 . S
C589 C583 1.429 . S
C589 C590 1.523 . S
C590 C571 1.368 . S
C590 C584 1.368 . S
C590 C589 1.523 . S
C591 C575 1.429 . S
C591 C587 1.429 . S
C591 C592 1.523 . S
C592 C576 1.368 . S
C592 C588 1.368 . S
C592 C591 1.523 . S
H593 C568 0.950 . S
H594 C570 0.950 . S
H595 C571 0.949 . S
H596 C573 0.950 . S
H597 C575 0.950 . S
C598 C599 1.349 . S
C598 C600 1.327 . S
C598 H623 0.950 . S
C599 C598 1.349 . S
C599 C615 1.349 . S
C600 C598 1.327 . S
C600 C619 1.429 . S
C600 H624 0.950 . S
C601 C618 1.574 . S
C601 C620 1.368 . S
C601 H625 0.949 . S
H602 C606 0.949 . S
C603 C604 1.349 . S
C603 C605 1.327 . S
C603 H626 0.950 . S
C604 C603 1.349 . S
C604 C616 1.349 . S
C605 C603 1.327 . S
C605 C621 1.429 . S
C605 H627 0.950 . S
C606 H602 0.949 . S
C606 C614 1.574 . S
C606 C622 1.368 . S
H607 C615 0.950 . S
H608 C613 0.950 . S
H609 C614 0.949 . S
H610 C616 0.950 . S
H611 C617 0.950 . S
H612 C618 0.949 . S
C613 H608 0.950 . S
C613 C615 1.327 . S
C613 C619 1.429 . S
C614 C606 1.574 . S
C614 H609 0.949 . S
C614 C620 1.368 . S
C615 C599 1.349 . S
C615 H607 0.950 . S
C615 C613 1.327 . S
C616 C604 1.349 . S
C616 H610 0.950 . S
C616 C617 1.327 . S
C617 H611 0.950 . S
C617 C616 1.327 . S
C617 C621 1.429 . S
C618 C601 1.574 . S
C618 H612 0.949 . S
C618 C622 1.368 . S
C619 C600 1.429 . S
C619 C613 1.429 . S
C619 C620 1.523 . S
C620 C601 1.368 . S
C620 C614 1.368 . S
C620 C619 1.523 . S
C621 C605 1.429 . S
C621 C617 1.429 . S
C621 C622 1.523 . S
C622 C606 1.368 . S
C622 C618 1.368 . S
C622 C621 1.523 . S
H623 C598 0.950 . S
H624 C600 0.950 . S
H625 C601 0.949 . S
H626 C603 0.950 . S
H627 C605 0.950 . S
C628 C629 1.349 . S
C628 C630 1.327 . S
C628 H653 0.950 . S
C629 C628 1.349 . S
C629 C645 1.349 . S
C630 C628 1.327 . S
C630 C649 1.429 . S
C630 H654 0.950 . S
C631 C648 1.574 . S
C631 C650 1.368 . S
C631 H655 0.949 . S
H632 C636 0.949 . S
C633 C634 1.349 . S
C633 C635 1.327 . S
C633 H656 0.950 . S
C634 C633 1.349 . S
C634 C646 1.349 . S
C635 C633 1.327 . S
C635 C651 1.429 . S
C635 H657 0.950 . S
C636 H632 0.949 . S
C636 C644 1.574 . S
C636 C652 1.368 . S
H637 C645 0.950 . S
H638 C643 0.950 . S
H639 C644 0.949 . S
H640 C646 0.950 . S
H641 C647 0.950 . S
H642 C648 0.949 . S
C643 H638 0.950 . S
C643 C645 1.327 . S
C643 C649 1.429 . S
C644 C636 1.574 . S
C644 H639 0.949 . S
C644 C650 1.368 . S
C645 C629 1.349 . S
C645 H637 0.950 . S
C645 C643 1.327 . S
C646 C634 1.349 . S
C646 H640 0.950 . S
C646 C647 1.327 . S
C647 H641 0.950 . S
C647 C646 1.327 . S
C647 C651 1.429 . S
C648 C631 1.574 . S
C648 H642 0.949 . S
C648 C652 1.368 . S
C649 C630 1.429 . S
C649 C643 1.429 . S
C649 C650 1.523 . S
C650 C631 1.368 . S
C650 C644 1.368 . S
C650 C649 1.523 . S
C651 C635 1.429 . S
C651 C647 1.429 . S
C651 C652 1.523 . S
C652 C636 1.368 . S
C652 C648 1.368 . S
C652 C651 1.523 . S
H653 C628 0.950 . S
H654 C630 0.950 . S
H655 C631 0.949 . S
H656 C633 0.950 . S
H657 C635 0.950 . S
C658 C659 1.349 . S
C658 C660 1.327 . S
C658 H683 0.950 . S
C659 C658 1.349 . S
C659 C675 1.349 . S
C660 C658 1.327 . S
C660 C679 1.429 . S
C660 H684 0.950 . S
C661 C678 1.574 . S
C661 C680 1.368 . S
C661 H685 0.949 . S
H662 C666 0.949 . S
C663 C664 1.349 . S
C663 C665 1.327 . S
C663 H686 0.950 . S
C664 C663 1.349 . S
C664 C676 1.349 . S
C665 C663 1.327 . S
C665 C681 1.429 . S
C665 H687 0.950 . S
C666 H662 0.949 . S
C666 C674 1.574 . S
C666 C682 1.368 . S
H667 C675 0.950 . S
H668 C673 0.950 . S
H669 C674 0.949 . S
H670 C676 0.950 . S
H671 C677 0.950 . S
H672 C678 0.949 . S
C673 H668 0.950 . S
C673 C675 1.327 . S
C673 C679 1.429 . S
C674 C666 1.574 . S
C674 H669 0.949 . S
C674 C680 1.368 . S
C675 C659 1.349 . S
C675 H667 0.950 . S
C675 C673 1.327 . S
C676 C664 1.349 . S
C676 H670 0.950 . S
C676 C677 1.327 . S
C677 H671 0.950 . S
C677 C676 1.327 . S
C677 C681 1.429 . S
C678 C661 1.574 . S
C678 H672 0.949 . S
C678 C682 1.368 . S
C679 C660 1.429 . S
C679 C673 1.429 . S
C679 C680 1.523 . S
C680 C661 1.368 . S
C680 C674 1.368 . S
C680 C679 1.523 . S
C681 C665 1.429 . S
C681 C677 1.429 . S
C681 C682 1.523 . S
C682 C666 1.368 . S
C682 C678 1.368 . S
C682 C681 1.523 . S
H683 C658 0.950 . S
H684 C660 0.950 . S
H685 C661 0.949 . S
H686 C663 0.950 . S
H687 C665 0.950 . S
C688 C689 1.349 . S
C688 C690 1.327 . S
C688 H713 0.950 . S
C689 C688 1.349 . S
C689 C705 1.349 . S
C690 C688 1.327 . S
C690 C709 1.429 . S
C690 H714 0.950 . S
C691 C708 1.574 . S
C691 C710 1.368 . S
C691 H715 0.949 . S
H692 C696 0.949 . S
C693 C694 1.349 . S
C693 C695 1.327 . S
C693 H716 0.950 . S
C694 C693 1.349 . S
C694 C706 1.349 . S
C695 C693 1.327 . S
C695 C711 1.429 . S
C695 H717 0.950 . S
C696 H692 0.949 . S
C696 C704 1.574 . S
C696 C712 1.368 . S
H697 C705 0.950 . S
H698 C703 0.950 . S
H699 C704 0.949 . S
H700 C706 0.950 . S
H701 C707 0.950 . S
H702 C708 0.949 . S
C703 H698 0.950 . S
C703 C705 1.327 . S
C703 C709 1.429 . S
C704 C696 1.574 . S
C704 H699 0.949 . S
C704 C710 1.368 . S
C705 C689 1.349 . S
C705 H697 0.950 . S
C705 C703 1.327 . S
C706 C694 1.349 . S
C706 H700 0.950 . S
C706 C707 1.327 . S
C707 H701 0.950 . S
C707 C706 1.327 . S
C707 C711 1.429 . S
C708 C691 1.574 . S
C708 H702 0.949 . S
C708 C712 1.368 . S
C709 C690 1.429 . S
C709 C703 1.429 . S
C709 C710 1.523 . S
C710 C691 1.368 . S
C710 C704 1.368 . S
C710 C709 1.523 . S
C711 C695 1.429 . S
C711 C707 1.429 . S
C711 C712 1.523 . S
C712 C696 1.368 . S
C712 C708 1.368 . S
C712 C711 1.523 . S
H713 C688 0.950 . S
H714 C690 0.950 . S
H715 C691 0.949 . S
H716 C693 0.950 . S
H717 C695 0.950 . S
C718 C719 1.349 . S
C718 C720 1.327 . S
C718 H743 0.950 . S
C719 C718 1.349 . S
C719 C735 1.349 . S
C720 C718 1.327 . S
C720 C739 1.429 . S
C720 H744 0.950 . S
C721 C738 1.574 . S
C721 C740 1.368 . S
C721 H745 0.949 . S
H722 C726 0.949 . S
C723 C724 1.349 . S
C723 C725 1.327 . S
C723 H746 0.950 . S
C724 C723 1.349 . S
C724 C736 1.349 . S
C725 C723 1.327 . S
C725 C741 1.429 . S
C725 H747 0.950 . S
C726 H722 0.949 . S
C726 C734 1.574 . S
C726 C742 1.368 . S
H727 C735 0.950 . S
H728 C733 0.950 . S
H729 C734 0.949 . S
H730 C736 0.950 . S
H731 C737 0.950 . S
H732 C738 0.949 . S
C733 H728 0.950 . S
C733 C735 1.327 . S
C733 C739 1.429 . S
C734 C726 1.574 . S
C734 H729 0.949 . S
C734 C740 1.368 . S
C735 C719 1.349 . S
C735 H727 0.950 . S
C735 C733 1.327 . S
C736 C724 1.349 . S
C736 H730 0.950 . S
C736 C737 1.327 . S
C737 H731 0.950 . S
C737 C736 1.327 . S
C737 C741 1.429 . S
C738 C721 1.574 . S
C738 H732 0.949 . S
C738 C742 1.368 . S
C739 C720 1.429 . S
C739 C733 1.429 . S
C739 C740 1.523 . S
C740 C721 1.368 . S
C740 C734 1.368 . S
C740 C739 1.523 . S
C741 C725 1.429 . S
C741 C737 1.429 . S
C741 C742 1.523 . S
C742 C726 1.368 . S
C742 C738 1.368 . S
C742 C741 1.523 . S
H743 C718 0.950 . S
H744 C720 0.950 . S
H745 C721 0.949 . S
H746 C723 0.950 . S
H747 C725 0.950 . S
C748 C749 1.349 . S
C748 C750 1.327 . S
C748 H773 0.950 . S
C749 C748 1.349 . S
C749 C765 1.349 . S
C750 C748 1.327 . S
C750 C769 1.429 . S
C750 H774 0.950 . S
C751 C768 1.574 . S
C751 C770 1.368 . S
C751 H775 0.949 . S
H752 C756 0.949 . S
C753 C754 1.349 . S
C753 C755 1.327 . S
C753 H776 0.950 . S
C754 C753 1.349 . S
C754 C766 1.349 . S
C755 C753 1.327 . S
C755 C771 1.429 . S
C755 H777 0.950 . S
C756 H752 0.949 . S
C756 C764 1.574 . S
C756 C772 1.368 . S
H757 C765 0.950 . S
H758 C763 0.950 . S
H759 C764 0.949 . S
H760 C766 0.950 . S
H761 C767 0.950 . S
H762 C768 0.949 . S
C763 H758 0.950 . S
C763 C765 1.327 . S
C763 C769 1.429 . S
C764 C756 1.574 . S
C764 H759 0.949 . S
C764 C770 1.368 . S
C765 C749 1.349 . S
C765 H757 0.950 . S
C765 C763 1.327 . S
C766 C754 1.349 . S
C766 H760 0.950 . S
C766 C767 1.327 . S
C767 H761 0.950 . S
C767 C766 1.327 . S
C767 C771 1.429 . S
C768 C751 1.574 . S
C768 H762 0.949 . S
C768 C772 1.368 . S
C769 C750 1.429 . S
C769 C763 1.429 . S
C769 C770 1.523 . S
C770 C751 1.368 . S
C770 C764 1.368 . S
C770 C769 1.523 . S
C771 C755 1.429 . S
C771 C767 1.429 . S
C771 C772 1.523 . S
C772 C756 1.368 . S
C772 C768 1.368 . S
C772 C771 1.523 . S
H773 C748 0.950 . S
H774 C750 0.950 . S
H775 C751 0.949 . S
H776 C753 0.950 . S
H777 C755 0.950 . S
C778 C779 1.349 . S
C778 C780 1.327 . S
C778 H803 0.950 . S
C779 C778 1.349 . S
C779 C795 1.349 . S
C780 C778 1.327 . S
C780 C799 1.429 . S
C780 H804 0.950 . S
C781 C798 1.574 . S
C781 C800 1.368 . S
C781 H805 0.949 . S
H782 C786 0.949 . S
C783 C784 1.349 . S
C783 C785 1.327 . S
C783 H806 0.950 . S
C784 C783 1.349 . S
C784 C796 1.349 . S
C785 C783 1.327 . S
C785 C801 1.429 . S
C785 H807 0.950 . S
C786 H782 0.949 . S
C786 C794 1.574 . S
C786 C802 1.368 . S
H787 C795 0.950 . S
H788 C793 0.950 . S
H789 C794 0.949 . S
H790 C796 0.950 . S
H791 C797 0.950 . S
H792 C798 0.949 . S
C793 H788 0.950 . S
C793 C795 1.327 . S
C793 C799 1.429 . S
C794 C786 1.574 . S
C794 H789 0.949 . S
C794 C800 1.368 . S
C795 C779 1.349 . S
C795 H787 0.950 . S
C795 C793 1.327 . S
C796 C784 1.349 . S
C796 H790 0.950 . S
C796 C797 1.327 . S
C797 H791 0.950 . S
C797 C796 1.327 . S
C797 C801 1.429 . S
C798 C781 1.574 . S
C798 H792 0.949 . S
C798 C802 1.368 . S
C799 C780 1.429 . S
C799 C793 1.429 . S
C799 C800 1.523 . S
C800 C781 1.368 . S
C800 C794 1.368 . S
C800 C799 1.523 . S
C801 C785 1.429 . S
C801 C797 1.429 . S
C801 C802 1.523 . S
C802 C786 1.368 . S
C802 C798 1.368 . S
C802 C801 1.523 . S
H803 C778 0.950 . S
H804 C780 0.950 . S
H805 C781 0.949 . S
H806 C783 0.950 . S
H807 C785 0.950 . S
C808 C809 1.349 . S
C808 C810 1.327 . S
C808 H833 0.950 . S
C809 C808 1.349 . S
C809 C825 1.349 . S
C810 C808 1.327 . S
C810 C829 1.429 . S
C810 H834 0.950 . S
C811 C828 1.574 . S
C811 C830 1.368 . S
C811 H835 0.949 . S
H812 C816 0.949 . S
C813 C814 1.349 . S
C813 C815 1.327 . S
C813 H836 0.950 . S
C814 C813 1.349 . S
C814 C826 1.349 . S
C815 C813 1.327 . S
C815 C831 1.429 . S
C815 H837 0.950 . S
C816 H812 0.949 . S
C816 C824 1.574 . S
C816 C832 1.368 . S
H817 C825 0.950 . S
H818 C823 0.950 . S
H819 C824 0.949 . S
H820 C826 0.950 . S
H821 C827 0.950 . S
H822 C828 0.949 . S
C823 H818 0.950 . S
C823 C825 1.327 . S
C823 C829 1.429 . S
C824 C816 1.574 . S
C824 H819 0.949 . S
C824 C830 1.368 . S
C825 C809 1.349 . S
C825 H817 0.950 . S
C825 C823 1.327 . S
C826 C814 1.349 . S
C826 H820 0.950 . S
C826 C827 1.327 . S
C827 H821 0.950 . S
C827 C826 1.327 . S
C827 C831 1.429 . S
C828 C811 1.574 . S
C828 H822 0.949 . S
C828 C832 1.368 . S
C829 C810 1.429 . S
C829 C823 1.429 . S
C829 C830 1.523 . S
C830 C811 1.368 . S
C830 C824 1.368 . S
C830 C829 1.523 . S
C831 C815 1.429 . S
C831 C827 1.429 . S
C831 C832 1.523 . S
C832 C816 1.368 . S
C832 C828 1.368 . S
C832 C831 1.523 . S
H833 C808 0.950 . S
H834 C810 0.950 . S
H835 C811 0.949 . S
H836 C813 0.950 . S
H837 C815 0.950 . S
C838 C839 1.349 . S
C838 C840 1.327 . S
C838 H863 0.950 . S
C839 C838 1.349 . S
C839 C855 1.349 . S
C840 C838 1.327 . S
C840 C859 1.429 . S
C840 H864 0.950 . S
C841 C858 1.574 . S
C841 C860 1.368 . S
C841 H865 0.949 . S
H842 C846 0.949 . S
C843 C844 1.349 . S
C843 C845 1.327 . S
C843 H866 0.950 . S
C844 C843 1.349 . S
C844 C856 1.349 . S
C845 C843 1.327 . S
C845 C861 1.429 . S
C845 H867 0.950 . S
C846 H842 0.949 . S
C846 C854 1.574 . S
C846 C862 1.368 . S
H847 C855 0.950 . S
H848 C853 0.950 . S
H849 C854 0.949 . S
H850 C856 0.950 . S
H851 C857 0.950 . S
H852 C858 0.949 . S
C853 H848 0.950 . S
C853 C855 1.327 . S
C853 C859 1.429 . S
C854 C846 1.574 . S
C854 H849 0.949 . S
C854 C860 1.368 . S
C855 C839 1.349 . S
C855 H847 0.950 . S
C855 C853 1.327 . S
C856 C844 1.349 . S
C856 H850 0.950 . S
C856 C857 1.327 . S
C857 H851 0.950 . S
C857 C856 1.327 . S
C857 C861 1.429 . S
C858 C841 1.574 . S
C858 H852 0.949 . S
C858 C862 1.368 . S
C859 C840 1.429 . S
C859 C853 1.429 . S
C859 C860 1.523 . S
C860 C841 1.368 . S
C860 C854 1.368 . S
C860 C859 1.523 . S
C861 C845 1.429 . S
C861 C857 1.429 . S
C861 C862 1.523 . S
C862 C846 1.368 . S
C862 C858 1.368 . S
C862 C861 1.523 . S
H863 C838 0.950 . S
H864 C840 0.950 . S
H865 C841 0.949 . S
H866 C843 0.950 . S
H867 C845 0.950 . S
C868 C869 1.349 . S
C868 C870 1.327 . S
C868 H893 0.950 . S
C869 C868 1.349 . S
C869 C885 1.349 . S
C870 C868 1.327 . S
C870 C889 1.429 . S
C870 H894 0.950 . S
C871 C888 1.574 . S
C871 C890 1.368 . S
C871 H895 0.949 . S
H872 C876 0.949 . S
C873 C874 1.349 . S
C873 C875 1.327 . S
C873 H896 0.950 . S
C874 C873 1.349 . S
C874 C886 1.349 . S
C875 C873 1.327 . S
C875 C891 1.429 . S
C875 H897 0.950 . S
C876 H872 0.949 . S
C876 C884 1.574 . S
C876 C892 1.368 . S
H877 C885 0.950 . S
H878 C883 0.950 . S
H879 C884 0.949 . S
H880 C886 0.950 . S
H881 C887 0.950 . S
H882 C888 0.949 . S
C883 H878 0.950 . S
C883 C885 1.327 . S
C883 C889 1.429 . S
C884 C876 1.574 . S
C884 H879 0.949 . S
C884 C890 1.368 . S
C885 C869 1.349 . S
C885 H877 0.950 . S
C885 C883 1.327 . S
C886 C874 1.349 . S
C886 H880 0.950 . S
C886 C887 1.327 . S
C887 H881 0.950 . S
C887 C886 1.327 . S
C887 C891 1.429 . S
C888 C871 1.574 . S
C888 H882 0.949 . S
C888 C892 1.368 . S
C889 C870 1.429 . S
C889 C883 1.429 . S
C889 C890 1.523 . S
C890 C871 1.368 . S
C890 C884 1.368 . S
C890 C889 1.523 . S
C891 C875 1.429 . S
C891 C887 1.429 . S
C891 C892 1.523 . S
C892 C876 1.368 . S
C892 C888 1.368 . S
C892 C891 1.523 . S
H893 C868 0.950 . S
H894 C870 0.950 . S
H895 C871 0.949 . S
H896 C873 0.950 . S
H897 C875 0.950 . S
C898 C899 1.349 . S
C898 C900 1.327 . S
C898 H923 0.950 . S
C899 C898 1.349 . S
C899 C915 1.349 . S
C900 C898 1.327 . S
C900 C919 1.429 . S
C900 H924 0.950 . S
C901 C918 1.574 . S
C901 C920 1.368 . S
C901 H925 0.949 . S
H902 C906 0.949 . S
C903 C904 1.349 . S
C903 C905 1.327 . S
C903 H926 0.950 . S
C904 C903 1.349 . S
C904 C916 1.349 . S
C905 C903 1.327 . S
C905 C921 1.429 . S
C905 H927 0.950 . S
C906 H902 0.949 . S
C906 C914 1.574 . S
C906 C922 1.368 . S
H907 C915 0.950 . S
H908 C913 0.950 . S
H909 C914 0.949 . S
H910 C916 0.950 . S
H911 C917 0.950 . S
H912 C918 0.949 . S
C913 H908 0.950 . S
C913 C915 1.327 . S
C913 C919 1.429 . S
C914 C906 1.574 . S
C914 H909 0.949 . S
C914 C920 1.368 . S
C915 C899 1.349 . S
C915 H907 0.950 . S
C915 C913 1.327 . S
C916 C904 1.349 . S
C916 H910 0.950 . S
C916 C917 1.327 . S
C917 H911 0.950 . S
C917 C916 1.327 . S
C917 C921 1.429 . S
C918 C901 1.574 . S
C918 H912 0.949 . S
C918 C922 1.368 . S
C919 C900 1.429 . S
C919 C913 1.429 . S
C919 C920 1.523 . S
C920 C901 1.368 . S
C920 C914 1.368 . S
C920 C919 1.523 . S
C921 C905 1.429 . S
C921 C917 1.429 . S
C921 C922 1.523 . S
C922 C906 1.368 . S
C922 C918 1.368 . S
C922 C921 1.523 . S
H923 C898 0.950 . S
H924 C900 0.950 . S
H925 C901 0.949 . S
H926 C903 0.950 . S
H927 C905 0.950 . S
C928 C929 1.349 . S
C928 C930 1.327 . S
C928 H953 0.950 . S
C929 C928 1.349 . S
C929 C945 1.349 . S
C930 C928 1.327 . S
C930 C949 1.429 . S
C930 H954 0.950 . S
C931 C948 1.574 . S
C931 C950 1.368 1_455 S
C931 H955 0.949 . S
H932 C936 0.949 . S
C933 C934 1.349 . S
C933 C935 1.327 . S
C933 H956 0.950 . S
C934 C933 1.349 . S
C934 C946 1.349 . S
C935 C933 1.327 . S
C935 C951 1.429 . S
C935 H957 0.950 . S
C936 H932 0.949 . S
C936 C944 1.574 . S
C936 C952 1.368 1_655 S
H937 C945 0.950 . S
H938 C943 0.950 . S
H939 C944 0.949 . S
H940 C946 0.950 . S
H941 C947 0.950 . S
H942 C948 0.949 . S
C943 H938 0.950 . S
C943 C945 1.327 . S
C943 C949 1.429 . S
C944 C936 1.574 . S
C944 H939 0.949 . S
C944 C950 1.368 . S
C945 C929 1.349 . S
C945 H937 0.950 . S
C945 C943 1.327 . S
C946 C934 1.349 . S
C946 H940 0.950 . S
C946 C947 1.327 . S
C947 H941 0.950 . S
C947 C946 1.327 . S
C947 C951 1.429 . S
C948 C931 1.574 . S
C948 H942 0.949 . S
C948 C952 1.368 . S
C949 C930 1.429 . S
C949 C943 1.429 . S
C949 C950 1.523 . S
C950 C931 1.368 1_655 S
C950 C944 1.368 . S
C950 C949 1.523 . S
C951 C935 1.429 . S
C951 C947 1.429 . S
C951 C952 1.523 . S
C952 C936 1.368 1_455 S
C952 C948 1.368 . S
C952 C951 1.523 . S
H953 C928 0.950 . S
H954 C930 0.950 . S
H955 C931 0.949 . S
H956 C933 0.950 . S
H957 C935 0.950 . S
C958 C959 1.349 . S
C958 C960 1.327 . S
C958 H983 0.950 . S
C959 C958 1.349 . S
C959 C975 1.349 . S
C960 C958 1.327 . S
C960 C979 1.429 . S
C960 H984 0.950 . S
C961 C978 1.574 1_565 S
C961 C980 1.368 . S
C961 H985 0.949 . S
H962 C966 0.949 . S
C963 C964 1.349 . S
C963 C965 1.327 . S
C963 H986 0.950 . S
C964 C963 1.349 . S
C964 C976 1.349 . S
C965 C963 1.327 . S
C965 C981 1.429 . S
C965 H987 0.950 . S
C966 H962 0.949 . S
C966 C974 1.574 1_545 S
C966 C982 1.368 . S
H967 C975 0.950 . S
H968 C973 0.950 . S
H969 C974 0.949 . S
H970 C976 0.950 . S
H971 C977 0.950 . S
H972 C978 0.949 . S
C973 H968 0.950 . S
C973 C975 1.327 . S
C973 C979 1.429 . S
C974 C966 1.574 1_565 S
C974 H969 0.949 . S
C974 C980 1.368 . S
C975 C959 1.349 . S
C975 H967 0.950 . S
C975 C973 1.327 . S
C976 C964 1.349 . S
C976 H970 0.950 . S
C976 C977 1.327 . S
C977 H971 0.950 . S
C977 C976 1.327 . S
C977 C981 1.429 . S
C978 C961 1.574 1_545 S
C978 H972 0.949 . S
C978 C982 1.368 . S
C979 C960 1.429 . S
C979 C973 1.429 . S
C979 C980 1.523 . S
C980 C961 1.368 . S
C980 C974 1.368 . S
C980 C979 1.523 . S
C981 C965 1.429 . S
C981 C977 1.429 . S
C981 C982 1.523 . S
C982 C966 1.368 . S
C982 C978 1.368 . S
C982 C981 1.523 . S
H983 C958 0.950 . S
H984 C960 0.950 . S
H985 C961 0.949 . S
H986 C963 0.950 . S
H987 C965 0.950 . S
C988 C989 1.349 1_554 S
C988 C990 1.327 . S
C988 H1013 0.950 . S
C989 C988 1.349 1_556 S
C989 C1005 1.349 . S
C990 C988 1.327 . S
C990 C1009 1.429 1_554 S
C990 H1014 0.950 . S
C991 C1008 1.574 1_565 S
C991 C1010 1.393 1_655 S
C991 H1015 0.949 . S
H992 C996 0.949 . S
C993 C994 1.349 1_556 S
C993 C995 1.327 . S
C993 H1016 0.950 . S
C994 C993 1.349 1_554 S
C994 C1006 1.349 . S
C995 C993 1.327 . S
C995 C1011 1.391 1_556 S
C995 H1017 0.950 . S
C996 H992 0.949 . S
C996 C1004 1.574 1_545 S
C996 C1012 1.382 1_455 S
H997 C1005 0.950 . S
H998 C1003 0.950 . S
H999 C1004 0.949 . S
H1000 C1006 0.950 . S
H1001 C1007 0.950 . S
H1002 C1008 0.949 . S
C1003 H998 0.950 . S
C1003 C1005 1.327 . S
C1003 C1009 1.429 . S
C1004 C996 1.574 1_565 S
C1004 H999 0.949 . S
C1004 C1010 1.344 1_554 S
C1005 C989 1.349 . S
C1005 H997 0.950 . S
C1005 C1003 1.327 . S
C1006 C994 1.349 . S
C1006 H1000 0.950 . S
C1006 C1007 1.327 . S
C1007 H1001 0.950 . S
C1007 C1006 1.327 . S
C1007 C1011 1.469 . S
C1008 C991 1.574 1_545 S
C1008 H1002 0.949 . S
C1008 C1012 1.354 1_556 S
C1009 C990 1.429 1_556 S
C1009 C1003 1.429 . S
C1009 C1010 1.524 . S
C1010 C991 1.393 1_455 S
C1010 C1004 1.344 1_556 S
C1010 C1009 1.524 . S
C1011 C995 1.391 1_554 S
C1011 C1007 1.469 . S
C1011 C1012 1.522 . S
C1012 C996 1.382 1_655 S
C1012 C1008 1.354 1_554 S
C1012 C1011 1.522 . S
H1013 C988 0.950 . S
H1014 C990 0.950 . S
H1015 C991 0.949 . S
H1016 C993 0.950 . S
H1017 C995 0.950 . S
C1018 C1019 1.349 . S
C1018 C1020 1.327 . S
C1018 H1043 0.950 . S
C1019 C1018 1.349 . S
C1019 C1035 1.349 1_554 S
C1020 C1018 1.327 . S
C1020 C1039 1.429 . S
C1020 H1044 0.950 . S
C1021 C1038 1.574 . S
C1021 C1040 1.340 1_556 S
C1021 H1045 0.949 . S
H1022 C1026 0.949 . S
C1023 C1024 1.349 . S
C1023 C1025 1.327 . S
C1023 H1046 0.950 . S
C1024 C1023 1.349 . S
C1024 C1036 1.349 1_556 S
C1025 C1023 1.327 . S
C1025 C1041 1.473 . S
C1025 H1047 0.950 . S
C1026 H1022 0.949 . S
C1026 C1034 1.574 . S
C1026 C1042 1.352 1_554 S
H1027 C1035 0.950 . S
H1028 C1033 0.950 . S
H1029 C1034 0.949 . S
H1030 C1036 0.950 . S
H1031 C1037 0.950 . S
H1032 C1038 0.949 . S
C1033 H1028 0.950 . S
C1033 C1035 1.327 . S
C1033 C1039 1.429 1_556 S
C1034 C1026 1.574 . S
C1034 H1029 0.949 . S
C1034 C1040 1.396 . S
C1035 C1019 1.349 1_556 S
C1035 H1027 0.950 . S
C1035 C1033 1.327 . S
C1036 C1024 1.349 1_554 S
C1036 H1030 0.950 . S
C1036 C1037 1.327 . S
C1037 H1031 0.950 . S
C1037 C1036 1.327 . S
C1037 C1041 1.386 1_554 S
C1038 C1021 1.574 . S
C1038 H1032 0.949 . S
C1038 C1042 1.384 . S
C1039 C1020 1.429 . S
C1039 C1033 1.429 1_554 S
C1039 C1040 1.524 . S
C1040 C1021 1.340 1_554 S
C1040 C1034 1.396 . S
C1040 C1039 1.524 . S
C1041 C1025 1.473 . S
C1041 C1037 1.386 1_556 S
C1041 C1042 1.522 . S
C1042 C1026 1.352 1_556 S
C1042 C1038 1.384 . S
C1042 C1041 1.522 . S
H1043 C1018 0.950 . S
H1044 C1020 0.950 . S
H1045 C1021 0.949 . S
H1046 C1023 0.950 . S
H1047 C1025 0.950 . S
C1048 C1049 1.349 . S
C1048 C1050 1.327 . S
C1048 H1073 0.950 . S
C1049 C1048 1.349 . S
C1049 C1065 1.349 . S
C1050 C1048 1.327 . S
C1050 C1069 1.429 . S
C1050 H1074 0.950 . S
C1051 C1068 1.574 . S
C1051 C1070 1.368 . S
C1051 H1075 0.949 . S
H1052 C1056 0.949 . S
C1053 C1054 1.349 . S
C1053 C1055 1.327 . S
C1053 H1076 0.950 . S
C1054 C1053 1.349 . S
C1054 C1066 1.349 . S
C1055 C1053 1.327 . S
C1055 C1071 1.429 . S
C1055 H1077 0.950 . S
C1056 H1052 0.949 . S
C1056 C1064 1.574 . S
C1056 C1072 1.368 . S
H1057 C1065 0.950 . S
H1058 C1063 0.950 . S
H1059 C1064 0.949 . S
H1060 C1066 0.950 . S
H1061 C1067 0.950 . S
H1062 C1068 0.949 . S
C1063 H1058 0.950 . S
C1063 C1065 1.327 . S
C1063 C1069 1.429 . S
C1064 C1056 1.574 . S
C1064 H1059 0.949 . S
C1064 C1070 1.368 1_455 S
C1065 C1049 1.349 . S
C1065 H1057 0.950 . S
C1065 C1063 1.327 . S
C1066 C1054 1.349 . S
C1066 H1060 0.950 . S
C1066 C1067 1.327 . S
C1067 H1061 0.950 . S
C1067 C1066 1.327 . S
C1067 C1071 1.429 . S
C1068 C1051 1.574 . S
C1068 H1062 0.949 . S
C1068 C1072 1.368 1_655 S
C1069 C1050 1.429 . S
C1069 C1063 1.429 . S
C1069 C1070 1.523 . S
C1070 C1051 1.368 . S
C1070 C1064 1.368 1_655 S
C1070 C1069 1.523 . S
C1071 C1055 1.429 . S
C1071 C1067 1.429 . S
C1071 C1072 1.523 . S
C1072 C1056 1.368 . S
C1072 C1068 1.368 1_455 S
C1072 C1071 1.523 . S
H1073 C1048 0.950 . S
H1074 C1050 0.950 . S
H1075 C1051 0.949 . S
H1076 C1053 0.950 . S
H1077 C1055 0.950 . S
C1078 C1079 1.349 . S
C1078 C1080 1.327 . S
C1078 H1103 0.950 . S
C1079 C1078 1.349 . S
C1079 C1095 1.349 . S
C1080 C1078 1.327 . S
C1080 C1099 1.429 . S
C1080 H1104 0.950 . S
C1081 C1098 1.574 1_565 S
C1081 C1100 1.368 . S
C1081 H1105 0.949 . S
H1082 C1086 0.949 . S
C1083 C1084 1.349 . S
C1083 C1085 1.327 . S
C1083 H1106 0.950 . S
C1084 C1083 1.349 . S
C1084 C1096 1.349 . S
C1085 C1083 1.327 . S
C1085 C1101 1.429 . S
C1085 H1107 0.950 . S
C1086 H1082 0.949 . S
C1086 C1094 1.574 1_545 S
C1086 C1102 1.368 . S
H1087 C1095 0.950 . S
H1088 C1093 0.950 . S
H1089 C1094 0.949 . S
H1090 C1096 0.950 . S
H1091 C1097 0.950 . S
H1092 C1098 0.949 . S
C1093 H1088 0.950 . S
C1093 C1095 1.327 . S
C1093 C1099 1.429 . S
C1094 C1086 1.574 1_565 S
C1094 H1089 0.949 . S
C1094 C1100 1.368 . S
C1095 C1079 1.349 . S
C1095 H1087 0.950 . S
C1095 C1093 1.327 . S
C1096 C1084 1.349 . S
C1096 H1090 0.950 . S
C1096 C1097 1.327 . S
C1097 H1091 0.950 . S
C1097 C1096 1.327 . S
C1097 C1101 1.429 . S
C1098 C1081 1.574 1_545 S
C1098 H1092 0.949 . S
C1098 C1102 1.368 . S
C1099 C1080 1.429 . S
C1099 C1093 1.429 . S
C1099 C1100 1.523 . S
C1100 C1081 1.368 . S
C1100 C1094 1.368 . S
C1100 C1099 1.523 . S
C1101 C1085 1.429 . S
C1101 C1097 1.429 . S
C1101 C1102 1.523 . S
C1102 C1086 1.368 . S
C1102 C1098 1.368 . S
C1102 C1101 1.523 . S
H1103 C1078 0.950 . S
H1104 C1080 0.950 . S
H1105 C1081 0.949 . S
H1106 C1083 0.950 . S
H1107 C1085 0.950 . S
C1108 C1109 1.349 1_554 S
C1108 C1110 1.327 . S
C1108 H1133 0.950 . S
C1109 C1108 1.349 1_556 S
C1109 C1125 1.349 . S
C1110 C1108 1.327 . S
C1110 C1129 1.429 1_554 S
C1110 H1134 0.950 . S
C1111 C1128 1.574 . S
C1111 C1130 1.393 . S
C1111 H1135 0.949 . S
H1112 C1116 0.949 . S
C1113 C1114 1.349 1_556 S
C1113 C1115 1.327 . S
C1113 H1136 0.950 . S
C1114 C1113 1.349 1_554 S
C1114 C1126 1.349 . S
C1115 C1113 1.327 . S
C1115 C1131 1.390 1_556 S
C1115 H1137 0.950 . S
C1116 H1112 0.949 . S
C1116 C1124 1.574 . S
C1116 C1132 1.383 . S
H1117 C1125 0.950 . S
H1118 C1123 0.950 . S
H1119 C1124 0.949 . S
H1120 C1126 0.950 . S
H1121 C1127 0.950 . S
H1122 C1128 0.949 . S
C1123 H1118 0.950 . S
C1123 C1125 1.327 . S
C1123 C1129 1.429 . S
C1124 C1116 1.574 . S
C1124 H1119 0.949 . S
C1124 C1130 1.343 1_554 S
C1125 C1109 1.349 . S
C1125 H1117 0.950 . S
C1125 C1123 1.327 . S
C1126 C1114 1.349 . S
C1126 H1120 0.950 . S
C1126 C1127 1.327 . S
C1127 H1121 0.950 . S
C1127 C1126 1.327 . S
C1127 C1131 1.469 . S
C1128 C1111 1.574 . S
C1128 H1122 0.949 . S
C1128 C1132 1.354 1_556 S
C1129 C1110 1.429 1_556 S
C1129 C1123 1.429 . S
C1129 C1130 1.524 . S
C1130 C1111 1.393 . S
C1130 C1124 1.343 1_556 S
C1130 C1129 1.524 . S
C1131 C1115 1.390 1_554 S
C1131 C1127 1.469 . S
C1131 C1132 1.522 . S
C1132 C1116 1.383 . S
C1132 C1128 1.354 1_554 S
C1132 C1131 1.522 . S
H1133 C1108 0.950 . S
H1134 C1110 0.950 . S
H1135 C1111 0.949 . S
H1136 C1113 0.950 . S
H1137 C1115 0.950 . S
C1138 C1139 1.349 . S
C1138 C1140 1.327 . S
C1138 H1163 0.950 . S
C1139 C1138 1.349 . S
C1139 C1155 1.349 . S
C1140 C1138 1.327 . S
C1140 C1159 1.429 . S
C1140 H1164 0.950 . S
C1141 C1158 1.574 . S
C1141 C1160 1.368 . S
C1141 H1165 0.949 . S
H1142 C1146 0.949 . S
C1143 C1144 1.349 . S
C1143 C1145 1.327 . S
C1143 H1166 0.950 . S
C1144 C1143 1.349 . S
C1144 C1156 1.349 . S
C1145 C1143 1.327 . S
C1145 C1161 1.429 . S
C1145 H1167 0.950 . S
C1146 H1142 0.949 . S
C1146 C1154 1.574 . S
C1146 C1162 1.368 . S
H1147 C1155 0.950 . S
H1148 C1153 0.950 . S
H1149 C1154 0.949 . S
H1150 C1156 0.950 . S
H1151 C1157 0.950 . S
H1152 C1158 0.949 . S
C1153 H1148 0.950 . S
C1153 C1155 1.327 . S
C1153 C1159 1.429 . S
C1154 C1146 1.574 . S
C1154 H1149 0.949 . S
C1154 C1160 1.368 . S
C1155 C1139 1.349 . S
C1155 H1147 0.950 . S
C1155 C1153 1.327 . S
C1156 C1144 1.349 . S
C1156 H1150 0.950 . S
C1156 C1157 1.327 . S
C1157 H1151 0.950 . S
C1157 C1156 1.327 . S
C1157 C1161 1.429 . S
C1158 C1141 1.574 . S
C1158 H1152 0.949 . S
C1158 C1162 1.368 . S
C1159 C1140 1.429 . S
C1159 C1153 1.429 . S
C1159 C1160 1.523 . S
C1160 C1141 1.368 . S
C1160 C1154 1.368 . S
C1160 C1159 1.523 . S
C1161 C1145 1.429 . S
C1161 C1157 1.429 . S
C1161 C1162 1.523 . S
C1162 C1146 1.368 . S
C1162 C1158 1.368 . S
C1162 C1161 1.523 . S
H1163 C1138 0.950 . S
H1164 C1140 0.950 . S
H1165 C1141 0.949 . S
H1166 C1143 0.950 . S
H1167 C1145 0.950 . S
C1168 C1169 1.349 . S
C1168 C1170 1.327 . S
C1168 H1193 0.950 . S
C1169 C1168 1.349 . S
C1169 C1185 1.349 . S
C1170 C1168 1.327 . S
C1170 C1189 1.429 . S
C1170 H1194 0.950 . S
C1171 C1188 1.574 . S
C1171 C1190 1.368 1_455 S
C1171 H1195 0.949 . S
H1172 C1176 0.949 . S
C1173 C1174 1.349 . S
C1173 C1175 1.327 . S
C1173 H1196 0.950 . S
C1174 C1173 1.349 . S
C1174 C1186 1.349 . S
C1175 C1173 1.327 . S
C1175 C1191 1.429 . S
C1175 H1197 0.950 . S
C1176 H1172 0.949 . S
C1176 C1184 1.574 . S
C1176 C1192 1.368 1_655 S
H1177 C1185 0.950 . S
H1178 C1183 0.950 . S
H1179 C1184 0.949 . S
H1180 C1186 0.950 . S
H1181 C1187 0.950 . S
H1182 C1188 0.949 . S
C1183 H1178 0.950 . S
C1183 C1185 1.327 . S
C1183 C1189 1.429 . S
C1184 C1176 1.574 . S
C1184 H1179 0.949 . S
C1184 C1190 1.368 . S
C1185 C1169 1.349 . S
C1185 H1177 0.950 . S
C1185 C1183 1.327 . S
C1186 C1174 1.349 . S
C1186 H1180 0.950 . S
C1186 C1187 1.327 . S
C1187 H1181 0.950 . S
C1187 C1186 1.327 . S
C1187 C1191 1.429 . S
C1188 C1171 1.574 . S
C1188 H1182 0.949 . S
C1188 C1192 1.368 . S
C1189 C1170 1.429 . S
C1189 C1183 1.429 . S
C1189 C1190 1.523 . S
C1190 C1171 1.368 1_655 S
C1190 C1184 1.368 . S
C1190 C1189 1.523 . S
C1191 C1175 1.429 . S
C1191 C1187 1.429 . S
C1191 C1192 1.523 . S
C1192 C1176 1.368 1_455 S
C1192 C1188 1.368 . S
C1192 C1191 1.523 . S
H1193 C1168 0.950 . S
H1194 C1170 0.950 . S
H1195 C1171 0.949 . S
H1196 C1173 0.950 . S
H1197 C1175 0.950 . S
C1198 C1199 1.349 . S
C1198 C1200 1.327 . S
C1198 H1223 0.950 . S
C1199 C1198 1.349 . S
C1199 C1215 1.349 . S
C1200 C1198 1.327 . S
C1200 C1219 1.429 . S
C1200 H1224 0.950 . S
C1201 C1218 1.574 . S
C1201 C1220 1.368 . S
C1201 H1225 0.949 . S
H1202 C1206 0.949 . S
C1203 C1204 1.349 . S
C1203 C1205 1.327 . S
C1203 H1226 0.950 . S
C1204 C1203 1.349 . S
C1204 C1216 1.349 . S
C1205 C1203 1.327 . S
C1205 C1221 1.429 . S
C1205 H1227 0.950 . S
C1206 H1202 0.949 . S
C1206 C1214 1.574 . S
C1206 C1222 1.368 . S
H1207 C1215 0.950 . S
H1208 C1213 0.950 . S
H1209 C1214 0.949 . S
H1210 C1216 0.950 . S
H1211 C1217 0.950 . S
H1212 C1218 0.949 . S
C1213 H1208 0.950 . S
C1213 C1215 1.327 . S
C1213 C1219 1.429 . S
C1214 C1206 1.574 . S
C1214 H1209 0.949 . S
C1214 C1220 1.368 . S
C1215 C1199 1.349 . S
C1215 H1207 0.950 . S
C1215 C1213 1.327 . S
C1216 C1204 1.349 . S
C1216 H1210 0.950 . S
C1216 C1217 1.327 . S
C1217 H1211 0.950 . S
C1217 C1216 1.327 . S
C1217 C1221 1.429 . S
C1218 C1201 1.574 . S
C1218 H1212 0.949 . S
C1218 C1222 1.368 . S
C1219 C1200 1.429 . S
C1219 C1213 1.429 . S
C1219 C1220 1.523 . S
C1220 C1201 1.368 . S
C1220 C1214 1.368 . S
C1220 C1219 1.523 . S
C1221 C1205 1.429 . S
C1221 C1217 1.429 . S
C1221 C1222 1.523 . S
C1222 C1206 1.368 . S
C1222 C1218 1.368 . S
C1222 C1221 1.523 . S
H1223 C1198 0.950 . S
H1224 C1200 0.950 . S
H1225 C1201 0.949 . S
H1226 C1203 0.950 . S
H1227 C1205 0.950 . S
C1228 C1229 1.349 . S
C1228 C1230 1.327 . S
C1228 H1253 0.950 . S
C1229 C1228 1.349 . S
C1229 C1245 1.349 . S
C1230 C1228 1.327 . S
C1230 C1249 1.429 . S
C1230 H1254 0.950 . S
C1231 C1248 1.574 . S
C1231 C1250 1.368 . S
C1231 H1255 0.949 . S
H1232 C1236 0.949 . S
C1233 C1234 1.349 . S
C1233 C1235 1.327 . S
C1233 H1256 0.950 . S
C1234 C1233 1.349 . S
C1234 C1246 1.349 . S
C1235 C1233 1.327 . S
C1235 C1251 1.429 . S
C1235 H1257 0.950 . S
C1236 H1232 0.949 . S
C1236 C1244 1.574 . S
C1236 C1252 1.368 . S
H1237 C1245 0.950 . S
H1238 C1243 0.950 . S
H1239 C1244 0.949 . S
H1240 C1246 0.950 . S
H1241 C1247 0.950 . S
H1242 C1248 0.949 . S
C1243 H1238 0.950 . S
C1243 C1245 1.327 . S
C1243 C1249 1.429 . S
C1244 C1236 1.574 . S
C1244 H1239 0.949 . S
C1244 C1250 1.368 . S
C1245 C1229 1.349 . S
C1245 H1237 0.950 . S
C1245 C1243 1.327 . S
C1246 C1234 1.349 . S
C1246 H1240 0.950 . S
C1246 C1247 1.327 . S
C1247 H1241 0.950 . S
C1247 C1246 1.327 . S
C1247 C1251 1.429 . S
C1248 C1231 1.574 . S
C1248 H1242 0.949 . S
C1248 C1252 1.368 . S
C1249 C1230 1.429 . S
C1249 C1243 1.429 . S
C1249 C1250 1.523 . S
C1250 C1231 1.368 . S
C1250 C1244 1.368 . S
C1250 C1249 1.523 . S
C1251 C1235 1.429 . S
C1251 C1247 1.429 . S
C1251 C1252 1.523 . S
C1252 C1236 1.368 . S
C1252 C1248 1.368 . S
C1252 C1251 1.523 . S
H1253 C1228 0.950 . S
H1254 C1230 0.950 . S
H1255 C1231 0.949 . S
H1256 C1233 0.950 . S
H1257 C1235 0.950 . S
C1258 C1259 1.349 . S
C1258 C1260 1.327 . S
C1258 H1283 0.950 . S
C1259 C1258 1.349 . S
C1259 C1275 1.349 . S
C1260 C1258 1.327 . S
C1260 C1279 1.429 . S
C1260 H1284 0.950 . S
C1261 C1278 1.574 . S
C1261 C1280 1.368 . S
C1261 H1285 0.949 . S
H1262 C1266 0.949 . S
C1263 C1264 1.349 . S
C1263 C1265 1.327 . S
C1263 H1286 0.950 . S
C1264 C1263 1.349 . S
C1264 C1276 1.349 . S
C1265 C1263 1.327 . S
C1265 C1281 1.429 . S
C1265 H1287 0.950 . S
C1266 H1262 0.949 . S
C1266 C1274 1.574 . S
C1266 C1282 1.368 . S
H1267 C1275 0.950 . S
H1268 C1273 0.950 . S
H1269 C1274 0.949 . S
H1270 C1276 0.950 . S
H1271 C1277 0.950 . S
H1272 C1278 0.949 . S
C1273 H1268 0.950 . S
C1273 C1275 1.327 . S
C1273 C1279 1.429 . S
C1274 C1266 1.574 . S
C1274 H1269 0.949 . S
C1274 C1280 1.368 . S
C1275 C1259 1.349 . S
C1275 H1267 0.950 . S
C1275 C1273 1.327 . S
C1276 C1264 1.349 . S
C1276 H1270 0.950 . S
C1276 C1277 1.327 . S
C1277 H1271 0.950 . S
C1277 C1276 1.327 . S
C1277 C1281 1.429 . S
C1278 C1261 1.574 . S
C1278 H1272 0.949 . S
C1278 C1282 1.368 . S
C1279 C1260 1.429 . S
C1279 C1273 1.429 . S
C1279 C1280 1.523 . S
C1280 C1261 1.368 . S
C1280 C1274 1.368 . S
C1280 C1279 1.523 . S
C1281 C1265 1.429 . S
C1281 C1277 1.429 . S
C1281 C1282 1.523 . S
C1282 C1266 1.368 . S
C1282 C1278 1.368 . S
C1282 C1281 1.523 . S
H1283 C1258 0.950 . S
H1284 C1260 0.950 . S
H1285 C1261 0.949 . S
H1286 C1263 0.950 . S
H1287 C1265 0.950 . S
C1288 C1289 1.349 . S
C1288 C1290 1.327 . S
C1288 H1313 0.950 . S
C1289 C1288 1.349 . S
C1289 C1305 1.349 . S
C1290 C1288 1.327 . S
C1290 C1309 1.429 . S
C1290 H1314 0.950 . S
C1291 C1308 1.574 . S
C1291 C1310 1.368 . S
C1291 H1315 0.949 . S
H1292 C1296 0.949 . S
C1293 C1294 1.349 . S
C1293 C1295 1.327 . S
C1293 H1316 0.950 . S
C1294 C1293 1.349 . S
C1294 C1306 1.349 . S
C1295 C1293 1.327 . S
C1295 C1311 1.429 . S
C1295 H1317 0.950 . S
C1296 H1292 0.949 . S
C1296 C1304 1.574 . S
C1296 C1312 1.368 . S
H1297 C1305 0.950 . S
H1298 C1303 0.950 . S
H1299 C1304 0.949 . S
H1300 C1306 0.950 . S
H1301 C1307 0.950 . S
H1302 C1308 0.949 . S
C1303 H1298 0.950 . S
C1303 C1305 1.327 . S
C1303 C1309 1.429 . S
C1304 C1296 1.574 . S
C1304 H1299 0.949 . S
C1304 C1310 1.368 . S
C1305 C1289 1.349 . S
C1305 H1297 0.950 . S
C1305 C1303 1.327 . S
C1306 C1294 1.349 . S
C1306 H1300 0.950 . S
C1306 C1307 1.327 . S
C1307 H1301 0.950 . S
C1307 C1306 1.327 . S
C1307 C1311 1.429 . S
C1308 C1291 1.574 . S
C1308 H1302 0.949 . S
C1308 C1312 1.368 . S
C1309 C1290 1.429 . S
C1309 C1303 1.429 . S
C1309 C1310 1.523 . S
C1310 C1291 1.368 . S
C1310 C1304 1.368 . S
C1310 C1309 1.523 . S
C1311 C1295 1.429 . S
C1311 C1307 1.429 . S
C1311 C1312 1.523 . S
C1312 C1296 1.368 . S
C1312 C1308 1.368 . S
C1312 C1311 1.523 . S
H1313 C1288 0.950 . S
H1314 C1290 0.950 . S
H1315 C1291 0.949 . S
H1316 C1293 0.950 . S
H1317 C1295 0.950 . S
C1318 C1319 1.349 . S
C1318 C1320 1.327 . S
C1318 H1343 0.950 . S
C1319 C1318 1.349 . S
C1319 C1335 1.349 . S
C1320 C1318 1.327 . S
C1320 C1339 1.429 . S
C1320 H1344 0.950 . S
C1321 C1338 1.574 1_545 S
C1321 C1340 1.368 . S
C1321 H1345 0.949 . S
H1322 C1326 0.949 . S
C1323 C1324 1.349 . S
C1323 C1325 1.327 . S
C1323 H1346 0.950 . S
C1324 C1323 1.349 . S
C1324 C1336 1.349 . S
C1325 C1323 1.327 . S
C1325 C1341 1.429 . S
C1325 H1347 0.950 . S
C1326 H1322 0.949 . S
C1326 C1334 1.574 1_565 S
C1326 C1342 1.368 . S
H1327 C1335 0.950 . S
H1328 C1333 0.950 . S
H1329 C1334 0.949 . S
H1330 C1336 0.950 . S
H1331 C1337 0.950 . S
H1332 C1338 0.949 . S
C1333 H1328 0.950 . S
C1333 C1335 1.327 . S
C1333 C1339 1.429 . S
C1334 C1326 1.574 1_545 S
C1334 H1329 0.949 . S
C1334 C1340 1.368 . S
C1335 C1319 1.349 . S
C1335 H1327 0.950 . S
C1335 C1333 1.327 . S
C1336 C1324 1.349 . S
C1336 H1330 0.950 . S
C1336 C1337 1.327 . S
C1337 H1331 0.950 . S
C1337 C1336 1.327 . S
C1337 C1341 1.429 . S
C1338 C1321 1.574 1_565 S
C1338 H1332 0.949 . S
C1338 C1342 1.368 . S
C1339 C1320 1.429 . S
C1339 C1333 1.429 . S
C1339 C1340 1.523 . S
C1340 C1321 1.368 . S
C1340 C1334 1.368 . S
C1340 C1339 1.523 . S
C1341 C1325 1.429 . S
C1341 C1337 1.429 . S
C1341 C1342 1.523 . S
C1342 C1326 1.368 . S
C1342 C1338 1.368 . S
C1342 C1341 1.523 . S
H1343 C1318 0.950 . S
H1344 C1320 0.950 . S
H1345 C1321 0.949 . S
H1346 C1323 0.950 . S
H1347 C1325 0.950 . S
C1348 C1349 1.349 . S
C1348 C1350 1.327 . S
C1348 H1373 0.950 . S
C1349 C1348 1.349 . S
C1349 C1365 1.349 . S
C1350 C1348 1.327 . S
C1350 C1369 1.429 . S
C1350 H1374 0.950 . S
C1351 C1368 1.574 . S
C1351 C1370 1.368 . S
C1351 H1375 0.949 . S
H1352 C1356 0.949 . S
C1353 C1354 1.349 . S
C1353 C1355 1.327 . S
C1353 H1376 0.950 . S
C1354 C1353 1.349 . S
C1354 C1366 1.349 . S
C1355 C1353 1.327 . S
C1355 C1371 1.429 . S
C1355 H1377 0.950 . S
C1356 H1352 0.949 . S
C1356 C1364 1.574 . S
C1356 C1372 1.368 . S
H1357 C1365 0.950 . S
H1358 C1363 0.950 . S
H1359 C1364 0.949 . S
H1360 C1366 0.950 . S
H1361 C1367 0.950 . S
H1362 C1368 0.949 . S
C1363 H1358 0.950 . S
C1363 C1365 1.327 . S
C1363 C1369 1.429 . S
C1364 C1356 1.574 . S
C1364 H1359 0.949 . S
C1364 C1370 1.368 . S
C1365 C1349 1.349 . S
C1365 H1357 0.950 . S
C1365 C1363 1.327 . S
C1366 C1354 1.349 . S
C1366 H1360 0.950 . S
C1366 C1367 1.327 . S
C1367 H1361 0.950 . S
C1367 C1366 1.327 . S
C1367 C1371 1.429 . S
C1368 C1351 1.574 . S
C1368 H1362 0.949 . S
C1368 C1372 1.368 . S
C1369 C1350 1.429 . S
C1369 C1363 1.429 . S
C1369 C1370 1.523 . S
C1370 C1351 1.368 . S
C1370 C1364 1.368 . S
C1370 C1369 1.523 . S
C1371 C1355 1.429 . S
C1371 C1367 1.429 . S
C1371 C1372 1.523 . S
C1372 C1356 1.368 . S
C1372 C1368 1.368 . S
C1372 C1371 1.523 . S
H1373 C1348 0.950 . S
H1374 C1350 0.950 . S
H1375 C1351 0.949 . S
H1376 C1353 0.950 . S
H1377 C1355 0.950 . S
C1378 C1379 1.349 . S
C1378 C1380 1.327 . S
C1378 H1403 0.950 . S
C1379 C1378 1.349 . S
C1379 C1395 1.349 1_556 S
C1380 C1378 1.327 . S
C1380 C1399 1.429 . S
C1380 H1404 0.950 . S
C1381 C1398 1.574 . S
C1381 C1400 1.343 1_554 S
C1381 H1405 0.949 . S
H1382 C1386 0.949 . S
C1383 C1384 1.349 . S
C1383 C1385 1.327 . S
C1383 H1406 0.950 . S
C1384 C1383 1.349 . S
C1384 C1396 1.349 1_554 S
C1385 C1383 1.327 . S
C1385 C1401 1.469 . S
C1385 H1407 0.950 . S
C1386 H1382 0.949 . S
C1386 C1394 1.574 . S
C1386 C1402 1.354 1_556 S
H1387 C1395 0.950 . S
H1388 C1393 0.950 . S
H1389 C1394 0.949 . S
H1390 C1396 0.950 . S
H1391 C1397 0.950 . S
H1392 C1398 0.949 . S
C1393 H1388 0.950 . S
C1393 C1395 1.327 . S
C1393 C1399 1.429 1_554 S
C1394 C1386 1.574 . S
C1394 H1389 0.949 . S
C1394 C1400 1.393 . S
C1395 C1379 1.349 1_554 S
C1395 H1387 0.950 . S
C1395 C1393 1.327 . S
C1396 C1384 1.349 1_556 S
C1396 H1390 0.950 . S
C1396 C1397 1.327 . S
C1397 H1391 0.950 . S
C1397 C1396 1.327 . S
C1397 C1401 1.390 1_556 S
C1398 C1381 1.574 . S
C1398 H1392 0.949 . S
C1398 C1402 1.382 . S
C1399 C1380 1.429 . S
C1399 C1393 1.429 1_556 S
C1399 C1400 1.524 . S
C1400 C1381 1.343 1_556 S
C1400 C1394 1.393 . S
C1400 C1399 1.524 . S
C1401 C1385 1.469 . S
C1401 C1397 1.390 1_554 S
C1401 C1402 1.522 . S
C1402 C1386 1.354 1_554 S
C1402 C1398 1.382 . S
C1402 C1401 1.522 . S
H1403 C1378 0.950 . S
H1404 C1380 0.950 . S
H1405 C1381 0.949 . S
H1406 C1383 0.950 . S
H1407 C1385 0.950 . S
C1408 C1409 1.349 . S
C1408 C1410 1.327 . S
C1408 H1433 0.950 . S
C1409 C1408 1.349 . S
C1409 C1425 1.349 . S
C1410 C1408 1.327 . S
C1410 C1429 1.429 . S
C1410 H1434 0.950 . S
C1411 C1428 1.574 . S
C1411 C1430 1.368 . S
C1411 H1435 0.949 . S
H1412 C1416 0.949 . S
C1413 C1414 1.349 . S
C1413 C1415 1.327 . S
C1413 H1436 0.950 . S
C1414 C1413 1.349 . S
C1414 C1426 1.349 . S
C1415 C1413 1.327 . S
C1415 C1431 1.429 . S
C1415 H1437 0.950 . S
C1416 H1412 0.949 . S
C1416 C1424 1.574 . S
C1416 C1432 1.368 . S
H1417 C1425 0.950 . S
H1418 C1423 0.950 . S
H1419 C1424 0.949 . S
H1420 C1426 0.950 . S
H1421 C1427 0.950 . S
H1422 C1428 0.949 . S
C1423 H1418 0.950 . S
C1423 C1425 1.327 . S
C1423 C1429 1.429 . S
C1424 C1416 1.574 . S
C1424 H1419 0.949 . S
C1424 C1430 1.368 . S
C1425 C1409 1.349 . S
C1425 H1417 0.950 . S
C1425 C1423 1.327 . S
C1426 C1414 1.349 . S
C1426 H1420 0.950 . S
C1426 C1427 1.327 . S
C1427 H1421 0.950 . S
C1427 C1426 1.327 . S
C1427 C1431 1.429 . S
C1428 C1411 1.574 . S
C1428 H1422 0.949 . S
C1428 C1432 1.368 . S
C1429 C1410 1.429 . S
C1429 C1423 1.429 . S
C1429 C1430 1.523 . S
C1430 C1411 1.368 . S
C1430 C1424 1.368 . S
C1430 C1429 1.523 . S
C1431 C1415 1.429 . S
C1431 C1427 1.429 . S
C1431 C1432 1.523 . S
C1432 C1416 1.368 . S
C1432 C1428 1.368 . S
C1432 C1431 1.523 . S
H1433 C1408 0.950 . S
H1434 C1410 0.950 . S
H1435 C1411 0.949 . S
H1436 C1413 0.950 . S
H1437 C1415 0.950 . S
C1438 C1439 1.349 . S
C1438 C1440 1.327 . S
C1438 H1463 0.950 . S
C1439 C1438 1.349 . S
C1439 C1455 1.349 . S
C1440 C1438 1.327 . S
C1440 C1459 1.429 . S
C1440 H1464 0.950 . S
C1441 C1458 1.574 . S
C1441 C1460 1.368 . S
C1441 H1465 0.949 . S
H1442 C1446 0.949 . S
C1443 C1444 1.349 . S
C1443 C1445 1.327 . S
C1443 H1466 0.950 . S
C1444 C1443 1.349 . S
C1444 C1456 1.349 . S
C1445 C1443 1.327 . S
C1445 C1461 1.429 . S
C1445 H1467 0.950 . S
C1446 H1442 0.949 . S
C1446 C1454 1.574 . S
C1446 C1462 1.368 . S
H1447 C1455 0.950 . S
H1448 C1453 0.950 . S
H1449 C1454 0.949 . S
H1450 C1456 0.950 . S
H1451 C1457 0.950 . S
H1452 C1458 0.949 . S
C1453 H1448 0.950 . S
C1453 C1455 1.327 . S
C1453 C1459 1.429 . S
C1454 C1446 1.574 . S
C1454 H1449 0.949 . S
C1454 C1460 1.368 . S
C1455 C1439 1.349 . S
C1455 H1447 0.950 . S
C1455 C1453 1.327 . S
C1456 C1444 1.349 . S
C1456 H1450 0.950 . S
C1456 C1457 1.327 . S
C1457 H1451 0.950 . S
C1457 C1456 1.327 . S
C1457 C1461 1.429 . S
C1458 C1441 1.574 . S
C1458 H1452 0.949 . S
C1458 C1462 1.368 . S
C1459 C1440 1.429 . S
C1459 C1453 1.429 . S
C1459 C1460 1.523 . S
C1460 C1441 1.368 . S
C1460 C1454 1.368 . S
C1460 C1459 1.523 . S
C1461 C1445 1.429 . S
C1461 C1457 1.429 . S
C1461 C1462 1.523 . S
C1462 C1446 1.368 . S
C1462 C1458 1.368 . S
C1462 C1461 1.523 . S
H1463 C1438 0.950 . S
H1464 C1440 0.950 . S
H1465 C1441 0.949 . S
H1466 C1443 0.950 . S
H1467 C1445 0.950 . S
C1468 C1469 1.349 . S
C1468 C1470 1.327 . S
C1468 H1493 0.950 . S
C1469 C1468 1.349 . S
C1469 C1485 1.349 . S
C1470 C1468 1.327 . S
C1470 C1489 1.429 . S
C1470 H1494 0.950 . S
C1471 C1488 1.574 . S
C1471 C1490 1.368 . S
C1471 H1495 0.949 . S
H1472 C1476 0.949 . S
C1473 C1474 1.349 . S
C1473 C1475 1.327 . S
C1473 H1496 0.950 . S
C1474 C1473 1.349 . S
C1474 C1486 1.349 . S
C1475 C1473 1.327 . S
C1475 C1491 1.429 . S
C1475 H1497 0.950 . S
C1476 H1472 0.949 . S
C1476 C1484 1.574 . S
C1476 C1492 1.368 . S
H1477 C1485 0.950 . S
H1478 C1483 0.950 . S
H1479 C1484 0.949 . S
H1480 C1486 0.950 . S
H1481 C1487 0.950 . S
H1482 C1488 0.949 . S
C1483 H1478 0.950 . S
C1483 C1485 1.327 . S
C1483 C1489 1.429 . S
C1484 C1476 1.574 . S
C1484 H1479 0.949 . S
C1484 C1490 1.368 . S
C1485 C1469 1.349 . S
C1485 H1477 0.950 . S
C1485 C1483 1.327 . S
C1486 C1474 1.349 . S
C1486 H1480 0.950 . S
C1486 C1487 1.327 . S
C1487 H1481 0.950 . S
C1487 C1486 1.327 . S
C1487 C1491 1.429 . S
C1488 C1471 1.574 . S
C1488 H1482 0.949 . S
C1488 C1492 1.368 . S
C1489 C1470 1.429 . S
C1489 C1483 1.429 . S
C1489 C1490 1.523 . S
C1490 C1471 1.368 . S
C1490 C1484 1.368 . S
C1490 C1489 1.523 . S
C1491 C1475 1.429 . S
C1491 C1487 1.429 . S
C1491 C1492 1.523 . S
C1492 C1476 1.368 . S
C1492 C1488 1.368 . S
C1492 C1491 1.523 . S
H1493 C1468 0.950 . S
H1494 C1470 0.950 . S
H1495 C1471 0.949 . S
H1496 C1473 0.950 . S
H1497 C1475 0.950 . S
C1498 C1499 1.349 . S
C1498 C1500 1.327 . S
C1498 H1523 0.950 . S
C1499 C1498 1.349 . S
C1499 C1515 1.349 . S
C1500 C1498 1.327 . S
C1500 C1519 1.429 . S
C1500 H1524 0.950 . S
C1501 C1518 1.574 . S
C1501 C1520 1.368 . S
C1501 H1525 0.949 . S
H1502 C1506 0.949 . S
C1503 C1504 1.349 . S
C1503 C1505 1.327 . S
C1503 H1526 0.950 . S
C1504 C1503 1.349 . S
C1504 C1516 1.349 . S
C1505 C1503 1.327 . S
C1505 C1521 1.429 . S
C1505 H1527 0.950 . S
C1506 H1502 0.949 . S
C1506 C1514 1.574 . S
C1506 C1522 1.368 . S
H1507 C1515 0.950 . S
H1508 C1513 0.950 . S
H1509 C1514 0.949 . S
H1510 C1516 0.950 . S
H1511 C1517 0.950 . S
H1512 C1518 0.949 . S
C1513 H1508 0.950 . S
C1513 C1515 1.327 . S
C1513 C1519 1.429 . S
C1514 C1506 1.574 . S
C1514 H1509 0.949 . S
C1514 C1520 1.368 . S
C1515 C1499 1.349 . S
C1515 H1507 0.950 . S
C1515 C1513 1.327 . S
C1516 C1504 1.349 . S
C1516 H1510 0.950 . S
C1516 C1517 1.327 . S
C1517 H1511 0.950 . S
C1517 C1516 1.327 . S
C1517 C1521 1.429 . S
C1518 C1501 1.574 . S
C1518 H1512 0.949 . S
C1518 C1522 1.368 . S
C1519 C1500 1.429 . S
C1519 C1513 1.429 . S
C1519 C1520 1.523 . S
C1520 C1501 1.368 . S
C1520 C1514 1.368 . S
C1520 C1519 1.523 . S
C1521 C1505 1.429 . S
C1521 C1517 1.429 . S
C1521 C1522 1.523 . S
C1522 C1506 1.368 . S
C1522 C1518 1.368 . S
C1522 C1521 1.523 . S
H1523 C1498 0.950 . S
H1524 C1500 0.950 . S
H1525 C1501 0.949 . S
H1526 C1503 0.950 . S
H1527 C1505 0.950 . S
C1528 C1529 1.349 . S
C1528 C1530 1.327 . S
C1528 H1553 0.950 . S
C1529 C1528 1.349 . S
C1529 C1545 1.349 . S
C1530 C1528 1.327 . S
C1530 C1549 1.429 . S
C1530 H1554 0.950 . S
C1531 C1548 1.574 . S
C1531 C1550 1.368 . S
C1531 H1555 0.949 . S
H1532 C1536 0.949 . S
C1533 C1534 1.349 . S
C1533 C1535 1.327 . S
C1533 H1556 0.950 . S
C1534 C1533 1.349 . S
C1534 C1546 1.349 . S
C1535 C1533 1.327 . S
C1535 C1551 1.429 . S
C1535 H1557 0.950 . S
C1536 H1532 0.949 . S
C1536 C1544 1.574 . S
C1536 C1552 1.368 . S
H1537 C1545 0.950 . S
H1538 C1543 0.950 . S
H1539 C1544 0.949 . S
H1540 C1546 0.950 . S
H1541 C1547 0.950 . S
H1542 C1548 0.949 . S
C1543 H1538 0.950 . S
C1543 C1545 1.327 . S
C1543 C1549 1.429 . S
C1544 C1536 1.574 . S
C1544 H1539 0.949 . S
C1544 C1550 1.368 . S
C1545 C1529 1.349 . S
C1545 H1537 0.950 . S
C1545 C1543 1.327 . S
C1546 C1534 1.349 . S
C1546 H1540 0.950 . S
C1546 C1547 1.327 . S
C1547 H1541 0.950 . S
C1547 C1546 1.327 . S
C1547 C1551 1.429 . S
C1548 C1531 1.574 . S
C1548 H1542 0.949 . S
C1548 C1552 1.368 . S
C1549 C1530 1.429 . S
C1549 C1543 1.429 . S
C1549 C1550 1.523 . S
C1550 C1531 1.368 . S
C1550 C1544 1.368 . S
C1550 C1549 1.523 . S
C1551 C1535 1.429 . S
C1551 C1547 1.429 . S
C1551 C1552 1.523 . S
C1552 C1536 1.368 . S
C1552 C1548 1.368 . S
C1552 C1551 1.523 . S
H1553 C1528 0.950 . S
H1554 C1530 0.950 . S
H1555 C1531 0.949 . S
H1556 C1533 0.950 . S
H1557 C1535 0.950 . S
C1558 C1559 1.349 . S
C1558 C1560 1.327 . S
C1558 H1583 0.950 . S
C1559 C1558 1.349 . S
C1559 C1575 1.349 . S
C1560 C1558 1.327 . S
C1560 C1579 1.429 . S
C1560 H1584 0.950 . S
C1561 C1578 1.574 . S
C1561 C1580 1.368 . S
C1561 H1585 0.949 . S
H1562 C1566 0.949 . S
C1563 C1564 1.349 . S
C1563 C1565 1.327 . S
C1563 H1586 0.950 . S
C1564 C1563 1.349 . S
C1564 C1576 1.349 . S
C1565 C1563 1.327 . S
C1565 C1581 1.429 . S
C1565 H1587 0.950 . S
C1566 H1562 0.949 . S
C1566 C1574 1.574 . S
C1566 C1582 1.368 . S
H1567 C1575 0.950 . S
H1568 C1573 0.950 . S
H1569 C1574 0.949 . S
H1570 C1576 0.950 . S
H1571 C1577 0.950 . S
H1572 C1578 0.949 . S
C1573 H1568 0.950 . S
C1573 C1575 1.327 . S
C1573 C1579 1.429 . S
C1574 C1566 1.574 . S
C1574 H1569 0.949 . S
C1574 C1580 1.368 . S
C1575 C1559 1.349 . S
C1575 H1567 0.950 . S
C1575 C1573 1.327 . S
C1576 C1564 1.349 . S
C1576 H1570 0.950 . S
C1576 C1577 1.327 . S
C1577 H1571 0.950 . S
C1577 C1576 1.327 . S
C1577 C1581 1.429 . S
C1578 C1561 1.574 . S
C1578 H1572 0.949 . S
C1578 C1582 1.368 . S
C1579 C1560 1.429 . S
C1579 C1573 1.429 . S
C1579 C1580 1.523 . S
C1580 C1561 1.368 . S
C1580 C1574 1.368 . S
C1580 C1579 1.523 . S
C1581 C1565 1.429 . S
C1581 C1577 1.429 . S
C1581 C1582 1.523 . S
C1582 C1566 1.368 . S
C1582 C1578 1.368 . S
C1582 C1581 1.523 . S
H1583 C1558 0.950 . S
H1584 C1560 0.950 . S
H1585 C1561 0.949 . S
H1586 C1563 0.950 . S
H1587 C1565 0.950 . S
C1588 C1589 1.349 . S
C1588 C1590 1.327 . S
C1588 H1613 0.950 . S
C1589 C1588 1.349 . S
C1589 C1605 1.349 . S
C1590 C1588 1.327 . S
C1590 C1609 1.429 . S
C1590 H1614 0.950 . S
C1591 C1608 1.574 . S
C1591 C1610 1.368 . S
C1591 H1615 0.949 . S
H1592 C1596 0.949 . S
C1593 C1594 1.349 . S
C1593 C1595 1.327 . S
C1593 H1616 0.950 . S
C1594 C1593 1.349 . S
C1594 C1606 1.349 . S
C1595 C1593 1.327 . S
C1595 C1611 1.429 . S
C1595 H1617 0.950 . S
C1596 H1592 0.949 . S
C1596 C1604 1.574 . S
C1596 C1612 1.368 . S
H1597 C1605 0.950 . S
H1598 C1603 0.950 . S
H1599 C1604 0.949 . S
H1600 C1606 0.950 . S
H1601 C1607 0.950 . S
H1602 C1608 0.949 . S
C1603 H1598 0.950 . S
C1603 C1605 1.327 . S
C1603 C1609 1.429 . S
C1604 C1596 1.574 . S
C1604 H1599 0.949 . S
C1604 C1610 1.368 . S
C1605 C1589 1.349 . S
C1605 H1597 0.950 . S
C1605 C1603 1.327 . S
C1606 C1594 1.349 . S
C1606 H1600 0.950 . S
C1606 C1607 1.327 . S
C1607 H1601 0.950 . S
C1607 C1606 1.327 . S
C1607 C1611 1.429 . S
C1608 C1591 1.574 . S
C1608 H1602 0.949 . S
C1608 C1612 1.368 . S
C1609 C1590 1.429 . S
C1609 C1603 1.429 . S
C1609 C1610 1.523 . S
C1610 C1591 1.368 . S
C1610 C1604 1.368 . S
C1610 C1609 1.523 . S
C1611 C1595 1.429 . S
C1611 C1607 1.429 . S
C1611 C1612 1.523 . S
C1612 C1596 1.368 . S
C1612 C1608 1.368 . S
C1612 C1611 1.523 . S
H1613 C1588 0.950 . S
H1614 C1590 0.950 . S
H1615 C1591 0.949 . S
H1616 C1593 0.950 . S
H1617 C1595 0.950 . S
C1618 C1619 1.349 . S
C1618 C1620 1.327 . S
C1618 H1643 0.950 . S
C1619 C1618 1.349 . S
C1619 C1635 1.349 . S
C1620 C1618 1.327 . S
C1620 C1639 1.429 . S
C1620 H1644 0.950 . S
C1621 C1638 1.574 . S
C1621 C1640 1.368 . S
C1621 H1645 0.949 . S
H1622 C1626 0.949 . S
C1623 C1624 1.349 . S
C1623 C1625 1.327 . S
C1623 H1646 0.950 . S
C1624 C1623 1.349 . S
C1624 C1636 1.349 . S
C1625 C1623 1.327 . S
C1625 C1641 1.429 . S
C1625 H1647 0.950 . S
C1626 H1622 0.949 . S
C1626 C1634 1.574 . S
C1626 C1642 1.368 . S
H1627 C1635 0.950 . S
H1628 C1633 0.950 . S
H1629 C1634 0.949 . S
H1630 C1636 0.950 . S
H1631 C1637 0.950 . S
H1632 C1638 0.949 . S
C1633 H1628 0.950 . S
C1633 C1635 1.327 . S
C1633 C1639 1.429 . S
C1634 C1626 1.574 . S
C1634 H1629 0.949 . S
C1634 C1640 1.368 . S
C1635 C1619 1.349 . S
C1635 H1627 0.950 . S
C1635 C1633 1.327 . S
C1636 C1624 1.349 . S
C1636 H1630 0.950 . S
C1636 C1637 1.327 . S
C1637 H1631 0.950 . S
C1637 C1636 1.327 . S
C1637 C1641 1.429 . S
C1638 C1621 1.574 . S
C1638 H1632 0.949 . S
C1638 C1642 1.368 . S
C1639 C1620 1.429 . S
C1639 C1633 1.429 . S
C1639 C1640 1.523 . S
C1640 C1621 1.368 . S
C1640 C1634 1.368 . S
C1640 C1639 1.523 . S
C1641 C1625 1.429 . S
C1641 C1637 1.429 . S
C1641 C1642 1.523 . S
C1642 C1626 1.368 . S
C1642 C1638 1.368 . S
C1642 C1641 1.523 . S
H1643 C1618 0.950 . S
H1644 C1620 0.950 . S
H1645 C1621 0.949 . S
H1646 C1623 0.950 . S
H1647 C1625 0.950 . S
C1648 C1649 1.349 . S
C1648 C1650 1.327 . S
C1648 H1673 0.950 . S
C1649 C1648 1.349 . S
C1649 C1665 1.349 . S
C1650 C1648 1.327 . S
C1650 C1669 1.429 . S
C1650 H1674 0.950 . S
C1651 C1668 1.574 . S
C1651 C1670 1.368 . S
C1651 H1675 0.949 . S
H1652 C1656 0.949 . S
C1653 C1654 1.349 . S
C1653 C1655 1.327 . S
C1653 H1676 0.950 . S
C1654 C1653 1.349 . S
C1654 C1666 1.349 . S
C1655 C1653 1.327 . S
C1655 C1671 1.429 . S
C1655 H1677 0.950 . S
C1656 H1652 0.949 . S
C1656 C1664 1.574 . S
C1656 C1672 1.368 . S
H1657 C1665 0.950 . S
H1658 C1663 0.950 . S
H1659 C1664 0.949 . S
H1660 C1666 0.950 . S
H1661 C1667 0.950 . S
H1662 C1668 0.949 . S
C1663 H1658 0.950 . S
C1663 C1665 1.327 . S
C1663 C1669 1.429 . S
C1664 C1656 1.574 . S
C1664 H1659 0.949 . S
C1664 C1670 1.368 . S
C1665 C1649 1.349 . S
C1665 H1657 0.950 . S
C1665 C1663 1.327 . S
C1666 C1654 1.349 . S
C1666 H1660 0.950 . S
C1666 C1667 1.327 . S
C1667 H1661 0.950 . S
C1667 C1666 1.327 . S
C1667 C1671 1.429 . S
C1668 C1651 1.574 . S
C1668 H1662 0.949 . S
C1668 C1672 1.368 . S
C1669 C1650 1.429 . S
C1669 C1663 1.429 . S
C1669 C1670 1.523 . S
C1670 C1651 1.368 . S
C1670 C1664 1.368 . S
C1670 C1669 1.523 . S
C1671 C1655 1.429 . S
C1671 C1667 1.429 . S
C1671 C1672 1.523 . S
C1672 C1656 1.368 . S
C1672 C1668 1.368 . S
C1672 C1671 1.523 . S
H1673 C1648 0.950 . S
H1674 C1650 0.950 . S
H1675 C1651 0.949 . S
H1676 C1653 0.950 . S
H1677 C1655 0.950 . S
C1678 C1679 1.349 . S
C1678 C1680 1.327 . S
C1678 H1703 0.950 . S
C1679 C1678 1.349 . S
C1679 C1695 1.349 . S
C1680 C1678 1.327 . S
C1680 C1699 1.429 . S
C1680 H1704 0.950 . S
C1681 C1698 1.574 . S
C1681 C1700 1.368 . S
C1681 H1705 0.949 . S
H1682 C1686 0.949 . S
C1683 C1684 1.349 . S
C1683 C1685 1.327 . S
C1683 H1706 0.950 . S
C1684 C1683 1.349 . S
C1684 C1696 1.349 . S
C1685 C1683 1.327 . S
C1685 C1701 1.429 . S
C1685 H1707 0.950 . S
C1686 H1682 0.949 . S
C1686 C1694 1.574 . S
C1686 C1702 1.368 . S
H1687 C1695 0.950 . S
H1688 C1693 0.950 . S
H1689 C1694 0.949 . S
H1690 C1696 0.950 . S
H1691 C1697 0.950 . S
H1692 C1698 0.949 . S
C1693 H1688 0.950 . S
C1693 C1695 1.327 . S
C1693 C1699 1.429 . S
C1694 C1686 1.574 . S
C1694 H1689 0.949 . S
C1694 C1700 1.368 . S
C1695 C1679 1.349 . S
C1695 H1687 0.950 . S
C1695 C1693 1.327 . S
C1696 C1684 1.349 . S
C1696 H1690 0.950 . S
C1696 C1697 1.327 . S
C1697 H1691 0.950 . S
C1697 C1696 1.327 . S
C1697 C1701 1.429 . S
C1698 C1681 1.574 . S
C1698 H1692 0.949 . S
C1698 C1702 1.368 . S
C1699 C1680 1.429 . S
C1699 C1693 1.429 . S
C1699 C1700 1.523 . S
C1700 C1681 1.368 . S
C1700 C1694 1.368 . S
C1700 C1699 1.523 . S
C1701 C1685 1.429 . S
C1701 C1697 1.429 . S
C1701 C1702 1.523 . S
C1702 C1686 1.368 . S
C1702 C1698 1.368 . S
C1702 C1701 1.523 . S
H1703 C1678 0.950 . S
H1704 C1680 0.950 . S
H1705 C1681 0.949 . S
H1706 C1683 0.950 . S
H1707 C1685 0.950 . S
C1708 C1709 1.349 . S
C1708 C1710 1.327 . S
C1708 H1733 0.950 . S
C1709 C1708 1.349 . S
C1709 C1725 1.349 . S
C1710 C1708 1.327 . S
C1710 C1729 1.429 . S
C1710 H1734 0.950 . S
C1711 C1728 1.574 . S
C1711 C1730 1.368 . S
C1711 H1735 0.949 . S
H1712 C1716 0.949 . S
C1713 C1714 1.349 . S
C1713 C1715 1.327 . S
C1713 H1736 0.950 . S
C1714 C1713 1.349 . S
C1714 C1726 1.349 . S
C1715 C1713 1.327 . S
C1715 C1731 1.429 . S
C1715 H1737 0.950 . S
C1716 H1712 0.949 . S
C1716 C1724 1.574 . S
C1716 C1732 1.368 . S
H1717 C1725 0.950 . S
H1718 C1723 0.950 . S
H1719 C1724 0.949 . S
H1720 C1726 0.950 . S
H1721 C1727 0.950 . S
H1722 C1728 0.949 . S
C1723 H1718 0.950 . S
C1723 C1725 1.327 . S
C1723 C1729 1.429 . S
C1724 C1716 1.574 . S
C1724 H1719 0.949 . S
C1724 C1730 1.368 . S
C1725 C1709 1.349 . S
C1725 H1717 0.950 . S
C1725 C1723 1.327 . S
C1726 C1714 1.349 . S
C1726 H1720 0.950 . S
C1726 C1727 1.327 . S
C1727 H1721 0.950 . S
C1727 C1726 1.327 . S
C1727 C1731 1.429 . S
C1728 C1711 1.574 . S
C1728 H1722 0.949 . S
C1728 C1732 1.368 . S
C1729 C1710 1.429 . S
C1729 C1723 1.429 . S
C1729 C1730 1.523 . S
C1730 C1711 1.368 . S
C1730 C1724 1.368 . S
C1730 C1729 1.523 . S
C1731 C1715 1.429 . S
C1731 C1727 1.429 . S
C1731 C1732 1.523 . S
C1732 C1716 1.368 . S
C1732 C1728 1.368 . S
C1732 C1731 1.523 . S
H1733 C1708 0.950 . S
H1734 C1710 0.950 . S
H1735 C1711 0.949 . S
H1736 C1713 0.950 . S
H1737 C1715 0.950 . S
C1738 C1739 1.349 . S
C1738 C1740 1.327 . S
C1738 H1763 0.950 . S
C1739 C1738 1.349 . S
C1739 C1755 1.349 . S
C1740 C1738 1.327 . S
C1740 C1759 1.429 . S
C1740 H1764 0.950 . S
C1741 C1758 1.574 . S
C1741 C1760 1.368 . S
C1741 H1765 0.949 . S
H1742 C1746 0.949 . S
C1743 C1744 1.349 . S
C1743 C1745 1.327 . S
C1743 H1766 0.950 . S
C1744 C1743 1.349 . S
C1744 C1756 1.349 . S
C1745 C1743 1.327 . S
C1745 C1761 1.429 . S
C1745 H1767 0.950 . S
C1746 H1742 0.949 . S
C1746 C1754 1.574 . S
C1746 C1762 1.368 . S
H1747 C1755 0.950 . S
H1748 C1753 0.950 . S
H1749 C1754 0.949 . S
H1750 C1756 0.950 . S
H1751 C1757 0.950 . S
H1752 C1758 0.949 . S
C1753 H1748 0.950 . S
C1753 C1755 1.327 . S
C1753 C1759 1.429 . S
C1754 C1746 1.574 . S
C1754 H1749 0.949 . S
C1754 C1760 1.368 . S
C1755 C1739 1.349 . S
C1755 H1747 0.950 . S
C1755 C1753 1.327 . S
C1756 C1744 1.349 . S
C1756 H1750 0.950 . S
C1756 C1757 1.327 . S
C1757 H1751 0.950 . S
C1757 C1756 1.327 . S
C1757 C1761 1.429 . S
C1758 C1741 1.574 . S
C1758 H1752 0.949 . S
C1758 C1762 1.368 . S
C1759 C1740 1.429 . S
C1759 C1753 1.429 . S
C1759 C1760 1.523 . S
C1760 C1741 1.368 . S
C1760 C1754 1.368 . S
C1760 C1759 1.523 . S
C1761 C1745 1.429 . S
C1761 C1757 1.429 . S
C1761 C1762 1.523 . S
C1762 C1746 1.368 . S
C1762 C1758 1.368 . S
C1762 C1761 1.523 . S
H1763 C1738 0.950 . S
H1764 C1740 0.950 . S
H1765 C1741 0.949 . S
H1766 C1743 0.950 . S
H1767 C1745 0.950 . S
C1768 C1769 1.349 . S
C1768 C1770 1.327 . S
C1768 H1793 0.950 . S
C1769 C1768 1.349 . S
C1769 C1785 1.349 . S
C1770 C1768 1.327 . S
C1770 C1789 1.429 . S
C1770 H1794 0.950 . S
C1771 C1788 1.574 . S
C1771 C1790 1.368 . S
C1771 H1795 0.949 . S
H1772 C1776 0.949 . S
C1773 C1774 1.349 . S
C1773 C1775 1.327 . S
C1773 H1796 0.950 . S
C1774 C1773 1.349 . S
C1774 C1786 1.349 . S
C1775 C1773 1.327 . S
C1775 C1791 1.429 . S
C1775 H1797 0.950 . S
C1776 H1772 0.949 . S
C1776 C1784 1.574 . S
C1776 C1792 1.368 . S
H1777 C1785 0.950 . S
H1778 C1783 0.950 . S
H1779 C1784 0.949 . S
H1780 C1786 0.950 . S
H1781 C1787 0.950 . S
H1782 C1788 0.949 . S
C1783 H1778 0.950 . S
C1783 C1785 1.327 . S
C1783 C1789 1.429 . S
C1784 C1776 1.574 . S
C1784 H1779 0.949 . S
C1784 C1790 1.368 . S
C1785 C1769 1.349 . S
C1785 H1777 0.950 . S
C1785 C1783 1.327 . S
C1786 C1774 1.349 . S
C1786 H1780 0.950 . S
C1786 C1787 1.327 . S
C1787 H1781 0.950 . S
C1787 C1786 1.327 . S
C1787 C1791 1.429 . S
C1788 C1771 1.574 . S
C1788 H1782 0.949 . S
C1788 C1792 1.368 . S
C1789 C1770 1.429 . S
C1789 C1783 1.429 . S
C1789 C1790 1.523 . S
C1790 C1771 1.368 . S
C1790 C1784 1.368 . S
C1790 C1789 1.523 . S
C1791 C1775 1.429 . S
C1791 C1787 1.429 . S
C1791 C1792 1.523 . S
C1792 C1776 1.368 . S
C1792 C1788 1.368 . S
C1792 C1791 1.523 . S
H1793 C1768 0.950 . S
H1794 C1770 0.950 . S
H1795 C1771 0.949 . S
H1796 C1773 0.950 . S
H1797 C1775 0.950 . S
C1798 C1799 1.349 . S
C1798 C1800 1.327 . S
C1798 H1823 0.950 . S
C1799 C1798 1.349 . S
C1799 C1815 1.349 . S
C1800 C1798 1.327 . S
C1800 C1819 1.429 . S
C1800 H1824 0.950 . S
C1801 C1818 1.574 . S
C1801 C1820 1.368 . S
C1801 H1825 0.949 . S
H1802 C1806 0.949 . S
C1803 C1804 1.349 . S
C1803 C1805 1.327 . S
C1803 H1826 0.950 . S
C1804 C1803 1.349 . S
C1804 C1816 1.349 . S
C1805 C1803 1.327 . S
C1805 C1821 1.429 . S
C1805 H1827 0.950 . S
C1806 H1802 0.949 . S
C1806 C1814 1.574 . S
C1806 C1822 1.368 . S
H1807 C1815 0.950 . S
H1808 C1813 0.950 . S
H1809 C1814 0.949 . S
H1810 C1816 0.950 . S
H1811 C1817 0.950 . S
H1812 C1818 0.949 . S
C1813 H1808 0.950 . S
C1813 C1815 1.327 . S
C1813 C1819 1.429 . S
C1814 C1806 1.574 . S
C1814 H1809 0.949 . S
C1814 C1820 1.368 . S
C1815 C1799 1.349 . S
C1815 H1807 0.950 . S
C1815 C1813 1.327 . S
C1816 C1804 1.349 . S
C1816 H1810 0.950 . S
C1816 C1817 1.327 . S
C1817 H1811 0.950 . S
C1817 C1816 1.327 . S
C1817 C1821 1.429 . S
C1818 C1801 1.574 . S
C1818 H1812 0.949 . S
C1818 C1822 1.368 . S
C1819 C1800 1.429 . S
C1819 C1813 1.429 . S
C1819 C1820 1.523 . S
C1820 C1801 1.368 . S
C1820 C1814 1.368 . S
C1820 C1819 1.523 . S
C1821 C1805 1.429 . S
C1821 C1817 1.429 . S
C1821 C1822 1.523 . S
C1822 C1806 1.368 . S
C1822 C1818 1.368 . S
C1822 C1821 1.523 . S
H1823 C1798 0.950 . S
H1824 C1800 0.950 . S
H1825 C1801 0.949 . S
H1826 C1803 0.950 . S
H1827 C1805 0.950 . S
C1828 C1829 1.349 . S
C1828 C1830 1.327 . S
C1828 H1853 0.950 . S
C1829 C1828 1.349 . S
C1829 C1845 1.349 . S
C1830 C1828 1.327 . S
C1830 C1849 1.429 . S
C1830 H1854 0.950 . S
C1831 C1848 1.574 . S
C1831 C1850 1.368 . S
C1831 H1855 0.949 . S
H1832 C1836 0.949 . S
C1833 C1834 1.349 . S
C1833 C1835 1.327 . S
C1833 H1856 0.950 . S
C1834 C1833 1.349 . S
C1834 C1846 1.349 . S
C1835 C1833 1.327 . S
C1835 C1851 1.429 . S
C1835 H1857 0.950 . S
C1836 H1832 0.949 . S
C1836 C1844 1.574 . S
C1836 C1852 1.368 . S
H1837 C1845 0.950 . S
H1838 C1843 0.950 . S
H1839 C1844 0.949 . S
H1840 C1846 0.950 . S
H1841 C1847 0.950 . S
H1842 C1848 0.949 . S
C1843 H1838 0.950 . S
C1843 C1845 1.327 . S
C1843 C1849 1.429 . S
C1844 C1836 1.574 . S
C1844 H1839 0.949 . S
C1844 C1850 1.368 . S
C1845 C1829 1.349 . S
C1845 H1837 0.950 . S
C1845 C1843 1.327 . S
C1846 C1834 1.349 . S
C1846 H1840 0.950 . S
C1846 C1847 1.327 . S
C1847 H1841 0.950 . S
C1847 C1846 1.327 . S
C1847 C1851 1.429 . S
C1848 C1831 1.574 . S
C1848 H1842 0.949 . S
C1848 C1852 1.368 . S
C1849 C1830 1.429 . S
C1849 C1843 1.429 . S
C1849 C1850 1.523 . S
C1850 C1831 1.368 . S
C1850 C1844 1.368 . S
C1850 C1849 1.523 . S
C1851 C1835 1.429 . S
C1851 C1847 1.429 . S
C1851 C1852 1.523 . S
C1852 C1836 1.368 . S
C1852 C1848 1.368 . S
C1852 C1851 1.523 . S
H1853 C1828 0.950 . S
H1854 C1830 0.950 . S
H1855 C1831 0.949 . S
H1856 C1833 0.950 . S
H1857 C1835 0.950 . S
C1858 C1859 1.349 . S
C1858 C1860 1.327 . S
C1858 H1883 0.950 . S
C1859 C1858 1.349 . S
C1859 C1875 1.349 . S
C1860 C1858 1.327 . S
C1860 C1879 1.429 . S
C1860 H1884 0.950 . S
C1861 C1878 1.574 . S
C1861 C1880 1.368 . S
C1861 H1885 0.949 . S
H1862 C1866 0.949 . S
C1863 C1864 1.349 . S
C1863 C1865 1.327 . S
C1863 H1886 0.950 . S
C1864 C1863 1.349 . S
C1864 C1876 1.349 . S
C1865 C1863 1.327 . S
C1865 C1881 1.429 . S
C1865 H1887 0.950 . S
C1866 H1862 0.949 . S
C1866 C1874 1.574 . S
C1866 C1882 1.368 . S
H1867 C1875 0.950 . S
H1868 C1873 0.950 . S
H1869 C1874 0.949 . S
H1870 C1876 0.950 . S
H1871 C1877 0.950 . S
H1872 C1878 0.949 . S
C1873 H1868 0.950 . S
C1873 C1875 1.327 . S
C1873 C1879 1.429 . S
C1874 C1866 1.574 . S
C1874 H1869 0.949 . S
C1874 C1880 1.368 . S
C1875 C1859 1.349 . S
C1875 H1867 0.950 . S
C1875 C1873 1.327 . S
C1876 C1864 1.349 . S
C1876 H1870 0.950 . S
C1876 C1877 1.327 . S
C1877 H1871 0.950 . S
C1877 C1876 1.327 . S
C1877 C1881 1.429 . S
C1878 C1861 1.574 . S
C1878 H1872 0.949 . S
C1878 C1882 1.368 . S
C1879 C1860 1.429 . S
C1879 C1873 1.429 . S
C1879 C1880 1.523 . S
C1880 C1861 1.368 . S
C1880 C1874 1.368 . S
C1880 C1879 1.523 . S
C1881 C1865 1.429 . S
C1881 C1877 1.429 . S
C1881 C1882 1.523 . S
C1882 C1866 1.368 . S
C1882 C1878 1.368 . S
C1882 C1881 1.523 . S
H1883 C1858 0.950 . S
H1884 C1860 0.950 . S
H1885 C1861 0.949 . S
H1886 C1863 0.950 . S
H1887 C1865 0.950 . S
C1888 C1889 1.349 . S
C1888 C1890 1.327 . S
C1888 H1913 0.950 . S
C1889 C1888 1.349 . S
C1889 C1905 1.349 . S
C1890 C1888 1.327 . S
C1890 C1909 1.429 . S
C1890 H1914 0.950 . S
C1891 C1908 1.574 . S
C1891 C1910 1.368 . S
C1891 H1915 0.949 . S
H1892 C1896 0.949 . S
C1893 C1894 1.349 . S
C1893 C1895 1.327 . S
C1893 H1916 0.950 . S
C1894 C1893 1.349 . S
C1894 C1906 1.349 . S
C1895 C1893 1.327 . S
C1895 C1911 1.429 . S
C1895 H1917 0.950 . S
C1896 H1892 0.949 . S
C1896 C1904 1.574 . S
C1896 C1912 1.368 . S
H1897 C1905 0.950 . S
H1898 C1903 0.950 . S
H1899 C1904 0.949 . S
H1900 C1906 0.950 . S
H1901 C1907 0.950 . S
H1902 C1908 0.949 . S
C1903 H1898 0.950 . S
C1903 C1905 1.327 . S
C1903 C1909 1.429 . S
C1904 C1896 1.574 . S
C1904 H1899 0.949 . S
C1904 C1910 1.368 . S
C1905 C1889 1.349 . S
C1905 H1897 0.950 . S
C1905 C1903 1.327 . S
C1906 C1894 1.349 . S
C1906 H1900 0.950 . S
C1906 C1907 1.327 . S
C1907 H1901 0.950 . S
C1907 C1906 1.327 . S
C1907 C1911 1.429 . S
C1908 C1891 1.574 . S
C1908 H1902 0.949 . S
C1908 C1912 1.368 . S
C1909 C1890 1.429 . S
C1909 C1903 1.429 . S
C1909 C1910 1.523 . S
C1910 C1891 1.368 . S
C1910 C1904 1.368 . S
C1910 C1909 1.523 . S
C1911 C1895 1.429 . S
C1911 C1907 1.429 . S
C1911 C1912 1.523 . S
C1912 C1896 1.368 . S
C1912 C1908 1.368 . S
C1912 C1911 1.523 . S
H1913 C1888 0.950 . S
H1914 C1890 0.950 . S
H1915 C1891 0.949 . S
H1916 C1893 0.950 . S
H1917 C1895 0.950 . S
C1918 C1919 1.349 . S
C1918 C1920 1.327 . S
C1918 H1943 0.950 . S
C1919 C1918 1.349 . S
C1919 C1935 1.349 . S
C1920 C1918 1.327 . S
C1920 C1939 1.429 . S
C1920 H1944 0.950 . S
C1921 C1938 1.574 . S
C1921 C1940 1.368 . S
C1921 H1945 0.949 . S
H1922 C1926 0.949 . S
C1923 C1924 1.349 1_655 S
C1923 C1925 1.327 . S
C1923 H1946 0.950 1_655 S
C1924 C1923 1.349 1_455 S
C1924 C1936 1.349 1_455 S
C1925 C1923 1.327 . S
C1925 C1941 1.429 . S
C1925 H1947 0.950 . S
C1926 H1922 0.949 . S
C1926 C1934 1.574 . S
C1926 C1942 1.368 . S
H1927 C1935 0.950 . S
H1928 C1933 0.950 . S
H1929 C1934 0.949 . S
H1930 C1936 0.950 1_455 S
H1931 C1937 0.950 . S
H1932 C1938 0.949 . S
C1933 H1928 0.950 . S
C1933 C1935 1.327 . S
C1933 C1939 1.429 . S
C1934 C1926 1.574 . S
C1934 H1929 0.949 . S
C1934 C1940 1.368 . S
C1935 C1919 1.349 . S
C1935 H1927 0.950 . S
C1935 C1933 1.327 . S
C1936 C1924 1.349 1_655 S
C1936 H1930 0.950 1_655 S
C1936 C1937 1.327 . S
C1937 H1931 0.950 . S
C1937 C1936 1.327 . S
C1937 C1941 1.429 . S
C1938 C1921 1.574 . S
C1938 H1932 0.949 . S
C1938 C1942 1.368 . S
C1939 C1920 1.429 . S
C1939 C1933 1.429 . S
C1939 C1940 1.523 . S
C1940 C1921 1.368 . S
C1940 C1934 1.368 . S
C1940 C1939 1.523 . S
C1941 C1925 1.429 . S
C1941 C1937 1.429 . S
C1941 C1942 1.523 . S
C1942 C1926 1.368 . S
C1942 C1938 1.368 . S
C1942 C1941 1.523 . S
H1943 C1918 0.950 . S
H1944 C1920 0.950 . S
H1945 C1921 0.949 . S
H1946 C1923 0.950 1_455 S
H1947 C1925 0.950 . S
C1948 C1949 1.350 1_554 S
C1948 C1950 1.327 . S
C1948 H1973 0.950 . S
C1949 C1948 1.350 1_556 S
C1949 C1965 1.347 . S
C1950 C1948 1.327 . S
C1950 C1969 1.430 1_554 S
C1950 H1974 0.950 . S
C1951 C1968 1.574 . S
C1951 C1970 1.367 . S
C1951 H1975 0.949 . S
H1952 C1956 0.949 . S
C1953 C1954 1.347 . S
C1953 C1955 1.327 . S
C1953 H1976 0.950 . S
C1954 C1953 1.347 . S
C1954 C1966 1.350 1_556 S
C1955 C1953 1.327 . S
C1955 C1971 1.427 . S
C1955 H1977 0.950 . S
C1956 H1952 0.949 . S
C1956 C1964 1.574 . S
C1956 C1972 1.370 1_554 S
H1957 C1965 0.950 . S
H1958 C1963 0.950 . S
H1959 C1964 0.949 . S
H1960 C1966 0.950 . S
H1961 C1967 0.950 . S
H1962 C1968 0.949 . S
C1963 H1958 0.950 . S
C1963 C1965 1.327 . S
C1963 C1969 1.427 . S
C1964 C1956 1.574 . S
C1964 H1959 0.949 . S
C1964 C1970 1.370 1_554 S
C1965 C1949 1.347 . S
C1965 H1957 0.950 . S
C1965 C1963 1.327 . S
C1966 C1954 1.350 1_554 S
C1966 H1960 0.950 . S
C1966 C1967 1.327 . S
C1967 H1961 0.950 . S
C1967 C1966 1.327 . S
C1967 C1971 1.430 1_554 S
C1968 C1951 1.574 . S
C1968 H1962 0.949 . S
C1968 C1972 1.367 . S
C1969 C1950 1.430 1_556 S
C1969 C1963 1.427 . S
C1969 C1970 1.523 . S
C1970 C1951 1.367 . S
C1970 C1964 1.370 1_556 S
C1970 C1969 1.523 . S
C1971 C1955 1.427 . S
C1971 C1967 1.430 1_556 S
C1971 C1972 1.523 . S
C1972 C1956 1.370 1_556 S
C1972 C1968 1.367 . S
C1972 C1971 1.523 . S
H1973 C1948 0.950 . S
H1974 C1950 0.950 . S
H1975 C1951 0.949 . S
H1976 C1953 0.950 . S
H1977 C1955 0.950 . S
C1978 C1979 1.347 1_655 S
C1978 C1980 1.327 . S
C1978 H2003 0.950 1_655 S
C1979 C1978 1.347 1_455 S
C1979 C1995 1.350 1_456 S
C1980 C1978 1.327 . S
C1980 C1999 1.427 . S
C1980 H2004 0.950 . S
C1981 C1998 1.574 . S
C1981 C2000 1.370 1_554 S
C1981 H2005 0.949 . S
H1982 C1986 0.949 . S
C1983 C1984 1.350 1_554 S
C1983 C1985 1.327 . S
C1983 H2006 0.950 . S
C1984 C1983 1.350 1_556 S
C1984 C1996 1.347 . S
C1985 C1983 1.327 . S
C1985 C2001 1.430 1_554 S
C1985 H2007 0.950 . S
C1986 H1982 0.949 . S
C1986 C1994 1.574 . S
C1986 C2002 1.367 . S
H1987 C1995 0.950 1_455 S
H1988 C1993 0.950 . S
H1989 C1994 0.949 . S
H1990 C1996 0.950 . S
H1991 C1997 0.950 . S
H1992 C1998 0.949 . S
C1993 H1988 0.950 . S
C1993 C1995 1.327 . S
C1993 C1999 1.430 1_554 S
C1994 C1986 1.574 . S
C1994 H1989 0.949 . S
C1994 C2000 1.367 . S
C1995 C1979 1.350 1_654 S
C1995 H1987 0.950 1_655 S
C1995 C1993 1.327 . S
C1996 C1984 1.347 . S
C1996 H1990 0.950 . S
C1996 C1997 1.327 . S
C1997 H1991 0.950 . S
C1997 C1996 1.327 . S
C1997 C2001 1.427 . S
C1998 C1981 1.574 . S
C1998 H1992 0.949 . S
C1998 C2002 1.370 1_554 S
C1999 C1980 1.427 . S
C1999 C1993 1.430 1_556 S
C1999 C2000 1.523 . S
C2000 C1981 1.370 1_556 S
C2000 C1994 1.367 . S
C2000 C1999 1.523 . S
C2001 C1985 1.430 1_556 S
C2001 C1997 1.427 . S
C2001 C2002 1.523 . S
C2002 C1986 1.367 . S
C2002 C1998 1.370 1_556 S
C2002 C2001 1.523 . S
H2003 C1978 0.950 1_455 S
H2004 C1980 0.950 . S
H2005 C1981 0.949 . S
H2006 C1983 0.950 . S
H2007 C1985 0.950 . S
C2008 C2009 1.349 . S
C2008 C2010 1.327 . S
C2008 H2033 0.950 . S
C2009 C2008 1.349 . S
C2009 C2025 1.349 . S
C2010 C2008 1.327 . S
C2010 C2029 1.429 . S
C2010 H2034 0.950 . S
C2011 C2028 1.574 . S
C2011 C2030 1.368 . S
C2011 H2035 0.949 . S
H2012 C2016 0.949 . S
C2013 C2014 1.349 . S
C2013 C2015 1.327 . S
C2013 H2036 0.950 . S
C2014 C2013 1.349 . S
C2014 C2026 1.349 . S
C2015 C2013 1.327 . S
C2015 C2031 1.429 . S
C2015 H2037 0.950 . S
C2016 H2012 0.949 . S
C2016 C2024 1.574 . S
C2016 C2032 1.368 . S
H2017 C2025 0.950 . S
H2018 C2023 0.950 . S
H2019 C2024 0.949 . S
H2020 C2026 0.950 . S
H2021 C2027 0.950 . S
H2022 C2028 0.949 . S
C2023 H2018 0.950 . S
C2023 C2025 1.327 . S
C2023 C2029 1.429 . S
C2024 C2016 1.574 . S
C2024 H2019 0.949 . S
C2024 C2030 1.368 . S
C2025 C2009 1.349 . S
C2025 H2017 0.950 . S
C2025 C2023 1.327 . S
C2026 C2014 1.349 . S
C2026 H2020 0.950 . S
C2026 C2027 1.327 . S
C2027 H2021 0.950 . S
C2027 C2026 1.327 . S
C2027 C2031 1.429 . S
C2028 C2011 1.574 . S
C2028 H2022 0.949 . S
C2028 C2032 1.368 . S
C2029 C2010 1.429 . S
C2029 C2023 1.429 . S
C2029 C2030 1.523 . S
C2030 C2011 1.368 . S
C2030 C2024 1.368 . S
C2030 C2029 1.523 . S
C2031 C2015 1.429 . S
C2031 C2027 1.429 . S
C2031 C2032 1.523 . S
C2032 C2016 1.368 . S
C2032 C2028 1.368 . S
C2032 C2031 1.523 . S
H2033 C2008 0.950 . S
H2034 C2010 0.950 . S
H2035 C2011 0.949 . S
H2036 C2013 0.950 . S
H2037 C2015 0.950 . S
C2038 C2039 1.349 1_455 S
C2038 C2040 1.327 . S
C2038 H2063 0.950 1_455 S
C2039 C2038 1.349 1_655 S
C2039 C2055 1.349 1_655 S
C2040 C2038 1.327 . S
C2040 C2059 1.429 . S
C2040 H2064 0.950 . S
C2041 C2058 1.574 . S
C2041 C2060 1.368 . S
C2041 H2065 0.949 . S
H2042 C2046 0.949 . S
C2043 C2044 1.349 . S
C2043 C2045 1.327 . S
C2043 H2066 0.950 . S
C2044 C2043 1.349 . S
C2044 C2056 1.349 . S
C2045 C2043 1.327 . S
C2045 C2061 1.429 . S
C2045 H2067 0.950 . S
C2046 H2042 0.949 . S
C2046 C2054 1.574 . S
C2046 C2062 1.368 . S
H2047 C2055 0.950 1_655 S
H2048 C2053 0.950 . S
H2049 C2054 0.949 . S
H2050 C2056 0.950 . S
H2051 C2057 0.950 . S
H2052 C2058 0.949 . S
C2053 H2048 0.950 . S
C2053 C2055 1.327 . S
C2053 C2059 1.429 . S
C2054 C2046 1.574 . S
C2054 H2049 0.949 . S
C2054 C2060 1.368 . S
C2055 C2039 1.349 1_455 S
C2055 H2047 0.950 1_455 S
C2055 C2053 1.327 . S
C2056 C2044 1.349 . S
C2056 H2050 0.950 . S
C2056 C2057 1.327 . S
C2057 H2051 0.950 . S
C2057 C2056 1.327 . S
C2057 C2061 1.429 . S
C2058 C2041 1.574 . S
C2058 H2052 0.949 . S
C2058 C2062 1.368 . S
C2059 C2040 1.429 . S
C2059 C2053 1.429 . S
C2059 C2060 1.523 . S
C2060 C2041 1.368 . S
C2060 C2054 1.368 . S
C2060 C2059 1.523 . S
C2061 C2045 1.429 . S
C2061 C2057 1.429 . S
C2061 C2062 1.523 . S
C2062 C2046 1.368 . S
C2062 C2058 1.368 . S
C2062 C2061 1.523 . S
H2063 C2038 0.950 1_655 S
H2064 C2040 0.950 . S
H2065 C2041 0.949 . S
H2066 C2043 0.950 . S
H2067 C2045 0.950 . S
C2068 C2069 1.350 1_556 S
C2068 C2070 1.327 . S
C2068 H2093 0.950 . S
C2069 C2068 1.350 1_554 S
C2069 C2085 1.347 . S
C2070 C2068 1.327 . S
C2070 C2089 1.430 1_556 S
C2070 H2094 0.950 . S
C2071 C2088 1.574 . S
C2071 C2090 1.367 . S
C2071 H2095 0.949 . S
H2072 C2076 0.949 . S
C2073 C2074 1.347 . S
C2073 C2075 1.327 . S
C2073 H2096 0.950 . S
C2074 C2073 1.347 . S
C2074 C2086 1.350 1_554 S
C2075 C2073 1.327 . S
C2075 C2091 1.427 . S
C2075 H2097 0.950 . S
C2076 H2072 0.949 . S
C2076 C2084 1.574 . S
C2076 C2092 1.370 1_556 S
H2077 C2085 0.950 . S
H2078 C2083 0.950 . S
H2079 C2084 0.949 . S
H2080 C2086 0.950 . S
H2081 C2087 0.950 . S
H2082 C2088 0.949 . S
C2083 H2078 0.950 . S
C2083 C2085 1.327 . S
C2083 C2089 1.427 . S
C2084 C2076 1.574 . S
C2084 H2079 0.949 . S
C2084 C2090 1.370 1_556 S
C2085 C2069 1.347 . S
C2085 H2077 0.950 . S
C2085 C2083 1.327 . S
C2086 C2074 1.350 1_556 S
C2086 H2080 0.950 . S
C2086 C2087 1.327 . S
C2087 H2081 0.950 . S
C2087 C2086 1.327 . S
C2087 C2091 1.430 1_556 S
C2088 C2071 1.574 . S
C2088 H2082 0.949 . S
C2088 C2092 1.367 . S
C2089 C2070 1.430 1_554 S
C2089 C2083 1.427 . S
C2089 C2090 1.523 . S
C2090 C2071 1.367 . S
C2090 C2084 1.370 1_554 S
C2090 C2089 1.523 . S
C2091 C2075 1.427 . S
C2091 C2087 1.430 1_554 S
C2091 C2092 1.523 . S
C2092 C2076 1.370 1_554 S
C2092 C2088 1.367 . S
C2092 C2091 1.523 . S
H2093 C2068 0.950 . S
H2094 C2070 0.950 . S
H2095 C2071 0.949 . S
H2096 C2073 0.950 . S
H2097 C2075 0.950 . S
C2098 C2099 1.350 1_556 S
C2098 C2100 1.327 . S
C2098 H2123 0.950 . S
C2099 C2098 1.350 1_554 S
C2099 C2115 1.347 . S
C2100 C2098 1.327 . S
C2100 C2119 1.430 1_556 S
C2100 H2124 0.950 . S
C2101 C2118 1.574 . S
C2101 C2120 1.367 . S
C2101 H2125 0.949 . S
H2102 C2106 0.949 . S
C2103 C2104 1.347 1_455 S
C2103 C2105 1.327 . S
C2103 H2126 0.950 1_455 S
C2104 C2103 1.347 1_655 S
C2104 C2116 1.350 1_654 S
C2105 C2103 1.327 . S
C2105 C2121 1.427 . S
C2105 H2127 0.950 . S
C2106 H2102 0.949 . S
C2106 C2114 1.574 . S
C2106 C2122 1.370 1_556 S
H2107 C2115 0.950 . S
H2108 C2113 0.950 . S
H2109 C2114 0.949 . S
H2110 C2116 0.950 1_655 S
H2111 C2117 0.950 . S
H2112 C2118 0.949 . S
C2113 H2108 0.950 . S
C2113 C2115 1.327 . S
C2113 C2119 1.427 . S
C2114 C2106 1.574 . S
C2114 H2109 0.949 . S
C2114 C2120 1.370 1_556 S
C2115 C2099 1.347 . S
C2115 H2107 0.950 . S
C2115 C2113 1.327 . S
C2116 C2104 1.350 1_456 S
C2116 H2110 0.950 1_455 S
C2116 C2117 1.327 . S
C2117 H2111 0.950 . S
C2117 C2116 1.327 . S
C2117 C2121 1.430 1_556 S
C2118 C2101 1.574 . S
C2118 H2112 0.949 . S
C2118 C2122 1.367 . S
C2119 C2100 1.430 1_554 S
C2119 C2113 1.427 . S
C2119 C2120 1.523 . S
C2120 C2101 1.367 . S
C2120 C2114 1.370 1_554 S
C2120 C2119 1.523 . S
C2121 C2105 1.427 . S
C2121 C2117 1.430 1_554 S
C2121 C2122 1.523 . S
C2122 C2106 1.370 1_554 S
C2122 C2118 1.367 . S
C2122 C2121 1.523 . S
H2123 C2098 0.950 . S
H2124 C2100 0.950 . S
H2125 C2101 0.949 . S
H2126 C2103 0.950 1_655 S
H2127 C2105 0.950 . S
C2128 C2129 1.349 . S
C2128 C2130 1.327 . S
C2128 H2153 0.950 . S
C2129 C2128 1.349 . S
C2129 C2145 1.349 . S
C2130 C2128 1.327 . S
C2130 C2149 1.429 . S
C2130 H2154 0.950 . S
C2131 C2148 1.574 . S
C2131 C2150 1.368 . S
C2131 H2155 0.949 . S
H2132 C2136 0.949 . S
C2133 C2134 1.349 . S
C2133 C2135 1.327 . S
C2133 H2156 0.950 . S
C2134 C2133 1.349 . S
C2134 C2146 1.349 . S
C2135 C2133 1.327 . S
C2135 C2151 1.429 . S
C2135 H2157 0.950 . S
C2136 H2132 0.949 . S
C2136 C2144 1.574 . S
C2136 C2152 1.368 . S
H2137 C2145 0.950 . S
H2138 C2143 0.950 . S
H2139 C2144 0.949 . S
H2140 C2146 0.950 . S
H2141 C2147 0.950 . S
H2142 C2148 0.949 . S
C2143 H2138 0.950 . S
C2143 C2145 1.327 . S
C2143 C2149 1.429 . S
C2144 C2136 1.574 . S
C2144 H2139 0.949 . S
C2144 C2150 1.368 . S
C2145 C2129 1.349 . S
C2145 H2137 0.950 . S
C2145 C2143 1.327 . S
C2146 C2134 1.349 . S
C2146 H2140 0.950 . S
C2146 C2147 1.327 . S
C2147 H2141 0.950 . S
C2147 C2146 1.327 . S
C2147 C2151 1.429 . S
C2148 C2131 1.574 . S
C2148 H2142 0.949 . S
C2148 C2152 1.368 . S
C2149 C2130 1.429 . S
C2149 C2143 1.429 . S
C2149 C2150 1.523 . S
C2150 C2131 1.368 . S
C2150 C2144 1.368 . S
C2150 C2149 1.523 . S
C2151 C2135 1.429 . S
C2151 C2147 1.429 . S
C2151 C2152 1.523 . S
C2152 C2136 1.368 . S
C2152 C2148 1.368 . S
C2152 C2151 1.523 . S
H2153 C2128 0.950 . S
H2154 C2130 0.950 . S
H2155 C2131 0.949 . S
H2156 C2133 0.950 . S
H2157 C2135 0.950 . S
C2158 C2159 1.349 . S
C2158 C2160 1.327 . S
C2158 H2183 0.950 . S
C2159 C2158 1.349 . S
C2159 C2175 1.349 . S
C2160 C2158 1.327 . S
C2160 C2179 1.429 . S
C2160 H2184 0.950 . S
C2161 C2178 1.574 . S
C2161 C2180 1.368 . S
C2161 H2185 0.949 . S
H2162 C2166 0.949 . S
C2163 C2164 1.349 1_655 S
C2163 C2165 1.327 . S
C2163 H2186 0.950 1_655 S
C2164 C2163 1.349 1_455 S
C2164 C2176 1.349 1_455 S
C2165 C2163 1.327 . S
C2165 C2181 1.429 . S
C2165 H2187 0.950 . S
C2166 H2162 0.949 . S
C2166 C2174 1.574 . S
C2166 C2182 1.368 . S
H2167 C2175 0.950 . S
H2168 C2173 0.950 . S
H2169 C2174 0.949 . S
H2170 C2176 0.950 1_455 S
H2171 C2177 0.950 . S
H2172 C2178 0.949 . S
C2173 H2168 0.950 . S
C2173 C2175 1.327 . S
C2173 C2179 1.429 . S
C2174 C2166 1.574 . S
C2174 H2169 0.949 . S
C2174 C2180 1.368 . S
C2175 C2159 1.349 . S
C2175 H2167 0.950 . S
C2175 C2173 1.327 . S
C2176 C2164 1.349 1_655 S
C2176 H2170 0.950 1_655 S
C2176 C2177 1.327 . S
C2177 H2171 0.950 . S
C2177 C2176 1.327 . S
C2177 C2181 1.429 . S
C2178 C2161 1.574 . S
C2178 H2172 0.949 . S
C2178 C2182 1.368 . S
C2179 C2160 1.429 . S
C2179 C2173 1.429 . S
C2179 C2180 1.523 . S
C2180 C2161 1.368 . S
C2180 C2174 1.368 . S
C2180 C2179 1.523 . S
C2181 C2165 1.429 . S
C2181 C2177 1.429 . S
C2181 C2182 1.523 . S
C2182 C2166 1.368 . S
C2182 C2178 1.368 . S
C2182 C2181 1.523 . S
H2183 C2158 0.950 . S
H2184 C2160 0.950 . S
H2185 C2161 0.949 . S
H2186 C2163 0.950 1_455 S
H2187 C2165 0.950 . S
C2188 C2189 1.349 . S
C2188 C2190 1.327 . S
C2188 H2213 0.950 . S
C2189 C2188 1.349 . S
C2189 C2205 1.349 . S
C2190 C2188 1.327 . S
C2190 C2209 1.429 . S
C2190 H2214 0.950 . S
C2191 C2208 1.574 . S
C2191 C2210 1.368 . S
C2191 H2215 0.949 . S
H2192 C2196 0.949 . S
C2193 C2194 1.349 . S
C2193 C2195 1.327 . S
C2193 H2216 0.950 . S
C2194 C2193 1.349 . S
C2194 C2206 1.349 . S
C2195 C2193 1.327 . S
C2195 C2211 1.429 . S
C2195 H2217 0.950 . S
C2196 H2192 0.949 . S
C2196 C2204 1.574 . S
C2196 C2212 1.368 . S
H2197 C2205 0.950 . S
H2198 C2203 0.950 . S
H2199 C2204 0.949 . S
H2200 C2206 0.950 . S
H2201 C2207 0.950 . S
H2202 C2208 0.949 . S
C2203 H2198 0.950 . S
C2203 C2205 1.327 . S
C2203 C2209 1.429 . S
C2204 C2196 1.574 . S
C2204 H2199 0.949 . S
C2204 C2210 1.368 . S
C2205 C2189 1.349 . S
C2205 H2197 0.950 . S
C2205 C2203 1.327 . S
C2206 C2194 1.349 . S
C2206 H2200 0.950 . S
C2206 C2207 1.327 . S
C2207 H2201 0.950 . S
C2207 C2206 1.327 . S
C2207 C2211 1.429 . S
C2208 C2191 1.574 . S
C2208 H2202 0.949 . S
C2208 C2212 1.368 . S
C2209 C2190 1.429 . S
C2209 C2203 1.429 . S
C2209 C2210 1.523 . S
C2210 C2191 1.368 . S
C2210 C2204 1.368 . S
C2210 C2209 1.523 . S
C2211 C2195 1.429 . S
C2211 C2207 1.429 . S
C2211 C2212 1.523 . S
C2212 C2196 1.368 . S
C2212 C2208 1.368 . S
C2212 C2211 1.523 . S
H2213 C2188 0.950 . S
H2214 C2190 0.950 . S
H2215 C2191 0.949 . S
H2216 C2193 0.950 . S
H2217 C2195 0.950 . S
C2218 C2219 1.349 1_655 S
C2218 C2220 1.327 . S
C2218 H2243 0.950 1_655 S
C2219 C2218 1.349 1_455 S
C2219 C2235 1.349 1_455 S
C2220 C2218 1.327 . S
C2220 C2239 1.429 . S
C2220 H2244 0.950 . S
C2221 C2238 1.574 . S
C2221 C2240 1.368 . S
C2221 H2245 0.949 . S
H2222 C2226 0.949 . S
C2223 C2224 1.349 . S
C2223 C2225 1.327 . S
C2223 H2246 0.950 . S
C2224 C2223 1.349 . S
C2224 C2236 1.349 . S
C2225 C2223 1.327 . S
C2225 C2241 1.429 . S
C2225 H2247 0.950 . S
C2226 H2222 0.949 . S
C2226 C2234 1.574 . S
C2226 C2242 1.368 . S
H2227 C2235 0.950 1_455 S
H2228 C2233 0.950 . S
H2229 C2234 0.949 . S
H2230 C2236 0.950 . S
H2231 C2237 0.950 . S
H2232 C2238 0.949 . S
C2233 H2228 0.950 . S
C2233 C2235 1.327 . S
C2233 C2239 1.429 . S
C2234 C2226 1.574 . S
C2234 H2229 0.949 . S
C2234 C2240 1.368 . S
C2235 C2219 1.349 1_655 S
C2235 H2227 0.950 1_655 S
C2235 C2233 1.327 . S
C2236 C2224 1.349 . S
C2236 H2230 0.950 . S
C2236 C2237 1.327 . S
C2237 H2231 0.950 . S
C2237 C2236 1.327 . S
C2237 C2241 1.429 . S
C2238 C2221 1.574 . S
C2238 H2232 0.949 . S
C2238 C2242 1.368 . S
C2239 C2220 1.429 . S
C2239 C2233 1.429 . S
C2239 C2240 1.523 . S
C2240 C2221 1.368 . S
C2240 C2234 1.368 . S
C2240 C2239 1.523 . S
C2241 C2225 1.429 . S
C2241 C2237 1.429 . S
C2241 C2242 1.523 . S
C2242 C2226 1.368 . S
C2242 C2238 1.368 . S
C2242 C2241 1.523 . S
H2243 C2218 0.950 1_455 S
H2244 C2220 0.950 . S
H2245 C2221 0.949 . S
H2246 C2223 0.950 . S
H2247 C2225 0.950 . S
C2248 C2249 1.349 . S
C2248 C2250 1.327 . S
C2248 H2273 0.950 . S
C2249 C2248 1.349 . S
C2249 C2265 1.349 . S
C2250 C2248 1.327 . S
C2250 C2269 1.429 . S
C2250 H2274 0.950 . S
C2251 C2268 1.574 . S
C2251 C2270 1.368 . S
C2251 H2275 0.949 . S
H2252 C2256 0.949 . S
C2253 C2254 1.349 . S
C2253 C2255 1.327 . S
C2253 H2276 0.950 . S
C2254 C2253 1.349 . S
C2254 C2266 1.349 . S
C2255 C2253 1.327 . S
C2255 C2271 1.429 . S
C2255 H2277 0.950 . S
C2256 H2252 0.949 . S
C2256 C2264 1.574 . S
C2256 C2272 1.368 . S
H2257 C2265 0.950 . S
H2258 C2263 0.950 . S
H2259 C2264 0.949 . S
H2260 C2266 0.950 . S
H2261 C2267 0.950 . S
H2262 C2268 0.949 . S
C2263 H2258 0.950 . S
C2263 C2265 1.327 . S
C2263 C2269 1.429 . S
C2264 C2256 1.574 . S
C2264 H2259 0.949 . S
C2264 C2270 1.368 . S
C2265 C2249 1.349 . S
C2265 H2257 0.950 . S
C2265 C2263 1.327 . S
C2266 C2254 1.349 . S
C2266 H2260 0.950 . S
C2266 C2267 1.327 . S
C2267 H2261 0.950 . S
C2267 C2266 1.327 . S
C2267 C2271 1.429 . S
C2268 C2251 1.574 . S
C2268 H2262 0.949 . S
C2268 C2272 1.368 . S
C2269 C2250 1.429 . S
C2269 C2263 1.429 . S
C2269 C2270 1.523 . S
C2270 C2251 1.368 . S
C2270 C2264 1.368 . S
C2270 C2269 1.523 . S
C2271 C2255 1.429 . S
C2271 C2267 1.429 . S
C2271 C2272 1.523 . S
C2272 C2256 1.368 . S
C2272 C2268 1.368 . S
C2272 C2271 1.523 . S
H2273 C2248 0.950 . S
H2274 C2250 0.950 . S
H2275 C2251 0.949 . S
H2276 C2253 0.950 . S
H2277 C2255 0.950 . S
C2278 C2279 1.349 1_455 S
C2278 C2280 1.327 . S
C2278 H2303 0.950 1_455 S
C2279 C2278 1.349 1_655 S
C2279 C2295 1.349 1_655 S
C2280 C2278 1.327 . S
C2280 C2299 1.429 . S
C2280 H2304 0.950 . S
C2281 C2298 1.574 . S
C2281 C2300 1.368 . S
C2281 H2305 0.949 . S
H2282 C2286 0.949 . S
C2283 C2284 1.349 . S
C2283 C2285 1.327 . S
C2283 H2306 0.950 . S
C2284 C2283 1.349 . S
C2284 C2296 1.349 . S
C2285 C2283 1.327 . S
C2285 C2301 1.429 . S
C2285 H2307 0.950 . S
C2286 H2282 0.949 . S
C2286 C2294 1.574 . S
C2286 C2302 1.368 . S
H2287 C2295 0.950 1_655 S
H2288 C2293 0.950 . S
H2289 C2294 0.949 . S
H2290 C2296 0.950 . S
H2291 C2297 0.950 . S
H2292 C2298 0.949 . S
C2293 H2288 0.950 . S
C2293 C2295 1.327 . S
C2293 C2299 1.429 . S
C2294 C2286 1.574 . S
C2294 H2289 0.949 . S
C2294 C2300 1.368 . S
C2295 C2279 1.349 1_455 S
C2295 H2287 0.950 1_455 S
C2295 C2293 1.327 . S
C2296 C2284 1.349 . S
C2296 H2290 0.950 . S
C2296 C2297 1.327 . S
C2297 H2291 0.950 . S
C2297 C2296 1.327 . S
C2297 C2301 1.429 . S
C2298 C2281 1.574 . S
C2298 H2292 0.949 . S
C2298 C2302 1.368 . S
C2299 C2280 1.429 . S
C2299 C2293 1.429 . S
C2299 C2300 1.523 . S
C2300 C2281 1.368 . S
C2300 C2294 1.368 . S
C2300 C2299 1.523 . S
C2301 C2285 1.429 . S
C2301 C2297 1.429 . S
C2301 C2302 1.523 . S
C2302 C2286 1.368 . S
C2302 C2298 1.368 . S
C2302 C2301 1.523 . S
H2303 C2278 0.950 1_655 S
H2304 C2280 0.950 . S
H2305 C2281 0.949 . S
H2306 C2283 0.950 . S
H2307 C2285 0.950 . S
C2308 C2309 1.349 . S
C2308 C2310 1.327 . S
C2308 H2333 0.950 . S
C2309 C2308 1.349 . S
C2309 C2325 1.349 . S
C2310 C2308 1.327 . S
C2310 C2329 1.429 . S
C2310 H2334 0.950 . S
C2311 C2328 1.574 . S
C2311 C2330 1.368 . S
C2311 H2335 0.949 . S
H2312 C2316 0.949 . S
C2313 C2314 1.349 . S
C2313 C2315 1.327 . S
C2313 H2336 0.950 . S
C2314 C2313 1.349 . S
C2314 C2326 1.349 . S
C2315 C2313 1.327 . S
C2315 C2331 1.429 . S
C2315 H2337 0.950 . S
C2316 H2312 0.949 . S
C2316 C2324 1.574 . S
C2316 C2332 1.368 . S
H2317 C2325 0.950 . S
H2318 C2323 0.950 . S
H2319 C2324 0.949 . S
H2320 C2326 0.950 . S
H2321 C2327 0.950 . S
H2322 C2328 0.949 . S
C2323 H2318 0.950 . S
C2323 C2325 1.327 . S
C2323 C2329 1.429 . S
C2324 C2316 1.574 . S
C2324 H2319 0.949 . S
C2324 C2330 1.368 . S
C2325 C2309 1.349 . S
C2325 H2317 0.950 . S
C2325 C2323 1.327 . S
C2326 C2314 1.349 . S
C2326 H2320 0.950 . S
C2326 C2327 1.327 . S
C2327 H2321 0.950 . S
C2327 C2326 1.327 . S
C2327 C2331 1.429 . S
C2328 C2311 1.574 . S
C2328 H2322 0.949 . S
C2328 C2332 1.368 . S
C2329 C2310 1.429 . S
C2329 C2323 1.429 . S
C2329 C2330 1.523 . S
C2330 C2311 1.368 . S
C2330 C2324 1.368 . S
C2330 C2329 1.523 . S
C2331 C2315 1.429 . S
C2331 C2327 1.429 . S
C2331 C2332 1.523 . S
C2332 C2316 1.368 . S
C2332 C2328 1.368 . S
C2332 C2331 1.523 . S
H2333 C2308 0.950 . S
H2334 C2310 0.950 . S
H2335 C2311 0.949 . S
H2336 C2313 0.950 . S
H2337 C2315 0.950 . S
C2338 C2339 1.349 1_455 S
C2338 C2340 1.327 . S
C2338 H2363 0.950 1_455 S
C2339 C2338 1.349 1_655 S
C2339 C2355 1.349 1_655 S
C2340 C2338 1.327 . S
C2340 C2359 1.429 . S
C2340 H2364 0.950 . S
C2341 C2358 1.574 . S
C2341 C2360 1.368 . S
C2341 H2365 0.949 . S
H2342 C2346 0.949 . S
C2343 C2344 1.349 . S
C2343 C2345 1.327 . S
C2343 H2366 0.950 . S
C2344 C2343 1.349 . S
C2344 C2356 1.349 . S
C2345 C2343 1.327 . S
C2345 C2361 1.429 . S
C2345 H2367 0.950 . S
C2346 H2342 0.949 . S
C2346 C2354 1.574 . S
C2346 C2362 1.368 . S
H2347 C2355 0.950 1_655 S
H2348 C2353 0.950 . S
H2349 C2354 0.949 . S
H2350 C2356 0.950 . S
H2351 C2357 0.950 . S
H2352 C2358 0.949 . S
C2353 H2348 0.950 . S
C2353 C2355 1.327 . S
C2353 C2359 1.429 . S
C2354 C2346 1.574 . S
C2354 H2349 0.949 . S
C2354 C2360 1.368 . S
C2355 C2339 1.349 1_455 S
C2355 H2347 0.950 1_455 S
C2355 C2353 1.327 . S
C2356 C2344 1.349 . S
C2356 H2350 0.950 . S
C2356 C2357 1.327 . S
C2357 H2351 0.950 . S
C2357 C2356 1.327 . S
C2357 C2361 1.429 . S
C2358 C2341 1.574 . S
C2358 H2352 0.949 . S
C2358 C2362 1.368 . S
C2359 C2340 1.429 . S
C2359 C2353 1.429 . S
C2359 C2360 1.523 . S
C2360 C2341 1.368 . S
C2360 C2354 1.368 . S
C2360 C2359 1.523 . S
C2361 C2345 1.429 . S
C2361 C2357 1.429 . S
C2361 C2362 1.523 . S
C2362 C2346 1.368 . S
C2362 C2358 1.368 . S
C2362 C2361 1.523 . S
H2363 C2338 0.950 1_655 S
H2364 C2340 0.950 . S
H2365 C2341 0.949 . S
H2366 C2343 0.950 . S
H2367 C2345 0.950 . S
C449 C7 0.984 . S
C454 C49 0.991 . S
C479 C35 0.985 . S
C484 C21 0.991 . S
C509 C63 0.984 . S
C514 C105 0.991 . S
C539 C91 0.985 . S
C544 C77 0.991 . S
C569 C119 0.961 . S
C574 C161 0.961 . S
C599 C147 0.961 . S
C604 C133 0.961 . S
C629 C175 0.961 . S
C634 C217 0.961 . S
C659 C189 0.961 . S
C664 C203 0.961 . S
C689 C273 0.961 . S
C694 C231 0.961 . S
C719 C245 0.961 . S
C724 C259 0.961 . S
C749 C287 0.961 . S
C754 C329 0.961 . S
C779 C315 0.961 . S
C784 C301 0.961 . S
C809 C343 0.984 . S
C814 C385 0.991 . S
C839 C371 0.985 . S
C844 C357 0.991 . S
C869 C399 0.984 . S
C874 C441 0.991 . S
C899 C413 0.984 . S
C904 C427 0.991 . S
C929 C176 1.532 . S
C934 C8 1.532 . S
C959 C22 1.532 . S
C964 C302 1.532 . S
C989 C36 1.516 . S
C994 C92 1.517 . S
C1019 C442 1.516 . S
C1024 C50 1.517 . S
C1049 C64 1.532 . S
C1054 C120 1.532 . S
C1079 C246 1.532 . S
C1084 C78 1.532 . S
C1109 C386 1.516 . S
C1114 C106 1.517 . S
C1139 C414 1.532 . S
C1144 C134 1.532 . S
C1169 C204 1.518 . S
C1174 C148 1.518 . S
C1199 C330 1.518 . S
C1204 C162 1.518 . S
C1229 C190 1.532 . S
C1234 C358 1.532 . S
C1259 C274 1.518 . S
C1264 C218 1.518 . S
C1289 C400 1.532 . S
C1294 C232 1.532 . S
C1319 C316 1.518 . S
C1324 C260 1.518 . S
C1349 C344 1.532 . S
C1354 C288 1.532 . S
C1379 C372 1.516 . S
C1384 C428 1.517 . S
C1409 C143 1.278 . S
C1414 C3 1.278 . S
C1439 C17 1.278 . S
C1444 C157 1.278 . S
C1469 C115 1.255 . S
C1474 C31 1.249 . S
C1499 C129 1.255 . S
C1504 C45 1.249 . S
C1529 C59 1.278 . S
C1534 C199 1.278 . S
C1559 C73 1.278 . S
C1564 C213 1.278 . S
C1589 C171 1.255 . S
C1594 C87 1.249 . S
C1619 C101 1.256 . S
C1624 C185 1.248 . S
C1649 C367 1.256 . S
C1654 C227 1.248 . S
C1679 C381 1.256 . S
C1684 C241 1.248 . S
C1709 C255 1.278 . S
C1714 C339 1.278 . S
C1739 C269 1.278 . S
C1744 C353 1.278 . S
C1769 C283 1.255 . S
C1774 C423 1.249 . S
C1799 C297 1.255 . S
C1804 C437 1.249 . S
C1829 C395 1.278 . S
C1834 C311 1.278 . S
C1859 C409 1.278 . S
C1864 C325 1.278 . S
C1889 C9 1.449 . S
C1894 C359 1.449 . S
C1919 C345 1.449 . S
C1924 C23 1.449 . S
C1949 C37 1.436 . S
C1954 C387 1.436 . S
C1979 C51 1.436 . S
C1984 C373 1.436 . S
C2009 C65 1.449 . S
C2014 C415 1.449 . S
C2039 C79 1.449 . S
C2044 C401 1.449 . S
C2069 C443 1.436 . S
C2074 C93 1.436 . S
C2099 C429 1.436 . S
C2104 C107 1.436 . S
C2129 C247 1.448 . S
C2134 C121 1.448 . S
C2159 C233 1.448 . S
C2164 C135 1.448 . S
C2189 C149 1.436 . S
C2194 C275 1.436 . S
C2219 C163 1.436 . S
C2224 C261 1.436 . S
C2249 C303 1.448 . S
C2254 C177 1.448 . S
C2279 C191 1.448 . S
C2284 C289 1.448 . S
C2309 C205 1.436 . S
C2314 C331 1.436 . S
C2339 C219 1.436 . S
C2344 C317 1.436 . S
