# Generated by pormake.
# Topology unh, (4)-cn, num edge types: 1
# Building blocks:
#     Node 0, Type 0, BuildingBlock: KUFVIS_clean_sbu_0, # of connection points: 4
#     Node 1, Type 0, BuildingBlock: KUFVIS_clean_sbu_0, # of connection points: 4
#     Node 2, Type 0, BuildingBlock: KUFVIS_clean_sbu_0, # of connection points: 4
#     Node 3, Type 0, BuildingBlock: KUFVIS_clean_sbu_0, # of connection points: 4
#     Node 4, Type 0, BuildingBlock: KUFVIS_clean_sbu_0, # of connection points: 4
#     Node 5, Type 0, BuildingBlock: KUFVIS_clean_sbu_0, # of connection points: 4
#     Edge 6, Type (0, 0), BuildingBlock: XUDNAN_clean_linker_2, # of connection points: 2
#     Edge 7, Type (0, 0), BuildingBlock: XUDNAN_clean_linker_2, # of connection points: 2
#     Edge 8, Type (0, 0), BuildingBlock: XUDNAN_clean_linker_2, # of connection points: 2
#     Edge 9, Type (0, 0), BuildingBlock: XUDNAN_clean_linker_2, # of connection points: 2
#     Edge 10, Type (0, 0), BuildingBlock: XUDNAN_clean_linker_2, # of connection points: 2
#     Edge 11, Type (0, 0), BuildingBlock: XUDNAN_clean_linker_2, # of connection points: 2
#     Edge 12, Type (0, 0), BuildingBlock: XUDNAN_clean_linker_2, # of connection points: 2
#     Edge 13, Type (0, 0), BuildingBlock: XUDNAN_clean_linker_2, # of connection points: 2
#     Edge 14, Type (0, 0), BuildingBlock: XUDNAN_clean_linker_2, # of connection points: 2
#     Edge 15, Type (0, 0), BuildingBlock: XUDNAN_clean_linker_2, # of connection points: 2
#     Edge 16, Type (0, 0), BuildingBlock: XUDNAN_clean_linker_2, # of connection points: 2
#     Edge 17, Type (0, 0), BuildingBlock: XUDNAN_clean_linker_2, # of connection points: 2
# Relax obj value: 0.110
# Max RMSD: 0.223
# Mean RMSD: 0.223
data_MOF--net-unh--node1-KUFVIS_clean_sbu_0--edge1-XUDNAN_clean_linker_2
_symmetry_space_group_name_H-M    P1
_symmetry_Int_Tables_number       1
_symmetry_cell_setting            triclinic
loop_
_symmetry_equiv_pos_as_xyz
'x, y, z'
_cell_length_a     41.711342
_cell_length_b     41.655451
_cell_length_c     22.120259
_cell_angle_alpha  90.007274
_cell_angle_beta   89.997992
_cell_angle_gamma 119.9332
loop_
_atom_site_label
_atom_site_type_symbol
_atom_site_fract_x
_atom_site_fract_y
_atom_site_fract_z
_atom_type_partial_charge
Mn0 Mn 0.14398 0.58248 0.06996 0.0
Mn1 Mn 0.10432 0.63311 0.03071 0.0
C2 C 0.17513 0.63273 0.00701 0.0
C3 C 0.17806 0.56885 0.13732 0.0
C4 C 0.08263 0.55818 0.97603 0.0
O5 O 0.10247 0.56684 0.13062 0.0
O6 O 0.08113 0.60537 0.10663 0.0
C7 C 0.12994 0.6863 0.13252 0.0
N8 N 0.12763 0.67959 0.07198 0.0
C9 C 0.16033 0.74482 0.04958 0.0
C10 C 0.16283 0.75244 0.1117 0.0
C11 C 0.14764 0.72305 0.15333 0.0
C12 C 0.14212 0.70765 0.0315 0.0
H13 H 0.11839 0.66377 0.16464 0.0
C14 C 0.08124 0.58018 0.1398 0.0
O15 O 0.15468 0.54391 0.10051 0.0
O16 O 0.18154 0.60157 0.13557 0.0
N17 N 0.12411 0.66159 0.95849 0.0
C18 C 0.12179 0.64954 0.90051 0.0
C19 C 0.13709 0.67551 0.85347 0.0
C20 C 0.15428 0.71355 0.86642 0.0
C21 C 0.15596 0.72527 0.92634 0.0
C22 C 0.14007 0.69811 0.97133 0.0
H23 H 0.10867 0.62034 0.89026 0.0
O24 O 0.18396 0.60694 0.00878 0.0
O25 O 0.14873 0.62876 0.04313 0.0
O26 O 0.10663 0.55326 0.00367 0.0
O27 O 0.07877 0.58639 0.98447 0.0
C28 C 0.1737 0.76286 0.94341 0.0
C29 C 0.1759 0.77263 0.00498 0.0
H30 H 0.17668 0.78075 0.12797 0.0
H31 H 0.14964 0.72872 0.20135 0.0
H32 H 0.13578 0.66624 0.80737 0.0
H33 H 0.16643 0.7335 0.83009 0.0
H34 H 0.18634 0.78449 0.90964 0.0
H35 H 0.19015 0.80162 0.01761 0.0
Mn36 Mn 0.56949 0.14325 0.23245 0.0
Mn37 Mn 0.4792 0.11384 0.25504 0.0
C38 C 0.543 0.17384 0.18648 0.0
C39 C 0.62956 0.1775 0.26771 0.0
C40 C 0.50701 0.07505 0.17154 0.0
O41 O 0.55626 0.10982 0.30521 0.0
O42 O 0.49733 0.09525 0.32288 0.0
C43 C 0.48527 0.15687 0.36519 0.0
N44 N 0.47435 0.14799 0.30662 0.0
C45 C 0.45132 0.19067 0.30368 0.0
C46 C 0.46205 0.20005 0.36412 0.0
C47 C 0.47913 0.18311 0.39497 0.0
C48 C 0.45787 0.16411 0.27651 0.0
H49 H 0.49868 0.14414 0.38892 0.0
C50 C 0.5268 0.09446 0.3367 0.0
O51 O 0.62011 0.14936 0.23212 0.0
O52 O 0.60457 0.18602 0.28166 0.0
N53 N 0.45845 0.1302 0.19332 0.0
C54 C 0.45156 0.11954 0.13428 0.0
C55 C 0.43525 0.13459 0.09672 0.0
C56 C 0.42612 0.16033 0.12023 0.0
C57 C 0.43341 0.17082 0.18112 0.0
C58 C 0.44928 0.15456 0.2166 0.0
H59 H 0.45862 0.09987 0.11588 0.0
O60 O 0.57372 0.17729 0.16572 0.0
O61 O 0.52924 0.15297 0.23397 0.0
O62 O 0.54146 0.09822 0.17728 0.0
O63 O 0.48178 0.07778 0.20002 0.0
C64 C 0.42609 0.19722 0.20775 0.0
C65 C 0.43507 0.20717 0.26897 0.0
H66 H 0.45762 0.22048 0.38711 0.0
H67 H 0.4877 0.19037 0.44151 0.0
H68 H 0.42986 0.12649 0.04968 0.0
H69 H 0.41371 0.17201 0.09106 0.0
H70 H 0.41397 0.21038 0.18136 0.0
H71 H 0.42973 0.22784 0.28873 0.0
Mn72 Mn 0.42966 0.57451 0.40941 0.0
Mn73 Mn 0.37027 0.48593 0.37009 0.0
C74 C 0.37628 0.56066 0.35791 0.0
C75 C 0.45115 0.6217 0.48041 0.0
C76 C 0.44266 0.53492 0.30455 0.0
O77 O 0.44603 0.5449 0.46072 0.0
O78 O 0.40122 0.48665 0.43936 0.0
C79 C 0.32361 0.461 0.48 0.0
N80 N 0.32676 0.46606 0.419 0.0
C81 C 0.26102 0.44029 0.40825 0.0
C82 C 0.25703 0.43456 0.47092 0.0
C83 C 0.28848 0.44503 0.50694 0.0
C84 C 0.2967 0.45608 0.38391 0.0
H85 H 0.34773 0.46913 0.50785 0.0
C86 C 0.42994 0.50995 0.46898 0.0
O87 O 0.47232 0.62232 0.43689 0.0
O88 O 0.41785 0.5936 0.48331 0.0
N89 N 0.33843 0.48116 0.3042 0.0
C90 C 0.34728 0.49061 0.24506 0.0
C91 C 0.31907 0.48312 0.20325 0.0
C92 C 0.28207 0.46582 0.22255 0.0
C93 C 0.27361 0.45601 0.2835 0.0
C94 C 0.30286 0.46389 0.32303 0.0
H95 H 0.37565 0.50396 0.22994 0.0
O96 O 0.40406 0.59425 0.35859 0.0
O97 O 0.38023 0.5362 0.38867 0.0
O98 O 0.45172 0.56451 0.33415 0.0
O99 O 0.41365 0.50398 0.31603 0.0
C100 C 0.23738 0.43948 0.30684 0.0
C101 C 0.2311 0.43165 0.36917 0.0
H102 H 0.23001 0.42247 0.49193 0.0
H103 H 0.28564 0.44087 0.55537 0.0
H104 H 0.32583 0.4908 0.15629 0.0
H105 H 0.26043 0.46044 0.19028 0.0
H106 H 0.21422 0.43319 0.27739 0.0
H107 H 0.20319 0.41943 0.38671 0.0
Mn108 Mn 0.85556 0.41648 0.56997 0.0
Mn109 Mn 0.89504 0.36567 0.53074 0.0
C110 C 0.82426 0.36616 0.50719 0.0
C111 C 0.82169 0.43038 0.63735 0.0
C112 C 0.9168 0.44058 0.47592 0.0
O113 O 0.89715 0.43214 0.63047 0.0
O114 O 0.91829 0.39342 0.60663 0.0
C115 C 0.86936 0.31253 0.63261 0.0
N116 N 0.87165 0.31921 0.57206 0.0
C117 C 0.83879 0.25397 0.54973 0.0
C118 C 0.83631 0.24638 0.61186 0.0
C119 C 0.85159 0.27579 0.65346 0.0
C120 C 0.85707 0.29113 0.53162 0.0
H121 H 0.88099 0.33508 0.66471 0.0
C122 C 0.91829 0.41871 0.63972 0.0
O123 O 0.84504 0.4552 0.60038 0.0
O124 O 0.8181 0.39761 0.63575 0.0
N125 N 0.87516 0.33717 0.45856 0.0
C126 C 0.8775 0.3492 0.40057 0.0
C127 C 0.86214 0.32321 0.35356 0.0
C128 C 0.84485 0.28518 0.36655 0.0
C129 C 0.84315 0.27347 0.42648 0.0
C130 C 0.85912 0.30065 0.47144 0.0
H131 H 0.8907 0.37839 0.39028 0.0
O132 O 0.81548 0.39199 0.50895 0.0
O133 O 0.85068 0.37013 0.54325 0.0
O134 O 0.89282 0.44553 0.50352 0.0
O135 O 0.92067 0.41238 0.48444 0.0
C136 C 0.82533 0.23588 0.44358 0.0
C137 C 0.82313 0.22614 0.50516 0.0
H138 H 0.8224 0.21808 0.62815 0.0
H139 H 0.8496 0.27015 0.70148 0.0
H140 H 0.86347 0.33247 0.30744 0.0
H141 H 0.83266 0.26521 0.33024 0.0
H142 H 0.81263 0.21425 0.40984 0.0
H143 H 0.80882 0.19716 0.51782 0.0
Mn144 Mn 0.42938 0.85682 0.73228 0.0
Mn145 Mn 0.51981 0.88715 0.75528 0.0
C146 C 0.45646 0.82671 0.68659 0.0
C147 C 0.36934 0.82207 0.76745 0.0
C148 C 0.49146 0.92537 0.67156 0.0
O149 O 0.44223 0.89033 0.80491 0.0
O150 O 0.50123 0.90533 0.82305 0.0
C151 C 0.51414 0.84426 0.86538 0.0
N152 N 0.52507 0.85325 0.80684 0.0
C153 C 0.54881 0.81116 0.80392 0.0
C154 C 0.53807 0.80166 0.86434 0.0
C155 C 0.52062 0.81826 0.89515 0.0
C156 C 0.54189 0.83746 0.77676 0.0
H157 H 0.50046 0.85673 0.88908 0.0
C158 C 0.4716 0.90589 0.83661 0.0
O159 O 0.37852 0.85011 0.73174 0.0
O160 O 0.39458 0.81394 0.78157 0.0
N161 N 0.54099 0.87122 0.6936 0.0
C162 C 0.54787 0.88196 0.63461 0.0
C163 C 0.56454 0.86726 0.59708 0.0
C164 C 0.57401 0.84177 0.62058 0.0
C165 C 0.56673 0.8312 0.68144 0.0
C166 C 0.55049 0.84712 0.71688 0.0
H167 H 0.54055 0.90144 0.61621 0.0
O168 O 0.4256 0.82285 0.66571 0.0
O169 O 0.46999 0.84766 0.73404 0.0
O170 O 0.45707 0.90185 0.677 0.0
O171 O 0.51681 0.92299 0.7003 0.0
C172 C 0.5744 0.80504 0.70807 0.0
C173 C 0.56542 0.795 0.76925 0.0
H174 H 0.54277 0.78141 0.88733 0.0
H175 H 0.51205 0.8109 0.94167 0.0
H176 H 0.56993 0.87543 0.55007 0.0
H177 H 0.58669 0.83035 0.59143 0.0
H178 H 0.58681 0.79216 0.68171 0.0
H179 H 0.57104 0.77453 0.78901 0.0
Mn180 Mn 0.57126 0.42693 0.9094 0.0
Mn181 Mn 0.6308 0.51546 0.87013 0.0
C182 C 0.62455 0.44064 0.85778 0.0
C183 C 0.5497 0.37971 0.98033 0.0
C184 C 0.55835 0.46663 0.80464 0.0
O185 O 0.55501 0.45662 0.96079 0.0
O186 O 0.59992 0.51483 0.93945 0.0
C187 C 0.6775 0.54027 0.98001 0.0
N188 N 0.67431 0.5352 0.91901 0.0
C189 C 0.74002 0.56071 0.90823 0.0
C190 C 0.74404 0.56643 0.9709 0.0
C191 C 0.71263 0.5561 0.00693 0.0
C192 C 0.70434 0.54505 0.8839 0.0
H193 H 0.6534 0.53223 0.00788 0.0
C194 C 0.57117 0.49157 0.96907 0.0
O195 O 0.52854 0.37917 0.93688 0.0
O196 O 0.58303 0.40776 0.98323 0.0
N197 N 0.66258 0.52015 0.8042 0.0
C198 C 0.6537 0.51076 0.74505 0.0
C199 C 0.68187 0.51814 0.70322 0.0
C200 C 0.71886 0.53528 0.72251 0.0
C201 C 0.72736 0.54503 0.78347 0.0
C202 C 0.69815 0.53727 0.82302 0.0
H203 H 0.62533 0.49753 0.72993 0.0
O204 O 0.59672 0.40709 0.85848 0.0
O205 O 0.62071 0.46515 0.88862 0.0
O206 O 0.54924 0.43703 0.83421 0.0
O207 O 0.5874 0.49754 0.8161 0.0
C208 C 0.76358 0.56141 0.80679 0.0
C209 C 0.7699 0.56921 0.86913 0.0
H210 H 0.77105 0.57842 0.99189 0.0
H211 H 0.71549 0.56026 0.05536 0.0
H212 H 0.67508 0.51049 0.65625 0.0
H213 H 0.74048 0.54057 0.69022 0.0
H214 H 0.78671 0.56761 0.77733 0.0
H215 H 0.7978 0.58133 0.88666 0.0
H216 H 0.02865 0.55907 0.90646 0.0
H217 H 0.08333 0.49525 0.94046 0.0
H218 H 0.04607 0.45153 0.85977 0.0
H219 H 0.9377 0.48093 0.87424 0.0
H220 H 0.92828 0.50532 0.81591 0.0
H221 H 0.95818 0.53058 0.8781 0.0
H222 H 0.0101 0.57191 0.8026 0.0
H223 H 0.98043 0.54673 0.74021 0.0
H224 H 0.02523 0.55049 0.74734 0.0
H225 H 0.00468 0.41633 0.772 0.0
H226 H 0.96131 0.39162 0.68592 0.0
H227 H 0.93395 0.47866 0.71095 0.0
C228 C 0.03265 0.53574 0.89753 0.0
C229 C 0.05896 0.53065 0.93003 0.0
C230 C 0.06332 0.49978 0.91638 0.0
C231 C 0.0423 0.47477 0.87059 0.0
C232 C 0.01695 0.48092 0.83907 0.0
C233 C 0.01193 0.51054 0.8522 0.0
C234 C 0.98354 0.51151 0.81085 0.0
C235 C 0.94993 0.50679 0.84694 0.0
C236 C 0.00087 0.54728 0.77301 0.0
C237 C 0.97359 0.47796 0.77199 0.0
C238 C 0.99309 0.46064 0.78892 0.0
C239 C 0.9891 0.42955 0.75854 0.0
C240 C 0.96447 0.41579 0.70958 0.0
C241 C 0.94413 0.43313 0.69158 0.0
C242 C 0.94884 0.46456 0.7236 0.0
H243 H 0.5302 0.96201 0.89863 0.0
H244 H 0.41049 0.89317 0.90014 0.0
H245 H 0.4073 0.92649 0.98967 0.0
H246 H 0.54286 0.97091 0.06359 0.0
H247 H 0.57917 0.01863 0.05958 0.0
H248 H 0.57262 0.98743 0.99826 0.0
H249 H 0.56651 0.03184 0.9232 0.0
H250 H 0.57296 0.0631 0.98423 0.0
H251 H 0.53241 0.04551 0.93708 0.0
H252 H 0.41617 0.9688 0.07473 0.0
H253 H 0.43655 0.01859 0.15013 0.0
H254 H 0.55064 0.06126 0.09402 0.0
C255 C 0.50341 0.95363 0.91841 0.0
C256 C 0.47061 0.92498 0.89236 0.0
C257 C 0.436 0.91517 0.91903 0.0
C258 C 0.43387 0.9338 0.97012 0.0
C259 C 0.46658 0.96225 0.9941 0.0
C260 C 0.50072 0.97221 0.96931 0.0
C261 C 0.53136 0.00526 0.00216 0.0
C262 C 0.55808 0.99492 0.03272 0.0
C263 C 0.55201 0.03838 0.95909 0.0
C264 C 0.50896 0.01253 0.04856 0.0
C265 C 0.4717 0.98714 0.04332 0.0
C266 C 0.4453 0.98872 0.07967 0.0
C267 C 0.45722 0.01722 0.12236 0.0
C268 C 0.49526 0.04394 0.12831 0.0
C269 C 0.52141 0.04121 0.09106 0.0
H270 H 0.43515 0.47717 0.23437 0.0
H271 H 0.50465 0.59593 0.25989 0.0
H272 H 0.54437 0.59803 0.17551 0.0
H273 H 0.50836 0.45886 0.20044 0.0
H274 H 0.482 0.42384 0.14484 0.0
H275 H 0.45869 0.43187 0.20649 0.0
H276 H 0.41802 0.44298 0.13022 0.0
H277 H 0.44123 0.435 0.0683 0.0
H278 H 0.4399 0.47755 0.07206 0.0
H279 H 0.5768 0.58702 0.08855 0.0
H280 H 0.60009 0.56361 0.00709 0.0
H281 H 0.50931 0.45205 0.03954 0.0
C282 C 0.45866 0.5037 0.22233 0.0
C283 C 0.46669 0.53639 0.25396 0.0
C284 C 0.49786 0.57046 0.23654 0.0
C285 C 0.52059 0.57197 0.18857 0.0
C286 C 0.51183 0.5392 0.1585 0.0
C287 C 0.48166 0.50571 0.17479 0.0
C288 C 0.47854 0.47441 0.13581 0.0
C289 C 0.48212 0.44555 0.17419 0.0
C290 C 0.44227 0.45644 0.09944 0.0
C291 C 0.51176 0.49551 0.09509 0.0
C292 C 0.53054 0.53286 0.10872 0.0
C293 C 0.56227 0.55783 0.07739 0.0
C294 C 0.57525 0.54423 0.0311 0.0
C295 C 0.55657 0.50594 0.01663 0.0
C296 C 0.5243 0.48146 0.04918 0.0
H297 H 0.97138 0.44017 0.40727 0.0
H298 H 0.91547 0.503 0.43937 0.0
H299 H 0.95266 0.54668 0.35864 0.0
H300 H 0.06206 0.519 0.3753 0.0
H301 H 0.07207 0.49474 0.31754 0.0
H302 H 0.04214 0.46943 0.37966 0.0
H303 H 0.99067 0.42741 0.304 0.0
H304 H 0.02038 0.45262 0.24168 0.0
H305 H 0.9753 0.44827 0.24813 0.0
H306 H 0.99407 0.58189 0.27103 0.0
H307 H 0.03756 0.60671 0.18514 0.0
H308 H 0.06622 0.52072 0.21189 0.0
C309 C 0.9671 0.46327 0.3979 0.0
C310 C 0.94045 0.46809 0.42988 0.0
C311 C 0.93573 0.49868 0.41571 0.0
C312 C 0.95672 0.52367 0.36989 0.0
C313 C 0.98241 0.51779 0.33889 0.0
C314 C 0.9878 0.48846 0.35254 0.0
C315 C 0.01652 0.48777 0.31167 0.0
C316 C 0.05019 0.49306 0.34824 0.0
C317 C -0.0003 0.45189 0.27415 0.0
C318 C 0.0262 0.5211 0.27242 0.0
C319 C 0.0063 0.5381 0.2888 0.0
C320 C 0.00997 0.56893 0.258 0.0
C321 C 0.03467 0.58275 0.20915 0.0
C322 C 0.05539 0.56574 0.19166 0.0
C323 C 0.05102 0.53457 0.22413 0.0
H324 H 0.46815 0.03725 0.39686 0.0
H325 H 0.5875 0.1085 0.40248 0.0
H326 H 0.59052 0.07539 0.49244 0.0
H327 H 0.45327 0.02722 0.56135 0.0
H328 H 0.41796 0.97914 0.55621 0.0
H329 H 0.42449 0.01036 0.49495 0.0
H330 H 0.43311 0.96723 0.42048 0.0
H331 H 0.4267 0.93596 0.48146 0.0
H332 H 0.46796 0.95477 0.43584 0.0
H333 H 0.58167 0.03312 0.57744 0.0
H334 H 0.5615 0.98314 0.6524 0.0
H335 H 0.44777 0.93794 0.59221 0.0
C336 C 0.4948 0.0462 0.41767 0.0
C337 C 0.52758 0.07547 0.39267 0.0
C338 C 0.56204 0.08601 0.42058 0.0
C339 C 0.56406 0.06752 0.47191 0.0
C340 C 0.5314 0.03843 0.49485 0.0
C341 C 0.49739 0.02773 0.4688 0.0
C342 C 0.46687 0.99409 0.50066 0.0
C343 C 0.439 0.00327 0.53004 0.0
C344 C 0.44754 0.96107 0.457 0.0
C345 C 0.48919 0.98739 0.548 0.0
C346 C 0.52629 0.01353 0.54403 0.0
C347 C 0.55265 0.0126 0.58139 0.0
C348 C 0.54086 0.98399 0.62381 0.0
C349 C 0.50299 0.95651 0.6285 0.0
C350 C 0.47686 0.95858 0.59023 0.0
H351 H 0.56553 0.52452 0.7352 0.0
H352 H 0.49674 0.40555 0.75922 0.0
H353 H 0.45712 0.40346 0.67471 0.0
H354 H 0.4918 0.54214 0.70112 0.0
H355 H 0.51815 0.5775 0.64601 0.0
H356 H 0.54143 0.56947 0.70773 0.0
H357 H 0.58273 0.55922 0.63158 0.0
H358 H 0.55955 0.56719 0.56961 0.0
H359 H 0.56133 0.52487 0.57297 0.0
H360 H 0.42477 0.41446 0.58769 0.0
H361 H 0.40145 0.43784 0.50626 0.0
H362 H 0.49144 0.54962 0.54019 0.0
C363 C 0.54219 0.49795 0.72281 0.0
C364 C 0.53434 0.46519 0.75404 0.0
C365 C 0.50339 0.43107 0.73618 0.0
C366 C 0.48072 0.42956 0.68813 0.0
C367 C 0.48931 0.46239 0.65843 0.0
C368 C 0.51924 0.49594 0.67519 0.0
C369 C 0.5222 0.52729 0.63652 0.0
C370 C 0.51814 0.55577 0.67516 0.0
C371 C 0.55861 0.54572 0.60053 0.0
C372 C 0.48919 0.50613 0.5954 0.0
C373 C 0.47063 0.46873 0.60861 0.0
C374 C 0.43912 0.44369 0.57687 0.0
C375 C 0.42612 0.45728 0.5306 0.0
C376 C 0.44458 0.49562 0.51653 0.0
C377 C 0.47663 0.52017 0.5495 0.0
H378 H 0.24989 0.58917 0.12043 0.0
H379 H 0.15787 0.53099 0.24361 0.0
H380 H 0.19816 0.51987 0.31311 0.0
H381 H 0.2882 0.52873 0.14171 0.0
H382 H 0.33573 0.56537 0.13721 0.0
H383 H 0.30033 0.56918 0.09659 0.0
H384 H 0.3183 0.63132 0.14866 0.0
H385 H 0.35474 0.62901 0.1884 0.0
H386 H 0.32047 0.63424 0.23001 0.0
H387 H 0.25049 0.52081 0.37275 0.0
H388 H 0.30922 0.52843 0.41371 0.0
H389 H 0.36527 0.58154 0.24741 0.0
C390 C 0.23835 0.57392 0.16196 0.0
C391 C 0.20116 0.56096 0.17742 0.0
C392 C 0.18651 0.54101 0.23161 0.0
C393 C 0.20912 0.53464 0.27109 0.0
C394 C 0.24598 0.54801 0.25485 0.0
C395 C 0.26034 0.56685 0.2012 0.0
C396 C 0.30074 0.57833 0.19417 0.0
C397 C 0.3066 0.55926 0.13918 0.0
C398 C 0.32498 0.62074 0.1901 0.0
C399 C 0.30715 0.56373 0.25278 0.0
C400 C 0.27532 0.54648 0.28738 0.0
C401 C 0.27528 0.5333 0.34533 0.0
C402 C 0.30855 0.53742 0.36803 0.0
C403 C 0.34094 0.55369 0.33223 0.0
C404 C 0.34035 0.56762 0.27449 0.0
H405 H 0.68379 0.24842 0.24905 0.0
H406 H 0.65385 0.15072 0.35673 0.0
H407 H 0.70588 0.18798 0.4264 0.0
H408 H 0.78811 0.29186 0.27401 0.0
H409 H 0.79415 0.33782 0.27554 0.0
H410 H 0.75877 0.30252 0.22858 0.0
H411 H 0.70934 0.31337 0.28021 0.0
H412 H 0.7441 0.34841 0.32781 0.0
H413 H 0.70428 0.30946 0.36128 0.0
H414 H 0.74984 0.23804 0.49588 0.0
H415 H 0.79236 0.29583 0.55031 0.0
H416 H 0.7989 0.36013 0.39242 0.0
C417 C 0.68947 0.23474 0.28572 0.0
C418 C 0.66563 0.19685 0.29743 0.0
C419 C 0.67262 0.17966 0.34669 0.0
C420 C 0.7019 0.20063 0.38651 0.0
C421 C 0.72422 0.23841 0.37524 0.0
C422 C 0.71919 0.25511 0.32486 0.0
C423 C 0.74555 0.29652 0.32514 0.0
C424 C 0.7733 0.30785 0.27271 0.0
C425 C 0.72454 0.31818 0.32354 0.0
C426 C 0.76445 0.30082 0.38534 0.0
C427 C 0.75176 0.26699 0.41359 0.0
C428 C 0.76141 0.26447 0.47302 0.0
C429 C 0.78563 0.2973 0.50348 0.0
C430 C 0.80057 0.33187 0.47389 0.0
C431 C 0.78922 0.3337 0.41467 0.0
H432 H 0.4713 0.81312 0.5726 0.0
H433 H 0.46308 0.7781 0.75891 0.0
H434 H 0.47103 0.72564 0.72701 0.0
H435 H 0.41912 0.72799 0.51158 0.0
H436 H 0.44552 0.73536 0.44333 0.0
H437 H 0.44666 0.77406 0.48125 0.0
H438 H 0.51844 0.80693 0.48988 0.0
H439 H 0.51694 0.76857 0.44952 0.0
H440 H 0.53943 0.78204 0.522 0.0
H441 H 0.46639 0.67085 0.67375 0.0
H442 H 0.45487 0.6201 0.60286 0.0
H443 H 0.47075 0.69219 0.45117 0.0
C444 C 0.47262 0.79509 0.60657 0.0
C445 C 0.46785 0.80005 0.66821 0.0
C446 C 0.46804 0.77528 0.71164 0.0
C447 C 0.47243 0.74542 0.6939 0.0
C448 C 0.47671 0.74091 0.63256 0.0
C449 C 0.47753 0.76545 0.58956 0.0
C450 C 0.47886 0.75237 0.52622 0.0
C451 C 0.44555 0.74713 0.48843 0.0
C452 C 0.51561 0.77909 0.49509 0.0
C453 C 0.47653 0.71568 0.54014 0.0
C454 C 0.47558 0.70969 0.6018 0.0
C455 C 0.46847 0.67571 0.62549 0.0
C456 C 0.46185 0.64706 0.58513 0.0
C457 C 0.46306 0.65293 0.52212 0.0
C458 C 0.47117 0.68777 0.49936 0.0
H459 H 0.63538 0.41982 0.74714 0.0
H460 H 0.69163 0.47256 0.91351 0.0
H461 H 0.75014 0.47962 0.87257 0.0
H462 H 0.67882 0.36641 0.72986 0.0
H463 H 0.68112 0.36925 0.64853 0.0
H464 H 0.64509 0.37243 0.68803 0.0
H465 H 0.66503 0.43614 0.63728 0.0
H466 H 0.70006 0.43183 0.59639 0.0
H467 H 0.71277 0.47232 0.64174 0.0
H468 H 0.80216 0.47976 0.81321 0.0
H469 H 0.84208 0.468 0.74387 0.0
H470 H 0.75006 0.41087 0.62029 0.0
C471 C 0.66031 0.43357 0.77421 0.0
C472 C 0.65984 0.4475 0.832 0.0
C473 C 0.69223 0.46356 0.8678 0.0
C474 C 0.72537 0.46738 0.84511 0.0
C475 C 0.72522 0.45415 0.78714 0.0
C476 C 0.69341 0.43723 0.75244 0.0
C477 C 0.69967 0.42245 0.69384 0.0
C478 C 0.6747 0.38013 0.68988 0.0
C479 C 0.69404 0.44185 0.6391 0.0
C480 C 0.73989 0.43338 0.7011 0.0
C481 C 0.75437 0.45216 0.75475 0.0
C482 C 0.79111 0.46506 0.77115 0.0
C483 C 0.81352 0.45832 0.73176 0.0
C484 C 0.79876 0.43849 0.6775 0.0
C485 C 0.76168 0.426 0.6619 0.0
H486 H 0.3155 0.75094 0.74891 0.0
H487 H 0.34471 0.84856 0.8564 0.0
H488 H 0.29282 0.81106 0.92615 0.0
H489 H 0.21113 0.70685 0.77384 0.0
H490 H 0.20543 0.66103 0.77544 0.0
H491 H 0.24069 0.69644 0.72849 0.0
H492 H 0.29036 0.68602 0.78026 0.0
H493 H 0.25572 0.65089 0.82785 0.0
H494 H 0.29537 0.69 0.86133 0.0
H495 H 0.24917 0.76089 0.99573 0.0
H496 H 0.20683 0.70305 0.05014 0.0
H497 H 0.20067 0.63885 0.89231 0.0
C498 C 0.30968 0.76453 0.78556 0.0
C499 C 0.33329 0.80248 0.7972 0.0
C500 C 0.32612 0.81957 0.84642 0.0
C501 C 0.29693 0.79847 0.8863 0.0
C502 C 0.27486 0.76064 0.87509 0.0
C503 C 0.28003 0.74402 0.82474 0.0
C504 C 0.25387 0.70256 0.82506 0.0
C505 C 0.22613 0.69104 0.77259 0.0
C506 C 0.27512 0.68114 0.82356 0.0
C507 C 0.23492 0.69818 0.88523 0.0
C508 C 0.24742 0.73199 0.91346 0.0
C509 C 0.23772 0.73446 0.97288 0.0
C510 C 0.2136 0.70161 0.00332 0.0
C511 C 0.1988 0.66704 0.97373 0.0
C512 C 0.21023 0.66526 0.91455 0.0
H513 H 0.53018 0.30928 0.95096 0.0
H514 H 0.5458 0.38121 0.10277 0.0
H515 H 0.53419 0.3304 0.17357 0.0
H516 H 0.46132 0.21931 0.0213 0.0
H517 H 0.48242 0.19457 0.98898 0.0
H518 H 0.484 0.23307 0.94899 0.0
H519 H 0.55516 0.26626 0.94293 0.0
H520 H 0.5545 0.22782 0.98094 0.0
H521 H 0.58168 0.27395 0.01117 0.0
H522 H 0.52932 0.27549 0.2268 0.0
H523 H 0.53679 0.22273 0.25873 0.0
H524 H 0.5288 0.18788 0.07232 0.0
C525 C 0.52965 0.31363 0.99915 0.0
C526 C 0.53774 0.34845 0.02198 0.0
C527 C 0.53884 0.35426 0.08499 0.0
C528 C 0.53215 0.32557 0.12529 0.0
C529 C 0.52504 0.2916 0.10155 0.0
C530 C 0.52406 0.28561 0.03986 0.0
C531 C 0.52189 0.24896 0.02596 0.0
C532 C 0.48522 0.22238 0.99446 0.0
C533 C 0.5553 0.25461 0.98805 0.0
C534 C 0.5232 0.23591 0.08928 0.0
C535 C 0.52392 0.26038 0.13229 0.0
C536 C 0.52796 0.25573 0.19367 0.0
C537 C 0.53204 0.22569 0.21143 0.0
C538 C 0.53208 0.20083 0.16799 0.0
C539 C 0.5276 0.20598 0.1063 0.0
loop_
_geom_bond_atom_site_label_1
_geom_bond_atom_site_label_2
_geom_bond_distance
_geom_bond_site_symmetry_2
_ccdc_geom_bond_type
Mn0 O5 2.095 . S
Mn0 O15 2.162 . S
Mn0 O16 2.297 . S
Mn0 O24 2.385 . S
Mn0 O25 2.209 . S
Mn0 O26 2.094 . S
Mn1 O6 2.121 . S
Mn1 N8 2.257 . S
Mn1 N17 2.282 1_554 S
Mn1 O25 2.215 . S
Mn1 O27 2.117 1_554 S
C2 O24 1.234 . S
C2 O25 1.283 . S
C3 O15 1.281 . S
C3 O16 1.236 . S
C4 O26 1.240 1_556 S
C4 O27 1.264 . S
O5 Mn0 2.095 . S
O5 C14 1.250 . S
O6 Mn1 2.121 . S
O6 C14 1.258 . S
C7 N8 1.326 . S
C7 C11 1.460 . S
C7 H13 0.929 . S
N8 Mn1 2.257 . S
N8 C7 1.326 . S
N8 C12 1.362 . S
C9 C10 1.258 . S
C9 C12 1.431 . S
C9 C29 1.449 1_554 S
C10 C9 1.258 . S
C10 C11 1.477 . S
C10 H30 0.931 . S
C11 C7 1.460 . S
C11 C10 1.477 . S
C11 H31 0.930 . S
C12 N8 1.362 . S
C12 C9 1.431 . S
C12 C22 1.476 1_554 S
H13 C7 0.929 . S
C14 O5 1.250 . S
C14 O6 1.258 . S
O15 Mn0 2.162 . S
O15 C3 1.281 . S
O16 Mn0 2.297 . S
O16 C3 1.236 . S
N17 Mn1 2.282 1_556 S
N17 C18 1.328 . S
N17 C22 1.318 . S
C18 N17 1.328 . S
C18 C19 1.457 . S
C18 H23 0.929 . S
C19 C18 1.457 . S
C19 C20 1.291 . S
C19 H32 0.931 . S
C20 C19 1.291 . S
C20 C21 1.373 . S
C20 H33 0.929 . S
C21 C20 1.373 . S
C21 C22 1.396 . S
C21 C28 1.403 . S
C22 C12 1.476 1_556 S
C22 N17 1.318 . S
C22 C21 1.396 . S
H23 C18 0.929 . S
O24 Mn0 2.385 . S
O24 C2 1.234 . S
O25 Mn0 2.209 . S
O25 Mn1 2.215 . S
O25 C2 1.283 . S
O26 Mn0 2.094 . S
O26 C4 1.240 1_554 S
O27 Mn1 2.117 1_556 S
O27 C4 1.264 . S
C28 C21 1.403 . S
C28 C29 1.399 . S
C28 H34 0.929 . S
C29 C9 1.449 1_556 S
C29 C28 1.399 . S
C29 H35 0.930 . S
H30 C10 0.931 . S
H31 C11 0.930 . S
H32 C19 0.931 . S
H33 C20 0.929 . S
H34 C28 0.929 . S
H35 C29 0.930 . S
Mn36 O41 2.095 . S
Mn36 O51 2.162 . S
Mn36 O52 2.297 . S
Mn36 O60 2.385 . S
Mn36 O61 2.209 . S
Mn36 O62 2.094 . S
Mn37 O42 2.121 . S
Mn37 N44 2.257 . S
Mn37 N53 2.282 . S
Mn37 O61 2.215 . S
Mn37 O63 2.117 . S
C38 O60 1.234 . S
C38 O61 1.283 . S
C39 O51 1.281 . S
C39 O52 1.236 . S
C40 O62 1.240 . S
C40 O63 1.264 . S
O41 Mn36 2.095 . S
O41 C50 1.250 . S
O42 Mn37 2.121 . S
O42 C50 1.258 . S
C43 N44 1.326 . S
C43 C47 1.460 . S
C43 H49 0.929 . S
N44 Mn37 2.257 . S
N44 C43 1.326 . S
N44 C48 1.362 . S
C45 C46 1.258 . S
C45 C48 1.431 . S
C45 C65 1.449 . S
C46 C45 1.258 . S
C46 C47 1.477 . S
C46 H66 0.931 . S
C47 C43 1.460 . S
C47 C46 1.477 . S
C47 H67 0.930 . S
C48 N44 1.362 . S
C48 C45 1.431 . S
C48 C58 1.476 . S
H49 C43 0.929 . S
C50 O41 1.250 . S
C50 O42 1.258 . S
O51 Mn36 2.162 . S
O51 C39 1.281 . S
O52 Mn36 2.297 . S
O52 C39 1.236 . S
N53 Mn37 2.282 . S
N53 C54 1.328 . S
N53 C58 1.318 . S
C54 N53 1.328 . S
C54 C55 1.457 . S
C54 H59 0.929 . S
C55 C54 1.457 . S
C55 C56 1.291 . S
C55 H68 0.931 1_554 S
C56 C55 1.291 . S
C56 C57 1.373 . S
C56 H69 0.929 . S
C57 C56 1.373 . S
C57 C58 1.396 . S
C57 C64 1.403 . S
C58 C48 1.476 . S
C58 N53 1.318 . S
C58 C57 1.396 . S
H59 C54 0.929 . S
O60 Mn36 2.385 . S
O60 C38 1.234 . S
O61 Mn36 2.209 . S
O61 Mn37 2.215 . S
O61 C38 1.283 . S
O62 Mn36 2.094 . S
O62 C40 1.240 . S
O63 Mn37 2.117 . S
O63 C40 1.264 . S
C64 C57 1.403 . S
C64 C65 1.399 . S
C64 H70 0.929 . S
C65 C45 1.449 . S
C65 C64 1.399 . S
C65 H71 0.930 . S
H66 C46 0.931 . S
H67 C47 0.930 . S
H68 C55 0.931 1_556 S
H69 C56 0.929 . S
H70 C64 0.929 . S
H71 C65 0.930 . S
Mn72 O77 2.095 . S
Mn72 O87 2.162 . S
Mn72 O88 2.297 . S
Mn72 O96 2.385 . S
Mn72 O97 2.209 . S
Mn72 O98 2.094 . S
Mn73 O78 2.121 . S
Mn73 N80 2.257 . S
Mn73 N89 2.282 . S
Mn73 O97 2.215 . S
Mn73 O99 2.117 . S
C74 O96 1.234 . S
C74 O97 1.283 . S
C75 O87 1.281 . S
C75 O88 1.236 . S
C76 O98 1.240 . S
C76 O99 1.264 . S
O77 Mn72 2.095 . S
O77 C86 1.250 . S
O78 Mn73 2.121 . S
O78 C86 1.258 . S
C79 N80 1.326 . S
C79 C83 1.460 . S
C79 H85 0.929 . S
N80 Mn73 2.257 . S
N80 C79 1.326 . S
N80 C84 1.362 . S
C81 C82 1.258 . S
C81 C84 1.431 . S
C81 C101 1.449 . S
C82 C81 1.258 . S
C82 C83 1.477 . S
C82 H102 0.931 . S
C83 C79 1.460 . S
C83 C82 1.477 . S
C83 H103 0.930 . S
C84 N80 1.362 . S
C84 C81 1.431 . S
C84 C94 1.476 . S
H85 C79 0.929 . S
C86 O77 1.250 . S
C86 O78 1.258 . S
O87 Mn72 2.162 . S
O87 C75 1.281 . S
O88 Mn72 2.297 . S
O88 C75 1.236 . S
N89 Mn73 2.282 . S
N89 C90 1.328 . S
N89 C94 1.318 . S
C90 N89 1.328 . S
C90 C91 1.457 . S
C90 H95 0.929 . S
C91 C90 1.457 . S
C91 C92 1.291 . S
C91 H104 0.931 . S
C92 C91 1.291 . S
C92 C93 1.373 . S
C92 H105 0.929 . S
C93 C92 1.373 . S
C93 C94 1.396 . S
C93 C100 1.403 . S
C94 C84 1.476 . S
C94 N89 1.318 . S
C94 C93 1.396 . S
H95 C90 0.929 . S
O96 Mn72 2.385 . S
O96 C74 1.234 . S
O97 Mn72 2.209 . S
O97 Mn73 2.215 . S
O97 C74 1.283 . S
O98 Mn72 2.094 . S
O98 C76 1.240 . S
O99 Mn73 2.117 . S
O99 C76 1.264 . S
C100 C93 1.403 . S
C100 C101 1.399 . S
C100 H106 0.929 . S
C101 C81 1.449 . S
C101 C100 1.399 . S
C101 H107 0.930 . S
H102 C82 0.931 . S
H103 C83 0.930 . S
H104 C91 0.931 . S
H105 C92 0.929 . S
H106 C100 0.929 . S
H107 C101 0.930 . S
Mn108 O113 2.095 . S
Mn108 O123 2.162 . S
Mn108 O124 2.297 . S
Mn108 O132 2.385 . S
Mn108 O133 2.209 . S
Mn108 O134 2.094 . S
Mn109 O114 2.121 . S
Mn109 N116 2.257 . S
Mn109 N125 2.282 . S
Mn109 O133 2.215 . S
Mn109 O135 2.117 . S
C110 O132 1.234 . S
C110 O133 1.283 . S
C111 O123 1.281 . S
C111 O124 1.236 . S
C112 O134 1.240 . S
C112 O135 1.264 . S
O113 Mn108 2.095 . S
O113 C122 1.250 . S
O114 Mn109 2.121 . S
O114 C122 1.258 . S
C115 N116 1.326 . S
C115 C119 1.460 . S
C115 H121 0.929 . S
N116 Mn109 2.257 . S
N116 C115 1.326 . S
N116 C120 1.362 . S
C117 C118 1.258 . S
C117 C120 1.431 . S
C117 C137 1.449 . S
C118 C117 1.258 . S
C118 C119 1.477 . S
C118 H138 0.931 . S
C119 C115 1.460 . S
C119 C118 1.477 . S
C119 H139 0.930 . S
C120 N116 1.362 . S
C120 C117 1.431 . S
C120 C130 1.476 . S
H121 C115 0.929 . S
C122 O113 1.250 . S
C122 O114 1.258 . S
O123 Mn108 2.162 . S
O123 C111 1.281 . S
O124 Mn108 2.297 . S
O124 C111 1.236 . S
N125 Mn109 2.282 . S
N125 C126 1.328 . S
N125 C130 1.318 . S
C126 N125 1.328 . S
C126 C127 1.457 . S
C126 H131 0.929 . S
C127 C126 1.457 . S
C127 C128 1.291 . S
C127 H140 0.931 . S
C128 C127 1.291 . S
C128 C129 1.373 . S
C128 H141 0.929 . S
C129 C128 1.373 . S
C129 C130 1.396 . S
C129 C136 1.403 . S
C130 C120 1.476 . S
C130 N125 1.318 . S
C130 C129 1.396 . S
H131 C126 0.929 . S
O132 Mn108 2.385 . S
O132 C110 1.234 . S
O133 Mn108 2.209 . S
O133 Mn109 2.215 . S
O133 C110 1.283 . S
O134 Mn108 2.094 . S
O134 C112 1.240 . S
O135 Mn109 2.117 . S
O135 C112 1.264 . S
C136 C129 1.403 . S
C136 C137 1.399 . S
C136 H142 0.929 . S
C137 C117 1.449 . S
C137 C136 1.399 . S
C137 H143 0.930 . S
H138 C118 0.931 . S
H139 C119 0.930 . S
H140 C127 0.931 . S
H141 C128 0.929 . S
H142 C136 0.929 . S
H143 C137 0.930 . S
Mn144 O149 2.095 . S
Mn144 O159 2.162 . S
Mn144 O160 2.297 . S
Mn144 O168 2.385 . S
Mn144 O169 2.209 . S
Mn144 O170 2.094 . S
Mn145 O150 2.121 . S
Mn145 N152 2.257 . S
Mn145 N161 2.282 . S
Mn145 O169 2.215 . S
Mn145 O171 2.117 . S
C146 O168 1.234 . S
C146 O169 1.283 . S
C147 O159 1.281 . S
C147 O160 1.236 . S
C148 O170 1.240 . S
C148 O171 1.264 . S
O149 Mn144 2.095 . S
O149 C158 1.250 . S
O150 Mn145 2.121 . S
O150 C158 1.258 . S
C151 N152 1.326 . S
C151 C155 1.460 . S
C151 H157 0.929 . S
N152 Mn145 2.257 . S
N152 C151 1.326 . S
N152 C156 1.362 . S
C153 C154 1.258 . S
C153 C156 1.431 . S
C153 C173 1.449 . S
C154 C153 1.258 . S
C154 C155 1.477 . S
C154 H174 0.931 . S
C155 C151 1.460 . S
C155 C154 1.477 . S
C155 H175 0.930 . S
C156 N152 1.362 . S
C156 C153 1.431 . S
C156 C166 1.476 . S
H157 C151 0.929 . S
C158 O149 1.250 . S
C158 O150 1.258 . S
O159 Mn144 2.162 . S
O159 C147 1.281 . S
O160 Mn144 2.297 . S
O160 C147 1.236 . S
N161 Mn145 2.282 . S
N161 C162 1.328 . S
N161 C166 1.318 . S
C162 N161 1.328 . S
C162 C163 1.457 . S
C162 H167 0.929 . S
C163 C162 1.457 . S
C163 C164 1.291 . S
C163 H176 0.931 . S
C164 C163 1.291 . S
C164 C165 1.373 . S
C164 H177 0.929 . S
C165 C164 1.373 . S
C165 C166 1.396 . S
C165 C172 1.403 . S
C166 C156 1.476 . S
C166 N161 1.318 . S
C166 C165 1.396 . S
H167 C162 0.929 . S
O168 Mn144 2.385 . S
O168 C146 1.234 . S
O169 Mn144 2.209 . S
O169 Mn145 2.215 . S
O169 C146 1.283 . S
O170 Mn144 2.094 . S
O170 C148 1.240 . S
O171 Mn145 2.117 . S
O171 C148 1.264 . S
C172 C165 1.403 . S
C172 C173 1.399 . S
C172 H178 0.929 . S
C173 C153 1.449 . S
C173 C172 1.399 . S
C173 H179 0.930 . S
H174 C154 0.931 . S
H175 C155 0.930 . S
H176 C163 0.931 . S
H177 C164 0.929 . S
H178 C172 0.929 . S
H179 C173 0.930 . S
Mn180 O185 2.095 . S
Mn180 O195 2.162 . S
Mn180 O196 2.297 . S
Mn180 O204 2.385 . S
Mn180 O205 2.209 . S
Mn180 O206 2.094 . S
Mn181 O186 2.121 . S
Mn181 N188 2.257 . S
Mn181 N197 2.282 . S
Mn181 O205 2.215 . S
Mn181 O207 2.117 . S
C182 O204 1.234 . S
C182 O205 1.283 . S
C183 O195 1.281 . S
C183 O196 1.236 . S
C184 O206 1.240 . S
C184 O207 1.264 . S
O185 Mn180 2.095 . S
O185 C194 1.250 . S
O186 Mn181 2.121 . S
O186 C194 1.258 . S
C187 N188 1.326 . S
C187 C191 1.460 . S
C187 H193 0.929 . S
N188 Mn181 2.257 . S
N188 C187 1.326 . S
N188 C192 1.362 . S
C189 C190 1.258 . S
C189 C192 1.431 . S
C189 C209 1.449 . S
C190 C189 1.258 . S
C190 C191 1.477 . S
C190 H210 0.931 . S
C191 C187 1.460 . S
C191 C190 1.477 . S
C191 H211 0.930 1_556 S
C192 N188 1.362 . S
C192 C189 1.431 . S
C192 C202 1.476 . S
H193 C187 0.929 . S
C194 O185 1.250 . S
C194 O186 1.258 . S
O195 Mn180 2.162 . S
O195 C183 1.281 . S
O196 Mn180 2.297 . S
O196 C183 1.236 . S
N197 Mn181 2.282 . S
N197 C198 1.328 . S
N197 C202 1.318 . S
C198 N197 1.328 . S
C198 C199 1.457 . S
C198 H203 0.929 . S
C199 C198 1.457 . S
C199 C200 1.291 . S
C199 H212 0.931 . S
C200 C199 1.291 . S
C200 C201 1.373 . S
C200 H213 0.929 . S
C201 C200 1.373 . S
C201 C202 1.396 . S
C201 C208 1.403 . S
C202 C192 1.476 . S
C202 N197 1.318 . S
C202 C201 1.396 . S
H203 C198 0.929 . S
O204 Mn180 2.385 . S
O204 C182 1.234 . S
O205 Mn180 2.209 . S
O205 Mn181 2.215 . S
O205 C182 1.283 . S
O206 Mn180 2.094 . S
O206 C184 1.240 . S
O207 Mn181 2.117 . S
O207 C184 1.264 . S
C208 C201 1.403 . S
C208 C209 1.399 . S
C208 H214 0.929 . S
C209 C189 1.449 . S
C209 C208 1.399 . S
C209 H215 0.930 . S
H210 C190 0.931 . S
H211 C191 0.930 1_554 S
H212 C199 0.931 . S
H213 C200 0.929 . S
H214 C208 0.929 . S
H215 C209 0.930 . S
H216 C228 0.930 . S
H217 C230 0.930 . S
H218 C231 0.930 . S
H219 C235 0.959 . S
H220 C235 0.959 . S
H221 C235 0.961 . S
H222 C236 0.960 . S
H223 C236 0.961 . S
H224 C236 0.959 . S
H225 C239 0.929 . S
H226 C240 0.931 . S
H227 C242 0.930 . S
C228 H216 0.930 . S
C228 C229 1.399 . S
C228 C233 1.399 . S
C229 C228 1.399 . S
C229 C230 1.376 . S
C230 H217 0.930 . S
C230 C229 1.376 . S
C230 C231 1.388 . S
C231 H218 0.930 . S
C231 C230 1.388 . S
C231 C232 1.390 . S
C232 C231 1.390 . S
C232 C233 1.394 . S
C232 C238 1.465 1_455 S
C233 C228 1.399 . S
C233 C232 1.394 . S
C233 C234 1.516 . S
C234 C233 1.516 . S
C234 C235 1.502 1_455 S
C234 C236 1.561 . S
C234 C237 1.526 1_455 S
C235 H219 0.959 . S
C235 H220 0.959 . S
C235 H221 0.961 . S
C235 C234 1.502 1_655 S
C236 H222 0.960 . S
C236 H223 0.961 . S
C236 H224 0.959 . S
C236 C234 1.561 . S
C237 C234 1.526 1_655 S
C237 C238 1.396 . S
C237 C242 1.390 . S
C238 C232 1.465 1_655 S
C238 C237 1.396 . S
C238 C239 1.399 . S
C239 H225 0.929 . S
C239 C238 1.399 . S
C239 C240 1.385 . S
C240 H226 0.931 . S
C240 C239 1.385 . S
C240 C241 1.389 . S
C241 C240 1.389 . S
C241 C242 1.387 . S
C242 H227 0.930 . S
C242 C237 1.390 . S
C242 C241 1.387 . S
H243 C255 0.930 . S
H244 C257 0.930 . S
H245 C258 0.930 . S
H246 C262 0.959 . S
H247 C262 0.959 . S
H248 C262 0.961 . S
H249 C263 0.960 1_565 S
H250 C263 0.961 . S
H251 C263 0.959 . S
H252 C266 0.929 . S
H253 C267 0.931 . S
H254 C269 0.930 . S
C255 H243 0.930 . S
C255 C256 1.399 . S
C255 C260 1.399 . S
C256 C255 1.399 . S
C256 C257 1.376 . S
C257 H244 0.930 . S
C257 C256 1.376 . S
C257 C258 1.388 . S
C258 H245 0.930 . S
C258 C257 1.388 . S
C258 C259 1.390 . S
C259 C258 1.390 . S
C259 C260 1.394 . S
C259 C265 1.465 1_566 S
C260 C255 1.399 . S
C260 C259 1.394 . S
C260 C261 1.516 . S
C261 C260 1.516 . S
C261 C262 1.502 1_556 S
C261 C263 1.561 1_565 S
C261 C264 1.526 1_566 S
C262 H246 0.959 . S
C262 H247 0.959 . S
C262 H248 0.961 . S
C262 C261 1.502 1_554 S
C263 H249 0.960 1_545 S
C263 H250 0.961 . S
C263 H251 0.959 . S
C263 C261 1.561 1_545 S
C264 C261 1.526 1_544 S
C264 C265 1.396 . S
C264 C269 1.390 . S
C265 C259 1.465 1_544 S
C265 C264 1.396 . S
C265 C266 1.399 . S
C266 H252 0.929 . S
C266 C265 1.399 . S
C266 C267 1.385 . S
C267 H253 0.931 . S
C267 C266 1.385 . S
C267 C268 1.389 . S
C268 C267 1.389 . S
C268 C269 1.387 . S
C269 H254 0.930 . S
C269 C264 1.390 . S
C269 C268 1.387 . S
H270 C282 0.930 . S
H271 C284 0.930 . S
H272 C285 0.930 . S
H273 C289 0.959 . S
H274 C289 0.959 . S
H275 C289 0.961 . S
H276 C290 0.960 . S
H277 C290 0.961 . S
H278 C290 0.959 . S
H279 C293 0.929 . S
H280 C294 0.931 . S
H281 C296 0.930 . S
C282 H270 0.930 . S
C282 C283 1.399 . S
C282 C287 1.399 . S
C283 C282 1.399 . S
C283 C284 1.376 . S
C284 H271 0.930 . S
C284 C283 1.376 . S
C284 C285 1.388 . S
C285 H272 0.930 . S
C285 C284 1.388 . S
C285 C286 1.390 . S
C286 C285 1.390 . S
C286 C287 1.394 . S
C286 C292 1.465 . S
C287 C282 1.399 . S
C287 C286 1.394 . S
C287 C288 1.516 . S
C288 C287 1.516 . S
C288 C289 1.502 . S
C288 C290 1.561 . S
C288 C291 1.526 . S
C289 H273 0.959 . S
C289 H274 0.959 . S
C289 H275 0.961 . S
C289 C288 1.502 . S
C290 H276 0.960 . S
C290 H277 0.961 . S
C290 H278 0.959 . S
C290 C288 1.561 . S
C291 C288 1.526 . S
C291 C292 1.396 . S
C291 C296 1.390 . S
C292 C286 1.465 . S
C292 C291 1.396 . S
C292 C293 1.399 . S
C293 H279 0.929 . S
C293 C292 1.399 . S
C293 C294 1.385 . S
C294 H280 0.931 . S
C294 C293 1.385 . S
C294 C295 1.389 . S
C295 C294 1.389 . S
C295 C296 1.387 . S
C296 H281 0.930 . S
C296 C291 1.390 . S
C296 C295 1.387 . S
H297 C309 0.930 . S
H298 C311 0.930 . S
H299 C312 0.930 . S
H300 C316 0.959 . S
H301 C316 0.959 . S
H302 C316 0.961 . S
H303 C317 0.960 . S
H304 C317 0.961 . S
H305 C317 0.959 1_655 S
H306 C320 0.929 1_655 S
H307 C321 0.931 . S
H308 C323 0.930 . S
C309 H297 0.930 . S
C309 C310 1.399 . S
C309 C314 1.399 . S
C310 C309 1.399 . S
C310 C311 1.376 . S
C311 H298 0.930 . S
C311 C310 1.376 . S
C311 C312 1.388 . S
C312 H299 0.930 . S
C312 C311 1.388 . S
C312 C313 1.390 . S
C313 C312 1.390 . S
C313 C314 1.394 . S
C313 C319 1.465 1_655 S
C314 C309 1.399 . S
C314 C313 1.394 . S
C314 C315 1.516 1_655 S
C315 C314 1.516 1_455 S
C315 C316 1.502 . S
C315 C317 1.561 . S
C315 C318 1.526 . S
C316 H300 0.959 . S
C316 H301 0.959 . S
C316 H302 0.961 . S
C316 C315 1.502 . S
C317 H303 0.960 . S
C317 H304 0.961 . S
C317 H305 0.959 1_455 S
C317 C315 1.561 . S
C318 C315 1.526 . S
C318 C319 1.396 . S
C318 C323 1.390 . S
C319 C313 1.465 1_455 S
C319 C318 1.396 . S
C319 C320 1.399 . S
C320 H306 0.929 1_455 S
C320 C319 1.399 . S
C320 C321 1.385 . S
C321 H307 0.931 . S
C321 C320 1.385 . S
C321 C322 1.389 . S
C322 C321 1.389 . S
C322 C323 1.387 . S
C323 H308 0.930 . S
C323 C318 1.390 . S
C323 C322 1.387 . S
H324 C336 0.930 . S
H325 C338 0.930 . S
H326 C339 0.930 . S
H327 C343 0.959 1_545 S
H328 C343 0.959 . S
H329 C343 0.961 1_545 S
H330 C344 0.960 . S
H331 C344 0.961 . S
H332 C344 0.959 . S
H333 C347 0.929 1_545 S
H334 C348 0.931 . S
H335 C350 0.930 . S
C336 H324 0.930 . S
C336 C337 1.399 . S
C336 C341 1.399 . S
C337 C336 1.399 . S
C337 C338 1.376 . S
C338 H325 0.930 . S
C338 C337 1.376 . S
C338 C339 1.388 . S
C339 H326 0.930 . S
C339 C338 1.388 . S
C339 C340 1.390 . S
C340 C339 1.390 . S
C340 C341 1.394 . S
C340 C346 1.465 1_545 S
C341 C336 1.399 . S
C341 C340 1.394 . S
C341 C342 1.516 1_545 S
C342 C341 1.516 1_565 S
C342 C343 1.502 . S
C342 C344 1.561 . S
C342 C345 1.526 . S
C343 H327 0.959 1_565 S
C343 H328 0.959 . S
C343 H329 0.961 1_565 S
C343 C342 1.502 . S
C344 H330 0.960 . S
C344 H331 0.961 . S
C344 H332 0.959 . S
C344 C342 1.561 . S
C345 C342 1.526 . S
C345 C346 1.396 . S
C345 C350 1.390 . S
C346 C340 1.465 1_565 S
C346 C345 1.396 . S
C346 C347 1.399 . S
C347 H333 0.929 1_565 S
C347 C346 1.399 . S
C347 C348 1.385 . S
C348 H334 0.931 . S
C348 C347 1.385 . S
C348 C349 1.389 . S
C349 C348 1.389 . S
C349 C350 1.387 . S
C350 H335 0.930 . S
C350 C345 1.390 . S
C350 C349 1.387 . S
H351 C363 0.930 . S
H352 C365 0.930 . S
H353 C366 0.930 . S
H354 C370 0.959 . S
H355 C370 0.959 . S
H356 C370 0.961 . S
H357 C371 0.960 . S
H358 C371 0.961 . S
H359 C371 0.959 . S
H360 C374 0.929 . S
H361 C375 0.931 . S
H362 C377 0.930 . S
C363 H351 0.930 . S
C363 C364 1.399 . S
C363 C368 1.399 . S
C364 C363 1.399 . S
C364 C365 1.376 . S
C365 H352 0.930 . S
C365 C364 1.376 . S
C365 C366 1.388 . S
C366 H353 0.930 . S
C366 C365 1.388 . S
C366 C367 1.390 . S
C367 C366 1.390 . S
C367 C368 1.394 . S
C367 C373 1.465 . S
C368 C363 1.399 . S
C368 C367 1.394 . S
C368 C369 1.516 . S
C369 C368 1.516 . S
C369 C370 1.502 . S
C369 C371 1.561 . S
C369 C372 1.526 . S
C370 H354 0.959 . S
C370 H355 0.959 . S
C370 H356 0.961 . S
C370 C369 1.502 . S
C371 H357 0.960 . S
C371 H358 0.961 . S
C371 H359 0.959 . S
C371 C369 1.561 . S
C372 C369 1.526 . S
C372 C373 1.396 . S
C372 C377 1.390 . S
C373 C367 1.465 . S
C373 C372 1.396 . S
C373 C374 1.399 . S
C374 H360 0.929 . S
C374 C373 1.399 . S
C374 C375 1.385 . S
C375 H361 0.931 . S
C375 C374 1.385 . S
C375 C376 1.389 . S
C376 C375 1.389 . S
C376 C377 1.387 . S
C377 H362 0.930 . S
C377 C372 1.390 . S
C377 C376 1.387 . S
H378 C390 0.930 . S
H379 C392 0.930 . S
H380 C393 0.930 . S
H381 C397 0.959 . S
H382 C397 0.959 . S
H383 C397 0.961 . S
H384 C398 0.960 . S
H385 C398 0.961 . S
H386 C398 0.959 . S
H387 C401 0.929 . S
H388 C402 0.931 . S
H389 C404 0.930 . S
C390 H378 0.930 . S
C390 C391 1.399 . S
C390 C395 1.399 . S
C391 C390 1.399 . S
C391 C392 1.376 . S
C392 H379 0.930 . S
C392 C391 1.376 . S
C392 C393 1.388 . S
C393 H380 0.930 . S
C393 C392 1.388 . S
C393 C394 1.390 . S
C394 C393 1.390 . S
C394 C395 1.394 . S
C394 C400 1.465 . S
C395 C390 1.399 . S
C395 C394 1.394 . S
C395 C396 1.516 . S
C396 C395 1.516 . S
C396 C397 1.502 . S
C396 C398 1.561 . S
C396 C399 1.526 . S
C397 H381 0.959 . S
C397 H382 0.959 . S
C397 H383 0.961 . S
C397 C396 1.502 . S
C398 H384 0.960 . S
C398 H385 0.961 . S
C398 H386 0.959 . S
C398 C396 1.561 . S
C399 C396 1.526 . S
C399 C400 1.396 . S
C399 C404 1.390 . S
C400 C394 1.465 . S
C400 C399 1.396 . S
C400 C401 1.399 . S
C401 H387 0.929 . S
C401 C400 1.399 . S
C401 C402 1.385 . S
C402 H388 0.931 . S
C402 C401 1.385 . S
C402 C403 1.389 . S
C403 C402 1.389 . S
C403 C404 1.387 . S
C404 H389 0.930 . S
C404 C399 1.390 . S
C404 C403 1.387 . S
H405 C417 0.930 . S
H406 C419 0.930 . S
H407 C420 0.930 . S
H408 C424 0.959 . S
H409 C424 0.959 . S
H410 C424 0.961 . S
H411 C425 0.960 . S
H412 C425 0.961 . S
H413 C425 0.959 . S
H414 C428 0.929 . S
H415 C429 0.931 . S
H416 C431 0.930 . S
C417 H405 0.930 . S
C417 C418 1.399 . S
C417 C422 1.399 . S
C418 C417 1.399 . S
C418 C419 1.376 . S
C419 H406 0.930 . S
C419 C418 1.376 . S
C419 C420 1.388 . S
C420 H407 0.930 . S
C420 C419 1.388 . S
C420 C421 1.390 . S
C421 C420 1.390 . S
C421 C422 1.394 . S
C421 C427 1.465 . S
C422 C417 1.399 . S
C422 C421 1.394 . S
C422 C423 1.516 . S
C423 C422 1.516 . S
C423 C424 1.502 . S
C423 C425 1.561 . S
C423 C426 1.526 . S
C424 H408 0.959 . S
C424 H409 0.959 . S
C424 H410 0.961 . S
C424 C423 1.502 . S
C425 H411 0.960 . S
C425 H412 0.961 . S
C425 H413 0.959 . S
C425 C423 1.561 . S
C426 C423 1.526 . S
C426 C427 1.396 . S
C426 C431 1.390 . S
C427 C421 1.465 . S
C427 C426 1.396 . S
C427 C428 1.399 . S
C428 H414 0.929 . S
C428 C427 1.399 . S
C428 C429 1.385 . S
C429 H415 0.931 . S
C429 C428 1.385 . S
C429 C430 1.389 . S
C430 C429 1.389 . S
C430 C431 1.387 . S
C431 H416 0.930 . S
C431 C426 1.390 . S
C431 C430 1.387 . S
H432 C444 0.930 . S
H433 C446 0.930 . S
H434 C447 0.930 . S
H435 C451 0.959 . S
H436 C451 0.959 . S
H437 C451 0.961 . S
H438 C452 0.960 . S
H439 C452 0.961 . S
H440 C452 0.959 . S
H441 C455 0.929 . S
H442 C456 0.931 . S
H443 C458 0.930 . S
C444 H432 0.930 . S
C444 C445 1.399 . S
C444 C449 1.399 . S
C445 C444 1.399 . S
C445 C446 1.376 . S
C446 H433 0.930 . S
C446 C445 1.376 . S
C446 C447 1.388 . S
C447 H434 0.930 . S
C447 C446 1.388 . S
C447 C448 1.390 . S
C448 C447 1.390 . S
C448 C449 1.394 . S
C448 C454 1.465 . S
C449 C444 1.399 . S
C449 C448 1.394 . S
C449 C450 1.516 . S
C450 C449 1.516 . S
C450 C451 1.502 . S
C450 C452 1.561 . S
C450 C453 1.526 . S
C451 H435 0.959 . S
C451 H436 0.959 . S
C451 H437 0.961 . S
C451 C450 1.502 . S
C452 H438 0.960 . S
C452 H439 0.961 . S
C452 H440 0.959 . S
C452 C450 1.561 . S
C453 C450 1.526 . S
C453 C454 1.396 . S
C453 C458 1.390 . S
C454 C448 1.465 . S
C454 C453 1.396 . S
C454 C455 1.399 . S
C455 H441 0.929 . S
C455 C454 1.399 . S
C455 C456 1.385 . S
C456 H442 0.931 . S
C456 C455 1.385 . S
C456 C457 1.389 . S
C457 C456 1.389 . S
C457 C458 1.387 . S
C458 H443 0.930 . S
C458 C453 1.390 . S
C458 C457 1.387 . S
H459 C471 0.930 . S
H460 C473 0.930 . S
H461 C474 0.930 . S
H462 C478 0.959 . S
H463 C478 0.959 . S
H464 C478 0.961 . S
H465 C479 0.960 . S
H466 C479 0.961 . S
H467 C479 0.959 . S
H468 C482 0.929 . S
H469 C483 0.931 . S
H470 C485 0.930 . S
C471 H459 0.930 . S
C471 C472 1.399 . S
C471 C476 1.399 . S
C472 C471 1.399 . S
C472 C473 1.376 . S
C473 H460 0.930 . S
C473 C472 1.376 . S
C473 C474 1.388 . S
C474 H461 0.930 . S
C474 C473 1.388 . S
C474 C475 1.390 . S
C475 C474 1.390 . S
C475 C476 1.394 . S
C475 C481 1.465 . S
C476 C471 1.399 . S
C476 C475 1.394 . S
C476 C477 1.516 . S
C477 C476 1.516 . S
C477 C478 1.502 . S
C477 C479 1.561 . S
C477 C480 1.526 . S
C478 H462 0.959 . S
C478 H463 0.959 . S
C478 H464 0.961 . S
C478 C477 1.502 . S
C479 H465 0.960 . S
C479 H466 0.961 . S
C479 H467 0.959 . S
C479 C477 1.561 . S
C480 C477 1.526 . S
C480 C481 1.396 . S
C480 C485 1.390 . S
C481 C475 1.465 . S
C481 C480 1.396 . S
C481 C482 1.399 . S
C482 H468 0.929 . S
C482 C481 1.399 . S
C482 C483 1.385 . S
C483 H469 0.931 . S
C483 C482 1.385 . S
C483 C484 1.389 . S
C484 C483 1.389 . S
C484 C485 1.387 . S
C485 H470 0.930 . S
C485 C480 1.390 . S
C485 C484 1.387 . S
H486 C498 0.930 . S
H487 C500 0.930 . S
H488 C501 0.930 . S
H489 C505 0.959 . S
H490 C505 0.959 . S
H491 C505 0.961 . S
H492 C506 0.960 . S
H493 C506 0.961 . S
H494 C506 0.959 . S
H495 C509 0.929 . S
H496 C510 0.931 . S
H497 C512 0.930 . S
C498 H486 0.930 . S
C498 C499 1.399 . S
C498 C503 1.399 . S
C499 C498 1.399 . S
C499 C500 1.376 . S
C500 H487 0.930 . S
C500 C499 1.376 . S
C500 C501 1.388 . S
C501 H488 0.930 . S
C501 C500 1.388 . S
C501 C502 1.390 . S
C502 C501 1.390 . S
C502 C503 1.394 . S
C502 C508 1.465 . S
C503 C498 1.399 . S
C503 C502 1.394 . S
C503 C504 1.516 . S
C504 C503 1.516 . S
C504 C505 1.502 . S
C504 C506 1.561 . S
C504 C507 1.526 . S
C505 H489 0.959 . S
C505 H490 0.959 . S
C505 H491 0.961 . S
C505 C504 1.502 . S
C506 H492 0.960 . S
C506 H493 0.961 . S
C506 H494 0.959 . S
C506 C504 1.561 . S
C507 C504 1.526 . S
C507 C508 1.396 . S
C507 C512 1.390 . S
C508 C502 1.465 . S
C508 C507 1.396 . S
C508 C509 1.399 1_556 S
C509 H495 0.929 . S
C509 C508 1.399 1_554 S
C509 C510 1.385 . S
C510 H496 0.931 . S
C510 C509 1.385 . S
C510 C511 1.389 . S
C511 C510 1.389 . S
C511 C512 1.387 1_554 S
C512 H497 0.930 . S
C512 C507 1.390 . S
C512 C511 1.387 1_556 S
H513 C525 0.930 . S
H514 C527 0.930 . S
H515 C528 0.930 . S
H516 C532 0.959 1_554 S
H517 C532 0.959 . S
H518 C532 0.961 . S
H519 C533 0.960 1_556 S
H520 C533 0.961 . S
H521 C533 0.959 . S
H522 C536 0.929 . S
H523 C537 0.931 . S
H524 C539 0.930 . S
C525 H513 0.930 . S
C525 C526 1.399 1_556 S
C525 C530 1.399 1_556 S
C526 C525 1.399 1_554 S
C526 C527 1.376 . S
C527 H514 0.930 . S
C527 C526 1.376 . S
C527 C528 1.388 . S
C528 H515 0.930 . S
C528 C527 1.388 . S
C528 C529 1.390 . S
C529 C528 1.390 . S
C529 C530 1.394 . S
C529 C535 1.465 . S
C530 C525 1.399 1_554 S
C530 C529 1.394 . S
C530 C531 1.516 . S
C531 C530 1.516 . S
C531 C532 1.502 1_554 S
C531 C533 1.561 . S
C531 C534 1.526 . S
C532 H516 0.959 1_556 S
C532 H517 0.959 . S
C532 H518 0.961 . S
C532 C531 1.502 1_556 S
C533 H519 0.960 1_554 S
C533 H520 0.961 . S
C533 H521 0.959 . S
C533 C531 1.561 . S
C534 C531 1.526 . S
C534 C535 1.396 . S
C534 C539 1.390 . S
C535 C529 1.465 . S
C535 C534 1.396 . S
C535 C536 1.399 . S
C536 H522 0.929 . S
C536 C535 1.399 . S
C536 C537 1.385 . S
C537 H523 0.931 . S
C537 C536 1.385 . S
C537 C538 1.389 . S
C538 C537 1.389 . S
C538 C539 1.387 . S
C539 H524 0.930 . S
C539 C534 1.390 . S
C539 C538 1.387 . S
C229 C4 1.264 . S
C241 C122 1.207 . S
C256 C158 1.219 . S
C268 C40 1.191 . S
C283 C76 1.261 . S
C295 C194 1.202 1_554 S
C310 C112 1.241 . S
C322 C14 1.188 . S
C337 C50 1.249 . S
C349 C148 1.191 . S
C364 C184 1.256 . S
C376 C86 1.196 . S
C391 C3 1.252 . S
C403 C74 1.262 . S
C418 C39 1.225 . S
C430 C110 1.252 . S
C445 C146 1.249 . S
C457 C75 1.224 . S
C472 C182 1.239 . S
C484 C111 1.268 . S
C499 C147 1.221 . S
C511 C2 1.225 . S
C526 C183 1.226 1_554 S
C538 C38 1.253 . S
