# Generated by pormake.
# Topology uof, (4)-cn, num edge types: 1
# Building blocks:
#     Node 0, Type 0, BuildingBlock: GALJAG_clean_sbu_0, # of connection points: 4
#     Node 1, Type 0, BuildingBlock: GALJAG_clean_sbu_0, # of connection points: 4
#     Node 2, Type 0, BuildingBlock: GALJAG_clean_sbu_0, # of connection points: 4
#     Node 3, Type 0, BuildingBlock: GALJAG_clean_sbu_0, # of connection points: 4
#     Node 4, Type 0, BuildingBlock: GALJAG_clean_sbu_0, # of connection points: 4
#     Node 5, Type 0, BuildingBlock: GALJAG_clean_sbu_0, # of connection points: 4
#     Node 6, Type 0, BuildingBlock: GALJAG_clean_sbu_0, # of connection points: 4
#     Node 7, Type 0, BuildingBlock: GALJAG_clean_sbu_0, # of connection points: 4
#     Node 8, Type 0, BuildingBlock: GALJAG_clean_sbu_0, # of connection points: 4
#     Node 9, Type 0, BuildingBlock: GALJAG_clean_sbu_0, # of connection points: 4
#     Node 10, Type 0, BuildingBlock: GALJAG_clean_sbu_0, # of connection points: 4
#     Node 11, Type 0, BuildingBlock: GALJAG_clean_sbu_0, # of connection points: 4
#     Edge 12, Type (0, 0), BuildingBlock: MIFKUJ_clean_linker_0, # of connection points: 2
#     Edge 13, Type (0, 0), BuildingBlock: MIFKUJ_clean_linker_0, # of connection points: 2
#     Edge 14, Type (0, 0), BuildingBlock: MIFKUJ_clean_linker_0, # of connection points: 2
#     Edge 15, Type (0, 0), BuildingBlock: MIFKUJ_clean_linker_0, # of connection points: 2
#     Edge 16, Type (0, 0), BuildingBlock: MIFKUJ_clean_linker_0, # of connection points: 2
#     Edge 17, Type (0, 0), BuildingBlock: MIFKUJ_clean_linker_0, # of connection points: 2
#     Edge 18, Type (0, 0), BuildingBlock: MIFKUJ_clean_linker_0, # of connection points: 2
#     Edge 19, Type (0, 0), BuildingBlock: MIFKUJ_clean_linker_0, # of connection points: 2
#     Edge 20, Type (0, 0), BuildingBlock: MIFKUJ_clean_linker_0, # of connection points: 2
#     Edge 21, Type (0, 0), BuildingBlock: MIFKUJ_clean_linker_0, # of connection points: 2
#     Edge 22, Type (0, 0), BuildingBlock: MIFKUJ_clean_linker_0, # of connection points: 2
#     Edge 23, Type (0, 0), BuildingBlock: MIFKUJ_clean_linker_0, # of connection points: 2
#     Edge 24, Type (0, 0), BuildingBlock: MIFKUJ_clean_linker_0, # of connection points: 2
#     Edge 25, Type (0, 0), BuildingBlock: MIFKUJ_clean_linker_0, # of connection points: 2
#     Edge 26, Type (0, 0), BuildingBlock: MIFKUJ_clean_linker_0, # of connection points: 2
#     Edge 27, Type (0, 0), BuildingBlock: MIFKUJ_clean_linker_0, # of connection points: 2
#     Edge 28, Type (0, 0), BuildingBlock: MIFKUJ_clean_linker_0, # of connection points: 2
#     Edge 29, Type (0, 0), BuildingBlock: MIFKUJ_clean_linker_0, # of connection points: 2
#     Edge 30, Type (0, 0), BuildingBlock: MIFKUJ_clean_linker_0, # of connection points: 2
#     Edge 31, Type (0, 0), BuildingBlock: MIFKUJ_clean_linker_0, # of connection points: 2
#     Edge 32, Type (0, 0), BuildingBlock: MIFKUJ_clean_linker_0, # of connection points: 2
#     Edge 33, Type (0, 0), BuildingBlock: MIFKUJ_clean_linker_0, # of connection points: 2
#     Edge 34, Type (0, 0), BuildingBlock: MIFKUJ_clean_linker_0, # of connection points: 2
#     Edge 35, Type (0, 0), BuildingBlock: MIFKUJ_clean_linker_0, # of connection points: 2
# Relax obj value: 0.137
# Max RMSD: 0.110
# Mean RMSD: 0.110
data_MOF--net-uof--node1-GALJAG_clean_sbu_0--edge1-MIFKUJ_clean_linker_0
_symmetry_space_group_name_H-M    P1
_symmetry_Int_Tables_number       1
_symmetry_cell_setting            triclinic
loop_
_symmetry_equiv_pos_as_xyz
'x, y, z'
_cell_length_a     40.692552
_cell_length_b     40.659807
_cell_length_c     88.51391
_cell_angle_alpha  90.052413
_cell_angle_beta   89.998035
_cell_angle_gamma 119.96581
loop_
_atom_site_label
_atom_site_type_symbol
_atom_site_fract_x
_atom_site_fract_y
_atom_site_fract_z
_atom_type_partial_charge
In0 In 0.23856 0.31562 0.23144 0.0
O1 O 0.28743 0.3658 0.21886 0.0
O2 O 0.28532 0.37029 0.24254 0.0
C3 C 0.16928 0.29813 0.21965 0.0
C4 C 0.22908 0.29145 0.26045 0.0
C5 C 0.26501 0.27779 0.21522 0.0
O6 O 0.19479 0.332 0.22228 0.0
O7 O 0.17808 0.27389 0.22371 0.0
O8 O 0.26598 0.27892 0.22945 0.0
O9 O 0.25058 0.29569 0.20914 0.0
C10 C 0.30367 0.38451 0.23057 0.0
O11 O 0.2347 0.2746 0.24964 0.0
O12 O 0.22603 0.3198 0.25657 0.0
In13 In 0.91446 0.22854 0.56488 0.0
O14 O 0.90166 0.27794 0.56293 0.0
O15 O 0.95894 0.29059 0.56187 0.0
C16 C 0.85147 0.16765 0.55284 0.0
C17 C 0.91929 0.2238 0.59527 0.0
C18 C 0.96746 0.22327 0.54863 0.0
O19 O 0.8648 0.201 0.54786 0.0
O20 O 0.86752 0.16569 0.56471 0.0
O21 O 0.96836 0.225 0.56286 0.0
O22 O 0.94016 0.22473 0.54261 0.0
C23 C 0.93629 0.30323 0.56175 0.0
O24 O 0.93031 0.20765 0.58606 0.0
O25 O 0.90337 0.24041 0.58923 0.0
In26 In 0.69146 0.91391 0.90007 0.0
O27 O 0.72653 0.92992 0.92178 0.0
O28 O 0.66678 0.90296 0.92417 0.0
C29 C 0.74846 0.97147 0.88502 0.0
C30 C 0.63631 0.93229 0.89596 0.0
C31 C 0.69446 0.85366 0.88756 0.0
O32 O 0.74711 0.97006 0.89926 0.0
O33 O 0.721 0.94396 0.87843 0.0
O34 O 0.66977 0.86225 0.88378 0.0
O35 O 0.71485 0.87297 0.89847 0.0
C36 C 0.69872 0.91889 0.93063 0.0
O37 O 0.62841 0.89883 0.89936 0.0
O38 O 0.67121 0.95529 0.89433 0.0
In39 In 0.78009 0.68539 0.23334 0.0
O40 O 0.78654 0.727 0.2519 0.0
O41 O 0.77962 0.67393 0.25887 0.0
C42 C 0.77532 0.73674 0.21588 0.0
C43 C 0.70978 0.62302 0.22982 0.0
C44 C 0.84705 0.69224 0.22353 0.0
O45 O 0.76494 0.73153 0.22953 0.0
O46 O 0.78734 0.71553 0.21101 0.0
O47 O 0.81538 0.66309 0.22081 0.0
O48 O 0.8449 0.71548 0.2323 0.0
C49 C 0.78302 0.70544 0.26277 0.0
O50 O 0.72411 0.65018 0.22063 0.0
O51 O 0.73177 0.62581 0.24042 0.0
In52 In 0.09475 0.78013 0.56513 0.0
O53 O 0.11003 0.73231 0.56449 0.0
O54 O 0.05573 0.71991 0.55677 0.0
C55 C 0.15718 0.83758 0.55135 0.0
C56 C 0.0895 0.7853 0.59557 0.0
C57 C 0.03833 0.78617 0.5519 0.0
O58 O 0.13809 0.80466 0.54584 0.0
O59 O 0.1471 0.84067 0.56454 0.0
O60 O 0.03284 0.76562 0.56335 0.0
O61 O 0.07204 0.80357 0.54725 0.0
C62 C 0.07797 0.70753 0.55946 0.0
O63 O 0.08024 0.80281 0.58631 0.0
O64 O 0.1041 0.76745 0.58956 0.0
In65 In 0.31592 0.08992 0.89958 0.0
O66 O 0.37924 0.10595 0.89773 0.0
O67 O 0.33683 0.04783 0.89964 0.0
C68 C 0.30978 0.14891 0.88789 0.0
C69 C 0.30167 0.0839 0.92967 0.0
C70 C 0.26828 0.03645 0.88026 0.0
O71 O 0.33911 0.14613 0.8859 0.0
O72 O 0.28588 0.12426 0.8967 0.0
O73 O 0.26327 0.03361 0.89437 0.0
O74 O 0.29746 0.06622 0.87588 0.0
C75 C 0.37165 0.07168 0.89849 0.0
O76 O 0.27604 0.06871 0.9198 0.0
O77 O 0.33473 0.10429 0.92441 0.0
In78 In 0.69127 0.77937 0.44293 0.0
O79 O 0.62833 0.73132 0.44445 0.0
O80 O 0.67098 0.71677 0.44039 0.0
C81 C 0.68721 0.8365 0.45773 0.0
C82 C 0.70689 0.78761 0.41298 0.0
C83 C 0.74647 0.78006 0.4598 0.0
O84 O 0.67557 0.80401 0.46326 0.0
O85 O 0.69757 0.8393 0.44413 0.0
O86 O 0.75355 0.80159 0.44855 0.0
O87 O 0.71175 0.75819 0.46241 0.0
C88 C 0.63619 0.70519 0.44221 0.0
O89 O 0.73164 0.79495 0.42302 0.0
O90 O 0.67425 0.77819 0.41805 0.0
In91 In 0.9173 0.69386 0.77435 0.0
O92 O 0.90331 0.6311 0.77502 0.0
O93 O 0.96077 0.67487 0.77708 0.0
C94 C 0.85551 0.69301 0.78729 0.0
C95 C 0.92322 0.70409 0.74398 0.0
C96 C 0.97326 0.75086 0.79013 0.0
O97 O 0.87122 0.71109 0.77542 0.0
O98 O 0.86867 0.67258 0.79192 0.0
O99 O 0.96839 0.75329 0.7762 0.0
O100 O 0.9498 0.71971 0.79611 0.0
C101 C 0.93769 0.63971 0.77652 0.0
O102 O 0.93545 0.73109 0.75332 0.0
O103 O 0.90558 0.67144 0.74988 0.0
In104 In 0.23187 0.92549 0.1091 0.0
O105 O 0.27654 0.90731 0.1143 0.0
O106 O 0.29357 0.95868 0.10237 0.0
C107 C 0.16717 0.87344 0.12366 0.0
C108 C 0.21723 0.92716 0.07929 0.0
C109 C 0.25353 0.98668 0.1267 0.0
O110 O 0.19169 0.86508 0.11918 0.0
O111 O 0.17478 0.90649 0.12019 0.0
O112 O 0.2403 0.98408 0.11358 0.0
O113 O 0.25537 0.95808 0.13106 0.0
C114 C 0.30337 0.93656 0.1081 0.0
O115 O 0.21199 0.94648 0.08913 0.0
O116 O 0.22714 0.90456 0.08458 0.0
In117 In 0.31813 0.22792 0.444 0.0
O118 O 0.28847 0.24037 0.42509 0.0
O119 O 0.32457 0.21907 0.41854 0.0
C120 C 0.2591 0.2166 0.46122 0.0
C121 C 0.3757 0.30081 0.44686 0.0
C122 C 0.32078 0.16717 0.45579 0.0
O123 O 0.25505 0.20538 0.44769 0.0
O124 O 0.29284 0.23358 0.46596 0.0
O125 O 0.34153 0.20068 0.4605 0.0
O126 O 0.30157 0.16485 0.44424 0.0
C127 C 0.30261 0.23105 0.4144 0.0
O128 O 0.38092 0.27541 0.44095 0.0
O129 O 0.34253 0.28891 0.45164 0.0
In130 In 0.08623 0.31193 0.77478 0.0
O131 O 0.06451 0.27361 0.75401 0.0
O132 O 0.10238 0.33209 0.75012 0.0
C133 C 0.03078 0.26539 0.79352 0.0
C134 C 0.06971 0.3688 0.77679 0.0
C135 C 0.14157 0.30111 0.78734 0.0
O136 O 0.02977 0.25931 0.77948 0.0
O137 O 0.05964 0.29535 0.79808 0.0
O138 O 0.14483 0.33374 0.78681 0.0
O139 O 0.11277 0.27586 0.78059 0.0
C140 C 0.08102 0.29972 0.74445 0.0
O141 O 0.10369 0.37555 0.77742 0.0
O142 O 0.0453 0.33423 0.77525 0.0
In143 In 0.77884 0.08818 0.11086 0.0
O144 O 0.79221 0.06394 0.09001 0.0
O145 O 0.76862 0.09947 0.08626 0.0
C146 C 0.78028 0.03323 0.12711 0.0
C147 C 0.70516 0.07006 0.11346 0.0
C148 C 0.84037 0.14966 0.12363 0.0
O149 O 0.78994 0.03889 0.11339 0.0
O150 O 0.76969 0.05511 0.13255 0.0
O151 O 0.80687 0.13737 0.12813 0.0
O152 O 0.84247 0.13352 0.11182 0.0
C153 C 0.77976 0.07821 0.08055 0.0
O154 O 0.73082 0.10293 0.10951 0.0
O155 O 0.71692 0.04732 0.11625 0.0
H156 H 0.84219 0.17864 0.15179 0.0
H157 H 0.89687 0.21123 0.16871 0.0
H158 H 0.96985 0.2092 0.13384 0.0
H159 H 0.91535 0.17689 0.11686 0.0
H160 H 0.93927 0.18518 0.17991 0.0
H161 H 0.06035 0.2826 0.13869 0.0
H162 H 0.06918 0.32111 0.11592 0.0
H163 H 0.97263 0.33143 0.12817 0.0
H164 H 0.96353 0.29346 0.15111 0.0
H165 H 0.11663 0.22749 0.21 0.0
H166 H 0.06051 0.20902 0.19457 0.0
H167 H 0.08373 0.32479 0.19468 0.0
H168 H 0.14116 0.34376 0.20979 0.0
H169 H 0.0634 0.29798 0.16766 0.0
H170 H 0.00969 0.25041 0.2162 0.0
H171 H 0.99823 0.21493 0.24002 0.0
H172 H 0.95559 0.11068 0.21521 0.0
H173 H 0.9674 0.14558 0.19122 0.0
C174 C 0.87002 0.18591 0.14759 0.0
C175 C 0.87431 0.17523 0.13291 0.0
C176 C 0.90129 0.20433 0.15734 0.0
C177 C 0.93773 0.21285 0.15263 0.0
C178 C 0.94228 0.2035 0.13776 0.0
C179 C 0.91099 0.18497 0.12803 0.0
C180 C 0.97033 0.22901 0.16353 0.0
C181 C 0.96636 0.20992 0.17723 0.0
C182 C 1.00564 0.26175 0.16027 0.0
C183 C 0.01107 0.28486 0.14655 0.0
C184 C 0.04109 0.2932 0.13656 0.0
C185 C 0.04613 0.31492 0.12361 0.0
C186 C 0.02142 0.32861 0.12058 0.0
C187 C 0.99167 0.32069 0.1305 0.0
C188 C 0.98652 0.29902 0.14346 0.0
C189 C 0.1097 0.24908 0.2069 0.0
C190 C 0.13339 0.28714 0.21127 0.0
C191 C 0.07732 0.23838 0.19807 0.0
C192 C 0.06713 0.26524 0.19357 0.0
C193 C 0.09068 0.30335 0.19799 0.0
C194 C 0.12345 0.31418 0.20673 0.0
C195 C 0.03266 0.25354 0.1839 0.0
C196 C 0.03627 0.27337 0.1704 0.0
C197 C 0.99675 0.22179 0.18746 0.0
C198 C 0.98977 0.20071 0.20189 0.0
C199 C 0.99818 0.21997 0.21581 0.0
C200 C 0.99158 0.19994 0.22935 0.0
C201 C 0.9763 0.16059 0.22913 0.0
C202 C 0.96751 0.14117 0.21537 0.0
C203 C 0.97413 0.16106 0.20179 0.0
H204 H 0.97118 0.14515 0.23963 0.0
H205 H 0.02536 0.3454 0.11055 0.0
H206 H 0.8231 0.16428 0.52438 0.0
H207 H 0.78876 0.10813 0.50833 0.0
H208 H 0.78572 0.03697 0.54504 0.0
H209 H 0.8207 0.0931 0.56101 0.0
H210 H 0.80957 0.01938 0.52066 0.0
H211 H 0.70444 0.03778 0.5315 0.0
H212 H 0.67003 0.07327 0.5331 0.0
H213 H 0.68133 0.09193 0.48518 0.0
H214 H 0.71627 0.05697 0.48332 0.0
H215 H 0.68482 0.83986 0.48848 0.0
H216 H 0.707 0.89629 0.50436 0.0
H217 H 0.7295 0.96555 0.46465 0.0
H218 H 0.70806 0.90907 0.44858 0.0
H219 H 0.69513 0.98466 0.48973 0.0
H220 H 0.79874 0.96448 0.47901 0.0
H221 H 0.8337 0.92959 0.47757 0.0
H222 H 0.82666 0.9157 0.52575 0.0
H223 H 0.79034 0.94922 0.52744 0.0
C224 C 0.81437 0.1366 0.52916 0.0
C225 C 0.82463 0.13328 0.54403 0.0
C226 C 0.79466 0.10438 0.51993 0.0
C227 C 0.78438 0.06798 0.5254 0.0
C228 C 0.79333 0.06458 0.54046 0.0
C229 C 0.81315 0.09676 0.54965 0.0
C230 C 0.76679 0.03388 0.51522 0.0
C231 C 0.78414 0.01151 0.51413 0.0
C232 C 0.7343 0.02405 0.50622 0.0
C233 C 0.71331 0.04508 0.5073 0.0
C234 C 0.69987 0.04972 0.52132 0.0
C235 C 0.68021 0.06969 0.52227 0.0
C236 C 0.67359 0.08493 0.50925 0.0
C237 C 0.68653 0.08015 0.49525 0.0
C238 C 0.70623 0.06023 0.49424 0.0
C239 C 0.6938 0.86694 0.48308 0.0
C240 C 0.6946 0.86986 0.46722 0.0
C241 C 0.70667 0.89927 0.49221 0.0
C242 C 0.72024 0.93529 0.48573 0.0
C243 C 0.71917 0.93809 0.46992 0.0
C244 C 0.70687 0.90577 0.46075 0.0
C245 C 0.73761 0.97003 0.49546 0.0
C246 C 0.7204 0.99253 0.49637 0.0
C247 C 0.77023 0.98001 0.50435 0.0
C248 C 0.79124 0.9589 0.50332 0.0
C249 C 0.80399 0.95338 0.48928 0.0
C250 C 0.82412 0.93388 0.48842 0.0
C251 C 0.83222 0.92025 0.50155 0.0
C252 C 0.82017 0.92606 0.51557 0.0
C253 C 0.79968 0.9452 0.51648 0.0
H254 H 0.848 0.90536 0.50087 0.0
H255 H 0.65836 0.10038 0.51001 0.0
H256 H 0.65629 0.80948 0.8629 0.0
H257 H 0.67723 0.77557 0.84596 0.0
H258 H 0.7752 0.80836 0.87413 0.0
H259 H 0.75429 0.84168 0.89113 0.0
H260 H 0.79401 0.82518 0.84386 0.0
H261 H 0.70576 0.71851 0.87398 0.0
H262 H 0.64335 0.67511 0.88523 0.0
H263 H 0.59399 0.6438 0.84097 0.0
H264 H 0.65603 0.68743 0.82946 0.0
H265 H 0.82372 0.66339 0.81491 0.0
H266 H 0.78962 0.68438 0.8316 0.0
H267 H 0.79394 0.76127 0.79714 0.0
H268 H 0.82824 0.74067 0.78048 0.0
H269 H 0.72301 0.68823 0.83074 0.0
H270 H 0.81397 0.84448 0.81422 0.0
H271 H 0.87588 0.88695 0.80236 0.0
H272 H 0.92042 0.81879 0.82004 0.0
H273 H 0.85892 0.77623 0.8322 0.0
C274 C 0.68187 0.80879 0.86565 0.0
C275 C 0.70349 0.82825 0.87844 0.0
C276 C 0.69389 0.78946 0.85592 0.0
C277 C 0.72795 0.78946 0.8587 0.0
C278 C 0.74894 0.808 0.87168 0.0
C279 C 0.73675 0.82687 0.88147 0.0
C280 C 0.7429 0.77192 0.84778 0.0
C281 C 0.77836 0.79523 0.84099 0.0
C282 C 0.7227 0.73284 0.84396 0.0
C283 C 0.68545 0.70652 0.85086 0.0
C284 C 0.68153 0.70262 0.86665 0.0
C285 C 0.64624 0.67792 0.87307 0.0
C286 C 0.6147 0.65679 0.86382 0.0
C287 C 0.61843 0.66023 0.84813 0.0
C288 C 0.65365 0.6849 0.84164 0.0
C289 C 0.81673 0.68419 0.81076 0.0
C290 C 0.82894 0.70043 0.79635 0.0
C291 C 0.79718 0.69619 0.82034 0.0
C292 C 0.78962 0.72488 0.81577 0.0
C293 C 0.79982 0.73949 0.80105 0.0
C294 C 0.81932 0.72751 0.79148 0.0
C295 C 0.77393 0.74159 0.82675 0.0
C296 C 0.73848 0.7182 0.83355 0.0
C297 C 0.79407 0.78068 0.8306 0.0
C298 C 0.83174 0.807 0.82398 0.0
C299 C 0.83707 0.83874 0.81567 0.0
C300 C 0.87205 0.86278 0.80888 0.0
C301 C 0.90198 0.85545 0.81038 0.0
C302 C 0.89715 0.82433 0.81884 0.0
C303 C 0.86223 0.80024 0.82568 0.0
H304 H 0.92889 0.87391 0.80498 0.0
H305 H 0.58741 0.63768 0.86882 0.0
H306 H 0.91347 0.75967 0.22394 0.0
H307 H 0.96686 0.78148 0.2065 0.0
H308 H 0.91461 0.67088 0.18576 0.0
H309 H 0.86014 0.64889 0.203 0.0
H310 H 0.00794 0.72231 0.19369 0.0
H311 H 0.89987 0.71338 0.16549 0.0
H312 H 0.8456 0.72424 0.16319 0.0
H313 H 0.91988 0.84383 0.16979 0.0
H314 H 0.9745 0.83355 0.1724 0.0
H315 H 0.1358 0.79683 0.13023 0.0
H316 H 0.08063 0.75785 0.14643 0.0
H317 H 0.0691 0.85594 0.15546 0.0
H318 H 0.12237 0.89394 0.13889 0.0
H319 H 1.0035 0.80189 0.15218 0.0
H320 H 0.10965 0.81563 0.18126 0.0
H321 H 0.16635 0.81032 0.1865 0.0
H322 H 0.10059 0.68929 0.18116 0.0
H323 H 0.04356 0.69396 0.1757 0.0
C324 C 0.91355 0.73959 0.21591 0.0
C325 C 0.88237 0.70245 0.2149 0.0
C326 C 0.94417 0.75221 0.20591 0.0
C327 C 0.94473 0.7279 0.1948 0.0
C328 C 0.91483 0.6901 0.19429 0.0
C329 C 0.88373 0.67756 0.20417 0.0
C330 C 0.97482 0.74348 0.18295 0.0
C331 C 0.00675 0.73906 0.18439 0.0
C332 C 0.97383 0.76634 0.17114 0.0
C333 C 0.94117 0.77264 0.16928 0.0
C334 C 0.90456 0.74194 0.16658 0.0
C335 C 0.87376 0.74799 0.1652 0.0
C336 C 0.87928 0.78469 0.16637 0.0
C337 C 0.91564 0.81542 0.1689 0.0
C338 C 0.94653 0.80949 0.17032 0.0
C339 C 0.12126 0.80988 0.13562 0.0
C340 C 0.13351 0.84851 0.13319 0.0
C341 C 0.08983 0.78765 0.145 0.0
C342 C 0.07054 0.8038 0.15243 0.0
C343 C 0.08294 0.84238 0.14989 0.0
C344 C 0.11369 0.86426 0.14038 0.0
C345 C 0.03747 0.78125 0.16282 0.0
C346 C 1.00481 0.78459 0.16121 0.0
C347 C 0.03827 0.75805 0.17465 0.0
C348 C 0.07249 0.7552 0.17788 0.0
C349 C 0.10736 0.78793 0.18108 0.0
C350 C 0.13954 0.78502 0.18411 0.0
C351 C 0.1371 0.7495 0.18411 0.0
C352 C 0.10245 0.7168 0.18112 0.0
C353 C 0.07019 0.71955 0.17806 0.0
H354 H 0.16204 0.74731 0.18646 0.0
H355 H 0.85543 0.78934 0.16527 0.0
H356 H 0.27964 0.09237 0.44747 0.0
H357 H 0.25898 0.03662 0.46359 0.0
H358 H 0.32316 0.10906 0.50074 0.0
H359 H 0.3449 0.16483 0.48448 0.0
H360 H 0.32561 0.04623 0.50269 0.0
H361 H 0.22739 0.0752 0.49633 0.0
H362 H 0.18339 0.0894 0.48252 0.0
H363 H 0.12976 0.97835 0.46248 0.0
H364 H 0.17428 0.96388 0.47582 0.0
H365 H 0.20475 0.91136 0.56044 0.0
H366 H 0.23961 0.96744 0.54421 0.0
H367 H 0.20125 0.89582 0.50474 0.0
H368 H 0.16727 0.8398 0.52081 0.0
H369 H 0.18647 0.95904 0.50485 0.0
H370 H 0.28896 0.93295 0.51302 0.0
H371 H 0.3329 0.9225 0.52876 0.0
H372 H 0.37606 0.03281 0.54871 0.0
H373 H 0.33196 0.04371 0.53323 0.0
C374 C 0.29005 0.0964 0.45897 0.0
C375 C 0.31385 0.13315 0.46467 0.0
C376 C 0.27792 0.06445 0.46826 0.0
C377 C 0.28864 0.06845 0.48357 0.0
C378 C 0.31423 0.105 0.48903 0.0
C379 C 0.32671 0.13696 0.47969 0.0
C380 C 0.27144 0.03494 0.49403 0.0
C381 C 0.29516 0.02744 0.50323 0.0
C382 C 0.23161 0.01021 0.49492 0.0
C383 C 0.2045 0.0186 0.48695 0.0
C384 C 0.20645 0.05391 0.48887 0.0
C385 C 0.18141 0.06202 0.48112 0.0
C386 C 0.15378 0.03479 0.47163 0.0
C387 C 0.1512 0.99942 0.46983 0.0
C388 C 0.1764 0.99128 0.47746 0.0
C389 C 0.20448 0.90748 0.54832 0.0
C390 C 0.18333 0.87098 0.54196 0.0
C391 C 0.22431 0.93959 0.53905 0.0
C392 C 0.22294 0.93592 0.52323 0.0
C393 C 0.20271 0.89943 0.5169 0.0
C394 C 0.18349 0.86735 0.52614 0.0
C395 C 0.24068 0.97005 0.51321 0.0
C396 C 0.21694 0.97779 0.5042 0.0
C397 C 0.2803 0.99547 0.51282 0.0
C398 C 0.30687 0.98897 0.52208 0.0
C399 C 0.30757 0.95484 0.52086 0.0
C400 C 0.33256 0.94886 0.52971 0.0
C401 C 0.35718 0.97693 0.53976 0.0
C402 C 0.35693 0.01107 0.54094 0.0
C403 C 0.33197 0.01718 0.53212 0.0
H404 H 0.37652 0.97225 0.5466 0.0
H405 H 0.13433 0.04108 0.46568 0.0
H406 H 0.3542 0.20352 0.86689 0.0
H407 H 0.33421 0.23779 0.84961 0.0
H408 H 0.22385 0.18384 0.87043 0.0
H409 H 0.24363 0.15047 0.88786 0.0
H410 H 0.24353 0.1815 0.83281 0.0
H411 H 0.24778 0.25431 0.87891 0.0
H412 H 0.28338 0.29585 0.9003 0.0
H413 H 0.36648 0.37602 0.86961 0.0
H414 H 0.33159 0.33457 0.84806 0.0
H415 H 0.12059 0.23268 0.79969 0.0
H416 H 0.15621 0.21462 0.81637 0.0
H417 H 0.25297 0.32764 0.81322 0.0
H418 H 0.21578 0.3467 0.79717 0.0
H419 H 0.25144 0.30626 0.84011 0.0
H420 H 0.24511 0.24371 0.79401 0.0
H421 H 0.21608 0.20456 0.77131 0.0
H422 H 0.1467 0.10797 0.79922 0.0
H423 H 0.17493 0.14665 0.82209 0.0
C424 C 0.326 0.1997 0.86803 0.0
C425 C 0.30063 0.17432 0.87884 0.0
C426 C 0.31458 0.21922 0.85811 0.0
C427 C 0.27757 0.21353 0.85878 0.0
C428 C 0.25263 0.18898 0.86979 0.0
C429 C 0.26409 0.16994 0.87979 0.0
C430 C 0.26338 0.23023 0.84725 0.0
C431 C 0.24505 0.20869 0.8344 0.0
C432 C 0.26671 0.26633 0.84901 0.0
C433 C 0.28743 0.29113 0.86194 0.0
C434 C 0.27389 0.28056 0.87676 0.0
C435 C 0.29387 0.30414 0.8889 0.0
C436 C 0.32726 0.33848 0.88633 0.0
C437 C 0.34067 0.34937 0.8716 0.0
C438 C 0.32081 0.32586 0.85942 0.0
C439 C 0.1496 0.25374 0.8024 0.0
C440 C 0.16552 0.29103 0.79685 0.0
C441 C 0.17019 0.24324 0.81192 0.0
C442 C 0.20804 0.26919 0.81578 0.0
C443 C 0.22403 0.30676 0.81037 0.0
C444 C 0.20286 0.31766 0.80111 0.0
C445 C 0.22997 0.25685 0.82572 0.0
C446 C 0.25002 0.2792 0.83828 0.0
C447 C 0.22892 0.22167 0.82351 0.0
C448 C 0.21202 0.19818 0.80977 0.0
C449 C 0.22352 0.21418 0.79531 0.0
C450 C 0.20721 0.19206 0.78241 0.0
C451 C 0.17952 0.15382 0.78382 0.0
C452 C 0.16815 0.1376 0.79814 0.0
C453 C 0.18434 0.15959 0.81107 0.0
H454 H 0.16692 0.13676 0.77382 0.0
H455 H 0.34268 0.35671 0.89574 0.0
H456 H 0.66171 0.60369 0.20579 0.0
H457 H 0.59276 0.56305 0.20579 0.0
H458 H 0.59593 0.53785 0.25294 0.0
H459 H 0.66525 0.57729 0.25277 0.0
H460 H 0.54311 0.47737 0.2399 0.0
H461 H 0.57402 0.60732 0.24028 0.0
H462 H 0.60519 0.67364 0.23143 0.0
H463 H 0.54761 0.63675 0.18882 0.0
H464 H 0.51647 0.57012 0.19736 0.0
H465 H 0.35007 0.41686 0.25494 0.0
H466 H 0.41898 0.45867 0.25476 0.0
H467 H 0.41763 0.46343 0.20613 0.0
H468 H 0.34863 0.42121 0.2062 0.0
H469 H 0.46867 0.53465 0.22038 0.0
H470 H 0.43827 0.40358 0.22095 0.0
H471 H 0.40591 0.33837 0.23106 0.0
H472 H 0.46188 0.37973 0.27373 0.0
H473 H 0.49417 0.4453 0.26392 0.0
C474 C 0.64777 0.58892 0.21609 0.0
C475 C 0.66893 0.5938 0.2293 0.0
C476 C 0.60824 0.56596 0.21613 0.0
C477 C 0.58878 0.54814 0.22949 0.0
C478 C 0.61008 0.55143 0.2425 0.0
C479 C 0.64977 0.57393 0.2424 0.0
C480 C 0.54634 0.52731 0.22999 0.0
C481 C 0.52699 0.4902 0.2358 0.0
C482 C 0.52487 0.54364 0.22452 0.0
C483 C 0.54318 0.58371 0.21941 0.0
C484 C 0.56817 0.61334 0.229 0.0
C485 C 0.58582 0.65098 0.22403 0.0
C486 C 0.57846 0.65939 0.20956 0.0
C487 C 0.55332 0.63018 0.20003 0.0
C488 C 0.53563 0.59248 0.20493 0.0
C489 C 0.36427 0.42748 0.24421 0.0
C490 C 0.34383 0.41563 0.23057 0.0
C491 C 0.40373 0.45119 0.24413 0.0
C492 C 0.42354 0.46379 0.23042 0.0
C493 C 0.40295 0.45399 0.21684 0.0
C494 C 0.3635 0.4299 0.2169 0.0
C495 C 0.4658 0.48496 0.23021 0.0
C496 C 0.48499 0.52204 0.22448 0.0
C497 C 0.48711 0.46884 0.23593 0.0
C498 C 0.46838 0.42936 0.24174 0.0
C499 C 0.4435 0.39879 0.23251 0.0
C500 C 0.42519 0.36176 0.23818 0.0
C501 C 0.43178 0.35491 0.25303 0.0
C502 C 0.45678 0.38507 0.26223 0.0
C503 C 0.47513 0.42217 0.25662 0.0
H504 H 0.41757 0.32622 0.25739 0.0
H505 H 0.59217 0.68855 0.20573 0.0
H506 H 0.00806 0.65022 0.5514 0.0
H507 H 0.98507 0.58211 0.55117 0.0
H508 H 0.09598 0.60314 0.56426 0.0
H509 H 0.11933 0.67182 0.56459 0.0
H510 H 0.0618 0.54735 0.54148 0.0
H511 H 0.02993 0.5749 0.59026 0.0
H512 H 1.00242 0.6014 0.608 0.0
H513 H 0.89202 0.53026 0.58883 0.0
H514 H 0.91899 0.50374 0.57081 0.0
H515 H 0.00928 0.36082 0.5637 0.0
H516 H 0.0332 0.42891 0.56267 0.0
H517 H 0.91923 0.40812 0.55639 0.0
H518 H 0.89485 0.3394 0.55796 0.0
H519 H 0.95517 0.46437 0.57542 0.0
H520 H 0.98604 0.43651 0.52664 0.0
H521 H 0.01294 0.41005 0.50859 0.0
H522 H 0.12408 0.48155 0.52706 0.0
H523 H 0.09777 0.5081 0.54536 0.0
C524 C 0.02776 0.64049 0.55411 0.0
C525 C 0.06557 0.66652 0.55806 0.0
C526 C 0.01447 0.60146 0.55404 0.0
C527 C 0.03863 0.58741 0.55787 0.0
C528 C 0.07679 0.61332 0.5613 0.0
C529 C 0.0901 0.65254 0.56149 0.0
C530 C 0.02357 0.54567 0.55864 0.0
C531 C 0.03884 0.52923 0.54904 0.0
C532 C 0.99289 0.52186 0.56821 0.0
C533 C 0.97655 0.53761 0.57909 0.0
C534 C 0.99984 0.56513 0.58974 0.0
C535 C 0.98434 0.58012 0.59986 0.0
C536 C 0.94552 0.56759 0.59952 0.0
C537 C 0.9221 0.53997 0.58907 0.0
C538 C 0.93747 0.52493 0.57891 0.0
C539 C 0.98921 0.37063 0.56204 0.0
C540 C 0.95013 0.34461 0.56081 0.0
C541 C 1.00302 0.40972 0.56137 0.0
C542 C 0.97822 0.42392 0.55913 0.0
C543 C 0.93904 0.39798 0.55804 0.0
C544 C 0.92511 0.3587 0.5589 0.0
C545 C 0.9933 0.46578 0.55822 0.0
C546 C 0.97806 0.48233 0.56781 0.0
C547 C 0.02388 0.48967 0.54856 0.0
C548 C 0.03986 0.47406 0.53746 0.0
C549 C 0.01618 0.44643 0.52691 0.0
C550 C 0.03133 0.43143 0.51663 0.0
C551 C 0.07018 0.44404 0.5167 0.0
C552 C 0.09398 0.47178 0.52703 0.0
C553 C 0.07898 0.48685 0.53735 0.0
H554 H 0.08184 0.43237 0.50874 0.0
H555 H 0.93356 0.57922 0.60736 0.0
H556 H 0.44831 0.11392 0.89218 0.0
H557 H 0.49414 0.09116 0.89133 0.0
H558 H 0.40539 0.97874 0.90339 0.0
H559 H 0.35988 1.00104 0.90422 0.0
H560 H 0.46961 0.99915 0.91951 0.0
H561 H 0.43518 0.99898 0.86743 0.0
H562 H 0.42739 0.02733 0.84405 0.0
H563 H 0.54691 0.10742 0.84339 0.0
H564 H 0.55532 0.07985 0.8669 0.0
H565 H 0.55981 0.89207 0.90232 0.0
H566 H 0.51503 0.91598 0.90221 0.0
H567 H 0.60436 0.02552 0.8874 0.0
H568 H 0.64879 1.00176 0.88727 0.0
H569 H 0.5409 0.00802 0.87279 0.0
H570 H 0.57616 0.00868 0.92449 0.0
H571 H 0.58483 0.98129 0.94797 0.0
H572 H 0.46518 0.90205 0.9497 0.0
H573 H 0.45587 0.92862 0.92609 0.0
C574 C 0.43869 0.08441 0.89468 0.0
C575 C 0.40042 0.05931 0.89821 0.0
C576 C 0.46483 0.07138 0.89414 0.0
C577 C 0.45319 0.03311 0.89722 0.0
C578 C 0.41514 0.00833 0.90099 0.0
C579 C 0.38909 0.02118 0.9014 0.0
C580 C 0.48019 0.01837 0.89643 0.0
C581 C 0.4849 1.00076 0.90924 0.0
C582 C 0.50079 0.02108 0.88315 0.0
C583 C 0.49581 0.03764 0.86901 0.0
C584 C 0.45975 0.02285 0.86237 0.0
C585 C 0.45523 0.03873 0.84908 0.0
C586 C 0.48662 0.06923 0.84227 0.0
C587 C 0.52261 0.08384 0.8487 0.0
C588 C 0.52728 0.06809 0.862 0.0
C589 C 0.56974 0.9211 0.8989 0.0
C590 C 0.6079 0.945 0.89486 0.0
C591 C 0.5442 0.93486 0.89893 0.0
C592 C 0.55638 0.97281 0.89499 0.0
C593 C 0.59418 0.99622 0.8905 0.0
C594 C 0.61962 0.98255 0.89048 0.0
C595 C 0.53022 0.98859 0.89587 0.0
C596 C 0.52568 0.00643 0.88308 0.0
C597 C 0.50991 0.98629 0.9092 0.0
C598 C 0.51538 0.97037 0.92344 0.0
C599 C 0.55173 0.98522 0.92981 0.0
C600 C 0.55676 0.96987 0.94315 0.0
C601 C 0.52559 0.93988 0.9503 0.0
C602 C 0.48931 0.92524 0.94414 0.0
C603 C 0.48414 0.94044 0.93078 0.0
H604 H 0.52954 0.92804 0.96063 0.0
H605 H 0.48306 0.08148 0.83198 0.0
H606 H 0.56137 0.6692 0.45128 0.0
H607 H 0.51677 0.60037 0.45207 0.0
H608 H 0.60277 0.57976 0.43344 0.0
H609 H 0.64714 0.64793 0.43267 0.0
H610 H 0.53372 0.53479 0.42012 0.0
H611 H 0.58478 0.56916 0.47049 0.0
H612 H 0.5997 0.60514 0.49436 0.0
H613 H 0.48115 0.56377 0.50188 0.0
H614 H 0.46556 0.52794 0.47792 0.0
H615 H 0.4487 0.33685 0.43566 0.0
H616 H 0.49358 0.4055 0.43502 0.0
H617 H 0.41187 0.42592 0.45794 0.0
H618 H 0.36766 0.35785 0.45894 0.0
H619 H 0.47885 0.47143 0.46899 0.0
H620 H 0.42686 0.43739 0.419 0.0
H621 H 0.41075 0.4019 0.39498 0.0
H622 H 0.52886 0.44308 0.38644 0.0
H623 H 0.54565 0.47841 0.41053 0.0
C624 C 0.57059 0.64994 0.44727 0.0
C625 C 0.60782 0.66402 0.44198 0.0
C626 C 0.54518 0.61064 0.44777 0.0
C627 C 0.55652 0.58482 0.44291 0.0
C628 C 0.59333 0.59901 0.43725 0.0
C629 C 0.61872 0.63807 0.43687 0.0
C630 C 0.53061 0.54298 0.444 0.0
C631 C 0.522 0.52088 0.43083 0.0
C632 C 0.51475 0.52482 0.45791 0.0
C633 C 0.52405 0.54621 0.47234 0.0
C634 C 0.56192 0.56799 0.47717 0.0
C635 C 0.57049 0.58831 0.49072 0.0
C636 C 0.5414 0.58683 0.49961 0.0
C637 C 0.50366 0.56494 0.49497 0.0
C638 C 0.49494 0.5446 0.48141 0.0
C639 C 0.44055 0.35601 0.44069 0.0
C640 C 0.40458 0.34185 0.44731 0.0
C641 C 0.46609 0.39528 0.44023 0.0
C642 C 0.45597 0.42111 0.44623 0.0
C643 C 0.42046 0.40678 0.45321 0.0
C644 C 0.39512 0.36772 0.45374 0.0
C645 C 0.48178 0.46306 0.44508 0.0
C646 C 0.49045 0.48524 0.45826 0.0
C647 C 0.49747 0.48133 0.43114 0.0
C648 C 0.48747 0.46021 0.41664 0.0
C649 C 0.44938 0.43864 0.41205 0.0
C650 C 0.44012 0.41859 0.39842 0.0
C651 C 0.46876 0.42015 0.38921 0.0
C652 C 0.50671 0.44184 0.3936 0.0
C653 C 0.51611 0.46191 0.40724 0.0
H654 H 0.46154 0.40461 0.37866 0.0
H655 H 0.54809 0.60258 0.5101 0.0
H656 H 0.89501 0.56153 0.77616 0.0
H657 H 0.91834 0.51625 0.77683 0.0
H658 H 0.03351 0.60931 0.779 0.0
H659 H 0.01054 0.65439 0.77825 0.0
H660 H 0.02786 0.55723 0.75898 0.0
H661 H 0.98937 0.55691 0.81029 0.0
H662 H 0.94523 0.5504 0.83068 0.0
H663 H 0.86944 0.43499 0.81745 0.0
H664 H 0.91292 0.44097 0.79683 0.0
H665 H 0.11507 0.44686 0.77816 0.0
H666 H 0.09411 0.4941 0.77882 0.0
H667 H 0.97741 0.40399 0.77766 0.0
H668 H 0.99796 0.35713 0.77718 0.0
H669 H 0.9853 0.45587 0.79765 0.0
H670 H 0.02227 0.45622 0.74604 0.0
H671 H 0.06571 0.46221 0.72543 0.0
H672 H 0.14348 0.57691 0.73894 0.0
H673 H 0.1007 0.57142 0.75977 0.0
C674 C 0.92527 0.57226 0.77683 0.0
C675 C 0.95086 0.61157 0.77719 0.0
C676 C 0.9386 0.54638 0.77725 0.0
C677 C 0.97777 0.55931 0.77806 0.0
C678 C 1.00323 0.59855 0.77834 0.0
C679 C 0.98997 0.62432 0.77798 0.0
C680 C 0.99247 0.53222 0.77852 0.0
C681 C 0.0189 0.53538 0.76756 0.0
C682 C 0.98038 0.50321 0.78953 0.0
C683 C 0.95422 0.49952 0.80192 0.0
C684 C 0.96314 0.53024 0.81165 0.0
C685 C 0.93827 0.52663 0.82326 0.0
C686 C 0.9045 0.49233 0.82533 0.0
C687 C 0.89558 0.46155 0.81581 0.0
C688 C 0.92034 0.46503 0.80417 0.0
C689 C 0.08499 0.43723 0.7781 0.0
C690 C 0.05824 0.39823 0.77758 0.0
C691 C 0.073 0.46422 0.77841 0.0
C692 C 0.03408 0.45268 0.77817 0.0
C693 C 0.00752 0.41373 0.77788 0.0
C694 C 0.01941 0.38691 0.77755 0.0
C695 C 0.02059 0.48077 0.77806 0.0
C696 C 0.99436 0.4778 0.78909 0.0
C697 C 0.03277 0.50987 0.76708 0.0
C698 C 0.0585 0.51326 0.75457 0.0
C699 C 0.04878 0.48262 0.74469 0.0
C700 C 0.07325 0.48594 0.73296 0.0
C701 C 0.10738 0.51988 0.73091 0.0
C702 C 0.11706 0.55061 0.74056 0.0
C703 C 0.09271 0.54742 0.75233 0.0
H704 H 0.12629 0.5224 0.72181 0.0
H705 H 0.88529 0.48959 0.83433 0.0
H706 H 0.33631 0.89998 0.12251 0.0
H707 H 0.40425 0.92035 0.12362 0.0
H708 H 0.42931 0.01613 0.09513 0.0
H709 H 0.36206 0.99574 0.0938 0.0
H710 H 0.47111 0.98652 0.08673 0.0
H711 H 0.44136 0.02483 0.13387 0.0
H712 H 0.40688 0.01518 0.15786 0.0
H713 H 0.44363 0.93831 0.17284 0.0
H714 H 0.47792 0.94712 0.14883 0.0
H715 H 0.66855 0.1057 0.10171 0.0
H716 H 0.59984 0.08155 0.10113 0.0
H717 H 0.58069 0.98241 0.12603 0.0
H718 H 0.64896 0.00614 0.12656 0.0
H719 H 0.53593 0.01142 0.13637 0.0
H720 H 0.56855 0.97625 0.08943 0.0
H721 H 0.6043 0.98798 0.0657 0.0
H722 H 0.56228 0.06017 0.05026 0.0
H723 H 0.52705 0.04973 0.07412 0.0
C724 C 0.35633 0.92513 0.11638 0.0
C725 C 0.34375 0.94627 0.10812 0.0
C726 C 0.39518 0.93692 0.11708 0.0
C727 C 0.4221 0.97012 0.1096 0.0
C728 C 0.40929 0.99047 0.10101 0.0
C729 C 0.3707 0.97878 0.1003 0.0
C730 C 0.4637 0.98453 0.11089 0.0
C731 C 0.48527 0.99229 0.0976 0.0
C732 C 0.48232 0.99155 0.12504 0.0
C733 C 0.46183 0.9863 0.13949 0.0
C734 C 0.44184 0.00564 0.14223 0.0
C735 C 0.42237 1.00036 0.15584 0.0
C736 C 0.42297 0.97606 0.16685 0.0
C737 C 0.44313 0.95706 0.16429 0.0
C738 C 0.4626 0.9622 0.15069 0.0
C739 C 0.64969 0.07898 0.10719 0.0
C740 C 0.66417 0.05778 0.11413 0.0
C741 C 0.61044 0.06511 0.1068 0.0
C742 C 0.58505 0.02997 0.11344 0.0
C743 C 0.59965 0.00953 0.12084 0.0
C744 C 0.63871 0.02312 0.12108 0.0
C745 C 0.54323 0.01373 0.11224 0.0
C746 C 0.52168 0.00557 0.12552 0.0
C747 C 0.52465 0.00651 0.09808 0.0
C748 C 0.54548 0.01253 0.08365 0.0
C749 C 0.56719 0.99491 0.08104 0.0
C750 C 0.58733 1.00127 0.06755 0.0
C751 C 0.58557 0.02478 0.05646 0.0
C752 C 0.56365 0.04198 0.05886 0.0
C753 C 0.54362 0.0359 0.07238 0.0
H754 H 0.60115 0.02961 0.04602 0.0
H755 H 0.40789 0.97201 0.17738 0.0
H756 H 0.24992 0.04997 0.11988 0.0
H757 H 0.26741 0.10496 0.136 0.0
H758 H 0.30275 0.05532 0.17096 0.0
H759 H 0.28463 0.99971 0.15492 0.0
H760 H 0.25712 0.07865 0.18186 0.0
H761 H 0.36849 0.13369 0.15181 0.0
H762 H 0.40635 0.15066 0.12842 0.0
H763 H 0.35664 0.21677 0.11378 0.0
H764 H 0.31804 0.19975 0.13698 0.0
H765 H 0.29971 0.23988 0.22583 0.0
H766 H 0.31383 0.19669 0.21167 0.0
H767 H 0.27233 0.22149 0.17087 0.0
H768 H 0.25883 0.26521 0.18487 0.0
H769 H 0.33364 0.21279 0.16534 0.0
H770 H 0.2139 0.14641 0.19261 0.0
H771 H 0.17441 0.12854 0.21559 0.0
H772 H 0.23994 0.08302 0.23505 0.0
H773 H 0.28014 0.10109 0.21224 0.0
C774 C 0.2617 0.0509 0.13096 0.0
C775 C 0.26576 0.02055 0.1362 0.0
C776 C 0.27201 0.08248 0.1401 0.0
C777 C 0.28691 0.08445 0.15459 0.0
C778 C 0.29151 0.0544 0.15978 0.0
C779 C 0.2811 0.02269 0.15063 0.0
C780 C 0.29441 0.11642 0.1647 0.0
C781 C 0.27469 0.10803 0.17843 0.0
C782 C 0.31684 0.15469 0.16008 0.0
C783 C 0.3402 0.16526 0.14613 0.0
C784 C 0.36543 0.15164 0.14357 0.0
C785 C 0.38706 0.16131 0.13034 0.0
C786 C 0.38387 0.18474 0.11961 0.0
C787 C 0.35909 0.19863 0.1221 0.0
C788 C 0.33737 0.18903 0.1353 0.0
C789 C 0.29415 0.23654 0.21379 0.0
C790 C 0.27765 0.25538 0.20646 0.0
C791 C 0.30227 0.21193 0.20574 0.0
C792 C 0.29358 0.20554 0.1903 0.0
C793 C 0.27922 0.22607 0.18279 0.0
C794 C 0.27131 0.25084 0.19081 0.0
C795 C 0.29561 0.17479 0.18223 0.0
C796 C 0.31697 0.18343 0.16891 0.0
C797 C 0.27463 0.13667 0.18717 0.0
C798 C 0.25027 0.12549 0.20081 0.0
C799 C 0.22002 0.13282 0.20184 0.0
C800 C 0.19751 0.12263 0.21482 0.0
C801 C 0.20474 0.10476 0.2268 0.0
C802 C 0.23443 0.09693 0.22579 0.0
C803 C 0.25708 0.10713 0.21283 0.0
H804 H 0.18728 0.0969 0.23684 0.0
H805 H 0.40063 0.19218 0.10938 0.0
H806 H 0.03437 0.23128 0.55857 0.0
H807 H 0.08245 0.22665 0.54358 0.0
H808 H 0.01299 0.20247 0.50374 0.0
H809 H 0.96487 0.20737 0.51863 0.0
H810 H 0.04482 0.15408 0.50799 0.0
H811 H 0.08229 0.28662 0.50676 0.0
H812 H 0.09789 0.3483 0.51796 0.0
H813 H 0.1897 0.35047 0.54272 0.0
H814 H 0.17427 0.28849 0.53183 0.0
H815 H 0.18569 0.18959 0.45256 0.0
H816 H 0.1341 0.18632 0.46787 0.0
H817 H 0.20893 0.22872 0.50642 0.0
H818 H 0.26078 0.2329 0.49109 0.0
H819 H 0.17317 0.26704 0.50275 0.0
H820 H 0.1359 0.13485 0.50507 0.0
H821 H 0.11978 0.07193 0.49505 0.0
H822 H 0.02912 0.06846 0.46899 0.0
H823 H 0.0445 0.13128 0.47896 0.0
C824 C 0.02934 0.22491 0.54663 0.0
C825 C 0.99609 0.21988 0.53971 0.0
C826 C 0.05676 0.2223 0.5381 0.0
C827 C 0.05116 0.21439 0.52259 0.0
C828 C 0.01765 0.20856 0.51572 0.0
C829 C 0.99038 0.21157 0.5242 0.0
C830 C 0.08083 0.21317 0.51349 0.0
C831 C 0.07278 0.17882 0.50666 0.0
C832 C 0.11739 0.24533 0.51211 0.0
C833 C 0.12687 0.28272 0.5186 0.0
C834 C 0.1056 0.30008 0.5147 0.0
C835 C 0.11444 0.33513 0.52097 0.0
C836 C 0.1447 0.35324 0.53108 0.0
C837 C 0.16624 0.33638 0.53491 0.0
C838 C 0.15747 0.30131 0.52868 0.0
C839 C 0.19098 0.19785 0.46434 0.0
C840 C 0.2272 0.2117 0.47064 0.0
C841 C 0.16147 0.19577 0.47309 0.0
C842 C 0.16767 0.20705 0.4883 0.0
C843 C 0.20361 0.21996 0.49469 0.0
C844 C 0.23315 0.22229 0.48593 0.0
C845 C 0.13744 0.20775 0.49731 0.0
C846 C 0.1453 0.24216 0.50409 0.0
C847 C 0.10082 0.17556 0.49872 0.0
C848 C 0.09159 0.1379 0.49264 0.0
C849 C 0.1127 0.12078 0.49712 0.0
C850 C 0.10366 0.08512 0.49147 0.0
C851 C 0.07366 0.06634 0.48129 0.0
C852 C 0.05242 0.08308 0.47684 0.0
C853 C 0.06118 0.11864 0.48253 0.0
H854 H 0.06678 0.03876 0.47691 0.0
H855 H 0.15151 0.38038 0.53592 0.0
H856 H 0.02808 0.27091 0.82415 0.0
H857 H 0.97985 0.22498 0.84132 0.0
H858 H 0.91844 0.15437 0.80331 0.0
H859 H 0.96623 0.20026 0.78609 0.0
H860 H 0.87154 0.16028 0.82381 0.0
H861 H 0.97545 0.13453 0.82385 0.0
H862 H 0.0423 0.15147 0.82706 0.0
H863 H 0.03914 0.18112 0.8734 0.0
H864 H 0.9724 0.16489 0.87039 0.0
H865 H 0.75727 0.97939 0.85458 0.0
H866 H 0.806 0.03368 0.84065 0.0
H867 H 0.85635 0.09057 0.88266 0.0
H868 H 0.80784 0.03593 0.89672 0.0
H869 H 0.90943 0.09687 0.86234 0.0
H870 H 0.80334 0.1169 0.86287 0.0
H871 H 0.73642 0.09952 0.85953 0.0
H872 H 0.74344 0.08065 0.8122 0.0
H873 H 0.81026 0.09735 0.81529 0.0
C874 C 1.00415 0.24573 0.81947 0.0
C875 C 1.00093 0.23896 0.80382 0.0
C876 C 0.97673 0.21953 0.82927 0.0
C877 C 0.94589 0.18621 0.82355 0.0
C878 C 0.94208 0.17997 0.80791 0.0
C879 C 0.96945 0.20611 0.79811 0.0
C880 C 0.91807 0.15705 0.83382 0.0
C881 C 0.87972 0.14621 0.83218 0.0
C882 C 0.92909 0.13956 0.84498 0.0
C883 C 0.96908 0.14891 0.84684 0.0
C884 C 0.9891 0.14494 0.83469 0.0
C885 C 0.02696 0.15437 0.83648 0.0
C886 C 0.04499 0.16747 0.85042 0.0
C887 C 0.02516 0.17104 0.86261 0.0
C888 C 0.98732 0.16172 0.86087 0.0
C889 C 0.77876 1.0034 0.86085 0.0
C890 C 0.77872 1.00361 0.87671 0.0
C891 C 0.80645 0.03444 0.85289 0.0
C892 C 0.83431 0.0663 0.86066 0.0
C893 C 0.83491 0.06626 0.8765 0.0
C894 C 0.80722 0.03512 0.88448 0.0
C895 C 0.86277 0.09957 0.85213 0.0
C896 C 0.90125 0.11124 0.85411 0.0
C897 C 0.85187 0.11784 0.84128 0.0
C898 C 0.81176 0.10812 0.83934 0.0
C899 C 0.79055 0.10879 0.85176 0.0
C900 C 0.75264 0.09909 0.84991 0.0
C901 C 0.73567 0.08892 0.83567 0.0
C902 C 0.75661 0.08852 0.82323 0.0
C903 C 0.79452 0.09814 0.82502 0.0
H904 H 0.70631 0.08142 0.83426 0.0
H905 H 0.0743 0.17477 0.85178 0.0
H906 H 0.75441 0.01197 0.15579 0.0
H907 H 0.75449 0.96145 0.17064 0.0
H908 H 0.80772 0.93635 0.13369 0.0
H909 H 0.80694 0.9864 0.11861 0.0
H910 H 0.75084 0.87296 0.14528 0.0
H911 H 0.85867 0.9846 0.16482 0.0
H912 H 0.89351 0.04896 0.17574 0.0
H913 H 0.82118 0.01094 0.21475 0.0
H914 H 0.78556 0.94644 0.20396 0.0
H915 H 0.80246 0.75712 0.18729 0.0
H916 H 0.80362 0.80769 0.17199 0.0
H917 H 0.74772 0.833 0.20783 0.0
H918 H 0.74711 0.78288 0.22333 0.0
H919 H 0.80732 0.89654 0.19659 0.0
H920 H 0.69893 0.7848 0.17651 0.0
H921 H 0.66543 0.72042 0.16555 0.0
H922 H 0.74065 0.75908 0.12741 0.0
H923 H 0.77491 0.82361 0.13824 0.0
C924 C 0.76621 0.99574 0.15084 0.0
C925 C 0.78077 1.00308 0.13608 0.0
C926 C 0.76639 0.96703 0.15936 0.0
C927 C 0.78159 0.94557 0.15332 0.0
C928 C 0.79596 0.95271 0.13854 0.0
C929 C 0.79556 0.98129 0.12998 0.0
C930 C 0.78174 0.91512 0.16235 0.0
C931 C 0.76367 0.87819 0.15641 0.0
C932 C 0.79783 0.92195 0.17699 0.0
C933 C 0.81923 0.96074 0.18351 0.0
C934 C 0.85 0.99002 0.17567 0.0
C935 C 0.86992 0.02652 0.18185 0.0
C936 C 0.85952 0.03406 0.19591 0.0
C937 C 0.82919 0.00508 0.20384 0.0
C938 C 0.80915 0.96853 0.19771 0.0
C939 C 0.79024 0.77334 0.19187 0.0
C940 C 0.77458 0.7661 0.20646 0.0
C941 C 0.79085 0.80211 0.18312 0.0
C942 C 0.77543 0.82375 0.18875 0.0
C943 C 0.75974 0.81653 0.20331 0.0
C944 C 0.75929 0.78787 0.2121 0.0
C945 C 0.77625 0.85441 0.17955 0.0
C946 C 0.79453 0.89137 0.18545 0.0
C947 C 0.76051 0.84765 0.16486 0.0
C948 C 0.73967 0.80895 0.15825 0.0
C949 C 0.70848 0.77951 0.16583 0.0
C950 C 0.68933 0.74301 0.15964 0.0
C951 C 0.70096 0.73565 0.14581 0.0
C952 C 0.73169 0.76482 0.13812 0.0
C953 C 0.75096 0.80137 0.14428 0.0
H954 H 0.68611 0.70736 0.14103 0.0
H955 H 0.87501 0.06233 0.20068 0.0
H956 H 0.73726 0.73281 0.48316 0.0
H957 H 0.78651 0.73445 0.49946 0.0
H958 H 0.87189 0.83047 0.47459 0.0
H959 H 0.82276 0.82857 0.45804 0.0
H960 H 0.8921 0.77695 0.47988 0.0
H961 H 0.83854 0.84034 0.50816 0.0
H962 H 0.78588 0.84456 0.51997 0.0
H963 H 0.76371 0.75198 0.54943 0.0
H964 H 0.81519 0.74611 0.5374 0.0
H965 H 0.04553 0.83411 0.52917 0.0
H966 H 0.99483 0.83404 0.51443 0.0
H967 H 0.9113 0.74196 0.54153 0.0
H968 H 0.96207 0.74252 0.55662 0.0
H969 H 0.88912 0.79237 0.53541 0.0
H970 H 0.93619 0.72435 0.5073 0.0
H971 H 0.98459 0.71364 0.49516 0.0
H972 H 0.01551 0.80876 0.46583 0.0
H973 H 0.96764 0.82039 0.47795 0.0
C974 C 0.76654 0.75423 0.48115 0.0
C975 C 0.77628 0.78066 0.46938 0.0
C976 C 0.79457 0.7552 0.4905 0.0
C977 C 0.83269 0.7829 0.48833 0.0
C978 C 0.84255 0.80896 0.47644 0.0
C979 C 0.81453 0.80788 0.46703 0.0
C980 C 0.86236 0.78463 0.49844 0.0
C981 C 0.89178 0.78089 0.492 0.0
C982 C 0.86101 0.78841 0.5143 0.0
C983 C 0.83058 0.79258 0.52176 0.0
C984 C 0.82227 0.82069 0.51707 0.0
C985 C 0.79264 0.8234 0.52381 0.0
C986 C 0.77159 0.79869 0.53547 0.0
C987 C 0.78005 0.77112 0.5404 0.0
C988 C 0.80938 0.76801 0.53359 0.0
C989 C 0.01636 0.81408 0.53208 0.0
C990 C 0.00764 0.78807 0.54393 0.0
C991 C 0.98746 0.81399 0.52362 0.0
C992 C 0.9494 0.7875 0.52671 0.0
C993 C 0.94055 0.76251 0.53894 0.0
C994 C 0.96951 0.7628 0.54751 0.0
C995 C 0.91903 0.78507 0.51682 0.0
C996 C 0.88947 0.78857 0.52329 0.0
C997 C 0.91982 0.78043 0.501 0.0
C998 C 0.94858 0.77347 0.49364 0.0
C999 C 0.95351 0.74317 0.49834 0.0
C1000 C 0.98082 0.73691 0.49145 0.0
C1001 C 1.00318 0.76057 0.47976 0.0
C1002 C 0.99821 0.79049 0.47491 0.0
C1003 C 0.97097 0.79692 0.48177 0.0
H1004 H 0.0243 0.75567 0.47444 0.0
H1005 H 0.74871 0.8009 0.54069 0.0
H1006 H 0.21178 0.96528 0.8871 0.0
H1007 H 0.16636 0.91753 0.86966 0.0
H1008 H 0.21931 0.99423 0.8323 0.0
H1009 H 0.26521 0.04215 0.84968 0.0
H1010 H 0.13936 0.96144 0.83394 0.0
H1011 H 0.23294 0.92324 0.8343 0.0
H1012 H 0.27737 0.90597 0.84585 0.0
H1013 H 0.18457 0.81063 0.86775 0.0
H1014 H 0.1396 0.82767 0.85652 0.0
H1015 H 0.02655 0.82025 0.77961 0.0
H1016 H 0.08036 0.87014 0.79353 0.0
H1017 H 0.04512 0.80025 0.83354 0.0
H1018 H 0.99142 0.75013 0.81968 0.0
H1019 H 0.12091 0.83179 0.82836 0.0
H1020 H 0.02955 0.87367 0.8317 0.0
H1021 H 0.98356 0.89118 0.82211 0.0
H1022 H 0.07017 0.97836 0.79461 0.0
H1023 H 0.11682 0.96141 0.80415 0.0
C1024 C 0.21388 0.97187 0.87516 0.0
C1025 C 0.24187 0.00733 0.8697 0.0
C1026 C 0.1881 0.94456 0.86523 0.0
C1027 C 0.18981 0.95243 0.84974 0.0
C1028 C 0.21778 0.98775 0.84424 0.0
C1029 C 0.24391 0.01495 0.85415 0.0
C1030 C 0.16102 0.92422 0.83948 0.0
C1031 C 0.13577 0.93333 0.83243 0.0
C1032 C 0.15597 0.88738 0.83792 0.0
C1033 C 0.18291 0.87693 0.84466 0.0
C1034 C 0.22202 0.89878 0.84168 0.0
C1035 C 0.24731 0.88899 0.84815 0.0
C1036 C 0.23381 0.85727 0.85755 0.0
C1037 C 0.19499 0.83522 0.86048 0.0
C1038 C 0.16958 0.8449 0.85405 0.0
C1039 C 0.03022 0.81561 0.79139 0.0
C1040 C 1.00486 0.78142 0.7986 0.0
C1041 C 0.06088 0.8441 0.79931 0.0
C1042 C 0.06652 0.83884 0.81455 0.0
C1043 C 0.04122 0.80472 0.82176 0.0
C1044 C 0.01053 0.77625 0.81386 0.0
C1045 C 0.09891 0.86884 0.823 0.0
C1046 C 0.12483 0.86006 0.82969 0.0
C1047 C 0.10442 0.9059 0.82437 0.0
C1048 C 0.0765 0.91597 0.81848 0.0
C1049 C 0.03869 0.89635 0.82351 0.0
C1050 C 0.01253 0.90623 0.8181 0.0
C1051 C 0.02382 0.93567 0.80765 0.0
C1052 C 0.06142 0.95548 0.80267 0.0
C1053 C 0.08777 0.94583 0.8081 0.0
H1054 H 1.00347 0.94324 0.80347 0.0
H1055 H 0.25344 0.84974 0.86255 0.0
H1056 H 0.26945 0.27007 0.40377 0.0
H1057 H 0.25544 0.27777 0.37771 0.0
H1058 H 0.30191 0.20847 0.36259 0.0
H1059 H 0.31751 0.20195 0.38885 0.0
H1060 H 0.32341 0.2652 0.34416 0.0
H1061 H 0.20299 0.17485 0.3644 0.0
H1062 H 0.14993 0.14872 0.38254 0.0
H1063 H 0.13156 0.24225 0.37399 0.0
H1064 H 0.18487 0.26924 0.35595 0.0
H1065 H 0.2438 0.23702 0.27072 0.0
H1066 H 0.25418 0.22464 0.29677 0.0
H1067 H 0.22939 0.31032 0.31247 0.0
H1068 H 0.21918 0.32318 0.28627 0.0
H1069 H 0.19575 0.24286 0.33016 0.0
H1070 H 0.31825 0.33249 0.3097 0.0
H1071 H 0.37027 0.35561 0.29111 0.0
H1072 H 0.3827 0.25844 0.2996 0.0
H1073 H 0.33033 0.2344 0.31806 0.0
C1074 C 0.27665 0.25634 0.39492 0.0
C1075 C 0.29433 0.23511 0.3984 0.0
C1076 C 0.26838 0.26059 0.37998 0.0
C1077 C 0.27672 0.24299 0.36811 0.0
C1078 C 0.29493 0.22217 0.37152 0.0
C1079 C 0.30377 0.21836 0.38653 0.0
C1080 C 0.26689 0.24699 0.35221 0.0
C1081 C 0.29529 0.25967 0.34109 0.0
C1082 C 0.23037 0.24047 0.34813 0.0
C1083 C 0.19815 0.22423 0.35892 0.0
C1084 C 0.18781 0.18999 0.36647 0.0
C1085 C 0.15766 0.175 0.37672 0.0
C1086 C 0.13744 0.19386 0.37944 0.0
C1087 C 0.14727 0.22769 0.37188 0.0
C1088 C 0.17743 0.24283 0.36163 0.0
C1089 C 0.24009 0.25299 0.27971 0.0
C1090 C 0.23073 0.28119 0.27641 0.0
C1091 C 0.24623 0.24597 0.2946 0.0
C1092 C 0.24305 0.26687 0.30656 0.0
C1093 C 0.23213 0.29394 0.3034 0.0
C1094 C 0.22627 0.30124 0.28844 0.0
C1095 C 0.25227 0.26117 0.32227 0.0
C1096 C 0.22377 0.2482 0.33329 0.0
C1097 C 0.2885 0.26692 0.32622 0.0
C1098 C 0.32011 0.28146 0.31516 0.0
C1099 C 0.33185 0.31588 0.30751 0.0
C1100 C 0.36143 0.32918 0.29701 0.0
C1101 C 0.37971 0.30846 0.29416 0.0
C1102 C 0.36848 0.27443 0.30181 0.0
C1103 C 0.33886 0.26096 0.31229 0.0
H1104 H 0.40266 0.31883 0.28607 0.0
H1105 H 0.11411 0.18221 0.38739 0.0
H1106 H 0.92571 0.2783 0.61507 0.0
H1107 H 0.95326 0.29072 0.64054 0.0
H1108 H 0.96441 0.19094 0.63751 0.0
H1109 H 0.93789 0.17894 0.61189 0.0
H1110 H 0.93477 0.20428 0.66685 0.0
H1111 H 0.03807 0.26463 0.63069 0.0
H1112 H 0.07084 0.30693 0.60917 0.0
H1113 H 0.07736 0.4013 0.6336 0.0
H1114 H 0.04405 0.35937 0.65519 0.0
H1115 H 0.05415 0.23374 0.7286 0.0
H1116 H 0.02789 0.22057 0.70303 0.0
H1117 H 0.05548 0.33733 0.69855 0.0
H1118 H 0.08384 0.351 0.72381 0.0
H1119 H 0.06394 0.31572 0.67276 0.0
H1120 H 0.96291 0.26067 0.70855 0.0
H1121 H 0.92656 0.22129 0.73025 0.0
H1122 H 0.91068 0.12124 0.70734 0.0
H1123 H 0.94741 0.1601 0.68558 0.0
C1124 C 0.93332 0.25859 0.61995 0.0
C1125 C 0.92958 0.2276 0.6115 0.0
C1126 C 0.94925 0.26585 0.63446 0.0
C1127 C 0.96107 0.24187 0.64086 0.0
C1128 C 0.95547 0.20977 0.63277 0.0
C1129 C 0.94029 0.20295 0.61815 0.0
C1130 C 0.98121 0.25138 0.65561 0.0
C1131 C 0.96317 0.22835 0.66815 0.0
C1132 C 0.01776 0.28351 0.65737 0.0
C1133 C 0.0382 0.30879 0.64448 0.0
C1134 C 0.04619 0.29432 0.63142 0.0
C1135 C 0.06492 0.31824 0.61922 0.0
C1136 C 0.07608 0.35676 0.62 0.0
C1137 C 0.06864 0.37145 0.633 0.0
C1138 C 0.04986 0.34763 0.64522 0.0
C1139 C 0.05532 0.25676 0.72202 0.0
C1140 C 0.07099 0.29337 0.7282 0.0
C1141 C 0.03986 0.24912 0.70745 0.0
C1142 C 0.03842 0.2776 0.69895 0.0
C1143 C 0.05588 0.3147 0.70485 0.0
C1144 C 0.07223 0.32256 0.71929 0.0
C1145 C 0.01768 0.26844 0.6842 0.0
C1146 C 0.03553 0.29158 0.67159 0.0
C1147 C 0.98051 0.23685 0.68247 0.0
C1148 C 0.95823 0.21335 0.6955 0.0
C1149 C 0.95187 0.2303 0.70818 0.0
C1150 C 0.93118 0.20807 0.72049 0.0
C1151 C 0.9164 0.1688 0.72019 0.0
C1152 C 0.9222 0.15166 0.70757 0.0
C1153 C 0.94293 0.17377 0.69524 0.0
H1154 H 0.90039 0.15164 0.72974 0.0
H1155 H 0.09057 0.37523 0.61054 0.0
H1156 H 0.73089 0.0815 0.06019 0.0
H1157 H 0.71632 0.05456 0.03458 0.0
H1158 H 0.80182 0.02212 0.03896 0.0
H1159 H 0.81586 0.04812 0.06466 0.0
H1160 H 0.80067 0.05745 0.01001 0.0
H1161 H 0.71771 0.95656 0.04441 0.0
H1162 H 0.6695 0.92907 0.06453 0.0
H1163 H 0.59188 0.94624 0.0374 0.0
H1164 H 0.63984 0.97425 0.01717 0.0
H1165 H 0.75938 0.93441 0.94851 0.0
H1166 H 0.77205 0.96047 0.97412 0.0
H1167 H 0.664 0.95642 0.97449 0.0
H1168 H 0.65036 0.92815 0.94921 0.0
H1169 H 0.67572 0.9422 1.00106 0.0
H1170 H 0.75304 0.04071 0.96662 0.0
H1171 H 0.7993 0.07207 0.94608 0.0
H1172 H 0.88514 0.06638 0.97227 0.0
H1173 H 0.83923 0.03448 0.99289 0.0
C1174 C 0.747 0.06919 0.05559 0.0
C1175 C 0.77459 0.06699 0.06441 0.0
C1176 C 0.73849 0.05362 0.04101 0.0
C1177 C 0.75785 0.03615 0.03491 0.0
C1178 C 0.78656 0.03546 0.04345 0.0
C1179 C 0.79455 0.05033 0.05812 0.0
C1180 C 0.74725 0.01719 0.0199 0.0
C1181 C 0.77353 0.03203 0.00805 0.0
C1182 C 0.71134 0.98482 0.01724 0.0
C1183 C 0.68246 0.96779 0.02934 0.0
C1184 C 0.69046 0.95473 0.04278 0.0
C1185 C 0.66316 0.93898 0.05419 0.0
C1186 C 0.62765 0.9359 0.05224 0.0
C1187 C 0.61938 0.94857 0.03888 0.0
C1188 C 0.6466 0.96437 0.02744 0.0
C1189 C 0.73804 0.93841 0.95419 0.0
C1190 C 0.70391 0.92929 0.94686 0.0
C1191 C 0.74548 0.95377 0.96878 0.0
C1192 C 0.71958 0.96171 0.97616 0.0
C1193 C 0.68466 0.95092 0.96909 0.0
C1194 C 0.6768 0.93464 0.95463 0.0
C1195 C 0.72934 0.98214 0.991 0.0
C1196 C 0.70288 0.96768 1.00287 0.0
C1197 C 0.76481 0.01551 0.99358 0.0
C1198 C 0.79259 0.03488 0.98124 0.0
C1199 C 0.78172 0.04593 0.96796 0.0
C1200 C 0.80788 0.06382 0.9563 0.0
C1201 C 0.84511 0.07113 0.95785 0.0
C1202 C 0.85628 0.06065 0.97108 0.0
C1203 C 0.83021 0.04269 0.98276 0.0
H1204 H 0.86533 0.08498 0.94882 0.0
H1205 H 0.60655 0.92369 0.06109 0.0
H1206 H 0.76019 0.65903 0.28764 0.0
H1207 H 0.74697 0.67388 0.313 0.0
H1208 H 0.78476 0.78895 0.299 0.0
H1209 H 0.79695 0.77398 0.27362 0.0
H1210 H 0.78572 0.71996 0.33493 0.0
H1211 H 0.73336 0.82272 0.31585 0.0
H1212 H 0.70228 0.83275 0.29381 0.0
H1213 H 0.65311 0.71519 0.28169 0.0
H1214 H 0.68343 0.70435 0.30376 0.0
H1215 H 0.77588 0.81491 0.39948 0.0
H1216 H 0.78895 0.80288 0.37375 0.0
H1217 H 0.6689 0.74092 0.36428 0.0
H1218 H 0.65575 0.75394 0.38995 0.0
H1219 H 0.70485 0.7788 0.34018 0.0
H1220 H 0.71875 0.69509 0.37388 0.0
H1221 H 0.74297 0.67743 0.39614 0.0
H1222 H 0.85674 0.74296 0.3793 0.0
H1223 H 0.83324 0.76146 0.35703 0.0
C1224 C 0.76603 0.68758 0.29003 0.0
C1225 C 0.7794 0.71525 0.2786 0.0
C1226 C 0.75843 0.69606 0.30453 0.0
C1227 C 0.76412 0.73237 0.30789 0.0
C1228 C 0.77921 0.76048 0.29665 0.0
C1229 C 0.78645 0.75195 0.28214 0.0
C1230 C 0.75363 0.74071 0.32299 0.0
C1231 C 0.76811 0.73289 0.33604 0.0
C1232 C 0.72981 0.75673 0.32457 0.0
C1233 C 0.711 0.76285 0.31138 0.0
C1234 C 0.71578 0.79899 0.30852 0.0
C1235 C 0.69832 0.80481 0.29601 0.0
C1236 C 0.67584 0.77466 0.28633 0.0
C1237 C 0.67064 0.73856 0.28916 0.0
C1238 C 0.68799 0.73257 0.30166 0.0
C1239 C 0.75227 0.79927 0.39184 0.0
C1240 C 0.71475 0.78523 0.39678 0.0
C1241 C 0.75977 0.79214 0.37715 0.0
C1242 C 0.72991 0.77016 0.36713 0.0
C1243 C 0.69247 0.75777 0.37179 0.0
C1244 C 0.68496 0.76528 0.38647 0.0
C1245 C 0.7377 0.75889 0.35208 0.0
C1246 C 0.72262 0.76604 0.33904 0.0
C1247 C 0.76004 0.74122 0.35054 0.0
C1248 C 0.77426 0.72993 0.36385 0.0
C1249 C 0.74896 0.70593 0.37497 0.0
C1250 C 0.76255 0.69575 0.38759 0.0
C1251 C 0.80137 0.70914 0.38915 0.0
C1252 C 0.82667 0.73265 0.37808 0.0
C1253 C 0.81323 0.74297 0.36545 0.0
H1254 H 0.81185 0.70123 0.39893 0.0
H1255 H 0.66238 0.77924 0.27665 0.0
H1256 H 0.06888 0.82897 0.6121 0.0
H1257 H 0.0414 0.81603 0.63757 0.0
H1258 H 0.05464 0.71747 0.64056 0.0
H1259 H 0.08298 0.73074 0.61527 0.0
H1260 H 0.97843 0.70522 0.64698 0.0
H1261 H 0.10953 0.78641 0.66107 0.0
H1262 H 0.17183 0.84504 0.66014 0.0
H1263 H 0.1207 0.91016 0.67443 0.0
H1264 H 0.05796 0.85195 0.67524 0.0
H1265 H 0.92554 0.65445 0.72376 0.0
H1266 H 0.95354 0.66886 0.6985 0.0
H1267 H 0.97311 0.78314 0.70232 0.0
H1268 H 0.9469 0.76925 0.72789 0.0
H1269 H 0.03294 0.78794 0.69194 0.0
H1270 H 0.90306 0.71112 0.67793 0.0
H1271 H 0.83874 0.65514 0.67795 0.0
H1272 H 0.8834 0.58524 0.66235 0.0
H1273 H 0.94809 0.64072 0.66243 0.0
C1274 C 0.06666 0.805 0.61832 0.0
C1275 C 0.07829 0.781 0.61171 0.0
C1276 C 0.05085 0.79758 0.63284 0.0
C1277 C 0.04582 0.76568 0.64092 0.0
C1278 C 0.0582 0.74218 0.6345 0.0
C1279 C 0.07468 0.74999 0.6201 0.0
C1280 C 0.02614 0.75595 0.65578 0.0
C1281 C 0.99048 0.72297 0.6569 0.0
C1282 C 0.04128 0.77987 0.66851 0.0
C1283 C 0.07899 0.81487 0.66805 0.0
C1284 C 0.1115 0.81328 0.66387 0.0
C1285 C 0.14691 0.84643 0.6634 0.0
C1286 C 0.1502 0.88132 0.66718 0.0
C1287 C 0.1181 0.88312 0.67148 0.0
C1288 C 0.08261 0.85006 0.67196 0.0
C1289 C 0.93512 0.6824 0.71908 0.0
C1290 C 0.93384 0.71066 0.72778 0.0
C1291 C 0.95113 0.69067 0.70458 0.0
C1292 C 0.96531 0.72711 0.69831 0.0
C1293 C 0.96265 0.75488 0.70684 0.0
C1294 C 0.94735 0.74684 0.72143 0.0
C1295 C 0.98482 0.73695 0.6833 0.0
C1296 C 0.02056 0.77004 0.68209 0.0
C1297 C 0.96934 0.71348 0.67038 0.0
C1298 C 0.93049 0.68002 0.67033 0.0
C1299 C 0.89921 0.68375 0.67462 0.0
C1300 C 0.86268 0.65212 0.67459 0.0
C1301 C 0.857 0.61664 0.67019 0.0
C1302 C 0.88785 0.61274 0.66578 0.0
C1303 C 0.92445 0.64427 0.6658 0.0
H1304 H 0.82869 0.59219 0.67017 0.0
H1305 H 0.17764 0.90695 0.66681 0.0
H1306 H 0.18355 0.962 0.0649 0.0
H1307 H 0.19532 0.9868 0.03899 0.0
H1308 H 0.26843 0.94009 0.03133 0.0
H1309 H 0.25586 0.91412 0.05706 0.0
H1310 H 0.29387 0.03204 0.0273 0.0
H1311 H 0.21059 0.89913 0.01211 0.0
H1312 H 0.15031 0.83835 0.01346 0.0
H1313 H 0.08888 0.89488 1.00127 0.0
H1314 H 0.14883 0.95612 1.00008 0.0
H1315 H 0.34978 0.08298 0.95092 0.0
H1316 H 0.33347 0.05567 0.97625 0.0
H1317 H 0.21928 0.03485 0.97038 0.0
H1318 H 0.23505 0.05993 0.94467 0.0
H1319 H 0.21314 0.97645 0.98194 0.0
H1320 H 0.29052 0.10676 0.99531 0.0
H1321 H 0.34683 0.17089 0.99531 0.0
H1322 H 0.41492 0.1258 0.01251 0.0
H1323 H 0.3591 0.0613 0.01243 0.0
C1324 C 0.20132 0.95614 0.05755 0.0
C1325 C 0.21858 0.93589 0.06297 0.0
C1326 C 0.20814 0.97046 0.0428 0.0
C1327 C 0.23279 0.96532 0.0333 0.0
C1328 C 0.24919 0.94418 0.0385 0.0
C1329 C 0.24175 0.92914 0.05315 0.0
C1330 C 0.24345 0.98434 0.01836 0.0
C1331 C 0.27662 0.01979 0.01728 0.0
C1332 C 0.22004 0.96899 0.00554 0.0
C1333 C 0.1841 0.93222 0.00621 0.0
C1334 C 0.18419 0.89866 0.0099 0.0
C1335 C 0.1501 0.86411 0.01058 0.0
C1336 C 0.11577 0.86277 0.0075 0.0
C1337 C 0.11548 0.89597 1.00368 0.0
C1338 C 0.1495 0.93059 1.00299 0.0
C1339 C 0.32143 0.07327 0.95517 0.0
C1340 C 0.29376 0.07382 0.94586 0.0
C1341 C 0.31206 0.05767 0.96971 0.0
C1342 C 0.27512 0.0434 0.97546 0.0
C1343 C 0.2479 0.04537 0.96629 0.0
C1344 C 0.25701 0.06005 0.95162 0.0
C1345 C 0.26424 0.02453 0.9906 0.0
C1346 C 0.23077 0.98907 0.99183 0.0
C1347 C 0.28703 0.0404 1.00367 0.0
C1348 C 0.32069 0.07914 1.00372 0.0
C1349 C 0.31756 0.11048 0.99898 0.0
C1350 C 0.34938 0.1469 0.99902 0.0
C1351 C 0.38445 0.1524 1.00387 0.0
C1352 C 0.38775 0.12149 0.00874 0.0
C1353 C 0.35602 0.085 0.00871 0.0
H1354 H 0.40906 0.18062 1.00389 0.0
H1355 H 0.08941 0.836 0.00803 0.0
loop_
_geom_bond_atom_site_label_1
_geom_bond_atom_site_label_2
_geom_bond_distance
_geom_bond_site_symmetry_2
_ccdc_geom_bond_type
In0 O1 2.294 . S
In0 O2 2.326 . S
In0 O6 2.266 . S
In0 O7 2.326 . S
In0 O8 2.266 . S
In0 O9 2.326 . S
In0 O11 2.294 . S
In0 O12 2.326 . S
O1 In0 2.294 . S
O1 C10 1.240 . S
O2 In0 2.326 . S
O2 C10 1.252 . S
C3 O6 1.252 . S
C3 O7 1.260 . S
C4 O11 1.240 . S
C4 O12 1.252 . S
C5 O8 1.252 . S
C5 O9 1.260 . S
O6 In0 2.266 . S
O6 C3 1.252 . S
O7 In0 2.326 . S
O7 C3 1.260 . S
O8 In0 2.266 . S
O8 C5 1.252 . S
O9 In0 2.326 . S
O9 C5 1.260 . S
C10 O1 1.240 . S
C10 O2 1.252 . S
O11 In0 2.294 . S
O11 C4 1.240 . S
O12 In0 2.326 . S
O12 C4 1.252 . S
In13 O14 2.294 . S
In13 O15 2.326 . S
In13 O19 2.266 . S
In13 O20 2.326 . S
In13 O21 2.266 1_655 S
In13 O22 2.326 . S
In13 O24 2.294 . S
In13 O25 2.326 . S
O14 In13 2.294 . S
O14 C23 1.240 . S
O15 In13 2.326 . S
O15 C23 1.252 . S
C16 O19 1.252 . S
C16 O20 1.260 . S
C17 O24 1.240 . S
C17 O25 1.252 . S
C18 O21 1.252 . S
C18 O22 1.260 1_455 S
O19 In13 2.266 . S
O19 C16 1.252 . S
O20 In13 2.326 . S
O20 C16 1.260 . S
O21 In13 2.266 1_455 S
O21 C18 1.252 . S
O22 In13 2.326 . S
O22 C18 1.260 1_655 S
C23 O14 1.240 . S
C23 O15 1.252 . S
O24 In13 2.294 . S
O24 C17 1.240 . S
O25 In13 2.326 . S
O25 C17 1.252 . S
In26 O27 2.294 . S
In26 O28 2.326 . S
In26 O32 2.266 1_565 S
In26 O33 2.326 . S
In26 O34 2.266 . S
In26 O35 2.326 . S
In26 O37 2.294 . S
In26 O38 2.326 . S
O27 In26 2.294 . S
O27 C36 1.240 . S
O28 In26 2.326 . S
O28 C36 1.252 . S
C29 O32 1.252 . S
C29 O33 1.260 1_545 S
C30 O37 1.240 . S
C30 O38 1.252 . S
C31 O34 1.252 . S
C31 O35 1.260 . S
O32 In26 2.266 1_545 S
O32 C29 1.252 . S
O33 In26 2.326 . S
O33 C29 1.260 1_565 S
O34 In26 2.266 . S
O34 C31 1.252 . S
O35 In26 2.326 . S
O35 C31 1.260 . S
C36 O27 1.240 . S
C36 O28 1.252 . S
O37 In26 2.294 . S
O37 C30 1.240 . S
O38 In26 2.326 . S
O38 C30 1.252 . S
In39 O40 2.294 . S
In39 O41 2.326 . S
In39 O45 2.266 . S
In39 O46 2.326 . S
In39 O47 2.266 . S
In39 O48 2.326 . S
In39 O50 2.294 . S
In39 O51 2.326 . S
O40 In39 2.294 . S
O40 C49 1.240 . S
O41 In39 2.326 . S
O41 C49 1.252 . S
C42 O45 1.252 . S
C42 O46 1.260 . S
C43 O50 1.240 . S
C43 O51 1.252 . S
C44 O47 1.252 . S
C44 O48 1.260 . S
O45 In39 2.266 . S
O45 C42 1.252 . S
O46 In39 2.326 . S
O46 C42 1.260 . S
O47 In39 2.266 . S
O47 C44 1.252 . S
O48 In39 2.326 . S
O48 C44 1.260 . S
C49 O40 1.240 . S
C49 O41 1.252 . S
O50 In39 2.294 . S
O50 C43 1.240 . S
O51 In39 2.326 . S
O51 C43 1.252 . S
In52 O53 2.294 . S
In52 O54 2.326 . S
In52 O58 2.266 . S
In52 O59 2.326 . S
In52 O60 2.266 1_455 S
In52 O61 2.326 . S
In52 O63 2.294 . S
In52 O64 2.326 . S
O53 In52 2.294 . S
O53 C62 1.240 . S
O54 In52 2.326 . S
O54 C62 1.252 . S
C55 O58 1.252 . S
C55 O59 1.260 . S
C56 O63 1.240 . S
C56 O64 1.252 . S
C57 O60 1.252 . S
C57 O61 1.260 1_655 S
O58 In52 2.266 . S
O58 C55 1.252 . S
O59 In52 2.326 . S
O59 C55 1.260 . S
O60 In52 2.266 1_655 S
O60 C57 1.252 . S
O61 In52 2.326 . S
O61 C57 1.260 1_455 S
C62 O53 1.240 . S
C62 O54 1.252 . S
O63 In52 2.294 . S
O63 C56 1.240 . S
O64 In52 2.326 . S
O64 C56 1.252 . S
In65 O66 2.294 . S
In65 O67 2.326 . S
In65 O71 2.266 . S
In65 O72 2.326 . S
In65 O73 2.266 1_545 S
In65 O74 2.326 . S
In65 O76 2.294 . S
In65 O77 2.326 . S
O66 In65 2.294 . S
O66 C75 1.240 . S
O67 In65 2.326 . S
O67 C75 1.252 . S
C68 O71 1.252 . S
C68 O72 1.260 . S
C69 O76 1.240 . S
C69 O77 1.252 . S
C70 O73 1.252 . S
C70 O74 1.260 1_565 S
O71 In65 2.266 . S
O71 C68 1.252 . S
O72 In65 2.326 . S
O72 C68 1.260 . S
O73 In65 2.266 1_565 S
O73 C70 1.252 . S
O74 In65 2.326 . S
O74 C70 1.260 1_545 S
C75 O66 1.240 . S
C75 O67 1.252 . S
O76 In65 2.294 . S
O76 C69 1.240 . S
O77 In65 2.326 . S
O77 C69 1.252 . S
In78 O79 2.294 . S
In78 O80 2.326 . S
In78 O84 2.266 . S
In78 O85 2.326 . S
In78 O86 2.266 . S
In78 O87 2.326 . S
In78 O89 2.294 . S
In78 O90 2.326 . S
O79 In78 2.294 . S
O79 C88 1.240 . S
O80 In78 2.326 . S
O80 C88 1.252 . S
C81 O84 1.252 . S
C81 O85 1.260 . S
C82 O89 1.240 . S
C82 O90 1.252 . S
C83 O86 1.252 . S
C83 O87 1.260 . S
O84 In78 2.266 . S
O84 C81 1.252 . S
O85 In78 2.326 . S
O85 C81 1.260 . S
O86 In78 2.266 . S
O86 C83 1.252 . S
O87 In78 2.326 . S
O87 C83 1.260 . S
C88 O79 1.240 . S
C88 O80 1.252 . S
O89 In78 2.294 . S
O89 C82 1.240 . S
O90 In78 2.326 . S
O90 C82 1.252 . S
In91 O92 2.294 . S
In91 O93 2.326 . S
In91 O97 2.266 . S
In91 O98 2.326 . S
In91 O99 2.266 1_655 S
In91 O100 2.326 . S
In91 O102 2.294 . S
In91 O103 2.326 . S
O92 In91 2.294 . S
O92 C101 1.240 . S
O93 In91 2.326 . S
O93 C101 1.252 . S
C94 O97 1.252 . S
C94 O98 1.260 . S
C95 O102 1.240 . S
C95 O103 1.252 . S
C96 O99 1.252 . S
C96 O100 1.260 1_455 S
O97 In91 2.266 . S
O97 C94 1.252 . S
O98 In91 2.326 . S
O98 C94 1.260 . S
O99 In91 2.266 1_455 S
O99 C96 1.252 . S
O100 In91 2.326 . S
O100 C96 1.260 1_655 S
C101 O92 1.240 . S
C101 O93 1.252 . S
O102 In91 2.294 . S
O102 C95 1.240 . S
O103 In91 2.326 . S
O103 C95 1.252 . S
In104 O105 2.294 . S
In104 O106 2.326 . S
In104 O110 2.266 . S
In104 O111 2.326 . S
In104 O112 2.266 1_565 S
In104 O113 2.326 . S
In104 O115 2.294 . S
In104 O116 2.326 . S
O105 In104 2.294 . S
O105 C114 1.240 . S
O106 In104 2.326 . S
O106 C114 1.252 . S
C107 O110 1.252 . S
C107 O111 1.260 . S
C108 O115 1.240 . S
C108 O116 1.252 . S
C109 O112 1.252 . S
C109 O113 1.260 1_545 S
O110 In104 2.266 . S
O110 C107 1.252 . S
O111 In104 2.326 . S
O111 C107 1.260 . S
O112 In104 2.266 1_545 S
O112 C109 1.252 . S
O113 In104 2.326 . S
O113 C109 1.260 1_565 S
C114 O105 1.240 . S
C114 O106 1.252 . S
O115 In104 2.294 . S
O115 C108 1.240 . S
O116 In104 2.326 . S
O116 C108 1.252 . S
In117 O118 2.294 . S
In117 O119 2.326 . S
In117 O123 2.266 . S
In117 O124 2.326 . S
In117 O125 2.266 . S
In117 O126 2.326 . S
In117 O128 2.294 . S
In117 O129 2.326 . S
O118 In117 2.294 . S
O118 C127 1.240 . S
O119 In117 2.326 . S
O119 C127 1.252 . S
C120 O123 1.252 . S
C120 O124 1.260 . S
C121 O128 1.240 . S
C121 O129 1.252 . S
C122 O125 1.252 . S
C122 O126 1.260 . S
O123 In117 2.266 . S
O123 C120 1.252 . S
O124 In117 2.326 . S
O124 C120 1.260 . S
O125 In117 2.266 . S
O125 C122 1.252 . S
O126 In117 2.326 . S
O126 C122 1.260 . S
C127 O118 1.240 . S
C127 O119 1.252 . S
O128 In117 2.294 . S
O128 C121 1.240 . S
O129 In117 2.326 . S
O129 C121 1.252 . S
In130 O131 2.294 . S
In130 O132 2.326 . S
In130 O136 2.266 1_455 S
In130 O137 2.326 . S
In130 O138 2.266 . S
In130 O139 2.326 . S
In130 O141 2.294 . S
In130 O142 2.326 . S
O131 In130 2.294 . S
O131 C140 1.240 . S
O132 In130 2.326 . S
O132 C140 1.252 . S
C133 O136 1.252 . S
C133 O137 1.260 1_655 S
C134 O141 1.240 . S
C134 O142 1.252 . S
C135 O138 1.252 . S
C135 O139 1.260 . S
O136 In130 2.266 1_655 S
O136 C133 1.252 . S
O137 In130 2.326 . S
O137 C133 1.260 1_455 S
O138 In130 2.266 . S
O138 C135 1.252 . S
O139 In130 2.326 . S
O139 C135 1.260 . S
C140 O131 1.240 . S
C140 O132 1.252 . S
O141 In130 2.294 . S
O141 C134 1.240 . S
O142 In130 2.326 . S
O142 C134 1.252 . S
In143 O144 2.294 . S
In143 O145 2.326 . S
In143 O149 2.266 1_545 S
In143 O150 2.326 . S
In143 O151 2.266 . S
In143 O152 2.326 . S
In143 O154 2.294 . S
In143 O155 2.326 . S
O144 In143 2.294 . S
O144 C153 1.240 . S
O145 In143 2.326 . S
O145 C153 1.252 . S
C146 O149 1.252 . S
C146 O150 1.260 1_565 S
C147 O154 1.240 . S
C147 O155 1.252 . S
C148 O151 1.252 . S
C148 O152 1.260 . S
O149 In143 2.266 1_565 S
O149 C146 1.252 . S
O150 In143 2.326 . S
O150 C146 1.260 1_545 S
O151 In143 2.266 . S
O151 C148 1.252 . S
O152 In143 2.326 . S
O152 C148 1.260 . S
C153 O144 1.240 . S
C153 O145 1.252 . S
O154 In143 2.294 . S
O154 C147 1.240 . S
O155 In143 2.326 . S
O155 C147 1.252 . S
H156 C174 0.951 . S
H157 C176 0.951 . S
H158 C178 0.950 . S
H159 C179 0.950 . S
H160 C181 0.950 . S
H161 C184 0.950 . S
H162 C185 0.950 . S
H163 C187 0.950 . S
H164 C188 0.950 . S
H165 C189 0.951 . S
H166 C191 0.951 . S
H167 C193 0.950 . S
H168 C194 0.950 . S
H169 C196 0.950 . S
H170 C199 0.950 . S
H171 C200 0.950 . S
H172 C202 0.950 . S
H173 C203 0.950 . S
C174 H156 0.951 . S
C174 C175 1.366 . S
C174 C176 1.388 . S
C175 C174 1.366 . S
C175 C179 1.385 . S
C176 H157 0.951 . S
C176 C174 1.388 . S
C176 C177 1.366 . S
C177 C176 1.366 . S
C177 C178 1.414 . S
C177 C180 1.499 . S
C178 H158 0.950 . S
C178 C177 1.414 . S
C178 C179 1.374 . S
C179 H159 0.950 . S
C179 C175 1.385 . S
C179 C178 1.374 . S
C180 C177 1.499 . S
C180 C181 1.373 . S
C180 C182 1.389 . S
C181 H160 0.950 . S
C181 C180 1.373 . S
C181 C197 1.377 1_655 S
C182 C180 1.389 . S
C182 C183 1.524 . S
C182 C196 1.377 1_655 S
C183 C182 1.524 . S
C183 C184 1.397 . S
C183 C188 1.363 . S
C184 H161 0.950 . S
C184 C183 1.397 . S
C184 C185 1.334 . S
C185 H162 0.950 . S
C185 C184 1.334 . S
C185 C186 1.287 . S
C186 C185 1.287 . S
C186 C187 1.524 . S
C186 H205 0.913 . S
C187 H163 0.950 . S
C187 C186 1.524 . S
C187 C188 1.415 . S
C188 H164 0.950 . S
C188 C183 1.363 . S
C188 C187 1.415 . S
C189 H165 0.951 . S
C189 C190 1.366 . S
C189 C191 1.388 . S
C190 C189 1.366 . S
C190 C194 1.385 . S
C191 H166 0.951 . S
C191 C189 1.388 . S
C191 C192 1.366 . S
C192 C191 1.366 . S
C192 C193 1.414 . S
C192 C195 1.499 . S
C193 H167 0.950 . S
C193 C192 1.414 . S
C193 C194 1.374 . S
C194 H168 0.950 . S
C194 C190 1.385 . S
C194 C193 1.374 . S
C195 C192 1.499 . S
C195 C196 1.373 . S
C195 C197 1.389 . S
C196 H169 0.950 . S
C196 C182 1.377 1_455 S
C196 C195 1.373 . S
C197 C181 1.377 1_455 S
C197 C195 1.389 . S
C197 C198 1.524 . S
C198 C197 1.524 . S
C198 C199 1.397 . S
C198 C203 1.363 . S
C199 H170 0.950 . S
C199 C198 1.397 . S
C199 C200 1.334 . S
C200 H171 0.950 . S
C200 C199 1.334 . S
C200 C201 1.287 . S
C201 C200 1.287 . S
C201 C202 1.524 . S
C201 H204 0.999 . S
C202 H172 0.950 . S
C202 C201 1.524 . S
C202 C203 1.415 . S
C203 H173 0.950 . S
C203 C198 1.363 . S
C203 C202 1.415 . S
H204 C201 0.999 . S
H205 C186 0.913 . S
H206 C224 0.951 . S
H207 C226 0.951 . S
H208 C228 0.950 . S
H209 C229 0.950 . S
H210 C231 0.950 . S
H211 C234 0.950 . S
H212 C235 0.950 . S
H213 C237 0.950 . S
H214 C238 0.950 . S
H215 C239 0.951 . S
H216 C241 0.951 . S
H217 C243 0.950 . S
H218 C244 0.950 . S
H219 C246 0.950 . S
H220 C249 0.950 . S
H221 C250 0.950 . S
H222 C252 0.950 . S
H223 C253 0.950 . S
C224 H206 0.951 . S
C224 C225 1.366 . S
C224 C226 1.388 . S
C225 C224 1.366 . S
C225 C229 1.385 . S
C226 H207 0.951 . S
C226 C224 1.388 . S
C226 C227 1.366 . S
C227 C226 1.366 . S
C227 C228 1.414 . S
C227 C230 1.499 . S
C228 H208 0.950 . S
C228 C227 1.414 . S
C228 C229 1.374 . S
C229 H209 0.950 . S
C229 C225 1.385 . S
C229 C228 1.374 . S
C230 C227 1.499 . S
C230 C231 1.373 . S
C230 C232 1.389 . S
C231 H210 0.950 . S
C231 C230 1.373 . S
C231 C247 1.377 1_545 S
C232 C230 1.389 . S
C232 C233 1.524 . S
C232 C246 1.377 1_545 S
C233 C232 1.524 . S
C233 C234 1.397 . S
C233 C238 1.363 . S
C234 H211 0.950 . S
C234 C233 1.397 . S
C234 C235 1.334 . S
C235 H212 0.950 . S
C235 C234 1.334 . S
C235 C236 1.287 . S
C236 C235 1.287 . S
C236 C237 1.524 . S
C236 H255 0.913 . S
C237 H213 0.950 . S
C237 C236 1.524 . S
C237 C238 1.415 . S
C238 H214 0.950 . S
C238 C233 1.363 . S
C238 C237 1.415 . S
C239 H215 0.951 . S
C239 C240 1.366 . S
C239 C241 1.388 . S
C240 C239 1.366 . S
C240 C244 1.385 . S
C241 H216 0.951 . S
C241 C239 1.388 . S
C241 C242 1.366 . S
C242 C241 1.366 . S
C242 C243 1.414 . S
C242 C245 1.499 . S
C243 H217 0.950 . S
C243 C242 1.414 . S
C243 C244 1.374 . S
C244 H218 0.950 . S
C244 C240 1.385 . S
C244 C243 1.374 . S
C245 C242 1.499 . S
C245 C246 1.373 . S
C245 C247 1.389 . S
C246 H219 0.950 . S
C246 C232 1.377 1_565 S
C246 C245 1.373 . S
C247 C231 1.377 1_565 S
C247 C245 1.389 . S
C247 C248 1.524 . S
C248 C247 1.524 . S
C248 C249 1.397 . S
C248 C253 1.363 . S
C249 H220 0.950 . S
C249 C248 1.397 . S
C249 C250 1.334 . S
C250 H221 0.950 . S
C250 C249 1.334 . S
C250 C251 1.287 . S
C251 C250 1.287 . S
C251 C252 1.524 . S
C251 H254 0.999 . S
C252 H222 0.950 . S
C252 C251 1.524 . S
C252 C253 1.415 . S
C253 H223 0.950 . S
C253 C248 1.363 . S
C253 C252 1.415 . S
H254 C251 0.999 . S
H255 C236 0.913 . S
H256 C274 0.951 . S
H257 C276 0.951 . S
H258 C278 0.950 . S
H259 C279 0.950 . S
H260 C281 0.950 . S
H261 C284 0.950 . S
H262 C285 0.950 . S
H263 C287 0.950 . S
H264 C288 0.950 . S
H265 C289 0.951 . S
H266 C291 0.951 . S
H267 C293 0.950 . S
H268 C294 0.950 . S
H269 C296 0.950 . S
H270 C299 0.950 . S
H271 C300 0.950 . S
H272 C302 0.950 . S
H273 C303 0.950 . S
C274 H256 0.951 . S
C274 C275 1.366 . S
C274 C276 1.388 . S
C275 C274 1.366 . S
C275 C279 1.385 . S
C276 H257 0.951 . S
C276 C274 1.388 . S
C276 C277 1.366 . S
C277 C276 1.366 . S
C277 C278 1.414 . S
C277 C280 1.499 . S
C278 H258 0.950 . S
C278 C277 1.414 . S
C278 C279 1.374 . S
C279 H259 0.950 . S
C279 C275 1.385 . S
C279 C278 1.374 . S
C280 C277 1.499 . S
C280 C281 1.373 . S
C280 C282 1.389 . S
C281 H260 0.950 . S
C281 C280 1.373 . S
C281 C297 1.377 . S
C282 C280 1.389 . S
C282 C283 1.524 . S
C282 C296 1.377 . S
C283 C282 1.524 . S
C283 C284 1.397 . S
C283 C288 1.363 . S
C284 H261 0.950 . S
C284 C283 1.397 . S
C284 C285 1.334 . S
C285 H262 0.950 . S
C285 C284 1.334 . S
C285 C286 1.287 . S
C286 C285 1.287 . S
C286 C287 1.524 . S
C286 H305 0.913 . S
C287 H263 0.950 . S
C287 C286 1.524 . S
C287 C288 1.415 . S
C288 H264 0.950 . S
C288 C283 1.363 . S
C288 C287 1.415 . S
C289 H265 0.951 . S
C289 C290 1.366 . S
C289 C291 1.388 . S
C290 C289 1.366 . S
C290 C294 1.385 . S
C291 H266 0.951 . S
C291 C289 1.388 . S
C291 C292 1.366 . S
C292 C291 1.366 . S
C292 C293 1.414 . S
C292 C295 1.499 . S
C293 H267 0.950 . S
C293 C292 1.414 . S
C293 C294 1.374 . S
C294 H268 0.950 . S
C294 C290 1.385 . S
C294 C293 1.374 . S
C295 C292 1.499 . S
C295 C296 1.373 . S
C295 C297 1.389 . S
C296 H269 0.950 . S
C296 C282 1.377 . S
C296 C295 1.373 . S
C297 C281 1.377 . S
C297 C295 1.389 . S
C297 C298 1.524 . S
C298 C297 1.524 . S
C298 C299 1.397 . S
C298 C303 1.363 . S
C299 H270 0.950 . S
C299 C298 1.397 . S
C299 C300 1.334 . S
C300 H271 0.950 . S
C300 C299 1.334 . S
C300 C301 1.287 . S
C301 C300 1.287 . S
C301 C302 1.524 . S
C301 H304 0.999 . S
C302 H272 0.950 . S
C302 C301 1.524 . S
C302 C303 1.415 . S
C303 H273 0.950 . S
C303 C298 1.363 . S
C303 C302 1.415 . S
H304 C301 0.999 . S
H305 C286 0.913 . S
H306 C324 0.951 . S
H307 C326 0.951 . S
H308 C328 0.950 . S
H309 C329 0.950 . S
H310 C331 0.950 . S
H311 C334 0.950 . S
H312 C335 0.950 . S
H313 C337 0.950 . S
H314 C338 0.950 . S
H315 C339 0.951 . S
H316 C341 0.951 . S
H317 C343 0.950 . S
H318 C344 0.950 . S
H319 C346 0.950 . S
H320 C349 0.950 . S
H321 C350 0.950 . S
H322 C352 0.950 . S
H323 C353 0.950 . S
C324 H306 0.951 . S
C324 C325 1.366 . S
C324 C326 1.388 . S
C325 C324 1.366 . S
C325 C329 1.385 . S
C326 H307 0.951 . S
C326 C324 1.388 . S
C326 C327 1.366 . S
C327 C326 1.366 . S
C327 C328 1.414 . S
C327 C330 1.499 . S
C328 H308 0.950 . S
C328 C327 1.414 . S
C328 C329 1.374 . S
C329 H309 0.950 . S
C329 C325 1.385 . S
C329 C328 1.374 . S
C330 C327 1.499 . S
C330 C331 1.373 . S
C330 C332 1.389 . S
C331 H310 0.950 . S
C331 C330 1.373 . S
C331 C347 1.377 1_655 S
C332 C330 1.389 . S
C332 C333 1.524 . S
C332 C346 1.377 1_655 S
C333 C332 1.524 . S
C333 C334 1.397 . S
C333 C338 1.363 . S
C334 H311 0.950 . S
C334 C333 1.397 . S
C334 C335 1.334 . S
C335 H312 0.950 . S
C335 C334 1.334 . S
C335 C336 1.287 . S
C336 C335 1.287 . S
C336 C337 1.524 . S
C336 H355 0.913 . S
C337 H313 0.950 . S
C337 C336 1.524 . S
C337 C338 1.415 . S
C338 H314 0.950 . S
C338 C333 1.363 . S
C338 C337 1.415 . S
C339 H315 0.951 . S
C339 C340 1.366 . S
C339 C341 1.388 . S
C340 C339 1.366 . S
C340 C344 1.385 . S
C341 H316 0.951 . S
C341 C339 1.388 . S
C341 C342 1.366 . S
C342 C341 1.366 . S
C342 C343 1.414 . S
C342 C345 1.499 . S
C343 H317 0.950 . S
C343 C342 1.414 . S
C343 C344 1.374 . S
C344 H318 0.950 . S
C344 C340 1.385 . S
C344 C343 1.374 . S
C345 C342 1.499 . S
C345 C346 1.373 . S
C345 C347 1.389 . S
C346 H319 0.950 . S
C346 C332 1.377 1_455 S
C346 C345 1.373 . S
C347 C331 1.377 1_455 S
C347 C345 1.389 . S
C347 C348 1.524 . S
C348 C347 1.524 . S
C348 C349 1.397 . S
C348 C353 1.363 . S
C349 H320 0.950 . S
C349 C348 1.397 . S
C349 C350 1.334 . S
C350 H321 0.950 . S
C350 C349 1.334 . S
C350 C351 1.287 . S
C351 C350 1.287 . S
C351 C352 1.524 . S
C351 H354 0.999 . S
C352 H322 0.950 . S
C352 C351 1.524 . S
C352 C353 1.415 . S
C353 H323 0.950 . S
C353 C348 1.363 . S
C353 C352 1.415 . S
H354 C351 0.999 . S
H355 C336 0.913 . S
H356 C374 0.951 . S
H357 C376 0.951 . S
H358 C378 0.950 . S
H359 C379 0.950 . S
H360 C381 0.950 . S
H361 C384 0.950 . S
H362 C385 0.950 . S
H363 C387 0.950 . S
H364 C388 0.950 . S
H365 C389 0.951 . S
H366 C391 0.951 . S
H367 C393 0.950 . S
H368 C394 0.950 . S
H369 C396 0.950 . S
H370 C399 0.950 . S
H371 C400 0.950 . S
H372 C402 0.950 . S
H373 C403 0.950 . S
C374 H356 0.951 . S
C374 C375 1.366 . S
C374 C376 1.388 . S
C375 C374 1.366 . S
C375 C379 1.385 . S
C376 H357 0.951 . S
C376 C374 1.388 . S
C376 C377 1.366 . S
C377 C376 1.366 . S
C377 C378 1.414 . S
C377 C380 1.499 . S
C378 H358 0.950 . S
C378 C377 1.414 . S
C378 C379 1.374 . S
C379 H359 0.950 . S
C379 C375 1.385 . S
C379 C378 1.374 . S
C380 C377 1.499 . S
C380 C381 1.373 . S
C380 C382 1.389 . S
C381 H360 0.950 . S
C381 C380 1.373 . S
C381 C397 1.377 1_545 S
C382 C380 1.389 . S
C382 C383 1.524 . S
C382 C396 1.377 1_545 S
C383 C382 1.524 . S
C383 C384 1.397 . S
C383 C388 1.363 1_545 S
C384 H361 0.950 . S
C384 C383 1.397 . S
C384 C385 1.334 . S
C385 H362 0.950 . S
C385 C384 1.334 . S
C385 C386 1.287 . S
C386 C385 1.287 . S
C386 C387 1.524 1_545 S
C386 H405 0.913 . S
C387 H363 0.950 . S
C387 C386 1.524 1_565 S
C387 C388 1.415 . S
C388 H364 0.950 . S
C388 C383 1.363 1_565 S
C388 C387 1.415 . S
C389 H365 0.951 . S
C389 C390 1.366 . S
C389 C391 1.388 . S
C390 C389 1.366 . S
C390 C394 1.385 . S
C391 H366 0.951 . S
C391 C389 1.388 . S
C391 C392 1.366 . S
C392 C391 1.366 . S
C392 C393 1.414 . S
C392 C395 1.499 . S
C393 H367 0.950 . S
C393 C392 1.414 . S
C393 C394 1.374 . S
C394 H368 0.950 . S
C394 C390 1.385 . S
C394 C393 1.374 . S
C395 C392 1.499 . S
C395 C396 1.373 . S
C395 C397 1.389 . S
C396 H369 0.950 . S
C396 C382 1.377 1_565 S
C396 C395 1.373 . S
C397 C381 1.377 1_565 S
C397 C395 1.389 . S
C397 C398 1.524 . S
C398 C397 1.524 . S
C398 C399 1.397 . S
C398 C403 1.363 1_565 S
C399 H370 0.950 . S
C399 C398 1.397 . S
C399 C400 1.334 . S
C400 H371 0.950 . S
C400 C399 1.334 . S
C400 C401 1.287 . S
C401 C400 1.287 . S
C401 C402 1.524 1_565 S
C401 H404 0.999 . S
C402 H372 0.950 . S
C402 C401 1.524 1_545 S
C402 C403 1.415 . S
C403 H373 0.950 . S
C403 C398 1.363 1_545 S
C403 C402 1.415 . S
H404 C401 0.999 . S
H405 C386 0.913 . S
H406 C424 0.951 . S
H407 C426 0.951 . S
H408 C428 0.950 . S
H409 C429 0.950 . S
H410 C431 0.950 . S
H411 C434 0.950 . S
H412 C435 0.950 . S
H413 C437 0.950 . S
H414 C438 0.950 . S
H415 C439 0.951 . S
H416 C441 0.951 . S
H417 C443 0.950 . S
H418 C444 0.950 . S
H419 C446 0.950 . S
H420 C449 0.950 . S
H421 C450 0.950 . S
H422 C452 0.950 . S
H423 C453 0.950 . S
C424 H406 0.951 . S
C424 C425 1.366 . S
C424 C426 1.388 . S
C425 C424 1.366 . S
C425 C429 1.385 . S
C426 H407 0.951 . S
C426 C424 1.388 . S
C426 C427 1.366 . S
C427 C426 1.366 . S
C427 C428 1.414 . S
C427 C430 1.499 . S
C428 H408 0.950 . S
C428 C427 1.414 . S
C428 C429 1.374 . S
C429 H409 0.950 . S
C429 C425 1.385 . S
C429 C428 1.374 . S
C430 C427 1.499 . S
C430 C431 1.373 . S
C430 C432 1.389 . S
C431 H410 0.950 . S
C431 C430 1.373 . S
C431 C447 1.377 . S
C432 C430 1.389 . S
C432 C433 1.524 . S
C432 C446 1.377 . S
C433 C432 1.524 . S
C433 C434 1.397 . S
C433 C438 1.363 . S
C434 H411 0.950 . S
C434 C433 1.397 . S
C434 C435 1.334 . S
C435 H412 0.950 . S
C435 C434 1.334 . S
C435 C436 1.287 . S
C436 C435 1.287 . S
C436 C437 1.524 . S
C436 H455 0.913 . S
C437 H413 0.950 . S
C437 C436 1.524 . S
C437 C438 1.415 . S
C438 H414 0.950 . S
C438 C433 1.363 . S
C438 C437 1.415 . S
C439 H415 0.951 . S
C439 C440 1.366 . S
C439 C441 1.388 . S
C440 C439 1.366 . S
C440 C444 1.385 . S
C441 H416 0.951 . S
C441 C439 1.388 . S
C441 C442 1.366 . S
C442 C441 1.366 . S
C442 C443 1.414 . S
C442 C445 1.499 . S
C443 H417 0.950 . S
C443 C442 1.414 . S
C443 C444 1.374 . S
C444 H418 0.950 . S
C444 C440 1.385 . S
C444 C443 1.374 . S
C445 C442 1.499 . S
C445 C446 1.373 . S
C445 C447 1.389 . S
C446 H419 0.950 . S
C446 C432 1.377 . S
C446 C445 1.373 . S
C447 C431 1.377 . S
C447 C445 1.389 . S
C447 C448 1.524 . S
C448 C447 1.524 . S
C448 C449 1.397 . S
C448 C453 1.363 . S
C449 H420 0.950 . S
C449 C448 1.397 . S
C449 C450 1.334 . S
C450 H421 0.950 . S
C450 C449 1.334 . S
C450 C451 1.287 . S
C451 C450 1.287 . S
C451 C452 1.524 . S
C451 H454 0.999 . S
C452 H422 0.950 . S
C452 C451 1.524 . S
C452 C453 1.415 . S
C453 H423 0.950 . S
C453 C448 1.363 . S
C453 C452 1.415 . S
H454 C451 0.999 . S
H455 C436 0.913 . S
H456 C474 0.951 . S
H457 C476 0.951 . S
H458 C478 0.950 . S
H459 C479 0.950 . S
H460 C481 0.950 . S
H461 C484 0.950 . S
H462 C485 0.950 . S
H463 C487 0.950 . S
H464 C488 0.950 . S
H465 C489 0.951 . S
H466 C491 0.951 . S
H467 C493 0.950 . S
H468 C494 0.950 . S
H469 C496 0.950 . S
H470 C499 0.950 . S
H471 C500 0.950 . S
H472 C502 0.950 . S
H473 C503 0.950 . S
C474 H456 0.951 . S
C474 C475 1.366 . S
C474 C476 1.388 . S
C475 C474 1.366 . S
C475 C479 1.385 . S
C476 H457 0.951 . S
C476 C474 1.388 . S
C476 C477 1.366 . S
C477 C476 1.366 . S
C477 C478 1.414 . S
C477 C480 1.499 . S
C478 H458 0.950 . S
C478 C477 1.414 . S
C478 C479 1.374 . S
C479 H459 0.950 . S
C479 C475 1.385 . S
C479 C478 1.374 . S
C480 C477 1.499 . S
C480 C481 1.373 . S
C480 C482 1.389 . S
C481 H460 0.950 . S
C481 C480 1.373 . S
C481 C497 1.377 . S
C482 C480 1.389 . S
C482 C483 1.524 . S
C482 C496 1.377 . S
C483 C482 1.524 . S
C483 C484 1.397 . S
C483 C488 1.363 . S
C484 H461 0.950 . S
C484 C483 1.397 . S
C484 C485 1.334 . S
C485 H462 0.950 . S
C485 C484 1.334 . S
C485 C486 1.287 . S
C486 C485 1.287 . S
C486 C487 1.524 . S
C486 H505 0.913 . S
C487 H463 0.950 . S
C487 C486 1.524 . S
C487 C488 1.415 . S
C488 H464 0.950 . S
C488 C483 1.363 . S
C488 C487 1.415 . S
C489 H465 0.951 . S
C489 C490 1.366 . S
C489 C491 1.388 . S
C490 C489 1.366 . S
C490 C494 1.385 . S
C491 H466 0.951 . S
C491 C489 1.388 . S
C491 C492 1.366 . S
C492 C491 1.366 . S
C492 C493 1.414 . S
C492 C495 1.499 . S
C493 H467 0.950 . S
C493 C492 1.414 . S
C493 C494 1.374 . S
C494 H468 0.950 . S
C494 C490 1.385 . S
C494 C493 1.374 . S
C495 C492 1.499 . S
C495 C496 1.373 . S
C495 C497 1.389 . S
C496 H469 0.950 . S
C496 C482 1.377 . S
C496 C495 1.373 . S
C497 C481 1.377 . S
C497 C495 1.389 . S
C497 C498 1.524 . S
C498 C497 1.524 . S
C498 C499 1.397 . S
C498 C503 1.363 . S
C499 H470 0.950 . S
C499 C498 1.397 . S
C499 C500 1.334 . S
C500 H471 0.950 . S
C500 C499 1.334 . S
C500 C501 1.287 . S
C501 C500 1.287 . S
C501 C502 1.524 . S
C501 H504 0.999 . S
C502 H472 0.950 . S
C502 C501 1.524 . S
C502 C503 1.415 . S
C503 H473 0.950 . S
C503 C498 1.363 . S
C503 C502 1.415 . S
H504 C501 0.999 . S
H505 C486 0.913 . S
H506 C524 0.957 . S
H507 C526 0.951 . S
H508 C528 0.950 . S
H509 C529 0.950 . S
H510 C531 0.950 . S
H511 C534 0.950 1_455 S
H512 C535 0.950 . S
H513 C537 0.950 . S
H514 C538 0.950 . S
H515 C539 0.955 . S
H516 C541 0.951 . S
H517 C543 0.950 . S
H518 C544 0.950 . S
H519 C546 0.950 . S
H520 C549 0.950 1_655 S
H521 C550 0.950 . S
H522 C552 0.950 . S
H523 C553 0.950 . S
C524 H506 0.957 . S
C524 C525 1.362 1_655 S
C524 C526 1.386 . S
C525 C524 1.362 1_455 S
C525 C529 1.385 . S
C526 H507 0.951 . S
C526 C524 1.386 . S
C526 C527 1.366 1_655 S
C527 C526 1.366 1_455 S
C527 C528 1.414 . S
C527 C530 1.499 . S
C528 H508 0.950 . S
C528 C527 1.414 . S
C528 C529 1.374 . S
C529 H509 0.950 . S
C529 C525 1.385 . S
C529 C528 1.374 . S
C530 C527 1.499 . S
C530 C531 1.373 . S
C530 C532 1.389 1_455 S
C531 H510 0.950 . S
C531 C530 1.373 . S
C531 C547 1.377 . S
C532 C530 1.389 1_655 S
C532 C533 1.524 . S
C532 C546 1.377 . S
C533 C532 1.524 . S
C533 C534 1.397 . S
C533 C538 1.363 . S
C534 H511 0.950 1_655 S
C534 C533 1.397 . S
C534 C535 1.334 . S
C535 H512 0.950 . S
C535 C534 1.334 . S
C535 C536 1.287 . S
C536 C535 1.287 . S
C536 C537 1.524 . S
C536 H555 0.913 . S
C537 H513 0.950 . S
C537 C536 1.524 . S
C537 C538 1.415 . S
C538 H514 0.950 . S
C538 C533 1.363 . S
C538 C537 1.415 . S
C539 H515 0.955 . S
C539 C540 1.363 1_455 S
C539 C541 1.387 . S
C540 C539 1.363 1_655 S
C540 C544 1.385 . S
C541 H516 0.951 . S
C541 C539 1.387 . S
C541 C542 1.366 1_455 S
C542 C541 1.366 1_655 S
C542 C543 1.414 . S
C542 C545 1.499 . S
C543 H517 0.950 . S
C543 C542 1.414 . S
C543 C544 1.374 . S
C544 H518 0.950 . S
C544 C540 1.385 . S
C544 C543 1.374 . S
C545 C542 1.499 . S
C545 C546 1.373 . S
C545 C547 1.389 1_655 S
C546 H519 0.950 . S
C546 C532 1.377 . S
C546 C545 1.373 . S
C547 C531 1.377 . S
C547 C545 1.389 1_455 S
C547 C548 1.524 . S
C548 C547 1.524 . S
C548 C549 1.397 . S
C548 C553 1.363 . S
C549 H520 0.950 1_455 S
C549 C548 1.397 . S
C549 C550 1.334 . S
C550 H521 0.950 . S
C550 C549 1.334 . S
C550 C551 1.287 . S
C551 C550 1.287 . S
C551 C552 1.524 . S
C551 H554 0.999 . S
C552 H522 0.950 . S
C552 C551 1.524 . S
C552 C553 1.415 . S
C553 H523 0.950 . S
C553 C548 1.363 . S
C553 C552 1.415 . S
H554 C551 0.999 . S
H555 C536 0.913 . S
H556 C574 0.951 . S
H557 C576 0.951 . S
H558 C578 0.950 . S
H559 C579 0.950 1_565 S
H560 C581 0.950 . S
H561 C584 0.950 1_565 S
H562 C585 0.950 1_565 S
H563 C587 0.950 . S
H564 C588 0.950 . S
H565 C589 0.951 . S
H566 C591 0.951 . S
H567 C593 0.950 . S
H568 C594 0.950 1_545 S
H569 C596 0.950 . S
H570 C599 0.950 1_545 S
H571 C600 0.950 1_545 S
H572 C602 0.950 . S
H573 C603 0.950 . S
C574 H556 0.951 . S
C574 C575 1.366 . S
C574 C576 1.388 . S
C575 C574 1.366 . S
C575 C579 1.385 . S
C576 H557 0.951 . S
C576 C574 1.388 . S
C576 C577 1.366 . S
C577 C576 1.366 . S
C577 C578 1.414 1_545 S
C577 C580 1.499 . S
C578 H558 0.950 . S
C578 C577 1.414 1_565 S
C578 C579 1.374 1_565 S
C579 H559 0.950 1_545 S
C579 C575 1.385 . S
C579 C578 1.374 1_545 S
C580 C577 1.499 . S
C580 C581 1.373 1_545 S
C580 C582 1.389 . S
C581 H560 0.950 . S
C581 C580 1.373 1_565 S
C581 C597 1.377 . S
C582 C580 1.389 . S
C582 C583 1.524 . S
C582 C596 1.377 . S
C583 C582 1.524 . S
C583 C584 1.397 . S
C583 C588 1.363 . S
C584 H561 0.950 1_545 S
C584 C583 1.397 . S
C584 C585 1.334 . S
C585 H562 0.950 1_545 S
C585 C584 1.334 . S
C585 C586 1.287 . S
C586 C585 1.287 . S
C586 C587 1.524 . S
C586 H605 0.913 . S
C587 H563 0.950 . S
C587 C586 1.524 . S
C587 C588 1.415 . S
C588 H564 0.950 . S
C588 C583 1.363 . S
C588 C587 1.415 . S
C589 H565 0.951 . S
C589 C590 1.366 . S
C589 C591 1.388 . S
C590 C589 1.366 . S
C590 C594 1.385 . S
C591 H566 0.951 . S
C591 C589 1.388 . S
C591 C592 1.366 . S
C592 C591 1.366 . S
C592 C593 1.414 1_565 S
C592 C595 1.499 . S
C593 H567 0.950 . S
C593 C592 1.414 1_545 S
C593 C594 1.374 1_545 S
C594 H568 0.950 1_565 S
C594 C590 1.385 . S
C594 C593 1.374 1_565 S
C595 C592 1.499 . S
C595 C596 1.373 1_565 S
C595 C597 1.389 . S
C596 H569 0.950 . S
C596 C582 1.377 . S
C596 C595 1.373 1_545 S
C597 C581 1.377 . S
C597 C595 1.389 . S
C597 C598 1.524 . S
C598 C597 1.524 . S
C598 C599 1.397 . S
C598 C603 1.363 . S
C599 H570 0.950 1_565 S
C599 C598 1.397 . S
C599 C600 1.334 . S
C600 H571 0.950 1_565 S
C600 C599 1.334 . S
C600 C601 1.287 . S
C601 C600 1.287 . S
C601 C602 1.524 . S
C601 H604 0.999 . S
C602 H572 0.950 . S
C602 C601 1.524 . S
C602 C603 1.415 . S
C603 H573 0.950 . S
C603 C598 1.363 . S
C603 C602 1.415 . S
H604 C601 0.999 . S
H605 C586 0.913 . S
H606 C624 0.951 . S
H607 C626 0.951 . S
H608 C628 0.950 . S
H609 C629 0.950 . S
H610 C631 0.950 . S
H611 C634 0.950 . S
H612 C635 0.950 . S
H613 C637 0.950 . S
H614 C638 0.950 . S
H615 C639 0.951 . S
H616 C641 0.951 . S
H617 C643 0.950 . S
H618 C644 0.950 . S
H619 C646 0.950 . S
H620 C649 0.950 . S
H621 C650 0.950 . S
H622 C652 0.950 . S
H623 C653 0.950 . S
C624 H606 0.951 . S
C624 C625 1.366 . S
C624 C626 1.388 . S
C625 C624 1.366 . S
C625 C629 1.385 . S
C626 H607 0.951 . S
C626 C624 1.388 . S
C626 C627 1.366 . S
C627 C626 1.366 . S
C627 C628 1.414 . S
C627 C630 1.499 . S
C628 H608 0.950 . S
C628 C627 1.414 . S
C628 C629 1.374 . S
C629 H609 0.950 . S
C629 C625 1.385 . S
C629 C628 1.374 . S
C630 C627 1.499 . S
C630 C631 1.373 . S
C630 C632 1.389 . S
C631 H610 0.950 . S
C631 C630 1.373 . S
C631 C647 1.377 . S
C632 C630 1.389 . S
C632 C633 1.524 . S
C632 C646 1.377 . S
C633 C632 1.524 . S
C633 C634 1.397 . S
C633 C638 1.363 . S
C634 H611 0.950 . S
C634 C633 1.397 . S
C634 C635 1.334 . S
C635 H612 0.950 . S
C635 C634 1.334 . S
C635 C636 1.287 . S
C636 C635 1.287 . S
C636 C637 1.524 . S
C636 H655 0.913 . S
C637 H613 0.950 . S
C637 C636 1.524 . S
C637 C638 1.415 . S
C638 H614 0.950 . S
C638 C633 1.363 . S
C638 C637 1.415 . S
C639 H615 0.951 . S
C639 C640 1.366 . S
C639 C641 1.388 . S
C640 C639 1.366 . S
C640 C644 1.385 . S
C641 H616 0.951 . S
C641 C639 1.388 . S
C641 C642 1.366 . S
C642 C641 1.366 . S
C642 C643 1.414 . S
C642 C645 1.499 . S
C643 H617 0.950 . S
C643 C642 1.414 . S
C643 C644 1.374 . S
C644 H618 0.950 . S
C644 C640 1.385 . S
C644 C643 1.374 . S
C645 C642 1.499 . S
C645 C646 1.373 . S
C645 C647 1.389 . S
C646 H619 0.950 . S
C646 C632 1.377 . S
C646 C645 1.373 . S
C647 C631 1.377 . S
C647 C645 1.389 . S
C647 C648 1.524 . S
C648 C647 1.524 . S
C648 C649 1.397 . S
C648 C653 1.363 . S
C649 H620 0.950 . S
C649 C648 1.397 . S
C649 C650 1.334 . S
C650 H621 0.950 . S
C650 C649 1.334 . S
C650 C651 1.287 . S
C651 C650 1.287 . S
C651 C652 1.524 . S
C651 H654 0.999 . S
C652 H622 0.950 . S
C652 C651 1.524 . S
C652 C653 1.415 . S
C653 H623 0.950 . S
C653 C648 1.363 . S
C653 C652 1.415 . S
H654 C651 0.999 . S
H655 C636 0.913 . S
H656 C674 0.951 . S
H657 C676 0.951 . S
H658 C678 0.950 . S
H659 C679 0.959 . S
H660 C681 0.950 . S
H661 C684 0.950 . S
H662 C685 0.950 . S
H663 C687 0.950 . S
H664 C688 0.950 . S
H665 C689 0.951 . S
H666 C691 0.951 . S
H667 C693 0.950 . S
H668 C694 0.959 . S
H669 C696 0.950 . S
H670 C699 0.950 . S
H671 C700 0.950 . S
H672 C702 0.950 . S
H673 C703 0.950 . S
C674 H656 0.951 . S
C674 C675 1.366 . S
C674 C676 1.388 . S
C675 C674 1.366 . S
C675 C679 1.355 1_655 S
C676 H657 0.951 . S
C676 C674 1.388 . S
C676 C677 1.366 . S
C677 C676 1.366 . S
C677 C678 1.414 1_655 S
C677 C680 1.499 . S
C678 H658 0.950 . S
C678 C677 1.414 1_455 S
C678 C679 1.395 . S
C679 H659 0.959 . S
C679 C675 1.355 1_455 S
C679 C678 1.395 . S
C680 C677 1.499 . S
C680 C681 1.373 1_655 S
C680 C682 1.389 . S
C681 H660 0.950 . S
C681 C680 1.373 1_455 S
C681 C697 1.377 . S
C682 C680 1.389 . S
C682 C683 1.524 . S
C682 C696 1.377 . S
C683 C682 1.524 . S
C683 C684 1.397 . S
C683 C688 1.363 . S
C684 H661 0.950 . S
C684 C683 1.397 . S
C684 C685 1.334 . S
C685 H662 0.950 . S
C685 C684 1.334 . S
C685 C686 1.287 . S
C686 C685 1.287 . S
C686 C687 1.524 . S
C686 H705 0.913 . S
C687 H663 0.950 . S
C687 C686 1.524 . S
C687 C688 1.415 . S
C688 H664 0.950 . S
C688 C683 1.363 . S
C688 C687 1.415 . S
C689 H665 0.951 . S
C689 C690 1.366 . S
C689 C691 1.388 . S
C690 C689 1.366 . S
C690 C694 1.355 1_455 S
C691 H666 0.951 . S
C691 C689 1.388 . S
C691 C692 1.366 . S
C692 C691 1.366 . S
C692 C693 1.414 1_455 S
C692 C695 1.499 . S
C693 H667 0.950 . S
C693 C692 1.414 1_655 S
C693 C694 1.395 . S
C694 H668 0.959 . S
C694 C690 1.355 1_655 S
C694 C693 1.395 . S
C695 C692 1.499 . S
C695 C696 1.373 1_455 S
C695 C697 1.389 . S
C696 H669 0.950 . S
C696 C682 1.377 . S
C696 C695 1.373 1_655 S
C697 C681 1.377 . S
C697 C695 1.389 . S
C697 C698 1.524 . S
C698 C697 1.524 . S
C698 C699 1.397 . S
C698 C703 1.363 . S
C699 H670 0.950 . S
C699 C698 1.397 . S
C699 C700 1.334 . S
C700 H671 0.950 . S
C700 C699 1.334 . S
C700 C701 1.287 . S
C701 C700 1.287 . S
C701 C702 1.524 . S
C701 H704 0.999 . S
C702 H672 0.950 . S
C702 C701 1.524 . S
C702 C703 1.415 . S
C703 H673 0.950 . S
C703 C698 1.363 . S
C703 C702 1.415 . S
H704 C701 0.999 . S
H705 C686 0.913 . S
H706 C724 0.951 . S
H707 C726 0.951 . S
H708 C728 0.950 . S
H709 C729 0.950 1_545 S
H710 C731 0.950 . S
H711 C734 0.950 . S
H712 C735 0.950 . S
H713 C737 0.950 . S
H714 C738 0.950 . S
H715 C739 0.951 . S
H716 C741 0.951 . S
H717 C743 0.950 . S
H718 C744 0.950 1_565 S
H719 C746 0.950 . S
H720 C749 0.950 . S
H721 C750 0.950 . S
H722 C752 0.950 . S
H723 C753 0.950 . S
C724 H706 0.951 . S
C724 C725 1.366 . S
C724 C726 1.388 . S
C725 C724 1.366 . S
C725 C729 1.385 . S
C726 H707 0.951 . S
C726 C724 1.388 . S
C726 C727 1.366 . S
C727 C726 1.366 . S
C727 C728 1.414 1_565 S
C727 C730 1.499 . S
C728 H708 0.950 . S
C728 C727 1.414 1_545 S
C728 C729 1.374 1_545 S
C729 H709 0.950 1_565 S
C729 C725 1.385 . S
C729 C728 1.374 1_565 S
C730 C727 1.499 . S
C730 C731 1.373 1_565 S
C730 C732 1.389 . S
C731 H710 0.950 . S
C731 C730 1.373 1_545 S
C731 C747 1.377 . S
C732 C730 1.389 . S
C732 C733 1.524 . S
C732 C746 1.377 . S
C733 C732 1.524 . S
C733 C734 1.397 1_565 S
C733 C738 1.363 . S
C734 H711 0.950 . S
C734 C733 1.397 1_545 S
C734 C735 1.334 . S
C735 H712 0.950 . S
C735 C734 1.334 . S
C735 C736 1.287 1_545 S
C736 C735 1.287 1_565 S
C736 C737 1.524 . S
C736 H755 0.913 . S
C737 H713 0.950 . S
C737 C736 1.524 . S
C737 C738 1.415 . S
C738 H714 0.950 . S
C738 C733 1.363 . S
C738 C737 1.415 . S
C739 H715 0.951 . S
C739 C740 1.366 . S
C739 C741 1.388 . S
C740 C739 1.366 . S
C740 C744 1.385 . S
C741 H716 0.951 . S
C741 C739 1.388 . S
C741 C742 1.366 . S
C742 C741 1.366 . S
C742 C743 1.414 1_545 S
C742 C745 1.499 . S
C743 H717 0.950 . S
C743 C742 1.414 1_565 S
C743 C744 1.374 1_565 S
C744 H718 0.950 1_545 S
C744 C740 1.385 . S
C744 C743 1.374 1_545 S
C745 C742 1.499 . S
C745 C746 1.373 1_545 S
C745 C747 1.389 . S
C746 H719 0.950 . S
C746 C732 1.377 . S
C746 C745 1.373 1_565 S
C747 C731 1.377 . S
C747 C745 1.389 . S
C747 C748 1.524 . S
C748 C747 1.524 . S
C748 C749 1.397 1_545 S
C748 C753 1.363 . S
C749 H720 0.950 . S
C749 C748 1.397 1_565 S
C749 C750 1.334 . S
C750 H721 0.950 . S
C750 C749 1.334 . S
C750 C751 1.287 1_565 S
C751 C750 1.287 1_545 S
C751 C752 1.524 . S
C751 H754 0.999 . S
C752 H722 0.950 . S
C752 C751 1.524 . S
C752 C753 1.415 . S
C753 H723 0.950 . S
C753 C748 1.363 . S
C753 C752 1.415 . S
H754 C751 0.999 . S
H755 C736 0.913 . S
H756 C774 0.951 1_565 S
H757 C776 0.951 . S
H758 C778 0.950 . S
H759 C779 0.950 . S
H760 C781 0.950 . S
H761 C784 0.950 . S
H762 C785 0.950 . S
H763 C787 0.950 . S
H764 C788 0.950 . S
H765 C789 0.951 . S
H766 C791 0.951 . S
H767 C793 0.950 . S
H768 C794 0.950 . S
H769 C796 0.950 . S
H770 C799 0.950 . S
H771 C800 0.950 . S
H772 C802 0.950 . S
H773 C803 0.950 . S
C774 H756 0.951 1_545 S
C774 C775 1.366 . S
C774 C776 1.388 . S
C775 C774 1.366 . S
C775 C779 1.385 . S
C776 H757 0.951 . S
C776 C774 1.388 . S
C776 C777 1.366 . S
C777 C776 1.366 . S
C777 C778 1.414 . S
C777 C780 1.499 . S
C778 H758 0.950 . S
C778 C777 1.414 . S
C778 C779 1.374 . S
C779 H759 0.950 . S
C779 C775 1.385 . S
C779 C778 1.374 . S
C780 C777 1.499 . S
C780 C781 1.373 . S
C780 C782 1.389 . S
C781 H760 0.950 . S
C781 C780 1.373 . S
C781 C797 1.377 . S
C782 C780 1.389 . S
C782 C783 1.524 . S
C782 C796 1.377 . S
C783 C782 1.524 . S
C783 C784 1.397 . S
C783 C788 1.363 . S
C784 H761 0.950 . S
C784 C783 1.397 . S
C784 C785 1.334 . S
C785 H762 0.950 . S
C785 C784 1.334 . S
C785 C786 1.287 . S
C786 C785 1.287 . S
C786 C787 1.524 . S
C786 H805 0.913 . S
C787 H763 0.950 . S
C787 C786 1.524 . S
C787 C788 1.415 . S
C788 H764 0.950 . S
C788 C783 1.363 . S
C788 C787 1.415 . S
C789 H765 0.951 . S
C789 C790 1.366 . S
C789 C791 1.388 . S
C790 C789 1.366 . S
C790 C794 1.385 . S
C791 H766 0.951 . S
C791 C789 1.388 . S
C791 C792 1.366 . S
C792 C791 1.366 . S
C792 C793 1.414 . S
C792 C795 1.499 . S
C793 H767 0.950 . S
C793 C792 1.414 . S
C793 C794 1.374 . S
C794 H768 0.950 . S
C794 C790 1.385 . S
C794 C793 1.374 . S
C795 C792 1.499 . S
C795 C796 1.373 . S
C795 C797 1.389 . S
C796 H769 0.950 . S
C796 C782 1.377 . S
C796 C795 1.373 . S
C797 C781 1.377 . S
C797 C795 1.389 . S
C797 C798 1.524 . S
C798 C797 1.524 . S
C798 C799 1.397 . S
C798 C803 1.363 . S
C799 H770 0.950 . S
C799 C798 1.397 . S
C799 C800 1.334 . S
C800 H771 0.950 . S
C800 C799 1.334 . S
C800 C801 1.287 . S
C801 C800 1.287 . S
C801 C802 1.524 . S
C801 H804 0.999 . S
C802 H772 0.950 . S
C802 C801 1.524 . S
C802 C803 1.415 . S
C803 H773 0.950 . S
C803 C798 1.363 . S
C803 C802 1.415 . S
H804 C801 0.999 . S
H805 C786 0.913 . S
H806 C824 0.951 . S
H807 C826 0.951 . S
H808 C828 0.950 . S
H809 C829 0.950 1_655 S
H810 C831 0.950 . S
H811 C834 0.950 . S
H812 C835 0.950 . S
H813 C837 0.950 . S
H814 C838 0.950 . S
H815 C839 0.951 . S
H816 C841 0.951 . S
H817 C843 0.950 . S
H818 C844 0.950 . S
H819 C846 0.950 . S
H820 C849 0.950 . S
H821 C850 0.950 . S
H822 C852 0.950 . S
H823 C853 0.950 . S
C824 H806 0.951 . S
C824 C825 1.366 . S
C824 C826 1.388 . S
C825 C824 1.366 . S
C825 C829 1.385 . S
C826 H807 0.951 . S
C826 C824 1.388 . S
C826 C827 1.366 . S
C827 C826 1.366 . S
C827 C828 1.414 . S
C827 C830 1.499 . S
C828 H808 0.950 . S
C828 C827 1.414 . S
C828 C829 1.374 . S
C829 H809 0.950 1_455 S
C829 C825 1.385 . S
C829 C828 1.374 . S
C830 C827 1.499 . S
C830 C831 1.373 . S
C830 C832 1.389 . S
C831 H810 0.950 . S
C831 C830 1.373 . S
C831 C847 1.377 . S
C832 C830 1.389 . S
C832 C833 1.524 . S
C832 C846 1.377 . S
C833 C832 1.524 . S
C833 C834 1.397 . S
C833 C838 1.363 . S
C834 H811 0.950 . S
C834 C833 1.397 . S
C834 C835 1.334 . S
C835 H812 0.950 . S
C835 C834 1.334 . S
C835 C836 1.287 . S
C836 C835 1.287 . S
C836 C837 1.524 . S
C836 H855 0.913 . S
C837 H813 0.950 . S
C837 C836 1.524 . S
C837 C838 1.415 . S
C838 H814 0.950 . S
C838 C833 1.363 . S
C838 C837 1.415 . S
C839 H815 0.951 . S
C839 C840 1.366 . S
C839 C841 1.388 . S
C840 C839 1.366 . S
C840 C844 1.385 . S
C841 H816 0.951 . S
C841 C839 1.388 . S
C841 C842 1.366 . S
C842 C841 1.366 . S
C842 C843 1.414 . S
C842 C845 1.499 . S
C843 H817 0.950 . S
C843 C842 1.414 . S
C843 C844 1.374 . S
C844 H818 0.950 . S
C844 C840 1.385 . S
C844 C843 1.374 . S
C845 C842 1.499 . S
C845 C846 1.373 . S
C845 C847 1.389 . S
C846 H819 0.950 . S
C846 C832 1.377 . S
C846 C845 1.373 . S
C847 C831 1.377 . S
C847 C845 1.389 . S
C847 C848 1.524 . S
C848 C847 1.524 . S
C848 C849 1.397 . S
C848 C853 1.363 . S
C849 H820 0.950 . S
C849 C848 1.397 . S
C849 C850 1.334 . S
C850 H821 0.950 . S
C850 C849 1.334 . S
C850 C851 1.287 . S
C851 C850 1.287 . S
C851 C852 1.524 . S
C851 H854 0.999 . S
C852 H822 0.950 . S
C852 C851 1.524 . S
C852 C853 1.415 . S
C853 H823 0.950 . S
C853 C848 1.363 . S
C853 C852 1.415 . S
H854 C851 0.999 . S
H855 C836 0.913 . S
H856 C874 0.951 . S
H857 C876 0.951 . S
H858 C878 0.950 . S
H859 C879 0.950 . S
H860 C881 0.950 . S
H861 C884 0.950 . S
H862 C885 0.950 . S
H863 C887 0.950 . S
H864 C888 0.950 . S
H865 C889 0.949 1_565 S
H866 C891 0.951 . S
H867 C893 0.950 . S
H868 C894 0.950 . S
H869 C896 0.950 . S
H870 C899 0.950 . S
H871 C900 0.950 . S
H872 C902 0.950 . S
H873 C903 0.950 . S
C874 H856 0.951 . S
C874 C875 1.366 . S
C874 C876 1.388 . S
C875 C874 1.366 . S
C875 C879 1.385 . S
C876 H857 0.951 . S
C876 C874 1.388 . S
C876 C877 1.366 . S
C877 C876 1.366 . S
C877 C878 1.414 . S
C877 C880 1.499 . S
C878 H858 0.950 . S
C878 C877 1.414 . S
C878 C879 1.374 . S
C879 H859 0.950 . S
C879 C875 1.385 . S
C879 C878 1.374 . S
C880 C877 1.499 . S
C880 C881 1.373 . S
C880 C882 1.389 . S
C881 H860 0.950 . S
C881 C880 1.373 . S
C881 C897 1.377 . S
C882 C880 1.389 . S
C882 C883 1.524 . S
C882 C896 1.377 . S
C883 C882 1.524 . S
C883 C884 1.397 . S
C883 C888 1.363 . S
C884 H861 0.950 . S
C884 C883 1.397 . S
C884 C885 1.334 1_655 S
C885 H862 0.950 . S
C885 C884 1.334 1_455 S
C885 C886 1.287 . S
C886 C885 1.287 . S
C886 C887 1.524 1_455 S
C886 H905 0.913 . S
C887 H863 0.950 . S
C887 C886 1.524 1_655 S
C887 C888 1.415 . S
C888 H864 0.950 . S
C888 C883 1.363 . S
C888 C887 1.415 . S
C889 H865 0.949 1_545 S
C889 C890 1.367 . S
C889 C891 1.389 . S
C890 C889 1.367 . S
C890 C894 1.385 . S
C891 H866 0.951 . S
C891 C889 1.389 . S
C891 C892 1.366 . S
C892 C891 1.366 . S
C892 C893 1.414 . S
C892 C895 1.499 . S
C893 H867 0.950 . S
C893 C892 1.414 . S
C893 C894 1.374 . S
C894 H868 0.950 . S
C894 C890 1.385 . S
C894 C893 1.374 . S
C895 C892 1.499 . S
C895 C896 1.373 . S
C895 C897 1.389 . S
C896 H869 0.950 . S
C896 C882 1.377 . S
C896 C895 1.373 . S
C897 C881 1.377 . S
C897 C895 1.389 . S
C897 C898 1.524 . S
C898 C897 1.524 . S
C898 C899 1.397 . S
C898 C903 1.363 . S
C899 H870 0.950 . S
C899 C898 1.397 . S
C899 C900 1.334 . S
C900 H871 0.950 . S
C900 C899 1.334 . S
C900 C901 1.287 . S
C901 C900 1.287 . S
C901 C902 1.524 . S
C901 H904 0.999 . S
C902 H872 0.950 . S
C902 C901 1.524 . S
C902 C903 1.415 . S
C903 H873 0.950 . S
C903 C898 1.363 . S
C903 C902 1.415 . S
H904 C901 0.999 . S
H905 C886 0.913 . S
H906 C924 0.951 . S
H907 C926 0.951 . S
H908 C928 0.950 . S
H909 C929 0.950 1_545 S
H910 C931 0.950 . S
H911 C934 0.950 . S
H912 C935 0.950 1_545 S
H913 C937 0.950 . S
H914 C938 0.950 . S
H915 C939 0.951 . S
H916 C941 0.951 . S
H917 C943 0.950 . S
H918 C944 0.950 . S
H919 C946 0.950 . S
H920 C949 0.950 . S
H921 C950 0.950 . S
H922 C952 0.950 . S
H923 C953 0.950 . S
C924 H906 0.951 . S
C924 C925 1.366 . S
C924 C926 1.388 . S
C925 C924 1.366 . S
C925 C929 1.385 . S
C926 H907 0.951 . S
C926 C924 1.388 . S
C926 C927 1.366 . S
C927 C926 1.366 . S
C927 C928 1.414 . S
C927 C930 1.499 . S
C928 H908 0.950 . S
C928 C927 1.414 . S
C928 C929 1.374 . S
C929 H909 0.950 1_565 S
C929 C925 1.385 . S
C929 C928 1.374 . S
C930 C927 1.499 . S
C930 C931 1.373 . S
C930 C932 1.389 . S
C931 H910 0.950 . S
C931 C930 1.373 . S
C931 C947 1.377 . S
C932 C930 1.389 . S
C932 C933 1.524 . S
C932 C946 1.377 . S
C933 C932 1.524 . S
C933 C934 1.397 . S
C933 C938 1.363 . S
C934 H911 0.950 . S
C934 C933 1.397 . S
C934 C935 1.334 . S
C935 H912 0.950 1_565 S
C935 C934 1.334 . S
C935 C936 1.287 . S
C936 C935 1.287 . S
C936 C937 1.524 . S
C936 H955 0.913 . S
C937 H913 0.950 . S
C937 C936 1.524 . S
C937 C938 1.415 . S
C938 H914 0.950 . S
C938 C933 1.363 . S
C938 C937 1.415 . S
C939 H915 0.951 . S
C939 C940 1.366 . S
C939 C941 1.388 . S
C940 C939 1.366 . S
C940 C944 1.385 . S
C941 H916 0.951 . S
C941 C939 1.388 . S
C941 C942 1.366 . S
C942 C941 1.366 . S
C942 C943 1.414 . S
C942 C945 1.499 . S
C943 H917 0.950 . S
C943 C942 1.414 . S
C943 C944 1.374 . S
C944 H918 0.950 . S
C944 C940 1.385 . S
C944 C943 1.374 . S
C945 C942 1.499 . S
C945 C946 1.373 . S
C945 C947 1.389 . S
C946 H919 0.950 . S
C946 C932 1.377 . S
C946 C945 1.373 . S
C947 C931 1.377 . S
C947 C945 1.389 . S
C947 C948 1.524 . S
C948 C947 1.524 . S
C948 C949 1.397 . S
C948 C953 1.363 . S
C949 H920 0.950 . S
C949 C948 1.397 . S
C949 C950 1.334 . S
C950 H921 0.950 . S
C950 C949 1.334 . S
C950 C951 1.287 . S
C951 C950 1.287 . S
C951 C952 1.524 . S
C951 H954 0.999 . S
C952 H922 0.950 . S
C952 C951 1.524 . S
C952 C953 1.415 . S
C953 H923 0.950 . S
C953 C948 1.363 . S
C953 C952 1.415 . S
H954 C951 0.999 . S
H955 C936 0.913 . S
H956 C974 0.951 . S
H957 C976 0.951 . S
H958 C978 0.950 . S
H959 C979 0.950 . S
H960 C981 0.950 . S
H961 C984 0.950 . S
H962 C985 0.950 . S
H963 C987 0.950 . S
H964 C988 0.950 . S
H965 C989 0.952 . S
H966 C991 0.951 . S
H967 C993 0.950 . S
H968 C994 0.950 . S
H969 C996 0.950 . S
H970 C999 0.950 . S
H971 C1000 0.950 . S
H972 C1002 0.950 . S
H973 C1003 0.950 . S
C974 H956 0.951 . S
C974 C975 1.366 . S
C974 C976 1.388 . S
C975 C974 1.366 . S
C975 C979 1.385 . S
C976 H957 0.951 . S
C976 C974 1.388 . S
C976 C977 1.366 . S
C977 C976 1.366 . S
C977 C978 1.414 . S
C977 C980 1.499 . S
C978 H958 0.950 . S
C978 C977 1.414 . S
C978 C979 1.374 . S
C979 H959 0.950 . S
C979 C975 1.385 . S
C979 C978 1.374 . S
C980 C977 1.499 . S
C980 C981 1.373 . S
C980 C982 1.389 . S
C981 H960 0.950 . S
C981 C980 1.373 . S
C981 C997 1.377 . S
C982 C980 1.389 . S
C982 C983 1.524 . S
C982 C996 1.377 . S
C983 C982 1.524 . S
C983 C984 1.397 . S
C983 C988 1.363 . S
C984 H961 0.950 . S
C984 C983 1.397 . S
C984 C985 1.334 . S
C985 H962 0.950 . S
C985 C984 1.334 . S
C985 C986 1.287 . S
C986 C985 1.287 . S
C986 C987 1.524 . S
C986 H1005 0.913 . S
C987 H963 0.950 . S
C987 C986 1.524 . S
C987 C988 1.415 . S
C988 H964 0.950 . S
C988 C983 1.363 . S
C988 C987 1.415 . S
C989 H965 0.952 . S
C989 C990 1.366 1_455 S
C989 C991 1.387 1_455 S
C990 C989 1.366 1_655 S
C990 C994 1.385 . S
C991 H966 0.951 . S
C991 C989 1.387 1_655 S
C991 C992 1.366 . S
C992 C991 1.366 . S
C992 C993 1.414 . S
C992 C995 1.499 . S
C993 H967 0.950 . S
C993 C992 1.414 . S
C993 C994 1.374 . S
C994 H968 0.950 . S
C994 C990 1.385 . S
C994 C993 1.374 . S
C995 C992 1.499 . S
C995 C996 1.373 . S
C995 C997 1.389 . S
C996 H969 0.950 . S
C996 C982 1.377 . S
C996 C995 1.373 . S
C997 C981 1.377 . S
C997 C995 1.389 . S
C997 C998 1.524 . S
C998 C997 1.524 . S
C998 C999 1.397 . S
C998 C1003 1.363 . S
C999 H970 0.950 . S
C999 C998 1.397 . S
C999 C1000 1.334 . S
C1000 H971 0.950 . S
C1000 C999 1.334 . S
C1000 C1001 1.287 . S
C1001 C1000 1.287 . S
C1001 C1002 1.524 . S
C1001 H1004 0.999 . S
C1002 H972 0.950 . S
C1002 C1001 1.524 . S
C1002 C1003 1.415 . S
C1003 H973 0.950 . S
C1003 C998 1.363 . S
C1003 C1002 1.415 . S
H1004 C1001 0.999 . S
H1005 C986 0.913 . S
H1006 C1024 0.951 . S
H1007 C1026 0.951 . S
H1008 C1028 0.950 . S
H1009 C1029 0.950 1_545 S
H1010 C1031 0.950 . S
H1011 C1034 0.950 . S
H1012 C1035 0.950 . S
H1013 C1037 0.950 . S
H1014 C1038 0.950 . S
H1015 C1039 0.951 . S
H1016 C1041 0.951 . S
H1017 C1043 0.950 . S
H1018 C1044 0.950 1_655 S
H1019 C1046 0.950 . S
H1020 C1049 0.950 . S
H1021 C1050 0.950 1_655 S
H1022 C1052 0.950 . S
H1023 C1053 0.950 . S
C1024 H1006 0.951 . S
C1024 C1025 1.366 . S
C1024 C1026 1.388 . S
C1025 C1024 1.366 . S
C1025 C1029 1.385 . S
C1026 H1007 0.951 . S
C1026 C1024 1.388 . S
C1026 C1027 1.366 . S
C1027 C1026 1.366 . S
C1027 C1028 1.414 . S
C1027 C1030 1.499 . S
C1028 H1008 0.950 . S
C1028 C1027 1.414 . S
C1028 C1029 1.374 . S
C1029 H1009 0.950 1_565 S
C1029 C1025 1.385 . S
C1029 C1028 1.374 . S
C1030 C1027 1.499 . S
C1030 C1031 1.373 . S
C1030 C1032 1.389 . S
C1031 H1010 0.950 . S
C1031 C1030 1.373 . S
C1031 C1047 1.377 . S
C1032 C1030 1.389 . S
C1032 C1033 1.524 . S
C1032 C1046 1.377 . S
C1033 C1032 1.524 . S
C1033 C1034 1.397 . S
C1033 C1038 1.363 . S
C1034 H1011 0.950 . S
C1034 C1033 1.397 . S
C1034 C1035 1.334 . S
C1035 H1012 0.950 . S
C1035 C1034 1.334 . S
C1035 C1036 1.287 . S
C1036 C1035 1.287 . S
C1036 C1037 1.524 . S
C1036 H1055 0.913 . S
C1037 H1013 0.950 . S
C1037 C1036 1.524 . S
C1037 C1038 1.415 . S
C1038 H1014 0.950 . S
C1038 C1033 1.363 . S
C1038 C1037 1.415 . S
C1039 H1015 0.951 . S
C1039 C1040 1.366 . S
C1039 C1041 1.388 . S
C1040 C1039 1.366 . S
C1040 C1044 1.385 . S
C1041 H1016 0.951 . S
C1041 C1039 1.388 . S
C1041 C1042 1.366 . S
C1042 C1041 1.366 . S
C1042 C1043 1.414 . S
C1042 C1045 1.499 . S
C1043 H1017 0.950 . S
C1043 C1042 1.414 . S
C1043 C1044 1.374 . S
C1044 H1018 0.950 1_455 S
C1044 C1040 1.385 . S
C1044 C1043 1.374 . S
C1045 C1042 1.499 . S
C1045 C1046 1.373 . S
C1045 C1047 1.389 . S
C1046 H1019 0.950 . S
C1046 C1032 1.377 . S
C1046 C1045 1.373 . S
C1047 C1031 1.377 . S
C1047 C1045 1.389 . S
C1047 C1048 1.524 . S
C1048 C1047 1.524 . S
C1048 C1049 1.397 . S
C1048 C1053 1.363 . S
C1049 H1020 0.950 . S
C1049 C1048 1.397 . S
C1049 C1050 1.334 . S
C1050 H1021 0.950 1_455 S
C1050 C1049 1.334 . S
C1050 C1051 1.287 . S
C1051 C1050 1.287 . S
C1051 C1052 1.524 . S
C1051 H1054 0.999 . S
C1052 H1022 0.950 . S
C1052 C1051 1.524 . S
C1052 C1053 1.415 . S
C1053 H1023 0.950 . S
C1053 C1048 1.363 . S
C1053 C1052 1.415 . S
H1054 C1051 0.999 . S
H1055 C1036 0.913 . S
H1056 C1074 0.951 . S
H1057 C1076 0.951 . S
H1058 C1078 0.950 . S
H1059 C1079 0.950 . S
H1060 C1081 0.950 . S
H1061 C1084 0.950 . S
H1062 C1085 0.950 . S
H1063 C1087 0.950 . S
H1064 C1088 0.950 . S
H1065 C1089 0.951 . S
H1066 C1091 0.951 . S
H1067 C1093 0.950 . S
H1068 C1094 0.950 . S
H1069 C1096 0.950 . S
H1070 C1099 0.950 . S
H1071 C1100 0.950 . S
H1072 C1102 0.950 . S
H1073 C1103 0.950 . S
C1074 H1056 0.951 . S
C1074 C1075 1.366 . S
C1074 C1076 1.388 . S
C1075 C1074 1.366 . S
C1075 C1079 1.385 . S
C1076 H1057 0.951 . S
C1076 C1074 1.388 . S
C1076 C1077 1.366 . S
C1077 C1076 1.366 . S
C1077 C1078 1.414 . S
C1077 C1080 1.499 . S
C1078 H1058 0.950 . S
C1078 C1077 1.414 . S
C1078 C1079 1.374 . S
C1079 H1059 0.950 . S
C1079 C1075 1.385 . S
C1079 C1078 1.374 . S
C1080 C1077 1.499 . S
C1080 C1081 1.373 . S
C1080 C1082 1.389 . S
C1081 H1060 0.950 . S
C1081 C1080 1.373 . S
C1081 C1097 1.377 . S
C1082 C1080 1.389 . S
C1082 C1083 1.524 . S
C1082 C1096 1.377 . S
C1083 C1082 1.524 . S
C1083 C1084 1.397 . S
C1083 C1088 1.363 . S
C1084 H1061 0.950 . S
C1084 C1083 1.397 . S
C1084 C1085 1.334 . S
C1085 H1062 0.950 . S
C1085 C1084 1.334 . S
C1085 C1086 1.287 . S
C1086 C1085 1.287 . S
C1086 C1087 1.524 . S
C1086 H1105 0.913 . S
C1087 H1063 0.950 . S
C1087 C1086 1.524 . S
C1087 C1088 1.415 . S
C1088 H1064 0.950 . S
C1088 C1083 1.363 . S
C1088 C1087 1.415 . S
C1089 H1065 0.951 . S
C1089 C1090 1.366 . S
C1089 C1091 1.388 . S
C1090 C1089 1.366 . S
C1090 C1094 1.385 . S
C1091 H1066 0.951 . S
C1091 C1089 1.388 . S
C1091 C1092 1.366 . S
C1092 C1091 1.366 . S
C1092 C1093 1.414 . S
C1092 C1095 1.499 . S
C1093 H1067 0.950 . S
C1093 C1092 1.414 . S
C1093 C1094 1.374 . S
C1094 H1068 0.950 . S
C1094 C1090 1.385 . S
C1094 C1093 1.374 . S
C1095 C1092 1.499 . S
C1095 C1096 1.373 . S
C1095 C1097 1.389 . S
C1096 H1069 0.950 . S
C1096 C1082 1.377 . S
C1096 C1095 1.373 . S
C1097 C1081 1.377 . S
C1097 C1095 1.389 . S
C1097 C1098 1.524 . S
C1098 C1097 1.524 . S
C1098 C1099 1.397 . S
C1098 C1103 1.363 . S
C1099 H1070 0.950 . S
C1099 C1098 1.397 . S
C1099 C1100 1.334 . S
C1100 H1071 0.950 . S
C1100 C1099 1.334 . S
C1100 C1101 1.287 . S
C1101 C1100 1.287 . S
C1101 C1102 1.524 . S
C1101 H1104 0.999 . S
C1102 H1072 0.950 . S
C1102 C1101 1.524 . S
C1102 C1103 1.415 . S
C1103 H1073 0.950 . S
C1103 C1098 1.363 . S
C1103 C1102 1.415 . S
H1104 C1101 0.999 . S
H1105 C1086 0.913 . S
H1106 C1124 0.951 . S
H1107 C1126 0.951 . S
H1108 C1128 0.950 . S
H1109 C1129 0.950 . S
H1110 C1131 0.950 . S
H1111 C1134 0.950 . S
H1112 C1135 0.950 . S
H1113 C1137 0.950 . S
H1114 C1138 0.950 . S
H1115 C1139 0.951 . S
H1116 C1141 0.951 . S
H1117 C1143 0.950 . S
H1118 C1144 0.950 . S
H1119 C1146 0.950 . S
H1120 C1149 0.950 . S
H1121 C1150 0.950 . S
H1122 C1152 0.950 . S
H1123 C1153 0.950 . S
C1124 H1106 0.951 . S
C1124 C1125 1.366 . S
C1124 C1126 1.388 . S
C1125 C1124 1.366 . S
C1125 C1129 1.385 . S
C1126 H1107 0.951 . S
C1126 C1124 1.388 . S
C1126 C1127 1.366 . S
C1127 C1126 1.366 . S
C1127 C1128 1.414 . S
C1127 C1130 1.499 . S
C1128 H1108 0.950 . S
C1128 C1127 1.414 . S
C1128 C1129 1.374 . S
C1129 H1109 0.950 . S
C1129 C1125 1.385 . S
C1129 C1128 1.374 . S
C1130 C1127 1.499 . S
C1130 C1131 1.373 . S
C1130 C1132 1.389 1_655 S
C1131 H1110 0.950 . S
C1131 C1130 1.373 . S
C1131 C1147 1.377 . S
C1132 C1130 1.389 1_455 S
C1132 C1133 1.524 . S
C1132 C1146 1.377 . S
C1133 C1132 1.524 . S
C1133 C1134 1.397 . S
C1133 C1138 1.363 . S
C1134 H1111 0.950 . S
C1134 C1133 1.397 . S
C1134 C1135 1.334 . S
C1135 H1112 0.950 . S
C1135 C1134 1.334 . S
C1135 C1136 1.287 . S
C1136 C1135 1.287 . S
C1136 C1137 1.524 . S
C1136 H1155 0.913 . S
C1137 H1113 0.950 . S
C1137 C1136 1.524 . S
C1137 C1138 1.415 . S
C1138 H1114 0.950 . S
C1138 C1133 1.363 . S
C1138 C1137 1.415 . S
C1139 H1115 0.951 . S
C1139 C1140 1.366 . S
C1139 C1141 1.388 . S
C1140 C1139 1.366 . S
C1140 C1144 1.385 . S
C1141 H1116 0.951 . S
C1141 C1139 1.388 . S
C1141 C1142 1.366 . S
C1142 C1141 1.366 . S
C1142 C1143 1.414 . S
C1142 C1145 1.499 . S
C1143 H1117 0.950 . S
C1143 C1142 1.414 . S
C1143 C1144 1.374 . S
C1144 H1118 0.950 . S
C1144 C1140 1.385 . S
C1144 C1143 1.374 . S
C1145 C1142 1.499 . S
C1145 C1146 1.373 . S
C1145 C1147 1.389 1_455 S
C1146 H1119 0.950 . S
C1146 C1132 1.377 . S
C1146 C1145 1.373 . S
C1147 C1131 1.377 . S
C1147 C1145 1.389 1_655 S
C1147 C1148 1.524 . S
C1148 C1147 1.524 . S
C1148 C1149 1.397 . S
C1148 C1153 1.363 . S
C1149 H1120 0.950 . S
C1149 C1148 1.397 . S
C1149 C1150 1.334 . S
C1150 H1121 0.950 . S
C1150 C1149 1.334 . S
C1150 C1151 1.287 . S
C1151 C1150 1.287 . S
C1151 C1152 1.524 . S
C1151 H1154 0.999 . S
C1152 H1122 0.950 . S
C1152 C1151 1.524 . S
C1152 C1153 1.415 . S
C1153 H1123 0.950 . S
C1153 C1148 1.363 . S
C1153 C1152 1.415 . S
H1154 C1151 0.999 . S
H1155 C1136 0.913 . S
H1156 C1174 0.951 . S
H1157 C1176 0.951 . S
H1158 C1178 0.950 . S
H1159 C1179 0.950 . S
H1160 C1181 0.950 . S
H1161 C1184 0.950 . S
H1162 C1185 0.950 . S
H1163 C1187 0.950 . S
H1164 C1188 0.950 . S
H1165 C1189 0.951 . S
H1166 C1191 0.951 . S
H1167 C1193 0.950 . S
H1168 C1194 0.950 . S
H1169 C1196 0.950 . S
H1170 C1199 0.950 . S
H1171 C1200 0.950 . S
H1172 C1202 0.950 . S
H1173 C1203 0.950 . S
C1174 H1156 0.951 . S
C1174 C1175 1.366 . S
C1174 C1176 1.388 . S
C1175 C1174 1.366 . S
C1175 C1179 1.385 . S
C1176 H1157 0.951 . S
C1176 C1174 1.388 . S
C1176 C1177 1.366 . S
C1177 C1176 1.366 . S
C1177 C1178 1.414 . S
C1177 C1180 1.499 . S
C1178 H1158 0.950 . S
C1178 C1177 1.414 . S
C1178 C1179 1.374 . S
C1179 H1159 0.950 . S
C1179 C1175 1.385 . S
C1179 C1178 1.374 . S
C1180 C1177 1.499 . S
C1180 C1181 1.373 . S
C1180 C1182 1.389 1_545 S
C1181 H1160 0.950 . S
C1181 C1180 1.373 . S
C1181 C1197 1.377 1_554 S
C1182 C1180 1.389 1_565 S
C1182 C1183 1.524 . S
C1182 C1196 1.377 1_554 S
C1183 C1182 1.524 . S
C1183 C1184 1.397 . S
C1183 C1188 1.363 . S
C1184 H1161 0.950 . S
C1184 C1183 1.397 . S
C1184 C1185 1.334 . S
C1185 H1162 0.950 . S
C1185 C1184 1.334 . S
C1185 C1186 1.287 . S
C1186 C1185 1.287 . S
C1186 C1187 1.524 . S
C1186 H1205 0.913 . S
C1187 H1163 0.950 . S
C1187 C1186 1.524 . S
C1187 C1188 1.415 . S
C1188 H1164 0.950 . S
C1188 C1183 1.363 . S
C1188 C1187 1.415 . S
C1189 H1165 0.951 . S
C1189 C1190 1.366 . S
C1189 C1191 1.388 . S
C1190 C1189 1.366 . S
C1190 C1194 1.385 . S
C1191 H1166 0.951 . S
C1191 C1189 1.388 . S
C1191 C1192 1.366 . S
C1192 C1191 1.366 . S
C1192 C1193 1.414 . S
C1192 C1195 1.499 . S
C1193 H1167 0.950 . S
C1193 C1192 1.414 . S
C1193 C1194 1.374 . S
C1194 H1168 0.950 . S
C1194 C1190 1.385 . S
C1194 C1193 1.374 . S
C1195 C1192 1.499 . S
C1195 C1196 1.373 . S
C1195 C1197 1.389 1_565 S
C1196 H1169 0.950 . S
C1196 C1182 1.377 1_556 S
C1196 C1195 1.373 . S
C1197 C1181 1.377 1_556 S
C1197 C1195 1.389 1_545 S
C1197 C1198 1.524 . S
C1198 C1197 1.524 . S
C1198 C1199 1.397 . S
C1198 C1203 1.363 . S
C1199 H1170 0.950 . S
C1199 C1198 1.397 . S
C1199 C1200 1.334 . S
C1200 H1171 0.950 . S
C1200 C1199 1.334 . S
C1200 C1201 1.287 . S
C1201 C1200 1.287 . S
C1201 C1202 1.524 . S
C1201 H1204 0.999 . S
C1202 H1172 0.950 . S
C1202 C1201 1.524 . S
C1202 C1203 1.415 . S
C1203 H1173 0.950 . S
C1203 C1198 1.363 . S
C1203 C1202 1.415 . S
H1204 C1201 0.999 . S
H1205 C1186 0.913 . S
H1206 C1224 0.951 . S
H1207 C1226 0.951 . S
H1208 C1228 0.950 . S
H1209 C1229 0.950 . S
H1210 C1231 0.950 . S
H1211 C1234 0.950 . S
H1212 C1235 0.950 . S
H1213 C1237 0.950 . S
H1214 C1238 0.950 . S
H1215 C1239 0.951 . S
H1216 C1241 0.951 . S
H1217 C1243 0.950 . S
H1218 C1244 0.950 . S
H1219 C1246 0.950 . S
H1220 C1249 0.950 . S
H1221 C1250 0.950 . S
H1222 C1252 0.950 . S
H1223 C1253 0.950 . S
C1224 H1206 0.951 . S
C1224 C1225 1.366 . S
C1224 C1226 1.388 . S
C1225 C1224 1.366 . S
C1225 C1229 1.385 . S
C1226 H1207 0.951 . S
C1226 C1224 1.388 . S
C1226 C1227 1.366 . S
C1227 C1226 1.366 . S
C1227 C1228 1.414 . S
C1227 C1230 1.499 . S
C1228 H1208 0.950 . S
C1228 C1227 1.414 . S
C1228 C1229 1.374 . S
C1229 H1209 0.950 . S
C1229 C1225 1.385 . S
C1229 C1228 1.374 . S
C1230 C1227 1.499 . S
C1230 C1231 1.373 . S
C1230 C1232 1.389 . S
C1231 H1210 0.950 . S
C1231 C1230 1.373 . S
C1231 C1247 1.377 . S
C1232 C1230 1.389 . S
C1232 C1233 1.524 . S
C1232 C1246 1.377 . S
C1233 C1232 1.524 . S
C1233 C1234 1.397 . S
C1233 C1238 1.363 . S
C1234 H1211 0.950 . S
C1234 C1233 1.397 . S
C1234 C1235 1.334 . S
C1235 H1212 0.950 . S
C1235 C1234 1.334 . S
C1235 C1236 1.287 . S
C1236 C1235 1.287 . S
C1236 C1237 1.524 . S
C1236 H1255 0.913 . S
C1237 H1213 0.950 . S
C1237 C1236 1.524 . S
C1237 C1238 1.415 . S
C1238 H1214 0.950 . S
C1238 C1233 1.363 . S
C1238 C1237 1.415 . S
C1239 H1215 0.951 . S
C1239 C1240 1.366 . S
C1239 C1241 1.388 . S
C1240 C1239 1.366 . S
C1240 C1244 1.385 . S
C1241 H1216 0.951 . S
C1241 C1239 1.388 . S
C1241 C1242 1.366 . S
C1242 C1241 1.366 . S
C1242 C1243 1.414 . S
C1242 C1245 1.499 . S
C1243 H1217 0.950 . S
C1243 C1242 1.414 . S
C1243 C1244 1.374 . S
C1244 H1218 0.950 . S
C1244 C1240 1.385 . S
C1244 C1243 1.374 . S
C1245 C1242 1.499 . S
C1245 C1246 1.373 . S
C1245 C1247 1.389 . S
C1246 H1219 0.950 . S
C1246 C1232 1.377 . S
C1246 C1245 1.373 . S
C1247 C1231 1.377 . S
C1247 C1245 1.389 . S
C1247 C1248 1.524 . S
C1248 C1247 1.524 . S
C1248 C1249 1.397 . S
C1248 C1253 1.363 . S
C1249 H1220 0.950 . S
C1249 C1248 1.397 . S
C1249 C1250 1.334 . S
C1250 H1221 0.950 . S
C1250 C1249 1.334 . S
C1250 C1251 1.287 . S
C1251 C1250 1.287 . S
C1251 C1252 1.524 . S
C1251 H1254 0.999 . S
C1252 H1222 0.950 . S
C1252 C1251 1.524 . S
C1252 C1253 1.415 . S
C1253 H1223 0.950 . S
C1253 C1248 1.363 . S
C1253 C1252 1.415 . S
H1254 C1251 0.999 . S
H1255 C1236 0.913 . S
H1256 C1274 0.951 . S
H1257 C1276 0.951 . S
H1258 C1278 0.950 . S
H1259 C1279 0.950 . S
H1260 C1281 0.950 . S
H1261 C1284 0.950 . S
H1262 C1285 0.950 . S
H1263 C1287 0.950 . S
H1264 C1288 0.950 . S
H1265 C1289 0.951 . S
H1266 C1291 0.951 . S
H1267 C1293 0.950 . S
H1268 C1294 0.950 . S
H1269 C1296 0.950 . S
H1270 C1299 0.950 . S
H1271 C1300 0.950 . S
H1272 C1302 0.950 . S
H1273 C1303 0.950 . S
C1274 H1256 0.951 . S
C1274 C1275 1.366 . S
C1274 C1276 1.388 . S
C1275 C1274 1.366 . S
C1275 C1279 1.385 . S
C1276 H1257 0.951 . S
C1276 C1274 1.388 . S
C1276 C1277 1.366 . S
C1277 C1276 1.366 . S
C1277 C1278 1.414 . S
C1277 C1280 1.499 . S
C1278 H1258 0.950 . S
C1278 C1277 1.414 . S
C1278 C1279 1.374 . S
C1279 H1259 0.950 . S
C1279 C1275 1.385 . S
C1279 C1278 1.374 . S
C1280 C1277 1.499 . S
C1280 C1281 1.373 1_455 S
C1280 C1282 1.389 . S
C1281 H1260 0.950 . S
C1281 C1280 1.373 1_655 S
C1281 C1297 1.377 . S
C1282 C1280 1.389 . S
C1282 C1283 1.524 . S
C1282 C1296 1.377 . S
C1283 C1282 1.524 . S
C1283 C1284 1.397 . S
C1283 C1288 1.363 . S
C1284 H1261 0.950 . S
C1284 C1283 1.397 . S
C1284 C1285 1.334 . S
C1285 H1262 0.950 . S
C1285 C1284 1.334 . S
C1285 C1286 1.287 . S
C1286 C1285 1.287 . S
C1286 C1287 1.524 . S
C1286 H1305 0.913 . S
C1287 H1263 0.950 . S
C1287 C1286 1.524 . S
C1287 C1288 1.415 . S
C1288 H1264 0.950 . S
C1288 C1283 1.363 . S
C1288 C1287 1.415 . S
C1289 H1265 0.951 . S
C1289 C1290 1.366 . S
C1289 C1291 1.388 . S
C1290 C1289 1.366 . S
C1290 C1294 1.385 . S
C1291 H1266 0.951 . S
C1291 C1289 1.388 . S
C1291 C1292 1.366 . S
C1292 C1291 1.366 . S
C1292 C1293 1.414 . S
C1292 C1295 1.499 . S
C1293 H1267 0.950 . S
C1293 C1292 1.414 . S
C1293 C1294 1.374 . S
C1294 H1268 0.950 . S
C1294 C1290 1.385 . S
C1294 C1293 1.374 . S
C1295 C1292 1.499 . S
C1295 C1296 1.373 1_655 S
C1295 C1297 1.389 . S
C1296 H1269 0.950 . S
C1296 C1282 1.377 . S
C1296 C1295 1.373 1_455 S
C1297 C1281 1.377 . S
C1297 C1295 1.389 . S
C1297 C1298 1.524 . S
C1298 C1297 1.524 . S
C1298 C1299 1.397 . S
C1298 C1303 1.363 . S
C1299 H1270 0.950 . S
C1299 C1298 1.397 . S
C1299 C1300 1.334 . S
C1300 H1271 0.950 . S
C1300 C1299 1.334 . S
C1300 C1301 1.287 . S
C1301 C1300 1.287 . S
C1301 C1302 1.524 . S
C1301 H1304 0.999 . S
C1302 H1272 0.950 . S
C1302 C1301 1.524 . S
C1302 C1303 1.415 . S
C1303 H1273 0.950 . S
C1303 C1298 1.363 . S
C1303 C1302 1.415 . S
H1304 C1301 0.999 . S
H1305 C1286 0.913 . S
H1306 C1324 0.951 . S
H1307 C1326 0.951 . S
H1308 C1328 0.950 . S
H1309 C1329 0.950 . S
H1310 C1331 0.950 . S
H1311 C1334 0.950 . S
H1312 C1335 0.950 . S
H1313 C1337 0.950 . S
H1314 C1338 0.950 1_556 S
H1315 C1339 0.951 . S
H1316 C1341 0.951 . S
H1317 C1343 0.950 . S
H1318 C1344 0.950 . S
H1319 C1346 0.950 . S
H1320 C1349 0.950 . S
H1321 C1350 0.950 . S
H1322 C1352 0.950 . S
H1323 C1353 0.950 1_554 S
C1324 H1306 0.951 . S
C1324 C1325 1.366 . S
C1324 C1326 1.388 . S
C1325 C1324 1.366 . S
C1325 C1329 1.385 . S
C1326 H1307 0.951 . S
C1326 C1324 1.388 . S
C1326 C1327 1.366 . S
C1327 C1326 1.366 . S
C1327 C1328 1.414 . S
C1327 C1330 1.499 . S
C1328 H1308 0.950 . S
C1328 C1327 1.414 . S
C1328 C1329 1.374 . S
C1329 H1309 0.950 . S
C1329 C1325 1.385 . S
C1329 C1328 1.374 . S
C1330 C1327 1.499 . S
C1330 C1331 1.373 1_565 S
C1330 C1332 1.389 . S
C1331 H1310 0.950 . S
C1331 C1330 1.373 1_545 S
C1331 C1347 1.377 1_554 S
C1332 C1330 1.389 . S
C1332 C1333 1.524 . S
C1332 C1346 1.377 1_554 S
C1333 C1332 1.524 . S
C1333 C1334 1.397 . S
C1333 C1338 1.363 . S
C1334 H1311 0.950 . S
C1334 C1333 1.397 . S
C1334 C1335 1.334 . S
C1335 H1312 0.950 . S
C1335 C1334 1.334 . S
C1335 C1336 1.287 . S
C1336 C1335 1.287 . S
C1336 C1337 1.524 . S
C1336 H1355 0.913 . S
C1337 H1313 0.950 . S
C1337 C1336 1.524 . S
C1337 C1338 1.415 . S
C1338 H1314 0.950 1_554 S
C1338 C1333 1.363 . S
C1338 C1337 1.415 . S
C1339 H1315 0.951 . S
C1339 C1340 1.366 . S
C1339 C1341 1.388 . S
C1340 C1339 1.366 . S
C1340 C1344 1.385 . S
C1341 H1316 0.951 . S
C1341 C1339 1.388 . S
C1341 C1342 1.366 . S
C1342 C1341 1.366 . S
C1342 C1343 1.414 . S
C1342 C1345 1.499 . S
C1343 H1317 0.950 . S
C1343 C1342 1.414 . S
C1343 C1344 1.374 . S
C1344 H1318 0.950 . S
C1344 C1340 1.385 . S
C1344 C1343 1.374 . S
C1345 C1342 1.499 . S
C1345 C1346 1.373 1_545 S
C1345 C1347 1.389 . S
C1346 H1319 0.950 . S
C1346 C1332 1.377 1_556 S
C1346 C1345 1.373 1_565 S
C1347 C1331 1.377 1_556 S
C1347 C1345 1.389 . S
C1347 C1348 1.524 . S
C1348 C1347 1.524 . S
C1348 C1349 1.397 . S
C1348 C1353 1.363 . S
C1349 H1320 0.950 . S
C1349 C1348 1.397 . S
C1349 C1350 1.334 . S
C1350 H1321 0.950 . S
C1350 C1349 1.334 . S
C1350 C1351 1.287 . S
C1351 C1350 1.287 . S
C1351 C1352 1.524 . S
C1351 H1354 0.999 . S
C1352 H1322 0.950 . S
C1352 C1351 1.524 . S
C1352 C1353 1.415 . S
C1353 H1323 0.950 1_556 S
C1353 C1348 1.363 . S
C1353 C1352 1.415 . S
H1354 C1351 0.999 . S
H1355 C1336 0.913 . S
C175 C148 1.839 . S
C190 C3 1.839 . S
C225 C16 1.839 . S
C240 C81 1.839 . S
C275 C31 1.838 . S
C290 C94 1.839 . S
C325 C44 1.839 . S
C340 C107 1.839 . S
C375 C122 1.839 . S
C390 C55 1.839 . S
C425 C68 1.838 . S
C440 C135 1.839 . S
C475 C43 1.421 . S
C490 C10 1.421 . S
C525 C62 1.421 . S
C540 C23 1.421 . S
C575 C75 1.421 . S
C590 C30 1.421 . S
C625 C88 1.421 . S
C640 C121 1.421 . S
C675 C101 1.421 . S
C690 C134 1.421 . S
C725 C114 1.421 . S
C740 C147 1.421 . S
C775 C109 0.242 . S
C790 C5 0.243 . S
C825 C18 0.241 . S
C840 C120 0.242 . S
C875 C133 0.241 . S
C890 C29 0.241 . S
C925 C146 0.241 . S
C940 C42 0.241 . S
C975 C83 0.241 . S
C990 C57 0.241 . S
C1025 C70 0.242 . S
C1040 C96 0.243 . S
C1075 C127 1.642 . S
C1090 C4 1.642 . S
C1125 C17 1.642 . S
C1140 C140 1.642 . S
C1175 C153 1.642 . S
C1190 C36 1.642 . S
C1225 C49 1.642 . S
C1240 C82 1.642 . S
C1275 C56 1.642 . S
C1290 C95 1.642 . S
C1325 C108 1.642 . S
C1340 C69 1.642 . S
