# Generated by pormake.
# Topology whz, (6)-cn, num edge types: 1
# Building blocks:
#     Node 0, Type 0, BuildingBlock: HISSIN_clean_sbu_0, # of connection points: 6
#     Node 1, Type 0, BuildingBlock: HISSIN_clean_sbu_0, # of connection points: 6
#     Node 2, Type 0, BuildingBlock: HISSIN_clean_sbu_0, # of connection points: 6
#     Node 3, Type 0, BuildingBlock: HISSIN_clean_sbu_0, # of connection points: 6
#     Node 4, Type 0, BuildingBlock: HISSIN_clean_sbu_0, # of connection points: 6
#     Node 5, Type 0, BuildingBlock: HISSIN_clean_sbu_0, # of connection points: 6
#     Node 6, Type 0, BuildingBlock: HISSIN_clean_sbu_0, # of connection points: 6
#     Node 7, Type 0, BuildingBlock: HISSIN_clean_sbu_0, # of connection points: 6
#     Node 8, Type 0, BuildingBlock: HISSIN_clean_sbu_0, # of connection points: 6
#     Node 9, Type 0, BuildingBlock: HISSIN_clean_sbu_0, # of connection points: 6
#     Node 10, Type 0, BuildingBlock: HISSIN_clean_sbu_0, # of connection points: 6
#     Node 11, Type 0, BuildingBlock: HISSIN_clean_sbu_0, # of connection points: 6
#     Node 12, Type 0, BuildingBlock: HISSIN_clean_sbu_0, # of connection points: 6
#     Node 13, Type 0, BuildingBlock: HISSIN_clean_sbu_0, # of connection points: 6
#     Node 14, Type 0, BuildingBlock: HISSIN_clean_sbu_0, # of connection points: 6
#     Node 15, Type 0, BuildingBlock: HISSIN_clean_sbu_0, # of connection points: 6
#     Edge 16, Type (0, 0), BuildingBlock: TEMPAE_clean_linker_10, # of connection points: 2
#     Edge 17, Type (0, 0), BuildingBlock: TEMPAE_clean_linker_10, # of connection points: 2
#     Edge 18, Type (0, 0), BuildingBlock: TEMPAE_clean_linker_10, # of connection points: 2
#     Edge 19, Type (0, 0), BuildingBlock: TEMPAE_clean_linker_10, # of connection points: 2
#     Edge 20, Type (0, 0), BuildingBlock: TEMPAE_clean_linker_10, # of connection points: 2
#     Edge 21, Type (0, 0), BuildingBlock: TEMPAE_clean_linker_10, # of connection points: 2
#     Edge 22, Type (0, 0), BuildingBlock: TEMPAE_clean_linker_10, # of connection points: 2
#     Edge 23, Type (0, 0), BuildingBlock: TEMPAE_clean_linker_10, # of connection points: 2
#     Edge 24, Type (0, 0), BuildingBlock: TEMPAE_clean_linker_10, # of connection points: 2
#     Edge 25, Type (0, 0), BuildingBlock: TEMPAE_clean_linker_10, # of connection points: 2
#     Edge 26, Type (0, 0), BuildingBlock: TEMPAE_clean_linker_10, # of connection points: 2
#     Edge 27, Type (0, 0), BuildingBlock: TEMPAE_clean_linker_10, # of connection points: 2
#     Edge 28, Type (0, 0), BuildingBlock: TEMPAE_clean_linker_10, # of connection points: 2
#     Edge 29, Type (0, 0), BuildingBlock: TEMPAE_clean_linker_10, # of connection points: 2
#     Edge 30, Type (0, 0), BuildingBlock: TEMPAE_clean_linker_10, # of connection points: 2
#     Edge 31, Type (0, 0), BuildingBlock: TEMPAE_clean_linker_10, # of connection points: 2
#     Edge 32, Type (0, 0), BuildingBlock: TEMPAE_clean_linker_10, # of connection points: 2
#     Edge 33, Type (0, 0), BuildingBlock: TEMPAE_clean_linker_10, # of connection points: 2
#     Edge 34, Type (0, 0), BuildingBlock: TEMPAE_clean_linker_10, # of connection points: 2
#     Edge 35, Type (0, 0), BuildingBlock: TEMPAE_clean_linker_10, # of connection points: 2
#     Edge 36, Type (0, 0), BuildingBlock: TEMPAE_clean_linker_10, # of connection points: 2
#     Edge 37, Type (0, 0), BuildingBlock: TEMPAE_clean_linker_10, # of connection points: 2
#     Edge 38, Type (0, 0), BuildingBlock: TEMPAE_clean_linker_10, # of connection points: 2
#     Edge 39, Type (0, 0), BuildingBlock: TEMPAE_clean_linker_10, # of connection points: 2
#     Edge 40, Type (0, 0), BuildingBlock: TEMPAE_clean_linker_10, # of connection points: 2
#     Edge 41, Type (0, 0), BuildingBlock: TEMPAE_clean_linker_10, # of connection points: 2
#     Edge 42, Type (0, 0), BuildingBlock: TEMPAE_clean_linker_10, # of connection points: 2
#     Edge 43, Type (0, 0), BuildingBlock: TEMPAE_clean_linker_10, # of connection points: 2
#     Edge 44, Type (0, 0), BuildingBlock: TEMPAE_clean_linker_10, # of connection points: 2
#     Edge 45, Type (0, 0), BuildingBlock: TEMPAE_clean_linker_10, # of connection points: 2
#     Edge 46, Type (0, 0), BuildingBlock: TEMPAE_clean_linker_10, # of connection points: 2
#     Edge 47, Type (0, 0), BuildingBlock: TEMPAE_clean_linker_10, # of connection points: 2
#     Edge 48, Type (0, 0), BuildingBlock: TEMPAE_clean_linker_10, # of connection points: 2
#     Edge 49, Type (0, 0), BuildingBlock: TEMPAE_clean_linker_10, # of connection points: 2
#     Edge 50, Type (0, 0), BuildingBlock: TEMPAE_clean_linker_10, # of connection points: 2
#     Edge 51, Type (0, 0), BuildingBlock: TEMPAE_clean_linker_10, # of connection points: 2
#     Edge 52, Type (0, 0), BuildingBlock: TEMPAE_clean_linker_10, # of connection points: 2
#     Edge 53, Type (0, 0), BuildingBlock: TEMPAE_clean_linker_10, # of connection points: 2
#     Edge 54, Type (0, 0), BuildingBlock: TEMPAE_clean_linker_10, # of connection points: 2
#     Edge 55, Type (0, 0), BuildingBlock: TEMPAE_clean_linker_10, # of connection points: 2
#     Edge 56, Type (0, 0), BuildingBlock: TEMPAE_clean_linker_10, # of connection points: 2
#     Edge 57, Type (0, 0), BuildingBlock: TEMPAE_clean_linker_10, # of connection points: 2
#     Edge 58, Type (0, 0), BuildingBlock: TEMPAE_clean_linker_10, # of connection points: 2
#     Edge 59, Type (0, 0), BuildingBlock: TEMPAE_clean_linker_10, # of connection points: 2
#     Edge 60, Type (0, 0), BuildingBlock: TEMPAE_clean_linker_10, # of connection points: 2
#     Edge 61, Type (0, 0), BuildingBlock: TEMPAE_clean_linker_10, # of connection points: 2
#     Edge 62, Type (0, 0), BuildingBlock: TEMPAE_clean_linker_10, # of connection points: 2
#     Edge 63, Type (0, 0), BuildingBlock: TEMPAE_clean_linker_10, # of connection points: 2
# Relax obj value: 0.714
# Max RMSD: 0.313
# Mean RMSD: 0.313
data_MOF--net-whz--node1-HISSIN_clean_sbu_0--edge1-TEMPAE_clean_linker_10
_symmetry_space_group_name_H-M    P1
_symmetry_Int_Tables_number       1
_symmetry_cell_setting            triclinic
loop_
_symmetry_equiv_pos_as_xyz
'x, y, z'
_cell_length_a     35.529397
_cell_length_b     35.680151
_cell_length_c     72.531042
_cell_angle_alpha  89.880777
_cell_angle_beta   90.010118
_cell_angle_gamma 89.791824
loop_
_atom_site_label
_atom_site_type_symbol
_atom_site_fract_x
_atom_site_fract_y
_atom_site_fract_z
_atom_type_partial_charge
Eu0 Eu 0.31615 0.24124 0.17252 0.0
Eu1 Eu 0.31338 0.1884 0.13593 0.0
C2 C 0.34268 0.15603 0.17583 0.0
C3 C 0.32561 0.3311 0.19902 0.0
C4 C 0.35399 0.34806 0.20931 0.0
C5 C 0.29907 0.39255 0.19236 0.0
C6 C 0.35363 0.38667 0.21208 0.0
C7 C 0.29971 0.35378 0.18946 0.0
C8 C 0.32382 0.40914 0.20516 0.0
C9 C 0.32317 0.28993 0.19881 0.0
O10 O 0.25464 0.18736 0.14811 0.0
O11 O 0.27072 0.1981 0.17829 0.0
C12 C 0.2469 0.18532 0.16586 0.0
O13 O 0.27368 0.26914 0.15474 0.0
O14 O 0.29107 0.14305 0.11866 0.0
O15 O 0.33831 0.17573 0.10903 0.0
O16 O 0.29309 0.24681 0.12669 0.0
C17 C 0.27409 0.2711 0.13682 0.0
O18 O 0.35941 0.26092 0.15196 0.0
O19 O 0.37445 0.20286 0.1424 0.0
O20 O 0.32494 0.14812 0.16024 0.0
O21 O 0.29091 0.27541 0.19409 0.0
O22 O 0.35176 0.27235 0.19158 0.0
O23 O 0.34932 0.19064 0.18077 0.0
C24 C 0.30043 0.14714 0.08562 0.0
C25 C 0.3266 0.14896 0.0711 0.0
C26 C 0.25128 0.13477 0.06279 0.0
C27 C 0.31544 0.14366 0.05273 0.0
C28 C 0.26248 0.14011 0.08122 0.0
C29 C 0.27765 0.13615 0.04824 0.0
C30 C 0.31428 0.14941 0.10506 0.0
C31 C 0.38498 0.23727 0.14613 0.0
H32 H 0.3752 0.33117 0.21619 0.0
H33 H 0.27718 0.4088 0.1857 0.0
H34 H 0.37442 0.3975 0.22152 0.0
H35 H 0.2787 0.34141 0.18055 0.0
H36 H 0.35612 0.15373 0.07399 0.0
H37 H 0.22189 0.12963 0.05992 0.0
H38 H 0.33675 0.14448 0.04207 0.0
H39 H 0.24149 0.13829 0.09201 0.0
Eu40 Eu 0.56112 0.56668 0.42957 0.0
Eu41 Eu 0.60827 0.55673 0.39047 0.0
C42 C 0.6443 0.59046 0.42794 0.0
C43 C 0.539 0.60389 0.47744 0.0
C44 C 0.55611 0.63931 0.47603 0.0
C45 C 0.5448 0.60686 0.51058 0.0
C46 C 0.56761 0.6584 0.49193 0.0
C47 C 0.53301 0.58819 0.49481 0.0
C48 C 0.56244 0.64221 0.50945 0.0
C49 C 0.52912 0.58171 0.46111 0.0
O50 O 0.60731 0.4989 0.40298 0.0
O51 O 0.60107 0.51692 0.4332 0.0
C52 C 0.61071 0.49177 0.4207 0.0
O53 O 0.52497 0.5264 0.41461 0.0
O54 O 0.65459 0.53533 0.37317 0.0
O55 O 0.61422 0.57451 0.36179 0.0
O56 O 0.54957 0.53184 0.38511 0.0
C57 C 0.52364 0.51986 0.39686 0.0
O58 O 0.53614 0.60616 0.40862 0.0
O59 O 0.5908 0.61802 0.39361 0.0
O60 O 0.65097 0.56755 0.41401 0.0
O61 O 0.52225 0.60017 0.44597 0.0
O62 O 0.54946 0.55182 0.45823 0.0
O63 O 0.61068 0.60461 0.42968 0.0
C64 C 0.6453 0.53417 0.33997 0.0
C65 C 0.62395 0.54768 0.32497 0.0
C66 C 0.67704 0.49125 0.31863 0.0
C67 C 0.62926 0.53349 0.3071 0.0
C68 C 0.6718 0.50557 0.33653 0.0
C69 C 0.65623 0.50537 0.30355 0.0
C70 C 0.64324 0.55311 0.3584 0.0
C71 C 0.55721 0.62909 0.39903 0.0
H72 H 0.56134 0.65184 0.46266 0.0
H73 H 0.54153 0.59244 0.52362 0.0
H74 H 0.58107 0.6854 0.49044 0.0
H75 H 0.52029 0.56075 0.49617 0.0
H76 H 0.60363 0.57002 0.32692 0.0
H77 H 0.69836 0.46996 0.31654 0.0
H78 H 0.61227 0.54481 0.296 0.0
H79 H 0.68932 0.4949 0.3476 0.0
Eu80 Eu 0.22731 0.80996 0.67363 0.0
Eu81 Eu 0.23311 0.86203 0.63674 0.0
C82 C 0.20027 0.89487 0.67576 0.0
C83 C 0.21359 0.72087 0.70024 0.0
C84 C 0.18688 0.70419 0.71166 0.0
C85 C 0.23645 0.65906 0.69153 0.0
C86 C 0.18635 0.66541 0.71387 0.0
C87 C 0.23681 0.69804 0.68927 0.0
C88 C 0.21346 0.64233 0.70508 0.0
C89 C 0.21684 0.76194 0.70006 0.0
O90 O 0.29031 0.86434 0.65024 0.0
O91 O 0.27198 0.85358 0.68017 0.0
C92 C 0.29657 0.86654 0.66811 0.0
O93 O 0.27351 0.78323 0.65778 0.0
O94 O 0.2548 0.90835 0.61964 0.0
O95 O 0.21113 0.87219 0.6091 0.0
O96 O 0.2594 0.80525 0.62881 0.0
C97 C 0.27766 0.7821 0.63995 0.0
O98 O 0.18848 0.78783 0.65168 0.0
O99 O 0.17217 0.84502 0.64135 0.0
O100 O 0.21975 0.90264 0.66064 0.0
O101 O 0.2498 0.77572 0.69598 0.0
O102 O 0.18935 0.77994 0.69206 0.0
O103 O 0.19229 0.86029 0.68029 0.0
C104 C 0.25114 0.90105 0.58654 0.0
C105 C 0.27257 0.93226 0.5811 0.0
C106 C 0.25519 0.87775 0.55487 0.0
C107 C 0.28499 0.93628 0.56279 0.0
C108 C 0.24293 0.87366 0.57318 0.0
C109 C 0.27602 0.90935 0.54931 0.0
C110 C 0.23413 0.89961 0.6054 0.0
C111 C 0.16282 0.81018 0.64478 0.0
H112 H 0.16773 0.72131 0.7197 0.0
H113 H 0.25613 0.6425 0.68361 0.0
H114 H 0.16715 0.65462 0.72413 0.0
H115 H 0.25647 0.71034 0.67959 0.0
H116 H 0.27892 0.95416 0.59093 0.0
H117 H 0.24819 0.85609 0.54502 0.0
H118 H 0.30063 0.96117 0.55909 0.0
H119 H 0.22632 0.8493 0.57673 0.0
Eu120 Eu 0.96745 0.47069 0.93178 0.0
Eu121 Eu 0.9295 0.47986 0.89052 0.0
C122 C 0.88664 0.44256 0.92528 0.0
C123 C 0.96413 0.47355 0.98269 0.0
C124 C 0.97596 0.46138 1.00008 0.0
C125 C 0.90898 0.50253 0.99644 0.0
C126 C 0.95447 0.46997 1.01565 0.0
C127 C 0.93021 0.49356 0.98091 0.0
C128 C 0.92096 0.49096 1.01397 0.0
C129 C 0.98662 0.46537 0.96628 0.0
O130 O 0.92386 0.53778 0.90266 0.0
O131 O 0.92505 0.51853 0.9328 0.0
C132 C 0.91695 0.54395 0.92022 0.0
O133 O 1.01316 0.49992 0.91649 0.0
O134 O 0.88293 0.49505 0.87197 0.0
O135 O 0.9309 0.46451 0.86122 0.0
O136 O 0.98631 0.51005 0.88777 0.0
C137 C 1.01438 0.51353 0.89969 0.0
O138 O 0.99836 0.42823 0.91476 0.0
O139 O 0.95021 0.4192 0.89436 0.0
O140 O 0.88312 0.46753 0.91196 0.0
O141 O 0.97517 0.43688 0.9566 0.0
O142 O 0.99448 0.49439 0.95601 0.0
O143 O 0.92004 0.43013 0.9293 0.0
C144 C 0.89183 0.49605 0.83891 0.0
C145 C 0.89521 0.53457 0.83518 0.0
C146 C 0.87411 0.48609 0.80673 0.0
C147 C 0.88824 0.54866 0.81729 0.0
C148 C 0.88115 0.47214 0.82449 0.0
C149 C 0.87769 0.52457 0.80272 0.0
C150 C 0.89818 0.47941 0.85752 0.0
C151 C 0.98127 0.4072 0.90256 0.0
H152 H 1.00182 0.44551 1.00164 0.0
H153 H 0.88377 0.5193 0.99481 0.0
H154 H 0.96412 0.46034 1.02901 0.0
H155 H 0.92037 0.50268 0.96753 0.0
H156 H 0.90334 0.55369 0.84604 0.0
H157 H 0.86535 0.46658 0.79617 0.0
H158 H 0.89172 0.57838 0.81484 0.0
H159 H 0.87797 0.44236 0.82701 0.0
Eu160 Eu 0.73438 0.8598 0.94013 0.0
Eu161 Eu 0.74535 0.80236 0.90657 0.0
C162 C 0.78654 0.78818 0.94204 0.0
C163 C 0.74842 0.90037 0.99004 0.0
C164 C 0.7409 0.87355 1.00385 0.0
C165 C 0.78514 0.9355 1.01277 0.0
C166 C 0.75518 0.87774 1.02185 0.0
C167 C 0.7708 0.93134 0.9948 0.0
C168 C 0.77741 0.9089 1.02669 0.0
C169 C 0.7308 0.89808 0.97123 0.0
O170 O 0.69287 0.78565 0.92262 0.0
O171 O 0.67491 0.84299 0.93304 0.0
C172 C 0.66622 0.8087 0.92819 0.0
O173 O 0.71502 0.8932 0.91426 0.0
O174 O 0.76333 0.74448 0.90358 0.0
O175 O 0.74403 0.77558 0.87951 0.0
O176 O 0.70763 0.84474 0.89338 0.0
C177 C 0.70413 0.88026 0.89786 0.0
O178 O 0.79068 0.87559 0.9276 0.0
O179 O 0.78723 0.84773 0.89897 0.0
O180 O 0.7944 0.7997 0.92563 0.0
O181 O 0.75074 0.90833 0.95699 0.0
O182 O 0.70986 0.86915 0.96745 0.0
O183 O 0.75552 0.80155 0.94932 0.0
C184 C 0.7295 0.71024 0.88158 0.0
C185 C 0.69588 0.71441 0.87169 0.0
C186 C 0.72278 0.64255 0.87992 0.0
C187 C 0.67734 0.68291 0.86489 0.0
C188 C 0.74146 0.6741 0.8866 0.0
C189 C 0.69256 0.64661 0.86751 0.0
C190 C 0.75305 0.74275 0.88637 0.0
C191 C 0.80281 0.87178 0.91048 0.0
H192 H 0.72358 0.84941 1.00085 0.0
H193 H 0.80157 0.9602 1.01586 0.0
H194 H 0.74888 0.85632 1.03197 0.0
H195 H 0.77671 0.95288 0.98467 0.0
H196 H 0.68507 0.74196 0.86823 0.0
H197 H 0.73428 0.61516 0.8831 0.0
H198 H 0.65354 0.68777 0.85589 0.0
H199 H 0.76652 0.67019 0.89487 0.0
Eu200 Eu 0.43404 0.48184 0.68541 0.0
Eu201 Eu 0.48646 0.48207 0.64771 0.0
C202 C 0.5159 0.51717 0.68384 0.0
C203 C 0.39437 0.49689 0.73615 0.0
C204 C 0.41953 0.5232 0.74356 0.0
C205 C 0.36034 0.49706 0.76547 0.0
C206 C 0.4153 0.53603 0.76181 0.0
C207 C 0.36445 0.48448 0.74723 0.0
C208 C 0.386 0.52263 0.7732 0.0
C209 C 0.40115 0.47839 0.71802 0.0
O210 O 0.47536 0.42114 0.65321 0.0
O211 O 0.46716 0.42685 0.68428 0.0
C212 C 0.47517 0.40626 0.66973 0.0
O213 O 0.39642 0.45457 0.66307 0.0
O214 O 0.50442 0.50088 0.62045 0.0
O215 O 0.53893 0.46161 0.63586 0.0
O216 O 0.43067 0.46598 0.63633 0.0
C217 C 0.40014 0.45464 0.64478 0.0
O218 O 0.41385 0.53325 0.67045 0.0
O219 O 0.4619 0.54123 0.64931 0.0
O220 O 0.52126 0.48847 0.67314 0.0
O221 O 0.38436 0.49103 0.70323 0.0
O222 O 0.43535 0.46708 0.71458 0.0
O223 O 0.48121 0.52509 0.68872 0.0
C224 C 0.56993 0.50319 0.61574 0.0
C225 C 0.58076 0.50237 0.59729 0.0
C226 C 0.62011 0.54747 0.62219 0.0
C227 C 0.60997 0.52496 0.59112 0.0
C228 C 0.59028 0.52506 0.62832 0.0
C229 C 0.62941 0.54893 0.60334 0.0
C230 C 0.53617 0.48248 0.62117 0.0
C231 C 0.43072 0.55291 0.65751 0.0
H232 H 0.44312 0.53299 0.73543 0.0
H233 H 0.3371 0.48643 0.77356 0.0
H234 H 0.4359 0.55543 0.76719 0.0
H235 H 0.34476 0.46403 0.74194 0.0
H236 H 0.56539 0.48555 0.58741 0.0
H237 H 0.63473 0.56482 0.63203 0.0
H238 H 0.6151 0.52538 0.57642 0.0
H239 H 0.58224 0.52578 0.64269 0.0
Eu240 Eu 0.80418 0.18157 0.43874 0.0
Eu241 Eu 0.79273 0.23825 0.40353 0.0
C242 C 0.773 0.26357 0.4415 0.0
C243 C 0.79523 0.13749 0.48857 0.0
C244 C 0.75951 0.1512 0.49357 0.0
C245 C 0.80192 0.11127 0.51958 0.0
C246 C 0.74519 0.14501 0.51146 0.0
C247 C 0.81605 0.11728 0.50174 0.0
C248 C 0.7664 0.12529 0.52485 0.0
C249 C 0.81285 0.14588 0.47038 0.0
O250 O 0.85596 0.23744 0.40626 0.0
O251 O 0.86049 0.21134 0.43526 0.0
C252 C 0.87579 0.22848 0.42096 0.0
O253 O 0.83056 0.1508 0.4137 0.0
O254 O 0.76186 0.28912 0.39599 0.0
O255 O 0.80021 0.26287 0.3764 0.0
O256 O 0.79977 0.18241 0.39022 0.0
C257 C 0.82021 0.1541 0.3961 0.0
O258 O 0.75256 0.15823 0.42529 0.0
O259 O 0.73638 0.20853 0.40691 0.0
O260 O 0.80132 0.26695 0.43039 0.0
O261 O 0.82294 0.18047 0.46742 0.0
O262 O 0.79918 0.13031 0.45554 0.0
O263 O 0.76233 0.22911 0.44474 0.0
C264 C 0.79484 0.32924 0.37553 0.0
C265 C 0.83243 0.33318 0.36994 0.0
C266 C 0.7828 0.39372 0.36641 0.0
C267 C 0.84426 0.36612 0.36138 0.0
C268 C 0.7708 0.36045 0.37471 0.0
C269 C 0.81871 0.3958 0.35825 0.0
C270 C 0.77936 0.29214 0.38022 0.0
C271 C 0.72895 0.17532 0.41411 0.0
H272 H 0.743 0.16721 0.48375 0.0
H273 H 0.81895 0.0955 0.52928 0.0
H274 H 0.7179 0.15657 0.51495 0.0
H275 H 0.84372 0.10652 0.4983 0.0
H276 H 0.85197 0.30987 0.37084 0.0
H277 H 0.76272 0.41639 0.36477 0.0
H278 H 0.8722 0.36636 0.35544 0.0
H279 H 0.74189 0.35827 0.37927 0.0
Eu280 Eu 0.11862 0.56276 0.18751 0.0
Eu281 Eu 0.06637 0.57 0.15079 0.0
C282 C 0.03863 0.51845 0.18371 0.0
C283 C 0.15799 0.54554 0.23781 0.0
C284 C 0.13193 0.51888 0.24409 0.0
C285 C 0.18681 0.54549 0.26842 0.0
C286 C 0.13335 0.50564 0.26241 0.0
C287 C 0.1855 0.55846 0.25014 0.0
C288 C 0.16068 0.51898 0.27493 0.0
C289 C 0.1562 0.56199 0.21894 0.0
O290 O 0.04397 0.60658 0.17358 0.0
O291 O 0.10155 0.62358 0.18277 0.0
C292 C 0.06618 0.63253 0.18004 0.0
O293 O 0.1596 0.57677 0.16375 0.0
O294 O 0.03096 0.54994 0.12839 0.0
O295 O 0.03663 0.60973 0.13308 0.0
O296 O 0.11698 0.6045 0.14419 0.0
C297 C 0.15173 0.59633 0.14865 0.0
O298 O 0.12336 0.5067 0.17326 0.0
O299 O 0.10987 0.52529 0.14356 0.0
O300 O 0.04039 0.5227 0.1659 0.0
O301 O 0.16461 0.54085 0.20485 0.0
O302 O 0.12799 0.58427 0.21534 0.0
O303 O 0.06139 0.53657 0.19502 0.0
C304 C 0.97667 0.58781 0.125 0.0
C305 C 0.95986 0.61349 0.11301 0.0
C306 C 0.9147 0.56721 0.13482 0.0
C307 C 0.92084 0.61439 0.11106 0.0
C308 C 0.95387 0.56647 0.13683 0.0
C309 C 0.89783 0.58853 0.12064 0.0
C310 C 1.0178 0.5834 0.12482 0.0
C311 C 0.12466 0.50095 0.15531 0.0
H312 H 0.11025 0.50862 0.23491 0.0
H313 H 0.20863 0.55606 0.27742 0.0
H314 H 0.11251 0.4855 0.26686 0.0
H315 H 0.20592 0.57904 0.24566 0.0
H316 H 0.97699 0.63131 0.10431 0.0
H317 H 0.89804 0.54879 0.14338 0.0
H318 H 0.90975 0.63244 0.10036 0.0
H319 H 0.96635 0.5478 0.14695 0.0
Eu320 Eu 0.81873 0.7256 0.67942 0.0
Eu321 Eu 0.81288 0.68254 0.63945 0.0
C322 C 0.84723 0.64487 0.67645 0.0
C323 C 0.79349 0.73328 0.72813 0.0
C324 C 0.808 0.732 0.74603 0.0
C325 C 0.74075 0.69469 0.73769 0.0
C326 C 0.7889 0.71224 0.75973 0.0
C327 C 0.75952 0.71489 0.7241 0.0
C328 C 0.75541 0.693 0.75558 0.0
C329 C 0.81572 0.74948 0.71313 0.0
O330 O 0.75305 0.68231 0.65005 0.0
O331 O 0.76989 0.68468 0.6804 0.0
C332 C 0.74485 0.67749 0.66756 0.0
O333 O 0.7934 0.76952 0.66153 0.0
O334 O 0.79673 0.63501 0.62172 0.0
O335 O 0.83175 0.67935 0.61088 0.0
O336 O 0.78247 0.73823 0.63419 0.0
C337 C 0.77971 0.76818 0.64481 0.0
O338 O 0.86717 0.75114 0.66428 0.0
O339 O 0.87352 0.70427 0.64279 0.0
O340 O 0.82326 0.63931 0.66281 0.0
O341 O 0.84278 0.72802 0.70709 0.0
O342 O 0.79631 0.76455 0.69976 0.0
O343 O 0.86001 0.67855 0.67892 0.0
C344 C 0.79615 0.64449 0.5885 0.0
C345 C 0.80402 0.67028 0.57428 0.0
C346 C 0.7636 0.60565 0.56575 0.0
C347 C 0.79211 0.66375 0.55609 0.0
C348 C 0.77546 0.61223 0.58397 0.0
C349 C 0.7721 0.63106 0.55142 0.0
C350 C 0.81378 0.64843 0.60719 0.0
C351 C 0.88703 0.7338 0.65161 0.0
H352 H 0.83445 0.74547 0.74928 0.0
H353 H 0.71472 0.68061 0.73425 0.0
H354 H 0.80088 0.71108 0.77345 0.0
H355 H 0.74772 0.71556 0.71036 0.0
H356 H 0.82042 0.69516 0.57706 0.0
H357 H 0.74781 0.58043 0.56293 0.0
H358 H 0.79975 0.6839 0.54558 0.0
H359 H 0.76924 0.59148 0.59444 0.0
Eu360 Eu 0.077 0.06772 0.92891 0.0
Eu361 Eu 0.1177 0.0635 0.8882 0.0
C362 C 0.15575 0.10155 0.92406 0.0
C363 C 0.04835 0.1082 0.97504 0.0
C364 C 0.06635 0.14234 0.97122 0.0
C365 C 0.0392 0.12775 1.00657 0.0
C366 C 0.07183 0.1687 0.98528 0.0
C367 C 0.03363 0.10175 0.99257 0.0
C368 C 0.0597 0.16106 1.00339 0.0
C369 C 0.0492 0.07717 0.96183 0.0
O370 O 0.12406 1.00505 0.89981 0.0
O371 O 0.12043 1.02071 0.93045 0.0
C372 C 0.13018 0.99711 0.91729 0.0
O373 O 0.04716 1.02075 0.9151 0.0
O374 O 0.16407 0.04754 0.8696 0.0
O375 O 0.11721 0.08007 0.85917 0.0
O376 O 0.05872 0.03778 0.88499 0.0
C377 C 0.03978 1.01833 0.89747 0.0
O378 O 0.04823 0.11102 0.91096 0.0
O379 O 0.09806 0.12387 0.89224 0.0
O380 O 0.16224 0.07806 0.91036 0.0
O381 O 0.02932 0.08113 0.94682 0.0
O382 O 0.08256 0.0633 0.95865 0.0
O383 O 0.12118 0.11154 0.92737 0.0
C384 C 0.15161 0.04369 0.83677 0.0
C385 C 0.12419 0.04917 0.82297 0.0
C386 C 0.18982 1.00977 0.81411 0.0
C387 C 0.12965 0.03545 0.805 0.0
C388 C 0.18439 0.02358 0.83208 0.0
C389 C 0.16277 1.01591 0.80018 0.0
C390 C 0.14857 0.06288 0.85509 0.0
C391 C 0.06612 0.13421 0.89997 0.0
H392 H 0.07784 0.14774 0.95764 0.0
H393 H 0.02996 0.11988 1.02025 0.0
H394 H 0.08717 0.19406 0.98215 0.0
H395 H 1.01989 0.07545 0.99576 0.0
H396 H 0.09876 0.06487 0.8259 0.0
H397 H 0.21589 0.9953 0.81101 0.0
H398 H 0.10784 0.04033 0.79484 0.0
H399 H 0.20647 1.01944 0.84219 0.0
Eu400 Eu 0.74292 0.3055 0.17583 0.0
Eu401 Eu 0.73497 0.35777 0.13888 0.0
C402 C 0.71671 0.3907 0.17982 0.0
C403 C 0.77728 0.28934 0.22101 0.0
C404 C 0.76414 0.32501 0.22629 0.0
C405 C 0.83368 0.29962 0.2393 0.0
C406 C 0.78568 0.34786 0.23757 0.0
C407 C 0.81224 0.27677 0.22766 0.0
C408 C 0.82071 0.3356 0.24412 0.0
C409 C 0.75842 0.26988 0.20569 0.0
O410 O 0.78685 0.38263 0.15172 0.0
O411 O 0.79829 0.33712 0.17364 0.0
C412 C 0.80785 0.36805 0.16486 0.0
O413 O 0.74625 0.26904 0.15095 0.0
O414 O 0.73807 0.40783 0.12099 0.0
O415 O 0.72016 0.35458 0.10979 0.0
O416 O 0.77973 0.31175 0.1354 0.0
C417 C 0.77324 0.27642 0.13941 0.0
O418 O 0.68008 0.30502 0.17105 0.0
O419 O 0.68015 0.32488 0.14092 0.0
O420 O 0.70603 0.3913 0.16227 0.0
O421 O 0.72426 0.28141 0.20193 0.0
O422 O 0.77904 0.26623 0.19086 0.0
O423 O 0.73762 0.36369 0.18639 0.0
C424 C 0.74612 0.39786 0.08827 0.0
C425 C 0.77569 0.37569 0.08135 0.0
C426 C 0.74376 0.43087 0.05874 0.0
C427 C 0.78889 0.38085 0.06322 0.0
C428 C 0.73079 0.42585 0.07686 0.0
C429 C 0.77265 0.40809 0.05148 0.0
C430 C 0.72765 0.38962 0.10625 0.0
C431 C 0.6626 0.31038 0.15527 0.0
H432 H 0.7376 0.33602 0.22127 0.0
H433 H 0.86051 0.28941 0.24436 0.0
H434 H 0.77454 0.37502 0.24143 0.0
H435 H 0.82342 0.24985 0.2234 0.0
H436 H 0.78781 0.35363 0.08978 0.0
H437 H 0.73089 0.45257 0.05038 0.0
H438 H 0.81094 0.3625 0.0582 0.0
H439 H 0.70784 0.44321 0.08179 0.0
Eu440 Eu 0.46176 0.9626 0.42672 0.0
Eu441 Eu 0.4224 0.97355 0.38621 0.0
C442 C 0.38254 0.93291 0.42056 0.0
C443 C 0.50787 0.90856 0.46543 0.0
C444 C 0.49271 0.89397 0.48169 0.0
C445 C 0.55699 0.86083 0.46649 0.0
C446 C 0.51079 0.86465 0.49087 0.0
C447 C 0.53875 0.89021 0.45728 0.0
C448 C 0.54533 0.84993 0.48428 0.0
C449 C 0.49252 0.94388 0.45785 0.0
O450 O 0.41373 0.02938 0.40021 0.0
O451 O 0.41961 1.01035 0.43053 0.0
C452 C 0.40868 0.03512 0.41801 0.0
O453 O 0.48859 1.01425 0.41567 0.0
O454 O 0.37643 0.99098 0.36761 0.0
O455 O 0.42448 0.96079 0.35681 0.0
O456 O 0.47985 1.00302 0.38474 0.0
C457 C 0.49669 1.02103 0.39838 0.0
O458 O 0.49249 0.92527 0.40673 0.0
O459 O 0.44206 0.9127 0.38868 0.0
O460 O 0.37719 0.95863 0.40776 0.0
O461 O 0.51115 0.95924 0.44429 0.0
O462 O 0.45607 0.9456 0.45554 0.0
O463 O 0.41653 0.92024 0.42289 0.0
C464 C 0.38982 0.99846 0.33502 0.0
C465 C 0.41849 0.9962 0.32164 0.0
C466 C 0.35078 0.0316 0.31239 0.0
C467 C 0.41322 1.01104 0.30386 0.0
C468 C 0.35602 1.01665 0.33016 0.0
C469 C 0.37908 0.02852 0.29884 0.0
C470 C 0.39281 0.97763 0.3529 0.0
C471 C 0.4746 0.90232 0.39575 0.0
H472 H 0.46823 0.90689 0.48798 0.0
H473 H 0.58204 0.84901 0.4603 0.0
H474 H 0.49961 0.85711 0.50423 0.0
H475 H 0.55026 0.8999 0.4443 0.0
H476 H 0.44479 0.98208 0.32472 0.0
H477 H 0.32395 0.04446 0.30908 0.0
H478 H 0.43594 1.00858 0.29398 0.0
H479 H 0.33305 1.01828 0.33995 0.0
Eu480 Eu 0.22426 0.35448 0.4361 0.0
Eu481 Eu 0.22109 0.31472 0.39505 0.0
C482 C 0.25775 0.26895 0.42934 0.0
C483 C 0.24393 0.38836 0.48732 0.0
C484 C 0.23901 0.36108 0.5012 0.0
C485 C 0.27972 0.42569 0.50956 0.0
C486 C 0.25401 0.36614 0.51898 0.0
C487 C 0.26467 0.42064 0.49178 0.0
C488 C 0.27431 0.39873 0.52356 0.0
C489 C 0.22397 0.38556 0.46912 0.0
O490 O 0.17482 0.28643 0.41083 0.0
O491 O 0.16375 0.33531 0.43053 0.0
C492 C 0.15235 0.30452 0.42213 0.0
O493 O 0.21229 0.40009 0.41407 0.0
O494 O 0.19281 0.3 0.36941 0.0
O495 O 0.25274 0.2898 0.37242 0.0
O496 O 0.18042 0.3626 0.39422 0.0
C497 C 0.19009 0.39604 0.39955 0.0
O498 O 0.28371 0.35748 0.42533 0.0
O499 O 0.26682 0.35892 0.39501 0.0
O500 O 0.24815 0.27008 0.41192 0.0
O501 O 0.23903 0.40107 0.45456 0.0
O502 O 0.20687 0.35431 0.46505 0.0
O503 O 0.2519 0.2971 0.44083 0.0
C504 C 0.23253 0.31641 0.3448 0.0
C505 C 0.22255 0.35446 0.34493 0.0
C506 C 0.26408 0.32564 0.31556 0.0
C507 C 0.23247 0.37769 0.3303 0.0
C508 C 0.25384 0.30223 0.33019 0.0
C509 C 0.25264 0.36362 0.31516 0.0
C510 C 0.22459 0.29312 0.36099 0.0
C511 C 0.29147 0.36561 0.40808 0.0
H512 H 0.22287 0.33602 0.49846 0.0
H513 H 0.29464 0.45141 0.51246 0.0
H514 H 0.24955 0.34442 0.52919 0.0
H515 H 0.26846 0.44263 0.48164 0.0
H516 H 0.20713 0.36637 0.3564 0.0
H517 H 0.28129 0.31382 0.30472 0.0
H518 H 0.22344 0.40651 0.33076 0.0
H519 H 0.26309 0.27326 0.33023 0.0
Eu520 Eu 0.94186 0.98234 0.18844 0.0
Eu521 Eu 0.99287 0.9813 0.15016 0.0
C522 C 1.02371 1.01689 0.18568 0.0
C523 C 0.90223 1.00064 0.23897 0.0
C524 C 0.9254 0.02933 0.24582 0.0
C525 C 0.86621 1.00303 0.26768 0.0
C526 C 0.91908 0.04457 0.26349 0.0
C527 C 0.87238 0.98805 0.25003 0.0
C528 C 0.88971 0.0312 0.27484 0.0
C529 C 0.91066 0.98045 0.22144 0.0
O530 O 0.98274 0.92041 0.15608 0.0
O531 O 0.97352 0.92628 0.18713 0.0
C532 C 0.98181 0.90559 0.17262 0.0
O533 O 0.90186 0.95753 0.16638 0.0
O534 O 1.00646 0.99172 0.12132 0.0
O535 O 0.04878 0.96816 0.13955 0.0
O536 O 0.93695 0.9639 0.13951 0.0
C537 C 0.90577 0.95533 0.14814 0.0
O538 O 0.92385 0.03558 0.17435 0.0
O539 O 0.96891 0.04075 0.15139 0.0
O540 O 0.02811 0.98731 0.17548 0.0
O541 O 0.89215 0.98907 0.20644 0.0
O542 O 0.94574 0.9721 0.21804 0.0
O543 O 0.98936 0.02535 0.19084 0.0
C544 C 0.06958 1.00605 0.11469 0.0
C545 C 0.06912 1.00954 0.09554 0.0
C546 C 0.11972 0.0523 0.11625 0.0
C547 C 0.0927 0.03489 0.08682 0.0
C548 C 0.09545 0.02705 0.12507 0.0
C549 C 0.11802 0.05711 0.09702 0.0
C550 C 0.0415 0.98143 0.12318 0.0
C551 C 0.93974 0.05406 0.16069 0.0
H552 H 0.94888 0.03938 0.2377 0.0
H553 H 0.84292 0.99238 0.27574 0.0
H554 H 0.93795 0.06605 0.26848 0.0
H555 H 0.85423 0.9658 0.24519 0.0
H556 H 0.04936 0.99361 0.08732 0.0
H557 H 0.13909 0.06861 0.12444 0.0
H558 H 0.08939 0.0383 0.07207 0.0
H559 H 0.09631 0.02462 0.13993 0.0
Eu560 Eu 0.31849 0.67787 0.93567 0.0
Eu561 Eu 0.32187 0.71702 0.89455 0.0
C562 C 0.28442 0.76309 0.92836 0.0
C563 C 0.30047 0.64391 0.98718 0.0
C564 C 0.30539 0.67153 1.00083 0.0
C565 C 0.26729 0.60578 1.01012 0.0
C566 C 0.29176 0.66622 1.01886 0.0
C567 C 0.28102 0.61106 0.9921 0.0
C568 C 0.27285 0.63306 1.02389 0.0
C569 C 0.31946 0.64696 0.96877 0.0
O570 O 0.36921 0.74504 0.90973 0.0
O571 O 0.37893 0.69791 0.93074 0.0
C572 C 0.39094 0.72783 0.92174 0.0
O573 O 0.33007 0.63205 0.91375 0.0
O574 O 0.35043 0.73168 0.86898 0.0
O575 O 0.29039 0.74141 0.87166 0.0
O576 O 0.36255 0.66924 0.89403 0.0
C577 C 0.35257 0.63588 0.89934 0.0
O578 O 0.25882 0.67541 0.92522 0.0
O579 O 0.2752 0.67331 0.89484 0.0
O580 O 0.29578 0.76242 0.91121 0.0
O581 O 0.30399 0.63137 0.95437 0.0
O582 O 0.33619 0.67834 0.96453 0.0
O583 O 0.28916 0.73463 0.93986 0.0
C584 C 0.31172 0.71642 0.84389 0.0
C585 C 0.32154 0.67834 0.84365 0.0
C586 C 0.28333 0.70969 0.81376 0.0
C587 C 0.31315 0.65633 0.82837 0.0
C588 C 0.29207 0.73187 0.82901 0.0
C589 C 0.29471 0.67173 0.81301 0.0
C590 C 0.31888 0.73879 0.8604 0.0
C591 C 0.25061 0.66713 0.90806 0.0
H592 H 0.32057 0.69705 0.99774 0.0
H593 H 0.25334 0.57967 1.01338 0.0
H594 H 0.29618 0.6882 1.02889 0.0
H595 H 0.27731 0.58884 0.98211 0.0
H596 H 0.33579 0.66555 0.85528 0.0
H597 H 0.26734 0.72243 0.8027 0.0
H598 H 0.32203 0.62746 0.82851 0.0
H599 H 0.28308 0.76092 0.82927 0.0
Eu600 Eu 0.60879 0.06049 0.68754 0.0
Eu601 Eu 0.56889 0.06808 0.64657 0.0
C602 C 0.52408 0.02618 0.67981 0.0
C603 C 0.64286 0.04065 0.73897 0.0
C604 C 0.65409 1.00303 0.74122 0.0
C605 C 0.64113 0.04662 0.77262 0.0
C606 C 0.65889 0.98749 0.75898 0.0
C607 C 0.63632 0.06206 0.75493 0.0
C608 C 0.65275 1.00911 0.77502 0.0
C609 C 0.64062 0.05938 0.72048 0.0
O610 O 0.5395 0.11245 0.66298 0.0
O611 O 0.58781 0.12111 0.68351 0.0
C612 C 0.55675 0.13315 0.67527 0.0
O613 O 0.65382 0.07179 0.66516 0.0
O614 O 0.57052 0.09423 0.61935 0.0
O615 O 0.53092 0.04965 0.62483 0.0
O616 O 0.61543 0.10954 0.64896 0.0
C617 C 0.64913 0.09652 0.65179 0.0
O618 O 0.6115 1.00193 0.67581 0.0
O619 O 0.61042 1.01984 0.6455 0.0
O620 O 0.52551 0.03685 0.66253 0.0
O621 O 0.65466 0.0427 0.706 0.0
O622 O 0.61015 0.0782 0.71649 0.0
O623 O 0.55161 0.03231 0.6917 0.0
C624 C 0.56443 0.04632 0.59742 0.0
C625 C 0.60155 0.03281 0.59894 0.0
C626 C 0.55432 1.00534 0.57144 0.0
C627 C 0.6148 1.00526 0.58692 0.0
C628 C 0.54111 0.03284 0.58345 0.0
C629 C 0.59114 0.99088 0.57321 0.0
C630 C 0.54836 0.06905 0.61225 0.0
C631 C 0.61811 0.99487 0.6583 0.0
H632 H 0.65957 0.98566 0.72929 0.0
H633 H 0.63667 0.06458 0.78444 0.0
H634 H 0.66733 0.95839 0.7601 0.0
H635 H 0.6282 0.09126 0.75372 0.0
H636 H 0.61993 0.04262 0.6098 0.0
H637 H 0.53509 0.99429 0.56124 0.0
H638 H 0.64333 0.99498 0.58848 0.0
H639 H 0.51217 0.0423 0.58237 0.0
C640 C 0.27387 0.45114 0.21815 0.0
C641 C 0.31254 0.44399 0.21545 0.0
C642 C 0.26018 0.45714 0.23606 0.0
C643 C 0.28587 0.4553 0.25089 0.0
C644 C 0.32447 0.46124 0.2472 0.0
C645 C 0.33717 0.45801 0.22894 0.0
C646 C 0.21834 0.45747 0.23934 0.0
C647 C 0.35284 0.46457 0.26256 0.0
C648 C 0.26373 0.42716 0.30039 0.0
C649 C 0.26043 0.38797 0.29882 0.0
C650 C 0.2697 0.45 0.28488 0.0
C651 C 0.27517 0.43311 0.26746 0.0
C652 C 0.27234 0.3935 0.26584 0.0
C653 C 0.26365 0.37188 0.28131 0.0
C654 C 0.27047 0.49191 0.28755 0.0
C655 C 0.27983 0.37318 0.24793 0.0
H656 H 0.25364 0.44564 0.20734 0.0
H657 H 0.36714 0.45863 0.22622 0.0
H658 H 0.21145 0.46984 0.25296 0.0
H659 H 0.20376 0.47355 0.22831 0.0
H660 H 0.20753 0.42834 0.23901 0.0
H661 H 0.38177 0.46941 0.25728 0.0
H662 H 0.345 0.48819 0.27169 0.0
H663 H 0.35297 0.43856 0.271 0.0
H664 H 0.26206 0.44034 0.31374 0.0
H665 H 0.25963 0.34205 0.27955 0.0
H666 H 0.26787 0.50771 0.27442 0.0
H667 H 0.29718 0.49978 0.29443 0.0
H668 H 0.24729 0.50064 0.29688 0.0
H669 H 0.27984 0.34222 0.24957 0.0
H670 H 0.3077 0.38145 0.24255 0.0
H671 H 0.25814 0.38054 0.23755 0.0
C672 C 0.6489 0.61652 0.60246 0.0
C673 C 0.65276 0.57991 0.59553 0.0
C674 C 0.64838 0.64722 0.59028 0.0
C675 C 0.64904 0.64005 0.57114 0.0
C676 C 0.66345 0.60504 0.565 0.0
C677 C 0.66745 0.5758 0.57774 0.0
C678 C 0.64134 0.68597 0.59775 0.0
C679 C 0.66692 0.59553 0.54481 0.0
C680 C 0.56202 0.65091 0.54351 0.0
C681 C 0.57876 0.65893 0.52649 0.0
C682 C 0.58361 0.64981 0.5596 0.0
C683 C 0.62218 0.66007 0.55873 0.0
C684 C 0.63554 0.67843 0.54275 0.0
C685 C 0.61419 0.67642 0.52642 0.0
C686 C 0.5662 0.6324 0.57658 0.0
C687 C 0.67334 0.69744 0.5427 0.0
H688 H 0.64128 0.62104 0.61668 0.0
H689 H 0.67478 0.54804 0.57282 0.0
H690 H 0.64223 0.70769 0.58677 0.0
H691 H 0.61369 0.68709 0.60483 0.0
H692 H 0.66301 0.69252 0.60828 0.0
H693 H 0.63837 0.59176 0.53889 0.0
H694 H 0.68092 0.61833 0.53713 0.0
H695 H 0.68311 0.56923 0.54256 0.0
H696 H 0.53326 0.64089 0.54391 0.0
H697 H 0.62671 0.68546 0.51356 0.0
H698 H 0.57034 0.65075 0.58868 0.0
H699 H 0.57968 0.60492 0.57946 0.0
H700 H 0.53548 0.62766 0.57498 0.0
H701 H 0.67167 0.72274 0.55154 0.0
H702 H 0.6819 0.70623 0.52862 0.0
H703 H 0.69541 0.67913 0.54874 0.0
C704 C 0.20145 0.59109 0.72785 0.0
C705 C 0.22449 0.60563 0.71382 0.0
C706 C 0.21705 0.58443 0.74533 0.0
C707 C 0.25654 0.58734 0.74746 0.0
C708 C 0.27924 0.58573 0.73152 0.0
C709 C 0.26296 0.59574 0.71455 0.0
C710 C 0.19121 0.58039 0.76169 0.0
C711 C 0.32131 0.58105 0.73289 0.0
C712 C 0.28686 0.66626 0.77889 0.0
C713 C 0.28814 0.64875 0.79614 0.0
C714 C 0.27718 0.64648 0.76302 0.0
C715 C 0.27142 0.60705 0.764 0.0
C716 C 0.27631 0.58845 0.78107 0.0
C717 C 0.28331 0.60964 0.79701 0.0
C718 C 0.27094 0.66887 0.74556 0.0
C719 C 0.27334 0.54647 0.78299 0.0
H720 H 0.17113 0.59259 0.72641 0.0
H721 H 0.28155 0.60167 0.70311 0.0
H722 H 0.19742 0.55366 0.7689 0.0
H723 H 0.1958 0.60362 0.7716 0.0
H724 H 0.16106 0.58038 0.75763 0.0
H725 H 0.33503 0.6089 0.73225 0.0
H726 H 0.3295 0.56712 0.746 0.0
H727 H 0.33197 0.56429 0.72109 0.0
H728 H 0.29255 0.69596 0.77773 0.0
H729 H 0.28409 0.59532 0.81012 0.0
H730 H 0.24224 0.66361 0.74033 0.0
H731 H 0.29152 0.6606 0.73484 0.0
H732 H 0.27374 0.69955 0.74772 0.0
H733 H 0.27447 0.53174 0.76954 0.0
H734 H 0.24663 0.53942 0.79009 0.0
H735 H 0.29647 0.53578 0.79187 0.0
C736 C 0.91982 0.51714 0.04551 0.0
C737 C 0.89991 0.50276 1.03057 0.0
C738 C 0.90118 0.5303 0.06112 0.0
C739 C 0.8612 0.52886 0.06198 0.0
C740 C 0.84077 0.51407 0.04693 0.0
C741 C 0.86045 0.50147 1.03129 0.0
C742 C 0.92473 0.5469 0.07637 0.0
C743 C 0.79837 0.51229 0.04702 0.0
C744 C 0.85349 0.53757 0.11163 0.0
C745 C 0.86142 0.57624 0.11208 0.0
C746 C 0.84382 0.52054 0.09487 0.0
C747 C 0.84219 0.54309 0.07886 0.0
C748 C 0.83748 0.58224 0.0809 0.0
C749 C 0.8454 0.59846 0.09808 0.0
C750 C 0.84402 0.47837 0.09365 0.0
C751 C 0.83211 0.60746 0.06442 0.0
H752 H 0.95024 0.51913 0.04476 0.0
H753 H 0.84499 0.49048 1.01967 0.0
H754 H 0.91695 0.57674 0.07811 0.0
H755 H 0.91967 0.53192 0.08953 0.0
H756 H 0.9554 0.54552 0.07344 0.0
H757 H 0.78672 0.54012 0.04328 0.0
H758 H 0.78774 0.49191 1.03675 0.0
H759 H 0.7874 0.50476 0.06086 0.0
H760 H 0.86138 0.51957 0.12302 0.0
H761 H 0.84654 0.62873 0.09915 0.0
H762 H 0.87323 0.4685 0.09109 0.0
H763 H 0.826 0.46848 0.08215 0.0
H764 H 0.83416 0.46558 0.10676 0.0
H765 H 0.85949 0.61095 0.05725 0.0
H766 H 0.82171 0.63562 0.06854 0.0
H767 H 0.812 0.59502 0.05453 0.0
C768 C 0.65257 0.61941 0.84241 0.0
C769 C 0.68526 0.61716 0.8533 0.0
C770 C 0.65535 0.61561 0.82319 0.0
C771 C 0.6911 0.60856 0.81538 0.0
C772 C 0.71991 0.59393 0.82674 0.0
C773 C 0.71654 0.59808 0.84587 0.0
C774 C 0.6224 0.62669 0.81129 0.0
C775 C 0.75724 0.58182 0.81879 0.0
C776 C 0.7231 0.63504 0.76704 0.0
C777 C 0.73565 0.67177 0.77007 0.0
C778 C 0.7064 0.61429 0.78134 0.0
C779 C 0.70276 0.63071 0.79901 0.0
C780 C 0.71407 0.66851 0.80173 0.0
C781 C 0.73015 0.68843 0.78721 0.0
C782 C 0.69414 0.5747 0.77739 0.0
C783 C 0.71048 0.68806 0.82011 0.0
H784 H 0.62683 0.63057 0.84829 0.0
H785 H 0.74127 0.5928 0.8542 0.0
H786 H 0.62306 0.65742 0.80888 0.0
H787 H 0.62369 0.61245 0.7977 0.0
H788 H 0.59537 0.61979 0.81818 0.0
H789 H 0.77351 0.56444 0.82873 0.0
H790 H 0.75306 0.56561 0.80593 0.0
H791 H 0.77416 0.60701 0.81536 0.0
H792 H 0.72736 0.62211 0.75369 0.0
H793 H 0.73902 0.71716 0.78933 0.0
H794 H 0.67463 0.56351 0.78798 0.0
H795 H 0.71936 0.55631 0.77674 0.0
H796 H 0.68016 0.5733 0.76371 0.0
H797 H 0.68056 0.68875 0.82438 0.0
H798 H 0.72076 0.71742 0.8197 0.0
H799 H 0.72696 0.67282 0.83073 0.0
C800 C 0.85002 0.34294 0.27482 0.0
C801 C 0.84053 0.35886 0.25784 0.0
C802 C 0.85627 0.36559 0.29021 0.0
C803 C 0.85354 0.40522 0.28839 0.0
C804 C 0.85005 0.42131 0.27063 0.0
C805 C 0.843 0.39786 0.25552 0.0
C806 C 0.86072 0.34662 0.30877 0.0
C807 C 0.8503 0.46311 0.2676 0.0
C808 C 0.79689 0.42569 0.32922 0.0
C809 C 0.82562 0.42151 0.3424 0.0
C810 C 0.80574 0.42828 0.31047 0.0
C811 C 0.84406 0.42722 0.30513 0.0
C812 C 0.87213 0.43388 0.3185 0.0
C813 C 0.86262 0.43067 0.33723 0.0
C814 C 0.77436 0.42496 0.29649 0.0
C815 C 0.91281 0.43815 0.3131 0.0
H816 H 0.84846 0.3128 0.27656 0.0
H817 H 0.83674 0.41021 0.24219 0.0
H818 H 0.88548 0.35787 0.31617 0.0
H819 H 0.83542 0.35196 0.31735 0.0
H820 H 0.8644 0.31579 0.30751 0.0
H821 H 0.82133 0.47298 0.26451 0.0
H822 H 0.86123 0.47862 0.2797 0.0
H823 H 0.86786 0.46998 0.25538 0.0
H824 H 0.76783 0.4208 0.33301 0.0
H825 H 0.88484 0.43018 0.34747 0.0
H826 H 0.77561 0.39714 0.28969 0.0
H827 H 0.77746 0.4467 0.28567 0.0
H828 H 0.74614 0.42814 0.30288 0.0
H829 H 0.9268 0.4103 0.31322 0.0
H830 H 0.92781 0.45631 0.3231 0.0
H831 H 0.9155 0.45025 0.29904 0.0
C832 C 0.14636 0.08416 0.06875 0.0
C833 C 0.13769 0.08833 0.08743 0.0
C834 C 0.14285 0.11459 0.05674 0.0
C835 C 0.13594 0.15091 0.0641 0.0
C836 C 0.13876 0.15616 0.0834 0.0
C837 C 0.13811 0.12452 0.095 0.0
C838 C 0.14019 0.1062 1.03637 0.0
C839 C 0.13833 0.19457 0.09199 0.0
C840 C 0.11195 0.19452 1.01996 0.0
C841 C 0.07427 0.18251 1.01957 0.0
C842 C 0.1325 0.1932 1.03653 0.0
C843 C 0.11496 0.17827 0.05239 0.0
C844 C 0.07505 0.17685 0.05292 0.0
C845 C 0.05495 0.18034 1.03639 0.0
C846 C 0.17396 0.20202 1.03626 0.0
C847 C 0.05393 0.16501 0.07002 0.0
H848 H 0.14942 0.05617 0.06312 0.0
H849 H 0.13401 0.12839 0.10964 0.0
H850 H 0.11152 0.11286 1.03127 0.0
H851 H 0.16057 0.12333 1.02856 0.0
H852 H 0.1458 0.07626 1.03327 0.0
H853 H 0.16376 0.19778 0.10074 0.0
H854 H 0.13799 0.21741 0.08158 0.0
H855 H 0.11365 0.19748 0.10127 0.0
H856 H 0.12677 0.20036 1.00729 0.0
H857 H 0.02491 0.17515 1.03636 0.0
H858 H 0.18636 0.20196 0.05032 0.0
H859 H 0.17833 0.22998 1.02988 0.0
H860 H 0.18925 0.18143 1.02757 0.0
H861 H 0.06118 0.13558 0.0736 0.0
H862 H 1.02294 0.1669 0.06819 0.0
H863 H 0.06188 0.18308 0.08177 0.0
C864 C 0.56019 0.82313 0.51538 0.0
C865 C 0.57303 0.83356 0.49778 0.0
C866 C 0.57785 0.838 0.53104 0.0
C867 C 0.61066 0.85982 0.52862 0.0
C868 C 0.63069 0.85639 0.51193 0.0
C869 C 0.61129 0.84363 0.49629 0.0
C870 C 0.55791 0.83618 0.54936 0.0
C871 C 0.66925 0.87319 0.50978 0.0
C872 C 0.59315 0.96026 0.54261 0.0
C873 C 0.60363 0.95982 0.56113 0.0
C874 C 0.59716 0.92846 0.53164 0.0
C875 C 0.61384 0.89544 0.53918 0.0
C876 C 0.62852 0.89632 0.55734 0.0
C877 C 0.62266 0.92838 0.56824 0.0
C878 C 0.58029 0.92986 0.51252 0.0
C879 C 0.64923 0.86352 0.56576 0.0
H880 H 0.53282 0.81015 0.51684 0.0
H881 H 0.62422 0.84785 0.48295 0.0
H882 H 0.57808 0.82831 0.56038 0.0
H883 H 0.5461 0.86418 0.55277 0.0
H884 H 0.53458 0.81554 0.54927 0.0
H885 H 0.68572 0.85777 0.49919 0.0
H886 H 0.66661 0.90277 0.50518 0.0
H887 H 0.68477 0.8727 0.52308 0.0
H888 H 0.57976 0.9851 0.53694 0.0
H889 H 0.63133 0.928 0.58256 0.0
H890 H 0.55772 0.90873 0.51152 0.0
H891 H 0.6019 0.92368 0.50195 0.0
H892 H 0.56774 0.95761 0.50915 0.0
H893 H 0.63318 0.85283 0.5778 0.0
H894 H 0.67689 0.87309 0.57106 0.0
H895 H 0.65414 0.84025 0.55592 0.0
C896 C 0.2155 0.08759 0.9422 0.0
C897 C 0.18378 0.11021 0.93884 0.0
C898 C 0.23646 0.09121 0.95874 0.0
C899 C 0.22487 0.11736 0.97241 0.0
C900 C 0.19415 0.14143 0.96853 0.0
C901 C 0.17454 0.13796 0.95183 0.0
C902 C 0.26976 0.06572 0.96193 0.0
C903 C 0.17997 0.1691 0.98263 0.0
C904 C 0.23954 0.10178 1.02408 0.0
C905 C 0.26608 0.12946 1.02854 0.0
C906 C 0.22772 0.09595 1.00572 0.0
C907 C 0.24251 0.11839 0.9913 0.0
C908 C 0.27051 0.1452 0.99557 0.0
C909 C 0.28176 0.15053 1.01404 0.0
C910 C 0.19822 0.06666 1.00187 0.0
C911 C 0.28773 0.16922 0.98067 0.0
H912 H 0.22286 0.06588 0.9324 0.0
H913 H 0.15029 0.15585 0.94943 0.0
H914 H 0.29311 0.08105 0.96869 0.0
H915 H 0.26141 0.04245 0.97121 0.0
H916 H 0.28021 0.05339 0.94883 0.0
H917 H 0.1581 0.18814 0.9769 0.0
H918 H 0.16775 0.15342 0.99441 0.0
H919 H 0.20331 0.18639 0.98807 0.0
H920 H 0.22776 0.08466 1.03499 0.0
H921 H 0.3022 0.17207 1.01717 0.0
H922 H 0.20627 0.04932 0.98983 0.0
H923 H 0.17117 0.08072 0.99844 0.0
H924 H 0.19375 0.04778 1.01386 0.0
H925 H 0.29622 0.15167 0.96875 0.0
H926 H 0.3127 0.18483 0.98569 0.0
H927 H 0.26659 0.18979 0.97564 0.0
C928 C 0.66311 0.51674 0.26916 0.0
C929 C 0.6632 0.49166 0.28417 0.0
C930 C 0.6701 0.50449 0.25097 0.0
C931 C 0.67722 0.46604 0.24744 0.0
C932 C 0.6771 0.44051 0.2625 0.0
C933 C 0.6703 0.45358 0.28057 0.0
C934 C 0.6706 0.53289 0.23553 0.0
C935 C 0.68455 0.39929 0.25956 0.0
C936 C 0.66763 0.42366 0.19891 0.0
C937 C 0.7054 0.41928 0.19372 0.0
C938 C 0.65788 0.44018 0.21601 0.0
C939 C 0.68653 0.45265 0.22823 0.0
C940 C 0.72458 0.45017 0.22248 0.0
C941 C 0.73344 0.43347 0.20544 0.0
C942 C 0.617 0.44185 0.22156 0.0
C943 C 0.75624 0.46315 0.23479 0.0
H944 H 0.65836 0.5463 0.27167 0.0
H945 H 0.67016 0.43375 0.29191 0.0
H946 H 0.69899 0.53364 0.22917 0.0
H947 H 0.65044 0.52468 0.22458 0.0
H948 H 0.66328 0.56154 0.24035 0.0
H949 H 0.68072 0.38264 0.27238 0.0
H950 H 0.66551 0.38813 0.24877 0.0
H951 H 0.71381 0.3952 0.25465 0.0
H952 H 0.64589 0.41163 0.19029 0.0
H953 H 0.76276 0.42934 0.20174 0.0
H954 H 0.60959 0.47032 0.22653 0.0
H955 H 0.61203 0.42207 0.23313 0.0
H956 H 0.59794 0.4344 0.21001 0.0
H957 H 0.75119 0.49244 0.23929 0.0
H958 H 0.78406 0.46163 0.22784 0.0
H959 H 0.75739 0.4455 0.24739 0.0
C960 C 0.26319 0.90508 0.51502 0.0
C961 C 0.28775 0.9144 0.52951 0.0
C962 C 0.27398 0.909 0.49638 0.0
C963 C 0.31036 0.92246 0.49194 0.0
C964 C 0.33509 0.93246 0.50647 0.0
C965 C 0.32351 0.92842 0.52499 0.0
C966 C 0.2466 0.89814 0.48143 0.0
C967 C 0.37426 0.94663 0.50248 0.0
C968 C 0.35861 0.89488 0.44691 0.0
C969 C 0.35639 0.92797 0.43645 0.0
C970 C 0.3424 0.89229 0.46456 0.0
C971 C 0.32361 0.92371 0.47222 0.0
C972 C 0.31962 0.95669 0.46135 0.0
C973 C 0.3359 0.95838 0.44358 0.0
C974 C 0.34738 0.85649 0.47545 0.0
C975 C 0.30013 0.99102 0.46891 0.0
H976 H 0.23526 0.89486 0.51823 0.0
H977 H 0.34293 0.93542 0.53596 0.0
H978 H 0.24259 0.92182 0.47167 0.0
H979 H 0.25817 0.87427 0.47342 0.0
H980 H 0.21873 0.88995 0.48706 0.0
H981 H 0.38941 0.95505 0.5152 0.0
H982 H 0.39087 0.92445 0.49547 0.0
H983 H 0.37293 0.97104 0.493 0.0
H984 H 0.37476 0.87141 0.4416 0.0
H985 H 0.33478 0.98437 0.43583 0.0
H986 H 0.31991 0.84685 0.48093 0.0
H987 H 0.36606 0.86169 0.48743 0.0
H988 H 0.35989 0.83364 0.46703 0.0
H989 H 0.27237 0.98344 0.47481 0.0
H990 H 0.29597 1.01297 0.4582 0.0
H991 H 0.31727 1.00303 0.48022 0.0
C992 C 0.88486 0.62111 0.70309 0.0
C993 C 0.85221 0.61833 0.69225 0.0
C994 C 0.88763 0.6038 0.7205 0.0
C995 C 0.85695 0.58291 0.72753 0.0
C996 C 0.82432 0.57871 0.71636 0.0
C997 C 0.82233 0.59642 0.69887 0.0
C998 C 0.92293 0.60942 0.73175 0.0
C999 C 0.79079 0.55696 0.72324 0.0
C1000 C 0.88141 0.51772 0.76792 0.0
C1001 C 0.87082 0.53905 0.78341 0.0
C1002 C 0.8756 0.53088 0.74976 0.0
C1003 C 0.85913 0.56661 0.74674 0.0
C1004 C 0.8477 0.588 0.76226 0.0
C1005 C 0.85359 0.57405 0.78029 0.0
C1006 C 0.88796 0.5068 0.73377 0.0
C1007 C 0.83007 0.6262 0.75987 0.0
H1008 H 0.90791 0.63835 0.69823 0.0
H1009 H 0.79658 0.5949 0.69089 0.0
H1010 H 0.916 0.62505 0.74453 0.0
H1011 H 0.93486 0.58194 0.73597 0.0
H1012 H 0.94483 0.6252 0.72408 0.0
H1013 H 0.76911 0.5532 0.71236 0.0
H1014 H 0.79977 0.52899 0.72834 0.0
H1015 H 0.77771 0.572 0.73499 0.0
H1016 H 0.89515 0.49088 0.76993 0.0
H1017 H 0.84453 0.59065 0.79198 0.0
H1018 H 0.91156 0.52056 0.72641 0.0
H1019 H 0.86456 0.50367 0.72376 0.0
H1020 H 0.89733 0.47848 0.73826 0.0
H1021 H 0.85139 0.64603 0.75445 0.0
H1022 H 0.81887 0.63743 0.77305 0.0
H1023 H 0.80684 0.6251 0.74967 0.0
C1024 C 0.87728 0.90831 0.12705 0.0
C1025 C 0.87472 0.94333 0.13575 0.0
C1026 C 0.85776 0.90079 0.1105 0.0
C1027 C 0.83554 0.92922 0.10209 0.0
C1028 C 0.83114 0.96394 0.11142 0.0
C1029 C 0.85083 0.97057 0.12805 0.0
C1030 C 0.8633 0.86328 0.10131 0.0
C1031 C 0.80795 0.99522 0.10314 0.0
C1032 C 0.82825 0.92875 0.04925 0.0
C1033 C 0.79221 0.91386 0.04609 0.0
C1034 C 0.84241 0.93392 0.06726 0.0
C1035 C 0.82024 0.924 0.0828 0.0
C1036 C 0.78387 0.90892 0.07976 0.0
C1037 C 0.77038 0.90404 0.06156 0.0
C1038 C 0.88138 0.94993 0.06966 0.0
C1039 C 0.7591 0.89801 0.09577 0.0
H1040 H 0.89671 0.88758 0.13253 0.0
H1041 H 0.84981 0.99818 0.13426 0.0
H1042 H 0.83589 0.85166 0.0968 0.0
H1043 H 0.88097 0.86684 0.08882 0.0
H1044 H 0.87728 0.84268 0.11058 0.0
H1045 H 0.80346 1.01859 0.11301 0.0
H1046 H 0.82255 1.00644 0.09079 0.0
H1047 H 0.78016 0.98464 0.09858 0.0
H1048 H 0.84581 0.93598 1.03757 0.0
H1049 H 0.74233 0.89302 0.05949 0.0
H1050 H 0.89945 0.92966 0.07722 0.0
H1051 H 0.87998 0.97588 0.07804 0.0
H1052 H 0.895 0.9566 0.05627 0.0
H1053 H 0.7736 0.87672 0.10442 0.0
H1054 H 0.73164 0.88648 0.09121 0.0
H1055 H 0.75376 0.92278 0.10463 0.0
C1056 C 0.39503 0.59884 0.87873 0.0
C1057 C 0.35868 0.60565 0.88551 0.0
C1058 C 0.40096 0.58 0.86187 0.0
C1059 C 0.36974 0.56995 0.85066 0.0
C1060 C 0.33288 0.57439 0.85821 0.0
C1061 C 0.32799 0.59174 0.87556 0.0
C1062 C 0.44098 0.57282 0.85585 0.0
C1063 C 0.29769 0.56286 0.84806 0.0
C1064 C 0.3905 0.57146 0.79846 0.0
C1065 C 0.38265 0.53454 0.7931 0.0
C1066 C 0.38753 0.58312 0.81699 0.0
C1067 C 0.37568 0.55736 0.83089 0.0
C1068 C 0.36942 0.51952 0.82564 0.0
C1069 C 0.37237 0.50883 0.80693 0.0
C1070 C 0.39839 0.62312 0.82113 0.0
C1071 C 0.35987 0.4898 0.83971 0.0
H1072 H 0.41899 0.60969 0.88626 0.0
H1073 H 0.29974 0.59728 0.88056 0.0
H1074 H 0.44309 0.54915 0.84599 0.0
H1075 H 0.4523 0.59842 0.84919 0.0
H1076 H 0.45913 0.56656 0.86795 0.0
H1077 H 0.27694 0.58623 0.84807 0.0
H1078 H 0.30275 0.55419 0.83364 0.0
H1079 H 0.28442 0.53916 0.85553 0.0
H1080 H 0.39874 0.59172 0.78807 0.0
H1081 H 0.36725 0.4799 0.80322 0.0
H1082 H 0.42937 0.62589 0.81975 0.0
H1083 H 0.39021 0.63263 0.83508 0.0
H1084 H 0.38567 0.64237 0.81078 0.0
H1085 H 0.37302 0.49564 0.85328 0.0
H1086 H 0.36916 0.46161 0.83503 0.0
H1087 H 0.32891 0.48885 0.84157 0.0
C1088 C 0.71411 0.11136 0.54773 0.0
C1089 C 0.75208 0.11981 0.54427 0.0
C1090 C 0.70048 0.10625 0.56587 0.0
C1091 C 0.72518 0.10979 0.58116 0.0
C1092 C 0.76355 0.11815 0.57777 0.0
C1093 C 0.77647 0.12294 0.55949 0.0
C1094 C 0.65952 0.09684 0.56865 0.0
C1095 C 0.79091 0.12281 0.59351 0.0
C1096 C 0.67808 0.13546 0.62695 0.0
C1097 C 0.67616 0.10088 0.63617 0.0
C1098 C 0.69529 0.13893 0.60952 0.0
C1099 C 0.71037 0.10682 0.60065 0.0
C1100 C 0.70962 0.07193 0.61017 0.0
C1101 C 0.69287 0.06945 0.62785 0.0
C1102 C 0.69563 0.1768 0.6002 0.0
C1103 C 0.72471 0.03679 0.60127 0.0
H1104 H 0.695 0.10826 0.53619 0.0
H1105 H 0.80573 0.12996 0.55715 0.0
H1106 H 0.65731 0.06943 0.57574 0.0
H1107 H 0.64589 0.11805 0.57764 0.0
H1108 H 0.64376 0.09536 0.55545 0.0
H1109 H 0.82009 0.12793 0.58864 0.0
H1110 H 0.782 0.14672 0.60226 0.0
H1111 H 0.79089 0.0974 0.60235 0.0
H1112 H 0.66463 0.15973 0.63311 0.0
H1113 H 0.69054 0.04239 0.63457 0.0
H1114 H 0.6772 0.17618 0.58785 0.0
H1115 H 0.72447 0.18366 0.59543 0.0
H1116 H 0.68566 0.19951 0.60947 0.0
H1117 H 0.70801 0.03031 0.58876 0.0
H1118 H 0.72363 1.01224 0.61071 0.0
H1119 H 0.75424 0.04106 0.59681 0.0
C1120 C 0.14746 0.43238 0.37862 0.0
C1121 C 0.18366 0.42646 0.3858 0.0
C1122 C 0.14171 0.45222 0.36199 0.0
C1123 C 0.1731 0.46435 0.35141 0.0
C1124 C 0.20971 0.46056 0.35934 0.0
C1125 C 0.21434 0.44208 0.37645 0.0
C1126 C 0.10182 0.45834 0.35549 0.0
C1127 C 0.24493 0.47407 0.34981 0.0
C1128 C 0.1557 0.46755 0.29894 0.0
C1129 C 0.16223 0.50531 0.29462 0.0
C1130 C 0.15798 0.45403 0.31721 0.0
C1131 C 0.16769 0.47875 0.33189 0.0
C1132 C 0.17246 0.51737 0.32767 0.0
C1133 C 0.17028 0.52995 0.3092 0.0
C1134 C 0.1488 0.41317 0.32019 0.0
C1135 C 0.17974 0.54585 0.3426 0.0
H1136 H 0.12353 0.42016 0.38568 0.0
H1137 H 0.24251 0.43718 0.38173 0.0
H1138 H 0.09924 0.48351 0.34655 0.0
H1139 H 0.09246 0.4335 0.34757 0.0
H1140 H 0.0824 0.46157 0.36739 0.0
H1141 H 0.2664 0.45134 0.34962 0.0
H1142 H 0.24022 0.48388 0.33552 0.0
H1143 H 0.25712 0.49746 0.35789 0.0
H1144 H 0.14925 0.44809 0.28793 0.0
H1145 H 0.17441 0.55943 0.30624 0.0
H1146 H 0.11832 0.4089 0.31764 0.0
H1147 H 0.15543 0.40276 0.3342 0.0
H1148 H 0.16404 0.39568 0.30995 0.0
H1149 H 0.16513 0.53835 0.35561 0.0
H1150 H 0.17042 0.57432 0.3383 0.0
H1151 H 0.21039 0.54712 0.3454 0.0
C1152 C 0.74821 0.65308 0.52021 0.0
C1153 C 0.76005 0.62362 0.53179 0.0
C1154 C 0.73364 0.64629 0.50243 0.0
C1155 C 0.73157 0.60913 0.49561 0.0
C1156 C 0.74535 0.57943 0.50678 0.0
C1157 C 0.75918 0.58696 0.52466 0.0
C1158 C 0.71857 0.67887 0.49133 0.0
C1159 C 0.74413 0.53939 0.50016 0.0
C1160 C 0.65119 0.59094 0.46205 0.0
C1161 C 0.66879 0.59205 0.44469 0.0
C1162 C 0.67149 0.59508 0.4785 0.0
C1163 C 0.71078 0.60116 0.47791 0.0
C1164 C 0.72919 0.60112 0.46046 0.0
C1165 C 0.70801 0.59624 0.44403 0.0
C1166 C 0.6505 0.59369 0.49657 0.0
C1167 C 0.77106 0.60718 0.45916 0.0
H1168 H 0.74867 0.68154 0.52533 0.0
H1169 H 0.76904 0.56389 0.53313 0.0
H1170 H 0.72977 0.67804 0.47706 0.0
H1171 H 0.68746 0.67684 0.49042 0.0
H1172 H 0.72582 0.70632 0.49758 0.0
H1173 H 0.76059 0.52025 0.50921 0.0
H1174 H 0.71453 0.5296 0.49989 0.0
H1175 H 0.75521 0.5373 0.4859 0.0
H1176 H 0.62102 0.58691 0.46281 0.0
H1177 H 0.7219 0.59701 0.43074 0.0
H1178 H 0.6203 0.58681 0.49474 0.0
H1179 H 0.65269 0.62115 0.50359 0.0
H1180 H 0.66324 0.57229 0.50576 0.0
H1181 H 0.77801 0.63578 0.46404 0.0
H1182 H 0.78165 0.6039 0.44484 0.0
H1183 H 0.78612 0.58706 0.46825 0.0
C1184 C 0.15823 0.02453 0.76549 0.0
C1185 C 0.16925 1.00255 0.78071 0.0
C1186 C 0.16358 1.01209 0.74719 0.0
C1187 C 0.18032 0.97663 0.74381 0.0
C1188 C 0.19209 0.95458 0.75909 0.0
C1189 C 0.18648 0.96773 0.77723 0.0
C1190 C 0.15077 0.03671 0.73144 0.0
C1191 C 0.20988 0.91652 0.75629 0.0
C1192 C 0.15851 0.9203 0.70039 0.0
C1193 C 0.19187 0.9235 0.69014 0.0
C1194 C 0.1537 0.93901 0.71731 0.0
C1195 C 0.18322 0.96127 0.72449 0.0
C1196 C 0.21627 0.96628 0.71371 0.0
C1197 C 0.22013 0.94748 0.69664 0.0
C1198 C 0.11784 0.93291 0.72805 0.0
C1199 C 0.24861 0.98948 0.72074 0.0
H1200 H 0.14555 0.05177 0.76785 0.0
H1201 H 0.19483 0.95019 0.78875 0.0
H1202 H 0.17438 0.04146 0.7217 0.0
H1203 H 0.12808 0.02249 0.72365 0.0
H1204 H 0.14006 0.06431 0.73623 0.0
H1205 H 0.21932 0.90363 0.76946 0.0
H1206 H 0.18936 0.89746 0.74964 0.0
H1207 H 0.23445 0.91882 0.74692 0.0
H1208 H 0.13675 0.90144 0.69559 0.0
H1209 H 0.2464 0.94935 0.68909 0.0
H1210 H 0.10577 0.96013 0.73251 0.0
H1211 H 0.1241 0.91641 0.74068 0.0
H1212 H 0.09631 0.91767 0.7199 0.0
H1213 H 0.23834 1.01699 0.72583 0.0
H1214 H 0.27029 0.99429 0.70996 0.0
H1215 H 0.26213 0.97486 0.73254 0.0
C1216 C 0.82311 0.40862 1.02677 0.0
C1217 C 0.78507 0.41231 1.0317 0.0
C1218 C 0.8352 0.41306 1.00836 0.0
C1219 C 0.80868 0.42138 0.99421 0.0
C1220 C 0.77005 0.42402 0.99903 0.0
C1221 C 0.75887 0.41995 1.01762 0.0
C1222 C 0.87656 0.40809 1.00428 0.0
C1223 C 0.74011 0.43078 0.98464 0.0
C1224 C 0.84296 0.46774 0.94937 0.0
C1225 C 0.85747 0.43692 0.93972 0.0
C1226 C 0.82551 0.46324 0.96674 0.0
C1227 C 0.82154 0.42675 0.97452 0.0
C1228 C 0.83279 0.39537 0.9638 0.0
C1229 C 0.85152 0.40091 0.94689 0.0
C1230 C 0.81232 0.49808 0.97662 0.0
C1231 C 0.82658 0.35564 0.97026 0.0
H1232 H 0.84381 0.40289 1.03739 0.0
H1233 H 0.72925 0.42208 1.02104 0.0
H1234 H 0.88205 0.37834 1.0008 0.0
H1235 H 0.8859 0.42558 0.99251 0.0
H1236 H 0.89401 0.41473 1.01654 0.0
H1237 H 0.71234 0.41996 0.98921 0.0
H1238 H 0.73707 0.46136 0.98231 0.0
H1239 H 0.74748 0.41739 0.97131 0.0
H1240 H 0.84778 0.49573 0.94403 0.0
H1241 H 0.86283 0.37691 0.93956 0.0
H1242 H 0.81092 0.49439 0.99177 0.0
H1243 H 0.78376 0.5055 0.97159 0.0
H1244 H 0.83084 0.52226 0.97345 0.0
H1245 H 0.85282 0.3448 0.97664 0.0
H1246 H 0.82004 0.33718 0.95837 0.0
H1247 H 0.80335 0.35346 0.98042 0.0
C1248 C 0.38388 0.13113 0.20081 0.0
C1249 C 0.35136 0.12702 0.19001 0.0
C1250 C 0.38858 0.11149 0.2175 0.0
C1251 C 0.35983 0.08723 0.22384 0.0
C1252 C 0.32779 0.08132 0.21247 0.0
C1253 C 0.32398 0.1012 0.19567 0.0
C1254 C 0.42335 0.11865 0.22892 0.0
C1255 C 0.29636 0.05588 0.21861 0.0
C1256 C 0.38596 0.02256 0.26418 0.0
C1257 C 0.37285 0.04283 0.27953 0.0
C1258 C 0.3809 0.03594 0.24601 0.0
C1259 C 0.36234 0.07064 0.24292 0.0
C1260 C 0.34844 0.09091 0.25832 0.0
C1261 C 0.35379 0.07682 0.27632 0.0
C1262 C 0.39596 1.0132 0.2301 0.0
C1263 C 0.32869 0.1281 0.2558 0.0
H1264 H 0.40496 0.15134 0.19663 0.0
H1265 H 0.29834 0.09857 0.18767 0.0
H1266 H 0.4154 0.13374 0.24171 0.0
H1267 H 0.43664 0.09177 0.23311 0.0
H1268 H 0.44449 0.13568 0.22139 0.0
H1269 H 0.27582 0.05055 0.20737 0.0
H1270 H 0.30781 0.02869 0.22354 0.0
H1271 H 0.28115 0.06898 0.23032 0.0
H1272 H 0.4001 0.99595 0.26634 0.0
H1273 H 0.34378 0.093 0.28797 0.0
H1274 H 0.41838 0.02913 0.22291 0.0
H1275 H 0.37328 1.00802 0.21991 0.0
H1276 H 0.40777 0.98583 0.23464 0.0
H1277 H 0.34848 0.14875 0.24976 0.0
H1278 H 0.31776 0.1395 0.26901 0.0
H1279 H 0.30486 0.12514 0.24604 0.0
C1280 C 0.37495 0.40593 0.62364 0.0
C1281 C 0.3702 0.44085 0.63221 0.0
C1282 C 0.35609 0.39707 0.60708 0.0
C1283 C 0.33217 0.42399 0.59858 0.0
C1284 C 0.32563 0.45852 0.60778 0.0
C1285 C 0.34485 0.46658 0.62438 0.0
C1286 C 0.36402 0.35988 0.59798 0.0
C1287 C 0.30049 0.48817 0.59942 0.0
C1288 C 0.32417 0.42217 0.54579 0.0
C1289 C 0.28916 0.4049 0.54285 0.0
C1290 C 0.33825 0.42854 0.56372 0.0
C1291 C 0.31701 0.41746 0.57938 0.0
C1292 C 0.28167 0.40001 0.57656 0.0
C1293 C 0.26826 0.39395 0.55845 0.0
C1294 C 0.37611 0.44708 0.5659 0.0
C1295 C 0.2579 0.38783 0.59272 0.0
H1296 H 0.39551 0.38646 0.62924 0.0
H1297 H 0.34212 0.49415 0.63051 0.0
H1298 H 0.33739 0.34638 0.59363 0.0
H1299 H 0.38118 0.36446 0.5854 0.0
H1300 H 0.37952 0.34039 0.60725 0.0
H1301 H 0.29462 0.51139 0.6092 0.0
H1302 H 0.31425 0.50005 0.58699 0.0
H1303 H 0.27338 0.4758 0.59496 0.0
H1304 H 0.341 0.43035 0.534 0.0
H1305 H 0.24095 0.38113 0.55654 0.0
H1306 H 0.39555 0.42819 0.57352 0.0
H1307 H 0.37313 0.47309 0.57414 0.0
H1308 H 0.38911 0.4543 0.55243 0.0
H1309 H 0.27386 0.36764 0.60139 0.0
H1310 H 0.23118 0.37449 0.58831 0.0
H1311 H 0.25113 0.41237 0.60149 0.0
C1312 C 0.87364 1.02191 0.30863 0.0
C1313 C 0.88359 0.0461 0.29408 0.0
C1314 C 0.86607 0.03553 0.32654 0.0
C1315 C 0.86818 0.0745 0.33019 0.0
C1316 C 0.87918 0.09896 0.31571 0.0
C1317 C 0.88683 0.08455 0.29795 0.0
C1318 C 0.85482 1.00823 0.34145 0.0
C1319 C 0.88161 0.1407 0.31879 0.0
C1320 C 0.80615 0.11874 0.36735 0.0
C1321 C 0.83183 0.12682 0.38153 0.0
C1322 C 0.81737 0.10057 0.35104 0.0
C1323 C 0.85553 0.09011 0.34854 0.0
C1324 C 0.88135 0.0964 0.36321 0.0
C1325 C 0.86921 0.11464 0.37954 0.0
C1326 C 0.78854 0.09431 0.33606 0.0
C1327 C 0.92222 0.08561 0.36128 0.0
H1328 H 0.87169 0.99209 0.30603 0.0
H1329 H 0.89421 0.10368 0.28692 0.0
H1330 H 0.87246 1.01235 0.3539 0.0
H1331 H 0.82517 1.01345 0.34552 0.0
H1332 H 0.85751 0.97862 0.33691 0.0
H1333 H 0.89299 0.15574 0.30659 0.0
H1334 H 0.85319 0.15205 0.3219 0.0
H1335 H 0.89979 0.14673 0.33086 0.0
H1336 H 0.77721 0.1281 0.36872 0.0
H1337 H 0.88941 0.12131 0.39023 0.0
H1338 H 0.7887 0.06453 0.3317 0.0
H1339 H 0.79578 0.11147 0.32379 0.0
H1340 H 0.75961 0.10188 0.34055 0.0
H1341 H 0.92485 0.05626 0.3564 0.0
H1342 H 0.93782 0.0885 0.37447 0.0
H1343 H 0.93574 0.10381 0.35079 0.0
C1344 C 0.17657 0.63781 0.12379 0.0
C1345 C 0.18042 0.6048 0.13422 0.0
C1346 C 0.19523 0.64254 0.10682 0.0
C1347 C 0.21823 0.61335 0.09978 0.0
C1348 C 0.22397 0.58074 0.11075 0.0
C1349 C 0.2051 0.57689 0.12784 0.0
C1350 C 0.18828 0.67793 0.09587 0.0
C1351 C 0.24807 0.54879 0.10389 0.0
C1352 C 0.22496 0.60914 0.04703 0.0
C1353 C 0.25952 0.6268 0.04342 0.0
C1354 C 0.21183 0.60372 0.06522 0.0
C1355 C 0.23363 0.61612 0.08042 0.0
C1356 C 0.26884 0.63332 0.07692 0.0
C1357 C 0.28126 0.63847 0.05858 0.0
C1358 C 0.17405 0.58542 0.06814 0.0
C1359 C 0.29322 0.64679 0.09258 0.0
H1360 H 0.1572 0.65933 0.12849 0.0
H1361 H 0.20749 0.55087 0.13551 0.0
H1362 H 0.21534 0.69031 0.09133 0.0
H1363 H 0.1719 0.67118 0.08328 0.0
H1364 H 0.17245 0.69928 0.1039 0.0
H1365 H 0.25368 0.5277 0.11485 0.0
H1366 H 0.23357 0.53463 0.0923 0.0
H1367 H 0.27532 0.5594 0.09858 0.0
H1368 H 0.20759 0.60027 1.03557 0.0
H1369 H 0.30831 0.6515 0.05613 0.0
H1370 H 0.15442 0.60563 0.07472 0.0
H1371 H 0.17694 0.56113 0.07762 0.0
H1372 H 0.16131 0.57562 0.05503 0.0
H1373 H 0.27839 0.66931 0.10024 0.0
H1374 H 0.32068 0.65782 0.0877 0.0
H1375 H 0.29853 0.62357 0.10245 0.0
C1376 C 0.68852 0.96767 0.79767 0.0
C1377 C 0.65896 0.99304 0.79412 0.0
C1378 C 0.69473 0.95257 0.81545 0.0
C1379 C 0.67093 0.96288 0.83034 0.0
C1380 C 0.64131 0.98875 0.82695 0.0
C1381 C 0.63567 1.00336 0.80901 0.0
C1382 C 0.72667 0.92515 0.81826 0.0
C1383 C 0.61503 1.00053 0.84223 0.0
C1384 C 0.66508 0.8913 0.86962 0.0
C1385 C 0.69031 0.90557 0.88278 0.0
C1386 C 0.65744 0.91036 0.85299 0.0
C1387 C 0.67569 0.94472 0.84907 0.0
C1388 C 0.69986 0.96027 0.86268 0.0
C1389 C 0.70678 0.94063 0.87937 0.0
C1390 C 0.63116 0.89263 0.8392 0.0
C1391 C 0.71995 0.99676 0.85921 0.0
H1392 H 0.70724 0.9598 0.78653 0.0
H1393 H 0.61241 0.02246 0.80661 0.0
H1394 H 0.74554 0.93515 0.82939 0.0
H1395 H 0.71535 0.89761 0.82268 0.0
H1396 H 0.74359 0.92101 0.80555 0.0
H1397 H 0.59474 0.02246 0.83771 0.0
H1398 H 0.59898 0.9759 0.84722 0.0
H1399 H 0.63138 1.0114 0.8541 0.0
H1400 H 0.65221 0.86422 0.87205 0.0
H1401 H 0.72681 0.95164 0.88922 0.0
H1402 H 0.6472 0.88429 0.82673 0.0
H1403 H 0.60934 0.91307 0.83477 0.0
H1404 H 0.61694 0.86742 0.84485 0.0
H1405 H 0.74082 0.99293 0.84798 0.0
H1406 H 0.73489 1.00697 0.87167 0.0
H1407 H 0.69971 1.0186 0.8546 0.0
C1408 C 0.45412 0.22235 0.14151 0.0
C1409 C 0.42573 0.24831 0.146 0.0
C1410 C 0.49266 0.23189 0.14257 0.0
C1411 C 0.50346 0.26834 0.14828 0.0
C1412 C 0.4749 0.2948 0.15258 0.0
C1413 C 0.43663 0.28454 0.1514 0.0
C1414 C 0.5219 0.20269 0.13783 0.0
C1415 C 0.48477 0.33396 0.15871 0.0
C1416 C 0.60225 0.28363 0.1684 0.0
C1417 C 0.62193 0.29936 0.15346 0.0
C1418 C 0.56401 0.27329 0.16688 0.0
C1419 C 0.5445 0.2787 0.15 0.0
C1420 C 0.56419 0.29449 0.13486 0.0
C1421 C 0.60242 0.30456 0.13675 0.0
C1422 C 0.5444 0.25665 0.18342 0.0
C1423 C 0.54477 0.3009 0.11661 0.0
H1424 H 0.44626 0.19426 0.1374 0.0
H1425 H 0.41518 0.30493 0.15498 0.0
H1426 H 0.54059 0.2133 0.12674 0.0
H1427 H 0.53985 0.19694 0.15003 0.0
H1428 H 0.50911 0.17594 0.13321 0.0
H1429 H 0.45941 0.35152 0.16123 0.0
H1430 H 0.50159 0.3327 0.17159 0.0
H1431 H 0.50239 0.34787 0.14811 0.0
H1432 H 0.61671 0.27939 0.1814 0.0
H1433 H 0.61701 0.31665 0.12506 0.0
H1434 H 0.53316 0.22857 0.17994 0.0
H1435 H 0.5201 0.27451 0.18738 0.0
H1436 H 0.56343 0.25382 0.1955 0.0
H1437 H 0.53353 0.27404 0.11129 0.0
H1438 H 0.56392 0.31305 0.10609 0.0
H1439 H 0.52048 0.32015 0.11847 0.0
C1440 C 0.51397 0.68295 0.40652 0.0
C1441 C 0.54446 0.66877 0.3963 0.0
C1442 C 0.50296 0.72084 0.40527 0.0
C1443 C 0.5224 0.74547 0.39325 0.0
C1444 C 0.55259 0.73115 0.38252 0.0
C1445 C 0.56345 0.69316 0.38428 0.0
C1446 C 0.47107 0.73476 0.41722 0.0
C1447 C 0.57384 0.75615 0.36938 0.0
C1448 C 0.4718 0.83766 0.38148 0.0
C1449 C 0.48879 0.86297 0.39371 0.0
C1450 C 0.48329 0.79973 0.3807 0.0
C1451 C 0.51208 0.78642 0.39264 0.0
C1452 C 0.52975 0.81203 0.40476 0.0
C1453 C 0.51816 0.84981 0.40503 0.0
C1454 C 0.46401 0.77366 0.36738 0.0
C1455 C 0.56005 0.79929 0.41799 0.0
H1456 H 0.49917 0.66462 0.41597 0.0
H1457 H 0.58697 0.68262 0.3763 0.0
H1458 H 0.48152 0.75675 0.42672 0.0
H1459 H 0.44883 0.74772 0.40855 0.0
H1460 H 0.45826 0.71199 0.42557 0.0
H1461 H 0.59499 0.74039 0.36116 0.0
H1462 H 0.55395 0.77026 0.3598 0.0
H1463 H 0.58854 0.77841 0.3772 0.0
H1464 H 0.44916 0.84736 0.37265 0.0
H1465 H 0.5315 0.86886 0.4146 0.0
H1466 H 0.448 0.75215 0.37513 0.0
H1467 H 0.48523 0.75869 0.35889 0.0
H1468 H 0.44428 0.78875 0.35805 0.0
H1469 H 0.54793 0.77936 0.42812 0.0
H1470 H 0.57276 0.82303 0.42564 0.0
H1471 H 0.58269 0.78424 0.41048 0.0
C1472 C 0.94423 0.77056 0.66117 0.0
C1473 C 0.92706 0.74577 0.6487 0.0
C1474 C 0.98239 0.78066 0.6595 0.0
C1475 C 1.00432 0.7662 0.64481 0.0
C1476 C 0.98705 0.7418 0.63191 0.0
C1477 C 0.94884 0.73167 0.63408 0.0
C1478 C 0.99946 0.80629 0.67375 0.0
C1479 C 1.00906 0.72612 0.61588 0.0
C1480 C 0.09552 0.81944 0.63431 0.0
C1481 C 0.12277 0.7975 0.64336 0.0
C1482 C 0.05722 0.80893 0.63407 0.0
C1483 C 0.04548 0.77593 0.64337 0.0
C1484 C 0.07301 0.75337 0.65226 0.0
C1485 C 0.11115 0.76421 0.65203 0.0
C1486 C 0.02914 0.83362 0.62418 0.0
C1487 C 0.06201 0.71832 0.66261 0.0
H1488 H 0.92804 0.78159 0.67261 0.0
H1489 H 0.93606 0.7126 0.62432 0.0
H1490 H 1.02304 0.79177 0.68085 0.0
H1491 H 1.01125 0.83156 0.66698 0.0
H1492 H 0.97866 0.81541 0.68428 0.0
H1493 H 0.99125 0.70906 0.60654 0.0
H1494 H 1.02181 0.74929 0.60781 0.0
H1495 H 0.03246 0.70833 0.62105 0.0
H1496 H 0.10406 0.84514 0.62753 0.0
H1497 H 0.13176 0.74707 0.65918 0.0
H1498 H 1.00944 0.84621 0.6343 0.0
H1499 H 1.0121 0.8167 0.61446 0.0
H1500 H 0.04296 0.85659 0.61637 0.0
H1501 H 0.04304 0.72576 0.6742 0.0
H1502 H 0.08679 0.70307 0.66825 0.0
H1503 H 0.04625 0.69916 0.65342 0.0
C1504 C 0.02474 0.35356 0.91057 0.0
C1505 C 0.99488 0.36772 0.89985 0.0
C1506 C 0.03623 0.31579 0.9094 0.0
C1507 C 1.01776 0.29113 0.89709 0.0
C1508 C 0.98828 0.3054 0.88585 0.0
C1509 C 0.97711 0.34334 0.88741 0.0
C1510 C 0.06758 0.30202 0.92177 0.0
C1511 C 0.96797 0.28034 0.87242 0.0
C1512 C 0.06928 0.19918 0.88592 0.0
C1513 C 0.05199 0.17368 0.89802 0.0
C1514 C 0.05773 0.23709 0.88504 0.0
C1515 C 0.02838 0.2502 0.89666 0.0
C1516 C 1.01039 0.22442 0.90864 0.0
C1517 C 1.02223 0.18667 0.90911 0.0
C1518 C 0.07754 0.26334 0.87195 0.0
C1519 C 0.97927 0.23695 0.92142 0.0
H1520 H 0.0388 0.37184 0.92027 0.0
H1521 H 0.95407 0.35375 0.87903 0.0
H1522 H 0.05676 0.28006 0.93121 0.0
H1523 H 0.09027 0.28908 0.9134 0.0
H1524 H 0.07993 0.32488 0.93018 0.0
H1525 H 0.94729 0.29604 0.86386 0.0
H1526 H 0.9885 0.26633 0.86317 0.0
H1527 H 0.95287 0.25801 0.88005 0.0
H1528 H 0.09223 0.18965 0.87726 0.0
H1529 H 1.00866 0.16751 0.9186 0.0
H1530 H 0.09285 0.28502 0.87988 0.0
H1531 H 0.0567 0.27811 0.86312 0.0
H1532 H 0.09797 0.24846 0.86294 0.0
H1533 H 0.9903 0.25796 0.93128 0.0
H1534 H 0.96708 0.21329 0.92938 0.0
H1535 H 0.95643 0.25072 0.91343 0.0
C1536 C 0.59824 0.81694 0.93779 0.0
C1537 C 0.62605 0.79594 0.92863 0.0
C1538 C 0.56008 0.80593 0.93765 0.0
C1539 C 0.54899 0.77339 0.92785 0.0
C1540 C 0.57699 0.752 0.91865 0.0
C1541 C 0.61502 0.76331 0.91927 0.0
C1542 C 0.53151 0.82941 0.94786 0.0
C1543 C 0.56668 0.71748 0.90779 0.0
C1544 C 0.45409 0.72626 0.93803 0.0
C1545 C 0.43094 0.74057 0.92393 0.0
C1546 C 0.49221 0.73705 0.93965 0.0
C1547 C 0.50807 0.76241 0.92672 0.0
C1548 C 0.4848 0.77702 0.91251 0.0
C1549 C 0.44671 0.76619 0.91137 0.0
C1550 C 0.51562 0.72111 0.95517 0.0
C1551 C 0.50032 0.80372 0.89827 0.0
H1552 H 0.60628 0.84213 0.9451 0.0
H1553 H 0.63605 0.74694 0.912 0.0
H1554 H 0.51084 0.84134 0.93799 0.0
H1555 H 0.51564 0.81166 0.95773 0.0
H1556 H 0.54475 0.85278 0.95557 0.0
H1557 H 0.59167 0.70369 0.90152 0.0
H1558 H 0.55227 0.69698 0.91684 0.0
H1559 H 0.54671 0.72513 0.89662 0.0
H1560 H 0.44243 0.70654 0.94785 0.0
H1561 H 0.42943 0.77736 0.90033 0.0
H1562 H 0.52792 0.74418 0.96342 0.0
H1563 H 0.53938 0.70455 0.94947 0.0
H1564 H 0.49896 0.70278 0.96447 0.0
H1565 H 0.51169 0.82905 0.9051 0.0
H1566 H 0.47871 0.81262 0.88807 0.0
H1567 H 0.52397 0.79022 0.89077 0.0
C1568 C 0.48112 0.34703 0.68878 0.0
C1569 C 0.48634 0.36601 0.67198 0.0
C1570 C 0.49198 0.30914 0.69094 0.0
C1571 C 0.50903 0.28972 0.67606 0.0
C1572 C 0.51466 0.30888 0.65914 0.0
C1573 C 0.50306 0.34649 0.65728 0.0
C1574 C 0.48489 0.28977 0.70912 0.0
C1575 C 0.53301 0.28961 0.64293 0.0
C1576 C 0.56786 0.2008 0.68392 0.0
C1577 C 0.54344 0.17265 0.67771 0.0
C1578 C 0.55678 0.23886 0.68393 0.0
C1579 C 0.52018 0.24915 0.67786 0.0
C1580 C 0.4949 0.22062 0.67239 0.0
C1581 C 0.50688 0.18294 0.67225 0.0
C1582 C 0.58484 0.26825 0.6897 0.0
C1583 C 0.45546 0.22999 0.66609 0.0
H1584 H 0.4682 0.36167 0.70024 0.0
H1585 H 0.50756 0.36076 0.64427 0.0
H1586 H 0.4663 0.26524 0.70698 0.0
H1587 H 0.51177 0.27906 0.7149 0.0
H1588 H 0.47156 0.30868 0.71939 0.0
H1589 H 0.53656 0.30867 0.63093 0.0
H1590 H 0.56107 0.27858 0.64698 0.0
H1591 H 0.51575 0.26534 0.63857 0.0
H1592 H 0.59623 0.1933 0.68804 0.0
H1593 H 0.48763 0.16149 0.66754 0.0
H1594 H 0.57248 0.28671 0.70041 0.0
H1595 H 0.5919 0.28621 0.67769 0.0
H1596 H 0.61126 0.25571 0.69516 0.0
H1597 H 0.44111 0.24784 0.67645 0.0
H1598 H 0.43823 0.20451 0.66376 0.0
H1599 H 0.45663 0.24618 0.65303 0.0
C1600 C 0.10055 0.25825 0.4156 0.0
C1601 C 0.11223 0.29204 0.4237 0.0
C1602 C 0.06247 0.24728 0.41566 0.0
C1603 C 0.03493 0.27063 0.42395 0.0
C1604 C 0.04657 0.30445 0.43247 0.0
C1605 C 0.08495 0.31466 0.43229 0.0
C1606 C 0.05161 0.21089 0.40654 0.0
C1607 C 1.01832 0.3303 0.44143 0.0
C1608 C 0.9329 0.26068 0.4076 0.0
C1609 C 0.91659 0.23906 0.4217 0.0
C1610 C 0.97109 0.27132 0.40824 0.0
C1611 C 0.99396 0.26005 0.42331 0.0
C1612 C 0.97773 0.23818 0.43757 0.0
C1613 C 0.93941 0.22807 0.43663 0.0
C1614 C 0.98698 0.2947 0.39273 0.0
C1615 C 1.00094 0.2253 0.45384 0.0
H1616 H 0.12118 0.24039 0.40894 0.0
H1617 H 0.09341 0.34087 0.43854 0.0
H1618 H 0.0362 0.19283 0.41644 0.0
H1619 H 0.03237 0.2166 0.39481 0.0
H1620 H 0.07644 0.19515 0.40132 0.0
H1621 H 0.03186 0.35496 0.44795 0.0
H1622 H 0.99785 0.34041 0.43097 0.0
H1623 H 1.00215 0.31492 0.4521 0.0
H1624 H 0.91577 0.26955 0.39601 0.0
H1625 H 0.92737 0.21138 0.44763 0.0
H1626 H 1.01037 0.27937 0.38594 0.0
H1627 H 0.99877 0.32112 0.39829 0.0
H1628 H 0.96545 0.3018 0.38216 0.0
H1629 H 0.02494 0.20794 0.449 0.0
H1630 H 0.98423 0.20865 0.46385 0.0
H1631 H 1.01293 0.24988 0.46108 0.0
C1632 C 0.07792 0.70168 0.18475 0.0
C1633 C 0.05266 0.67226 0.18139 0.0
C1634 C 0.06601 0.73948 0.18438 0.0
C1635 C 0.02778 0.7484 0.18069 0.0
C1636 C 1.00195 0.71875 0.17784 0.0
C1637 C 1.01466 0.68124 0.17815 0.0
C1638 C 0.09467 0.76998 0.18739 0.0
C1639 C 0.96094 0.72667 0.17396 0.0
C1640 C 0.99132 0.84719 0.19213 0.0
C1641 C 0.99247 0.86508 0.17485 0.0
C1642 C 1.00241 0.80932 0.19425 0.0
C1643 C 1.01527 0.78863 0.17877 0.0
C1644 C 1.0163 0.8065 0.1613 0.0
C1645 C 1.00485 0.8442 0.15956 0.0
C1646 C 1.00049 0.79145 0.21309 0.0
C1647 C 0.02985 0.78583 0.14439 0.0
H1648 H 0.10734 0.69525 0.18719 0.0
H1649 H 0.99478 0.6589 0.17554 0.0
H1650 H 0.09735 0.78713 0.17468 0.0
H1651 H 0.08525 0.78899 0.19857 0.0
H1652 H 0.12285 0.75857 0.19102 0.0
H1653 H 0.94395 0.70064 0.17323 0.0
H1654 H 0.94901 0.74503 0.18483 0.0
H1655 H 0.95815 0.74184 0.16066 0.0
H1656 H 0.98182 0.86281 0.20406 0.0
H1657 H 1.00601 0.85743 0.14611 0.0
H1658 H 0.02895 0.78199 0.21739 0.0
H1659 H 0.98228 0.76626 0.21262 0.0
H1660 H 0.98929 0.81095 0.22369 0.0
H1661 H 0.05916 0.7759 0.14654 0.0
H1662 H 0.02904 0.80361 0.13181 0.0
H1663 H 1.01219 0.76072 0.14201 0.0
C1664 C 0.21524 0.30225 0.12644 0.0
C1665 C 0.25429 0.30394 0.12899 0.0
C1666 C 0.19287 0.33497 0.127 0.0
C1667 C 0.20992 0.37015 0.13052 0.0
C1668 C 0.24973 0.37222 0.13149 0.0
C1669 C 0.27136 0.33911 0.13075 0.0
C1670 C 0.15068 0.33126 0.12569 0.0
C1671 C 0.26933 0.40884 0.13533 0.0
C1672 C 0.15308 0.46185 0.12968 0.0
C1673 C 0.14464 0.46675 0.14846 0.0
C1674 C 0.17377 0.43039 0.1235 0.0
C1675 C 0.18639 0.40311 0.13637 0.0
C1676 C 0.17748 0.40776 0.15528 0.0
C1677 C 0.15682 0.43929 0.16105 0.0
C1678 C 0.18268 0.42666 0.10326 0.0
C1679 C 0.19024 0.37958 0.16958 0.0
H1680 H 0.20181 0.27505 0.12566 0.0
H1681 H 0.3014 0.34042 0.13335 0.0
H1682 H 0.1383 0.33331 0.1397 0.0
H1683 H 0.13849 0.35424 0.11724 0.0
H1684 H 0.14231 0.30395 0.11963 0.0
H1685 H 0.30016 0.40687 0.13294 0.0
H1686 H 0.25766 0.43158 0.12656 0.0
H1687 H 0.26457 0.41687 0.14992 0.0
H1688 H 0.14408 0.48292 0.11982 0.0
H1689 H 0.1505 0.44251 0.17558 0.0
H1690 H 0.17319 0.399 0.09811 0.0
H1691 H 0.21358 0.42801 0.10116 0.0
H1692 H 0.16918 0.44905 0.09486 0.0
H1693 H 0.17813 0.35169 0.16647 0.0
H1694 H 0.18183 0.38767 0.18378 0.0
H1695 H 0.2213 0.37662 0.16917 0.0
C1696 C 0.33363 0.3985 0.38533 0.0
C1697 C 0.32702 0.38565 0.40339 0.0
C1698 C 0.36603 0.41933 0.38092 0.0
C1699 C 0.39264 0.42762 0.39486 0.0
C1700 C 0.38656 0.41395 0.413 0.0
C1701 C 0.35394 0.39322 0.41703 0.0
C1702 C 0.37124 0.43333 0.36144 0.0
C1703 C 0.41407 0.42212 0.42834 0.0
C1704 C 0.49325 0.46075 0.38616 0.0
C1705 C 0.49026 0.49881 0.39063 0.0
C1706 C 0.46121 0.43746 0.38625 0.0
C1707 C 0.42553 0.45267 0.39101 0.0
C1708 C 0.4222 0.49172 0.39417 0.0
C1709 C 0.45461 0.51417 0.39408 0.0
C1710 C 0.46608 0.3961 0.38268 0.0
C1711 C 0.38489 0.50938 0.39916 0.0
H1712 H 0.31309 0.39292 0.37464 0.0
H1713 H 0.34929 0.38342 0.43099 0.0
H1714 H 0.36985 0.4644 0.36123 0.0
H1715 H 0.39942 0.42513 0.3562 0.0
H1716 H 0.34945 0.42232 0.35191 0.0
H1717 H 0.40628 0.40802 0.44145 0.0
H1718 H 0.44277 0.41285 0.42434 0.0
H1719 H 0.41526 0.45278 0.4308 0.0
H1720 H 0.52092 0.44864 0.38398 0.0
H1721 H 0.45241 0.54348 0.3979 0.0
H1722 H 0.44374 0.38575 0.37332 0.0
H1723 H 0.46348 0.38051 0.39587 0.0
H1724 H 0.494 0.38958 0.37655 0.0
H1725 H 0.36259 0.50024 0.38948 0.0
H1726 H 0.38617 0.54049 0.39902 0.0
H1727 H 0.3765 0.50012 0.41318 0.0
C1728 C 0.29193 0.71899 0.627 0.0
C1729 C 0.30483 0.75374 0.63327 0.0
C1730 C 0.31528 0.68691 0.62773 0.0
C1731 C 0.35219 0.68965 0.63513 0.0
C1732 C 0.36624 0.72543 0.63996 0.0
C1733 C 0.34237 0.75691 0.63902 0.0
C1734 C 0.2991 0.6495 0.6223 0.0
C1735 C 0.40518 0.73001 0.64795 0.0
C1736 C 0.38681 0.60658 0.66372 0.0
C1737 C 0.41289 0.58918 0.65193 0.0
C1738 C 0.36728 0.63919 0.6584 0.0
C1739 C 0.37348 0.65498 0.64071 0.0
C1740 C 0.40005 0.63785 0.62877 0.0
C1741 C 0.41961 0.60532 0.63456 0.0
C1742 C 0.3399 0.65676 0.67181 0.0
C1743 C 0.40729 0.65351 0.60977 0.0
H1744 H 0.26263 0.71617 0.62307 0.0
H1745 H 0.35212 0.78359 0.64433 0.0
H1746 H 0.31999 0.63284 0.6144 0.0
H1747 H 0.29196 0.63338 0.63491 0.0
H1748 H 0.27315 0.65272 0.61388 0.0
H1749 H 0.41404 0.75983 0.64817 0.0
H1750 H 0.40549 0.71919 0.6623 0.0
H1751 H 0.42613 0.71361 0.63997 0.0
H1752 H 0.38149 0.59461 0.67721 0.0
H1753 H 0.4394 0.59196 0.62526 0.0
H1754 H 0.31182 0.65975 0.6653 0.0
H1755 H 0.34957 0.68531 0.67551 0.0
H1756 H 0.33686 0.6401 0.68468 0.0
H1757 H 0.38095 0.65276 0.60156 0.0
H1758 H 0.42944 0.63759 0.60229 0.0
H1759 H 0.41599 0.68327 0.61073 0.0
C1760 C 0.04784 0.57041 0.88713 0.0
C1761 C 0.04925 0.53444 0.89494 0.0
C1762 C 0.08013 0.59352 0.88682 0.0
C1763 C 0.11466 0.58014 0.8943 0.0
C1764 C 0.11658 0.54286 0.901 0.0
C1765 C 0.08394 0.52074 0.90137 0.0
C1766 C 0.07667 0.63303 0.87959 0.0
C1767 C 0.15267 0.52696 0.90882 0.0
C1768 C 0.20919 0.62931 0.88684 0.0
C1769 C 0.21453 0.64746 0.90383 0.0
C1770 C 0.17637 0.60836 0.88324 0.0
C1771 C 0.14783 0.60572 0.89685 0.0
C1772 C 0.15252 0.62514 0.91374 0.0
C1773 C 0.18575 0.64549 0.91705 0.0
C1774 C 0.17293 0.58789 0.86514 0.0
C1775 C 0.12287 0.62348 0.92863 0.0
H1776 H 1.02104 0.58139 0.88239 0.0
H1777 H 0.08522 0.49295 0.90744 0.0
H1778 H 0.07826 0.65299 0.89127 0.0
H1779 H 0.10028 0.63956 0.87012 0.0
H1780 H 0.04966 0.63773 0.8722 0.0
H1781 H 0.15059 0.49643 0.91167 0.0
H1782 H 0.17637 0.53174 0.89916 0.0
H1783 H 0.15958 0.54147 0.9219 0.0
H1784 H 0.23117 0.63051 0.87649 0.0
H1785 H 0.18933 0.65957 0.93016 0.0
H1786 H 0.14555 0.59448 0.85851 0.0
H1787 H 0.17368 0.55721 0.86764 0.0
H1788 H 0.19598 0.59515 0.85542 0.0
H1789 H 0.09496 0.63125 0.92289 0.0
H1790 H 0.12929 0.64242 0.94035 0.0
H1791 H 0.12071 0.59441 0.93398 0.0
C1792 C 0.84276 0.74872 0.94794 0.0
C1793 C 0.80343 0.75168 0.94724 0.0
C1794 C 0.86103 0.71386 0.94613 0.0
C1795 C 0.83953 0.68113 0.94295 0.0
C1796 C 0.79964 0.68367 0.94333 0.0
C1797 C 0.78206 0.71888 0.94567 0.0
C1798 C 0.9035 0.71262 0.94618 0.0
C1799 C 0.77558 0.64973 0.93966 0.0
C1800 C 0.88675 0.6064 0.91302 0.0
C1801 C 0.89724 0.57912 0.92602 0.0
C1802 C 0.86753 0.63928 0.91832 0.0
C1803 C 0.85873 0.64545 0.93717 0.0
C1804 C 0.86923 0.61802 0.95038 0.0
C1805 C 0.88818 0.58528 0.94466 0.0
C1806 C 0.85751 0.66776 0.90367 0.0
C1807 C 0.86101 0.62352 0.97061 0.0
H1808 H 0.85938 0.77411 0.94871 0.0
H1809 H 0.75171 0.72118 0.9445 0.0
H1810 H 0.91384 0.68879 0.95465 0.0
H1811 H 0.91384 0.70836 0.93191 0.0
H1812 H 0.91585 0.73897 0.95158 0.0
H1813 H 0.74503 0.65603 0.94089 0.0
H1814 H 0.78123 0.63911 0.92555 0.0
H1815 H 0.78286 0.62689 0.94943 0.0
H1816 H 0.89354 0.60215 0.8986 0.0
H1817 H 0.89597 0.5645 0.9549 0.0
H1818 H 0.87816 0.69099 0.90409 0.0
H1819 H 0.82925 0.68003 0.90612 0.0
H1820 H 0.85809 0.65539 0.88963 0.0
H1821 H 0.87581 0.64883 0.97566 0.0
H1822 H 0.86997 0.59909 0.97909 0.0
H1823 H 0.83045 0.62826 0.97275 0.0
C1824 C 0.70424 0.64312 0.69039 0.0
C1825 C 0.70826 0.66019 0.67301 0.0
C1826 C 0.67105 0.62401 0.69528 0.0
C1827 C 0.64093 0.62182 0.68252 0.0
C1828 C 0.64367 0.6416 0.66558 0.0
C1829 C 0.67745 0.65997 0.66089 0.0
C1830 C 0.66844 0.60561 0.71398 0.0
C1831 C 0.61103 0.64285 0.6523 0.0
C1832 C 0.58444 0.53148 0.68136 0.0
C1833 C 0.54829 0.54312 0.68681 0.0
C1834 C 0.61462 0.55666 0.68027 0.0
C1835 C 0.60938 0.59453 0.68554 0.0
C1836 C 0.57373 0.60588 0.69255 0.0
C1837 C 0.54344 0.58021 0.69281 0.0
C1838 C 0.65191 0.54262 0.6729 0.0
C1839 C 0.5667 0.64529 0.69921 0.0
H1840 H 0.72755 0.64356 0.70003 0.0
H1841 H 0.67979 0.67396 0.64766 0.0
H1842 H 0.64154 0.61349 0.72076 0.0
H1843 H 0.6686 0.5747 0.71244 0.0
H1844 H 0.69218 0.61357 0.72312 0.0
H1845 H 0.61707 0.66036 0.63999 0.0
H1846 H 0.60365 0.6141 0.64785 0.0
H1847 H 0.58592 0.65469 0.65927 0.0
H1848 H 0.58891 0.50275 0.67704 0.0
H1849 H 0.5158 0.5896 0.69716 0.0
H1850 H 0.67244 0.5404 0.68436 0.0
H1851 H 0.66367 0.5624 0.6626 0.0
H1852 H 0.64943 0.51461 0.66636 0.0
H1853 H 0.59302 0.65968 0.70332 0.0
H1854 H 0.54709 0.64517 0.71114 0.0
H1855 H 0.55305 0.66172 0.68804 0.0
C1856 C 0.76043 0.3322 0.43846 0.0
C1857 C 0.74725 0.2965 0.44346 0.0
C1858 C 0.73595 0.36299 0.4367 0.0
C1859 C 0.69705 0.3585 0.4403 0.0
C1860 C 0.68378 0.32308 0.4464 0.0
C1861 C 0.70898 0.29243 0.44783 0.0
C1862 C 0.75152 0.39984 0.42986 0.0
C1863 C 0.64266 0.31706 0.45058 0.0
C1864 C 0.64225 0.45062 0.44457 0.0
C1865 C 0.62889 0.45577 0.4265 0.0
C1866 C 0.66293 0.41829 0.44955 0.0
C1867 C 0.67043 0.39026 0.43619 0.0
C1868 C 0.65556 0.3946 0.41817 0.0
C1869 C 0.63507 0.42714 0.41357 0.0
C1870 C 0.67811 0.41489 0.46891 0.0
C1871 C 0.66225 0.3653 0.40353 0.0
H1872 H 0.78992 0.33581 0.43508 0.0
H1873 H 0.69841 0.26502 0.45162 0.0
H1874 H 0.74008 0.40596 0.41592 0.0
H1875 H 0.74269 0.42304 0.43906 0.0
H1876 H 0.78274 0.39958 0.42899 0.0
H1877 H 0.63768 0.28993 0.45769 0.0
H1878 H 0.63156 0.3401 0.4593 0.0
H1879 H 0.6264 0.31727 0.43752 0.0
H1880 H 0.63771 0.47245 0.45471 0.0
H1881 H 0.62455 0.43046 0.39963 0.0
H1882 H 0.70922 0.41746 0.46866 0.0
H1883 H 0.6714 0.38693 0.47474 0.0
H1884 H 0.66656 0.43683 0.47819 0.0
H1885 H 0.69282 0.35979 0.40202 0.0
H1886 H 0.65072 0.37375 0.3899 0.0
H1887 H 0.64892 0.33856 0.40774 0.0
C1888 C 0.85809 0.38247 0.18828 0.0
C1889 C 0.84278 0.38797 0.17059 0.0
C1890 C 0.89026 0.40221 0.19414 0.0
C1891 C 0.90792 0.42786 0.18199 0.0
C1892 C 0.89262 0.43336 0.1641 0.0
C1893 C 0.86019 0.41366 0.1587 0.0
C1894 C 0.90504 0.39589 0.21341 0.0
C1895 C 0.91084 0.45978 0.1505 0.0
C1896 C 0.97415 0.50696 0.19588 0.0
C1897 C 1.00898 0.49258 0.19015 0.0
C1898 C 0.94118 0.48511 0.19474 0.0
C1899 C 0.9431 0.44822 0.18749 0.0
C1900 C 0.97879 0.43268 0.18318 0.0
C1901 C 1.01117 0.45508 0.1845 0.0
C1902 C 0.90389 0.50274 0.19969 0.0
C1903 C 0.98246 0.39353 0.17552 0.0
H1904 H 0.84451 0.36318 0.19772 0.0
H1905 H 0.84866 0.41812 0.14503 0.0
H1906 H 0.93559 0.38938 0.21307 0.0
H1907 H 0.90144 0.42189 0.2216 0.0
H1908 H 0.89022 0.3727 0.22059 0.0
H1909 H 0.89444 0.46254 0.13752 0.0
H1910 H 0.914 0.48793 0.15673 0.0
H1911 H 0.93949 0.44951 0.14705 0.0
H1912 H 0.97212 0.53627 0.1997 0.0
H1913 H 0.0379 0.44421 0.17959 0.0
H1914 H 0.88638 0.48288 0.20774 0.0
H1915 H 0.88828 0.50973 0.18688 0.0
H1916 H 0.90752 0.52886 0.20781 0.0
H1917 H 0.96588 0.37343 0.18388 0.0
H1918 H 1.01222 0.3839 0.17513 0.0
H1919 H 0.97107 0.39293 0.16128 0.0
C1920 C 0.77072 0.83704 0.64467 0.0
C1921 C 0.75784 0.80171 0.6391 0.0
C1922 C 0.74673 0.86834 0.64494 0.0
C1923 C 0.70863 0.86434 0.63959 0.0
C1924 C 0.69625 0.82945 0.63245 0.0
C1925 C 0.72108 0.79843 0.63229 0.0
C1926 C 0.76152 0.90497 0.65237 0.0
C1927 C 0.65608 0.82411 0.62631 0.0
C1928 C 0.64308 0.93042 0.6656 0.0
C1929 C 0.63806 0.95972 0.65291 0.0
C1930 C 0.66433 0.89838 0.66105 0.0
C1931 C 0.68145 0.89557 0.64343 0.0
C1932 C 0.67562 0.92456 0.63037 0.0
C1933 C 0.65382 0.95609 0.6352 0.0
C1934 C 0.66974 0.86814 0.67541 0.0
C1935 C 0.6936 0.92293 0.61153 0.0
H1936 H 0.79915 0.83967 0.64996 0.0
H1937 H 0.71082 0.77108 0.62822 0.0
H1938 H 0.75367 0.92852 0.64312 0.0
H1939 H 0.74868 0.9106 0.66604 0.0
H1940 H 0.79261 0.90462 0.654 0.0
H1941 H 0.6523 0.79744 0.61866 0.0
H1942 H 0.6374 0.82374 0.63857 0.0
H1943 H 0.64686 0.84773 0.6174 0.0
H1944 H 0.63089 0.93276 0.67925 0.0
H1945 H 0.65026 0.9785 0.62524 0.0
H1946 H 0.69973 0.86706 0.67966 0.0
H1947 H 0.66255 0.84035 0.66958 0.0
H1948 H 0.65221 0.873 0.68787 0.0
H1949 H 0.68629 0.94763 0.6029 0.0
H1950 H 0.68458 0.89715 0.60428 0.0
H1951 H 0.72467 0.92153 0.6129 0.0
C1952 C 0.85602 0.88566 0.8883 0.0
C1953 C 0.83643 0.89387 0.90465 0.0
C1954 C 0.88913 0.90518 0.88351 0.0
C1955 C 0.90292 0.93375 0.89525 0.0
C1956 C 0.88241 0.94304 0.91137 0.0
C1957 C 0.84967 0.92303 0.91587 0.0
C1958 C 0.91007 0.89431 0.86622 0.0
C1959 C 0.89573 0.97342 0.92427 0.0
C1960 C 1.00619 0.95795 0.90078 0.0
C1961 C 1.00825 0.99331 0.89238 0.0
C1962 C 0.97287 0.93692 0.90048 0.0
C1963 C 0.94034 0.95186 0.89184 0.0
C1964 C 0.94301 0.98645 0.8822 0.0
C1965 C 0.97708 1.00676 0.88251 0.0
C1966 C 0.97177 0.90003 0.9107 0.0
C1967 C 0.90913 1.00347 0.87282 0.0
H1968 H 0.84607 0.86333 0.87948 0.0
H1969 H 0.83465 0.93005 0.92841 0.0
H1970 H 0.91673 0.91956 0.8579 0.0
H1971 H 0.9372 0.88086 0.87 0.0
H1972 H 0.89377 0.87449 0.85757 0.0
H1973 H 0.87526 0.9791 0.93551 0.0
H1974 H 0.92294 0.96501 0.93058 0.0
H1975 H 0.90058 0.99981 0.91653 0.0
H1976 H 0.03027 0.94755 0.90847 0.0
H1977 H 0.9784 0.03433 0.87624 0.0
H1978 H 0.95798 0.87823 0.9022 0.0
H1979 H 0.95494 0.90331 0.92349 0.0
H1980 H 1.00036 0.89004 0.91457 0.0
H1981 H 0.89373 0.98201 0.86477 0.0
H1982 H 0.91704 0.02686 0.86347 0.0
H1983 H 0.8895 1.01451 0.88341 0.0
C1984 C 0.92282 0.10361 0.13718 0.0
C1985 C 0.9228 0.09091 0.15552 0.0
C1986 C 0.902 0.13569 0.13189 0.0
C1987 C 0.88117 0.15594 0.1453 0.0
C1988 C 0.88287 0.14432 0.16399 0.0
C1989 C 0.90327 0.1119 0.16881 0.0
C1990 C 0.90071 0.14673 0.11182 0.0
C1991 C 0.86184 0.16528 0.17887 0.0
C1992 C 0.84046 0.25432 0.13809 0.0
C1993 C 0.80191 0.24658 0.13642 0.0
C1994 C 0.86709 0.22508 0.13997 0.0
C1995 C 0.85495 0.18721 0.13988 0.0
C1996 C 0.81638 0.17942 0.13674 0.0
C1997 C 0.79039 0.2091 0.13528 0.0
C1998 C 0.90775 0.23482 0.14345 0.0
C1999 C 0.80208 0.13964 0.13616 0.0
H2000 H 0.93758 0.08744 0.1268 0.0
H2001 H 0.90332 0.10252 0.18304 0.0
H2002 H 0.87223 0.141 0.10623 0.0
H2003 H 0.90591 0.17719 0.11019 0.0
H2004 H 0.92168 0.13104 0.10346 0.0
H2005 H 0.86882 0.1548 0.1929 0.0
H2006 H 0.86842 0.19563 0.17819 0.0
H2007 H 0.83109 0.16228 0.1767 0.0
H2008 H 0.84954 0.2832 0.13928 0.0
H2009 H 0.76062 0.20295 0.13405 0.0
H2010 H 0.92666 0.21718 0.13491 0.0
H2011 H 0.91467 0.22913 0.15812 0.0
H2012 H 0.91366 0.2648 0.1405 0.0
H2013 H 0.81993 0.12225 0.12696 0.0
H2014 H 0.77248 0.13815 0.13128 0.0
H2015 H 0.80357 0.12716 0.15016 0.0
C2016 C 0.55557 0.04393 0.38262 0.0
C2017 C 0.52598 0.0498 0.39506 0.0
C2018 C 0.58781 0.067 0.38299 0.0
C2019 C 0.59024 0.09659 0.39602 0.0
C2020 C 0.55896 0.1043 0.4075 0.0
C2021 C 0.52742 0.08081 0.40692 0.0
C2022 C 0.62035 0.05796 0.37039 0.0
C2023 C 0.5599 0.13557 0.4215 0.0
C2024 C 0.68461 0.12119 0.41758 0.0
C2025 C 0.69333 0.1556 0.40918 0.0
C2026 C 0.65182 0.10141 0.41299 0.0
C2027 C 0.62678 0.11614 0.39958 0.0
C2028 C 0.63553 0.1506 0.39083 0.0
C2029 C 0.66862 0.16996 0.39576 0.0
C2030 C 0.64364 0.06494 0.4228 0.0
C2031 C 0.60969 0.16724 0.37646 0.0
H2032 H 0.5547 1.01987 0.37353 0.0
H2033 H 0.50443 0.08564 0.41647 0.0
H2034 H 0.63192 0.08391 0.36417 0.0
H2035 H 0.64324 0.04459 0.37851 0.0
H2036 H 0.61204 0.03851 0.35918 0.0
H2037 H 0.5318 0.14084 0.42772 0.0
H2038 H 0.57985 0.12814 0.43271 0.0
H2039 H 0.57 0.16192 0.41508 0.0
H2040 H 0.70337 0.10958 0.42791 0.0
H2041 H 0.67513 0.19631 0.38904 0.0
H2042 H 0.63924 0.04222 0.41262 0.0
H2043 H 0.61732 0.0677 0.43093 0.0
H2044 H 0.66672 0.05643 0.43228 0.0
H2045 H 0.60402 0.14639 0.36548 0.0
H2046 H 0.62164 0.19286 0.37003 0.0
H2047 H 0.58226 0.17456 0.38283 0.0
C2048 C 0.26269 0.19964 0.42912 0.0
C2049 C 0.27689 0.23399 0.43534 0.0
C2050 C 0.28443 0.16673 0.42982 0.0
C2051 C 0.32171 0.16812 0.43669 0.0
C2052 C 0.33518 0.20216 0.44434 0.0
C2053 C 0.31252 0.23477 0.44362 0.0
C2054 C 0.26851 0.13121 0.4217 0.0
C2055 C 0.3746 0.20491 0.45191 0.0
C2056 C 0.37179 0.0733 0.44111 0.0
C2057 C 0.38948 0.07036 0.42385 0.0
C2058 C 0.35086 0.10555 0.44591 0.0
C2059 C 0.34775 0.13571 0.43321 0.0
C2060 C 0.36691 0.13338 0.4161 0.0
C2061 C 0.3873 0.10084 0.41163 0.0
C2062 C 0.33081 0.10664 0.46423 0.0
C2063 C 0.36467 0.16476 0.40212 0.0
H2064 H 0.23514 0.19896 0.42268 0.0
H2065 H 0.32381 0.26135 0.44822 0.0
H2066 H 0.28258 0.12526 0.40836 0.0
H2067 H 0.27393 0.10701 0.43096 0.0
H2068 H 0.23772 0.1334 0.41922 0.0
H2069 H 0.37864 0.23087 0.4601 0.0
H2070 H 0.3813 0.18029 0.4607 0.0
H2071 H 0.39497 0.20509 0.44032 0.0
H2072 H 0.37317 0.04988 0.45064 0.0
H2073 H 0.40117 0.09909 0.39835 0.0
H2074 H 0.30002 0.10437 0.46196 0.0
H2075 H 0.33598 0.13371 0.47127 0.0
H2076 H 0.3398 0.08338 0.47347 0.0
H2077 H 0.33531 0.16763 0.39708 0.0
H2078 H 0.38335 0.15985 0.39008 0.0
H2079 H 0.37254 0.19177 0.4086 0.0
C2080 C 0.05152 0.08014 0.19394 0.0
C2081 C 0.05606 0.04336 0.18743 0.0
C2082 C 0.08135 0.10626 0.19299 0.0
C2083 C 0.11629 0.0956 0.18499 0.0
C2084 C 0.12128 0.05813 0.17906 0.0
C2085 C 0.09147 0.03257 0.18056 0.0
C2086 C 0.07487 0.14559 0.19989 0.0
C2087 C 0.15773 0.0453 0.17033 0.0
C2088 C 0.1809 0.16353 0.1597 0.0
C2089 C 0.21158 0.16628 0.17181 0.0
C2090 C 0.14857 0.14289 0.16443 0.0
C2091 C 0.14705 0.12358 0.18152 0.0
C2092 C 0.17726 0.12761 0.19414 0.0
C2093 C 0.20902 0.14905 0.1892 0.0
C2094 C 0.11648 0.14075 0.15084 0.0
C2095 C 0.17673 0.10807 0.21261 0.0
H2096 H 1.02438 0.0889 0.19926 0.0
H2097 H 0.09561 1.00422 0.17559 0.0
H2098 H 0.10003 0.15619 0.20727 0.0
H2099 H 0.06956 0.16449 0.18801 0.0
H2100 H 0.05019 0.14718 0.20926 0.0
H2101 H 0.15718 1.0152 0.16645 0.0
H2102 H 0.1634 0.0621 0.15775 0.0
H2103 H 0.18151 0.04986 0.17996 0.0
H2104 H 0.18232 0.17721 0.14635 0.0
H2105 H 0.23253 0.15098 0.19867 0.0
H2106 H 0.12121 0.15867 0.13854 0.0
H2107 H 0.0899 0.14976 0.15752 0.0
H2108 H 0.11254 0.11135 0.14635 0.0
H2109 H 0.14939 0.11292 0.21963 0.0
H2110 H 0.19982 0.11771 0.22176 0.0
H2111 H 0.17982 0.07741 0.21057 0.0
C2112 C 0.15469 0.93314 0.90895 0.0
C2113 C 0.15002 0.96146 0.92217 0.0
C2114 C 0.17524 0.90029 0.91291 0.0
C2115 C 0.19205 0.8955 0.9305 0.0
C2116 C 0.18665 0.92352 0.94409 0.0
C2117 C 0.16562 0.95602 0.9398 0.0
C2118 C 0.17992 0.87115 0.898 0.0
C2119 C 0.20423 0.91982 0.96294 0.0
C2120 C 0.2268 0.79576 0.94046 0.0
C2121 C 0.26385 0.79755 0.93389 0.0
C2122 C 0.20347 0.82794 0.94048 0.0
C2123 C 0.21771 0.86266 0.93393 0.0
C2124 C 0.25604 0.86496 0.92868 0.0
C2125 C 0.27841 0.83241 0.92856 0.0
C2126 C 0.16285 0.8241 0.94619 0.0
C2127 C 0.2728 0.90127 0.92186 0.0
H2128 H 0.14257 0.93679 0.89535 0.0
H2129 H 0.16234 0.97768 0.95014 0.0
H2130 H 0.20996 0.8693 0.89391 0.0
H2131 H 0.17154 0.84318 0.90326 0.0
H2132 H 0.16292 0.87771 0.88554 0.0
H2133 H 0.19482 0.94234 0.97246 0.0
H2134 H 0.19719 0.89225 0.96912 0.0
H2135 H 0.23532 0.9211 0.9617 0.0
H2136 H 0.21518 0.76876 0.94424 0.0
H2137 H 0.30698 0.83384 0.92333 0.0
H2138 H 0.14466 0.82548 0.93376 0.0
H2139 H 0.15441 0.84751 0.95536 0.0
H2140 H 0.15749 0.79713 0.95338 0.0
H2141 H 0.26061 0.90844 0.90821 0.0
H2142 H 0.30388 0.89949 0.92041 0.0
H2143 H 0.26585 0.92454 0.93141 0.0
C2144 C 0.33272 0.90497 0.69125 0.0
C2145 C 0.33139 0.88581 0.67437 0.0
C2146 C 0.36407 0.92721 0.69598 0.0
C2147 C 0.39497 0.92997 0.68366 0.0
C2148 C 0.39443 0.90899 0.66708 0.0
C2149 C 0.36268 0.88747 0.66262 0.0
C2150 C 0.36318 0.94926 0.7137 0.0
C2151 C 0.42669 0.91066 0.65354 0.0
C2152 C 0.45494 1.01694 0.67794 0.0
C2153 C 0.48968 1.00534 0.68522 0.0
C2154 C 0.4231 0.99381 0.67872 0.0
C2155 C 0.42599 0.9577 0.68676 0.0
C2156 C 0.46031 0.94687 0.69534 0.0
C2157 C 0.4918 0.97093 0.69454 0.0
C2158 C 0.38718 1.00697 0.6696 0.0
C2159 C 0.46464 0.90877 0.70413 0.0
H2160 H 0.30857 0.90403 0.70036 0.0
H2161 H 0.36207 0.87245 0.64964 0.0
H2162 H 0.3903 0.94638 0.72117 0.0
H2163 H 0.35917 0.97943 0.71051 0.0
H2164 H 0.33997 0.94016 0.72293 0.0
H2165 H 0.4235 0.89017 0.64214 0.0
H2166 H 0.42835 0.9392 0.64749 0.0
H2167 H 0.45376 0.90506 0.66067 0.0
H2168 H 0.45314 0.0436 0.67077 0.0
H2169 H 0.51866 0.96165 0.70001 0.0
H2170 H 0.36265 1.00179 0.6787 0.0
H2171 H 0.38265 0.99094 0.6567 0.0
H2172 H 0.38799 0.03729 0.66611 0.0
H2173 H 0.43981 0.90208 0.71279 0.0
H2174 H 0.49043 0.90689 0.71275 0.0
H2175 H 0.46645 0.88715 0.69318 0.0
loop_
_geom_bond_atom_site_label_1
_geom_bond_atom_site_label_2
_geom_bond_distance
_geom_bond_site_symmetry_2
_ccdc_geom_bond_type
Eu0 C9 2.828 . S
Eu0 O11 2.392 . S
Eu0 O13 2.418 . S
Eu0 O18 2.373 . S
Eu0 O21 2.488 . S
Eu0 O22 2.471 . S
Eu0 O23 2.349 . S
Eu1 O10 2.373 . S
Eu1 O14 2.488 . S
Eu1 O15 2.471 . S
Eu1 O16 2.349 . S
Eu1 O19 2.392 . S
Eu1 O20 2.418 . S
Eu1 C30 2.828 . S
C2 O20 1.244 . S
C2 O23 1.265 . S
C3 C4 1.379 . S
C3 C7 1.373 . S
C3 C9 1.505 . S
C4 C3 1.379 . S
C4 C6 1.369 . S
C4 H32 0.930 . S
C5 C7 1.383 . S
C5 C8 1.382 . S
C5 H33 0.930 . S
C6 C4 1.369 . S
C6 C8 1.392 . S
C6 H34 0.930 . S
C7 C3 1.373 . S
C7 C5 1.383 . S
C7 H35 0.931 . S
C8 C5 1.382 . S
C8 C6 1.392 . S
C9 Eu0 2.828 . S
C9 C3 1.505 . S
C9 O21 1.249 . S
C9 O22 1.244 . S
O10 Eu1 2.373 . S
O10 C12 1.258 . S
O11 Eu0 2.392 . S
O11 C12 1.242 . S
C12 O10 1.258 . S
C12 O11 1.242 . S
O13 Eu0 2.418 . S
O13 C17 1.244 . S
O14 Eu1 2.488 . S
O14 C30 1.249 . S
O15 Eu1 2.471 . S
O15 C30 1.244 . S
O16 Eu1 2.349 . S
O16 C17 1.265 . S
C17 O13 1.244 . S
C17 O16 1.265 . S
O18 Eu0 2.373 . S
O18 C31 1.258 . S
O19 Eu1 2.392 . S
O19 C31 1.242 . S
O20 Eu1 2.418 . S
O20 C2 1.244 . S
O21 Eu0 2.488 . S
O21 C9 1.249 . S
O22 Eu0 2.471 . S
O22 C9 1.244 . S
O23 Eu0 2.349 . S
O23 C2 1.265 . S
C24 C25 1.379 . S
C24 C28 1.373 . S
C24 C30 1.505 . S
C25 C24 1.379 . S
C25 C27 1.369 . S
C25 H36 0.930 . S
C26 C28 1.383 . S
C26 C29 1.382 . S
C26 H37 0.930 1_545 S
C27 C25 1.369 . S
C27 C29 1.392 . S
C27 H38 0.930 . S
C28 C24 1.373 . S
C28 C26 1.383 . S
C28 H39 0.931 . S
C29 C26 1.382 . S
C29 C27 1.392 . S
C30 Eu1 2.828 . S
C30 O14 1.249 . S
C30 O15 1.244 . S
C30 C24 1.505 . S
C31 O18 1.258 . S
C31 O19 1.242 . S
H32 C4 0.930 . S
H33 C5 0.930 . S
H34 C6 0.930 . S
H35 C7 0.931 . S
H36 C25 0.930 . S
H37 C26 0.930 1_565 S
H38 C27 0.930 . S
H39 C28 0.931 . S
Eu40 C49 2.828 . S
Eu40 O51 2.392 . S
Eu40 O53 2.418 . S
Eu40 O58 2.373 . S
Eu40 O61 2.488 . S
Eu40 O62 2.471 . S
Eu40 O63 2.349 . S
Eu41 O50 2.373 . S
Eu41 O54 2.488 . S
Eu41 O55 2.471 . S
Eu41 O56 2.349 . S
Eu41 O59 2.392 . S
Eu41 O60 2.418 . S
Eu41 C70 2.828 . S
C42 O60 1.244 . S
C42 O63 1.265 . S
C43 C44 1.379 . S
C43 C47 1.373 . S
C43 C49 1.505 . S
C44 C43 1.379 . S
C44 C46 1.369 . S
C44 H72 0.930 . S
C45 C47 1.383 . S
C45 C48 1.382 . S
C45 H73 0.930 . S
C46 C44 1.369 . S
C46 C48 1.392 . S
C46 H74 0.930 . S
C47 C43 1.373 . S
C47 C45 1.383 . S
C47 H75 0.931 . S
C48 C45 1.382 . S
C48 C46 1.392 . S
C49 Eu40 2.828 . S
C49 C43 1.505 . S
C49 O61 1.249 . S
C49 O62 1.244 . S
O50 Eu41 2.373 . S
O50 C52 1.258 . S
O51 Eu40 2.392 . S
O51 C52 1.242 . S
C52 O50 1.258 . S
C52 O51 1.242 . S
O53 Eu40 2.418 . S
O53 C57 1.244 . S
O54 Eu41 2.488 . S
O54 C70 1.249 . S
O55 Eu41 2.471 . S
O55 C70 1.244 . S
O56 Eu41 2.349 . S
O56 C57 1.265 . S
C57 O53 1.244 . S
C57 O56 1.265 . S
O58 Eu40 2.373 . S
O58 C71 1.258 . S
O59 Eu41 2.392 . S
O59 C71 1.242 . S
O60 Eu41 2.418 . S
O60 C42 1.244 . S
O61 Eu40 2.488 . S
O61 C49 1.249 . S
O62 Eu40 2.471 . S
O62 C49 1.244 . S
O63 Eu40 2.349 . S
O63 C42 1.265 . S
C64 C65 1.379 . S
C64 C68 1.373 . S
C64 C70 1.505 . S
C65 C64 1.379 . S
C65 C67 1.369 . S
C65 H76 0.930 . S
C66 C68 1.383 . S
C66 C69 1.382 . S
C66 H77 0.930 . S
C67 C65 1.369 . S
C67 C69 1.392 . S
C67 H78 0.930 . S
C68 C64 1.373 . S
C68 C66 1.383 . S
C68 H79 0.931 . S
C69 C66 1.382 . S
C69 C67 1.392 . S
C70 Eu41 2.828 . S
C70 O54 1.249 . S
C70 O55 1.244 . S
C70 C64 1.505 . S
C71 O58 1.258 . S
C71 O59 1.242 . S
H72 C44 0.930 . S
H73 C45 0.930 . S
H74 C46 0.930 . S
H75 C47 0.931 . S
H76 C65 0.930 . S
H77 C66 0.930 . S
H78 C67 0.930 . S
H79 C68 0.931 . S
Eu80 C89 2.828 . S
Eu80 O91 2.392 . S
Eu80 O93 2.418 . S
Eu80 O98 2.373 . S
Eu80 O101 2.488 . S
Eu80 O102 2.471 . S
Eu80 O103 2.349 . S
Eu81 O90 2.373 . S
Eu81 O94 2.488 . S
Eu81 O95 2.471 . S
Eu81 O96 2.349 . S
Eu81 O99 2.392 . S
Eu81 O100 2.418 . S
Eu81 C110 2.828 . S
C82 O100 1.244 . S
C82 O103 1.265 . S
C83 C84 1.379 . S
C83 C87 1.373 . S
C83 C89 1.505 . S
C84 C83 1.379 . S
C84 C86 1.369 . S
C84 H112 0.930 . S
C85 C87 1.383 . S
C85 C88 1.382 . S
C85 H113 0.930 . S
C86 C84 1.369 . S
C86 C88 1.392 . S
C86 H114 0.930 . S
C87 C83 1.373 . S
C87 C85 1.383 . S
C87 H115 0.931 . S
C88 C85 1.382 . S
C88 C86 1.392 . S
C89 Eu80 2.828 . S
C89 C83 1.505 . S
C89 O101 1.249 . S
C89 O102 1.244 . S
O90 Eu81 2.373 . S
O90 C92 1.258 . S
O91 Eu80 2.392 . S
O91 C92 1.242 . S
C92 O90 1.258 . S
C92 O91 1.242 . S
O93 Eu80 2.418 . S
O93 C97 1.244 . S
O94 Eu81 2.488 . S
O94 C110 1.249 . S
O95 Eu81 2.471 . S
O95 C110 1.244 . S
O96 Eu81 2.349 . S
O96 C97 1.265 . S
C97 O93 1.244 . S
C97 O96 1.265 . S
O98 Eu80 2.373 . S
O98 C111 1.258 . S
O99 Eu81 2.392 . S
O99 C111 1.242 . S
O100 Eu81 2.418 . S
O100 C82 1.244 . S
O101 Eu80 2.488 . S
O101 C89 1.249 . S
O102 Eu80 2.471 . S
O102 C89 1.244 . S
O103 Eu80 2.349 . S
O103 C82 1.265 . S
C104 C105 1.379 . S
C104 C108 1.373 . S
C104 C110 1.505 . S
C105 C104 1.379 . S
C105 C107 1.369 . S
C105 H116 0.930 . S
C106 C108 1.383 . S
C106 C109 1.382 . S
C106 H117 0.930 1_565 S
C107 C105 1.369 . S
C107 C109 1.392 . S
C107 H118 0.930 . S
C108 C104 1.373 . S
C108 C106 1.383 . S
C108 H119 0.931 . S
C109 C106 1.382 . S
C109 C107 1.392 . S
C110 Eu81 2.828 . S
C110 O94 1.249 . S
C110 O95 1.244 . S
C110 C104 1.505 . S
C111 O98 1.258 . S
C111 O99 1.242 . S
H112 C84 0.930 . S
H113 C85 0.930 . S
H114 C86 0.930 . S
H115 C87 0.931 . S
H116 C105 0.930 . S
H117 C106 0.930 1_545 S
H118 C107 0.930 . S
H119 C108 0.931 . S
Eu120 C129 2.828 . S
Eu120 O131 2.392 . S
Eu120 O133 2.418 . S
Eu120 O138 2.373 . S
Eu120 O141 2.488 . S
Eu120 O142 2.471 . S
Eu120 O143 2.349 . S
Eu121 O130 2.373 . S
Eu121 O134 2.488 . S
Eu121 O135 2.471 . S
Eu121 O136 2.349 . S
Eu121 O139 2.392 . S
Eu121 O140 2.418 . S
Eu121 C150 2.828 . S
C122 O140 1.244 . S
C122 O143 1.265 . S
C123 C124 1.379 . S
C123 C127 1.373 . S
C123 C129 1.505 . S
C124 C123 1.379 . S
C124 C126 1.369 . S
C124 H152 0.930 . S
C125 C127 1.383 1_455 S
C125 C128 1.382 1_455 S
C125 H153 0.930 . S
C126 C124 1.369 . S
C126 C128 1.392 . S
C126 H154 0.930 . S
C127 C123 1.373 . S
C127 C125 1.383 1_655 S
C127 H155 0.931 1_655 S
C128 C125 1.382 1_655 S
C128 C126 1.392 . S
C129 Eu120 2.828 . S
C129 C123 1.505 . S
C129 O141 1.249 . S
C129 O142 1.244 . S
O130 Eu121 2.373 . S
O130 C132 1.258 . S
O131 Eu120 2.392 . S
O131 C132 1.242 . S
C132 O130 1.258 . S
C132 O131 1.242 . S
O133 Eu120 2.418 . S
O133 C137 1.244 . S
O134 Eu121 2.488 . S
O134 C150 1.249 . S
O135 Eu121 2.471 . S
O135 C150 1.244 . S
O136 Eu121 2.349 . S
O136 C137 1.265 . S
C137 O133 1.244 . S
C137 O136 1.265 . S
O138 Eu120 2.373 . S
O138 C151 1.258 . S
O139 Eu121 2.392 . S
O139 C151 1.242 . S
O140 Eu121 2.418 . S
O140 C122 1.244 . S
O141 Eu120 2.488 . S
O141 C129 1.249 . S
O142 Eu120 2.471 . S
O142 C129 1.244 . S
O143 Eu120 2.349 . S
O143 C122 1.265 . S
C144 C145 1.379 . S
C144 C148 1.373 . S
C144 C150 1.505 . S
C145 C144 1.379 . S
C145 C147 1.369 . S
C145 H156 0.930 . S
C146 C148 1.383 . S
C146 C149 1.382 . S
C146 H157 0.930 . S
C147 C145 1.369 . S
C147 C149 1.392 . S
C147 H158 0.930 . S
C148 C144 1.373 . S
C148 C146 1.383 . S
C148 H159 0.931 . S
C149 C146 1.382 . S
C149 C147 1.392 . S
C150 Eu121 2.828 . S
C150 O134 1.249 . S
C150 O135 1.244 . S
C150 C144 1.505 . S
C151 O138 1.258 . S
C151 O139 1.242 . S
H152 C124 0.930 . S
H153 C125 0.930 . S
H154 C126 0.930 . S
H155 C127 0.931 1_455 S
H156 C145 0.930 . S
H157 C146 0.930 . S
H158 C147 0.930 . S
H159 C148 0.931 . S
Eu160 C169 2.828 . S
Eu160 O171 2.392 . S
Eu160 O173 2.418 . S
Eu160 O178 2.373 . S
Eu160 O181 2.488 . S
Eu160 O182 2.471 . S
Eu160 O183 2.349 . S
Eu161 O170 2.373 . S
Eu161 O174 2.488 . S
Eu161 O175 2.471 . S
Eu161 O176 2.349 . S
Eu161 O179 2.392 . S
Eu161 O180 2.418 . S
Eu161 C190 2.828 . S
C162 O180 1.244 . S
C162 O183 1.265 . S
C163 C164 1.379 . S
C163 C167 1.373 . S
C163 C169 1.505 . S
C164 C163 1.379 . S
C164 C166 1.369 . S
C164 H192 0.930 . S
C165 C167 1.383 . S
C165 C168 1.382 . S
C165 H193 0.930 1_565 S
C166 C164 1.369 . S
C166 C168 1.392 . S
C166 H194 0.930 . S
C167 C163 1.373 . S
C167 C165 1.383 . S
C167 H195 0.931 . S
C168 C165 1.382 . S
C168 C166 1.392 . S
C169 Eu160 2.828 . S
C169 C163 1.505 . S
C169 O181 1.249 . S
C169 O182 1.244 . S
O170 Eu161 2.373 . S
O170 C172 1.258 . S
O171 Eu160 2.392 . S
O171 C172 1.242 . S
C172 O170 1.258 . S
C172 O171 1.242 . S
O173 Eu160 2.418 . S
O173 C177 1.244 . S
O174 Eu161 2.488 . S
O174 C190 1.249 . S
O175 Eu161 2.471 . S
O175 C190 1.244 . S
O176 Eu161 2.349 . S
O176 C177 1.265 . S
C177 O173 1.244 . S
C177 O176 1.265 . S
O178 Eu160 2.373 . S
O178 C191 1.258 . S
O179 Eu161 2.392 . S
O179 C191 1.242 . S
O180 Eu161 2.418 . S
O180 C162 1.244 . S
O181 Eu160 2.488 . S
O181 C169 1.249 . S
O182 Eu160 2.471 . S
O182 C169 1.244 . S
O183 Eu160 2.349 . S
O183 C162 1.265 . S
C184 C185 1.379 . S
C184 C188 1.373 . S
C184 C190 1.505 . S
C185 C184 1.379 . S
C185 C187 1.369 . S
C185 H196 0.930 . S
C186 C188 1.383 . S
C186 C189 1.382 . S
C186 H197 0.930 . S
C187 C185 1.369 . S
C187 C189 1.392 . S
C187 H198 0.930 . S
C188 C184 1.373 . S
C188 C186 1.383 . S
C188 H199 0.931 . S
C189 C186 1.382 . S
C189 C187 1.392 . S
C190 Eu161 2.828 . S
C190 O174 1.249 . S
C190 O175 1.244 . S
C190 C184 1.505 . S
C191 O178 1.258 . S
C191 O179 1.242 . S
H192 C164 0.930 . S
H193 C165 0.930 1_545 S
H194 C166 0.930 . S
H195 C167 0.931 . S
H196 C185 0.930 . S
H197 C186 0.930 . S
H198 C187 0.930 . S
H199 C188 0.931 . S
Eu200 C209 2.828 . S
Eu200 O211 2.392 . S
Eu200 O213 2.418 . S
Eu200 O218 2.373 . S
Eu200 O221 2.488 . S
Eu200 O222 2.471 . S
Eu200 O223 2.349 . S
Eu201 O210 2.373 . S
Eu201 O214 2.488 . S
Eu201 O215 2.471 . S
Eu201 O216 2.349 . S
Eu201 O219 2.392 . S
Eu201 O220 2.418 . S
Eu201 C230 2.828 . S
C202 O220 1.244 . S
C202 O223 1.265 . S
C203 C204 1.379 . S
C203 C207 1.373 . S
C203 C209 1.505 . S
C204 C203 1.379 . S
C204 C206 1.369 . S
C204 H232 0.930 . S
C205 C207 1.383 . S
C205 C208 1.382 . S
C205 H233 0.930 . S
C206 C204 1.369 . S
C206 C208 1.392 . S
C206 H234 0.930 . S
C207 C203 1.373 . S
C207 C205 1.383 . S
C207 H235 0.931 . S
C208 C205 1.382 . S
C208 C206 1.392 . S
C209 Eu200 2.828 . S
C209 C203 1.505 . S
C209 O221 1.249 . S
C209 O222 1.244 . S
O210 Eu201 2.373 . S
O210 C212 1.258 . S
O211 Eu200 2.392 . S
O211 C212 1.242 . S
C212 O210 1.258 . S
C212 O211 1.242 . S
O213 Eu200 2.418 . S
O213 C217 1.244 . S
O214 Eu201 2.488 . S
O214 C230 1.249 . S
O215 Eu201 2.471 . S
O215 C230 1.244 . S
O216 Eu201 2.349 . S
O216 C217 1.265 . S
C217 O213 1.244 . S
C217 O216 1.265 . S
O218 Eu200 2.373 . S
O218 C231 1.258 . S
O219 Eu201 2.392 . S
O219 C231 1.242 . S
O220 Eu201 2.418 . S
O220 C202 1.244 . S
O221 Eu200 2.488 . S
O221 C209 1.249 . S
O222 Eu200 2.471 . S
O222 C209 1.244 . S
O223 Eu200 2.349 . S
O223 C202 1.265 . S
C224 C225 1.379 . S
C224 C228 1.373 . S
C224 C230 1.505 . S
C225 C224 1.379 . S
C225 C227 1.369 . S
C225 H236 0.930 . S
C226 C228 1.383 . S
C226 C229 1.382 . S
C226 H237 0.930 . S
C227 C225 1.369 . S
C227 C229 1.392 . S
C227 H238 0.930 . S
C228 C224 1.373 . S
C228 C226 1.383 . S
C228 H239 0.931 . S
C229 C226 1.382 . S
C229 C227 1.392 . S
C230 Eu201 2.828 . S
C230 O214 1.249 . S
C230 O215 1.244 . S
C230 C224 1.505 . S
C231 O218 1.258 . S
C231 O219 1.242 . S
H232 C204 0.930 . S
H233 C205 0.930 . S
H234 C206 0.930 . S
H235 C207 0.931 . S
H236 C225 0.930 . S
H237 C226 0.930 . S
H238 C227 0.930 . S
H239 C228 0.931 . S
Eu240 C249 2.828 . S
Eu240 O251 2.392 . S
Eu240 O253 2.418 . S
Eu240 O258 2.373 . S
Eu240 O261 2.488 . S
Eu240 O262 2.471 . S
Eu240 O263 2.349 . S
Eu241 O250 2.373 . S
Eu241 O254 2.488 . S
Eu241 O255 2.471 . S
Eu241 O256 2.349 . S
Eu241 O259 2.392 . S
Eu241 O260 2.418 . S
Eu241 C270 2.828 . S
C242 O260 1.244 . S
C242 O263 1.265 . S
C243 C244 1.379 . S
C243 C247 1.373 . S
C243 C249 1.505 . S
C244 C243 1.379 . S
C244 C246 1.369 . S
C244 H272 0.930 . S
C245 C247 1.383 . S
C245 C248 1.382 . S
C245 H273 0.930 1_545 S
C246 C244 1.369 . S
C246 C248 1.392 . S
C246 H274 0.930 . S
C247 C243 1.373 . S
C247 C245 1.383 . S
C247 H275 0.931 . S
C248 C245 1.382 . S
C248 C246 1.392 . S
C249 Eu240 2.828 . S
C249 C243 1.505 . S
C249 O261 1.249 . S
C249 O262 1.244 . S
O250 Eu241 2.373 . S
O250 C252 1.258 . S
O251 Eu240 2.392 . S
O251 C252 1.242 . S
C252 O250 1.258 . S
C252 O251 1.242 . S
O253 Eu240 2.418 . S
O253 C257 1.244 . S
O254 Eu241 2.488 . S
O254 C270 1.249 . S
O255 Eu241 2.471 . S
O255 C270 1.244 . S
O256 Eu241 2.349 . S
O256 C257 1.265 . S
C257 O253 1.244 . S
C257 O256 1.265 . S
O258 Eu240 2.373 . S
O258 C271 1.258 . S
O259 Eu241 2.392 . S
O259 C271 1.242 . S
O260 Eu241 2.418 . S
O260 C242 1.244 . S
O261 Eu240 2.488 . S
O261 C249 1.249 . S
O262 Eu240 2.471 . S
O262 C249 1.244 . S
O263 Eu240 2.349 . S
O263 C242 1.265 . S
C264 C265 1.379 . S
C264 C268 1.373 . S
C264 C270 1.505 . S
C265 C264 1.379 . S
C265 C267 1.369 . S
C265 H276 0.930 . S
C266 C268 1.383 . S
C266 C269 1.382 . S
C266 H277 0.930 . S
C267 C265 1.369 . S
C267 C269 1.392 . S
C267 H278 0.930 . S
C268 C264 1.373 . S
C268 C266 1.383 . S
C268 H279 0.931 . S
C269 C266 1.382 . S
C269 C267 1.392 . S
C270 Eu241 2.828 . S
C270 O254 1.249 . S
C270 O255 1.244 . S
C270 C264 1.505 . S
C271 O258 1.258 . S
C271 O259 1.242 . S
H272 C244 0.930 . S
H273 C245 0.930 1_565 S
H274 C246 0.930 . S
H275 C247 0.931 . S
H276 C265 0.930 . S
H277 C266 0.930 . S
H278 C267 0.930 . S
H279 C268 0.931 . S
Eu280 C289 2.828 . S
Eu280 O291 2.392 . S
Eu280 O293 2.418 . S
Eu280 O298 2.373 . S
Eu280 O301 2.488 . S
Eu280 O302 2.471 . S
Eu280 O303 2.349 . S
Eu281 O290 2.373 . S
Eu281 O294 2.488 . S
Eu281 O295 2.471 . S
Eu281 O296 2.349 . S
Eu281 O299 2.392 . S
Eu281 O300 2.418 . S
Eu281 C310 2.828 . S
C282 O300 1.244 . S
C282 O303 1.265 . S
C283 C284 1.379 . S
C283 C287 1.373 . S
C283 C289 1.505 . S
C284 C283 1.379 . S
C284 C286 1.369 . S
C284 H312 0.930 . S
C285 C287 1.383 . S
C285 C288 1.382 . S
C285 H313 0.930 . S
C286 C284 1.369 . S
C286 C288 1.392 . S
C286 H314 0.930 . S
C287 C283 1.373 . S
C287 C285 1.383 . S
C287 H315 0.931 . S
C288 C285 1.382 . S
C288 C286 1.392 . S
C289 Eu280 2.828 . S
C289 C283 1.505 . S
C289 O301 1.249 . S
C289 O302 1.244 . S
O290 Eu281 2.373 . S
O290 C292 1.258 . S
O291 Eu280 2.392 . S
O291 C292 1.242 . S
C292 O290 1.258 . S
C292 O291 1.242 . S
O293 Eu280 2.418 . S
O293 C297 1.244 . S
O294 Eu281 2.488 . S
O294 C310 1.249 . S
O295 Eu281 2.471 . S
O295 C310 1.244 . S
O296 Eu281 2.349 . S
O296 C297 1.265 . S
C297 O293 1.244 . S
C297 O296 1.265 . S
O298 Eu280 2.373 . S
O298 C311 1.258 . S
O299 Eu281 2.392 . S
O299 C311 1.242 . S
O300 Eu281 2.418 . S
O300 C282 1.244 . S
O301 Eu280 2.488 . S
O301 C289 1.249 . S
O302 Eu280 2.471 . S
O302 C289 1.244 . S
O303 Eu280 2.349 . S
O303 C282 1.265 . S
C304 C305 1.379 . S
C304 C308 1.373 . S
C304 C310 1.505 . S
C305 C304 1.379 . S
C305 C307 1.369 . S
C305 H316 0.930 . S
C306 C308 1.383 1_655 S
C306 C309 1.382 1_655 S
C306 H317 0.930 . S
C307 C305 1.369 . S
C307 C309 1.392 . S
C307 H318 0.930 . S
C308 C304 1.373 . S
C308 C306 1.383 1_455 S
C308 H319 0.931 1_455 S
C309 C306 1.382 1_455 S
C309 C307 1.392 . S
C310 Eu281 2.828 . S
C310 O294 1.249 . S
C310 O295 1.244 . S
C310 C304 1.505 . S
C311 O298 1.258 . S
C311 O299 1.242 . S
H312 C284 0.930 . S
H313 C285 0.930 . S
H314 C286 0.930 . S
H315 C287 0.931 . S
H316 C305 0.930 . S
H317 C306 0.930 . S
H318 C307 0.930 . S
H319 C308 0.931 1_655 S
Eu320 C329 2.828 . S
Eu320 O331 2.392 . S
Eu320 O333 2.418 . S
Eu320 O338 2.373 . S
Eu320 O341 2.488 . S
Eu320 O342 2.471 . S
Eu320 O343 2.349 . S
Eu321 O330 2.373 . S
Eu321 O334 2.488 . S
Eu321 O335 2.471 . S
Eu321 O336 2.349 . S
Eu321 O339 2.392 . S
Eu321 O340 2.418 . S
Eu321 C350 2.828 . S
C322 O340 1.244 . S
C322 O343 1.265 . S
C323 C324 1.379 . S
C323 C327 1.373 . S
C323 C329 1.505 . S
C324 C323 1.379 . S
C324 C326 1.369 . S
C324 H352 0.930 . S
C325 C327 1.383 . S
C325 C328 1.382 . S
C325 H353 0.930 . S
C326 C324 1.369 . S
C326 C328 1.392 . S
C326 H354 0.930 . S
C327 C323 1.373 . S
C327 C325 1.383 . S
C327 H355 0.931 . S
C328 C325 1.382 . S
C328 C326 1.392 . S
C329 Eu320 2.828 . S
C329 C323 1.505 . S
C329 O341 1.249 . S
C329 O342 1.244 . S
O330 Eu321 2.373 . S
O330 C332 1.258 . S
O331 Eu320 2.392 . S
O331 C332 1.242 . S
C332 O330 1.258 . S
C332 O331 1.242 . S
O333 Eu320 2.418 . S
O333 C337 1.244 . S
O334 Eu321 2.488 . S
O334 C350 1.249 . S
O335 Eu321 2.471 . S
O335 C350 1.244 . S
O336 Eu321 2.349 . S
O336 C337 1.265 . S
C337 O333 1.244 . S
C337 O336 1.265 . S
O338 Eu320 2.373 . S
O338 C351 1.258 . S
O339 Eu321 2.392 . S
O339 C351 1.242 . S
O340 Eu321 2.418 . S
O340 C322 1.244 . S
O341 Eu320 2.488 . S
O341 C329 1.249 . S
O342 Eu320 2.471 . S
O342 C329 1.244 . S
O343 Eu320 2.349 . S
O343 C322 1.265 . S
C344 C345 1.379 . S
C344 C348 1.373 . S
C344 C350 1.505 . S
C345 C344 1.379 . S
C345 C347 1.369 . S
C345 H356 0.930 . S
C346 C348 1.383 . S
C346 C349 1.382 . S
C346 H357 0.930 . S
C347 C345 1.369 . S
C347 C349 1.392 . S
C347 H358 0.930 . S
C348 C344 1.373 . S
C348 C346 1.383 . S
C348 H359 0.931 . S
C349 C346 1.382 . S
C349 C347 1.392 . S
C350 Eu321 2.828 . S
C350 O334 1.249 . S
C350 O335 1.244 . S
C350 C344 1.505 . S
C351 O338 1.258 . S
C351 O339 1.242 . S
H352 C324 0.930 . S
H353 C325 0.930 . S
H354 C326 0.930 . S
H355 C327 0.931 . S
H356 C345 0.930 . S
H357 C346 0.930 . S
H358 C347 0.930 . S
H359 C348 0.931 . S
Eu360 C369 2.828 . S
Eu360 O371 2.392 1_545 S
Eu360 O373 2.418 1_545 S
Eu360 O378 2.373 . S
Eu360 O381 2.488 . S
Eu360 O382 2.471 . S
Eu360 O383 2.349 . S
Eu361 O370 2.373 1_545 S
Eu361 O374 2.488 . S
Eu361 O375 2.471 . S
Eu361 O376 2.349 . S
Eu361 O379 2.392 . S
Eu361 O380 2.418 . S
Eu361 C390 2.828 . S
C362 O380 1.244 . S
C362 O383 1.265 . S
C363 C364 1.379 . S
C363 C367 1.373 . S
C363 C369 1.505 . S
C364 C363 1.379 . S
C364 C366 1.369 . S
C364 H392 0.930 . S
C365 C367 1.383 1_655 S
C365 C368 1.382 1_655 S
C365 H393 0.930 . S
C366 C364 1.369 . S
C366 C368 1.392 . S
C366 H394 0.930 . S
C367 C363 1.373 . S
C367 C365 1.383 1_455 S
C367 H395 0.931 1_455 S
C368 C365 1.382 1_455 S
C368 C366 1.392 . S
C369 Eu360 2.828 . S
C369 C363 1.505 . S
C369 O381 1.249 . S
C369 O382 1.244 . S
O370 Eu361 2.373 1_565 S
O370 C372 1.258 . S
O371 Eu360 2.392 1_565 S
O371 C372 1.242 . S
C372 O370 1.258 . S
C372 O371 1.242 . S
O373 Eu360 2.418 1_565 S
O373 C377 1.244 1_565 S
O374 Eu361 2.488 . S
O374 C390 1.249 . S
O375 Eu361 2.471 . S
O375 C390 1.244 . S
O376 Eu361 2.349 . S
O376 C377 1.265 . S
C377 O373 1.244 1_545 S
C377 O376 1.265 . S
O378 Eu360 2.373 . S
O378 C391 1.258 . S
O379 Eu361 2.392 . S
O379 C391 1.242 . S
O380 Eu361 2.418 . S
O380 C362 1.244 . S
O381 Eu360 2.488 . S
O381 C369 1.249 . S
O382 Eu360 2.471 . S
O382 C369 1.244 . S
O383 Eu360 2.349 . S
O383 C362 1.265 . S
C384 C385 1.379 1_545 S
C384 C388 1.373 . S
C384 C390 1.505 . S
C385 C384 1.379 1_565 S
C385 C387 1.369 . S
C385 H396 0.930 . S
C386 C388 1.383 . S
C386 C389 1.382 1_545 S
C386 H397 0.930 . S
C387 C385 1.369 . S
C387 C389 1.392 . S
C387 H398 0.930 . S
C388 C384 1.373 . S
C388 C386 1.383 . S
C388 H399 0.931 . S
C389 C386 1.382 1_565 S
C389 C387 1.392 . S
C390 Eu361 2.828 . S
C390 O374 1.249 . S
C390 O375 1.244 . S
C390 C384 1.505 . S
C391 O378 1.258 . S
C391 O379 1.242 . S
H392 C364 0.930 . S
H393 C365 0.930 . S
H394 C366 0.930 . S
H395 C367 0.931 1_655 S
H396 C385 0.930 . S
H397 C386 0.930 . S
H398 C387 0.930 . S
H399 C388 0.931 . S
Eu400 C409 2.828 . S
Eu400 O411 2.392 . S
Eu400 O413 2.418 . S
Eu400 O418 2.373 . S
Eu400 O421 2.488 . S
Eu400 O422 2.471 . S
Eu400 O423 2.349 . S
Eu401 O410 2.373 . S
Eu401 O414 2.488 . S
Eu401 O415 2.471 . S
Eu401 O416 2.349 . S
Eu401 O419 2.392 . S
Eu401 O420 2.418 . S
Eu401 C430 2.828 . S
C402 O420 1.244 . S
C402 O423 1.265 . S
C403 C404 1.379 . S
C403 C407 1.373 . S
C403 C409 1.505 . S
C404 C403 1.379 . S
C404 C406 1.369 . S
C404 H432 0.930 . S
C405 C407 1.383 . S
C405 C408 1.382 . S
C405 H433 0.930 . S
C406 C404 1.369 . S
C406 C408 1.392 . S
C406 H434 0.930 . S
C407 C403 1.373 . S
C407 C405 1.383 . S
C407 H435 0.931 . S
C408 C405 1.382 . S
C408 C406 1.392 . S
C409 Eu400 2.828 . S
C409 C403 1.505 . S
C409 O421 1.249 . S
C409 O422 1.244 . S
O410 Eu401 2.373 . S
O410 C412 1.258 . S
O411 Eu400 2.392 . S
O411 C412 1.242 . S
C412 O410 1.258 . S
C412 O411 1.242 . S
O413 Eu400 2.418 . S
O413 C417 1.244 . S
O414 Eu401 2.488 . S
O414 C430 1.249 . S
O415 Eu401 2.471 . S
O415 C430 1.244 . S
O416 Eu401 2.349 . S
O416 C417 1.265 . S
C417 O413 1.244 . S
C417 O416 1.265 . S
O418 Eu400 2.373 . S
O418 C431 1.258 . S
O419 Eu401 2.392 . S
O419 C431 1.242 . S
O420 Eu401 2.418 . S
O420 C402 1.244 . S
O421 Eu400 2.488 . S
O421 C409 1.249 . S
O422 Eu400 2.471 . S
O422 C409 1.244 . S
O423 Eu400 2.349 . S
O423 C402 1.265 . S
C424 C425 1.379 . S
C424 C428 1.373 . S
C424 C430 1.505 . S
C425 C424 1.379 . S
C425 C427 1.369 . S
C425 H436 0.930 . S
C426 C428 1.383 . S
C426 C429 1.382 . S
C426 H437 0.930 . S
C427 C425 1.369 . S
C427 C429 1.392 . S
C427 H438 0.930 . S
C428 C424 1.373 . S
C428 C426 1.383 . S
C428 H439 0.931 . S
C429 C426 1.382 . S
C429 C427 1.392 . S
C430 Eu401 2.828 . S
C430 O414 1.249 . S
C430 O415 1.244 . S
C430 C424 1.505 . S
C431 O418 1.258 . S
C431 O419 1.242 . S
H432 C404 0.930 . S
H433 C405 0.930 . S
H434 C406 0.930 . S
H435 C407 0.931 . S
H436 C425 0.930 . S
H437 C426 0.930 . S
H438 C427 0.930 . S
H439 C428 0.931 . S
Eu440 C449 2.828 . S
Eu440 O451 2.392 1_565 S
Eu440 O453 2.418 1_565 S
Eu440 O458 2.373 . S
Eu440 O461 2.488 . S
Eu440 O462 2.471 . S
Eu440 O463 2.349 . S
Eu441 O450 2.373 1_565 S
Eu441 O454 2.488 . S
Eu441 O455 2.471 . S
Eu441 O456 2.349 . S
Eu441 O459 2.392 . S
Eu441 O460 2.418 . S
Eu441 C470 2.828 . S
C442 O460 1.244 . S
C442 O463 1.265 . S
C443 C444 1.379 . S
C443 C447 1.373 . S
C443 C449 1.505 . S
C444 C443 1.379 . S
C444 C446 1.369 . S
C444 H472 0.930 . S
C445 C447 1.383 . S
C445 C448 1.382 . S
C445 H473 0.930 . S
C446 C444 1.369 . S
C446 C448 1.392 . S
C446 H474 0.930 . S
C447 C443 1.373 . S
C447 C445 1.383 . S
C447 H475 0.931 . S
C448 C445 1.382 . S
C448 C446 1.392 . S
C449 Eu440 2.828 . S
C449 C443 1.505 . S
C449 O461 1.249 . S
C449 O462 1.244 . S
O450 Eu441 2.373 1_545 S
O450 C452 1.258 . S
O451 Eu440 2.392 1_545 S
O451 C452 1.242 . S
C452 O450 1.258 . S
C452 O451 1.242 . S
O453 Eu440 2.418 1_545 S
O453 C457 1.244 1_545 S
O454 Eu441 2.488 . S
O454 C470 1.249 . S
O455 Eu441 2.471 . S
O455 C470 1.244 . S
O456 Eu441 2.349 . S
O456 C457 1.265 . S
C457 O453 1.244 1_565 S
C457 O456 1.265 . S
O458 Eu440 2.373 . S
O458 C471 1.258 . S
O459 Eu441 2.392 . S
O459 C471 1.242 . S
O460 Eu441 2.418 . S
O460 C442 1.244 . S
O461 Eu440 2.488 . S
O461 C449 1.249 . S
O462 Eu440 2.471 . S
O462 C449 1.244 . S
O463 Eu440 2.349 . S
O463 C442 1.265 . S
C464 C465 1.379 1_565 S
C464 C468 1.373 . S
C464 C470 1.505 . S
C465 C464 1.379 1_545 S
C465 C467 1.369 . S
C465 H476 0.930 . S
C466 C468 1.383 . S
C466 C469 1.382 1_565 S
C466 H477 0.930 . S
C467 C465 1.369 . S
C467 C469 1.392 . S
C467 H478 0.930 . S
C468 C464 1.373 . S
C468 C466 1.383 . S
C468 H479 0.931 . S
C469 C466 1.382 1_545 S
C469 C467 1.392 . S
C470 Eu441 2.828 . S
C470 O454 1.249 . S
C470 O455 1.244 . S
C470 C464 1.505 . S
C471 O458 1.258 . S
C471 O459 1.242 . S
H472 C444 0.930 . S
H473 C445 0.930 . S
H474 C446 0.930 . S
H475 C447 0.931 . S
H476 C465 0.930 . S
H477 C466 0.930 . S
H478 C467 0.930 . S
H479 C468 0.931 . S
Eu480 C489 2.828 . S
Eu480 O491 2.392 . S
Eu480 O493 2.418 . S
Eu480 O498 2.373 . S
Eu480 O501 2.488 . S
Eu480 O502 2.471 . S
Eu480 O503 2.349 . S
Eu481 O490 2.373 . S
Eu481 O494 2.488 . S
Eu481 O495 2.471 . S
Eu481 O496 2.349 . S
Eu481 O499 2.392 . S
Eu481 O500 2.418 . S
Eu481 C510 2.828 . S
C482 O500 1.244 . S
C482 O503 1.265 . S
C483 C484 1.379 . S
C483 C487 1.373 . S
C483 C489 1.505 . S
C484 C483 1.379 . S
C484 C486 1.369 . S
C484 H512 0.930 . S
C485 C487 1.383 . S
C485 C488 1.382 . S
C485 H513 0.930 . S
C486 C484 1.369 . S
C486 C488 1.392 . S
C486 H514 0.930 . S
C487 C483 1.373 . S
C487 C485 1.383 . S
C487 H515 0.931 . S
C488 C485 1.382 . S
C488 C486 1.392 . S
C489 Eu480 2.828 . S
C489 C483 1.505 . S
C489 O501 1.249 . S
C489 O502 1.244 . S
O490 Eu481 2.373 . S
O490 C492 1.258 . S
O491 Eu480 2.392 . S
O491 C492 1.242 . S
C492 O490 1.258 . S
C492 O491 1.242 . S
O493 Eu480 2.418 . S
O493 C497 1.244 . S
O494 Eu481 2.488 . S
O494 C510 1.249 . S
O495 Eu481 2.471 . S
O495 C510 1.244 . S
O496 Eu481 2.349 . S
O496 C497 1.265 . S
C497 O493 1.244 . S
C497 O496 1.265 . S
O498 Eu480 2.373 . S
O498 C511 1.258 . S
O499 Eu481 2.392 . S
O499 C511 1.242 . S
O500 Eu481 2.418 . S
O500 C482 1.244 . S
O501 Eu480 2.488 . S
O501 C489 1.249 . S
O502 Eu480 2.471 . S
O502 C489 1.244 . S
O503 Eu480 2.349 . S
O503 C482 1.265 . S
C504 C505 1.379 . S
C504 C508 1.373 . S
C504 C510 1.505 . S
C505 C504 1.379 . S
C505 C507 1.369 . S
C505 H516 0.930 . S
C506 C508 1.383 . S
C506 C509 1.382 . S
C506 H517 0.930 . S
C507 C505 1.369 . S
C507 C509 1.392 . S
C507 H518 0.930 . S
C508 C504 1.373 . S
C508 C506 1.383 . S
C508 H519 0.931 . S
C509 C506 1.382 . S
C509 C507 1.392 . S
C510 Eu481 2.828 . S
C510 O494 1.249 . S
C510 O495 1.244 . S
C510 C504 1.505 . S
C511 O498 1.258 . S
C511 O499 1.242 . S
H512 C484 0.930 . S
H513 C485 0.930 . S
H514 C486 0.930 . S
H515 C487 0.931 . S
H516 C505 0.930 . S
H517 C506 0.930 . S
H518 C507 0.930 . S
H519 C508 0.931 . S
Eu520 C529 2.828 . S
Eu520 O531 2.392 . S
Eu520 O533 2.418 . S
Eu520 O538 2.373 1_565 S
Eu520 O541 2.488 . S
Eu520 O542 2.471 . S
Eu520 O543 2.349 . S
Eu521 O530 2.373 . S
Eu521 O534 2.488 . S
Eu521 O535 2.471 . S
Eu521 O536 2.349 . S
Eu521 O539 2.392 1_565 S
Eu521 O540 2.418 1_565 S
Eu521 C550 2.828 . S
C522 O540 1.244 1_565 S
C522 O543 1.265 . S
C523 C524 1.379 1_565 S
C523 C527 1.373 . S
C523 C529 1.505 . S
C524 C523 1.379 1_545 S
C524 C526 1.369 . S
C524 H552 0.930 . S
C525 C527 1.383 . S
C525 C528 1.382 1_565 S
C525 H553 0.930 . S
C526 C524 1.369 . S
C526 C528 1.392 . S
C526 H554 0.930 . S
C527 C523 1.373 . S
C527 C525 1.383 . S
C527 H555 0.931 . S
C528 C525 1.382 1_545 S
C528 C526 1.392 . S
C529 Eu520 2.828 . S
C529 C523 1.505 . S
C529 O541 1.249 . S
C529 O542 1.244 . S
O530 Eu521 2.373 . S
O530 C532 1.258 . S
O531 Eu520 2.392 . S
O531 C532 1.242 . S
C532 O530 1.258 . S
C532 O531 1.242 . S
O533 Eu520 2.418 . S
O533 C537 1.244 . S
O534 Eu521 2.488 . S
O534 C550 1.249 . S
O535 Eu521 2.471 . S
O535 C550 1.244 . S
O536 Eu521 2.349 . S
O536 C537 1.265 . S
C537 O533 1.244 . S
C537 O536 1.265 . S
O538 Eu520 2.373 1_545 S
O538 C551 1.258 . S
O539 Eu521 2.392 1_545 S
O539 C551 1.242 . S
O540 Eu521 2.418 1_545 S
O540 C522 1.244 1_545 S
O541 Eu520 2.488 . S
O541 C529 1.249 . S
O542 Eu520 2.471 . S
O542 C529 1.244 . S
O543 Eu520 2.349 . S
O543 C522 1.265 . S
C544 C545 1.379 . S
C544 C548 1.373 . S
C544 C550 1.505 . S
C545 C544 1.379 . S
C545 C547 1.369 . S
C545 H556 0.930 . S
C546 C548 1.383 1_455 S
C546 C549 1.382 1_455 S
C546 H557 0.930 . S
C547 C545 1.369 . S
C547 C549 1.392 . S
C547 H558 0.930 . S
C548 C544 1.373 . S
C548 C546 1.383 1_655 S
C548 H559 0.931 1_655 S
C549 C546 1.382 1_655 S
C549 C547 1.392 . S
C550 Eu521 2.828 . S
C550 O534 1.249 . S
C550 O535 1.244 . S
C550 C544 1.505 . S
C551 O538 1.258 . S
C551 O539 1.242 . S
H552 C524 0.930 . S
H553 C525 0.930 . S
H554 C526 0.930 . S
H555 C527 0.931 . S
H556 C545 0.930 . S
H557 C546 0.930 . S
H558 C547 0.930 . S
H559 C548 0.931 1_455 S
Eu560 C569 2.828 . S
Eu560 O571 2.392 . S
Eu560 O573 2.418 . S
Eu560 O578 2.373 . S
Eu560 O581 2.488 . S
Eu560 O582 2.471 . S
Eu560 O583 2.349 . S
Eu561 O570 2.373 . S
Eu561 O574 2.488 . S
Eu561 O575 2.471 . S
Eu561 O576 2.349 . S
Eu561 O579 2.392 . S
Eu561 O580 2.418 . S
Eu561 C590 2.828 . S
C562 O580 1.244 . S
C562 O583 1.265 . S
C563 C564 1.379 . S
C563 C567 1.373 . S
C563 C569 1.505 . S
C564 C563 1.379 . S
C564 C566 1.369 . S
C564 H592 0.930 . S
C565 C567 1.383 . S
C565 C568 1.382 . S
C565 H593 0.930 . S
C566 C564 1.369 . S
C566 C568 1.392 . S
C566 H594 0.930 . S
C567 C563 1.373 . S
C567 C565 1.383 . S
C567 H595 0.931 . S
C568 C565 1.382 . S
C568 C566 1.392 . S
C569 Eu560 2.828 . S
C569 C563 1.505 . S
C569 O581 1.249 . S
C569 O582 1.244 . S
O570 Eu561 2.373 . S
O570 C572 1.258 . S
O571 Eu560 2.392 . S
O571 C572 1.242 . S
C572 O570 1.258 . S
C572 O571 1.242 . S
O573 Eu560 2.418 . S
O573 C577 1.244 . S
O574 Eu561 2.488 . S
O574 C590 1.249 . S
O575 Eu561 2.471 . S
O575 C590 1.244 . S
O576 Eu561 2.349 . S
O576 C577 1.265 . S
C577 O573 1.244 . S
C577 O576 1.265 . S
O578 Eu560 2.373 . S
O578 C591 1.258 . S
O579 Eu561 2.392 . S
O579 C591 1.242 . S
O580 Eu561 2.418 . S
O580 C562 1.244 . S
O581 Eu560 2.488 . S
O581 C569 1.249 . S
O582 Eu560 2.471 . S
O582 C569 1.244 . S
O583 Eu560 2.349 . S
O583 C562 1.265 . S
C584 C585 1.379 . S
C584 C588 1.373 . S
C584 C590 1.505 . S
C585 C584 1.379 . S
C585 C587 1.369 . S
C585 H596 0.930 . S
C586 C588 1.383 . S
C586 C589 1.382 . S
C586 H597 0.930 . S
C587 C585 1.369 . S
C587 C589 1.392 . S
C587 H598 0.930 . S
C588 C584 1.373 . S
C588 C586 1.383 . S
C588 H599 0.931 . S
C589 C586 1.382 . S
C589 C587 1.392 . S
C590 Eu561 2.828 . S
C590 O574 1.249 . S
C590 O575 1.244 . S
C590 C584 1.505 . S
C591 O578 1.258 . S
C591 O579 1.242 . S
H592 C564 0.930 . S
H593 C565 0.930 . S
H594 C566 0.930 . S
H595 C567 0.931 . S
H596 C585 0.930 . S
H597 C586 0.930 . S
H598 C587 0.930 . S
H599 C588 0.931 . S
Eu600 C609 2.828 . S
Eu600 O611 2.392 . S
Eu600 O613 2.418 . S
Eu600 O618 2.373 1_545 S
Eu600 O621 2.488 . S
Eu600 O622 2.471 . S
Eu600 O623 2.349 . S
Eu601 O610 2.373 . S
Eu601 O614 2.488 . S
Eu601 O615 2.471 . S
Eu601 O616 2.349 . S
Eu601 O619 2.392 1_545 S
Eu601 O620 2.418 1_545 S
Eu601 C630 2.828 . S
C602 O620 1.244 1_545 S
C602 O623 1.265 . S
C603 C604 1.379 1_545 S
C603 C607 1.373 . S
C603 C609 1.505 . S
C604 C603 1.379 1_565 S
C604 C606 1.369 . S
C604 H632 0.930 . S
C605 C607 1.383 . S
C605 C608 1.382 1_545 S
C605 H633 0.930 . S
C606 C604 1.369 . S
C606 C608 1.392 . S
C606 H634 0.930 . S
C607 C603 1.373 . S
C607 C605 1.383 . S
C607 H635 0.931 . S
C608 C605 1.382 1_565 S
C608 C606 1.392 . S
C609 Eu600 2.828 . S
C609 C603 1.505 . S
C609 O621 1.249 . S
C609 O622 1.244 . S
O610 Eu601 2.373 . S
O610 C612 1.258 . S
O611 Eu600 2.392 . S
O611 C612 1.242 . S
C612 O610 1.258 . S
C612 O611 1.242 . S
O613 Eu600 2.418 . S
O613 C617 1.244 . S
O614 Eu601 2.488 . S
O614 C630 1.249 . S
O615 Eu601 2.471 . S
O615 C630 1.244 . S
O616 Eu601 2.349 . S
O616 C617 1.265 . S
C617 O613 1.244 . S
C617 O616 1.265 . S
O618 Eu600 2.373 1_565 S
O618 C631 1.258 . S
O619 Eu601 2.392 1_565 S
O619 C631 1.242 . S
O620 Eu601 2.418 1_565 S
O620 C602 1.244 1_565 S
O621 Eu600 2.488 . S
O621 C609 1.249 . S
O622 Eu600 2.471 . S
O622 C609 1.244 . S
O623 Eu600 2.349 . S
O623 C602 1.265 . S
C624 C625 1.379 . S
C624 C628 1.373 . S
C624 C630 1.505 . S
C625 C624 1.379 . S
C625 C627 1.369 . S
C625 H636 0.930 . S
C626 C628 1.383 . S
C626 C629 1.382 . S
C626 H637 0.930 . S
C627 C625 1.369 . S
C627 C629 1.392 . S
C627 H638 0.930 . S
C628 C624 1.373 . S
C628 C626 1.383 . S
C628 H639 0.931 . S
C629 C626 1.382 . S
C629 C627 1.392 . S
C630 Eu601 2.828 . S
C630 O614 1.249 . S
C630 O615 1.244 . S
C630 C624 1.505 . S
C631 O618 1.258 . S
C631 O619 1.242 . S
H632 C604 0.930 . S
H633 C605 0.930 . S
H634 C606 0.930 . S
H635 C607 0.931 . S
H636 C625 0.930 . S
H637 C626 0.930 . S
H638 C627 0.930 . S
H639 C628 0.931 . S
C640 C641 1.391 . S
C640 C642 1.394 . S
C640 H656 0.931 . S
C641 C640 1.391 . S
C641 C645 1.376 . S
C642 C640 1.394 . S
C642 C643 1.369 . S
C642 C646 1.531 . S
C643 C642 1.369 . S
C643 C644 1.410 . S
C643 C651 1.503 . S
C644 C643 1.410 . S
C644 C645 1.392 . S
C644 C647 1.511 . S
C645 C641 1.376 . S
C645 C644 1.392 . S
C645 H657 0.929 . S
C646 C642 1.531 . S
C646 H658 0.960 . S
C646 H659 0.962 . S
C646 H660 0.960 . S
C647 C644 1.511 . S
C647 H661 0.961 . S
C647 H662 0.961 . S
C647 H663 0.961 . S
C648 C649 1.370 . S
C648 C650 1.363 . S
C648 H664 0.931 . S
C649 C648 1.370 . S
C649 C653 1.408 . S
C650 C648 1.363 . S
C650 C651 1.370 . S
C650 C654 1.524 . S
C651 C643 1.503 . S
C651 C650 1.370 . S
C651 C652 1.403 . S
C652 C651 1.403 . S
C652 C653 1.404 . S
C652 C655 1.539 . S
C653 C649 1.408 . S
C653 C652 1.404 . S
C653 H665 0.930 . S
C654 C650 1.524 . S
C654 H666 0.956 . S
C654 H667 0.961 . S
C654 H668 0.961 . S
C655 C652 1.539 . S
C655 H669 0.958 . S
C655 H670 0.961 . S
C655 H671 0.960 . S
H656 C640 0.931 . S
H657 C645 0.929 . S
H658 C646 0.960 . S
H659 C646 0.962 . S
H660 C646 0.960 . S
H661 C647 0.961 . S
H662 C647 0.961 . S
H663 C647 0.961 . S
H664 C648 0.931 . S
H665 C653 0.930 . S
H666 C654 0.956 . S
H667 C654 0.961 . S
H668 C654 0.961 . S
H669 C655 0.958 . S
H670 C655 0.961 . S
H671 C655 0.960 . S
C672 C673 1.391 . S
C672 C674 1.394 . S
C672 H688 0.931 . S
C673 C672 1.391 . S
C673 C677 1.376 . S
C674 C672 1.394 . S
C674 C675 1.369 . S
C674 C678 1.531 . S
C675 C674 1.369 . S
C675 C676 1.410 . S
C675 C683 1.503 . S
C676 C675 1.410 . S
C676 C677 1.392 . S
C676 C679 1.511 . S
C677 C673 1.376 . S
C677 C676 1.392 . S
C677 H689 0.929 . S
C678 C674 1.531 . S
C678 H690 0.960 . S
C678 H691 0.962 . S
C678 H692 0.960 . S
C679 C676 1.511 . S
C679 H693 0.961 . S
C679 H694 0.961 . S
C679 H695 0.961 . S
C680 C681 1.370 . S
C680 C682 1.363 . S
C680 H696 0.931 . S
C681 C680 1.370 . S
C681 C685 1.408 . S
C682 C680 1.363 . S
C682 C683 1.370 . S
C682 C686 1.524 . S
C683 C675 1.503 . S
C683 C682 1.370 . S
C683 C684 1.403 . S
C684 C683 1.403 . S
C684 C685 1.404 . S
C684 C687 1.539 . S
C685 C681 1.408 . S
C685 C684 1.404 . S
C685 H697 0.930 . S
C686 C682 1.524 . S
C686 H698 0.956 . S
C686 H699 0.961 . S
C686 H700 0.961 . S
C687 C684 1.539 . S
C687 H701 0.958 . S
C687 H702 0.961 . S
C687 H703 0.960 . S
H688 C672 0.931 . S
H689 C677 0.929 . S
H690 C678 0.960 . S
H691 C678 0.962 . S
H692 C678 0.960 . S
H693 C679 0.961 . S
H694 C679 0.961 . S
H695 C679 0.961 . S
H696 C680 0.931 . S
H697 C685 0.930 . S
H698 C686 0.956 . S
H699 C686 0.961 . S
H700 C686 0.961 . S
H701 C687 0.958 . S
H702 C687 0.961 . S
H703 C687 0.960 . S
C704 C705 1.391 . S
C704 C706 1.394 . S
C704 H720 0.931 . S
C705 C704 1.391 . S
C705 C709 1.376 . S
C706 C704 1.394 . S
C706 C707 1.369 . S
C706 C710 1.531 . S
C707 C706 1.369 . S
C707 C708 1.410 . S
C707 C715 1.503 . S
C708 C707 1.410 . S
C708 C709 1.392 . S
C708 C711 1.511 . S
C709 C705 1.376 . S
C709 C708 1.392 . S
C709 H721 0.929 . S
C710 C706 1.531 . S
C710 H722 0.960 . S
C710 H723 0.962 . S
C710 H724 0.960 . S
C711 C708 1.511 . S
C711 H725 0.961 . S
C711 H726 0.961 . S
C711 H727 0.961 . S
C712 C713 1.370 . S
C712 C714 1.363 . S
C712 H728 0.931 . S
C713 C712 1.370 . S
C713 C717 1.408 . S
C714 C712 1.363 . S
C714 C715 1.370 . S
C714 C718 1.524 . S
C715 C707 1.503 . S
C715 C714 1.370 . S
C715 C716 1.403 . S
C716 C715 1.403 . S
C716 C717 1.404 . S
C716 C719 1.539 . S
C717 C713 1.408 . S
C717 C716 1.404 . S
C717 H729 0.930 . S
C718 C714 1.524 . S
C718 H730 0.956 . S
C718 H731 0.961 . S
C718 H732 0.961 . S
C719 C716 1.539 . S
C719 H733 0.958 . S
C719 H734 0.961 . S
C719 H735 0.960 . S
H720 C704 0.931 . S
H721 C709 0.929 . S
H722 C710 0.960 . S
H723 C710 0.962 . S
H724 C710 0.960 . S
H725 C711 0.961 . S
H726 C711 0.961 . S
H727 C711 0.961 . S
H728 C712 0.931 . S
H729 C717 0.930 . S
H730 C718 0.956 . S
H731 C718 0.961 . S
H732 C718 0.961 . S
H733 C719 0.958 . S
H734 C719 0.961 . S
H735 C719 0.960 . S
C736 C737 1.391 . S
C736 C738 1.394 . S
C736 H752 0.931 . S
C737 C736 1.391 . S
C737 C741 1.376 1_455 S
C738 C736 1.394 . S
C738 C739 1.369 . S
C738 C742 1.531 1_556 S
C739 C738 1.369 . S
C739 C740 1.410 1_455 S
C739 C747 1.503 1_556 S
C740 C739 1.410 1_655 S
C740 C741 1.392 . S
C740 C743 1.511 . S
C741 C737 1.376 1_655 S
C741 C740 1.392 . S
C741 H753 0.929 . S
C742 C738 1.531 1_554 S
C742 H754 0.960 . S
C742 H755 0.962 . S
C742 H756 0.960 . S
C743 C740 1.511 . S
C743 H757 0.961 . S
C743 H758 0.961 . S
C743 H759 0.961 . S
C744 C745 1.370 . S
C744 C746 1.363 . S
C744 H760 0.931 . S
C745 C744 1.370 . S
C745 C749 1.414 1_654 S
C746 C744 1.363 . S
C746 C747 1.370 1_655 S
C746 C750 1.524 . S
C747 C739 1.503 1_554 S
C747 C746 1.370 1_455 S
C747 C748 1.403 1_554 S
C748 C747 1.403 1_556 S
C748 C749 1.401 . S
C748 C751 1.539 . S
C749 C745 1.414 1_456 S
C749 C748 1.401 . S
C749 H761 0.927 . S
C750 C746 1.524 . S
C750 H762 0.956 . S
C750 H763 0.961 . S
C750 H764 0.961 . S
C751 C748 1.539 . S
C751 H765 0.958 . S
C751 H766 0.961 . S
C751 H767 0.960 . S
H752 C736 0.931 . S
H753 C741 0.929 . S
H754 C742 0.960 . S
H755 C742 0.962 . S
H756 C742 0.960 . S
H757 C743 0.961 . S
H758 C743 0.961 . S
H759 C743 0.961 . S
H760 C744 0.931 . S
H761 C749 0.927 . S
H762 C750 0.956 . S
H763 C750 0.961 . S
H764 C750 0.961 . S
H765 C751 0.958 . S
H766 C751 0.961 . S
H767 C751 0.960 . S
C768 C769 1.391 . S
C768 C770 1.394 . S
C768 H784 0.931 . S
C769 C768 1.391 . S
C769 C773 1.376 . S
C770 C768 1.394 . S
C770 C771 1.369 . S
C770 C774 1.531 . S
C771 C770 1.369 . S
C771 C772 1.410 . S
C771 C779 1.503 . S
C772 C771 1.410 . S
C772 C773 1.392 . S
C772 C775 1.511 . S
C773 C769 1.376 . S
C773 C772 1.392 . S
C773 H785 0.929 . S
C774 C770 1.531 . S
C774 H786 0.960 . S
C774 H787 0.962 . S
C774 H788 0.960 . S
C775 C772 1.511 . S
C775 H789 0.961 . S
C775 H790 0.961 . S
C775 H791 0.961 . S
C776 C777 1.370 . S
C776 C778 1.363 . S
C776 H792 0.931 . S
C777 C776 1.370 . S
C777 C781 1.408 . S
C778 C776 1.363 . S
C778 C779 1.370 . S
C778 C782 1.524 . S
C779 C771 1.503 . S
C779 C778 1.370 . S
C779 C780 1.403 . S
C780 C779 1.403 . S
C780 C781 1.404 . S
C780 C783 1.539 . S
C781 C777 1.408 . S
C781 C780 1.404 . S
C781 H793 0.930 . S
C782 C778 1.524 . S
C782 H794 0.956 . S
C782 H795 0.961 . S
C782 H796 0.961 . S
C783 C780 1.539 . S
C783 H797 0.958 . S
C783 H798 0.961 . S
C783 H799 0.960 . S
H784 C768 0.931 . S
H785 C773 0.929 . S
H786 C774 0.960 . S
H787 C774 0.962 . S
H788 C774 0.960 . S
H789 C775 0.961 . S
H790 C775 0.961 . S
H791 C775 0.961 . S
H792 C776 0.931 . S
H793 C781 0.930 . S
H794 C782 0.956 . S
H795 C782 0.961 . S
H796 C782 0.961 . S
H797 C783 0.958 . S
H798 C783 0.961 . S
H799 C783 0.960 . S
C800 C801 1.391 . S
C800 C802 1.394 . S
C800 H816 0.931 . S
C801 C800 1.391 . S
C801 C805 1.376 . S
C802 C800 1.394 . S
C802 C803 1.369 . S
C802 C806 1.531 . S
C803 C802 1.369 . S
C803 C804 1.410 . S
C803 C811 1.503 . S
C804 C803 1.410 . S
C804 C805 1.392 . S
C804 C807 1.511 . S
C805 C801 1.376 . S
C805 C804 1.392 . S
C805 H817 0.929 . S
C806 C802 1.531 . S
C806 H818 0.960 . S
C806 H819 0.962 . S
C806 H820 0.960 . S
C807 C804 1.511 . S
C807 H821 0.961 . S
C807 H822 0.961 . S
C807 H823 0.961 . S
C808 C809 1.370 . S
C808 C810 1.363 . S
C808 H824 0.931 . S
C809 C808 1.370 . S
C809 C813 1.408 . S
C810 C808 1.363 . S
C810 C811 1.370 . S
C810 C814 1.524 . S
C811 C803 1.503 . S
C811 C810 1.370 . S
C811 C812 1.403 . S
C812 C811 1.403 . S
C812 C813 1.404 . S
C812 C815 1.539 . S
C813 C809 1.408 . S
C813 C812 1.404 . S
C813 H825 0.930 . S
C814 C810 1.524 . S
C814 H826 0.956 . S
C814 H827 0.961 . S
C814 H828 0.961 . S
C815 C812 1.539 . S
C815 H829 0.958 . S
C815 H830 0.961 . S
C815 H831 0.960 . S
H816 C800 0.931 . S
H817 C805 0.929 . S
H818 C806 0.960 . S
H819 C806 0.962 . S
H820 C806 0.960 . S
H821 C807 0.961 . S
H822 C807 0.961 . S
H823 C807 0.961 . S
H824 C808 0.931 . S
H825 C813 0.930 . S
H826 C814 0.956 . S
H827 C814 0.961 . S
H828 C814 0.961 . S
H829 C815 0.958 . S
H830 C815 0.961 . S
H831 C815 0.960 . S
C832 C833 1.381 1_655 S
C832 C834 1.394 . S
C832 H848 0.931 . S
C833 C832 1.381 1_455 S
C833 C837 1.385 . S
C834 C832 1.394 . S
C834 C835 1.369 . S
C834 C838 1.531 1_554 S
C835 C834 1.369 . S
C835 C836 1.410 1_655 S
C835 C843 1.503 1_564 S
C836 C835 1.410 1_455 S
C836 C837 1.392 . S
C836 C839 1.501 1_565 S
C837 C833 1.385 . S
C837 C836 1.392 . S
C837 H849 0.929 . S
C838 C834 1.531 1_556 S
C838 H850 0.960 . S
C838 H851 0.962 . S
C838 H852 0.960 . S
C839 C836 1.501 1_545 S
C839 H853 0.953 1_545 S
C839 H854 0.972 . S
C839 H855 0.968 . S
C840 C841 1.370 1_455 S
C840 C842 1.363 . S
C840 H856 0.931 . S
C841 C840 1.370 1_655 S
C841 C845 1.464 . S
C842 C840 1.363 . S
C842 C843 1.370 1_455 S
C842 C846 1.524 1_545 S
C843 C835 1.503 1_546 S
C843 C842 1.370 1_655 S
C843 C844 1.403 1_556 S
C844 C843 1.403 1_554 S
C844 C845 1.379 1_554 S
C844 C847 1.539 . S
C845 C841 1.464 . S
C845 C844 1.379 1_556 S
C845 H857 0.904 1_556 S
C846 C842 1.524 1_565 S
C846 H858 0.956 . S
C846 H859 0.961 . S
C846 H860 0.961 1_565 S
C847 C844 1.539 . S
C847 H861 0.958 . S
C847 H862 0.961 . S
C847 H863 0.960 . S
H848 C832 0.931 . S
H849 C837 0.929 . S
H850 C838 0.960 . S
H851 C838 0.962 . S
H852 C838 0.960 . S
H853 C839 0.953 1_565 S
H854 C839 0.972 . S
H855 C839 0.968 . S
H856 C840 0.931 . S
H857 C845 0.904 1_554 S
H858 C846 0.956 . S
H859 C846 0.961 . S
H860 C846 0.961 1_545 S
H861 C847 0.958 . S
H862 C847 0.961 . S
H863 C847 0.960 . S
C864 C865 1.391 . S
C864 C866 1.394 . S
C864 H880 0.931 . S
C865 C864 1.391 . S
C865 C869 1.376 . S
C866 C864 1.394 . S
C866 C867 1.369 . S
C866 C870 1.531 . S
C867 C866 1.369 . S
C867 C868 1.410 . S
C867 C875 1.503 1_565 S
C868 C867 1.410 . S
C868 C869 1.392 . S
C868 C871 1.511 1_565 S
C869 C865 1.376 . S
C869 C868 1.392 . S
C869 H881 0.929 . S
C870 C866 1.531 . S
C870 H882 0.960 . S
C870 H883 0.962 . S
C870 H884 0.960 . S
C871 C868 1.511 1_545 S
C871 H885 0.961 1_545 S
C871 H886 0.961 . S
C871 H887 0.961 . S
C872 C873 1.370 . S
C872 C874 1.363 . S
C872 H888 0.931 . S
C873 C872 1.370 . S
C873 C877 1.408 . S
C874 C872 1.363 . S
C874 C875 1.370 . S
C874 C878 1.524 . S
C875 C867 1.503 1_545 S
C875 C874 1.370 . S
C875 C876 1.403 . S
C876 C875 1.403 . S
C876 C877 1.404 . S
C876 C879 1.539 . S
C877 C873 1.408 . S
C877 C876 1.404 . S
C877 H889 0.930 . S
C878 C874 1.524 . S
C878 H890 0.956 . S
C878 H891 0.961 . S
C878 H892 0.961 . S
C879 C876 1.539 . S
C879 H893 0.958 1_545 S
C879 H894 0.961 . S
C879 H895 0.960 1_545 S
H880 C864 0.931 . S
H881 C869 0.929 . S
H882 C870 0.960 . S
H883 C870 0.962 . S
H884 C870 0.960 . S
H885 C871 0.961 1_565 S
H886 C871 0.961 . S
H887 C871 0.961 . S
H888 C872 0.931 . S
H889 C877 0.930 . S
H890 C878 0.956 . S
H891 C878 0.961 . S
H892 C878 0.961 . S
H893 C879 0.958 1_565 S
H894 C879 0.961 . S
H895 C879 0.960 1_565 S
C896 C897 1.391 . S
C896 C898 1.394 . S
C896 H912 0.931 . S
C897 C896 1.391 . S
C897 C901 1.376 . S
C898 C896 1.394 . S
C898 C899 1.369 . S
C898 C902 1.531 . S
C899 C898 1.369 . S
C899 C900 1.410 . S
C899 C907 1.503 . S
C900 C899 1.410 . S
C900 C901 1.392 . S
C900 C903 1.511 . S
C901 C897 1.376 . S
C901 C900 1.392 . S
C901 H913 0.929 . S
C902 C898 1.531 . S
C902 H914 0.960 . S
C902 H915 0.962 . S
C902 H916 0.960 . S
C903 C900 1.511 . S
C903 H917 0.961 . S
C903 H918 0.961 . S
C903 H919 0.961 . S
C904 C905 1.370 1_566 S
C904 C906 1.363 1_565 S
C904 H920 0.931 1_556 S
C905 C904 1.370 1_544 S
C905 C909 1.408 . S
C906 C904 1.363 1_545 S
C906 C907 1.370 . S
C906 C910 1.524 1_545 S
C907 C899 1.503 . S
C907 C906 1.370 . S
C907 C908 1.403 . S
C908 C907 1.403 . S
C908 C909 1.404 1_556 S
C908 C911 1.539 . S
C909 C905 1.408 . S
C909 C908 1.404 1_554 S
C909 H921 0.930 . S
C910 C906 1.524 1_565 S
C910 H922 0.956 . S
C910 H923 0.961 . S
C910 H924 0.961 . S
C911 C908 1.539 . S
C911 H925 0.958 . S
C911 H926 0.961 . S
C911 H927 0.960 . S
H912 C896 0.931 . S
H913 C901 0.929 . S
H914 C902 0.960 . S
H915 C902 0.962 . S
H916 C902 0.960 . S
H917 C903 0.961 . S
H918 C903 0.961 . S
H919 C903 0.961 . S
H920 C904 0.931 1_554 S
H921 C909 0.930 . S
H922 C910 0.956 . S
H923 C910 0.961 . S
H924 C910 0.961 . S
H925 C911 0.958 . S
H926 C911 0.961 . S
H927 C911 0.960 . S
C928 C929 1.391 . S
C928 C930 1.394 . S
C928 H944 0.931 . S
C929 C928 1.391 . S
C929 C933 1.376 . S
C930 C928 1.394 . S
C930 C931 1.369 . S
C930 C934 1.531 . S
C931 C930 1.369 . S
C931 C932 1.410 . S
C931 C939 1.503 . S
C932 C931 1.410 . S
C932 C933 1.392 . S
C932 C935 1.511 . S
C933 C929 1.376 . S
C933 C932 1.392 . S
C933 H945 0.929 . S
C934 C930 1.531 . S
C934 H946 0.960 . S
C934 H947 0.962 . S
C934 H948 0.960 . S
C935 C932 1.511 . S
C935 H949 0.961 . S
C935 H950 0.961 . S
C935 H951 0.961 . S
C936 C937 1.370 . S
C936 C938 1.363 . S
C936 H952 0.931 . S
C937 C936 1.370 . S
C937 C941 1.408 . S
C938 C936 1.363 . S
C938 C939 1.370 . S
C938 C942 1.524 . S
C939 C931 1.503 . S
C939 C938 1.370 . S
C939 C940 1.403 . S
C940 C939 1.403 . S
C940 C941 1.404 . S
C940 C943 1.539 . S
C941 C937 1.408 . S
C941 C940 1.404 . S
C941 H953 0.930 . S
C942 C938 1.524 . S
C942 H954 0.956 . S
C942 H955 0.961 . S
C942 H956 0.961 . S
C943 C940 1.539 . S
C943 H957 0.958 . S
C943 H958 0.961 . S
C943 H959 0.960 . S
H944 C928 0.931 . S
H945 C933 0.929 . S
H946 C934 0.960 . S
H947 C934 0.962 . S
H948 C934 0.960 . S
H949 C935 0.961 . S
H950 C935 0.961 . S
H951 C935 0.961 . S
H952 C936 0.931 . S
H953 C941 0.930 . S
H954 C942 0.956 . S
H955 C942 0.961 . S
H956 C942 0.961 . S
H957 C943 0.958 . S
H958 C943 0.961 . S
H959 C943 0.960 . S
C960 C961 1.391 . S
C960 C962 1.394 . S
C960 H976 0.931 . S
C961 C960 1.391 . S
C961 C965 1.376 . S
C962 C960 1.394 . S
C962 C963 1.369 . S
C962 C966 1.531 . S
C963 C962 1.369 . S
C963 C964 1.410 . S
C963 C971 1.503 . S
C964 C963 1.410 . S
C964 C965 1.392 . S
C964 C967 1.511 . S
C965 C961 1.376 . S
C965 C964 1.392 . S
C965 H977 0.929 . S
C966 C962 1.531 . S
C966 H978 0.960 . S
C966 H979 0.962 . S
C966 H980 0.960 . S
C967 C964 1.511 . S
C967 H981 0.961 . S
C967 H982 0.961 . S
C967 H983 0.961 1_565 S
C968 C969 1.370 . S
C968 C970 1.363 . S
C968 H984 0.931 . S
C969 C968 1.370 . S
C969 C973 1.408 . S
C970 C968 1.363 . S
C970 C971 1.370 . S
C970 C974 1.524 . S
C971 C963 1.503 . S
C971 C970 1.370 . S
C971 C972 1.403 . S
C972 C971 1.403 . S
C972 C973 1.404 . S
C972 C975 1.539 1_565 S
C973 C969 1.408 . S
C973 C972 1.404 . S
C973 H985 0.930 1_565 S
C974 C970 1.524 . S
C974 H986 0.956 . S
C974 H987 0.961 . S
C974 H988 0.961 . S
C975 C972 1.539 1_545 S
C975 H989 0.958 . S
C975 H990 0.961 . S
C975 H991 0.960 . S
H976 C960 0.931 . S
H977 C965 0.929 . S
H978 C966 0.960 . S
H979 C966 0.962 . S
H980 C966 0.960 . S
H981 C967 0.961 . S
H982 C967 0.961 . S
H983 C967 0.961 1_545 S
H984 C968 0.931 . S
H985 C973 0.930 1_545 S
H986 C974 0.956 . S
H987 C974 0.961 . S
H988 C974 0.961 . S
H989 C975 0.958 . S
H990 C975 0.961 . S
H991 C975 0.960 . S
C992 C993 1.391 . S
C992 C994 1.394 . S
C992 H1008 0.931 . S
C993 C992 1.391 . S
C993 C997 1.376 . S
C994 C992 1.394 . S
C994 C995 1.369 . S
C994 C998 1.531 . S
C995 C994 1.369 . S
C995 C996 1.410 . S
C995 C1003 1.503 . S
C996 C995 1.410 . S
C996 C997 1.392 . S
C996 C999 1.511 . S
C997 C993 1.376 . S
C997 C996 1.392 . S
C997 H1009 0.929 . S
C998 C994 1.531 . S
C998 H1010 0.960 . S
C998 H1011 0.962 . S
C998 H1012 0.960 . S
C999 C996 1.511 . S
C999 H1013 0.961 . S
C999 H1014 0.961 . S
C999 H1015 0.961 . S
C1000 C1001 1.370 . S
C1000 C1002 1.363 . S
C1000 H1016 0.931 . S
C1001 C1000 1.370 . S
C1001 C1005 1.408 . S
C1002 C1000 1.363 . S
C1002 C1003 1.370 . S
C1002 C1006 1.524 . S
C1003 C995 1.503 . S
C1003 C1002 1.370 . S
C1003 C1004 1.403 . S
C1004 C1003 1.403 . S
C1004 C1005 1.404 . S
C1004 C1007 1.539 . S
C1005 C1001 1.408 . S
C1005 C1004 1.404 . S
C1005 H1017 0.930 . S
C1006 C1002 1.524 . S
C1006 H1018 0.956 . S
C1006 H1019 0.961 . S
C1006 H1020 0.961 . S
C1007 C1004 1.539 . S
C1007 H1021 0.958 . S
C1007 H1022 0.961 . S
C1007 H1023 0.960 . S
H1008 C992 0.931 . S
H1009 C997 0.929 . S
H1010 C998 0.960 . S
H1011 C998 0.962 . S
H1012 C998 0.960 . S
H1013 C999 0.961 . S
H1014 C999 0.961 . S
H1015 C999 0.961 . S
H1016 C1000 0.931 . S
H1017 C1005 0.930 . S
H1018 C1006 0.956 . S
H1019 C1006 0.961 . S
H1020 C1006 0.961 . S
H1021 C1007 0.958 . S
H1022 C1007 0.961 . S
H1023 C1007 0.960 . S
C1024 C1025 1.391 . S
C1024 C1026 1.394 . S
C1024 H1040 0.931 . S
C1025 C1024 1.391 . S
C1025 C1029 1.376 . S
C1026 C1024 1.394 . S
C1026 C1027 1.369 . S
C1026 C1030 1.531 . S
C1027 C1026 1.369 . S
C1027 C1028 1.410 . S
C1027 C1035 1.503 . S
C1028 C1027 1.410 . S
C1028 C1029 1.392 . S
C1028 C1031 1.511 . S
C1029 C1025 1.376 . S
C1029 C1028 1.392 . S
C1029 H1041 0.929 . S
C1030 C1026 1.531 . S
C1030 H1042 0.960 . S
C1030 H1043 0.962 . S
C1030 H1044 0.960 . S
C1031 C1028 1.511 . S
C1031 H1045 0.961 1_565 S
C1031 H1046 0.961 1_565 S
C1031 H1047 0.961 . S
C1032 C1033 1.361 1_554 S
C1032 C1034 1.379 . S
C1032 H1048 0.924 1_564 S
C1033 C1032 1.361 1_556 S
C1033 C1037 1.408 . S
C1034 C1032 1.379 . S
C1034 C1035 1.370 . S
C1034 C1038 1.524 1_565 S
C1035 C1027 1.503 . S
C1035 C1034 1.370 . S
C1035 C1036 1.403 . S
C1036 C1035 1.403 . S
C1036 C1037 1.404 1_554 S
C1036 C1039 1.539 . S
C1037 C1033 1.408 . S
C1037 C1036 1.404 1_556 S
C1037 H1049 0.930 . S
C1038 C1034 1.524 1_545 S
C1038 H1050 0.951 1_545 S
C1038 H1051 0.961 . S
C1038 H1052 0.961 . S
C1039 C1036 1.539 . S
C1039 H1053 0.958 . S
C1039 H1054 0.961 . S
C1039 H1055 0.960 . S
H1040 C1024 0.931 . S
H1041 C1029 0.929 . S
H1042 C1030 0.960 . S
H1043 C1030 0.962 . S
H1044 C1030 0.960 . S
H1045 C1031 0.961 1_545 S
H1046 C1031 0.961 1_545 S
H1047 C1031 0.961 . S
H1048 C1032 0.924 1_546 S
H1049 C1037 0.930 . S
H1050 C1038 0.951 1_565 S
H1051 C1038 0.961 . S
H1052 C1038 0.961 . S
H1053 C1039 0.958 . S
H1054 C1039 0.961 . S
H1055 C1039 0.960 . S
C1056 C1057 1.391 . S
C1056 C1058 1.394 . S
C1056 H1072 0.931 . S
C1057 C1056 1.391 . S
C1057 C1061 1.376 . S
C1058 C1056 1.394 . S
C1058 C1059 1.369 . S
C1058 C1062 1.531 . S
C1059 C1058 1.369 . S
C1059 C1060 1.410 . S
C1059 C1067 1.503 . S
C1060 C1059 1.410 . S
C1060 C1061 1.392 . S
C1060 C1063 1.511 . S
C1061 C1057 1.376 . S
C1061 C1060 1.392 . S
C1061 H1073 0.929 . S
C1062 C1058 1.531 . S
C1062 H1074 0.960 . S
C1062 H1075 0.962 . S
C1062 H1076 0.960 . S
C1063 C1060 1.511 . S
C1063 H1077 0.961 . S
C1063 H1078 0.961 . S
C1063 H1079 0.961 . S
C1064 C1065 1.370 . S
C1064 C1066 1.363 . S
C1064 H1080 0.931 . S
C1065 C1064 1.370 . S
C1065 C1069 1.408 . S
C1066 C1064 1.363 . S
C1066 C1067 1.370 . S
C1066 C1070 1.524 . S
C1067 C1059 1.503 . S
C1067 C1066 1.370 . S
C1067 C1068 1.403 . S
C1068 C1067 1.403 . S
C1068 C1069 1.404 . S
C1068 C1071 1.539 . S
C1069 C1065 1.408 . S
C1069 C1068 1.404 . S
C1069 H1081 0.930 . S
C1070 C1066 1.524 . S
C1070 H1082 0.956 . S
C1070 H1083 0.961 . S
C1070 H1084 0.961 . S
C1071 C1068 1.539 . S
C1071 H1085 0.958 . S
C1071 H1086 0.961 . S
C1071 H1087 0.960 . S
H1072 C1056 0.931 . S
H1073 C1061 0.929 . S
H1074 C1062 0.960 . S
H1075 C1062 0.962 . S
H1076 C1062 0.960 . S
H1077 C1063 0.961 . S
H1078 C1063 0.961 . S
H1079 C1063 0.961 . S
H1080 C1064 0.931 . S
H1081 C1069 0.930 . S
H1082 C1070 0.956 . S
H1083 C1070 0.961 . S
H1084 C1070 0.961 . S
H1085 C1071 0.958 . S
H1086 C1071 0.961 . S
H1087 C1071 0.960 . S
C1088 C1089 1.391 . S
C1088 C1090 1.394 . S
C1088 H1104 0.931 1_545 S
C1089 C1088 1.391 . S
C1089 C1093 1.376 . S
C1090 C1088 1.394 . S
C1090 C1091 1.369 . S
C1090 C1094 1.531 1_545 S
C1091 C1090 1.369 . S
C1091 C1092 1.410 . S
C1091 C1099 1.503 . S
C1092 C1091 1.410 . S
C1092 C1093 1.392 . S
C1092 C1095 1.511 . S
C1093 C1089 1.376 . S
C1093 C1092 1.392 . S
C1093 H1105 0.929 . S
C1094 C1090 1.531 1_565 S
C1094 H1106 0.960 . S
C1094 H1107 0.953 1_565 S
C1094 H1108 0.960 . S
C1095 C1092 1.511 . S
C1095 H1109 0.961 . S
C1095 H1110 0.961 . S
C1095 H1111 0.961 . S
C1096 C1097 1.370 . S
C1096 C1098 1.363 . S
C1096 H1112 0.931 . S
C1097 C1096 1.370 . S
C1097 C1101 1.408 . S
C1098 C1096 1.363 . S
C1098 C1099 1.370 . S
C1098 C1102 1.524 . S
C1099 C1091 1.503 . S
C1099 C1098 1.370 . S
C1099 C1100 1.403 . S
C1100 C1099 1.403 . S
C1100 C1101 1.404 . S
C1100 C1103 1.539 1_545 S
C1101 C1097 1.408 . S
C1101 C1100 1.404 . S
C1101 H1113 0.930 . S
C1102 C1098 1.524 . S
C1102 H1114 0.956 . S
C1102 H1115 0.961 . S
C1102 H1116 0.961 . S
C1103 C1100 1.539 1_565 S
C1103 H1117 0.958 . S
C1103 H1118 0.961 . S
C1103 H1119 0.960 . S
H1104 C1088 0.931 1_565 S
H1105 C1093 0.929 . S
H1106 C1094 0.960 . S
H1107 C1094 0.953 1_545 S
H1108 C1094 0.960 . S
H1109 C1095 0.961 . S
H1110 C1095 0.961 . S
H1111 C1095 0.961 . S
H1112 C1096 0.931 . S
H1113 C1101 0.930 . S
H1114 C1102 0.956 . S
H1115 C1102 0.961 . S
H1116 C1102 0.961 . S
H1117 C1103 0.958 . S
H1118 C1103 0.961 . S
H1119 C1103 0.960 . S
C1120 C1121 1.391 . S
C1120 C1122 1.394 . S
C1120 H1136 0.931 . S
C1121 C1120 1.391 . S
C1121 C1125 1.376 . S
C1122 C1120 1.394 . S
C1122 C1123 1.369 . S
C1122 C1126 1.531 . S
C1123 C1122 1.369 . S
C1123 C1124 1.410 . S
C1123 C1131 1.503 . S
C1124 C1123 1.410 . S
C1124 C1125 1.392 . S
C1124 C1127 1.511 . S
C1125 C1121 1.376 . S
C1125 C1124 1.392 . S
C1125 H1137 0.929 . S
C1126 C1122 1.531 . S
C1126 H1138 0.960 . S
C1126 H1139 0.962 . S
C1126 H1140 0.960 . S
C1127 C1124 1.511 . S
C1127 H1141 0.961 . S
C1127 H1142 0.961 . S
C1127 H1143 0.961 . S
C1128 C1129 1.370 . S
C1128 C1130 1.363 . S
C1128 H1144 0.931 . S
C1129 C1128 1.370 . S
C1129 C1133 1.408 . S
C1130 C1128 1.363 . S
C1130 C1131 1.370 . S
C1130 C1134 1.524 . S
C1131 C1123 1.503 . S
C1131 C1130 1.370 . S
C1131 C1132 1.403 . S
C1132 C1131 1.403 . S
C1132 C1133 1.404 . S
C1132 C1135 1.539 . S
C1133 C1129 1.408 . S
C1133 C1132 1.404 . S
C1133 H1145 0.930 . S
C1134 C1130 1.524 . S
C1134 H1146 0.956 . S
C1134 H1147 0.961 . S
C1134 H1148 0.961 . S
C1135 C1132 1.539 . S
C1135 H1149 0.958 . S
C1135 H1150 0.961 . S
C1135 H1151 0.960 . S
H1136 C1120 0.931 . S
H1137 C1125 0.929 . S
H1138 C1126 0.960 . S
H1139 C1126 0.962 . S
H1140 C1126 0.960 . S
H1141 C1127 0.961 . S
H1142 C1127 0.961 . S
H1143 C1127 0.961 . S
H1144 C1128 0.931 . S
H1145 C1133 0.930 . S
H1146 C1134 0.956 . S
H1147 C1134 0.961 . S
H1148 C1134 0.961 . S
H1149 C1135 0.958 . S
H1150 C1135 0.961 . S
H1151 C1135 0.960 . S
C1152 C1153 1.391 . S
C1152 C1154 1.394 . S
C1152 H1168 0.931 . S
C1153 C1152 1.391 . S
C1153 C1157 1.376 . S
C1154 C1152 1.394 . S
C1154 C1155 1.369 . S
C1154 C1158 1.531 . S
C1155 C1154 1.369 . S
C1155 C1156 1.410 . S
C1155 C1163 1.503 . S
C1156 C1155 1.410 . S
C1156 C1157 1.392 . S
C1156 C1159 1.511 . S
C1157 C1153 1.376 . S
C1157 C1156 1.392 . S
C1157 H1169 0.929 . S
C1158 C1154 1.531 . S
C1158 H1170 0.960 . S
C1158 H1171 0.962 . S
C1158 H1172 0.960 . S
C1159 C1156 1.511 . S
C1159 H1173 0.961 . S
C1159 H1174 0.961 . S
C1159 H1175 0.961 . S
C1160 C1161 1.370 . S
C1160 C1162 1.363 . S
C1160 H1176 0.931 . S
C1161 C1160 1.370 . S
C1161 C1165 1.408 . S
C1162 C1160 1.363 . S
C1162 C1163 1.370 . S
C1162 C1166 1.524 . S
C1163 C1155 1.503 . S
C1163 C1162 1.370 . S
C1163 C1164 1.403 . S
C1164 C1163 1.403 . S
C1164 C1165 1.404 . S
C1164 C1167 1.539 . S
C1165 C1161 1.408 . S
C1165 C1164 1.404 . S
C1165 H1177 0.930 . S
C1166 C1162 1.524 . S
C1166 H1178 0.956 . S
C1166 H1179 0.961 . S
C1166 H1180 0.961 . S
C1167 C1164 1.539 . S
C1167 H1181 0.958 . S
C1167 H1182 0.961 . S
C1167 H1183 0.960 . S
H1168 C1152 0.931 . S
H1169 C1157 0.929 . S
H1170 C1158 0.960 . S
H1171 C1158 0.962 . S
H1172 C1158 0.960 . S
H1173 C1159 0.961 . S
H1174 C1159 0.961 . S
H1175 C1159 0.961 . S
H1176 C1160 0.931 . S
H1177 C1165 0.930 . S
H1178 C1166 0.956 . S
H1179 C1166 0.961 . S
H1180 C1166 0.961 . S
H1181 C1167 0.958 . S
H1182 C1167 0.961 . S
H1183 C1167 0.960 . S
C1184 C1185 1.391 . S
C1184 C1186 1.394 . S
C1184 H1200 0.932 . S
C1185 C1184 1.391 . S
C1185 C1189 1.376 . S
C1186 C1184 1.394 . S
C1186 C1187 1.369 . S
C1186 C1190 1.539 . S
C1187 C1186 1.369 . S
C1187 C1188 1.410 . S
C1187 C1195 1.503 . S
C1188 C1187 1.410 . S
C1188 C1189 1.392 . S
C1188 C1191 1.511 . S
C1189 C1185 1.376 . S
C1189 C1188 1.392 . S
C1189 H1201 0.929 . S
C1190 C1186 1.539 . S
C1190 H1202 0.954 1_565 S
C1190 H1203 0.978 . S
C1190 H1204 0.942 1_565 S
C1191 C1188 1.511 . S
C1191 H1205 0.961 . S
C1191 H1206 0.961 . S
C1191 H1207 0.961 . S
C1192 C1193 1.370 . S
C1192 C1194 1.363 . S
C1192 H1208 0.931 . S
C1193 C1192 1.370 . S
C1193 C1197 1.408 . S
C1194 C1192 1.363 . S
C1194 C1195 1.370 . S
C1194 C1198 1.524 . S
C1195 C1187 1.503 . S
C1195 C1194 1.370 . S
C1195 C1196 1.403 . S
C1196 C1195 1.403 . S
C1196 C1197 1.404 . S
C1196 C1199 1.539 1_565 S
C1197 C1193 1.408 . S
C1197 C1196 1.404 . S
C1197 H1209 0.930 . S
C1198 C1194 1.524 . S
C1198 H1210 0.956 . S
C1198 H1211 0.961 . S
C1198 H1212 0.961 . S
C1199 C1196 1.539 1_545 S
C1199 H1213 0.958 . S
C1199 H1214 0.961 . S
C1199 H1215 0.960 . S
H1200 C1184 0.932 . S
H1201 C1189 0.929 . S
H1202 C1190 0.954 1_545 S
H1203 C1190 0.978 . S
H1204 C1190 0.942 1_545 S
H1205 C1191 0.961 . S
H1206 C1191 0.961 . S
H1207 C1191 0.961 . S
H1208 C1192 0.931 . S
H1209 C1197 0.930 . S
H1210 C1198 0.956 . S
H1211 C1198 0.961 . S
H1212 C1198 0.961 . S
H1213 C1199 0.958 . S
H1214 C1199 0.961 . S
H1215 C1199 0.960 . S
C1216 C1217 1.391 . S
C1216 C1218 1.394 1_554 S
C1216 H1232 0.931 . S
C1217 C1216 1.391 . S
C1217 C1221 1.376 1_554 S
C1218 C1216 1.394 1_556 S
C1218 C1219 1.369 . S
C1218 C1222 1.531 . S
C1219 C1218 1.369 . S
C1219 C1220 1.410 . S
C1219 C1227 1.503 . S
C1220 C1219 1.410 . S
C1220 C1221 1.392 . S
C1220 C1223 1.511 . S
C1221 C1217 1.376 1_556 S
C1221 C1220 1.392 . S
C1221 H1233 0.929 1_556 S
C1222 C1218 1.531 . S
C1222 H1234 0.960 . S
C1222 H1235 0.962 . S
C1222 H1236 0.960 . S
C1223 C1220 1.511 . S
C1223 H1237 0.961 . S
C1223 H1238 0.961 . S
C1223 H1239 0.961 . S
C1224 C1225 1.370 . S
C1224 C1226 1.363 . S
C1224 H1240 0.931 . S
C1225 C1224 1.370 . S
C1225 C1229 1.408 . S
C1226 C1224 1.363 . S
C1226 C1227 1.370 . S
C1226 C1230 1.524 . S
C1227 C1219 1.503 . S
C1227 C1226 1.370 . S
C1227 C1228 1.403 . S
C1228 C1227 1.403 . S
C1228 C1229 1.404 . S
C1228 C1231 1.539 . S
C1229 C1225 1.408 . S
C1229 C1228 1.404 . S
C1229 H1241 0.930 . S
C1230 C1226 1.524 . S
C1230 H1242 0.956 . S
C1230 H1243 0.961 . S
C1230 H1244 0.961 . S
C1231 C1228 1.539 . S
C1231 H1245 0.958 . S
C1231 H1246 0.961 . S
C1231 H1247 0.960 . S
H1232 C1216 0.931 . S
H1233 C1221 0.929 1_554 S
H1234 C1222 0.960 . S
H1235 C1222 0.962 . S
H1236 C1222 0.960 . S
H1237 C1223 0.961 . S
H1238 C1223 0.961 . S
H1239 C1223 0.961 . S
H1240 C1224 0.931 . S
H1241 C1229 0.930 . S
H1242 C1230 0.956 . S
H1243 C1230 0.961 . S
H1244 C1230 0.961 . S
H1245 C1231 0.958 . S
H1246 C1231 0.961 . S
H1247 C1231 0.960 . S
C1248 C1249 1.391 . S
C1248 C1250 1.394 . S
C1248 H1264 0.931 . S
C1249 C1248 1.391 . S
C1249 C1253 1.376 . S
C1250 C1248 1.394 . S
C1250 C1251 1.369 . S
C1250 C1254 1.531 . S
C1251 C1250 1.369 . S
C1251 C1252 1.410 . S
C1251 C1259 1.503 . S
C1252 C1251 1.410 . S
C1252 C1253 1.392 . S
C1252 C1255 1.511 1_545 S
C1253 C1249 1.376 . S
C1253 C1252 1.392 . S
C1253 H1265 0.929 . S
C1254 C1250 1.531 . S
C1254 H1266 0.960 . S
C1254 H1267 0.962 . S
C1254 H1268 0.960 . S
C1255 C1252 1.511 1_565 S
C1255 H1269 0.961 . S
C1255 H1270 0.961 . S
C1255 H1271 0.961 1_565 S
C1256 C1257 1.370 . S
C1256 C1258 1.363 . S
C1256 H1272 0.931 . S
C1257 C1256 1.370 . S
C1257 C1261 1.408 . S
C1258 C1256 1.363 . S
C1258 C1259 1.370 . S
C1258 C1262 1.524 . S
C1259 C1251 1.503 . S
C1259 C1258 1.370 . S
C1259 C1260 1.403 . S
C1260 C1259 1.403 . S
C1260 C1261 1.404 . S
C1260 C1263 1.539 . S
C1261 C1257 1.408 . S
C1261 C1260 1.404 . S
C1261 H1273 0.930 . S
C1262 C1258 1.524 . S
C1262 H1274 0.956 . S
C1262 H1275 0.961 1_545 S
C1262 H1276 0.961 1_545 S
C1263 C1260 1.539 . S
C1263 H1277 0.958 . S
C1263 H1278 0.961 . S
C1263 H1279 0.960 . S
H1264 C1248 0.931 . S
H1265 C1253 0.929 . S
H1266 C1254 0.960 . S
H1267 C1254 0.962 . S
H1268 C1254 0.960 . S
H1269 C1255 0.961 . S
H1270 C1255 0.961 . S
H1271 C1255 0.961 1_545 S
H1272 C1256 0.931 . S
H1273 C1261 0.930 . S
H1274 C1262 0.956 . S
H1275 C1262 0.961 1_565 S
H1276 C1262 0.961 1_565 S
H1277 C1263 0.958 . S
H1278 C1263 0.961 . S
H1279 C1263 0.960 . S
C1280 C1281 1.391 . S
C1280 C1282 1.394 . S
C1280 H1296 0.931 . S
C1281 C1280 1.391 . S
C1281 C1285 1.376 . S
C1282 C1280 1.394 . S
C1282 C1283 1.369 . S
C1282 C1286 1.531 . S
C1283 C1282 1.369 . S
C1283 C1284 1.410 . S
C1283 C1291 1.503 . S
C1284 C1283 1.410 . S
C1284 C1285 1.392 . S
C1284 C1287 1.511 . S
C1285 C1281 1.376 . S
C1285 C1284 1.392 . S
C1285 H1297 0.929 . S
C1286 C1282 1.531 . S
C1286 H1298 0.960 . S
C1286 H1299 0.962 . S
C1286 H1300 0.960 . S
C1287 C1284 1.511 . S
C1287 H1301 0.961 . S
C1287 H1302 0.961 . S
C1287 H1303 0.961 . S
C1288 C1289 1.370 . S
C1288 C1290 1.363 . S
C1288 H1304 0.931 . S
C1289 C1288 1.370 . S
C1289 C1293 1.408 . S
C1290 C1288 1.363 . S
C1290 C1291 1.370 . S
C1290 C1294 1.524 . S
C1291 C1283 1.503 . S
C1291 C1290 1.370 . S
C1291 C1292 1.403 . S
C1292 C1291 1.403 . S
C1292 C1293 1.404 . S
C1292 C1295 1.539 . S
C1293 C1289 1.408 . S
C1293 C1292 1.404 . S
C1293 H1305 0.930 . S
C1294 C1290 1.524 . S
C1294 H1306 0.956 . S
C1294 H1307 0.961 . S
C1294 H1308 0.961 . S
C1295 C1292 1.539 . S
C1295 H1309 0.958 . S
C1295 H1310 0.961 . S
C1295 H1311 0.960 . S
H1296 C1280 0.931 . S
H1297 C1285 0.929 . S
H1298 C1286 0.960 . S
H1299 C1286 0.962 . S
H1300 C1286 0.960 . S
H1301 C1287 0.961 . S
H1302 C1287 0.961 . S
H1303 C1287 0.961 . S
H1304 C1288 0.931 . S
H1305 C1293 0.930 . S
H1306 C1294 0.956 . S
H1307 C1294 0.961 . S
H1308 C1294 0.961 . S
H1309 C1295 0.958 . S
H1310 C1295 0.961 . S
H1311 C1295 0.960 . S
C1312 C1313 1.391 . S
C1312 C1314 1.394 . S
C1312 H1328 0.931 1_545 S
C1313 C1312 1.391 . S
C1313 C1317 1.376 . S
C1314 C1312 1.394 . S
C1314 C1315 1.369 . S
C1314 C1318 1.531 1_545 S
C1315 C1314 1.369 . S
C1315 C1316 1.410 . S
C1315 C1323 1.503 . S
C1316 C1315 1.410 . S
C1316 C1317 1.392 . S
C1316 C1319 1.511 . S
C1317 C1313 1.376 . S
C1317 C1316 1.392 . S
C1317 H1329 0.929 . S
C1318 C1314 1.531 1_565 S
C1318 H1330 0.960 . S
C1318 H1331 0.962 1_565 S
C1318 H1332 0.960 . S
C1319 C1316 1.511 . S
C1319 H1333 0.961 . S
C1319 H1334 0.961 . S
C1319 H1335 0.961 . S
C1320 C1321 1.370 . S
C1320 C1322 1.363 . S
C1320 H1336 0.931 . S
C1321 C1320 1.370 . S
C1321 C1325 1.408 . S
C1322 C1320 1.363 . S
C1322 C1323 1.370 . S
C1322 C1326 1.524 . S
C1323 C1315 1.503 . S
C1323 C1322 1.370 . S
C1323 C1324 1.403 . S
C1324 C1323 1.403 . S
C1324 C1325 1.404 . S
C1324 C1327 1.539 1_545 S
C1325 C1321 1.408 . S
C1325 C1324 1.404 . S
C1325 H1337 0.930 . S
C1326 C1322 1.524 . S
C1326 H1338 0.956 . S
C1326 H1339 0.961 . S
C1326 H1340 0.961 . S
C1327 C1324 1.539 1_565 S
C1327 H1341 0.958 . S
C1327 H1342 0.961 . S
C1327 H1343 0.960 . S
H1328 C1312 0.931 1_565 S
H1329 C1317 0.929 . S
H1330 C1318 0.960 . S
H1331 C1318 0.962 1_545 S
H1332 C1318 0.960 . S
H1333 C1319 0.961 . S
H1334 C1319 0.961 . S
H1335 C1319 0.961 . S
H1336 C1320 0.931 . S
H1337 C1325 0.930 . S
H1338 C1326 0.956 . S
H1339 C1326 0.961 . S
H1340 C1326 0.961 . S
H1341 C1327 0.958 . S
H1342 C1327 0.961 . S
H1343 C1327 0.960 . S
C1344 C1345 1.391 . S
C1344 C1346 1.394 . S
C1344 H1360 0.931 . S
C1345 C1344 1.391 . S
C1345 C1349 1.376 . S
C1346 C1344 1.394 . S
C1346 C1347 1.369 . S
C1346 C1350 1.531 . S
C1347 C1346 1.369 . S
C1347 C1348 1.410 . S
C1347 C1355 1.503 . S
C1348 C1347 1.410 . S
C1348 C1349 1.392 . S
C1348 C1351 1.511 . S
C1349 C1345 1.376 . S
C1349 C1348 1.392 . S
C1349 H1361 0.929 . S
C1350 C1346 1.531 . S
C1350 H1362 0.960 . S
C1350 H1363 0.962 . S
C1350 H1364 0.960 . S
C1351 C1348 1.511 . S
C1351 H1365 0.961 . S
C1351 H1366 0.961 . S
C1351 H1367 0.961 . S
C1352 C1353 1.370 1_554 S
C1352 C1354 1.363 . S
C1352 H1368 0.931 1_554 S
C1353 C1352 1.370 1_556 S
C1353 C1357 1.408 . S
C1354 C1352 1.363 . S
C1354 C1355 1.370 . S
C1354 C1358 1.524 . S
C1355 C1347 1.503 . S
C1355 C1354 1.370 . S
C1355 C1356 1.403 . S
C1356 C1355 1.403 . S
C1356 C1357 1.404 1_554 S
C1356 C1359 1.539 . S
C1357 C1353 1.408 . S
C1357 C1356 1.404 1_556 S
C1357 H1369 0.930 . S
C1358 C1354 1.524 . S
C1358 H1370 0.956 . S
C1358 H1371 0.961 . S
C1358 H1372 0.961 . S
C1359 C1356 1.539 . S
C1359 H1373 0.958 . S
C1359 H1374 0.961 . S
C1359 H1375 0.960 . S
H1360 C1344 0.931 . S
H1361 C1349 0.929 . S
H1362 C1350 0.960 . S
H1363 C1350 0.962 . S
H1364 C1350 0.960 . S
H1365 C1351 0.961 . S
H1366 C1351 0.961 . S
H1367 C1351 0.961 . S
H1368 C1352 0.931 1_556 S
H1369 C1357 0.930 . S
H1370 C1358 0.956 . S
H1371 C1358 0.961 . S
H1372 C1358 0.961 . S
H1373 C1359 0.958 . S
H1374 C1359 0.961 . S
H1375 C1359 0.960 . S
C1376 C1377 1.391 . S
C1376 C1378 1.394 . S
C1376 H1392 0.931 . S
C1377 C1376 1.391 . S
C1377 C1381 1.376 . S
C1378 C1376 1.394 . S
C1378 C1379 1.369 . S
C1378 C1382 1.531 . S
C1379 C1378 1.369 . S
C1379 C1380 1.410 . S
C1379 C1387 1.503 . S
C1380 C1379 1.410 . S
C1380 C1381 1.392 . S
C1380 C1383 1.511 . S
C1381 C1377 1.376 . S
C1381 C1380 1.392 . S
C1381 H1393 0.929 1_565 S
C1382 C1378 1.531 . S
C1382 H1394 0.960 . S
C1382 H1395 0.962 . S
C1382 H1396 0.960 . S
C1383 C1380 1.511 . S
C1383 H1397 0.961 1_565 S
C1383 H1398 0.961 1_565 S
C1383 H1399 0.961 . S
C1384 C1385 1.370 . S
C1384 C1386 1.363 . S
C1384 H1400 0.931 . S
C1385 C1384 1.370 . S
C1385 C1389 1.408 . S
C1386 C1384 1.363 . S
C1386 C1387 1.370 . S
C1386 C1390 1.524 . S
C1387 C1379 1.503 . S
C1387 C1386 1.370 . S
C1387 C1388 1.403 . S
C1388 C1387 1.403 . S
C1388 C1389 1.404 . S
C1388 C1391 1.539 . S
C1389 C1385 1.408 . S
C1389 C1388 1.404 . S
C1389 H1401 0.930 . S
C1390 C1386 1.524 . S
C1390 H1402 0.956 . S
C1390 H1403 0.961 1_565 S
C1390 H1404 0.961 1_565 S
C1391 C1388 1.539 . S
C1391 H1405 0.958 . S
C1391 H1406 0.961 . S
C1391 H1407 0.960 . S
H1392 C1376 0.931 . S
H1393 C1381 0.929 1_545 S
H1394 C1382 0.960 . S
H1395 C1382 0.962 . S
H1396 C1382 0.960 . S
H1397 C1383 0.961 1_545 S
H1398 C1383 0.961 1_545 S
H1399 C1383 0.961 . S
H1400 C1384 0.931 . S
H1401 C1389 0.930 . S
H1402 C1390 0.956 . S
H1403 C1390 0.961 1_545 S
H1404 C1390 0.961 1_545 S
H1405 C1391 0.958 . S
H1406 C1391 0.961 . S
H1407 C1391 0.960 . S
C1408 C1409 1.391 . S
C1408 C1410 1.394 . S
C1408 H1424 0.931 . S
C1409 C1408 1.391 . S
C1409 C1413 1.376 . S
C1410 C1408 1.394 . S
C1410 C1411 1.369 . S
C1410 C1414 1.531 . S
C1411 C1410 1.369 . S
C1411 C1412 1.410 . S
C1411 C1419 1.503 . S
C1412 C1411 1.410 . S
C1412 C1413 1.392 . S
C1412 C1415 1.511 . S
C1413 C1409 1.376 . S
C1413 C1412 1.392 . S
C1413 H1425 0.929 . S
C1414 C1410 1.531 . S
C1414 H1426 0.960 . S
C1414 H1427 0.962 . S
C1414 H1428 0.960 . S
C1415 C1412 1.511 . S
C1415 H1429 0.961 . S
C1415 H1430 0.961 . S
C1415 H1431 0.961 . S
C1416 C1417 1.370 . S
C1416 C1418 1.363 . S
C1416 H1432 0.931 . S
C1417 C1416 1.370 . S
C1417 C1421 1.408 . S
C1418 C1416 1.363 . S
C1418 C1419 1.370 . S
C1418 C1422 1.524 . S
C1419 C1411 1.503 . S
C1419 C1418 1.370 . S
C1419 C1420 1.403 . S
C1420 C1419 1.403 . S
C1420 C1421 1.404 . S
C1420 C1423 1.539 . S
C1421 C1417 1.408 . S
C1421 C1420 1.404 . S
C1421 H1433 0.930 . S
C1422 C1418 1.524 . S
C1422 H1434 0.956 . S
C1422 H1435 0.961 . S
C1422 H1436 0.961 . S
C1423 C1420 1.539 . S
C1423 H1437 0.958 . S
C1423 H1438 0.961 . S
C1423 H1439 0.960 . S
H1424 C1408 0.931 . S
H1425 C1413 0.929 . S
H1426 C1414 0.960 . S
H1427 C1414 0.962 . S
H1428 C1414 0.960 . S
H1429 C1415 0.961 . S
H1430 C1415 0.961 . S
H1431 C1415 0.961 . S
H1432 C1416 0.931 . S
H1433 C1421 0.930 . S
H1434 C1422 0.956 . S
H1435 C1422 0.961 . S
H1436 C1422 0.961 . S
H1437 C1423 0.958 . S
H1438 C1423 0.961 . S
H1439 C1423 0.960 . S
C1440 C1441 1.391 . S
C1440 C1442 1.394 . S
C1440 H1456 0.931 . S
C1441 C1440 1.391 . S
C1441 C1445 1.376 . S
C1442 C1440 1.394 . S
C1442 C1443 1.369 . S
C1442 C1446 1.531 . S
C1443 C1442 1.369 . S
C1443 C1444 1.410 . S
C1443 C1451 1.503 . S
C1444 C1443 1.410 . S
C1444 C1445 1.392 . S
C1444 C1447 1.511 . S
C1445 C1441 1.376 . S
C1445 C1444 1.392 . S
C1445 H1457 0.929 . S
C1446 C1442 1.531 . S
C1446 H1458 0.960 . S
C1446 H1459 0.962 . S
C1446 H1460 0.960 . S
C1447 C1444 1.511 . S
C1447 H1461 0.961 . S
C1447 H1462 0.961 . S
C1447 H1463 0.961 . S
C1448 C1449 1.370 . S
C1448 C1450 1.363 . S
C1448 H1464 0.931 . S
C1449 C1448 1.370 . S
C1449 C1453 1.408 . S
C1450 C1448 1.363 . S
C1450 C1451 1.370 . S
C1450 C1454 1.524 . S
C1451 C1443 1.503 . S
C1451 C1450 1.370 . S
C1451 C1452 1.403 . S
C1452 C1451 1.403 . S
C1452 C1453 1.404 . S
C1452 C1455 1.539 . S
C1453 C1449 1.408 . S
C1453 C1452 1.404 . S
C1453 H1465 0.930 . S
C1454 C1450 1.524 . S
C1454 H1466 0.956 . S
C1454 H1467 0.961 . S
C1454 H1468 0.961 . S
C1455 C1452 1.539 . S
C1455 H1469 0.958 . S
C1455 H1470 0.961 . S
C1455 H1471 0.960 . S
H1456 C1440 0.931 . S
H1457 C1445 0.929 . S
H1458 C1446 0.960 . S
H1459 C1446 0.962 . S
H1460 C1446 0.960 . S
H1461 C1447 0.961 . S
H1462 C1447 0.961 . S
H1463 C1447 0.961 . S
H1464 C1448 0.931 . S
H1465 C1453 0.930 . S
H1466 C1454 0.956 . S
H1467 C1454 0.961 . S
H1468 C1454 0.961 . S
H1469 C1455 0.958 . S
H1470 C1455 0.961 . S
H1471 C1455 0.960 . S
C1472 C1473 1.391 . S
C1472 C1474 1.394 . S
C1472 H1488 0.931 . S
C1473 C1472 1.391 . S
C1473 C1477 1.376 . S
C1474 C1472 1.394 . S
C1474 C1475 1.369 . S
C1474 C1478 1.531 . S
C1475 C1474 1.369 . S
C1475 C1476 1.410 . S
C1475 C1483 1.503 1_655 S
C1476 C1475 1.410 . S
C1476 C1477 1.392 . S
C1476 C1479 1.511 . S
C1477 C1473 1.376 . S
C1477 C1476 1.392 . S
C1477 H1489 0.929 . S
C1478 C1474 1.531 . S
C1478 H1490 0.960 1_655 S
C1478 H1491 0.962 . S
C1478 H1492 0.960 . S
C1479 C1476 1.511 . S
C1479 H1493 0.961 . S
C1479 H1494 0.961 1_655 S
C1479 H1495 0.961 1_655 S
C1480 C1481 1.370 . S
C1480 C1482 1.363 . S
C1480 H1496 0.931 . S
C1481 C1480 1.370 . S
C1481 C1485 1.408 . S
C1482 C1480 1.363 . S
C1482 C1483 1.370 . S
C1482 C1486 1.524 1_455 S
C1483 C1475 1.503 1_455 S
C1483 C1482 1.370 . S
C1483 C1484 1.403 . S
C1484 C1483 1.403 . S
C1484 C1485 1.404 . S
C1484 C1487 1.539 . S
C1485 C1481 1.408 . S
C1485 C1484 1.404 . S
C1485 H1497 0.930 . S
C1486 C1482 1.524 1_655 S
C1486 H1498 0.956 . S
C1486 H1499 0.961 . S
C1486 H1500 0.961 . S
C1487 C1484 1.539 . S
C1487 H1501 0.958 . S
C1487 H1502 0.961 . S
C1487 H1503 0.960 . S
H1488 C1472 0.931 . S
H1489 C1477 0.929 . S
H1490 C1478 0.960 1_455 S
H1491 C1478 0.962 . S
H1492 C1478 0.960 . S
H1493 C1479 0.961 . S
H1494 C1479 0.961 1_455 S
H1495 C1479 0.961 1_455 S
H1496 C1480 0.931 . S
H1497 C1485 0.930 . S
H1498 C1486 0.956 . S
H1499 C1486 0.961 . S
H1500 C1486 0.961 . S
H1501 C1487 0.958 . S
H1502 C1487 0.961 . S
H1503 C1487 0.960 . S
C1504 C1505 1.391 . S
C1504 C1506 1.394 1_655 S
C1504 H1520 0.931 1_655 S
C1505 C1504 1.391 . S
C1505 C1509 1.376 . S
C1506 C1504 1.394 1_455 S
C1506 C1507 1.369 1_455 S
C1506 C1510 1.531 . S
C1507 C1506 1.369 1_655 S
C1507 C1508 1.410 . S
C1507 C1515 1.503 1_655 S
C1508 C1507 1.410 . S
C1508 C1509 1.392 . S
C1508 C1511 1.511 . S
C1509 C1505 1.376 . S
C1509 C1508 1.392 . S
C1509 H1521 0.929 . S
C1510 C1506 1.531 . S
C1510 H1522 0.960 . S
C1510 H1523 0.962 . S
C1510 H1524 0.960 . S
C1511 C1508 1.511 . S
C1511 H1525 0.961 . S
C1511 H1526 0.961 . S
C1511 H1527 0.961 . S
C1512 C1513 1.370 . S
C1512 C1514 1.363 . S
C1512 H1528 0.931 . S
C1513 C1512 1.370 . S
C1513 C1517 1.408 . S
C1514 C1512 1.363 . S
C1514 C1515 1.370 . S
C1514 C1518 1.524 . S
C1515 C1507 1.503 1_455 S
C1515 C1514 1.370 . S
C1515 C1516 1.403 . S
C1516 C1515 1.403 . S
C1516 C1517 1.404 . S
C1516 C1519 1.539 . S
C1517 C1513 1.408 . S
C1517 C1516 1.404 . S
C1517 H1529 0.930 . S
C1518 C1514 1.524 . S
C1518 H1530 0.956 . S
C1518 H1531 0.961 1_455 S
C1518 H1532 0.961 . S
C1519 C1516 1.539 . S
C1519 H1533 0.958 . S
C1519 H1534 0.961 . S
C1519 H1535 0.960 1_455 S
H1520 C1504 0.931 1_455 S
H1521 C1509 0.929 . S
H1522 C1510 0.960 . S
H1523 C1510 0.962 . S
H1524 C1510 0.960 . S
H1525 C1511 0.961 . S
H1526 C1511 0.961 . S
H1527 C1511 0.961 . S
H1528 C1512 0.931 . S
H1529 C1517 0.930 . S
H1530 C1518 0.956 . S
H1531 C1518 0.961 1_655 S
H1532 C1518 0.961 . S
H1533 C1519 0.958 . S
H1534 C1519 0.961 . S
H1535 C1519 0.960 1_655 S
C1536 C1537 1.391 . S
C1536 C1538 1.394 . S
C1536 H1552 0.931 . S
C1537 C1536 1.391 . S
C1537 C1541 1.376 . S
C1538 C1536 1.394 . S
C1538 C1539 1.369 . S
C1538 C1542 1.531 . S
C1539 C1538 1.369 . S
C1539 C1540 1.410 . S
C1539 C1547 1.503 . S
C1540 C1539 1.410 . S
C1540 C1541 1.392 . S
C1540 C1543 1.511 . S
C1541 C1537 1.376 . S
C1541 C1540 1.392 . S
C1541 H1553 0.929 . S
C1542 C1538 1.531 . S
C1542 H1554 0.960 . S
C1542 H1555 0.962 . S
C1542 H1556 0.960 . S
C1543 C1540 1.511 . S
C1543 H1557 0.961 . S
C1543 H1558 0.961 . S
C1543 H1559 0.961 . S
C1544 C1545 1.370 . S
C1544 C1546 1.363 . S
C1544 H1560 0.931 . S
C1545 C1544 1.370 . S
C1545 C1549 1.408 . S
C1546 C1544 1.363 . S
C1546 C1547 1.370 . S
C1546 C1550 1.524 . S
C1547 C1539 1.503 . S
C1547 C1546 1.370 . S
C1547 C1548 1.403 . S
C1548 C1547 1.403 . S
C1548 C1549 1.404 . S
C1548 C1551 1.539 . S
C1549 C1545 1.408 . S
C1549 C1548 1.404 . S
C1549 H1561 0.930 . S
C1550 C1546 1.524 . S
C1550 H1562 0.956 . S
C1550 H1563 0.961 . S
C1550 H1564 0.961 . S
C1551 C1548 1.539 . S
C1551 H1565 0.958 . S
C1551 H1566 0.961 . S
C1551 H1567 0.960 . S
H1552 C1536 0.931 . S
H1553 C1541 0.929 . S
H1554 C1542 0.960 . S
H1555 C1542 0.962 . S
H1556 C1542 0.960 . S
H1557 C1543 0.961 . S
H1558 C1543 0.961 . S
H1559 C1543 0.961 . S
H1560 C1544 0.931 . S
H1561 C1549 0.930 . S
H1562 C1550 0.956 . S
H1563 C1550 0.961 . S
H1564 C1550 0.961 . S
H1565 C1551 0.958 . S
H1566 C1551 0.961 . S
H1567 C1551 0.960 . S
C1568 C1569 1.391 . S
C1568 C1570 1.394 . S
C1568 H1584 0.931 . S
C1569 C1568 1.391 . S
C1569 C1573 1.376 . S
C1570 C1568 1.394 . S
C1570 C1571 1.369 . S
C1570 C1574 1.531 . S
C1571 C1570 1.369 . S
C1571 C1572 1.410 . S
C1571 C1579 1.503 . S
C1572 C1571 1.410 . S
C1572 C1573 1.392 . S
C1572 C1575 1.511 . S
C1573 C1569 1.376 . S
C1573 C1572 1.392 . S
C1573 H1585 0.929 . S
C1574 C1570 1.531 . S
C1574 H1586 0.960 . S
C1574 H1587 0.962 . S
C1574 H1588 0.960 . S
C1575 C1572 1.511 . S
C1575 H1589 0.961 . S
C1575 H1590 0.961 . S
C1575 H1591 0.961 . S
C1576 C1577 1.370 . S
C1576 C1578 1.363 . S
C1576 H1592 0.931 . S
C1577 C1576 1.370 . S
C1577 C1581 1.408 . S
C1578 C1576 1.363 . S
C1578 C1579 1.370 . S
C1578 C1582 1.524 . S
C1579 C1571 1.503 . S
C1579 C1578 1.370 . S
C1579 C1580 1.403 . S
C1580 C1579 1.403 . S
C1580 C1581 1.404 . S
C1580 C1583 1.539 . S
C1581 C1577 1.408 . S
C1581 C1580 1.404 . S
C1581 H1593 0.930 . S
C1582 C1578 1.524 . S
C1582 H1594 0.956 . S
C1582 H1595 0.961 . S
C1582 H1596 0.961 . S
C1583 C1580 1.539 . S
C1583 H1597 0.958 . S
C1583 H1598 0.961 . S
C1583 H1599 0.960 . S
H1584 C1568 0.931 . S
H1585 C1573 0.929 . S
H1586 C1574 0.960 . S
H1587 C1574 0.962 . S
H1588 C1574 0.960 . S
H1589 C1575 0.961 . S
H1590 C1575 0.961 . S
H1591 C1575 0.961 . S
H1592 C1576 0.931 . S
H1593 C1581 0.930 . S
H1594 C1582 0.956 . S
H1595 C1582 0.961 . S
H1596 C1582 0.961 . S
H1597 C1583 0.958 . S
H1598 C1583 0.961 . S
H1599 C1583 0.960 . S
C1600 C1601 1.391 . S
C1600 C1602 1.394 . S
C1600 H1616 0.931 . S
C1601 C1600 1.391 . S
C1601 C1605 1.376 . S
C1602 C1600 1.394 . S
C1602 C1603 1.369 . S
C1602 C1606 1.531 . S
C1603 C1602 1.369 . S
C1603 C1604 1.410 . S
C1603 C1611 1.503 1_455 S
C1604 C1603 1.410 . S
C1604 C1605 1.392 . S
C1604 C1607 1.511 1_455 S
C1605 C1601 1.376 . S
C1605 C1604 1.392 . S
C1605 H1617 0.929 . S
C1606 C1602 1.531 . S
C1606 H1618 0.960 . S
C1606 H1619 0.962 . S
C1606 H1620 0.960 . S
C1607 C1604 1.511 1_655 S
C1607 H1621 0.961 . S
C1607 H1622 0.961 . S
C1607 H1623 0.961 . S
C1608 C1609 1.370 . S
C1608 C1610 1.363 . S
C1608 H1624 0.931 . S
C1609 C1608 1.370 . S
C1609 C1613 1.408 . S
C1610 C1608 1.363 . S
C1610 C1611 1.370 . S
C1610 C1614 1.506 1_655 S
C1611 C1603 1.503 1_655 S
C1611 C1610 1.370 . S
C1611 C1612 1.403 . S
C1612 C1611 1.403 . S
C1612 C1613 1.404 . S
C1612 C1615 1.539 . S
C1613 C1609 1.408 . S
C1613 C1612 1.404 . S
C1613 H1625 0.930 . S
C1614 C1610 1.506 1_455 S
C1614 H1626 0.978 . S
C1614 H1627 0.969 . S
C1614 H1628 0.950 1_455 S
C1615 C1612 1.539 . S
C1615 H1629 0.958 . S
C1615 H1630 0.961 . S
C1615 H1631 0.960 . S
H1616 C1600 0.931 . S
H1617 C1605 0.929 . S
H1618 C1606 0.960 . S
H1619 C1606 0.962 . S
H1620 C1606 0.960 . S
H1621 C1607 0.961 . S
H1622 C1607 0.961 . S
H1623 C1607 0.961 . S
H1624 C1608 0.931 . S
H1625 C1613 0.930 . S
H1626 C1614 0.978 . S
H1627 C1614 0.969 . S
H1628 C1614 0.950 1_655 S
H1629 C1615 0.958 . S
H1630 C1615 0.961 . S
H1631 C1615 0.960 . S
C1632 C1633 1.391 . S
C1632 C1634 1.394 . S
C1632 H1648 0.931 . S
C1633 C1632 1.391 . S
C1633 C1637 1.376 . S
C1634 C1632 1.394 . S
C1634 C1635 1.369 . S
C1634 C1638 1.531 . S
C1635 C1634 1.369 . S
C1635 C1636 1.410 1_455 S
C1635 C1643 1.503 1_455 S
C1636 C1635 1.410 1_655 S
C1636 C1637 1.392 1_655 S
C1636 C1639 1.511 . S
C1637 C1633 1.376 . S
C1637 C1636 1.392 1_455 S
C1637 H1649 0.929 1_455 S
C1638 C1634 1.531 . S
C1638 H1650 0.960 . S
C1638 H1651 0.962 . S
C1638 H1652 0.960 . S
C1639 C1636 1.511 . S
C1639 H1653 0.961 . S
C1639 H1654 0.961 . S
C1639 H1655 0.961 . S
C1640 C1641 1.370 . S
C1640 C1642 1.363 . S
C1640 H1656 0.931 . S
C1641 C1640 1.370 . S
C1641 C1645 1.408 . S
C1642 C1640 1.363 . S
C1642 C1643 1.370 . S
C1642 C1646 1.524 1_655 S
C1643 C1635 1.503 1_655 S
C1643 C1642 1.370 . S
C1643 C1644 1.403 . S
C1644 C1643 1.403 . S
C1644 C1645 1.404 . S
C1644 C1647 1.539 . S
C1645 C1641 1.408 . S
C1645 C1644 1.404 . S
C1645 H1657 0.930 . S
C1646 C1642 1.524 1_455 S
C1646 H1658 0.956 . S
C1646 H1659 0.961 . S
C1646 H1660 0.961 . S
C1647 C1644 1.539 . S
C1647 H1661 0.958 . S
C1647 H1662 0.961 . S
C1647 H1663 0.960 . S
H1648 C1632 0.931 . S
H1649 C1637 0.929 1_655 S
H1650 C1638 0.960 . S
H1651 C1638 0.962 . S
H1652 C1638 0.960 . S
H1653 C1639 0.961 . S
H1654 C1639 0.961 . S
H1655 C1639 0.961 . S
H1656 C1640 0.931 . S
H1657 C1645 0.930 . S
H1658 C1646 0.956 . S
H1659 C1646 0.961 . S
H1660 C1646 0.961 . S
H1661 C1647 0.958 . S
H1662 C1647 0.961 . S
H1663 C1647 0.960 . S
C1664 C1665 1.391 . S
C1664 C1666 1.394 . S
C1664 H1680 0.931 . S
C1665 C1664 1.391 . S
C1665 C1669 1.376 . S
C1666 C1664 1.394 . S
C1666 C1667 1.369 . S
C1666 C1670 1.531 . S
C1667 C1666 1.369 . S
C1667 C1668 1.410 . S
C1667 C1675 1.503 . S
C1668 C1667 1.410 . S
C1668 C1669 1.392 . S
C1668 C1671 1.511 . S
C1669 C1665 1.376 . S
C1669 C1668 1.392 . S
C1669 H1681 0.929 . S
C1670 C1666 1.531 . S
C1670 H1682 0.960 . S
C1670 H1683 0.962 . S
C1670 H1684 0.960 . S
C1671 C1668 1.511 . S
C1671 H1685 0.961 . S
C1671 H1686 0.961 . S
C1671 H1687 0.961 . S
C1672 C1673 1.370 . S
C1672 C1674 1.363 . S
C1672 H1688 0.931 . S
C1673 C1672 1.370 . S
C1673 C1677 1.408 . S
C1674 C1672 1.363 . S
C1674 C1675 1.370 . S
C1674 C1678 1.524 . S
C1675 C1667 1.503 . S
C1675 C1674 1.370 . S
C1675 C1676 1.403 . S
C1676 C1675 1.403 . S
C1676 C1677 1.404 . S
C1676 C1679 1.539 . S
C1677 C1673 1.408 . S
C1677 C1676 1.404 . S
C1677 H1689 0.930 . S
C1678 C1674 1.524 . S
C1678 H1690 0.956 . S
C1678 H1691 0.961 . S
C1678 H1692 0.961 . S
C1679 C1676 1.539 . S
C1679 H1693 0.958 . S
C1679 H1694 0.961 . S
C1679 H1695 0.960 . S
H1680 C1664 0.931 . S
H1681 C1669 0.929 . S
H1682 C1670 0.960 . S
H1683 C1670 0.962 . S
H1684 C1670 0.960 . S
H1685 C1671 0.961 . S
H1686 C1671 0.961 . S
H1687 C1671 0.961 . S
H1688 C1672 0.931 . S
H1689 C1677 0.930 . S
H1690 C1678 0.956 . S
H1691 C1678 0.961 . S
H1692 C1678 0.961 . S
H1693 C1679 0.958 . S
H1694 C1679 0.961 . S
H1695 C1679 0.960 . S
C1696 C1697 1.391 . S
C1696 C1698 1.394 . S
C1696 H1712 0.931 . S
C1697 C1696 1.391 . S
C1697 C1701 1.376 . S
C1698 C1696 1.394 . S
C1698 C1699 1.369 . S
C1698 C1702 1.531 . S
C1699 C1698 1.369 . S
C1699 C1700 1.410 . S
C1699 C1707 1.503 . S
C1700 C1699 1.410 . S
C1700 C1701 1.392 . S
C1700 C1703 1.511 . S
C1701 C1697 1.376 . S
C1701 C1700 1.392 . S
C1701 H1713 0.929 . S
C1702 C1698 1.531 . S
C1702 H1714 0.960 . S
C1702 H1715 0.962 . S
C1702 H1716 0.960 . S
C1703 C1700 1.511 . S
C1703 H1717 0.961 . S
C1703 H1718 0.961 . S
C1703 H1719 0.961 . S
C1704 C1705 1.370 . S
C1704 C1706 1.363 . S
C1704 H1720 0.931 . S
C1705 C1704 1.370 . S
C1705 C1709 1.408 . S
C1706 C1704 1.363 . S
C1706 C1707 1.370 . S
C1706 C1710 1.524 . S
C1707 C1699 1.503 . S
C1707 C1706 1.370 . S
C1707 C1708 1.403 . S
C1708 C1707 1.403 . S
C1708 C1709 1.404 . S
C1708 C1711 1.539 . S
C1709 C1705 1.408 . S
C1709 C1708 1.404 . S
C1709 H1721 0.930 . S
C1710 C1706 1.524 . S
C1710 H1722 0.956 . S
C1710 H1723 0.961 . S
C1710 H1724 0.961 . S
C1711 C1708 1.539 . S
C1711 H1725 0.958 . S
C1711 H1726 0.961 . S
C1711 H1727 0.960 . S
H1712 C1696 0.931 . S
H1713 C1701 0.929 . S
H1714 C1702 0.960 . S
H1715 C1702 0.962 . S
H1716 C1702 0.960 . S
H1717 C1703 0.961 . S
H1718 C1703 0.961 . S
H1719 C1703 0.961 . S
H1720 C1704 0.931 . S
H1721 C1709 0.930 . S
H1722 C1710 0.956 . S
H1723 C1710 0.961 . S
H1724 C1710 0.961 . S
H1725 C1711 0.958 . S
H1726 C1711 0.961 . S
H1727 C1711 0.960 . S
C1728 C1729 1.391 . S
C1728 C1730 1.394 . S
C1728 H1744 0.931 . S
C1729 C1728 1.391 . S
C1729 C1733 1.376 . S
C1730 C1728 1.394 . S
C1730 C1731 1.369 . S
C1730 C1734 1.531 . S
C1731 C1730 1.369 . S
C1731 C1732 1.410 . S
C1731 C1739 1.503 . S
C1732 C1731 1.410 . S
C1732 C1733 1.392 . S
C1732 C1735 1.511 . S
C1733 C1729 1.376 . S
C1733 C1732 1.392 . S
C1733 H1745 0.929 . S
C1734 C1730 1.531 . S
C1734 H1746 0.960 . S
C1734 H1747 0.962 . S
C1734 H1748 0.960 . S
C1735 C1732 1.511 . S
C1735 H1749 0.961 . S
C1735 H1750 0.961 . S
C1735 H1751 0.961 . S
C1736 C1737 1.370 . S
C1736 C1738 1.363 . S
C1736 H1752 0.931 . S
C1737 C1736 1.370 . S
C1737 C1741 1.408 . S
C1738 C1736 1.363 . S
C1738 C1739 1.370 . S
C1738 C1742 1.524 . S
C1739 C1731 1.503 . S
C1739 C1738 1.370 . S
C1739 C1740 1.403 . S
C1740 C1739 1.403 . S
C1740 C1741 1.404 . S
C1740 C1743 1.539 . S
C1741 C1737 1.408 . S
C1741 C1740 1.404 . S
C1741 H1753 0.930 . S
C1742 C1738 1.524 . S
C1742 H1754 0.956 . S
C1742 H1755 0.961 . S
C1742 H1756 0.961 . S
C1743 C1740 1.539 . S
C1743 H1757 0.958 . S
C1743 H1758 0.961 . S
C1743 H1759 0.960 . S
H1744 C1728 0.931 . S
H1745 C1733 0.929 . S
H1746 C1734 0.960 . S
H1747 C1734 0.962 . S
H1748 C1734 0.960 . S
H1749 C1735 0.961 . S
H1750 C1735 0.961 . S
H1751 C1735 0.961 . S
H1752 C1736 0.931 . S
H1753 C1741 0.930 . S
H1754 C1742 0.956 . S
H1755 C1742 0.961 . S
H1756 C1742 0.961 . S
H1757 C1743 0.958 . S
H1758 C1743 0.961 . S
H1759 C1743 0.960 . S
C1760 C1761 1.391 . S
C1760 C1762 1.394 1_655 S
C1760 H1776 0.931 . S
C1761 C1760 1.391 . S
C1761 C1765 1.376 1_655 S
C1762 C1760 1.394 1_455 S
C1762 C1763 1.369 . S
C1762 C1766 1.531 . S
C1763 C1762 1.369 . S
C1763 C1764 1.410 . S
C1763 C1771 1.503 . S
C1764 C1763 1.410 . S
C1764 C1765 1.392 . S
C1764 C1767 1.511 . S
C1765 C1761 1.376 1_455 S
C1765 C1764 1.392 . S
C1765 H1777 0.929 . S
C1766 C1762 1.531 . S
C1766 H1778 0.960 . S
C1766 H1779 0.962 . S
C1766 H1780 0.960 . S
C1767 C1764 1.511 . S
C1767 H1781 0.961 . S
C1767 H1782 0.961 . S
C1767 H1783 0.961 . S
C1768 C1769 1.370 . S
C1768 C1770 1.363 . S
C1768 H1784 0.931 . S
C1769 C1768 1.370 . S
C1769 C1773 1.408 . S
C1770 C1768 1.363 . S
C1770 C1771 1.370 . S
C1770 C1774 1.524 . S
C1771 C1763 1.503 . S
C1771 C1770 1.370 . S
C1771 C1772 1.403 . S
C1772 C1771 1.403 . S
C1772 C1773 1.404 . S
C1772 C1775 1.539 . S
C1773 C1769 1.408 . S
C1773 C1772 1.404 . S
C1773 H1785 0.930 . S
C1774 C1770 1.524 . S
C1774 H1786 0.956 . S
C1774 H1787 0.961 . S
C1774 H1788 0.961 . S
C1775 C1772 1.539 . S
C1775 H1789 0.958 . S
C1775 H1790 0.961 . S
C1775 H1791 0.960 . S
H1776 C1760 0.931 . S
H1777 C1765 0.929 . S
H1778 C1766 0.960 . S
H1779 C1766 0.962 . S
H1780 C1766 0.960 . S
H1781 C1767 0.961 . S
H1782 C1767 0.961 . S
H1783 C1767 0.961 . S
H1784 C1768 0.931 . S
H1785 C1773 0.930 . S
H1786 C1774 0.956 . S
H1787 C1774 0.961 . S
H1788 C1774 0.961 . S
H1789 C1775 0.958 . S
H1790 C1775 0.961 . S
H1791 C1775 0.960 . S
C1792 C1793 1.391 . S
C1792 C1794 1.394 . S
C1792 H1808 0.931 . S
C1793 C1792 1.391 . S
C1793 C1797 1.376 . S
C1794 C1792 1.394 . S
C1794 C1795 1.369 . S
C1794 C1798 1.531 . S
C1795 C1794 1.369 . S
C1795 C1796 1.410 . S
C1795 C1803 1.503 . S
C1796 C1795 1.410 . S
C1796 C1797 1.392 . S
C1796 C1799 1.511 . S
C1797 C1793 1.376 . S
C1797 C1796 1.392 . S
C1797 H1809 0.929 . S
C1798 C1794 1.531 . S
C1798 H1810 0.960 . S
C1798 H1811 0.962 . S
C1798 H1812 0.960 . S
C1799 C1796 1.511 . S
C1799 H1813 0.961 . S
C1799 H1814 0.961 . S
C1799 H1815 0.961 . S
C1800 C1801 1.370 . S
C1800 C1802 1.363 . S
C1800 H1816 0.931 . S
C1801 C1800 1.370 . S
C1801 C1805 1.408 . S
C1802 C1800 1.363 . S
C1802 C1803 1.370 . S
C1802 C1806 1.524 . S
C1803 C1795 1.503 . S
C1803 C1802 1.370 . S
C1803 C1804 1.403 . S
C1804 C1803 1.403 . S
C1804 C1805 1.404 . S
C1804 C1807 1.539 . S
C1805 C1801 1.408 . S
C1805 C1804 1.404 . S
C1805 H1817 0.930 . S
C1806 C1802 1.524 . S
C1806 H1818 0.956 . S
C1806 H1819 0.961 . S
C1806 H1820 0.961 . S
C1807 C1804 1.539 . S
C1807 H1821 0.958 . S
C1807 H1822 0.961 . S
C1807 H1823 0.960 . S
H1808 C1792 0.931 . S
H1809 C1797 0.929 . S
H1810 C1798 0.960 . S
H1811 C1798 0.962 . S
H1812 C1798 0.960 . S
H1813 C1799 0.961 . S
H1814 C1799 0.961 . S
H1815 C1799 0.961 . S
H1816 C1800 0.931 . S
H1817 C1805 0.930 . S
H1818 C1806 0.956 . S
H1819 C1806 0.961 . S
H1820 C1806 0.961 . S
H1821 C1807 0.958 . S
H1822 C1807 0.961 . S
H1823 C1807 0.960 . S
C1824 C1825 1.391 . S
C1824 C1826 1.394 . S
C1824 H1840 0.931 . S
C1825 C1824 1.391 . S
C1825 C1829 1.376 . S
C1826 C1824 1.394 . S
C1826 C1827 1.369 . S
C1826 C1830 1.531 . S
C1827 C1826 1.369 . S
C1827 C1828 1.410 . S
C1827 C1835 1.503 . S
C1828 C1827 1.410 . S
C1828 C1829 1.392 . S
C1828 C1831 1.511 . S
C1829 C1825 1.376 . S
C1829 C1828 1.392 . S
C1829 H1841 0.929 . S
C1830 C1826 1.531 . S
C1830 H1842 0.960 . S
C1830 H1843 0.962 . S
C1830 H1844 0.960 . S
C1831 C1828 1.511 . S
C1831 H1845 0.961 . S
C1831 H1846 0.961 . S
C1831 H1847 0.961 . S
C1832 C1833 1.370 . S
C1832 C1834 1.363 . S
C1832 H1848 0.931 . S
C1833 C1832 1.370 . S
C1833 C1837 1.408 . S
C1834 C1832 1.363 . S
C1834 C1835 1.370 . S
C1834 C1838 1.524 . S
C1835 C1827 1.503 . S
C1835 C1834 1.370 . S
C1835 C1836 1.403 . S
C1836 C1835 1.403 . S
C1836 C1837 1.404 . S
C1836 C1839 1.539 . S
C1837 C1833 1.408 . S
C1837 C1836 1.404 . S
C1837 H1849 0.930 . S
C1838 C1834 1.524 . S
C1838 H1850 0.956 . S
C1838 H1851 0.961 . S
C1838 H1852 0.961 . S
C1839 C1836 1.539 . S
C1839 H1853 0.958 . S
C1839 H1854 0.961 . S
C1839 H1855 0.960 . S
H1840 C1824 0.931 . S
H1841 C1829 0.929 . S
H1842 C1830 0.960 . S
H1843 C1830 0.962 . S
H1844 C1830 0.960 . S
H1845 C1831 0.961 . S
H1846 C1831 0.961 . S
H1847 C1831 0.961 . S
H1848 C1832 0.931 . S
H1849 C1837 0.930 . S
H1850 C1838 0.956 . S
H1851 C1838 0.961 . S
H1852 C1838 0.961 . S
H1853 C1839 0.958 . S
H1854 C1839 0.961 . S
H1855 C1839 0.960 . S
C1856 C1857 1.391 . S
C1856 C1858 1.394 . S
C1856 H1872 0.931 . S
C1857 C1856 1.391 . S
C1857 C1861 1.376 . S
C1858 C1856 1.394 . S
C1858 C1859 1.369 . S
C1858 C1862 1.531 . S
C1859 C1858 1.369 . S
C1859 C1860 1.410 . S
C1859 C1867 1.503 . S
C1860 C1859 1.410 . S
C1860 C1861 1.392 . S
C1860 C1863 1.511 . S
C1861 C1857 1.376 . S
C1861 C1860 1.392 . S
C1861 H1873 0.929 . S
C1862 C1858 1.531 . S
C1862 H1874 0.960 . S
C1862 H1875 0.962 . S
C1862 H1876 0.960 . S
C1863 C1860 1.511 . S
C1863 H1877 0.961 . S
C1863 H1878 0.961 . S
C1863 H1879 0.961 . S
C1864 C1865 1.370 . S
C1864 C1866 1.363 . S
C1864 H1880 0.931 . S
C1865 C1864 1.370 . S
C1865 C1869 1.408 . S
C1866 C1864 1.363 . S
C1866 C1867 1.370 . S
C1866 C1870 1.524 . S
C1867 C1859 1.503 . S
C1867 C1866 1.370 . S
C1867 C1868 1.403 . S
C1868 C1867 1.403 . S
C1868 C1869 1.404 . S
C1868 C1871 1.539 . S
C1869 C1865 1.408 . S
C1869 C1868 1.404 . S
C1869 H1881 0.930 . S
C1870 C1866 1.524 . S
C1870 H1882 0.956 . S
C1870 H1883 0.961 . S
C1870 H1884 0.961 . S
C1871 C1868 1.539 . S
C1871 H1885 0.958 . S
C1871 H1886 0.961 . S
C1871 H1887 0.960 . S
H1872 C1856 0.931 . S
H1873 C1861 0.929 . S
H1874 C1862 0.960 . S
H1875 C1862 0.962 . S
H1876 C1862 0.960 . S
H1877 C1863 0.961 . S
H1878 C1863 0.961 . S
H1879 C1863 0.961 . S
H1880 C1864 0.931 . S
H1881 C1869 0.930 . S
H1882 C1870 0.956 . S
H1883 C1870 0.961 . S
H1884 C1870 0.961 . S
H1885 C1871 0.958 . S
H1886 C1871 0.961 . S
H1887 C1871 0.960 . S
C1888 C1889 1.391 . S
C1888 C1890 1.394 . S
C1888 H1904 0.931 . S
C1889 C1888 1.391 . S
C1889 C1893 1.376 . S
C1890 C1888 1.394 . S
C1890 C1891 1.369 . S
C1890 C1894 1.531 . S
C1891 C1890 1.369 . S
C1891 C1892 1.410 . S
C1891 C1899 1.503 . S
C1892 C1891 1.410 . S
C1892 C1893 1.392 . S
C1892 C1895 1.511 . S
C1893 C1889 1.376 . S
C1893 C1892 1.392 . S
C1893 H1905 0.929 . S
C1894 C1890 1.531 . S
C1894 H1906 0.960 . S
C1894 H1907 0.962 . S
C1894 H1908 0.960 . S
C1895 C1892 1.511 . S
C1895 H1909 0.961 . S
C1895 H1910 0.961 . S
C1895 H1911 0.961 . S
C1896 C1897 1.370 1_655 S
C1896 C1898 1.363 . S
C1896 H1912 0.931 . S
C1897 C1896 1.370 1_455 S
C1897 C1901 1.408 . S
C1898 C1896 1.363 . S
C1898 C1899 1.370 . S
C1898 C1902 1.524 . S
C1899 C1891 1.503 . S
C1899 C1898 1.370 . S
C1899 C1900 1.403 . S
C1900 C1899 1.403 . S
C1900 C1901 1.404 1_655 S
C1900 C1903 1.539 . S
C1901 C1897 1.408 . S
C1901 C1900 1.404 1_455 S
C1901 H1913 0.930 . S
C1902 C1898 1.524 . S
C1902 H1914 0.956 . S
C1902 H1915 0.961 . S
C1902 H1916 0.961 . S
C1903 C1900 1.539 . S
C1903 H1917 0.958 . S
C1903 H1918 0.961 . S
C1903 H1919 0.960 . S
H1904 C1888 0.931 . S
H1905 C1893 0.929 . S
H1906 C1894 0.960 . S
H1907 C1894 0.962 . S
H1908 C1894 0.960 . S
H1909 C1895 0.961 . S
H1910 C1895 0.961 . S
H1911 C1895 0.961 . S
H1912 C1896 0.931 . S
H1913 C1901 0.930 . S
H1914 C1902 0.956 . S
H1915 C1902 0.961 . S
H1916 C1902 0.961 . S
H1917 C1903 0.958 . S
H1918 C1903 0.961 . S
H1919 C1903 0.960 . S
C1920 C1921 1.391 . S
C1920 C1922 1.394 . S
C1920 H1936 0.931 . S
C1921 C1920 1.391 . S
C1921 C1925 1.376 . S
C1922 C1920 1.394 . S
C1922 C1923 1.369 . S
C1922 C1926 1.531 . S
C1923 C1922 1.369 . S
C1923 C1924 1.410 . S
C1923 C1931 1.503 . S
C1924 C1923 1.410 . S
C1924 C1925 1.392 . S
C1924 C1927 1.511 . S
C1925 C1921 1.376 . S
C1925 C1924 1.392 . S
C1925 H1937 0.929 . S
C1926 C1922 1.531 . S
C1926 H1938 0.960 . S
C1926 H1939 0.962 . S
C1926 H1940 0.960 . S
C1927 C1924 1.511 . S
C1927 H1941 0.961 . S
C1927 H1942 0.961 . S
C1927 H1943 0.961 . S
C1928 C1929 1.370 . S
C1928 C1930 1.363 . S
C1928 H1944 0.931 . S
C1929 C1928 1.370 . S
C1929 C1933 1.408 . S
C1930 C1928 1.363 . S
C1930 C1931 1.370 . S
C1930 C1934 1.524 . S
C1931 C1923 1.503 . S
C1931 C1930 1.370 . S
C1931 C1932 1.403 . S
C1932 C1931 1.403 . S
C1932 C1933 1.404 . S
C1932 C1935 1.539 . S
C1933 C1929 1.408 . S
C1933 C1932 1.404 . S
C1933 H1945 0.930 . S
C1934 C1930 1.524 . S
C1934 H1946 0.956 . S
C1934 H1947 0.961 . S
C1934 H1948 0.961 . S
C1935 C1932 1.539 . S
C1935 H1949 0.958 . S
C1935 H1950 0.961 . S
C1935 H1951 0.960 . S
H1936 C1920 0.931 . S
H1937 C1925 0.929 . S
H1938 C1926 0.960 . S
H1939 C1926 0.962 . S
H1940 C1926 0.960 . S
H1941 C1927 0.961 . S
H1942 C1927 0.961 . S
H1943 C1927 0.961 . S
H1944 C1928 0.931 . S
H1945 C1933 0.930 . S
H1946 C1934 0.956 . S
H1947 C1934 0.961 . S
H1948 C1934 0.961 . S
H1949 C1935 0.958 . S
H1950 C1935 0.961 . S
H1951 C1935 0.960 . S
C1952 C1953 1.391 . S
C1952 C1954 1.394 . S
C1952 H1968 0.931 . S
C1953 C1952 1.391 . S
C1953 C1957 1.376 . S
C1954 C1952 1.394 . S
C1954 C1955 1.369 . S
C1954 C1958 1.531 1_565 S
C1955 C1954 1.369 . S
C1955 C1956 1.410 . S
C1955 C1963 1.503 . S
C1956 C1955 1.410 . S
C1956 C1957 1.392 . S
C1956 C1959 1.511 . S
C1957 C1953 1.376 . S
C1957 C1956 1.392 . S
C1957 H1969 0.929 . S
C1958 C1954 1.531 1_545 S
C1958 H1970 0.960 . S
C1958 H1971 0.962 1_545 S
C1958 H1972 0.960 . S
C1959 C1956 1.511 . S
C1959 H1973 0.961 . S
C1959 H1974 0.961 . S
C1959 H1975 0.961 . S
C1960 C1961 1.370 1_655 S
C1960 C1962 1.363 . S
C1960 H1976 0.931 1_655 S
C1961 C1960 1.370 1_455 S
C1961 C1965 1.408 1_465 S
C1962 C1960 1.363 . S
C1962 C1963 1.370 . S
C1962 C1966 1.524 . S
C1963 C1955 1.503 . S
C1963 C1962 1.370 . S
C1963 C1964 1.403 . S
C1964 C1963 1.403 . S
C1964 C1965 1.404 1_565 S
C1964 C1967 1.539 1_565 S
C1965 C1961 1.408 1_645 S
C1965 C1964 1.404 1_545 S
C1965 H1977 0.930 1_655 S
C1966 C1962 1.524 . S
C1966 H1978 0.956 . S
C1966 H1979 0.961 . S
C1966 H1980 0.961 . S
C1967 C1964 1.539 1_545 S
C1967 H1981 0.958 . S
C1967 H1982 0.961 . S
C1967 H1983 0.960 1_545 S
H1968 C1952 0.931 . S
H1969 C1957 0.929 . S
H1970 C1958 0.960 . S
H1971 C1958 0.962 1_565 S
H1972 C1958 0.960 . S
H1973 C1959 0.961 . S
H1974 C1959 0.961 . S
H1975 C1959 0.961 . S
H1976 C1960 0.931 1_455 S
H1977 C1965 0.930 1_455 S
H1978 C1966 0.956 . S
H1979 C1966 0.961 . S
H1980 C1966 0.961 . S
H1981 C1967 0.958 . S
H1982 C1967 0.961 . S
H1983 C1967 0.960 1_565 S
C1984 C1985 1.391 . S
C1984 C1986 1.394 . S
C1984 H2000 0.931 . S
C1985 C1984 1.391 . S
C1985 C1989 1.376 . S
C1986 C1984 1.394 . S
C1986 C1987 1.369 . S
C1986 C1990 1.531 . S
C1987 C1986 1.369 . S
C1987 C1988 1.410 . S
C1987 C1995 1.503 . S
C1988 C1987 1.410 . S
C1988 C1989 1.392 . S
C1988 C1991 1.511 . S
C1989 C1985 1.376 . S
C1989 C1988 1.392 . S
C1989 H2001 0.929 . S
C1990 C1986 1.531 . S
C1990 H2002 0.960 . S
C1990 H2003 0.962 . S
C1990 H2004 0.960 . S
C1991 C1988 1.511 . S
C1991 H2005 0.961 . S
C1991 H2006 0.961 . S
C1991 H2007 0.961 . S
C1992 C1993 1.370 . S
C1992 C1994 1.363 . S
C1992 H2008 0.931 . S
C1993 C1992 1.370 . S
C1993 C1997 1.408 . S
C1994 C1992 1.363 . S
C1994 C1995 1.370 . S
C1994 C1998 1.524 . S
C1995 C1987 1.503 . S
C1995 C1994 1.370 . S
C1995 C1996 1.403 . S
C1996 C1995 1.403 . S
C1996 C1997 1.404 . S
C1996 C1999 1.539 . S
C1997 C1993 1.408 . S
C1997 C1996 1.404 . S
C1997 H2009 0.930 . S
C1998 C1994 1.524 . S
C1998 H2010 0.956 . S
C1998 H2011 0.961 . S
C1998 H2012 0.961 . S
C1999 C1996 1.539 . S
C1999 H2013 0.958 . S
C1999 H2014 0.961 . S
C1999 H2015 0.960 . S
H2000 C1984 0.931 . S
H2001 C1989 0.929 . S
H2002 C1990 0.960 . S
H2003 C1990 0.962 . S
H2004 C1990 0.960 . S
H2005 C1991 0.961 . S
H2006 C1991 0.961 . S
H2007 C1991 0.961 . S
H2008 C1992 0.931 . S
H2009 C1997 0.930 . S
H2010 C1998 0.956 . S
H2011 C1998 0.961 . S
H2012 C1998 0.961 . S
H2013 C1999 0.958 . S
H2014 C1999 0.961 . S
H2015 C1999 0.960 . S
C2016 C2017 1.391 . S
C2016 C2018 1.394 . S
C2016 H2032 0.931 1_545 S
C2017 C2016 1.391 . S
C2017 C2021 1.376 . S
C2018 C2016 1.394 . S
C2018 C2019 1.369 . S
C2018 C2022 1.531 . S
C2019 C2018 1.369 . S
C2019 C2020 1.410 . S
C2019 C2027 1.503 . S
C2020 C2019 1.410 . S
C2020 C2021 1.392 . S
C2020 C2023 1.511 . S
C2021 C2017 1.376 . S
C2021 C2020 1.392 . S
C2021 H2033 0.929 . S
C2022 C2018 1.531 . S
C2022 H2034 0.960 . S
C2022 H2035 0.962 1_545 S
C2022 H2036 0.960 . S
C2023 C2020 1.511 . S
C2023 H2037 0.961 . S
C2023 H2038 0.961 . S
C2023 H2039 0.961 . S
C2024 C2025 1.370 . S
C2024 C2026 1.363 . S
C2024 H2040 0.931 . S
C2025 C2024 1.370 . S
C2025 C2029 1.408 . S
C2026 C2024 1.363 . S
C2026 C2027 1.370 . S
C2026 C2030 1.524 . S
C2027 C2019 1.503 . S
C2027 C2026 1.370 . S
C2027 C2028 1.403 . S
C2028 C2027 1.403 . S
C2028 C2029 1.404 . S
C2028 C2031 1.539 . S
C2029 C2025 1.408 . S
C2029 C2028 1.404 . S
C2029 H2041 0.930 . S
C2030 C2026 1.524 . S
C2030 H2042 0.956 1_545 S
C2030 H2043 0.961 . S
C2030 H2044 0.961 1_545 S
C2031 C2028 1.539 . S
C2031 H2045 0.958 . S
C2031 H2046 0.961 . S
C2031 H2047 0.960 . S
H2032 C2016 0.931 1_565 S
H2033 C2021 0.929 . S
H2034 C2022 0.960 . S
H2035 C2022 0.962 1_565 S
H2036 C2022 0.960 . S
H2037 C2023 0.961 . S
H2038 C2023 0.961 . S
H2039 C2023 0.961 . S
H2040 C2024 0.931 . S
H2041 C2029 0.930 . S
H2042 C2030 0.956 1_565 S
H2043 C2030 0.961 . S
H2044 C2030 0.961 1_565 S
H2045 C2031 0.958 . S
H2046 C2031 0.961 . S
H2047 C2031 0.960 . S
C2048 C2049 1.391 . S
C2048 C2050 1.394 . S
C2048 H2064 0.931 . S
C2049 C2048 1.391 . S
C2049 C2053 1.376 . S
C2050 C2048 1.394 . S
C2050 C2051 1.369 . S
C2050 C2054 1.531 . S
C2051 C2050 1.369 . S
C2051 C2052 1.410 . S
C2051 C2059 1.503 . S
C2052 C2051 1.410 . S
C2052 C2053 1.392 . S
C2052 C2055 1.511 . S
C2053 C2049 1.376 . S
C2053 C2052 1.392 . S
C2053 H2065 0.929 . S
C2054 C2050 1.531 . S
C2054 H2066 0.960 . S
C2054 H2067 0.962 . S
C2054 H2068 0.960 . S
C2055 C2052 1.511 . S
C2055 H2069 0.961 . S
C2055 H2070 0.961 . S
C2055 H2071 0.961 . S
C2056 C2057 1.370 . S
C2056 C2058 1.363 . S
C2056 H2072 0.931 . S
C2057 C2056 1.370 . S
C2057 C2061 1.408 . S
C2058 C2056 1.363 . S
C2058 C2059 1.370 . S
C2058 C2062 1.524 . S
C2059 C2051 1.503 . S
C2059 C2058 1.370 . S
C2059 C2060 1.403 . S
C2060 C2059 1.403 . S
C2060 C2061 1.404 . S
C2060 C2063 1.539 . S
C2061 C2057 1.408 . S
C2061 C2060 1.404 . S
C2061 H2073 0.930 . S
C2062 C2058 1.524 . S
C2062 H2074 0.956 . S
C2062 H2075 0.961 . S
C2062 H2076 0.961 . S
C2063 C2060 1.539 . S
C2063 H2077 0.958 . S
C2063 H2078 0.961 . S
C2063 H2079 0.960 . S
H2064 C2048 0.931 . S
H2065 C2053 0.929 . S
H2066 C2054 0.960 . S
H2067 C2054 0.962 . S
H2068 C2054 0.960 . S
H2069 C2055 0.961 . S
H2070 C2055 0.961 . S
H2071 C2055 0.961 . S
H2072 C2056 0.931 . S
H2073 C2061 0.930 . S
H2074 C2062 0.956 . S
H2075 C2062 0.961 . S
H2076 C2062 0.961 . S
H2077 C2063 0.958 . S
H2078 C2063 0.961 . S
H2079 C2063 0.960 . S
C2080 C2081 1.399 . S
C2080 C2082 1.370 1_655 S
C2080 H2096 0.946 . S
C2081 C2080 1.399 . S
C2081 C2085 1.376 1_655 S
C2082 C2080 1.370 1_455 S
C2082 C2083 1.369 . S
C2082 C2086 1.531 . S
C2083 C2082 1.369 . S
C2083 C2084 1.410 . S
C2083 C2091 1.503 . S
C2084 C2083 1.410 . S
C2084 C2085 1.392 . S
C2084 C2087 1.511 . S
C2085 C2081 1.376 1_455 S
C2085 C2084 1.392 . S
C2085 H2097 0.928 1_455 S
C2086 C2082 1.531 . S
C2086 H2098 0.960 . S
C2086 H2099 0.962 . S
C2086 H2100 0.960 . S
C2087 C2084 1.511 . S
C2087 H2101 0.961 . S
C2087 H2102 0.961 . S
C2087 H2103 0.961 . S
C2088 C2089 1.370 . S
C2088 C2090 1.363 . S
C2088 H2104 0.931 . S
C2089 C2088 1.370 . S
C2089 C2093 1.408 . S
C2090 C2088 1.363 . S
C2090 C2091 1.370 . S
C2090 C2094 1.524 1_545 S
C2091 C2083 1.503 . S
C2091 C2090 1.370 . S
C2091 C2092 1.403 . S
C2092 C2091 1.403 . S
C2092 C2093 1.404 . S
C2092 C2095 1.539 . S
C2093 C2089 1.408 . S
C2093 C2092 1.404 . S
C2093 H2105 0.930 . S
C2094 C2090 1.524 1_565 S
C2094 H2106 0.956 . S
C2094 H2107 0.961 . S
C2094 H2108 0.961 . S
C2095 C2092 1.539 . S
C2095 H2109 0.958 . S
C2095 H2110 0.961 . S
C2095 H2111 0.960 . S
H2096 C2080 0.946 . S
H2097 C2085 0.928 1_655 S
H2098 C2086 0.960 . S
H2099 C2086 0.962 . S
H2100 C2086 0.960 . S
H2101 C2087 0.961 . S
H2102 C2087 0.961 . S
H2103 C2087 0.961 . S
H2104 C2088 0.931 . S
H2105 C2093 0.930 . S
H2106 C2094 0.956 . S
H2107 C2094 0.961 . S
H2108 C2094 0.961 . S
H2109 C2095 0.958 . S
H2110 C2095 0.961 . S
H2111 C2095 0.960 . S
C2112 C2113 1.391 . S
C2112 C2114 1.394 . S
C2112 H2128 0.931 . S
C2113 C2112 1.391 . S
C2113 C2117 1.376 . S
C2114 C2112 1.394 . S
C2114 C2115 1.369 . S
C2114 C2118 1.531 . S
C2115 C2114 1.369 . S
C2115 C2116 1.410 . S
C2115 C2123 1.503 . S
C2116 C2115 1.410 . S
C2116 C2117 1.392 . S
C2116 C2119 1.511 . S
C2117 C2113 1.376 . S
C2117 C2116 1.392 . S
C2117 H2129 0.929 . S
C2118 C2114 1.531 . S
C2118 H2130 0.960 . S
C2118 H2131 0.962 . S
C2118 H2132 0.960 . S
C2119 C2116 1.511 . S
C2119 H2133 0.961 . S
C2119 H2134 0.961 . S
C2119 H2135 0.961 . S
C2120 C2121 1.370 . S
C2120 C2122 1.363 . S
C2120 H2136 0.931 . S
C2121 C2120 1.370 . S
C2121 C2125 1.408 . S
C2122 C2120 1.363 . S
C2122 C2123 1.370 . S
C2122 C2126 1.524 . S
C2123 C2115 1.503 . S
C2123 C2122 1.370 . S
C2123 C2124 1.403 . S
C2124 C2123 1.403 . S
C2124 C2125 1.404 . S
C2124 C2127 1.539 . S
C2125 C2121 1.408 . S
C2125 C2124 1.404 . S
C2125 H2137 0.930 . S
C2126 C2122 1.524 . S
C2126 H2138 0.956 . S
C2126 H2139 0.961 . S
C2126 H2140 0.961 . S
C2127 C2124 1.539 . S
C2127 H2141 0.958 . S
C2127 H2142 0.961 . S
C2127 H2143 0.960 . S
H2128 C2112 0.931 . S
H2129 C2117 0.929 . S
H2130 C2118 0.960 . S
H2131 C2118 0.962 . S
H2132 C2118 0.960 . S
H2133 C2119 0.961 . S
H2134 C2119 0.961 . S
H2135 C2119 0.961 . S
H2136 C2120 0.931 . S
H2137 C2125 0.930 . S
H2138 C2126 0.956 . S
H2139 C2126 0.961 . S
H2140 C2126 0.961 . S
H2141 C2127 0.958 . S
H2142 C2127 0.961 . S
H2143 C2127 0.960 . S
C2144 C2145 1.391 . S
C2144 C2146 1.394 . S
C2144 H2160 0.931 . S
C2145 C2144 1.391 . S
C2145 C2149 1.376 . S
C2146 C2144 1.394 . S
C2146 C2147 1.369 . S
C2146 C2150 1.531 . S
C2147 C2146 1.369 . S
C2147 C2148 1.410 . S
C2147 C2155 1.503 . S
C2148 C2147 1.410 . S
C2148 C2149 1.392 . S
C2148 C2151 1.511 . S
C2149 C2145 1.376 . S
C2149 C2148 1.392 . S
C2149 H2161 0.929 . S
C2150 C2146 1.531 . S
C2150 H2162 0.960 . S
C2150 H2163 0.962 1_565 S
C2150 H2164 0.960 . S
C2151 C2148 1.511 . S
C2151 H2165 0.961 . S
C2151 H2166 0.961 . S
C2151 H2167 0.961 . S
C2152 C2153 1.370 1_545 S
C2152 C2154 1.363 1_545 S
C2152 H2168 0.931 . S
C2153 C2152 1.370 1_565 S
C2153 C2157 1.408 . S
C2154 C2152 1.363 1_565 S
C2154 C2155 1.370 . S
C2154 C2158 1.524 1_565 S
C2155 C2147 1.503 . S
C2155 C2154 1.370 . S
C2155 C2156 1.403 . S
C2156 C2155 1.403 . S
C2156 C2157 1.404 . S
C2156 C2159 1.539 . S
C2157 C2153 1.408 . S
C2157 C2156 1.404 . S
C2157 H2169 0.930 . S
C2158 C2154 1.524 1_545 S
C2158 H2170 0.956 . S
C2158 H2171 0.961 1_545 S
C2158 H2172 0.961 . S
C2159 C2156 1.539 . S
C2159 H2173 0.958 . S
C2159 H2174 0.961 . S
C2159 H2175 0.960 . S
H2160 C2144 0.931 . S
H2161 C2149 0.929 . S
H2162 C2150 0.960 . S
H2163 C2150 0.962 1_545 S
H2164 C2150 0.960 . S
H2165 C2151 0.961 . S
H2166 C2151 0.961 . S
H2167 C2151 0.961 . S
H2168 C2152 0.931 . S
H2169 C2157 0.930 . S
H2170 C2158 0.956 . S
H2171 C2158 0.961 1_565 S
H2172 C2158 0.961 . S
H2173 C2159 0.958 . S
H2174 C2159 0.961 . S
H2175 C2159 0.960 . S
C641 C8 0.822 . S
C649 C509 0.837 . S
C673 C229 0.850 . S
C681 C48 0.825 . S
C705 C88 0.889 . S
C713 C589 0.822 . S
C737 C128 0.774 1_455 S
C745 C309 0.867 1_655 S
C769 C189 0.738 . S
C777 C328 0.877 . S
C801 C408 0.826 . S
C809 C269 0.849 . S
C833 C549 0.728 1_455 S
C841 C368 0.877 1_655 S
C865 C448 0.934 . S
C873 C629 0.798 . S
C897 C362 2.178 . S
C905 C29 2.120 . S
C929 C69 2.130 . S
C937 C402 2.173 . S
C961 C109 2.146 . S
C969 C442 2.166 . S
C993 C322 2.145 . S
C1001 C149 2.138 . S
C1025 C537 2.185 . S
C1033 C168 2.119 . S
C1057 C577 2.159 . S
C1065 C208 2.138 . S
C1089 C248 2.136 . S
C1097 C617 2.173 . S
C1121 C497 2.180 . S
C1129 C288 2.128 . S
C1153 C349 2.098 . S
C1161 C42 2.178 . S
C1185 C389 2.125 . S
C1193 C82 2.173 . S
C1217 C429 2.098 . S
C1225 C122 2.178 . S
C1249 C2 2.147 . S
C1257 C469 2.139 . S
C1281 C217 2.184 . S
C1289 C488 2.118 . S
C1313 C528 2.101 . S
C1321 C257 2.179 . S
C1345 C297 2.181 . S
C1353 C568 2.118 . S
C1377 C608 2.148 . S
C1385 C177 2.163 . S
C1409 C31 3.113 . S
C1417 C431 3.122 . S
C1441 C71 3.122 . S
C1449 C471 3.128 . S
C1473 C351 3.119 . S
C1481 C111 3.126 . S
C1505 C151 3.126 . S
C1513 C391 3.128 . S
C1537 C172 3.114 . S
C1545 C572 3.125 . S
C1569 C212 3.114 . S
C1577 C612 3.125 . S
C1601 C492 3.112 . S
C1609 C252 3.124 . S
C1633 C292 3.127 . S
C1641 C532 3.127 . S
C1665 C17 1.789 . S
C1673 C311 2.092 . S
C1697 C511 2.063 . S
C1705 C57 1.855 . S
C1729 C97 1.858 . S
C1737 C231 2.083 . S
C1761 C137 1.797 . S
C1769 C591 2.089 . S
C1793 C162 1.854 . S
C1801 C132 2.078 . S
C1825 C332 2.063 . S
C1833 C202 1.849 . S
C1857 C242 1.806 . S
C1865 C52 2.085 . S
C1889 C412 2.070 . S
C1897 C282 1.836 . S
C1921 C337 1.876 . S
C1929 C631 2.078 . S
C1953 C191 2.097 . S
C1961 C377 1.821 1_565 S
C1985 C551 2.096 . S
C1993 C417 1.824 . S
C2017 C457 1.857 1_545 S
C2025 C271 2.079 . S
C2049 C482 1.796 . S
C2057 C452 2.088 . S
C2081 C522 1.830 1_545 S
C2089 C12 2.081 . S
C2113 C372 2.098 . S
C2121 C562 1.823 . S
C2145 C92 2.063 . S
C2153 C602 1.847 1_565 S
