# Generated by pormake.
# Topology sma, (6)-cn, num edge types: 1
# Building blocks:
#     Node 0, Type 0, BuildingBlock: UKALOJ_clean_sbu_0, # of connection points: 6
#     Node 1, Type 0, BuildingBlock: UKALOJ_clean_sbu_0, # of connection points: 6
#     Node 2, Type 0, BuildingBlock: UKALOJ_clean_sbu_0, # of connection points: 6
#     Edge 3, Type (0, 0), BuildingBlock: ZUJKAS_clean_linker_0, # of connection points: 2
#     Edge 4, Type (0, 0), BuildingBlock: ZUJKAS_clean_linker_0, # of connection points: 2
#     Edge 5, Type (0, 0), BuildingBlock: ZUJKAS_clean_linker_0, # of connection points: 2
#     Edge 6, Type (0, 0), BuildingBlock: ZUJKAS_clean_linker_0, # of connection points: 2
#     Edge 7, Type (0, 0), BuildingBlock: ZUJKAS_clean_linker_0, # of connection points: 2
#     Edge 8, Type (0, 0), BuildingBlock: ZUJKAS_clean_linker_0, # of connection points: 2
#     Edge 9, Type (0, 0), BuildingBlock: ZUJKAS_clean_linker_0, # of connection points: 2
#     Edge 10, Type (0, 0), BuildingBlock: ZUJKAS_clean_linker_0, # of connection points: 2
#     Edge 11, Type (0, 0), BuildingBlock: ZUJKAS_clean_linker_0, # of connection points: 2
# Relax obj value: 0.509
# Max RMSD: 0.333
# Mean RMSD: 0.333
data_MOF--net-sma--node1-UKALOJ_clean_sbu_0--edge1-ZUJKAS_clean_linker_0
_symmetry_space_group_name_H-M    P1
_symmetry_Int_Tables_number       1
_symmetry_cell_setting            triclinic
loop_
_symmetry_equiv_pos_as_xyz
'x, y, z'
_cell_length_a     34.332788
_cell_length_b     34.176321
_cell_length_c     22.818738
_cell_angle_alpha  91.346188
_cell_angle_beta   89.404883
_cell_angle_gamma 120.23719
loop_
_atom_site_label
_atom_site_type_symbol
_atom_site_fract_x
_atom_site_fract_y
_atom_site_fract_z
_atom_type_partial_charge
Zn0 Zn 0.04152 0.50999 0.12847 0.0
O1 O 0.09772 0.57766 0.0984 0.0
C2 C 0.11747 0.52146 0.19041 0.0
Zn3 Zn 0.04502 0.54958 0.20395 0.0
C4 C 0.10427 0.61429 0.12382 0.0
O5 O 0.07986 0.61127 0.167 0.0
C6 C 0.98605 0.44838 0.21948 0.0
O7 O 0.98306 0.54975 0.18349 0.0
O8 O 0.99219 0.52353 0.09903 0.0
N9 N 0.05361 0.58184 0.2822 0.0
C10 C 1.02783 0.5691 0.33056 0.0
C11 C 0.09339 0.6212 0.3563 0.0
N12 N 0.09414 0.6149 0.29798 0.0
N13 N 0.05223 0.59254 0.37803 0.0
C14 C 0.06703 0.48965 0.00643 0.0
C15 C 1.00359 0.43691 0.97484 0.0
N16 N 1.03715 0.47917 0.05029 0.0
N17 N 0.99789 0.44584 0.03099 0.0
N18 N 0.04669 0.46403 0.95823 0.0
H19 H 0.129 0.5241 0.05591 0.0
H20 H 0.12234 0.55802 0.00251 0.0
H21 H 0.13587 0.51574 0.97877 0.0
C22 C 0.11643 0.5237 0.01127 0.0
C23 C 0.97835 0.53493 0.33132 0.0
H24 H 0.96209 0.53594 0.29021 0.0
H25 H 0.96194 0.54172 0.36926 0.0
H26 H 0.97289 0.50039 0.33548 0.0
O27 O 1.00862 0.48652 0.24547 0.0
O28 O 0.98916 0.44643 0.16392 0.0
C29 C 0.97081 0.5375 0.13037 0.0
O30 O 0.08828 0.49419 0.15441 0.0
O31 O 0.11026 0.5505 0.21728 0.0
Zn32 Zn 0.53215 1.02407 0.5275 0.0
O33 O 0.60028 0.0766 0.55901 0.0
C34 C 0.51918 0.10183 0.52109 0.0
Zn35 Zn 0.5517 0.05154 0.44094 0.0
C36 C 0.62929 0.09739 0.5189 0.0
O37 O 0.61704 0.0902 0.46601 0.0
C38 C 0.4564 0.97733 0.43986 0.0
O39 O 0.56625 0.99742 0.41521 0.0
O40 O 0.55717 0.98224 0.50909 0.0
N41 N 0.5697 0.0822 0.36274 0.0
C42 C 0.55188 0.06732 0.30917 0.0
C43 C 0.59556 0.13886 0.30464 0.0
N44 N 0.59719 0.1266 0.35986 0.0
N45 N 0.56705 0.10219 0.27239 0.0
C46 C 0.51985 1.01434 0.66074 0.0
C47 C 0.47337 0.94353 0.66869 0.0
N48 N 0.51295 0.99558 0.60669 0.0
N49 N 0.48426 0.95158 0.61161 0.0
N50 N 0.49566 0.98238 0.70017 0.0
H51 H 0.58044 0.07177 0.69286 0.0
H52 H 0.53032 0.07407 0.70866 0.0
H53 H 0.55366 0.08511 0.63596 0.0
C54 C 0.54741 0.06419 0.67484 0.0
C55 C 0.52029 1.01873 0.29224 0.0
H56 H 0.5232 0.99558 0.32269 0.0
H57 H 0.52753 1.0118 0.24687 0.0
H58 H 0.4852 1.01203 0.293 0.0
O59 O 0.48455 1.01165 0.4117 0.0
O60 O 0.46692 0.97212 0.49133 0.0
C61 C 0.56785 0.97514 0.45851 0.0
O62 O 0.50621 0.06603 0.54947 0.0
O63 O 0.5399 0.1062 0.4728 0.0
Zn64 Zn 0.57388 0.56688 0.85539 0.0
O65 O 0.56727 0.50037 0.87957 0.0
C66 C 0.64165 0.5624 0.79072 0.0
Zn67 Zn 0.54052 0.53059 0.77894 0.0
C68 C 0.53714 0.46417 0.85376 0.0
O69 O 0.51416 0.46784 0.81386 0.0
C70 C 0.57865 0.63064 0.76901 0.0
O71 O 0.47719 0.52871 0.80063 0.0
O72 O 0.50924 0.54618 0.88729 0.0
N73 N 0.51872 0.49958 0.69985 0.0
C74 C 0.50868 0.51399 0.65111 0.0
C75 C 0.52114 0.46108 0.62538 0.0
N76 N 0.52557 0.46602 0.68402 0.0
N77 N 0.51095 0.49112 0.60348 0.0
C78 C 0.62112 0.58705 0.9756 0.0
C79 C 0.60836 0.63771 0.01105 0.0
N80 N 0.59907 0.59599 0.93444 0.0
N81 N 0.59172 0.62793 0.95617 0.0
N82 N 0.62703 0.61253 0.02435 0.0
H83 H 0.61131 0.51996 0.97661 0.0
H84 H 0.6671 0.5639 -0.00244 0.0
H85 H 0.64988 0.55544 0.92158 0.0
C86 C 0.63855 0.5549 0.9673 0.0
C87 C 0.49519 0.54945 0.65002 0.0
H88 H 0.48007 0.5512 0.69242 0.0
H89 H 0.47074 0.54174 0.61396 0.0
H90 H 0.52488 0.58306 0.64189 0.0
O91 O 0.56674 0.59413 0.74037 0.0
O92 O 0.58055 0.63015 0.82477 0.0
C93 C 0.47465 0.53422 0.85587 0.0
O94 O 0.63778 0.5886 0.82704 0.0
O95 O 0.60613 0.53209 0.76429 0.0
H96 H 0.13462 0.45284 0.17543 0.0
H97 H 0.19971 0.45852 0.12384 0.0
H98 H 0.26573 0.60427 0.13585 0.0
H99 H 0.2011 0.59837 0.19065 0.0
H100 H 0.22031 0.49501 0.01665 0.0
H101 H 0.37094 0.58441 0.16031 0.0
H102 H 0.31425 0.55985 0.18843 0.0
H103 H 0.3399 0.6134 0.15244 0.0
C104 C 0.16398 0.48611 0.16985 0.0
C105 C 0.16239 0.52524 0.18624 0.0
C106 C 0.20097 0.48934 0.13937 0.0
C107 C 0.23744 0.53178 0.12461 0.0
C108 C 0.23817 0.57103 0.1466 0.0
H109 H 0.41149 0.55638 0.81957 0.0
H110 H 0.35269 0.55787 0.881 0.0
C111 C 0.20119 0.5677 0.17811 0.0
C112 C 0.27151 0.53414 0.08121 0.0
H113 H 0.38367 0.57209 0.06114 0.0
C114 C 0.25607 0.51188 0.02645 0.0
C115 C 0.31819 0.55623 0.09364 0.0
C116 C 0.33691 0.57952 0.15204 0.0
C117 C 0.28564 0.51015 0.9846 0.0
C118 C 0.33236 0.53217 -0.00298 0.0
C119 C 0.34792 0.55529 0.05129 0.0
C120 C 0.36535 0.52879 0.95683 0.0
C121 C 0.26627 0.48325 0.92843 0.0
C122 C 0.39185 0.51172 0.97836 0.0
C123 C 0.42533 0.51123 0.94369 0.0
C124 C 0.43327 0.5275 0.88618 0.0
C125 C 0.40561 0.54287 0.86329 0.0
C126 C 0.37211 0.54384 0.89855 0.0
H127 H 0.22932 0.4597 0.93171 0.0
H128 H 0.27225 0.50687 0.89239 0.0
H129 H 0.28269 0.46328 0.91656 0.0
H130 H 0.38728 0.49957 0.02276 0.0
H131 H 0.44609 0.49919 0.96269 0.0
H132 H 0.66085 0.18454 0.55435 0.0
H133 H 0.73101 0.24728 0.51588 0.0
H134 H 0.77194 0.15259 0.45703 0.0
H135 H 0.70266 0.09037 0.49691 0.0
H136 H 0.84495 0.2344 0.48245 0.0
H137 H 0.72708 0.25488 0.33927 0.0
H138 H 0.72097 0.26412 0.41571 0.0
H139 H 0.70823 0.20885 0.38944 0.0
C140 C 0.68625 0.17756 0.53686 0.0
C141 C 0.67653 0.13261 0.5293 0.0
C142 C 0.72586 0.21331 0.51336 0.0
C143 C 0.756 0.2045 0.48139 0.0
C144 C 0.7491 0.16035 0.48081 0.0
H145 H 0.9138 0.36617 0.183 0.0
H146 H 0.86005 0.30446 0.24551 0.0
C147 C 0.70974 0.12477 0.50461 0.0
C148 C 0.79109 0.23929 0.44256 0.0
H149 H 0.80473 0.30598 0.32565 0.0
C150 C 0.83618 0.25018 0.44832 0.0
C151 C 0.77956 0.25878 0.39646 0.0
C152 C 0.73131 0.24579 0.38426 0.0
C153 C 0.87002 0.28059 0.41033 0.0
C154 C 0.85882 0.30175 0.36603 0.0
C155 C 0.81359 0.29018 0.35966 0.0
C156 C 0.89349 0.3371 0.32723 0.0
C157 C 0.91721 0.28873 0.41727 0.0
C158 C 0.93046 0.37584 0.35187 0.0
C159 C 0.96135 0.41056 0.31629 0.0
C160 C 0.95569 0.40822 0.255 0.0
C161 C 0.91926 0.36904 0.22994 0.0
C162 C 0.88837 0.33389 0.26576 0.0
H163 H 0.91696 0.25932 0.43744 0.0
H164 H 0.93491 0.29526 0.37451 0.0
H165 H 0.93666 0.3186 0.44675 0.0
H166 H 0.93487 0.37998 0.39896 0.0
H167 H 0.98934 0.43987 0.3372 0.0
H168 H 0.51704 0.88623 0.42696 0.0
H169 H 0.52655 0.82674 0.4709 0.0
H170 H 0.65701 0.92813 0.53682 0.0
H171 H 0.64814 0.98705 0.49104 0.0
H172 H 0.65641 0.85098 0.51656 0.0
H173 H 0.50443 0.81543 0.64465 0.0
H174 H 0.49361 0.80538 0.56745 0.0
H175 H 0.53118 0.86193 0.59499 0.0
C176 C 0.54891 0.8954 0.44752 0.0
C177 C 0.58219 0.9412 0.45464 0.0
C178 C 0.55386 0.86151 0.47413 0.0
C179 C 0.59174 0.87305 0.50933 0.0
C180 C 0.62723 0.91822 0.51056 0.0
H181 H 0.57878 0.70813 0.80799 0.0
H182 H 0.58682 0.77057 0.74754 0.0
C183 C 0.62248 0.95193 0.48344 0.0
C184 C 0.59266 0.83958 0.5496 0.0
H185 H 0.5349 0.76807 0.66141 0.0
C186 C 0.62978 0.83283 0.54815 0.0
C187 C 0.55881 0.81698 0.59256 0.0
C188 C 0.52002 0.82559 0.60061 0.0
C189 C 0.6334 0.80341 0.58708 0.0
C190 C 0.59827 0.77884 0.62773 0.0
C191 C 0.5617 0.78644 0.63012 0.0
C192 C 0.59753 0.7435 0.66602 0.0
C193 C 0.67548 0.79989 0.58493 0.0
C194 C 0.60124 0.70768 0.64087 0.0
C195 C 0.59739 0.67269 0.67531 0.0
C196 C 0.5885 0.67165 0.73584 0.0
C197 C 0.58575 0.70795 0.76162 0.0
C198 C 0.59006 0.74347 0.72695 0.0
H199 H 0.70473 0.83154 0.56859 0.0
H200 H 0.68411 0.7929 0.62874 0.0
H201 H 0.67006 0.77195 0.55418 0.0
H202 H 0.60582 0.70595 0.59406 0.0
H203 H 0.60039 0.64569 0.65395 0.0
H204 H 0.72511 0.63256 0.81526 0.0
H205 H 0.78342 0.62632 0.86701 0.0
H206 H 0.71188 0.48217 0.83343 0.0
H207 H 0.65325 0.48841 0.7804 0.0
H208 H 0.7503 0.56548 0.97096 0.0
H209 H 0.85249 0.52817 0.81272 0.0
H210 H 0.82441 0.55849 0.79184 0.0
H211 H 0.79216 0.49868 0.80317 0.0
C212 C 0.72273 0.59974 0.81637 0.0
C213 C 0.68395 0.56076 0.79482 0.0
C214 C 0.75592 0.59619 0.8467 0.0
C215 C 0.75161 0.55374 0.85521 0.0
C216 C 0.71581 0.51533 0.82763 0.0
H217 H 0.90747 0.47137 0.0619 0.0
H218 H 0.8519 0.47473 -0.00015 0.0
C219 C 0.68242 0.51893 0.79698 0.0
C220 C 0.7812 0.54953 0.89888 0.0
H221 H 0.86843 0.52942 0.91308 0.0
C222 C 0.77617 0.55756 0.95843 0.0
C223 C 0.81466 0.53901 0.88248 0.0
C224 C 0.82172 0.53074 0.81911 0.0
C225 C 0.80338 0.55487 0.00211 0.0
C226 C 0.83757 0.54512 0.98575 0.0
C227 C 0.84241 0.53701 0.92597 0.0
C228 C 0.86797 0.54183 0.02951 0.0
C229 C 0.79427 0.5613 0.06539 0.0
C230 C 0.89494 0.57786 0.06877 0.0
C231 C 0.92632 0.5755 0.10566 0.0
C232 C 0.9318 0.53746 0.10297 0.0
C233 C 0.90382 0.50105 0.06517 0.0
C234 C 0.87222 0.50308 0.02926 0.0
H235 H 0.7594 0.5549 0.07159 0.0
H236 H 0.79922 0.53845 0.09424 0.0
H237 H 0.8179 0.59681 0.07956 0.0
H238 H 0.89321 0.60862 0.06913 0.0
H239 H 0.94812 0.60443 0.13339 0.0
H240 H 0.41507 0.98713 0.34442 0.0
H241 H 0.35828 0.92753 0.28089 0.0
H242 H 0.34928 0.82632 0.39829 0.0
H243 H 0.40669 0.88608 0.46205 0.0
H244 H 0.3646 0.85753 0.22251 0.0
H245 H 0.2168 0.78841 0.37159 0.0
H246 H 0.26687 0.84264 0.38498 0.0
H247 H 0.26636 0.79125 0.40157 0.0
C248 C 0.4007 0.95221 0.3572 0.0
C249 C 0.41562 0.94149 0.40843 0.0
C250 C 0.36825 0.9181 0.3206 0.0
C251 C 0.34938 0.87227 0.33446 0.0
C252 C 0.36288 0.8614 0.38679 0.0
H253 H 0.19113 0.63226 0.10774 0.0
H254 H 0.25619 0.69844 0.15355 0.0
C255 C 0.39556 0.89565 0.42349 0.0
C256 C 0.31658 0.8362 0.2932 0.0
H257 H 0.20764 0.74911 0.28163 0.0
C258 C 0.33026 0.83378 0.23545 0.0
C259 C 0.27165 0.80532 0.30972 0.0
C260 C 0.25424 0.80707 0.37014 0.0
C261 C 0.30037 0.80138 0.19412 0.0
C262 C 0.25556 0.77038 0.21085 0.0
C263 C 0.24198 0.77281 0.2686 0.0
C264 C 0.22132 0.73572 0.16952 0.0
C265 C 0.31662 0.80119 0.13255 0.0
C266 C 0.18099 0.73561 0.15958 0.0
C267 C 0.14398 0.69781 0.13381 0.0
C268 C 0.14614 0.65888 0.11797 0.0
C269 C 0.1883 0.66148 0.12015 0.0
C270 C 0.2255 0.69935 0.14663 0.0
H271 H 0.34856 0.83295 0.12309 0.0
H272 H 0.32272 0.77238 0.12678 0.0
H273 H 0.29075 0.79667 0.10003 0.0
H274 H 0.17695 0.76336 0.17603 0.0
H275 H 0.11201 0.69698 0.13274 0.0
H276 H 0.60828 0.44913 0.86308 0.0
H277 H 0.60999 0.38558 0.81239 0.0
H278 H 0.46576 0.31693 0.79112 0.0
H279 H 0.46413 0.38037 0.83996 0.0
H280 H 0.54716 0.27485 0.81872 0.0
H281 H 0.5355 0.36047 0.62079 0.0
H282 H 0.5584 0.39043 0.68951 0.0
H283 H 0.49866 0.35434 0.68102 0.0
C284 C 0.57682 0.41963 0.84982 0.0
C285 C 0.53626 0.42028 0.85432 0.0
C286 C 0.57783 0.38343 0.82045 0.0
C287 C 0.53807 0.34702 0.79661 0.0
C288 C 0.4969 0.34488 0.80843 0.0
H289 H 0.46171 0.09665 0.60763 0.0
H290 H 0.46871 0.15768 0.67247 0.0
C291 C 0.49598 0.381 0.83717 0.0
C292 C 0.53943 0.31449 0.75305 0.0
H293 H 0.52655 0.28762 0.60634 0.0
C294 C 0.54306 0.27778 0.77226 0.0
C295 C 0.53459 0.31861 0.69229 0.0
C296 C 0.53184 0.35817 0.66922 0.0
C297 C 0.54059 0.24435 0.73247 0.0
C298 C 0.53344 0.24722 0.67186 0.0
C299 C 0.53155 0.28496 0.6526 0.0
C300 C 0.52666 0.21083 0.62828 0.0
C301 C 0.54591 0.20636 0.75586 0.0
C302 C 0.55487 0.22046 0.579 0.0
C303 C 0.55033 0.18545 0.54077 0.0
C304 C 0.51737 0.14012 0.55106 0.0
C305 C 0.48751 0.13111 0.59833 0.0
C306 C 0.49189 0.16599 0.6361 0.0
H307 H 0.56471 0.21625 0.79802 0.0
H308 H 0.51207 0.17666 0.76403 0.0
H309 H 0.56383 0.1959 0.72405 0.0
H310 H 0.58165 0.25483 0.57145 0.0
H311 H 0.57429 0.19357 0.50537 0.0
H312 H 0.08961 0.54684 0.91087 0.0
H313 H 0.09632 0.56327 0.8074 0.0
H314 H 1.03603 0.42084 0.76468 0.0
H315 H 1.03005 0.40414 0.86979 0.0
H316 H 0.13287 0.54338 0.70538 0.0
H317 H 0.94526 0.45817 0.70715 0.0
H318 H 0.97802 0.47229 0.77364 0.0
H319 H 0.96943 0.4247 0.72879 0.0
C320 C 0.08016 0.51918 0.8798 0.0
C321 C 0.06026 0.47422 0.89834 0.0
C322 C 0.08344 0.5286 0.8205 0.0
C323 C 0.06623 0.49322 0.77878 0.0
C324 C 0.04915 0.44849 0.79662 0.0
H325 H 1.01816 0.50657 0.41295 0.0
H326 H 1.01886 0.48204 0.51165 0.0
C327 C 0.04597 0.43902 0.85627 0.0
C328 C 0.06111 0.50338 0.71806 0.0
H329 H 0.98213 0.49422 0.62062 0.0
C330 C 0.09998 0.53235 0.68646 0.0
C331 C 1.01802 0.4893 0.69431 0.0
C332 C 0.97519 0.45967 0.72769 0.0
C333 C 0.09689 0.54782 0.63141 0.0
C334 C 0.05385 0.53442 0.60827 0.0
C335 C 1.01499 0.50469 0.63922 0.0
C336 C 0.04846 0.54927 0.55055 0.0
C337 C 0.13957 0.57814 0.59825 0.0
C338 C 0.06333 0.59503 0.5405 0.0
C339 C 0.06188 0.60906 0.48396 0.0
C340 C 0.0452 0.57742 0.43726 0.0
C341 C 1.02893 0.53142 0.44828 0.0
C342 C 1.03013 0.51742 0.50455 0.0
H343 H 0.16924 0.57789 0.61677 0.0
H344 H 0.13602 0.56755 0.5513 0.0
H345 H 0.14617 0.61344 0.60064 0.0
H346 H 0.07725 0.61993 0.57595 0.0
H347 H 0.07535 0.64473 0.47608 0.0
H348 H 0.6144 0.13094 0.17299 0.0
H349 H 0.58278 0.1188 0.07388 0.0
H350 H 0.44894 0.06146 0.14684 0.0
H351 H 0.48086 0.07352 0.24571 0.0
H352 H 0.4578 1.00364 0.0733 0.0
H353 H 0.52522 0.16834 0.96647 0.0
H354 H 0.56954 0.16507 0.00271 0.0
H355 H 0.52416 0.16329 0.04526 0.0
C356 C 0.57847 0.11696 0.16742 0.0
C357 C 0.54972 0.10209 0.21584 0.0
C358 C 0.56042 0.11042 0.11121 0.0
C359 C 0.51353 0.0896 0.10326 0.0
C360 C 0.48516 0.07775 0.15221 0.0
H361 H 0.41744 0.96172 0.75262 0.0
H362 H 0.40902 0.98618 0.85213 0.0
C363 C 0.50324 0.08415 0.20827 0.0
C364 C 0.4943 0.07273 0.04452 0.0
H365 H 0.51179 0.10409 0.90195 0.0
C366 C 0.46818 1.02559 0.0358 0.0
C367 C 0.50755 0.10153 -0.00398 0.0
C368 C 0.53276 0.15241 0.00323 0.0
C369 C 0.45936 1.0063 0.9793 0.0
C370 C 0.47693 0.03509 0.93101 0.0
C371 C 0.49895 0.08225 0.93952 0.0
C372 C 0.47998 1.01746 0.87301 0.0
C373 C 0.43505 0.95543 0.97166 0.0
C374 C 0.52236 1.02624 0.85319 0.0
C375 C 0.52702 1.01226 0.79723 0.0
C376 C 0.4894 0.98946 0.7605 0.0
C377 C 0.44661 0.97887 0.78108 0.0
C378 C 0.44189 0.99304 0.83726 0.0
H379 H 0.4248 0.93786 0.01421 0.0
H380 H 0.40441 0.94396 0.9445 0.0
H381 H 0.45707 0.94508 0.94826 0.0
H382 H 0.55197 0.04473 0.88071 0.0
H383 H 0.56014 1.02047 0.78169 0.0
H384 H 0.57089 0.57659 0.57384 0.0
H385 H 0.6001 0.6033 0.4764 0.0
H386 H 0.51297 0.46921 0.4043 0.0
H387 H 0.48234 0.44241 0.50282 0.0
H388 H 0.61168 0.51392 0.37872 0.0
H389 H 0.53605 0.62093 0.33228 0.0
H390 H 0.56176 0.62849 0.40307 0.0
H391 H 0.51189 0.5759 0.38463 0.0
C392 C 0.55612 0.55333 0.53698 0.0
C393 C 0.52276 0.50788 0.54525 0.0
C394 C 0.57346 0.56848 0.4815 0.0
C395 C 0.55818 0.53831 0.43347 0.0
C396 C 0.52471 0.49295 0.44116 0.0
H397 H 0.59682 0.53176 0.07472 0.0
H398 H 0.59468 0.51865 0.17872 0.0
C399 C 0.50708 0.47779 0.49691 0.0
C400 C 0.57926 0.55385 0.37592 0.0
H401 H 0.58798 0.62162 0.26376 0.0
C402 C 0.60667 0.53752 0.35343 0.0
C403 C 0.57334 0.58541 0.34421 0.0
C404 C 0.54397 0.60364 0.36687 0.0
C405 C 0.62764 0.55126 0.2988 0.0
C406 C 0.62011 0.58131 0.26581 0.0
C407 C 0.59401 0.59888 0.28946 0.0
C408 C 0.63284 0.58974 0.20358 0.0
C409 C 0.65727 0.53322 0.27672 0.0
C410 C 0.65597 0.63414 0.18278 0.0
C411 C 0.65748 0.6417 0.12273 0.0
C412 C 0.63593 0.60501 0.08297 0.0
C413 C 0.61546 0.56066 0.10381 0.0
C414 C 0.61401 0.55311 0.16358 0.0
H415 H 0.67291 0.52544 0.3137 0.0
H416 H 0.6364 0.50125 0.25141 0.0
H417 H 0.68438 0.55768 0.24771 0.0
H418 H 0.67024 0.66283 0.21317 0.0
H419 H 0.67288 0.67612 0.10749 0.0
loop_
_geom_bond_atom_site_label_1
_geom_bond_atom_site_label_2
_geom_bond_distance
_geom_bond_site_symmetry_2
_ccdc_geom_bond_type
Zn0 O1 2.055 . S
Zn0 O8 2.046 1_455 S
Zn0 N16 2.036 . S
Zn0 O28 2.053 1_455 S
Zn0 O30 2.066 . S
O1 Zn0 2.055 . S
O1 C4 1.259 . S
C2 O30 1.256 . S
C2 O31 1.244 . S
Zn3 O5 2.046 . S
Zn3 O7 2.055 1_455 S
Zn3 N9 2.036 . S
Zn3 O27 2.066 1_455 S
Zn3 O31 2.053 . S
C4 O1 1.259 . S
C4 O5 1.254 . S
O5 Zn3 2.046 . S
O5 C4 1.254 . S
C6 O27 1.256 . S
C6 O28 1.244 . S
O7 Zn3 2.055 1_655 S
O7 C29 1.259 . S
O8 Zn0 2.046 1_655 S
O8 C29 1.254 . S
N9 Zn3 2.036 . S
N9 C10 1.298 1_455 S
N9 N12 1.398 . S
C10 N9 1.298 1_655 S
C10 N13 1.367 1_655 S
C10 C23 1.481 . S
C11 N12 1.299 . S
C11 N13 1.379 . S
N12 N9 1.398 . S
N12 C11 1.299 . S
N13 C10 1.367 1_455 S
N13 C11 1.379 . S
C14 N16 1.298 1_556 S
C14 N18 1.367 . S
C14 C22 1.481 . S
C15 N17 1.299 . S
C15 N18 1.379 1_655 S
N16 Zn0 2.036 . S
N16 C14 1.298 1_554 S
N16 N17 1.398 1_454 S
N17 C15 1.299 . S
N17 N16 1.398 1_656 S
N18 C14 1.367 . S
N18 C15 1.379 1_455 S
H19 C22 0.980 1_554 S
H20 C22 0.981 . S
H21 C22 0.981 . S
C22 C14 1.481 . S
C22 H19 0.980 1_556 S
C22 H20 0.981 . S
C22 H21 0.981 . S
C23 C10 1.481 . S
C23 H24 0.980 . S
C23 H25 0.981 . S
C23 H26 0.981 . S
H24 C23 0.980 . S
H25 C23 0.981 . S
H26 C23 0.981 . S
O27 Zn3 2.066 1_655 S
O27 C6 1.256 . S
O28 Zn0 2.053 1_655 S
O28 C6 1.244 . S
C29 O7 1.259 . S
C29 O8 1.254 . S
O30 Zn0 2.066 . S
O30 C2 1.256 . S
O31 C2 1.244 . S
O31 Zn3 2.053 . S
Zn32 O33 2.055 . S
Zn32 O40 2.046 1_545 S
Zn32 N48 2.036 . S
Zn32 O60 2.053 1_545 S
Zn32 O62 2.066 . S
O33 Zn32 2.055 . S
O33 C36 1.259 . S
C34 O62 1.256 . S
C34 O63 1.244 . S
Zn35 O37 2.046 . S
Zn35 O39 2.055 1_545 S
Zn35 N41 2.036 . S
Zn35 O59 2.066 1_545 S
Zn35 O63 2.053 . S
C36 O33 1.259 . S
C36 O37 1.254 . S
O37 Zn35 2.046 . S
O37 C36 1.254 . S
C38 O59 1.256 . S
C38 O60 1.244 . S
O39 Zn35 2.055 1_565 S
O39 C61 1.259 . S
O40 Zn32 2.046 1_565 S
O40 C61 1.254 . S
N41 Zn35 2.036 . S
N41 C42 1.298 1_545 S
N41 N44 1.398 . S
C42 N41 1.298 1_565 S
C42 N45 1.367 1_565 S
C42 C55 1.481 . S
C43 N44 1.299 . S
C43 N45 1.379 . S
N44 N41 1.398 . S
N44 C43 1.299 . S
N45 C42 1.367 1_545 S
N45 C43 1.379 . S
C46 N48 1.298 . S
C46 N50 1.367 . S
C46 C54 1.481 . S
C47 N49 1.299 . S
C47 N50 1.379 1_565 S
N48 Zn32 2.036 . S
N48 C46 1.298 . S
N48 N49 1.398 1_545 S
N49 C47 1.299 . S
N49 N48 1.398 1_565 S
N50 C46 1.367 . S
N50 C47 1.379 1_545 S
H51 C54 0.980 . S
H52 C54 0.981 . S
H53 C54 0.981 . S
C54 C46 1.481 . S
C54 H51 0.980 . S
C54 H52 0.981 . S
C54 H53 0.981 . S
C55 C42 1.481 . S
C55 H56 0.980 . S
C55 H57 0.981 . S
C55 H58 0.981 . S
H56 C55 0.980 . S
H57 C55 0.981 . S
H58 C55 0.981 . S
O59 Zn35 2.066 1_565 S
O59 C38 1.256 . S
O60 Zn32 2.053 1_565 S
O60 C38 1.244 . S
C61 O39 1.259 . S
C61 O40 1.254 . S
O62 Zn32 2.066 . S
O62 C34 1.256 . S
O63 C34 1.244 . S
O63 Zn35 2.053 . S
Zn64 O65 2.055 . S
Zn64 O72 2.046 . S
Zn64 N80 2.036 . S
Zn64 O92 2.053 . S
Zn64 O94 2.066 . S
O65 Zn64 2.055 . S
O65 C68 1.259 . S
C66 O94 1.256 . S
C66 O95 1.244 . S
Zn67 O69 2.046 . S
Zn67 O71 2.055 . S
Zn67 N73 2.036 . S
Zn67 O91 2.066 . S
Zn67 O95 2.053 . S
C68 O65 1.259 . S
C68 O69 1.254 . S
O69 Zn67 2.046 . S
O69 C68 1.254 . S
C70 O91 1.256 . S
C70 O92 1.244 . S
O71 Zn67 2.055 . S
O71 C93 1.259 . S
O72 Zn64 2.046 . S
O72 C93 1.254 . S
N73 Zn67 2.036 . S
N73 C74 1.298 . S
N73 N76 1.398 . S
C74 N73 1.298 . S
C74 N77 1.367 . S
C74 C87 1.481 . S
C75 N76 1.299 . S
C75 N77 1.379 . S
N76 N73 1.398 . S
N76 C75 1.299 . S
N77 C74 1.367 . S
N77 C75 1.379 . S
C78 N80 1.298 1_554 S
C78 N82 1.367 . S
C78 C86 1.481 . S
C79 N81 1.299 . S
C79 N82 1.379 . S
N80 Zn64 2.036 . S
N80 C78 1.298 1_556 S
N80 N81 1.398 1_556 S
N81 C79 1.299 . S
N81 N80 1.398 1_554 S
N82 C78 1.367 . S
N82 C79 1.379 . S
H83 C86 0.980 1_556 S
H84 C86 0.981 . S
H85 C86 0.981 . S
C86 C78 1.481 . S
C86 H83 0.980 1_554 S
C86 H84 0.981 . S
C86 H85 0.981 . S
C87 C74 1.481 . S
C87 H88 0.980 . S
C87 H89 0.981 . S
C87 H90 0.981 . S
H88 C87 0.980 . S
H89 C87 0.981 . S
H90 C87 0.981 . S
O91 Zn67 2.066 . S
O91 C70 1.256 . S
O92 Zn64 2.053 . S
O92 C70 1.244 . S
C93 O71 1.259 . S
C93 O72 1.254 . S
O94 Zn64 2.066 . S
O94 C66 1.256 . S
O95 C66 1.244 . S
O95 Zn67 2.053 . S
H96 C104 0.929 . S
H97 C106 0.930 . S
H98 C108 0.930 . S
H99 C111 0.929 . S
H100 C114 0.930 . S
H101 C116 0.960 . S
H102 C116 0.960 . S
H103 C116 0.960 . S
C104 H96 0.929 . S
C104 C105 1.377 . S
C104 C106 1.384 . S
C105 C104 1.377 . S
C105 C111 1.390 . S
C106 H97 0.930 . S
C106 C104 1.384 . S
C106 C107 1.372 . S
C107 C106 1.372 . S
C107 C108 1.400 . S
C107 C112 1.490 . S
C108 H98 0.930 . S
C108 C107 1.400 . S
C108 C111 1.386 . S
H109 C125 0.930 . S
H110 C126 0.931 . S
C111 H99 0.929 . S
C111 C105 1.390 . S
C111 C108 1.386 . S
C112 C107 1.490 . S
C112 C114 1.395 1_554 S
C112 C115 1.403 . S
H113 C119 0.930 . S
C114 H100 0.930 . S
C114 C112 1.395 1_556 S
C114 C117 1.403 . S
C115 C112 1.403 . S
C115 C116 1.524 . S
C115 C119 1.400 1_554 S
C116 H101 0.960 . S
C116 H102 0.960 . S
C116 H103 0.960 . S
C116 C115 1.524 . S
C117 C114 1.403 . S
C117 C118 1.392 . S
C117 C121 1.495 . S
C118 C117 1.392 . S
C118 C119 1.385 . S
C118 C120 1.478 . S
C119 H113 0.930 . S
C119 C115 1.400 1_556 S
C119 C118 1.385 . S
C120 C118 1.478 . S
C120 C122 1.381 . S
C120 C126 1.383 . S
C121 C117 1.495 . S
C121 H127 0.959 . S
C121 H128 0.961 . S
C121 H129 0.960 . S
C122 C120 1.381 . S
C122 C123 1.394 . S
C122 H130 0.930 . S
C123 C122 1.394 . S
C123 C124 1.383 . S
C123 H131 0.929 . S
C124 C123 1.383 . S
C124 C125 1.377 . S
C125 H109 0.930 . S
C125 C124 1.377 . S
C125 C126 1.379 . S
C126 H110 0.931 . S
C126 C120 1.383 . S
C126 C125 1.379 . S
H127 C121 0.959 . S
H128 C121 0.961 . S
H129 C121 0.960 . S
H130 C122 0.930 . S
H131 C123 0.929 . S
H132 C140 0.929 . S
H133 C142 0.930 . S
H134 C144 0.930 . S
H135 C147 0.929 . S
H136 C150 0.930 . S
H137 C152 0.960 . S
H138 C152 0.960 . S
H139 C152 0.960 . S
C140 H132 0.929 . S
C140 C141 1.377 . S
C140 C142 1.384 . S
C141 C140 1.377 . S
C141 C147 1.390 . S
C142 H133 0.930 . S
C142 C140 1.384 . S
C142 C143 1.372 . S
C143 C142 1.372 . S
C143 C144 1.400 . S
C143 C148 1.490 . S
C144 H134 0.930 . S
C144 C143 1.400 . S
C144 C147 1.386 . S
H145 C161 0.930 . S
H146 C162 0.931 . S
C147 H135 0.929 . S
C147 C141 1.390 . S
C147 C144 1.386 . S
C148 C143 1.490 . S
C148 C150 1.395 . S
C148 C151 1.403 . S
H149 C155 0.930 . S
C150 H136 0.930 . S
C150 C148 1.395 . S
C150 C153 1.403 . S
C151 C148 1.403 . S
C151 C152 1.524 . S
C151 C155 1.400 . S
C152 H137 0.960 . S
C152 H138 0.960 . S
C152 H139 0.960 . S
C152 C151 1.524 . S
C153 C150 1.403 . S
C153 C154 1.392 . S
C153 C157 1.495 . S
C154 C153 1.392 . S
C154 C155 1.385 . S
C154 C156 1.478 . S
C155 H149 0.930 . S
C155 C151 1.400 . S
C155 C154 1.385 . S
C156 C154 1.478 . S
C156 C158 1.381 . S
C156 C162 1.383 . S
C157 C153 1.495 . S
C157 H163 0.959 . S
C157 H164 0.961 . S
C157 H165 0.960 . S
C158 C156 1.381 . S
C158 C159 1.394 . S
C158 H166 0.930 . S
C159 C158 1.394 . S
C159 C160 1.383 . S
C159 H167 0.929 . S
C160 C159 1.383 . S
C160 C161 1.377 . S
C161 H145 0.930 . S
C161 C160 1.377 . S
C161 C162 1.379 . S
C162 H146 0.931 . S
C162 C156 1.383 . S
C162 C161 1.379 . S
H163 C157 0.959 . S
H164 C157 0.961 . S
H165 C157 0.960 . S
H166 C158 0.930 . S
H167 C159 0.929 . S
H168 C176 0.929 . S
H169 C178 0.930 . S
H170 C180 0.930 . S
H171 C183 0.929 . S
H172 C186 0.930 . S
H173 C188 0.960 . S
H174 C188 0.960 . S
H175 C188 0.960 . S
C176 H168 0.929 . S
C176 C177 1.377 . S
C176 C178 1.384 . S
C177 C176 1.377 . S
C177 C183 1.390 . S
C178 H169 0.930 . S
C178 C176 1.384 . S
C178 C179 1.372 . S
C179 C178 1.372 . S
C179 C180 1.400 . S
C179 C184 1.490 . S
C180 H170 0.930 . S
C180 C179 1.400 . S
C180 C183 1.386 . S
H181 C197 0.930 . S
H182 C198 0.931 . S
C183 H171 0.929 . S
C183 C177 1.390 . S
C183 C180 1.386 . S
C184 C179 1.490 . S
C184 C186 1.395 . S
C184 C187 1.403 . S
H185 C191 0.930 . S
C186 H172 0.930 . S
C186 C184 1.395 . S
C186 C189 1.403 . S
C187 C184 1.403 . S
C187 C188 1.524 . S
C187 C191 1.400 . S
C188 H173 0.960 . S
C188 H174 0.960 . S
C188 H175 0.960 . S
C188 C187 1.524 . S
C189 C186 1.403 . S
C189 C190 1.392 . S
C189 C193 1.495 . S
C190 C189 1.392 . S
C190 C191 1.385 . S
C190 C192 1.478 . S
C191 H185 0.930 . S
C191 C187 1.400 . S
C191 C190 1.385 . S
C192 C190 1.478 . S
C192 C194 1.381 . S
C192 C198 1.383 . S
C193 C189 1.495 . S
C193 H199 0.959 . S
C193 H200 0.961 . S
C193 H201 0.960 . S
C194 C192 1.381 . S
C194 C195 1.394 . S
C194 H202 0.930 . S
C195 C194 1.394 . S
C195 C196 1.383 . S
C195 H203 0.929 . S
C196 C195 1.383 . S
C196 C197 1.377 . S
C197 H181 0.930 . S
C197 C196 1.377 . S
C197 C198 1.379 . S
C198 H182 0.931 . S
C198 C192 1.383 . S
C198 C197 1.379 . S
H199 C193 0.959 . S
H200 C193 0.961 . S
H201 C193 0.960 . S
H202 C194 0.930 . S
H203 C195 0.929 . S
H204 C212 0.929 . S
H205 C214 0.930 . S
H206 C216 0.930 . S
H207 C219 0.929 . S
H208 C222 0.930 . S
H209 C224 0.960 . S
H210 C224 0.960 . S
H211 C224 0.960 . S
C212 H204 0.929 . S
C212 C213 1.377 . S
C212 C214 1.384 . S
C213 C212 1.377 . S
C213 C219 1.390 . S
C214 H205 0.930 . S
C214 C212 1.384 . S
C214 C215 1.372 . S
C215 C214 1.372 . S
C215 C216 1.400 . S
C215 C220 1.490 . S
C216 H206 0.930 . S
C216 C215 1.400 . S
C216 C219 1.386 . S
H217 C233 0.930 . S
H218 C234 0.931 . S
C219 H207 0.929 . S
C219 C213 1.390 . S
C219 C216 1.386 . S
C220 C215 1.490 . S
C220 C222 1.395 1_556 S
C220 C223 1.403 . S
H221 C227 0.930 . S
C222 H208 0.930 . S
C222 C220 1.395 1_554 S
C222 C225 1.403 . S
C223 C220 1.403 . S
C223 C224 1.524 . S
C223 C227 1.400 . S
C224 H209 0.960 . S
C224 H210 0.960 . S
C224 H211 0.960 . S
C224 C223 1.524 . S
C225 C222 1.403 . S
C225 C226 1.392 . S
C225 C229 1.495 . S
C226 C225 1.392 . S
C226 C227 1.385 1_554 S
C226 C228 1.478 . S
C227 H221 0.930 . S
C227 C223 1.400 . S
C227 C226 1.385 1_556 S
C228 C226 1.478 . S
C228 C230 1.381 . S
C228 C234 1.383 . S
C229 C225 1.495 . S
C229 H235 0.959 . S
C229 H236 0.961 . S
C229 H237 0.960 . S
C230 C228 1.381 . S
C230 C231 1.394 . S
C230 H238 0.930 . S
C231 C230 1.394 . S
C231 C232 1.383 . S
C231 H239 0.929 . S
C232 C231 1.383 . S
C232 C233 1.377 . S
C233 H217 0.930 . S
C233 C232 1.377 . S
C233 C234 1.379 . S
C234 H218 0.931 . S
C234 C228 1.383 . S
C234 C233 1.379 . S
H235 C229 0.959 . S
H236 C229 0.961 . S
H237 C229 0.960 . S
H238 C230 0.930 . S
H239 C231 0.929 . S
H240 C248 0.929 . S
H241 C250 0.930 . S
H242 C252 0.930 . S
H243 C255 0.929 . S
H244 C258 0.930 . S
H245 C260 0.960 . S
H246 C260 0.960 . S
H247 C260 0.960 . S
C248 H240 0.929 . S
C248 C249 1.377 . S
C248 C250 1.384 . S
C249 C248 1.377 . S
C249 C255 1.390 . S
C250 H241 0.930 . S
C250 C248 1.384 . S
C250 C251 1.372 . S
C251 C250 1.372 . S
C251 C252 1.400 . S
C251 C256 1.490 . S
C252 H242 0.930 . S
C252 C251 1.400 . S
C252 C255 1.386 . S
H253 C269 0.930 . S
H254 C270 0.931 . S
C255 H243 0.929 . S
C255 C249 1.390 . S
C255 C252 1.386 . S
C256 C251 1.490 . S
C256 C258 1.395 . S
C256 C259 1.403 . S
H257 C263 0.930 . S
C258 H244 0.930 . S
C258 C256 1.395 . S
C258 C261 1.403 . S
C259 C256 1.403 . S
C259 C260 1.524 . S
C259 C263 1.400 . S
C260 H245 0.960 . S
C260 H246 0.960 . S
C260 H247 0.960 . S
C260 C259 1.524 . S
C261 C258 1.403 . S
C261 C262 1.392 . S
C261 C265 1.495 . S
C262 C261 1.392 . S
C262 C263 1.385 . S
C262 C264 1.478 . S
C263 H257 0.930 . S
C263 C259 1.400 . S
C263 C262 1.385 . S
C264 C262 1.478 . S
C264 C266 1.381 . S
C264 C270 1.383 . S
C265 C261 1.495 . S
C265 H271 0.959 . S
C265 H272 0.961 . S
C265 H273 0.960 . S
C266 C264 1.381 . S
C266 C267 1.394 . S
C266 H274 0.930 . S
C267 C266 1.394 . S
C267 C268 1.383 . S
C267 H275 0.929 . S
C268 C267 1.383 . S
C268 C269 1.377 . S
C269 H253 0.930 . S
C269 C268 1.377 . S
C269 C270 1.379 . S
C270 H254 0.931 . S
C270 C264 1.383 . S
C270 C269 1.379 . S
H271 C265 0.959 . S
H272 C265 0.961 . S
H273 C265 0.960 . S
H274 C266 0.930 . S
H275 C267 0.929 . S
H276 C284 0.929 . S
H277 C286 0.930 . S
H278 C288 0.930 . S
H279 C291 0.929 . S
H280 C294 0.930 . S
H281 C296 0.960 . S
H282 C296 0.960 . S
H283 C296 0.960 . S
C284 H276 0.929 . S
C284 C285 1.377 . S
C284 C286 1.384 . S
C285 C284 1.377 . S
C285 C291 1.390 . S
C286 H277 0.930 . S
C286 C284 1.384 . S
C286 C287 1.372 . S
C287 C286 1.372 . S
C287 C288 1.400 . S
C287 C292 1.490 . S
C288 H278 0.930 . S
C288 C287 1.400 . S
C288 C291 1.386 . S
H289 C305 0.930 . S
H290 C306 0.931 . S
C291 H279 0.929 . S
C291 C285 1.390 . S
C291 C288 1.386 . S
C292 C287 1.490 . S
C292 C294 1.395 . S
C292 C295 1.403 . S
H293 C299 0.930 . S
C294 H280 0.930 . S
C294 C292 1.395 . S
C294 C297 1.403 . S
C295 C292 1.403 . S
C295 C296 1.524 . S
C295 C299 1.400 . S
C296 H281 0.960 . S
C296 H282 0.960 . S
C296 H283 0.960 . S
C296 C295 1.524 . S
C297 C294 1.403 . S
C297 C298 1.392 . S
C297 C301 1.495 . S
C298 C297 1.392 . S
C298 C299 1.385 . S
C298 C300 1.478 . S
C299 H293 0.930 . S
C299 C295 1.400 . S
C299 C298 1.385 . S
C300 C298 1.478 . S
C300 C302 1.381 . S
C300 C306 1.383 . S
C301 C297 1.495 . S
C301 H307 0.959 . S
C301 H308 0.961 . S
C301 H309 0.960 . S
C302 C300 1.381 . S
C302 C303 1.394 . S
C302 H310 0.930 . S
C303 C302 1.394 . S
C303 C304 1.383 . S
C303 H311 0.929 . S
C304 C303 1.383 . S
C304 C305 1.377 . S
C305 H289 0.930 . S
C305 C304 1.377 . S
C305 C306 1.379 . S
C306 H290 0.931 . S
C306 C300 1.383 . S
C306 C305 1.379 . S
H307 C301 0.959 . S
H308 C301 0.961 . S
H309 C301 0.960 . S
H310 C302 0.930 . S
H311 C303 0.929 . S
H312 C320 0.929 . S
H313 C322 0.930 . S
H314 C324 0.930 . S
H315 C327 0.929 . S
H316 C330 0.930 . S
H317 C332 0.960 . S
H318 C332 0.960 . S
H319 C332 0.960 . S
C320 H312 0.929 . S
C320 C321 1.377 . S
C320 C322 1.384 . S
C321 C320 1.377 . S
C321 C327 1.390 . S
C322 H313 0.930 . S
C322 C320 1.384 . S
C322 C323 1.372 . S
C323 C322 1.372 . S
C323 C324 1.400 . S
C323 C328 1.490 . S
C324 H314 0.930 . S
C324 C323 1.400 . S
C324 C327 1.386 . S
H325 C341 0.930 . S
H326 C342 0.931 . S
C327 H315 0.929 . S
C327 C321 1.390 . S
C327 C324 1.386 . S
C328 C323 1.490 . S
C328 C330 1.395 . S
C328 C331 1.403 1_455 S
H329 C335 0.930 . S
C330 H316 0.930 . S
C330 C328 1.395 . S
C330 C333 1.403 . S
C331 C328 1.403 1_655 S
C331 C332 1.524 . S
C331 C335 1.400 . S
C332 H317 0.960 . S
C332 H318 0.960 . S
C332 H319 0.960 . S
C332 C331 1.524 . S
C333 C330 1.403 . S
C333 C334 1.392 . S
C333 C337 1.495 . S
C334 C333 1.392 . S
C334 C335 1.385 1_455 S
C334 C336 1.478 . S
C335 H329 0.930 . S
C335 C331 1.400 . S
C335 C334 1.385 1_655 S
C336 C334 1.478 . S
C336 C338 1.381 1_455 S
C336 C342 1.383 . S
C337 C333 1.495 . S
C337 H343 0.959 . S
C337 H344 0.961 . S
C337 H345 0.960 . S
C338 C336 1.381 1_655 S
C338 C339 1.394 . S
C338 H346 0.930 . S
C339 C338 1.394 . S
C339 C340 1.383 . S
C339 H347 0.929 . S
C340 C339 1.383 . S
C340 C341 1.377 1_655 S
C341 H325 0.930 . S
C341 C340 1.377 1_455 S
C341 C342 1.379 . S
C342 H326 0.931 . S
C342 C336 1.383 . S
C342 C341 1.379 . S
H343 C337 0.959 . S
H344 C337 0.961 . S
H345 C337 0.960 . S
H346 C338 0.930 . S
H347 C339 0.929 . S
H348 C356 0.929 . S
H349 C358 0.930 . S
H350 C360 0.930 . S
H351 C363 0.929 . S
H352 C366 0.930 . S
H353 C368 0.960 . S
H354 C368 0.960 . S
H355 C368 0.960 . S
C356 H348 0.929 . S
C356 C357 1.377 . S
C356 C358 1.384 . S
C357 C356 1.377 . S
C357 C363 1.390 1_565 S
C358 H349 0.930 . S
C358 C356 1.384 . S
C358 C359 1.372 1_565 S
C359 C358 1.372 1_545 S
C359 C360 1.400 . S
C359 C364 1.490 . S
C360 H350 0.930 . S
C360 C359 1.400 . S
C360 C363 1.386 . S
H361 C377 0.930 . S
H362 C378 0.931 . S
C363 H351 0.929 . S
C363 C357 1.390 1_545 S
C363 C360 1.386 . S
C364 C359 1.490 . S
C364 C366 1.395 1_545 S
C364 C367 1.403 . S
H365 C371 0.930 . S
C366 H352 0.930 . S
C366 C364 1.395 1_565 S
C366 C369 1.403 1_554 S
C367 C364 1.403 . S
C367 C368 1.524 . S
C367 C371 1.400 1_554 S
C368 H353 0.960 . S
C368 H354 0.960 . S
C368 H355 0.960 . S
C368 C367 1.524 . S
C369 C366 1.403 1_556 S
C369 C370 1.392 1_565 S
C369 C373 1.495 . S
C370 C369 1.392 1_545 S
C370 C371 1.385 . S
C370 C372 1.478 . S
C371 H365 0.930 . S
C371 C367 1.400 1_556 S
C371 C370 1.385 . S
C372 C370 1.478 . S
C372 C374 1.381 . S
C372 C378 1.383 . S
C373 C369 1.495 . S
C373 H379 0.959 . S
C373 H380 0.961 . S
C373 H381 0.960 . S
C374 C372 1.381 . S
C374 C375 1.394 . S
C374 H382 0.934 . S
C375 C374 1.394 . S
C375 C376 1.383 . S
C375 H383 0.929 . S
C376 C375 1.383 . S
C376 C377 1.377 . S
C377 H361 0.930 . S
C377 C376 1.377 . S
C377 C378 1.379 . S
C378 H362 0.931 . S
C378 C372 1.383 . S
C378 C377 1.379 . S
H379 C373 0.959 . S
H380 C373 0.961 . S
H381 C373 0.960 . S
H382 C374 0.934 . S
H383 C375 0.929 . S
H384 C392 0.929 . S
H385 C394 0.930 . S
H386 C396 0.930 . S
H387 C399 0.929 . S
H388 C402 0.930 . S
H389 C404 0.960 . S
H390 C404 0.960 . S
H391 C404 0.960 . S
C392 H384 0.929 . S
C392 C393 1.377 . S
C392 C394 1.384 . S
C393 C392 1.377 . S
C393 C399 1.390 . S
C394 H385 0.930 . S
C394 C392 1.384 . S
C394 C395 1.372 . S
C395 C394 1.372 . S
C395 C396 1.400 . S
C395 C400 1.490 . S
C396 H386 0.930 . S
C396 C395 1.400 . S
C396 C399 1.386 . S
H397 C413 0.930 . S
H398 C414 0.931 . S
C399 H387 0.929 . S
C399 C393 1.390 . S
C399 C396 1.386 . S
C400 C395 1.490 . S
C400 C402 1.395 . S
C400 C403 1.403 . S
H401 C407 0.930 . S
C402 H388 0.930 . S
C402 C400 1.395 . S
C402 C405 1.403 . S
C403 C400 1.403 . S
C403 C404 1.524 . S
C403 C407 1.400 . S
C404 H389 0.960 . S
C404 H390 0.960 . S
C404 H391 0.960 . S
C404 C403 1.524 . S
C405 C402 1.403 . S
C405 C406 1.392 . S
C405 C409 1.495 . S
C406 C405 1.392 . S
C406 C407 1.385 . S
C406 C408 1.478 . S
C407 H401 0.930 . S
C407 C403 1.400 . S
C407 C406 1.385 . S
C408 C406 1.478 . S
C408 C410 1.381 . S
C408 C414 1.383 . S
C409 C405 1.495 . S
C409 H415 0.959 . S
C409 H416 0.961 . S
C409 H417 0.960 . S
C410 C408 1.381 . S
C410 C411 1.394 . S
C410 H418 0.930 . S
C411 C410 1.394 . S
C411 C412 1.383 . S
C411 H419 0.929 . S
C412 C411 1.383 . S
C412 C413 1.377 . S
C413 H397 0.930 . S
C413 C412 1.377 . S
C413 C414 1.379 . S
C414 H398 0.931 . S
C414 C408 1.383 . S
C414 C413 1.379 . S
H415 C409 0.959 . S
H416 C409 0.961 . S
H417 C409 0.960 . S
H418 C410 0.930 . S
H419 C411 0.929 . S
C105 C2 1.835 . S
C124 C93 1.822 . S
C141 C36 1.816 . S
C160 C6 1.817 . S
C177 C61 1.818 . S
C196 C70 1.825 . S
C213 C66 1.833 . S
C232 C29 1.835 . S
C249 C38 1.834 . S
C268 C4 1.818 . S
C285 C68 1.813 . S
C304 C34 1.807 . S
C321 N18 0.465 . S
C340 N13 0.410 1_655 S
C357 N45 0.472 1_565 S
C376 N50 0.394 . S
C393 N77 0.504 . S
C412 N82 0.555 . S
