# Generated by pormake.
# Topology atn, (4)-cn, num edge types: 1
# Building blocks:
#     Node 0, Type 0, BuildingBlock: CEKHIL_clean_sbu_0, # of connection points: 4
#     Node 1, Type 0, BuildingBlock: CEKHIL_clean_sbu_0, # of connection points: 4
#     Node 2, Type 0, BuildingBlock: CEKHIL_clean_sbu_0, # of connection points: 4
#     Node 3, Type 0, BuildingBlock: CEKHIL_clean_sbu_0, # of connection points: 4
#     Node 4, Type 0, BuildingBlock: CEKHIL_clean_sbu_0, # of connection points: 4
#     Node 5, Type 0, BuildingBlock: CEKHIL_clean_sbu_0, # of connection points: 4
#     Node 6, Type 0, BuildingBlock: CEKHIL_clean_sbu_0, # of connection points: 4
#     Node 7, Type 0, BuildingBlock: CEKHIL_clean_sbu_0, # of connection points: 4
#     Node 8, Type 0, BuildingBlock: CEKHIL_clean_sbu_0, # of connection points: 4
#     Node 9, Type 0, BuildingBlock: CEKHIL_clean_sbu_0, # of connection points: 4
#     Node 10, Type 0, BuildingBlock: CEKHIL_clean_sbu_0, # of connection points: 4
#     Node 11, Type 0, BuildingBlock: CEKHIL_clean_sbu_0, # of connection points: 4
#     Node 12, Type 0, BuildingBlock: CEKHIL_clean_sbu_0, # of connection points: 4
#     Node 13, Type 0, BuildingBlock: CEKHIL_clean_sbu_0, # of connection points: 4
#     Node 14, Type 0, BuildingBlock: CEKHIL_clean_sbu_0, # of connection points: 4
#     Node 15, Type 0, BuildingBlock: CEKHIL_clean_sbu_0, # of connection points: 4
#     Edge 16, Type (0, 0), BuildingBlock: OJICUG_clean_linker_0, # of connection points: 2
#     Edge 17, Type (0, 0), BuildingBlock: OJICUG_clean_linker_0, # of connection points: 2
#     Edge 18, Type (0, 0), BuildingBlock: OJICUG_clean_linker_0, # of connection points: 2
#     Edge 19, Type (0, 0), BuildingBlock: OJICUG_clean_linker_0, # of connection points: 2
#     Edge 20, Type (0, 0), BuildingBlock: OJICUG_clean_linker_0, # of connection points: 2
#     Edge 21, Type (0, 0), BuildingBlock: OJICUG_clean_linker_0, # of connection points: 2
#     Edge 22, Type (0, 0), BuildingBlock: OJICUG_clean_linker_0, # of connection points: 2
#     Edge 23, Type (0, 0), BuildingBlock: OJICUG_clean_linker_0, # of connection points: 2
#     Edge 24, Type (0, 0), BuildingBlock: OJICUG_clean_linker_0, # of connection points: 2
#     Edge 25, Type (0, 0), BuildingBlock: OJICUG_clean_linker_0, # of connection points: 2
#     Edge 26, Type (0, 0), BuildingBlock: OJICUG_clean_linker_0, # of connection points: 2
#     Edge 27, Type (0, 0), BuildingBlock: OJICUG_clean_linker_0, # of connection points: 2
#     Edge 28, Type (0, 0), BuildingBlock: OJICUG_clean_linker_0, # of connection points: 2
#     Edge 29, Type (0, 0), BuildingBlock: OJICUG_clean_linker_0, # of connection points: 2
#     Edge 30, Type (0, 0), BuildingBlock: OJICUG_clean_linker_0, # of connection points: 2
#     Edge 31, Type (0, 0), BuildingBlock: OJICUG_clean_linker_0, # of connection points: 2
#     Edge 32, Type (0, 0), BuildingBlock: OJICUG_clean_linker_0, # of connection points: 2
#     Edge 33, Type (0, 0), BuildingBlock: OJICUG_clean_linker_0, # of connection points: 2
#     Edge 34, Type (0, 0), BuildingBlock: OJICUG_clean_linker_0, # of connection points: 2
#     Edge 35, Type (0, 0), BuildingBlock: OJICUG_clean_linker_0, # of connection points: 2
#     Edge 36, Type (0, 0), BuildingBlock: OJICUG_clean_linker_0, # of connection points: 2
#     Edge 37, Type (0, 0), BuildingBlock: OJICUG_clean_linker_0, # of connection points: 2
#     Edge 38, Type (0, 0), BuildingBlock: OJICUG_clean_linker_0, # of connection points: 2
#     Edge 39, Type (0, 0), BuildingBlock: OJICUG_clean_linker_0, # of connection points: 2
#     Edge 40, Type (0, 0), BuildingBlock: OJICUG_clean_linker_0, # of connection points: 2
#     Edge 41, Type (0, 0), BuildingBlock: OJICUG_clean_linker_0, # of connection points: 2
#     Edge 42, Type (0, 0), BuildingBlock: OJICUG_clean_linker_0, # of connection points: 2
#     Edge 43, Type (0, 0), BuildingBlock: OJICUG_clean_linker_0, # of connection points: 2
#     Edge 44, Type (0, 0), BuildingBlock: OJICUG_clean_linker_0, # of connection points: 2
#     Edge 45, Type (0, 0), BuildingBlock: OJICUG_clean_linker_0, # of connection points: 2
#     Edge 46, Type (0, 0), BuildingBlock: OJICUG_clean_linker_0, # of connection points: 2
#     Edge 47, Type (0, 0), BuildingBlock: OJICUG_clean_linker_0, # of connection points: 2
# Relax obj value: 0.034
# Max RMSD: 0.063
# Mean RMSD: 0.063
data_MOF--net-atn--node1-CEKHIL_clean_sbu_0--edge1-OJICUG_clean_linker_0
_symmetry_space_group_name_H-M    P1
_symmetry_Int_Tables_number       1
_symmetry_cell_setting            triclinic
loop_
_symmetry_equiv_pos_as_xyz
'x, y, z'
_cell_length_a     43.34737
_cell_length_b     43.337728
_cell_length_c     19.638627
_cell_angle_alpha  90.031888
_cell_angle_beta   89.990611
_cell_angle_gamma 89.98146
loop_
_atom_site_label
_atom_site_type_symbol
_atom_site_fract_x
_atom_site_fract_y
_atom_site_fract_z
_atom_type_partial_charge
Co0 Co 0.1991 0.38788 0.98627 0.0
O1 O 0.17617 0.42585 0.98284 0.0
O2 O 0.22478 0.42222 0.01591 0.0
C3 C 0.18482 0.37142 0.88199 0.0
O4 O 0.2304 0.35252 0.99358 0.0
Co5 Co 0.16431 0.32499 0.97847 0.0
O6 O 0.20632 0.30942 0.95775 0.0
C7 C 0.16426 0.36044 0.1071 0.0
C8 C 0.20104 0.4397 0.00295 0.0
C9 C 0.23069 0.32401 0.97465 0.0
O10 O 0.18393 0.37975 0.08214 0.0
O11 O 0.15201 0.33871 0.07213 0.0
O12 O 0.20744 0.39083 0.88864 0.0
O13 O 0.17016 0.36486 0.93722 0.0
Co14 Co 0.62504 0.20081 0.98503 0.0
O15 O 0.58747 0.17727 0.97976 0.0
O16 O 0.59018 0.22575 0.01436 0.0
C17 C 0.64228 0.18718 0.8809 0.0
O18 O 0.65949 0.2328 0.99499 0.0
Co19 Co 0.68909 0.16838 0.9777 0.0
O20 O 0.70411 0.21098 0.96115 0.0
C21 C 0.6529 0.16641 0.10559 0.0
C22 C 0.57315 0.20185 0.00023 0.0
C23 C 0.68822 0.23443 0.97855 0.0
O24 O 0.63291 0.18536 0.08062 0.0
O25 O 0.67531 0.15523 0.07088 0.0
O26 O 0.62253 0.20953 0.88753 0.0
O27 O 0.64906 0.17256 0.93606 0.0
Co28 Co 0.81502 0.62597 0.98488 0.0
O29 O 0.83856 0.58837 0.97929 0.0
O30 O 0.79016 0.59113 0.01441 0.0
C31 C 0.82829 0.64331 0.88067 0.0
O32 O 0.78306 0.66047 0.99509 0.0
Co33 Co 0.84753 0.68996 0.97762 0.0
O34 O 0.80495 0.70481 0.95996 0.0
C35 C 0.84966 0.65377 0.10537 0.0
C36 C 0.81402 0.57407 -1e-05 0.0
C37 C 0.78147 0.6891 0.97778 0.0
O38 O 0.83069 0.6338 0.08037 0.0
O39 O 0.86078 0.67622 0.07074 0.0
O40 O 0.80604 0.62348 0.8875 0.0
O41 O 0.84312 0.65 0.93565 0.0
Co42 Co 0.38827 0.81368 0.98647 0.0
O43 O 0.42603 0.83685 0.98312 0.0
O44 O 0.42282 0.78812 0.01554 0.0
C45 C 0.37177 0.82815 0.88244 0.0
O46 O 0.35305 0.7822 0.99353 0.0
Co47 Co 0.32528 0.84833 0.97929 0.0
O48 O 0.30986 0.80631 0.9583 0.0
C49 C 0.36078 0.84813 0.10779 0.0
C50 C 0.4401 0.81202 0.0027 0.0
C51 C 0.32452 0.78191 0.97481 0.0
O52 O 0.38012 0.82854 0.08257 0.0
O53 O 0.33904 0.86046 0.07301 0.0
O54 O 0.39124 0.80557 0.88877 0.0
O55 O 0.36513 0.84265 0.93787 0.0
Co56 Co 0.20094 0.62549 0.01975 0.0
O57 O 0.17763 0.58787 0.02719 0.0
O58 O 0.22586 0.59041 0.9911 0.0
C59 C 0.18791 0.64364 0.12368 0.0
O60 O 0.23257 0.66018 0.00751 0.0
Co61 Co 0.16652 0.68873 0.02448 0.0
O62 O 0.20887 0.70588 0.02492 0.0
C63 C 0.16499 0.65137 0.89873 0.0
C64 C 0.20207 0.57343 0.00642 0.0
C65 C 0.23292 0.68982 0.01313 0.0
O66 O 0.18492 0.63241 0.92399 0.0
O67 O 0.15282 0.67335 0.9331 0.0
O68 O 0.2103 0.62395 0.11714 0.0
O69 O 0.17277 0.64959 0.06876 0.0
Co70 Co 0.38753 0.20069 0.01725 0.0
O71 O 0.42523 0.17745 0.02392 0.0
O72 O 0.42239 0.22576 0.98837 0.0
C73 C 0.36978 0.18739 0.12116 0.0
O74 O 0.35269 0.23224 0.00578 0.0
Co75 Co 0.32441 0.16612 0.02254 0.0
O76 O 0.30713 0.20843 0.02395 0.0
C77 C 0.36147 0.16482 0.8964 0.0
C78 C 0.43949 0.20199 0.00319 0.0
C79 C 0.32308 0.23253 0.01205 0.0
O80 O 0.3804 0.1848 0.92154 0.0
O81 O 0.33961 0.15255 0.93091 0.0
O82 O 0.38935 0.20989 0.11465 0.0
O83 O 0.3637 0.17235 0.06617 0.0
Co84 Co 0.81391 0.38847 0.01751 0.0
O85 O 0.83781 0.42583 0.02328 0.0
O86 O 0.78938 0.42358 0.98822 0.0
C87 C 0.82711 0.37088 0.12161 0.0
O88 O 0.78159 0.35437 0.00695 0.0
Co89 Co 0.84571 0.32408 0.0244 0.0
O90 O 0.8029 0.30911 0.03814 0.0
C91 C 0.84827 0.36044 0.89689 0.0
C92 C 0.8134 0.44039 0.00265 0.0
C93 C 0.77966 0.32546 0.02162 0.0
O94 O 0.82946 0.38058 0.92192 0.0
O95 O 0.85921 0.3379 0.93151 0.0
O96 O 0.80501 0.39091 0.11496 0.0
O97 O 0.84179 0.36406 0.06652 0.0
Co98 Co 0.62574 0.81311 0.01687 0.0
O99 O 0.58816 0.83658 0.02291 0.0
O100 O 0.5908 0.78813 0.98816 0.0
C101 C 0.64326 0.82673 0.12074 0.0
O102 O 0.66023 0.78118 0.00626 0.0
Co103 Co 0.68966 0.84591 0.02318 0.0
O104 O 0.70549 0.80329 0.0347 0.0
C105 C 0.65304 0.84779 0.896 0.0
C106 C 0.57378 0.81199 0.00279 0.0
C107 C 0.68933 0.77977 0.01928 0.0
O108 O 0.63328 0.82862 0.92112 0.0
O109 O 0.67536 0.8592 0.93054 0.0
O110 O 0.62358 0.80433 0.11435 0.0
O111 O 0.64982 0.8414 0.06552 0.0
Co112 Co 0.69963 0.88843 0.48436 0.0
O113 O 0.67624 0.9261 0.48087 0.0
O114 O 0.7249 0.92311 0.51379 0.0
C115 C 0.68544 0.87184 0.38014 0.0
O116 O 0.73137 0.85347 0.49175 0.0
Co117 Co 0.66575 0.82507 0.47653 0.0
O118 O 0.70795 0.81005 0.45567 0.0
C119 C 0.6653 0.86051 0.60527 0.0
C120 C 0.70096 0.94028 0.50074 0.0
C121 C 0.73208 0.82498 0.47276 0.0
O122 O 0.68463 0.88014 0.58029 0.0
O123 O 0.65336 0.83859 0.57029 0.0
O124 O 0.70787 0.89147 0.3867 0.0
O125 O 0.67094 0.86506 0.43544 0.0
Co126 Co 0.12599 0.69946 0.48768 0.0
O127 O 0.0883 0.67612 0.48168 0.0
O128 O 0.09122 0.72447 0.5171 0.0
C129 C 0.14345 0.68619 0.38347 0.0
O130 O 0.16054 0.73129 0.49837 0.0
Co131 Co 0.18994 0.66685 0.48054 0.0
O132 O 0.20505 0.70943 0.46409 0.0
C133 C 0.15353 0.66456 0.60808 0.0
C134 C 0.07408 0.70073 0.50238 0.0
C135 C 0.18925 0.73289 0.48175 0.0
O136 O 0.13362 0.68363 0.58315 0.0
O137 O 0.176 0.65346 0.57344 0.0
O138 O 0.12372 0.70854 0.39031 0.0
O139 O 0.15002 0.67131 0.43842 0.0
Co140 Co 0.31415 0.12553 0.48494 0.0
O141 O 0.33738 0.08777 0.48104 0.0
O142 O 0.28881 0.09097 0.51461 0.0
C143 C 0.32812 0.14213 0.38065 0.0
O144 O 0.2826 0.16065 0.4928 0.0
Co145 Co 0.34844 0.18866 0.47723 0.0
O146 O 0.30629 0.20394 0.45694 0.0
C147 C 0.34897 0.15311 0.60562 0.0
C148 C 0.31267 0.07371 0.5013 0.0
C149 C 0.28206 0.18917 0.47403 0.0
O150 O 0.32942 0.13368 0.58069 0.0
O151 O 0.361 0.17498 0.57071 0.0
O152 O 0.30564 0.12257 0.38739 0.0
O153 O 0.34282 0.14879 0.43579 0.0
Co154 Co 0.88793 0.31338 0.48504 0.0
O155 O 0.92561 0.33674 0.47911 0.0
O156 O 0.92275 0.28831 0.51388 0.0
C157 C 0.87026 0.32692 0.38119 0.0
O158 O 0.85339 0.28156 0.49568 0.0
Co159 Co 0.8242 0.34664 0.47941 0.0
O160 O 0.80789 0.30408 0.47074 0.0
C161 C 0.86099 0.34829 0.60621 0.0
C162 C 0.93986 0.31213 0.49957 0.0
C163 C 0.82411 0.28041 0.48477 0.0
O164 O 0.88049 0.32891 0.58089 0.0
O165 O 0.83877 0.35999 0.57181 0.0
O166 O 0.89 0.30454 0.38754 0.0
O167 O 0.86387 0.34171 0.43639 0.0
Co168 Co 0.69932 0.12594 0.51723 0.0
O169 O 0.67597 0.08827 0.52221 0.0
O170 O 0.7245 0.09115 0.48822 0.0
C171 C 0.68543 0.14309 0.62128 0.0
O172 O 0.73108 0.16069 0.50794 0.0
Co173 Co 0.66613 0.18967 0.5243 0.0
O174 O 0.70852 0.20473 0.54313 0.0
C175 C 0.665 0.1536 0.39622 0.0
C176 C 0.70066 0.07402 0.5022 0.0
C177 C 0.73227 0.18931 0.5256 0.0
O178 O 0.68405 0.13375 0.42142 0.0
O179 O 0.65347 0.17586 0.43084 0.0
O180 O 0.70787 0.12345 0.6148 0.0
O181 O 0.67082 0.14973 0.56602 0.0
Co182 Co 0.88839 0.70118 0.51716 0.0
O183 O 0.92586 0.67759 0.52437 0.0
O184 O 0.92357 0.7259 0.48862 0.0
C185 C 0.87025 0.68815 0.62097 0.0
O186 O 0.85391 0.73308 0.50515 0.0
Co187 Co 0.8249 0.66735 0.52176 0.0
O188 O 0.80809 0.70985 0.5237 0.0
C189 C 0.86226 0.66555 0.39603 0.0
C190 C 0.94041 0.70197 0.50372 0.0
C191 C 0.82432 0.73374 0.51163 0.0
O192 O 0.88136 0.68531 0.42138 0.0
O193 O 0.84016 0.65358 0.43029 0.0
O194 O 0.89005 0.71044 0.61455 0.0
O195 O 0.86414 0.67311 0.56596 0.0
Co196 Co 0.31364 0.88811 0.51909 0.0
O197 O 0.33718 0.92567 0.52452 0.0
O198 O 0.28873 0.92299 0.48983 0.0
C199 C 0.32722 0.87086 0.62313 0.0
O200 O 0.28168 0.85365 0.50898 0.0
Co201 Co 0.34618 0.82405 0.52635 0.0
O202 O 0.30354 0.80864 0.54014 0.0
C203 C 0.34816 0.86025 0.39856 0.0
C204 C 0.31261 0.94001 0.50412 0.0
C205 C 0.2801 0.82472 0.5237 0.0
O206 O 0.32916 0.88022 0.4235 0.0
O207 O 0.3594 0.8379 0.43332 0.0
O208 O 0.30487 0.89061 0.61655 0.0
O209 O 0.34186 0.86409 0.56797 0.0
Co210 Co 0.12546 0.31267 0.51847 0.0
O211 O 0.08784 0.33604 0.52501 0.0
O212 O 0.09055 0.28773 0.48931 0.0
C213 C 0.14316 0.32593 0.62252 0.0
O214 O 0.16016 0.28096 0.50699 0.0
Co215 Co 0.18879 0.34684 0.52423 0.0
O216 O 0.20583 0.30443 0.52583 0.0
C217 C 0.15187 0.3484 0.39788 0.0
C218 C 0.07351 0.31157 0.50407 0.0
C219 C 0.18975 0.28045 0.51358 0.0
O220 O 0.13277 0.32855 0.42285 0.0
O221 O 0.17379 0.36049 0.43254 0.0
O222 O 0.12351 0.3035 0.6159 0.0
O223 O 0.14938 0.3409 0.56756 0.0
C224 C 0.23043 0.52255 0.00321 0.0
C225 C 0.20258 0.53922 0.00395 0.0
H226 H 0.25194 0.47778 0.00404 0.0
C227 C 0.17462 0.52286 0.00612 0.0
H228 H 0.25234 0.53453 0.00216 0.0
C229 C 0.17439 0.49066 0.00688 0.0
C230 C 0.20212 0.47387 0.00653 0.0
H231 H 0.15275 0.53496 0.00692 0.0
H232 H 0.15235 0.4789 0.00778 0.0
C233 C 0.23021 0.49011 0.00504 0.0
C234 C 0.4902 0.17477 0.00142 0.0
C235 C 0.47366 0.20265 0.0004 0.0
H236 H 0.53433 0.15275 0.0023 0.0
C237 C 0.49014 0.23061 0.00071 0.0
H238 H 0.47823 0.15283 0.00139 0.0
C239 C 0.52254 0.23057 0.00262 0.0
C240 C 0.53898 0.20256 0.0031 0.0
H241 H 0.47801 0.25246 0.00058 0.0
H242 H 0.53471 0.25239 0.00262 0.0
C243 C 0.5224 0.17472 0.0022 0.0
C244 C 0.84091 0.49098 0.00084 0.0
C245 C 0.81297 0.47457 -8e-05 0.0
H246 H 0.86305 0.53507 0.00166 0.0
C247 C 0.78507 0.49117 0.00041 0.0
H248 H 0.86279 0.4789 0.00069 0.0
C249 C 0.78522 0.52357 0.0024 0.0
C250 C 0.81326 0.53989 0.00275 0.0
H251 H 0.76318 0.47914 0.00037 0.0
H252 H 0.76344 0.53581 0.00254 0.0
C253 C 0.84105 0.52321 0.00166 0.0
C254 C 0.52302 0.83908 0.0036 0.0
C255 C 0.53958 0.81125 0.001 0.0
H256 H 0.4789 0.86101 0.00656 0.0
C257 C 0.52314 0.78325 0.00086 0.0
H258 H 0.53494 0.86104 0.00403 0.0
C259 C 0.49073 0.78321 0.00362 0.0
C260 C 0.47427 0.81118 0.00554 0.0
H261 H 0.5353 0.76142 -0.00043 0.0
H262 H 0.47858 0.76138 0.00301 0.0
C263 C 0.49083 0.83905 0.00536 0.0
C264 C 0.72951 0.02341 0.49999 0.0
C265 C 0.70148 0.03982 0.49986 0.0
H266 H 0.75146 0.97888 0.50208 0.0
C267 C 0.67369 0.02319 0.50177 0.0
H268 H 0.75131 0.03561 0.49924 0.0
C269 C 0.67378 0.99099 0.50317 0.0
C270 C 0.70167 0.97447 0.50371 0.0
H271 H 0.6517 0.03508 0.50197 0.0
H272 H 0.65185 0.97901 0.50389 0.0
C273 C 0.7296 0.99099 0.50242 0.0
C274 C 0.9913 0.73015 0.5019 0.0
C275 C 0.9746 0.70233 0.50133 0.0
H276 H 0.03604 0.75155 0.5044 0.0
C277 C 0.9909 0.67431 0.50248 0.0
H278 H 0.97936 0.7521 0.50166 0.0
C279 C 0.0231 0.67399 0.50362 0.0
C280 C 0.0399 0.70169 0.50481 0.0
H281 H 0.97874 0.65247 0.50225 0.0
H282 H 0.03486 0.65193 0.5038 0.0
C283 C 0.0237 0.72983 0.50421 0.0
C284 C 0.28392 0.02309 0.50349 0.0
C285 C 0.31189 0.03953 0.50461 0.0
H286 H 0.2621 0.97853 0.50077 0.0
C287 C 0.33974 0.02295 0.50433 0.0
H288 H 0.26209 0.03525 0.50299 0.0
C289 C 0.33976 0.99075 0.50334 0.0
C290 C 0.31192 0.9742 0.50157 0.0
H291 H 0.3617 0.03489 0.50494 0.0
H292 H 0.36171 0.9788 0.50372 0.0
C293 C 0.28394 0.99067 0.50144 0.0
C294 C 0.02278 0.28313 0.50079 0.0
C295 C 0.03934 0.31103 0.50085 0.0
H296 H 0.97814 0.26148 0.50202 0.0
C297 C 0.0229 0.33897 0.50174 0.0
H298 H 0.03484 0.26123 0.50074 0.0
C299 C 0.99069 0.33911 0.50204 0.0
C300 C 0.97402 0.31132 0.5026 0.0
H301 H 0.03493 0.36087 0.50198 0.0
H302 H 0.97882 0.36112 0.5021 0.0
C303 C 0.99037 0.28327 0.50225 0.0
C304 C 0.26402 0.2825 0.92818 0.0
C305 C 0.25958 0.30586 0.97677 0.0
H306 H 0.28839 0.24132 0.90129 0.0
C307 C 0.28005 0.30789 0.03224 0.0
H308 H 0.24871 0.28049 0.88478 0.0
C309 C 0.30289 0.28522 0.04176 0.0
C310 C 0.30556 0.26064 0.99547 0.0
H311 H 0.27688 0.32548 0.07082 0.0
H312 H 0.31691 0.28571 0.08741 0.0
C313 C 0.28675 0.26015 0.93747 0.0
C314 C 0.743 0.29969 0.94344 0.0
C315 C 0.75056 0.30888 0.00989 0.0
H316 H 0.71686 0.26838 0.88134 0.0
C317 C 0.73395 0.2967 0.06499 0.0
H318 H 0.75602 0.30836 0.90042 0.0
C319 C 0.71102 0.27446 0.05394 0.0
C320 C 0.70514 0.26356 0.98786 0.0
H321 H 0.73993 0.30304 0.11671 0.0
H322 H 0.69975 0.26398 0.0974 0.0
C323 C 0.7207 0.27687 0.93255 0.0
C324 C 0.74075 0.72328 0.93045 0.0
C325 C 0.75222 0.70606 0.98538 0.0
H326 H 0.71047 0.75963 0.89844 0.0
C327 C 0.73913 0.71002 0.05024 0.0
H328 H 0.75083 0.72084 0.88024 0.0
C329 C 0.71655 0.73269 0.06093 0.0
C330 C 0.70627 0.75097 0.00649 0.0
H331 H 0.74814 0.69744 0.09356 0.0
H332 H 0.7085 0.73721 0.11221 0.0
C333 C 0.7177 0.74535 0.94082 0.0
C334 C 0.28588 0.7096 0.04173 0.0
C335 C 0.26104 0.70722 0.99608 0.0
H336 H 0.32638 0.73535 0.07015 0.0
C337 C 0.26037 0.72618 0.93834 0.0
H338 H 0.28653 0.69545 0.08715 0.0
C339 C 0.28278 0.7488 0.92876 0.0
C340 C 0.30638 0.75301 0.97685 0.0
H341 H 0.24135 0.72475 0.90263 0.0
H342 H 0.28062 0.76424 0.88564 0.0
C343 C 0.3086 0.73236 0.03195 0.0
C344 C 0.80354 0.786 0.54254 0.0
C345 C 0.80714 0.76204 0.49498 0.0
H346 H 0.77679 0.8257 0.57203 0.0
C347 C 0.78928 0.76218 0.4355 0.0
H348 H 0.81676 0.78595 0.58934 0.0
C349 C 0.76653 0.78449 0.42585 0.0
C350 C 0.76117 0.8072 0.47549 0.0
H351 H 0.7916 0.74379 0.39842 0.0
H352 H 0.75186 0.7829 0.38131 0.0
C353 C 0.78074 0.80866 0.53259 0.0
C354 C 0.23454 0.79579 0.56731 0.0
C355 C 0.2512 0.80781 0.51209 0.0
H356 H 0.20046 0.76303 0.60014 0.0
C357 C 0.2439 0.79818 0.4458 0.0
H358 H 0.24034 0.80246 0.61892 0.0
C359 C 0.22179 0.77515 0.43524 0.0
C360 C 0.20616 0.76204 0.49069 0.0
H361 H 0.25697 0.80672 0.40271 0.0
H362 H 0.21812 0.76639 0.38419 0.0
C363 C 0.2118 0.77333 0.55656 0.0
C364 C 0.23301 0.20521 0.53297 0.0
C365 C 0.25307 0.20714 0.47675 0.0
H366 H 0.19654 0.22749 0.58926 0.0
C367 C 0.24821 0.23033 0.42803 0.0
H368 H 0.23653 0.18776 0.57166 0.0
C369 C 0.22549 0.25265 0.43787 0.0
C370 C 0.20712 0.25229 0.49658 0.0
H371 H 0.26322 0.23227 0.38411 0.0
H372 H 0.22355 0.27138 0.40156 0.0
C373 C 0.2102 0.22786 0.54308 0.0
C374 C 0.79364 0.248 0.56312 0.0
C375 C 0.80714 0.25176 0.49878 0.0
H376 H 0.75921 0.22468 0.62214 0.0
C377 C 0.7991 0.23152 0.44585 0.0
H378 H 0.79922 0.26372 0.60426 0.0
C379 C 0.77657 0.20876 0.45643 0.0
C380 C 0.76141 0.20661 0.51953 0.0
H381 H 0.80879 0.23455 0.39544 0.0
H382 H 0.76923 0.19464 0.41387 0.0
C383 C 0.77079 0.22577 0.57329 0.0
C384 C 0.13221 0.33806 0.27979 0.0
C385 C 0.1509 0.3554 0.32391 0.0
H386 H 0.12152 0.32624 0.17688 0.0
C387 C 0.17124 0.37732 0.29574 0.0
H388 H 0.11617 0.32113 0.29954 0.0
C389 C 0.17439 0.38025 0.2252 0.0
C390 C 0.15731 0.36131 0.18111 0.0
H391 H 0.1858 0.39136 0.32812 0.0
H392 H 0.19128 0.39635 0.20547 0.0
C393 C 0.1354 0.34096 0.20925 0.0
C394 C 0.63599 0.17296 0.29422 0.0
C395 C 0.65809 0.15278 0.3222 0.0
H396 H 0.6167 0.19288 0.20411 0.0
C397 C 0.67557 0.13425 0.27795 0.0
H398 H 0.62182 0.18735 0.32675 0.0
C399 C 0.67262 0.13749 0.20742 0.0
C400 C 0.65204 0.15924 0.17947 0.0
H401 H 0.69265 0.11833 0.29758 0.0
H402 H 0.68745 0.12379 0.17491 0.0
C403 C 0.63295 0.17611 0.22371 0.0
C404 C 0.84359 0.63624 0.29379 0.0
C405 C 0.86344 0.65858 0.32204 0.0
H406 H 0.82386 0.61692 0.20348 0.0
C407 C 0.88168 0.67641 0.27796 0.0
H408 H 0.8294 0.62182 0.32614 0.0
C409 C 0.87844 0.67358 0.2074 0.0
C410 C 0.85695 0.65279 0.17922 0.0
H411 H 0.89734 0.6937 0.29779 0.0
H412 H 0.89189 0.6887 0.17505 0.0
C413 C 0.84042 0.63334 0.22324 0.0
C414 C 0.33861 0.88028 0.28052 0.0
C415 C 0.35529 0.86101 0.32465 0.0
H416 H 0.32746 0.89157 0.17758 0.0
C417 C 0.37676 0.84015 0.29657 0.0
H418 H 0.32205 0.89674 0.30021 0.0
C419 C 0.3799 0.83714 0.22603 0.0
C420 C 0.36158 0.85486 0.18189 0.0
H421 H 0.3903 0.82515 0.32899 0.0
H422 H 0.39562 0.81988 0.20629 0.0
C423 C 0.34169 0.87721 0.21 0.0
C424 C 0.13292 0.67348 0.726 0.0
C425 C 0.15246 0.6571 0.68187 0.0
H426 H 0.12122 0.68425 0.82896 0.0
C427 C 0.17326 0.63557 0.70991 0.0
H428 H 0.11648 0.69007 0.70634 0.0
C429 C 0.17601 0.63217 0.78047 0.0
C430 C 0.15808 0.65028 0.82468 0.0
H431 H 0.18845 0.62222 0.67749 0.0
H432 H 0.19331 0.61652 0.80019 0.0
C433 C 0.13572 0.67015 0.79653 0.0
C434 C 0.37768 0.17282 0.70781 0.0
C435 C 0.35604 0.1522 0.67957 0.0
H436 H 0.3967 0.19277 0.79821 0.0
C437 C 0.3393 0.1329 0.72354 0.0
H438 H 0.39129 0.18781 0.67552 0.0
C439 C 0.34249 0.13575 0.79409 0.0
C440 C 0.36252 0.15792 0.82238 0.0
H441 H 0.32264 0.11659 0.70372 0.0
H442 H 0.32818 0.12143 0.82639 0.0
C443 C 0.38091 0.17562 0.77836 0.0
C444 C 0.83904 0.38071 0.77885 0.0
C445 C 0.85554 0.36129 0.82301 0.0
H446 H 0.82806 0.39211 0.67583 0.0
C447 C 0.87695 0.34036 0.79496 0.0
H448 H 0.82253 0.39723 0.79852 0.0
C449 C 0.88018 0.33742 0.72442 0.0
C450 C 0.862 0.35525 0.68022 0.0
H451 H 0.89035 0.32525 0.8274 0.0
H452 H 0.89579 0.32005 0.70472 0.0
C453 C 0.84219 0.37768 0.7083 0.0
C454 C 0.63342 0.83765 0.7778 0.0
C455 C 0.65213 0.85489 0.82207 0.0
H456 H 0.62266 0.82608 0.67478 0.0
C457 C 0.67245 0.87688 0.79411 0.0
H458 H 0.61741 0.82065 0.7974 0.0
C459 C 0.67551 0.88003 0.72359 0.0
C460 C 0.6584 0.86119 0.67932 0.0
H461 H 0.68699 0.89086 0.82665 0.0
H462 H 0.69236 0.8962 0.70398 0.0
C463 C 0.63655 0.84073 0.70729 0.0
C464 C 0.86902 0.69148 0.7479 0.0
C465 C 0.85724 0.67898 0.68732 0.0
H466 H 0.86911 0.68987 0.85677 0.0
C467 C 0.83426 0.65617 0.69084 0.0
H468 H 0.88673 0.70911 0.74671 0.0
C469 C 0.82401 0.64529 0.75385 0.0
C470 C 0.83677 0.65683 0.81439 0.0
H471 H 0.82465 0.64622 0.6449 0.0
H472 H 0.8068 0.62718 0.75504 0.0
C473 C 0.85898 0.6804 0.81088 0.0
C474 C 0.3589 0.83462 0.69283 0.0
C475 C 0.33643 0.85796 0.6895 0.0
H476 H 0.3875 0.80665 0.75673 0.0
C477 C 0.32425 0.87 0.75015 0.0
H478 H 0.3686 0.8248 0.64684 0.0
C479 C 0.33526 0.85976 0.81305 0.0
C480 C 0.35843 0.83712 0.81632 0.0
H481 H 0.30689 0.88797 0.74907 0.0
H482 H 0.32602 0.87002 0.85904 0.0
C483 C 0.3697 0.82419 0.75571 0.0
C484 C 0.14384 0.32317 0.74957 0.0
C485 C 0.15593 0.3353 0.68894 0.0
H486 H 0.14344 0.32527 0.85842 0.0
C487 C 0.17904 0.35798 0.69237 0.0
H488 H 0.12602 0.30566 0.74843 0.0
C489 C 0.18918 0.36906 0.75529 0.0
C490 C 0.17616 0.35786 0.81585 0.0
H491 H 0.18888 0.36766 0.6464 0.0
H492 H 0.20655 0.38702 0.75638 0.0
C493 C 0.15376 0.33447 0.81249 0.0
C494 C 0.67869 0.15564 0.81108 0.0
C495 C 0.65534 0.17809 0.81451 0.0
H496 H 0.7068 0.12717 0.74703 0.0
C497 C 0.64346 0.19043 0.75388 0.0
H498 H 0.6884 0.14582 0.85703 0.0
C499 C 0.65384 0.17958 0.69092 0.0
C500 C 0.67648 0.1564 0.68752 0.0
H501 H 0.62548 0.2078 0.75502 0.0
H502 H 0.64368 0.18893 0.64497 0.0
C503 C 0.68927 0.14499 0.74813 0.0
C504 C 0.83413 0.35888 0.31156 0.0
C505 C 0.85708 0.336 0.31494 0.0
H506 H 0.80637 0.38766 0.24749 0.0
C507 C 0.86849 0.3232 0.25431 0.0
H508 H 0.82481 0.36908 0.35753 0.0
C509 C 0.85808 0.334 0.19137 0.0
C510 C 0.83589 0.3576 0.18796 0.0
H511 H 0.88613 0.30551 0.25539 0.0
H512 H 0.86791 0.32428 0.14541 0.0
C513 C 0.82353 0.3695 0.2486 0.0
C514 C 0.67912 0.85891 0.19042 0.0
C515 C 0.65612 0.83611 0.18707 0.0
H516 H 0.70669 0.88791 0.25439 0.0
C517 C 0.64429 0.82376 0.24773 0.0
H518 H 0.68876 0.86876 0.14443 0.0
C519 C 0.65438 0.83491 0.31063 0.0
C520 C 0.67667 0.85841 0.31395 0.0
H521 H 0.62657 0.80615 0.24665 0.0
H522 H 0.64427 0.82552 0.3566 0.0
C523 C 0.68941 0.86986 0.25333 0.0
C524 C 0.18038 0.65526 0.3136 0.0
C525 C 0.15688 0.67756 0.31712 0.0
H526 H 0.20894 0.62731 0.24942 0.0
C527 C 0.14528 0.69023 0.25656 0.0
H528 H 0.18988 0.64519 0.3595 0.0
C529 C 0.15605 0.67982 0.19354 0.0
C530 C 0.17881 0.65677 0.19002 0.0
H531 H 0.12721 0.70749 0.25776 0.0
H532 H 0.14605 0.68936 0.1476 0.0
C533 C 0.19136 0.64506 0.25061 0.0
C534 C 0.35891 0.17921 0.31106 0.0
C535 C 0.3367 0.15564 0.31446 0.0
H536 H 0.38652 0.20808 0.24696 0.0
C537 C 0.32387 0.14419 0.25392 0.0
H538 H 0.36907 0.18861 0.35698 0.0
C539 C 0.33402 0.1552 0.19097 0.0
C540 C 0.35695 0.17806 0.18752 0.0
H541 H 0.30666 0.12608 0.25506 0.0
H542 H 0.32435 0.14533 0.14501 0.0
C543 C 0.36884 0.19043 0.24812 0.0
loop_
_geom_bond_atom_site_label_1
_geom_bond_atom_site_label_2
_geom_bond_distance
_geom_bond_site_symmetry_2
_ccdc_geom_bond_type
Co0 O1 2.216 . S
Co0 O2 2.091 1_556 S
Co0 O4 2.004 . S
Co0 O10 2.021 1_556 S
Co0 O12 2.137 . S
Co0 O13 2.244 . S
O1 Co0 2.216 . S
O1 C8 1.247 1_556 S
O2 Co0 2.091 1_554 S
O2 C8 1.261 . S
C3 O12 1.247 . S
C3 O13 1.272 . S
O4 Co0 2.004 . S
O4 C9 1.259 . S
Co5 O6 2.061 1_556 S
Co5 O11 2.050 1_556 S
Co5 O13 2.136 . S
O6 Co5 2.061 1_554 S
O6 C9 1.235 1_554 S
C7 O10 1.238 . S
C7 O11 1.241 . S
C8 O1 1.247 1_554 S
C8 O2 1.261 . S
C9 O4 1.259 . S
C9 O6 1.235 1_556 S
O10 Co0 2.021 1_554 S
O10 C7 1.238 . S
O11 Co5 2.050 1_554 S
O11 C7 1.241 . S
O12 Co0 2.137 . S
O12 C3 1.247 . S
O13 Co0 2.244 . S
O13 C3 1.272 . S
O13 Co5 2.136 . S
Co14 O15 2.216 . S
Co14 O16 2.091 1_556 S
Co14 O18 2.004 . S
Co14 O24 2.021 1_556 S
Co14 O26 2.137 . S
Co14 O27 2.244 . S
O15 Co14 2.216 . S
O15 C22 1.247 1_556 S
O16 Co14 2.091 1_554 S
O16 C22 1.261 . S
C17 O26 1.247 . S
C17 O27 1.272 . S
O18 Co14 2.004 . S
O18 C23 1.259 . S
Co19 O20 2.061 1_556 S
Co19 O25 2.050 1_556 S
Co19 O27 2.136 . S
O20 Co19 2.061 1_554 S
O20 C23 1.235 1_554 S
C21 O24 1.238 . S
C21 O25 1.241 . S
C22 O15 1.247 1_554 S
C22 O16 1.261 . S
C23 O18 1.259 . S
C23 O20 1.235 1_556 S
O24 Co14 2.021 1_554 S
O24 C21 1.238 . S
O25 Co19 2.050 1_554 S
O25 C21 1.241 . S
O26 Co14 2.137 . S
O26 C17 1.247 . S
O27 Co14 2.244 . S
O27 C17 1.272 . S
O27 Co19 2.136 . S
Co28 O29 2.216 . S
Co28 O30 2.091 1_556 S
Co28 O32 2.004 . S
Co28 O38 2.021 1_556 S
Co28 O40 2.137 . S
Co28 O41 2.244 . S
O29 Co28 2.216 . S
O29 C36 1.247 1_556 S
O30 Co28 2.091 1_554 S
O30 C36 1.261 . S
C31 O40 1.247 . S
C31 O41 1.272 . S
O32 Co28 2.004 . S
O32 C37 1.259 . S
Co33 O34 2.061 1_556 S
Co33 O39 2.050 1_556 S
Co33 O41 2.136 . S
O34 Co33 2.061 1_554 S
O34 C37 1.235 1_554 S
C35 O38 1.238 . S
C35 O39 1.241 . S
C36 O29 1.247 1_554 S
C36 O30 1.261 . S
C37 O32 1.259 . S
C37 O34 1.235 1_556 S
O38 Co28 2.021 1_554 S
O38 C35 1.238 . S
O39 Co33 2.050 1_554 S
O39 C35 1.241 . S
O40 Co28 2.137 . S
O40 C31 1.247 . S
O41 Co28 2.244 . S
O41 C31 1.272 . S
O41 Co33 2.136 . S
Co42 O43 2.216 . S
Co42 O44 2.091 1_556 S
Co42 O46 2.004 . S
Co42 O52 2.021 1_556 S
Co42 O54 2.137 . S
Co42 O55 2.244 . S
O43 Co42 2.216 . S
O43 C50 1.247 1_556 S
O44 Co42 2.091 1_554 S
O44 C50 1.261 . S
C45 O54 1.247 . S
C45 O55 1.272 . S
O46 Co42 2.004 . S
O46 C51 1.259 . S
Co47 O48 2.061 1_556 S
Co47 O53 2.050 1_556 S
Co47 O55 2.136 . S
O48 Co47 2.061 1_554 S
O48 C51 1.235 1_554 S
C49 O52 1.238 . S
C49 O53 1.241 . S
C50 O43 1.247 1_554 S
C50 O44 1.261 . S
C51 O46 1.259 . S
C51 O48 1.235 1_556 S
O52 Co42 2.021 1_554 S
O52 C49 1.238 . S
O53 Co47 2.050 1_554 S
O53 C49 1.241 . S
O54 Co42 2.137 . S
O54 C45 1.247 . S
O55 Co42 2.244 . S
O55 C45 1.272 . S
O55 Co47 2.136 . S
Co56 O57 2.216 . S
Co56 O58 2.092 . S
Co56 O60 2.004 . S
Co56 O66 2.021 1_554 S
Co56 O68 2.137 . S
Co56 O69 2.244 . S
O57 Co56 2.216 . S
O57 C64 1.247 . S
O58 Co56 2.092 . S
O58 C64 1.261 . S
C59 O68 1.247 . S
C59 O69 1.272 . S
O60 Co56 2.004 . S
O60 C65 1.259 . S
Co61 O62 2.061 1_554 S
Co61 O67 2.052 1_554 S
Co61 O69 2.135 . S
O62 Co61 2.061 1_556 S
O62 C65 1.235 1_556 S
C63 O66 1.238 . S
C63 O67 1.241 . S
C64 O57 1.247 . S
C64 O58 1.261 . S
C65 O60 1.259 . S
C65 O62 1.235 1_554 S
O66 Co56 2.021 1_556 S
O66 C63 1.238 . S
O67 Co61 2.052 1_556 S
O67 C63 1.241 . S
O68 Co56 2.137 . S
O68 C59 1.247 . S
O69 Co56 2.244 . S
O69 C59 1.272 . S
O69 Co61 2.135 . S
Co70 O71 2.216 . S
Co70 O72 2.092 . S
Co70 O74 2.004 . S
Co70 O80 2.021 1_554 S
Co70 O82 2.137 . S
Co70 O83 2.244 . S
O71 Co70 2.216 . S
O71 C78 1.247 . S
O72 Co70 2.092 . S
O72 C78 1.261 . S
C73 O82 1.247 . S
C73 O83 1.272 . S
O74 Co70 2.004 . S
O74 C79 1.259 . S
Co75 O76 2.061 1_554 S
Co75 O81 2.052 1_554 S
Co75 O83 2.135 . S
O76 Co75 2.061 1_556 S
O76 C79 1.235 1_556 S
C77 O80 1.238 . S
C77 O81 1.241 . S
C78 O71 1.247 . S
C78 O72 1.261 . S
C79 O74 1.259 . S
C79 O76 1.235 1_554 S
O80 Co70 2.021 1_556 S
O80 C77 1.238 . S
O81 Co75 2.052 1_556 S
O81 C77 1.241 . S
O82 Co70 2.137 . S
O82 C73 1.247 . S
O83 Co70 2.244 . S
O83 C73 1.272 . S
O83 Co75 2.135 . S
Co84 O85 2.216 . S
Co84 O86 2.092 . S
Co84 O88 2.004 . S
Co84 O94 2.021 1_554 S
Co84 O96 2.137 . S
Co84 O97 2.244 . S
O85 Co84 2.216 . S
O85 C92 1.247 . S
O86 Co84 2.092 . S
O86 C92 1.261 . S
C87 O96 1.247 . S
C87 O97 1.272 . S
O88 Co84 2.004 . S
O88 C93 1.259 . S
Co89 O90 2.061 1_554 S
Co89 O95 2.052 1_554 S
Co89 O97 2.135 . S
O90 Co89 2.061 1_556 S
O90 C93 1.235 1_556 S
C91 O94 1.238 . S
C91 O95 1.241 . S
C92 O85 1.247 . S
C92 O86 1.261 . S
C93 O88 1.259 . S
C93 O90 1.235 1_554 S
O94 Co84 2.021 1_556 S
O94 C91 1.238 . S
O95 Co89 2.052 1_556 S
O95 C91 1.241 . S
O96 Co84 2.137 . S
O96 C87 1.247 . S
O97 Co84 2.244 . S
O97 C87 1.272 . S
O97 Co89 2.135 . S
Co98 O99 2.216 . S
Co98 O100 2.092 . S
Co98 O102 2.004 . S
Co98 O108 2.021 1_554 S
Co98 O110 2.137 . S
Co98 O111 2.244 . S
O99 Co98 2.216 . S
O99 C106 1.247 . S
O100 Co98 2.092 . S
O100 C106 1.261 . S
C101 O110 1.247 . S
C101 O111 1.272 . S
O102 Co98 2.004 . S
O102 C107 1.259 . S
Co103 O104 2.061 1_554 S
Co103 O109 2.052 1_554 S
Co103 O111 2.135 . S
O104 Co103 2.061 1_556 S
O104 C107 1.235 1_556 S
C105 O108 1.238 . S
C105 O109 1.241 . S
C106 O99 1.247 . S
C106 O100 1.261 . S
C107 O102 1.259 . S
C107 O104 1.235 1_554 S
O108 Co98 2.021 1_556 S
O108 C105 1.238 . S
O109 Co103 2.052 1_556 S
O109 C105 1.241 . S
O110 Co98 2.137 . S
O110 C101 1.247 . S
O111 Co98 2.244 . S
O111 C101 1.272 . S
O111 Co103 2.135 . S
Co112 O113 2.216 . S
Co112 O114 2.091 . S
Co112 O116 2.004 . S
Co112 O122 2.021 . S
Co112 O124 2.137 . S
Co112 O125 2.244 . S
O113 Co112 2.216 . S
O113 C120 1.247 . S
O114 Co112 2.091 . S
O114 C120 1.261 . S
C115 O124 1.247 . S
C115 O125 1.272 . S
O116 Co112 2.004 . S
O116 C121 1.259 . S
Co117 O118 2.061 . S
Co117 O123 2.052 . S
Co117 O125 2.135 . S
O118 Co117 2.061 . S
O118 C121 1.235 . S
C119 O122 1.238 . S
C119 O123 1.241 . S
C120 O113 1.247 . S
C120 O114 1.261 . S
C121 O116 1.259 . S
C121 O118 1.235 . S
O122 Co112 2.021 . S
O122 C119 1.238 . S
O123 Co117 2.052 . S
O123 C119 1.241 . S
O124 Co112 2.137 . S
O124 C115 1.247 . S
O125 Co112 2.244 . S
O125 C115 1.272 . S
O125 Co117 2.135 . S
Co126 O127 2.216 . S
Co126 O128 2.091 . S
Co126 O130 2.004 . S
Co126 O136 2.021 . S
Co126 O138 2.137 . S
Co126 O139 2.244 . S
O127 Co126 2.216 . S
O127 C134 1.247 . S
O128 Co126 2.091 . S
O128 C134 1.261 . S
C129 O138 1.247 . S
C129 O139 1.272 . S
O130 Co126 2.004 . S
O130 C135 1.259 . S
Co131 O132 2.061 . S
Co131 O137 2.052 . S
Co131 O139 2.135 . S
O132 Co131 2.061 . S
O132 C135 1.235 . S
C133 O136 1.238 . S
C133 O137 1.241 . S
C134 O127 1.247 . S
C134 O128 1.261 . S
C135 O130 1.259 . S
C135 O132 1.235 . S
O136 Co126 2.021 . S
O136 C133 1.238 . S
O137 Co131 2.052 . S
O137 C133 1.241 . S
O138 Co126 2.137 . S
O138 C129 1.247 . S
O139 Co126 2.244 . S
O139 C129 1.272 . S
O139 Co131 2.135 . S
Co140 O141 2.216 . S
Co140 O142 2.091 . S
Co140 O144 2.004 . S
Co140 O150 2.021 . S
Co140 O152 2.137 . S
Co140 O153 2.244 . S
O141 Co140 2.216 . S
O141 C148 1.247 . S
O142 Co140 2.091 . S
O142 C148 1.261 . S
C143 O152 1.247 . S
C143 O153 1.272 . S
O144 Co140 2.004 . S
O144 C149 1.259 . S
Co145 O146 2.061 . S
Co145 O151 2.052 . S
Co145 O153 2.135 . S
O146 Co145 2.061 . S
O146 C149 1.235 . S
C147 O150 1.238 . S
C147 O151 1.241 . S
C148 O141 1.247 . S
C148 O142 1.261 . S
C149 O144 1.259 . S
C149 O146 1.235 . S
O150 Co140 2.021 . S
O150 C147 1.238 . S
O151 Co145 2.052 . S
O151 C147 1.241 . S
O152 Co140 2.137 . S
O152 C143 1.247 . S
O153 Co140 2.244 . S
O153 C143 1.272 . S
O153 Co145 2.135 . S
Co154 O155 2.216 . S
Co154 O156 2.091 . S
Co154 O158 2.004 . S
Co154 O164 2.021 . S
Co154 O166 2.137 . S
Co154 O167 2.244 . S
O155 Co154 2.216 . S
O155 C162 1.247 . S
O156 Co154 2.091 . S
O156 C162 1.261 . S
C157 O166 1.247 . S
C157 O167 1.272 . S
O158 Co154 2.004 . S
O158 C163 1.259 . S
Co159 O160 2.061 . S
Co159 O165 2.052 . S
Co159 O167 2.135 . S
O160 Co159 2.061 . S
O160 C163 1.235 . S
C161 O164 1.238 . S
C161 O165 1.241 . S
C162 O155 1.247 . S
C162 O156 1.261 . S
C163 O158 1.259 . S
C163 O160 1.235 . S
O164 Co154 2.021 . S
O164 C161 1.238 . S
O165 Co159 2.052 . S
O165 C161 1.241 . S
O166 Co154 2.137 . S
O166 C157 1.247 . S
O167 Co154 2.244 . S
O167 C157 1.272 . S
O167 Co159 2.135 . S
Co168 O169 2.216 . S
Co168 O170 2.091 . S
Co168 O172 2.004 . S
Co168 O178 2.021 . S
Co168 O180 2.137 . S
Co168 O181 2.244 . S
O169 Co168 2.216 . S
O169 C176 1.247 . S
O170 Co168 2.091 . S
O170 C176 1.261 . S
C171 O180 1.247 . S
C171 O181 1.272 . S
O172 Co168 2.004 . S
O172 C177 1.259 . S
Co173 O174 2.061 . S
Co173 O179 2.052 . S
Co173 O181 2.135 . S
O174 Co173 2.061 . S
O174 C177 1.235 . S
C175 O178 1.238 . S
C175 O179 1.241 . S
C176 O169 1.247 . S
C176 O170 1.261 . S
C177 O172 1.259 . S
C177 O174 1.235 . S
O178 Co168 2.021 . S
O178 C175 1.238 . S
O179 Co173 2.052 . S
O179 C175 1.241 . S
O180 Co168 2.137 . S
O180 C171 1.247 . S
O181 Co168 2.244 . S
O181 C171 1.272 . S
O181 Co173 2.135 . S
Co182 O183 2.216 . S
Co182 O184 2.091 . S
Co182 O186 2.004 . S
Co182 O192 2.021 . S
Co182 O194 2.137 . S
Co182 O195 2.244 . S
O183 Co182 2.216 . S
O183 C190 1.247 . S
O184 Co182 2.091 . S
O184 C190 1.261 . S
C185 O194 1.247 . S
C185 O195 1.272 . S
O186 Co182 2.004 . S
O186 C191 1.259 . S
Co187 O188 2.061 . S
Co187 O193 2.052 . S
Co187 O195 2.135 . S
O188 Co187 2.061 . S
O188 C191 1.235 . S
C189 O192 1.238 . S
C189 O193 1.241 . S
C190 O183 1.247 . S
C190 O184 1.261 . S
C191 O186 1.259 . S
C191 O188 1.235 . S
O192 Co182 2.021 . S
O192 C189 1.238 . S
O193 Co187 2.052 . S
O193 C189 1.241 . S
O194 Co182 2.137 . S
O194 C185 1.247 . S
O195 Co182 2.244 . S
O195 C185 1.272 . S
O195 Co187 2.135 . S
Co196 O197 2.216 . S
Co196 O198 2.091 . S
Co196 O200 2.004 . S
Co196 O206 2.021 . S
Co196 O208 2.137 . S
Co196 O209 2.244 . S
O197 Co196 2.216 . S
O197 C204 1.247 . S
O198 Co196 2.091 . S
O198 C204 1.261 . S
C199 O208 1.247 . S
C199 O209 1.272 . S
O200 Co196 2.004 . S
O200 C205 1.259 . S
Co201 O202 2.061 . S
Co201 O207 2.052 . S
Co201 O209 2.135 . S
O202 Co201 2.061 . S
O202 C205 1.235 . S
C203 O206 1.238 . S
C203 O207 1.241 . S
C204 O197 1.247 . S
C204 O198 1.261 . S
C205 O200 1.259 . S
C205 O202 1.235 . S
O206 Co196 2.021 . S
O206 C203 1.238 . S
O207 Co201 2.052 . S
O207 C203 1.241 . S
O208 Co196 2.137 . S
O208 C199 1.247 . S
O209 Co196 2.244 . S
O209 C199 1.272 . S
O209 Co201 2.135 . S
Co210 O211 2.216 . S
Co210 O212 2.091 . S
Co210 O214 2.004 . S
Co210 O220 2.021 . S
Co210 O222 2.137 . S
Co210 O223 2.244 . S
O211 Co210 2.216 . S
O211 C218 1.247 . S
O212 Co210 2.091 . S
O212 C218 1.261 . S
C213 O222 1.247 . S
C213 O223 1.272 . S
O214 Co210 2.004 . S
O214 C219 1.259 . S
Co215 O216 2.061 . S
Co215 O221 2.052 . S
Co215 O223 2.135 . S
O216 Co215 2.061 . S
O216 C219 1.235 . S
C217 O220 1.238 . S
C217 O221 1.241 . S
C218 O211 1.247 . S
C218 O212 1.261 . S
C219 O214 1.259 . S
C219 O216 1.235 . S
O220 Co210 2.021 . S
O220 C217 1.238 . S
O221 Co215 2.052 . S
O221 C217 1.241 . S
O222 Co210 2.137 . S
O222 C213 1.247 . S
O223 Co210 2.244 . S
O223 C213 1.272 . S
O223 Co215 2.135 . S
C224 C225 1.387 . S
C224 H228 0.950 . S
C224 C233 1.390 1_556 S
C225 C224 1.387 . S
C225 C227 1.388 1_556 S
H226 C233 0.950 . S
C227 C225 1.388 1_554 S
C227 C229 1.390 . S
C227 H231 0.950 1_554 S
H228 C224 0.950 . S
C229 C227 1.390 . S
C229 C230 1.387 . S
C229 H232 0.950 . S
C230 C229 1.387 . S
C230 C233 1.387 . S
H231 C227 0.950 1_556 S
H232 C229 0.950 . S
C233 C224 1.390 1_554 S
C233 H226 0.950 . S
C233 C230 1.387 . S
C234 C235 1.387 1_554 S
C234 H238 0.950 1_554 S
C234 C243 1.390 . S
C235 C234 1.387 1_556 S
C235 C237 1.387 1_556 S
H236 C243 0.950 . S
C237 C235 1.387 1_554 S
C237 C239 1.390 . S
C237 H241 0.950 . S
H238 C234 0.950 1_556 S
C239 C237 1.390 . S
C239 C240 1.387 . S
C239 H242 0.950 . S
C240 C239 1.387 . S
C240 C243 1.387 . S
H241 C237 0.950 . S
H242 C239 0.950 . S
C243 C234 1.390 . S
C243 H236 0.950 . S
C243 C240 1.387 . S
C244 C245 1.387 . S
C244 H248 0.950 . S
C244 C253 1.390 1_556 S
C245 C244 1.387 . S
C245 C247 1.387 1_556 S
H246 C253 0.950 . S
C247 C245 1.387 1_554 S
C247 C249 1.390 . S
C247 H251 0.950 . S
H248 C244 0.950 . S
C249 C247 1.390 . S
C249 C250 1.387 . S
C249 H252 0.950 . S
C250 C249 1.387 . S
C250 C253 1.387 . S
H251 C247 0.950 . S
H252 C249 0.950 . S
C253 C244 1.390 1_554 S
C253 H246 0.950 . S
C253 C250 1.387 . S
C254 C255 1.387 1_554 S
C254 H258 0.950 . S
C254 C263 1.390 . S
C255 C254 1.387 1_556 S
C255 C257 1.387 1_556 S
H256 C263 0.950 . S
C257 C255 1.387 1_554 S
C257 C259 1.390 . S
C257 H261 0.950 . S
H258 C254 0.950 . S
C259 C257 1.390 . S
C259 C260 1.387 . S
C259 H262 0.950 . S
C260 C259 1.387 . S
C260 C263 1.387 . S
H261 C257 0.950 . S
H262 C259 0.950 . S
C263 C254 1.390 . S
C263 H256 0.950 . S
C263 C260 1.387 . S
C264 C265 1.387 . S
C264 H268 0.950 . S
C264 C273 1.390 1_545 S
C265 C264 1.387 . S
C265 C267 1.387 . S
H266 C273 0.950 . S
C267 C265 1.387 . S
C267 C269 1.390 1_545 S
C267 H271 0.950 . S
H268 C264 0.950 . S
C269 C267 1.390 1_565 S
C269 C270 1.387 . S
C269 H272 0.950 . S
C270 C269 1.387 . S
C270 C273 1.387 . S
H271 C267 0.950 . S
H272 C269 0.950 . S
C273 C264 1.390 1_565 S
C273 H266 0.950 . S
C273 C270 1.387 . S
C274 C275 1.387 . S
C274 H278 0.950 . S
C274 C283 1.390 1_655 S
C275 C274 1.387 . S
C275 C277 1.387 . S
H276 C283 0.950 . S
C277 C275 1.387 . S
C277 C279 1.390 1_655 S
C277 H281 0.950 . S
H278 C274 0.950 . S
C279 C277 1.390 1_455 S
C279 C280 1.387 . S
C279 H282 0.950 . S
C280 C279 1.387 . S
C280 C283 1.387 . S
H281 C277 0.950 . S
H282 C279 0.950 . S
C283 C274 1.390 1_455 S
C283 H276 0.950 . S
C283 C280 1.387 . S
C284 C285 1.387 . S
C284 H288 0.950 . S
C284 C293 1.390 1_545 S
C285 C284 1.387 . S
C285 C287 1.387 . S
H286 C293 0.950 . S
C287 C285 1.387 . S
C287 C289 1.390 1_545 S
C287 H291 0.950 . S
H288 C284 0.950 . S
C289 C287 1.390 1_565 S
C289 C290 1.387 . S
C289 H292 0.950 . S
C290 C289 1.387 . S
C290 C293 1.387 . S
H291 C287 0.950 . S
H292 C289 0.950 . S
C293 C284 1.390 1_565 S
C293 H286 0.950 . S
C293 C290 1.387 . S
C294 C295 1.387 . S
C294 H298 0.950 . S
C294 C303 1.390 1_455 S
C295 C294 1.387 . S
C295 C297 1.387 . S
H296 C303 0.950 . S
C297 C295 1.387 . S
C297 C299 1.390 1_455 S
C297 H301 0.950 . S
H298 C294 0.950 . S
C299 C297 1.390 1_655 S
C299 C300 1.387 . S
C299 H302 0.950 . S
C300 C299 1.387 . S
C300 C303 1.387 . S
H301 C297 0.950 . S
H302 C299 0.950 . S
C303 C294 1.390 1_655 S
C303 H296 0.950 . S
C303 C300 1.387 . S
C304 C305 1.386 . S
C304 H308 0.950 . S
C304 C313 1.390 . S
C305 C304 1.386 . S
C305 C307 1.389 1_556 S
H306 C313 0.950 . S
C307 C305 1.389 1_554 S
C307 C309 1.390 . S
C307 H311 0.950 . S
H308 C304 0.950 . S
C309 C307 1.390 . S
C309 C310 1.387 . S
C309 H312 0.950 . S
C310 C309 1.387 . S
C310 C313 1.387 1_554 S
H311 C307 0.950 . S
H312 C309 0.950 . S
C313 C304 1.390 . S
C313 H306 0.950 . S
C313 C310 1.387 1_556 S
C314 C315 1.387 1_556 S
C314 H318 0.950 . S
C314 C323 1.390 . S
C315 C314 1.387 1_554 S
C315 C317 1.387 . S
H316 C323 0.950 . S
C317 C315 1.387 . S
C317 C319 1.390 . S
C317 H321 0.950 . S
H318 C314 0.950 . S
C319 C317 1.390 . S
C319 C320 1.389 1_554 S
C319 H322 0.950 . S
C320 C319 1.389 1_556 S
C320 C323 1.386 . S
H321 C317 0.950 . S
H322 C319 0.950 . S
C323 C314 1.390 . S
C323 H316 0.950 . S
C323 C320 1.386 . S
C324 C325 1.386 . S
C324 H328 0.950 . S
C324 C333 1.390 . S
C325 C324 1.386 . S
C325 C327 1.389 1_556 S
H326 C333 0.950 . S
C327 C325 1.389 1_554 S
C327 C329 1.390 . S
C327 H331 0.950 . S
H328 C324 0.950 . S
C329 C327 1.390 . S
C329 C330 1.387 . S
C329 H332 0.950 . S
C330 C329 1.387 . S
C330 C333 1.387 1_554 S
H331 C327 0.950 . S
H332 C329 0.950 . S
C333 C324 1.390 . S
C333 H326 0.950 . S
C333 C330 1.387 1_556 S
C334 C335 1.387 . S
C334 H338 0.950 . S
C334 C343 1.390 . S
C335 C334 1.387 . S
C335 C337 1.387 1_554 S
H336 C343 0.950 . S
C337 C335 1.387 1_556 S
C337 C339 1.390 . S
C337 H341 0.950 . S
H338 C334 0.950 . S
C339 C337 1.390 . S
C339 C340 1.387 . S
C339 H342 0.950 . S
C340 C339 1.387 . S
C340 C343 1.388 1_556 S
H341 C337 0.950 . S
H342 C339 0.950 . S
C343 C334 1.390 . S
C343 H336 0.950 . S
C343 C340 1.388 1_554 S
C344 C345 1.387 . S
C344 H348 0.950 . S
C344 C353 1.390 . S
C345 C344 1.387 . S
C345 C347 1.387 . S
H346 C353 0.950 . S
C347 C345 1.387 . S
C347 C349 1.390 . S
C347 H351 0.950 . S
H348 C344 0.950 . S
C349 C347 1.390 . S
C349 C350 1.387 . S
C349 H352 0.950 . S
C350 C349 1.387 . S
C350 C353 1.387 . S
H351 C347 0.950 . S
H352 C349 0.950 . S
C353 C344 1.390 . S
C353 H346 0.950 . S
C353 C350 1.387 . S
C354 C355 1.387 . S
C354 H358 0.950 . S
C354 C363 1.390 . S
C355 C354 1.387 . S
C355 C357 1.387 . S
H356 C363 0.950 . S
C357 C355 1.387 . S
C357 C359 1.390 . S
C357 H361 0.950 . S
H358 C354 0.950 . S
C359 C357 1.390 . S
C359 C360 1.387 . S
C359 H362 0.950 . S
C360 C359 1.387 . S
C360 C363 1.387 . S
H361 C357 0.950 . S
H362 C359 0.950 . S
C363 C354 1.390 . S
C363 H356 0.950 . S
C363 C360 1.387 . S
C364 C365 1.387 . S
C364 H368 0.950 . S
C364 C373 1.390 . S
C365 C364 1.387 . S
C365 C367 1.387 . S
H366 C373 0.950 . S
C367 C365 1.387 . S
C367 C369 1.390 . S
C367 H371 0.950 . S
H368 C364 0.950 . S
C369 C367 1.390 . S
C369 C370 1.387 . S
C369 H372 0.950 . S
C370 C369 1.387 . S
C370 C373 1.387 . S
H371 C367 0.950 . S
H372 C369 0.950 . S
C373 C364 1.390 . S
C373 H366 0.950 . S
C373 C370 1.387 . S
C374 C375 1.387 . S
C374 H378 0.950 . S
C374 C383 1.390 . S
C375 C374 1.387 . S
C375 C377 1.387 . S
H376 C383 0.950 . S
C377 C375 1.387 . S
C377 C379 1.390 . S
C377 H381 0.950 . S
H378 C374 0.950 . S
C379 C377 1.390 . S
C379 C380 1.387 . S
C379 H382 0.950 . S
C380 C379 1.387 . S
C380 C383 1.387 . S
H381 C377 0.950 . S
H382 C379 0.950 . S
C383 C374 1.390 . S
C383 H376 0.950 . S
C383 C380 1.387 . S
C384 C385 1.387 . S
C384 H388 0.950 . S
C384 C393 1.390 . S
C385 C384 1.387 . S
C385 C387 1.387 . S
H386 C393 0.950 . S
C387 C385 1.387 . S
C387 C389 1.390 . S
C387 H391 0.950 . S
H388 C384 0.950 . S
C389 C387 1.390 . S
C389 C390 1.387 . S
C389 H392 0.950 . S
C390 C389 1.387 . S
C390 C393 1.387 . S
H391 C387 0.950 . S
H392 C389 0.950 . S
C393 C384 1.390 . S
C393 H386 0.950 . S
C393 C390 1.387 . S
C394 C395 1.387 . S
C394 H398 0.950 . S
C394 C403 1.390 . S
C395 C394 1.387 . S
C395 C397 1.387 . S
H396 C403 0.950 . S
C397 C395 1.387 . S
C397 C399 1.390 . S
C397 H401 0.950 . S
H398 C394 0.950 . S
C399 C397 1.390 . S
C399 C400 1.387 . S
C399 H402 0.950 . S
C400 C399 1.387 . S
C400 C403 1.387 . S
H401 C397 0.950 . S
H402 C399 0.950 . S
C403 C394 1.390 . S
C403 H396 0.950 . S
C403 C400 1.387 . S
C404 C405 1.387 . S
C404 H408 0.950 . S
C404 C413 1.390 . S
C405 C404 1.387 . S
C405 C407 1.387 . S
H406 C413 0.950 . S
C407 C405 1.387 . S
C407 C409 1.390 . S
C407 H411 0.950 . S
H408 C404 0.950 . S
C409 C407 1.390 . S
C409 C410 1.387 . S
C409 H412 0.950 . S
C410 C409 1.387 . S
C410 C413 1.387 . S
H411 C407 0.950 . S
H412 C409 0.950 . S
C413 C404 1.390 . S
C413 H406 0.950 . S
C413 C410 1.387 . S
C414 C415 1.387 . S
C414 H418 0.950 . S
C414 C423 1.390 . S
C415 C414 1.387 . S
C415 C417 1.387 . S
H416 C423 0.950 . S
C417 C415 1.387 . S
C417 C419 1.390 . S
C417 H421 0.950 . S
H418 C414 0.950 . S
C419 C417 1.390 . S
C419 C420 1.387 . S
C419 H422 0.950 . S
C420 C419 1.387 . S
C420 C423 1.387 . S
H421 C417 0.950 . S
H422 C419 0.950 . S
C423 C414 1.390 . S
C423 H416 0.950 . S
C423 C420 1.387 . S
C424 C425 1.387 . S
C424 H428 0.950 . S
C424 C433 1.390 . S
C425 C424 1.387 . S
C425 C427 1.387 . S
H426 C433 0.950 . S
C427 C425 1.387 . S
C427 C429 1.390 . S
C427 H431 0.950 . S
H428 C424 0.950 . S
C429 C427 1.390 . S
C429 C430 1.387 . S
C429 H432 0.950 . S
C430 C429 1.387 . S
C430 C433 1.387 . S
H431 C427 0.950 . S
H432 C429 0.950 . S
C433 C424 1.390 . S
C433 H426 0.950 . S
C433 C430 1.387 . S
C434 C435 1.387 . S
C434 H438 0.950 . S
C434 C443 1.390 . S
C435 C434 1.387 . S
C435 C437 1.387 . S
H436 C443 0.950 . S
C437 C435 1.387 . S
C437 C439 1.390 . S
C437 H441 0.950 . S
H438 C434 0.950 . S
C439 C437 1.390 . S
C439 C440 1.387 . S
C439 H442 0.950 . S
C440 C439 1.387 . S
C440 C443 1.387 . S
H441 C437 0.950 . S
H442 C439 0.950 . S
C443 C434 1.390 . S
C443 H436 0.950 . S
C443 C440 1.387 . S
C444 C445 1.387 . S
C444 H448 0.950 . S
C444 C453 1.390 . S
C445 C444 1.387 . S
C445 C447 1.387 . S
H446 C453 0.950 . S
C447 C445 1.387 . S
C447 C449 1.390 . S
C447 H451 0.950 . S
H448 C444 0.950 . S
C449 C447 1.390 . S
C449 C450 1.387 . S
C449 H452 0.950 . S
C450 C449 1.387 . S
C450 C453 1.387 . S
H451 C447 0.950 . S
H452 C449 0.950 . S
C453 C444 1.390 . S
C453 H446 0.950 . S
C453 C450 1.387 . S
C454 C455 1.387 . S
C454 H458 0.950 . S
C454 C463 1.390 . S
C455 C454 1.387 . S
C455 C457 1.387 . S
H456 C463 0.950 . S
C457 C455 1.387 . S
C457 C459 1.390 . S
C457 H461 0.950 . S
H458 C454 0.950 . S
C459 C457 1.390 . S
C459 C460 1.387 . S
C459 H462 0.950 . S
C460 C459 1.387 . S
C460 C463 1.387 . S
H461 C457 0.950 . S
H462 C459 0.950 . S
C463 C454 1.390 . S
C463 H456 0.950 . S
C463 C460 1.387 . S
C464 C465 1.387 . S
C464 H468 0.950 . S
C464 C473 1.390 . S
C465 C464 1.387 . S
C465 C467 1.387 . S
H466 C473 0.950 . S
C467 C465 1.387 . S
C467 C469 1.390 . S
C467 H471 0.950 . S
H468 C464 0.950 . S
C469 C467 1.390 . S
C469 C470 1.387 . S
C469 H472 0.950 . S
C470 C469 1.387 . S
C470 C473 1.387 . S
H471 C467 0.950 . S
H472 C469 0.950 . S
C473 C464 1.390 . S
C473 H466 0.950 . S
C473 C470 1.387 . S
C474 C475 1.387 . S
C474 H478 0.950 . S
C474 C483 1.390 . S
C475 C474 1.387 . S
C475 C477 1.387 . S
H476 C483 0.950 . S
C477 C475 1.387 . S
C477 C479 1.390 . S
C477 H481 0.950 . S
H478 C474 0.950 . S
C479 C477 1.390 . S
C479 C480 1.387 . S
C479 H482 0.950 . S
C480 C479 1.387 . S
C480 C483 1.387 . S
H481 C477 0.950 . S
H482 C479 0.950 . S
C483 C474 1.390 . S
C483 H476 0.950 . S
C483 C480 1.387 . S
C484 C485 1.387 . S
C484 H488 0.950 . S
C484 C493 1.390 . S
C485 C484 1.387 . S
C485 C487 1.387 . S
H486 C493 0.950 . S
C487 C485 1.387 . S
C487 C489 1.390 . S
C487 H491 0.950 . S
H488 C484 0.950 . S
C489 C487 1.390 . S
C489 C490 1.387 . S
C489 H492 0.950 . S
C490 C489 1.387 . S
C490 C493 1.387 . S
H491 C487 0.950 . S
H492 C489 0.950 . S
C493 C484 1.390 . S
C493 H486 0.950 . S
C493 C490 1.387 . S
C494 C495 1.387 . S
C494 H498 0.950 . S
C494 C503 1.390 . S
C495 C494 1.387 . S
C495 C497 1.387 . S
H496 C503 0.950 . S
C497 C495 1.387 . S
C497 C499 1.390 . S
C497 H501 0.950 . S
H498 C494 0.950 . S
C499 C497 1.390 . S
C499 C500 1.387 . S
C499 H502 0.950 . S
C500 C499 1.387 . S
C500 C503 1.387 . S
H501 C497 0.950 . S
H502 C499 0.950 . S
C503 C494 1.390 . S
C503 H496 0.950 . S
C503 C500 1.387 . S
C504 C505 1.387 . S
C504 H508 0.950 . S
C504 C513 1.390 . S
C505 C504 1.387 . S
C505 C507 1.387 . S
H506 C513 0.950 . S
C507 C505 1.387 . S
C507 C509 1.390 . S
C507 H511 0.950 . S
H508 C504 0.950 . S
C509 C507 1.390 . S
C509 C510 1.387 . S
C509 H512 0.950 . S
C510 C509 1.387 . S
C510 C513 1.387 . S
H511 C507 0.950 . S
H512 C509 0.950 . S
C513 C504 1.390 . S
C513 H506 0.950 . S
C513 C510 1.387 . S
C514 C515 1.387 . S
C514 H518 0.950 . S
C514 C523 1.390 . S
C515 C514 1.387 . S
C515 C517 1.387 . S
H516 C523 0.950 . S
C517 C515 1.387 . S
C517 C519 1.390 . S
C517 H521 0.950 . S
H518 C514 0.950 . S
C519 C517 1.390 . S
C519 C520 1.387 . S
C519 H522 0.950 . S
C520 C519 1.387 . S
C520 C523 1.387 . S
H521 C517 0.950 . S
H522 C519 0.950 . S
C523 C514 1.390 . S
C523 H516 0.950 . S
C523 C520 1.387 . S
C524 C525 1.387 . S
C524 H528 0.950 . S
C524 C533 1.390 . S
C525 C524 1.387 . S
C525 C527 1.387 . S
H526 C533 0.950 . S
C527 C525 1.387 . S
C527 C529 1.390 . S
C527 H531 0.950 . S
H528 C524 0.950 . S
C529 C527 1.390 . S
C529 C530 1.387 . S
C529 H532 0.950 . S
C530 C529 1.387 . S
C530 C533 1.387 . S
H531 C527 0.950 . S
H532 C529 0.950 . S
C533 C524 1.390 . S
C533 H526 0.950 . S
C533 C530 1.387 . S
C534 C535 1.387 . S
C534 H538 0.950 . S
C534 C543 1.390 . S
C535 C534 1.387 . S
C535 C537 1.387 . S
H536 C543 0.950 . S
C537 C535 1.387 . S
C537 C539 1.390 . S
C537 H541 0.950 . S
H538 C534 0.950 . S
C539 C537 1.390 . S
C539 C540 1.387 . S
C539 H542 0.950 . S
C540 C539 1.387 . S
C540 C543 1.387 . S
H541 C537 0.950 . S
H542 C539 0.950 . S
C543 C534 1.390 . S
C543 H536 0.950 . S
C543 C540 1.387 . S
C225 C64 1.442 1_556 S
C230 C8 1.442 . S
C235 C78 1.442 1_556 S
C240 C22 1.442 . S
C245 C92 1.442 1_556 S
C250 C36 1.442 . S
C255 C106 1.442 1_556 S
C260 C50 1.442 . S
C265 C176 1.442 . S
C270 C120 1.442 . S
C275 C190 1.442 . S
C280 C134 1.442 . S
C285 C148 1.442 . S
C290 C204 1.442 . S
C295 C218 1.442 . S
C300 C162 1.442 . S
C305 C9 1.470 . S
C310 C79 1.472 . S
C315 C93 1.472 . S
C320 C23 1.470 . S
C325 C37 1.470 . S
C330 C107 1.472 . S
C335 C65 1.470 . S
C340 C51 1.472 . S
C345 C191 1.470 . S
C350 C121 1.472 . S
C355 C205 1.470 . S
C360 C135 1.472 . S
C365 C149 1.472 . S
C370 C219 1.470 . S
C375 C163 1.472 . S
C380 C177 1.470 . S
C385 C217 1.420 . S
C390 C7 1.421 . S
C395 C175 1.421 . S
C400 C21 1.418 . S
C405 C189 1.421 . S
C410 C35 1.419 . S
C415 C203 1.420 . S
C420 C49 1.421 . S
C425 C133 1.418 . S
C430 C63 1.420 . S
C435 C147 1.420 . S
C440 C77 1.418 . S
C445 C91 1.420 . S
C450 C161 1.420 . S
C455 C105 1.419 . S
C460 C119 1.419 . S
C465 C185 1.414 . S
C470 C31 1.413 . S
C475 C199 1.412 . S
C480 C45 1.413 . S
C485 C213 1.413 . S
C490 C3 1.412 . S
C495 C17 1.412 . S
C500 C171 1.412 . S
C505 C157 1.413 . S
C510 C87 1.414 . S
C515 C101 1.414 . S
C520 C115 1.414 . S
C525 C129 1.414 . S
C530 C59 1.414 . S
C535 C143 1.412 . S
C540 C73 1.413 . S
