# Generated by pormake.
# Topology ukr, (4)-cn, num edge types: 1
# Building blocks:
#     Node 0, Type 0, BuildingBlock: QUQFOY_clean_sbu_1, # of connection points: 4
#     Node 1, Type 0, BuildingBlock: QUQFOY_clean_sbu_1, # of connection points: 4
#     Node 2, Type 0, BuildingBlock: QUQFOY_clean_sbu_1, # of connection points: 4
#     Node 3, Type 0, BuildingBlock: QUQFOY_clean_sbu_1, # of connection points: 4
#     Node 4, Type 0, BuildingBlock: QUQFOY_clean_sbu_1, # of connection points: 4
#     Node 5, Type 0, BuildingBlock: QUQFOY_clean_sbu_1, # of connection points: 4
#     Node 6, Type 0, BuildingBlock: QUQFOY_clean_sbu_1, # of connection points: 4
#     Node 7, Type 0, BuildingBlock: QUQFOY_clean_sbu_1, # of connection points: 4
#     Node 8, Type 0, BuildingBlock: QUQFOY_clean_sbu_1, # of connection points: 4
#     Node 9, Type 0, BuildingBlock: QUQFOY_clean_sbu_1, # of connection points: 4
#     Node 10, Type 0, BuildingBlock: QUQFOY_clean_sbu_1, # of connection points: 4
#     Node 11, Type 0, BuildingBlock: QUQFOY_clean_sbu_1, # of connection points: 4
#     Node 12, Type 0, BuildingBlock: QUQFOY_clean_sbu_1, # of connection points: 4
#     Node 13, Type 0, BuildingBlock: QUQFOY_clean_sbu_1, # of connection points: 4
#     Node 14, Type 0, BuildingBlock: QUQFOY_clean_sbu_1, # of connection points: 4
#     Node 15, Type 0, BuildingBlock: QUQFOY_clean_sbu_1, # of connection points: 4
#     Node 16, Type 0, BuildingBlock: QUQFOY_clean_sbu_1, # of connection points: 4
#     Node 17, Type 0, BuildingBlock: QUQFOY_clean_sbu_1, # of connection points: 4
#     Node 18, Type 0, BuildingBlock: QUQFOY_clean_sbu_1, # of connection points: 4
#     Node 19, Type 0, BuildingBlock: QUQFOY_clean_sbu_1, # of connection points: 4
#     Node 20, Type 0, BuildingBlock: QUQFOY_clean_sbu_1, # of connection points: 4
#     Node 21, Type 0, BuildingBlock: QUQFOY_clean_sbu_1, # of connection points: 4
#     Node 22, Type 0, BuildingBlock: QUQFOY_clean_sbu_1, # of connection points: 4
#     Node 23, Type 0, BuildingBlock: QUQFOY_clean_sbu_1, # of connection points: 4
#     Node 24, Type 0, BuildingBlock: QUQFOY_clean_sbu_1, # of connection points: 4
#     Node 25, Type 0, BuildingBlock: QUQFOY_clean_sbu_1, # of connection points: 4
#     Node 26, Type 0, BuildingBlock: QUQFOY_clean_sbu_1, # of connection points: 4
#     Node 27, Type 0, BuildingBlock: QUQFOY_clean_sbu_1, # of connection points: 4
#     Node 28, Type 0, BuildingBlock: QUQFOY_clean_sbu_1, # of connection points: 4
#     Node 29, Type 0, BuildingBlock: QUQFOY_clean_sbu_1, # of connection points: 4
#     Node 30, Type 0, BuildingBlock: QUQFOY_clean_sbu_1, # of connection points: 4
#     Node 31, Type 0, BuildingBlock: QUQFOY_clean_sbu_1, # of connection points: 4
#     Node 32, Type 0, BuildingBlock: QUQFOY_clean_sbu_1, # of connection points: 4
#     Node 33, Type 0, BuildingBlock: QUQFOY_clean_sbu_1, # of connection points: 4
#     Node 34, Type 0, BuildingBlock: QUQFOY_clean_sbu_1, # of connection points: 4
#     Node 35, Type 0, BuildingBlock: QUQFOY_clean_sbu_1, # of connection points: 4
#     Node 36, Type 0, BuildingBlock: QUQFOY_clean_sbu_1, # of connection points: 4
#     Node 37, Type 0, BuildingBlock: QUQFOY_clean_sbu_1, # of connection points: 4
#     Node 38, Type 0, BuildingBlock: QUQFOY_clean_sbu_1, # of connection points: 4
#     Node 39, Type 0, BuildingBlock: QUQFOY_clean_sbu_1, # of connection points: 4
#     Node 40, Type 0, BuildingBlock: QUQFOY_clean_sbu_1, # of connection points: 4
#     Node 41, Type 0, BuildingBlock: QUQFOY_clean_sbu_1, # of connection points: 4
#     Node 42, Type 0, BuildingBlock: QUQFOY_clean_sbu_1, # of connection points: 4
#     Node 43, Type 0, BuildingBlock: QUQFOY_clean_sbu_1, # of connection points: 4
#     Node 44, Type 0, BuildingBlock: QUQFOY_clean_sbu_1, # of connection points: 4
#     Node 45, Type 0, BuildingBlock: QUQFOY_clean_sbu_1, # of connection points: 4
#     Node 46, Type 0, BuildingBlock: QUQFOY_clean_sbu_1, # of connection points: 4
#     Node 47, Type 0, BuildingBlock: QUQFOY_clean_sbu_1, # of connection points: 4
#     Edge 48, Type (0, 0), BuildingBlock: KIFKEQ_clean_linker_1, # of connection points: 2
#     Edge 49, Type (0, 0), BuildingBlock: KIFKEQ_clean_linker_1, # of connection points: 2
#     Edge 50, Type (0, 0), BuildingBlock: KIFKEQ_clean_linker_1, # of connection points: 2
#     Edge 51, Type (0, 0), BuildingBlock: KIFKEQ_clean_linker_1, # of connection points: 2
#     Edge 52, Type (0, 0), BuildingBlock: KIFKEQ_clean_linker_1, # of connection points: 2
#     Edge 53, Type (0, 0), BuildingBlock: KIFKEQ_clean_linker_1, # of connection points: 2
#     Edge 54, Type (0, 0), BuildingBlock: KIFKEQ_clean_linker_1, # of connection points: 2
#     Edge 55, Type (0, 0), BuildingBlock: KIFKEQ_clean_linker_1, # of connection points: 2
#     Edge 56, Type (0, 0), BuildingBlock: KIFKEQ_clean_linker_1, # of connection points: 2
#     Edge 57, Type (0, 0), BuildingBlock: KIFKEQ_clean_linker_1, # of connection points: 2
#     Edge 58, Type (0, 0), BuildingBlock: KIFKEQ_clean_linker_1, # of connection points: 2
#     Edge 59, Type (0, 0), BuildingBlock: KIFKEQ_clean_linker_1, # of connection points: 2
#     Edge 60, Type (0, 0), BuildingBlock: KIFKEQ_clean_linker_1, # of connection points: 2
#     Edge 61, Type (0, 0), BuildingBlock: KIFKEQ_clean_linker_1, # of connection points: 2
#     Edge 62, Type (0, 0), BuildingBlock: KIFKEQ_clean_linker_1, # of connection points: 2
#     Edge 63, Type (0, 0), BuildingBlock: KIFKEQ_clean_linker_1, # of connection points: 2
#     Edge 64, Type (0, 0), BuildingBlock: KIFKEQ_clean_linker_1, # of connection points: 2
#     Edge 65, Type (0, 0), BuildingBlock: KIFKEQ_clean_linker_1, # of connection points: 2
#     Edge 66, Type (0, 0), BuildingBlock: KIFKEQ_clean_linker_1, # of connection points: 2
#     Edge 67, Type (0, 0), BuildingBlock: KIFKEQ_clean_linker_1, # of connection points: 2
#     Edge 68, Type (0, 0), BuildingBlock: KIFKEQ_clean_linker_1, # of connection points: 2
#     Edge 69, Type (0, 0), BuildingBlock: KIFKEQ_clean_linker_1, # of connection points: 2
#     Edge 70, Type (0, 0), BuildingBlock: KIFKEQ_clean_linker_1, # of connection points: 2
#     Edge 71, Type (0, 0), BuildingBlock: KIFKEQ_clean_linker_1, # of connection points: 2
#     Edge 72, Type (0, 0), BuildingBlock: KIFKEQ_clean_linker_1, # of connection points: 2
#     Edge 73, Type (0, 0), BuildingBlock: KIFKEQ_clean_linker_1, # of connection points: 2
#     Edge 74, Type (0, 0), BuildingBlock: KIFKEQ_clean_linker_1, # of connection points: 2
#     Edge 75, Type (0, 0), BuildingBlock: KIFKEQ_clean_linker_1, # of connection points: 2
#     Edge 76, Type (0, 0), BuildingBlock: KIFKEQ_clean_linker_1, # of connection points: 2
#     Edge 77, Type (0, 0), BuildingBlock: KIFKEQ_clean_linker_1, # of connection points: 2
#     Edge 78, Type (0, 0), BuildingBlock: KIFKEQ_clean_linker_1, # of connection points: 2
#     Edge 79, Type (0, 0), BuildingBlock: KIFKEQ_clean_linker_1, # of connection points: 2
#     Edge 80, Type (0, 0), BuildingBlock: KIFKEQ_clean_linker_1, # of connection points: 2
#     Edge 81, Type (0, 0), BuildingBlock: KIFKEQ_clean_linker_1, # of connection points: 2
#     Edge 82, Type (0, 0), BuildingBlock: KIFKEQ_clean_linker_1, # of connection points: 2
#     Edge 83, Type (0, 0), BuildingBlock: KIFKEQ_clean_linker_1, # of connection points: 2
#     Edge 84, Type (0, 0), BuildingBlock: KIFKEQ_clean_linker_1, # of connection points: 2
#     Edge 85, Type (0, 0), BuildingBlock: KIFKEQ_clean_linker_1, # of connection points: 2
#     Edge 86, Type (0, 0), BuildingBlock: KIFKEQ_clean_linker_1, # of connection points: 2
#     Edge 87, Type (0, 0), BuildingBlock: KIFKEQ_clean_linker_1, # of connection points: 2
#     Edge 88, Type (0, 0), BuildingBlock: KIFKEQ_clean_linker_1, # of connection points: 2
#     Edge 89, Type (0, 0), BuildingBlock: KIFKEQ_clean_linker_1, # of connection points: 2
#     Edge 90, Type (0, 0), BuildingBlock: KIFKEQ_clean_linker_1, # of connection points: 2
#     Edge 91, Type (0, 0), BuildingBlock: KIFKEQ_clean_linker_1, # of connection points: 2
#     Edge 92, Type (0, 0), BuildingBlock: KIFKEQ_clean_linker_1, # of connection points: 2
#     Edge 93, Type (0, 0), BuildingBlock: KIFKEQ_clean_linker_1, # of connection points: 2
#     Edge 94, Type (0, 0), BuildingBlock: KIFKEQ_clean_linker_1, # of connection points: 2
#     Edge 95, Type (0, 0), BuildingBlock: KIFKEQ_clean_linker_1, # of connection points: 2
#     Edge 96, Type (0, 0), BuildingBlock: KIFKEQ_clean_linker_1, # of connection points: 2
#     Edge 97, Type (0, 0), BuildingBlock: KIFKEQ_clean_linker_1, # of connection points: 2
#     Edge 98, Type (0, 0), BuildingBlock: KIFKEQ_clean_linker_1, # of connection points: 2
#     Edge 99, Type (0, 0), BuildingBlock: KIFKEQ_clean_linker_1, # of connection points: 2
#     Edge 100, Type (0, 0), BuildingBlock: KIFKEQ_clean_linker_1, # of connection points: 2
#     Edge 101, Type (0, 0), BuildingBlock: KIFKEQ_clean_linker_1, # of connection points: 2
#     Edge 102, Type (0, 0), BuildingBlock: KIFKEQ_clean_linker_1, # of connection points: 2
#     Edge 103, Type (0, 0), BuildingBlock: KIFKEQ_clean_linker_1, # of connection points: 2
#     Edge 104, Type (0, 0), BuildingBlock: KIFKEQ_clean_linker_1, # of connection points: 2
#     Edge 105, Type (0, 0), BuildingBlock: KIFKEQ_clean_linker_1, # of connection points: 2
#     Edge 106, Type (0, 0), BuildingBlock: KIFKEQ_clean_linker_1, # of connection points: 2
#     Edge 107, Type (0, 0), BuildingBlock: KIFKEQ_clean_linker_1, # of connection points: 2
#     Edge 108, Type (0, 0), BuildingBlock: KIFKEQ_clean_linker_1, # of connection points: 2
#     Edge 109, Type (0, 0), BuildingBlock: KIFKEQ_clean_linker_1, # of connection points: 2
#     Edge 110, Type (0, 0), BuildingBlock: KIFKEQ_clean_linker_1, # of connection points: 2
#     Edge 111, Type (0, 0), BuildingBlock: KIFKEQ_clean_linker_1, # of connection points: 2
#     Edge 112, Type (0, 0), BuildingBlock: KIFKEQ_clean_linker_1, # of connection points: 2
#     Edge 113, Type (0, 0), BuildingBlock: KIFKEQ_clean_linker_1, # of connection points: 2
#     Edge 114, Type (0, 0), BuildingBlock: KIFKEQ_clean_linker_1, # of connection points: 2
#     Edge 115, Type (0, 0), BuildingBlock: KIFKEQ_clean_linker_1, # of connection points: 2
#     Edge 116, Type (0, 0), BuildingBlock: KIFKEQ_clean_linker_1, # of connection points: 2
#     Edge 117, Type (0, 0), BuildingBlock: KIFKEQ_clean_linker_1, # of connection points: 2
#     Edge 118, Type (0, 0), BuildingBlock: KIFKEQ_clean_linker_1, # of connection points: 2
#     Edge 119, Type (0, 0), BuildingBlock: KIFKEQ_clean_linker_1, # of connection points: 2
#     Edge 120, Type (0, 0), BuildingBlock: KIFKEQ_clean_linker_1, # of connection points: 2
#     Edge 121, Type (0, 0), BuildingBlock: KIFKEQ_clean_linker_1, # of connection points: 2
#     Edge 122, Type (0, 0), BuildingBlock: KIFKEQ_clean_linker_1, # of connection points: 2
#     Edge 123, Type (0, 0), BuildingBlock: KIFKEQ_clean_linker_1, # of connection points: 2
#     Edge 124, Type (0, 0), BuildingBlock: KIFKEQ_clean_linker_1, # of connection points: 2
#     Edge 125, Type (0, 0), BuildingBlock: KIFKEQ_clean_linker_1, # of connection points: 2
#     Edge 126, Type (0, 0), BuildingBlock: KIFKEQ_clean_linker_1, # of connection points: 2
#     Edge 127, Type (0, 0), BuildingBlock: KIFKEQ_clean_linker_1, # of connection points: 2
#     Edge 128, Type (0, 0), BuildingBlock: KIFKEQ_clean_linker_1, # of connection points: 2
#     Edge 129, Type (0, 0), BuildingBlock: KIFKEQ_clean_linker_1, # of connection points: 2
#     Edge 130, Type (0, 0), BuildingBlock: KIFKEQ_clean_linker_1, # of connection points: 2
#     Edge 131, Type (0, 0), BuildingBlock: KIFKEQ_clean_linker_1, # of connection points: 2
#     Edge 132, Type (0, 0), BuildingBlock: KIFKEQ_clean_linker_1, # of connection points: 2
#     Edge 133, Type (0, 0), BuildingBlock: KIFKEQ_clean_linker_1, # of connection points: 2
#     Edge 134, Type (0, 0), BuildingBlock: KIFKEQ_clean_linker_1, # of connection points: 2
#     Edge 135, Type (0, 0), BuildingBlock: KIFKEQ_clean_linker_1, # of connection points: 2
#     Edge 136, Type (0, 0), BuildingBlock: KIFKEQ_clean_linker_1, # of connection points: 2
#     Edge 137, Type (0, 0), BuildingBlock: KIFKEQ_clean_linker_1, # of connection points: 2
#     Edge 138, Type (0, 0), BuildingBlock: KIFKEQ_clean_linker_1, # of connection points: 2
#     Edge 139, Type (0, 0), BuildingBlock: KIFKEQ_clean_linker_1, # of connection points: 2
#     Edge 140, Type (0, 0), BuildingBlock: KIFKEQ_clean_linker_1, # of connection points: 2
#     Edge 141, Type (0, 0), BuildingBlock: KIFKEQ_clean_linker_1, # of connection points: 2
#     Edge 142, Type (0, 0), BuildingBlock: KIFKEQ_clean_linker_1, # of connection points: 2
#     Edge 143, Type (0, 0), BuildingBlock: KIFKEQ_clean_linker_1, # of connection points: 2
# Relax obj value: 0.377
# Max RMSD: 0.181
# Mean RMSD: 0.181
data_MOF--net-ukr--node1-QUQFOY_clean_sbu_1--edge1-KIFKEQ_clean_linker_1
_symmetry_space_group_name_H-M    P1
_symmetry_Int_Tables_number       1
_symmetry_cell_setting            triclinic
loop_
_symmetry_equiv_pos_as_xyz
'x, y, z'
_cell_length_a     74.725928
_cell_length_b     74.695125
_cell_length_c     74.731313
_cell_angle_alpha  89.990508
_cell_angle_beta   89.989804
_cell_angle_gamma 89.998859
loop_
_atom_site_label
_atom_site_type_symbol
_atom_site_fract_x
_atom_site_fract_y
_atom_site_fract_z
_atom_type_partial_charge
O0 O 0.10445 0.23664 0.19916 0.0
Cd1 Cd 0.09997 0.25599 0.17996 0.0
Cd2 Cd 0.12197 0.27544 0.20118 0.0
O3 O 0.11979 0.25351 0.21787 0.0
O4 O 0.07769 0.24847 0.16766 0.0
O5 O 0.07993 0.27376 0.18293 0.0
C6 C 0.07024 0.26285 0.17364 0.0
C7 C 0.12528 0.30327 0.21509 0.0
C8 C 0.11267 0.23857 0.21392 0.0
C9 C 0.13484 0.26492 0.16387 0.0
O10 O 0.13803 0.27204 0.17897 0.0
O11 O 0.11953 0.25829 0.16064 0.0
O12 O 0.13791 0.29163 0.21492 0.0
O13 O 0.11028 0.2992 0.20758 0.0
O14 O 0.25841 0.6026 0.69891 0.0
Cd15 Cd 0.24044 0.59636 0.67889 0.0
Cd16 Cd 0.21938 0.62092 0.69622 0.0
O17 O 0.24116 0.62182 0.71319 0.0
O18 O 0.24876 0.57315 0.66897 0.0
O19 O 0.22245 0.57651 0.68214 0.0
C20 C 0.23392 0.56617 0.67434 0.0
C21 C 0.19184 0.62547 0.71047 0.0
C22 C 0.25592 0.61351 0.71173 0.0
C23 C 0.23134 0.62898 0.65808 0.0
O24 O 0.22245 0.63355 0.67184 0.0
O25 O 0.23944 0.61403 0.65772 0.0
O26 O 0.20283 0.63836 0.70757 0.0
O27 O 0.19627 0.60964 0.70519 0.0
O28 O 0.90158 0.76723 0.19138 0.0
Cd29 Cd 0.90464 0.74485 0.17551 0.0
Cd30 Cd 0.88239 0.72886 0.1999 0.0
O31 O 0.88861 0.75228 0.21323 0.0
O32 O 0.92714 0.74779 0.16177 0.0
O33 O 0.92329 0.72678 0.18241 0.0
C34 C 0.93357 0.73458 0.17087 0.0
C35 C 0.87516 0.7053 0.21945 0.0
C36 C 0.89521 0.76672 0.20713 0.0
C37 C 0.86893 0.73509 0.16181 0.0
O38 O 0.86559 0.7307 0.17791 0.0
O39 O 0.88455 0.74007 0.15737 0.0
O40 O 0.86531 0.71928 0.21784 0.0
O41 O 0.88937 0.70432 0.20971 0.0
O42 O 0.7375 0.40089 0.69733 0.0
Cd43 Cd 0.75995 0.40332 0.68142 0.0
Cd44 Cd 0.77544 0.38408 0.70665 0.0
O45 O 0.75267 0.39109 0.72056 0.0
O46 O 0.75699 0.42501 0.66642 0.0
O47 O 0.77765 0.42253 0.6876 0.0
C48 C 0.76989 0.43211 0.67545 0.0
C49 C 0.80184 0.38195 0.7233 0.0
C50 C 0.73803 0.39631 0.7137 0.0
C51 C 0.76897 0.36656 0.67076 0.0
O52 O 0.7725 0.36448 0.68727 0.0
O53 O 0.76521 0.38202 0.66477 0.0
O54 O 0.78857 0.37133 0.7259 0.0
O55 O 0.80025 0.39418 0.71121 0.0
O56 O 0.10354 0.75943 0.80266 0.0
Cd57 Cd 0.0987 0.74248 0.82382 0.0
Cd58 Cd 0.12454 0.72206 0.80977 0.0
O59 O 0.12694 0.74419 0.79314 0.0
O60 O 0.07511 0.74884 0.83407 0.0
O61 O 0.08063 0.72271 0.82107 0.0
C62 C 0.06957 0.73326 0.82915 0.0
C63 C 0.12794 0.69441 0.79554 0.0
C64 C 0.1167 0.75775 0.79202 0.0
C65 C 0.13023 0.73518 0.84721 0.0
O66 O 0.13517 0.72427 0.83516 0.0
O67 O 0.11613 0.7444 0.8451 0.0
O68 O 0.1414 0.70451 0.79912 0.0
O69 O 0.11222 0.69986 0.80015 0.0
O70 O 0.73747 0.5992 0.30225 0.0
Cd71 Cd 0.75502 0.59377 0.32289 0.0
Cd72 Cd 0.77618 0.61899 0.30602 0.0
O73 O 0.75466 0.61903 0.2887 0.0
O74 O 0.74763 0.57047 0.33333 0.0
O75 O 0.77349 0.57447 0.31936 0.0
C76 C 0.76252 0.56391 0.32759 0.0
C77 C 0.80383 0.6257 0.29291 0.0
C78 C 0.74011 0.61025 0.28959 0.0
C79 C 0.76312 0.6267 0.34386 0.0
O80 O 0.77227 0.6314 0.33033 0.0
O81 O 0.75516 0.61168 0.34399 0.0
O82 O 0.79161 0.63758 0.29499 0.0
O83 O 0.80053 0.60957 0.29805 0.0
O84 O 0.90322 0.23765 0.80176 0.0
Cd85 Cd 0.90577 0.25853 0.8196 0.0
Cd86 Cd 0.88423 0.2757 0.79675 0.0
O87 O 0.89014 0.25382 0.78094 0.0
O88 O 0.9278 0.2534 0.83336 0.0
O89 O 0.92488 0.27704 0.81569 0.0
C90 C 0.93472 0.26756 0.8263 0.0
C91 C 0.88102 0.30285 0.78155 0.0
C92 C 0.89693 0.23911 0.78605 0.0
C93 C 0.86971 0.26654 0.83354 0.0
O94 O 0.86642 0.27185 0.81771 0.0
O95 O 0.88541 0.26164 0.8378 0.0
O96 O 0.86999 0.28984 0.77937 0.0
O97 O 0.89419 0.30065 0.7925 0.0
O98 O 0.26151 0.40129 0.30243 0.0
Cd99 Cd 0.24339 0.40541 0.32284 0.0
Cd100 Cd 0.2238 0.38034 0.30472 0.0
O101 O 0.24584 0.3809 0.28796 0.0
O102 O 0.25076 0.42831 0.33392 0.0
O103 O 0.22459 0.42458 0.32054 0.0
C104 C 0.23565 0.43494 0.3289 0.0
C105 C 0.1962 0.37536 0.29085 0.0
C106 C 0.25987 0.39042 0.28946 0.0
C107 C 0.23533 0.37199 0.34284 0.0
O108 O 0.22676 0.36742 0.3289 0.0
O109 O 0.24318 0.38705 0.34347 0.0
O110 O 0.20777 0.3628 0.29288 0.0
O111 O 0.20024 0.39118 0.29648 0.0
O112 O 0.20351 0.09674 0.23652 0.0
Cd113 Cd 0.18553 0.09555 0.25748 0.0
Cd114 Cd 0.2094 0.11774 0.27366 0.0
O115 O 0.22426 0.11162 0.25123 0.0
O116 O 0.17078 0.074 0.25262 0.0
O117 O 0.18838 0.0765 0.27632 0.0
C118 C 0.17743 0.06696 0.26691 0.0
C119 C 0.22515 0.12186 0.30042 0.0
C120 C 0.21899 0.10374 0.23711 0.0
C121 C 0.17269 0.13252 0.26478 0.0
O122 O 0.18858 0.13554 0.27004 0.0
O123 O 0.16808 0.11684 0.26004 0.0
O124 O 0.2272 0.13235 0.28696 0.0
O125 O 0.21422 0.10858 0.29881 0.0
O126 O 0.39975 0.69426 0.7353 0.0
Cd127 Cd 0.40001 0.67973 0.75879 0.0
Cd128 Cd 0.3813 0.70679 0.77118 0.0
O129 O 0.39094 0.7191 0.74841 0.0
O130 O 0.42092 0.6634 0.758 0.0
O131 O 0.41858 0.68603 0.7771 0.0
C132 C 0.42783 0.67289 0.77066 0.0
C133 C 0.37862 0.72397 0.7972 0.0
C134 C 0.39643 0.71093 0.73455 0.0
C135 C 0.36223 0.6716 0.76557 0.0
O136 O 0.36082 0.68845 0.76758 0.0
O137 O 0.37759 0.66455 0.76372 0.0
O138 O 0.36915 0.72718 0.78319 0.0
O139 O 0.39013 0.7111 0.79647 0.0
O140 O 0.80091 0.90349 0.23156 0.0
Cd141 Cd 0.81913 0.90705 0.25194 0.0
Cd142 Cd 0.79716 0.88261 0.2694 0.0
O143 O 0.78132 0.88825 0.24746 0.0
O144 O 0.83176 0.92958 0.24569 0.0
O145 O 0.81554 0.92652 0.27027 0.0
C146 C 0.82523 0.93657 0.26005 0.0
C147 C 0.78113 0.87493 0.29531 0.0
C148 C 0.78581 0.89583 0.23293 0.0
C149 C 0.83523 0.87152 0.25913 0.0
O150 O 0.81981 0.8672 0.26497 0.0
O151 O 0.83839 0.88749 0.25419 0.0
O152 O 0.78092 0.8651 0.28123 0.0
O153 O 0.79058 0.88938 0.29497 0.0
O154 O 0.59712 0.30634 0.73218 0.0
Cd155 Cd 0.59477 0.32334 0.75372 0.0
Cd156 Cd 0.617 0.29952 0.76966 0.0
O157 O 0.61003 0.28466 0.74738 0.0
O158 O 0.57286 0.33738 0.74882 0.0
O159 O 0.57554 0.3192 0.77208 0.0
C160 C 0.56581 0.33006 0.76276 0.0
C161 C 0.6221 0.28294 0.79576 0.0
C162 C 0.60313 0.29048 0.73297 0.0
C163 C 0.63094 0.33696 0.76141 0.0
O164 O 0.63439 0.32092 0.76601 0.0
O165 O 0.61513 0.34141 0.75711 0.0
O166 O 0.63233 0.28161 0.782 0.0
O167 O 0.60868 0.29377 0.79491 0.0
O168 O 0.19522 0.90109 0.76432 0.0
Cd169 Cd 0.17813 0.90304 0.74284 0.0
Cd170 Cd 0.20263 0.88215 0.72567 0.0
O171 O 0.21684 0.88894 0.74843 0.0
O172 O 0.16357 0.92496 0.74627 0.0
O173 O 0.18324 0.92177 0.72426 0.0
C174 C 0.17177 0.93168 0.73263 0.0
C175 C 0.22122 0.87584 0.70117 0.0
C176 C 0.21115 0.89532 0.76312 0.0
C177 C 0.166 0.86639 0.7344 0.0
O178 O 0.18189 0.86398 0.72879 0.0
O179 O 0.161 0.88177 0.73964 0.0
O180 O 0.22123 0.86626 0.71541 0.0
O181 O 0.21042 0.88928 0.70043 0.0
O182 O 0.59981 0.69588 0.26222 0.0
Cd183 Cd 0.59725 0.67798 0.24146 0.0
Cd184 Cd 0.61938 0.7006 0.2235 0.0
O185 O 0.61434 0.71578 0.24606 0.0
O186 O 0.57527 0.66388 0.24618 0.0
O187 O 0.57812 0.68226 0.22306 0.0
C188 C 0.56833 0.67132 0.23223 0.0
C189 C 0.62353 0.71753 0.19745 0.0
C190 C 0.60709 0.71116 0.26072 0.0
C191 C 0.63334 0.66364 0.23296 0.0
O192 O 0.63662 0.67904 0.22647 0.0
O193 O 0.61785 0.65994 0.2389 0.0
O194 O 0.63456 0.7182 0.21061 0.0
O195 O 0.60992 0.70698 0.19877 0.0
O196 O 0.8081 0.10223 0.76437 0.0
Cd197 Cd 0.82584 0.09836 0.74355 0.0
Cd198 Cd 0.80377 0.11968 0.72517 0.0
O199 O 0.78837 0.11676 0.74797 0.0
O200 O 0.83919 0.07595 0.74823 0.0
O201 O 0.8205 0.0793 0.7254 0.0
C202 C 0.8314 0.06927 0.73435 0.0
C203 C 0.78794 0.12162 0.69833 0.0
C204 C 0.79301 0.1099 0.76283 0.0
C205 C 0.8412 0.13327 0.7332 0.0
O206 O 0.82571 0.13648 0.72697 0.0
O207 O 0.84471 0.11802 0.73982 0.0
O208 O 0.78789 0.13438 0.70984 0.0
O209 O 0.79697 0.10734 0.7019 0.0
O210 O 0.39574 0.30324 0.2604 0.0
Cd211 Cd 0.40077 0.32229 0.24113 0.0
Cd212 Cd 0.37653 0.30338 0.22136 0.0
O213 O 0.37689 0.28745 0.24406 0.0
O214 O 0.42407 0.33374 0.24688 0.0
O215 O 0.4196 0.31741 0.22251 0.0
C216 C 0.4303 0.32679 0.23236 0.0
C217 C 0.37168 0.28816 0.19438 0.0
C218 C 0.38529 0.28993 0.25866 0.0
C219 C 0.36725 0.34157 0.23189 0.0
O220 O 0.36304 0.32742 0.22346 0.0
O221 O 0.38225 0.34267 0.2398 0.0
O222 O 0.35909 0.29069 0.20579 0.0
O223 O 0.38743 0.29411 0.19817 0.0
O224 O 0.23703 0.19289 0.09762 0.0
Cd225 Cd 0.2555 0.17322 0.09246 0.0
Cd226 Cd 0.27606 0.19186 0.11712 0.0
O227 O 0.25365 0.20831 0.11653 0.0
O228 O 0.24825 0.16266 0.06923 0.0
O229 O 0.27406 0.17666 0.07323 0.0
C230 C 0.26313 0.16843 0.06264 0.0
C231 C 0.30296 0.20678 0.12325 0.0
C232 C 0.2391 0.2062 0.10796 0.0
C233 C 0.26493 0.15328 0.12538 0.0
O234 O 0.27376 0.16719 0.12962 0.0
O235 O 0.25638 0.15265 0.11071 0.0
O236 O 0.29121 0.20382 0.13542 0.0
O237 O 0.29958 0.20138 0.10721 0.0
O238 O 0.23604 0.80495 0.90445 0.0
Cd239 Cd 0.2571 0.82281 0.90509 0.0
Cd240 Cd 0.27314 0.79984 0.88231 0.0
O241 O 0.25102 0.78476 0.88909 0.0
O242 O 0.25408 0.83758 0.92687 0.0
O243 O 0.27658 0.81856 0.92312 0.0
C244 C 0.26832 0.83005 0.93307 0.0
C245 C 0.29961 0.78381 0.8776 0.0
C246 C 0.23695 0.78953 0.89736 0.0
C247 C 0.26356 0.8366 0.86834 0.0
O248 O 0.26909 0.82089 0.8648 0.0
O249 O 0.25896 0.84065 0.88419 0.0
O250 O 0.28597 0.78207 0.86727 0.0
O251 O 0.29841 0.79473 0.89092 0.0
O252 O 0.69259 0.73237 0.40269 0.0
Cd253 Cd 0.67711 0.75521 0.40386 0.0
Cd254 Cd 0.70269 0.76867 0.38232 0.0
O255 O 0.71609 0.74624 0.39156 0.0
O256 O 0.66168 0.75299 0.42532 0.0
O257 O 0.68289 0.77358 0.42262 0.0
C258 C 0.67048 0.76618 0.43214 0.0
C259 C 0.71991 0.79423 0.37656 0.0
C260 C 0.70894 0.73224 0.39806 0.0
C261 C 0.66576 0.76193 0.36681 0.0
O262 O 0.6823 0.76472 0.36391 0.0
O263 O 0.66019 0.75942 0.38266 0.0
O264 O 0.72183 0.77976 0.36746 0.0
O265 O 0.70835 0.7943 0.38938 0.0
O266 O 0.76594 0.2006 0.90092 0.0
Cd267 Cd 0.74541 0.1824 0.90391 0.0
Cd268 Cd 0.72783 0.20519 0.88131 0.0
O269 O 0.74974 0.22096 0.88711 0.0
O270 O 0.75123 0.16889 0.92602 0.0
O271 O 0.72702 0.18576 0.92332 0.0
C272 C 0.73695 0.17551 0.93311 0.0
C273 C 0.70139 0.22113 0.87574 0.0
C274 C 0.76445 0.21608 0.89407 0.0
C275 C 0.73792 0.16802 0.86781 0.0
O276 O 0.73216 0.18368 0.86434 0.0
O277 O 0.74283 0.164 0.88358 0.0
O278 O 0.71507 0.2223 0.86541 0.0
O279 O 0.70245 0.21075 0.88949 0.0
O280 O 0.30336 0.26761 0.4037 0.0
Cd281 Cd 0.31967 0.24539 0.40488 0.0
Cd282 Cd 0.29355 0.23086 0.38583 0.0
O283 O 0.27946 0.25282 0.39501 0.0
O284 O 0.33511 0.24927 0.42608 0.0
O285 O 0.31546 0.22714 0.42418 0.0
C286 C 0.32718 0.23583 0.43348 0.0
C287 C 0.27799 0.20389 0.38241 0.0
C288 C 0.28672 0.26726 0.40029 0.0
C289 C 0.32893 0.23863 0.36746 0.0
O290 O 0.31227 0.23549 0.36588 0.0
O291 O 0.33566 0.24122 0.38285 0.0
O292 O 0.27433 0.21777 0.37292 0.0
O293 O 0.29036 0.20527 0.39438 0.0
O294 O 0.76508 0.80157 0.096 0.0
Cd295 Cd 0.74451 0.81963 0.0925 0.0
Cd296 Cd 0.72653 0.79738 0.11455 0.0
O297 O 0.7486 0.78145 0.1098 0.0
O298 O 0.75028 0.83263 0.07012 0.0
O299 O 0.72624 0.81555 0.07318 0.0
C300 C 0.7361 0.82566 0.06317 0.0
C301 C 0.69962 0.78188 0.11832 0.0
C302 C 0.76343 0.78617 0.103 0.0
C303 C 0.73575 0.83469 0.12798 0.0
O304 O 0.72999 0.81905 0.13152 0.0
O305 O 0.74128 0.83842 0.11235 0.0
O306 O 0.71252 0.78054 0.12959 0.0
O307 O 0.70174 0.79216 0.10462 0.0
O308 O 0.70198 0.2633 0.6023 0.0
Cd309 Cd 0.68186 0.24528 0.59658 0.0
Cd310 Cd 0.70005 0.22452 0.62143 0.0
O311 O 0.7174 0.24606 0.62063 0.0
O312 O 0.6714 0.25373 0.57371 0.0
O313 O 0.6845 0.22732 0.57664 0.0
C314 C 0.67643 0.23884 0.56657 0.0
C315 C 0.71323 0.19692 0.62846 0.0
C316 C 0.71542 0.26082 0.61241 0.0
C317 C 0.66178 0.23672 0.62961 0.0
O318 O 0.67587 0.22841 0.63422 0.0
O319 O 0.66091 0.24432 0.61444 0.0
O320 O 0.71128 0.20938 0.64013 0.0
O321 O 0.70799 0.20006 0.61232 0.0
O322 O 0.3065 0.72842 0.5933 0.0
Cd323 Cd 0.32499 0.74864 0.59028 0.0
Cd324 Cd 0.30286 0.76646 0.61446 0.0
O325 O 0.28697 0.74453 0.60849 0.0
O326 O 0.33695 0.74441 0.56704 0.0
O327 O 0.32052 0.76846 0.57267 0.0
C328 C 0.33011 0.7593 0.56156 0.0
C329 C 0.28697 0.79126 0.62564 0.0
C330 C 0.29129 0.73003 0.60071 0.0
C331 C 0.34145 0.75612 0.6251 0.0
O332 O 0.32614 0.76241 0.62903 0.0
O333 O 0.34454 0.75027 0.60947 0.0
O334 O 0.28844 0.77651 0.63432 0.0
O335 O 0.29418 0.79203 0.60998 0.0
O336 O 0.90696 0.76916 0.80975 0.0
Cd337 Cd 0.90851 0.74687 0.82587 0.0
Cd338 Cd 0.88831 0.73163 0.79983 0.0
O339 O 0.89717 0.75418 0.78641 0.0
O340 O 0.93025 0.75026 0.84057 0.0
O341 O 0.92728 0.72832 0.82081 0.0
C342 C 0.9371 0.73671 0.83233 0.0
C343 C 0.88122 0.70773 0.78073 0.0
C344 C 0.90289 0.76863 0.79328 0.0
C345 C 0.87175 0.73878 0.83663 0.0
O346 O 0.86965 0.73504 0.82015 0.0
O347 O 0.88718 0.74258 0.84261 0.0
O348 O 0.87257 0.72256 0.78051 0.0
O349 O 0.89424 0.70613 0.79193 0.0
O350 O 0.73555 0.3944 0.29729 0.0
Cd351 Cd 0.75402 0.39988 0.31706 0.0
Cd352 Cd 0.77424 0.37582 0.29783 0.0
O353 O 0.7524 0.37658 0.28086 0.0
O354 O 0.74543 0.42249 0.32805 0.0
O355 O 0.77163 0.4202 0.31446 0.0
C356 C 0.76004 0.42999 0.32277 0.0
C357 C 0.80204 0.37083 0.28421 0.0
C358 C 0.73763 0.38458 0.28355 0.0
C359 C 0.76258 0.36608 0.33583 0.0
O360 O 0.77062 0.36193 0.32143 0.0
O361 O 0.75534 0.38137 0.33747 0.0
O362 O 0.7903 0.35838 0.28577 0.0
O363 O 0.79809 0.38655 0.29016 0.0
O364 O 0.09529 0.23049 0.8067 0.0
Cd365 Cd 0.09454 0.25357 0.8218 0.0
Cd366 Cd 0.11506 0.26687 0.79623 0.0
O367 O 0.1059 0.24434 0.78296 0.0
O368 O 0.0726 0.25311 0.83665 0.0
O369 O 0.07712 0.27268 0.81474 0.0
C370 C 0.06683 0.26633 0.82712 0.0
C371 C 0.11921 0.29291 0.77932 0.0
C372 C 0.09961 0.23032 0.79026 0.0
C373 C 0.1316 0.26034 0.83267 0.0
O374 O 0.13415 0.26316 0.81607 0.0
O375 O 0.11587 0.25773 0.83852 0.0
O376 O 0.1288 0.27884 0.77682 0.0
O377 O 0.1068 0.29226 0.79132 0.0
O378 O 0.26728 0.59733 0.31026 0.0
Cd379 Cd 0.24563 0.5957 0.3273 0.0
Cd380 Cd 0.22942 0.61785 0.30418 0.0
O381 O 0.25283 0.6133 0.29014 0.0
O382 O 0.248 0.57323 0.34114 0.0
O383 O 0.22634 0.57799 0.32138 0.0
C384 C 0.2341 0.56743 0.33269 0.0
C385 C 0.20363 0.62095 0.28682 0.0
C386 C 0.2669 0.60517 0.29518 0.0
C387 C 0.23666 0.63159 0.34163 0.0
O388 O 0.23098 0.63483 0.32593 0.0
O389 O 0.24258 0.61614 0.34553 0.0
O390 O 0.21605 0.63283 0.2868 0.0
O391 O 0.20563 0.60696 0.29672 0.0
O392 O 0.90341 0.23475 0.19136 0.0
Cd393 Cd 0.90739 0.25522 0.17327 0.0
Cd394 Cd 0.88438 0.27332 0.19513 0.0
O395 O 0.88864 0.25104 0.21108 0.0
O396 O 0.93036 0.25042 0.16086 0.0
O397 O 0.92618 0.27364 0.17887 0.0
C398 C 0.93672 0.26444 0.16868 0.0
C399 C 0.87849 0.30019 0.21012 0.0
C400 C 0.89591 0.23633 0.20654 0.0
C401 C 0.8726 0.26394 0.15702 0.0
O402 O 0.86884 0.26999 0.17246 0.0
O403 O 0.88821 0.2581 0.15373 0.0
O404 O 0.86699 0.28743 0.20946 0.0
O405 O 0.89382 0.29778 0.20257 0.0
O406 O 0.26187 0.40215 0.69867 0.0
Cd407 Cd 0.24072 0.40376 0.681 0.0
Cd408 Cd 0.2244 0.38149 0.70478 0.0
O409 O 0.24656 0.38831 0.71972 0.0
O410 O 0.24474 0.42567 0.66649 0.0
O411 O 0.22214 0.42271 0.68547 0.0
C412 C 0.23094 0.43254 0.67427 0.0
C413 C 0.19806 0.37592 0.72087 0.0
C414 C 0.26092 0.39566 0.71435 0.0
C415 C 0.23383 0.36684 0.6681 0.0
O416 O 0.22877 0.36376 0.68404 0.0
O417 O 0.238 0.38264 0.66334 0.0
O418 O 0.21205 0.3661 0.72265 0.0
O419 O 0.19884 0.3893 0.70998 0.0
O420 O 0.10138 0.76288 0.19997 0.0
Cd421 Cd 0.09649 0.74424 0.18021 0.0
Cd422 Cd 0.12235 0.72488 0.19911 0.0
O423 O 0.11997 0.74657 0.2161 0.0
O424 O 0.07352 0.75185 0.16932 0.0
O425 O 0.07695 0.72585 0.18309 0.0
C426 C 0.06667 0.73695 0.17469 0.0
C427 C 0.13166 0.6982 0.2129 0.0
C428 C 0.11129 0.761 0.21366 0.0
C429 C 0.13018 0.7371 0.16068 0.0
O430 O 0.13511 0.72936 0.17499 0.0
O431 O 0.11457 0.74368 0.15944 0.0
O432 O 0.14219 0.71161 0.2108 0.0
O433 O 0.11537 0.69982 0.20746 0.0
O434 O 0.73265 0.59749 0.6994 0.0
Cd435 Cd 0.75272 0.59404 0.68079 0.0
Cd436 Cd 0.77013 0.61928 0.70228 0.0
O437 O 0.74822 0.61395 0.71829 0.0
O438 O 0.74729 0.57098 0.66885 0.0
O439 O 0.77189 0.57553 0.68472 0.0
C440 C 0.76206 0.56483 0.67534 0.0
C441 C 0.79497 0.63094 0.71776 0.0
C442 C 0.7339 0.60574 0.71421 0.0
C443 C 0.75937 0.62893 0.66368 0.0
O444 O 0.76556 0.63336 0.67889 0.0
O445 O 0.7541 0.61302 0.66089 0.0
O446 O 0.78017 0.63949 0.71622 0.0
O447 O 0.7958 0.61515 0.71082 0.0
O448 O 0.80869 0.90241 0.76551 0.0
Cd449 Cd 0.82799 0.90669 0.74635 0.0
Cd450 Cd 0.80787 0.88032 0.72725 0.0
O451 O 0.79156 0.88474 0.7492 0.0
O452 O 0.83913 0.92978 0.75304 0.0
O453 O 0.82447 0.92574 0.72762 0.0
C454 C 0.83315 0.93629 0.73822 0.0
C455 C 0.79224 0.86726 0.70322 0.0
C456 C 0.79446 0.89334 0.76357 0.0
C457 C 0.84696 0.87287 0.7387 0.0
O458 O 0.8324 0.86804 0.73133 0.0
O459 O 0.84848 0.88843 0.74533 0.0
O460 O 0.79745 0.88368 0.70213 0.0
O461 O 0.79578 0.85872 0.71767 0.0
O462 O 0.59479 0.2982 0.26236 0.0
Cd463 Cd 0.5929 0.31513 0.24065 0.0
Cd464 Cd 0.61331 0.28946 0.22528 0.0
O465 O 0.60499 0.27502 0.24734 0.0
O466 O 0.57176 0.33033 0.24598 0.0
O467 O 0.57285 0.31169 0.22297 0.0
C468 C 0.56386 0.32301 0.23249 0.0
C469 C 0.61805 0.27348 0.19874 0.0
C470 C 0.59919 0.28179 0.26181 0.0
C471 C 0.63009 0.32572 0.23327 0.0
O472 O 0.63227 0.30922 0.22968 0.0
O473 O 0.61451 0.33177 0.23648 0.0
O474 O 0.62754 0.27075 0.21281 0.0
O475 O 0.60537 0.28516 0.19964 0.0
O476 O 0.2001 0.10062 0.75876 0.0
Cd477 Cd 0.17876 0.09504 0.74215 0.0
Cd478 Cd 0.19394 0.12138 0.72118 0.0
O479 O 0.21123 0.12276 0.74272 0.0
O480 O 0.16941 0.07171 0.75075 0.0
O481 O 0.18059 0.07551 0.7236 0.0
C482 C 0.17359 0.06499 0.73542 0.0
C483 C 0.2072 0.12715 0.69337 0.0
C484 C 0.21161 0.11296 0.75662 0.0
C485 C 0.15613 0.12715 0.73482 0.0
O486 O 0.1689 0.13229 0.72484 0.0
O487 O 0.15726 0.11243 0.74326 0.0
O488 O 0.20394 0.13968 0.70467 0.0
O489 O 0.20292 0.11099 0.69769 0.0
O490 O 0.39989 0.70084 0.26053 0.0
Cd491 Cd 0.40548 0.67856 0.24537 0.0
Cd492 Cd 0.37784 0.69097 0.22353 0.0
O493 O 0.37585 0.70822 0.24513 0.0
O494 O 0.42913 0.67008 0.25393 0.0
O495 O 0.42441 0.67917 0.22615 0.0
C496 C 0.43533 0.67313 0.23813 0.0
C497 C 0.36696 0.70411 0.1971 0.0
C498 C 0.3862 0.71067 0.2584 0.0
C499 C 0.37456 0.6539 0.2394 0.0
O500 O 0.36951 0.66492 0.22748 0.0
O501 O 0.38836 0.65714 0.24877 0.0
O502 O 0.35659 0.69891 0.20975 0.0
O503 O 0.38392 0.70172 0.19912 0.0
O504 O 0.80166 0.10477 0.24025 0.0
Cd505 Cd 0.82165 0.09989 0.2587 0.0
Cd506 Cd 0.80357 0.12457 0.27879 0.0
O507 O 0.78732 0.12487 0.25646 0.0
O508 O 0.83314 0.07697 0.25166 0.0
O509 O 0.81796 0.08034 0.27691 0.0
C510 C 0.82698 0.07013 0.26626 0.0
C511 C 0.789 0.129 0.30618 0.0
C512 C 0.78891 0.11588 0.24209 0.0
C513 C 0.84143 0.1335 0.26735 0.0
O514 O 0.82754 0.13784 0.27612 0.0
O515 O 0.84219 0.11843 0.2595 0.0
O516 O 0.79144 0.14181 0.29499 0.0
O517 O 0.79472 0.11327 0.30194 0.0
O518 O 0.40209 0.30415 0.73474 0.0
Cd519 Cd 0.405 0.32424 0.75331 0.0
Cd520 Cd 0.38111 0.3061 0.77306 0.0
O521 O 0.38211 0.28957 0.7508 0.0
O522 O 0.42809 0.33639 0.74877 0.0
O523 O 0.4225 0.32064 0.77335 0.0
C524 C 0.43347 0.33017 0.76395 0.0
C525 C 0.37807 0.29153 0.80051 0.0
C526 C 0.39142 0.29105 0.73663 0.0
C527 C 0.37109 0.34346 0.76148 0.0
O528 O 0.36701 0.3298 0.77074 0.0
O529 O 0.38585 0.34403 0.75309 0.0
O530 O 0.36522 0.29216 0.78911 0.0
O531 O 0.39302 0.29917 0.7965 0.0
O532 O 0.19197 0.90509 0.23539 0.0
Cd533 Cd 0.17646 0.90629 0.25821 0.0
Cd534 Cd 0.20248 0.88711 0.27245 0.0
O535 O 0.21587 0.896 0.24997 0.0
O536 O 0.16159 0.92826 0.25707 0.0
O537 O 0.18347 0.92429 0.27678 0.0
C538 C 0.17124 0.93449 0.26999 0.0
C539 C 0.21938 0.88356 0.29856 0.0
C540 C 0.20856 0.90138 0.2356 0.0
C541 C 0.1668 0.86904 0.26576 0.0
O542 O 0.18347 0.86727 0.26871 0.0
O543 O 0.16028 0.88449 0.26294 0.0
O544 O 0.22217 0.87397 0.28457 0.0
O545 O 0.20705 0.89563 0.29784 0.0
O546 O 0.59027 0.68837 0.73203 0.0
Cd547 Cd 0.58831 0.67217 0.75428 0.0
Cd548 Cd 0.60841 0.69753 0.77011 0.0
O549 O 0.60091 0.7112 0.74726 0.0
O550 O 0.56597 0.65818 0.7517 0.0
O551 O 0.57026 0.6782 0.77319 0.0
C552 C 0.55982 0.66684 0.76532 0.0
C553 C 0.61408 0.71632 0.79457 0.0
C554 C 0.59507 0.70466 0.7327 0.0
C555 C 0.62477 0.6607 0.76315 0.0
O556 O 0.62699 0.67706 0.76733 0.0
O557 O 0.60938 0.65507 0.75867 0.0
O558 O 0.62368 0.71664 0.78034 0.0
O559 O 0.60096 0.70513 0.79528 0.0
O560 O 0.76287 0.80279 0.89792 0.0
Cd561 Cd 0.74208 0.82069 0.90113 0.0
Cd562 Cd 0.7252 0.79824 0.87719 0.0
O563 O 0.74737 0.78273 0.88282 0.0
O564 O 0.74658 0.83378 0.92376 0.0
O565 O 0.72346 0.81558 0.91988 0.0
C566 C 0.73248 0.82617 0.93017 0.0
C567 C 0.69988 0.78246 0.86719 0.0
C568 C 0.76179 0.78755 0.89043 0.0
C569 C 0.73493 0.83646 0.86579 0.0
O570 O 0.72943 0.82087 0.86184 0.0
O571 O 0.73971 0.84002 0.88169 0.0
O572 O 0.71438 0.78343 0.85804 0.0
O573 O 0.6997 0.79003 0.8827 0.0
O574 O 0.7668 0.196 0.096 0.0
Cd575 Cd 0.74526 0.17894 0.09443 0.0
Cd576 Cd 0.72885 0.2032 0.1153 0.0
O577 O 0.75138 0.21786 0.10839 0.0
O578 O 0.74803 0.16442 0.07236 0.0
O579 O 0.72634 0.18434 0.07616 0.0
C580 C 0.73434 0.17282 0.06601 0.0
C581 C 0.70215 0.21917 0.11903 0.0
C582 C 0.76589 0.21198 0.10172 0.0
C583 C 0.73744 0.16678 0.13119 0.0
O584 O 0.73221 0.18278 0.13378 0.0
O585 O 0.7423 0.16175 0.1157 0.0
O586 O 0.71567 0.22154 0.12938 0.0
O587 O 0.7037 0.20784 0.10609 0.0
O588 O 0.30308 0.26353 0.60001 0.0
Cd589 Cd 0.32207 0.24405 0.59565 0.0
Cd590 Cd 0.30256 0.22441 0.6192 0.0
O591 O 0.28651 0.24702 0.61806 0.0
O592 O 0.33413 0.24923 0.57257 0.0
O593 O 0.31738 0.22513 0.57711 0.0
C594 C 0.32719 0.23464 0.56649 0.0
C595 C 0.28733 0.19735 0.62341 0.0
C596 C 0.28931 0.26167 0.60983 0.0
C597 C 0.3405 0.2348 0.62954 0.0
O598 O 0.32617 0.22655 0.63349 0.0
O599 O 0.342 0.24262 0.61454 0.0
O600 O 0.28926 0.20878 0.6361 0.0
O601 O 0.29392 0.20117 0.60792 0.0
O602 O 0.23011 0.81214 0.09609 0.0
Cd603 Cd 0.25097 0.82992 0.0935 0.0
Cd604 Cd 0.26814 0.80721 0.11808 0.0
O605 O 0.24554 0.79247 0.11176 0.0
O606 O 0.24694 0.84244 0.07053 0.0
O607 O 0.27047 0.82511 0.07562 0.0
C608 C 0.26148 0.83514 0.06475 0.0
C609 C 0.29108 0.78865 0.12922 0.0
C610 C 0.2313 0.79698 0.10364 0.0
C611 C 0.25899 0.84607 0.12858 0.0
O612 O 0.26511 0.8307 0.13262 0.0
O613 O 0.25311 0.84913 0.11295 0.0
O614 O 0.27666 0.79183 0.13797 0.0
O615 O 0.29288 0.79629 0.11384 0.0
O616 O 0.68805 0.7305 0.59697 0.0
Cd617 Cd 0.66984 0.75088 0.59354 0.0
Cd618 Cd 0.69142 0.76845 0.61926 0.0
O619 O 0.70672 0.74602 0.61375 0.0
O620 O 0.65809 0.74598 0.5703 0.0
O621 O 0.67453 0.77014 0.57532 0.0
C622 C 0.66508 0.76062 0.56438 0.0
C623 C 0.70865 0.79171 0.63179 0.0
C624 C 0.70277 0.73178 0.60534 0.0
C625 C 0.65228 0.75846 0.62808 0.0
O626 O 0.66736 0.7649 0.63263 0.0
O627 O 0.64988 0.75255 0.61233 0.0
O628 O 0.70518 0.77716 0.64021 0.0
O629 O 0.70232 0.79336 0.61582 0.0
O630 O 0.2377 0.19549 0.89781 0.0
Cd631 Cd 0.25879 0.17798 0.9004 0.0
Cd632 Cd 0.27669 0.20142 0.87849 0.0
O633 O 0.2536 0.21576 0.88349 0.0
O634 O 0.25424 0.16352 0.92221 0.0
O635 O 0.27691 0.18251 0.91975 0.0
C636 C 0.26794 0.17123 0.92934 0.0
C637 C 0.30151 0.21993 0.87329 0.0
C638 C 0.23897 0.21083 0.8906 0.0
C639 C 0.26818 0.16425 0.86425 0.0
O640 O 0.27451 0.17978 0.8613 0.0
O641 O 0.26197 0.16027 0.87957 0.0
O642 O 0.2881 0.21936 0.86257 0.0
O643 O 0.30124 0.20964 0.88714 0.0
O644 O 0.30331 0.7388 0.4004 0.0
Cd645 Cd 0.3202 0.76052 0.4015 0.0
Cd646 Cd 0.29564 0.77636 0.38067 0.0
O647 O 0.28121 0.75393 0.38813 0.0
O648 O 0.33554 0.75729 0.42288 0.0
O649 O 0.31554 0.7791 0.42034 0.0
C650 C 0.32746 0.77088 0.42982 0.0
C651 C 0.2792 0.80276 0.37707 0.0
C652 C 0.28725 0.73955 0.39493 0.0
C653 C 0.33186 0.76796 0.36447 0.0
O654 O 0.31576 0.77284 0.36188 0.0
O655 O 0.33706 0.76357 0.38003 0.0
O656 O 0.29083 0.80152 0.38977 0.0
O657 O 0.27694 0.78916 0.36679 0.0
O658 O 0.68864 0.26382 0.39903 0.0
Cd659 Cd 0.67096 0.24319 0.40375 0.0
Cd660 Cd 0.6926 0.22473 0.38115 0.0
O661 O 0.7082 0.24746 0.38414 0.0
O662 O 0.65904 0.24822 0.4269 0.0
O663 O 0.67731 0.2252 0.42268 0.0
C664 C 0.66726 0.23445 0.43331 0.0
C665 C 0.70819 0.19799 0.3763 0.0
C666 C 0.70365 0.26228 0.39118 0.0
C667 C 0.65417 0.23302 0.36966 0.0
O668 O 0.66959 0.22692 0.36591 0.0
O669 O 0.65113 0.23956 0.38503 0.0
O670 O 0.70687 0.21009 0.36416 0.0
O671 O 0.70091 0.20101 0.39166 0.0
H672 H 0.95882 0.25588 0.14114 0.0
H673 H 0.9579 0.28264 0.19231 0.0
H674 H 0.99122 0.25886 0.14006 0.0
H675 H 0.9905 0.28483 0.19176 0.0
H676 H 0.05015 0.29224 0.18309 0.0
H677 H 0.01781 0.29612 0.17962 0.0
H678 H 0.01451 0.24396 0.15473 0.0
H679 H 0.04655 0.24048 0.15755 0.0
C680 C 0.96558 0.26253 0.15211 0.0
C681 C 0.95589 0.26884 0.1669 0.0
C682 C 0.98417 0.26413 0.15157 0.0
C683 C 0.99358 0.2717 0.16602 0.0
C684 C 0.98375 0.279 0.18035 0.0
C685 C 0.96505 0.27769 0.18072 0.0
C686 C 0.04249 0.28174 0.17666 0.0
C687 C 0.05092 0.26605 0.1706 0.0
C688 C 0.02394 0.28391 0.17477 0.0
C689 C 0.01348 0.27039 0.16685 0.0
C690 C 0.02208 0.25487 0.16053 0.0
C691 C 0.04053 0.25279 0.16229 0.0
H692 H 0.25668 0.54151 0.66033 0.0
H693 H 0.20395 0.54681 0.68346 0.0
H694 H 0.25278 0.50941 0.65849 0.0
H695 H 0.19973 0.5144 0.68105 0.0
H696 H 0.21221 0.45475 0.69654 0.0
H697 H 0.21041 0.48734 0.69476 0.0
H698 H 0.23772 0.48593 0.64377 0.0
H699 H 0.24019 0.45353 0.64602 0.0
C700 C 0.2441 0.53584 0.66479 0.0
C701 C 0.23066 0.54674 0.67211 0.0
C702 C 0.24178 0.51736 0.66357 0.0
C703 C 0.22587 0.50923 0.66951 0.0
C704 C 0.21222 0.52018 0.6765 0.0
C705 C 0.21459 0.53875 0.6778 0.0
C706 C 0.21751 0.46141 0.68481 0.0
C707 C 0.22658 0.45164 0.67155 0.0
C708 C 0.21644 0.48011 0.68374 0.0
C709 C 0.22424 0.48934 0.66928 0.0
C710 C 0.23203 0.47934 0.65536 0.0
C711 C 0.23334 0.46074 0.65656 0.0
H712 H 0.04717 0.70754 0.18525 0.0
H713 H 0.04257 0.75824 0.15779 0.0
H714 H 0.01487 0.70299 0.18207 0.0
H715 H 0.0106 0.75403 0.15511 0.0
H716 H 0.9552 0.74077 0.14231 0.0
H717 H 0.98758 0.73758 0.14097 0.0
H718 H 0.98754 0.71517 0.19431 0.0
H719 H 0.95497 0.71766 0.19526 0.0
C720 C 0.03931 0.71763 0.17844 0.0
C721 C 0.04742 0.73327 0.17183 0.0
C722 C 0.0208 0.71507 0.17669 0.0
C723 C 0.01009 0.7281 0.16828 0.0
C724 C 0.01839 0.7435 0.16133 0.0
C725 C 0.03678 0.74602 0.16302 0.0
C726 C 0.96209 0.73483 0.1536 0.0
C727 C 0.95262 0.7297 0.16899 0.0
C728 C 0.98066 0.73309 0.15289 0.0
C729 C 0.99024 0.72652 0.1677 0.0
C730 C 0.98062 0.72023 0.18263 0.0
C731 C 0.96195 0.72171 0.18322 0.0
H732 H 0.78531 0.45492 0.69949 0.0
H733 H 0.76417 0.4524 0.6458 0.0
H734 H 0.78668 0.48749 0.69744 0.0
H735 H 0.76634 0.48482 0.64334 0.0
H736 H 0.74297 0.53957 0.65749 0.0
H737 H 0.74873 0.50778 0.65566 0.0
H738 H 0.79802 0.51484 0.68513 0.0
H739 H 0.79183 0.54693 0.6875 0.0
C740 C 0.78149 0.46131 0.68705 0.0
C741 C 0.77435 0.45119 0.67292 0.0
C742 C 0.78233 0.47999 0.68583 0.0
C743 C 0.77627 0.48886 0.67034 0.0
C744 C 0.77061 0.4785 0.65566 0.0
C745 C 0.76948 0.45991 0.65701 0.0
C746 C 0.75515 0.53444 0.66344 0.0
C747 C 0.76688 0.54579 0.67275 0.0
C748 C 0.75857 0.51614 0.66224 0.0
C749 C 0.77389 0.50866 0.6702 0.0
C750 C 0.78599 0.52011 0.67901 0.0
C751 C 0.7825 0.5385 0.68029 0.0
H752 H 0.95562 0.70766 0.81936 0.0
H753 H 0.96177 0.75565 0.85101 0.0
H754 H 0.98785 0.70236 0.82124 0.0
H755 H 0.99367 0.75105 0.85208 0.0
H756 H 0.05003 0.73932 0.85895 0.0
H757 H 0.01791 0.73551 0.86268 0.0
H758 H 0.0145 0.71364 0.80915 0.0
H759 H 0.04694 0.71623 0.80618 0.0
C760 C 0.96382 0.71698 0.82683 0.0
C761 C 0.95615 0.7321 0.83499 0.0
C762 C 0.98232 0.71404 0.8278 0.0
C763 C 0.99352 0.72628 0.83677 0.0
C764 C 0.98561 0.74104 0.84539 0.0
C765 C 0.9672 0.74381 0.84465 0.0
C766 C 0.0424 0.73331 0.84819 0.0
C767 C 0.05081 0.72823 0.83223 0.0
C768 C 0.02396 0.73127 0.85022 0.0
C769 C 0.01341 0.72474 0.83603 0.0
C770 C 0.02209 0.71863 0.82043 0.0
C771 C 0.04068 0.72018 0.81864 0.0
H772 H 0.78309 0.54254 0.30612 0.0
H773 H 0.74993 0.5417 0.35339 0.0
H774 H 0.78461 0.50987 0.3066 0.0
H775 H 0.75221 0.50925 0.35456 0.0
H776 H 0.73593 0.45402 0.33546 0.0
H777 H 0.73916 0.48609 0.33826 0.0
H778 H 0.79387 0.48234 0.31974 0.0
H779 H 0.79028 0.44996 0.3162 0.0
C780 C 0.77654 0.53537 0.31689 0.0
C781 C 0.76617 0.54458 0.32956 0.0
C782 C 0.77746 0.51663 0.31723 0.0
C783 C 0.76823 0.50681 0.33042 0.0
C784 C 0.759 0.51627 0.34385 0.0
C785 C 0.7578 0.53489 0.34329 0.0
C786 C 0.74872 0.45996 0.3321 0.0
C787 C 0.76284 0.44942 0.32557 0.0
C788 C 0.75065 0.47843 0.33387 0.0
C789 C 0.76685 0.48692 0.32938 0.0
C790 C 0.78114 0.47632 0.32316 0.0
C791 C 0.77913 0.45775 0.32122 0.0
H792 H 0.04656 0.26478 0.85726 0.0
H793 H 0.04529 0.28196 0.80213 0.0
H794 H 0.01449 0.26995 0.8597 0.0
H795 H 0.01301 0.28624 0.80418 0.0
H796 H 0.95429 0.29559 0.81268 0.0
H797 H 0.98659 0.30025 0.81535 0.0
H798 H 0.99031 0.25321 0.84889 0.0
H799 H 0.95834 0.24904 0.84678 0.0
C800 C 0.03942 0.26988 0.84572 0.0
C801 C 0.04832 0.27273 0.82944 0.0
C802 C 0.02102 0.27273 0.84706 0.0
C803 C 0.01104 0.27808 0.83201 0.0
C804 C 0.02022 0.2822 0.81608 0.0
C805 C 0.03873 0.27968 0.81485 0.0
C806 C 0.96203 0.28648 0.82089 0.0
C807 C 0.95378 0.27188 0.82941 0.0
C808 C 0.98054 0.28908 0.82233 0.0
C809 C 0.99114 0.27709 0.83229 0.0
C810 C 0.98265 0.26295 0.84138 0.0
C811 C 0.96424 0.26043 0.84002 0.0
H812 H 0.25654 0.45903 0.34625 0.0
H813 H 0.20601 0.4542 0.31856 0.0
H814 H 0.25203 0.49091 0.34921 0.0
H815 H 0.20115 0.48645 0.32203 0.0
H816 H 0.21653 0.54632 0.30857 0.0
H817 H 0.21341 0.5138 0.3098 0.0
H818 H 0.2354 0.51384 0.36331 0.0
H819 H 0.23926 0.54615 0.36167 0.0
C820 C 0.24428 0.46474 0.34104 0.0
C821 C 0.23169 0.45408 0.33207 0.0
C822 C 0.24159 0.48309 0.3429 0.0
C823 C 0.22616 0.4913 0.33595 0.0
C824 C 0.21325 0.48056 0.32741 0.0
C825 C 0.21598 0.4621 0.3255 0.0
C826 C 0.22031 0.53938 0.32072 0.0
C827 C 0.22844 0.54865 0.33489 0.0
C828 C 0.21847 0.52074 0.32147 0.0
C829 C 0.22453 0.51115 0.33651 0.0
C830 C 0.2311 0.52074 0.35131 0.0
C831 C 0.23321 0.53926 0.35043 0.0
H832 H 0.19637 0.95571 0.28586 0.0
H833 H 0.14216 0.95606 0.26595 0.0
H834 H 0.1956 0.98819 0.28865 0.0
H835 H 0.14096 0.98843 0.26959 0.0
H836 H 0.1892 0.04751 0.29584 0.0
H837 H 0.18508 0.01547 0.30116 0.0
H838 H 0.15339 0.0118 0.25288 0.0
H839 H 0.15691 0.0436 0.24806 0.0
C840 C 0.18408 0.9627 0.28263 0.0
C841 C 0.16943 0.95342 0.27541 0.0
C842 C 0.18359 0.98135 0.2843 0.0
C843 C 0.16832 0.99105 0.27901 0.0
C844 C 0.15313 0.98149 0.27328 0.0
C845 C 0.15375 0.96292 0.27132 0.0
C846 C 0.1811 0.03986 0.28658 0.0
C847 C 0.17348 0.04809 0.27147 0.0
C848 C 0.17882 0.02148 0.28956 0.0
C849 C 0.16895 0.01094 0.27744 0.0
C850 C 0.1608 0.01942 0.26273 0.0
C851 C 0.16296 0.03773 0.25985 0.0
H852 H 0.54228 0.68264 0.79352 0.0
H853 H 0.53444 0.64651 0.74908 0.0
H854 H 0.51019 0.68174 0.79984 0.0
H855 H 0.50262 0.64618 0.75479 0.0
H856 H 0.44642 0.64164 0.76904 0.0
H857 H 0.47855 0.63764 0.77265 0.0
H858 H 0.48374 0.6935 0.787 0.0
H859 H 0.45145 0.69711 0.78437 0.0
C860 C 0.53374 0.67437 0.78522 0.0
C861 C 0.54089 0.66474 0.77073 0.0
C862 C 0.51533 0.67394 0.78876 0.0
C863 C 0.5037 0.66397 0.77779 0.0
C864 C 0.51107 0.65377 0.76378 0.0
C865 C 0.5294 0.65408 0.76037 0.0
C866 C 0.45441 0.65293 0.7734 0.0
C867 C 0.44651 0.66973 0.77621 0.0
C868 C 0.47285 0.6507 0.77533 0.0
C869 C 0.48388 0.66534 0.77967 0.0
C870 C 0.47574 0.68186 0.78373 0.0
C871 C 0.45721 0.68399 0.78216 0.0
H872 H 0.85461 0.04909 0.2557 0.0
H873 H 0.80467 0.04772 0.28464 0.0
H874 H 0.85673 0.01666 0.25759 0.0
H875 H 0.8061 0.01507 0.28562 0.0
H876 H 0.81587 0.95544 0.29025 0.0
H877 H 0.81878 0.98769 0.29519 0.0
H878 H 0.84275 0.99327 0.2428 0.0
H879 H 0.84061 0.96132 0.23834 0.0
C880 C 0.84412 0.0418 0.26257 0.0
C881 C 0.82939 0.05085 0.26986 0.0
C882 C 0.84523 0.02317 0.26353 0.0
C883 C 0.83137 0.0131 0.27136 0.0
C884 C 0.8171 0.0223 0.27957 0.0
C885 C 0.81621 0.04103 0.27896 0.0
C886 C 0.82199 0.9636 0.27994 0.0
C887 C 0.828 0.95582 0.2639 0.0
C888 C 0.82356 0.9821 0.28271 0.0
C889 C 0.83103 0.99321 0.26942 0.0
C890 C 0.83731 0.98524 0.25356 0.0
C891 C 0.83594 0.96682 0.2509 0.0
H892 H 0.54176 0.3486 0.7429 0.0
H893 H 0.54664 0.31829 0.7919 0.0
H894 H 0.50984 0.3507 0.74719 0.0
H895 H 0.51439 0.32113 0.79678 0.0
H896 H 0.45519 0.30694 0.78179 0.0
H897 H 0.48761 0.30922 0.78503 0.0
H898 H 0.48588 0.36264 0.76269 0.0
H899 H 0.45373 0.35969 0.75837 0.0
C900 C 0.53605 0.34272 0.75486 0.0
C901 C 0.54673 0.33316 0.76698 0.0
C902 C 0.51765 0.34407 0.75744 0.0
C903 C 0.5094 0.33613 0.77239 0.0
C904 C 0.52022 0.32721 0.78499 0.0
C905 C 0.53872 0.32567 0.78226 0.0
C906 C 0.46178 0.31926 0.77792 0.0
C907 C 0.45212 0.33302 0.76956 0.0
C908 C 0.48036 0.32064 0.77984 0.0
C909 C 0.4895 0.33598 0.77374 0.0
C910 C 0.47943 0.35038 0.76695 0.0
C911 C 0.46099 0.34879 0.76461 0.0
H912 H 0.18201 0.04575 0.70517 0.0
H913 H 0.15932 0.04042 0.75809 0.0
H914 H 0.17909 0.01338 0.70078 0.0
H915 H 0.15688 0.0084 0.75396 0.0
H916 H 0.14349 0.9529 0.74123 0.0
H917 H 0.14154 0.9853 0.7385 0.0
H918 H 0.19283 0.98613 0.71176 0.0
H919 H 0.19438 0.95354 0.71388 0.0
C920 C 0.17631 0.03771 0.7158 0.0
C921 C 0.17094 0.04565 0.73199 0.0
C922 C 0.17471 0.01917 0.71332 0.0
C923 C 0.16768 0.00825 0.72698 0.0
C924 C 0.162 0.01635 0.74298 0.0
C925 C 0.16356 0.03478 0.74543 0.0
C926 C 0.15417 0.95997 0.73444 0.0
C927 C 0.1692 0.95073 0.72798 0.0
C928 C 0.15312 0.97856 0.73297 0.0
C929 C 0.16722 0.98839 0.72529 0.0
C930 C 0.18169 0.97901 0.71771 0.0
C931 C 0.18262 0.96033 0.71896 0.0
H932 H 0.4537 0.67997 0.20695 0.0
H933 H 0.4605 0.65992 0.26076 0.0
H934 H 0.48593 0.67682 0.20181 0.0
H935 H 0.49238 0.65723 0.25586 0.0
H936 H 0.54747 0.64332 0.24241 0.0
H937 H 0.51504 0.64111 0.24043 0.0
H938 H 0.51341 0.69122 0.21154 0.0
H939 H 0.54602 0.69301 0.21293 0.0
C940 C 0.46203 0.67479 0.21762 0.0
C941 C 0.45455 0.67026 0.23428 0.0
C942 C 0.48049 0.67306 0.2147 0.0
C943 C 0.49177 0.6667 0.22838 0.0
C944 C 0.48412 0.66182 0.24487 0.0
C945 C 0.46579 0.66353 0.24775 0.0
C946 C 0.54021 0.65367 0.2353 0.0
C947 C 0.54923 0.66847 0.22805 0.0
C948 C 0.52161 0.65247 0.23426 0.0
C949 C 0.51156 0.6662 0.2262 0.0
C950 C 0.52071 0.68037 0.2178 0.0
C951 C 0.5394 0.68144 0.21864 0.0
H952 H 0.80823 0.04669 0.71732 0.0
H953 H 0.86074 0.04906 0.74125 0.0
H954 H 0.81069 0.01415 0.71513 0.0
H955 H 0.86369 0.01676 0.73823 0.0
H956 H 0.84942 0.96121 0.75903 0.0
H957 H 0.85081 0.99319 0.75448 0.0
H958 H 0.82396 0.9873 0.70357 0.0
H959 H 0.82198 0.95496 0.70853 0.0
C960 C 0.82051 0.04028 0.72161 0.0
C961 C 0.83416 0.05029 0.72975 0.0
C962 C 0.82197 0.02164 0.72029 0.0
C963 C 0.83725 0.01276 0.72685 0.0
C964 C 0.8515 0.02307 0.73356 0.0
C965 C 0.84988 0.04159 0.73519 0.0
C966 C 0.84396 0.96664 0.74676 0.0
C967 C 0.83549 0.95553 0.73419 0.0
C968 C 0.84491 0.98506 0.74404 0.0
C969 C 0.83757 0.99291 0.72859 0.0
C970 C 0.82958 0.98173 0.7157 0.0
C971 C 0.82854 0.9632 0.71849 0.0
H972 H 0.54341 0.31245 0.20378 0.0
H973 H 0.54073 0.34108 0.25391 0.0
H974 H 0.51106 0.31584 0.20019 0.0
H975 H 0.50866 0.34364 0.25092 0.0
H976 H 0.45206 0.35468 0.24063 0.0
H977 H 0.48435 0.35645 0.237 0.0
H978 H 0.48424 0.30435 0.2117 0.0
H979 H 0.45171 0.30328 0.21432 0.0
C980 C 0.53593 0.31956 0.21396 0.0
C981 C 0.54464 0.32647 0.22913 0.0
C982 C 0.51736 0.32138 0.212 0.0
C983 C 0.50708 0.32998 0.22527 0.0
C984 C 0.516 0.33728 0.24017 0.0
C985 C 0.5345 0.33568 0.24198 0.0
C986 C 0.45895 0.34377 0.234 0.0
C987 C 0.44945 0.32877 0.22791 0.0
C988 C 0.4775 0.34469 0.23204 0.0
C989 C 0.4871 0.33036 0.22443 0.0
C990 C 0.47741 0.31573 0.21751 0.0
C991 C 0.45874 0.31504 0.21908 0.0
H992 H 0.29317 0.17869 0.044 0.0
H993 H 0.24144 0.1537 0.03747 0.0
H994 H 0.29799 0.17697 0.01164 0.0
H995 H 0.24589 0.15256 0.00545 0.0
H996 H 0.25929 0.14219 0.94945 0.0
H997 H 0.26159 0.1391 0.98178 0.0
H998 H 0.28724 0.1909 0.98483 0.0
H999 H 0.28569 0.19351 0.9523 0.0
C1000 C 0.28289 0.17274 0.03569 0.0
C1001 C 0.26691 0.16636 0.0433 0.0
C1002 C 0.2856 0.17184 0.01714 0.0
C1003 C 0.27236 0.16459 0.00587 0.0
C1004 C 0.25658 0.15789 0.01365 0.0
C1005 C 0.25394 0.15868 0.03209 0.0
C1006 C 0.26575 0.15275 0.95702 0.0
C1007 C 0.27212 0.16818 0.94841 0.0
C1008 C 0.26696 0.15105 0.97557 0.0
C1009 C 0.27422 0.16494 0.98602 0.0
C1010 C 0.28164 0.1799 0.97726 0.0
C1011 C 0.2807 0.18144 0.9586 0.0
H1012 H 0.29109 0.82154 0.04763 0.0
H1013 H 0.2438 0.85368 0.03901 0.0
H1014 H 0.2978 0.82297 0.01561 0.0
H1015 H 0.24997 0.85451 0.00732 0.0
H1016 H 0.26448 0.86093 0.95173 0.0
H1017 H 0.26772 0.86497 0.98389 0.0
H1018 H 0.28632 0.81034 0.98874 0.0
H1019 H 0.28408 0.8068 0.95636 0.0
C1020 C 0.28224 0.82904 0.03895 0.0
C1021 C 0.26686 0.8374 0.04584 0.0
C1022 C 0.28602 0.82978 0.02059 0.0
C1023 C 0.27444 0.83884 0.0088 0.0
C1024 C 0.25944 0.84771 0.01592 0.0
C1025 C 0.25577 0.84709 0.03418 0.0
C1026 C 0.26971 0.84998 0.95966 0.0
C1027 C 0.27381 0.83349 0.95167 0.0
C1028 C 0.27144 0.85221 0.97811 0.0
C1029 C 0.27679 0.83783 0.98903 0.0
C1030 C 0.28222 0.82175 0.9808 0.0
C1031 C 0.28088 0.81967 0.96224 0.0
H1032 H 0.67896 0.78982 0.54677 0.0
H1033 H 0.64691 0.74235 0.53878 0.0
H1034 H 0.6779 0.79586 0.51459 0.0
H1035 H 0.64638 0.74792 0.50694 0.0
H1036 H 0.63971 0.76251 0.4511 0.0
H1037 H 0.63589 0.76569 0.48329 0.0
H1038 H 0.69073 0.7836 0.48792 0.0
H1039 H 0.69415 0.78128 0.45553 0.0
C1040 C 0.67156 0.78078 0.53819 0.0
C1041 C 0.66311 0.76556 0.54531 0.0
C1042 C 0.67104 0.78418 0.51974 0.0
C1043 C 0.66207 0.77239 0.5081 0.0
C1044 C 0.65313 0.75753 0.51543 0.0
C1045 C 0.65357 0.75421 0.53376 0.0
C1046 C 0.6508 0.76753 0.45898 0.0
C1047 C 0.66729 0.77141 0.4509 0.0
C1048 C 0.64867 0.76924 0.47744 0.0
C1049 C 0.66314 0.77445 0.48831 0.0
C1050 C 0.67926 0.77961 0.48002 0.0
C1051 C 0.68127 0.77822 0.46144 0.0
H1052 H 0.74036 0.14373 0.04499 0.0
H1053 H 0.71721 0.19666 0.04425 0.0
H1054 H 0.73696 0.14171 0.01266 0.0
H1055 H 0.71467 0.19513 0.01176 0.0
H1056 H 0.70773 0.18667 0.9525 0.0
H1057 H 0.70289 0.18339 0.98471 0.0
H1058 H 0.75285 0.15448 0.989 0.0
H1059 H 0.75722 0.15713 0.95706 0.0
C1060 C 0.73436 0.15486 0.03789 0.0
C1061 C 0.72924 0.17043 0.04708 0.0
C1062 C 0.73254 0.15379 0.01933 0.0
C1063 C 0.72595 0.16843 0.00946 0.0
C1064 C 0.71971 0.18354 0.01885 0.0
C1065 C 0.72122 0.18447 0.0375 0.0
C1066 C 0.71749 0.17937 0.96034 0.0
C1067 C 0.73289 0.17223 0.95223 0.0
C1068 C 0.71478 0.17758 0.97882 0.0
C1069 C 0.72747 0.16869 0.98956 0.0
C1070 C 0.74256 0.1611 0.98123 0.0
C1071 C 0.74518 0.16276 0.96284 0.0
H1072 H 0.35645 0.24079 0.54594 0.0
H1073 H 0.30356 0.21773 0.54439 0.0
H1074 H 0.35928 0.2368 0.51376 0.0
H1075 H 0.30572 0.21484 0.51195 0.0
H1076 H 0.31475 0.20726 0.45308 0.0
H1077 H 0.3173 0.20286 0.48539 0.0
H1078 H 0.34819 0.25171 0.48925 0.0
H1079 H 0.34643 0.25545 0.45723 0.0
C1080 C 0.34546 0.23477 0.53865 0.0
C1081 C 0.32972 0.22974 0.54755 0.0
C1082 C 0.34698 0.23261 0.52017 0.0
C1083 C 0.33257 0.22591 0.51005 0.0
C1084 C 0.31718 0.21993 0.51919 0.0
C1085 C 0.31586 0.22166 0.5378 0.0
C1086 C 0.32237 0.21682 0.46086 0.0
C1087 C 0.33034 0.23173 0.4526 0.0
C1088 C 0.32372 0.21439 0.47942 0.0
C1089 C 0.33288 0.22695 0.4901 0.0
C1090 C 0.34133 0.24149 0.4816 0.0
C1091 C 0.3402 0.24375 0.46313 0.0
H1092 H 0.75659 0.84305 0.03872 0.0
H1093 H 0.70674 0.81426 0.04415 0.0
H1094 H 0.75216 0.84497 0.00676 0.0
H1095 H 0.70183 0.81684 0.01188 0.0
H1096 H 0.71542 0.80265 0.95234 0.0
H1097 H 0.71326 0.80453 0.98488 0.0
H1098 H 0.73623 0.85766 0.98315 0.0
H1099 H 0.73929 0.85523 0.95083 0.0
C1100 C 0.74446 0.83743 0.03312 0.0
C1101 C 0.73207 0.82841 0.04399 0.0
C1102 C 0.74181 0.83867 0.01471 0.0
C1103 C 0.72658 0.83112 0.00663 0.0
C1104 C 0.71382 0.82262 0.0176 0.0
C1105 C 0.71657 0.82123 0.0361 0.0
C1106 C 0.71969 0.81483 0.95895 0.0
C1107 C 0.72779 0.82867 0.94916 0.0
C1108 C 0.71839 0.81597 0.97761 0.0
C1109 C 0.72492 0.83111 0.98675 0.0
C1110 C 0.7316 0.84555 0.97667 0.0
C1111 C 0.73324 0.84424 0.95812 0.0
H1112 H 0.66159 0.26168 0.54252 0.0
H1113 H 0.68442 0.20871 0.54696 0.0
H1114 H 0.65781 0.25751 0.51065 0.0
H1115 H 0.68009 0.20426 0.51478 0.0
H1116 H 0.69134 0.21615 0.45394 0.0
H1117 H 0.69206 0.21476 0.4866 0.0
H1118 H 0.64106 0.24199 0.48876 0.0
H1119 H 0.64079 0.24405 0.45627 0.0
C1120 C 0.66559 0.24901 0.53672 0.0
C1121 C 0.67334 0.23554 0.54729 0.0
C1122 C 0.66327 0.24654 0.5184 0.0
C1123 C 0.66848 0.23047 0.5101 0.0
C1124 C 0.67603 0.21684 0.52071 0.0
C1125 C 0.67844 0.21936 0.53914 0.0
C1126 C 0.68015 0.22153 0.46143 0.0
C1127 C 0.66615 0.23046 0.45262 0.0
C1128 C 0.68052 0.22069 0.48015 0.0
C1129 C 0.66679 0.22859 0.49035 0.0
C1130 C 0.65212 0.23624 0.48136 0.0
C1131 C 0.65189 0.23732 0.46274 0.0
H1132 H 0.30409 0.78622 0.45331 0.0
H1133 H 0.35782 0.76548 0.44903 0.0
H1134 H 0.30695 0.78702 0.48581 0.0
H1135 H 0.36114 0.76717 0.48139 0.0
H1136 H 0.31752 0.78973 0.54512 0.0
H1137 H 0.31953 0.79733 0.51333 0.0
H1138 H 0.34947 0.74869 0.5039 0.0
H1139 H 0.34802 0.74156 0.53539 0.0
C1140 C 0.31673 0.78244 0.45931 0.0
C1141 C 0.33062 0.7755 0.44874 0.0
C1142 C 0.31842 0.78294 0.47795 0.0
C1143 C 0.33415 0.77676 0.4863 0.0
C1144 C 0.34863 0.77149 0.47548 0.0
C1145 C 0.3468 0.77065 0.45692 0.0
C1146 C 0.32476 0.78086 0.53624 0.0
C1147 C 0.33253 0.765 0.54276 0.0
C1148 C 0.32584 0.78516 0.51802 0.0
C1149 C 0.33467 0.77366 0.50598 0.0
C1150 C 0.34289 0.75811 0.51272 0.0
C1151 C 0.3419 0.7539 0.53085 0.0
H1152 H 0.17402 0.348 0.29831 0.0
H1153 H 0.18075 0.39305 0.26285 0.0
H1154 H 0.15018 0.33641 0.27935 0.0
H1155 H 0.15705 0.38113 0.24337 0.0
H1156 H 0.15057 0.32739 0.20657 0.0
H1157 H 0.16184 0.35127 0.22575 0.0
H1158 H 0.11941 0.34084 0.26358 0.0
H1159 H 0.10785 0.31711 0.24395 0.0
C1160 C 0.16992 0.35571 0.28673 0.0
C1161 C 0.17916 0.37132 0.28193 0.0
C1162 C 0.1562 0.34916 0.27593 0.0
C1163 C 0.15179 0.35786 0.25987 0.0
C1164 C 0.16016 0.37423 0.25573 0.0
C1165 C 0.17365 0.38104 0.26684 0.0
C1166 C 0.1432 0.3308 0.21859 0.0
C1167 C 0.12839 0.32056 0.22385 0.0
C1168 C 0.14958 0.3445 0.22953 0.0
C1169 C 0.14152 0.34786 0.24618 0.0
C1170 C 0.12581 0.33854 0.25077 0.0
C1171 C 0.11917 0.32505 0.23957 0.0
H1172 H 0.10795 0.68137 0.76789 0.0
H1173 H 0.15489 0.6707 0.79975 0.0
H1174 H 0.11765 0.65866 0.74617 0.0
H1175 H 0.16426 0.64779 0.77851 0.0
H1176 H 0.17865 0.60672 0.73886 0.0
H1177 H 0.15699 0.61806 0.76085 0.0
H1178 H 0.14696 0.66392 0.72714 0.0
H1179 H 0.16888 0.6529 0.70562 0.0
C1180 C 0.1199 0.67363 0.77062 0.0
C1181 C 0.1308 0.6778 0.78534 0.0
C1182 C 0.12545 0.66069 0.75822 0.0
C1183 C 0.14169 0.6515 0.76068 0.0
C1184 C 0.15159 0.65449 0.77637 0.0
C1185 C 0.1463 0.66769 0.78847 0.0
C1186 C 0.17125 0.61883 0.73589 0.0
C1187 C 0.17541 0.62904 0.72069 0.0
C1188 C 0.15893 0.62533 0.74845 0.0
C1189 C 0.15035 0.64186 0.74568 0.0
C1190 C 0.15321 0.65105 0.72953 0.0
C1191 C 0.16581 0.6448 0.71726 0.0
H1192 H 0.82812 0.64785 0.30743 0.0
H1193 H 0.81707 0.61669 0.26018 0.0
H1194 H 0.85114 0.66444 0.29127 0.0
H1195 H 0.83974 0.63374 0.24364 0.0
H1196 H 0.88348 0.66933 0.21876 0.0
H1197 H 0.87137 0.64595 0.23863 0.0
H1198 H 0.84285 0.68652 0.26838 0.0
H1199 H 0.85471 0.70944 0.24883 0.0
C1200 C 0.83115 0.64413 0.29374 0.0
C1201 C 0.82097 0.63106 0.28499 0.0
C1202 C 0.8442 0.65369 0.28445 0.0
C1203 C 0.84697 0.65065 0.26609 0.0
C1204 C 0.83797 0.63633 0.25779 0.0
C1205 C 0.82501 0.62657 0.26722 0.0
C1206 C 0.87487 0.67315 0.22977 0.0
C1207 C 0.86992 0.69115 0.23221 0.0
C1208 C 0.86792 0.65982 0.24107 0.0
C1209 C 0.85628 0.6644 0.25516 0.0
C1210 C 0.85203 0.68252 0.2579 0.0
C1211 C 0.85869 0.69567 0.24655 0.0
H1212 H 0.87384 0.30727 0.7465 0.0
H1213 H 0.87966 0.3363 0.79603 0.0
H1214 H 0.86025 0.33347 0.73259 0.0
H1215 H 0.86543 0.36257 0.78224 0.0
H1216 H 0.83579 0.38181 0.70993 0.0
H1217 H 0.86188 0.3678 0.7242 0.0
H1218 H 0.83139 0.36074 0.77276 0.0
H1219 H 0.80536 0.37415 0.75839 0.0
C1220 C 0.87278 0.31953 0.75418 0.0
C1221 C 0.87771 0.31986 0.77228 0.0
C1222 C 0.8651 0.33456 0.74621 0.0
C1223 C 0.86177 0.35002 0.75636 0.0
C1224 C 0.86796 0.35082 0.77412 0.0
C1225 C 0.87611 0.33586 0.78198 0.0
C1226 C 0.83497 0.3779 0.72387 0.0
C1227 C 0.81863 0.37887 0.73308 0.0
C1228 C 0.84984 0.36988 0.732 0.0
C1229 C 0.84861 0.36318 0.74955 0.0
C1230 C 0.83279 0.36596 0.7593 0.0
C1231 C 0.81786 0.37353 0.75106 0.0
H1232 H 0.29332 0.17081 0.38087 0.0
H1233 H 0.24331 0.19869 0.37344 0.0
H1234 H 0.28086 0.14452 0.36557 0.0
H1235 H 0.23073 0.17239 0.35875 0.0
H1236 H 0.21077 0.12214 0.33396 0.0
H1237 H 0.22348 0.13736 0.36019 0.0
H1238 H 0.27239 0.14674 0.33092 0.0
H1239 H 0.25951 0.13217 0.3047 0.0
C1240 C 0.27944 0.171 0.37669 0.0
C1241 C 0.26927 0.18674 0.37818 0.0
C1242 C 0.27235 0.15602 0.36792 0.0
C1243 C 0.25486 0.15646 0.361 0.0
C1244 C 0.24417 0.1716 0.36413 0.0
C1245 C 0.25139 0.18669 0.37245 0.0
C1246 C 0.22446 0.12688 0.33343 0.0
C1247 C 0.23419 0.12611 0.31738 0.0
C1248 C 0.23169 0.1356 0.34838 0.0
C1249 C 0.2489 0.14318 0.34755 0.0
C1250 C 0.25919 0.14082 0.33201 0.0
C1251 C 0.25181 0.13258 0.31698 0.0
H1252 H 0.30262 0.74894 0.86877 0.0
H1253 H 0.33352 0.7972 0.87579 0.0
H1254 H 0.32817 0.73451 0.85445 0.0
H1255 H 0.35908 0.78291 0.86078 0.0
H1256 H 0.37063 0.75914 0.80041 0.0
H1257 H 0.35675 0.7737 0.82613 0.0
H1258 H 0.36269 0.72514 0.85686 0.0
H1259 H 0.37719 0.71069 0.83115 0.0
C1260 C 0.31512 0.75623 0.86775 0.0
C1261 C 0.31619 0.77412 0.87332 0.0
C1262 C 0.32976 0.74796 0.85965 0.0
C1263 C 0.34557 0.75761 0.85653 0.0
C1264 C 0.34705 0.77517 0.86316 0.0
C1265 C 0.33249 0.78331 0.87175 0.0
C1266 C 0.36963 0.75183 0.8129 0.0
C1267 C 0.37487 0.73381 0.81384 0.0
C1268 C 0.36178 0.76018 0.82764 0.0
C1269 C 0.35863 0.75051 0.84344 0.0
C1270 C 0.36508 0.73287 0.84483 0.0
C1271 C 0.37338 0.72465 0.83018 0.0
H1272 H 0.75481 0.79628 0.36716 0.0
H1273 H 0.70703 0.82817 0.37293 0.0
H1274 H 0.76959 0.82109 0.35174 0.0
H1275 H 0.72163 0.85284 0.35676 0.0
H1276 H 0.74731 0.86239 0.29622 0.0
H1277 H 0.73243 0.8473 0.32113 0.0
H1278 H 0.77809 0.85783 0.35485 0.0
H1279 H 0.79276 0.8737 0.32995 0.0
C1280 C 0.74769 0.80881 0.36557 0.0
C1281 C 0.72984 0.8104 0.37121 0.0
C1282 C 0.75615 0.82301 0.35683 0.0
C1283 C 0.74672 0.83883 0.35314 0.0
C1284 C 0.72918 0.8408 0.35963 0.0
C1285 C 0.72088 0.82675 0.36888 0.0
C1286 C 0.75389 0.86201 0.30913 0.0
C1287 C 0.77111 0.86918 0.31126 0.0
C1288 C 0.74536 0.85347 0.32338 0.0
C1289 C 0.75411 0.85151 0.33987 0.0
C1290 C 0.77104 0.85937 0.34228 0.0
C1291 C 0.77938 0.86842 0.32811 0.0
H1292 H 0.66735 0.2082 0.87322 0.0
H1293 H 0.69905 0.25604 0.86694 0.0
H1294 H 0.64219 0.22299 0.85797 0.0
H1295 H 0.67388 0.27098 0.85242 0.0
H1296 H 0.62394 0.29546 0.82999 0.0
H1297 H 0.63888 0.28052 0.85523 0.0
H1298 H 0.64548 0.23297 0.82311 0.0
H1299 H 0.63125 0.24806 0.79785 0.0
C1300 C 0.66863 0.2221 0.86927 0.0
C1301 C 0.68503 0.23104 0.87116 0.0
C1302 C 0.65431 0.23052 0.86055 0.0
C1303 C 0.65612 0.24812 0.85412 0.0
C1304 C 0.67205 0.2575 0.85747 0.0
C1305 C 0.68646 0.24895 0.86569 0.0
C1306 C 0.62804 0.28162 0.82861 0.0
C1307 C 0.62655 0.27286 0.81206 0.0
C1308 C 0.63659 0.27312 0.84298 0.0
C1309 C 0.64323 0.2556 0.84109 0.0
C1310 C 0.64026 0.24638 0.825 0.0
C1311 C 0.63222 0.25502 0.81053 0.0
H1312 H 0.27711 0.79404 0.66026 0.0
H1313 H 0.27656 0.82342 0.61041 0.0
H1314 H 0.26314 0.81903 0.6753 0.0
H1315 H 0.26214 0.84885 0.62583 0.0
H1316 H 0.21276 0.87116 0.6658 0.0
H1317 H 0.23047 0.85359 0.64428 0.0
H1318 H 0.27395 0.85127 0.68223 0.0
H1319 H 0.25621 0.86825 0.70368 0.0
C1320 C 0.27398 0.80585 0.65246 0.0
C1321 C 0.278 0.80674 0.63412 0.0
C1322 C 0.26608 0.82025 0.66115 0.0
C1323 C 0.26184 0.83596 0.65178 0.0
C1324 C 0.26542 0.83689 0.63334 0.0
C1325 C 0.27365 0.8224 0.62457 0.0
C1326 C 0.22638 0.86749 0.66915 0.0
C1327 C 0.23315 0.87081 0.68637 0.0
C1328 C 0.23649 0.85747 0.65688 0.0
C1329 C 0.25341 0.85085 0.66178 0.0
C1330 C 0.26083 0.85602 0.67824 0.0
C1331 C 0.25073 0.86575 0.69048 0.0
H1332 H 0.66653 0.79608 0.12354 0.0
H1333 H 0.69565 0.74627 0.12233 0.0
H1334 H 0.64144 0.78097 0.1385 0.0
H1335 H 0.67053 0.73107 0.13668 0.0
H1336 H 0.62252 0.70686 0.16249 0.0
H1337 H 0.63587 0.72294 0.13703 0.0
H1338 H 0.64608 0.76837 0.17124 0.0
H1339 H 0.63338 0.75218 0.19656 0.0
C1340 C 0.66716 0.78174 0.12569 0.0
C1341 C 0.68288 0.77224 0.12183 0.0
C1342 C 0.65288 0.77314 0.13427 0.0
C1343 C 0.65407 0.75487 0.13871 0.0
C1344 C 0.66914 0.74509 0.13319 0.0
C1345 C 0.68353 0.75377 0.12505 0.0
C1346 C 0.62708 0.72051 0.16432 0.0
C1347 C 0.62707 0.72833 0.18139 0.0
C1348 C 0.63471 0.72967 0.14982 0.0
C1349 C 0.64193 0.7469 0.15219 0.0
C1350 C 0.64039 0.75523 0.16896 0.0
C1351 C 0.63324 0.74593 0.18347 0.0
H1352 H 0.79791 0.13988 0.66885 0.0
H1353 H 0.75444 0.10969 0.69173 0.0
H1354 H 0.77756 0.15263 0.64668 0.0
H1355 H 0.73391 0.12241 0.66956 0.0
H1356 H 0.70862 0.18005 0.65992 0.0
H1357 H 0.72573 0.15508 0.67175 0.0
H1358 H 0.75406 0.15054 0.62156 0.0
H1359 H 0.73644 0.17565 0.60951 0.0
C1360 C 0.78416 0.1353 0.6685 0.0
C1361 C 0.77766 0.12377 0.68179 0.0
C1362 C 0.77249 0.14256 0.65581 0.0
C1363 C 0.75411 0.13864 0.65651 0.0
C1364 C 0.74801 0.12571 0.66877 0.0
C1365 C 0.75973 0.11834 0.68137 0.0
C1366 C 0.71816 0.17341 0.65124 0.0
C1367 C 0.72136 0.17981 0.63389 0.0
C1368 C 0.72786 0.15899 0.65795 0.0
C1369 C 0.74123 0.15082 0.64757 0.0
C1370 C 0.74379 0.15658 0.62981 0.0
C1371 C 0.73373 0.17087 0.62292 0.0
H1372 H 0.32427 0.20109 0.15178 0.0
H1373 H 0.31771 0.23525 0.1057 0.0
H1374 H 0.34688 0.22139 0.16375 0.0
H1375 H 0.34003 0.25606 0.11805 0.0
H1376 H 0.34443 0.2941 0.17155 0.0
H1377 H 0.33328 0.2737 0.14861 0.0
H1378 H 0.37801 0.23841 0.1582 0.0
H1379 H 0.38955 0.25933 0.18085 0.0
C1380 C 0.32812 0.2127 0.14397 0.0
C1381 C 0.31932 0.21669 0.12788 0.0
C1382 C 0.34112 0.22425 0.15075 0.0
C1383 C 0.34519 0.24026 0.1418 0.0
C1384 C 0.33719 0.24372 0.12511 0.0
C1385 C 0.32449 0.23184 0.11806 0.0
C1386 C 0.35224 0.28234 0.16822 0.0
C1387 C 0.36779 0.2782 0.17787 0.0
C1388 C 0.34593 0.27072 0.15504 0.0
C1389 C 0.3548 0.25451 0.15165 0.0
C1390 C 0.37102 0.25091 0.16051 0.0
C1391 C 0.37762 0.26284 0.1734 0.0
H1392 H 0.82811 0.61663 0.72624 0.0
H1393 H 0.79674 0.6652 0.72911 0.0
H1394 H 0.85361 0.63261 0.73987 0.0
H1395 H 0.82179 0.68078 0.74232 0.0
H1396 H 0.87057 0.71086 0.74653 0.0
H1397 H 0.85293 0.68933 0.7296 0.0
H1398 H 0.85974 0.65036 0.7717 0.0
H1399 H 0.87795 0.672 0.78861 0.0
C1400 C 0.82664 0.63062 0.72977 0.0
C1401 C 0.81043 0.63967 0.72652 0.0
C1402 C 0.84118 0.6397 0.73754 0.0
C1403 C 0.83971 0.65797 0.74182 0.0
C1404 C 0.82342 0.66679 0.73882 0.0
C1405 C 0.809 0.65778 0.73133 0.0
C1406 C 0.86885 0.69749 0.75188 0.0
C1407 C 0.87536 0.69311 0.76892 0.0
C1408 C 0.85875 0.68519 0.74222 0.0
C1409 C 0.85471 0.66836 0.74954 0.0
C1410 C 0.86272 0.66326 0.76578 0.0
C1411 C 0.8731 0.67561 0.77543 0.0
H1412 H 0.89373 0.31474 0.23988 0.0
H1413 H 0.8516 0.32238 0.20123 0.0
H1414 H 0.88012 0.33769 0.25915 0.0
H1415 H 0.83831 0.34554 0.22005 0.0
H1416 H 0.8177 0.38811 0.25609 0.0
H1417 H 0.84193 0.37618 0.23725 0.0
H1418 H 0.84873 0.33218 0.2741 0.0
H1419 H 0.82432 0.34375 0.29242 0.0
C1420 C 0.88203 0.32191 0.23519 0.0
C1421 C 0.87366 0.31695 0.21916 0.0
C1422 C 0.87424 0.33496 0.24619 0.0
C1423 C 0.85819 0.34339 0.24105 0.0
C1424 C 0.8508 0.33947 0.22423 0.0
C1425 C 0.85834 0.32618 0.21349 0.0
C1426 C 0.82486 0.37626 0.2604 0.0
C1427 C 0.81923 0.36676 0.27559 0.0
C1428 C 0.83864 0.36943 0.24965 0.0
C1429 C 0.8472 0.35329 0.25426 0.0
C1430 C 0.84256 0.34476 0.27035 0.0
C1431 C 0.82854 0.35131 0.28078 0.0
H1432 H 0.12932 0.2958 0.74468 0.0
H1433 H 0.11983 0.32703 0.79231 0.0
H1434 H 0.14333 0.32166 0.73042 0.0
H1435 H 0.13451 0.35287 0.7782 0.0
H1436 H 0.19496 0.36676 0.75566 0.0
H1437 H 0.16981 0.35128 0.76966 0.0
H1438 H 0.13938 0.35655 0.72087 0.0
H1439 H 0.16447 0.37274 0.70703 0.0
C1440 C 0.12978 0.30839 0.75187 0.0
C1441 C 0.12358 0.30948 0.76957 0.0
C1442 C 0.13769 0.3232 0.74369 0.0
C1443 C 0.13998 0.33922 0.75323 0.0
C1444 C 0.13278 0.34067 0.77056 0.0
C1445 C 0.12438 0.32595 0.77859 0.0
C1446 C 0.18262 0.36525 0.7482 0.0
C1447 C 0.18155 0.37091 0.73034 0.0
C1448 C 0.16821 0.35647 0.75621 0.0
C1449 C 0.15269 0.35275 0.74632 0.0
C1450 C 0.15118 0.35939 0.72878 0.0
C1451 C 0.16547 0.36867 0.72091 0.0
H1452 H 0.17198 0.63554 0.29674 0.0
H1453 H 0.2007 0.61419 0.25153 0.0
H1454 H 0.15041 0.64963 0.27648 0.0
H1455 H 0.17904 0.62792 0.23119 0.0
H1456 H 0.16528 0.68554 0.21057 0.0
H1457 H 0.17857 0.66094 0.22703 0.0
H1458 H 0.12732 0.64901 0.251 0.0
H1459 H 0.11381 0.67389 0.23408 0.0
C1460 C 0.17309 0.63314 0.28248 0.0
C1461 C 0.18782 0.62377 0.27558 0.0
C1462 C 0.16077 0.64118 0.27088 0.0
C1463 C 0.16319 0.64006 0.25224 0.0
C1464 C 0.17696 0.62914 0.24549 0.0
C1465 C 0.18927 0.62118 0.25708 0.0
C1466 C 0.15674 0.67747 0.21909 0.0
C1467 C 0.13857 0.68167 0.22118 0.0
C1468 C 0.16432 0.66324 0.2284 0.0
C1469 C 0.15397 0.65296 0.24026 0.0
C1470 C 0.13558 0.6567 0.24191 0.0
C1471 C 0.12787 0.67086 0.23223 0.0
H1472 H 0.79176 0.83186 0.69656 0.0
H1473 H 0.76994 0.88197 0.67771 0.0
H1474 H 0.77167 0.81556 0.67696 0.0
H1475 H 0.74931 0.86537 0.65801 0.0
H1476 H 0.72563 0.82084 0.61645 0.0
H1477 H 0.74705 0.84114 0.63123 0.0
H1478 H 0.73799 0.81378 0.6813 0.0
H1479 H 0.71708 0.79374 0.66684 0.0
C1480 C 0.78278 0.83941 0.68803 0.0
C1481 C 0.78216 0.85816 0.68888 0.0
C1482 C 0.77126 0.83006 0.67682 0.0
C1483 C 0.75867 0.8392 0.6663 0.0
C1484 C 0.75887 0.85803 0.66606 0.0
C1485 C 0.77062 0.86749 0.67731 0.0
C1486 C 0.72812 0.81937 0.63065 0.0
C1487 C 0.71992 0.8055 0.64042 0.0
C1488 C 0.74032 0.83097 0.63907 0.0
C1489 C 0.74443 0.82874 0.6573 0.0
C1490 C 0.73542 0.81552 0.66714 0.0
C1491 C 0.72338 0.80405 0.65882 0.0
H1492 H 0.62774 0.23886 0.19467 0.0
H1493 H 0.62039 0.28808 0.16538 0.0
H1494 H 0.64325 0.22581 0.16906 0.0
H1495 H 0.63656 0.27518 0.13982 0.0
H1496 H 0.69785 0.25365 0.12909 0.0
H1497 H 0.67145 0.26678 0.14315 0.0
H1498 H 0.64216 0.21784 0.13392 0.0
H1499 H 0.66857 0.20488 0.11919 0.0
C1500 C 0.62894 0.24665 0.1825 0.0
C1501 C 0.62294 0.26443 0.18194 0.0
C1502 C 0.63774 0.23917 0.16782 0.0
C1503 C 0.6411 0.24951 0.1525 0.0
C1504 C 0.63401 0.26692 0.15146 0.0
C1505 C 0.62475 0.27426 0.16602 0.0
C1506 C 0.68555 0.24598 0.12943 0.0
C1507 C 0.68517 0.2283 0.12312 0.0
C1508 C 0.67042 0.25351 0.13738 0.0
C1509 C 0.6548 0.2433 0.13961 0.0
C1510 C 0.65404 0.22599 0.13224 0.0
C1511 C 0.66908 0.21862 0.1238 0.0
H1512 H 0.25783 0.18486 0.60599 0.0
H1513 H 0.29399 0.17339 0.64946 0.0
H1514 H 0.23689 0.16225 0.61755 0.0
H1515 H 0.27352 0.15052 0.66065 0.0
H1516 H 0.23471 0.10899 0.67757 0.0
H1517 H 0.25494 0.12091 0.65453 0.0
H1518 H 0.22092 0.16726 0.64878 0.0
H1519 H 0.20118 0.15568 0.67204 0.0
C1520 C 0.26163 0.17691 0.61752 0.0
C1521 C 0.27741 0.18075 0.62691 0.0
C1522 C 0.24967 0.16405 0.62413 0.0
C1523 C 0.25363 0.15464 0.63996 0.0
C1524 C 0.27024 0.15738 0.6483 0.0
C1525 C 0.28191 0.17051 0.64197 0.0
C1526 C 0.23129 0.1214 0.67089 0.0
C1527 C 0.21653 0.13153 0.67659 0.0
C1528 C 0.24284 0.12821 0.65776 0.0
C1529 C 0.23946 0.14498 0.6499 0.0
C1530 C 0.22374 0.15421 0.65445 0.0
C1531 C 0.2125 0.14765 0.66783 0.0
H1532 H 0.28889 0.77089 0.16065 0.0
H1533 H 0.32359 0.77809 0.11489 0.0
H1534 H 0.3094 0.74912 0.17294 0.0
H1535 H 0.34449 0.75589 0.12755 0.0
H1536 H 0.38131 0.73183 0.17763 0.0
H1537 H 0.36451 0.75206 0.15779 0.0
H1538 H 0.31829 0.71769 0.16224 0.0
H1539 H 0.33478 0.69788 0.18213 0.0
C1540 C 0.30094 0.76786 0.15317 0.0
C1541 C 0.30451 0.77614 0.13668 0.0
C1542 C 0.31266 0.75527 0.16021 0.0
C1543 C 0.32835 0.75058 0.15103 0.0
C1544 C 0.33239 0.75922 0.13481 0.0
C1545 C 0.32046 0.77186 0.1276 0.0
C1546 C 0.36776 0.72836 0.17383 0.0
C1547 C 0.35919 0.71351 0.1816 0.0
C1548 C 0.35817 0.7399 0.16251 0.0
C1549 C 0.34002 0.73658 0.15882 0.0
C1550 C 0.33217 0.72071 0.16514 0.0
C1551 C 0.34161 0.70937 0.17649 0.0
H1552 H 0.73651 0.18365 0.39434 0.0
H1553 H 0.70229 0.17585 0.34855 0.0
H1554 H 0.75726 0.16093 0.38261 0.0
H1555 H 0.72252 0.15289 0.33716 0.0
H1556 H 0.76039 0.11089 0.31983 0.0
H1557 H 0.7396 0.12227 0.34266 0.0
H1558 H 0.77498 0.1669 0.35244 0.0
H1559 H 0.79527 0.15588 0.32937 0.0
C1560 C 0.73307 0.1765 0.38221 0.0
C1561 C 0.71793 0.18141 0.37226 0.0
C1562 C 0.7449 0.16357 0.3755 0.0
C1563 C 0.74144 0.15515 0.35901 0.0
C1564 C 0.7254 0.15897 0.35001 0.0
C1565 C 0.71388 0.17216 0.35645 0.0
C1566 C 0.76396 0.12274 0.32738 0.0
C1567 C 0.77929 0.13261 0.3229 0.0
C1568 C 0.7521 0.12925 0.34037 0.0
C1569 C 0.75572 0.14544 0.3493 0.0
C1570 C 0.77196 0.15428 0.34596 0.0
C1571 C 0.78352 0.14805 0.3327 0.0
H1572 H 0.33756 0.21407 0.87739 0.0
H1573 H 0.29886 0.25317 0.85985 0.0
H1574 H 0.36182 0.23281 0.86522 0.0
H1575 H 0.32273 0.27185 0.84815 0.0
H1576 H 0.36508 0.30625 0.83078 0.0
H1577 H 0.3503 0.2899 0.85502 0.0
H1578 H 0.36793 0.23992 0.83192 0.0
H1579 H 0.38274 0.25639 0.8078 0.0
C1580 C 0.33433 0.22689 0.87144 0.0
C1581 C 0.31642 0.23219 0.86939 0.0
C1582 C 0.34814 0.23756 0.86447 0.0
C1583 C 0.34417 0.25382 0.85581 0.0
C1584 C 0.32629 0.25956 0.85497 0.0
C1585 C 0.31258 0.24879 0.86153 0.0
C1586 C 0.3665 0.29183 0.83145 0.0
C1587 C 0.37509 0.2825 0.81764 0.0
C1588 C 0.35798 0.28247 0.84522 0.0
C1589 C 0.35781 0.26363 0.84524 0.0
C1590 C 0.36798 0.25441 0.83237 0.0
C1591 C 0.37645 0.26381 0.81856 0.0
H1592 H 0.29247 0.83676 0.37612 0.0
H1593 H 0.24427 0.80592 0.36846 0.0
H1594 H 0.27811 0.86265 0.36176 0.0
H1595 H 0.22979 0.83178 0.35476 0.0
H1596 H 0.20597 0.88135 0.33242 0.0
H1597 H 0.22035 0.86623 0.35783 0.0
H1598 H 0.26898 0.86102 0.3271 0.0
H1599 H 0.25449 0.8755 0.30167 0.0
C1600 C 0.27858 0.8358 0.37209 0.0
C1601 C 0.26944 0.81942 0.37326 0.0
C1602 C 0.27041 0.85054 0.36387 0.0
C1603 C 0.25286 0.84918 0.35721 0.0
C1604 C 0.24323 0.83328 0.35998 0.0
C1605 C 0.25154 0.81846 0.36772 0.0
C1606 C 0.21993 0.87756 0.3314 0.0
C1607 C 0.22915 0.87944 0.31515 0.0
C1608 C 0.22812 0.86891 0.34588 0.0
C1609 C 0.24575 0.8625 0.34439 0.0
C1610 C 0.25546 0.86602 0.32869 0.0
C1611 C 0.24715 0.87421 0.31412 0.0
H1612 H 0.62048 0.7074 0.82948 0.0
H1613 H 0.61941 0.75179 0.79259 0.0
H1614 H 0.63813 0.72547 0.85059 0.0
H1615 H 0.63646 0.7699 0.81369 0.0
H1616 H 0.69501 0.77417 0.83244 0.0
H1617 H 0.6694 0.76025 0.81844 0.0
H1618 H 0.64278 0.75672 0.86958 0.0
H1619 H 0.66883 0.77112 0.88394 0.0
C1620 C 0.62325 0.72128 0.82632 0.0
C1621 C 0.61881 0.72825 0.80944 0.0
C1622 C 0.63332 0.7316 0.83836 0.0
C1623 C 0.63887 0.74894 0.83357 0.0
C1624 C 0.63252 0.75649 0.81758 0.0
C1625 C 0.62274 0.74617 0.80554 0.0
C1626 C 0.68376 0.7705 0.84082 0.0
C1627 C 0.68396 0.77375 0.85932 0.0
C1628 C 0.66899 0.76265 0.83273 0.0
C1629 C 0.65401 0.75767 0.84289 0.0
C1630 C 0.65416 0.76059 0.86148 0.0
C1631 C 0.66899 0.7688 0.86964 0.0
H1632 H 0.12578 0.238 0.24814 0.0
H1633 H 0.10736 0.20336 0.20567 0.0
H1634 H 0.13636 0.21197 0.26473 0.0
H1635 H 0.11859 0.17751 0.22178 0.0
H1636 H 0.13751 0.13163 0.2541 0.0
H1637 H 0.11874 0.15707 0.24588 0.0
H1638 H 0.16133 0.19321 0.26102 0.0
H1639 H 0.17964 0.168 0.26984 0.0
C1640 C 0.12377 0.22481 0.24245 0.0
C1641 C 0.11598 0.22279 0.22546 0.0
C1642 C 0.12995 0.20988 0.25191 0.0
C1643 C 0.12869 0.19261 0.24447 0.0
C1644 C 0.11971 0.19052 0.22805 0.0
C1645 C 0.11334 0.20542 0.21872 0.0
C1646 C 0.1427 0.14504 0.25601 0.0
C1647 C 0.16018 0.14775 0.26241 0.0
C1648 C 0.13197 0.15963 0.2512 0.0
C1649 C 0.13854 0.17725 0.25255 0.0
C1650 C 0.15564 0.17992 0.25996 0.0
C1651 C 0.16627 0.16538 0.26491 0.0
H1652 H 0.32756 0.68305 0.76459 0.0
H1653 H 0.35994 0.63526 0.76068 0.0
H1654 H 0.3015 0.66621 0.75513 0.0
H1655 H 0.33359 0.61818 0.75177 0.0
H1656 H 0.2545 0.63264 0.74292 0.0
H1657 H 0.27962 0.64389 0.7604 0.0
H1658 H 0.31634 0.6165 0.72506 0.0
H1659 H 0.29125 0.60476 0.70805 0.0
C1660 C 0.32904 0.66883 0.76215 0.0
C1661 C 0.34591 0.66058 0.76314 0.0
C1662 C 0.31401 0.6591 0.75682 0.0
C1663 C 0.31543 0.64082 0.75248 0.0
C1664 C 0.33208 0.6323 0.75465 0.0
C1665 C 0.34717 0.64208 0.75988 0.0
C1666 C 0.26793 0.62875 0.7391 0.0
C1667 C 0.27088 0.61799 0.72395 0.0
C1668 C 0.28235 0.63528 0.74907 0.0
C1669 C 0.30006 0.63136 0.74401 0.0
C1670 C 0.30292 0.6197 0.7295 0.0
C1671 C 0.2885 0.61302 0.71964 0.0
H1672 H 0.86826 0.87464 0.24327 0.0
H1673 H 0.83272 0.83612 0.26778 0.0
H1674 H 0.8879 0.85033 0.23371 0.0
H1675 H 0.85192 0.81198 0.25785 0.0
H1676 H 0.89607 0.80129 0.19508 0.0
H1677 H 0.88565 0.82773 0.211 0.0
H1678 H 0.87948 0.79628 0.25917 0.0
H1679 H 0.88926 0.76971 0.24302 0.0
C1680 C 0.86477 0.86103 0.24689 0.0
C1681 C 0.84877 0.85733 0.2561 0.0
C1682 C 0.87599 0.84709 0.2413 0.0
C1683 C 0.87144 0.82915 0.24482 0.0
C1684 C 0.85603 0.8256 0.25504 0.0
C1685 C 0.84488 0.83949 0.26064 0.0
C1686 C 0.89291 0.80011 0.20918 0.0
C1687 C 0.89315 0.78334 0.2177 0.0
C1688 C 0.88699 0.81532 0.21837 0.0
C1689 C 0.88137 0.81409 0.23631 0.0
C1690 C 0.88324 0.79762 0.24524 0.0
C1691 C 0.88895 0.7824 0.23601 0.0
H1692 H 0.62924 0.37118 0.74821 0.0
H1693 H 0.6663 0.33206 0.76928 0.0
H1694 H 0.65429 0.39048 0.74003 0.0
H1695 H 0.69121 0.35111 0.76082 0.0
H1696 H 0.73452 0.38885 0.74934 0.0
H1697 H 0.7076 0.37871 0.76467 0.0
H1698 H 0.67679 0.38817 0.71668 0.0
H1699 H 0.70358 0.3987 0.70149 0.0
C1700 C 0.64269 0.36682 0.75138 0.0
C1701 C 0.64577 0.34995 0.7592 0.0
C1702 C 0.65704 0.37785 0.7466 0.0
C1703 C 0.67476 0.37229 0.74961 0.0
C1704 C 0.67775 0.35594 0.75846 0.0
C1705 C 0.66343 0.34492 0.76321 0.0
C1706 C 0.72192 0.3892 0.74219 0.0
C1707 C 0.72126 0.39427 0.72408 0.0
C1708 C 0.7065 0.38329 0.75096 0.0
C1709 C 0.69011 0.38227 0.7418 0.0
C1710 C 0.68917 0.38883 0.72418 0.0
C1711 C 0.70458 0.39482 0.71542 0.0
H1712 H 0.14755 0.7624 0.77307 0.0
H1713 H 0.09563 0.78614 0.78217 0.0
H1714 H 0.15632 0.78818 0.75544 0.0
H1715 H 0.1041 0.81173 0.76375 0.0
H1716 H 0.13692 0.86405 0.75638 0.0
H1717 H 0.12254 0.8369 0.7669 0.0
H1718 H 0.15404 0.80575 0.72964 0.0
H1719 H 0.16908 0.83296 0.71978 0.0
C1720 C 0.13783 0.77295 0.77095 0.0
C1721 C 0.12097 0.7723 0.77923 0.0
C1722 C 0.14281 0.78775 0.76067 0.0
C1723 C 0.13098 0.8022 0.75818 0.0
C1724 C 0.11371 0.80105 0.76565 0.0
C1725 C 0.10881 0.78633 0.77614 0.0
C1726 C 0.1405 0.85146 0.75013 0.0
C1727 C 0.15436 0.85063 0.73745 0.0
C1728 C 0.13217 0.83581 0.75613 0.0
C1729 C 0.13734 0.81898 0.7494 0.0
C1730 C 0.15008 0.81839 0.73554 0.0
C1731 C 0.15861 0.83401 0.72974 0.0
H1732 H 0.63455 0.63612 0.25686 0.0
H1733 H 0.6661 0.66297 0.21657 0.0
H1734 H 0.66088 0.6202 0.26704 0.0
H1735 H 0.69242 0.64618 0.22602 0.0
H1736 H 0.73748 0.63902 0.26736 0.0
H1737 H 0.71178 0.64839 0.25007 0.0
H1738 H 0.68408 0.5997 0.26478 0.0
H1739 H 0.70966 0.59081 0.28301 0.0
C1740 C 0.64701 0.63816 0.24975 0.0
C1741 C 0.6483 0.65103 0.2361 0.0
C1742 C 0.6622 0.62892 0.25555 0.0
C1743 C 0.679 0.63208 0.24762 0.0
C1744 C 0.67988 0.64378 0.23285 0.0
C1745 C 0.66475 0.6533 0.22729 0.0
C1746 C 0.72602 0.63016 0.26671 0.0
C1747 C 0.72553 0.61429 0.27678 0.0
C1748 C 0.71124 0.63548 0.25662 0.0
C1749 C 0.69564 0.62492 0.25606 0.0
C1750 C 0.69564 0.60842 0.2652 0.0
C1751 C 0.71036 0.60324 0.27558 0.0
H1752 H 0.88875 0.23797 0.75039 0.0
H1753 H 0.90103 0.20405 0.79558 0.0
H1754 H 0.88018 0.21172 0.73304 0.0
H1755 H 0.89179 0.17797 0.77859 0.0
H1756 H 0.87554 0.13177 0.74613 0.0
H1757 H 0.89426 0.15702 0.75494 0.0
H1758 H 0.85444 0.19356 0.73426 0.0
H1759 H 0.83621 0.16848 0.7249 0.0
C1760 C 0.88988 0.22488 0.75653 0.0
C1761 C 0.89528 0.22312 0.77446 0.0
C1762 C 0.88487 0.20983 0.74662 0.0
C1763 C 0.88492 0.19272 0.75449 0.0
C1764 C 0.89167 0.19086 0.77198 0.0
C1765 C 0.89689 0.20589 0.78181 0.0
C1766 C 0.87102 0.1452 0.74306 0.0
C1767 C 0.85422 0.1481 0.73509 0.0
C1768 C 0.88171 0.15969 0.74822 0.0
C1769 C 0.87576 0.17738 0.74563 0.0
C1770 C 0.8596 0.18018 0.73638 0.0
C1771 C 0.84902 0.16573 0.7311 0.0
H1772 H 0.36615 0.36636 0.25871 0.0
H1773 H 0.33631 0.34704 0.21315 0.0
H1774 H 0.33981 0.38205 0.26938 0.0
H1775 H 0.31006 0.36345 0.22338 0.0
H1776 H 0.26351 0.36433 0.26415 0.0
H1777 H 0.28989 0.3572 0.2467 0.0
H1778 H 0.31684 0.40367 0.26826 0.0
H1779 H 0.29052 0.41039 0.28636 0.0
C1780 C 0.35415 0.36603 0.25058 0.0
C1781 C 0.35323 0.35516 0.23527 0.0
C1782 C 0.33897 0.3751 0.2567 0.0
C1783 C 0.3226 0.3737 0.24749 0.0
C1784 C 0.32227 0.36438 0.23112 0.0
C1785 C 0.33738 0.35511 0.22515 0.0
C1786 C 0.27494 0.3732 0.26499 0.0
C1787 C 0.27497 0.38778 0.27686 0.0
C1788 C 0.2901 0.3692 0.25482 0.0
C1789 C 0.30564 0.37979 0.25609 0.0
C1790 C 0.30526 0.39502 0.26717 0.0
C1791 C 0.29013 0.39892 0.2775 0.0
H1792 H 0.28753 0.14384 0.15249 0.0
H1793 H 0.23609 0.13139 0.12939 0.0
H1794 H 0.28011 0.12597 0.17874 0.0
H1795 H 0.2281 0.11458 0.15597 0.0
H1796 H 0.21445 0.08571 0.20541 0.0
H1797 H 0.22933 0.09184 0.177 0.0
H1798 H 0.26228 0.13164 0.20317 0.0
H1799 H 0.24821 0.12477 0.23142 0.0
C1800 C 0.27474 0.13702 0.15292 0.0
C1801 C 0.2623 0.13919 0.13901 0.0
C1802 C 0.27038 0.12692 0.16805 0.0
C1803 C 0.25327 0.11919 0.16984 0.0
C1804 C 0.24144 0.12017 0.15519 0.0
C1805 C 0.24599 0.12991 0.13988 0.0
C1806 C 0.2252 0.09544 0.20511 0.0
C1807 C 0.22998 0.10491 0.22064 0.0
C1808 C 0.23365 0.09908 0.18878 0.0
C1809 C 0.24686 0.11249 0.18757 0.0
C1810 C 0.25238 0.12106 0.20342 0.0
C1811 C 0.24416 0.11721 0.21973 0.0
H1812 H 0.33951 0.76842 0.65937 0.0
H1813 H 0.37376 0.7386 0.62355 0.0
H1814 H 0.35832 0.76013 0.68438 0.0
H1815 H 0.39305 0.73065 0.64872 0.0
H1816 H 0.39382 0.74692 0.72833 0.0
H1817 H 0.38592 0.76134 0.70017 0.0
H1818 H 0.38922 0.71025 0.67323 0.0
H1819 H 0.39773 0.696 0.70118 0.0
C1820 C 0.35132 0.76044 0.65675 0.0
C1821 C 0.35493 0.75392 0.63948 0.0
C1822 C 0.36227 0.7558 0.67113 0.0
C1823 C 0.37717 0.74457 0.66864 0.0
C1824 C 0.38152 0.73908 0.65115 0.0
C1825 C 0.37051 0.74373 0.63671 0.0
C1826 C 0.39335 0.73886 0.71629 0.0
C1827 C 0.39605 0.72025 0.71706 0.0
C1828 C 0.38871 0.74711 0.70016 0.0
C1829 C 0.38649 0.7369 0.6845 0.0
C1830 C 0.39084 0.71858 0.68497 0.0
C1831 C 0.39566 0.71036 0.70107 0.0
H1832 H 0.79545 0.89991 0.19791 0.0
H1833 H 0.75071 0.88556 0.23159 0.0
H1834 H 0.77949 0.8888 0.1719 0.0
H1835 H 0.73433 0.87514 0.2054 0.0
H1836 H 0.72882 0.8298 0.1635 0.0
H1837 H 0.73752 0.84899 0.1881 0.0
H1838 H 0.75603 0.88897 0.15057 0.0
H1839 H 0.74788 0.86932 0.1258 0.0
C1840 C 0.78195 0.89494 0.19969 0.0
C1841 C 0.77449 0.8933 0.21687 0.0
C1842 C 0.77271 0.88862 0.1847 0.0
C1843 C 0.75571 0.88071 0.18654 0.0
C1844 C 0.7476 0.88067 0.20354 0.0
C1845 C 0.75693 0.88677 0.21855 0.0
C1846 C 0.73445 0.84281 0.16043 0.0
C1847 C 0.73792 0.84787 0.14266 0.0
C1848 C 0.73933 0.85394 0.1746 0.0
C1849 C 0.74767 0.87053 0.17139 0.0
C1850 C 0.74997 0.87615 0.15356 0.0
C1851 C 0.7452 0.86492 0.13935 0.0
H1852 H 0.60258 0.30216 0.69843 0.0
H1853 H 0.60708 0.25419 0.73036 0.0
H1854 H 0.61189 0.28562 0.67212 0.0
H1855 H 0.61542 0.23725 0.70378 0.0
H1856 H 0.6615 0.22556 0.66431 0.0
H1857 H 0.64208 0.23575 0.688 0.0
H1858 H 0.60966 0.26421 0.64939 0.0
H1859 H 0.62986 0.25462 0.62558 0.0
C1860 C 0.60495 0.28791 0.6997 0.0
C1861 C 0.60447 0.27955 0.71653 0.0
C1862 C 0.61021 0.27833 0.68453 0.0
C1863 C 0.61481 0.26009 0.6858 0.0
C1864 C 0.61254 0.25138 0.70236 0.0
C1865 C 0.60764 0.26106 0.7176 0.0
C1866 C 0.65005 0.23371 0.66075 0.0
C1867 C 0.64748 0.23958 0.64307 0.0
C1868 C 0.63872 0.23947 0.67441 0.0
C1869 C 0.62435 0.25107 0.67075 0.0
C1870 C 0.62085 0.25565 0.6528 0.0
C1871 C 0.63235 0.25004 0.63911 0.0
H1872 H 0.20067 0.89834 0.79805 0.0
H1873 H 0.24683 0.88746 0.76496 0.0
H1874 H 0.21697 0.88795 0.82421 0.0
H1875 H 0.26336 0.8776 0.79125 0.0
H1876 H 0.25004 0.87068 0.87044 0.0
H1877 H 0.24084 0.88988 0.84569 0.0
H1878 H 0.26066 0.85058 0.80814 0.0
H1879 H 0.27024 0.83171 0.83275 0.0
C1880 C 0.21449 0.89429 0.79644 0.0
C1881 C 0.22232 0.89339 0.77937 0.0
C1882 C 0.22391 0.88838 0.81149 0.0
C1883 C 0.2414 0.8816 0.80979 0.0
C1884 C 0.24977 0.88231 0.79296 0.0
C1885 C 0.24031 0.88807 0.7779 0.0
C1886 C 0.25276 0.86633 0.85692 0.0
C1887 C 0.26066 0.84955 0.85359 0.0
C1888 C 0.24741 0.87729 0.84271 0.0
C1889 C 0.24983 0.87172 0.8249 0.0
C1890 C 0.25874 0.85545 0.82165 0.0
C1891 C 0.26412 0.84453 0.83582 0.0
H1892 H 0.61838 0.74594 0.2617 0.0
H1893 H 0.60166 0.70233 0.29584 0.0
H1894 H 0.62866 0.76249 0.28784 0.0
H1895 H 0.61239 0.71864 0.32188 0.0
H1896 H 0.63037 0.75219 0.36764 0.0
H1897 H 0.6116 0.74379 0.34226 0.0
H1898 H 0.65462 0.75751 0.30611 0.0
H1899 H 0.67313 0.76624 0.3313 0.0
C1900 C 0.6166 0.74002 0.27481 0.0
C1901 C 0.6095 0.72268 0.27666 0.0
C1902 C 0.62257 0.74947 0.28978 0.0
C1903 C 0.6217 0.74175 0.30692 0.0
C1904 C 0.61321 0.72505 0.30891 0.0
C1905 C 0.60711 0.71564 0.29394 0.0
C1906 C 0.63567 0.75377 0.35425 0.0
C1907 C 0.65335 0.75967 0.35151 0.0
C1908 C 0.62494 0.74887 0.33971 0.0
C1909 C 0.63164 0.74981 0.32216 0.0
C1910 C 0.64891 0.75678 0.31941 0.0
C1911 C 0.65962 0.76167 0.33391 0.0
H1912 H 0.80246 0.1069 0.79803 0.0
H1913 H 0.75775 0.1196 0.76366 0.0
H1914 H 0.78561 0.11732 0.82383 0.0
H1915 H 0.74056 0.12934 0.78958 0.0
H1916 H 0.7516 0.13393 0.86955 0.0
H1917 H 0.76154 0.11538 0.84457 0.0
H1918 H 0.74208 0.1553 0.80746 0.0
H1919 H 0.73166 0.17338 0.83223 0.0
C1920 C 0.78883 0.11143 0.79605 0.0
C1921 C 0.78157 0.11273 0.77876 0.0
C1922 C 0.77909 0.11733 0.8109 0.0
C1923 C 0.76177 0.12447 0.8088 0.0
C1924 C 0.75401 0.12437 0.79165 0.0
C1925 C 0.76384 0.11868 0.77679 0.0
C1926 C 0.74908 0.13853 0.85603 0.0
C1927 C 0.74103 0.15527 0.85292 0.0
C1928 C 0.7549 0.12795 0.84171 0.0
C1929 C 0.75286 0.13391 0.82395 0.0
C1930 C 0.74375 0.15011 0.82089 0.0
C1931 C 0.73786 0.1606 0.83517 0.0
H1932 H 0.39367 0.29602 0.29373 0.0
H1933 H 0.36771 0.25779 0.25898 0.0
H1934 H 0.38252 0.27999 0.31973 0.0
H1935 H 0.35712 0.24129 0.28503 0.0
H1936 H 0.31788 0.23754 0.33268 0.0
H1937 H 0.33444 0.24664 0.30635 0.0
H1938 H 0.38178 0.25446 0.33866 0.0
H1939 H 0.3649 0.24593 0.36529 0.0
C1940 C 0.38598 0.28391 0.29163 0.0
C1941 C 0.38134 0.27835 0.27427 0.0
C1942 C 0.37964 0.27462 0.30659 0.0
C1943 C 0.36868 0.25944 0.30454 0.0
C1944 C 0.36516 0.25316 0.28713 0.0
C1945 C 0.37132 0.26257 0.27218 0.0
C1946 C 0.3319 0.24092 0.33419 0.0
C1947 C 0.33998 0.24122 0.35117 0.0
C1948 C 0.34148 0.24603 0.31899 0.0
C1949 C 0.35946 0.25145 0.32033 0.0
C1950 C 0.36786 0.25071 0.33717 0.0
C1951 C 0.35821 0.24569 0.35243 0.0
H1952 H 0.24015 0.24064 0.1204 0.0
H1953 H 0.20365 0.19927 0.10322 0.0
H1954 H 0.21489 0.25926 0.1293 0.0
H1955 H 0.1785 0.2172 0.11312 0.0
H1956 H 0.13372 0.25158 0.12958 0.0
H1957 H 0.15905 0.24127 0.11176 0.0
H1958 H 0.19527 0.25985 0.15293 0.0
H1959 H 0.17024 0.271 0.16998 0.0
C1960 C 0.2267 0.23557 0.11846 0.0
C1961 C 0.22389 0.21843 0.1113 0.0
C1962 C 0.21219 0.24619 0.12366 0.0
C1963 C 0.19453 0.2397 0.12228 0.0
C1964 C 0.19177 0.22287 0.11424 0.0
C1965 C 0.20626 0.21246 0.10866 0.0
C1966 C 0.14714 0.25387 0.13455 0.0
C1967 C 0.14991 0.26189 0.15132 0.0
C1968 C 0.1617 0.24779 0.12442 0.0
C1969 C 0.17931 0.24932 0.13099 0.0
C1970 C 0.18204 0.25851 0.1472 0.0
C1971 C 0.16756 0.26484 0.15713 0.0
H1972 H 0.20444 0.79437 0.91393 0.0
H1973 H 0.23314 0.75823 0.87908 0.0
H1974 H 0.17689 0.77774 0.90835 0.0
H1975 H 0.20578 0.74231 0.87281 0.0
H1976 H 0.15692 0.71418 0.86087 0.0
H1977 H 0.18171 0.72406 0.87961 0.0
H1978 H 0.15705 0.77624 0.88435 0.0
H1979 H 0.13192 0.76597 0.86665 0.0
C1980 C 0.20493 0.78274 0.90528 0.0
C1981 C 0.22095 0.77782 0.89672 0.0
C1982 C 0.1891 0.77326 0.90198 0.0
C1983 C 0.18892 0.7588 0.88988 0.0
C1984 C 0.20525 0.75318 0.88237 0.0
C1985 C 0.22105 0.76248 0.88584 0.0
C1986 C 0.15657 0.72757 0.86643 0.0
C1987 C 0.14265 0.7394 0.86203 0.0
C1988 C 0.17086 0.73332 0.87704 0.0
C1989 C 0.17175 0.75116 0.88309 0.0
C1990 C 0.15694 0.7624 0.88006 0.0
C1991 C 0.14247 0.75653 0.86978 0.0
H1992 H 0.74522 0.72772 0.39797 0.0
H1993 H 0.6955 0.69833 0.39698 0.0
H1994 H 0.76157 0.70034 0.39113 0.0
H1995 H 0.71157 0.67122 0.38912 0.0
H1996 H 0.74188 0.62323 0.37375 0.0
H1997 H 0.7314 0.64732 0.39318 0.0
H1998 H 0.76521 0.68468 0.36466 0.0
H1999 H 0.77619 0.66068 0.34609 0.0
C2000 C 0.73782 0.71533 0.39654 0.0
C2001 C 0.71906 0.71522 0.39773 0.0
C2002 C 0.74716 0.69963 0.39248 0.0
C2003 C 0.73792 0.68356 0.38908 0.0
C2004 C 0.71926 0.68322 0.39172 0.0
C2005 C 0.70996 0.69885 0.39615 0.0
C2006 C 0.74743 0.63651 0.37201 0.0
C2007 C 0.75964 0.64006 0.35814 0.0
C2008 C 0.7413 0.65038 0.38305 0.0
C2009 C 0.74714 0.66811 0.38034 0.0
C2010 C 0.76044 0.67128 0.36739 0.0
C2011 C 0.76668 0.65743 0.35654 0.0
H2012 H 0.79952 0.20658 0.89833 0.0
H2013 H 0.76572 0.25119 0.88373 0.0
H2014 H 0.82551 0.22263 0.88723 0.0
H2015 H 0.79187 0.26756 0.87317 0.0
H2016 H 0.83412 0.27253 0.82785 0.0
H2017 H 0.80934 0.26376 0.84686 0.0
H2018 H 0.84656 0.24668 0.88772 0.0
H2019 H 0.87149 0.25499 0.86835 0.0
C2020 C 0.7977 0.22006 0.89329 0.0
C2021 C 0.7805 0.22746 0.89159 0.0
C2022 C 0.81267 0.22934 0.88697 0.0
C2023 C 0.81077 0.24629 0.87897 0.0
C2024 C 0.79375 0.25434 0.87883 0.0
C2025 C 0.77877 0.245 0.88499 0.0
C2026 C 0.83706 0.2672 0.84101 0.0
C2027 C 0.85481 0.26421 0.84644 0.0
C2028 C 0.8228 0.26228 0.85202 0.0
C2029 C 0.82591 0.25435 0.86882 0.0
C2030 C 0.84368 0.25246 0.87475 0.0
C2031 C 0.85798 0.25731 0.86367 0.0
H2032 H 0.29983 0.30133 0.4001 0.0
H2033 H 0.25036 0.27145 0.39864 0.0
H2034 H 0.28395 0.32823 0.39141 0.0
H2035 H 0.23418 0.29868 0.39081 0.0
H2036 H 0.2543 0.37578 0.37414 0.0
H2037 H 0.26349 0.35191 0.39446 0.0
H2038 H 0.23243 0.314 0.36365 0.0
H2039 H 0.22272 0.33779 0.34407 0.0
C2040 C 0.28543 0.30064 0.39854 0.0
C2041 C 0.27642 0.28417 0.39965 0.0
C2042 C 0.27624 0.31616 0.39365 0.0
C2043 C 0.25777 0.31563 0.39 0.0
C2044 C 0.24849 0.2995 0.39297 0.0
C2045 C 0.25773 0.2839 0.39758 0.0
C2046 C 0.24908 0.36242 0.37203 0.0
C2047 C 0.23805 0.35864 0.35726 0.0
C2048 C 0.25445 0.34869 0.38361 0.0
C2049 C 0.24901 0.33089 0.38057 0.0
C2050 C 0.23683 0.32748 0.36663 0.0
C2051 C 0.23135 0.34118 0.3552 0.0
H2052 H 0.76428 0.7511 0.11351 0.0
H2053 H 0.7986 0.79514 0.09843 0.0
H2054 H 0.79033 0.73414 0.12334 0.0
H2055 H 0.82451 0.77852 0.10884 0.0
H2056 H 0.83352 0.72836 0.16773 0.0
H2057 H 0.80851 0.73715 0.14911 0.0
H2058 H 0.84514 0.75421 0.1077 0.0
H2059 H 0.87035 0.74592 0.12672 0.0
C2060 C 0.77741 0.75706 0.11203 0.0
C2061 C 0.77933 0.77459 0.10547 0.0
C2062 C 0.79235 0.74737 0.11776 0.0
C2063 C 0.80952 0.75506 0.11724 0.0
C2064 C 0.81155 0.77206 0.10936 0.0
C2065 C 0.79663 0.78168 0.10346 0.0
C2066 C 0.8363 0.73364 0.15452 0.0
C2067 C 0.85397 0.73673 0.14888 0.0
C2068 C 0.82188 0.73859 0.14373 0.0
C2069 C 0.82476 0.74663 0.12694 0.0
C2070 C 0.84244 0.7484 0.1207 0.0
C2071 C 0.8569 0.74353 0.13157 0.0
H2072 H 0.77078 0.3314 0.68049 0.0
H2073 H 0.76213 0.36563 0.63468 0.0
H2074 H 0.76154 0.30565 0.66312 0.0
H2075 H 0.75353 0.33961 0.61694 0.0
H2076 H 0.71059 0.29623 0.60465 0.0
H2077 H 0.72772 0.32138 0.61595 0.0
H2078 H 0.76565 0.28481 0.6399 0.0
H2079 H 0.74797 0.25957 0.62919 0.0
C2080 C 0.76738 0.33338 0.66654 0.0
C2081 C 0.76692 0.35065 0.65909 0.0
C2082 C 0.76217 0.31852 0.65648 0.0
C2083 C 0.75654 0.32051 0.63862 0.0
C2084 C 0.75739 0.33762 0.63077 0.0
C2085 C 0.76245 0.35253 0.64091 0.0
C2086 C 0.72276 0.29352 0.61204 0.0
C2087 C 0.72773 0.27588 0.61628 0.0
C2088 C 0.7327 0.30801 0.61846 0.0
C2089 C 0.74799 0.30519 0.6291 0.0
C2090 C 0.75371 0.2875 0.63213 0.0
C2091 C 0.74363 0.27301 0.6259 0.0
H2092 H 0.22158 0.66412 0.65813 0.0
H2093 H 0.24905 0.62456 0.62612 0.0
H2094 H 0.23329 0.68763 0.63939 0.0
H2095 H 0.26007 0.64821 0.60649 0.0
H2096 H 0.30065 0.69481 0.59975 0.0
H2097 H 0.28254 0.66947 0.60888 0.0
H2098 H 0.23646 0.70424 0.6137 0.0
H2099 H 0.25507 0.72979 0.60567 0.0
C2100 C 0.22965 0.66036 0.64669 0.0
C2101 C 0.23468 0.64245 0.64388 0.0
C2102 C 0.23633 0.67394 0.63576 0.0
C2103 C 0.24798 0.66998 0.62149 0.0
C2104 C 0.25159 0.65187 0.61765 0.0
C2105 C 0.24512 0.63826 0.6288 0.0
C2106 C 0.28656 0.69697 0.60242 0.0
C2107 C 0.27935 0.71432 0.60232 0.0
C2108 C 0.27607 0.68237 0.60756 0.0
C2109 C 0.25799 0.68473 0.61241 0.0
C2110 C 0.25043 0.70192 0.61066 0.0
C2111 C 0.26105 0.71658 0.60591 0.0
H2112 H 0.87851 0.87664 0.75724 0.0
H2113 H 0.8473 0.83818 0.72737 0.0
H2114 H 0.89819 0.85263 0.76741 0.0
H2115 H 0.86636 0.8143 0.73799 0.0
H2116 H 0.9012 0.77191 0.7569 0.0
H2117 H 0.89357 0.79873 0.73998 0.0
H2118 H 0.89429 0.82963 0.7889 0.0
H2119 H 0.90271 0.80304 0.80557 0.0
C2120 C 0.87603 0.86314 0.75256 0.0
C2121 C 0.86112 0.8593 0.74174 0.0
C2122 C 0.88725 0.84935 0.7585 0.0
C2123 C 0.88374 0.83144 0.75381 0.0
C2124 C 0.86967 0.82788 0.74181 0.0
C2125 C 0.85856 0.84163 0.73581 0.0
C2126 C 0.90019 0.78455 0.76394 0.0
C2127 C 0.90224 0.7853 0.78261 0.0
C2128 C 0.89571 0.79992 0.75426 0.0
C2129 C 0.89287 0.81632 0.76309 0.0
C2130 C 0.89644 0.81732 0.78156 0.0
C2131 C 0.90118 0.802 0.79119 0.0
H2132 H 0.63109 0.3617 0.24088 0.0
H2133 H 0.66521 0.31602 0.23114 0.0
H2134 H 0.65729 0.3795 0.24887 0.0
H2135 H 0.69112 0.33344 0.23974 0.0
H2136 H 0.73756 0.3677 0.251 0.0
H2137 H 0.71163 0.35675 0.23453 0.0
H2138 H 0.67664 0.38077 0.27385 0.0
H2139 H 0.70246 0.39232 0.2898 0.0
C2140 C 0.64418 0.35551 0.24024 0.0
C2141 C 0.646 0.33736 0.23557 0.0
C2142 C 0.6592 0.36568 0.24494 0.0
C2143 C 0.67637 0.3579 0.24517 0.0
C2144 C 0.67822 0.34003 0.23952 0.0
C2145 C 0.66327 0.32994 0.23471 0.0
C2146 C 0.72431 0.37096 0.2559 0.0
C2147 C 0.7221 0.38067 0.27186 0.0
C2148 C 0.70943 0.36458 0.24652 0.0
C2149 C 0.69199 0.36756 0.253 0.0
C2150 C 0.6898 0.3783 0.26831 0.0
C2151 C 0.70467 0.38486 0.27756 0.0
H2152 H 0.12718 0.12236 0.75708 0.0
H2153 H 0.1517 0.16082 0.7215 0.0
H2154 H 0.10692 0.14553 0.76802 0.0
H2155 H 0.13233 0.18396 0.73293 0.0
H2156 H 0.09826 0.22565 0.75405 0.0
H2157 H 0.10543 0.19845 0.73754 0.0
H2158 H 0.11047 0.16968 0.78753 0.0
H2159 H 0.10222 0.19655 0.80379 0.0
C2160 C 0.12805 0.13566 0.75136 0.0
C2161 C 0.1413 0.13979 0.73864 0.0
C2162 C 0.11653 0.14901 0.75775 0.0
C2163 C 0.11814 0.1668 0.75169 0.0
C2164 C 0.13044 0.17048 0.7379 0.0
C2165 C 0.14176 0.15714 0.7314 0.0
C2166 C 0.1004 0.21335 0.76143 0.0
C2167 C 0.09996 0.21328 0.78021 0.0
C2168 C 0.10466 0.19777 0.75199 0.0
C2169 C 0.10905 0.18188 0.76115 0.0
C2170 C 0.10711 0.18152 0.7799 0.0
C2171 C 0.10245 0.19702 0.7893 0.0
H2172 H 0.34814 0.63865 0.21923 0.0
H2173 H 0.37274 0.63651 0.27147 0.0
H2174 H 0.32309 0.62096 0.23029 0.0
H2175 H 0.34739 0.61964 0.28278 0.0
H2176 H 0.29966 0.58955 0.30122 0.0
H2177 H 0.32751 0.59513 0.28505 0.0
H2178 H 0.29906 0.62978 0.24845 0.0
H2179 H 0.27139 0.62368 0.26406 0.0
C2180 C 0.34838 0.63406 0.23298 0.0
C2181 C 0.36226 0.63925 0.24455 0.0
C2182 C 0.33394 0.62405 0.23939 0.0
C2183 C 0.33289 0.6193 0.25759 0.0
C2184 C 0.34766 0.62299 0.26869 0.0
C2185 C 0.36225 0.63275 0.2622 0.0
C2186 C 0.29934 0.59807 0.28949 0.0
C2187 C 0.28332 0.60635 0.28408 0.0
C2188 C 0.31533 0.60134 0.28026 0.0
C2189 C 0.31566 0.61304 0.2655 0.0
C2190 C 0.29941 0.62048 0.25956 0.0
C2191 C 0.28346 0.61711 0.26866 0.0
H2192 H 0.87304 0.13005 0.24878 0.0
H2193 H 0.84069 0.16858 0.27731 0.0
H2194 H 0.8916 0.15431 0.23726 0.0
H2195 H 0.85834 0.19267 0.26511 0.0
H2196 H 0.89084 0.23579 0.24274 0.0
H2197 H 0.88342 0.21002 0.2613 0.0
H2198 H 0.88798 0.17559 0.21495 0.0
H2199 H 0.89651 0.20117 0.19685 0.0
C2200 C 0.87007 0.14365 0.25285 0.0
C2201 C 0.85518 0.14736 0.26373 0.0
C2202 C 0.8806 0.15761 0.24608 0.0
C2203 C 0.87631 0.1756 0.24983 0.0
C2204 C 0.86229 0.1791 0.26192 0.0
C2205 C 0.85199 0.16517 0.26889 0.0
C2206 C 0.89061 0.22262 0.23666 0.0
C2207 C 0.89403 0.22052 0.21831 0.0
C2208 C 0.88624 0.20783 0.24726 0.0
C2209 C 0.8847 0.19064 0.23965 0.0
C2210 C 0.88919 0.18848 0.22146 0.0
C2211 C 0.89396 0.20322 0.21098 0.0
H2212 H 0.26564 0.37513 0.74406 0.0
H2213 H 0.29323 0.4126 0.70974 0.0
H2214 H 0.29352 0.36744 0.75835 0.0
H2215 H 0.32131 0.40571 0.72488 0.0
H2216 H 0.36745 0.3648 0.73222 0.0
H2217 H 0.34142 0.3823 0.72398 0.0
H2218 H 0.31813 0.37205 0.77602 0.0
H2219 H 0.34379 0.35341 0.78366 0.0
C2220 C 0.27761 0.38219 0.73994 0.0
C2221 C 0.27724 0.39423 0.72551 0.0
C2222 C 0.29373 0.37787 0.74829 0.0
C2223 C 0.30991 0.38573 0.74268 0.0
C2224 C 0.30925 0.39898 0.72927 0.0
C2225 C 0.29312 0.40306 0.72066 0.0
C2226 C 0.35694 0.36661 0.74204 0.0
C2227 C 0.35748 0.35748 0.75845 0.0
C2228 C 0.34196 0.37679 0.73736 0.0
C2229 C 0.32734 0.37837 0.74916 0.0
C2230 C 0.32879 0.37066 0.76631 0.0
C2231 C 0.34358 0.3601 0.77079 0.0
H2232 H 0.17728 0.83412 0.26774 0.0
H2233 H 0.13083 0.8673 0.25842 0.0
H2234 H 0.16046 0.80791 0.25879 0.0
H2235 H 0.11367 0.8408 0.25003 0.0
H2236 H 0.12747 0.76092 0.24651 0.0
H2237 H 0.13747 0.78682 0.26362 0.0
H2238 H 0.11323 0.82191 0.22451 0.0
H2239 H 0.10266 0.79607 0.20788 0.0
C2240 C 0.16332 0.83578 0.2642 0.0
C2241 C 0.1555 0.85288 0.26354 0.0
C2242 C 0.15358 0.82066 0.25918 0.0
C2243 C 0.13569 0.82219 0.2535 0.0
C2244 C 0.12751 0.83916 0.25399 0.0
C2245 C 0.13732 0.85434 0.25892 0.0
C2246 C 0.12395 0.77417 0.24179 0.0
C2247 C 0.11449 0.77643 0.22569 0.0
C2248 C 0.12977 0.78904 0.25154 0.0
C2249 C 0.12648 0.80651 0.2453 0.0
C2250 C 0.11594 0.80871 0.22985 0.0
C2251 C 0.10993 0.79384 0.22022 0.0
H2252 H 0.6991 0.5984 0.70572 0.0
H2253 H 0.73238 0.61852 0.7485 0.0
H2254 H 0.67258 0.60831 0.72165 0.0
H2255 H 0.70574 0.62783 0.76484 0.0
H2256 H 0.65981 0.6694 0.76864 0.0
H2257 H 0.68593 0.65207 0.76045 0.0
H2258 H 0.652 0.60752 0.74587 0.0
H2259 H 0.62565 0.62523 0.75352 0.0
C2260 C 0.70074 0.60444 0.7188 0.0
C2261 C 0.71788 0.60798 0.72568 0.0
C2262 C 0.68547 0.61006 0.72802 0.0
C2263 C 0.68698 0.61918 0.74443 0.0
C2264 C 0.70409 0.62127 0.75202 0.0
C2265 C 0.71937 0.61583 0.7427 0.0
C2266 C 0.65787 0.65579 0.76399 0.0
C2267 C 0.64059 0.64883 0.76146 0.0
C2268 C 0.67294 0.64575 0.75941 0.0
C2269 C 0.67113 0.6284 0.75229 0.0
C2270 C 0.65388 0.62096 0.75097 0.0
C2271 C 0.63877 0.63107 0.75546 0.0
H2272 H 0.74832 0.87067 0.8683 0.0
H2273 H 0.72908 0.8317 0.83014 0.0
H2274 H 0.75886 0.88944 0.84373 0.0
H2275 H 0.74025 0.84982 0.80584 0.0
H2276 H 0.75923 0.88374 0.76246 0.0
H2277 H 0.74037 0.87498 0.78758 0.0
H2278 H 0.78336 0.88789 0.82412 0.0
H2279 H 0.80171 0.89755 0.79909 0.0
C2280 C 0.74607 0.86624 0.85469 0.0
C2281 C 0.7381 0.84954 0.85122 0.0
C2282 C 0.75225 0.87693 0.84058 0.0
C2283 C 0.75073 0.87107 0.82273 0.0
C2284 C 0.74156 0.85498 0.81932 0.0
C2285 C 0.73525 0.84443 0.83335 0.0
C2286 C 0.76446 0.88508 0.77592 0.0
C2287 C 0.78203 0.89107 0.7788 0.0
C2288 C 0.7537 0.87995 0.79033 0.0
C2289 C 0.76042 0.88031 0.80792 0.0
C2290 C 0.77759 0.88753 0.81084 0.0
C2291 C 0.78821 0.89298 0.79644 0.0
H2292 H 0.60438 0.24567 0.2655 0.0
H2293 H 0.59651 0.2941 0.29611 0.0
H2294 H 0.61226 0.22969 0.29281 0.0
H2295 H 0.6051 0.27842 0.32319 0.0
H2296 H 0.65713 0.22173 0.3351 0.0
H2297 H 0.63864 0.23041 0.31001 0.0
H2298 H 0.6018 0.2567 0.34607 0.0
H2299 H 0.62085 0.24852 0.37131 0.0
C2300 C 0.60404 0.25284 0.27809 0.0
C2301 C 0.60013 0.27124 0.27858 0.0
C2302 C 0.60867 0.2437 0.29375 0.0
C2303 C 0.60973 0.25282 0.3102 0.0
C2304 C 0.60435 0.27086 0.31085 0.0
C2305 C 0.59951 0.27994 0.29524 0.0
C2306 C 0.64491 0.22905 0.33778 0.0
C2307 C 0.64069 0.23474 0.3552 0.0
C2308 C 0.63415 0.23393 0.32333 0.0
C2309 C 0.61879 0.24451 0.32592 0.0
C2310 C 0.61374 0.24889 0.34353 0.0
C2311 C 0.6246 0.24408 0.35803 0.0
H2312 H 0.21991 0.09243 0.78589 0.0
H2313 H 0.23241 0.14274 0.76026 0.0
H2314 H 0.23827 0.10094 0.81149 0.0
H2315 H 0.24996 0.15161 0.78601 0.0
H2316 H 0.28433 0.16503 0.83138 0.0
H2317 H 0.27493 0.14901 0.80458 0.0
H2318 H 0.23528 0.12054 0.8357 0.0
H2319 H 0.24531 0.13583 0.86248 0.0
C2320 C 0.22669 0.10525 0.78566 0.0
C2321 C 0.22454 0.11699 0.77111 0.0
C2322 C 0.23715 0.11018 0.80039 0.0
C2323 C 0.2455 0.12707 0.80102 0.0
C2324 C 0.24402 0.13839 0.78602 0.0
C2325 C 0.23378 0.13336 0.77123 0.0
C2326 C 0.27394 0.15499 0.83255 0.0
C2327 C 0.2654 0.15189 0.84901 0.0
C2328 C 0.26842 0.14591 0.81714 0.0
C2329 C 0.25402 0.13376 0.8178 0.0
C2330 C 0.24647 0.12968 0.83457 0.0
C2331 C 0.25219 0.13854 0.85001 0.0
H2332 H 0.3286 0.78172 0.3307 0.0
H2333 H 0.36184 0.7472 0.36302 0.0
H2334 H 0.3449 0.77242 0.30403 0.0
H2335 H 0.37747 0.73717 0.33641 0.0
H2336 H 0.40631 0.72234 0.28683 0.0
H2337 H 0.3964 0.74096 0.31175 0.0
H2338 H 0.34451 0.74647 0.28672 0.0
H2339 H 0.35467 0.72872 0.26163 0.0
C2340 C 0.33954 0.77231 0.33213 0.0
C2341 C 0.34377 0.76502 0.34893 0.0
C2342 C 0.34881 0.76685 0.31682 0.0
C2343 C 0.36229 0.75372 0.31792 0.0
C2344 C 0.36731 0.7474 0.33494 0.0
C2345 C 0.35825 0.75309 0.35027 0.0
C2346 C 0.3929 0.72784 0.28653 0.0
C2347 C 0.38122 0.72387 0.27233 0.0
C2348 C 0.38717 0.73843 0.30087 0.0
C2349 C 0.36955 0.74511 0.30144 0.0
C2350 C 0.35824 0.74186 0.28674 0.0
C2351 C 0.36404 0.73149 0.27234 0.0
H2352 H 0.72027 0.16778 0.16344 0.0
H2353 H 0.76106 0.13918 0.1342 0.0
H2354 H 0.72851 0.15179 0.19064 0.0
H2355 H 0.77014 0.12405 0.16145 0.0
H2356 H 0.78353 0.09583 0.21181 0.0
H2357 H 0.76675 0.10439 0.18515 0.0
H2358 H 0.7516 0.15401 0.21091 0.0
H2359 H 0.76739 0.14496 0.23766 0.0
C2360 C 0.73088 0.15792 0.16281 0.0
C2361 C 0.74013 0.15486 0.14675 0.0
C2362 C 0.73575 0.14885 0.17844 0.0
C2363 C 0.75031 0.13687 0.17847 0.0
C2364 C 0.75877 0.133 0.16207 0.0
C2365 C 0.75362 0.14177 0.14637 0.0
C2366 C 0.7763 0.1084 0.21184 0.0
C2367 C 0.77692 0.11978 0.2268 0.0
C2368 C 0.76677 0.11339 0.1965 0.0
C2369 C 0.75793 0.13003 0.19565 0.0
C2370 C 0.75792 0.14097 0.211 0.0
C2371 C 0.76715 0.13583 0.2264 0.0
H2372 H 0.41111 0.28744 0.70584 0.0
H2373 H 0.36498 0.26611 0.73342 0.0
H2374 H 0.40374 0.26942 0.67963 0.0
H2375 H 0.35716 0.24884 0.70717 0.0
H2376 H 0.34517 0.21606 0.66064 0.0
H2377 H 0.36212 0.22565 0.68679 0.0
H2378 H 0.38213 0.27105 0.65695 0.0
H2379 H 0.36597 0.26094 0.63071 0.0
C2380 C 0.39949 0.27878 0.70637 0.0
C2381 C 0.38852 0.27838 0.72165 0.0
C2382 C 0.3952 0.26851 0.69131 0.0
C2383 C 0.37972 0.25777 0.69111 0.0
C2384 C 0.36933 0.25669 0.70679 0.0
C2385 C 0.37374 0.26676 0.72188 0.0
C2386 C 0.35363 0.22779 0.65955 0.0
C2387 C 0.354 0.2379 0.64369 0.0
C2388 C 0.36323 0.2334 0.67459 0.0
C2389 C 0.37315 0.24942 0.67421 0.0
C2390 C 0.37474 0.25862 0.65784 0.0
C2391 C 0.36538 0.25284 0.64272 0.0
H2392 H 0.19563 0.90257 0.2014 0.0
H2393 H 0.24477 0.89806 0.23152 0.0
H2394 H 0.21143 0.89391 0.17433 0.0
H2395 H 0.26075 0.88998 0.20428 0.0
H2396 H 0.24242 0.87881 0.12634 0.0
H2397 H 0.23335 0.89797 0.1512 0.0
H2398 H 0.26032 0.86252 0.18811 0.0
H2399 H 0.26974 0.84379 0.1634 0.0
C2400 C 0.20993 0.90031 0.20214 0.0
C2401 C 0.21886 0.90063 0.21869 0.0
C2402 C 0.21905 0.89542 0.18656 0.0
C2403 C 0.23733 0.8909 0.18716 0.0
C2404 C 0.24658 0.89293 0.20342 0.0
C2405 C 0.23744 0.89766 0.21903 0.0
C2406 C 0.24679 0.87537 0.13972 0.0
C2407 C 0.25657 0.85959 0.1429 0.0
C2408 C 0.24149 0.8863 0.15398 0.0
C2409 C 0.24587 0.88169 0.1717 0.0
C2410 C 0.25681 0.86664 0.17467 0.0
C2411 C 0.26212 0.85577 0.16045 0.0
H2412 H 0.61985 0.7414 0.6248 0.0
H2413 H 0.65356 0.76864 0.66309 0.0
H2414 H 0.60037 0.73149 0.64908 0.0
H2415 H 0.63461 0.75831 0.68722 0.0
H2416 H 0.59887 0.74092 0.72978 0.0
H2417 H 0.60736 0.7577 0.70315 0.0
H2418 H 0.60379 0.70927 0.67169 0.0
H2419 H 0.5946 0.69273 0.69814 0.0
C2420 C 0.62293 0.74557 0.63833 0.0
C2421 C 0.63844 0.75558 0.64201 0.0
C2422 C 0.61183 0.73977 0.65227 0.0
C2423 C 0.61602 0.74384 0.67018 0.0
C2424 C 0.63078 0.75501 0.67365 0.0
C2425 C 0.6418 0.76085 0.65975 0.0
C2426 C 0.59946 0.73397 0.71708 0.0
C2427 C 0.59636 0.71543 0.71612 0.0
C2428 C 0.60443 0.74357 0.70181 0.0
C2429 C 0.60667 0.7348 0.6853 0.0
C2430 C 0.60212 0.71654 0.68411 0.0
C2431 C 0.59692 0.70699 0.69934 0.0
H2432 H 0.87055 0.74883 0.87195 0.0
H2433 H 0.83678 0.73335 0.82763 0.0
H2434 H 0.84404 0.75669 0.88934 0.0
H2435 H 0.81049 0.74166 0.84469 0.0
H2436 H 0.7965 0.79681 0.89742 0.0
H2437 H 0.82327 0.78106 0.88778 0.0
H2438 H 0.79074 0.73697 0.86923 0.0
H2439 H 0.76387 0.75304 0.87834 0.0
C2440 C 0.85748 0.74684 0.86601 0.0
C2441 C 0.85581 0.74068 0.8483 0.0
C2442 C 0.84229 0.75145 0.87594 0.0
C2443 C 0.82511 0.75002 0.86838 0.0
C2444 C 0.82344 0.74278 0.85108 0.0
C2445 C 0.83859 0.73812 0.8412 0.0
C2446 C 0.79506 0.78359 0.89165 0.0
C2447 C 0.77802 0.77634 0.88834 0.0
C2448 C 0.81046 0.77448 0.88619 0.0
C2449 C 0.80917 0.75785 0.87743 0.0
C2450 C 0.79219 0.74994 0.87553 0.0
C2451 C 0.77679 0.75912 0.88086 0.0
H2452 H 0.87441 0.24865 0.1236 0.0
H2453 H 0.83759 0.27352 0.16062 0.0
H2454 H 0.84929 0.23965 0.10477 0.0
H2455 H 0.81265 0.264 0.14236 0.0
H2456 H 0.76841 0.24798 0.10802 0.0
H2457 H 0.79521 0.26464 0.11623 0.0
H2458 H 0.82717 0.21714 0.10765 0.0
H2459 H 0.80056 0.20083 0.09871 0.0
C2460 C 0.86101 0.25247 0.12757 0.0
C2461 C 0.85801 0.26156 0.14378 0.0
C2462 C 0.84658 0.24719 0.11684 0.0
C2463 C 0.82886 0.25082 0.12213 0.0
C2464 C 0.82604 0.26107 0.13767 0.0
C2465 C 0.84042 0.26643 0.1483 0.0
C2466 C 0.78124 0.24124 0.10746 0.0
C2467 C 0.78231 0.223 0.103 0.0
C2468 C 0.79661 0.25076 0.11227 0.0
C2469 C 0.81336 0.24217 0.11302 0.0
C2470 C 0.81458 0.2243 0.10716 0.0
C2471 C 0.79925 0.21486 0.1021 0.0
H2472 H 0.24531 0.36763 0.63314 0.0
H2473 H 0.22975 0.33132 0.67539 0.0
H2474 H 0.25502 0.34224 0.61501 0.0
H2475 H 0.24007 0.30622 0.65778 0.0
H2476 H 0.25526 0.26135 0.6232 0.0
H2477 H 0.23774 0.28692 0.63332 0.0
H2478 H 0.27968 0.32258 0.6154 0.0
H2479 H 0.29668 0.29708 0.60453 0.0
C2480 C 0.24374 0.35424 0.63847 0.0
C2481 C 0.23694 0.35155 0.65582 0.0
C2482 C 0.24944 0.33967 0.62813 0.0
C2483 C 0.24859 0.32212 0.63496 0.0
C2484 C 0.24078 0.31944 0.65189 0.0
C2485 C 0.23496 0.33393 0.66212 0.0
C2486 C 0.26055 0.27469 0.62111 0.0
C2487 C 0.27746 0.27718 0.61328 0.0
C2488 C 0.25056 0.28937 0.62701 0.0
C2489 C 0.2574 0.30687 0.62553 0.0
C2490 C 0.27384 0.30938 0.61666 0.0
C2491 C 0.28368 0.29471 0.6105 0.0
H2492 H 0.19617 0.80675 0.10269 0.0
H2493 H 0.23071 0.76074 0.10793 0.0
H2494 H 0.17066 0.7887 0.11167 0.0
H2495 H 0.20503 0.74228 0.11586 0.0
H2496 H 0.16546 0.72794 0.16097 0.0
H2497 H 0.18886 0.73971 0.14212 0.0
H2498 H 0.14926 0.76598 0.10906 0.0
H2499 H 0.12568 0.7548 0.1287 0.0
C2500 C 0.19818 0.7926 0.10516 0.0
C2501 C 0.21546 0.78522 0.10496 0.0
C2502 C 0.1835 0.78216 0.11023 0.0
C2503 C 0.18575 0.76402 0.11489 0.0
C2504 C 0.20284 0.75631 0.11295 0.0
C2505 C 0.21756 0.76684 0.10827 0.0
C2506 C 0.16164 0.73593 0.14949 0.0
C2507 C 0.14369 0.74073 0.1466 0.0
C2508 C 0.17515 0.74261 0.13849 0.0
C2509 C 0.17108 0.75408 0.12411 0.0
C2510 C 0.15296 0.75757 0.12026 0.0
C2511 C 0.1394 0.75102 0.13144 0.0
H2512 H 0.74425 0.6256 0.63027 0.0
H2513 H 0.76704 0.66445 0.66656 0.0
H2514 H 0.7342 0.64985 0.6108 0.0
H2515 H 0.7564 0.68846 0.64776 0.0
H2516 H 0.7385 0.73127 0.61285 0.0
H2517 H 0.75636 0.70547 0.62172 0.0
H2518 H 0.71086 0.67093 0.61232 0.0
H2519 H 0.69346 0.69659 0.60251 0.0
C2520 C 0.74737 0.63928 0.63396 0.0
C2521 C 0.75621 0.64308 0.65013 0.0
C2522 C 0.74147 0.6532 0.62287 0.0
C2523 C 0.7442 0.6712 0.62777 0.0
C2524 C 0.75417 0.67485 0.64332 0.0
C2525 C 0.76017 0.66099 0.65427 0.0
C2526 C 0.7325 0.71808 0.61227 0.0
C2527 C 0.71451 0.71597 0.60726 0.0
C2528 C 0.74268 0.70328 0.61747 0.0
C2529 C 0.73498 0.6861 0.61819 0.0
C2530 C 0.71737 0.68387 0.61185 0.0
C2531 C 0.7073 0.69863 0.60631 0.0
H2532 H 0.16699 0.26456 0.8246 0.0
H2533 H 0.13141 0.25085 0.86811 0.0
H2534 H 0.19251 0.25604 0.84277 0.0
H2535 H 0.15712 0.24263 0.8865 0.0
H2536 H 0.23745 0.24545 0.87891 0.0
H2537 H 0.21106 0.26155 0.8686 0.0
H2538 H 0.17765 0.21746 0.88549 0.0
H2539 H 0.20397 0.20156 0.89621 0.0
C2540 C 0.16462 0.26011 0.83819 0.0
C2541 C 0.14713 0.25816 0.84479 0.0
C2542 C 0.1793 0.25533 0.8487 0.0
C2543 C 0.17686 0.24852 0.86608 0.0
C2544 C 0.15943 0.24759 0.87308 0.0
C2545 C 0.14471 0.25239 0.86256 0.0
C2546 C 0.22443 0.23937 0.88081 0.0
C2547 C 0.22284 0.22208 0.88809 0.0
C2548 C 0.20931 0.24857 0.87482 0.0
C2549 C 0.19229 0.24066 0.87588 0.0
C2550 C 0.19055 0.224 0.88452 0.0
C2551 C 0.20567 0.21483 0.89062 0.0
H2552 H 0.2513 0.73686 0.3886 0.0
H2553 H 0.2984 0.70496 0.39899 0.0
H2554 H 0.23473 0.70985 0.38087 0.0
H2555 H 0.28213 0.67812 0.3906 0.0
H2556 H 0.25077 0.63059 0.37554 0.0
H2557 H 0.25927 0.65616 0.39399 0.0
H2558 H 0.23613 0.69192 0.35482 0.0
H2559 H 0.22717 0.66653 0.33683 0.0
C2560 C 0.25803 0.72405 0.38953 0.0
C2561 C 0.27626 0.72309 0.39409 0.0
C2562 C 0.24856 0.70857 0.385 0.0
C2563 C 0.25717 0.69182 0.38471 0.0
C2564 C 0.27498 0.69073 0.39074 0.0
C2565 C 0.28439 0.70618 0.39547 0.0
C2566 C 0.2471 0.6439 0.37111 0.0
C2567 C 0.23856 0.64652 0.35455 0.0
C2568 C 0.25208 0.65857 0.38164 0.0
C2569 C 0.24866 0.67615 0.3758 0.0
C2570 C 0.23888 0.67863 0.3599 0.0
C2571 C 0.23384 0.664 0.34945 0.0
H2572 H 0.74508 0.36894 0.36809 0.0
H2573 H 0.77205 0.33091 0.33387 0.0
H2574 H 0.73407 0.34436 0.38657 0.0
H2575 H 0.76039 0.30653 0.35151 0.0
H2576 H 0.69379 0.2974 0.39217 0.0
H2577 H 0.71149 0.32312 0.3832 0.0
H2578 H 0.75778 0.28892 0.37672 0.0
H2579 H 0.73962 0.26302 0.38467 0.0
C2580 C 0.74891 0.35538 0.36468 0.0
C2581 C 0.7592 0.35191 0.34932 0.0
C2582 C 0.74245 0.34124 0.37516 0.0
C2583 C 0.74595 0.32333 0.37039 0.0
C2584 C 0.75744 0.32004 0.35583 0.0
C2585 C 0.76408 0.33413 0.34554 0.0
C2586 C 0.70782 0.29543 0.38909 0.0
C2587 C 0.71523 0.27815 0.38881 0.0
C2588 C 0.71808 0.31024 0.38407 0.0
C2589 C 0.7361 0.30818 0.37894 0.0
C2590 C 0.74384 0.29102 0.38006 0.0
C2591 C 0.73347 0.27615 0.38472 0.0
loop_
_geom_bond_atom_site_label_1
_geom_bond_atom_site_label_2
_geom_bond_distance
_geom_bond_site_symmetry_2
_ccdc_geom_bond_type
O0 Cd1 2.223 . S
O0 C8 1.315 . S
Cd1 O0 2.223 . S
Cd1 O4 2.297 . S
Cd1 O5 2.439 . S
Cd1 O11 2.240 . S
Cd2 O3 2.240 . S
Cd2 O10 2.223 . S
Cd2 O12 2.297 . S
Cd2 O13 2.439 . S
O3 Cd2 2.240 . S
O3 C8 1.279 . S
O4 Cd1 2.297 . S
O4 C6 1.247 . S
O5 Cd1 2.439 . S
O5 C6 1.208 . S
C6 O4 1.247 . S
C6 O5 1.208 . S
C7 O12 1.247 . S
C7 O13 1.208 . S
C8 O0 1.315 . S
C8 O3 1.279 . S
C9 O10 1.315 . S
C9 O11 1.279 . S
O10 Cd2 2.223 . S
O10 C9 1.315 . S
O11 Cd1 2.240 . S
O11 C9 1.279 . S
O12 Cd2 2.297 . S
O12 C7 1.247 . S
O13 Cd2 2.439 . S
O13 C7 1.208 . S
O14 Cd15 2.223 . S
O14 C22 1.315 . S
Cd15 O14 2.223 . S
Cd15 O18 2.297 . S
Cd15 O19 2.439 . S
Cd15 O25 2.240 . S
Cd16 O17 2.240 . S
Cd16 O24 2.223 . S
Cd16 O26 2.297 . S
Cd16 O27 2.439 . S
O17 Cd16 2.240 . S
O17 C22 1.279 . S
O18 Cd15 2.297 . S
O18 C20 1.247 . S
O19 Cd15 2.439 . S
O19 C20 1.208 . S
C20 O18 1.247 . S
C20 O19 1.208 . S
C21 O26 1.247 . S
C21 O27 1.208 . S
C22 O14 1.315 . S
C22 O17 1.279 . S
C23 O24 1.315 . S
C23 O25 1.279 . S
O24 Cd16 2.223 . S
O24 C23 1.315 . S
O25 Cd15 2.240 . S
O25 C23 1.279 . S
O26 Cd16 2.297 . S
O26 C21 1.247 . S
O27 Cd16 2.439 . S
O27 C21 1.208 . S
O28 Cd29 2.223 . S
O28 C36 1.315 . S
Cd29 O28 2.223 . S
Cd29 O32 2.297 . S
Cd29 O33 2.439 . S
Cd29 O39 2.240 . S
Cd30 O31 2.240 . S
Cd30 O38 2.223 . S
Cd30 O40 2.297 . S
Cd30 O41 2.439 . S
O31 Cd30 2.240 . S
O31 C36 1.279 . S
O32 Cd29 2.297 . S
O32 C34 1.247 . S
O33 Cd29 2.439 . S
O33 C34 1.208 . S
C34 O32 1.247 . S
C34 O33 1.208 . S
C35 O40 1.247 . S
C35 O41 1.208 . S
C36 O28 1.315 . S
C36 O31 1.279 . S
C37 O38 1.315 . S
C37 O39 1.279 . S
O38 Cd30 2.223 . S
O38 C37 1.315 . S
O39 Cd29 2.240 . S
O39 C37 1.279 . S
O40 Cd30 2.297 . S
O40 C35 1.247 . S
O41 Cd30 2.439 . S
O41 C35 1.208 . S
O42 Cd43 2.223 . S
O42 C50 1.315 . S
Cd43 O42 2.223 . S
Cd43 O46 2.297 . S
Cd43 O47 2.439 . S
Cd43 O53 2.240 . S
Cd44 O45 2.240 . S
Cd44 O52 2.223 . S
Cd44 O54 2.297 . S
Cd44 O55 2.439 . S
O45 Cd44 2.240 . S
O45 C50 1.279 . S
O46 Cd43 2.297 . S
O46 C48 1.247 . S
O47 Cd43 2.439 . S
O47 C48 1.208 . S
C48 O46 1.247 . S
C48 O47 1.208 . S
C49 O54 1.247 . S
C49 O55 1.208 . S
C50 O42 1.315 . S
C50 O45 1.279 . S
C51 O52 1.315 . S
C51 O53 1.279 . S
O52 Cd44 2.223 . S
O52 C51 1.315 . S
O53 Cd43 2.240 . S
O53 C51 1.279 . S
O54 Cd44 2.297 . S
O54 C49 1.247 . S
O55 Cd44 2.439 . S
O55 C49 1.208 . S
O56 Cd57 2.223 . S
O56 C64 1.315 . S
Cd57 O56 2.223 . S
Cd57 O60 2.297 . S
Cd57 O61 2.439 . S
Cd57 O67 2.240 . S
Cd58 O59 2.240 . S
Cd58 O66 2.223 . S
Cd58 O68 2.297 . S
Cd58 O69 2.439 . S
O59 Cd58 2.240 . S
O59 C64 1.279 . S
O60 Cd57 2.297 . S
O60 C62 1.247 . S
O61 Cd57 2.439 . S
O61 C62 1.208 . S
C62 O60 1.247 . S
C62 O61 1.208 . S
C63 O68 1.247 . S
C63 O69 1.208 . S
C64 O56 1.315 . S
C64 O59 1.279 . S
C65 O66 1.315 . S
C65 O67 1.279 . S
O66 Cd58 2.223 . S
O66 C65 1.315 . S
O67 Cd57 2.240 . S
O67 C65 1.279 . S
O68 Cd58 2.297 . S
O68 C63 1.247 . S
O69 Cd58 2.439 . S
O69 C63 1.208 . S
O70 Cd71 2.223 . S
O70 C78 1.315 . S
Cd71 O70 2.223 . S
Cd71 O74 2.297 . S
Cd71 O75 2.439 . S
Cd71 O81 2.240 . S
Cd72 O73 2.240 . S
Cd72 O80 2.223 . S
Cd72 O82 2.297 . S
Cd72 O83 2.439 . S
O73 Cd72 2.240 . S
O73 C78 1.279 . S
O74 Cd71 2.297 . S
O74 C76 1.247 . S
O75 Cd71 2.439 . S
O75 C76 1.208 . S
C76 O74 1.247 . S
C76 O75 1.208 . S
C77 O82 1.247 . S
C77 O83 1.208 . S
C78 O70 1.315 . S
C78 O73 1.279 . S
C79 O80 1.315 . S
C79 O81 1.279 . S
O80 Cd72 2.223 . S
O80 C79 1.315 . S
O81 Cd71 2.240 . S
O81 C79 1.279 . S
O82 Cd72 2.297 . S
O82 C77 1.247 . S
O83 Cd72 2.439 . S
O83 C77 1.208 . S
O84 Cd85 2.223 . S
O84 C92 1.315 . S
Cd85 O84 2.223 . S
Cd85 O88 2.297 . S
Cd85 O89 2.439 . S
Cd85 O95 2.240 . S
Cd86 O87 2.240 . S
Cd86 O94 2.223 . S
Cd86 O96 2.297 . S
Cd86 O97 2.439 . S
O87 Cd86 2.240 . S
O87 C92 1.279 . S
O88 Cd85 2.297 . S
O88 C90 1.247 . S
O89 Cd85 2.439 . S
O89 C90 1.208 . S
C90 O88 1.247 . S
C90 O89 1.208 . S
C91 O96 1.247 . S
C91 O97 1.208 . S
C92 O84 1.315 . S
C92 O87 1.279 . S
C93 O94 1.315 . S
C93 O95 1.279 . S
O94 Cd86 2.223 . S
O94 C93 1.315 . S
O95 Cd85 2.240 . S
O95 C93 1.279 . S
O96 Cd86 2.297 . S
O96 C91 1.247 . S
O97 Cd86 2.439 . S
O97 C91 1.208 . S
O98 Cd99 2.223 . S
O98 C106 1.315 . S
Cd99 O98 2.223 . S
Cd99 O102 2.297 . S
Cd99 O103 2.439 . S
Cd99 O109 2.240 . S
Cd100 O101 2.240 . S
Cd100 O108 2.223 . S
Cd100 O110 2.297 . S
Cd100 O111 2.439 . S
O101 Cd100 2.240 . S
O101 C106 1.279 . S
O102 Cd99 2.297 . S
O102 C104 1.247 . S
O103 Cd99 2.439 . S
O103 C104 1.208 . S
C104 O102 1.247 . S
C104 O103 1.208 . S
C105 O110 1.247 . S
C105 O111 1.208 . S
C106 O98 1.315 . S
C106 O101 1.279 . S
C107 O108 1.315 . S
C107 O109 1.279 . S
O108 Cd100 2.223 . S
O108 C107 1.315 . S
O109 Cd99 2.240 . S
O109 C107 1.279 . S
O110 Cd100 2.297 . S
O110 C105 1.247 . S
O111 Cd100 2.439 . S
O111 C105 1.208 . S
O112 Cd113 2.223 . S
O112 C120 1.315 . S
Cd113 O112 2.223 . S
Cd113 O116 2.297 . S
Cd113 O117 2.439 . S
Cd113 O123 2.240 . S
Cd114 O115 2.240 . S
Cd114 O122 2.223 . S
Cd114 O124 2.297 . S
Cd114 O125 2.439 . S
O115 Cd114 2.240 . S
O115 C120 1.279 . S
O116 Cd113 2.297 . S
O116 C118 1.247 . S
O117 Cd113 2.439 . S
O117 C118 1.208 . S
C118 O116 1.247 . S
C118 O117 1.208 . S
C119 O124 1.247 . S
C119 O125 1.208 . S
C120 O112 1.315 . S
C120 O115 1.279 . S
C121 O122 1.315 . S
C121 O123 1.279 . S
O122 Cd114 2.223 . S
O122 C121 1.315 . S
O123 Cd113 2.240 . S
O123 C121 1.279 . S
O124 Cd114 2.297 . S
O124 C119 1.247 . S
O125 Cd114 2.439 . S
O125 C119 1.208 . S
O126 Cd127 2.223 . S
O126 C134 1.315 . S
Cd127 O126 2.223 . S
Cd127 O130 2.297 . S
Cd127 O131 2.439 . S
Cd127 O137 2.240 . S
Cd128 O129 2.240 . S
Cd128 O136 2.223 . S
Cd128 O138 2.297 . S
Cd128 O139 2.439 . S
O129 Cd128 2.240 . S
O129 C134 1.279 . S
O130 Cd127 2.297 . S
O130 C132 1.247 . S
O131 Cd127 2.439 . S
O131 C132 1.208 . S
C132 O130 1.247 . S
C132 O131 1.208 . S
C133 O138 1.247 . S
C133 O139 1.208 . S
C134 O126 1.315 . S
C134 O129 1.279 . S
C135 O136 1.315 . S
C135 O137 1.279 . S
O136 Cd128 2.223 . S
O136 C135 1.315 . S
O137 Cd127 2.240 . S
O137 C135 1.279 . S
O138 Cd128 2.297 . S
O138 C133 1.247 . S
O139 Cd128 2.439 . S
O139 C133 1.208 . S
O140 Cd141 2.223 . S
O140 C148 1.315 . S
Cd141 O140 2.223 . S
Cd141 O144 2.297 . S
Cd141 O145 2.439 . S
Cd141 O151 2.240 . S
Cd142 O143 2.240 . S
Cd142 O150 2.223 . S
Cd142 O152 2.297 . S
Cd142 O153 2.439 . S
O143 Cd142 2.240 . S
O143 C148 1.279 . S
O144 Cd141 2.297 . S
O144 C146 1.247 . S
O145 Cd141 2.439 . S
O145 C146 1.208 . S
C146 O144 1.247 . S
C146 O145 1.208 . S
C147 O152 1.247 . S
C147 O153 1.208 . S
C148 O140 1.315 . S
C148 O143 1.279 . S
C149 O150 1.315 . S
C149 O151 1.279 . S
O150 Cd142 2.223 . S
O150 C149 1.315 . S
O151 Cd141 2.240 . S
O151 C149 1.279 . S
O152 Cd142 2.297 . S
O152 C147 1.247 . S
O153 Cd142 2.439 . S
O153 C147 1.208 . S
O154 Cd155 2.223 . S
O154 C162 1.315 . S
Cd155 O154 2.223 . S
Cd155 O158 2.297 . S
Cd155 O159 2.439 . S
Cd155 O165 2.240 . S
Cd156 O157 2.240 . S
Cd156 O164 2.223 . S
Cd156 O166 2.297 . S
Cd156 O167 2.439 . S
O157 Cd156 2.240 . S
O157 C162 1.279 . S
O158 Cd155 2.297 . S
O158 C160 1.247 . S
O159 Cd155 2.439 . S
O159 C160 1.208 . S
C160 O158 1.247 . S
C160 O159 1.208 . S
C161 O166 1.247 . S
C161 O167 1.208 . S
C162 O154 1.315 . S
C162 O157 1.279 . S
C163 O164 1.315 . S
C163 O165 1.279 . S
O164 Cd156 2.223 . S
O164 C163 1.315 . S
O165 Cd155 2.240 . S
O165 C163 1.279 . S
O166 Cd156 2.297 . S
O166 C161 1.247 . S
O167 Cd156 2.439 . S
O167 C161 1.208 . S
O168 Cd169 2.223 . S
O168 C176 1.315 . S
Cd169 O168 2.223 . S
Cd169 O172 2.297 . S
Cd169 O173 2.439 . S
Cd169 O179 2.240 . S
Cd170 O171 2.240 . S
Cd170 O178 2.223 . S
Cd170 O180 2.297 . S
Cd170 O181 2.439 . S
O171 Cd170 2.240 . S
O171 C176 1.279 . S
O172 Cd169 2.297 . S
O172 C174 1.247 . S
O173 Cd169 2.439 . S
O173 C174 1.208 . S
C174 O172 1.247 . S
C174 O173 1.208 . S
C175 O180 1.247 . S
C175 O181 1.208 . S
C176 O168 1.315 . S
C176 O171 1.279 . S
C177 O178 1.315 . S
C177 O179 1.279 . S
O178 Cd170 2.223 . S
O178 C177 1.315 . S
O179 Cd169 2.240 . S
O179 C177 1.279 . S
O180 Cd170 2.297 . S
O180 C175 1.247 . S
O181 Cd170 2.439 . S
O181 C175 1.208 . S
O182 Cd183 2.223 . S
O182 C190 1.315 . S
Cd183 O182 2.223 . S
Cd183 O186 2.297 . S
Cd183 O187 2.439 . S
Cd183 O193 2.240 . S
Cd184 O185 2.240 . S
Cd184 O192 2.223 . S
Cd184 O194 2.297 . S
Cd184 O195 2.439 . S
O185 Cd184 2.240 . S
O185 C190 1.279 . S
O186 Cd183 2.297 . S
O186 C188 1.247 . S
O187 Cd183 2.439 . S
O187 C188 1.208 . S
C188 O186 1.247 . S
C188 O187 1.208 . S
C189 O194 1.247 . S
C189 O195 1.208 . S
C190 O182 1.315 . S
C190 O185 1.279 . S
C191 O192 1.315 . S
C191 O193 1.279 . S
O192 Cd184 2.223 . S
O192 C191 1.315 . S
O193 Cd183 2.240 . S
O193 C191 1.279 . S
O194 Cd184 2.297 . S
O194 C189 1.247 . S
O195 Cd184 2.439 . S
O195 C189 1.208 . S
O196 Cd197 2.223 . S
O196 C204 1.315 . S
Cd197 O196 2.223 . S
Cd197 O200 2.297 . S
Cd197 O201 2.439 . S
Cd197 O207 2.240 . S
Cd198 O199 2.240 . S
Cd198 O206 2.223 . S
Cd198 O208 2.297 . S
Cd198 O209 2.439 . S
O199 Cd198 2.240 . S
O199 C204 1.279 . S
O200 Cd197 2.297 . S
O200 C202 1.247 . S
O201 Cd197 2.439 . S
O201 C202 1.208 . S
C202 O200 1.247 . S
C202 O201 1.208 . S
C203 O208 1.247 . S
C203 O209 1.208 . S
C204 O196 1.315 . S
C204 O199 1.279 . S
C205 O206 1.315 . S
C205 O207 1.279 . S
O206 Cd198 2.223 . S
O206 C205 1.315 . S
O207 Cd197 2.240 . S
O207 C205 1.279 . S
O208 Cd198 2.297 . S
O208 C203 1.247 . S
O209 Cd198 2.439 . S
O209 C203 1.208 . S
O210 Cd211 2.223 . S
O210 C218 1.315 . S
Cd211 O210 2.223 . S
Cd211 O214 2.297 . S
Cd211 O215 2.439 . S
Cd211 O221 2.240 . S
Cd212 O213 2.240 . S
Cd212 O220 2.223 . S
Cd212 O222 2.297 . S
Cd212 O223 2.439 . S
O213 Cd212 2.240 . S
O213 C218 1.279 . S
O214 Cd211 2.297 . S
O214 C216 1.247 . S
O215 Cd211 2.439 . S
O215 C216 1.208 . S
C216 O214 1.247 . S
C216 O215 1.208 . S
C217 O222 1.247 . S
C217 O223 1.208 . S
C218 O210 1.315 . S
C218 O213 1.279 . S
C219 O220 1.315 . S
C219 O221 1.279 . S
O220 Cd212 2.223 . S
O220 C219 1.315 . S
O221 Cd211 2.240 . S
O221 C219 1.279 . S
O222 Cd212 2.297 . S
O222 C217 1.247 . S
O223 Cd212 2.439 . S
O223 C217 1.208 . S
O224 Cd225 2.223 . S
O224 C232 1.315 . S
Cd225 O224 2.223 . S
Cd225 O228 2.297 . S
Cd225 O229 2.439 . S
Cd225 O235 2.240 . S
Cd226 O227 2.240 . S
Cd226 O234 2.223 . S
Cd226 O236 2.297 . S
Cd226 O237 2.439 . S
O227 Cd226 2.240 . S
O227 C232 1.279 . S
O228 Cd225 2.297 . S
O228 C230 1.247 . S
O229 Cd225 2.439 . S
O229 C230 1.208 . S
C230 O228 1.247 . S
C230 O229 1.208 . S
C231 O236 1.247 . S
C231 O237 1.208 . S
C232 O224 1.315 . S
C232 O227 1.279 . S
C233 O234 1.315 . S
C233 O235 1.279 . S
O234 Cd226 2.223 . S
O234 C233 1.315 . S
O235 Cd225 2.240 . S
O235 C233 1.279 . S
O236 Cd226 2.297 . S
O236 C231 1.247 . S
O237 Cd226 2.439 . S
O237 C231 1.208 . S
O238 Cd239 2.223 . S
O238 C246 1.315 . S
Cd239 O238 2.223 . S
Cd239 O242 2.297 . S
Cd239 O243 2.439 . S
Cd239 O249 2.240 . S
Cd240 O241 2.240 . S
Cd240 O248 2.223 . S
Cd240 O250 2.297 . S
Cd240 O251 2.439 . S
O241 Cd240 2.240 . S
O241 C246 1.279 . S
O242 Cd239 2.297 . S
O242 C244 1.247 . S
O243 Cd239 2.439 . S
O243 C244 1.208 . S
C244 O242 1.247 . S
C244 O243 1.208 . S
C245 O250 1.247 . S
C245 O251 1.208 . S
C246 O238 1.315 . S
C246 O241 1.279 . S
C247 O248 1.315 . S
C247 O249 1.279 . S
O248 Cd240 2.223 . S
O248 C247 1.315 . S
O249 Cd239 2.240 . S
O249 C247 1.279 . S
O250 Cd240 2.297 . S
O250 C245 1.247 . S
O251 Cd240 2.439 . S
O251 C245 1.208 . S
O252 Cd253 2.223 . S
O252 C260 1.315 . S
Cd253 O252 2.223 . S
Cd253 O256 2.297 . S
Cd253 O257 2.439 . S
Cd253 O263 2.240 . S
Cd254 O255 2.240 . S
Cd254 O262 2.223 . S
Cd254 O264 2.297 . S
Cd254 O265 2.439 . S
O255 Cd254 2.240 . S
O255 C260 1.279 . S
O256 Cd253 2.297 . S
O256 C258 1.247 . S
O257 Cd253 2.439 . S
O257 C258 1.208 . S
C258 O256 1.247 . S
C258 O257 1.208 . S
C259 O264 1.247 . S
C259 O265 1.208 . S
C260 O252 1.315 . S
C260 O255 1.279 . S
C261 O262 1.315 . S
C261 O263 1.279 . S
O262 Cd254 2.223 . S
O262 C261 1.315 . S
O263 Cd253 2.240 . S
O263 C261 1.279 . S
O264 Cd254 2.297 . S
O264 C259 1.247 . S
O265 Cd254 2.439 . S
O265 C259 1.208 . S
O266 Cd267 2.223 . S
O266 C274 1.315 . S
Cd267 O266 2.223 . S
Cd267 O270 2.297 . S
Cd267 O271 2.439 . S
Cd267 O277 2.240 . S
Cd268 O269 2.240 . S
Cd268 O276 2.223 . S
Cd268 O278 2.297 . S
Cd268 O279 2.439 . S
O269 Cd268 2.240 . S
O269 C274 1.279 . S
O270 Cd267 2.297 . S
O270 C272 1.247 . S
O271 Cd267 2.439 . S
O271 C272 1.208 . S
C272 O270 1.247 . S
C272 O271 1.208 . S
C273 O278 1.247 . S
C273 O279 1.208 . S
C274 O266 1.315 . S
C274 O269 1.279 . S
C275 O276 1.315 . S
C275 O277 1.279 . S
O276 Cd268 2.223 . S
O276 C275 1.315 . S
O277 Cd267 2.240 . S
O277 C275 1.279 . S
O278 Cd268 2.297 . S
O278 C273 1.247 . S
O279 Cd268 2.439 . S
O279 C273 1.208 . S
O280 Cd281 2.223 . S
O280 C288 1.315 . S
Cd281 O280 2.223 . S
Cd281 O284 2.297 . S
Cd281 O285 2.439 . S
Cd281 O291 2.240 . S
Cd282 O283 2.240 . S
Cd282 O290 2.223 . S
Cd282 O292 2.297 . S
Cd282 O293 2.439 . S
O283 Cd282 2.240 . S
O283 C288 1.279 . S
O284 Cd281 2.297 . S
O284 C286 1.247 . S
O285 Cd281 2.439 . S
O285 C286 1.208 . S
C286 O284 1.247 . S
C286 O285 1.208 . S
C287 O292 1.247 . S
C287 O293 1.208 . S
C288 O280 1.315 . S
C288 O283 1.279 . S
C289 O290 1.315 . S
C289 O291 1.279 . S
O290 Cd282 2.223 . S
O290 C289 1.315 . S
O291 Cd281 2.240 . S
O291 C289 1.279 . S
O292 Cd282 2.297 . S
O292 C287 1.247 . S
O293 Cd282 2.439 . S
O293 C287 1.208 . S
O294 Cd295 2.223 . S
O294 C302 1.315 . S
Cd295 O294 2.223 . S
Cd295 O298 2.297 . S
Cd295 O299 2.439 . S
Cd295 O305 2.240 . S
Cd296 O297 2.240 . S
Cd296 O304 2.223 . S
Cd296 O306 2.297 . S
Cd296 O307 2.439 . S
O297 Cd296 2.240 . S
O297 C302 1.279 . S
O298 Cd295 2.297 . S
O298 C300 1.247 . S
O299 Cd295 2.439 . S
O299 C300 1.208 . S
C300 O298 1.247 . S
C300 O299 1.208 . S
C301 O306 1.247 . S
C301 O307 1.208 . S
C302 O294 1.315 . S
C302 O297 1.279 . S
C303 O304 1.315 . S
C303 O305 1.279 . S
O304 Cd296 2.223 . S
O304 C303 1.315 . S
O305 Cd295 2.240 . S
O305 C303 1.279 . S
O306 Cd296 2.297 . S
O306 C301 1.247 . S
O307 Cd296 2.439 . S
O307 C301 1.208 . S
O308 Cd309 2.223 . S
O308 C316 1.315 . S
Cd309 O308 2.223 . S
Cd309 O312 2.297 . S
Cd309 O313 2.439 . S
Cd309 O319 2.240 . S
Cd310 O311 2.240 . S
Cd310 O318 2.223 . S
Cd310 O320 2.297 . S
Cd310 O321 2.439 . S
O311 Cd310 2.240 . S
O311 C316 1.279 . S
O312 Cd309 2.297 . S
O312 C314 1.247 . S
O313 Cd309 2.439 . S
O313 C314 1.208 . S
C314 O312 1.247 . S
C314 O313 1.208 . S
C315 O320 1.247 . S
C315 O321 1.208 . S
C316 O308 1.315 . S
C316 O311 1.279 . S
C317 O318 1.315 . S
C317 O319 1.279 . S
O318 Cd310 2.223 . S
O318 C317 1.315 . S
O319 Cd309 2.240 . S
O319 C317 1.279 . S
O320 Cd310 2.297 . S
O320 C315 1.247 . S
O321 Cd310 2.439 . S
O321 C315 1.208 . S
O322 Cd323 2.223 . S
O322 C330 1.315 . S
Cd323 O322 2.223 . S
Cd323 O326 2.297 . S
Cd323 O327 2.439 . S
Cd323 O333 2.240 . S
Cd324 O325 2.240 . S
Cd324 O332 2.223 . S
Cd324 O334 2.297 . S
Cd324 O335 2.439 . S
O325 Cd324 2.240 . S
O325 C330 1.279 . S
O326 Cd323 2.297 . S
O326 C328 1.247 . S
O327 Cd323 2.439 . S
O327 C328 1.208 . S
C328 O326 1.247 . S
C328 O327 1.208 . S
C329 O334 1.247 . S
C329 O335 1.208 . S
C330 O322 1.315 . S
C330 O325 1.279 . S
C331 O332 1.315 . S
C331 O333 1.279 . S
O332 Cd324 2.223 . S
O332 C331 1.315 . S
O333 Cd323 2.240 . S
O333 C331 1.279 . S
O334 Cd324 2.297 . S
O334 C329 1.247 . S
O335 Cd324 2.439 . S
O335 C329 1.208 . S
O336 Cd337 2.223 . S
O336 C344 1.315 . S
Cd337 O336 2.223 . S
Cd337 O340 2.297 . S
Cd337 O341 2.439 . S
Cd337 O347 2.240 . S
Cd338 O339 2.240 . S
Cd338 O346 2.223 . S
Cd338 O348 2.297 . S
Cd338 O349 2.439 . S
O339 Cd338 2.240 . S
O339 C344 1.279 . S
O340 Cd337 2.297 . S
O340 C342 1.247 . S
O341 Cd337 2.439 . S
O341 C342 1.208 . S
C342 O340 1.247 . S
C342 O341 1.208 . S
C343 O348 1.247 . S
C343 O349 1.208 . S
C344 O336 1.315 . S
C344 O339 1.279 . S
C345 O346 1.315 . S
C345 O347 1.279 . S
O346 Cd338 2.223 . S
O346 C345 1.315 . S
O347 Cd337 2.240 . S
O347 C345 1.279 . S
O348 Cd338 2.297 . S
O348 C343 1.247 . S
O349 Cd338 2.439 . S
O349 C343 1.208 . S
O350 Cd351 2.223 . S
O350 C358 1.315 . S
Cd351 O350 2.223 . S
Cd351 O354 2.297 . S
Cd351 O355 2.439 . S
Cd351 O361 2.240 . S
Cd352 O353 2.240 . S
Cd352 O360 2.223 . S
Cd352 O362 2.297 . S
Cd352 O363 2.439 . S
O353 Cd352 2.240 . S
O353 C358 1.279 . S
O354 Cd351 2.297 . S
O354 C356 1.247 . S
O355 Cd351 2.439 . S
O355 C356 1.208 . S
C356 O354 1.247 . S
C356 O355 1.208 . S
C357 O362 1.247 . S
C357 O363 1.208 . S
C358 O350 1.315 . S
C358 O353 1.279 . S
C359 O360 1.315 . S
C359 O361 1.279 . S
O360 Cd352 2.223 . S
O360 C359 1.315 . S
O361 Cd351 2.240 . S
O361 C359 1.279 . S
O362 Cd352 2.297 . S
O362 C357 1.247 . S
O363 Cd352 2.439 . S
O363 C357 1.208 . S
O364 Cd365 2.223 . S
O364 C372 1.315 . S
Cd365 O364 2.223 . S
Cd365 O368 2.297 . S
Cd365 O369 2.439 . S
Cd365 O375 2.240 . S
Cd366 O367 2.240 . S
Cd366 O374 2.223 . S
Cd366 O376 2.297 . S
Cd366 O377 2.439 . S
O367 Cd366 2.240 . S
O367 C372 1.279 . S
O368 Cd365 2.297 . S
O368 C370 1.247 . S
O369 Cd365 2.439 . S
O369 C370 1.208 . S
C370 O368 1.247 . S
C370 O369 1.208 . S
C371 O376 1.247 . S
C371 O377 1.208 . S
C372 O364 1.315 . S
C372 O367 1.279 . S
C373 O374 1.315 . S
C373 O375 1.279 . S
O374 Cd366 2.223 . S
O374 C373 1.315 . S
O375 Cd365 2.240 . S
O375 C373 1.279 . S
O376 Cd366 2.297 . S
O376 C371 1.247 . S
O377 Cd366 2.439 . S
O377 C371 1.208 . S
O378 Cd379 2.223 . S
O378 C386 1.315 . S
Cd379 O378 2.223 . S
Cd379 O382 2.297 . S
Cd379 O383 2.439 . S
Cd379 O389 2.240 . S
Cd380 O381 2.240 . S
Cd380 O388 2.223 . S
Cd380 O390 2.297 . S
Cd380 O391 2.439 . S
O381 Cd380 2.240 . S
O381 C386 1.279 . S
O382 Cd379 2.297 . S
O382 C384 1.247 . S
O383 Cd379 2.439 . S
O383 C384 1.208 . S
C384 O382 1.247 . S
C384 O383 1.208 . S
C385 O390 1.247 . S
C385 O391 1.208 . S
C386 O378 1.315 . S
C386 O381 1.279 . S
C387 O388 1.315 . S
C387 O389 1.279 . S
O388 Cd380 2.223 . S
O388 C387 1.315 . S
O389 Cd379 2.240 . S
O389 C387 1.279 . S
O390 Cd380 2.297 . S
O390 C385 1.247 . S
O391 Cd380 2.439 . S
O391 C385 1.208 . S
O392 Cd393 2.223 . S
O392 C400 1.315 . S
Cd393 O392 2.223 . S
Cd393 O396 2.297 . S
Cd393 O397 2.439 . S
Cd393 O403 2.240 . S
Cd394 O395 2.240 . S
Cd394 O402 2.223 . S
Cd394 O404 2.297 . S
Cd394 O405 2.439 . S
O395 Cd394 2.240 . S
O395 C400 1.279 . S
O396 Cd393 2.297 . S
O396 C398 1.247 . S
O397 Cd393 2.439 . S
O397 C398 1.208 . S
C398 O396 1.247 . S
C398 O397 1.208 . S
C399 O404 1.247 . S
C399 O405 1.208 . S
C400 O392 1.315 . S
C400 O395 1.279 . S
C401 O402 1.315 . S
C401 O403 1.279 . S
O402 Cd394 2.223 . S
O402 C401 1.315 . S
O403 Cd393 2.240 . S
O403 C401 1.279 . S
O404 Cd394 2.297 . S
O404 C399 1.247 . S
O405 Cd394 2.439 . S
O405 C399 1.208 . S
O406 Cd407 2.223 . S
O406 C414 1.315 . S
Cd407 O406 2.223 . S
Cd407 O410 2.297 . S
Cd407 O411 2.439 . S
Cd407 O417 2.240 . S
Cd408 O409 2.240 . S
Cd408 O416 2.223 . S
Cd408 O418 2.297 . S
Cd408 O419 2.439 . S
O409 Cd408 2.240 . S
O409 C414 1.279 . S
O410 Cd407 2.297 . S
O410 C412 1.247 . S
O411 Cd407 2.439 . S
O411 C412 1.208 . S
C412 O410 1.247 . S
C412 O411 1.208 . S
C413 O418 1.247 . S
C413 O419 1.208 . S
C414 O406 1.315 . S
C414 O409 1.279 . S
C415 O416 1.315 . S
C415 O417 1.279 . S
O416 Cd408 2.223 . S
O416 C415 1.315 . S
O417 Cd407 2.240 . S
O417 C415 1.279 . S
O418 Cd408 2.297 . S
O418 C413 1.247 . S
O419 Cd408 2.439 . S
O419 C413 1.208 . S
O420 Cd421 2.223 . S
O420 C428 1.315 . S
Cd421 O420 2.223 . S
Cd421 O424 2.297 . S
Cd421 O425 2.439 . S
Cd421 O431 2.240 . S
Cd422 O423 2.240 . S
Cd422 O430 2.223 . S
Cd422 O432 2.297 . S
Cd422 O433 2.439 . S
O423 Cd422 2.240 . S
O423 C428 1.279 . S
O424 Cd421 2.297 . S
O424 C426 1.247 . S
O425 Cd421 2.439 . S
O425 C426 1.208 . S
C426 O424 1.247 . S
C426 O425 1.208 . S
C427 O432 1.247 . S
C427 O433 1.208 . S
C428 O420 1.315 . S
C428 O423 1.279 . S
C429 O430 1.315 . S
C429 O431 1.279 . S
O430 Cd422 2.223 . S
O430 C429 1.315 . S
O431 Cd421 2.240 . S
O431 C429 1.279 . S
O432 Cd422 2.297 . S
O432 C427 1.247 . S
O433 Cd422 2.439 . S
O433 C427 1.208 . S
O434 Cd435 2.223 . S
O434 C442 1.315 . S
Cd435 O434 2.223 . S
Cd435 O438 2.297 . S
Cd435 O439 2.439 . S
Cd435 O445 2.240 . S
Cd436 O437 2.240 . S
Cd436 O444 2.223 . S
Cd436 O446 2.297 . S
Cd436 O447 2.439 . S
O437 Cd436 2.240 . S
O437 C442 1.279 . S
O438 Cd435 2.297 . S
O438 C440 1.247 . S
O439 Cd435 2.439 . S
O439 C440 1.208 . S
C440 O438 1.247 . S
C440 O439 1.208 . S
C441 O446 1.247 . S
C441 O447 1.208 . S
C442 O434 1.315 . S
C442 O437 1.279 . S
C443 O444 1.315 . S
C443 O445 1.279 . S
O444 Cd436 2.223 . S
O444 C443 1.315 . S
O445 Cd435 2.240 . S
O445 C443 1.279 . S
O446 Cd436 2.297 . S
O446 C441 1.247 . S
O447 Cd436 2.439 . S
O447 C441 1.208 . S
O448 Cd449 2.223 . S
O448 C456 1.315 . S
Cd449 O448 2.223 . S
Cd449 O452 2.297 . S
Cd449 O453 2.439 . S
Cd449 O459 2.240 . S
Cd450 O451 2.240 . S
Cd450 O458 2.223 . S
Cd450 O460 2.297 . S
Cd450 O461 2.439 . S
O451 Cd450 2.240 . S
O451 C456 1.279 . S
O452 Cd449 2.297 . S
O452 C454 1.247 . S
O453 Cd449 2.439 . S
O453 C454 1.208 . S
C454 O452 1.247 . S
C454 O453 1.208 . S
C455 O460 1.247 . S
C455 O461 1.208 . S
C456 O448 1.315 . S
C456 O451 1.279 . S
C457 O458 1.315 . S
C457 O459 1.279 . S
O458 Cd450 2.223 . S
O458 C457 1.315 . S
O459 Cd449 2.240 . S
O459 C457 1.279 . S
O460 Cd450 2.297 . S
O460 C455 1.247 . S
O461 Cd450 2.439 . S
O461 C455 1.208 . S
O462 Cd463 2.223 . S
O462 C470 1.315 . S
Cd463 O462 2.223 . S
Cd463 O466 2.297 . S
Cd463 O467 2.439 . S
Cd463 O473 2.240 . S
Cd464 O465 2.240 . S
Cd464 O472 2.223 . S
Cd464 O474 2.297 . S
Cd464 O475 2.439 . S
O465 Cd464 2.240 . S
O465 C470 1.279 . S
O466 Cd463 2.297 . S
O466 C468 1.247 . S
O467 Cd463 2.439 . S
O467 C468 1.208 . S
C468 O466 1.247 . S
C468 O467 1.208 . S
C469 O474 1.247 . S
C469 O475 1.208 . S
C470 O462 1.315 . S
C470 O465 1.279 . S
C471 O472 1.315 . S
C471 O473 1.279 . S
O472 Cd464 2.223 . S
O472 C471 1.315 . S
O473 Cd463 2.240 . S
O473 C471 1.279 . S
O474 Cd464 2.297 . S
O474 C469 1.247 . S
O475 Cd464 2.439 . S
O475 C469 1.208 . S
O476 Cd477 2.223 . S
O476 C484 1.315 . S
Cd477 O476 2.223 . S
Cd477 O480 2.297 . S
Cd477 O481 2.439 . S
Cd477 O487 2.240 . S
Cd478 O479 2.240 . S
Cd478 O486 2.223 . S
Cd478 O488 2.297 . S
Cd478 O489 2.439 . S
O479 Cd478 2.240 . S
O479 C484 1.279 . S
O480 Cd477 2.297 . S
O480 C482 1.247 . S
O481 Cd477 2.439 . S
O481 C482 1.208 . S
C482 O480 1.247 . S
C482 O481 1.208 . S
C483 O488 1.247 . S
C483 O489 1.208 . S
C484 O476 1.315 . S
C484 O479 1.279 . S
C485 O486 1.315 . S
C485 O487 1.279 . S
O486 Cd478 2.223 . S
O486 C485 1.315 . S
O487 Cd477 2.240 . S
O487 C485 1.279 . S
O488 Cd478 2.297 . S
O488 C483 1.247 . S
O489 Cd478 2.439 . S
O489 C483 1.208 . S
O490 Cd491 2.223 . S
O490 C498 1.315 . S
Cd491 O490 2.223 . S
Cd491 O494 2.297 . S
Cd491 O495 2.439 . S
Cd491 O501 2.240 . S
Cd492 O493 2.240 . S
Cd492 O500 2.223 . S
Cd492 O502 2.297 . S
Cd492 O503 2.439 . S
O493 Cd492 2.240 . S
O493 C498 1.279 . S
O494 Cd491 2.297 . S
O494 C496 1.247 . S
O495 Cd491 2.439 . S
O495 C496 1.208 . S
C496 O494 1.247 . S
C496 O495 1.208 . S
C497 O502 1.247 . S
C497 O503 1.208 . S
C498 O490 1.315 . S
C498 O493 1.279 . S
C499 O500 1.315 . S
C499 O501 1.279 . S
O500 Cd492 2.223 . S
O500 C499 1.315 . S
O501 Cd491 2.240 . S
O501 C499 1.279 . S
O502 Cd492 2.297 . S
O502 C497 1.247 . S
O503 Cd492 2.439 . S
O503 C497 1.208 . S
O504 Cd505 2.223 . S
O504 C512 1.315 . S
Cd505 O504 2.223 . S
Cd505 O508 2.297 . S
Cd505 O509 2.439 . S
Cd505 O515 2.240 . S
Cd506 O507 2.240 . S
Cd506 O514 2.223 . S
Cd506 O516 2.297 . S
Cd506 O517 2.439 . S
O507 Cd506 2.240 . S
O507 C512 1.279 . S
O508 Cd505 2.297 . S
O508 C510 1.247 . S
O509 Cd505 2.439 . S
O509 C510 1.208 . S
C510 O508 1.247 . S
C510 O509 1.208 . S
C511 O516 1.247 . S
C511 O517 1.208 . S
C512 O504 1.315 . S
C512 O507 1.279 . S
C513 O514 1.315 . S
C513 O515 1.279 . S
O514 Cd506 2.223 . S
O514 C513 1.315 . S
O515 Cd505 2.240 . S
O515 C513 1.279 . S
O516 Cd506 2.297 . S
O516 C511 1.247 . S
O517 Cd506 2.439 . S
O517 C511 1.208 . S
O518 Cd519 2.223 . S
O518 C526 1.315 . S
Cd519 O518 2.223 . S
Cd519 O522 2.297 . S
Cd519 O523 2.439 . S
Cd519 O529 2.240 . S
Cd520 O521 2.240 . S
Cd520 O528 2.223 . S
Cd520 O530 2.297 . S
Cd520 O531 2.439 . S
O521 Cd520 2.240 . S
O521 C526 1.279 . S
O522 Cd519 2.297 . S
O522 C524 1.247 . S
O523 Cd519 2.439 . S
O523 C524 1.208 . S
C524 O522 1.247 . S
C524 O523 1.208 . S
C525 O530 1.247 . S
C525 O531 1.208 . S
C526 O518 1.315 . S
C526 O521 1.279 . S
C527 O528 1.315 . S
C527 O529 1.279 . S
O528 Cd520 2.223 . S
O528 C527 1.315 . S
O529 Cd519 2.240 . S
O529 C527 1.279 . S
O530 Cd520 2.297 . S
O530 C525 1.247 . S
O531 Cd520 2.439 . S
O531 C525 1.208 . S
O532 Cd533 2.223 . S
O532 C540 1.315 . S
Cd533 O532 2.223 . S
Cd533 O536 2.297 . S
Cd533 O537 2.439 . S
Cd533 O543 2.240 . S
Cd534 O535 2.240 . S
Cd534 O542 2.223 . S
Cd534 O544 2.297 . S
Cd534 O545 2.439 . S
O535 Cd534 2.240 . S
O535 C540 1.279 . S
O536 Cd533 2.297 . S
O536 C538 1.247 . S
O537 Cd533 2.439 . S
O537 C538 1.208 . S
C538 O536 1.247 . S
C538 O537 1.208 . S
C539 O544 1.247 . S
C539 O545 1.208 . S
C540 O532 1.315 . S
C540 O535 1.279 . S
C541 O542 1.315 . S
C541 O543 1.279 . S
O542 Cd534 2.223 . S
O542 C541 1.315 . S
O543 Cd533 2.240 . S
O543 C541 1.279 . S
O544 Cd534 2.297 . S
O544 C539 1.247 . S
O545 Cd534 2.439 . S
O545 C539 1.208 . S
O546 Cd547 2.223 . S
O546 C554 1.315 . S
Cd547 O546 2.223 . S
Cd547 O550 2.297 . S
Cd547 O551 2.439 . S
Cd547 O557 2.240 . S
Cd548 O549 2.240 . S
Cd548 O556 2.223 . S
Cd548 O558 2.297 . S
Cd548 O559 2.439 . S
O549 Cd548 2.240 . S
O549 C554 1.279 . S
O550 Cd547 2.297 . S
O550 C552 1.247 . S
O551 Cd547 2.439 . S
O551 C552 1.208 . S
C552 O550 1.247 . S
C552 O551 1.208 . S
C553 O558 1.247 . S
C553 O559 1.208 . S
C554 O546 1.315 . S
C554 O549 1.279 . S
C555 O556 1.315 . S
C555 O557 1.279 . S
O556 Cd548 2.223 . S
O556 C555 1.315 . S
O557 Cd547 2.240 . S
O557 C555 1.279 . S
O558 Cd548 2.297 . S
O558 C553 1.247 . S
O559 Cd548 2.439 . S
O559 C553 1.208 . S
O560 Cd561 2.223 . S
O560 C568 1.315 . S
Cd561 O560 2.223 . S
Cd561 O564 2.297 . S
Cd561 O565 2.439 . S
Cd561 O571 2.240 . S
Cd562 O563 2.240 . S
Cd562 O570 2.223 . S
Cd562 O572 2.297 . S
Cd562 O573 2.439 . S
O563 Cd562 2.240 . S
O563 C568 1.279 . S
O564 Cd561 2.297 . S
O564 C566 1.247 . S
O565 Cd561 2.439 . S
O565 C566 1.208 . S
C566 O564 1.247 . S
C566 O565 1.208 . S
C567 O572 1.247 . S
C567 O573 1.208 . S
C568 O560 1.315 . S
C568 O563 1.279 . S
C569 O570 1.315 . S
C569 O571 1.279 . S
O570 Cd562 2.223 . S
O570 C569 1.315 . S
O571 Cd561 2.240 . S
O571 C569 1.279 . S
O572 Cd562 2.297 . S
O572 C567 1.247 . S
O573 Cd562 2.439 . S
O573 C567 1.208 . S
O574 Cd575 2.223 . S
O574 C582 1.315 . S
Cd575 O574 2.223 . S
Cd575 O578 2.297 . S
Cd575 O579 2.439 . S
Cd575 O585 2.240 . S
Cd576 O577 2.240 . S
Cd576 O584 2.223 . S
Cd576 O586 2.297 . S
Cd576 O587 2.439 . S
O577 Cd576 2.240 . S
O577 C582 1.279 . S
O578 Cd575 2.297 . S
O578 C580 1.247 . S
O579 Cd575 2.439 . S
O579 C580 1.208 . S
C580 O578 1.247 . S
C580 O579 1.208 . S
C581 O586 1.247 . S
C581 O587 1.208 . S
C582 O574 1.315 . S
C582 O577 1.279 . S
C583 O584 1.315 . S
C583 O585 1.279 . S
O584 Cd576 2.223 . S
O584 C583 1.315 . S
O585 Cd575 2.240 . S
O585 C583 1.279 . S
O586 Cd576 2.297 . S
O586 C581 1.247 . S
O587 Cd576 2.439 . S
O587 C581 1.208 . S
O588 Cd589 2.223 . S
O588 C596 1.315 . S
Cd589 O588 2.223 . S
Cd589 O592 2.297 . S
Cd589 O593 2.439 . S
Cd589 O599 2.240 . S
Cd590 O591 2.240 . S
Cd590 O598 2.223 . S
Cd590 O600 2.297 . S
Cd590 O601 2.439 . S
O591 Cd590 2.240 . S
O591 C596 1.279 . S
O592 Cd589 2.297 . S
O592 C594 1.247 . S
O593 Cd589 2.439 . S
O593 C594 1.208 . S
C594 O592 1.247 . S
C594 O593 1.208 . S
C595 O600 1.247 . S
C595 O601 1.208 . S
C596 O588 1.315 . S
C596 O591 1.279 . S
C597 O598 1.315 . S
C597 O599 1.279 . S
O598 Cd590 2.223 . S
O598 C597 1.315 . S
O599 Cd589 2.240 . S
O599 C597 1.279 . S
O600 Cd590 2.297 . S
O600 C595 1.247 . S
O601 Cd590 2.439 . S
O601 C595 1.208 . S
O602 Cd603 2.223 . S
O602 C610 1.315 . S
Cd603 O602 2.223 . S
Cd603 O606 2.297 . S
Cd603 O607 2.439 . S
Cd603 O613 2.240 . S
Cd604 O605 2.240 . S
Cd604 O612 2.223 . S
Cd604 O614 2.297 . S
Cd604 O615 2.439 . S
O605 Cd604 2.240 . S
O605 C610 1.279 . S
O606 Cd603 2.297 . S
O606 C608 1.247 . S
O607 Cd603 2.439 . S
O607 C608 1.208 . S
C608 O606 1.247 . S
C608 O607 1.208 . S
C609 O614 1.247 . S
C609 O615 1.208 . S
C610 O602 1.315 . S
C610 O605 1.279 . S
C611 O612 1.315 . S
C611 O613 1.279 . S
O612 Cd604 2.223 . S
O612 C611 1.315 . S
O613 Cd603 2.240 . S
O613 C611 1.279 . S
O614 Cd604 2.297 . S
O614 C609 1.247 . S
O615 Cd604 2.439 . S
O615 C609 1.208 . S
O616 Cd617 2.223 . S
O616 C624 1.315 . S
Cd617 O616 2.223 . S
Cd617 O620 2.297 . S
Cd617 O621 2.439 . S
Cd617 O627 2.240 . S
Cd618 O619 2.240 . S
Cd618 O626 2.223 . S
Cd618 O628 2.297 . S
Cd618 O629 2.439 . S
O619 Cd618 2.240 . S
O619 C624 1.279 . S
O620 Cd617 2.297 . S
O620 C622 1.247 . S
O621 Cd617 2.439 . S
O621 C622 1.208 . S
C622 O620 1.247 . S
C622 O621 1.208 . S
C623 O628 1.247 . S
C623 O629 1.208 . S
C624 O616 1.315 . S
C624 O619 1.279 . S
C625 O626 1.315 . S
C625 O627 1.279 . S
O626 Cd618 2.223 . S
O626 C625 1.315 . S
O627 Cd617 2.240 . S
O627 C625 1.279 . S
O628 Cd618 2.297 . S
O628 C623 1.247 . S
O629 Cd618 2.439 . S
O629 C623 1.208 . S
O630 Cd631 2.223 . S
O630 C638 1.315 . S
Cd631 O630 2.223 . S
Cd631 O634 2.297 . S
Cd631 O635 2.439 . S
Cd631 O641 2.240 . S
Cd632 O633 2.240 . S
Cd632 O640 2.223 . S
Cd632 O642 2.297 . S
Cd632 O643 2.439 . S
O633 Cd632 2.240 . S
O633 C638 1.279 . S
O634 Cd631 2.297 . S
O634 C636 1.247 . S
O635 Cd631 2.439 . S
O635 C636 1.208 . S
C636 O634 1.247 . S
C636 O635 1.208 . S
C637 O642 1.247 . S
C637 O643 1.208 . S
C638 O630 1.315 . S
C638 O633 1.279 . S
C639 O640 1.315 . S
C639 O641 1.279 . S
O640 Cd632 2.223 . S
O640 C639 1.315 . S
O641 Cd631 2.240 . S
O641 C639 1.279 . S
O642 Cd632 2.297 . S
O642 C637 1.247 . S
O643 Cd632 2.439 . S
O643 C637 1.208 . S
O644 Cd645 2.223 . S
O644 C652 1.315 . S
Cd645 O644 2.223 . S
Cd645 O648 2.297 . S
Cd645 O649 2.439 . S
Cd645 O655 2.240 . S
Cd646 O647 2.240 . S
Cd646 O654 2.223 . S
Cd646 O656 2.297 . S
Cd646 O657 2.439 . S
O647 Cd646 2.240 . S
O647 C652 1.279 . S
O648 Cd645 2.297 . S
O648 C650 1.247 . S
O649 Cd645 2.439 . S
O649 C650 1.208 . S
C650 O648 1.247 . S
C650 O649 1.208 . S
C651 O656 1.247 . S
C651 O657 1.208 . S
C652 O644 1.315 . S
C652 O647 1.279 . S
C653 O654 1.315 . S
C653 O655 1.279 . S
O654 Cd646 2.223 . S
O654 C653 1.315 . S
O655 Cd645 2.240 . S
O655 C653 1.279 . S
O656 Cd646 2.297 . S
O656 C651 1.247 . S
O657 Cd646 2.439 . S
O657 C651 1.208 . S
O658 Cd659 2.223 . S
O658 C666 1.315 . S
Cd659 O658 2.223 . S
Cd659 O662 2.297 . S
Cd659 O663 2.439 . S
Cd659 O669 2.240 . S
Cd660 O661 2.240 . S
Cd660 O668 2.223 . S
Cd660 O670 2.297 . S
Cd660 O671 2.439 . S
O661 Cd660 2.240 . S
O661 C666 1.279 . S
O662 Cd659 2.297 . S
O662 C664 1.247 . S
O663 Cd659 2.439 . S
O663 C664 1.208 . S
C664 O662 1.247 . S
C664 O663 1.208 . S
C665 O670 1.247 . S
C665 O671 1.208 . S
C666 O658 1.315 . S
C666 O661 1.279 . S
C667 O668 1.315 . S
C667 O669 1.279 . S
O668 Cd660 2.223 . S
O668 C667 1.315 . S
O669 Cd659 2.240 . S
O669 C667 1.279 . S
O670 Cd660 2.297 . S
O670 C665 1.247 . S
O671 Cd660 2.439 . S
O671 C665 1.208 . S
H672 C680 0.950 . S
H673 C685 0.950 . S
H674 C682 0.950 . S
H675 C684 0.950 . S
H676 C686 0.950 . S
H677 C688 0.950 . S
H678 C690 0.950 . S
H679 C691 0.950 . S
C680 H672 0.950 . S
C680 C681 1.386 . S
C680 C682 1.391 . S
C681 C680 1.386 . S
C681 C685 1.393 . S
C682 H674 0.950 . S
C682 C680 1.391 . S
C682 C683 1.400 . S
C683 C682 1.400 . S
C683 C684 1.398 . S
C683 C689 1.491 1_655 S
C684 H675 0.950 . S
C684 C683 1.398 . S
C684 C685 1.391 . S
C685 H673 0.950 . S
C685 C681 1.393 . S
C685 C684 1.391 . S
C686 H676 0.950 . S
C686 C687 1.386 . S
C686 C688 1.391 . S
C687 C686 1.386 . S
C687 C691 1.393 . S
C688 H677 0.950 . S
C688 C686 1.391 . S
C688 C689 1.400 . S
C689 C683 1.491 1_455 S
C689 C688 1.400 . S
C689 C690 1.398 . S
C690 H678 0.950 . S
C690 C689 1.398 . S
C690 C691 1.391 . S
C691 H679 0.950 . S
C691 C687 1.393 . S
C691 C690 1.391 . S
H692 C700 0.950 . S
H693 C705 0.950 . S
H694 C702 0.950 . S
H695 C704 0.950 . S
H696 C706 0.950 . S
H697 C708 0.950 . S
H698 C710 0.950 . S
H699 C711 0.950 . S
C700 H692 0.950 . S
C700 C701 1.386 . S
C700 C702 1.391 . S
C701 C700 1.386 . S
C701 C705 1.393 . S
C702 H694 0.950 . S
C702 C700 1.391 . S
C702 C703 1.400 . S
C703 C702 1.400 . S
C703 C704 1.398 . S
C703 C709 1.491 . S
C704 H695 0.950 . S
C704 C703 1.398 . S
C704 C705 1.391 . S
C705 H693 0.950 . S
C705 C701 1.393 . S
C705 C704 1.391 . S
C706 H696 0.950 . S
C706 C707 1.386 . S
C706 C708 1.391 . S
C707 C706 1.386 . S
C707 C711 1.393 . S
C708 H697 0.950 . S
C708 C706 1.391 . S
C708 C709 1.400 . S
C709 C703 1.491 . S
C709 C708 1.400 . S
C709 C710 1.398 . S
C710 H698 0.950 . S
C710 C709 1.398 . S
C710 C711 1.391 . S
C711 H699 0.950 . S
C711 C707 1.393 . S
C711 C710 1.391 . S
H712 C720 0.950 . S
H713 C725 0.950 . S
H714 C722 0.950 . S
H715 C724 0.950 . S
H716 C726 0.950 . S
H717 C728 0.950 . S
H718 C730 0.950 . S
H719 C731 0.950 . S
C720 H712 0.950 . S
C720 C721 1.386 . S
C720 C722 1.391 . S
C721 C720 1.386 . S
C721 C725 1.393 . S
C722 H714 0.950 . S
C722 C720 1.391 . S
C722 C723 1.400 . S
C723 C722 1.400 . S
C723 C724 1.398 . S
C723 C729 1.491 1_455 S
C724 H715 0.950 . S
C724 C723 1.398 . S
C724 C725 1.391 . S
C725 H713 0.950 . S
C725 C721 1.393 . S
C725 C724 1.391 . S
C726 H716 0.950 . S
C726 C727 1.386 . S
C726 C728 1.391 . S
C727 C726 1.386 . S
C727 C731 1.393 . S
C728 H717 0.950 . S
C728 C726 1.391 . S
C728 C729 1.400 . S
C729 C723 1.491 1_655 S
C729 C728 1.400 . S
C729 C730 1.398 . S
C730 H718 0.950 . S
C730 C729 1.398 . S
C730 C731 1.391 . S
C731 H719 0.950 . S
C731 C727 1.393 . S
C731 C730 1.391 . S
H732 C740 0.950 . S
H733 C745 0.950 . S
H734 C742 0.950 . S
H735 C744 0.950 . S
H736 C746 0.950 . S
H737 C748 0.950 . S
H738 C750 0.950 . S
H739 C751 0.950 . S
C740 H732 0.950 . S
C740 C741 1.386 . S
C740 C742 1.391 . S
C741 C740 1.386 . S
C741 C745 1.393 . S
C742 H734 0.950 . S
C742 C740 1.391 . S
C742 C743 1.400 . S
C743 C742 1.400 . S
C743 C744 1.398 . S
C743 C749 1.491 . S
C744 H735 0.950 . S
C744 C743 1.398 . S
C744 C745 1.391 . S
C745 H733 0.950 . S
C745 C741 1.393 . S
C745 C744 1.391 . S
C746 H736 0.950 . S
C746 C747 1.386 . S
C746 C748 1.391 . S
C747 C746 1.386 . S
C747 C751 1.393 . S
C748 H737 0.950 . S
C748 C746 1.391 . S
C748 C749 1.400 . S
C749 C743 1.491 . S
C749 C748 1.400 . S
C749 C750 1.398 . S
C750 H738 0.950 . S
C750 C749 1.398 . S
C750 C751 1.391 . S
C751 H739 0.950 . S
C751 C747 1.393 . S
C751 C750 1.391 . S
H752 C760 0.950 . S
H753 C765 0.950 . S
H754 C762 0.950 . S
H755 C764 0.950 . S
H756 C766 0.950 . S
H757 C768 0.950 . S
H758 C770 0.950 . S
H759 C771 0.950 . S
C760 H752 0.950 . S
C760 C761 1.386 . S
C760 C762 1.391 . S
C761 C760 1.386 . S
C761 C765 1.393 . S
C762 H754 0.950 . S
C762 C760 1.391 . S
C762 C763 1.400 . S
C763 C762 1.400 . S
C763 C764 1.398 . S
C763 C769 1.491 1_655 S
C764 H755 0.950 . S
C764 C763 1.398 . S
C764 C765 1.391 . S
C765 H753 0.950 . S
C765 C761 1.393 . S
C765 C764 1.391 . S
C766 H756 0.950 . S
C766 C767 1.386 . S
C766 C768 1.391 . S
C767 C766 1.386 . S
C767 C771 1.393 . S
C768 H757 0.950 . S
C768 C766 1.391 . S
C768 C769 1.400 . S
C769 C763 1.491 1_455 S
C769 C768 1.400 . S
C769 C770 1.398 . S
C770 H758 0.950 . S
C770 C769 1.398 . S
C770 C771 1.391 . S
C771 H759 0.950 . S
C771 C767 1.393 . S
C771 C770 1.391 . S
H772 C780 0.950 . S
H773 C785 0.950 . S
H774 C782 0.950 . S
H775 C784 0.950 . S
H776 C786 0.950 . S
H777 C788 0.950 . S
H778 C790 0.950 . S
H779 C791 0.950 . S
C780 H772 0.950 . S
C780 C781 1.386 . S
C780 C782 1.391 . S
C781 C780 1.386 . S
C781 C785 1.393 . S
C782 H774 0.950 . S
C782 C780 1.391 . S
C782 C783 1.400 . S
C783 C782 1.400 . S
C783 C784 1.398 . S
C783 C789 1.491 . S
C784 H775 0.950 . S
C784 C783 1.398 . S
C784 C785 1.391 . S
C785 H773 0.950 . S
C785 C781 1.393 . S
C785 C784 1.391 . S
C786 H776 0.950 . S
C786 C787 1.386 . S
C786 C788 1.391 . S
C787 C786 1.386 . S
C787 C791 1.393 . S
C788 H777 0.950 . S
C788 C786 1.391 . S
C788 C789 1.400 . S
C789 C783 1.491 . S
C789 C788 1.400 . S
C789 C790 1.398 . S
C790 H778 0.950 . S
C790 C789 1.398 . S
C790 C791 1.391 . S
C791 H779 0.950 . S
C791 C787 1.393 . S
C791 C790 1.391 . S
H792 C800 0.950 . S
H793 C805 0.950 . S
H794 C802 0.950 . S
H795 C804 0.950 . S
H796 C806 0.950 . S
H797 C808 0.950 . S
H798 C810 0.950 . S
H799 C811 0.950 . S
C800 H792 0.950 . S
C800 C801 1.386 . S
C800 C802 1.391 . S
C801 C800 1.386 . S
C801 C805 1.393 . S
C802 H794 0.950 . S
C802 C800 1.391 . S
C802 C803 1.400 . S
C803 C802 1.400 . S
C803 C804 1.398 . S
C803 C809 1.491 1_455 S
C804 H795 0.950 . S
C804 C803 1.398 . S
C804 C805 1.391 . S
C805 H793 0.950 . S
C805 C801 1.393 . S
C805 C804 1.391 . S
C806 H796 0.950 . S
C806 C807 1.386 . S
C806 C808 1.391 . S
C807 C806 1.386 . S
C807 C811 1.393 . S
C808 H797 0.950 . S
C808 C806 1.391 . S
C808 C809 1.400 . S
C809 C803 1.491 1_655 S
C809 C808 1.400 . S
C809 C810 1.398 . S
C810 H798 0.950 . S
C810 C809 1.398 . S
C810 C811 1.391 . S
C811 H799 0.950 . S
C811 C807 1.393 . S
C811 C810 1.391 . S
H812 C820 0.950 . S
H813 C825 0.950 . S
H814 C822 0.950 . S
H815 C824 0.950 . S
H816 C826 0.950 . S
H817 C828 0.950 . S
H818 C830 0.950 . S
H819 C831 0.950 . S
C820 H812 0.950 . S
C820 C821 1.386 . S
C820 C822 1.391 . S
C821 C820 1.386 . S
C821 C825 1.393 . S
C822 H814 0.950 . S
C822 C820 1.391 . S
C822 C823 1.400 . S
C823 C822 1.400 . S
C823 C824 1.398 . S
C823 C829 1.491 . S
C824 H815 0.950 . S
C824 C823 1.398 . S
C824 C825 1.391 . S
C825 H813 0.950 . S
C825 C821 1.393 . S
C825 C824 1.391 . S
C826 H816 0.950 . S
C826 C827 1.386 . S
C826 C828 1.391 . S
C827 C826 1.386 . S
C827 C831 1.393 . S
C828 H817 0.950 . S
C828 C826 1.391 . S
C828 C829 1.400 . S
C829 C823 1.491 . S
C829 C828 1.400 . S
C829 C830 1.398 . S
C830 H818 0.950 . S
C830 C829 1.398 . S
C830 C831 1.391 . S
C831 H819 0.950 . S
C831 C827 1.393 . S
C831 C830 1.391 . S
H832 C840 0.950 . S
H833 C845 0.950 . S
H834 C842 0.950 . S
H835 C844 0.950 . S
H836 C846 0.950 . S
H837 C848 0.950 . S
H838 C850 0.950 . S
H839 C851 0.950 . S
C840 H832 0.950 . S
C840 C841 1.386 . S
C840 C842 1.391 . S
C841 C840 1.386 . S
C841 C845 1.393 . S
C842 H834 0.950 . S
C842 C840 1.391 . S
C842 C843 1.400 . S
C843 C842 1.400 . S
C843 C844 1.398 . S
C843 C849 1.491 1_565 S
C844 H835 0.950 . S
C844 C843 1.398 . S
C844 C845 1.391 . S
C845 H833 0.950 . S
C845 C841 1.393 . S
C845 C844 1.391 . S
C846 H836 0.950 . S
C846 C847 1.386 . S
C846 C848 1.391 . S
C847 C846 1.386 . S
C847 C851 1.393 . S
C848 H837 0.950 . S
C848 C846 1.391 . S
C848 C849 1.400 . S
C849 C843 1.491 1_545 S
C849 C848 1.400 . S
C849 C850 1.398 . S
C850 H838 0.950 . S
C850 C849 1.398 . S
C850 C851 1.391 . S
C851 H839 0.950 . S
C851 C847 1.393 . S
C851 C850 1.391 . S
H852 C860 0.950 . S
H853 C865 0.950 . S
H854 C862 0.950 . S
H855 C864 0.950 . S
H856 C866 0.950 . S
H857 C868 0.950 . S
H858 C870 0.950 . S
H859 C871 0.950 . S
C860 H852 0.950 . S
C860 C861 1.386 . S
C860 C862 1.391 . S
C861 C860 1.386 . S
C861 C865 1.393 . S
C862 H854 0.950 . S
C862 C860 1.391 . S
C862 C863 1.400 . S
C863 C862 1.400 . S
C863 C864 1.398 . S
C863 C869 1.491 . S
C864 H855 0.950 . S
C864 C863 1.398 . S
C864 C865 1.391 . S
C865 H853 0.950 . S
C865 C861 1.393 . S
C865 C864 1.391 . S
C866 H856 0.950 . S
C866 C867 1.386 . S
C866 C868 1.391 . S
C867 C866 1.386 . S
C867 C871 1.393 . S
C868 H857 0.950 . S
C868 C866 1.391 . S
C868 C869 1.400 . S
C869 C863 1.491 . S
C869 C868 1.400 . S
C869 C870 1.398 . S
C870 H858 0.950 . S
C870 C869 1.398 . S
C870 C871 1.391 . S
C871 H859 0.950 . S
C871 C867 1.393 . S
C871 C870 1.391 . S
H872 C880 0.950 . S
H873 C885 0.950 . S
H874 C882 0.950 . S
H875 C884 0.950 . S
H876 C886 0.950 . S
H877 C888 0.950 . S
H878 C890 0.950 . S
H879 C891 0.950 . S
C880 H872 0.950 . S
C880 C881 1.386 . S
C880 C882 1.391 . S
C881 C880 1.386 . S
C881 C885 1.393 . S
C882 H874 0.950 . S
C882 C880 1.391 . S
C882 C883 1.400 . S
C883 C882 1.400 . S
C883 C884 1.398 . S
C883 C889 1.491 1_545 S
C884 H875 0.950 . S
C884 C883 1.398 . S
C884 C885 1.391 . S
C885 H873 0.950 . S
C885 C881 1.393 . S
C885 C884 1.391 . S
C886 H876 0.950 . S
C886 C887 1.386 . S
C886 C888 1.391 . S
C887 C886 1.386 . S
C887 C891 1.393 . S
C888 H877 0.950 . S
C888 C886 1.391 . S
C888 C889 1.400 . S
C889 C883 1.491 1_565 S
C889 C888 1.400 . S
C889 C890 1.398 . S
C890 H878 0.950 . S
C890 C889 1.398 . S
C890 C891 1.391 . S
C891 H879 0.950 . S
C891 C887 1.393 . S
C891 C890 1.391 . S
H892 C900 0.950 . S
H893 C905 0.950 . S
H894 C902 0.950 . S
H895 C904 0.950 . S
H896 C906 0.950 . S
H897 C908 0.950 . S
H898 C910 0.950 . S
H899 C911 0.950 . S
C900 H892 0.950 . S
C900 C901 1.386 . S
C900 C902 1.391 . S
C901 C900 1.386 . S
C901 C905 1.393 . S
C902 H894 0.950 . S
C902 C900 1.391 . S
C902 C903 1.400 . S
C903 C902 1.400 . S
C903 C904 1.398 . S
C903 C909 1.491 . S
C904 H895 0.950 . S
C904 C903 1.398 . S
C904 C905 1.391 . S
C905 H893 0.950 . S
C905 C901 1.393 . S
C905 C904 1.391 . S
C906 H896 0.950 . S
C906 C907 1.386 . S
C906 C908 1.391 . S
C907 C906 1.386 . S
C907 C911 1.393 . S
C908 H897 0.950 . S
C908 C906 1.391 . S
C908 C909 1.400 . S
C909 C903 1.491 . S
C909 C908 1.400 . S
C909 C910 1.398 . S
C910 H898 0.950 . S
C910 C909 1.398 . S
C910 C911 1.391 . S
C911 H899 0.950 . S
C911 C907 1.393 . S
C911 C910 1.391 . S
H912 C920 0.950 . S
H913 C925 0.950 . S
H914 C922 0.950 . S
H915 C924 0.950 . S
H916 C926 0.950 . S
H917 C928 0.950 . S
H918 C930 0.950 . S
H919 C931 0.950 . S
C920 H912 0.950 . S
C920 C921 1.386 . S
C920 C922 1.391 . S
C921 C920 1.386 . S
C921 C925 1.393 . S
C922 H914 0.950 . S
C922 C920 1.391 . S
C922 C923 1.400 . S
C923 C922 1.400 . S
C923 C924 1.398 . S
C923 C929 1.491 1_545 S
C924 H915 0.950 . S
C924 C923 1.398 . S
C924 C925 1.391 . S
C925 H913 0.950 . S
C925 C921 1.393 . S
C925 C924 1.391 . S
C926 H916 0.950 . S
C926 C927 1.386 . S
C926 C928 1.391 . S
C927 C926 1.386 . S
C927 C931 1.393 . S
C928 H917 0.950 . S
C928 C926 1.391 . S
C928 C929 1.400 . S
C929 C923 1.491 1_565 S
C929 C928 1.400 . S
C929 C930 1.398 . S
C930 H918 0.950 . S
C930 C929 1.398 . S
C930 C931 1.391 . S
C931 H919 0.950 . S
C931 C927 1.393 . S
C931 C930 1.391 . S
H932 C940 0.950 . S
H933 C945 0.950 . S
H934 C942 0.950 . S
H935 C944 0.950 . S
H936 C946 0.950 . S
H937 C948 0.950 . S
H938 C950 0.950 . S
H939 C951 0.950 . S
C940 H932 0.950 . S
C940 C941 1.386 . S
C940 C942 1.391 . S
C941 C940 1.386 . S
C941 C945 1.393 . S
C942 H934 0.950 . S
C942 C940 1.391 . S
C942 C943 1.400 . S
C943 C942 1.400 . S
C943 C944 1.398 . S
C943 C949 1.491 . S
C944 H935 0.950 . S
C944 C943 1.398 . S
C944 C945 1.391 . S
C945 H933 0.950 . S
C945 C941 1.393 . S
C945 C944 1.391 . S
C946 H936 0.950 . S
C946 C947 1.386 . S
C946 C948 1.391 . S
C947 C946 1.386 . S
C947 C951 1.393 . S
C948 H937 0.950 . S
C948 C946 1.391 . S
C948 C949 1.400 . S
C949 C943 1.491 . S
C949 C948 1.400 . S
C949 C950 1.398 . S
C950 H938 0.950 . S
C950 C949 1.398 . S
C950 C951 1.391 . S
C951 H939 0.950 . S
C951 C947 1.393 . S
C951 C950 1.391 . S
H952 C960 0.950 . S
H953 C965 0.950 . S
H954 C962 0.950 . S
H955 C964 0.950 . S
H956 C966 0.950 . S
H957 C968 0.950 . S
H958 C970 0.950 . S
H959 C971 0.950 . S
C960 H952 0.950 . S
C960 C961 1.386 . S
C960 C962 1.391 . S
C961 C960 1.386 . S
C961 C965 1.393 . S
C962 H954 0.950 . S
C962 C960 1.391 . S
C962 C963 1.400 . S
C963 C962 1.400 . S
C963 C964 1.398 . S
C963 C969 1.491 1_545 S
C964 H955 0.950 . S
C964 C963 1.398 . S
C964 C965 1.391 . S
C965 H953 0.950 . S
C965 C961 1.393 . S
C965 C964 1.391 . S
C966 H956 0.950 . S
C966 C967 1.386 . S
C966 C968 1.391 . S
C967 C966 1.386 . S
C967 C971 1.393 . S
C968 H957 0.950 . S
C968 C966 1.391 . S
C968 C969 1.400 . S
C969 C963 1.491 1_565 S
C969 C968 1.400 . S
C969 C970 1.398 . S
C970 H958 0.950 . S
C970 C969 1.398 . S
C970 C971 1.391 . S
C971 H959 0.950 . S
C971 C967 1.393 . S
C971 C970 1.391 . S
H972 C980 0.950 . S
H973 C985 0.950 . S
H974 C982 0.950 . S
H975 C984 0.950 . S
H976 C986 0.950 . S
H977 C988 0.950 . S
H978 C990 0.950 . S
H979 C991 0.950 . S
C980 H972 0.950 . S
C980 C981 1.386 . S
C980 C982 1.391 . S
C981 C980 1.386 . S
C981 C985 1.393 . S
C982 H974 0.950 . S
C982 C980 1.391 . S
C982 C983 1.400 . S
C983 C982 1.400 . S
C983 C984 1.398 . S
C983 C989 1.491 . S
C984 H975 0.950 . S
C984 C983 1.398 . S
C984 C985 1.391 . S
C985 H973 0.950 . S
C985 C981 1.393 . S
C985 C984 1.391 . S
C986 H976 0.950 . S
C986 C987 1.386 . S
C986 C988 1.391 . S
C987 C986 1.386 . S
C987 C991 1.393 . S
C988 H977 0.950 . S
C988 C986 1.391 . S
C988 C989 1.400 . S
C989 C983 1.491 . S
C989 C988 1.400 . S
C989 C990 1.398 . S
C990 H978 0.950 . S
C990 C989 1.398 . S
C990 C991 1.391 . S
C991 H979 0.950 . S
C991 C987 1.393 . S
C991 C990 1.391 . S
H992 C1000 0.950 . S
H993 C1005 0.950 . S
H994 C1002 0.950 . S
H995 C1004 0.950 . S
H996 C1006 0.950 . S
H997 C1008 0.950 . S
H998 C1010 0.950 . S
H999 C1011 0.950 . S
C1000 H992 0.950 . S
C1000 C1001 1.386 . S
C1000 C1002 1.391 . S
C1001 C1000 1.386 . S
C1001 C1005 1.393 . S
C1002 H994 0.950 . S
C1002 C1000 1.391 . S
C1002 C1003 1.400 . S
C1003 C1002 1.400 . S
C1003 C1004 1.398 . S
C1003 C1009 1.491 1_554 S
C1004 H995 0.950 . S
C1004 C1003 1.398 . S
C1004 C1005 1.391 . S
C1005 H993 0.950 . S
C1005 C1001 1.393 . S
C1005 C1004 1.391 . S
C1006 H996 0.950 . S
C1006 C1007 1.386 . S
C1006 C1008 1.391 . S
C1007 C1006 1.386 . S
C1007 C1011 1.393 . S
C1008 H997 0.950 . S
C1008 C1006 1.391 . S
C1008 C1009 1.400 . S
C1009 C1003 1.491 1_556 S
C1009 C1008 1.400 . S
C1009 C1010 1.398 . S
C1010 H998 0.950 . S
C1010 C1009 1.398 . S
C1010 C1011 1.391 . S
C1011 H999 0.950 . S
C1011 C1007 1.393 . S
C1011 C1010 1.391 . S
H1012 C1020 0.950 . S
H1013 C1025 0.950 . S
H1014 C1022 0.950 . S
H1015 C1024 0.950 . S
H1016 C1026 0.950 . S
H1017 C1028 0.950 . S
H1018 C1030 0.950 . S
H1019 C1031 0.950 . S
C1020 H1012 0.950 . S
C1020 C1021 1.386 . S
C1020 C1022 1.391 . S
C1021 C1020 1.386 . S
C1021 C1025 1.393 . S
C1022 H1014 0.950 . S
C1022 C1020 1.391 . S
C1022 C1023 1.400 . S
C1023 C1022 1.400 . S
C1023 C1024 1.398 . S
C1023 C1029 1.491 1_554 S
C1024 H1015 0.950 . S
C1024 C1023 1.398 . S
C1024 C1025 1.391 . S
C1025 H1013 0.950 . S
C1025 C1021 1.393 . S
C1025 C1024 1.391 . S
C1026 H1016 0.950 . S
C1026 C1027 1.386 . S
C1026 C1028 1.391 . S
C1027 C1026 1.386 . S
C1027 C1031 1.393 . S
C1028 H1017 0.950 . S
C1028 C1026 1.391 . S
C1028 C1029 1.400 . S
C1029 C1023 1.491 1_556 S
C1029 C1028 1.400 . S
C1029 C1030 1.398 . S
C1030 H1018 0.950 . S
C1030 C1029 1.398 . S
C1030 C1031 1.391 . S
C1031 H1019 0.950 . S
C1031 C1027 1.393 . S
C1031 C1030 1.391 . S
H1032 C1040 0.950 . S
H1033 C1045 0.950 . S
H1034 C1042 0.950 . S
H1035 C1044 0.950 . S
H1036 C1046 0.950 . S
H1037 C1048 0.950 . S
H1038 C1050 0.950 . S
H1039 C1051 0.950 . S
C1040 H1032 0.950 . S
C1040 C1041 1.386 . S
C1040 C1042 1.391 . S
C1041 C1040 1.386 . S
C1041 C1045 1.393 . S
C1042 H1034 0.950 . S
C1042 C1040 1.391 . S
C1042 C1043 1.400 . S
C1043 C1042 1.400 . S
C1043 C1044 1.398 . S
C1043 C1049 1.491 . S
C1044 H1035 0.950 . S
C1044 C1043 1.398 . S
C1044 C1045 1.391 . S
C1045 H1033 0.950 . S
C1045 C1041 1.393 . S
C1045 C1044 1.391 . S
C1046 H1036 0.950 . S
C1046 C1047 1.386 . S
C1046 C1048 1.391 . S
C1047 C1046 1.386 . S
C1047 C1051 1.393 . S
C1048 H1037 0.950 . S
C1048 C1046 1.391 . S
C1048 C1049 1.400 . S
C1049 C1043 1.491 . S
C1049 C1048 1.400 . S
C1049 C1050 1.398 . S
C1050 H1038 0.950 . S
C1050 C1049 1.398 . S
C1050 C1051 1.391 . S
C1051 H1039 0.950 . S
C1051 C1047 1.393 . S
C1051 C1050 1.391 . S
H1052 C1060 0.950 . S
H1053 C1065 0.950 . S
H1054 C1062 0.950 . S
H1055 C1064 0.950 . S
H1056 C1066 0.950 . S
H1057 C1068 0.950 . S
H1058 C1070 0.950 . S
H1059 C1071 0.950 . S
C1060 H1052 0.950 . S
C1060 C1061 1.386 . S
C1060 C1062 1.391 . S
C1061 C1060 1.386 . S
C1061 C1065 1.393 . S
C1062 H1054 0.950 . S
C1062 C1060 1.391 . S
C1062 C1063 1.400 . S
C1063 C1062 1.400 . S
C1063 C1064 1.398 . S
C1063 C1069 1.491 1_554 S
C1064 H1055 0.950 . S
C1064 C1063 1.398 . S
C1064 C1065 1.391 . S
C1065 H1053 0.950 . S
C1065 C1061 1.393 . S
C1065 C1064 1.391 . S
C1066 H1056 0.950 . S
C1066 C1067 1.386 . S
C1066 C1068 1.391 . S
C1067 C1066 1.386 . S
C1067 C1071 1.393 . S
C1068 H1057 0.950 . S
C1068 C1066 1.391 . S
C1068 C1069 1.400 . S
C1069 C1063 1.491 1_556 S
C1069 C1068 1.400 . S
C1069 C1070 1.398 . S
C1070 H1058 0.950 . S
C1070 C1069 1.398 . S
C1070 C1071 1.391 . S
C1071 H1059 0.950 . S
C1071 C1067 1.393 . S
C1071 C1070 1.391 . S
H1072 C1080 0.950 . S
H1073 C1085 0.950 . S
H1074 C1082 0.950 . S
H1075 C1084 0.950 . S
H1076 C1086 0.950 . S
H1077 C1088 0.950 . S
H1078 C1090 0.950 . S
H1079 C1091 0.950 . S
C1080 H1072 0.950 . S
C1080 C1081 1.386 . S
C1080 C1082 1.391 . S
C1081 C1080 1.386 . S
C1081 C1085 1.393 . S
C1082 H1074 0.950 . S
C1082 C1080 1.391 . S
C1082 C1083 1.400 . S
C1083 C1082 1.400 . S
C1083 C1084 1.398 . S
C1083 C1089 1.491 . S
C1084 H1075 0.950 . S
C1084 C1083 1.398 . S
C1084 C1085 1.391 . S
C1085 H1073 0.950 . S
C1085 C1081 1.393 . S
C1085 C1084 1.391 . S
C1086 H1076 0.950 . S
C1086 C1087 1.386 . S
C1086 C1088 1.391 . S
C1087 C1086 1.386 . S
C1087 C1091 1.393 . S
C1088 H1077 0.950 . S
C1088 C1086 1.391 . S
C1088 C1089 1.400 . S
C1089 C1083 1.491 . S
C1089 C1088 1.400 . S
C1089 C1090 1.398 . S
C1090 H1078 0.950 . S
C1090 C1089 1.398 . S
C1090 C1091 1.391 . S
C1091 H1079 0.950 . S
C1091 C1087 1.393 . S
C1091 C1090 1.391 . S
H1092 C1100 0.950 . S
H1093 C1105 0.950 . S
H1094 C1102 0.950 . S
H1095 C1104 0.950 . S
H1096 C1106 0.950 . S
H1097 C1108 0.950 . S
H1098 C1110 0.950 . S
H1099 C1111 0.950 . S
C1100 H1092 0.950 . S
C1100 C1101 1.386 . S
C1100 C1102 1.391 . S
C1101 C1100 1.386 . S
C1101 C1105 1.393 . S
C1102 H1094 0.950 . S
C1102 C1100 1.391 . S
C1102 C1103 1.400 . S
C1103 C1102 1.400 . S
C1103 C1104 1.398 . S
C1103 C1109 1.491 1_554 S
C1104 H1095 0.950 . S
C1104 C1103 1.398 . S
C1104 C1105 1.391 . S
C1105 H1093 0.950 . S
C1105 C1101 1.393 . S
C1105 C1104 1.391 . S
C1106 H1096 0.950 . S
C1106 C1107 1.386 . S
C1106 C1108 1.391 . S
C1107 C1106 1.386 . S
C1107 C1111 1.393 . S
C1108 H1097 0.950 . S
C1108 C1106 1.391 . S
C1108 C1109 1.400 . S
C1109 C1103 1.491 1_556 S
C1109 C1108 1.400 . S
C1109 C1110 1.398 . S
C1110 H1098 0.950 . S
C1110 C1109 1.398 . S
C1110 C1111 1.391 . S
C1111 H1099 0.950 . S
C1111 C1107 1.393 . S
C1111 C1110 1.391 . S
H1112 C1120 0.950 . S
H1113 C1125 0.950 . S
H1114 C1122 0.950 . S
H1115 C1124 0.950 . S
H1116 C1126 0.950 . S
H1117 C1128 0.950 . S
H1118 C1130 0.950 . S
H1119 C1131 0.950 . S
C1120 H1112 0.950 . S
C1120 C1121 1.386 . S
C1120 C1122 1.391 . S
C1121 C1120 1.386 . S
C1121 C1125 1.393 . S
C1122 H1114 0.950 . S
C1122 C1120 1.391 . S
C1122 C1123 1.400 . S
C1123 C1122 1.400 . S
C1123 C1124 1.398 . S
C1123 C1129 1.491 . S
C1124 H1115 0.950 . S
C1124 C1123 1.398 . S
C1124 C1125 1.391 . S
C1125 H1113 0.950 . S
C1125 C1121 1.393 . S
C1125 C1124 1.391 . S
C1126 H1116 0.950 . S
C1126 C1127 1.386 . S
C1126 C1128 1.391 . S
C1127 C1126 1.386 . S
C1127 C1131 1.393 . S
C1128 H1117 0.950 . S
C1128 C1126 1.391 . S
C1128 C1129 1.400 . S
C1129 C1123 1.491 . S
C1129 C1128 1.400 . S
C1129 C1130 1.398 . S
C1130 H1118 0.950 . S
C1130 C1129 1.398 . S
C1130 C1131 1.391 . S
C1131 H1119 0.950 . S
C1131 C1127 1.393 . S
C1131 C1130 1.391 . S
H1132 C1140 0.950 . S
H1133 C1145 0.950 . S
H1134 C1142 0.950 . S
H1135 C1144 0.950 . S
H1136 C1146 0.950 . S
H1137 C1148 0.950 . S
H1138 C1150 0.950 . S
H1139 C1151 0.950 . S
C1140 H1132 0.950 . S
C1140 C1141 1.386 . S
C1140 C1142 1.391 . S
C1141 C1140 1.386 . S
C1141 C1145 1.393 . S
C1142 H1134 0.950 . S
C1142 C1140 1.391 . S
C1142 C1143 1.400 . S
C1143 C1142 1.400 . S
C1143 C1144 1.398 . S
C1143 C1149 1.491 . S
C1144 H1135 0.950 . S
C1144 C1143 1.398 . S
C1144 C1145 1.391 . S
C1145 H1133 0.950 . S
C1145 C1141 1.393 . S
C1145 C1144 1.391 . S
C1146 H1136 0.950 . S
C1146 C1147 1.386 . S
C1146 C1148 1.391 . S
C1147 C1146 1.386 . S
C1147 C1151 1.393 . S
C1148 H1137 0.950 . S
C1148 C1146 1.391 . S
C1148 C1149 1.400 . S
C1149 C1143 1.491 . S
C1149 C1148 1.400 . S
C1149 C1150 1.398 . S
C1150 H1138 0.950 . S
C1150 C1149 1.398 . S
C1150 C1151 1.391 . S
C1151 H1139 0.950 . S
C1151 C1147 1.393 . S
C1151 C1150 1.391 . S
H1152 C1160 0.950 . S
H1153 C1165 0.950 . S
H1154 C1162 0.950 . S
H1155 C1164 0.950 . S
H1156 C1166 0.950 . S
H1157 C1168 0.950 . S
H1158 C1170 0.950 . S
H1159 C1171 0.950 . S
C1160 H1152 0.950 . S
C1160 C1161 1.386 . S
C1160 C1162 1.391 . S
C1161 C1160 1.386 . S
C1161 C1165 1.393 . S
C1162 H1154 0.950 . S
C1162 C1160 1.391 . S
C1162 C1163 1.400 . S
C1163 C1162 1.400 . S
C1163 C1164 1.398 . S
C1163 C1169 1.491 . S
C1164 H1155 0.950 . S
C1164 C1163 1.398 . S
C1164 C1165 1.391 . S
C1165 H1153 0.950 . S
C1165 C1161 1.393 . S
C1165 C1164 1.391 . S
C1166 H1156 0.950 . S
C1166 C1167 1.386 . S
C1166 C1168 1.391 . S
C1167 C1166 1.386 . S
C1167 C1171 1.393 . S
C1168 H1157 0.950 . S
C1168 C1166 1.391 . S
C1168 C1169 1.400 . S
C1169 C1163 1.491 . S
C1169 C1168 1.400 . S
C1169 C1170 1.398 . S
C1170 H1158 0.950 . S
C1170 C1169 1.398 . S
C1170 C1171 1.391 . S
C1171 H1159 0.950 . S
C1171 C1167 1.393 . S
C1171 C1170 1.391 . S
H1172 C1180 0.950 . S
H1173 C1185 0.950 . S
H1174 C1182 0.950 . S
H1175 C1184 0.950 . S
H1176 C1186 0.950 . S
H1177 C1188 0.950 . S
H1178 C1190 0.950 . S
H1179 C1191 0.950 . S
C1180 H1172 0.950 . S
C1180 C1181 1.386 . S
C1180 C1182 1.391 . S
C1181 C1180 1.386 . S
C1181 C1185 1.393 . S
C1182 H1174 0.950 . S
C1182 C1180 1.391 . S
C1182 C1183 1.400 . S
C1183 C1182 1.400 . S
C1183 C1184 1.398 . S
C1183 C1189 1.491 . S
C1184 H1175 0.950 . S
C1184 C1183 1.398 . S
C1184 C1185 1.391 . S
C1185 H1173 0.950 . S
C1185 C1181 1.393 . S
C1185 C1184 1.391 . S
C1186 H1176 0.950 . S
C1186 C1187 1.386 . S
C1186 C1188 1.391 . S
C1187 C1186 1.386 . S
C1187 C1191 1.393 . S
C1188 H1177 0.950 . S
C1188 C1186 1.391 . S
C1188 C1189 1.400 . S
C1189 C1183 1.491 . S
C1189 C1188 1.400 . S
C1189 C1190 1.398 . S
C1190 H1178 0.950 . S
C1190 C1189 1.398 . S
C1190 C1191 1.391 . S
C1191 H1179 0.950 . S
C1191 C1187 1.393 . S
C1191 C1190 1.391 . S
H1192 C1200 0.950 . S
H1193 C1205 0.950 . S
H1194 C1202 0.950 . S
H1195 C1204 0.950 . S
H1196 C1206 0.950 . S
H1197 C1208 0.950 . S
H1198 C1210 0.950 . S
H1199 C1211 0.950 . S
C1200 H1192 0.950 . S
C1200 C1201 1.386 . S
C1200 C1202 1.391 . S
C1201 C1200 1.386 . S
C1201 C1205 1.393 . S
C1202 H1194 0.950 . S
C1202 C1200 1.391 . S
C1202 C1203 1.400 . S
C1203 C1202 1.400 . S
C1203 C1204 1.398 . S
C1203 C1209 1.491 . S
C1204 H1195 0.950 . S
C1204 C1203 1.398 . S
C1204 C1205 1.391 . S
C1205 H1193 0.950 . S
C1205 C1201 1.393 . S
C1205 C1204 1.391 . S
C1206 H1196 0.950 . S
C1206 C1207 1.386 . S
C1206 C1208 1.391 . S
C1207 C1206 1.386 . S
C1207 C1211 1.393 . S
C1208 H1197 0.950 . S
C1208 C1206 1.391 . S
C1208 C1209 1.400 . S
C1209 C1203 1.491 . S
C1209 C1208 1.400 . S
C1209 C1210 1.398 . S
C1210 H1198 0.950 . S
C1210 C1209 1.398 . S
C1210 C1211 1.391 . S
C1211 H1199 0.950 . S
C1211 C1207 1.393 . S
C1211 C1210 1.391 . S
H1212 C1220 0.950 . S
H1213 C1225 0.950 . S
H1214 C1222 0.950 . S
H1215 C1224 0.950 . S
H1216 C1226 0.950 . S
H1217 C1228 0.950 . S
H1218 C1230 0.950 . S
H1219 C1231 0.950 . S
C1220 H1212 0.950 . S
C1220 C1221 1.386 . S
C1220 C1222 1.391 . S
C1221 C1220 1.386 . S
C1221 C1225 1.393 . S
C1222 H1214 0.950 . S
C1222 C1220 1.391 . S
C1222 C1223 1.400 . S
C1223 C1222 1.400 . S
C1223 C1224 1.398 . S
C1223 C1229 1.491 . S
C1224 H1215 0.950 . S
C1224 C1223 1.398 . S
C1224 C1225 1.391 . S
C1225 H1213 0.950 . S
C1225 C1221 1.393 . S
C1225 C1224 1.391 . S
C1226 H1216 0.950 . S
C1226 C1227 1.386 . S
C1226 C1228 1.391 . S
C1227 C1226 1.386 . S
C1227 C1231 1.393 . S
C1228 H1217 0.950 . S
C1228 C1226 1.391 . S
C1228 C1229 1.400 . S
C1229 C1223 1.491 . S
C1229 C1228 1.400 . S
C1229 C1230 1.398 . S
C1230 H1218 0.950 . S
C1230 C1229 1.398 . S
C1230 C1231 1.391 . S
C1231 H1219 0.950 . S
C1231 C1227 1.393 . S
C1231 C1230 1.391 . S
H1232 C1240 0.950 . S
H1233 C1245 0.950 . S
H1234 C1242 0.950 . S
H1235 C1244 0.950 . S
H1236 C1246 0.950 . S
H1237 C1248 0.950 . S
H1238 C1250 0.950 . S
H1239 C1251 0.950 . S
C1240 H1232 0.950 . S
C1240 C1241 1.386 . S
C1240 C1242 1.391 . S
C1241 C1240 1.386 . S
C1241 C1245 1.393 . S
C1242 H1234 0.950 . S
C1242 C1240 1.391 . S
C1242 C1243 1.400 . S
C1243 C1242 1.400 . S
C1243 C1244 1.398 . S
C1243 C1249 1.491 . S
C1244 H1235 0.950 . S
C1244 C1243 1.398 . S
C1244 C1245 1.391 . S
C1245 H1233 0.950 . S
C1245 C1241 1.393 . S
C1245 C1244 1.391 . S
C1246 H1236 0.950 . S
C1246 C1247 1.386 . S
C1246 C1248 1.391 . S
C1247 C1246 1.386 . S
C1247 C1251 1.393 . S
C1248 H1237 0.950 . S
C1248 C1246 1.391 . S
C1248 C1249 1.400 . S
C1249 C1243 1.491 . S
C1249 C1248 1.400 . S
C1249 C1250 1.398 . S
C1250 H1238 0.950 . S
C1250 C1249 1.398 . S
C1250 C1251 1.391 . S
C1251 H1239 0.950 . S
C1251 C1247 1.393 . S
C1251 C1250 1.391 . S
H1252 C1260 0.950 . S
H1253 C1265 0.950 . S
H1254 C1262 0.950 . S
H1255 C1264 0.950 . S
H1256 C1266 0.950 . S
H1257 C1268 0.950 . S
H1258 C1270 0.950 . S
H1259 C1271 0.950 . S
C1260 H1252 0.950 . S
C1260 C1261 1.386 . S
C1260 C1262 1.391 . S
C1261 C1260 1.386 . S
C1261 C1265 1.393 . S
C1262 H1254 0.950 . S
C1262 C1260 1.391 . S
C1262 C1263 1.400 . S
C1263 C1262 1.400 . S
C1263 C1264 1.398 . S
C1263 C1269 1.491 . S
C1264 H1255 0.950 . S
C1264 C1263 1.398 . S
C1264 C1265 1.391 . S
C1265 H1253 0.950 . S
C1265 C1261 1.393 . S
C1265 C1264 1.391 . S
C1266 H1256 0.950 . S
C1266 C1267 1.386 . S
C1266 C1268 1.391 . S
C1267 C1266 1.386 . S
C1267 C1271 1.393 . S
C1268 H1257 0.950 . S
C1268 C1266 1.391 . S
C1268 C1269 1.400 . S
C1269 C1263 1.491 . S
C1269 C1268 1.400 . S
C1269 C1270 1.398 . S
C1270 H1258 0.950 . S
C1270 C1269 1.398 . S
C1270 C1271 1.391 . S
C1271 H1259 0.950 . S
C1271 C1267 1.393 . S
C1271 C1270 1.391 . S
H1272 C1280 0.950 . S
H1273 C1285 0.950 . S
H1274 C1282 0.950 . S
H1275 C1284 0.950 . S
H1276 C1286 0.950 . S
H1277 C1288 0.950 . S
H1278 C1290 0.950 . S
H1279 C1291 0.950 . S
C1280 H1272 0.950 . S
C1280 C1281 1.386 . S
C1280 C1282 1.391 . S
C1281 C1280 1.386 . S
C1281 C1285 1.393 . S
C1282 H1274 0.950 . S
C1282 C1280 1.391 . S
C1282 C1283 1.400 . S
C1283 C1282 1.400 . S
C1283 C1284 1.398 . S
C1283 C1289 1.491 . S
C1284 H1275 0.950 . S
C1284 C1283 1.398 . S
C1284 C1285 1.391 . S
C1285 H1273 0.950 . S
C1285 C1281 1.393 . S
C1285 C1284 1.391 . S
C1286 H1276 0.950 . S
C1286 C1287 1.386 . S
C1286 C1288 1.391 . S
C1287 C1286 1.386 . S
C1287 C1291 1.393 . S
C1288 H1277 0.950 . S
C1288 C1286 1.391 . S
C1288 C1289 1.400 . S
C1289 C1283 1.491 . S
C1289 C1288 1.400 . S
C1289 C1290 1.398 . S
C1290 H1278 0.950 . S
C1290 C1289 1.398 . S
C1290 C1291 1.391 . S
C1291 H1279 0.950 . S
C1291 C1287 1.393 . S
C1291 C1290 1.391 . S
H1292 C1300 0.950 . S
H1293 C1305 0.950 . S
H1294 C1302 0.950 . S
H1295 C1304 0.950 . S
H1296 C1306 0.950 . S
H1297 C1308 0.950 . S
H1298 C1310 0.950 . S
H1299 C1311 0.950 . S
C1300 H1292 0.950 . S
C1300 C1301 1.386 . S
C1300 C1302 1.391 . S
C1301 C1300 1.386 . S
C1301 C1305 1.393 . S
C1302 H1294 0.950 . S
C1302 C1300 1.391 . S
C1302 C1303 1.400 . S
C1303 C1302 1.400 . S
C1303 C1304 1.398 . S
C1303 C1309 1.491 . S
C1304 H1295 0.950 . S
C1304 C1303 1.398 . S
C1304 C1305 1.391 . S
C1305 H1293 0.950 . S
C1305 C1301 1.393 . S
C1305 C1304 1.391 . S
C1306 H1296 0.950 . S
C1306 C1307 1.386 . S
C1306 C1308 1.391 . S
C1307 C1306 1.386 . S
C1307 C1311 1.393 . S
C1308 H1297 0.950 . S
C1308 C1306 1.391 . S
C1308 C1309 1.400 . S
C1309 C1303 1.491 . S
C1309 C1308 1.400 . S
C1309 C1310 1.398 . S
C1310 H1298 0.950 . S
C1310 C1309 1.398 . S
C1310 C1311 1.391 . S
C1311 H1299 0.950 . S
C1311 C1307 1.393 . S
C1311 C1310 1.391 . S
H1312 C1320 0.950 . S
H1313 C1325 0.950 . S
H1314 C1322 0.950 . S
H1315 C1324 0.950 . S
H1316 C1326 0.950 . S
H1317 C1328 0.950 . S
H1318 C1330 0.950 . S
H1319 C1331 0.950 . S
C1320 H1312 0.950 . S
C1320 C1321 1.386 . S
C1320 C1322 1.391 . S
C1321 C1320 1.386 . S
C1321 C1325 1.393 . S
C1322 H1314 0.950 . S
C1322 C1320 1.391 . S
C1322 C1323 1.400 . S
C1323 C1322 1.400 . S
C1323 C1324 1.398 . S
C1323 C1329 1.491 . S
C1324 H1315 0.950 . S
C1324 C1323 1.398 . S
C1324 C1325 1.391 . S
C1325 H1313 0.950 . S
C1325 C1321 1.393 . S
C1325 C1324 1.391 . S
C1326 H1316 0.950 . S
C1326 C1327 1.386 . S
C1326 C1328 1.391 . S
C1327 C1326 1.386 . S
C1327 C1331 1.393 . S
C1328 H1317 0.950 . S
C1328 C1326 1.391 . S
C1328 C1329 1.400 . S
C1329 C1323 1.491 . S
C1329 C1328 1.400 . S
C1329 C1330 1.398 . S
C1330 H1318 0.950 . S
C1330 C1329 1.398 . S
C1330 C1331 1.391 . S
C1331 H1319 0.950 . S
C1331 C1327 1.393 . S
C1331 C1330 1.391 . S
H1332 C1340 0.950 . S
H1333 C1345 0.950 . S
H1334 C1342 0.950 . S
H1335 C1344 0.950 . S
H1336 C1346 0.950 . S
H1337 C1348 0.950 . S
H1338 C1350 0.950 . S
H1339 C1351 0.950 . S
C1340 H1332 0.950 . S
C1340 C1341 1.386 . S
C1340 C1342 1.391 . S
C1341 C1340 1.386 . S
C1341 C1345 1.393 . S
C1342 H1334 0.950 . S
C1342 C1340 1.391 . S
C1342 C1343 1.400 . S
C1343 C1342 1.400 . S
C1343 C1344 1.398 . S
C1343 C1349 1.491 . S
C1344 H1335 0.950 . S
C1344 C1343 1.398 . S
C1344 C1345 1.391 . S
C1345 H1333 0.950 . S
C1345 C1341 1.393 . S
C1345 C1344 1.391 . S
C1346 H1336 0.950 . S
C1346 C1347 1.386 . S
C1346 C1348 1.391 . S
C1347 C1346 1.386 . S
C1347 C1351 1.393 . S
C1348 H1337 0.950 . S
C1348 C1346 1.391 . S
C1348 C1349 1.400 . S
C1349 C1343 1.491 . S
C1349 C1348 1.400 . S
C1349 C1350 1.398 . S
C1350 H1338 0.950 . S
C1350 C1349 1.398 . S
C1350 C1351 1.391 . S
C1351 H1339 0.950 . S
C1351 C1347 1.393 . S
C1351 C1350 1.391 . S
H1352 C1360 0.950 . S
H1353 C1365 0.950 . S
H1354 C1362 0.950 . S
H1355 C1364 0.950 . S
H1356 C1366 0.950 . S
H1357 C1368 0.950 . S
H1358 C1370 0.950 . S
H1359 C1371 0.950 . S
C1360 H1352 0.950 . S
C1360 C1361 1.386 . S
C1360 C1362 1.391 . S
C1361 C1360 1.386 . S
C1361 C1365 1.393 . S
C1362 H1354 0.950 . S
C1362 C1360 1.391 . S
C1362 C1363 1.400 . S
C1363 C1362 1.400 . S
C1363 C1364 1.398 . S
C1363 C1369 1.491 . S
C1364 H1355 0.950 . S
C1364 C1363 1.398 . S
C1364 C1365 1.391 . S
C1365 H1353 0.950 . S
C1365 C1361 1.393 . S
C1365 C1364 1.391 . S
C1366 H1356 0.950 . S
C1366 C1367 1.386 . S
C1366 C1368 1.391 . S
C1367 C1366 1.386 . S
C1367 C1371 1.393 . S
C1368 H1357 0.950 . S
C1368 C1366 1.391 . S
C1368 C1369 1.400 . S
C1369 C1363 1.491 . S
C1369 C1368 1.400 . S
C1369 C1370 1.398 . S
C1370 H1358 0.950 . S
C1370 C1369 1.398 . S
C1370 C1371 1.391 . S
C1371 H1359 0.950 . S
C1371 C1367 1.393 . S
C1371 C1370 1.391 . S
H1372 C1380 0.950 . S
H1373 C1385 0.950 . S
H1374 C1382 0.950 . S
H1375 C1384 0.950 . S
H1376 C1386 0.950 . S
H1377 C1388 0.950 . S
H1378 C1390 0.950 . S
H1379 C1391 0.950 . S
C1380 H1372 0.950 . S
C1380 C1381 1.386 . S
C1380 C1382 1.391 . S
C1381 C1380 1.386 . S
C1381 C1385 1.393 . S
C1382 H1374 0.950 . S
C1382 C1380 1.391 . S
C1382 C1383 1.400 . S
C1383 C1382 1.400 . S
C1383 C1384 1.398 . S
C1383 C1389 1.491 . S
C1384 H1375 0.950 . S
C1384 C1383 1.398 . S
C1384 C1385 1.391 . S
C1385 H1373 0.950 . S
C1385 C1381 1.393 . S
C1385 C1384 1.391 . S
C1386 H1376 0.950 . S
C1386 C1387 1.386 . S
C1386 C1388 1.391 . S
C1387 C1386 1.386 . S
C1387 C1391 1.393 . S
C1388 H1377 0.950 . S
C1388 C1386 1.391 . S
C1388 C1389 1.400 . S
C1389 C1383 1.491 . S
C1389 C1388 1.400 . S
C1389 C1390 1.398 . S
C1390 H1378 0.950 . S
C1390 C1389 1.398 . S
C1390 C1391 1.391 . S
C1391 H1379 0.950 . S
C1391 C1387 1.393 . S
C1391 C1390 1.391 . S
H1392 C1400 0.950 . S
H1393 C1405 0.950 . S
H1394 C1402 0.950 . S
H1395 C1404 0.950 . S
H1396 C1406 0.950 . S
H1397 C1408 0.950 . S
H1398 C1410 0.950 . S
H1399 C1411 0.950 . S
C1400 H1392 0.950 . S
C1400 C1401 1.386 . S
C1400 C1402 1.391 . S
C1401 C1400 1.386 . S
C1401 C1405 1.393 . S
C1402 H1394 0.950 . S
C1402 C1400 1.391 . S
C1402 C1403 1.400 . S
C1403 C1402 1.400 . S
C1403 C1404 1.398 . S
C1403 C1409 1.491 . S
C1404 H1395 0.950 . S
C1404 C1403 1.398 . S
C1404 C1405 1.391 . S
C1405 H1393 0.950 . S
C1405 C1401 1.393 . S
C1405 C1404 1.391 . S
C1406 H1396 0.950 . S
C1406 C1407 1.386 . S
C1406 C1408 1.391 . S
C1407 C1406 1.386 . S
C1407 C1411 1.393 . S
C1408 H1397 0.950 . S
C1408 C1406 1.391 . S
C1408 C1409 1.400 . S
C1409 C1403 1.491 . S
C1409 C1408 1.400 . S
C1409 C1410 1.398 . S
C1410 H1398 0.950 . S
C1410 C1409 1.398 . S
C1410 C1411 1.391 . S
C1411 H1399 0.950 . S
C1411 C1407 1.393 . S
C1411 C1410 1.391 . S
H1412 C1420 0.950 . S
H1413 C1425 0.950 . S
H1414 C1422 0.950 . S
H1415 C1424 0.950 . S
H1416 C1426 0.950 . S
H1417 C1428 0.950 . S
H1418 C1430 0.950 . S
H1419 C1431 0.950 . S
C1420 H1412 0.950 . S
C1420 C1421 1.386 . S
C1420 C1422 1.391 . S
C1421 C1420 1.386 . S
C1421 C1425 1.393 . S
C1422 H1414 0.950 . S
C1422 C1420 1.391 . S
C1422 C1423 1.400 . S
C1423 C1422 1.400 . S
C1423 C1424 1.398 . S
C1423 C1429 1.491 . S
C1424 H1415 0.950 . S
C1424 C1423 1.398 . S
C1424 C1425 1.391 . S
C1425 H1413 0.950 . S
C1425 C1421 1.393 . S
C1425 C1424 1.391 . S
C1426 H1416 0.950 . S
C1426 C1427 1.386 . S
C1426 C1428 1.391 . S
C1427 C1426 1.386 . S
C1427 C1431 1.393 . S
C1428 H1417 0.950 . S
C1428 C1426 1.391 . S
C1428 C1429 1.400 . S
C1429 C1423 1.491 . S
C1429 C1428 1.400 . S
C1429 C1430 1.398 . S
C1430 H1418 0.950 . S
C1430 C1429 1.398 . S
C1430 C1431 1.391 . S
C1431 H1419 0.950 . S
C1431 C1427 1.393 . S
C1431 C1430 1.391 . S
H1432 C1440 0.950 . S
H1433 C1445 0.950 . S
H1434 C1442 0.950 . S
H1435 C1444 0.950 . S
H1436 C1446 0.950 . S
H1437 C1448 0.950 . S
H1438 C1450 0.950 . S
H1439 C1451 0.950 . S
C1440 H1432 0.950 . S
C1440 C1441 1.386 . S
C1440 C1442 1.391 . S
C1441 C1440 1.386 . S
C1441 C1445 1.393 . S
C1442 H1434 0.950 . S
C1442 C1440 1.391 . S
C1442 C1443 1.400 . S
C1443 C1442 1.400 . S
C1443 C1444 1.398 . S
C1443 C1449 1.491 . S
C1444 H1435 0.950 . S
C1444 C1443 1.398 . S
C1444 C1445 1.391 . S
C1445 H1433 0.950 . S
C1445 C1441 1.393 . S
C1445 C1444 1.391 . S
C1446 H1436 0.950 . S
C1446 C1447 1.386 . S
C1446 C1448 1.391 . S
C1447 C1446 1.386 . S
C1447 C1451 1.393 . S
C1448 H1437 0.950 . S
C1448 C1446 1.391 . S
C1448 C1449 1.400 . S
C1449 C1443 1.491 . S
C1449 C1448 1.400 . S
C1449 C1450 1.398 . S
C1450 H1438 0.950 . S
C1450 C1449 1.398 . S
C1450 C1451 1.391 . S
C1451 H1439 0.950 . S
C1451 C1447 1.393 . S
C1451 C1450 1.391 . S
H1452 C1460 0.950 . S
H1453 C1465 0.950 . S
H1454 C1462 0.950 . S
H1455 C1464 0.950 . S
H1456 C1466 0.950 . S
H1457 C1468 0.950 . S
H1458 C1470 0.950 . S
H1459 C1471 0.950 . S
C1460 H1452 0.950 . S
C1460 C1461 1.386 . S
C1460 C1462 1.391 . S
C1461 C1460 1.386 . S
C1461 C1465 1.393 . S
C1462 H1454 0.950 . S
C1462 C1460 1.391 . S
C1462 C1463 1.400 . S
C1463 C1462 1.400 . S
C1463 C1464 1.398 . S
C1463 C1469 1.491 . S
C1464 H1455 0.950 . S
C1464 C1463 1.398 . S
C1464 C1465 1.391 . S
C1465 H1453 0.950 . S
C1465 C1461 1.393 . S
C1465 C1464 1.391 . S
C1466 H1456 0.950 . S
C1466 C1467 1.386 . S
C1466 C1468 1.391 . S
C1467 C1466 1.386 . S
C1467 C1471 1.393 . S
C1468 H1457 0.950 . S
C1468 C1466 1.391 . S
C1468 C1469 1.400 . S
C1469 C1463 1.491 . S
C1469 C1468 1.400 . S
C1469 C1470 1.398 . S
C1470 H1458 0.950 . S
C1470 C1469 1.398 . S
C1470 C1471 1.391 . S
C1471 H1459 0.950 . S
C1471 C1467 1.393 . S
C1471 C1470 1.391 . S
H1472 C1480 0.950 . S
H1473 C1485 0.950 . S
H1474 C1482 0.950 . S
H1475 C1484 0.950 . S
H1476 C1486 0.950 . S
H1477 C1488 0.950 . S
H1478 C1490 0.950 . S
H1479 C1491 0.950 . S
C1480 H1472 0.950 . S
C1480 C1481 1.386 . S
C1480 C1482 1.391 . S
C1481 C1480 1.386 . S
C1481 C1485 1.393 . S
C1482 H1474 0.950 . S
C1482 C1480 1.391 . S
C1482 C1483 1.400 . S
C1483 C1482 1.400 . S
C1483 C1484 1.398 . S
C1483 C1489 1.491 . S
C1484 H1475 0.950 . S
C1484 C1483 1.398 . S
C1484 C1485 1.391 . S
C1485 H1473 0.950 . S
C1485 C1481 1.393 . S
C1485 C1484 1.391 . S
C1486 H1476 0.950 . S
C1486 C1487 1.386 . S
C1486 C1488 1.391 . S
C1487 C1486 1.386 . S
C1487 C1491 1.393 . S
C1488 H1477 0.950 . S
C1488 C1486 1.391 . S
C1488 C1489 1.400 . S
C1489 C1483 1.491 . S
C1489 C1488 1.400 . S
C1489 C1490 1.398 . S
C1490 H1478 0.950 . S
C1490 C1489 1.398 . S
C1490 C1491 1.391 . S
C1491 H1479 0.950 . S
C1491 C1487 1.393 . S
C1491 C1490 1.391 . S
H1492 C1500 0.950 . S
H1493 C1505 0.950 . S
H1494 C1502 0.950 . S
H1495 C1504 0.950 . S
H1496 C1506 0.950 . S
H1497 C1508 0.950 . S
H1498 C1510 0.950 . S
H1499 C1511 0.950 . S
C1500 H1492 0.950 . S
C1500 C1501 1.386 . S
C1500 C1502 1.391 . S
C1501 C1500 1.386 . S
C1501 C1505 1.393 . S
C1502 H1494 0.950 . S
C1502 C1500 1.391 . S
C1502 C1503 1.400 . S
C1503 C1502 1.400 . S
C1503 C1504 1.398 . S
C1503 C1509 1.491 . S
C1504 H1495 0.950 . S
C1504 C1503 1.398 . S
C1504 C1505 1.391 . S
C1505 H1493 0.950 . S
C1505 C1501 1.393 . S
C1505 C1504 1.391 . S
C1506 H1496 0.950 . S
C1506 C1507 1.386 . S
C1506 C1508 1.391 . S
C1507 C1506 1.386 . S
C1507 C1511 1.393 . S
C1508 H1497 0.950 . S
C1508 C1506 1.391 . S
C1508 C1509 1.400 . S
C1509 C1503 1.491 . S
C1509 C1508 1.400 . S
C1509 C1510 1.398 . S
C1510 H1498 0.950 . S
C1510 C1509 1.398 . S
C1510 C1511 1.391 . S
C1511 H1499 0.950 . S
C1511 C1507 1.393 . S
C1511 C1510 1.391 . S
H1512 C1520 0.950 . S
H1513 C1525 0.950 . S
H1514 C1522 0.950 . S
H1515 C1524 0.950 . S
H1516 C1526 0.950 . S
H1517 C1528 0.950 . S
H1518 C1530 0.950 . S
H1519 C1531 0.950 . S
C1520 H1512 0.950 . S
C1520 C1521 1.386 . S
C1520 C1522 1.391 . S
C1521 C1520 1.386 . S
C1521 C1525 1.393 . S
C1522 H1514 0.950 . S
C1522 C1520 1.391 . S
C1522 C1523 1.400 . S
C1523 C1522 1.400 . S
C1523 C1524 1.398 . S
C1523 C1529 1.491 . S
C1524 H1515 0.950 . S
C1524 C1523 1.398 . S
C1524 C1525 1.391 . S
C1525 H1513 0.950 . S
C1525 C1521 1.393 . S
C1525 C1524 1.391 . S
C1526 H1516 0.950 . S
C1526 C1527 1.386 . S
C1526 C1528 1.391 . S
C1527 C1526 1.386 . S
C1527 C1531 1.393 . S
C1528 H1517 0.950 . S
C1528 C1526 1.391 . S
C1528 C1529 1.400 . S
C1529 C1523 1.491 . S
C1529 C1528 1.400 . S
C1529 C1530 1.398 . S
C1530 H1518 0.950 . S
C1530 C1529 1.398 . S
C1530 C1531 1.391 . S
C1531 H1519 0.950 . S
C1531 C1527 1.393 . S
C1531 C1530 1.391 . S
H1532 C1540 0.950 . S
H1533 C1545 0.950 . S
H1534 C1542 0.950 . S
H1535 C1544 0.950 . S
H1536 C1546 0.950 . S
H1537 C1548 0.950 . S
H1538 C1550 0.950 . S
H1539 C1551 0.950 . S
C1540 H1532 0.950 . S
C1540 C1541 1.386 . S
C1540 C1542 1.391 . S
C1541 C1540 1.386 . S
C1541 C1545 1.393 . S
C1542 H1534 0.950 . S
C1542 C1540 1.391 . S
C1542 C1543 1.400 . S
C1543 C1542 1.400 . S
C1543 C1544 1.398 . S
C1543 C1549 1.491 . S
C1544 H1535 0.950 . S
C1544 C1543 1.398 . S
C1544 C1545 1.391 . S
C1545 H1533 0.950 . S
C1545 C1541 1.393 . S
C1545 C1544 1.391 . S
C1546 H1536 0.950 . S
C1546 C1547 1.386 . S
C1546 C1548 1.391 . S
C1547 C1546 1.386 . S
C1547 C1551 1.393 . S
C1548 H1537 0.950 . S
C1548 C1546 1.391 . S
C1548 C1549 1.400 . S
C1549 C1543 1.491 . S
C1549 C1548 1.400 . S
C1549 C1550 1.398 . S
C1550 H1538 0.950 . S
C1550 C1549 1.398 . S
C1550 C1551 1.391 . S
C1551 H1539 0.950 . S
C1551 C1547 1.393 . S
C1551 C1550 1.391 . S
H1552 C1560 0.950 . S
H1553 C1565 0.950 . S
H1554 C1562 0.950 . S
H1555 C1564 0.950 . S
H1556 C1566 0.950 . S
H1557 C1568 0.950 . S
H1558 C1570 0.950 . S
H1559 C1571 0.950 . S
C1560 H1552 0.950 . S
C1560 C1561 1.386 . S
C1560 C1562 1.391 . S
C1561 C1560 1.386 . S
C1561 C1565 1.393 . S
C1562 H1554 0.950 . S
C1562 C1560 1.391 . S
C1562 C1563 1.400 . S
C1563 C1562 1.400 . S
C1563 C1564 1.398 . S
C1563 C1569 1.491 . S
C1564 H1555 0.950 . S
C1564 C1563 1.398 . S
C1564 C1565 1.391 . S
C1565 H1553 0.950 . S
C1565 C1561 1.393 . S
C1565 C1564 1.391 . S
C1566 H1556 0.950 . S
C1566 C1567 1.386 . S
C1566 C1568 1.391 . S
C1567 C1566 1.386 . S
C1567 C1571 1.393 . S
C1568 H1557 0.950 . S
C1568 C1566 1.391 . S
C1568 C1569 1.400 . S
C1569 C1563 1.491 . S
C1569 C1568 1.400 . S
C1569 C1570 1.398 . S
C1570 H1558 0.950 . S
C1570 C1569 1.398 . S
C1570 C1571 1.391 . S
C1571 H1559 0.950 . S
C1571 C1567 1.393 . S
C1571 C1570 1.391 . S
H1572 C1580 0.950 . S
H1573 C1585 0.950 . S
H1574 C1582 0.950 . S
H1575 C1584 0.950 . S
H1576 C1586 0.950 . S
H1577 C1588 0.950 . S
H1578 C1590 0.950 . S
H1579 C1591 0.950 . S
C1580 H1572 0.950 . S
C1580 C1581 1.386 . S
C1580 C1582 1.391 . S
C1581 C1580 1.386 . S
C1581 C1585 1.393 . S
C1582 H1574 0.950 . S
C1582 C1580 1.391 . S
C1582 C1583 1.400 . S
C1583 C1582 1.400 . S
C1583 C1584 1.398 . S
C1583 C1589 1.491 . S
C1584 H1575 0.950 . S
C1584 C1583 1.398 . S
C1584 C1585 1.391 . S
C1585 H1573 0.950 . S
C1585 C1581 1.393 . S
C1585 C1584 1.391 . S
C1586 H1576 0.950 . S
C1586 C1587 1.386 . S
C1586 C1588 1.391 . S
C1587 C1586 1.386 . S
C1587 C1591 1.393 . S
C1588 H1577 0.950 . S
C1588 C1586 1.391 . S
C1588 C1589 1.400 . S
C1589 C1583 1.491 . S
C1589 C1588 1.400 . S
C1589 C1590 1.398 . S
C1590 H1578 0.950 . S
C1590 C1589 1.398 . S
C1590 C1591 1.391 . S
C1591 H1579 0.950 . S
C1591 C1587 1.393 . S
C1591 C1590 1.391 . S
H1592 C1600 0.950 . S
H1593 C1605 0.950 . S
H1594 C1602 0.950 . S
H1595 C1604 0.950 . S
H1596 C1606 0.950 . S
H1597 C1608 0.950 . S
H1598 C1610 0.950 . S
H1599 C1611 0.950 . S
C1600 H1592 0.950 . S
C1600 C1601 1.386 . S
C1600 C1602 1.391 . S
C1601 C1600 1.386 . S
C1601 C1605 1.393 . S
C1602 H1594 0.950 . S
C1602 C1600 1.391 . S
C1602 C1603 1.400 . S
C1603 C1602 1.400 . S
C1603 C1604 1.398 . S
C1603 C1609 1.491 . S
C1604 H1595 0.950 . S
C1604 C1603 1.398 . S
C1604 C1605 1.391 . S
C1605 H1593 0.950 . S
C1605 C1601 1.393 . S
C1605 C1604 1.391 . S
C1606 H1596 0.950 . S
C1606 C1607 1.386 . S
C1606 C1608 1.391 . S
C1607 C1606 1.386 . S
C1607 C1611 1.393 . S
C1608 H1597 0.950 . S
C1608 C1606 1.391 . S
C1608 C1609 1.400 . S
C1609 C1603 1.491 . S
C1609 C1608 1.400 . S
C1609 C1610 1.398 . S
C1610 H1598 0.950 . S
C1610 C1609 1.398 . S
C1610 C1611 1.391 . S
C1611 H1599 0.950 . S
C1611 C1607 1.393 . S
C1611 C1610 1.391 . S
H1612 C1620 0.950 . S
H1613 C1625 0.950 . S
H1614 C1622 0.950 . S
H1615 C1624 0.950 . S
H1616 C1626 0.950 . S
H1617 C1628 0.950 . S
H1618 C1630 0.950 . S
H1619 C1631 0.950 . S
C1620 H1612 0.950 . S
C1620 C1621 1.386 . S
C1620 C1622 1.391 . S
C1621 C1620 1.386 . S
C1621 C1625 1.393 . S
C1622 H1614 0.950 . S
C1622 C1620 1.391 . S
C1622 C1623 1.400 . S
C1623 C1622 1.400 . S
C1623 C1624 1.398 . S
C1623 C1629 1.491 . S
C1624 H1615 0.950 . S
C1624 C1623 1.398 . S
C1624 C1625 1.391 . S
C1625 H1613 0.950 . S
C1625 C1621 1.393 . S
C1625 C1624 1.391 . S
C1626 H1616 0.950 . S
C1626 C1627 1.386 . S
C1626 C1628 1.391 . S
C1627 C1626 1.386 . S
C1627 C1631 1.393 . S
C1628 H1617 0.950 . S
C1628 C1626 1.391 . S
C1628 C1629 1.400 . S
C1629 C1623 1.491 . S
C1629 C1628 1.400 . S
C1629 C1630 1.398 . S
C1630 H1618 0.950 . S
C1630 C1629 1.398 . S
C1630 C1631 1.391 . S
C1631 H1619 0.950 . S
C1631 C1627 1.393 . S
C1631 C1630 1.391 . S
H1632 C1640 0.950 . S
H1633 C1645 0.950 . S
H1634 C1642 0.950 . S
H1635 C1644 0.950 . S
H1636 C1646 0.950 . S
H1637 C1648 0.950 . S
H1638 C1650 0.950 . S
H1639 C1651 0.950 . S
C1640 H1632 0.950 . S
C1640 C1641 1.386 . S
C1640 C1642 1.391 . S
C1641 C1640 1.386 . S
C1641 C1645 1.393 . S
C1642 H1634 0.950 . S
C1642 C1640 1.391 . S
C1642 C1643 1.400 . S
C1643 C1642 1.400 . S
C1643 C1644 1.398 . S
C1643 C1649 1.491 . S
C1644 H1635 0.950 . S
C1644 C1643 1.398 . S
C1644 C1645 1.391 . S
C1645 H1633 0.950 . S
C1645 C1641 1.393 . S
C1645 C1644 1.391 . S
C1646 H1636 0.950 . S
C1646 C1647 1.386 . S
C1646 C1648 1.391 . S
C1647 C1646 1.386 . S
C1647 C1651 1.393 . S
C1648 H1637 0.950 . S
C1648 C1646 1.391 . S
C1648 C1649 1.400 . S
C1649 C1643 1.491 . S
C1649 C1648 1.400 . S
C1649 C1650 1.398 . S
C1650 H1638 0.950 . S
C1650 C1649 1.398 . S
C1650 C1651 1.391 . S
C1651 H1639 0.950 . S
C1651 C1647 1.393 . S
C1651 C1650 1.391 . S
H1652 C1660 0.950 . S
H1653 C1665 0.950 . S
H1654 C1662 0.950 . S
H1655 C1664 0.950 . S
H1656 C1666 0.950 . S
H1657 C1668 0.950 . S
H1658 C1670 0.950 . S
H1659 C1671 0.950 . S
C1660 H1652 0.950 . S
C1660 C1661 1.386 . S
C1660 C1662 1.391 . S
C1661 C1660 1.386 . S
C1661 C1665 1.393 . S
C1662 H1654 0.950 . S
C1662 C1660 1.391 . S
C1662 C1663 1.400 . S
C1663 C1662 1.400 . S
C1663 C1664 1.398 . S
C1663 C1669 1.491 . S
C1664 H1655 0.950 . S
C1664 C1663 1.398 . S
C1664 C1665 1.391 . S
C1665 H1653 0.950 . S
C1665 C1661 1.393 . S
C1665 C1664 1.391 . S
C1666 H1656 0.950 . S
C1666 C1667 1.386 . S
C1666 C1668 1.391 . S
C1667 C1666 1.386 . S
C1667 C1671 1.393 . S
C1668 H1657 0.950 . S
C1668 C1666 1.391 . S
C1668 C1669 1.400 . S
C1669 C1663 1.491 . S
C1669 C1668 1.400 . S
C1669 C1670 1.398 . S
C1670 H1658 0.950 . S
C1670 C1669 1.398 . S
C1670 C1671 1.391 . S
C1671 H1659 0.950 . S
C1671 C1667 1.393 . S
C1671 C1670 1.391 . S
H1672 C1680 0.950 . S
H1673 C1685 0.950 . S
H1674 C1682 0.950 . S
H1675 C1684 0.950 . S
H1676 C1686 0.950 . S
H1677 C1688 0.950 . S
H1678 C1690 0.950 . S
H1679 C1691 0.950 . S
C1680 H1672 0.950 . S
C1680 C1681 1.386 . S
C1680 C1682 1.391 . S
C1681 C1680 1.386 . S
C1681 C1685 1.393 . S
C1682 H1674 0.950 . S
C1682 C1680 1.391 . S
C1682 C1683 1.400 . S
C1683 C1682 1.400 . S
C1683 C1684 1.398 . S
C1683 C1689 1.491 . S
C1684 H1675 0.950 . S
C1684 C1683 1.398 . S
C1684 C1685 1.391 . S
C1685 H1673 0.950 . S
C1685 C1681 1.393 . S
C1685 C1684 1.391 . S
C1686 H1676 0.950 . S
C1686 C1687 1.386 . S
C1686 C1688 1.391 . S
C1687 C1686 1.386 . S
C1687 C1691 1.393 . S
C1688 H1677 0.950 . S
C1688 C1686 1.391 . S
C1688 C1689 1.400 . S
C1689 C1683 1.491 . S
C1689 C1688 1.400 . S
C1689 C1690 1.398 . S
C1690 H1678 0.950 . S
C1690 C1689 1.398 . S
C1690 C1691 1.391 . S
C1691 H1679 0.950 . S
C1691 C1687 1.393 . S
C1691 C1690 1.391 . S
H1692 C1700 0.950 . S
H1693 C1705 0.950 . S
H1694 C1702 0.950 . S
H1695 C1704 0.950 . S
H1696 C1706 0.950 . S
H1697 C1708 0.950 . S
H1698 C1710 0.950 . S
H1699 C1711 0.950 . S
C1700 H1692 0.950 . S
C1700 C1701 1.386 . S
C1700 C1702 1.391 . S
C1701 C1700 1.386 . S
C1701 C1705 1.393 . S
C1702 H1694 0.950 . S
C1702 C1700 1.391 . S
C1702 C1703 1.400 . S
C1703 C1702 1.400 . S
C1703 C1704 1.398 . S
C1703 C1709 1.491 . S
C1704 H1695 0.950 . S
C1704 C1703 1.398 . S
C1704 C1705 1.391 . S
C1705 H1693 0.950 . S
C1705 C1701 1.393 . S
C1705 C1704 1.391 . S
C1706 H1696 0.950 . S
C1706 C1707 1.386 . S
C1706 C1708 1.391 . S
C1707 C1706 1.386 . S
C1707 C1711 1.393 . S
C1708 H1697 0.950 . S
C1708 C1706 1.391 . S
C1708 C1709 1.400 . S
C1709 C1703 1.491 . S
C1709 C1708 1.400 . S
C1709 C1710 1.398 . S
C1710 H1698 0.950 . S
C1710 C1709 1.398 . S
C1710 C1711 1.391 . S
C1711 H1699 0.950 . S
C1711 C1707 1.393 . S
C1711 C1710 1.391 . S
H1712 C1720 0.950 . S
H1713 C1725 0.950 . S
H1714 C1722 0.950 . S
H1715 C1724 0.950 . S
H1716 C1726 0.950 . S
H1717 C1728 0.950 . S
H1718 C1730 0.950 . S
H1719 C1731 0.950 . S
C1720 H1712 0.950 . S
C1720 C1721 1.386 . S
C1720 C1722 1.391 . S
C1721 C1720 1.386 . S
C1721 C1725 1.393 . S
C1722 H1714 0.950 . S
C1722 C1720 1.391 . S
C1722 C1723 1.400 . S
C1723 C1722 1.400 . S
C1723 C1724 1.398 . S
C1723 C1729 1.491 . S
C1724 H1715 0.950 . S
C1724 C1723 1.398 . S
C1724 C1725 1.391 . S
C1725 H1713 0.950 . S
C1725 C1721 1.393 . S
C1725 C1724 1.391 . S
C1726 H1716 0.950 . S
C1726 C1727 1.386 . S
C1726 C1728 1.391 . S
C1727 C1726 1.386 . S
C1727 C1731 1.393 . S
C1728 H1717 0.950 . S
C1728 C1726 1.391 . S
C1728 C1729 1.400 . S
C1729 C1723 1.491 . S
C1729 C1728 1.400 . S
C1729 C1730 1.398 . S
C1730 H1718 0.950 . S
C1730 C1729 1.398 . S
C1730 C1731 1.391 . S
C1731 H1719 0.950 . S
C1731 C1727 1.393 . S
C1731 C1730 1.391 . S
H1732 C1740 0.950 . S
H1733 C1745 0.950 . S
H1734 C1742 0.950 . S
H1735 C1744 0.950 . S
H1736 C1746 0.950 . S
H1737 C1748 0.950 . S
H1738 C1750 0.950 . S
H1739 C1751 0.950 . S
C1740 H1732 0.950 . S
C1740 C1741 1.386 . S
C1740 C1742 1.391 . S
C1741 C1740 1.386 . S
C1741 C1745 1.393 . S
C1742 H1734 0.950 . S
C1742 C1740 1.391 . S
C1742 C1743 1.400 . S
C1743 C1742 1.400 . S
C1743 C1744 1.398 . S
C1743 C1749 1.491 . S
C1744 H1735 0.950 . S
C1744 C1743 1.398 . S
C1744 C1745 1.391 . S
C1745 H1733 0.950 . S
C1745 C1741 1.393 . S
C1745 C1744 1.391 . S
C1746 H1736 0.950 . S
C1746 C1747 1.386 . S
C1746 C1748 1.391 . S
C1747 C1746 1.386 . S
C1747 C1751 1.393 . S
C1748 H1737 0.950 . S
C1748 C1746 1.391 . S
C1748 C1749 1.400 . S
C1749 C1743 1.491 . S
C1749 C1748 1.400 . S
C1749 C1750 1.398 . S
C1750 H1738 0.950 . S
C1750 C1749 1.398 . S
C1750 C1751 1.391 . S
C1751 H1739 0.950 . S
C1751 C1747 1.393 . S
C1751 C1750 1.391 . S
H1752 C1760 0.950 . S
H1753 C1765 0.950 . S
H1754 C1762 0.950 . S
H1755 C1764 0.950 . S
H1756 C1766 0.950 . S
H1757 C1768 0.950 . S
H1758 C1770 0.950 . S
H1759 C1771 0.950 . S
C1760 H1752 0.950 . S
C1760 C1761 1.386 . S
C1760 C1762 1.391 . S
C1761 C1760 1.386 . S
C1761 C1765 1.393 . S
C1762 H1754 0.950 . S
C1762 C1760 1.391 . S
C1762 C1763 1.400 . S
C1763 C1762 1.400 . S
C1763 C1764 1.398 . S
C1763 C1769 1.491 . S
C1764 H1755 0.950 . S
C1764 C1763 1.398 . S
C1764 C1765 1.391 . S
C1765 H1753 0.950 . S
C1765 C1761 1.393 . S
C1765 C1764 1.391 . S
C1766 H1756 0.950 . S
C1766 C1767 1.386 . S
C1766 C1768 1.391 . S
C1767 C1766 1.386 . S
C1767 C1771 1.393 . S
C1768 H1757 0.950 . S
C1768 C1766 1.391 . S
C1768 C1769 1.400 . S
C1769 C1763 1.491 . S
C1769 C1768 1.400 . S
C1769 C1770 1.398 . S
C1770 H1758 0.950 . S
C1770 C1769 1.398 . S
C1770 C1771 1.391 . S
C1771 H1759 0.950 . S
C1771 C1767 1.393 . S
C1771 C1770 1.391 . S
H1772 C1780 0.950 . S
H1773 C1785 0.950 . S
H1774 C1782 0.950 . S
H1775 C1784 0.950 . S
H1776 C1786 0.950 . S
H1777 C1788 0.950 . S
H1778 C1790 0.950 . S
H1779 C1791 0.950 . S
C1780 H1772 0.950 . S
C1780 C1781 1.386 . S
C1780 C1782 1.391 . S
C1781 C1780 1.386 . S
C1781 C1785 1.393 . S
C1782 H1774 0.950 . S
C1782 C1780 1.391 . S
C1782 C1783 1.400 . S
C1783 C1782 1.400 . S
C1783 C1784 1.398 . S
C1783 C1789 1.491 . S
C1784 H1775 0.950 . S
C1784 C1783 1.398 . S
C1784 C1785 1.391 . S
C1785 H1773 0.950 . S
C1785 C1781 1.393 . S
C1785 C1784 1.391 . S
C1786 H1776 0.950 . S
C1786 C1787 1.386 . S
C1786 C1788 1.391 . S
C1787 C1786 1.386 . S
C1787 C1791 1.393 . S
C1788 H1777 0.950 . S
C1788 C1786 1.391 . S
C1788 C1789 1.400 . S
C1789 C1783 1.491 . S
C1789 C1788 1.400 . S
C1789 C1790 1.398 . S
C1790 H1778 0.950 . S
C1790 C1789 1.398 . S
C1790 C1791 1.391 . S
C1791 H1779 0.950 . S
C1791 C1787 1.393 . S
C1791 C1790 1.391 . S
H1792 C1800 0.950 . S
H1793 C1805 0.950 . S
H1794 C1802 0.950 . S
H1795 C1804 0.950 . S
H1796 C1806 0.950 . S
H1797 C1808 0.950 . S
H1798 C1810 0.950 . S
H1799 C1811 0.950 . S
C1800 H1792 0.950 . S
C1800 C1801 1.386 . S
C1800 C1802 1.391 . S
C1801 C1800 1.386 . S
C1801 C1805 1.393 . S
C1802 H1794 0.950 . S
C1802 C1800 1.391 . S
C1802 C1803 1.400 . S
C1803 C1802 1.400 . S
C1803 C1804 1.398 . S
C1803 C1809 1.491 . S
C1804 H1795 0.950 . S
C1804 C1803 1.398 . S
C1804 C1805 1.391 . S
C1805 H1793 0.950 . S
C1805 C1801 1.393 . S
C1805 C1804 1.391 . S
C1806 H1796 0.950 . S
C1806 C1807 1.386 . S
C1806 C1808 1.391 . S
C1807 C1806 1.386 . S
C1807 C1811 1.393 . S
C1808 H1797 0.950 . S
C1808 C1806 1.391 . S
C1808 C1809 1.400 . S
C1809 C1803 1.491 . S
C1809 C1808 1.400 . S
C1809 C1810 1.398 . S
C1810 H1798 0.950 . S
C1810 C1809 1.398 . S
C1810 C1811 1.391 . S
C1811 H1799 0.950 . S
C1811 C1807 1.393 . S
C1811 C1810 1.391 . S
H1812 C1820 0.950 . S
H1813 C1825 0.950 . S
H1814 C1822 0.950 . S
H1815 C1824 0.950 . S
H1816 C1826 0.950 . S
H1817 C1828 0.950 . S
H1818 C1830 0.950 . S
H1819 C1831 0.950 . S
C1820 H1812 0.950 . S
C1820 C1821 1.386 . S
C1820 C1822 1.391 . S
C1821 C1820 1.386 . S
C1821 C1825 1.393 . S
C1822 H1814 0.950 . S
C1822 C1820 1.391 . S
C1822 C1823 1.400 . S
C1823 C1822 1.400 . S
C1823 C1824 1.398 . S
C1823 C1829 1.491 . S
C1824 H1815 0.950 . S
C1824 C1823 1.398 . S
C1824 C1825 1.391 . S
C1825 H1813 0.950 . S
C1825 C1821 1.393 . S
C1825 C1824 1.391 . S
C1826 H1816 0.950 . S
C1826 C1827 1.386 . S
C1826 C1828 1.391 . S
C1827 C1826 1.386 . S
C1827 C1831 1.393 . S
C1828 H1817 0.950 . S
C1828 C1826 1.391 . S
C1828 C1829 1.400 . S
C1829 C1823 1.491 . S
C1829 C1828 1.400 . S
C1829 C1830 1.398 . S
C1830 H1818 0.950 . S
C1830 C1829 1.398 . S
C1830 C1831 1.391 . S
C1831 H1819 0.950 . S
C1831 C1827 1.393 . S
C1831 C1830 1.391 . S
H1832 C1840 0.950 . S
H1833 C1845 0.950 . S
H1834 C1842 0.950 . S
H1835 C1844 0.950 . S
H1836 C1846 0.950 . S
H1837 C1848 0.950 . S
H1838 C1850 0.950 . S
H1839 C1851 0.950 . S
C1840 H1832 0.950 . S
C1840 C1841 1.386 . S
C1840 C1842 1.391 . S
C1841 C1840 1.386 . S
C1841 C1845 1.393 . S
C1842 H1834 0.950 . S
C1842 C1840 1.391 . S
C1842 C1843 1.400 . S
C1843 C1842 1.400 . S
C1843 C1844 1.398 . S
C1843 C1849 1.491 . S
C1844 H1835 0.950 . S
C1844 C1843 1.398 . S
C1844 C1845 1.391 . S
C1845 H1833 0.950 . S
C1845 C1841 1.393 . S
C1845 C1844 1.391 . S
C1846 H1836 0.950 . S
C1846 C1847 1.386 . S
C1846 C1848 1.391 . S
C1847 C1846 1.386 . S
C1847 C1851 1.393 . S
C1848 H1837 0.950 . S
C1848 C1846 1.391 . S
C1848 C1849 1.400 . S
C1849 C1843 1.491 . S
C1849 C1848 1.400 . S
C1849 C1850 1.398 . S
C1850 H1838 0.950 . S
C1850 C1849 1.398 . S
C1850 C1851 1.391 . S
C1851 H1839 0.950 . S
C1851 C1847 1.393 . S
C1851 C1850 1.391 . S
H1852 C1860 0.950 . S
H1853 C1865 0.950 . S
H1854 C1862 0.950 . S
H1855 C1864 0.950 . S
H1856 C1866 0.950 . S
H1857 C1868 0.950 . S
H1858 C1870 0.950 . S
H1859 C1871 0.950 . S
C1860 H1852 0.950 . S
C1860 C1861 1.386 . S
C1860 C1862 1.391 . S
C1861 C1860 1.386 . S
C1861 C1865 1.393 . S
C1862 H1854 0.950 . S
C1862 C1860 1.391 . S
C1862 C1863 1.400 . S
C1863 C1862 1.400 . S
C1863 C1864 1.398 . S
C1863 C1869 1.491 . S
C1864 H1855 0.950 . S
C1864 C1863 1.398 . S
C1864 C1865 1.391 . S
C1865 H1853 0.950 . S
C1865 C1861 1.393 . S
C1865 C1864 1.391 . S
C1866 H1856 0.950 . S
C1866 C1867 1.386 . S
C1866 C1868 1.391 . S
C1867 C1866 1.386 . S
C1867 C1871 1.393 . S
C1868 H1857 0.950 . S
C1868 C1866 1.391 . S
C1868 C1869 1.400 . S
C1869 C1863 1.491 . S
C1869 C1868 1.400 . S
C1869 C1870 1.398 . S
C1870 H1858 0.950 . S
C1870 C1869 1.398 . S
C1870 C1871 1.391 . S
C1871 H1859 0.950 . S
C1871 C1867 1.393 . S
C1871 C1870 1.391 . S
H1872 C1880 0.950 . S
H1873 C1885 0.950 . S
H1874 C1882 0.950 . S
H1875 C1884 0.950 . S
H1876 C1886 0.950 . S
H1877 C1888 0.950 . S
H1878 C1890 0.950 . S
H1879 C1891 0.950 . S
C1880 H1872 0.950 . S
C1880 C1881 1.386 . S
C1880 C1882 1.391 . S
C1881 C1880 1.386 . S
C1881 C1885 1.393 . S
C1882 H1874 0.950 . S
C1882 C1880 1.391 . S
C1882 C1883 1.400 . S
C1883 C1882 1.400 . S
C1883 C1884 1.398 . S
C1883 C1889 1.491 . S
C1884 H1875 0.950 . S
C1884 C1883 1.398 . S
C1884 C1885 1.391 . S
C1885 H1873 0.950 . S
C1885 C1881 1.393 . S
C1885 C1884 1.391 . S
C1886 H1876 0.950 . S
C1886 C1887 1.386 . S
C1886 C1888 1.391 . S
C1887 C1886 1.386 . S
C1887 C1891 1.393 . S
C1888 H1877 0.950 . S
C1888 C1886 1.391 . S
C1888 C1889 1.400 . S
C1889 C1883 1.491 . S
C1889 C1888 1.400 . S
C1889 C1890 1.398 . S
C1890 H1878 0.950 . S
C1890 C1889 1.398 . S
C1890 C1891 1.391 . S
C1891 H1879 0.950 . S
C1891 C1887 1.393 . S
C1891 C1890 1.391 . S
H1892 C1900 0.950 . S
H1893 C1905 0.950 . S
H1894 C1902 0.950 . S
H1895 C1904 0.950 . S
H1896 C1906 0.950 . S
H1897 C1908 0.950 . S
H1898 C1910 0.950 . S
H1899 C1911 0.950 . S
C1900 H1892 0.950 . S
C1900 C1901 1.386 . S
C1900 C1902 1.391 . S
C1901 C1900 1.386 . S
C1901 C1905 1.393 . S
C1902 H1894 0.950 . S
C1902 C1900 1.391 . S
C1902 C1903 1.400 . S
C1903 C1902 1.400 . S
C1903 C1904 1.398 . S
C1903 C1909 1.491 . S
C1904 H1895 0.950 . S
C1904 C1903 1.398 . S
C1904 C1905 1.391 . S
C1905 H1893 0.950 . S
C1905 C1901 1.393 . S
C1905 C1904 1.391 . S
C1906 H1896 0.950 . S
C1906 C1907 1.386 . S
C1906 C1908 1.391 . S
C1907 C1906 1.386 . S
C1907 C1911 1.393 . S
C1908 H1897 0.950 . S
C1908 C1906 1.391 . S
C1908 C1909 1.400 . S
C1909 C1903 1.491 . S
C1909 C1908 1.400 . S
C1909 C1910 1.398 . S
C1910 H1898 0.950 . S
C1910 C1909 1.398 . S
C1910 C1911 1.391 . S
C1911 H1899 0.950 . S
C1911 C1907 1.393 . S
C1911 C1910 1.391 . S
H1912 C1920 0.950 . S
H1913 C1925 0.950 . S
H1914 C1922 0.950 . S
H1915 C1924 0.950 . S
H1916 C1926 0.950 . S
H1917 C1928 0.950 . S
H1918 C1930 0.950 . S
H1919 C1931 0.950 . S
C1920 H1912 0.950 . S
C1920 C1921 1.386 . S
C1920 C1922 1.391 . S
C1921 C1920 1.386 . S
C1921 C1925 1.393 . S
C1922 H1914 0.950 . S
C1922 C1920 1.391 . S
C1922 C1923 1.400 . S
C1923 C1922 1.400 . S
C1923 C1924 1.398 . S
C1923 C1929 1.491 . S
C1924 H1915 0.950 . S
C1924 C1923 1.398 . S
C1924 C1925 1.391 . S
C1925 H1913 0.950 . S
C1925 C1921 1.393 . S
C1925 C1924 1.391 . S
C1926 H1916 0.950 . S
C1926 C1927 1.386 . S
C1926 C1928 1.391 . S
C1927 C1926 1.386 . S
C1927 C1931 1.393 . S
C1928 H1917 0.950 . S
C1928 C1926 1.391 . S
C1928 C1929 1.400 . S
C1929 C1923 1.491 . S
C1929 C1928 1.400 . S
C1929 C1930 1.398 . S
C1930 H1918 0.950 . S
C1930 C1929 1.398 . S
C1930 C1931 1.391 . S
C1931 H1919 0.950 . S
C1931 C1927 1.393 . S
C1931 C1930 1.391 . S
H1932 C1940 0.950 . S
H1933 C1945 0.950 . S
H1934 C1942 0.950 . S
H1935 C1944 0.950 . S
H1936 C1946 0.950 . S
H1937 C1948 0.950 . S
H1938 C1950 0.950 . S
H1939 C1951 0.950 . S
C1940 H1932 0.950 . S
C1940 C1941 1.386 . S
C1940 C1942 1.391 . S
C1941 C1940 1.386 . S
C1941 C1945 1.393 . S
C1942 H1934 0.950 . S
C1942 C1940 1.391 . S
C1942 C1943 1.400 . S
C1943 C1942 1.400 . S
C1943 C1944 1.398 . S
C1943 C1949 1.491 . S
C1944 H1935 0.950 . S
C1944 C1943 1.398 . S
C1944 C1945 1.391 . S
C1945 H1933 0.950 . S
C1945 C1941 1.393 . S
C1945 C1944 1.391 . S
C1946 H1936 0.950 . S
C1946 C1947 1.386 . S
C1946 C1948 1.391 . S
C1947 C1946 1.386 . S
C1947 C1951 1.393 . S
C1948 H1937 0.950 . S
C1948 C1946 1.391 . S
C1948 C1949 1.400 . S
C1949 C1943 1.491 . S
C1949 C1948 1.400 . S
C1949 C1950 1.398 . S
C1950 H1938 0.950 . S
C1950 C1949 1.398 . S
C1950 C1951 1.391 . S
C1951 H1939 0.950 . S
C1951 C1947 1.393 . S
C1951 C1950 1.391 . S
H1952 C1960 0.950 . S
H1953 C1965 0.950 . S
H1954 C1962 0.950 . S
H1955 C1964 0.950 . S
H1956 C1966 0.950 . S
H1957 C1968 0.950 . S
H1958 C1970 0.950 . S
H1959 C1971 0.950 . S
C1960 H1952 0.950 . S
C1960 C1961 1.386 . S
C1960 C1962 1.391 . S
C1961 C1960 1.386 . S
C1961 C1965 1.393 . S
C1962 H1954 0.950 . S
C1962 C1960 1.391 . S
C1962 C1963 1.400 . S
C1963 C1962 1.400 . S
C1963 C1964 1.398 . S
C1963 C1969 1.491 . S
C1964 H1955 0.950 . S
C1964 C1963 1.398 . S
C1964 C1965 1.391 . S
C1965 H1953 0.950 . S
C1965 C1961 1.393 . S
C1965 C1964 1.391 . S
C1966 H1956 0.950 . S
C1966 C1967 1.386 . S
C1966 C1968 1.391 . S
C1967 C1966 1.386 . S
C1967 C1971 1.393 . S
C1968 H1957 0.950 . S
C1968 C1966 1.391 . S
C1968 C1969 1.400 . S
C1969 C1963 1.491 . S
C1969 C1968 1.400 . S
C1969 C1970 1.398 . S
C1970 H1958 0.950 . S
C1970 C1969 1.398 . S
C1970 C1971 1.391 . S
C1971 H1959 0.950 . S
C1971 C1967 1.393 . S
C1971 C1970 1.391 . S
H1972 C1980 0.950 . S
H1973 C1985 0.950 . S
H1974 C1982 0.950 . S
H1975 C1984 0.950 . S
H1976 C1986 0.950 . S
H1977 C1988 0.950 . S
H1978 C1990 0.950 . S
H1979 C1991 0.950 . S
C1980 H1972 0.950 . S
C1980 C1981 1.386 . S
C1980 C1982 1.391 . S
C1981 C1980 1.386 . S
C1981 C1985 1.393 . S
C1982 H1974 0.950 . S
C1982 C1980 1.391 . S
C1982 C1983 1.400 . S
C1983 C1982 1.400 . S
C1983 C1984 1.398 . S
C1983 C1989 1.491 . S
C1984 H1975 0.950 . S
C1984 C1983 1.398 . S
C1984 C1985 1.391 . S
C1985 H1973 0.950 . S
C1985 C1981 1.393 . S
C1985 C1984 1.391 . S
C1986 H1976 0.950 . S
C1986 C1987 1.386 . S
C1986 C1988 1.391 . S
C1987 C1986 1.386 . S
C1987 C1991 1.393 . S
C1988 H1977 0.950 . S
C1988 C1986 1.391 . S
C1988 C1989 1.400 . S
C1989 C1983 1.491 . S
C1989 C1988 1.400 . S
C1989 C1990 1.398 . S
C1990 H1978 0.950 . S
C1990 C1989 1.398 . S
C1990 C1991 1.391 . S
C1991 H1979 0.950 . S
C1991 C1987 1.393 . S
C1991 C1990 1.391 . S
H1992 C2000 0.950 . S
H1993 C2005 0.950 . S
H1994 C2002 0.950 . S
H1995 C2004 0.950 . S
H1996 C2006 0.950 . S
H1997 C2008 0.950 . S
H1998 C2010 0.950 . S
H1999 C2011 0.950 . S
C2000 H1992 0.950 . S
C2000 C2001 1.386 . S
C2000 C2002 1.391 . S
C2001 C2000 1.386 . S
C2001 C2005 1.393 . S
C2002 H1994 0.950 . S
C2002 C2000 1.391 . S
C2002 C2003 1.400 . S
C2003 C2002 1.400 . S
C2003 C2004 1.398 . S
C2003 C2009 1.491 . S
C2004 H1995 0.950 . S
C2004 C2003 1.398 . S
C2004 C2005 1.391 . S
C2005 H1993 0.950 . S
C2005 C2001 1.393 . S
C2005 C2004 1.391 . S
C2006 H1996 0.950 . S
C2006 C2007 1.386 . S
C2006 C2008 1.391 . S
C2007 C2006 1.386 . S
C2007 C2011 1.393 . S
C2008 H1997 0.950 . S
C2008 C2006 1.391 . S
C2008 C2009 1.400 . S
C2009 C2003 1.491 . S
C2009 C2008 1.400 . S
C2009 C2010 1.398 . S
C2010 H1998 0.950 . S
C2010 C2009 1.398 . S
C2010 C2011 1.391 . S
C2011 H1999 0.950 . S
C2011 C2007 1.393 . S
C2011 C2010 1.391 . S
H2012 C2020 0.950 . S
H2013 C2025 0.950 . S
H2014 C2022 0.950 . S
H2015 C2024 0.950 . S
H2016 C2026 0.950 . S
H2017 C2028 0.950 . S
H2018 C2030 0.950 . S
H2019 C2031 0.950 . S
C2020 H2012 0.950 . S
C2020 C2021 1.386 . S
C2020 C2022 1.391 . S
C2021 C2020 1.386 . S
C2021 C2025 1.393 . S
C2022 H2014 0.950 . S
C2022 C2020 1.391 . S
C2022 C2023 1.400 . S
C2023 C2022 1.400 . S
C2023 C2024 1.398 . S
C2023 C2029 1.491 . S
C2024 H2015 0.950 . S
C2024 C2023 1.398 . S
C2024 C2025 1.391 . S
C2025 H2013 0.950 . S
C2025 C2021 1.393 . S
C2025 C2024 1.391 . S
C2026 H2016 0.950 . S
C2026 C2027 1.386 . S
C2026 C2028 1.391 . S
C2027 C2026 1.386 . S
C2027 C2031 1.393 . S
C2028 H2017 0.950 . S
C2028 C2026 1.391 . S
C2028 C2029 1.400 . S
C2029 C2023 1.491 . S
C2029 C2028 1.400 . S
C2029 C2030 1.398 . S
C2030 H2018 0.950 . S
C2030 C2029 1.398 . S
C2030 C2031 1.391 . S
C2031 H2019 0.950 . S
C2031 C2027 1.393 . S
C2031 C2030 1.391 . S
H2032 C2040 0.950 . S
H2033 C2045 0.950 . S
H2034 C2042 0.950 . S
H2035 C2044 0.950 . S
H2036 C2046 0.950 . S
H2037 C2048 0.950 . S
H2038 C2050 0.950 . S
H2039 C2051 0.950 . S
C2040 H2032 0.950 . S
C2040 C2041 1.386 . S
C2040 C2042 1.391 . S
C2041 C2040 1.386 . S
C2041 C2045 1.393 . S
C2042 H2034 0.950 . S
C2042 C2040 1.391 . S
C2042 C2043 1.400 . S
C2043 C2042 1.400 . S
C2043 C2044 1.398 . S
C2043 C2049 1.491 . S
C2044 H2035 0.950 . S
C2044 C2043 1.398 . S
C2044 C2045 1.391 . S
C2045 H2033 0.950 . S
C2045 C2041 1.393 . S
C2045 C2044 1.391 . S
C2046 H2036 0.950 . S
C2046 C2047 1.386 . S
C2046 C2048 1.391 . S
C2047 C2046 1.386 . S
C2047 C2051 1.393 . S
C2048 H2037 0.950 . S
C2048 C2046 1.391 . S
C2048 C2049 1.400 . S
C2049 C2043 1.491 . S
C2049 C2048 1.400 . S
C2049 C2050 1.398 . S
C2050 H2038 0.950 . S
C2050 C2049 1.398 . S
C2050 C2051 1.391 . S
C2051 H2039 0.950 . S
C2051 C2047 1.393 . S
C2051 C2050 1.391 . S
H2052 C2060 0.950 . S
H2053 C2065 0.950 . S
H2054 C2062 0.950 . S
H2055 C2064 0.950 . S
H2056 C2066 0.950 . S
H2057 C2068 0.950 . S
H2058 C2070 0.950 . S
H2059 C2071 0.950 . S
C2060 H2052 0.950 . S
C2060 C2061 1.386 . S
C2060 C2062 1.391 . S
C2061 C2060 1.386 . S
C2061 C2065 1.393 . S
C2062 H2054 0.950 . S
C2062 C2060 1.391 . S
C2062 C2063 1.400 . S
C2063 C2062 1.400 . S
C2063 C2064 1.398 . S
C2063 C2069 1.491 . S
C2064 H2055 0.950 . S
C2064 C2063 1.398 . S
C2064 C2065 1.391 . S
C2065 H2053 0.950 . S
C2065 C2061 1.393 . S
C2065 C2064 1.391 . S
C2066 H2056 0.950 . S
C2066 C2067 1.386 . S
C2066 C2068 1.391 . S
C2067 C2066 1.386 . S
C2067 C2071 1.393 . S
C2068 H2057 0.950 . S
C2068 C2066 1.391 . S
C2068 C2069 1.400 . S
C2069 C2063 1.491 . S
C2069 C2068 1.400 . S
C2069 C2070 1.398 . S
C2070 H2058 0.950 . S
C2070 C2069 1.398 . S
C2070 C2071 1.391 . S
C2071 H2059 0.950 . S
C2071 C2067 1.393 . S
C2071 C2070 1.391 . S
H2072 C2080 0.950 . S
H2073 C2085 0.950 . S
H2074 C2082 0.950 . S
H2075 C2084 0.950 . S
H2076 C2086 0.950 . S
H2077 C2088 0.950 . S
H2078 C2090 0.950 . S
H2079 C2091 0.950 . S
C2080 H2072 0.950 . S
C2080 C2081 1.386 . S
C2080 C2082 1.391 . S
C2081 C2080 1.386 . S
C2081 C2085 1.393 . S
C2082 H2074 0.950 . S
C2082 C2080 1.391 . S
C2082 C2083 1.400 . S
C2083 C2082 1.400 . S
C2083 C2084 1.398 . S
C2083 C2089 1.491 . S
C2084 H2075 0.950 . S
C2084 C2083 1.398 . S
C2084 C2085 1.391 . S
C2085 H2073 0.950 . S
C2085 C2081 1.393 . S
C2085 C2084 1.391 . S
C2086 H2076 0.950 . S
C2086 C2087 1.386 . S
C2086 C2088 1.391 . S
C2087 C2086 1.386 . S
C2087 C2091 1.393 . S
C2088 H2077 0.950 . S
C2088 C2086 1.391 . S
C2088 C2089 1.400 . S
C2089 C2083 1.491 . S
C2089 C2088 1.400 . S
C2089 C2090 1.398 . S
C2090 H2078 0.950 . S
C2090 C2089 1.398 . S
C2090 C2091 1.391 . S
C2091 H2079 0.950 . S
C2091 C2087 1.393 . S
C2091 C2090 1.391 . S
H2092 C2100 0.950 . S
H2093 C2105 0.950 . S
H2094 C2102 0.950 . S
H2095 C2104 0.950 . S
H2096 C2106 0.950 . S
H2097 C2108 0.950 . S
H2098 C2110 0.950 . S
H2099 C2111 0.950 . S
C2100 H2092 0.950 . S
C2100 C2101 1.386 . S
C2100 C2102 1.391 . S
C2101 C2100 1.386 . S
C2101 C2105 1.393 . S
C2102 H2094 0.950 . S
C2102 C2100 1.391 . S
C2102 C2103 1.400 . S
C2103 C2102 1.400 . S
C2103 C2104 1.398 . S
C2103 C2109 1.491 . S
C2104 H2095 0.950 . S
C2104 C2103 1.398 . S
C2104 C2105 1.391 . S
C2105 H2093 0.950 . S
C2105 C2101 1.393 . S
C2105 C2104 1.391 . S
C2106 H2096 0.950 . S
C2106 C2107 1.386 . S
C2106 C2108 1.391 . S
C2107 C2106 1.386 . S
C2107 C2111 1.393 . S
C2108 H2097 0.950 . S
C2108 C2106 1.391 . S
C2108 C2109 1.400 . S
C2109 C2103 1.491 . S
C2109 C2108 1.400 . S
C2109 C2110 1.398 . S
C2110 H2098 0.950 . S
C2110 C2109 1.398 . S
C2110 C2111 1.391 . S
C2111 H2099 0.950 . S
C2111 C2107 1.393 . S
C2111 C2110 1.391 . S
H2112 C2120 0.950 . S
H2113 C2125 0.950 . S
H2114 C2122 0.950 . S
H2115 C2124 0.950 . S
H2116 C2126 0.950 . S
H2117 C2128 0.950 . S
H2118 C2130 0.950 . S
H2119 C2131 0.950 . S
C2120 H2112 0.950 . S
C2120 C2121 1.386 . S
C2120 C2122 1.391 . S
C2121 C2120 1.386 . S
C2121 C2125 1.393 . S
C2122 H2114 0.950 . S
C2122 C2120 1.391 . S
C2122 C2123 1.400 . S
C2123 C2122 1.400 . S
C2123 C2124 1.398 . S
C2123 C2129 1.491 . S
C2124 H2115 0.950 . S
C2124 C2123 1.398 . S
C2124 C2125 1.391 . S
C2125 H2113 0.950 . S
C2125 C2121 1.393 . S
C2125 C2124 1.391 . S
C2126 H2116 0.950 . S
C2126 C2127 1.386 . S
C2126 C2128 1.391 . S
C2127 C2126 1.386 . S
C2127 C2131 1.393 . S
C2128 H2117 0.950 . S
C2128 C2126 1.391 . S
C2128 C2129 1.400 . S
C2129 C2123 1.491 . S
C2129 C2128 1.400 . S
C2129 C2130 1.398 . S
C2130 H2118 0.950 . S
C2130 C2129 1.398 . S
C2130 C2131 1.391 . S
C2131 H2119 0.950 . S
C2131 C2127 1.393 . S
C2131 C2130 1.391 . S
H2132 C2140 0.950 . S
H2133 C2145 0.950 . S
H2134 C2142 0.950 . S
H2135 C2144 0.950 . S
H2136 C2146 0.950 . S
H2137 C2148 0.950 . S
H2138 C2150 0.950 . S
H2139 C2151 0.950 . S
C2140 H2132 0.950 . S
C2140 C2141 1.386 . S
C2140 C2142 1.391 . S
C2141 C2140 1.386 . S
C2141 C2145 1.393 . S
C2142 H2134 0.950 . S
C2142 C2140 1.391 . S
C2142 C2143 1.400 . S
C2143 C2142 1.400 . S
C2143 C2144 1.398 . S
C2143 C2149 1.491 . S
C2144 H2135 0.950 . S
C2144 C2143 1.398 . S
C2144 C2145 1.391 . S
C2145 H2133 0.950 . S
C2145 C2141 1.393 . S
C2145 C2144 1.391 . S
C2146 H2136 0.950 . S
C2146 C2147 1.386 . S
C2146 C2148 1.391 . S
C2147 C2146 1.386 . S
C2147 C2151 1.393 . S
C2148 H2137 0.950 . S
C2148 C2146 1.391 . S
C2148 C2149 1.400 . S
C2149 C2143 1.491 . S
C2149 C2148 1.400 . S
C2149 C2150 1.398 . S
C2150 H2138 0.950 . S
C2150 C2149 1.398 . S
C2150 C2151 1.391 . S
C2151 H2139 0.950 . S
C2151 C2147 1.393 . S
C2151 C2150 1.391 . S
H2152 C2160 0.950 . S
H2153 C2165 0.950 . S
H2154 C2162 0.950 . S
H2155 C2164 0.950 . S
H2156 C2166 0.950 . S
H2157 C2168 0.950 . S
H2158 C2170 0.950 . S
H2159 C2171 0.950 . S
C2160 H2152 0.950 . S
C2160 C2161 1.386 . S
C2160 C2162 1.391 . S
C2161 C2160 1.386 . S
C2161 C2165 1.393 . S
C2162 H2154 0.950 . S
C2162 C2160 1.391 . S
C2162 C2163 1.400 . S
C2163 C2162 1.400 . S
C2163 C2164 1.398 . S
C2163 C2169 1.491 . S
C2164 H2155 0.950 . S
C2164 C2163 1.398 . S
C2164 C2165 1.391 . S
C2165 H2153 0.950 . S
C2165 C2161 1.393 . S
C2165 C2164 1.391 . S
C2166 H2156 0.950 . S
C2166 C2167 1.386 . S
C2166 C2168 1.391 . S
C2167 C2166 1.386 . S
C2167 C2171 1.393 . S
C2168 H2157 0.950 . S
C2168 C2166 1.391 . S
C2168 C2169 1.400 . S
C2169 C2163 1.491 . S
C2169 C2168 1.400 . S
C2169 C2170 1.398 . S
C2170 H2158 0.950 . S
C2170 C2169 1.398 . S
C2170 C2171 1.391 . S
C2171 H2159 0.950 . S
C2171 C2167 1.393 . S
C2171 C2170 1.391 . S
H2172 C2180 0.950 . S
H2173 C2185 0.950 . S
H2174 C2182 0.950 . S
H2175 C2184 0.950 . S
H2176 C2186 0.950 . S
H2177 C2188 0.950 . S
H2178 C2190 0.950 . S
H2179 C2191 0.950 . S
C2180 H2172 0.950 . S
C2180 C2181 1.386 . S
C2180 C2182 1.391 . S
C2181 C2180 1.386 . S
C2181 C2185 1.393 . S
C2182 H2174 0.950 . S
C2182 C2180 1.391 . S
C2182 C2183 1.400 . S
C2183 C2182 1.400 . S
C2183 C2184 1.398 . S
C2183 C2189 1.491 . S
C2184 H2175 0.950 . S
C2184 C2183 1.398 . S
C2184 C2185 1.391 . S
C2185 H2173 0.950 . S
C2185 C2181 1.393 . S
C2185 C2184 1.391 . S
C2186 H2176 0.950 . S
C2186 C2187 1.386 . S
C2186 C2188 1.391 . S
C2187 C2186 1.386 . S
C2187 C2191 1.393 . S
C2188 H2177 0.950 . S
C2188 C2186 1.391 . S
C2188 C2189 1.400 . S
C2189 C2183 1.491 . S
C2189 C2188 1.400 . S
C2189 C2190 1.398 . S
C2190 H2178 0.950 . S
C2190 C2189 1.398 . S
C2190 C2191 1.391 . S
C2191 H2179 0.950 . S
C2191 C2187 1.393 . S
C2191 C2190 1.391 . S
H2192 C2200 0.950 . S
H2193 C2205 0.950 . S
H2194 C2202 0.950 . S
H2195 C2204 0.950 . S
H2196 C2206 0.950 . S
H2197 C2208 0.950 . S
H2198 C2210 0.950 . S
H2199 C2211 0.950 . S
C2200 H2192 0.950 . S
C2200 C2201 1.386 . S
C2200 C2202 1.391 . S
C2201 C2200 1.386 . S
C2201 C2205 1.393 . S
C2202 H2194 0.950 . S
C2202 C2200 1.391 . S
C2202 C2203 1.400 . S
C2203 C2202 1.400 . S
C2203 C2204 1.398 . S
C2203 C2209 1.491 . S
C2204 H2195 0.950 . S
C2204 C2203 1.398 . S
C2204 C2205 1.391 . S
C2205 H2193 0.950 . S
C2205 C2201 1.393 . S
C2205 C2204 1.391 . S
C2206 H2196 0.950 . S
C2206 C2207 1.386 . S
C2206 C2208 1.391 . S
C2207 C2206 1.386 . S
C2207 C2211 1.393 . S
C2208 H2197 0.950 . S
C2208 C2206 1.391 . S
C2208 C2209 1.400 . S
C2209 C2203 1.491 . S
C2209 C2208 1.400 . S
C2209 C2210 1.398 . S
C2210 H2198 0.950 . S
C2210 C2209 1.398 . S
C2210 C2211 1.391 . S
C2211 H2199 0.950 . S
C2211 C2207 1.393 . S
C2211 C2210 1.391 . S
H2212 C2220 0.950 . S
H2213 C2225 0.950 . S
H2214 C2222 0.950 . S
H2215 C2224 0.950 . S
H2216 C2226 0.950 . S
H2217 C2228 0.950 . S
H2218 C2230 0.950 . S
H2219 C2231 0.950 . S
C2220 H2212 0.950 . S
C2220 C2221 1.386 . S
C2220 C2222 1.391 . S
C2221 C2220 1.386 . S
C2221 C2225 1.393 . S
C2222 H2214 0.950 . S
C2222 C2220 1.391 . S
C2222 C2223 1.400 . S
C2223 C2222 1.400 . S
C2223 C2224 1.398 . S
C2223 C2229 1.491 . S
C2224 H2215 0.950 . S
C2224 C2223 1.398 . S
C2224 C2225 1.391 . S
C2225 H2213 0.950 . S
C2225 C2221 1.393 . S
C2225 C2224 1.391 . S
C2226 H2216 0.950 . S
C2226 C2227 1.386 . S
C2226 C2228 1.391 . S
C2227 C2226 1.386 . S
C2227 C2231 1.393 . S
C2228 H2217 0.950 . S
C2228 C2226 1.391 . S
C2228 C2229 1.400 . S
C2229 C2223 1.491 . S
C2229 C2228 1.400 . S
C2229 C2230 1.398 . S
C2230 H2218 0.950 . S
C2230 C2229 1.398 . S
C2230 C2231 1.391 . S
C2231 H2219 0.950 . S
C2231 C2227 1.393 . S
C2231 C2230 1.391 . S
H2232 C2240 0.950 . S
H2233 C2245 0.950 . S
H2234 C2242 0.950 . S
H2235 C2244 0.950 . S
H2236 C2246 0.950 . S
H2237 C2248 0.950 . S
H2238 C2250 0.950 . S
H2239 C2251 0.950 . S
C2240 H2232 0.950 . S
C2240 C2241 1.386 . S
C2240 C2242 1.391 . S
C2241 C2240 1.386 . S
C2241 C2245 1.393 . S
C2242 H2234 0.950 . S
C2242 C2240 1.391 . S
C2242 C2243 1.400 . S
C2243 C2242 1.400 . S
C2243 C2244 1.398 . S
C2243 C2249 1.491 . S
C2244 H2235 0.950 . S
C2244 C2243 1.398 . S
C2244 C2245 1.391 . S
C2245 H2233 0.950 . S
C2245 C2241 1.393 . S
C2245 C2244 1.391 . S
C2246 H2236 0.950 . S
C2246 C2247 1.386 . S
C2246 C2248 1.391 . S
C2247 C2246 1.386 . S
C2247 C2251 1.393 . S
C2248 H2237 0.950 . S
C2248 C2246 1.391 . S
C2248 C2249 1.400 . S
C2249 C2243 1.491 . S
C2249 C2248 1.400 . S
C2249 C2250 1.398 . S
C2250 H2238 0.950 . S
C2250 C2249 1.398 . S
C2250 C2251 1.391 . S
C2251 H2239 0.950 . S
C2251 C2247 1.393 . S
C2251 C2250 1.391 . S
H2252 C2260 0.950 . S
H2253 C2265 0.950 . S
H2254 C2262 0.950 . S
H2255 C2264 0.950 . S
H2256 C2266 0.950 . S
H2257 C2268 0.950 . S
H2258 C2270 0.950 . S
H2259 C2271 0.950 . S
C2260 H2252 0.950 . S
C2260 C2261 1.386 . S
C2260 C2262 1.391 . S
C2261 C2260 1.386 . S
C2261 C2265 1.393 . S
C2262 H2254 0.950 . S
C2262 C2260 1.391 . S
C2262 C2263 1.400 . S
C2263 C2262 1.400 . S
C2263 C2264 1.398 . S
C2263 C2269 1.491 . S
C2264 H2255 0.950 . S
C2264 C2263 1.398 . S
C2264 C2265 1.391 . S
C2265 H2253 0.950 . S
C2265 C2261 1.393 . S
C2265 C2264 1.391 . S
C2266 H2256 0.950 . S
C2266 C2267 1.386 . S
C2266 C2268 1.391 . S
C2267 C2266 1.386 . S
C2267 C2271 1.393 . S
C2268 H2257 0.950 . S
C2268 C2266 1.391 . S
C2268 C2269 1.400 . S
C2269 C2263 1.491 . S
C2269 C2268 1.400 . S
C2269 C2270 1.398 . S
C2270 H2258 0.950 . S
C2270 C2269 1.398 . S
C2270 C2271 1.391 . S
C2271 H2259 0.950 . S
C2271 C2267 1.393 . S
C2271 C2270 1.391 . S
H2272 C2280 0.950 . S
H2273 C2285 0.950 . S
H2274 C2282 0.950 . S
H2275 C2284 0.950 . S
H2276 C2286 0.950 . S
H2277 C2288 0.950 . S
H2278 C2290 0.950 . S
H2279 C2291 0.950 . S
C2280 H2272 0.950 . S
C2280 C2281 1.386 . S
C2280 C2282 1.391 . S
C2281 C2280 1.386 . S
C2281 C2285 1.393 . S
C2282 H2274 0.950 . S
C2282 C2280 1.391 . S
C2282 C2283 1.400 . S
C2283 C2282 1.400 . S
C2283 C2284 1.398 . S
C2283 C2289 1.491 . S
C2284 H2275 0.950 . S
C2284 C2283 1.398 . S
C2284 C2285 1.391 . S
C2285 H2273 0.950 . S
C2285 C2281 1.393 . S
C2285 C2284 1.391 . S
C2286 H2276 0.950 . S
C2286 C2287 1.386 . S
C2286 C2288 1.391 . S
C2287 C2286 1.386 . S
C2287 C2291 1.393 . S
C2288 H2277 0.950 . S
C2288 C2286 1.391 . S
C2288 C2289 1.400 . S
C2289 C2283 1.491 . S
C2289 C2288 1.400 . S
C2289 C2290 1.398 . S
C2290 H2278 0.950 . S
C2290 C2289 1.398 . S
C2290 C2291 1.391 . S
C2291 H2279 0.950 . S
C2291 C2287 1.393 . S
C2291 C2290 1.391 . S
H2292 C2300 0.950 . S
H2293 C2305 0.950 . S
H2294 C2302 0.950 . S
H2295 C2304 0.950 . S
H2296 C2306 0.950 . S
H2297 C2308 0.950 . S
H2298 C2310 0.950 . S
H2299 C2311 0.950 . S
C2300 H2292 0.950 . S
C2300 C2301 1.386 . S
C2300 C2302 1.391 . S
C2301 C2300 1.386 . S
C2301 C2305 1.393 . S
C2302 H2294 0.950 . S
C2302 C2300 1.391 . S
C2302 C2303 1.400 . S
C2303 C2302 1.400 . S
C2303 C2304 1.398 . S
C2303 C2309 1.491 . S
C2304 H2295 0.950 . S
C2304 C2303 1.398 . S
C2304 C2305 1.391 . S
C2305 H2293 0.950 . S
C2305 C2301 1.393 . S
C2305 C2304 1.391 . S
C2306 H2296 0.950 . S
C2306 C2307 1.386 . S
C2306 C2308 1.391 . S
C2307 C2306 1.386 . S
C2307 C2311 1.393 . S
C2308 H2297 0.950 . S
C2308 C2306 1.391 . S
C2308 C2309 1.400 . S
C2309 C2303 1.491 . S
C2309 C2308 1.400 . S
C2309 C2310 1.398 . S
C2310 H2298 0.950 . S
C2310 C2309 1.398 . S
C2310 C2311 1.391 . S
C2311 H2299 0.950 . S
C2311 C2307 1.393 . S
C2311 C2310 1.391 . S
H2312 C2320 0.950 . S
H2313 C2325 0.950 . S
H2314 C2322 0.950 . S
H2315 C2324 0.950 . S
H2316 C2326 0.950 . S
H2317 C2328 0.950 . S
H2318 C2330 0.950 . S
H2319 C2331 0.950 . S
C2320 H2312 0.950 . S
C2320 C2321 1.386 . S
C2320 C2322 1.391 . S
C2321 C2320 1.386 . S
C2321 C2325 1.393 . S
C2322 H2314 0.950 . S
C2322 C2320 1.391 . S
C2322 C2323 1.400 . S
C2323 C2322 1.400 . S
C2323 C2324 1.398 . S
C2323 C2329 1.491 . S
C2324 H2315 0.950 . S
C2324 C2323 1.398 . S
C2324 C2325 1.391 . S
C2325 H2313 0.950 . S
C2325 C2321 1.393 . S
C2325 C2324 1.391 . S
C2326 H2316 0.950 . S
C2326 C2327 1.386 . S
C2326 C2328 1.391 . S
C2327 C2326 1.386 . S
C2327 C2331 1.393 . S
C2328 H2317 0.950 . S
C2328 C2326 1.391 . S
C2328 C2329 1.400 . S
C2329 C2323 1.491 . S
C2329 C2328 1.400 . S
C2329 C2330 1.398 . S
C2330 H2318 0.950 . S
C2330 C2329 1.398 . S
C2330 C2331 1.391 . S
C2331 H2319 0.950 . S
C2331 C2327 1.393 . S
C2331 C2330 1.391 . S
H2332 C2340 0.950 . S
H2333 C2345 0.950 . S
H2334 C2342 0.950 . S
H2335 C2344 0.950 . S
H2336 C2346 0.950 . S
H2337 C2348 0.950 . S
H2338 C2350 0.950 . S
H2339 C2351 0.950 . S
C2340 H2332 0.950 . S
C2340 C2341 1.386 . S
C2340 C2342 1.391 . S
C2341 C2340 1.386 . S
C2341 C2345 1.393 . S
C2342 H2334 0.950 . S
C2342 C2340 1.391 . S
C2342 C2343 1.400 . S
C2343 C2342 1.400 . S
C2343 C2344 1.398 . S
C2343 C2349 1.491 . S
C2344 H2335 0.950 . S
C2344 C2343 1.398 . S
C2344 C2345 1.391 . S
C2345 H2333 0.950 . S
C2345 C2341 1.393 . S
C2345 C2344 1.391 . S
C2346 H2336 0.950 . S
C2346 C2347 1.386 . S
C2346 C2348 1.391 . S
C2347 C2346 1.386 . S
C2347 C2351 1.393 . S
C2348 H2337 0.950 . S
C2348 C2346 1.391 . S
C2348 C2349 1.400 . S
C2349 C2343 1.491 . S
C2349 C2348 1.400 . S
C2349 C2350 1.398 . S
C2350 H2338 0.950 . S
C2350 C2349 1.398 . S
C2350 C2351 1.391 . S
C2351 H2339 0.950 . S
C2351 C2347 1.393 . S
C2351 C2350 1.391 . S
H2352 C2360 0.950 . S
H2353 C2365 0.950 . S
H2354 C2362 0.950 . S
H2355 C2364 0.950 . S
H2356 C2366 0.950 . S
H2357 C2368 0.950 . S
H2358 C2370 0.950 . S
H2359 C2371 0.950 . S
C2360 H2352 0.950 . S
C2360 C2361 1.386 . S
C2360 C2362 1.391 . S
C2361 C2360 1.386 . S
C2361 C2365 1.393 . S
C2362 H2354 0.950 . S
C2362 C2360 1.391 . S
C2362 C2363 1.400 . S
C2363 C2362 1.400 . S
C2363 C2364 1.398 . S
C2363 C2369 1.491 . S
C2364 H2355 0.950 . S
C2364 C2363 1.398 . S
C2364 C2365 1.391 . S
C2365 H2353 0.950 . S
C2365 C2361 1.393 . S
C2365 C2364 1.391 . S
C2366 H2356 0.950 . S
C2366 C2367 1.386 . S
C2366 C2368 1.391 . S
C2367 C2366 1.386 . S
C2367 C2371 1.393 . S
C2368 H2357 0.950 . S
C2368 C2366 1.391 . S
C2368 C2369 1.400 . S
C2369 C2363 1.491 . S
C2369 C2368 1.400 . S
C2369 C2370 1.398 . S
C2370 H2358 0.950 . S
C2370 C2369 1.398 . S
C2370 C2371 1.391 . S
C2371 H2359 0.950 . S
C2371 C2367 1.393 . S
C2371 C2370 1.391 . S
H2372 C2380 0.950 . S
H2373 C2385 0.950 . S
H2374 C2382 0.950 . S
H2375 C2384 0.950 . S
H2376 C2386 0.950 . S
H2377 C2388 0.950 . S
H2378 C2390 0.950 . S
H2379 C2391 0.950 . S
C2380 H2372 0.950 . S
C2380 C2381 1.386 . S
C2380 C2382 1.391 . S
C2381 C2380 1.386 . S
C2381 C2385 1.393 . S
C2382 H2374 0.950 . S
C2382 C2380 1.391 . S
C2382 C2383 1.400 . S
C2383 C2382 1.400 . S
C2383 C2384 1.398 . S
C2383 C2389 1.491 . S
C2384 H2375 0.950 . S
C2384 C2383 1.398 . S
C2384 C2385 1.391 . S
C2385 H2373 0.950 . S
C2385 C2381 1.393 . S
C2385 C2384 1.391 . S
C2386 H2376 0.950 . S
C2386 C2387 1.386 . S
C2386 C2388 1.391 . S
C2387 C2386 1.386 . S
C2387 C2391 1.393 . S
C2388 H2377 0.950 . S
C2388 C2386 1.391 . S
C2388 C2389 1.400 . S
C2389 C2383 1.491 . S
C2389 C2388 1.400 . S
C2389 C2390 1.398 . S
C2390 H2378 0.950 . S
C2390 C2389 1.398 . S
C2390 C2391 1.391 . S
C2391 H2379 0.950 . S
C2391 C2387 1.393 . S
C2391 C2390 1.391 . S
H2392 C2400 0.950 . S
H2393 C2405 0.950 . S
H2394 C2402 0.950 . S
H2395 C2404 0.950 . S
H2396 C2406 0.950 . S
H2397 C2408 0.950 . S
H2398 C2410 0.950 . S
H2399 C2411 0.950 . S
C2400 H2392 0.950 . S
C2400 C2401 1.386 . S
C2400 C2402 1.391 . S
C2401 C2400 1.386 . S
C2401 C2405 1.393 . S
C2402 H2394 0.950 . S
C2402 C2400 1.391 . S
C2402 C2403 1.400 . S
C2403 C2402 1.400 . S
C2403 C2404 1.398 . S
C2403 C2409 1.491 . S
C2404 H2395 0.950 . S
C2404 C2403 1.398 . S
C2404 C2405 1.391 . S
C2405 H2393 0.950 . S
C2405 C2401 1.393 . S
C2405 C2404 1.391 . S
C2406 H2396 0.950 . S
C2406 C2407 1.386 . S
C2406 C2408 1.391 . S
C2407 C2406 1.386 . S
C2407 C2411 1.393 . S
C2408 H2397 0.950 . S
C2408 C2406 1.391 . S
C2408 C2409 1.400 . S
C2409 C2403 1.491 . S
C2409 C2408 1.400 . S
C2409 C2410 1.398 . S
C2410 H2398 0.950 . S
C2410 C2409 1.398 . S
C2410 C2411 1.391 . S
C2411 H2399 0.950 . S
C2411 C2407 1.393 . S
C2411 C2410 1.391 . S
H2412 C2420 0.950 . S
H2413 C2425 0.950 . S
H2414 C2422 0.950 . S
H2415 C2424 0.950 . S
H2416 C2426 0.950 . S
H2417 C2428 0.950 . S
H2418 C2430 0.950 . S
H2419 C2431 0.950 . S
C2420 H2412 0.950 . S
C2420 C2421 1.386 . S
C2420 C2422 1.391 . S
C2421 C2420 1.386 . S
C2421 C2425 1.393 . S
C2422 H2414 0.950 . S
C2422 C2420 1.391 . S
C2422 C2423 1.400 . S
C2423 C2422 1.400 . S
C2423 C2424 1.398 . S
C2423 C2429 1.491 . S
C2424 H2415 0.950 . S
C2424 C2423 1.398 . S
C2424 C2425 1.391 . S
C2425 H2413 0.950 . S
C2425 C2421 1.393 . S
C2425 C2424 1.391 . S
C2426 H2416 0.950 . S
C2426 C2427 1.386 . S
C2426 C2428 1.391 . S
C2427 C2426 1.386 . S
C2427 C2431 1.393 . S
C2428 H2417 0.950 . S
C2428 C2426 1.391 . S
C2428 C2429 1.400 . S
C2429 C2423 1.491 . S
C2429 C2428 1.400 . S
C2429 C2430 1.398 . S
C2430 H2418 0.950 . S
C2430 C2429 1.398 . S
C2430 C2431 1.391 . S
C2431 H2419 0.950 . S
C2431 C2427 1.393 . S
C2431 C2430 1.391 . S
H2432 C2440 0.950 . S
H2433 C2445 0.950 . S
H2434 C2442 0.950 . S
H2435 C2444 0.950 . S
H2436 C2446 0.950 . S
H2437 C2448 0.950 . S
H2438 C2450 0.950 . S
H2439 C2451 0.950 . S
C2440 H2432 0.950 . S
C2440 C2441 1.386 . S
C2440 C2442 1.391 . S
C2441 C2440 1.386 . S
C2441 C2445 1.393 . S
C2442 H2434 0.950 . S
C2442 C2440 1.391 . S
C2442 C2443 1.400 . S
C2443 C2442 1.400 . S
C2443 C2444 1.398 . S
C2443 C2449 1.491 . S
C2444 H2435 0.950 . S
C2444 C2443 1.398 . S
C2444 C2445 1.391 . S
C2445 H2433 0.950 . S
C2445 C2441 1.393 . S
C2445 C2444 1.391 . S
C2446 H2436 0.950 . S
C2446 C2447 1.386 . S
C2446 C2448 1.391 . S
C2447 C2446 1.386 . S
C2447 C2451 1.393 . S
C2448 H2437 0.950 . S
C2448 C2446 1.391 . S
C2448 C2449 1.400 . S
C2449 C2443 1.491 . S
C2449 C2448 1.400 . S
C2449 C2450 1.398 . S
C2450 H2438 0.950 . S
C2450 C2449 1.398 . S
C2450 C2451 1.391 . S
C2451 H2439 0.950 . S
C2451 C2447 1.393 . S
C2451 C2450 1.391 . S
H2452 C2460 0.950 . S
H2453 C2465 0.950 . S
H2454 C2462 0.950 . S
H2455 C2464 0.950 . S
H2456 C2466 0.950 . S
H2457 C2468 0.950 . S
H2458 C2470 0.950 . S
H2459 C2471 0.950 . S
C2460 H2452 0.950 . S
C2460 C2461 1.386 . S
C2460 C2462 1.391 . S
C2461 C2460 1.386 . S
C2461 C2465 1.393 . S
C2462 H2454 0.950 . S
C2462 C2460 1.391 . S
C2462 C2463 1.400 . S
C2463 C2462 1.400 . S
C2463 C2464 1.398 . S
C2463 C2469 1.491 . S
C2464 H2455 0.950 . S
C2464 C2463 1.398 . S
C2464 C2465 1.391 . S
C2465 H2453 0.950 . S
C2465 C2461 1.393 . S
C2465 C2464 1.391 . S
C2466 H2456 0.950 . S
C2466 C2467 1.386 . S
C2466 C2468 1.391 . S
C2467 C2466 1.386 . S
C2467 C2471 1.393 . S
C2468 H2457 0.950 . S
C2468 C2466 1.391 . S
C2468 C2469 1.400 . S
C2469 C2463 1.491 . S
C2469 C2468 1.400 . S
C2469 C2470 1.398 . S
C2470 H2458 0.950 . S
C2470 C2469 1.398 . S
C2470 C2471 1.391 . S
C2471 H2459 0.950 . S
C2471 C2467 1.393 . S
C2471 C2470 1.391 . S
H2472 C2480 0.950 . S
H2473 C2485 0.950 . S
H2474 C2482 0.950 . S
H2475 C2484 0.950 . S
H2476 C2486 0.950 . S
H2477 C2488 0.950 . S
H2478 C2490 0.950 . S
H2479 C2491 0.950 . S
C2480 H2472 0.950 . S
C2480 C2481 1.386 . S
C2480 C2482 1.391 . S
C2481 C2480 1.386 . S
C2481 C2485 1.393 . S
C2482 H2474 0.950 . S
C2482 C2480 1.391 . S
C2482 C2483 1.400 . S
C2483 C2482 1.400 . S
C2483 C2484 1.398 . S
C2483 C2489 1.491 . S
C2484 H2475 0.950 . S
C2484 C2483 1.398 . S
C2484 C2485 1.391 . S
C2485 H2473 0.950 . S
C2485 C2481 1.393 . S
C2485 C2484 1.391 . S
C2486 H2476 0.950 . S
C2486 C2487 1.386 . S
C2486 C2488 1.391 . S
C2487 C2486 1.386 . S
C2487 C2491 1.393 . S
C2488 H2477 0.950 . S
C2488 C2486 1.391 . S
C2488 C2489 1.400 . S
C2489 C2483 1.491 . S
C2489 C2488 1.400 . S
C2489 C2490 1.398 . S
C2490 H2478 0.950 . S
C2490 C2489 1.398 . S
C2490 C2491 1.391 . S
C2491 H2479 0.950 . S
C2491 C2487 1.393 . S
C2491 C2490 1.391 . S
H2492 C2500 0.950 . S
H2493 C2505 0.950 . S
H2494 C2502 0.950 . S
H2495 C2504 0.950 . S
H2496 C2506 0.950 . S
H2497 C2508 0.950 . S
H2498 C2510 0.950 . S
H2499 C2511 0.950 . S
C2500 H2492 0.950 . S
C2500 C2501 1.386 . S
C2500 C2502 1.391 . S
C2501 C2500 1.386 . S
C2501 C2505 1.393 . S
C2502 H2494 0.950 . S
C2502 C2500 1.391 . S
C2502 C2503 1.400 . S
C2503 C2502 1.400 . S
C2503 C2504 1.398 . S
C2503 C2509 1.491 . S
C2504 H2495 0.950 . S
C2504 C2503 1.398 . S
C2504 C2505 1.391 . S
C2505 H2493 0.950 . S
C2505 C2501 1.393 . S
C2505 C2504 1.391 . S
C2506 H2496 0.950 . S
C2506 C2507 1.386 . S
C2506 C2508 1.391 . S
C2507 C2506 1.386 . S
C2507 C2511 1.393 . S
C2508 H2497 0.950 . S
C2508 C2506 1.391 . S
C2508 C2509 1.400 . S
C2509 C2503 1.491 . S
C2509 C2508 1.400 . S
C2509 C2510 1.398 . S
C2510 H2498 0.950 . S
C2510 C2509 1.398 . S
C2510 C2511 1.391 . S
C2511 H2499 0.950 . S
C2511 C2507 1.393 . S
C2511 C2510 1.391 . S
H2512 C2520 0.950 . S
H2513 C2525 0.950 . S
H2514 C2522 0.950 . S
H2515 C2524 0.950 . S
H2516 C2526 0.950 . S
H2517 C2528 0.950 . S
H2518 C2530 0.950 . S
H2519 C2531 0.950 . S
C2520 H2512 0.950 . S
C2520 C2521 1.386 . S
C2520 C2522 1.391 . S
C2521 C2520 1.386 . S
C2521 C2525 1.393 . S
C2522 H2514 0.950 . S
C2522 C2520 1.391 . S
C2522 C2523 1.400 . S
C2523 C2522 1.400 . S
C2523 C2524 1.398 . S
C2523 C2529 1.491 . S
C2524 H2515 0.950 . S
C2524 C2523 1.398 . S
C2524 C2525 1.391 . S
C2525 H2513 0.950 . S
C2525 C2521 1.393 . S
C2525 C2524 1.391 . S
C2526 H2516 0.950 . S
C2526 C2527 1.386 . S
C2526 C2528 1.391 . S
C2527 C2526 1.386 . S
C2527 C2531 1.393 . S
C2528 H2517 0.950 . S
C2528 C2526 1.391 . S
C2528 C2529 1.400 . S
C2529 C2523 1.491 . S
C2529 C2528 1.400 . S
C2529 C2530 1.398 . S
C2530 H2518 0.950 . S
C2530 C2529 1.398 . S
C2530 C2531 1.391 . S
C2531 H2519 0.950 . S
C2531 C2527 1.393 . S
C2531 C2530 1.391 . S
H2532 C2540 0.950 . S
H2533 C2545 0.950 . S
H2534 C2542 0.950 . S
H2535 C2544 0.950 . S
H2536 C2546 0.950 . S
H2537 C2548 0.950 . S
H2538 C2550 0.950 . S
H2539 C2551 0.950 . S
C2540 H2532 0.950 . S
C2540 C2541 1.386 . S
C2540 C2542 1.391 . S
C2541 C2540 1.386 . S
C2541 C2545 1.393 . S
C2542 H2534 0.950 . S
C2542 C2540 1.391 . S
C2542 C2543 1.400 . S
C2543 C2542 1.400 . S
C2543 C2544 1.398 . S
C2543 C2549 1.491 . S
C2544 H2535 0.950 . S
C2544 C2543 1.398 . S
C2544 C2545 1.391 . S
C2545 H2533 0.950 . S
C2545 C2541 1.393 . S
C2545 C2544 1.391 . S
C2546 H2536 0.950 . S
C2546 C2547 1.386 . S
C2546 C2548 1.391 . S
C2547 C2546 1.386 . S
C2547 C2551 1.393 . S
C2548 H2537 0.950 . S
C2548 C2546 1.391 . S
C2548 C2549 1.400 . S
C2549 C2543 1.491 . S
C2549 C2548 1.400 . S
C2549 C2550 1.398 . S
C2550 H2538 0.950 . S
C2550 C2549 1.398 . S
C2550 C2551 1.391 . S
C2551 H2539 0.950 . S
C2551 C2547 1.393 . S
C2551 C2550 1.391 . S
H2552 C2560 0.950 . S
H2553 C2565 0.950 . S
H2554 C2562 0.950 . S
H2555 C2564 0.950 . S
H2556 C2566 0.950 . S
H2557 C2568 0.950 . S
H2558 C2570 0.950 . S
H2559 C2571 0.950 . S
C2560 H2552 0.950 . S
C2560 C2561 1.386 . S
C2560 C2562 1.391 . S
C2561 C2560 1.386 . S
C2561 C2565 1.393 . S
C2562 H2554 0.950 . S
C2562 C2560 1.391 . S
C2562 C2563 1.400 . S
C2563 C2562 1.400 . S
C2563 C2564 1.398 . S
C2563 C2569 1.491 . S
C2564 H2555 0.950 . S
C2564 C2563 1.398 . S
C2564 C2565 1.391 . S
C2565 H2553 0.950 . S
C2565 C2561 1.393 . S
C2565 C2564 1.391 . S
C2566 H2556 0.950 . S
C2566 C2567 1.386 . S
C2566 C2568 1.391 . S
C2567 C2566 1.386 . S
C2567 C2571 1.393 . S
C2568 H2557 0.950 . S
C2568 C2566 1.391 . S
C2568 C2569 1.400 . S
C2569 C2563 1.491 . S
C2569 C2568 1.400 . S
C2569 C2570 1.398 . S
C2570 H2558 0.950 . S
C2570 C2569 1.398 . S
C2570 C2571 1.391 . S
C2571 H2559 0.950 . S
C2571 C2567 1.393 . S
C2571 C2570 1.391 . S
H2572 C2580 0.950 . S
H2573 C2585 0.950 . S
H2574 C2582 0.950 . S
H2575 C2584 0.950 . S
H2576 C2586 0.950 . S
H2577 C2588 0.950 . S
H2578 C2590 0.950 . S
H2579 C2591 0.950 . S
C2580 H2572 0.950 . S
C2580 C2581 1.386 . S
C2580 C2582 1.391 . S
C2581 C2580 1.386 . S
C2581 C2585 1.393 . S
C2582 H2574 0.950 . S
C2582 C2580 1.391 . S
C2582 C2583 1.400 . S
C2583 C2582 1.400 . S
C2583 C2584 1.398 . S
C2583 C2589 1.491 . S
C2584 H2575 0.950 . S
C2584 C2583 1.398 . S
C2584 C2585 1.391 . S
C2585 H2573 0.950 . S
C2585 C2581 1.393 . S
C2585 C2584 1.391 . S
C2586 H2576 0.950 . S
C2586 C2587 1.386 . S
C2586 C2588 1.391 . S
C2587 C2586 1.386 . S
C2587 C2591 1.393 . S
C2588 H2577 0.950 . S
C2588 C2586 1.391 . S
C2588 C2589 1.400 . S
C2589 C2583 1.491 . S
C2589 C2588 1.400 . S
C2589 C2590 1.398 . S
C2590 H2578 0.950 . S
C2590 C2589 1.398 . S
C2590 C2591 1.391 . S
C2591 H2579 0.950 . S
C2591 C2587 1.393 . S
C2591 C2590 1.391 . S
C681 C398 1.073 . S
C687 C6 1.081 . S
C701 C20 1.080 . S
C707 C412 1.075 . S
C721 C426 1.087 . S
C727 C34 1.067 . S
C741 C48 1.088 . S
C747 C440 1.066 . S
C761 C342 1.072 . S
C767 C62 1.082 . S
C781 C76 1.073 . S
C787 C356 1.081 . S
C801 C370 1.083 . S
C807 C90 1.071 . S
C821 C104 1.077 . S
C827 C384 1.078 . S
C841 C538 1.065 . S
C847 C118 1.089 . S
C861 C552 1.075 . S
C867 C132 1.079 . S
C881 C510 1.087 . S
C887 C146 1.067 . S
C901 C160 1.087 . S
C907 C524 1.068 . S
C921 C482 1.072 . S
C927 C174 1.083 . S
C941 C496 1.075 . S
C947 C188 1.079 . S
C961 C202 1.065 . S
C967 C454 1.089 . S
C981 C468 1.071 . S
C987 C216 1.083 . S
C1001 C230 1.065 . S
C1007 C636 1.089 . S
C1021 C608 1.071 . S
C1027 C244 1.083 . S
C1041 C622 1.066 . S
C1047 C258 1.088 . S
C1061 C580 1.076 . S
C1067 C272 1.078 . S
C1081 C594 1.082 . S
C1087 C286 1.072 . S
C1101 C300 1.077 . S
C1107 C566 1.077 . S
C1121 C314 1.083 . S
C1127 C664 1.072 . S
C1141 C650 1.065 . S
C1147 C328 1.089 . S
C1161 C105 1.576 . S
C1167 C7 1.549 . S
C1181 C63 1.552 . S
C1187 C21 1.582 . S
C1201 C77 1.584 . S
C1207 C35 1.570 . S
C1221 C91 1.566 . S
C1227 C49 1.585 . S
C1241 C287 1.586 . S
C1247 C119 1.562 . S
C1261 C245 1.574 . S
C1267 C133 1.582 . S
C1281 C259 1.552 . S
C1287 C147 1.563 . S
C1301 C273 1.562 . S
C1307 C161 1.552 . S
C1321 C329 1.582 . S
C1327 C175 1.553 . S
C1341 C301 1.585 . S
C1347 C189 1.568 . S
C1361 C203 1.573 . S
C1367 C315 1.549 . S
C1381 C231 1.583 . S
C1387 C217 1.554 . S
C1401 C441 1.585 . S
C1407 C343 1.558 . S
C1421 C399 1.585 . S
C1427 C357 1.557 . S
C1441 C371 1.566 . S
C1447 C413 1.550 . S
C1461 C385 1.555 . S
C1467 C427 1.584 . S
C1481 C455 1.560 . S
C1487 C623 1.554 . S
C1501 C469 1.568 . S
C1507 C581 1.550 . S
C1521 C595 1.583 . S
C1527 C483 1.554 . S
C1541 C609 1.563 . S
C1547 C497 1.552 . S
C1561 C665 1.585 . S
C1567 C511 1.559 . S
C1581 C637 1.569 . S
C1587 C525 1.585 . S
C1601 C651 1.571 . S
C1607 C539 1.584 . S
C1621 C553 1.555 . S
C1627 C567 1.584 . S
C1641 C8 1.265 . S
C1647 C121 1.209 . S
C1661 C135 1.236 . S
C1667 C22 1.255 . S
C1681 C149 1.220 . S
C1687 C36 1.265 . S
C1701 C163 1.239 . S
C1707 C50 1.255 . S
C1721 C64 1.259 . S
C1727 C177 1.222 . S
C1741 C191 1.223 . S
C1747 C78 1.264 . S
C1761 C92 1.258 . S
C1767 C205 1.223 . S
C1781 C219 1.239 . S
C1787 C106 1.256 . S
C1801 C233 1.213 . S
C1807 C120 1.262 . S
C1821 C331 1.237 . S
C1827 C134 1.255 . S
C1841 C148 1.255 . S
C1847 C303 1.237 . S
C1861 C162 1.255 . S
C1867 C317 1.233 . S
C1881 C176 1.256 . S
C1887 C247 1.231 . S
C1901 C190 1.264 . S
C1907 C261 1.210 . S
C1921 C204 1.257 . S
C1927 C275 1.225 . S
C1941 C218 1.255 . S
C1947 C289 1.239 . S
C1961 C232 1.265 . S
C1967 C9 1.209 . S
C1981 C246 1.255 . S
C1987 C65 1.239 . S
C2001 C260 1.266 . S
C2007 C79 1.213 . S
C2021 C274 1.256 . S
C2027 C93 1.231 . S
C2041 C288 1.255 . S
C2047 C107 1.232 . S
C2061 C302 1.263 . S
C2067 C37 1.225 . S
C2081 C51 1.228 . S
C2087 C316 1.256 . S
C2101 C23 1.210 . S
C2107 C330 1.267 . S
C2121 C457 1.209 . S
C2127 C344 1.267 . S
C2141 C471 1.217 . S
C2147 C358 1.260 . S
C2161 C485 1.209 . S
C2167 C372 1.266 . S
C2181 C499 1.230 . S
C2187 C386 1.261 . S
C2201 C513 1.209 . S
C2207 C400 1.265 . S
C2221 C414 1.263 . S
C2227 C527 1.225 . S
C2241 C541 1.222 . S
C2247 C428 1.264 . S
C2261 C442 1.265 . S
C2267 C555 1.209 . S
C2281 C569 1.209 . S
C2287 C456 1.266 . S
C2301 C470 1.258 . S
C2307 C667 1.222 . S
C2321 C484 1.258 . S
C2327 C639 1.224 . S
C2341 C653 1.238 . S
C2347 C498 1.255 . S
C2361 C583 1.237 . S
C2367 C512 1.258 . S
C2381 C526 1.262 . S
C2387 C597 1.213 . S
C2401 C540 1.266 . S
C2407 C611 1.216 . S
C2421 C625 1.210 . S
C2427 C554 1.267 . S
C2441 C345 1.232 . S
C2447 C568 1.256 . S
C2461 C401 1.210 . S
C2467 C582 1.267 . S
C2481 C415 1.214 . S
C2487 C596 1.266 . S
C2501 C610 1.257 . S
C2507 C429 1.227 . S
C2521 C443 1.209 . S
C2527 C624 1.267 . S
C2541 C373 1.219 . S
C2547 C638 1.265 . S
C2561 C652 1.256 . S
C2567 C387 1.239 . S
C2581 C359 1.225 . S
C2587 C666 1.257 . S
