# Generated by pormake.
# Topology ske, (6)-cn, num edge types: 1
# Building blocks:
#     Node 0, Type 0, BuildingBlock: KUMJIN_clean_sbu_0, # of connection points: 6
#     Node 1, Type 0, BuildingBlock: KUMJIN_clean_sbu_0, # of connection points: 6
#     Node 2, Type 0, BuildingBlock: KUMJIN_clean_sbu_0, # of connection points: 6
#     Node 3, Type 0, BuildingBlock: KUMJIN_clean_sbu_0, # of connection points: 6
#     Node 4, Type 0, BuildingBlock: KUMJIN_clean_sbu_0, # of connection points: 6
#     Node 5, Type 0, BuildingBlock: KUMJIN_clean_sbu_0, # of connection points: 6
#     Node 6, Type 0, BuildingBlock: KUMJIN_clean_sbu_0, # of connection points: 6
#     Node 7, Type 0, BuildingBlock: KUMJIN_clean_sbu_0, # of connection points: 6
#     Edge 8, Type (0, 0), BuildingBlock: MIFKUJ_clean_linker_0, # of connection points: 2
#     Edge 9, Type (0, 0), BuildingBlock: MIFKUJ_clean_linker_0, # of connection points: 2
#     Edge 10, Type (0, 0), BuildingBlock: MIFKUJ_clean_linker_0, # of connection points: 2
#     Edge 11, Type (0, 0), BuildingBlock: MIFKUJ_clean_linker_0, # of connection points: 2
#     Edge 12, Type (0, 0), BuildingBlock: MIFKUJ_clean_linker_0, # of connection points: 2
#     Edge 13, Type (0, 0), BuildingBlock: MIFKUJ_clean_linker_0, # of connection points: 2
#     Edge 14, Type (0, 0), BuildingBlock: MIFKUJ_clean_linker_0, # of connection points: 2
#     Edge 15, Type (0, 0), BuildingBlock: MIFKUJ_clean_linker_0, # of connection points: 2
#     Edge 16, Type (0, 0), BuildingBlock: MIFKUJ_clean_linker_0, # of connection points: 2
#     Edge 17, Type (0, 0), BuildingBlock: MIFKUJ_clean_linker_0, # of connection points: 2
#     Edge 18, Type (0, 0), BuildingBlock: MIFKUJ_clean_linker_0, # of connection points: 2
#     Edge 19, Type (0, 0), BuildingBlock: MIFKUJ_clean_linker_0, # of connection points: 2
#     Edge 20, Type (0, 0), BuildingBlock: MIFKUJ_clean_linker_0, # of connection points: 2
#     Edge 21, Type (0, 0), BuildingBlock: MIFKUJ_clean_linker_0, # of connection points: 2
#     Edge 22, Type (0, 0), BuildingBlock: MIFKUJ_clean_linker_0, # of connection points: 2
#     Edge 23, Type (0, 0), BuildingBlock: MIFKUJ_clean_linker_0, # of connection points: 2
#     Edge 24, Type (0, 0), BuildingBlock: MIFKUJ_clean_linker_0, # of connection points: 2
#     Edge 25, Type (0, 0), BuildingBlock: MIFKUJ_clean_linker_0, # of connection points: 2
#     Edge 26, Type (0, 0), BuildingBlock: MIFKUJ_clean_linker_0, # of connection points: 2
#     Edge 27, Type (0, 0), BuildingBlock: MIFKUJ_clean_linker_0, # of connection points: 2
#     Edge 28, Type (0, 0), BuildingBlock: MIFKUJ_clean_linker_0, # of connection points: 2
#     Edge 29, Type (0, 0), BuildingBlock: MIFKUJ_clean_linker_0, # of connection points: 2
#     Edge 30, Type (0, 0), BuildingBlock: MIFKUJ_clean_linker_0, # of connection points: 2
#     Edge 31, Type (0, 0), BuildingBlock: MIFKUJ_clean_linker_0, # of connection points: 2
# Relax obj value: 0.199
# Max RMSD: 0.281
# Mean RMSD: 0.219
data_MOF--net-ske--node1-KUMJIN_clean_sbu_0--edge1-MIFKUJ_clean_linker_0
_symmetry_space_group_name_H-M    P1
_symmetry_Int_Tables_number       1
_symmetry_cell_setting            triclinic
loop_
_symmetry_equiv_pos_as_xyz
'x, y, z'
_cell_length_a     116.08477
_cell_length_b     39.402829
_cell_length_c     19.25553
_cell_angle_alpha  100.16876
_cell_angle_beta   90.166277
_cell_angle_gamma 102.49327
loop_
_atom_site_label
_atom_site_type_symbol
_atom_site_fract_x
_atom_site_fract_y
_atom_site_fract_z
_atom_type_partial_charge
Eu0 Eu 0.11559 0.23132 0.54326 0.0
C1 C 0.15984 0.32378 0.44329 0.0
C2 C 0.1634 0.29365 0.327 0.0
C3 C 0.16882 0.35781 0.356 0.0
C4 C 0.15902 0.29271 0.39506 0.0
C5 C 0.16494 0.35663 0.42473 0.0
C6 C 0.16807 0.32638 0.30728 0.0
C7 C 0.16295 0.38443 0.54516 0.0
N8 N 0.1562 0.32168 0.50965 0.0
C9 C 0.15807 0.3512 0.56131 0.0
C10 C 0.16628 0.38722 0.47638 0.0
Eu11 Eu 0.14736 0.26461 0.53141 0.0
N12 N 0.15441 0.26148 0.41567 0.0
C13 C 0.1545 0.23019 0.37209 0.0
C14 C 0.16311 0.26165 0.28116 0.0
C15 C 0.15874 0.22979 0.30408 0.0
H16 H 0.15544 0.34916 0.61444 0.0
H17 H 0.15858 0.2049 0.26928 0.0
H18 H 0.17133 0.32764 0.25491 0.0
H19 H 0.16414 0.40785 0.58575 0.0
H20 H 0.15111 0.20538 0.38893 0.0
H21 H 0.10565 0.29156 0.80753 0.0
H22 H 0.16635 0.26125 0.22839 0.0
H23 H 0.10729 0.14679 0.45962 0.0
H24 H 0.11299 0.29082 0.68729 0.0
H25 H 0.09751 0.08876 0.48711 0.0
H26 H 0.17266 0.38283 0.34051 0.0
H27 H 0.0971 0.23535 0.84707 0.0
H28 H 0.09103 0.16914 0.81865 0.0
H29 H 0.17012 0.41298 0.46414 0.0
H30 H 0.08892 0.11404 0.73185 0.0
N31 N 0.10894 0.23471 0.65959 0.0
C32 C 0.10929 0.26611 0.7039 0.0
C33 C 0.10031 0.23486 0.7942 0.0
C34 C 0.09952 0.20283 0.74744 0.0
C35 C 0.10512 0.26664 0.77207 0.0
C36 C 0.10389 0.20361 0.67931 0.0
H37 H 0.09118 0.08386 0.608 0.0
N38 N 0.10676 0.17429 0.56475 0.0
C39 C 0.09903 0.11201 0.52799 0.0
C40 C 0.1028 0.17251 0.63065 0.0
C41 C 0.10456 0.14488 0.51263 0.0
C42 C 0.09548 0.10939 0.5964 0.0
C43 C 0.09718 0.1399 0.6485 0.0
O44 O 0.10067 0.21779 0.46643 0.0
O45 O 0.12989 0.2493 0.47022 0.0
O46 O 0.13781 0.3056 0.5062 0.0
O47 O 0.12069 0.29214 0.56715 0.0
O48 O 0.1169 0.20654 0.42734 0.0
O49 O 0.10071 0.25806 0.55815 0.0
O50 O 0.16297 0.28117 0.60378 0.0
O51 O 0.13306 0.24631 0.60445 0.0
O52 O 0.12502 0.18901 0.56302 0.0
O53 O 0.14217 0.20414 0.50308 0.0
O54 O 0.1458 0.28958 0.64694 0.0
O55 O 0.16104 0.23369 0.52532 0.0
C56 C 0.12636 0.2277 0.41297 0.0
C57 C 0.082 0.22228 0.51262 0.0
C58 C 0.06089 0.22305 0.50968 0.0
C59 C 0.07285 0.24019 0.50481 0.0
C60 C 0.05829 0.18861 0.52447 0.0
C61 C 0.07897 0.18776 0.5267 0.0
C62 C 0.06726 0.17124 0.53318 0.0
C63 C 0.12831 0.31412 0.5356 0.0
C64 C 0.09459 0.23846 0.50291 0.0
C65 C 0.09316 0.13889 0.71698 0.0
C66 C 0.09435 0.17027 0.76637 0.0
C67 C 0.1365 0.26795 0.66166 0.0
C68 C 0.18056 0.2663 0.55831 0.0
C69 C 0.18948 0.25515 0.59278 0.0
C70 C 0.20143 0.26494 0.57505 0.0
C71 C 0.20426 0.28624 0.52338 0.0
C72 C 0.18376 0.28766 0.50751 0.0
C73 C 0.19549 0.29751 0.49012 0.0
C74 C 0.13445 0.18103 0.53151 0.0
C75 C 0.16795 0.25578 0.57466 0.0
H76 H 0.07498 0.2667 0.49319 0.0
H77 H 0.04923 0.17506 0.5294 0.0
H78 H 0.08559 0.17305 0.53152 0.0
H79 H 0.06513 0.14462 0.54415 0.0
H80 H 0.18713 0.2387 0.63235 0.0
H81 H 0.21332 0.29474 0.50943 0.0
H82 H 0.17722 0.29691 0.48131 0.0
H83 H 0.19779 0.3141 0.45081 0.0
Eu84 Eu 0.85918 0.2554 0.55793 0.0
C85 C 0.89767 0.27856 0.74833 0.0
C86 C 0.90719 0.33953 0.79373 0.0
C87 C 0.90448 0.29664 0.87186 0.0
C88 C 0.9015 0.31289 0.73772 0.0
C89 C 0.89952 0.26985 0.81503 0.0
C90 C 0.90826 0.33148 0.8613 0.0
C91 C 0.89225 0.20849 0.76348 0.0
N92 N 0.89278 0.25323 0.69247 0.0
C93 C 0.89045 0.21841 0.69877 0.0
C94 C 0.89666 0.23435 0.82216 0.0
Eu95 Eu 0.89096 0.27165 0.58231 0.0
N96 N 0.90063 0.31961 0.67141 0.0
C97 C 0.90665 0.35119 0.65616 0.0
C98 C 0.9122 0.37303 0.77939 0.0
C99 C 0.91216 0.37864 0.70993 0.0
H100 H 0.88748 0.19788 0.65401 0.0
H101 H 0.91652 0.40392 0.69756 0.0
H102 H 0.91245 0.35171 0.90504 0.0
H103 H 0.89028 0.18084 0.76791 0.0
H104 H 0.90704 0.35545 0.60214 0.0
H105 H 0.85425 0.16282 0.30682 0.0
H106 H 0.91663 0.39417 0.8209 0.0
H107 H 0.84539 0.32209 0.6052 0.0
H108 H 0.85966 0.18421 0.43297 0.0
H109 H 0.83439 0.35793 0.54858 0.0
H110 H 0.90574 0.29052 0.92368 0.0
H111 H 0.84592 0.19988 0.23789 0.0
H112 H 0.83863 0.25518 0.23582 0.0
H113 H 0.89802 0.22659 0.87228 0.0
H114 H 0.83328 0.30856 0.30172 0.0
N115 N 0.85468 0.23331 0.43609 0.0
C116 C 0.85611 0.20081 0.40387 0.0
C117 C 0.84829 0.20945 0.29348 0.0
C118 C 0.84636 0.24205 0.32745 0.0
C119 C 0.85297 0.18843 0.33222 0.0
C120 C 0.84952 0.2532 0.40006 0.0
H121 H 0.83132 0.34642 0.41859 0.0
N122 N 0.84881 0.29159 0.5079 0.0
C123 C 0.83784 0.33723 0.51654 0.0
C124 C 0.84651 0.28325 0.43708 0.0
C125 C 0.84403 0.31688 0.54839 0.0
C126 C 0.83616 0.33071 0.44314 0.0
C127 C 0.84028 0.30297 0.40256 0.0
O128 O 0.84356 0.25551 0.62235 0.0
O129 O 0.8739 0.25917 0.63922 0.0
O130 O 0.88404 0.21347 0.53741 0.0
O131 O 0.86422 0.20326 0.56389 0.0
O132 O 0.86148 0.28894 0.66825 0.0
O133 O 0.84485 0.20838 0.55018 0.0
O134 O 0.90291 0.23542 0.55761 0.0
O135 O 0.87603 0.25546 0.49871 0.0
O136 O 0.8664 0.31165 0.54356 0.0
O137 O 0.88588 0.32534 0.58793 0.0
O138 O 0.89087 0.29218 0.47891 0.0
O139 O 0.90907 0.28973 0.54941 0.0
C140 C 0.8706 0.27964 0.69074 0.0
C141 C 0.82587 0.222 0.56102 0.0
C142 C 0.80503 0.22521 0.57589 0.0
C143 C 0.81635 0.22609 0.60526 0.0
C144 C 0.80365 0.22146 0.50196 0.0
C145 C 0.8239 0.21666 0.48751 0.0
C146 C 0.81295 0.21691 0.45846 0.0
C147 C 0.87388 0.19196 0.54523 0.0
C148 C 0.83793 0.2244 0.59065 0.0
C149 C 0.83788 0.29341 0.32934 0.0
C150 C 0.84092 0.26299 0.29184 0.0
C151 C 0.8806 0.27427 0.45352 0.0
C152 C 0.92318 0.26072 0.58745 0.0
C153 C 0.93426 0.26728 0.55588 0.0
C154 C 0.94477 0.26939 0.59544 0.0
C155 C 0.94404 0.26467 0.66607 0.0
C156 C 0.92282 0.2554 0.65768 0.0
C157 C 0.93314 0.25756 0.69668 0.0
C158 C 0.87647 0.33441 0.56386 0.0
C159 C 0.91203 0.25969 0.54821 0.0
H160 H 0.81775 0.22945 0.66193 0.0
H161 H 0.79535 0.22219 0.47719 0.0
H162 H 0.83084 0.21243 0.45206 0.0
H163 H 0.81167 0.21356 0.40174 0.0
H164 H 0.9347 0.27105 0.50148 0.0
H165 H 0.95194 0.26579 0.69734 0.0
H166 H 0.91455 0.24925 0.6826 0.0
H167 H 0.93268 0.25348 0.75084 0.0
Eu168 Eu 0.14772 0.74378 0.4552 0.0
C169 C 0.10657 0.69936 0.27493 0.0
C170 C 0.10802 0.74676 0.20808 0.0
C171 C 0.10079 0.68606 0.14941 0.0
C172 C 0.10969 0.73506 0.27203 0.0
C173 C 0.10175 0.67464 0.21377 0.0
C174 C 0.10386 0.72206 0.14664 0.0
C175 C 0.09729 0.62982 0.28588 0.0
N176 N 0.10741 0.68904 0.3382 0.0
C177 C 0.10188 0.65531 0.34501 0.0
C178 C 0.09751 0.63932 0.21958 0.0
Eu179 Eu 0.11612 0.73469 0.43559 0.0
N180 N 0.11401 0.75848 0.33183 0.0
C181 C 0.11547 0.79394 0.33255 0.0
C182 C 0.11045 0.78304 0.20779 0.0
C183 C 0.11399 0.80672 0.27064 0.0
H184 H 0.10077 0.64773 0.39626 0.0
H185 H 0.11539 0.83488 0.27179 0.0
H186 H 0.10276 0.7306 0.09701 0.0
H187 H 0.09333 0.60303 0.29179 0.0
H188 H 0.11735 0.81285 0.38074 0.0
H189 H 0.16891 0.63477 0.48156 0.0
H190 H 0.1093 0.79301 0.15985 0.0
H191 H 0.14919 0.81874 0.57387 0.0
H192 H 0.16007 0.67286 0.41825 0.0
H193 H 0.15447 0.84198 0.69926 0.0
H194 H 0.09728 0.66735 0.10196 0.0
H195 H 0.17124 0.64828 0.6118 0.0
H196 H 0.16971 0.68946 0.72498 0.0
H197 H 0.09378 0.61962 0.17392 0.0
H198 H 0.16604 0.74651 0.78425 0.0
N199 N 0.15659 0.70608 0.51209 0.0
C200 C 0.16093 0.67875 0.47531 0.0
C201 C 0.16718 0.66475 0.58438 0.0
C202 C 0.16377 0.69465 0.6213 0.0
C203 C 0.16593 0.65712 0.51089 0.0
C204 C 0.1586 0.71537 0.583 0.0
H205 H 0.16101 0.80429 0.77436 0.0
N206 N 0.15226 0.7677 0.57683 0.0
C207 C 0.15496 0.81517 0.67685 0.0
C208 C 0.15652 0.74738 0.61627 0.0
C209 C 0.15182 0.80165 0.60554 0.0
C210 C 0.15866 0.79384 0.71903 0.0
C211 C 0.15959 0.75962 0.68881 0.0
O212 O 0.16248 0.78898 0.45504 0.0
O213 O 0.13306 0.74414 0.37648 0.0
O214 O 0.11914 0.68014 0.44184 0.0
O215 O 0.13949 0.68582 0.45239 0.0
O216 O 0.14457 0.71159 0.34407 0.0
O217 O 0.1637 0.73838 0.39669 0.0
O218 O 0.10558 0.7694 0.49459 0.0
O219 O 0.1313 0.74707 0.51753 0.0
O220 O 0.14404 0.79722 0.44497 0.0
O221 O 0.12454 0.79229 0.47653 0.0
O222 O 0.11604 0.71128 0.5355 0.0
O223 O 0.09681 0.71972 0.43332 0.0
C224 C 0.1358 0.72318 0.32376 0.0
C225 C 0.1814 0.77497 0.45326 0.0
C226 C 0.20252 0.77506 0.44304 0.0
C227 C 0.19108 0.7696 0.41135 0.0
C228 C 0.20402 0.78501 0.51688 0.0
C229 C 0.18328 0.78499 0.52686 0.0
C230 C 0.19447 0.78977 0.55825 0.0
C231 C 0.12857 0.66693 0.44708 0.0
C232 C 0.1694 0.7705 0.42089 0.0
C233 C 0.16389 0.73788 0.72821 0.0
C234 C 0.16596 0.70538 0.69451 0.0
C235 C 0.12645 0.72787 0.56143 0.0
C236 C 0.08676 0.74203 0.53089 0.0
C237 C 0.07518 0.74667 0.52069 0.0
C238 C 0.06655 0.73947 0.571 0.0
C239 C 0.06975 0.72703 0.63092 0.0
C240 C 0.08969 0.73018 0.59169 0.0
C241 C 0.0812 0.72248 0.64098 0.0
C242 C 0.13498 0.81137 0.46517 0.0
C243 C 0.09547 0.7478 0.47597 0.0
H244 H 0.18976 0.76194 0.35452 0.0
H245 H 0.21261 0.78885 0.54286 0.0
H246 H 0.17611 0.78943 0.56044 0.0
H247 H 0.19577 0.7974 0.61504 0.0
H248 H 0.07295 0.75606 0.47388 0.0
H249 H 0.06335 0.72024 0.66981 0.0
H250 H 0.09848 0.72645 0.60081 0.0
H251 H 0.08346 0.71255 0.68695 0.0
Eu252 Eu 0.86249 0.74405 0.46263 0.0
C253 C 0.91059 0.82969 0.40242 0.0
C254 C 0.91491 0.80668 0.28217 0.0
C255 C 0.92324 0.86801 0.33387 0.0
C256 C 0.90903 0.80196 0.34502 0.0
C257 C 0.9178 0.86293 0.39735 0.0
C258 C 0.92192 0.83985 0.27683 0.0
C259 C 0.91503 0.88266 0.52085 0.0
N260 N 0.9056 0.8237 0.46428 0.0
C261 C 0.90812 0.84928 0.5239 0.0
C262 C 0.91977 0.88971 0.45716 0.0
Eu263 Eu 0.89441 0.76528 0.46323 0.0
N264 N 0.90263 0.76965 0.35247 0.0
C265 C 0.90252 0.74067 0.30164 0.0
C266 C 0.91409 0.77747 0.22777 0.0
C267 C 0.90803 0.74421 0.23805 0.0
H268 H 0.90457 0.84454 0.57376 0.0
H269 H 0.90766 0.72124 0.19722 0.0
H270 H 0.92668 0.84367 0.22956 0.0
H271 H 0.91679 0.90281 0.56793 0.0
H272 H 0.8981 0.71471 0.3097 0.0
H273 H 0.83767 0.84803 0.47656 0.0
H274 H 0.91845 0.78007 0.17871 0.0
H275 H 0.86214 0.6859 0.57107 0.0
H276 H 0.85021 0.80807 0.42214 0.0
H277 H 0.85396 0.67422 0.68359 0.0
H278 H 0.92884 0.89328 0.3292 0.0
H279 H 0.83091 0.84555 0.59767 0.0
H280 H 0.8297 0.81584 0.70344 0.0
H281 H 0.92524 0.91556 0.45529 0.0
H282 H 0.83399 0.76817 0.75943 0.0
N283 N 0.85103 0.78459 0.51294 0.0
C284 C 0.84736 0.80701 0.47525 0.0
C285 C 0.83649 0.82821 0.57425 0.0
C286 C 0.83958 0.80345 0.61055 0.0
C287 C 0.84026 0.82963 0.50584 0.0
C288 C 0.84687 0.78149 0.57775 0.0
H289 H 0.84252 0.7145 0.75092 0.0
N290 N 0.8558 0.73299 0.57413 0.0
C291 C 0.85265 0.69719 0.66386 0.0
C292 C 0.84932 0.75481 0.60924 0.0
C293 C 0.85729 0.70393 0.59961 0.0
C294 C 0.8463 0.72005 0.70176 0.0
C295 C 0.84449 0.74917 0.67445 0.0
O296 O 0.85016 0.69264 0.43869 0.0
O297 O 0.87808 0.74568 0.38995 0.0
O298 O 0.88751 0.81443 0.4564 0.0
O299 O 0.86933 0.80253 0.50764 0.0
O300 O 0.86466 0.76929 0.36539 0.0
O301 O 0.8469 0.73499 0.39077 0.0
O302 O 0.90365 0.74651 0.54334 0.0
O303 O 0.87881 0.74752 0.52864 0.0
O304 O 0.86904 0.69337 0.45678 0.0
O305 O 0.88824 0.70668 0.41941 0.0
O306 O 0.89207 0.78865 0.57773 0.0
O307 O 0.9121 0.75409 0.4472 0.0
C308 C 0.87451 0.76198 0.34522 0.0
C309 C 0.83021 0.69834 0.43151 0.0
C310 C 0.80954 0.70376 0.42405 0.0
C311 C 0.82091 0.70733 0.39592 0.0
C312 C 0.80761 0.69068 0.48742 0.0
C313 C 0.82787 0.68515 0.49458 0.0
C314 C 0.81669 0.68145 0.52213 0.0
C315 C 0.87831 0.8247 0.48648 0.0
C316 C 0.84242 0.704 0.40529 0.0
C317 C 0.83767 0.77192 0.70898 0.0
C318 C 0.83524 0.79907 0.67714 0.0
C319 C 0.88208 0.76853 0.5871 0.0
C320 C 0.9244 0.76821 0.55089 0.0
C321 C 0.93535 0.7585 0.53808 0.0
C322 C 0.94573 0.77825 0.57725 0.0
C323 C 0.94495 0.80822 0.62757 0.0
C324 C 0.92396 0.79787 0.60249 0.0
C325 C 0.93417 0.8178 0.64004 0.0
C326 C 0.87883 0.68396 0.4343 0.0
C327 C 0.91343 0.748 0.51033 0.0
H328 H 0.82258 0.71769 0.34751 0.0
H329 H 0.79898 0.68707 0.50986 0.0
H330 H 0.83469 0.6778 0.52328 0.0
H331 H 0.81505 0.67135 0.57077 0.0
H332 H 0.93574 0.73545 0.49882 0.0
H333 H 0.95273 0.82457 0.65726 0.0
H334 H 0.91571 0.80572 0.61396 0.0
H335 H 0.93373 0.84081 0.67917 0.0
Eu336 Eu 0.61721 0.74439 0.08798 0.0
C337 C 0.66214 0.80619 0.96238 0.0
C338 C 0.66097 0.7667 0.84961 0.0
C339 C 0.67054 0.82872 0.85955 0.0
C340 C 0.6583 0.77293 0.92158 0.0
C341 C 0.6687 0.83412 0.93236 0.0
C342 C 0.66669 0.79503 0.81823 0.0
C343 C 0.67265 0.86896 0.04994 0.0
N344 N 0.66048 0.81026 0.03287 0.0
C345 C 0.66619 0.84038 0.07731 0.0
C346 C 0.67372 0.86607 0.977 0.0
Eu347 Eu 0.64902 0.76083 0.07466 0.0
N348 N 0.65288 0.74603 0.95364 0.0
C349 C 0.65066 0.71194 0.91812 0.0
C350 C 0.65827 0.73195 0.81215 0.0
C351 C 0.65331 0.70437 0.84697 0.0
H352 H 0.66528 0.84269 0.13374 0.0
H353 H 0.6514 0.67732 0.81887 0.0
H354 H 0.66859 0.79088 0.76269 0.0
H355 H 0.6768 0.89317 0.08506 0.0
H356 H 0.64683 0.69042 0.94422 0.0
H357 H 0.59616 0.85152 0.20713 0.0
H358 H 0.66023 0.72604 0.75692 0.0
H359 H 0.61821 0.66995 0.15186 0.0
H360 H 0.60431 0.81465 0.11142 0.0
H361 H 0.61462 0.64645 0.26069 0.0
H362 H 0.67538 0.85002 0.83529 0.0
H363 H 0.5951 0.8368 0.32684 0.0
H364 H 0.59739 0.79438 0.4057 0.0
H365 H 0.67881 0.88815 0.95596 0.0
H366 H 0.60195 0.7378 0.41938 0.0
N367 N 0.60904 0.78131 0.17759 0.0
C368 C 0.60427 0.80852 0.16403 0.0
C369 C 0.59892 0.8209 0.28529 0.0
C370 C 0.60261 0.79083 0.29713 0.0
C371 C 0.5995 0.8293 0.21791 0.0
C372 C 0.60754 0.77098 0.24118 0.0
H373 H 0.60791 0.68208 0.36505 0.0
N374 N 0.61436 0.71993 0.19311 0.0
C375 C 0.61344 0.67275 0.25847 0.0
C376 C 0.61007 0.73909 0.24879 0.0
C377 C 0.61569 0.68661 0.19664 0.0
C378 C 0.6096 0.69283 0.31709 0.0
C379 C 0.60777 0.7263 0.31267 0.0
O380 O 0.60325 0.69705 0.05448 0.0
O381 O 0.63176 0.74409 1.00923 0.0
O382 O 0.64345 0.81101 0.06205 0.0
O383 O 0.62454 0.80429 0.10513 0.0
O384 O 0.61808 0.76754 0.9873 0.0
O385 O 0.59971 0.74781 0.04927 0.0
O386 O 0.66526 0.77442 0.1425 0.0
O387 O 0.6342 0.74857 0.14978 0.0
O388 O 0.62197 0.69204 0.04199 0.0
O389 O 0.64199 0.70242 0.07223 0.0
O390 O 0.64806 0.79064 0.18661 0.0
O391 O 0.66132 0.72545 0.06891 0.0
C392 C 0.62777 0.75962 0.96425 0.0
C393 C 0.58392 0.70518 0.08233 0.0
C394 C 0.56283 0.70497 0.09572 0.0
C395 C 0.5735 0.71459 0.06131 0.0
C396 C 0.56285 0.68664 0.1521 0.0
C397 C 0.58354 0.6868 0.1389 0.0
C398 C 0.57311 0.67779 0.17349 0.0
C399 C 0.63419 0.82367 0.0835 0.0
C400 C 0.59514 0.71441 0.04582 0.0
C401 C 0.60355 0.74695 0.36968 0.0
C402 C 0.601 0.77921 0.36198 0.0
C403 C 0.63829 0.77199 0.2039 0.0
C404 C 0.68153 0.75284 0.09196 0.0
C405 C 0.69065 0.74536 0.13172 0.0
C406 C 0.7023 0.74984 0.1072 0.0
C407 C 0.70466 0.76285 0.04402 0.0
C408 C 0.68423 0.76512 0.02865 0.0
C409 C 0.6957 0.77041 1.00525 0.0
C410 C 0.63178 0.68087 0.05011 0.0
C411 C 0.66912 0.74672 0.11421 0.0
H412 H 0.57366 0.72877 0.01783 0.0
H413 H 0.5549 0.67945 0.18043 0.0
H414 H 0.59131 0.67921 0.15656 0.0
H415 H 0.57298 0.66377 0.21714 0.0
H416 H 0.68865 0.73529 0.18019 0.0
H417 H 0.7135 0.76727 0.02444 0.0
H418 H 0.67746 0.77025 0.99663 0.0
H419 H 0.69762 0.78011 0.9564 0.0
Eu420 Eu 0.36291 0.74424 0.08813 0.0
C421 C 0.40772 0.75788 0.24477 0.0
C422 C 0.40915 0.81515 0.31975 0.0
C423 C 0.41934 0.77325 0.35583 0.0
C424 C 0.40513 0.79116 0.25626 0.0
C425 C 0.41475 0.74856 0.29532 0.0
C426 C 0.41638 0.80619 0.36878 0.0
C427 C 0.41296 0.69163 0.22097 0.0
N428 N 0.40356 0.73482 0.18427 0.0
C429 C 0.40638 0.70225 0.17133 0.0
C430 C 0.41721 0.71491 0.28313 0.0
Eu431 Eu 0.39486 0.75866 0.0969 0.0
N432 N 0.39847 0.79984 0.20667 0.0
C433 C 0.3949 0.83125 0.22048 0.0
C434 C 0.40583 0.8476 0.33231 0.0
C435 C 0.39852 0.85542 0.28292 0.0
H436 H 0.40422 0.68465 0.12127 0.0
H437 H 0.39563 0.88011 0.29293 0.0
H438 H 0.41978 0.82463 0.41676 0.0
H439 H 0.4151 0.66585 0.21003 0.0
H440 H 0.38895 0.83806 0.1855 0.0
H441 H 0.35028 0.65743 0.83371 0.0
H442 H 0.40868 0.86653 0.38051 0.0
H443 H 0.3541 0.81781 0.16186 0.0
H444 H 0.36118 0.67813 0.94834 0.0
H445 H 0.34076 0.85474 0.13137 0.0
H446 H 0.42532 0.76722 0.39254 0.0
H447 H 0.33672 0.6914 0.79511 0.0
H448 H 0.32695 0.74297 0.82191 0.0
H449 H 0.42255 0.70686 0.3208 0.0
H450 H 0.32494 0.79746 0.8999 0.0
N451 N 0.35471 0.72531 0.97206 0.0
C452 C 0.35564 0.69403 0.93121 0.0
C453 C 0.34182 0.70148 0.8444 0.0
C454 C 0.3406 0.73297 0.88744 0.0
C455 C 0.34941 0.68206 0.86622 0.0
C456 C 0.3473 0.74456 0.95178 0.0
H457 H 0.33014 0.83954 1.01474 0.0
N458 N 0.35169 0.78396 0.06137 0.0
C459 C 0.34214 0.83243 0.0932 0.0
C460 C 0.34577 0.77468 0.99753 0.0
C461 C 0.34969 0.81165 0.11018 0.0
C462 C 0.33617 0.82379 0.02725 0.0
C463 C 0.33777 0.79428 0.97905 0.0
O464 O 0.34757 0.74367 0.1554 0.0
O465 O 0.37856 0.74495 0.16008 0.0
O466 O 0.38823 0.69941 0.07383 0.0
O467 O 0.36765 0.6902 0.07203 0.0
O468 O 0.36636 0.77332 0.20177 0.0
O469 O 0.34973 0.69556 0.08818 0.0
O470 O 0.41188 0.7459 0.06619 0.0
O471 O 0.37908 0.75242 0.02398 0.0
O472 O 0.3699 0.79846 0.05892 0.0
O473 O 0.39049 0.80934 0.07122 0.0
O474 O 0.39243 0.73 0.98173 0.0
O475 O 0.40916 0.79815 0.06526 0.0
C476 C 0.37565 0.76265 0.2166 0.0
C477 C 0.33007 0.70424 0.10005 0.0
C478 C 0.30915 0.70607 0.11604 0.0
C479 C 0.32097 0.71363 0.1434 0.0
C480 C 0.30672 0.69043 0.04451 0.0
C481 C 0.32713 0.68762 0.02942 0.0
C482 C 0.31562 0.68132 1.00184 0.0
C483 C 0.37757 0.67866 0.0679 0.0
C484 C 0.34254 0.71113 0.12766 0.0
C485 C 0.33126 0.78306 0.91453 0.0
C486 C 0.33252 0.75221 0.86953 0.0
C487 C 0.38222 0.73566 0.967 0.0
C488 C 0.42842 0.79365 0.09936 0.0
C489 C 0.43874 0.78175 0.07751 0.0
C490 C 0.44975 0.79746 0.11386 0.0
C491 C 0.45016 0.8243 0.17325 0.0
C492 C 0.42924 0.82084 0.15844 0.0
C493 C 0.44 0.83574 0.19531 0.0
C494 C 0.38054 0.81917 0.05834 0.0
C495 C 0.41685 0.77816 0.06071 0.0
H496 H 0.32303 0.7259 0.19823 0.0
H497 H 0.29785 0.68512 0.02135 0.0
H498 H 0.3337 0.67927 0.99496 0.0
H499 H 0.31357 0.66899 0.94708 0.0
H500 H 0.43824 0.76099 0.03172 0.0
H501 H 0.45839 0.83642 0.2031 0.0
H502 H 0.42158 0.83085 0.17612 0.0
H503 H 0.44048 0.85647 0.24103 0.0
Eu504 Eu 0.64604 0.24886 0.94236 0.0
C505 C 0.60249 0.177 0.78422 0.0
C506 C 0.60146 0.21454 0.69848 0.0
C507 C 0.59384 0.15125 0.66629 0.0
C508 C 0.605 0.21012 0.76596 0.0
C509 C 0.59654 0.14733 0.73501 0.0
C510 C 0.59618 0.18487 0.6483 0.0
C511 C 0.59357 0.11399 0.82947 0.0
N512 N 0.60426 0.17471 0.85275 0.0
C513 C 0.59905 0.14444 0.87663 0.0
C514 C 0.59254 0.11522 0.75792 0.0
Eu515 Eu 0.61402 0.22764 0.9303 0.0
N516 N 0.60954 0.23848 0.8169 0.0
C517 C 0.60996 0.27192 0.80517 0.0
C518 C 0.60258 0.24881 0.68501 0.0
C519 C 0.60666 0.27762 0.73903 0.0
H520 H 0.59938 0.14355 0.93241 0.0
H521 H 0.60719 0.30424 0.72997 0.0
H522 H 0.59323 0.1879 0.59685 0.0
H523 H 0.58993 0.08983 0.84859 0.0
H524 H 0.61268 0.29444 0.84672 0.0
H525 H 0.67346 0.15571 0.97947 0.0
H526 H 0.59992 0.25327 0.63399 0.0
H527 H 0.64323 0.32265 0.05458 0.0
H528 H 0.66155 0.18477 0.91216 0.0
H529 H 0.6484 0.35129 0.17736 0.0
H530 H 0.5892 0.12877 0.62828 0.0
H531 H 0.67713 0.17618 0.10821 0.0
H532 H 0.67539 0.22063 0.21585 0.0
H533 H 0.58798 0.09187 0.72167 0.0
H534 H 0.66904 0.27465 0.26867 0.0
N535 N 0.65774 0.21952 1.00276 0.0
C536 C 0.66297 0.19357 0.96861 0.0
C537 C 0.67178 0.18872 0.07903 0.0
C538 C 0.66738 0.21752 0.11246 0.0
C539 C 0.66974 0.17712 1.00644 0.0
C540 C 0.66041 0.23286 0.07217 0.0
H541 H 0.65926 0.32394 0.25382 0.0
N542 N 0.65047 0.27806 0.06114 0.0
C543 C 0.65074 0.3264 0.15696 0.0
C544 C 0.65681 0.26324 0.10197 0.0
C545 C 0.6477 0.30975 0.08714 0.0
C546 C 0.65685 0.31082 0.20016 0.0
C547 C 0.66004 0.27901 0.17296 0.0
O548 O 0.65886 0.29743 0.93465 0.0
O549 O 0.63028 0.24092 0.86599 0.0
O550 O 0.62008 0.17624 0.928 0.0
O551 O 0.64043 0.19123 0.9512 0.0
O552 O 0.64321 0.21327 0.83452 0.0
O553 O 0.66211 0.24775 0.88229 0.0
O554 O 0.59689 0.21057 0.97624 0.0
O555 O 0.62986 0.24734 1.0076 0.0
O556 O 0.63968 0.29732 0.92357 0.0
O557 O 0.62053 0.28695 0.96192 0.0
O558 O 0.61598 0.20975 0.03485 0.0
O559 O 0.60181 0.26318 0.95606 0.0
C560 C 0.63355 0.2205 0.81416 0.0
C561 C 0.67877 0.291 0.93585 0.0
C562 C 0.69986 0.28939 0.93108 0.0
C563 C 0.68829 0.27995 0.89949 0.0
C564 C 0.70167 0.3104 0.99912 0.0
C565 C 0.68094 0.31132 1.00424 0.0
C566 C 0.69229 0.32095 0.03529 0.0
C567 C 0.63025 0.16814 0.94057 0.0
C568 C 0.6666 0.28122 0.90323 0.0
C569 C 0.66653 0.263 0.21406 0.0
C570 C 0.67015 0.23222 0.18396 0.0
C571 C 0.62635 0.22876 0.05497 0.0
C572 C 0.5815 0.23572 0.94191 0.0
C573 C 0.57226 0.24718 0.98047 0.0
C574 C 0.5612 0.24433 0.94616 0.0
C575 C 0.5595 0.2297 0.8739 0.0
C576 C 0.5794 0.22076 0.87015 0.0
C577 C 0.56853 0.21785 0.83638 0.0
C578 C 0.63 0.3082 0.94361 0.0
C579 C 0.59338 0.23958 0.97507 0.0
H580 H 0.68663 0.26375 0.84732 0.0
H581 H 0.7104 0.31922 0.02452 0.0
H582 H 0.67389 0.32004 0.03397 0.0
H583 H 0.69385 0.33693 0.08768 0.0
H584 H 0.57369 0.2586 0.0361 0.0
H585 H 0.55108 0.22703 0.8466 0.0
H586 H 0.58616 0.21127 0.84002 0.0
H587 H 0.56709 0.20632 0.78085 0.0
Eu588 Eu 0.36169 0.22378 0.94957 0.0
C589 C 0.4009 0.27868 0.80278 0.0
C590 C 0.40764 0.23271 0.72311 0.0
C591 C 0.4078 0.28863 0.68694 0.0
C592 C 0.40292 0.24478 0.7883 0.0
C593 C 0.40366 0.30122 0.75266 0.0
C594 C 0.40971 0.25438 0.67197 0.0
C595 C 0.40051 0.34942 0.84071 0.0
N596 N 0.39745 0.29089 0.8681 0.0
C597 C 0.39831 0.32647 0.88902 0.0
C598 C 0.40297 0.33658 0.77171 0.0
Eu599 Eu 0.39356 0.24997 0.94757 0.0
N600 N 0.401 0.2244 0.83912 0.0
C601 C 0.40492 0.19349 0.83011 0.0
C602 C 0.41049 0.19957 0.71176 0.0
C603 C 0.40933 0.18019 0.76605 0.0
H604 H 0.39791 0.3381 0.94355 0.0
H605 H 0.41212 0.15536 0.75933 0.0
H606 H 0.41322 0.24536 0.62165 0.0
H607 H 0.40078 0.37728 0.85756 0.0
H608 H 0.40516 0.17928 0.87278 0.0
H609 H 0.36018 0.30461 0.21004 0.0
H610 H 0.41407 0.1894 0.66245 0.0
H611 H 0.34634 0.14103 0.89012 0.0
H612 H 0.36411 0.29299 0.08378 0.0
H613 H 0.3357 0.08918 0.93781 0.0
H614 H 0.41012 0.30579 0.64866 0.0
H615 H 0.35123 0.25516 0.26965 0.0
H616 H 0.34261 0.19035 0.26099 0.0
H617 H 0.40514 0.35475 0.73521 0.0
H618 H 0.33645 0.13125 0.18739 0.0
N619 N 0.35807 0.23729 0.07164 0.0
C620 C 0.36043 0.27107 0.1089 0.0
C621 C 0.35302 0.24987 0.21405 0.0
C622 C 0.35008 0.21551 0.17491 0.0
C623 C 0.35809 0.27782 0.18063 0.0
C624 C 0.35272 0.20998 0.10278 0.0
H625 H 0.33374 0.09329 0.06675 0.0
N626 N 0.35112 0.17308 0.99133 0.0
C627 C 0.3396 0.1135 0.97336 0.0
C628 C 0.34937 0.17668 0.0616 0.0
C629 C 0.34564 0.14284 0.9466 0.0
C630 C 0.33855 0.1159 0.04615 0.0
C631 C 0.34312 0.14809 0.0911 0.0
O632 O 0.34552 0.20783 0.88111 0.0
O633 O 0.37684 0.24208 0.8808 0.0
O634 O 0.3859 0.29654 0.9989 0.0
O635 O 0.36736 0.28193 0.94373 0.0
O636 O 0.364 0.19799 0.8371 0.0
O637 O 0.34835 0.25593 0.9569 0.0
O638 O 0.40602 0.29118 0.01931 0.0
O639 O 0.37834 0.24188 0.02063 0.0
O640 O 0.3682 0.17261 0.9384 0.0
O641 O 0.38865 0.18981 0.93066 0.0
O642 O 0.39256 0.21985 0.03835 0.0
O643 O 0.41226 0.24882 0.95558 0.0
C644 C 0.37361 0.21919 0.82466 0.0
C645 C 0.32853 0.22495 0.931 0.0
C646 C 0.3074 0.22305 0.91297 0.0
C647 C 0.31918 0.2311 0.89105 0.0
C648 C 0.30519 0.20775 0.97376 0.0
C649 C 0.32596 0.21075 0.99237 0.0
C650 C 0.31439 0.20183 1.01309 0.0
C651 C 0.37635 0.3055 0.97711 0.0
C652 C 0.34096 0.23396 0.91029 0.0
C653 C 0.34107 0.15302 0.16364 0.0
C654 C 0.34452 0.1867 0.20545 0.0
C655 C 0.38244 0.22437 0.06122 0.0
C656 C 0.42281 0.27429 0.06357 0.0
C657 C 0.43476 0.27386 0.05168 0.0
C658 C 0.44241 0.27096 0.10648 0.0
C659 C 0.43783 0.26872 0.17358 0.0
C660 C 0.41848 0.27172 0.13079 0.0
C661 C 0.42598 0.26904 0.1854 0.0
C662 C 0.37878 0.1654 0.92977 0.0
C663 C 0.41501 0.27669 1.00465 0.0
H664 H 0.3211 0.24281 0.84436 0.0
H665 H 0.29628 0.20028 0.99113 0.0
H666 H 0.3329 0.2068 0.02483 0.0
H667 H 0.31257 0.19048 0.06023 0.0
H668 H 0.43802 0.27517 0.99931 0.0
H669 H 0.44344 0.26711 0.21738 0.0
H670 H 0.40932 0.27173 0.14106 0.0
H671 H 0.42259 0.26724 0.23725 0.0
H672 H 0.2194 0.23816 0.51225 0.0
H673 H 0.23716 0.22966 0.56872 0.0
H674 H 0.2236 0.25921 0.77359 0.0
H675 H 0.20581 0.26851 0.71687 0.0
H676 H 0.24608 0.29492 0.7656 0.0
H677 H 0.22557 0.17329 0.70928 0.0
H678 H 0.21473 0.11893 0.63205 0.0
H679 H 0.24453 0.11909 0.50044 0.0
H680 H 0.2555 0.17374 0.57636 0.0
H681 H 0.28907 0.25016 0.97011 0.0
H682 H 0.27126 0.25568 0.91052 0.0
H683 H 0.28483 0.21983 0.70891 0.0
H684 H 0.30261 0.21256 0.76914 0.0
H685 H 0.26248 0.18736 0.71282 0.0
H686 H 0.28307 0.30823 0.76698 0.0
H687 H 0.29407 0.36318 0.84167 0.0
H688 H 0.2644 0.3655 0.97373 0.0
H689 H 0.25328 0.31029 0.90037 0.0
C690 C 0.22012 0.24245 0.56939 0.0
C691 C 0.2112 0.25416 0.61009 0.0
C692 C 0.23027 0.23738 0.60166 0.0
C693 C 0.23175 0.24366 0.67555 0.0
C694 C 0.22268 0.25419 0.71648 0.0
C695 C 0.21246 0.25917 0.68407 0.0
C696 C 0.24307 0.24124 0.70957 0.0
C697 C 0.24956 0.27118 0.75498 0.0
C698 C 0.24788 0.21076 0.69374 0.0
C699 C 0.24132 0.1778 0.6482 0.0
C700 C 0.22978 0.16189 0.66357 0.0
C701 C 0.22362 0.13099 0.62008 0.0
C702 C 0.22893 0.11562 0.56129 0.0
C703 C 0.24043 0.13105 0.54597 0.0
C704 C 0.24662 0.16196 0.58926 0.0
C705 C 0.28831 0.24337 0.91302 0.0
C706 C 0.29727 0.23054 0.87456 0.0
C707 C 0.27813 0.24694 0.87883 0.0
C708 C 0.27667 0.23852 0.80495 0.0
C709 C 0.28572 0.22655 0.76599 0.0
C710 C 0.29595 0.22273 0.8004 0.0
C711 C 0.26548 0.241 0.76933 0.0
C712 C 0.25901 0.21111 0.72349 0.0
C713 C 0.26072 0.27164 0.78437 0.0
C714 C 0.26738 0.30494 0.82847 0.0
C715 C 0.27892 0.32032 0.81223 0.0
C716 C 0.28517 0.35154 0.85429 0.0
C717 C 0.27995 0.36778 0.9125 0.0
C718 C 0.26844 0.35288 0.92866 0.0
C719 C 0.26215 0.32164 0.88681 0.0
H720 H 0.2848 0.39195 0.945 0.0
H721 H 0.22414 0.0917 0.52768 0.0
H722 H 0.70457 0.28207 0.78892 0.0
H723 H 0.72232 0.26802 0.73227 0.0
H724 H 0.73661 0.25926 0.93327 0.0
H725 H 0.71876 0.27108 0.98967 0.0
H726 H 0.75008 0.31152 0.81231 0.0
H727 H 0.73442 0.19363 0.88082 0.0
H728 H 0.71797 0.14209 0.88057 0.0
H729 H 0.71399 0.12753 0.65473 0.0
H730 H 0.73031 0.17938 0.65398 0.0
H731 H 0.80421 0.26462 0.70975 0.0
H732 H 0.78668 0.27223 0.77574 0.0
H733 H 0.76447 0.20216 0.60612 0.0
H734 H 0.78183 0.19188 0.54369 0.0
H735 H 0.75465 0.19018 0.71477 0.0
H736 H 0.77057 0.29969 0.6369 0.0
H737 H 0.78573 0.3527 0.62529 0.0
H738 H 0.78796 0.38618 0.85051 0.0
H739 H 0.77292 0.33312 0.86349 0.0
C740 C 0.71135 0.27643 0.82098 0.0
C741 C 0.71019 0.27817 0.89431 0.0
C742 C 0.72155 0.26872 0.78853 0.0
C743 C 0.7308 0.26277 0.82869 0.0
C744 C 0.7296 0.26386 0.90133 0.0
C745 C 0.71938 0.27097 0.93355 0.0
C746 C 0.74185 0.25618 0.79548 0.0
C747 C 0.75118 0.28502 0.79152 0.0
C748 C 0.74315 0.22176 0.76695 0.0
C749 C 0.73345 0.19055 0.76747 0.0
C750 C 0.72994 0.17965 0.83126 0.0
C751 C 0.72067 0.15034 0.83127 0.0
C752 C 0.71491 0.13162 0.76769 0.0
C753 C 0.71844 0.1421 0.70395 0.0
C754 C 0.72769 0.17143 0.70371 0.0
C755 C 0.79562 0.25027 0.6871 0.0
C756 C 0.79454 0.22823 0.62024 0.0
C757 C 0.78553 0.2551 0.72449 0.0
C758 C 0.7741 0.23868 0.6953 0.0
C759 C 0.77309 0.21555 0.63007 0.0
C760 C 0.78311 0.2101 0.59364 0.0
C761 C 0.76316 0.24565 0.73124 0.0
C762 C 0.75374 0.21685 0.73565 0.0
C763 C 0.76171 0.28031 0.75888 0.0
C764 C 0.77072 0.31227 0.75119 0.0
C765 C 0.77435 0.31826 0.68396 0.0
C766 C 0.78291 0.34832 0.67713 0.0
C767 C 0.78783 0.37274 0.73713 0.0
C768 C 0.78416 0.36721 0.80409 0.0
C769 C 0.77561 0.33716 0.81121 0.0
H770 H 0.79446 0.39599 0.73174 0.0
H771 H 0.70773 0.10893 0.76779 0.0
H772 H 0.28772 0.66201 0.12201 0.0
H773 H 0.2701 0.676 0.17815 0.0
H774 H 0.28982 0.78086 0.26584 0.0
H775 H 0.30764 0.76692 0.20887 0.0
H776 H 0.27415 0.75168 0.36061 0.0
H777 H 0.27243 0.76886 0.12092 0.0
H778 H 0.27321 0.75219 0.99172 0.0
H779 H 0.24373 0.66482 0.99037 0.0
H780 H 0.24288 0.68064 0.11979 0.0
H781 H 0.22395 0.82099 0.45157 0.0
H782 H 0.24214 0.81111 0.39629 0.0
H783 H 0.22347 0.70878 0.28649 0.0
H784 H 0.20509 0.71904 0.34095 0.0
H785 H 0.239 0.73873 0.20265 0.0
H786 H 0.24093 0.71955 0.44095 0.0
H787 H 0.24014 0.7346 0.57045 0.0
H788 H 0.26911 0.82378 0.57507 0.0
H789 H 0.26996 0.80956 0.44541 0.0
C790 C 0.28836 0.68804 0.15356 0.0
C791 C 0.29907 0.71352 0.16005 0.0
C792 C 0.27825 0.69602 0.1856 0.0
C793 C 0.27851 0.72975 0.22499 0.0
C794 C 0.28935 0.75471 0.23524 0.0
C795 C 0.29955 0.74669 0.20296 0.0
C796 C 0.26735 0.73893 0.25295 0.0
C797 C 0.26653 0.74941 0.32597 0.0
C798 C 0.25725 0.73514 0.20808 0.0
C799 C 0.25766 0.72577 0.13015 0.0
C800 C 0.26616 0.74594 0.09315 0.0
C801 C 0.26661 0.73667 0.01986 0.0
C802 C 0.25854 0.70742 0.98288 0.0
C803 C 0.24998 0.68745 0.0191 0.0
C804 C 0.24951 0.69657 0.09242 0.0
C805 C 0.22368 0.79649 0.41509 0.0
C806 C 0.21308 0.77065 0.40115 0.0
C807 C 0.23413 0.79076 0.38378 0.0
C808 C 0.23433 0.75877 0.33852 0.0
C809 C 0.22361 0.7336 0.32161 0.0
C810 C 0.21309 0.7395 0.35253 0.0
C811 C 0.24574 0.75136 0.31053 0.0
C812 C 0.24661 0.74115 0.23741 0.0
C813 C 0.25586 0.75522 0.35538 0.0
C814 C 0.25543 0.76368 0.4334 0.0
C815 C 0.24708 0.74251 0.46953 0.0
C816 C 0.24663 0.75088 0.54297 0.0
C817 C 0.25455 0.78018 0.58095 0.0
C818 C 0.26296 0.80112 0.54557 0.0
C819 C 0.26344 0.79291 0.47211 0.0
H820 H 0.25419 0.78661 0.6378 0.0
H821 H 0.2589 0.70028 0.92614 0.0
H822 H 0.7182 0.71213 0.05077 0.0
H823 H 0.73607 0.70458 0.1071 0.0
H824 H 0.72691 0.75974 0.30596 0.0
H825 H 0.70899 0.76816 0.2488 0.0
H826 H 0.74966 0.78459 0.28024 0.0
H827 H 0.72537 0.6697 0.27644 0.0
H828 H 0.71191 0.61338 0.22423 0.0
H829 H 0.7383 0.58846 0.08013 0.0
H830 H 0.75187 0.64488 0.13083 0.0
H831 H 0.79383 0.74142 0.48478 0.0
H832 H 0.77571 0.74937 0.43177 0.0
H833 H 0.78408 0.69503 0.23006 0.0
H834 H 0.80221 0.68624 0.28368 0.0
H835 H 0.76155 0.66976 0.25957 0.0
H836 H 0.78576 0.78503 0.26276 0.0
H837 H 0.79923 0.84125 0.31545 0.0
H838 H 0.77298 0.86533 0.46134 0.0
H839 H 0.75941 0.80899 0.41017 0.0
C840 C 0.71991 0.72242 0.10671 0.0
C841 C 0.71218 0.74092 0.1452 0.0
C842 C 0.73013 0.71788 0.13904 0.0
C843 C 0.73288 0.73139 0.21105 0.0
C844 C 0.72501 0.74904 0.25032 0.0
C845 C 0.71471 0.75356 0.21783 0.0
C846 C 0.74425 0.7284 0.24379 0.0
C847 C 0.75216 0.75938 0.2768 0.0
C848 C 0.74773 0.69568 0.23764 0.0
C849 C 0.7396 0.66169 0.20706 0.0
C850 C 0.72827 0.65235 0.23325 0.0
C851 C 0.72063 0.62037 0.20399 0.0
C852 C 0.72424 0.59739 0.14879 0.0
C853 C 0.73551 0.6063 0.12285 0.0
C854 C 0.74319 0.63826 0.15188 0.0
C855 C 0.79188 0.73138 0.42894 0.0
C856 C 0.79946 0.71301 0.38856 0.0
C857 C 0.78152 0.73616 0.39853 0.0
C858 C 0.77848 0.72295 0.32669 0.0
C859 C 0.78621 0.70547 0.28561 0.0
C860 C 0.79663 0.70075 0.3161 0.0
C861 C 0.76698 0.72595 0.29574 0.0
C862 C 0.75904 0.69496 0.2631 0.0
C863 C 0.76348 0.75865 0.3023 0.0
C864 C 0.77161 0.79262 0.33303 0.0
C865 C 0.78289 0.80218 0.30644 0.0
C866 C 0.79054 0.8341 0.33598 0.0
C867 C 0.78697 0.85681 0.39183 0.0
C868 C 0.77574 0.84769 0.41813 0.0
C869 C 0.76806 0.81578 0.38883 0.0
H870 H 0.7929 0.88151 0.41462 0.0
H871 H 0.71831 0.57265 0.12621 0.0
H872 H 0.15281 0.8599 0.42029 0.0
H873 H 0.15422 0.92351 0.42974 0.0
H874 H 0.12186 0.9146 0.54151 0.0
H875 H 0.12025 0.85119 0.53086 0.0
H876 H 0.1211 0.95226 0.44383 0.0
H877 H 0.14994 0.95169 0.62376 0.0
H878 H 0.1677 0.93703 0.67051 0.0
H879 H 0.18908 0.99355 0.52812 0.0
H880 H 0.17141 0.00808 0.47972 0.0
H881 H 0.12288 0.12975 0.60124 0.0
H882 H 0.12424 0.06796 0.58481 0.0
H883 H 0.15175 0.08723 0.43759 0.0
H884 H 0.15006 0.14908 0.45116 0.0
H885 H 0.15601 0.0454 0.54344 0.0
H886 H 0.12729 0.04793 0.36754 0.0
H887 H 0.10946 0.06053 0.31721 0.0
H888 H 0.08782 -0.00046 0.45186 0.0
H889 H 0.10556 0.9871 0.50401 0.0
C890 C 0.14605 0.87156 0.4474 0.0
C891 C 0.1364 0.85035 0.47462 0.0
C892 C 0.14688 0.908 0.45295 0.0
C893 C 0.13818 0.92406 0.48675 0.0
C894 C 0.12866 0.90294 0.51492 0.0
C895 C 0.12777 0.86659 0.50891 0.0
C896 C 0.13865 0.96253 0.49092 0.0
C897 C 0.12869 0.97256 0.46651 0.0
C898 C 0.1487 0.98918 0.51823 0.0
C899 C 0.15933 0.98064 0.54758 0.0
C900 C 0.15842 0.96075 0.60202 0.0
C901 C 0.16847 0.9525 0.62888 0.0
C902 C 0.17951 0.96427 0.60217 0.0
C903 C 0.18052 0.9844 0.54867 0.0
C904 C 0.17049 0.99266 0.52153 0.0
C905 C 0.1291 0.12088 0.56448 0.0
C906 C 0.13611 0.14427 0.52598 0.0
C907 C 0.12994 0.08554 0.55565 0.0
C908 C 0.13799 0.07289 0.50937 0.0
C909 C 0.14543 0.09645 0.47334 0.0
C910 C 0.14445 0.13179 0.48118 0.0
C911 C 0.13836 0.03484 0.4979 0.0
C912 C 0.14846 0.02497 0.52071 0.0
C913 C 0.12843 0.00824 0.46933 0.0
C914 C 0.11778 0.01683 0.44013 0.0
C915 C 0.11875 0.03759 0.38713 0.0
C916 C 0.10865 0.04456 0.358 0.0
C917 C 0.09751 0.03067 0.38102 0.0
C918 C 0.09645 0.01011 0.4338 0.0
C919 C 0.10653 0.00314 0.46323 0.0
H920 H 0.0897 0.03604 0.35831 0.0
H921 H 0.18728 0.95786 0.62303 0.0
H922 H 0.86215 0.35721 0.47826 0.0
H923 H 0.86359 0.41601 0.45351 0.0
H924 H 0.89532 0.45379 0.58715 0.0
H925 H 0.89323 0.39507 0.61745 0.0
H926 H 0.88373 0.50194 0.6064 0.0
H927 H 0.89494 0.43585 0.3977 0.0
H928 H 0.89419 0.38843 0.29425 0.0
H929 H 0.86265 0.41089 0.21391 0.0
H930 H 0.86307 0.45803 0.31752 0.0
H931 H 0.89854 0.65885 0.45293 0.0
H932 H 0.89934 0.59899 0.46877 0.0
H933 H 0.86171 0.56531 0.42751 0.0
H934 H 0.86076 0.62535 0.41376 0.0
H935 H 0.87827 0.51703 0.35879 0.0
H936 H 0.86802 0.5838 0.58027 0.0
H937 H 0.87219 0.63695 0.67364 0.0
H938 H 0.90564 0.61527 0.72365 0.0
H939 H 0.90184 0.56266 0.6288 0.0
C940 C 0.86927 0.37802 0.50418 0.0
C941 C 0.87751 0.37108 0.55057 0.0
C942 C 0.87025 0.41174 0.48849 0.0
C943 C 0.87975 0.43946 0.51679 0.0
C944 C 0.88795 0.43289 0.56395 0.0
C945 C 0.88681 0.3991 0.58082 0.0
C946 C 0.88091 0.47519 0.49775 0.0
C947 C 0.8827 0.50507 0.55205 0.0
C948 C 0.87957 0.47976 0.42679 0.0
C949 C 0.87901 0.45042 0.36572 0.0
C950 C 0.88777 0.43045 0.35842 0.0
C951 C 0.88742 0.40369 0.29961 0.0
C952 C 0.87842 0.39683 0.24739 0.0
C953 C 0.86965 0.41636 0.25429 0.0
C954 C 0.86994 0.4431 0.31306 0.0
C955 C 0.89047 0.63852 0.44574 0.0
C956 C 0.87958 0.64677 0.43204 0.0
C957 C 0.89095 0.60442 0.4551 0.0
C958 C 0.88058 0.57786 0.4495 0.0
C959 C 0.8698 0.58548 0.43187 0.0
C960 C 0.86928 0.61977 0.42416 0.0
C961 C 0.88082 0.54292 0.46729 0.0
C962 C 0.87932 0.51345 0.41285 0.0
C963 C 0.88271 0.53884 0.53764 0.0
C964 C 0.88471 0.56952 0.5968 0.0
C965 C 0.87631 0.59054 0.61069 0.0
C966 C 0.87861 0.62059 0.66385 0.0
C967 C 0.88919 0.62952 0.70439 0.0
C968 C 0.89746 0.60836 0.69205 0.0
C969 C 0.89525 0.57846 0.63851 0.0
H970 H 0.89097 0.65275 0.74557 0.0
H971 H 0.87824 0.37636 0.20154 0.0
H972 H 0.89122 0.8747 0.41864 0.0
H973 H 0.89017 0.93664 0.42961 0.0
H974 H 0.86335 0.92257 0.58292 0.0
H975 H 0.86455 0.86066 0.57354 0.0
H976 H 0.85762 0.95852 0.48058 0.0
H977 H 0.89095 0.96633 0.63792 0.0
H978 H 0.9102 0.95504 0.66973 0.0
H979 H 0.92634 0.00757 0.50568 0.0
H980 H 0.90716 0.01902 0.47267 0.0
H981 H 0.85805 0.14079 0.59617 0.0
H982 H 0.85849 0.07836 0.58652 0.0
H983 H 0.88924 0.09368 0.46048 0.0
H984 H 0.88912 0.15632 0.47251 0.0
H985 H 0.89275 0.05624 0.5501 0.0
H986 H 0.86026 0.04945 0.39111 0.0
H987 H 0.84125 0.06012 0.35335 0.0
H988 H 0.82364 0.00445 0.50937 0.0
H989 H 0.84259 0.99391 0.54882 0.0
C990 C 0.88518 0.88481 0.45534 0.0
C991 C 0.87792 0.8626 0.495 0.0
C992 C 0.88458 0.92026 0.46139 0.0
C993 C 0.87671 0.93433 0.50726 0.0
C994 C 0.86945 0.91226 0.54695 0.0
C995 C 0.87012 0.87683 0.54133 0.0
C996 C 0.87603 0.97202 0.51343 0.0
C997 C 0.86525 0.97998 0.49673 0.0
C998 C 0.88606 -8e-05 0.53242 0.0
C999 C 0.89761 0.99334 0.55259 0.0
C1000 C 0.89859 0.97534 0.60846 0.0
C1001 C 0.90949 0.96901 0.62683 0.0
C1002 C 0.91948 0.98061 0.58977 0.0
C1003 C 0.9186 0.99865 0.5344 0.0
C1004 C 0.90772 0.00516 0.51596 0.0
C1005 C 0.86484 0.13076 0.56584 0.0
C1006 C 0.87354 0.15353 0.53501 0.0
C1007 C 0.86506 0.09497 0.56012 0.0
C1008 C 0.87382 0.08097 0.522 0.0
C1009 C 0.8824 0.10368 0.49036 0.0
C1010 C 0.8823 0.13954 0.49707 0.0
C1011 C 0.87431 0.04305 0.5169 0.0
C1012 C 0.88508 0.03495 0.53388 0.0
C1013 C 0.86429 0.01501 0.49715 0.0
C1014 C 0.85287 0.02122 0.47341 0.0
C1015 C 0.85235 0.03972 0.41774 0.0
C1016 C 0.84158 0.04571 0.39598 0.0
C1017 C 0.83124 0.03306 0.42907 0.0
C1018 C 0.83165 0.0143 0.48387 0.0
C1019 C 0.84241 0.00829 0.50593 0.0
H1020 H 0.82291 0.03771 0.41213 0.0
H1021 H 0.9279 0.97555 0.6039 0.0
H1022 H 0.11072 0.63016 0.51408 0.0
H1023 H 0.10837 0.56966 0.5367 0.0
H1024 H 0.13978 0.55921 0.4238 0.0
H1025 H 0.14231 0.61986 0.40209 0.0
H1026 H 0.11359 0.50153 0.39534 0.0
H1027 H 0.14626 0.57001 0.56811 0.0
H1028 H 0.1531 0.61892 0.66847 0.0
H1029 H 0.12413 0.57669 0.78845 0.0
H1030 H 0.11702 0.52771 0.68856 0.0
H1031 H 0.13585 0.35322 0.43463 0.0
H1032 H 0.13265 0.41139 0.4246 0.0
H1033 H 0.11275 0.4135 0.6135 0.0
H1034 H 0.1157 0.35444 0.62298 0.0
H1035 H 0.12929 0.47589 0.61568 0.0
H1036 H 0.09895 0.40315 0.47056 0.0
H1037 H 0.08672 0.35798 0.37974 0.0
H1038 H 0.10392 0.40928 0.21704 0.0
H1039 H 0.11678 0.45373 0.3065 0.0
C1040 C 0.11707 0.61484 0.4936 0.0
C1041 C 0.12671 0.62968 0.4563 0.0
C1042 C 0.11575 0.58045 0.50699 0.0
C1043 C 0.12395 0.5602 0.48234 0.0
C1044 C 0.13341 0.57461 0.44364 0.0
C1045 C 0.13486 0.60921 0.43142 0.0
C1046 C 0.1226 0.52369 0.49567 0.0
C1047 C 0.1172 0.49558 0.44266 0.0
C1048 C 0.12648 0.51655 0.56008 0.0
C1049 C 0.13104 0.5454 0.6206 0.0
C1050 C 0.14129 0.57129 0.61563 0.0
C1051 C 0.14523 0.59901 0.67243 0.0
C1052 C 0.13903 0.60102 0.73456 0.0
C1053 C 0.12892 0.57515 0.74023 0.0
C1054 C 0.12494 0.54738 0.68361 0.0
C1055 C 0.13075 0.36592 0.47402 0.0
C1056 C 0.12605 0.34922 0.5298 0.0
C1057 C 0.12887 0.39916 0.46794 0.0
C1058 C 0.12241 0.41681 0.51805 0.0
C1059 C 0.11774 0.40034 0.57411 0.0
C1060 C 0.1194 0.36659 0.57938 0.0
C1061 C 0.12103 0.453 0.51254 0.0
C1062 C 0.12576 0.48128 0.56754 0.0
C1063 C 0.11608 0.4602 0.45067 0.0
C1064 C 0.10905 0.43169 0.39582 0.0
C1065 C 0.10042 0.40438 0.41548 0.0
C1066 C 0.0933 0.37891 0.36409 0.0
C1067 C 0.09454 0.38076 0.29267 0.0
C1068 C 0.10294 0.40795 0.27244 0.0
C1069 C 0.11022 0.43315 0.32354 0.0
H1070 H 0.08898 0.36111 0.25299 0.0
H1071 H 0.14209 0.62255 0.77836 0.0
H1072 H 0.64838 0.64744 0.08911 0.0
H1073 H 0.64783 0.58423 0.06781 0.0
H1074 H 0.61382 0.56334 0.959 0.0
H1075 H 0.61423 0.62688 0.98061 0.0
H1076 H 0.6318 0.52915 0.10936 0.0
H1077 H 0.61404 0.49248 0.8191 0.0
H1078 H 0.61384 0.5209 0.71481 0.0
H1079 H 0.64608 0.5949 0.7922 0.0
H1080 H 0.64659 0.56653 0.89616 0.0
H1081 H 0.61363 0.34319 1.00525 0.0
H1082 H 0.61388 0.40615 0.01893 0.0
H1083 H 0.64635 0.42269 0.90898 0.0
H1084 H 0.64623 0.35958 0.89525 0.0
H1085 H 0.6298 0.45932 0.86664 0.0
H1086 H 0.64845 0.44439 0.07912 0.0
H1087 H 0.64992 0.41702 0.18353 0.0
H1088 H 0.61845 0.44817 0.26173 0.0
H1089 H 0.61675 0.47555 0.15738 0.0
C1090 C 0.64077 0.62952 0.0605 0.0
C1091 C 0.63136 0.64232 0.03634 0.0
C1092 C 0.64045 0.59332 0.04873 0.0
C1093 C 0.63082 0.56907 1.01168 0.0
C1094 C 0.62138 0.58164 0.98741 0.0
C1095 C 0.62162 0.61794 0.9999 0.0
C1096 C 0.63075 0.53071 0.99828 0.0
C1097 C 0.6313 0.51388 0.05629 0.0
C1098 C 0.63032 0.51089 0.92905 0.0
C1099 C 0.63026 0.52761 0.86583 0.0
C1100 C 0.62111 0.51471 0.81366 0.0
C1101 C 0.62095 0.53081 0.75461 0.0
C1102 C 0.62992 0.55976 0.74701 0.0
C1103 C 0.63911 0.57255 0.79826 0.0
C1104 C 0.63934 0.55648 0.85728 0.0
C1105 C 0.62081 0.36008 0.98358 0.0
C1106 C 0.62995 0.34628 0.94947 0.0
C1107 C 0.62094 0.39612 0.99155 0.0
C1108 C 0.63016 0.41913 0.96528 0.0
C1109 C 0.63914 0.40536 0.92954 0.0
C1110 C 0.63909 0.36932 0.92211 0.0
C1111 C 0.63065 0.45773 0.97774 0.0
C1112 C 0.6302 0.47458 0.91965 0.0
C1113 C 0.63134 0.47774 0.04691 0.0
C1114 C 0.63241 0.46172 0.11014 0.0
C1115 C 0.6418 0.4452 0.11835 0.0
C1116 C 0.64268 0.4297 0.17754 0.0
C1117 C 0.63425 0.43069 0.22908 0.0
C1118 C 0.62496 0.44736 0.2217 0.0
C1119 C 0.62404 0.46294 0.16261 0.0
H1120 H 0.63494 0.41863 0.27482 0.0
H1121 H 0.62976 0.57224 0.70135 0.0
H1122 H 0.36394 0.84067 0.9862 0.0
H1123 H 0.36495 0.89865 0.95539 0.0
H1124 H 0.39979 0.93585 0.05512 0.0
H1125 H 0.39884 0.87756 0.08645 0.0
H1126 H 0.38556 0.9845 0.09017 0.0
H1127 H 0.39785 0.91907 0.88522 0.0
H1128 H 0.39721 0.86837 0.78883 0.0
H1129 H 0.36456 0.88302 0.70655 0.0
H1130 H 0.36486 0.93337 0.80353 0.0
H1131 H 0.39857 0.14154 0.95535 0.0
H1132 H 0.40011 0.08111 0.95812 0.0
H1133 H 0.36305 0.0439 0.90039 0.0
H1134 H 0.36158 0.10424 0.8929 0.0
H1135 H 0.37981 0.99582 0.84 0.0
H1136 H 0.36661 0.05191 0.0722 0.0
H1137 H 0.36929 0.11032 0.14926 0.0
H1138 H 0.4067 0.11755 0.1643 0.0
H1139 H 0.40414 0.05856 0.08898 0.0
C1140 C 0.3718 0.86116 1.00208 0.0
C1141 C 0.38129 0.85444 0.03908 0.0
C1142 C 0.37239 0.8943 0.98399 0.0
C1143 C 0.38246 0.92161 1.00265 0.0
C1144 C 0.39193 0.91518 0.04022 0.0
C1145 C 0.39139 0.88181 0.05771 0.0
C1146 C 0.38305 0.95667 0.98221 0.0
C1147 C 0.38443 0.98682 0.03539 0.0
C1148 C 0.38159 0.96005 0.91073 0.0
C1149 C 0.38132 0.92982 0.85208 0.0
C1150 C 0.39046 0.91127 0.84702 0.0
C1151 C 0.39017 0.8826 0.79225 0.0
C1152 C 0.38085 0.87243 0.74167 0.0
C1153 C 0.37177 0.89087 0.74585 0.0
C1154 C 0.372 0.9195 0.80074 0.0
C1155 C 0.39079 0.12053 0.94099 0.0
C1156 C 0.37988 0.12807 0.92481 0.0
C1157 C 0.39169 0.08589 0.94291 0.0
C1158 C 0.38168 0.05799 0.93004 0.0
C1159 C 0.37091 0.065 0.91034 0.0
C1160 C 0.37003 0.09968 0.90744 0.0
C1161 C 0.38213 0.02303 0.94791 0.0
C1162 C 0.38093 0.99311 0.89455 0.0
C1163 C 0.38395 0.01976 0.0188 0.0
C1164 C 0.38518 0.05094 0.07565 0.0
C1165 C 0.37536 0.06564 0.09354 0.0
C1166 C 0.37688 0.09898 0.13615 0.0
C1167 C 0.3882 0.11798 0.16018 0.0
C1168 C 0.39796 0.10292 0.14486 0.0
C1169 C 0.39646 0.06933 0.10312 0.0
H1170 H 0.38943 0.14421 0.19149 0.0
H1171 H 0.38072 0.85037 0.69912 0.0
H1172 H 0.36542 0.33826 0.89208 0.0
H1173 H 0.36548 0.40115 0.90601 0.0
H1174 H 0.38548 0.42062 0.10393 0.0
H1175 H 0.38605 0.35793 0.08751 0.0
H1176 H 0.3573 0.44568 0.98705 0.0
H1177 H 0.40256 0.50185 0.14051 0.0
H1178 H 0.42187 0.48604 0.14978 0.0
H1179 H 0.41609 0.42392 0.9408 0.0
H1180 H 0.3968 0.43969 0.9299 0.0
H1181 H 0.36106 0.62801 0.11512 0.0
H1182 H 0.36058 0.56476 0.10106 0.0
H1183 H 0.39154 0.57875 0.97627 0.0
H1184 H 0.39246 0.64223 0.99448 0.0
H1185 H 0.39428 0.53669 0.05205 0.0
H1186 H 0.36143 0.53963 0.90632 0.0
H1187 H 0.34279 0.55515 0.87613 0.0
H1188 H 0.32505 0.49846 0.03036 0.0
H1189 H 0.34363 0.48303 0.06223 0.0
C1190 C 0.36981 0.356 0.93862 0.0
C1191 C 0.37579 0.34328 0.98856 0.0
C1192 C 0.36983 0.39202 0.94667 0.0
C1193 C 0.37564 0.41609 1.00552 0.0
C1194 C 0.38122 0.40302 0.05692 0.0
C1195 C 0.38148 0.36712 0.04787 0.0
C1196 C 0.37594 0.45473 1.01244 0.0
C1197 C 0.36541 0.46553 1.00121 0.0
C1198 C 0.38653 0.48093 0.02914 0.0
C1199 C 0.39819 0.47168 0.03475 0.0
C1200 C 0.40543 0.48493 0.09644 0.0
C1201 C 0.41636 0.47594 0.10199 0.0
C1202 C 0.42018 0.45387 0.04601 0.0
C1203 C 0.41309 0.44087 0.98421 0.0
C1204 C 0.40216 0.44981 0.97834 0.0
C1205 C 0.36772 0.61746 0.08442 0.0
C1206 C 0.37678 0.64002 0.05577 0.0
C1207 C 0.36741 0.5812 0.07601 0.0
C1208 C 0.37591 0.56647 0.03651 0.0
C1209 C 0.38489 0.58915 1.00726 0.0
C1210 C 0.38538 0.6255 0.01737 0.0
C1211 C 0.37564 0.52772 0.02666 0.0
C1212 C 0.38617 0.51688 0.03767 0.0
C1213 C 0.36516 0.50145 1.00643 0.0
C1214 C 0.35395 0.51046 0.98713 0.0
C1215 C 0.35357 0.53066 0.93411 0.0
C1216 C 0.34302 0.53943 0.91667 0.0
C1217 C 0.33275 0.52787 0.95143 0.0
C1218 C 0.33301 0.50744 1.00356 0.0
C1219 C 0.34355 0.49865 0.02131 0.0
H1220 H 0.32459 0.53469 0.93786 0.0
H1221 H 0.42864 0.44692 0.05045 0.0
H1222 H 0.61378 0.12594 1.00637 0.0
H1223 H 0.61431 0.06753 0.03216 0.0
H1224 H 0.647 0.07017 0.92526 0.0
H1225 H 0.64649 0.1286 0.89934 0.0
H1226 H 0.62994 0.0047 0.88994 0.0
H1227 H 0.6484 0.08791 0.09432 0.0
H1228 H 0.64982 0.13673 0.19565 0.0
H1229 H 0.61976 0.07768 0.28443 0.0
H1230 H 0.61802 0.0287 0.18281 0.0
H1231 H 0.64782 0.86259 0.99778 0.0
H1232 H 0.64718 0.92113 0.9766 0.0
H1233 H 0.61922 0.92592 0.12267 0.0
H1234 H 0.6205 0.86819 0.14828 0.0
H1235 H 0.63321 0.98778 0.13795 0.0
H1236 H 0.6143 0.90491 0.9375 0.0
H1237 H 0.61198 0.85569 0.83606 0.0
H1238 H 0.64138 0.91307 0.73924 0.0
H1239 H 0.64403 0.96241 0.84073 0.0
C1240 C 0.62097 0.11379 0.98737 0.0
C1241 C 0.63009 0.13172 0.95066 0.0
C1242 C 0.62132 0.08061 1.00274 0.0
C1243 C 0.63074 0.06464 0.98107 0.0
C1244 C 0.63967 0.08208 0.94264 0.0
C1245 C 0.63941 0.11549 0.92817 0.0
C1246 C 0.63134 0.02992 0.99911 0.0
C1247 C 0.6308 0.00101 0.94409 0.0
C1248 C 0.63208 0.025 0.06992 0.0
C1249 C 0.633 0.05474 0.13046 0.0
C1250 C 0.642 0.08547 0.13494 0.0
C1251 C 0.64288 0.11315 0.19257 0.0
C1252 C 0.63488 0.1103 0.24644 0.0
C1253 C 0.62594 0.07984 0.24263 0.0
C1254 C 0.62501 0.05212 0.18502 0.0
C1255 C 0.64171 0.87629 0.02681 0.0
C1256 C 0.63414 0.86035 0.07452 0.0
C1257 C 0.64121 0.90968 1.01361 0.0
C1258 C 0.63292 0.92772 0.04646 0.0
C1259 C 0.6256 0.91243 0.0959 0.0
C1260 C 0.62623 0.87915 0.10994 0.0
C1261 C 0.63187 0.9623 0.02867 0.0
C1262 C 0.63231 0.99126 0.08371 0.0
C1263 C 0.63088 0.96718 0.95779 0.0
C1264 C 0.62941 0.9373 0.89704 0.0
C1265 C 0.62034 0.90693 0.8949 0.0
C1266 C 0.61895 0.87903 0.83733 0.0
C1267 C 0.6265 0.88133 0.78117 0.0
C1268 C 0.63552 0.91139 0.78272 0.0
C1269 C 0.63697 0.93933 0.84026 0.0
H1270 H 0.62534 0.85985 0.73633 0.0
H1271 H 0.63562 0.1316 0.29131 0.0
H1272 H 0.13596 0.2889 0.35953 0.0
H1273 H 0.13955 0.29487 0.23692 0.0
H1274 H 0.12271 0.18496 0.16896 0.0
H1275 H 0.12107 0.17797 0.29242 0.0
H1276 H 0.13704 0.19597 0.07861 0.0
H1277 H 0.10996 0.27342 0.17134 0.0
H1278 H 0.10749 0.32073 0.26911 0.0
H1279 H 0.1386 0.38919 0.21118 0.0
H1280 H 0.14135 0.34213 0.11382 0.0
H1281 H 0.12765 0.20579 0.71471 0.0
H1282 H 0.12523 0.19886 0.83828 0.0
H1283 H 0.14063 0.30989 0.90558 0.0
H1284 H 0.14177 0.31719 0.78242 0.0
H1285 H 0.12709 0.29882 0.99652 0.0
H1286 H 0.15488 0.22881 0.90844 0.0
H1287 H 0.16198 0.18221 0.82837 0.0
H1288 H 0.1334 0.10352 0.88288 0.0
H1289 H 0.12607 0.14972 0.96274 0.0
C1290 C 0.13348 0.26567 0.31873 0.0
C1291 C 0.12871 0.23262 0.33727 0.0
C1292 C 0.1351 0.26932 0.24722 0.0
C1293 C 0.13098 0.2408 0.19049 0.0
C1294 C 0.12605 0.20784 0.20956 0.0
C1295 C 0.12502 0.20383 0.28107 0.0
C1296 C 0.1315 0.24484 0.11217 0.0
C1297 C 0.13465 0.21831 0.06108 0.0
C1298 C 0.12886 0.27432 0.08671 0.0
C1299 C 0.1259 0.30424 0.1358 0.0
C1300 C 0.11612 0.29882 0.17864 0.0
C1301 C 0.11474 0.32547 0.23434 0.0
C1302 C 0.12297 0.35775 0.24675 0.0
C1303 C 0.1323 0.36406 0.20172 0.0
C1304 C 0.13375 0.33747 0.14615 0.0
C1305 C 0.13019 0.22891 0.75578 0.0
C1306 C 0.13455 0.26232 0.7374 0.0
C1307 C 0.12911 0.22483 0.82753 0.0
C1308 C 0.13297 0.25362 0.88415 0.0
C1309 C 0.13743 0.28687 0.86507 0.0
C1310 C 0.13816 0.29109 0.79367 0.0
C1311 C 0.13251 0.24967 0.96246 0.0
C1312 C 0.12936 0.27623 1.01362 0.0
C1313 C 0.13539 0.22055 0.98811 0.0
C1314 C 0.13987 0.19273 0.94098 0.0
C1315 C 0.15009 0.20157 0.90312 0.0
C1316 C 0.15416 0.17524 0.85779 0.0
C1317 C 0.14813 0.13995 0.8504 0.0
C1318 C 0.13805 0.13088 0.88857 0.0
C1319 C 0.13395 0.15711 0.93393 0.0
H1320 H 0.15128 0.11961 0.8152 0.0
H1321 H 0.12222 0.37774 0.29168 0.0
H1322 H 0.8796 0.21801 0.34359 0.0
H1323 H 0.87685 0.21645 0.21665 0.0
H1324 H 0.87328 0.3247 0.26007 0.0
H1325 H 0.87539 0.32535 0.38677 0.0
H1326 H 0.86075 0.30055 0.15451 0.0
H1327 H 0.9003 0.28869 0.19221 0.0
H1328 H 0.91618 0.26276 0.23121 0.0
H1329 H 0.90168 0.16464 0.09236 0.0
H1330 H 0.88562 0.18986 0.05316 0.0
H1331 H 0.87566 0.33469 0.80388 0.0
H1332 H 0.87648 0.33264 0.93084 0.0
H1333 H 0.86821 0.21888 0.88236 0.0
H1334 H 0.86718 0.22103 0.75545 0.0
H1335 H 0.88667 0.24526 0.98752 0.0
H1336 H 0.84761 0.26325 0.94636 0.0
H1337 H 0.83318 0.29428 0.90698 0.0
H1338 H 0.84909 0.38835 0.05371 0.0
H1339 H 0.86374 0.35805 0.09312 0.0
C1340 C 0.87787 0.24116 0.3261 0.0
C1341 C 0.87717 0.27125 0.37639 0.0
C1342 C 0.8766 0.24066 0.25263 0.0
C1343 C 0.87517 0.27089 0.22604 0.0
C1344 C 0.87441 0.30087 0.27692 0.0
C1345 C 0.87554 0.30119 0.35026 0.0
C1346 C 0.87465 0.27172 0.14644 0.0
C1347 C 0.8666 0.28877 0.11884 0.0
C1348 C 0.88205 0.25625 0.09706 0.0
C1349 C 0.89169 0.24103 0.1204 0.0
C1350 C 0.90046 0.26151 0.17034 0.0
C1351 C 0.90949 0.24696 0.19244 0.0
C1352 C 0.90992 0.21204 0.16445 0.0
C1353 C 0.90132 0.19165 0.11411 0.0
C1354 C 0.89226 0.20606 0.09191 0.0
C1355 C 0.8741 0.30921 0.82019 0.0
C1356 C 0.8718 0.27805 0.76858 0.0
C1357 C 0.87451 0.30801 0.89328 0.0
C1358 C 0.87247 0.27556 0.91779 0.0
C1359 C 0.86996 0.24439 0.86612 0.0
C1360 C 0.86946 0.24561 0.79303 0.0
C1361 C 0.87286 0.27408 0.9966 0.0
C1362 C 0.88087 0.25697 0.02374 0.0
C1363 C 0.86567 0.2903 0.04576 0.0
C1364 C 0.85685 0.30848 0.02219 0.0
C1365 C 0.8481 0.29065 0.96979 0.0
C1366 C 0.83987 0.30809 0.94752 0.0
C1367 C 0.84024 0.34329 0.97768 0.0
C1368 C 0.84883 0.3611 0.0303 0.0
C1369 C 0.85709 0.3438 0.05265 0.0
H1370 H 0.83386 0.35675 0.96038 0.0
H1371 H 0.91692 0.20082 0.18163 0.0
H1372 H 0.13112 0.66873 0.21055 0.0
H1373 H 0.13022 0.67102 0.0841 0.0
H1374 H 0.13758 0.7848 0.13372 0.0
H1375 H 0.13837 0.78234 0.26059 0.0
H1376 H 0.12103 0.76273 0.02876 0.0
H1377 H 0.15866 0.73591 0.06671 0.0
H1378 H 0.17241 0.70237 0.10483 0.0
H1379 H 0.15484 0.60953 0.96021 0.0
H1380 H 0.14086 0.64236 0.92201 0.0
H1381 H 0.12897 0.78549 0.66976 0.0
H1382 H 0.13154 0.78742 0.79692 0.0
H1383 H 0.13096 0.67579 0.75711 0.0
H1384 H 0.12934 0.67488 0.62984 0.0
H1385 H 0.14461 0.69881 0.85976 0.0
H1386 H 0.10602 0.72281 0.82744 0.0
H1387 H 0.09157 0.75485 0.79164 0.0
H1388 H 0.11005 0.85036 0.92485 0.0
H1389 H 0.12461 0.81898 0.9615 0.0
C1390 C 0.13246 0.69427 0.19459 0.0
C1391 C 0.13446 0.72527 0.24645 0.0
C1392 C 0.13204 0.69562 0.12174 0.0
C1393 C 0.13391 0.72813 0.09758 0.0
C1394 C 0.13604 0.75922 0.1496 0.0
C1395 C 0.13643 0.75783 0.22264 0.0
C1396 C 0.13364 0.72965 0.01878 0.0
C1397 C 0.12631 0.74902 0.99213 0.0
C1398 C 0.14025 0.71128 0.96911 0.0
C1399 C 0.14864 0.69151 0.99206 0.0
C1400 C 0.15767 0.70826 0.04347 0.0
C1401 C 0.16551 0.68939 0.06503 0.0
C1402 C 0.16448 0.65382 0.03512 0.0
C1403 C 0.15562 0.63706 0.98344 0.0
C1404 C 0.14773 0.65579 0.9618 0.0
C1405 C 0.12981 0.76165 0.68807 0.0
C1406 C 0.12953 0.73046 0.63876 0.0
C1407 C 0.13094 0.76243 0.76166 0.0
C1408 C 0.13121 0.73156 0.78921 0.0
C1409 C 0.13087 0.70031 0.73932 0.0
C1410 C 0.12995 0.69974 0.66581 0.0
C1411 C 0.13181 0.73146 0.86889 0.0
C1412 C 0.13924 0.71242 0.89597 0.0
C1413 C 0.12517 0.74978 0.91886 0.0
C1414 C 0.11647 0.76864 0.89658 0.0
C1415 C 0.10703 0.7507 0.84874 0.0
C1416 C 0.09883 0.76872 0.82833 0.0
C1417 C 0.09994 0.80462 0.85557 0.0
C1418 C 0.10922 0.82257 0.90363 0.0
C1419 C 0.11744 0.80467 0.92436 0.0
H1420 H 0.09357 0.8185 0.83962 0.0
H1421 H 0.17057 0.63926 0.05186 0.0
H1422 H 0.88565 0.71399 0.65055 0.0
H1423 H 0.88455 0.71002 0.77621 0.0
H1424 H 0.87139 0.80558 0.81701 0.0
H1425 H 0.873 0.8102 0.69189 0.0
H1426 H 0.88691 0.81228 0.91131 0.0
H1427 H 0.85184 0.70982 0.85863 0.0
H1428 H 0.84126 0.65115 0.79479 0.0
H1429 H 0.87166 0.60878 0.82428 0.0
H1430 H 0.88233 0.66718 0.8884 0.0
H1431 H 0.87459 0.81515 0.27376 0.0
H1432 H 0.8752 0.81415 0.14754 0.0
H1433 H 0.88218 0.70934 0.1162 0.0
H1434 H 0.87954 0.70863 0.2422 0.0
H1435 H 0.87082 0.7062 1.01453 0.0
H1436 H 0.90398 0.80601 0.09425 0.0
H1437 H 0.91422 0.86454 0.16014 0.0
H1438 H 0.88826 0.91253 0.08197 0.0
H1439 H 0.87801 0.85465 1.01425 0.0
C1440 C 0.88221 0.73362 0.68609 0.0
C1441 C 0.87911 0.76195 0.66036 0.0
C1442 C 0.88152 0.73125 0.75854 0.0
C1443 C 0.8777 0.75714 0.80798 0.0
C1444 C 0.87437 0.78503 0.78142 0.0
C1445 C 0.8752 0.78759 0.70928 0.0
C1446 C 0.87817 0.75734 0.88739 0.0
C1447 C 0.88325 0.78903 0.93363 0.0
C1448 C 0.87393 0.72713 0.91856 0.0
C1449 C 0.86793 0.69287 0.87621 0.0
C1450 C 0.85629 0.68805 0.85015 0.0
C1451 C 0.85025 0.65481 0.81472 0.0
C1452 C 0.85583 0.62634 0.80486 0.0
C1453 C 0.86739 0.63091 0.83141 0.0
C1454 C 0.87341 0.66402 0.8674 0.0
C1455 C 0.87654 0.79214 0.24015 0.0
C1456 C 0.87777 0.7628 0.26968 0.0
C1457 C 0.87708 0.79172 0.16688 0.0
C1458 C 0.87936 0.76238 0.1196 0.0
C1459 C 0.88057 0.73286 0.14953 0.0
C1460 C 0.8794 0.73268 0.22269 0.0
C1461 C 0.87959 0.76136 0.03953 0.0
C1462 C 0.87464 0.72952 0.9929 0.0
C1463 C 0.88412 0.79145 1.00794 0.0
C1464 C 0.89018 0.82598 0.04981 0.0
C1465 C 0.90043 0.82902 0.09149 0.0
C1466 C 0.90624 0.86204 0.12907 0.0
C1467 C 0.90183 0.89206 0.12595 0.0
C1468 C 0.89165 0.88924 0.08458 0.0
C1469 C 0.88588 0.85641 0.04625 0.0
H1470 H 0.90634 0.91753 0.15527 0.0
H1471 H 0.85117 0.60069 0.77703 0.0
H1472 H 0.63477 0.82296 0.314 0.0
H1473 H 0.63349 0.82033 0.44058 0.0
H1474 H 0.63737 0.71247 0.3966 0.0
H1475 H 0.63885 0.71541 0.2701 0.0
H1476 H 0.61976 0.72114 0.49465 0.0
H1477 H 0.66016 0.77883 0.4685 0.0
H1478 H 0.67602 0.82465 0.4341 0.0
H1479 H 0.66332 0.90517 0.57298 0.0
H1480 H 0.64727 0.85986 0.60744 0.0
H1481 H 0.6266 0.70294 0.85491 0.0
H1482 H 0.62898 0.7035 0.72856 0.0
H1483 H 0.63607 0.81739 0.77149 0.0
H1484 H 0.6342 0.81656 0.89791 0.0
H1485 H 0.64815 0.80489 0.67117 0.0
H1486 H 0.60745 0.75245 0.69377 0.0
H1487 H 0.59044 0.70994 0.72745 0.0
H1488 H 0.60181 0.62441 0.59598 0.0
H1489 H 0.61897 0.66638 0.56213 0.0
C1490 C 0.63523 0.79853 0.33114 0.0
C1491 C 0.63648 0.76899 0.28078 0.0
C1492 C 0.63456 0.79707 0.40406 0.0
C1493 C 0.6353 0.76613 0.42978 0.0
C1494 C 0.63666 0.73667 0.37938 0.0
C1495 C 0.6374 0.73825 0.30646 0.0
C1496 C 0.63484 0.76466 0.50863 0.0
C1497 C 0.62608 0.73924 0.53301 0.0
C1498 C 0.64277 0.78876 0.56042 0.0
C1499 C 0.65243 0.81598 0.53995 0.0
C1500 C 0.66068 0.80633 0.49125 0.0
C1501 C 0.66972 0.83221 0.47182 0.0
C1502 C 0.67066 0.86781 0.50118 0.0
C1503 C 0.66257 0.87759 0.55018 0.0
C1504 C 0.65351 0.85183 0.5697 0.0
C1505 C 0.62896 0.72815 0.83754 0.0
C1506 C 0.63071 0.75971 0.88769 0.0
C1507 C 0.63005 0.72854 0.76433 0.0
C1508 C 0.63242 0.76055 0.73771 0.0
C1509 C 0.63419 0.7921 0.78844 0.0
C1510 C 0.6332 0.79167 0.86157 0.0
C1511 C 0.63295 0.76142 0.65814 0.0
C1512 C 0.64176 0.78675 0.63333 0.0
C1513 C 0.62487 0.73776 0.60607 0.0
C1514 C 0.61456 0.7125 0.62606 0.0
C1515 C 0.60636 0.72455 0.67238 0.0
C1516 C 0.59669 0.70056 0.69146 0.0
C1517 C 0.59507 0.66449 0.66404 0.0
C1518 C 0.60309 0.65235 0.61728 0.0
C1519 C 0.61279 0.67622 0.59809 0.0
H1520 H 0.58758 0.64596 0.67889 0.0
H1521 H 0.67766 0.8878 0.48608 0.0
H1522 H 0.37317 0.78587 0.90909 0.0
H1523 H 0.37162 0.79005 0.78348 0.0
H1524 H 0.38218 0.69067 0.72655 0.0
H1525 H 0.38421 0.68755 0.85115 0.0
H1526 H 0.39393 0.72794 0.65355 0.0
H1527 H 0.35067 0.70744 0.66599 0.0
H1528 H 0.33094 0.71682 0.69993 0.0
H1529 H 0.34226 0.8273 0.69305 0.0
H1530 H 0.36167 0.8178 0.65291 0.0
H1531 H 0.38235 0.7084 0.27154 0.0
H1532 H 0.38344 0.7025 0.39598 0.0
H1533 H 0.37674 0.80674 0.4587 0.0
H1534 H 0.37493 0.81157 0.33457 0.0
H1535 H 0.36331 0.76705 0.52833 0.0
H1536 H 0.4097 0.78316 0.56125 0.0
H1537 H 0.42861 0.76754 0.52644 0.0
H1538 H 0.41038 0.66077 0.44487 0.0
H1539 H 0.39149 0.67533 0.48375 0.0
C1540 C 0.37492 0.76457 0.86973 0.0
C1541 C 0.37879 0.73623 0.89112 0.0
C1542 C 0.37399 0.76685 0.79704 0.0
C1543 C 0.37678 0.7407 0.74317 0.0
C1544 C 0.38009 0.71171 0.76528 0.0
C1545 C 0.38117 0.70973 0.83731 0.0
C1546 C 0.37738 0.74432 0.66513 0.0
C1547 C 0.38704 0.73602 0.62655 0.0
C1548 C 0.36879 0.75578 0.62765 0.0
C1549 C 0.35773 0.76224 0.6592 0.0
C1550 C 0.349 0.73381 0.67294 0.0
C1551 C 0.33781 0.73902 0.69203 0.0
C1552 C 0.33543 0.77275 0.7001 0.0
C1553 C 0.34415 0.80125 0.68765 0.0
C1554 C 0.3552 0.79592 0.666 0.0
C1555 C 0.38141 0.73043 0.31194 0.0
C1556 C 0.37868 0.76069 0.29224 0.0
C1557 C 0.38217 0.72722 0.38407 0.0
C1558 C 0.38045 0.75442 0.43923 0.0
C1559 C 0.37815 0.78509 0.41885 0.0
C1560 C 0.37717 0.78798 0.34717 0.0
C1561 C 0.37976 0.75021 0.51682 0.0
C1562 C 0.37014 0.75881 0.55549 0.0
C1563 C 0.3883 0.73853 0.55419 0.0
C1564 C 0.39916 0.73071 0.52227 0.0
C1565 C 0.40973 0.75653 0.53477 0.0
C1566 C 0.42046 0.74767 0.51584 0.0
C1567 C 0.42068 0.71329 0.48261 0.0
C1568 C 0.41018 0.68749 0.46976 0.0
C1569 C 0.39948 0.69596 0.49083 0.0
H1570 H 0.42898 0.70661 0.46717 0.0
H1571 H 0.32678 0.77672 0.71535 0.0
H1572 H 0.62388 0.28175 0.16381 0.0
H1573 H 0.62612 0.28302 0.29092 0.0
H1574 H 0.63958 0.18822 0.2479 0.0
H1575 H 0.63665 0.18584 0.12063 0.0
H1576 H 0.62316 0.18007 0.33874 0.0
H1577 H 0.66206 0.27824 0.39898 0.0
H1578 H 0.67437 0.33693 0.39114 0.0
H1579 H 0.64332 0.37993 0.39628 0.0
H1580 H 0.63095 0.32176 0.40695 0.0
H1581 H 0.63298 0.16684 0.70152 0.0
H1582 H 0.63322 0.16906 0.57597 0.0
H1583 H 0.63048 0.27818 0.62304 0.0
H1584 H 0.63197 0.2768 0.74903 0.0
H1585 H 0.64226 0.27918 0.52663 0.0
H1586 H 0.60405 0.18498 0.49242 0.0
H1587 H 0.59131 0.12704 0.5019 0.0
H1588 H 0.61996 0.07635 0.44277 0.0
H1589 H 0.63268 0.13388 0.43104 0.0
C1590 C 0.62772 0.26185 0.18144 0.0
C1591 C 0.63052 0.23447 0.13128 0.0
C1592 C 0.62909 0.26268 0.25491 0.0
C1593 C 0.63333 0.23617 0.28113 0.0
C1594 C 0.63634 0.20921 0.23055 0.0
C1595 C 0.63479 0.20805 0.15723 0.0
C1596 C 0.63321 0.23369 0.3595 0.0
C1597 C 0.62744 0.20185 0.37962 0.0
C1598 C 0.63848 0.26175 0.41483 0.0
C1599 C 0.64558 0.2955 0.40084 0.0
C1600 C 0.65788 0.30016 0.39731 0.0
C1601 C 0.66488 0.33343 0.39363 0.0
C1602 C 0.65962 0.36211 0.39276 0.0
C1603 C 0.64737 0.35764 0.39635 0.0
C1604 C 0.64038 0.32457 0.40149 0.0
C1605 C 0.63221 0.19117 0.68495 0.0
C1606 C 0.63177 0.22111 0.73632 0.0
C1607 C 0.63213 0.19234 0.61185 0.0
C1608 C 0.63135 0.22339 0.58633 0.0
C1609 C 0.631 0.25344 0.63848 0.0
C1610 C 0.63152 0.25253 0.71163 0.0
C1611 C 0.63177 0.22574 0.50722 0.0
C1612 C 0.63777 0.25741 0.48651 0.0
C1613 C 0.62657 0.19758 0.45124 0.0
C1614 C 0.61938 0.16371 0.46385 0.0
C1615 C 0.60766 0.16151 0.48328 0.0
C1616 C 0.60043 0.12875 0.48826 0.0
C1617 C 0.6049 0.09814 0.47453 0.0
C1618 C 0.61655 0.10012 0.45439 0.0
C1619 C 0.62374 0.13274 0.4481 0.0
H1620 H 0.59929 0.07283 0.47862 0.0
H1621 H 0.66504 0.38779 0.38942 0.0
H1622 H 0.38889 0.27945 0.17249 0.0
H1623 H 0.38795 0.27824 0.2986 0.0
H1624 H 0.36931 0.16878 0.25063 0.0
H1625 H 0.37192 0.16939 0.12504 0.0
H1626 H 0.376 0.27768 0.39126 0.0
H1627 H 0.36301 0.12929 0.36196 0.0
H1628 H 0.36858 0.07266 0.31622 0.0
H1629 H 0.40489 0.12692 0.31607 0.0
H1630 H 0.39942 0.18395 0.35926 0.0
H1631 H 0.36687 0.26811 0.75705 0.0
H1632 H 0.36649 0.26896 0.63128 0.0
H1633 H 0.38557 0.18483 0.59763 0.0
H1634 H 0.38342 0.17951 0.72062 0.0
H1635 H 0.37641 0.17186 0.49448 0.0
H1636 H 0.39531 0.30011 0.56282 0.0
H1637 H 0.39697 0.36132 0.62695 0.0
H1638 H 0.36099 0.35653 0.56555 0.0
H1639 H 0.35929 0.29561 0.50015 0.0
C1640 C 0.38463 0.25509 0.1892 0.0
C1641 C 0.38018 0.22471 0.13829 0.0
C1642 C 0.38401 0.25428 0.26218 0.0
C1643 C 0.37863 0.22321 0.28767 0.0
C1644 C 0.37405 0.19295 0.23576 0.0
C1645 C 0.37523 0.19342 0.16281 0.0
C1646 C 0.3776 0.22331 0.36732 0.0
C1647 C 0.37646 0.2545 0.41328 0.0
C1648 C 0.37788 0.19367 0.3998 0.0
C1649 C 0.38077 0.16081 0.3619 0.0
C1650 C 0.37212 0.12912 0.35041 0.0
C1651 C 0.37527 0.09699 0.32533 0.0
C1652 C 0.38709 0.09618 0.31351 0.0
C1653 C 0.39574 0.1276 0.3253 0.0
C1654 C 0.3926 0.15989 0.34881 0.0
C1655 C 0.3711 0.25013 0.72243 0.0
C1656 C 0.37569 0.22477 0.75 0.0
C1657 C 0.37111 0.25097 0.64918 0.0
C1658 C 0.37636 0.22783 0.60071 0.0
C1659 C 0.38114 0.20296 0.63003 0.0
C1660 C 0.38026 0.20038 0.70202 0.0
C1661 C 0.3764 0.22751 0.52031 0.0
C1662 C 0.37671 0.19577 0.47357 0.0
C1663 C 0.37633 0.25741 0.48786 0.0
C1664 C 0.3771 0.2932 0.52893 0.0
C1665 C 0.38774 0.31203 0.56452 0.0
C1666 C 0.3887 0.34665 0.60056 0.0
C1667 C 0.37903 0.36256 0.60147 0.0
C1668 C 0.36844 0.34407 0.56537 0.0
C1669 C 0.3675 0.3096 0.52851 0.0
H1670 H 0.37979 0.38935 0.62949 0.0
H1671 H 0.38953 0.07125 0.29475 0.0
H1672 H 0.04231 0.19748 0.41533 0.0
H1673 H 0.02355 0.21601 0.41599 0.0
H1674 H 0.03749 0.30357 0.58411 0.0
H1675 H 0.05636 0.2846 0.58388 0.0
H1676 H 0.01702 0.26577 0.61794 0.0
H1677 H 0.03014 0.31652 0.41711 0.0
H1678 H 0.03846 0.31843 0.29987 0.0
H1679 H 0.00962 0.23487 0.20549 0.0
H1680 H 1.0012 0.23208 0.32234 0.0
H1681 H 0.9639 0.32162 0.64441 0.0
H1682 H 0.98448 0.32376 0.6144 0.0
H1683 H 0.97332 0.23165 0.45163 0.0
H1684 H 0.9526 0.22992 0.48091 0.0
H1685 H 0.99295 0.27754 0.41373 0.0
H1686 H 0.98117 0.22227 0.61336 0.0
H1687 H 0.97263 0.21879 0.72966 0.0
H1688 H 0.99915 0.30911 0.82512 0.0
H1689 H 0.00773 0.31351 0.70904 0.0
C1690 C 0.04149 0.2213 0.45103 0.0
C1691 C 0.05081 0.23968 0.4994 0.0
C1692 C 0.03075 0.23195 0.4513 0.0
C1693 C 0.02905 0.26132 0.49992 0.0
C1694 C 0.03857 0.28085 0.54596 0.0
C1695 C 0.04939 0.27025 0.54542 0.0
C1696 C 0.017 0.26901 0.50746 0.0
C1697 C 0.01189 0.2692 0.57352 0.0
C1698 C 0.01007 0.27227 0.44914 0.0
C1699 C 0.01508 0.27393 0.37866 0.0
C1700 C 0.02561 0.29836 0.37146 0.0
C1701 C 0.03034 0.29963 0.30503 0.0
C1702 C 0.02458 0.27674 0.24529 0.0
C1703 C 0.01407 0.25258 0.25182 0.0
C1704 C 0.00931 0.25117 0.31814 0.0
C1705 C 0.96582 0.30246 0.60082 0.0
C1706 C 0.95666 0.27553 0.56513 0.0
C1707 C 0.97759 0.30356 0.58394 0.0
C1708 C 0.98051 0.27739 0.5318 0.0
C1709 C 0.97131 0.25207 0.49224 0.0
C1710 C 0.95947 0.25114 0.50879 0.0
C1711 C 0.99308 0.27438 0.52412 0.0
C1712 C 0.9982 0.27472 0.45818 0.0
C1713 C 1.00004 0.27135 0.58239 0.0
C1714 C 0.99501 0.26844 0.65241 0.0
C1715 C 0.98513 0.24154 0.65907 0.0
C1716 C 0.98029 0.23939 0.72495 0.0
C1717 C 0.98533 0.26377 0.78472 0.0
C1718 C 0.99524 0.29029 0.77875 0.0
C1719 C 1.0001 0.29262 0.71293 0.0
H1720 H 0.98156 0.26206 0.83568 0.0
H1721 H 0.02826 0.27777 0.19391 0.0
H1722 H 0.956 0.75573 0.45295 0.0
H1723 H 0.97629 0.74704 0.43888 0.0
H1724 H 0.98232 0.77093 0.66499 0.0
H1725 H 0.96217 0.77881 0.67943 0.0
H1726 H 0.9996 0.81058 0.59688 0.0
H1727 H 0.97926 0.6879 0.57637 0.0
H1728 H 0.96475 0.63393 0.52321 0.0
H1729 H 0.98105 0.6356 0.3236 0.0
H1730 H 0.99558 0.68989 0.3754 0.0
H1731 H 0.05256 0.76487 0.67288 0.0
H1732 H 0.03213 0.76947 0.66088 0.0
H1733 H 0.03201 0.73164 0.43656 0.0
H1734 H 0.05244 0.72525 0.44878 0.0
H1735 H 0.01189 0.70115 0.48638 0.0
H1736 H 0.03308 0.82011 0.5056 0.0
H1737 H 0.04761 0.87473 0.55491 0.0
H1738 H 0.02973 0.88202 0.75008 0.0
H1739 H 0.01518 0.82714 0.70231 0.0
C1740 C 0.96158 0.75843 0.49964 0.0
C1741 C 0.95747 0.76848 0.56729 0.0
C1742 C 0.97321 0.75362 0.49153 0.0
C1743 C 0.98091 0.75867 0.55091 0.0
C1744 C 0.97664 0.76731 0.61832 0.0
C1745 C 0.96508 0.7719 0.62644 0.0
C1746 C 0.99357 0.75666 0.54396 0.0
C1747 C 1.00228 0.78654 0.57318 0.0
C1748 C 0.99713 0.72581 0.51058 0.0
C1749 C 0.98841 0.69319 0.47953 0.0
C1750 C 0.97969 0.67695 0.52097 0.0
C1751 C 0.97147 0.64626 0.49113 0.0
C1752 C 0.97195 0.63141 0.42001 0.0
C1753 C 0.98068 0.64717 0.37864 0.0
C1754 C 0.9889 0.67788 0.40822 0.0
C1755 C 0.04822 0.75722 0.62088 0.0
C1756 C 0.05423 0.74451 0.56187 0.0
C1757 C 0.03651 0.7603 0.61395 0.0
C1758 C 0.03048 0.7514 0.54762 0.0
C1759 C 0.03644 0.73883 0.48834 0.0
C1760 C 0.04819 0.73554 0.49531 0.0
C1761 C 0.01793 0.75482 0.54125 0.0
C1762 C 0.00925 0.72533 0.50939 0.0
C1763 C 0.01437 0.78622 0.57153 0.0
C1764 C 0.02308 0.81934 0.60049 0.0
C1765 C 0.03229 0.83322 0.55921 0.0
C1766 C 0.04052 0.86425 0.58686 0.0
C1767 C 0.03961 0.8818 0.65563 0.0
C1768 C 0.03043 0.86838 0.69683 0.0
C1769 C 0.02218 0.83734 0.66946 0.0
H1770 H 0.04599 0.90582 0.67695 0.0
H1771 H 0.96559 0.60764 0.39701 0.0
H1772 H 0.55915 0.76897 0.07312 0.0
H1773 H 0.54007 0.78494 0.05827 0.0
H1774 H 0.52198 0.67726 0.05953 0.0
H1775 H 0.54094 0.6612 0.07331 0.0
H1776 H 0.51105 0.70518 0.96591 0.0
H1777 H 0.52535 0.73923 0.20921 0.0
H1778 H 0.53983 0.76998 0.30619 0.0
H1779 H 0.53839 0.86996 0.25098 0.0
H1780 H 0.52402 0.83972 0.15296 0.0
H1781 H 0.45404 0.73043 0.08082 0.0
H1782 H 0.47324 0.7145 0.06093 0.0
H1783 H 0.49003 0.82471 0.07702 0.0
H1784 H 0.47098 0.84059 0.0978 0.0
H1785 H 0.50196 0.79683 0.15628 0.0
H1786 H 0.48662 0.76339 0.91727 0.0
H1787 H 0.47224 0.73271 0.8198 0.0
H1788 H 0.47554 0.63231 0.86518 0.0
H1789 H 0.48983 0.66241 0.96361 0.0
C1790 C 0.55111 0.74859 0.06858 0.0
C1791 C 0.55157 0.7139 0.07509 0.0
C1792 C 0.54019 0.75777 0.06067 0.0
C1793 C 0.52952 0.73243 0.05894 0.0
C1794 C 0.53003 0.69736 0.061 0.0
C1795 C 0.5409 0.68825 0.06926 0.0
C1796 C 0.51781 0.74265 0.06017 0.0
C1797 C 0.50903 0.72508 1.00776 0.0
C1798 C 0.51516 0.76897 0.11406 0.0
C1799 C 0.52372 0.7872 0.17331 0.0
C1800 C 0.52819 0.76776 0.21745 0.0
C1801 C 0.53637 0.78509 0.27263 0.0
C1802 C 0.54006 0.8219 0.28461 0.0
C1803 C 0.53554 0.84145 0.24155 0.0
C1804 C 0.52738 0.82423 0.18619 0.0
C1805 C 0.4618 0.75114 0.07868 0.0
C1806 C 0.46097 0.78679 0.09136 0.0
C1807 C 0.4728 0.74204 0.06733 0.0
C1808 C 0.48319 0.76837 0.06741 0.0
C1809 C 0.48224 0.80383 0.07724 0.0
C1810 C 0.47131 0.8129 0.08901 0.0
C1811 C 0.49513 0.75952 0.06173 0.0
C1812 C 0.50396 0.77721 0.11378 0.0
C1813 C 0.4978 0.73337 1.0074 0.0
C1814 C 0.48921 0.71518 0.94827 0.0
C1815 C 0.48421 0.73478 0.90685 0.0
C1816 C 0.47608 0.71749 0.85135 0.0
C1817 C 0.47295 0.68058 0.83643 0.0
C1818 C 0.47796 0.66089 0.87687 0.0
C1819 C 0.48608 0.67805 0.93248 0.0
H1820 H 0.46666 0.66725 0.79343 0.0
H1821 H 0.54639 0.83527 0.32736 0.0
H1822 H 0.45579 0.23088 0.15931 0.0
H1823 H 0.4766 0.23065 0.14192 0.0
H1824 H 0.47869 0.30825 1.00748 0.0
H1825 H 0.45789 0.30906 0.02544 0.0
H1826 H 0.48933 0.25605 0.9504 0.0
H1827 H 0.49059 0.3312 0.17658 0.0
H1828 H 0.48511 0.3472 0.29973 0.0
H1829 H 0.49786 0.26054 0.35489 0.0
H1830 H 0.50327 0.2437 0.23176 0.0
H1831 H 0.55033 0.29526 0.91926 0.0
H1832 H 0.53097 0.30427 0.95784 0.0
H1833 H 0.52935 0.226 0.0905 0.0
H1834 H 0.54894 0.2176 0.05293 0.0
H1835 H 0.5186 0.2789 0.15094 0.0
H1836 H 0.51691 0.20282 0.92583 0.0
H1837 H 0.5225 0.18627 0.80309 0.0
H1838 H 0.51028 0.27342 0.74605 0.0
H1839 H 0.50481 0.29088 0.86884 0.0
C1840 C 0.46068 0.24826 0.12667 0.0
C1841 C 0.4551 0.27017 0.09418 0.0
C1842 C 0.47262 0.24804 0.11669 0.0
C1843 C 0.47931 0.26978 0.07412 0.0
C1844 C 0.47374 0.29126 0.04066 0.0
C1845 C 0.4618 0.29155 0.05073 0.0
C1846 C 0.49204 0.26959 0.06342 0.0
C1847 C 0.49574 0.2616 0.99428 0.0
C1848 C 0.50041 0.27582 0.12064 0.0
C1849 C 0.49723 0.28599 0.19478 0.0
C1850 C 0.49214 0.31538 0.21484 0.0
C1851 C 0.48906 0.32463 0.28467 0.0
C1852 C 0.49111 0.30484 0.33507 0.0
C1853 C 0.49627 0.27582 0.31577 0.0
C1854 C 0.49935 0.26643 0.24599 0.0
C1855 C 0.54599 0.28082 0.95838 0.0
C1856 C 0.55112 0.2558 0.98327 0.0
C1857 C 0.53489 0.28574 0.97995 0.0
C1858 C 0.52854 0.26519 0.02578 0.0
C1859 C 0.53403 0.24204 0.05484 0.0
C1860 C 0.54524 0.23736 0.03369 0.0
C1861 C 0.51587 0.26568 0.03793 0.0
C1862 C 0.51217 0.27352 0.10717 0.0
C1863 C 0.50746 0.25913 0.98083 0.0
C1864 C 0.51055 0.24834 0.90668 0.0
C1865 C 0.51548 0.21859 0.88721 0.0
C1866 C 0.51862 0.20904 0.81764 0.0
C1867 C 0.51676 0.22883 0.76683 0.0
C1868 C 0.51173 0.25815 0.78548 0.0
C1869 C 0.5086 0.26787 0.85506 0.0
H1870 H 0.51921 0.2214 0.71299 0.0
H1871 H 0.48872 0.31205 0.3891 0.0
loop_
_geom_bond_atom_site_label_1
_geom_bond_atom_site_label_2
_geom_bond_distance
_geom_bond_site_symmetry_2
_ccdc_geom_bond_type
Eu0 N31 2.657 . S
Eu0 N38 2.609 . S
Eu0 O44 2.558 . S
Eu0 O45 2.612 . S
Eu0 O47 2.339 . S
Eu0 O48 2.563 . S
Eu0 O49 2.419 . S
Eu0 O51 2.380 . S
Eu0 O52 2.432 . S
Eu0 C64 2.848 . S
C1 C4 1.429 . S
C1 C5 1.411 . S
C1 N8 1.377 . S
C2 C4 1.420 . S
C2 C6 1.423 . S
C2 C14 1.392 . S
C3 C5 1.420 . S
C3 C6 1.351 . S
C3 H26 0.931 . S
C4 C1 1.429 . S
C4 C2 1.420 . S
C4 N12 1.362 . S
C5 C1 1.411 . S
C5 C3 1.420 . S
C5 C10 1.395 . S
C6 C2 1.423 . S
C6 C3 1.351 . S
C6 H18 0.930 . S
C7 C9 1.400 . S
C7 C10 1.386 . S
C7 H19 0.930 . S
N8 C1 1.377 . S
N8 C9 1.321 . S
N8 Eu11 2.609 . S
C9 C7 1.400 . S
C9 N8 1.321 . S
C9 H16 0.930 . S
C10 C5 1.395 . S
C10 C7 1.386 . S
C10 H29 0.930 . S
Eu11 N8 2.609 . S
Eu11 N12 2.657 . S
Eu11 O45 2.380 . S
Eu11 O46 2.432 . S
Eu11 O50 2.558 . S
Eu11 O51 2.612 . S
Eu11 O53 2.339 . S
Eu11 O54 2.563 . S
Eu11 O55 2.419 . S
Eu11 C75 2.848 . S
N12 C4 1.362 . S
N12 Eu11 2.657 . S
N12 C13 1.334 . S
C13 N12 1.334 . S
C13 C15 1.413 . S
C13 H20 0.929 . S
C14 C2 1.392 . S
C14 C15 1.367 . S
C14 H22 0.930 . S
C15 C13 1.413 . S
C15 C14 1.367 . S
C15 H17 0.930 . S
H16 C9 0.930 . S
H17 C15 0.930 . S
H18 C6 0.930 . S
H19 C7 0.930 . S
H20 C13 0.929 . S
H21 C35 0.930 . S
H22 C14 0.930 . S
H23 C41 0.930 . S
H24 C32 0.929 . S
H25 C39 0.930 . S
H26 C3 0.931 . S
H27 C33 0.930 . S
H28 C66 0.930 . S
H29 C10 0.930 . S
H30 C65 0.931 . S
N31 Eu0 2.657 . S
N31 C32 1.334 . S
N31 C36 1.362 . S
C32 H24 0.929 . S
C32 N31 1.334 . S
C32 C35 1.413 . S
C33 H27 0.930 . S
C33 C34 1.392 . S
C33 C35 1.367 . S
C34 C33 1.392 . S
C34 C36 1.420 . S
C34 C66 1.423 . S
C35 H21 0.930 . S
C35 C32 1.413 . S
C35 C33 1.367 . S
C36 N31 1.362 . S
C36 C34 1.420 . S
C36 C40 1.429 . S
H37 C42 0.930 . S
N38 Eu0 2.609 . S
N38 C40 1.377 . S
N38 C41 1.321 . S
C39 H25 0.930 . S
C39 C41 1.400 . S
C39 C42 1.386 . S
C40 C36 1.429 . S
C40 N38 1.377 . S
C40 C43 1.411 . S
C41 H23 0.930 . S
C41 N38 1.321 . S
C41 C39 1.400 . S
C42 H37 0.930 . S
C42 C39 1.386 . S
C42 C43 1.395 . S
C43 C40 1.411 . S
C43 C42 1.395 . S
C43 C65 1.420 . S
O44 Eu0 2.558 . S
O44 C64 1.257 . S
O45 Eu0 2.612 . S
O45 Eu11 2.380 . S
O45 C56 1.276 . S
O46 Eu11 2.432 . S
O46 C63 1.264 . S
O47 Eu0 2.339 . S
O47 C63 1.254 . S
O48 Eu0 2.563 . S
O48 C56 1.235 . S
O49 Eu0 2.419 . S
O49 C64 1.249 . S
O50 Eu11 2.558 . S
O50 C75 1.257 . S
O51 Eu0 2.380 . S
O51 Eu11 2.612 . S
O51 C67 1.276 . S
O52 Eu0 2.432 . S
O52 C74 1.264 . S
O53 Eu11 2.339 . S
O53 C74 1.254 . S
O54 Eu11 2.563 . S
O54 C67 1.235 . S
O55 Eu11 2.419 . S
O55 C75 1.249 . S
C56 O45 1.276 . S
C56 O48 1.235 . S
C57 C59 1.393 . S
C57 C61 1.395 . S
C57 C64 1.492 . S
C58 C59 1.392 . S
C58 C60 1.386 . S
C59 C57 1.393 . S
C59 C58 1.392 . S
C59 H76 0.930 . S
C60 C58 1.386 . S
C60 C62 1.395 . S
C60 H77 0.930 . S
C61 C57 1.395 . S
C61 C62 1.379 . S
C61 H78 0.930 . S
C62 C60 1.395 . S
C62 C61 1.379 . S
C62 H79 0.930 . S
C63 O46 1.264 . S
C63 O47 1.254 . S
C64 Eu0 2.848 . S
C64 O44 1.257 . S
C64 O49 1.249 . S
C64 C57 1.492 . S
C65 H30 0.931 . S
C65 C43 1.420 . S
C65 C66 1.351 . S
C66 H28 0.930 . S
C66 C34 1.423 . S
C66 C65 1.351 . S
C67 O51 1.276 . S
C67 O54 1.235 . S
C68 C69 1.393 . S
C68 C72 1.395 . S
C68 C75 1.492 . S
C69 C68 1.393 . S
C69 C70 1.392 . S
C69 H80 0.930 . S
C70 C69 1.392 . S
C70 C71 1.386 . S
C71 C70 1.386 . S
C71 C73 1.395 . S
C71 H81 0.930 . S
C72 C68 1.395 . S
C72 C73 1.379 . S
C72 H82 0.930 . S
C73 C71 1.395 . S
C73 C72 1.379 . S
C73 H83 0.930 . S
C74 O52 1.264 . S
C74 O53 1.254 . S
C75 Eu11 2.848 . S
C75 O50 1.257 . S
C75 O55 1.249 . S
C75 C68 1.492 . S
H76 C59 0.930 . S
H77 C60 0.930 . S
H78 C61 0.930 . S
H79 C62 0.930 . S
H80 C69 0.930 . S
H81 C71 0.930 . S
H82 C72 0.930 . S
H83 C73 0.930 . S
Eu84 N115 2.657 . S
Eu84 N122 2.609 . S
Eu84 O128 2.558 . S
Eu84 O129 2.612 . S
Eu84 O131 2.339 . S
Eu84 O132 2.563 . S
Eu84 O133 2.419 . S
Eu84 O135 2.380 . S
Eu84 O136 2.432 . S
Eu84 C148 2.848 . S
C85 C88 1.429 . S
C85 C89 1.411 . S
C85 N92 1.377 . S
C86 C88 1.420 . S
C86 C90 1.423 . S
C86 C98 1.392 . S
C87 C89 1.420 . S
C87 C90 1.351 . S
C87 H110 0.931 . S
C88 C85 1.429 . S
C88 C86 1.420 . S
C88 N96 1.362 . S
C89 C85 1.411 . S
C89 C87 1.420 . S
C89 C94 1.395 . S
C90 C86 1.423 . S
C90 C87 1.351 . S
C90 H102 0.930 . S
C91 C93 1.400 . S
C91 C94 1.386 . S
C91 H103 0.930 . S
N92 C85 1.377 . S
N92 C93 1.321 . S
N92 Eu95 2.609 . S
C93 C91 1.400 . S
C93 N92 1.321 . S
C93 H100 0.930 . S
C94 C89 1.395 . S
C94 C91 1.386 . S
C94 H113 0.930 . S
Eu95 N92 2.609 . S
Eu95 N96 2.657 . S
Eu95 O129 2.380 . S
Eu95 O130 2.432 . S
Eu95 O134 2.558 . S
Eu95 O135 2.612 . S
Eu95 O137 2.339 . S
Eu95 O138 2.563 . S
Eu95 O139 2.419 . S
Eu95 C159 2.848 . S
N96 C88 1.362 . S
N96 Eu95 2.657 . S
N96 C97 1.334 . S
C97 N96 1.334 . S
C97 C99 1.413 . S
C97 H104 0.929 . S
C98 C86 1.392 . S
C98 C99 1.367 . S
C98 H106 0.930 . S
C99 C97 1.413 . S
C99 C98 1.367 . S
C99 H101 0.930 . S
H100 C93 0.930 . S
H101 C99 0.930 . S
H102 C90 0.930 . S
H103 C91 0.930 . S
H104 C97 0.929 . S
H105 C119 0.930 . S
H106 C98 0.930 . S
H107 C125 0.930 . S
H108 C116 0.929 . S
H109 C123 0.930 . S
H110 C87 0.931 . S
H111 C117 0.930 . S
H112 C150 0.930 . S
H113 C94 0.930 . S
H114 C149 0.931 . S
N115 Eu84 2.657 . S
N115 C116 1.334 . S
N115 C120 1.362 . S
C116 H108 0.929 . S
C116 N115 1.334 . S
C116 C119 1.413 . S
C117 H111 0.930 . S
C117 C118 1.392 . S
C117 C119 1.367 . S
C118 C117 1.392 . S
C118 C120 1.420 . S
C118 C150 1.423 . S
C119 H105 0.930 . S
C119 C116 1.413 . S
C119 C117 1.367 . S
C120 N115 1.362 . S
C120 C118 1.420 . S
C120 C124 1.429 . S
H121 C126 0.930 . S
N122 Eu84 2.609 . S
N122 C124 1.377 . S
N122 C125 1.321 . S
C123 H109 0.930 . S
C123 C125 1.400 . S
C123 C126 1.386 . S
C124 C120 1.429 . S
C124 N122 1.377 . S
C124 C127 1.411 . S
C125 H107 0.930 . S
C125 N122 1.321 . S
C125 C123 1.400 . S
C126 H121 0.930 . S
C126 C123 1.386 . S
C126 C127 1.395 . S
C127 C124 1.411 . S
C127 C126 1.395 . S
C127 C149 1.420 . S
O128 Eu84 2.558 . S
O128 C148 1.257 . S
O129 Eu84 2.612 . S
O129 Eu95 2.380 . S
O129 C140 1.276 . S
O130 Eu95 2.432 . S
O130 C147 1.264 . S
O131 Eu84 2.339 . S
O131 C147 1.254 . S
O132 Eu84 2.563 . S
O132 C140 1.235 . S
O133 Eu84 2.419 . S
O133 C148 1.249 . S
O134 Eu95 2.558 . S
O134 C159 1.257 . S
O135 Eu84 2.380 . S
O135 Eu95 2.612 . S
O135 C151 1.276 . S
O136 Eu84 2.432 . S
O136 C158 1.264 . S
O137 Eu95 2.339 . S
O137 C158 1.254 . S
O138 Eu95 2.563 . S
O138 C151 1.235 . S
O139 Eu95 2.419 . S
O139 C159 1.249 . S
C140 O129 1.276 . S
C140 O132 1.235 . S
C141 C143 1.393 . S
C141 C145 1.395 . S
C141 C148 1.492 . S
C142 C143 1.392 . S
C142 C144 1.386 . S
C143 C141 1.393 . S
C143 C142 1.392 . S
C143 H160 0.930 . S
C144 C142 1.386 . S
C144 C146 1.395 . S
C144 H161 0.930 . S
C145 C141 1.395 . S
C145 C146 1.379 . S
C145 H162 0.930 . S
C146 C144 1.395 . S
C146 C145 1.379 . S
C146 H163 0.930 . S
C147 O130 1.264 . S
C147 O131 1.254 . S
C148 Eu84 2.848 . S
C148 O128 1.257 . S
C148 O133 1.249 . S
C148 C141 1.492 . S
C149 H114 0.931 . S
C149 C127 1.420 . S
C149 C150 1.351 . S
C150 H112 0.930 . S
C150 C118 1.423 . S
C150 C149 1.351 . S
C151 O135 1.276 . S
C151 O138 1.235 . S
C152 C153 1.393 . S
C152 C156 1.395 . S
C152 C159 1.492 . S
C153 C152 1.393 . S
C153 C154 1.392 . S
C153 H164 0.930 . S
C154 C153 1.392 . S
C154 C155 1.386 . S
C155 C154 1.386 . S
C155 C157 1.395 . S
C155 H165 0.930 . S
C156 C152 1.395 . S
C156 C157 1.379 . S
C156 H166 0.930 . S
C157 C155 1.395 . S
C157 C156 1.379 . S
C157 H167 0.930 . S
C158 O136 1.264 . S
C158 O137 1.254 . S
C159 Eu95 2.848 . S
C159 O134 1.257 . S
C159 O139 1.249 . S
C159 C152 1.492 . S
H160 C143 0.930 . S
H161 C144 0.930 . S
H162 C145 0.930 . S
H163 C146 0.930 . S
H164 C153 0.930 . S
H165 C155 0.930 . S
H166 C156 0.930 . S
H167 C157 0.930 . S
Eu168 N199 2.657 . S
Eu168 N206 2.609 . S
Eu168 O212 2.558 . S
Eu168 O213 2.612 . S
Eu168 O215 2.339 . S
Eu168 O216 2.563 . S
Eu168 O217 2.419 . S
Eu168 O219 2.380 . S
Eu168 O220 2.432 . S
Eu168 C232 2.848 . S
C169 C172 1.429 . S
C169 C173 1.411 . S
C169 N176 1.377 . S
C170 C172 1.420 . S
C170 C174 1.423 . S
C170 C182 1.392 . S
C171 C173 1.420 . S
C171 C174 1.351 . S
C171 H194 0.931 . S
C172 C169 1.429 . S
C172 C170 1.420 . S
C172 N180 1.362 . S
C173 C169 1.411 . S
C173 C171 1.420 . S
C173 C178 1.395 . S
C174 C170 1.423 . S
C174 C171 1.351 . S
C174 H186 0.930 . S
C175 C177 1.400 . S
C175 C178 1.386 . S
C175 H187 0.930 . S
N176 C169 1.377 . S
N176 C177 1.321 . S
N176 Eu179 2.609 . S
C177 C175 1.400 . S
C177 N176 1.321 . S
C177 H184 0.930 . S
C178 C173 1.395 . S
C178 C175 1.386 . S
C178 H197 0.930 . S
Eu179 N176 2.609 . S
Eu179 N180 2.657 . S
Eu179 O213 2.380 . S
Eu179 O214 2.432 . S
Eu179 O218 2.558 . S
Eu179 O219 2.612 . S
Eu179 O221 2.339 . S
Eu179 O222 2.563 . S
Eu179 O223 2.419 . S
Eu179 C243 2.848 . S
N180 C172 1.362 . S
N180 Eu179 2.657 . S
N180 C181 1.334 . S
C181 N180 1.334 . S
C181 C183 1.413 . S
C181 H188 0.929 . S
C182 C170 1.392 . S
C182 C183 1.367 . S
C182 H190 0.930 . S
C183 C181 1.413 . S
C183 C182 1.367 . S
C183 H185 0.930 . S
H184 C177 0.930 . S
H185 C183 0.930 . S
H186 C174 0.930 . S
H187 C175 0.930 . S
H188 C181 0.929 . S
H189 C203 0.930 . S
H190 C182 0.930 . S
H191 C209 0.930 . S
H192 C200 0.929 . S
H193 C207 0.930 . S
H194 C171 0.931 . S
H195 C201 0.930 . S
H196 C234 0.930 . S
H197 C178 0.930 . S
H198 C233 0.931 . S
N199 Eu168 2.657 . S
N199 C200 1.334 . S
N199 C204 1.362 . S
C200 H192 0.929 . S
C200 N199 1.334 . S
C200 C203 1.413 . S
C201 H195 0.930 . S
C201 C202 1.392 . S
C201 C203 1.367 . S
C202 C201 1.392 . S
C202 C204 1.420 . S
C202 C234 1.423 . S
C203 H189 0.930 . S
C203 C200 1.413 . S
C203 C201 1.367 . S
C204 N199 1.362 . S
C204 C202 1.420 . S
C204 C208 1.429 . S
H205 C210 0.930 . S
N206 Eu168 2.609 . S
N206 C208 1.377 . S
N206 C209 1.321 . S
C207 H193 0.930 . S
C207 C209 1.400 . S
C207 C210 1.386 . S
C208 C204 1.429 . S
C208 N206 1.377 . S
C208 C211 1.411 . S
C209 H191 0.930 . S
C209 N206 1.321 . S
C209 C207 1.400 . S
C210 H205 0.930 . S
C210 C207 1.386 . S
C210 C211 1.395 . S
C211 C208 1.411 . S
C211 C210 1.395 . S
C211 C233 1.420 . S
O212 Eu168 2.558 . S
O212 C232 1.257 . S
O213 Eu168 2.612 . S
O213 Eu179 2.380 . S
O213 C224 1.276 . S
O214 Eu179 2.432 . S
O214 C231 1.264 . S
O215 Eu168 2.339 . S
O215 C231 1.254 . S
O216 Eu168 2.563 . S
O216 C224 1.235 . S
O217 Eu168 2.419 . S
O217 C232 1.249 . S
O218 Eu179 2.558 . S
O218 C243 1.257 . S
O219 Eu168 2.380 . S
O219 Eu179 2.612 . S
O219 C235 1.276 . S
O220 Eu168 2.432 . S
O220 C242 1.264 . S
O221 Eu179 2.339 . S
O221 C242 1.254 . S
O222 Eu179 2.563 . S
O222 C235 1.235 . S
O223 Eu179 2.419 . S
O223 C243 1.249 . S
C224 O213 1.276 . S
C224 O216 1.235 . S
C225 C227 1.393 . S
C225 C229 1.395 . S
C225 C232 1.492 . S
C226 C227 1.392 . S
C226 C228 1.386 . S
C227 C225 1.393 . S
C227 C226 1.392 . S
C227 H244 0.930 . S
C228 C226 1.386 . S
C228 C230 1.395 . S
C228 H245 0.930 . S
C229 C225 1.395 . S
C229 C230 1.379 . S
C229 H246 0.930 . S
C230 C228 1.395 . S
C230 C229 1.379 . S
C230 H247 0.930 . S
C231 O214 1.264 . S
C231 O215 1.254 . S
C232 Eu168 2.848 . S
C232 O212 1.257 . S
C232 O217 1.249 . S
C232 C225 1.492 . S
C233 H198 0.931 . S
C233 C211 1.420 . S
C233 C234 1.351 . S
C234 H196 0.930 . S
C234 C202 1.423 . S
C234 C233 1.351 . S
C235 O219 1.276 . S
C235 O222 1.235 . S
C236 C237 1.393 . S
C236 C240 1.395 . S
C236 C243 1.492 . S
C237 C236 1.393 . S
C237 C238 1.392 . S
C237 H248 0.930 . S
C238 C237 1.392 . S
C238 C239 1.386 . S
C239 C238 1.386 . S
C239 C241 1.395 . S
C239 H249 0.930 . S
C240 C236 1.395 . S
C240 C241 1.379 . S
C240 H250 0.930 . S
C241 C239 1.395 . S
C241 C240 1.379 . S
C241 H251 0.930 . S
C242 O220 1.264 . S
C242 O221 1.254 . S
C243 Eu179 2.848 . S
C243 O218 1.257 . S
C243 O223 1.249 . S
C243 C236 1.492 . S
H244 C227 0.930 . S
H245 C228 0.930 . S
H246 C229 0.930 . S
H247 C230 0.930 . S
H248 C237 0.930 . S
H249 C239 0.930 . S
H250 C240 0.930 . S
H251 C241 0.930 . S
Eu252 N283 2.657 . S
Eu252 N290 2.609 . S
Eu252 O296 2.558 . S
Eu252 O297 2.612 . S
Eu252 O299 2.339 . S
Eu252 O300 2.563 . S
Eu252 O301 2.419 . S
Eu252 O303 2.380 . S
Eu252 O304 2.432 . S
Eu252 C316 2.848 . S
C253 C256 1.429 . S
C253 C257 1.411 . S
C253 N260 1.377 . S
C254 C256 1.420 . S
C254 C258 1.423 . S
C254 C266 1.392 . S
C255 C257 1.420 . S
C255 C258 1.351 . S
C255 H278 0.931 . S
C256 C253 1.429 . S
C256 C254 1.420 . S
C256 N264 1.362 . S
C257 C253 1.411 . S
C257 C255 1.420 . S
C257 C262 1.395 . S
C258 C254 1.423 . S
C258 C255 1.351 . S
C258 H270 0.930 . S
C259 C261 1.400 . S
C259 C262 1.386 . S
C259 H271 0.930 . S
N260 C253 1.377 . S
N260 C261 1.321 . S
N260 Eu263 2.609 . S
C261 C259 1.400 . S
C261 N260 1.321 . S
C261 H268 0.930 . S
C262 C257 1.395 . S
C262 C259 1.386 . S
C262 H281 0.930 . S
Eu263 N260 2.609 . S
Eu263 N264 2.657 . S
Eu263 O297 2.380 . S
Eu263 O298 2.432 . S
Eu263 O302 2.558 . S
Eu263 O303 2.612 . S
Eu263 O305 2.339 . S
Eu263 O306 2.563 . S
Eu263 O307 2.419 . S
Eu263 C327 2.848 . S
N264 C256 1.362 . S
N264 Eu263 2.657 . S
N264 C265 1.334 . S
C265 N264 1.334 . S
C265 C267 1.413 . S
C265 H272 0.929 . S
C266 C254 1.392 . S
C266 C267 1.367 . S
C266 H274 0.930 . S
C267 C265 1.413 . S
C267 C266 1.367 . S
C267 H269 0.930 . S
H268 C261 0.930 . S
H269 C267 0.930 . S
H270 C258 0.930 . S
H271 C259 0.930 . S
H272 C265 0.929 . S
H273 C287 0.930 . S
H274 C266 0.930 . S
H275 C293 0.930 . S
H276 C284 0.929 . S
H277 C291 0.930 . S
H278 C255 0.931 . S
H279 C285 0.930 . S
H280 C318 0.930 . S
H281 C262 0.930 . S
H282 C317 0.931 . S
N283 Eu252 2.657 . S
N283 C284 1.334 . S
N283 C288 1.362 . S
C284 H276 0.929 . S
C284 N283 1.334 . S
C284 C287 1.413 . S
C285 H279 0.930 . S
C285 C286 1.392 . S
C285 C287 1.367 . S
C286 C285 1.392 . S
C286 C288 1.420 . S
C286 C318 1.423 . S
C287 H273 0.930 . S
C287 C284 1.413 . S
C287 C285 1.367 . S
C288 N283 1.362 . S
C288 C286 1.420 . S
C288 C292 1.429 . S
H289 C294 0.930 . S
N290 Eu252 2.609 . S
N290 C292 1.377 . S
N290 C293 1.321 . S
C291 H277 0.930 . S
C291 C293 1.400 . S
C291 C294 1.386 . S
C292 C288 1.429 . S
C292 N290 1.377 . S
C292 C295 1.411 . S
C293 H275 0.930 . S
C293 N290 1.321 . S
C293 C291 1.400 . S
C294 H289 0.930 . S
C294 C291 1.386 . S
C294 C295 1.395 . S
C295 C292 1.411 . S
C295 C294 1.395 . S
C295 C317 1.420 . S
O296 Eu252 2.558 . S
O296 C316 1.257 . S
O297 Eu252 2.612 . S
O297 Eu263 2.380 . S
O297 C308 1.276 . S
O298 Eu263 2.432 . S
O298 C315 1.264 . S
O299 Eu252 2.339 . S
O299 C315 1.254 . S
O300 Eu252 2.563 . S
O300 C308 1.235 . S
O301 Eu252 2.419 . S
O301 C316 1.249 . S
O302 Eu263 2.558 . S
O302 C327 1.257 . S
O303 Eu252 2.380 . S
O303 Eu263 2.612 . S
O303 C319 1.276 . S
O304 Eu252 2.432 . S
O304 C326 1.264 . S
O305 Eu263 2.339 . S
O305 C326 1.254 . S
O306 Eu263 2.563 . S
O306 C319 1.235 . S
O307 Eu263 2.419 . S
O307 C327 1.249 . S
C308 O297 1.276 . S
C308 O300 1.235 . S
C309 C311 1.393 . S
C309 C313 1.395 . S
C309 C316 1.492 . S
C310 C311 1.392 . S
C310 C312 1.386 . S
C311 C309 1.393 . S
C311 C310 1.392 . S
C311 H328 0.930 . S
C312 C310 1.386 . S
C312 C314 1.395 . S
C312 H329 0.930 . S
C313 C309 1.395 . S
C313 C314 1.379 . S
C313 H330 0.930 . S
C314 C312 1.395 . S
C314 C313 1.379 . S
C314 H331 0.930 . S
C315 O298 1.264 . S
C315 O299 1.254 . S
C316 Eu252 2.848 . S
C316 O296 1.257 . S
C316 O301 1.249 . S
C316 C309 1.492 . S
C317 H282 0.931 . S
C317 C295 1.420 . S
C317 C318 1.351 . S
C318 H280 0.930 . S
C318 C286 1.423 . S
C318 C317 1.351 . S
C319 O303 1.276 . S
C319 O306 1.235 . S
C320 C321 1.393 . S
C320 C324 1.395 . S
C320 C327 1.492 . S
C321 C320 1.393 . S
C321 C322 1.392 . S
C321 H332 0.930 . S
C322 C321 1.392 . S
C322 C323 1.386 . S
C323 C322 1.386 . S
C323 C325 1.395 . S
C323 H333 0.930 . S
C324 C320 1.395 . S
C324 C325 1.379 . S
C324 H334 0.930 . S
C325 C323 1.395 . S
C325 C324 1.379 . S
C325 H335 0.930 . S
C326 O304 1.264 . S
C326 O305 1.254 . S
C327 Eu263 2.848 . S
C327 O302 1.257 . S
C327 O307 1.249 . S
C327 C320 1.492 . S
H328 C311 0.930 . S
H329 C312 0.930 . S
H330 C313 0.930 . S
H331 C314 0.930 . S
H332 C321 0.930 . S
H333 C323 0.930 . S
H334 C324 0.930 . S
H335 C325 0.930 . S
Eu336 N367 2.657 . S
Eu336 N374 2.609 . S
Eu336 O380 2.558 1_554 S
Eu336 O381 2.612 1_554 S
Eu336 O383 2.339 . S
Eu336 O384 2.563 1_554 S
Eu336 O385 2.419 1_554 S
Eu336 O387 2.380 . S
Eu336 O388 2.432 1_554 S
Eu336 C400 2.848 1_554 S
C337 C340 1.429 . S
C337 C341 1.411 . S
C337 N344 1.377 . S
C338 C340 1.420 . S
C338 C342 1.423 . S
C338 C350 1.392 . S
C339 C341 1.420 . S
C339 C342 1.351 . S
C339 H362 0.931 . S
C340 C337 1.429 . S
C340 C338 1.420 . S
C340 N348 1.362 . S
C341 C337 1.411 . S
C341 C339 1.420 . S
C341 C346 1.395 . S
C342 C338 1.423 . S
C342 C339 1.351 . S
C342 H354 0.930 . S
C343 C345 1.400 . S
C343 C346 1.386 . S
C343 H355 0.930 . S
N344 C337 1.377 . S
N344 C345 1.321 . S
N344 Eu347 2.609 . S
C345 C343 1.400 . S
C345 N344 1.321 . S
C345 H352 0.930 . S
C346 C341 1.395 . S
C346 C343 1.386 . S
C346 H365 0.930 . S
Eu347 N344 2.609 . S
Eu347 N348 2.657 . S
Eu347 O381 2.380 . S
Eu347 O382 2.432 1_556 S
Eu347 O386 2.558 1_556 S
Eu347 O387 2.612 1_556 S
Eu347 O389 2.339 . S
Eu347 O390 2.563 1_556 S
Eu347 O391 2.419 1_556 S
Eu347 C411 2.848 1_556 S
N348 C340 1.362 . S
N348 Eu347 2.657 . S
N348 C349 1.334 . S
C349 N348 1.334 . S
C349 C351 1.413 . S
C349 H356 0.929 . S
C350 C338 1.392 . S
C350 C351 1.367 . S
C350 H358 0.930 . S
C351 C349 1.413 . S
C351 C350 1.367 . S
C351 H353 0.930 . S
H352 C345 0.930 . S
H353 C351 0.930 . S
H354 C342 0.930 . S
H355 C343 0.930 . S
H356 C349 0.929 . S
H357 C371 0.930 . S
H358 C350 0.930 . S
H359 C377 0.930 . S
H360 C368 0.929 . S
H361 C375 0.930 . S
H362 C339 0.931 . S
H363 C369 0.930 . S
H364 C402 0.930 . S
H365 C346 0.930 . S
H366 C401 0.931 . S
N367 Eu336 2.657 . S
N367 C368 1.334 . S
N367 C372 1.362 . S
C368 H360 0.929 . S
C368 N367 1.334 . S
C368 C371 1.413 . S
C369 H363 0.930 . S
C369 C370 1.392 . S
C369 C371 1.367 . S
C370 C369 1.392 . S
C370 C372 1.420 . S
C370 C402 1.423 . S
C371 H357 0.930 . S
C371 C368 1.413 . S
C371 C369 1.367 . S
C372 N367 1.362 . S
C372 C370 1.420 . S
C372 C376 1.429 . S
H373 C378 0.930 . S
N374 Eu336 2.609 . S
N374 C376 1.377 . S
N374 C377 1.321 . S
C375 H361 0.930 . S
C375 C377 1.400 . S
C375 C378 1.386 . S
C376 C372 1.429 . S
C376 N374 1.377 . S
C376 C379 1.411 . S
C377 H359 0.930 . S
C377 N374 1.321 . S
C377 C375 1.400 . S
C378 H373 0.930 . S
C378 C375 1.386 . S
C378 C379 1.395 . S
C379 C376 1.411 . S
C379 C378 1.395 . S
C379 C401 1.420 . S
O380 Eu336 2.558 1_556 S
O380 C400 1.257 . S
O381 Eu336 2.612 1_556 S
O381 Eu347 2.380 . S
O381 C392 1.276 . S
O382 Eu347 2.432 1_554 S
O382 C399 1.264 . S
O383 Eu336 2.339 . S
O383 C399 1.254 . S
O384 Eu336 2.563 1_556 S
O384 C392 1.235 . S
O385 Eu336 2.419 1_556 S
O385 C400 1.249 . S
O386 Eu347 2.558 1_554 S
O386 C411 1.257 . S
O387 Eu336 2.380 . S
O387 Eu347 2.612 1_554 S
O387 C403 1.276 . S
O388 Eu336 2.432 1_556 S
O388 C410 1.264 . S
O389 Eu347 2.339 . S
O389 C410 1.254 . S
O390 Eu347 2.563 1_554 S
O390 C403 1.235 . S
O391 Eu347 2.419 1_554 S
O391 C411 1.249 . S
C392 O381 1.276 . S
C392 O384 1.235 . S
C393 C395 1.393 . S
C393 C397 1.395 . S
C393 C400 1.492 . S
C394 C395 1.392 . S
C394 C396 1.386 . S
C395 C393 1.393 . S
C395 C394 1.392 . S
C395 H412 0.930 . S
C396 C394 1.386 . S
C396 C398 1.395 . S
C396 H413 0.930 . S
C397 C393 1.395 . S
C397 C398 1.379 . S
C397 H414 0.930 . S
C398 C396 1.395 . S
C398 C397 1.379 . S
C398 H415 0.930 . S
C399 O382 1.264 . S
C399 O383 1.254 . S
C400 Eu336 2.848 1_556 S
C400 O380 1.257 . S
C400 O385 1.249 . S
C400 C393 1.492 . S
C401 H366 0.931 . S
C401 C379 1.420 . S
C401 C402 1.351 . S
C402 H364 0.930 . S
C402 C370 1.423 . S
C402 C401 1.351 . S
C403 O387 1.276 . S
C403 O390 1.235 . S
C404 C405 1.393 . S
C404 C408 1.395 . S
C404 C411 1.492 . S
C405 C404 1.393 . S
C405 C406 1.392 . S
C405 H416 0.930 . S
C406 C405 1.392 . S
C406 C407 1.386 . S
C407 C406 1.386 . S
C407 C409 1.395 . S
C407 H417 0.930 . S
C408 C404 1.395 . S
C408 C409 1.379 . S
C408 H418 0.930 . S
C409 C407 1.395 . S
C409 C408 1.379 . S
C409 H419 0.930 . S
C410 O388 1.264 . S
C410 O389 1.254 . S
C411 Eu347 2.848 1_554 S
C411 O386 1.257 . S
C411 O391 1.249 . S
C411 C404 1.492 . S
H412 C395 0.930 . S
H413 C396 0.930 . S
H414 C397 0.930 . S
H415 C398 0.930 . S
H416 C405 0.930 . S
H417 C407 0.930 . S
H418 C408 0.930 . S
H419 C409 0.930 . S
Eu420 N451 2.657 . S
Eu420 N458 2.609 . S
Eu420 O464 2.558 1_556 S
Eu420 O465 2.612 1_556 S
Eu420 O467 2.339 . S
Eu420 O468 2.563 1_556 S
Eu420 O469 2.419 1_556 S
Eu420 O471 2.380 . S
Eu420 O472 2.432 1_556 S
Eu420 C484 2.848 1_556 S
C421 C424 1.429 . S
C421 C425 1.411 . S
C421 N428 1.377 . S
C422 C424 1.420 . S
C422 C426 1.423 . S
C422 C434 1.392 . S
C423 C425 1.420 . S
C423 C426 1.351 . S
C423 H446 0.931 . S
C424 C421 1.429 . S
C424 C422 1.420 . S
C424 N432 1.362 . S
C425 C421 1.411 . S
C425 C423 1.420 . S
C425 C430 1.395 . S
C426 C422 1.423 . S
C426 C423 1.351 . S
C426 H438 0.930 . S
C427 C429 1.400 . S
C427 C430 1.386 . S
C427 H439 0.930 . S
N428 C421 1.377 . S
N428 C429 1.321 . S
N428 Eu431 2.609 . S
C429 C427 1.400 . S
C429 N428 1.321 . S
C429 H436 0.930 . S
C430 C425 1.395 . S
C430 C427 1.386 . S
C430 H449 0.930 . S
Eu431 N428 2.609 . S
Eu431 N432 2.657 . S
Eu431 O465 2.380 . S
Eu431 O466 2.432 1_554 S
Eu431 O470 2.558 1_554 S
Eu431 O471 2.612 1_554 S
Eu431 O473 2.339 . S
Eu431 O474 2.563 1_554 S
Eu431 O475 2.419 1_554 S
Eu431 C495 2.848 1_554 S
N432 C424 1.362 . S
N432 Eu431 2.657 . S
N432 C433 1.334 . S
C433 N432 1.334 . S
C433 C435 1.413 . S
C433 H440 0.929 . S
C434 C422 1.392 . S
C434 C435 1.367 . S
C434 H442 0.930 . S
C435 C433 1.413 . S
C435 C434 1.367 . S
C435 H437 0.930 . S
H436 C429 0.930 . S
H437 C435 0.930 . S
H438 C426 0.930 . S
H439 C427 0.930 . S
H440 C433 0.929 . S
H441 C455 0.930 . S
H442 C434 0.930 . S
H443 C461 0.930 . S
H444 C452 0.929 . S
H445 C459 0.930 . S
H446 C423 0.931 . S
H447 C453 0.930 . S
H448 C486 0.930 . S
H449 C430 0.930 . S
H450 C485 0.931 . S
N451 Eu420 2.657 . S
N451 C452 1.334 . S
N451 C456 1.362 . S
C452 H444 0.929 . S
C452 N451 1.334 . S
C452 C455 1.413 . S
C453 H447 0.930 . S
C453 C454 1.392 . S
C453 C455 1.367 . S
C454 C453 1.392 . S
C454 C456 1.420 . S
C454 C486 1.423 . S
C455 H441 0.930 . S
C455 C452 1.413 . S
C455 C453 1.367 . S
C456 N451 1.362 . S
C456 C454 1.420 . S
C456 C460 1.429 . S
H457 C462 0.930 . S
N458 Eu420 2.609 . S
N458 C460 1.377 . S
N458 C461 1.321 . S
C459 H445 0.930 . S
C459 C461 1.400 . S
C459 C462 1.386 . S
C460 C456 1.429 . S
C460 N458 1.377 . S
C460 C463 1.411 . S
C461 H443 0.930 . S
C461 N458 1.321 . S
C461 C459 1.400 . S
C462 H457 0.930 . S
C462 C459 1.386 . S
C462 C463 1.395 . S
C463 C460 1.411 . S
C463 C462 1.395 . S
C463 C485 1.420 . S
O464 Eu420 2.558 1_554 S
O464 C484 1.257 . S
O465 Eu420 2.612 1_554 S
O465 Eu431 2.380 . S
O465 C476 1.276 . S
O466 Eu431 2.432 1_556 S
O466 C483 1.264 . S
O467 Eu420 2.339 . S
O467 C483 1.254 . S
O468 Eu420 2.563 1_554 S
O468 C476 1.235 . S
O469 Eu420 2.419 1_554 S
O469 C484 1.249 . S
O470 Eu431 2.558 1_556 S
O470 C495 1.257 . S
O471 Eu420 2.380 . S
O471 Eu431 2.612 1_556 S
O471 C487 1.276 . S
O472 Eu420 2.432 1_554 S
O472 C494 1.264 . S
O473 Eu431 2.339 . S
O473 C494 1.254 . S
O474 Eu431 2.563 1_556 S
O474 C487 1.235 . S
O475 Eu431 2.419 1_556 S
O475 C495 1.249 . S
C476 O465 1.276 . S
C476 O468 1.235 . S
C477 C479 1.393 . S
C477 C481 1.395 . S
C477 C484 1.492 . S
C478 C479 1.392 . S
C478 C480 1.386 . S
C479 C477 1.393 . S
C479 C478 1.392 . S
C479 H496 0.930 . S
C480 C478 1.386 . S
C480 C482 1.395 . S
C480 H497 0.930 . S
C481 C477 1.395 . S
C481 C482 1.379 . S
C481 H498 0.930 . S
C482 C480 1.395 . S
C482 C481 1.379 . S
C482 H499 0.930 . S
C483 O466 1.264 . S
C483 O467 1.254 . S
C484 Eu420 2.848 1_554 S
C484 O464 1.257 . S
C484 O469 1.249 . S
C484 C477 1.492 . S
C485 H450 0.931 . S
C485 C463 1.420 . S
C485 C486 1.351 . S
C486 H448 0.930 . S
C486 C454 1.423 . S
C486 C485 1.351 . S
C487 O471 1.276 . S
C487 O474 1.235 . S
C488 C489 1.393 . S
C488 C492 1.395 . S
C488 C495 1.492 . S
C489 C488 1.393 . S
C489 C490 1.392 . S
C489 H500 0.930 . S
C490 C489 1.392 . S
C490 C491 1.386 . S
C491 C490 1.386 . S
C491 C493 1.395 . S
C491 H501 0.930 . S
C492 C488 1.395 . S
C492 C493 1.379 . S
C492 H502 0.930 . S
C493 C491 1.395 . S
C493 C492 1.379 . S
C493 H503 0.930 . S
C494 O472 1.264 . S
C494 O473 1.254 . S
C495 Eu431 2.848 1_556 S
C495 O470 1.257 . S
C495 O475 1.249 . S
C495 C488 1.492 . S
H496 C479 0.930 . S
H497 C480 0.930 . S
H498 C481 0.930 . S
H499 C482 0.930 . S
H500 C489 0.930 . S
H501 C491 0.930 . S
H502 C492 0.930 . S
H503 C493 0.930 . S
Eu504 N535 2.657 . S
Eu504 N542 2.609 . S
Eu504 O548 2.558 1_554 S
Eu504 O549 2.612 1_554 S
Eu504 O551 2.339 . S
Eu504 O552 2.563 1_554 S
Eu504 O553 2.419 1_554 S
Eu504 O555 2.380 . S
Eu504 O556 2.432 . S
Eu504 C568 2.848 1_554 S
C505 C508 1.429 . S
C505 C509 1.411 . S
C505 N512 1.377 . S
C506 C508 1.420 . S
C506 C510 1.423 . S
C506 C518 1.392 . S
C507 C509 1.420 . S
C507 C510 1.351 . S
C507 H530 0.931 . S
C508 C505 1.429 . S
C508 C506 1.420 . S
C508 N516 1.362 . S
C509 C505 1.411 . S
C509 C507 1.420 . S
C509 C514 1.395 . S
C510 C506 1.423 . S
C510 C507 1.351 . S
C510 H522 0.930 . S
C511 C513 1.400 . S
C511 C514 1.386 . S
C511 H523 0.930 . S
N512 C505 1.377 . S
N512 C513 1.321 . S
N512 Eu515 2.609 . S
C513 C511 1.400 . S
C513 N512 1.321 . S
C513 H520 0.930 . S
C514 C509 1.395 . S
C514 C511 1.386 . S
C514 H533 0.930 . S
Eu515 N512 2.609 . S
Eu515 N516 2.657 . S
Eu515 O549 2.380 . S
Eu515 O550 2.432 . S
Eu515 O554 2.558 1_556 S
Eu515 O555 2.612 1_556 S
Eu515 O557 2.339 . S
Eu515 O558 2.563 1_556 S
Eu515 O559 2.419 1_556 S
Eu515 C579 2.848 1_556 S
N516 C508 1.362 . S
N516 Eu515 2.657 . S
N516 C517 1.334 . S
C517 N516 1.334 . S
C517 C519 1.413 . S
C517 H524 0.929 . S
C518 C506 1.392 . S
C518 C519 1.367 . S
C518 H526 0.930 . S
C519 C517 1.413 . S
C519 C518 1.367 . S
C519 H521 0.930 . S
H520 C513 0.930 . S
H521 C519 0.930 . S
H522 C510 0.930 . S
H523 C511 0.930 . S
H524 C517 0.929 . S
H525 C539 0.930 . S
H526 C518 0.930 . S
H527 C545 0.930 . S
H528 C536 0.929 . S
H529 C543 0.930 . S
H530 C507 0.931 . S
H531 C537 0.930 . S
H532 C570 0.930 . S
H533 C514 0.930 . S
H534 C569 0.931 . S
N535 Eu504 2.657 . S
N535 C536 1.334 . S
N535 C540 1.362 . S
C536 H528 0.929 . S
C536 N535 1.334 . S
C536 C539 1.413 . S
C537 H531 0.930 . S
C537 C538 1.392 . S
C537 C539 1.367 . S
C538 C537 1.392 . S
C538 C540 1.420 . S
C538 C570 1.423 . S
C539 H525 0.930 . S
C539 C536 1.413 . S
C539 C537 1.367 . S
C540 N535 1.362 . S
C540 C538 1.420 . S
C540 C544 1.429 . S
H541 C546 0.930 . S
N542 Eu504 2.609 . S
N542 C544 1.377 . S
N542 C545 1.321 . S
C543 H529 0.930 . S
C543 C545 1.400 . S
C543 C546 1.386 . S
C544 C540 1.429 . S
C544 N542 1.377 . S
C544 C547 1.411 . S
C545 H527 0.930 . S
C545 N542 1.321 . S
C545 C543 1.400 . S
C546 H541 0.930 . S
C546 C543 1.386 . S
C546 C547 1.395 . S
C547 C544 1.411 . S
C547 C546 1.395 . S
C547 C569 1.420 . S
O548 Eu504 2.558 1_556 S
O548 C568 1.257 . S
O549 Eu504 2.612 1_556 S
O549 Eu515 2.380 . S
O549 C560 1.276 . S
O550 Eu515 2.432 . S
O550 C567 1.264 . S
O551 Eu504 2.339 . S
O551 C567 1.254 1_554 S
O552 Eu504 2.563 1_556 S
O552 C560 1.235 . S
O553 Eu504 2.419 1_556 S
O553 C568 1.249 . S
O554 Eu515 2.558 1_554 S
O554 C579 1.257 . S
O555 Eu504 2.380 . S
O555 Eu515 2.612 1_554 S
O555 C571 1.276 . S
O556 Eu504 2.432 . S
O556 C578 1.264 . S
O557 Eu515 2.339 . S
O557 C578 1.254 1_556 S
O558 Eu515 2.563 1_554 S
O558 C571 1.235 . S
O559 Eu515 2.419 1_554 S
O559 C579 1.249 . S
C560 O549 1.276 . S
C560 O552 1.235 . S
C561 C563 1.393 . S
C561 C565 1.395 . S
C561 C568 1.492 . S
C562 C563 1.392 . S
C562 C564 1.386 . S
C563 C561 1.393 . S
C563 C562 1.392 . S
C563 H580 0.930 . S
C564 C562 1.386 . S
C564 C566 1.395 . S
C564 H581 0.930 . S
C565 C561 1.395 . S
C565 C566 1.379 . S
C565 H582 0.930 . S
C566 C564 1.395 . S
C566 C565 1.379 . S
C566 H583 0.930 . S
C567 O550 1.264 . S
C567 O551 1.254 1_556 S
C568 Eu504 2.848 1_556 S
C568 O548 1.257 . S
C568 O553 1.249 . S
C568 C561 1.492 . S
C569 H534 0.931 . S
C569 C547 1.420 . S
C569 C570 1.351 . S
C570 H532 0.930 . S
C570 C538 1.423 . S
C570 C569 1.351 . S
C571 O555 1.276 . S
C571 O558 1.235 . S
C572 C573 1.393 . S
C572 C576 1.395 . S
C572 C579 1.492 . S
C573 C572 1.393 . S
C573 C574 1.392 . S
C573 H584 0.930 . S
C574 C573 1.392 . S
C574 C575 1.386 . S
C575 C574 1.386 . S
C575 C577 1.395 . S
C575 H585 0.930 . S
C576 C572 1.395 . S
C576 C577 1.379 . S
C576 H586 0.930 . S
C577 C575 1.395 . S
C577 C576 1.379 . S
C577 H587 0.930 . S
C578 O556 1.264 . S
C578 O557 1.254 1_554 S
C579 Eu515 2.848 1_554 S
C579 O554 1.257 . S
C579 O559 1.249 . S
C579 C572 1.492 . S
H580 C563 0.930 . S
H581 C564 0.930 . S
H582 C565 0.930 . S
H583 C566 0.930 . S
H584 C573 0.930 . S
H585 C575 0.930 . S
H586 C576 0.930 . S
H587 C577 0.930 . S
Eu588 N619 2.657 . S
Eu588 N626 2.609 . S
Eu588 O632 2.558 1_554 S
Eu588 O633 2.612 1_554 S
Eu588 O635 2.339 . S
Eu588 O636 2.563 1_554 S
Eu588 O637 2.419 1_554 S
Eu588 O639 2.380 . S
Eu588 O640 2.432 1_554 S
Eu588 C652 2.848 1_554 S
C589 C592 1.429 . S
C589 C593 1.411 . S
C589 N596 1.377 . S
C590 C592 1.420 . S
C590 C594 1.423 . S
C590 C602 1.392 . S
C591 C593 1.420 . S
C591 C594 1.351 . S
C591 H614 0.931 . S
C592 C589 1.429 . S
C592 C590 1.420 . S
C592 N600 1.362 . S
C593 C589 1.411 . S
C593 C591 1.420 . S
C593 C598 1.395 . S
C594 C590 1.423 . S
C594 C591 1.351 . S
C594 H606 0.930 . S
C595 C597 1.400 . S
C595 C598 1.386 . S
C595 H607 0.930 . S
N596 C589 1.377 . S
N596 C597 1.321 . S
N596 Eu599 2.609 . S
C597 C595 1.400 . S
C597 N596 1.321 . S
C597 H604 0.930 . S
C598 C593 1.395 . S
C598 C595 1.386 . S
C598 H617 0.930 . S
Eu599 N596 2.609 . S
Eu599 N600 2.657 . S
Eu599 O633 2.380 . S
Eu599 O634 2.432 1_556 S
Eu599 O638 2.558 1_556 S
Eu599 O639 2.612 1_556 S
Eu599 O641 2.339 . S
Eu599 O642 2.563 1_556 S
Eu599 O643 2.419 1_556 S
Eu599 C663 2.848 1_556 S
N600 C592 1.362 . S
N600 Eu599 2.657 . S
N600 C601 1.334 . S
C601 N600 1.334 . S
C601 C603 1.413 . S
C601 H608 0.929 . S
C602 C590 1.392 . S
C602 C603 1.367 . S
C602 H610 0.930 . S
C603 C601 1.413 . S
C603 C602 1.367 . S
C603 H605 0.930 . S
H604 C597 0.930 . S
H605 C603 0.930 . S
H606 C594 0.930 . S
H607 C595 0.930 . S
H608 C601 0.929 . S
H609 C623 0.930 . S
H610 C602 0.930 . S
H611 C629 0.930 . S
H612 C620 0.929 . S
H613 C627 0.930 . S
H614 C591 0.931 . S
H615 C621 0.930 . S
H616 C654 0.930 . S
H617 C598 0.930 . S
H618 C653 0.931 . S
N619 Eu588 2.657 . S
N619 C620 1.334 . S
N619 C624 1.362 . S
C620 H612 0.929 . S
C620 N619 1.334 . S
C620 C623 1.413 . S
C621 H615 0.930 . S
C621 C622 1.392 . S
C621 C623 1.367 . S
C622 C621 1.392 . S
C622 C624 1.420 . S
C622 C654 1.423 . S
C623 H609 0.930 . S
C623 C620 1.413 . S
C623 C621 1.367 . S
C624 N619 1.362 . S
C624 C622 1.420 . S
C624 C628 1.429 . S
H625 C630 0.930 . S
N626 Eu588 2.609 . S
N626 C628 1.377 . S
N626 C629 1.321 . S
C627 H613 0.930 . S
C627 C629 1.400 . S
C627 C630 1.386 . S
C628 C624 1.429 . S
C628 N626 1.377 . S
C628 C631 1.411 . S
C629 H611 0.930 . S
C629 N626 1.321 . S
C629 C627 1.400 . S
C630 H625 0.930 . S
C630 C627 1.386 . S
C630 C631 1.395 . S
C631 C628 1.411 . S
C631 C630 1.395 . S
C631 C653 1.420 . S
O632 Eu588 2.558 1_556 S
O632 C652 1.257 . S
O633 Eu588 2.612 1_556 S
O633 Eu599 2.380 . S
O633 C644 1.276 . S
O634 Eu599 2.432 1_554 S
O634 C651 1.264 . S
O635 Eu588 2.339 . S
O635 C651 1.254 . S
O636 Eu588 2.563 1_556 S
O636 C644 1.235 . S
O637 Eu588 2.419 1_556 S
O637 C652 1.249 . S
O638 Eu599 2.558 1_554 S
O638 C663 1.257 . S
O639 Eu588 2.380 . S
O639 Eu599 2.612 1_554 S
O639 C655 1.276 . S
O640 Eu588 2.432 1_556 S
O640 C662 1.264 . S
O641 Eu599 2.339 . S
O641 C662 1.254 . S
O642 Eu599 2.563 1_554 S
O642 C655 1.235 . S
O643 Eu599 2.419 1_554 S
O643 C663 1.249 . S
C644 O633 1.276 . S
C644 O636 1.235 . S
C645 C647 1.393 . S
C645 C649 1.395 . S
C645 C652 1.492 . S
C646 C647 1.392 . S
C646 C648 1.386 . S
C647 C645 1.393 . S
C647 C646 1.392 . S
C647 H664 0.930 . S
C648 C646 1.386 . S
C648 C650 1.395 . S
C648 H665 0.930 . S
C649 C645 1.395 . S
C649 C650 1.379 . S
C649 H666 0.930 . S
C650 C648 1.395 . S
C650 C649 1.379 . S
C650 H667 0.930 . S
C651 O634 1.264 . S
C651 O635 1.254 . S
C652 Eu588 2.848 1_556 S
C652 O632 1.257 . S
C652 O637 1.249 . S
C652 C645 1.492 . S
C653 H618 0.931 . S
C653 C631 1.420 . S
C653 C654 1.351 . S
C654 H616 0.930 . S
C654 C622 1.423 . S
C654 C653 1.351 . S
C655 O639 1.276 . S
C655 O642 1.235 . S
C656 C657 1.393 . S
C656 C660 1.395 . S
C656 C663 1.492 . S
C657 C656 1.393 . S
C657 C658 1.392 . S
C657 H668 0.930 . S
C658 C657 1.392 . S
C658 C659 1.386 . S
C659 C658 1.386 . S
C659 C661 1.395 . S
C659 H669 0.930 . S
C660 C656 1.395 . S
C660 C661 1.379 . S
C660 H670 0.930 . S
C661 C659 1.395 . S
C661 C660 1.379 . S
C661 H671 0.930 . S
C662 O640 1.264 . S
C662 O641 1.254 . S
C663 Eu599 2.848 1_554 S
C663 O638 1.257 . S
C663 O643 1.249 . S
C663 C656 1.492 . S
H664 C647 0.930 . S
H665 C648 0.930 . S
H666 C649 0.930 . S
H667 C650 0.930 . S
H668 C657 0.930 . S
H669 C659 0.930 . S
H670 C660 0.930 . S
H671 C661 0.930 . S
H672 C690 0.951 . S
H673 C692 0.951 . S
H674 C694 0.950 . S
H675 C695 0.950 . S
H676 C697 0.950 . S
H677 C700 0.950 . S
H678 C701 0.950 . S
H679 C703 0.950 . S
H680 C704 0.950 . S
H681 C705 0.951 . S
H682 C707 0.951 . S
H683 C709 0.950 . S
H684 C710 0.950 . S
H685 C712 0.950 . S
H686 C715 0.950 . S
H687 C716 0.950 1_554 S
H688 C718 0.950 1_554 S
H689 C719 0.950 . S
C690 H672 0.951 . S
C690 C691 1.366 . S
C690 C692 1.388 . S
C691 C690 1.366 . S
C691 C695 1.385 . S
C692 H673 0.951 . S
C692 C690 1.388 . S
C692 C693 1.366 . S
C693 C692 1.366 . S
C693 C694 1.414 . S
C693 C696 1.499 . S
C694 H674 0.950 . S
C694 C693 1.414 . S
C694 C695 1.374 . S
C695 H675 0.950 . S
C695 C691 1.385 . S
C695 C694 1.374 . S
C696 C693 1.499 . S
C696 C697 1.373 . S
C696 C698 1.389 . S
C697 H676 0.950 . S
C697 C696 1.373 . S
C697 C713 1.377 . S
C698 C696 1.389 . S
C698 C699 1.524 . S
C698 C712 1.377 . S
C699 C698 1.524 . S
C699 C700 1.397 . S
C699 C704 1.363 . S
C700 H677 0.950 . S
C700 C699 1.397 . S
C700 C701 1.334 . S
C701 H678 0.950 . S
C701 C700 1.334 . S
C701 C702 1.287 . S
C702 C701 1.287 . S
C702 C703 1.524 . S
C702 H721 0.913 . S
C703 H679 0.950 . S
C703 C702 1.524 . S
C703 C704 1.415 . S
C704 H680 0.950 . S
C704 C699 1.363 . S
C704 C703 1.415 . S
C705 H681 0.951 . S
C705 C706 1.366 . S
C705 C707 1.388 . S
C706 C705 1.366 . S
C706 C710 1.385 . S
C707 H682 0.951 . S
C707 C705 1.388 . S
C707 C708 1.366 . S
C708 C707 1.366 . S
C708 C709 1.414 . S
C708 C711 1.499 . S
C709 H683 0.950 . S
C709 C708 1.414 . S
C709 C710 1.374 . S
C710 H684 0.950 . S
C710 C706 1.385 . S
C710 C709 1.374 . S
C711 C708 1.499 . S
C711 C712 1.373 . S
C711 C713 1.389 . S
C712 H685 0.950 . S
C712 C698 1.377 . S
C712 C711 1.373 . S
C713 C697 1.377 . S
C713 C711 1.389 . S
C713 C714 1.524 . S
C714 C713 1.524 . S
C714 C715 1.397 . S
C714 C719 1.363 . S
C715 H686 0.950 . S
C715 C714 1.397 . S
C715 C716 1.334 . S
C716 H687 0.950 1_556 S
C716 C715 1.334 . S
C716 C717 1.287 1_556 S
C717 C716 1.287 1_554 S
C717 C718 1.524 1_554 S
C717 H720 0.999 . S
C718 H688 0.950 1_556 S
C718 C717 1.524 1_556 S
C718 C719 1.415 . S
C719 H689 0.950 . S
C719 C714 1.363 . S
C719 C718 1.415 . S
H720 C717 0.999 . S
H721 C702 0.913 . S
H722 C740 0.951 . S
H723 C742 0.951 . S
H724 C744 0.950 . S
H725 C745 0.950 . S
H726 C747 0.950 . S
H727 C750 0.950 . S
H728 C751 0.950 . S
H729 C753 0.950 . S
H730 C754 0.950 . S
H731 C755 0.951 . S
H732 C757 0.951 . S
H733 C759 0.950 . S
H734 C760 0.950 . S
H735 C762 0.950 . S
H736 C765 0.950 . S
H737 C766 0.950 . S
H738 C768 0.950 . S
H739 C769 0.950 . S
C740 H722 0.951 . S
C740 C741 1.366 . S
C740 C742 1.388 . S
C741 C740 1.366 . S
C741 C745 1.385 . S
C742 H723 0.951 . S
C742 C740 1.388 . S
C742 C743 1.366 . S
C743 C742 1.366 . S
C743 C744 1.414 . S
C743 C746 1.499 . S
C744 H724 0.950 . S
C744 C743 1.414 . S
C744 C745 1.374 . S
C745 H725 0.950 . S
C745 C741 1.385 . S
C745 C744 1.374 . S
C746 C743 1.499 . S
C746 C747 1.373 . S
C746 C748 1.389 . S
C747 H726 0.950 . S
C747 C746 1.373 . S
C747 C763 1.377 . S
C748 C746 1.389 . S
C748 C749 1.524 . S
C748 C762 1.377 . S
C749 C748 1.524 . S
C749 C750 1.397 . S
C749 C754 1.363 . S
C750 H727 0.950 . S
C750 C749 1.397 . S
C750 C751 1.334 . S
C751 H728 0.950 . S
C751 C750 1.334 . S
C751 C752 1.287 . S
C752 C751 1.287 . S
C752 C753 1.524 . S
C752 H771 0.913 . S
C753 H729 0.950 . S
C753 C752 1.524 . S
C753 C754 1.415 . S
C754 H730 0.950 . S
C754 C749 1.363 . S
C754 C753 1.415 . S
C755 H731 0.951 . S
C755 C756 1.366 . S
C755 C757 1.388 . S
C756 C755 1.366 . S
C756 C760 1.385 . S
C757 H732 0.951 . S
C757 C755 1.388 . S
C757 C758 1.366 . S
C758 C757 1.366 . S
C758 C759 1.414 . S
C758 C761 1.499 . S
C759 H733 0.950 . S
C759 C758 1.414 . S
C759 C760 1.374 . S
C760 H734 0.950 . S
C760 C756 1.385 . S
C760 C759 1.374 . S
C761 C758 1.499 . S
C761 C762 1.373 . S
C761 C763 1.389 . S
C762 H735 0.950 . S
C762 C748 1.377 . S
C762 C761 1.373 . S
C763 C747 1.377 . S
C763 C761 1.389 . S
C763 C764 1.524 . S
C764 C763 1.524 . S
C764 C765 1.397 . S
C764 C769 1.363 . S
C765 H736 0.950 . S
C765 C764 1.397 . S
C765 C766 1.334 . S
C766 H737 0.950 . S
C766 C765 1.334 . S
C766 C767 1.287 . S
C767 C766 1.287 . S
C767 C768 1.524 . S
C767 H770 0.999 . S
C768 H738 0.950 . S
C768 C767 1.524 . S
C768 C769 1.415 . S
C769 H739 0.950 . S
C769 C764 1.363 . S
C769 C768 1.415 . S
H770 C767 0.999 . S
H771 C752 0.913 . S
H772 C790 0.951 . S
H773 C792 0.951 . S
H774 C794 0.950 . S
H775 C795 0.950 . S
H776 C797 0.950 . S
H777 C800 0.950 . S
H778 C801 0.950 1_556 S
H779 C803 0.950 . S
H780 C804 0.950 . S
H781 C805 0.951 . S
H782 C807 0.951 . S
H783 C809 0.950 . S
H784 C810 0.950 . S
H785 C812 0.950 . S
H786 C815 0.950 . S
H787 C816 0.950 . S
H788 C818 0.950 . S
H789 C819 0.950 . S
C790 H772 0.951 . S
C790 C791 1.366 . S
C790 C792 1.388 . S
C791 C790 1.366 . S
C791 C795 1.385 . S
C792 H773 0.951 . S
C792 C790 1.388 . S
C792 C793 1.366 . S
C793 C792 1.366 . S
C793 C794 1.414 . S
C793 C796 1.499 . S
C794 H774 0.950 . S
C794 C793 1.414 . S
C794 C795 1.374 . S
C795 H775 0.950 . S
C795 C791 1.385 . S
C795 C794 1.374 . S
C796 C793 1.499 . S
C796 C797 1.373 . S
C796 C798 1.389 . S
C797 H776 0.950 . S
C797 C796 1.373 . S
C797 C813 1.377 . S
C798 C796 1.389 . S
C798 C799 1.524 . S
C798 C812 1.377 . S
C799 C798 1.524 . S
C799 C800 1.397 . S
C799 C804 1.363 . S
C800 H777 0.950 . S
C800 C799 1.397 . S
C800 C801 1.334 . S
C801 H778 0.950 1_554 S
C801 C800 1.334 . S
C801 C802 1.287 . S
C802 C801 1.287 . S
C802 C803 1.524 . S
C802 H821 0.913 1_554 S
C803 H779 0.950 . S
C803 C802 1.524 . S
C803 C804 1.415 . S
C804 H780 0.950 . S
C804 C799 1.363 . S
C804 C803 1.415 . S
C805 H781 0.951 . S
C805 C806 1.366 . S
C805 C807 1.388 . S
C806 C805 1.366 . S
C806 C810 1.385 . S
C807 H782 0.951 . S
C807 C805 1.388 . S
C807 C808 1.366 . S
C808 C807 1.366 . S
C808 C809 1.414 . S
C808 C811 1.499 . S
C809 H783 0.950 . S
C809 C808 1.414 . S
C809 C810 1.374 . S
C810 H784 0.950 . S
C810 C806 1.385 . S
C810 C809 1.374 . S
C811 C808 1.499 . S
C811 C812 1.373 . S
C811 C813 1.389 . S
C812 H785 0.950 . S
C812 C798 1.377 . S
C812 C811 1.373 . S
C813 C797 1.377 . S
C813 C811 1.389 . S
C813 C814 1.524 . S
C814 C813 1.524 . S
C814 C815 1.397 . S
C814 C819 1.363 . S
C815 H786 0.950 . S
C815 C814 1.397 . S
C815 C816 1.334 . S
C816 H787 0.950 . S
C816 C815 1.334 . S
C816 C817 1.287 . S
C817 C816 1.287 . S
C817 C818 1.524 . S
C817 H820 0.999 . S
C818 H788 0.950 . S
C818 C817 1.524 . S
C818 C819 1.415 . S
C819 H789 0.950 . S
C819 C814 1.363 . S
C819 C818 1.415 . S
H820 C817 0.999 . S
H821 C802 0.913 1_556 S
H822 C840 0.951 . S
H823 C842 0.951 . S
H824 C844 0.950 . S
H825 C845 0.950 . S
H826 C847 0.950 . S
H827 C850 0.950 . S
H828 C851 0.950 . S
H829 C853 0.950 1_556 S
H830 C854 0.950 . S
H831 C855 0.951 . S
H832 C857 0.951 . S
H833 C859 0.950 . S
H834 C860 0.950 . S
H835 C862 0.950 . S
H836 C865 0.950 . S
H837 C866 0.950 . S
H838 C868 0.950 . S
H839 C869 0.950 . S
C840 H822 0.951 . S
C840 C841 1.366 . S
C840 C842 1.388 . S
C841 C840 1.366 . S
C841 C845 1.385 . S
C842 H823 0.951 . S
C842 C840 1.388 . S
C842 C843 1.366 . S
C843 C842 1.366 . S
C843 C844 1.414 . S
C843 C846 1.499 . S
C844 H824 0.950 . S
C844 C843 1.414 . S
C844 C845 1.374 . S
C845 H825 0.950 . S
C845 C841 1.385 . S
C845 C844 1.374 . S
C846 C843 1.499 . S
C846 C847 1.373 . S
C846 C848 1.389 . S
C847 H826 0.950 . S
C847 C846 1.373 . S
C847 C863 1.377 . S
C848 C846 1.389 . S
C848 C849 1.524 . S
C848 C862 1.377 . S
C849 C848 1.524 . S
C849 C850 1.397 . S
C849 C854 1.363 . S
C850 H827 0.950 . S
C850 C849 1.397 . S
C850 C851 1.334 . S
C851 H828 0.950 . S
C851 C850 1.334 . S
C851 C852 1.287 1_554 S
C852 C851 1.287 1_556 S
C852 C853 1.524 1_556 S
C852 H871 0.913 . S
C853 H829 0.950 1_554 S
C853 C852 1.524 1_554 S
C853 C854 1.415 . S
C854 H830 0.950 . S
C854 C849 1.363 . S
C854 C853 1.415 . S
C855 H831 0.951 . S
C855 C856 1.366 . S
C855 C857 1.388 . S
C856 C855 1.366 . S
C856 C860 1.385 . S
C857 H832 0.951 . S
C857 C855 1.388 . S
C857 C858 1.366 . S
C858 C857 1.366 . S
C858 C859 1.414 . S
C858 C861 1.499 . S
C859 H833 0.950 . S
C859 C858 1.414 . S
C859 C860 1.374 . S
C860 H834 0.950 . S
C860 C856 1.385 . S
C860 C859 1.374 . S
C861 C858 1.499 . S
C861 C862 1.373 . S
C861 C863 1.389 . S
C862 H835 0.950 . S
C862 C848 1.377 . S
C862 C861 1.373 . S
C863 C847 1.377 . S
C863 C861 1.389 . S
C863 C864 1.524 . S
C864 C863 1.524 . S
C864 C865 1.397 . S
C864 C869 1.363 . S
C865 H836 0.950 . S
C865 C864 1.397 . S
C865 C866 1.334 . S
C866 H837 0.950 . S
C866 C865 1.334 . S
C866 C867 1.287 . S
C867 C866 1.287 . S
C867 C868 1.524 . S
C867 H870 0.999 . S
C868 H838 0.950 . S
C868 C867 1.524 . S
C868 C869 1.415 . S
C869 H839 0.950 . S
C869 C864 1.363 . S
C869 C868 1.415 . S
H870 C867 0.999 . S
H871 C852 0.913 . S
H872 C890 0.951 . S
H873 C892 0.951 . S
H874 C894 0.950 . S
H875 C895 0.950 . S
H876 C897 0.950 . S
H877 C900 0.950 . S
H878 C901 0.950 . S
H879 C903 0.950 . S
H880 C904 0.950 . S
H881 C905 0.951 . S
H882 C907 0.951 . S
H883 C909 0.950 . S
H884 C910 0.950 . S
H885 C912 0.950 . S
H886 C915 0.950 . S
H887 C916 0.950 . S
H888 C918 0.950 . S
H889 C919 0.950 . S
C890 H872 0.951 . S
C890 C891 1.366 . S
C890 C892 1.388 . S
C891 C890 1.366 . S
C891 C895 1.385 . S
C892 H873 0.951 . S
C892 C890 1.388 . S
C892 C893 1.366 . S
C893 C892 1.366 . S
C893 C894 1.414 . S
C893 C896 1.499 . S
C894 H874 0.950 . S
C894 C893 1.414 . S
C894 C895 1.374 . S
C895 H875 0.950 . S
C895 C891 1.385 . S
C895 C894 1.374 . S
C896 C893 1.499 . S
C896 C897 1.373 . S
C896 C898 1.389 . S
C897 H876 0.950 . S
C897 C896 1.373 . S
C897 C913 1.377 1_565 S
C898 C896 1.389 . S
C898 C899 1.524 . S
C898 C912 1.377 1_565 S
C899 C898 1.524 . S
C899 C900 1.397 . S
C899 C904 1.363 . S
C900 H877 0.950 . S
C900 C899 1.397 . S
C900 C901 1.334 . S
C901 H878 0.950 . S
C901 C900 1.334 . S
C901 C902 1.287 . S
C902 C901 1.287 . S
C902 C903 1.524 . S
C902 H921 0.913 . S
C903 H879 0.950 . S
C903 C902 1.524 . S
C903 C904 1.415 . S
C904 H880 0.950 . S
C904 C899 1.363 . S
C904 C903 1.415 . S
C905 H881 0.951 . S
C905 C906 1.366 . S
C905 C907 1.388 . S
C906 C905 1.366 . S
C906 C910 1.385 . S
C907 H882 0.951 . S
C907 C905 1.388 . S
C907 C908 1.366 . S
C908 C907 1.366 . S
C908 C909 1.414 . S
C908 C911 1.499 . S
C909 H883 0.950 . S
C909 C908 1.414 . S
C909 C910 1.374 . S
C910 H884 0.950 . S
C910 C906 1.385 . S
C910 C909 1.374 . S
C911 C908 1.499 . S
C911 C912 1.373 . S
C911 C913 1.389 . S
C912 H885 0.950 . S
C912 C898 1.377 1_545 S
C912 C911 1.373 . S
C913 C897 1.377 1_545 S
C913 C911 1.389 . S
C913 C914 1.524 . S
C914 C913 1.524 . S
C914 C915 1.397 . S
C914 C919 1.363 . S
C915 H886 0.950 . S
C915 C914 1.397 . S
C915 C916 1.334 . S
C916 H887 0.950 . S
C916 C915 1.334 . S
C916 C917 1.287 . S
C917 C916 1.287 . S
C917 C918 1.524 . S
C917 H920 0.999 . S
C918 H888 0.950 . S
C918 C917 1.524 . S
C918 C919 1.415 . S
C919 H889 0.950 . S
C919 C914 1.363 . S
C919 C918 1.415 . S
H920 C917 0.999 . S
H921 C902 0.913 . S
H922 C940 0.951 . S
H923 C942 0.951 . S
H924 C944 0.950 . S
H925 C945 0.950 . S
H926 C947 0.950 . S
H927 C950 0.950 . S
H928 C951 0.950 . S
H929 C953 0.950 . S
H930 C954 0.950 . S
H931 C955 0.951 . S
H932 C957 0.951 . S
H933 C959 0.950 . S
H934 C960 0.950 . S
H935 C962 0.950 . S
H936 C965 0.950 . S
H937 C966 0.950 . S
H938 C968 0.950 . S
H939 C969 0.950 . S
C940 H922 0.951 . S
C940 C941 1.366 . S
C940 C942 1.388 . S
C941 C940 1.366 . S
C941 C945 1.385 . S
C942 H923 0.951 . S
C942 C940 1.388 . S
C942 C943 1.366 . S
C943 C942 1.366 . S
C943 C944 1.414 . S
C943 C946 1.499 . S
C944 H924 0.950 . S
C944 C943 1.414 . S
C944 C945 1.374 . S
C945 H925 0.950 . S
C945 C941 1.385 . S
C945 C944 1.374 . S
C946 C943 1.499 . S
C946 C947 1.373 . S
C946 C948 1.389 . S
C947 H926 0.950 . S
C947 C946 1.373 . S
C947 C963 1.377 . S
C948 C946 1.389 . S
C948 C949 1.524 . S
C948 C962 1.377 . S
C949 C948 1.524 . S
C949 C950 1.397 . S
C949 C954 1.363 . S
C950 H927 0.950 . S
C950 C949 1.397 . S
C950 C951 1.334 . S
C951 H928 0.950 . S
C951 C950 1.334 . S
C951 C952 1.287 . S
C952 C951 1.287 . S
C952 C953 1.524 . S
C952 H971 0.913 . S
C953 H929 0.950 . S
C953 C952 1.524 . S
C953 C954 1.415 . S
C954 H930 0.950 . S
C954 C949 1.363 . S
C954 C953 1.415 . S
C955 H931 0.951 . S
C955 C956 1.366 . S
C955 C957 1.388 . S
C956 C955 1.366 . S
C956 C960 1.385 . S
C957 H932 0.951 . S
C957 C955 1.388 . S
C957 C958 1.366 . S
C958 C957 1.366 . S
C958 C959 1.414 . S
C958 C961 1.499 . S
C959 H933 0.950 . S
C959 C958 1.414 . S
C959 C960 1.374 . S
C960 H934 0.950 . S
C960 C956 1.385 . S
C960 C959 1.374 . S
C961 C958 1.499 . S
C961 C962 1.373 . S
C961 C963 1.389 . S
C962 H935 0.950 . S
C962 C948 1.377 . S
C962 C961 1.373 . S
C963 C947 1.377 . S
C963 C961 1.389 . S
C963 C964 1.524 . S
C964 C963 1.524 . S
C964 C965 1.397 . S
C964 C969 1.363 . S
C965 H936 0.950 . S
C965 C964 1.397 . S
C965 C966 1.334 . S
C966 H937 0.950 . S
C966 C965 1.334 . S
C966 C967 1.287 . S
C967 C966 1.287 . S
C967 C968 1.524 . S
C967 H970 0.999 . S
C968 H938 0.950 . S
C968 C967 1.524 . S
C968 C969 1.415 . S
C969 H939 0.950 . S
C969 C964 1.363 . S
C969 C968 1.415 . S
H970 C967 0.999 . S
H971 C952 0.913 . S
H972 C990 0.951 . S
H973 C992 0.951 . S
H974 C994 0.950 . S
H975 C995 0.950 . S
H976 C997 0.950 . S
H977 C1000 0.950 . S
H978 C1001 0.950 . S
H979 C1003 0.950 . S
H980 C1004 0.950 . S
H981 C1005 0.951 . S
H982 C1007 0.951 . S
H983 C1009 0.950 . S
H984 C1010 0.950 . S
H985 C1012 0.950 . S
H986 C1015 0.950 . S
H987 C1016 0.950 . S
H988 C1018 0.950 . S
H989 C1019 0.950 . S
C990 H972 0.951 . S
C990 C991 1.366 . S
C990 C992 1.388 . S
C991 C990 1.366 . S
C991 C995 1.385 . S
C992 H973 0.951 . S
C992 C990 1.388 . S
C992 C993 1.366 . S
C993 C992 1.366 . S
C993 C994 1.414 . S
C993 C996 1.499 . S
C994 H974 0.950 . S
C994 C993 1.414 . S
C994 C995 1.374 . S
C995 H975 0.950 . S
C995 C991 1.385 . S
C995 C994 1.374 . S
C996 C993 1.499 . S
C996 C997 1.373 . S
C996 C998 1.389 . S
C997 H976 0.950 . S
C997 C996 1.373 . S
C997 C1013 1.377 1_565 S
C998 C996 1.389 . S
C998 C999 1.524 . S
C998 C1012 1.377 1_565 S
C999 C998 1.524 . S
C999 C1000 1.397 . S
C999 C1004 1.363 . S
C1000 H977 0.950 . S
C1000 C999 1.397 . S
C1000 C1001 1.334 . S
C1001 H978 0.950 . S
C1001 C1000 1.334 . S
C1001 C1002 1.287 . S
C1002 C1001 1.287 . S
C1002 C1003 1.524 . S
C1002 H1021 0.913 . S
C1003 H979 0.950 . S
C1003 C1002 1.524 . S
C1003 C1004 1.415 . S
C1004 H980 0.950 . S
C1004 C999 1.363 . S
C1004 C1003 1.415 . S
C1005 H981 0.951 . S
C1005 C1006 1.366 . S
C1005 C1007 1.388 . S
C1006 C1005 1.366 . S
C1006 C1010 1.385 . S
C1007 H982 0.951 . S
C1007 C1005 1.388 . S
C1007 C1008 1.366 . S
C1008 C1007 1.366 . S
C1008 C1009 1.414 . S
C1008 C1011 1.499 . S
C1009 H983 0.950 . S
C1009 C1008 1.414 . S
C1009 C1010 1.374 . S
C1010 H984 0.950 . S
C1010 C1006 1.385 . S
C1010 C1009 1.374 . S
C1011 C1008 1.499 . S
C1011 C1012 1.373 . S
C1011 C1013 1.389 . S
C1012 H985 0.950 . S
C1012 C998 1.377 1_545 S
C1012 C1011 1.373 . S
C1013 C997 1.377 1_545 S
C1013 C1011 1.389 . S
C1013 C1014 1.524 . S
C1014 C1013 1.524 . S
C1014 C1015 1.397 . S
C1014 C1019 1.363 . S
C1015 H986 0.950 . S
C1015 C1014 1.397 . S
C1015 C1016 1.334 . S
C1016 H987 0.950 . S
C1016 C1015 1.334 . S
C1016 C1017 1.287 . S
C1017 C1016 1.287 . S
C1017 C1018 1.524 . S
C1017 H1020 0.999 . S
C1018 H988 0.950 . S
C1018 C1017 1.524 . S
C1018 C1019 1.415 . S
C1019 H989 0.950 . S
C1019 C1014 1.363 . S
C1019 C1018 1.415 . S
H1020 C1017 0.999 . S
H1021 C1002 0.913 . S
H1022 C1040 0.951 . S
H1023 C1042 0.951 . S
H1024 C1044 0.950 . S
H1025 C1045 0.950 . S
H1026 C1047 0.950 . S
H1027 C1050 0.950 . S
H1028 C1051 0.950 . S
H1029 C1053 0.950 . S
H1030 C1054 0.950 . S
H1031 C1055 0.951 . S
H1032 C1057 0.951 . S
H1033 C1059 0.950 . S
H1034 C1060 0.950 . S
H1035 C1062 0.950 . S
H1036 C1065 0.950 . S
H1037 C1066 0.950 . S
H1038 C1068 0.950 . S
H1039 C1069 0.950 . S
C1040 H1022 0.951 . S
C1040 C1041 1.366 . S
C1040 C1042 1.388 . S
C1041 C1040 1.366 . S
C1041 C1045 1.385 . S
C1042 H1023 0.951 . S
C1042 C1040 1.388 . S
C1042 C1043 1.366 . S
C1043 C1042 1.366 . S
C1043 C1044 1.414 . S
C1043 C1046 1.499 . S
C1044 H1024 0.950 . S
C1044 C1043 1.414 . S
C1044 C1045 1.374 . S
C1045 H1025 0.950 . S
C1045 C1041 1.385 . S
C1045 C1044 1.374 . S
C1046 C1043 1.499 . S
C1046 C1047 1.373 . S
C1046 C1048 1.389 . S
C1047 H1026 0.950 . S
C1047 C1046 1.373 . S
C1047 C1063 1.377 . S
C1048 C1046 1.389 . S
C1048 C1049 1.524 . S
C1048 C1062 1.377 . S
C1049 C1048 1.524 . S
C1049 C1050 1.397 . S
C1049 C1054 1.363 . S
C1050 H1027 0.950 . S
C1050 C1049 1.397 . S
C1050 C1051 1.334 . S
C1051 H1028 0.950 . S
C1051 C1050 1.334 . S
C1051 C1052 1.287 . S
C1052 C1051 1.287 . S
C1052 C1053 1.524 . S
C1052 H1071 0.913 . S
C1053 H1029 0.950 . S
C1053 C1052 1.524 . S
C1053 C1054 1.415 . S
C1054 H1030 0.950 . S
C1054 C1049 1.363 . S
C1054 C1053 1.415 . S
C1055 H1031 0.951 . S
C1055 C1056 1.366 . S
C1055 C1057 1.388 . S
C1056 C1055 1.366 . S
C1056 C1060 1.385 . S
C1057 H1032 0.951 . S
C1057 C1055 1.388 . S
C1057 C1058 1.366 . S
C1058 C1057 1.366 . S
C1058 C1059 1.414 . S
C1058 C1061 1.499 . S
C1059 H1033 0.950 . S
C1059 C1058 1.414 . S
C1059 C1060 1.374 . S
C1060 H1034 0.950 . S
C1060 C1056 1.385 . S
C1060 C1059 1.374 . S
C1061 C1058 1.499 . S
C1061 C1062 1.373 . S
C1061 C1063 1.389 . S
C1062 H1035 0.950 . S
C1062 C1048 1.377 . S
C1062 C1061 1.373 . S
C1063 C1047 1.377 . S
C1063 C1061 1.389 . S
C1063 C1064 1.524 . S
C1064 C1063 1.524 . S
C1064 C1065 1.397 . S
C1064 C1069 1.363 . S
C1065 H1036 0.950 . S
C1065 C1064 1.397 . S
C1065 C1066 1.334 . S
C1066 H1037 0.950 . S
C1066 C1065 1.334 . S
C1066 C1067 1.287 . S
C1067 C1066 1.287 . S
C1067 C1068 1.524 . S
C1067 H1070 0.999 . S
C1068 H1038 0.950 . S
C1068 C1067 1.524 . S
C1068 C1069 1.415 . S
C1069 H1039 0.950 . S
C1069 C1064 1.363 . S
C1069 C1068 1.415 . S
H1070 C1067 0.999 . S
H1071 C1052 0.913 . S
H1072 C1090 0.951 . S
H1073 C1092 0.951 . S
H1074 C1094 0.950 . S
H1075 C1095 0.950 . S
H1076 C1097 0.950 . S
H1077 C1100 0.950 . S
H1078 C1101 0.950 . S
H1079 C1103 0.950 . S
H1080 C1104 0.950 . S
H1081 C1105 0.951 . S
H1082 C1107 0.951 . S
H1083 C1109 0.950 1_556 S
H1084 C1110 0.950 1_556 S
H1085 C1112 0.950 . S
H1086 C1115 0.950 . S
H1087 C1116 0.950 . S
H1088 C1118 0.950 . S
H1089 C1119 0.950 . S
C1090 H1072 0.951 . S
C1090 C1091 1.366 1_556 S
C1090 C1092 1.388 . S
C1091 C1090 1.366 1_554 S
C1091 C1095 1.385 . S
C1092 H1073 0.951 . S
C1092 C1090 1.388 . S
C1092 C1093 1.366 1_556 S
C1093 C1092 1.366 1_554 S
C1093 C1094 1.414 . S
C1093 C1096 1.499 . S
C1094 H1074 0.950 . S
C1094 C1093 1.414 . S
C1094 C1095 1.374 . S
C1095 H1075 0.950 . S
C1095 C1091 1.385 . S
C1095 C1094 1.374 . S
C1096 C1093 1.499 . S
C1096 C1097 1.373 . S
C1096 C1098 1.389 1_554 S
C1097 H1076 0.950 . S
C1097 C1096 1.373 . S
C1097 C1113 1.377 . S
C1098 C1096 1.389 1_556 S
C1098 C1099 1.524 . S
C1098 C1112 1.377 . S
C1099 C1098 1.524 . S
C1099 C1100 1.397 . S
C1099 C1104 1.363 . S
C1100 H1077 0.950 . S
C1100 C1099 1.397 . S
C1100 C1101 1.334 . S
C1101 H1078 0.950 . S
C1101 C1100 1.334 . S
C1101 C1102 1.287 . S
C1102 C1101 1.287 . S
C1102 C1103 1.524 . S
C1102 H1121 0.913 . S
C1103 H1079 0.950 . S
C1103 C1102 1.524 . S
C1103 C1104 1.415 . S
C1104 H1080 0.950 . S
C1104 C1099 1.363 . S
C1104 C1103 1.415 . S
C1105 H1081 0.951 . S
C1105 C1106 1.366 . S
C1105 C1107 1.388 . S
C1106 C1105 1.366 . S
C1106 C1110 1.385 . S
C1107 H1082 0.951 . S
C1107 C1105 1.388 . S
C1107 C1108 1.366 . S
C1108 C1107 1.366 . S
C1108 C1109 1.414 . S
C1108 C1111 1.499 . S
C1109 H1083 0.950 1_554 S
C1109 C1108 1.414 . S
C1109 C1110 1.374 . S
C1110 H1084 0.950 1_554 S
C1110 C1106 1.385 . S
C1110 C1109 1.374 . S
C1111 C1108 1.499 . S
C1111 C1112 1.373 1_554 S
C1111 C1113 1.389 . S
C1112 H1085 0.950 . S
C1112 C1098 1.377 . S
C1112 C1111 1.373 1_556 S
C1113 C1097 1.377 . S
C1113 C1111 1.389 . S
C1113 C1114 1.524 . S
C1114 C1113 1.524 . S
C1114 C1115 1.397 . S
C1114 C1119 1.363 . S
C1115 H1086 0.950 . S
C1115 C1114 1.397 . S
C1115 C1116 1.334 . S
C1116 H1087 0.950 . S
C1116 C1115 1.334 . S
C1116 C1117 1.287 . S
C1117 C1116 1.287 . S
C1117 C1118 1.524 . S
C1117 H1120 0.999 . S
C1118 H1088 0.950 . S
C1118 C1117 1.524 . S
C1118 C1119 1.415 . S
C1119 H1089 0.950 . S
C1119 C1114 1.363 . S
C1119 C1118 1.415 . S
H1120 C1117 0.999 . S
H1121 C1102 0.913 . S
H1122 C1140 0.951 . S
H1123 C1142 0.951 . S
H1124 C1144 0.950 . S
H1125 C1145 0.950 . S
H1126 C1147 0.950 . S
H1127 C1150 0.950 . S
H1128 C1151 0.950 . S
H1129 C1153 0.950 . S
H1130 C1154 0.950 . S
H1131 C1155 0.951 . S
H1132 C1157 0.951 . S
H1133 C1159 0.950 . S
H1134 C1160 0.950 . S
H1135 C1162 0.950 . S
H1136 C1165 0.950 . S
H1137 C1166 0.950 . S
H1138 C1168 0.950 . S
H1139 C1169 0.950 . S
C1140 H1122 0.951 . S
C1140 C1141 1.366 . S
C1140 C1142 1.388 . S
C1141 C1140 1.366 . S
C1141 C1145 1.385 1_556 S
C1142 H1123 0.951 . S
C1142 C1140 1.388 . S
C1142 C1143 1.366 . S
C1143 C1142 1.366 . S
C1143 C1144 1.414 1_556 S
C1143 C1146 1.499 . S
C1144 H1124 0.950 . S
C1144 C1143 1.414 1_554 S
C1144 C1145 1.374 . S
C1145 H1125 0.950 . S
C1145 C1141 1.385 1_554 S
C1145 C1144 1.374 . S
C1146 C1143 1.499 . S
C1146 C1147 1.373 1_556 S
C1146 C1148 1.389 . S
C1147 H1126 0.950 . S
C1147 C1146 1.373 1_554 S
C1147 C1163 1.377 1_565 S
C1148 C1146 1.389 . S
C1148 C1149 1.524 . S
C1148 C1162 1.377 1_565 S
C1149 C1148 1.524 . S
C1149 C1150 1.397 . S
C1149 C1154 1.363 . S
C1150 H1127 0.950 . S
C1150 C1149 1.397 . S
C1150 C1151 1.334 . S
C1151 H1128 0.950 . S
C1151 C1150 1.334 . S
C1151 C1152 1.287 . S
C1152 C1151 1.287 . S
C1152 C1153 1.524 . S
C1152 H1171 0.913 . S
C1153 H1129 0.950 . S
C1153 C1152 1.524 . S
C1153 C1154 1.415 . S
C1154 H1130 0.950 . S
C1154 C1149 1.363 . S
C1154 C1153 1.415 . S
C1155 H1131 0.951 . S
C1155 C1156 1.366 . S
C1155 C1157 1.388 . S
C1156 C1155 1.366 . S
C1156 C1160 1.385 1_554 S
C1157 H1132 0.951 . S
C1157 C1155 1.388 . S
C1157 C1158 1.366 . S
C1158 C1157 1.366 . S
C1158 C1159 1.414 1_554 S
C1158 C1161 1.499 . S
C1159 H1133 0.950 . S
C1159 C1158 1.414 1_556 S
C1159 C1160 1.374 . S
C1160 H1134 0.950 . S
C1160 C1156 1.385 1_556 S
C1160 C1159 1.374 . S
C1161 C1158 1.499 . S
C1161 C1162 1.373 1_554 S
C1161 C1163 1.389 . S
C1162 H1135 0.950 . S
C1162 C1148 1.377 1_545 S
C1162 C1161 1.373 1_556 S
C1163 C1147 1.377 1_545 S
C1163 C1161 1.389 . S
C1163 C1164 1.524 . S
C1164 C1163 1.524 . S
C1164 C1165 1.397 . S
C1164 C1169 1.363 . S
C1165 H1136 0.950 . S
C1165 C1164 1.397 . S
C1165 C1166 1.334 . S
C1166 H1137 0.950 . S
C1166 C1165 1.334 . S
C1166 C1167 1.287 . S
C1167 C1166 1.287 . S
C1167 C1168 1.524 . S
C1167 H1170 0.999 . S
C1168 H1138 0.950 . S
C1168 C1167 1.524 . S
C1168 C1169 1.415 . S
C1169 H1139 0.950 . S
C1169 C1164 1.363 . S
C1169 C1168 1.415 . S
H1170 C1167 0.999 . S
H1171 C1152 0.913 . S
H1172 C1190 0.951 . S
H1173 C1192 0.951 . S
H1174 C1194 0.950 . S
H1175 C1195 0.950 . S
H1176 C1197 0.950 . S
H1177 C1200 0.950 . S
H1178 C1201 0.950 . S
H1179 C1203 0.950 . S
H1180 C1204 0.950 . S
H1181 C1205 0.951 . S
H1182 C1207 0.951 . S
H1183 C1209 0.950 . S
H1184 C1210 0.950 . S
H1185 C1212 0.950 . S
H1186 C1215 0.950 . S
H1187 C1216 0.950 1_556 S
H1188 C1218 0.950 . S
H1189 C1219 0.950 . S
C1190 H1172 0.951 . S
C1190 C1191 1.366 . S
C1190 C1192 1.388 . S
C1191 C1190 1.366 . S
C1191 C1195 1.385 1_556 S
C1192 H1173 0.951 . S
C1192 C1190 1.388 . S
C1192 C1193 1.363 1_556 S
C1193 C1192 1.363 1_554 S
C1193 C1194 1.417 . S
C1193 C1196 1.498 . S
C1194 H1174 0.950 . S
C1194 C1193 1.417 . S
C1194 C1195 1.374 . S
C1195 H1175 0.950 . S
C1195 C1191 1.385 1_554 S
C1195 C1194 1.374 . S
C1196 C1193 1.498 . S
C1196 C1197 1.373 . S
C1196 C1198 1.389 1_554 S
C1197 H1176 0.950 . S
C1197 C1196 1.373 . S
C1197 C1213 1.377 . S
C1198 C1196 1.389 1_556 S
C1198 C1199 1.524 . S
C1198 C1212 1.377 . S
C1199 C1198 1.524 . S
C1199 C1200 1.397 1_556 S
C1199 C1204 1.363 . S
C1200 H1177 0.950 . S
C1200 C1199 1.397 1_554 S
C1200 C1201 1.334 . S
C1201 H1178 0.950 . S
C1201 C1200 1.334 . S
C1201 C1202 1.287 1_554 S
C1202 C1201 1.287 1_556 S
C1202 C1203 1.524 . S
C1202 H1221 0.913 . S
C1203 H1179 0.950 . S
C1203 C1202 1.524 . S
C1203 C1204 1.415 . S
C1204 H1180 0.950 . S
C1204 C1199 1.363 . S
C1204 C1203 1.415 . S
C1205 H1181 0.951 . S
C1205 C1206 1.366 . S
C1205 C1207 1.388 . S
C1206 C1205 1.366 . S
C1206 C1210 1.385 1_554 S
C1207 H1182 0.951 . S
C1207 C1205 1.388 . S
C1207 C1208 1.366 . S
C1208 C1207 1.366 . S
C1208 C1209 1.414 1_554 S
C1208 C1211 1.499 . S
C1209 H1183 0.950 . S
C1209 C1208 1.414 1_556 S
C1209 C1210 1.374 . S
C1210 H1184 0.950 . S
C1210 C1206 1.385 1_556 S
C1210 C1209 1.374 . S
C1211 C1208 1.499 . S
C1211 C1212 1.373 1_554 S
C1211 C1213 1.389 . S
C1212 H1185 0.950 . S
C1212 C1198 1.377 . S
C1212 C1211 1.373 1_556 S
C1213 C1197 1.377 . S
C1213 C1211 1.389 . S
C1213 C1214 1.524 . S
C1214 C1213 1.524 . S
C1214 C1215 1.397 1_554 S
C1214 C1219 1.363 . S
C1215 H1186 0.950 . S
C1215 C1214 1.397 1_556 S
C1215 C1216 1.334 1_556 S
C1216 H1187 0.950 1_554 S
C1216 C1215 1.334 1_554 S
C1216 C1217 1.287 . S
C1217 C1216 1.287 . S
C1217 C1218 1.524 . S
C1217 H1220 0.999 . S
C1218 H1188 0.950 . S
C1218 C1217 1.524 . S
C1218 C1219 1.415 . S
C1219 H1189 0.950 . S
C1219 C1214 1.363 . S
C1219 C1218 1.415 . S
H1220 C1217 0.999 . S
H1221 C1202 0.913 . S
H1222 C1240 0.951 . S
H1223 C1242 0.951 . S
H1224 C1244 0.950 . S
H1225 C1245 0.950 . S
H1226 C1247 0.950 . S
H1227 C1250 0.950 1_556 S
H1228 C1251 0.950 . S
H1229 C1253 0.950 . S
H1230 C1254 0.950 . S
H1231 C1255 0.951 . S
H1232 C1257 0.951 . S
H1233 C1259 0.950 . S
H1234 C1260 0.950 . S
H1235 C1262 0.950 . S
H1236 C1265 0.950 . S
H1237 C1266 0.950 . S
H1238 C1268 0.950 . S
H1239 C1269 0.950 . S
C1240 H1222 0.951 . S
C1240 C1241 1.366 1_554 S
C1240 C1242 1.388 . S
C1241 C1240 1.366 1_556 S
C1241 C1245 1.385 . S
C1242 H1223 0.951 . S
C1242 C1240 1.388 . S
C1242 C1243 1.366 1_554 S
C1243 C1242 1.366 1_556 S
C1243 C1244 1.414 . S
C1243 C1246 1.499 . S
C1244 H1224 0.950 . S
C1244 C1243 1.414 . S
C1244 C1245 1.374 . S
C1245 H1225 0.950 . S
C1245 C1241 1.385 . S
C1245 C1244 1.374 . S
C1246 C1243 1.499 . S
C1246 C1247 1.373 . S
C1246 C1248 1.389 1_556 S
C1247 H1226 0.950 . S
C1247 C1246 1.373 . S
C1247 C1263 1.377 1_545 S
C1248 C1246 1.389 1_554 S
C1248 C1249 1.524 . S
C1248 C1262 1.377 1_545 S
C1249 C1248 1.524 . S
C1249 C1250 1.397 . S
C1249 C1254 1.363 . S
C1250 H1227 0.950 1_554 S
C1250 C1249 1.397 . S
C1250 C1251 1.334 . S
C1251 H1228 0.950 . S
C1251 C1250 1.334 . S
C1251 C1252 1.287 . S
C1252 C1251 1.287 . S
C1252 C1253 1.524 . S
C1252 H1271 0.913 . S
C1253 H1229 0.950 . S
C1253 C1252 1.524 . S
C1253 C1254 1.415 . S
C1254 H1230 0.950 . S
C1254 C1249 1.363 . S
C1254 C1253 1.415 . S
C1255 H1231 0.951 . S
C1255 C1256 1.366 . S
C1255 C1257 1.388 . S
C1256 C1255 1.366 . S
C1256 C1260 1.385 1_556 S
C1257 H1232 0.951 . S
C1257 C1255 1.388 . S
C1257 C1258 1.366 . S
C1258 C1257 1.366 . S
C1258 C1259 1.414 1_556 S
C1258 C1261 1.499 . S
C1259 H1233 0.950 . S
C1259 C1258 1.414 1_554 S
C1259 C1260 1.374 . S
C1260 H1234 0.950 . S
C1260 C1256 1.385 1_554 S
C1260 C1259 1.374 . S
C1261 C1258 1.499 . S
C1261 C1262 1.373 1_556 S
C1261 C1263 1.389 . S
C1262 H1235 0.950 . S
C1262 C1248 1.377 1_565 S
C1262 C1261 1.373 1_554 S
C1263 C1247 1.377 1_565 S
C1263 C1261 1.389 . S
C1263 C1264 1.524 . S
C1264 C1263 1.524 . S
C1264 C1265 1.397 . S
C1264 C1269 1.363 . S
C1265 H1236 0.950 . S
C1265 C1264 1.397 . S
C1265 C1266 1.334 . S
C1266 H1237 0.950 . S
C1266 C1265 1.334 . S
C1266 C1267 1.287 . S
C1267 C1266 1.287 . S
C1267 C1268 1.524 . S
C1267 H1270 0.999 . S
C1268 H1238 0.950 . S
C1268 C1267 1.524 . S
C1268 C1269 1.415 . S
C1269 H1239 0.950 . S
C1269 C1264 1.363 . S
C1269 C1268 1.415 . S
H1270 C1267 0.999 . S
H1271 C1252 0.913 . S
H1272 C1290 0.951 . S
H1273 C1292 0.951 . S
H1274 C1294 0.950 . S
H1275 C1295 0.950 . S
H1276 C1297 0.956 . S
H1277 C1300 0.950 . S
H1278 C1301 0.950 . S
H1279 C1303 0.950 . S
H1280 C1304 0.950 . S
H1281 C1305 0.951 . S
H1282 C1307 0.951 . S
H1283 C1309 0.950 . S
H1284 C1310 0.950 . S
H1285 C1312 0.950 . S
H1286 C1315 0.950 . S
H1287 C1316 0.950 . S
H1288 C1318 0.950 . S
H1289 C1319 0.950 . S
C1290 H1272 0.951 . S
C1290 C1291 1.366 . S
C1290 C1292 1.388 . S
C1291 C1290 1.366 . S
C1291 C1295 1.385 . S
C1292 H1273 0.951 . S
C1292 C1290 1.388 . S
C1292 C1293 1.366 . S
C1293 C1292 1.366 . S
C1293 C1294 1.414 . S
C1293 C1296 1.499 . S
C1294 H1274 0.950 . S
C1294 C1293 1.414 . S
C1294 C1295 1.374 . S
C1295 H1275 0.950 . S
C1295 C1291 1.385 . S
C1295 C1294 1.374 . S
C1296 C1293 1.499 . S
C1296 C1297 1.379 . S
C1296 C1298 1.389 . S
C1297 H1276 0.956 . S
C1297 C1296 1.379 . S
C1297 C1313 1.365 1_554 S
C1298 C1296 1.389 . S
C1298 C1299 1.524 . S
C1298 C1312 1.377 1_554 S
C1299 C1298 1.524 . S
C1299 C1300 1.397 . S
C1299 C1304 1.363 . S
C1300 H1277 0.950 . S
C1300 C1299 1.397 . S
C1300 C1301 1.334 . S
C1301 H1278 0.950 . S
C1301 C1300 1.334 . S
C1301 C1302 1.287 . S
C1302 C1301 1.287 . S
C1302 C1303 1.524 . S
C1302 H1321 0.913 . S
C1303 H1279 0.950 . S
C1303 C1302 1.524 . S
C1303 C1304 1.415 . S
C1304 H1280 0.950 . S
C1304 C1299 1.363 . S
C1304 C1303 1.415 . S
C1305 H1281 0.951 . S
C1305 C1306 1.366 . S
C1305 C1307 1.388 . S
C1306 C1305 1.366 . S
C1306 C1310 1.385 . S
C1307 H1282 0.951 . S
C1307 C1305 1.388 . S
C1307 C1308 1.366 . S
C1308 C1307 1.366 . S
C1308 C1309 1.414 . S
C1308 C1311 1.499 . S
C1309 H1283 0.950 . S
C1309 C1308 1.414 . S
C1309 C1310 1.374 . S
C1310 H1284 0.950 . S
C1310 C1306 1.385 . S
C1310 C1309 1.374 . S
C1311 C1308 1.499 . S
C1311 C1312 1.373 . S
C1311 C1313 1.389 . S
C1312 H1285 0.950 . S
C1312 C1298 1.377 1_556 S
C1312 C1311 1.373 . S
C1313 C1297 1.365 1_556 S
C1313 C1311 1.389 . S
C1313 C1314 1.524 . S
C1314 C1313 1.524 . S
C1314 C1315 1.397 . S
C1314 C1319 1.363 . S
C1315 H1286 0.950 . S
C1315 C1314 1.397 . S
C1315 C1316 1.334 . S
C1316 H1287 0.950 . S
C1316 C1315 1.334 . S
C1316 C1317 1.287 . S
C1317 C1316 1.287 . S
C1317 C1318 1.524 . S
C1317 H1320 0.999 . S
C1318 H1288 0.950 . S
C1318 C1317 1.524 . S
C1318 C1319 1.415 . S
C1319 H1289 0.950 . S
C1319 C1314 1.363 . S
C1319 C1318 1.415 . S
H1320 C1317 0.999 . S
H1321 C1302 0.913 . S
H1322 C1340 0.951 . S
H1323 C1342 0.951 . S
H1324 C1344 0.950 . S
H1325 C1345 0.950 . S
H1326 C1347 0.950 . S
H1327 C1350 0.950 . S
H1328 C1351 0.950 . S
H1329 C1353 0.950 . S
H1330 C1354 0.950 . S
H1331 C1355 0.951 . S
H1332 C1357 0.951 . S
H1333 C1359 0.950 . S
H1334 C1360 0.950 . S
H1335 C1362 0.950 . S
H1336 C1365 0.950 . S
H1337 C1366 0.950 . S
H1338 C1368 0.950 . S
H1339 C1369 0.950 . S
C1340 H1322 0.951 . S
C1340 C1341 1.366 . S
C1340 C1342 1.388 . S
C1341 C1340 1.366 . S
C1341 C1345 1.385 . S
C1342 H1323 0.951 . S
C1342 C1340 1.388 . S
C1342 C1343 1.366 . S
C1343 C1342 1.366 . S
C1343 C1344 1.414 . S
C1343 C1346 1.499 . S
C1344 H1324 0.950 . S
C1344 C1343 1.414 . S
C1344 C1345 1.374 . S
C1345 H1325 0.950 . S
C1345 C1341 1.385 . S
C1345 C1344 1.374 . S
C1346 C1343 1.499 . S
C1346 C1347 1.373 . S
C1346 C1348 1.389 1_554 S
C1347 H1326 0.950 . S
C1347 C1346 1.373 . S
C1347 C1363 1.377 1_554 S
C1348 C1346 1.389 1_556 S
C1348 C1349 1.524 1_556 S
C1348 C1362 1.377 . S
C1349 C1348 1.524 1_554 S
C1349 C1350 1.397 . S
C1349 C1354 1.363 1_554 S
C1350 H1327 0.950 . S
C1350 C1349 1.397 . S
C1350 C1351 1.334 . S
C1351 H1328 0.950 . S
C1351 C1350 1.334 . S
C1351 C1352 1.287 . S
C1352 C1351 1.287 . S
C1352 C1353 1.524 1_554 S
C1352 H1371 0.913 . S
C1353 H1329 0.950 . S
C1353 C1352 1.524 1_556 S
C1353 C1354 1.415 . S
C1354 H1330 0.950 . S
C1354 C1349 1.363 1_556 S
C1354 C1353 1.415 . S
C1355 H1331 0.951 . S
C1355 C1356 1.366 . S
C1355 C1357 1.388 . S
C1356 C1355 1.366 . S
C1356 C1360 1.385 . S
C1357 H1332 0.951 . S
C1357 C1355 1.388 . S
C1357 C1358 1.366 . S
C1358 C1357 1.366 . S
C1358 C1359 1.414 . S
C1358 C1361 1.499 . S
C1359 H1333 0.950 . S
C1359 C1358 1.414 . S
C1359 C1360 1.374 . S
C1360 H1334 0.950 . S
C1360 C1356 1.385 . S
C1360 C1359 1.374 . S
C1361 C1358 1.499 . S
C1361 C1362 1.373 . S
C1361 C1363 1.389 . S
C1362 H1335 0.950 . S
C1362 C1348 1.377 . S
C1362 C1361 1.373 . S
C1363 C1347 1.377 1_556 S
C1363 C1361 1.389 . S
C1363 C1364 1.524 . S
C1364 C1363 1.524 . S
C1364 C1365 1.397 . S
C1364 C1369 1.363 . S
C1365 H1336 0.950 . S
C1365 C1364 1.397 . S
C1365 C1366 1.334 . S
C1366 H1337 0.950 . S
C1366 C1365 1.334 . S
C1366 C1367 1.287 . S
C1367 C1366 1.287 . S
C1367 C1368 1.524 . S
C1367 H1370 0.999 . S
C1368 H1338 0.950 . S
C1368 C1367 1.524 . S
C1368 C1369 1.415 . S
C1369 H1339 0.950 . S
C1369 C1364 1.363 . S
C1369 C1368 1.415 . S
H1370 C1367 0.999 . S
H1371 C1352 0.913 . S
H1372 C1390 0.951 . S
H1373 C1392 0.951 . S
H1374 C1394 0.950 . S
H1375 C1395 0.950 . S
H1376 C1397 0.950 . S
H1377 C1400 0.950 . S
H1378 C1401 0.950 . S
H1379 C1403 0.950 . S
H1380 C1404 0.950 1_556 S
H1381 C1405 0.951 . S
H1382 C1407 0.951 . S
H1383 C1409 0.950 . S
H1384 C1410 0.950 . S
H1385 C1412 0.950 . S
H1386 C1415 0.950 . S
H1387 C1416 0.950 . S
H1388 C1418 0.950 . S
H1389 C1419 0.950 . S
C1390 H1372 0.951 . S
C1390 C1391 1.366 . S
C1390 C1392 1.388 . S
C1391 C1390 1.366 . S
C1391 C1395 1.385 . S
C1392 H1373 0.951 . S
C1392 C1390 1.388 . S
C1392 C1393 1.366 . S
C1393 C1392 1.366 . S
C1393 C1394 1.414 . S
C1393 C1396 1.499 . S
C1394 H1374 0.950 . S
C1394 C1393 1.414 . S
C1394 C1395 1.374 . S
C1395 H1375 0.950 . S
C1395 C1391 1.385 . S
C1395 C1394 1.374 . S
C1396 C1393 1.499 . S
C1396 C1397 1.373 . S
C1396 C1398 1.389 . S
C1397 H1376 0.950 . S
C1397 C1396 1.373 . S
C1397 C1413 1.377 . S
C1398 C1396 1.389 . S
C1398 C1399 1.524 . S
C1398 C1412 1.377 1_554 S
C1399 C1398 1.524 . S
C1399 C1400 1.397 . S
C1399 C1404 1.363 . S
C1400 H1377 0.950 . S
C1400 C1399 1.397 . S
C1400 C1401 1.334 . S
C1401 H1378 0.950 . S
C1401 C1400 1.334 . S
C1401 C1402 1.287 . S
C1402 C1401 1.287 . S
C1402 C1403 1.524 . S
C1402 H1421 0.913 . S
C1403 H1379 0.950 . S
C1403 C1402 1.524 . S
C1403 C1404 1.415 . S
C1404 H1380 0.950 1_554 S
C1404 C1399 1.363 . S
C1404 C1403 1.415 . S
C1405 H1381 0.951 . S
C1405 C1406 1.366 . S
C1405 C1407 1.388 . S
C1406 C1405 1.366 . S
C1406 C1410 1.385 . S
C1407 H1382 0.951 . S
C1407 C1405 1.388 . S
C1407 C1408 1.366 . S
C1408 C1407 1.366 . S
C1408 C1409 1.414 . S
C1408 C1411 1.499 . S
C1409 H1383 0.950 . S
C1409 C1408 1.414 . S
C1409 C1410 1.374 . S
C1410 H1384 0.950 . S
C1410 C1406 1.385 . S
C1410 C1409 1.374 . S
C1411 C1408 1.499 . S
C1411 C1412 1.373 . S
C1411 C1413 1.389 1_556 S
C1412 H1385 0.950 . S
C1412 C1398 1.377 1_556 S
C1412 C1411 1.373 . S
C1413 C1397 1.377 . S
C1413 C1411 1.389 1_554 S
C1413 C1414 1.524 1_554 S
C1414 C1413 1.524 1_556 S
C1414 C1415 1.397 . S
C1414 C1419 1.363 1_556 S
C1415 H1386 0.950 . S
C1415 C1414 1.397 . S
C1415 C1416 1.334 . S
C1416 H1387 0.950 . S
C1416 C1415 1.334 . S
C1416 C1417 1.287 . S
C1417 C1416 1.287 . S
C1417 C1418 1.524 1_556 S
C1417 H1420 0.999 . S
C1418 H1388 0.950 . S
C1418 C1417 1.524 1_554 S
C1418 C1419 1.415 . S
C1419 H1389 0.950 . S
C1419 C1414 1.363 1_554 S
C1419 C1418 1.415 . S
H1420 C1417 0.999 . S
H1421 C1402 0.913 . S
H1422 C1440 0.951 . S
H1423 C1442 0.951 . S
H1424 C1444 0.950 . S
H1425 C1445 0.950 . S
H1426 C1447 0.950 1_556 S
H1427 C1450 0.950 . S
H1428 C1451 0.950 . S
H1429 C1453 0.950 . S
H1430 C1454 0.950 1_554 S
H1431 C1455 0.951 . S
H1432 C1457 0.951 . S
H1433 C1459 0.950 . S
H1434 C1460 0.950 . S
H1435 C1462 0.950 . S
H1436 C1465 0.950 . S
H1437 C1466 0.950 . S
H1438 C1468 0.950 . S
H1439 C1469 0.950 . S
C1440 H1422 0.951 . S
C1440 C1441 1.366 . S
C1440 C1442 1.388 . S
C1441 C1440 1.366 . S
C1441 C1445 1.385 . S
C1442 H1423 0.951 . S
C1442 C1440 1.388 . S
C1442 C1443 1.366 . S
C1443 C1442 1.366 . S
C1443 C1444 1.414 . S
C1443 C1446 1.499 . S
C1444 H1424 0.950 . S
C1444 C1443 1.414 . S
C1444 C1445 1.374 . S
C1445 H1425 0.950 . S
C1445 C1441 1.385 . S
C1445 C1444 1.374 . S
C1446 C1443 1.499 . S
C1446 C1447 1.373 1_556 S
C1446 C1448 1.389 . S
C1447 H1426 0.950 1_554 S
C1447 C1446 1.373 1_554 S
C1447 C1463 1.377 . S
C1448 C1446 1.389 . S
C1448 C1449 1.524 . S
C1448 C1462 1.377 1_556 S
C1449 C1448 1.524 . S
C1449 C1450 1.397 . S
C1449 C1454 1.363 . S
C1450 H1427 0.950 . S
C1450 C1449 1.397 . S
C1450 C1451 1.334 . S
C1451 H1428 0.950 . S
C1451 C1450 1.334 . S
C1451 C1452 1.287 . S
C1452 C1451 1.287 . S
C1452 C1453 1.524 . S
C1452 H1471 0.913 . S
C1453 H1429 0.950 . S
C1453 C1452 1.524 . S
C1453 C1454 1.415 . S
C1454 H1430 0.950 1_556 S
C1454 C1449 1.363 . S
C1454 C1453 1.415 . S
C1455 H1431 0.951 . S
C1455 C1456 1.366 . S
C1455 C1457 1.388 . S
C1456 C1455 1.366 . S
C1456 C1460 1.385 . S
C1457 H1432 0.951 . S
C1457 C1455 1.388 . S
C1457 C1458 1.366 . S
C1458 C1457 1.366 . S
C1458 C1459 1.414 . S
C1458 C1461 1.499 . S
C1459 H1433 0.950 . S
C1459 C1458 1.414 . S
C1459 C1460 1.374 . S
C1460 H1434 0.950 . S
C1460 C1456 1.385 . S
C1460 C1459 1.374 . S
C1461 C1458 1.499 . S
C1461 C1462 1.373 . S
C1461 C1463 1.389 . S
C1462 H1435 0.950 . S
C1462 C1448 1.377 1_554 S
C1462 C1461 1.373 . S
C1463 C1447 1.377 . S
C1463 C1461 1.389 . S
C1463 C1464 1.524 . S
C1464 C1463 1.524 . S
C1464 C1465 1.397 . S
C1464 C1469 1.363 . S
C1465 H1436 0.950 . S
C1465 C1464 1.397 . S
C1465 C1466 1.334 . S
C1466 H1437 0.950 . S
C1466 C1465 1.334 . S
C1466 C1467 1.287 . S
C1467 C1466 1.287 . S
C1467 C1468 1.524 . S
C1467 H1470 0.999 . S
C1468 H1438 0.950 . S
C1468 C1467 1.524 . S
C1468 C1469 1.415 . S
C1469 H1439 0.950 . S
C1469 C1464 1.363 . S
C1469 C1468 1.415 . S
H1470 C1467 0.999 . S
H1471 C1452 0.913 . S
H1472 C1490 0.951 . S
H1473 C1492 0.951 . S
H1474 C1494 0.950 . S
H1475 C1495 0.950 . S
H1476 C1497 0.950 . S
H1477 C1500 0.950 . S
H1478 C1501 0.950 . S
H1479 C1503 0.950 . S
H1480 C1504 0.950 . S
H1481 C1505 0.951 . S
H1482 C1507 0.951 . S
H1483 C1509 0.950 . S
H1484 C1510 0.950 . S
H1485 C1512 0.950 . S
H1486 C1515 0.950 . S
H1487 C1516 0.950 . S
H1488 C1518 0.950 . S
H1489 C1519 0.950 . S
C1490 H1472 0.951 . S
C1490 C1491 1.366 . S
C1490 C1492 1.388 . S
C1491 C1490 1.366 . S
C1491 C1495 1.385 . S
C1492 H1473 0.951 . S
C1492 C1490 1.388 . S
C1492 C1493 1.366 . S
C1493 C1492 1.366 . S
C1493 C1494 1.414 . S
C1493 C1496 1.499 . S
C1494 H1474 0.950 . S
C1494 C1493 1.414 . S
C1494 C1495 1.374 . S
C1495 H1475 0.950 . S
C1495 C1491 1.385 . S
C1495 C1494 1.374 . S
C1496 C1493 1.499 . S
C1496 C1497 1.373 . S
C1496 C1498 1.389 . S
C1497 H1476 0.950 . S
C1497 C1496 1.373 . S
C1497 C1513 1.377 . S
C1498 C1496 1.389 . S
C1498 C1499 1.524 . S
C1498 C1512 1.377 . S
C1499 C1498 1.524 . S
C1499 C1500 1.397 . S
C1499 C1504 1.363 . S
C1500 H1477 0.950 . S
C1500 C1499 1.397 . S
C1500 C1501 1.334 . S
C1501 H1478 0.950 . S
C1501 C1500 1.334 . S
C1501 C1502 1.287 . S
C1502 C1501 1.287 . S
C1502 C1503 1.524 . S
C1502 H1521 0.913 . S
C1503 H1479 0.950 . S
C1503 C1502 1.524 . S
C1503 C1504 1.415 . S
C1504 H1480 0.950 . S
C1504 C1499 1.363 . S
C1504 C1503 1.415 . S
C1505 H1481 0.951 . S
C1505 C1506 1.366 . S
C1505 C1507 1.388 . S
C1506 C1505 1.366 . S
C1506 C1510 1.385 . S
C1507 H1482 0.951 . S
C1507 C1505 1.388 . S
C1507 C1508 1.366 . S
C1508 C1507 1.366 . S
C1508 C1509 1.414 . S
C1508 C1511 1.499 . S
C1509 H1483 0.950 . S
C1509 C1508 1.414 . S
C1509 C1510 1.374 . S
C1510 H1484 0.950 . S
C1510 C1506 1.385 . S
C1510 C1509 1.374 . S
C1511 C1508 1.499 . S
C1511 C1512 1.373 . S
C1511 C1513 1.389 . S
C1512 H1485 0.950 . S
C1512 C1498 1.377 . S
C1512 C1511 1.373 . S
C1513 C1497 1.377 . S
C1513 C1511 1.389 . S
C1513 C1514 1.524 . S
C1514 C1513 1.524 . S
C1514 C1515 1.397 . S
C1514 C1519 1.363 . S
C1515 H1486 0.950 . S
C1515 C1514 1.397 . S
C1515 C1516 1.334 . S
C1516 H1487 0.950 . S
C1516 C1515 1.334 . S
C1516 C1517 1.287 . S
C1517 C1516 1.287 . S
C1517 C1518 1.524 . S
C1517 H1520 0.999 . S
C1518 H1488 0.950 . S
C1518 C1517 1.524 . S
C1518 C1519 1.415 . S
C1519 H1489 0.950 . S
C1519 C1514 1.363 . S
C1519 C1518 1.415 . S
H1520 C1517 0.999 . S
H1521 C1502 0.913 . S
H1522 C1540 0.951 . S
H1523 C1542 0.951 . S
H1524 C1544 0.950 . S
H1525 C1545 0.950 . S
H1526 C1547 0.950 . S
H1527 C1550 0.950 . S
H1528 C1551 0.950 . S
H1529 C1553 0.950 . S
H1530 C1554 0.950 . S
H1531 C1555 0.951 . S
H1532 C1557 0.951 . S
H1533 C1559 0.950 . S
H1534 C1560 0.950 . S
H1535 C1562 0.950 . S
H1536 C1565 0.950 . S
H1537 C1566 0.950 . S
H1538 C1568 0.950 . S
H1539 C1569 0.950 . S
C1540 H1522 0.951 . S
C1540 C1541 1.366 . S
C1540 C1542 1.388 . S
C1541 C1540 1.366 . S
C1541 C1545 1.385 . S
C1542 H1523 0.951 . S
C1542 C1540 1.388 . S
C1542 C1543 1.366 . S
C1543 C1542 1.366 . S
C1543 C1544 1.414 . S
C1543 C1546 1.499 . S
C1544 H1524 0.950 . S
C1544 C1543 1.414 . S
C1544 C1545 1.374 . S
C1545 H1525 0.950 . S
C1545 C1541 1.385 . S
C1545 C1544 1.374 . S
C1546 C1543 1.499 . S
C1546 C1547 1.373 . S
C1546 C1548 1.389 . S
C1547 H1526 0.950 . S
C1547 C1546 1.373 . S
C1547 C1563 1.377 . S
C1548 C1546 1.389 . S
C1548 C1549 1.524 . S
C1548 C1562 1.377 . S
C1549 C1548 1.524 . S
C1549 C1550 1.397 . S
C1549 C1554 1.363 . S
C1550 H1527 0.950 . S
C1550 C1549 1.397 . S
C1550 C1551 1.334 . S
C1551 H1528 0.950 . S
C1551 C1550 1.334 . S
C1551 C1552 1.287 . S
C1552 C1551 1.287 . S
C1552 C1553 1.524 . S
C1552 H1571 0.913 . S
C1553 H1529 0.950 . S
C1553 C1552 1.524 . S
C1553 C1554 1.415 . S
C1554 H1530 0.950 . S
C1554 C1549 1.363 . S
C1554 C1553 1.415 . S
C1555 H1531 0.951 . S
C1555 C1556 1.366 . S
C1555 C1557 1.388 . S
C1556 C1555 1.366 . S
C1556 C1560 1.385 . S
C1557 H1532 0.951 . S
C1557 C1555 1.388 . S
C1557 C1558 1.366 . S
C1558 C1557 1.366 . S
C1558 C1559 1.414 . S
C1558 C1561 1.499 . S
C1559 H1533 0.950 . S
C1559 C1558 1.414 . S
C1559 C1560 1.374 . S
C1560 H1534 0.950 . S
C1560 C1556 1.385 . S
C1560 C1559 1.374 . S
C1561 C1558 1.499 . S
C1561 C1562 1.373 . S
C1561 C1563 1.389 . S
C1562 H1535 0.950 . S
C1562 C1548 1.377 . S
C1562 C1561 1.373 . S
C1563 C1547 1.377 . S
C1563 C1561 1.389 . S
C1563 C1564 1.524 . S
C1564 C1563 1.524 . S
C1564 C1565 1.397 . S
C1564 C1569 1.363 . S
C1565 H1536 0.950 . S
C1565 C1564 1.397 . S
C1565 C1566 1.334 . S
C1566 H1537 0.950 . S
C1566 C1565 1.334 . S
C1566 C1567 1.287 . S
C1567 C1566 1.287 . S
C1567 C1568 1.524 . S
C1567 H1570 0.999 . S
C1568 H1538 0.950 . S
C1568 C1567 1.524 . S
C1568 C1569 1.415 . S
C1569 H1539 0.950 . S
C1569 C1564 1.363 . S
C1569 C1568 1.415 . S
H1570 C1567 0.999 . S
H1571 C1552 0.913 . S
H1572 C1590 0.951 . S
H1573 C1592 0.951 . S
H1574 C1594 0.950 . S
H1575 C1595 0.950 . S
H1576 C1597 0.950 . S
H1577 C1600 0.950 . S
H1578 C1601 0.950 . S
H1579 C1603 0.950 . S
H1580 C1604 0.950 . S
H1581 C1605 0.951 . S
H1582 C1607 0.951 . S
H1583 C1609 0.950 . S
H1584 C1610 0.950 . S
H1585 C1612 0.950 . S
H1586 C1615 0.950 . S
H1587 C1616 0.950 . S
H1588 C1618 0.950 . S
H1589 C1619 0.950 . S
C1590 H1572 0.951 . S
C1590 C1591 1.366 . S
C1590 C1592 1.388 . S
C1591 C1590 1.366 . S
C1591 C1595 1.385 . S
C1592 H1573 0.951 . S
C1592 C1590 1.388 . S
C1592 C1593 1.366 . S
C1593 C1592 1.366 . S
C1593 C1594 1.414 . S
C1593 C1596 1.499 . S
C1594 H1574 0.950 . S
C1594 C1593 1.414 . S
C1594 C1595 1.374 . S
C1595 H1575 0.950 . S
C1595 C1591 1.385 . S
C1595 C1594 1.374 . S
C1596 C1593 1.499 . S
C1596 C1597 1.373 . S
C1596 C1598 1.389 . S
C1597 H1576 0.950 . S
C1597 C1596 1.373 . S
C1597 C1613 1.377 . S
C1598 C1596 1.389 . S
C1598 C1599 1.524 . S
C1598 C1612 1.377 . S
C1599 C1598 1.524 . S
C1599 C1600 1.397 . S
C1599 C1604 1.363 . S
C1600 H1577 0.950 . S
C1600 C1599 1.397 . S
C1600 C1601 1.334 . S
C1601 H1578 0.950 . S
C1601 C1600 1.334 . S
C1601 C1602 1.287 . S
C1602 C1601 1.287 . S
C1602 C1603 1.524 . S
C1602 H1621 0.913 . S
C1603 H1579 0.950 . S
C1603 C1602 1.524 . S
C1603 C1604 1.415 . S
C1604 H1580 0.950 . S
C1604 C1599 1.363 . S
C1604 C1603 1.415 . S
C1605 H1581 0.951 . S
C1605 C1606 1.366 . S
C1605 C1607 1.388 . S
C1606 C1605 1.366 . S
C1606 C1610 1.385 . S
C1607 H1582 0.951 . S
C1607 C1605 1.388 . S
C1607 C1608 1.366 . S
C1608 C1607 1.366 . S
C1608 C1609 1.414 . S
C1608 C1611 1.499 . S
C1609 H1583 0.950 . S
C1609 C1608 1.414 . S
C1609 C1610 1.374 . S
C1610 H1584 0.950 . S
C1610 C1606 1.385 . S
C1610 C1609 1.374 . S
C1611 C1608 1.499 . S
C1611 C1612 1.373 . S
C1611 C1613 1.389 . S
C1612 H1585 0.950 . S
C1612 C1598 1.377 . S
C1612 C1611 1.373 . S
C1613 C1597 1.377 . S
C1613 C1611 1.389 . S
C1613 C1614 1.524 . S
C1614 C1613 1.524 . S
C1614 C1615 1.397 . S
C1614 C1619 1.363 . S
C1615 H1586 0.950 . S
C1615 C1614 1.397 . S
C1615 C1616 1.334 . S
C1616 H1587 0.950 . S
C1616 C1615 1.334 . S
C1616 C1617 1.287 . S
C1617 C1616 1.287 . S
C1617 C1618 1.524 . S
C1617 H1620 0.999 . S
C1618 H1588 0.950 . S
C1618 C1617 1.524 . S
C1618 C1619 1.415 . S
C1619 H1589 0.950 . S
C1619 C1614 1.363 . S
C1619 C1618 1.415 . S
H1620 C1617 0.999 . S
H1621 C1602 0.913 . S
H1622 C1640 0.951 . S
H1623 C1642 0.951 . S
H1624 C1644 0.950 . S
H1625 C1645 0.950 . S
H1626 C1647 0.950 . S
H1627 C1650 0.950 . S
H1628 C1651 0.950 . S
H1629 C1653 0.950 . S
H1630 C1654 0.950 . S
H1631 C1655 0.951 . S
H1632 C1657 0.951 . S
H1633 C1659 0.950 . S
H1634 C1660 0.950 . S
H1635 C1662 0.950 . S
H1636 C1665 0.950 . S
H1637 C1666 0.950 . S
H1638 C1668 0.950 . S
H1639 C1669 0.950 . S
C1640 H1622 0.951 . S
C1640 C1641 1.366 . S
C1640 C1642 1.388 . S
C1641 C1640 1.366 . S
C1641 C1645 1.385 . S
C1642 H1623 0.951 . S
C1642 C1640 1.388 . S
C1642 C1643 1.366 . S
C1643 C1642 1.366 . S
C1643 C1644 1.414 . S
C1643 C1646 1.499 . S
C1644 H1624 0.950 . S
C1644 C1643 1.414 . S
C1644 C1645 1.374 . S
C1645 H1625 0.950 . S
C1645 C1641 1.385 . S
C1645 C1644 1.374 . S
C1646 C1643 1.499 . S
C1646 C1647 1.373 . S
C1646 C1648 1.389 . S
C1647 H1626 0.950 . S
C1647 C1646 1.373 . S
C1647 C1663 1.377 . S
C1648 C1646 1.389 . S
C1648 C1649 1.524 . S
C1648 C1662 1.377 . S
C1649 C1648 1.524 . S
C1649 C1650 1.397 . S
C1649 C1654 1.363 . S
C1650 H1627 0.950 . S
C1650 C1649 1.397 . S
C1650 C1651 1.334 . S
C1651 H1628 0.950 . S
C1651 C1650 1.334 . S
C1651 C1652 1.287 . S
C1652 C1651 1.287 . S
C1652 C1653 1.524 . S
C1652 H1671 0.913 . S
C1653 H1629 0.950 . S
C1653 C1652 1.524 . S
C1653 C1654 1.415 . S
C1654 H1630 0.950 . S
C1654 C1649 1.363 . S
C1654 C1653 1.415 . S
C1655 H1631 0.951 . S
C1655 C1656 1.366 . S
C1655 C1657 1.388 . S
C1656 C1655 1.366 . S
C1656 C1660 1.385 . S
C1657 H1632 0.951 . S
C1657 C1655 1.388 . S
C1657 C1658 1.366 . S
C1658 C1657 1.366 . S
C1658 C1659 1.414 . S
C1658 C1661 1.499 . S
C1659 H1633 0.950 . S
C1659 C1658 1.414 . S
C1659 C1660 1.374 . S
C1660 H1634 0.950 . S
C1660 C1656 1.385 . S
C1660 C1659 1.374 . S
C1661 C1658 1.499 . S
C1661 C1662 1.373 . S
C1661 C1663 1.389 . S
C1662 H1635 0.950 . S
C1662 C1648 1.377 . S
C1662 C1661 1.373 . S
C1663 C1647 1.377 . S
C1663 C1661 1.389 . S
C1663 C1664 1.524 . S
C1664 C1663 1.524 . S
C1664 C1665 1.397 . S
C1664 C1669 1.363 . S
C1665 H1636 0.950 . S
C1665 C1664 1.397 . S
C1665 C1666 1.334 . S
C1666 H1637 0.950 . S
C1666 C1665 1.334 . S
C1666 C1667 1.287 . S
C1667 C1666 1.287 . S
C1667 C1668 1.524 . S
C1667 H1670 0.999 . S
C1668 H1638 0.950 . S
C1668 C1667 1.524 . S
C1668 C1669 1.415 . S
C1669 H1639 0.950 . S
C1669 C1664 1.363 . S
C1669 C1668 1.415 . S
H1670 C1667 0.999 . S
H1671 C1652 0.913 . S
H1672 C1690 0.951 . S
H1673 C1692 0.951 . S
H1674 C1694 0.950 . S
H1675 C1695 0.950 . S
H1676 C1697 0.950 . S
H1677 C1700 0.950 . S
H1678 C1701 0.950 . S
H1679 C1703 0.950 . S
H1680 C1704 0.950 . S
H1681 C1705 0.951 . S
H1682 C1707 0.951 . S
H1683 C1709 0.950 . S
H1684 C1710 0.950 . S
H1685 C1712 0.950 . S
H1686 C1715 0.950 . S
H1687 C1716 0.950 . S
H1688 C1718 0.950 . S
H1689 C1719 0.950 1_455 S
C1690 H1672 0.951 . S
C1690 C1691 1.366 . S
C1690 C1692 1.388 . S
C1691 C1690 1.366 . S
C1691 C1695 1.385 . S
C1692 H1673 0.951 . S
C1692 C1690 1.388 . S
C1692 C1693 1.366 . S
C1693 C1692 1.366 . S
C1693 C1694 1.414 . S
C1693 C1696 1.499 . S
C1694 H1674 0.950 . S
C1694 C1693 1.414 . S
C1694 C1695 1.374 . S
C1695 H1675 0.950 . S
C1695 C1691 1.385 . S
C1695 C1694 1.374 . S
C1696 C1693 1.499 . S
C1696 C1697 1.373 . S
C1696 C1698 1.389 . S
C1697 H1676 0.950 . S
C1697 C1696 1.373 . S
C1697 C1713 1.377 1_455 S
C1698 C1696 1.389 . S
C1698 C1699 1.524 . S
C1698 C1712 1.377 1_455 S
C1699 C1698 1.524 . S
C1699 C1700 1.397 . S
C1699 C1704 1.363 . S
C1700 H1677 0.950 . S
C1700 C1699 1.397 . S
C1700 C1701 1.334 . S
C1701 H1678 0.950 . S
C1701 C1700 1.334 . S
C1701 C1702 1.287 . S
C1702 C1701 1.287 . S
C1702 C1703 1.524 . S
C1702 H1721 0.913 . S
C1703 H1679 0.950 . S
C1703 C1702 1.524 . S
C1703 C1704 1.415 . S
C1704 H1680 0.950 . S
C1704 C1699 1.363 . S
C1704 C1703 1.415 . S
C1705 H1681 0.951 . S
C1705 C1706 1.366 . S
C1705 C1707 1.388 . S
C1706 C1705 1.366 . S
C1706 C1710 1.385 . S
C1707 H1682 0.951 . S
C1707 C1705 1.388 . S
C1707 C1708 1.366 . S
C1708 C1707 1.366 . S
C1708 C1709 1.414 . S
C1708 C1711 1.499 . S
C1709 H1683 0.950 . S
C1709 C1708 1.414 . S
C1709 C1710 1.374 . S
C1710 H1684 0.950 . S
C1710 C1706 1.385 . S
C1710 C1709 1.374 . S
C1711 C1708 1.499 . S
C1711 C1712 1.373 . S
C1711 C1713 1.389 . S
C1712 H1685 0.950 . S
C1712 C1698 1.377 1_655 S
C1712 C1711 1.373 . S
C1713 C1697 1.377 1_655 S
C1713 C1711 1.389 . S
C1713 C1714 1.524 . S
C1714 C1713 1.524 . S
C1714 C1715 1.397 . S
C1714 C1719 1.363 . S
C1715 H1686 0.950 . S
C1715 C1714 1.397 . S
C1715 C1716 1.334 . S
C1716 H1687 0.950 . S
C1716 C1715 1.334 . S
C1716 C1717 1.287 . S
C1717 C1716 1.287 . S
C1717 C1718 1.524 . S
C1717 H1720 0.999 . S
C1718 H1688 0.950 . S
C1718 C1717 1.524 . S
C1718 C1719 1.415 . S
C1719 H1689 0.950 1_655 S
C1719 C1714 1.363 . S
C1719 C1718 1.415 . S
H1720 C1717 0.999 . S
H1721 C1702 0.913 . S
H1722 C1740 0.951 . S
H1723 C1742 0.951 . S
H1724 C1744 0.950 . S
H1725 C1745 0.950 . S
H1726 C1747 0.950 . S
H1727 C1750 0.950 . S
H1728 C1751 0.950 . S
H1729 C1753 0.950 . S
H1730 C1754 0.950 . S
H1731 C1755 0.951 . S
H1732 C1757 0.951 . S
H1733 C1759 0.950 . S
H1734 C1760 0.950 . S
H1735 C1762 0.950 . S
H1736 C1765 0.950 . S
H1737 C1766 0.950 . S
H1738 C1768 0.950 . S
H1739 C1769 0.950 . S
C1740 H1722 0.951 . S
C1740 C1741 1.366 . S
C1740 C1742 1.388 . S
C1741 C1740 1.366 . S
C1741 C1745 1.385 . S
C1742 H1723 0.951 . S
C1742 C1740 1.388 . S
C1742 C1743 1.366 . S
C1743 C1742 1.366 . S
C1743 C1744 1.414 . S
C1743 C1746 1.499 . S
C1744 H1724 0.950 . S
C1744 C1743 1.414 . S
C1744 C1745 1.374 . S
C1745 H1725 0.950 . S
C1745 C1741 1.385 . S
C1745 C1744 1.374 . S
C1746 C1743 1.499 . S
C1746 C1747 1.373 . S
C1746 C1748 1.389 . S
C1747 H1726 0.950 . S
C1747 C1746 1.373 . S
C1747 C1763 1.377 1_655 S
C1748 C1746 1.389 . S
C1748 C1749 1.524 . S
C1748 C1762 1.377 1_655 S
C1749 C1748 1.524 . S
C1749 C1750 1.397 . S
C1749 C1754 1.363 . S
C1750 H1727 0.950 . S
C1750 C1749 1.397 . S
C1750 C1751 1.334 . S
C1751 H1728 0.950 . S
C1751 C1750 1.334 . S
C1751 C1752 1.287 . S
C1752 C1751 1.287 . S
C1752 C1753 1.524 . S
C1752 H1771 0.913 . S
C1753 H1729 0.950 . S
C1753 C1752 1.524 . S
C1753 C1754 1.415 . S
C1754 H1730 0.950 . S
C1754 C1749 1.363 . S
C1754 C1753 1.415 . S
C1755 H1731 0.951 . S
C1755 C1756 1.366 . S
C1755 C1757 1.388 . S
C1756 C1755 1.366 . S
C1756 C1760 1.385 . S
C1757 H1732 0.951 . S
C1757 C1755 1.388 . S
C1757 C1758 1.366 . S
C1758 C1757 1.366 . S
C1758 C1759 1.414 . S
C1758 C1761 1.499 . S
C1759 H1733 0.950 . S
C1759 C1758 1.414 . S
C1759 C1760 1.374 . S
C1760 H1734 0.950 . S
C1760 C1756 1.385 . S
C1760 C1759 1.374 . S
C1761 C1758 1.499 . S
C1761 C1762 1.373 . S
C1761 C1763 1.389 . S
C1762 H1735 0.950 . S
C1762 C1748 1.377 1_455 S
C1762 C1761 1.373 . S
C1763 C1747 1.377 1_455 S
C1763 C1761 1.389 . S
C1763 C1764 1.524 . S
C1764 C1763 1.524 . S
C1764 C1765 1.397 . S
C1764 C1769 1.363 . S
C1765 H1736 0.950 . S
C1765 C1764 1.397 . S
C1765 C1766 1.334 . S
C1766 H1737 0.950 . S
C1766 C1765 1.334 . S
C1766 C1767 1.287 . S
C1767 C1766 1.287 . S
C1767 C1768 1.524 . S
C1767 H1770 0.999 . S
C1768 H1738 0.950 . S
C1768 C1767 1.524 . S
C1768 C1769 1.415 . S
C1769 H1739 0.950 . S
C1769 C1764 1.363 . S
C1769 C1768 1.415 . S
H1770 C1767 0.999 . S
H1771 C1752 0.913 . S
H1772 C1790 0.951 . S
H1773 C1792 0.951 . S
H1774 C1794 0.950 . S
H1775 C1795 0.950 . S
H1776 C1797 0.950 . S
H1777 C1800 0.950 . S
H1778 C1801 0.950 . S
H1779 C1803 0.950 . S
H1780 C1804 0.950 . S
H1781 C1805 0.951 . S
H1782 C1807 0.951 . S
H1783 C1809 0.950 . S
H1784 C1810 0.950 . S
H1785 C1812 0.950 . S
H1786 C1815 0.950 . S
H1787 C1816 0.950 . S
H1788 C1818 0.950 . S
H1789 C1819 0.950 . S
C1790 H1772 0.951 . S
C1790 C1791 1.366 . S
C1790 C1792 1.388 . S
C1791 C1790 1.366 . S
C1791 C1795 1.385 . S
C1792 H1773 0.951 . S
C1792 C1790 1.388 . S
C1792 C1793 1.366 . S
C1793 C1792 1.366 . S
C1793 C1794 1.414 . S
C1793 C1796 1.499 . S
C1794 H1774 0.950 . S
C1794 C1793 1.414 . S
C1794 C1795 1.374 . S
C1795 H1775 0.950 . S
C1795 C1791 1.385 . S
C1795 C1794 1.374 . S
C1796 C1793 1.499 . S
C1796 C1797 1.373 . S
C1796 C1798 1.389 . S
C1797 H1776 0.950 . S
C1797 C1796 1.373 . S
C1797 C1813 1.377 . S
C1798 C1796 1.389 . S
C1798 C1799 1.524 . S
C1798 C1812 1.377 . S
C1799 C1798 1.524 . S
C1799 C1800 1.397 . S
C1799 C1804 1.363 1_556 S
C1800 H1777 0.950 . S
C1800 C1799 1.397 . S
C1800 C1801 1.334 1_556 S
C1801 H1778 0.950 . S
C1801 C1800 1.334 1_554 S
C1801 C1802 1.287 . S
C1802 C1801 1.287 . S
C1802 C1803 1.524 . S
C1802 H1821 0.913 . S
C1803 H1779 0.950 . S
C1803 C1802 1.524 . S
C1803 C1804 1.415 . S
C1804 H1780 0.950 . S
C1804 C1799 1.363 1_554 S
C1804 C1803 1.415 . S
C1805 H1781 0.951 . S
C1805 C1806 1.366 . S
C1805 C1807 1.388 . S
C1806 C1805 1.366 . S
C1806 C1810 1.385 . S
C1807 H1782 0.951 . S
C1807 C1805 1.388 . S
C1807 C1808 1.366 . S
C1808 C1807 1.366 . S
C1808 C1809 1.414 . S
C1808 C1811 1.499 . S
C1809 H1783 0.950 . S
C1809 C1808 1.414 . S
C1809 C1810 1.374 . S
C1810 H1784 0.950 . S
C1810 C1806 1.385 . S
C1810 C1809 1.374 . S
C1811 C1808 1.499 . S
C1811 C1812 1.373 . S
C1811 C1813 1.389 . S
C1812 H1785 0.950 . S
C1812 C1798 1.377 . S
C1812 C1811 1.373 . S
C1813 C1797 1.377 . S
C1813 C1811 1.389 . S
C1813 C1814 1.524 . S
C1814 C1813 1.524 . S
C1814 C1815 1.397 . S
C1814 C1819 1.363 . S
C1815 H1786 0.950 . S
C1815 C1814 1.397 . S
C1815 C1816 1.334 . S
C1816 H1787 0.950 . S
C1816 C1815 1.334 . S
C1816 C1817 1.287 . S
C1817 C1816 1.287 . S
C1817 C1818 1.524 . S
C1817 H1820 0.999 . S
C1818 H1788 0.950 . S
C1818 C1817 1.524 . S
C1818 C1819 1.415 . S
C1819 H1789 0.950 . S
C1819 C1814 1.363 . S
C1819 C1818 1.415 . S
H1820 C1817 0.999 . S
H1821 C1802 0.913 . S
H1822 C1840 0.951 . S
H1823 C1842 0.951 . S
H1824 C1844 0.950 . S
H1825 C1845 0.950 . S
H1826 C1847 0.950 . S
H1827 C1850 0.950 . S
H1828 C1851 0.950 . S
H1829 C1853 0.950 . S
H1830 C1854 0.950 . S
H1831 C1855 0.951 . S
H1832 C1857 0.951 . S
H1833 C1859 0.950 . S
H1834 C1860 0.950 . S
H1835 C1862 0.950 . S
H1836 C1865 0.950 1_554 S
H1837 C1866 0.950 . S
H1838 C1868 0.950 . S
H1839 C1869 0.950 . S
C1840 H1822 0.951 . S
C1840 C1841 1.366 . S
C1840 C1842 1.388 . S
C1841 C1840 1.366 . S
C1841 C1845 1.385 . S
C1842 H1823 0.951 . S
C1842 C1840 1.388 . S
C1842 C1843 1.366 . S
C1843 C1842 1.366 . S
C1843 C1844 1.414 . S
C1843 C1846 1.499 . S
C1844 H1824 0.950 . S
C1844 C1843 1.414 . S
C1844 C1845 1.374 . S
C1845 H1825 0.950 . S
C1845 C1841 1.385 . S
C1845 C1844 1.374 . S
C1846 C1843 1.499 . S
C1846 C1847 1.373 . S
C1846 C1848 1.389 . S
C1847 H1826 0.950 . S
C1847 C1846 1.373 . S
C1847 C1863 1.377 . S
C1848 C1846 1.389 . S
C1848 C1849 1.524 . S
C1848 C1862 1.377 . S
C1849 C1848 1.524 . S
C1849 C1850 1.397 . S
C1849 C1854 1.363 . S
C1850 H1827 0.950 . S
C1850 C1849 1.397 . S
C1850 C1851 1.334 . S
C1851 H1828 0.950 . S
C1851 C1850 1.334 . S
C1851 C1852 1.287 . S
C1852 C1851 1.287 . S
C1852 C1853 1.524 . S
C1852 H1871 0.913 . S
C1853 H1829 0.950 . S
C1853 C1852 1.524 . S
C1853 C1854 1.415 . S
C1854 H1830 0.950 . S
C1854 C1849 1.363 . S
C1854 C1853 1.415 . S
C1855 H1831 0.951 . S
C1855 C1856 1.366 . S
C1855 C1857 1.388 . S
C1856 C1855 1.366 . S
C1856 C1860 1.385 . S
C1857 H1832 0.951 . S
C1857 C1855 1.388 . S
C1857 C1858 1.366 . S
C1858 C1857 1.366 . S
C1858 C1859 1.414 . S
C1858 C1861 1.499 . S
C1859 H1833 0.950 . S
C1859 C1858 1.414 . S
C1859 C1860 1.374 . S
C1860 H1834 0.950 . S
C1860 C1856 1.385 . S
C1860 C1859 1.374 . S
C1861 C1858 1.499 . S
C1861 C1862 1.373 . S
C1861 C1863 1.389 . S
C1862 H1835 0.950 . S
C1862 C1848 1.377 . S
C1862 C1861 1.373 . S
C1863 C1847 1.377 . S
C1863 C1861 1.389 . S
C1863 C1864 1.524 . S
C1864 C1863 1.524 . S
C1864 C1865 1.397 1_554 S
C1864 C1869 1.363 1_554 S
C1865 H1836 0.950 1_556 S
C1865 C1864 1.397 1_556 S
C1865 C1866 1.334 . S
C1866 H1837 0.950 . S
C1866 C1865 1.334 . S
C1866 C1867 1.287 . S
C1867 C1866 1.287 . S
C1867 C1868 1.524 . S
C1867 H1870 0.999 . S
C1868 H1838 0.950 . S
C1868 C1867 1.524 . S
C1868 C1869 1.415 . S
C1869 H1839 0.950 . S
C1869 C1864 1.363 1_556 S
C1869 C1868 1.415 . S
H1870 C1867 0.999 . S
H1871 C1852 0.913 . S
C691 C70 1.467 . S
C706 C646 1.457 . S
C741 C562 1.712 . S
C756 C142 1.563 . S
C791 C478 1.544 . S
C806 C226 1.689 . S
C841 C406 1.486 . S
C856 C310 1.476 . S
C891 C242 2.526 . S
C906 C74 2.635 . S
C941 C158 1.705 . S
C956 C326 1.749 . S
C991 C315 1.382 . S
C1006 C147 1.347 . S
C1041 C231 0.553 . S
C1056 C63 0.528 . S
C1091 C410 2.644 1_554 S
C1106 C578 2.568 . S
C1141 C494 1.595 1_556 S
C1156 C662 1.637 1_554 S
C1191 C651 1.427 1_556 S
C1206 C483 1.387 1_554 S
C1241 C567 0.543 . S
C1256 C399 0.476 1_556 S
C1291 C56 1.825 . S
C1306 C67 1.825 . S
C1341 C151 1.807 . S
C1356 C140 1.807 . S
C1391 C224 1.898 . S
C1406 C235 1.898 . S
C1441 C319 1.824 . S
C1456 C308 1.824 . S
C1491 C403 1.826 . S
C1506 C392 1.826 . S
C1541 C487 1.806 . S
C1556 C476 1.806 . S
C1591 C571 1.898 . S
C1606 C560 1.898 . S
C1641 C655 1.824 . S
C1656 C644 1.824 . S
C1691 C58 2.074 . S
C1706 C154 1.903 . S
C1741 C322 1.764 . S
C1756 C238 1.806 . S
C1791 C394 2.072 . S
C1806 C490 1.905 . S
C1841 C658 1.768 . S
C1856 C574 1.804 . S
