# Generated by pormake.
# Topology umq, (4)-cn, num edge types: 1
# Building blocks:
#     Node 0, Type 0, BuildingBlock: QUQFOY_clean_sbu_1, # of connection points: 4
#     Node 1, Type 0, BuildingBlock: QUQFOY_clean_sbu_1, # of connection points: 4
#     Node 2, Type 0, BuildingBlock: QUQFOY_clean_sbu_1, # of connection points: 4
#     Node 3, Type 0, BuildingBlock: QUQFOY_clean_sbu_1, # of connection points: 4
#     Node 4, Type 0, BuildingBlock: QUQFOY_clean_sbu_1, # of connection points: 4
#     Node 5, Type 0, BuildingBlock: QUQFOY_clean_sbu_1, # of connection points: 4
#     Node 6, Type 0, BuildingBlock: QUQFOY_clean_sbu_1, # of connection points: 4
#     Node 7, Type 0, BuildingBlock: QUQFOY_clean_sbu_1, # of connection points: 4
#     Node 8, Type 0, BuildingBlock: QUQFOY_clean_sbu_1, # of connection points: 4
#     Node 9, Type 0, BuildingBlock: QUQFOY_clean_sbu_1, # of connection points: 4
#     Node 10, Type 0, BuildingBlock: QUQFOY_clean_sbu_1, # of connection points: 4
#     Node 11, Type 0, BuildingBlock: QUQFOY_clean_sbu_1, # of connection points: 4
#     Node 12, Type 0, BuildingBlock: QUQFOY_clean_sbu_1, # of connection points: 4
#     Node 13, Type 0, BuildingBlock: QUQFOY_clean_sbu_1, # of connection points: 4
#     Node 14, Type 0, BuildingBlock: QUQFOY_clean_sbu_1, # of connection points: 4
#     Node 15, Type 0, BuildingBlock: QUQFOY_clean_sbu_1, # of connection points: 4
#     Node 16, Type 0, BuildingBlock: QUQFOY_clean_sbu_1, # of connection points: 4
#     Node 17, Type 0, BuildingBlock: QUQFOY_clean_sbu_1, # of connection points: 4
#     Node 18, Type 0, BuildingBlock: QUQFOY_clean_sbu_1, # of connection points: 4
#     Node 19, Type 0, BuildingBlock: QUQFOY_clean_sbu_1, # of connection points: 4
#     Node 20, Type 0, BuildingBlock: QUQFOY_clean_sbu_1, # of connection points: 4
#     Node 21, Type 0, BuildingBlock: QUQFOY_clean_sbu_1, # of connection points: 4
#     Node 22, Type 0, BuildingBlock: QUQFOY_clean_sbu_1, # of connection points: 4
#     Node 23, Type 0, BuildingBlock: QUQFOY_clean_sbu_1, # of connection points: 4
#     Node 24, Type 0, BuildingBlock: QUQFOY_clean_sbu_1, # of connection points: 4
#     Node 25, Type 0, BuildingBlock: QUQFOY_clean_sbu_1, # of connection points: 4
#     Node 26, Type 0, BuildingBlock: QUQFOY_clean_sbu_1, # of connection points: 4
#     Node 27, Type 0, BuildingBlock: QUQFOY_clean_sbu_1, # of connection points: 4
#     Node 28, Type 0, BuildingBlock: QUQFOY_clean_sbu_1, # of connection points: 4
#     Node 29, Type 0, BuildingBlock: QUQFOY_clean_sbu_1, # of connection points: 4
#     Node 30, Type 0, BuildingBlock: QUQFOY_clean_sbu_1, # of connection points: 4
#     Node 31, Type 0, BuildingBlock: QUQFOY_clean_sbu_1, # of connection points: 4
#     Edge 32, Type (0, 0), BuildingBlock: OJICUG_clean_linker_0, # of connection points: 2
#     Edge 33, Type (0, 0), BuildingBlock: OJICUG_clean_linker_0, # of connection points: 2
#     Edge 34, Type (0, 0), BuildingBlock: OJICUG_clean_linker_0, # of connection points: 2
#     Edge 35, Type (0, 0), BuildingBlock: OJICUG_clean_linker_0, # of connection points: 2
#     Edge 36, Type (0, 0), BuildingBlock: OJICUG_clean_linker_0, # of connection points: 2
#     Edge 37, Type (0, 0), BuildingBlock: OJICUG_clean_linker_0, # of connection points: 2
#     Edge 38, Type (0, 0), BuildingBlock: OJICUG_clean_linker_0, # of connection points: 2
#     Edge 39, Type (0, 0), BuildingBlock: OJICUG_clean_linker_0, # of connection points: 2
#     Edge 40, Type (0, 0), BuildingBlock: OJICUG_clean_linker_0, # of connection points: 2
#     Edge 41, Type (0, 0), BuildingBlock: OJICUG_clean_linker_0, # of connection points: 2
#     Edge 42, Type (0, 0), BuildingBlock: OJICUG_clean_linker_0, # of connection points: 2
#     Edge 43, Type (0, 0), BuildingBlock: OJICUG_clean_linker_0, # of connection points: 2
#     Edge 44, Type (0, 0), BuildingBlock: OJICUG_clean_linker_0, # of connection points: 2
#     Edge 45, Type (0, 0), BuildingBlock: OJICUG_clean_linker_0, # of connection points: 2
#     Edge 46, Type (0, 0), BuildingBlock: OJICUG_clean_linker_0, # of connection points: 2
#     Edge 47, Type (0, 0), BuildingBlock: OJICUG_clean_linker_0, # of connection points: 2
#     Edge 48, Type (0, 0), BuildingBlock: OJICUG_clean_linker_0, # of connection points: 2
#     Edge 49, Type (0, 0), BuildingBlock: OJICUG_clean_linker_0, # of connection points: 2
#     Edge 50, Type (0, 0), BuildingBlock: OJICUG_clean_linker_0, # of connection points: 2
#     Edge 51, Type (0, 0), BuildingBlock: OJICUG_clean_linker_0, # of connection points: 2
#     Edge 52, Type (0, 0), BuildingBlock: OJICUG_clean_linker_0, # of connection points: 2
#     Edge 53, Type (0, 0), BuildingBlock: OJICUG_clean_linker_0, # of connection points: 2
#     Edge 54, Type (0, 0), BuildingBlock: OJICUG_clean_linker_0, # of connection points: 2
#     Edge 55, Type (0, 0), BuildingBlock: OJICUG_clean_linker_0, # of connection points: 2
#     Edge 56, Type (0, 0), BuildingBlock: OJICUG_clean_linker_0, # of connection points: 2
#     Edge 57, Type (0, 0), BuildingBlock: OJICUG_clean_linker_0, # of connection points: 2
#     Edge 58, Type (0, 0), BuildingBlock: OJICUG_clean_linker_0, # of connection points: 2
#     Edge 59, Type (0, 0), BuildingBlock: OJICUG_clean_linker_0, # of connection points: 2
#     Edge 60, Type (0, 0), BuildingBlock: OJICUG_clean_linker_0, # of connection points: 2
#     Edge 61, Type (0, 0), BuildingBlock: OJICUG_clean_linker_0, # of connection points: 2
#     Edge 62, Type (0, 0), BuildingBlock: OJICUG_clean_linker_0, # of connection points: 2
#     Edge 63, Type (0, 0), BuildingBlock: OJICUG_clean_linker_0, # of connection points: 2
#     Edge 64, Type (0, 0), BuildingBlock: OJICUG_clean_linker_0, # of connection points: 2
#     Edge 65, Type (0, 0), BuildingBlock: OJICUG_clean_linker_0, # of connection points: 2
#     Edge 66, Type (0, 0), BuildingBlock: OJICUG_clean_linker_0, # of connection points: 2
#     Edge 67, Type (0, 0), BuildingBlock: OJICUG_clean_linker_0, # of connection points: 2
#     Edge 68, Type (0, 0), BuildingBlock: OJICUG_clean_linker_0, # of connection points: 2
#     Edge 69, Type (0, 0), BuildingBlock: OJICUG_clean_linker_0, # of connection points: 2
#     Edge 70, Type (0, 0), BuildingBlock: OJICUG_clean_linker_0, # of connection points: 2
#     Edge 71, Type (0, 0), BuildingBlock: OJICUG_clean_linker_0, # of connection points: 2
#     Edge 72, Type (0, 0), BuildingBlock: OJICUG_clean_linker_0, # of connection points: 2
#     Edge 73, Type (0, 0), BuildingBlock: OJICUG_clean_linker_0, # of connection points: 2
#     Edge 74, Type (0, 0), BuildingBlock: OJICUG_clean_linker_0, # of connection points: 2
#     Edge 75, Type (0, 0), BuildingBlock: OJICUG_clean_linker_0, # of connection points: 2
#     Edge 76, Type (0, 0), BuildingBlock: OJICUG_clean_linker_0, # of connection points: 2
#     Edge 77, Type (0, 0), BuildingBlock: OJICUG_clean_linker_0, # of connection points: 2
#     Edge 78, Type (0, 0), BuildingBlock: OJICUG_clean_linker_0, # of connection points: 2
#     Edge 79, Type (0, 0), BuildingBlock: OJICUG_clean_linker_0, # of connection points: 2
#     Edge 80, Type (0, 0), BuildingBlock: OJICUG_clean_linker_0, # of connection points: 2
#     Edge 81, Type (0, 0), BuildingBlock: OJICUG_clean_linker_0, # of connection points: 2
#     Edge 82, Type (0, 0), BuildingBlock: OJICUG_clean_linker_0, # of connection points: 2
#     Edge 83, Type (0, 0), BuildingBlock: OJICUG_clean_linker_0, # of connection points: 2
#     Edge 84, Type (0, 0), BuildingBlock: OJICUG_clean_linker_0, # of connection points: 2
#     Edge 85, Type (0, 0), BuildingBlock: OJICUG_clean_linker_0, # of connection points: 2
#     Edge 86, Type (0, 0), BuildingBlock: OJICUG_clean_linker_0, # of connection points: 2
#     Edge 87, Type (0, 0), BuildingBlock: OJICUG_clean_linker_0, # of connection points: 2
#     Edge 88, Type (0, 0), BuildingBlock: OJICUG_clean_linker_0, # of connection points: 2
#     Edge 89, Type (0, 0), BuildingBlock: OJICUG_clean_linker_0, # of connection points: 2
#     Edge 90, Type (0, 0), BuildingBlock: OJICUG_clean_linker_0, # of connection points: 2
#     Edge 91, Type (0, 0), BuildingBlock: OJICUG_clean_linker_0, # of connection points: 2
#     Edge 92, Type (0, 0), BuildingBlock: OJICUG_clean_linker_0, # of connection points: 2
#     Edge 93, Type (0, 0), BuildingBlock: OJICUG_clean_linker_0, # of connection points: 2
#     Edge 94, Type (0, 0), BuildingBlock: OJICUG_clean_linker_0, # of connection points: 2
#     Edge 95, Type (0, 0), BuildingBlock: OJICUG_clean_linker_0, # of connection points: 2
# Relax obj value: 0.031
# Max RMSD: 0.084
# Mean RMSD: 0.084
data_MOF--net-umq--node1-QUQFOY_clean_sbu_1--edge1-OJICUG_clean_linker_0
_symmetry_space_group_name_H-M    P1
_symmetry_Int_Tables_number       1
_symmetry_cell_setting            triclinic
loop_
_symmetry_equiv_pos_as_xyz
'x, y, z'
_cell_length_a     49.381522
_cell_length_b     49.387924
_cell_length_c     37.688616
_cell_angle_alpha  90.017442
_cell_angle_beta   90.008913
_cell_angle_gamma 90.002084
loop_
_atom_site_label
_atom_site_type_symbol
_atom_site_fract_x
_atom_site_fract_y
_atom_site_fract_z
_atom_type_partial_charge
O0 O 0.20492 0.10804 0.23027 0.0
Cd1 Cd 0.23818 0.08962 0.20841 0.0
Cd2 Cd 0.21477 0.11349 0.14613 0.0
O3 O 0.18417 0.12229 0.18191 0.0
O4 O 0.2511 0.06742 0.24899 0.0
O5 O 0.23751 0.04975 0.19806 0.0
C6 C 0.24614 0.04628 0.23011 0.0
C7 C 0.20309 0.10567 0.08648 0.0
C8 C 0.18492 0.11953 0.21545 0.0
C9 C 0.27071 0.13186 0.17143 0.0
O10 O 0.25048 0.135 0.15099 0.0
O11 O 0.27052 0.11374 0.19532 0.0
O12 O 0.20003 0.12894 0.10127 0.0
O13 O 0.21191 0.08608 0.10599 0.0
O14 O 0.87818 0.20699 0.23043 0.0
Cd15 Cd 0.89625 0.24031 0.20825 0.0
Cd16 Cd 0.87265 0.21642 0.14629 0.0
O17 O 0.86427 0.18581 0.18221 0.0
O18 O 0.91856 0.25356 0.24855 0.0
O19 O 0.93607 0.23983 0.19758 0.0
C20 C 0.93964 0.24859 0.22955 0.0
C21 C 0.88072 0.2047 0.08673 0.0
C22 C 0.86698 0.18676 0.21575 0.0
C23 C 0.8536 0.27222 0.17121 0.0
O24 O 0.85065 0.25185 0.15095 0.0
O25 O 0.8718 0.27236 0.19502 0.0
O26 O 0.85747 0.20135 0.10146 0.0
O27 O 0.90016 0.21383 0.10627 0.0
O28 O 0.78155 0.87833 0.23131 0.0
Cd29 Cd 0.74834 0.8967 0.20928 0.0
Cd30 Cd 0.77199 0.87296 0.14709 0.0
O31 O 0.80252 0.86424 0.18302 0.0
O32 O 0.73528 0.919 0.2497 0.0
O33 O 0.74903 0.93652 0.19875 0.0
C34 C 0.7403 0.94009 0.23074 0.0
C35 C 0.78378 0.88083 0.0875 0.0
C36 C 0.80164 0.86694 0.21657 0.0
C37 C 0.71599 0.85446 0.172 0.0
O38 O 0.73631 0.85138 0.15168 0.0
O39 O 0.71607 0.87255 0.19595 0.0
O40 O 0.78688 0.85757 0.10229 0.0
O41 O 0.77489 0.90039 0.10701 0.0
O42 O 0.10832 0.77913 0.23161 0.0
Cd43 Cd 0.09025 0.7458 0.20945 0.0
Cd44 Cd 0.11366 0.76975 0.14738 0.0
O45 O 0.122 0.80037 0.18334 0.0
O46 O 0.06795 0.73254 0.24974 0.0
O47 O 0.05044 0.7463 0.19878 0.0
C48 C 0.04686 0.73753 0.23074 0.0
C49 C 0.10568 0.78153 0.08781 0.0
C50 C 0.11939 0.7994 0.2169 0.0
C51 C 0.13283 0.71396 0.17221 0.0
O52 O 0.1357 0.73435 0.15197 0.0
O53 O 0.1147 0.71377 0.19609 0.0
O54 O 0.1289 0.78488 0.10263 0.0
O55 O 0.08622 0.77237 0.10727 0.0
O56 O 0.20533 0.8778 0.29154 0.0
Cd57 Cd 0.23851 0.8963 0.3135 0.0
Cd58 Cd 0.21512 0.87237 0.37567 0.0
O59 O 0.18454 0.86354 0.33986 0.0
O60 O 0.25142 0.91856 0.27297 0.0
O61 O 0.2377 0.93616 0.32388 0.0
C62 C 0.24635 0.93967 0.29186 0.0
C63 C 0.20338 0.8803 0.43526 0.0
C64 C 0.18533 0.8663 0.30632 0.0
C65 C 0.27112 0.85413 0.35053 0.0
O66 O 0.25086 0.85091 0.37091 0.0
O67 O 0.27091 0.87228 0.32667 0.0
O68 O 0.20035 0.857 0.42054 0.0
O69 O 0.21221 0.89986 0.41569 0.0
O70 O 0.10788 0.20674 0.29003 0.0
Cd71 Cd 0.0898 0.24011 0.3121 0.0
Cd72 Cd 0.11329 0.2162 0.37429 0.0
O73 O 0.12166 0.18559 0.33832 0.0
O74 O 0.06755 0.25335 0.27174 0.0
O75 O 0.04998 0.23966 0.32269 0.0
C76 C 0.04644 0.24843 0.29072 0.0
C77 C 0.10538 0.20445 0.43388 0.0
C78 C 0.11901 0.18651 0.30477 0.0
C79 C 0.13231 0.27205 0.34943 0.0
O80 O 0.13521 0.25168 0.3697 0.0
O81 O 0.11421 0.27216 0.32549 0.0
O82 O 0.1286 0.20114 0.41905 0.0
O83 O 0.08588 0.21353 0.41442 0.0
O84 O 0.78093 0.1088 0.29089 0.0
Cd85 Cd 0.74783 0.09038 0.31316 0.0
Cd86 Cd 0.7715 0.11423 0.375 0.0
O87 O 0.80202 0.1229 0.33907 0.0
O88 O 0.73476 0.06795 0.27288 0.0
O89 O 0.74873 0.05057 0.3238 0.0
C90 C 0.73995 0.04692 0.29186 0.0
C91 C 0.78326 0.10615 0.43453 0.0
C92 C 0.80106 0.12019 0.30553 0.0
C93 C 0.71549 0.13269 0.35025 0.0
O94 O 0.73587 0.1359 0.37043 0.0
O95 O 0.71551 0.11445 0.32649 0.0
O96 O 0.78644 0.12944 0.41988 0.0
O97 O 0.77429 0.08667 0.41492 0.0
O98 O 0.87878 0.77992 0.29126 0.0
Cd99 Cd 0.89675 0.74648 0.31329 0.0
Cd100 Cd 0.87309 0.77024 0.37539 0.0
O101 O 0.86475 0.80092 0.33956 0.0
O102 O 0.91896 0.73323 0.2729 0.0
O103 O 0.93658 0.74675 0.32391 0.0
C104 C 0.94008 0.73802 0.29191 0.0
C105 C 0.88116 0.78189 0.43499 0.0
C106 C 0.86754 0.80009 0.30602 0.0
C107 C 0.85405 0.7145 0.35021 0.0
O108 O 0.85111 0.73481 0.3706 0.0
O109 O 0.87223 0.71445 0.32638 0.0
O110 O 0.85791 0.78524 0.42026 0.0
O111 O 0.9006 0.77278 0.41544 0.0
O112 O 0.78182 0.87837 0.79126 0.0
Cd113 Cd 0.74851 0.89665 0.81317 0.0
Cd114 Cd 0.77199 0.87278 0.87539 0.0
O115 O 0.80258 0.86405 0.83958 0.0
O116 O 0.73547 0.91883 0.77264 0.0
O117 O 0.749 0.93651 0.82361 0.0
C118 C 0.74033 0.93997 0.79157 0.0
C119 C 0.7837 0.88069 0.93501 0.0
C120 C 0.80183 0.86687 0.80605 0.0
C121 C 0.7161 0.85427 0.8501 0.0
O122 O 0.73633 0.85118 0.87057 0.0
O123 O 0.71626 0.8724 0.82622 0.0
O124 O 0.7868 0.85741 0.92026 0.0
O125 O 0.77482 0.90024 0.91547 0.0
O126 O 0.1083 0.78003 0.79163 0.0
Cd127 Cd 0.09027 0.74662 0.8136 0.0
Cd128 Cd 0.11391 0.77034 0.8757 0.0
O129 O 0.1223 0.80105 0.83994 0.0
O130 O 0.06808 0.73344 0.77314 0.0
O131 O 0.05042 0.74693 0.82412 0.0
C132 C 0.04694 0.73825 0.79209 0.0
C133 C 0.10582 0.78187 0.93533 0.0
C134 C 0.11955 0.8002 0.8064 0.0
C135 C 0.13298 0.71464 0.85047 0.0
O136 O 0.13592 0.73494 0.87085 0.0
O137 O 0.11478 0.71456 0.82666 0.0
O138 O 0.12907 0.78527 0.92063 0.0
O139 O 0.08639 0.77279 0.91573 0.0
O140 O 0.20558 0.10837 0.79021 0.0
Cd141 Cd 0.2388 0.09011 0.8124 0.0
Cd142 Cd 0.21502 0.11378 0.87443 0.0
O143 O 0.18449 0.12238 0.83845 0.0
O144 O 0.25195 0.06771 0.77212 0.0
O145 O 0.23813 0.05031 0.82311 0.0
C146 C 0.2469 0.04667 0.79116 0.0
C147 C 0.2032 0.1058 0.93398 0.0
C148 C 0.18542 0.11969 0.8049 0.0
C149 C 0.27098 0.13247 0.84964 0.0
O150 O 0.25062 0.13551 0.8699 0.0
O151 O 0.27099 0.11435 0.82573 0.0
O152 O 0.20003 0.12907 0.91924 0.0
O153 O 0.21219 0.0863 0.91445 0.0
O154 O 0.87825 0.20664 0.79048 0.0
Cd155 Cd 0.89642 0.23998 0.81246 0.0
Cd156 Cd 0.87288 0.21627 0.87465 0.0
O157 O 0.8644 0.1856 0.83882 0.0
O158 O 0.91866 0.2531 0.77204 0.0
O159 O 0.93625 0.23947 0.823 0.0
C160 C 0.93978 0.24816 0.791 0.0
C161 C 0.88085 0.20461 0.93426 0.0
C162 C 0.86704 0.18647 0.80527 0.0
C163 C 0.85391 0.27206 0.84958 0.0
O164 O 0.85098 0.25174 0.86992 0.0
O165 O 0.87205 0.27211 0.82569 0.0
O166 O 0.85761 0.20131 0.91948 0.0
O167 O 0.90034 0.21365 0.91474 0.0
O168 O 0.78063 0.1085 0.73074 0.0
Cd169 Cd 0.74746 0.09007 0.70866 0.0
Cd170 Cd 0.77105 0.11381 0.64653 0.0
O171 O 0.8016 0.12251 0.68243 0.0
O172 O 0.73446 0.06773 0.74905 0.0
O173 O 0.74832 0.05024 0.69813 0.0
C174 C 0.73961 0.04666 0.73011 0.0
C175 C 0.78293 0.10594 0.58697 0.0
C176 C 0.80074 0.11985 0.71598 0.0
C177 C 0.71505 0.13228 0.67146 0.0
O178 O 0.73537 0.13541 0.65116 0.0
O179 O 0.71514 0.11415 0.69534 0.0
O180 O 0.78598 0.12921 0.60176 0.0
O181 O 0.77399 0.08638 0.60644 0.0
O182 O 0.87881 0.77972 0.73128 0.0
Cd183 Cd 0.8969 0.74639 0.70915 0.0
Cd184 Cd 0.87338 0.77034 0.64706 0.0
O185 O 0.86507 0.80096 0.68302 0.0
O186 O 0.91912 0.73312 0.74952 0.0
O187 O 0.93674 0.74688 0.69863 0.0
C188 C 0.94025 0.7381 0.7306 0.0
C189 C 0.88136 0.78204 0.58747 0.0
C190 C 0.86771 0.79999 0.71657 0.0
C191 C 0.85434 0.7145 0.67184 0.0
O192 O 0.8514 0.7349 0.65165 0.0
O193 O 0.8725 0.71433 0.69571 0.0
O194 O 0.85814 0.78541 0.60228 0.0
O195 O 0.90083 0.77292 0.60696 0.0
O196 O 0.20591 0.87795 0.73147 0.0
Cd197 Cd 0.23907 0.89626 0.70921 0.0
Cd198 Cd 0.2153 0.87249 0.64726 0.0
O199 O 0.18479 0.86392 0.68327 0.0
O200 O 0.25221 0.91872 0.74944 0.0
O201 O 0.23827 0.93606 0.69847 0.0
C202 C 0.24707 0.93973 0.7304 0.0
C203 C 0.20343 0.8804 0.58772 0.0
C204 C 0.18574 0.86663 0.71681 0.0
C205 C 0.27131 0.85394 0.672 0.0
O206 O 0.25093 0.85081 0.6518 0.0
O207 O 0.27131 0.87211 0.69584 0.0
O208 O 0.20028 0.85715 0.60249 0.0
O209 O 0.21243 0.89993 0.60721 0.0
O210 O 0.10797 0.20635 0.7301 0.0
Cd211 Cd 0.08985 0.23971 0.70811 0.0
Cd212 Cd 0.11361 0.21607 0.64599 0.0
O213 O 0.12209 0.18541 0.6818 0.0
O214 O 0.06762 0.25284 0.74855 0.0
O215 O 0.05 0.23928 0.69757 0.0
C216 C 0.04649 0.24797 0.72958 0.0
C217 C 0.10559 0.20444 0.58637 0.0
C218 C 0.11929 0.18623 0.71534 0.0
C219 C 0.13242 0.27187 0.67122 0.0
O220 O 0.13545 0.25158 0.65083 0.0
O221 O 0.11423 0.27186 0.69503 0.0
O222 O 0.12886 0.20117 0.6011 0.0
O223 O 0.08612 0.21345 0.60594 0.0
O224 O 0.7059 0.60827 0.73016 0.0
Cd225 Cd 0.73908 0.58989 0.70806 0.0
Cd226 Cd 0.71555 0.61377 0.64602 0.0
O227 O 0.68498 0.62246 0.68189 0.0
O228 O 0.75208 0.56754 0.74844 0.0
O229 O 0.73831 0.55006 0.69747 0.0
C230 C 0.747 0.54647 0.72947 0.0
C231 C 0.70374 0.60586 0.58644 0.0
C232 C 0.68583 0.61971 0.71542 0.0
C233 C 0.7715 0.63223 0.67113 0.0
O234 O 0.75121 0.63539 0.65078 0.0
O235 O 0.77139 0.61404 0.69493 0.0
O236 O 0.70066 0.62914 0.6012 0.0
O237 O 0.71267 0.58632 0.60594 0.0
O238 O 0.37912 0.70671 0.73044 0.0
Cd239 Cd 0.39716 0.74005 0.70827 0.0
Cd240 Cd 0.37353 0.71623 0.64634 0.0
O241 O 0.36521 0.68556 0.6822 0.0
O242 O 0.41945 0.75331 0.7486 0.0
O243 O 0.43698 0.73963 0.69762 0.0
C244 C 0.44054 0.74839 0.7296 0.0
C245 C 0.38168 0.70462 0.58676 0.0
C246 C 0.36792 0.68649 0.71574 0.0
C247 C 0.35443 0.77196 0.67137 0.0
O248 O 0.35146 0.7516 0.65109 0.0
O249 O 0.37268 0.7721 0.69511 0.0
O250 O 0.35843 0.70119 0.60146 0.0
O251 O 0.40108 0.71378 0.60635 0.0
O252 O 0.28047 0.37825 0.73132 0.0
Cd253 Cd 0.24733 0.3966 0.70908 0.0
Cd254 Cd 0.27113 0.37291 0.64711 0.0
O255 O 0.30166 0.36436 0.6831 0.0
O256 O 0.23425 0.41907 0.74931 0.0
O257 O 0.24822 0.43639 0.69835 0.0
C258 C 0.23945 0.44008 0.73029 0.0
C259 C 0.28292 0.38078 0.58753 0.0
C260 C 0.30067 0.36699 0.71665 0.0
C261 C 0.21513 0.35427 0.67186 0.0
O262 O 0.23553 0.35117 0.65169 0.0
O263 O 0.21508 0.37244 0.69569 0.0
O264 O 0.28611 0.35755 0.60234 0.0
O265 O 0.27393 0.40032 0.60701 0.0
O266 O 0.60777 0.27973 0.73069 0.0
Cd267 Cd 0.58959 0.24643 0.70861 0.0
Cd268 Cd 0.61309 0.27022 0.6465 0.0
O269 O 0.62155 0.30085 0.68238 0.0
O270 O 0.56735 0.23325 0.74901 0.0
O271 O 0.54974 0.24699 0.69811 0.0
C272 C 0.54623 0.23826 0.73009 0.0
C273 C 0.60501 0.28197 0.58696 0.0
C274 C 0.61894 0.29993 0.71594 0.0
C275 C 0.63208 0.2144 0.6714 0.0
O276 O 0.63503 0.23476 0.65112 0.0
O277 O 0.61393 0.21431 0.69527 0.0
O278 O 0.62827 0.28527 0.60168 0.0
O279 O 0.58557 0.27285 0.60649 0.0
O280 O 0.70521 0.37807 0.79042 0.0
Cd281 Cd 0.7385 0.39639 0.81235 0.0
Cd282 Cd 0.71496 0.37262 0.87464 0.0
O283 O 0.6844 0.36387 0.83876 0.0
O284 O 0.75153 0.41863 0.77186 0.0
O285 O 0.7379 0.43624 0.82282 0.0
C286 C 0.74658 0.43974 0.79081 0.0
C287 C 0.70312 0.38046 0.93422 0.0
C288 C 0.68517 0.36663 0.80523 0.0
C289 C 0.77092 0.35415 0.84952 0.0
O290 O 0.75067 0.35109 0.86995 0.0
O291 O 0.77076 0.37221 0.82555 0.0
O292 O 0.7001 0.35719 0.91943 0.0
O293 O 0.712 0.40004 0.91474 0.0
O294 O 0.60874 0.70672 0.79019 0.0
Cd295 Cd 0.59068 0.7401 0.81223 0.0
Cd296 Cd 0.61418 0.71623 0.87437 0.0
O297 O 0.62255 0.68558 0.83847 0.0
O298 O 0.56843 0.75332 0.77186 0.0
O299 O 0.55085 0.73967 0.82281 0.0
C300 C 0.54732 0.7484 0.79083 0.0
C301 C 0.60616 0.7046 0.93397 0.0
C302 C 0.61988 0.68649 0.80493 0.0
C303 C 0.63324 0.77203 0.84946 0.0
O304 O 0.63615 0.75167 0.86972 0.0
O305 O 0.6151 0.77216 0.82557 0.0
O306 O 0.62939 0.70123 0.91921 0.0
O307 O 0.5867 0.71369 0.91443 0.0
O308 O 0.28171 0.60858 0.7906 0.0
Cd309 Cd 0.24842 0.59035 0.81264 0.0
Cd310 Cd 0.2721 0.61416 0.87481 0.0
O311 O 0.30263 0.6228 0.83887 0.0
O312 O 0.23529 0.56805 0.77225 0.0
O313 O 0.24897 0.55052 0.82323 0.0
C314 C 0.24022 0.54696 0.79125 0.0
C315 C 0.2839 0.60627 0.93439 0.0
C316 C 0.30179 0.62 0.80533 0.0
C317 C 0.21613 0.63269 0.84984 0.0
O318 O 0.23643 0.63576 0.87018 0.0
O319 O 0.21621 0.61459 0.8259 0.0
O320 O 0.28701 0.62953 0.91962 0.0
O321 O 0.27498 0.58672 0.91487 0.0
O322 O 0.37819 0.28039 0.79143 0.0
Cd323 Cd 0.39629 0.24699 0.81334 0.0
Cd324 Cd 0.37254 0.27062 0.87552 0.0
O325 O 0.36408 0.30131 0.83975 0.0
O326 O 0.41843 0.23386 0.7728 0.0
O327 O 0.43616 0.24733 0.82377 0.0
C328 C 0.43959 0.23867 0.79173 0.0
C329 C 0.38052 0.28216 0.93518 0.0
C330 C 0.36687 0.30051 0.80621 0.0
C331 C 0.3537 0.21485 0.85022 0.0
O332 O 0.35069 0.23513 0.87063 0.0
O333 O 0.37188 0.21486 0.8264 0.0
O334 O 0.35727 0.28548 0.92042 0.0
O335 O 0.4 0.27318 0.91562 0.0
O336 O 0.2809 0.37799 0.29133 0.0
Cd337 Cd 0.24775 0.39649 0.31332 0.0
Cd338 Cd 0.27114 0.37262 0.37544 0.0
O339 O 0.30174 0.36381 0.33967 0.0
O340 O 0.23489 0.41888 0.27289 0.0
O341 O 0.24866 0.43632 0.32389 0.0
C342 C 0.24004 0.43994 0.29187 0.0
C343 C 0.28284 0.38057 0.43505 0.0
C344 C 0.30093 0.36651 0.30612 0.0
C345 C 0.21518 0.35427 0.35023 0.0
O346 O 0.23544 0.35109 0.37062 0.0
O347 O 0.21535 0.37245 0.3264 0.0
O348 O 0.2859 0.35727 0.42034 0.0
O349 O 0.274 0.40011 0.41547 0.0
O350 O 0.60768 0.27972 0.29082 0.0
Cd351 Cd 0.58966 0.24643 0.31312 0.0
Cd352 Cd 0.6132 0.27044 0.37497 0.0
O353 O 0.62148 0.30104 0.33899 0.0
O354 O 0.56738 0.23305 0.27288 0.0
O355 O 0.54985 0.24686 0.3238 0.0
C356 C 0.54629 0.23801 0.29187 0.0
C357 C 0.60504 0.28216 0.43451 0.0
C358 C 0.61881 0.30002 0.30545 0.0
C359 C 0.63237 0.21466 0.35025 0.0
O360 O 0.63532 0.23509 0.37041 0.0
O361 O 0.61414 0.21443 0.32649 0.0
O362 O 0.62828 0.28561 0.4198 0.0
O363 O 0.58565 0.27294 0.41495 0.0
O364 O 0.70567 0.60858 0.29023 0.0
Cd365 Cd 0.73878 0.59012 0.3124 0.0
Cd366 Cd 0.71509 0.61382 0.3744 0.0
O367 O 0.68455 0.62251 0.33848 0.0
O368 O 0.75181 0.56769 0.27209 0.0
O369 O 0.73785 0.55031 0.32302 0.0
C370 C 0.7466 0.54666 0.29106 0.0
C371 C 0.70335 0.60584 0.43397 0.0
C372 C 0.68551 0.61989 0.30492 0.0
C373 C 0.77109 0.63236 0.34965 0.0
O374 O 0.75071 0.63549 0.36984 0.0
O375 O 0.77109 0.61419 0.3258 0.0
O376 O 0.70017 0.62911 0.41925 0.0
O377 O 0.71229 0.58633 0.41441 0.0
O378 O 0.37897 0.70723 0.29053 0.0
Cd379 Cd 0.39702 0.74057 0.31271 0.0
Cd380 Cd 0.37366 0.71655 0.37476 0.0
O381 O 0.36537 0.68593 0.33879 0.0
O382 O 0.41923 0.75391 0.27239 0.0
O383 O 0.43685 0.74013 0.32327 0.0
C384 C 0.44036 0.74894 0.29132 0.0
C385 C 0.38176 0.70478 0.4343 0.0
C386 C 0.36794 0.68693 0.30523 0.0
C387 C 0.35441 0.77233 0.35005 0.0
O388 O 0.35155 0.75191 0.37024 0.0
O389 O 0.37255 0.77256 0.32617 0.0
O390 O 0.35853 0.70137 0.41954 0.0
O391 O 0.40117 0.714 0.4148 0.0
O392 O 0.28206 0.60842 0.23068 0.0
Cd393 Cd 0.24879 0.59001 0.20884 0.0
Cd394 Cd 0.27213 0.61398 0.14651 0.0
O395 O 0.30271 0.62282 0.18232 0.0
O396 O 0.23586 0.56778 0.24939 0.0
O397 O 0.24941 0.55015 0.19842 0.0
C398 C 0.24078 0.54666 0.23046 0.0
C399 C 0.28387 0.6062 0.08688 0.0
C400 C 0.30201 0.61999 0.21586 0.0
C401 C 0.21615 0.6322 0.17183 0.0
O402 O 0.23636 0.63537 0.15134 0.0
O403 O 0.21643 0.61411 0.19576 0.0
O404 O 0.28685 0.62948 0.10168 0.0
O405 O 0.27511 0.58658 0.10638 0.0
O406 O 0.37799 0.27934 0.23149 0.0
Cd407 Cd 0.3961 0.24601 0.2094 0.0
Cd408 Cd 0.37261 0.2699 0.14723 0.0
O409 O 0.36419 0.30049 0.1832 0.0
O410 O 0.41839 0.2328 0.24974 0.0
O411 O 0.43592 0.24652 0.19878 0.0
C412 C 0.43947 0.23776 0.23075 0.0
C413 C 0.38055 0.28173 0.08767 0.0
C414 C 0.36683 0.29956 0.21675 0.0
C415 C 0.35363 0.21404 0.17207 0.0
O416 O 0.35073 0.2344 0.15179 0.0
O417 O 0.37171 0.21394 0.19602 0.0
O418 O 0.35731 0.28497 0.10247 0.0
O419 O 0.40005 0.27264 0.10714 0.0
O420 O 0.70478 0.3781 0.23045 0.0
Cd421 Cd 0.73802 0.39644 0.20844 0.0
Cd422 Cd 0.71446 0.37254 0.14631 0.0
O423 O 0.6839 0.36382 0.18219 0.0
O424 O 0.75105 0.41875 0.24887 0.0
O425 O 0.73736 0.43628 0.1979 0.0
C426 C 0.74607 0.43984 0.2299 0.0
C427 C 0.70274 0.38045 0.08671 0.0
C428 C 0.68473 0.36663 0.21572 0.0
C429 C 0.77044 0.35415 0.17135 0.0
O430 O 0.75015 0.351 0.15101 0.0
O431 O 0.77031 0.37229 0.19524 0.0
O432 O 0.69963 0.35717 0.10144 0.0
O433 O 0.7116 0.4 0.10626 0.0
O434 O 0.60834 0.70687 0.23024 0.0
Cd435 Cd 0.59034 0.74032 0.20831 0.0
Cd436 Cd 0.61403 0.71662 0.14609 0.0
O437 O 0.62242 0.68594 0.18192 0.0
O438 O 0.56819 0.75351 0.24879 0.0
O439 O 0.55049 0.74006 0.1978 0.0
C440 C 0.54703 0.74873 0.22983 0.0
C441 C 0.60612 0.70493 0.08647 0.0
C442 C 0.61961 0.68673 0.21545 0.0
C443 C 0.63299 0.77236 0.17138 0.0
O444 O 0.63593 0.75209 0.15095 0.0
O445 O 0.61484 0.77238 0.19524 0.0
O446 O 0.62935 0.70166 0.10128 0.0
O447 O 0.58662 0.71399 0.10595 0.0
C448 C 0.33523 0.1697 0.19382 0.0
C449 C 0.3344 0.19114 0.16932 0.0
H450 H 0.31586 0.13402 0.21363 0.0
C451 C 0.31381 0.19148 0.14356 0.0
H452 H 0.35089 0.16875 0.2139 0.0
C453 C 0.29375 0.17159 0.1434 0.0
C454 C 0.29379 0.15089 0.16899 0.0
H455 H 0.31266 0.20758 0.12411 0.0
H456 H 0.27773 0.17296 0.12384 0.0
C457 C 0.31513 0.14977 0.19366 0.0
C458 C 0.81357 0.29466 0.14307 0.0
C459 C 0.83429 0.29505 0.16864 0.0
H460 H 0.77734 0.31307 0.12367 0.0
C461 C 0.83516 0.31649 0.19318 0.0
H462 H 0.81238 0.27856 0.1236 0.0
C463 C 0.81499 0.33634 0.19323 0.0
C464 C 0.79354 0.33517 0.16874 0.0
H465 H 0.85092 0.31748 0.21314 0.0
H466 H 0.81577 0.35209 0.21321 0.0
C467 C 0.79344 0.31448 0.14311 0.0
C468 C 0.67298 0.79497 0.14338 0.0
C469 C 0.65226 0.79524 0.16895 0.0
H470 H 0.70917 0.81352 0.12409 0.0
C471 C 0.65135 0.81659 0.19361 0.0
H472 H 0.67419 0.77894 0.12382 0.0
C473 C 0.67148 0.83649 0.19377 0.0
C474 C 0.69292 0.83544 0.16927 0.0
H475 H 0.63559 0.81749 0.21356 0.0
H476 H 0.67067 0.85217 0.21383 0.0
C477 C 0.69307 0.81483 0.14353 0.0
C478 C 0.17164 0.64991 0.19396 0.0
C479 C 0.19299 0.65112 0.16934 0.0
H480 H 0.13575 0.66871 0.21409 0.0
C481 C 0.19296 0.6718 0.14372 0.0
H482 H 0.17097 0.63417 0.21394 0.0
C483 C 0.17279 0.69159 0.14381 0.0
C484 C 0.15217 0.69116 0.16951 0.0
H485 H 0.20899 0.67324 0.12419 0.0
H486 H 0.17388 0.70768 0.12435 0.0
C487 C 0.15143 0.66973 0.19404 0.0
C488 C 0.31569 0.83647 0.32851 0.0
C489 C 0.29427 0.83518 0.35302 0.0
H490 H 0.35162 0.81773 0.30843 0.0
C491 C 0.29421 0.81441 0.37851 0.0
H492 H 0.31643 0.85229 0.30864 0.0
C493 C 0.31437 0.79461 0.37839 0.0
C494 C 0.33506 0.79512 0.35279 0.0
H495 H 0.27813 0.8129 0.39795 0.0
H496 H 0.31322 0.77845 0.39775 0.0
C497 C 0.33588 0.81664 0.3284 0.0
C498 C 0.19218 0.31449 0.37816 0.0
C499 C 0.1921 0.33523 0.35264 0.0
H500 H 0.17331 0.27845 0.39736 0.0
C501 C 0.17076 0.33637 0.32798 0.0
H502 H 0.2082 0.3131 0.39771 0.0
C503 C 0.15068 0.31643 0.32778 0.0
C504 C 0.15153 0.29494 0.35222 0.0
H505 H 0.17001 0.35216 0.30806 0.0
H506 H 0.13501 0.3174 0.30771 0.0
C507 C 0.17213 0.29458 0.37796 0.0
C508 C 0.67083 0.15038 0.32859 0.0
C509 C 0.69241 0.1517 0.35288 0.0
H510 H 0.63482 0.16913 0.3088 0.0
C511 C 0.69267 0.17255 0.37827 0.0
H512 H 0.66994 0.1345 0.3088 0.0
C513 C 0.67255 0.19239 0.37827 0.0
C514 C 0.6517 0.19184 0.35288 0.0
H515 H 0.70887 0.17408 0.39754 0.0
H516 H 0.67385 0.20861 0.39754 0.0
C517 C 0.65068 0.17025 0.3286 0.0
C518 C 0.81566 0.65028 0.32801 0.0
C519 C 0.79414 0.6514 0.35238 0.0
H520 H 0.8516 0.66923 0.30829 0.0
C521 C 0.7939 0.67211 0.37798 0.0
H522 H 0.81654 0.63453 0.30804 0.0
C523 C 0.81398 0.69199 0.37813 0.0
C524 C 0.83477 0.69164 0.35267 0.0
H525 H 0.77774 0.67348 0.39733 0.0
H526 H 0.81269 0.70809 0.39757 0.0
C527 C 0.83577 0.6702 0.32815 0.0
C528 C 0.6717 0.83632 0.82789 0.0
C529 C 0.69305 0.8352 0.85252 0.0
H530 H 0.63592 0.81735 0.80768 0.0
C531 C 0.69315 0.81446 0.87806 0.0
H532 H 0.67093 0.8521 0.80796 0.0
C533 C 0.6731 0.79456 0.87789 0.0
C534 C 0.65248 0.79491 0.85219 0.0
H535 H 0.70919 0.81308 0.89759 0.0
H536 H 0.67429 0.77843 0.89731 0.0
C537 C 0.65161 0.81638 0.82772 0.0
C538 C 0.17306 0.69215 0.87841 0.0
C539 C 0.15231 0.69181 0.85288 0.0
H540 H 0.20932 0.67369 0.89765 0.0
C541 C 0.15141 0.67044 0.82826 0.0
H542 H 0.17428 0.7082 0.89794 0.0
C543 C 0.17157 0.65058 0.82809 0.0
C544 C 0.19305 0.65169 0.85255 0.0
H545 H 0.13562 0.66949 0.80834 0.0
H546 H 0.17077 0.63487 0.80805 0.0
C547 C 0.19319 0.67233 0.87824 0.0
C548 C 0.33551 0.17053 0.82807 0.0
C549 C 0.33449 0.19192 0.85266 0.0
H550 H 0.31634 0.13485 0.8079 0.0
C551 C 0.31374 0.19216 0.87818 0.0
H552 H 0.3513 0.16965 0.80815 0.0
C553 C 0.29372 0.17223 0.87803 0.0
C554 C 0.29397 0.15158 0.85236 0.0
H555 H 0.31244 0.20822 0.89769 0.0
H556 H 0.27758 0.17352 0.89743 0.0
C557 C 0.31545 0.15056 0.82792 0.0
C558 C 0.814 0.29463 0.87781 0.0
C559 C 0.83466 0.29494 0.85216 0.0
H560 H 0.77786 0.31316 0.89729 0.0
C561 C 0.83552 0.31632 0.82756 0.0
H562 H 0.81283 0.27858 0.89732 0.0
C563 C 0.81539 0.33622 0.82755 0.0
C564 C 0.794 0.33514 0.85212 0.0
H565 H 0.85123 0.31724 0.80755 0.0
H566 H 0.81616 0.35193 0.80752 0.0
C567 C 0.79391 0.3145 0.8778 0.0
C568 C 0.65039 0.17005 0.69325 0.0
C569 C 0.65133 0.19152 0.66879 0.0
H570 H 0.66967 0.13437 0.7132 0.0
C571 C 0.67207 0.19189 0.64324 0.0
H572 H 0.63461 0.16907 0.71317 0.0
C573 C 0.69215 0.17202 0.64326 0.0
C574 C 0.69198 0.1513 0.66882 0.0
H575 H 0.67331 0.20801 0.62383 0.0
H576 H 0.70827 0.17342 0.62386 0.0
C577 C 0.6705 0.15014 0.69327 0.0
C578 C 0.81596 0.65012 0.69323 0.0
C579 C 0.79454 0.6513 0.66869 0.0
H580 H 0.85178 0.66905 0.71339 0.0
C581 C 0.79438 0.67212 0.64326 0.0
H582 H 0.81679 0.63428 0.71307 0.0
C583 C 0.81442 0.69203 0.64345 0.0
C584 C 0.8351 0.69161 0.66907 0.0
H585 H 0.7783 0.67355 0.6238 0.0
H586 H 0.81318 0.70822 0.62413 0.0
C587 C 0.83604 0.67007 0.69342 0.0
C588 C 0.31596 0.83614 0.69353 0.0
C589 C 0.29437 0.83492 0.66925 0.0
H590 H 0.352 0.81731 0.71315 0.0
C591 C 0.29411 0.81417 0.64372 0.0
H592 H 0.31686 0.85194 0.71343 0.0
C593 C 0.31423 0.79434 0.64355 0.0
C594 C 0.3351 0.79479 0.66892 0.0
H595 H 0.2779 0.81271 0.62445 0.0
H596 H 0.31292 0.77819 0.62417 0.0
C597 C 0.33612 0.81627 0.69336 0.0
C598 C 0.15057 0.31622 0.69335 0.0
C599 C 0.15162 0.29481 0.66879 0.0
H600 H 0.16971 0.35192 0.7135 0.0
C601 C 0.1724 0.29455 0.64331 0.0
H602 H 0.13476 0.31711 0.71322 0.0
C603 C 0.19242 0.31449 0.64347 0.0
C604 C 0.19214 0.33516 0.66911 0.0
H605 H 0.17373 0.27847 0.62383 0.0
H606 H 0.20858 0.31318 0.6241 0.0
C607 C 0.17062 0.33619 0.69351 0.0
C608 C 0.18667 0.12396 0.02874 0.0
C609 C 0.19884 0.10273 0.04773 0.0
H610 H 0.17813 0.14129 0.97809 0.0
C611 C 0.20937 0.08053 0.02882 0.0
H612 H 0.17809 0.14124 0.04244 0.0
C613 C 0.2094 0.08057 0.99156 0.0
C614 C 0.19889 0.1028 0.97271 0.0
H615 H 0.21886 0.06385 0.04273 0.0
H616 H 0.21891 0.06391 0.97762 0.0
C617 C 0.18669 0.12399 0.99174 0.0
C618 C 0.90594 0.21111 0.99189 0.0
C619 C 0.88384 0.20037 0.97299 0.0
H620 H 0.92247 0.22082 0.0431 0.0
C621 C 0.86274 0.18797 0.99198 0.0
H622 H 0.92252 0.22077 0.978 0.0
C623 C 0.8627 0.188 0.02897 0.0
C624 C 0.88378 0.20041 0.04801 0.0
H625 H 0.84555 0.17922 0.97827 0.0
H626 H 0.84549 0.17926 0.04262 0.0
C627 C 0.90591 0.21114 0.02916 0.0
C628 C 0.80018 0.86248 0.99277 0.0
C629 C 0.788 0.88369 0.97374 0.0
H630 H 0.80877 0.84524 0.04345 0.0
C631 C 0.77752 0.90593 0.9926 0.0
H632 H 0.80872 0.84518 0.9791 0.0
C633 C 0.77754 0.90597 0.02987 0.0
C634 C 0.78805 0.88376 0.04876 0.0
H635 H 0.76802 0.9226 0.97867 0.0
H636 H 0.76806 0.92266 0.04377 0.0
C637 C 0.80021 0.86252 0.02976 0.0
C638 C 0.12382 0.79842 0.99318 0.0
C639 C 0.10276 0.78603 0.97407 0.0
H640 H 0.14096 0.80708 0.04392 0.0
C641 C 0.08065 0.77522 0.99287 0.0
H642 H 0.14102 0.80722 0.97957 0.0
C643 C 0.08061 0.77514 0.03013 0.0
C644 C 0.10269 0.78586 0.04909 0.0
H645 H 0.0641 0.76555 0.97888 0.0
H646 H 0.06404 0.76541 0.04398 0.0
C647 C 0.12378 0.79834 0.03017 0.0
C648 C 0.20963 0.90554 0.49283 0.0
C649 C 0.19909 0.88331 0.47398 0.0
H650 H 0.21917 0.92223 0.544 0.0
C651 C 0.18688 0.86213 0.49301 0.0
H652 H 0.21914 0.92219 0.4789 0.0
C653 C 0.18688 0.86216 0.53 0.0
C654 C 0.19911 0.88337 0.549 0.0
H655 H 0.17829 0.84485 0.47935 0.0
H656 H 0.1783 0.84489 0.5437 0.0
C657 C 0.20964 0.90556 0.5301 0.0
C658 C 0.08037 0.21084 0.52882 0.0
C659 C 0.10255 0.20019 0.54764 0.0
H660 H 0.06368 0.22045 0.47767 0.0
C661 C 0.12366 0.18787 0.52857 0.0
H662 H 0.06378 0.22045 0.54278 0.0
C663 C 0.1236 0.18786 0.49158 0.0
C664 C 0.10244 0.20018 0.47262 0.0
H665 H 0.14091 0.17919 0.54221 0.0
H666 H 0.14081 0.17918 0.47786 0.0
C667 C 0.08031 0.21084 0.49155 0.0
C668 C 0.79967 0.12415 0.52936 0.0
C669 C 0.78732 0.10298 0.54827 0.0
H670 H 0.80844 0.14146 0.47878 0.0
C671 C 0.77676 0.08083 0.52929 0.0
H672 H 0.80829 0.14138 0.54313 0.0
C673 C 0.77685 0.08088 0.49203 0.0
C674 C 0.7875 0.10307 0.47326 0.0
H675 H 0.76714 0.06419 0.54313 0.0
H676 H 0.76729 0.06428 0.47803 0.0
C677 C 0.79976 0.1242 0.49237 0.0
C678 C 0.86322 0.79866 0.52975 0.0
C679 C 0.88433 0.78627 0.54873 0.0
H680 H 0.84595 0.80735 0.4791 0.0
C681 C 0.90641 0.7755 0.52982 0.0
H682 H 0.84604 0.80743 0.54345 0.0
C683 C 0.90636 0.77546 0.49256 0.0
C684 C 0.88422 0.78618 0.47371 0.0
H685 H 0.923 0.76584 0.54372 0.0
H686 H 0.92291 0.76577 0.47862 0.0
C687 C 0.86316 0.79861 0.49275 0.0
C688 C 0.68704 0.62403 0.52877 0.0
C689 C 0.69936 0.60286 0.54773 0.0
H690 H 0.67827 0.64127 0.47814 0.0
C691 C 0.70988 0.58067 0.5288 0.0
H692 H 0.67846 0.64129 0.54249 0.0
C693 C 0.70977 0.58066 0.49154 0.0
C694 C 0.69914 0.60284 0.47271 0.0
H695 H 0.71947 0.56403 0.54268 0.0
H696 H 0.71929 0.56402 0.47758 0.0
C697 C 0.68693 0.62401 0.49178 0.0
C698 C 0.40684 0.71134 0.49194 0.0
C699 C 0.3848 0.70047 0.47302 0.0
H700 H 0.42331 0.72107 0.54317 0.0
C701 C 0.36379 0.6879 0.49198 0.0
H702 H 0.42335 0.72114 0.47806 0.0
C703 C 0.36377 0.68786 0.52897 0.0
C704 C 0.38476 0.70039 0.54803 0.0
H705 H 0.34666 0.67905 0.47826 0.0
H706 H 0.34662 0.67899 0.54261 0.0
C707 C 0.40682 0.71129 0.52921 0.0
C708 C 0.27661 0.40583 0.49261 0.0
C709 C 0.28714 0.3836 0.47377 0.0
H710 H 0.26713 0.42257 0.54377 0.0
C711 C 0.29936 0.36243 0.49282 0.0
H712 H 0.26709 0.42247 0.47867 0.0
C713 C 0.29939 0.36249 0.52981 0.0
C714 C 0.28719 0.38371 0.54879 0.0
H715 H 0.30794 0.34513 0.47917 0.0
H716 H 0.30799 0.34523 0.54352 0.0
C717 C 0.27664 0.40589 0.52988 0.0
C718 C 0.62296 0.29886 0.52928 0.0
C719 C 0.60195 0.2863 0.54825 0.0
H720 H 0.64012 0.30778 0.47864 0.0
C721 C 0.5799 0.27547 0.52934 0.0
H722 H 0.64011 0.30769 0.543 0.0
C723 C 0.5799 0.27551 0.49207 0.0
C724 C 0.60196 0.2864 0.47323 0.0
H725 H 0.56338 0.26567 0.54322 0.0
H726 H 0.5634 0.26576 0.47812 0.0
C727 C 0.62297 0.29892 0.49229 0.0
C728 C 0.68654 0.36218 0.99189 0.0
C729 C 0.69874 0.38342 0.97294 0.0
H730 H 0.67788 0.34487 0.04251 0.0
C731 C 0.70915 0.40566 0.99187 0.0
H732 H 0.67805 0.34488 0.97816 0.0
C733 C 0.70905 0.40566 0.02914 0.0
C734 C 0.69854 0.38342 0.04796 0.0
H735 H 0.71865 0.42235 0.97801 0.0
H736 H 0.71848 0.42235 0.04311 0.0
C737 C 0.68644 0.36218 0.02888 0.0
C738 C 0.62428 0.68824 0.02878 0.0
C739 C 0.60314 0.70062 0.04774 0.0
H740 H 0.64151 0.67942 0.97815 0.0
C741 C 0.581 0.71124 0.02881 0.0
H742 H 0.6415 0.67958 0.0425 0.0
C743 C 0.58101 0.71115 0.99154 0.0
C744 C 0.60315 0.70043 0.97272 0.0
H745 H 0.5644 0.72089 0.04269 0.0
H746 H 0.56441 0.72074 0.97759 0.0
C747 C 0.62428 0.68814 0.99179 0.0
C748 C 0.27776 0.58102 0.02924 0.0
C749 C 0.28816 0.60328 0.04814 0.0
H750 H 0.26835 0.56432 0.97803 0.0
C751 C 0.30025 0.62456 0.02916 0.0
H752 H 0.26834 0.5643 0.04313 0.0
C753 C 0.30026 0.62457 0.99217 0.0
C754 C 0.28818 0.60331 0.97312 0.0
H755 H 0.30874 0.64188 0.04286 0.0
H756 H 0.30875 0.6419 0.97851 0.0
C757 C 0.27777 0.58103 0.99197 0.0
C758 C 0.36237 0.29856 0.99302 0.0
C759 C 0.38351 0.28631 0.97394 0.0
H760 H 0.34514 0.30708 0.04374 0.0
C761 C 0.40568 0.27561 0.99275 0.0
H762 H 0.34513 0.30727 0.97939 0.0
C763 C 0.40568 0.2755 0.03002 0.0
C764 C 0.38353 0.28609 0.04896 0.0
H765 H 0.42229 0.26606 0.97878 0.0
H766 H 0.4223 0.26587 0.04388 0.0
C767 C 0.36238 0.29845 0.03001 0.0
C768 C 0.249 -0.00406 0.22404 0.0
C769 C 0.24864 0.01902 0.24572 0.0
H770 H 0.24908 0.95267 0.22176 0.0
C771 C 0.24916 0.01584 0.28281 0.0
H772 H 0.24868 -0.00219 0.1954 0.0
C773 C 0.24895 0.99003 0.29794 0.0
C774 C 0.24875 0.96695 0.27625 0.0
H775 H 0.24881 0.03329 0.30021 0.0
H776 H 0.24859 0.98816 0.32657 0.0
C777 C 0.24931 0.97013 0.23917 0.0
C778 C 0.97027 0.25173 0.28206 0.0
C779 C 0.96696 0.25115 0.245 0.0
H780 H -0.0019 0.25108 0.32568 0.0
C781 C 0.98997 0.2514 0.22319 0.0
H782 H 0.95287 0.25147 0.29956 0.0
C783 C 0.01583 0.25162 0.23818 0.0
C784 C 0.01914 0.25106 0.27525 0.0
H785 H 0.988 0.25103 0.19457 0.0
H786 H 0.03323 0.25127 0.22069 0.0
C787 C -0.00387 0.25142 0.29706 0.0
C788 C 0.73694 0.01625 0.23937 0.0
C789 C 0.73756 0.01958 0.27643 0.0
H790 H 0.73758 0.98841 0.19576 0.0
C791 C 0.73745 -0.00342 0.29825 0.0
H792 H 0.73711 0.03364 0.22186 0.0
C793 C 0.73727 0.97072 0.28327 0.0
C794 C 0.73775 0.9674 0.24621 0.0
H795 H 0.73785 -0.00143 0.32687 0.0
H796 H 0.7377 0.95333 0.30077 0.0
C797 C 0.7373 0.99039 0.22439 0.0
C798 C 0.01624 0.73444 0.28326 0.0
C799 C 0.01955 0.73502 0.2462 0.0
H800 H 0.98843 0.73519 0.32688 0.0
C801 C -0.00347 0.73484 0.22439 0.0
H802 H 0.03365 0.73466 0.30076 0.0
C803 C 0.97067 0.73471 0.23938 0.0
C804 C 0.96737 0.73529 0.27645 0.0
H805 H -0.00151 0.73521 0.19577 0.0
H806 H 0.95327 0.73512 0.22189 0.0
C807 C 0.99038 0.73484 0.29826 0.0
C808 C 0.73717 0.99028 0.79778 0.0
C809 C 0.73767 0.96724 0.77603 0.0
H810 H 0.73685 0.03354 0.80017 0.0
C811 C 0.73714 0.97048 0.73895 0.0
H812 H 0.73749 0.98837 0.82641 0.0
C813 C 0.73721 -0.00369 0.72389 0.0
C814 C 0.73729 0.01935 0.74564 0.0
H815 H 0.73759 0.95305 0.7215 0.0
H816 H 0.73758 -0.00178 0.69526 0.0
C817 C 0.73671 0.01611 0.78271 0.0
C818 C 0.97078 0.7349 0.78321 0.0
C819 C 0.96754 0.73553 0.74613 0.0
H820 H -0.00147 0.73552 0.82691 0.0
C821 C 0.99058 0.73532 0.7244 0.0
H822 H 0.95335 0.73513 0.80065 0.0
C823 C 0.01642 0.7351 0.73947 0.0
C824 C 0.01966 0.73562 0.77654 0.0
H825 H 0.98867 0.73572 0.69577 0.0
H826 H 0.03385 0.73548 0.72202 0.0
C827 C -0.00338 0.73521 0.79828 0.0
C828 C 0.24976 0.99004 0.72385 0.0
C829 C 0.24954 0.96709 0.74575 0.0
H830 H 0.24963 0.03329 0.72118 0.0
C831 C 0.25013 0.97049 0.7828 0.0
H832 H 0.24939 0.988 0.69524 0.0
C833 C 0.24982 -0.00362 0.7977 0.0
C834 C 0.24945 0.01933 0.7758 0.0
H835 H 0.24989 0.95313 0.80037 0.0
H836 H 0.24949 -0.00158 0.82631 0.0
C837 C 0.24998 0.01594 0.73874 0.0
C838 C 0.99011 0.25095 0.79723 0.0
C839 C 0.96707 0.25068 0.77547 0.0
H840 H 0.03338 0.25082 0.79964 0.0
C841 C 0.97032 0.25123 0.7384 0.0
H842 H 0.98819 0.2506 0.82586 0.0
C843 C -0.00383 0.25092 0.72335 0.0
C844 C 0.01921 0.25057 0.7451 0.0
H845 H 0.9529 0.25095 0.72094 0.0
H846 H -0.00191 0.25055 0.69472 0.0
C847 C 0.01595 0.25116 0.78218 0.0
C848 C 0.74997 0.5159 0.78203 0.0
C849 C 0.74939 0.51916 0.74496 0.0
H850 H 0.74927 0.48812 0.82569 0.0
C851 C 0.74955 0.49613 0.72319 0.0
H852 H 0.74977 0.53331 0.7995 0.0
C853 C 0.7497 0.47029 0.73822 0.0
C854 C 0.74917 0.46703 0.77529 0.0
H855 H 0.74919 0.49807 0.69456 0.0
H856 H 0.74931 0.45287 0.72075 0.0
C857 C 0.74959 0.49006 0.79706 0.0
C858 C 0.51673 0.75153 0.73827 0.0
C859 C 0.52002 0.751 0.77534 0.0
H860 H 0.48891 0.75086 0.69464 0.0
C861 C 0.49701 0.75136 0.79713 0.0
H862 H 0.53413 0.75118 0.72079 0.0
C863 C 0.47115 0.75162 0.78212 0.0
C864 C 0.46785 0.751 0.74506 0.0
H865 H 0.49896 0.75104 0.82576 0.0
H866 H 0.45375 0.75135 0.79962 0.0
C867 C 0.49087 0.75126 0.72326 0.0
C868 C 0.23705 0.49041 0.72383 0.0
C869 C 0.23713 0.46744 0.74569 0.0
H870 H 0.23746 0.53367 0.72124 0.0
C871 C 0.23656 0.4708 0.78275 0.0
H872 H 0.23742 0.4884 0.69521 0.0
C873 C 0.23704 0.49668 0.79769 0.0
C874 C 0.23755 0.51965 0.77583 0.0
H875 H 0.2367 0.45342 0.80028 0.0
H876 H 0.23737 0.49868 0.82631 0.0
C877 C 0.23699 0.51629 0.73877 0.0
C878 C 0.48992 0.23554 0.79785 0.0
C879 C 0.46685 0.236 0.77614 0.0
H880 H 0.53318 0.23536 0.80016 0.0
C881 C 0.47006 0.23547 0.73906 0.0
H882 H 0.48803 0.23586 0.82648 0.0
C883 C 0.49588 0.23562 0.72395 0.0
C884 C 0.51895 0.23578 0.74566 0.0
H885 H 0.45261 0.23589 0.72164 0.0
H886 H 0.49777 0.23602 0.69532 0.0
C887 C 0.51574 0.23516 0.78274 0.0
C888 C 0.2377 0.49634 0.22423 0.0
C889 C 0.23817 0.51938 0.24599 0.0
H890 H 0.23738 0.45309 0.22182 0.0
C891 C 0.23762 0.51613 0.28307 0.0
H892 H 0.23803 0.49826 0.1956 0.0
C893 C 0.23769 0.49029 0.29811 0.0
C894 C 0.23777 0.46725 0.27635 0.0
H895 H 0.23806 0.53355 0.30053 0.0
H896 H 0.23803 0.48837 0.32674 0.0
C897 C 0.23723 0.47051 0.23928 0.0
C898 C 0.51565 0.23466 0.23938 0.0
C899 C 0.51897 0.23534 0.27644 0.0
H900 H 0.48781 0.23515 0.19577 0.0
C901 C 0.49597 0.23507 0.29826 0.0
H902 H 0.53305 0.23494 0.22187 0.0
C903 C 0.4701 0.23474 0.28328 0.0
C904 C 0.46679 0.23522 0.24621 0.0
H905 H 0.49795 0.2355 0.32688 0.0
H906 H 0.45271 0.23509 0.30078 0.0
C907 C 0.48979 0.23487 0.2244 0.0
C908 C 0.74951 0.516 0.23855 0.0
C909 C 0.74894 0.51932 0.27561 0.0
H910 H 0.74879 0.48817 0.19493 0.0
C911 C 0.74905 0.49632 0.29742 0.0
H912 H 0.74934 0.5334 0.22104 0.0
C913 C 0.74917 0.47046 0.28243 0.0
C914 C 0.74865 0.46714 0.24537 0.0
H915 H 0.74868 0.4983 0.32605 0.0
H916 H 0.74875 0.45307 0.29993 0.0
C917 C 0.7491 0.49014 0.22356 0.0
C918 C 0.47088 0.75219 0.23872 0.0
C919 C 0.46765 0.75153 0.27579 0.0
H920 H 0.49863 0.75157 0.19501 0.0
C921 C 0.4907 0.7517 0.29753 0.0
H922 H 0.45345 0.75198 0.22127 0.0
C923 C 0.51653 0.7519 0.28246 0.0
C924 C 0.51976 0.7514 0.24538 0.0
H925 H 0.48879 0.75127 0.32616 0.0
H926 H 0.53396 0.75148 0.2999 0.0
C927 C 0.49672 0.75186 0.22365 0.0
C928 C 0.14513 0.15047 0.22315 0.0
C929 C 0.16414 0.13261 0.238 0.0
H930 H 0.11569 0.18134 0.23266 0.0
C931 C 0.16519 0.12983 0.27515 0.0
H932 H 0.14363 0.15296 0.19466 0.0
C933 C 0.14914 0.14611 0.297 0.0
C934 C 0.13177 0.16556 0.28215 0.0
H935 H 0.17939 0.11603 0.28749 0.0
H936 H 0.1515 0.14445 0.32549 0.0
C937 C 0.12913 0.16679 0.245 0.0
C938 C 0.85702 0.16709 0.27557 0.0
C939 C 0.8542 0.16589 0.23844 0.0
H940 H 0.84268 0.15335 0.32601 0.0
C941 C 0.8366 0.14658 0.22371 0.0
H942 H 0.87064 0.18153 0.28782 0.0
C943 C 0.82054 0.13041 0.24567 0.0
C944 C 0.8218 0.13317 0.28281 0.0
H945 H 0.83409 0.14495 0.19524 0.0
H946 H 0.80618 0.11672 0.23343 0.0
C947 C 0.84101 0.15088 0.29753 0.0
C948 C 0.83729 0.84039 0.29823 0.0
C949 C 0.8548 0.82104 0.28341 0.0
H950 H 0.80693 0.87035 0.28866 0.0
C951 C 0.85756 0.81989 0.24627 0.0
H952 H 0.83483 0.84198 0.32671 0.0
C953 C 0.84156 0.83618 0.22439 0.0
C954 C 0.82241 0.85391 0.2392 0.0
H955 H 0.87111 0.80543 0.23395 0.0
H956 H 0.84316 0.83374 0.1959 0.0
C957 C 0.82124 0.85663 0.27635 0.0
C958 C 0.14553 0.83537 0.29857 0.0
C959 C 0.16456 0.85322 0.28374 0.0
H960 H 0.11606 0.80454 0.28901 0.0
C961 C 0.16561 0.85602 0.2466 0.0
H962 H 0.14402 0.83287 0.32705 0.0
C963 C 0.14955 0.83977 0.22472 0.0
C964 C 0.13216 0.82033 0.23954 0.0
H965 H 0.17983 0.86982 0.23427 0.0
H966 H 0.15192 0.84144 0.19624 0.0
C967 C 0.12952 0.81908 0.27669 0.0
C968 C 0.85762 0.81966 0.77638 0.0
C969 C 0.85498 0.82093 0.73923 0.0
H970 H 0.84315 0.83343 0.82675 0.0
C971 C 0.8376 0.8404 0.72443 0.0
H972 H 0.87107 0.8051 0.78869 0.0
C973 C 0.82157 0.85666 0.74632 0.0
C974 C 0.82262 0.85383 0.78346 0.0
H975 H 0.83523 0.84209 0.69594 0.0
H976 H 0.80736 0.87048 0.73401 0.0
C977 C 0.84164 0.83597 0.79827 0.0
C978 C 0.16622 0.85641 0.77665 0.0
C979 C 0.16494 0.85373 0.7395 0.0
H980 H 0.15263 0.84183 0.82704 0.0
C981 C 0.14561 0.83617 0.72474 0.0
H982 H 0.18067 0.86999 0.78893 0.0
C983 C 0.12952 0.82 0.74665 0.0
C984 C 0.13238 0.8211 0.78379 0.0
H985 H 0.14391 0.83377 0.69625 0.0
H986 H 0.11582 0.80566 0.73437 0.0
C987 C 0.15008 0.84029 0.79857 0.0
C988 C 0.14978 0.14611 0.72316 0.0
C989 C 0.13212 0.16533 0.73795 0.0
H990 H 0.1803 0.11633 0.73278 0.0
C991 C 0.12929 0.16644 0.77509 0.0
H992 H 0.1523 0.14455 0.69468 0.0
C993 C 0.14536 0.15023 0.797 0.0
C994 C 0.16463 0.13262 0.78222 0.0
H995 H 0.11563 0.18081 0.78738 0.0
H996 H 0.14368 0.15264 0.82548 0.0
C997 C 0.16589 0.12995 0.74507 0.0
C998 C 0.85688 0.16668 0.74555 0.0
C999 C 0.85417 0.16556 0.7827 0.0
H1000 H 0.84236 0.15287 0.69522 0.0
C1001 C 0.83657 0.14632 0.79756 0.0
H1002 H 0.8705 0.18106 0.73321 0.0
C1003 C 0.82041 0.13015 0.77572 0.0
C1004 C 0.82156 0.13283 0.73857 0.0
H1005 H 0.83413 0.14476 0.82605 0.0
H1006 H 0.80604 0.11651 0.78807 0.0
C1007 C 0.84078 0.15046 0.72371 0.0
C1008 C 0.64592 0.65047 0.72326 0.0
C1009 C 0.66505 0.63273 0.73806 0.0
H1010 H 0.61636 0.68121 0.73285 0.0
C1011 C 0.66622 0.62998 0.7752 0.0
H1012 H 0.64432 0.65292 0.69478 0.0
C1013 C 0.65015 0.64621 0.7971 0.0
C1014 C 0.63265 0.66556 0.7823 0.0
H1015 H 0.68052 0.61626 0.7875 0.0
H1016 H 0.6526 0.6446 0.82558 0.0
C1017 C 0.62991 0.66674 0.74515 0.0
C1018 C 0.32148 0.63011 0.74555 0.0
C1019 C 0.32261 0.63293 0.78269 0.0
H1020 H 0.33516 0.6446 0.69515 0.0
C1021 C 0.34178 0.65066 0.79746 0.0
H1022 H 0.30715 0.61639 0.73327 0.0
C1023 C 0.35785 0.66686 0.77555 0.0
C1024 C 0.35513 0.66561 0.7384 0.0
H1025 H 0.34336 0.65317 0.82594 0.0
H1026 H 0.37141 0.68132 0.78783 0.0
C1027 C 0.33759 0.64626 0.72363 0.0
C1028 C 0.3363 0.34057 0.79841 0.0
C1029 C 0.35402 0.32141 0.78362 0.0
H1030 H 0.3057 0.37027 0.78879 0.0
C1031 C 0.35689 0.32035 0.74648 0.0
H1032 H 0.33374 0.34208 0.82689 0.0
C1033 C 0.34081 0.33653 0.72458 0.0
C1034 C 0.32147 0.35407 0.73935 0.0
H1035 H 0.37061 0.30603 0.73419 0.0
H1036 H 0.34252 0.33416 0.69609 0.0
C1037 C 0.32016 0.35671 0.7765 0.0
C1038 C 0.64926 0.34019 0.72368 0.0
C1039 C 0.63179 0.32084 0.73854 0.0
H1040 H 0.67967 0.37012 0.73317 0.0
C1041 C 0.62915 0.31963 0.77569 0.0
H1042 H 0.65163 0.34182 0.69519 0.0
C1043 C 0.64524 0.33588 0.79753 0.0
C1044 C 0.66434 0.35363 0.78267 0.0
H1045 H 0.61563 0.30516 0.78804 0.0
H1046 H 0.64372 0.33341 0.82602 0.0
C1047 C 0.6654 0.35639 0.74552 0.0
C1048 C 0.33664 0.33991 0.22454 0.0
C1049 C 0.35406 0.3205 0.23937 0.0
H1050 H 0.30636 0.36995 0.23406 0.0
C1051 C 0.35673 0.31929 0.27653 0.0
H1052 H 0.33425 0.34154 0.19605 0.0
C1053 C 0.34073 0.3356 0.29838 0.0
C1054 C 0.32169 0.35342 0.28354 0.0
H1055 H 0.37022 0.30477 0.28886 0.0
H1056 H 0.34227 0.33313 0.32687 0.0
C1057 C 0.32059 0.35617 0.24639 0.0
C1058 C 0.62889 0.31953 0.24557 0.0
C1059 C 0.63155 0.32089 0.28272 0.0
H1060 H 0.64337 0.33317 0.19515 0.0
C1061 C 0.64897 0.34036 0.29744 0.0
H1062 H 0.61541 0.30497 0.23332 0.0
C1063 C 0.66503 0.35654 0.2755 0.0
C1064 C 0.66395 0.35364 0.23837 0.0
H1065 H 0.65135 0.34211 0.32592 0.0
H1066 H 0.67926 0.37037 0.28775 0.0
C1067 C 0.6449 0.33577 0.22362 0.0
C1068 C 0.66605 0.63029 0.2451 0.0
C1069 C 0.66477 0.63292 0.28226 0.0
H1070 H 0.65253 0.645 0.19474 0.0
C1071 C 0.64553 0.65056 0.29706 0.0
H1072 H 0.68043 0.61665 0.2328 0.0
C1073 C 0.62953 0.66684 0.27517 0.0
C1074 C 0.63238 0.66578 0.23803 0.0
H1075 H 0.64385 0.65293 0.32554 0.0
H1076 H 0.6159 0.68123 0.28748 0.0
C1077 C 0.64999 0.64653 0.22322 0.0
C1078 C 0.34175 0.65099 0.22356 0.0
C1079 C 0.3228 0.63307 0.2384 0.0
H1080 H 0.37115 0.6819 0.23309 0.0
C1081 C 0.32183 0.63021 0.27554 0.0
H1082 H 0.3432 0.65355 0.19508 0.0
C1083 C 0.33788 0.64648 0.2974 0.0
C1084 C 0.35519 0.66599 0.28258 0.0
H1085 H 0.30768 0.61636 0.28788 0.0
H1086 H 0.33558 0.64476 0.32589 0.0
C1087 C 0.35776 0.66731 0.24542 0.0
loop_
_geom_bond_atom_site_label_1
_geom_bond_atom_site_label_2
_geom_bond_distance
_geom_bond_site_symmetry_2
_ccdc_geom_bond_type
O0 Cd1 2.223 . S
O0 C8 1.315 . S
Cd1 O0 2.223 . S
Cd1 O4 2.297 . S
Cd1 O5 2.439 . S
Cd1 O11 2.240 . S
Cd2 O3 2.240 . S
Cd2 O10 2.223 . S
Cd2 O12 2.297 . S
Cd2 O13 2.439 . S
O3 Cd2 2.240 . S
O3 C8 1.279 . S
O4 Cd1 2.297 . S
O4 C6 1.247 . S
O5 Cd1 2.439 . S
O5 C6 1.208 . S
C6 O4 1.247 . S
C6 O5 1.208 . S
C7 O12 1.247 . S
C7 O13 1.208 . S
C8 O0 1.315 . S
C8 O3 1.279 . S
C9 O10 1.315 . S
C9 O11 1.279 . S
O10 Cd2 2.223 . S
O10 C9 1.315 . S
O11 Cd1 2.240 . S
O11 C9 1.279 . S
O12 Cd2 2.297 . S
O12 C7 1.247 . S
O13 Cd2 2.439 . S
O13 C7 1.208 . S
O14 Cd15 2.223 . S
O14 C22 1.315 . S
Cd15 O14 2.223 . S
Cd15 O18 2.297 . S
Cd15 O19 2.439 . S
Cd15 O25 2.240 . S
Cd16 O17 2.240 . S
Cd16 O24 2.223 . S
Cd16 O26 2.297 . S
Cd16 O27 2.439 . S
O17 Cd16 2.240 . S
O17 C22 1.279 . S
O18 Cd15 2.297 . S
O18 C20 1.247 . S
O19 Cd15 2.439 . S
O19 C20 1.208 . S
C20 O18 1.247 . S
C20 O19 1.208 . S
C21 O26 1.247 . S
C21 O27 1.208 . S
C22 O14 1.315 . S
C22 O17 1.279 . S
C23 O24 1.315 . S
C23 O25 1.279 . S
O24 Cd16 2.223 . S
O24 C23 1.315 . S
O25 Cd15 2.240 . S
O25 C23 1.279 . S
O26 Cd16 2.297 . S
O26 C21 1.247 . S
O27 Cd16 2.439 . S
O27 C21 1.208 . S
O28 Cd29 2.223 . S
O28 C36 1.315 . S
Cd29 O28 2.223 . S
Cd29 O32 2.297 . S
Cd29 O33 2.439 . S
Cd29 O39 2.240 . S
Cd30 O31 2.240 . S
Cd30 O38 2.223 . S
Cd30 O40 2.297 . S
Cd30 O41 2.439 . S
O31 Cd30 2.240 . S
O31 C36 1.279 . S
O32 Cd29 2.297 . S
O32 C34 1.247 . S
O33 Cd29 2.439 . S
O33 C34 1.208 . S
C34 O32 1.247 . S
C34 O33 1.208 . S
C35 O40 1.247 . S
C35 O41 1.208 . S
C36 O28 1.315 . S
C36 O31 1.279 . S
C37 O38 1.315 . S
C37 O39 1.279 . S
O38 Cd30 2.223 . S
O38 C37 1.315 . S
O39 Cd29 2.240 . S
O39 C37 1.279 . S
O40 Cd30 2.297 . S
O40 C35 1.247 . S
O41 Cd30 2.439 . S
O41 C35 1.208 . S
O42 Cd43 2.223 . S
O42 C50 1.315 . S
Cd43 O42 2.223 . S
Cd43 O46 2.297 . S
Cd43 O47 2.439 . S
Cd43 O53 2.240 . S
Cd44 O45 2.240 . S
Cd44 O52 2.223 . S
Cd44 O54 2.297 . S
Cd44 O55 2.439 . S
O45 Cd44 2.240 . S
O45 C50 1.279 . S
O46 Cd43 2.297 . S
O46 C48 1.247 . S
O47 Cd43 2.439 . S
O47 C48 1.208 . S
C48 O46 1.247 . S
C48 O47 1.208 . S
C49 O54 1.247 . S
C49 O55 1.208 . S
C50 O42 1.315 . S
C50 O45 1.279 . S
C51 O52 1.315 . S
C51 O53 1.279 . S
O52 Cd44 2.223 . S
O52 C51 1.315 . S
O53 Cd43 2.240 . S
O53 C51 1.279 . S
O54 Cd44 2.297 . S
O54 C49 1.247 . S
O55 Cd44 2.439 . S
O55 C49 1.208 . S
O56 Cd57 2.223 . S
O56 C64 1.315 . S
Cd57 O56 2.223 . S
Cd57 O60 2.297 . S
Cd57 O61 2.439 . S
Cd57 O67 2.240 . S
Cd58 O59 2.240 . S
Cd58 O66 2.223 . S
Cd58 O68 2.297 . S
Cd58 O69 2.439 . S
O59 Cd58 2.240 . S
O59 C64 1.279 . S
O60 Cd57 2.297 . S
O60 C62 1.247 . S
O61 Cd57 2.439 . S
O61 C62 1.208 . S
C62 O60 1.247 . S
C62 O61 1.208 . S
C63 O68 1.247 . S
C63 O69 1.208 . S
C64 O56 1.315 . S
C64 O59 1.279 . S
C65 O66 1.315 . S
C65 O67 1.279 . S
O66 Cd58 2.223 . S
O66 C65 1.315 . S
O67 Cd57 2.240 . S
O67 C65 1.279 . S
O68 Cd58 2.297 . S
O68 C63 1.247 . S
O69 Cd58 2.439 . S
O69 C63 1.208 . S
O70 Cd71 2.223 . S
O70 C78 1.315 . S
Cd71 O70 2.223 . S
Cd71 O74 2.297 . S
Cd71 O75 2.439 . S
Cd71 O81 2.240 . S
Cd72 O73 2.240 . S
Cd72 O80 2.223 . S
Cd72 O82 2.297 . S
Cd72 O83 2.439 . S
O73 Cd72 2.240 . S
O73 C78 1.279 . S
O74 Cd71 2.297 . S
O74 C76 1.247 . S
O75 Cd71 2.439 . S
O75 C76 1.208 . S
C76 O74 1.247 . S
C76 O75 1.208 . S
C77 O82 1.247 . S
C77 O83 1.208 . S
C78 O70 1.315 . S
C78 O73 1.279 . S
C79 O80 1.315 . S
C79 O81 1.279 . S
O80 Cd72 2.223 . S
O80 C79 1.315 . S
O81 Cd71 2.240 . S
O81 C79 1.279 . S
O82 Cd72 2.297 . S
O82 C77 1.247 . S
O83 Cd72 2.439 . S
O83 C77 1.208 . S
O84 Cd85 2.223 . S
O84 C92 1.315 . S
Cd85 O84 2.223 . S
Cd85 O88 2.297 . S
Cd85 O89 2.439 . S
Cd85 O95 2.240 . S
Cd86 O87 2.240 . S
Cd86 O94 2.223 . S
Cd86 O96 2.297 . S
Cd86 O97 2.439 . S
O87 Cd86 2.240 . S
O87 C92 1.279 . S
O88 Cd85 2.297 . S
O88 C90 1.247 . S
O89 Cd85 2.439 . S
O89 C90 1.208 . S
C90 O88 1.247 . S
C90 O89 1.208 . S
C91 O96 1.247 . S
C91 O97 1.208 . S
C92 O84 1.315 . S
C92 O87 1.279 . S
C93 O94 1.315 . S
C93 O95 1.279 . S
O94 Cd86 2.223 . S
O94 C93 1.315 . S
O95 Cd85 2.240 . S
O95 C93 1.279 . S
O96 Cd86 2.297 . S
O96 C91 1.247 . S
O97 Cd86 2.439 . S
O97 C91 1.208 . S
O98 Cd99 2.223 . S
O98 C106 1.315 . S
Cd99 O98 2.223 . S
Cd99 O102 2.297 . S
Cd99 O103 2.439 . S
Cd99 O109 2.240 . S
Cd100 O101 2.240 . S
Cd100 O108 2.223 . S
Cd100 O110 2.297 . S
Cd100 O111 2.439 . S
O101 Cd100 2.240 . S
O101 C106 1.279 . S
O102 Cd99 2.297 . S
O102 C104 1.247 . S
O103 Cd99 2.439 . S
O103 C104 1.208 . S
C104 O102 1.247 . S
C104 O103 1.208 . S
C105 O110 1.247 . S
C105 O111 1.208 . S
C106 O98 1.315 . S
C106 O101 1.279 . S
C107 O108 1.315 . S
C107 O109 1.279 . S
O108 Cd100 2.223 . S
O108 C107 1.315 . S
O109 Cd99 2.240 . S
O109 C107 1.279 . S
O110 Cd100 2.297 . S
O110 C105 1.247 . S
O111 Cd100 2.439 . S
O111 C105 1.208 . S
O112 Cd113 2.223 . S
O112 C120 1.315 . S
Cd113 O112 2.223 . S
Cd113 O116 2.297 . S
Cd113 O117 2.439 . S
Cd113 O123 2.240 . S
Cd114 O115 2.240 . S
Cd114 O122 2.223 . S
Cd114 O124 2.297 . S
Cd114 O125 2.439 . S
O115 Cd114 2.240 . S
O115 C120 1.279 . S
O116 Cd113 2.297 . S
O116 C118 1.247 . S
O117 Cd113 2.439 . S
O117 C118 1.208 . S
C118 O116 1.247 . S
C118 O117 1.208 . S
C119 O124 1.247 . S
C119 O125 1.208 . S
C120 O112 1.315 . S
C120 O115 1.279 . S
C121 O122 1.315 . S
C121 O123 1.279 . S
O122 Cd114 2.223 . S
O122 C121 1.315 . S
O123 Cd113 2.240 . S
O123 C121 1.279 . S
O124 Cd114 2.297 . S
O124 C119 1.247 . S
O125 Cd114 2.439 . S
O125 C119 1.208 . S
O126 Cd127 2.223 . S
O126 C134 1.315 . S
Cd127 O126 2.223 . S
Cd127 O130 2.297 . S
Cd127 O131 2.439 . S
Cd127 O137 2.240 . S
Cd128 O129 2.240 . S
Cd128 O136 2.223 . S
Cd128 O138 2.297 . S
Cd128 O139 2.439 . S
O129 Cd128 2.240 . S
O129 C134 1.279 . S
O130 Cd127 2.297 . S
O130 C132 1.247 . S
O131 Cd127 2.439 . S
O131 C132 1.208 . S
C132 O130 1.247 . S
C132 O131 1.208 . S
C133 O138 1.247 . S
C133 O139 1.208 . S
C134 O126 1.315 . S
C134 O129 1.279 . S
C135 O136 1.315 . S
C135 O137 1.279 . S
O136 Cd128 2.223 . S
O136 C135 1.315 . S
O137 Cd127 2.240 . S
O137 C135 1.279 . S
O138 Cd128 2.297 . S
O138 C133 1.247 . S
O139 Cd128 2.439 . S
O139 C133 1.208 . S
O140 Cd141 2.223 . S
O140 C148 1.315 . S
Cd141 O140 2.223 . S
Cd141 O144 2.297 . S
Cd141 O145 2.439 . S
Cd141 O151 2.240 . S
Cd142 O143 2.240 . S
Cd142 O150 2.223 . S
Cd142 O152 2.297 . S
Cd142 O153 2.439 . S
O143 Cd142 2.240 . S
O143 C148 1.279 . S
O144 Cd141 2.297 . S
O144 C146 1.247 . S
O145 Cd141 2.439 . S
O145 C146 1.208 . S
C146 O144 1.247 . S
C146 O145 1.208 . S
C147 O152 1.247 . S
C147 O153 1.208 . S
C148 O140 1.315 . S
C148 O143 1.279 . S
C149 O150 1.315 . S
C149 O151 1.279 . S
O150 Cd142 2.223 . S
O150 C149 1.315 . S
O151 Cd141 2.240 . S
O151 C149 1.279 . S
O152 Cd142 2.297 . S
O152 C147 1.247 . S
O153 Cd142 2.439 . S
O153 C147 1.208 . S
O154 Cd155 2.223 . S
O154 C162 1.315 . S
Cd155 O154 2.223 . S
Cd155 O158 2.297 . S
Cd155 O159 2.439 . S
Cd155 O165 2.240 . S
Cd156 O157 2.240 . S
Cd156 O164 2.223 . S
Cd156 O166 2.297 . S
Cd156 O167 2.439 . S
O157 Cd156 2.240 . S
O157 C162 1.279 . S
O158 Cd155 2.297 . S
O158 C160 1.247 . S
O159 Cd155 2.439 . S
O159 C160 1.208 . S
C160 O158 1.247 . S
C160 O159 1.208 . S
C161 O166 1.247 . S
C161 O167 1.208 . S
C162 O154 1.315 . S
C162 O157 1.279 . S
C163 O164 1.315 . S
C163 O165 1.279 . S
O164 Cd156 2.223 . S
O164 C163 1.315 . S
O165 Cd155 2.240 . S
O165 C163 1.279 . S
O166 Cd156 2.297 . S
O166 C161 1.247 . S
O167 Cd156 2.439 . S
O167 C161 1.208 . S
O168 Cd169 2.223 . S
O168 C176 1.315 . S
Cd169 O168 2.223 . S
Cd169 O172 2.297 . S
Cd169 O173 2.439 . S
Cd169 O179 2.240 . S
Cd170 O171 2.240 . S
Cd170 O178 2.223 . S
Cd170 O180 2.297 . S
Cd170 O181 2.439 . S
O171 Cd170 2.240 . S
O171 C176 1.279 . S
O172 Cd169 2.297 . S
O172 C174 1.247 . S
O173 Cd169 2.439 . S
O173 C174 1.208 . S
C174 O172 1.247 . S
C174 O173 1.208 . S
C175 O180 1.247 . S
C175 O181 1.208 . S
C176 O168 1.315 . S
C176 O171 1.279 . S
C177 O178 1.315 . S
C177 O179 1.279 . S
O178 Cd170 2.223 . S
O178 C177 1.315 . S
O179 Cd169 2.240 . S
O179 C177 1.279 . S
O180 Cd170 2.297 . S
O180 C175 1.247 . S
O181 Cd170 2.439 . S
O181 C175 1.208 . S
O182 Cd183 2.223 . S
O182 C190 1.315 . S
Cd183 O182 2.223 . S
Cd183 O186 2.297 . S
Cd183 O187 2.439 . S
Cd183 O193 2.240 . S
Cd184 O185 2.240 . S
Cd184 O192 2.223 . S
Cd184 O194 2.297 . S
Cd184 O195 2.439 . S
O185 Cd184 2.240 . S
O185 C190 1.279 . S
O186 Cd183 2.297 . S
O186 C188 1.247 . S
O187 Cd183 2.439 . S
O187 C188 1.208 . S
C188 O186 1.247 . S
C188 O187 1.208 . S
C189 O194 1.247 . S
C189 O195 1.208 . S
C190 O182 1.315 . S
C190 O185 1.279 . S
C191 O192 1.315 . S
C191 O193 1.279 . S
O192 Cd184 2.223 . S
O192 C191 1.315 . S
O193 Cd183 2.240 . S
O193 C191 1.279 . S
O194 Cd184 2.297 . S
O194 C189 1.247 . S
O195 Cd184 2.439 . S
O195 C189 1.208 . S
O196 Cd197 2.223 . S
O196 C204 1.315 . S
Cd197 O196 2.223 . S
Cd197 O200 2.297 . S
Cd197 O201 2.439 . S
Cd197 O207 2.240 . S
Cd198 O199 2.240 . S
Cd198 O206 2.223 . S
Cd198 O208 2.297 . S
Cd198 O209 2.439 . S
O199 Cd198 2.240 . S
O199 C204 1.279 . S
O200 Cd197 2.297 . S
O200 C202 1.247 . S
O201 Cd197 2.439 . S
O201 C202 1.208 . S
C202 O200 1.247 . S
C202 O201 1.208 . S
C203 O208 1.247 . S
C203 O209 1.208 . S
C204 O196 1.315 . S
C204 O199 1.279 . S
C205 O206 1.315 . S
C205 O207 1.279 . S
O206 Cd198 2.223 . S
O206 C205 1.315 . S
O207 Cd197 2.240 . S
O207 C205 1.279 . S
O208 Cd198 2.297 . S
O208 C203 1.247 . S
O209 Cd198 2.439 . S
O209 C203 1.208 . S
O210 Cd211 2.223 . S
O210 C218 1.315 . S
Cd211 O210 2.223 . S
Cd211 O214 2.297 . S
Cd211 O215 2.439 . S
Cd211 O221 2.240 . S
Cd212 O213 2.240 . S
Cd212 O220 2.223 . S
Cd212 O222 2.297 . S
Cd212 O223 2.439 . S
O213 Cd212 2.240 . S
O213 C218 1.279 . S
O214 Cd211 2.297 . S
O214 C216 1.247 . S
O215 Cd211 2.439 . S
O215 C216 1.208 . S
C216 O214 1.247 . S
C216 O215 1.208 . S
C217 O222 1.247 . S
C217 O223 1.208 . S
C218 O210 1.315 . S
C218 O213 1.279 . S
C219 O220 1.315 . S
C219 O221 1.279 . S
O220 Cd212 2.223 . S
O220 C219 1.315 . S
O221 Cd211 2.240 . S
O221 C219 1.279 . S
O222 Cd212 2.297 . S
O222 C217 1.247 . S
O223 Cd212 2.439 . S
O223 C217 1.208 . S
O224 Cd225 2.223 . S
O224 C232 1.315 . S
Cd225 O224 2.223 . S
Cd225 O228 2.297 . S
Cd225 O229 2.439 . S
Cd225 O235 2.240 . S
Cd226 O227 2.240 . S
Cd226 O234 2.223 . S
Cd226 O236 2.297 . S
Cd226 O237 2.439 . S
O227 Cd226 2.240 . S
O227 C232 1.279 . S
O228 Cd225 2.297 . S
O228 C230 1.247 . S
O229 Cd225 2.439 . S
O229 C230 1.208 . S
C230 O228 1.247 . S
C230 O229 1.208 . S
C231 O236 1.247 . S
C231 O237 1.208 . S
C232 O224 1.315 . S
C232 O227 1.279 . S
C233 O234 1.315 . S
C233 O235 1.279 . S
O234 Cd226 2.223 . S
O234 C233 1.315 . S
O235 Cd225 2.240 . S
O235 C233 1.279 . S
O236 Cd226 2.297 . S
O236 C231 1.247 . S
O237 Cd226 2.439 . S
O237 C231 1.208 . S
O238 Cd239 2.223 . S
O238 C246 1.315 . S
Cd239 O238 2.223 . S
Cd239 O242 2.297 . S
Cd239 O243 2.439 . S
Cd239 O249 2.240 . S
Cd240 O241 2.240 . S
Cd240 O248 2.223 . S
Cd240 O250 2.297 . S
Cd240 O251 2.439 . S
O241 Cd240 2.240 . S
O241 C246 1.279 . S
O242 Cd239 2.297 . S
O242 C244 1.247 . S
O243 Cd239 2.439 . S
O243 C244 1.208 . S
C244 O242 1.247 . S
C244 O243 1.208 . S
C245 O250 1.247 . S
C245 O251 1.208 . S
C246 O238 1.315 . S
C246 O241 1.279 . S
C247 O248 1.315 . S
C247 O249 1.279 . S
O248 Cd240 2.223 . S
O248 C247 1.315 . S
O249 Cd239 2.240 . S
O249 C247 1.279 . S
O250 Cd240 2.297 . S
O250 C245 1.247 . S
O251 Cd240 2.439 . S
O251 C245 1.208 . S
O252 Cd253 2.223 . S
O252 C260 1.315 . S
Cd253 O252 2.223 . S
Cd253 O256 2.297 . S
Cd253 O257 2.439 . S
Cd253 O263 2.240 . S
Cd254 O255 2.240 . S
Cd254 O262 2.223 . S
Cd254 O264 2.297 . S
Cd254 O265 2.439 . S
O255 Cd254 2.240 . S
O255 C260 1.279 . S
O256 Cd253 2.297 . S
O256 C258 1.247 . S
O257 Cd253 2.439 . S
O257 C258 1.208 . S
C258 O256 1.247 . S
C258 O257 1.208 . S
C259 O264 1.247 . S
C259 O265 1.208 . S
C260 O252 1.315 . S
C260 O255 1.279 . S
C261 O262 1.315 . S
C261 O263 1.279 . S
O262 Cd254 2.223 . S
O262 C261 1.315 . S
O263 Cd253 2.240 . S
O263 C261 1.279 . S
O264 Cd254 2.297 . S
O264 C259 1.247 . S
O265 Cd254 2.439 . S
O265 C259 1.208 . S
O266 Cd267 2.223 . S
O266 C274 1.315 . S
Cd267 O266 2.223 . S
Cd267 O270 2.297 . S
Cd267 O271 2.439 . S
Cd267 O277 2.240 . S
Cd268 O269 2.240 . S
Cd268 O276 2.223 . S
Cd268 O278 2.297 . S
Cd268 O279 2.439 . S
O269 Cd268 2.240 . S
O269 C274 1.279 . S
O270 Cd267 2.297 . S
O270 C272 1.247 . S
O271 Cd267 2.439 . S
O271 C272 1.208 . S
C272 O270 1.247 . S
C272 O271 1.208 . S
C273 O278 1.247 . S
C273 O279 1.208 . S
C274 O266 1.315 . S
C274 O269 1.279 . S
C275 O276 1.315 . S
C275 O277 1.279 . S
O276 Cd268 2.223 . S
O276 C275 1.315 . S
O277 Cd267 2.240 . S
O277 C275 1.279 . S
O278 Cd268 2.297 . S
O278 C273 1.247 . S
O279 Cd268 2.439 . S
O279 C273 1.208 . S
O280 Cd281 2.223 . S
O280 C288 1.315 . S
Cd281 O280 2.223 . S
Cd281 O284 2.297 . S
Cd281 O285 2.439 . S
Cd281 O291 2.240 . S
Cd282 O283 2.240 . S
Cd282 O290 2.223 . S
Cd282 O292 2.297 . S
Cd282 O293 2.439 . S
O283 Cd282 2.240 . S
O283 C288 1.279 . S
O284 Cd281 2.297 . S
O284 C286 1.247 . S
O285 Cd281 2.439 . S
O285 C286 1.208 . S
C286 O284 1.247 . S
C286 O285 1.208 . S
C287 O292 1.247 . S
C287 O293 1.208 . S
C288 O280 1.315 . S
C288 O283 1.279 . S
C289 O290 1.315 . S
C289 O291 1.279 . S
O290 Cd282 2.223 . S
O290 C289 1.315 . S
O291 Cd281 2.240 . S
O291 C289 1.279 . S
O292 Cd282 2.297 . S
O292 C287 1.247 . S
O293 Cd282 2.439 . S
O293 C287 1.208 . S
O294 Cd295 2.223 . S
O294 C302 1.315 . S
Cd295 O294 2.223 . S
Cd295 O298 2.297 . S
Cd295 O299 2.439 . S
Cd295 O305 2.240 . S
Cd296 O297 2.240 . S
Cd296 O304 2.223 . S
Cd296 O306 2.297 . S
Cd296 O307 2.439 . S
O297 Cd296 2.240 . S
O297 C302 1.279 . S
O298 Cd295 2.297 . S
O298 C300 1.247 . S
O299 Cd295 2.439 . S
O299 C300 1.208 . S
C300 O298 1.247 . S
C300 O299 1.208 . S
C301 O306 1.247 . S
C301 O307 1.208 . S
C302 O294 1.315 . S
C302 O297 1.279 . S
C303 O304 1.315 . S
C303 O305 1.279 . S
O304 Cd296 2.223 . S
O304 C303 1.315 . S
O305 Cd295 2.240 . S
O305 C303 1.279 . S
O306 Cd296 2.297 . S
O306 C301 1.247 . S
O307 Cd296 2.439 . S
O307 C301 1.208 . S
O308 Cd309 2.223 . S
O308 C316 1.315 . S
Cd309 O308 2.223 . S
Cd309 O312 2.297 . S
Cd309 O313 2.439 . S
Cd309 O319 2.240 . S
Cd310 O311 2.240 . S
Cd310 O318 2.223 . S
Cd310 O320 2.297 . S
Cd310 O321 2.439 . S
O311 Cd310 2.240 . S
O311 C316 1.279 . S
O312 Cd309 2.297 . S
O312 C314 1.247 . S
O313 Cd309 2.439 . S
O313 C314 1.208 . S
C314 O312 1.247 . S
C314 O313 1.208 . S
C315 O320 1.247 . S
C315 O321 1.208 . S
C316 O308 1.315 . S
C316 O311 1.279 . S
C317 O318 1.315 . S
C317 O319 1.279 . S
O318 Cd310 2.223 . S
O318 C317 1.315 . S
O319 Cd309 2.240 . S
O319 C317 1.279 . S
O320 Cd310 2.297 . S
O320 C315 1.247 . S
O321 Cd310 2.439 . S
O321 C315 1.208 . S
O322 Cd323 2.223 . S
O322 C330 1.315 . S
Cd323 O322 2.223 . S
Cd323 O326 2.297 . S
Cd323 O327 2.439 . S
Cd323 O333 2.240 . S
Cd324 O325 2.240 . S
Cd324 O332 2.223 . S
Cd324 O334 2.297 . S
Cd324 O335 2.439 . S
O325 Cd324 2.240 . S
O325 C330 1.279 . S
O326 Cd323 2.297 . S
O326 C328 1.247 . S
O327 Cd323 2.439 . S
O327 C328 1.208 . S
C328 O326 1.247 . S
C328 O327 1.208 . S
C329 O334 1.247 . S
C329 O335 1.208 . S
C330 O322 1.315 . S
C330 O325 1.279 . S
C331 O332 1.315 . S
C331 O333 1.279 . S
O332 Cd324 2.223 . S
O332 C331 1.315 . S
O333 Cd323 2.240 . S
O333 C331 1.279 . S
O334 Cd324 2.297 . S
O334 C329 1.247 . S
O335 Cd324 2.439 . S
O335 C329 1.208 . S
O336 Cd337 2.223 . S
O336 C344 1.315 . S
Cd337 O336 2.223 . S
Cd337 O340 2.297 . S
Cd337 O341 2.439 . S
Cd337 O347 2.240 . S
Cd338 O339 2.240 . S
Cd338 O346 2.223 . S
Cd338 O348 2.297 . S
Cd338 O349 2.439 . S
O339 Cd338 2.240 . S
O339 C344 1.279 . S
O340 Cd337 2.297 . S
O340 C342 1.247 . S
O341 Cd337 2.439 . S
O341 C342 1.208 . S
C342 O340 1.247 . S
C342 O341 1.208 . S
C343 O348 1.247 . S
C343 O349 1.208 . S
C344 O336 1.315 . S
C344 O339 1.279 . S
C345 O346 1.315 . S
C345 O347 1.279 . S
O346 Cd338 2.223 . S
O346 C345 1.315 . S
O347 Cd337 2.240 . S
O347 C345 1.279 . S
O348 Cd338 2.297 . S
O348 C343 1.247 . S
O349 Cd338 2.439 . S
O349 C343 1.208 . S
O350 Cd351 2.223 . S
O350 C358 1.315 . S
Cd351 O350 2.223 . S
Cd351 O354 2.297 . S
Cd351 O355 2.439 . S
Cd351 O361 2.240 . S
Cd352 O353 2.240 . S
Cd352 O360 2.223 . S
Cd352 O362 2.297 . S
Cd352 O363 2.439 . S
O353 Cd352 2.240 . S
O353 C358 1.279 . S
O354 Cd351 2.297 . S
O354 C356 1.247 . S
O355 Cd351 2.439 . S
O355 C356 1.208 . S
C356 O354 1.247 . S
C356 O355 1.208 . S
C357 O362 1.247 . S
C357 O363 1.208 . S
C358 O350 1.315 . S
C358 O353 1.279 . S
C359 O360 1.315 . S
C359 O361 1.279 . S
O360 Cd352 2.223 . S
O360 C359 1.315 . S
O361 Cd351 2.240 . S
O361 C359 1.279 . S
O362 Cd352 2.297 . S
O362 C357 1.247 . S
O363 Cd352 2.439 . S
O363 C357 1.208 . S
O364 Cd365 2.223 . S
O364 C372 1.315 . S
Cd365 O364 2.223 . S
Cd365 O368 2.297 . S
Cd365 O369 2.439 . S
Cd365 O375 2.240 . S
Cd366 O367 2.240 . S
Cd366 O374 2.223 . S
Cd366 O376 2.297 . S
Cd366 O377 2.439 . S
O367 Cd366 2.240 . S
O367 C372 1.279 . S
O368 Cd365 2.297 . S
O368 C370 1.247 . S
O369 Cd365 2.439 . S
O369 C370 1.208 . S
C370 O368 1.247 . S
C370 O369 1.208 . S
C371 O376 1.247 . S
C371 O377 1.208 . S
C372 O364 1.315 . S
C372 O367 1.279 . S
C373 O374 1.315 . S
C373 O375 1.279 . S
O374 Cd366 2.223 . S
O374 C373 1.315 . S
O375 Cd365 2.240 . S
O375 C373 1.279 . S
O376 Cd366 2.297 . S
O376 C371 1.247 . S
O377 Cd366 2.439 . S
O377 C371 1.208 . S
O378 Cd379 2.223 . S
O378 C386 1.315 . S
Cd379 O378 2.223 . S
Cd379 O382 2.297 . S
Cd379 O383 2.439 . S
Cd379 O389 2.240 . S
Cd380 O381 2.240 . S
Cd380 O388 2.223 . S
Cd380 O390 2.297 . S
Cd380 O391 2.439 . S
O381 Cd380 2.240 . S
O381 C386 1.279 . S
O382 Cd379 2.297 . S
O382 C384 1.247 . S
O383 Cd379 2.439 . S
O383 C384 1.208 . S
C384 O382 1.247 . S
C384 O383 1.208 . S
C385 O390 1.247 . S
C385 O391 1.208 . S
C386 O378 1.315 . S
C386 O381 1.279 . S
C387 O388 1.315 . S
C387 O389 1.279 . S
O388 Cd380 2.223 . S
O388 C387 1.315 . S
O389 Cd379 2.240 . S
O389 C387 1.279 . S
O390 Cd380 2.297 . S
O390 C385 1.247 . S
O391 Cd380 2.439 . S
O391 C385 1.208 . S
O392 Cd393 2.223 . S
O392 C400 1.315 . S
Cd393 O392 2.223 . S
Cd393 O396 2.297 . S
Cd393 O397 2.439 . S
Cd393 O403 2.240 . S
Cd394 O395 2.240 . S
Cd394 O402 2.223 . S
Cd394 O404 2.297 . S
Cd394 O405 2.439 . S
O395 Cd394 2.240 . S
O395 C400 1.279 . S
O396 Cd393 2.297 . S
O396 C398 1.247 . S
O397 Cd393 2.439 . S
O397 C398 1.208 . S
C398 O396 1.247 . S
C398 O397 1.208 . S
C399 O404 1.247 . S
C399 O405 1.208 . S
C400 O392 1.315 . S
C400 O395 1.279 . S
C401 O402 1.315 . S
C401 O403 1.279 . S
O402 Cd394 2.223 . S
O402 C401 1.315 . S
O403 Cd393 2.240 . S
O403 C401 1.279 . S
O404 Cd394 2.297 . S
O404 C399 1.247 . S
O405 Cd394 2.439 . S
O405 C399 1.208 . S
O406 Cd407 2.223 . S
O406 C414 1.315 . S
Cd407 O406 2.223 . S
Cd407 O410 2.297 . S
Cd407 O411 2.439 . S
Cd407 O417 2.240 . S
Cd408 O409 2.240 . S
Cd408 O416 2.223 . S
Cd408 O418 2.297 . S
Cd408 O419 2.439 . S
O409 Cd408 2.240 . S
O409 C414 1.279 . S
O410 Cd407 2.297 . S
O410 C412 1.247 . S
O411 Cd407 2.439 . S
O411 C412 1.208 . S
C412 O410 1.247 . S
C412 O411 1.208 . S
C413 O418 1.247 . S
C413 O419 1.208 . S
C414 O406 1.315 . S
C414 O409 1.279 . S
C415 O416 1.315 . S
C415 O417 1.279 . S
O416 Cd408 2.223 . S
O416 C415 1.315 . S
O417 Cd407 2.240 . S
O417 C415 1.279 . S
O418 Cd408 2.297 . S
O418 C413 1.247 . S
O419 Cd408 2.439 . S
O419 C413 1.208 . S
O420 Cd421 2.223 . S
O420 C428 1.315 . S
Cd421 O420 2.223 . S
Cd421 O424 2.297 . S
Cd421 O425 2.439 . S
Cd421 O431 2.240 . S
Cd422 O423 2.240 . S
Cd422 O430 2.223 . S
Cd422 O432 2.297 . S
Cd422 O433 2.439 . S
O423 Cd422 2.240 . S
O423 C428 1.279 . S
O424 Cd421 2.297 . S
O424 C426 1.247 . S
O425 Cd421 2.439 . S
O425 C426 1.208 . S
C426 O424 1.247 . S
C426 O425 1.208 . S
C427 O432 1.247 . S
C427 O433 1.208 . S
C428 O420 1.315 . S
C428 O423 1.279 . S
C429 O430 1.315 . S
C429 O431 1.279 . S
O430 Cd422 2.223 . S
O430 C429 1.315 . S
O431 Cd421 2.240 . S
O431 C429 1.279 . S
O432 Cd422 2.297 . S
O432 C427 1.247 . S
O433 Cd422 2.439 . S
O433 C427 1.208 . S
O434 Cd435 2.223 . S
O434 C442 1.315 . S
Cd435 O434 2.223 . S
Cd435 O438 2.297 . S
Cd435 O439 2.439 . S
Cd435 O445 2.240 . S
Cd436 O437 2.240 . S
Cd436 O444 2.223 . S
Cd436 O446 2.297 . S
Cd436 O447 2.439 . S
O437 Cd436 2.240 . S
O437 C442 1.279 . S
O438 Cd435 2.297 . S
O438 C440 1.247 . S
O439 Cd435 2.439 . S
O439 C440 1.208 . S
C440 O438 1.247 . S
C440 O439 1.208 . S
C441 O446 1.247 . S
C441 O447 1.208 . S
C442 O434 1.315 . S
C442 O437 1.279 . S
C443 O444 1.315 . S
C443 O445 1.279 . S
O444 Cd436 2.223 . S
O444 C443 1.315 . S
O445 Cd435 2.240 . S
O445 C443 1.279 . S
O446 Cd436 2.297 . S
O446 C441 1.247 . S
O447 Cd436 2.439 . S
O447 C441 1.208 . S
C448 C449 1.387 . S
C448 H452 0.950 . S
C448 C457 1.390 . S
C449 C448 1.387 . S
C449 C451 1.387 . S
H450 C457 0.950 . S
C451 C449 1.387 . S
C451 C453 1.390 . S
C451 H455 0.950 . S
H452 C448 0.950 . S
C453 C451 1.390 . S
C453 C454 1.387 . S
C453 H456 0.950 . S
C454 C453 1.387 . S
C454 C457 1.387 . S
H455 C451 0.950 . S
H456 C453 0.950 . S
C457 C448 1.390 . S
C457 H450 0.950 . S
C457 C454 1.387 . S
C458 C459 1.387 . S
C458 H462 0.950 . S
C458 C467 1.390 . S
C459 C458 1.387 . S
C459 C461 1.387 . S
H460 C467 0.950 . S
C461 C459 1.387 . S
C461 C463 1.390 . S
C461 H465 0.950 . S
H462 C458 0.950 . S
C463 C461 1.390 . S
C463 C464 1.387 . S
C463 H466 0.950 . S
C464 C463 1.387 . S
C464 C467 1.387 . S
H465 C461 0.950 . S
H466 C463 0.950 . S
C467 C458 1.390 . S
C467 H460 0.950 . S
C467 C464 1.387 . S
C468 C469 1.387 . S
C468 H472 0.950 . S
C468 C477 1.390 . S
C469 C468 1.387 . S
C469 C471 1.387 . S
H470 C477 0.950 . S
C471 C469 1.387 . S
C471 C473 1.390 . S
C471 H475 0.950 . S
H472 C468 0.950 . S
C473 C471 1.390 . S
C473 C474 1.387 . S
C473 H476 0.950 . S
C474 C473 1.387 . S
C474 C477 1.387 . S
H475 C471 0.950 . S
H476 C473 0.950 . S
C477 C468 1.390 . S
C477 H470 0.950 . S
C477 C474 1.387 . S
C478 C479 1.387 . S
C478 H482 0.950 . S
C478 C487 1.390 . S
C479 C478 1.387 . S
C479 C481 1.387 . S
H480 C487 0.950 . S
C481 C479 1.387 . S
C481 C483 1.390 . S
C481 H485 0.950 . S
H482 C478 0.950 . S
C483 C481 1.390 . S
C483 C484 1.387 . S
C483 H486 0.950 . S
C484 C483 1.387 . S
C484 C487 1.387 . S
H485 C481 0.950 . S
H486 C483 0.950 . S
C487 C478 1.390 . S
C487 H480 0.950 . S
C487 C484 1.387 . S
C488 C489 1.387 . S
C488 H492 0.950 . S
C488 C497 1.390 . S
C489 C488 1.387 . S
C489 C491 1.387 . S
H490 C497 0.950 . S
C491 C489 1.387 . S
C491 C493 1.390 . S
C491 H495 0.950 . S
H492 C488 0.950 . S
C493 C491 1.390 . S
C493 C494 1.387 . S
C493 H496 0.950 . S
C494 C493 1.387 . S
C494 C497 1.387 . S
H495 C491 0.950 . S
H496 C493 0.950 . S
C497 C488 1.390 . S
C497 H490 0.950 . S
C497 C494 1.387 . S
C498 C499 1.387 . S
C498 H502 0.950 . S
C498 C507 1.390 . S
C499 C498 1.387 . S
C499 C501 1.387 . S
H500 C507 0.950 . S
C501 C499 1.387 . S
C501 C503 1.390 . S
C501 H505 0.950 . S
H502 C498 0.950 . S
C503 C501 1.390 . S
C503 C504 1.387 . S
C503 H506 0.950 . S
C504 C503 1.387 . S
C504 C507 1.387 . S
H505 C501 0.950 . S
H506 C503 0.950 . S
C507 C498 1.390 . S
C507 H500 0.950 . S
C507 C504 1.387 . S
C508 C509 1.387 . S
C508 H512 0.950 . S
C508 C517 1.390 . S
C509 C508 1.387 . S
C509 C511 1.387 . S
H510 C517 0.950 . S
C511 C509 1.387 . S
C511 C513 1.390 . S
C511 H515 0.950 . S
H512 C508 0.950 . S
C513 C511 1.390 . S
C513 C514 1.387 . S
C513 H516 0.950 . S
C514 C513 1.387 . S
C514 C517 1.387 . S
H515 C511 0.950 . S
H516 C513 0.950 . S
C517 C508 1.390 . S
C517 H510 0.950 . S
C517 C514 1.387 . S
C518 C519 1.387 . S
C518 H522 0.950 . S
C518 C527 1.390 . S
C519 C518 1.387 . S
C519 C521 1.387 . S
H520 C527 0.950 . S
C521 C519 1.387 . S
C521 C523 1.390 . S
C521 H525 0.950 . S
H522 C518 0.950 . S
C523 C521 1.390 . S
C523 C524 1.387 . S
C523 H526 0.950 . S
C524 C523 1.387 . S
C524 C527 1.387 . S
H525 C521 0.950 . S
H526 C523 0.950 . S
C527 C518 1.390 . S
C527 H520 0.950 . S
C527 C524 1.387 . S
C528 C529 1.387 . S
C528 H532 0.950 . S
C528 C537 1.390 . S
C529 C528 1.387 . S
C529 C531 1.387 . S
H530 C537 0.950 . S
C531 C529 1.387 . S
C531 C533 1.390 . S
C531 H535 0.950 . S
H532 C528 0.950 . S
C533 C531 1.390 . S
C533 C534 1.387 . S
C533 H536 0.950 . S
C534 C533 1.387 . S
C534 C537 1.387 . S
H535 C531 0.950 . S
H536 C533 0.950 . S
C537 C528 1.390 . S
C537 H530 0.950 . S
C537 C534 1.387 . S
C538 C539 1.387 . S
C538 H542 0.950 . S
C538 C547 1.390 . S
C539 C538 1.387 . S
C539 C541 1.387 . S
H540 C547 0.950 . S
C541 C539 1.387 . S
C541 C543 1.390 . S
C541 H545 0.950 . S
H542 C538 0.950 . S
C543 C541 1.390 . S
C543 C544 1.387 . S
C543 H546 0.950 . S
C544 C543 1.387 . S
C544 C547 1.387 . S
H545 C541 0.950 . S
H546 C543 0.950 . S
C547 C538 1.390 . S
C547 H540 0.950 . S
C547 C544 1.387 . S
C548 C549 1.387 . S
C548 H552 0.950 . S
C548 C557 1.390 . S
C549 C548 1.387 . S
C549 C551 1.387 . S
H550 C557 0.950 . S
C551 C549 1.387 . S
C551 C553 1.390 . S
C551 H555 0.950 . S
H552 C548 0.950 . S
C553 C551 1.390 . S
C553 C554 1.387 . S
C553 H556 0.950 . S
C554 C553 1.387 . S
C554 C557 1.387 . S
H555 C551 0.950 . S
H556 C553 0.950 . S
C557 C548 1.390 . S
C557 H550 0.950 . S
C557 C554 1.387 . S
C558 C559 1.387 . S
C558 H562 0.950 . S
C558 C567 1.390 . S
C559 C558 1.387 . S
C559 C561 1.387 . S
H560 C567 0.950 . S
C561 C559 1.387 . S
C561 C563 1.390 . S
C561 H565 0.950 . S
H562 C558 0.950 . S
C563 C561 1.390 . S
C563 C564 1.387 . S
C563 H566 0.950 . S
C564 C563 1.387 . S
C564 C567 1.387 . S
H565 C561 0.950 . S
H566 C563 0.950 . S
C567 C558 1.390 . S
C567 H560 0.950 . S
C567 C564 1.387 . S
C568 C569 1.387 . S
C568 H572 0.950 . S
C568 C577 1.390 . S
C569 C568 1.387 . S
C569 C571 1.387 . S
H570 C577 0.950 . S
C571 C569 1.387 . S
C571 C573 1.390 . S
C571 H575 0.950 . S
H572 C568 0.950 . S
C573 C571 1.390 . S
C573 C574 1.387 . S
C573 H576 0.950 . S
C574 C573 1.387 . S
C574 C577 1.387 . S
H575 C571 0.950 . S
H576 C573 0.950 . S
C577 C568 1.390 . S
C577 H570 0.950 . S
C577 C574 1.387 . S
C578 C579 1.387 . S
C578 H582 0.950 . S
C578 C587 1.390 . S
C579 C578 1.387 . S
C579 C581 1.387 . S
H580 C587 0.950 . S
C581 C579 1.387 . S
C581 C583 1.390 . S
C581 H585 0.950 . S
H582 C578 0.950 . S
C583 C581 1.390 . S
C583 C584 1.387 . S
C583 H586 0.950 . S
C584 C583 1.387 . S
C584 C587 1.387 . S
H585 C581 0.950 . S
H586 C583 0.950 . S
C587 C578 1.390 . S
C587 H580 0.950 . S
C587 C584 1.387 . S
C588 C589 1.387 . S
C588 H592 0.950 . S
C588 C597 1.390 . S
C589 C588 1.387 . S
C589 C591 1.387 . S
H590 C597 0.950 . S
C591 C589 1.387 . S
C591 C593 1.390 . S
C591 H595 0.950 . S
H592 C588 0.950 . S
C593 C591 1.390 . S
C593 C594 1.387 . S
C593 H596 0.950 . S
C594 C593 1.387 . S
C594 C597 1.387 . S
H595 C591 0.950 . S
H596 C593 0.950 . S
C597 C588 1.390 . S
C597 H590 0.950 . S
C597 C594 1.387 . S
C598 C599 1.387 . S
C598 H602 0.950 . S
C598 C607 1.390 . S
C599 C598 1.387 . S
C599 C601 1.387 . S
H600 C607 0.950 . S
C601 C599 1.387 . S
C601 C603 1.390 . S
C601 H605 0.950 . S
H602 C598 0.950 . S
C603 C601 1.390 . S
C603 C604 1.387 . S
C603 H606 0.950 . S
C604 C603 1.387 . S
C604 C607 1.387 . S
H605 C601 0.950 . S
H606 C603 0.950 . S
C607 C598 1.390 . S
C607 H600 0.950 . S
C607 C604 1.387 . S
C608 C609 1.387 . S
C608 H612 0.950 . S
C608 C617 1.390 1_554 S
C609 C608 1.387 . S
C609 C611 1.387 . S
H610 C617 0.950 . S
C611 C609 1.387 . S
C611 C613 1.390 1_554 S
C611 H615 0.950 . S
H612 C608 0.950 . S
C613 C611 1.390 1_556 S
C613 C614 1.387 . S
C613 H616 0.950 . S
C614 C613 1.387 . S
C614 C617 1.387 . S
H615 C611 0.950 . S
H616 C613 0.950 . S
C617 C608 1.390 1_556 S
C617 H610 0.950 . S
C617 C614 1.387 . S
C618 C619 1.387 . S
C618 H622 0.950 . S
C618 C627 1.390 1_556 S
C619 C618 1.387 . S
C619 C621 1.387 . S
H620 C627 0.950 . S
C621 C619 1.387 . S
C621 C623 1.390 1_556 S
C621 H625 0.950 . S
H622 C618 0.950 . S
C623 C621 1.390 1_554 S
C623 C624 1.387 . S
C623 H626 0.950 . S
C624 C623 1.387 . S
C624 C627 1.387 . S
H625 C621 0.950 . S
H626 C623 0.950 . S
C627 C618 1.390 1_554 S
C627 H620 0.950 . S
C627 C624 1.387 . S
C628 C629 1.387 . S
C628 H632 0.950 . S
C628 C637 1.390 1_556 S
C629 C628 1.387 . S
C629 C631 1.387 . S
H630 C637 0.950 . S
C631 C629 1.387 . S
C631 C633 1.390 1_556 S
C631 H635 0.950 . S
H632 C628 0.950 . S
C633 C631 1.390 1_554 S
C633 C634 1.387 . S
C633 H636 0.950 . S
C634 C633 1.387 . S
C634 C637 1.387 . S
H635 C631 0.950 . S
H636 C633 0.950 . S
C637 C628 1.390 1_554 S
C637 H630 0.950 . S
C637 C634 1.387 . S
C638 C639 1.387 . S
C638 H642 0.950 . S
C638 C647 1.390 1_556 S
C639 C638 1.387 . S
C639 C641 1.387 . S
H640 C647 0.950 . S
C641 C639 1.387 . S
C641 C643 1.390 1_556 S
C641 H645 0.950 . S
H642 C638 0.950 . S
C643 C641 1.390 1_554 S
C643 C644 1.387 . S
C643 H646 0.950 . S
C644 C643 1.387 . S
C644 C647 1.387 . S
H645 C641 0.950 . S
H646 C643 0.950 . S
C647 C638 1.390 1_554 S
C647 H640 0.950 . S
C647 C644 1.387 . S
C648 C649 1.387 . S
C648 H652 0.950 . S
C648 C657 1.390 . S
C649 C648 1.387 . S
C649 C651 1.387 . S
H650 C657 0.950 . S
C651 C649 1.387 . S
C651 C653 1.390 . S
C651 H655 0.950 . S
H652 C648 0.950 . S
C653 C651 1.390 . S
C653 C654 1.387 . S
C653 H656 0.950 . S
C654 C653 1.387 . S
C654 C657 1.387 . S
H655 C651 0.950 . S
H656 C653 0.950 . S
C657 C648 1.390 . S
C657 H650 0.950 . S
C657 C654 1.387 . S
C658 C659 1.387 . S
C658 H662 0.950 . S
C658 C667 1.390 . S
C659 C658 1.387 . S
C659 C661 1.387 . S
H660 C667 0.950 . S
C661 C659 1.387 . S
C661 C663 1.390 . S
C661 H665 0.950 . S
H662 C658 0.950 . S
C663 C661 1.390 . S
C663 C664 1.387 . S
C663 H666 0.950 . S
C664 C663 1.387 . S
C664 C667 1.387 . S
H665 C661 0.950 . S
H666 C663 0.950 . S
C667 C658 1.390 . S
C667 H660 0.950 . S
C667 C664 1.387 . S
C668 C669 1.387 . S
C668 H672 0.950 . S
C668 C677 1.390 . S
C669 C668 1.387 . S
C669 C671 1.387 . S
H670 C677 0.950 . S
C671 C669 1.387 . S
C671 C673 1.390 . S
C671 H675 0.950 . S
H672 C668 0.950 . S
C673 C671 1.390 . S
C673 C674 1.387 . S
C673 H676 0.950 . S
C674 C673 1.387 . S
C674 C677 1.387 . S
H675 C671 0.950 . S
H676 C673 0.950 . S
C677 C668 1.390 . S
C677 H670 0.950 . S
C677 C674 1.387 . S
C678 C679 1.387 . S
C678 H682 0.950 . S
C678 C687 1.390 . S
C679 C678 1.387 . S
C679 C681 1.387 . S
H680 C687 0.950 . S
C681 C679 1.387 . S
C681 C683 1.390 . S
C681 H685 0.950 . S
H682 C678 0.950 . S
C683 C681 1.390 . S
C683 C684 1.387 . S
C683 H686 0.950 . S
C684 C683 1.387 . S
C684 C687 1.387 . S
H685 C681 0.950 . S
H686 C683 0.950 . S
C687 C678 1.390 . S
C687 H680 0.950 . S
C687 C684 1.387 . S
C688 C689 1.387 . S
C688 H692 0.950 . S
C688 C697 1.390 . S
C689 C688 1.387 . S
C689 C691 1.387 . S
H690 C697 0.950 . S
C691 C689 1.387 . S
C691 C693 1.390 . S
C691 H695 0.950 . S
H692 C688 0.950 . S
C693 C691 1.390 . S
C693 C694 1.387 . S
C693 H696 0.950 . S
C694 C693 1.387 . S
C694 C697 1.387 . S
H695 C691 0.950 . S
H696 C693 0.950 . S
C697 C688 1.390 . S
C697 H690 0.950 . S
C697 C694 1.387 . S
C698 C699 1.387 . S
C698 H702 0.950 . S
C698 C707 1.390 . S
C699 C698 1.387 . S
C699 C701 1.387 . S
H700 C707 0.950 . S
C701 C699 1.387 . S
C701 C703 1.390 . S
C701 H705 0.950 . S
H702 C698 0.950 . S
C703 C701 1.390 . S
C703 C704 1.387 . S
C703 H706 0.950 . S
C704 C703 1.387 . S
C704 C707 1.387 . S
H705 C701 0.950 . S
H706 C703 0.950 . S
C707 C698 1.390 . S
C707 H700 0.950 . S
C707 C704 1.387 . S
C708 C709 1.387 . S
C708 H712 0.950 . S
C708 C717 1.390 . S
C709 C708 1.387 . S
C709 C711 1.387 . S
H710 C717 0.950 . S
C711 C709 1.387 . S
C711 C713 1.390 . S
C711 H715 0.950 . S
H712 C708 0.950 . S
C713 C711 1.390 . S
C713 C714 1.387 . S
C713 H716 0.950 . S
C714 C713 1.387 . S
C714 C717 1.387 . S
H715 C711 0.950 . S
H716 C713 0.950 . S
C717 C708 1.390 . S
C717 H710 0.950 . S
C717 C714 1.387 . S
C718 C719 1.387 . S
C718 H722 0.950 . S
C718 C727 1.390 . S
C719 C718 1.387 . S
C719 C721 1.387 . S
H720 C727 0.950 . S
C721 C719 1.387 . S
C721 C723 1.390 . S
C721 H725 0.950 . S
H722 C718 0.950 . S
C723 C721 1.390 . S
C723 C724 1.387 . S
C723 H726 0.950 . S
C724 C723 1.387 . S
C724 C727 1.387 . S
H725 C721 0.950 . S
H726 C723 0.950 . S
C727 C718 1.390 . S
C727 H720 0.950 . S
C727 C724 1.387 . S
C728 C729 1.387 . S
C728 H732 0.950 . S
C728 C737 1.390 1_556 S
C729 C728 1.387 . S
C729 C731 1.387 . S
H730 C737 0.950 . S
C731 C729 1.387 . S
C731 C733 1.390 1_556 S
C731 H735 0.950 . S
H732 C728 0.950 . S
C733 C731 1.390 1_554 S
C733 C734 1.387 . S
C733 H736 0.950 . S
C734 C733 1.387 . S
C734 C737 1.387 . S
H735 C731 0.950 . S
H736 C733 0.950 . S
C737 C728 1.390 1_554 S
C737 H730 0.950 . S
C737 C734 1.387 . S
C738 C739 1.387 . S
C738 H742 0.950 . S
C738 C747 1.390 1_554 S
C739 C738 1.387 . S
C739 C741 1.387 . S
H740 C747 0.950 . S
C741 C739 1.387 . S
C741 C743 1.390 1_554 S
C741 H745 0.950 . S
H742 C738 0.950 . S
C743 C741 1.390 1_556 S
C743 C744 1.387 . S
C743 H746 0.950 . S
C744 C743 1.387 . S
C744 C747 1.387 . S
H745 C741 0.950 . S
H746 C743 0.950 . S
C747 C738 1.390 1_556 S
C747 H740 0.950 . S
C747 C744 1.387 . S
C748 C749 1.387 . S
C748 H752 0.950 . S
C748 C757 1.390 1_554 S
C749 C748 1.387 . S
C749 C751 1.387 . S
H750 C757 0.950 . S
C751 C749 1.387 . S
C751 C753 1.390 1_554 S
C751 H755 0.950 . S
H752 C748 0.950 . S
C753 C751 1.390 1_556 S
C753 C754 1.387 . S
C753 H756 0.950 . S
C754 C753 1.387 . S
C754 C757 1.387 . S
H755 C751 0.950 . S
H756 C753 0.950 . S
C757 C748 1.390 1_556 S
C757 H750 0.950 . S
C757 C754 1.387 . S
C758 C759 1.387 . S
C758 H762 0.950 . S
C758 C767 1.390 1_556 S
C759 C758 1.387 . S
C759 C761 1.387 . S
H760 C767 0.950 . S
C761 C759 1.387 . S
C761 C763 1.390 1_556 S
C761 H765 0.950 . S
H762 C758 0.950 . S
C763 C761 1.390 1_554 S
C763 C764 1.387 . S
C763 H766 0.950 . S
C764 C763 1.387 . S
C764 C767 1.387 . S
H765 C761 0.950 . S
H766 C763 0.950 . S
C767 C758 1.390 1_554 S
C767 H760 0.950 . S
C767 C764 1.387 . S
C768 C769 1.387 . S
C768 H772 0.950 . S
C768 C777 1.390 1_545 S
C769 C768 1.387 . S
C769 C771 1.387 . S
H770 C777 0.950 . S
C771 C769 1.387 . S
C771 C773 1.390 1_545 S
C771 H775 0.950 . S
H772 C768 0.950 . S
C773 C771 1.390 1_565 S
C773 C774 1.387 . S
C773 H776 0.950 . S
C774 C773 1.387 . S
C774 C777 1.387 . S
H775 C771 0.950 . S
H776 C773 0.950 . S
C777 C768 1.390 1_565 S
C777 H770 0.950 . S
C777 C774 1.387 . S
C778 C779 1.387 . S
C778 H782 0.950 . S
C778 C787 1.390 1_655 S
C779 C778 1.387 . S
C779 C781 1.387 . S
H780 C787 0.950 . S
C781 C779 1.387 . S
C781 C783 1.390 1_655 S
C781 H785 0.950 . S
H782 C778 0.950 . S
C783 C781 1.390 1_455 S
C783 C784 1.387 . S
C783 H786 0.950 . S
C784 C783 1.387 . S
C784 C787 1.387 . S
H785 C781 0.950 . S
H786 C783 0.950 . S
C787 C778 1.390 1_455 S
C787 H780 0.950 . S
C787 C784 1.387 . S
C788 C789 1.387 . S
C788 H792 0.950 . S
C788 C797 1.390 1_545 S
C789 C788 1.387 . S
C789 C791 1.387 . S
H790 C797 0.950 . S
C791 C789 1.387 . S
C791 C793 1.390 1_545 S
C791 H795 0.950 . S
H792 C788 0.950 . S
C793 C791 1.390 1_565 S
C793 C794 1.387 . S
C793 H796 0.950 . S
C794 C793 1.387 . S
C794 C797 1.387 . S
H795 C791 0.950 . S
H796 C793 0.950 . S
C797 C788 1.390 1_565 S
C797 H790 0.950 . S
C797 C794 1.387 . S
C798 C799 1.387 . S
C798 H802 0.950 . S
C798 C807 1.390 1_455 S
C799 C798 1.387 . S
C799 C801 1.387 . S
H800 C807 0.950 . S
C801 C799 1.387 . S
C801 C803 1.390 1_455 S
C801 H805 0.950 . S
H802 C798 0.950 . S
C803 C801 1.390 1_655 S
C803 C804 1.387 . S
C803 H806 0.950 . S
C804 C803 1.387 . S
C804 C807 1.387 . S
H805 C801 0.950 . S
H806 C803 0.950 . S
C807 C798 1.390 1_655 S
C807 H800 0.950 . S
C807 C804 1.387 . S
C808 C809 1.387 . S
C808 H812 0.950 . S
C808 C817 1.390 1_565 S
C809 C808 1.387 . S
C809 C811 1.387 . S
H810 C817 0.950 . S
C811 C809 1.387 . S
C811 C813 1.390 1_565 S
C811 H815 0.950 . S
H812 C808 0.950 . S
C813 C811 1.390 1_545 S
C813 C814 1.387 . S
C813 H816 0.950 . S
C814 C813 1.387 . S
C814 C817 1.387 . S
H815 C811 0.950 . S
H816 C813 0.950 . S
C817 C808 1.390 1_545 S
C817 H810 0.950 . S
C817 C814 1.387 . S
C818 C819 1.387 . S
C818 H822 0.950 . S
C818 C827 1.390 1_655 S
C819 C818 1.387 . S
C819 C821 1.387 . S
H820 C827 0.950 . S
C821 C819 1.387 . S
C821 C823 1.390 1_655 S
C821 H825 0.950 . S
H822 C818 0.950 . S
C823 C821 1.390 1_455 S
C823 C824 1.387 . S
C823 H826 0.950 . S
C824 C823 1.387 . S
C824 C827 1.387 . S
H825 C821 0.950 . S
H826 C823 0.950 . S
C827 C818 1.390 1_455 S
C827 H820 0.950 . S
C827 C824 1.387 . S
C828 C829 1.387 . S
C828 H832 0.950 . S
C828 C837 1.390 1_565 S
C829 C828 1.387 . S
C829 C831 1.387 . S
H830 C837 0.950 . S
C831 C829 1.387 . S
C831 C833 1.390 1_565 S
C831 H835 0.950 . S
H832 C828 0.950 . S
C833 C831 1.390 1_545 S
C833 C834 1.387 . S
C833 H836 0.950 . S
C834 C833 1.387 . S
C834 C837 1.387 . S
H835 C831 0.950 . S
H836 C833 0.950 . S
C837 C828 1.390 1_545 S
C837 H830 0.950 . S
C837 C834 1.387 . S
C838 C839 1.387 . S
C838 H842 0.950 . S
C838 C847 1.390 1_655 S
C839 C838 1.387 . S
C839 C841 1.387 . S
H840 C847 0.950 . S
C841 C839 1.387 . S
C841 C843 1.390 1_655 S
C841 H845 0.950 . S
H842 C838 0.950 . S
C843 C841 1.390 1_455 S
C843 C844 1.387 . S
C843 H846 0.950 . S
C844 C843 1.387 . S
C844 C847 1.387 . S
H845 C841 0.950 . S
H846 C843 0.950 . S
C847 C838 1.390 1_455 S
C847 H840 0.950 . S
C847 C844 1.387 . S
C848 C849 1.387 . S
C848 H852 0.950 . S
C848 C857 1.390 . S
C849 C848 1.387 . S
C849 C851 1.387 . S
H850 C857 0.950 . S
C851 C849 1.387 . S
C851 C853 1.390 . S
C851 H855 0.950 . S
H852 C848 0.950 . S
C853 C851 1.390 . S
C853 C854 1.387 . S
C853 H856 0.950 . S
C854 C853 1.387 . S
C854 C857 1.387 . S
H855 C851 0.950 . S
H856 C853 0.950 . S
C857 C848 1.390 . S
C857 H850 0.950 . S
C857 C854 1.387 . S
C858 C859 1.387 . S
C858 H862 0.950 . S
C858 C867 1.390 . S
C859 C858 1.387 . S
C859 C861 1.387 . S
H860 C867 0.950 . S
C861 C859 1.387 . S
C861 C863 1.390 . S
C861 H865 0.950 . S
H862 C858 0.950 . S
C863 C861 1.390 . S
C863 C864 1.387 . S
C863 H866 0.950 . S
C864 C863 1.387 . S
C864 C867 1.387 . S
H865 C861 0.950 . S
H866 C863 0.950 . S
C867 C858 1.390 . S
C867 H860 0.950 . S
C867 C864 1.387 . S
C868 C869 1.387 . S
C868 H872 0.950 . S
C868 C877 1.390 . S
C869 C868 1.387 . S
C869 C871 1.387 . S
H870 C877 0.950 . S
C871 C869 1.387 . S
C871 C873 1.390 . S
C871 H875 0.950 . S
H872 C868 0.950 . S
C873 C871 1.390 . S
C873 C874 1.387 . S
C873 H876 0.950 . S
C874 C873 1.387 . S
C874 C877 1.387 . S
H875 C871 0.950 . S
H876 C873 0.950 . S
C877 C868 1.390 . S
C877 H870 0.950 . S
C877 C874 1.387 . S
C878 C879 1.387 . S
C878 H882 0.950 . S
C878 C887 1.390 . S
C879 C878 1.387 . S
C879 C881 1.387 . S
H880 C887 0.950 . S
C881 C879 1.387 . S
C881 C883 1.390 . S
C881 H885 0.950 . S
H882 C878 0.950 . S
C883 C881 1.390 . S
C883 C884 1.387 . S
C883 H886 0.950 . S
C884 C883 1.387 . S
C884 C887 1.387 . S
H885 C881 0.950 . S
H886 C883 0.950 . S
C887 C878 1.390 . S
C887 H880 0.950 . S
C887 C884 1.387 . S
C888 C889 1.387 . S
C888 H892 0.950 . S
C888 C897 1.390 . S
C889 C888 1.387 . S
C889 C891 1.387 . S
H890 C897 0.950 . S
C891 C889 1.387 . S
C891 C893 1.390 . S
C891 H895 0.950 . S
H892 C888 0.950 . S
C893 C891 1.390 . S
C893 C894 1.387 . S
C893 H896 0.950 . S
C894 C893 1.387 . S
C894 C897 1.387 . S
H895 C891 0.950 . S
H896 C893 0.950 . S
C897 C888 1.390 . S
C897 H890 0.950 . S
C897 C894 1.387 . S
C898 C899 1.387 . S
C898 H902 0.950 . S
C898 C907 1.390 . S
C899 C898 1.387 . S
C899 C901 1.387 . S
H900 C907 0.950 . S
C901 C899 1.387 . S
C901 C903 1.390 . S
C901 H905 0.950 . S
H902 C898 0.950 . S
C903 C901 1.390 . S
C903 C904 1.387 . S
C903 H906 0.950 . S
C904 C903 1.387 . S
C904 C907 1.387 . S
H905 C901 0.950 . S
H906 C903 0.950 . S
C907 C898 1.390 . S
C907 H900 0.950 . S
C907 C904 1.387 . S
C908 C909 1.387 . S
C908 H912 0.950 . S
C908 C917 1.390 . S
C909 C908 1.387 . S
C909 C911 1.387 . S
H910 C917 0.950 . S
C911 C909 1.387 . S
C911 C913 1.390 . S
C911 H915 0.950 . S
H912 C908 0.950 . S
C913 C911 1.390 . S
C913 C914 1.387 . S
C913 H916 0.950 . S
C914 C913 1.387 . S
C914 C917 1.387 . S
H915 C911 0.950 . S
H916 C913 0.950 . S
C917 C908 1.390 . S
C917 H910 0.950 . S
C917 C914 1.387 . S
C918 C919 1.387 . S
C918 H922 0.950 . S
C918 C927 1.390 . S
C919 C918 1.387 . S
C919 C921 1.387 . S
H920 C927 0.950 . S
C921 C919 1.387 . S
C921 C923 1.390 . S
C921 H925 0.950 . S
H922 C918 0.950 . S
C923 C921 1.390 . S
C923 C924 1.387 . S
C923 H926 0.950 . S
C924 C923 1.387 . S
C924 C927 1.387 . S
H925 C921 0.950 . S
H926 C923 0.950 . S
C927 C918 1.390 . S
C927 H920 0.950 . S
C927 C924 1.387 . S
C928 C929 1.387 . S
C928 H932 0.950 . S
C928 C937 1.390 . S
C929 C928 1.387 . S
C929 C931 1.387 . S
H930 C937 0.950 . S
C931 C929 1.387 . S
C931 C933 1.390 . S
C931 H935 0.950 . S
H932 C928 0.950 . S
C933 C931 1.390 . S
C933 C934 1.387 . S
C933 H936 0.950 . S
C934 C933 1.387 . S
C934 C937 1.387 . S
H935 C931 0.950 . S
H936 C933 0.950 . S
C937 C928 1.390 . S
C937 H930 0.950 . S
C937 C934 1.387 . S
C938 C939 1.387 . S
C938 H942 0.950 . S
C938 C947 1.390 . S
C939 C938 1.387 . S
C939 C941 1.387 . S
H940 C947 0.950 . S
C941 C939 1.387 . S
C941 C943 1.390 . S
C941 H945 0.950 . S
H942 C938 0.950 . S
C943 C941 1.390 . S
C943 C944 1.387 . S
C943 H946 0.950 . S
C944 C943 1.387 . S
C944 C947 1.387 . S
H945 C941 0.950 . S
H946 C943 0.950 . S
C947 C938 1.390 . S
C947 H940 0.950 . S
C947 C944 1.387 . S
C948 C949 1.387 . S
C948 H952 0.950 . S
C948 C957 1.390 . S
C949 C948 1.387 . S
C949 C951 1.387 . S
H950 C957 0.950 . S
C951 C949 1.387 . S
C951 C953 1.390 . S
C951 H955 0.950 . S
H952 C948 0.950 . S
C953 C951 1.390 . S
C953 C954 1.387 . S
C953 H956 0.950 . S
C954 C953 1.387 . S
C954 C957 1.387 . S
H955 C951 0.950 . S
H956 C953 0.950 . S
C957 C948 1.390 . S
C957 H950 0.950 . S
C957 C954 1.387 . S
C958 C959 1.387 . S
C958 H962 0.950 . S
C958 C967 1.390 . S
C959 C958 1.387 . S
C959 C961 1.387 . S
H960 C967 0.950 . S
C961 C959 1.387 . S
C961 C963 1.390 . S
C961 H965 0.950 . S
H962 C958 0.950 . S
C963 C961 1.390 . S
C963 C964 1.387 . S
C963 H966 0.950 . S
C964 C963 1.387 . S
C964 C967 1.387 . S
H965 C961 0.950 . S
H966 C963 0.950 . S
C967 C958 1.390 . S
C967 H960 0.950 . S
C967 C964 1.387 . S
C968 C969 1.387 . S
C968 H972 0.950 . S
C968 C977 1.390 . S
C969 C968 1.387 . S
C969 C971 1.387 . S
H970 C977 0.950 . S
C971 C969 1.387 . S
C971 C973 1.390 . S
C971 H975 0.950 . S
H972 C968 0.950 . S
C973 C971 1.390 . S
C973 C974 1.387 . S
C973 H976 0.950 . S
C974 C973 1.387 . S
C974 C977 1.387 . S
H975 C971 0.950 . S
H976 C973 0.950 . S
C977 C968 1.390 . S
C977 H970 0.950 . S
C977 C974 1.387 . S
C978 C979 1.387 . S
C978 H982 0.950 . S
C978 C987 1.390 . S
C979 C978 1.387 . S
C979 C981 1.387 . S
H980 C987 0.950 . S
C981 C979 1.387 . S
C981 C983 1.390 . S
C981 H985 0.950 . S
H982 C978 0.950 . S
C983 C981 1.390 . S
C983 C984 1.387 . S
C983 H986 0.950 . S
C984 C983 1.387 . S
C984 C987 1.387 . S
H985 C981 0.950 . S
H986 C983 0.950 . S
C987 C978 1.390 . S
C987 H980 0.950 . S
C987 C984 1.387 . S
C988 C989 1.387 . S
C988 H992 0.950 . S
C988 C997 1.390 . S
C989 C988 1.387 . S
C989 C991 1.387 . S
H990 C997 0.950 . S
C991 C989 1.387 . S
C991 C993 1.390 . S
C991 H995 0.950 . S
H992 C988 0.950 . S
C993 C991 1.390 . S
C993 C994 1.387 . S
C993 H996 0.950 . S
C994 C993 1.387 . S
C994 C997 1.387 . S
H995 C991 0.950 . S
H996 C993 0.950 . S
C997 C988 1.390 . S
C997 H990 0.950 . S
C997 C994 1.387 . S
C998 C999 1.387 . S
C998 H1002 0.950 . S
C998 C1007 1.390 . S
C999 C998 1.387 . S
C999 C1001 1.387 . S
H1000 C1007 0.950 . S
C1001 C999 1.387 . S
C1001 C1003 1.390 . S
C1001 H1005 0.950 . S
H1002 C998 0.950 . S
C1003 C1001 1.390 . S
C1003 C1004 1.387 . S
C1003 H1006 0.950 . S
C1004 C1003 1.387 . S
C1004 C1007 1.387 . S
H1005 C1001 0.950 . S
H1006 C1003 0.950 . S
C1007 C998 1.390 . S
C1007 H1000 0.950 . S
C1007 C1004 1.387 . S
C1008 C1009 1.387 . S
C1008 H1012 0.950 . S
C1008 C1017 1.390 . S
C1009 C1008 1.387 . S
C1009 C1011 1.387 . S
H1010 C1017 0.950 . S
C1011 C1009 1.387 . S
C1011 C1013 1.390 . S
C1011 H1015 0.950 . S
H1012 C1008 0.950 . S
C1013 C1011 1.390 . S
C1013 C1014 1.387 . S
C1013 H1016 0.950 . S
C1014 C1013 1.387 . S
C1014 C1017 1.387 . S
H1015 C1011 0.950 . S
H1016 C1013 0.950 . S
C1017 C1008 1.390 . S
C1017 H1010 0.950 . S
C1017 C1014 1.387 . S
C1018 C1019 1.387 . S
C1018 H1022 0.950 . S
C1018 C1027 1.390 . S
C1019 C1018 1.387 . S
C1019 C1021 1.387 . S
H1020 C1027 0.950 . S
C1021 C1019 1.387 . S
C1021 C1023 1.390 . S
C1021 H1025 0.950 . S
H1022 C1018 0.950 . S
C1023 C1021 1.390 . S
C1023 C1024 1.387 . S
C1023 H1026 0.950 . S
C1024 C1023 1.387 . S
C1024 C1027 1.387 . S
H1025 C1021 0.950 . S
H1026 C1023 0.950 . S
C1027 C1018 1.390 . S
C1027 H1020 0.950 . S
C1027 C1024 1.387 . S
C1028 C1029 1.387 . S
C1028 H1032 0.950 . S
C1028 C1037 1.390 . S
C1029 C1028 1.387 . S
C1029 C1031 1.387 . S
H1030 C1037 0.950 . S
C1031 C1029 1.387 . S
C1031 C1033 1.390 . S
C1031 H1035 0.950 . S
H1032 C1028 0.950 . S
C1033 C1031 1.390 . S
C1033 C1034 1.387 . S
C1033 H1036 0.950 . S
C1034 C1033 1.387 . S
C1034 C1037 1.387 . S
H1035 C1031 0.950 . S
H1036 C1033 0.950 . S
C1037 C1028 1.390 . S
C1037 H1030 0.950 . S
C1037 C1034 1.387 . S
C1038 C1039 1.387 . S
C1038 H1042 0.950 . S
C1038 C1047 1.390 . S
C1039 C1038 1.387 . S
C1039 C1041 1.387 . S
H1040 C1047 0.950 . S
C1041 C1039 1.387 . S
C1041 C1043 1.390 . S
C1041 H1045 0.950 . S
H1042 C1038 0.950 . S
C1043 C1041 1.390 . S
C1043 C1044 1.387 . S
C1043 H1046 0.950 . S
C1044 C1043 1.387 . S
C1044 C1047 1.387 . S
H1045 C1041 0.950 . S
H1046 C1043 0.950 . S
C1047 C1038 1.390 . S
C1047 H1040 0.950 . S
C1047 C1044 1.387 . S
C1048 C1049 1.387 . S
C1048 H1052 0.950 . S
C1048 C1057 1.390 . S
C1049 C1048 1.387 . S
C1049 C1051 1.387 . S
H1050 C1057 0.950 . S
C1051 C1049 1.387 . S
C1051 C1053 1.390 . S
C1051 H1055 0.950 . S
H1052 C1048 0.950 . S
C1053 C1051 1.390 . S
C1053 C1054 1.387 . S
C1053 H1056 0.950 . S
C1054 C1053 1.387 . S
C1054 C1057 1.387 . S
H1055 C1051 0.950 . S
H1056 C1053 0.950 . S
C1057 C1048 1.390 . S
C1057 H1050 0.950 . S
C1057 C1054 1.387 . S
C1058 C1059 1.387 . S
C1058 H1062 0.950 . S
C1058 C1067 1.390 . S
C1059 C1058 1.387 . S
C1059 C1061 1.387 . S
H1060 C1067 0.950 . S
C1061 C1059 1.387 . S
C1061 C1063 1.390 . S
C1061 H1065 0.950 . S
H1062 C1058 0.950 . S
C1063 C1061 1.390 . S
C1063 C1064 1.387 . S
C1063 H1066 0.950 . S
C1064 C1063 1.387 . S
C1064 C1067 1.387 . S
H1065 C1061 0.950 . S
H1066 C1063 0.950 . S
C1067 C1058 1.390 . S
C1067 H1060 0.950 . S
C1067 C1064 1.387 . S
C1068 C1069 1.387 . S
C1068 H1072 0.950 . S
C1068 C1077 1.390 . S
C1069 C1068 1.387 . S
C1069 C1071 1.387 . S
H1070 C1077 0.950 . S
C1071 C1069 1.387 . S
C1071 C1073 1.390 . S
C1071 H1075 0.950 . S
H1072 C1068 0.950 . S
C1073 C1071 1.390 . S
C1073 C1074 1.387 . S
C1073 H1076 0.950 . S
C1074 C1073 1.387 . S
C1074 C1077 1.387 . S
H1075 C1071 0.950 . S
H1076 C1073 0.950 . S
C1077 C1068 1.390 . S
C1077 H1070 0.950 . S
C1077 C1074 1.387 . S
C1078 C1079 1.387 . S
C1078 H1082 0.950 . S
C1078 C1087 1.390 . S
C1079 C1078 1.387 . S
C1079 C1081 1.387 . S
H1080 C1087 0.950 . S
C1081 C1079 1.387 . S
C1081 C1083 1.390 . S
C1081 H1085 0.950 . S
H1082 C1078 0.950 . S
C1083 C1081 1.390 . S
C1083 C1084 1.387 . S
C1083 H1086 0.950 . S
C1084 C1083 1.387 . S
C1084 C1087 1.387 . S
H1085 C1081 0.950 . S
H1086 C1083 0.950 . S
C1087 C1078 1.390 . S
C1087 H1080 0.950 . S
C1087 C1084 1.387 . S
C449 C415 1.612 . S
C454 C9 1.611 . S
C459 C23 1.612 . S
C464 C429 1.611 . S
C469 C443 1.611 . S
C474 C37 1.612 . S
C479 C401 1.612 . S
C484 C51 1.611 . S
C489 C65 1.611 . S
C494 C387 1.612 . S
C499 C345 1.611 . S
C504 C79 1.612 . S
C509 C93 1.611 . S
C514 C359 1.612 . S
C519 C373 1.612 . S
C524 C107 1.611 . S
C529 C121 1.612 . S
C534 C303 1.611 . S
C539 C135 1.611 . S
C544 C317 1.612 . S
C549 C331 1.611 . S
C554 C149 1.612 . S
C559 C163 1.611 . S
C564 C289 1.612 . S
C569 C275 1.611 . S
C574 C177 1.612 . S
C579 C233 1.611 . S
C584 C191 1.612 . S
C589 C205 1.612 . S
C594 C247 1.611 . S
C599 C219 1.612 . S
C604 C261 1.611 . S
C609 C7 1.437 . S
C614 C147 1.438 . S
C619 C161 1.439 . S
C624 C21 1.437 . S
C629 C119 1.439 . S
C634 C35 1.437 . S
C639 C133 1.437 . S
C644 C49 1.439 . S
C649 C63 1.439 . S
C654 C203 1.437 . S
C659 C217 1.437 . S
C664 C77 1.439 . S
C669 C175 1.437 . S
C674 C91 1.439 . S
C679 C189 1.438 . S
C684 C105 1.438 . S
C689 C231 1.439 . S
C694 C371 1.436 . S
C699 C385 1.439 . S
C704 C245 1.437 . S
C709 C343 1.437 . S
C714 C259 1.438 . S
C719 C273 1.439 . S
C724 C357 1.437 . S
C729 C287 1.436 . S
C734 C427 1.439 . S
C739 C441 1.439 . S
C744 C301 1.437 . S
C749 C399 1.436 . S
C754 C315 1.439 . S
C759 C329 1.437 . S
C764 C413 1.439 . S
C769 C6 1.539 . S
C774 C62 1.539 . S
C779 C20 1.539 . S
C784 C76 1.539 . S
C789 C90 1.539 . S
C794 C34 1.539 . S
C799 C48 1.539 . S
C804 C104 1.539 . S
C809 C118 1.536 . S
C814 C174 1.536 . S
C819 C188 1.536 . S
C824 C132 1.536 . S
C829 C202 1.539 . S
C834 C146 1.539 . S
C839 C160 1.539 . S
C844 C216 1.539 . S
C849 C230 1.539 . S
C854 C286 1.539 . S
C859 C300 1.536 . S
C864 C244 1.536 . S
C869 C258 1.536 . S
C874 C314 1.536 . S
C879 C328 1.539 . S
C884 C272 1.539 . S
C889 C398 1.536 . S
C894 C342 1.536 . S
C899 C356 1.536 . S
C904 C412 1.536 . S
C909 C370 1.536 . S
C914 C426 1.536 . S
C919 C384 1.536 . S
C924 C440 1.536 . S
C929 C8 1.425 . S
C934 C78 1.425 . S
C939 C22 1.425 . S
C944 C92 1.425 . S
C949 C106 1.426 . S
C954 C36 1.426 . S
C959 C64 1.425 . S
C964 C50 1.425 . S
C969 C190 1.426 . S
C974 C120 1.426 . S
C979 C204 1.426 . S
C984 C134 1.426 . S
C989 C218 1.426 . S
C994 C148 1.426 . S
C999 C162 1.425 . S
C1004 C176 1.425 . S
C1009 C232 1.426 . S
C1014 C302 1.426 . S
C1019 C316 1.426 . S
C1024 C246 1.426 . S
C1029 C330 1.426 . S
C1034 C260 1.426 . S
C1039 C274 1.426 . S
C1044 C288 1.426 . S
C1049 C414 1.426 . S
C1054 C344 1.426 . S
C1059 C358 1.426 . S
C1064 C428 1.426 . S
C1069 C372 1.426 . S
C1074 C442 1.426 . S
C1079 C400 1.426 . S
C1084 C386 1.426 . S
