# Generated by pormake.
# Topology wfs, (7)-cn, num edge types: 1
# Building blocks:
#     Node 0, Type 0, BuildingBlock: HICVOG_clean_sbu_0, # of connection points: 7
#     Node 1, Type 0, BuildingBlock: HICVOG_clean_sbu_0, # of connection points: 7
#     Node 2, Type 0, BuildingBlock: HICVOG_clean_sbu_0, # of connection points: 7
#     Node 3, Type 0, BuildingBlock: HICVOG_clean_sbu_0, # of connection points: 7
#     Node 4, Type 0, BuildingBlock: HICVOG_clean_sbu_0, # of connection points: 7
#     Node 5, Type 0, BuildingBlock: HICVOG_clean_sbu_0, # of connection points: 7
#     Node 6, Type 0, BuildingBlock: HICVOG_clean_sbu_0, # of connection points: 7
#     Node 7, Type 0, BuildingBlock: HICVOG_clean_sbu_0, # of connection points: 7
#     Edge 8, Type (0, 0), BuildingBlock: XIVTED_clean_linker_0, # of connection points: 2
#     Edge 9, Type (0, 0), BuildingBlock: XIVTED_clean_linker_0, # of connection points: 2
#     Edge 10, Type (0, 0), BuildingBlock: XIVTED_clean_linker_0, # of connection points: 2
#     Edge 11, Type (0, 0), BuildingBlock: XIVTED_clean_linker_0, # of connection points: 2
#     Edge 12, Type (0, 0), BuildingBlock: XIVTED_clean_linker_0, # of connection points: 2
#     Edge 13, Type (0, 0), BuildingBlock: XIVTED_clean_linker_0, # of connection points: 2
#     Edge 14, Type (0, 0), BuildingBlock: XIVTED_clean_linker_0, # of connection points: 2
#     Edge 15, Type (0, 0), BuildingBlock: XIVTED_clean_linker_0, # of connection points: 2
#     Edge 16, Type (0, 0), BuildingBlock: XIVTED_clean_linker_0, # of connection points: 2
#     Edge 17, Type (0, 0), BuildingBlock: XIVTED_clean_linker_0, # of connection points: 2
#     Edge 18, Type (0, 0), BuildingBlock: XIVTED_clean_linker_0, # of connection points: 2
#     Edge 19, Type (0, 0), BuildingBlock: XIVTED_clean_linker_0, # of connection points: 2
#     Edge 20, Type (0, 0), BuildingBlock: XIVTED_clean_linker_0, # of connection points: 2
#     Edge 21, Type (0, 0), BuildingBlock: XIVTED_clean_linker_0, # of connection points: 2
#     Edge 22, Type (0, 0), BuildingBlock: XIVTED_clean_linker_0, # of connection points: 2
#     Edge 23, Type (0, 0), BuildingBlock: XIVTED_clean_linker_0, # of connection points: 2
#     Edge 24, Type (0, 0), BuildingBlock: XIVTED_clean_linker_0, # of connection points: 2
#     Edge 25, Type (0, 0), BuildingBlock: XIVTED_clean_linker_0, # of connection points: 2
#     Edge 26, Type (0, 0), BuildingBlock: XIVTED_clean_linker_0, # of connection points: 2
#     Edge 27, Type (0, 0), BuildingBlock: XIVTED_clean_linker_0, # of connection points: 2
#     Edge 28, Type (0, 0), BuildingBlock: XIVTED_clean_linker_0, # of connection points: 2
#     Edge 29, Type (0, 0), BuildingBlock: XIVTED_clean_linker_0, # of connection points: 2
#     Edge 30, Type (0, 0), BuildingBlock: XIVTED_clean_linker_0, # of connection points: 2
#     Edge 31, Type (0, 0), BuildingBlock: XIVTED_clean_linker_0, # of connection points: 2
#     Edge 32, Type (0, 0), BuildingBlock: XIVTED_clean_linker_0, # of connection points: 2
#     Edge 33, Type (0, 0), BuildingBlock: XIVTED_clean_linker_0, # of connection points: 2
#     Edge 34, Type (0, 0), BuildingBlock: XIVTED_clean_linker_0, # of connection points: 2
#     Edge 35, Type (0, 0), BuildingBlock: XIVTED_clean_linker_0, # of connection points: 2
# Relax obj value: 0.539
# Max RMSD: 0.319
# Mean RMSD: 0.319
data_MOF--net-wfs--node1-HICVOG_clean_sbu_0--edge1-XIVTED_clean_linker_0
_symmetry_space_group_name_H-M    P1
_symmetry_Int_Tables_number       1
_symmetry_cell_setting            triclinic
loop_
_symmetry_equiv_pos_as_xyz
'x, y, z'
_cell_length_a     31.383009
_cell_length_b     29.69798
_cell_length_c     32.979335
_cell_angle_alpha  90.118031
_cell_angle_beta   89.980428
_cell_angle_gamma 90.08515
loop_
_atom_site_label
_atom_site_type_symbol
_atom_site_fract_x
_atom_site_fract_y
_atom_site_fract_z
_atom_type_partial_charge
Zn0 Zn 0.17749 0.1581 0.18756 0.0
C1 C 0.18332 0.28621 0.22687 0.0
N2 N 0.22483 0.27582 0.23098 0.0
C3 C 0.22568 0.2327 0.21901 0.0
N4 N 0.18711 0.2173 0.20847 0.0
N5 N 0.15977 0.25072 0.21359 0.0
C6 C 0.08271 0.28143 0.12852 0.0
O7 O 0.12384 0.28902 0.12575 0.0
O8 O 0.22382 0.11378 0.20323 0.0
Zn9 Zn 0.09756 0.24422 0.21348 0.0
N10 N 0.177 0.16115 0.12965 0.0
C11 C 0.14958 0.1881 0.06729 0.0
C12 C 0.14712 0.185 0.10939 0.0
C13 C 0.2083 0.13877 0.10982 0.0
N14 N 0.18092 0.16559 0.04733 0.0
C15 C 0.2106 0.14055 0.06735 0.0
O16 O 0.0753 0.17994 0.22529 0.0
C17 C 0.08805 0.13931 0.22168 0.0
O18 O 0.12462 0.13013 0.20766 0.0
H19 H 0.12165 0.20089 0.12595 0.0
H20 H 0.23002 0.11891 0.12752 0.0
C21 C 0.04001 0.302 0.25561 0.0
C22 C 0.02448 0.32603 0.28932 0.0
C23 C 0.08656 0.30581 0.32615 0.0
C24 C 0.10074 0.28047 0.29326 0.0
N25 N 0.0777 0.27997 0.25839 0.0
N26 N 0.0486 0.32741 0.32364 0.0
H27 H 0.02155 0.29829 0.22814 0.0
C28 C 0.23134 0.0995 0.23881 0.0
O29 O 0.21003 0.11655 0.26949 0.0
O30 O 0.06765 0.26472 0.16109 0.0
H31 H 0.13003 0.26149 0.29538 0.0
H32 H 0.12624 0.20727 0.05052 0.0
H33 H 0.10492 0.30721 0.35388 0.0
Zn34 Zn 0.10407 0.76913 0.79604 0.0
C35 C 0.22896 0.78301 0.77102 0.0
N36 N 0.22626 0.74011 0.75849 0.0
C37 C 0.1861 0.72914 0.76908 0.0
N38 N 0.16524 0.76384 0.78688 0.0
N39 N 0.19277 0.79745 0.78822 0.0
C40 C 0.23426 0.91481 0.76 0.0
O41 O 0.21116 0.89785 0.73046 0.0
O42 O 0.08316 0.74402 0.8505 0.0
Zn43 Zn 0.18714 0.85322 0.81595 0.0
N44 N 0.07895 0.73592 0.75182 0.0
C45 C 0.08245 0.71283 0.68288 0.0
C46 C 0.09836 0.73808 0.71503 0.0
C47 C 0.04293 0.7114 0.75734 0.0
N48 N 0.04631 0.68853 0.68819 0.0
C49 C 0.02543 0.68729 0.72442 0.0
O50 O 0.13054 0.88253 0.80917 0.0
C51 C 0.09242 0.87369 0.79895 0.0
O52 O 0.08015 0.83339 0.79208 0.0
H53 H 0.1264 0.75874 0.71088 0.0
H54 H 0.02768 0.71273 0.78664 0.0
C55 C 0.22076 0.87839 0.88998 0.0
C56 C 0.24042 0.87267 0.92777 0.0
C57 C 0.21748 0.79641 0.92807 0.0
C58 C 0.19954 0.80201 0.88967 0.0
N59 N 0.20147 0.84306 0.87165 0.0
N60 N 0.23761 0.83172 0.94616 0.0
H61 H 0.22091 0.91042 0.87454 0.0
C62 C 0.08367 0.76963 0.88157 0.0
O63 O 0.1011 0.8097 0.87842 0.0
O64 O 0.22951 0.89985 0.79581 0.0
H65 H 0.18525 0.77376 0.87399 0.0
H66 H 0.09807 0.71336 0.65364 0.0
H67 H 0.21614 0.76408 0.94305 0.0
Zn68 Zn 0.80534 0.85448 0.19874 0.0
C69 C 0.80114 0.725 0.23223 0.0
N70 N 0.75987 0.73483 0.23907 0.0
C71 C 0.75835 0.77872 0.22986 0.0
N72 N 0.79622 0.79494 0.21819 0.0
N73 N 0.82381 0.76143 0.21985 0.0
C74 C 0.90284 0.73763 0.13139 0.0
O75 O 0.86224 0.72831 0.12661 0.0
O76 O 0.7574 0.89795 0.21224 0.0
Zn77 Zn 0.8858 0.769 0.21892 0.0
N78 N 0.80967 0.85184 0.14116 0.0
C79 C 0.84695 0.83666 0.08008 0.0
C80 C 0.84505 0.83613 0.12232 0.0
C81 C 0.77645 0.86874 0.11996 0.0
N82 N 0.81449 0.85561 0.05886 0.0
C83 C 0.77928 0.87255 0.07773 0.0
O84 O 0.90754 0.83297 0.23296 0.0
C85 C 0.89422 0.87359 0.23256 0.0
O86 O 0.85701 0.88329 0.2206 0.0
H87 H 0.87156 0.8241 0.14006 0.0
H88 H 0.74894 0.8805 0.13641 0.0
C89 C 0.94318 0.70827 0.25771 0.0
C90 C 0.95846 0.68203 0.29005 0.0
C91 C 0.89741 0.702 0.3286 0.0
C92 C 0.88346 0.7294 0.29709 0.0
N93 N 0.90616 0.73119 0.26203 0.0
N94 N 0.93476 0.67952 0.32459 0.0
H95 H 0.96134 0.7128 0.23016 0.0
C96 C 0.74899 0.91326 0.24737 0.0
O97 O 0.77034 0.89798 0.2787 0.0
O98 O 0.91594 0.75254 0.16546 0.0
H99 H 0.85455 0.74882 0.30039 0.0
H100 H 0.87468 0.82386 0.06437 0.0
H101 H 0.87933 0.69959 0.35644 0.0
Zn102 Zn 0.88149 0.24254 0.79634 0.0
C103 C 0.75599 0.23065 0.7726 0.0
N104 N 0.75926 0.27374 0.76095 0.0
C105 C 0.7994 0.28413 0.77207 0.0
N106 N 0.81983 0.2489 0.7894 0.0
N107 N 0.79197 0.21545 0.78972 0.0
C108 C 0.75026 0.09807 0.75738 0.0
O109 O 0.77315 0.11595 0.72817 0.0
O110 O 0.90824 0.26625 0.84936 0.0
Zn111 Zn 0.79678 0.15833 0.81564 0.0
N112 N 0.90527 0.27468 0.75097 0.0
C113 C 0.90012 0.29673 0.6819 0.0
C114 C 0.88478 0.27224 0.71473 0.0
C115 C 0.94155 0.29905 0.75536 0.0
N116 N 0.93659 0.32082 0.68609 0.0
C117 C 0.95825 0.32256 0.72187 0.0
O118 O 0.85344 0.12902 0.80942 0.0
C119 C 0.89153 0.13763 0.79897 0.0
O120 O 0.9039 0.1778 0.79186 0.0
H121 H 0.85638 0.25189 0.71153 0.0
H122 H 0.95778 0.29806 0.78421 0.0
C123 C 0.76507 0.12902 0.8896 0.0
C124 C 0.74299 0.13323 0.92642 0.0
C125 C 0.75646 0.21195 0.92565 0.0
C126 C 0.7765 0.20766 0.88812 0.0
N127 N 0.78072 0.16619 0.87119 0.0
N128 N 0.73997 0.17478 0.94378 0.0
H129 H 0.76908 0.09691 0.87466 0.0
C130 C 0.89203 0.27865 0.88297 0.0
O131 O 0.85051 0.28098 0.88651 0.0
O132 O 0.75505 0.11212 0.79353 0.0
H133 H 0.78609 0.23717 0.87147 0.0
H134 H 0.88375 0.29583 0.65306 0.0
H135 H 0.75273 0.24471 0.9396 0.0
Zn136 Zn 0.60117 0.7416 0.70998 0.0
C137 C 0.72831 0.73085 0.72499 0.0
N138 N 0.72672 0.77488 0.73378 0.0
C139 C 0.68565 0.78472 0.72605 0.0
N140 N 0.66313 0.7482 0.71359 0.0
N141 N 0.69065 0.71455 0.7128 0.0
C142 C 0.73601 0.59603 0.74667 0.0
O143 O 0.71288 0.61077 0.77713 0.0
O144 O 0.57404 0.76049 0.65564 0.0
Zn145 Zn 0.68235 0.65443 0.69433 0.0
N146 N 0.57923 0.77922 0.75261 0.0
C147 C 0.58491 0.80776 0.81976 0.0
C148 C 0.59985 0.78003 0.78881 0.0
C149 C 0.54315 0.80328 0.74658 0.0
N150 N 0.54858 0.83157 0.81396 0.0
C151 C 0.52675 0.82997 0.77826 0.0
O152 O 0.62895 0.62679 0.71361 0.0
C153 C 0.59113 0.63709 0.72332 0.0
O154 O 0.57822 0.67785 0.72261 0.0
H155 H 0.62806 0.75977 0.79333 0.0
H156 H 0.52667 0.79937 0.71805 0.0
C157 C 0.71592 0.63559 0.61776 0.0
C158 C 0.71605 0.63152 0.57551 0.0
C159 C 0.65021 0.67093 0.57313 0.0
C160 C 0.64911 0.67218 0.61538 0.0
N161 N 0.68226 0.65499 0.63661 0.0
N162 N 0.68321 0.65002 0.55423 0.0
H163 H 0.74156 0.62212 0.63584 0.0
C164 C 0.59093 0.77258 0.62222 0.0
O165 O 0.63258 0.77612 0.61975 0.0
O166 O 0.72931 0.6115 0.71135 0.0
H167 H 0.62205 0.68603 0.63126 0.0
H168 H 0.60142 0.80953 0.8485 0.0
H169 H 0.62428 0.68477 0.55554 0.0
Zn170 Zn 0.59608 0.26819 0.28525 0.0
C171 C 0.72437 0.27743 0.27768 0.0
N172 N 0.72248 0.23367 0.26786 0.0
C173 C 0.68069 0.22463 0.27229 0.0
N174 N 0.65806 0.26131 0.28398 0.0
N175 N 0.68613 0.29438 0.28735 0.0
C176 C 0.73415 0.41224 0.25257 0.0
O177 O 0.71266 0.39721 0.22115 0.0
O178 O 0.567 0.24896 0.33852 0.0
Zn179 Zn 0.67768 0.3551 0.30481 0.0
N180 N 0.57539 0.23166 0.24116 0.0
C181 C 0.58325 0.20509 0.1735 0.0
C182 C 0.59767 0.23123 0.20582 0.0
C183 C 0.53841 0.20844 0.24508 0.0
N184 N 0.54594 0.18232 0.17713 0.0
C185 C 0.52274 0.18334 0.21204 0.0
O186 O 0.62471 0.383 0.28456 0.0
C187 C 0.58709 0.37295 0.27381 0.0
O188 O 0.57403 0.33222 0.27346 0.0
H189 H 0.6266 0.25079 0.20294 0.0
H190 H 0.52057 0.21182 0.27296 0.0
C191 C 0.70894 0.37905 0.38109 0.0
C192 C 0.70945 0.38332 0.42329 0.0
C193 C 0.64639 0.33904 0.42669 0.0
C194 C 0.64511 0.33693 0.38444 0.0
N195 N 0.67681 0.35638 0.3627 0.0
N196 N 0.67817 0.36259 0.4451 0.0
H197 H 0.73358 0.39398 0.36269 0.0
C198 C 0.58293 0.23621 0.37213 0.0
O199 O 0.62444 0.23174 0.37526 0.0
O200 O 0.72534 0.39735 0.28768 0.0
H201 H 0.61907 0.32055 0.36896 0.0
H202 H 0.60097 0.20384 0.14538 0.0
H203 H 0.62167 0.32331 0.44465 0.0
Zn204 Zn 0.30269 0.35746 0.69245 0.0
C205 C 0.29784 0.22722 0.72391 0.0
N206 N 0.25674 0.23747 0.7311 0.0
C207 C 0.2555 0.28135 0.72186 0.0
N208 N 0.29344 0.29721 0.70997 0.0
N209 N 0.32075 0.26337 0.7113 0.0
C210 C 0.39331 0.23871 0.61937 0.0
O211 O 0.35184 0.23334 0.61678 0.0
O212 O 0.25637 0.40091 0.71034 0.0
Zn213 Zn 0.38279 0.26945 0.70761 0.0
N214 N 0.30327 0.35816 0.63468 0.0
C215 C 0.33507 0.34282 0.57087 0.0
C216 C 0.33567 0.33988 0.61306 0.0
C217 C 0.27085 0.38011 0.61629 0.0
N218 N 0.30349 0.36652 0.55251 0.0
C219 C 0.27147 0.38608 0.57423 0.0
O220 O 0.40646 0.33253 0.72172 0.0
C221 C 0.39384 0.37338 0.72268 0.0
O222 O 0.35625 0.38405 0.71254 0.0
H223 H 0.36184 0.32401 0.62863 0.0
H224 H 0.24568 0.39402 0.63471 0.0
C225 C 0.44107 0.2067 0.74122 0.0
C226 C 0.45806 0.17875 0.77155 0.0
C227 C 0.40026 0.1985 0.81462 0.0
C228 C 0.38483 0.22765 0.7851 0.0
N229 N 0.40494 0.23022 0.7487 0.0
N230 N 0.43667 0.17527 0.80739 0.0
H231 H 0.45719 0.21208 0.71271 0.0
C232 C 0.24933 0.41533 0.74604 0.0
O233 O 0.2716 0.39904 0.77636 0.0
O234 O 0.40958 0.25192 0.65275 0.0
H235 H 0.35665 0.2476 0.79084 0.0
H236 H 0.36036 0.32806 0.55297 0.0
H237 H 0.38412 0.19526 0.84346 0.0
Zn238 Zn 0.38459 0.74434 0.28812 0.0
C239 C 0.25703 0.73225 0.27341 0.0
N240 N 0.25857 0.77521 0.26115 0.0
C241 C 0.29974 0.78593 0.26748 0.0
N242 N 0.32242 0.75096 0.28282 0.0
N243 N 0.29495 0.7174 0.28641 0.0
C244 C 0.2497 0.60001 0.26128 0.0
O245 O 0.26798 0.61882 0.22971 0.0
O246 O 0.41209 0.75862 0.34385 0.0
Zn247 Zn 0.30383 0.66068 0.31196 0.0
N248 N 0.40832 0.78257 0.24683 0.0
C249 C 0.40451 0.81162 0.17985 0.0
C250 C 0.38866 0.78371 0.21016 0.0
C251 C 0.44455 0.80624 0.25385 0.0
N252 N 0.44095 0.83502 0.18662 0.0
C253 C 0.46204 0.83289 0.22268 0.0
O254 O 0.35833 0.63165 0.29672 0.0
C255 C 0.39454 0.6403 0.28149 0.0
O256 O 0.4066 0.68071 0.27491 0.0
H257 H 0.36054 0.7635 0.20473 0.0
H258 H 0.46029 0.80195 0.28269 0.0
C259 C 0.27588 0.63915 0.38958 0.0
C260 C 0.26236 0.64825 0.42923 0.0
C261 C 0.29809 0.7187 0.42651 0.0
C262 C 0.30973 0.71012 0.3864 0.0
N263 N 0.29854 0.67041 0.369 0.0
N264 N 0.27456 0.6877 0.44697 0.0
H265 H 0.26792 0.60791 0.37452 0.0
C266 C 0.40301 0.7839 0.37393 0.0
O267 O 0.36846 0.80865 0.37288 0.0
O268 O 0.2592 0.61381 0.29667 0.0
H269 H 0.32605 0.73524 0.36874 0.0
H270 H 0.38869 0.81372 0.15079 0.0
H271 H 0.30686 0.75012 0.44097 0.0
H272 H 0.25332 0.05759 0.30993 0.0
H273 H 0.3064 0.83187 0.19707 0.0
H274 H 0.27164 0.04939 0.1804 0.0
H275 H 0.31769 0.84694 0.32623 0.0
H276 H 0.30525 0.91367 0.19004 0.0
H277 H 0.28741 0.98407 0.31711 0.0
C278 C 0.2651 0.0407 0.28305 0.0
C279 C 0.25871 0.0593 0.24444 0.0
C280 C 0.30972 0.89933 0.2199 0.0
C281 C 0.29746 0.9748 0.25239 0.0
C282 C 0.31095 0.85257 0.22382 0.0
C283 C 0.3143 0.83269 0.26218 0.0
C284 C 0.30968 0.92647 0.25486 0.0
C285 C 0.31756 0.86096 0.29607 0.0
C286 C 0.28466 0.99868 0.28717 0.0
C287 C 0.27517 0.03605 0.21075 0.0
N288 N 0.31437 0.90641 0.29175 0.0
N289 N 0.29303 0.99471 0.21544 0.0
H290 H 0.97529 0.66201 0.6606 0.0
H291 H 0.77297 0.70841 0.79204 0.0
H292 H 0.97571 0.6639 0.79174 0.0
H293 H 0.77224 0.69565 0.66202 0.0
H294 H 0.84341 0.67306 0.79389 0.0
H295 H 0.89878 0.65142 0.6618 0.0
C296 C 0.95964 0.65963 0.68979 0.0
C297 C 0.98204 0.66722 0.72608 0.0
C298 C 0.82754 0.67696 0.76497 0.0
C299 C 0.89389 0.65569 0.72746 0.0
C300 C 0.78761 0.69733 0.76399 0.0
C301 C 0.76746 0.70467 0.72683 0.0
C302 C 0.84771 0.66533 0.72835 0.0
C303 C 0.78707 0.68999 0.69117 0.0
C304 C 0.91567 0.65362 0.69037 0.0
C305 C 0.95979 0.66176 0.76277 0.0
N306 N 0.82654 0.67154 0.69272 0.0
N307 N 0.91672 0.6577 0.7625 0.0
H308 H 0.67904 0.17876 0.20173 0.0
H309 H 0.72369 0.95587 0.31736 0.0
H310 H 0.65204 0.16514 0.32902 0.0
H311 H 0.70909 0.96094 0.18732 0.0
H312 H 0.68799 0.02884 0.32262 0.0
H313 H 0.67889 0.09703 0.19487 0.0
C314 C 0.67105 0.15842 0.2279 0.0
C315 C 0.66446 0.17866 0.26579 0.0
C316 C 0.69182 0.01357 0.293 0.0
C317 C 0.66741 0.08483 0.25894 0.0
C318 C 0.71236 0.97192 0.28995 0.0
C319 C 0.72037 0.95271 0.25177 0.0
C320 C 0.67975 0.03648 0.25757 0.0
C321 C 0.70437 0.97481 0.21738 0.0
C322 C 0.67149 0.11166 0.22413 0.0
C323 C 0.65611 0.15081 0.29911 0.0
N324 N 0.68564 0.01587 0.22103 0.0
N325 N 0.65887 0.10522 0.29516 0.0
H326 H 0.00584 0.35313 0.78788 0.0
H327 H 0.2156 0.31993 0.65821 0.0
H328 H 0.01009 0.33975 0.65737 0.0
H329 H 0.20654 0.30026 0.78719 0.0
H330 H 0.14506 0.35529 0.6587 0.0
H331 H 0.08288 0.36301 0.78837 0.0
C332 C 0.02268 0.3525 0.75926 0.0
C333 C 0.00161 0.34251 0.7227 0.0
C334 C 0.15889 0.34426 0.68707 0.0
C335 C 0.0896 0.35511 0.7232 0.0
C336 C 0.19904 0.32435 0.68673 0.0
C337 C 0.21635 0.30766 0.72269 0.0
C338 C 0.13584 0.34636 0.72357 0.0
C339 C 0.1937 0.31273 0.75888 0.0
C340 C 0.06671 0.35868 0.75961 0.0
C341 C 0.02501 0.34558 0.68649 0.0
N342 N 0.15424 0.33127 0.75838 0.0
N343 N 0.06794 0.35044 0.68773 0.0
H344 H 0.28025 0.96228 0.81615 0.0
H345 H 0.32602 0.16787 0.66641 0.0
H346 H 0.25044 0.95919 0.68839 0.0
H347 H 0.2988 0.18069 0.79384 0.0
H348 H 0.32534 0.08538 0.67376 0.0
H349 H 0.314 0.03569 0.80696 0.0
C350 C 0.28137 0.97663 0.786 0.0
C351 C 0.26143 0.95501 0.75316 0.0
C352 C 0.32113 0.1064 0.70033 0.0
C353 C 0.30046 0.03899 0.7425 0.0
C354 C 0.32215 0.15337 0.69625 0.0
C355 C 0.31326 0.18093 0.72974 0.0
C356 C 0.31153 0.0873 0.73824 0.0
C357 C 0.30654 0.1605 0.76747 0.0
C358 C 0.30072 0.01854 0.78082 0.0
C359 C 0.26467 0.97503 0.71471 0.0
N360 N 0.30561 0.11498 0.77068 0.0
N361 N 0.28324 0.01624 0.7105 0.0
H362 H 0.2238 0.69427 0.34102 0.0
H363 H 0.0098 0.66851 0.35527 0.0
H364 H 0.19933 0.71557 0.21419 0.0
H365 H 0.00803 0.65435 0.22494 0.0
H366 H 0.08631 0.66244 0.35438 0.0
H367 H 0.15522 0.65688 0.34776 0.0
C368 C 0.20405 0.69021 0.31448 0.0
C369 C 0.21714 0.70715 0.27699 0.0
C370 C 0.06964 0.65934 0.32587 0.0
C371 C 0.13684 0.6682 0.28474 0.0
C372 C 0.02544 0.66287 0.32642 0.0
C373 C 0.00252 0.66436 0.28996 0.0
C374 C 0.09105 0.65727 0.28845 0.0
C375 C 0.02457 0.65599 0.25368 0.0
C376 C 0.16437 0.66966 0.31837 0.0
C377 C 0.19003 0.70282 0.24363 0.0
N378 N 0.06775 0.65402 0.25376 0.0
N379 N 0.1509 0.68409 0.24838 0.0
H380 H 0.7359 0.05382 0.6852 0.0
H381 H 0.68013 0.83129 0.79593 0.0
H382 H 0.7034 0.05004 0.81235 0.0
H383 H 0.6622 0.8441 0.66713 0.0
H384 H 0.67978 0.91297 0.8024 0.0
H385 H 0.70194 0.9801 0.67641 0.0
C386 C 0.72104 0.0379 0.71113 0.0
C387 C 0.72346 0.05772 0.74977 0.0
C388 C 0.67442 0.8982 0.77279 0.0
C389 C 0.68478 0.97327 0.73994 0.0
C390 C 0.67407 0.85147 0.76921 0.0
C391 C 0.66988 0.83101 0.73112 0.0
C392 C 0.6729 0.92484 0.73769 0.0
C393 C 0.66427 0.85867 0.69715 0.0
C394 C 0.70149 0.99586 0.70604 0.0
C395 C 0.70313 0.03572 0.78213 0.0
N396 N 0.66701 0.9043 0.70105 0.0
N397 N 0.68543 0.99438 0.77664 0.0
H398 H 0.75836 0.31565 0.34458 0.0
H399 H 0.97379 0.33532 0.35571 0.0
H400 H 0.78141 0.29294 0.21766 0.0
H401 H 0.97333 0.35538 0.22604 0.0
H402 H 0.89714 0.34116 0.35622 0.0
H403 H 0.828 0.35178 0.35063 0.0
C404 C 0.77802 0.31936 0.31788 0.0
C405 C 0.76441 0.30225 0.28059 0.0
C406 C 0.91344 0.34571 0.32765 0.0
C407 C 0.84542 0.3396 0.28748 0.0
C408 C 0.95766 0.34222 0.32737 0.0
C409 C 0.98003 0.34264 0.29054 0.0
C410 C 0.89141 0.34973 0.29073 0.0
C411 C 0.9573 0.35239 0.25495 0.0
C412 C 0.81818 0.33902 0.32137 0.0
C413 C 0.79121 0.30583 0.24695 0.0
N414 N 0.91411 0.35437 0.25581 0.0
N415 N 0.83072 0.3238 0.25127 0.0
H416 H 0.78152 0.55159 0.68812 0.0
H417 H 0.82714 0.34101 0.83158 0.0
H418 H 0.75533 0.5501 0.81663 0.0
H419 H 0.80377 0.33291 0.70319 0.0
H420 H 0.82777 0.4236 0.82666 0.0
H421 H 0.81607 0.4783 0.69447 0.0
C422 C 0.78368 0.53631 0.71784 0.0
C423 C 0.76444 0.55655 0.75175 0.0
C424 C 0.82403 0.40365 0.79936 0.0
C425 C 0.80426 0.47265 0.75913 0.0
C426 C 0.82431 0.35658 0.80209 0.0
C427 C 0.81573 0.33035 0.76769 0.0
C428 C 0.81545 0.42422 0.76188 0.0
C429 C 0.81077 0.35212 0.73034 0.0
C430 C 0.80345 0.49443 0.7214 0.0
C431 C 0.76897 0.53536 0.78955 0.0
N432 N 0.81029 0.39777 0.72846 0.0
N433 N 0.78786 0.49421 0.79214 0.0
H434 H 0.26371 0.19712 0.15248 0.0
H435 H 0.47519 0.15168 0.27689 0.0
H436 H 0.27619 0.21009 0.28196 0.0
H437 H 0.46992 0.17187 0.14731 0.0
H438 H 0.39779 0.14426 0.27793 0.0
H439 H 0.33385 0.16074 0.14979 0.0
C440 C 0.28094 0.19113 0.18036 0.0
C441 C 0.26474 0.20623 0.21744 0.0
C442 C 0.41374 0.14947 0.24919 0.0
C443 C 0.3446 0.16606 0.21478 0.0
C444 C 0.45792 0.15407 0.24857 0.0
C445 C 0.47886 0.16499 0.21224 0.0
C446 C 0.39056 0.15583 0.21328 0.0
C447 C 0.45502 0.16489 0.17623 0.0
C448 C 0.32084 0.1706 0.1789 0.0
C449 C 0.28817 0.19897 0.25282 0.0
N450 N 0.41194 0.16165 0.17777 0.0
N451 N 0.32724 0.1797 0.25062 0.0
H452 H 0.18124 0.68091 0.69986 0.0
H453 H 0.23093 0.46041 0.81687 0.0
H454 H 0.1605 0.67134 0.82857 0.0
H455 H 0.20482 0.46192 0.68838 0.0
H456 H 0.19703 0.53431 0.82309 0.0
H457 H 0.1801 0.59897 0.69497 0.0
C458 C 0.1748 0.66135 0.72689 0.0
C459 C 0.17051 0.68266 0.76457 0.0
C460 C 0.19792 0.51803 0.79369 0.0
C461 C 0.17182 0.58873 0.75978 0.0
C462 C 0.2174 0.47584 0.79008 0.0
C463 C 0.2217 0.45535 0.75188 0.0
C464 C 0.18315 0.54011 0.75876 0.0
C465 C 0.20306 0.47677 0.71835 0.0
C466 C 0.1745 0.61452 0.72421 0.0
C467 C 0.1633 0.65596 0.79889 0.0
N468 N 0.18542 0.51829 0.72244 0.0
N469 N 0.16533 0.61022 0.7959 0.0
H470 H 0.51435 0.85706 0.16025 0.0
H471 H 0.71242 0.80248 0.29589 0.0
H472 H 0.51058 0.85345 0.29125 0.0
H473 H 0.71566 0.81268 0.16576 0.0
H474 H 0.64284 0.83985 0.29627 0.0
H475 H 0.59126 0.86397 0.16321 0.0
C476 C 0.52941 0.85844 0.18977 0.0
C477 C 0.50589 0.85144 0.22547 0.0
C478 C 0.65908 0.83485 0.26764 0.0
C479 C 0.59432 0.85855 0.22888 0.0
C480 C 0.69847 0.8133 0.26749 0.0
C481 C 0.71915 0.80488 0.23074 0.0
C482 C 0.63999 0.84667 0.2306 0.0
C483 C 0.70044 0.81923 0.19461 0.0
C484 C 0.57357 0.86224 0.19137 0.0
C485 C 0.5274 0.85535 0.2627 0.0
N486 N 0.66153 0.83901 0.19537 0.0
N487 N 0.57059 0.85726 0.26341 0.0
H488 H 0.77765 0.45608 0.31289 0.0
H489 H 0.83005 0.66825 0.17322 0.0
H490 H 0.75578 0.45927 0.18369 0.0
H491 H 0.80133 0.67527 0.30065 0.0
H492 H 0.82928 0.5857 0.17734 0.0
H493 H 0.8123 0.52959 0.30842 0.0
C494 C 0.78077 0.47179 0.28342 0.0
C495 C 0.76273 0.4519 0.24872 0.0
C496 C 0.82477 0.60538 0.20468 0.0
C497 C 0.80274 0.53608 0.24351 0.0
C498 C 0.82596 0.65247 0.20246 0.0
C499 C 0.8167 0.67851 0.23681 0.0
C500 C 0.81437 0.5845 0.2416 0.0
C501 C 0.80942 0.65631 0.27364 0.0
C502 C 0.80059 0.5138 0.28095 0.0
C503 C 0.76851 0.47366 0.21133 0.0
N504 N 0.80811 0.61064 0.27504 0.0
N505 N 0.78748 0.51491 0.20978 0.0
H506 H 0.50608 0.15915 0.70245 0.0
H507 H 0.71237 0.19302 0.83484 0.0
H508 H 0.51067 0.1543 0.83338 0.0
H509 H 0.70817 0.21306 0.70577 0.0
H510 H 0.64356 0.15562 0.83207 0.0
H511 H 0.58351 0.15423 0.70071 0.0
C512 C 0.5231 0.15673 0.73087 0.0
C513 C 0.50186 0.16037 0.76831 0.0
C514 C 0.6579 0.16729 0.80411 0.0
C515 C 0.59033 0.1535 0.76625 0.0
C516 C 0.69742 0.18834 0.80577 0.0
C517 C 0.71609 0.20523 0.77048 0.0
C518 C 0.63616 0.16472 0.76699 0.0
C519 C 0.69452 0.20027 0.73363 0.0
C520 C 0.5674 0.15347 0.72975 0.0
C521 C 0.52561 0.1535 0.8038 0.0
N522 N 0.65531 0.18083 0.73285 0.0
N523 N 0.56868 0.1516 0.80195 0.0
H524 H 0.22315 0.5594 0.19066 0.0
H525 H 0.18557 0.32907 0.29897 0.0
H526 H 0.21524 0.547 0.32083 0.0
H527 H 0.15383 0.34896 0.17341 0.0
H528 H 0.18659 0.41044 0.30891 0.0
H529 H 0.18939 0.48541 0.18384 0.0
C530 C 0.21376 0.54147 0.21781 0.0
C531 C 0.22293 0.55909 0.25638 0.0
C532 C 0.17793 0.39724 0.27941 0.0
C533 C 0.18451 0.47417 0.24877 0.0
C534 C 0.17684 0.35069 0.27388 0.0
C535 C 0.16837 0.33225 0.23557 0.0
C536 C 0.17251 0.42574 0.24588 0.0
C537 C 0.15912 0.36175 0.20366 0.0
C538 C 0.19433 0.49924 0.21388 0.0
C539 C 0.2095 0.53451 0.29045 0.0
N540 N 0.16239 0.40711 0.20927 0.0
N541 N 0.19174 0.49303 0.28585 0.0
H542 H 0.27547 0.80673 0.70521 0.0
H543 H 0.47506 0.85296 0.84152 0.0
H544 H 0.27281 0.81535 0.83549 0.0
H545 H 0.47862 0.85359 0.71049 0.0
H546 H 0.39833 0.86191 0.83889 0.0
H547 H 0.34605 0.84221 0.70534 0.0
C548 C 0.28965 0.81689 0.73375 0.0
C549 C 0.26871 0.80857 0.77039 0.0
C550 C 0.41593 0.86067 0.81065 0.0
C551 C 0.34906 0.84821 0.77108 0.0
C552 C 0.45998 0.85572 0.81209 0.0
C553 C 0.48327 0.84939 0.77617 0.0
C554 C 0.39505 0.85875 0.77307 0.0
C555 C 0.46184 0.85498 0.7391 0.0
C556 C 0.32965 0.83737 0.73389 0.0
C557 C 0.2879 0.82201 0.80669 0.0
N558 N 0.41871 0.85796 0.73848 0.0
N559 N 0.32731 0.84072 0.80618 0.0
H560 H 0.11106 0.05139 0.23101 0.0
H561 H 0.87227 0.96084 0.24825 0.0
H562 H 0.00135 0.13871 0.23709 0.0
H563 H 0.98202 0.87407 0.2381 0.0
H564 H 0.91945 0.02583 0.25309 0.0
H565 H 0.06495 0.98667 0.24198 0.0
C566 C 0.07721 0.0571 0.23488 0.0
C567 C 0.06004 0.10077 0.23257 0.0
C568 C 0.93331 0.9926 0.25024 0.0
C569 C 0.0068 0.02608 0.24518 0.0
C570 C 0.90638 0.95531 0.24752 0.0
C571 C 0.92315 0.91176 0.24227 0.0
C572 C 0.97753 0.98663 0.24753 0.0
C573 C 0.96762 0.90689 0.24201 0.0
C574 C 0.05088 0.01993 0.24123 0.0
C575 C 0.016 0.10578 0.23843 0.0
N576 N -0.00677 0.94392 0.2441 0.0
N577 N 0.99085 0.06883 0.24406 0.0
H578 H 0.97882 0.14009 0.78935 0.0
H579 H 0.00499 0.87094 0.79043 0.0
H580 H 0.87329 0.04748 0.80062 0.0
H581 H 0.11054 0.96384 0.79963 0.0
H582 H 0.95612 0.9352 0.78757 0.0
H583 H 0.02759 0.07576 0.78649 0.0
C584 C 0.96585 0.10633 0.79103 0.0
C585 C 0.92184 0.09936 0.79547 0.0
C586 C 0.99001 0.94145 0.79012 0.0
C587 C 0.9775 0.02547 0.79214 0.0
C588 C 0.01794 0.90474 0.79165 0.0
C589 C 0.06199 0.91184 0.7955 0.0
C590 C 0.00622 0.98561 0.79216 0.0
C591 C 0.07685 0.95656 0.79696 0.0
C592 C -0.00628 0.06958 0.7895 0.0
C593 C 0.90696 0.05468 0.79749 0.0
N594 N 0.0491 0.9916 0.79532 0.0
N595 N 0.93466 0.01957 0.79584 0.0
H596 H 0.50373 0.63956 0.73329 0.0
H597 H 0.48134 0.3706 0.73154 0.0
H598 H 0.6108 0.54838 0.73448 0.0
H599 H 0.37437 0.46178 0.73608 0.0
H600 H 0.52947 0.43516 0.73927 0.0
H601 H 0.45579 0.57487 0.74087 0.0
C602 C 0.51721 0.60611 0.73561 0.0
C603 C 0.56138 0.59953 0.73275 0.0
C604 C 0.49541 0.44093 0.73896 0.0
C605 C 0.50672 0.52522 0.74112 0.0
C606 C 0.46793 0.40401 0.73469 0.0
C607 C 0.42373 0.41066 0.73265 0.0
C608 C 0.47858 0.48482 0.74115 0.0
C609 C 0.40823 0.45489 0.73693 0.0
C610 C 0.48983 0.56912 0.73984 0.0
C611 C 0.57697 0.55524 0.73603 0.0
N612 N 0.43555 0.49017 0.74058 0.0
N613 N 0.54973 0.5199 0.73966 0.0
H614 H 0.49938 0.37135 0.26824 0.0
H615 H 0.48017 0.64092 0.26201 0.0
H616 H 0.60736 0.46116 0.26019 0.0
H617 H 0.37357 0.55102 0.2799 0.0
H618 H 0.52648 0.57524 0.25255 0.0
H619 H 0.45188 0.43655 0.26329 0.0
C620 C 0.51312 0.40461 0.26485 0.0
C621 C 0.55747 0.4107 0.2651 0.0
C622 C 0.49286 0.56998 0.25828 0.0
C623 C 0.50331 0.48558 0.25976 0.0
C624 C 0.46642 0.6075 0.2636 0.0
C625 C 0.42297 0.60163 0.27223 0.0
C626 C 0.47572 0.52627 0.26146 0.0
C627 C 0.40695 0.55736 0.27383 0.0
C628 C 0.48599 0.4419 0.26223 0.0
C629 C 0.57339 0.45476 0.26064 0.0
N630 N 0.43329 0.52155 0.26875 0.0
N631 N 0.54641 0.49041 0.25849 0.0
H632 H 0.28189 0.09113 0.0939 0.0
H633 H 0.25115 0.88535 0.00922 0.0
H634 H 0.20929 0.12259 0.98601 0.0
H635 H 0.27937 0.94744 0.8939 0.0
H636 H 0.26859 0.95626 0.04284 0.0
H637 H 0.31085 0.02564 0.05949 0.0
C638 C 0.27177 0.08478 0.06312 0.0
C639 C 0.23991 0.11072 0.04406 0.0
C640 C 0.27217 0.95388 0.01024 0.0
C641 C 0.27553 0.03714 0.0041 0.0
C642 C 0.26188 0.91347 0.99098 0.0
C643 C 0.26128 0.91113 0.94852 0.0
C644 C 0.28128 0.99208 0.98672 0.0
C645 C 0.27645 0.94846 0.92655 0.0
C646 C 0.28912 0.04755 0.04339 0.0
C647 C 0.23198 0.10254 0.00279 0.0
N648 N 0.28423 0.98799 0.9458 0.0
N649 N 0.24895 0.06582 0.98442 0.0
H650 H 0.01989 0.70683 0.89248 0.0
H651 H 0.9849 0.76922 0.1271 0.0
H652 H 0.0948 0.80544 0.95713 0.0
H653 H 0.88837 0.70373 0.05474 0.0
H654 H 0.03131 0.77194 0.06767 0.0
H655 H 0.97749 0.69447 0.9542 0.0
C656 C 0.02785 0.72537 0.91977 0.0
C657 C 0.06089 0.75736 0.91955 0.0
C658 C 7e-05 0.75675 0.0648 0.0
C659 C 0.0125 0.74339 0.99022 0.0
C660 C 0.97351 0.75501 0.09883 0.0
C661 C 0.93244 0.73634 0.09604 0.0
C662 C 0.98582 0.73934 0.02754 0.0
C663 C 0.91965 0.71858 0.05838 0.0
C664 C 0.00344 0.71853 0.95489 0.0
C665 C 0.0695 0.78065 0.95577 0.0
N666 N 0.94618 0.72054 0.02564 0.0
N667 N 0.04552 0.77324 0.9895 0.0
H668 H 0.7245 0.12445 0.0068 0.0
H669 H 0.7641 0.87126 0.99606 0.0
H670 H 0.71692 0.05141 0.89353 0.0
H671 H 0.72548 0.93996 0.1059 0.0
H672 H 0.73199 0.9318 0.95676 0.0
H673 H 0.70889 0.0551 0.04277 0.0
C674 C 0.71917 0.09401 0.98936 0.0
C675 C 0.72488 0.09339 0.94722 0.0
C676 C 0.72939 0.93273 0.98949 0.0
C677 C 0.70746 0.01359 0.98828 0.0
C678 C 0.74792 0.8982 0.01199 0.0
C679 C 0.74891 0.90074 0.05447 0.0
C680 C 0.71256 0.97038 0.00974 0.0
C681 C 0.72647 0.93608 0.07337 0.0
C682 C 0.71007 0.0543 0.00996 0.0
C683 C 0.71606 0.0531 0.92625 0.0
N684 N 0.71024 0.97001 0.05086 0.0
N685 N 0.70906 0.01448 0.9471 0.0
H686 H 0.10628 0.29863 0.0498 0.0
H687 H 0.86775 0.28955 0.96236 0.0
H688 H -0.00464 0.27617 0.12446 0.0
H689 H 0.97962 0.28247 0.88648 0.0
H690 H 0.91374 0.29438 0.02208 0.0
H691 H 0.06015 0.30225 0.99004 0.0
C692 C 0.0722 0.29485 0.05375 0.0
C693 C 0.05478 0.28692 0.09235 0.0
C694 C 0.92825 0.29199 0.99236 0.0
C695 C 0.00163 0.29111 0.02379 0.0
C696 C 0.90198 0.28944 0.95814 0.0
C697 C 0.91974 0.28543 0.91917 0.0
C698 C 0.97276 0.29087 0.98779 0.0
C699 C 0.96442 0.28533 0.91584 0.0
C700 C 0.04588 0.29675 0.01952 0.0
C701 C 0.01031 0.28214 0.09538 0.0
N702 N 0.98932 0.28792 0.94963 0.0
N703 N 0.98536 0.28428 0.06164 0.0
H704 H 0.73784 0.38001 0.50155 0.0
H705 H 0.74303 0.63569 0.49688 0.0
H706 H 0.74917 0.45885 0.39201 0.0
H707 H 0.75745 0.55683 0.606 0.0
H708 H 0.77121 0.57272 0.45785 0.0
H709 H 0.76992 0.442 0.53932 0.0
C710 C 0.74804 0.40977 0.48523 0.0
C711 C 0.73946 0.41447 0.44377 0.0
C712 C 0.7695 0.56969 0.49052 0.0
C713 C 0.77536 0.48595 0.48679 0.0
C714 C 0.7533 0.60573 0.51281 0.0
C715 C 0.74629 0.60118 0.55456 0.0
C716 C 0.77732 0.52849 0.5101 0.0
C717 C 0.76129 0.56202 0.57379 0.0
C718 C 0.76661 0.44516 0.50677 0.0
C719 C 0.75441 0.45338 0.42399 0.0
N720 N 0.77484 0.52667 0.55122 0.0
N721 N 0.77055 0.48804 0.44589 0.0
H722 H 0.36855 0.22796 0.53994 0.0
H723 H 0.60719 0.2258 0.45161 0.0
H724 H 0.48077 0.23896 0.61487 0.0
H725 H 0.49535 0.23699 0.37625 0.0
H726 H 0.56131 0.22336 0.51158 0.0
H727 H 0.41426 0.22413 0.47982 0.0
C728 C 0.40279 0.22922 0.54385 0.0
C729 C 0.42073 0.23385 0.58269 0.0
C730 C 0.54676 0.22616 0.48193 0.0
C731 C 0.47345 0.22952 0.51368 0.0
C732 C 0.57298 0.22735 0.44757 0.0
C733 C 0.55523 0.23165 0.40865 0.0
C734 C 0.50227 0.22898 0.47756 0.0
C735 C 0.51057 0.23377 0.40555 0.0
C736 C 0.42891 0.22721 0.50942 0.0
C737 C 0.46541 0.23556 0.58564 0.0
N738 N 0.48572 0.23244 0.43945 0.0
N739 N 0.49013 0.23339 0.55171 0.0
H740 H 0.24777 0.3888 0.49457 0.0
H741 H 0.20478 0.58483 0.40084 0.0
H742 H 0.231 0.45987 0.60804 0.0
H743 H 0.26213 0.63538 0.51097 0.0
H744 H 0.18191 0.51757 0.43732 0.0
H745 H 0.22015 0.45432 0.45906 0.0
C746 C 0.23686 0.41739 0.51216 0.0
C747 C 0.24277 0.41883 0.55428 0.0
C748 C 0.1991 0.54366 0.45349 0.0
C749 C 0.21093 0.49397 0.51397 0.0
C750 C 0.21252 0.58192 0.43272 0.0
C751 C 0.23803 0.6143 0.45238 0.0
C752 C 0.21107 0.53821 0.4941 0.0
C753 C 0.24403 0.61044 0.49427 0.0
C754 C 0.22059 0.45475 0.49187 0.0
C755 C 0.22753 0.45668 0.57558 0.0
N756 N 0.23148 0.57244 0.51361 0.0
N757 N 0.21354 0.49319 0.55504 0.0
H758 H 0.61636 0.77442 0.54252 0.0
H759 H 0.38284 0.81206 0.4509 0.0
H760 H 0.50388 0.78185 0.61747 0.0
H761 H 0.48625 0.75619 0.38091 0.0
H762 H 0.42852 0.81125 0.5112 0.0
H763 H 0.57109 0.77812 0.48208 0.0
C764 C 0.58219 0.77721 0.54634 0.0
C765 C 0.56398 0.7777 0.58529 0.0
C766 C 0.44122 0.79921 0.48264 0.0
C767 C 0.51188 0.78224 0.51595 0.0
C768 C 0.41521 0.79982 0.44812 0.0
C769 C 0.43066 0.78414 0.41067 0.0
C770 C 0.48333 0.78351 0.47972 0.0
C771 C 0.47287 0.76842 0.40911 0.0
C772 C 0.55634 0.77906 0.51176 0.0
C773 C 0.51939 0.78117 0.58815 0.0
N774 N 0.49775 0.76874 0.44301 0.0
N775 N 0.49494 0.78346 0.55404 0.0
loop_
_geom_bond_atom_site_label_1
_geom_bond_atom_site_label_2
_geom_bond_distance
_geom_bond_site_symmetry_2
_ccdc_geom_bond_type
Zn0 N4 2.020 . S
Zn0 O8 2.019 . S
Zn0 N10 2.119 . S
Zn0 O18 1.975 . S
C1 N2 1.334 . S
C1 N5 1.336 . S
N2 C1 1.334 . S
N2 C3 1.334 . S
C3 N2 1.334 . S
C3 N4 1.336 . S
N4 Zn0 2.020 . S
N4 C3 1.336 . S
N4 N5 1.354 . S
N5 C1 1.336 . S
N5 N4 1.354 . S
N5 Zn9 2.020 . S
C6 O7 1.244 . S
C6 O30 1.257 . S
O7 C6 1.244 . S
O8 Zn0 2.019 . S
O8 C28 1.257 . S
Zn9 N5 2.020 . S
Zn9 O16 1.975 . S
Zn9 N25 2.119 . S
Zn9 O30 2.019 . S
N10 Zn0 2.119 . S
N10 C12 1.334 . S
N10 C13 1.328 . S
C11 C12 1.391 . S
C11 N14 1.329 . S
C11 H32 0.930 . S
C12 N10 1.334 . S
C12 C11 1.391 . S
C12 H19 0.930 . S
C13 N10 1.328 . S
C13 C15 1.392 . S
C13 H20 0.930 . S
N14 C11 1.329 . S
N14 C15 1.331 . S
C15 C13 1.392 . S
C15 N14 1.331 . S
O16 Zn9 1.975 . S
O16 C17 1.252 . S
C17 O16 1.252 . S
C17 O18 1.252 . S
O18 Zn0 1.975 . S
O18 C17 1.252 . S
H19 C12 0.930 . S
H20 C13 0.930 . S
C21 C22 1.392 . S
C21 N25 1.328 . S
C21 H27 0.930 . S
C22 C21 1.392 . S
C22 N26 1.331 . S
C23 C24 1.391 . S
C23 N26 1.329 . S
C23 H33 0.930 . S
C24 C23 1.391 . S
C24 N25 1.334 . S
C24 H31 0.930 . S
N25 Zn9 2.119 . S
N25 C21 1.328 . S
N25 C24 1.334 . S
N26 C22 1.331 . S
N26 C23 1.329 . S
H27 C21 0.930 . S
C28 O8 1.257 . S
C28 O29 1.244 . S
O29 C28 1.244 . S
O30 C6 1.257 . S
O30 Zn9 2.019 . S
H31 C24 0.930 . S
H32 C11 0.930 . S
H33 C23 0.930 . S
Zn34 N38 2.020 . S
Zn34 O42 2.019 . S
Zn34 N44 2.119 . S
Zn34 O52 1.975 . S
C35 N36 1.334 . S
C35 N39 1.336 . S
N36 C35 1.334 . S
N36 C37 1.334 . S
C37 N36 1.334 . S
C37 N38 1.336 . S
N38 Zn34 2.020 . S
N38 C37 1.336 . S
N38 N39 1.354 . S
N39 C35 1.336 . S
N39 N38 1.354 . S
N39 Zn43 2.020 . S
C40 O41 1.244 . S
C40 O64 1.257 . S
O41 C40 1.244 . S
O42 Zn34 2.019 . S
O42 C62 1.257 . S
Zn43 N39 2.020 . S
Zn43 O50 1.975 . S
Zn43 N59 2.119 . S
Zn43 O64 2.019 . S
N44 Zn34 2.119 . S
N44 C46 1.334 . S
N44 C47 1.328 . S
C45 C46 1.391 . S
C45 N48 1.329 . S
C45 H66 0.930 . S
C46 N44 1.334 . S
C46 C45 1.391 . S
C46 H53 0.930 . S
C47 N44 1.328 . S
C47 C49 1.392 . S
C47 H54 0.930 . S
N48 C45 1.329 . S
N48 C49 1.331 . S
C49 C47 1.392 . S
C49 N48 1.331 . S
O50 Zn43 1.975 . S
O50 C51 1.252 . S
C51 O50 1.252 . S
C51 O52 1.252 . S
O52 Zn34 1.975 . S
O52 C51 1.252 . S
H53 C46 0.930 . S
H54 C47 0.930 . S
C55 C56 1.392 . S
C55 N59 1.328 . S
C55 H61 0.930 . S
C56 C55 1.392 . S
C56 N60 1.331 . S
C57 C58 1.391 . S
C57 N60 1.329 . S
C57 H67 0.930 . S
C58 C57 1.391 . S
C58 N59 1.334 . S
C58 H65 0.930 . S
N59 Zn43 2.119 . S
N59 C55 1.328 . S
N59 C58 1.334 . S
N60 C56 1.331 . S
N60 C57 1.329 . S
H61 C55 0.930 . S
C62 O42 1.257 . S
C62 O63 1.244 . S
O63 C62 1.244 . S
O64 C40 1.257 . S
O64 Zn43 2.019 . S
H65 C58 0.930 . S
H66 C45 0.930 . S
H67 C57 0.930 . S
Zn68 N72 2.020 . S
Zn68 O76 2.019 . S
Zn68 N78 2.119 . S
Zn68 O86 1.975 . S
C69 N70 1.334 . S
C69 N73 1.336 . S
N70 C69 1.334 . S
N70 C71 1.334 . S
C71 N70 1.334 . S
C71 N72 1.336 . S
N72 Zn68 2.020 . S
N72 C71 1.336 . S
N72 N73 1.354 . S
N73 C69 1.336 . S
N73 N72 1.354 . S
N73 Zn77 2.020 . S
C74 O75 1.244 . S
C74 O98 1.257 . S
O75 C74 1.244 . S
O76 Zn68 2.019 . S
O76 C96 1.257 . S
Zn77 N73 2.020 . S
Zn77 O84 1.975 . S
Zn77 N93 2.119 . S
Zn77 O98 2.019 . S
N78 Zn68 2.119 . S
N78 C80 1.334 . S
N78 C81 1.328 . S
C79 C80 1.391 . S
C79 N82 1.329 . S
C79 H100 0.930 . S
C80 N78 1.334 . S
C80 C79 1.391 . S
C80 H87 0.930 . S
C81 N78 1.328 . S
C81 C83 1.392 . S
C81 H88 0.930 . S
N82 C79 1.329 . S
N82 C83 1.331 . S
C83 C81 1.392 . S
C83 N82 1.331 . S
O84 Zn77 1.975 . S
O84 C85 1.252 . S
C85 O84 1.252 . S
C85 O86 1.252 . S
O86 Zn68 1.975 . S
O86 C85 1.252 . S
H87 C80 0.930 . S
H88 C81 0.930 . S
C89 C90 1.392 . S
C89 N93 1.328 . S
C89 H95 0.930 . S
C90 C89 1.392 . S
C90 N94 1.331 . S
C91 C92 1.391 . S
C91 N94 1.329 . S
C91 H101 0.930 . S
C92 C91 1.391 . S
C92 N93 1.334 . S
C92 H99 0.930 . S
N93 Zn77 2.119 . S
N93 C89 1.328 . S
N93 C92 1.334 . S
N94 C90 1.331 . S
N94 C91 1.329 . S
H95 C89 0.930 . S
C96 O76 1.257 . S
C96 O97 1.244 . S
O97 C96 1.244 . S
O98 C74 1.257 . S
O98 Zn77 2.019 . S
H99 C92 0.930 . S
H100 C79 0.930 . S
H101 C91 0.930 . S
Zn102 N106 2.020 . S
Zn102 O110 2.019 . S
Zn102 N112 2.119 . S
Zn102 O120 1.975 . S
C103 N104 1.334 . S
C103 N107 1.336 . S
N104 C103 1.334 . S
N104 C105 1.334 . S
C105 N104 1.334 . S
C105 N106 1.336 . S
N106 Zn102 2.020 . S
N106 C105 1.336 . S
N106 N107 1.354 . S
N107 C103 1.336 . S
N107 N106 1.354 . S
N107 Zn111 2.020 . S
C108 O109 1.244 . S
C108 O132 1.257 . S
O109 C108 1.244 . S
O110 Zn102 2.019 . S
O110 C130 1.257 . S
Zn111 N107 2.020 . S
Zn111 O118 1.975 . S
Zn111 N127 2.119 . S
Zn111 O132 2.019 . S
N112 Zn102 2.119 . S
N112 C114 1.334 . S
N112 C115 1.328 . S
C113 C114 1.391 . S
C113 N116 1.329 . S
C113 H134 0.930 . S
C114 N112 1.334 . S
C114 C113 1.391 . S
C114 H121 0.930 . S
C115 N112 1.328 . S
C115 C117 1.392 . S
C115 H122 0.930 . S
N116 C113 1.329 . S
N116 C117 1.331 . S
C117 C115 1.392 . S
C117 N116 1.331 . S
O118 Zn111 1.975 . S
O118 C119 1.252 . S
C119 O118 1.252 . S
C119 O120 1.252 . S
O120 Zn102 1.975 . S
O120 C119 1.252 . S
H121 C114 0.930 . S
H122 C115 0.930 . S
C123 C124 1.392 . S
C123 N127 1.328 . S
C123 H129 0.930 . S
C124 C123 1.392 . S
C124 N128 1.331 . S
C125 C126 1.391 . S
C125 N128 1.329 . S
C125 H135 0.930 . S
C126 C125 1.391 . S
C126 N127 1.334 . S
C126 H133 0.930 . S
N127 Zn111 2.119 . S
N127 C123 1.328 . S
N127 C126 1.334 . S
N128 C124 1.331 . S
N128 C125 1.329 . S
H129 C123 0.930 . S
C130 O110 1.257 . S
C130 O131 1.244 . S
O131 C130 1.244 . S
O132 C108 1.257 . S
O132 Zn111 2.019 . S
H133 C126 0.930 . S
H134 C113 0.930 . S
H135 C125 0.930 . S
Zn136 N140 2.020 . S
Zn136 O144 2.019 . S
Zn136 N146 2.119 . S
Zn136 O154 1.975 . S
C137 N138 1.334 . S
C137 N141 1.336 . S
N138 C137 1.334 . S
N138 C139 1.334 . S
C139 N138 1.334 . S
C139 N140 1.336 . S
N140 Zn136 2.020 . S
N140 C139 1.336 . S
N140 N141 1.354 . S
N141 C137 1.336 . S
N141 N140 1.354 . S
N141 Zn145 2.020 . S
C142 O143 1.244 . S
C142 O166 1.257 . S
O143 C142 1.244 . S
O144 Zn136 2.019 . S
O144 C164 1.257 . S
Zn145 N141 2.020 . S
Zn145 O152 1.975 . S
Zn145 N161 2.119 . S
Zn145 O166 2.019 . S
N146 Zn136 2.119 . S
N146 C148 1.334 . S
N146 C149 1.328 . S
C147 C148 1.391 . S
C147 N150 1.329 . S
C147 H168 0.930 . S
C148 N146 1.334 . S
C148 C147 1.391 . S
C148 H155 0.930 . S
C149 N146 1.328 . S
C149 C151 1.392 . S
C149 H156 0.930 . S
N150 C147 1.329 . S
N150 C151 1.331 . S
C151 C149 1.392 . S
C151 N150 1.331 . S
O152 Zn145 1.975 . S
O152 C153 1.252 . S
C153 O152 1.252 . S
C153 O154 1.252 . S
O154 Zn136 1.975 . S
O154 C153 1.252 . S
H155 C148 0.930 . S
H156 C149 0.930 . S
C157 C158 1.392 . S
C157 N161 1.328 . S
C157 H163 0.930 . S
C158 C157 1.392 . S
C158 N162 1.331 . S
C159 C160 1.391 . S
C159 N162 1.329 . S
C159 H169 0.930 . S
C160 C159 1.391 . S
C160 N161 1.334 . S
C160 H167 0.930 . S
N161 Zn145 2.119 . S
N161 C157 1.328 . S
N161 C160 1.334 . S
N162 C158 1.331 . S
N162 C159 1.329 . S
H163 C157 0.930 . S
C164 O144 1.257 . S
C164 O165 1.244 . S
O165 C164 1.244 . S
O166 C142 1.257 . S
O166 Zn145 2.019 . S
H167 C160 0.930 . S
H168 C147 0.930 . S
H169 C159 0.930 . S
Zn170 N174 2.020 . S
Zn170 O178 2.019 . S
Zn170 N180 2.119 . S
Zn170 O188 1.975 . S
C171 N172 1.334 . S
C171 N175 1.336 . S
N172 C171 1.334 . S
N172 C173 1.334 . S
C173 N172 1.334 . S
C173 N174 1.336 . S
N174 Zn170 2.020 . S
N174 C173 1.336 . S
N174 N175 1.354 . S
N175 C171 1.336 . S
N175 N174 1.354 . S
N175 Zn179 2.020 . S
C176 O177 1.244 . S
C176 O200 1.257 . S
O177 C176 1.244 . S
O178 Zn170 2.019 . S
O178 C198 1.257 . S
Zn179 N175 2.020 . S
Zn179 O186 1.975 . S
Zn179 N195 2.119 . S
Zn179 O200 2.019 . S
N180 Zn170 2.119 . S
N180 C182 1.334 . S
N180 C183 1.328 . S
C181 C182 1.391 . S
C181 N184 1.329 . S
C181 H202 0.930 . S
C182 N180 1.334 . S
C182 C181 1.391 . S
C182 H189 0.930 . S
C183 N180 1.328 . S
C183 C185 1.392 . S
C183 H190 0.930 . S
N184 C181 1.329 . S
N184 C185 1.331 . S
C185 C183 1.392 . S
C185 N184 1.331 . S
O186 Zn179 1.975 . S
O186 C187 1.252 . S
C187 O186 1.252 . S
C187 O188 1.252 . S
O188 Zn170 1.975 . S
O188 C187 1.252 . S
H189 C182 0.930 . S
H190 C183 0.930 . S
C191 C192 1.392 . S
C191 N195 1.328 . S
C191 H197 0.930 . S
C192 C191 1.392 . S
C192 N196 1.331 . S
C193 C194 1.391 . S
C193 N196 1.329 . S
C193 H203 0.930 . S
C194 C193 1.391 . S
C194 N195 1.334 . S
C194 H201 0.930 . S
N195 Zn179 2.119 . S
N195 C191 1.328 . S
N195 C194 1.334 . S
N196 C192 1.331 . S
N196 C193 1.329 . S
H197 C191 0.930 . S
C198 O178 1.257 . S
C198 O199 1.244 . S
O199 C198 1.244 . S
O200 C176 1.257 . S
O200 Zn179 2.019 . S
H201 C194 0.930 . S
H202 C181 0.930 . S
H203 C193 0.930 . S
Zn204 N208 2.020 . S
Zn204 O212 2.019 . S
Zn204 N214 2.119 . S
Zn204 O222 1.975 . S
C205 N206 1.334 . S
C205 N209 1.336 . S
N206 C205 1.334 . S
N206 C207 1.334 . S
C207 N206 1.334 . S
C207 N208 1.336 . S
N208 Zn204 2.020 . S
N208 C207 1.336 . S
N208 N209 1.354 . S
N209 C205 1.336 . S
N209 N208 1.354 . S
N209 Zn213 2.020 . S
C210 O211 1.244 . S
C210 O234 1.257 . S
O211 C210 1.244 . S
O212 Zn204 2.019 . S
O212 C232 1.257 . S
Zn213 N209 2.020 . S
Zn213 O220 1.975 . S
Zn213 N229 2.119 . S
Zn213 O234 2.019 . S
N214 Zn204 2.119 . S
N214 C216 1.334 . S
N214 C217 1.328 . S
C215 C216 1.391 . S
C215 N218 1.329 . S
C215 H236 0.930 . S
C216 N214 1.334 . S
C216 C215 1.391 . S
C216 H223 0.930 . S
C217 N214 1.328 . S
C217 C219 1.392 . S
C217 H224 0.930 . S
N218 C215 1.329 . S
N218 C219 1.331 . S
C219 C217 1.392 . S
C219 N218 1.331 . S
O220 Zn213 1.975 . S
O220 C221 1.252 . S
C221 O220 1.252 . S
C221 O222 1.252 . S
O222 Zn204 1.975 . S
O222 C221 1.252 . S
H223 C216 0.930 . S
H224 C217 0.930 . S
C225 C226 1.392 . S
C225 N229 1.328 . S
C225 H231 0.930 . S
C226 C225 1.392 . S
C226 N230 1.331 . S
C227 C228 1.391 . S
C227 N230 1.329 . S
C227 H237 0.930 . S
C228 C227 1.391 . S
C228 N229 1.334 . S
C228 H235 0.930 . S
N229 Zn213 2.119 . S
N229 C225 1.328 . S
N229 C228 1.334 . S
N230 C226 1.331 . S
N230 C227 1.329 . S
H231 C225 0.930 . S
C232 O212 1.257 . S
C232 O233 1.244 . S
O233 C232 1.244 . S
O234 C210 1.257 . S
O234 Zn213 2.019 . S
H235 C228 0.930 . S
H236 C215 0.930 . S
H237 C227 0.930 . S
Zn238 N242 2.020 . S
Zn238 O246 2.019 . S
Zn238 N248 2.119 . S
Zn238 O256 1.975 . S
C239 N240 1.334 . S
C239 N243 1.336 . S
N240 C239 1.334 . S
N240 C241 1.334 . S
C241 N240 1.334 . S
C241 N242 1.336 . S
N242 Zn238 2.020 . S
N242 C241 1.336 . S
N242 N243 1.354 . S
N243 C239 1.336 . S
N243 N242 1.354 . S
N243 Zn247 2.020 . S
C244 O245 1.244 . S
C244 O268 1.257 . S
O245 C244 1.244 . S
O246 Zn238 2.019 . S
O246 C266 1.257 . S
Zn247 N243 2.020 . S
Zn247 O254 1.975 . S
Zn247 N263 2.119 . S
Zn247 O268 2.019 . S
N248 Zn238 2.119 . S
N248 C250 1.334 . S
N248 C251 1.328 . S
C249 C250 1.391 . S
C249 N252 1.329 . S
C249 H270 0.930 . S
C250 N248 1.334 . S
C250 C249 1.391 . S
C250 H257 0.930 . S
C251 N248 1.328 . S
C251 C253 1.392 . S
C251 H258 0.930 . S
N252 C249 1.329 . S
N252 C253 1.331 . S
C253 C251 1.392 . S
C253 N252 1.331 . S
O254 Zn247 1.975 . S
O254 C255 1.252 . S
C255 O254 1.252 . S
C255 O256 1.252 . S
O256 Zn238 1.975 . S
O256 C255 1.252 . S
H257 C250 0.930 . S
H258 C251 0.930 . S
C259 C260 1.392 . S
C259 N263 1.328 . S
C259 H265 0.930 . S
C260 C259 1.392 . S
C260 N264 1.331 . S
C261 C262 1.391 . S
C261 N264 1.329 . S
C261 H271 0.930 . S
C262 C261 1.391 . S
C262 N263 1.334 . S
C262 H269 0.930 . S
N263 Zn247 2.119 . S
N263 C259 1.328 . S
N263 C262 1.334 . S
N264 C260 1.331 . S
N264 C261 1.329 . S
H265 C259 0.930 . S
C266 O246 1.257 . S
C266 O267 1.244 . S
O267 C266 1.244 . S
O268 C244 1.257 . S
O268 Zn247 2.019 . S
H269 C262 0.930 . S
H270 C249 0.930 . S
H271 C261 0.930 . S
H272 C278 0.930 . S
H273 C282 0.930 . S
H274 C287 0.929 1_545 S
H275 C285 0.929 . S
H276 C280 0.929 . S
H277 C286 0.929 . S
C278 H272 0.930 . S
C278 C279 1.367 . S
C278 C286 1.378 1_545 S
C279 C278 1.367 . S
C279 C287 1.433 1_545 S
C280 H276 0.929 . S
C280 C282 1.378 . S
C280 C284 1.350 . S
C281 C284 1.463 . S
C281 C286 1.350 . S
C281 N289 1.427 . S
C282 H273 0.930 . S
C282 C280 1.378 . S
C282 C283 1.367 . S
C283 C282 1.367 . S
C283 C285 1.433 . S
C284 C280 1.350 . S
C284 C281 1.463 . S
C284 N288 1.427 . S
C285 H275 0.929 . S
C285 C283 1.433 . S
C285 N288 1.384 . S
C286 H277 0.929 . S
C286 C278 1.378 1_565 S
C286 C281 1.350 . S
C287 H274 0.929 1_565 S
C287 C279 1.433 1_565 S
C287 N289 1.384 . S
N288 C284 1.427 . S
N288 C285 1.384 . S
N289 C281 1.427 . S
N289 C287 1.384 . S
H290 C296 0.930 1_455 S
H291 C300 0.930 . S
H292 C305 0.929 . S
H293 C303 0.929 . S
H294 C298 0.929 . S
H295 C304 0.929 . S
C296 H290 0.930 1_655 S
C296 C297 1.367 1_655 S
C296 C304 1.378 . S
C297 C296 1.367 1_455 S
C297 C305 1.433 1_455 S
C298 H294 0.929 . S
C298 C300 1.378 . S
C298 C302 1.350 . S
C299 C302 1.463 . S
C299 C304 1.350 . S
C299 N307 1.427 . S
C300 H291 0.930 . S
C300 C298 1.378 . S
C300 C301 1.367 . S
C301 C300 1.367 . S
C301 C303 1.433 . S
C302 C298 1.350 . S
C302 C299 1.463 . S
C302 N306 1.427 . S
C303 H293 0.929 . S
C303 C301 1.433 . S
C303 N306 1.384 . S
C304 H295 0.929 . S
C304 C296 1.378 . S
C304 C299 1.350 . S
C305 H292 0.929 . S
C305 C297 1.433 1_655 S
C305 N307 1.384 . S
N306 C302 1.427 . S
N306 C303 1.384 . S
N307 C299 1.427 . S
N307 C305 1.384 . S
H308 C314 0.930 . S
H309 C318 0.930 . S
H310 C323 0.929 . S
H311 C321 0.929 1_565 S
H312 C316 0.929 . S
H313 C322 0.929 . S
C314 H308 0.930 . S
C314 C315 1.367 . S
C314 C322 1.378 . S
C315 C314 1.367 . S
C315 C323 1.433 . S
C316 H312 0.929 . S
C316 C318 1.378 1_545 S
C316 C320 1.350 . S
C317 C320 1.463 . S
C317 C322 1.350 . S
C317 N325 1.427 . S
C318 H309 0.930 . S
C318 C316 1.378 1_565 S
C318 C319 1.367 . S
C319 C318 1.367 . S
C319 C321 1.433 1_565 S
C320 C316 1.350 . S
C320 C317 1.463 . S
C320 N324 1.427 . S
C321 H311 0.929 1_545 S
C321 C319 1.433 1_545 S
C321 N324 1.384 . S
C322 H313 0.929 . S
C322 C314 1.378 . S
C322 C317 1.350 . S
C323 H310 0.929 . S
C323 C315 1.433 . S
C323 N325 1.384 . S
N324 C320 1.427 . S
N324 C321 1.384 . S
N325 C317 1.427 . S
N325 C323 1.384 . S
H326 C332 0.930 . S
H327 C336 0.930 . S
H328 C341 0.929 1_655 S
H329 C339 0.929 . S
H330 C334 0.929 . S
H331 C340 0.929 . S
C332 H326 0.930 . S
C332 C333 1.367 1_455 S
C332 C340 1.378 . S
C333 C332 1.367 1_655 S
C333 C341 1.433 1_655 S
C334 H330 0.929 . S
C334 C336 1.378 . S
C334 C338 1.350 . S
C335 C338 1.463 . S
C335 C340 1.350 . S
C335 N343 1.427 . S
C336 H327 0.930 . S
C336 C334 1.378 . S
C336 C337 1.367 . S
C337 C336 1.367 . S
C337 C339 1.433 . S
C338 C334 1.350 . S
C338 C335 1.463 . S
C338 N342 1.427 . S
C339 H329 0.929 . S
C339 C337 1.433 . S
C339 N342 1.384 . S
C340 H331 0.929 . S
C340 C332 1.378 . S
C340 C335 1.350 . S
C341 H328 0.929 1_455 S
C341 C333 1.433 1_455 S
C341 N343 1.384 . S
N342 C338 1.427 . S
N342 C339 1.384 . S
N343 C335 1.427 . S
N343 C341 1.384 . S
H344 C350 0.930 1_565 S
H345 C354 0.930 . S
H346 C359 0.929 . S
H347 C357 0.929 . S
H348 C352 0.929 . S
H349 C358 0.929 . S
C350 H344 0.930 1_545 S
C350 C351 1.367 1_545 S
C350 C358 1.378 . S
C351 C350 1.367 1_565 S
C351 C359 1.433 . S
C352 H348 0.929 . S
C352 C354 1.378 . S
C352 C356 1.350 . S
C353 C356 1.463 . S
C353 C358 1.350 . S
C353 N361 1.427 . S
C354 H345 0.930 . S
C354 C352 1.378 . S
C354 C355 1.367 . S
C355 C354 1.367 . S
C355 C357 1.433 . S
C356 C352 1.350 . S
C356 C353 1.463 . S
C356 N360 1.427 . S
C357 H347 0.929 . S
C357 C355 1.433 . S
C357 N360 1.384 . S
C358 H349 0.929 . S
C358 C350 1.378 . S
C358 C353 1.350 . S
C359 H346 0.929 . S
C359 C351 1.433 . S
C359 N361 1.384 1_565 S
N360 C356 1.427 . S
N360 C357 1.384 . S
N361 C353 1.427 . S
N361 C359 1.384 1_545 S
H362 C368 0.930 . S
H363 C372 0.930 . S
H364 C377 0.929 . S
H365 C375 0.929 1_655 S
H366 C370 0.929 . S
H367 C376 0.929 . S
C368 H362 0.930 . S
C368 C369 1.367 . S
C368 C376 1.378 . S
C369 C368 1.367 . S
C369 C377 1.433 . S
C370 H366 0.929 . S
C370 C372 1.378 . S
C370 C374 1.350 . S
C371 C374 1.463 . S
C371 C376 1.350 . S
C371 N379 1.427 . S
C372 H363 0.930 . S
C372 C370 1.378 . S
C372 C373 1.367 1_455 S
C373 C372 1.367 1_655 S
C373 C375 1.433 1_655 S
C374 C370 1.350 . S
C374 C371 1.463 . S
C374 N378 1.427 . S
C375 H365 0.929 1_455 S
C375 C373 1.433 1_455 S
C375 N378 1.384 . S
C376 H367 0.929 . S
C376 C368 1.378 . S
C376 C371 1.350 . S
C377 H364 0.929 . S
C377 C369 1.433 . S
C377 N379 1.384 . S
N378 C374 1.427 . S
N378 C375 1.384 . S
N379 C371 1.427 . S
N379 C377 1.384 . S
H380 C386 0.930 . S
H381 C390 0.930 . S
H382 C395 0.929 . S
H383 C393 0.929 . S
H384 C388 0.929 . S
H385 C394 0.929 . S
C386 H380 0.930 . S
C386 C387 1.367 . S
C386 C394 1.378 1_545 S
C387 C386 1.367 . S
C387 C395 1.433 1_545 S
C388 H384 0.929 . S
C388 C390 1.378 . S
C388 C392 1.350 . S
C389 C392 1.463 . S
C389 C394 1.350 . S
C389 N397 1.427 . S
C390 H381 0.930 . S
C390 C388 1.378 . S
C390 C391 1.367 . S
C391 C390 1.367 . S
C391 C393 1.433 . S
C392 C388 1.350 . S
C392 C389 1.463 . S
C392 N396 1.427 . S
C393 H383 0.929 . S
C393 C391 1.433 . S
C393 N396 1.384 . S
C394 H385 0.929 . S
C394 C386 1.378 1_565 S
C394 C389 1.350 . S
C395 H382 0.929 . S
C395 C387 1.433 1_565 S
C395 N397 1.384 . S
N396 C392 1.427 . S
N396 C393 1.384 . S
N397 C389 1.427 . S
N397 C395 1.384 . S
H398 C404 0.930 . S
H399 C408 0.930 . S
H400 C413 0.929 . S
H401 C411 0.929 1_455 S
H402 C406 0.929 . S
H403 C412 0.929 . S
C404 H398 0.930 . S
C404 C405 1.367 . S
C404 C412 1.378 . S
C405 C404 1.367 . S
C405 C413 1.433 . S
C406 H402 0.929 . S
C406 C408 1.378 . S
C406 C410 1.350 . S
C407 C410 1.463 . S
C407 C412 1.350 . S
C407 N415 1.427 . S
C408 H399 0.930 . S
C408 C406 1.378 . S
C408 C409 1.367 1_655 S
C409 C408 1.367 1_455 S
C409 C411 1.433 1_455 S
C410 C406 1.350 . S
C410 C407 1.463 . S
C410 N414 1.427 . S
C411 H401 0.929 1_655 S
C411 C409 1.433 1_655 S
C411 N414 1.384 . S
C412 H403 0.929 . S
C412 C404 1.378 . S
C412 C407 1.350 . S
C413 H400 0.929 . S
C413 C405 1.433 . S
C413 N415 1.384 . S
N414 C410 1.427 . S
N414 C411 1.384 . S
N415 C407 1.427 . S
N415 C413 1.384 . S
H416 C422 0.930 . S
H417 C426 0.930 . S
H418 C431 0.929 . S
H419 C429 0.929 . S
H420 C424 0.929 . S
H421 C430 0.929 . S
C422 H416 0.930 . S
C422 C423 1.367 . S
C422 C430 1.378 . S
C423 C422 1.367 . S
C423 C431 1.433 . S
C424 H420 0.929 . S
C424 C426 1.378 . S
C424 C428 1.350 . S
C425 C428 1.463 . S
C425 C430 1.350 . S
C425 N433 1.427 . S
C426 H417 0.930 . S
C426 C424 1.378 . S
C426 C427 1.367 . S
C427 C426 1.367 . S
C427 C429 1.433 . S
C428 C424 1.350 . S
C428 C425 1.463 . S
C428 N432 1.427 . S
C429 H419 0.929 . S
C429 C427 1.433 . S
C429 N432 1.384 . S
C430 H421 0.929 . S
C430 C422 1.378 . S
C430 C425 1.350 . S
C431 H418 0.929 . S
C431 C423 1.433 . S
C431 N433 1.384 . S
N432 C428 1.427 . S
N432 C429 1.384 . S
N433 C425 1.427 . S
N433 C431 1.384 . S
H434 C440 0.930 . S
H435 C444 0.930 . S
H436 C449 0.929 . S
H437 C447 0.929 . S
H438 C442 0.929 . S
H439 C448 0.929 . S
C440 H434 0.930 . S
C440 C441 1.367 . S
C440 C448 1.378 . S
C441 C440 1.367 . S
C441 C449 1.433 . S
C442 H438 0.929 . S
C442 C444 1.378 . S
C442 C446 1.350 . S
C443 C446 1.463 . S
C443 C448 1.350 . S
C443 N451 1.427 . S
C444 H435 0.930 . S
C444 C442 1.378 . S
C444 C445 1.367 . S
C445 C444 1.367 . S
C445 C447 1.433 . S
C446 C442 1.350 . S
C446 C443 1.463 . S
C446 N450 1.427 . S
C447 H437 0.929 . S
C447 C445 1.433 . S
C447 N450 1.384 . S
C448 H439 0.929 . S
C448 C440 1.378 . S
C448 C443 1.350 . S
C449 H436 0.929 . S
C449 C441 1.433 . S
C449 N451 1.384 . S
N450 C446 1.427 . S
N450 C447 1.384 . S
N451 C443 1.427 . S
N451 C449 1.384 . S
H452 C458 0.930 . S
H453 C462 0.930 . S
H454 C467 0.929 . S
H455 C465 0.929 . S
H456 C460 0.929 . S
H457 C466 0.929 . S
C458 H452 0.930 . S
C458 C459 1.367 . S
C458 C466 1.378 . S
C459 C458 1.367 . S
C459 C467 1.433 . S
C460 H456 0.929 . S
C460 C462 1.378 . S
C460 C464 1.350 . S
C461 C464 1.463 . S
C461 C466 1.350 . S
C461 N469 1.427 . S
C462 H453 0.930 . S
C462 C460 1.378 . S
C462 C463 1.367 . S
C463 C462 1.367 . S
C463 C465 1.433 . S
C464 C460 1.350 . S
C464 C461 1.463 . S
C464 N468 1.427 . S
C465 H455 0.929 . S
C465 C463 1.433 . S
C465 N468 1.384 . S
C466 H457 0.929 . S
C466 C458 1.378 . S
C466 C461 1.350 . S
C467 H454 0.929 . S
C467 C459 1.433 . S
C467 N469 1.384 . S
N468 C464 1.427 . S
N468 C465 1.384 . S
N469 C461 1.427 . S
N469 C467 1.384 . S
H470 C476 0.930 . S
H471 C480 0.930 . S
H472 C485 0.929 . S
H473 C483 0.929 . S
H474 C478 0.929 . S
H475 C484 0.929 . S
C476 H470 0.930 . S
C476 C477 1.367 . S
C476 C484 1.378 . S
C477 C476 1.367 . S
C477 C485 1.433 . S
C478 H474 0.929 . S
C478 C480 1.378 . S
C478 C482 1.350 . S
C479 C482 1.463 . S
C479 C484 1.350 . S
C479 N487 1.427 . S
C480 H471 0.930 . S
C480 C478 1.378 . S
C480 C481 1.367 . S
C481 C480 1.367 . S
C481 C483 1.433 . S
C482 C478 1.350 . S
C482 C479 1.463 . S
C482 N486 1.427 . S
C483 H473 0.929 . S
C483 C481 1.433 . S
C483 N486 1.384 . S
C484 H475 0.929 . S
C484 C476 1.378 . S
C484 C479 1.350 . S
C485 H472 0.929 . S
C485 C477 1.433 . S
C485 N487 1.384 . S
N486 C482 1.427 . S
N486 C483 1.384 . S
N487 C479 1.427 . S
N487 C485 1.384 . S
H488 C494 0.930 . S
H489 C498 0.930 . S
H490 C503 0.929 . S
H491 C501 0.929 . S
H492 C496 0.929 . S
H493 C502 0.929 . S
C494 H488 0.930 . S
C494 C495 1.367 . S
C494 C502 1.378 . S
C495 C494 1.367 . S
C495 C503 1.433 . S
C496 H492 0.929 . S
C496 C498 1.378 . S
C496 C500 1.350 . S
C497 C500 1.463 . S
C497 C502 1.350 . S
C497 N505 1.427 . S
C498 H489 0.930 . S
C498 C496 1.378 . S
C498 C499 1.367 . S
C499 C498 1.367 . S
C499 C501 1.433 . S
C500 C496 1.350 . S
C500 C497 1.463 . S
C500 N504 1.427 . S
C501 H491 0.929 . S
C501 C499 1.433 . S
C501 N504 1.384 . S
C502 H493 0.929 . S
C502 C494 1.378 . S
C502 C497 1.350 . S
C503 H490 0.929 . S
C503 C495 1.433 . S
C503 N505 1.384 . S
N504 C500 1.427 . S
N504 C501 1.384 . S
N505 C497 1.427 . S
N505 C503 1.384 . S
H506 C512 0.930 . S
H507 C516 0.930 . S
H508 C521 0.929 . S
H509 C519 0.929 . S
H510 C514 0.929 . S
H511 C520 0.929 . S
C512 H506 0.930 . S
C512 C513 1.367 . S
C512 C520 1.378 . S
C513 C512 1.367 . S
C513 C521 1.433 . S
C514 H510 0.929 . S
C514 C516 1.378 . S
C514 C518 1.350 . S
C515 C518 1.463 . S
C515 C520 1.350 . S
C515 N523 1.427 . S
C516 H507 0.930 . S
C516 C514 1.378 . S
C516 C517 1.367 . S
C517 C516 1.367 . S
C517 C519 1.433 . S
C518 C514 1.350 . S
C518 C515 1.463 . S
C518 N522 1.427 . S
C519 H509 0.929 . S
C519 C517 1.433 . S
C519 N522 1.384 . S
C520 H511 0.929 . S
C520 C512 1.378 . S
C520 C515 1.350 . S
C521 H508 0.929 . S
C521 C513 1.433 . S
C521 N523 1.384 . S
N522 C518 1.427 . S
N522 C519 1.384 . S
N523 C515 1.427 . S
N523 C521 1.384 . S
H524 C530 0.930 . S
H525 C534 0.930 . S
H526 C539 0.929 . S
H527 C537 0.929 . S
H528 C532 0.929 . S
H529 C538 0.929 . S
C530 H524 0.930 . S
C530 C531 1.367 . S
C530 C538 1.378 . S
C531 C530 1.367 . S
C531 C539 1.433 . S
C532 H528 0.929 . S
C532 C534 1.378 . S
C532 C536 1.350 . S
C533 C536 1.463 . S
C533 C538 1.350 . S
C533 N541 1.427 . S
C534 H525 0.930 . S
C534 C532 1.378 . S
C534 C535 1.367 . S
C535 C534 1.367 . S
C535 C537 1.433 . S
C536 C532 1.350 . S
C536 C533 1.463 . S
C536 N540 1.427 . S
C537 H527 0.929 . S
C537 C535 1.433 . S
C537 N540 1.384 . S
C538 H529 0.929 . S
C538 C530 1.378 . S
C538 C533 1.350 . S
C539 H526 0.929 . S
C539 C531 1.433 . S
C539 N541 1.384 . S
N540 C536 1.427 . S
N540 C537 1.384 . S
N541 C533 1.427 . S
N541 C539 1.384 . S
H542 C548 0.930 . S
H543 C552 0.930 . S
H544 C557 0.929 . S
H545 C555 0.929 . S
H546 C550 0.929 . S
H547 C556 0.929 . S
C548 H542 0.930 . S
C548 C549 1.367 . S
C548 C556 1.378 . S
C549 C548 1.367 . S
C549 C557 1.433 . S
C550 H546 0.929 . S
C550 C552 1.378 . S
C550 C554 1.350 . S
C551 C554 1.463 . S
C551 C556 1.350 . S
C551 N559 1.427 . S
C552 H543 0.930 . S
C552 C550 1.378 . S
C552 C553 1.367 . S
C553 C552 1.367 . S
C553 C555 1.433 . S
C554 C550 1.350 . S
C554 C551 1.463 . S
C554 N558 1.427 . S
C555 H545 0.929 . S
C555 C553 1.433 . S
C555 N558 1.384 . S
C556 H547 0.929 . S
C556 C548 1.378 . S
C556 C551 1.350 . S
C557 H544 0.929 . S
C557 C549 1.433 . S
C557 N559 1.384 . S
N558 C554 1.427 . S
N558 C555 1.384 . S
N559 C551 1.427 . S
N559 C557 1.384 . S
H560 C566 0.930 . S
H561 C570 0.930 . S
H562 C575 0.929 . S
H563 C573 0.929 . S
H564 C568 0.929 1_545 S
H565 C574 0.929 1_565 S
C566 H560 0.930 . S
C566 C567 1.367 . S
C566 C574 1.378 . S
C567 C566 1.367 . S
C567 C575 1.433 . S
C568 H564 0.929 1_565 S
C568 C570 1.378 . S
C568 C572 1.350 . S
C569 C572 1.463 1_445 S
C569 C574 1.350 . S
C569 N577 1.427 . S
C570 H561 0.930 . S
C570 C568 1.378 . S
C570 C571 1.367 . S
C571 C570 1.367 . S
C571 C573 1.433 . S
C572 C568 1.350 . S
C572 C569 1.463 1_665 S
C572 N576 1.427 . S
C573 H563 0.929 . S
C573 C571 1.433 . S
C573 N576 1.384 . S
C574 H565 0.929 1_545 S
C574 C566 1.378 . S
C574 C569 1.350 . S
C575 H562 0.929 . S
C575 C567 1.433 . S
C575 N577 1.384 . S
N576 C572 1.427 . S
N576 C573 1.384 . S
N577 C569 1.427 . S
N577 C575 1.384 . S
H578 C584 0.930 . S
H579 C588 0.930 . S
H580 C593 0.929 . S
H581 C591 0.929 . S
H582 C586 0.929 1_655 S
H583 C592 0.929 1_455 S
C584 H578 0.930 . S
C584 C585 1.367 . S
C584 C592 1.378 . S
C585 C584 1.367 . S
C585 C593 1.433 . S
C586 H582 0.929 1_455 S
C586 C588 1.378 . S
C586 C590 1.350 . S
C587 C590 1.463 1_645 S
C587 C592 1.350 . S
C587 N595 1.427 . S
C588 H579 0.930 . S
C588 C586 1.378 . S
C588 C589 1.367 . S
C589 C588 1.367 . S
C589 C591 1.433 . S
C590 C586 1.350 . S
C590 C587 1.463 1_465 S
C590 N594 1.427 . S
C591 H581 0.929 . S
C591 C589 1.433 . S
C591 N594 1.384 . S
C592 H583 0.929 1_655 S
C592 C584 1.378 . S
C592 C587 1.350 . S
C593 H580 0.929 . S
C593 C585 1.433 . S
C593 N595 1.384 . S
N594 C590 1.427 . S
N594 C591 1.384 . S
N595 C587 1.427 . S
N595 C593 1.384 . S
H596 C602 0.930 . S
H597 C606 0.930 . S
H598 C611 0.929 . S
H599 C609 0.929 . S
H600 C604 0.929 . S
H601 C610 0.929 . S
C602 H596 0.930 . S
C602 C603 1.367 . S
C602 C610 1.378 . S
C603 C602 1.367 . S
C603 C611 1.433 . S
C604 H600 0.929 . S
C604 C606 1.378 . S
C604 C608 1.350 . S
C605 C608 1.463 . S
C605 C610 1.350 . S
C605 N613 1.427 . S
C606 H597 0.930 . S
C606 C604 1.378 . S
C606 C607 1.367 . S
C607 C606 1.367 . S
C607 C609 1.433 . S
C608 C604 1.350 . S
C608 C605 1.463 . S
C608 N612 1.427 . S
C609 H599 0.929 . S
C609 C607 1.433 . S
C609 N612 1.384 . S
C610 H601 0.929 . S
C610 C602 1.378 . S
C610 C605 1.350 . S
C611 H598 0.929 . S
C611 C603 1.433 . S
C611 N613 1.384 . S
N612 C608 1.427 . S
N612 C609 1.384 . S
N613 C605 1.427 . S
N613 C611 1.384 . S
H614 C620 0.930 . S
H615 C624 0.930 . S
H616 C629 0.929 . S
H617 C627 0.929 . S
H618 C622 0.929 . S
H619 C628 0.929 . S
C620 H614 0.930 . S
C620 C621 1.367 . S
C620 C628 1.378 . S
C621 C620 1.367 . S
C621 C629 1.433 . S
C622 H618 0.929 . S
C622 C624 1.378 . S
C622 C626 1.350 . S
C623 C626 1.463 . S
C623 C628 1.350 . S
C623 N631 1.427 . S
C624 H615 0.930 . S
C624 C622 1.378 . S
C624 C625 1.367 . S
C625 C624 1.367 . S
C625 C627 1.433 . S
C626 C622 1.350 . S
C626 C623 1.463 . S
C626 N630 1.427 . S
C627 H617 0.929 . S
C627 C625 1.433 . S
C627 N630 1.384 . S
C628 H619 0.929 . S
C628 C620 1.378 . S
C628 C623 1.350 . S
C629 H616 0.929 . S
C629 C621 1.433 . S
C629 N631 1.384 . S
N630 C626 1.427 . S
N630 C627 1.384 . S
N631 C623 1.427 . S
N631 C629 1.384 . S
H632 C638 0.930 . S
H633 C642 0.930 . S
H634 C647 0.929 . S
H635 C645 0.929 . S
H636 C640 0.929 1_545 S
H637 C646 0.929 1_565 S
C638 H632 0.930 . S
C638 C639 1.367 . S
C638 C646 1.378 . S
C639 C638 1.367 . S
C639 C647 1.433 . S
C640 H636 0.929 1_565 S
C640 C642 1.378 . S
C640 C644 1.350 . S
C641 C644 1.463 1_544 S
C641 C646 1.350 . S
C641 N649 1.427 . S
C642 H633 0.930 . S
C642 C640 1.378 . S
C642 C643 1.367 . S
C643 C642 1.367 . S
C643 C645 1.433 . S
C644 C640 1.350 . S
C644 C641 1.463 1_566 S
C644 N648 1.427 . S
C645 H635 0.929 . S
C645 C643 1.433 . S
C645 N648 1.384 . S
C646 H637 0.929 1_545 S
C646 C638 1.378 . S
C646 C641 1.350 . S
C647 H634 0.929 . S
C647 C639 1.433 . S
C647 N649 1.384 . S
N648 C644 1.427 . S
N648 C645 1.384 . S
N649 C641 1.427 . S
N649 C647 1.384 . S
H650 C656 0.930 . S
H651 C660 0.930 . S
H652 C665 0.929 . S
H653 C663 0.929 . S
H654 C658 0.929 1_455 S
H655 C664 0.929 1_655 S
C656 H650 0.930 . S
C656 C657 1.367 . S
C656 C664 1.378 . S
C657 C656 1.367 . S
C657 C665 1.433 . S
C658 H654 0.929 1_655 S
C658 C660 1.378 . S
C658 C662 1.350 . S
C659 C662 1.463 1_456 S
C659 C664 1.350 . S
C659 N667 1.427 . S
C660 H651 0.930 . S
C660 C658 1.378 . S
C660 C661 1.367 . S
C661 C660 1.367 . S
C661 C663 1.433 . S
C662 C658 1.350 . S
C662 C659 1.463 1_654 S
C662 N666 1.427 . S
C663 H653 0.929 . S
C663 C661 1.433 . S
C663 N666 1.384 . S
C664 H655 0.929 1_455 S
C664 C656 1.378 . S
C664 C659 1.350 . S
C665 H652 0.929 . S
C665 C657 1.433 . S
C665 N667 1.384 . S
N666 C662 1.427 . S
N666 C663 1.384 . S
N667 C659 1.427 . S
N667 C665 1.384 . S
H668 C674 0.930 . S
H669 C678 0.930 . S
H670 C683 0.929 . S
H671 C681 0.929 . S
H672 C676 0.929 1_556 S
H673 C682 0.929 1_554 S
C674 H668 0.930 . S
C674 C675 1.367 . S
C674 C682 1.378 . S
C675 C674 1.367 . S
C675 C683 1.433 . S
C676 H672 0.929 1_554 S
C676 C678 1.378 . S
C676 C680 1.350 . S
C677 C680 1.463 1_546 S
C677 C682 1.350 . S
C677 N685 1.427 . S
C678 H669 0.930 . S
C678 C676 1.378 . S
C678 C679 1.367 . S
C679 C678 1.367 . S
C679 C681 1.433 . S
C680 C676 1.350 . S
C680 C677 1.463 1_564 S
C680 N684 1.427 . S
C681 H671 0.929 . S
C681 C679 1.433 . S
C681 N684 1.384 . S
C682 H673 0.929 1_556 S
C682 C674 1.378 . S
C682 C677 1.350 . S
C683 H670 0.929 . S
C683 C675 1.433 . S
C683 N685 1.384 . S
N684 C680 1.427 . S
N684 C681 1.384 . S
N685 C677 1.427 . S
N685 C683 1.384 . S
H686 C692 0.930 . S
H687 C696 0.930 . S
H688 C701 0.929 . S
H689 C699 0.929 . S
H690 C694 0.929 . S
H691 C700 0.929 . S
C692 H686 0.930 . S
C692 C693 1.367 . S
C692 C700 1.378 . S
C693 C692 1.367 . S
C693 C701 1.433 . S
C694 H690 0.929 . S
C694 C696 1.378 . S
C694 C698 1.350 . S
C695 C698 1.463 1_454 S
C695 C700 1.350 . S
C695 N703 1.427 . S
C696 H687 0.930 . S
C696 C694 1.378 . S
C696 C697 1.367 . S
C697 C696 1.367 . S
C697 C699 1.433 . S
C698 C694 1.350 . S
C698 C695 1.463 1_656 S
C698 N702 1.427 . S
C699 H689 0.929 . S
C699 C697 1.433 . S
C699 N702 1.384 . S
C700 H691 0.929 . S
C700 C692 1.378 . S
C700 C695 1.350 . S
C701 H688 0.929 . S
C701 C693 1.433 . S
C701 N703 1.384 . S
N702 C698 1.427 . S
N702 C699 1.384 . S
N703 C695 1.427 . S
N703 C701 1.384 . S
H704 C710 0.930 . S
H705 C714 0.930 . S
H706 C719 0.929 . S
H707 C717 0.929 . S
H708 C712 0.929 . S
H709 C718 0.929 . S
C710 H704 0.930 . S
C710 C711 1.367 . S
C710 C718 1.378 . S
C711 C710 1.367 . S
C711 C719 1.433 . S
C712 H708 0.929 . S
C712 C714 1.378 . S
C712 C716 1.350 . S
C713 C716 1.463 . S
C713 C718 1.350 . S
C713 N721 1.427 . S
C714 H705 0.930 . S
C714 C712 1.378 . S
C714 C715 1.367 . S
C715 C714 1.367 . S
C715 C717 1.433 . S
C716 C712 1.350 . S
C716 C713 1.463 . S
C716 N720 1.427 . S
C717 H707 0.929 . S
C717 C715 1.433 . S
C717 N720 1.384 . S
C718 H709 0.929 . S
C718 C710 1.378 . S
C718 C713 1.350 . S
C719 H706 0.929 . S
C719 C711 1.433 . S
C719 N721 1.384 . S
N720 C716 1.427 . S
N720 C717 1.384 . S
N721 C713 1.427 . S
N721 C719 1.384 . S
H722 C728 0.930 . S
H723 C732 0.930 . S
H724 C737 0.929 . S
H725 C735 0.929 . S
H726 C730 0.929 . S
H727 C736 0.929 . S
C728 H722 0.930 . S
C728 C729 1.367 . S
C728 C736 1.378 . S
C729 C728 1.367 . S
C729 C737 1.433 . S
C730 H726 0.929 . S
C730 C732 1.378 . S
C730 C734 1.350 . S
C731 C734 1.463 . S
C731 C736 1.350 . S
C731 N739 1.427 . S
C732 H723 0.930 . S
C732 C730 1.378 . S
C732 C733 1.367 . S
C733 C732 1.367 . S
C733 C735 1.433 . S
C734 C730 1.350 . S
C734 C731 1.463 . S
C734 N738 1.427 . S
C735 H725 0.929 . S
C735 C733 1.433 . S
C735 N738 1.384 . S
C736 H727 0.929 . S
C736 C728 1.378 . S
C736 C731 1.350 . S
C737 H724 0.929 . S
C737 C729 1.433 . S
C737 N739 1.384 . S
N738 C734 1.427 . S
N738 C735 1.384 . S
N739 C731 1.427 . S
N739 C737 1.384 . S
H740 C746 0.930 . S
H741 C750 0.930 . S
H742 C755 0.929 . S
H743 C753 0.929 . S
H744 C748 0.929 . S
H745 C754 0.929 . S
C746 H740 0.930 . S
C746 C747 1.367 . S
C746 C754 1.378 . S
C747 C746 1.367 . S
C747 C755 1.433 . S
C748 H744 0.929 . S
C748 C750 1.378 . S
C748 C752 1.350 . S
C749 C752 1.463 . S
C749 C754 1.350 . S
C749 N757 1.427 . S
C750 H741 0.930 . S
C750 C748 1.378 . S
C750 C751 1.367 . S
C751 C750 1.367 . S
C751 C753 1.433 . S
C752 C748 1.350 . S
C752 C749 1.463 . S
C752 N756 1.427 . S
C753 H743 0.929 . S
C753 C751 1.433 . S
C753 N756 1.384 . S
C754 H745 0.929 . S
C754 C746 1.378 . S
C754 C749 1.350 . S
C755 H742 0.929 . S
C755 C747 1.433 . S
C755 N757 1.384 . S
N756 C752 1.427 . S
N756 C753 1.384 . S
N757 C749 1.427 . S
N757 C755 1.384 . S
H758 C764 0.930 . S
H759 C768 0.930 . S
H760 C773 0.929 . S
H761 C771 0.929 . S
H762 C766 0.929 . S
H763 C772 0.929 . S
C764 H758 0.930 . S
C764 C765 1.367 . S
C764 C772 1.378 . S
C765 C764 1.367 . S
C765 C773 1.433 . S
C766 H762 0.929 . S
C766 C768 1.378 . S
C766 C770 1.350 . S
C767 C770 1.463 . S
C767 C772 1.350 . S
C767 N775 1.427 . S
C768 H759 0.930 . S
C768 C766 1.378 . S
C768 C769 1.367 . S
C769 C768 1.367 . S
C769 C771 1.433 . S
C770 C766 1.350 . S
C770 C767 1.463 . S
C770 N774 1.427 . S
C771 H761 0.929 . S
C771 C769 1.433 . S
C771 N774 1.384 . S
C772 H763 0.929 . S
C772 C764 1.378 . S
C772 C767 1.350 . S
C773 H760 0.929 . S
C773 C765 1.433 . S
C773 N775 1.384 . S
N774 C770 1.427 . S
N774 C771 1.384 . S
N775 C767 1.427 . S
N775 C773 1.384 . S
C279 C28 1.741 . S
C283 C241 1.622 . S
C297 C49 1.261 . S
C301 C137 1.270 . S
C315 C173 1.624 . S
C319 C96 1.740 . S
C333 C117 1.272 . S
C337 C207 1.260 . S
C351 C40 1.737 . S
C355 C205 1.623 . S
C369 C239 1.274 . S
C373 C90 1.258 . S
C387 C108 1.742 . S
C391 C139 1.618 . S
C405 C171 1.274 . S
C409 C22 1.258 . S
C423 C142 1.742 . S
C427 C105 1.615 . S
C441 C3 1.266 . S
C445 C185 1.265 . S
C459 C37 1.614 . S
C463 C232 1.743 . S
C477 C253 1.277 . S
C481 C71 1.254 . S
C495 C176 1.738 . S
C499 C69 1.622 . S
C513 C226 1.274 . S
C517 C103 1.258 . S
C531 C244 1.738 . S
C535 C1 1.627 . S
C549 C35 1.254 . S
C553 C151 1.277 . S
C567 C17 1.649 . S
C571 C85 1.647 . S
C585 C119 1.648 . S
C589 C51 1.649 . S
C603 C153 1.647 . S
C607 C221 1.650 . S
C621 C187 1.650 . S
C625 C255 1.647 . S
C639 C15 0.803 . S
C643 C56 0.834 . S
C657 C62 0.719 . S
C661 C74 0.742 . S
C675 C124 0.812 . S
C679 C83 0.795 . S
C693 C6 0.713 . S
C697 C130 0.744 . S
C711 C192 0.809 . S
C715 C158 0.797 . S
C729 C210 0.739 . S
C733 C198 0.716 . S
C747 C219 0.819 . S
C751 C260 0.793 . S
C765 C164 0.713 . S
C769 C266 0.745 . S
