# Generated by pormake.
# Topology twf-e, (6)-cn, num edge types: 1
# Building blocks:
#     Node 0, Type 0, BuildingBlock: MIDCAF_clean_sbu_0, # of connection points: 6
#     Node 1, Type 0, BuildingBlock: MIDCAF_clean_sbu_0, # of connection points: 6
#     Node 2, Type 0, BuildingBlock: MIDCAF_clean_sbu_0, # of connection points: 6
#     Node 3, Type 0, BuildingBlock: MIDCAF_clean_sbu_0, # of connection points: 6
#     Node 4, Type 0, BuildingBlock: MIDCAF_clean_sbu_0, # of connection points: 6
#     Node 5, Type 0, BuildingBlock: MIDCAF_clean_sbu_0, # of connection points: 6
#     Node 6, Type 0, BuildingBlock: MIDCAF_clean_sbu_0, # of connection points: 6
#     Node 7, Type 0, BuildingBlock: MIDCAF_clean_sbu_0, # of connection points: 6
#     Node 8, Type 0, BuildingBlock: MIDCAF_clean_sbu_0, # of connection points: 6
#     Node 9, Type 0, BuildingBlock: MIDCAF_clean_sbu_0, # of connection points: 6
#     Node 10, Type 0, BuildingBlock: MIDCAF_clean_sbu_0, # of connection points: 6
#     Node 11, Type 0, BuildingBlock: MIDCAF_clean_sbu_0, # of connection points: 6
#     Node 12, Type 0, BuildingBlock: MIDCAF_clean_sbu_0, # of connection points: 6
#     Node 13, Type 0, BuildingBlock: MIDCAF_clean_sbu_0, # of connection points: 6
#     Node 14, Type 0, BuildingBlock: MIDCAF_clean_sbu_0, # of connection points: 6
#     Node 15, Type 0, BuildingBlock: MIDCAF_clean_sbu_0, # of connection points: 6
#     Node 16, Type 0, BuildingBlock: MIDCAF_clean_sbu_0, # of connection points: 6
#     Node 17, Type 0, BuildingBlock: MIDCAF_clean_sbu_0, # of connection points: 6
#     Node 18, Type 0, BuildingBlock: MIDCAF_clean_sbu_0, # of connection points: 6
#     Node 19, Type 0, BuildingBlock: MIDCAF_clean_sbu_0, # of connection points: 6
#     Node 20, Type 0, BuildingBlock: MIDCAF_clean_sbu_0, # of connection points: 6
#     Node 21, Type 0, BuildingBlock: MIDCAF_clean_sbu_0, # of connection points: 6
#     Node 22, Type 0, BuildingBlock: MIDCAF_clean_sbu_0, # of connection points: 6
#     Node 23, Type 0, BuildingBlock: MIDCAF_clean_sbu_0, # of connection points: 6
#     Node 24, Type 0, BuildingBlock: MIDCAF_clean_sbu_0, # of connection points: 6
#     Node 25, Type 0, BuildingBlock: MIDCAF_clean_sbu_0, # of connection points: 6
#     Node 26, Type 0, BuildingBlock: MIDCAF_clean_sbu_0, # of connection points: 6
#     Node 27, Type 0, BuildingBlock: MIDCAF_clean_sbu_0, # of connection points: 6
#     Node 28, Type 0, BuildingBlock: MIDCAF_clean_sbu_0, # of connection points: 6
#     Node 29, Type 0, BuildingBlock: MIDCAF_clean_sbu_0, # of connection points: 6
#     Node 30, Type 0, BuildingBlock: MIDCAF_clean_sbu_0, # of connection points: 6
#     Node 31, Type 0, BuildingBlock: MIDCAF_clean_sbu_0, # of connection points: 6
#     Node 32, Type 0, BuildingBlock: MIDCAF_clean_sbu_0, # of connection points: 6
#     Node 33, Type 0, BuildingBlock: MIDCAF_clean_sbu_0, # of connection points: 6
#     Node 34, Type 0, BuildingBlock: MIDCAF_clean_sbu_0, # of connection points: 6
#     Node 35, Type 0, BuildingBlock: MIDCAF_clean_sbu_0, # of connection points: 6
#     Node 36, Type 0, BuildingBlock: MIDCAF_clean_sbu_0, # of connection points: 6
#     Node 37, Type 0, BuildingBlock: MIDCAF_clean_sbu_0, # of connection points: 6
#     Node 38, Type 0, BuildingBlock: MIDCAF_clean_sbu_0, # of connection points: 6
#     Node 39, Type 0, BuildingBlock: MIDCAF_clean_sbu_0, # of connection points: 6
#     Node 40, Type 0, BuildingBlock: MIDCAF_clean_sbu_0, # of connection points: 6
#     Node 41, Type 0, BuildingBlock: MIDCAF_clean_sbu_0, # of connection points: 6
#     Node 42, Type 0, BuildingBlock: MIDCAF_clean_sbu_0, # of connection points: 6
#     Node 43, Type 0, BuildingBlock: MIDCAF_clean_sbu_0, # of connection points: 6
#     Node 44, Type 0, BuildingBlock: MIDCAF_clean_sbu_0, # of connection points: 6
#     Node 45, Type 0, BuildingBlock: MIDCAF_clean_sbu_0, # of connection points: 6
#     Node 46, Type 0, BuildingBlock: MIDCAF_clean_sbu_0, # of connection points: 6
#     Node 47, Type 0, BuildingBlock: MIDCAF_clean_sbu_0, # of connection points: 6
#     Edge 48, Type (0, 0), None
#     Edge 49, Type (0, 0), None
#     Edge 50, Type (0, 0), None
#     Edge 51, Type (0, 0), None
#     Edge 52, Type (0, 0), None
#     Edge 53, Type (0, 0), None
#     Edge 54, Type (0, 0), None
#     Edge 55, Type (0, 0), None
#     Edge 56, Type (0, 0), None
#     Edge 57, Type (0, 0), None
#     Edge 58, Type (0, 0), None
#     Edge 59, Type (0, 0), None
#     Edge 60, Type (0, 0), None
#     Edge 61, Type (0, 0), None
#     Edge 62, Type (0, 0), None
#     Edge 63, Type (0, 0), None
#     Edge 64, Type (0, 0), None
#     Edge 65, Type (0, 0), None
#     Edge 66, Type (0, 0), None
#     Edge 67, Type (0, 0), None
#     Edge 68, Type (0, 0), None
#     Edge 69, Type (0, 0), None
#     Edge 70, Type (0, 0), None
#     Edge 71, Type (0, 0), None
#     Edge 72, Type (0, 0), None
#     Edge 73, Type (0, 0), None
#     Edge 74, Type (0, 0), None
#     Edge 75, Type (0, 0), None
#     Edge 76, Type (0, 0), None
#     Edge 77, Type (0, 0), None
#     Edge 78, Type (0, 0), None
#     Edge 79, Type (0, 0), None
#     Edge 80, Type (0, 0), None
#     Edge 81, Type (0, 0), None
#     Edge 82, Type (0, 0), None
#     Edge 83, Type (0, 0), None
#     Edge 84, Type (0, 0), None
#     Edge 85, Type (0, 0), None
#     Edge 86, Type (0, 0), None
#     Edge 87, Type (0, 0), None
#     Edge 88, Type (0, 0), None
#     Edge 89, Type (0, 0), None
#     Edge 90, Type (0, 0), None
#     Edge 91, Type (0, 0), None
#     Edge 92, Type (0, 0), None
#     Edge 93, Type (0, 0), None
#     Edge 94, Type (0, 0), None
#     Edge 95, Type (0, 0), None
#     Edge 96, Type (0, 0), None
#     Edge 97, Type (0, 0), None
#     Edge 98, Type (0, 0), None
#     Edge 99, Type (0, 0), None
#     Edge 100, Type (0, 0), None
#     Edge 101, Type (0, 0), None
#     Edge 102, Type (0, 0), None
#     Edge 103, Type (0, 0), None
#     Edge 104, Type (0, 0), None
#     Edge 105, Type (0, 0), None
#     Edge 106, Type (0, 0), None
#     Edge 107, Type (0, 0), None
#     Edge 108, Type (0, 0), None
#     Edge 109, Type (0, 0), None
#     Edge 110, Type (0, 0), None
#     Edge 111, Type (0, 0), None
#     Edge 112, Type (0, 0), None
#     Edge 113, Type (0, 0), None
#     Edge 114, Type (0, 0), None
#     Edge 115, Type (0, 0), None
#     Edge 116, Type (0, 0), None
#     Edge 117, Type (0, 0), None
#     Edge 118, Type (0, 0), None
#     Edge 119, Type (0, 0), None
#     Edge 120, Type (0, 0), None
#     Edge 121, Type (0, 0), None
#     Edge 122, Type (0, 0), None
#     Edge 123, Type (0, 0), None
#     Edge 124, Type (0, 0), None
#     Edge 125, Type (0, 0), None
#     Edge 126, Type (0, 0), None
#     Edge 127, Type (0, 0), None
#     Edge 128, Type (0, 0), None
#     Edge 129, Type (0, 0), None
#     Edge 130, Type (0, 0), None
#     Edge 131, Type (0, 0), None
#     Edge 132, Type (0, 0), None
#     Edge 133, Type (0, 0), None
#     Edge 134, Type (0, 0), None
#     Edge 135, Type (0, 0), None
#     Edge 136, Type (0, 0), None
#     Edge 137, Type (0, 0), None
#     Edge 138, Type (0, 0), None
#     Edge 139, Type (0, 0), None
#     Edge 140, Type (0, 0), None
#     Edge 141, Type (0, 0), None
#     Edge 142, Type (0, 0), None
#     Edge 143, Type (0, 0), None
#     Edge 144, Type (0, 0), None
#     Edge 145, Type (0, 0), None
#     Edge 146, Type (0, 0), None
#     Edge 147, Type (0, 0), None
#     Edge 148, Type (0, 0), None
#     Edge 149, Type (0, 0), None
#     Edge 150, Type (0, 0), None
#     Edge 151, Type (0, 0), None
#     Edge 152, Type (0, 0), None
#     Edge 153, Type (0, 0), None
#     Edge 154, Type (0, 0), None
#     Edge 155, Type (0, 0), None
#     Edge 156, Type (0, 0), None
#     Edge 157, Type (0, 0), None
#     Edge 158, Type (0, 0), None
#     Edge 159, Type (0, 0), None
#     Edge 160, Type (0, 0), None
#     Edge 161, Type (0, 0), None
#     Edge 162, Type (0, 0), None
#     Edge 163, Type (0, 0), None
#     Edge 164, Type (0, 0), None
#     Edge 165, Type (0, 0), None
#     Edge 166, Type (0, 0), None
#     Edge 167, Type (0, 0), None
#     Edge 168, Type (0, 0), None
#     Edge 169, Type (0, 0), None
#     Edge 170, Type (0, 0), None
#     Edge 171, Type (0, 0), None
#     Edge 172, Type (0, 0), None
#     Edge 173, Type (0, 0), None
#     Edge 174, Type (0, 0), None
#     Edge 175, Type (0, 0), None
#     Edge 176, Type (0, 0), None
#     Edge 177, Type (0, 0), None
#     Edge 178, Type (0, 0), None
#     Edge 179, Type (0, 0), None
#     Edge 180, Type (0, 0), None
#     Edge 181, Type (0, 0), None
#     Edge 182, Type (0, 0), None
#     Edge 183, Type (0, 0), None
#     Edge 184, Type (0, 0), None
#     Edge 185, Type (0, 0), None
#     Edge 186, Type (0, 0), None
#     Edge 187, Type (0, 0), None
#     Edge 188, Type (0, 0), None
#     Edge 189, Type (0, 0), None
#     Edge 190, Type (0, 0), None
#     Edge 191, Type (0, 0), None
# Relax obj value: 0.389
# Max RMSD: 0.173
# Mean RMSD: 0.173
data_MOF--net-twf-e--node1-MIDCAF_clean_sbu_0--edge1-none
_symmetry_space_group_name_H-M    P1
_symmetry_Int_Tables_number       1
_symmetry_cell_setting            triclinic
loop_
_symmetry_equiv_pos_as_xyz
'x, y, z'
_cell_length_a     28.451926
_cell_length_b     28.33814
_cell_length_c     28.313434
_cell_angle_alpha  90.014749
_cell_angle_beta   90.0252
_cell_angle_gamma 89.902618
loop_
_atom_site_label
_atom_site_type_symbol
_atom_site_fract_x
_atom_site_fract_y
_atom_site_fract_z
_atom_type_partial_charge
Zn0 Zn 0.06808 0.17596 0.30455 0.0
Zn1 Zn 0.91609 0.15252 0.40969 0.0
Zn2 Zn -0.01387 0.17643 0.35884 0.0
C3 C 0.88723 0.22655 0.3554 0.0
C4 C 0.9771 0.18891 0.47165 0.0
O5 O 0.00516 0.10905 0.326 0.0
O6 O 0.06833 0.10747 0.2837 0.0
C7 C 0.00364 0.24558 0.27396 0.0
O8 O 0.93062 0.22624 0.34217 0.0
O9 O 0.86939 0.18933 0.37212 0.0
O10 O 0.93374 0.18005 0.47125 0.0
O11 O 0.00146 0.18667 0.43338 0.0
O12 O 0.04212 0.22553 0.2646 0.0
O13 O 0.9768 0.23171 0.3078 0.0
O14 O 0.04003 0.20492 0.40621 0.0
O15 O 0.10289 0.20382 0.36005 0.0
C16 C 0.08294 0.21632 0.39812 0.0
O17 O 0.95557 0.10753 0.33943 0.0
O18 O 0.91917 0.0825 0.40264 0.0
C19 C 0.04383 0.08814 0.31532 0.0
C20 C 0.92877 0.07704 0.35956 0.0
Zn21 Zn 0.79842 0.07101 0.29884 0.0
Zn22 Zn 0.82181 0.93088 0.40353 0.0
Zn23 Zn 0.80373 -0.00216 0.35199 0.0
C24 C 0.75161 0.90153 0.34323 0.0
C25 C 0.78671 -0.00417 0.46364 0.0
O26 O 0.87465 0.01825 0.33687 0.0
O27 O 0.86166 0.09216 0.31748 0.0
C28 C 0.75839 0.00533 0.25181 0.0
O29 O 0.75582 0.944 0.32793 0.0
O30 O 0.78425 0.88375 0.36769 0.0
O31 O 0.79557 0.95228 0.46409 0.0
O32 O 0.78776 0.01907 0.42459 0.0
O33 O 0.78664 0.03754 0.24031 0.0
O34 O 0.75737 -0.01211 0.29365 0.0
O35 O 0.76409 0.05004 0.39301 0.0
O36 O 0.74038 0.09308 0.33257 0.0
C37 C 0.73503 0.0799 0.37481 0.0
O38 O 0.87595 0.96645 0.3395 0.0
O39 O 0.89066 0.92314 0.40212 0.0
C40 C 0.88953 0.0604 0.3314 0.0
C41 C 0.90298 0.93733 0.36187 0.0
Zn42 Zn 0.92512 0.81053 0.32403 0.0
Zn43 Zn 0.0701 0.84714 0.42229 0.0
Zn44 Zn 9e-05 0.81852 0.37188 0.0
C45 C 0.102 0.77636 0.36291 0.0
C46 C 0.01246 0.80466 0.48435 0.0
O47 O 0.96794 0.88724 0.35623 0.0
O48 O 0.90743 0.87656 0.30943 0.0
C49 C -0.01267 0.75361 0.28067 0.0
O50 O 0.05959 0.77783 0.3467 0.0
O51 O 0.11827 0.81193 0.38434 0.0
O52 O 0.05382 0.82041 0.48404 0.0
O53 O -0.01147 0.80168 0.44591 0.0
O54 O 0.94629 0.76903 0.27485 0.0
O55 O 0.0138 0.76868 0.31443 0.0
O56 O 0.95247 0.77989 0.41961 0.0
O57 O 0.89091 0.77353 0.37261 0.0
C58 C 0.9116 0.76285 0.41062 0.0
O59 O 0.02192 0.89192 0.35582 0.0
O60 O 0.06254 0.9167 0.41649 0.0
C61 C 0.9313 0.9036 0.33538 0.0
C62 C 0.04822 0.92352 0.37499 0.0
Zn63 Zn 0.17506 0.93734 0.32106 0.0
Zn64 Zn 0.14356 0.08799 0.41546 0.0
Zn65 Zn 0.17233 0.00949 0.36796 0.0
C66 C 0.22983 0.09961 0.36064 0.0
C67 C 0.17014 0.01494 0.47827 0.0
O68 O 0.10033 0.9852 0.35673 0.0
O69 O 0.11001 0.9152 0.32468 0.0
C70 C 0.22727 -0.00985 0.27079 0.0
O71 O 0.21947 0.06067 0.33992 0.0
O72 O 0.20135 0.118 0.38974 0.0
O73 O 0.14799 0.0536 0.47681 0.0
O74 O 0.18536 -0.00513 0.44065 0.0
O75 O 0.20224 0.95472 0.26168 0.0
O76 O 0.22148 0.01455 0.30881 0.0
O77 O 0.21315 0.96235 0.41676 0.0
O78 O 0.22509 0.90921 0.36155 0.0
C79 C 0.23572 0.92606 0.40143 0.0
O80 O 0.10074 0.03629 0.34765 0.0
O81 O 0.08298 0.10226 0.38574 0.0
C82 C 0.08368 0.94477 0.34491 0.0
C83 C 0.07356 0.07234 0.35424 0.0
Zn84 Zn 0.07636 0.82259 0.69859 0.0
Zn85 Zn 0.92391 0.835 0.58891 0.0
Zn86 Zn -0.00817 0.82092 0.6413 0.0
C87 C 0.89553 0.76494 0.6486 0.0
C88 C -0.01207 0.8029 0.52914 0.0
O89 O 0.00735 0.89035 0.67021 0.0
O90 O 0.06883 0.8919 0.71528 0.0
C91 C 0.01052 0.75459 0.72907 0.0
O92 O 0.93899 0.7687 0.66112 0.0
O93 O 0.87654 0.79822 0.62578 0.0
O94 O 0.94383 0.80646 0.52891 0.0
O95 O 0.01114 0.80883 0.56767 0.0
O96 O 0.04909 0.77407 0.7389 0.0
O97 O -0.01567 0.76802 0.69453 0.0
O98 O 0.04732 0.79104 0.59744 0.0
O99 O 0.11068 0.793 0.64305 0.0
C100 C 0.09012 0.77931 0.60569 0.0
O101 O 0.95795 0.89049 0.6547 0.0
O102 O 0.92097 0.90505 0.58839 0.0
C103 C 0.0458 0.91077 0.68223 0.0
C104 C 0.93105 0.91741 0.62985 0.0
Zn105 Zn 0.18086 0.05874 0.68031 0.0
Zn106 Zn 0.14645 0.91122 0.58158 0.0
Zn107 Zn 0.17652 -0.01189 0.63112 0.0
C108 C 0.23375 0.89712 0.63384 0.0
C109 C 0.17039 -0.01139 0.52179 0.0
O110 O 0.10518 0.01107 0.64456 0.0
O111 O 0.1169 0.083 0.67091 0.0
C112 C 0.22911 0.00196 0.72952 0.0
O113 O 0.22416 0.93558 0.65586 0.0
O114 O 0.20563 0.88094 0.6032 0.0
O115 O 0.14837 0.94992 0.52294 0.0
O116 O 0.18784 0.00718 0.55918 0.0
O117 O 0.20168 0.03512 0.74056 0.0
O118 O 0.22607 0.98069 0.6894 0.0
O119 O 0.21695 0.03733 0.58437 0.0
O120 O 0.23473 0.08455 0.64329 0.0
C121 C 0.24272 0.07041 0.60177 0.0
O122 O 0.10461 0.96114 0.65113 0.0
O123 O 0.08695 0.89521 0.61292 0.0
C124 C 0.08958 0.05257 0.65361 0.0
C125 C 0.07731 0.92525 0.64428 0.0
Zn126 Zn 0.93299 0.1813 0.6833 0.0
Zn127 Zn 0.06575 0.1473 0.57598 0.0
Zn128 Zn 0.00056 0.17603 0.62692 0.0
C129 C 0.10427 0.21774 0.62955 0.0
C130 C 0.00149 0.18817 0.51649 0.0
O131 O 0.97381 0.10639 0.64324 0.0
O132 O 0.90552 0.11815 0.677 0.0
C133 C 0.00012 0.22738 0.72409 0.0
O134 O 0.06175 0.21796 0.64539 0.0
O135 O 0.11828 0.18357 0.6046 0.0
O136 O 0.04288 0.17244 0.51615 0.0
O137 O 0.97868 0.1925 0.55543 0.0
O138 O 0.96735 0.20088 0.73781 0.0
O139 O 0.01737 0.22467 0.68229 0.0
O140 O 0.94776 0.21709 0.58808 0.0
O141 O 0.90425 0.23603 0.64982 0.0
C142 C 0.91621 0.24335 0.60755 0.0
O143 O 0.02522 0.10258 0.64308 0.0
O144 O 0.06547 0.07784 0.58182 0.0
C145 C 0.93277 0.09148 0.65416 0.0
C146 C 0.05274 0.07175 0.62393 0.0
Zn147 Zn 0.83385 0.08167 0.56985 0.0
Zn148 Zn 0.80439 0.94154 0.67217 0.0
Zn149 Zn 0.805 0.01047 0.61986 0.0
C150 C 0.74722 0.923 0.59104 0.0
C151 C 0.74719 -0.00083 0.71545 0.0
O152 O 0.87725 0.03323 0.63683 0.0
O153 O 0.90266 0.07984 0.58042 0.0
C154 C 0.78959 0.02081 0.50828 0.0
O155 O 0.76547 0.96119 0.57505 0.0
O156 O 0.7599 0.90724 0.63076 0.0
O157 O 0.76946 0.96212 0.72525 0.0
O158 O 0.75606 0.02332 0.67795 0.0
O159 O 0.80798 0.06128 0.50815 0.0
O160 O 0.78587 -0.00279 0.54688 0.0
O161 O 0.76434 0.0693 0.64593 0.0
O162 O 0.79654 0.12832 0.60725 0.0
C163 C 0.76123 0.11095 0.6279 0.0
O164 O 0.8751 0.97854 0.63226 0.0
O165 O 0.86895 0.9189 0.68139 0.0
C166 C 0.90874 0.06131 0.62044 0.0
C167 C 0.89372 0.94317 0.65373 0.0
Zn168 Zn 0.30914 0.06636 0.18511 0.0
Zn169 Zn 0.40936 0.92145 0.15857 0.0
Zn170 Zn 0.35807 -0.00851 0.18294 0.0
C171 C 0.34809 0.88969 0.22581 0.0
C172 C 0.46853 0.98153 0.20327 0.0
O173 O 0.34561 0.01703 0.11173 0.0
O174 O 0.30926 0.08511 0.11809 0.0
C175 C 0.26146 0.00444 0.23654 0.0
O176 O 0.33331 0.93276 0.2249 0.0
O177 O 0.36917 0.87322 0.19019 0.0
O178 O 0.46819 0.93883 0.19084 0.0
O179 O 0.43054 0.00621 0.20221 0.0
O180 O 0.25356 0.0422 0.21455 0.0
O181 O 0.29928 0.98028 0.23018 0.0
O182 O 0.40241 0.04213 0.22227 0.0
O183 O 0.35016 0.09889 0.23199 0.0
C184 C 0.38936 0.0807 0.24243 0.0
O185 O 0.34573 0.96369 0.10998 0.0
O186 O 0.40881 0.9252 0.08828 0.0
C187 C 0.33131 0.05566 0.09307 0.0
C188 C 0.36666 0.93624 0.08029 0.0
Zn189 Zn 0.92838 0.31899 0.17548 0.0
Zn190 Zn 0.07304 0.41885 0.14955 0.0
Zn191 Zn 0.00309 0.36813 0.17398 0.0
C192 C 0.10407 0.36036 0.22056 0.0
C193 C 0.01303 0.47984 0.18916 0.0
O194 O 0.97426 0.35192 0.10342 0.0
O195 O 0.91806 0.29976 0.10863 0.0
C196 C -0.0126 0.28028 0.24063 0.0
O197 O 0.06125 0.34538 0.21849 0.0
O198 O 0.12116 0.38214 0.18562 0.0
O199 O 0.05532 0.48013 0.17612 0.0
O200 O -0.01061 0.44129 0.19011 0.0
O201 O 0.94738 0.27384 0.22291 0.0
O202 O 0.01507 0.31274 0.22531 0.0
O203 O 0.95215 0.4139 0.20919 0.0
O204 O 0.88921 0.3685 0.20573 0.0
C205 C 0.90929 0.40545 0.22038 0.0
O206 O 0.02848 0.35211 0.1024 0.0
O207 O 0.06874 0.41385 0.07988 0.0
C208 C 0.939 0.33074 0.08464 0.0
C209 C 0.05583 0.37208 0.07235 0.0
Zn210 Zn 0.57135 0.0666 0.15426 0.0
Zn211 Zn 0.67232 0.92515 0.18244 0.0
Zn212 Zn 0.62183 -0.0032 0.17726 0.0
C213 C 0.59784 0.9125 0.24601 0.0
C214 C 0.72363 -0.00902 0.2186 0.0
O215 O 0.6321 0.0226 0.10288 0.0
O216 O 0.57059 0.06515 0.08403 0.0
C217 C 0.51333 0.00577 0.20179 0.0
O218 O 0.58075 0.94583 0.22015 0.0
O219 O 0.63939 0.89845 0.23889 0.0
O220 O 0.73207 0.9549 0.19415 0.0
O221 O 0.68269 0.01013 0.2198 0.0
O222 O 0.51318 0.0479 0.18748 0.0
O223 O 0.55124 0.98107 0.20043 0.0
O224 O 0.64887 0.05513 0.21846 0.0
O225 O 0.61188 0.11489 0.18563 0.0
C226 C 0.63453 0.09825 0.2202 0.0
O227 O 0.63075 0.97029 0.10631 0.0
O228 O 0.65906 0.89943 0.12004 0.0
C229 C 0.61157 0.05146 0.07418 0.0
C230 C 0.64049 0.92857 0.09207 0.0
Zn231 Zn 0.07174 0.69164 0.17752 0.0
Zn232 Zn 0.92427 0.58289 0.15476 0.0
Zn233 Zn -0.00921 0.63603 0.17601 0.0
C234 C 0.88957 0.63748 0.22536 0.0
C235 C -0.01211 0.52412 0.19006 0.0
O236 O 0.00926 0.66604 0.10729 0.0
O237 O 0.07209 0.70923 0.10836 0.0
C238 C 0.00495 0.72155 0.24532 0.0
O239 O 0.93299 0.65096 0.22507 0.0
O240 O 0.87321 0.61582 0.18999 0.0
O241 O 0.94423 0.52327 0.1831 0.0
O242 O 0.01088 0.56299 0.18702 0.0
O243 O 0.04374 0.73171 0.22634 0.0
O244 O 0.97917 0.68732 0.2305 0.0
O245 O 0.04651 0.59236 0.20625 0.0
O246 O 0.10908 0.6388 0.20657 0.0
C247 C 0.08907 0.60079 0.21869 0.0
O248 O 0.95987 0.65137 0.10587 0.0
O249 O 0.92712 0.58491 0.08457 0.0
C250 C 0.04795 0.67831 0.08742 0.0
C251 C 0.93463 0.62785 0.07635 0.0
Zn252 Zn 0.3116 0.92226 0.80833 0.0
Zn253 Zn 0.41136 0.06263 0.84226 0.0
Zn254 Zn 0.36165 -0.00502 0.81377 0.0
C255 C 0.35461 0.09824 0.77176 0.0
C256 C 0.47214 0.00163 0.79961 0.0
O257 O 0.3498 0.96898 0.8847 0.0
O258 O 0.31927 0.89885 0.87325 0.0
C259 C 0.26339 -0.01304 0.76347 0.0
O260 O 0.33986 0.05519 0.77204 0.0
O261 O 0.37908 0.11328 0.80581 0.0
O262 O 0.4716 0.04284 0.81622 0.0
O263 O 0.43395 0.97771 0.79581 0.0
O264 O 0.25381 0.95111 0.78785 0.0
O265 O 0.30343 0.00776 0.76634 0.0
O266 O 0.405 0.9439 0.77346 0.0
O267 O 0.34864 0.8936 0.75553 0.0
C268 C 0.38967 0.909 0.74864 0.0
O269 O 0.34541 0.02227 0.88673 0.0
O270 O 0.40647 0.06184 0.91196 0.0
C271 C 0.33852 0.92824 0.9005 0.0
C272 C 0.36404 0.05056 0.91721 0.0
Zn273 Zn 0.92136 0.40625 0.83182 0.0
Zn274 Zn 0.07473 0.30261 0.82163 0.0
Zn275 Zn -0.00691 0.35334 0.81746 0.0
C276 C 0.08859 0.39166 0.77377 0.0
C277 C 0.01582 0.26275 0.75621 0.0
O278 O 0.95846 0.34233 0.88686 0.0
O279 O 0.92195 0.40846 0.90237 0.0
C280 C 0.98338 0.46537 0.79457 0.0
O281 O 0.04558 0.39938 0.78505 0.0
O282 O 0.1099 0.3557 0.78971 0.0
O283 O 0.05462 0.25601 0.77642 0.0
O284 O -0.01196 0.29681 0.76746 0.0
O285 O 0.93929 0.46508 0.79878 0.0
O286 O 0.00741 0.42744 0.80162 0.0
O287 O 0.94193 0.32787 0.76756 0.0
O288 O 0.87895 0.36029 0.79868 0.0
C289 C 0.89858 0.34041 0.7639 0.0
O290 O 0.00847 0.32989 0.88875 0.0
O291 O 0.07139 0.28645 0.89066 0.0
C292 C 0.93082 0.36641 0.91368 0.0
C293 C 0.04613 0.31736 0.9102 0.0
Zn294 Zn 0.57763 0.91846 0.83568 0.0
Zn295 Zn 0.67655 0.07373 0.81803 0.0
Zn296 Zn 0.62868 -0.00909 0.81771 0.0
C297 C 0.58515 0.08738 0.77904 0.0
C298 C 0.71278 0.01438 0.74916 0.0
O299 O 0.64242 0.95928 0.8873 0.0
O300 O 0.57691 0.92375 0.90593 0.0
C301 C 0.51726 0.97806 0.79766 0.0
O302 O 0.58062 0.04316 0.78761 0.0
O303 O 0.62065 0.10973 0.79413 0.0
O304 O 0.71765 0.05497 0.76654 0.0
O305 O 0.6825 0.98473 0.76514 0.0
O306 O 0.51846 0.93394 0.80283 0.0
O307 O 0.55453 0.00308 0.80359 0.0
O308 O 0.65154 0.93629 0.76942 0.0
O309 O 0.62162 0.87351 0.80391 0.0
C310 C 0.6405 0.89215 0.76814 0.0
O311 O 0.654 0.0093 0.88795 0.0
O312 O 0.69967 0.0704 0.88515 0.0
C313 C 0.61926 0.9323 0.91539 0.0
C314 C 0.66925 0.04705 0.90747 0.0
Zn315 Zn 0.06877 0.57078 0.84056 0.0
Zn316 Zn 0.92871 0.67144 0.8059 0.0
Zn317 Zn 0.00101 0.62123 0.81265 0.0
C318 C 0.917 0.59485 0.74508 0.0
C319 C -0.00635 0.71935 0.76104 0.0
O320 O 0.02522 0.63497 0.88709 0.0
O321 O 0.06805 0.57495 0.91043 0.0
C322 C 0.00763 0.51038 0.79635 0.0
O323 O 0.95133 0.57901 0.77024 0.0
O324 O 0.90067 0.63547 0.75293 0.0
O325 O 0.95638 0.72848 0.7832 0.0
O326 O 0.01578 0.68009 0.7664 0.0
O327 O 0.04871 0.51043 0.813 0.0
O328 O -0.01594 0.549 0.79304 0.0
O329 O 0.06057 0.64535 0.77172 0.0
O330 O 0.11842 0.60611 0.80546 0.0
C331 C 0.10297 0.62921 0.77058 0.0
O332 O 0.973 0.6333 0.88288 0.0
O333 O 0.90382 0.66548 0.87045 0.0
C334 C 0.05288 0.61601 0.91797 0.0
C335 C 0.93243 0.64564 0.89812 0.0
Zn336 Zn 0.146 0.41214 0.9106 0.0
Zn337 Zn 0.18197 0.31509 0.05398 0.0
Zn338 Zn 0.17805 0.36452 0.98506 0.0
C339 C 0.24488 0.39217 0.06671 0.0
C340 C 0.22732 0.26448 -0.00312 0.0
O341 O 0.10548 0.3459 0.96052 0.0
O342 O 0.08198 0.38973 0.90017 0.0
C343 C 0.17899 0.47484 0.98096 0.0
O344 O 0.21876 0.41051 0.03438 0.0
O345 O 0.2375 0.35005 0.0792 0.0
O346 O 0.19857 0.25425 0.02906 0.0
O347 O 0.22679 0.30517 0.97652 0.0
O348 O 0.1577 0.47373 0.94184 0.0
O349 O 0.19202 0.43682 0.00189 0.0
O350 O 0.221 0.33874 0.929 0.0
O351 O 0.19579 0.38402 0.87066 0.0
C352 C 0.22727 0.3579 0.88835 0.0
O353 O 0.10757 0.35261 0.01096 0.0
O354 O 0.12014 0.32489 0.08224 0.0
C355 C 0.07526 0.35551 0.92774 0.0
C356 C 0.09255 0.34294 0.05247 0.0
Zn357 Zn 0.17624 0.68045 0.93832 0.0
Zn358 Zn 0.15025 0.57824 0.08245 0.0
Zn359 Zn 0.17485 0.62818 0.00622 0.0
C360 C 0.2345 0.63213 0.09605 0.0
C361 C 0.17772 0.5184 0.00727 0.0
O362 O 0.10232 0.63693 0.98181 0.0
O363 O 0.1139 0.66782 0.91159 0.0
C364 C 0.22135 0.72959 -0.00346 0.0
O365 O 0.22191 0.6546 0.05875 0.0
O366 O 0.20898 0.59972 0.11274 0.0
O367 O 0.15527 0.5187 0.0458 0.0
O368 O 0.19117 0.55682 -0.01244 0.0
O369 O 0.19156 0.74111 0.96566 0.0
O370 O 0.22203 0.68798 0.01475 0.0
O371 O 0.21572 0.58535 0.9551 0.0
O372 O 0.23276 0.64731 0.91158 0.0
C373 C 0.24132 0.60514 0.92326 0.0
O374 O 0.10263 0.64732 0.03187 0.0
O375 O 0.09033 0.60925 0.09901 0.0
C376 C 0.0872 0.64683 0.94019 0.0
C377 C 0.07803 0.64035 0.06963 0.0
Zn378 Zn 0.30957 0.1809 0.92567 0.0
Zn379 Zn 0.40937 0.15285 0.06557 0.0
Zn380 Zn 0.35897 0.1774 -0.00306 0.0
C381 C 0.35128 0.22633 0.09476 0.0
C382 C 0.47147 0.1884 0.00329 0.0
O383 O 0.34282 0.10619 0.97496 0.0
O384 O 0.32014 0.11654 0.90171 0.0
C385 C 0.26137 0.22938 0.98384 0.0
O386 O 0.33563 0.22356 0.05221 0.0
O387 O 0.37408 0.19216 0.11206 0.0
O388 O 0.47135 0.17637 0.0461 0.0
O389 O 0.43286 0.19058 0.97964 0.0
O390 O 0.25016 0.19995 0.95243 0.0
O391 O 0.30179 0.22804 0.00429 0.0
O392 O 0.4051 0.21537 0.9475 0.0
O393 O 0.34623 0.23614 0.90168 0.0
C394 C 0.38785 0.24272 0.91569 0.0
O395 O 0.34171 0.10636 0.02799 0.0
O396 O 0.4026 0.08361 0.06988 0.0
C397 C 0.33502 0.08945 0.93375 0.0
C398 C 0.36084 0.07676 0.05691 0.0
Zn399 Zn 0.82636 0.40622 0.07115 0.0
Zn400 Zn 0.79998 0.31078 0.92732 0.0
Zn401 Zn 0.80554 0.35841 -0.00077 0.0
C402 C 0.73773 0.38603 0.91635 0.0
C403 C 0.76116 0.25706 -0.01223 0.0
O404 O 0.87922 0.34369 0.02655 0.0
O405 O 0.89428 0.39815 0.08005 0.0
C406 C 0.7893 0.46936 0.00753 0.0
O407 O 0.76512 0.40263 0.94863 0.0
O408 O 0.74311 0.344 0.90262 0.0
O409 O 0.78828 0.24886 0.95361 0.0
O410 O 0.75991 0.2977 0.00805 0.0
O411 O 0.80342 0.46861 0.04975 0.0
O412 O 0.78695 0.43103 0.9833 0.0
O413 O 0.75967 0.33051 0.05285 0.0
O414 O 0.78581 0.36941 0.11474 0.0
C415 C 0.75342 0.34628 0.09498 0.0
O416 O 0.87698 0.34783 0.97491 0.0
O417 O 0.8618 0.32658 0.90183 0.0
C418 C 0.9066 0.36122 0.05854 0.0
C419 C 0.89058 0.34116 0.93233 0.0
Zn420 Zn 0.67362 0.80262 0.93013 0.0
Zn421 Zn 0.57378 0.82626 0.07134 0.0
Zn422 Zn 0.62505 0.80645 -0.00032 0.0
C423 C 0.64082 0.76057 0.09713 0.0
C424 C 0.51405 0.7839 0.01126 0.0
O425 O 0.63719 0.87727 0.97497 0.0
O426 O 0.65987 0.86374 0.90214 0.0
C427 C 0.72609 0.7601 0.98556 0.0
O428 O 0.65536 0.7637 0.05426 0.0
O429 O 0.62003 0.79556 0.11534 0.0
O430 O 0.51487 0.79328 0.05478 0.0
O431 O 0.55176 0.78697 -0.01371 0.0
O432 O 0.73549 0.78921 0.95335 0.0
O433 O 0.68597 0.76001 0.00674 0.0
O434 O 0.58035 0.76725 0.9511 0.0
O435 O 0.64055 0.74517 0.90769 0.0
C436 C 0.59842 0.7394 0.92026 0.0
O437 O 0.63501 0.87943 0.02678 0.0
O438 O 0.5719 0.8964 0.06766 0.0
C439 C 0.64487 0.89194 0.93305 0.0
C440 C 0.61275 0.90753 0.05476 0.0
Zn441 Zn 0.83279 0.57407 0.92217 0.0
Zn442 Zn 0.80449 0.67734 0.05818 0.0
Zn443 Zn 0.80891 0.62589 -0.0098 0.0
C444 C 0.74222 0.60101 0.07213 0.0
C445 C 0.76122 0.72623 -0.00186 0.0
O446 O 0.88149 0.6392 0.96279 0.0
O447 O 0.90252 0.57583 0.92373 0.0
C448 C 0.79001 0.51432 0.983 0.0
O449 O 0.76923 0.58224 0.04092 0.0
O450 O 0.74852 0.64355 0.08377 0.0
O451 O 0.78951 0.73719 0.03047 0.0
O452 O 0.76127 0.68491 0.97922 0.0
O453 O 0.8025 0.5142 0.94031 0.0
O454 O 0.79073 0.55283 0.00715 0.0
O455 O 0.76655 0.65023 0.93193 0.0
O456 O 0.80038 0.61264 0.87297 0.0
C457 C 0.76552 0.63513 0.889 0.0
O458 O 0.87942 0.6405 0.01566 0.0
O459 O 0.86622 0.66901 0.08654 0.0
C460 C 0.91092 0.61784 0.93546 0.0
C461 C 0.89442 0.65224 0.05662 0.0
Zn462 Zn 0.40834 0.82596 0.92653 0.0
Zn463 Zn 0.30802 0.80716 0.06977 0.0
Zn464 Zn 0.35795 0.80838 -0.00241 0.0
C465 C 0.38508 0.74449 0.08081 0.0
C466 C 0.25647 0.7633 0.00983 0.0
O467 O 0.34627 0.88036 0.96753 0.0
O468 O 0.40774 0.89585 0.92362 0.0
C469 C 0.46887 0.785 -0.01274 0.0
O470 O 0.40175 0.76969 0.04708 0.0
O471 O 0.34397 0.7522 0.09582 0.0
O472 O 0.24746 0.79088 0.04351 0.0
O473 O 0.29695 0.76282 -0.01048 0.0
O474 O 0.46843 0.79596 0.94413 0.0
O475 O 0.43099 0.78775 0.01201 0.0
O476 O 0.32896 0.76282 0.9445 0.0
O477 O 0.36628 0.79056 0.88248 0.0
C478 C 0.34344 0.75761 0.90182 0.0
O479 O 0.34826 0.88076 0.0208 0.0
O480 O 0.32055 0.8712 0.09253 0.0
C481 C 0.36721 0.90721 0.93743 0.0
C482 C 0.33876 0.8975 0.06169 0.0
Zn483 Zn 0.58 0.15427 0.91056 0.0
Zn484 Zn 0.67556 0.1769 0.05618 0.0
Zn485 Zn 0.6254 0.17729 -0.01335 0.0
C486 C 0.6009 0.24316 0.06861 0.0
C487 C 0.72701 0.22191 -0.00028 0.0
O488 O 0.64272 0.10463 0.96186 0.0
O489 O 0.60076 0.08969 0.89781 0.0
C490 C 0.51594 0.18757 0.97852 0.0
O491 O 0.58186 0.21796 0.03605 0.0
O492 O 0.64241 0.23405 0.08166 0.0
O493 O 0.73709 0.19192 0.03101 0.0
O494 O 0.68617 0.22317 0.98018 0.0
O495 O 0.51724 0.16811 0.93839 0.0
O496 O 0.55385 0.19599 0.00158 0.0
O497 O 0.65475 0.2239 0.93467 0.0
O498 O 0.61077 0.20459 0.87349 0.0
C499 C 0.63738 0.23382 0.89397 0.0
O500 O 0.63127 0.1044 0.01239 0.0
O501 O 0.6616 0.11447 0.08303 0.0
C502 C 0.63301 0.07815 0.92607 0.0
C503 C 0.64082 0.08833 0.05369 0.0
Zn504 Zn 0.58061 0.6518 0.79715 0.0
Zn505 Zn 0.38831 0.62459 0.9271 0.0
Zn506 Zn 0.46832 0.6711 0.86077 0.0
C507 C 0.36103 0.71032 0.8907 0.0
C508 C 0.47454 0.66317 0.97399 0.0
O509 O 0.48887 0.5977 0.85714 0.0
O510 O 0.52984 0.60288 0.79355 0.0
C511 C 0.52647 0.73236 0.77127 0.0
O512 O 0.40316 0.70731 0.8748 0.0
O513 O 0.34288 0.67598 0.91242 0.0
O514 O 0.43674 0.63972 0.97696 0.0
O515 O 0.49084 0.67775 0.93405 0.0
O516 O 0.56419 0.71045 0.76163 0.0
O517 O 0.49703 0.71635 0.80229 0.0
O518 O 0.52626 0.70052 0.90072 0.0
O519 O 0.59158 0.68678 0.85829 0.0
C520 C 0.57058 0.70554 0.89318 0.0
O521 O 0.43387 0.60312 0.83945 0.0
O522 O 0.38559 0.56572 0.88848 0.0
C523 C 0.52377 0.58302 0.83286 0.0
C524 C 0.40532 0.5689 0.84873 0.0
Zn525 Zn 0.35132 0.40669 0.92532 0.0
Zn526 Zn 0.32977 0.60144 0.79593 0.0
Zn527 Zn 0.31942 0.47995 0.86227 0.0
C528 C 0.27679 0.57954 0.89499 0.0
C529 C 0.25715 0.54061 0.77348 0.0
O530 O 0.39114 0.44945 0.84703 0.0
O531 O 0.41632 0.40138 0.90389 0.0
C532 C 0.32448 0.48793 0.97728 0.0
O533 O 0.28847 0.53665 0.90458 0.0
O534 O 0.29204 0.60081 0.85849 0.0
O535 O 0.27093 0.58199 0.76347 0.0
O536 O 0.2782 0.5155 0.80529 0.0
O537 O 0.33581 0.44506 0.98177 0.0
O538 O 0.31822 0.50649 0.9361 0.0
O539 O 0.27788 0.41709 0.86324 0.0
O540 O 0.30702 0.35768 0.9043 0.0
C541 C 0.27473 0.37474 0.87897 0.0
O542 O 0.38409 0.49233 0.82533 0.0
O543 O 0.37616 0.54962 0.77611 0.0
C544 C 0.4227 0.4217 0.86483 0.0
C545 C 0.39625 0.53376 0.81234 0.0
Zn546 Zn 0.40222 0.34402 0.80114 0.0
Zn547 Zn 0.6005 0.36824 0.92938 0.0
Zn548 Zn 0.51547 0.32122 0.86015 0.0
C549 C 0.62316 0.28278 0.8866 0.0
C550 C 0.51014 0.32599 0.97199 0.0
O551 O 0.49891 0.39402 0.8607 0.0
O552 O 0.45657 0.38907 0.79829 0.0
C553 C 0.45431 0.26671 0.76757 0.0
O554 O 0.58077 0.28868 0.87281 0.0
O555 O 0.64346 0.31473 0.91016 0.0
O556 O 0.54807 0.34947 0.97495 0.0
O557 O 0.49331 0.31161 0.93224 0.0
O558 O 0.41623 0.28883 0.76004 0.0
O559 O 0.48416 0.28061 0.79929 0.0
O560 O 0.45929 0.28608 0.89978 0.0
O561 O 0.39391 0.30067 0.85795 0.0
C562 C 0.41534 0.27924 0.89105 0.0
O563 O 0.55337 0.38935 0.84533 0.0
O564 O 0.60201 0.4292 0.89169 0.0
C565 C 0.46396 0.40911 0.83723 0.0
C566 C 0.58115 0.42474 0.85264 0.0
Zn567 Zn 0.63921 0.58369 0.91916 0.0
Zn568 Zn 0.65717 0.43077 0.79326 0.0
Zn569 Zn 0.66956 0.51819 0.86268 0.0
C570 C 0.70491 0.41605 0.88941 0.0
C571 C 0.73647 0.49358 0.77231 0.0
O572 O 0.59867 0.54463 0.84092 0.0
O573 O 0.57287 0.58967 0.89913 0.0
C574 C 0.66518 0.50966 0.97715 0.0
O575 O 0.69696 0.45891 0.90206 0.0
O576 O 0.68811 0.39919 0.8512 0.0
O577 O 0.7091 0.46096 0.7592 0.0
O578 O 0.72771 0.51948 0.80914 0.0
O579 O 0.65308 0.55237 0.98056 0.0
O580 O 0.67193 0.4908 0.93621 0.0
O581 O 0.71899 0.57533 0.85507 0.0
O582 O 0.68491 0.63157 0.89709 0.0
C583 C 0.71977 0.6168 0.87371 0.0
O584 O 0.61196 0.49681 0.81877 0.0
O585 O 0.5861 0.44104 0.77349 0.0
C586 C 0.56631 0.57051 0.85949 0.0
C587 C 0.58749 0.45878 0.81427 0.0
Zn588 Zn 0.40171 0.35187 0.06797 0.0
Zn589 Zn 0.59521 0.3291 0.19674 0.0
Zn590 Zn 0.47485 0.31677 0.12903 0.0
C591 C 0.57464 0.27824 0.09641 0.0
C592 C 0.53483 0.25073 0.2151 0.0
O593 O 0.445 0.38872 0.14689 0.0
O594 O 0.39754 0.41689 0.09101 0.0
C595 C 0.48114 0.32365 0.0144 0.0
O596 O 0.5318 0.28884 0.08631 0.0
O597 O 0.59475 0.29313 0.13363 0.0
O598 O 0.57508 0.26752 0.22473 0.0
O599 O 0.50698 0.27096 0.18502 0.0
O600 O 0.43885 0.33667 0.01061 0.0
O601 O 0.50009 0.3163 0.0552 0.0
O602 O 0.41137 0.27443 0.12416 0.0
O603 O 0.35178 0.30769 0.08689 0.0
C604 C 0.36892 0.27283 0.10859 0.0
O605 O 0.48896 0.38163 0.16631 0.0
O606 O 0.54616 0.37824 0.21597 0.0
C607 C 0.41784 0.42154 0.1303 0.0
C608 C 0.52994 0.39587 0.1786 0.0
Zn609 Zn 0.64935 0.58768 0.19313 0.0
Zn610 Zn 0.6217 0.39379 0.06556 0.0
Zn611 Zn 0.66799 0.47229 0.13307 0.0
C612 C 0.70638 0.36477 0.10471 0.0
C613 C 0.66158 0.4802 0.01951 0.0
O614 O 0.59512 0.4891 0.13758 0.0
O615 O 0.60397 0.53366 0.19808 0.0
C616 C 0.72592 0.53368 0.22453 0.0
O617 O 0.70409 0.40673 0.12163 0.0
O618 O 0.67269 0.34816 0.08089 0.0
O619 O 0.63755 0.44268 0.01598 0.0
O620 O 0.67599 0.49583 0.05982 0.0
O621 O 0.70559 0.57279 0.2323 0.0
O622 O 0.71019 0.5042 0.19313 0.0
O623 O 0.70054 0.52969 0.09251 0.0
O624 O 0.68808 0.59643 0.13342 0.0
C625 C 0.7074 0.57412 0.0996 0.0
O626 O 0.59932 0.43453 0.15188 0.0
O627 O 0.56137 0.38797 0.10151 0.0
C628 C 0.58224 0.52571 0.16021 0.0
C629 C 0.56503 0.40594 0.14213 0.0
Zn630 Zn 0.58254 0.63651 0.06929 0.0
Zn631 Zn 0.39882 0.65412 0.20596 0.0
Zn632 Zn 0.51439 0.67194 0.13042 0.0
C633 C 0.41388 0.70975 0.10601 0.0
C634 C 0.45947 0.73776 0.21878 0.0
O635 O 0.54407 0.60031 0.14958 0.0
O636 O 0.58741 0.57104 0.09126 0.0
C637 C 0.50398 0.66505 0.0162 0.0
O638 O 0.45554 0.69951 0.09167 0.0
O639 O 0.39694 0.69318 0.14412 0.0
O640 O 0.42214 0.71647 0.23106 0.0
O641 O 0.48799 0.72035 0.18754 0.0
O642 O 0.54605 0.65163 0.01181 0.0
O643 O 0.48587 0.67261 0.05736 0.0
O644 O 0.57744 0.71507 0.12555 0.0
O645 O 0.63403 0.67974 0.08559 0.0
C646 C 0.61927 0.715 0.10837 0.0
O647 O 0.49952 0.60975 0.17128 0.0
O648 O 0.44302 0.59786 0.22036 0.0
C649 C 0.56957 0.56688 0.13178 0.0
C650 C 0.45965 0.5902 0.17991 0.0
Zn651 Zn 0.36726 0.60986 0.06332 0.0
Zn652 Zn 0.33634 0.40312 0.18941 0.0
Zn653 Zn 0.32243 0.51744 0.13244 0.0
C654 C 0.27985 0.41872 0.09485 0.0
C655 C 0.26314 0.46029 0.22319 0.0
O656 O 0.39042 0.55404 0.15054 0.0
O657 O 0.42583 0.60702 0.10481 0.0
C658 C 0.32606 0.51718 0.01984 0.0
O659 O 0.28786 0.46306 0.08842 0.0
O660 O 0.29821 0.39592 0.12889 0.0
O661 O 0.28183 0.42013 0.22962 0.0
O662 O 0.27913 0.48986 0.19226 0.0
O663 O 0.34822 0.55615 0.01745 0.0
O664 O 0.31274 0.49899 0.05939 0.0
O665 O 0.29861 0.58496 0.1153 0.0
O666 O 0.31318 0.65322 0.08374 0.0
C667 C 0.28464 0.62634 0.10473 0.0
O668 O 0.39472 0.49948 0.13681 0.0
O669 O 0.3844 0.45461 0.19665 0.0
C670 C 0.42408 0.58378 0.14281 0.0
C671 C 0.40672 0.4626 0.1592 0.0
Zn672 Zn 0.92486 0.39126 0.63185 0.0
Zn673 Zn 0.79711 0.55766 0.65329 0.0
Zn674 Zn 0.86534 0.46613 0.67675 0.0
C675 C 0.89215 0.56519 0.71075 0.0
C676 C 0.77165 0.50631 0.73677 0.0
O677 O 0.84328 0.43804 0.60713 0.0
O678 O 0.89072 0.38827 0.56953 0.0
C679 C 0.97802 0.47044 0.67068 0.0
O680 O 0.9056 0.52257 0.7037 0.0
O681 O 0.85502 0.58196 0.69168 0.0
O682 O 0.75722 0.53461 0.70526 0.0
O683 O 0.80842 0.48008 0.73009 0.0
O684 O 0.98043 0.43248 0.64717 0.0
O685 O 0.93822 0.4883 0.68299 0.0
O686 O 0.86799 0.40197 0.71765 0.0
O687 O 0.90883 0.34541 0.68252 0.0
C688 C 0.88596 0.36034 0.71775 0.0
O689 O 0.83125 0.49067 0.61337 0.0
O690 O 0.78573 0.54106 0.58044 0.0
C691 C 0.85247 0.4108 0.57162 0.0
C692 C 0.82727 0.52671 0.58559 0.0
Zn693 Zn 0.58361 0.92224 0.64436 0.0
Zn694 Zn 0.43841 0.78964 0.66481 0.0
Zn695 Zn 0.52235 0.86251 0.67522 0.0
C696 C 0.42007 0.88273 0.71565 0.0
C697 C 0.51096 0.76804 0.73718 0.0
O698 O 0.54593 0.8453 0.60239 0.0
O699 O 0.58771 0.90547 0.57626 0.0
C700 C 0.50905 0.9755 0.6799 0.0
O701 O 0.46187 0.89731 0.70639 0.0
O702 O 0.4045 0.84402 0.69895 0.0
O703 O 0.47624 0.75552 0.71224 0.0
O704 O 0.53367 0.80697 0.72956 0.0
O705 O 0.55024 0.98102 0.66435 0.0
O706 O 0.49193 0.93371 0.68476 0.0
O707 O 0.58153 0.85519 0.72277 0.0
O708 O 0.63421 0.90025 0.68731 0.0
C709 C 0.62186 0.87589 0.72254 0.0
O710 O 0.49939 0.82048 0.61631 0.0
O711 O 0.44318 0.77531 0.59209 0.0
C712 C 0.56952 0.8655 0.56932 0.0
C713 C 0.46116 0.81592 0.59219 0.0
Zn714 Zn 0.19371 0.44921 0.68558 0.0
Zn715 Zn 0.07704 0.57196 0.64393 0.0
Zn716 Zn 0.13195 0.51111 0.67762 0.0
C717 C 0.11842 0.61113 0.72442 0.0
C718 C 0.02013 0.4994 0.67322 0.0
O719 O 0.15768 0.48703 0.6087 0.0
O720 O 0.1999 0.42369 0.62043 0.0
C721 C 0.22535 0.51814 0.74034 0.0
O722 O 0.14127 0.57177 0.72369 0.0
O723 O 0.09239 0.62223 0.69002 0.0
O724 O 0.01738 0.53984 0.65507 0.0
O725 O 0.06028 0.48188 0.68534 0.0
O726 O 0.24222 0.4844 0.71676 0.0
O727 O 0.18352 0.534 0.73203 0.0
O728 O 0.09334 0.45432 0.71492 0.0
O729 O 0.15699 0.41402 0.73405 0.0
C730 C 0.11386 0.42248 0.74022 0.0
O731 O 0.15339 0.53868 0.60515 0.0
O732 O 0.09519 0.5825 0.57807 0.0
C733 C 0.1724 0.44663 0.59404 0.0
C734 C 0.13638 0.56691 0.5734 0.0
Zn735 Zn 0.40222 0.07204 0.64519 0.0
Zn736 Zn 0.53004 0.18688 0.68455 0.0
Zn737 Zn 0.46812 0.12912 0.68031 0.0
C738 C 0.55303 0.11213 0.74659 0.0
C739 C 0.46868 0.23158 0.73259 0.0
O740 O 0.44757 0.14331 0.60415 0.0
O741 O 0.39365 0.09245 0.57949 0.0
C742 C 0.47834 0.01699 0.68105 0.0
O743 O 0.52209 0.09063 0.72125 0.0
O744 O 0.5611 0.15524 0.73922 0.0
O745 O 0.50091 0.2441 0.70489 0.0
O746 O 0.45132 0.18935 0.73044 0.0
O747 O 0.43963 0.01397 0.65937 0.0
O748 O 0.4945 0.05746 0.69424 0.0
O749 O 0.40537 0.14156 0.7225 0.0
O750 O 0.35412 0.09194 0.69125 0.0
C751 C 0.36673 0.11789 0.72522 0.0
O752 O 0.4987 0.14293 0.60976 0.0
O753 O 0.56229 0.18473 0.62341 0.0
C754 C 0.41861 0.12835 0.57211 0.0
C755 C 0.53854 0.15941 0.59577 0.0
Zn756 Zn 0.80508 0.45814 0.31174 0.0
Zn757 Zn 0.9188 0.58714 0.34744 0.0
Zn758 Zn 0.86224 0.52205 0.31553 0.0
C759 C 0.86916 0.62463 0.27156 0.0
C760 C 0.97583 0.5191 0.30645 0.0
O761 O 0.84964 0.48832 0.38525 0.0
O762 O 0.80219 0.42818 0.37406 0.0
C763 C 0.76106 0.51798 0.25903 0.0
O764 O 0.84712 0.58485 0.27353 0.0
O765 O 0.89348 0.638 0.3064 0.0
O766 O 0.97898 0.55871 0.32648 0.0
O767 O 0.93519 0.50031 0.29883 0.0
O768 O 0.74952 0.48289 0.28359 0.0
O769 O 0.80143 0.53844 0.26526 0.0
O770 O 0.90256 0.47011 0.27553 0.0
O771 O 0.84124 0.42471 0.26181 0.0
C772 C 0.88321 0.43589 0.253 0.0
O773 O 0.84915 0.54111 0.39245 0.0
O774 O 0.90513 0.58965 0.41589 0.0
C775 C 0.83103 0.44959 0.40009 0.0
C776 C 0.86786 0.56739 0.42485 0.0
Zn777 Zn 0.40448 0.91924 0.35104 0.0
Zn778 Zn 0.55018 0.79056 0.32499 0.0
Zn779 Zn 0.46723 0.86226 0.3205 0.0
C780 C 0.56863 0.88536 0.27939 0.0
C781 C 0.47683 0.77303 0.25222 0.0
O782 O 0.44416 0.84228 0.39206 0.0
O783 O 0.39913 0.90046 0.41773 0.0
C784 C 0.47912 0.97502 0.32364 0.0
O785 O 0.52688 0.89923 0.29007 0.0
O786 O 0.58477 0.84604 0.29406 0.0
O787 O 0.51238 0.75962 0.27552 0.0
O788 O 0.45352 0.81085 0.2631 0.0
O789 O 0.43692 0.97937 0.33654 0.0
O790 O 0.49698 0.93387 0.3163 0.0
O791 O 0.40887 0.85489 0.27132 0.0
O792 O 0.35492 0.89887 0.30654 0.0
C793 C 0.36802 0.8748 0.27136 0.0
O794 O 0.48995 0.81713 0.37807 0.0
O795 O 0.5469 0.77014 0.39635 0.0
C796 C 0.41912 0.86136 0.42468 0.0
C797 C 0.52855 0.81035 0.40117 0.0
Zn798 Zn 0.0736 0.41875 0.34472 0.0
Zn799 Zn 0.18977 0.54153 0.31021 0.0
Zn800 Zn 0.1302 0.47974 0.31256 0.0
C801 C 0.11432 0.56864 0.25065 0.0
C802 C 0.22957 0.4767 0.2584 0.0
O803 O 0.14841 0.45404 0.38674 0.0
O804 O 0.08964 0.41019 0.41196 0.0
C805 C 0.01783 0.48949 0.3068 0.0
O806 O 0.09327 0.53579 0.27387 0.0
O807 O 0.15706 0.57722 0.25882 0.0
O808 O 0.24355 0.50931 0.28515 0.0
O809 O 0.18732 0.46028 0.2618 0.0
O810 O 0.01425 0.45028 0.32747 0.0
O811 O 0.05869 0.50695 0.29761 0.0
O812 O 0.14173 0.41784 0.26819 0.0
O813 O 0.09225 0.36755 0.30087 0.0
C814 C 0.11903 0.37845 0.26705 0.0
O815 O 0.14406 0.5086 0.38391 0.0
O816 O 0.19028 0.56969 0.37396 0.0
C817 C 0.13044 0.42627 0.41828 0.0
C818 C 0.16136 0.54767 0.39939 0.0
Zn819 Zn 0.58752 0.07219 0.35599 0.0
Zn820 Zn 0.43835 0.204 0.31971 0.0
Zn821 Zn 0.52057 0.12785 0.31625 0.0
C822 C 0.42027 0.10729 0.27455 0.0
C823 C 0.51557 0.21731 0.24908 0.0
O824 O 0.54386 0.15232 0.38499 0.0
O825 O 0.59484 0.10448 0.41926 0.0
C826 C 0.5088 0.01694 0.32502 0.0
O827 O 0.46071 0.09105 0.28688 0.0
O828 O 0.40634 0.14811 0.28718 0.0
O829 O 0.48114 0.23307 0.27273 0.0
O830 O 0.53605 0.17765 0.25891 0.0
O831 O 0.54785 0.0142 0.34629 0.0
O832 O 0.49236 0.05697 0.31141 0.0
O833 O 0.57765 0.13608 0.26768 0.0
O834 O 0.62956 0.08814 0.30132 0.0
C835 C 0.6169 0.11336 0.2666 0.0
O836 O 0.49533 0.173 0.3717 0.0
O837 O 0.43875 0.21905 0.39241 0.0
C838 C 0.57146 0.14233 0.41951 0.0
C839 C 0.45792 0.17916 0.3967 0.0
Zn840 Zn 0.61882 0.92442 0.38361 0.0
Zn841 Zn 0.65146 0.80398 0.58341 0.0
Zn842 Zn 0.66836 0.85909 0.46771 0.0
C843 C 0.71176 0.89536 0.56539 0.0
C844 C 0.72671 0.76824 0.52925 0.0
O845 O 0.59867 0.84022 0.43531 0.0
O846 O 0.55926 0.88632 0.38562 0.0
C847 C 0.66226 0.97188 0.46933 0.0
O848 O 0.70312 0.90216 0.52128 0.0
O849 O 0.69272 0.8622 0.58874 0.0
O850 O 0.70596 0.76277 0.5685 0.0
O851 O 0.71196 0.79862 0.49813 0.0
O852 O 0.63733 0.97368 0.43218 0.0
O853 O 0.6775 0.93261 0.48662 0.0
O854 O 0.70044 0.87425 0.40121 0.0
O855 O 0.6698 0.90695 0.33775 0.0
C856 C 0.70438 0.88781 0.35824 0.0
O857 O 0.59631 0.86331 0.49115 0.0
O858 O 0.60235 0.80009 0.53259 0.0
C859 C 0.56287 0.84813 0.40821 0.0
C860 C 0.58232 0.83925 0.5265 0.0
Zn861 Zn 0.65591 0.20038 0.42338 0.0
Zn862 Zn 0.63808 0.07327 0.56731 0.0
Zn863 Zn 0.66649 0.12866 0.50671 0.0
C864 C 0.71653 0.12061 0.60388 0.0
C865 C 0.66503 0.01483 0.49759 0.0
O866 O 0.60872 0.17356 0.48931 0.0
O867 O 0.58527 0.22019 0.43438 0.0
C868 C 0.73749 0.21381 0.48695 0.0
O869 O 0.71762 0.13764 0.56173 0.0
O870 O 0.68146 0.09688 0.61745 0.0
O871 O 0.65578 0.01147 0.54092 0.0
O872 O 0.66823 0.05573 0.4779 0.0
O873 O 0.71041 0.2299 0.45526 0.0
O874 O 0.72676 0.17695 0.5117 0.0
O875 O 0.69185 0.09135 0.44615 0.0
O876 O 0.68433 0.14411 0.38793 0.0
C877 C 0.70053 0.10534 0.40392 0.0
O878 O 0.59947 0.15267 0.53914 0.0
O879 O 0.56973 0.08877 0.57084 0.0
C880 C 0.58192 0.18009 0.4533 0.0
C881 C 0.56609 0.13215 0.5618 0.0
Zn882 Zn 0.92568 0.63264 0.60456 0.0
Zn883 Zn 0.80779 0.67115 0.46843 0.0
Zn884 Zn 0.86487 0.67627 0.53375 0.0
C885 C 0.88759 0.72991 0.44264 0.0
C886 C 0.76238 0.73284 0.51645 0.0
O887 O 0.85153 0.60099 0.55495 0.0
O888 O 0.89836 0.5665 0.60717 0.0
C889 C 0.97804 0.67995 0.52986 0.0
O890 O 0.90544 0.71599 0.48191 0.0
O891 O 0.84818 0.71417 0.42946 0.0
O892 O 0.75229 0.70654 0.48218 0.0
O893 O 0.80101 0.72619 0.5401 0.0
O894 O 0.98086 0.65106 0.56391 0.0
O895 O 0.93769 0.69441 0.51464 0.0
O896 O 0.85361 0.71353 0.59914 0.0
O897 O 0.90611 0.6841 0.64902 0.0
C898 C 0.87862 0.71716 0.63687 0.0
O899 O 0.86044 0.60572 0.49838 0.0
O900 O 0.80108 0.60484 0.44881 0.0
C901 C 0.86226 0.56513 0.58136 0.0
C902 C 0.83877 0.58647 0.46319 0.0
Zn903 Zn 0.33491 0.80867 0.40602 0.0
Zn904 Zn 0.37173 0.93125 0.6021 0.0
Zn905 Zn 0.32331 0.8653 0.5224 0.0
C906 C 0.28312 0.88543 0.62534 0.0
C907 C 0.33636 0.97727 0.51464 0.0
O908 O 0.39543 0.85846 0.50291 0.0
O909 O 0.38119 0.79859 0.45908 0.0
C910 C 0.26272 0.77575 0.46165 0.0
O911 O 0.29088 0.85851 0.58982 0.0
O912 O 0.31242 0.91684 0.63731 0.0
O913 O 0.36294 0.97923 0.55055 0.0
O914 O 0.31655 0.93869 0.5011 0.0
O915 O 0.2797 0.76868 0.42083 0.0
O916 O 0.28075 0.8067 0.49007 0.0
O917 O 0.28415 0.91015 0.47118 0.0
O918 O 0.29183 0.86658 0.40574 0.0
C919 C 0.273 0.90073 0.42794 0.0
O920 O 0.39236 0.8479 0.55753 0.0
O921 O 0.43028 0.89193 0.60992 0.0
C922 C 0.40609 0.83441 0.46651 0.0
C923 C 0.42723 0.8544 0.58623 0.0
Zn924 Zn 0.1879 0.30608 0.45268 0.0
Zn925 Zn 0.07928 0.34475 0.5835 0.0
Zn926 Zn 0.1315 0.31077 0.51729 0.0
C927 C 0.12456 0.26396 0.61771 0.0
C928 C 0.0189 0.31062 0.5136 0.0
O929 O 0.14494 0.38169 0.48734 0.0
O930 O 0.1879 0.36992 0.42409 0.0
C931 C 0.23112 0.25524 0.51698 0.0
O932 O 0.14695 0.26677 0.57818 0.0
O933 O 0.09989 0.29837 0.63158 0.0
O934 O 0.01811 0.33209 0.55263 0.0
O935 O 0.05831 0.2979 0.49485 0.0
O936 O 0.24307 0.27962 0.48179 0.0
O937 O 0.18991 0.26021 0.53582 0.0
O938 O 0.09006 0.27163 0.4637 0.0
O939 O 0.15187 0.25535 0.41974 0.0
C940 C 0.10939 0.24783 0.43007 0.0
O941 O 0.15208 0.38464 0.54049 0.0
O942 O 0.10017 0.41002 0.59271 0.0
C943 C 0.16108 0.39654 0.44752 0.0
C944 C 0.13815 0.41605 0.57068 0.0
Zn945 Zn 0.36694 0.06427 0.39366 0.0
Zn946 Zn 0.33958 0.18948 0.59029 0.0
Zn947 Zn 0.32476 0.13011 0.47663 0.0
C948 C 0.27889 0.0967 0.57491 0.0
C949 C 0.2663 0.22203 0.53473 0.0
O950 O 0.39236 0.14859 0.43849 0.0
O951 O 0.4257 0.10292 0.38413 0.0
C952 C 0.33546 0.01855 0.48414 0.0
O953 O 0.28906 0.08741 0.53145 0.0
O954 O 0.29748 0.13123 0.59671 0.0
O955 O 0.285 0.23056 0.57449 0.0
O956 O 0.28304 0.18989 0.50692 0.0
O957 O 0.35807 0.0159 0.4456 0.0
O958 O 0.319 0.05782 0.50005 0.0
O959 O 0.2858 0.12589 0.41355 0.0
O960 O 0.30939 0.07956 0.35542 0.0
C961 C 0.2792 0.10734 0.37293 0.0
O962 O 0.39809 0.13442 0.4927 0.0
O963 O 0.38691 0.19436 0.53719 0.0
C964 C 0.42506 0.14081 0.40754 0.0
C965 C 0.40938 0.15676 0.53002 0.0
Zn966 Zn 0.91715 0.34661 0.41899 0.0
Zn967 Zn 0.7932 0.32519 0.56847 0.0
Zn968 Zn 0.86146 0.31475 0.4797 0.0
C969 C 0.88877 0.27785 0.58037 0.0
C970 C 0.7732 0.247 0.50278 0.0
O971 O 0.8385 0.38432 0.45198 0.0
O972 O 0.90186 0.4156 0.42098 0.0
C973 C 0.97571 0.31128 0.48565 0.0
O974 O 0.90047 0.28717 0.53763 0.0
O975 O 0.85125 0.29417 0.5988 0.0
O976 O 0.7601 0.27314 0.53657 0.0
O977 O 0.8092 0.25722 0.47675 0.0
O978 O 0.97872 0.32461 0.44334 0.0
O979 O 0.93514 0.30851 0.50581 0.0
O980 O 0.85456 0.26737 0.42019 0.0
O981 O 0.8929 0.30751 0.36566 0.0
C982 C 0.87154 0.27049 0.37814 0.0
O983 O 0.81889 0.37339 0.50247 0.0
O984 O 0.77465 0.39663 0.55939 0.0
C985 C 0.85884 0.41909 0.43118 0.0
C986 C 0.81381 0.40014 0.53897 0.0
Zn987 Zn 0.0732 0.65079 0.42403 0.0
Zn988 Zn 0.19199 0.68902 0.54685 0.0
Zn989 Zn 0.13148 0.68447 0.48376 0.0
C990 C 0.11547 0.74676 0.57389 0.0
C991 C 0.22924 0.74128 0.47978 0.0
O992 O 0.1492 0.61046 0.45507 0.0
O993 O 0.08994 0.58437 0.41206 0.0
C994 C 0.01914 0.68342 0.49905 0.0
O995 O 0.09462 0.72231 0.5416 0.0
O996 O 0.15845 0.73971 0.58229 0.0
O997 O 0.244 0.71521 0.51265 0.0
O998 O 0.18688 0.73694 0.46364 0.0
O999 O 0.01508 0.66431 0.45907 0.0
O1000 O 0.06014 0.69466 0.5152 0.0
O1001 O 0.13959 0.73029 0.42235 0.0
O1002 O 0.08876 0.69671 0.37383 0.0
C1003 C 0.11587 0.73061 0.38349 0.0
O1004 O 0.15259 0.61377 0.50697 0.0
O1005 O 0.19256 0.62403 0.57238 0.0
C1006 C 0.13097 0.57851 0.42773 0.0
C1007 C 0.16783 0.59761 0.54661 0.0
loop_
_geom_bond_atom_site_label_1
_geom_bond_atom_site_label_2
_geom_bond_distance
_geom_bond_site_symmetry_2
_ccdc_geom_bond_type
Zn0 O6 1.920 . S
Zn0 O12 1.898 . S
Zn0 O15 1.905 . S
Zn1 O9 1.905 . S
Zn1 O10 1.898 . S
Zn1 O18 1.920 . S
Zn2 O5 2.080 . S
Zn2 O8 2.114 1_455 S
Zn2 O11 2.120 . S
Zn2 O13 2.120 . S
Zn2 O14 2.114 . S
Zn2 O17 2.080 1_455 S
C3 O8 1.166 . S
C3 O9 1.182 . S
C4 O10 1.167 . S
C4 O11 1.299 1_655 S
O5 Zn2 2.080 . S
O5 C19 1.305 . S
O6 Zn0 1.920 . S
O6 C19 1.234 . S
C7 O12 1.167 . S
C7 O13 1.299 . S
O8 Zn2 2.114 1_655 S
O8 C3 1.166 . S
O9 Zn1 1.905 . S
O9 C3 1.182 . S
O10 Zn1 1.898 . S
O10 C4 1.167 . S
O11 Zn2 2.120 . S
O11 C4 1.299 1_455 S
O12 Zn0 1.898 . S
O12 C7 1.167 . S
O13 Zn2 2.120 . S
O13 C7 1.299 . S
O14 Zn2 2.114 . S
O14 C16 1.166 . S
O15 Zn0 1.905 . S
O15 C16 1.182 . S
C16 O14 1.166 . S
C16 O15 1.182 . S
O17 Zn2 2.080 1_655 S
O17 C20 1.305 . S
O18 Zn1 1.920 . S
O18 C20 1.234 . S
C19 O5 1.305 . S
C19 O6 1.234 . S
C20 O17 1.305 . S
C20 O18 1.234 . S
Zn21 O27 1.920 . S
Zn21 O33 1.898 . S
Zn21 O36 1.905 . S
Zn22 O30 1.905 . S
Zn22 O31 1.898 . S
Zn22 O39 1.920 . S
Zn23 O26 2.080 . S
Zn23 O29 2.114 1_545 S
Zn23 O32 2.120 . S
Zn23 O34 2.120 . S
Zn23 O35 2.114 . S
Zn23 O38 2.080 1_545 S
C24 O29 1.166 . S
C24 O30 1.182 . S
C25 O31 1.167 . S
C25 O32 1.299 1_565 S
O26 Zn23 2.080 . S
O26 C40 1.305 . S
O27 Zn21 1.920 . S
O27 C40 1.234 . S
C28 O33 1.167 . S
C28 O34 1.299 . S
O29 Zn23 2.114 1_565 S
O29 C24 1.166 . S
O30 Zn22 1.905 . S
O30 C24 1.182 . S
O31 Zn22 1.898 . S
O31 C25 1.167 . S
O32 Zn23 2.120 . S
O32 C25 1.299 1_545 S
O33 Zn21 1.898 . S
O33 C28 1.167 . S
O34 Zn23 2.120 . S
O34 C28 1.299 . S
O35 Zn23 2.114 . S
O35 C37 1.166 . S
O36 Zn21 1.905 . S
O36 C37 1.182 . S
C37 O35 1.166 . S
C37 O36 1.182 . S
O38 Zn23 2.080 1_565 S
O38 C41 1.305 . S
O39 Zn22 1.920 . S
O39 C41 1.234 . S
C40 O26 1.305 . S
C40 O27 1.234 . S
C41 O38 1.305 . S
C41 O39 1.234 . S
Zn42 O48 1.920 . S
Zn42 O54 1.898 . S
Zn42 O57 1.905 . S
Zn43 O51 1.905 . S
Zn43 O52 1.898 . S
Zn43 O60 1.920 . S
Zn44 O47 2.080 1_455 S
Zn44 O50 2.114 . S
Zn44 O53 2.120 . S
Zn44 O55 2.120 . S
Zn44 O56 2.114 1_455 S
Zn44 O59 2.080 . S
C45 O50 1.166 . S
C45 O51 1.182 . S
C46 O52 1.167 . S
C46 O53 1.299 . S
O47 Zn44 2.080 1_655 S
O47 C61 1.305 . S
O48 Zn42 1.920 . S
O48 C61 1.234 . S
C49 O54 1.167 . S
C49 O55 1.299 1_655 S
O50 Zn44 2.114 . S
O50 C45 1.166 . S
O51 Zn43 1.905 . S
O51 C45 1.182 . S
O52 Zn43 1.898 . S
O52 C46 1.167 . S
O53 Zn44 2.120 . S
O53 C46 1.299 . S
O54 Zn42 1.898 . S
O54 C49 1.167 . S
O55 Zn44 2.120 . S
O55 C49 1.299 1_455 S
O56 Zn44 2.114 1_655 S
O56 C58 1.166 . S
O57 Zn42 1.905 . S
O57 C58 1.182 . S
C58 O56 1.166 . S
C58 O57 1.182 . S
O59 Zn44 2.080 . S
O59 C62 1.305 . S
O60 Zn43 1.920 . S
O60 C62 1.234 . S
C61 O47 1.305 . S
C61 O48 1.234 . S
C62 O59 1.305 . S
C62 O60 1.234 . S
Zn63 O69 1.920 . S
Zn63 O75 1.898 . S
Zn63 O78 1.905 . S
Zn64 O72 1.905 . S
Zn64 O73 1.898 . S
Zn64 O81 1.920 . S
Zn65 O68 2.080 1_545 S
Zn65 O71 2.114 . S
Zn65 O74 2.120 . S
Zn65 O76 2.120 . S
Zn65 O77 2.114 1_545 S
Zn65 O80 2.080 . S
C66 O71 1.166 . S
C66 O72 1.182 . S
C67 O73 1.167 . S
C67 O74 1.299 . S
O68 Zn65 2.080 1_565 S
O68 C82 1.305 . S
O69 Zn63 1.920 . S
O69 C82 1.234 . S
C70 O75 1.167 . S
C70 O76 1.299 1_565 S
O71 Zn65 2.114 . S
O71 C66 1.166 . S
O72 Zn64 1.905 . S
O72 C66 1.182 . S
O73 Zn64 1.898 . S
O73 C67 1.167 . S
O74 Zn65 2.120 . S
O74 C67 1.299 . S
O75 Zn63 1.898 . S
O75 C70 1.167 . S
O76 Zn65 2.120 . S
O76 C70 1.299 1_545 S
O77 Zn65 2.114 1_565 S
O77 C79 1.166 . S
O78 Zn63 1.905 . S
O78 C79 1.182 . S
C79 O77 1.166 . S
C79 O78 1.182 . S
O80 Zn65 2.080 . S
O80 C83 1.305 . S
O81 Zn64 1.920 . S
O81 C83 1.234 . S
C82 O68 1.305 . S
C82 O69 1.234 . S
C83 O80 1.305 . S
C83 O81 1.234 . S
Zn84 O90 1.920 . S
Zn84 O96 1.898 . S
Zn84 O99 1.905 . S
Zn85 O93 1.905 . S
Zn85 O94 1.898 . S
Zn85 O102 1.920 . S
Zn86 O89 2.080 . S
Zn86 O92 2.114 1_455 S
Zn86 O95 2.120 . S
Zn86 O97 2.120 . S
Zn86 O98 2.114 . S
Zn86 O101 2.080 1_455 S
C87 O92 1.166 . S
C87 O93 1.182 . S
C88 O94 1.167 . S
C88 O95 1.299 1_655 S
O89 Zn86 2.080 . S
O89 C103 1.305 . S
O90 Zn84 1.920 . S
O90 C103 1.234 . S
C91 O96 1.167 . S
C91 O97 1.299 . S
O92 Zn86 2.114 1_655 S
O92 C87 1.166 . S
O93 Zn85 1.905 . S
O93 C87 1.182 . S
O94 Zn85 1.898 . S
O94 C88 1.167 . S
O95 Zn86 2.120 . S
O95 C88 1.299 1_455 S
O96 Zn84 1.898 . S
O96 C91 1.167 . S
O97 Zn86 2.120 . S
O97 C91 1.299 . S
O98 Zn86 2.114 . S
O98 C100 1.166 . S
O99 Zn84 1.905 . S
O99 C100 1.182 . S
C100 O98 1.166 . S
C100 O99 1.182 . S
O101 Zn86 2.080 1_655 S
O101 C104 1.305 . S
O102 Zn85 1.920 . S
O102 C104 1.234 . S
C103 O89 1.305 . S
C103 O90 1.234 . S
C104 O101 1.305 . S
C104 O102 1.234 . S
Zn105 O111 1.920 . S
Zn105 O117 1.898 . S
Zn105 O120 1.905 . S
Zn106 O114 1.905 . S
Zn106 O115 1.898 . S
Zn106 O123 1.920 . S
Zn107 O110 2.080 . S
Zn107 O113 2.114 1_545 S
Zn107 O116 2.120 . S
Zn107 O118 2.120 . S
Zn107 O119 2.114 . S
Zn107 O122 2.080 1_545 S
C108 O113 1.166 . S
C108 O114 1.182 . S
C109 O115 1.167 . S
C109 O116 1.299 1_565 S
O110 Zn107 2.080 . S
O110 C124 1.305 . S
O111 Zn105 1.920 . S
O111 C124 1.234 . S
C112 O117 1.167 . S
C112 O118 1.299 . S
O113 Zn107 2.114 1_565 S
O113 C108 1.166 . S
O114 Zn106 1.905 . S
O114 C108 1.182 . S
O115 Zn106 1.898 . S
O115 C109 1.167 . S
O116 Zn107 2.120 . S
O116 C109 1.299 1_545 S
O117 Zn105 1.898 . S
O117 C112 1.167 . S
O118 Zn107 2.120 . S
O118 C112 1.299 . S
O119 Zn107 2.114 . S
O119 C121 1.166 . S
O120 Zn105 1.905 . S
O120 C121 1.182 . S
C121 O119 1.166 . S
C121 O120 1.182 . S
O122 Zn107 2.080 1_565 S
O122 C125 1.305 . S
O123 Zn106 1.920 . S
O123 C125 1.234 . S
C124 O110 1.305 . S
C124 O111 1.234 . S
C125 O122 1.305 . S
C125 O123 1.234 . S
Zn126 O132 1.920 . S
Zn126 O138 1.898 . S
Zn126 O141 1.905 . S
Zn127 O135 1.905 . S
Zn127 O136 1.898 . S
Zn127 O144 1.920 . S
Zn128 O131 2.080 1_455 S
Zn128 O134 2.114 . S
Zn128 O137 2.120 . S
Zn128 O139 2.120 . S
Zn128 O140 2.114 1_455 S
Zn128 O143 2.080 . S
C129 O134 1.166 . S
C129 O135 1.182 . S
C130 O136 1.167 . S
C130 O137 1.299 . S
O131 Zn128 2.080 1_655 S
O131 C145 1.305 . S
O132 Zn126 1.920 . S
O132 C145 1.234 . S
C133 O138 1.167 . S
C133 O139 1.299 1_655 S
O134 Zn128 2.114 . S
O134 C129 1.166 . S
O135 Zn127 1.905 . S
O135 C129 1.182 . S
O136 Zn127 1.898 . S
O136 C130 1.167 . S
O137 Zn128 2.120 . S
O137 C130 1.299 . S
O138 Zn126 1.898 . S
O138 C133 1.167 . S
O139 Zn128 2.120 . S
O139 C133 1.299 1_455 S
O140 Zn128 2.114 1_655 S
O140 C142 1.166 . S
O141 Zn126 1.905 . S
O141 C142 1.182 . S
C142 O140 1.166 . S
C142 O141 1.182 . S
O143 Zn128 2.080 . S
O143 C146 1.305 . S
O144 Zn127 1.920 . S
O144 C146 1.234 . S
C145 O131 1.305 . S
C145 O132 1.234 . S
C146 O143 1.305 . S
C146 O144 1.234 . S
Zn147 O153 1.920 . S
Zn147 O159 1.898 . S
Zn147 O162 1.905 . S
Zn148 O156 1.905 . S
Zn148 O157 1.898 . S
Zn148 O165 1.920 . S
Zn149 O152 2.080 . S
Zn149 O155 2.114 1_545 S
Zn149 O158 2.120 . S
Zn149 O160 2.120 . S
Zn149 O161 2.114 . S
Zn149 O164 2.080 1_545 S
C150 O155 1.166 . S
C150 O156 1.182 . S
C151 O157 1.167 . S
C151 O158 1.299 1_565 S
O152 Zn149 2.080 . S
O152 C166 1.305 . S
O153 Zn147 1.920 . S
O153 C166 1.234 . S
C154 O159 1.167 . S
C154 O160 1.299 . S
O155 Zn149 2.114 1_565 S
O155 C150 1.166 . S
O156 Zn148 1.905 . S
O156 C150 1.182 . S
O157 Zn148 1.898 . S
O157 C151 1.167 . S
O158 Zn149 2.120 . S
O158 C151 1.299 1_545 S
O159 Zn147 1.898 . S
O159 C154 1.167 . S
O160 Zn149 2.120 . S
O160 C154 1.299 . S
O161 Zn149 2.114 . S
O161 C163 1.166 . S
O162 Zn147 1.905 . S
O162 C163 1.182 . S
C163 O161 1.166 . S
C163 O162 1.182 . S
O164 Zn149 2.080 1_565 S
O164 C167 1.305 . S
O165 Zn148 1.920 . S
O165 C167 1.234 . S
C166 O152 1.305 . S
C166 O153 1.234 . S
C167 O164 1.305 . S
C167 O165 1.234 . S
Zn168 O174 1.920 . S
Zn168 O180 1.898 . S
Zn168 O183 1.905 . S
Zn169 O177 1.905 . S
Zn169 O178 1.898 . S
Zn169 O186 1.920 . S
Zn170 O173 2.080 . S
Zn170 O176 2.114 1_545 S
Zn170 O179 2.120 . S
Zn170 O181 2.120 . S
Zn170 O182 2.114 . S
Zn170 O185 2.080 1_545 S
C171 O176 1.166 . S
C171 O177 1.182 . S
C172 O178 1.167 . S
C172 O179 1.299 1_565 S
O173 Zn170 2.080 . S
O173 C187 1.305 . S
O174 Zn168 1.920 . S
O174 C187 1.234 . S
C175 O180 1.167 . S
C175 O181 1.299 . S
O176 Zn170 2.114 1_565 S
O176 C171 1.166 . S
O177 Zn169 1.905 . S
O177 C171 1.182 . S
O178 Zn169 1.898 . S
O178 C172 1.167 . S
O179 Zn170 2.120 . S
O179 C172 1.299 1_545 S
O180 Zn168 1.898 . S
O180 C175 1.167 . S
O181 Zn170 2.120 . S
O181 C175 1.299 . S
O182 Zn170 2.114 . S
O182 C184 1.166 . S
O183 Zn168 1.905 . S
O183 C184 1.182 . S
C184 O182 1.166 . S
C184 O183 1.182 . S
O185 Zn170 2.080 1_565 S
O185 C188 1.305 . S
O186 Zn169 1.920 . S
O186 C188 1.234 . S
C187 O173 1.305 . S
C187 O174 1.234 . S
C188 O185 1.305 . S
C188 O186 1.234 . S
Zn189 O195 1.920 . S
Zn189 O201 1.898 . S
Zn189 O204 1.905 . S
Zn190 O198 1.905 . S
Zn190 O199 1.898 . S
Zn190 O207 1.920 . S
Zn191 O194 2.080 1_455 S
Zn191 O197 2.114 . S
Zn191 O200 2.120 . S
Zn191 O202 2.120 . S
Zn191 O203 2.114 1_455 S
Zn191 O206 2.080 . S
C192 O197 1.166 . S
C192 O198 1.182 . S
C193 O199 1.167 . S
C193 O200 1.299 . S
O194 Zn191 2.080 1_655 S
O194 C208 1.305 . S
O195 Zn189 1.920 . S
O195 C208 1.234 . S
C196 O201 1.167 . S
C196 O202 1.299 1_655 S
O197 Zn191 2.114 . S
O197 C192 1.166 . S
O198 Zn190 1.905 . S
O198 C192 1.182 . S
O199 Zn190 1.898 . S
O199 C193 1.167 . S
O200 Zn191 2.120 . S
O200 C193 1.299 . S
O201 Zn189 1.898 . S
O201 C196 1.167 . S
O202 Zn191 2.120 . S
O202 C196 1.299 1_455 S
O203 Zn191 2.114 1_655 S
O203 C205 1.166 . S
O204 Zn189 1.905 . S
O204 C205 1.182 . S
C205 O203 1.166 . S
C205 O204 1.182 . S
O206 Zn191 2.080 . S
O206 C209 1.305 . S
O207 Zn190 1.920 . S
O207 C209 1.234 . S
C208 O194 1.305 . S
C208 O195 1.234 . S
C209 O206 1.305 . S
C209 O207 1.234 . S
Zn210 O216 1.920 . S
Zn210 O222 1.898 . S
Zn210 O225 1.905 . S
Zn211 O219 1.905 . S
Zn211 O220 1.898 . S
Zn211 O228 1.920 . S
Zn212 O215 2.080 . S
Zn212 O218 2.114 1_545 S
Zn212 O221 2.120 . S
Zn212 O223 2.120 . S
Zn212 O224 2.114 . S
Zn212 O227 2.080 1_545 S
C213 O218 1.166 . S
C213 O219 1.182 . S
C214 O220 1.167 . S
C214 O221 1.299 1_565 S
O215 Zn212 2.080 . S
O215 C229 1.305 . S
O216 Zn210 1.920 . S
O216 C229 1.234 . S
C217 O222 1.167 . S
C217 O223 1.299 . S
O218 Zn212 2.114 1_565 S
O218 C213 1.166 . S
O219 Zn211 1.905 . S
O219 C213 1.182 . S
O220 Zn211 1.898 . S
O220 C214 1.167 . S
O221 Zn212 2.120 . S
O221 C214 1.299 1_545 S
O222 Zn210 1.898 . S
O222 C217 1.167 . S
O223 Zn212 2.120 . S
O223 C217 1.299 . S
O224 Zn212 2.114 . S
O224 C226 1.166 . S
O225 Zn210 1.905 . S
O225 C226 1.182 . S
C226 O224 1.166 . S
C226 O225 1.182 . S
O227 Zn212 2.080 1_565 S
O227 C230 1.305 . S
O228 Zn211 1.920 . S
O228 C230 1.234 . S
C229 O215 1.305 . S
C229 O216 1.234 . S
C230 O227 1.305 . S
C230 O228 1.234 . S
Zn231 O237 1.920 . S
Zn231 O243 1.898 . S
Zn231 O246 1.905 . S
Zn232 O240 1.905 . S
Zn232 O241 1.898 . S
Zn232 O249 1.920 . S
Zn233 O236 2.080 . S
Zn233 O239 2.114 1_455 S
Zn233 O242 2.120 . S
Zn233 O244 2.120 . S
Zn233 O245 2.114 . S
Zn233 O248 2.080 1_455 S
C234 O239 1.166 . S
C234 O240 1.182 . S
C235 O241 1.167 . S
C235 O242 1.299 1_655 S
O236 Zn233 2.080 . S
O236 C250 1.305 . S
O237 Zn231 1.920 . S
O237 C250 1.234 . S
C238 O243 1.167 . S
C238 O244 1.299 . S
O239 Zn233 2.114 1_655 S
O239 C234 1.166 . S
O240 Zn232 1.905 . S
O240 C234 1.182 . S
O241 Zn232 1.898 . S
O241 C235 1.167 . S
O242 Zn233 2.120 . S
O242 C235 1.299 1_455 S
O243 Zn231 1.898 . S
O243 C238 1.167 . S
O244 Zn233 2.120 . S
O244 C238 1.299 . S
O245 Zn233 2.114 . S
O245 C247 1.166 . S
O246 Zn231 1.905 . S
O246 C247 1.182 . S
C247 O245 1.166 . S
C247 O246 1.182 . S
O248 Zn233 2.080 1_655 S
O248 C251 1.305 . S
O249 Zn232 1.920 . S
O249 C251 1.234 . S
C250 O236 1.305 . S
C250 O237 1.234 . S
C251 O248 1.305 . S
C251 O249 1.234 . S
Zn252 O258 1.920 . S
Zn252 O264 1.898 . S
Zn252 O267 1.905 . S
Zn253 O261 1.905 . S
Zn253 O262 1.898 . S
Zn253 O270 1.920 . S
Zn254 O257 2.080 1_545 S
Zn254 O260 2.114 . S
Zn254 O263 2.120 . S
Zn254 O265 2.120 . S
Zn254 O266 2.114 1_545 S
Zn254 O269 2.080 . S
C255 O260 1.166 . S
C255 O261 1.182 . S
C256 O262 1.167 . S
C256 O263 1.299 . S
O257 Zn254 2.080 1_565 S
O257 C271 1.305 . S
O258 Zn252 1.920 . S
O258 C271 1.234 . S
C259 O264 1.167 . S
C259 O265 1.299 1_565 S
O260 Zn254 2.114 . S
O260 C255 1.166 . S
O261 Zn253 1.905 . S
O261 C255 1.182 . S
O262 Zn253 1.898 . S
O262 C256 1.167 . S
O263 Zn254 2.120 . S
O263 C256 1.299 . S
O264 Zn252 1.898 . S
O264 C259 1.167 . S
O265 Zn254 2.120 . S
O265 C259 1.299 1_545 S
O266 Zn254 2.114 1_565 S
O266 C268 1.166 . S
O267 Zn252 1.905 . S
O267 C268 1.182 . S
C268 O266 1.166 . S
C268 O267 1.182 . S
O269 Zn254 2.080 . S
O269 C272 1.305 . S
O270 Zn253 1.920 . S
O270 C272 1.234 . S
C271 O257 1.305 . S
C271 O258 1.234 . S
C272 O269 1.305 . S
C272 O270 1.234 . S
Zn273 O279 1.920 . S
Zn273 O285 1.898 . S
Zn273 O288 1.905 . S
Zn274 O282 1.905 . S
Zn274 O283 1.898 . S
Zn274 O291 1.920 . S
Zn275 O278 2.080 1_455 S
Zn275 O281 2.114 . S
Zn275 O284 2.120 . S
Zn275 O286 2.120 . S
Zn275 O287 2.114 1_455 S
Zn275 O290 2.080 . S
C276 O281 1.166 . S
C276 O282 1.182 . S
C277 O283 1.167 . S
C277 O284 1.299 . S
O278 Zn275 2.080 1_655 S
O278 C292 1.305 . S
O279 Zn273 1.920 . S
O279 C292 1.234 . S
C280 O285 1.167 . S
C280 O286 1.299 1_655 S
O281 Zn275 2.114 . S
O281 C276 1.166 . S
O282 Zn274 1.905 . S
O282 C276 1.182 . S
O283 Zn274 1.898 . S
O283 C277 1.167 . S
O284 Zn275 2.120 . S
O284 C277 1.299 . S
O285 Zn273 1.898 . S
O285 C280 1.167 . S
O286 Zn275 2.120 . S
O286 C280 1.299 1_455 S
O287 Zn275 2.114 1_655 S
O287 C289 1.166 . S
O288 Zn273 1.905 . S
O288 C289 1.182 . S
C289 O287 1.166 . S
C289 O288 1.182 . S
O290 Zn275 2.080 . S
O290 C293 1.305 . S
O291 Zn274 1.920 . S
O291 C293 1.234 . S
C292 O278 1.305 . S
C292 O279 1.234 . S
C293 O290 1.305 . S
C293 O291 1.234 . S
Zn294 O300 1.920 . S
Zn294 O306 1.898 . S
Zn294 O309 1.905 . S
Zn295 O303 1.905 . S
Zn295 O304 1.898 . S
Zn295 O312 1.920 . S
Zn296 O299 2.080 1_545 S
Zn296 O302 2.114 . S
Zn296 O305 2.120 . S
Zn296 O307 2.120 . S
Zn296 O308 2.114 1_545 S
Zn296 O311 2.080 . S
C297 O302 1.166 . S
C297 O303 1.182 . S
C298 O304 1.167 . S
C298 O305 1.299 . S
O299 Zn296 2.080 1_565 S
O299 C313 1.305 . S
O300 Zn294 1.920 . S
O300 C313 1.234 . S
C301 O306 1.167 . S
C301 O307 1.299 1_565 S
O302 Zn296 2.114 . S
O302 C297 1.166 . S
O303 Zn295 1.905 . S
O303 C297 1.182 . S
O304 Zn295 1.898 . S
O304 C298 1.167 . S
O305 Zn296 2.120 . S
O305 C298 1.299 . S
O306 Zn294 1.898 . S
O306 C301 1.167 . S
O307 Zn296 2.120 . S
O307 C301 1.299 1_545 S
O308 Zn296 2.114 1_565 S
O308 C310 1.166 . S
O309 Zn294 1.905 . S
O309 C310 1.182 . S
C310 O308 1.166 . S
C310 O309 1.182 . S
O311 Zn296 2.080 . S
O311 C314 1.305 . S
O312 Zn295 1.920 . S
O312 C314 1.234 . S
C313 O299 1.305 . S
C313 O300 1.234 . S
C314 O311 1.305 . S
C314 O312 1.234 . S
Zn315 O321 1.920 . S
Zn315 O327 1.898 . S
Zn315 O330 1.905 . S
Zn316 O324 1.905 . S
Zn316 O325 1.898 . S
Zn316 O333 1.920 . S
Zn317 O320 2.080 . S
Zn317 O323 2.114 1_455 S
Zn317 O326 2.120 . S
Zn317 O328 2.120 . S
Zn317 O329 2.114 . S
Zn317 O332 2.080 1_455 S
C318 O323 1.166 . S
C318 O324 1.182 . S
C319 O325 1.167 . S
C319 O326 1.299 1_655 S
O320 Zn317 2.080 . S
O320 C334 1.305 . S
O321 Zn315 1.920 . S
O321 C334 1.234 . S
C322 O327 1.167 . S
C322 O328 1.299 . S
O323 Zn317 2.114 1_655 S
O323 C318 1.166 . S
O324 Zn316 1.905 . S
O324 C318 1.182 . S
O325 Zn316 1.898 . S
O325 C319 1.167 . S
O326 Zn317 2.120 . S
O326 C319 1.299 1_455 S
O327 Zn315 1.898 . S
O327 C322 1.167 . S
O328 Zn317 2.120 . S
O328 C322 1.299 . S
O329 Zn317 2.114 . S
O329 C331 1.166 . S
O330 Zn315 1.905 . S
O330 C331 1.182 . S
C331 O329 1.166 . S
C331 O330 1.182 . S
O332 Zn317 2.080 1_655 S
O332 C335 1.305 . S
O333 Zn316 1.920 . S
O333 C335 1.234 . S
C334 O320 1.305 . S
C334 O321 1.234 . S
C335 O332 1.305 . S
C335 O333 1.234 . S
Zn336 O342 1.920 . S
Zn336 O348 1.898 . S
Zn336 O351 1.905 . S
Zn337 O345 1.905 . S
Zn337 O346 1.898 . S
Zn337 O354 1.920 . S
Zn338 O341 2.080 1_554 S
Zn338 O344 2.114 . S
Zn338 O347 2.120 . S
Zn338 O349 2.120 . S
Zn338 O350 2.114 1_554 S
Zn338 O353 2.080 . S
C339 O344 1.166 . S
C339 O345 1.182 . S
C340 O346 1.167 . S
C340 O347 1.299 . S
O341 Zn338 2.080 1_556 S
O341 C355 1.305 . S
O342 Zn336 1.920 . S
O342 C355 1.234 . S
C343 O348 1.167 . S
C343 O349 1.299 1_556 S
O344 Zn338 2.114 . S
O344 C339 1.166 . S
O345 Zn337 1.905 . S
O345 C339 1.182 . S
O346 Zn337 1.898 . S
O346 C340 1.167 . S
O347 Zn338 2.120 . S
O347 C340 1.299 . S
O348 Zn336 1.898 . S
O348 C343 1.167 . S
O349 Zn338 2.120 . S
O349 C343 1.299 1_554 S
O350 Zn338 2.114 1_556 S
O350 C352 1.166 . S
O351 Zn336 1.905 . S
O351 C352 1.182 . S
C352 O350 1.166 . S
C352 O351 1.182 . S
O353 Zn338 2.080 . S
O353 C356 1.305 . S
O354 Zn337 1.920 . S
O354 C356 1.234 . S
C355 O341 1.305 . S
C355 O342 1.234 . S
C356 O353 1.305 . S
C356 O354 1.234 . S
Zn357 O363 1.920 . S
Zn357 O369 1.898 . S
Zn357 O372 1.905 . S
Zn358 O366 1.905 . S
Zn358 O367 1.898 . S
Zn358 O375 1.920 . S
Zn359 O362 2.080 1_554 S
Zn359 O365 2.114 . S
Zn359 O368 2.120 . S
Zn359 O370 2.120 . S
Zn359 O371 2.114 1_554 S
Zn359 O374 2.080 . S
C360 O365 1.166 . S
C360 O366 1.182 . S
C361 O367 1.167 . S
C361 O368 1.299 . S
O362 Zn359 2.080 1_556 S
O362 C376 1.305 . S
O363 Zn357 1.920 . S
O363 C376 1.234 . S
C364 O369 1.167 . S
C364 O370 1.299 1_556 S
O365 Zn359 2.114 . S
O365 C360 1.166 . S
O366 Zn358 1.905 . S
O366 C360 1.182 . S
O367 Zn358 1.898 . S
O367 C361 1.167 . S
O368 Zn359 2.120 . S
O368 C361 1.299 . S
O369 Zn357 1.898 . S
O369 C364 1.167 . S
O370 Zn359 2.120 . S
O370 C364 1.299 1_554 S
O371 Zn359 2.114 1_556 S
O371 C373 1.166 . S
O372 Zn357 1.905 . S
O372 C373 1.182 . S
C373 O371 1.166 . S
C373 O372 1.182 . S
O374 Zn359 2.080 . S
O374 C377 1.305 . S
O375 Zn358 1.920 . S
O375 C377 1.234 . S
C376 O362 1.305 . S
C376 O363 1.234 . S
C377 O374 1.305 . S
C377 O375 1.234 . S
Zn378 O384 1.920 . S
Zn378 O390 1.898 . S
Zn378 O393 1.905 . S
Zn379 O387 1.905 . S
Zn379 O388 1.898 . S
Zn379 O396 1.920 . S
Zn380 O383 2.080 1_554 S
Zn380 O386 2.114 . S
Zn380 O389 2.120 . S
Zn380 O391 2.120 . S
Zn380 O392 2.114 1_554 S
Zn380 O395 2.080 . S
C381 O386 1.166 . S
C381 O387 1.182 . S
C382 O388 1.167 . S
C382 O389 1.299 . S
O383 Zn380 2.080 1_556 S
O383 C397 1.305 . S
O384 Zn378 1.920 . S
O384 C397 1.234 . S
C385 O390 1.167 . S
C385 O391 1.299 1_556 S
O386 Zn380 2.114 . S
O386 C381 1.166 . S
O387 Zn379 1.905 . S
O387 C381 1.182 . S
O388 Zn379 1.898 . S
O388 C382 1.167 . S
O389 Zn380 2.120 . S
O389 C382 1.299 . S
O390 Zn378 1.898 . S
O390 C385 1.167 . S
O391 Zn380 2.120 . S
O391 C385 1.299 1_554 S
O392 Zn380 2.114 1_556 S
O392 C394 1.166 . S
O393 Zn378 1.905 . S
O393 C394 1.182 . S
C394 O392 1.166 . S
C394 O393 1.182 . S
O395 Zn380 2.080 . S
O395 C398 1.305 . S
O396 Zn379 1.920 . S
O396 C398 1.234 . S
C397 O383 1.305 . S
C397 O384 1.234 . S
C398 O395 1.305 . S
C398 O396 1.234 . S
Zn399 O405 1.920 . S
Zn399 O411 1.898 . S
Zn399 O414 1.905 . S
Zn400 O408 1.905 . S
Zn400 O409 1.898 . S
Zn400 O417 1.920 . S
Zn401 O404 2.080 . S
Zn401 O407 2.114 1_554 S
Zn401 O410 2.120 . S
Zn401 O412 2.120 . S
Zn401 O413 2.114 . S
Zn401 O416 2.080 1_554 S
C402 O407 1.166 . S
C402 O408 1.182 . S
C403 O409 1.167 . S
C403 O410 1.299 1_556 S
O404 Zn401 2.080 . S
O404 C418 1.305 . S
O405 Zn399 1.920 . S
O405 C418 1.234 . S
C406 O411 1.167 . S
C406 O412 1.299 . S
O407 Zn401 2.114 1_556 S
O407 C402 1.166 . S
O408 Zn400 1.905 . S
O408 C402 1.182 . S
O409 Zn400 1.898 . S
O409 C403 1.167 . S
O410 Zn401 2.120 . S
O410 C403 1.299 1_554 S
O411 Zn399 1.898 . S
O411 C406 1.167 . S
O412 Zn401 2.120 . S
O412 C406 1.299 . S
O413 Zn401 2.114 . S
O413 C415 1.166 . S
O414 Zn399 1.905 . S
O414 C415 1.182 . S
C415 O413 1.166 . S
C415 O414 1.182 . S
O416 Zn401 2.080 1_556 S
O416 C419 1.305 . S
O417 Zn400 1.920 . S
O417 C419 1.234 . S
C418 O404 1.305 . S
C418 O405 1.234 . S
C419 O416 1.305 . S
C419 O417 1.234 . S
Zn420 O426 1.920 . S
Zn420 O432 1.898 . S
Zn420 O435 1.905 . S
Zn421 O429 1.905 . S
Zn421 O430 1.898 . S
Zn421 O438 1.920 . S
Zn422 O425 2.080 1_554 S
Zn422 O428 2.114 . S
Zn422 O431 2.120 . S
Zn422 O433 2.120 . S
Zn422 O434 2.114 1_554 S
Zn422 O437 2.080 . S
C423 O428 1.166 . S
C423 O429 1.182 . S
C424 O430 1.167 . S
C424 O431 1.299 . S
O425 Zn422 2.080 1_556 S
O425 C439 1.305 . S
O426 Zn420 1.920 . S
O426 C439 1.234 . S
C427 O432 1.167 . S
C427 O433 1.299 1_556 S
O428 Zn422 2.114 . S
O428 C423 1.166 . S
O429 Zn421 1.905 . S
O429 C423 1.182 . S
O430 Zn421 1.898 . S
O430 C424 1.167 . S
O431 Zn422 2.120 . S
O431 C424 1.299 . S
O432 Zn420 1.898 . S
O432 C427 1.167 . S
O433 Zn422 2.120 . S
O433 C427 1.299 1_554 S
O434 Zn422 2.114 1_556 S
O434 C436 1.166 . S
O435 Zn420 1.905 . S
O435 C436 1.182 . S
C436 O434 1.166 . S
C436 O435 1.182 . S
O437 Zn422 2.080 . S
O437 C440 1.305 . S
O438 Zn421 1.920 . S
O438 C440 1.234 . S
C439 O425 1.305 . S
C439 O426 1.234 . S
C440 O437 1.305 . S
C440 O438 1.234 . S
Zn441 O447 1.920 . S
Zn441 O453 1.898 . S
Zn441 O456 1.905 . S
Zn442 O450 1.905 . S
Zn442 O451 1.898 . S
Zn442 O459 1.920 . S
Zn443 O446 2.080 1_554 S
Zn443 O449 2.114 . S
Zn443 O452 2.120 . S
Zn443 O454 2.120 . S
Zn443 O455 2.114 1_554 S
Zn443 O458 2.080 . S
C444 O449 1.166 . S
C444 O450 1.182 . S
C445 O451 1.167 . S
C445 O452 1.299 . S
O446 Zn443 2.080 1_556 S
O446 C460 1.305 . S
O447 Zn441 1.920 . S
O447 C460 1.234 . S
C448 O453 1.167 . S
C448 O454 1.299 1_556 S
O449 Zn443 2.114 . S
O449 C444 1.166 . S
O450 Zn442 1.905 . S
O450 C444 1.182 . S
O451 Zn442 1.898 . S
O451 C445 1.167 . S
O452 Zn443 2.120 . S
O452 C445 1.299 . S
O453 Zn441 1.898 . S
O453 C448 1.167 . S
O454 Zn443 2.120 . S
O454 C448 1.299 1_554 S
O455 Zn443 2.114 1_556 S
O455 C457 1.166 . S
O456 Zn441 1.905 . S
O456 C457 1.182 . S
C457 O455 1.166 . S
C457 O456 1.182 . S
O458 Zn443 2.080 . S
O458 C461 1.305 . S
O459 Zn442 1.920 . S
O459 C461 1.234 . S
C460 O446 1.305 . S
C460 O447 1.234 . S
C461 O458 1.305 . S
C461 O459 1.234 . S
Zn462 O468 1.920 . S
Zn462 O474 1.898 . S
Zn462 O477 1.905 . S
Zn463 O471 1.905 . S
Zn463 O472 1.898 . S
Zn463 O480 1.920 . S
Zn464 O467 2.080 1_554 S
Zn464 O470 2.114 . S
Zn464 O473 2.120 . S
Zn464 O475 2.120 . S
Zn464 O476 2.114 1_554 S
Zn464 O479 2.080 . S
C465 O470 1.166 . S
C465 O471 1.182 . S
C466 O472 1.167 . S
C466 O473 1.299 . S
O467 Zn464 2.080 1_556 S
O467 C481 1.305 . S
O468 Zn462 1.920 . S
O468 C481 1.234 . S
C469 O474 1.167 . S
C469 O475 1.299 1_556 S
O470 Zn464 2.114 . S
O470 C465 1.166 . S
O471 Zn463 1.905 . S
O471 C465 1.182 . S
O472 Zn463 1.898 . S
O472 C466 1.167 . S
O473 Zn464 2.120 . S
O473 C466 1.299 . S
O474 Zn462 1.898 . S
O474 C469 1.167 . S
O475 Zn464 2.120 . S
O475 C469 1.299 1_554 S
O476 Zn464 2.114 1_556 S
O476 C478 1.166 . S
O477 Zn462 1.905 . S
O477 C478 1.182 . S
C478 O476 1.166 . S
C478 O477 1.182 . S
O479 Zn464 2.080 . S
O479 C482 1.305 . S
O480 Zn463 1.920 . S
O480 C482 1.234 . S
C481 O467 1.305 . S
C481 O468 1.234 . S
C482 O479 1.305 . S
C482 O480 1.234 . S
Zn483 O489 1.920 . S
Zn483 O495 1.898 . S
Zn483 O498 1.905 . S
Zn484 O492 1.905 . S
Zn484 O493 1.898 . S
Zn484 O501 1.920 . S
Zn485 O488 2.080 1_554 S
Zn485 O491 2.114 . S
Zn485 O494 2.120 . S
Zn485 O496 2.120 . S
Zn485 O497 2.114 1_554 S
Zn485 O500 2.080 . S
C486 O491 1.166 . S
C486 O492 1.182 . S
C487 O493 1.167 . S
C487 O494 1.299 . S
O488 Zn485 2.080 1_556 S
O488 C502 1.305 . S
O489 Zn483 1.920 . S
O489 C502 1.234 . S
C490 O495 1.167 . S
C490 O496 1.299 1_556 S
O491 Zn485 2.114 . S
O491 C486 1.166 . S
O492 Zn484 1.905 . S
O492 C486 1.182 . S
O493 Zn484 1.898 . S
O493 C487 1.167 . S
O494 Zn485 2.120 . S
O494 C487 1.299 . S
O495 Zn483 1.898 . S
O495 C490 1.167 . S
O496 Zn485 2.120 . S
O496 C490 1.299 1_554 S
O497 Zn485 2.114 1_556 S
O497 C499 1.166 . S
O498 Zn483 1.905 . S
O498 C499 1.182 . S
C499 O497 1.166 . S
C499 O498 1.182 . S
O500 Zn485 2.080 . S
O500 C503 1.305 . S
O501 Zn484 1.920 . S
O501 C503 1.234 . S
C502 O488 1.305 . S
C502 O489 1.234 . S
C503 O500 1.305 . S
C503 O501 1.234 . S
Zn504 O510 1.920 . S
Zn504 O516 1.898 . S
Zn504 O519 1.905 . S
Zn505 O513 1.905 . S
Zn505 O514 1.907 . S
Zn505 O522 1.920 . S
Zn506 O509 2.080 . S
Zn506 O512 2.114 . S
Zn506 O515 2.120 . S
Zn506 O517 2.120 . S
Zn506 O518 2.114 . S
Zn506 O521 2.080 . S
C507 O512 1.166 . S
C507 O513 1.182 . S
C508 O514 1.170 . S
C508 O515 1.299 . S
O509 Zn506 2.080 . S
O509 C523 1.305 . S
O510 Zn504 1.920 . S
O510 C523 1.234 . S
C511 O516 1.167 . S
C511 O517 1.299 . S
O512 Zn506 2.114 . S
O512 C507 1.166 . S
O513 Zn505 1.905 . S
O513 C507 1.182 . S
O514 Zn505 1.907 . S
O514 C508 1.170 . S
O515 Zn506 2.120 . S
O515 C508 1.299 . S
O516 Zn504 1.898 . S
O516 C511 1.167 . S
O517 Zn506 2.120 . S
O517 C511 1.299 . S
O518 Zn506 2.114 . S
O518 C520 1.166 . S
O519 Zn504 1.905 . S
O519 C520 1.182 . S
C520 O518 1.166 . S
C520 O519 1.182 . S
O521 Zn506 2.080 . S
O521 C524 1.305 . S
O522 Zn505 1.920 . S
O522 C524 1.234 . S
C523 O509 1.305 . S
C523 O510 1.234 . S
C524 O521 1.305 . S
C524 O522 1.234 . S
Zn525 O531 1.920 . S
Zn525 O537 1.907 . S
Zn525 O540 1.905 . S
Zn526 O534 1.905 . S
Zn526 O535 1.898 . S
Zn526 O543 1.920 . S
Zn527 O530 2.080 . S
Zn527 O533 2.114 . S
Zn527 O536 2.120 . S
Zn527 O538 2.120 . S
Zn527 O539 2.114 . S
Zn527 O542 2.080 . S
C528 O533 1.166 . S
C528 O534 1.182 . S
C529 O535 1.167 . S
C529 O536 1.299 . S
O530 Zn527 2.080 . S
O530 C544 1.305 . S
O531 Zn525 1.920 . S
O531 C544 1.234 . S
C532 O537 1.170 . S
C532 O538 1.299 . S
O533 Zn527 2.114 . S
O533 C528 1.166 . S
O534 Zn526 1.905 . S
O534 C528 1.182 . S
O535 Zn526 1.898 . S
O535 C529 1.167 . S
O536 Zn527 2.120 . S
O536 C529 1.299 . S
O537 Zn525 1.907 . S
O537 C532 1.170 . S
O538 Zn527 2.120 . S
O538 C532 1.299 . S
O539 Zn527 2.114 . S
O539 C541 1.166 . S
O540 Zn525 1.905 . S
O540 C541 1.182 . S
C541 O539 1.166 . S
C541 O540 1.182 . S
O542 Zn527 2.080 . S
O542 C545 1.305 . S
O543 Zn526 1.920 . S
O543 C545 1.234 . S
C544 O530 1.305 . S
C544 O531 1.234 . S
C545 O542 1.305 . S
C545 O543 1.234 . S
Zn546 O552 1.920 . S
Zn546 O558 1.898 . S
Zn546 O561 1.905 . S
Zn547 O555 1.905 . S
Zn547 O556 1.907 . S
Zn547 O564 1.920 . S
Zn548 O551 2.080 . S
Zn548 O554 2.114 . S
Zn548 O557 2.120 . S
Zn548 O559 2.120 . S
Zn548 O560 2.114 . S
Zn548 O563 2.080 . S
C549 O554 1.166 . S
C549 O555 1.182 . S
C550 O556 1.170 . S
C550 O557 1.299 . S
O551 Zn548 2.080 . S
O551 C565 1.305 . S
O552 Zn546 1.920 . S
O552 C565 1.234 . S
C553 O558 1.167 . S
C553 O559 1.299 . S
O554 Zn548 2.114 . S
O554 C549 1.166 . S
O555 Zn547 1.905 . S
O555 C549 1.182 . S
O556 Zn547 1.907 . S
O556 C550 1.170 . S
O557 Zn548 2.120 . S
O557 C550 1.299 . S
O558 Zn546 1.898 . S
O558 C553 1.167 . S
O559 Zn548 2.120 . S
O559 C553 1.299 . S
O560 Zn548 2.114 . S
O560 C562 1.166 . S
O561 Zn546 1.905 . S
O561 C562 1.182 . S
C562 O560 1.166 . S
C562 O561 1.182 . S
O563 Zn548 2.080 . S
O563 C566 1.305 . S
O564 Zn547 1.920 . S
O564 C566 1.234 . S
C565 O551 1.305 . S
C565 O552 1.234 . S
C566 O563 1.305 . S
C566 O564 1.234 . S
Zn567 O573 1.920 . S
Zn567 O579 1.907 . S
Zn567 O582 1.905 . S
Zn568 O576 1.905 . S
Zn568 O577 1.898 . S
Zn568 O585 1.920 . S
Zn569 O572 2.080 . S
Zn569 O575 2.114 . S
Zn569 O578 2.120 . S
Zn569 O580 2.120 . S
Zn569 O581 2.114 . S
Zn569 O584 2.080 . S
C570 O575 1.166 . S
C570 O576 1.182 . S
C571 O577 1.167 . S
C571 O578 1.299 . S
O572 Zn569 2.080 . S
O572 C586 1.305 . S
O573 Zn567 1.920 . S
O573 C586 1.234 . S
C574 O579 1.170 . S
C574 O580 1.299 . S
O575 Zn569 2.114 . S
O575 C570 1.166 . S
O576 Zn568 1.905 . S
O576 C570 1.182 . S
O577 Zn568 1.898 . S
O577 C571 1.167 . S
O578 Zn569 2.120 . S
O578 C571 1.299 . S
O579 Zn567 1.907 . S
O579 C574 1.170 . S
O580 Zn569 2.120 . S
O580 C574 1.299 . S
O581 Zn569 2.114 . S
O581 C583 1.166 . S
O582 Zn567 1.905 . S
O582 C583 1.182 . S
C583 O581 1.166 . S
C583 O582 1.182 . S
O584 Zn569 2.080 . S
O584 C587 1.305 . S
O585 Zn568 1.920 . S
O585 C587 1.234 . S
C586 O572 1.305 . S
C586 O573 1.234 . S
C587 O584 1.305 . S
C587 O585 1.234 . S
Zn588 O594 1.920 . S
Zn588 O600 1.898 . S
Zn588 O603 1.905 . S
Zn589 O597 1.905 . S
Zn589 O598 1.898 . S
Zn589 O606 1.920 . S
Zn590 O593 2.080 . S
Zn590 O596 2.114 . S
Zn590 O599 2.120 . S
Zn590 O601 2.120 . S
Zn590 O602 2.114 . S
Zn590 O605 2.080 . S
C591 O596 1.166 . S
C591 O597 1.182 . S
C592 O598 1.167 . S
C592 O599 1.299 . S
O593 Zn590 2.080 . S
O593 C607 1.305 . S
O594 Zn588 1.920 . S
O594 C607 1.234 . S
C595 O600 1.167 . S
C595 O601 1.299 . S
O596 Zn590 2.114 . S
O596 C591 1.166 . S
O597 Zn589 1.905 . S
O597 C591 1.182 . S
O598 Zn589 1.898 . S
O598 C592 1.167 . S
O599 Zn590 2.120 . S
O599 C592 1.299 . S
O600 Zn588 1.898 . S
O600 C595 1.167 . S
O601 Zn590 2.120 . S
O601 C595 1.299 . S
O602 Zn590 2.114 . S
O602 C604 1.166 . S
O603 Zn588 1.905 . S
O603 C604 1.182 . S
C604 O602 1.166 . S
C604 O603 1.182 . S
O605 Zn590 2.080 . S
O605 C608 1.305 . S
O606 Zn589 1.920 . S
O606 C608 1.234 . S
C607 O593 1.305 . S
C607 O594 1.234 . S
C608 O605 1.305 . S
C608 O606 1.234 . S
Zn609 O615 1.920 . S
Zn609 O621 1.898 . S
Zn609 O624 1.905 . S
Zn610 O618 1.905 . S
Zn610 O619 1.898 . S
Zn610 O627 1.920 . S
Zn611 O614 2.080 . S
Zn611 O617 2.114 . S
Zn611 O620 2.120 . S
Zn611 O622 2.120 . S
Zn611 O623 2.114 . S
Zn611 O626 2.080 . S
C612 O617 1.166 . S
C612 O618 1.182 . S
C613 O619 1.167 . S
C613 O620 1.299 . S
O614 Zn611 2.080 . S
O614 C628 1.305 . S
O615 Zn609 1.920 . S
O615 C628 1.234 . S
C616 O621 1.167 . S
C616 O622 1.299 . S
O617 Zn611 2.114 . S
O617 C612 1.166 . S
O618 Zn610 1.905 . S
O618 C612 1.182 . S
O619 Zn610 1.898 . S
O619 C613 1.167 . S
O620 Zn611 2.120 . S
O620 C613 1.299 . S
O621 Zn609 1.898 . S
O621 C616 1.167 . S
O622 Zn611 2.120 . S
O622 C616 1.299 . S
O623 Zn611 2.114 . S
O623 C625 1.166 . S
O624 Zn609 1.905 . S
O624 C625 1.182 . S
C625 O623 1.166 . S
C625 O624 1.182 . S
O626 Zn611 2.080 . S
O626 C629 1.305 . S
O627 Zn610 1.920 . S
O627 C629 1.234 . S
C628 O614 1.305 . S
C628 O615 1.234 . S
C629 O626 1.305 . S
C629 O627 1.234 . S
Zn630 O636 1.920 . S
Zn630 O642 1.898 . S
Zn630 O645 1.905 . S
Zn631 O639 1.905 . S
Zn631 O640 1.898 . S
Zn631 O648 1.920 . S
Zn632 O635 2.080 . S
Zn632 O638 2.114 . S
Zn632 O641 2.120 . S
Zn632 O643 2.120 . S
Zn632 O644 2.114 . S
Zn632 O647 2.080 . S
C633 O638 1.166 . S
C633 O639 1.182 . S
C634 O640 1.167 . S
C634 O641 1.299 . S
O635 Zn632 2.080 . S
O635 C649 1.305 . S
O636 Zn630 1.920 . S
O636 C649 1.234 . S
C637 O642 1.167 . S
C637 O643 1.299 . S
O638 Zn632 2.114 . S
O638 C633 1.166 . S
O639 Zn631 1.905 . S
O639 C633 1.182 . S
O640 Zn631 1.898 . S
O640 C634 1.167 . S
O641 Zn632 2.120 . S
O641 C634 1.299 . S
O642 Zn630 1.898 . S
O642 C637 1.167 . S
O643 Zn632 2.120 . S
O643 C637 1.299 . S
O644 Zn632 2.114 . S
O644 C646 1.166 . S
O645 Zn630 1.905 . S
O645 C646 1.182 . S
C646 O644 1.166 . S
C646 O645 1.182 . S
O647 Zn632 2.080 . S
O647 C650 1.305 . S
O648 Zn631 1.920 . S
O648 C650 1.234 . S
C649 O635 1.305 . S
C649 O636 1.234 . S
C650 O647 1.305 . S
C650 O648 1.234 . S
Zn651 O657 1.920 . S
Zn651 O663 1.898 . S
Zn651 O666 1.905 . S
Zn652 O660 1.905 . S
Zn652 O661 1.898 . S
Zn652 O669 1.920 . S
Zn653 O656 2.080 . S
Zn653 O659 2.114 . S
Zn653 O662 2.120 . S
Zn653 O664 2.120 . S
Zn653 O665 2.114 . S
Zn653 O668 2.080 . S
C654 O659 1.166 . S
C654 O660 1.182 . S
C655 O661 1.167 . S
C655 O662 1.299 . S
O656 Zn653 2.080 . S
O656 C670 1.305 . S
O657 Zn651 1.920 . S
O657 C670 1.234 . S
C658 O663 1.167 . S
C658 O664 1.299 . S
O659 Zn653 2.114 . S
O659 C654 1.166 . S
O660 Zn652 1.905 . S
O660 C654 1.182 . S
O661 Zn652 1.898 . S
O661 C655 1.167 . S
O662 Zn653 2.120 . S
O662 C655 1.299 . S
O663 Zn651 1.898 . S
O663 C658 1.167 . S
O664 Zn653 2.120 . S
O664 C658 1.299 . S
O665 Zn653 2.114 . S
O665 C667 1.166 . S
O666 Zn651 1.905 . S
O666 C667 1.182 . S
C667 O665 1.166 . S
C667 O666 1.182 . S
O668 Zn653 2.080 . S
O668 C671 1.305 . S
O669 Zn652 1.920 . S
O669 C671 1.234 . S
C670 O656 1.305 . S
C670 O657 1.234 . S
C671 O668 1.305 . S
C671 O669 1.234 . S
Zn672 O678 1.920 . S
Zn672 O684 1.907 . S
Zn672 O687 1.905 . S
Zn673 O681 1.905 . S
Zn673 O682 1.898 . S
Zn673 O690 1.920 . S
Zn674 O677 2.080 . S
Zn674 O680 2.114 . S
Zn674 O683 2.120 . S
Zn674 O685 2.120 . S
Zn674 O686 2.114 . S
Zn674 O689 2.080 . S
C675 O680 1.166 . S
C675 O681 1.182 . S
C676 O682 1.167 . S
C676 O683 1.299 . S
O677 Zn674 2.080 . S
O677 C691 1.305 . S
O678 Zn672 1.920 . S
O678 C691 1.234 . S
C679 O684 1.170 . S
C679 O685 1.299 . S
O680 Zn674 2.114 . S
O680 C675 1.166 . S
O681 Zn673 1.905 . S
O681 C675 1.182 . S
O682 Zn673 1.898 . S
O682 C676 1.167 . S
O683 Zn674 2.120 . S
O683 C676 1.299 . S
O684 Zn672 1.907 . S
O684 C679 1.170 . S
O685 Zn674 2.120 . S
O685 C679 1.299 . S
O686 Zn674 2.114 . S
O686 C688 1.166 . S
O687 Zn672 1.905 . S
O687 C688 1.182 . S
C688 O686 1.166 . S
C688 O687 1.182 . S
O689 Zn674 2.080 . S
O689 C692 1.305 . S
O690 Zn673 1.920 . S
O690 C692 1.234 . S
C691 O677 1.305 . S
C691 O678 1.234 . S
C692 O689 1.305 . S
C692 O690 1.234 . S
Zn693 O699 1.920 . S
Zn693 O705 1.907 . S
Zn693 O708 1.905 . S
Zn694 O702 1.905 . S
Zn694 O703 1.898 . S
Zn694 O711 1.920 . S
Zn695 O698 2.080 . S
Zn695 O701 2.114 . S
Zn695 O704 2.120 . S
Zn695 O706 2.120 . S
Zn695 O707 2.114 . S
Zn695 O710 2.080 . S
C696 O701 1.166 . S
C696 O702 1.182 . S
C697 O703 1.167 . S
C697 O704 1.299 . S
O698 Zn695 2.080 . S
O698 C712 1.305 . S
O699 Zn693 1.920 . S
O699 C712 1.234 . S
C700 O705 1.170 . S
C700 O706 1.299 . S
O701 Zn695 2.114 . S
O701 C696 1.166 . S
O702 Zn694 1.905 . S
O702 C696 1.182 . S
O703 Zn694 1.898 . S
O703 C697 1.167 . S
O704 Zn695 2.120 . S
O704 C697 1.299 . S
O705 Zn693 1.907 . S
O705 C700 1.170 . S
O706 Zn695 2.120 . S
O706 C700 1.299 . S
O707 Zn695 2.114 . S
O707 C709 1.166 . S
O708 Zn693 1.905 . S
O708 C709 1.182 . S
C709 O707 1.166 . S
C709 O708 1.182 . S
O710 Zn695 2.080 . S
O710 C713 1.305 . S
O711 Zn694 1.920 . S
O711 C713 1.234 . S
C712 O698 1.305 . S
C712 O699 1.234 . S
C713 O710 1.305 . S
C713 O711 1.234 . S
Zn714 O720 1.920 . S
Zn714 O726 1.898 . S
Zn714 O729 1.905 . S
Zn715 O723 1.905 . S
Zn715 O724 1.898 . S
Zn715 O732 1.920 . S
Zn716 O719 2.080 . S
Zn716 O722 2.114 . S
Zn716 O725 2.120 . S
Zn716 O727 2.120 . S
Zn716 O728 2.114 . S
Zn716 O731 2.080 . S
C717 O722 1.166 . S
C717 O723 1.182 . S
C718 O724 1.167 . S
C718 O725 1.299 . S
O719 Zn716 2.080 . S
O719 C733 1.305 . S
O720 Zn714 1.920 . S
O720 C733 1.234 . S
C721 O726 1.167 . S
C721 O727 1.299 . S
O722 Zn716 2.114 . S
O722 C717 1.166 . S
O723 Zn715 1.905 . S
O723 C717 1.182 . S
O724 Zn715 1.898 . S
O724 C718 1.167 . S
O725 Zn716 2.120 . S
O725 C718 1.299 . S
O726 Zn714 1.898 . S
O726 C721 1.167 . S
O727 Zn716 2.120 . S
O727 C721 1.299 . S
O728 Zn716 2.114 . S
O728 C730 1.166 . S
O729 Zn714 1.905 . S
O729 C730 1.182 . S
C730 O728 1.166 . S
C730 O729 1.182 . S
O731 Zn716 2.080 . S
O731 C734 1.305 . S
O732 Zn715 1.920 . S
O732 C734 1.234 . S
C733 O719 1.305 . S
C733 O720 1.234 . S
C734 O731 1.305 . S
C734 O732 1.234 . S
Zn735 O741 1.920 . S
Zn735 O747 1.898 . S
Zn735 O750 1.905 . S
Zn736 O744 1.905 . S
Zn736 O745 1.898 . S
Zn736 O753 1.920 . S
Zn737 O740 2.080 . S
Zn737 O743 2.114 . S
Zn737 O746 2.120 . S
Zn737 O748 2.120 . S
Zn737 O749 2.114 . S
Zn737 O752 2.080 . S
C738 O743 1.166 . S
C738 O744 1.182 . S
C739 O745 1.167 . S
C739 O746 1.299 . S
O740 Zn737 2.080 . S
O740 C754 1.305 . S
O741 Zn735 1.920 . S
O741 C754 1.234 . S
C742 O747 1.167 . S
C742 O748 1.299 . S
O743 Zn737 2.114 . S
O743 C738 1.166 . S
O744 Zn736 1.905 . S
O744 C738 1.182 . S
O745 Zn736 1.898 . S
O745 C739 1.167 . S
O746 Zn737 2.120 . S
O746 C739 1.299 . S
O747 Zn735 1.898 . S
O747 C742 1.167 . S
O748 Zn737 2.120 . S
O748 C742 1.299 . S
O749 Zn737 2.114 . S
O749 C751 1.166 . S
O750 Zn735 1.905 . S
O750 C751 1.182 . S
C751 O749 1.166 . S
C751 O750 1.182 . S
O752 Zn737 2.080 . S
O752 C755 1.305 . S
O753 Zn736 1.920 . S
O753 C755 1.234 . S
C754 O740 1.305 . S
C754 O741 1.234 . S
C755 O752 1.305 . S
C755 O753 1.234 . S
Zn756 O762 1.920 . S
Zn756 O768 1.898 . S
Zn756 O771 1.905 . S
Zn757 O765 1.905 . S
Zn757 O766 1.907 . S
Zn757 O774 1.920 . S
Zn758 O761 2.080 . S
Zn758 O764 2.114 . S
Zn758 O767 2.120 . S
Zn758 O769 2.120 . S
Zn758 O770 2.114 . S
Zn758 O773 2.080 . S
C759 O764 1.166 . S
C759 O765 1.182 . S
C760 O766 1.170 . S
C760 O767 1.299 . S
O761 Zn758 2.080 . S
O761 C775 1.305 . S
O762 Zn756 1.920 . S
O762 C775 1.234 . S
C763 O768 1.167 . S
C763 O769 1.299 . S
O764 Zn758 2.114 . S
O764 C759 1.166 . S
O765 Zn757 1.905 . S
O765 C759 1.182 . S
O766 Zn757 1.907 . S
O766 C760 1.170 . S
O767 Zn758 2.120 . S
O767 C760 1.299 . S
O768 Zn756 1.898 . S
O768 C763 1.167 . S
O769 Zn758 2.120 . S
O769 C763 1.299 . S
O770 Zn758 2.114 . S
O770 C772 1.166 . S
O771 Zn756 1.905 . S
O771 C772 1.182 . S
C772 O770 1.166 . S
C772 O771 1.182 . S
O773 Zn758 2.080 . S
O773 C776 1.305 . S
O774 Zn757 1.920 . S
O774 C776 1.234 . S
C775 O761 1.305 . S
C775 O762 1.234 . S
C776 O773 1.305 . S
C776 O774 1.234 . S
Zn777 O783 1.920 . S
Zn777 O789 1.907 . S
Zn777 O792 1.905 . S
Zn778 O786 1.905 . S
Zn778 O787 1.898 . S
Zn778 O795 1.920 . S
Zn779 O782 2.080 . S
Zn779 O785 2.114 . S
Zn779 O788 2.120 . S
Zn779 O790 2.120 . S
Zn779 O791 2.114 . S
Zn779 O794 2.080 . S
C780 O785 1.166 . S
C780 O786 1.182 . S
C781 O787 1.167 . S
C781 O788 1.299 . S
O782 Zn779 2.080 . S
O782 C796 1.305 . S
O783 Zn777 1.920 . S
O783 C796 1.234 . S
C784 O789 1.170 . S
C784 O790 1.299 . S
O785 Zn779 2.114 . S
O785 C780 1.166 . S
O786 Zn778 1.905 . S
O786 C780 1.182 . S
O787 Zn778 1.898 . S
O787 C781 1.167 . S
O788 Zn779 2.120 . S
O788 C781 1.299 . S
O789 Zn777 1.907 . S
O789 C784 1.170 . S
O790 Zn779 2.120 . S
O790 C784 1.299 . S
O791 Zn779 2.114 . S
O791 C793 1.166 . S
O792 Zn777 1.905 . S
O792 C793 1.182 . S
C793 O791 1.166 . S
C793 O792 1.182 . S
O794 Zn779 2.080 . S
O794 C797 1.305 . S
O795 Zn778 1.920 . S
O795 C797 1.234 . S
C796 O782 1.305 . S
C796 O783 1.234 . S
C797 O794 1.305 . S
C797 O795 1.234 . S
Zn798 O804 1.920 . S
Zn798 O810 1.898 . S
Zn798 O813 1.905 . S
Zn799 O807 1.905 . S
Zn799 O808 1.898 . S
Zn799 O816 1.920 . S
Zn800 O803 2.080 . S
Zn800 O806 2.114 . S
Zn800 O809 2.120 . S
Zn800 O811 2.120 . S
Zn800 O812 2.114 . S
Zn800 O815 2.080 . S
C801 O806 1.166 . S
C801 O807 1.182 . S
C802 O808 1.167 . S
C802 O809 1.299 . S
O803 Zn800 2.080 . S
O803 C817 1.305 . S
O804 Zn798 1.920 . S
O804 C817 1.234 . S
C805 O810 1.167 . S
C805 O811 1.299 . S
O806 Zn800 2.114 . S
O806 C801 1.166 . S
O807 Zn799 1.905 . S
O807 C801 1.182 . S
O808 Zn799 1.898 . S
O808 C802 1.167 . S
O809 Zn800 2.120 . S
O809 C802 1.299 . S
O810 Zn798 1.898 . S
O810 C805 1.167 . S
O811 Zn800 2.120 . S
O811 C805 1.299 . S
O812 Zn800 2.114 . S
O812 C814 1.166 . S
O813 Zn798 1.905 . S
O813 C814 1.182 . S
C814 O812 1.166 . S
C814 O813 1.182 . S
O815 Zn800 2.080 . S
O815 C818 1.305 . S
O816 Zn799 1.920 . S
O816 C818 1.234 . S
C817 O803 1.305 . S
C817 O804 1.234 . S
C818 O815 1.305 . S
C818 O816 1.234 . S
Zn819 O825 1.920 . S
Zn819 O831 1.898 . S
Zn819 O834 1.905 . S
Zn820 O828 1.905 . S
Zn820 O829 1.898 . S
Zn820 O837 1.920 . S
Zn821 O824 2.080 . S
Zn821 O827 2.114 . S
Zn821 O830 2.120 . S
Zn821 O832 2.120 . S
Zn821 O833 2.114 . S
Zn821 O836 2.080 . S
C822 O827 1.166 . S
C822 O828 1.182 . S
C823 O829 1.167 . S
C823 O830 1.299 . S
O824 Zn821 2.080 . S
O824 C838 1.305 . S
O825 Zn819 1.920 . S
O825 C838 1.234 . S
C826 O831 1.167 . S
C826 O832 1.299 . S
O827 Zn821 2.114 . S
O827 C822 1.166 . S
O828 Zn820 1.905 . S
O828 C822 1.182 . S
O829 Zn820 1.898 . S
O829 C823 1.167 . S
O830 Zn821 2.120 . S
O830 C823 1.299 . S
O831 Zn819 1.898 . S
O831 C826 1.167 . S
O832 Zn821 2.120 . S
O832 C826 1.299 . S
O833 Zn821 2.114 . S
O833 C835 1.166 . S
O834 Zn819 1.905 . S
O834 C835 1.182 . S
C835 O833 1.166 . S
C835 O834 1.182 . S
O836 Zn821 2.080 . S
O836 C839 1.305 . S
O837 Zn820 1.920 . S
O837 C839 1.234 . S
C838 O824 1.305 . S
C838 O825 1.234 . S
C839 O836 1.305 . S
C839 O837 1.234 . S
Zn840 O846 1.920 . S
Zn840 O852 1.907 . S
Zn840 O855 1.905 . S
Zn841 O849 1.905 . S
Zn841 O850 1.898 . S
Zn841 O858 1.920 . S
Zn842 O845 2.080 . S
Zn842 O848 2.114 . S
Zn842 O851 2.120 . S
Zn842 O853 2.120 . S
Zn842 O854 2.114 . S
Zn842 O857 2.080 . S
C843 O848 1.166 . S
C843 O849 1.182 . S
C844 O850 1.167 . S
C844 O851 1.299 . S
O845 Zn842 2.080 . S
O845 C859 1.305 . S
O846 Zn840 1.920 . S
O846 C859 1.234 . S
C847 O852 1.170 . S
C847 O853 1.299 . S
O848 Zn842 2.114 . S
O848 C843 1.166 . S
O849 Zn841 1.905 . S
O849 C843 1.182 . S
O850 Zn841 1.898 . S
O850 C844 1.167 . S
O851 Zn842 2.120 . S
O851 C844 1.299 . S
O852 Zn840 1.907 . S
O852 C847 1.170 . S
O853 Zn842 2.120 . S
O853 C847 1.299 . S
O854 Zn842 2.114 . S
O854 C856 1.166 . S
O855 Zn840 1.905 . S
O855 C856 1.182 . S
C856 O854 1.166 . S
C856 O855 1.182 . S
O857 Zn842 2.080 . S
O857 C860 1.305 . S
O858 Zn841 1.920 . S
O858 C860 1.234 . S
C859 O845 1.305 . S
C859 O846 1.234 . S
C860 O857 1.305 . S
C860 O858 1.234 . S
Zn861 O867 1.920 . S
Zn861 O873 1.898 . S
Zn861 O876 1.905 . S
Zn862 O870 1.905 . S
Zn862 O871 1.898 . S
Zn862 O879 1.920 . S
Zn863 O866 2.080 . S
Zn863 O869 2.114 . S
Zn863 O872 2.120 . S
Zn863 O874 2.120 . S
Zn863 O875 2.114 . S
Zn863 O878 2.080 . S
C864 O869 1.166 . S
C864 O870 1.182 . S
C865 O871 1.167 . S
C865 O872 1.299 . S
O866 Zn863 2.080 . S
O866 C880 1.305 . S
O867 Zn861 1.920 . S
O867 C880 1.234 . S
C868 O873 1.167 . S
C868 O874 1.299 . S
O869 Zn863 2.114 . S
O869 C864 1.166 . S
O870 Zn862 1.905 . S
O870 C864 1.182 . S
O871 Zn862 1.898 . S
O871 C865 1.167 . S
O872 Zn863 2.120 . S
O872 C865 1.299 . S
O873 Zn861 1.898 . S
O873 C868 1.167 . S
O874 Zn863 2.120 . S
O874 C868 1.299 . S
O875 Zn863 2.114 . S
O875 C877 1.166 . S
O876 Zn861 1.905 . S
O876 C877 1.182 . S
C877 O875 1.166 . S
C877 O876 1.182 . S
O878 Zn863 2.080 . S
O878 C881 1.305 . S
O879 Zn862 1.920 . S
O879 C881 1.234 . S
C880 O866 1.305 . S
C880 O867 1.234 . S
C881 O878 1.305 . S
C881 O879 1.234 . S
Zn882 O888 1.920 . S
Zn882 O894 1.907 . S
Zn882 O897 1.905 . S
Zn883 O891 1.905 . S
Zn883 O892 1.898 . S
Zn883 O900 1.920 . S
Zn884 O887 2.080 . S
Zn884 O890 2.114 . S
Zn884 O893 2.120 . S
Zn884 O895 2.120 . S
Zn884 O896 2.114 . S
Zn884 O899 2.080 . S
C885 O890 1.166 . S
C885 O891 1.182 . S
C886 O892 1.167 . S
C886 O893 1.299 . S
O887 Zn884 2.080 . S
O887 C901 1.305 . S
O888 Zn882 1.920 . S
O888 C901 1.234 . S
C889 O894 1.170 . S
C889 O895 1.299 . S
O890 Zn884 2.114 . S
O890 C885 1.166 . S
O891 Zn883 1.905 . S
O891 C885 1.182 . S
O892 Zn883 1.898 . S
O892 C886 1.167 . S
O893 Zn884 2.120 . S
O893 C886 1.299 . S
O894 Zn882 1.907 . S
O894 C889 1.170 . S
O895 Zn884 2.120 . S
O895 C889 1.299 . S
O896 Zn884 2.114 . S
O896 C898 1.166 . S
O897 Zn882 1.905 . S
O897 C898 1.182 . S
C898 O896 1.166 . S
C898 O897 1.182 . S
O899 Zn884 2.080 . S
O899 C902 1.305 . S
O900 Zn883 1.920 . S
O900 C902 1.234 . S
C901 O887 1.305 . S
C901 O888 1.234 . S
C902 O899 1.305 . S
C902 O900 1.234 . S
Zn903 O909 1.920 . S
Zn903 O915 1.898 . S
Zn903 O918 1.905 . S
Zn904 O912 1.905 . S
Zn904 O913 1.907 . S
Zn904 O921 1.920 . S
Zn905 O908 2.080 . S
Zn905 O911 2.114 . S
Zn905 O914 2.120 . S
Zn905 O916 2.120 . S
Zn905 O917 2.114 . S
Zn905 O920 2.080 . S
C906 O911 1.166 . S
C906 O912 1.182 . S
C907 O913 1.170 . S
C907 O914 1.299 . S
O908 Zn905 2.080 . S
O908 C922 1.305 . S
O909 Zn903 1.920 . S
O909 C922 1.234 . S
C910 O915 1.167 . S
C910 O916 1.299 . S
O911 Zn905 2.114 . S
O911 C906 1.166 . S
O912 Zn904 1.905 . S
O912 C906 1.182 . S
O913 Zn904 1.907 . S
O913 C907 1.170 . S
O914 Zn905 2.120 . S
O914 C907 1.299 . S
O915 Zn903 1.898 . S
O915 C910 1.167 . S
O916 Zn905 2.120 . S
O916 C910 1.299 . S
O917 Zn905 2.114 . S
O917 C919 1.166 . S
O918 Zn903 1.905 . S
O918 C919 1.182 . S
C919 O917 1.166 . S
C919 O918 1.182 . S
O920 Zn905 2.080 . S
O920 C923 1.305 . S
O921 Zn904 1.920 . S
O921 C923 1.234 . S
C922 O908 1.305 . S
C922 O909 1.234 . S
C923 O920 1.305 . S
C923 O921 1.234 . S
Zn924 O930 1.920 . S
Zn924 O936 1.898 . S
Zn924 O939 1.905 . S
Zn925 O933 1.905 . S
Zn925 O934 1.898 . S
Zn925 O942 1.920 . S
Zn926 O929 2.080 . S
Zn926 O932 2.114 . S
Zn926 O935 2.120 . S
Zn926 O937 2.120 . S
Zn926 O938 2.114 . S
Zn926 O941 2.080 . S
C927 O932 1.166 . S
C927 O933 1.182 . S
C928 O934 1.167 . S
C928 O935 1.299 . S
O929 Zn926 2.080 . S
O929 C943 1.305 . S
O930 Zn924 1.920 . S
O930 C943 1.234 . S
C931 O936 1.167 . S
C931 O937 1.299 . S
O932 Zn926 2.114 . S
O932 C927 1.166 . S
O933 Zn925 1.905 . S
O933 C927 1.182 . S
O934 Zn925 1.898 . S
O934 C928 1.167 . S
O935 Zn926 2.120 . S
O935 C928 1.299 . S
O936 Zn924 1.898 . S
O936 C931 1.167 . S
O937 Zn926 2.120 . S
O937 C931 1.299 . S
O938 Zn926 2.114 . S
O938 C940 1.166 . S
O939 Zn924 1.905 . S
O939 C940 1.182 . S
C940 O938 1.166 . S
C940 O939 1.182 . S
O941 Zn926 2.080 . S
O941 C944 1.305 . S
O942 Zn925 1.920 . S
O942 C944 1.234 . S
C943 O929 1.305 . S
C943 O930 1.234 . S
C944 O941 1.305 . S
C944 O942 1.234 . S
Zn945 O951 1.920 . S
Zn945 O957 1.898 . S
Zn945 O960 1.905 . S
Zn946 O954 1.905 . S
Zn946 O955 1.898 . S
Zn946 O963 1.920 . S
Zn947 O950 2.080 . S
Zn947 O953 2.114 . S
Zn947 O956 2.120 . S
Zn947 O958 2.120 . S
Zn947 O959 2.114 . S
Zn947 O962 2.080 . S
C948 O953 1.166 . S
C948 O954 1.182 . S
C949 O955 1.167 . S
C949 O956 1.299 . S
O950 Zn947 2.080 . S
O950 C964 1.305 . S
O951 Zn945 1.920 . S
O951 C964 1.234 . S
C952 O957 1.167 . S
C952 O958 1.299 . S
O953 Zn947 2.114 . S
O953 C948 1.166 . S
O954 Zn946 1.905 . S
O954 C948 1.182 . S
O955 Zn946 1.898 . S
O955 C949 1.167 . S
O956 Zn947 2.120 . S
O956 C949 1.299 . S
O957 Zn945 1.898 . S
O957 C952 1.167 . S
O958 Zn947 2.120 . S
O958 C952 1.299 . S
O959 Zn947 2.114 . S
O959 C961 1.166 . S
O960 Zn945 1.905 . S
O960 C961 1.182 . S
C961 O959 1.166 . S
C961 O960 1.182 . S
O962 Zn947 2.080 . S
O962 C965 1.305 . S
O963 Zn946 1.920 . S
O963 C965 1.234 . S
C964 O950 1.305 . S
C964 O951 1.234 . S
C965 O962 1.305 . S
C965 O963 1.234 . S
Zn966 O972 1.920 . S
Zn966 O978 1.907 . S
Zn966 O981 1.905 . S
Zn967 O975 1.905 . S
Zn967 O976 1.898 . S
Zn967 O984 1.920 . S
Zn968 O971 2.080 . S
Zn968 O974 2.114 . S
Zn968 O977 2.120 . S
Zn968 O979 2.120 . S
Zn968 O980 2.114 . S
Zn968 O983 2.080 . S
C969 O974 1.166 . S
C969 O975 1.182 . S
C970 O976 1.167 . S
C970 O977 1.299 . S
O971 Zn968 2.080 . S
O971 C985 1.305 . S
O972 Zn966 1.920 . S
O972 C985 1.234 . S
C973 O978 1.170 . S
C973 O979 1.299 . S
O974 Zn968 2.114 . S
O974 C969 1.166 . S
O975 Zn967 1.905 . S
O975 C969 1.182 . S
O976 Zn967 1.898 . S
O976 C970 1.167 . S
O977 Zn968 2.120 . S
O977 C970 1.299 . S
O978 Zn966 1.907 . S
O978 C973 1.170 . S
O979 Zn968 2.120 . S
O979 C973 1.299 . S
O980 Zn968 2.114 . S
O980 C982 1.166 . S
O981 Zn966 1.905 . S
O981 C982 1.182 . S
C982 O980 1.166 . S
C982 O981 1.182 . S
O983 Zn968 2.080 . S
O983 C986 1.305 . S
O984 Zn967 1.920 . S
O984 C986 1.234 . S
C985 O971 1.305 . S
C985 O972 1.234 . S
C986 O983 1.305 . S
C986 O984 1.234 . S
Zn987 O993 1.920 . S
Zn987 O999 1.898 . S
Zn987 O1002 1.905 . S
Zn988 O996 1.905 . S
Zn988 O997 1.898 . S
Zn988 O1005 1.920 . S
Zn989 O992 2.080 . S
Zn989 O995 2.114 . S
Zn989 O998 2.120 . S
Zn989 O1000 2.120 . S
Zn989 O1001 2.114 . S
Zn989 O1004 2.080 . S
C990 O995 1.166 . S
C990 O996 1.182 . S
C991 O997 1.167 . S
C991 O998 1.299 . S
O992 Zn989 2.080 . S
O992 C1006 1.305 . S
O993 Zn987 1.920 . S
O993 C1006 1.234 . S
C994 O999 1.167 . S
C994 O1000 1.299 . S
O995 Zn989 2.114 . S
O995 C990 1.166 . S
O996 Zn988 1.905 . S
O996 C990 1.182 . S
O997 Zn988 1.898 . S
O997 C991 1.167 . S
O998 Zn989 2.120 . S
O998 C991 1.299 . S
O999 Zn987 1.898 . S
O999 C994 1.167 . S
O1000 Zn989 2.120 . S
O1000 C994 1.299 . S
O1001 Zn989 2.114 . S
O1001 C1003 1.166 . S
O1002 Zn987 1.905 . S
O1002 C1003 1.182 . S
C1003 O1001 1.166 . S
C1003 O1002 1.182 . S
O1004 Zn989 2.080 . S
O1004 C1007 1.305 . S
O1005 Zn988 1.920 . S
O1005 C1007 1.234 . S
C1006 O992 1.305 . S
C1006 O993 1.234 . S
C1007 O1004 1.305 . S
C1007 O1005 1.234 . S
C130 C4 1.677 1_455 S
C154 C25 1.676 1_545 S
C88 C46 1.677 1_655 S
C109 C67 1.676 1_565 S
C217 C172 1.677 1_545 S
C235 C193 1.676 1_655 S
C301 C256 1.677 1_565 S
C322 C280 1.676 1_455 S
C361 C343 1.677 1_554 S
C490 C382 1.676 1_556 S
C448 C406 1.677 1_556 S
C424 C469 1.676 1_554 S
C508 C637 1.676 1_556 S
C532 C658 1.677 1_556 S
C550 C595 1.677 1_556 S
C574 C613 1.676 1_556 S
C679 C718 1.676 1_655 S
C700 C742 1.676 1_565 S
C760 C805 1.677 1_655 S
C826 C784 1.677 1_545 S
C847 C865 1.676 1_565 S
C994 C889 1.676 1_455 S
C907 C952 1.677 1_565 S
C928 C973 1.677 1_455 S
C7 C196 1.452 1_455 S
C28 C214 1.452 1_545 S
C49 C238 1.452 1_655 S
C175 C70 1.452 1_545 S
C319 C91 1.452 1_655 S
C259 C112 1.452 1_565 S
C277 C133 1.452 1_455 S
C151 C298 1.452 1_565 S
C385 C340 1.452 1_556 S
C466 C364 1.452 1_554 S
C403 C487 1.452 1_556 S
C445 C427 1.452 1_554 S
C511 C697 1.452 . S
C721 C529 1.452 . S
C739 C553 1.452 . S
C571 C676 1.452 . S
C823 C592 1.452 . S
C616 C763 1.452 . S
C634 C781 1.452 . S
C655 C802 1.452 . S
C844 C886 1.452 . S
C970 C868 1.452 . S
C991 C910 1.452 . S
C931 C949 1.452 . S
C19 C83 1.652 . S
C20 C40 1.652 . S
C61 C41 1.652 . S
C82 C62 1.652 . S
C125 C103 1.652 . S
C146 C124 1.652 . S
C145 C166 1.652 . S
C104 C167 1.652 . S
C187 C398 1.652 . S
C208 C418 1.652 . S
C230 C440 1.652 . S
C250 C377 1.652 . S
C271 C481 1.652 . S
C355 C293 1.652 . S
C502 C314 1.652 . S
C335 C460 1.652 . S
C356 C209 1.652 . S
C376 C334 1.652 . S
C397 C272 1.652 . S
C292 C419 1.652 . S
C313 C439 1.652 . S
C251 C461 1.652 . S
C188 C482 1.652 . S
C503 C229 1.652 . S
C523 C586 1.652 . S
C545 C524 1.652 . S
C544 C565 1.652 . S
C566 C587 1.652 . S
C608 C629 1.652 . S
C649 C628 1.652 . S
C670 C650 1.652 . S
C671 C607 1.652 . S
C692 C901 1.652 . S
C923 C713 1.652 . S
C944 C733 1.652 . S
C755 C881 1.652 . S
C985 C775 1.652 . S
C797 C859 1.652 . S
C818 C1006 1.652 . S
C839 C964 1.652 . S
C712 C860 1.652 . S
C838 C880 1.652 . S
C776 C902 1.652 . S
C922 C796 1.652 . S
C817 C943 1.652 . S
C965 C754 1.652 . S
C986 C691 1.652 . S
C734 C1007 1.652 . S
C16 C940 1.032 . S
C877 C37 1.032 . S
C58 C885 1.032 . S
C79 C919 1.032 . S
C100 C990 1.032 . S
C121 C948 1.032 . S
C142 C969 1.032 . S
C150 C843 1.031 . S
C184 C822 1.032 . S
C205 C772 1.032 . S
C213 C780 1.032 . S
C247 C801 1.032 . S
C268 C696 1.032 . S
C276 C730 1.032 . S
C297 C738 1.032 . S
C318 C675 1.031 . S
C339 C654 1.032 . S
C373 C528 1.032 . S
C394 C562 1.032 . S
C402 C570 1.032 . S
C436 C520 1.031 . S
C444 C625 1.032 . S
C465 C633 1.032 . S
C486 C591 1.032 . S
C87 C898 0.855 . S
C108 C906 0.855 . S
C129 C927 0.855 . S
C163 C864 0.855 . S
C3 C982 0.855 . S
C24 C856 0.855 . S
C45 C1003 0.855 . S
C961 C66 0.855 . S
C310 C709 0.855 . S
C331 C717 0.855 . S
C255 C751 0.855 . S
C289 C688 0.855 . S
C226 C835 0.855 . S
C234 C759 0.855 . S
C171 C793 0.855 . S
C192 C814 0.855 . S
C457 C583 0.855 . S
C415 C612 0.855 . S
C423 C646 0.855 . S
C360 C667 0.855 . S
C381 C604 0.855 . S
C352 C541 0.855 . S
C499 C549 0.855 . S
C478 C507 0.855 . S
