# Generated by pormake.
# Topology wkp, (6)-cn, num edge types: 1
# Building blocks:
#     Node 0, Type 0, BuildingBlock: OJICUG_clean_sbu_0, # of connection points: 6
#     Node 1, Type 0, BuildingBlock: OJICUG_clean_sbu_0, # of connection points: 6
#     Node 2, Type 0, BuildingBlock: OJICUG_clean_sbu_0, # of connection points: 6
#     Node 3, Type 0, BuildingBlock: OJICUG_clean_sbu_0, # of connection points: 6
#     Node 4, Type 0, BuildingBlock: OJICUG_clean_sbu_0, # of connection points: 6
#     Node 5, Type 0, BuildingBlock: OJICUG_clean_sbu_0, # of connection points: 6
#     Node 6, Type 0, BuildingBlock: OJICUG_clean_sbu_0, # of connection points: 6
#     Node 7, Type 0, BuildingBlock: OJICUG_clean_sbu_0, # of connection points: 6
#     Node 8, Type 0, BuildingBlock: OJICUG_clean_sbu_0, # of connection points: 6
#     Node 9, Type 0, BuildingBlock: OJICUG_clean_sbu_0, # of connection points: 6
#     Node 10, Type 0, BuildingBlock: OJICUG_clean_sbu_0, # of connection points: 6
#     Node 11, Type 0, BuildingBlock: OJICUG_clean_sbu_0, # of connection points: 6
#     Edge 12, Type (0, 0), BuildingBlock: OJICUG_clean_linker_0, # of connection points: 2
#     Edge 13, Type (0, 0), BuildingBlock: OJICUG_clean_linker_0, # of connection points: 2
#     Edge 14, Type (0, 0), BuildingBlock: OJICUG_clean_linker_0, # of connection points: 2
#     Edge 15, Type (0, 0), BuildingBlock: OJICUG_clean_linker_0, # of connection points: 2
#     Edge 16, Type (0, 0), BuildingBlock: OJICUG_clean_linker_0, # of connection points: 2
#     Edge 17, Type (0, 0), BuildingBlock: OJICUG_clean_linker_0, # of connection points: 2
#     Edge 18, Type (0, 0), BuildingBlock: OJICUG_clean_linker_0, # of connection points: 2
#     Edge 19, Type (0, 0), BuildingBlock: OJICUG_clean_linker_0, # of connection points: 2
#     Edge 20, Type (0, 0), BuildingBlock: OJICUG_clean_linker_0, # of connection points: 2
#     Edge 21, Type (0, 0), BuildingBlock: OJICUG_clean_linker_0, # of connection points: 2
#     Edge 22, Type (0, 0), BuildingBlock: OJICUG_clean_linker_0, # of connection points: 2
#     Edge 23, Type (0, 0), BuildingBlock: OJICUG_clean_linker_0, # of connection points: 2
#     Edge 24, Type (0, 0), BuildingBlock: OJICUG_clean_linker_0, # of connection points: 2
#     Edge 25, Type (0, 0), BuildingBlock: OJICUG_clean_linker_0, # of connection points: 2
#     Edge 26, Type (0, 0), BuildingBlock: OJICUG_clean_linker_0, # of connection points: 2
#     Edge 27, Type (0, 0), BuildingBlock: OJICUG_clean_linker_0, # of connection points: 2
#     Edge 28, Type (0, 0), BuildingBlock: OJICUG_clean_linker_0, # of connection points: 2
#     Edge 29, Type (0, 0), BuildingBlock: OJICUG_clean_linker_0, # of connection points: 2
#     Edge 30, Type (0, 0), BuildingBlock: OJICUG_clean_linker_0, # of connection points: 2
#     Edge 31, Type (0, 0), BuildingBlock: OJICUG_clean_linker_0, # of connection points: 2
#     Edge 32, Type (0, 0), BuildingBlock: OJICUG_clean_linker_0, # of connection points: 2
#     Edge 33, Type (0, 0), BuildingBlock: OJICUG_clean_linker_0, # of connection points: 2
#     Edge 34, Type (0, 0), BuildingBlock: OJICUG_clean_linker_0, # of connection points: 2
#     Edge 35, Type (0, 0), BuildingBlock: OJICUG_clean_linker_0, # of connection points: 2
#     Edge 36, Type (0, 0), BuildingBlock: OJICUG_clean_linker_0, # of connection points: 2
#     Edge 37, Type (0, 0), BuildingBlock: OJICUG_clean_linker_0, # of connection points: 2
#     Edge 38, Type (0, 0), BuildingBlock: OJICUG_clean_linker_0, # of connection points: 2
#     Edge 39, Type (0, 0), BuildingBlock: OJICUG_clean_linker_0, # of connection points: 2
#     Edge 40, Type (0, 0), BuildingBlock: OJICUG_clean_linker_0, # of connection points: 2
#     Edge 41, Type (0, 0), BuildingBlock: OJICUG_clean_linker_0, # of connection points: 2
#     Edge 42, Type (0, 0), BuildingBlock: OJICUG_clean_linker_0, # of connection points: 2
#     Edge 43, Type (0, 0), BuildingBlock: OJICUG_clean_linker_0, # of connection points: 2
#     Edge 44, Type (0, 0), BuildingBlock: OJICUG_clean_linker_0, # of connection points: 2
#     Edge 45, Type (0, 0), BuildingBlock: OJICUG_clean_linker_0, # of connection points: 2
#     Edge 46, Type (0, 0), BuildingBlock: OJICUG_clean_linker_0, # of connection points: 2
#     Edge 47, Type (0, 0), BuildingBlock: OJICUG_clean_linker_0, # of connection points: 2
# Relax obj value: 0.288
# Max RMSD: 0.309
# Mean RMSD: 0.309
data_MOF--net-wkp--node1-OJICUG_clean_sbu_0--edge1-OJICUG_clean_linker_0
_symmetry_space_group_name_H-M    P1
_symmetry_Int_Tables_number       1
_symmetry_cell_setting            triclinic
loop_
_symmetry_equiv_pos_as_xyz
'x, y, z'
_cell_length_a     33.322968
_cell_length_b     33.304633
_cell_length_c     22.819832
_cell_angle_alpha  90.000597
_cell_angle_beta   89.991257
_cell_angle_gamma 120.15538
loop_
_atom_site_label
_atom_site_type_symbol
_atom_site_fract_x
_atom_site_fract_y
_atom_site_fract_z
_atom_type_partial_charge
Sc0 Sc 0.20237 0.43923 0.01513 0.0
Sc1 Sc 0.17423 0.32388 0.99811 0.0
Sc2 Sc 0.27512 0.40146 0.07267 0.0
O3 O 0.21725 0.3882 0.02898 0.0
C4 C 0.31213 0.49221 0.99635 0.0
C5 C 0.17569 0.38818 0.8939 0.0
C6 C 0.26956 0.33302 0.96906 0.0
C7 C 0.10304 0.35111 0.04452 0.0
C8 C 0.23582 0.45649 0.14673 0.0
C9 C 0.2095 0.30122 0.11786 0.0
O10 O 0.27361 0.4914 0.99862 0.0
O11 O 0.15879 0.34883 0.91888 0.0
O12 O 0.28941 0.35845 0.01377 0.0
O13 O 0.12881 0.39349 0.03003 0.0
O14 O 0.26554 0.44363 0.13795 0.0
O15 O 0.18645 0.28884 0.07033 0.0
O16 O 0.20822 0.45482 0.10705 0.0
O17 O 0.11627 0.32132 0.04218 0.0
O18 O 0.23751 0.34342 0.13041 0.0
O19 O 0.19636 0.42615 0.92217 0.0
O20 O 0.31775 0.46013 0.01766 0.0
O21 O 0.22933 0.32314 0.95215 0.0
Sc22 Sc 0.85507 0.28519 0.23863 0.0
Sc23 Sc 0.83236 0.18505 0.1632 0.0
Sc24 Sc 0.74453 0.21191 0.18074 0.0
O25 O 0.81063 0.22738 0.19457 0.0
C26 C 0.76031 0.24493 0.31239 0.0
C27 C 0.89015 0.22022 0.28318 0.0
C28 C 0.73401 0.11294 0.20945 0.0
C29 C 0.91845 0.28073 0.13489 0.0
C30 C 0.80111 0.32178 0.16261 0.0
C31 C 0.7693 0.18622 0.05929 0.0
O32 O 0.80291 0.27509 0.30365 0.0
O33 O 0.87995 0.1977 0.23524 0.0
O34 O 0.71709 0.13834 0.19496 0.0
O35 O 0.91285 0.30006 0.18008 0.0
O36 O 0.76333 0.28312 0.16499 0.0
O37 O 0.79165 0.16928 0.08416 0.0
O38 O 0.83898 0.32762 0.18364 0.0
O39 O 0.8879 0.24072 0.11726 0.0
O40 O 0.7519 0.20661 0.08773 0.0
O41 O 0.8753 0.2475 0.29625 0.0
O42 O 0.73452 0.21711 0.2727 0.0
O43 O 0.77717 0.12666 0.20725 0.0
Sc44 Sc 0.51596 0.75467 0.34716 0.0
Sc45 Sc 0.63087 0.84285 0.32974 0.0
Sc46 Sc 0.5533 0.86509 0.40516 0.0
O47 O 0.56666 0.82084 0.36105 0.0
C48 C 0.46253 0.81087 0.32916 0.0
C49 C 0.56667 0.77957 0.22591 0.0
C50 C 0.62093 0.92839 0.30097 0.0
C51 C 0.60466 0.74476 0.37628 0.0
C52 C 0.49879 0.77028 0.47891 0.0
C53 C 0.65356 0.901 0.44937 0.0
O54 O 0.46339 0.77316 0.3314 0.0
O55 O 0.60599 0.80166 0.251 0.0
O56 O 0.59619 0.92282 0.34638 0.0
O57 O 0.56232 0.72762 0.36135 0.0
O58 O 0.51122 0.81285 0.47021 0.0
O59 O 0.66589 0.89102 0.40134 0.0
O60 O 0.50074 0.74454 0.43915 0.0
O61 O 0.63411 0.78802 0.37436 0.0
O62 O 0.61132 0.8855 0.46272 0.0
O63 O 0.52873 0.76227 0.25418 0.0
O64 O 0.49463 0.84878 0.35031 0.0
O65 O 0.63042 0.89794 0.28335 0.0
Sc66 Sc 0.66982 0.56326 0.57201 0.0
Sc67 Sc 0.77069 0.64067 0.49732 0.0
Sc68 Sc 0.74249 0.52534 0.51466 0.0
O69 O 0.72765 0.5764 0.52834 0.0
C70 C 0.70906 0.50825 0.64624 0.0
C71 C 0.73541 0.66354 0.61688 0.0
C72 C 0.84182 0.6135 0.54398 0.0
C73 C 0.67542 0.63155 0.46814 0.0
C74 C 0.63269 0.47235 0.49603 0.0
C75 C 0.76916 0.57621 0.39338 0.0
O76 O 0.67935 0.52112 0.63739 0.0
O77 O 0.75837 0.67584 0.56928 0.0
O78 O 0.81608 0.57112 0.52944 0.0
O79 O 0.6556 0.60625 0.51297 0.0
O80 O 0.6712 0.47313 0.49833 0.0
O81 O 0.78626 0.61558 0.41832 0.0
O82 O 0.62713 0.50452 0.51717 0.0
O83 O 0.71561 0.64132 0.45116 0.0
O84 O 0.74838 0.53826 0.4217 0.0
O85 O 0.70753 0.62134 0.62962 0.0
O86 O 0.73669 0.50989 0.6066 0.0
O87 O 0.82857 0.64327 0.54163 0.0
Sc88 Sc 0.19995 0.75247 0.68142 0.0
Sc89 Sc 0.1123 0.77955 0.66377 0.0
Sc90 Sc 0.08931 0.67928 0.73909 0.0
O91 O 0.13388 0.73709 0.69513 0.0
C92 C 0.1433 0.64261 0.66324 0.0
C93 C 0.17536 0.77826 0.55999 0.0
C94 C 0.02618 0.68393 0.63517 0.0
C95 C 0.2106 0.85148 0.71018 0.0
C96 C 0.18395 0.71942 0.81304 0.0
C97 C 0.05433 0.74437 0.78357 0.0
O98 O 0.1811 0.68124 0.66572 0.0
O99 O 0.15317 0.79538 0.58488 0.0
O100 O 0.03167 0.66452 0.68036 0.0
O101 O 0.22749 0.82606 0.69561 0.0
O102 O 0.14135 0.68929 0.80422 0.0
O103 O 0.06463 0.76691 0.73566 0.0
O104 O 0.20982 0.74723 0.77339 0.0
O105 O 0.16745 0.83779 0.708 0.0
O106 O 0.06906 0.71699 0.79665 0.0
O107 O 0.19264 0.75774 0.58841 0.0
O108 O 0.10541 0.63682 0.68415 0.0
O109 O 0.05678 0.72398 0.61766 0.0
Sc110 Sc 0.39132 0.09906 0.90625 0.0
Sc111 Sc 0.31376 0.12148 0.83109 0.0
Sc112 Sc 0.42874 0.20954 0.84832 0.0
O113 O 0.37798 0.14338 0.86226 0.0
C114 C 0.4459 0.19383 0.98005 0.0
C115 C 0.29109 0.06335 0.95074 0.0
C116 C 0.34019 0.21964 0.87756 0.0
C117 C 0.32357 0.03585 0.80215 0.0
C118 C 0.48203 0.15324 0.83007 0.0
C119 C 0.37792 0.18468 0.72714 0.0
O120 O 0.43343 0.15125 0.97132 0.0
O121 O 0.27875 0.07345 0.9028 0.0
O122 O 0.38251 0.2367 0.86261 0.0
O123 O 0.34841 0.04139 0.84744 0.0
O124 O 0.48121 0.19097 0.83241 0.0
O125 O 0.33862 0.16258 0.75228 0.0
O126 O 0.44994 0.11535 0.85128 0.0
O127 O 0.314 0.06627 0.78472 0.0
O128 O 0.41588 0.20197 0.75535 0.0
O129 O 0.33332 0.07861 0.9639 0.0
O130 O 0.44401 0.21961 0.9403 0.0
O131 O 0.31068 0.1764 0.87567 0.0
Sc132 Sc 0.55376 0.67988 0.79342 0.0
Sc133 Sc 0.63121 0.78075 0.8681 0.0
Sc134 Sc 0.516 0.75267 0.85077 0.0
O135 O 0.56697 0.73775 0.83708 0.0
C136 C 0.49894 0.71932 0.71918 0.0
C137 C 0.65401 0.74537 0.74857 0.0
C138 C 0.60416 0.85198 0.82145 0.0
C139 C 0.62193 0.68539 0.89733 0.0
C140 C 0.46293 0.64285 0.86942 0.0
C141 C 0.5668 0.77921 0.97204 0.0
O142 O 0.51167 0.68949 0.72806 0.0
O143 O 0.66632 0.76831 0.79619 0.0
O144 O 0.56183 0.82628 0.83613 0.0
O145 O 0.5967 0.6656 0.85246 0.0
O146 O 0.46374 0.68139 0.86698 0.0
O147 O 0.60616 0.79642 0.94707 0.0
O148 O 0.49507 0.63723 0.84836 0.0
O149 O 0.63172 0.72561 0.91432 0.0
O150 O 0.52888 0.75843 0.94373 0.0
O151 O 0.61182 0.71758 0.73579 0.0
O152 O 0.50065 0.74699 0.7588 0.0
O153 O 0.63388 0.83868 0.82369 0.0
Sc154 Sc 0.74476 0.52562 0.01819 0.0
Sc155 Sc 0.83299 0.64058 0.03562 0.0
Sc156 Sc 0.85507 0.56297 0.95991 0.0
O157 O 0.81091 0.57635 0.0042 0.0
C158 C 0.80096 0.47219 0.03603 0.0
C159 C 0.76981 0.5763 0.13952 0.0
C160 C 0.91853 0.63051 0.064 0.0
C161 C 0.73484 0.61439 0.98934 0.0
C162 C 0.76021 0.50838 0.88639 0.0
C163 C 0.89082 0.66333 0.91574 0.0
O164 O 0.76327 0.47307 0.03395 0.0
O165 O 0.79209 0.61566 0.11453 0.0
O166 O 0.91286 0.60576 0.01858 0.0
O167 O 0.71772 0.57198 0.00402 0.0
O168 O 0.8028 0.52092 0.89495 0.0
O169 O 0.88086 0.67564 0.9638 0.0
O170 O 0.73453 0.51032 0.92623 0.0
O171 O 0.77808 0.64387 0.99139 0.0
O172 O 0.87547 0.62108 0.90243 0.0
O173 O 0.75234 0.53837 0.11118 0.0
O174 O 0.8388 0.50426 0.01469 0.0
O175 O 0.88821 0.64015 0.08165 0.0
Sc176 Sc 0.27502 0.86474 0.12748 0.0
Sc177 Sc 0.17458 0.84146 0.20243 0.0
Sc178 Sc 0.2019 0.75393 0.18489 0.0
O179 O 0.21718 0.82003 0.17124 0.0
C180 C 0.23514 0.77018 0.05332 0.0
C181 C 0.20999 0.89968 0.08282 0.0
C182 C 0.10292 0.74315 0.15576 0.0
C183 C 0.26994 0.92768 0.23144 0.0
C184 C 0.31171 0.81075 0.20335 0.0
C185 C 0.1757 0.77829 0.30618 0.0
O186 O 0.26522 0.8128 0.06225 0.0
O187 O 0.18735 0.88929 0.13065 0.0
O188 O 0.12833 0.72628 0.17045 0.0
O189 O 0.2895 0.92229 0.18633 0.0
O190 O 0.27312 0.7729 0.20082 0.0
O191 O 0.15854 0.80039 0.28119 0.0
O192 O 0.31745 0.84866 0.18247 0.0
O193 O 0.22992 0.89697 0.24882 0.0
O194 O 0.19641 0.76116 0.27788 0.0
O195 O 0.2374 0.88499 0.06982 0.0
O196 O 0.20733 0.74421 0.09292 0.0
O197 O 0.11656 0.78632 0.15791 0.0
Sc198 Sc 0.42822 0.21135 0.35192 0.0
Sc199 Sc 0.31308 0.18347 0.36938 0.0
Sc200 Sc 0.39056 0.28417 0.29445 0.0
O201 O 0.37731 0.22635 0.33824 0.0
C202 C 0.48142 0.32122 0.37034 0.0
C203 C 0.37749 0.18496 0.47326 0.0
C204 C 0.32245 0.27887 0.39838 0.0
C205 C 0.33992 0.11208 0.32274 0.0
C206 C 0.44534 0.24462 0.2203 0.0
C207 C 0.29029 0.21884 0.24981 0.0
O208 O 0.48056 0.28265 0.368 0.0
O209 O 0.33812 0.16777 0.44834 0.0
O210 O 0.34763 0.29855 0.35341 0.0
O211 O 0.38227 0.13774 0.33738 0.0
O212 O 0.43265 0.27448 0.22914 0.0
O213 O 0.27797 0.19601 0.29752 0.0
O214 O 0.44356 0.21693 0.25996 0.0
O215 O 0.31025 0.12545 0.325 0.0
O216 O 0.33249 0.24641 0.23687 0.0
O217 O 0.41539 0.20569 0.44489 0.0
O218 O 0.44928 0.32685 0.3493 0.0
O219 O 0.31274 0.23872 0.41558 0.0
Sc220 Sc 0.08937 0.40163 0.46012 0.0
Sc221 Sc 0.11117 0.32383 0.53587 0.0
Sc222 Sc 0.19958 0.43876 0.51863 0.0
O223 O 0.13341 0.38812 0.5045 0.0
C224 C 0.18435 0.45622 0.3868 0.0
C225 C 0.05354 0.30129 0.41579 0.0
C226 C 0.20939 0.34992 0.48979 0.0
C227 C 0.02565 0.33401 0.56399 0.0
C228 C 0.14346 0.49228 0.53647 0.0
C229 C 0.17434 0.38797 0.63997 0.0
O230 O 0.14176 0.44371 0.39527 0.0
O231 O 0.06343 0.2889 0.46385 0.0
O232 O 0.22653 0.39235 0.50439 0.0
O233 O 0.03144 0.35884 0.5186 0.0
O234 O 0.18112 0.49134 0.53449 0.0
O235 O 0.15185 0.34862 0.61499 0.0
O236 O 0.10565 0.4603 0.51498 0.0
O237 O 0.0559 0.32431 0.58171 0.0
O238 O 0.19195 0.42591 0.61162 0.0
O239 O 0.06896 0.34356 0.40256 0.0
O240 O 0.20994 0.4542 0.42669 0.0
O241 O 0.16615 0.32047 0.49186 0.0
Sc242 Sc 0.74206 0.21021 0.68418 0.0
Sc243 Sc 0.7694 0.12266 0.7014 0.0
Sc244 Sc 0.66889 0.09945 0.62663 0.0
O245 O 0.72678 0.14412 0.67037 0.0
C246 C 0.63229 0.15336 0.70283 0.0
C247 C 0.76831 0.18572 0.80541 0.0
C248 C 0.674 0.03638 0.73033 0.0
C249 C 0.84106 0.22109 0.65497 0.0
C250 C 0.70879 0.19407 0.55261 0.0
C251 C 0.734 0.06463 0.58162 0.0
O252 O 0.67087 0.19121 0.70029 0.0
O253 O 0.78531 0.16348 0.78037 0.0
O254 O 0.65439 0.04184 0.68535 0.0
O255 O 0.81561 0.23791 0.66963 0.0
O256 O 0.6787 0.15145 0.56149 0.0
O257 O 0.75674 0.07505 0.62938 0.0
O258 O 0.73657 0.22001 0.59223 0.0
O259 O 0.82746 0.17793 0.65709 0.0
O260 O 0.70644 0.07918 0.56882 0.0
O261 O 0.74766 0.20296 0.77716 0.0
O262 O 0.62651 0.11549 0.68179 0.0
O263 O 0.71407 0.06703 0.74762 0.0
C264 C 0.15454 0.347 0.7365 0.0
C265 C 0.17661 0.3889 0.70493 0.0
H266 H 0.13605 0.31393 0.81994 0.0
C267 C 0.19744 0.43104 0.73618 0.0
H268 H 0.13775 0.31381 0.71416 0.0
C269 C 0.19626 0.43111 0.79758 0.0
C270 C 0.17409 0.38904 0.82896 0.0
H271 H 0.21437 0.46398 0.71327 0.0
H272 H 0.21307 0.46409 0.82038 0.0
C273 C 0.1532 0.34707 0.7975 0.0
C274 C 0.74648 0.2065 0.96319 0.0
C275 C 0.76703 0.18499 0.99435 0.0
H276 H 0.73117 0.22425 0.87904 0.0
C277 C 0.78891 0.16511 0.9627 0.0
H278 H 0.7297 0.22255 0.98615 0.0
C279 C 0.79036 0.16669 0.90172 0.0
C280 C 0.76977 0.18801 0.87035 0.0
H281 H 0.80548 0.14854 0.98497 0.0
H282 H 0.80737 0.15066 0.87924 0.0
C283 C 0.74776 0.20792 0.90179 0.0
C284 C 0.60778 0.80102 0.06851 0.0
C285 C 0.56587 0.78055 0.03698 0.0
H286 H 0.64089 0.81588 0.1519 0.0
C287 C 0.52377 0.75848 0.06826 0.0
H288 H 0.64094 0.81805 0.04614 0.0
C289 C 0.52375 0.75703 0.12964 0.0
C290 C 0.56582 0.77746 0.16096 0.0
H291 H 0.49084 0.74197 0.04539 0.0
H292 H 0.49079 0.74022 0.15248 0.0
C293 C 0.60775 0.7994 0.12949 0.0
C294 C 0.74836 0.53321 0.29713 0.0
C295 C 0.7706 0.5753 0.32845 0.0
H296 H 0.73001 0.5003 0.21287 0.0
C297 C 0.79136 0.61726 0.29696 0.0
H298 H 0.73163 0.50024 0.31997 0.0
C299 C 0.78982 0.6173 0.23599 0.0
C300 C 0.76768 0.57537 0.20447 0.0
H301 H 0.80856 0.65042 0.31936 0.0
H302 H 0.80652 0.65048 0.21363 0.0
C303 C 0.74698 0.53325 0.23574 0.0
C304 C 0.19788 0.75773 0.46386 0.0
C305 C 0.1775 0.7794 0.49506 0.0
H306 H 0.21288 0.73974 0.37967 0.0
C307 C 0.15561 0.79929 0.46349 0.0
H308 H 0.21465 0.74165 0.48678 0.0
C309 C 0.15397 0.79756 0.40253 0.0
C310 C 0.17439 0.7761 0.37111 0.0
H311 H 0.13917 0.81597 0.4858 0.0
H312 H 0.13697 0.81362 0.3801 0.0
C313 C 0.19642 0.75618 0.40247 0.0
C314 C 0.33662 0.16336 0.56983 0.0
C315 C 0.37849 0.18366 0.53821 0.0
H316 H 0.30362 0.14864 0.6533 0.0
C317 C 0.42063 0.20559 0.56938 0.0
H318 H 0.30343 0.14644 0.54754 0.0
C319 C 0.42074 0.20706 0.63077 0.0
C320 C 0.37871 0.18678 0.66219 0.0
H321 H 0.45353 0.22197 0.54644 0.0
H322 H 0.45372 0.22375 0.65353 0.0
C323 C 0.33673 0.16499 0.63081 0.0
C324 C 0.33653 0.31962 0.95131 0.0
C325 C 0.29049 0.30815 0.94014 0.0
H326 H 0.38876 0.30059 0.93938 0.0
C327 C 0.26228 0.26902 0.90532 0.0
H328 H 0.35906 0.34944 0.97804 0.0
C329 C 0.27881 0.24075 0.88464 0.0
C330 C 0.32425 0.25142 0.89706 0.0
H331 H 0.22656 0.25888 0.89588 0.0
H332 H 0.25579 0.21021 0.85927 0.0
C333 C 0.35347 0.2917 0.9293 0.0
C334 C -0.00038 0.34748 0.11884 0.0
C335 C 0.96449 0.30181 0.10629 0.0
H336 H 0.07144 0.39931 0.10825 0.0
C337 C -0.02496 0.27395 0.07039 0.0
H338 H -0.00737 0.36973 0.14642 0.0
C339 C 0.01996 0.29036 0.05003 0.0
C340 C 0.05527 0.33537 0.06383 0.0
H341 H 0.94904 0.23853 0.05983 0.0
H342 H 0.02717 0.26758 0.0238 0.0
C343 C 0.04462 0.36434 0.09713 0.0
C344 C 0.71226 0.0301 0.2153 0.0
C345 C 0.70216 0.06507 0.22885 0.0
H346 H 0.69376 0.95943 0.22569 0.0
C347 C 0.66246 0.05407 0.26221 0.0
H348 H 0.74235 0.0376 0.18905 0.0
C349 C 0.63462 0.00908 0.28425 0.0
C350 C 0.64557 0.97431 0.272 0.0
H351 H 0.65403 0.08064 0.27315 0.0
H352 H 0.6053 0.00184 0.31188 0.0
C353 C 0.68405 -0.01484 0.23602 0.0
C354 C 0.6084 0.64482 0.45007 0.0
C355 C 0.65451 0.65642 0.43915 0.0
H356 H 0.55606 0.66367 0.43785 0.0
C357 C 0.68278 0.69565 0.4045 0.0
H358 H 0.58583 0.61492 0.47667 0.0
C359 C 0.66621 0.72386 0.38371 0.0
C360 C 0.62067 0.71305 0.39587 0.0
H361 H 0.71856 0.70589 0.39527 0.0
H362 H 0.68927 0.75447 0.35847 0.0
C363 C 0.59142 0.67268 0.42797 0.0
C364 C 0.9451 0.61715 0.61871 0.0
C365 C -0.01978 0.66286 0.60636 0.0
H366 H 0.87333 0.56526 0.60778 0.0
C367 C 0.96974 0.69074 0.57041 0.0
H368 H 0.95203 0.59487 0.64632 0.0
C369 C 0.92487 0.6743 0.54982 0.0
C370 C 0.88956 0.62924 0.56344 0.0
H371 H -0.00426 0.72619 0.55999 0.0
H372 H 0.91771 0.6971 0.52358 0.0
C373 C 0.90015 0.60026 0.59679 0.0
C374 C 0.30992 0.95519 0.78522 0.0
C375 C 0.29899 -0.01002 0.77306 0.0
H376 H 0.29052 0.88365 0.77395 0.0
C377 C 0.26057 0.9792 0.73701 0.0
H378 H 0.33919 0.96238 0.81289 0.0
C379 C 0.23239 0.93431 0.71616 0.0
C380 C 0.24246 0.89931 0.72965 0.0
H381 H 0.25088 0.00495 0.72672 0.0
H382 H 0.20234 0.92687 0.68987 0.0
C383 C 0.28211 0.91024 0.76305 0.0
C384 C 0.63515 0.61829 0.91529 0.0
C385 C 0.64669 0.66439 0.92639 0.0
H386 H 0.65399 0.56592 0.92739 0.0
C387 C 0.68576 0.69257 0.96129 0.0
H388 H 0.60537 0.59579 0.8885 0.0
C389 C 0.7139 0.67595 0.98213 0.0
C390 C 0.70317 0.63044 0.96976 0.0
H391 H 0.69595 0.72833 0.97067 0.0
H392 H 0.74441 0.69894 0.00754 0.0
C393 C 0.66294 0.60126 0.93744 0.0
C394 C -0.02483 0.69301 0.12974 0.0
C395 C 0.96441 0.65491 0.09305 0.0
H396 H 0.0275 0.75095 0.17733 0.0
C397 C -0.00077 0.64417 0.08023 0.0
H398 H 0.94939 0.70254 0.14058 0.0
C399 C 0.0442 0.67189 0.10236 0.0
C400 C 0.0551 0.71127 0.13638 0.0
H401 H -0.00793 0.61513 0.05207 0.0
H402 H 0.07082 0.66367 0.09095 0.0
C403 C 0.02006 0.72112 0.15055 0.0
C404 C 0.26258 -0.0158 0.29545 0.0
C405 C 0.29078 0.97364 0.26024 0.0
H406 H 0.2559 0.03629 0.34175 0.0
C407 C 0.33663 0.0087 0.24857 0.0
H408 H 0.227 0.95824 0.30527 0.0
C409 C 0.35338 0.05365 0.27051 0.0
C410 C 0.32416 0.06432 0.30317 0.0
H411 H 0.35913 0.00171 0.22151 0.0
H412 H 0.38853 0.08041 0.26008 0.0
C413 C 0.27891 0.02907 0.31605 0.0
C414 C 0.23031 0.28834 0.48276 0.0
C415 C 0.24106 0.33384 0.47031 0.0
H416 H 0.2483 0.23596 0.47154 0.0
C417 C 0.28134 0.363 0.43804 0.0
H418 H 0.19976 0.26536 0.50814 0.0
C419 C 0.30917 0.34596 0.41605 0.0
C420 C 0.29764 0.29988 0.42727 0.0
H421 H 0.2903 0.39833 0.42792 0.0
H422 H 0.339 0.36845 0.38931 0.0
C423 C 0.2585 0.27171 0.46209 0.0
C424 C 0.92396 0.24331 0.65023 0.0
C425 C 0.8889 0.25303 0.63575 0.0
H426 H -0.00529 0.26206 0.64072 0.0
C427 C 0.89982 0.29238 0.60165 0.0
H428 H 0.91651 0.21351 0.67709 0.0
C429 C 0.94484 0.32019 0.57974 0.0
C430 C -0.0203 0.30956 0.59286 0.0
H431 H 0.87317 0.3005 0.59002 0.0
H432 H 0.95203 0.34919 0.5515 0.0
C433 C 0.96891 0.2715 0.62965 0.0
C434 C 0.66504 0.93501 0.81495 0.0
C435 C 0.61985 0.89972 0.80192 0.0
H436 H 0.71688 0.00587 0.80434 0.0
C437 C 0.59064 0.91035 0.76918 0.0
H438 H 0.68804 0.92782 0.84071 0.0
C439 C 0.60736 0.9553 0.74729 0.0
C440 C 0.65317 -0.0096 0.75909 0.0
H441 H 0.55553 0.88354 0.75865 0.0
H442 H 0.58488 0.96226 0.72016 0.0
C443 C 0.68134 0.97989 0.79439 0.0
C444 C 0.39066 0.52856 0.94903 0.0
C445 C 0.35125 0.53113 0.96503 0.0
H446 H 0.45647 0.5614 0.90561 0.0
C447 C 0.34863 0.57041 0.94846 0.0
H448 H 0.39365 0.49864 0.96067 0.0
C449 C 0.38462 0.60636 0.9169 0.0
C450 C 0.42395 0.60375 0.90068 0.0
H451 H 0.31876 0.57351 0.95993 0.0
H452 H 0.38152 0.6362 0.90519 0.0
C453 C 0.42651 0.56438 0.91698 0.0
C454 C 0.84313 0.43595 0.08305 0.0
C455 C 0.80107 0.43328 0.06723 0.0
H456 H 0.87619 0.40328 0.12626 0.0
C457 C 0.75908 0.39395 0.08389 0.0
H458 H 0.87611 0.46591 0.07135 0.0
C459 C 0.75913 0.35805 0.11538 0.0
C460 C 0.80117 0.36079 0.13144 0.0
H461 H 0.72604 0.39079 0.07256 0.0
H462 H 0.72612 0.32815 0.12718 0.0
C463 C 0.84318 0.40021 0.11503 0.0
C464 C 0.42608 0.85294 0.28234 0.0
C465 C 0.42352 0.8109 0.29811 0.0
H466 H 0.39323 0.88594 0.2394 0.0
C467 C 0.38418 0.76885 0.28164 0.0
H468 H 0.45604 0.88597 0.29391 0.0
C469 C 0.34816 0.76884 0.25039 0.0
C470 C 0.35079 0.81086 0.23438 0.0
H471 H 0.38109 0.73582 0.29293 0.0
H472 H 0.31826 0.73579 0.23872 0.0
C473 C 0.39022 0.85293 0.25061 0.0
C474 C 0.55404 0.43584 0.44909 0.0
C475 C 0.59348 0.43331 0.465 0.0
H476 H 0.48809 0.40286 0.40606 0.0
C477 C 0.59599 0.39392 0.44871 0.0
H478 H 0.55113 0.46584 0.46053 0.0
C479 C 0.55986 0.35782 0.41749 0.0
C480 C 0.52051 0.36041 0.40134 0.0
H481 H 0.62588 0.39083 0.46013 0.0
H482 H 0.56288 0.3279 0.40597 0.0
C483 C 0.51805 0.39989 0.41738 0.0
C484 C 0.18533 0.57041 0.5846 0.0
C485 C 0.14335 0.53117 0.56775 0.0
H486 H 0.21828 0.63613 0.62808 0.0
C487 C 0.10129 0.52855 0.58345 0.0
H488 H 0.21837 0.57354 0.57337 0.0
C489 C 0.10123 0.56427 0.61548 0.0
C490 C 0.14324 0.60361 0.63206 0.0
H491 H 0.0683 0.49865 0.57161 0.0
H492 H 0.06822 0.56124 0.62661 0.0
C493 C 0.18528 0.60629 0.61614 0.0
C494 C 0.5602 0.19522 0.78212 0.0
C495 C 0.52091 0.15318 0.79872 0.0
H496 H 0.62591 0.2283 0.73871 0.0
C497 C 0.51823 0.11114 0.78269 0.0
H498 H 0.56337 0.22826 0.7936 0.0
C499 C 0.55394 0.11115 0.75055 0.0
C500 C 0.59332 0.15322 0.73419 0.0
H501 H 0.4883 0.07811 0.79434 0.0
H502 H 0.55086 0.07815 0.73916 0.0
C503 C 0.59605 0.19525 0.75046 0.0
C504 C 0.23337 0.24203 0.12291 0.0
C505 C 0.21472 0.26642 0.1515 0.0
H506 H 0.27303 0.20774 0.13228 0.0
C507 C 0.21297 0.26613 0.21289 0.0
H508 H 0.23607 0.24276 0.07553 0.0
C509 C 0.2325 0.24451 0.24521 0.0
C510 C 0.25568 0.22459 0.21656 0.0
H511 H 0.19963 0.2855 0.23575 0.0
H512 H 0.2339 0.24783 0.29254 0.0
C513 C 0.25458 0.22206 0.15522 0.0
C514 C 0.96985 0.2433 0.41072 0.0
C515 C 0.0131 0.26684 0.38224 0.0
H516 H 0.89585 0.21003 0.40102 0.0
C517 C 0.01468 0.26609 0.32088 0.0
H518 H 0.9678 0.24439 0.45805 0.0
C519 C -0.02651 0.24485 0.28841 0.0
C520 C 0.93029 0.22579 0.31687 0.0
H521 H 0.04757 0.2848 0.29809 0.0
H522 H -0.0244 0.2478 0.24106 0.0
C523 C 0.92869 0.22372 0.37824 0.0
C524 C 0.73028 0.02613 0.48644 0.0
C525 C 0.72866 0.0246 0.54783 0.0
H526 H 0.70941 -0.01312 0.40673 0.0
C527 C 0.71024 0.98145 0.57634 0.0
H528 H 0.74348 0.05893 0.46365 0.0
C529 C 0.68916 0.94019 0.54397 0.0
C530 C 0.68795 0.94167 0.48263 0.0
H531 H 0.70765 0.9794 0.62373 0.0
H532 H 0.67092 0.90729 0.56685 0.0
C533 C 0.71088 -0.01508 0.45404 0.0
C534 C 0.73207 0.69897 0.71165 0.0
C535 C 0.73002 0.69832 0.65029 0.0
H536 H 0.71122 0.71738 0.79127 0.0
C537 C 0.71091 0.72224 0.6216 0.0
H538 H 0.74579 0.67996 0.73458 0.0
C539 C 0.68953 0.74206 0.65387 0.0
C540 C 0.68872 0.73984 0.71523 0.0
H541 H 0.70798 0.72123 0.57425 0.0
H542 H 0.67073 0.75599 0.63092 0.0
C543 C 0.71237 0.72045 0.74392 0.0
C544 C 0.97106 0.71995 0.78861 0.0
C545 C 0.0142 0.73888 0.81717 0.0
H546 H 0.89696 0.68008 0.7981 0.0
C547 C 0.01571 0.74087 0.87854 0.0
H548 H 0.96904 0.71708 0.74124 0.0
C549 C -0.0255 0.72129 0.91092 0.0
C550 C 0.9313 0.69784 0.88232 0.0
H551 H 0.04851 0.75447 0.90138 0.0
H552 H -0.02353 0.72011 0.95825 0.0
C553 C 0.92982 0.69871 0.82097 0.0
C554 C 0.23317 0.97962 0.95551 0.0
C555 C 0.2566 0.02283 0.98413 0.0
H556 H 0.19997 0.90557 0.965 0.0
C557 C 0.25571 0.02429 0.04549 0.0
H558 H 0.23437 0.97767 0.90817 0.0
C559 C 0.23445 -0.01698 0.07783 0.0
C560 C 0.21551 0.93986 0.04924 0.0
H561 H 0.27433 0.05716 0.06838 0.0
H562 H 0.23729 -0.01498 0.12519 0.0
C563 C 0.21357 0.93837 0.98786 0.0
C564 C 0.24487 0.46892 0.31193 0.0
C565 C 0.20291 0.46726 0.32604 0.0
H566 H 0.28852 0.46726 0.24431 0.0
C567 C 0.17606 0.46984 0.28027 0.0
H568 H 0.26668 0.46727 0.34594 0.0
C569 C 0.18881 0.47011 0.22179 0.0
C570 C 0.22855 0.46745 0.20764 0.0
H571 H 0.14378 0.46908 0.2894 0.0
H572 H 0.16579 0.46941 0.18778 0.0
C573 C 0.25745 0.46884 0.25345 0.0
C574 C 0.68707 0.18482 0.44594 0.0
C575 C 0.71621 0.21229 0.49167 0.0
H576 H 0.67761 0.17395 0.35349 0.0
C577 C 0.75628 0.25461 0.47742 0.0
H578 H 0.65574 0.15224 0.45516 0.0
C579 C 0.76906 0.267 0.41892 0.0
C580 C 0.74189 0.23757 0.37321 0.0
H581 H 0.77951 0.2769 0.51138 0.0
H582 H 0.80155 0.29843 0.40971 0.0
C583 C 0.69966 0.1974 0.38743 0.0
C584 C 0.4864 0.69747 0.61253 0.0
C585 C 0.488 0.72655 0.65825 0.0
H586 H 0.48764 0.68794 0.52007 0.0
C587 C 0.48546 0.76637 0.64399 0.0
H588 H 0.48788 0.66634 0.62175 0.0
C589 C 0.48561 0.77898 0.58549 0.0
C590 C 0.48792 0.75191 0.53978 0.0
H591 H 0.48635 0.78953 0.67794 0.0
H592 H 0.48646 0.81131 0.57627 0.0
C593 C 0.48618 0.7099 0.55401 0.0
C594 C 0.76868 0.49488 0.77988 0.0
C595 C 0.74174 0.4974 0.8256 0.0
H596 H 0.77908 0.49539 0.68742 0.0
C597 C 0.6998 0.49573 0.81142 0.0
H598 H 0.80095 0.49565 0.78907 0.0
C599 C 0.68731 0.49586 0.75292 0.0
C600 C 0.71627 0.4973 0.70717 0.0
H601 H 0.67794 0.49735 0.84538 0.0
H602 H 0.65624 0.49743 0.74372 0.0
C603 C 0.75601 0.49464 0.72138 0.0
C604 C 0.24449 0.76691 0.88818 0.0
C605 C 0.20226 0.72674 0.8739 0.0
H606 H 0.28832 0.81203 0.95596 0.0
C607 C 0.17502 0.69732 0.91957 0.0
H608 H 0.2666 0.79035 0.85426 0.0
C609 C 0.18771 0.70969 0.97809 0.0
C610 C 0.22778 0.752 0.99238 0.0
H611 H 0.14252 0.66591 0.91031 0.0
H612 H 0.16442 0.68741 0.01201 0.0
C613 C 0.257 0.77947 0.9467 0.0
C614 C 0.45881 0.18498 0.08667 0.0
C615 C 0.45668 0.21215 0.04094 0.0
H616 H 0.45782 0.17432 0.17912 0.0
C617 C 0.45848 0.25418 0.05518 0.0
H618 H 0.45791 0.15263 0.07745 0.0
C619 C 0.45814 0.26655 0.11369 0.0
C620 C 0.45637 0.2374 0.15941 0.0
H621 H 0.45715 0.2762 0.02122 0.0
H622 H 0.45672 0.29772 0.1229 0.0
C623 C 0.45884 0.19755 0.14518 0.0
loop_
_geom_bond_atom_site_label_1
_geom_bond_atom_site_label_2
_geom_bond_distance
_geom_bond_site_symmetry_2
_ccdc_geom_bond_type
Sc0 O3 2.025 . S
Sc0 O10 2.105 1_554 S
Sc0 O13 2.105 . S
Sc0 O16 2.105 . S
Sc0 O19 2.105 1_554 S
Sc1 O3 2.025 1_556 S
Sc1 O11 2.105 . S
Sc1 O15 2.105 1_556 S
Sc1 O17 2.105 1_556 S
Sc1 O21 2.105 . S
Sc2 O3 2.025 . S
Sc2 O12 2.105 1_554 S
Sc2 O14 2.105 . S
Sc2 O18 2.105 . S
Sc2 O20 2.105 . S
O3 Sc0 2.025 . S
O3 Sc1 2.025 1_554 S
O3 Sc2 2.025 . S
C4 O10 1.268 . S
C4 O20 1.268 1_556 S
C5 O11 1.268 . S
C5 O19 1.268 . S
C6 O12 1.268 . S
C6 O21 1.268 . S
C7 O13 1.268 . S
C7 O17 1.268 . S
C8 O14 1.268 . S
C8 O16 1.268 . S
C9 O15 1.268 . S
C9 O18 1.268 . S
O10 Sc0 2.105 1_556 S
O10 C4 1.268 . S
O11 Sc1 2.105 . S
O11 C5 1.268 . S
O12 Sc2 2.105 1_556 S
O12 C6 1.268 . S
O13 Sc0 2.105 . S
O13 C7 1.268 . S
O14 Sc2 2.105 . S
O14 C8 1.268 . S
O15 Sc1 2.105 1_554 S
O15 C9 1.268 . S
O16 Sc0 2.105 . S
O16 C8 1.268 . S
O17 Sc1 2.105 1_554 S
O17 C7 1.268 . S
O18 Sc2 2.105 . S
O18 C9 1.268 . S
O19 Sc0 2.105 1_556 S
O19 C5 1.268 . S
O20 Sc2 2.105 . S
O20 C4 1.268 1_554 S
O21 Sc1 2.105 . S
O21 C6 1.268 . S
Sc22 O25 2.025 . S
Sc22 O32 2.105 . S
Sc22 O35 2.105 . S
Sc22 O38 2.105 . S
Sc22 O41 2.105 . S
Sc23 O25 2.025 . S
Sc23 O33 2.105 . S
Sc23 O37 2.105 . S
Sc23 O39 2.105 . S
Sc23 O43 2.105 . S
Sc24 O25 2.025 . S
Sc24 O34 2.105 . S
Sc24 O36 2.105 . S
Sc24 O40 2.105 . S
Sc24 O42 2.105 . S
O25 Sc22 2.025 . S
O25 Sc23 2.025 . S
O25 Sc24 2.025 . S
C26 O32 1.268 . S
C26 O42 1.268 . S
C27 O33 1.268 . S
C27 O41 1.268 . S
C28 O34 1.268 . S
C28 O43 1.268 . S
C29 O35 1.268 . S
C29 O39 1.268 . S
C30 O36 1.268 . S
C30 O38 1.268 . S
C31 O37 1.268 . S
C31 O40 1.268 . S
O32 Sc22 2.105 . S
O32 C26 1.268 . S
O33 Sc23 2.105 . S
O33 C27 1.268 . S
O34 Sc24 2.105 . S
O34 C28 1.268 . S
O35 Sc22 2.105 . S
O35 C29 1.268 . S
O36 Sc24 2.105 . S
O36 C30 1.268 . S
O37 Sc23 2.105 . S
O37 C31 1.268 . S
O38 Sc22 2.105 . S
O38 C30 1.268 . S
O39 Sc23 2.105 . S
O39 C29 1.268 . S
O40 Sc24 2.105 . S
O40 C31 1.268 . S
O41 Sc22 2.105 . S
O41 C27 1.268 . S
O42 Sc24 2.105 . S
O42 C26 1.268 . S
O43 Sc23 2.105 . S
O43 C28 1.268 . S
Sc44 O47 2.025 . S
Sc44 O54 2.105 . S
Sc44 O57 2.105 . S
Sc44 O60 2.105 . S
Sc44 O63 2.105 . S
Sc45 O47 2.025 . S
Sc45 O55 2.105 . S
Sc45 O59 2.105 . S
Sc45 O61 2.105 . S
Sc45 O65 2.105 . S
Sc46 O47 2.025 . S
Sc46 O56 2.105 . S
Sc46 O58 2.105 . S
Sc46 O62 2.105 . S
Sc46 O64 2.105 . S
O47 Sc44 2.025 . S
O47 Sc45 2.025 . S
O47 Sc46 2.025 . S
C48 O54 1.268 . S
C48 O64 1.268 . S
C49 O55 1.268 . S
C49 O63 1.268 . S
C50 O56 1.268 . S
C50 O65 1.268 . S
C51 O57 1.268 . S
C51 O61 1.268 . S
C52 O58 1.268 . S
C52 O60 1.268 . S
C53 O59 1.268 . S
C53 O62 1.268 . S
O54 Sc44 2.105 . S
O54 C48 1.268 . S
O55 Sc45 2.105 . S
O55 C49 1.268 . S
O56 Sc46 2.105 . S
O56 C50 1.268 . S
O57 Sc44 2.105 . S
O57 C51 1.268 . S
O58 Sc46 2.105 . S
O58 C52 1.268 . S
O59 Sc45 2.105 . S
O59 C53 1.268 . S
O60 Sc44 2.105 . S
O60 C52 1.268 . S
O61 Sc45 2.105 . S
O61 C51 1.268 . S
O62 Sc46 2.105 . S
O62 C53 1.268 . S
O63 Sc44 2.105 . S
O63 C49 1.268 . S
O64 Sc46 2.105 . S
O64 C48 1.268 . S
O65 Sc45 2.105 . S
O65 C50 1.268 . S
Sc66 O69 2.025 . S
Sc66 O76 2.105 . S
Sc66 O79 2.105 . S
Sc66 O82 2.105 . S
Sc66 O85 2.105 . S
Sc67 O69 2.025 . S
Sc67 O77 2.105 . S
Sc67 O81 2.105 . S
Sc67 O83 2.105 . S
Sc67 O87 2.105 . S
Sc68 O69 2.025 . S
Sc68 O78 2.105 . S
Sc68 O80 2.105 . S
Sc68 O84 2.105 . S
Sc68 O86 2.105 . S
O69 Sc66 2.025 . S
O69 Sc67 2.025 . S
O69 Sc68 2.025 . S
C70 O76 1.268 . S
C70 O86 1.268 . S
C71 O77 1.268 . S
C71 O85 1.268 . S
C72 O78 1.268 . S
C72 O87 1.268 . S
C73 O79 1.268 . S
C73 O83 1.268 . S
C74 O80 1.268 . S
C74 O82 1.268 . S
C75 O81 1.268 . S
C75 O84 1.268 . S
O76 Sc66 2.105 . S
O76 C70 1.268 . S
O77 Sc67 2.105 . S
O77 C71 1.268 . S
O78 Sc68 2.105 . S
O78 C72 1.268 . S
O79 Sc66 2.105 . S
O79 C73 1.268 . S
O80 Sc68 2.105 . S
O80 C74 1.268 . S
O81 Sc67 2.105 . S
O81 C75 1.268 . S
O82 Sc66 2.105 . S
O82 C74 1.268 . S
O83 Sc67 2.105 . S
O83 C73 1.268 . S
O84 Sc68 2.105 . S
O84 C75 1.268 . S
O85 Sc66 2.105 . S
O85 C71 1.268 . S
O86 Sc68 2.105 . S
O86 C70 1.268 . S
O87 Sc67 2.105 . S
O87 C72 1.268 . S
Sc88 O91 2.025 . S
Sc88 O98 2.105 . S
Sc88 O101 2.105 . S
Sc88 O104 2.105 . S
Sc88 O107 2.105 . S
Sc89 O91 2.025 . S
Sc89 O99 2.105 . S
Sc89 O103 2.105 . S
Sc89 O105 2.105 . S
Sc89 O109 2.105 . S
Sc90 O91 2.025 . S
Sc90 O100 2.105 . S
Sc90 O102 2.105 . S
Sc90 O106 2.105 . S
Sc90 O108 2.105 . S
O91 Sc88 2.025 . S
O91 Sc89 2.025 . S
O91 Sc90 2.025 . S
C92 O98 1.268 . S
C92 O108 1.268 . S
C93 O99 1.268 . S
C93 O107 1.268 . S
C94 O100 1.268 . S
C94 O109 1.268 . S
C95 O101 1.268 . S
C95 O105 1.268 . S
C96 O102 1.268 . S
C96 O104 1.268 . S
C97 O103 1.268 . S
C97 O106 1.268 . S
O98 Sc88 2.105 . S
O98 C92 1.268 . S
O99 Sc89 2.105 . S
O99 C93 1.268 . S
O100 Sc90 2.105 . S
O100 C94 1.268 . S
O101 Sc88 2.105 . S
O101 C95 1.268 . S
O102 Sc90 2.105 . S
O102 C96 1.268 . S
O103 Sc89 2.105 . S
O103 C97 1.268 . S
O104 Sc88 2.105 . S
O104 C96 1.268 . S
O105 Sc89 2.105 . S
O105 C95 1.268 . S
O106 Sc90 2.105 . S
O106 C97 1.268 . S
O107 Sc88 2.105 . S
O107 C93 1.268 . S
O108 Sc90 2.105 . S
O108 C92 1.268 . S
O109 Sc89 2.105 . S
O109 C94 1.268 . S
Sc110 O113 2.025 . S
Sc110 O120 2.105 . S
Sc110 O123 2.105 . S
Sc110 O126 2.105 . S
Sc110 O129 2.105 . S
Sc111 O113 2.025 . S
Sc111 O121 2.105 . S
Sc111 O125 2.105 . S
Sc111 O127 2.105 . S
Sc111 O131 2.105 . S
Sc112 O113 2.025 . S
Sc112 O122 2.105 . S
Sc112 O124 2.105 . S
Sc112 O128 2.105 . S
Sc112 O130 2.105 . S
O113 Sc110 2.025 . S
O113 Sc111 2.025 . S
O113 Sc112 2.025 . S
C114 O120 1.268 . S
C114 O130 1.268 . S
C115 O121 1.268 . S
C115 O129 1.268 . S
C116 O122 1.268 . S
C116 O131 1.268 . S
C117 O123 1.268 . S
C117 O127 1.268 . S
C118 O124 1.268 . S
C118 O126 1.268 . S
C119 O125 1.268 . S
C119 O128 1.268 . S
O120 Sc110 2.105 . S
O120 C114 1.268 . S
O121 Sc111 2.105 . S
O121 C115 1.268 . S
O122 Sc112 2.105 . S
O122 C116 1.268 . S
O123 Sc110 2.105 . S
O123 C117 1.268 . S
O124 Sc112 2.105 . S
O124 C118 1.268 . S
O125 Sc111 2.105 . S
O125 C119 1.268 . S
O126 Sc110 2.105 . S
O126 C118 1.268 . S
O127 Sc111 2.105 . S
O127 C117 1.268 . S
O128 Sc112 2.105 . S
O128 C119 1.268 . S
O129 Sc110 2.105 . S
O129 C115 1.268 . S
O130 Sc112 2.105 . S
O130 C114 1.268 . S
O131 Sc111 2.105 . S
O131 C116 1.268 . S
Sc132 O135 2.025 . S
Sc132 O142 2.105 . S
Sc132 O145 2.105 . S
Sc132 O148 2.105 . S
Sc132 O151 2.105 . S
Sc133 O135 2.025 . S
Sc133 O143 2.105 . S
Sc133 O147 2.105 . S
Sc133 O149 2.105 . S
Sc133 O153 2.105 . S
Sc134 O135 2.025 . S
Sc134 O144 2.105 . S
Sc134 O146 2.105 . S
Sc134 O150 2.105 . S
Sc134 O152 2.105 . S
O135 Sc132 2.025 . S
O135 Sc133 2.025 . S
O135 Sc134 2.025 . S
C136 O142 1.268 . S
C136 O152 1.268 . S
C137 O143 1.268 . S
C137 O151 1.268 . S
C138 O144 1.268 . S
C138 O153 1.268 . S
C139 O145 1.268 . S
C139 O149 1.268 . S
C140 O146 1.268 . S
C140 O148 1.268 . S
C141 O147 1.268 . S
C141 O150 1.268 . S
O142 Sc132 2.105 . S
O142 C136 1.268 . S
O143 Sc133 2.105 . S
O143 C137 1.268 . S
O144 Sc134 2.105 . S
O144 C138 1.268 . S
O145 Sc132 2.105 . S
O145 C139 1.268 . S
O146 Sc134 2.105 . S
O146 C140 1.268 . S
O147 Sc133 2.105 . S
O147 C141 1.268 . S
O148 Sc132 2.105 . S
O148 C140 1.268 . S
O149 Sc133 2.105 . S
O149 C139 1.268 . S
O150 Sc134 2.105 . S
O150 C141 1.268 . S
O151 Sc132 2.105 . S
O151 C137 1.268 . S
O152 Sc134 2.105 . S
O152 C136 1.268 . S
O153 Sc133 2.105 . S
O153 C138 1.268 . S
Sc154 O157 2.025 . S
Sc154 O164 2.105 . S
Sc154 O167 2.105 1_554 S
Sc154 O170 2.105 1_554 S
Sc154 O173 2.105 . S
Sc155 O157 2.025 . S
Sc155 O165 2.105 . S
Sc155 O169 2.105 1_554 S
Sc155 O171 2.105 . S
Sc155 O175 2.105 . S
Sc156 O157 2.025 1_556 S
Sc156 O166 2.105 1_556 S
Sc156 O168 2.105 . S
Sc156 O172 2.105 . S
Sc156 O174 2.105 1_556 S
O157 Sc154 2.025 . S
O157 Sc155 2.025 . S
O157 Sc156 2.025 1_554 S
C158 O164 1.268 . S
C158 O174 1.268 . S
C159 O165 1.268 . S
C159 O173 1.268 . S
C160 O166 1.268 . S
C160 O175 1.268 . S
C161 O167 1.268 . S
C161 O171 1.268 1_556 S
C162 O168 1.268 . S
C162 O170 1.268 . S
C163 O169 1.268 . S
C163 O172 1.268 . S
O164 Sc154 2.105 . S
O164 C158 1.268 . S
O165 Sc155 2.105 . S
O165 C159 1.268 . S
O166 Sc156 2.105 1_554 S
O166 C160 1.268 . S
O167 Sc154 2.105 1_556 S
O167 C161 1.268 . S
O168 Sc156 2.105 . S
O168 C162 1.268 . S
O169 Sc155 2.105 1_556 S
O169 C163 1.268 . S
O170 Sc154 2.105 1_556 S
O170 C162 1.268 . S
O171 Sc155 2.105 . S
O171 C161 1.268 1_554 S
O172 Sc156 2.105 . S
O172 C163 1.268 . S
O173 Sc154 2.105 . S
O173 C159 1.268 . S
O174 Sc156 2.105 1_554 S
O174 C158 1.268 . S
O175 Sc155 2.105 . S
O175 C160 1.268 . S
Sc176 O179 2.025 . S
Sc176 O186 2.105 . S
Sc176 O189 2.105 . S
Sc176 O192 2.105 . S
Sc176 O195 2.105 . S
Sc177 O179 2.025 . S
Sc177 O187 2.105 . S
Sc177 O191 2.105 . S
Sc177 O193 2.105 . S
Sc177 O197 2.105 . S
Sc178 O179 2.025 . S
Sc178 O188 2.105 . S
Sc178 O190 2.105 . S
Sc178 O194 2.105 . S
Sc178 O196 2.105 . S
O179 Sc176 2.025 . S
O179 Sc177 2.025 . S
O179 Sc178 2.025 . S
C180 O186 1.268 . S
C180 O196 1.268 . S
C181 O187 1.268 . S
C181 O195 1.268 . S
C182 O188 1.268 . S
C182 O197 1.268 . S
C183 O189 1.268 . S
C183 O193 1.268 . S
C184 O190 1.268 . S
C184 O192 1.268 . S
C185 O191 1.268 . S
C185 O194 1.268 . S
O186 Sc176 2.105 . S
O186 C180 1.268 . S
O187 Sc177 2.105 . S
O187 C181 1.268 . S
O188 Sc178 2.105 . S
O188 C182 1.268 . S
O189 Sc176 2.105 . S
O189 C183 1.268 . S
O190 Sc178 2.105 . S
O190 C184 1.268 . S
O191 Sc177 2.105 . S
O191 C185 1.268 . S
O192 Sc176 2.105 . S
O192 C184 1.268 . S
O193 Sc177 2.105 . S
O193 C183 1.268 . S
O194 Sc178 2.105 . S
O194 C185 1.268 . S
O195 Sc176 2.105 . S
O195 C181 1.268 . S
O196 Sc178 2.105 . S
O196 C180 1.268 . S
O197 Sc177 2.105 . S
O197 C182 1.268 . S
Sc198 O201 2.025 . S
Sc198 O208 2.105 . S
Sc198 O211 2.105 . S
Sc198 O214 2.105 . S
Sc198 O217 2.105 . S
Sc199 O201 2.025 . S
Sc199 O209 2.105 . S
Sc199 O213 2.105 . S
Sc199 O215 2.105 . S
Sc199 O219 2.105 . S
Sc200 O201 2.025 . S
Sc200 O210 2.105 . S
Sc200 O212 2.105 . S
Sc200 O216 2.105 . S
Sc200 O218 2.105 . S
O201 Sc198 2.025 . S
O201 Sc199 2.025 . S
O201 Sc200 2.025 . S
C202 O208 1.268 . S
C202 O218 1.268 . S
C203 O209 1.268 . S
C203 O217 1.268 . S
C204 O210 1.268 . S
C204 O219 1.268 . S
C205 O211 1.268 . S
C205 O215 1.268 . S
C206 O212 1.268 . S
C206 O214 1.268 . S
C207 O213 1.268 . S
C207 O216 1.268 . S
O208 Sc198 2.105 . S
O208 C202 1.268 . S
O209 Sc199 2.105 . S
O209 C203 1.268 . S
O210 Sc200 2.105 . S
O210 C204 1.268 . S
O211 Sc198 2.105 . S
O211 C205 1.268 . S
O212 Sc200 2.105 . S
O212 C206 1.268 . S
O213 Sc199 2.105 . S
O213 C207 1.268 . S
O214 Sc198 2.105 . S
O214 C206 1.268 . S
O215 Sc199 2.105 . S
O215 C205 1.268 . S
O216 Sc200 2.105 . S
O216 C207 1.268 . S
O217 Sc198 2.105 . S
O217 C203 1.268 . S
O218 Sc200 2.105 . S
O218 C202 1.268 . S
O219 Sc199 2.105 . S
O219 C204 1.268 . S
Sc220 O223 2.025 . S
Sc220 O230 2.105 . S
Sc220 O233 2.105 . S
Sc220 O236 2.105 . S
Sc220 O239 2.105 . S
Sc221 O223 2.025 . S
Sc221 O231 2.105 . S
Sc221 O235 2.105 . S
Sc221 O237 2.105 . S
Sc221 O241 2.105 . S
Sc222 O223 2.025 . S
Sc222 O232 2.105 . S
Sc222 O234 2.105 . S
Sc222 O238 2.105 . S
Sc222 O240 2.105 . S
O223 Sc220 2.025 . S
O223 Sc221 2.025 . S
O223 Sc222 2.025 . S
C224 O230 1.268 . S
C224 O240 1.268 . S
C225 O231 1.268 . S
C225 O239 1.268 . S
C226 O232 1.268 . S
C226 O241 1.268 . S
C227 O233 1.268 . S
C227 O237 1.268 . S
C228 O234 1.268 . S
C228 O236 1.268 . S
C229 O235 1.268 . S
C229 O238 1.268 . S
O230 Sc220 2.105 . S
O230 C224 1.268 . S
O231 Sc221 2.105 . S
O231 C225 1.268 . S
O232 Sc222 2.105 . S
O232 C226 1.268 . S
O233 Sc220 2.105 . S
O233 C227 1.268 . S
O234 Sc222 2.105 . S
O234 C228 1.268 . S
O235 Sc221 2.105 . S
O235 C229 1.268 . S
O236 Sc220 2.105 . S
O236 C228 1.268 . S
O237 Sc221 2.105 . S
O237 C227 1.268 . S
O238 Sc222 2.105 . S
O238 C229 1.268 . S
O239 Sc220 2.105 . S
O239 C225 1.268 . S
O240 Sc222 2.105 . S
O240 C224 1.268 . S
O241 Sc221 2.105 . S
O241 C226 1.268 . S
Sc242 O245 2.025 . S
Sc242 O252 2.105 . S
Sc242 O255 2.105 . S
Sc242 O258 2.105 . S
Sc242 O261 2.105 . S
Sc243 O245 2.025 . S
Sc243 O253 2.105 . S
Sc243 O257 2.105 . S
Sc243 O259 2.105 . S
Sc243 O263 2.105 . S
Sc244 O245 2.025 . S
Sc244 O254 2.105 . S
Sc244 O256 2.105 . S
Sc244 O260 2.105 . S
Sc244 O262 2.105 . S
O245 Sc242 2.025 . S
O245 Sc243 2.025 . S
O245 Sc244 2.025 . S
C246 O252 1.268 . S
C246 O262 1.268 . S
C247 O253 1.268 . S
C247 O261 1.268 . S
C248 O254 1.268 . S
C248 O263 1.268 . S
C249 O255 1.268 . S
C249 O259 1.268 . S
C250 O256 1.268 . S
C250 O258 1.268 . S
C251 O257 1.268 . S
C251 O260 1.268 . S
O252 Sc242 2.105 . S
O252 C246 1.268 . S
O253 Sc243 2.105 . S
O253 C247 1.268 . S
O254 Sc244 2.105 . S
O254 C248 1.268 . S
O255 Sc242 2.105 . S
O255 C249 1.268 . S
O256 Sc244 2.105 . S
O256 C250 1.268 . S
O257 Sc243 2.105 . S
O257 C251 1.268 . S
O258 Sc242 2.105 . S
O258 C250 1.268 . S
O259 Sc243 2.105 . S
O259 C249 1.268 . S
O260 Sc244 2.105 . S
O260 C251 1.268 . S
O261 Sc242 2.105 . S
O261 C247 1.268 . S
O262 Sc244 2.105 . S
O262 C246 1.268 . S
O263 Sc243 2.105 . S
O263 C248 1.268 . S
C264 C265 1.387 . S
C264 H268 0.950 . S
C264 C273 1.390 . S
C265 C264 1.387 . S
C265 C267 1.387 . S
H266 C273 0.950 . S
C267 C265 1.387 . S
C267 C269 1.390 . S
C267 H271 0.950 . S
H268 C264 0.950 . S
C269 C267 1.390 . S
C269 C270 1.387 . S
C269 H272 0.950 . S
C270 C269 1.387 . S
C270 C273 1.387 . S
H271 C267 0.950 . S
H272 C269 0.950 . S
C273 C264 1.390 . S
C273 H266 0.950 . S
C273 C270 1.387 . S
C274 C275 1.387 . S
C274 H278 0.950 . S
C274 C283 1.390 . S
C275 C274 1.387 . S
C275 C277 1.387 . S
H276 C283 0.950 . S
C277 C275 1.387 . S
C277 C279 1.390 . S
C277 H281 0.950 . S
H278 C274 0.950 . S
C279 C277 1.390 . S
C279 C280 1.387 . S
C279 H282 0.950 . S
C280 C279 1.387 . S
C280 C283 1.387 . S
H281 C277 0.950 . S
H282 C279 0.950 . S
C283 C274 1.390 . S
C283 H276 0.950 . S
C283 C280 1.387 . S
C284 C285 1.387 . S
C284 H288 0.950 . S
C284 C293 1.390 . S
C285 C284 1.387 . S
C285 C287 1.387 . S
H286 C293 0.950 . S
C287 C285 1.387 . S
C287 C289 1.390 . S
C287 H291 0.950 . S
H288 C284 0.950 . S
C289 C287 1.390 . S
C289 C290 1.387 . S
C289 H292 0.950 . S
C290 C289 1.387 . S
C290 C293 1.387 . S
H291 C287 0.950 . S
H292 C289 0.950 . S
C293 C284 1.390 . S
C293 H286 0.950 . S
C293 C290 1.387 . S
C294 C295 1.387 . S
C294 H298 0.950 . S
C294 C303 1.390 . S
C295 C294 1.387 . S
C295 C297 1.387 . S
H296 C303 0.950 . S
C297 C295 1.387 . S
C297 C299 1.390 . S
C297 H301 0.950 . S
H298 C294 0.950 . S
C299 C297 1.390 . S
C299 C300 1.387 . S
C299 H302 0.950 . S
C300 C299 1.387 . S
C300 C303 1.387 . S
H301 C297 0.950 . S
H302 C299 0.950 . S
C303 C294 1.390 . S
C303 H296 0.950 . S
C303 C300 1.387 . S
C304 C305 1.387 . S
C304 H308 0.950 . S
C304 C313 1.390 . S
C305 C304 1.387 . S
C305 C307 1.387 . S
H306 C313 0.950 . S
C307 C305 1.387 . S
C307 C309 1.390 . S
C307 H311 0.950 . S
H308 C304 0.950 . S
C309 C307 1.390 . S
C309 C310 1.387 . S
C309 H312 0.950 . S
C310 C309 1.387 . S
C310 C313 1.387 . S
H311 C307 0.950 . S
H312 C309 0.950 . S
C313 C304 1.390 . S
C313 H306 0.950 . S
C313 C310 1.387 . S
C314 C315 1.387 . S
C314 H318 0.950 . S
C314 C323 1.390 . S
C315 C314 1.387 . S
C315 C317 1.387 . S
H316 C323 0.950 . S
C317 C315 1.387 . S
C317 C319 1.390 . S
C317 H321 0.950 . S
H318 C314 0.950 . S
C319 C317 1.390 . S
C319 C320 1.387 . S
C319 H322 0.950 . S
C320 C319 1.387 . S
C320 C323 1.387 . S
H321 C317 0.950 . S
H322 C319 0.950 . S
C323 C314 1.390 . S
C323 H316 0.950 . S
C323 C320 1.387 . S
C324 C325 1.387 . S
C324 H328 0.951 1_556 S
C324 C333 1.390 . S
C325 C324 1.387 . S
C325 C327 1.387 . S
H326 C333 0.950 . S
C327 C325 1.387 . S
C327 C329 1.390 . S
C327 H331 0.950 . S
H328 C324 0.951 1_554 S
C329 C327 1.390 . S
C329 C330 1.387 . S
C329 H332 0.950 . S
C330 C329 1.387 . S
C330 C333 1.387 . S
H331 C327 0.950 . S
H332 C329 0.950 . S
C333 C324 1.390 . S
C333 H326 0.950 . S
C333 C330 1.387 . S
C334 C335 1.387 1_455 S
C334 H338 0.950 . S
C334 C343 1.390 . S
C335 C334 1.387 1_655 S
C335 C337 1.400 . S
H336 C343 0.950 . S
C337 C335 1.400 . S
C337 C339 1.364 1_655 S
C337 H341 0.964 . S
H338 C334 0.950 . S
C339 C337 1.364 1_455 S
C339 C340 1.387 . S
C339 H342 0.950 . S
C340 C339 1.387 . S
C340 C343 1.387 . S
H341 C337 0.964 . S
H342 C339 0.950 . S
C343 C334 1.390 . S
C343 H336 0.950 . S
C343 C340 1.387 . S
C344 C345 1.387 . S
C344 H348 0.950 . S
C344 C353 1.390 . S
C345 C344 1.387 . S
C345 C347 1.387 . S
H346 C353 0.950 1_565 S
C347 C345 1.387 . S
C347 C349 1.390 . S
C347 H351 0.950 . S
H348 C344 0.950 . S
C349 C347 1.390 . S
C349 C350 1.387 1_545 S
C349 H352 0.950 . S
C350 C349 1.387 1_565 S
C350 C353 1.387 1_565 S
H351 C347 0.950 . S
H352 C349 0.950 . S
C353 C344 1.390 . S
C353 H346 0.950 1_545 S
C353 C350 1.387 1_545 S
C354 C355 1.387 . S
C354 H358 0.950 . S
C354 C363 1.390 . S
C355 C354 1.387 . S
C355 C357 1.387 . S
H356 C363 0.950 . S
C357 C355 1.387 . S
C357 C359 1.390 . S
C357 H361 0.950 . S
H358 C354 0.950 . S
C359 C357 1.390 . S
C359 C360 1.387 . S
C359 H362 0.950 . S
C360 C359 1.387 . S
C360 C363 1.387 . S
H361 C357 0.950 . S
H362 C359 0.950 . S
C363 C354 1.390 . S
C363 H356 0.950 . S
C363 C360 1.387 . S
C364 C365 1.387 1_655 S
C364 H368 0.950 . S
C364 C373 1.390 . S
C365 C364 1.387 1_455 S
C365 C367 1.397 . S
H366 C373 0.950 . S
C367 C365 1.397 . S
C367 C369 1.370 1_455 S
C367 H371 0.961 . S
H368 C364 0.950 . S
C369 C367 1.370 1_655 S
C369 C370 1.387 . S
C369 H372 0.950 . S
C370 C369 1.387 . S
C370 C373 1.387 . S
H371 C367 0.961 . S
H372 C369 0.950 . S
C373 C364 1.390 . S
C373 H366 0.950 . S
C373 C370 1.387 . S
C374 C375 1.387 1_565 S
C374 H378 0.950 . S
C374 C383 1.390 . S
C375 C374 1.387 1_545 S
C375 C377 1.387 1_545 S
H376 C383 0.950 . S
C377 C375 1.387 1_565 S
C377 C379 1.390 . S
C377 H381 0.950 1_565 S
H378 C374 0.950 . S
C379 C377 1.390 . S
C379 C380 1.387 . S
C379 H382 0.950 . S
C380 C379 1.387 . S
C380 C383 1.387 . S
H381 C377 0.950 1_545 S
H382 C379 0.950 . S
C383 C374 1.390 . S
C383 H376 0.950 . S
C383 C380 1.387 . S
C384 C385 1.387 . S
C384 H388 0.950 . S
C384 C393 1.390 . S
C385 C384 1.387 . S
C385 C387 1.387 . S
H386 C393 0.950 . S
C387 C385 1.387 . S
C387 C389 1.390 . S
C387 H391 0.950 . S
H388 C384 0.950 . S
C389 C387 1.390 . S
C389 C390 1.387 . S
C389 H392 0.950 . S
C390 C389 1.387 . S
C390 C393 1.387 . S
H391 C387 0.950 . S
H392 C389 0.950 . S
C393 C384 1.390 . S
C393 H386 0.950 . S
C393 C390 1.387 . S
C394 C395 1.387 1_455 S
C394 H398 0.950 . S
C394 C403 1.390 . S
C395 C394 1.387 1_655 S
C395 C397 1.387 1_655 S
H396 C403 0.950 . S
C397 C395 1.387 1_455 S
C397 C399 1.390 . S
C397 H401 0.947 1_455 S
H398 C394 0.950 . S
C399 C397 1.390 . S
C399 C400 1.387 . S
C399 H402 0.950 . S
C400 C399 1.387 . S
C400 C403 1.387 . S
H401 C397 0.947 1_655 S
H402 C399 0.950 . S
C403 C394 1.390 . S
C403 H396 0.950 . S
C403 C400 1.387 . S
C404 C405 1.387 1_545 S
C404 H408 0.950 1_545 S
C404 C413 1.390 . S
C405 C404 1.387 1_565 S
C405 C407 1.387 1_565 S
H406 C413 0.950 . S
C407 C405 1.387 1_545 S
C407 C409 1.390 . S
C407 H411 0.950 . S
H408 C404 0.950 1_565 S
C409 C407 1.390 . S
C409 C410 1.387 . S
C409 H412 0.950 . S
C410 C409 1.387 . S
C410 C413 1.387 . S
H411 C407 0.950 . S
H412 C409 0.950 . S
C413 C404 1.390 . S
C413 H406 0.950 . S
C413 C410 1.387 . S
C414 C415 1.387 . S
C414 H418 0.950 . S
C414 C423 1.390 . S
C415 C414 1.387 . S
C415 C417 1.387 . S
H416 C423 0.950 . S
C417 C415 1.387 . S
C417 C419 1.390 . S
C417 H421 0.950 . S
H418 C414 0.950 . S
C419 C417 1.390 . S
C419 C420 1.387 . S
C419 H422 0.950 . S
C420 C419 1.387 . S
C420 C423 1.387 . S
H421 C417 0.950 . S
H422 C419 0.950 . S
C423 C414 1.390 . S
C423 H416 0.950 . S
C423 C420 1.387 . S
C424 C425 1.387 . S
C424 H428 0.950 . S
C424 C433 1.390 . S
C425 C424 1.387 . S
C425 C427 1.387 . S
H426 C433 0.950 . S
C427 C425 1.387 . S
C427 C429 1.390 . S
C427 H431 0.950 . S
H428 C424 0.950 . S
C429 C427 1.390 . S
C429 C430 1.387 1_655 S
C429 H432 0.950 . S
C430 C429 1.387 1_455 S
C430 C433 1.387 1_455 S
H431 C427 0.950 . S
H432 C429 0.950 . S
C433 C424 1.390 . S
C433 H426 0.950 . S
C433 C430 1.387 1_655 S
C434 C435 1.387 . S
C434 H438 0.950 . S
C434 C443 1.390 . S
C435 C434 1.387 . S
C435 C437 1.387 . S
H436 C443 0.950 1_545 S
C437 C435 1.387 . S
C437 C439 1.390 . S
C437 H441 0.950 . S
H438 C434 0.950 . S
C439 C437 1.390 . S
C439 C440 1.387 1_565 S
C439 H442 0.950 . S
C440 C439 1.387 1_545 S
C440 C443 1.387 1_545 S
H441 C437 0.950 . S
H442 C439 0.950 . S
C443 C434 1.390 . S
C443 H436 0.950 1_565 S
C443 C440 1.387 1_565 S
C444 C445 1.387 . S
C444 H448 0.950 . S
C444 C453 1.390 . S
C445 C444 1.387 . S
C445 C447 1.387 . S
H446 C453 0.950 . S
C447 C445 1.387 . S
C447 C449 1.390 . S
C447 H451 0.950 1_556 S
H448 C444 0.950 . S
C449 C447 1.390 . S
C449 C450 1.387 . S
C449 H452 0.950 . S
C450 C449 1.387 . S
C450 C453 1.387 . S
H451 C447 0.950 1_554 S
H452 C449 0.950 . S
C453 C444 1.390 . S
C453 H446 0.950 . S
C453 C450 1.387 . S
C454 C455 1.387 . S
C454 H458 0.950 . S
C454 C463 1.390 . S
C455 C454 1.387 . S
C455 C457 1.387 . S
H456 C463 0.950 . S
C457 C455 1.387 . S
C457 C459 1.390 . S
C457 H461 0.950 . S
H458 C454 0.950 . S
C459 C457 1.390 . S
C459 C460 1.387 . S
C459 H462 0.950 . S
C460 C459 1.387 . S
C460 C463 1.387 . S
H461 C457 0.950 . S
H462 C459 0.950 . S
C463 C454 1.390 . S
C463 H456 0.950 . S
C463 C460 1.387 . S
C464 C465 1.387 . S
C464 H468 0.950 . S
C464 C473 1.390 . S
C465 C464 1.387 . S
C465 C467 1.387 . S
H466 C473 0.950 . S
C467 C465 1.387 . S
C467 C469 1.390 . S
C467 H471 0.950 . S
H468 C464 0.950 . S
C469 C467 1.390 . S
C469 C470 1.387 . S
C469 H472 0.950 . S
C470 C469 1.387 . S
C470 C473 1.387 . S
H471 C467 0.950 . S
H472 C469 0.950 . S
C473 C464 1.390 . S
C473 H466 0.950 . S
C473 C470 1.387 . S
C474 C475 1.387 . S
C474 H478 0.950 . S
C474 C483 1.390 . S
C475 C474 1.387 . S
C475 C477 1.387 . S
H476 C483 0.950 . S
C477 C475 1.387 . S
C477 C479 1.390 . S
C477 H481 0.950 . S
H478 C474 0.950 . S
C479 C477 1.390 . S
C479 C480 1.387 . S
C479 H482 0.950 . S
C480 C479 1.387 . S
C480 C483 1.387 . S
H481 C477 0.950 . S
H482 C479 0.950 . S
C483 C474 1.390 . S
C483 H476 0.950 . S
C483 C480 1.387 . S
C484 C485 1.387 . S
C484 H488 0.950 . S
C484 C493 1.390 . S
C485 C484 1.387 . S
C485 C487 1.387 . S
H486 C493 0.950 . S
C487 C485 1.387 . S
C487 C489 1.390 . S
C487 H491 0.950 . S
H488 C484 0.950 . S
C489 C487 1.390 . S
C489 C490 1.387 . S
C489 H492 0.950 . S
C490 C489 1.387 . S
C490 C493 1.387 . S
H491 C487 0.950 . S
H492 C489 0.950 . S
C493 C484 1.390 . S
C493 H486 0.950 . S
C493 C490 1.387 . S
C494 C495 1.387 . S
C494 H498 0.950 . S
C494 C503 1.390 . S
C495 C494 1.387 . S
C495 C497 1.387 . S
H496 C503 0.950 . S
C497 C495 1.387 . S
C497 C499 1.390 . S
C497 H501 0.950 . S
H498 C494 0.950 . S
C499 C497 1.390 . S
C499 C500 1.387 . S
C499 H502 0.950 . S
C500 C499 1.387 . S
C500 C503 1.387 . S
H501 C497 0.950 . S
H502 C499 0.950 . S
C503 C494 1.390 . S
C503 H496 0.950 . S
C503 C500 1.387 . S
C504 C505 1.387 . S
C504 H508 0.950 . S
C504 C513 1.390 . S
C505 C504 1.387 . S
C505 C507 1.387 . S
H506 C513 0.950 . S
C507 C505 1.387 . S
C507 C509 1.390 . S
C507 H511 0.950 . S
H508 C504 0.950 . S
C509 C507 1.390 . S
C509 C510 1.387 . S
C509 H512 0.950 . S
C510 C509 1.387 . S
C510 C513 1.387 . S
H511 C507 0.950 . S
H512 C509 0.950 . S
C513 C504 1.390 . S
C513 H506 0.950 . S
C513 C510 1.387 . S
C514 C515 1.387 . S
C514 H518 0.950 . S
C514 C523 1.390 1_455 S
C515 C514 1.387 . S
C515 C517 1.387 . S
H516 C523 0.950 . S
C517 C515 1.387 . S
C517 C519 1.390 1_455 S
C517 H521 0.950 . S
H518 C514 0.950 . S
C519 C517 1.390 1_655 S
C519 C520 1.387 . S
C519 H522 0.950 . S
C520 C519 1.387 . S
C520 C523 1.387 . S
H521 C517 0.950 . S
H522 C519 0.950 . S
C523 C514 1.390 1_655 S
C523 H516 0.950 . S
C523 C520 1.387 . S
C524 C525 1.387 . S
C524 H528 0.950 . S
C524 C533 1.390 1_545 S
C525 C524 1.387 . S
C525 C527 1.387 . S
H526 C533 0.950 . S
C527 C525 1.387 . S
C527 C529 1.390 1_545 S
C527 H531 0.950 . S
H528 C524 0.950 . S
C529 C527 1.390 1_565 S
C529 C530 1.387 . S
C529 H532 0.950 . S
C530 C529 1.387 . S
C530 C533 1.387 . S
H531 C527 0.950 . S
H532 C529 0.950 . S
C533 C524 1.390 1_565 S
C533 H526 0.950 . S
C533 C530 1.387 . S
C534 C535 1.387 . S
C534 H538 0.950 . S
C534 C543 1.390 . S
C535 C534 1.387 . S
C535 C537 1.387 . S
H536 C543 0.950 . S
C537 C535 1.387 . S
C537 C539 1.390 . S
C537 H541 0.950 . S
H538 C534 0.950 . S
C539 C537 1.390 . S
C539 C540 1.387 . S
C539 H542 0.950 . S
C540 C539 1.387 . S
C540 C543 1.387 . S
H541 C537 0.950 . S
H542 C539 0.950 . S
C543 C534 1.390 . S
C543 H536 0.950 . S
C543 C540 1.387 . S
C544 C545 1.378 1_655 S
C544 H548 0.946 . S
C544 C553 1.403 . S
C545 C544 1.378 1_455 S
C545 C547 1.387 . S
H546 C553 0.950 . S
C547 C545 1.387 . S
C547 C549 1.403 . S
C547 H551 0.950 . S
H548 C544 0.946 . S
C549 C547 1.403 . S
C549 C550 1.379 1_455 S
C549 H552 0.946 . S
C550 C549 1.379 1_655 S
C550 C553 1.387 . S
H551 C547 0.950 . S
H552 C549 0.946 . S
C553 C544 1.403 . S
C553 H546 0.950 . S
C553 C550 1.387 . S
C554 C555 1.387 . S
C554 H558 0.950 . S
C554 C563 1.390 1_546 S
C555 C554 1.387 . S
C555 C557 1.387 . S
H556 C563 0.950 . S
C557 C555 1.387 . S
C557 C559 1.390 1_546 S
C557 H561 0.950 . S
H558 C554 0.950 . S
C559 C557 1.390 1_564 S
C559 C560 1.387 . S
C559 H562 0.950 . S
C560 C559 1.387 . S
C560 C563 1.387 . S
H561 C557 0.950 . S
H562 C559 0.950 . S
C563 C554 1.390 1_564 S
C563 H556 0.950 . S
C563 C560 1.387 . S
C564 C565 1.387 . S
C564 H568 0.950 . S
C564 C573 1.390 . S
C565 C564 1.387 . S
C565 C567 1.387 . S
H566 C573 0.950 . S
C567 C565 1.387 . S
C567 C569 1.390 . S
C567 H571 0.950 . S
H568 C564 0.950 . S
C569 C567 1.390 . S
C569 C570 1.387 . S
C569 H572 0.950 . S
C570 C569 1.387 . S
C570 C573 1.387 . S
H571 C567 0.950 . S
H572 C569 0.950 . S
C573 C564 1.390 . S
C573 H566 0.950 . S
C573 C570 1.387 . S
C574 C575 1.387 . S
C574 H578 0.950 . S
C574 C583 1.390 . S
C575 C574 1.387 . S
C575 C577 1.387 . S
H576 C583 0.950 . S
C577 C575 1.387 . S
C577 C579 1.390 . S
C577 H581 0.950 . S
H578 C574 0.950 . S
C579 C577 1.390 . S
C579 C580 1.387 . S
C579 H582 0.950 . S
C580 C579 1.387 . S
C580 C583 1.387 . S
H581 C577 0.950 . S
H582 C579 0.950 . S
C583 C574 1.390 . S
C583 H576 0.950 . S
C583 C580 1.387 . S
C584 C585 1.387 . S
C584 H588 0.950 . S
C584 C593 1.390 . S
C585 C584 1.387 . S
C585 C587 1.387 . S
H586 C593 0.950 . S
C587 C585 1.387 . S
C587 C589 1.390 . S
C587 H591 0.950 . S
H588 C584 0.950 . S
C589 C587 1.390 . S
C589 C590 1.387 . S
C589 H592 0.950 . S
C590 C589 1.387 . S
C590 C593 1.387 . S
H591 C587 0.950 . S
H592 C589 0.950 . S
C593 C584 1.390 . S
C593 H586 0.950 . S
C593 C590 1.387 . S
C594 C595 1.387 . S
C594 H598 0.950 . S
C594 C603 1.390 . S
C595 C594 1.387 . S
C595 C597 1.387 . S
H596 C603 0.950 . S
C597 C595 1.387 . S
C597 C599 1.390 . S
C597 H601 0.950 . S
H598 C594 0.950 . S
C599 C597 1.390 . S
C599 C600 1.387 . S
C599 H602 0.950 . S
C600 C599 1.387 . S
C600 C603 1.387 . S
H601 C597 0.950 . S
H602 C599 0.950 . S
C603 C594 1.390 . S
C603 H596 0.950 . S
C603 C600 1.387 . S
C604 C605 1.387 . S
C604 H608 0.950 . S
C604 C613 1.390 . S
C605 C604 1.387 . S
C605 C607 1.387 . S
H606 C613 0.950 . S
C607 C605 1.387 . S
C607 C609 1.390 . S
C607 H611 0.950 . S
H608 C604 0.950 . S
C609 C607 1.390 . S
C609 C610 1.387 . S
C609 H612 0.950 1_556 S
C610 C609 1.387 . S
C610 C613 1.387 . S
H611 C607 0.950 . S
H612 C609 0.950 1_554 S
C613 C604 1.390 . S
C613 H606 0.950 . S
C613 C610 1.387 . S
C614 C615 1.387 . S
C614 H618 0.950 . S
C614 C623 1.390 . S
C615 C614 1.387 . S
C615 C617 1.387 . S
H616 C623 0.950 . S
C617 C615 1.387 . S
C617 C619 1.390 . S
C617 H621 0.950 . S
H618 C614 0.950 . S
C619 C617 1.390 . S
C619 C620 1.387 . S
C619 H622 0.950 . S
C620 C619 1.387 . S
C620 C623 1.387 . S
H621 C617 0.950 . S
H622 C619 0.950 . S
C623 C614 1.390 . S
C623 H616 0.950 . S
C623 C620 1.387 . S
C265 C229 1.325 . S
C270 C5 1.325 . S
C275 C31 1.326 1_556 S
C280 C247 1.325 . S
C285 C141 1.326 1_554 S
C290 C49 1.326 . S
C295 C75 1.326 . S
C300 C159 1.326 . S
C305 C93 1.326 . S
C310 C185 1.325 . S
C315 C203 1.326 . S
C320 C119 1.325 . S
C325 C6 1.325 . S
C330 C116 1.438 . S
C335 C29 1.326 . S
C340 C7 1.439 . S
C345 C28 1.436 . S
C350 C50 1.321 . S
C355 C73 1.326 . S
C360 C51 1.439 . S
C365 C94 1.326 . S
C370 C72 1.439 . S
C375 C117 1.325 . S
C380 C95 1.439 . S
C385 C139 1.326 . S
C390 C161 1.439 . S
C395 C160 1.323 . S
C400 C182 1.437 . S
C405 C183 1.322 . S
C410 C205 1.437 . S
C415 C226 1.436 . S
C420 C204 1.321 . S
C425 C249 1.437 . S
C430 C227 1.323 . S
C435 C138 1.436 . S
C440 C248 1.321 . S
C445 C4 1.349 . S
C450 C140 1.349 . S
C455 C158 1.349 . S
C460 C30 1.348 . S
C465 C48 1.348 . S
C470 C184 1.348 . S
C475 C74 1.349 . S
C480 C202 1.349 . S
C485 C228 1.350 . S
C490 C92 1.349 . S
C495 C118 1.350 . S
C500 C246 1.350 . S
C505 C9 1.315 . S
C510 C207 1.315 . S
C515 C225 1.316 . S
C520 C27 1.314 . S
C525 C251 1.312 . S
C530 C53 1.312 . S
C535 C71 1.314 . S
C540 C137 1.316 . S
C545 C97 1.314 . S
C550 C163 1.311 . S
C555 C115 1.312 . S
C560 C181 1.312 . S
C565 C224 1.886 . S
C570 C8 1.886 . S
C575 C250 1.886 . S
C580 C26 1.887 . S
C585 C136 1.886 . S
C590 C52 1.887 . S
C595 C162 1.886 . S
C600 C70 1.886 . S
C605 C96 1.887 . S
C610 C180 1.886 1_556 S
C615 C114 1.887 1_554 S
C620 C206 1.887 . S
