# Generated by pormake.
# Topology fca, (5)-cn, num edge types: 1
# Building blocks:
#     Node 0, Type 0, BuildingBlock: BEQFEK_clean_sbu_0, # of connection points: 5
#     Node 1, Type 0, BuildingBlock: BEQFEK_clean_sbu_0, # of connection points: 5
#     Node 2, Type 0, BuildingBlock: BEQFEK_clean_sbu_0, # of connection points: 5
#     Node 3, Type 0, BuildingBlock: BEQFEK_clean_sbu_0, # of connection points: 5
#     Node 4, Type 0, BuildingBlock: BEQFEK_clean_sbu_0, # of connection points: 5
#     Node 5, Type 0, BuildingBlock: BEQFEK_clean_sbu_0, # of connection points: 5
#     Node 6, Type 0, BuildingBlock: BEQFEK_clean_sbu_0, # of connection points: 5
#     Node 7, Type 0, BuildingBlock: BEQFEK_clean_sbu_0, # of connection points: 5
#     Node 8, Type 0, BuildingBlock: BEQFEK_clean_sbu_0, # of connection points: 5
#     Node 9, Type 0, BuildingBlock: BEQFEK_clean_sbu_0, # of connection points: 5
#     Node 10, Type 0, BuildingBlock: BEQFEK_clean_sbu_0, # of connection points: 5
#     Node 11, Type 0, BuildingBlock: BEQFEK_clean_sbu_0, # of connection points: 5
#     Node 12, Type 0, BuildingBlock: BEQFEK_clean_sbu_0, # of connection points: 5
#     Node 13, Type 0, BuildingBlock: BEQFEK_clean_sbu_0, # of connection points: 5
#     Node 14, Type 0, BuildingBlock: BEQFEK_clean_sbu_0, # of connection points: 5
#     Node 15, Type 0, BuildingBlock: BEQFEK_clean_sbu_0, # of connection points: 5
#     Node 16, Type 0, BuildingBlock: BEQFEK_clean_sbu_0, # of connection points: 5
#     Node 17, Type 0, BuildingBlock: BEQFEK_clean_sbu_0, # of connection points: 5
#     Node 18, Type 0, BuildingBlock: BEQFEK_clean_sbu_0, # of connection points: 5
#     Node 19, Type 0, BuildingBlock: BEQFEK_clean_sbu_0, # of connection points: 5
#     Node 20, Type 0, BuildingBlock: BEQFEK_clean_sbu_0, # of connection points: 5
#     Node 21, Type 0, BuildingBlock: BEQFEK_clean_sbu_0, # of connection points: 5
#     Node 22, Type 0, BuildingBlock: BEQFEK_clean_sbu_0, # of connection points: 5
#     Node 23, Type 0, BuildingBlock: BEQFEK_clean_sbu_0, # of connection points: 5
#     Edge 24, Type (0, 0), BuildingBlock: XIVTED_clean_linker_0, # of connection points: 2
#     Edge 25, Type (0, 0), BuildingBlock: XIVTED_clean_linker_0, # of connection points: 2
#     Edge 26, Type (0, 0), BuildingBlock: XIVTED_clean_linker_0, # of connection points: 2
#     Edge 27, Type (0, 0), BuildingBlock: XIVTED_clean_linker_0, # of connection points: 2
#     Edge 28, Type (0, 0), BuildingBlock: XIVTED_clean_linker_0, # of connection points: 2
#     Edge 29, Type (0, 0), BuildingBlock: XIVTED_clean_linker_0, # of connection points: 2
#     Edge 30, Type (0, 0), BuildingBlock: XIVTED_clean_linker_0, # of connection points: 2
#     Edge 31, Type (0, 0), BuildingBlock: XIVTED_clean_linker_0, # of connection points: 2
#     Edge 32, Type (0, 0), BuildingBlock: XIVTED_clean_linker_0, # of connection points: 2
#     Edge 33, Type (0, 0), BuildingBlock: XIVTED_clean_linker_0, # of connection points: 2
#     Edge 34, Type (0, 0), BuildingBlock: XIVTED_clean_linker_0, # of connection points: 2
#     Edge 35, Type (0, 0), BuildingBlock: XIVTED_clean_linker_0, # of connection points: 2
#     Edge 36, Type (0, 0), BuildingBlock: XIVTED_clean_linker_0, # of connection points: 2
#     Edge 37, Type (0, 0), BuildingBlock: XIVTED_clean_linker_0, # of connection points: 2
#     Edge 38, Type (0, 0), BuildingBlock: XIVTED_clean_linker_0, # of connection points: 2
#     Edge 39, Type (0, 0), BuildingBlock: XIVTED_clean_linker_0, # of connection points: 2
#     Edge 40, Type (0, 0), BuildingBlock: XIVTED_clean_linker_0, # of connection points: 2
#     Edge 41, Type (0, 0), BuildingBlock: XIVTED_clean_linker_0, # of connection points: 2
#     Edge 42, Type (0, 0), BuildingBlock: XIVTED_clean_linker_0, # of connection points: 2
#     Edge 43, Type (0, 0), BuildingBlock: XIVTED_clean_linker_0, # of connection points: 2
#     Edge 44, Type (0, 0), BuildingBlock: XIVTED_clean_linker_0, # of connection points: 2
#     Edge 45, Type (0, 0), BuildingBlock: XIVTED_clean_linker_0, # of connection points: 2
#     Edge 46, Type (0, 0), BuildingBlock: XIVTED_clean_linker_0, # of connection points: 2
#     Edge 47, Type (0, 0), BuildingBlock: XIVTED_clean_linker_0, # of connection points: 2
#     Edge 48, Type (0, 0), BuildingBlock: XIVTED_clean_linker_0, # of connection points: 2
#     Edge 49, Type (0, 0), BuildingBlock: XIVTED_clean_linker_0, # of connection points: 2
#     Edge 50, Type (0, 0), BuildingBlock: XIVTED_clean_linker_0, # of connection points: 2
#     Edge 51, Type (0, 0), BuildingBlock: XIVTED_clean_linker_0, # of connection points: 2
#     Edge 52, Type (0, 0), BuildingBlock: XIVTED_clean_linker_0, # of connection points: 2
#     Edge 53, Type (0, 0), BuildingBlock: XIVTED_clean_linker_0, # of connection points: 2
#     Edge 54, Type (0, 0), BuildingBlock: XIVTED_clean_linker_0, # of connection points: 2
#     Edge 55, Type (0, 0), BuildingBlock: XIVTED_clean_linker_0, # of connection points: 2
#     Edge 56, Type (0, 0), BuildingBlock: XIVTED_clean_linker_0, # of connection points: 2
#     Edge 57, Type (0, 0), BuildingBlock: XIVTED_clean_linker_0, # of connection points: 2
#     Edge 58, Type (0, 0), BuildingBlock: XIVTED_clean_linker_0, # of connection points: 2
#     Edge 59, Type (0, 0), BuildingBlock: XIVTED_clean_linker_0, # of connection points: 2
#     Edge 60, Type (0, 0), BuildingBlock: XIVTED_clean_linker_0, # of connection points: 2
#     Edge 61, Type (0, 0), BuildingBlock: XIVTED_clean_linker_0, # of connection points: 2
#     Edge 62, Type (0, 0), BuildingBlock: XIVTED_clean_linker_0, # of connection points: 2
#     Edge 63, Type (0, 0), BuildingBlock: XIVTED_clean_linker_0, # of connection points: 2
#     Edge 64, Type (0, 0), BuildingBlock: XIVTED_clean_linker_0, # of connection points: 2
#     Edge 65, Type (0, 0), BuildingBlock: XIVTED_clean_linker_0, # of connection points: 2
#     Edge 66, Type (0, 0), BuildingBlock: XIVTED_clean_linker_0, # of connection points: 2
#     Edge 67, Type (0, 0), BuildingBlock: XIVTED_clean_linker_0, # of connection points: 2
#     Edge 68, Type (0, 0), BuildingBlock: XIVTED_clean_linker_0, # of connection points: 2
#     Edge 69, Type (0, 0), BuildingBlock: XIVTED_clean_linker_0, # of connection points: 2
#     Edge 70, Type (0, 0), BuildingBlock: XIVTED_clean_linker_0, # of connection points: 2
#     Edge 71, Type (0, 0), BuildingBlock: XIVTED_clean_linker_0, # of connection points: 2
#     Edge 72, Type (0, 0), BuildingBlock: XIVTED_clean_linker_0, # of connection points: 2
#     Edge 73, Type (0, 0), BuildingBlock: XIVTED_clean_linker_0, # of connection points: 2
#     Edge 74, Type (0, 0), BuildingBlock: XIVTED_clean_linker_0, # of connection points: 2
#     Edge 75, Type (0, 0), BuildingBlock: XIVTED_clean_linker_0, # of connection points: 2
#     Edge 76, Type (0, 0), BuildingBlock: XIVTED_clean_linker_0, # of connection points: 2
#     Edge 77, Type (0, 0), BuildingBlock: XIVTED_clean_linker_0, # of connection points: 2
#     Edge 78, Type (0, 0), BuildingBlock: XIVTED_clean_linker_0, # of connection points: 2
#     Edge 79, Type (0, 0), BuildingBlock: XIVTED_clean_linker_0, # of connection points: 2
#     Edge 80, Type (0, 0), BuildingBlock: XIVTED_clean_linker_0, # of connection points: 2
#     Edge 81, Type (0, 0), BuildingBlock: XIVTED_clean_linker_0, # of connection points: 2
#     Edge 82, Type (0, 0), BuildingBlock: XIVTED_clean_linker_0, # of connection points: 2
#     Edge 83, Type (0, 0), BuildingBlock: XIVTED_clean_linker_0, # of connection points: 2
# Relax obj value: 0.501
# Max RMSD: 0.292
# Mean RMSD: 0.292
data_MOF--net-fca--node1-BEQFEK_clean_sbu_0--edge1-XIVTED_clean_linker_0
_symmetry_space_group_name_H-M    P1
_symmetry_Int_Tables_number       1
_symmetry_cell_setting            triclinic
loop_
_symmetry_equiv_pos_as_xyz
'x, y, z'
_cell_length_a     55.845388
_cell_length_b     55.818657
_cell_length_c     55.80699
_cell_angle_alpha  90.027324
_cell_angle_beta   89.986225
_cell_angle_gamma 89.935482
loop_
_atom_site_label
_atom_site_type_symbol
_atom_site_fract_x
_atom_site_fract_y
_atom_site_fract_z
_atom_type_partial_charge
Co0 Co 0.03685 0.39837 0.29457 0.0
Co1 Co 0.0728 0.40142 0.33655 0.0
C2 C 0.08771 0.41507 0.28638 0.0
O3 O 0.06686 0.40999 0.27869 0.0
O4 O 0.09313 0.4113 0.30826 0.0
C5 C 0.01918 0.38097 0.2494 0.0
O6 O 0.04169 0.3767 0.24406 0.0
C7 C 0.11159 0.38638 0.36843 0.0
C8 C 0.10435 0.40855 0.40044 0.0
C9 C 0.11947 0.39089 0.39167 0.0
N10 N 0.09254 0.4004 0.36409 0.0
N11 N 0.08854 0.41389 0.38312 0.0
C12 C 0.12195 0.36965 0.35021 0.0
H13 H 0.11288 0.35203 0.35151 0.0
H14 H 0.14145 0.36716 0.35317 0.0
H15 H 0.11877 0.37667 0.33189 0.0
C16 C 0.02249 0.35437 0.31944 0.0
N17 N 0.03918 0.37143 0.3154 0.0
N18 N 0.05351 0.37289 0.33403 0.0
C19 C 0.04593 0.35703 0.3508 0.0
C20 C 0.026 0.3446 0.34212 0.0
C21 C 1.00064 0.3513 0.30419 0.0
H22 H 0.00615 0.34627 0.28578 0.0
H23 H 0.98837 0.33739 0.31122 0.0
H24 H 0.9908 0.36855 0.30329 0.0
O25 O 0.02375 0.42566 0.31325 0.0
O26 O 0.0509 0.42807 0.34223 0.0
H27 H 0.05267 0.37402 0.38447 0.0
H28 H 0.04635 0.34225 0.38671 0.0
C29 C 0.05533 0.35628 0.37589 0.0
H30 H 0.0748 0.35253 0.37551 0.0
H31 H 0.07466 0.42633 0.38451 0.0
O32 O 0.01383 0.39062 0.2693 0.0
C33 C 0.03202 0.43566 0.33205 0.0
Co34 Co 0.98694 0.63613 0.29396 0.0
Co35 Co 0.94527 0.63959 0.33073 0.0
C36 C 0.9366 0.62352 0.27957 0.0
O37 O 0.95855 0.62645 0.27421 0.0
O38 O 0.92899 0.62927 0.30031 0.0
C39 C 0.01306 0.65326 0.25382 0.0
O40 O 0.99304 0.66453 0.24876 0.0
C41 C 0.90431 0.66206 0.34924 0.0
C42 C 0.9094 0.64811 0.35808 0.0
C43 C 0.88657 0.66071 0.36494 0.0
N44 N 0.91976 0.64502 0.35331 0.0
N45 N 0.91878 0.63154 0.37319 0.0
C46 C 0.90439 0.6804 0.32726 0.0
H47 H 0.92091 0.67833 0.3164 0.0
H48 H 0.90308 0.69901 0.33417 0.0
H49 H 0.88845 0.67713 0.31584 0.0
C50 C 0.00291 0.67976 0.31872 0.0
N51 N 0.98505 0.66436 0.31309 0.0
N52 N 0.96802 0.66591 0.3293 0.0
C53 C 0.9747 0.68246 0.34579 0.0
C54 C 0.99706 0.69192 0.33969 0.0
C55 C 0.02727 0.67891 0.30747 0.0
H56 H 0.03369 0.66012 0.30682 0.0
H57 H 0.02613 0.68589 0.28892 0.0
H58 H 0.04062 0.68967 0.31743 0.0
O59 O 0.99364 0.60908 0.31567 0.0
O60 O 0.96291 0.61085 0.34108 0.0
H61 H 0.96107 0.67007 0.37912 0.0
H62 H 0.96979 0.70136 0.37932 0.0
C63 C 0.96146 0.68689 0.36855 0.0
H64 H 0.94281 0.69211 0.36422 0.0
H65 H 0.93313 0.61961 0.3733 0.0
O66 O 0.01397 0.63953 0.27193 0.0
C67 C 0.98202 0.60094 0.33355 0.0
Co68 Co 0.04212 0.62842 0.73596 0.0
Co69 Co 0.08296 0.62876 0.69862 0.0
C70 C 0.09237 0.61159 0.74844 0.0
O71 O 0.07031 0.61478 0.75324 0.0
O72 O 0.10097 0.61856 0.72845 0.0
C73 C 0.02009 0.64348 0.77989 0.0
O74 O 0.04189 0.64895 0.78681 0.0
C75 C 0.12193 0.64822 0.66917 0.0
C76 C 0.11979 0.62466 0.63743 0.0
C77 C 0.13146 0.64465 0.64639 0.0
N78 N 0.10507 0.63153 0.673 0.0
N79 N 0.10427 0.61718 0.6542 0.0
C80 C 0.12902 0.66649 0.6875 0.0
H81 H 0.11684 0.68214 0.68651 0.0
H82 H 0.14769 0.6726 0.68449 0.0
H83 H 0.12728 0.65876 0.70574 0.0
C84 C 0.0295 0.67365 0.71289 0.0
N85 N 0.04627 0.65679 0.71755 0.0
N86 N 0.06211 0.65645 0.70012 0.0
C87 C 0.05526 0.67264 0.68329 0.0
C88 C 0.03443 0.68434 0.69094 0.0
C89 C 0.00637 0.67555 0.72638 0.0
H90 H 0.99673 0.65822 0.72531 0.0
H91 H 0.0102 0.67947 0.74546 0.0
H92 H 0.99454 0.6898 0.71921 0.0
O93 O 0.03132 0.60286 0.71411 0.0
O94 O 0.06293 0.60129 0.68995 0.0
H95 H 0.06703 0.65584 0.65082 0.0
H96 H 0.05557 0.68596 0.64674 0.0
C97 C 0.06599 0.67405 0.65874 0.0
H98 H 0.0844 0.68121 0.66 0.0
H99 H 0.09247 0.60282 0.65239 0.0
O100 O 0.01673 0.63402 0.75948 0.0
C101 C 0.04273 0.59336 0.69676 0.0
Co102 Co 0.98228 0.39295 0.72792 0.0
Co103 Co 0.94558 0.39546 0.68657 0.0
C104 C 0.9313 0.40841 0.73724 0.0
O105 O 0.95229 0.4035 0.74474 0.0
O106 O 0.92577 0.4048 0.71536 0.0
C107 C 0.00383 0.37457 0.77131 0.0
O108 O 0.98253 0.3663 0.77689 0.0
C109 C 0.90622 0.38007 0.65548 0.0
C110 C 0.91199 0.40315 0.62384 0.0
C111 C 0.89744 0.38509 0.63267 0.0
N112 N 0.92519 0.39425 0.65953 0.0
N113 N 0.92832 0.40824 0.64072 0.0
C114 C 0.89669 0.36279 0.67361 0.0
H115 H 0.90587 0.34529 0.67148 0.0
H116 H 0.87712 0.36021 0.67128 0.0
H117 H 0.90048 0.36936 0.69198 0.0
C118 C 0.99757 0.34952 0.70222 0.0
N119 N 0.9805 0.36612 0.7068 0.0
N120 N 0.96577 0.3674 0.68847 0.0
C121 C 0.97339 0.35185 0.6714 0.0
C122 C 0.99383 0.33982 0.67953 0.0
C123 C 0.01988 0.34691 0.7169 0.0
H124 H 0.015 0.34108 0.73524 0.0
H125 H 0.03257 0.33373 0.70919 0.0
H126 H 0.02902 0.3645 0.71815 0.0
O127 O 0.99382 0.42075 0.70923 0.0
O128 O 0.96632 0.42287 0.68057 0.0
H129 H 0.9657 0.36881 0.63794 0.0
H130 H 0.97228 0.33709 0.63549 0.0
C131 C 0.96341 0.35104 0.64654 0.0
H132 H 0.94398 0.34716 0.64737 0.0
H133 H 0.94191 0.42096 0.6392 0.0
O134 O 0.00672 0.38646 0.75215 0.0
C135 C 0.98504 0.4308 0.69071 0.0
Co136 Co 0.2849 0.04354 0.38272 0.0
Co137 Co 0.33067 0.07341 0.39278 0.0
C138 C 0.28031 0.09364 0.40064 0.0
O139 O 0.27043 0.07499 0.39193 0.0
O140 O 0.3031 0.09555 0.40097 0.0
C141 C 0.23942 0.02501 0.36357 0.0
O142 O 0.23202 0.04711 0.36031 0.0
C143 C 0.36738 0.10891 0.38113 0.0
C144 C 0.39629 0.09887 0.40622 0.0
C145 C 0.39084 0.11439 0.38759 0.0
N146 N 0.35979 0.09075 0.39492 0.0
N147 N 0.37697 0.0851 0.41016 0.0
C148 C 0.35195 0.1206 0.36258 0.0
H149 H 0.33282 0.11923 0.36779 0.0
H150 H 0.35416 0.11111 0.34525 0.0
H151 H 0.35692 0.13971 0.36027 0.0
C152 C 0.31392 0.02673 0.34195 0.0
N153 N 0.30958 0.04337 0.35905 0.0
N154 N 0.32943 0.05514 0.3636 0.0
C155 C 0.34721 0.04587 0.34989 0.0
C156 C 0.33803 0.02747 0.33561 0.0
C157 C 0.29666 0.00721 0.33567 0.0
H158 H 0.29387 0.99568 0.35161 0.0
H159 H 0.27923 0.01522 0.33053 0.0
H160 H 0.30319 0.99587 0.32074 0.0
O161 O 0.29775 0.03033 0.41302 0.0
O162 O 0.33138 0.05064 0.41914 0.0
H163 H 0.37861 0.04871 0.37166 0.0
H164 H 0.38469 0.04178 0.34049 0.0
C165 C 0.37309 0.05213 0.35287 0.0
H166 H 0.37561 0.07145 0.34917 0.0
H167 H 0.37579 0.07135 0.42276 0.0
O168 O 0.25982 0.02105 0.37277 0.0
C169 C 0.31639 0.03474 0.42541 0.0
Co170 Co 0.73745 0.9788 0.3921 0.0
Co171 Co 0.69981 0.93793 0.38862 0.0
C172 C 0.75034 0.92867 0.40683 0.0
O173 O 0.75618 0.95044 0.40345 0.0
O174 O 0.72965 0.92129 0.40064 0.0
C175 C 0.78027 0.00344 0.37914 0.0
O176 O 0.78747 0.98236 0.37153 0.0
C177 C 0.68122 0.89752 0.36522 0.0
C178 C 0.67231 0.90244 0.37919 0.0
C179 C 0.66577 0.87956 0.36649 0.0
N180 N 0.67704 0.91273 0.38245 0.0
N181 N 0.65695 0.91174 0.3956 0.0
C182 C 0.70346 0.8977 0.34717 0.0
H183 H 0.7159 0.91258 0.35149 0.0
H184 H 0.69676 0.89984 0.32857 0.0
H185 H 0.71306 0.8803 0.34812 0.0
C186 C 0.71526 0.99379 0.34698 0.0
N187 N 0.71976 0.97621 0.36307 0.0
N188 N 0.70269 0.96004 0.36193 0.0
C189 C 0.68651 0.96727 0.34531 0.0
C190 C 0.69392 0.98891 0.33513 0.0
C191 C 0.72816 0.0173 0.34675 0.0
H192 H 0.72647 0.02594 0.36457 0.0
H193 H 0.7474 0.01416 0.34302 0.0
H194 H 0.721 0.02971 0.333 0.0
O195 O 0.71444 0.98676 0.41781 0.0
O196 O 0.68837 0.95661 0.41626 0.0
H197 H 0.65363 0.9537 0.35922 0.0
H198 H 0.65131 0.96568 0.32906 0.0
C199 C 0.66282 0.95551 0.34168 0.0
H200 H 0.66586 0.93732 0.3343 0.0
H201 H 0.65669 0.92602 0.40761 0.0
O202 O 0.75991 0.00552 0.38905 0.0
C203 C 0.69591 0.97597 0.42562 0.0
Co204 Co 0.28554 0.98765 0.64047 0.0
Co205 Co 0.33105 0.95704 0.63131 0.0
C206 C 0.28082 0.93743 0.62255 0.0
O207 O 0.27101 0.95632 0.63087 0.0
O208 O 0.30356 0.93517 0.62279 0.0
C209 C 0.23885 0.00513 0.65646 0.0
O210 O 0.23155 0.98277 0.65675 0.0
C211 C 0.36599 0.91989 0.64274 0.0
C212 C 0.39641 0.9299 0.6195 0.0
C213 C 0.38944 0.91364 0.63694 0.0
N214 N 0.35983 0.93912 0.62972 0.0
N215 N 0.3779 0.9448 0.61557 0.0
C216 C 0.3493 0.90795 0.65997 0.0
H217 H 0.35108 0.91648 0.67784 0.0
H218 H 0.35341 0.88855 0.66151 0.0
H219 H 0.33049 0.91037 0.65406 0.0
C220 C 0.31435 0.00445 0.68144 0.0
N221 N 0.30991 0.98771 0.66447 0.0
N222 N 0.3295 0.97528 0.66049 0.0
C223 C 0.34717 0.98401 0.67464 0.0
C224 C 0.33826 0.00292 0.68845 0.0
C225 C 0.2975 0.02459 0.68696 0.0
H226 H 0.29484 0.03553 0.67057 0.0
H227 H 0.27989 0.01716 0.69235 0.0
H228 H 0.30427 0.03636 0.70143 0.0
O229 O 0.29893 1.00063 0.61037 0.0
O230 O 0.33237 0.97972 0.60481 0.0
H231 H 0.37954 0.98076 0.65442 0.0
H232 H 0.38421 0.98557 0.6862 0.0
C233 C 0.37284 0.97653 0.67265 0.0
H234 H 0.37423 0.95692 0.67529 0.0
H235 H 0.37783 0.95923 0.60369 0.0
O236 O 0.26012 0.01 0.65011 0.0
C237 C 0.31766 0.99581 0.59824 0.0
Co238 Co 0.72795 0.03755 0.62554 0.0
Co239 Co 0.68591 0.07364 0.62233 0.0
C240 C 0.73644 0.0883 0.60912 0.0
O241 O 0.74436 0.06752 0.61437 0.0
O242 O 0.71444 0.09347 0.61254 0.0
C243 C 0.77145 0.01638 0.64434 0.0
O244 O 0.77722 0.03795 0.65175 0.0
C245 C 0.65447 0.1126 0.6382 0.0
C246 C 0.62246 0.10629 0.61581 0.0
C247 C 0.63131 0.12083 0.6339 0.0
N248 N 0.65868 0.09389 0.62368 0.0
N249 N 0.63965 0.09045 0.61007 0.0
C250 C 0.67272 0.12235 0.65522 0.0
H251 H 0.67129 0.11286 0.67262 0.0
H252 H 0.66993 0.14182 0.65818 0.0
H253 H 0.69102 0.11915 0.64814 0.0
C254 C 0.70292 0.02346 0.66972 0.0
N255 N 0.70704 0.03997 0.65247 0.0
N256 N 0.68844 0.05434 0.65085 0.0
C257 C 0.67164 0.04699 0.66678 0.0
C258 C 0.68027 0.02718 0.67943 0.0
C259 C 0.71797 1.00147 0.67304 0.0
H260 H 0.71901 0.99155 0.65585 0.0
H261 H 0.7363 0.00685 0.67837 0.0
H262 H 0.71068 0.98929 0.68689 0.0
O263 O 0.70908 0.02512 0.59817 0.0
O264 O 0.67981 0.05197 0.59551 0.0
H265 H 0.63827 0.05421 0.64939 0.0
H266 H 0.63548 0.04713 0.68098 0.0
C267 C 0.64654 0.0564 0.66733 0.0
H268 H 0.64686 0.07578 0.67158 0.0
H269 H 0.63815 0.0769 0.59728 0.0
O270 O 0.75226 0.01321 0.63258 0.0
C271 C 0.69026 0.03316 0.58807 0.0
Co272 Co 0.38884 0.28073 0.04686 0.0
Co273 Co 0.39616 0.32407 0.0808 0.0
C274 C 0.4072 0.27341 0.0969 0.0
O275 O 0.40032 0.26499 0.07683 0.0
O276 O 0.40506 0.29569 0.1015 0.0
C277 C 0.37257 0.235 0.02749 0.0
O278 O 0.3712 0.22707 0.0496 0.0
C279 C 0.38118 0.35698 0.11824 0.0
C280 C 0.40416 0.3884 0.11132 0.0
C281 C 0.38529 0.38048 0.1254 0.0
N282 N 0.39636 0.35172 0.10038 0.0
N283 N 0.41046 0.37032 0.09669 0.0
C284 C 0.36325 0.33951 0.12783 0.0
H285 H 0.34707 0.33963 0.11631 0.0
H286 H 0.3581 0.34411 0.14649 0.0
H287 H 0.37079 0.32112 0.12727 0.0
C288 C 0.34643 0.30837 0.0325 0.0
N289 N 0.36368 0.30372 0.04887 0.0
N290 N 0.36711 0.32283 0.06218 0.0
C291 C 0.35242 0.34049 0.05424 0.0
C292 C 0.33871 0.33195 0.0351 0.0
C293 C 0.34135 0.29234 0.01159 0.0
H294 H 0.35765 0.29097 1.0003 0.0
H295 H 0.33679 0.27417 0.01817 0.0
H296 H 0.32645 0.29908 1.00036 0.0
O297 O 0.4176 0.29657 0.03397 0.0
O298 O 0.42288 0.32762 0.05837 0.0
H299 H 0.3725 0.37258 0.06033 0.0
H300 H 0.3414 0.37778 0.05256 0.0
C301 C 0.3539 0.36597 0.06251 0.0
H302 H 0.34924 0.36692 0.08176 0.0
H303 H 0.42366 0.37106 0.08347 0.0
O304 O 0.37983 0.25615 0.02344 0.0
C305 C 0.42938 0.31496 0.04057 0.0
Co306 Co 0.38984 0.73595 0.98165 0.0
Co307 Co 0.39511 0.69314 0.94691 0.0
C308 C 0.40507 0.74426 0.93101 0.0
O309 O 0.39937 0.75269 0.95145 0.0
O310 O 0.40285 0.72194 0.92669 0.0
C311 C 0.37484 0.78091 0.00329 0.0
O312 O 0.37161 0.78901 0.98143 0.0
C313 C 0.37557 0.66029 0.91188 0.0
C314 C 0.40236 0.63114 0.91178 0.0
C315 C 0.38023 0.63764 0.90249 0.0
N316 N 0.39371 0.66633 0.92635 0.0
N317 N 0.40993 0.64912 0.92589 0.0
C318 C 0.35475 0.67654 0.90723 0.0
H319 H 0.34059 0.67318 0.92075 0.0
H320 H 0.34737 0.67354 0.88901 0.0
H321 H 0.36039 0.69552 0.90913 0.0
C322 C 0.34725 0.70944 0.99698 0.0
N323 N 0.36401 0.71368 0.98005 0.0
N324 N 0.36761 0.69402 0.96764 0.0
C325 C 0.35421 0.67621 0.97725 0.0
C326 C 0.3407 0.6853 0.9964 0.0
C327 C 0.3387 0.72809 0.01427 0.0
H328 H 0.33731 0.74564 0.00507 0.0
H329 H 0.32091 0.72335 0.02174 0.0
H330 H 0.35178 0.7298 0.02912 0.0
O331 O 0.41902 0.71864 0.99295 0.0
O332 O 0.42291 0.68862 0.96702 0.0
H333 H 0.35478 0.63877 0.98747 0.0
H334 H 0.34594 0.64478 0.957 0.0
C335 C 0.35821 0.65026 0.97163 0.0
H336 H 0.37689 0.64727 0.96566 0.0
H337 H 0.4257 0.64923 0.93591 0.0
O338 O 0.38257 0.75975 0.00649 0.0
C339 C 0.43024 0.70034 0.98506 0.0
Co340 Co 0.64227 0.28623 0.98441 0.0
Co341 Co 0.63185 0.33227 0.95509 0.0
C342 C 0.62342 0.28208 0.93468 0.0
O343 O 0.6325 0.27197 0.95303 0.0
O344 O 0.62296 0.30489 0.93311 0.0
C345 C 0.65762 0.23917 1.00206 0.0
O346 O 0.65738 0.23141 0.97984 0.0
C347 C 0.64272 0.36752 0.91813 0.0
C348 C 0.61945 0.39779 0.92861 0.0
C349 C 0.63675 0.39099 0.91212 0.0
N350 N 0.6299 0.36118 0.93744 0.0
N351 N 0.61575 0.37918 0.94342 0.0
C352 C 0.65989 0.35094 0.9059 0.0
H353 H 0.65417 0.33208 0.90837 0.0
H354 H 0.67785 0.35285 0.91418 0.0
H355 H 0.66113 0.35507 0.88649 0.0
C356 C 0.68354 0.31484 1.00054 0.0
N357 N 0.6661 0.31066 0.98426 0.0
N358 N 0.6615 0.33054 0.97253 0.0
C359 C 0.67568 0.34815 0.98132 0.0
C360 C 0.69018 0.33888 0.9995 0.0
C361 C 0.68994 0.29749 0.01998 0.0
H362 H 0.6946 0.27993 0.0119 0.0
H363 H 0.70517 0.30381 0.031 0.0
H364 H 0.67419 0.2949 0.03182 0.0
O365 O 0.61246 0.29951 0.9982 0.0
O366 O 0.60598 0.33348 0.97853 0.0
H367 H 0.68661 0.38534 0.98383 0.0
H368 H 0.67547 0.37598 0.95505 0.0
C369 C 0.67314 0.37399 0.97466 0.0
H370 H 0.65486 0.38026 0.97933 0.0
H371 H 0.60401 0.37897 0.95797 0.0
O372 O 0.65201 0.26074 0.0066 0.0
C373 C 0.60009 0.31832 0.99444 0.0
Co374 Co 0.63674 0.73717 0.04147 0.0
Co375 Co 0.63385 0.69465 0.07714 0.0
C376 C 0.62295 0.74507 0.09329 0.0
O377 O 0.62728 0.7531 0.07235 0.0
O378 O 0.62639 0.723 0.09813 0.0
C379 C 0.65134 0.78278 0.02066 0.0
O380 O 0.65528 0.79045 0.04256 0.0
C381 C 0.64903 0.66174 0.11511 0.0
C382 C 0.62622 0.63031 0.10757 0.0
C383 C 0.64425 0.63842 0.1226 0.0
N384 N 0.63481 0.66673 0.09637 0.0
N385 N 0.62096 0.64804 0.0922 0.0
C386 C 0.66625 0.67943 0.1255 0.0
H387 H 0.65974 0.69796 0.12245 0.0
H388 H 0.6838 0.67765 0.11634 0.0
H389 H 0.66869 0.67632 0.14499 0.0
C390 C 0.67893 0.71054 0.02452 0.0
N391 N 0.66277 0.71504 0.04201 0.0
N392 N 0.66124 0.6963 0.05618 0.0
C393 C 0.67618 0.67906 0.04779 0.0
C394 C 0.688 0.68746 0.02737 0.0
C395 C 0.68172 0.72601 1.00278 0.0
H396 H 0.66437 0.72692 0.99314 0.0
H397 H 0.68666 0.74441 0.0084 0.0
H398 H 0.69555 0.71911 0.99031 0.0
O399 O 0.60794 0.71993 0.0303 0.0
O400 O 0.60539 0.69079 0.0573 0.0
H401 H 0.65884 0.64569 0.05491 0.0
H402 H 0.69042 0.64293 0.04795 0.0
C403 C 0.67674 0.65398 0.05722 0.0
H404 H 0.68086 0.65433 0.07663 0.0
H405 H 0.6083 0.64716 0.07848 0.0
O406 O 0.64338 0.76177 0.01725 0.0
C407 C 0.59728 0.70181 0.03914 0.0
Co408 Co 0.54103 0.88539 0.78231 0.0
Co409 Co 0.5726 0.89467 0.82712 0.0
C410 C 0.59103 0.90319 0.7764 0.0
O411 O 0.57193 0.89485 0.76712 0.0
O412 O 0.59387 0.90308 0.79909 0.0
C413 C 0.52291 0.86905 0.73605 0.0
O414 O 0.54516 0.86858 0.72844 0.0
C415 C 0.60933 0.88157 0.86178 0.0
C416 C 0.60064 0.90528 0.89228 0.0
C417 C 0.61563 0.88668 0.88536 0.0
N418 N 0.59114 0.89597 0.85552 0.0
N419 N 0.58635 0.91047 0.8736 0.0
C420 C 0.62009 0.8635 0.84513 0.0
H421 H 0.61912 0.8701 0.8264 0.0
H422 H 0.60965 0.84663 0.84603 0.0
H423 H 0.63901 0.85976 0.84996 0.0
C424 C 0.52503 0.84446 0.81128 0.0
N425 N 0.54164 0.86143 0.80657 0.0
N426 N 0.55427 0.86554 0.82601 0.0
C427 C 0.54572 0.85151 0.84388 0.0
C428 C 0.5268 0.83762 0.83521 0.0
C429 C 0.50471 0.83886 0.79469 0.0
H430 H 0.49361 0.85518 0.79226 0.0
H431 H 0.51194 0.83354 0.77696 0.0
H432 H 0.49314 0.82431 0.80159 0.0
O433 O 0.52823 0.91543 0.79611 0.0
O434 O 0.54996 0.92121 0.82897 0.0
H435 H 0.55021 0.87238 0.87575 0.0
H436 H 0.54352 0.84109 0.88129 0.0
C437 C 0.55328 0.85375 0.86952 0.0
H438 H 0.57266 0.84987 0.871 0.0
H439 H 0.5727 0.92325 0.87354 0.0
O440 O 0.51831 0.8757 0.75731 0.0
C441 C 0.53343 0.92765 0.81469 0.0
Co442 Co 0.48447 0.14283 0.786 0.0
Co443 Co 0.45451 0.13301 0.83174 0.0
C444 C 0.43426 0.12523 0.78145 0.0
O445 O 0.45298 0.13366 0.77147 0.0
O446 O 0.43243 0.12499 0.80425 0.0
C447 C 0.50237 0.16128 0.74024 0.0
O448 O 0.48006 0.16388 0.73325 0.0
C449 C 0.41785 0.14408 0.86729 0.0
C450 C 0.42804 0.12015 0.89713 0.0
C451 C 0.41186 0.13789 0.8907 0.0
N452 N 0.43688 0.13099 0.86063 0.0
N453 N 0.44265 0.11643 0.87835 0.0
C454 C 0.40585 0.16174 0.85107 0.0
H455 H 0.40784 0.15606 0.83213 0.0
H456 H 0.41467 0.17944 0.85296 0.0
H457 H 0.38657 0.16353 0.85556 0.0
C458 C 0.50107 0.18382 0.81503 0.0
N459 N 0.48463 0.16657 0.81067 0.0
N460 N 0.47259 0.16223 0.83042 0.0
C461 C 0.48135 0.17633 0.84813 0.0
C462 C 0.4998 0.19058 0.83904 0.0
C463 C 0.52077 0.18999 0.79791 0.0
H464 H 0.51292 0.19528 0.78044 0.0
H465 H 0.53219 0.20476 0.80461 0.0
H466 H 0.53216 0.17395 0.79502 0.0
O467 O 0.49756 0.1125 0.7989 0.0
O468 O 0.47726 0.10657 0.83261 0.0
H469 H 0.48377 0.18716 0.88538 0.0
H470 H 0.45483 0.17679 0.87572 0.0
C471 C 0.47437 0.17394 0.87391 0.0
H472 H 0.47851 0.15553 0.88017 0.0
H473 H 0.45697 0.10441 0.87787 0.0
O474 O 0.5069 0.15271 0.76081 0.0
C475 C 0.49313 0.10019 0.8176 0.0
Co476 Co 0.54955 0.1375 0.24414 0.0
Co477 Co 0.57783 0.12662 0.19763 0.0
C478 C 0.59791 0.11592 0.24789 0.0
O479 O 0.58016 0.12569 0.25844 0.0
O480 O 0.59925 0.11606 0.22505 0.0
C481 C 0.53062 0.15121 0.29138 0.0
O482 O 0.55231 0.14889 0.30018 0.0
C483 C 0.61187 0.14264 0.16192 0.0
C484 C 0.60744 0.11593 0.13305 0.0
C485 C 0.61922 0.13708 0.13871 0.0
N486 N 0.59624 0.12593 0.16913 0.0
N487 N 0.59391 0.10978 0.152 0.0
C488 C 0.6195 0.16295 0.17765 0.0
H489 H 0.60764 0.17858 0.17445 0.0
H490 H 0.63833 0.16807 0.1739 0.0
H491 H 0.61764 0.15784 0.19679 0.0
C492 C 0.53492 0.17988 0.21707 0.0
N493 N 0.55102 0.16212 0.22052 0.0
N494 N 0.56062 0.15632 0.19985 0.0
C495 C 0.5499 0.16931 0.18235 0.0
C496 C 0.533 0.18485 0.19258 0.0
C497 C 0.52037 0.19058 0.23689 0.0
H498 H 0.53126 0.19162 0.25348 0.0
H499 H 0.51405 0.20881 0.23206 0.0
H500 H 0.50465 0.17901 0.24049 0.0
O501 O 0.53459 0.10879 0.22929 0.0
O502 O 0.5538 0.10184 0.19508 0.0
H503 H 0.53512 0.16712 0.14647 0.0
H504 H 0.56681 0.17318 0.14821 0.0
C505 C 0.55184 0.16294 0.15633 0.0
H506 H 0.55561 0.14357 0.15424 0.0
H507 H 0.58247 0.09503 0.15293 0.0
O508 O 0.52689 0.14724 0.2693 0.0
C509 C 0.53754 0.09668 0.21013 0.0
Co510 Co 0.4829 0.88484 0.24431 0.0
Co511 Co 0.45239 0.89134 0.19828 0.0
C512 C 0.43179 0.89974 0.24812 0.0
O513 O 0.45073 0.89203 0.25823 0.0
O514 O 0.42996 0.89948 0.22534 0.0
C515 C 0.50786 0.86237 0.28567 0.0
O516 O 0.49432 0.84321 0.2841 0.0
C517 C 0.41618 0.87745 0.16309 0.0
C518 C 0.42575 0.90048 0.13236 0.0
C519 C 0.4102 0.88246 0.13941 0.0
N520 N 0.43468 0.89144 0.16933 0.0
N521 N 0.44003 0.90548 0.15106 0.0
C522 C 0.40465 0.86002 0.17987 0.0
H523 H 0.41441 0.84272 0.17915 0.0
H524 H 0.38563 0.857 0.17494 0.0
H525 H 0.40576 0.86675 0.19854 0.0
C526 C 0.50378 0.8453 0.21526 0.0
N527 N 0.48564 0.86074 0.22001 0.0
N528 N 0.47239 0.86319 0.20066 0.0
C529 C 0.48159 0.84915 0.18311 0.0
C530 C 0.50189 0.83729 0.19167 0.0
C531 C 0.52532 0.84247 0.23102 0.0
H532 H 0.53066 0.86011 0.23837 0.0
H533 H 0.5208 0.8304 0.24611 0.0
H534 H 0.54078 0.83475 0.22122 0.0
O535 O 0.49348 0.91537 0.23048 0.0
O536 O 0.47344 0.9192 0.19636 0.0
H537 H 0.47598 0.86722 0.1498 0.0
H538 H 0.48192 0.83545 0.14673 0.0
C539 C 0.47285 0.84929 0.15776 0.0
H540 H 0.45338 0.8457 0.15748 0.0
H541 H 0.4539 0.918 0.15112 0.0
O542 O 0.50516 0.87955 0.27102 0.0
C543 C 0.48858 0.92693 0.21146 0.0
Co544 Co 0.78184 0.5419 0.88219 0.0
Co545 Co 0.82698 0.57267 0.8916 0.0
C546 C 0.77674 0.59171 0.90134 0.0
O547 O 0.76704 0.57287 0.89285 0.0
O548 O 0.79944 0.59416 0.90084 0.0
C549 C 0.73509 0.52451 0.86642 0.0
O550 O 0.72752 0.54679 0.86698 0.0
C551 C 0.86132 0.60972 0.8794 0.0
C552 C 0.89221 0.60018 0.9022 0.0
C553 C 0.88494 0.61586 0.88434 0.0
N554 N 0.85537 0.59097 0.89316 0.0
N555 N 0.87368 0.58567 0.90716 0.0
C556 C 0.84436 0.62112 0.86203 0.0
H557 H 0.82585 0.62042 0.8692 0.0
H558 H 0.84452 0.6109 0.84498 0.0
H559 H 0.84943 0.64 0.85846 0.0
C560 C 0.81036 0.52629 0.84051 0.0
N561 N 0.80591 0.54264 0.85787 0.0
N562 N 0.82545 0.55508 0.86198 0.0
C563 C 0.8431 0.54673 0.84752 0.0
C564 C 0.83422 0.52808 0.83335 0.0
C565 C 0.79362 0.50617 0.83471 0.0
H566 H 0.79116 0.4949 0.85089 0.0
H567 H 0.77591 0.51362 0.8296 0.0
H568 H 0.80036 0.49471 0.81997 0.0
O569 O 0.79589 0.52802 0.91162 0.0
O570 O 0.829 0.54931 0.91743 0.0
H571 H 0.87541 0.55045 0.86777 0.0
H572 H 0.88021 0.54515 0.83607 0.0
C573 C 0.86873 0.55431 0.84945 0.0
H574 H 0.87003 0.57386 0.84643 0.0
H575 H 0.87385 0.57154 0.9194 0.0
O576 O 0.75652 0.51966 0.87225 0.0
C577 C 0.81474 0.5327 0.92361 0.0
Co578 Co 0.23372 0.47573 0.89647 0.0
Co579 Co 0.19152 0.44045 0.90008 0.0
C580 C 0.24256 0.42589 0.91337 0.0
O581 O 0.25078 0.44631 0.90745 0.0
O582 O 0.22043 0.42109 0.91032 0.0
C583 C 0.27782 0.49813 0.88096 0.0
O584 O 0.28546 0.47657 0.87543 0.0
C585 C 0.16068 0.40509 0.87812 0.0
C586 C 0.13018 0.40376 0.9033 0.0
C587 C 0.138 0.39524 0.88127 0.0
N588 N 0.16549 0.41911 0.897 0.0
N589 N 0.14747 0.4179 0.91226 0.0
C590 C 0.17803 0.40135 0.85802 0.0
H591 H 0.17527 0.41535 0.8442 0.0
H592 H 0.17562 0.3834 0.8498 0.0
H593 H 0.19665 0.40319 0.86474 0.0
C594 C 0.20983 0.48971 0.85199 0.0
N595 N 0.21336 0.47307 0.86921 0.0
N596 N 0.19359 0.46074 0.87219 0.0
C597 C 0.17633 0.47023 0.85793 0.0
C598 C 0.18597 0.48916 0.84452 0.0
C599 C 0.22889 0.50656 0.84362 0.0
H600 H 0.24629 0.49703 0.84272 0.0
H601 H 0.22468 0.51379 0.82558 0.0
H602 H 0.23054 0.52163 0.85647 0.0
O603 O 0.2141 0.4874 0.92407 0.0
O604 O 0.18429 0.46117 0.92693 0.0
H605 H 0.13902 0.48077 0.8574 0.0
H606 H 0.14509 0.45042 0.84819 0.0
C607 C 0.15025 0.46476 0.86096 0.0
H608 H 0.14659 0.45845 0.87941 0.0
H609 H 0.14653 0.42752 0.92827 0.0
O610 O 0.25724 0.50086 0.89023 0.0
C611 C 0.19514 0.47975 0.93428 0.0
Co612 Co 0.78891 0.48459 0.1388 0.0
Co613 Co 0.83393 0.45365 0.12925 0.0
C614 C 0.78314 0.43441 0.12205 0.0
O615 O 0.77355 0.45326 0.13069 0.0
O616 O 0.80587 0.43232 0.12136 0.0
C617 C 0.74428 0.50366 0.15862 0.0
O618 O 0.73749 0.48157 0.16298 0.0
C619 C 0.86731 0.41602 0.14208 0.0
C620 C 0.89901 0.425 0.1202 0.0
C621 C 0.89099 0.40949 0.1379 0.0
N622 N 0.86205 0.43482 0.12811 0.0
N623 N 0.88083 0.43979 0.11464 0.0
C624 C 0.84968 0.40508 0.15905 0.0
H625 H 0.84961 0.41539 0.17605 0.0
H626 H 0.85423 0.38608 0.16278 0.0
H627 H 0.83137 0.40613 0.15143 0.0
C628 C 0.81853 0.50184 0.17906 0.0
N629 N 0.81372 0.48499 0.16231 0.0
N630 N 0.83312 0.47231 0.15823 0.0
C631 C 0.85102 0.48089 0.1722 0.0
C632 C 0.84247 0.50004 0.18593 0.0
C633 C 0.80202 0.52231 0.18444 0.0
H634 H 0.79883 0.5326 0.16774 0.0
H635 H 0.78461 0.51522 0.19082 0.0
H636 H 0.80934 0.53467 0.19811 0.0
O637 O 0.80194 0.49644 0.10805 0.0
O638 O 0.83557 0.47584 0.10238 0.0
H639 H 0.88334 0.47645 0.15212 0.0
H640 H 0.88807 0.4817 0.18383 0.0
C641 C 0.87649 0.47274 0.17041 0.0
H642 H 0.87738 0.45315 0.17343 0.0
H643 H 0.88157 0.45391 0.10242 0.0
O644 O 0.76422 0.50763 0.14846 0.0
C645 C 0.82055 0.49162 0.09572 0.0
Co646 Co 0.23445 0.53729 0.13367 0.0
Co647 Co 0.19755 0.57844 0.13304 0.0
C648 C 0.24785 0.58754 0.11757 0.0
O649 O 0.25257 0.56543 0.12068 0.0
O650 O 0.22766 0.59607 0.12396 0.0
C651 C 0.27725 0.51433 0.15035 0.0
O652 O 0.2839 0.5359 0.15697 0.0
C653 C 0.17016 0.61881 0.15182 0.0
C654 C 0.13749 0.61708 0.12959 0.0
C655 C 0.14767 0.6291 0.14881 0.0
N656 N 0.17266 0.60122 0.13562 0.0
N657 N 0.15335 0.60065 0.122 0.0
C658 C 0.18934 0.62554 0.16931 0.0
H659 H 0.20721 0.62321 0.16092 0.0
H660 H 0.1886 0.61346 0.18506 0.0
H661 H 0.18713 0.64435 0.17537 0.0
C662 C 0.20977 0.52498 0.17837 0.0
N663 N 0.21514 0.5415 0.1615 0.0
N664 N 0.19816 0.55781 0.16083 0.0
C665 C 0.18105 0.55172 0.17698 0.0
C666 C 0.18789 0.53073 0.18886 0.0
C667 C 0.22258 0.50149 0.18059 0.0
H668 H 0.24154 0.5048 0.18543 0.0
H669 H 0.21446 0.4897 0.19433 0.0
H670 H 0.22216 0.49207 0.16309 0.0
O671 O 0.21329 0.52696 0.10743 0.0
O672 O 0.18925 0.55867 0.10513 0.0
H673 H 0.14869 0.56404 0.16047 0.0
H674 H 0.14497 0.55438 0.19126 0.0
C675 C 0.15705 0.56362 0.1785 0.0
H676 H 0.15933 0.58233 0.18462 0.0
H677 H 0.15057 0.58839 0.10816 0.0
O678 O 0.25737 0.51141 0.13973 0.0
C679 C 0.19629 0.53842 0.09741 0.0
Co680 Co 0.89887 0.78894 0.54486 0.0
Co681 Co 0.89681 0.82898 0.58312 0.0
C682 C 0.91205 0.7794 0.5968 0.0
O683 O 0.90896 0.77287 0.57518 0.0
O684 O 0.90642 0.80057 0.6033 0.0
C685 C 0.8787 0.74825 0.51985 0.0
O686 O 0.86032 0.74994 0.53445 0.0
C687 C 0.87754 0.86 0.62109 0.0
C688 C 0.89934 0.89257 0.61578 0.0
C689 C 0.88055 0.88341 0.62914 0.0
N690 N 0.8934 0.85595 0.60346 0.0
N691 N 0.90673 0.87529 0.60076 0.0
C692 C 0.86046 0.84143 0.63014 0.0
H693 H 0.84425 0.84108 0.61869 0.0
H694 H 0.85508 0.84532 0.6489 0.0
H695 H 0.86888 0.82344 0.6291 0.0
C696 C 0.8562 0.81399 0.52664 0.0
N697 N 0.87114 0.80891 0.54506 0.0
N698 N 0.87008 0.82629 0.56099 0.0
C699 C 0.85423 0.84297 0.55307 0.0
C700 C 0.84472 0.83569 0.53104 0.0
C701 C 0.85729 0.80156 0.50283 0.0
H702 H 0.84631 0.78506 0.50358 0.0
H703 H 0.85037 0.81298 0.48813 0.0
H704 H 0.87603 0.7966 0.49857 0.0
O705 O 0.92591 0.80914 0.53482 0.0
O706 O 0.92517 0.83635 0.56391 0.0
H707 H 0.83664 0.87755 0.5555 0.0
H708 H 0.84567 0.86462 0.5835 0.0
C709 C 0.85083 0.86698 0.56452 0.0
H710 H 0.86795 0.87703 0.56399 0.0
H711 H 0.92033 0.87703 0.58807 0.0
O712 O 0.89587 0.76306 0.52138 0.0
C713 C 0.93449 0.82761 0.54508 0.0
Co714 Co 0.88227 0.24047 0.48134 0.0
Co715 Co 0.89279 0.19708 0.44847 0.0
C716 C 0.90138 0.2485 0.43205 0.0
O717 O 0.89249 0.25713 0.45125 0.0
O718 O 0.90145 0.22592 0.4285 0.0
C719 C 0.86112 0.2841 0.50085 0.0
O720 O 0.8574 0.29122 0.47873 0.0
C721 C 0.88001 0.16406 0.41052 0.0
C722 C 0.90376 0.13328 0.41786 0.0
C723 C 0.88489 0.14066 0.40347 0.0
N724 N 0.8947 0.16972 0.42863 0.0
N725 N 0.90931 0.15153 0.43255 0.0
C726 C 0.86166 0.18099 0.40071 0.0
H727 H 0.86881 0.19953 0.40095 0.0
H728 H 0.84553 0.18076 0.41229 0.0
H729 H 0.85657 0.17601 0.38214 0.0
C730 C 0.84103 0.21055 0.49523 0.0
N731 N 0.85849 0.21599 0.47932 0.0
N732 N 0.86318 0.19705 0.46615 0.0
C733 C 0.8491 0.17875 0.47366 0.0
C734 C 0.83446 0.18664 0.49241 0.0
C735 C 0.83456 0.22631 0.51596 0.0
H736 H 0.85057 0.22884 0.52744 0.0
H737 H 0.82881 0.24408 0.50919 0.0
H738 H 0.82002 0.21866 0.52707 0.0
O739 O 0.9121 0.22642 0.49439 0.0
O740 O 0.91873 0.1944 0.47164 0.0
H741 H 0.83964 0.14103 0.47483 0.0
H742 H 0.84775 0.15239 0.44594 0.0
C743 C 0.85188 0.1534 0.4653 0.0
H744 H 0.87068 0.14754 0.46791 0.0
H745 H 0.92223 0.15113 0.44605 0.0
O746 O 0.87155 0.26428 0.50482 0.0
C747 C 0.9246 0.20811 0.48884 0.0
Co748 Co 0.13474 0.79486 0.48861 0.0
Co749 Co 0.13241 0.83595 0.45131 0.0
C750 C 0.11779 0.78565 0.43783 0.0
O751 O 0.12259 0.77827 0.45893 0.0
O752 O 0.12232 0.80724 0.43186 0.0
C753 C 0.1527 0.75144 0.51138 0.0
O754 O 0.1607 0.7448 0.49026 0.0
C755 C 0.14696 0.86743 0.41163 0.0
C756 C 0.12442 0.89919 0.4188 0.0
C757 C 0.14191 0.89048 0.40347 0.0
N758 N 0.13337 0.86316 0.43101 0.0
N759 N 0.11969 0.88206 0.43497 0.0
C760 C 0.16374 0.8493 0.40119 0.0
H761 H 0.18165 0.85133 0.40954 0.0
H762 H 0.1654 0.85172 0.38152 0.0
H763 H 0.15731 0.83092 0.4052 0.0
C764 C 0.17863 0.82013 0.5028 0.0
N765 N 0.16192 0.81544 0.48588 0.0
N766 N 0.16073 0.83359 0.4709 0.0
C767 C 0.17643 0.85061 0.47819 0.0
C768 C 0.18843 0.84269 0.4987 0.0
C769 C 0.18115 0.80584 0.52538 0.0
H770 H 0.16366 0.80524 0.53477 0.0
H771 H 0.18652 0.78728 0.52079 0.0
H772 H 0.19465 0.81348 0.53775 0.0
O773 O 0.10789 0.81438 0.50081 0.0
O774 O 0.10566 0.84247 0.47277 0.0
H775 H 0.15964 0.88421 0.47066 0.0
H776 H 0.19149 0.88634 0.47648 0.0
C777 C 0.17725 0.87539 0.46801 0.0
H778 H 0.18072 0.87437 0.44849 0.0
H779 H 0.10745 0.88349 0.44902 0.0
O780 O 0.14117 0.77093 0.51355 0.0
C781 C 0.09805 0.83295 0.49195 0.0
Co782 Co 0.13819 0.23999 0.53839 0.0
Co783 Co 0.12897 0.19479 0.56923 0.0
C784 C 0.11905 0.24536 0.588 0.0
O785 O 0.12779 0.25499 0.56924 0.0
O786 O 0.11945 0.22263 0.59052 0.0
C787 C 0.15721 0.28534 0.52081 0.0
O788 O 0.16007 0.29189 0.54324 0.0
C789 C 0.1413 0.16042 0.60653 0.0
C790 C 0.11821 0.12966 0.5973 0.0
C791 C 0.136 0.13694 0.61305 0.0
N792 N 0.12771 0.1663 0.58761 0.0
N793 N 0.11364 0.14803 0.58241 0.0
C794 C 0.15863 0.17742 0.61788 0.0
H795 H 0.17625 0.17582 0.60883 0.0
H796 H 0.1608 0.17347 0.63725 0.0
H797 H 0.15236 0.19614 0.61552 0.0
C798 C 0.18008 0.21174 0.52295 0.0
N799 N 0.16259 0.21603 0.53919 0.0
N800 N 0.15846 0.19639 0.55147 0.0
C801 C 0.17292 0.1788 0.543 0.0
C802 C 0.18722 0.18787 0.52456 0.0
C803 C 0.18611 0.22863 0.50302 0.0
H804 H 0.17011 0.2311 0.4915 0.0
H805 H 0.19111 0.24628 0.51064 0.0
H806 H 0.20105 0.22199 0.49175 0.0
O807 O 0.10857 0.22592 0.52496 0.0
O808 O 0.10302 0.19259 0.54602 0.0
H809 H 0.18391 0.14159 0.54059 0.0
H810 H 0.17392 0.15136 0.56965 0.0
C811 C 0.17077 0.15305 0.55013 0.0
H812 H 0.15235 0.14667 0.54632 0.0
H813 H 0.10144 0.14784 0.56826 0.0
O814 O 0.14808 0.2651 0.51595 0.0
C815 C 0.09662 0.20705 0.52965 0.0
H816 H 0.14425 0.40698 0.43047 0.0
H817 H 0.16529 0.27356 0.47429 0.0
H818 H 0.13189 0.34317 0.38852 0.0
H819 H 0.16172 0.33434 0.52199 0.0
H820 H 0.16675 0.30071 0.44025 0.0
H821 H 0.16358 0.38231 0.46113 0.0
C822 C 0.14624 0.38793 0.42732 0.0
C823 C 0.13638 0.37721 0.40679 0.0
C824 C 0.16602 0.30817 0.45816 0.0
C825 C 0.15831 0.34899 0.44177 0.0
C826 C 0.16514 0.29268 0.47762 0.0
C827 C 0.1627 0.30176 0.50092 0.0
C828 C 0.16408 0.33292 0.46199 0.0
C829 C 0.16319 0.32664 0.50424 0.0
C830 C 0.15726 0.3739 0.44483 0.0
C831 C 0.13953 0.35249 0.40361 0.0
N832 N 0.1633 0.34144 0.48489 0.0
N833 N 0.14993 0.33921 0.42108 0.0
H834 H 0.84611 0.67083 0.38946 0.0
H835 H 0.9177 0.72895 0.4988 0.0
H836 H 0.92295 0.67319 0.39673 0.0
H837 H 0.84049 0.72828 0.49608 0.0
H838 H 0.91897 0.70442 0.46296 0.0
H839 H 0.84251 0.68861 0.42968 0.0
C840 C 0.86219 0.67497 0.3995 0.0
C841 C 0.88483 0.67063 0.38954 0.0
C842 C 0.90167 0.70941 0.47017 0.0
C843 C 0.88096 0.69071 0.43529 0.0
C844 C 0.90097 0.72341 0.49068 0.0
C845 C 0.87898 0.73078 0.50018 0.0
C846 C 0.8802 0.70298 0.45875 0.0
C847 C 0.85781 0.72291 0.48919 0.0
C848 C 0.86013 0.68503 0.42239 0.0
C849 C 0.90512 0.67631 0.40327 0.0
N850 N 0.85892 0.70963 0.46874 0.0
N851 N 0.90265 0.68604 0.4253 0.0
H852 H 0.16037 0.63336 0.60876 0.0
H853 H 0.14872 0.76564 0.55782 0.0
H854 H 0.13242 0.6939 0.64801 0.0
H855 H 0.1678 0.7046 0.51425 0.0
H856 H 0.15266 0.74104 0.5935 0.0
H857 H 0.17332 0.66063 0.57701 0.0
C858 C 0.15765 0.65244 0.61109 0.0
C859 C 0.14527 0.66129 0.63115 0.0
C860 C 0.15621 0.73301 0.57619 0.0
C861 C 0.15966 0.69246 0.59479 0.0
C862 C 0.15385 0.74703 0.55575 0.0
C863 C 0.15739 0.73697 0.53298 0.0
C864 C 0.16186 0.70863 0.57391 0.0
C865 C 0.16457 0.71294 0.53146 0.0
C866 C 0.16495 0.66796 0.59291 0.0
C867 C 0.14221 0.68614 0.63325 0.0
N868 N 0.1662 0.69943 0.55168 0.0
N869 N 0.14902 0.70078 0.61511 0.0
H870 H 0.87091 0.40209 0.59547 0.0
H871 H 0.85387 0.27005 0.54684 0.0
H872 H 0.88576 0.33716 0.6348 0.0
H873 H 0.85413 0.33281 0.50173 0.0
H874 H 0.85139 0.29568 0.58201 0.0
H875 H 0.85129 0.37812 0.56447 0.0
C876 C 0.86939 0.38291 0.598 0.0
C877 C 0.88013 0.37168 0.61781 0.0
C878 C 0.85159 0.30389 0.56443 0.0
C879 C 0.85789 0.34426 0.58243 0.0
C880 C 0.85307 0.28927 0.54433 0.0
C881 C 0.85491 0.2994 0.52142 0.0
C882 C 0.85239 0.32884 0.56163 0.0
C883 C 0.85317 0.32434 0.51915 0.0
C884 C 0.85822 0.36928 0.5803 0.0
C885 C 0.87753 0.34682 0.62024 0.0
N886 N 0.85256 0.33831 0.53911 0.0
N887 N 0.867 0.33394 0.60256 0.0
H888 H 0.4851 0.16247 0.27796 0.0
H889 H 0.43069 0.13487 0.40688 0.0
H890 H 0.52856 0.1495 0.34062 0.0
H891 H 0.39314 0.12676 0.33973 0.0
H892 H 0.46457 0.15214 0.38506 0.0
H893 H 0.44947 0.16213 0.30305 0.0
C894 C 0.48721 0.15987 0.29708 0.0
C895 C 0.50981 0.15541 0.30715 0.0
C896 C 0.44859 0.14714 0.37528 0.0
C897 C 0.46897 0.15486 0.33593 0.0
C898 C 0.42923 0.13731 0.38768 0.0
C899 C 0.40882 0.12946 0.37523 0.0
C900 C 0.44748 0.14913 0.35027 0.0
C901 C 0.40797 0.13303 0.35036 0.0
C902 C 0.46683 0.15969 0.31138 0.0
C903 C 0.51145 0.15265 0.33208 0.0
N904 N 0.42711 0.14239 0.33872 0.0
N905 N 0.4912 0.15201 0.34563 0.0
H906 H 0.63417 0.91534 0.3519 0.0
H907 H 0.53311 0.82528 0.30632 0.0
H908 H 0.64083 0.83876 0.35979 0.0
H909 H 0.52898 0.9024 0.30276 0.0
H910 H 0.57071 0.82893 0.32903 0.0
H911 H 0.59423 0.91018 0.33634 0.0
C912 C 0.62728 0.89738 0.35042 0.0
C913 C 0.64098 0.87742 0.35723 0.0
C914 C 0.56136 0.845 0.32349 0.0
C915 C 0.59476 0.87127 0.33906 0.0
C916 C 0.53988 0.84293 0.3107 0.0
C917 C 0.52815 0.86358 0.30247 0.0
C918 C 0.5709 0.86787 0.32802 0.0
C919 C 0.53764 0.88601 0.30848 0.0
C920 C 0.60426 0.8944 0.34154 0.0
C921 C 0.6308 0.8546 0.35477 0.0
N922 N 0.55849 0.88753 0.32071 0.0
N923 N 0.60829 0.85207 0.34576 0.0
H924 H 0.47688 0.8586 0.74785 0.0
H925 H 0.4288 0.89179 0.61803 0.0
H926 H 0.52298 0.86994 0.68682 0.0
H927 H 0.38908 0.89875 0.68407 0.0
H928 H 0.46077 0.87146 0.64017 0.0
H929 H 0.44221 0.85991 0.72144 0.0
C930 C 0.47973 0.86102 0.7288 0.0
C931 C 0.50276 0.86484 0.71955 0.0
C932 C 0.44468 0.87686 0.64958 0.0
C933 C 0.46313 0.86661 0.6893 0.0
C934 C 0.42643 0.88845 0.637 0.0
C935 C 0.40602 0.8969 0.64909 0.0
C936 C 0.44246 0.87376 0.67441 0.0
C937 C 0.40394 0.89211 0.67367 0.0
C938 C 0.45992 0.86174 0.71374 0.0
C939 C 0.50547 0.86731 0.69469 0.0
N940 N 0.42204 0.8811 0.68552 0.0
N941 N 0.48578 0.86866 0.68041 0.0
H942 H 0.54915 0.16761 0.75207 0.0
H943 H 0.59291 0.14657 0.61833 0.0
H944 H 0.50155 0.16559 0.69118 0.0
H945 H 0.63431 0.13184 0.68198 0.0
H946 H 0.56253 0.16596 0.64333 0.0
H947 H 0.58328 0.16763 0.72495 0.0
C948 C 0.54587 0.16749 0.73294 0.0
C949 C 0.52251 0.16593 0.72383 0.0
C950 C 0.57864 0.15907 0.65165 0.0
C951 C 0.56155 0.16574 0.69271 0.0
C952 C 0.596 0.14803 0.63744 0.0
C953 C 0.61631 0.13755 0.64799 0.0
C954 C 0.58162 0.15955 0.67659 0.0
C955 C 0.61939 0.13999 0.67281 0.0
C956 C 0.56538 0.16755 0.71748 0.0
C957 C 0.5193 0.16641 0.69892 0.0
N958 N 0.60208 0.15046 0.68626 0.0
N959 N 0.53868 0.16579 0.68416 0.0
H960 H 0.26401 0.4675 0.15001 0.0
H961 H 0.39826 0.42031 0.15048 0.0
H962 H 0.32513 0.51336 0.16151 0.0
H963 H 0.33633 0.37876 0.13022 0.0
H964 H 0.37151 0.45212 0.16461 0.0
H965 H 0.28998 0.43265 0.153 0.0
C966 C 0.28293 0.47023 0.15329 0.0
C967 C 0.29257 0.49334 0.15492 0.0
C968 C 0.36385 0.4357 0.15769 0.0
C969 C 0.32248 0.45347 0.15822 0.0
C970 C 0.37908 0.41752 0.1497 0.0
C971 C 0.36961 0.39667 0.13931 0.0
C972 C 0.33901 0.433 0.15507 0.0
C973 C 0.34464 0.39404 0.13861 0.0
C974 C 0.29775 0.4503 0.1551 0.0
C975 C 0.31708 0.49581 0.15979 0.0
N976 N 0.33027 0.41211 0.14609 0.0
N977 N 0.33133 0.47607 0.16086 0.0
H978 H 0.33074 0.63659 0.90304 0.0
H979 H 0.32553 0.50037 0.86884 0.0
H980 H 0.39245 0.59887 0.87537 0.0
H981 H 0.26343 0.54461 0.88214 0.0
H982 H 0.34998 0.53673 0.86587 0.0
H983 H 0.30543 0.60463 0.88941 0.0
C984 C 0.33906 0.62216 0.89325 0.0
C985 C 0.36394 0.62079 0.89013 0.0
C986 C 0.33093 0.53842 0.86905 0.0
C987 C 0.33475 0.58283 0.87579 0.0
C988 C 0.31701 0.5177 0.87084 0.0
C989 C 0.29257 0.51949 0.87635 0.0
C990 C 0.32022 0.56091 0.87287 0.0
C991 C 0.28233 0.54235 0.87846 0.0
C992 C 0.32444 0.6035 0.88575 0.0
C993 C 0.37336 0.60064 0.87828 0.0
N994 N 0.29626 0.56211 0.877 0.0
N995 N 0.35881 0.58221 0.87194 0.0
H996 H 0.74635 0.47859 0.8547 0.0
H997 H 0.61743 0.43051 0.89093 0.0
H998 H 0.68594 0.52481 0.86877 0.0
H999 H 0.6836 0.39079 0.89635 0.0
H1000 H 0.63912 0.46259 0.87035 0.0
H1001 H 0.71989 0.444 0.85637 0.0
C1002 C 0.72742 0.48149 0.85777 0.0
C1003 C 0.7184 0.50451 0.86228 0.0
C1004 C 0.64864 0.44648 0.87547 0.0
C1005 C 0.68809 0.46497 0.86444 0.0
C1006 C 0.63633 0.42817 0.88721 0.0
C1007 C 0.64859 0.40771 0.8953 0.0
C1008 C 0.67339 0.44427 0.87183 0.0
C1009 C 0.67306 0.40567 0.89001 0.0
C1010 C 0.71233 0.46173 0.85871 0.0
C1011 C 0.69365 0.50729 0.86559 0.0
N1012 N 0.68465 0.42382 0.87884 0.0
N1013 N 0.67936 0.48764 0.86711 0.0
H1014 H 0.69189 0.64099 0.1358 0.0
H1015 H 0.69558 0.5039 0.16602 0.0
H1016 H 0.62789 0.5988 0.14585 0.0
H1017 H 0.75736 0.55022 0.16344 0.0
H1018 H 0.66974 0.53945 0.16735 0.0
H1019 H 0.71495 0.61013 0.15523 0.0
C1020 C 0.68237 0.62576 0.14287 0.0
C1021 C 0.65774 0.62269 0.13914 0.0
C1022 C 0.68899 0.54178 0.16699 0.0
C1023 C 0.68465 0.58617 0.16023 0.0
C1024 C 0.7037 0.52151 0.16622 0.0
C1025 C 0.72856 0.52418 0.16393 0.0
C1026 C 0.69933 0.5647 0.16543 0.0
C1027 C 0.73823 0.54735 0.16454 0.0
C1028 C 0.69576 0.60777 0.15375 0.0
C1029 C 0.64691 0.6018 0.14808 0.0
N1030 N 0.72359 0.56668 0.16487 0.0
N1031 N 0.6605 0.58408 0.15774 0.0
H1032 H 0.01724 0.72915 0.70114 0.0
H1033 H 0.92647 0.73287 0.58918 0.0
H1034 H 0.01131 0.67256 0.64907 0.0
H1035 H 0.9321 0.79009 0.64087 0.0
H1036 H 0.95607 0.70997 0.61188 0.0
H1037 H 0.98578 0.75151 0.67989 0.0
C1038 C 0.00952 0.72161 0.68501 0.0
C1039 C 0.0172 0.69914 0.67665 0.0
C1040 C 0.95071 0.72744 0.61843 0.0
C1041 C 0.98074 0.72442 0.65237 0.0
C1042 C 0.93358 0.74053 0.60553 0.0
C1043 C 0.92656 0.76359 0.61301 0.0
C1044 C 0.96119 0.73735 0.63908 0.0
C1045 C 0.93672 0.77241 0.63436 0.0
C1046 C 0.99144 0.73429 0.67296 0.0
C1047 C 0.00629 0.69001 0.65589 0.0
N1048 N 0.95356 0.7594 0.64648 0.0
N1049 N 0.98867 0.70262 0.64452 0.0
H1050 H 0.01754 0.35272 0.63835 0.0
H1051 H 0.09536 0.23152 0.62924 0.0
H1052 H 0.01167 0.29501 0.68915 0.0
H1053 H 0.10683 0.29308 0.58395 0.0
H1054 H 0.06506 0.25423 0.65151 0.0
H1055 H 0.04949 0.33063 0.6176 0.0
C1056 C 0.02274 0.33521 0.64492 0.0
C1057 C 0.01169 0.32557 0.66536 0.0
C1058 C 0.07437 0.26287 0.63685 0.0
C1059 C 0.04874 0.30023 0.64192 0.0
C1060 C 0.09188 0.24993 0.62418 0.0
C1061 C 0.10392 0.26027 0.60458 0.0
C1062 C 0.06851 0.28638 0.62986 0.0
C1063 C 0.09826 0.28423 0.59892 0.0
C1064 C 0.04118 0.32268 0.63321 0.0
C1065 C 0.01957 0.30301 0.67335 0.0
N1066 N 0.08092 0.2963 0.61129 0.0
N1067 N 0.03751 0.29114 0.66166 0.0
H1068 H 0.91198 0.29647 0.43757 0.0
H1069 H 0.01006 0.29938 0.33177 0.0
H1070 H 0.92589 0.23649 0.39076 0.0
H1071 H 1.00063 0.35659 0.38267 0.0
H1072 H 0.97812 0.27677 0.35189 0.0
H1073 H 0.94211 0.31974 0.41585 0.0
C1074 C 0.92098 0.28826 0.42245 0.0
C1075 C 0.91617 0.26432 0.4161 0.0
C1076 C 0.98308 0.2942 0.3588 0.0
C1077 C 0.95133 0.29101 0.39124 0.0
C1078 C 1.00142 0.30704 0.34738 0.0
C1079 C 0.00824 0.32977 0.35572 0.0
C1080 C 0.9712 0.30418 0.3787 0.0
C1081 C 0.99622 0.33898 0.37585 0.0
C1082 C 0.93843 0.30156 0.41017 0.0
C1083 C 0.9288 0.25482 0.3964 0.0
N1084 N 0.97831 0.32623 0.38657 0.0
N1085 N 0.94578 0.26808 0.38484 0.0
H1086 H 0.10244 0.79526 0.39175 0.0
H1087 H 0.0126 0.68259 0.38556 0.0
H1088 H 0.09806 0.74123 0.44683 0.0
H1089 H 0.02105 0.73315 0.32795 0.0
H1090 H 0.04317 0.70429 0.40857 0.0
H1091 H 0.07315 0.77278 0.36805 0.0
C1092 C 0.09565 0.7785 0.39877 0.0
C1093 C 0.10297 0.77024 0.42146 0.0
C1094 C 0.03829 0.71077 0.39096 0.0
C1095 C 0.06873 0.74446 0.39437 0.0
C1096 C 0.02062 0.69851 0.37791 0.0
C1097 C 0.01399 0.70624 0.35489 0.0
C1098 C 0.04957 0.73101 0.38099 0.0
C1099 C 0.02546 0.72667 0.34569 0.0
C1100 C 0.07873 0.76571 0.38523 0.0
C1101 C 0.09319 0.74839 0.42948 0.0
N1102 N 0.0426 0.7383 0.3587 0.0
N1103 N 0.07656 0.73645 0.4161 0.0
H1104 H 0.63209 0.92732 0.78968 0.0
H1105 H 0.64028 1.00177 0.66653 0.0
H1106 H 0.58708 0.91371 0.72833 0.0
H1107 H 0.6897 0.01128 0.72495 0.0
H1108 H 0.62027 0.96986 0.68921 0.0
H1109 H 0.65395 0.9573 0.76628 0.0
C1110 C 0.62704 0.93024 0.77117 0.0
C1111 C 0.60759 0.91777 0.7611 0.0
C1112 C 0.63541 0.97896 0.69719 0.0
C1113 C 0.63237 0.95277 0.73421 0.0
C1114 C 0.64667 0.99737 0.68432 0.0
C1115 C 0.66648 0.00943 0.69401 0.0
C1116 C 0.64398 0.97244 0.72 0.0
C1117 C 0.67435 1.00258 0.71692 0.0
C1118 C 0.63946 0.94758 0.75784 0.0
C1119 C 0.60192 0.92268 0.73699 0.0
N1120 N 0.66311 0.98462 0.72912 0.0
N1121 N 0.61404 0.93985 0.72454 0.0
H1122 H 0.39327 0.102 0.79635 0.0
H1123 H 0.37589 0.03022 0.67247 0.0
H1124 H 0.4357 0.11504 0.73307 0.0
H1125 H 0.33179 0.01865 0.73469 0.0
H1126 H 0.39738 0.06187 0.69411 0.0
H1127 H 0.36936 0.07306 0.77368 0.0
C1128 C 0.39735 0.09917 0.77758 0.0
C1129 C 0.41668 0.11118 0.76674 0.0
C1130 C 0.38304 0.05243 0.70311 0.0
C1131 C 0.38943 0.07739 0.74062 0.0
C1132 C 0.37088 0.0342 0.6908 0.0
C1133 C 0.35216 0.02157 0.70187 0.0
C1134 C 0.3765 0.05824 0.72678 0.0
C1135 C 0.34616 0.02786 0.72551 0.0
C1136 C 0.38374 0.08243 0.76466 0.0
C1137 C 0.42102 0.10642 0.74232 0.0
N1138 N 0.35827 0.04565 0.73715 0.0
N1139 N 0.40771 0.08984 0.73023 0.0
H1140 H 0.59544 0.10346 0.29562 0.0
H1141 H 0.70376 0.00828 0.29108 0.0
H1142 H 0.63801 0.09133 0.23223 0.0
H1143 H 0.6519 0.01101 0.34807 0.0
H1144 H 0.68199 0.04051 0.27029 0.0
H1145 H 0.61854 0.07256 0.31646 0.0
C1146 C 0.60991 0.09467 0.28614 0.0
C1147 C 0.61467 0.10025 0.26199 0.0
C1148 C 0.67523 0.03397 0.28725 0.0
C1149 C 0.6412 0.06425 0.28593 0.0
C1150 C 0.68759 0.01547 0.29904 0.0
C1151 C 0.67943 0.00668 0.32115 0.0
C1152 C 0.65466 0.04411 0.29778 0.0
C1153 C 0.6586 0.01696 0.33088 0.0
C1154 C 0.62298 0.07677 0.29805 0.0
C1155 C 0.63361 0.08784 0.2508 0.0
N1156 N 0.64704 0.03513 0.31923 0.0
N1157 N 0.64606 0.07048 0.26278 0.0
H1158 H 0.33284 0.0133 0.28886 0.0
H1159 H 0.43198 0.90882 0.2967 0.0
H1160 H 0.37315 0.99751 0.35268 0.0
H1161 H 0.39231 0.92501 0.23236 0.0
H1162 H 0.40869 0.93916 0.31813 0.0
H1163 H 0.35316 0.98004 0.26829 0.0
C1164 C 0.34612 0.00291 0.29846 0.0
C1165 C 0.35149 0.00837 0.32243 0.0
C1166 C 0.40487 0.93591 0.29939 0.0
C1167 C 0.37472 0.96997 0.29911 0.0
C1168 C 0.41806 0.91835 0.28712 0.0
C1169 C 0.41426 0.91417 0.26253 0.0
C1170 C 0.38767 0.94963 0.28709 0.0
C1171 C 0.39597 0.92742 0.25125 0.0
C1172 C 0.35766 0.98385 0.28677 0.0
C1173 C 0.36872 0.99419 0.3341 0.0
N1174 N 0.38359 0.94461 0.26351 0.0
N1175 N 0.37968 0.97571 0.32237 0.0
H1176 H 0.73275 0.69633 0.00924 0.0
H1177 H 0.72891 0.58853 0.91332 0.0
H1178 H 0.67376 0.64716 1.00288 0.0
H1179 H 0.79112 0.63287 0.92474 0.0
H1180 H 0.70734 0.61188 0.94355 0.0
H1181 H 0.75357 0.67489 0.97685 0.0
C1182 C 0.72428 0.68087 1.00113 0.0
C1183 C 0.7016 0.67339 0.00896 0.0
C1184 C 0.72564 0.61667 0.9393 0.0
C1185 C 0.72516 0.64885 0.97148 0.0
C1186 C 0.73797 0.60344 0.92179 0.0
C1187 C 0.76202 0.60861 0.91626 0.0
C1188 C 0.73728 0.63537 0.95153 0.0
C1189 C 0.77266 0.62812 0.92823 0.0
C1190 C 0.73612 0.66868 0.98257 0.0
C1191 C 0.69137 0.65335 0.99766 0.0
N1192 N 0.76032 0.64062 0.94528 0.0
N1193 N 0.70315 0.64186 0.97953 0.0
H1194 H 0.73441 0.43575 0.11393 0.0
H1195 H 0.73698 0.33254 0.01309 0.0
H1196 H 0.79737 0.39412 0.09714 0.0
H1197 H 0.67478 0.37542 0.02871 0.0
H1198 H 0.7589 0.35353 0.045 0.0
H1199 H 0.71165 0.412 0.08496 0.0
C1200 C 0.74341 0.42134 0.10454 0.0
C1201 C 0.768 0.41708 0.10816 0.0
C1202 C 0.74047 0.35843 0.04145 0.0
C1203 C 0.74189 0.38991 0.07431 0.0
C1204 C 0.72799 0.34647 0.02318 0.0
C1205 C 0.70409 0.35238 0.01806 0.0
C1206 C 0.72899 0.37646 0.05488 0.0
C1207 C 0.69328 0.37052 0.0318 0.0
C1208 C 0.73038 0.40787 0.08777 0.0
C1209 C 0.77852 0.39817 0.09513 0.0
N1210 N 0.70576 0.38187 0.04951 0.0
N1211 N 0.76552 0.38549 0.07875 0.0
H1212 H 0.34064 0.69133 0.0457 0.0
H1213 H 0.27661 0.57169 0.08135 0.0
H1214 H 0.31018 0.64678 0.99039 0.0
H1215 H 0.25493 0.63671 0.11709 0.0
H1216 H 0.29862 0.59568 0.05188 0.0
H1217 H 0.31805 0.66887 0.07574 0.0
C1218 C 0.32892 0.67718 0.03967 0.0
C1219 C 0.327 0.67149 0.01513 0.0
C1220 C 0.28924 0.60464 0.06633 0.0
C1221 C 0.30223 0.64457 0.05003 0.0
C1222 C 0.27688 0.59099 0.08336 0.0
C1223 C 0.26399 0.60214 0.10196 0.0
C1224 C 0.2894 0.62968 0.06816 0.0
C1225 C 0.26469 0.62731 0.1032 0.0
C1226 C 0.31625 0.66416 0.057 0.0
C1227 C 0.31239 0.65189 0.00896 0.0
N1228 N 0.27737 0.64023 0.08669 0.0
N1229 N 0.30082 0.639 0.02625 0.0
H1230 H 0.23007 0.38317 0.9349 0.0
H1231 H 0.35346 0.37059 0.00849 0.0
H1232 H 0.28998 0.43113 0.92615 0.0
H1233 H 0.2925 0.32485 0.01989 0.0
H1234 H 0.33107 0.39204 0.9773 0.0
H1235 H 0.25343 0.36009 0.96399 0.0
C1236 C 0.24826 0.38867 0.93873 0.0
C1237 C 0.25794 0.40927 0.92787 0.0
C1238 C 0.32249 0.37738 0.98664 0.0
C1239 C 0.28483 0.38292 0.96177 0.0
C1240 C 0.33523 0.36526 0.00462 0.0
C1241 C 0.32473 0.3461 0.01707 0.0
C1242 C 0.29902 0.37026 0.98084 0.0
C1243 C 0.30122 0.33961 0.01086 0.0
C1244 C 0.26156 0.37554 0.95556 0.0
C1245 C 0.28164 0.41544 0.9339 0.0
N1246 N 0.2892 0.35162 0.99325 0.0
N1247 N 0.29413 0.40248 0.95045 0.0
H1248 H 0.63869 0.90263 0.92535 0.0
H1249 H 0.65495 0.76957 0.97393 0.0
H1250 H 0.62434 0.83812 0.88514 0.0
H1251 H 0.65556 0.83186 0.0198 0.0
H1252 H 0.65472 0.79563 0.93904 0.0
H1253 H 0.65523 0.87799 0.95771 0.0
C1254 C 0.63965 0.88338 0.92298 0.0
C1255 C 0.63032 0.87253 0.90228 0.0
C1256 C 0.65516 0.80366 0.95671 0.0
C1257 C 0.64898 0.84434 0.93921 0.0
C1258 C 0.65524 0.78878 0.97666 0.0
C1259 C 0.6547 0.7986 0.99979 0.0
C1260 C 0.65424 0.82858 0.95983 0.0
C1261 C 0.65564 0.82359 1.00225 0.0
C1262 C 0.64904 0.86937 0.94146 0.0
C1263 C 0.63189 0.84753 0.90023 0.0
N1264 N 0.65495 0.8378 0.98245 0.0
N1265 N 0.64079 0.83433 0.91855 0.0
H1266 H 0.36239 0.24827 0.9818 0.0
H1267 H 0.3904 0.11866 0.93009 0.0
H1268 H 0.37202 0.18578 0.0263 0.0
H1269 H 0.39785 0.18527 0.8915 0.0
H1270 H 0.37143 0.14065 0.96302 0.0
H1271 H 0.36218 0.22272 0.94649 0.0
C1272 C 0.36415 0.22909 0.98416 0.0
C1273 C 0.36789 0.21915 0.00693 0.0
C1274 C 0.37662 0.15024 0.94698 0.0
C1275 C 0.36794 0.18983 0.96653 0.0
C1276 C 0.38742 0.13775 0.92818 0.0
C1277 C 0.39566 0.15003 0.90781 0.0
C1278 C 0.3741 0.17518 0.94535 0.0
C1279 C 0.39136 0.17474 0.90632 0.0
C1280 C 0.36399 0.21451 0.96398 0.0
C1281 C 0.36948 0.19416 0.009 0.0
N1282 N 0.38113 0.18649 0.92495 0.0
N1283 N 0.37 0.18032 0.98894 0.0
H1284 H 0.65805 0.18986 1.00164 0.0
H1285 H 0.62539 0.18626 0.13739 0.0
H1286 H 0.66514 0.25081 0.04877 0.0
H1287 H 0.64293 0.1214 0.09891 0.0
H1288 H 0.64325 0.2095 0.10582 0.0
H1289 H 0.65607 0.16365 0.03684 0.0
C1290 C 0.65967 0.19767 0.01934 0.0
C1291 C 0.66114 0.22258 0.02233 0.0
C1292 C 0.64377 0.19015 0.10448 0.0
C1293 C 0.65872 0.19289 0.06245 0.0
C1294 C 0.63378 0.17667 0.12288 0.0
C1295 C 0.63303 0.1516 0.1213 0.0
C1296 C 0.65237 0.17863 0.08385 0.0
C1297 C 0.6431 0.14068 0.10093 0.0
C1298 C 0.65855 0.18272 0.0394 0.0
C1299 C 0.6634 0.23175 0.04563 0.0
N1300 N 0.65202 0.15427 0.08279 0.0
N1301 N 0.66172 0.21695 0.06478 0.0
H1302 H 0.37034 0.76698 0.04975 0.0
H1303 H 0.38735 0.8992 0.09969 0.0
H1304 H 0.37026 0.8299 0.00481 0.0
H1305 H 0.39987 0.83427 0.13979 0.0
H1306 H 0.37026 0.87515 0.06724 0.0
H1307 H 0.36983 0.79256 0.08502 0.0
C1308 C 0.36998 0.78622 0.0473 0.0
C1309 C 0.37094 0.79637 0.02433 0.0
C1310 C 0.37616 0.86631 0.08347 0.0
C1311 C 0.37057 0.82578 0.06472 0.0
C1312 C 0.38587 0.87999 0.102 0.0
C1313 C 0.39494 0.86882 0.12264 0.0
C1314 C 0.37569 0.84127 0.08558 0.0
C1315 C 0.39264 0.84389 0.12467 0.0
C1316 C 0.36964 0.80083 0.06747 0.0
C1317 C 0.36989 0.82139 0.02222 0.0
N1318 N 0.38351 0.83097 0.10625 0.0
N1319 N 0.37021 0.83531 0.04223 0.0
H1320 H 0.97355 0.64709 0.76634 0.0
H1321 H 0.9253 0.63849 0.89981 0.0
H1322 H 0.01935 0.65106 0.82851 0.0
H1323 H 0.88382 0.625 0.83595 0.0
H1324 H 0.95777 0.65383 0.87463 0.0
H1325 H 0.93869 0.65007 0.79225 0.0
C1326 C 0.97626 0.64872 0.78549 0.0
C1327 C 0.99932 0.6482 0.7954 0.0
C1328 C 0.94122 0.64816 0.86627 0.0
C1329 C 0.95943 0.65141 0.82522 0.0
C1330 C 0.92268 0.63947 0.8806 0.0
C1331 C 0.90164 0.63058 0.87007 0.0
C1332 C 0.9387 0.64777 0.84126 0.0
C1333 C 0.89923 0.63217 0.84511 0.0
C1334 C 0.95634 0.65053 0.80028 0.0
C1335 C 1.00182 0.65102 0.82024 0.0
N1336 N 0.91764 0.64028 0.8316 0.0
N1337 N 0.98203 0.65205 0.83442 0.0
H1338 H 0.0047 0.3587 0.81798 0.0
H1339 H 0.13926 0.3981 0.83186 0.0
H1340 H 0.05067 0.37979 0.75948 0.0
H1341 H 0.09933 0.36685 0.8903 0.0
H1342 H 0.10893 0.385 0.80434 0.0
H1343 H 0.04004 0.35586 0.84397 0.0
C1344 C 0.02222 0.36244 0.81056 0.0
C1345 C 0.02473 0.37006 0.78675 0.0
C1346 C 0.10695 0.38046 0.82311 0.0
C1347 C 0.06501 0.36676 0.81612 0.0
C1348 C 0.1247 0.38765 0.83899 0.0
C1349 C 0.12222 0.38333 0.86361 0.0
C1350 C 0.08609 0.36957 0.83189 0.0
C1351 C 0.10194 0.37067 0.87146 0.0
C1352 C 0.04236 0.36076 0.82534 0.0
C1353 C 0.04782 0.37442 0.7779 0.0
N1354 N 0.08441 0.3646 0.85571 0.0
N1355 N 0.06699 0.37296 0.79265 0.0
H1356 H 0.9723 0.37362 0.25971 0.0
H1357 H 0.93212 0.38702 0.12398 0.0
H1358 H 0.02214 0.37519 0.20062 0.0
H1359 H 0.88768 0.3995 0.1861 0.0
H1360 H 0.96321 0.37076 0.1504 0.0
H1361 H 0.93939 0.3703 0.23144 0.0
C1362 C 0.97632 0.37306 0.24073 0.0
C1363 C 0.99988 0.37533 0.2324 0.0
C1364 C 0.94628 0.37639 0.15803 0.0
C1365 C 0.96223 0.37188 0.1999 0.0
C1366 C 0.92853 0.38563 0.14301 0.0
C1367 C 0.90704 0.39447 0.15269 0.0
C1368 C 0.94244 0.37609 0.18287 0.0
C1369 C 0.9034 0.39234 0.17746 0.0
C1370 C 0.95752 0.37109 0.22458 0.0
C1371 C 0.00414 0.37386 0.20768 0.0
N1372 N 0.92101 0.38362 0.19165 0.0
N1373 N 0.98538 0.37274 0.19218 0.0
H1374 H 0.15145 0.63115 0.19795 0.0
H1375 H 0.01719 0.67472 0.20977 0.0
H1376 H 0.11053 0.65895 0.13848 0.0
H1377 H 0.05879 0.64186 0.26609 0.0
H1378 H 0.05373 0.67839 0.18568 0.0
H1379 H 0.12131 0.64591 0.22524 0.0
C1380 C 0.13671 0.64125 0.19056 0.0
C1381 C 0.13361 0.64379 0.16575 0.0
C1382 C 0.05485 0.67067 0.20345 0.0
C1383 C 0.09802 0.65948 0.1971 0.0
C1384 C 0.03402 0.66849 0.21713 0.0
C1385 C 0.03491 0.65742 0.23967 0.0
C1386 C 0.07661 0.6618 0.2125 0.0
C1387 C 0.05718 0.64996 0.24854 0.0
C1388 C 0.11914 0.64935 0.20626 0.0
C1389 C 0.11347 0.6564 0.15748 0.0
N1390 N 0.07708 0.65208 0.23484 0.0
N1391 N 0.09614 0.66333 0.17309 0.0
H1392 H 0.89162 0.92272 0.65575 0.0
H1393 H 0.75833 0.96953 0.64286 0.0
H1394 H 0.83157 0.88005 0.63246 0.0
H1395 H 0.81813 0.0154 0.65997 0.0
H1396 H 0.78361 0.93468 0.64916 0.0
H1397 H 0.86377 0.95434 0.66786 0.0
C1398 C 0.87256 0.91964 0.65394 0.0
C1399 C 0.86398 0.89868 0.64301 0.0
C1400 C 0.79122 0.95232 0.65178 0.0
C1401 C 0.83214 0.93485 0.65637 0.0
C1402 C 0.77681 0.97228 0.64805 0.0
C1403 C 0.78633 0.99541 0.65033 0.0
C1404 C 0.81548 0.95544 0.65747 0.0
C1405 C 0.81022 0.99786 0.65766 0.0
C1406 C 0.8567 0.93773 0.66075 0.0
C1407 C 0.83914 0.89559 0.64109 0.0
N1408 N 0.82415 0.97807 0.66058 0.0
N1409 N 0.82415 0.91366 0.64732 0.0
H1410 H 0.89877 0.10085 0.37879 0.0
H1411 H 0.76601 0.04994 0.3819 0.0
H1412 H 0.83589 0.1411 0.39907 0.0
H1413 H 0.82802 0.00591 0.3677 0.0
H1414 H 0.79095 0.08546 0.37915 0.0
H1415 H 0.87278 0.0681 0.36554 0.0
C1416 C 0.87952 0.10315 0.37973 0.0
C1417 C 0.86957 0.12392 0.38987 0.0
C1418 C 0.79915 0.06807 0.37645 0.0
C1419 C 0.83985 0.08652 0.37518 0.0
C1420 C 0.78492 0.04775 0.37814 0.0
C1421 C 0.7951 0.02493 0.37556 0.0
C1422 C 0.82385 0.06561 0.37248 0.0
C1423 C 0.81957 0.0232 0.37014 0.0
C1424 C 0.86473 0.08444 0.37226 0.0
C1425 C 0.84455 0.12591 0.39084 0.0
N1426 N 0.83325 0.04331 0.36914 0.0
N1427 N 0.83062 0.10733 0.38388 0.0
H1428 H 0.19051 0.0243 0.35761 0.0
H1429 H 0.18914 0.88766 0.38887 0.0
H1430 H 0.2529 0.9786 0.35782 0.0
H1431 H 0.12447 0.92904 0.37926 0.0
H1432 H 0.21146 0.9184 0.36833 0.0
H1433 H 0.1651 0.98852 0.35691 0.0
C1434 C 0.19885 0.00678 0.35701 0.0
C1435 C 0.22379 0.00436 0.35848 0.0
C1436 C 0.19227 0.92058 0.37014 0.0
C1437 C 0.19502 0.96354 0.35774 0.0
C1438 C 0.17933 0.90267 0.38167 0.0
C1439 C 0.15476 0.90564 0.38594 0.0
C1440 C 0.18076 0.94196 0.36348 0.0
C1441 C 0.14347 0.92617 0.37669 0.0
C1442 C 0.18436 0.98637 0.3566 0.0
C1443 C 0.23371 0.98129 0.35737 0.0
N1444 N 0.15663 0.94382 0.36638 0.0
N1445 N 0.21931 0.9618 0.35745 0.0
H1446 H 0.11847 0.09723 0.63537 0.0
H1447 H 0.24985 0.05157 0.66616 0.0
H1448 H 0.18353 0.13803 0.62652 0.0
H1449 H 0.18964 0.00422 0.65593 0.0
H1450 H 0.22278 0.08575 0.6648 0.0
H1451 H 0.14175 0.06565 0.65504 0.0
C1452 C 0.13748 0.09992 0.63816 0.0
C1453 C 0.14893 0.12054 0.62939 0.0
C1454 C 0.21541 0.06788 0.66321 0.0
C1455 C 0.17555 0.08453 0.65179 0.0
C1456 C 0.23085 0.04834 0.66396 0.0
C1457 C 0.22202 0.02508 0.66049 0.0
C1458 C 0.19099 0.06417 0.65871 0.0
C1459 C 0.1972 0.02191 0.6583 0.0
C1460 C 0.1507 0.08189 0.64937 0.0
C1461 C 0.17359 0.12301 0.63345 0.0
N1462 N 0.18253 0.04133 0.65696 0.0
N1463 N 0.18606 0.10512 0.64413 0.0
H1464 H 0.43672 0.23704 0.083 0.0
H1465 H 0.48481 0.18895 0.20418 0.0
H1466 H 0.41476 0.27611 0.146 0.0
H1467 H 0.53622 0.21185 0.15124 0.0
H1468 H 0.45357 0.21099 0.18277 0.0
H1469 H 0.4674 0.21659 0.10688 0.0
C1470 C 0.43789 0.24093 0.10199 0.0
C1471 C 0.42285 0.25825 0.11251 0.0
C1472 C 0.47175 0.21129 0.17602 0.0
C1473 C 0.45805 0.23462 0.13992 0.0
C1474 C 0.48981 0.19895 0.1884 0.0
C1475 C 0.51361 0.19878 0.17993 0.0
C1476 C 0.47715 0.22283 0.15441 0.0
C1477 C 0.51825 0.21123 0.15848 0.0
C1478 C 0.45564 0.22942 0.11548 0.0
C1479 C 0.42577 0.26281 0.13715 0.0
N1480 N 0.5002 0.2224 0.14631 0.0
N1481 N 0.44285 0.2509 0.15009 0.0
H1482 H 0.6059 0.73321 0.13819 0.0
H1483 H 0.52472 0.85178 0.1505 0.0
H1484 H 0.60772 0.79177 0.08776 0.0
H1485 H 0.52265 0.79367 0.20118 0.0
H1486 H 0.55617 0.8307 0.1282 0.0
H1487 H 0.57753 0.75596 0.16278 0.0
C1488 C 0.60073 0.75101 0.13244 0.0
C1489 C 0.60938 0.76045 0.1107 0.0
C1490 C 0.54885 0.82246 0.14416 0.0
C1491 C 0.57627 0.78658 0.13881 0.0
C1492 C 0.5307 0.83442 0.15679 0.0
C1493 C 0.52069 0.82428 0.17753 0.0
C1494 C 0.55728 0.80013 0.15229 0.0
C1495 C 0.5297 0.80204 0.18518 0.0
C1496 C 0.58432 0.76396 0.14647 0.0
C1497 C 0.60171 0.78363 0.1043 0.0
N1498 N 0.54736 0.79071 0.17257 0.0
N1499 N 0.58554 0.79573 0.11812 0.0
H1500 H 0.4252 0.73145 0.88776 0.0
H1501 H 0.4997 0.85385 0.87295 0.0
H1502 H 0.41776 0.79184 0.93551 0.0
H1503 H 0.51112 0.79145 0.82899 0.0
H1504 H 0.46809 0.83237 0.89464 0.0
H1505 H 0.454 0.75435 0.864 0.0
C1506 C 0.42922 0.74967 0.89306 0.0
C1507 C 0.41888 0.75959 0.91383 0.0
C1508 C 0.47751 0.82329 0.8803 0.0
C1509 C 0.45247 0.78594 0.8867 0.0
C1510 C 0.49571 0.8355 0.86804 0.0
C1511 C 0.50829 0.82432 0.84932 0.0
C1512 C 0.47162 0.79967 0.87376 0.0
C1513 C 0.50196 0.8007 0.84338 0.0
C1514 C 0.44591 0.7627 0.87954 0.0
C1515 C 0.42512 0.78332 0.91971 0.0
N1516 N 0.48413 0.7892 0.85551 0.0
N1517 N 0.44155 0.79555 0.90637 0.0
H1518 H 0.51354 0.23735 0.8329 0.0
H1519 H 0.61531 0.23335 0.93504 0.0
H1520 H 0.52874 0.175 0.87567 0.0
H1521 H 0.59743 0.29728 0.89541 0.0
H1522 H 0.58596 0.21106 0.91138 0.0
H1523 H 0.54551 0.25908 0.854 0.0
C1524 C 0.52354 0.2283 0.84685 0.0
C1525 C 0.51829 0.20441 0.85269 0.0
C1526 C 0.58859 0.22992 0.90768 0.0
C1527 C 0.55521 0.22907 0.87684 0.0
C1528 C 0.60558 0.24269 0.92109 0.0
C1529 C 0.60904 0.26739 0.91736 0.0
C1530 C 0.57476 0.24178 0.89027 0.0
C1531 C 0.59556 0.27832 0.89902 0.0
C1532 C 0.54184 0.24067 0.85886 0.0
C1533 C 0.53193 0.19349 0.87082 0.0
N1534 N 0.579 0.26554 0.88635 0.0
N1535 N 0.5497 0.20585 0.88219 0.0
H1536 H 0.08125 0.42854 0.23935 0.0
H1537 H 0.19768 0.51333 0.2337 0.0
H1538 H 0.1318 0.43475 0.29747 0.0
H1539 H 0.14471 0.50982 0.17779 0.0
H1540 H 0.17469 0.48375 0.25684 0.0
H1541 H 0.10542 0.45646 0.21586 0.0
C1542 C 0.09761 0.43546 0.24712 0.0
C1543 C 0.10436 0.42908 0.27058 0.0
C1544 C 0.16796 0.48953 0.23959 0.0
C1545 C 0.13219 0.4617 0.2436 0.0
C1546 C 0.18104 0.50652 0.22644 0.0
C1547 C 0.17293 0.51434 0.20394 0.0
C1548 C 0.14661 0.48005 0.23015 0.0
C1549 C 0.15141 0.50464 0.19524 0.0
C1550 C 0.11137 0.45161 0.23368 0.0
C1551 C 0.1258 0.43894 0.27951 0.0
N1552 N 0.13907 0.48805 0.20829 0.0
N1553 N 0.1388 0.45476 0.26612 0.0
H1554 H 0.94623 0.607 0.2339 0.0
H1555 H 0.83443 0.51641 0.23157 0.0
H1556 H 0.89151 0.60554 0.28847 0.0
H1557 H 0.88204 0.52578 0.1716 0.0
H1558 H 0.85581 0.54828 0.25305 0.0
H1559 H 0.92336 0.57748 0.21083 0.0
C1560 C 0.92923 0.60084 0.2409 0.0
C1561 C 0.9209 0.60899 0.26328 0.0
C1562 C 0.86167 0.54337 0.23522 0.0
C1563 C 0.89473 0.57449 0.237 0.0
C1564 C 0.8495 0.52509 0.22299 0.0
C1565 C 0.85651 0.51826 0.1998 0.0
C1566 C 0.88121 0.55497 0.22431 0.0
C1567 C 0.8762 0.53018 0.18957 0.0
C1568 C 0.91622 0.5838 0.22773 0.0
C1569 C 0.89874 0.60002 0.27133 0.0
N1570 N 0.88783 0.54785 0.20185 0.0
N1571 N 0.88663 0.58319 0.25838 0.0
H1572 H 0.07568 0.5751 0.77619 0.0
H1573 H 0.19251 0.53837 0.84413 0.0
H1574 H 0.14157 0.60998 0.75611 0.0
H1575 H 0.1484 0.48329 0.8127 0.0
H1576 H 0.17139 0.5684 0.82025 0.0
H1577 H 0.09874 0.54525 0.79862 0.0
C1578 C 0.09499 0.5768 0.77684 0.0
C1579 C 0.10664 0.59534 0.76431 0.0
C1580 C 0.1665 0.54971 0.81849 0.0
C1581 C 0.13313 0.56105 0.7903 0.0
C1582 C 0.17875 0.53237 0.83192 0.0
C1583 C 0.17282 0.50788 0.83012 0.0
C1584 C 0.14739 0.54284 0.80378 0.0
C1585 C 0.15369 0.50181 0.81484 0.0
C1586 C 0.10811 0.55955 0.78946 0.0
C1587 C 0.13179 0.59616 0.76555 0.0
N1588 N 0.14152 0.51913 0.80252 0.0
N1589 N 0.14419 0.57945 0.77854 0.0
H1590 H 0.82672 0.51351 0.78695 0.0
H1591 H 0.93692 0.42041 0.78487 0.0
H1592 H 0.87286 0.50089 0.84745 0.0
H1593 H 0.88806 0.42955 0.72569 0.0
H1594 H 0.91302 0.4487 0.80837 0.0
H1595 H 0.84852 0.48254 0.7644 0.0
C1596 C 0.84153 0.50428 0.79544 0.0
C1597 C 0.84809 0.51001 0.81905 0.0
C1598 C 0.90736 0.44437 0.79033 0.0
C1599 C 0.8732 0.4743 0.79337 0.0
C1600 C 0.92097 0.42803 0.77687 0.0
C1601 C 0.91463 0.42238 0.75311 0.0
C1602 C 0.88719 0.45547 0.78006 0.0
C1603 C 0.89373 0.43314 0.74389 0.0
C1604 C 0.85396 0.48654 0.78259 0.0
C1605 C 0.8674 0.49737 0.82918 0.0
N1606 N 0.88096 0.44921 0.75725 0.0
N1607 N 0.87923 0.48023 0.81633 0.0
H1608 H 0.23406 0.19433 0.5112 0.0
H1609 H 0.23155 0.09293 0.4085 0.0
H1610 H 0.17225 0.15108 0.49546 0.0
H1611 H 0.295 0.13296 0.42692 0.0
H1612 H 0.20894 0.11613 0.43802 0.0
H1613 H 0.25617 0.1736 0.47919 0.0
C1614 C 0.22522 0.18033 0.5011 0.0
C1615 C 0.20136 0.17426 0.50621 0.0
C1616 C 0.22775 0.12004 0.43547 0.0
C1617 C 0.22646 0.15056 0.46919 0.0
C1618 C 0.24071 0.10689 0.41837 0.0
C1619 C 0.26539 0.11085 0.415 0.0
C1620 C 0.23939 0.13742 0.44951 0.0
C1621 C 0.27607 0.12918 0.42868 0.0
C1622 C 0.2378 0.16854 0.48275 0.0
C1623 C 0.19071 0.1561 0.4924 0.0
N1624 N 0.26311 0.14159 0.44535 0.0
N1625 N 0.20327 0.14496 0.47458 0.0
H1626 H 0.17471 0.88388 0.52186 0.0
H1627 H 0.29512 0.89565 0.60016 0.0
H1628 H 0.23321 0.83382 0.51696 0.0
H1629 H 0.23312 0.94076 0.6102 0.0
H1630 H 0.27283 0.87249 0.57028 0.0
H1631 H 0.19622 0.90535 0.55367 0.0
C1632 C 0.19226 0.87762 0.52725 0.0
C1633 C 0.20231 0.85719 0.51651 0.0
C1634 C 0.26401 0.8873 0.5792 0.0
C1635 C 0.22698 0.88145 0.55339 0.0
C1636 C 0.2767 0.90048 0.59647 0.0
C1637 C 0.26611 0.92032 0.60794 0.0
C1638 C 0.2405 0.89399 0.57302 0.0
C1639 C 0.24215 0.92565 0.60205 0.0
C1640 C 0.20446 0.88974 0.54561 0.0
C1641 C 0.2249 0.8496 0.52462 0.0
N1642 N 0.23032 0.91277 0.58494 0.0
N1643 N 0.23645 0.86169 0.54248 0.0
H1644 H 0.72444 0.13186 0.58905 0.0
H1645 H 0.84944 0.14794 0.51894 0.0
H1646 H 0.78394 0.08303 0.59639 0.0
H1647 H 0.78762 0.19234 0.50631 0.0
H1648 H 0.82656 0.12523 0.54884 0.0
H1649 H 0.74828 0.15596 0.56125 0.0
C1650 C 0.74263 0.12634 0.58517 0.0
C1651 C 0.75206 0.10522 0.59525 0.0
C1652 C 0.81791 0.13987 0.5395 0.0
C1653 C 0.77954 0.13282 0.56287 0.0
C1654 C 0.83093 0.15272 0.52226 0.0
C1655 C 0.82033 0.17187 0.50983 0.0
C1656 C 0.79406 0.14626 0.54461 0.0
C1657 C 0.79646 0.17763 0.51535 0.0
C1658 C 0.75621 0.14008 0.56908 0.0
C1659 C 0.77579 0.09909 0.58921 0.0
N1660 N 0.78417 0.16494 0.53228 0.0
N1661 N 0.78858 0.11269 0.57342 0.0
H1662 H 0.85398 0.88096 0.51359 0.0
H1663 H 0.74261 0.88215 0.42186 0.0
H1664 H 0.80428 0.82245 0.50661 0.0
H1665 H 0.79382 0.9397 0.42751 0.0
H1666 H 0.7655 0.85954 0.45173 0.0
H1667 H 0.83227 0.90263 0.48208 0.0
C1668 C 0.83823 0.87284 0.50571 0.0
C1669 C 0.83067 0.85001 0.51313 0.0
C1670 C 0.77186 0.87703 0.4463 0.0
C1671 C 0.80596 0.87453 0.47638 0.0
C1672 C 0.75885 0.88994 0.42904 0.0
C1673 C 0.76617 0.913 0.42194 0.0
C1674 C 0.79241 0.88716 0.4568 0.0
C1675 C 0.78737 0.92204 0.43222 0.0
C1676 C 0.82597 0.88512 0.48749 0.0
C1677 C 0.81058 0.8401 0.50165 0.0
N1678 N 0.79956 0.90924 0.44913 0.0
N1679 N 0.79895 0.85236 0.48396 0.0
H1680 H 0.9875 0.45405 0.32224 0.0
H1681 H 0.02703 0.5829 0.3389 0.0
H1682 H 0.05249 0.46855 0.36164 0.0
H1683 H 0.95243 0.56585 0.34951 0.0
H1684 H 0.03728 0.54105 0.34718 0.0
H1685 H 0.97351 0.49462 0.33167 0.0
C1686 C 0.99861 0.4656 0.33318 0.0
C1687 C 0.02133 0.45813 0.3408 0.0
C1688 C 0.01873 0.54665 0.34829 0.0
C1689 C 0.00567 0.50426 0.35127 0.0
C1690 C 0.01291 0.57041 0.34351 0.0
C1691 C 0.98891 0.57761 0.34339 0.0
C1692 C 1.00031 0.52999 0.3521 0.0
C1693 C 0.97118 0.56088 0.34946 0.0
C1694 C 0.99057 0.48861 0.33868 0.0
C1695 C 0.03494 0.47368 0.35517 0.0
N1696 N 0.97717 0.53757 0.35293 0.0
N1697 N 0.02716 0.49627 0.35944 0.0
H1698 H 0.06923 0.5585 0.67538 0.0
H1699 H 0.96157 0.46622 0.6669 0.0
H1700 H 0.99665 0.57689 0.69489 0.0
H1701 H 0.03073 0.44754 0.69609 0.0
H1702 H 0.976 0.50698 0.65984 0.0
H1703 H 0.0559 0.51795 0.66549 0.0
C1704 C 0.05038 0.55421 0.67697 0.0
C1705 C 0.03401 0.57085 0.68636 0.0
C1706 C 0.98808 0.49372 0.66725 0.0
C1707 C 0.01885 0.52495 0.67473 0.0
C1708 C 0.97997 0.47052 0.67126 0.0
C1709 C 0.99494 0.4537 0.68247 0.0
C1710 C 0.0114 0.49984 0.67403 0.0
C1711 C 0.01858 0.46016 0.68776 0.0
C1712 C 0.04289 0.53112 0.67139 0.0
C1713 C 0.00984 0.5644 0.68807 0.0
N1714 N 0.02609 0.48289 0.68362 0.0
N1715 N 0.00297 0.54177 0.68247 0.0
H1716 H 0.28124 0.01413 0.45224 0.0
H1717 H 0.35786 0.9972 0.57023 0.0
H1718 H 0.35623 0.03308 0.45385 0.0
H1719 H 0.28261 0.01528 0.57053 0.0
H1720 H 0.35895 0.00477 0.52699 0.0
H1721 H 0.28289 0.00603 0.49516 0.0
C1722 C 0.29819 0.01607 0.4615 0.0
C1723 C 0.31858 0.02452 0.44957 0.0
C1724 C 0.34234 0.00734 0.53668 0.0
C1725 C 0.32042 0.01566 0.49853 0.0
C1726 C 0.34171 0.0032 0.56129 0.0
C1727 C 0.32008 0.00553 0.57391 0.0
C1728 C 0.3211 0.01331 0.52472 0.0
C1729 C 0.29967 0.01332 0.56152 0.0
C1730 C 0.29901 0.01178 0.48601 0.0
C1731 C 0.34004 0.0268 0.46248 0.0
N1732 N 0.30059 0.01656 0.53748 0.0
N1733 N 0.3404 0.02249 0.48641 0.0
H1734 H 0.69793 0.98739 0.57223 0.0
H1735 H 0.69165 0.02203 0.44123 0.0
H1736 H 0.66386 0.05412 0.55284 0.0
H1737 H 0.67603 0.94893 0.46086 0.0
H1738 H 0.68102 0.03471 0.48187 0.0
H1739 H 0.68985 0.97218 0.53186 0.0
C1740 C 0.68839 0.99865 0.55962 0.0
C1741 C 0.6819 0.02214 0.56566 0.0
C1742 C 0.67933 0.01598 0.47706 0.0
C1743 C 0.673 0.0051 0.51972 0.0
C1744 C 0.68548 0.00877 0.45399 0.0
C1745 C 0.68491 0.98444 0.44793 0.0
C1746 C 0.67342 0.99861 0.49423 0.0
C1747 C 0.67673 0.96788 0.46496 0.0
C1748 C 0.68364 0.98993 0.53671 0.0
C1749 C 0.66935 0.03595 0.54879 0.0
N1750 N 0.67192 0.97518 0.48765 0.0
N1751 N 0.66585 0.02744 0.52631 0.0
H1752 H 0.45668 0.35571 0.0429 0.0
H1753 H 0.57469 0.28332 0.01688 0.0
H1754 H 0.45685 0.28308 0.01607 0.0
H1755 H 0.57116 0.35799 0.9967 0.0
H1756 H 0.53229 0.28463 0.02708 0.0
H1757 H 0.49955 0.35862 0.0334 0.0
C1758 C 0.46561 0.34058 0.03463 0.0
C1759 C 0.45328 0.31907 0.03036 0.0
C1760 C 0.54093 0.30076 0.02063 0.0
C1761 C 0.50195 0.32207 0.02044 0.0
C1762 C 0.56516 0.30014 0.01509 0.0
C1763 C 0.57636 0.32051 0.00564 0.0
C1764 C 0.52797 0.32196 0.01707 0.0
C1765 C 0.56307 0.34182 0.0037 0.0
C1766 C 0.48997 0.34224 0.02937 0.0
C1767 C 0.46563 0.29999 0.01964 0.0
N1768 N 0.5394 0.342 0.00928 0.0
N1769 N 0.48943 0.3018 0.01544 0.0
H1770 H 0.57983 0.70661 0.99366 0.0
H1771 H 0.44742 0.70938 0.03013 0.0
H1772 H 0.56067 0.68284 0.06474 0.0
H1773 H 0.4668 0.67815 0.96199 0.0
H1774 H 0.48891 0.70386 0.04369 0.0
H1775 H 0.5382 0.70037 0.981 0.0
C1776 C 0.56693 0.69979 0.00644 0.0
C1777 C 0.57351 0.69527 0.03021 0.0
C1778 C 0.48382 0.69787 0.02594 0.0
C1779 C 0.52631 0.68876 0.01616 0.0
C1780 C 0.46031 0.70109 0.01821 0.0
C1781 C 0.45383 0.69432 0.99493 0.0
C1782 C 0.50086 0.68854 0.00998 0.0
C1783 C 0.47111 0.68359 0.98011 0.0
C1784 C 0.54334 0.69617 0.99924 0.0
C1785 C 0.55623 0.68645 0.04619 0.0
N1786 N 0.49405 0.6815 0.98771 0.0
N1787 N 0.53319 0.68395 0.03901 0.0
H1788 H 0.49598 0.07223 0.85776 0.0
H1789 H 0.51078 0.9544 0.78075 0.0
H1790 H 0.5118 0.07262 0.78198 0.0
H1791 H 0.53398 0.95619 0.85459 0.0
H1792 H 0.50249 0.99724 0.78284 0.0
H1793 H 0.50418 0.02907 0.85866 0.0
C1794 C 0.50162 0.06333 0.84145 0.0
C1795 C 0.50314 0.07594 0.81973 0.0
C1796 C 0.50922 0.98815 0.79862 0.0
C1797 C 0.51162 0.02687 0.82056 0.0
C1798 C 0.51363 0.96367 0.79756 0.0
C1799 C 0.52331 0.9518 0.81747 0.0
C1800 C 0.51419 1.00071 0.81979 0.0
C1801 C 0.52673 0.96476 0.83878 0.0
C1802 C 0.50613 0.03878 0.84197 0.0
C1803 C 0.51047 0.06361 0.79911 0.0
N1804 N 0.52225 0.98866 0.83938 0.0
N1805 N 0.51406 0.03963 0.79995 0.0
H1806 H 0.50999 0.9541 0.24572 0.0
H1807 H 0.53332 0.06937 0.16958 0.0
H1808 H 0.48705 0.95588 0.17176 0.0
H1809 H 0.51343 0.07179 0.24438 0.0
H1810 H 0.52057 0.02739 0.16809 0.0
H1811 H 0.51838 0.99678 0.24368 0.0
C1812 C 0.50708 0.96336 0.22892 0.0
C1813 C 0.49765 0.95148 0.20891 0.0
C1814 C 0.51865 0.03736 0.18464 0.0
C1815 C 0.50696 1.00028 0.20665 0.0
C1816 C 0.52582 0.06124 0.18553 0.0
C1817 C 0.52475 0.07391 0.20725 0.0
C1818 C 0.51091 0.0262 0.20572 0.0
C1819 C 0.51475 0.06265 0.22732 0.0
C1820 C 0.51156 0.98776 0.2279 0.0
C1821 C 0.49418 0.96446 0.18763 0.0
N1822 N 0.50866 0.03922 0.2262 0.0
N1823 N 0.49888 0.98831 0.18701 0.0
H1824 H 0.8602 0.49282 0.06684 0.0
H1825 H 0.78121 0.50966 0.95051 0.0
H1826 H 0.7849 0.51063 0.06854 0.0
H1827 H 0.85534 0.53178 0.95103 0.0
H1828 H 0.7842 0.50041 0.9931 0.0
H1829 H 0.86045 0.50051 0.02355 0.0
C1830 C 0.84386 0.49875 0.0582 0.0
C1831 C 0.82247 0.50103 0.07123 0.0
C1832 C 0.79985 0.50707 0.98377 0.0
C1833 C 0.82254 0.5089 0.02205 0.0
C1834 C 0.79827 0.51204 0.95943 0.0
C1835 C 0.81799 0.52178 0.94734 0.0
C1836 C 0.82134 0.51156 0.99593 0.0
C1837 C 0.83965 0.52454 0.95982 0.0
C1838 C 0.84402 0.50295 0.03358 0.0
C1839 C 0.8018 0.50871 0.05922 0.0
N1840 N 0.84074 0.51958 0.9836 0.0
N1841 N 0.80226 0.51201 0.03519 0.0
H1842 H 0.20373 0.52532 0.95019 0.0
H1843 H 0.19311 0.49212 0.08197 0.0
H1844 H 0.16843 0.45927 0.96948 0.0
H1845 H 0.17866 0.56507 0.06069 0.0
H1846 H 0.18454 0.47904 0.04096 0.0
H1847 H 0.19543 0.54082 0.99044 0.0
C1848 C 0.19391 0.51428 0.96276 0.0
C1849 C 0.18704 0.49092 0.9567 0.0
C1850 C 0.1827 0.49783 0.04548 0.0
C1851 C 0.17791 0.50825 1.00248 0.0
C1852 C 0.18768 0.50527 0.06876 0.0
C1853 C 0.18682 0.52967 0.07452 0.0
C1854 C 0.17761 0.51503 0.02787 0.0
C1855 C 0.17959 0.54607 0.05688 0.0
C1856 C 0.18905 0.52314 0.98559 0.0
C1857 C 0.17418 0.47735 0.97352 0.0
N1858 N 0.17585 0.53852 0.03408 0.0
N1859 N 0.17053 0.486 0.99592 0.0
H1860 H 0.95205 0.82763 0.49946 0.0
H1861 H 0.08142 0.82724 0.53769 0.0
H1862 H 0.96856 0.8498 0.57172 0.0
H1863 H 0.06334 0.85839 0.46919 0.0
H1864 H 0.04052 0.8352 0.55142 0.0
H1865 H 0.99279 0.83847 0.48739 0.0
C1866 C 0.96415 0.83516 0.51263 0.0
C1867 C 0.95721 0.83758 0.53661 0.0
C1868 C 0.04579 0.84083 0.53361 0.0
C1869 C 0.00349 0.84948 0.52316 0.0
C1870 C 0.06899 0.83617 0.52575 0.0
C1871 C 0.07553 0.84179 0.50219 0.0
C1872 C 0.02906 0.85046 0.51752 0.0
C1873 C 0.05889 0.85356 0.48745 0.0
C1874 C 0.98723 0.84148 0.50575 0.0
C1875 C 0.97337 0.84758 0.55305 0.0
N1876 N 0.03613 0.85692 0.49514 0.0
N1877 N 0.99609 0.85259 0.54616 0.0
H1878 H 0.06935 0.16638 0.52742 0.0
H1879 H 0.95071 0.24168 0.51269 0.0
H1880 H 0.06871 0.24177 0.50997 0.0
H1881 H 0.95331 0.16834 0.48796 0.0
H1882 H 0.9935 0.23977 0.52115 0.0
H1883 H 0.0262 0.16475 0.51928 0.0
C1884 C 0.06024 0.18244 0.52142 0.0
C1885 C 0.07254 0.20428 0.51945 0.0
C1886 C 0.98458 0.22405 0.51409 0.0
C1887 C 0.02351 0.20265 0.5111 0.0
C1888 C 0.96014 0.22499 0.50957 0.0
C1889 C 0.94855 0.20521 0.49935 0.0
C1890 C 0.99737 0.20311 0.50869 0.0
C1891 C 0.9617 0.18406 0.49562 0.0
C1892 C 0.0357 0.1815 0.51696 0.0
C1893 C 0.05995 0.22456 0.51166 0.0
N1894 N 0.98556 0.18357 0.5002 0.0
N1895 N 0.03599 0.22335 0.50817 0.0
loop_
_geom_bond_atom_site_label_1
_geom_bond_atom_site_label_2
_geom_bond_distance
_geom_bond_site_symmetry_2
_ccdc_geom_bond_type
Co0 O3 1.950 1_655 S
Co0 N17 1.994 . S
Co0 O25 1.961 1_655 S
Co0 O32 1.939 . S
Co1 O4 1.966 . S
Co1 N10 2.022 . S
Co1 N18 1.993 . S
Co1 O26 1.941 . S
C2 O3 1.258 . S
C2 O4 1.263 . S
O3 Co0 1.950 1_455 S
O3 C2 1.258 . S
O4 Co1 1.966 . S
O4 C2 1.263 . S
C5 O6 1.235 . S
C5 O32 1.289 . S
O6 C5 1.235 . S
C7 C9 1.400 . S
C7 N10 1.351 . S
C7 C12 1.501 . S
C8 C9 1.387 . S
C8 N11 1.341 . S
C9 C7 1.400 . S
C9 C8 1.387 . S
N10 Co1 2.022 . S
N10 C7 1.351 . S
N10 N11 1.365 . S
N11 C8 1.341 . S
N11 N10 1.365 . S
N11 H31 0.862 . S
C12 C7 1.501 . S
C12 H13 0.961 . S
C12 H14 0.961 . S
C12 H15 0.960 . S
H13 C12 0.961 . S
H14 C12 0.961 . S
H15 C12 0.960 . S
C16 N17 1.342 . S
C16 C20 1.401 . S
C16 C21 1.499 . S
N17 Co0 1.994 . S
N17 C16 1.342 . S
N17 N18 1.388 1_655 S
N18 Co1 1.993 . S
N18 N17 1.388 1_455 S
N18 C19 1.363 . S
C19 N18 1.363 . S
C19 C20 1.352 1_455 S
C19 C29 1.536 . S
C20 C16 1.401 . S
C20 C19 1.352 1_655 S
C21 C16 1.499 . S
C21 H22 0.959 . S
C21 H23 0.960 . S
C21 H24 0.961 . S
H22 C21 0.959 . S
H23 C21 0.960 . S
H24 C21 0.961 . S
O25 Co0 1.961 1_455 S
O25 C33 1.258 . S
O26 Co1 1.941 . S
O26 C33 1.266 . S
H27 C29 0.959 . S
H28 C29 0.961 . S
C29 C19 1.536 . S
C29 H27 0.959 . S
C29 H28 0.961 . S
C29 H30 0.960 . S
H30 C29 0.960 . S
H31 N11 0.862 . S
O32 Co0 1.939 . S
O32 C5 1.289 . S
C33 O25 1.258 . S
C33 O26 1.266 . S
Co34 O37 1.970 1_455 S
Co34 N51 1.989 . S
Co34 O59 1.967 . S
Co34 O66 1.920 . S
Co35 O38 1.966 . S
Co35 N44 2.022 . S
Co35 N52 1.993 1_655 S
Co35 O60 1.941 . S
C36 O37 1.258 . S
C36 O38 1.263 . S
O37 Co34 1.970 1_655 S
O37 C36 1.258 . S
O38 Co35 1.966 . S
O38 C36 1.263 . S
C39 O40 1.235 . S
C39 O66 1.289 . S
O40 C39 1.235 . S
C41 C43 1.400 . S
C41 N44 1.351 . S
C41 C46 1.501 . S
C42 C43 1.387 . S
C42 N45 1.341 . S
C43 C41 1.400 . S
C43 C42 1.387 . S
N44 Co35 2.022 . S
N44 C41 1.351 . S
N44 N45 1.365 . S
N45 C42 1.341 . S
N45 N44 1.365 . S
N45 H65 0.862 . S
C46 C41 1.501 . S
C46 H47 0.961 . S
C46 H48 0.961 . S
C46 H49 0.960 . S
H47 C46 0.961 . S
H48 C46 0.961 . S
H49 C46 0.960 . S
C50 N51 1.342 . S
C50 C54 1.401 . S
C50 C55 1.499 . S
N51 Co34 1.989 . S
N51 C50 1.342 . S
N51 N52 1.388 . S
N52 Co35 1.993 1_455 S
N52 N51 1.388 . S
N52 C53 1.346 . S
C53 N52 1.346 . S
C53 C54 1.396 . S
C53 C63 1.510 . S
C54 C50 1.401 . S
C54 C53 1.396 . S
C55 C50 1.499 . S
C55 H56 0.959 . S
C55 H57 0.960 . S
C55 H58 0.961 . S
H56 C55 0.959 . S
H57 C55 0.960 . S
H58 C55 0.961 . S
O59 Co34 1.967 . S
O59 C67 1.254 1_455 S
O60 Co35 1.941 . S
O60 C67 1.271 . S
H61 C63 0.959 . S
H62 C63 0.961 . S
C63 C53 1.510 . S
C63 H61 0.959 . S
C63 H62 0.961 . S
C63 H64 0.960 1_455 S
H64 C63 0.960 1_655 S
H65 N45 0.862 . S
O66 Co34 1.920 . S
O66 C39 1.289 . S
C67 O59 1.254 1_655 S
C67 O60 1.271 . S
Co68 O71 1.950 1_655 S
Co68 N85 1.994 . S
Co68 O93 1.961 1_655 S
Co68 O100 1.939 . S
Co69 O72 1.966 . S
Co69 N78 2.022 . S
Co69 N86 1.993 . S
Co69 O94 1.941 . S
C70 O71 1.258 . S
C70 O72 1.263 . S
O71 Co68 1.950 1_455 S
O71 C70 1.258 . S
O72 Co69 1.966 . S
O72 C70 1.263 . S
C73 O74 1.235 . S
C73 O100 1.289 . S
O74 C73 1.235 . S
C75 C77 1.400 . S
C75 N78 1.351 . S
C75 C80 1.501 . S
C76 C77 1.387 . S
C76 N79 1.341 . S
C77 C75 1.400 . S
C77 C76 1.387 . S
N78 Co69 2.022 . S
N78 C75 1.351 . S
N78 N79 1.365 . S
N79 C76 1.341 . S
N79 N78 1.365 . S
N79 H99 0.862 . S
C80 C75 1.501 . S
C80 H81 0.961 . S
C80 H82 0.961 . S
C80 H83 0.960 . S
H81 C80 0.961 . S
H82 C80 0.961 . S
H83 C80 0.960 . S
C84 N85 1.342 . S
C84 C88 1.401 . S
C84 C89 1.499 . S
N85 Co68 1.994 . S
N85 C84 1.342 . S
N85 N86 1.388 1_655 S
N86 Co69 1.993 . S
N86 N85 1.388 1_455 S
N86 C87 1.363 . S
C87 N86 1.363 . S
C87 C88 1.352 1_455 S
C87 C97 1.536 . S
C88 C84 1.401 . S
C88 C87 1.352 1_655 S
C89 C84 1.499 . S
C89 H90 0.959 . S
C89 H91 0.960 . S
C89 H92 0.961 . S
H90 C89 0.959 . S
H91 C89 0.960 . S
H92 C89 0.961 . S
O93 Co68 1.961 1_455 S
O93 C101 1.258 . S
O94 Co69 1.941 . S
O94 C101 1.266 . S
H95 C97 0.959 . S
H96 C97 0.961 . S
C97 C87 1.536 . S
C97 H95 0.959 . S
C97 H96 0.961 . S
C97 H98 0.960 . S
H98 C97 0.960 . S
H99 N79 0.862 . S
O100 Co68 1.939 . S
O100 C73 1.289 . S
C101 O93 1.258 . S
C101 O94 1.266 . S
Co102 O105 1.970 1_455 S
Co102 N119 1.989 . S
Co102 O127 1.967 . S
Co102 O134 1.920 . S
Co103 O106 1.966 . S
Co103 N112 2.022 . S
Co103 N120 1.993 1_655 S
Co103 O128 1.941 . S
C104 O105 1.258 . S
C104 O106 1.263 . S
O105 Co102 1.970 1_655 S
O105 C104 1.258 . S
O106 Co103 1.966 . S
O106 C104 1.263 . S
C107 O108 1.235 . S
C107 O134 1.289 . S
O108 C107 1.235 . S
C109 C111 1.400 . S
C109 N112 1.351 . S
C109 C114 1.501 . S
C110 C111 1.387 . S
C110 N113 1.341 . S
C111 C109 1.400 . S
C111 C110 1.387 . S
N112 Co103 2.022 . S
N112 C109 1.351 . S
N112 N113 1.365 . S
N113 C110 1.341 . S
N113 N112 1.365 . S
N113 H133 0.862 . S
C114 C109 1.501 . S
C114 H115 0.961 . S
C114 H116 0.961 . S
C114 H117 0.960 . S
H115 C114 0.961 . S
H116 C114 0.961 . S
H117 C114 0.960 . S
C118 N119 1.342 . S
C118 C122 1.401 . S
C118 C123 1.499 . S
N119 Co102 1.989 . S
N119 C118 1.342 . S
N119 N120 1.388 . S
N120 Co103 1.993 1_455 S
N120 N119 1.388 . S
N120 C121 1.346 . S
C121 N120 1.346 . S
C121 C122 1.396 . S
C121 C131 1.510 . S
C122 C118 1.401 . S
C122 C121 1.396 . S
C123 C118 1.499 . S
C123 H124 0.959 . S
C123 H125 0.960 . S
C123 H126 0.961 . S
H124 C123 0.959 . S
H125 C123 0.960 . S
H126 C123 0.961 . S
O127 Co102 1.967 . S
O127 C135 1.254 1_455 S
O128 Co103 1.941 . S
O128 C135 1.271 . S
H129 C131 0.959 . S
H130 C131 0.961 . S
C131 C121 1.510 . S
C131 H129 0.959 . S
C131 H130 0.961 . S
C131 H132 0.960 1_455 S
H132 C131 0.960 1_655 S
H133 N113 0.862 . S
O134 Co102 1.920 . S
O134 C107 1.289 . S
C135 O127 1.254 1_655 S
C135 O128 1.271 . S
Co136 O139 1.950 1_565 S
Co136 N153 1.994 . S
Co136 O161 1.961 1_565 S
Co136 O168 1.939 . S
Co137 O140 1.966 . S
Co137 N146 2.022 . S
Co137 N154 1.993 . S
Co137 O162 1.941 . S
C138 O139 1.258 . S
C138 O140 1.263 . S
O139 Co136 1.950 1_545 S
O139 C138 1.258 . S
O140 Co137 1.966 . S
O140 C138 1.263 . S
C141 O142 1.235 . S
C141 O168 1.289 . S
O142 C141 1.235 . S
C143 C145 1.400 . S
C143 N146 1.351 . S
C143 C148 1.501 . S
C144 C145 1.387 . S
C144 N147 1.341 . S
C145 C143 1.400 . S
C145 C144 1.387 . S
N146 Co137 2.022 . S
N146 C143 1.351 . S
N146 N147 1.365 . S
N147 C144 1.341 . S
N147 N146 1.365 . S
N147 H167 0.862 . S
C148 C143 1.501 . S
C148 H149 0.961 . S
C148 H150 0.961 . S
C148 H151 0.960 . S
H149 C148 0.961 . S
H150 C148 0.961 . S
H151 C148 0.960 . S
C152 N153 1.342 . S
C152 C156 1.401 . S
C152 C157 1.499 . S
N153 Co136 1.994 . S
N153 C152 1.342 . S
N153 N154 1.388 1_565 S
N154 Co137 1.993 . S
N154 N153 1.388 1_545 S
N154 C155 1.363 . S
C155 N154 1.363 . S
C155 C156 1.352 1_545 S
C155 C165 1.536 . S
C156 C152 1.401 . S
C156 C155 1.352 1_565 S
C157 C152 1.499 . S
C157 H158 0.959 . S
C157 H159 0.960 . S
C157 H160 0.961 . S
H158 C157 0.959 . S
H159 C157 0.960 . S
H160 C157 0.961 . S
O161 Co136 1.961 1_545 S
O161 C169 1.258 . S
O162 Co137 1.941 . S
O162 C169 1.266 . S
H163 C165 0.959 . S
H164 C165 0.961 . S
C165 C155 1.536 . S
C165 H163 0.959 . S
C165 H164 0.961 . S
C165 H166 0.960 . S
H166 C165 0.960 . S
H167 N147 0.862 . S
O168 Co136 1.939 . S
O168 C141 1.289 . S
C169 O161 1.258 . S
C169 O162 1.266 . S
Co170 O173 1.970 1_545 S
Co170 N187 1.989 . S
Co170 O195 1.967 . S
Co170 O202 1.920 . S
Co171 O174 1.966 . S
Co171 N180 2.022 . S
Co171 N188 1.993 1_565 S
Co171 O196 1.941 . S
C172 O173 1.258 . S
C172 O174 1.263 . S
O173 Co170 1.970 1_565 S
O173 C172 1.258 . S
O174 Co171 1.966 . S
O174 C172 1.263 . S
C175 O176 1.235 . S
C175 O202 1.289 . S
O176 C175 1.235 . S
C177 C179 1.400 . S
C177 N180 1.351 . S
C177 C182 1.501 . S
C178 C179 1.387 . S
C178 N181 1.341 . S
C179 C177 1.400 . S
C179 C178 1.387 . S
N180 Co171 2.022 . S
N180 C177 1.351 . S
N180 N181 1.365 . S
N181 C178 1.341 . S
N181 N180 1.365 . S
N181 H201 0.862 . S
C182 C177 1.501 . S
C182 H183 0.961 . S
C182 H184 0.961 . S
C182 H185 0.960 . S
H183 C182 0.961 . S
H184 C182 0.961 . S
H185 C182 0.960 . S
C186 N187 1.342 . S
C186 C190 1.401 . S
C186 C191 1.499 . S
N187 Co170 1.989 . S
N187 C186 1.342 . S
N187 N188 1.388 . S
N188 Co171 1.993 1_545 S
N188 N187 1.388 . S
N188 C189 1.346 . S
C189 N188 1.346 . S
C189 C190 1.396 . S
C189 C199 1.510 . S
C190 C186 1.401 . S
C190 C189 1.396 . S
C191 C186 1.499 . S
C191 H192 0.959 . S
C191 H193 0.960 . S
C191 H194 0.961 . S
H192 C191 0.959 . S
H193 C191 0.960 . S
H194 C191 0.961 . S
O195 Co170 1.967 . S
O195 C203 1.254 1_545 S
O196 Co171 1.941 . S
O196 C203 1.271 . S
H197 C199 0.959 . S
H198 C199 0.961 . S
C199 C189 1.510 . S
C199 H197 0.959 . S
C199 H198 0.961 . S
C199 H200 0.960 1_545 S
H200 C199 0.960 1_565 S
H201 N181 0.862 . S
O202 Co170 1.920 . S
O202 C175 1.289 . S
C203 O195 1.254 1_565 S
C203 O196 1.271 . S
Co204 O207 1.970 1_545 S
Co204 N221 1.989 . S
Co204 O229 1.967 . S
Co204 O236 1.920 . S
Co205 O208 1.966 . S
Co205 N214 2.022 . S
Co205 N222 1.993 1_565 S
Co205 O230 1.941 . S
C206 O207 1.258 . S
C206 O208 1.263 . S
O207 Co204 1.970 1_565 S
O207 C206 1.258 . S
O208 Co205 1.966 . S
O208 C206 1.263 . S
C209 O210 1.235 . S
C209 O236 1.289 . S
O210 C209 1.235 . S
C211 C213 1.400 . S
C211 N214 1.351 . S
C211 C216 1.501 . S
C212 C213 1.387 . S
C212 N215 1.341 . S
C213 C211 1.400 . S
C213 C212 1.387 . S
N214 Co205 2.022 . S
N214 C211 1.351 . S
N214 N215 1.365 . S
N215 C212 1.341 . S
N215 N214 1.365 . S
N215 H235 0.862 . S
C216 C211 1.501 . S
C216 H217 0.961 . S
C216 H218 0.961 . S
C216 H219 0.960 . S
H217 C216 0.961 . S
H218 C216 0.961 . S
H219 C216 0.960 . S
C220 N221 1.342 . S
C220 C224 1.401 . S
C220 C225 1.499 . S
N221 Co204 1.989 . S
N221 C220 1.342 . S
N221 N222 1.388 . S
N222 Co205 1.993 1_545 S
N222 N221 1.388 . S
N222 C223 1.346 . S
C223 N222 1.346 . S
C223 C224 1.396 . S
C223 C233 1.510 . S
C224 C220 1.401 . S
C224 C223 1.396 . S
C225 C220 1.499 . S
C225 H226 0.959 . S
C225 H227 0.960 . S
C225 H228 0.961 . S
H226 C225 0.959 . S
H227 C225 0.960 . S
H228 C225 0.961 . S
O229 Co204 1.967 . S
O229 C237 1.254 1_545 S
O230 Co205 1.941 . S
O230 C237 1.271 . S
H231 C233 0.959 . S
H232 C233 0.961 . S
C233 C223 1.510 . S
C233 H231 0.959 . S
C233 H232 0.961 . S
C233 H234 0.960 1_545 S
H234 C233 0.960 1_565 S
H235 N215 0.862 . S
O236 Co204 1.920 . S
O236 C209 1.289 . S
C237 O229 1.254 1_565 S
C237 O230 1.271 . S
Co238 O241 1.950 1_565 S
Co238 N255 1.994 . S
Co238 O263 1.961 1_565 S
Co238 O270 1.939 . S
Co239 O242 1.966 . S
Co239 N248 2.022 . S
Co239 N256 1.993 . S
Co239 O264 1.941 . S
C240 O241 1.258 . S
C240 O242 1.263 . S
O241 Co238 1.950 1_545 S
O241 C240 1.258 . S
O242 Co239 1.966 . S
O242 C240 1.263 . S
C243 O244 1.235 . S
C243 O270 1.289 . S
O244 C243 1.235 . S
C245 C247 1.400 . S
C245 N248 1.351 . S
C245 C250 1.501 . S
C246 C247 1.387 . S
C246 N249 1.341 . S
C247 C245 1.400 . S
C247 C246 1.387 . S
N248 Co239 2.022 . S
N248 C245 1.351 . S
N248 N249 1.365 . S
N249 C246 1.341 . S
N249 N248 1.365 . S
N249 H269 0.862 . S
C250 C245 1.501 . S
C250 H251 0.961 . S
C250 H252 0.961 . S
C250 H253 0.960 . S
H251 C250 0.961 . S
H252 C250 0.961 . S
H253 C250 0.960 . S
C254 N255 1.342 . S
C254 C258 1.401 . S
C254 C259 1.499 . S
N255 Co238 1.994 . S
N255 C254 1.342 . S
N255 N256 1.388 1_565 S
N256 Co239 1.993 . S
N256 N255 1.388 1_545 S
N256 C257 1.363 . S
C257 N256 1.363 . S
C257 C258 1.352 1_545 S
C257 C267 1.536 . S
C258 C254 1.401 . S
C258 C257 1.352 1_565 S
C259 C254 1.499 . S
C259 H260 0.959 . S
C259 H261 0.960 . S
C259 H262 0.961 . S
H260 C259 0.959 . S
H261 C259 0.960 . S
H262 C259 0.961 . S
O263 Co238 1.961 1_545 S
O263 C271 1.258 . S
O264 Co239 1.941 . S
O264 C271 1.266 . S
H265 C267 0.959 . S
H266 C267 0.961 . S
C267 C257 1.536 . S
C267 H265 0.959 . S
C267 H266 0.961 . S
C267 H268 0.960 . S
H268 C267 0.960 . S
H269 N249 0.862 . S
O270 Co238 1.939 . S
O270 C243 1.289 . S
C271 O263 1.258 . S
C271 O264 1.266 . S
Co272 O275 1.950 1_556 S
Co272 N289 1.994 . S
Co272 O297 1.961 1_556 S
Co272 O304 1.939 . S
Co273 O276 1.966 . S
Co273 N282 2.022 . S
Co273 N290 1.993 . S
Co273 O298 1.941 . S
C274 O275 1.258 . S
C274 O276 1.263 . S
O275 Co272 1.950 1_554 S
O275 C274 1.258 . S
O276 Co273 1.966 . S
O276 C274 1.263 . S
C277 O278 1.235 . S
C277 O304 1.289 . S
O278 C277 1.235 . S
C279 C281 1.400 . S
C279 N282 1.351 . S
C279 C284 1.501 . S
C280 C281 1.387 . S
C280 N283 1.341 . S
C281 C279 1.400 . S
C281 C280 1.387 . S
N282 Co273 2.022 . S
N282 C279 1.351 . S
N282 N283 1.365 . S
N283 C280 1.341 . S
N283 N282 1.365 . S
N283 H303 0.862 . S
C284 C279 1.501 . S
C284 H285 0.961 . S
C284 H286 0.961 . S
C284 H287 0.960 . S
H285 C284 0.961 . S
H286 C284 0.961 . S
H287 C284 0.960 . S
C288 N289 1.342 . S
C288 C292 1.401 . S
C288 C293 1.499 . S
N289 Co272 1.994 . S
N289 C288 1.342 . S
N289 N290 1.388 1_556 S
N290 Co273 1.993 . S
N290 N289 1.388 1_554 S
N290 C291 1.363 . S
C291 N290 1.363 . S
C291 C292 1.352 1_554 S
C291 C301 1.536 . S
C292 C288 1.401 . S
C292 C291 1.352 1_556 S
C293 C288 1.499 . S
C293 H294 0.959 . S
C293 H295 0.960 . S
C293 H296 0.961 . S
H294 C293 0.959 . S
H295 C293 0.960 . S
H296 C293 0.961 . S
O297 Co272 1.961 1_554 S
O297 C305 1.258 . S
O298 Co273 1.941 . S
O298 C305 1.266 . S
H299 C301 0.959 . S
H300 C301 0.961 . S
C301 C291 1.536 . S
C301 H299 0.959 . S
C301 H300 0.961 . S
C301 H302 0.960 . S
H302 C301 0.960 . S
H303 N283 0.862 . S
O304 Co272 1.939 . S
O304 C277 1.289 . S
C305 O297 1.258 . S
C305 O298 1.266 . S
Co306 O309 1.970 1_554 S
Co306 N323 1.989 . S
Co306 O331 1.967 . S
Co306 O338 1.920 . S
Co307 O310 1.966 . S
Co307 N316 2.022 . S
Co307 N324 1.993 1_556 S
Co307 O332 1.941 . S
C308 O309 1.258 . S
C308 O310 1.263 . S
O309 Co306 1.970 1_556 S
O309 C308 1.258 . S
O310 Co307 1.966 . S
O310 C308 1.263 . S
C311 O312 1.235 . S
C311 O338 1.289 . S
O312 C311 1.235 . S
C313 C315 1.400 . S
C313 N316 1.351 . S
C313 C318 1.501 . S
C314 C315 1.387 . S
C314 N317 1.341 . S
C315 C313 1.400 . S
C315 C314 1.387 . S
N316 Co307 2.022 . S
N316 C313 1.351 . S
N316 N317 1.365 . S
N317 C314 1.341 . S
N317 N316 1.365 . S
N317 H337 0.862 . S
C318 C313 1.501 . S
C318 H319 0.961 . S
C318 H320 0.961 . S
C318 H321 0.960 . S
H319 C318 0.961 . S
H320 C318 0.961 . S
H321 C318 0.960 . S
C322 N323 1.342 . S
C322 C326 1.401 . S
C322 C327 1.499 . S
N323 Co306 1.989 . S
N323 C322 1.342 . S
N323 N324 1.388 . S
N324 Co307 1.993 1_554 S
N324 N323 1.388 . S
N324 C325 1.346 . S
C325 N324 1.346 . S
C325 C326 1.396 . S
C325 C335 1.510 . S
C326 C322 1.401 . S
C326 C325 1.396 . S
C327 C322 1.499 . S
C327 H328 0.959 . S
C327 H329 0.960 . S
C327 H330 0.961 . S
H328 C327 0.959 . S
H329 C327 0.960 . S
H330 C327 0.961 . S
O331 Co306 1.967 . S
O331 C339 1.254 1_554 S
O332 Co307 1.941 . S
O332 C339 1.271 . S
H333 C335 0.959 . S
H334 C335 0.961 . S
C335 C325 1.510 . S
C335 H333 0.959 . S
C335 H334 0.961 . S
C335 H336 0.960 1_554 S
H336 C335 0.960 1_556 S
H337 N317 0.862 . S
O338 Co306 1.920 . S
O338 C311 1.289 . S
C339 O331 1.254 1_556 S
C339 O332 1.271 . S
Co340 O343 1.970 1_554 S
Co340 N357 1.989 . S
Co340 O365 1.967 . S
Co340 O372 1.920 . S
Co341 O344 1.966 . S
Co341 N350 2.022 . S
Co341 N358 1.993 1_556 S
Co341 O366 1.941 . S
C342 O343 1.258 . S
C342 O344 1.263 . S
O343 Co340 1.970 1_556 S
O343 C342 1.258 . S
O344 Co341 1.966 . S
O344 C342 1.263 . S
C345 O346 1.235 . S
C345 O372 1.289 . S
O346 C345 1.235 . S
C347 C349 1.400 . S
C347 N350 1.351 . S
C347 C352 1.501 . S
C348 C349 1.387 . S
C348 N351 1.341 . S
C349 C347 1.400 . S
C349 C348 1.387 . S
N350 Co341 2.022 . S
N350 C347 1.351 . S
N350 N351 1.365 . S
N351 C348 1.341 . S
N351 N350 1.365 . S
N351 H371 0.862 . S
C352 C347 1.501 . S
C352 H353 0.961 . S
C352 H354 0.961 . S
C352 H355 0.960 . S
H353 C352 0.961 . S
H354 C352 0.961 . S
H355 C352 0.960 . S
C356 N357 1.342 . S
C356 C360 1.401 . S
C356 C361 1.499 . S
N357 Co340 1.989 . S
N357 C356 1.342 . S
N357 N358 1.388 . S
N358 Co341 1.993 1_554 S
N358 N357 1.388 . S
N358 C359 1.346 . S
C359 N358 1.346 . S
C359 C360 1.396 . S
C359 C369 1.510 . S
C360 C356 1.401 . S
C360 C359 1.396 . S
C361 C356 1.499 . S
C361 H362 0.959 . S
C361 H363 0.960 . S
C361 H364 0.961 . S
H362 C361 0.959 . S
H363 C361 0.960 . S
H364 C361 0.961 . S
O365 Co340 1.967 . S
O365 C373 1.254 1_554 S
O366 Co341 1.941 . S
O366 C373 1.271 . S
H367 C369 0.959 . S
H368 C369 0.961 . S
C369 C359 1.510 . S
C369 H367 0.959 . S
C369 H368 0.961 . S
C369 H370 0.960 1_554 S
H370 C369 0.960 1_556 S
H371 N351 0.862 . S
O372 Co340 1.920 . S
O372 C345 1.289 . S
C373 O365 1.254 1_556 S
C373 O366 1.271 . S
Co374 O377 1.950 1_556 S
Co374 N391 1.994 . S
Co374 O399 1.961 1_556 S
Co374 O406 1.939 . S
Co375 O378 1.966 . S
Co375 N384 2.022 . S
Co375 N392 1.993 . S
Co375 O400 1.941 . S
C376 O377 1.258 . S
C376 O378 1.263 . S
O377 Co374 1.950 1_554 S
O377 C376 1.258 . S
O378 Co375 1.966 . S
O378 C376 1.263 . S
C379 O380 1.235 . S
C379 O406 1.289 . S
O380 C379 1.235 . S
C381 C383 1.400 . S
C381 N384 1.351 . S
C381 C386 1.501 . S
C382 C383 1.387 . S
C382 N385 1.341 . S
C383 C381 1.400 . S
C383 C382 1.387 . S
N384 Co375 2.022 . S
N384 C381 1.351 . S
N384 N385 1.365 . S
N385 C382 1.341 . S
N385 N384 1.365 . S
N385 H405 0.862 . S
C386 C381 1.501 . S
C386 H387 0.961 . S
C386 H388 0.961 . S
C386 H389 0.960 . S
H387 C386 0.961 . S
H388 C386 0.961 . S
H389 C386 0.960 . S
C390 N391 1.342 . S
C390 C394 1.401 . S
C390 C395 1.499 . S
N391 Co374 1.994 . S
N391 C390 1.342 . S
N391 N392 1.388 1_556 S
N392 Co375 1.993 . S
N392 N391 1.388 1_554 S
N392 C393 1.363 . S
C393 N392 1.363 . S
C393 C394 1.352 1_554 S
C393 C403 1.536 . S
C394 C390 1.401 . S
C394 C393 1.352 1_556 S
C395 C390 1.499 . S
C395 H396 0.959 . S
C395 H397 0.960 . S
C395 H398 0.961 . S
H396 C395 0.959 . S
H397 C395 0.960 . S
H398 C395 0.961 . S
O399 Co374 1.961 1_554 S
O399 C407 1.258 . S
O400 Co375 1.941 . S
O400 C407 1.266 . S
H401 C403 0.959 . S
H402 C403 0.961 . S
C403 C393 1.536 . S
C403 H401 0.959 . S
C403 H402 0.961 . S
C403 H404 0.960 . S
H404 C403 0.960 . S
H405 N385 0.862 . S
O406 Co374 1.939 . S
O406 C379 1.289 . S
C407 O399 1.258 . S
C407 O400 1.266 . S
Co408 O411 1.970 . S
Co408 N425 1.989 . S
Co408 O433 1.967 . S
Co408 O440 1.920 . S
Co409 O412 1.966 . S
Co409 N418 2.022 . S
Co409 N426 1.993 . S
Co409 O434 1.941 . S
C410 O411 1.258 . S
C410 O412 1.263 . S
O411 Co408 1.970 . S
O411 C410 1.258 . S
O412 Co409 1.966 . S
O412 C410 1.263 . S
C413 O414 1.235 . S
C413 O440 1.289 . S
O414 C413 1.235 . S
C415 C417 1.400 . S
C415 N418 1.351 . S
C415 C420 1.501 . S
C416 C417 1.387 . S
C416 N419 1.341 . S
C417 C415 1.400 . S
C417 C416 1.387 . S
N418 Co409 2.022 . S
N418 C415 1.351 . S
N418 N419 1.365 . S
N419 C416 1.341 . S
N419 N418 1.365 . S
N419 H439 0.862 . S
C420 C415 1.501 . S
C420 H421 0.961 . S
C420 H422 0.961 . S
C420 H423 0.960 . S
H421 C420 0.961 . S
H422 C420 0.961 . S
H423 C420 0.960 . S
C424 N425 1.342 . S
C424 C428 1.401 . S
C424 C429 1.499 . S
N425 Co408 1.989 . S
N425 C424 1.342 . S
N425 N426 1.388 . S
N426 Co409 1.993 . S
N426 N425 1.388 . S
N426 C427 1.346 . S
C427 N426 1.346 . S
C427 C428 1.396 . S
C427 C437 1.510 . S
C428 C424 1.401 . S
C428 C427 1.396 . S
C429 C424 1.499 . S
C429 H430 0.959 . S
C429 H431 0.960 . S
C429 H432 0.961 . S
H430 C429 0.959 . S
H431 C429 0.960 . S
H432 C429 0.961 . S
O433 Co408 1.967 . S
O433 C441 1.258 . S
O434 Co409 1.941 . S
O434 C441 1.266 . S
H435 C437 0.959 . S
H436 C437 0.961 . S
C437 C427 1.510 . S
C437 H435 0.959 . S
C437 H436 0.961 . S
C437 H438 0.960 . S
H438 C437 0.960 . S
H439 N419 0.862 . S
O440 Co408 1.920 . S
O440 C413 1.289 . S
C441 O433 1.258 . S
C441 O434 1.266 . S
Co442 O445 1.970 . S
Co442 N459 1.989 . S
Co442 O467 1.967 . S
Co442 O474 1.920 . S
Co443 O446 1.966 . S
Co443 N452 2.022 . S
Co443 N460 1.993 . S
Co443 O468 1.941 . S
C444 O445 1.258 . S
C444 O446 1.263 . S
O445 Co442 1.970 . S
O445 C444 1.258 . S
O446 Co443 1.966 . S
O446 C444 1.263 . S
C447 O448 1.235 . S
C447 O474 1.289 . S
O448 C447 1.235 . S
C449 C451 1.400 . S
C449 N452 1.351 . S
C449 C454 1.501 . S
C450 C451 1.387 . S
C450 N453 1.341 . S
C451 C449 1.400 . S
C451 C450 1.387 . S
N452 Co443 2.022 . S
N452 C449 1.351 . S
N452 N453 1.365 . S
N453 C450 1.341 . S
N453 N452 1.365 . S
N453 H473 0.862 . S
C454 C449 1.501 . S
C454 H455 0.961 . S
C454 H456 0.961 . S
C454 H457 0.960 . S
H455 C454 0.961 . S
H456 C454 0.961 . S
H457 C454 0.960 . S
C458 N459 1.342 . S
C458 C462 1.401 . S
C458 C463 1.499 . S
N459 Co442 1.989 . S
N459 C458 1.342 . S
N459 N460 1.388 . S
N460 Co443 1.993 . S
N460 N459 1.388 . S
N460 C461 1.346 . S
C461 N460 1.346 . S
C461 C462 1.396 . S
C461 C471 1.510 . S
C462 C458 1.401 . S
C462 C461 1.396 . S
C463 C458 1.499 . S
C463 H464 0.959 . S
C463 H465 0.960 . S
C463 H466 0.961 . S
H464 C463 0.959 . S
H465 C463 0.960 . S
H466 C463 0.961 . S
O467 Co442 1.967 . S
O467 C475 1.258 . S
O468 Co443 1.941 . S
O468 C475 1.266 . S
H469 C471 0.959 . S
H470 C471 0.961 . S
C471 C461 1.510 . S
C471 H469 0.959 . S
C471 H470 0.961 . S
C471 H472 0.960 . S
H472 C471 0.960 . S
H473 N453 0.862 . S
O474 Co442 1.920 . S
O474 C447 1.289 . S
C475 O467 1.258 . S
C475 O468 1.266 . S
Co476 O479 1.970 . S
Co476 N493 1.989 . S
Co476 O501 1.967 . S
Co476 O508 1.920 . S
Co477 O480 1.966 . S
Co477 N486 2.022 . S
Co477 N494 1.993 . S
Co477 O502 1.941 . S
C478 O479 1.258 . S
C478 O480 1.263 . S
O479 Co476 1.970 . S
O479 C478 1.258 . S
O480 Co477 1.966 . S
O480 C478 1.263 . S
C481 O482 1.235 . S
C481 O508 1.289 . S
O482 C481 1.235 . S
C483 C485 1.400 . S
C483 N486 1.351 . S
C483 C488 1.501 . S
C484 C485 1.387 . S
C484 N487 1.341 . S
C485 C483 1.400 . S
C485 C484 1.387 . S
N486 Co477 2.022 . S
N486 C483 1.351 . S
N486 N487 1.365 . S
N487 C484 1.341 . S
N487 N486 1.365 . S
N487 H507 0.862 . S
C488 C483 1.501 . S
C488 H489 0.961 . S
C488 H490 0.961 . S
C488 H491 0.960 . S
H489 C488 0.961 . S
H490 C488 0.961 . S
H491 C488 0.960 . S
C492 N493 1.342 . S
C492 C496 1.401 . S
C492 C497 1.499 . S
N493 Co476 1.989 . S
N493 C492 1.342 . S
N493 N494 1.388 . S
N494 Co477 1.993 . S
N494 N493 1.388 . S
N494 C495 1.346 . S
C495 N494 1.346 . S
C495 C496 1.396 . S
C495 C505 1.510 . S
C496 C492 1.401 . S
C496 C495 1.396 . S
C497 C492 1.499 . S
C497 H498 0.959 . S
C497 H499 0.960 . S
C497 H500 0.961 . S
H498 C497 0.959 . S
H499 C497 0.960 . S
H500 C497 0.961 . S
O501 Co476 1.967 . S
O501 C509 1.258 . S
O502 Co477 1.941 . S
O502 C509 1.266 . S
H503 C505 0.959 . S
H504 C505 0.961 . S
C505 C495 1.510 . S
C505 H503 0.959 . S
C505 H504 0.961 . S
C505 H506 0.960 . S
H506 C505 0.960 . S
H507 N487 0.862 . S
O508 Co476 1.920 . S
O508 C481 1.289 . S
C509 O501 1.258 . S
C509 O502 1.266 . S
Co510 O513 1.970 . S
Co510 N527 1.989 . S
Co510 O535 1.967 . S
Co510 O542 1.920 . S
Co511 O514 1.966 . S
Co511 N520 2.022 . S
Co511 N528 1.993 . S
Co511 O536 1.941 . S
C512 O513 1.258 . S
C512 O514 1.263 . S
O513 Co510 1.970 . S
O513 C512 1.258 . S
O514 Co511 1.966 . S
O514 C512 1.263 . S
C515 O516 1.235 . S
C515 O542 1.289 . S
O516 C515 1.235 . S
C517 C519 1.400 . S
C517 N520 1.351 . S
C517 C522 1.501 . S
C518 C519 1.387 . S
C518 N521 1.341 . S
C519 C517 1.400 . S
C519 C518 1.387 . S
N520 Co511 2.022 . S
N520 C517 1.351 . S
N520 N521 1.365 . S
N521 C518 1.341 . S
N521 N520 1.365 . S
N521 H541 0.862 . S
C522 C517 1.501 . S
C522 H523 0.961 . S
C522 H524 0.961 . S
C522 H525 0.960 . S
H523 C522 0.961 . S
H524 C522 0.961 . S
H525 C522 0.960 . S
C526 N527 1.342 . S
C526 C530 1.401 . S
C526 C531 1.499 . S
N527 Co510 1.989 . S
N527 C526 1.342 . S
N527 N528 1.388 . S
N528 Co511 1.993 . S
N528 N527 1.388 . S
N528 C529 1.346 . S
C529 N528 1.346 . S
C529 C530 1.396 . S
C529 C539 1.510 . S
C530 C526 1.401 . S
C530 C529 1.396 . S
C531 C526 1.499 . S
C531 H532 0.959 . S
C531 H533 0.960 . S
C531 H534 0.961 . S
H532 C531 0.959 . S
H533 C531 0.960 . S
H534 C531 0.961 . S
O535 Co510 1.967 . S
O535 C543 1.258 . S
O536 Co511 1.941 . S
O536 C543 1.266 . S
H537 C539 0.959 . S
H538 C539 0.961 . S
C539 C529 1.510 . S
C539 H537 0.959 . S
C539 H538 0.961 . S
C539 H540 0.960 . S
H540 C539 0.960 . S
H541 N521 0.862 . S
O542 Co510 1.920 . S
O542 C515 1.289 . S
C543 O535 1.258 . S
C543 O536 1.266 . S
Co544 O547 1.970 . S
Co544 N561 1.989 . S
Co544 O569 1.967 . S
Co544 O576 1.920 . S
Co545 O548 1.966 . S
Co545 N554 2.022 . S
Co545 N562 1.993 . S
Co545 O570 1.941 . S
C546 O547 1.258 . S
C546 O548 1.263 . S
O547 Co544 1.970 . S
O547 C546 1.258 . S
O548 Co545 1.966 . S
O548 C546 1.263 . S
C549 O550 1.235 . S
C549 O576 1.289 . S
O550 C549 1.235 . S
C551 C553 1.400 . S
C551 N554 1.351 . S
C551 C556 1.501 . S
C552 C553 1.387 . S
C552 N555 1.341 . S
C553 C551 1.400 . S
C553 C552 1.387 . S
N554 Co545 2.022 . S
N554 C551 1.351 . S
N554 N555 1.365 . S
N555 C552 1.341 . S
N555 N554 1.365 . S
N555 H575 0.862 . S
C556 C551 1.501 . S
C556 H557 0.961 . S
C556 H558 0.961 . S
C556 H559 0.960 . S
H557 C556 0.961 . S
H558 C556 0.961 . S
H559 C556 0.960 . S
C560 N561 1.342 . S
C560 C564 1.401 . S
C560 C565 1.499 . S
N561 Co544 1.989 . S
N561 C560 1.342 . S
N561 N562 1.388 . S
N562 Co545 1.993 . S
N562 N561 1.388 . S
N562 C563 1.346 . S
C563 N562 1.346 . S
C563 C564 1.396 . S
C563 C573 1.510 . S
C564 C560 1.401 . S
C564 C563 1.396 . S
C565 C560 1.499 . S
C565 H566 0.959 . S
C565 H567 0.960 . S
C565 H568 0.961 . S
H566 C565 0.959 . S
H567 C565 0.960 . S
H568 C565 0.961 . S
O569 Co544 1.967 . S
O569 C577 1.258 . S
O570 Co545 1.941 . S
O570 C577 1.266 . S
H571 C573 0.959 . S
H572 C573 0.961 . S
C573 C563 1.510 . S
C573 H571 0.959 . S
C573 H572 0.961 . S
C573 H574 0.960 . S
H574 C573 0.960 . S
H575 N555 0.862 . S
O576 Co544 1.920 . S
O576 C549 1.289 . S
C577 O569 1.258 . S
C577 O570 1.266 . S
Co578 O581 1.970 . S
Co578 N595 1.989 . S
Co578 O603 1.967 . S
Co578 O610 1.920 . S
Co579 O582 1.966 . S
Co579 N588 2.022 . S
Co579 N596 1.993 . S
Co579 O604 1.941 . S
C580 O581 1.258 . S
C580 O582 1.263 . S
O581 Co578 1.970 . S
O581 C580 1.258 . S
O582 Co579 1.966 . S
O582 C580 1.263 . S
C583 O584 1.235 . S
C583 O610 1.289 . S
O584 C583 1.235 . S
C585 C587 1.400 . S
C585 N588 1.351 . S
C585 C590 1.501 . S
C586 C587 1.387 . S
C586 N589 1.341 . S
C587 C585 1.400 . S
C587 C586 1.387 . S
N588 Co579 2.022 . S
N588 C585 1.351 . S
N588 N589 1.365 . S
N589 C586 1.341 . S
N589 N588 1.365 . S
N589 H609 0.862 . S
C590 C585 1.501 . S
C590 H591 0.961 . S
C590 H592 0.961 . S
C590 H593 0.960 . S
H591 C590 0.961 . S
H592 C590 0.961 . S
H593 C590 0.960 . S
C594 N595 1.342 . S
C594 C598 1.401 . S
C594 C599 1.499 . S
N595 Co578 1.989 . S
N595 C594 1.342 . S
N595 N596 1.388 . S
N596 Co579 1.993 . S
N596 N595 1.388 . S
N596 C597 1.346 . S
C597 N596 1.346 . S
C597 C598 1.396 . S
C597 C607 1.510 . S
C598 C594 1.401 . S
C598 C597 1.396 . S
C599 C594 1.499 . S
C599 H600 0.959 . S
C599 H601 0.960 . S
C599 H602 0.961 . S
H600 C599 0.959 . S
H601 C599 0.960 . S
H602 C599 0.961 . S
O603 Co578 1.967 . S
O603 C611 1.258 . S
O604 Co579 1.941 . S
O604 C611 1.266 . S
H605 C607 0.959 . S
H606 C607 0.961 . S
C607 C597 1.510 . S
C607 H605 0.959 . S
C607 H606 0.961 . S
C607 H608 0.960 . S
H608 C607 0.960 . S
H609 N589 0.862 . S
O610 Co578 1.920 . S
O610 C583 1.289 . S
C611 O603 1.258 . S
C611 O604 1.266 . S
Co612 O615 1.970 . S
Co612 N629 1.989 . S
Co612 O637 1.967 . S
Co612 O644 1.920 . S
Co613 O616 1.966 . S
Co613 N622 2.022 . S
Co613 N630 1.993 . S
Co613 O638 1.941 . S
C614 O615 1.258 . S
C614 O616 1.263 . S
O615 Co612 1.970 . S
O615 C614 1.258 . S
O616 Co613 1.966 . S
O616 C614 1.263 . S
C617 O618 1.235 . S
C617 O644 1.289 . S
O618 C617 1.235 . S
C619 C621 1.400 . S
C619 N622 1.351 . S
C619 C624 1.501 . S
C620 C621 1.387 . S
C620 N623 1.341 . S
C621 C619 1.400 . S
C621 C620 1.387 . S
N622 Co613 2.022 . S
N622 C619 1.351 . S
N622 N623 1.365 . S
N623 C620 1.341 . S
N623 N622 1.365 . S
N623 H643 0.862 . S
C624 C619 1.501 . S
C624 H625 0.961 . S
C624 H626 0.961 . S
C624 H627 0.960 . S
H625 C624 0.961 . S
H626 C624 0.961 . S
H627 C624 0.960 . S
C628 N629 1.342 . S
C628 C632 1.401 . S
C628 C633 1.499 . S
N629 Co612 1.989 . S
N629 C628 1.342 . S
N629 N630 1.388 . S
N630 Co613 1.993 . S
N630 N629 1.388 . S
N630 C631 1.346 . S
C631 N630 1.346 . S
C631 C632 1.396 . S
C631 C641 1.510 . S
C632 C628 1.401 . S
C632 C631 1.396 . S
C633 C628 1.499 . S
C633 H634 0.959 . S
C633 H635 0.960 . S
C633 H636 0.961 . S
H634 C633 0.959 . S
H635 C633 0.960 . S
H636 C633 0.961 . S
O637 Co612 1.967 . S
O637 C645 1.258 . S
O638 Co613 1.941 . S
O638 C645 1.266 . S
H639 C641 0.959 . S
H640 C641 0.961 . S
C641 C631 1.510 . S
C641 H639 0.959 . S
C641 H640 0.961 . S
C641 H642 0.960 . S
H642 C641 0.960 . S
H643 N623 0.862 . S
O644 Co612 1.920 . S
O644 C617 1.289 . S
C645 O637 1.258 . S
C645 O638 1.266 . S
Co646 O649 1.970 . S
Co646 N663 1.989 . S
Co646 O671 1.967 . S
Co646 O678 1.920 . S
Co647 O650 1.966 . S
Co647 N656 2.022 . S
Co647 N664 1.993 . S
Co647 O672 1.941 . S
C648 O649 1.258 . S
C648 O650 1.263 . S
O649 Co646 1.970 . S
O649 C648 1.258 . S
O650 Co647 1.966 . S
O650 C648 1.263 . S
C651 O652 1.235 . S
C651 O678 1.289 . S
O652 C651 1.235 . S
C653 C655 1.400 . S
C653 N656 1.351 . S
C653 C658 1.501 . S
C654 C655 1.387 . S
C654 N657 1.341 . S
C655 C653 1.400 . S
C655 C654 1.387 . S
N656 Co647 2.022 . S
N656 C653 1.351 . S
N656 N657 1.365 . S
N657 C654 1.341 . S
N657 N656 1.365 . S
N657 H677 0.862 . S
C658 C653 1.501 . S
C658 H659 0.961 . S
C658 H660 0.961 . S
C658 H661 0.960 . S
H659 C658 0.961 . S
H660 C658 0.961 . S
H661 C658 0.960 . S
C662 N663 1.342 . S
C662 C666 1.401 . S
C662 C667 1.499 . S
N663 Co646 1.989 . S
N663 C662 1.342 . S
N663 N664 1.388 . S
N664 Co647 1.993 . S
N664 N663 1.388 . S
N664 C665 1.346 . S
C665 N664 1.346 . S
C665 C666 1.396 . S
C665 C675 1.510 . S
C666 C662 1.401 . S
C666 C665 1.396 . S
C667 C662 1.499 . S
C667 H668 0.959 . S
C667 H669 0.960 . S
C667 H670 0.961 . S
H668 C667 0.959 . S
H669 C667 0.960 . S
H670 C667 0.961 . S
O671 Co646 1.967 . S
O671 C679 1.258 . S
O672 Co647 1.941 . S
O672 C679 1.266 . S
H673 C675 0.959 . S
H674 C675 0.961 . S
C675 C665 1.510 . S
C675 H673 0.959 . S
C675 H674 0.961 . S
C675 H676 0.960 . S
H676 C675 0.960 . S
H677 N657 0.862 . S
O678 Co646 1.920 . S
O678 C651 1.289 . S
C679 O671 1.258 . S
C679 O672 1.266 . S
Co680 O683 1.970 . S
Co680 N697 1.989 . S
Co680 O705 1.967 . S
Co680 O712 1.920 . S
Co681 O684 1.966 . S
Co681 N690 2.022 . S
Co681 N698 1.993 . S
Co681 O706 1.941 . S
C682 O683 1.258 . S
C682 O684 1.263 . S
O683 Co680 1.970 . S
O683 C682 1.258 . S
O684 Co681 1.966 . S
O684 C682 1.263 . S
C685 O686 1.235 . S
C685 O712 1.289 . S
O686 C685 1.235 . S
C687 C689 1.400 . S
C687 N690 1.351 . S
C687 C692 1.501 . S
C688 C689 1.387 . S
C688 N691 1.341 . S
C689 C687 1.400 . S
C689 C688 1.387 . S
N690 Co681 2.022 . S
N690 C687 1.351 . S
N690 N691 1.365 . S
N691 C688 1.341 . S
N691 N690 1.365 . S
N691 H711 0.862 . S
C692 C687 1.501 . S
C692 H693 0.961 . S
C692 H694 0.961 . S
C692 H695 0.960 . S
H693 C692 0.961 . S
H694 C692 0.961 . S
H695 C692 0.960 . S
C696 N697 1.342 . S
C696 C700 1.401 . S
C696 C701 1.499 . S
N697 Co680 1.989 . S
N697 C696 1.342 . S
N697 N698 1.388 . S
N698 Co681 1.993 . S
N698 N697 1.388 . S
N698 C699 1.346 . S
C699 N698 1.346 . S
C699 C700 1.396 . S
C699 C709 1.510 . S
C700 C696 1.401 . S
C700 C699 1.396 . S
C701 C696 1.499 . S
C701 H702 0.959 . S
C701 H703 0.960 . S
C701 H704 0.961 . S
H702 C701 0.959 . S
H703 C701 0.960 . S
H704 C701 0.961 . S
O705 Co680 1.967 . S
O705 C713 1.258 . S
O706 Co681 1.941 . S
O706 C713 1.266 . S
H707 C709 0.959 . S
H708 C709 0.961 . S
C709 C699 1.510 . S
C709 H707 0.959 . S
C709 H708 0.961 . S
C709 H710 0.960 . S
H710 C709 0.960 . S
H711 N691 0.862 . S
O712 Co680 1.920 . S
O712 C685 1.289 . S
C713 O705 1.258 . S
C713 O706 1.266 . S
Co714 O717 1.970 . S
Co714 N731 1.989 . S
Co714 O739 1.967 . S
Co714 O746 1.920 . S
Co715 O718 1.966 . S
Co715 N724 2.022 . S
Co715 N732 1.993 . S
Co715 O740 1.941 . S
C716 O717 1.258 . S
C716 O718 1.263 . S
O717 Co714 1.970 . S
O717 C716 1.258 . S
O718 Co715 1.966 . S
O718 C716 1.263 . S
C719 O720 1.235 . S
C719 O746 1.289 . S
O720 C719 1.235 . S
C721 C723 1.400 . S
C721 N724 1.351 . S
C721 C726 1.501 . S
C722 C723 1.387 . S
C722 N725 1.341 . S
C723 C721 1.400 . S
C723 C722 1.387 . S
N724 Co715 2.022 . S
N724 C721 1.351 . S
N724 N725 1.365 . S
N725 C722 1.341 . S
N725 N724 1.365 . S
N725 H745 0.862 . S
C726 C721 1.501 . S
C726 H727 0.961 . S
C726 H728 0.961 . S
C726 H729 0.960 . S
H727 C726 0.961 . S
H728 C726 0.961 . S
H729 C726 0.960 . S
C730 N731 1.342 . S
C730 C734 1.401 . S
C730 C735 1.499 . S
N731 Co714 1.989 . S
N731 C730 1.342 . S
N731 N732 1.388 . S
N732 Co715 1.993 . S
N732 N731 1.388 . S
N732 C733 1.346 . S
C733 N732 1.346 . S
C733 C734 1.396 . S
C733 C743 1.510 . S
C734 C730 1.401 . S
C734 C733 1.396 . S
C735 C730 1.499 . S
C735 H736 0.959 . S
C735 H737 0.960 . S
C735 H738 0.961 . S
H736 C735 0.959 . S
H737 C735 0.960 . S
H738 C735 0.961 . S
O739 Co714 1.967 . S
O739 C747 1.258 . S
O740 Co715 1.941 . S
O740 C747 1.266 . S
H741 C743 0.959 . S
H742 C743 0.961 . S
C743 C733 1.510 . S
C743 H741 0.959 . S
C743 H742 0.961 . S
C743 H744 0.960 . S
H744 C743 0.960 . S
H745 N725 0.862 . S
O746 Co714 1.920 . S
O746 C719 1.289 . S
C747 O739 1.258 . S
C747 O740 1.266 . S
Co748 O751 1.970 . S
Co748 N765 1.989 . S
Co748 O773 1.967 . S
Co748 O780 1.920 . S
Co749 O752 1.966 . S
Co749 N758 2.022 . S
Co749 N766 1.993 . S
Co749 O774 1.941 . S
C750 O751 1.258 . S
C750 O752 1.263 . S
O751 Co748 1.970 . S
O751 C750 1.258 . S
O752 Co749 1.966 . S
O752 C750 1.263 . S
C753 O754 1.235 . S
C753 O780 1.289 . S
O754 C753 1.235 . S
C755 C757 1.400 . S
C755 N758 1.351 . S
C755 C760 1.501 . S
C756 C757 1.387 . S
C756 N759 1.341 . S
C757 C755 1.400 . S
C757 C756 1.387 . S
N758 Co749 2.022 . S
N758 C755 1.351 . S
N758 N759 1.365 . S
N759 C756 1.341 . S
N759 N758 1.365 . S
N759 H779 0.862 . S
C760 C755 1.501 . S
C760 H761 0.961 . S
C760 H762 0.961 . S
C760 H763 0.960 . S
H761 C760 0.961 . S
H762 C760 0.961 . S
H763 C760 0.960 . S
C764 N765 1.342 . S
C764 C768 1.401 . S
C764 C769 1.499 . S
N765 Co748 1.989 . S
N765 C764 1.342 . S
N765 N766 1.388 . S
N766 Co749 1.993 . S
N766 N765 1.388 . S
N766 C767 1.346 . S
C767 N766 1.346 . S
C767 C768 1.396 . S
C767 C777 1.510 . S
C768 C764 1.401 . S
C768 C767 1.396 . S
C769 C764 1.499 . S
C769 H770 0.959 . S
C769 H771 0.960 . S
C769 H772 0.961 . S
H770 C769 0.959 . S
H771 C769 0.960 . S
H772 C769 0.961 . S
O773 Co748 1.967 . S
O773 C781 1.258 . S
O774 Co749 1.941 . S
O774 C781 1.266 . S
H775 C777 0.959 . S
H776 C777 0.961 . S
C777 C767 1.510 . S
C777 H775 0.959 . S
C777 H776 0.961 . S
C777 H778 0.960 . S
H778 C777 0.960 . S
H779 N759 0.862 . S
O780 Co748 1.920 . S
O780 C753 1.289 . S
C781 O773 1.258 . S
C781 O774 1.266 . S
Co782 O785 1.970 . S
Co782 N799 1.989 . S
Co782 O807 1.967 . S
Co782 O814 1.920 . S
Co783 O786 1.966 . S
Co783 N792 2.022 . S
Co783 N800 1.993 . S
Co783 O808 1.941 . S
C784 O785 1.258 . S
C784 O786 1.263 . S
O785 Co782 1.970 . S
O785 C784 1.258 . S
O786 Co783 1.966 . S
O786 C784 1.263 . S
C787 O788 1.235 . S
C787 O814 1.289 . S
O788 C787 1.235 . S
C789 C791 1.400 . S
C789 N792 1.351 . S
C789 C794 1.501 . S
C790 C791 1.387 . S
C790 N793 1.341 . S
C791 C789 1.400 . S
C791 C790 1.387 . S
N792 Co783 2.022 . S
N792 C789 1.351 . S
N792 N793 1.365 . S
N793 C790 1.341 . S
N793 N792 1.365 . S
N793 H813 0.862 . S
C794 C789 1.501 . S
C794 H795 0.961 . S
C794 H796 0.961 . S
C794 H797 0.960 . S
H795 C794 0.961 . S
H796 C794 0.961 . S
H797 C794 0.960 . S
C798 N799 1.342 . S
C798 C802 1.401 . S
C798 C803 1.499 . S
N799 Co782 1.989 . S
N799 C798 1.342 . S
N799 N800 1.388 . S
N800 Co783 1.993 . S
N800 N799 1.388 . S
N800 C801 1.346 . S
C801 N800 1.346 . S
C801 C802 1.396 . S
C801 C811 1.510 . S
C802 C798 1.401 . S
C802 C801 1.396 . S
C803 C798 1.499 . S
C803 H804 0.959 . S
C803 H805 0.960 . S
C803 H806 0.961 . S
H804 C803 0.959 . S
H805 C803 0.960 . S
H806 C803 0.961 . S
O807 Co782 1.967 . S
O807 C815 1.258 . S
O808 Co783 1.941 . S
O808 C815 1.266 . S
H809 C811 0.959 . S
H810 C811 0.961 . S
C811 C801 1.510 . S
C811 H809 0.959 . S
C811 H810 0.961 . S
C811 H812 0.960 . S
H812 C811 0.960 . S
H813 N793 0.862 . S
O814 Co782 1.920 . S
O814 C787 1.289 . S
C815 O807 1.258 . S
C815 O808 1.266 . S
H816 C822 0.930 . S
H817 C826 0.930 . S
H818 C831 0.929 . S
H819 C829 0.929 . S
H820 C824 0.929 . S
H821 C830 0.929 . S
C822 H816 0.930 . S
C822 C823 1.367 . S
C822 C830 1.378 . S
C823 C822 1.367 . S
C823 C831 1.433 . S
C824 H820 0.929 . S
C824 C826 1.378 . S
C824 C828 1.350 . S
C825 C828 1.463 . S
C825 C830 1.350 . S
C825 N833 1.427 . S
C826 H817 0.930 . S
C826 C824 1.378 . S
C826 C827 1.367 . S
C827 C826 1.367 . S
C827 C829 1.433 . S
C828 C824 1.350 . S
C828 C825 1.463 . S
C828 N832 1.427 . S
C829 H819 0.929 . S
C829 C827 1.433 . S
C829 N832 1.384 . S
C830 H821 0.929 . S
C830 C822 1.378 . S
C830 C825 1.350 . S
C831 H818 0.929 . S
C831 C823 1.433 . S
C831 N833 1.384 . S
N832 C828 1.427 . S
N832 C829 1.384 . S
N833 C825 1.427 . S
N833 C831 1.384 . S
H834 C840 0.930 . S
H835 C844 0.930 . S
H836 C849 0.929 . S
H837 C847 0.929 . S
H838 C842 0.929 . S
H839 C848 0.929 . S
C840 H834 0.930 . S
C840 C841 1.367 . S
C840 C848 1.378 . S
C841 C840 1.367 . S
C841 C849 1.433 . S
C842 H838 0.929 . S
C842 C844 1.378 . S
C842 C846 1.350 . S
C843 C846 1.463 . S
C843 C848 1.350 . S
C843 N851 1.427 . S
C844 H835 0.930 . S
C844 C842 1.378 . S
C844 C845 1.367 . S
C845 C844 1.367 . S
C845 C847 1.433 . S
C846 C842 1.350 . S
C846 C843 1.463 . S
C846 N850 1.427 . S
C847 H837 0.929 . S
C847 C845 1.433 . S
C847 N850 1.384 . S
C848 H839 0.929 . S
C848 C840 1.378 . S
C848 C843 1.350 . S
C849 H836 0.929 . S
C849 C841 1.433 . S
C849 N851 1.384 . S
N850 C846 1.427 . S
N850 C847 1.384 . S
N851 C843 1.427 . S
N851 C849 1.384 . S
H852 C858 0.930 . S
H853 C862 0.930 . S
H854 C867 0.929 . S
H855 C865 0.929 . S
H856 C860 0.929 . S
H857 C866 0.929 . S
C858 H852 0.930 . S
C858 C859 1.367 . S
C858 C866 1.378 . S
C859 C858 1.367 . S
C859 C867 1.433 . S
C860 H856 0.929 . S
C860 C862 1.378 . S
C860 C864 1.350 . S
C861 C864 1.463 . S
C861 C866 1.350 . S
C861 N869 1.427 . S
C862 H853 0.930 . S
C862 C860 1.378 . S
C862 C863 1.367 . S
C863 C862 1.367 . S
C863 C865 1.433 . S
C864 C860 1.350 . S
C864 C861 1.463 . S
C864 N868 1.427 . S
C865 H855 0.929 . S
C865 C863 1.433 . S
C865 N868 1.384 . S
C866 H857 0.929 . S
C866 C858 1.378 . S
C866 C861 1.350 . S
C867 H854 0.929 . S
C867 C859 1.433 . S
C867 N869 1.384 . S
N868 C864 1.427 . S
N868 C865 1.384 . S
N869 C861 1.427 . S
N869 C867 1.384 . S
H870 C876 0.930 . S
H871 C880 0.930 . S
H872 C885 0.929 . S
H873 C883 0.929 . S
H874 C878 0.929 . S
H875 C884 0.929 . S
C876 H870 0.930 . S
C876 C877 1.367 . S
C876 C884 1.378 . S
C877 C876 1.367 . S
C877 C885 1.433 . S
C878 H874 0.929 . S
C878 C880 1.378 . S
C878 C882 1.350 . S
C879 C882 1.463 . S
C879 C884 1.350 . S
C879 N887 1.427 . S
C880 H871 0.930 . S
C880 C878 1.378 . S
C880 C881 1.367 . S
C881 C880 1.367 . S
C881 C883 1.433 . S
C882 C878 1.350 . S
C882 C879 1.463 . S
C882 N886 1.427 . S
C883 H873 0.929 . S
C883 C881 1.433 . S
C883 N886 1.384 . S
C884 H875 0.929 . S
C884 C876 1.378 . S
C884 C879 1.350 . S
C885 H872 0.929 . S
C885 C877 1.433 . S
C885 N887 1.384 . S
N886 C882 1.427 . S
N886 C883 1.384 . S
N887 C879 1.427 . S
N887 C885 1.384 . S
H888 C894 0.930 . S
H889 C898 0.930 . S
H890 C903 0.929 . S
H891 C901 0.929 . S
H892 C896 0.929 . S
H893 C902 0.929 . S
C894 H888 0.930 . S
C894 C895 1.367 . S
C894 C902 1.378 . S
C895 C894 1.367 . S
C895 C903 1.433 . S
C896 H892 0.929 . S
C896 C898 1.378 . S
C896 C900 1.350 . S
C897 C900 1.463 . S
C897 C902 1.350 . S
C897 N905 1.427 . S
C898 H889 0.930 . S
C898 C896 1.378 . S
C898 C899 1.367 . S
C899 C898 1.367 . S
C899 C901 1.433 . S
C900 C896 1.350 . S
C900 C897 1.463 . S
C900 N904 1.427 . S
C901 H891 0.929 . S
C901 C899 1.433 . S
C901 N904 1.384 . S
C902 H893 0.929 . S
C902 C894 1.378 . S
C902 C897 1.350 . S
C903 H890 0.929 . S
C903 C895 1.433 . S
C903 N905 1.384 . S
N904 C900 1.427 . S
N904 C901 1.384 . S
N905 C897 1.427 . S
N905 C903 1.384 . S
H906 C912 0.930 . S
H907 C916 0.930 . S
H908 C921 0.929 . S
H909 C919 0.929 . S
H910 C914 0.929 . S
H911 C920 0.929 . S
C912 H906 0.930 . S
C912 C913 1.367 . S
C912 C920 1.378 . S
C913 C912 1.367 . S
C913 C921 1.433 . S
C914 H910 0.929 . S
C914 C916 1.378 . S
C914 C918 1.350 . S
C915 C918 1.463 . S
C915 C920 1.350 . S
C915 N923 1.427 . S
C916 H907 0.930 . S
C916 C914 1.378 . S
C916 C917 1.367 . S
C917 C916 1.367 . S
C917 C919 1.433 . S
C918 C914 1.350 . S
C918 C915 1.463 . S
C918 N922 1.427 . S
C919 H909 0.929 . S
C919 C917 1.433 . S
C919 N922 1.384 . S
C920 H911 0.929 . S
C920 C912 1.378 . S
C920 C915 1.350 . S
C921 H908 0.929 . S
C921 C913 1.433 . S
C921 N923 1.384 . S
N922 C918 1.427 . S
N922 C919 1.384 . S
N923 C915 1.427 . S
N923 C921 1.384 . S
H924 C930 0.930 . S
H925 C934 0.930 . S
H926 C939 0.929 . S
H927 C937 0.929 . S
H928 C932 0.929 . S
H929 C938 0.929 . S
C930 H924 0.930 . S
C930 C931 1.367 . S
C930 C938 1.378 . S
C931 C930 1.367 . S
C931 C939 1.433 . S
C932 H928 0.929 . S
C932 C934 1.378 . S
C932 C936 1.350 . S
C933 C936 1.463 . S
C933 C938 1.350 . S
C933 N941 1.427 . S
C934 H925 0.930 . S
C934 C932 1.378 . S
C934 C935 1.367 . S
C935 C934 1.367 . S
C935 C937 1.433 . S
C936 C932 1.350 . S
C936 C933 1.463 . S
C936 N940 1.427 . S
C937 H927 0.929 . S
C937 C935 1.433 . S
C937 N940 1.384 . S
C938 H929 0.929 . S
C938 C930 1.378 . S
C938 C933 1.350 . S
C939 H926 0.929 . S
C939 C931 1.433 . S
C939 N941 1.384 . S
N940 C936 1.427 . S
N940 C937 1.384 . S
N941 C933 1.427 . S
N941 C939 1.384 . S
H942 C948 0.930 . S
H943 C952 0.930 . S
H944 C957 0.929 . S
H945 C955 0.929 . S
H946 C950 0.929 . S
H947 C956 0.929 . S
C948 H942 0.930 . S
C948 C949 1.367 . S
C948 C956 1.378 . S
C949 C948 1.367 . S
C949 C957 1.433 . S
C950 H946 0.929 . S
C950 C952 1.378 . S
C950 C954 1.350 . S
C951 C954 1.463 . S
C951 C956 1.350 . S
C951 N959 1.427 . S
C952 H943 0.930 . S
C952 C950 1.378 . S
C952 C953 1.367 . S
C953 C952 1.367 . S
C953 C955 1.433 . S
C954 C950 1.350 . S
C954 C951 1.463 . S
C954 N958 1.427 . S
C955 H945 0.929 . S
C955 C953 1.433 . S
C955 N958 1.384 . S
C956 H947 0.929 . S
C956 C948 1.378 . S
C956 C951 1.350 . S
C957 H944 0.929 . S
C957 C949 1.433 . S
C957 N959 1.384 . S
N958 C954 1.427 . S
N958 C955 1.384 . S
N959 C951 1.427 . S
N959 C957 1.384 . S
H960 C966 0.930 . S
H961 C970 0.930 . S
H962 C975 0.929 . S
H963 C973 0.929 . S
H964 C968 0.929 . S
H965 C974 0.929 . S
C966 H960 0.930 . S
C966 C967 1.367 . S
C966 C974 1.378 . S
C967 C966 1.367 . S
C967 C975 1.433 . S
C968 H964 0.929 . S
C968 C970 1.378 . S
C968 C972 1.350 . S
C969 C972 1.463 . S
C969 C974 1.350 . S
C969 N977 1.427 . S
C970 H961 0.930 . S
C970 C968 1.378 . S
C970 C971 1.367 . S
C971 C970 1.367 . S
C971 C973 1.433 . S
C972 C968 1.350 . S
C972 C969 1.463 . S
C972 N976 1.427 . S
C973 H963 0.929 . S
C973 C971 1.433 . S
C973 N976 1.384 . S
C974 H965 0.929 . S
C974 C966 1.378 . S
C974 C969 1.350 . S
C975 H962 0.929 . S
C975 C967 1.433 . S
C975 N977 1.384 . S
N976 C972 1.427 . S
N976 C973 1.384 . S
N977 C969 1.427 . S
N977 C975 1.384 . S
H978 C984 0.930 . S
H979 C988 0.930 . S
H980 C993 0.929 . S
H981 C991 0.929 . S
H982 C986 0.929 . S
H983 C992 0.929 . S
C984 H978 0.930 . S
C984 C985 1.367 . S
C984 C992 1.378 . S
C985 C984 1.367 . S
C985 C993 1.433 . S
C986 H982 0.929 . S
C986 C988 1.378 . S
C986 C990 1.350 . S
C987 C990 1.463 . S
C987 C992 1.350 . S
C987 N995 1.427 . S
C988 H979 0.930 . S
C988 C986 1.378 . S
C988 C989 1.367 . S
C989 C988 1.367 . S
C989 C991 1.433 . S
C990 C986 1.350 . S
C990 C987 1.463 . S
C990 N994 1.427 . S
C991 H981 0.929 . S
C991 C989 1.433 . S
C991 N994 1.384 . S
C992 H983 0.929 . S
C992 C984 1.378 . S
C992 C987 1.350 . S
C993 H980 0.929 . S
C993 C985 1.433 . S
C993 N995 1.384 . S
N994 C990 1.427 . S
N994 C991 1.384 . S
N995 C987 1.427 . S
N995 C993 1.384 . S
H996 C1002 0.930 . S
H997 C1006 0.930 . S
H998 C1011 0.929 . S
H999 C1009 0.929 . S
H1000 C1004 0.929 . S
H1001 C1010 0.929 . S
C1002 H996 0.930 . S
C1002 C1003 1.367 . S
C1002 C1010 1.378 . S
C1003 C1002 1.367 . S
C1003 C1011 1.433 . S
C1004 H1000 0.929 . S
C1004 C1006 1.378 . S
C1004 C1008 1.350 . S
C1005 C1008 1.463 . S
C1005 C1010 1.350 . S
C1005 N1013 1.427 . S
C1006 H997 0.930 . S
C1006 C1004 1.378 . S
C1006 C1007 1.367 . S
C1007 C1006 1.367 . S
C1007 C1009 1.433 . S
C1008 C1004 1.350 . S
C1008 C1005 1.463 . S
C1008 N1012 1.427 . S
C1009 H999 0.929 . S
C1009 C1007 1.433 . S
C1009 N1012 1.384 . S
C1010 H1001 0.929 . S
C1010 C1002 1.378 . S
C1010 C1005 1.350 . S
C1011 H998 0.929 . S
C1011 C1003 1.433 . S
C1011 N1013 1.384 . S
N1012 C1008 1.427 . S
N1012 C1009 1.384 . S
N1013 C1005 1.427 . S
N1013 C1011 1.384 . S
H1014 C1020 0.930 . S
H1015 C1024 0.930 . S
H1016 C1029 0.929 . S
H1017 C1027 0.929 . S
H1018 C1022 0.929 . S
H1019 C1028 0.929 . S
C1020 H1014 0.930 . S
C1020 C1021 1.367 . S
C1020 C1028 1.378 . S
C1021 C1020 1.367 . S
C1021 C1029 1.433 . S
C1022 H1018 0.929 . S
C1022 C1024 1.378 . S
C1022 C1026 1.350 . S
C1023 C1026 1.463 . S
C1023 C1028 1.350 . S
C1023 N1031 1.427 . S
C1024 H1015 0.930 . S
C1024 C1022 1.378 . S
C1024 C1025 1.367 . S
C1025 C1024 1.367 . S
C1025 C1027 1.433 . S
C1026 C1022 1.350 . S
C1026 C1023 1.463 . S
C1026 N1030 1.427 . S
C1027 H1017 0.929 . S
C1027 C1025 1.433 . S
C1027 N1030 1.384 . S
C1028 H1019 0.929 . S
C1028 C1020 1.378 . S
C1028 C1023 1.350 . S
C1029 H1016 0.929 . S
C1029 C1021 1.433 . S
C1029 N1031 1.384 . S
N1030 C1026 1.427 . S
N1030 C1027 1.384 . S
N1031 C1023 1.427 . S
N1031 C1029 1.384 . S
H1032 C1038 0.930 . S
H1033 C1042 0.930 . S
H1034 C1047 0.929 . S
H1035 C1045 0.929 . S
H1036 C1040 0.929 . S
H1037 C1046 0.929 . S
C1038 H1032 0.930 . S
C1038 C1039 1.367 . S
C1038 C1046 1.378 . S
C1039 C1038 1.367 . S
C1039 C1047 1.433 . S
C1040 H1036 0.929 . S
C1040 C1042 1.378 . S
C1040 C1044 1.350 . S
C1041 C1044 1.463 . S
C1041 C1046 1.350 . S
C1041 N1049 1.427 . S
C1042 H1033 0.930 . S
C1042 C1040 1.378 . S
C1042 C1043 1.367 . S
C1043 C1042 1.367 . S
C1043 C1045 1.433 . S
C1044 C1040 1.350 . S
C1044 C1041 1.463 . S
C1044 N1048 1.427 . S
C1045 H1035 0.929 . S
C1045 C1043 1.433 . S
C1045 N1048 1.384 . S
C1046 H1037 0.929 . S
C1046 C1038 1.378 . S
C1046 C1041 1.350 . S
C1047 H1034 0.929 . S
C1047 C1039 1.433 . S
C1047 N1049 1.384 . S
N1048 C1044 1.427 . S
N1048 C1045 1.384 . S
N1049 C1041 1.427 . S
N1049 C1047 1.384 . S
H1050 C1056 0.930 . S
H1051 C1060 0.930 . S
H1052 C1065 0.929 . S
H1053 C1063 0.929 . S
H1054 C1058 0.929 . S
H1055 C1064 0.929 . S
C1056 H1050 0.930 . S
C1056 C1057 1.367 . S
C1056 C1064 1.378 . S
C1057 C1056 1.367 . S
C1057 C1065 1.433 . S
C1058 H1054 0.929 . S
C1058 C1060 1.378 . S
C1058 C1062 1.350 . S
C1059 C1062 1.463 . S
C1059 C1064 1.350 . S
C1059 N1067 1.427 . S
C1060 H1051 0.930 . S
C1060 C1058 1.378 . S
C1060 C1061 1.367 . S
C1061 C1060 1.367 . S
C1061 C1063 1.433 . S
C1062 C1058 1.350 . S
C1062 C1059 1.463 . S
C1062 N1066 1.427 . S
C1063 H1053 0.929 . S
C1063 C1061 1.433 . S
C1063 N1066 1.384 . S
C1064 H1055 0.929 . S
C1064 C1056 1.378 . S
C1064 C1059 1.350 . S
C1065 H1052 0.929 . S
C1065 C1057 1.433 . S
C1065 N1067 1.384 . S
N1066 C1062 1.427 . S
N1066 C1063 1.384 . S
N1067 C1059 1.427 . S
N1067 C1065 1.384 . S
H1068 C1074 0.930 . S
H1069 C1078 0.930 . S
H1070 C1083 0.929 . S
H1071 C1081 0.929 . S
H1072 C1076 0.929 . S
H1073 C1082 0.929 . S
C1074 H1068 0.930 . S
C1074 C1075 1.367 . S
C1074 C1082 1.378 . S
C1075 C1074 1.367 . S
C1075 C1083 1.433 . S
C1076 H1072 0.929 . S
C1076 C1078 1.378 . S
C1076 C1080 1.350 . S
C1077 C1080 1.463 . S
C1077 C1082 1.350 . S
C1077 N1085 1.427 . S
C1078 H1069 0.930 . S
C1078 C1076 1.378 . S
C1078 C1079 1.367 . S
C1079 C1078 1.367 . S
C1079 C1081 1.433 . S
C1080 C1076 1.350 . S
C1080 C1077 1.463 . S
C1080 N1084 1.427 . S
C1081 H1071 0.929 . S
C1081 C1079 1.433 . S
C1081 N1084 1.384 . S
C1082 H1073 0.929 . S
C1082 C1074 1.378 . S
C1082 C1077 1.350 . S
C1083 H1070 0.929 . S
C1083 C1075 1.433 . S
C1083 N1085 1.384 . S
N1084 C1080 1.427 . S
N1084 C1081 1.384 . S
N1085 C1077 1.427 . S
N1085 C1083 1.384 . S
H1086 C1092 0.930 . S
H1087 C1096 0.930 . S
H1088 C1101 0.929 . S
H1089 C1099 0.929 . S
H1090 C1094 0.929 . S
H1091 C1100 0.929 . S
C1092 H1086 0.930 . S
C1092 C1093 1.367 . S
C1092 C1100 1.378 . S
C1093 C1092 1.367 . S
C1093 C1101 1.433 . S
C1094 H1090 0.929 . S
C1094 C1096 1.378 . S
C1094 C1098 1.350 . S
C1095 C1098 1.463 . S
C1095 C1100 1.350 . S
C1095 N1103 1.427 . S
C1096 H1087 0.930 . S
C1096 C1094 1.378 . S
C1096 C1097 1.367 . S
C1097 C1096 1.367 . S
C1097 C1099 1.433 . S
C1098 C1094 1.350 . S
C1098 C1095 1.463 . S
C1098 N1102 1.427 . S
C1099 H1089 0.929 . S
C1099 C1097 1.433 . S
C1099 N1102 1.384 . S
C1100 H1091 0.929 . S
C1100 C1092 1.378 . S
C1100 C1095 1.350 . S
C1101 H1088 0.929 . S
C1101 C1093 1.433 . S
C1101 N1103 1.384 . S
N1102 C1098 1.427 . S
N1102 C1099 1.384 . S
N1103 C1095 1.427 . S
N1103 C1101 1.384 . S
H1104 C1110 0.930 . S
H1105 C1114 0.930 . S
H1106 C1119 0.929 . S
H1107 C1117 0.929 . S
H1108 C1112 0.929 . S
H1109 C1118 0.929 . S
C1110 H1104 0.930 . S
C1110 C1111 1.367 . S
C1110 C1118 1.378 . S
C1111 C1110 1.367 . S
C1111 C1119 1.433 . S
C1112 H1108 0.929 . S
C1112 C1114 1.378 . S
C1112 C1116 1.350 . S
C1113 C1116 1.463 . S
C1113 C1118 1.350 . S
C1113 N1121 1.427 . S
C1114 H1105 0.930 . S
C1114 C1112 1.378 . S
C1114 C1115 1.367 . S
C1115 C1114 1.367 . S
C1115 C1117 1.433 . S
C1116 C1112 1.350 . S
C1116 C1113 1.463 . S
C1116 N1120 1.427 . S
C1117 H1107 0.929 . S
C1117 C1115 1.433 . S
C1117 N1120 1.384 . S
C1118 H1109 0.929 . S
C1118 C1110 1.378 . S
C1118 C1113 1.350 . S
C1119 H1106 0.929 . S
C1119 C1111 1.433 . S
C1119 N1121 1.384 . S
N1120 C1116 1.427 . S
N1120 C1117 1.384 . S
N1121 C1113 1.427 . S
N1121 C1119 1.384 . S
H1122 C1128 0.930 . S
H1123 C1132 0.930 . S
H1124 C1137 0.929 . S
H1125 C1135 0.929 . S
H1126 C1130 0.929 . S
H1127 C1136 0.929 . S
C1128 H1122 0.930 . S
C1128 C1129 1.367 . S
C1128 C1136 1.378 . S
C1129 C1128 1.367 . S
C1129 C1137 1.433 . S
C1130 H1126 0.929 . S
C1130 C1132 1.378 . S
C1130 C1134 1.350 . S
C1131 C1134 1.463 . S
C1131 C1136 1.350 . S
C1131 N1139 1.427 . S
C1132 H1123 0.930 . S
C1132 C1130 1.378 . S
C1132 C1133 1.367 . S
C1133 C1132 1.367 . S
C1133 C1135 1.433 . S
C1134 C1130 1.350 . S
C1134 C1131 1.463 . S
C1134 N1138 1.427 . S
C1135 H1125 0.929 . S
C1135 C1133 1.433 . S
C1135 N1138 1.384 . S
C1136 H1127 0.929 . S
C1136 C1128 1.378 . S
C1136 C1131 1.350 . S
C1137 H1124 0.929 . S
C1137 C1129 1.433 . S
C1137 N1139 1.384 . S
N1138 C1134 1.427 . S
N1138 C1135 1.384 . S
N1139 C1131 1.427 . S
N1139 C1137 1.384 . S
H1140 C1146 0.930 . S
H1141 C1150 0.930 . S
H1142 C1155 0.929 . S
H1143 C1153 0.929 . S
H1144 C1148 0.929 . S
H1145 C1154 0.929 . S
C1146 H1140 0.930 . S
C1146 C1147 1.367 . S
C1146 C1154 1.378 . S
C1147 C1146 1.367 . S
C1147 C1155 1.433 . S
C1148 H1144 0.929 . S
C1148 C1150 1.378 . S
C1148 C1152 1.350 . S
C1149 C1152 1.463 . S
C1149 C1154 1.350 . S
C1149 N1157 1.427 . S
C1150 H1141 0.930 . S
C1150 C1148 1.378 . S
C1150 C1151 1.367 . S
C1151 C1150 1.367 . S
C1151 C1153 1.433 . S
C1152 C1148 1.350 . S
C1152 C1149 1.463 . S
C1152 N1156 1.427 . S
C1153 H1143 0.929 . S
C1153 C1151 1.433 . S
C1153 N1156 1.384 . S
C1154 H1145 0.929 . S
C1154 C1146 1.378 . S
C1154 C1149 1.350 . S
C1155 H1142 0.929 . S
C1155 C1147 1.433 . S
C1155 N1157 1.384 . S
N1156 C1152 1.427 . S
N1156 C1153 1.384 . S
N1157 C1149 1.427 . S
N1157 C1155 1.384 . S
H1158 C1164 0.930 . S
H1159 C1168 0.930 . S
H1160 C1173 0.929 . S
H1161 C1171 0.929 . S
H1162 C1166 0.929 . S
H1163 C1172 0.929 . S
C1164 H1158 0.930 . S
C1164 C1165 1.367 . S
C1164 C1172 1.378 . S
C1165 C1164 1.367 . S
C1165 C1173 1.433 . S
C1166 H1162 0.929 . S
C1166 C1168 1.378 . S
C1166 C1170 1.350 . S
C1167 C1170 1.463 . S
C1167 C1172 1.350 . S
C1167 N1175 1.427 . S
C1168 H1159 0.930 . S
C1168 C1166 1.378 . S
C1168 C1169 1.367 . S
C1169 C1168 1.367 . S
C1169 C1171 1.433 . S
C1170 C1166 1.350 . S
C1170 C1167 1.463 . S
C1170 N1174 1.427 . S
C1171 H1161 0.929 . S
C1171 C1169 1.433 . S
C1171 N1174 1.384 . S
C1172 H1163 0.929 . S
C1172 C1164 1.378 . S
C1172 C1167 1.350 . S
C1173 H1160 0.929 . S
C1173 C1165 1.433 . S
C1173 N1175 1.384 . S
N1174 C1170 1.427 . S
N1174 C1171 1.384 . S
N1175 C1167 1.427 . S
N1175 C1173 1.384 . S
H1176 C1182 0.930 . S
H1177 C1186 0.930 . S
H1178 C1191 0.929 . S
H1179 C1189 0.929 . S
H1180 C1184 0.929 . S
H1181 C1190 0.929 . S
C1182 H1176 0.930 . S
C1182 C1183 1.367 . S
C1182 C1190 1.378 . S
C1183 C1182 1.367 . S
C1183 C1191 1.433 . S
C1184 H1180 0.929 . S
C1184 C1186 1.378 . S
C1184 C1188 1.350 . S
C1185 C1188 1.463 . S
C1185 C1190 1.350 . S
C1185 N1193 1.427 . S
C1186 H1177 0.930 . S
C1186 C1184 1.378 . S
C1186 C1187 1.367 . S
C1187 C1186 1.367 . S
C1187 C1189 1.433 . S
C1188 C1184 1.350 . S
C1188 C1185 1.463 . S
C1188 N1192 1.427 . S
C1189 H1179 0.929 . S
C1189 C1187 1.433 . S
C1189 N1192 1.384 . S
C1190 H1181 0.929 . S
C1190 C1182 1.378 . S
C1190 C1185 1.350 . S
C1191 H1178 0.929 . S
C1191 C1183 1.433 . S
C1191 N1193 1.384 . S
N1192 C1188 1.427 . S
N1192 C1189 1.384 . S
N1193 C1185 1.427 . S
N1193 C1191 1.384 . S
H1194 C1200 0.930 . S
H1195 C1204 0.930 . S
H1196 C1209 0.929 . S
H1197 C1207 0.929 . S
H1198 C1202 0.929 . S
H1199 C1208 0.929 . S
C1200 H1194 0.930 . S
C1200 C1201 1.367 . S
C1200 C1208 1.378 . S
C1201 C1200 1.367 . S
C1201 C1209 1.433 . S
C1202 H1198 0.929 . S
C1202 C1204 1.378 . S
C1202 C1206 1.350 . S
C1203 C1206 1.463 . S
C1203 C1208 1.350 . S
C1203 N1211 1.427 . S
C1204 H1195 0.930 . S
C1204 C1202 1.378 . S
C1204 C1205 1.367 . S
C1205 C1204 1.367 . S
C1205 C1207 1.433 . S
C1206 C1202 1.350 . S
C1206 C1203 1.463 . S
C1206 N1210 1.427 . S
C1207 H1197 0.929 . S
C1207 C1205 1.433 . S
C1207 N1210 1.384 . S
C1208 H1199 0.929 . S
C1208 C1200 1.378 . S
C1208 C1203 1.350 . S
C1209 H1196 0.929 . S
C1209 C1201 1.433 . S
C1209 N1211 1.384 . S
N1210 C1206 1.427 . S
N1210 C1207 1.384 . S
N1211 C1203 1.427 . S
N1211 C1209 1.384 . S
H1212 C1218 0.930 . S
H1213 C1222 0.930 . S
H1214 C1227 0.929 . S
H1215 C1225 0.929 . S
H1216 C1220 0.929 . S
H1217 C1226 0.929 . S
C1218 H1212 0.930 . S
C1218 C1219 1.367 . S
C1218 C1226 1.378 . S
C1219 C1218 1.367 . S
C1219 C1227 1.433 . S
C1220 H1216 0.929 . S
C1220 C1222 1.378 . S
C1220 C1224 1.350 . S
C1221 C1224 1.463 . S
C1221 C1226 1.350 . S
C1221 N1229 1.427 . S
C1222 H1213 0.930 . S
C1222 C1220 1.378 . S
C1222 C1223 1.367 . S
C1223 C1222 1.367 . S
C1223 C1225 1.433 . S
C1224 C1220 1.350 . S
C1224 C1221 1.463 . S
C1224 N1228 1.427 . S
C1225 H1215 0.929 . S
C1225 C1223 1.433 . S
C1225 N1228 1.384 . S
C1226 H1217 0.929 . S
C1226 C1218 1.378 . S
C1226 C1221 1.350 . S
C1227 H1214 0.929 . S
C1227 C1219 1.433 . S
C1227 N1229 1.384 . S
N1228 C1224 1.427 . S
N1228 C1225 1.384 . S
N1229 C1221 1.427 . S
N1229 C1227 1.384 . S
H1230 C1236 0.930 . S
H1231 C1240 0.930 . S
H1232 C1245 0.929 . S
H1233 C1243 0.929 . S
H1234 C1238 0.929 . S
H1235 C1244 0.929 . S
C1236 H1230 0.930 . S
C1236 C1237 1.367 . S
C1236 C1244 1.378 . S
C1237 C1236 1.367 . S
C1237 C1245 1.433 . S
C1238 H1234 0.929 . S
C1238 C1240 1.378 . S
C1238 C1242 1.350 . S
C1239 C1242 1.463 . S
C1239 C1244 1.350 . S
C1239 N1247 1.427 . S
C1240 H1231 0.930 . S
C1240 C1238 1.378 . S
C1240 C1241 1.367 . S
C1241 C1240 1.367 . S
C1241 C1243 1.433 . S
C1242 C1238 1.350 . S
C1242 C1239 1.463 . S
C1242 N1246 1.427 . S
C1243 H1233 0.929 . S
C1243 C1241 1.433 . S
C1243 N1246 1.384 . S
C1244 H1235 0.929 . S
C1244 C1236 1.378 . S
C1244 C1239 1.350 . S
C1245 H1232 0.929 . S
C1245 C1237 1.433 . S
C1245 N1247 1.384 . S
N1246 C1242 1.427 . S
N1246 C1243 1.384 . S
N1247 C1239 1.427 . S
N1247 C1245 1.384 . S
H1248 C1254 0.930 . S
H1249 C1258 0.930 . S
H1250 C1263 0.929 . S
H1251 C1261 0.929 . S
H1252 C1256 0.929 . S
H1253 C1262 0.929 . S
C1254 H1248 0.930 . S
C1254 C1255 1.367 . S
C1254 C1262 1.378 . S
C1255 C1254 1.367 . S
C1255 C1263 1.433 . S
C1256 H1252 0.929 . S
C1256 C1258 1.378 . S
C1256 C1260 1.350 . S
C1257 C1260 1.463 . S
C1257 C1262 1.350 . S
C1257 N1265 1.427 . S
C1258 H1249 0.930 . S
C1258 C1256 1.378 . S
C1258 C1259 1.367 . S
C1259 C1258 1.367 . S
C1259 C1261 1.433 . S
C1260 C1256 1.350 . S
C1260 C1257 1.463 . S
C1260 N1264 1.427 . S
C1261 H1251 0.929 . S
C1261 C1259 1.433 . S
C1261 N1264 1.384 . S
C1262 H1253 0.929 . S
C1262 C1254 1.378 . S
C1262 C1257 1.350 . S
C1263 H1250 0.929 . S
C1263 C1255 1.433 . S
C1263 N1265 1.384 . S
N1264 C1260 1.427 . S
N1264 C1261 1.384 . S
N1265 C1257 1.427 . S
N1265 C1263 1.384 . S
H1266 C1272 0.930 . S
H1267 C1276 0.930 . S
H1268 C1281 0.929 . S
H1269 C1279 0.929 . S
H1270 C1274 0.929 . S
H1271 C1280 0.929 . S
C1272 H1266 0.930 . S
C1272 C1273 1.367 . S
C1272 C1280 1.378 . S
C1273 C1272 1.367 . S
C1273 C1281 1.433 . S
C1274 H1270 0.929 . S
C1274 C1276 1.378 . S
C1274 C1278 1.350 . S
C1275 C1278 1.463 . S
C1275 C1280 1.350 . S
C1275 N1283 1.427 . S
C1276 H1267 0.930 . S
C1276 C1274 1.378 . S
C1276 C1277 1.367 . S
C1277 C1276 1.367 . S
C1277 C1279 1.433 . S
C1278 C1274 1.350 . S
C1278 C1275 1.463 . S
C1278 N1282 1.427 . S
C1279 H1269 0.929 . S
C1279 C1277 1.433 . S
C1279 N1282 1.384 . S
C1280 H1271 0.929 . S
C1280 C1272 1.378 . S
C1280 C1275 1.350 . S
C1281 H1268 0.929 . S
C1281 C1273 1.433 . S
C1281 N1283 1.384 . S
N1282 C1278 1.427 . S
N1282 C1279 1.384 . S
N1283 C1275 1.427 . S
N1283 C1281 1.384 . S
H1284 C1290 0.930 . S
H1285 C1294 0.930 . S
H1286 C1299 0.929 . S
H1287 C1297 0.929 . S
H1288 C1292 0.929 . S
H1289 C1298 0.929 . S
C1290 H1284 0.930 . S
C1290 C1291 1.367 . S
C1290 C1298 1.378 . S
C1291 C1290 1.367 . S
C1291 C1299 1.433 . S
C1292 H1288 0.929 . S
C1292 C1294 1.378 . S
C1292 C1296 1.350 . S
C1293 C1296 1.463 . S
C1293 C1298 1.350 . S
C1293 N1301 1.427 . S
C1294 H1285 0.930 . S
C1294 C1292 1.378 . S
C1294 C1295 1.367 . S
C1295 C1294 1.367 . S
C1295 C1297 1.433 . S
C1296 C1292 1.350 . S
C1296 C1293 1.463 . S
C1296 N1300 1.427 . S
C1297 H1287 0.929 . S
C1297 C1295 1.433 . S
C1297 N1300 1.384 . S
C1298 H1289 0.929 . S
C1298 C1290 1.378 . S
C1298 C1293 1.350 . S
C1299 H1286 0.929 . S
C1299 C1291 1.433 . S
C1299 N1301 1.384 . S
N1300 C1296 1.427 . S
N1300 C1297 1.384 . S
N1301 C1293 1.427 . S
N1301 C1299 1.384 . S
H1302 C1308 0.930 . S
H1303 C1312 0.930 . S
H1304 C1317 0.929 . S
H1305 C1315 0.929 . S
H1306 C1310 0.929 . S
H1307 C1316 0.929 . S
C1308 H1302 0.930 . S
C1308 C1309 1.367 . S
C1308 C1316 1.378 . S
C1309 C1308 1.367 . S
C1309 C1317 1.433 . S
C1310 H1306 0.929 . S
C1310 C1312 1.378 . S
C1310 C1314 1.350 . S
C1311 C1314 1.463 . S
C1311 C1316 1.350 . S
C1311 N1319 1.427 . S
C1312 H1303 0.930 . S
C1312 C1310 1.378 . S
C1312 C1313 1.367 . S
C1313 C1312 1.367 . S
C1313 C1315 1.433 . S
C1314 C1310 1.350 . S
C1314 C1311 1.463 . S
C1314 N1318 1.427 . S
C1315 H1305 0.929 . S
C1315 C1313 1.433 . S
C1315 N1318 1.384 . S
C1316 H1307 0.929 . S
C1316 C1308 1.378 . S
C1316 C1311 1.350 . S
C1317 H1304 0.929 . S
C1317 C1309 1.433 . S
C1317 N1319 1.384 . S
N1318 C1314 1.427 . S
N1318 C1315 1.384 . S
N1319 C1311 1.427 . S
N1319 C1317 1.384 . S
H1320 C1326 0.930 . S
H1321 C1330 0.930 . S
H1322 C1335 0.929 . S
H1323 C1333 0.929 . S
H1324 C1328 0.929 . S
H1325 C1334 0.929 . S
C1326 H1320 0.930 . S
C1326 C1327 1.367 . S
C1326 C1334 1.378 . S
C1327 C1326 1.367 . S
C1327 C1335 1.433 . S
C1328 H1324 0.929 . S
C1328 C1330 1.378 . S
C1328 C1332 1.350 . S
C1329 C1332 1.463 . S
C1329 C1334 1.350 . S
C1329 N1337 1.427 . S
C1330 H1321 0.930 . S
C1330 C1328 1.378 . S
C1330 C1331 1.367 . S
C1331 C1330 1.367 . S
C1331 C1333 1.433 . S
C1332 C1328 1.350 . S
C1332 C1329 1.463 . S
C1332 N1336 1.427 . S
C1333 H1323 0.929 . S
C1333 C1331 1.433 . S
C1333 N1336 1.384 . S
C1334 H1325 0.929 . S
C1334 C1326 1.378 . S
C1334 C1329 1.350 . S
C1335 H1322 0.929 . S
C1335 C1327 1.433 . S
C1335 N1337 1.384 . S
N1336 C1332 1.427 . S
N1336 C1333 1.384 . S
N1337 C1329 1.427 . S
N1337 C1335 1.384 . S
H1338 C1344 0.930 . S
H1339 C1348 0.930 . S
H1340 C1353 0.929 . S
H1341 C1351 0.929 . S
H1342 C1346 0.929 . S
H1343 C1352 0.929 . S
C1344 H1338 0.930 . S
C1344 C1345 1.367 . S
C1344 C1352 1.378 . S
C1345 C1344 1.367 . S
C1345 C1353 1.433 . S
C1346 H1342 0.929 . S
C1346 C1348 1.378 . S
C1346 C1350 1.350 . S
C1347 C1350 1.463 . S
C1347 C1352 1.350 . S
C1347 N1355 1.427 . S
C1348 H1339 0.930 . S
C1348 C1346 1.378 . S
C1348 C1349 1.367 . S
C1349 C1348 1.367 . S
C1349 C1351 1.433 . S
C1350 C1346 1.350 . S
C1350 C1347 1.463 . S
C1350 N1354 1.427 . S
C1351 H1341 0.929 . S
C1351 C1349 1.433 . S
C1351 N1354 1.384 . S
C1352 H1343 0.929 . S
C1352 C1344 1.378 . S
C1352 C1347 1.350 . S
C1353 H1340 0.929 . S
C1353 C1345 1.433 . S
C1353 N1355 1.384 . S
N1354 C1350 1.427 . S
N1354 C1351 1.384 . S
N1355 C1347 1.427 . S
N1355 C1353 1.384 . S
H1356 C1362 0.930 . S
H1357 C1366 0.930 . S
H1358 C1371 0.929 . S
H1359 C1369 0.929 . S
H1360 C1364 0.929 . S
H1361 C1370 0.929 . S
C1362 H1356 0.930 . S
C1362 C1363 1.367 . S
C1362 C1370 1.378 . S
C1363 C1362 1.367 . S
C1363 C1371 1.433 . S
C1364 H1360 0.929 . S
C1364 C1366 1.378 . S
C1364 C1368 1.350 . S
C1365 C1368 1.463 . S
C1365 C1370 1.350 . S
C1365 N1373 1.427 . S
C1366 H1357 0.930 . S
C1366 C1364 1.378 . S
C1366 C1367 1.367 . S
C1367 C1366 1.367 . S
C1367 C1369 1.433 . S
C1368 C1364 1.350 . S
C1368 C1365 1.463 . S
C1368 N1372 1.427 . S
C1369 H1359 0.929 . S
C1369 C1367 1.433 . S
C1369 N1372 1.384 . S
C1370 H1361 0.929 . S
C1370 C1362 1.378 . S
C1370 C1365 1.350 . S
C1371 H1358 0.929 . S
C1371 C1363 1.433 . S
C1371 N1373 1.384 . S
N1372 C1368 1.427 . S
N1372 C1369 1.384 . S
N1373 C1365 1.427 . S
N1373 C1371 1.384 . S
H1374 C1380 0.930 . S
H1375 C1384 0.930 . S
H1376 C1389 0.929 . S
H1377 C1387 0.929 . S
H1378 C1382 0.929 . S
H1379 C1388 0.929 . S
C1380 H1374 0.930 . S
C1380 C1381 1.367 . S
C1380 C1388 1.378 . S
C1381 C1380 1.367 . S
C1381 C1389 1.433 . S
C1382 H1378 0.929 . S
C1382 C1384 1.378 . S
C1382 C1386 1.350 . S
C1383 C1386 1.463 . S
C1383 C1388 1.350 . S
C1383 N1391 1.427 . S
C1384 H1375 0.930 . S
C1384 C1382 1.378 . S
C1384 C1385 1.367 . S
C1385 C1384 1.367 . S
C1385 C1387 1.433 . S
C1386 C1382 1.350 . S
C1386 C1383 1.463 . S
C1386 N1390 1.427 . S
C1387 H1377 0.929 . S
C1387 C1385 1.433 . S
C1387 N1390 1.384 . S
C1388 H1379 0.929 . S
C1388 C1380 1.378 . S
C1388 C1383 1.350 . S
C1389 H1376 0.929 . S
C1389 C1381 1.433 . S
C1389 N1391 1.384 . S
N1390 C1386 1.427 . S
N1390 C1387 1.384 . S
N1391 C1383 1.427 . S
N1391 C1389 1.384 . S
H1392 C1398 0.930 . S
H1393 C1402 0.930 . S
H1394 C1407 0.929 . S
H1395 C1405 0.929 . S
H1396 C1400 0.929 . S
H1397 C1406 0.929 . S
C1398 H1392 0.930 . S
C1398 C1399 1.367 . S
C1398 C1406 1.378 . S
C1399 C1398 1.367 . S
C1399 C1407 1.433 . S
C1400 H1396 0.929 . S
C1400 C1402 1.378 . S
C1400 C1404 1.350 . S
C1401 C1404 1.463 . S
C1401 C1406 1.350 . S
C1401 N1409 1.427 . S
C1402 H1393 0.930 . S
C1402 C1400 1.378 . S
C1402 C1403 1.367 . S
C1403 C1402 1.367 . S
C1403 C1405 1.433 . S
C1404 C1400 1.350 . S
C1404 C1401 1.463 . S
C1404 N1408 1.427 . S
C1405 H1395 0.929 . S
C1405 C1403 1.433 . S
C1405 N1408 1.384 . S
C1406 H1397 0.929 . S
C1406 C1398 1.378 . S
C1406 C1401 1.350 . S
C1407 H1394 0.929 . S
C1407 C1399 1.433 . S
C1407 N1409 1.384 . S
N1408 C1404 1.427 . S
N1408 C1405 1.384 . S
N1409 C1401 1.427 . S
N1409 C1407 1.384 . S
H1410 C1416 0.930 . S
H1411 C1420 0.930 . S
H1412 C1425 0.929 . S
H1413 C1423 0.929 . S
H1414 C1418 0.929 . S
H1415 C1424 0.929 . S
C1416 H1410 0.930 . S
C1416 C1417 1.367 . S
C1416 C1424 1.378 . S
C1417 C1416 1.367 . S
C1417 C1425 1.433 . S
C1418 H1414 0.929 . S
C1418 C1420 1.378 . S
C1418 C1422 1.350 . S
C1419 C1422 1.463 . S
C1419 C1424 1.350 . S
C1419 N1427 1.427 . S
C1420 H1411 0.930 . S
C1420 C1418 1.378 . S
C1420 C1421 1.367 . S
C1421 C1420 1.367 . S
C1421 C1423 1.433 . S
C1422 C1418 1.350 . S
C1422 C1419 1.463 . S
C1422 N1426 1.427 . S
C1423 H1413 0.929 . S
C1423 C1421 1.433 . S
C1423 N1426 1.384 . S
C1424 H1415 0.929 . S
C1424 C1416 1.378 . S
C1424 C1419 1.350 . S
C1425 H1412 0.929 . S
C1425 C1417 1.433 . S
C1425 N1427 1.384 . S
N1426 C1422 1.427 . S
N1426 C1423 1.384 . S
N1427 C1419 1.427 . S
N1427 C1425 1.384 . S
H1428 C1434 0.930 . S
H1429 C1438 0.930 . S
H1430 C1443 0.929 . S
H1431 C1441 0.929 . S
H1432 C1436 0.929 . S
H1433 C1442 0.929 . S
C1434 H1428 0.930 . S
C1434 C1435 1.367 . S
C1434 C1442 1.378 . S
C1435 C1434 1.367 . S
C1435 C1443 1.433 . S
C1436 H1432 0.929 . S
C1436 C1438 1.378 . S
C1436 C1440 1.350 . S
C1437 C1440 1.463 . S
C1437 C1442 1.350 . S
C1437 N1445 1.427 . S
C1438 H1429 0.930 . S
C1438 C1436 1.378 . S
C1438 C1439 1.367 . S
C1439 C1438 1.367 . S
C1439 C1441 1.433 . S
C1440 C1436 1.350 . S
C1440 C1437 1.463 . S
C1440 N1444 1.427 . S
C1441 H1431 0.929 . S
C1441 C1439 1.433 . S
C1441 N1444 1.384 . S
C1442 H1433 0.929 . S
C1442 C1434 1.378 . S
C1442 C1437 1.350 . S
C1443 H1430 0.929 . S
C1443 C1435 1.433 . S
C1443 N1445 1.384 . S
N1444 C1440 1.427 . S
N1444 C1441 1.384 . S
N1445 C1437 1.427 . S
N1445 C1443 1.384 . S
H1446 C1452 0.930 . S
H1447 C1456 0.930 . S
H1448 C1461 0.929 . S
H1449 C1459 0.929 . S
H1450 C1454 0.929 . S
H1451 C1460 0.929 . S
C1452 H1446 0.930 . S
C1452 C1453 1.367 . S
C1452 C1460 1.378 . S
C1453 C1452 1.367 . S
C1453 C1461 1.433 . S
C1454 H1450 0.929 . S
C1454 C1456 1.378 . S
C1454 C1458 1.350 . S
C1455 C1458 1.463 . S
C1455 C1460 1.350 . S
C1455 N1463 1.427 . S
C1456 H1447 0.930 . S
C1456 C1454 1.378 . S
C1456 C1457 1.367 . S
C1457 C1456 1.367 . S
C1457 C1459 1.433 . S
C1458 C1454 1.350 . S
C1458 C1455 1.463 . S
C1458 N1462 1.427 . S
C1459 H1449 0.929 . S
C1459 C1457 1.433 . S
C1459 N1462 1.384 . S
C1460 H1451 0.929 . S
C1460 C1452 1.378 . S
C1460 C1455 1.350 . S
C1461 H1448 0.929 . S
C1461 C1453 1.433 . S
C1461 N1463 1.384 . S
N1462 C1458 1.427 . S
N1462 C1459 1.384 . S
N1463 C1455 1.427 . S
N1463 C1461 1.384 . S
H1464 C1470 0.930 . S
H1465 C1474 0.930 . S
H1466 C1479 0.929 . S
H1467 C1477 0.929 . S
H1468 C1472 0.929 . S
H1469 C1478 0.929 . S
C1470 H1464 0.930 . S
C1470 C1471 1.367 . S
C1470 C1478 1.378 . S
C1471 C1470 1.367 . S
C1471 C1479 1.433 . S
C1472 H1468 0.929 . S
C1472 C1474 1.378 . S
C1472 C1476 1.350 . S
C1473 C1476 1.463 . S
C1473 C1478 1.350 . S
C1473 N1481 1.427 . S
C1474 H1465 0.930 . S
C1474 C1472 1.378 . S
C1474 C1475 1.367 . S
C1475 C1474 1.367 . S
C1475 C1477 1.433 . S
C1476 C1472 1.350 . S
C1476 C1473 1.463 . S
C1476 N1480 1.427 . S
C1477 H1467 0.929 . S
C1477 C1475 1.433 . S
C1477 N1480 1.384 . S
C1478 H1469 0.929 . S
C1478 C1470 1.378 . S
C1478 C1473 1.350 . S
C1479 H1466 0.929 . S
C1479 C1471 1.433 . S
C1479 N1481 1.384 . S
N1480 C1476 1.427 . S
N1480 C1477 1.384 . S
N1481 C1473 1.427 . S
N1481 C1479 1.384 . S
H1482 C1488 0.930 . S
H1483 C1492 0.930 . S
H1484 C1497 0.929 . S
H1485 C1495 0.929 . S
H1486 C1490 0.929 . S
H1487 C1496 0.929 . S
C1488 H1482 0.930 . S
C1488 C1489 1.367 . S
C1488 C1496 1.378 . S
C1489 C1488 1.367 . S
C1489 C1497 1.433 . S
C1490 H1486 0.929 . S
C1490 C1492 1.378 . S
C1490 C1494 1.350 . S
C1491 C1494 1.463 . S
C1491 C1496 1.350 . S
C1491 N1499 1.427 . S
C1492 H1483 0.930 . S
C1492 C1490 1.378 . S
C1492 C1493 1.367 . S
C1493 C1492 1.367 . S
C1493 C1495 1.433 . S
C1494 C1490 1.350 . S
C1494 C1491 1.463 . S
C1494 N1498 1.427 . S
C1495 H1485 0.929 . S
C1495 C1493 1.433 . S
C1495 N1498 1.384 . S
C1496 H1487 0.929 . S
C1496 C1488 1.378 . S
C1496 C1491 1.350 . S
C1497 H1484 0.929 . S
C1497 C1489 1.433 . S
C1497 N1499 1.384 . S
N1498 C1494 1.427 . S
N1498 C1495 1.384 . S
N1499 C1491 1.427 . S
N1499 C1497 1.384 . S
H1500 C1506 0.930 . S
H1501 C1510 0.930 . S
H1502 C1515 0.929 . S
H1503 C1513 0.929 . S
H1504 C1508 0.929 . S
H1505 C1514 0.929 . S
C1506 H1500 0.930 . S
C1506 C1507 1.367 . S
C1506 C1514 1.378 . S
C1507 C1506 1.367 . S
C1507 C1515 1.433 . S
C1508 H1504 0.929 . S
C1508 C1510 1.378 . S
C1508 C1512 1.350 . S
C1509 C1512 1.463 . S
C1509 C1514 1.350 . S
C1509 N1517 1.427 . S
C1510 H1501 0.930 . S
C1510 C1508 1.378 . S
C1510 C1511 1.367 . S
C1511 C1510 1.367 . S
C1511 C1513 1.433 . S
C1512 C1508 1.350 . S
C1512 C1509 1.463 . S
C1512 N1516 1.427 . S
C1513 H1503 0.929 . S
C1513 C1511 1.433 . S
C1513 N1516 1.384 . S
C1514 H1505 0.929 . S
C1514 C1506 1.378 . S
C1514 C1509 1.350 . S
C1515 H1502 0.929 . S
C1515 C1507 1.433 . S
C1515 N1517 1.384 . S
N1516 C1512 1.427 . S
N1516 C1513 1.384 . S
N1517 C1509 1.427 . S
N1517 C1515 1.384 . S
H1518 C1524 0.930 . S
H1519 C1528 0.930 . S
H1520 C1533 0.929 . S
H1521 C1531 0.929 . S
H1522 C1526 0.929 . S
H1523 C1532 0.929 . S
C1524 H1518 0.930 . S
C1524 C1525 1.367 . S
C1524 C1532 1.378 . S
C1525 C1524 1.367 . S
C1525 C1533 1.433 . S
C1526 H1522 0.929 . S
C1526 C1528 1.378 . S
C1526 C1530 1.350 . S
C1527 C1530 1.463 . S
C1527 C1532 1.350 . S
C1527 N1535 1.427 . S
C1528 H1519 0.930 . S
C1528 C1526 1.378 . S
C1528 C1529 1.367 . S
C1529 C1528 1.367 . S
C1529 C1531 1.433 . S
C1530 C1526 1.350 . S
C1530 C1527 1.463 . S
C1530 N1534 1.427 . S
C1531 H1521 0.929 . S
C1531 C1529 1.433 . S
C1531 N1534 1.384 . S
C1532 H1523 0.929 . S
C1532 C1524 1.378 . S
C1532 C1527 1.350 . S
C1533 H1520 0.929 . S
C1533 C1525 1.433 . S
C1533 N1535 1.384 . S
N1534 C1530 1.427 . S
N1534 C1531 1.384 . S
N1535 C1527 1.427 . S
N1535 C1533 1.384 . S
H1536 C1542 0.930 . S
H1537 C1546 0.930 . S
H1538 C1551 0.929 . S
H1539 C1549 0.929 . S
H1540 C1544 0.929 . S
H1541 C1550 0.929 . S
C1542 H1536 0.930 . S
C1542 C1543 1.367 . S
C1542 C1550 1.378 . S
C1543 C1542 1.367 . S
C1543 C1551 1.433 . S
C1544 H1540 0.929 . S
C1544 C1546 1.378 . S
C1544 C1548 1.350 . S
C1545 C1548 1.463 . S
C1545 C1550 1.350 . S
C1545 N1553 1.427 . S
C1546 H1537 0.930 . S
C1546 C1544 1.378 . S
C1546 C1547 1.367 . S
C1547 C1546 1.367 . S
C1547 C1549 1.433 . S
C1548 C1544 1.350 . S
C1548 C1545 1.463 . S
C1548 N1552 1.427 . S
C1549 H1539 0.929 . S
C1549 C1547 1.433 . S
C1549 N1552 1.384 . S
C1550 H1541 0.929 . S
C1550 C1542 1.378 . S
C1550 C1545 1.350 . S
C1551 H1538 0.929 . S
C1551 C1543 1.433 . S
C1551 N1553 1.384 . S
N1552 C1548 1.427 . S
N1552 C1549 1.384 . S
N1553 C1545 1.427 . S
N1553 C1551 1.384 . S
H1554 C1560 0.930 . S
H1555 C1564 0.930 . S
H1556 C1569 0.929 . S
H1557 C1567 0.929 . S
H1558 C1562 0.929 . S
H1559 C1568 0.929 . S
C1560 H1554 0.930 . S
C1560 C1561 1.367 . S
C1560 C1568 1.378 . S
C1561 C1560 1.367 . S
C1561 C1569 1.433 . S
C1562 H1558 0.929 . S
C1562 C1564 1.378 . S
C1562 C1566 1.350 . S
C1563 C1566 1.463 . S
C1563 C1568 1.350 . S
C1563 N1571 1.427 . S
C1564 H1555 0.930 . S
C1564 C1562 1.378 . S
C1564 C1565 1.367 . S
C1565 C1564 1.367 . S
C1565 C1567 1.433 . S
C1566 C1562 1.350 . S
C1566 C1563 1.463 . S
C1566 N1570 1.427 . S
C1567 H1557 0.929 . S
C1567 C1565 1.433 . S
C1567 N1570 1.384 . S
C1568 H1559 0.929 . S
C1568 C1560 1.378 . S
C1568 C1563 1.350 . S
C1569 H1556 0.929 . S
C1569 C1561 1.433 . S
C1569 N1571 1.384 . S
N1570 C1566 1.427 . S
N1570 C1567 1.384 . S
N1571 C1563 1.427 . S
N1571 C1569 1.384 . S
H1572 C1578 0.930 . S
H1573 C1582 0.930 . S
H1574 C1587 0.929 . S
H1575 C1585 0.929 . S
H1576 C1580 0.929 . S
H1577 C1586 0.929 . S
C1578 H1572 0.930 . S
C1578 C1579 1.367 . S
C1578 C1586 1.378 . S
C1579 C1578 1.367 . S
C1579 C1587 1.433 . S
C1580 H1576 0.929 . S
C1580 C1582 1.378 . S
C1580 C1584 1.350 . S
C1581 C1584 1.463 . S
C1581 C1586 1.350 . S
C1581 N1589 1.427 . S
C1582 H1573 0.930 . S
C1582 C1580 1.378 . S
C1582 C1583 1.367 . S
C1583 C1582 1.367 . S
C1583 C1585 1.433 . S
C1584 C1580 1.350 . S
C1584 C1581 1.463 . S
C1584 N1588 1.427 . S
C1585 H1575 0.929 . S
C1585 C1583 1.433 . S
C1585 N1588 1.384 . S
C1586 H1577 0.929 . S
C1586 C1578 1.378 . S
C1586 C1581 1.350 . S
C1587 H1574 0.929 . S
C1587 C1579 1.433 . S
C1587 N1589 1.384 . S
N1588 C1584 1.427 . S
N1588 C1585 1.384 . S
N1589 C1581 1.427 . S
N1589 C1587 1.384 . S
H1590 C1596 0.930 . S
H1591 C1600 0.930 . S
H1592 C1605 0.929 . S
H1593 C1603 0.929 . S
H1594 C1598 0.929 . S
H1595 C1604 0.929 . S
C1596 H1590 0.930 . S
C1596 C1597 1.367 . S
C1596 C1604 1.378 . S
C1597 C1596 1.367 . S
C1597 C1605 1.433 . S
C1598 H1594 0.929 . S
C1598 C1600 1.378 . S
C1598 C1602 1.350 . S
C1599 C1602 1.463 . S
C1599 C1604 1.350 . S
C1599 N1607 1.427 . S
C1600 H1591 0.930 . S
C1600 C1598 1.378 . S
C1600 C1601 1.367 . S
C1601 C1600 1.367 . S
C1601 C1603 1.433 . S
C1602 C1598 1.350 . S
C1602 C1599 1.463 . S
C1602 N1606 1.427 . S
C1603 H1593 0.929 . S
C1603 C1601 1.433 . S
C1603 N1606 1.384 . S
C1604 H1595 0.929 . S
C1604 C1596 1.378 . S
C1604 C1599 1.350 . S
C1605 H1592 0.929 . S
C1605 C1597 1.433 . S
C1605 N1607 1.384 . S
N1606 C1602 1.427 . S
N1606 C1603 1.384 . S
N1607 C1599 1.427 . S
N1607 C1605 1.384 . S
H1608 C1614 0.930 . S
H1609 C1618 0.930 . S
H1610 C1623 0.929 . S
H1611 C1621 0.929 . S
H1612 C1616 0.929 . S
H1613 C1622 0.929 . S
C1614 H1608 0.930 . S
C1614 C1615 1.367 . S
C1614 C1622 1.378 . S
C1615 C1614 1.367 . S
C1615 C1623 1.433 . S
C1616 H1612 0.929 . S
C1616 C1618 1.378 . S
C1616 C1620 1.350 . S
C1617 C1620 1.463 . S
C1617 C1622 1.350 . S
C1617 N1625 1.427 . S
C1618 H1609 0.930 . S
C1618 C1616 1.378 . S
C1618 C1619 1.367 . S
C1619 C1618 1.367 . S
C1619 C1621 1.433 . S
C1620 C1616 1.350 . S
C1620 C1617 1.463 . S
C1620 N1624 1.427 . S
C1621 H1611 0.929 . S
C1621 C1619 1.433 . S
C1621 N1624 1.384 . S
C1622 H1613 0.929 . S
C1622 C1614 1.378 . S
C1622 C1617 1.350 . S
C1623 H1610 0.929 . S
C1623 C1615 1.433 . S
C1623 N1625 1.384 . S
N1624 C1620 1.427 . S
N1624 C1621 1.384 . S
N1625 C1617 1.427 . S
N1625 C1623 1.384 . S
H1626 C1632 0.930 . S
H1627 C1636 0.930 . S
H1628 C1641 0.929 . S
H1629 C1639 0.929 . S
H1630 C1634 0.929 . S
H1631 C1640 0.929 . S
C1632 H1626 0.930 . S
C1632 C1633 1.367 . S
C1632 C1640 1.378 . S
C1633 C1632 1.367 . S
C1633 C1641 1.433 . S
C1634 H1630 0.929 . S
C1634 C1636 1.378 . S
C1634 C1638 1.350 . S
C1635 C1638 1.463 . S
C1635 C1640 1.350 . S
C1635 N1643 1.427 . S
C1636 H1627 0.930 . S
C1636 C1634 1.378 . S
C1636 C1637 1.367 . S
C1637 C1636 1.367 . S
C1637 C1639 1.433 . S
C1638 C1634 1.350 . S
C1638 C1635 1.463 . S
C1638 N1642 1.427 . S
C1639 H1629 0.929 . S
C1639 C1637 1.433 . S
C1639 N1642 1.384 . S
C1640 H1631 0.929 . S
C1640 C1632 1.378 . S
C1640 C1635 1.350 . S
C1641 H1628 0.929 . S
C1641 C1633 1.433 . S
C1641 N1643 1.384 . S
N1642 C1638 1.427 . S
N1642 C1639 1.384 . S
N1643 C1635 1.427 . S
N1643 C1641 1.384 . S
H1644 C1650 0.930 . S
H1645 C1654 0.930 . S
H1646 C1659 0.929 . S
H1647 C1657 0.929 . S
H1648 C1652 0.929 . S
H1649 C1658 0.929 . S
C1650 H1644 0.930 . S
C1650 C1651 1.367 . S
C1650 C1658 1.378 . S
C1651 C1650 1.367 . S
C1651 C1659 1.433 . S
C1652 H1648 0.929 . S
C1652 C1654 1.378 . S
C1652 C1656 1.350 . S
C1653 C1656 1.463 . S
C1653 C1658 1.350 . S
C1653 N1661 1.427 . S
C1654 H1645 0.930 . S
C1654 C1652 1.378 . S
C1654 C1655 1.367 . S
C1655 C1654 1.367 . S
C1655 C1657 1.433 . S
C1656 C1652 1.350 . S
C1656 C1653 1.463 . S
C1656 N1660 1.427 . S
C1657 H1647 0.929 . S
C1657 C1655 1.433 . S
C1657 N1660 1.384 . S
C1658 H1649 0.929 . S
C1658 C1650 1.378 . S
C1658 C1653 1.350 . S
C1659 H1646 0.929 . S
C1659 C1651 1.433 . S
C1659 N1661 1.384 . S
N1660 C1656 1.427 . S
N1660 C1657 1.384 . S
N1661 C1653 1.427 . S
N1661 C1659 1.384 . S
H1662 C1668 0.930 . S
H1663 C1672 0.930 . S
H1664 C1677 0.929 . S
H1665 C1675 0.929 . S
H1666 C1670 0.929 . S
H1667 C1676 0.929 . S
C1668 H1662 0.930 . S
C1668 C1669 1.367 . S
C1668 C1676 1.378 . S
C1669 C1668 1.367 . S
C1669 C1677 1.433 . S
C1670 H1666 0.929 . S
C1670 C1672 1.378 . S
C1670 C1674 1.350 . S
C1671 C1674 1.463 . S
C1671 C1676 1.350 . S
C1671 N1679 1.427 . S
C1672 H1663 0.930 . S
C1672 C1670 1.378 . S
C1672 C1673 1.367 . S
C1673 C1672 1.367 . S
C1673 C1675 1.433 . S
C1674 C1670 1.350 . S
C1674 C1671 1.463 . S
C1674 N1678 1.427 . S
C1675 H1665 0.929 . S
C1675 C1673 1.433 . S
C1675 N1678 1.384 . S
C1676 H1667 0.929 . S
C1676 C1668 1.378 . S
C1676 C1671 1.350 . S
C1677 H1664 0.929 . S
C1677 C1669 1.433 . S
C1677 N1679 1.384 . S
N1678 C1674 1.427 . S
N1678 C1675 1.384 . S
N1679 C1671 1.427 . S
N1679 C1677 1.384 . S
H1680 C1686 0.930 . S
H1681 C1690 0.930 . S
H1682 C1695 0.929 . S
H1683 C1693 0.929 . S
H1684 C1688 0.929 . S
H1685 C1694 0.929 . S
C1686 H1680 0.930 . S
C1686 C1687 1.367 1_655 S
C1686 C1694 1.378 . S
C1687 C1686 1.367 1_455 S
C1687 C1695 1.433 . S
C1688 H1684 0.929 . S
C1688 C1690 1.378 . S
C1688 C1692 1.350 . S
C1689 C1692 1.463 . S
C1689 C1694 1.350 1_455 S
C1689 N1697 1.427 . S
C1690 H1681 0.930 . S
C1690 C1688 1.378 . S
C1690 C1691 1.367 . S
C1691 C1690 1.367 . S
C1691 C1693 1.433 1_455 S
C1692 C1688 1.350 . S
C1692 C1689 1.463 . S
C1692 N1696 1.427 1_455 S
C1693 H1683 0.929 . S
C1693 C1691 1.433 1_655 S
C1693 N1696 1.384 . S
C1694 H1685 0.929 . S
C1694 C1686 1.378 . S
C1694 C1689 1.350 1_655 S
C1695 H1682 0.929 . S
C1695 C1687 1.433 . S
C1695 N1697 1.384 . S
N1696 C1692 1.427 1_655 S
N1696 C1693 1.384 . S
N1697 C1689 1.427 . S
N1697 C1695 1.384 . S
H1698 C1704 0.930 . S
H1699 C1708 0.930 . S
H1700 C1713 0.929 . S
H1701 C1711 0.929 . S
H1702 C1706 0.929 . S
H1703 C1712 0.929 . S
C1704 H1698 0.930 . S
C1704 C1705 1.367 . S
C1704 C1712 1.378 . S
C1705 C1704 1.367 . S
C1705 C1713 1.433 1_455 S
C1706 H1702 0.929 . S
C1706 C1708 1.378 . S
C1706 C1710 1.350 1_655 S
C1707 C1710 1.463 . S
C1707 C1712 1.350 . S
C1707 N1715 1.427 1_455 S
C1708 H1699 0.930 . S
C1708 C1706 1.378 . S
C1708 C1709 1.367 1_655 S
C1709 C1708 1.367 1_455 S
C1709 C1711 1.433 . S
C1710 C1706 1.350 1_455 S
C1710 C1707 1.463 . S
C1710 N1714 1.427 . S
C1711 H1701 0.929 . S
C1711 C1709 1.433 . S
C1711 N1714 1.384 . S
C1712 H1703 0.929 . S
C1712 C1704 1.378 . S
C1712 C1707 1.350 . S
C1713 H1700 0.929 . S
C1713 C1705 1.433 1_655 S
C1713 N1715 1.384 . S
N1714 C1710 1.427 . S
N1714 C1711 1.384 . S
N1715 C1707 1.427 1_655 S
N1715 C1713 1.384 . S
H1716 C1722 0.930 . S
H1717 C1726 0.930 . S
H1718 C1731 0.929 1_565 S
H1719 C1729 0.929 . S
H1720 C1724 0.929 . S
H1721 C1730 0.929 . S
C1722 H1716 0.930 . S
C1722 C1723 1.367 . S
C1722 C1730 1.378 . S
C1723 C1722 1.367 . S
C1723 C1731 1.433 . S
C1724 H1720 0.929 . S
C1724 C1726 1.378 . S
C1724 C1728 1.350 1_565 S
C1725 C1728 1.463 . S
C1725 C1730 1.350 . S
C1725 N1733 1.404 1_545 S
C1726 H1717 0.930 . S
C1726 C1724 1.378 . S
C1726 C1727 1.367 1_565 S
C1727 C1726 1.367 1_545 S
C1727 C1729 1.433 . S
C1728 C1724 1.350 1_545 S
C1728 C1725 1.463 . S
C1728 N1732 1.427 . S
C1729 H1719 0.929 . S
C1729 C1727 1.433 . S
C1729 N1732 1.384 . S
C1730 H1721 0.929 . S
C1730 C1722 1.378 . S
C1730 C1725 1.350 . S
C1731 H1718 0.929 1_545 S
C1731 C1723 1.433 . S
C1731 N1733 1.379 1_545 S
N1732 C1728 1.427 . S
N1732 C1729 1.384 . S
N1733 C1725 1.404 1_565 S
N1733 C1731 1.379 1_565 S
H1734 C1740 0.930 . S
H1735 C1744 0.930 . S
H1736 C1749 0.929 . S
H1737 C1747 0.929 . S
H1738 C1742 0.929 . S
H1739 C1748 0.929 . S
C1740 H1734 0.930 . S
C1740 C1741 1.367 1_565 S
C1740 C1748 1.378 . S
C1741 C1740 1.367 1_545 S
C1741 C1749 1.433 . S
C1742 H1738 0.929 . S
C1742 C1744 1.378 . S
C1742 C1746 1.350 . S
C1743 C1746 1.463 . S
C1743 C1748 1.350 1_545 S
C1743 N1751 1.427 . S
C1744 H1735 0.930 . S
C1744 C1742 1.378 . S
C1744 C1745 1.367 . S
C1745 C1744 1.367 . S
C1745 C1747 1.433 1_545 S
C1746 C1742 1.350 . S
C1746 C1743 1.463 . S
C1746 N1750 1.427 1_545 S
C1747 H1737 0.929 . S
C1747 C1745 1.433 1_565 S
C1747 N1750 1.384 . S
C1748 H1739 0.929 . S
C1748 C1740 1.378 . S
C1748 C1743 1.350 1_565 S
C1749 H1736 0.929 . S
C1749 C1741 1.433 . S
C1749 N1751 1.384 . S
N1750 C1746 1.427 1_565 S
N1750 C1747 1.384 . S
N1751 C1743 1.427 . S
N1751 C1749 1.384 . S
H1752 C1758 0.930 . S
H1753 C1762 0.930 . S
H1754 C1767 0.929 . S
H1755 C1765 0.929 . S
H1756 C1760 0.936 . S
H1757 C1766 0.929 . S
C1758 H1752 0.930 . S
C1758 C1759 1.367 . S
C1758 C1766 1.378 . S
C1759 C1758 1.367 . S
C1759 C1767 1.433 . S
C1760 H1756 0.936 . S
C1760 C1762 1.382 . S
C1760 C1764 1.340 1_556 S
C1761 C1764 1.463 . S
C1761 C1766 1.350 . S
C1761 N1769 1.427 . S
C1762 H1753 0.930 . S
C1762 C1760 1.382 . S
C1762 C1763 1.367 1_556 S
C1763 C1762 1.367 1_554 S
C1763 C1765 1.433 . S
C1764 C1760 1.340 1_554 S
C1764 C1761 1.463 . S
C1764 N1768 1.427 . S
C1765 H1755 0.929 . S
C1765 C1763 1.433 . S
C1765 N1768 1.384 . S
C1766 H1757 0.929 . S
C1766 C1758 1.378 . S
C1766 C1761 1.350 . S
C1767 H1754 0.929 . S
C1767 C1759 1.433 . S
C1767 N1769 1.384 . S
N1768 C1764 1.427 . S
N1768 C1765 1.384 . S
N1769 C1761 1.427 . S
N1769 C1767 1.384 . S
H1770 C1776 0.930 . S
H1771 C1780 0.930 . S
H1772 C1785 0.929 . S
H1773 C1783 0.929 . S
H1774 C1778 0.929 . S
H1775 C1784 0.929 . S
C1776 H1770 0.930 . S
C1776 C1777 1.367 1_556 S
C1776 C1784 1.378 . S
C1777 C1776 1.367 1_554 S
C1777 C1785 1.433 . S
C1778 H1774 0.929 . S
C1778 C1780 1.378 . S
C1778 C1782 1.350 . S
C1779 C1782 1.463 . S
C1779 C1784 1.350 1_554 S
C1779 N1787 1.427 . S
C1780 H1771 0.930 . S
C1780 C1778 1.378 . S
C1780 C1781 1.367 . S
C1781 C1780 1.367 . S
C1781 C1783 1.433 1_554 S
C1782 C1778 1.350 . S
C1782 C1779 1.463 . S
C1782 N1786 1.427 1_554 S
C1783 H1773 0.929 . S
C1783 C1781 1.433 1_556 S
C1783 N1786 1.384 . S
C1784 H1775 0.929 . S
C1784 C1776 1.378 . S
C1784 C1779 1.350 1_556 S
C1785 H1772 0.929 . S
C1785 C1777 1.433 . S
C1785 N1787 1.384 . S
N1786 C1782 1.427 1_556 S
N1786 C1783 1.384 . S
N1787 C1779 1.427 . S
N1787 C1785 1.384 . S
H1788 C1794 0.930 . S
H1789 C1798 0.930 . S
H1790 C1803 0.929 . S
H1791 C1801 0.929 . S
H1792 C1796 0.929 . S
H1793 C1802 0.929 . S
C1794 H1788 0.930 . S
C1794 C1795 1.367 . S
C1794 C1802 1.378 . S
C1795 C1794 1.367 . S
C1795 C1803 1.433 . S
C1796 H1792 0.929 . S
C1796 C1798 1.378 . S
C1796 C1800 1.350 . S
C1797 C1800 1.463 1_545 S
C1797 C1802 1.350 . S
C1797 N1805 1.427 . S
C1798 H1789 0.930 . S
C1798 C1796 1.378 . S
C1798 C1799 1.367 . S
C1799 C1798 1.367 . S
C1799 C1801 1.433 . S
C1800 C1796 1.350 . S
C1800 C1797 1.463 1_565 S
C1800 N1804 1.427 . S
C1801 H1791 0.929 . S
C1801 C1799 1.433 . S
C1801 N1804 1.384 . S
C1802 H1793 0.929 . S
C1802 C1794 1.378 . S
C1802 C1797 1.350 . S
C1803 H1790 0.929 . S
C1803 C1795 1.433 . S
C1803 N1805 1.384 . S
N1804 C1800 1.427 . S
N1804 C1801 1.384 . S
N1805 C1797 1.427 . S
N1805 C1803 1.384 . S
H1806 C1812 0.930 . S
H1807 C1816 0.930 . S
H1808 C1821 0.929 . S
H1809 C1819 0.929 . S
H1810 C1814 0.929 . S
H1811 C1820 0.929 . S
C1812 H1806 0.930 . S
C1812 C1813 1.367 . S
C1812 C1820 1.378 . S
C1813 C1812 1.367 . S
C1813 C1821 1.433 . S
C1814 H1810 0.929 . S
C1814 C1816 1.378 . S
C1814 C1818 1.350 . S
C1815 C1818 1.463 1_565 S
C1815 C1820 1.350 . S
C1815 N1823 1.427 . S
C1816 H1807 0.930 . S
C1816 C1814 1.378 . S
C1816 C1817 1.367 . S
C1817 C1816 1.367 . S
C1817 C1819 1.433 . S
C1818 C1814 1.350 . S
C1818 C1815 1.463 1_545 S
C1818 N1822 1.427 . S
C1819 H1809 0.929 . S
C1819 C1817 1.433 . S
C1819 N1822 1.384 . S
C1820 H1811 0.929 . S
C1820 C1812 1.378 . S
C1820 C1815 1.350 . S
C1821 H1808 0.929 . S
C1821 C1813 1.433 . S
C1821 N1823 1.384 . S
N1822 C1818 1.427 . S
N1822 C1819 1.384 . S
N1823 C1815 1.427 . S
N1823 C1821 1.384 . S
H1824 C1830 0.930 . S
H1825 C1834 0.930 . S
H1826 C1839 0.929 . S
H1827 C1837 0.929 . S
H1828 C1832 0.929 . S
H1829 C1838 0.929 . S
C1830 H1824 0.930 . S
C1830 C1831 1.367 . S
C1830 C1838 1.378 . S
C1831 C1830 1.367 . S
C1831 C1839 1.433 . S
C1832 H1828 0.929 . S
C1832 C1834 1.378 . S
C1832 C1836 1.350 . S
C1833 C1836 1.463 1_554 S
C1833 C1838 1.350 . S
C1833 N1841 1.427 . S
C1834 H1825 0.930 . S
C1834 C1832 1.378 . S
C1834 C1835 1.367 . S
C1835 C1834 1.367 . S
C1835 C1837 1.433 . S
C1836 C1832 1.350 . S
C1836 C1833 1.463 1_556 S
C1836 N1840 1.427 . S
C1837 H1827 0.929 . S
C1837 C1835 1.433 . S
C1837 N1840 1.384 . S
C1838 H1829 0.929 . S
C1838 C1830 1.378 . S
C1838 C1833 1.350 . S
C1839 H1826 0.929 . S
C1839 C1831 1.433 . S
C1839 N1841 1.384 . S
N1840 C1836 1.427 . S
N1840 C1837 1.384 . S
N1841 C1833 1.427 . S
N1841 C1839 1.384 . S
H1842 C1848 0.930 . S
H1843 C1852 0.930 . S
H1844 C1857 0.929 . S
H1845 C1855 0.929 . S
H1846 C1850 0.929 . S
H1847 C1856 0.929 . S
C1848 H1842 0.930 . S
C1848 C1849 1.367 . S
C1848 C1856 1.378 . S
C1849 C1848 1.367 . S
C1849 C1857 1.433 . S
C1850 H1846 0.929 . S
C1850 C1852 1.378 . S
C1850 C1854 1.350 . S
C1851 C1854 1.463 1_556 S
C1851 C1856 1.350 . S
C1851 N1859 1.427 . S
C1852 H1843 0.930 . S
C1852 C1850 1.378 . S
C1852 C1853 1.367 . S
C1853 C1852 1.367 . S
C1853 C1855 1.433 . S
C1854 C1850 1.350 . S
C1854 C1851 1.463 1_554 S
C1854 N1858 1.427 . S
C1855 H1845 0.929 . S
C1855 C1853 1.433 . S
C1855 N1858 1.384 . S
C1856 H1847 0.929 . S
C1856 C1848 1.378 . S
C1856 C1851 1.350 . S
C1857 H1844 0.929 . S
C1857 C1849 1.433 . S
C1857 N1859 1.384 . S
N1858 C1854 1.427 . S
N1858 C1855 1.384 . S
N1859 C1851 1.427 . S
N1859 C1857 1.384 . S
H1860 C1866 0.930 . S
H1861 C1870 0.930 . S
H1862 C1875 0.929 . S
H1863 C1873 0.929 . S
H1864 C1868 0.929 . S
H1865 C1874 0.929 . S
C1866 H1860 0.930 . S
C1866 C1867 1.367 . S
C1866 C1874 1.378 . S
C1867 C1866 1.367 . S
C1867 C1875 1.433 . S
C1868 H1864 0.929 . S
C1868 C1870 1.378 . S
C1868 C1872 1.350 . S
C1869 C1872 1.463 1_655 S
C1869 C1874 1.350 . S
C1869 N1877 1.427 . S
C1870 H1861 0.930 . S
C1870 C1868 1.378 . S
C1870 C1871 1.367 . S
C1871 C1870 1.367 . S
C1871 C1873 1.433 . S
C1872 C1868 1.350 . S
C1872 C1869 1.463 1_455 S
C1872 N1876 1.427 . S
C1873 H1863 0.929 . S
C1873 C1871 1.433 . S
C1873 N1876 1.384 . S
C1874 H1865 0.929 . S
C1874 C1866 1.378 . S
C1874 C1869 1.350 . S
C1875 H1862 0.929 . S
C1875 C1867 1.433 . S
C1875 N1877 1.384 . S
N1876 C1872 1.427 . S
N1876 C1873 1.384 . S
N1877 C1869 1.427 . S
N1877 C1875 1.384 . S
H1878 C1884 0.930 . S
H1879 C1888 0.930 . S
H1880 C1893 0.929 . S
H1881 C1891 0.929 . S
H1882 C1886 0.929 . S
H1883 C1892 0.929 . S
C1884 H1878 0.930 . S
C1884 C1885 1.367 . S
C1884 C1892 1.378 . S
C1885 C1884 1.367 . S
C1885 C1893 1.433 . S
C1886 H1882 0.929 . S
C1886 C1888 1.378 . S
C1886 C1890 1.350 . S
C1887 C1890 1.463 1_455 S
C1887 C1892 1.350 . S
C1887 N1895 1.427 . S
C1888 H1879 0.930 . S
C1888 C1886 1.378 . S
C1888 C1889 1.367 . S
C1889 C1888 1.367 . S
C1889 C1891 1.433 . S
C1890 C1886 1.350 . S
C1890 C1887 1.463 1_655 S
C1890 N1894 1.427 . S
C1891 H1881 0.929 . S
C1891 C1889 1.433 . S
C1891 N1894 1.384 . S
C1892 H1883 0.929 . S
C1892 C1884 1.378 . S
C1892 C1887 1.350 . S
C1893 H1880 0.929 . S
C1893 C1885 1.433 . S
C1893 N1895 1.384 . S
N1894 C1890 1.427 . S
N1894 C1891 1.384 . S
N1895 C1887 1.427 . S
N1895 C1893 1.384 . S
C823 C9 0.651 . S
C827 C787 0.601 . S
C841 C43 0.703 . S
C845 C685 0.624 . S
C859 C77 0.651 . S
C863 C753 0.602 . S
C877 C111 0.653 . S
C881 C719 0.601 . S
C895 C481 0.614 . S
C899 C145 0.693 . S
C913 C179 0.651 . S
C917 C515 0.603 . S
C931 C413 0.600 . S
C935 C213 0.658 . S
C949 C447 0.603 . S
C953 C247 0.671 . S
C967 C651 0.600 . S
C971 C281 0.653 . S
C985 C315 0.675 . S
C989 C583 0.620 . S
C1003 C549 0.611 . S
C1007 C349 0.690 . S
C1021 C383 0.703 . S
C1025 C617 0.624 . S
C1039 C88 2.194 . S
C1043 C682 2.136 . S
C1057 C122 2.191 . S
C1061 C784 2.123 . S
C1075 C716 2.136 . S
C1079 C20 2.195 . S
C1093 C750 2.131 . S
C1097 C54 2.188 . S
C1111 C410 2.127 . S
C1115 C258 2.189 . S
C1129 C444 2.127 . S
C1133 C224 2.188 . S
C1147 C478 2.126 . S
C1151 C190 2.193 . S
C1165 C156 2.197 . S
C1169 C512 2.132 . S
C1183 C394 2.195 . S
C1187 C546 2.136 . S
C1201 C614 2.136 . S
C1205 C360 2.191 . S
C1219 C326 2.194 . S
C1223 C648 2.124 . S
C1237 C580 2.134 . S
C1241 C292 2.190 . S
C1255 C417 0.702 . S
C1259 C379 0.622 . S
C1273 C277 0.608 . S
C1277 C451 0.683 . S
C1291 C345 0.621 . S
C1295 C485 0.680 . S
C1309 C311 0.602 . S
C1313 C519 0.668 . S
C1327 C73 0.612 . S
C1331 C553 0.690 . S
C1345 C107 0.624 . S
C1349 C587 0.689 . S
C1363 C5 0.601 . S
C1367 C621 0.661 . S
C1381 C655 0.653 . S
C1385 C39 0.604 . S
C1399 C689 0.676 . S
C1403 C243 0.605 . S
C1417 C723 0.684 . S
C1421 C175 0.607 . S
C1435 C141 0.624 . S
C1439 C757 0.703 . S
C1453 C791 0.671 . S
C1457 C209 0.602 . S
C1471 C274 2.125 . S
C1475 C496 2.194 . S
C1489 C376 2.124 . S
C1493 C530 2.192 . S
C1507 C308 2.134 . S
C1511 C428 2.192 . S
C1525 C462 2.193 . S
C1529 C342 2.138 . S
C1543 C2 2.133 . S
C1547 C666 2.197 . S
C1561 C36 2.135 . S
C1565 C632 2.198 . S
C1579 C70 2.125 . S
C1583 C598 2.194 . S
C1597 C564 2.197 . S
C1601 C104 2.134 . S
C1615 C802 2.192 . S
C1619 C138 2.136 . S
C1633 C768 2.190 . S
C1637 C206 2.135 . S
C1651 C240 2.125 . S
C1655 C734 2.194 . S
C1669 C700 2.194 . S
C1673 C172 2.127 . S
C1687 C33 1.505 . S
C1691 C67 1.501 1_455 S
C1705 C101 1.506 . S
C1709 C135 1.502 1_455 S
C1723 C169 1.502 . S
C1727 C237 1.506 1_545 S
C1741 C271 1.505 . S
C1745 C203 1.501 1_545 S
C1759 C305 1.507 . S
C1763 C373 1.501 1_554 S
C1777 C407 1.502 . S
C1781 C339 1.504 1_554 S
C1795 C475 1.507 . S
C1799 C441 1.501 . S
C1813 C543 1.501 . S
C1817 C509 1.506 . S
C1831 C645 1.507 . S
C1835 C577 1.502 . S
C1849 C611 1.504 . S
C1853 C679 1.503 . S
C1867 C713 1.502 . S
C1871 C781 1.506 . S
C1885 C815 1.507 . S
C1889 C747 1.502 . S
