# Generated by pormake.
# Topology unc, (4)-cn, num edge types: 1
# Building blocks:
#     Node 0, Type 0, BuildingBlock: QUQFOY_clean_sbu_3, # of connection points: 4
#     Node 1, Type 0, BuildingBlock: QUQFOY_clean_sbu_3, # of connection points: 4
#     Node 2, Type 0, BuildingBlock: QUQFOY_clean_sbu_3, # of connection points: 4
#     Node 3, Type 0, BuildingBlock: QUQFOY_clean_sbu_3, # of connection points: 4
#     Edge 4, Type (0, 0), BuildingBlock: FUNLAD_clean_linker_1, # of connection points: 2
#     Edge 5, Type (0, 0), BuildingBlock: FUNLAD_clean_linker_1, # of connection points: 2
#     Edge 6, Type (0, 0), BuildingBlock: FUNLAD_clean_linker_1, # of connection points: 2
#     Edge 7, Type (0, 0), BuildingBlock: FUNLAD_clean_linker_1, # of connection points: 2
#     Edge 8, Type (0, 0), BuildingBlock: FUNLAD_clean_linker_1, # of connection points: 2
#     Edge 9, Type (0, 0), BuildingBlock: FUNLAD_clean_linker_1, # of connection points: 2
#     Edge 10, Type (0, 0), BuildingBlock: FUNLAD_clean_linker_1, # of connection points: 2
#     Edge 11, Type (0, 0), BuildingBlock: FUNLAD_clean_linker_1, # of connection points: 2
# Relax obj value: 0.006
# Max RMSD: 0.046
# Mean RMSD: 0.046
data_MOF--net-unc--node1-QUQFOY_clean_sbu_3--edge1-FUNLAD_clean_linker_1
_symmetry_space_group_name_H-M    P1
_symmetry_Int_Tables_number       1
_symmetry_cell_setting            triclinic
loop_
_symmetry_equiv_pos_as_xyz
'x, y, z'
_cell_length_a     32.304036
_cell_length_b     32.051892
_cell_length_c     23.834092
_cell_angle_alpha  90.147512
_cell_angle_beta   89.609126
_cell_angle_gamma 94.845468
loop_
_atom_site_label
_atom_site_type_symbol
_atom_site_fract_x
_atom_site_fract_y
_atom_site_fract_z
_atom_type_partial_charge
C0 C 0.05704 0.62429 0.89329 0.0
O1 O 0.08916 0.62923 0.92367 0.0
Cd2 Cd 0.09013 0.66609 0.01119 0.0
O3 O 0.02418 0.64168 0.90618 0.0
Cd4 Cd 0.00067 0.68976 0.97965 0.0
C5 C 0.00549 0.61375 0.07561 0.0
O6 O 0.06518 0.7334 -0.00434 0.0
O7 O 0.0175 0.73608 0.05929 0.0
O8 O 0.96961 0.73409 0.9115 0.0
C9 C 0.05234 0.7505 0.03979 0.0
O10 O 0.04477 0.62187 0.07368 0.0
C11 C 0.9336 0.73031 0.9334 0.0
O12 O 0.98172 0.63249 0.04375 0.0
O13 O 0.92827 0.70657 0.97587 0.0
C14 C 0.38232 0.96613 0.36207 0.0
O15 O 0.3796 0.93447 0.32976 0.0
Cd16 Cd 0.34367 0.93326 0.24162 0.0
O17 O 0.36499 -0.00095 0.34971 0.0
Cd18 Cd 0.32285 0.02618 0.27431 0.0
C19 C 0.40105 0.01698 0.18178 0.0
O20 O 0.2789 0.96278 0.25404 0.0
O21 O 0.27924 0.01179 0.19179 0.0
O22 O 0.27712 0.054 0.34325 0.0
C23 C 0.26409 0.97635 0.20911 0.0
O24 O 0.38904 0.97808 0.18082 0.0
C25 C 0.28224 0.09167 0.32684 0.0
O26 O 0.38503 0.04196 0.21569 0.0
O27 O 0.30722 0.0997 0.28607 0.0
C28 C 0.96246 0.39117 0.38825 0.0
O29 O 0.9256 0.38673 0.40755 0.0
Cd30 Cd 0.90709 0.35023 0.4933 0.0
O31 O -0.00799 0.37499 0.41292 0.0
Cd32 Cd 0.00502 0.33158 0.49535 0.0
C33 C 0.97323 0.40729 0.58251 0.0
O34 O 0.9409 0.28678 0.48994 0.0
O35 O 0.97832 0.27794 0.56301 0.0
O36 O 0.05109 0.29247 0.43857 0.0
C37 C 0.94591 0.26708 0.53501 0.0
O38 O 0.93626 0.39697 0.56657 0.0
C39 C 0.08318 0.3011 0.46826 0.0
O40 O 0.00399 0.38987 0.56194 0.0
O41 O 0.07923 0.32426 0.51094 0.0
C42 C 0.60872 0.05212 0.85038 0.0
O43 O 0.60958 0.07981 0.81233 0.0
Cd44 Cd 0.6529 0.08125 0.72981 0.0
O45 O 0.62977 0.02037 0.84568 0.0
Cd46 Cd 0.67514 0.99129 0.77357 0.0
C47 C 0.60602 -0.00485 0.666 0.0
O48 O 0.71803 0.05643 0.75618 0.0
O49 O 0.73113 0.00352 0.70448 0.0
O50 O 0.71687 0.95633 0.84136 0.0
C51 C 0.74043 0.04121 0.71869 0.0
O52 O 0.61428 0.03467 0.66476 0.0
C53 C 0.7063 0.91964 0.82344 0.0
O54 O 0.62208 0.97282 0.70266 0.0
O55 O 0.68027 0.91616 0.78379 0.0
H56 H 0.95309 0.57797 0.11836 0.0
C57 C 0.98678 0.58256 0.1156 0.0
H58 H 0.04366 0.56317 0.14525 0.0
H59 H 0.92448 0.50491 0.36065 0.0
H60 H 0.92367 0.5792 0.37936 0.0
H61 H 0.95382 0.63144 0.31149 0.0
H62 H 0.98487 0.60967 0.22451 0.0
C63 C 0.00998 0.56012 0.14861 0.0
C64 C -0.00954 0.52893 0.18871 0.0
C65 C 0.97227 0.54231 0.23925 0.0
C66 C 0.95522 0.51221 0.27856 0.0
C67 C 0.93778 0.52637 0.32915 0.0
C68 C 0.93716 0.56896 0.3405 0.0
C69 C 0.9541 0.59837 0.30228 0.0
C70 C 0.97165 0.58541 0.25232 0.0
H71 H 0.00463 0.42112 0.32457 0.0
C72 C 0.97236 0.41717 0.33836 0.0
H73 H 0.91182 0.43575 0.32635 0.0
H74 H 0.02156 0.49315 0.09475 0.0
H75 H 0.021 0.41875 0.075 0.0
H76 H -0.00992 0.36651 0.14237 0.0
H77 H 0.95977 0.38835 0.23003 0.0
C78 C 0.9439 0.43797 0.31189 0.0
C79 C 0.95698 0.4689 0.26752 0.0
C80 C 0.97377 0.45556 0.21603 0.0
C81 C -0.00905 0.48565 0.17683 0.0
C82 C 0.00807 0.47156 0.12602 0.0
C83 C 0.00787 0.42897 0.1141 0.0
C84 C -0.00949 0.39956 0.15206 0.0
C85 C 0.97349 0.41251 0.2024 0.0
H86 H 0.4079 -0.00628 0.44031 0.0
C87 C 0.40858 0.96693 0.4123 0.0
H88 H 0.43967 0.91346 0.39145 0.0
H89 H 0.60268 0.00528 0.50079 0.0
H90 H 0.62064 0.00815 0.40175 0.0
H91 H 0.56953 0.98311 0.33018 0.0
H92 H 0.50022 0.95492 0.3572 0.0
C93 C 0.43664 0.93904 0.42079 0.0
C94 C 0.46899 0.94756 0.46424 0.0
C95 C 0.50956 0.96318 0.44766 0.0
C96 C 0.53886 0.97796 0.48882 0.0
C97 C 0.57904 -0.00598 0.47117 0.0
C98 C 0.58981 -0.00425 0.41448 0.0
C99 C 0.56104 0.98162 0.37419 0.0
C100 C 0.52134 0.96553 0.39031 0.0
H101 H 0.57104 0.94083 0.62591 0.0
C102 C 0.57681 0.97474 0.62511 0.0
H103 H 0.56291 0.03089 0.58593 0.0
H104 H 0.39601 0.9136 0.50968 0.0
H105 H 0.37772 0.91058 0.60878 0.0
H106 H 0.42748 0.93872 0.68032 0.0
H107 H 0.4958 0.96959 0.65345 0.0
C108 C 0.55669 -0.00292 0.58812 0.0
C109 C 0.52755 0.97686 0.54637 0.0
C110 C 0.48758 0.95935 0.56314 0.0
C111 C 0.45843 0.94422 0.5219 0.0
C112 C 0.41889 0.92638 0.53942 0.0
C113 C 0.40809 0.92432 0.59609 0.0
C114 C 0.43615 0.94007 0.63636 0.0
C115 C 0.4754 0.95756 0.62034 0.0
H116 H 0.08663 0.58299 0.83377 0.0
C117 C 0.05749 0.5957 0.84484 0.0
H118 H -0.0067 0.59469 0.82758 0.0
H119 H 0.00746 0.51957 0.5832 0.0
H120 H -0.00559 0.59119 0.56145 0.0
H121 H -0.00555 0.64469 0.63607 0.0
H122 H 0.00765 0.62692 0.73287 0.0
C123 C 0.02268 0.58214 0.81754 0.0
C124 C 0.0231 0.54978 0.77278 0.0
C125 C 0.01499 0.56065 0.71656 0.0
C126 C 0.01457 0.52974 0.67365 0.0
C127 C 0.00727 0.54162 0.61762 0.0
C128 C -2e-05 0.58268 0.6045 0.0
C129 C 5e-05 0.61281 0.64651 0.0
C130 C 0.00757 0.60215 0.70192 0.0
H131 H 0.95251 0.45458 0.64113 0.0
C132 C 0.97975 0.44066 0.6249 0.0
H133 H 0.04517 0.44062 0.62933 0.0
H134 H 0.03608 0.51723 0.87719 0.0
H135 H 0.04997 0.44593 0.89834 0.0
H136 H 0.05177 0.39306 0.82316 0.0
H137 H 0.03924 0.41123 0.72635 0.0
C138 C 0.0175 0.45466 0.6436 0.0
C139 C 0.02176 0.48792 0.68722 0.0
C140 C 0.0307 0.4772 0.74319 0.0
C141 C 0.03069 0.50797 0.78626 0.0
C142 C 0.03721 0.49567 0.84238 0.0
C143 C 0.04489 0.45467 0.85524 0.0
C144 C 0.04582 0.42489 0.81294 0.0
C145 C 0.03861 0.43576 0.75754 0.0
H146 H 0.45682 0.05861 0.15966 0.0
C147 C 0.43591 0.03251 0.14523 0.0
H148 H 0.4215 0.9875 0.08257 0.0
H149 H 0.57473 0.11728 0.97129 0.0
H150 H 0.53304 0.17508 0.992 0.0
H151 H 0.46561 0.16282 0.04104 0.0
H152 H 0.44047 0.09328 0.07179 0.0
C153 C 0.44295 0.01349 0.09617 0.0
C154 C 0.482 0.02195 0.06294 0.0
C155 C 0.49436 0.06241 0.04145 0.0
C156 C 0.5313 0.06888 0.00862 0.0
C157 C 0.54539 0.11024 -0.00719 0.0
C158 C 0.52199 0.14372 0.00492 0.0
C159 C 0.48417 0.13686 0.03284 0.0
C160 C 0.4703 0.09675 0.05085 0.0
H161 H 0.55054 0.0686 0.88944 0.0
C162 C 0.57946 0.0547 0.8975 0.0
H163 H 0.61589 0.02558 0.95591 0.0
H164 H 0.47094 0.9418 0.10413 0.0
H165 H 0.51067 0.88375 0.07918 0.0
H166 H 0.56943 0.89319 0.0126 0.0
H167 H 0.58935 0.96077 0.97167 0.0
C168 C 0.5866 0.03886 0.9483 0.0
C169 C 0.55322 0.03422 0.99206 0.0
C170 C 0.54134 -0.00605 0.01444 0.0
C171 C 0.50635 0.98808 0.05095 0.0
C172 C 0.49626 0.94788 0.07455 0.0
C173 C 0.51897 0.91422 0.06087 0.0
C174 C 0.5521 0.91956 0.02354 0.0
C175 C 0.56327 0.95878 0.00042 0.0
H176 H 0.22717 0.96128 0.13311 0.0
C177 C 0.23459 0.95013 0.1746 0.0
H178 H 0.22571 0.90103 0.23338 0.0
H179 H 0.07164 0.86465 0.04828 0.0
H180 H 0.04736 0.93054 0.07916 0.0
H181 H 0.08747 0.97523 0.1475 0.0
H182 H 0.15251 0.95477 0.18425 0.0
C183 C 0.21758 0.91284 0.19255 0.0
C184 C 0.19115 0.88464 0.15531 0.0
C185 C 0.15216 0.89624 0.13646 0.0
C186 C 0.12787 0.86938 0.09957 0.0
C187 C 0.09037 0.88291 0.07845 0.0
C188 C 0.07622 0.92082 0.0955 0.0
C189 C 0.09888 0.94606 0.13377 0.0
C190 C 0.13638 0.93407 0.15422 0.0
H191 H 0.06712 0.79261 0.11132 0.0
C192 C 0.07813 0.78277 0.07056 0.0
H193 H 0.12634 0.78951 0.01017 0.0
H194 H 0.26502 0.85358 0.18224 0.0
H195 H 0.28783 0.78646 0.15426 0.0
H196 H 0.24381 0.73811 0.09468 0.0
H197 H 0.1769 0.75679 0.06227 0.0
C198 C 0.11454 0.79981 0.05024 0.0
C199 C 0.14145 0.82991 0.08435 0.0
C200 C 0.18033 0.81828 0.10332 0.0
C201 C 0.20532 0.84578 0.13858 0.0
C202 C 0.24438 0.83365 0.15617 0.0
C203 C 0.25795 0.79521 0.1403 0.0
C204 C 0.2332 0.76803 0.1067 0.0
C205 C 0.19483 0.77921 0.08833 0.0
H206 H 0.2318 0.11215 0.37933 0.0
C207 C 0.25762 0.12341 0.35233 0.0
H208 H 0.28985 0.17611 0.31462 0.0
H209 H 0.13152 0.28005 0.31572 0.0
H210 H 0.15242 0.28147 0.21779 0.0
H211 H 0.21073 0.24257 0.18504 0.0
H212 H 0.24881 0.20255 0.24999 0.0
C213 C 0.26449 0.16463 0.34213 0.0
C214 C 0.23458 0.19419 0.36327 0.0
C215 C 0.21267 0.21742 0.32452 0.0
C216 C 0.17839 0.23902 0.34316 0.0
C217 C 0.15722 0.26229 0.30366 0.0
C218 C 0.16898 0.26353 0.24734 0.0
C219 C 0.20184 0.24168 0.22892 0.0
C220 C 0.22347 0.21878 0.26679 0.0
H221 H 0.15102 0.29749 0.4758 0.0
C222 C 0.12326 0.28471 0.45415 0.0
H223 H 0.0979 0.24145 0.39438 0.0
H224 H 0.27782 0.16405 0.45032 0.0
H225 H 0.25673 0.16149 0.5484 0.0
H226 H 0.19206 0.19075 0.57914 0.0
H227 H 0.14906 0.2239 0.5128 0.0
C228 C 0.12564 0.25365 0.41659 0.0
C229 C 0.16551 0.23665 0.40019 0.0
C230 C 0.18895 0.21538 0.43955 0.0
C231 C 0.22457 0.19574 0.42128 0.0
C232 C 0.24922 0.17734 0.46172 0.0
C233 C 0.23766 0.17596 0.51811 0.0
C234 C 0.20137 0.19262 0.53544 0.0
C235 C 0.17711 0.21198 0.49682 0.0
H236 H 0.79862 0.04946 0.66967 0.0
C237 C 0.7756 0.06602 0.69218 0.0
H238 H 0.75617 0.12455 0.71652 0.0
H239 H 0.92503 0.23395 0.70034 0.0
H240 H 0.90818 0.23833 0.79913 0.0
H241 H 0.84968 0.19387 0.84006 0.0
H242 H 0.80726 0.14529 0.78218 0.0
C243 C 0.77914 0.10805 0.69382 0.0
C244 C 0.81553 0.13322 0.66877 0.0
C245 C 0.84084 0.16062 0.70361 0.0
C246 C 0.87537 0.18533 0.68034 0.0
C247 C 0.89902 0.21368 0.71579 0.0
C248 C 0.88964 0.21663 0.7727 0.0
C249 C 0.85666 0.19167 0.79571 0.0
C250 C 0.83246 0.16396 0.76185 0.0
H251 H 0.88256 0.23601 0.5376 0.0
C252 C 0.91317 0.23645 0.55637 0.0
H253 H 0.95045 0.21036 0.61703 0.0
H254 H 0.76973 0.08969 0.58741 0.0
H255 H 0.79006 0.08056 0.49048 0.0
H256 H 0.85599 0.1148 0.45387 0.0
H257 H 0.90103 0.15971 0.51357 0.0
C258 C 0.91993 0.20972 0.59799 0.0
C259 C 0.88533 0.18169 0.62256 0.0
C260 C 0.86123 0.15272 0.58833 0.0
C261 C 0.82512 0.13009 0.61072 0.0
C262 C 0.79907 0.10522 0.57386 0.0
C263 C 0.81013 0.10007 0.51784 0.0
C264 C 0.8471 0.11954 0.49714 0.0
C265 C 0.87247 0.14559 0.53176 0.0
H266 H 0.71082 0.8518 0.83392 0.0
C267 C 0.72525 0.88264 0.84462 0.0
H268 H 0.77658 0.91696 0.8817 0.0
H269 H 0.84497 0.77986 0.03167 0.0
H270 H 0.81865 0.82571 0.10184 0.0
H271 H 0.77527 0.88206 0.0749 0.0
H272 H 0.75842 0.89317 0.97739 0.0
C273 C 0.76198 0.8862 0.87094 0.0
C274 C 0.78395 0.84901 0.88688 0.0
C275 C 0.79251 0.8421 0.94421 0.0
C276 C 0.81673 0.80899 0.95983 0.0
C277 C 0.82617 0.80398 0.01729 0.0
C278 C 0.81128 0.83016 0.05813 0.0
C279 C 0.78692 0.86192 0.04297 0.0
C280 C 0.77758 0.86801 0.98678 0.0
H281 H 0.90917 0.77852 0.88054 0.0
C282 C 0.90067 0.7551 0.91245 0.0
H283 H 0.85346 0.72906 0.96657 0.0
H284 H 0.77716 0.85532 0.77201 0.0
H285 H 0.79804 0.80567 0.70301 0.0
H286 H 0.83199 0.74307 0.73173 0.0
H287 H 0.84645 0.73072 0.82982 0.0
C288 C 0.86189 0.7517 0.93373 0.0
C289 C 0.83169 0.78232 0.91808 0.0
C290 C 0.82049 0.78731 0.8612 0.0
C291 C 0.79814 0.8217 0.84519 0.0
C292 C 0.79152 0.82836 0.78728 0.0
C293 C 0.80378 0.80026 0.74698 0.0
C294 C 0.82308 0.76516 0.76311 0.0
C295 C 0.83149 0.75863 0.81947 0.0
loop_
_geom_bond_atom_site_label_1
_geom_bond_atom_site_label_2
_geom_bond_distance
_geom_bond_site_symmetry_2
_ccdc_geom_bond_type
C0 O1 1.306 . S
C0 O3 1.160 1_455 S
O1 C0 1.306 . S
O1 Cd2 2.228 1_556 S
Cd2 O1 2.228 1_554 S
Cd2 O6 2.273 . S
Cd2 O10 2.277 . S
O3 C0 1.160 1_655 S
O3 Cd4 2.203 1_556 S
Cd4 O3 2.203 1_554 S
Cd4 O6 2.411 1_655 S
Cd4 O7 2.333 1_655 S
Cd4 O8 2.352 1_554 S
Cd4 O12 2.277 . S
Cd4 O13 2.356 . S
C5 O10 1.209 . S
C5 O12 1.226 1_455 S
O6 Cd2 2.273 . S
O6 Cd4 2.411 1_455 S
O6 C9 1.320 . S
O7 Cd4 2.333 1_455 S
O7 C9 1.214 . S
O8 Cd4 2.352 1_556 S
O8 C11 1.258 . S
C9 O6 1.320 . S
C9 O7 1.214 . S
O10 Cd2 2.277 . S
O10 C5 1.209 . S
C11 O8 1.258 . S
C11 O13 1.282 1_556 S
O12 Cd4 2.277 . S
O12 C5 1.226 1_655 S
O13 Cd4 2.356 . S
O13 C11 1.282 1_554 S
C14 O15 1.306 1_545 S
C14 O17 1.160 . S
O15 C14 1.306 1_565 S
O15 Cd16 2.228 . S
Cd16 O15 2.228 . S
Cd16 O20 2.273 . S
Cd16 O24 2.277 . S
O17 C14 1.160 . S
O17 Cd18 2.203 . S
Cd18 O17 2.203 . S
Cd18 O20 2.411 1_545 S
Cd18 O21 2.333 1_545 S
Cd18 O22 2.352 . S
Cd18 O26 2.277 . S
Cd18 O27 2.356 . S
C19 O24 1.209 1_545 S
C19 O26 1.226 . S
O20 Cd16 2.273 . S
O20 Cd18 2.411 1_565 S
O20 C23 1.320 . S
O21 Cd18 2.333 1_565 S
O21 C23 1.214 . S
O22 Cd18 2.352 . S
O22 C25 1.258 . S
C23 O20 1.320 . S
C23 O21 1.214 . S
O24 Cd16 2.277 . S
O24 C19 1.209 1_565 S
C25 O22 1.258 . S
C25 O27 1.282 . S
O26 Cd18 2.277 . S
O26 C19 1.226 . S
O27 Cd18 2.356 . S
O27 C25 1.282 . S
C28 O29 1.306 1_455 S
C28 O31 1.160 . S
O29 C28 1.306 1_655 S
O29 Cd30 2.228 . S
Cd30 O29 2.228 . S
Cd30 O34 2.273 . S
Cd30 O38 2.277 . S
O31 C28 1.160 . S
O31 Cd32 2.203 . S
Cd32 O31 2.203 . S
Cd32 O34 2.411 1_455 S
Cd32 O35 2.333 1_455 S
Cd32 O36 2.352 . S
Cd32 O40 2.277 . S
Cd32 O41 2.356 . S
C33 O38 1.209 1_455 S
C33 O40 1.226 . S
O34 Cd30 2.273 . S
O34 Cd32 2.411 1_655 S
O34 C37 1.320 . S
O35 Cd32 2.333 1_655 S
O35 C37 1.214 . S
O36 Cd32 2.352 . S
O36 C39 1.258 . S
C37 O34 1.320 . S
C37 O35 1.214 . S
O38 Cd30 2.277 . S
O38 C33 1.209 1_655 S
C39 O36 1.258 . S
C39 O41 1.282 . S
O40 Cd32 2.277 . S
O40 C33 1.226 . S
O41 Cd32 2.356 . S
O41 C39 1.282 . S
C42 O43 1.306 . S
C42 O45 1.160 1_545 S
O43 C42 1.306 . S
O43 Cd44 2.228 . S
Cd44 O43 2.228 . S
Cd44 O48 2.273 . S
Cd44 O52 2.277 . S
O45 C42 1.160 1_565 S
O45 Cd46 2.203 . S
Cd46 O45 2.203 . S
Cd46 O48 2.411 1_565 S
Cd46 O49 2.333 1_565 S
Cd46 O50 2.352 . S
Cd46 O54 2.277 . S
Cd46 O55 2.356 . S
C47 O52 1.209 . S
C47 O54 1.226 1_545 S
O48 Cd44 2.273 . S
O48 Cd46 2.411 1_545 S
O48 C51 1.320 . S
O49 Cd46 2.333 1_545 S
O49 C51 1.214 . S
O50 Cd46 2.352 . S
O50 C53 1.258 . S
C51 O48 1.320 . S
C51 O49 1.214 . S
O52 Cd44 2.277 . S
O52 C47 1.209 . S
C53 O50 1.258 . S
C53 O55 1.282 . S
O54 Cd46 2.277 . S
O54 C47 1.226 1_565 S
O55 Cd46 2.356 . S
O55 C53 1.282 . S
H56 C57 0.951 1_655 S
C57 H56 0.951 1_455 S
C57 C63 1.265 . S
H58 C63 0.950 . S
H59 C67 0.949 . S
H60 C68 0.950 . S
H61 C69 0.951 . S
H62 C70 0.951 . S
C63 C57 1.265 . S
C63 H58 0.950 . S
C63 C64 1.478 . S
C64 C63 1.478 . S
C64 C65 1.392 1_455 S
C64 C81 1.394 . S
C65 C64 1.392 1_655 S
C65 C66 1.438 . S
C65 C70 1.433 . S
C66 C65 1.438 . S
C66 C67 1.428 . S
C66 C79 1.394 1_655 S
C67 H59 0.949 . S
C67 C66 1.428 . S
C67 C68 1.345 . S
C68 H60 0.950 . S
C68 C67 1.345 . S
C68 C69 1.424 . S
C69 H61 0.951 . S
C69 C68 1.424 . S
C69 C70 1.347 . S
C70 H62 0.951 . S
C70 C65 1.433 . S
C70 C69 1.347 . S
H71 C72 0.951 . S
C72 H71 0.951 . S
C72 C78 1.265 1_455 S
H73 C78 0.950 . S
H74 C82 0.949 . S
H75 C83 0.950 . S
H76 C84 0.951 . S
H77 C85 0.951 . S
C78 C72 1.265 1_655 S
C78 H73 0.950 . S
C78 C79 1.478 1_655 S
C79 C66 1.394 1_455 S
C79 C78 1.478 1_455 S
C79 C80 1.397 . S
C80 C79 1.397 . S
C80 C81 1.438 . S
C80 C85 1.429 . S
C81 C64 1.394 . S
C81 C80 1.438 . S
C81 C82 1.428 . S
C82 H74 0.949 . S
C82 C81 1.428 . S
C82 C83 1.345 . S
C83 H75 0.950 . S
C83 C82 1.345 . S
C83 C84 1.424 . S
C84 H76 0.951 . S
C84 C83 1.424 . S
C84 C85 1.347 . S
C85 H77 0.951 . S
C85 C80 1.429 . S
C85 C84 1.347 . S
H86 C87 0.951 . S
C87 H86 0.951 . S
C87 C93 1.265 . S
H88 C93 0.950 . S
H89 C97 0.949 . S
H90 C98 0.950 . S
H91 C99 0.951 . S
H92 C100 0.951 . S
C93 C87 1.265 . S
C93 H88 0.950 . S
C93 C94 1.478 . S
C94 C93 1.478 . S
C94 C95 1.397 . S
C94 C111 1.394 1_545 S
C95 C94 1.397 . S
C95 C96 1.438 . S
C95 C100 1.429 . S
C96 C95 1.438 . S
C96 C97 1.428 . S
C96 C109 1.394 . S
C97 H89 0.949 . S
C97 C96 1.428 . S
C97 C98 1.345 . S
C98 H90 0.950 . S
C98 C97 1.345 . S
C98 C99 1.424 . S
C99 H91 0.951 . S
C99 C98 1.424 . S
C99 C100 1.347 . S
C100 H92 0.951 . S
C100 C95 1.429 . S
C100 C99 1.347 . S
H101 C102 0.951 . S
C102 H101 0.951 . S
C102 C108 1.265 . S
H103 C108 0.950 1_565 S
H104 C112 0.949 . S
H105 C113 0.950 . S
H106 C114 0.951 . S
H107 C115 0.951 . S
C108 C102 1.265 . S
C108 H103 0.950 1_545 S
C108 C109 1.478 . S
C109 C96 1.394 . S
C109 C108 1.478 . S
C109 C110 1.397 1_545 S
C110 C109 1.397 1_565 S
C110 C111 1.438 . S
C110 C115 1.429 . S
C111 C94 1.394 1_565 S
C111 C110 1.438 . S
C111 C112 1.428 . S
C112 H104 0.949 . S
C112 C111 1.428 . S
C112 C113 1.345 . S
C113 H105 0.950 . S
C113 C112 1.345 . S
C113 C114 1.424 . S
C114 H106 0.951 . S
C114 C113 1.424 . S
C114 C115 1.347 . S
C115 H107 0.951 . S
C115 C110 1.429 . S
C115 C114 1.347 . S
H116 C117 0.951 . S
C117 H116 0.951 . S
C117 C123 1.265 1_455 S
H118 C123 0.950 . S
H119 C127 0.949 . S
H120 C128 0.950 . S
H121 C129 0.951 . S
H122 C130 0.951 . S
C123 C117 1.265 1_655 S
C123 H118 0.950 . S
C123 C124 1.478 1_655 S
C124 C123 1.478 1_455 S
C124 C125 1.397 1_455 S
C124 C141 1.394 . S
C125 C124 1.397 1_655 S
C125 C126 1.438 . S
C125 C130 1.429 . S
C126 C125 1.438 . S
C126 C127 1.428 . S
C126 C139 1.394 1_655 S
C127 H119 0.949 . S
C127 C126 1.428 . S
C127 C128 1.345 . S
C128 H120 0.950 . S
C128 C127 1.345 . S
C128 C129 1.424 . S
C129 H121 0.951 . S
C129 C128 1.424 . S
C129 C130 1.347 . S
C130 H122 0.951 . S
C130 C125 1.429 . S
C130 C129 1.347 . S
H131 C132 0.951 1_655 S
C132 H131 0.951 1_455 S
C132 C138 1.265 . S
H133 C138 0.950 . S
H134 C142 0.949 . S
H135 C143 0.950 . S
H136 C144 0.951 . S
H137 C145 0.951 . S
C138 C132 1.265 . S
C138 H133 0.950 . S
C138 C139 1.478 . S
C139 C126 1.394 1_455 S
C139 C138 1.478 . S
C139 C140 1.397 . S
C140 C139 1.397 . S
C140 C141 1.438 . S
C140 C145 1.429 . S
C141 C124 1.394 . S
C141 C140 1.438 . S
C141 C142 1.428 . S
C142 H134 0.949 . S
C142 C141 1.428 . S
C142 C143 1.345 . S
C143 H135 0.950 . S
C143 C142 1.345 . S
C143 C144 1.424 . S
C144 H136 0.951 . S
C144 C143 1.424 . S
C144 C145 1.347 . S
C145 H137 0.951 . S
C145 C140 1.429 . S
C145 C144 1.347 . S
H146 C147 0.951 . S
C147 H146 0.951 . S
C147 C153 1.265 . S
H148 C153 0.950 . S
H149 C157 0.949 . S
H150 C158 0.950 . S
H151 C159 0.951 . S
H152 C160 0.951 . S
C153 C147 1.265 . S
C153 H148 0.950 . S
C153 C154 1.478 . S
C154 C153 1.478 . S
C154 C155 1.397 . S
C154 C171 1.394 1_545 S
C155 C154 1.397 . S
C155 C156 1.438 1_554 S
C155 C160 1.429 . S
C156 C155 1.438 1_556 S
C156 C157 1.428 . S
C156 C169 1.394 . S
C157 H149 0.949 . S
C157 C156 1.428 . S
C157 C158 1.345 . S
C158 H150 0.950 . S
C158 C157 1.345 . S
C158 C159 1.424 . S
C159 H151 0.951 . S
C159 C158 1.424 . S
C159 C160 1.347 1_556 S
C160 H152 0.951 . S
C160 C155 1.429 . S
C160 C159 1.347 1_554 S
H161 C162 0.951 . S
C162 H161 0.951 . S
C162 C168 1.265 . S
H163 C168 0.950 . S
H164 C172 0.949 . S
H165 C173 0.950 . S
H166 C174 0.951 . S
H167 C175 0.951 1_556 S
C168 C162 1.265 . S
C168 H163 0.950 . S
C168 C169 1.478 . S
C169 C156 1.394 . S
C169 C168 1.478 . S
C169 C170 1.397 1_546 S
C170 C169 1.397 1_564 S
C170 C171 1.438 . S
C170 C175 1.429 . S
C171 C154 1.394 1_565 S
C171 C170 1.438 . S
C171 C172 1.428 . S
C172 H164 0.949 . S
C172 C171 1.428 . S
C172 C173 1.345 . S
C173 H165 0.950 . S
C173 C172 1.345 . S
C173 C174 1.424 . S
C174 H166 0.951 . S
C174 C173 1.424 . S
C174 C175 1.347 . S
C175 H167 0.951 1_554 S
C175 C170 1.429 . S
C175 C174 1.347 . S
H176 C177 0.951 . S
C177 H176 0.951 . S
C177 C183 1.265 . S
H178 C183 0.950 . S
H179 C187 0.949 . S
H180 C188 0.950 . S
H181 C189 0.951 . S
H182 C190 0.951 . S
C183 C177 1.265 . S
C183 H178 0.950 . S
C183 C184 1.478 . S
C184 C183 1.478 . S
C184 C185 1.397 . S
C184 C201 1.394 . S
C185 C184 1.397 . S
C185 C186 1.438 . S
C185 C190 1.429 . S
C186 C185 1.438 . S
C186 C187 1.428 . S
C186 C199 1.394 . S
C187 H179 0.949 . S
C187 C186 1.428 . S
C187 C188 1.345 . S
C188 H180 0.950 . S
C188 C187 1.345 . S
C188 C189 1.424 . S
C189 H181 0.951 . S
C189 C188 1.424 . S
C189 C190 1.347 . S
C190 H182 0.951 . S
C190 C185 1.429 . S
C190 C189 1.347 . S
H191 C192 0.951 . S
C192 H191 0.951 . S
C192 C198 1.265 . S
H193 C198 0.950 . S
H194 C202 0.949 . S
H195 C203 0.950 . S
H196 C204 0.951 . S
H197 C205 0.951 . S
C198 C192 1.265 . S
C198 H193 0.950 . S
C198 C199 1.478 . S
C199 C186 1.394 . S
C199 C198 1.478 . S
C199 C200 1.397 . S
C200 C199 1.397 . S
C200 C201 1.438 . S
C200 C205 1.429 . S
C201 C184 1.394 . S
C201 C200 1.438 . S
C201 C202 1.428 . S
C202 H194 0.949 . S
C202 C201 1.428 . S
C202 C203 1.345 . S
C203 H195 0.950 . S
C203 C202 1.345 . S
C203 C204 1.424 . S
C204 H196 0.951 . S
C204 C203 1.424 . S
C204 C205 1.347 . S
C205 H197 0.951 . S
C205 C200 1.429 . S
C205 C204 1.347 . S
H206 C207 0.951 . S
C207 H206 0.951 . S
C207 C213 1.265 . S
H208 C213 0.950 . S
H209 C217 0.949 . S
H210 C218 0.950 . S
H211 C219 0.951 . S
H212 C220 0.951 . S
C213 C207 1.265 . S
C213 H208 0.950 . S
C213 C214 1.478 . S
C214 C213 1.478 . S
C214 C215 1.397 . S
C214 C231 1.394 . S
C215 C214 1.397 . S
C215 C216 1.438 . S
C215 C220 1.429 . S
C216 C215 1.438 . S
C216 C217 1.428 . S
C216 C229 1.394 . S
C217 H209 0.949 . S
C217 C216 1.428 . S
C217 C218 1.345 . S
C218 H210 0.950 . S
C218 C217 1.345 . S
C218 C219 1.424 . S
C219 H211 0.951 . S
C219 C218 1.424 . S
C219 C220 1.347 . S
C220 H212 0.951 . S
C220 C215 1.429 . S
C220 C219 1.347 . S
H221 C222 0.951 . S
C222 H221 0.951 . S
C222 C228 1.265 . S
H223 C228 0.950 . S
H224 C232 0.949 . S
H225 C233 0.950 . S
H226 C234 0.951 . S
H227 C235 0.951 . S
C228 C222 1.265 . S
C228 H223 0.950 . S
C228 C229 1.478 . S
C229 C216 1.394 . S
C229 C228 1.478 . S
C229 C230 1.397 . S
C230 C229 1.397 . S
C230 C231 1.438 . S
C230 C235 1.429 . S
C231 C214 1.394 . S
C231 C230 1.438 . S
C231 C232 1.428 . S
C232 H224 0.949 . S
C232 C231 1.428 . S
C232 C233 1.345 . S
C233 H225 0.950 . S
C233 C232 1.345 . S
C233 C234 1.424 . S
C234 H226 0.951 . S
C234 C233 1.424 . S
C234 C235 1.347 . S
C235 H227 0.951 . S
C235 C230 1.429 . S
C235 C234 1.347 . S
H236 C237 0.951 . S
C237 H236 0.951 . S
C237 C243 1.265 . S
H238 C243 0.950 . S
H239 C247 0.949 . S
H240 C248 0.950 . S
H241 C249 0.951 . S
H242 C250 0.951 . S
C243 C237 1.265 . S
C243 H238 0.950 . S
C243 C244 1.478 . S
C244 C243 1.478 . S
C244 C245 1.397 . S
C244 C261 1.394 . S
C245 C244 1.397 . S
C245 C246 1.438 . S
C245 C250 1.429 . S
C246 C245 1.438 . S
C246 C247 1.428 . S
C246 C259 1.394 . S
C247 H239 0.949 . S
C247 C246 1.428 . S
C247 C248 1.345 . S
C248 H240 0.950 . S
C248 C247 1.345 . S
C248 C249 1.424 . S
C249 H241 0.951 . S
C249 C248 1.424 . S
C249 C250 1.347 . S
C250 H242 0.951 . S
C250 C245 1.429 . S
C250 C249 1.347 . S
H251 C252 0.951 . S
C252 H251 0.951 . S
C252 C258 1.265 . S
H253 C258 0.950 . S
H254 C262 0.949 . S
H255 C263 0.950 . S
H256 C264 0.951 . S
H257 C265 0.951 . S
C258 C252 1.265 . S
C258 H253 0.950 . S
C258 C259 1.478 . S
C259 C246 1.394 . S
C259 C258 1.478 . S
C259 C260 1.397 . S
C260 C259 1.397 . S
C260 C261 1.438 . S
C260 C265 1.429 . S
C261 C244 1.394 . S
C261 C260 1.438 . S
C261 C262 1.428 . S
C262 H254 0.949 . S
C262 C261 1.428 . S
C262 C263 1.345 . S
C263 H255 0.950 . S
C263 C262 1.345 . S
C263 C264 1.424 . S
C264 H256 0.951 . S
C264 C263 1.424 . S
C264 C265 1.347 . S
C265 H257 0.951 . S
C265 C260 1.429 . S
C265 C264 1.347 . S
H266 C267 0.951 . S
C267 H266 0.951 . S
C267 C273 1.265 . S
H268 C273 0.950 . S
H269 C277 0.949 . S
H270 C278 0.950 . S
H271 C279 0.951 . S
H272 C280 0.951 . S
C273 C267 1.265 . S
C273 H268 0.950 . S
C273 C274 1.478 . S
C274 C273 1.478 . S
C274 C275 1.397 . S
C274 C291 1.394 . S
C275 C274 1.397 . S
C275 C276 1.438 . S
C275 C280 1.429 . S
C276 C275 1.438 . S
C276 C277 1.428 1_556 S
C276 C289 1.394 . S
C277 H269 0.949 . S
C277 C276 1.428 1_554 S
C277 C278 1.345 . S
C278 H270 0.950 . S
C278 C277 1.345 . S
C278 C279 1.424 . S
C279 H271 0.951 . S
C279 C278 1.424 . S
C279 C280 1.347 1_554 S
C280 H272 0.951 . S
C280 C275 1.429 . S
C280 C279 1.347 1_556 S
H281 C282 0.951 . S
C282 H281 0.951 . S
C282 C288 1.265 . S
H283 C288 0.950 . S
H284 C292 0.949 . S
H285 C293 0.950 . S
H286 C294 0.951 . S
H287 C295 0.951 . S
C288 C282 1.265 . S
C288 H283 0.950 . S
C288 C289 1.478 . S
C289 C276 1.394 . S
C289 C288 1.478 . S
C289 C290 1.397 . S
C290 C289 1.397 . S
C290 C291 1.438 . S
C290 C295 1.429 . S
C291 C274 1.394 . S
C291 C290 1.438 . S
C291 C292 1.428 . S
C292 H284 0.949 . S
C292 C291 1.428 . S
C292 C293 1.345 . S
C293 H285 0.950 . S
C293 C292 1.345 . S
C293 C294 1.424 . S
C294 H286 0.951 . S
C294 C293 1.424 . S
C294 C295 1.347 . S
C295 H287 0.951 . S
C295 C290 1.429 . S
C295 C294 1.347 . S
C57 C5 1.400 . S
C72 C28 1.391 . S
C87 C14 1.404 . S
C102 C47 1.398 . S
C117 C0 1.391 . S
C132 C33 1.390 . S
C147 C19 1.392 . S
C162 C42 1.379 . S
C177 C23 1.475 . S
C192 C9 1.447 . S
C207 C25 1.469 . S
C222 C39 1.473 . S
C237 C51 1.449 . S
C252 C37 1.482 . S
C267 C53 1.473 . S
C282 C11 1.469 . S
