# Generated by pormake.
# Topology lcy-e, (6)-cn, num edge types: 1
# Building blocks:
#     Node 0, Type 0, BuildingBlock: HISSIN_clean_sbu_0, # of connection points: 6
#     Node 1, Type 0, BuildingBlock: HISSIN_clean_sbu_0, # of connection points: 6
#     Node 2, Type 0, BuildingBlock: HISSIN_clean_sbu_0, # of connection points: 6
#     Node 3, Type 0, BuildingBlock: HISSIN_clean_sbu_0, # of connection points: 6
#     Node 4, Type 0, BuildingBlock: HISSIN_clean_sbu_0, # of connection points: 6
#     Node 5, Type 0, BuildingBlock: HISSIN_clean_sbu_0, # of connection points: 6
#     Node 6, Type 0, BuildingBlock: HISSIN_clean_sbu_0, # of connection points: 6
#     Node 7, Type 0, BuildingBlock: HISSIN_clean_sbu_0, # of connection points: 6
#     Node 8, Type 0, BuildingBlock: HISSIN_clean_sbu_0, # of connection points: 6
#     Node 9, Type 0, BuildingBlock: HISSIN_clean_sbu_0, # of connection points: 6
#     Node 10, Type 0, BuildingBlock: HISSIN_clean_sbu_0, # of connection points: 6
#     Node 11, Type 0, BuildingBlock: HISSIN_clean_sbu_0, # of connection points: 6
#     Edge 12, Type (0, 0), BuildingBlock: AJUNOK_clean_linker_0, # of connection points: 2
#     Edge 13, Type (0, 0), BuildingBlock: AJUNOK_clean_linker_0, # of connection points: 2
#     Edge 14, Type (0, 0), BuildingBlock: AJUNOK_clean_linker_0, # of connection points: 2
#     Edge 15, Type (0, 0), BuildingBlock: AJUNOK_clean_linker_0, # of connection points: 2
#     Edge 16, Type (0, 0), BuildingBlock: AJUNOK_clean_linker_0, # of connection points: 2
#     Edge 17, Type (0, 0), BuildingBlock: AJUNOK_clean_linker_0, # of connection points: 2
#     Edge 18, Type (0, 0), BuildingBlock: AJUNOK_clean_linker_0, # of connection points: 2
#     Edge 19, Type (0, 0), BuildingBlock: AJUNOK_clean_linker_0, # of connection points: 2
#     Edge 20, Type (0, 0), BuildingBlock: AJUNOK_clean_linker_0, # of connection points: 2
#     Edge 21, Type (0, 0), BuildingBlock: AJUNOK_clean_linker_0, # of connection points: 2
#     Edge 22, Type (0, 0), BuildingBlock: AJUNOK_clean_linker_0, # of connection points: 2
#     Edge 23, Type (0, 0), BuildingBlock: AJUNOK_clean_linker_0, # of connection points: 2
#     Edge 24, Type (0, 0), BuildingBlock: AJUNOK_clean_linker_0, # of connection points: 2
#     Edge 25, Type (0, 0), BuildingBlock: AJUNOK_clean_linker_0, # of connection points: 2
#     Edge 26, Type (0, 0), BuildingBlock: AJUNOK_clean_linker_0, # of connection points: 2
#     Edge 27, Type (0, 0), BuildingBlock: AJUNOK_clean_linker_0, # of connection points: 2
#     Edge 28, Type (0, 0), BuildingBlock: AJUNOK_clean_linker_0, # of connection points: 2
#     Edge 29, Type (0, 0), BuildingBlock: AJUNOK_clean_linker_0, # of connection points: 2
#     Edge 30, Type (0, 0), BuildingBlock: AJUNOK_clean_linker_0, # of connection points: 2
#     Edge 31, Type (0, 0), BuildingBlock: AJUNOK_clean_linker_0, # of connection points: 2
#     Edge 32, Type (0, 0), BuildingBlock: AJUNOK_clean_linker_0, # of connection points: 2
#     Edge 33, Type (0, 0), BuildingBlock: AJUNOK_clean_linker_0, # of connection points: 2
#     Edge 34, Type (0, 0), BuildingBlock: AJUNOK_clean_linker_0, # of connection points: 2
#     Edge 35, Type (0, 0), BuildingBlock: AJUNOK_clean_linker_0, # of connection points: 2
#     Edge 36, Type (0, 0), BuildingBlock: AJUNOK_clean_linker_0, # of connection points: 2
#     Edge 37, Type (0, 0), BuildingBlock: AJUNOK_clean_linker_0, # of connection points: 2
#     Edge 38, Type (0, 0), BuildingBlock: AJUNOK_clean_linker_0, # of connection points: 2
#     Edge 39, Type (0, 0), BuildingBlock: AJUNOK_clean_linker_0, # of connection points: 2
#     Edge 40, Type (0, 0), BuildingBlock: AJUNOK_clean_linker_0, # of connection points: 2
#     Edge 41, Type (0, 0), BuildingBlock: AJUNOK_clean_linker_0, # of connection points: 2
#     Edge 42, Type (0, 0), BuildingBlock: AJUNOK_clean_linker_0, # of connection points: 2
#     Edge 43, Type (0, 0), BuildingBlock: AJUNOK_clean_linker_0, # of connection points: 2
#     Edge 44, Type (0, 0), BuildingBlock: AJUNOK_clean_linker_0, # of connection points: 2
#     Edge 45, Type (0, 0), BuildingBlock: AJUNOK_clean_linker_0, # of connection points: 2
#     Edge 46, Type (0, 0), BuildingBlock: AJUNOK_clean_linker_0, # of connection points: 2
#     Edge 47, Type (0, 0), BuildingBlock: AJUNOK_clean_linker_0, # of connection points: 2
# Relax obj value: 0.193
# Max RMSD: 0.294
# Mean RMSD: 0.282
data_MOF--net-lcy-e--node1-HISSIN_clean_sbu_0--edge1-AJUNOK_clean_linker_0
_symmetry_space_group_name_H-M    P1
_symmetry_Int_Tables_number       1
_symmetry_cell_setting            triclinic
loop_
_symmetry_equiv_pos_as_xyz
'x, y, z'
_cell_length_a     34.414156
_cell_length_b     35.5989
_cell_length_c     34.9732
_cell_angle_alpha  89.560642
_cell_angle_beta   90.44762
_cell_angle_gamma 88.489906
loop_
_atom_site_label
_atom_site_type_symbol
_atom_site_fract_x
_atom_site_fract_y
_atom_site_fract_z
_atom_type_partial_charge
Eu0 Eu 0.12454 0.2395 0.55762 0.0
Eu1 Eu 0.10371 0.30468 0.49327 0.0
C2 C 0.06059 0.298 0.57479 0.0
C3 C 0.11668 0.15288 0.62232 0.0
C4 C 0.08018 0.15637 0.63997 0.0
C5 C 0.11479 0.08498 0.63105 0.0
C6 C 0.06142 0.12444 0.65337 0.0
C7 C 0.13367 0.11687 0.61792 0.0
C8 C 0.07855 0.08841 0.64906 0.0
C9 C 0.1375 0.18607 0.60813 0.0
O10 O 0.16199 0.31674 0.51752 0.0
O11 O 0.14934 0.29575 0.57741 0.0
C12 C 0.16621 0.31998 0.55443 0.0
O13 O 0.17591 0.24032 0.51907 0.0
O14 O 0.10389 0.36377 0.47522 0.0
O15 O 0.07998 0.3219 0.43778 0.0
O16 O 0.14486 0.26212 0.46494 0.0
C17 C 0.17424 0.24386 0.48178 0.0
O18 O 0.08585 0.21226 0.51291 0.0
O19 O 0.05412 0.26555 0.49049 0.0
O20 O 0.07734 0.32164 0.55115 0.0
O21 O 0.14943 0.18438 0.57286 0.0
O22 O 0.12359 0.21942 0.61683 0.0
O23 O 0.065 0.26207 0.56896 0.0
C24 C 0.11289 0.37188 0.40857 0.0
C25 C 0.1384 0.34891 0.38721 0.0
C26 C 0.12846 0.42483 0.36777 0.0
C27 C 0.15862 0.36378 0.35619 0.0
C28 C 0.10812 0.40992 0.39859 0.0
C29 C 0.15404 0.40198 0.34633 0.0
C30 C 0.09089 0.35655 0.44097 0.0
C31 C 0.05727 0.22888 0.49327 0.0
H32 H 0.06618 0.18369 0.64365 0.0
H33 H 0.12909 0.05769 0.62809 0.0
H34 H 0.03355 0.12791 0.66728 0.0
H35 H 0.16181 0.11341 0.60454 0.0
H36 H 0.14259 0.31947 0.39445 0.0
H37 H 0.12386 0.45424 0.36041 0.0
H38 H 0.17817 0.34557 0.34021 0.0
H39 H 0.08851 0.42808 0.41457 0.0
Eu40 Eu 0.96733 0.88203 0.73349 0.0
Eu41 Eu 0.03048 0.90529 0.79843 0.0
C42 C 0.94171 0.93985 0.79522 0.0
C43 C 0.90544 0.88658 0.64389 0.0
C44 C 0.90313 0.92602 0.64442 0.0
C45 C 0.88069 0.88764 0.57866 0.0
C46 C 0.88903 0.94609 0.61248 0.0
C47 C 0.89456 0.86756 0.61071 0.0
C48 C 0.87734 0.92705 0.57944 0.0
C49 C 0.92111 0.86529 0.67699 0.0
O50 O 1.01028 0.84907 0.81683 0.0
O51 O 0.94949 0.85594 0.79069 0.0
C52 C 0.97327 0.84204 0.81739 0.0
O53 O 1.0088 0.83353 0.73962 0.0
O54 O 0.05096 0.90928 0.85743 0.0
O55 O 0.08645 0.92971 0.81112 0.0
O56 O 0.06159 0.86746 0.75529 0.0
C57 C 0.04638 0.83723 0.74051 0.0
O58 O 1.0076 0.92487 0.70715 0.0
O59 O 0.02065 0.95636 0.76186 0.0
O60 O 0.97038 0.92711 0.81759 0.0
O61 O 0.95858 0.85891 0.67665 0.0
O62 O 0.9087 0.87563 0.71063 0.0
O63 O 0.94198 0.93432 0.75837 0.0
C64 C 0.11889 0.90111 0.86334 0.0
C65 C 0.12676 0.86357 0.85325 0.0
C66 C 0.17643 0.89981 0.90373 0.0
C67 C 0.1593 0.84416 0.8685 0.0
C68 C 0.14404 0.91918 0.88838 0.0
C69 C 0.18428 0.86207 0.89413 0.0
C70 C 0.08483 0.92168 0.84752 0.0
C71 C 0.01892 0.9554 0.72456 0.0
H72 H 0.91218 0.94125 0.66953 0.0
H73 H 0.87168 0.87235 0.55359 0.0
H74 H 0.88711 0.97649 0.6136 0.0
H75 H 0.8967 0.83716 0.60965 0.0
H76 H 0.10747 0.84923 0.83393 0.0
H77 H 0.19528 0.91427 0.92338 0.0
H78 H 0.1643 0.81495 0.86113 0.0
H79 H 0.13848 0.9482 0.89627 0.0
Eu80 Eu 0.36212 0.79591 0.05039 0.0
Eu81 Eu 0.38761 0.73168 0.98797 0.0
C82 C 0.42795 0.73933 0.07187 0.0
C83 C 0.36001 0.8843 0.1122 0.0
C84 C 0.39998 0.89069 0.10906 0.0
C85 C 0.35138 0.94442 0.14364 0.0
C86 C 0.41564 0.92367 0.12365 0.0
C87 C 0.33584 0.91153 0.12919 0.0
C88 C 0.39148 0.95077 0.14137 0.0
C89 C 0.34275 0.84992 0.09732 0.0
O90 O 0.33253 0.71174 1.01286 0.0
O91 O 0.33997 0.73904 0.07146 0.0
C92 C 0.32687 0.71177 0.04973 0.0
O93 O 0.31073 0.78777 1.01263 0.0
O94 O 0.3935 0.67337 0.96882 0.0
O95 O 0.41219 0.71873 0.93227 0.0
O96 O 0.3444 0.77266 0.95901 0.0
C97 C 0.31297 0.78665 0.97541 0.0
O98 O 0.40029 0.82366 1.00578 0.0
O99 O 0.43655 0.7713 0.99103 0.0
O100 O 0.41374 0.71566 0.04676 0.0
O101 O 0.33402 0.85039 0.06096 0.0
O102 O 0.35863 0.81788 0.10843 0.0
O103 O 0.42119 0.77536 0.06796 0.0
C104 C 0.38412 0.66681 0.90207 0.0
C105 C 0.35332 0.68675 0.88379 0.0
C106 C 0.37528 0.61526 0.85803 0.0
C107 C 0.33372 0.67106 0.85272 0.0
C108 C 0.395 0.63104 0.88886 0.0
C109 C 0.34426 0.63497 0.83981 0.0
C110 C 0.4051 0.68298 0.93476 0.0
C111 C 0.43146 0.80781 0.99046 0.0
H112 H 0.41905 0.87002 0.09573 0.0
H113 H 0.33202 0.96484 0.15696 0.0
H114 H 0.4467 0.92744 0.12207 0.0
H115 H 0.30488 0.90724 0.13151 0.0
H116 H 0.34435 0.71436 0.89365 0.0
H117 H 0.38433 0.58757 0.84834 0.0
H118 H 0.30986 0.68678 0.83929 0.0
H119 H 0.41873 0.61526 0.90246 0.0
Eu120 Eu 0.51212 0.1468 0.235 0.0
Eu121 Eu 0.44985 0.12256 0.30059 0.0
C122 C 0.53621 0.08393 0.29219 0.0
C123 C 0.57429 0.14771 0.14516 0.0
C124 C 0.57652 0.10847 0.14119 0.0
C125 C 0.60295 0.15491 0.08257 0.0
C126 C 0.59275 0.09253 0.10828 0.0
C127 C 0.5869 0.17076 0.1154 0.0
C128 C 0.60689 0.11569 0.07909 0.0
C129 C 0.55853 0.16525 0.17977 0.0
O130 O 0.47545 0.17508 0.32223 0.0
O131 O 0.53431 0.16891 0.29224 0.0
C132 C 0.51277 0.18091 0.32101 0.0
O133 O 0.47351 0.19668 0.2447 0.0
O134 O 0.43114 0.11623 0.35979 0.0
O135 O 0.39302 0.10023 0.31352 0.0
O136 O 0.41939 0.16482 0.26025 0.0
C137 C 0.43578 0.19484 0.24613 0.0
O138 O 0.46835 0.10844 0.20695 0.0
O139 O 0.45365 0.07447 0.26029 0.0
O140 O 0.50998 0.09705 0.31651 0.0
O141 O 0.52121 0.1727 0.17926 0.0
O142 O 0.57072 0.15131 0.21253 0.0
O143 O 0.5317 0.09029 0.25564 0.0
C144 C 0.36374 0.1274 0.36744 0.0
C145 C 0.35779 0.1659 0.3596 0.0
C146 C 0.30654 0.1287 0.40754 0.0
C147 C 0.32639 0.18575 0.37581 0.0
C148 C 0.33785 0.10893 0.39131 0.0
C149 C 0.30048 0.16734 0.40008 0.0
C150 C 0.39626 0.10615 0.35013 0.0
C151 C 0.45428 0.07815 0.22307 0.0
H152 H 0.56634 0.09024 0.16375 0.0
H153 H 0.61302 0.17333 0.06014 0.0
H154 H 0.59547 0.06223 0.10621 0.0
H155 H 0.58479 0.20108 0.11777 0.0
H156 H 0.37755 0.18059 0.34113 0.0
H157 H 0.28698 0.11375 0.426 0.0
H158 H 0.3229 0.21559 0.37006 0.0
H159 H 0.34186 0.07919 0.39745 0.0
Eu160 Eu 0.60878 0.24126 0.54894 0.0
Eu161 Eu 0.63623 0.30086 0.48408 0.0
C162 C 0.67374 0.21648 0.49292 0.0
C163 C 0.61033 0.18072 0.63855 0.0
C164 C 0.64787 0.16451 0.6357 0.0
C165 C 0.6117 0.16837 0.70701 0.0
C166 C 0.66684 0.14977 0.66815 0.0
C167 C 0.59256 0.18281 0.67447 0.0
C168 C 0.64887 0.15146 0.70406 0.0
C169 C 0.58984 0.19653 0.6047 0.0
O170 O 0.58161 0.27787 0.46074 0.0
O171 O 0.58589 0.22079 0.49126 0.0
C172 C 0.57461 0.24196 0.46174 0.0
O173 O 0.55752 0.27896 0.537 0.0
O174 O 0.64201 0.3212 0.42519 0.0
O175 O 0.66366 0.35401 0.4723 0.0
O176 O 0.59247 0.33052 0.52309 0.0
C177 C 0.55991 0.31538 0.53419 0.0
O178 O 0.64783 0.28382 0.57765 0.0
O179 O 0.68524 0.29453 0.52563 0.0
O180 O 0.66127 0.24267 0.46837 0.0
O181 O 0.58312 0.23277 0.6051 0.0
O182 O 0.60131 0.18461 0.57126 0.0
O183 O 0.66657 0.22004 0.52934 0.0
C184 C 0.63542 0.3873 0.42034 0.0
C185 C 0.60568 0.40563 0.44101 0.0
C186 C 0.62683 0.43351 0.36945 0.0
C187 C 0.58675 0.43783 0.426 0.0
C188 C 0.64594 0.40154 0.38458 0.0
C189 C 0.59691 0.4518 0.38991 0.0
C190 C 0.65552 0.35342 0.43585 0.0
C191 C 0.67983 0.29655 0.56244 0.0
H192 H 0.66249 0.163 0.60843 0.0
H193 H 0.59699 0.1694 0.73427 0.0
H194 H 0.69547 0.13677 0.6652 0.0
H195 H 0.56373 0.19541 0.67729 0.0
H196 H 0.597 0.39498 0.46867 0.0
H197 H 0.63545 0.44403 0.34172 0.0
H198 H 0.56369 0.45135 0.4422 0.0
H199 H 0.66884 0.38785 0.36829 0.0
Eu200 Eu 0.95908 0.40152 0.74632 0.0
Eu201 Eu 0.02391 0.37967 0.81306 0.0
C202 C 0.01913 0.3383 0.73045 0.0
C203 C 0.87016 0.39888 0.68052 0.0
C204 C 0.86792 0.35953 0.6791 0.0
C205 C 0.80554 0.4047 0.65256 0.0
C206 C 0.83491 0.34291 0.66357 0.0
C207 C 0.83846 0.42124 0.66788 0.0
C208 C 0.80381 0.36543 0.64934 0.0
C209 C 0.90467 0.41729 0.69586 0.0
O210 O 0.04413 0.43271 0.78675 0.0
O211 O 0.01819 0.42325 0.72722 0.0
C212 C 0.04539 0.43697 0.74967 0.0
O213 O 0.96323 0.45209 0.78305 0.0
O214 O 0.0835 0.37509 0.83505 0.0
O215 O 0.03578 0.35764 0.87051 0.0
O216 O 0.98102 0.42223 0.83874 0.0
C217 C 0.96462 0.45099 0.82037 0.0
O218 O 0.9294 0.36409 0.78971 0.0
O219 O 0.98364 0.33168 0.81126 0.0
O220 O 0.04261 0.35316 0.75598 0.0
O221 O 0.9027 0.42715 0.73162 0.0
O222 O 0.93867 0.40273 0.68704 0.0
O223 O 0.98171 0.34413 0.73282 0.0
C224 C 0.08769 0.38649 0.90196 0.0
C225 C 0.09666 0.42462 0.8982 0.0
C226 C 0.10476 0.38907 0.96957 0.0
C227 C 0.11012 0.44462 0.92977 0.0
C228 C 0.0916 0.36899 0.93794 0.0
C229 C 0.11431 0.42706 0.96579 0.0
C230 C 0.07265 0.36502 0.86927 0.0
C231 C 0.94586 0.33491 0.8074 0.0
H232 H 0.89186 0.34175 0.68942 0.0
H233 H 0.78167 0.42266 0.6424 0.0
H234 H 0.83425 0.31259 0.66145 0.0
H235 H 0.83937 0.45159 0.66943 0.0
H236 H 0.09334 0.43896 0.87089 0.0
H237 H 0.10841 0.37461 0.99678 0.0
H238 H 0.11735 0.47385 0.92604 0.0
H239 H 0.08458 0.33969 0.94153 0.0
Eu240 Eu 0.88318 0.80042 0.05016 0.0
Eu241 Eu 0.85933 0.73834 0.98553 0.0
C242 C 0.82 0.8218 0.98956 0.0
C243 C 0.87844 0.8655 0.13606 0.0
C244 C 0.8386 0.87493 0.13338 0.0
C245 C 0.87868 0.88654 0.20203 0.0
C246 C 0.81911 0.89058 0.16468 0.0
C247 C 0.8982 0.8711 0.17069 0.0
C248 C 0.83906 0.89684 0.19921 0.0
C249 C 0.8995 0.84842 0.10373 0.0
O250 O 0.91887 0.75744 0.97217 0.0
O251 O 0.9094 0.81718 0.99272 0.0
C252 C 0.92486 0.79327 0.96812 0.0
O253 O 0.93138 0.75749 0.05013 0.0
O254 O 0.86003 0.7191 0.92619 0.0
O255 O 0.83258 0.6858 0.97006 0.0
O256 O 0.89597 0.7074 0.03078 0.0
C257 C 0.92599 0.72132 0.04882 0.0
O258 O 0.84036 0.76099 0.07772 0.0
O259 O 0.80757 0.74422 0.02352 0.0
O260 O 0.83556 0.79644 0.96644 0.0
O261 O 0.90681 0.8124 0.1067 0.0
O262 O 0.88819 0.85836 0.06928 0.0
O263 O 0.82571 0.81926 0.02644 0.0
C264 C 0.86524 0.65261 0.92049 0.0
C265 C 0.87649 0.62269 0.94511 0.0
C266 C 0.88989 0.61651 0.86673 0.0
C267 C 0.89353 0.58968 0.9305 0.0
C268 C 0.87265 0.64935 0.88127 0.0
C269 C 0.89964 0.58593 0.89103 0.0
C270 C 0.84501 0.68686 0.93491 0.0
C271 C 0.80937 0.74768 0.06075 0.0
H272 H 0.82255 0.87021 0.10715 0.0
H273 H 0.89475 0.89119 0.22825 0.0
H274 H 0.78843 0.89777 0.16192 0.0
H275 H 0.92882 0.8636 0.17345 0.0
H276 H 0.87156 0.62445 0.9756 0.0
H277 H 0.89521 0.61487 0.8363 0.0
H278 H 0.90088 0.56668 0.94992 0.0
H279 H 0.86464 0.67209 0.86175 0.0
Eu280 Eu 0.53303 0.63685 0.24328 0.0
Eu281 Eu 0.46879 0.65611 0.3093 0.0
C282 C 0.47215 0.69941 0.22779 0.0
C283 C 0.61764 0.64587 0.17453 0.0
C284 C 0.61376 0.68464 0.167 0.0
C285 C 0.68401 0.64666 0.15142 0.0
C286 C 0.64463 0.70411 0.15114 0.0
C287 C 0.65307 0.62716 0.16696 0.0
C288 C 0.67993 0.68519 0.14291 0.0
C289 C 0.58565 0.62464 0.19122 0.0
O290 O 0.45188 0.60155 0.28431 0.0
O291 O 0.47415 0.61366 0.2244 0.0
C292 C 0.44919 0.5973 0.24735 0.0
O293 O 0.53124 0.58529 0.27963 0.0
O294 O 0.40884 0.6587 0.32972 0.0
O295 O 0.45577 0.67655 0.36643 0.0
O296 O 0.51238 0.61353 0.33518 0.0
C297 C 0.5277 0.58464 0.31681 0.0
O298 O 0.56304 0.67385 0.28698 0.0
O299 O 0.50876 0.7045 0.30965 0.0
O300 O 0.44868 0.68292 0.25209 0.0
O301 O 0.5902 0.61474 0.22702 0.0
O302 O 0.55019 0.63656 0.18338 0.0
O303 O 0.50953 0.69454 0.23212 0.0
C304 C 0.40322 0.64635 0.39678 0.0
C305 C 0.42297 0.64409 0.43222 0.0
C306 C 0.35112 0.61022 0.42435 0.0
C307 C 0.40674 0.62547 0.46345 0.0
C308 C 0.36729 0.6288 0.39314 0.0
C309 C 0.37026 0.60906 0.46005 0.0
C310 C 0.41914 0.66816 0.36432 0.0
C311 C 0.54652 0.70216 0.30545 0.0
H312 H 0.58689 0.69983 0.17323 0.0
H313 H 0.71086 0.63144 0.14517 0.0
H314 H 0.64094 0.73392 0.14525 0.0
H315 H 0.65674 0.59736 0.17291 0.0
H316 H 0.45065 0.65738 0.43615 0.0
H317 H 0.32317 0.59732 0.42077 0.0
H318 H 0.42202 0.62514 0.49066 0.0
H319 H 0.3513 0.62997 0.36634 0.0
Eu320 Eu 0.2731 0.48398 0.13935 0.0
Eu321 Eu 0.21048 0.54802 0.16492 0.0
C322 C 0.29887 0.54386 0.19857 0.0
C323 C 0.3316 0.39219 0.13988 0.0
C324 C 0.32967 0.38813 0.17982 0.0
C325 C 0.35731 0.32834 0.13545 0.0
C326 C 0.34217 0.35445 0.19753 0.0
C327 C 0.34498 0.36195 0.11783 0.0
C328 C 0.35648 0.32433 0.17549 0.0
C329 C 0.31827 0.42712 0.12067 0.0
O330 O 0.23238 0.56733 0.10864 0.0
O331 O 0.29279 0.53988 0.11374 0.0
C332 C 0.26963 0.56793 0.10181 0.0
O333 O 0.23273 0.49302 0.08979 0.0
O334 O 0.18891 0.60621 0.16839 0.0
O335 O 0.15512 0.56106 0.19203 0.0
O336 O 0.17991 0.50658 0.12602 0.0
C337 C 0.19507 0.49443 0.09382 0.0
O338 O 0.23195 0.45835 0.18268 0.0
O339 O 0.2209 0.51172 0.21641 0.0
O340 O 0.27027 0.56637 0.18607 0.0
O341 O 0.28122 0.42929 0.11268 0.0
O342 O 0.33124 0.45852 0.13429 0.0
O343 O 0.29842 0.50764 0.19265 0.0
C344 C 0.1205 0.612 0.16248 0.0
C345 C 0.09401 0.58852 0.1441 0.0
C346 C 0.08065 0.66625 0.14333 0.0
C347 C 0.0607 0.60383 0.12607 0.0
C348 C 0.1137 0.65095 0.1616 0.0
C349 C 0.05339 0.64283 0.12602 0.0
C350 C 0.15548 0.59652 0.18225 0.0
C351 C 0.22204 0.47511 0.21469 0.0
H352 H 0.31891 0.41112 0.19726 0.0
H353 H 0.36807 0.30555 0.11775 0.0
H354 H 0.34182 0.35242 0.22844 0.0
H355 H 0.34611 0.36442 0.08696 0.0
H356 H 0.09885 0.55833 0.14383 0.0
H357 H 0.07645 0.69651 0.1427 0.0
H358 H 0.04036 0.58517 0.11273 0.0
H359 H 0.134 0.66959 0.17508 0.0
Eu360 Eu 0.70469 0.99326 0.88244 0.0
Eu361 Eu 0.77064 0.05439 0.90561 0.0
C362 C 0.76703 0.97134 0.94348 0.0
C363 C 0.61681 0.92934 0.8847 0.0
C364 C 0.6142 0.92769 0.92477 0.0
C365 C 0.55536 0.8978 0.87956 0.0
C366 C 0.58256 0.91052 0.94211 0.0
C367 C 0.58692 0.91484 0.86231 0.0
C368 C 0.55323 0.89477 0.91959 0.0
C369 C 0.65013 0.94627 0.86563 0.0
O370 O 0.78709 0.03211 0.84871 0.0
O371 O 0.76325 0.97378 0.85761 0.0
C372 C 0.79007 0.99588 0.84369 0.0
O373 O 0.7092 0.03221 0.83255 0.0
O374 O 0.8307 0.07317 0.90732 0.0
O375 O 0.78442 0.10794 0.93129 0.0
O376 O 0.72657 0.08393 0.86612 0.0
C377 C 0.71168 0.06869 0.83531 0.0
O378 O 0.67633 0.03559 0.92276 0.0
O379 O 0.73142 0.04995 0.95564 0.0
O380 O 0.79027 0.99648 0.92869 0.0
O381 O 0.64716 0.98235 0.85907 0.0
O382 O 0.68475 0.93578 0.87777 0.0
O383 O 0.72941 0.97472 0.93875 0.0
C384 C 0.83602 0.13945 0.90089 0.0
C385 C 0.81172 0.17053 0.89093 0.0
C386 C 0.89113 0.17262 0.87547 0.0
C387 C 0.82717 0.20257 0.87395 0.0
C388 C 0.87577 0.14074 0.89263 0.0
C389 C 0.86713 0.20411 0.86636 0.0
C390 C 0.82075 0.10612 0.92084 0.0
C391 C 0.69354 0.05021 0.95272 0.0
H392 H 0.63685 0.93917 0.94254 0.0
H393 H 0.53283 0.88645 0.86156 0.0
H394 H 0.58159 0.90853 0.973 0.0
H395 H 0.58819 0.91633 0.83138 0.0
H396 H 0.78088 0.17048 0.89684 0.0
H397 H 0.92201 0.17281 0.86971 0.0
H398 H 0.80802 0.22654 0.86791 0.0
H399 H 0.89512 0.11722 0.89993 0.0
Eu400 Eu 0.718 0.98489 0.40231 0.0
Eu401 Eu 0.77994 0.04974 0.37901 0.0
C402 C 0.69373 0.04397 0.34078 0.0
C403 C 0.65655 0.89626 0.40146 0.0
C404 C 0.6552 0.89227 0.36152 0.0
C405 C 0.6296 0.83422 0.40855 0.0
C406 C 0.64064 0.85952 0.3452 0.0
C407 C 0.64399 0.86687 0.42475 0.0
C408 C 0.62745 0.83019 0.3686 0.0
C409 C 0.67174 0.93021 0.41961 0.0
O410 O 0.75696 0.06569 0.43609 0.0
O411 O 0.69687 0.04158 0.42688 0.0
C412 C 0.7196 0.06703 0.442 0.0
O413 O 0.75794 0.99056 0.45229 0.0
O414 O 0.79721 0.1085 0.3763 0.0
O415 O 0.83607 0.06438 0.35555 0.0
O416 O 0.81114 1.00707 0.41816 0.0
C417 C 0.79557 0.99345 0.44941 0.0
O418 O 0.76179 0.95902 0.36086 0.0
O419 O 0.7757 1.01267 0.32803 0.0
O420 O 0.71932 0.06701 0.35555 0.0
O421 O 0.70893 0.92946 0.42717 0.0
O422 O 0.65949 0.96278 0.40612 0.0
O423 O 0.69731 1.00776 0.34621 0.0
C424 C 0.86512 0.11674 0.38551 0.0
C425 C 0.8962 0.0946 0.40062 0.0
C426 C 0.89735 0.17266 0.40778 0.0
C427 C 0.92785 0.11144 0.41854 0.0
C428 C 0.86589 0.15588 0.38968 0.0
C429 C 0.92913 0.15073 0.42169 0.0
C430 C 0.83226 0.09979 0.36465 0.0
C431 C 0.77422 0.97602 0.32985 0.0
H432 H 0.66506 0.91458 0.34301 0.0
H433 H 0.61987 0.81211 0.42735 0.0
H434 H 0.63875 0.8576 0.31436 0.0
H435 H 0.64516 0.86924 0.45561 0.0
H436 H 0.8964 0.06429 0.3982 0.0
H437 H 0.89685 0.20293 0.41072 0.0
H438 H 0.95177 0.09377 0.42906 0.0
H439 H 0.84223 0.17358 0.37862 0.0
Eu440 Eu 0.21527 0.55052 0.63913 0.0
Eu441 Eu 0.28091 0.48656 0.66075 0.0
C442 C 0.19512 0.49099 0.70013 0.0
C443 C 0.15372 0.64122 0.63993 0.0
C444 C 0.15592 0.64602 0.67972 0.0
C445 C 0.12732 0.70475 0.63307 0.0
C446 C 0.14316 0.67991 0.69616 0.0
C447 C 0.13988 0.67095 0.61675 0.0
C448 C 0.12835 0.70949 0.67295 0.0
C449 C 0.16721 0.60617 0.62181 0.0
O450 O 0.25475 0.46875 0.60545 0.0
O451 O 0.1943 0.49406 0.61624 0.0
C452 C 0.21704 0.46755 0.60135 0.0
O453 O 0.25291 0.54361 0.5881 0.0
O454 O 0.30253 0.42825 0.66293 0.0
O455 O 0.33847 0.4729 0.68394 0.0
O456 O 0.30856 0.52914 0.62071 0.0
C457 C 0.29072 0.54385 0.59049 0.0
O458 O 0.25867 0.57658 0.68036 0.0
O459 O 0.27569 0.52263 0.71236 0.0
O460 O 0.22295 0.46849 0.68658 0.0
O461 O 0.20372 0.60504 0.61222 0.0
O462 O 0.15622 0.57462 0.6371 0.0
O463 O 0.19657 0.52727 0.69487 0.0
C464 C 0.37003 0.42261 0.65221 0.0
C465 C 0.38768 0.44466 0.62401 0.0
C466 C 0.41409 0.37072 0.63685 0.0
C467 C 0.41849 0.42981 0.60247 0.0
C468 C 0.38357 0.38565 0.65856 0.0
C469 C 0.43162 0.39255 0.60842 0.0
C470 C 0.33708 0.43754 0.67456 0.0
C471 C 0.27282 0.55928 0.71109 0.0
H472 H 0.16705 0.62346 0.69804 0.0
H473 H 0.11617 0.7271 0.6145 0.0
H474 H 0.1437 0.68252 0.72699 0.0
H475 H 0.13856 0.66793 0.58596 0.0
H476 H 0.37747 0.47324 0.61845 0.0
H477 H 0.42403 0.34201 0.64221 0.0
H478 H 0.43149 0.44708 0.58064 0.0
H479 H 0.37034 0.36824 0.68015 0.0
C480 C 0.16673 0.37369 0.60116 0.0
C481 C 0.18189 0.3561 0.56833 0.0
C482 C 0.17601 0.41095 0.61034 0.0
C483 C 0.20151 0.43162 0.58751 0.0
H484 H 0.14703 0.35887 0.6195 0.0
H485 H 0.16415 0.42319 0.63615 0.0
S486 S 0.25143 0.3978 0.50031 0.0
N487 N 0.22489 0.36217 0.51383 0.0
N488 N 0.24323 0.43119 0.53197 0.0
C489 C 0.21772 0.414 0.55539 0.0
C490 C 0.20777 0.37653 0.54563 0.0
C491 C 0.85975 1.00496 0.82617 0.0
C492 C 0.82823 0.98052 0.83042 0.0
C493 C 0.8971 0.99147 0.81675 0.0
C494 C 0.90444 0.95307 0.81129 0.0
H495 H 0.8558 0.03492 0.83037 0.0
H496 H 0.92015 1.01128 0.81294 0.0
S497 S 0.8327 0.87724 0.81732 0.0
N498 N 0.80746 0.91585 0.82777 0.0
N499 N 0.87737 0.89079 0.80898 0.0
C500 C 0.87341 0.92834 0.81493 0.0
C501 C 0.83542 0.94196 0.82483 0.0
C502 C 0.27442 0.67181 0.07528 0.0
C503 C 0.31363 0.67625 0.06655 0.0
C504 C 0.26052 0.63645 0.08562 0.0
C505 C 0.28532 0.60408 0.08766 0.0
H506 H 0.2542 0.6956 0.07327 0.0
H507 H 0.22994 0.63473 0.0923 0.0
S508 S 0.39077 0.60138 0.06655 0.0
N509 N 0.37707 0.64569 0.05942 0.0
N510 N 0.35132 0.5795 0.07986 0.0
C511 C 0.32474 0.60842 0.07902 0.0
C512 C 0.33875 0.64439 0.06816 0.0
C513 C 0.58963 0.08101 0.34161 0.0
C514 C 0.57564 0.07105 0.30526 0.0
C515 C 0.62871 0.07415 0.35213 0.0
C516 C 0.65541 0.05765 0.32657 0.0
H517 H 0.57049 0.09464 0.36197 0.0
H518 H 0.63758 0.08043 0.38103 0.0
S519 S 0.63348 0.02377 0.22918 0.0
N520 N 0.59173 0.04183 0.24433 0.0
N521 N 0.66488 0.02931 0.2645 0.0
C522 C 0.64175 0.04676 0.29062 0.0
C523 C 0.60204 0.0535 0.27983 0.0
C524 C 0.6786 0.16665 0.4426 0.0
C525 C 0.68765 0.17886 0.47972 0.0
C526 C 0.6869 0.1295 0.43132 0.0
C527 C 0.70389 0.10296 0.45684 0.0
H528 H 0.66465 0.18574 0.42216 0.0
H529 H 0.68149 0.12205 0.4019 0.0
S530 S 0.73592 0.12083 0.55617 0.0
N531 N 0.7166 0.16141 0.54141 0.0
N532 N 0.73178 0.09184 0.51981 0.0
C533 C 0.71381 0.11487 0.49363 0.0
C534 C 0.70562 0.15265 0.5052 0.0
C535 C 0.08742 0.48713 0.72402 0.0
C536 C 0.0826 0.44941 0.73391 0.0
C537 C 0.12414 0.50025 0.71414 0.0
C538 C 0.15753 0.47611 0.71363 0.0
H539 H 0.06285 0.50677 0.72468 0.0
H540 H 0.1261 0.52968 0.70649 0.0
S541 S 0.15987 0.37469 0.73843 0.0
N542 N 0.11402 0.38818 0.74406 0.0
N543 N 0.18271 0.41248 0.72418 0.0
C544 C 0.15284 0.43822 0.72341 0.0
C545 C 0.1155 0.42501 0.73396 0.0
C546 C 0.81047 0.91449 0.9357 0.0
C547 C 0.78219 0.93432 0.957 0.0
C548 C 0.82051 0.87678 0.94437 0.0
C549 C 0.80327 0.85799 0.97518 0.0
H550 H 0.82418 0.92787 0.91157 0.0
H551 H 0.84269 0.86267 0.9276 0.0
S552 S 0.72674 0.8971 0.03879 0.0
N553 N 0.73595 0.93188 1.00896 0.0
N554 N 0.75587 0.86178 0.02626 0.0
C555 C 0.77472 0.87749 0.99635 0.0
C556 C 0.76399 0.91545 0.98706 0.0
C557 C 0.39394 0.59545 0.19997 0.0
C558 C 0.41288 0.58062 0.23279 0.0
C559 C 0.35584 0.58525 0.19036 0.0
C560 C 0.33585 0.55902 0.21262 0.0
H561 H 0.40822 0.61573 0.18211 0.0
H562 H 0.34238 0.59716 0.16477 0.0
S563 S 0.37358 0.50933 0.29919 0.0
N564 N 0.40908 0.53704 0.28652 0.0
N565 N 0.3385 0.51675 0.26732 0.0
C566 C 0.35497 0.54292 0.24453 0.0
C567 C 0.39323 0.55391 0.25484 0.0
C568 C 0.55035 0.22883 0.35645 0.0
C569 C 0.5309 0.19484 0.35627 0.0
C570 C 0.56386 0.24389 0.3909 0.0
C571 C 0.55897 0.22514 0.4263 0.0
H572 H 0.55419 0.24435 0.33004 0.0
H573 H 0.57853 0.27042 0.38962 0.0
S574 S 0.51178 0.13375 0.44014 0.0
N575 N 0.50827 0.14206 0.39371 0.0
N576 N 0.53467 0.16981 0.45828 0.0
C577 C 0.54056 0.19048 0.42613 0.0
C578 C 0.52622 0.17552 0.39115 0.0
C579 C 0.06199 0.34197 0.63091 0.0
C580 C 0.04753 0.30953 0.61363 0.0
C581 C 0.05533 0.34964 0.66982 0.0
C582 C 0.03336 0.32552 0.69274 0.0
H583 H 0.07894 0.36137 0.61444 0.0
H584 H 0.0661 0.37545 0.68152 0.0
S585 S 0.98638 0.23856 0.66096 0.0
N586 N 1.00886 0.25386 0.62256 0.0
N587 N 0.99541 0.26918 0.69491 0.0
C588 C 0.01789 0.29365 0.67561 0.0
C589 C 0.02513 0.28547 0.63632 0.0
C590 C 0.93721 0.85208 0.87802 0.0
C591 C 0.95822 0.82763 0.85389 0.0
C592 C 0.92843 0.84168 0.91576 0.0
C593 C 0.93991 0.80621 0.93063 0.0
H594 H 0.92869 0.88001 0.86818 0.0
H595 H 0.91205 0.86139 0.93315 0.0
S596 S 0.99814 0.73316 0.87957 0.0
N597 N 0.99259 0.76772 0.84807 0.0
N598 N 0.97513 0.74731 0.91837 0.0
C599 C 0.9616 0.78181 0.90682 0.0
C600 C 0.97101 0.79273 0.86866 0.0
C601 C 0.42548 0.69815 0.17213 0.0
C602 C 0.45869 0.713 0.18948 0.0
C603 C 0.41714 0.70452 0.13308 0.0
C604 C 0.44132 0.72657 0.1102 0.0
H605 H 0.40622 0.6809 0.18858 0.0
H606 H 0.39085 0.6932 0.12114 0.0
S607 S 0.52973 0.77477 0.14236 0.0
N608 N 0.51479 0.7524 0.18086 0.0
N609 N 0.49821 0.76521 0.10817 0.0
C610 C 0.47371 0.74266 0.12749 0.0
C611 C 0.48257 0.73576 0.16691 0.0
C612 C 0.17384 0.40194 0.27711 0.0
C613 C 0.17557 0.41824 0.31367 0.0
C614 C 0.19067 0.41936 0.2452 0.0
C615 C 0.2097 0.45367 0.24886 0.0
H616 H 0.15803 0.37637 0.27287 0.0
H617 H 0.18719 0.4068 0.21732 0.0
S618 S 0.22804 0.50419 0.33952 0.0
N619 N 0.20202 0.46796 0.35237 0.0
N620 N 0.23343 0.5007 0.29281 0.0
C621 C 0.21366 0.46889 0.28571 0.0
C622 C 0.19663 0.45121 0.31799 0.0
C623 C 0.87314 0.94267 0.50928 0.0
C624 C 0.85925 0.94788 0.54672 0.0
C625 C 0.85387 0.95951 0.47767 0.0
C626 C 0.81969 0.98135 0.48257 0.0
H627 H 0.8986 0.92486 0.50439 0.0
H628 H 0.86464 0.95386 0.44921 0.0
S629 S 0.77275 1.00524 0.57473 0.0
N630 N 0.81047 0.97798 0.58686 0.0
N631 N 0.77412 1.00915 0.5277 0.0
C632 C 0.8064 0.98779 0.51994 0.0
C633 C 0.82621 0.97117 0.55198 0.0
C634 C 0.30035 0.61721 0.74115 0.0
C635 C 0.28684 0.58037 0.74486 0.0
C636 C 0.31791 0.63535 0.77227 0.0
C637 C 0.32257 0.61722 0.80804 0.0
H638 H 0.29868 0.63158 0.71376 0.0
H639 H 0.32914 0.6632 0.76795 0.0
S640 S 0.2865 0.52339 0.83442 0.0
N641 N 0.27535 0.52833 0.78865 0.0
N642 N 0.3083 0.56234 0.84649 0.0
C643 C 0.30727 0.58133 0.81259 0.0
C644 C 0.28942 0.56295 0.78119 0.0
C645 C 0.61222 0.07161 0.02328 0.0
C646 C 0.62855 0.09935 0.04646 0.0
C647 C 0.63289 0.05626 0.99226 0.0
C648 C 0.67077 0.06771 0.98398 0.0
H649 H 0.58324 0.06195 0.02901 0.0
H650 H 0.61945 0.03482 0.9752 0.0
S651 S 0.72637 0.1394 0.03654 0.0
N652 N 0.68469 0.13733 0.05932 0.0
N653 N 0.72334 0.10902 1.00134 0.0
C654 C 0.68721 0.09552 1.00706 0.0
C655 C 0.66617 0.11118 0.03824 0.0
C656 C 0.67853 0.09438 0.73484 0.0
C657 C 0.66736 0.13243 0.73758 0.0
C658 C 0.69346 0.07452 0.7665 0.0
C659 C 0.69818 0.09194 0.80223 0.0
H660 H 0.67469 0.0795 0.70821 0.0
H661 H 0.70102 0.04504 0.76286 0.0
S662 S 0.67591 0.19212 0.82351 0.0
N663 N 0.66367 0.18759 0.77802 0.0
N664 N 0.69222 0.15023 0.83786 0.0
C665 C 0.68835 0.13042 0.80507 0.0
C666 C 0.67269 0.15063 0.77271 0.0
C667 C 0.1867 0.48121 0.02445 0.0
C668 C 0.17093 0.48107 0.06152 0.0
C669 C 0.16743 0.46493 0.99359 0.0
C670 C 0.13172 0.44739 0.99849 0.0
H671 H 0.21471 0.49339 0.01924 0.0
H672 H 0.18138 0.46486 0.96592 0.0
S673 S 0.07629 0.44176 0.08885 0.0
N674 N 0.11613 0.46392 0.10083 0.0
N675 N 0.07993 0.43289 0.04268 0.0
C676 C 0.11482 0.44813 0.03504 0.0
C677 C 0.13433 0.46519 0.06654 0.0
C678 C 0.80532 0.91863 0.30039 0.0
C679 C 0.7871 0.95425 0.29606 0.0
C680 C 0.82149 0.89981 0.26883 0.0
C681 C 0.81929 0.91563 0.23179 0.0
H682 H 0.8084 0.90585 0.3285 0.0
H683 H 0.83621 0.87287 0.27347 0.0
S684 S 0.77204 1.00695 0.20481 0.0
N685 N 0.76588 1.00361 0.25146 0.0
N686 N 0.79612 0.96826 0.19248 0.0
C687 C 0.79983 0.95053 0.22694 0.0
C688 C 0.78378 0.96983 0.25898 0.0
C689 C 0.35062 0.55084 0.54992 0.0
C690 C 0.31215 0.56181 0.55875 0.0
C691 C 0.36962 0.56635 0.51812 0.0
C692 C 0.35073 0.59329 0.49419 0.0
H693 H 0.36579 0.52955 0.56706 0.0
H694 H 0.39895 0.55668 0.51178 0.0
S695 S 0.25216 0.6353 0.50802 0.0
N696 N 0.25737 0.60397 0.54279 0.0
N697 N 0.29306 0.63286 0.48378 0.0
C698 C 0.31295 0.60547 0.50368 0.0
C699 C 0.29368 0.58981 0.53575 0.0
C700 C 0.2335 0.20203 0.47854 0.0
C701 C 0.2063 0.22593 0.45938 0.0
C702 C 0.26372 0.18364 0.45911 0.0
C703 C 0.26842 0.18836 0.41953 0.0
H704 H 0.23143 0.19695 0.50908 0.0
H705 H 0.28372 0.16565 0.47533 0.0
S706 S 0.20597 0.24809 0.35544 0.0
N707 N 0.18657 0.25357 0.39816 0.0
N708 N 0.24366 0.21888 0.36153 0.0
C709 C 0.24194 0.21249 0.39983 0.0
C710 C 0.21079 0.23119 0.4197 0.0
C711 C 0.04938 0.05541 0.70472 0.0
C712 C 0.06025 0.05484 0.66611 0.0
C713 C 0.03523 0.02337 0.72277 0.0
C714 C 0.03102 0.98931 0.70298 0.0
H715 H 0.05301 0.08054 0.72154 0.0
H716 H 0.02808 0.02533 0.75279 0.0
S717 S 0.05216 0.97413 0.60027 0.0
N718 N 0.06363 1.01826 0.60779 0.0
N719 N 0.03679 0.95785 0.6417 0.0
C720 C 0.04035 0.98875 0.66388 0.0
C721 C 0.05513 1.02148 0.64551 0.0
C722 C 0.22 0.84228 0.95327 0.0
C723 C 0.21688 0.84108 0.91328 0.0
C724 C 0.25074 0.82399 0.97264 0.0
C725 C 0.28008 0.80381 0.95296 0.0
H726 H 0.19839 0.85752 0.96982 0.0
H727 H 0.25159 0.82634 1.00352 0.0
S728 S 0.28477 0.79139 0.84779 0.0
N729 N 0.24503 0.81754 0.85431 0.0
N730 N 0.30338 0.78318 0.89084 0.0
C731 C 0.27708 0.80193 0.91285 0.0
C732 C 0.24533 0.82045 0.89302 0.0
C733 C 0.41177 0.02299 0.2175 0.0
C734 C 0.43821 0.0472 0.20009 0.0
C735 C 0.39691 0.99229 0.1981 0.0
C736 C 0.40791 0.98416 0.1604 0.0
H737 H 0.40234 0.02767 0.24661 0.0
H738 H 0.37702 0.97437 0.21309 0.0
S739 S 0.47616 0.03867 0.10147 0.0
N740 N 0.47476 0.06104 0.14269 0.0
N741 N 0.44662 1.00306 0.10595 0.0
C742 C 0.43425 1.0081 0.14239 0.0
C743 C 0.44929 0.03975 0.16221 0.0
C744 C 0.74925 0.31964 0.64405 0.0
C745 C 0.77125 0.34853 0.62797 0.0
C746 C 0.71866 0.3035 0.62337 0.0
C747 C 0.70978 0.31525 0.58571 0.0
H748 H 0.75566 0.30958 0.67279 0.0
H749 H 0.70261 0.2811 0.63651 0.0
S750 S 0.75878 0.39007 0.53094 0.0
N751 N 0.78194 0.38814 0.57241 0.0
N752 N 0.72497 0.3582 0.53376 0.0
C753 C 0.73152 0.34429 0.56962 0.0
C754 C 0.76215 0.36081 0.59067 0.0
C755 C 0.96343 0.49817 0.87377 0.0
C756 C 0.94617 0.48287 0.84101 0.0
C757 C 0.94796 0.53122 0.89038 0.0
C758 C 0.91466 0.54983 0.87485 0.0
H759 H 0.98979 0.48539 0.88571 0.0
H760 H 0.96279 0.54287 0.91483 0.0
S761 S 0.85531 0.5174 0.79307 0.0
N762 N 0.89183 0.48653 0.79619 0.0
N763 N 0.86256 0.54776 0.82766 0.0
C764 C 0.89612 0.53349 0.84338 0.0
C765 C 0.91192 0.50025 0.82643 0.0
C766 C 0.78121 0.71857 0.11948 0.0
C767 C 0.77568 0.73577 0.08345 0.0
C768 C 0.74991 0.703 0.1391 0.0
C769 C 0.71196 0.70486 0.1237 0.0
H770 H 0.8101 0.71571 0.13186 0.0
H771 H 0.7555 0.68888 0.16622 0.0
S772 S 0.68167 0.74972 0.03181 0.0
N773 N 0.72903 0.75574 0.03427 0.0
N774 N 0.67039 0.72682 0.07126 0.0
C775 C 0.70585 0.72345 0.08853 0.0
C776 C 0.73767 0.7388 0.06837 0.0
C777 C 0.57334 0.51927 0.39228 0.0
C778 C 0.57578 0.48477 0.37285 0.0
C779 C 0.55624 0.55146 0.37477 0.0
C780 C 0.54109 0.55004 0.33734 0.0
H781 H 0.58594 0.52168 0.4206 0.0
H782 H 0.55627 0.57783 0.39002 0.0
S783 S 0.53454 0.46478 0.2772 0.0
N784 N 0.55762 0.45009 0.31629 0.0
N785 N 0.52544 0.51006 0.28344 0.0
C786 C 0.54138 0.51508 0.31868 0.0
C787 C 0.55877 0.48259 0.33641 0.0
C788 C 0.4117 0.27837 0.1823 0.0
C789 C 0.37443 0.29026 0.19387 0.0
C790 C 0.43054 0.24723 0.19919 0.0
C791 C 0.41297 0.22631 0.22835 0.0
H792 H 0.42689 0.29373 0.16039 0.0
H793 H 0.45938 0.23959 0.18917 0.0
S794 S 0.31517 0.24512 0.26872 0.0
N795 N 0.32007 0.27842 0.23602 0.0
N796 N 0.35579 0.21932 0.26786 0.0
C797 C 0.37541 0.23736 0.23996 0.0
C798 C 0.35617 0.26958 0.22285 0.0
C799 C 0.9371 0.28392 0.85514 0.0
C800 C 0.92251 0.30417 0.82321 0.0
C801 C 0.9185 0.25224 0.86907 0.0
C802 C 0.88464 0.23911 0.8515 0.0
H803 H 0.96347 0.29242 0.86943 0.0
H804 H 0.93098 0.23775 0.8938 0.0
S805 S 0.83467 0.28188 0.76663 0.0
N806 N 0.87193 0.30922 0.77445 0.0
N807 N 0.83709 0.24899 0.80024 0.0
C808 C 0.86917 0.25949 0.8199 0.0
C809 C 0.88808 0.29216 0.80585 0.0
C810 C 1.0061 0.6492 0.07082 0.0
C811 C 0.01751 0.65939 0.10809 0.0
C812 C 0.97459 0.66769 0.05214 0.0
C813 C 0.95382 0.69695 0.07019 0.0
H814 H 0.02265 0.62799 0.05541 0.0
H815 H 0.96779 0.66045 0.02285 0.0
S816 S 0.96779 0.73004 0.16943 0.0
N817 N 1.00207 0.69726 0.16382 0.0
N818 N 0.94385 0.73251 0.12837 0.0
C819 C 0.96348 0.70581 0.10805 0.0
C820 C 0.99508 0.6869 0.12711 0.0
C821 C 0.57292 0.78529 0.36664 0.0
C822 C 0.60873 0.7966 0.35199 0.0
C823 C 0.55382 0.75437 0.35176 0.0
C824 C 0.56967 0.73303 0.32163 0.0
H825 H 0.55906 0.80093 0.38947 0.0
H826 H 0.52612 0.74727 0.36402 0.0
S827 S 0.66319 0.75026 0.27331 0.0
N828 N 0.65983 0.78358 0.30588 0.0
N829 N 0.62367 0.72526 0.27773 0.0
C830 C 0.60576 0.74358 0.3069 0.0
C831 C 0.62523 0.77547 0.32198 0.0
C832 C 0.53106 0.37336 0.56468 0.0
C833 C 0.52606 0.33842 0.547 0.0
C834 C 0.4999 0.3918 0.58325 0.0
C835 C 0.46295 0.37578 0.58467 0.0
H836 H 0.55956 0.38553 0.56596 0.0
H837 H 0.50518 0.4178 0.59808 0.0
S838 S 0.43315 0.28844 0.53693 0.0
N839 N 0.47998 0.29123 0.52778 0.0
N840 N 0.42195 0.32574 0.56275 0.0
C841 C 0.45705 0.3423 0.56485 0.0
C842 C 0.48848 0.32368 0.54595 0.0
C843 C 0.07246 0.75476 0.67771 0.0
C844 C 0.10999 0.74363 0.68999 0.0
C845 C 0.05304 0.78563 0.69373 0.0
C846 C 0.07025 0.807 0.72269 0.0
H847 H 0.05746 0.7389 0.65606 0.0
H848 H 0.02393 0.79254 0.68341 0.0
S849 S 0.1688 0.79068 0.7641 0.0
N850 N 0.1644 0.75702 0.73216 0.0
N851 N 0.12759 0.81558 0.76236 0.0
C852 C 0.10819 0.79692 0.73474 0.0
C853 C 0.12803 0.76499 0.71852 0.0
C854 C 0.46819 0.86779 0.98281 0.0
C855 C 0.46155 0.83056 0.97166 0.0
C856 C 0.49812 0.88851 0.96619 0.0
C857 C 0.52185 0.87291 0.93742 0.0
H858 H 0.45069 0.88072 1.00497 0.0
H859 H 0.50254 0.917 0.97567 0.0
S860 S 0.51611 0.77692 0.89767 0.0
N861 N 0.48108 0.77933 0.92956 0.0
N862 N 0.53693 0.81812 0.89883 0.0
C863 C 0.51525 0.83592 0.92591 0.0
C864 C 0.48521 0.81482 0.94288 0.0
C865 C 0.98033 0.15618 0.47353 0.0
C866 C 0.96378 0.16904 0.4386 0.0
C867 C 1.0117 0.17461 0.49065 0.0
C868 C 0.02738 0.20667 0.47352 0.0
H869 H 0.96824 0.13236 0.48828 0.0
H870 H 0.02276 0.16457 0.51806 0.0
S871 S 0.99866 0.24818 0.37948 0.0
N872 N 0.96873 0.21319 0.3856 0.0
N873 N 0.02666 0.24814 0.418 0.0
C874 C 0.01221 0.21873 0.4379 0.0
C875 C 0.9807 0.19988 0.4204 0.0
loop_
_geom_bond_atom_site_label_1
_geom_bond_atom_site_label_2
_geom_bond_distance
_geom_bond_site_symmetry_2
_ccdc_geom_bond_type
Eu0 C9 2.828 . S
Eu0 O11 2.392 . S
Eu0 O13 2.418 . S
Eu0 O18 2.373 . S
Eu0 O21 2.488 . S
Eu0 O22 2.471 . S
Eu0 O23 2.349 . S
Eu1 O10 2.373 . S
Eu1 O14 2.488 . S
Eu1 O15 2.471 . S
Eu1 O16 2.349 . S
Eu1 O19 2.392 . S
Eu1 O20 2.418 . S
Eu1 C30 2.828 . S
C2 O20 1.244 . S
C2 O23 1.265 . S
C3 C4 1.379 . S
C3 C7 1.373 . S
C3 C9 1.505 . S
C4 C3 1.379 . S
C4 C6 1.369 . S
C4 H32 0.930 . S
C5 C7 1.383 . S
C5 C8 1.382 . S
C5 H33 0.930 . S
C6 C4 1.369 . S
C6 C8 1.392 . S
C6 H34 0.930 . S
C7 C3 1.373 . S
C7 C5 1.383 . S
C7 H35 0.931 . S
C8 C5 1.382 . S
C8 C6 1.392 . S
C9 Eu0 2.828 . S
C9 C3 1.505 . S
C9 O21 1.249 . S
C9 O22 1.244 . S
O10 Eu1 2.373 . S
O10 C12 1.258 . S
O11 Eu0 2.392 . S
O11 C12 1.242 . S
C12 O10 1.258 . S
C12 O11 1.242 . S
O13 Eu0 2.418 . S
O13 C17 1.244 . S
O14 Eu1 2.488 . S
O14 C30 1.249 . S
O15 Eu1 2.471 . S
O15 C30 1.244 . S
O16 Eu1 2.349 . S
O16 C17 1.265 . S
C17 O13 1.244 . S
C17 O16 1.265 . S
O18 Eu0 2.373 . S
O18 C31 1.258 . S
O19 Eu1 2.392 . S
O19 C31 1.242 . S
O20 Eu1 2.418 . S
O20 C2 1.244 . S
O21 Eu0 2.488 . S
O21 C9 1.249 . S
O22 Eu0 2.471 . S
O22 C9 1.244 . S
O23 Eu0 2.349 . S
O23 C2 1.265 . S
C24 C25 1.379 . S
C24 C28 1.373 . S
C24 C30 1.505 . S
C25 C24 1.379 . S
C25 C27 1.369 . S
C25 H36 0.930 . S
C26 C28 1.383 . S
C26 C29 1.382 . S
C26 H37 0.930 . S
C27 C25 1.369 . S
C27 C29 1.392 . S
C27 H38 0.930 . S
C28 C24 1.373 . S
C28 C26 1.383 . S
C28 H39 0.931 . S
C29 C26 1.382 . S
C29 C27 1.392 . S
C30 Eu1 2.828 . S
C30 O14 1.249 . S
C30 O15 1.244 . S
C30 C24 1.505 . S
C31 O18 1.258 . S
C31 O19 1.242 . S
H32 C4 0.930 . S
H33 C5 0.930 . S
H34 C6 0.930 . S
H35 C7 0.931 . S
H36 C25 0.930 . S
H37 C26 0.930 . S
H38 C27 0.930 . S
H39 C28 0.931 . S
Eu40 C49 2.828 . S
Eu40 O51 2.392 . S
Eu40 O53 2.418 1_655 S
Eu40 O58 2.373 . S
Eu40 O61 2.488 . S
Eu40 O62 2.471 . S
Eu40 O63 2.349 . S
Eu41 O50 2.373 . S
Eu41 O54 2.488 . S
Eu41 O55 2.471 . S
Eu41 O56 2.349 . S
Eu41 O59 2.392 . S
Eu41 O60 2.418 1_455 S
Eu41 C70 2.828 . S
C42 O60 1.244 . S
C42 O63 1.265 . S
C43 C44 1.379 . S
C43 C47 1.373 . S
C43 C49 1.505 . S
C44 C43 1.379 . S
C44 C46 1.369 . S
C44 H72 0.930 . S
C45 C47 1.383 . S
C45 C48 1.382 . S
C45 H73 0.930 . S
C46 C44 1.369 . S
C46 C48 1.392 . S
C46 H74 0.930 . S
C47 C43 1.373 . S
C47 C45 1.383 . S
C47 H75 0.931 . S
C48 C45 1.382 . S
C48 C46 1.392 . S
C49 Eu40 2.828 . S
C49 C43 1.505 . S
C49 O61 1.249 . S
C49 O62 1.244 . S
O50 Eu41 2.373 . S
O50 C52 1.258 1_455 S
O51 Eu40 2.392 . S
O51 C52 1.242 . S
C52 O50 1.258 1_655 S
C52 O51 1.242 . S
O53 Eu40 2.418 1_455 S
O53 C57 1.244 . S
O54 Eu41 2.488 . S
O54 C70 1.249 . S
O55 Eu41 2.471 . S
O55 C70 1.244 . S
O56 Eu41 2.349 . S
O56 C57 1.265 . S
C57 O53 1.244 . S
C57 O56 1.265 . S
O58 Eu40 2.373 . S
O58 C71 1.258 1_655 S
O59 Eu41 2.392 . S
O59 C71 1.242 . S
O60 Eu41 2.418 1_655 S
O60 C42 1.244 . S
O61 Eu40 2.488 . S
O61 C49 1.249 . S
O62 Eu40 2.471 . S
O62 C49 1.244 . S
O63 Eu40 2.349 . S
O63 C42 1.265 . S
C64 C65 1.379 . S
C64 C68 1.373 . S
C64 C70 1.505 . S
C65 C64 1.379 . S
C65 C67 1.369 . S
C65 H76 0.930 . S
C66 C68 1.383 . S
C66 C69 1.382 . S
C66 H77 0.930 . S
C67 C65 1.369 . S
C67 C69 1.392 . S
C67 H78 0.930 . S
C68 C64 1.373 . S
C68 C66 1.383 . S
C68 H79 0.931 . S
C69 C66 1.382 . S
C69 C67 1.392 . S
C70 Eu41 2.828 . S
C70 O54 1.249 . S
C70 O55 1.244 . S
C70 C64 1.505 . S
C71 O58 1.258 1_455 S
C71 O59 1.242 . S
H72 C44 0.930 . S
H73 C45 0.930 . S
H74 C46 0.930 . S
H75 C47 0.931 . S
H76 C65 0.930 . S
H77 C66 0.930 . S
H78 C67 0.930 . S
H79 C68 0.931 . S
Eu80 C89 2.828 . S
Eu80 O91 2.392 . S
Eu80 O93 2.418 1_554 S
Eu80 O98 2.373 . S
Eu80 O101 2.488 . S
Eu80 O102 2.471 . S
Eu80 O103 2.349 . S
Eu81 O90 2.373 . S
Eu81 O94 2.488 . S
Eu81 O95 2.471 . S
Eu81 O96 2.349 . S
Eu81 O99 2.392 . S
Eu81 O100 2.418 1_556 S
Eu81 C110 2.828 . S
C82 O100 1.244 . S
C82 O103 1.265 . S
C83 C84 1.379 . S
C83 C87 1.373 . S
C83 C89 1.505 . S
C84 C83 1.379 . S
C84 C86 1.369 . S
C84 H112 0.930 . S
C85 C87 1.383 . S
C85 C88 1.382 . S
C85 H113 0.930 . S
C86 C84 1.369 . S
C86 C88 1.392 . S
C86 H114 0.930 . S
C87 C83 1.373 . S
C87 C85 1.383 . S
C87 H115 0.931 . S
C88 C85 1.382 . S
C88 C86 1.392 . S
C89 Eu80 2.828 . S
C89 C83 1.505 . S
C89 O101 1.249 . S
C89 O102 1.244 . S
O90 Eu81 2.373 . S
O90 C92 1.258 1_556 S
O91 Eu80 2.392 . S
O91 C92 1.242 . S
C92 O90 1.258 1_554 S
C92 O91 1.242 . S
O93 Eu80 2.418 1_556 S
O93 C97 1.244 . S
O94 Eu81 2.488 . S
O94 C110 1.249 . S
O95 Eu81 2.471 . S
O95 C110 1.244 . S
O96 Eu81 2.349 . S
O96 C97 1.265 . S
C97 O93 1.244 . S
C97 O96 1.265 . S
O98 Eu80 2.373 . S
O98 C111 1.258 1_554 S
O99 Eu81 2.392 . S
O99 C111 1.242 . S
O100 Eu81 2.418 1_554 S
O100 C82 1.244 . S
O101 Eu80 2.488 . S
O101 C89 1.249 . S
O102 Eu80 2.471 . S
O102 C89 1.244 . S
O103 Eu80 2.349 . S
O103 C82 1.265 . S
C104 C105 1.379 . S
C104 C108 1.373 . S
C104 C110 1.505 . S
C105 C104 1.379 . S
C105 C107 1.369 . S
C105 H116 0.930 . S
C106 C108 1.383 . S
C106 C109 1.382 . S
C106 H117 0.930 . S
C107 C105 1.369 . S
C107 C109 1.392 . S
C107 H118 0.930 . S
C108 C104 1.373 . S
C108 C106 1.383 . S
C108 H119 0.931 . S
C109 C106 1.382 . S
C109 C107 1.392 . S
C110 Eu81 2.828 . S
C110 O94 1.249 . S
C110 O95 1.244 . S
C110 C104 1.505 . S
C111 O98 1.258 1_556 S
C111 O99 1.242 . S
H112 C84 0.930 . S
H113 C85 0.930 . S
H114 C86 0.930 . S
H115 C87 0.931 . S
H116 C105 0.930 . S
H117 C106 0.930 . S
H118 C107 0.930 . S
H119 C108 0.931 . S
Eu120 C129 2.828 . S
Eu120 O131 2.392 . S
Eu120 O133 2.418 . S
Eu120 O138 2.373 . S
Eu120 O141 2.488 . S
Eu120 O142 2.471 . S
Eu120 O143 2.349 . S
Eu121 O130 2.373 . S
Eu121 O134 2.488 . S
Eu121 O135 2.471 . S
Eu121 O136 2.349 . S
Eu121 O139 2.392 . S
Eu121 O140 2.418 . S
Eu121 C150 2.828 . S
C122 O140 1.244 . S
C122 O143 1.265 . S
C123 C124 1.379 . S
C123 C127 1.373 . S
C123 C129 1.505 . S
C124 C123 1.379 . S
C124 C126 1.369 . S
C124 H152 0.930 . S
C125 C127 1.383 . S
C125 C128 1.382 . S
C125 H153 0.930 . S
C126 C124 1.369 . S
C126 C128 1.392 . S
C126 H154 0.930 . S
C127 C123 1.373 . S
C127 C125 1.383 . S
C127 H155 0.931 . S
C128 C125 1.382 . S
C128 C126 1.392 . S
C129 Eu120 2.828 . S
C129 C123 1.505 . S
C129 O141 1.249 . S
C129 O142 1.244 . S
O130 Eu121 2.373 . S
O130 C132 1.258 . S
O131 Eu120 2.392 . S
O131 C132 1.242 . S
C132 O130 1.258 . S
C132 O131 1.242 . S
O133 Eu120 2.418 . S
O133 C137 1.244 . S
O134 Eu121 2.488 . S
O134 C150 1.249 . S
O135 Eu121 2.471 . S
O135 C150 1.244 . S
O136 Eu121 2.349 . S
O136 C137 1.265 . S
C137 O133 1.244 . S
C137 O136 1.265 . S
O138 Eu120 2.373 . S
O138 C151 1.258 . S
O139 Eu121 2.392 . S
O139 C151 1.242 . S
O140 Eu121 2.418 . S
O140 C122 1.244 . S
O141 Eu120 2.488 . S
O141 C129 1.249 . S
O142 Eu120 2.471 . S
O142 C129 1.244 . S
O143 Eu120 2.349 . S
O143 C122 1.265 . S
C144 C145 1.379 . S
C144 C148 1.373 . S
C144 C150 1.505 . S
C145 C144 1.379 . S
C145 C147 1.369 . S
C145 H156 0.930 . S
C146 C148 1.383 . S
C146 C149 1.382 . S
C146 H157 0.930 . S
C147 C145 1.369 . S
C147 C149 1.392 . S
C147 H158 0.930 . S
C148 C144 1.373 . S
C148 C146 1.383 . S
C148 H159 0.931 . S
C149 C146 1.382 . S
C149 C147 1.392 . S
C150 Eu121 2.828 . S
C150 O134 1.249 . S
C150 O135 1.244 . S
C150 C144 1.505 . S
C151 O138 1.258 . S
C151 O139 1.242 . S
H152 C124 0.930 . S
H153 C125 0.930 . S
H154 C126 0.930 . S
H155 C127 0.931 . S
H156 C145 0.930 . S
H157 C146 0.930 . S
H158 C147 0.930 . S
H159 C148 0.931 . S
Eu160 C169 2.828 . S
Eu160 O171 2.392 . S
Eu160 O173 2.418 . S
Eu160 O178 2.373 . S
Eu160 O181 2.488 . S
Eu160 O182 2.471 . S
Eu160 O183 2.349 . S
Eu161 O170 2.373 . S
Eu161 O174 2.488 . S
Eu161 O175 2.471 . S
Eu161 O176 2.349 . S
Eu161 O179 2.392 . S
Eu161 O180 2.418 . S
Eu161 C190 2.828 . S
C162 O180 1.244 . S
C162 O183 1.265 . S
C163 C164 1.379 . S
C163 C167 1.373 . S
C163 C169 1.505 . S
C164 C163 1.379 . S
C164 C166 1.369 . S
C164 H192 0.930 . S
C165 C167 1.383 . S
C165 C168 1.382 . S
C165 H193 0.930 . S
C166 C164 1.369 . S
C166 C168 1.392 . S
C166 H194 0.930 . S
C167 C163 1.373 . S
C167 C165 1.383 . S
C167 H195 0.931 . S
C168 C165 1.382 . S
C168 C166 1.392 . S
C169 Eu160 2.828 . S
C169 C163 1.505 . S
C169 O181 1.249 . S
C169 O182 1.244 . S
O170 Eu161 2.373 . S
O170 C172 1.258 . S
O171 Eu160 2.392 . S
O171 C172 1.242 . S
C172 O170 1.258 . S
C172 O171 1.242 . S
O173 Eu160 2.418 . S
O173 C177 1.244 . S
O174 Eu161 2.488 . S
O174 C190 1.249 . S
O175 Eu161 2.471 . S
O175 C190 1.244 . S
O176 Eu161 2.349 . S
O176 C177 1.265 . S
C177 O173 1.244 . S
C177 O176 1.265 . S
O178 Eu160 2.373 . S
O178 C191 1.258 . S
O179 Eu161 2.392 . S
O179 C191 1.242 . S
O180 Eu161 2.418 . S
O180 C162 1.244 . S
O181 Eu160 2.488 . S
O181 C169 1.249 . S
O182 Eu160 2.471 . S
O182 C169 1.244 . S
O183 Eu160 2.349 . S
O183 C162 1.265 . S
C184 C185 1.379 . S
C184 C188 1.373 . S
C184 C190 1.505 . S
C185 C184 1.379 . S
C185 C187 1.369 . S
C185 H196 0.930 . S
C186 C188 1.383 . S
C186 C189 1.382 . S
C186 H197 0.930 . S
C187 C185 1.369 . S
C187 C189 1.392 . S
C187 H198 0.930 . S
C188 C184 1.373 . S
C188 C186 1.383 . S
C188 H199 0.931 . S
C189 C186 1.382 . S
C189 C187 1.392 . S
C190 Eu161 2.828 . S
C190 O174 1.249 . S
C190 O175 1.244 . S
C190 C184 1.505 . S
C191 O178 1.258 . S
C191 O179 1.242 . S
H192 C164 0.930 . S
H193 C165 0.930 . S
H194 C166 0.930 . S
H195 C167 0.931 . S
H196 C185 0.930 . S
H197 C186 0.930 . S
H198 C187 0.930 . S
H199 C188 0.931 . S
Eu200 C209 2.828 . S
Eu200 O211 2.392 1_655 S
Eu200 O213 2.418 . S
Eu200 O218 2.373 . S
Eu200 O221 2.488 . S
Eu200 O222 2.471 . S
Eu200 O223 2.349 1_655 S
Eu201 O210 2.373 . S
Eu201 O214 2.488 . S
Eu201 O215 2.471 . S
Eu201 O216 2.349 1_455 S
Eu201 O219 2.392 1_455 S
Eu201 O220 2.418 . S
Eu201 C230 2.828 . S
C202 O220 1.244 . S
C202 O223 1.265 . S
C203 C204 1.379 . S
C203 C207 1.373 . S
C203 C209 1.505 . S
C204 C203 1.379 . S
C204 C206 1.369 . S
C204 H232 0.930 . S
C205 C207 1.383 . S
C205 C208 1.382 . S
C205 H233 0.930 . S
C206 C204 1.369 . S
C206 C208 1.392 . S
C206 H234 0.930 . S
C207 C203 1.373 . S
C207 C205 1.383 . S
C207 H235 0.931 . S
C208 C205 1.382 . S
C208 C206 1.392 . S
C209 Eu200 2.828 . S
C209 C203 1.505 . S
C209 O221 1.249 . S
C209 O222 1.244 . S
O210 Eu201 2.373 . S
O210 C212 1.258 . S
O211 Eu200 2.392 1_455 S
O211 C212 1.242 . S
C212 O210 1.258 . S
C212 O211 1.242 . S
O213 Eu200 2.418 . S
O213 C217 1.244 . S
O214 Eu201 2.488 . S
O214 C230 1.249 . S
O215 Eu201 2.471 . S
O215 C230 1.244 . S
O216 Eu201 2.349 1_655 S
O216 C217 1.265 . S
C217 O213 1.244 . S
C217 O216 1.265 . S
O218 Eu200 2.373 . S
O218 C231 1.258 . S
O219 Eu201 2.392 1_655 S
O219 C231 1.242 . S
O220 Eu201 2.418 . S
O220 C202 1.244 . S
O221 Eu200 2.488 . S
O221 C209 1.249 . S
O222 Eu200 2.471 . S
O222 C209 1.244 . S
O223 Eu200 2.349 1_455 S
O223 C202 1.265 . S
C224 C225 1.379 . S
C224 C228 1.373 . S
C224 C230 1.505 . S
C225 C224 1.379 . S
C225 C227 1.369 . S
C225 H236 0.930 . S
C226 C228 1.383 . S
C226 C229 1.382 . S
C226 H237 0.930 . S
C227 C225 1.369 . S
C227 C229 1.392 . S
C227 H238 0.930 . S
C228 C224 1.373 . S
C228 C226 1.383 . S
C228 H239 0.931 . S
C229 C226 1.382 . S
C229 C227 1.392 . S
C230 Eu201 2.828 . S
C230 O214 1.249 . S
C230 O215 1.244 . S
C230 C224 1.505 . S
C231 O218 1.258 . S
C231 O219 1.242 . S
H232 C204 0.930 . S
H233 C205 0.930 . S
H234 C206 0.930 . S
H235 C207 0.931 . S
H236 C225 0.930 . S
H237 C226 0.930 . S
H238 C227 0.930 . S
H239 C228 0.931 . S
Eu240 C249 2.828 . S
Eu240 O251 2.392 1_554 S
Eu240 O253 2.418 . S
Eu240 O258 2.373 . S
Eu240 O261 2.488 . S
Eu240 O262 2.471 . S
Eu240 O263 2.349 1_554 S
Eu241 O250 2.373 . S
Eu241 O254 2.488 . S
Eu241 O255 2.471 . S
Eu241 O256 2.349 1_556 S
Eu241 O259 2.392 1_556 S
Eu241 O260 2.418 . S
Eu241 C270 2.828 . S
C242 O260 1.244 . S
C242 O263 1.265 . S
C243 C244 1.379 . S
C243 C247 1.373 . S
C243 C249 1.505 . S
C244 C243 1.379 . S
C244 C246 1.369 . S
C244 H272 0.930 . S
C245 C247 1.383 . S
C245 C248 1.382 . S
C245 H273 0.930 . S
C246 C244 1.369 . S
C246 C248 1.392 . S
C246 H274 0.930 . S
C247 C243 1.373 . S
C247 C245 1.383 . S
C247 H275 0.931 . S
C248 C245 1.382 . S
C248 C246 1.392 . S
C249 Eu240 2.828 . S
C249 C243 1.505 . S
C249 O261 1.249 . S
C249 O262 1.244 . S
O250 Eu241 2.373 . S
O250 C252 1.258 . S
O251 Eu240 2.392 1_556 S
O251 C252 1.242 . S
C252 O250 1.258 . S
C252 O251 1.242 . S
O253 Eu240 2.418 . S
O253 C257 1.244 . S
O254 Eu241 2.488 . S
O254 C270 1.249 . S
O255 Eu241 2.471 . S
O255 C270 1.244 . S
O256 Eu241 2.349 1_554 S
O256 C257 1.265 . S
C257 O253 1.244 . S
C257 O256 1.265 . S
O258 Eu240 2.373 . S
O258 C271 1.258 . S
O259 Eu241 2.392 1_554 S
O259 C271 1.242 . S
O260 Eu241 2.418 . S
O260 C242 1.244 . S
O261 Eu240 2.488 . S
O261 C249 1.249 . S
O262 Eu240 2.471 . S
O262 C249 1.244 . S
O263 Eu240 2.349 1_556 S
O263 C242 1.265 . S
C264 C265 1.379 . S
C264 C268 1.373 . S
C264 C270 1.505 . S
C265 C264 1.379 . S
C265 C267 1.369 . S
C265 H276 0.930 . S
C266 C268 1.383 . S
C266 C269 1.382 . S
C266 H277 0.930 . S
C267 C265 1.369 . S
C267 C269 1.392 . S
C267 H278 0.930 . S
C268 C264 1.373 . S
C268 C266 1.383 . S
C268 H279 0.931 . S
C269 C266 1.382 . S
C269 C267 1.392 . S
C270 Eu241 2.828 . S
C270 O254 1.249 . S
C270 O255 1.244 . S
C270 C264 1.505 . S
C271 O258 1.258 . S
C271 O259 1.242 . S
H272 C244 0.930 . S
H273 C245 0.930 . S
H274 C246 0.930 . S
H275 C247 0.931 . S
H276 C265 0.930 . S
H277 C266 0.930 . S
H278 C267 0.930 . S
H279 C268 0.931 . S
Eu280 C289 2.828 . S
Eu280 O291 2.392 . S
Eu280 O293 2.418 . S
Eu280 O298 2.373 . S
Eu280 O301 2.488 . S
Eu280 O302 2.471 . S
Eu280 O303 2.349 . S
Eu281 O290 2.373 . S
Eu281 O294 2.488 . S
Eu281 O295 2.471 . S
Eu281 O296 2.349 . S
Eu281 O299 2.392 . S
Eu281 O300 2.418 . S
Eu281 C310 2.828 . S
C282 O300 1.244 . S
C282 O303 1.265 . S
C283 C284 1.379 . S
C283 C287 1.373 . S
C283 C289 1.505 . S
C284 C283 1.379 . S
C284 C286 1.369 . S
C284 H312 0.930 . S
C285 C287 1.383 . S
C285 C288 1.382 . S
C285 H313 0.930 . S
C286 C284 1.369 . S
C286 C288 1.392 . S
C286 H314 0.930 . S
C287 C283 1.373 . S
C287 C285 1.383 . S
C287 H315 0.931 . S
C288 C285 1.382 . S
C288 C286 1.392 . S
C289 Eu280 2.828 . S
C289 C283 1.505 . S
C289 O301 1.249 . S
C289 O302 1.244 . S
O290 Eu281 2.373 . S
O290 C292 1.258 . S
O291 Eu280 2.392 . S
O291 C292 1.242 . S
C292 O290 1.258 . S
C292 O291 1.242 . S
O293 Eu280 2.418 . S
O293 C297 1.244 . S
O294 Eu281 2.488 . S
O294 C310 1.249 . S
O295 Eu281 2.471 . S
O295 C310 1.244 . S
O296 Eu281 2.349 . S
O296 C297 1.265 . S
C297 O293 1.244 . S
C297 O296 1.265 . S
O298 Eu280 2.373 . S
O298 C311 1.258 . S
O299 Eu281 2.392 . S
O299 C311 1.242 . S
O300 Eu281 2.418 . S
O300 C282 1.244 . S
O301 Eu280 2.488 . S
O301 C289 1.249 . S
O302 Eu280 2.471 . S
O302 C289 1.244 . S
O303 Eu280 2.349 . S
O303 C282 1.265 . S
C304 C305 1.379 . S
C304 C308 1.373 . S
C304 C310 1.505 . S
C305 C304 1.379 . S
C305 C307 1.369 . S
C305 H316 0.930 . S
C306 C308 1.383 . S
C306 C309 1.382 . S
C306 H317 0.930 . S
C307 C305 1.369 . S
C307 C309 1.392 . S
C307 H318 0.930 . S
C308 C304 1.373 . S
C308 C306 1.383 . S
C308 H319 0.931 . S
C309 C306 1.382 . S
C309 C307 1.392 . S
C310 Eu281 2.828 . S
C310 O294 1.249 . S
C310 O295 1.244 . S
C310 C304 1.505 . S
C311 O298 1.258 . S
C311 O299 1.242 . S
H312 C284 0.930 . S
H313 C285 0.930 . S
H314 C286 0.930 . S
H315 C287 0.931 . S
H316 C305 0.930 . S
H317 C306 0.930 . S
H318 C307 0.930 . S
H319 C308 0.931 . S
Eu320 C329 2.828 . S
Eu320 O331 2.392 . S
Eu320 O333 2.418 . S
Eu320 O338 2.373 . S
Eu320 O341 2.488 . S
Eu320 O342 2.471 . S
Eu320 O343 2.349 . S
Eu321 O330 2.373 . S
Eu321 O334 2.488 . S
Eu321 O335 2.471 . S
Eu321 O336 2.349 . S
Eu321 O339 2.392 . S
Eu321 O340 2.418 . S
Eu321 C350 2.828 . S
C322 O340 1.244 . S
C322 O343 1.265 . S
C323 C324 1.379 . S
C323 C327 1.373 . S
C323 C329 1.505 . S
C324 C323 1.379 . S
C324 C326 1.369 . S
C324 H352 0.930 . S
C325 C327 1.383 . S
C325 C328 1.382 . S
C325 H353 0.930 . S
C326 C324 1.369 . S
C326 C328 1.392 . S
C326 H354 0.930 . S
C327 C323 1.373 . S
C327 C325 1.383 . S
C327 H355 0.931 . S
C328 C325 1.382 . S
C328 C326 1.392 . S
C329 Eu320 2.828 . S
C329 C323 1.505 . S
C329 O341 1.249 . S
C329 O342 1.244 . S
O330 Eu321 2.373 . S
O330 C332 1.258 . S
O331 Eu320 2.392 . S
O331 C332 1.242 . S
C332 O330 1.258 . S
C332 O331 1.242 . S
O333 Eu320 2.418 . S
O333 C337 1.244 . S
O334 Eu321 2.488 . S
O334 C350 1.249 . S
O335 Eu321 2.471 . S
O335 C350 1.244 . S
O336 Eu321 2.349 . S
O336 C337 1.265 . S
C337 O333 1.244 . S
C337 O336 1.265 . S
O338 Eu320 2.373 . S
O338 C351 1.258 . S
O339 Eu321 2.392 . S
O339 C351 1.242 . S
O340 Eu321 2.418 . S
O340 C322 1.244 . S
O341 Eu320 2.488 . S
O341 C329 1.249 . S
O342 Eu320 2.471 . S
O342 C329 1.244 . S
O343 Eu320 2.349 . S
O343 C322 1.265 . S
C344 C345 1.379 . S
C344 C348 1.373 . S
C344 C350 1.505 . S
C345 C344 1.379 . S
C345 C347 1.369 . S
C345 H356 0.930 . S
C346 C348 1.383 . S
C346 C349 1.382 . S
C346 H357 0.930 . S
C347 C345 1.369 . S
C347 C349 1.392 . S
C347 H358 0.930 . S
C348 C344 1.373 . S
C348 C346 1.383 . S
C348 H359 0.931 . S
C349 C346 1.382 . S
C349 C347 1.392 . S
C350 Eu321 2.828 . S
C350 O334 1.249 . S
C350 O335 1.244 . S
C350 C344 1.505 . S
C351 O338 1.258 . S
C351 O339 1.242 . S
H352 C324 0.930 . S
H353 C325 0.930 . S
H354 C326 0.930 . S
H355 C327 0.931 . S
H356 C345 0.930 . S
H357 C346 0.930 . S
H358 C347 0.930 . S
H359 C348 0.931 . S
Eu360 C369 2.828 . S
Eu360 O371 2.392 . S
Eu360 O373 2.418 1_565 S
Eu360 O378 2.368 1_565 S
Eu360 O381 2.488 . S
Eu360 O382 2.471 . S
Eu360 O383 2.349 . S
Eu361 O370 2.373 . S
Eu361 O374 2.488 . S
Eu361 O375 2.471 . S
Eu361 O376 2.349 . S
Eu361 O379 2.392 . S
Eu361 O380 2.418 1_545 S
Eu361 C390 2.828 . S
C362 O380 1.244 . S
C362 O383 1.265 . S
C363 C364 1.379 . S
C363 C367 1.373 . S
C363 C369 1.505 . S
C364 C363 1.379 . S
C364 C366 1.369 . S
C364 H392 0.930 . S
C365 C367 1.383 . S
C365 C368 1.382 . S
C365 H393 0.930 . S
C366 C364 1.369 . S
C366 C368 1.392 . S
C366 H394 0.930 . S
C367 C363 1.373 . S
C367 C365 1.383 . S
C367 H395 0.931 . S
C368 C365 1.382 . S
C368 C366 1.392 . S
C369 Eu360 2.828 . S
C369 C363 1.505 . S
C369 O381 1.249 . S
C369 O382 1.244 . S
O370 Eu361 2.373 . S
O370 C372 1.258 1_545 S
O371 Eu360 2.392 . S
O371 C372 1.242 . S
C372 O370 1.258 1_565 S
C372 O371 1.242 . S
O373 Eu360 2.418 1_545 S
O373 C377 1.244 . S
O374 Eu361 2.488 . S
O374 C390 1.249 . S
O375 Eu361 2.471 . S
O375 C390 1.244 . S
O376 Eu361 2.349 . S
O376 C377 1.265 . S
C377 O373 1.244 . S
C377 O376 1.265 . S
O378 Eu360 2.368 1_545 S
O378 C391 1.264 . S
O379 Eu361 2.392 . S
O379 C391 1.242 . S
O380 Eu361 2.418 1_565 S
O380 C362 1.244 . S
O381 Eu360 2.488 . S
O381 C369 1.249 . S
O382 Eu360 2.471 . S
O382 C369 1.244 . S
O383 Eu360 2.349 . S
O383 C362 1.265 . S
C384 C385 1.379 . S
C384 C388 1.373 . S
C384 C390 1.505 . S
C385 C384 1.379 . S
C385 C387 1.369 . S
C385 H396 0.930 . S
C386 C388 1.383 . S
C386 C389 1.382 . S
C386 H397 0.930 . S
C387 C385 1.369 . S
C387 C389 1.392 . S
C387 H398 0.930 . S
C388 C384 1.373 . S
C388 C386 1.383 . S
C388 H399 0.931 . S
C389 C386 1.382 . S
C389 C387 1.392 . S
C390 Eu361 2.828 . S
C390 O374 1.249 . S
C390 O375 1.244 . S
C390 C384 1.505 . S
C391 O378 1.264 . S
C391 O379 1.242 . S
H392 C364 0.930 . S
H393 C365 0.930 . S
H394 C366 0.930 . S
H395 C367 0.931 . S
H396 C385 0.930 . S
H397 C386 0.930 . S
H398 C387 0.930 . S
H399 C388 0.931 . S
Eu400 C409 2.828 . S
Eu400 O411 2.392 1_565 S
Eu400 O413 2.418 . S
Eu400 O418 2.373 . S
Eu400 O421 2.488 . S
Eu400 O422 2.471 . S
Eu400 O423 2.349 1_565 S
Eu401 O410 2.373 . S
Eu401 O414 2.488 . S
Eu401 O415 2.471 . S
Eu401 O416 2.349 1_545 S
Eu401 O419 2.392 1_545 S
Eu401 O420 2.418 . S
Eu401 C430 2.828 . S
C402 O420 1.244 . S
C402 O423 1.265 . S
C403 C404 1.379 . S
C403 C407 1.373 . S
C403 C409 1.505 . S
C404 C403 1.379 . S
C404 C406 1.369 . S
C404 H432 0.930 . S
C405 C407 1.383 . S
C405 C408 1.382 . S
C405 H433 0.930 . S
C406 C404 1.369 . S
C406 C408 1.392 . S
C406 H434 0.930 . S
C407 C403 1.373 . S
C407 C405 1.383 . S
C407 H435 0.931 . S
C408 C405 1.382 . S
C408 C406 1.392 . S
C409 Eu400 2.828 . S
C409 C403 1.505 . S
C409 O421 1.249 . S
C409 O422 1.244 . S
O410 Eu401 2.373 . S
O410 C412 1.258 . S
O411 Eu400 2.392 1_545 S
O411 C412 1.242 . S
C412 O410 1.258 . S
C412 O411 1.242 . S
O413 Eu400 2.418 . S
O413 C417 1.244 . S
O414 Eu401 2.488 . S
O414 C430 1.249 . S
O415 Eu401 2.471 . S
O415 C430 1.244 . S
O416 Eu401 2.349 1_565 S
O416 C417 1.265 . S
C417 O413 1.244 . S
C417 O416 1.265 . S
O418 Eu400 2.373 . S
O418 C431 1.258 . S
O419 Eu401 2.392 1_565 S
O419 C431 1.242 . S
O420 Eu401 2.418 . S
O420 C402 1.244 . S
O421 Eu400 2.488 . S
O421 C409 1.249 . S
O422 Eu400 2.471 . S
O422 C409 1.244 . S
O423 Eu400 2.349 1_545 S
O423 C402 1.265 . S
C424 C425 1.379 . S
C424 C428 1.373 . S
C424 C430 1.505 . S
C425 C424 1.379 . S
C425 C427 1.369 . S
C425 H436 0.930 . S
C426 C428 1.383 . S
C426 C429 1.382 . S
C426 H437 0.930 . S
C427 C425 1.369 . S
C427 C429 1.392 . S
C427 H438 0.930 . S
C428 C424 1.373 . S
C428 C426 1.383 . S
C428 H439 0.931 . S
C429 C426 1.382 . S
C429 C427 1.392 . S
C430 Eu401 2.828 . S
C430 O414 1.249 . S
C430 O415 1.244 . S
C430 C424 1.505 . S
C431 O418 1.258 . S
C431 O419 1.242 . S
H432 C404 0.930 . S
H433 C405 0.930 . S
H434 C406 0.930 . S
H435 C407 0.931 . S
H436 C425 0.930 . S
H437 C426 0.930 . S
H438 C427 0.930 . S
H439 C428 0.931 . S
Eu440 C449 2.828 . S
Eu440 O451 2.392 . S
Eu440 O453 2.418 . S
Eu440 O458 2.373 . S
Eu440 O461 2.488 . S
Eu440 O462 2.471 . S
Eu440 O463 2.349 . S
Eu441 O450 2.373 . S
Eu441 O454 2.488 . S
Eu441 O455 2.471 . S
Eu441 O456 2.349 . S
Eu441 O459 2.392 . S
Eu441 O460 2.418 . S
Eu441 C470 2.828 . S
C442 O460 1.244 . S
C442 O463 1.265 . S
C443 C444 1.379 . S
C443 C447 1.373 . S
C443 C449 1.505 . S
C444 C443 1.379 . S
C444 C446 1.369 . S
C444 H472 0.930 . S
C445 C447 1.383 . S
C445 C448 1.382 . S
C445 H473 0.930 . S
C446 C444 1.369 . S
C446 C448 1.392 . S
C446 H474 0.930 . S
C447 C443 1.373 . S
C447 C445 1.383 . S
C447 H475 0.931 . S
C448 C445 1.382 . S
C448 C446 1.392 . S
C449 Eu440 2.828 . S
C449 C443 1.505 . S
C449 O461 1.249 . S
C449 O462 1.244 . S
O450 Eu441 2.373 . S
O450 C452 1.258 . S
O451 Eu440 2.392 . S
O451 C452 1.242 . S
C452 O450 1.258 . S
C452 O451 1.242 . S
O453 Eu440 2.418 . S
O453 C457 1.244 . S
O454 Eu441 2.488 . S
O454 C470 1.249 . S
O455 Eu441 2.471 . S
O455 C470 1.244 . S
O456 Eu441 2.349 . S
O456 C457 1.265 . S
C457 O453 1.244 . S
C457 O456 1.265 . S
O458 Eu440 2.373 . S
O458 C471 1.258 . S
O459 Eu441 2.392 . S
O459 C471 1.242 . S
O460 Eu441 2.418 . S
O460 C442 1.244 . S
O461 Eu440 2.488 . S
O461 C449 1.249 . S
O462 Eu440 2.471 . S
O462 C449 1.244 . S
O463 Eu440 2.349 . S
O463 C442 1.265 . S
C464 C465 1.379 . S
C464 C468 1.373 . S
C464 C470 1.505 . S
C465 C464 1.379 . S
C465 C467 1.369 . S
C465 H476 0.930 . S
C466 C468 1.383 . S
C466 C469 1.382 . S
C466 H477 0.930 . S
C467 C465 1.369 . S
C467 C469 1.392 . S
C467 H478 0.930 . S
C468 C464 1.373 . S
C468 C466 1.383 . S
C468 H479 0.931 . S
C469 C466 1.382 . S
C469 C467 1.392 . S
C470 Eu441 2.828 . S
C470 O454 1.249 . S
C470 O455 1.244 . S
C470 C464 1.505 . S
C471 O458 1.258 . S
C471 O459 1.242 . S
H472 C444 0.930 . S
H473 C445 0.930 . S
H474 C446 0.930 . S
H475 C447 0.931 . S
H476 C465 0.930 . S
H477 C466 0.930 . S
H478 C467 0.930 . S
H479 C468 0.931 . S
C480 C481 1.369 . S
C480 C482 1.419 . S
C480 H484 0.930 . S
C481 C480 1.369 . S
C481 C490 1.429 . S
C482 C480 1.419 . S
C482 C483 1.363 . S
C482 H485 0.929 . S
C483 C482 1.363 . S
C483 C489 1.428 . S
H484 C480 0.930 . S
H485 C482 0.929 . S
S486 N487 1.613 . S
S486 N488 1.610 . S
N487 S486 1.613 . S
N487 C490 1.350 . S
N488 S486 1.610 . S
N488 C489 1.351 . S
C489 C483 1.428 . S
C489 N488 1.351 . S
C489 C490 1.434 . S
C490 C481 1.429 . S
C490 N487 1.350 . S
C490 C489 1.434 . S
C491 C492 1.369 . S
C491 C493 1.419 . S
C491 H495 0.930 1_565 S
C492 C491 1.369 . S
C492 C501 1.429 . S
C493 C491 1.419 . S
C493 C494 1.363 . S
C493 H496 0.929 . S
C494 C493 1.363 . S
C494 C500 1.428 . S
H495 C491 0.930 1_545 S
H496 C493 0.929 . S
S497 N498 1.613 . S
S497 N499 1.610 . S
N498 S497 1.613 . S
N498 C501 1.350 . S
N499 S497 1.610 . S
N499 C500 1.351 . S
C500 C494 1.428 . S
C500 N499 1.351 . S
C500 C501 1.434 . S
C501 C492 1.429 . S
C501 N498 1.350 . S
C501 C500 1.434 . S
C502 C503 1.369 . S
C502 C504 1.419 . S
C502 H506 0.930 . S
C503 C502 1.369 . S
C503 C512 1.429 . S
C504 C502 1.419 . S
C504 C505 1.363 . S
C504 H507 0.929 . S
C505 C504 1.363 . S
C505 C511 1.428 . S
H506 C502 0.930 . S
H507 C504 0.929 . S
S508 N509 1.613 . S
S508 N510 1.610 . S
N509 S508 1.613 . S
N509 C512 1.350 . S
N510 S508 1.610 . S
N510 C511 1.351 . S
C511 C505 1.428 . S
C511 N510 1.351 . S
C511 C512 1.434 . S
C512 C503 1.429 . S
C512 N509 1.350 . S
C512 C511 1.434 . S
C513 C514 1.369 . S
C513 C515 1.419 . S
C513 H517 0.930 . S
C514 C513 1.369 . S
C514 C523 1.429 . S
C515 C513 1.419 . S
C515 C516 1.363 . S
C515 H518 0.929 . S
C516 C515 1.363 . S
C516 C522 1.428 . S
H517 C513 0.930 . S
H518 C515 0.929 . S
S519 N520 1.613 . S
S519 N521 1.610 . S
N520 S519 1.613 . S
N520 C523 1.350 . S
N521 S519 1.610 . S
N521 C522 1.351 . S
C522 C516 1.428 . S
C522 N521 1.351 . S
C522 C523 1.434 . S
C523 C514 1.429 . S
C523 N520 1.350 . S
C523 C522 1.434 . S
C524 C525 1.369 . S
C524 C526 1.419 . S
C524 H528 0.930 . S
C525 C524 1.369 . S
C525 C534 1.429 . S
C526 C524 1.419 . S
C526 C527 1.363 . S
C526 H529 0.929 . S
C527 C526 1.363 . S
C527 C533 1.428 . S
H528 C524 0.930 . S
H529 C526 0.929 . S
S530 N531 1.613 . S
S530 N532 1.610 . S
N531 S530 1.613 . S
N531 C534 1.350 . S
N532 S530 1.610 . S
N532 C533 1.351 . S
C533 C527 1.428 . S
C533 N532 1.351 . S
C533 C534 1.434 . S
C534 C525 1.429 . S
C534 N531 1.350 . S
C534 C533 1.434 . S
C535 C536 1.369 . S
C535 C537 1.419 . S
C535 H539 0.930 . S
C536 C535 1.369 . S
C536 C545 1.429 . S
C537 C535 1.419 . S
C537 C538 1.363 . S
C537 H540 0.929 . S
C538 C537 1.363 . S
C538 C544 1.428 . S
H539 C535 0.930 . S
H540 C537 0.929 . S
S541 N542 1.613 . S
S541 N543 1.610 . S
N542 S541 1.613 . S
N542 C545 1.350 . S
N543 S541 1.610 . S
N543 C544 1.351 . S
C544 C538 1.428 . S
C544 N543 1.351 . S
C544 C545 1.434 . S
C545 C536 1.429 . S
C545 N542 1.350 . S
C545 C544 1.434 . S
C546 C547 1.369 . S
C546 C548 1.419 . S
C546 H550 0.930 . S
C547 C546 1.369 . S
C547 C556 1.429 . S
C548 C546 1.419 . S
C548 C549 1.363 . S
C548 H551 0.929 . S
C549 C548 1.363 . S
C549 C555 1.428 . S
H550 C546 0.930 . S
H551 C548 0.929 . S
S552 N553 1.613 1_554 S
S552 N554 1.610 . S
N553 S552 1.613 1_556 S
N553 C556 1.350 . S
N554 S552 1.610 . S
N554 C555 1.351 1_554 S
C555 C549 1.428 . S
C555 N554 1.351 1_556 S
C555 C556 1.434 . S
C556 C547 1.429 . S
C556 N553 1.350 . S
C556 C555 1.434 . S
C557 C558 1.369 . S
C557 C559 1.419 . S
C557 H561 0.930 . S
C558 C557 1.369 . S
C558 C567 1.429 . S
C559 C557 1.419 . S
C559 C560 1.363 . S
C559 H562 0.929 . S
C560 C559 1.363 . S
C560 C566 1.428 . S
H561 C557 0.930 . S
H562 C559 0.929 . S
S563 N564 1.613 . S
S563 N565 1.610 . S
N564 S563 1.613 . S
N564 C567 1.350 . S
N565 S563 1.610 . S
N565 C566 1.351 . S
C566 C560 1.428 . S
C566 N565 1.351 . S
C566 C567 1.434 . S
C567 C558 1.429 . S
C567 N564 1.350 . S
C567 C566 1.434 . S
C568 C569 1.369 . S
C568 C570 1.419 . S
C568 H572 0.930 . S
C569 C568 1.369 . S
C569 C578 1.429 . S
C570 C568 1.419 . S
C570 C571 1.363 . S
C570 H573 0.929 . S
C571 C570 1.363 . S
C571 C577 1.428 . S
H572 C568 0.930 . S
H573 C570 0.929 . S
S574 N575 1.613 . S
S574 N576 1.610 . S
N575 S574 1.613 . S
N575 C578 1.350 . S
N576 S574 1.610 . S
N576 C577 1.351 . S
C577 C571 1.428 . S
C577 N576 1.351 . S
C577 C578 1.434 . S
C578 C569 1.429 . S
C578 N575 1.350 . S
C578 C577 1.434 . S
C579 C580 1.369 . S
C579 C581 1.419 . S
C579 H583 0.930 . S
C580 C579 1.369 . S
C580 C589 1.429 . S
C581 C579 1.419 . S
C581 C582 1.363 . S
C581 H584 0.929 . S
C582 C581 1.363 . S
C582 C588 1.428 . S
H583 C579 0.930 . S
H584 C581 0.929 . S
S585 N586 1.613 1_655 S
S585 N587 1.610 . S
N586 S585 1.613 1_455 S
N586 C589 1.350 . S
N587 S585 1.610 . S
N587 C588 1.351 1_655 S
C588 C582 1.428 . S
C588 N587 1.351 1_455 S
C588 C589 1.434 . S
C589 C580 1.429 . S
C589 N586 1.350 . S
C589 C588 1.434 . S
C590 C591 1.369 . S
C590 C592 1.419 . S
C590 H594 0.930 . S
C591 C590 1.369 . S
C591 C600 1.429 . S
C592 C590 1.419 . S
C592 C593 1.363 . S
C592 H595 0.929 . S
C593 C592 1.363 . S
C593 C599 1.428 . S
H594 C590 0.930 . S
H595 C592 0.929 . S
S596 N597 1.613 . S
S596 N598 1.610 1_455 S
N597 S596 1.613 . S
N597 C600 1.350 1_455 S
N598 S596 1.610 1_655 S
N598 C599 1.351 . S
C599 C593 1.428 . S
C599 N598 1.351 . S
C599 C600 1.434 . S
C600 C591 1.429 . S
C600 N597 1.350 1_655 S
C600 C599 1.434 . S
C601 C602 1.369 . S
C601 C603 1.419 . S
C601 H605 0.930 . S
C602 C601 1.369 . S
C602 C611 1.429 . S
C603 C601 1.419 . S
C603 C604 1.363 . S
C603 H606 0.929 . S
C604 C603 1.363 . S
C604 C610 1.428 . S
H605 C601 0.930 . S
H606 C603 0.929 . S
S607 N608 1.613 . S
S607 N609 1.610 . S
N608 S607 1.613 . S
N608 C611 1.350 . S
N609 S607 1.610 . S
N609 C610 1.351 . S
C610 C604 1.428 . S
C610 N609 1.351 . S
C610 C611 1.434 . S
C611 C602 1.429 . S
C611 N608 1.350 . S
C611 C610 1.434 . S
C612 C613 1.369 . S
C612 C614 1.419 . S
C612 H616 0.930 . S
C613 C612 1.369 . S
C613 C622 1.429 . S
C614 C612 1.419 . S
C614 C615 1.363 . S
C614 H617 0.929 . S
C615 C614 1.363 . S
C615 C621 1.428 . S
H616 C612 0.930 . S
H617 C614 0.929 . S
S618 N619 1.613 . S
S618 N620 1.610 . S
N619 S618 1.613 . S
N619 C622 1.350 . S
N620 S618 1.610 . S
N620 C621 1.351 . S
C621 C615 1.428 . S
C621 N620 1.351 . S
C621 C622 1.434 . S
C622 C613 1.429 . S
C622 N619 1.350 . S
C622 C621 1.434 . S
C623 C624 1.369 . S
C623 C625 1.419 . S
C623 H627 0.930 . S
C624 C623 1.369 . S
C624 C633 1.429 . S
C625 C623 1.419 . S
C625 C626 1.363 . S
C625 H628 0.929 . S
C626 C625 1.363 . S
C626 C632 1.428 . S
H627 C623 0.930 . S
H628 C625 0.929 . S
S629 N630 1.613 . S
S629 N631 1.610 . S
N630 S629 1.613 . S
N630 C633 1.350 . S
N631 S629 1.610 . S
N631 C632 1.351 . S
C632 C626 1.428 . S
C632 N631 1.351 . S
C632 C633 1.434 . S
C633 C624 1.429 . S
C633 N630 1.350 . S
C633 C632 1.434 . S
C634 C635 1.369 . S
C634 C636 1.419 . S
C634 H638 0.930 . S
C635 C634 1.369 . S
C635 C644 1.429 . S
C636 C634 1.419 . S
C636 C637 1.363 . S
C636 H639 0.929 . S
C637 C636 1.363 . S
C637 C643 1.428 . S
H638 C634 0.930 . S
H639 C636 0.929 . S
S640 N641 1.613 . S
S640 N642 1.610 . S
N641 S640 1.613 . S
N641 C644 1.350 . S
N642 S640 1.610 . S
N642 C643 1.351 . S
C643 C637 1.428 . S
C643 N642 1.351 . S
C643 C644 1.434 . S
C644 C635 1.429 . S
C644 N641 1.350 . S
C644 C643 1.434 . S
C645 C646 1.369 . S
C645 C647 1.419 1_554 S
C645 H649 0.930 . S
C646 C645 1.369 . S
C646 C655 1.429 . S
C647 C645 1.419 1_556 S
C647 C648 1.363 . S
C647 H650 0.929 1_545 S
C648 C647 1.363 . S
C648 C654 1.428 . S
H649 C645 0.930 . S
H650 C647 0.929 1_565 S
S651 N652 1.613 1_556 S
S651 N653 1.610 . S
N652 S651 1.613 1_554 S
N652 C655 1.350 . S
N653 S651 1.610 . S
N653 C654 1.351 . S
C654 C648 1.428 . S
C654 N653 1.351 . S
C654 C655 1.434 1_556 S
C655 C646 1.429 . S
C655 N652 1.350 . S
C655 C654 1.434 1_554 S
C656 C657 1.369 . S
C656 C658 1.419 . S
C656 H660 0.930 . S
C657 C656 1.369 . S
C657 C666 1.429 . S
C658 C656 1.419 . S
C658 C659 1.363 . S
C658 H661 0.929 . S
C659 C658 1.363 . S
C659 C665 1.428 . S
H660 C656 0.930 . S
H661 C658 0.929 . S
S662 N663 1.613 . S
S662 N664 1.610 . S
N663 S662 1.613 . S
N663 C666 1.350 . S
N664 S662 1.610 . S
N664 C665 1.351 . S
C665 C659 1.428 . S
C665 N664 1.351 . S
C665 C666 1.434 . S
C666 C657 1.429 . S
C666 N663 1.350 . S
C666 C665 1.434 . S
C667 C668 1.369 . S
C667 C669 1.419 1_554 S
C667 H671 0.930 . S
C668 C667 1.369 . S
C668 C677 1.429 . S
C669 C667 1.419 1_556 S
C669 C670 1.363 . S
C669 H672 0.929 . S
C670 C669 1.363 . S
C670 C676 1.428 . S
H671 C667 0.930 . S
H672 C669 0.929 . S
S673 N674 1.613 1_556 S
S673 N675 1.610 . S
N674 S673 1.613 1_554 S
N674 C677 1.350 . S
N675 S673 1.610 . S
N675 C676 1.351 . S
C676 C670 1.428 . S
C676 N675 1.351 . S
C676 C677 1.434 1_556 S
C677 C668 1.429 . S
C677 N674 1.350 . S
C677 C676 1.434 1_554 S
C678 C679 1.369 . S
C678 C680 1.419 . S
C678 H682 0.930 . S
C679 C678 1.369 . S
C679 C688 1.429 . S
C680 C678 1.419 . S
C680 C681 1.363 . S
C680 H683 0.929 . S
C681 C680 1.363 . S
C681 C687 1.428 . S
H682 C678 0.930 . S
H683 C680 0.929 . S
S684 N685 1.613 . S
S684 N686 1.610 . S
N685 S684 1.613 . S
N685 C688 1.350 . S
N686 S684 1.610 . S
N686 C687 1.351 . S
C687 C681 1.428 . S
C687 N686 1.351 . S
C687 C688 1.434 . S
C688 C679 1.429 . S
C688 N685 1.350 . S
C688 C687 1.434 . S
C689 C690 1.369 . S
C689 C691 1.419 . S
C689 H693 0.930 . S
C690 C689 1.369 . S
C690 C699 1.429 . S
C691 C689 1.419 . S
C691 C692 1.363 . S
C691 H694 0.929 . S
C692 C691 1.363 . S
C692 C698 1.428 . S
H693 C689 0.930 . S
H694 C691 0.929 . S
S695 N696 1.613 . S
S695 N697 1.610 . S
N696 S695 1.613 . S
N696 C699 1.350 . S
N697 S695 1.610 . S
N697 C698 1.351 . S
C698 C692 1.428 . S
C698 N697 1.351 . S
C698 C699 1.434 . S
C699 C690 1.429 . S
C699 N696 1.350 . S
C699 C698 1.434 . S
C700 C701 1.369 . S
C700 C702 1.419 . S
C700 H704 0.930 . S
C701 C700 1.369 . S
C701 C710 1.429 . S
C702 C700 1.419 . S
C702 C703 1.363 . S
C702 H705 0.929 . S
C703 C702 1.363 . S
C703 C709 1.428 . S
H704 C700 0.930 . S
H705 C702 0.929 . S
S706 N707 1.613 . S
S706 N708 1.610 . S
N707 S706 1.613 . S
N707 C710 1.350 . S
N708 S706 1.610 . S
N708 C709 1.351 . S
C709 C703 1.428 . S
C709 N708 1.351 . S
C709 C710 1.434 . S
C710 C701 1.429 . S
C710 N707 1.350 . S
C710 C709 1.434 . S
C711 C712 1.369 . S
C711 C713 1.419 1_545 S
C711 H715 0.930 . S
C712 C711 1.369 . S
C712 C721 1.429 1_545 S
C713 C711 1.419 1_565 S
C713 C714 1.363 . S
C713 H716 0.929 1_455 S
C714 C713 1.363 . S
C714 C720 1.428 . S
H715 C711 0.930 . S
H716 C713 0.929 1_655 S
S717 N718 1.613 . S
S717 N719 1.610 . S
N718 S717 1.613 . S
N718 C721 1.350 . S
N719 S717 1.610 . S
N719 C720 1.351 . S
C720 C714 1.428 . S
C720 N719 1.351 . S
C720 C721 1.434 . S
C721 C712 1.429 1_565 S
C721 N718 1.350 . S
C721 C720 1.434 . S
C722 C723 1.369 . S
C722 C724 1.419 . S
C722 H726 0.930 . S
C723 C722 1.369 . S
C723 C732 1.429 . S
C724 C722 1.419 . S
C724 C725 1.363 . S
C724 H727 0.929 . S
C725 C724 1.363 . S
C725 C731 1.428 . S
H726 C722 0.930 . S
H727 C724 0.929 . S
S728 N729 1.613 . S
S728 N730 1.610 . S
N729 S728 1.613 . S
N729 C732 1.350 . S
N730 S728 1.610 . S
N730 C731 1.351 . S
C731 C725 1.428 . S
C731 N730 1.351 . S
C731 C732 1.434 . S
C732 C723 1.429 . S
C732 N729 1.350 . S
C732 C731 1.434 . S
C733 C734 1.369 . S
C733 C735 1.419 1_545 S
C733 H737 0.930 . S
C734 C733 1.369 . S
C734 C743 1.429 . S
C735 C733 1.419 1_565 S
C735 C736 1.363 . S
C735 H738 0.929 . S
C736 C735 1.363 . S
C736 C742 1.428 1_565 S
H737 C733 0.930 . S
H738 C735 0.929 . S
S739 N740 1.613 . S
S739 N741 1.610 1_545 S
N740 S739 1.613 . S
N740 C743 1.350 . S
N741 S739 1.610 1_565 S
N741 C742 1.351 1_565 S
C742 C736 1.428 1_545 S
C742 N741 1.351 1_545 S
C742 C743 1.434 . S
C743 C734 1.429 . S
C743 N740 1.350 . S
C743 C742 1.434 . S
C744 C745 1.369 . S
C744 C746 1.419 . S
C744 H748 0.930 . S
C745 C744 1.369 . S
C745 C754 1.429 . S
C746 C744 1.419 . S
C746 C747 1.363 . S
C746 H749 0.929 . S
C747 C746 1.363 . S
C747 C753 1.428 . S
H748 C744 0.930 . S
H749 C746 0.929 . S
S750 N751 1.613 . S
S750 N752 1.610 . S
N751 S750 1.613 . S
N751 C754 1.350 . S
N752 S750 1.610 . S
N752 C753 1.351 . S
C753 C747 1.428 . S
C753 N752 1.351 . S
C753 C754 1.434 . S
C754 C745 1.429 . S
C754 N751 1.350 . S
C754 C753 1.434 . S
C755 C756 1.369 . S
C755 C757 1.419 . S
C755 H759 0.930 . S
C756 C755 1.369 . S
C756 C765 1.429 . S
C757 C755 1.419 . S
C757 C758 1.363 . S
C757 H760 0.929 . S
C758 C757 1.363 . S
C758 C764 1.428 . S
H759 C755 0.930 . S
H760 C757 0.929 . S
S761 N762 1.613 . S
S761 N763 1.610 . S
N762 S761 1.613 . S
N762 C765 1.350 . S
N763 S761 1.610 . S
N763 C764 1.351 . S
C764 C758 1.428 . S
C764 N763 1.351 . S
C764 C765 1.434 . S
C765 C756 1.429 . S
C765 N762 1.350 . S
C765 C764 1.434 . S
C766 C767 1.369 . S
C766 C768 1.419 . S
C766 H770 0.930 . S
C767 C766 1.369 . S
C767 C776 1.429 . S
C768 C766 1.419 . S
C768 C769 1.363 . S
C768 H771 0.929 . S
C769 C768 1.363 . S
C769 C775 1.428 . S
H770 C766 0.930 . S
H771 C768 0.929 . S
S772 N773 1.613 . S
S772 N774 1.610 . S
N773 S772 1.613 . S
N773 C776 1.350 . S
N774 S772 1.610 . S
N774 C775 1.351 . S
C775 C769 1.428 . S
C775 N774 1.351 . S
C775 C776 1.434 . S
C776 C767 1.429 . S
C776 N773 1.350 . S
C776 C775 1.434 . S
C777 C778 1.369 . S
C777 C779 1.419 . S
C777 H781 0.930 . S
C778 C777 1.369 . S
C778 C787 1.429 . S
C779 C777 1.419 . S
C779 C780 1.363 . S
C779 H782 0.929 . S
C780 C779 1.363 . S
C780 C786 1.428 . S
H781 C777 0.930 . S
H782 C779 0.929 . S
S783 N784 1.613 . S
S783 N785 1.610 . S
N784 S783 1.613 . S
N784 C787 1.350 . S
N785 S783 1.610 . S
N785 C786 1.351 . S
C786 C780 1.428 . S
C786 N785 1.351 . S
C786 C787 1.434 . S
C787 C778 1.429 . S
C787 N784 1.350 . S
C787 C786 1.434 . S
C788 C789 1.369 . S
C788 C790 1.419 . S
C788 H792 0.930 . S
C789 C788 1.369 . S
C789 C798 1.429 . S
C790 C788 1.419 . S
C790 C791 1.363 . S
C790 H793 0.929 . S
C791 C790 1.363 . S
C791 C797 1.428 . S
H792 C788 0.930 . S
H793 C790 0.929 . S
S794 N795 1.613 . S
S794 N796 1.610 . S
N795 S794 1.613 . S
N795 C798 1.350 . S
N796 S794 1.610 . S
N796 C797 1.351 . S
C797 C791 1.428 . S
C797 N796 1.351 . S
C797 C798 1.434 . S
C798 C789 1.429 . S
C798 N795 1.350 . S
C798 C797 1.434 . S
C799 C800 1.369 . S
C799 C801 1.419 . S
C799 H803 0.930 . S
C800 C799 1.369 . S
C800 C809 1.429 . S
C801 C799 1.419 . S
C801 C802 1.363 . S
C801 H804 0.929 . S
C802 C801 1.363 . S
C802 C808 1.428 . S
H803 C799 0.930 . S
H804 C801 0.929 . S
S805 N806 1.613 . S
S805 N807 1.610 . S
N806 S805 1.613 . S
N806 C809 1.350 . S
N807 S805 1.610 . S
N807 C808 1.351 . S
C808 C802 1.428 . S
C808 N807 1.351 . S
C808 C809 1.434 . S
C809 C800 1.429 . S
C809 N806 1.350 . S
C809 C808 1.434 . S
C810 C811 1.369 . S
C810 C812 1.419 1_455 S
C810 H814 0.930 . S
C811 C810 1.369 . S
C811 C820 1.429 . S
C812 C810 1.419 1_655 S
C812 C813 1.363 . S
C812 H815 0.929 1_554 S
C813 C812 1.363 . S
C813 C819 1.428 . S
H814 C810 0.930 . S
H815 C812 0.929 1_556 S
S816 N817 1.613 1_655 S
S816 N818 1.610 . S
N817 S816 1.613 1_455 S
N817 C820 1.350 . S
N818 S816 1.610 . S
N818 C819 1.351 . S
C819 C813 1.428 . S
C819 N818 1.351 . S
C819 C820 1.434 1_655 S
C820 C811 1.429 . S
C820 N817 1.350 . S
C820 C819 1.434 1_455 S
C821 C822 1.369 . S
C821 C823 1.419 . S
C821 H825 0.930 . S
C822 C821 1.369 . S
C822 C831 1.429 . S
C823 C821 1.419 . S
C823 C824 1.363 . S
C823 H826 0.929 . S
C824 C823 1.363 . S
C824 C830 1.428 . S
H825 C821 0.930 . S
H826 C823 0.929 . S
S827 N828 1.613 . S
S827 N829 1.610 . S
N828 S827 1.613 . S
N828 C831 1.350 . S
N829 S827 1.610 . S
N829 C830 1.351 . S
C830 C824 1.428 . S
C830 N829 1.351 . S
C830 C831 1.434 . S
C831 C822 1.429 . S
C831 N828 1.350 . S
C831 C830 1.434 . S
C832 C833 1.369 . S
C832 C834 1.419 . S
C832 H836 0.930 . S
C833 C832 1.369 . S
C833 C842 1.429 . S
C834 C832 1.419 . S
C834 C835 1.363 . S
C834 H837 0.929 . S
C835 C834 1.363 . S
C835 C841 1.428 . S
H836 C832 0.930 . S
H837 C834 0.929 . S
S838 N839 1.613 . S
S838 N840 1.610 . S
N839 S838 1.613 . S
N839 C842 1.350 . S
N840 S838 1.610 . S
N840 C841 1.351 . S
C841 C835 1.428 . S
C841 N840 1.351 . S
C841 C842 1.434 . S
C842 C833 1.429 . S
C842 N839 1.350 . S
C842 C841 1.434 . S
C843 C844 1.369 . S
C843 C845 1.419 . S
C843 H847 0.930 . S
C844 C843 1.369 . S
C844 C853 1.429 . S
C845 C843 1.419 . S
C845 C846 1.363 . S
C845 H848 0.929 . S
C846 C845 1.363 . S
C846 C852 1.428 . S
H847 C843 0.930 . S
H848 C845 0.929 . S
S849 N850 1.613 . S
S849 N851 1.610 . S
N850 S849 1.613 . S
N850 C853 1.350 . S
N851 S849 1.610 . S
N851 C852 1.351 . S
C852 C846 1.428 . S
C852 N851 1.351 . S
C852 C853 1.434 . S
C853 C844 1.429 . S
C853 N850 1.350 . S
C853 C852 1.434 . S
C854 C855 1.369 . S
C854 C856 1.419 . S
C854 H858 0.930 1_556 S
C855 C854 1.369 . S
C855 C864 1.429 . S
C856 C854 1.419 . S
C856 C857 1.363 . S
C856 H859 0.929 . S
C857 C856 1.363 . S
C857 C863 1.428 . S
H858 C854 0.930 1_554 S
H859 C856 0.929 . S
S860 N861 1.613 . S
S860 N862 1.610 . S
N861 S860 1.613 . S
N861 C864 1.350 . S
N862 S860 1.610 . S
N862 C863 1.351 . S
C863 C857 1.428 . S
C863 N862 1.351 . S
C863 C864 1.434 . S
C864 C855 1.429 . S
C864 N861 1.350 . S
C864 C863 1.434 . S
C865 C866 1.369 . S
C865 C867 1.419 . S
C865 H869 0.930 . S
C866 C865 1.369 . S
C866 C875 1.429 . S
C867 C865 1.419 . S
C867 C868 1.363 1_655 S
C867 H870 0.929 . S
C868 C867 1.363 1_455 S
C868 C874 1.428 1_455 S
H869 C865 0.930 . S
H870 C867 0.929 . S
S871 N872 1.613 . S
S871 N873 1.610 1_655 S
N872 S871 1.613 . S
N872 C875 1.350 . S
N873 S871 1.610 1_455 S
N873 C874 1.351 1_455 S
C874 C868 1.428 1_655 S
C874 N873 1.351 1_655 S
C874 C875 1.434 . S
C875 C866 1.429 . S
C875 N872 1.350 . S
C875 C874 1.434 . S
C481 C12 1.546 . S
C483 C452 1.559 . S
C492 C372 1.923 . S
C494 C42 1.973 . S
C503 C92 1.698 . S
C505 C332 1.736 . S
C514 C122 2.049 . S
C516 C402 2.054 . S
C525 C162 1.929 . S
C527 C412 1.871 . S
C536 C212 1.525 . S
C538 C442 1.559 . S
C547 C362 2.124 . S
C549 C242 2.124 . S
C558 C292 1.480 . S
C560 C322 1.523 . S
C569 C132 1.677 . S
C571 C172 1.662 . S
C580 C2 1.869 . S
C582 C202 1.862 . S
C591 C52 1.832 . S
C593 C252 1.833 . S
C602 C282 1.991 . S
C604 C82 1.991 . S
C613 C29 2.185 . S
C615 C351 2.273 . S
C624 C48 1.319 . S
C626 C417 1.276 . S
C635 C471 2.152 . S
C637 C109 2.066 . S
C646 C128 1.492 . S
C648 C391 1.468 . S
C657 C168 1.396 . S
C659 C377 1.334 . S
C668 C337 2.112 . S
C670 C229 2.128 . S
C679 C431 1.495 . S
C681 C248 1.524 . S
C690 C457 2.080 . S
C692 C309 2.095 . S
C701 C17 1.594 . S
C703 C149 1.609 . S
C712 C8 1.535 . S
C714 C71 1.487 . S
C723 C69 1.298 . S
C725 C97 1.304 . S
C734 C151 1.480 . S
C736 C88 1.514 . S
C745 C208 1.668 . S
C747 C191 1.631 . S
C756 C217 2.368 . S
C758 C269 2.383 . S
C767 C271 1.582 . S
C769 C288 1.616 . S
C778 C189 2.264 . S
C780 C297 2.259 . S
C789 C328 1.574 . S
C791 C137 1.456 . S
C800 C231 2.135 . S
C802 C389 2.037 . S
C811 C349 1.725 . S
C813 C257 1.701 . S
C822 C408 1.669 . S
C824 C311 1.641 . S
C833 C177 1.651 . S
C835 C469 1.685 . S
C844 C448 1.478 . S
C846 C57 1.374 . S
C855 C111 1.665 . S
C857 C368 1.708 . S
C866 C429 2.134 . S
C868 C31 2.222 . S
