# Generated by pormake.
# Topology uol, (4)-cn, num edge types: 1
# Building blocks:
#     Node 0, Type 0, BuildingBlock: KOZSID_clean_sbu_0, # of connection points: 4
#     Node 1, Type 0, BuildingBlock: KOZSID_clean_sbu_0, # of connection points: 4
#     Node 2, Type 0, BuildingBlock: KOZSID_clean_sbu_0, # of connection points: 4
#     Node 3, Type 0, BuildingBlock: KOZSID_clean_sbu_0, # of connection points: 4
#     Node 4, Type 0, BuildingBlock: KOZSID_clean_sbu_0, # of connection points: 4
#     Node 5, Type 0, BuildingBlock: KOZSID_clean_sbu_0, # of connection points: 4
#     Node 6, Type 0, BuildingBlock: KOZSID_clean_sbu_0, # of connection points: 4
#     Node 7, Type 0, BuildingBlock: KOZSID_clean_sbu_0, # of connection points: 4
#     Node 8, Type 0, BuildingBlock: KOZSID_clean_sbu_0, # of connection points: 4
#     Node 9, Type 0, BuildingBlock: KOZSID_clean_sbu_0, # of connection points: 4
#     Node 10, Type 0, BuildingBlock: KOZSID_clean_sbu_0, # of connection points: 4
#     Node 11, Type 0, BuildingBlock: KOZSID_clean_sbu_0, # of connection points: 4
#     Edge 12, Type (0, 0), BuildingBlock: EZIPEK_clean_linker_0, # of connection points: 2
#     Edge 13, Type (0, 0), BuildingBlock: EZIPEK_clean_linker_0, # of connection points: 2
#     Edge 14, Type (0, 0), BuildingBlock: EZIPEK_clean_linker_0, # of connection points: 2
#     Edge 15, Type (0, 0), BuildingBlock: EZIPEK_clean_linker_0, # of connection points: 2
#     Edge 16, Type (0, 0), BuildingBlock: EZIPEK_clean_linker_0, # of connection points: 2
#     Edge 17, Type (0, 0), BuildingBlock: EZIPEK_clean_linker_0, # of connection points: 2
#     Edge 18, Type (0, 0), BuildingBlock: EZIPEK_clean_linker_0, # of connection points: 2
#     Edge 19, Type (0, 0), BuildingBlock: EZIPEK_clean_linker_0, # of connection points: 2
#     Edge 20, Type (0, 0), BuildingBlock: EZIPEK_clean_linker_0, # of connection points: 2
#     Edge 21, Type (0, 0), BuildingBlock: EZIPEK_clean_linker_0, # of connection points: 2
#     Edge 22, Type (0, 0), BuildingBlock: EZIPEK_clean_linker_0, # of connection points: 2
#     Edge 23, Type (0, 0), BuildingBlock: EZIPEK_clean_linker_0, # of connection points: 2
#     Edge 24, Type (0, 0), BuildingBlock: EZIPEK_clean_linker_0, # of connection points: 2
#     Edge 25, Type (0, 0), BuildingBlock: EZIPEK_clean_linker_0, # of connection points: 2
#     Edge 26, Type (0, 0), BuildingBlock: EZIPEK_clean_linker_0, # of connection points: 2
#     Edge 27, Type (0, 0), BuildingBlock: EZIPEK_clean_linker_0, # of connection points: 2
#     Edge 28, Type (0, 0), BuildingBlock: EZIPEK_clean_linker_0, # of connection points: 2
#     Edge 29, Type (0, 0), BuildingBlock: EZIPEK_clean_linker_0, # of connection points: 2
#     Edge 30, Type (0, 0), BuildingBlock: EZIPEK_clean_linker_0, # of connection points: 2
#     Edge 31, Type (0, 0), BuildingBlock: EZIPEK_clean_linker_0, # of connection points: 2
#     Edge 32, Type (0, 0), BuildingBlock: EZIPEK_clean_linker_0, # of connection points: 2
#     Edge 33, Type (0, 0), BuildingBlock: EZIPEK_clean_linker_0, # of connection points: 2
#     Edge 34, Type (0, 0), BuildingBlock: EZIPEK_clean_linker_0, # of connection points: 2
#     Edge 35, Type (0, 0), BuildingBlock: EZIPEK_clean_linker_0, # of connection points: 2
# Relax obj value: 0.147
# Max RMSD: 0.333
# Mean RMSD: 0.314
data_MOF--net-uol--node1-KOZSID_clean_sbu_0--edge1-EZIPEK_clean_linker_0
_symmetry_space_group_name_H-M    P1
_symmetry_Int_Tables_number       1
_symmetry_cell_setting            triclinic
loop_
_symmetry_equiv_pos_as_xyz
'x, y, z'
_cell_length_a     31.816266
_cell_length_b     34.512045
_cell_length_c     52.068246
_cell_angle_alpha  89.991008
_cell_angle_beta   90.186107
_cell_angle_gamma 117.37859
loop_
_atom_site_label
_atom_site_type_symbol
_atom_site_fract_x
_atom_site_fract_y
_atom_site_fract_z
_atom_type_partial_charge
C0 C 0.18723 0.33094 0.0749 0.0
C1 C 0.17518 0.31343 0.05038 0.0
C2 C 0.12779 0.30055 0.04738 0.0
C3 C 0.11362 0.3109 0.07013 0.0
N4 N 0.14911 0.32956 0.08723 0.0
Co5 Co 0.14378 0.34899 0.1224 0.0
N6 N 0.07389 0.31177 0.12284 0.0
C7 C 0.04652 0.29346 0.10206 0.0
C8 C 0.9999 0.26761 0.10803 0.0
C9 C 0.99748 0.27017 0.13415 0.0
C10 C 0.04286 0.29822 0.14274 0.0
N11 N 0.138 0.36836 0.15754 0.0
C12 C 0.10105 0.35208 0.17433 0.0
C13 C 0.11195 0.37781 0.19623 0.0
C14 C 0.1569 0.41127 0.19291 0.0
C15 C 0.17109 0.40436 0.16919 0.0
N16 N 0.21357 0.38572 0.12153 0.0
C17 C 0.23854 0.41984 0.13704 0.0
C18 C 0.28647 0.43775 0.13263 0.0
C19 C 0.29165 0.41331 0.11313 0.0
C20 C 0.24652 0.38176 0.10667 0.0
N21 N 0.13562 0.39893 0.108 0.0
C22 C 0.13445 0.47847 0.09389 0.0
C23 C 0.16793 0.46672 0.08372 0.0
C24 C 0.16738 0.42686 0.09056 0.0
C25 C 0.10022 0.44812 0.11044 0.0
C26 C 0.10171 0.40916 0.1174 0.0
N27 N 0.15399 0.30094 0.13728 0.0
C28 C 0.20431 0.28085 0.16308 0.0
C29 C 0.18038 0.2372 0.15505 0.0
C30 C 0.14057 0.22579 0.13897 0.0
C31 C 0.129 0.25829 0.12962 0.0
C32 C 0.18967 0.31133 0.15487 0.0
H33 H 0.10031 0.24902 0.11601 0.0
H34 H 0.20867 0.34394 0.1623 0.0
H35 H 0.19393 0.41945 0.08231 0.0
H36 H 0.07614 0.38798 0.13107 0.0
C37 C 0.06676 0.29558 0.07798 0.0
C38 C 0.23541 0.35013 0.08544 0.0
C39 C 0.05401 0.3146 0.16935 0.0
C40 C 0.21659 0.42759 0.15847 0.0
H41 H 0.19812 0.30999 0.03625 0.0
H42 H 0.10585 0.28352 0.03108 0.0
H43 H 0.97134 0.24793 0.09506 0.0
H44 H 0.96565 0.25355 0.14543 0.0
H45 H 0.08947 0.37322 0.2127 0.0
H46 H 0.17708 0.43709 0.20641 0.0
H47 H 0.31451 0.46398 0.14318 0.0
H48 H 0.32468 0.41806 0.10465 0.0
H49 H 0.19491 0.48855 0.0707 0.0
H50 H 0.07319 0.45509 0.11864 0.0
H51 H 0.23465 0.29167 0.1758 0.0
H52 H 0.11943 0.19226 0.13296 0.0
C53 C 0.69874 0.16203 0.2887 0.0
C54 C 0.68535 0.19308 0.29681 0.0
C55 C 0.71486 0.21549 0.31653 0.0
C56 C 0.74534 0.19779 0.31909 0.0
N57 N 0.73782 0.16597 0.30191 0.0
Co58 Co 0.77764 0.13482 0.29859 0.0
N59 N 0.82725 0.17579 0.32282 0.0
C60 C 0.82354 0.206 0.33767 0.0
C61 C 0.86419 0.2318 0.35094 0.0
C62 C 0.89572 0.21694 0.34422 0.0
C63 C 0.87229 0.18237 0.32734 0.0
N64 N 0.81638 0.10303 0.296 0.0
C65 C 0.86044 0.11317 0.30511 0.0
C66 C 0.87153 0.07927 0.30083 0.0
C67 C 0.83346 0.04708 0.28838 0.0
C68 C 0.80117 0.0629 0.28594 0.0
N69 N 0.72848 0.09529 0.27332 0.0
C70 C 0.72541 0.05726 0.26463 0.0
C71 C 0.68632 0.03414 0.24956 0.0
C72 C 0.66248 0.05853 0.2489 0.0
C73 C 0.68842 0.09563 0.26354 0.0
N74 N 0.81499 0.17393 0.27009 0.0
C75 C 0.8904 0.22897 0.23763 0.0
C76 C 0.86718 0.18364 0.2341 0.0
C77 C 0.8294 0.15694 0.25016 0.0
C78 C 0.87264 0.24642 0.25655 0.0
C79 C 0.83492 0.21849 0.27241 0.0
N80 N 0.74281 0.09421 0.32763 0.0
C81 C 0.68076 0.02291 0.34033 0.0
C82 C 0.70751 1.02092 0.36137 0.0
C83 C 0.74972 0.05866 0.36665 0.0
C84 C 0.76718 0.09388 0.34944 0.0
C85 C 0.69796 0.06036 0.32456 0.0
H86 H 0.80205 0.11921 0.35349 0.0
H87 H 0.67542 0.06018 0.30913 0.0
H88 H 0.81383 0.12221 0.24732 0.0
H89 H 0.82393 0.23311 0.28747 0.0
C90 C 0.78454 0.21381 0.33537 0.0
C91 C 0.67045 0.1273 0.27005 0.0
C92 C 0.89264 0.1543 0.318 0.0
C93 C 0.75898 0.04366 0.27185 0.0
H94 H 0.65671 0.19866 0.28956 0.0
H95 H 0.71482 0.24229 0.32731 0.0
H96 H 0.87081 0.25935 0.36322 0.0
H97 H 0.93179 0.2301 0.35111 0.0
H98 H 0.90399 0.0782 0.30592 0.0
H99 H 0.8303 1.01635 0.28133 0.0
H100 H 0.67557 1.00254 0.24077 0.0
H101 H 0.62867 0.04901 0.23962 0.0
H102 H 0.87919 0.16872 0.21948 0.0
H103 H 0.88908 0.28132 0.25978 0.0
H104 H 0.64732 0.99517 0.33553 0.0
H105 H 0.77135 0.05954 0.38298 0.0
C106 C 0.68005 0.83134 0.41372 0.0
C107 C 0.69252 0.82928 0.38842 0.0
C108 C 0.70931 0.79911 0.38771 0.0
C109 C 0.7057 0.78416 0.41246 0.0
N110 N 0.68765 0.80295 0.42865 0.0
Co111 Co 0.67114 0.78626 0.46506 0.0
N112 N 0.71475 0.75958 0.46741 0.0
C113 C 0.73346 0.74858 0.44724 0.0
C114 C 0.76336 0.73182 0.4544 0.0
C115 C 0.76307 0.73175 0.48073 0.0
C116 C 0.73239 0.74804 0.48826 0.0
N117 N 0.65349 0.7679 0.50126 0.0
C118 C 0.67436 0.75353 0.51919 0.0
C119 C 0.6484 0.74249 0.54174 0.0
C120 C 0.6101 0.75009 0.53769 0.0
C121 C 0.61453 0.76516 0.5129 0.0
N122 N 0.6293 0.81469 0.46248 0.0
C123 C 0.59505 0.80952 0.47924 0.0
C124 C 0.57833 0.83939 0.47543 0.0
C125 C 0.60347 0.86459 0.45499 0.0
C126 C 0.63361 0.84814 0.44683 0.0
N127 N 0.61832 0.72926 0.45351 0.0
C128 C 0.53941 0.64828 0.43966 0.0
C129 C 0.54553 0.68823 0.42929 0.0
C130 C 0.58519 0.72788 0.4361 0.0
C131 C 0.5745 0.65018 0.45686 0.0
C132 C 0.61287 0.69057 0.46374 0.0
N133 N 0.72215 0.84313 0.47704 0.0
C134 C 0.74353 0.90766 0.50311 0.0
C135 C 0.78651 0.93009 0.49026 0.0
C136 C 0.79793 0.90709 0.47148 0.0
C137 C 0.76534 0.86353 0.46525 0.0
C138 C 0.7123 0.86464 0.49638 0.0
H139 H 0.77416 0.84705 0.45018 0.0
H140 H 0.67909 0.84961 0.50632 0.0
H141 H 0.58858 0.75759 0.42743 0.0
H142 H 0.63781 0.69035 0.4777 0.0
C143 C 0.72627 0.75897 0.42213 0.0
C144 C 0.66335 0.86207 0.42319 0.0
C145 C 0.71691 0.74747 0.51502 0.0
C146 C 0.58851 0.78448 0.5016 0.0
H147 H 0.69084 0.84842 0.37235 0.0
H148 H 0.72446 0.79072 0.37136 0.0
H149 H 0.78375 0.7217 0.442 0.0
H150 H 0.78247 0.7201 0.4929 0.0
H151 H 0.65631 0.73016 0.55924 0.0
H152 H 0.58328 0.74662 0.55152 0.0
H153 H 0.55335 0.84444 0.48725 0.0
H154 H 0.60014 0.89217 0.44738 0.0
H155 H 0.51971 0.68884 0.41591 0.0
H156 H 0.57181 0.62051 0.46539 0.0
H157 H 0.73333 0.92386 0.51783 0.0
H158 H 0.83104 0.92309 0.46116 0.0
C159 C 0.87317 0.71635 0.57825 0.0
C160 C 0.88572 0.73267 0.55356 0.0
C161 C 0.93273 0.74381 0.55083 0.0
C162 C 0.94625 0.73368 0.5739 0.0
N163 N 0.91071 0.71682 0.591 0.0
Co164 Co 0.91557 0.69727 0.62636 0.0
N165 N 0.98578 0.73192 0.62672 0.0
C166 C 1.01322 0.74879 0.60593 0.0
C167 C 0.06056 0.77094 0.61178 0.0
C168 C 0.06324 0.76751 0.63789 0.0
C169 C 1.0172 0.74318 0.64654 0.0
N170 N 0.92106 0.67613 0.66115 0.0
C171 C 0.95805 0.69112 0.678 0.0
C172 C 0.94627 0.66553 0.69993 0.0
C173 C 0.90051 0.63343 0.69657 0.0
C174 C 0.88682 0.64102 0.6728 0.0
N175 N 0.8453 0.66434 0.62596 0.0
C176 C 0.81894 0.63197 0.64215 0.0
C177 C 0.77117 0.61686 0.63817 0.0
C178 C 0.76743 0.64129 0.61821 0.0
C179 C 0.8132 0.66999 0.611 0.0
N180 N 0.92024 0.64581 0.61176 0.0
C181 C 0.91917 0.56561 0.59734 0.0
C182 C 0.88466 0.57713 0.58831 0.0
C183 C 0.88628 0.61736 0.59531 0.0
C184 C 0.95524 0.59629 0.61293 0.0
C185 C 0.95484 0.6355 0.6201 0.0
N186 N 0.9091 0.74716 0.64168 0.0
C187 C 0.87348 0.77165 0.67478 0.0
C188 C 0.87713 0.8065 0.65962 0.0
C189 C 0.90267 0.81415 0.63655 0.0
C190 C 0.91939 0.7847 0.62826 0.0
C191 C 0.88783 0.74185 0.6652 0.0
H192 H 0.93795 0.79108 0.61023 0.0
H193 H 0.87828 0.71308 0.6765 0.0
H194 H 0.85907 0.62479 0.58794 0.0
H195 H 0.98197 0.65679 0.63313 0.0
C196 C 0.99296 0.74723 0.58183 0.0
C197 C 0.82517 0.69975 0.58864 0.0
C198 C 1.00537 0.7277 0.67315 0.0
C199 C 0.84036 0.62165 0.66293 0.0
H200 H 0.86336 0.73651 0.53912 0.0
H201 H 0.9549 0.75947 0.53443 0.0
H202 H 0.08964 0.78821 0.5987 0.0
H203 H 0.09547 0.78056 0.64917 0.0
H204 H 0.96848 0.66963 0.71653 0.0
H205 H 0.87921 0.60864 0.71029 0.0
H206 H 0.74244 0.5921 0.64904 0.0
H207 H 0.73488 0.63813 0.60975 0.0
H208 H 0.8562 0.55489 0.57606 0.0
H209 H 0.98297 0.58936 0.62027 0.0
H210 H 0.85505 0.76482 0.69299 0.0
H211 H 0.90718 0.84107 0.62424 0.0
C212 C 0.36546 0.89401 0.79659 0.0
C213 C 0.38846 0.8759 0.81134 0.0
C214 C 0.36148 0.85857 0.83266 0.0
C215 C 0.3238 0.86721 0.82997 0.0
N216 N 0.32459 0.88852 0.80813 0.0
Co217 Co 0.27923 0.91209 0.79959 0.0
N218 N 0.23363 0.87595 0.82659 0.0
C219 C 0.24405 0.85709 0.84657 0.0
C220 C 0.20763 0.83754 0.86366 0.0
C221 C 0.1718 0.84463 0.85398 0.0
C222 C 0.18841 0.86787 0.83129 0.0
N223 N 0.23353 0.93496 0.79108 0.0
C224 C 0.18656 0.91852 0.79677 0.0
C225 C 0.16722 0.94234 0.78454 0.0
C226 C 0.20348 0.97543 0.77154 0.0
C227 C 0.24285 0.96977 0.77618 0.0
N228 N 0.32651 0.94915 0.77329 0.0
C229 C 0.32559 0.98319 0.76107 0.0
C230 C 0.36051 1.00144 0.74295 0.0
C231 C 0.38561 0.97811 0.74412 0.0
C232 C 0.36524 0.94714 0.76329 0.0
N233 N 0.24576 0.86577 0.77341 0.0
C234 C 0.17069 0.80874 0.74134 0.0
C235 C 0.20178 0.85091 0.73341 0.0
C236 C 0.23902 0.87844 0.7494 0.0
C237 C 0.18178 0.79368 0.76424 0.0
C238 C 0.21952 0.82275 0.78004 0.0
N239 N 0.31009 0.95947 0.82531 0.0
C240 C 0.37932 1.01859 0.84467 0.0
C241 C 0.3508 0.03158 0.85925 0.0
C242 C 0.30173 1.00686 0.85699 0.0
C243 C 0.28228 0.97121 0.8402 0.0
C244 C 0.35832 0.98272 0.82772 0.0
H245 H 0.24433 0.95378 0.83898 0.0
H246 H 0.38117 0.97439 0.81627 0.0
H247 H 0.2592 0.91131 0.74291 0.0
H248 H 0.22492 0.81126 0.79843 0.0
C249 C 0.28649 0.85471 0.84722 0.0
C250 C 0.38626 0.91933 0.77302 0.0
C251 C 0.16068 0.88308 0.81543 0.0
C252 C 0.28648 0.99138 0.76358 0.0
H253 H 0.42214 0.87642 0.80763 0.0
H254 H 0.36881 0.84209 0.84842 0.0
H255 H 0.20692 0.8197 0.88089 0.0
H256 H 0.13755 0.83422 0.8628 0.0
H257 H 0.13088 0.93673 0.78517 0.0
H258 H 0.20094 0.99963 0.75932 0.0
H259 H 0.36593 0.02746 0.72968 0.0
H260 H 0.41586 0.98375 0.73238 0.0
H261 H 0.19546 0.86364 0.71559 0.0
H262 H 0.1593 0.76081 0.77087 0.0
H263 H 0.41752 0.03662 0.84597 0.0
H264 H 0.27833 1.01545 0.86796 0.0
C265 C 0.371 0.20812 0.91483 0.0
C266 C 0.34944 0.20261 0.89093 0.0
C267 C 0.33245 0.23254 0.88941 0.0
C268 C 0.34393 0.25433 0.91245 0.0
N269 N 0.36719 0.24 0.92835 0.0
Co270 Co 0.3862 0.25964 0.96429 0.0
N271 N 0.3412 0.28476 0.96678 0.0
C272 C 0.32002 0.29348 0.94676 0.0
C273 C 0.28945 0.3093 0.9541 0.0
C274 C 0.29195 0.31125 0.98036 0.0
C275 C 0.32455 0.29696 0.98767 0.0
N276 N 0.40555 0.27957 1.00019 0.0
C277 C 0.38514 0.29415 0.01816 0.0
C278 C 0.41255 0.30708 0.0403 0.0
C279 C 0.45147 0.30069 0.03592 0.0
C280 C 0.44585 0.28433 0.0114 0.0
N281 N 0.43058 0.23404 0.96164 0.0
C282 C 0.4682 0.24368 0.97693 0.0
C283 C 0.49196 0.22027 0.97069 0.0
C284 C 0.46762 0.19439 0.95021 0.0
C285 C 0.43022 0.20338 0.94512 0.0
N286 N 0.43671 0.31659 0.95179 0.0
C287 C 0.51489 0.3973 0.93808 0.0
C288 C 0.50786 0.35773 0.9268 0.0
C289 C 0.4684 0.31814 0.93352 0.0
C290 C 0.4808 0.39537 0.95582 0.0
C291 C 0.44266 0.35503 0.96258 0.0
N292 N 0.33699 0.20286 0.97684 0.0
C293 C 0.31739 0.13723 1.00123 0.0
C294 C 0.27266 0.11605 0.9896 0.0
C295 C 0.25962 0.14049 0.97272 0.0
C296 C 0.2924 0.18361 0.96642 0.0
C297 C 0.34866 0.18043 0.9948 0.0
H298 H 0.28214 0.20087 0.95251 0.0
H299 H 0.38318 0.19504 1.00365 0.0
H300 H 0.46421 0.28857 0.92429 0.0
H301 H 0.41853 0.355 0.97701 0.0
C302 C 0.32391 0.27998 0.92194 0.0
C303 C 0.39616 0.18384 0.92384 0.0
C304 C 0.34217 0.29958 0.01419 0.0
C305 C 0.47421 0.26817 0.99944 0.0
H306 H 0.34544 0.17904 0.87623 0.0
H307 H 0.31134 0.23583 0.87403 0.0
H308 H 0.26677 0.31707 0.94189 0.0
H309 H 0.27234 0.32243 0.99262 0.0
H310 H 0.40549 0.32037 0.05763 0.0
H311 H 0.47995 0.3065 0.04924 0.0
H312 H 0.522 0.22041 0.98058 0.0
H313 H 0.47614 0.17139 0.94025 0.0
H314 H 0.5329 0.35736 0.91288 0.0
H315 H 0.48427 0.42491 0.96494 0.0
H316 H 0.32879 0.11998 0.01469 0.0
H317 H 0.22498 0.12582 0.96376 0.0
C318 C 0.55924 0.89286 0.71119 0.0
C319 C 0.51766 0.87166 0.69706 0.0
C320 C 0.52578 0.84805 0.67857 0.0
C321 C 0.57188 0.85653 0.68204 0.0
N322 N 0.59416 0.88459 0.70146 0.0
Co323 Co 0.66297 0.90771 0.71103 0.0
N324 N 0.67527 0.87602 0.68194 0.0
C325 C 0.64387 0.85221 0.66363 0.0
C326 C 0.66251 0.83691 0.64488 0.0
C327 C 0.7087 0.85145 0.65173 0.0
C328 C 0.71539 0.87433 0.67459 0.0
N329 N 0.73099 0.92861 0.72128 0.0
C330 C 0.76415 0.91707 0.71246 0.0
C331 C 0.80447 0.93467 0.72771 0.0
C332 C 0.79675 0.95815 0.74662 0.0
C333 C 0.75208 0.95329 0.7421 0.0
N334 N 0.65062 0.94147 0.73907 0.0
C335 C 0.6833 0.9684 0.756 0.0
C336 C 0.66505 0.98541 0.77403 0.0
C337 C 0.618 0.96867 0.76818 0.0
C338 C 0.60989 0.94249 0.74663 0.0
N339 N 0.64751 0.85696 0.73484 0.0
C340 C 0.66539 0.79867 0.7659 0.0
C341 C 0.66649 0.83635 0.77625 0.0
C342 C 0.65627 0.86415 0.76074 0.0
C343 C 0.64759 0.78708 0.74087 0.0
C344 C 0.63859 0.81652 0.72572 0.0
N345 N 0.68132 0.95927 0.68762 0.0
C346 C 0.73664 0.03427 0.67697 0.0
C347 C 0.71637 0.03067 0.65269 0.0
C348 C 0.67666 0.99116 0.64665 0.0
C349 C 0.65997 0.95612 0.66419 0.0
C350 C 0.71854 0.99883 0.694 0.0
H351 H 0.63027 0.92657 0.6582 0.0
H352 H 0.73597 1.00405 0.71213 0.0
H353 H 0.65855 0.8925 0.77007 0.0
H354 H 0.62763 0.80728 0.70618 0.0
C355 C 0.5967 0.84319 0.66531 0.0
C356 C 0.56278 0.91915 0.73419 0.0
C357 C 0.75884 0.8894 0.68989 0.0
C358 C 0.72863 0.97117 0.75692 0.0
H359 H 0.48474 0.87317 0.69966 0.0
H360 H 0.50143 0.82824 0.66375 0.0
H361 H 0.64442 0.81683 0.62847 0.0
H362 H 0.73417 0.84465 0.64153 0.0
H363 H 0.83608 0.9307 0.72548 0.0
H364 H 0.82065 0.97613 0.76206 0.0
H365 H 0.68332 1.00595 0.79025 0.0
H366 H 0.59245 0.97453 0.77893 0.0
H367 H 0.67772 0.84559 0.79595 0.0
H368 H 0.64407 0.75707 0.7324 0.0
H369 H 0.76699 0.06432 0.68269 0.0
H370 H 0.65934 0.98699 0.62818 0.0
C371 C 0.87783 0.71647 0.92956 0.0
C372 C 0.88278 0.73436 0.95394 0.0
C373 C 0.84739 0.7462 0.95658 0.0
C374 C 0.82284 0.73491 0.93378 0.0
N375 N 0.84052 0.71665 0.91694 0.0
Co376 Co 0.81458 0.69509 0.88205 0.0
N377 N 0.77969 0.73038 0.88116 0.0
C378 C 0.77043 0.74899 0.90162 0.0
C379 C 0.74585 0.77159 0.89538 0.0
C380 C 0.73879 0.76659 0.86935 0.0
C381 C 0.75931 0.74093 0.86116 0.0
N382 N 0.78626 0.67177 0.84782 0.0
C383 C 0.76351 0.68577 0.83087 0.0
C384 C 0.7482 0.65856 0.8096 0.0
C385 C 0.76174 0.62646 0.81348 0.0
C386 C 0.78442 0.63567 0.83688 0.0
N387 N 0.85142 0.66163 0.88286 0.0
C388 C 0.84443 0.62813 0.8673 0.0
C389 C 0.87688 0.6128 0.87144 0.0
C390 C 0.90598 0.6383 0.89084 0.0
C391 C 0.88962 0.6678 0.89757 0.0
N392 N 0.75901 0.64506 0.89778 0.0
C393 C 0.68029 0.56597 0.91327 0.0
C394 C 0.72643 0.57736 0.92198 0.0
C395 C 0.7649 0.61714 0.91446 0.0
C396 C 0.67452 0.59631 0.8976 0.0
C397 C 0.71396 0.63499 0.8899 0.0
N398 N 0.87027 0.74358 0.86562 0.0
C399 C 0.92823 0.76612 0.83154 0.0
C400 C 0.96046 0.80133 0.84614 0.0
C401 C 0.94418 0.81015 0.86942 0.0
C402 C 0.89846 0.78157 0.87842 0.0
C403 C 0.88468 0.737 0.84193 0.0
H404 H 0.88741 0.78906 0.89649 0.0
H405 H 0.86463 0.70781 0.83108 0.0
H406 H 0.7997 0.62453 0.92154 0.0
H407 H 0.70788 0.65594 0.87676 0.0
C408 C 0.78989 0.74863 0.92569 0.0
C409 C 0.90847 0.69882 0.91934 0.0
C410 C 0.75397 0.7233 0.83494 0.0
C411 C 0.81173 0.61664 0.84693 0.0
H412 H 0.90946 0.73881 0.96821 0.0
H413 H 0.84182 0.7631 0.9727 0.0
H414 H 0.73511 0.79016 0.90812 0.0
H415 H 0.7197 0.77947 0.85785 0.0
H416 H 0.72932 0.66167 0.79305 0.0
H417 H 0.75724 0.60058 0.8003 0.0
H418 H 0.88007 0.58714 0.86104 0.0
H419 H 0.93548 0.63528 0.89926 0.0
H420 H 0.73285 0.55533 0.9343 0.0
H421 H 0.63971 0.5894 0.89053 0.0
H422 H 0.93863 0.75846 0.81319 0.0
H423 H 0.96745 0.83741 0.8813 0.0
C424 C 0.18776 0.84115 0.0911 0.0
C425 C 0.1727 0.84661 0.11518 0.0
C426 C 0.12583 0.81661 0.117 0.0
C427 C 0.11475 0.79462 0.09398 0.0
N428 N 0.15179 0.80881 0.07788 0.0
Co429 Co 0.15022 0.78811 0.04215 0.0
N430 N 0.08013 0.76309 0.03981 0.0
C431 C 0.05078 0.75447 0.05997 0.0
C432 C 1.00419 0.73819 0.05279 0.0
C433 C 1.00411 0.73593 0.02649 0.0
C434 C 0.05083 0.75062 0.019 0.0
N435 N 0.14879 0.76752 0.0064 0.0
C436 C 0.11366 0.75337 0.9884 0.0
C437 C 0.12782 0.74039 0.96624 0.0
C438 C 0.17303 0.74634 0.97066 0.0
C439 C 0.1841 0.76254 0.99523 0.0
N440 N 0.22021 0.8137 0.04478 0.0
C441 C 0.24784 0.80365 0.02958 0.0
C442 C 0.29515 0.82779 0.03538 0.0
C443 C 0.29714 0.85463 0.05544 0.0
C444 C 0.25086 0.84546 0.06075 0.0
N445 N 0.14373 0.73094 0.05504 0.0
C446 C 0.14001 0.64937 0.06919 0.0
C447 C 0.17344 0.68909 0.08008 0.0
C448 C 0.1742 0.72907 0.07314 0.0
C449 C 0.10772 0.65181 0.05157 0.0
C450 C 0.11055 0.69244 0.04457 0.0
N451 N 0.15757 0.84462 0.02905 0.0
C452 C 0.20416 0.91025 0.00487 0.0
C453 C 0.17866 0.93073 0.01499 0.0
C454 C 0.13982 0.90567 0.03084 0.0
C455 C 0.13058 0.86315 0.0381 0.0
C456 C 0.19257 0.86728 0.0117 0.0
H457 H 0.10239 0.84573 0.05154 0.0
H458 H 0.2134 0.85304 1.00362 0.0
H459 H 0.20028 0.75866 0.08207 0.0
H460 H 0.08624 0.69255 0.03019 0.0
C461 C 0.06885 0.76855 0.08472 0.0
C462 C 0.23673 0.86587 0.08173 0.0
C463 C 0.06541 0.74842 0.99236 0.0
C464 C 0.22881 0.77878 0.00718 0.0
H465 H 0.19315 0.87013 0.12977 0.0
H466 H 0.10201 0.81325 0.13261 0.0
H467 H 0.97401 0.73033 0.0651 0.0
H468 H 0.97305 0.72432 0.01433 0.0
H469 H 0.10733 0.72741 0.94887 0.0
H470 H 0.19549 0.74048 0.9573 0.0
H471 H 0.32485 0.82768 0.02537 0.0
H472 H 0.32886 0.87843 0.06491 0.0
H473 H 0.19911 0.68928 0.09385 0.0
H474 H 0.08099 0.62237 0.04267 0.0
H475 H 0.23375 0.92776 0.99211 0.0
H476 H 0.11809 0.91957 0.03847 0.0
C477 C 0.49374 0.15734 0.21599 0.0
C478 C 0.53753 0.18801 0.20697 0.0
C479 C 0.52903 0.21098 0.18817 0.0
C480 C 0.48079 0.19389 0.18706 0.0
N481 N 0.45763 0.16149 0.20401 0.0
Co482 Co 0.38744 0.13374 0.21077 0.0
N483 N 0.37554 0.16629 0.18192 0.0
C484 C 0.40846 0.19354 0.16538 0.0
C485 C 0.39136 0.21244 0.1479 0.0
C486 C 0.34469 0.1968 0.15377 0.0
C487 C 0.33577 0.16891 0.1746 0.0
N488 N 0.31818 0.10857 0.21878 0.0
C489 C 0.28401 0.11805 0.20908 0.0
C490 C 0.24179 0.09595 0.22228 0.0
C491 C 0.24981 0.07269 0.24127 0.0
C492 C 0.29634 0.08178 0.23864 0.0
N493 N 0.39988 0.09891 0.23818 0.0
C494 C 0.36648 0.06922 0.25354 0.0
C495 C 0.38315 0.04686 0.26879 0.0
C496 C 0.4301 0.06323 0.26284 0.0
C497 C 0.44002 0.09553 0.24457 0.0
N498 N 0.39649 0.1816 0.23587 0.0
C499 C 0.37053 0.23272 0.26896 0.0
C500 C 0.37702 0.19787 0.27843 0.0
C501 C 0.39026 0.17319 0.2618 0.0
C502 C 0.38344 0.24492 0.2434 0.0
C503 C 0.39737 0.21981 0.22751 0.0
N504 N 0.37459 0.08484 0.18593 0.0
C505 C 0.32207 1.01045 0.17241 0.0
C506 C 0.34444 1.01645 0.14867 0.0
C507 C 0.38425 0.05708 0.14446 0.0
C508 C 0.39837 0.09076 0.16312 0.0
C509 C 0.33786 0.04418 0.19059 0.0
H510 H 0.42798 0.12161 0.15865 0.0
H511 H 0.31883 0.03666 0.20818 0.0
H512 H 0.39303 0.14623 0.27029 0.0
H513 H 0.40654 0.23099 0.20816 0.0
C514 C 0.45615 0.20613 0.1695 0.0
C515 C 0.4887 0.12378 0.23505 0.0
C516 C 0.29041 0.14922 0.18824 0.0
C517 C 0.32027 0.06442 0.25365 0.0
H518 H 0.57222 0.19308 0.21305 0.0
H519 H 0.55496 0.23687 0.17652 0.0
H520 H 0.41111 0.23682 0.13362 0.0
H521 H 0.32082 0.20679 0.14448 0.0
H522 H 0.2089 0.09727 0.21882 0.0
H523 H 0.22476 0.05187 0.25542 0.0
H524 H 0.36356 1.02176 0.28273 0.0
H525 H 0.4545 0.05312 0.27141 0.0
H526 H 0.36956 0.18832 0.29838 0.0
H527 H 0.38111 0.27286 0.23542 0.0
H528 H 0.2918 0.9796 0.17692 0.0
H529 H 0.40353 0.0632 0.12658 0.0
C530 C 0.17419 0.33184 0.43295 0.0
C531 C 0.17023 0.31501 0.45754 0.0
C532 C 0.20584 0.30339 0.46023 0.0
C533 C 0.22945 0.31369 0.43722 0.0
N534 N 0.21093 0.33107 0.42025 0.0
Co535 Co 0.23384 0.34982 0.3848 0.0
N536 N 0.26794 0.31385 0.38412 0.0
C537 C 0.28006 0.29797 0.40493 0.0
C538 C 0.30434 0.27506 0.3989 0.0
C539 C 0.30818 0.27696 0.37268 0.0
C540 C 0.286 0.30108 0.36413 0.0
N541 N 0.25702 0.3684 0.34931 0.0
C542 C 0.27619 0.35128 0.3321 0.0
C543 C 0.28832 0.37546 0.30963 0.0
C544 C 0.27682 0.40898 0.31306 0.0
C545 C 0.25826 0.40351 0.33739 0.0
N546 N 0.19952 0.38547 0.3859 0.0
C547 C 0.20718 0.41897 0.3702 0.0
C548 C 0.17682 0.43642 0.37501 0.0
C549 C 0.14856 0.41234 0.39498 0.0
C550 C 0.16319 0.38141 0.40127 0.0
N551 N 0.29182 0.40069 0.3985 0.0
C552 C 0.37277 0.47957 0.41316 0.0
C553 C 0.32763 0.46795 0.42338 0.0
C554 C 0.28818 0.42842 0.41623 0.0
C555 C 0.37632 0.44964 0.39605 0.0
C556 C 0.33577 0.41105 0.38882 0.0
N557 N 0.1758 0.30064 0.37071 0.0
C558 C 0.10499 0.27787 0.34486 0.0
C559 C 0.08646 0.23491 0.35382 0.0
C560 C 0.11544 0.22504 0.37035 0.0
C561 C 0.1593 0.25854 0.37911 0.0
C562 C 0.14966 0.30954 0.35289 0.0
H563 H 0.17949 0.25056 0.39293 0.0
H564 H 0.1623 0.3418 0.34508 0.0
H565 H 0.25434 0.42094 0.42463 0.0
H566 H 0.34001 0.3901 0.37485 0.0
C567 C 0.26242 0.30001 0.4292 0.0
C568 C 0.14412 0.35026 0.42277 0.0
C569 C 0.28693 0.31459 0.33728 0.0
C570 C 0.2358 0.42649 0.34832 0.0
H571 H 0.14427 0.31137 0.47198 0.0
H572 H 0.21223 0.28739 0.47656 0.0
H573 H 0.31674 0.25806 0.41194 0.0
H574 H 0.32602 0.26286 0.36122 0.0
H575 H 0.30443 0.36981 0.29271 0.0
H576 H 0.28046 0.43368 0.29919 0.0
H577 H 0.17389 0.46209 0.36446 0.0
H578 H 0.12042 0.41687 0.40386 0.0
H579 H 0.32273 0.48953 0.43677 0.0
H580 H 0.41021 0.45661 0.38774 0.0
H581 H 0.0848 0.28712 0.33164 0.0
H582 H 0.10358 0.19201 0.37714 0.0
C583 C 0.87168 0.20582 0.595 0.0
C584 C 0.88779 0.20079 0.61894 0.0
C585 C 0.93483 0.23046 0.62019 0.0
C586 C 0.94484 0.25183 0.59701 0.0
N587 N 0.90701 0.23756 0.58133 0.0
Co588 Co 0.90645 0.25809 0.54577 0.0
N589 N 0.97644 0.28333 0.54267 0.0
C590 C 1.00687 0.29149 0.56241 0.0
C591 C 0.05296 0.30722 0.55464 0.0
C592 C 0.05165 0.30971 0.52842 0.0
C593 C 1.00466 0.29591 0.52157 0.0
N594 N 0.90585 0.27877 0.51024 0.0
C595 C 0.94037 0.29403 0.49205 0.0
C596 C 0.92515 0.30749 0.47039 0.0
C597 C 0.87988 0.30072 0.47533 0.0
C598 C 0.86986 0.28361 0.49969 0.0
N599 N 0.83658 0.23239 0.54919 0.0
C600 C 0.80801 0.24221 0.5345 0.0
C601 C 0.76106 0.21805 0.54088 0.0
C602 C 0.76031 0.1915 0.5608 0.0
C603 C 0.80691 0.20089 0.56546 0.0
N604 N 0.91322 0.31499 0.55909 0.0
C605 C 0.91555 0.39583 0.57314 0.0
C606 C 0.94753 0.39387 0.55529 0.0
C607 C 0.94544 0.35354 0.54837 0.0
C608 C 0.88338 0.35616 0.58445 0.0
C609 C 0.88333 0.31652 0.57754 0.0
N610 N 0.8986 0.20157 0.53216 0.0
C611 C 0.85063 0.13579 0.50819 0.0
C612 C 0.87767 0.11574 0.5169 0.0
C613 C 0.91766 0.14116 0.53212 0.0
C614 C 0.92672 0.1834 0.54009 0.0
C615 C 0.86228 0.17863 0.51543 0.0
H616 H 0.95589 0.20095 0.55306 0.0
H617 H 0.84051 0.19254 0.50814 0.0
H618 H 0.96933 0.35365 0.53378 0.0
H619 H 0.85812 0.28689 0.58673 0.0
C620 C 0.99022 0.27759 0.58729 0.0
C621 C 0.8224 0.18119 0.58619 0.0
C622 C 0.98895 0.29945 0.49535 0.0
C623 C 0.82575 0.26713 0.5121 0.0
H624 H 0.86785 0.1778 0.6338 0.0
H625 H 0.95938 0.23409 0.63556 0.0
H626 H 0.0837 0.31454 0.56652 0.0
H627 H 0.08206 0.32094 0.51592 0.0
H628 H 0.94498 0.32138 0.45302 0.0
H629 H 0.85678 0.30684 0.46249 0.0
H630 H 0.73078 0.21806 0.53136 0.0
H631 H 0.72918 0.16784 0.57068 0.0
H632 H 0.97334 0.4234 0.54612 0.0
H633 H 0.85808 0.35572 0.59846 0.0
H634 H 0.8199 0.11811 0.49607 0.0
H635 H 0.94067 0.12783 0.53868 0.0
C636 C 0.13438 0.5906 0.10152 0.0
C637 C 0.13909 0.60571 0.07568 0.0
C638 C 0.13436 0.53505 0.06168 0.0
C639 C 0.13574 0.52236 0.0876 0.0
N640 N 0.14871 0.54484 0.13207 0.0
N641 N 0.15523 0.59488 0.0317 0.0
C642 C 0.13902 0.5521 0.10748 0.0
C643 C 0.14237 0.57859 0.05592 0.0
N644 N 0.12346 0.61183 0.12044 0.0
N645 N 0.12345 0.50508 0.04241 0.0
H646 H 0.16368 0.62695 0.02688 0.0
H647 H 0.16263 0.57812 0.01721 0.0
H648 H 0.11532 0.4726 0.04576 0.0
H649 H 0.11738 0.51128 0.02353 0.0
H650 H 0.115 0.59981 0.13909 0.0
H651 H 0.11783 0.63882 0.11689 0.0
H652 H 0.15609 0.56752 0.1468 0.0
H653 H 0.15459 0.51851 0.13716 0.0
C654 C 0.58609 0.11796 0.27892 0.0
C655 C 0.62135 0.1214 0.26087 0.0
C656 C 0.56352 0.1139 0.22655 0.0
C657 C 0.53289 0.11973 0.24443 0.0
N658 N 0.52349 0.13733 0.28823 0.0
N659 N 0.64446 0.13031 0.21631 0.0
C660 C 0.5465 0.12441 0.27083 0.0
C661 C 0.61015 0.12134 0.23431 0.0
N662 N 0.58983 0.10792 0.30388 0.0
N663 N 0.54803 0.10077 0.20209 0.0
H664 H 0.67909 0.13735 0.2211 0.0
H665 H 0.63954 0.13482 0.19695 0.0
H666 H 0.51403 0.09386 0.19597 0.0
H667 H 0.56715 0.09252 0.18887 0.0
H668 H 0.56331 0.10171 0.31735 0.0
H669 H 0.61695 0.10125 0.31028 0.0
H670 H 0.53481 0.14495 0.30722 0.0
H671 H 0.49635 0.14478 0.28306 0.0
C672 C 0.46606 0.57739 0.45232 0.0
C673 C 0.49654 0.60498 0.43281 0.0
C674 C 0.44237 0.55315 0.40045 0.0
C675 C 0.41566 0.52288 0.41998 0.0
N676 N 0.41049 0.50372 0.46485 0.0
N677 N 0.51809 0.61246 0.388 0.0
C678 C 0.42993 0.53437 0.44602 0.0
C679 C 0.48587 0.59092 0.40678 0.0
N680 N 0.46999 0.59278 0.47684 0.0
N681 N 0.42535 0.5471 0.37588 0.0
H682 H 0.55098 0.63889 0.3918 0.0
H683 H 0.51426 0.60113 0.36916 0.0
H684 H 0.39291 0.52133 0.37057 0.0
H685 H 0.44091 0.57027 0.36146 0.0
H686 H 0.44582 0.57576 0.49123 0.0
H687 H 0.49416 0.62445 0.48211 0.0
H688 H 0.42283 0.50897 0.48374 0.0
H689 H 0.38564 0.47157 0.46108 0.0
C690 C 0.91616 0.49293 0.61109 0.0
C691 C 0.91724 0.52159 0.59107 0.0
C692 C 0.90971 0.46477 0.55969 0.0
C693 C 0.91544 0.43898 0.57948 0.0
N694 N 0.93449 0.43483 0.62398 0.0
N695 N 0.92529 0.53716 0.54564 0.0
C696 C 0.92153 0.45486 0.60519 0.0
C697 C 0.91684 0.50811 0.56517 0.0
N698 N 0.908 0.50089 0.6358 0.0
N699 N 0.8955 0.44739 0.53575 0.0
H700 H 0.93255 0.56949 0.54874 0.0
H701 H 0.9301 0.53046 0.52667 0.0
H702 H 0.88781 0.41539 0.53116 0.0
H703 H 0.88634 0.46307 0.52132 0.0
H704 H 0.90227 0.47892 0.65073 0.0
H705 H 0.9017 0.52698 0.64088 0.0
H706 H 0.94402 0.44757 0.64245 0.0
H707 H 0.94067 0.40815 0.62043 0.0
C708 C 0.47712 0.88066 0.75104 0.0
C709 C 0.51819 0.92019 0.74492 0.0
C710 C 0.4752 0.95988 0.76049 0.0
C711 C 0.43176 0.92051 0.76202 0.0
N712 N 0.39136 0.84335 0.75275 0.0
N713 N 0.55 0.99784 0.73821 0.0
C714 C 0.43278 0.88092 0.75532 0.0
C715 C 0.51531 0.95996 0.74792 0.0
N716 N 0.48047 0.8428 0.75347 0.0
N717 N 0.47945 0.99688 0.77218 0.0
H718 H 0.57876 0.99906 0.72802 0.0
H719 H 0.54745 0.02691 0.73815 0.0
H720 H 0.45236 0.99754 0.78309 0.0
H721 H 0.51156 0.0253 0.77332 0.0
H722 H 0.45256 0.81387 0.75999 0.0
H723 H 0.51249 0.84158 0.75163 0.0
H724 H 0.38998 0.81443 0.74584 0.0
H725 H 0.35831 0.84238 0.75499 0.0
C726 C 0.5673 0.45569 0.90592 0.0
C727 C 0.55779 0.44033 0.93169 0.0
C728 C 0.62566 0.50939 0.94573 0.0
C729 C 0.63844 0.52227 0.91976 0.0
N730 N 0.62664 0.50079 0.87511 0.0
N731 N 0.58631 0.4493 0.97542 0.0
C732 C 0.61071 0.4934 0.89985 0.0
C733 C 0.58941 0.46629 0.9514 0.0
N734 N 0.53408 0.43552 0.88723 0.0
N735 N 0.64661 0.53877 0.96511 0.0
H736 H 0.56192 0.41746 0.98016 0.0
H737 H 0.61126 0.46513 0.9898 0.0
H738 H 0.67183 0.57094 0.96185 0.0
H739 H 0.63533 0.5325 0.98412 0.0
H740 H 0.53721 0.44795 0.8687 0.0
H741 H 0.50118 0.40912 0.89091 0.0
H742 H 0.61018 0.47858 0.86028 0.0
H743 H 0.65906 0.52662 0.86993 0.0
C744 C 0.23092 0.15368 0.1569 0.0
C745 C 0.25279 0.16334 0.18151 0.0
C746 C 0.20978 0.20557 0.19076 0.0
C747 C 0.19794 0.20523 0.16432 0.0
N748 N 0.20158 0.17959 0.12136 0.0
N749 N 0.26568 0.20287 0.22135 0.0
C750 C 0.20885 0.17877 0.14716 0.0
C751 C 0.24251 0.19012 0.19842 0.0
N752 N 0.23222 0.12112 0.14257 0.0
N753 N 0.18904 0.22 0.20871 0.0
H754 H 0.29003 0.19262 0.22761 0.0
H755 H 0.26353 0.22642 0.23304 0.0
H756 H 0.16316 0.22939 0.20391 0.0
H757 H 0.19348 0.21775 0.22841 0.0
H758 H 0.2134 0.10978 0.12547 0.0
H759 H 0.24839 0.10265 0.14918 0.0
H760 H 0.21386 0.1648 0.10796 0.0
H761 H 0.18762 0.19844 0.11288 0.0
C762 C 0.95139 0.16064 0.35312 0.0
C763 C 0.94209 0.16332 0.32667 0.0
C764 C 0.02778 0.19508 0.31808 0.0
C765 C 0.03739 0.20175 0.34495 0.0
N766 N 1.00757 0.18639 0.38842 0.0
N767 N 0.96965 0.16846 0.28331 0.0
C768 C 0.99901 0.18223 0.36259 0.0
C769 C 0.97985 0.17593 0.30888 0.0
N770 N 0.91433 0.13677 0.36904 0.0
N771 N 0.065 0.20858 0.30142 0.0
H772 H 0.93547 0.15669 0.27596 0.0
H773 H 0.9943 0.172 0.26927 0.0
H774 H 0.09972 0.21898 0.30773 0.0
H775 H 0.06214 0.20969 0.28158 0.0
H776 H 0.9181 0.12961 0.38805 0.0
H777 H 0.87953 0.12017 0.36237 0.0
H778 H 0.98115 0.17705 0.40222 0.0
H779 H 0.04129 0.20165 0.39641 0.0
C780 C 0.852 0.05527 0.4837 0.0
C781 C 0.86299 0.06855 0.50976 0.0
C782 C 0.8372 0.9912 0.52097 0.0
C783 C 0.8174 0.97789 0.49606 0.0
N784 N 0.79832 0.99892 0.45522 0.0
N785 N 0.86036 0.04634 0.55419 0.0
C786 C 0.82313 1.0104 0.47772 0.0
C787 C 0.85468 0.03582 0.5287 0.0
N788 N 0.86953 0.08549 0.46451 0.0
N789 N 0.83929 0.96115 0.5373 0.0
H790 H 0.87038 0.07761 0.56115 0.0
H791 H 0.85062 0.0231 0.56872 0.0
H792 H 0.82701 0.92848 0.53216 0.0
H793 H 0.85746 0.96946 0.55474 0.0
H794 H 0.86558 0.077 0.44511 0.0
H795 H 0.89255 0.1183 0.46809 0.0
H796 H 0.79798 1.02167 0.44215 0.0
H797 H 0.77373 0.96689 0.45121 0.0
C798 C 0.79969 0.80461 0.67265 0.0
C799 C 0.84848 0.82987 0.66674 0.0
C800 C 0.83923 0.89625 0.67477 0.0
C801 C 0.79262 0.87034 0.68424 0.0
N802 N 0.7349 0.7995 0.69858 0.0
N803 N 0.91675 0.90095 0.66705 0.0
C804 C 0.77512 0.82444 0.68527 0.0
C805 C 0.86894 0.87616 0.66912 0.0
N806 N 0.77572 0.76194 0.66513 0.0
N807 N 0.85473 0.93966 0.67037 0.0
H808 H 0.93964 0.88746 0.66388 0.0
H809 H 0.9339 0.9343 0.67095 0.0
H810 H 0.83396 0.95518 0.67413 0.0
H811 H 0.88649 0.95922 0.6611 0.0
H812 H 0.73917 0.74359 0.6671 0.0
H813 H 0.79102 0.7465 0.65419 0.0
H814 H 0.72266 0.76624 0.70185 0.0
H815 H 0.71742 0.81355 0.70876 0.0
C816 C 0.03499 0.79862 0.83179 0.0
C817 C 1.01192 0.82412 0.83827 0.0
C818 C 0.08794 0.89 0.83165 0.0
C819 C 0.10803 0.86436 0.82085 0.0
N820 N 0.09499 0.79345 0.80608 0.0
N821 N 1.01577 0.8957 0.83906 0.0
C822 C 0.0794 0.81848 0.81921 0.0
C823 C 0.03816 0.87037 0.83663 0.0
N824 N 1.01631 0.7559 0.83916 0.0
N825 N 0.11637 0.93224 0.83865 0.0
H826 H 0.9793 0.8826 0.8416 0.0
H827 H 0.03284 0.92927 0.83586 0.0
H828 H 0.15308 0.94703 0.83676 0.0
H829 H 0.10382 0.9509 0.84871 0.0
H830 H 0.03418 0.73729 0.8368 0.0
H831 H 0.98613 0.74073 0.85051 0.0
H832 H 0.07365 0.7604 0.80231 0.0
H833 H 0.12754 0.80691 0.79691 0.0
C834 C 0.19857 0.99114 0.98244 0.0
C835 C 0.19373 0.97811 0.00865 0.0
C836 C 0.22742 0.05578 0.021 0.0
C837 C 0.2407 0.06847 0.99527 0.0
N838 N 0.24121 0.04734 0.95106 0.0
N839 N 0.20507 0.99919 0.05349 0.0
C840 C 0.22639 0.03596 0.97577 0.0
C841 C 0.20777 1.01074 0.02821 0.0
N842 N 0.17542 0.96061 0.96389 0.0
N843 N 0.23411 0.08807 0.03805 0.0
H844 H 0.19342 0.96727 0.05969 0.0
H845 H 0.21771 1.02141 0.06855 0.0
H846 H 0.22296 0.08307 0.05711 0.0
H847 H 0.22296 0.08307 0.05711 0.0
H848 H 0.17378 0.96847 0.94472 0.0
H849 H 0.15343 0.92788 0.96818 0.0
H850 H 0.23679 0.02462 0.93679 0.0
H851 H 0.2616 0.07947 0.94519 0.0
C852 C 0.29866 0.37102 0.05079 0.0
C853 C 0.27261 0.34295 0.07115 0.0
C854 C 0.29672 0.28836 0.05619 0.0
C855 C 0.32249 0.31623 0.03568 0.0
N856 N 0.36064 0.38953 0.01902 0.0
N857 N 0.25977 0.28179 0.09777 0.0
C858 C 0.32769 0.35945 0.03488 0.0
C859 C 0.2759 0.30383 0.07529 0.0
N860 N 0.294 0.40771 0.04583 0.0
N861 N 0.29005 0.24634 0.05683 0.0
H862 H 0.24406 0.2922 0.1119 0.0
H863 H 0.26725 0.2567 0.10348 0.0
H864 H 0.30477 0.23382 0.04334 0.0
H865 H 0.26724 0.22313 0.0697 0.0
H866 H 0.30757 0.42667 0.02945 0.0
H867 H 0.27382 0.41759 0.05729 0.0
H868 H 0.36905 0.42247 0.01917 0.0
H869 H 0.38286 0.38222 0.00754 0.0
C870 C 0.93227 0.28083 0.20048 0.0
C871 C 0.93437 0.25721 0.22235 0.0
C872 C 1.01671 0.27509 0.21129 0.0
C873 C 1.01484 0.29887 0.18942 0.0
N874 N 0.97607 0.33622 0.16864 0.0
N875 N 0.98449 0.24697 0.25332 0.0
C876 C 0.97424 0.30563 0.18583 0.0
C877 C 0.97845 0.25895 0.2292 0.0
N878 N 0.88998 0.27866 0.1932 0.0
N879 N 0.05413 0.2664 0.21462 0.0
H880 H 0.95775 0.23668 0.26708 0.0
H881 H 1.01735 0.25221 0.26042 0.0
H882 H 0.08283 0.27766 0.20209 0.0
H883 H 0.05486 0.24532 0.22875 0.0
H884 H 0.88506 0.29113 0.17587 0.0
H885 H 0.85899 0.26174 0.20375 0.0
H886 H 0.9493 0.34543 0.16668 0.0
H887 H 1.0065 0.35545 0.15816 0.0
C888 C 0.72907 0.96435 0.38051 0.0
C889 C 0.69455 0.97917 0.37649 0.0
C890 C 0.6369 0.91193 0.39801 0.0
C891 C 0.67368 0.90299 0.40734 0.0
N892 N 0.7581 0.92635 0.40859 0.0
N893 N 0.61575 0.96863 0.38643 0.0
C894 C 0.72078 0.93109 0.39901 0.0
C895 C 0.64843 0.95342 0.38669 0.0
N896 N 0.76875 0.97995 0.36559 0.0
N897 N 0.59115 0.87997 0.39802 0.0
H898 H 0.62339 0.9997 0.37986 0.0
H899 H 0.58294 0.95206 0.39538 0.0
H900 H 0.58183 0.84815 0.4039 0.0
H901 H 0.56373 0.88405 0.38951 0.0
H902 H 0.79281 0.96727 0.36617 0.0
H903 H 0.77441 1.00132 0.35031 0.0
H904 H 0.79324 0.94836 0.40476 0.0
H905 H 0.75433 0.90367 0.42267 0.0
C906 C 0.78882 0.74874 0.57543 0.0
C907 C 0.7888 0.70767 0.57346 0.0
C908 C 0.73137 0.68884 0.53776 0.0
C909 C 0.73843 0.73267 0.53674 0.0
N910 N 0.77614 0.80539 0.55433 0.0
N911 N 0.76236 0.63938 0.55101 0.0
C912 C 0.76746 0.76282 0.55569 0.0
C913 C 0.76026 0.67771 0.55429 0.0
N914 N 0.80861 0.77396 0.59657 0.0
N915 N 0.69662 0.65768 0.52308 0.0
H916 H 0.78239 0.62983 0.56289 0.0
H917 H 0.74689 0.61855 0.53548 0.0
H918 H 0.67468 0.66466 0.51107 0.0
H919 H 0.68668 0.62451 0.52465 0.0
H920 H 0.8066 0.80262 0.60058 0.0
H921 H 0.8224 0.76319 0.6115 0.0
H922 H 0.80107 0.83002 0.56578 0.0
H923 H 0.76074 0.81674 0.54047 0.0
C924 C 0.08943 0.79758 0.72717 0.0
C925 C 0.12492 0.78323 0.72666 0.0
C926 C 0.07617 0.72603 0.69542 0.0
C927 C 0.04395 0.74398 0.69356 0.0
N928 N 1.02091 0.79827 0.70666 0.0
N929 N 0.15378 0.73567 0.70884 0.0
C930 C 0.05069 0.77992 0.70936 0.0
C931 C 0.11843 0.74757 0.71059 0.0
N932 N 0.09242 0.82775 0.74507 0.0
N933 N 0.06616 0.68814 0.68267 0.0
H934 H 0.18466 0.75019 0.71983 0.0
H935 H 0.15411 0.71355 0.69537 0.0
H936 H 0.0362 0.67211 0.67113 0.0
H937 H 0.08524 0.67069 0.68511 0.0
H938 H 0.06544 0.83614 0.74856 0.0
H939 H 0.12048 0.84204 0.75802 0.0
H940 H 1.02693 0.82773 0.71509 0.0
H941 H 0.99126 0.78526 0.69466 0.0
C942 C 0.41034 0.15061 0.88323 0.0
C943 C 0.39315 0.14496 0.9088 0.0
C944 C 0.36264 0.0654 0.90366 0.0
C945 C 0.37103 0.07093 0.87674 0.0
N946 N 0.39995 0.11978 0.84049 0.0
N947 N 0.35555 0.0968 0.94429 0.0
C948 C 0.39478 0.11384 0.86646 0.0
C949 C 0.37053 0.10224 0.91939 0.0
N950 N 0.44178 0.1913 0.87503 0.0
N951 N 0.3477 0.02489 0.91415 0.0
H952 H 0.36129 0.12289 0.95631 0.0
H953 H 0.3356 0.0666 0.95286 0.0
H954 H 0.34252 0.99773 0.90319 0.0
H955 H 0.34451 1.01869 0.93378 0.0
H956 H 0.45903 0.19708 0.85741 0.0
H957 H 0.45407 0.21864 0.88698 0.0
H958 H 0.412 0.15019 0.83179 0.0
H959 H 0.38854 0.09406 0.82741 0.0
C960 C 0.65845 0.73761 0.79578 0.0
C961 C 0.68715 0.77464 0.78066 0.0
C962 C 0.75869 0.77154 0.79706 0.0
C963 C 0.73036 0.73788 0.81436 0.0
N964 N 0.65334 0.6881 0.83038 0.0
N965 N 0.76467 0.82753 0.76672 0.0
C966 C 0.68015 0.72037 0.81353 0.0
C967 C 0.73733 0.79149 0.78109 0.0
N968 N 0.61036 0.71884 0.793 0.0
N969 N 0.80613 0.78404 0.79573 0.0
H970 H 0.75048 0.84159 0.75385 0.0
H971 H 0.80131 0.84494 0.76825 0.0
H972 H 0.8228 0.77062 0.80739 0.0
H973 H 0.82852 0.8052 0.78193 0.0
H974 H 0.58703 0.68944 0.80142 0.0
H975 H 0.59361 0.73132 0.78071 0.0
H976 H 0.6173 0.67708 0.83321 0.0
H977 H 0.66772 0.67329 0.84256 0.0
C978 C 0.99441 0.74719 0.93153 0.0
C979 C 0.95288 0.70678 0.93435 0.0
C980 C 0.99153 0.68925 0.97054 0.0
C981 C 0.02887 0.73281 0.97073 0.0
N982 N 0.06483 0.80428 0.95156 0.0
N983 N 0.91053 0.64014 0.95815 0.0
C984 C 0.03026 0.76195 0.95107 0.0
C985 C 0.95129 0.67779 0.95416 0.0
N986 N 0.99984 0.77107 0.9098 0.0
N987 N 0.99477 0.65864 0.98589 0.0
H988 H 0.88078 0.63031 0.94638 0.0
H989 H 0.90515 0.62024 0.97412 0.0
H990 H 1.02387 0.66583 0.99779 0.0
H991 H 0.97103 0.62553 0.98496 0.0
H992 H 0.03073 0.79909 0.90526 0.0
H993 H 0.975 0.7597 0.89498 0.0
H994 H 0.06488 0.82838 0.9395 0.0
H995 H 0.09186 0.81608 0.96526 0.0
C996 C 0.29215 0.90054 0.12011 0.0
C997 C 0.27252 0.90556 0.09653 0.0
C998 C 0.30606 0.98476 0.10504 0.0
C999 C 0.325 0.97976 0.12894 0.0
N1000 N 0.34745 0.93497 0.15532 0.0
N1001 N 0.27381 0.95406 0.06312 0.0
C1002 C 0.32146 0.93816 0.13524 0.0
C1003 C 0.2839 0.94829 0.08789 0.0
N1004 N 0.28197 0.85957 0.12832 0.0
N1005 N 0.30662 0.02362 0.09925 0.0
H1006 H 0.25731 0.92808 0.05039 0.0
H1007 H 0.28601 0.98456 0.05453 0.0
H1008 H 0.32027 0.05045 0.11154 0.0
H1009 H 0.29055 0.02853 0.08304 0.0
H1010 H 0.28986 0.85283 0.14669 0.0
H1011 H 0.26322 0.83178 0.1171 0.0
H1012 H 0.35016 0.90675 0.15965 0.0
H1013 H 0.37025 0.96196 0.16616 0.0
C1014 C 0.37757 0.29796 0.29526 0.0
C1015 C 0.34899 0.25523 0.28541 0.0
C1016 C 0.27869 0.25609 0.30524 0.0
C1017 C 0.3079 0.29683 0.31706 0.0
N1018 N 0.3859 0.35516 0.32528 0.0
N1019 N 0.2726 0.19154 0.28335 0.0
C1020 C 0.35753 0.31756 0.31239 0.0
C1021 C 0.29958 0.23379 0.29104 0.0
N1022 N 0.42412 0.31986 0.28834 0.0
N1023 N 0.23062 0.23905 0.30725 0.0
H1024 H 0.28564 0.17442 0.2722 0.0
H1025 H 0.23795 0.17227 0.28935 0.0
H1026 H 0.21438 0.25435 0.31761 0.0
H1027 H 0.20675 0.21199 0.29693 0.0
H1028 H 0.44557 0.35282 0.29209 0.0
H1029 H 0.4409 0.30571 0.27745 0.0
H1030 H 0.42268 0.36928 0.32548 0.0
H1031 H 0.37254 0.37115 0.33717 0.0
C1032 C 0.10356 0.37082 0.45866 0.0
C1033 C 0.10044 0.34338 0.43766 0.0
C1034 C 1.02134 0.28969 0.45229 0.0
C1035 C 1.0247 0.31663 0.47362 0.0
N1036 N 0.0617 0.38912 0.49159 0.0
N1037 N 0.04992 0.28505 0.40982 0.0
C1038 C 0.06346 0.35938 0.47493 0.0
C1039 C 0.0572 0.30548 0.43299 0.0
N1040 N 0.14539 0.4069 0.46372 0.0
N1041 N 0.98525 0.24814 0.45099 0.0
H1042 H 0.07571 0.29554 0.39553 0.0
H1043 H 1.01656 0.26169 0.40385 0.0
H1044 H 0.95842 0.23524 0.46465 0.0
H1045 H 0.98392 0.22557 0.43732 0.0
H1046 H 0.15162 0.42531 0.48045 0.0
H1047 H 0.1749 0.41686 0.45185 0.0
H1048 H 0.08687 0.42184 0.49195 0.0
H1049 H 0.03249 0.38192 0.50327 0.0
C1050 C 0.75956 0.06358 0.61088 0.0
C1051 C 0.73779 0.06796 0.63378 0.0
C1052 C 0.76702 0.14633 0.62415 0.0
C1053 C 0.78802 0.14153 0.6011 0.0
N1054 N 0.79234 0.09333 0.56917 0.0
N1055 N 0.71126 0.11117 0.65883 0.0
C1056 C 0.78033 0.09936 0.59341 0.0
C1057 C 0.73868 0.10873 0.63938 0.0
N1058 N 0.76303 0.02612 0.60644 0.0
N1059 N 0.77514 0.18705 0.63182 0.0
H1060 H 0.68953 0.08422 0.66994 0.0
H1061 H 0.70659 0.1386 0.66244 0.0
H1062 H 0.79366 0.21478 0.62058 0.0
H1063 H 0.76592 0.19373 0.64983 0.0
H1064 H 0.78264 0.02272 0.59145 0.0
H1065 H 0.74978 0.99961 0.61894 0.0
H1066 H 0.78233 0.06262 0.56122 0.0
H1067 H 0.80788 0.11889 0.55614 0.0
loop_
_geom_bond_atom_site_label_1
_geom_bond_atom_site_label_2
_geom_bond_distance
_geom_bond_site_symmetry_2
_ccdc_geom_bond_type
C0 C1 1.443 . S
C0 N4 1.376 . S
C0 C38 1.389 . S
C1 C0 1.443 . S
C1 C2 1.340 . S
C1 H41 0.951 . S
C2 C1 1.340 . S
C2 C3 1.439 . S
C2 H42 0.950 . S
C3 C2 1.439 . S
C3 N4 1.374 . S
C3 C37 1.395 . S
N4 C0 1.376 . S
N4 C3 1.374 . S
N4 Co5 2.008 . S
Co5 N4 2.008 . S
Co5 N6 1.995 . S
Co5 N11 2.008 . S
Co5 N16 1.995 . S
Co5 N21 2.282 . S
Co5 N27 2.282 . S
N6 Co5 1.995 . S
N6 C7 1.376 . S
N6 C10 1.383 . S
C7 N6 1.376 . S
C7 C8 1.446 . S
C7 C37 1.391 . S
C8 C7 1.446 . S
C8 C9 1.339 . S
C8 H43 0.949 . S
C9 C8 1.339 . S
C9 C10 1.439 . S
C9 H44 0.950 . S
C10 N6 1.383 . S
C10 C9 1.439 . S
C10 C39 1.392 . S
N11 Co5 2.008 . S
N11 C12 1.376 . S
N11 C15 1.374 . S
C12 N11 1.376 . S
C12 C13 1.443 . S
C12 C39 1.389 . S
C13 C12 1.443 . S
C13 C14 1.340 . S
C13 H45 0.951 . S
C14 C13 1.340 . S
C14 C15 1.439 . S
C14 H46 0.950 . S
C15 N11 1.374 . S
C15 C14 1.439 . S
C15 C40 1.395 . S
N16 Co5 1.995 . S
N16 C17 1.376 . S
N16 C20 1.383 . S
C17 N16 1.376 . S
C17 C18 1.446 . S
C17 C40 1.391 . S
C18 C17 1.446 . S
C18 C19 1.339 . S
C18 H47 0.949 . S
C19 C18 1.339 . S
C19 C20 1.439 . S
C19 H48 0.950 . S
C20 N16 1.383 . S
C20 C19 1.439 . S
C20 C38 1.392 . S
N21 Co5 2.282 . S
N21 C24 1.332 . S
N21 C26 1.332 . S
C22 C23 1.386 . S
C22 C25 1.388 . S
C23 C22 1.386 . S
C23 C24 1.382 . S
C23 H49 0.950 . S
C24 N21 1.332 . S
C24 C23 1.382 . S
C24 H35 0.952 . S
C25 C22 1.388 . S
C25 C26 1.382 . S
C25 H50 0.950 . S
C26 N21 1.332 . S
C26 C25 1.382 . S
C26 H36 0.948 . S
N27 Co5 2.282 . S
N27 C31 1.332 . S
N27 C32 1.332 . S
C28 C29 1.388 . S
C28 C32 1.382 . S
C28 H51 0.950 . S
C29 C28 1.388 . S
C29 C30 1.386 . S
C30 C29 1.386 . S
C30 C31 1.382 . S
C30 H52 0.950 . S
C31 N27 1.332 . S
C31 C30 1.382 . S
C31 H33 0.952 . S
C32 N27 1.332 . S
C32 C28 1.382 . S
C32 H34 0.948 . S
H33 C31 0.952 . S
H34 C32 0.948 . S
H35 C24 0.952 . S
H36 C26 0.948 . S
C37 C3 1.395 . S
C37 C7 1.391 . S
C38 C0 1.389 . S
C38 C20 1.392 . S
C39 C10 1.392 . S
C39 C12 1.389 . S
C40 C15 1.395 . S
C40 C17 1.391 . S
H41 C1 0.951 . S
H42 C2 0.950 . S
H43 C8 0.949 . S
H44 C9 0.950 . S
H45 C13 0.951 . S
H46 C14 0.950 . S
H47 C18 0.949 . S
H48 C19 0.950 . S
H49 C23 0.950 . S
H50 C25 0.950 . S
H51 C28 0.950 . S
H52 C30 0.950 . S
C53 C54 1.443 . S
C53 N57 1.376 . S
C53 C91 1.389 . S
C54 C53 1.443 . S
C54 C55 1.340 . S
C54 H94 0.951 . S
C55 C54 1.340 . S
C55 C56 1.439 . S
C55 H95 0.950 . S
C56 C55 1.439 . S
C56 N57 1.374 . S
C56 C90 1.395 . S
N57 C53 1.376 . S
N57 C56 1.374 . S
N57 Co58 2.008 . S
Co58 N57 2.008 . S
Co58 N59 1.995 . S
Co58 N64 2.008 . S
Co58 N69 1.995 . S
Co58 N74 2.282 . S
Co58 N80 2.282 . S
N59 Co58 1.995 . S
N59 C60 1.376 . S
N59 C63 1.383 . S
C60 N59 1.376 . S
C60 C61 1.446 . S
C60 C90 1.391 . S
C61 C60 1.446 . S
C61 C62 1.339 . S
C61 H96 0.949 . S
C62 C61 1.339 . S
C62 C63 1.439 . S
C62 H97 0.950 . S
C63 N59 1.383 . S
C63 C62 1.439 . S
C63 C92 1.392 . S
N64 Co58 2.008 . S
N64 C65 1.376 . S
N64 C68 1.374 . S
C65 N64 1.376 . S
C65 C66 1.443 . S
C65 C92 1.389 . S
C66 C65 1.443 . S
C66 C67 1.340 . S
C66 H98 0.951 . S
C67 C66 1.340 . S
C67 C68 1.439 . S
C67 H99 0.950 . S
C68 N64 1.374 . S
C68 C67 1.439 . S
C68 C93 1.395 . S
N69 Co58 1.995 . S
N69 C70 1.376 . S
N69 C73 1.383 . S
C70 N69 1.376 . S
C70 C71 1.446 . S
C70 C93 1.391 . S
C71 C70 1.446 . S
C71 C72 1.339 . S
C71 H100 0.949 . S
C72 C71 1.339 . S
C72 C73 1.439 . S
C72 H101 0.950 . S
C73 N69 1.383 . S
C73 C72 1.439 . S
C73 C91 1.392 . S
N74 Co58 2.282 . S
N74 C77 1.332 . S
N74 C79 1.332 . S
C75 C76 1.386 . S
C75 C78 1.388 . S
C76 C75 1.386 . S
C76 C77 1.382 . S
C76 H102 0.950 . S
C77 N74 1.332 . S
C77 C76 1.382 . S
C77 H88 0.952 . S
C78 C75 1.388 . S
C78 C79 1.382 . S
C78 H103 0.950 . S
C79 N74 1.332 . S
C79 C78 1.382 . S
C79 H89 0.948 . S
N80 Co58 2.282 . S
N80 C84 1.332 . S
N80 C85 1.332 . S
C81 C82 1.388 . S
C81 C85 1.382 . S
C81 H104 0.931 1_545 S
C82 C81 1.388 . S
C82 C83 1.386 . S
C83 C82 1.386 . S
C83 C84 1.382 . S
C83 H105 0.950 . S
C84 N80 1.332 . S
C84 C83 1.382 . S
C84 H86 0.952 . S
C85 N80 1.332 . S
C85 C81 1.382 . S
C85 H87 0.948 . S
H86 C84 0.952 . S
H87 C85 0.948 . S
H88 C77 0.952 . S
H89 C79 0.948 . S
C90 C56 1.395 . S
C90 C60 1.391 . S
C91 C53 1.389 . S
C91 C73 1.392 . S
C92 C63 1.392 . S
C92 C65 1.389 . S
C93 C68 1.395 . S
C93 C70 1.391 . S
H94 C54 0.951 . S
H95 C55 0.950 . S
H96 C61 0.949 . S
H97 C62 0.950 . S
H98 C66 0.951 . S
H99 C67 0.950 . S
H100 C71 0.949 . S
H101 C72 0.950 . S
H102 C76 0.950 . S
H103 C78 0.950 . S
H104 C81 0.931 1_565 S
H105 C83 0.950 . S
C106 C107 1.443 . S
C106 N110 1.376 . S
C106 C144 1.389 . S
C107 C106 1.443 . S
C107 C108 1.340 . S
C107 H147 0.951 . S
C108 C107 1.340 . S
C108 C109 1.439 . S
C108 H148 0.950 . S
C109 C108 1.439 . S
C109 N110 1.374 . S
C109 C143 1.395 . S
N110 C106 1.376 . S
N110 C109 1.374 . S
N110 Co111 2.008 . S
Co111 N110 2.008 . S
Co111 N112 1.995 . S
Co111 N117 2.008 . S
Co111 N122 1.995 . S
Co111 N127 2.282 . S
Co111 N133 2.282 . S
N112 Co111 1.995 . S
N112 C113 1.376 . S
N112 C116 1.383 . S
C113 N112 1.376 . S
C113 C114 1.446 . S
C113 C143 1.391 . S
C114 C113 1.446 . S
C114 C115 1.339 . S
C114 H149 0.949 . S
C115 C114 1.339 . S
C115 C116 1.439 . S
C115 H150 0.950 . S
C116 N112 1.383 . S
C116 C115 1.439 . S
C116 C145 1.392 . S
N117 Co111 2.008 . S
N117 C118 1.376 . S
N117 C121 1.374 . S
C118 N117 1.376 . S
C118 C119 1.443 . S
C118 C145 1.389 . S
C119 C118 1.443 . S
C119 C120 1.340 . S
C119 H151 0.951 . S
C120 C119 1.340 . S
C120 C121 1.439 . S
C120 H152 0.950 . S
C121 N117 1.374 . S
C121 C120 1.439 . S
C121 C146 1.395 . S
N122 Co111 1.995 . S
N122 C123 1.376 . S
N122 C126 1.383 . S
C123 N122 1.376 . S
C123 C124 1.446 . S
C123 C146 1.391 . S
C124 C123 1.446 . S
C124 C125 1.339 . S
C124 H153 0.949 . S
C125 C124 1.339 . S
C125 C126 1.439 . S
C125 H154 0.950 . S
C126 N122 1.383 . S
C126 C125 1.439 . S
C126 C144 1.392 . S
N127 Co111 2.282 . S
N127 C130 1.332 . S
N127 C132 1.332 . S
C128 C129 1.386 . S
C128 C131 1.388 . S
C129 C128 1.386 . S
C129 C130 1.382 . S
C129 H155 0.950 . S
C130 N127 1.332 . S
C130 C129 1.382 . S
C130 H141 0.952 . S
C131 C128 1.388 . S
C131 C132 1.382 . S
C131 H156 0.950 . S
C132 N127 1.332 . S
C132 C131 1.382 . S
C132 H142 0.948 . S
N133 Co111 2.282 . S
N133 C137 1.332 . S
N133 C138 1.332 . S
C134 C135 1.388 . S
C134 C138 1.382 . S
C134 H157 0.950 . S
C135 C134 1.388 . S
C135 C136 1.386 . S
C136 C135 1.386 . S
C136 C137 1.382 . S
C136 H158 0.950 . S
C137 N133 1.332 . S
C137 C136 1.382 . S
C137 H139 0.952 . S
C138 N133 1.332 . S
C138 C134 1.382 . S
C138 H140 0.948 . S
H139 C137 0.952 . S
H140 C138 0.948 . S
H141 C130 0.952 . S
H142 C132 0.948 . S
C143 C109 1.395 . S
C143 C113 1.391 . S
C144 C106 1.389 . S
C144 C126 1.392 . S
C145 C116 1.392 . S
C145 C118 1.389 . S
C146 C121 1.395 . S
C146 C123 1.391 . S
H147 C107 0.951 . S
H148 C108 0.950 . S
H149 C114 0.949 . S
H150 C115 0.950 . S
H151 C119 0.951 . S
H152 C120 0.950 . S
H153 C124 0.949 . S
H154 C125 0.950 . S
H155 C129 0.950 . S
H156 C131 0.950 . S
H157 C134 0.950 . S
H158 C136 0.950 . S
C159 C160 1.443 . S
C159 N163 1.376 . S
C159 C197 1.389 . S
C160 C159 1.443 . S
C160 C161 1.340 . S
C160 H200 0.951 . S
C161 C160 1.340 . S
C161 C162 1.439 . S
C161 H201 0.950 . S
C162 C161 1.439 . S
C162 N163 1.374 . S
C162 C196 1.395 . S
N163 C159 1.376 . S
N163 C162 1.374 . S
N163 Co164 2.008 . S
Co164 N163 2.008 . S
Co164 N165 1.995 . S
Co164 N170 2.008 . S
Co164 N175 1.995 . S
Co164 N180 2.282 . S
Co164 N186 2.282 . S
N165 Co164 1.995 . S
N165 C166 1.376 . S
N165 C169 1.383 . S
C166 N165 1.376 . S
C166 C167 1.446 . S
C166 C196 1.391 . S
C167 C166 1.446 . S
C167 C168 1.339 . S
C167 H202 0.949 . S
C168 C167 1.339 . S
C168 C169 1.439 . S
C168 H203 0.950 . S
C169 N165 1.383 . S
C169 C168 1.439 . S
C169 C198 1.392 . S
N170 Co164 2.008 . S
N170 C171 1.376 . S
N170 C174 1.374 . S
C171 N170 1.376 . S
C171 C172 1.443 . S
C171 C198 1.389 . S
C172 C171 1.443 . S
C172 C173 1.340 . S
C172 H204 0.951 . S
C173 C172 1.340 . S
C173 C174 1.439 . S
C173 H205 0.950 . S
C174 N170 1.374 . S
C174 C173 1.439 . S
C174 C199 1.395 . S
N175 Co164 1.995 . S
N175 C176 1.376 . S
N175 C179 1.383 . S
C176 N175 1.376 . S
C176 C177 1.446 . S
C176 C199 1.391 . S
C177 C176 1.446 . S
C177 C178 1.339 . S
C177 H206 0.949 . S
C178 C177 1.339 . S
C178 C179 1.439 . S
C178 H207 0.950 . S
C179 N175 1.383 . S
C179 C178 1.439 . S
C179 C197 1.392 . S
N180 Co164 2.282 . S
N180 C183 1.332 . S
N180 C185 1.332 . S
C181 C182 1.386 . S
C181 C184 1.388 . S
C182 C181 1.386 . S
C182 C183 1.382 . S
C182 H208 0.950 . S
C183 N180 1.332 . S
C183 C182 1.382 . S
C183 H194 0.952 . S
C184 C181 1.388 . S
C184 C185 1.382 . S
C184 H209 0.950 . S
C185 N180 1.332 . S
C185 C184 1.382 . S
C185 H195 0.948 . S
N186 Co164 2.282 . S
N186 C190 1.332 . S
N186 C191 1.332 . S
C187 C188 1.388 . S
C187 C191 1.382 . S
C187 H210 0.950 . S
C188 C187 1.388 . S
C188 C189 1.386 . S
C189 C188 1.386 . S
C189 C190 1.382 . S
C189 H211 0.950 . S
C190 N186 1.332 . S
C190 C189 1.382 . S
C190 H192 0.952 . S
C191 N186 1.332 . S
C191 C187 1.382 . S
C191 H193 0.948 . S
H192 C190 0.952 . S
H193 C191 0.948 . S
H194 C183 0.952 . S
H195 C185 0.948 . S
C196 C162 1.395 . S
C196 C166 1.391 . S
C197 C159 1.389 . S
C197 C179 1.392 . S
C198 C169 1.392 . S
C198 C171 1.389 . S
C199 C174 1.395 . S
C199 C176 1.391 . S
H200 C160 0.951 . S
H201 C161 0.950 . S
H202 C167 0.949 . S
H203 C168 0.950 . S
H204 C172 0.951 . S
H205 C173 0.950 . S
H206 C177 0.949 . S
H207 C178 0.950 . S
H208 C182 0.950 . S
H209 C184 0.950 . S
H210 C187 0.950 . S
H211 C189 0.950 . S
C212 C213 1.443 . S
C212 N216 1.376 . S
C212 C250 1.389 . S
C213 C212 1.443 . S
C213 C214 1.340 . S
C213 H253 0.951 . S
C214 C213 1.340 . S
C214 C215 1.439 . S
C214 H254 0.950 . S
C215 C214 1.439 . S
C215 N216 1.374 . S
C215 C249 1.395 . S
N216 C212 1.376 . S
N216 C215 1.374 . S
N216 Co217 2.008 . S
Co217 N216 2.008 . S
Co217 N218 1.995 . S
Co217 N223 2.008 . S
Co217 N228 1.995 . S
Co217 N233 2.282 . S
Co217 N239 2.282 . S
N218 Co217 1.995 . S
N218 C219 1.376 . S
N218 C222 1.383 . S
C219 N218 1.376 . S
C219 C220 1.446 . S
C219 C249 1.391 . S
C220 C219 1.446 . S
C220 C221 1.339 . S
C220 H255 0.949 . S
C221 C220 1.339 . S
C221 C222 1.439 . S
C221 H256 0.950 . S
C222 N218 1.383 . S
C222 C221 1.439 . S
C222 C251 1.392 . S
N223 Co217 2.008 . S
N223 C224 1.376 . S
N223 C227 1.374 . S
C224 N223 1.376 . S
C224 C225 1.443 . S
C224 C251 1.389 . S
C225 C224 1.443 . S
C225 C226 1.340 . S
C225 H257 0.951 . S
C226 C225 1.340 . S
C226 C227 1.439 . S
C226 H258 0.950 . S
C227 N223 1.374 . S
C227 C226 1.439 . S
C227 C252 1.395 . S
N228 Co217 1.995 . S
N228 C229 1.376 . S
N228 C232 1.383 . S
C229 N228 1.376 . S
C229 C230 1.446 . S
C229 C252 1.391 . S
C230 C229 1.446 . S
C230 C231 1.339 . S
C230 H259 0.949 . S
C231 C230 1.339 . S
C231 C232 1.439 . S
C231 H260 0.950 . S
C232 N228 1.383 . S
C232 C231 1.439 . S
C232 C250 1.392 . S
N233 Co217 2.282 . S
N233 C236 1.332 . S
N233 C238 1.332 . S
C234 C235 1.386 . S
C234 C237 1.388 . S
C235 C234 1.386 . S
C235 C236 1.382 . S
C235 H261 0.950 . S
C236 N233 1.332 . S
C236 C235 1.382 . S
C236 H247 0.952 . S
C237 C234 1.388 . S
C237 C238 1.382 . S
C237 H262 0.950 . S
C238 N233 1.332 . S
C238 C237 1.382 . S
C238 H248 0.948 . S
N239 Co217 2.282 . S
N239 C243 1.332 . S
N239 C244 1.332 . S
C240 C241 1.388 . S
C240 C244 1.382 . S
C240 H263 0.931 1_565 S
C241 C240 1.388 . S
C241 C242 1.386 . S
C242 C241 1.386 . S
C242 C243 1.382 . S
C242 H264 0.950 . S
C243 N239 1.332 . S
C243 C242 1.382 . S
C243 H245 0.952 . S
C244 N239 1.332 . S
C244 C240 1.382 . S
C244 H246 0.948 . S
H245 C243 0.952 . S
H246 C244 0.948 . S
H247 C236 0.952 . S
H248 C238 0.948 . S
C249 C215 1.395 . S
C249 C219 1.391 . S
C250 C212 1.389 . S
C250 C232 1.392 . S
C251 C222 1.392 . S
C251 C224 1.389 . S
C252 C227 1.395 . S
C252 C229 1.391 . S
H253 C213 0.951 . S
H254 C214 0.950 . S
H255 C220 0.949 . S
H256 C221 0.950 . S
H257 C225 0.951 . S
H258 C226 0.950 . S
H259 C230 0.949 . S
H260 C231 0.950 . S
H261 C235 0.950 . S
H262 C237 0.950 . S
H263 C240 0.931 1_545 S
H264 C242 0.950 . S
C265 C266 1.443 . S
C265 N269 1.376 . S
C265 C303 1.389 . S
C266 C265 1.443 . S
C266 C267 1.340 . S
C266 H306 0.951 . S
C267 C266 1.340 . S
C267 C268 1.439 . S
C267 H307 0.950 . S
C268 C267 1.439 . S
C268 N269 1.374 . S
C268 C302 1.395 . S
N269 C265 1.376 . S
N269 C268 1.374 . S
N269 Co270 2.008 . S
Co270 N269 2.008 . S
Co270 N271 1.995 . S
Co270 N276 2.008 . S
Co270 N281 1.995 . S
Co270 N286 2.282 . S
Co270 N292 2.282 . S
N271 Co270 1.995 . S
N271 C272 1.376 . S
N271 C275 1.383 . S
C272 N271 1.376 . S
C272 C273 1.446 . S
C272 C302 1.391 . S
C273 C272 1.446 . S
C273 C274 1.339 . S
C273 H308 0.949 . S
C274 C273 1.339 . S
C274 C275 1.439 . S
C274 H309 0.950 . S
C275 N271 1.383 . S
C275 C274 1.439 . S
C275 C304 1.392 . S
N276 Co270 2.008 . S
N276 C277 1.376 . S
N276 C280 1.374 . S
C277 N276 1.376 . S
C277 C278 1.443 1_556 S
C277 C304 1.389 . S
C278 C277 1.443 1_554 S
C278 C279 1.346 . S
C278 H310 0.951 . S
C279 C278 1.346 . S
C279 C280 1.408 1_554 S
C279 H311 0.972 . S
C280 N276 1.374 . S
C280 C279 1.408 1_556 S
C280 C305 1.395 . S
N281 Co270 1.995 . S
N281 C282 1.376 . S
N281 C285 1.383 . S
C282 N281 1.376 . S
C282 C283 1.446 . S
C282 C305 1.391 . S
C283 C282 1.446 . S
C283 C284 1.339 . S
C283 H312 0.949 . S
C284 C283 1.339 . S
C284 C285 1.439 . S
C284 H313 0.950 . S
C285 N281 1.383 . S
C285 C284 1.439 . S
C285 C303 1.392 . S
N286 Co270 2.282 . S
N286 C289 1.332 . S
N286 C291 1.332 . S
C287 C288 1.386 . S
C287 C290 1.388 . S
C288 C287 1.386 . S
C288 C289 1.382 . S
C288 H314 0.950 . S
C289 N286 1.332 . S
C289 C288 1.382 . S
C289 H300 0.952 . S
C290 C287 1.388 . S
C290 C291 1.382 . S
C290 H315 0.950 . S
C291 N286 1.332 . S
C291 C290 1.382 . S
C291 H301 0.948 . S
N292 Co270 2.282 . S
N292 C296 1.332 . S
N292 C297 1.332 . S
C293 C294 1.388 . S
C293 C297 1.382 . S
C293 H316 0.950 . S
C294 C293 1.388 . S
C294 C295 1.386 . S
C295 C294 1.386 . S
C295 C296 1.382 . S
C295 H317 0.950 . S
C296 N292 1.332 . S
C296 C295 1.382 . S
C296 H298 0.952 . S
C297 N292 1.332 . S
C297 C293 1.382 . S
C297 H299 0.948 . S
H298 C296 0.952 . S
H299 C297 0.948 . S
H300 C289 0.952 . S
H301 C291 0.948 . S
C302 C268 1.395 . S
C302 C272 1.391 . S
C303 C265 1.389 . S
C303 C285 1.392 . S
C304 C275 1.392 . S
C304 C277 1.389 . S
C305 C280 1.395 . S
C305 C282 1.391 . S
H306 C266 0.951 . S
H307 C267 0.950 . S
H308 C273 0.949 . S
H309 C274 0.950 . S
H310 C278 0.951 . S
H311 C279 0.972 . S
H312 C283 0.949 . S
H313 C284 0.950 . S
H314 C288 0.950 . S
H315 C290 0.950 . S
H316 C293 0.950 . S
H317 C295 0.950 . S
C318 C319 1.443 . S
C318 N322 1.376 . S
C318 C356 1.389 . S
C319 C318 1.443 . S
C319 C320 1.340 . S
C319 H359 0.951 . S
C320 C319 1.340 . S
C320 C321 1.439 . S
C320 H360 0.950 . S
C321 C320 1.439 . S
C321 N322 1.374 . S
C321 C355 1.395 . S
N322 C318 1.376 . S
N322 C321 1.374 . S
N322 Co323 2.008 . S
Co323 N322 2.008 . S
Co323 N324 1.995 . S
Co323 N329 2.008 . S
Co323 N334 1.995 . S
Co323 N339 2.282 . S
Co323 N345 2.282 . S
N324 Co323 1.995 . S
N324 C325 1.376 . S
N324 C328 1.383 . S
C325 N324 1.376 . S
C325 C326 1.446 . S
C325 C355 1.391 . S
C326 C325 1.446 . S
C326 C327 1.339 . S
C326 H361 0.949 . S
C327 C326 1.339 . S
C327 C328 1.439 . S
C327 H362 0.950 . S
C328 N324 1.383 . S
C328 C327 1.439 . S
C328 C357 1.392 . S
N329 Co323 2.008 . S
N329 C330 1.376 . S
N329 C333 1.374 . S
C330 N329 1.376 . S
C330 C331 1.443 . S
C330 C357 1.389 . S
C331 C330 1.443 . S
C331 C332 1.340 . S
C331 H363 0.951 . S
C332 C331 1.340 . S
C332 C333 1.439 . S
C332 H364 0.950 . S
C333 N329 1.374 . S
C333 C332 1.439 . S
C333 C358 1.395 . S
N334 Co323 1.995 . S
N334 C335 1.376 . S
N334 C338 1.383 . S
C335 N334 1.376 . S
C335 C336 1.446 . S
C335 C358 1.391 . S
C336 C335 1.446 . S
C336 C337 1.339 . S
C336 H365 0.949 . S
C337 C336 1.339 . S
C337 C338 1.439 . S
C337 H366 0.950 . S
C338 N334 1.383 . S
C338 C337 1.439 . S
C338 C356 1.392 . S
N339 Co323 2.282 . S
N339 C342 1.332 . S
N339 C344 1.332 . S
C340 C341 1.386 . S
C340 C343 1.388 . S
C341 C340 1.386 . S
C341 C342 1.382 . S
C341 H367 0.950 . S
C342 N339 1.332 . S
C342 C341 1.382 . S
C342 H353 0.952 . S
C343 C340 1.388 . S
C343 C344 1.382 . S
C343 H368 0.950 . S
C344 N339 1.332 . S
C344 C343 1.382 . S
C344 H354 0.948 . S
N345 Co323 2.282 . S
N345 C349 1.332 . S
N345 C350 1.332 . S
C346 C347 1.388 . S
C346 C350 1.382 . S
C346 H369 0.932 1_565 S
C347 C346 1.388 . S
C347 C348 1.386 . S
C348 C347 1.386 . S
C348 C349 1.382 . S
C348 H370 0.950 . S
C349 N345 1.332 . S
C349 C348 1.382 . S
C349 H351 0.952 . S
C350 N345 1.332 . S
C350 C346 1.382 . S
C350 H352 0.948 . S
H351 C349 0.952 . S
H352 C350 0.948 . S
H353 C342 0.952 . S
H354 C344 0.948 . S
C355 C321 1.395 . S
C355 C325 1.391 . S
C356 C318 1.389 . S
C356 C338 1.392 . S
C357 C328 1.392 . S
C357 C330 1.389 . S
C358 C333 1.395 . S
C358 C335 1.391 . S
H359 C319 0.951 . S
H360 C320 0.950 . S
H361 C326 0.949 . S
H362 C327 0.950 . S
H363 C331 0.951 . S
H364 C332 0.950 . S
H365 C336 0.949 . S
H366 C337 0.950 . S
H367 C341 0.950 . S
H368 C343 0.950 . S
H369 C346 0.932 1_545 S
H370 C348 0.950 . S
C371 C372 1.443 . S
C371 N375 1.376 . S
C371 C409 1.389 . S
C372 C371 1.443 . S
C372 C373 1.340 . S
C372 H412 0.951 . S
C373 C372 1.340 . S
C373 C374 1.439 . S
C373 H413 0.950 . S
C374 C373 1.439 . S
C374 N375 1.374 . S
C374 C408 1.395 . S
N375 C371 1.376 . S
N375 C374 1.374 . S
N375 Co376 2.008 . S
Co376 N375 2.008 . S
Co376 N377 1.995 . S
Co376 N382 2.008 . S
Co376 N387 1.995 . S
Co376 N392 2.282 . S
Co376 N398 2.282 . S
N377 Co376 1.995 . S
N377 C378 1.376 . S
N377 C381 1.383 . S
C378 N377 1.376 . S
C378 C379 1.446 . S
C378 C408 1.391 . S
C379 C378 1.446 . S
C379 C380 1.339 . S
C379 H414 0.949 . S
C380 C379 1.339 . S
C380 C381 1.439 . S
C380 H415 0.950 . S
C381 N377 1.383 . S
C381 C380 1.439 . S
C381 C410 1.392 . S
N382 Co376 2.008 . S
N382 C383 1.376 . S
N382 C386 1.374 . S
C383 N382 1.376 . S
C383 C384 1.443 . S
C383 C410 1.389 . S
C384 C383 1.443 . S
C384 C385 1.340 . S
C384 H416 0.951 . S
C385 C384 1.340 . S
C385 C386 1.439 . S
C385 H417 0.950 . S
C386 N382 1.374 . S
C386 C385 1.439 . S
C386 C411 1.395 . S
N387 Co376 1.995 . S
N387 C388 1.376 . S
N387 C391 1.383 . S
C388 N387 1.376 . S
C388 C389 1.446 . S
C388 C411 1.391 . S
C389 C388 1.446 . S
C389 C390 1.339 . S
C389 H418 0.949 . S
C390 C389 1.339 . S
C390 C391 1.439 . S
C390 H419 0.950 . S
C391 N387 1.383 . S
C391 C390 1.439 . S
C391 C409 1.392 . S
N392 Co376 2.282 . S
N392 C395 1.332 . S
N392 C397 1.332 . S
C393 C394 1.386 . S
C393 C396 1.388 . S
C394 C393 1.386 . S
C394 C395 1.382 . S
C394 H420 0.950 . S
C395 N392 1.332 . S
C395 C394 1.382 . S
C395 H406 0.952 . S
C396 C393 1.388 . S
C396 C397 1.382 . S
C396 H421 0.950 . S
C397 N392 1.332 . S
C397 C396 1.382 . S
C397 H407 0.948 . S
N398 Co376 2.282 . S
N398 C402 1.332 . S
N398 C403 1.332 . S
C399 C400 1.388 . S
C399 C403 1.382 . S
C399 H422 0.950 . S
C400 C399 1.388 . S
C400 C401 1.386 . S
C401 C400 1.386 . S
C401 C402 1.382 . S
C401 H423 0.950 . S
C402 N398 1.332 . S
C402 C401 1.382 . S
C402 H404 0.952 . S
C403 N398 1.332 . S
C403 C399 1.382 . S
C403 H405 0.948 . S
H404 C402 0.952 . S
H405 C403 0.948 . S
H406 C395 0.952 . S
H407 C397 0.948 . S
C408 C374 1.395 . S
C408 C378 1.391 . S
C409 C371 1.389 . S
C409 C391 1.392 . S
C410 C381 1.392 . S
C410 C383 1.389 . S
C411 C386 1.395 . S
C411 C388 1.391 . S
H412 C372 0.951 . S
H413 C373 0.950 . S
H414 C379 0.949 . S
H415 C380 0.950 . S
H416 C384 0.951 . S
H417 C385 0.950 . S
H418 C389 0.949 . S
H419 C390 0.950 . S
H420 C394 0.950 . S
H421 C396 0.950 . S
H422 C399 0.950 . S
H423 C401 0.950 . S
C424 C425 1.443 . S
C424 N428 1.376 . S
C424 C462 1.389 . S
C425 C424 1.443 . S
C425 C426 1.340 . S
C425 H465 0.951 . S
C426 C425 1.340 . S
C426 C427 1.439 . S
C426 H466 0.950 . S
C427 C426 1.439 . S
C427 N428 1.374 . S
C427 C461 1.395 . S
N428 C424 1.376 . S
N428 C427 1.374 . S
N428 Co429 2.008 . S
Co429 N428 2.008 . S
Co429 N430 1.995 . S
Co429 N435 2.008 . S
Co429 N440 1.995 . S
Co429 N445 2.282 . S
Co429 N451 2.282 . S
N430 Co429 1.995 . S
N430 C431 1.376 . S
N430 C434 1.383 . S
C431 N430 1.376 . S
C431 C432 1.446 . S
C431 C461 1.391 . S
C432 C431 1.446 . S
C432 C433 1.339 . S
C432 H467 0.949 1_455 S
C433 C432 1.339 . S
C433 C434 1.439 . S
C433 H468 0.950 1_455 S
C434 N430 1.383 . S
C434 C433 1.439 . S
C434 C463 1.392 . S
N435 Co429 2.008 . S
N435 C436 1.376 . S
N435 C439 1.374 . S
C436 N435 1.376 . S
C436 C437 1.443 1_554 S
C436 C463 1.389 . S
C437 C436 1.443 1_556 S
C437 C438 1.346 . S
C437 H469 0.951 . S
C438 C437 1.346 . S
C438 C439 1.408 1_556 S
C438 H470 0.972 . S
C439 N435 1.374 . S
C439 C438 1.408 1_554 S
C439 C464 1.395 . S
N440 Co429 1.995 . S
N440 C441 1.376 . S
N440 C444 1.383 . S
C441 N440 1.376 . S
C441 C442 1.446 . S
C441 C464 1.391 . S
C442 C441 1.446 . S
C442 C443 1.339 . S
C442 H471 0.949 . S
C443 C442 1.339 . S
C443 C444 1.439 . S
C443 H472 0.950 . S
C444 N440 1.383 . S
C444 C443 1.439 . S
C444 C462 1.392 . S
N445 Co429 2.282 . S
N445 C448 1.332 . S
N445 C450 1.332 . S
C446 C447 1.386 . S
C446 C449 1.388 . S
C447 C446 1.386 . S
C447 C448 1.382 . S
C447 H473 0.950 . S
C448 N445 1.332 . S
C448 C447 1.382 . S
C448 H459 0.952 . S
C449 C446 1.388 . S
C449 C450 1.382 . S
C449 H474 0.950 . S
C450 N445 1.332 . S
C450 C449 1.382 . S
C450 H460 0.948 . S
N451 Co429 2.282 . S
N451 C455 1.332 . S
N451 C456 1.332 . S
C452 C453 1.388 . S
C452 C456 1.382 . S
C452 H475 0.950 . S
C453 C452 1.388 . S
C453 C454 1.386 . S
C454 C453 1.386 . S
C454 C455 1.382 . S
C454 H476 0.950 . S
C455 N451 1.332 . S
C455 C454 1.382 . S
C455 H457 0.952 . S
C456 N451 1.332 . S
C456 C452 1.382 . S
C456 H458 0.948 . S
H457 C455 0.952 . S
H458 C456 0.948 . S
H459 C448 0.952 . S
H460 C450 0.948 . S
C461 C427 1.395 . S
C461 C431 1.391 . S
C462 C424 1.389 . S
C462 C444 1.392 . S
C463 C434 1.392 . S
C463 C436 1.389 . S
C464 C439 1.395 . S
C464 C441 1.391 . S
H465 C425 0.951 . S
H466 C426 0.950 . S
H467 C432 0.949 1_655 S
H468 C433 0.950 1_655 S
H469 C437 0.951 . S
H470 C438 0.972 . S
H471 C442 0.949 . S
H472 C443 0.950 . S
H473 C447 0.950 . S
H474 C449 0.950 . S
H475 C452 0.950 . S
H476 C454 0.950 . S
C477 C478 1.443 . S
C477 N481 1.376 . S
C477 C515 1.389 . S
C478 C477 1.443 . S
C478 C479 1.340 . S
C478 H518 0.951 . S
C479 C478 1.340 . S
C479 C480 1.439 . S
C479 H519 0.950 . S
C480 C479 1.439 . S
C480 N481 1.374 . S
C480 C514 1.395 . S
N481 C477 1.376 . S
N481 C480 1.374 . S
N481 Co482 2.008 . S
Co482 N481 2.008 . S
Co482 N483 1.995 . S
Co482 N488 2.008 . S
Co482 N493 1.995 . S
Co482 N498 2.282 . S
Co482 N504 2.282 . S
N483 Co482 1.995 . S
N483 C484 1.376 . S
N483 C487 1.383 . S
C484 N483 1.376 . S
C484 C485 1.446 . S
C484 C514 1.391 . S
C485 C484 1.446 . S
C485 C486 1.339 . S
C485 H520 0.949 . S
C486 C485 1.339 . S
C486 C487 1.439 . S
C486 H521 0.950 . S
C487 N483 1.383 . S
C487 C486 1.439 . S
C487 C516 1.392 . S
N488 Co482 2.008 . S
N488 C489 1.376 . S
N488 C492 1.374 . S
C489 N488 1.376 . S
C489 C490 1.443 . S
C489 C516 1.389 . S
C490 C489 1.443 . S
C490 C491 1.340 . S
C490 H522 0.951 . S
C491 C490 1.340 . S
C491 C492 1.439 . S
C491 H523 0.950 . S
C492 N488 1.374 . S
C492 C491 1.439 . S
C492 C517 1.395 . S
N493 Co482 1.995 . S
N493 C494 1.376 . S
N493 C497 1.383 . S
C494 N493 1.376 . S
C494 C495 1.446 . S
C494 C517 1.391 . S
C495 C494 1.446 . S
C495 C496 1.339 . S
C495 H524 0.949 . S
C496 C495 1.339 . S
C496 C497 1.439 . S
C496 H525 0.950 . S
C497 N493 1.383 . S
C497 C496 1.439 . S
C497 C515 1.392 . S
N498 Co482 2.282 . S
N498 C501 1.332 . S
N498 C503 1.332 . S
C499 C500 1.386 . S
C499 C502 1.388 . S
C500 C499 1.386 . S
C500 C501 1.382 . S
C500 H526 0.950 . S
C501 N498 1.332 . S
C501 C500 1.382 . S
C501 H512 0.952 . S
C502 C499 1.388 . S
C502 C503 1.382 . S
C502 H527 0.950 . S
C503 N498 1.332 . S
C503 C502 1.382 . S
C503 H513 0.948 . S
N504 Co482 2.282 . S
N504 C508 1.332 . S
N504 C509 1.332 . S
C505 C506 1.388 . S
C505 C509 1.382 . S
C505 H528 0.932 1_545 S
C506 C505 1.388 . S
C506 C507 1.386 . S
C507 C506 1.386 . S
C507 C508 1.382 . S
C507 H529 0.950 . S
C508 N504 1.332 . S
C508 C507 1.382 . S
C508 H510 0.952 . S
C509 N504 1.332 . S
C509 C505 1.382 . S
C509 H511 0.948 . S
H510 C508 0.952 . S
H511 C509 0.948 . S
H512 C501 0.952 . S
H513 C503 0.948 . S
C514 C480 1.395 . S
C514 C484 1.391 . S
C515 C477 1.389 . S
C515 C497 1.392 . S
C516 C487 1.392 . S
C516 C489 1.389 . S
C517 C492 1.395 . S
C517 C494 1.391 . S
H518 C478 0.951 . S
H519 C479 0.950 . S
H520 C485 0.949 . S
H521 C486 0.950 . S
H522 C490 0.951 . S
H523 C491 0.950 . S
H524 C495 0.949 . S
H525 C496 0.950 . S
H526 C500 0.950 . S
H527 C502 0.950 . S
H528 C505 0.932 1_565 S
H529 C507 0.950 . S
C530 C531 1.443 . S
C530 N534 1.376 . S
C530 C568 1.389 . S
C531 C530 1.443 . S
C531 C532 1.340 . S
C531 H571 0.951 . S
C532 C531 1.340 . S
C532 C533 1.439 . S
C532 H572 0.950 . S
C533 C532 1.439 . S
C533 N534 1.374 . S
C533 C567 1.395 . S
N534 C530 1.376 . S
N534 C533 1.374 . S
N534 Co535 2.008 . S
Co535 N534 2.008 . S
Co535 N536 1.995 . S
Co535 N541 2.008 . S
Co535 N546 1.995 . S
Co535 N551 2.282 . S
Co535 N557 2.282 . S
N536 Co535 1.995 . S
N536 C537 1.376 . S
N536 C540 1.383 . S
C537 N536 1.376 . S
C537 C538 1.446 . S
C537 C567 1.391 . S
C538 C537 1.446 . S
C538 C539 1.339 . S
C538 H573 0.949 . S
C539 C538 1.339 . S
C539 C540 1.439 . S
C539 H574 0.950 . S
C540 N536 1.383 . S
C540 C539 1.439 . S
C540 C569 1.392 . S
N541 Co535 2.008 . S
N541 C542 1.376 . S
N541 C545 1.374 . S
C542 N541 1.376 . S
C542 C543 1.443 . S
C542 C569 1.389 . S
C543 C542 1.443 . S
C543 C544 1.340 . S
C543 H575 0.951 . S
C544 C543 1.340 . S
C544 C545 1.439 . S
C544 H576 0.950 . S
C545 N541 1.374 . S
C545 C544 1.439 . S
C545 C570 1.395 . S
N546 Co535 1.995 . S
N546 C547 1.376 . S
N546 C550 1.383 . S
C547 N546 1.376 . S
C547 C548 1.446 . S
C547 C570 1.391 . S
C548 C547 1.446 . S
C548 C549 1.339 . S
C548 H577 0.949 . S
C549 C548 1.339 . S
C549 C550 1.439 . S
C549 H578 0.950 . S
C550 N546 1.383 . S
C550 C549 1.439 . S
C550 C568 1.392 . S
N551 Co535 2.282 . S
N551 C554 1.332 . S
N551 C556 1.332 . S
C552 C553 1.386 . S
C552 C555 1.388 . S
C553 C552 1.386 . S
C553 C554 1.382 . S
C553 H579 0.950 . S
C554 N551 1.332 . S
C554 C553 1.382 . S
C554 H565 0.952 . S
C555 C552 1.388 . S
C555 C556 1.382 . S
C555 H580 0.950 . S
C556 N551 1.332 . S
C556 C555 1.382 . S
C556 H566 0.948 . S
N557 Co535 2.282 . S
N557 C561 1.332 . S
N557 C562 1.332 . S
C558 C559 1.388 . S
C558 C562 1.382 . S
C558 H581 0.950 . S
C559 C558 1.388 . S
C559 C560 1.386 . S
C560 C559 1.386 . S
C560 C561 1.382 . S
C560 H582 0.950 . S
C561 N557 1.332 . S
C561 C560 1.382 . S
C561 H563 0.952 . S
C562 N557 1.332 . S
C562 C558 1.382 . S
C562 H564 0.948 . S
H563 C561 0.952 . S
H564 C562 0.948 . S
H565 C554 0.952 . S
H566 C556 0.948 . S
C567 C533 1.395 . S
C567 C537 1.391 . S
C568 C530 1.389 . S
C568 C550 1.392 . S
C569 C540 1.392 . S
C569 C542 1.389 . S
C570 C545 1.395 . S
C570 C547 1.391 . S
H571 C531 0.951 . S
H572 C532 0.950 . S
H573 C538 0.949 . S
H574 C539 0.950 . S
H575 C543 0.951 . S
H576 C544 0.950 . S
H577 C548 0.949 . S
H578 C549 0.950 . S
H579 C553 0.950 . S
H580 C555 0.950 . S
H581 C558 0.950 . S
H582 C560 0.950 . S
C583 C584 1.443 . S
C583 N587 1.376 . S
C583 C621 1.389 . S
C584 C583 1.443 . S
C584 C585 1.340 . S
C584 H624 0.951 . S
C585 C584 1.340 . S
C585 C586 1.439 . S
C585 H625 0.950 . S
C586 C585 1.439 . S
C586 N587 1.374 . S
C586 C620 1.395 . S
N587 C583 1.376 . S
N587 C586 1.374 . S
N587 Co588 2.008 . S
Co588 N587 2.008 . S
Co588 N589 1.995 . S
Co588 N594 2.008 . S
Co588 N599 1.995 . S
Co588 N604 2.282 . S
Co588 N610 2.282 . S
N589 Co588 1.995 . S
N589 C590 1.376 . S
N589 C593 1.383 . S
C590 N589 1.376 . S
C590 C591 1.446 . S
C590 C620 1.391 . S
C591 C590 1.446 . S
C591 C592 1.339 . S
C591 H626 0.949 1_655 S
C592 C591 1.339 . S
C592 C593 1.439 . S
C592 H627 0.950 1_655 S
C593 N589 1.383 . S
C593 C592 1.439 . S
C593 C622 1.392 . S
N594 Co588 2.008 . S
N594 C595 1.376 . S
N594 C598 1.374 . S
C595 N594 1.376 . S
C595 C596 1.443 . S
C595 C622 1.389 . S
C596 C595 1.443 . S
C596 C597 1.340 . S
C596 H628 0.951 . S
C597 C596 1.340 . S
C597 C598 1.439 . S
C597 H629 0.950 . S
C598 N594 1.374 . S
C598 C597 1.439 . S
C598 C623 1.395 . S
N599 Co588 1.995 . S
N599 C600 1.376 . S
N599 C603 1.383 . S
C600 N599 1.376 . S
C600 C601 1.446 . S
C600 C623 1.391 . S
C601 C600 1.446 . S
C601 C602 1.339 . S
C601 H630 0.949 . S
C602 C601 1.339 . S
C602 C603 1.439 . S
C602 H631 0.950 . S
C603 N599 1.383 . S
C603 C602 1.439 . S
C603 C621 1.392 . S
N604 Co588 2.282 . S
N604 C607 1.332 . S
N604 C609 1.332 . S
C605 C606 1.386 . S
C605 C608 1.388 . S
C606 C605 1.386 . S
C606 C607 1.382 . S
C606 H632 0.950 . S
C607 N604 1.332 . S
C607 C606 1.382 . S
C607 H618 0.952 . S
C608 C605 1.388 . S
C608 C609 1.382 . S
C608 H633 0.950 . S
C609 N604 1.332 . S
C609 C608 1.382 . S
C609 H619 0.948 . S
N610 Co588 2.282 . S
N610 C614 1.332 . S
N610 C615 1.332 . S
C611 C612 1.388 . S
C611 C615 1.382 . S
C611 H634 0.950 . S
C612 C611 1.388 . S
C612 C613 1.386 . S
C613 C612 1.386 . S
C613 C614 1.382 . S
C613 H635 0.950 . S
C614 N610 1.332 . S
C614 C613 1.382 . S
C614 H616 0.952 . S
C615 N610 1.332 . S
C615 C611 1.382 . S
C615 H617 0.948 . S
H616 C614 0.952 . S
H617 C615 0.948 . S
H618 C607 0.952 . S
H619 C609 0.948 . S
C620 C586 1.395 . S
C620 C590 1.391 . S
C621 C583 1.389 . S
C621 C603 1.392 . S
C622 C593 1.392 . S
C622 C595 1.389 . S
C623 C598 1.395 . S
C623 C600 1.391 . S
H624 C584 0.951 . S
H625 C585 0.950 . S
H626 C591 0.949 1_455 S
H627 C592 0.950 1_455 S
H628 C596 0.951 . S
H629 C597 0.950 . S
H630 C601 0.949 . S
H631 C602 0.950 . S
H632 C606 0.950 . S
H633 C608 0.950 . S
H634 C611 0.950 . S
H635 C613 0.950 . S
C636 C637 1.363 . S
C636 C642 1.379 . S
C636 N644 1.356 . S
C637 C636 1.363 . S
C637 C643 1.363 . S
C638 C639 1.363 . S
C638 C643 1.379 . S
C638 N645 1.356 . S
C639 C638 1.363 . S
C639 C642 1.363 . S
N640 C642 1.356 . S
N640 H652 0.984 . S
N640 H653 0.985 . S
N641 C643 1.356 . S
N641 H646 0.984 . S
N641 H647 0.985 . S
C642 C636 1.379 . S
C642 C639 1.363 . S
C642 N640 1.356 . S
C643 C637 1.363 . S
C643 C638 1.379 . S
C643 N641 1.356 . S
N644 C636 1.356 . S
N644 H650 0.984 . S
N644 H651 0.984 . S
N645 C638 1.356 . S
N645 H648 0.984 . S
N645 H649 0.985 . S
H646 N641 0.984 . S
H647 N641 0.985 . S
H648 N645 0.984 . S
H649 N645 0.985 . S
H650 N644 0.984 . S
H651 N644 0.984 . S
H652 N640 0.984 . S
H653 N640 0.985 . S
C654 C655 1.363 . S
C654 C660 1.379 . S
C654 N662 1.356 . S
C655 C654 1.363 . S
C655 C661 1.363 . S
C656 C657 1.363 . S
C656 C661 1.379 . S
C656 N663 1.356 . S
C657 C656 1.363 . S
C657 C660 1.363 . S
N658 C660 1.356 . S
N658 H670 0.984 . S
N658 H671 0.985 . S
N659 C661 1.356 . S
N659 H664 0.984 . S
N659 H665 0.985 . S
C660 C654 1.379 . S
C660 C657 1.363 . S
C660 N658 1.356 . S
C661 C655 1.363 . S
C661 C656 1.379 . S
C661 N659 1.356 . S
N662 C654 1.356 . S
N662 H668 0.984 . S
N662 H669 0.984 . S
N663 C656 1.356 . S
N663 H666 0.984 . S
N663 H667 0.985 . S
H664 N659 0.984 . S
H665 N659 0.985 . S
H666 N663 0.984 . S
H667 N663 0.985 . S
H668 N662 0.984 . S
H669 N662 0.984 . S
H670 N658 0.984 . S
H671 N658 0.985 . S
C672 C673 1.363 . S
C672 C678 1.379 . S
C672 N680 1.356 . S
C673 C672 1.363 . S
C673 C679 1.363 . S
C674 C675 1.363 . S
C674 C679 1.379 . S
C674 N681 1.356 . S
C675 C674 1.363 . S
C675 C678 1.363 . S
N676 C678 1.356 . S
N676 H688 0.984 . S
N676 H689 0.985 . S
N677 C679 1.356 . S
N677 H682 0.984 . S
N677 H683 0.985 . S
C678 C672 1.379 . S
C678 C675 1.363 . S
C678 N676 1.356 . S
C679 C673 1.363 . S
C679 C674 1.379 . S
C679 N677 1.356 . S
N680 C672 1.356 . S
N680 H686 0.984 . S
N680 H687 0.984 . S
N681 C674 1.356 . S
N681 H684 0.984 . S
N681 H685 0.985 . S
H682 N677 0.984 . S
H683 N677 0.985 . S
H684 N681 0.984 . S
H685 N681 0.985 . S
H686 N680 0.984 . S
H687 N680 0.984 . S
H688 N676 0.984 . S
H689 N676 0.985 . S
C690 C691 1.363 . S
C690 C696 1.379 . S
C690 N698 1.356 . S
C691 C690 1.363 . S
C691 C697 1.363 . S
C692 C693 1.363 . S
C692 C697 1.379 . S
C692 N699 1.356 . S
C693 C692 1.363 . S
C693 C696 1.363 . S
N694 C696 1.356 . S
N694 H706 0.984 . S
N694 H707 0.985 . S
N695 C697 1.356 . S
N695 H700 0.984 . S
N695 H701 0.985 . S
C696 C690 1.379 . S
C696 C693 1.363 . S
C696 N694 1.356 . S
C697 C691 1.363 . S
C697 C692 1.379 . S
C697 N695 1.356 . S
N698 C690 1.356 . S
N698 H704 0.984 . S
N698 H705 0.984 . S
N699 C692 1.356 . S
N699 H702 0.984 . S
N699 H703 0.985 . S
H700 N695 0.984 . S
H701 N695 0.985 . S
H702 N699 0.984 . S
H703 N699 0.985 . S
H704 N698 0.984 . S
H705 N698 0.984 . S
H706 N694 0.984 . S
H707 N694 0.985 . S
C708 C709 1.363 . S
C708 C714 1.379 . S
C708 N716 1.356 . S
C709 C708 1.363 . S
C709 C715 1.363 . S
C710 C711 1.363 . S
C710 C715 1.379 . S
C710 N717 1.356 . S
C711 C710 1.363 . S
C711 C714 1.363 . S
N712 C714 1.356 . S
N712 H724 0.984 . S
N712 H725 0.985 . S
N713 C715 1.356 . S
N713 H718 0.984 . S
N713 H719 0.985 . S
C714 C708 1.379 . S
C714 C711 1.363 . S
C714 N712 1.356 . S
C715 C709 1.363 . S
C715 C710 1.379 . S
C715 N713 1.356 . S
N716 C708 1.356 . S
N716 H722 0.984 . S
N716 H723 0.984 . S
N717 C710 1.356 . S
N717 H720 0.984 . S
N717 H721 0.985 . S
H718 N713 0.984 . S
H719 N713 0.985 . S
H720 N717 0.984 . S
H721 N717 0.985 . S
H722 N716 0.984 . S
H723 N716 0.984 . S
H724 N712 0.984 . S
H725 N712 0.985 . S
C726 C727 1.363 . S
C726 C732 1.379 . S
C726 N734 1.356 . S
C727 C726 1.363 . S
C727 C733 1.363 . S
C728 C729 1.363 . S
C728 C733 1.379 . S
C728 N735 1.356 . S
C729 C728 1.363 . S
C729 C732 1.363 . S
N730 C732 1.356 . S
N730 H742 0.984 . S
N730 H743 0.985 . S
N731 C733 1.356 . S
N731 H736 0.984 . S
N731 H737 0.985 . S
C732 C726 1.379 . S
C732 C729 1.363 . S
C732 N730 1.356 . S
C733 C727 1.363 . S
C733 C728 1.379 . S
C733 N731 1.356 . S
N734 C726 1.356 . S
N734 H740 0.984 . S
N734 H741 0.984 . S
N735 C728 1.356 . S
N735 H738 0.984 . S
N735 H739 0.985 . S
H736 N731 0.984 . S
H737 N731 0.985 . S
H738 N735 0.984 . S
H739 N735 0.985 . S
H740 N734 0.984 . S
H741 N734 0.984 . S
H742 N730 0.984 . S
H743 N730 0.985 . S
C744 C745 1.363 . S
C744 C750 1.379 . S
C744 N752 1.356 . S
C745 C744 1.363 . S
C745 C751 1.363 . S
C746 C747 1.363 . S
C746 C751 1.379 . S
C746 N753 1.356 . S
C747 C746 1.363 . S
C747 C750 1.363 . S
N748 C750 1.356 . S
N748 H760 0.984 . S
N748 H761 0.985 . S
N749 C751 1.356 . S
N749 H754 0.984 . S
N749 H755 0.985 . S
C750 C744 1.379 . S
C750 C747 1.363 . S
C750 N748 1.356 . S
C751 C745 1.363 . S
C751 C746 1.379 . S
C751 N749 1.356 . S
N752 C744 1.356 . S
N752 H758 0.984 . S
N752 H759 0.984 . S
N753 C746 1.356 . S
N753 H756 0.984 . S
N753 H757 0.985 . S
H754 N749 0.984 . S
H755 N749 0.985 . S
H756 N753 0.984 . S
H757 N753 0.985 . S
H758 N752 0.984 . S
H759 N752 0.984 . S
H760 N748 0.984 . S
H761 N748 0.985 . S
C762 C763 1.363 . S
C762 C768 1.379 . S
C762 N770 1.356 . S
C763 C762 1.363 . S
C763 C769 1.363 . S
C764 C765 1.363 . S
C764 C769 1.379 . S
C764 N771 1.356 1_655 S
C765 C764 1.363 . S
C765 C768 1.363 . S
N766 C768 1.356 . S
N766 H778 0.984 . S
N766 H779 0.985 . S
N767 C769 1.356 . S
N767 H772 0.984 . S
N767 H773 0.985 . S
C768 C762 1.379 . S
C768 C765 1.363 . S
C768 N766 1.356 . S
C769 C763 1.363 . S
C769 C764 1.379 . S
C769 N767 1.356 . S
N770 C762 1.356 . S
N770 H776 0.984 . S
N770 H777 0.984 . S
N771 C764 1.356 1_455 S
N771 H774 0.984 . S
N771 H775 0.985 . S
H772 N767 0.984 . S
H773 N767 0.985 . S
H774 N771 0.984 . S
H775 N771 0.985 . S
H776 N770 0.984 . S
H777 N770 0.984 . S
H778 N766 0.984 . S
H779 N766 0.985 . S
C780 C781 1.363 . S
C780 C786 1.379 . S
C780 N788 1.356 . S
C781 C780 1.363 . S
C781 C787 1.363 1_545 S
C782 C783 1.363 . S
C782 C787 1.379 . S
C782 N789 1.356 . S
C783 C782 1.363 . S
C783 C786 1.363 1_565 S
N784 C786 1.356 . S
N784 H796 0.984 . S
N784 H797 0.985 1_545 S
N785 C787 1.356 . S
N785 H790 0.984 1_565 S
N785 H791 0.985 . S
C786 C780 1.379 . S
C786 C783 1.363 1_545 S
C786 N784 1.356 . S
C787 C781 1.363 1_565 S
C787 C782 1.379 . S
C787 N785 1.356 . S
N788 C780 1.356 . S
N788 H794 0.984 . S
N788 H795 0.984 . S
N789 C782 1.356 . S
N789 H792 0.984 . S
N789 H793 0.985 . S
H790 N785 0.984 1_545 S
H791 N785 0.985 . S
H792 N789 0.984 . S
H793 N789 0.985 . S
H794 N788 0.984 . S
H795 N788 0.984 . S
H796 N784 0.984 . S
H797 N784 0.985 1_565 S
C798 C799 1.363 . S
C798 C804 1.379 . S
C798 N806 1.356 . S
C799 C798 1.363 . S
C799 C805 1.363 . S
C800 C801 1.363 . S
C800 C805 1.379 . S
C800 N807 1.356 . S
C801 C800 1.363 . S
C801 C804 1.363 . S
N802 C804 1.356 . S
N802 H814 0.984 . S
N802 H815 0.985 . S
N803 C805 1.356 . S
N803 H808 0.984 . S
N803 H809 0.985 . S
C804 C798 1.379 . S
C804 C801 1.363 . S
C804 N802 1.356 . S
C805 C799 1.363 . S
C805 C800 1.379 . S
C805 N803 1.356 . S
N806 C798 1.356 . S
N806 H812 0.984 . S
N806 H813 0.984 . S
N807 C800 1.356 . S
N807 H810 0.984 . S
N807 H811 0.985 . S
H808 N803 0.984 . S
H809 N803 0.985 . S
H810 N807 0.984 . S
H811 N807 0.985 . S
H812 N806 0.984 . S
H813 N806 0.984 . S
H814 N802 0.984 . S
H815 N802 0.985 . S
C816 C817 1.363 . S
C816 C822 1.379 . S
C816 N824 1.356 . S
C817 C816 1.363 . S
C817 C823 1.363 . S
C818 C819 1.363 . S
C818 C823 1.379 . S
C818 N825 1.356 . S
C819 C818 1.363 . S
C819 C822 1.363 . S
N820 C822 1.356 . S
N820 H832 0.984 . S
N820 H833 0.985 . S
N821 C823 1.356 . S
N821 H826 0.984 1_455 S
N821 H827 0.985 . S
C822 C816 1.379 . S
C822 C819 1.363 . S
C822 N820 1.356 . S
C823 C817 1.363 . S
C823 C818 1.379 . S
C823 N821 1.356 . S
N824 C816 1.356 . S
N824 H830 0.984 . S
N824 H831 0.999 . S
N825 C818 1.356 . S
N825 H828 0.984 . S
N825 H829 0.985 . S
H826 N821 0.984 1_655 S
H827 N821 0.985 . S
H828 N825 0.984 . S
H829 N825 0.985 . S
H830 N824 0.984 . S
H831 N824 0.999 . S
H832 N820 0.984 . S
H833 N820 0.985 . S
C834 C835 1.363 . S
C834 C840 1.379 1_564 S
C834 N842 1.356 . S
C835 C834 1.363 . S
C835 C841 1.363 . S
C836 C837 1.363 . S
C836 C841 1.379 1_546 S
C836 N843 1.356 . S
C837 C836 1.363 . S
C837 C840 1.363 . S
N838 C840 1.356 . S
N838 H850 0.984 . S
N838 H851 0.985 . S
N839 C841 1.356 . S
N839 H844 0.984 . S
N839 H845 0.985 . S
C840 C834 1.379 1_546 S
C840 C837 1.363 . S
C840 N838 1.356 . S
C841 C835 1.363 . S
C841 C836 1.379 1_564 S
C841 N839 1.356 . S
N842 C834 1.356 . S
N842 H848 0.984 . S
N842 H849 0.984 . S
N843 C836 1.356 . S
N843 H846 0.984 . S
N843 H847 0.985 . S
H844 N839 0.984 . S
H845 N839 0.985 . S
H846 N843 0.984 . S
H847 N843 0.985 . S
H848 N842 0.984 . S
H849 N842 0.984 . S
H850 N838 0.984 . S
H851 N838 0.985 . S
C852 C853 1.363 . S
C852 C858 1.379 1_554 S
C852 N860 1.356 . S
C853 C852 1.363 . S
C853 C859 1.363 . S
C854 C855 1.363 . S
C854 C859 1.379 . S
C854 N861 1.356 . S
C855 C854 1.363 . S
C855 C858 1.363 1_554 S
N856 C858 1.356 . S
N856 H868 0.984 . S
N856 H869 0.985 . S
N857 C859 1.356 . S
N857 H862 0.984 . S
N857 H863 0.985 . S
C858 C852 1.379 1_556 S
C858 C855 1.363 1_556 S
C858 N856 1.356 . S
C859 C853 1.363 . S
C859 C854 1.379 . S
C859 N857 1.356 . S
N860 C852 1.356 . S
N860 H866 0.984 1_554 S
N860 H867 0.984 . S
N861 C854 1.356 . S
N861 H864 0.984 . S
N861 H865 0.985 . S
H862 N857 0.984 . S
H863 N857 0.985 . S
H864 N861 0.984 . S
H865 N861 0.985 . S
H866 N860 0.984 1_556 S
H867 N860 0.984 . S
H868 N856 0.984 . S
H869 N856 0.985 . S
C870 C871 1.363 . S
C870 C876 1.379 . S
C870 N878 1.356 . S
C871 C870 1.363 . S
C871 C877 1.363 . S
C872 C873 1.363 . S
C872 C877 1.379 1_455 S
C872 N879 1.356 . S
C873 C872 1.363 . S
C873 C876 1.363 1_455 S
N874 C876 1.356 1_455 S
N874 H886 0.984 1_455 S
N874 H887 0.985 . S
N875 C877 1.356 . S
N875 H880 0.984 . S
N875 H881 0.985 . S
C876 C870 1.379 . S
C876 C873 1.363 1_655 S
C876 N874 1.356 1_655 S
C877 C871 1.363 . S
C877 C872 1.379 1_655 S
C877 N875 1.356 . S
N878 C870 1.356 . S
N878 H884 0.984 . S
N878 H885 0.984 . S
N879 C872 1.356 . S
N879 H882 0.984 . S
N879 H883 0.985 . S
H880 N875 0.984 . S
H881 N875 0.985 . S
H882 N879 0.984 . S
H883 N879 0.985 . S
H884 N878 0.984 . S
H885 N878 0.984 . S
H886 N874 0.984 1_655 S
H887 N874 0.985 . S
C888 C889 1.363 . S
C888 C894 1.379 . S
C888 N896 1.356 1_565 S
C889 C888 1.363 . S
C889 C895 1.363 . S
C890 C891 1.363 . S
C890 C895 1.379 . S
C890 N897 1.356 . S
C891 C890 1.363 . S
C891 C894 1.363 . S
N892 C894 1.356 . S
N892 H904 0.984 . S
N892 H905 0.985 . S
N893 C895 1.356 . S
N893 H898 0.984 . S
N893 H899 0.985 . S
C894 C888 1.379 . S
C894 C891 1.363 . S
C894 N892 1.356 . S
C895 C889 1.363 . S
C895 C890 1.379 . S
C895 N893 1.356 . S
N896 C888 1.356 1_545 S
N896 H902 0.984 . S
N896 H903 0.984 . S
N897 C890 1.356 . S
N897 H900 0.984 . S
N897 H901 0.985 . S
H898 N893 0.984 . S
H899 N893 0.985 . S
H900 N897 0.984 . S
H901 N897 0.985 . S
H902 N896 0.984 . S
H903 N896 0.984 . S
H904 N892 0.984 . S
H905 N892 0.985 . S
C906 C907 1.363 . S
C906 C912 1.379 . S
C906 N914 1.356 . S
C907 C906 1.363 . S
C907 C913 1.363 . S
C908 C909 1.363 . S
C908 C913 1.379 . S
C908 N915 1.356 . S
C909 C908 1.363 . S
C909 C912 1.363 . S
N910 C912 1.356 . S
N910 H922 0.984 . S
N910 H923 0.985 . S
N911 C913 1.356 . S
N911 H916 0.984 . S
N911 H917 0.985 . S
C912 C906 1.379 . S
C912 C909 1.363 . S
C912 N910 1.356 . S
C913 C907 1.363 . S
C913 C908 1.379 . S
C913 N911 1.356 . S
N914 C906 1.356 . S
N914 H920 0.984 . S
N914 H921 0.984 . S
N915 C908 1.356 . S
N915 H918 0.984 . S
N915 H919 0.985 . S
H916 N911 0.984 . S
H917 N911 0.985 . S
H918 N915 0.984 . S
H919 N915 0.985 . S
H920 N914 0.984 . S
H921 N914 0.984 . S
H922 N910 0.984 . S
H923 N910 0.985 . S
C924 C925 1.363 . S
C924 C930 1.379 . S
C924 N932 1.356 . S
C925 C924 1.363 . S
C925 C931 1.363 . S
C926 C927 1.363 . S
C926 C931 1.379 1_655 S
C926 N933 1.356 . S
C927 C926 1.363 . S
C927 C930 1.363 1_655 S
N928 C930 1.356 1_655 S
N928 H940 0.984 . S
N928 H941 0.985 . S
N929 C931 1.356 . S
N929 H934 0.984 . S
N929 H935 0.985 . S
C930 C924 1.379 . S
C930 C927 1.363 1_455 S
C930 N928 1.356 1_455 S
C931 C925 1.363 . S
C931 C926 1.379 1_455 S
C931 N929 1.356 . S
N932 C924 1.356 . S
N932 H938 0.984 . S
N932 H939 0.984 . S
N933 C926 1.356 . S
N933 H936 0.984 . S
N933 H937 0.985 . S
H934 N929 0.984 . S
H935 N929 0.985 . S
H936 N933 0.984 . S
H937 N933 0.985 . S
H938 N932 0.984 . S
H939 N932 0.984 . S
H940 N928 0.984 . S
H941 N928 0.985 . S
C942 C943 1.363 . S
C942 C948 1.379 . S
C942 N950 1.356 . S
C943 C942 1.363 . S
C943 C949 1.363 . S
C944 C945 1.363 . S
C944 C949 1.379 . S
C944 N951 1.356 . S
C945 C944 1.363 . S
C945 C948 1.363 . S
N946 C948 1.356 . S
N946 H958 0.984 . S
N946 H959 0.985 1_545 S
N947 C949 1.356 . S
N947 H952 0.984 . S
N947 H953 0.985 . S
C948 C942 1.379 . S
C948 C945 1.363 . S
C948 N946 1.356 . S
C949 C943 1.363 . S
C949 C944 1.379 . S
C949 N947 1.356 . S
N950 C942 1.356 . S
N950 H956 0.984 . S
N950 H957 0.984 . S
N951 C944 1.356 . S
N951 H954 0.984 1_545 S
N951 H955 0.985 . S
H952 N947 0.984 . S
H953 N947 0.985 . S
H954 N951 0.984 1_565 S
H955 N951 0.985 . S
H956 N950 0.984 . S
H957 N950 0.984 . S
H958 N946 0.984 . S
H959 N946 0.985 1_565 S
C960 C961 1.363 . S
C960 C966 1.379 . S
C960 N968 1.356 . S
C961 C960 1.363 . S
C961 C967 1.363 . S
C962 C963 1.363 . S
C962 C967 1.379 . S
C962 N969 1.356 . S
C963 C962 1.363 . S
C963 C966 1.363 . S
N964 C966 1.356 . S
N964 H976 0.984 . S
N964 H977 0.985 . S
N965 C967 1.356 . S
N965 H970 0.984 . S
N965 H971 0.985 . S
C966 C960 1.379 . S
C966 C963 1.363 . S
C966 N964 1.356 . S
C967 C961 1.363 . S
C967 C962 1.379 . S
C967 N965 1.356 . S
N968 C960 1.356 . S
N968 H974 0.984 . S
N968 H975 0.984 . S
N969 C962 1.356 . S
N969 H972 0.984 . S
N969 H973 0.985 . S
H970 N965 0.984 . S
H971 N965 0.985 . S
H972 N969 0.984 . S
H973 N969 0.985 . S
H974 N968 0.984 . S
H975 N968 0.984 . S
H976 N964 0.984 . S
H977 N964 0.985 . S
C978 C979 1.363 . S
C978 C984 1.379 1_655 S
C978 N986 1.356 . S
C979 C978 1.363 . S
C979 C985 1.363 . S
C980 C981 1.363 1_654 S
C980 C985 1.379 1_554 S
C980 N987 1.356 . S
C981 C980 1.363 1_456 S
C981 C984 1.363 . S
N982 C984 1.356 . S
N982 H994 0.984 . S
N982 H995 0.985 . S
N983 C985 1.356 . S
N983 H988 0.984 . S
N983 H989 0.985 1_556 S
C984 C978 1.379 1_455 S
C984 C981 1.363 . S
C984 N982 1.356 . S
C985 C979 1.363 . S
C985 C980 1.379 1_556 S
C985 N983 1.356 . S
N986 C978 1.356 . S
N986 H992 0.984 1_655 S
N986 H993 0.984 . S
N987 C980 1.356 . S
N987 H990 0.984 1_655 S
N987 H991 0.985 . S
H988 N983 0.984 . S
H989 N983 0.985 1_554 S
H990 N987 0.984 1_455 S
H991 N987 0.985 . S
H992 N986 0.984 1_455 S
H993 N986 0.984 . S
H994 N982 0.984 . S
H995 N982 0.985 . S
C996 C997 1.363 . S
C996 C1002 1.379 . S
C996 N1004 1.356 . S
C997 C996 1.363 . S
C997 C1003 1.363 . S
C998 C999 1.363 . S
C998 C1003 1.379 . S
C998 N1005 1.356 1_565 S
C999 C998 1.363 . S
C999 C1002 1.363 . S
N1000 C1002 1.356 . S
N1000 H1012 0.984 . S
N1000 H1013 0.985 . S
N1001 C1003 1.356 . S
N1001 H1006 0.984 . S
N1001 H1007 0.985 . S
C1002 C996 1.379 . S
C1002 C999 1.363 . S
C1002 N1000 1.356 . S
C1003 C997 1.363 . S
C1003 C998 1.379 . S
C1003 N1001 1.356 . S
N1004 C996 1.356 . S
N1004 H1010 0.984 . S
N1004 H1011 0.984 . S
N1005 C998 1.356 1_545 S
N1005 H1008 0.984 . S
N1005 H1009 0.985 . S
H1006 N1001 0.984 . S
H1007 N1001 0.985 . S
H1008 N1005 0.984 . S
H1009 N1005 0.985 . S
H1010 N1004 0.984 . S
H1011 N1004 0.984 . S
H1012 N1000 0.984 . S
H1013 N1000 0.985 . S
C1014 C1015 1.363 . S
C1014 C1020 1.379 . S
C1014 N1022 1.356 . S
C1015 C1014 1.363 . S
C1015 C1021 1.363 . S
C1016 C1017 1.363 . S
C1016 C1021 1.379 . S
C1016 N1023 1.356 . S
C1017 C1016 1.363 . S
C1017 C1020 1.363 . S
N1018 C1020 1.356 . S
N1018 H1030 0.984 . S
N1018 H1031 0.985 . S
N1019 C1021 1.356 . S
N1019 H1024 0.984 . S
N1019 H1025 0.985 . S
C1020 C1014 1.379 . S
C1020 C1017 1.363 . S
C1020 N1018 1.356 . S
C1021 C1015 1.363 . S
C1021 C1016 1.379 . S
C1021 N1019 1.356 . S
N1022 C1014 1.356 . S
N1022 H1028 0.984 . S
N1022 H1029 0.984 . S
N1023 C1016 1.356 . S
N1023 H1026 0.984 . S
N1023 H1027 0.985 . S
H1024 N1019 0.984 . S
H1025 N1019 0.985 . S
H1026 N1023 0.984 . S
H1027 N1023 0.985 . S
H1028 N1022 0.984 . S
H1029 N1022 0.984 . S
H1030 N1018 0.984 . S
H1031 N1018 0.985 . S
C1032 C1033 1.363 . S
C1032 C1038 1.379 . S
C1032 N1040 1.356 . S
C1033 C1032 1.363 . S
C1033 C1039 1.363 . S
C1034 C1035 1.363 . S
C1034 C1039 1.379 1_655 S
C1034 N1041 1.356 . S
C1035 C1034 1.363 . S
C1035 C1038 1.363 1_655 S
N1036 C1038 1.356 1_655 S
N1036 H1048 0.984 1_655 S
N1036 H1049 0.985 . S
N1037 C1039 1.356 . S
N1037 H1042 0.984 . S
N1037 H1043 0.985 . S
C1038 C1032 1.379 . S
C1038 C1035 1.363 1_455 S
C1038 N1036 1.356 1_455 S
C1039 C1033 1.363 . S
C1039 C1034 1.379 1_455 S
C1039 N1037 1.356 . S
N1040 C1032 1.356 . S
N1040 H1046 0.984 . S
N1040 H1047 0.984 . S
N1041 C1034 1.356 . S
N1041 H1044 0.984 . S
N1041 H1045 0.985 . S
H1042 N1037 0.984 . S
H1043 N1037 0.985 . S
H1044 N1041 0.984 . S
H1045 N1041 0.985 . S
H1046 N1040 0.984 . S
H1047 N1040 0.984 . S
H1048 N1036 0.984 1_455 S
H1049 N1036 0.985 . S
C1050 C1051 1.363 . S
C1050 C1056 1.379 . S
C1050 N1058 1.356 1_545 S
C1051 C1050 1.363 . S
C1051 C1057 1.363 . S
C1052 C1053 1.363 . S
C1052 C1057 1.379 . S
C1052 N1059 1.356 . S
C1053 C1052 1.363 . S
C1053 C1056 1.363 . S
N1054 C1056 1.356 . S
N1054 H1066 0.984 . S
N1054 H1067 0.985 . S
N1055 C1057 1.356 . S
N1055 H1060 0.984 . S
N1055 H1061 0.985 . S
C1056 C1050 1.379 . S
C1056 C1053 1.363 . S
C1056 N1054 1.356 . S
C1057 C1051 1.363 . S
C1057 C1052 1.379 . S
C1057 N1055 1.356 . S
N1058 C1050 1.356 1_565 S
N1058 H1064 0.984 . S
N1058 H1065 0.984 . S
N1059 C1052 1.356 . S
N1059 H1062 0.984 . S
N1059 H1063 0.985 . S
H1060 N1055 0.984 . S
H1061 N1055 0.985 . S
H1062 N1059 0.984 . S
H1063 N1059 0.985 . S
H1064 N1058 0.984 . S
H1065 N1058 0.984 . S
H1066 N1054 0.984 . S
H1067 N1054 0.985 . S
C637 C446 1.831 . S
C639 C22 1.832 . S
C655 C91 1.825 . S
C657 C515 1.825 . S
C673 C128 1.830 . S
C675 C552 1.831 . S
C691 C181 1.832 . S
C693 C605 1.831 . S
C709 C356 1.825 . S
C711 C250 1.825 . S
C727 C287 1.830 . S
C729 C393 1.831 . S
C745 C516 1.577 . S
C747 C29 1.555 . S
C763 C92 1.577 . S
C765 C559 1.555 1_655 S
C781 C612 1.444 . S
C783 C135 1.444 . S
C799 C188 1.555 . S
C801 C357 1.577 . S
C817 C400 1.555 1_455 S
C819 C251 1.577 . S
C835 C453 1.444 . S
C837 C294 1.444 . S
C853 C38 2.092 . S
C855 C304 2.083 1_554 S
C871 C75 2.308 . S
C873 C39 2.342 . S
C889 C82 2.157 1_565 S
C891 C144 2.281 . S
C907 C197 2.092 . S
C909 C145 2.083 . S
C925 C234 2.308 . S
C927 C198 2.342 . S
C943 C303 2.281 . S
C945 C241 2.157 1_545 S
C961 C340 2.308 . S
C963 C410 2.342 . S
C979 C409 2.092 . S
C981 C463 2.083 1_556 S
C997 C462 2.281 . S
C999 C506 2.157 1_565 S
C1015 C499 2.308 . S
C1017 C569 2.342 . S
C1033 C568 2.092 . S
C1035 C622 2.083 . S
C1051 C347 2.157 1_545 S
C1053 C621 2.281 . S
