# Generated by pormake.
# Topology snp, (6)-cn, num edge types: 1
# Building blocks:
#     Node 0, Type 0, BuildingBlock: KUMBUR_clean_sbu_0, # of connection points: 6
#     Node 1, Type 0, BuildingBlock: KUMBUR_clean_sbu_0, # of connection points: 6
#     Node 2, Type 0, BuildingBlock: KUMBUR_clean_sbu_0, # of connection points: 6
#     Node 3, Type 0, BuildingBlock: KUMBUR_clean_sbu_0, # of connection points: 6
#     Edge 4, Type (0, 0), BuildingBlock: AJUNOK_clean_linker_0, # of connection points: 2
#     Edge 5, Type (0, 0), BuildingBlock: AJUNOK_clean_linker_0, # of connection points: 2
#     Edge 6, Type (0, 0), BuildingBlock: AJUNOK_clean_linker_0, # of connection points: 2
#     Edge 7, Type (0, 0), BuildingBlock: AJUNOK_clean_linker_0, # of connection points: 2
#     Edge 8, Type (0, 0), BuildingBlock: AJUNOK_clean_linker_0, # of connection points: 2
#     Edge 9, Type (0, 0), BuildingBlock: AJUNOK_clean_linker_0, # of connection points: 2
#     Edge 10, Type (0, 0), BuildingBlock: AJUNOK_clean_linker_0, # of connection points: 2
#     Edge 11, Type (0, 0), BuildingBlock: AJUNOK_clean_linker_0, # of connection points: 2
#     Edge 12, Type (0, 0), BuildingBlock: AJUNOK_clean_linker_0, # of connection points: 2
#     Edge 13, Type (0, 0), BuildingBlock: AJUNOK_clean_linker_0, # of connection points: 2
#     Edge 14, Type (0, 0), BuildingBlock: AJUNOK_clean_linker_0, # of connection points: 2
#     Edge 15, Type (0, 0), BuildingBlock: AJUNOK_clean_linker_0, # of connection points: 2
# Relax obj value: 0.254
# Max RMSD: 0.288
# Mean RMSD: 0.255
data_MOF--net-snp--node1-KUMBUR_clean_sbu_0--edge1-AJUNOK_clean_linker_0
_symmetry_space_group_name_H-M    P1
_symmetry_Int_Tables_number       1
_symmetry_cell_setting            triclinic
loop_
_symmetry_equiv_pos_as_xyz
'x, y, z'
_cell_length_a     18.375298
_cell_length_b     19.9195
_cell_length_c     26.037778
_cell_angle_alpha  118.66922
_cell_angle_beta   93.707226
_cell_angle_gamma 97.389698
loop_
_atom_site_label
_atom_site_type_symbol
_atom_site_fract_x
_atom_site_fract_y
_atom_site_fract_z
_atom_type_partial_charge
Tb0 Tb 0.41833 0.20862 0.2942 0.0
C1 C 0.4833 0.90163 0.27167 0.0
C2 C 0.43055 0.79759 0.17321 0.0
C3 C 0.53231 0.78148 0.22847 0.0
C4 C 0.43274 0.87292 0.22098 0.0
C5 C 0.53442 0.8568 0.27574 0.0
C6 C 0.48032 0.75183 0.17738 0.0
C7 C 0.58622 0.96454 0.3725 0.0
N8 N 0.48444 0.97546 0.31576 0.0
C9 C 0.53395 1.00663 0.36664 0.0
C10 C 0.58649 0.88933 0.3269 0.0
Tb11 Tb 0.38933 0.03373 0.30397 0.0
N12 N 0.38527 0.91874 0.21894 0.0
C13 C 0.33295 0.89179 0.17055 0.0
C14 C 0.37836 0.77063 0.12284 0.0
C15 C 0.32934 0.81803 0.12155 0.0
H16 H 0.53427 0.06439 0.4025 0.0
H17 H 0.28793 0.79733 0.08321 0.0
H18 H 0.47945 0.69376 0.14119 0.0
H19 H 0.62608 0.99001 0.41236 0.0
H20 H 0.29282 0.92624 0.1699 0.0
H21 H 0.69926 0.36807 0.34215 0.0
H22 H 0.375 0.71322 0.08507 0.0
H23 H 0.2799 0.30454 0.34757 0.0
H24 H 0.58444 0.27807 0.2779 0.0
H25 H 0.25451 0.4079 0.44125 0.0
H26 H 0.57093 0.74593 0.2308 0.0
H27 H 0.6981 0.45114 0.44951 0.0
H28 H 0.6205 0.50781 0.5314 0.0
H29 H 0.6271 0.85699 0.33157 0.0
H30 H 0.4951 0.52195 0.55825 0.0
N31 N 0.52407 0.29977 0.34955 0.0
C32 C 0.58517 0.31126 0.32523 0.0
C33 C 0.64887 0.40953 0.42183 0.0
C34 C 0.58187 0.40811 0.44422 0.0
C35 C 0.64966 0.36303 0.36128 0.0
C36 C 0.51957 0.3525 0.40603 0.0
H37 H 0.35731 0.48728 0.52364 0.0
N38 N 0.39206 0.31308 0.37819 0.0
C39 C 0.30965 0.3942 0.43693 0.0
C40 C 0.4499 0.36056 0.42077 0.0
C41 C 0.32351 0.3331 0.38409 0.0
C42 C 0.36779 0.43905 0.48312 0.0
C43 C 0.43968 0.42452 0.47447 0.0
O44 O 0.34586 0.20252 0.22548 0.0
O45 O 0.38875 0.08299 0.2446 0.0
O46 O 0.50033 0.04284 0.27959 0.0
O47 O 0.52703 0.17302 0.30522 0.0
O48 O 0.46247 0.13489 0.21385 0.0
O49 O 0.44144 0.29267 0.26644 0.0
O50 O 0.36295 0.01707 0.37531 0.0
O51 O 0.38224 0.15682 0.34611 0.0
O52 O 0.29899 0.17641 0.29727 0.0
O53 O 0.28498 0.0434 0.26234 0.0
O54 O 0.42943 0.12292 0.39737 0.0
O55 O 0.29472 0.95118 0.29097 0.0
C56 C 0.42285 0.06863 0.2002 0.0
C57 C 0.35211 0.30331 0.20065 0.0
C58 C 0.3477 0.34442 0.12577 0.0
C59 C 0.38532 0.31621 0.15823 0.0
C60 C 0.27768 0.36396 0.1397 0.0
C61 C 0.28299 0.32373 0.21401 0.0
C62 C 0.24631 0.35473 0.184 0.0
C63 C 0.54626 0.10315 0.28483 0.0
C64 C 0.38679 0.25885 0.22363 0.0
C65 C 0.50179 0.47405 0.51606 0.0
C66 C 0.57318 0.46569 0.50094 0.0
C67 C 0.4043 0.1816 0.39996 0.0
C68 C 0.3014 0.892 0.35228 0.0
C69 C 0.26996 0.89202 0.40051 0.0
C70 C 0.26818 0.82771 0.41043 0.0
C71 C 0.29991 0.76466 0.37176 0.0
C72 C 0.32844 0.82609 0.31306 0.0
C73 C 0.32888 0.76363 0.32328 0.0
C74 C 0.25667 0.10589 0.27133 0.0
C75 C 0.30677 0.96145 0.34431 0.0
H76 H 0.43979 0.30205 0.14966 0.0
H77 H 0.24597 0.38454 0.11537 0.0
H78 H 0.25703 0.31407 0.24658 0.0
H79 H 0.19231 0.36949 0.19384 0.0
H80 H 0.24555 0.94124 0.42912 0.0
H81 H 0.30158 0.71525 0.37848 0.0
H82 H 0.34878 0.8222 0.27423 0.0
H83 H 0.35137 0.71379 0.29315 0.0
Tb84 Tb 0.07229 0.31808 0.62449 0.0
C85 C 0.4001 0.46904 0.73319 0.0
C86 C 0.48397 0.39792 0.66814 0.0
C87 C 0.52249 0.53627 0.73726 0.0
C88 C 0.41443 0.40051 0.68841 0.0
C89 C 0.45432 0.53757 0.75892 0.0
C90 C 0.53732 0.4665 0.69193 0.0
C91 C 0.37225 0.60169 0.8287 0.0
N92 N 0.33402 0.46764 0.75331 0.0
C93 C 0.32065 0.53211 0.80211 0.0
C94 C 0.43913 0.6047 0.80667 0.0
Tb95 Tb 0.25368 0.35027 0.70788 0.0
N96 N 0.36157 0.33554 0.66683 0.0
C97 C 0.37699 0.26472 0.62723 0.0
C98 C 0.49871 0.32612 0.62602 0.0
C99 C 0.44539 0.25907 0.6062 0.0
H100 H 0.26919 0.53083 0.81966 0.0
H101 H 0.45662 0.20301 0.57427 0.0
H102 H 0.59078 0.46583 0.67657 0.0
H103 H 0.3605 0.65288 0.86632 0.0
H104 H 0.33663 0.21207 0.6111 0.0
H105 H 0.90106 0.4365 0.79715 0.0
H106 H 0.55149 0.32159 0.60945 0.0
H107 H 0.03282 0.15872 0.49134 0.0
H108 H 0.00404 0.4418 0.74233 0.0
H109 H 0.94663 0.03325 0.44437 0.0
H110 H 0.56469 0.58839 0.75616 0.0
H111 H 0.81279 0.31303 0.76147 0.0
H112 H 0.76977 0.17241 0.68339 0.0
H113 H 0.47921 0.65855 0.82761 0.0
H114 H 0.78293 0.06184 0.58754 0.0
N115 N 0.9756 0.32199 0.67657 0.0
C116 C 0.96593 0.38755 0.72603 0.0
C117 C 0.85779 0.31507 0.73705 0.0
C118 C 0.8657 0.2493 0.68466 0.0
C119 C 0.90744 0.38487 0.75728 0.0
C120 C 0.92529 0.25522 0.65472 0.0
H121 H 0.84931 1.00913 0.49851 0.0
N122 N 0.98828 0.20387 0.57255 0.0
C123 C 0.94159 0.07796 0.48836 0.0
C124 C 0.93195 0.19378 0.60079 0.0
C125 C 0.99092 0.1491 0.51535 0.0
C126 C 0.88694 0.0645 0.51896 0.0
C127 C 0.88021 0.12366 0.57522 0.0
O128 O 0.06894 0.34546 0.5558 0.0
O129 O 0.19157 0.3263 0.62607 0.0
O130 O 0.24269 0.44662 0.69196 0.0
O131 O 0.11728 0.4338 0.69608 0.0
O132 O 0.12791 0.27625 0.54593 0.0
O133 O 0.99512 0.38618 0.61969 0.0
O134 O 0.27045 0.3636 0.79293 0.0
O135 O 0.13263 0.32644 0.70379 0.0
O136 O 0.08618 0.20918 0.61639 0.0
O137 O 0.21525 0.22757 0.6404 0.0
O138 O 0.19307 0.4032 0.78322 0.0
O139 O 0.30726 0.26997 0.71983 0.0
C140 C 0.19572 0.2953 0.57096 0.0
C141 C 0.9498 0.35042 0.5195 0.0
C142 C 0.90641 0.29104 0.41267 0.0
C143 C 0.96459 0.32042 0.46049 0.0
C144 C 0.83338 0.29567 0.42508 0.0
C145 C 0.87601 0.35325 0.53014 0.0
C146 C 0.8185 0.32633 0.48325 0.0
C147 C 0.18059 0.47451 0.69872 0.0
C148 C 0.01126 0.37788 0.56925 0.0
C149 C 0.82284 0.11564 0.60613 0.0
C150 C 0.81539 0.17855 0.66069 0.0
C151 C 0.12689 0.36608 0.75852 0.0
C152 C 0.37362 0.32175 0.81697 0.0
C153 C 0.36556 0.33192 0.87335 0.0
C154 C 0.42774 0.34691 0.91386 0.0
C155 C 0.4988 0.35222 0.89773 0.0
C156 C 0.44488 0.32798 0.8014 0.0
C157 C 0.5072 0.34331 0.84185 0.0
C158 C 0.14766 0.1846 0.62238 0.0
C159 C 0.30601 0.30609 0.77673 0.0
H160 H 0.02129 0.31837 0.45155 0.0
H161 H 0.78732 0.27282 0.38958 0.0
H162 H 0.86258 0.37622 0.5747 0.0
H163 H 0.76179 0.32839 0.49198 0.0
H164 H 0.31049 0.32658 0.88536 0.0
H165 H 0.5475 0.36305 0.92827 0.0
H166 H 0.45242 0.32098 0.75832 0.0
H167 H 0.56213 0.34783 0.82973 0.0
Tb168 Tb 0.87765 0.11823 0.0579 0.0
C169 C 0.86424 0.78041 0.94281 0.0
C170 C 0.7342 0.73891 0.90226 0.0
C171 C 0.82083 0.65309 0.85575 0.0
C172 C 0.79264 0.79398 0.94628 0.0
C173 C 0.87948 0.71062 0.89656 0.0
C174 C 0.74819 0.66727 0.85853 0.0
C175 C 0.00981 0.76304 0.93024 0.0
N176 N 0.91954 0.8391 0.98098 0.0
C177 C 0.99196 0.83109 0.97512 0.0
C178 C 0.95335 0.70214 0.89109 0.0
Tb179 Tb 0.88439 0.93984 0.06115 0.0
N180 N 0.78231 0.86542 0.98769 0.0
C181 C 0.71658 0.88835 0.98097 0.0
C182 C 0.66473 0.75962 0.90073 0.0
C183 C 0.65661 0.83554 0.93909 0.0
H184 H 0.03692 0.8758 1.00566 0.0
H185 H 0.60459 0.85409 0.93551 0.0
H186 H 0.70384 0.62408 0.82494 0.0
H187 H 0.06726 0.75735 0.92627 0.0
H188 H 0.70928 0.94753 1.00602 0.0
H189 H 0.00434 0.40064 0.24136 0.0
H190 H 0.61864 0.7193 0.86753 0.0
H191 H 0.70686 0.0515 0.98201 0.0
H192 H 0.0031 0.26998 0.1582 0.0
H193 H 0.5868 0.09544 0.99018 0.0
H194 H 0.83141 0.59891 0.82035 0.0
H195 H 0.88753 0.45213 0.26057 0.0
H196 H 0.75029 0.43276 0.23046 0.0
H197 H 0.96736 0.64964 0.85613 0.0
H198 H 0.6367 0.34972 0.16211 0.0
N199 N 0.88636 0.24372 0.13311 0.0
C200 C 0.95145 0.28981 0.16757 0.0
C201 C 0.88661 0.39392 0.22454 0.0
C202 C 0.8206 0.34812 0.18743 0.0
C203 C 0.95251 0.36492 0.21405 0.0
C204 C 0.82257 0.27279 0.14113 0.0
H205 H 0.57541 0.22352 0.07395 0.0
N206 N 0.76356 0.15405 0.05931 0.0
C207 C 0.63478 0.13275 1.02234 0.0
C208 C 0.7591 0.22678 0.10254 0.0
C209 C 0.70319 0.10816 1.01767 0.0
C210 C 0.62856 0.20516 0.06914 0.0
C211 C 0.69135 0.25378 0.10932 0.0
O212 O 0.87027 0.12414 0.97916 0.0
O213 O 0.89934 0.99959 1.01309 0.0
O214 O 0.99348 0.99506 0.05488 0.0
O215 O 0.99006 0.12589 0.10083 0.0
O216 O 0.83186 0.02553 0.96604 0.0
O217 O 0.96043 0.19572 0.04852 0.0
O218 O 0.96782 0.90462 0.09673 0.0
O219 O 0.89434 0.06465 0.11229 0.0
O220 O 0.78522 0.09977 0.10485 0.0
O221 O 0.78038 0.97474 0.09443 0.0
O222 O 0.90495 1.00604 0.15732 0.0
O223 O 0.85007 0.85753 0.08795 0.0
C224 C 0.86745 0.97182 0.96145 0.0
C225 C 0.92392 0.23889 0.97952 0.0
C226 C 0.95314 0.29868 0.91707 0.0
C227 C 0.96395 0.24378 0.93581 0.0
C228 C 0.90076 0.34653 0.94181 0.0
C229 C 0.87287 0.28839 1.00316 0.0
C230 C 0.86133 0.34147 0.9843 0.0
C231 C 0.02653 0.06806 0.09191 0.0
C232 C 0.92941 0.17712 0.99576 0.0
C233 C 0.68846 0.32808 0.15599 0.0
C234 C 0.75306 0.37528 0.19493 0.0
C235 C 0.90808 0.07484 0.16481 0.0
C236 C 0.93976 0.81219 0.13155 0.0
C237 C 0.89923 0.80645 0.17356 0.0
C238 C 0.92861 0.78015 0.21063 0.0
C239 C 0.99573 0.7519 0.20029 0.0
C240 C 0.00672 0.78438 0.12233 0.0
C241 C 0.03362 0.75277 0.15572 0.0
C242 C 0.7547 0.04124 0.11293 0.0
C243 C 0.91893 0.85947 0.10567 0.0
H244 H 0.00342 0.20571 0.91691 0.0
H245 H 0.89073 0.38878 0.92848 0.0
H246 H 0.84073 0.28498 0.03546 0.0
H247 H 0.82133 0.37899 1.0027 0.0
H248 H 0.84684 0.82669 0.1794 0.0
H249 H 0.02053 0.73166 0.22795 0.0
H250 H 0.0391 0.789 0.09045 0.0
H251 H 0.08568 0.73196 0.14879 0.0
Tb252 Tb 0.97739 0.80082 0.63659 0.0
C253 C 0.31985 0.93584 0.69866 0.0
C254 C 0.37282 0.82372 0.63701 0.0
C255 C 0.44745 0.95285 0.68021 0.0
C256 C 0.31322 0.85631 0.66577 0.0
C257 C 0.38676 0.98522 0.70555 0.0
C258 C 0.44043 0.87217 0.64585 0.0
C259 C 0.32812 0.09527 0.7593 0.0
N260 N 0.25942 0.96497 0.72117 0.0
C261 C 0.26319 0.04433 0.7512 0.0
C262 C 0.39047 0.06571 0.7368 0.0
Tb263 Tb 0.16228 0.87707 0.71957 0.0
N264 N 0.24658 0.81149 0.65795 0.0
C265 C 0.23452 0.73435 0.6149 0.0
C266 C 0.36189 0.74382 0.59811 0.0
C267 C 0.29176 0.69936 0.58577 0.0
H268 H 0.21695 0.06976 0.771 0.0
H269 H 0.28123 0.63817 0.55296 0.0
H270 H 0.4869 0.84796 0.62481 0.0
H271 H 0.33013 0.15744 0.7836 0.0
H272 H 0.18042 0.69882 0.60046 0.0
H273 H 0.78541 0.93161 0.7891 0.0
H274 H 0.40604 0.71668 0.57508 0.0
H275 H 0.97069 0.61781 0.53118 0.0
H276 H 0.89599 0.93133 0.74104 0.0
H277 H 0.89306 0.48937 0.49633 0.0
H278 H 0.49937 0.98978 0.68557 0.0
H279 H 0.70685 0.80735 0.7661 0.0
H280 H 0.68065 0.66132 0.70707 0.0
H281 H 0.44079 0.10543 0.74317 0.0
H282 H 0.71045 0.54081 0.62772 0.0
N283 N 0.8816 0.80745 0.69039 0.0
C284 C 0.86257 0.87633 0.72995 0.0
C285 C 0.75535 0.80672 0.74441 0.0
C286 C 0.77368 0.73657 0.70283 0.0
C287 C 0.79945 0.87693 0.75739 0.0
C288 C 0.83733 0.73901 0.6757 0.0
H289 H 0.7878 0.477 0.54797 0.0
N290 N 0.91342 0.67722 0.60436 0.0
C291 C 0.88192 0.54002 0.53475 0.0
C292 C 0.85393 0.6715 0.63127 0.0
C293 C 0.92583 0.61306 0.55471 0.0
C294 C 0.82289 0.53307 0.56407 0.0
C295 C 0.80767 0.59927 0.61248 0.0
O296 O 0.94456 0.77111 0.54722 0.0
O297 O 0.0938 0.8439 0.63776 0.0
O298 O 0.1218 0.9601 0.70007 0.0
O299 O 0.99353 0.92768 0.68412 0.0
O300 O 0.04042 0.74835 0.56277 0.0
O301 O 0.8908 0.84968 0.61852 0.0
O302 O 0.17501 0.97598 0.80023 0.0
O303 O 0.04282 0.86611 0.72381 0.0
O304 O 0.01154 0.71302 0.65599 0.0
O305 O 0.14012 0.75579 0.69099 0.0
O306 O 0.10608 0.84273 0.77773 0.0
O307 O 0.24241 0.88786 0.78842 0.0
C308 C 0.10218 0.79645 0.5857 0.0
C309 C 0.84213 0.82062 0.51967 0.0
C310 C 0.81364 0.81536 0.42453 0.0
C311 C 0.86072 0.80445 0.46381 0.0
C312 C 0.74602 0.83915 0.44086 0.0
C313 C 0.77499 0.8459 0.53544 0.0
C314 C 0.72703 0.85437 0.49599 0.0
C315 C 0.05546 0.97703 0.69615 0.0
C316 C 0.89291 0.81291 0.56211 0.0
C317 C 0.74623 0.59589 0.64115 0.0
C318 C 0.72924 0.66448 0.68629 0.0
C319 C 0.03939 0.84867 0.76464 0.0
C320 C 0.25957 1.00846 0.886 0.0
C321 C 0.28564 0.98086 0.92325 0.0
C322 C 0.30268 0.03192 0.98469 0.0
C323 C 0.29304 0.10959 1.00804 0.0
C324 C 0.2555 0.08775 0.91024 0.0
C325 C 0.27071 0.13746 0.97095 0.0
C326 C 0.07861 0.70317 0.66947 0.0
C327 C 0.22485 0.95491 0.82438 0.0
H328 H 0.91301 0.78608 0.45177 0.0
H329 H 0.70778 0.84604 0.41104 0.0
H330 H 0.75931 0.85861 0.57815 0.0
H331 H 0.67507 0.87322 0.50831 0.0
H332 H 0.28839 0.91979 0.90529 0.0
H333 H 0.30375 0.14923 0.05536 0.0
H334 H 0.23621 0.1106 0.88261 0.0
H335 H 0.26399 0.19752 0.98938 0.0
C336 C 0.11175 0.0158 0.13749 0.0
C337 C 0.08432 0.0803 0.14041 0.0
C338 C 0.15713 0.02152 0.18526 0.0
C339 C 0.18426 0.09407 0.23592 0.0
H340 H 0.09912 0.95994 0.09768 0.0
H341 H 0.17796 0.97016 0.17913 0.0
S342 S 0.11131 0.27515 0.27527 0.0
N343 N 0.07495 0.21539 0.20568 0.0
N344 N 0.16253 0.22569 0.29363 0.0
C345 C 0.15182 0.15712 0.24227 0.0
C346 C 0.10319 0.15091 0.19446 0.0
C347 C 0.10014 0.10708 0.71914 0.0
C348 C 0.05588 0.03541 0.6794 0.0
C349 C 0.13996 0.1505 0.69837 0.0
C350 C 0.1331 0.12519 0.63766 0.0
H351 H 0.10848 0.12667 0.76615 0.0
H352 H 0.17192 0.20678 0.73043 0.0
S353 S 0.02462 0.94215 0.51576 0.0
N354 N 0.00875 0.93974 0.57662 0.0
N355 N 0.07947 0.02635 0.53807 0.0
C356 C 0.08693 0.05543 0.59759 0.0
C357 C 0.04789 1.00997 0.6185 0.0
C358 C 0.69859 0.13177 0.2005 0.0
C359 C 0.69968 0.05592 0.15501 0.0
C360 C 0.65644 0.14537 0.24661 0.0
C361 C 0.60738 0.08507 0.24663 0.0
H362 H 0.73156 0.18141 0.20158 0.0
H363 H 0.66264 0.20383 0.28243 0.0
S364 S 0.58967 0.87439 0.13631 0.0
N365 N 0.65119 0.91866 0.11412 0.0
N366 N 0.56631 0.94435 0.19627 0.0
C367 C 0.60893 1.00849 0.20128 0.0
C368 C 0.65514 0.99421 0.15621 0.0
C369 C 0.14101 0.59734 0.73949 0.0
C370 C 0.17283 0.54184 0.69417 0.0
C371 C 0.09893 0.64313 0.72829 0.0
C372 C 0.08789 0.63439 0.67153 0.0
H373 H 0.14542 0.60228 0.78297 0.0
H374 H 0.0781 0.68838 0.76482 0.0
S375 S 0.15679 0.49462 0.53766 0.0
N376 N 0.19036 0.47931 0.59079 0.0
N377 N 0.10821 0.56461 0.56907 0.0
C378 C 0.11808 0.57813 0.62563 0.0
C379 C 0.16262 0.53288 0.6374 0.0
C380 C 0.3242 0.31305 0.54106 0.0
C381 C 0.25592 0.26624 0.53452 0.0
C382 C 0.37421 0.28466 0.49921 0.0
C383 C 0.35274 0.21464 0.44493 0.0
H384 H 0.33951 0.371 0.57881 0.0
H385 H 0.42937 0.31816 0.50912 0.0
S386 S 0.17564 0.07555 0.40309 0.0
N387 N 0.17192 0.14425 0.47071 0.0
N388 N 0.25426 0.10377 0.38609 0.0
C389 C 0.28221 0.17103 0.43658 0.0
C390 C 0.23649 0.19416 0.48217 0.0
C391 C 0.0313 0.27447 0.77559 0.0
C392 C 0.07558 0.34814 0.79516 0.0
C393 C 0.99372 0.25688 0.81502 0.0
C394 C -0.00146 0.31256 0.87556 0.0
H395 H 0.02592 0.23003 0.72976 0.0
H396 H 0.9598 0.19987 0.79779 0.0
S397 S 0.10385 0.51491 0.9486 0.0
N398 N 0.11896 0.47747 0.87922 0.0
N399 N 0.04963 0.4448 0.95201 0.0
C400 C 0.04135 0.38646 0.89497 0.0
C401 C 0.07923 0.40411 0.85528 0.0
C402 C 0.86614 0.7386 0.3311 0.0
C403 C 0.83665 0.8046 0.36767 0.0
C404 C 0.89309 0.72987 0.27946 0.0
C405 C 0.89311 0.78754 0.26276 0.0
H406 H 0.86856 0.69327 0.34257 0.0
H407 H 0.91476 0.67765 0.25272 0.0
S408 S 0.82134 0.97198 0.34369 0.0
N409 N 0.80616 0.92731 0.38245 0.0
N410 N 0.86155 0.91409 0.28826 0.0
C411 C 0.86295 0.85368 0.29884 0.0
C412 C 0.83362 0.8614 0.3505 0.0
C413 C 0.28178 0.01723 0.07149 0.0
C414 C 0.32579 1.00656 1.02718 0.0
C415 C 0.31241 0.02706 0.1256 0.0
C416 C 0.38664 0.02375 0.1376 0.0
H417 H 0.22609 0.02829 0.06723 0.0
H418 H 0.28116 0.04899 0.16103 0.0
S419 S 0.52218 0.9826 1.03169 0.0
N420 N 0.44562 0.98327 0.99505 0.0
N421 N 0.50159 0.99871 0.097 0.0
C422 C 0.42901 1.00385 0.09092 0.0
C423 C 0.39863 0.99545 0.03558 0.0
C424 C 0.88807 0.86164 0.86243 0.0
C425 C 0.91041 0.93713 0.9112 0.0
C426 C 0.93161 0.83146 0.81617 0.0
C427 C 0.9924 0.87953 0.81281 0.0
H428 H 0.83733 0.82555 0.85989 0.0
H429 H 0.91592 0.77126 0.78181 0.0
S430 S 0.07632 0.07902 0.93217 0.0
N431 N 0.00598 0.05223 0.95826 0.0
N432 N 0.0733 1.00584 0.86497 0.0
C433 C 0.01399 0.95509 0.86129 0.0
C434 C 0.97597 0.98156 0.91143 0.0
C435 C 0.18789 0.75153 0.44667 0.0
C436 C 0.23053 0.82276 0.45842 0.0
C437 C 0.15095 0.74424 0.48969 0.0
C438 C 0.15312 0.8079 0.54661 0.0
H439 H 0.1813 0.70075 0.40316 0.0
H440 H 0.1183 0.68803 0.4774 0.0
S441 S 0.25945 1.00717 0.60114 0.0
N442 N 0.27713 0.95734 0.53288 0.0
N443 N 0.20206 0.94554 0.6118 0.0
C444 C 0.19592 0.87959 0.55927 0.0
C445 C 0.23558 0.88654 0.51569 0.0
C446 C 0.38399 0.41043 1.01265 0.0
C447 C 0.41708 0.35137 0.97116 0.0
C448 C 0.36553 0.40987 0.06395 0.0
C449 C 0.37838 0.34954 0.07539 0.0
H450 H 0.37089 0.45648 1.00471 0.0
H451 H 0.33949 0.45642 0.09426 0.0
S452 S 0.46305 0.18031 0.97783 0.0
N453 N 0.4619 0.23143 0.94348 0.0
N454 N 0.42891 0.22978 0.03972 0.0
C455 C 0.41431 0.29162 0.03465 0.0
C456 C 0.43276 0.29243 0.98244 0.0
C457 C 0.88553 0.20644 0.24444 0.0
C458 C 0.92234 0.14304 0.22607 0.0
C459 C 0.88405 0.25751 0.30502 0.0
C460 C 0.91976 0.24697 0.3497 0.0
H461 H 0.8531 0.21337 0.21228 0.0
H462 H 0.85178 0.30335 0.31684 0.0
S463 S 0.02543 0.09023 0.32512 0.0
N464 N -0.00196 0.07466 0.25824 0.0
N465 N 0.99423 0.16859 0.37072 0.0
C466 C 0.95979 0.18593 0.33191 0.0
C467 C 0.96125 0.13457 0.27066 0.0
loop_
_geom_bond_atom_site_label_1
_geom_bond_atom_site_label_2
_geom_bond_distance
_geom_bond_site_symmetry_2
_ccdc_geom_bond_type
Tb0 N31 2.660 . S
Tb0 N38 2.600 . S
Tb0 O44 2.546 . S
Tb0 O45 2.610 1_545 S
Tb0 O47 2.320 . S
Tb0 O48 2.552 . S
Tb0 O49 2.413 . S
Tb0 O51 2.362 . S
Tb0 O52 2.421 . S
Tb0 C64 2.833 . S
C1 C4 1.432 . S
C1 C5 1.414 . S
C1 N8 1.359 . S
C2 C4 1.417 . S
C2 C6 1.432 . S
C2 C14 1.410 . S
C3 C5 1.444 . S
C3 C6 1.317 . S
C3 H26 0.929 1_554 S
C4 C1 1.432 . S
C4 C2 1.417 . S
C4 N12 1.360 . S
C5 C1 1.414 . S
C5 C3 1.444 . S
C5 C10 1.385 . S
C6 C2 1.432 . S
C6 C3 1.317 . S
C6 H18 0.930 1_554 S
C7 C9 1.392 . S
C7 C10 1.370 . S
C7 H19 0.931 . S
N8 C1 1.359 . S
N8 C9 1.327 . S
N8 Tb11 2.600 . S
C9 C7 1.392 . S
C9 N8 1.327 . S
C9 H16 0.930 . S
C10 C5 1.385 . S
C10 C7 1.370 . S
C10 H29 0.930 . S
Tb11 N8 2.600 . S
Tb11 N12 2.660 . S
Tb11 O45 2.362 . S
Tb11 O46 2.421 . S
Tb11 O50 2.546 . S
Tb11 O51 2.610 1_565 S
Tb11 O53 2.320 . S
Tb11 O54 2.552 1_565 S
Tb11 O55 2.413 . S
Tb11 C75 2.833 . S
N12 C4 1.360 . S
N12 Tb11 2.660 . S
N12 C13 1.305 . S
C13 N12 1.305 . S
C13 C15 1.407 . S
C13 H20 0.930 . S
C14 C2 1.410 . S
C14 C15 1.345 . S
C14 H22 0.930 1_554 S
C15 C13 1.407 . S
C15 C14 1.345 . S
C15 H17 0.930 . S
H16 C9 0.930 . S
H17 C15 0.930 . S
H18 C6 0.930 1_556 S
H19 C7 0.931 . S
H20 C13 0.930 . S
H21 C35 0.930 . S
H22 C14 0.930 1_556 S
H23 C41 0.930 . S
H24 C32 0.930 . S
H25 C39 0.931 . S
H26 C3 0.929 1_556 S
H27 C33 0.930 . S
H28 C66 0.930 . S
H29 C10 0.930 . S
H30 C65 0.929 . S
N31 Tb0 2.660 . S
N31 C32 1.305 . S
N31 C36 1.360 . S
C32 H24 0.930 . S
C32 N31 1.305 . S
C32 C35 1.407 . S
C33 H27 0.930 . S
C33 C34 1.410 . S
C33 C35 1.345 . S
C34 C33 1.410 . S
C34 C36 1.417 . S
C34 C66 1.432 . S
C35 H21 0.930 . S
C35 C32 1.407 . S
C35 C33 1.345 . S
C36 N31 1.360 . S
C36 C34 1.417 . S
C36 C40 1.432 . S
H37 C42 0.930 . S
N38 Tb0 2.600 . S
N38 C40 1.359 . S
N38 C41 1.327 . S
C39 H25 0.931 . S
C39 C41 1.392 . S
C39 C42 1.370 . S
C40 C36 1.432 . S
C40 N38 1.359 . S
C40 C43 1.414 . S
C41 H23 0.930 . S
C41 N38 1.327 . S
C41 C39 1.392 . S
C42 H37 0.930 . S
C42 C39 1.370 . S
C42 C43 1.385 . S
C43 C40 1.414 . S
C43 C42 1.385 . S
C43 C65 1.444 . S
O44 Tb0 2.546 . S
O44 C64 1.251 . S
O45 Tb0 2.610 1_565 S
O45 Tb11 2.362 . S
O45 C56 1.283 . S
O46 Tb11 2.421 . S
O46 C63 1.262 1_565 S
O47 Tb0 2.320 . S
O47 C63 1.260 . S
O48 Tb0 2.552 . S
O48 C56 1.243 1_545 S
O49 Tb0 2.413 . S
O49 C64 1.256 . S
O50 Tb11 2.546 . S
O50 C75 1.251 . S
O51 Tb0 2.362 . S
O51 Tb11 2.610 1_545 S
O51 C67 1.283 . S
O52 Tb0 2.421 . S
O52 C74 1.262 . S
O53 Tb11 2.320 . S
O53 C74 1.260 1_565 S
O54 Tb11 2.552 1_545 S
O54 C67 1.243 . S
O55 Tb11 2.413 . S
O55 C75 1.256 . S
C56 O45 1.283 . S
C56 O48 1.243 1_565 S
C57 C59 1.382 . S
C57 C61 1.393 . S
C57 C64 1.500 . S
C58 C59 1.400 . S
C58 C60 1.384 . S
C59 C57 1.382 . S
C59 C58 1.400 . S
C59 H76 0.930 . S
C60 C58 1.384 . S
C60 C62 1.392 . S
C60 H77 0.931 . S
C61 C57 1.393 . S
C61 C62 1.401 . S
C61 H78 0.930 . S
C62 C60 1.392 . S
C62 C61 1.401 . S
C62 H79 0.930 . S
C63 O46 1.262 1_545 S
C63 O47 1.260 . S
C64 Tb0 2.833 . S
C64 O44 1.251 . S
C64 O49 1.256 . S
C64 C57 1.500 . S
C65 H30 0.929 . S
C65 C43 1.444 . S
C65 C66 1.317 . S
C66 H28 0.930 . S
C66 C34 1.432 . S
C66 C65 1.317 . S
C67 O51 1.283 . S
C67 O54 1.243 . S
C68 C69 1.382 . S
C68 C72 1.393 . S
C68 C75 1.500 . S
C69 C68 1.382 . S
C69 C70 1.400 . S
C69 H80 0.930 . S
C70 C69 1.400 . S
C70 C71 1.384 . S
C71 C70 1.384 . S
C71 C73 1.392 . S
C71 H81 0.931 . S
C72 C68 1.393 . S
C72 C73 1.401 . S
C72 H82 0.930 . S
C73 C71 1.392 . S
C73 C72 1.401 . S
C73 H83 0.930 . S
C74 O52 1.262 . S
C74 O53 1.260 1_545 S
C75 Tb11 2.833 . S
C75 O50 1.251 . S
C75 O55 1.256 . S
C75 C68 1.500 . S
H76 C59 0.930 . S
H77 C60 0.931 . S
H78 C61 0.930 . S
H79 C62 0.930 . S
H80 C69 0.930 . S
H81 C71 0.931 . S
H82 C72 0.930 . S
H83 C73 0.930 . S
Tb84 N115 2.660 . S
Tb84 N122 2.600 . S
Tb84 O128 2.546 . S
Tb84 O129 2.610 . S
Tb84 O131 2.320 . S
Tb84 O132 2.552 . S
Tb84 O133 2.413 . S
Tb84 O135 2.362 . S
Tb84 O136 2.421 . S
Tb84 C148 2.833 . S
C85 C88 1.432 . S
C85 C89 1.414 . S
C85 N92 1.359 . S
C86 C88 1.417 . S
C86 C90 1.432 . S
C86 C98 1.410 . S
C87 C89 1.444 . S
C87 C90 1.317 . S
C87 H110 0.929 . S
C88 C85 1.432 . S
C88 C86 1.417 . S
C88 N96 1.360 . S
C89 C85 1.414 . S
C89 C87 1.444 . S
C89 C94 1.385 . S
C90 C86 1.432 . S
C90 C87 1.317 . S
C90 H102 0.930 . S
C91 C93 1.392 . S
C91 C94 1.370 . S
C91 H103 0.931 . S
N92 C85 1.359 . S
N92 C93 1.327 . S
N92 Tb95 2.600 . S
C93 C91 1.392 . S
C93 N92 1.327 . S
C93 H100 0.930 . S
C94 C89 1.385 . S
C94 C91 1.370 . S
C94 H113 0.930 . S
Tb95 N92 2.600 . S
Tb95 N96 2.660 . S
Tb95 O129 2.362 . S
Tb95 O130 2.421 . S
Tb95 O134 2.546 . S
Tb95 O135 2.610 . S
Tb95 O137 2.320 . S
Tb95 O138 2.552 . S
Tb95 O139 2.413 . S
Tb95 C159 2.833 . S
N96 C88 1.360 . S
N96 Tb95 2.660 . S
N96 C97 1.305 . S
C97 N96 1.305 . S
C97 C99 1.407 . S
C97 H104 0.930 . S
C98 C86 1.410 . S
C98 C99 1.345 . S
C98 H106 0.930 . S
C99 C97 1.407 . S
C99 C98 1.345 . S
C99 H101 0.930 . S
H100 C93 0.930 . S
H101 C99 0.930 . S
H102 C90 0.930 . S
H103 C91 0.931 . S
H104 C97 0.930 . S
H105 C119 0.930 . S
H106 C98 0.930 . S
H107 C125 0.930 1_455 S
H108 C116 0.930 . S
H109 C123 0.926 1_565 S
H110 C87 0.929 . S
H111 C117 0.930 . S
H112 C150 0.930 . S
H113 C94 0.930 . S
H114 C149 0.929 . S
N115 Tb84 2.660 . S
N115 C116 1.305 . S
N115 C120 1.360 1_455 S
C116 H108 0.930 . S
C116 N115 1.305 . S
C116 C119 1.407 1_455 S
C117 H111 0.930 . S
C117 C118 1.410 . S
C117 C119 1.345 . S
C118 C117 1.410 . S
C118 C120 1.417 . S
C118 C150 1.432 . S
C119 H105 0.930 . S
C119 C116 1.407 1_655 S
C119 C117 1.345 . S
C120 N115 1.360 1_655 S
C120 C118 1.417 . S
C120 C124 1.432 . S
H121 C126 0.930 . S
N122 Tb84 2.600 . S
N122 C124 1.359 1_455 S
N122 C125 1.327 1_455 S
C123 H109 0.926 1_545 S
C123 C125 1.392 . S
C123 C126 1.370 . S
C124 C120 1.432 . S
C124 N122 1.359 1_655 S
C124 C127 1.414 . S
C125 H107 0.930 1_655 S
C125 N122 1.327 1_655 S
C125 C123 1.392 . S
C126 H121 0.930 . S
C126 C123 1.370 . S
C126 C127 1.385 . S
C127 C124 1.414 . S
C127 C126 1.385 . S
C127 C149 1.444 . S
O128 Tb84 2.546 . S
O128 C148 1.251 . S
O129 Tb84 2.610 . S
O129 Tb95 2.362 . S
O129 C140 1.283 . S
O130 Tb95 2.421 . S
O130 C147 1.262 . S
O131 Tb84 2.320 . S
O131 C147 1.260 . S
O132 Tb84 2.552 . S
O132 C140 1.243 . S
O133 Tb84 2.413 . S
O133 C148 1.256 . S
O134 Tb95 2.546 . S
O134 C159 1.251 . S
O135 Tb84 2.362 . S
O135 Tb95 2.610 . S
O135 C151 1.283 . S
O136 Tb84 2.421 . S
O136 C158 1.262 . S
O137 Tb95 2.320 . S
O137 C158 1.260 . S
O138 Tb95 2.552 . S
O138 C151 1.243 . S
O139 Tb95 2.413 . S
O139 C159 1.256 . S
C140 O129 1.283 . S
C140 O132 1.243 . S
C141 C143 1.382 . S
C141 C145 1.393 1_455 S
C141 C148 1.500 . S
C142 C143 1.400 1_655 S
C142 C144 1.384 . S
C143 C141 1.382 . S
C143 C142 1.400 1_455 S
C143 H160 0.930 . S
C144 C142 1.384 . S
C144 C146 1.392 . S
C144 H161 0.931 . S
C145 C141 1.393 1_655 S
C145 C146 1.401 . S
C145 H162 0.930 . S
C146 C144 1.392 . S
C146 C145 1.401 . S
C146 H163 0.930 . S
C147 O130 1.262 . S
C147 O131 1.260 . S
C148 Tb84 2.833 . S
C148 O128 1.251 . S
C148 O133 1.256 . S
C148 C141 1.500 . S
C149 H114 0.929 . S
C149 C127 1.444 . S
C149 C150 1.317 . S
C150 H112 0.930 . S
C150 C118 1.432 . S
C150 C149 1.317 . S
C151 O135 1.283 . S
C151 O138 1.243 . S
C152 C153 1.382 . S
C152 C156 1.393 . S
C152 C159 1.500 . S
C153 C152 1.382 . S
C153 C154 1.400 . S
C153 H164 0.930 . S
C154 C153 1.400 . S
C154 C155 1.384 . S
C155 C154 1.384 . S
C155 C157 1.392 . S
C155 H165 0.931 . S
C156 C152 1.393 . S
C156 C157 1.401 . S
C156 H166 0.930 . S
C157 C155 1.392 . S
C157 C156 1.401 . S
C157 H167 0.930 . S
C158 O136 1.262 . S
C158 O137 1.260 . S
C159 Tb95 2.833 . S
C159 O134 1.251 . S
C159 O139 1.256 . S
C159 C152 1.500 . S
H160 C143 0.930 . S
H161 C144 0.931 . S
H162 C145 0.930 . S
H163 C146 0.930 . S
H164 C153 0.930 . S
H165 C155 0.931 . S
H166 C156 0.930 . S
H167 C157 0.930 . S
Tb168 N199 2.660 . S
Tb168 N206 2.600 . S
Tb168 O212 2.546 . S
Tb168 O213 2.610 . S
Tb168 O215 2.320 1_655 S
Tb168 O216 2.552 1_554 S
Tb168 O217 2.413 . S
Tb168 O219 2.362 . S
Tb168 O220 2.421 . S
Tb168 C232 2.833 . S
C169 C172 1.432 . S
C169 C173 1.414 . S
C169 N176 1.359 1_556 S
C170 C172 1.417 . S
C170 C174 1.432 . S
C170 C182 1.410 . S
C171 C173 1.444 . S
C171 C174 1.317 . S
C171 H194 0.929 . S
C172 C169 1.432 . S
C172 C170 1.417 . S
C172 N180 1.360 1_556 S
C173 C169 1.414 . S
C173 C171 1.444 . S
C173 C178 1.385 1_655 S
C174 C170 1.432 . S
C174 C171 1.317 . S
C174 H186 0.930 . S
C175 C177 1.392 . S
C175 C178 1.370 1_554 S
C175 H187 0.931 . S
N176 C169 1.359 1_554 S
N176 C177 1.327 1_655 S
N176 Tb179 2.600 1_565 S
C177 C175 1.392 . S
C177 N176 1.327 1_455 S
C177 H184 0.930 . S
C178 C173 1.385 1_455 S
C178 C175 1.370 1_556 S
C178 H197 0.930 . S
Tb179 N176 2.600 1_545 S
Tb179 N180 2.660 1_545 S
Tb179 O213 2.362 . S
Tb179 O214 2.421 1_655 S
Tb179 O218 2.546 1_545 S
Tb179 O219 2.610 . S
Tb179 O221 2.320 . S
Tb179 O222 2.552 . S
Tb179 O223 2.413 1_545 S
Tb179 C243 2.833 1_545 S
N180 C172 1.360 1_554 S
N180 Tb179 2.660 1_565 S
N180 C181 1.305 1_554 S
C181 N180 1.305 1_556 S
C181 C183 1.407 . S
C181 H188 0.930 1_556 S
C182 C170 1.410 . S
C182 C183 1.345 . S
C182 H190 0.930 . S
C183 C181 1.407 . S
C183 C182 1.345 . S
C183 H185 0.930 . S
H184 C177 0.930 . S
H185 C183 0.930 . S
H186 C174 0.930 . S
H187 C175 0.931 . S
H188 C181 0.930 1_554 S
H189 C203 0.930 . S
H190 C182 0.930 . S
H191 C209 0.930 . S
H192 C200 0.930 . S
H193 C207 0.931 . S
H194 C171 0.929 . S
H195 C201 0.930 . S
H196 C234 0.930 . S
H197 C178 0.930 . S
H198 C233 0.929 . S
N199 Tb168 2.660 . S
N199 C200 1.305 1_655 S
N199 C204 1.360 . S
C200 H192 0.930 . S
C200 N199 1.305 1_455 S
C200 C203 1.407 . S
C201 H195 0.930 . S
C201 C202 1.410 1_455 S
C201 C203 1.345 . S
C202 C201 1.410 1_655 S
C202 C204 1.417 . S
C202 C234 1.432 . S
C203 H189 0.930 . S
C203 C200 1.407 . S
C203 C201 1.345 . S
C204 N199 1.360 . S
C204 C202 1.417 . S
C204 C208 1.432 . S
H205 C210 0.930 . S
N206 Tb168 2.600 . S
N206 C208 1.359 . S
N206 C209 1.327 . S
C207 H193 0.931 . S
C207 C209 1.392 . S
C207 C210 1.370 . S
C208 C204 1.432 . S
C208 N206 1.359 . S
C208 C211 1.414 . S
C209 H191 0.930 . S
C209 N206 1.327 . S
C209 C207 1.392 . S
C210 H205 0.930 . S
C210 C207 1.370 . S
C210 C211 1.385 . S
C211 C208 1.414 . S
C211 C210 1.385 . S
C211 C233 1.444 . S
O212 Tb168 2.546 . S
O212 C232 1.251 . S
O213 Tb168 2.610 . S
O213 Tb179 2.362 . S
O213 C224 1.283 1_554 S
O214 Tb179 2.421 1_455 S
O214 C231 1.262 . S
O215 Tb168 2.320 1_455 S
O215 C231 1.260 . S
O216 Tb168 2.552 1_556 S
O216 C224 1.243 . S
O217 Tb168 2.413 . S
O217 C232 1.256 . S
O218 Tb179 2.546 1_565 S
O218 C243 1.251 . S
O219 Tb168 2.362 . S
O219 Tb179 2.610 . S
O219 C235 1.283 . S
O220 Tb168 2.421 . S
O220 C242 1.262 . S
O221 Tb179 2.320 . S
O221 C242 1.260 . S
O222 Tb179 2.552 . S
O222 C235 1.243 . S
O223 Tb179 2.413 1_565 S
O223 C243 1.256 . S
C224 O213 1.283 1_556 S
C224 O216 1.243 . S
C225 C227 1.382 . S
C225 C229 1.393 . S
C225 C232 1.500 1_556 S
C226 C227 1.400 . S
C226 C228 1.384 . S
C227 C225 1.382 . S
C227 C226 1.400 . S
C227 H244 0.930 1_655 S
C228 C226 1.384 . S
C228 C230 1.392 . S
C228 H245 0.931 . S
C229 C225 1.393 . S
C229 C230 1.401 . S
C229 H246 0.930 1_556 S
C230 C228 1.392 . S
C230 C229 1.401 . S
C230 H247 0.930 . S
C231 O214 1.262 . S
C231 O215 1.260 . S
C232 Tb168 2.833 . S
C232 O212 1.251 . S
C232 O217 1.256 . S
C232 C225 1.500 1_554 S
C233 H198 0.929 . S
C233 C211 1.444 . S
C233 C234 1.317 . S
C234 H196 0.930 . S
C234 C202 1.432 . S
C234 C233 1.317 . S
C235 O219 1.283 . S
C235 O222 1.243 . S
C236 C237 1.382 . S
C236 C240 1.393 . S
C236 C243 1.500 . S
C237 C236 1.382 . S
C237 C238 1.400 . S
C237 H248 0.930 . S
C238 C237 1.400 . S
C238 C239 1.384 . S
C239 C238 1.384 . S
C239 C241 1.392 . S
C239 H249 0.931 . S
C240 C236 1.393 . S
C240 C241 1.401 . S
C240 H250 0.930 . S
C241 C239 1.392 . S
C241 C240 1.401 . S
C241 H251 0.930 . S
C242 O220 1.262 . S
C242 O221 1.260 . S
C243 Tb179 2.833 1_565 S
C243 O218 1.251 . S
C243 O223 1.256 . S
C243 C236 1.500 . S
H244 C227 0.930 1_455 S
H245 C228 0.931 . S
H246 C229 0.930 1_554 S
H247 C230 0.930 . S
H248 C237 0.930 . S
H249 C239 0.931 . S
H250 C240 0.930 . S
H251 C241 0.930 . S
Tb252 N283 2.660 . S
Tb252 N290 2.600 . S
Tb252 O296 2.546 . S
Tb252 O297 2.610 1_655 S
Tb252 O299 2.320 . S
Tb252 O300 2.552 1_655 S
Tb252 O301 2.413 . S
Tb252 O303 2.362 . S
Tb252 O304 2.421 . S
Tb252 C316 2.833 . S
C253 C256 1.432 . S
C253 C257 1.414 . S
C253 N260 1.359 . S
C254 C256 1.417 . S
C254 C258 1.432 . S
C254 C266 1.410 . S
C255 C257 1.444 . S
C255 C258 1.317 . S
C255 H278 0.929 . S
C256 C253 1.432 . S
C256 C254 1.417 . S
C256 N264 1.360 . S
C257 C253 1.414 . S
C257 C255 1.444 . S
C257 C262 1.385 1_565 S
C258 C254 1.432 . S
C258 C255 1.317 . S
C258 H270 0.930 . S
C259 C261 1.392 . S
C259 C262 1.370 . S
C259 H271 0.931 . S
N260 C253 1.359 . S
N260 C261 1.327 1_565 S
N260 Tb263 2.600 . S
C261 C259 1.392 . S
C261 N260 1.327 1_545 S
C261 H268 0.930 . S
C262 C257 1.385 1_545 S
C262 C259 1.370 . S
C262 H281 0.930 . S
Tb263 N260 2.600 . S
Tb263 N264 2.660 . S
Tb263 O297 2.362 . S
Tb263 O298 2.421 . S
Tb263 O302 2.546 . S
Tb263 O303 2.610 1_455 S
Tb263 O305 2.320 . S
Tb263 O306 2.552 . S
Tb263 O307 2.413 . S
Tb263 C327 2.833 . S
N264 C256 1.360 . S
N264 Tb263 2.660 . S
N264 C265 1.305 . S
C265 N264 1.305 . S
C265 C267 1.407 . S
C265 H272 0.930 . S
C266 C254 1.410 . S
C266 C267 1.345 . S
C266 H274 0.930 . S
C267 C265 1.407 . S
C267 C266 1.345 . S
C267 H269 0.930 . S
H268 C261 0.930 . S
H269 C267 0.930 . S
H270 C258 0.930 . S
H271 C259 0.931 . S
H272 C265 0.930 . S
H273 C287 0.930 1_545 S
H274 C266 0.930 . S
H275 C293 0.930 . S
H276 C284 0.930 . S
H277 C291 0.931 . S
H278 C255 0.929 . S
H279 C285 0.930 . S
H280 C318 0.930 . S
H281 C262 0.930 . S
H282 C317 0.929 . S
N283 Tb252 2.660 . S
N283 C284 1.305 . S
N283 C288 1.360 . S
C284 H276 0.930 . S
C284 N283 1.305 . S
C284 C287 1.407 . S
C285 H279 0.930 . S
C285 C286 1.410 . S
C285 C287 1.345 . S
C286 C285 1.410 . S
C286 C288 1.417 . S
C286 C318 1.432 . S
C287 H273 0.930 1_565 S
C287 C284 1.407 . S
C287 C285 1.345 . S
C288 N283 1.360 . S
C288 C286 1.417 . S
C288 C292 1.432 . S
H289 C294 0.930 . S
N290 Tb252 2.600 . S
N290 C292 1.359 . S
N290 C293 1.327 . S
C291 H277 0.931 . S
C291 C293 1.392 . S
C291 C294 1.370 . S
C292 C288 1.432 . S
C292 N290 1.359 . S
C292 C295 1.414 . S
C293 H275 0.930 . S
C293 N290 1.327 . S
C293 C291 1.392 . S
C294 H289 0.930 . S
C294 C291 1.370 . S
C294 C295 1.385 . S
C295 C292 1.414 . S
C295 C294 1.385 . S
C295 C317 1.444 . S
O296 Tb252 2.546 . S
O296 C316 1.251 . S
O297 Tb252 2.610 1_455 S
O297 Tb263 2.362 . S
O297 C308 1.283 . S
O298 Tb263 2.421 . S
O298 C315 1.262 . S
O299 Tb252 2.320 . S
O299 C315 1.260 1_655 S
O300 Tb252 2.552 1_455 S
O300 C308 1.243 . S
O301 Tb252 2.413 . S
O301 C316 1.256 . S
O302 Tb263 2.546 . S
O302 C327 1.251 . S
O303 Tb252 2.362 . S
O303 Tb263 2.610 1_655 S
O303 C319 1.283 . S
O304 Tb252 2.421 . S
O304 C326 1.262 1_655 S
O305 Tb263 2.320 . S
O305 C326 1.260 . S
O306 Tb263 2.552 . S
O306 C319 1.243 1_455 S
O307 Tb263 2.413 . S
O307 C327 1.256 . S
C308 O297 1.283 . S
C308 O300 1.243 . S
C309 C311 1.382 . S
C309 C313 1.393 . S
C309 C316 1.500 . S
C310 C311 1.400 . S
C310 C312 1.384 . S
C311 C309 1.382 . S
C311 C310 1.400 . S
C311 H328 0.930 . S
C312 C310 1.384 . S
C312 C314 1.392 . S
C312 H329 0.931 . S
C313 C309 1.393 . S
C313 C314 1.401 . S
C313 H330 0.930 . S
C314 C312 1.392 . S
C314 C313 1.401 . S
C314 H331 0.930 . S
C315 O298 1.262 . S
C315 O299 1.260 1_455 S
C316 Tb252 2.833 . S
C316 O296 1.251 . S
C316 O301 1.256 . S
C316 C309 1.500 . S
C317 H282 0.929 . S
C317 C295 1.444 . S
C317 C318 1.317 . S
C318 H280 0.930 . S
C318 C286 1.432 . S
C318 C317 1.317 . S
C319 O303 1.283 . S
C319 O306 1.243 1_655 S
C320 C321 1.382 . S
C320 C324 1.393 . S
C320 C327 1.500 . S
C321 C320 1.382 . S
C321 C322 1.400 . S
C321 H332 0.930 . S
C322 C321 1.400 . S
C322 C323 1.384 . S
C323 C322 1.384 . S
C323 C325 1.392 . S
C323 H333 0.931 . S
C324 C320 1.393 . S
C324 C325 1.401 . S
C324 H334 0.930 1_565 S
C325 C323 1.392 . S
C325 C324 1.401 . S
C325 H335 0.930 1_565 S
C326 O304 1.262 1_455 S
C326 O305 1.260 . S
C327 Tb263 2.833 . S
C327 O302 1.251 . S
C327 O307 1.256 . S
C327 C320 1.500 . S
H328 C311 0.930 . S
H329 C312 0.931 . S
H330 C313 0.930 . S
H331 C314 0.930 . S
H332 C321 0.930 . S
H333 C323 0.931 . S
H334 C324 0.930 1_545 S
H335 C325 0.930 1_545 S
C336 C337 1.369 . S
C336 C338 1.419 . S
C336 H340 0.930 . S
C337 C336 1.369 . S
C337 C346 1.429 . S
C338 C336 1.419 . S
C338 C339 1.363 . S
C338 H341 0.929 . S
C339 C338 1.363 . S
C339 C345 1.428 . S
H340 C336 0.930 . S
H341 C338 0.929 . S
S342 N343 1.613 1_655 S
S342 N344 1.610 1_655 S
N343 S342 1.613 1_455 S
N343 C346 1.350 . S
N344 S342 1.610 1_455 S
N344 C345 1.351 . S
C345 C339 1.428 . S
C345 N344 1.351 . S
C345 C346 1.434 . S
C346 C337 1.429 . S
C346 N343 1.350 . S
C346 C345 1.434 . S
C347 C348 1.369 . S
C347 C349 1.419 . S
C347 H351 0.930 . S
C348 C347 1.369 . S
C348 C357 1.429 . S
C349 C347 1.419 . S
C349 C350 1.363 . S
C349 H352 0.929 . S
C350 C349 1.363 . S
C350 C356 1.428 . S
H351 C347 0.930 . S
H352 C349 0.929 . S
S353 N354 1.613 . S
S353 N355 1.610 1_565 S
N354 S353 1.613 . S
N354 C357 1.350 1_565 S
N355 S353 1.610 1_545 S
N355 C356 1.351 . S
C356 C350 1.428 . S
C356 N355 1.351 . S
C356 C357 1.434 . S
C357 C348 1.429 . S
C357 N354 1.350 1_545 S
C357 C356 1.434 . S
C358 C359 1.369 . S
C358 C360 1.419 . S
C358 H362 0.930 . S
C359 C358 1.369 . S
C359 C368 1.429 . S
C360 C358 1.419 . S
C360 C361 1.363 . S
C360 H363 0.929 . S
C361 C360 1.363 . S
C361 C367 1.428 1_545 S
H362 C358 0.930 . S
H363 C360 0.929 . S
S364 N365 1.613 . S
S364 N366 1.610 . S
N365 S364 1.613 . S
N365 C368 1.350 1_565 S
N366 S364 1.610 . S
N366 C367 1.351 . S
C367 C361 1.428 1_565 S
C367 N366 1.351 . S
C367 C368 1.434 1_565 S
C368 C359 1.429 . S
C368 N365 1.350 1_545 S
C368 C367 1.434 1_545 S
C369 C370 1.369 . S
C369 C371 1.419 . S
C369 H373 0.930 . S
C370 C369 1.369 . S
C370 C379 1.429 . S
C371 C369 1.419 . S
C371 C372 1.363 . S
C371 H374 0.929 . S
C372 C371 1.363 . S
C372 C378 1.428 . S
H373 C369 0.930 . S
H374 C371 0.929 . S
S375 N376 1.613 . S
S375 N377 1.610 . S
N376 S375 1.613 . S
N376 C379 1.350 . S
N377 S375 1.610 . S
N377 C378 1.351 . S
C378 C372 1.428 . S
C378 N377 1.351 . S
C378 C379 1.434 . S
C379 C370 1.429 . S
C379 N376 1.350 . S
C379 C378 1.434 . S
C380 C381 1.369 . S
C380 C382 1.419 . S
C380 H384 0.930 . S
C381 C380 1.369 . S
C381 C390 1.429 . S
C382 C380 1.419 . S
C382 C383 1.363 . S
C382 H385 0.929 . S
C383 C382 1.363 . S
C383 C389 1.428 . S
H384 C380 0.930 . S
H385 C382 0.929 . S
S386 N387 1.613 . S
S386 N388 1.610 . S
N387 S386 1.613 . S
N387 C390 1.350 . S
N388 S386 1.610 . S
N388 C389 1.351 . S
C389 C383 1.428 . S
C389 N388 1.351 . S
C389 C390 1.434 . S
C390 C381 1.429 . S
C390 N387 1.350 . S
C390 C389 1.434 . S
C391 C392 1.369 . S
C391 C393 1.419 . S
C391 H395 0.930 . S
C392 C391 1.369 . S
C392 C401 1.429 . S
C393 C391 1.419 . S
C393 C394 1.363 . S
C393 H396 0.929 . S
C394 C393 1.363 . S
C394 C400 1.428 . S
H395 C391 0.930 . S
H396 C393 0.929 . S
S397 N398 1.613 . S
S397 N399 1.610 . S
N398 S397 1.613 . S
N398 C401 1.350 . S
N399 S397 1.610 . S
N399 C400 1.351 . S
C400 C394 1.428 . S
C400 N399 1.351 . S
C400 C401 1.434 . S
C401 C392 1.429 . S
C401 N398 1.350 . S
C401 C400 1.434 . S
C402 C403 1.369 . S
C402 C404 1.419 . S
C402 H406 0.930 . S
C403 C402 1.369 . S
C403 C412 1.429 . S
C404 C402 1.419 . S
C404 C405 1.363 . S
C404 H407 0.929 . S
C405 C404 1.363 . S
C405 C411 1.428 . S
H406 C402 0.930 . S
H407 C404 0.929 . S
S408 N409 1.613 1_545 S
S408 N410 1.610 . S
N409 S408 1.613 1_565 S
N409 C412 1.350 . S
N410 S408 1.610 . S
N410 C411 1.351 1_545 S
C411 C405 1.428 . S
C411 N410 1.351 1_565 S
C411 C412 1.434 . S
C412 C403 1.429 . S
C412 N409 1.350 . S
C412 C411 1.434 . S
C413 C414 1.369 . S
C413 C415 1.419 1_556 S
C413 H417 0.930 . S
C414 C413 1.369 . S
C414 C423 1.429 . S
C415 C413 1.419 1_554 S
C415 C416 1.363 . S
C415 H418 0.929 . S
C416 C415 1.363 . S
C416 C422 1.428 . S
H417 C413 0.930 . S
H418 C415 0.929 . S
S419 N420 1.613 . S
S419 N421 1.610 1_556 S
N420 S419 1.613 . S
N420 C423 1.350 . S
N421 S419 1.610 1_554 S
N421 C422 1.351 . S
C422 C416 1.428 . S
C422 N421 1.351 . S
C422 C423 1.434 1_554 S
C423 C414 1.429 . S
C423 N420 1.350 . S
C423 C422 1.434 1_556 S
C424 C425 1.369 . S
C424 C426 1.419 . S
C424 H428 0.930 . S
C425 C424 1.369 . S
C425 C434 1.429 . S
C426 C424 1.419 . S
C426 C427 1.363 . S
C426 H429 0.929 . S
C427 C426 1.363 . S
C427 C433 1.428 . S
H428 C424 0.930 . S
H429 C426 0.929 . S
S430 N431 1.613 1_455 S
S430 N432 1.610 1_545 S
N431 S430 1.613 1_655 S
N431 C434 1.350 1_545 S
N432 S430 1.610 1_565 S
N432 C433 1.351 1_455 S
C433 C427 1.428 . S
C433 N432 1.351 1_655 S
C433 C434 1.434 . S
C434 C425 1.429 . S
C434 N431 1.350 1_565 S
C434 C433 1.434 . S
C435 C436 1.369 . S
C435 C437 1.419 . S
C435 H439 0.930 . S
C436 C435 1.369 . S
C436 C445 1.429 . S
C437 C435 1.419 . S
C437 C438 1.363 . S
C437 H440 0.929 . S
C438 C437 1.363 . S
C438 C444 1.428 . S
H439 C435 0.930 . S
H440 C437 0.929 . S
S441 N442 1.613 . S
S441 N443 1.610 . S
N442 S441 1.613 . S
N442 C445 1.350 . S
N443 S441 1.610 . S
N443 C444 1.351 . S
C444 C438 1.428 . S
C444 N443 1.351 . S
C444 C445 1.434 . S
C445 C436 1.429 . S
C445 N442 1.350 . S
C445 C444 1.434 . S
C446 C447 1.369 . S
C446 C448 1.419 1_556 S
C446 H450 0.930 1_556 S
C447 C446 1.369 . S
C447 C456 1.429 . S
C448 C446 1.419 1_554 S
C448 C449 1.363 . S
C448 H451 0.929 . S
C449 C448 1.363 . S
C449 C455 1.428 1_554 S
H450 C446 0.930 1_554 S
H451 C448 0.929 . S
S452 N453 1.613 . S
S452 N454 1.610 . S
N453 S452 1.613 . S
N453 C456 1.350 . S
N454 S452 1.610 . S
N454 C455 1.351 . S
C455 C449 1.428 1_556 S
C455 N454 1.351 . S
C455 C456 1.434 . S
C456 C447 1.429 . S
C456 N453 1.350 . S
C456 C455 1.434 . S
C457 C458 1.369 . S
C457 C459 1.419 . S
C457 H461 0.930 . S
C458 C457 1.369 . S
C458 C467 1.429 . S
C459 C457 1.419 . S
C459 C460 1.363 . S
C459 H462 0.929 . S
C460 C459 1.363 . S
C460 C466 1.428 1_655 S
H461 C457 0.930 . S
H462 C459 0.929 . S
S463 N464 1.613 . S
S463 N465 1.610 . S
N464 S463 1.613 . S
N464 C467 1.350 1_455 S
N465 S463 1.610 . S
N465 C466 1.351 . S
C466 C460 1.428 1_455 S
C466 N465 1.351 . S
C466 C467 1.434 1_455 S
C467 C458 1.429 . S
C467 N464 1.350 1_655 S
C467 C466 1.434 1_655 S
C337 C231 1.401 . S
C339 C74 1.415 . S
C348 C315 1.296 1_545 S
C350 C158 1.293 . S
C359 C242 1.438 . S
C361 C63 1.447 . S
C370 C147 1.545 . S
C372 C326 1.547 . S
C381 C140 1.933 . S
C383 C67 2.113 . S
C392 C151 1.922 . S
C394 C226 1.964 1_455 S
C403 C310 1.184 . S
C405 C238 0.973 . S
C414 C322 0.874 . S
C416 C56 1.012 . S
C425 C224 2.112 1_565 S
C427 C319 1.934 . S
C436 C70 1.960 . S
C438 C308 1.930 . S
C447 C154 1.183 . S
C449 C58 0.976 . S
C458 C235 1.003 . S
C460 C142 0.877 . S
