# Generated by pormake.
# Topology ukj, (4)-cn, num edge types: 1
# Building blocks:
#     Node 0, Type 0, BuildingBlock: KOZSID_clean_sbu_0, # of connection points: 4
#     Node 1, Type 0, BuildingBlock: KOZSID_clean_sbu_0, # of connection points: 4
#     Node 2, Type 0, BuildingBlock: KOZSID_clean_sbu_0, # of connection points: 4
#     Node 3, Type 0, BuildingBlock: KOZSID_clean_sbu_0, # of connection points: 4
#     Node 4, Type 0, BuildingBlock: KOZSID_clean_sbu_0, # of connection points: 4
#     Node 5, Type 0, BuildingBlock: KOZSID_clean_sbu_0, # of connection points: 4
#     Node 6, Type 0, BuildingBlock: KOZSID_clean_sbu_0, # of connection points: 4
#     Node 7, Type 0, BuildingBlock: KOZSID_clean_sbu_0, # of connection points: 4
#     Node 8, Type 0, BuildingBlock: KOZSID_clean_sbu_0, # of connection points: 4
#     Node 9, Type 0, BuildingBlock: KOZSID_clean_sbu_0, # of connection points: 4
#     Node 10, Type 0, BuildingBlock: KOZSID_clean_sbu_0, # of connection points: 4
#     Node 11, Type 0, BuildingBlock: KOZSID_clean_sbu_0, # of connection points: 4
#     Node 12, Type 0, BuildingBlock: KOZSID_clean_sbu_0, # of connection points: 4
#     Node 13, Type 0, BuildingBlock: KOZSID_clean_sbu_0, # of connection points: 4
#     Node 14, Type 0, BuildingBlock: KOZSID_clean_sbu_0, # of connection points: 4
#     Node 15, Type 0, BuildingBlock: KOZSID_clean_sbu_0, # of connection points: 4
#     Node 16, Type 0, BuildingBlock: KOZSID_clean_sbu_0, # of connection points: 4
#     Node 17, Type 0, BuildingBlock: KOZSID_clean_sbu_0, # of connection points: 4
#     Node 18, Type 0, BuildingBlock: KOZSID_clean_sbu_0, # of connection points: 4
#     Node 19, Type 0, BuildingBlock: KOZSID_clean_sbu_0, # of connection points: 4
#     Node 20, Type 0, BuildingBlock: KOZSID_clean_sbu_0, # of connection points: 4
#     Node 21, Type 0, BuildingBlock: KOZSID_clean_sbu_0, # of connection points: 4
#     Node 22, Type 0, BuildingBlock: KOZSID_clean_sbu_0, # of connection points: 4
#     Node 23, Type 0, BuildingBlock: KOZSID_clean_sbu_0, # of connection points: 4
#     Node 24, Type 0, BuildingBlock: KOZSID_clean_sbu_0, # of connection points: 4
#     Node 25, Type 0, BuildingBlock: KOZSID_clean_sbu_0, # of connection points: 4
#     Node 26, Type 0, BuildingBlock: KOZSID_clean_sbu_0, # of connection points: 4
#     Node 27, Type 0, BuildingBlock: KOZSID_clean_sbu_0, # of connection points: 4
#     Node 28, Type 0, BuildingBlock: KOZSID_clean_sbu_0, # of connection points: 4
#     Node 29, Type 0, BuildingBlock: KOZSID_clean_sbu_0, # of connection points: 4
#     Node 30, Type 0, BuildingBlock: KOZSID_clean_sbu_0, # of connection points: 4
#     Node 31, Type 0, BuildingBlock: KOZSID_clean_sbu_0, # of connection points: 4
#     Edge 32, Type (0, 0), BuildingBlock: XIVTED_clean_linker_0, # of connection points: 2
#     Edge 33, Type (0, 0), BuildingBlock: XIVTED_clean_linker_0, # of connection points: 2
#     Edge 34, Type (0, 0), BuildingBlock: XIVTED_clean_linker_0, # of connection points: 2
#     Edge 35, Type (0, 0), BuildingBlock: XIVTED_clean_linker_0, # of connection points: 2
#     Edge 36, Type (0, 0), BuildingBlock: XIVTED_clean_linker_0, # of connection points: 2
#     Edge 37, Type (0, 0), BuildingBlock: XIVTED_clean_linker_0, # of connection points: 2
#     Edge 38, Type (0, 0), BuildingBlock: XIVTED_clean_linker_0, # of connection points: 2
#     Edge 39, Type (0, 0), BuildingBlock: XIVTED_clean_linker_0, # of connection points: 2
#     Edge 40, Type (0, 0), BuildingBlock: XIVTED_clean_linker_0, # of connection points: 2
#     Edge 41, Type (0, 0), BuildingBlock: XIVTED_clean_linker_0, # of connection points: 2
#     Edge 42, Type (0, 0), BuildingBlock: XIVTED_clean_linker_0, # of connection points: 2
#     Edge 43, Type (0, 0), BuildingBlock: XIVTED_clean_linker_0, # of connection points: 2
#     Edge 44, Type (0, 0), BuildingBlock: XIVTED_clean_linker_0, # of connection points: 2
#     Edge 45, Type (0, 0), BuildingBlock: XIVTED_clean_linker_0, # of connection points: 2
#     Edge 46, Type (0, 0), BuildingBlock: XIVTED_clean_linker_0, # of connection points: 2
#     Edge 47, Type (0, 0), BuildingBlock: XIVTED_clean_linker_0, # of connection points: 2
#     Edge 48, Type (0, 0), BuildingBlock: XIVTED_clean_linker_0, # of connection points: 2
#     Edge 49, Type (0, 0), BuildingBlock: XIVTED_clean_linker_0, # of connection points: 2
#     Edge 50, Type (0, 0), BuildingBlock: XIVTED_clean_linker_0, # of connection points: 2
#     Edge 51, Type (0, 0), BuildingBlock: XIVTED_clean_linker_0, # of connection points: 2
#     Edge 52, Type (0, 0), BuildingBlock: XIVTED_clean_linker_0, # of connection points: 2
#     Edge 53, Type (0, 0), BuildingBlock: XIVTED_clean_linker_0, # of connection points: 2
#     Edge 54, Type (0, 0), BuildingBlock: XIVTED_clean_linker_0, # of connection points: 2
#     Edge 55, Type (0, 0), BuildingBlock: XIVTED_clean_linker_0, # of connection points: 2
#     Edge 56, Type (0, 0), BuildingBlock: XIVTED_clean_linker_0, # of connection points: 2
#     Edge 57, Type (0, 0), BuildingBlock: XIVTED_clean_linker_0, # of connection points: 2
#     Edge 58, Type (0, 0), BuildingBlock: XIVTED_clean_linker_0, # of connection points: 2
#     Edge 59, Type (0, 0), BuildingBlock: XIVTED_clean_linker_0, # of connection points: 2
#     Edge 60, Type (0, 0), BuildingBlock: XIVTED_clean_linker_0, # of connection points: 2
#     Edge 61, Type (0, 0), BuildingBlock: XIVTED_clean_linker_0, # of connection points: 2
#     Edge 62, Type (0, 0), BuildingBlock: XIVTED_clean_linker_0, # of connection points: 2
#     Edge 63, Type (0, 0), BuildingBlock: XIVTED_clean_linker_0, # of connection points: 2
#     Edge 64, Type (0, 0), BuildingBlock: XIVTED_clean_linker_0, # of connection points: 2
#     Edge 65, Type (0, 0), BuildingBlock: XIVTED_clean_linker_0, # of connection points: 2
#     Edge 66, Type (0, 0), BuildingBlock: XIVTED_clean_linker_0, # of connection points: 2
#     Edge 67, Type (0, 0), BuildingBlock: XIVTED_clean_linker_0, # of connection points: 2
#     Edge 68, Type (0, 0), BuildingBlock: XIVTED_clean_linker_0, # of connection points: 2
#     Edge 69, Type (0, 0), BuildingBlock: XIVTED_clean_linker_0, # of connection points: 2
#     Edge 70, Type (0, 0), BuildingBlock: XIVTED_clean_linker_0, # of connection points: 2
#     Edge 71, Type (0, 0), BuildingBlock: XIVTED_clean_linker_0, # of connection points: 2
#     Edge 72, Type (0, 0), BuildingBlock: XIVTED_clean_linker_0, # of connection points: 2
#     Edge 73, Type (0, 0), BuildingBlock: XIVTED_clean_linker_0, # of connection points: 2
#     Edge 74, Type (0, 0), BuildingBlock: XIVTED_clean_linker_0, # of connection points: 2
#     Edge 75, Type (0, 0), BuildingBlock: XIVTED_clean_linker_0, # of connection points: 2
#     Edge 76, Type (0, 0), BuildingBlock: XIVTED_clean_linker_0, # of connection points: 2
#     Edge 77, Type (0, 0), BuildingBlock: XIVTED_clean_linker_0, # of connection points: 2
#     Edge 78, Type (0, 0), BuildingBlock: XIVTED_clean_linker_0, # of connection points: 2
#     Edge 79, Type (0, 0), BuildingBlock: XIVTED_clean_linker_0, # of connection points: 2
#     Edge 80, Type (0, 0), BuildingBlock: XIVTED_clean_linker_0, # of connection points: 2
#     Edge 81, Type (0, 0), BuildingBlock: XIVTED_clean_linker_0, # of connection points: 2
#     Edge 82, Type (0, 0), BuildingBlock: XIVTED_clean_linker_0, # of connection points: 2
#     Edge 83, Type (0, 0), BuildingBlock: XIVTED_clean_linker_0, # of connection points: 2
#     Edge 84, Type (0, 0), BuildingBlock: XIVTED_clean_linker_0, # of connection points: 2
#     Edge 85, Type (0, 0), BuildingBlock: XIVTED_clean_linker_0, # of connection points: 2
#     Edge 86, Type (0, 0), BuildingBlock: XIVTED_clean_linker_0, # of connection points: 2
#     Edge 87, Type (0, 0), BuildingBlock: XIVTED_clean_linker_0, # of connection points: 2
#     Edge 88, Type (0, 0), BuildingBlock: XIVTED_clean_linker_0, # of connection points: 2
#     Edge 89, Type (0, 0), BuildingBlock: XIVTED_clean_linker_0, # of connection points: 2
#     Edge 90, Type (0, 0), BuildingBlock: XIVTED_clean_linker_0, # of connection points: 2
#     Edge 91, Type (0, 0), BuildingBlock: XIVTED_clean_linker_0, # of connection points: 2
#     Edge 92, Type (0, 0), BuildingBlock: XIVTED_clean_linker_0, # of connection points: 2
#     Edge 93, Type (0, 0), BuildingBlock: XIVTED_clean_linker_0, # of connection points: 2
#     Edge 94, Type (0, 0), BuildingBlock: XIVTED_clean_linker_0, # of connection points: 2
#     Edge 95, Type (0, 0), BuildingBlock: XIVTED_clean_linker_0, # of connection points: 2
# Relax obj value: 0.006
# Max RMSD: 0.172
# Mean RMSD: 0.172
data_MOF--net-ukj--node1-KOZSID_clean_sbu_0--edge1-XIVTED_clean_linker_0
_symmetry_space_group_name_H-M    P1
_symmetry_Int_Tables_number       1
_symmetry_cell_setting            triclinic
loop_
_symmetry_equiv_pos_as_xyz
'x, y, z'
_cell_length_a     45.161255
_cell_length_b     76.787863
_cell_length_c     62.054761
_cell_angle_alpha  90.017733
_cell_angle_beta   90.022899
_cell_angle_gamma 89.985612
loop_
_atom_site_label
_atom_site_type_symbol
_atom_site_fract_x
_atom_site_fract_y
_atom_site_fract_z
_atom_type_partial_charge
C0 C 0.179 0.36186 0.29085 0.0
C1 C 0.16617 0.37796 0.295 0.0
C2 C 0.15282 0.38318 0.27635 0.0
C3 C 0.15841 0.37013 0.26185 0.0
N4 N 0.17446 0.35692 0.27012 0.0
Co5 Co 0.188 0.33577 0.25429 0.0
N6 N 0.17876 0.34656 0.22571 0.0
C7 C 0.16369 0.36148 0.22247 0.0
C8 C 0.16115 0.36601 0.20121 0.0
C9 C 0.17483 0.35292 0.19016 0.0
C10 C 0.18485 0.34101 0.20539 0.0
N11 N 0.20068 0.31438 0.23842 0.0
C12 C 0.20178 0.311 0.2169 0.0
C13 C 0.20888 0.29371 0.21298 0.0
C14 C 0.21161 0.28585 0.23267 0.0
C15 C 0.20609 0.29873 0.24746 0.0
N16 N 0.19803 0.32545 0.28293 0.0
C17 C 0.20362 0.30853 0.28689 0.0
C18 C 0.21009 0.30524 0.30813 0.0
C19 C 0.20838 0.32109 0.31825 0.0
C20 C 0.20099 0.33318 0.30255 0.0
N21 N 0.14753 0.3256 0.25604 0.0
C22 C 0.09847 0.30271 0.25774 0.0
C23 C 0.11029 0.3101 0.27664 0.0
C24 C 0.13453 0.32166 0.27541 0.0
C25 C 0.10987 0.30854 0.23809 0.0
C26 C 0.13398 0.31991 0.23761 0.0
N27 N 0.2287 0.34526 0.25252 0.0
C28 C 0.28148 0.34088 0.2565 0.0
C29 C 0.28766 0.35792 0.24956 0.0
C30 C 0.26317 0.36851 0.24438 0.0
C31 C 0.23409 0.36203 0.24614 0.0
C32 C 0.25226 0.33483 0.25762 0.0
H33 H 0.21603 0.3706 0.24217 0.0
H34 H 0.24889 0.32161 0.26271 0.0
H35 H 0.14347 0.32673 0.29026 0.0
H36 H 0.14222 0.32335 0.22213 0.0
C37 C 0.15385 0.37144 0.23976 0.0
C38 C 0.19462 0.35156 0.30718 0.0
C39 C 0.19329 0.32314 0.19971 0.0
C40 C 0.20646 0.29673 0.26987 0.0
H41 H 0.16671 0.38536 0.30983 0.0
H42 H 0.14177 0.39547 0.27341 0.0
H43 H 0.15033 0.37737 0.19451 0.0
H44 H 0.17569 0.35177 0.1728 0.0
H45 H 0.21086 0.28736 0.19747 0.0
H46 H 0.2166 0.2723 0.23581 0.0
H47 H 0.21616 0.2929 0.3153 0.0
H48 H 0.21191 0.32347 0.33525 0.0
H49 H 0.10185 0.3064 0.29231 0.0
H50 H 0.10072 0.30401 0.22295 0.0
H51 H 0.29901 0.33212 0.26135 0.0
H52 H 0.26622 0.3817 0.23868 0.0
C53 C 0.10592 0.90457 0.29221 0.0
C54 C 0.12238 0.88984 0.29733 0.0
C55 C 0.1347 0.88406 0.27859 0.0
C56 C 0.12564 0.89572 0.26326 0.0
N57 N 0.1087 0.90875 0.27108 0.0
Co58 Co 0.09383 0.92934 0.25451 0.0
N59 N 0.10846 0.91946 0.22662 0.0
C60 C 0.12034 0.9035 0.22361 0.0
C61 C 0.1274 0.89997 0.20259 0.0
C62 C 0.11997 0.91467 0.19152 0.0
C63 C 0.1091 0.92644 0.20658 0.0
N64 N 0.08125 0.95059 0.23803 0.0
C65 C 0.08705 0.95534 0.21732 0.0
C66 C 0.07741 0.97214 0.21312 0.0
C67 C 0.06542 0.97831 0.23187 0.0
C68 C 0.06863 0.96501 0.24646 0.0
N69 N 0.07704 0.93836 0.28234 0.0
C70 C 0.06149 0.95327 0.28479 0.0
C71 C 0.04918 0.95511 0.30484 0.0
C72 C 0.05682 0.94031 0.31576 0.0
C73 C 0.07382 0.93033 0.30181 0.0
N74 N 0.13254 0.94151 0.25946 0.0
C75 C 0.18352 0.96325 0.25935 0.0
C76 C 0.15818 0.96768 0.27106 0.0
C77 C 0.13341 0.95673 0.27106 0.0
C78 C 0.18361 0.947 0.249 0.0
C79 C 0.15816 0.93636 0.24934 0.0
N80 N 0.05471 0.91773 0.2495 0.0
C81 C 1.00138 0.92035 0.24613 0.0
C82 C 0.99747 0.90234 0.2475 0.0
C83 C 0.02313 0.89204 0.24875 0.0
C84 C 0.05137 0.89993 0.24968 0.0
C85 C 0.02965 0.92765 0.24713 0.0
H86 H 0.07017 0.89146 0.25093 0.0
H87 H 0.03041 0.94148 0.24635 0.0
H88 H 0.1149 0.96124 0.28013 0.0
H89 H 0.1594 0.92426 0.24079 0.0
C90 C 0.12909 0.89348 0.24116 0.0
C91 C 0.08597 0.91315 0.30747 0.0
C92 C 0.10243 0.94456 0.20143 0.0
C93 C 0.05922 0.96531 0.26793 0.0
H94 H 0.12437 0.8835 0.31283 0.0
H95 H 0.1476 0.87232 0.27627 0.0
H96 H 0.13821 0.88847 0.19626 0.0
H97 H 0.12347 0.91679 0.17447 0.0
H98 H 0.0792 0.97926 0.19812 0.0
H99 H 0.0558 0.99103 0.2346 0.0
H100 H 0.03578 0.96579 0.31072 0.0
H101 H 0.05013 0.93717 0.33203 0.0
H102 H 0.15721 0.97974 0.28008 0.0
H103 H 0.20281 0.94274 0.23996 0.0
H104 H 0.98255 0.92897 0.2444 0.0
H105 H 0.02147 0.87799 0.24965 0.0
C106 C 0.1699 0.90552 0.96454 0.0
C107 C 0.15411 0.89036 0.96028 0.0
C108 C 0.14896 0.88251 0.97967 0.0
C109 C 0.16122 0.89343 0.99467 0.0
N110 N 0.17316 0.90794 0.98608 0.0
Co111 Co 0.19074 0.92774 1.00246 0.0
N112 N 0.17555 0.91852 0.03024 0.0
C113 C 0.16641 0.90213 0.03407 0.0
C114 C 0.15753 0.89951 0.05496 0.0
C115 C 0.16108 0.91527 0.06489 0.0
C116 C 0.17179 0.92667 0.04936 0.0
N117 N 0.20738 0.94764 0.01911 0.0
C118 C 0.19984 0.95362 0.03899 0.0
C119 C 0.21592 0.9684 0.04422 0.0
C120 C 0.23423 0.97169 0.02701 0.0
C121 C 0.22824 0.95881 0.01226 0.0
N122 N 0.20685 0.93663 0.97459 0.0
C123 C 0.228 0.94894 0.97274 0.0
C124 C 0.23728 0.95142 0.95194 0.0
C125 C 0.22156 0.93969 0.9399 0.0
C126 C 0.20333 0.93067 0.95405 0.0
N127 N 0.154 0.94146 0.99849 0.0
C128 C 0.1035 0.96342 0.99842 0.0
C129 C 0.13123 0.96944 0.99148 0.0
C130 C 0.15592 0.95837 0.99163 0.0
C131 C 0.10157 0.94583 0.00468 0.0
C132 C 0.1269 0.93509 0.00446 0.0
N133 N 0.22811 0.91455 0.00663 0.0
C134 C 0.27313 0.90991 0.02706 0.0
C135 C 0.28587 0.90055 0.00999 0.0
C136 C 0.26841 0.89761 0.99168 0.0
C137 C 0.23986 0.90475 0.99027 0.0
C138 C 0.24417 0.91649 0.02522 0.0
H139 H 0.22785 0.90274 0.97555 0.0
H140 H 0.23518 0.92362 0.03868 0.0
H141 H 0.17687 0.96383 0.98693 0.0
H142 H 0.12465 0.92177 0.0097 0.0
C143 C 0.16013 0.89102 0.01693 0.0
C144 C 0.18607 0.91517 0.94778 0.0
C145 C 0.17854 0.94502 0.0534 0.0
C146 C 0.23749 0.95848 0.99074 0.0
H147 H 0.14831 0.88505 0.94469 0.0
H148 H 0.13767 0.87029 0.98246 0.0
H149 H 0.14789 0.88785 0.06181 0.0
H150 H 0.15586 0.91811 0.08155 0.0
H151 H 0.21445 0.97605 0.05883 0.0
H152 H 0.24906 0.98265 0.0251 0.0
H153 H 0.25377 0.96054 0.94621 0.0
H154 H 0.22414 0.9376 0.92277 0.0
H155 H 0.13429 0.98288 0.98671 0.0
H156 H 0.08065 0.94035 0.00984 0.0
H157 H 0.28551 0.91222 0.04174 0.0
H158 H 0.27717 0.89041 0.97808 0.0
C159 C 0.11123 0.36207 0.96735 0.0
C160 C 0.12423 0.37815 0.96332 0.0
C161 C 0.13705 0.38341 0.98214 0.0
C162 C 0.13105 0.37039 0.99659 0.0
N163 N 0.11522 0.35716 0.98813 0.0
Co164 Co 0.10155 0.33595 0.00379 0.0
N165 N 0.11024 0.34672 0.03247 0.0
C166 C 0.12477 0.3618 0.03589 0.0
C167 C 0.12688 0.36631 0.05718 0.0
C168 C 0.11345 0.35305 0.06807 0.0
C169 C 0.10403 0.34108 0.05271 0.0
N170 N 0.08903 0.31445 0.0195 0.0
C171 C 0.08791 0.31097 0.04099 0.0
C172 C 0.08107 0.29364 0.04479 0.0
C173 C 0.0785 0.28584 0.02505 0.0
C174 C 0.0839 0.2988 0.01035 0.0
N175 N 0.09176 0.3257 0.97504 0.0
C176 C 0.08597 0.30882 0.971 0.0
C177 C 0.07969 0.30559 0.94972 0.0
C178 C 0.08174 0.32144 0.93965 0.0
C179 C 0.08916 0.33347 0.95542 0.0
N180 N 0.14213 0.32589 1.0022 0.0
C181 C 0.19167 0.30326 1.00062 0.0
C182 C 0.17937 0.31029 0.98169 0.0
C183 C 0.15507 0.3218 0.98285 0.0
C184 C 0.18013 0.3091 0.02025 0.0
C185 C 0.15581 0.32036 0.02065 0.0
N186 N 0.06073 0.34533 0.0053 0.0
C187 C 1.00798 0.34049 1.00198 0.0
C188 C 1.00174 0.35804 0.00641 0.0
C189 C 0.02601 0.36904 0.01057 0.0
C190 C 0.05516 0.36247 0.00994 0.0
C191 C 0.03726 0.3345 1.00141 0.0
H192 H 0.07314 0.37133 0.01308 0.0
H193 H 0.04073 0.32099 0.99771 0.0
H194 H 0.14613 0.32677 0.96796 0.0
H195 H 0.14741 0.32379 0.03611 0.0
C196 C 0.13493 0.37178 0.01873 0.0
C197 C 0.09595 0.35181 0.95085 0.0
C198 C 0.09604 0.32311 0.05827 0.0
C199 C 0.08333 0.29693 0.98793 0.0
H200 H 0.12413 0.38549 0.94844 0.0
H201 H 0.14802 0.3957 0.98521 0.0
H202 H 0.13733 0.37773 0.064 0.0
H203 H 0.1124 0.35185 0.08542 0.0
H204 H 0.07909 0.28723 0.06025 0.0
H205 H 0.07364 0.27228 0.02181 0.0
H206 H 0.07366 0.29328 0.94246 0.0
H207 H 0.0785 0.32386 0.92263 0.0
H208 H 0.18808 0.30671 0.96605 0.0
H209 H 0.18872 0.30431 0.03542 0.0
H210 H 0.99034 0.33124 0.9991 0.0
H211 H 0.02268 0.38274 0.01391 0.0
C212 C 0.83497 0.67448 0.70446 0.0
C213 C 0.82439 0.68667 0.68985 0.0
C214 C 0.82279 0.70224 0.70061 0.0
C215 C 0.83203 0.69871 0.72123 0.0
N216 N 0.83929 0.68189 0.72417 0.0
Co217 Co 0.85065 0.67084 0.75211 0.0
N218 N 0.83729 0.6914 0.76926 0.0
C219 C 0.83119 0.70729 0.76114 0.0
C220 C 0.82544 0.71954 0.77669 0.0
C221 C 0.82882 0.711 0.79589 0.0
C222 C 0.83645 0.69396 0.79094 0.0
N223 N 0.86083 0.65914 0.7799 0.0
C224 C 0.85461 0.66374 0.80054 0.0
C225 C 0.86551 0.65146 0.81497 0.0
C226 C 0.88 0.63916 0.80307 0.0
C227 C 0.87696 0.64448 0.78212 0.0
N228 N 0.86533 0.6507 0.73504 0.0
C229 C 0.88375 0.63817 0.74218 0.0
C230 C 0.89192 0.62656 0.7265 0.0
C231 C 0.87764 0.63201 0.7083 0.0
C232 C 0.86117 0.64659 0.71404 0.0
N233 N 0.8905 0.68185 0.75061 0.0
C234 C 0.93873 0.70539 0.75013 0.0
C235 C 0.92822 0.69826 0.76939 0.0
C236 C 0.9045 0.68661 0.76926 0.0
C237 C 0.92643 0.69904 0.73083 0.0
C238 C 0.90261 0.68714 0.73142 0.0
N239 N 0.81056 0.66054 0.75365 0.0
C240 C 0.77734 0.63604 0.75826 0.0
C241 C 0.75237 0.64679 0.75542 0.0
C242 C 0.75752 0.66457 0.75189 0.0
C243 C 0.7864 0.67108 0.75099 0.0
C244 C 0.80613 0.64314 0.75731 0.0
H245 H 0.78897 0.68478 0.74807 0.0
H246 H 0.82476 0.63453 0.75944 0.0
H247 H 0.89695 0.68216 0.78454 0.0
H248 H 0.8933 0.68288 0.71631 0.0
C249 C 0.82954 0.70995 0.73887 0.0
C250 C 0.8422 0.65625 0.69903 0.0
C251 C 0.84557 0.68127 0.80732 0.0
C252 C 0.8883 0.63585 0.76418 0.0
H253 H 0.81817 0.6846 0.67323 0.0
H254 H 0.8145 0.71447 0.6944 0.0
H255 H 0.81971 0.7331 0.77436 0.0
H256 H 0.82681 0.71674 0.81176 0.0
H257 H 0.86488 0.65196 0.83239 0.0
H258 H 0.8919 0.62791 0.80903 0.0
H259 H 0.90553 0.61504 0.72828 0.0
H260 H 0.87901 0.62582 0.69267 0.0
H261 H 0.93777 0.70198 0.78473 0.0
H262 H 0.93417 0.70377 0.7154 0.0
H263 H 0.77479 0.62218 0.76087 0.0
H264 H 0.7393 0.67362 0.75006 0.0
C265 C 0.9498 0.0783 0.70698 0.0
C266 C 0.96774 0.06933 0.69258 0.0
C267 C 0.98446 0.05795 0.70447 0.0
C268 C 0.97602 0.06058 0.72545 0.0
N269 N 0.95449 0.07265 0.72753 0.0
Co270 Co 0.93923 0.08165 0.7556 0.0
N271 N 0.95697 0.06206 0.77216 0.0
C272 C 0.97811 0.05114 0.76513 0.0
C273 C 0.98507 0.0385 0.78 0.0
C274 C 0.96709 0.0417 0.79744 0.0
C275 C 0.95017 0.05614 0.79219 0.0
N276 N 0.92468 0.09092 0.78357 0.0
C277 C 0.9214 0.08276 0.80272 0.0
C278 C 0.91036 0.09403 0.81828 0.0
C279 C 0.90632 0.10976 0.80836 0.0
C280 C 0.91513 0.10722 0.78743 0.0
N281 N 0.92069 0.10121 0.73937 0.0
C282 C 0.90882 0.11572 0.74806 0.0
C283 C 0.89572 0.12642 0.7332 0.0
C284 C 0.90019 0.11843 0.71381 0.0
C285 C 0.91647 0.10342 0.71789 0.0
N286 N 0.90274 0.0676 0.75238 0.0
C287 C 0.85273 0.04529 0.75256 0.0
C288 C 0.85036 0.06295 0.75851 0.0
C289 C 0.87551 0.07384 0.75827 0.0
C290 C 0.8806 0.03941 0.74575 0.0
C291 C 0.90503 0.05064 0.74578 0.0
N292 N 0.97643 0.09512 0.7589 0.0
C293 C 0.01676 0.11094 0.74233 0.0
C294 C 0.03461 0.10895 0.76071 0.0
C295 C 0.0218 0.10063 0.77863 0.0
C296 C 0.9928 0.09396 0.77745 0.0
C297 C 0.98798 0.10412 0.74182 0.0
H298 H 0.984 0.08735 0.79139 0.0
H299 H 0.97564 0.10562 0.72716 0.0
H300 H 0.87304 0.08717 0.76342 0.0
H301 H 0.92604 0.04531 0.74099 0.0
C302 C 0.98658 0.05137 0.74342 0.0
C303 C 0.93182 0.09358 0.70088 0.0
C304 C 0.9288 0.06451 0.80672 0.0
C305 C 0.90823 0.11821 0.77031 0.0
H306 H 0.96949 0.07124 0.67536 0.0
H307 H 1.00103 0.04897 0.69852 0.0
H308 H 1.00034 0.02776 0.77803 0.0
H309 H 0.96637 0.03426 0.81224 0.0
H310 H 0.90519 0.0911 0.83491 0.0
H311 H 0.8963 0.1213 0.81523 0.0
H312 H 0.88418 0.13856 0.73611 0.0
H313 H 0.89346 0.12353 0.6983 0.0
H314 H 0.82945 0.06824 0.76394 0.0
H315 H 0.88375 0.0261 0.74045 0.0
H316 H 0.02524 0.11715 0.72795 0.0
H317 H 0.03413 0.09911 0.79347 0.0
C318 C 0.83318 0.07889 0.05439 0.0
C319 C 0.81725 0.06909 0.06919 0.0
C320 C 0.80065 0.05745 0.05758 0.0
C321 C 0.8074 0.06066 0.03638 0.0
N322 N 0.82771 0.07337 0.03392 0.0
Co323 Co 0.84194 0.08249 0.00571 0.0
N324 N 0.82596 0.06221 0.98954 0.0
C325 C 0.80578 0.05079 0.99684 0.0
C326 C 0.80003 0.0377 0.9823 0.0
C327 C 0.81775 0.04115 0.9648 0.0
C328 C 0.83329 0.05622 0.96962 0.0
N329 N 0.85559 0.09181 0.9776 0.0
C330 C 0.85988 0.08352 0.95862 0.0
C331 C 0.86913 0.09507 0.94277 0.0
C332 C 0.87096 0.11111 0.95232 0.0
C333 C 0.86262 0.10847 0.97333 0.0
N334 N 0.85834 0.10291 0.02155 0.0
C335 C 0.86636 0.11816 0.01249 0.0
C336 C 0.87552 0.13036 0.02714 0.0
C337 C 0.87262 0.1225 0.04676 0.0
C338 C 0.86177 0.10581 0.04301 0.0
N339 N 0.87967 0.06967 0.00912 0.0
C340 C 0.9314 0.04875 0.00878 0.0
C341 C 0.9322 0.06635 1.00235 0.0
C342 C 0.90623 0.07658 1.0028 0.0
C343 C 0.90415 0.04219 0.01594 0.0
C344 C 0.87888 0.05274 0.01599 0.0
N345 N 0.80359 0.09475 1.0022 0.0
C346 C 0.76204 0.10988 0.0182 0.0
C347 C 0.74514 0.10808 0.99931 0.0
C348 C 0.75888 0.09998 0.98159 0.0
C349 C 0.78795 0.09351 0.98333 0.0
C350 C 0.79095 0.10329 0.01925 0.0
H351 H 0.79751 0.08709 0.96951 0.0
H352 H 0.80262 0.10467 0.03425 0.0
H353 H 0.90748 0.08995 0.9975 0.0
H354 H 0.85838 0.04684 0.0209 0.0
C355 C 0.79745 0.05097 0.0186 0.0
C356 C 0.85073 0.0944 0.06029 0.0
C357 C 0.85401 0.065 0.95487 0.0
C358 C 0.86682 0.12023 0.99015 0.0
H359 H 0.81708 0.0705 0.08654 0.0
H360 H 0.78566 0.04771 0.06387 0.0
H361 H 0.78586 0.02649 0.98457 0.0
H362 H 0.81926 0.03336 0.9503 0.0
H363 H 0.87416 0.09222 0.92609 0.0
H364 H 0.87885 0.12306 0.94507 0.0
H365 H 0.8832 0.14346 0.02395 0.0
H366 H 0.87675 0.12875 0.06208 0.0
H367 H 0.9527 0.07219 0.99694 0.0
H368 H 0.90192 0.02871 0.02078 0.0
H369 H 0.75275 0.11582 0.03249 0.0
H370 H 0.74727 0.09854 0.96643 0.0
C371 C 0.94922 0.67527 0.05398 0.0
C372 C 0.9598 0.68744 0.06861 0.0
C373 C 0.961 0.70308 0.05795 0.0
C374 C 0.95153 0.6996 0.03737 0.0
N375 N 0.94449 0.68275 0.03437 0.0
Co376 Co 0.93282 0.67179 0.00646 0.0
N377 N 0.94593 0.69239 0.98932 0.0
C378 C 0.95193 0.70828 0.99747 0.0
C379 C 0.95756 0.72055 0.98194 0.0
C380 C 0.95421 0.71201 0.96272 0.0
C381 C 0.94672 0.69495 0.96764 0.0
N382 N 0.92215 0.66019 0.97871 0.0
C383 C 0.92823 0.66479 0.95806 0.0
C384 C 0.91702 0.65257 0.94366 0.0
C385 C 0.9025 0.64033 0.95561 0.0
C386 C 0.90582 0.64561 0.97655 0.0
N387 N 0.91847 0.65158 0.02352 0.0
C388 C 0.89985 0.63911 0.0165 0.0
C389 C 0.89201 0.62743 0.03217 0.0
C390 C 0.90673 0.63277 0.05024 0.0
C391 C 0.92311 0.64737 0.04443 0.0
N392 N 0.89301 0.68276 0.00837 0.0
C393 C 0.8445 0.70611 0.00984 0.0
C394 C 0.85536 0.69973 0.99026 0.0
C395 C 0.87919 0.68814 0.98992 0.0
C396 C 0.85676 0.69918 0.02885 0.0
C397 C 0.88076 0.68742 0.02776 0.0
N398 N 0.97295 0.66154 0.00456 0.0
C399 C 1.00635 0.63713 0.99967 0.0
C400 C 0.03126 0.64792 1.00261 0.0
C401 C 0.02596 0.66568 0.00624 0.0
C402 C 0.99704 0.67212 0.00723 0.0
C403 C 0.97749 0.64417 1.00073 0.0
H404 H 0.99438 0.68579 0.01027 0.0
H405 H 0.95889 0.63553 0.99856 0.0
H406 H 0.88705 0.68423 0.97449 0.0
H407 H 0.89012 0.68274 0.04267 0.0
C408 C 0.95371 0.7109 0.01977 0.0
C409 C 0.94236 0.65697 0.05929 0.0
C410 C 0.9376 0.68225 0.95125 0.0
C411 C 0.89479 0.63692 0.99454 0.0
H412 H 0.96629 0.68533 0.08517 0.0
H413 H 0.96922 0.71532 0.06419 0.0
H414 H 0.96322 0.73412 0.98428 0.0
H415 H 0.95616 0.71777 0.94686 0.0
H416 H 0.91753 0.65306 0.92624 0.0
H417 H 0.89046 0.62911 0.9497 0.0
H418 H 0.87833 0.61594 0.03046 0.0
H419 H 0.9057 0.62651 0.06583 0.0
H420 H 0.84594 0.70396 0.97508 0.0
H421 H 0.84882 0.70335 0.04448 0.0
H422 H 1.00902 0.6233 0.99694 0.0
H423 H 0.04411 0.67476 0.00814 0.0
C424 C 0.17135 0.85971 0.79236 0.0
C425 C 0.15461 0.87424 0.79785 0.0
C426 C 0.14024 0.87941 0.77956 0.0
C427 C 0.14867 0.86769 0.76406 0.0
N428 N 0.16734 0.85538 0.77141 0.0
Co429 Co 0.18274 0.83527 0.75468 0.0
N430 N 0.17287 0.84678 0.72674 0.0
C431 C 0.15593 0.8611 0.72426 0.0
C432 C 0.15321 0.86635 0.70326 0.0
C433 C 0.16877 0.85436 0.69162 0.0
C434 C 0.17999 0.8423 0.70623 0.0
N435 N 0.1972 0.81483 0.73787 0.0
C436 C 0.19921 0.81233 0.71622 0.0
C437 C 0.20749 0.79537 0.71145 0.0
C438 C 0.21007 0.78681 0.73072 0.0
C439 C 0.20326 0.79898 0.74614 0.0
N440 N 0.19326 0.82435 0.78286 0.0
C441 C 0.20013 0.80749 0.78604 0.0
C442 C 0.20868 0.80406 0.80685 0.0
C443 C 0.20701 0.81971 0.81744 0.0
C444 C 0.19713 0.83187 0.80254 0.0
N445 N 0.14312 0.82401 0.75558 0.0
C446 C 0.0949 0.80045 0.75585 0.0
C447 C 0.10604 0.80754 0.77515 0.0
C448 C 0.12989 0.81942 0.77464 0.0
C449 C 0.10671 0.80678 0.73655 0.0
C450 C 0.13046 0.8184 0.73678 0.0
N451 N 0.22271 0.8458 0.75364 0.0
C452 C 0.27567 0.84221 0.75732 0.0
C453 C 0.28103 0.85947 0.75092 0.0
C454 C 0.256 0.86984 0.74637 0.0
C455 C 0.22719 0.86283 0.74799 0.0
C456 C 0.2468 0.83567 0.75829 0.0
H457 H 0.20858 0.87116 0.74443 0.0
H458 H 0.24418 0.82227 0.76282 0.0
H459 H 0.13838 0.82425 0.78976 0.0
H460 H 0.1392 0.82208 0.7215 0.0
C461 C 0.14409 0.86973 0.74202 0.0
C462 C 0.19023 0.85021 0.80756 0.0
C463 C 0.19052 0.82499 0.69965 0.0
C464 C 0.20365 0.79628 0.76846 0.0
H465 H 0.1531 0.88057 0.8134 0.0
H466 H 0.1264 0.89081 0.77758 0.0
H467 H 0.14097 0.87741 0.69712 0.0
H468 H 0.17 0.85394 0.67422 0.0
H469 H 0.21042 0.78967 0.69564 0.0
H470 H 0.21595 0.77329 0.73317 0.0
H471 H 0.21674 0.79184 0.81328 0.0
H472 H 0.21283 0.82186 0.83413 0.0
H473 H 0.09736 0.8034 0.79058 0.0
H474 H 0.0982 0.80245 0.72113 0.0
H475 H 0.29361 0.8336 0.76179 0.0
H476 H 0.25845 0.88322 0.74122 0.0
C477 C 0.11141 0.40414 0.79203 0.0
C478 C 0.12263 0.38755 0.79595 0.0
C479 C 0.12597 0.37962 0.7764 0.0
C480 C 0.11669 0.39167 0.76163 0.0
N481 N 0.1082 0.40691 0.77053 0.0
Co482 Co 0.09144 0.42709 0.75448 0.0
N483 N 0.10561 0.41772 0.72654 0.0
C484 C 0.11308 0.40111 0.72239 0.0
C485 C 0.1219 0.39851 0.70147 0.0
C486 C 0.11994 0.41453 0.69188 0.0
C487 C 0.1101 0.42602 0.70762 0.0
N488 N 0.07513 0.44715 0.73807 0.0
C489 C 0.08273 0.45312 0.71823 0.0
C490 C 0.06688 0.46801 0.7131 0.0
C491 C 0.04871 0.47138 0.73039 0.0
C492 C 0.05452 0.45842 0.74509 0.0
N493 N 0.07668 0.43629 0.78249 0.0
C494 C 0.05607 0.44888 0.78473 0.0
C495 C 0.04912 0.45221 0.80586 0.0
C496 C 0.06588 0.44077 0.81766 0.0
C497 C 0.08208 0.43095 0.80303 0.0
N498 N 0.12879 0.44022 0.75802 0.0
C499 C 0.18016 0.46139 0.75819 0.0
C500 C 0.15266 0.46785 0.76496 0.0
C501 C 0.12755 0.45719 0.76475 0.0
C502 C 0.1814 0.44377 0.75188 0.0
C503 C 0.15559 0.43341 0.75207 0.0
N504 N 0.05349 0.41449 0.75088 0.0
C505 C 1.00917 0.40858 0.73014 0.0
C506 C 0.99567 0.40038 0.74787 0.0
C507 C 1.01245 0.39893 0.76684 0.0
C508 C 0.04105 0.4059 0.76796 0.0
C509 C 0.03797 0.41545 0.73195 0.0
H510 H 0.05262 0.40475 0.78302 0.0
H511 H 0.0474 0.42192 0.71812 0.0
H512 H 0.10684 0.463 0.76935 0.0
H513 H 0.15718 0.42002 0.7469 0.0
C514 C 0.1174 0.38947 0.7393 0.0
C515 C 0.09963 0.4155 0.80914 0.0
C516 C 0.10413 0.4445 0.70389 0.0
C517 C 0.04599 0.45834 0.76681 0.0
H518 H 0.12668 0.38137 0.81131 0.0
H519 H 0.13397 0.36656 0.77336 0.0
H520 H 0.13028 0.38662 0.69434 0.0
H521 H 0.12536 0.41744 0.67528 0.0
H522 H 0.06851 0.47572 0.69855 0.0
H523 H 0.03424 0.4825 0.73244 0.0
H524 H 0.03388 0.46189 0.812 0.0
H525 H 0.06558 0.43947 0.83502 0.0
H526 H 0.15013 0.48135 0.76968 0.0
H527 H 0.20211 0.438 0.74677 0.0
H528 H 0.9976 0.40978 0.71493 0.0
H529 H 1.00329 0.39296 0.78116 0.0
C530 C 0.17784 0.40287 0.46743 0.0
C531 C 0.16509 0.38667 0.46365 0.0
C532 C 0.15557 0.38057 0.48305 0.0
C533 C 0.16301 0.39326 0.49755 0.0
N534 N 0.17669 0.40716 0.48864 0.0
Co535 Co 0.19119 0.42835 0.50437 0.0
N536 N 0.1777 0.41892 0.53276 0.0
C537 C 0.16806 0.40261 0.53671 0.0
C538 C 0.16098 0.39967 0.55787 0.0
C539 C 0.16603 0.41514 0.568 0.0
C540 C 0.17572 0.42669 0.5523 0.0
N541 N 0.20318 0.45014 0.52002 0.0
C542 C 0.19654 0.45553 0.54035 0.0
C543 C 0.20624 0.47239 0.54404 0.0
C544 C 0.21916 0.47793 0.5253 0.0
C545 C 0.2164 0.46423 0.51124 0.0
N546 N 0.20662 0.43714 0.47609 0.0
C547 C 0.22261 0.45182 0.47314 0.0
C548 C 0.23204 0.45404 0.45232 0.0
C549 C 0.22188 0.43978 0.44139 0.0
C550 C 0.20674 0.42961 0.45622 0.0
N551 N 0.15195 0.43977 0.49962 0.0
C552 C 0.09909 0.45994 0.49888 0.0
C553 C 0.12482 0.46547 0.48833 0.0
C554 C 0.15052 0.45531 0.4888 0.0
C555 C 0.10009 0.44357 0.50901 0.0
C556 C 0.12644 0.43367 0.50899 0.0
N557 N 0.23123 0.41737 0.50917 0.0
C558 C 0.28443 0.42084 0.51356 0.0
C559 C 0.28951 0.40306 0.51061 0.0
C560 C 0.26456 0.39238 0.50808 0.0
C561 C 0.23591 0.39971 0.50742 0.0
C562 C 0.25566 0.42759 0.51294 0.0
H563 H 0.21803 0.39079 0.50515 0.0
H564 H 0.25417 0.44128 0.51532 0.0
H565 H 0.16938 0.46071 0.4809 0.0
H566 H 0.12607 0.42129 0.51705 0.0
C567 C 0.16085 0.39155 0.5198 0.0
C568 C 0.19267 0.41299 0.45061 0.0
C569 C 0.18064 0.44516 0.55638 0.0
C570 C 0.2259 0.46398 0.48979 0.0
H571 H 0.16378 0.37959 0.44861 0.0
H572 H 0.1456 0.36802 0.48633 0.0
H573 H 0.15158 0.38799 0.56485 0.0
H574 H 0.1619 0.41782 0.58486 0.0
H575 H 0.20389 0.47993 0.55868 0.0
H576 H 0.22891 0.49056 0.52219 0.0
H577 H 0.2444 0.46489 0.44577 0.0
H578 H 0.22511 0.43719 0.42441 0.0
H579 H 0.12569 0.47799 0.48037 0.0
H580 H 0.08069 0.4384 0.51703 0.0
H581 H 0.3027 0.42969 0.51634 0.0
H582 H 0.2671 0.37846 0.50593 0.0
C583 C 0.10602 0.85795 0.46052 0.0
C584 C 0.12197 0.87238 0.45361 0.0
C585 C 0.13735 0.87837 0.47107 0.0
C586 C 0.13027 0.8672 0.4875 0.0
N587 N 0.11155 0.85443 0.48151 0.0
Co588 Co 0.09775 0.83485 0.49987 0.0
N589 N 0.10964 0.84736 0.52674 0.0
C590 C 0.12554 0.86218 0.52784 0.0
C591 C 0.12864 0.86849 0.54838 0.0
C592 C 0.11451 0.85666 0.56119 0.0
C593 C 0.104 0.84359 0.54769 0.0
N594 N 0.0849 0.81499 0.51845 0.0
C595 C 0.08527 0.81313 0.54031 0.0
C596 C 0.07785 0.79626 0.54622 0.0
C597 C 0.07327 0.78716 0.52753 0.0
C598 C 0.07822 0.79889 0.51125 0.0
N599 N 0.08519 0.82294 0.47277 0.0
C600 C 0.07828 0.80598 0.47079 0.0
C601 C 0.06835 0.80178 0.45052 0.0
C602 C 0.06913 0.81704 0.43901 0.0
C603 C 0.07982 0.82975 0.45288 0.0
N604 N 0.13735 0.82362 0.4977 0.0
C605 C 0.18541 0.79992 0.49626 0.0
C606 C 0.17318 0.80686 0.47721 0.0
C607 C 0.14937 0.81879 0.4783 0.0
C608 C 0.17471 0.80644 0.5158 0.0
C609 C 0.15105 0.81812 0.51611 0.0
N610 N 0.05771 0.84529 0.50201 0.0
C611 C 1.00464 0.84127 0.50034 0.0
C612 C 0.99929 0.85874 0.50582 0.0
C613 C 0.02437 0.86943 0.50887 0.0
C614 C 0.05323 0.86251 0.50673 0.0
C615 C 0.03354 0.83486 0.49885 0.0
H616 H 0.07185 0.87109 0.50908 0.0
H617 H 0.0361 0.82131 0.49507 0.0
H618 H 0.13988 0.82342 0.4634 0.0
H619 H 0.14296 0.82188 0.53144 0.0
C620 C 0.1359 0.87027 0.50922 0.0
C621 C 0.086 0.84793 0.44667 0.0
C622 C 0.09636 0.82619 0.55572 0.0
C623 C 0.07615 0.79543 0.48911 0.0
H624 H 0.12216 0.87816 0.43771 0.0
H625 H 0.15086 0.89 0.47192 0.0
H626 H 0.14019 0.88013 0.55347 0.0
H627 H 0.114 0.85687 0.57863 0.0
H628 H 0.07697 0.79092 0.56233 0.0
H629 H 0.06759 0.77352 0.526 0.0
H630 H 0.06003 0.78932 0.44505 0.0
H631 H 0.06225 0.81859 0.42244 0.0
H632 H 0.18093 0.80254 0.4616 0.0
H633 H 0.184 0.8022 0.53101 0.0
H634 H 0.98666 0.83238 0.49698 0.0
H635 H 0.02194 0.88299 0.51321 0.0
C636 C 0.8426 0.1757 0.20716 0.0
C637 C 0.83585 0.18744 0.1909 0.0
C638 C 0.83318 0.20346 0.2005 0.0
C639 C 0.83847 0.20063 0.22202 0.0
N640 N 0.84423 0.18385 0.22662 0.0
Co641 Co 0.85269 0.17417 0.25584 0.0
N642 N 0.83799 0.19558 0.27066 0.0
C643 C 0.8331 0.21107 0.26107 0.0
C644 C 0.82548 0.22401 0.27528 0.0
C645 C 0.82623 0.21634 0.29519 0.0
C646 C 0.83433 0.1991 0.29199 0.0
N647 N 0.86042 0.164 0.28495 0.0
C648 C 0.85237 0.16964 0.30486 0.0
C649 C 0.86223 0.15823 0.32073 0.0
C650 C 0.87765 0.14536 0.31052 0.0
C651 C 0.87627 0.14951 0.28908 0.0
N652 N 0.86827 0.15302 0.24101 0.0
C653 C 0.88463 0.14033 0.25013 0.0
C654 C 0.89168 0.12711 0.2362 0.0
C655 C 0.87902 0.13168 0.21704 0.0
C656 C 0.8651 0.1476 0.22031 0.0
N657 N 0.89269 0.18491 0.2554 0.0
C658 C 0.94178 0.20783 0.25457 0.0
C659 C 0.92826 0.20305 0.27397 0.0
C660 C 0.90409 0.19173 0.27402 0.0
C661 C 0.93179 0.19952 0.23568 0.0
C662 C 0.90749 0.18798 0.23649 0.0
N663 N 0.81241 0.16412 0.25636 0.0
C664 C 0.77847 0.14021 0.26245 0.0
C665 C 0.75395 0.15079 0.25743 0.0
C666 C 0.75969 0.16819 0.25194 0.0
C667 C 0.78874 0.17449 0.25139 0.0
C668 C 0.80738 0.1471 0.26183 0.0
H669 H 0.79187 0.18789 0.24699 0.0
H670 H 0.82562 0.13862 0.26577 0.0
H671 H 0.89396 0.18928 0.28926 0.0
H672 H 0.89992 0.18221 0.22162 0.0
C673 C 0.8343 0.21271 0.23861 0.0
C674 C 0.84973 0.15728 0.20327 0.0
C675 C 0.84136 0.18719 0.30979 0.0
C676 C 0.88786 0.13951 0.27239 0.0
H677 H 0.83339 0.18471 0.17388 0.0
H678 H 0.82723 0.2156 0.19279 0.0
H679 H 0.82018 0.23743 0.27164 0.0
H680 H 0.82221 0.2228 0.31042 0.0
H681 H 0.85991 0.15955 0.338 0.0
H682 H 0.88872 0.13436 0.31787 0.0
H683 H 0.90319 0.11509 0.23985 0.0
H684 H 0.87963 0.12397 0.20246 0.0
H685 H 0.93576 0.20837 0.28919 0.0
H686 H 0.94174 0.20244 0.22023 0.0
H687 H 0.7755 0.12663 0.26659 0.0
H688 H 0.74182 0.17712 0.24834 0.0
C689 C 0.95815 0.57602 0.20566 0.0
C690 C 0.97668 0.56684 0.19187 0.0
C691 C 0.99288 0.55565 0.20438 0.0
C692 C 0.98356 0.55859 0.2251 0.0
N693 N 0.96193 0.57067 0.22643 0.0
Co694 Co 0.94556 0.58013 0.25393 0.0
N695 N 0.96276 0.56087 0.27135 0.0
C696 C 0.98415 0.54984 0.26504 0.0
C697 C 0.99048 0.53743 0.28035 0.0
C698 C 0.97179 0.54089 0.29731 0.0
C699 C 0.95512 0.55525 0.29135 0.0
N700 N 0.92998 0.58987 0.28135 0.0
C701 C 0.92599 0.58202 0.30063 0.0
C702 C 0.91435 0.59352 0.31568 0.0
C703 C 0.91059 0.60908 0.30527 0.0
C704 C 0.92019 0.60621 0.28459 0.0
N705 N 0.92743 0.59933 0.23682 0.0
C706 C 0.91503 0.61392 0.24487 0.0
C707 C 0.90239 0.6243 0.22946 0.0
C708 C 0.90777 0.61601 0.21038 0.0
C709 C 0.92405 0.60114 0.21521 0.0
N710 N 0.90926 0.56595 0.25038 0.0
C711 C 0.85921 0.54368 0.24941 0.0
C712 C 0.85669 0.56127 0.25558 0.0
C713 C 0.88182 0.57217 0.2558 0.0
C714 C 0.88736 0.53775 0.24332 0.0
C715 C 0.91181 0.54895 0.24395 0.0
N716 N 0.98257 0.59377 0.25754 0.0
C717 C 0.02294 0.60973 0.24121 0.0
C718 C 0.04047 0.60799 0.25978 0.0
C719 C 0.0275 0.59968 0.27765 0.0
C720 C 0.99861 0.59283 0.27626 0.0
C721 C 0.99433 0.60271 0.24048 0.0
H722 H 0.98963 0.58629 0.29019 0.0
H723 H 0.98231 0.60402 0.22566 0.0
H724 H 0.87912 0.58553 0.26077 0.0
H725 H 0.93304 0.54358 0.23979 0.0
C726 C 0.99344 0.5497 0.24351 0.0
C727 C 0.94051 0.59123 0.19882 0.0
C728 C 0.9331 0.56382 0.30517 0.0
C729 C 0.91369 0.61684 0.26704 0.0
H730 H 0.97916 0.5685 0.17466 0.0
H731 H 1.0097 0.5466 0.19902 0.0
H732 H 1.00579 0.52664 0.27895 0.0
H733 H 0.97043 0.53366 0.31224 0.0
H734 H 0.90852 0.59084 0.33226 0.0
H735 H 0.90021 0.6207 0.31164 0.0
H736 H 0.89066 0.63645 0.23179 0.0
H737 H 0.90176 0.62084 0.19459 0.0
H738 H 0.83544 0.56663 0.26019 0.0
H739 H 0.89084 0.5243 0.23874 0.0
H740 H 0.03157 0.6159 0.22684 0.0
H741 H 0.03962 0.59833 0.29261 0.0
C742 C 0.8272 0.57677 0.55145 0.0
C743 C 0.80882 0.56759 0.56534 0.0
C744 C 0.79271 0.55629 0.55294 0.0
C745 C 0.80192 0.55917 0.53219 0.0
N746 N 0.82338 0.57133 0.53073 0.0
Co747 Co 0.83969 0.58063 0.50312 0.0
N748 N 0.82278 0.56115 0.4859 0.0
C749 C 0.8016 0.55005 0.49239 0.0
C750 C 0.79546 0.53745 0.4773 0.0
C751 C 0.814 0.54086 0.46026 0.0
C752 C 0.83037 0.55544 0.4659 0.0
N753 N 0.85523 0.5902 0.47561 0.0
C754 C 0.85916 0.5823 0.45634 0.0
C755 C 0.87023 0.59387 0.44114 0.0
C756 C 0.87381 0.60948 0.45145 0.0
C757 C 0.8646 0.60661 0.47221 0.0
N758 N 0.85743 0.60006 0.52005 0.0
C759 C 0.86949 0.61468 0.51184 0.0
C760 C 0.88184 0.6253 0.52714 0.0
C761 C 0.87665 0.61711 0.54631 0.0
C762 C 0.86073 0.60208 0.54164 0.0
N763 N 0.87616 0.56667 0.50691 0.0
C764 C 0.92644 0.54465 0.5079 0.0
C765 C 0.9287 0.56216 0.50143 0.0
C766 C 0.90344 0.57296 0.50125 0.0
C767 C 0.89851 0.53867 0.51437 0.0
C768 C 0.87389 0.54975 0.51368 0.0
N769 N 0.80256 0.59407 0.49926 0.0
C770 C 0.76164 0.60983 0.51518 0.0
C771 C 0.74462 0.60811 0.49636 0.0
C772 C 0.75814 0.59995 0.4786 0.0
C773 C 0.78701 0.59315 0.48033 0.0
C774 C 0.79033 0.60291 0.51623 0.0
H775 H 0.79636 0.58666 0.4665 0.0
H776 H 0.80203 0.60422 0.53119 0.0
H777 H 0.90592 0.58628 0.49605 0.0
H778 H 0.85278 0.54433 0.51802 0.0
C779 C 0.79226 0.55006 0.5139 0.0
C780 C 0.84474 0.59206 0.55817 0.0
C781 C 0.85207 0.56406 0.45181 0.0
C782 C 0.87079 0.61743 0.48965 0.0
H783 H 0.80639 0.56931 0.58255 0.0
H784 H 0.77604 0.54718 0.5584 0.0
H785 H 0.7804 0.52657 0.47889 0.0
H786 H 0.81546 0.5334 0.44551 0.0
H787 H 0.87562 0.59124 0.42446 0.0
H788 H 0.88368 0.62119 0.44492 0.0
H789 H 0.8933 0.63752 0.52467 0.0
H790 H 0.8826 0.62211 0.56204 0.0
H791 H 0.94981 0.56752 0.49652 0.0
H792 H 0.89533 0.52526 0.51924 0.0
H793 H 0.75258 0.61589 0.52948 0.0
H794 H 0.74648 0.59864 0.46344 0.0
C795 C 0.94926 0.17399 0.55388 0.0
C796 C 0.96818 0.18253 0.56802 0.0
C797 C 0.98425 0.19416 0.55604 0.0
C798 C 0.97449 0.19208 0.53526 0.0
N799 N 0.95275 0.18013 0.53343 0.0
Co800 Co 0.93581 0.17181 0.50558 0.0
N801 N 0.9523 0.19187 0.48923 0.0
C802 C 0.97358 0.20278 0.49604 0.0
C803 C 0.97891 0.21604 0.48166 0.0
C804 C 0.95969 0.21326 0.46479 0.0
C805 C 0.94378 0.19838 0.46982 0.0
N806 N 0.91995 0.16307 0.4778 0.0
C807 C 0.91582 0.17156 0.459 0.0
C808 C 0.90519 0.16038 0.44316 0.0
C809 C 0.90196 0.14442 0.45266 0.0
C810 C 0.911 0.14671 0.47358 0.0
N811 N 0.91821 0.15189 0.52163 0.0
C812 C 0.90607 0.13752 0.51279 0.0
C813 C 0.89367 0.12652 0.52762 0.0
C814 C 0.89892 0.13416 0.54712 0.0
C815 C 0.91498 0.14927 0.54312 0.0
N816 N 0.89953 0.1858 0.51027 0.0
C817 C 0.85054 0.20888 0.51052 0.0
C818 C 0.84762 0.19155 0.50339 0.0
C819 C 0.87222 0.18021 0.50359 0.0
C820 C 0.87836 0.21402 0.51827 0.0
C821 C 0.90227 0.20243 0.51799 0.0
N822 N 0.97283 0.1585 0.50065 0.0
C823 C 1.01349 0.14137 0.51474 0.0
C824 C 0.03061 0.14477 0.49638 0.0
C825 C 0.01749 0.15436 0.47969 0.0
C826 C 0.98851 0.16078 0.48195 0.0
C827 C 0.98489 0.14841 0.51662 0.0
H828 H 0.97924 0.16815 0.46879 0.0
H829 H 0.97312 0.14614 0.5314 0.0
H830 H 0.86934 0.1671 0.49767 0.0
H831 H 0.92338 0.20734 0.52317 0.0
C832 C 0.98364 0.20191 0.51738 0.0
C833 C 0.93112 0.15879 0.56003 0.0
C834 C 0.92171 0.19009 0.45569 0.0
C835 C 0.90484 0.13536 0.49049 0.0
H836 H 0.97088 0.18023 0.5851 0.0
H837 H 1.00115 0.203 0.5618 0.0
H838 H 0.99386 0.22694 0.48366 0.0
H839 H 0.95752 0.22131 0.45058 0.0
H840 H 0.89971 0.16352 0.42663 0.0
H841 H 0.89237 0.13286 0.44553 0.0
H842 H 0.88212 0.11441 0.52462 0.0
H843 H 0.89286 0.12875 0.56261 0.0
H844 H 0.82655 0.18677 0.49753 0.0
H845 H 0.88216 0.22723 0.5237 0.0
H846 H 0.0226 0.13395 0.52802 0.0
H847 H 0.02964 0.15702 0.46501 0.0
C848 C 0.6702 0.36119 0.78563 0.0
C849 C 0.656 0.37703 0.78884 0.0
C850 C 0.64369 0.38162 0.76956 0.0
C851 C 0.65119 0.36848 0.75565 0.0
N852 N 0.66749 0.35581 0.76488 0.0
Co853 Co 0.68346 0.33472 0.75014 0.0
N854 N 0.67607 0.34489 0.72097 0.0
C855 C 0.66024 0.35937 0.71675 0.0
C856 C 0.65907 0.36351 0.6953 0.0
C857 C 0.6746 0.35064 0.68517 0.0
C858 C 0.68431 0.33925 0.7011 0.0
N859 N 0.69852 0.31336 0.7354 0.0
C860 C 0.70234 0.30982 0.71409 0.0
C861 C 0.71068 0.29261 0.71094 0.0
C862 C 0.71142 0.28497 0.73086 0.0
C863 C 0.70356 0.29789 0.74503 0.0
N864 N 0.69163 0.32505 0.77942 0.0
C865 C 0.69759 0.30829 0.78404 0.0
C866 C 0.70258 0.30546 0.80559 0.0
C867 C 0.69949 0.32145 0.8152 0.0
C868 C 0.69281 0.33317 0.79891 0.0
N869 N 0.64352 0.32387 0.75028 0.0
C870 C 0.59444 0.30092 0.75056 0.0
C871 C 0.60425 0.30905 0.76961 0.0
C872 C 0.62856 0.32061 0.76908 0.0
C873 C 0.60811 0.30591 0.73129 0.0
C874 C 0.63227 0.31723 0.73151 0.0
N875 N 0.72367 0.34491 0.74991 0.0
C876 C 0.77644 0.34106 0.7545 0.0
C877 C 0.78201 0.3585 0.74904 0.0
C878 C 0.75737 0.36897 0.74402 0.0
C879 C 0.72854 0.36196 0.74453 0.0
C880 C 0.74745 0.33463 0.75495 0.0
H881 H 0.71025 0.37037 0.74055 0.0
H882 H 0.74444 0.32121 0.7593 0.0
H883 H 0.63595 0.32625 0.78406 0.0
H884 H 0.64247 0.31982 0.71635 0.0
C885 C 0.64832 0.36933 0.73336 0.0
C886 C 0.68535 0.35154 0.8028 0.0
C887 C 0.69527 0.32166 0.69623 0.0
C888 C 0.70215 0.29625 0.76747 0.0
H889 H 0.65498 0.38467 0.80347 0.0
H890 H 0.63209 0.39359 0.76585 0.0
H891 H 0.64802 0.37449 0.68788 0.0
H892 H 0.67704 0.34931 0.66791 0.0
H893 H 0.71487 0.28616 0.69574 0.0
H894 H 0.71684 0.27157 0.73454 0.0
H895 H 0.70858 0.29333 0.81333 0.0
H896 H 0.70163 0.32416 0.83225 0.0
H897 H 0.59417 0.30597 0.78497 0.0
H898 H 0.60073 0.30074 0.71596 0.0
H899 H 0.7944 0.33219 0.75812 0.0
H900 H 0.76016 0.38258 0.73994 0.0
C901 C 0.61091 0.90234 0.79257 0.0
C902 C 0.62212 0.88571 0.79622 0.0
C903 C 0.62565 0.87805 0.77653 0.0
C904 C 0.61649 0.8903 0.76195 0.0
N905 N 0.60786 0.9054 0.7711 0.0
Co906 Co 0.59138 0.92585 0.75531 0.0
N907 N 0.60558 0.91677 0.72719 0.0
C908 C 0.61299 0.90017 0.72285 0.0
C909 C 0.62145 0.89762 0.70186 0.0
C910 C 0.61929 0.91364 0.69236 0.0
C911 C 0.60974 0.92512 0.70823 0.0
N912 N 0.57554 0.94626 0.73923 0.0
C913 C 0.58294 0.95235 0.71936 0.0
C914 C 0.56739 0.96744 0.71462 0.0
C915 C 0.54957 0.97079 0.73209 0.0
C916 C 0.55527 0.95763 0.74653 0.0
N917 N 0.57642 0.93466 0.78349 0.0
C918 C 0.55601 0.94732 0.78591 0.0
C919 C 0.54873 0.95032 0.80705 0.0
C920 C 0.56507 0.93857 0.81868 0.0
C921 C 0.58136 0.92892 0.80394 0.0
N922 N 0.62887 0.9388 0.75922 0.0
C923 C 0.67998 0.96021 0.75885 0.0
C924 C 0.65266 0.96643 0.76631 0.0
C925 C 0.62769 0.95566 0.76636 0.0
C926 C 0.68135 0.94258 0.75258 0.0
C927 C 0.65563 0.93212 0.75293 0.0
N928 N 0.55321 0.91349 0.75128 0.0
C929 C 0.50787 0.90951 0.73099 0.0
C930 C 0.49493 0.90028 0.74807 0.0
C931 C 0.5123 0.8972 0.7664 0.0
C932 C 0.54107 0.90399 0.76776 0.0
C933 C 0.53709 0.9157 0.73275 0.0
H934 H 0.55299 0.90196 0.78253 0.0
H935 H 0.54631 0.92273 0.71929 0.0
H936 H 0.60712 0.96132 0.77152 0.0
H937 H 0.65719 0.91881 0.74744 0.0
C938 C 0.61728 0.88838 0.73961 0.0
C939 C 0.59893 0.91343 0.80988 0.0
C940 C 0.60355 0.9436 0.70446 0.0
C941 C 0.54649 0.95721 0.76818 0.0
H942 H 0.62602 0.87935 0.81149 0.0
H943 H 0.63368 0.86504 0.77326 0.0
H944 H 0.62958 0.88573 0.69459 0.0
H945 H 0.62429 0.91654 0.67569 0.0
H946 H 0.56889 0.97527 0.70017 0.0
H947 H 0.53527 0.98195 0.73438 0.0
H948 H 0.53359 0.96001 0.81331 0.0
H949 H 0.56452 0.93703 0.83601 0.0
H950 H 0.65033 0.97971 0.77194 0.0
H951 H 0.70186 0.93703 0.74674 0.0
H952 H 0.49549 0.91195 0.71635 0.0
H953 H 0.50331 0.89014 0.78001 0.0
C954 C 0.66834 0.90141 0.46857 0.0
C955 C 0.65737 0.88469 0.46517 0.0
C956 C 0.65473 0.87704 0.48493 0.0
C957 C 0.66415 0.88937 0.49931 0.0
N958 N 0.67213 0.90451 0.48995 0.0
Co959 Co 0.68862 0.92513 0.5053 0.0
N960 N 0.67507 0.91619 0.53362 0.0
C961 C 0.66802 0.89959 0.53826 0.0
C962 C 0.65944 0.8973 0.55928 0.0
C963 C 0.66114 0.91349 0.56844 0.0
C964 C 0.67067 0.92476 0.55237 0.0
N965 N 0.70441 0.94571 0.52098 0.0
C966 C 0.69697 0.95197 0.54075 0.0
C967 C 0.71261 0.96703 0.54539 0.0
C968 C 0.73042 0.97025 0.52785 0.0
C969 C 0.72467 0.957 0.51351 0.0
N970 N 0.70294 0.93379 0.47694 0.0
C971 C 0.72339 0.94639 0.47422 0.0
C972 C 0.73015 0.94927 0.45296 0.0
C973 C 0.71337 0.93754 0.4416 0.0
C974 C 0.69734 0.92801 0.4566 0.0
N975 N 0.65091 0.9379 0.50155 0.0
C976 C 0.59929 0.9589 0.50081 0.0
C977 C 0.62661 0.96521 0.49349 0.0
C978 C 0.65182 0.95464 0.49399 0.0
C979 C 0.59836 0.94151 0.50807 0.0
C980 C 0.6243 0.93122 0.50814 0.0
N981 N 0.72705 0.91298 0.50906 0.0
C982 C 0.77302 0.90956 0.52876 0.0
C983 C 0.78579 0.90034 0.51159 0.0
C984 C 0.76801 0.89693 0.49357 0.0
C985 C 0.73901 0.90344 0.49253 0.0
C986 C 0.74358 0.91546 0.52735 0.0
H987 H 0.72675 0.9012 0.47794 0.0
H988 H 0.73452 0.92253 0.54085 0.0
H989 H 0.67235 0.96038 0.48891 0.0
H990 H 0.62297 0.91801 0.51401 0.0
C991 C 0.66378 0.8876 0.52169 0.0
C992 C 0.67928 0.91262 0.45104 0.0
C993 C 0.67629 0.94335 0.55562 0.0
C994 C 0.73324 0.95641 0.49179 0.0
H995 H 0.65297 0.8783 0.44998 0.0
H996 H 0.64698 0.864 0.48838 0.0
H997 H 0.65135 0.88549 0.56675 0.0
H998 H 0.65572 0.91665 0.58497 0.0
H999 H 0.71119 0.97486 0.55986 0.0
H1000 H 0.74476 0.98137 0.52545 0.0
H1001 H 0.74516 0.95891 0.44644 0.0
H1002 H 0.71342 0.93594 0.42427 0.0
H1003 H 0.62894 0.97853 0.48806 0.0
H1004 H 0.5778 0.93588 0.51368 0.0
H1005 H 0.78573 0.91226 0.54318 0.0
H1006 H 0.77685 0.88984 0.47991 0.0
C1007 C 0.61819 0.35709 0.46319 0.0
C1008 C 0.62903 0.37376 0.45924 0.0
C1009 C 0.63204 0.38178 0.47876 0.0
C1010 C 0.62299 0.36969 0.49355 0.0
N1011 N 0.61493 0.35437 0.48467 0.0
Co1012 Co 0.59862 0.3341 0.50071 0.0
N1013 N 0.61306 0.34349 0.5285 0.0
C1014 C 0.61968 0.3602 0.53276 0.0
C1015 C 0.62828 0.36287 0.55371 0.0
C1016 C 0.62708 0.34677 0.56319 0.0
C1017 C 0.61795 0.33519 0.54732 0.0
N1018 N 0.58301 0.31392 0.51715 0.0
C1019 C 0.59169 0.30775 0.53668 0.0
C1020 C 0.57651 0.29263 0.54181 0.0
C1021 C 0.55764 0.28935 0.52485 0.0
C1022 C 0.5624 0.30258 0.51031 0.0
N1023 N 0.58332 0.32504 0.47282 0.0
C1024 C 0.56246 0.31259 0.47075 0.0
C1025 C 0.55506 0.3094 0.44966 0.0
C1026 C 0.57183 0.32077 0.43775 0.0
C1027 C 0.58853 0.33041 0.45227 0.0
N1028 N 0.63595 0.32096 0.49678 0.0
C1029 C 0.68637 0.29898 0.49697 0.0
C1030 C 0.65895 0.29317 0.48925 0.0
C1031 C 0.63435 0.3042 0.48932 0.0
C1032 C 0.68812 0.3164 0.50404 0.0
C1033 C 0.66278 0.32721 0.5036 0.0
N1034 N 0.56058 0.34653 0.50477 0.0
C1035 C 0.51617 0.35147 0.52576 0.0
C1036 C 0.50231 0.35987 0.50833 0.0
C1037 C 0.51895 0.36201 0.48941 0.0
C1038 C 0.54779 0.35534 0.48798 0.0
C1039 C 0.54521 0.34505 0.52371 0.0
H1040 H 0.55925 0.35686 0.47292 0.0
H1041 H 0.55494 0.33843 0.53733 0.0
H1042 H 0.61365 0.29874 0.48416 0.0
H1043 H 0.66467 0.34043 0.50938 0.0
C1044 C 0.62356 0.37195 0.51588 0.0
C1045 C 0.60675 0.34559 0.4461 0.0
C1046 C 0.6134 0.31653 0.55069 0.0
C1047 C 0.55305 0.3029 0.48873 0.0
H1048 H 0.633 0.37993 0.44385 0.0
H1049 H 0.63971 0.39491 0.48177 0.0
H1050 H 0.63604 0.37486 0.56094 0.0
H1051 H 0.63258 0.34388 0.57978 0.0
H1052 H 0.57903 0.28471 0.5561 0.0
H1053 H 0.54343 0.27812 0.52286 0.0
H1054 H 0.53965 0.29977 0.4436 0.0
H1055 H 0.57133 0.32208 0.4204 0.0
H1056 H 0.65602 0.27985 0.48394 0.0
H1057 H 0.70883 0.32164 0.50996 0.0
H1058 H 0.50465 0.34977 0.54091 0.0
H1059 H 0.50945 0.36826 0.47538 0.0
C1060 C 0.33424 0.67691 0.20123 0.0
C1061 C 0.3226 0.68881 0.18668 0.0
C1062 C 0.32086 0.70447 0.19727 0.0
C1063 C 0.33114 0.70127 0.21772 0.0
N1064 N 0.33921 0.68458 0.22071 0.0
Co1065 Co 0.35238 0.67397 0.2485 0.0
N1066 N 0.33948 0.6946 0.26569 0.0
C1067 C 0.33255 0.71035 0.25748 0.0
C1068 C 0.32768 0.72277 0.27298 0.0
C1069 C 0.33254 0.71451 0.29221 0.0
C1070 C 0.34008 0.69745 0.28732 0.0
N1071 N 0.36409 0.66257 0.27616 0.0
C1072 C 0.35885 0.66737 0.29687 0.0
C1073 C 0.37031 0.65521 0.31123 0.0
C1074 C 0.38426 0.6428 0.29917 0.0
C1075 C 0.3803 0.64793 0.27823 0.0
N1076 N 0.36681 0.65379 0.23137 0.0
C1077 C 0.38578 0.64144 0.23826 0.0
C1078 C 0.39367 0.6298 0.22253 0.0
C1079 C 0.37859 0.63503 0.20458 0.0
C1080 C 0.36196 0.6495 0.21051 0.0
N1081 N 0.39194 0.6854 0.24578 0.0
C1082 C 0.43926 0.70978 0.24439 0.0
C1083 C 0.43123 0.70135 0.26356 0.0
C1084 C 0.40777 0.68948 0.26391 0.0
C1085 C 0.42497 0.70418 0.22544 0.0
C1086 C 0.40194 0.69176 0.22644 0.0
N1087 N 0.31255 0.66335 0.2512 0.0
C1088 C 0.27991 0.6386 0.25622 0.0
C1089 C 0.25462 0.64921 0.25397 0.0
C1090 C 0.25936 0.66705 0.25064 0.0
C1091 C 0.28808 0.67375 0.24923 0.0
C1092 C 0.30856 0.6459 0.25477 0.0
H1093 H 0.29025 0.68747 0.24641 0.0
H1094 H 0.32742 0.63738 0.2564 0.0
H1095 H 0.40208 0.68426 0.27927 0.0
H1096 H 0.39156 0.68798 0.21152 0.0
C1097 C 0.3294 0.71271 0.23522 0.0
C1098 C 0.34189 0.65873 0.1959 0.0
C1099 C 0.35016 0.68494 0.30361 0.0
C1100 C 0.39111 0.63924 0.26017 0.0
H1101 H 0.31586 0.68649 0.17022 0.0
H1102 H 0.31194 0.71655 0.19105 0.0
H1103 H 0.32156 0.73627 0.2706 0.0
H1104 H 0.33147 0.72044 0.30802 0.0
H1105 H 0.37044 0.65592 0.32865 0.0
H1106 H 0.39648 0.63162 0.30501 0.0
H1107 H 0.40757 0.6184 0.22416 0.0
H1108 H 0.37946 0.62872 0.189 0.0
H1109 H 0.44247 0.70415 0.27857 0.0
H1110 H 0.43054 0.70977 0.20997 0.0
H1111 H 0.27769 0.62471 0.2587 0.0
H1112 H 0.24093 0.676 0.24928 0.0
C1113 C 0.45442 0.07876 0.20623 0.0
C1114 C 0.4709 0.06906 0.19164 0.0
C1115 C 0.48781 0.05772 0.20347 0.0
C1116 C 0.48067 0.06097 0.22459 0.0
N1117 N 0.4598 0.07342 0.22677 0.0
Co1118 Co 0.44467 0.08247 0.25474 0.0
N1119 N 0.461 0.06242 0.27111 0.0
C1120 C 0.48184 0.05126 0.26419 0.0
C1121 C 0.48763 0.03829 0.27889 0.0
C1122 C 0.46918 0.04153 0.29607 0.0
C1123 C 0.45316 0.05633 0.29085 0.0
N1124 N 0.4302 0.09171 0.28267 0.0
C1125 C 0.42546 0.08329 0.30148 0.0
C1126 C 0.41507 0.09463 0.31719 0.0
C1127 C 0.41313 0.1107 0.30772 0.0
C1128 C 0.42244 0.10826 0.28688 0.0
N1129 N 0.42782 0.10263 0.23872 0.0
C1130 C 0.41911 0.11781 0.24765 0.0
C1131 C 0.40981 0.12986 0.23288 0.0
C1132 C 0.41335 0.12199 0.21332 0.0
C1133 C 0.42469 0.10542 0.21722 0.0
N1134 N 0.40753 0.06921 0.25101 0.0
C1135 C 0.35701 0.04739 0.25155 0.0
C1136 C 0.35522 0.065 0.25781 0.0
C1137 C 0.38064 0.07569 0.25731 0.0
C1138 C 0.38442 0.04141 0.24395 0.0
C1139 C 0.40912 0.05236 0.24392 0.0
N1140 N 0.48245 0.09517 0.25854 0.0
C1141 C 0.52367 0.11061 0.24266 0.0
C1142 C 0.54047 0.10895 0.26159 0.0
C1143 C 0.52683 0.10081 0.27931 0.0
C1144 C 0.49793 0.0941 0.27748 0.0
C1145 C 0.49495 0.10381 0.24153 0.0
H1146 H 0.48842 0.08761 0.29127 0.0
H1147 H 0.48339 0.10507 0.22648 0.0
H1148 H 0.37876 0.089 0.26273 0.0
H1149 H 0.42983 0.04683 0.23882 0.0
C1150 C 0.49067 0.05148 0.24252 0.0
C1151 C 0.43657 0.09409 0.20011 0.0
C1152 C 0.43148 0.0648 0.30506 0.0
C1153 C 0.41815 0.11994 0.26999 0.0
H1154 H 0.47126 0.07036 0.17428 0.0
H1155 H 0.50324 0.04813 0.19737 0.0
H1156 H 0.50232 0.02727 0.27691 0.0
H1157 H 0.4675 0.03384 0.31063 0.0
H1158 H 0.4092 0.09158 0.33367 0.0
H1159 H 0.40436 0.1225 0.31484 0.0
H1160 H 0.40164 0.14288 0.23593 0.0
H1161 H 0.40933 0.12818 0.19796 0.0
H1162 H 0.33464 0.07039 0.26377 0.0
H1163 H 0.38709 0.02817 0.23825 0.0
H1164 H 0.53291 0.11657 0.22836 0.0
H1165 H 0.5384 0.09948 0.2945 0.0
C1166 C 0.32682 0.07761 0.55127 0.0
C1167 C 0.308 0.06878 0.5652 0.0
C1168 C 0.2923 0.05716 0.55298 0.0
C1169 C 0.30217 0.05953 0.5323 0.0
N1170 N 0.32367 0.07166 0.5307 0.0
Co1171 Co 0.34063 0.08037 0.50301 0.0
N1172 N 0.32401 0.06054 0.48619 0.0
C1173 C 0.30278 0.04953 0.49284 0.0
C1174 C 0.29672 0.03671 0.47802 0.0
C1175 C 0.31534 0.03989 0.46096 0.0
C1176 C 0.33167 0.05454 0.46634 0.0
N1177 N 0.3567 0.08943 0.47538 0.0
C1178 C 0.36056 0.08128 0.45626 0.0
C1179 C 0.37189 0.09261 0.44088 0.0
C1180 C 0.3757 0.10832 0.4509 0.0
C1181 C 0.36636 0.10574 0.47168 0.0
N1182 N 0.35822 0.10007 0.51959 0.0
C1183 C 0.37072 0.11447 0.51112 0.0
C1184 C 0.38285 0.12532 0.52625 0.0
C1185 C 0.37704 0.11756 0.54559 0.0
C1186 C 0.361 0.10252 0.54116 0.0
N1187 N 0.37698 0.06641 0.50752 0.0
C1188 C 0.42702 0.04414 0.50884 0.0
C1189 C 0.4295 0.06162 0.50224 0.0
C1190 C 0.40438 0.07253 0.50186 0.0
C1191 C 0.39896 0.03837 0.51537 0.0
C1192 C 0.37451 0.04958 0.51458 0.0
N1193 N 0.30363 0.09379 0.49835 0.0
C1194 C 0.26317 0.11083 0.51291 0.0
C1195 C 0.24586 0.10766 0.49458 0.0
C1196 C 0.25878 0.09824 0.47765 0.0
C1197 C 0.28778 0.09176 0.47967 0.0
C1198 C 0.29172 0.10373 0.51453 0.0
H1199 H 0.29692 0.08457 0.46631 0.0
H1200 H 0.30357 0.10583 0.52931 0.0
H1201 H 0.40705 0.08578 0.49645 0.0
H1202 H 0.35332 0.0443 0.51901 0.0
C1203 C 0.29298 0.05 0.51422 0.0
C1204 C 0.34439 0.09294 0.55776 0.0
C1205 C 0.3532 0.06303 0.452 0.0
C1206 C 0.37246 0.11681 0.48888 0.0
H1207 H 0.30503 0.07091 0.58228 0.0
H1208 H 0.27546 0.04819 0.5585 0.0
H1209 H 0.28155 0.0259 0.47977 0.0
H1210 H 0.31679 0.03227 0.44634 0.0
H1211 H 0.37729 0.08978 0.42425 0.0
H1212 H 0.38573 0.1199 0.44416 0.0
H1213 H 0.39453 0.13744 0.52356 0.0
H1214 H 0.38266 0.12284 0.56123 0.0
H1215 H 0.45069 0.06688 0.49733 0.0
H1216 H 0.39551 0.02501 0.52035 0.0
H1217 H 0.25422 0.11811 0.52637 0.0
H1218 H 0.24647 0.09577 0.46298 0.0
C1219 C 0.44119 0.67329 0.55132 0.0
C1220 C 0.44809 0.68529 0.56725 0.0
C1221 C 0.45033 0.70118 0.55728 0.0
C1222 C 0.44467 0.698 0.53589 0.0
N1223 N 0.43905 0.68113 0.5317 0.0
Co1224 Co 0.43033 0.67092 0.50277 0.0
N1225 N 0.44367 0.69236 0.48735 0.0
C1226 C 0.44839 0.70802 0.4966 0.0
C1227 C 0.45452 0.72095 0.48202 0.0
C1228 C 0.45289 0.71312 0.46225 0.0
C1229 C 0.44582 0.69579 0.4659 0.0
N1230 N 0.42276 0.66013 0.47395 0.0
C1231 C 0.43001 0.6657 0.45386 0.0
C1232 C 0.42103 0.65375 0.43832 0.0
C1233 C 0.40686 0.64061 0.44893 0.0
C1234 C 0.40809 0.64515 0.47025 0.0
N1235 N 0.41586 0.64976 0.51816 0.0
C1236 C 0.40012 0.63663 0.50942 0.0
C1237 C 0.39365 0.62358 0.52372 0.0
C1238 C 0.40607 0.62872 0.54273 0.0
C1239 C 0.41929 0.64478 0.53898 0.0
N1240 N 0.38977 0.68113 0.50338 0.0
C1241 C 0.34071 0.70418 0.50342 0.0
C1242 C 0.3528 0.69788 0.48419 0.0
C1243 C 0.3769 0.68647 0.48453 0.0
C1244 C 0.35189 0.69718 0.52276 0.0
C1245 C 0.37608 0.68553 0.52236 0.0
N1246 N 0.47111 0.66143 0.50209 0.0
C1247 C 0.50592 0.63782 0.49654 0.0
C1248 C 0.53015 0.64882 0.50086 0.0
C1249 C 0.52381 0.66628 0.50574 0.0
C1250 C 0.4945 0.67223 0.50636 0.0
C1251 C 0.47675 0.64435 0.49723 0.0
H1252 H 0.49095 0.68569 0.51028 0.0
H1253 H 0.45881 0.63551 0.49385 0.0
H1254 H 0.38566 0.68274 0.46928 0.0
H1255 H 0.38441 0.68076 0.53754 0.0
C1256 C 0.44799 0.70991 0.51903 0.0
C1257 C 0.43445 0.65491 0.55568 0.0
C1258 C 0.43849 0.68363 0.44847 0.0
C1259 C 0.39706 0.63526 0.4872 0.0
H1260 H 0.45091 0.68282 0.5843 0.0
H1261 H 0.45617 0.71347 0.56468 0.0
H1262 H 0.45929 0.7345 0.48535 0.0
H1263 H 0.45565 0.7195 0.44683 0.0
H1264 H 0.42287 0.6549 0.421 0.0
H1265 H 0.39651 0.62923 0.44189 0.0
H1266 H 0.38274 0.61131 0.52042 0.0
H1267 H 0.40585 0.62128 0.55753 0.0
H1268 H 0.34418 0.70205 0.46874 0.0
H1269 H 0.34297 0.70122 0.53816 0.0
H1270 H 0.50932 0.62418 0.49291 0.0
H1271 H 0.5414 0.67553 0.5088 0.0
C1272 C 0.66659 0.8606 0.2911 0.0
C1273 C 0.65662 0.87752 0.2946 0.0
C1274 C 0.65492 0.88541 0.27491 0.0
C1275 C 0.66383 0.873 0.26046 0.0
N1276 N 0.67056 0.8576 0.26972 0.0
Co1277 Co 0.68611 0.83681 0.25431 0.0
N1278 N 0.67365 0.84627 0.22607 0.0
C1279 C 0.66834 0.86307 0.22142 0.0
C1280 C 0.66047 0.86564 0.20028 0.0
C1281 C 0.66073 0.84938 0.19113 0.0
C1282 C 0.66863 0.83783 0.20736 0.0
N1283 N 0.70081 0.81606 0.23853 0.0
C1284 C 0.69209 0.80983 0.21903 0.0
C1285 C 0.70613 0.79423 0.21443 0.0
C1286 C 0.72423 0.79066 0.23175 0.0
C1287 C 0.72019 0.80424 0.24595 0.0
N1288 N 0.69965 0.82767 0.28265 0.0
C1289 C 0.71954 0.81475 0.28531 0.0
C1290 C 0.72593 0.81162 0.30659 0.0
C1291 C 0.70954 0.82352 0.31799 0.0
C1292 C 0.69405 0.83339 0.303 0.0
N1293 N 0.6477 0.82465 0.25749 0.0
C1294 C 0.59653 0.80358 0.25533 0.0
C1295 C 0.62234 0.79766 0.26534 0.0
C1296 C 0.64753 0.8082 0.26603 0.0
C1297 C 0.59642 0.82064 0.24712 0.0
C1298 C 0.62204 0.83109 0.24876 0.0
N1299 N 0.72511 0.84825 0.25096 0.0
C1300 C 0.77048 0.85233 0.23079 0.0
C1301 C 0.78391 0.86084 0.24831 0.0
C1302 C 0.7667 0.86332 0.2669 0.0
C1303 C 0.73762 0.85704 0.26787 0.0
C1304 C 0.74116 0.84626 0.23239 0.0
H1305 H 0.72567 0.85891 0.28266 0.0
H1306 H 0.73169 0.83961 0.2187 0.0
H1307 H 0.66728 0.80253 0.27263 0.0
H1308 H 0.6214 0.84411 0.24224 0.0
C1309 C 0.66441 0.87505 0.23807 0.0
C1310 C 0.67662 0.84904 0.30858 0.0
C1311 C 0.67142 0.819 0.20459 0.0
C1312 C 0.7288 0.80458 0.26769 0.0
H1313 H 0.65237 0.88389 0.30984 0.0
H1314 H 0.6482 0.89867 0.27156 0.0
H1315 H 0.65359 0.87769 0.19273 0.0
H1316 H 0.65523 0.84634 0.17458 0.0
H1317 H 0.70332 0.78619 0.20026 0.0
H1318 H 0.73739 0.77905 0.23421 0.0
H1319 H 0.7404 0.80168 0.3131 0.0
H1320 H 0.70948 0.825 0.33533 0.0
H1321 H 0.62351 0.78458 0.27184 0.0
H1322 H 0.57677 0.82582 0.23944 0.0
H1323 H 0.78248 0.85034 0.21589 0.0
H1324 H 0.77586 0.86962 0.28101 0.0
C1325 C 0.61932 0.40028 0.2877 0.0
C1326 C 0.63081 0.38365 0.29084 0.0
C1327 C 0.63354 0.37619 0.27096 0.0
C1328 C 0.62367 0.38855 0.25679 0.0
N1329 N 0.61533 0.40353 0.26638 0.0
Co1330 Co 0.59817 0.42413 0.25137 0.0
N1331 N 0.61174 0.41552 0.2229 0.0
C1332 C 0.61906 0.39901 0.21802 0.0
C1333 C 0.62715 0.39688 0.19687 0.0
C1334 C 0.62483 0.4131 0.18788 0.0
C1335 C 0.61552 0.42424 0.20418 0.0
N1336 N 0.58165 0.44468 0.23602 0.0
C1337 C 0.58867 0.45115 0.21628 0.0
C1338 C 0.57268 0.46615 0.21197 0.0
C1339 C 0.55502 0.46909 0.22967 0.0
C1340 C 0.56123 0.45576 0.24377 0.0
N1341 N 0.58385 0.43245 0.27991 0.0
C1342 C 0.56316 0.44488 0.28289 0.0
C1343 C 0.55646 0.44751 0.30422 0.0
C1344 C 0.57354 0.43578 0.31534 0.0
C1345 C 0.58967 0.42651 0.30013 0.0
N1346 N 0.63557 0.43719 0.25514 0.0
C1347 C 0.68686 0.45845 0.2562 0.0
C1348 C 0.65939 0.46459 0.26347 0.0
C1349 C 0.63435 0.45389 0.26283 0.0
C1350 C 0.68809 0.4411 0.2488 0.0
C1351 C 0.66232 0.43069 0.24855 0.0
N1352 N 0.56009 0.41164 0.24761 0.0
C1353 C 0.51431 0.40766 0.22786 0.0
C1354 C 0.50192 0.39817 0.24495 0.0
C1355 C 0.51981 0.39498 0.26298 0.0
C1356 C 0.54852 0.40189 0.26407 0.0
C1357 C 0.54347 0.41399 0.22934 0.0
H1358 H 0.56087 0.39974 0.27864 0.0
H1359 H 0.55223 0.42125 0.2159 0.0
H1360 H 0.6137 0.45948 0.26793 0.0
H1361 H 0.66389 0.41751 0.24259 0.0
C1362 C 0.62381 0.38693 0.23439 0.0
C1363 C 0.60802 0.41118 0.3054 0.0
C1364 C 0.60935 0.44279 0.20114 0.0
C1365 C 0.55292 0.45495 0.26552 0.0
H1366 H 0.63546 0.37715 0.30592 0.0
H1367 H 0.64161 0.36324 0.26731 0.0
H1368 H 0.63522 0.38516 0.18917 0.0
H1369 H 0.62962 0.41636 0.17128 0.0
H1370 H 0.57379 0.47417 0.19766 0.0
H1371 H 0.5405 0.4801 0.23232 0.0
H1372 H 0.54126 0.45696 0.31093 0.0
H1373 H 0.5736 0.43399 0.33264 0.0
H1374 H 0.65682 0.47788 0.269 0.0
H1375 H 0.70877 0.43558 0.24323 0.0
H1376 H 0.50152 0.41021 0.21343 0.0
H1377 H 0.51127 0.38773 0.27661 0.0
C1378 C 0.67172 0.40253 0.96324 0.0
C1379 C 0.66074 0.38589 0.9593 0.0
C1380 C 0.65735 0.37798 0.97884 0.0
C1381 C 0.66637 0.39009 0.99364 0.0
N1382 N 0.67476 0.40535 0.98475 0.0
Co1383 Co 0.6912 0.42561 1.00089 0.0
N1384 N 0.67706 0.41619 0.02883 0.0
C1385 C 0.66966 0.39956 0.03291 0.0
C1386 C 0.66093 0.39686 0.05382 0.0
C1387 C 0.66291 0.41284 0.06352 0.0
C1388 C 0.67265 0.42441 0.04785 0.0
N1389 N 0.70722 0.44574 0.01734 0.0
C1390 C 0.69978 0.45163 0.03729 0.0
C1391 C 0.71546 0.46659 0.04237 0.0
C1392 C 0.73339 0.47009 0.025 0.0
C1393 C 0.72761 0.45713 0.01028 0.0
N1394 N 0.70589 0.43484 0.97285 0.0
C1395 C 0.72629 0.44754 0.97063 0.0
C1396 C 0.73329 0.45087 0.94952 0.0
C1397 C 0.71678 0.43933 0.93769 0.0
C1398 C 0.70066 0.42944 0.95229 0.0
N1399 N 0.65366 0.4386 0.99735 0.0
C1400 C 0.60231 0.45984 0.99815 0.0
C1401 C 0.62965 0.4663 0.99106 0.0
C1402 C 0.65474 0.45561 0.99079 0.0
C1403 C 0.60108 0.44209 0.00386 0.0
C1404 C 0.62691 0.43172 1.00331 0.0
N1405 N 0.72936 0.41318 0.00456 0.0
C1406 C 0.7737 0.40766 0.02546 0.0
C1407 C 0.78763 0.39964 0.00777 0.0
C1408 C 0.77099 0.39801 0.98874 0.0
C1409 C 0.74216 0.40471 0.98752 0.0
C1410 C 0.74471 0.41424 0.02356 0.0
H1411 H 0.7307 0.40346 0.97242 0.0
H1412 H 0.73502 0.4206 0.03737 0.0
H1413 H 0.67532 0.46143 0.98591 0.0
H1414 H 0.62543 0.4183 0.00837 0.0
C1415 C 0.66552 0.38792 0.01596 0.0
C1416 C 0.68326 0.41394 0.94612 0.0
C1417 C 0.67876 0.44286 0.0518 0.0
C1418 C 0.73614 0.45707 0.98857 0.0
H1419 H 0.65685 0.37969 0.94391 0.0
H1420 H 0.64948 0.3649 0.98187 0.0
H1421 H 0.6527 0.38493 0.0609 0.0
H1422 H 0.65763 0.41565 0.08018 0.0
H1423 H 0.71391 0.47425 0.05696 0.0
H1424 H 0.74772 0.48125 0.02293 0.0
H1425 H 0.7484 0.46063 0.94341 0.0
H1426 H 0.71716 0.43803 0.92033 0.0
H1427 H 0.6319 0.4797 0.98587 0.0
H1428 H 0.58058 0.43634 0.00943 0.0
H1429 H 0.78509 0.40896 0.04073 0.0
H1430 H 0.78044 0.39213 0.97446 0.0
C1431 C 0.61066 0.86085 0.97047 0.0
C1432 C 0.62447 0.87681 0.96727 0.0
C1433 C 0.63661 0.88152 0.98655 0.0
C1434 C 0.6294 0.86833 1.00046 0.0
N1435 N 0.61343 0.85552 0.99124 0.0
Co1436 Co 0.59788 0.83434 0.00601 0.0
N1437 N 0.6053 0.84454 0.03519 0.0
C1438 C 0.62104 0.85906 0.03937 0.0
C1439 C 0.62234 0.86321 0.0608 0.0
C1440 C 0.60703 0.8503 0.07098 0.0
C1441 C 0.59728 0.83887 0.0551 0.0
N1442 N 0.583 0.81296 0.02079 0.0
C1443 C 0.57934 0.80941 0.04211 0.0
C1444 C 0.57102 0.79221 0.04527 0.0
C1445 C 0.57018 0.78458 0.02534 0.0
C1446 C 0.57793 0.7975 0.01116 0.0
N1447 N 0.58998 0.82457 0.97671 0.0
C1448 C 0.58438 0.80776 0.97213 0.0
C1449 C 0.57964 0.80483 0.95056 0.0
C1450 C 0.58254 0.8208 0.9409 0.0
C1451 C 0.58885 0.83261 0.95717 0.0
N1452 N 0.638 0.82364 0.00584 0.0
C1453 C 0.6873 0.80081 0.00536 0.0
C1454 C 0.67743 0.80905 0.98639 0.0
C1455 C 0.65305 0.82055 0.98703 0.0
C1456 C 0.67353 0.80563 0.02466 0.0
C1457 C 0.64927 0.8169 0.02454 0.0
N1458 N 0.55747 0.84433 0.00627 0.0
C1459 C 0.50494 0.84052 1.00023 0.0
C1460 C 0.49861 0.85733 0.00795 0.0
C1461 C 0.52295 0.86759 0.01438 0.0
C1462 C 0.55201 0.86094 0.01325 0.0
C1463 C 0.53408 0.83429 0.99977 0.0
H1464 H 0.56999 0.86922 0.01828 0.0
H1465 H 0.53751 0.82121 0.99416 0.0
H1466 H 0.64565 0.82629 0.9721 0.0
H1467 H 0.63904 0.81939 0.03972 0.0
C1468 C 0.63251 0.86914 0.02273 0.0
C1469 C 0.59597 0.85102 0.95324 0.0
C1470 C 0.58657 0.82124 0.05999 0.0
C1471 C 0.57964 0.79578 0.98873 0.0
H1472 H 0.6254 0.88442 0.95262 0.0
H1473 H 0.64799 0.89356 0.99025 0.0
H1474 H 0.63329 0.87425 0.06818 0.0
H1475 H 0.60475 0.84901 0.08825 0.0
H1476 H 0.56699 0.78574 0.06048 0.0
H1477 H 0.56486 0.77116 0.02167 0.0
H1478 H 0.57387 0.79265 0.94285 0.0
H1479 H 0.58049 0.82345 0.92383 0.0
H1480 H 0.68755 0.80611 0.97101 0.0
H1481 H 0.68093 0.8004 0.03995 0.0
H1482 H 0.48758 0.83206 0.99437 0.0
H1483 H 0.51974 0.8806 0.02066 0.0
C1484 C 0.33181 0.17617 0.70352 0.0
C1485 C 0.3212 0.18836 0.68891 0.0
C1486 C 0.31962 0.20393 0.69967 0.0
C1487 C 0.32893 0.20042 0.72028 0.0
N1488 N 0.33618 0.18359 0.72322 0.0
Co1489 Co 0.34791 0.17262 0.75112 0.0
N1490 N 0.3347 0.1932 0.76832 0.0
C1491 C 0.32848 0.20907 0.76019 0.0
C1492 C 0.32284 0.22134 0.77574 0.0
C1493 C 0.3264 0.21283 0.79495 0.0
C1494 C 0.33401 0.19579 0.79001 0.0
N1495 N 0.35865 0.16104 0.77888 0.0
C1496 C 0.35274 0.16568 0.79956 0.0
C1497 C 0.36393 0.15348 0.81397 0.0
C1498 C 0.3783 0.14117 0.802 0.0
C1499 C 0.37489 0.14642 0.78105 0.0
N1500 N 0.36237 0.15242 0.73403 0.0
C1501 C 0.3809 0.13992 0.7411 0.0
C1502 C 0.38897 0.12829 0.72542 0.0
C1503 C 0.37453 0.13371 0.70727 0.0
C1504 C 0.35807 0.14829 0.71304 0.0
N1505 N 0.38765 0.18365 0.74919 0.0
C1506 C 0.43598 0.20708 0.74777 0.0
C1507 C 0.42515 0.20068 0.76733 0.0
C1508 C 0.4014 0.18906 0.76765 0.0
C1509 C 0.42384 0.20012 0.72874 0.0
C1510 C 0.39991 0.18832 0.7298 0.0
N1511 N 0.30783 0.1623 0.75303 0.0
C1512 C 0.27459 0.13784 0.75797 0.0
C1513 C 0.24958 0.14858 0.75515 0.0
C1514 C 0.25476 0.16635 0.7515 0.0
C1515 C 0.28365 0.17284 0.75041 0.0
C1516 C 0.3034 0.14492 0.75683 0.0
H1517 H 0.28621 0.18651 0.74738 0.0
H1518 H 0.32205 0.13631 0.75893 0.0
H1519 H 0.3935 0.18519 0.78305 0.0
H1520 H 0.39061 0.18361 0.71488 0.0
C1521 C 0.32662 0.21169 0.73791 0.0
C1522 C 0.3391 0.15796 0.69805 0.0
C1523 C 0.34339 0.18314 0.80638 0.0
C1524 C 0.38588 0.13771 0.76306 0.0
H1525 H 0.31499 0.18628 0.67228 0.0
H1526 H 0.31136 0.21617 0.69345 0.0
H1527 H 0.31706 0.23489 0.7734 0.0
H1528 H 0.32453 0.2186 0.81081 0.0
H1529 H 0.36348 0.15404 0.83139 0.0
H1530 H 0.39032 0.12995 0.80791 0.0
H1531 H 0.40269 0.11681 0.72715 0.0
H1532 H 0.37586 0.12751 0.69165 0.0
H1533 H 0.43449 0.20495 0.78252 0.0
H1534 H 0.43179 0.20432 0.71312 0.0
H1535 H 0.27204 0.124 0.76069 0.0
H1536 H 0.23656 0.17541 0.74969 0.0
C1537 C 0.45069 0.57644 0.70416 0.0
C1538 C 0.46694 0.56663 0.68956 0.0
C1539 C 0.4837 0.5552 0.70139 0.0
C1540 C 0.47671 0.55853 0.72251 0.0
N1541 N 0.45611 0.57112 0.72471 0.0
Co1542 Co 0.44152 0.58044 0.75271 0.0
N1543 N 0.4576 0.56036 0.76916 0.0
C1544 C 0.47815 0.54903 0.7622 0.0
C1545 C 0.4839 0.53612 0.777 0.0
C1546 C 0.46574 0.53959 0.79428 0.0
C1547 C 0.44992 0.55446 0.78902 0.0
N1548 N 0.42755 0.58994 0.78064 0.0
C1549 C 0.42289 0.58168 0.79956 0.0
C1550 C 0.41293 0.5932 0.81523 0.0
C1551 C 0.4112 0.60922 0.80561 0.0
C1552 C 0.4202 0.60658 0.78473 0.0
N1553 N 0.42492 0.60064 0.73661 0.0
C1554 C 0.41663 0.61593 0.74545 0.0
C1555 C 0.40731 0.62794 0.73062 0.0
C1556 C 0.41039 0.6199 0.71112 0.0
C1557 C 0.4215 0.6033 0.71511 0.0
N1558 N 0.40403 0.56743 0.74927 0.0
C1559 C 0.35255 0.54636 0.74925 0.0
C1560 C 0.35144 0.56397 0.75558 0.0
C1561 C 0.3773 0.57429 0.75532 0.0
C1562 C 0.37997 0.53984 0.7424 0.0
C1563 C 0.40513 0.55046 0.74254 0.0
N1564 N 0.47965 0.59288 0.75618 0.0
C1565 C 0.52084 0.60814 0.73996 0.0
C1566 C 0.53792 0.60641 0.75874 0.0
C1567 C 0.52451 0.59826 0.77655 0.0
C1568 C 0.49545 0.59172 0.77498 0.0
C1569 C 0.49203 0.60144 0.73905 0.0
H1570 H 0.48606 0.58529 0.78885 0.0
H1571 H 0.48025 0.60274 0.72409 0.0
H1572 H 0.37582 0.58768 0.7605 0.0
H1573 H 0.42578 0.54461 0.73787 0.0
C1574 C 0.48674 0.54907 0.74048 0.0
C1575 C 0.43289 0.59179 0.69803 0.0
C1576 C 0.42861 0.56318 0.80331 0.0
C1577 C 0.41597 0.6182 0.76777 0.0
H1578 H 0.46723 0.5679 0.67219 0.0
H1579 H 0.49895 0.54551 0.69527 0.0
H1580 H 0.49837 0.52499 0.77504 0.0
H1581 H 0.46412 0.53202 0.80894 0.0
H1582 H 0.40722 0.5903 0.83178 0.0
H1583 H 0.40278 0.62112 0.81267 0.0
H1584 H 0.39939 0.64102 0.7336 0.0
H1585 H 0.4062 0.62599 0.6957 0.0
H1586 H 0.33078 0.56977 0.76076 0.0
H1587 H 0.38241 0.52635 0.73766 0.0
H1588 H 0.52992 0.61411 0.72561 0.0
H1589 H 0.53635 0.59686 0.79162 0.0
C1590 C 0.32912 0.57651 0.05083 0.0
C1591 C 0.31113 0.5674 0.06505 0.0
C1592 C 0.29517 0.55577 0.05302 0.0
C1593 C 0.30409 0.55839 0.03216 0.0
N1594 N 0.32526 0.57069 0.03025 0.0
Co1595 Co 0.34089 0.57977 1.0023 0.0
N1596 N 0.32363 0.56011 0.98553 0.0
C1597 C 0.30276 0.54898 0.99247 0.0
C1598 C 0.29622 0.53628 0.9776 0.0
C1599 C 0.31416 0.53965 0.96022 0.0
C1600 C 0.3306 0.55429 0.96546 0.0
N1601 N 0.35578 0.58912 0.97447 0.0
C1602 C 0.35912 0.5811 0.95521 0.0
C1603 C 0.36987 0.59255 0.93975 0.0
C1604 C 0.37388 0.60821 0.94986 0.0
C1605 C 0.36522 0.60548 0.97078 0.0
N1606 N 0.35894 0.59938 0.01876 0.0
C1607 C 0.371 0.61388 0.01023 0.0
C1608 C 0.38354 0.62467 0.02526 0.0
C1609 C 0.37845 0.61676 0.0446 0.0
C1610 C 0.36242 0.60169 0.0403 0.0
N1611 N 0.37754 0.56587 0.00578 0.0
C1612 C 0.42793 0.54382 0.00566 0.0
C1613 C 0.43005 0.56152 0.99987 0.0
C1614 C 0.40473 0.57227 1.00007 0.0
C1615 C 0.40009 0.53777 0.01232 0.0
C1616 C 0.37547 0.54888 0.01227 0.0
N1617 N 0.30358 0.59311 0.99867 0.0
C1618 C 0.26285 0.60889 0.01482 0.0
C1619 C 0.24536 0.60684 0.99628 0.0
C1620 C 0.25854 0.59853 0.9785 0.0
C1621 C 0.28756 0.5919 0.97997 0.0
C1622 C 0.29165 0.60212 0.01561 0.0
H1623 H 0.29665 0.5853 0.96612 0.0
H1624 H 0.30369 0.60369 0.03037 0.0
H1625 H 0.40706 0.58564 0.99502 0.0
H1626 H 0.35451 0.54343 0.01694 0.0
C1627 C 0.29407 0.5491 0.01411 0.0
C1628 C 0.3462 0.5921 0.05707 0.0
C1629 C 0.35177 0.56286 0.95091 0.0
C1630 C 0.37189 0.61642 0.98799 0.0
H1631 H 0.30879 0.56939 0.08221 0.0
H1632 H 0.27869 0.54666 0.05879 0.0
H1633 H 0.28128 0.52538 0.97954 0.0
H1634 H 0.31518 0.53212 0.9455 0.0
H1635 H 0.37477 0.58983 0.92302 0.0
H1636 H 0.38364 0.61985 0.94308 0.0
H1637 H 0.39494 0.63687 0.0225 0.0
H1638 H 0.38438 0.62198 0.06022 0.0
H1639 H 0.45092 0.56695 0.99456 0.0
H1640 H 0.39712 0.52443 0.0175 0.0
H1641 H 0.25408 0.6151 0.02912 0.0
H1642 H 0.24651 0.59697 0.96353 0.0
C1643 C 0.44401 0.175 0.05269 0.0
C1644 C 0.45148 0.18728 0.06815 0.0
C1645 C 0.45342 0.20297 0.0577 0.0
C1646 C 0.44703 0.19941 0.03651 0.0
N1647 N 0.44125 0.18247 0.0329 0.0
Co1648 Co 0.43128 0.17177 0.00445 0.0
N1649 N 0.44404 0.19292 0.98817 0.0
C1650 C 0.44928 0.20872 0.99689 0.0
C1651 C 0.45501 0.22137 0.98185 0.0
C1652 C 0.45254 0.2132 0.96234 0.0
C1653 C 0.4454 0.19597 0.9666 0.0
N1654 N 0.42228 0.16056 0.9761 0.0
C1655 C 0.42859 0.16577 0.9557 0.0
C1656 C 0.41878 0.15358 0.94071 0.0
C1657 C 0.40505 0.14067 0.952 0.0
C1658 C 0.40735 0.14555 0.97315 0.0
N1659 N 0.41746 0.15089 0.02069 0.0
C1660 C 0.40127 0.13764 0.01268 0.0
C1661 C 0.39527 0.12488 0.02747 0.0
C1662 C 0.40847 0.13034 0.04606 0.0
C1663 C 0.42169 0.14628 0.04155 0.0
N1664 N 0.39084 0.18201 0.00584 0.0
C1665 C 0.34142 0.20472 0.00718 0.0
C1666 C 0.35312 0.19888 0.9876 0.0
C1667 C 0.37739 0.18758 0.98731 0.0
C1668 C 0.35353 0.19768 0.02618 0.0
C1669 C 0.3778 0.18614 0.02513 0.0
N1670 N 0.47198 0.16222 1.00309 0.0
C1671 C 0.5065 0.13838 0.99801 0.0
C1672 C 0.53088 0.14937 1.00189 0.0
C1673 C 0.52477 0.16697 0.00614 0.0
C1674 C 0.49555 0.17303 0.00675 0.0
C1675 C 0.47739 0.14502 0.99868 0.0
H1676 H 0.49219 0.18658 0.01027 0.0
H1677 H 0.45931 0.13619 0.99575 0.0
H1678 H 0.38596 0.18417 0.97188 0.0
H1679 H 0.38666 0.18119 0.04006 0.0
C1680 C 0.44976 0.21101 0.01927 0.0
C1681 C 0.43737 0.15672 0.05768 0.0
C1682 C 0.43705 0.18358 0.94964 0.0
C1683 C 0.39711 0.13594 0.99059 0.0
H1684 H 0.45487 0.18512 0.08521 0.0
H1685 H 0.45952 0.2154 0.06464 0.0
H1686 H 0.46004 0.23495 0.98471 0.0
H1687 H 0.45475 0.2193 0.9467 0.0
H1688 H 0.4198 0.15438 0.92334 0.0
H1689 H 0.39432 0.12919 0.94553 0.0
H1690 H 0.38405 0.11262 0.02477 0.0
H1691 H 0.40868 0.12323 0.0611 0.0
H1692 H 0.3447 0.2037 0.97239 0.0
H1693 H 0.34471 0.20128 0.04178 0.0
H1694 H 0.50973 0.12465 0.99482 0.0
H1695 H 0.5425 0.17621 0.0088 0.0
H1696 H 0.21942 0.32438 0.15983 0.0
H1697 H 0.06988 0.32425 0.09816 0.0
H1698 H 0.14034 0.30696 0.19202 0.0
H1699 H 0.14909 0.30702 0.06594 0.0
H1700 H 0.09452 0.31932 0.13305 0.0
H1701 H 0.1948 0.31943 0.12493 0.0
C1702 C 0.19717 0.31912 0.15952 0.0
C1703 C 0.1818 0.31622 0.1788 0.0
C1704 C 0.10628 0.31633 0.11829 0.0
C1705 C 0.1532 0.31121 0.13923 0.0
C1706 C 0.09217 0.31904 0.09846 0.0
C1707 C 0.10757 0.31621 0.07917 0.0
C1708 C 0.13618 0.3112 0.11874 0.0
C1709 C 0.13659 0.30968 0.08038 0.0
C1710 C 0.18307 0.3164 0.13968 0.0
C1711 C 0.15281 0.30964 0.17758 0.0
N1712 N 0.15021 0.30777 0.0998 0.0
N1713 N 0.1392 0.30773 0.15816 0.0
H1714 H 0.21199 0.95179 0.08929 0.0
H1715 H 0.06947 0.95236 0.16561 0.0
H1716 H 0.12254 0.95374 0.06543 0.0
H1717 H 0.15909 0.95159 0.18921 0.0
H1718 H 0.08831 0.95776 0.12905 0.0
H1719 H 0.19337 0.95676 0.12591 0.0
C1720 C 0.18851 0.95393 0.09171 0.0
C1721 C 0.16879 0.95267 0.07432 0.0
C1722 C 0.10389 0.95677 0.14226 0.0
C1723 C 0.14707 0.95762 0.11627 0.0
C1724 C 0.09308 0.95384 0.16312 0.0
C1725 C 0.11279 0.95167 0.18035 0.0
C1726 C 0.13465 0.95735 0.13861 0.0
C1727 C 0.14322 0.95333 0.17629 0.0
C1728 C 0.17779 0.95654 0.11264 0.0
C1729 C 0.13845 0.9549 0.07841 0.0
N1730 N 0.15324 0.95587 0.15584 0.0
N1731 N 0.12849 0.95706 0.09895 0.0
H1732 H 0.89829 0.69755 0.81536 0.0
H1733 H 0.88469 0.69823 0.94289 0.0
H1734 H 0.81984 0.67889 0.84732 0.0
H1735 H 0.96378 0.6799 0.9114 0.0
H1736 H 0.86088 0.7016 0.90772 0.0
H1737 H 0.9222 0.70148 0.85043 0.0
C1738 C 0.8859 0.69455 0.82975 0.0
C1739 C 0.85718 0.68762 0.82845 0.0
C1740 C 0.88361 0.69714 0.90853 0.0
C1741 C 0.88416 0.69255 0.86857 0.0
C1742 C 0.89727 0.69523 0.92857 0.0
C1743 C 0.92615 0.68855 0.93005 0.0
C1744 C 0.8992 0.69278 0.88979 0.0
C1745 C 0.94153 0.68513 0.91089 0.0
C1746 C 0.89959 0.6968 0.84973 0.0
C1747 C 0.84198 0.68427 0.84769 0.0
N1748 N 0.92782 0.68723 0.89149 0.0
N1749 N 0.85569 0.68672 0.86703 0.0
H1750 H 0.81942 0.05724 0.91989 0.0
H1751 H 0.87497 0.05061 0.81603 0.0
H1752 H 0.90998 0.05744 0.9414 0.0
H1753 H 0.95948 0.06209 0.84468 0.0
H1754 H 0.85459 0.04504 0.85178 0.0
H1755 H 0.83619 0.0519 0.88321 0.0
C1756 C 0.84285 0.05542 0.91693 0.0
C1757 C 0.8633 0.0574 0.93376 0.0
C1758 C 0.87761 0.04869 0.85053 0.0
C1759 C 0.88325 0.05166 0.89137 0.0
C1760 C 0.88938 0.05151 0.82995 0.0
C1761 C 0.91897 0.05659 0.82745 0.0
C1762 C 0.89542 0.05144 0.86889 0.0
C1763 C 0.93664 0.05793 0.84596 0.0
C1764 C 0.85263 0.05247 0.89582 0.0
C1765 C 0.89351 0.05568 0.92891 0.0
N1766 N 0.92452 0.05559 0.86587 0.0
N1767 N 0.90255 0.05312 0.9082 0.0
H1768 H 0.21846 0.82951 0.66099 0.0
H1769 H 0.0705 0.81477 0.59355 0.0
H1770 H 0.14004 0.80719 0.68912 0.0
H1771 H 0.15565 0.8256 0.56517 0.0
H1772 H 0.0954 0.80982 0.6284 0.0
H1773 H 0.19657 0.82568 0.62514 0.0
C1774 C 0.19695 0.82338 0.65952 0.0
C1775 C 0.18099 0.81873 0.67796 0.0
C1776 C 0.10861 0.81293 0.61436 0.0
C1777 C 0.1552 0.81484 0.63716 0.0
C1778 C 0.09439 0.8157 0.5945 0.0
C1779 C 0.11091 0.82048 0.5763 0.0
C1780 C 0.13951 0.81517 0.61601 0.0
C1781 C 0.14186 0.82172 0.57852 0.0
C1782 C 0.18427 0.82132 0.6391 0.0
C1783 C 0.15296 0.81108 0.67528 0.0
N1784 N 0.155 0.81929 0.59794 0.0
N1785 N 0.14072 0.80964 0.6553 0.0
H1786 H 0.12377 0.4528 0.5672 0.0
H1787 H 0.16052 0.45324 0.69315 0.0
H1788 H 0.21235 0.45295 0.59277 0.0
H1789 H 0.07204 0.45169 0.66743 0.0
H1790 H 0.17974 0.45867 0.6568 0.0
H1791 H 0.10435 0.45796 0.60357 0.0
C1792 C 0.13913 0.45448 0.58046 0.0
C1793 C 0.16967 0.45267 0.57705 0.0
C1794 C 0.15605 0.45757 0.6591 0.0
C1795 C 0.1477 0.458 0.61883 0.0
C1796 C 0.14509 0.45465 0.67988 0.0
C1797 C 0.11465 0.45233 0.68329 0.0
C1798 C 0.13644 0.45793 0.64149 0.0
C1799 C 0.0956 0.45377 0.66552 0.0
C1800 C 0.12808 0.45726 0.60124 0.0
C1801 C 0.18869 0.45453 0.59476 0.0
N1802 N 0.10682 0.45629 0.64537 0.0
N1803 N 0.1774 0.45688 0.61492 0.0
H1804 H 0.80989 0.18443 0.34746 0.0
H1805 H 0.95141 0.20016 0.41915 0.0
H1806 H 0.8906 0.20556 0.32144 0.0
H1807 H 0.864 0.19657 0.44646 0.0
H1808 H 0.92926 0.20469 0.38351 0.0
H1809 H 0.82798 0.19088 0.38398 0.0
C1810 C 0.83107 0.19084 0.34947 0.0
C1811 C 0.84879 0.19446 0.33149 0.0
C1812 C 0.91486 0.20343 0.39737 0.0
C1813 C 0.8701 0.20141 0.37309 0.0
C1814 C 0.92755 0.2011 0.41777 0.0
C1815 C 0.90949 0.19831 0.43581 0.0
C1816 C 0.8839 0.20251 0.39492 0.0
C1817 C 0.87864 0.19892 0.43295 0.0
C1818 C 0.8415 0.19445 0.37027 0.0
C1819 C 0.87631 0.20252 0.3349 0.0
N1820 N 0.86683 0.20062 0.41287 0.0
N1821 N 0.88633 0.20545 0.35527 0.0
H1822 H 0.87839 0.55061 0.31318 0.0
H1823 H 0.81863 0.55783 0.41578 0.0
H1824 H 0.96189 0.56114 0.34391 0.0
H1825 H 0.90807 0.55538 0.43948 0.0
H1826 H 0.83675 0.55278 0.37936 0.0
H1827 H 0.85624 0.54512 0.34842 0.0
C1828 C 0.89218 0.55134 0.32745 0.0
C1829 C 0.92203 0.5561 0.32568 0.0
C1830 C 0.8526 0.55268 0.3924 0.0
C1831 C 0.89647 0.55104 0.36651 0.0
C1832 C 0.84204 0.55549 0.41334 0.0
C1833 C 0.8618 0.55663 0.43071 0.0
C1834 C 0.88332 0.55119 0.38868 0.0
C1835 C 0.89208 0.55426 0.42654 0.0
C1836 C 0.87941 0.54857 0.34772 0.0
C1837 C 0.93888 0.55722 0.34462 0.0
N1838 N 0.90191 0.55186 0.40599 0.0
N1839 N 0.92581 0.55491 0.36421 0.0
H1840 H 0.58465 0.30589 0.58741 0.0
H1841 H 0.72611 0.32474 0.65833 0.0
H1842 H 0.67154 0.31151 0.55975 0.0
H1843 H 0.64654 0.30265 0.68496 0.0
H1844 H 0.70793 0.31784 0.62197 0.0
H1845 H 0.60735 0.30205 0.623 0.0
C1846 C 0.60856 0.30554 0.58871 0.0
C1847 C 0.62628 0.30869 0.57058 0.0
C1848 C 0.69467 0.31418 0.63577 0.0
C1849 C 0.65244 0.30528 0.6114 0.0
C1850 C 0.70515 0.31805 0.65649 0.0
C1851 C 0.68776 0.3143 0.67459 0.0
C1852 C 0.66635 0.30678 0.63316 0.0
C1853 C 0.66054 0.30584 0.6714 0.0
C1854 C 0.62155 0.30361 0.60908 0.0
C1855 C 0.65716 0.30886 0.57333 0.0
N1856 N 0.65046 0.30262 0.65111 0.0
N1857 N 0.66923 0.30752 0.59336 0.0
H1858 H 0.568 0.951 0.66985 0.0
H1859 H 0.62127 0.95548 0.56509 0.0
H1860 H 0.65908 0.95141 0.69017 0.0
H1861 H 0.70733 0.94773 0.59319 0.0
H1862 H 0.60099 0.96111 0.60082 0.0
H1863 H 0.58376 0.95615 0.63292 0.0
C1864 C 0.59134 0.95287 0.66656 0.0
C1865 C 0.61221 0.95114 0.68315 0.0
C1866 C 0.62434 0.95832 0.59948 0.0
C1867 C 0.63105 0.95656 0.6404 0.0
C1868 C 0.63601 0.95544 0.57887 0.0
C1869 C 0.66604 0.95139 0.5762 0.0
C1870 C 0.64274 0.95667 0.61775 0.0
C1871 C 0.68413 0.9511 0.59457 0.0
C1872 C 0.60055 0.95569 0.64528 0.0
C1873 C 0.64227 0.95297 0.67787 0.0
N1874 N 0.67215 0.95348 0.61453 0.0
N1875 N 0.65076 0.95538 0.65701 0.0
H1876 H 0.40568 0.69729 0.31195 0.0
H1877 H 0.38648 0.70041 0.43965 0.0
H1878 H 0.32251 0.68628 0.343 0.0
H1879 H 0.46612 0.68192 0.40911 0.0
H1880 H 0.36407 0.70479 0.40411 0.0
H1881 H 0.42878 0.7012 0.34729 0.0
C1882 C 0.39211 0.69607 0.3262 0.0
C1883 C 0.36216 0.69135 0.32459 0.0
C1884 C 0.38662 0.70006 0.40521 0.0
C1885 C 0.38843 0.69597 0.36506 0.0
C1886 C 0.39947 0.69759 0.42546 0.0
C1887 C 0.42805 0.69055 0.42729 0.0
C1888 C 0.40272 0.69581 0.38662 0.0
C1889 C 0.44405 0.68738 0.40833 0.0
C1890 C 0.40536 0.69824 0.34635 0.0
C1891 C 0.34561 0.68999 0.34361 0.0
N1892 N 0.4311 0.68994 0.38874 0.0
N1893 N 0.359 0.69221 0.36312 0.0
H1894 H 0.3187 0.05733 0.41643 0.0
H1895 H 0.37617 0.05247 0.31299 0.0
H1896 H 0.40858 0.05368 0.43897 0.0
H1897 H 0.46079 0.06033 0.34331 0.0
H1898 H 0.35438 0.04626 0.34815 0.0
H1899 H 0.33583 0.05263 0.3797 0.0
C1900 C 0.34198 0.05479 0.41365 0.0
C1901 C 0.36217 0.05553 0.43077 0.0
C1902 C 0.37772 0.04925 0.34738 0.0
C1903 C 0.38258 0.05052 0.38839 0.0
C1904 C 0.39026 0.05246 0.32714 0.0
C1905 C 0.42032 0.0567 0.32529 0.0
C1906 C 0.39527 0.05076 0.36609 0.0
C1907 C 0.43759 0.05685 0.34407 0.0
C1908 C 0.35198 0.0522 0.39252 0.0
C1909 C 0.39227 0.05288 0.42621 0.0
N1910 N 0.42476 0.05414 0.36367 0.0
N1911 N 0.40157 0.05071 0.4055 0.0
H1912 H 0.6126 0.8153 0.19734 0.0
H1913 H 0.63478 0.80144 0.07045 0.0
H1914 H 0.69739 0.80651 0.16758 0.0
H1915 H 0.55745 0.82506 0.09859 0.0
H1916 H 0.65398 0.7955 0.10664 0.0
H1917 H 0.58852 0.81093 0.16232 0.0
C1918 C 0.62602 0.81177 0.18354 0.0
C1919 C 0.65697 0.81099 0.18539 0.0
C1920 C 0.63256 0.8017 0.10494 0.0
C1921 C 0.6297 0.80646 0.14512 0.0
C1922 C 0.62152 0.80501 0.08427 0.0
C1923 C 0.59458 0.81387 0.08156 0.0
C1924 C 0.61646 0.80717 0.12308 0.0
C1925 C 0.57827 0.81817 0.10004 0.0
C1926 C 0.61232 0.80949 0.16352 0.0
C1927 C 0.67345 0.80683 0.16693 0.0
N1928 N 0.58959 0.81494 0.12002 0.0
N1929 N 0.65964 0.8049 0.14752 0.0
H1930 H 0.62266 0.45119 0.06398 0.0
H1931 H 0.66505 0.45194 0.1891 0.0
H1932 H 0.71222 0.45005 0.08767 0.0
H1933 H 0.57545 0.45013 0.16557 0.0
H1934 H 0.68257 0.45718 0.15226 0.0
H1935 H 0.60495 0.45659 0.10076 0.0
C1936 C 0.63864 0.45266 0.07689 0.0
C1937 C 0.66895 0.45048 0.07277 0.0
C1938 C 0.659 0.45608 0.15515 0.0
C1939 C 0.64889 0.45609 0.11507 0.0
C1940 C 0.64901 0.45329 0.17622 0.0
C1941 C 0.61876 0.45091 0.18039 0.0
C1942 C 0.63862 0.45625 0.138 0.0
C1943 C 0.5989 0.45226 0.16308 0.0
C1944 C 0.62854 0.45558 0.09791 0.0
C1945 C 0.68873 0.45202 0.09011 0.0
N1946 N 0.60919 0.45463 0.14263 0.0
N1947 N 0.67835 0.45455 0.11051 0.0
H1948 H 0.31479 0.18316 0.84538 0.0
H1949 H 0.38627 0.20215 0.94243 0.0
H1950 H 0.39805 0.19648 0.81586 0.0
H1951 H 0.46078 0.17974 0.90915 0.0
H1952 H 0.36096 0.20606 0.90787 0.0
H1953 H 0.33738 0.18792 0.88101 0.0
C1954 C 0.33755 0.18753 0.8464 0.0
C1955 C 0.35453 0.18945 0.82767 0.0
C1956 C 0.38292 0.20041 0.90811 0.0
C1957 C 0.38072 0.19454 0.86813 0.0
C1958 C 0.39749 0.19827 0.92781 0.0
C1959 C 0.4254 0.19025 0.92865 0.0
C1960 C 0.3966 0.19471 0.88908 0.0
C1961 C 0.43922 0.18589 0.90915 0.0
C1962 C 0.35047 0.19023 0.86668 0.0
C1963 C 0.38417 0.19476 0.82983 0.0
N1964 N 0.42459 0.18808 0.89013 0.0
N1965 N 0.39648 0.19677 0.84967 0.0
H1966 H 0.37322 0.55122 0.81179 0.0
H1967 H 0.31692 0.55681 0.91558 0.0
H1968 H 0.45833 0.55892 0.84143 0.0
H1969 H 0.40714 0.55383 0.93754 0.0
H1970 H 0.33362 0.5518 0.87881 0.0
H1971 H 0.35176 0.54551 0.84717 0.0
C1972 C 0.38748 0.55127 0.82584 0.0
C1973 C 0.41759 0.55531 0.82373 0.0
C1974 C 0.34996 0.55161 0.89151 0.0
C1975 C 0.39294 0.54997 0.86479 0.0
C1976 C 0.3402 0.55437 0.91267 0.0
C1977 C 0.3606 0.55537 0.92965 0.0
C1978 C 0.38052 0.55001 0.88719 0.0
C1979 C 0.39068 0.55284 0.9249 0.0
C1980 C 0.37514 0.54836 0.84622 0.0
C1981 C 0.43508 0.55557 0.8424 0.0
N1982 N 0.39973 0.55049 0.90416 0.0
N1983 N 0.42245 0.55316 0.86212 0.0
H1984 H 0.99209 0.2105 0.22905 0.0
H1985 H 0.04994 0.29902 0.28477 0.0
H1986 H 0.94492 0.23743 0.27954 0.0
H1987 H 0.09421 0.27394 0.23153 0.0
H1988 H 1.01216 0.27606 0.28393 0.0
H1989 H 0.03 0.23335 0.22997 0.0
C1990 C 0.98955 0.22119 0.24028 0.0
C1991 C 0.96519 0.22178 0.25438 0.0
C1992 C 0.03014 0.2756 0.2724 0.0
C1993 C 1.00894 0.24809 0.25567 0.0
C1994 C 0.05186 0.28869 0.27297 0.0
C1995 C 0.07531 0.28864 0.25808 0.0
C1996 C 0.03184 0.2622 0.25694 0.0
C1997 C 0.07632 0.27485 0.24308 0.0
C1998 C 1.01136 0.23423 0.24089 0.0
C1999 C 0.96349 0.23604 0.26867 0.0
N2000 N 0.05502 0.26228 0.2429 0.0
N2001 N 0.98496 0.24851 0.26896 0.0
H2002 H 0.1817 0.99887 0.25466 0.0
H2003 H 0.35752 0.01244 0.26191 0.0
H2004 H 0.24378 0.95642 0.26029 0.0
H2005 H 0.29699 0.05389 0.24549 0.0
H2006 H 0.31604 0.99218 0.26314 0.0
H2007 H 0.22313 0.01933 0.25312 0.0
C2008 C 0.20403 0.9938 0.2557 0.0
C2009 C 0.20904 0.97577 0.25778 0.0
C2010 C 0.31178 0.00569 0.25921 0.0
C2011 C 0.25698 0.99937 0.25587 0.0
C2012 C 0.33558 0.01735 0.25836 0.0
C2013 C 0.33113 0.03505 0.25326 0.0
C2014 C 0.2829 0.01161 0.25517 0.0
C2015 C 0.30177 0.04048 0.24958 0.0
C2016 C 0.22775 0.00555 0.25468 0.0
C2017 C 0.23866 0.97011 0.25857 0.0
N2018 N 0.2789 0.02885 0.25057 0.0
N2019 N 0.26138 0.98184 0.25774 0.0
H2020 H 0.05894 0.96462 0.02897 0.0
H2021 H 0.97585 0.04788 0.978 0.0
H2022 H 0.08815 0.99043 0.97101 0.0
H2023 H 0.94826 0.02245 0.03664 0.0
H2024 H 0.01728 0.02733 0.97531 0.0
H2025 H 0.01801 0.98541 0.03165 0.0
C2026 C 0.0567 0.97452 0.01666 0.0
C2027 C 0.07735 0.97562 0.99973 0.0
C2028 C 1.00218 0.02626 0.98879 0.0
C2029 C 0.03029 0.99988 1.00292 0.0
C2030 C 0.97856 0.03813 0.99045 0.0
C2031 C 0.95816 0.037 0.00755 0.0
C2032 C 1.0057 0.01307 0.00434 0.0
C2033 C 0.9629 0.02379 0.02295 0.0
C2034 C 0.03335 0.98653 0.01832 0.0
C2035 C 0.07323 0.98908 0.98454 0.0
N2036 N 0.98596 0.01241 0.02095 0.0
N2037 N 0.05033 1.00059 0.9865 0.0
H2038 H 0.33528 0.23236 0.03532 0.0
H2039 H 0.19765 0.2756 0.9725 0.0
H2040 H 0.29421 0.20936 0.97935 0.0
H2041 H 0.23913 0.29871 0.02824 0.0
H2042 H 0.23321 0.25155 0.97437 0.0
H2043 H 0.29974 0.25641 0.0334 0.0
C2044 C 0.31861 0.23219 0.02278 0.0
C2045 C 0.31801 0.21869 0.00745 0.0
C2046 C 0.2346 0.26191 0.98616 0.0
C2047 C 0.27729 0.24658 0.0049 0.0
C2048 C 0.21441 0.27579 0.98498 0.0
C2049 C 0.21511 0.28932 1.00026 0.0
C2050 C 0.25585 0.26143 1.00275 0.0
C2051 C 0.23724 0.28853 0.01626 0.0
C2052 C 0.29844 0.24607 0.02156 0.0
C2053 C 0.29601 0.21952 0.99137 0.0
N2054 N 0.25654 0.27488 0.0171 0.0
N2055 N 0.2767 0.23317 0.9905 0.0
H2056 H 0.94308 0.73252 0.77886 0.0
H2057 H 0.09156 0.77254 0.72817 0.0
H2058 H 0.98621 0.71127 0.72266 0.0
H2059 H 0.04623 0.79532 0.78252 0.0
H2060 H 0.05374 0.74996 0.72631 0.0
H2061 H 0.98081 0.7552 0.78073 0.0
C2062 C 0.9606 0.7325 0.76695 0.0
C2063 C 0.96145 0.71969 0.75069 0.0
C2064 C 0.05196 0.75989 0.73863 0.0
C2065 C 1.00494 0.74608 0.75265 0.0
C2066 C 0.07354 0.77294 0.73966 0.0
C2067 C 0.0721 0.78617 0.75538 0.0
C2068 C 0.02853 0.75982 0.75348 0.0
C2069 C 0.04851 0.78547 0.77016 0.0
C2070 C 0.98211 0.74559 0.76798 0.0
C2071 C 0.98441 0.72081 0.73544 0.0
N2072 N 0.02769 0.7726 0.76879 0.0
N2073 N 1.00522 0.73367 0.73686 0.0
H2074 H 0.7394 0.95333 0.76664 0.0
H2075 H 0.79348 0.05169 0.74384 0.0
H2076 H 0.68083 0.9949 0.74733 0.0
H2077 H 0.85232 0.01046 0.76384 0.0
H2078 H 0.7521 0.03109 0.74511 0.0
H2079 H 0.78111 0.97378 0.76505 0.0
C2080 C 0.73522 0.96669 0.76196 0.0
C2081 C 0.70623 0.97229 0.75732 0.0
C2082 C 0.77408 0.02653 0.7492 0.0
C2083 C 0.75423 0.99598 0.75562 0.0
C2084 C 0.7978 0.03837 0.74861 0.0
C2085 C 0.82677 0.03294 0.75362 0.0
C2086 C 0.77907 0.00902 0.7549 0.0
C2087 C 0.83067 0.01532 0.75943 0.0
C2088 C 0.75911 0.97843 0.76118 0.0
C2089 C 0.7025 0.98992 0.75152 0.0
N2090 N 0.80725 0.00409 0.75989 0.0
N2091 N 0.72603 1.00104 0.75088 0.0
H2092 H 0.73766 0.79798 0.97985 0.0
H2093 H 0.7966 0.71044 0.03729 0.0
H2094 H 0.69075 0.77144 0.03076 0.0
H2095 H 0.83961 0.73429 0.9827 0.0
H2096 H 0.75877 0.73336 0.03613 0.0
H2097 H 0.77572 0.7752 0.98107 0.0
C2098 C 0.7352 0.7874 0.99124 0.0
C2099 C 0.71085 0.7869 0.00536 0.0
C2100 C 0.77648 0.73356 0.02438 0.0
C2101 C 0.75481 0.76069 0.007 0.0
C2102 C 0.79824 0.72049 0.02513 0.0
C2103 C 0.82137 0.72021 0.00997 0.0
C2104 C 0.77781 0.74662 0.00846 0.0
C2105 C 0.82199 0.73365 0.99449 0.0
C2106 C 0.7571 0.7744 0.99201 0.0
C2107 C 0.7093 0.77277 0.01986 0.0
N2108 N 0.80067 0.74622 0.99415 0.0
N2109 N 0.73086 0.76036 0.02032 0.0
H2110 H 0.30791 0.5453 0.77979 0.0
H2111 H 0.22493 0.46242 0.72777 0.0
H2112 H 0.33626 0.5201 0.72117 0.0
H2113 H 0.19622 0.48775 0.78621 0.0
H2114 H 0.26615 0.48308 0.7254 0.0
H2115 H 0.26664 0.52466 0.78218 0.0
C2116 C 0.30538 0.53558 0.76728 0.0
C2117 C 0.32592 0.53455 0.75027 0.0
C2118 C 0.25086 0.48411 0.73877 0.0
C2119 C 0.27859 0.5105 0.75313 0.0
C2120 C 0.22736 0.47218 0.74024 0.0
C2121 C 0.20674 0.47324 0.75719 0.0
C2122 C 0.25404 0.49731 0.75437 0.0
C2123 C 0.2111 0.48647 0.77264 0.0
C2124 C 0.28187 0.52366 0.76877 0.0
C2125 C 0.32146 0.52136 0.73478 0.0
N2126 N 0.23408 0.49791 0.77084 0.0
N2127 N 0.29847 0.50993 0.7366 0.0
H2128 H 0.94195 0.51925 0.5373 0.0
H2129 H 0.07769 0.4821 0.46742 0.0
H2130 H 0.97043 0.54185 0.47717 0.0
H2131 H 0.05872 0.46466 0.53206 0.0
H2132 H 0.03682 0.50278 0.46999 0.0
H2133 H 0.98272 0.49829 0.53502 0.0
C2134 C 0.95673 0.51984 0.52358 0.0
C2135 C 0.95251 0.53244 0.50738 0.0
C2136 C 0.04153 0.49444 0.48363 0.0
C2137 C 0.99957 0.50823 0.50466 0.0
C2138 C 0.06506 0.48259 0.48223 0.0
C2139 C 0.07218 0.47157 0.49963 0.0
C2140 C 0.02451 0.49538 0.50254 0.0
C2141 C 0.05416 0.47268 0.51812 0.0
C2142 C 0.98013 0.50785 0.52234 0.0
C2143 C 0.97282 0.53258 0.49018 0.0
N2144 N 0.03133 0.48436 0.51909 0.0
N2145 N 0.99523 0.52065 0.48923 0.0
H2146 H 0.29215 0.70901 0.53023 0.0
H2147 H 0.23302 0.79473 0.46865 0.0
H2148 H 0.33626 0.73193 0.47547 0.0
H2149 H 0.18978 0.77204 0.52391 0.0
H2150 H 0.27048 0.77157 0.47036 0.0
H2151 H 0.25457 0.73201 0.52821 0.0
C2152 C 0.29409 0.71885 0.51783 0.0
C2153 C 0.3175 0.71827 0.5029 0.0
C2154 C 0.25279 0.77169 0.48214 0.0
C2155 C 0.2741 0.74477 0.50036 0.0
C2156 C 0.23125 0.78489 0.48108 0.0
C2157 C 0.20819 0.7856 0.49628 0.0
C2158 C 0.25133 0.75894 0.49845 0.0
C2159 C 0.20737 0.7724 0.51209 0.0
C2160 C 0.27245 0.73198 0.51659 0.0
C2161 C 0.31843 0.73147 0.48709 0.0
N2162 N 0.22851 0.75974 0.51276 0.0
N2163 N 0.29717 0.74406 0.48624 0.0
H2164 H 0.84559 0.51729 0.2208 0.0
H2165 H 0.70264 0.48367 0.28581 0.0
H2166 H 0.81325 0.54167 0.27884 0.0
H2167 H 0.73196 0.46079 0.226 0.0
H2168 H 0.74348 0.50444 0.28386 0.0
H2169 H 0.80493 0.49631 0.22272 0.0
C2170 C 0.83003 0.51826 0.23401 0.0
C2171 C 0.83319 0.53138 0.24973 0.0
C2172 C 0.74107 0.49488 0.27115 0.0
C2173 C 0.78603 0.50716 0.25196 0.0
C2174 C 0.71757 0.48298 0.27219 0.0
C2175 C 0.71341 0.47038 0.25595 0.0
C2176 C 0.76095 0.49434 0.25375 0.0
C2177 C 0.73418 0.47007 0.23902 0.0
C2178 C 0.80665 0.50625 0.23503 0.0
C2179 C 0.81176 0.532 0.2662 0.0
N2180 N 0.75685 0.48186 0.23834 0.0
N2181 N 0.78931 0.52008 0.26691 0.0
H2182 H 0.70262 0.27361 0.46781 0.0
H2183 H 0.8359 0.23501 0.53927 0.0
H2184 H 0.72904 0.29559 0.52884 0.0
H2185 H 0.8079 0.2127 0.4788 0.0
H2186 H 0.79748 0.25729 0.53568 0.0
H2187 H 0.74148 0.25167 0.47138 0.0
C2188 C 0.71656 0.27387 0.48201 0.0
C2189 C 0.71216 0.28655 0.49812 0.0
C2190 C 0.79966 0.24751 0.5232 0.0
C2191 C 0.75731 0.26119 0.50226 0.0
C2192 C 0.82174 0.23475 0.52519 0.0
C2193 C 0.82548 0.22183 0.50928 0.0
C2194 C 0.78092 0.24755 0.50511 0.0
C2195 C 0.80587 0.22217 0.49164 0.0
C2196 C 0.7389 0.26129 0.484 0.0
C2197 C 0.73156 0.28626 0.51589 0.0
N2198 N 0.78465 0.23479 0.49001 0.0
N2199 N 0.75308 0.27379 0.51751 0.0
H2200 H 0.43992 0.23535 0.77476 0.0
H2201 H 0.59179 0.27159 0.72512 0.0
H2202 H 0.48427 0.21157 0.72067 0.0
H2203 H 0.54382 0.29782 0.77577 0.0
H2204 H 0.55332 0.24938 0.72381 0.0
H2205 H 0.47805 0.25785 0.77582 0.0
C2206 C 0.45777 0.23475 0.76314 0.0
C2207 C 0.45887 0.22129 0.74773 0.0
C2208 C 0.5511 0.26 0.73519 0.0
C2209 C 0.50284 0.24743 0.74877 0.0
C2210 C 0.57306 0.27284 0.73589 0.0
C2211 C 0.5711 0.28692 0.7504 0.0
C2212 C 0.52677 0.26098 0.74919 0.0
C2213 C 0.54655 0.28729 0.76435 0.0
C2214 C 0.47951 0.24774 0.7637 0.0
C2215 C 0.4823 0.22163 0.7328 0.0
N2216 N 0.52541 0.27458 0.76336 0.0
N2217 N 0.50334 0.23439 0.73377 0.0
H2218 H 0.44113 0.01786 0.53755 0.0
H2219 H 0.58282 0.98395 0.47125 0.0
H2220 H 0.47232 0.04183 0.47894 0.0
H2221 H 0.55462 0.96115 0.53136 0.0
H2222 H 0.54192 0.00467 0.47351 0.0
H2223 H 0.48168 0.9968 0.53533 0.0
C2224 C 0.45641 0.01873 0.52415 0.0
C2225 C 0.45296 0.03177 0.50837 0.0
C2226 C 0.54458 0.99513 0.48622 0.0
C2227 C 0.49998 0.00746 0.5058 0.0
C2228 C 0.56811 0.98326 0.48499 0.0
C2229 C 0.57261 0.97071 0.50123 0.0
C2230 C 0.52501 0.99462 0.50381 0.0
C2231 C 0.55212 0.9704 0.51834 0.0
C2232 C 0.47972 0.00667 0.52296 0.0
C2233 C 0.47404 0.03224 0.49165 0.0
N2234 N 0.52941 0.98217 0.51921 0.0
N2235 N 0.49642 0.02029 0.49078 0.0
H2236 H 0.56711 0.78671 0.28758 0.0
H2237 H 0.47813 0.72094 0.21213 0.0
H2238 H 0.56788 0.79251 0.21855 0.0
H2239 H 0.45131 0.73305 0.27728 0.0
H2240 H 0.5141 0.74487 0.21392 0.0
H2241 H 0.52809 0.7647 0.28418 0.0
C2242 C 0.5588 0.78346 0.2717 0.0
C2243 C 0.57056 0.79161 0.25335 0.0
C2244 C 0.50026 0.74221 0.22777 0.0
C2245 C 0.52628 0.76595 0.24923 0.0
C2246 C 0.47954 0.72853 0.22678 0.0
C2247 C 0.46155 0.7245 0.24468 0.0
C2248 C 0.50347 0.75189 0.24688 0.0
C2249 C 0.46505 0.73498 0.26322 0.0
C2250 C 0.53654 0.77087 0.26975 0.0
C2251 C 0.55913 0.78673 0.23313 0.0
N2252 N 0.48561 0.74794 0.26386 0.0
N2253 N 0.53788 0.77409 0.23158 0.0
H2254 H 0.54305 0.45277 0.98995 0.0
H2255 H 0.48706 0.55049 0.01453 0.0
H2256 H 0.60075 0.49438 0.01044 0.0
H2257 H 0.42897 0.50905 0.99406 0.0
H2258 H 0.52884 0.53017 0.01296 0.0
H2259 H 0.50097 0.47293 0.99189 0.0
C2260 C 0.54697 0.46607 0.99497 0.0
C2261 C 0.57584 0.47177 0.99984 0.0
C2262 C 0.50693 0.52551 0.00883 0.0
C2263 C 0.52739 0.49515 1.00193 0.0
C2264 C 0.48298 0.53718 0.00959 0.0
C2265 C 0.45411 0.53162 0.00453 0.0
C2266 C 0.50228 0.50802 1.00289 0.0
C2267 C 0.45054 0.51402 0.99852 0.0
C2268 C 0.52286 0.47765 0.99594 0.0
C2269 C 0.57921 0.48933 0.00606 0.0
N2270 N 0.47417 0.50294 0.99787 0.0
N2271 N 0.55547 0.5003 0.00688 0.0
H2272 H 0.14738 0.40807 0.42211 0.0
H2273 H 0.24356 0.36421 0.3283 0.0
H2274 H 0.24145 0.40072 0.42881 0.0
H2275 H 0.15007 0.35554 0.33642 0.0
H2276 H 0.24447 0.37987 0.36305 0.0
H2277 H 0.14883 0.39216 0.38784 0.0
C2278 C 0.16842 0.40332 0.41613 0.0
C2279 C 0.19432 0.4057 0.42825 0.0
C2280 C 0.22383 0.37439 0.35731 0.0
C2281 C 0.19623 0.38735 0.3891 0.0
C2282 C 0.22338 0.36538 0.33761 0.0
C2283 C 0.19672 0.3586 0.3296 0.0
C2284 C 0.19731 0.37686 0.36883 0.0
C2285 C 0.17106 0.36057 0.34211 0.0
C2286 C 0.16923 0.3941 0.3967 0.0
C2287 C 0.22103 0.39922 0.41986 0.0
N2288 N 0.17192 0.36967 0.36093 0.0
N2289 N 0.22133 0.39033 0.4008 0.0
H2290 H 0.06148 0.8808 0.31247 0.0
H2291 H 0.05582 0.87815 0.44001 0.0
H2292 H 0.09452 0.92416 0.34944 0.0
H2293 H 0.0987 0.83658 0.40531 0.0
H2294 H 0.0514 0.89457 0.40611 0.0
H2295 H 0.0568 0.86383 0.34595 0.0
C2296 C 0.06712 0.88688 0.32768 0.0
C2297 C 0.07833 0.90397 0.32814 0.0
C2298 C 0.06105 0.88166 0.40592 0.0
C2299 C 0.07229 0.88477 0.36644 0.0
C2300 C 0.06334 0.87222 0.42514 0.0
C2301 C 0.0771 0.85578 0.42548 0.0
C2302 C 0.07187 0.87446 0.38672 0.0
C2303 C 0.08706 0.84889 0.40578 0.0
C2304 C 0.06454 0.87717 0.34669 0.0
C2305 C 0.08536 0.91117 0.34833 0.0
N2306 N 0.08417 0.85823 0.38718 0.0
N2307 N 0.08211 0.90157 0.36668 0.0
H2308 H 0.21871 0.88095 0.81494 0.0
H2309 H 0.21174 0.88324 0.94161 0.0
H2310 H 0.17393 0.83945 0.84843 0.0
H2311 H 0.17447 0.92629 0.90623 0.0
H2312 H 0.21614 0.86678 0.9078 0.0
H2313 H 0.22069 0.89759 0.84886 0.0
C2314 C 0.21017 0.87511 0.82956 0.0
C2315 C 0.19679 0.85857 0.82891 0.0
C2316 C 0.2073 0.8799 0.90748 0.0
C2317 C 0.19925 0.87746 0.86764 0.0
C2318 C 0.20476 0.8893 0.92668 0.0
C2319 C 0.19223 0.90608 0.92678 0.0
C2320 C 0.19838 0.88754 0.88805 0.0
C2321 C 0.18411 0.9134 0.90689 0.0
C2322 C 0.21107 0.88466 0.84877 0.0
C2323 C 0.18544 0.8518 0.84826 0.0
N2324 N 0.18741 0.90411 0.88828 0.0
N2325 N 0.18711 0.86121 0.86686 0.0
H2326 H 0.04999 0.40384 0.83008 0.0
H2327 H 0.14107 0.35421 0.92187 0.0
H2328 H 0.14429 0.40913 0.83802 0.0
H2329 H 0.0486 0.36627 0.92962 0.0
H2330 H 0.14144 0.37062 0.88791 0.0
H2331 H 0.04774 0.38753 0.86414 0.0
C2332 C 0.07012 0.40189 0.83927 0.0
C2333 C 0.09734 0.40806 0.83141 0.0
C2334 C 0.12098 0.36957 0.89691 0.0
C2335 C 0.09511 0.38877 0.86987 0.0
C2336 C 0.1207 0.36003 0.91611 0.0
C2337 C 0.09473 0.35886 0.92842 0.0
C2338 C 0.095 0.37784 0.88977 0.0
C2339 C 0.06898 0.3668 0.92046 0.0
C2340 C 0.06886 0.39244 0.85857 0.0
C2341 C 0.12286 0.40477 0.84366 0.0
N2342 N 0.06973 0.37597 0.90162 0.0
N2343 N 0.12119 0.3952 0.86211 0.0
H2344 H 0.85841 0.66793 0.65859 0.0
H2345 H 0.85705 0.57978 0.59906 0.0
H2346 H 0.8144 0.6254 0.69063 0.0
H2347 H 0.81961 0.62392 0.56591 0.0
H2348 H 0.85149 0.59564 0.63347 0.0
H2349 H 0.85421 0.65207 0.62433 0.0
C2350 C 0.84699 0.65554 0.65833 0.0
C2351 C 0.83585 0.64825 0.67744 0.0
C2352 C 0.84436 0.60173 0.61861 0.0
C2353 C 0.83309 0.62952 0.63859 0.0
C2354 C 0.84746 0.59271 0.59905 0.0
C2355 C 0.83906 0.6006 0.57958 0.0
C2356 C 0.83361 0.61892 0.61856 0.0
C2357 C 0.8268 0.61745 0.5805 0.0
C2358 C 0.84503 0.64639 0.63884 0.0
C2359 C 0.8228 0.63162 0.67621 0.0
N2360 N 0.82505 0.62618 0.59956 0.0
N2361 N 0.82228 0.62267 0.65724 0.0
H2362 H 0.91752 0.08144 0.66029 0.0
H2363 H 0.91808 0.17101 0.60077 0.0
H2364 H 0.95592 0.12566 0.69268 0.0
H2365 H 0.95452 0.12645 0.56789 0.0
H2366 H 0.92174 0.1549 0.63511 0.0
H2367 H 0.92085 0.09749 0.62589 0.0
C2368 C 0.92683 0.09444 0.66013 0.0
C2369 C 0.9362 0.10227 0.67939 0.0
C2370 C 0.92899 0.14874 0.62032 0.0
C2371 C 0.93903 0.12084 0.64044 0.0
C2372 C 0.927 0.15792 0.60081 0.0
C2373 C 0.9357 0.15 0.58143 0.0
C2374 C 0.93893 0.13138 0.62033 0.0
C2375 C 0.94712 0.13295 0.58241 0.0
C2376 C 0.92862 0.10358 0.64058 0.0
C2377 C 0.94803 0.11922 0.67825 0.0
N2378 N 0.94784 0.12408 0.60142 0.0
N2379 N 0.94856 0.12806 0.65923 0.0
H2380 H 0.801 0.1447 0.18182 0.0
H2381 H 0.89705 0.09999 0.08794 0.0
H2382 H 0.89502 0.15189 0.17478 0.0
H2383 H 0.80255 0.10626 0.08302 0.0
H2384 H 0.89624 0.11602 0.12221 0.0
H2385 H 0.80029 0.12856 0.14744 0.0
C2386 C 0.82139 0.14307 0.17285 0.0
C2387 C 0.8481 0.14959 0.18109 0.0
C2388 C 0.87561 0.11376 0.11378 0.0
C2389 C 0.8477 0.13081 0.14214 0.0
C2390 C 0.87606 0.10444 0.09435 0.0
C2391 C 0.84981 0.10159 0.08279 0.0
C2392 C 0.84865 0.12022 0.12187 0.0
C2393 C 0.82323 0.10793 0.09162 0.0
C2394 C 0.82105 0.13378 0.15334 0.0
C2395 C 0.87398 0.14704 0.16895 0.0
N2396 N 0.8233 0.11692 0.1106 0.0
N2397 N 0.87319 0.13772 0.15027 0.0
H2398 H 0.92683 0.66824 0.10005 0.0
H2399 H 0.92912 0.57926 0.15763 0.0
H2400 H 0.97064 0.62615 0.06695 0.0
H2401 H 0.96547 0.62322 0.19178 0.0
H2402 H 0.93479 0.59555 0.12354 0.0
H2403 H 0.93148 0.65198 0.13398 0.0
C2404 C 0.93833 0.65587 0.10001 0.0
C2405 C 0.94925 0.64881 0.0807 0.0
C2406 C 0.94169 0.6015 0.13855 0.0
C2407 C 0.95251 0.62961 0.11917 0.0
C2408 C 0.93854 0.59223 0.15792 0.0
C2409 C 0.94658 0.59995 0.17758 0.0
C2410 C 0.95212 0.61875 0.13897 0.0
C2411 C 0.9586 0.61687 0.17703 0.0
C2412 C 0.94053 0.64649 0.11931 0.0
C2413 C 0.9624 0.6322 0.08153 0.0
N2414 N 0.96039 0.62583 0.15815 0.0
N2415 N 0.96316 0.62301 0.10033 0.0
H2416 H 0.73243 0.4025 0.92428 0.0
H2417 H 0.6392 0.35583 0.83076 0.0
H2418 H 0.63796 0.4078 0.91764 0.0
H2419 H 0.7329 0.36493 0.82498 0.0
H2420 H 0.63909 0.3719 0.86497 0.0
H2421 H 0.73397 0.3868 0.88974 0.0
C2422 C 0.7121 0.40067 0.91529 0.0
C2423 C 0.68506 0.4067 0.92366 0.0
C2424 C 0.65974 0.37034 0.85633 0.0
C2425 C 0.68648 0.38813 0.88453 0.0
C2426 C 0.65983 0.36103 0.83692 0.0
C2427 C 0.68608 0.35911 0.82506 0.0
C2428 C 0.68619 0.37763 0.86418 0.0
C2429 C 0.71223 0.36612 0.83369 0.0
C2430 C 0.71294 0.39157 0.89569 0.0
C2431 C 0.65927 0.40355 0.91163 0.0
N2432 N 0.71165 0.37508 0.85271 0.0
N2433 N 0.66057 0.39438 0.89283 0.0
H2434 H 0.64246 0.85543 0.92561 0.0
H2435 H 0.54973 0.9016 0.83137 0.0
H2436 H 0.54854 0.86406 0.9306 0.0
H2437 H 0.64412 0.90709 0.83843 0.0
H2438 H 0.54802 0.88583 0.86584 0.0
H2439 H 0.64282 0.87134 0.89129 0.0
C2440 C 0.62184 0.86049 0.91925 0.0
C2441 C 0.59544 0.85849 0.93092 0.0
C2442 C 0.56907 0.89064 0.85998 0.0
C2443 C 0.59561 0.87682 0.89167 0.0
C2444 C 0.57001 0.89977 0.84042 0.0
C2445 C 0.59707 0.9059 0.8322 0.0
C2446 C 0.59546 0.88726 0.87128 0.0
C2447 C 0.62278 0.90276 0.84432 0.0
C2448 C 0.62206 0.86971 0.89978 0.0
C2449 C 0.56932 0.86532 0.92205 0.0
N2450 N 0.62139 0.89356 0.86309 0.0
N2451 N 0.57004 0.8742 0.90297 0.0
H2452 H 0.72719 0.90032 0.42863 0.0
H2453 H 0.62991 0.85522 0.33574 0.0
H2454 H 0.63273 0.90668 0.42353 0.0
H2455 H 0.72462 0.86062 0.33157 0.0
H2456 H 0.6306 0.87153 0.36985 0.0
H2457 H 0.72704 0.88412 0.39449 0.0
C2458 C 0.70651 0.89862 0.42003 0.0
C2459 C 0.68 0.90512 0.4287 0.0
C2460 C 0.65128 0.869 0.36161 0.0
C2461 C 0.67942 0.88598 0.39001 0.0
C2462 C 0.6509 0.85953 0.34229 0.0
C2463 C 0.67728 0.85633 0.33101 0.0
C2464 C 0.67829 0.8753 0.36983 0.0
C2465 C 0.70386 0.86252 0.33996 0.0
C2466 C 0.70636 0.88922 0.40067 0.0
C2467 C 0.65368 0.9021 0.41723 0.0
N2468 N 0.70369 0.87168 0.3588 0.0
N2469 N 0.65401 0.89266 0.3986 0.0
H2470 H 0.55837 0.35785 0.4242 0.0
H2471 H 0.6544 0.4054 0.33299 0.0
H2472 H 0.65261 0.35104 0.41795 0.0
H2473 H 0.5602 0.39811 0.32726 0.0
H2474 H 0.65388 0.38825 0.36646 0.0
H2475 H 0.55803 0.37438 0.39032 0.0
C2476 C 0.57887 0.35947 0.41537 0.0
C2477 C 0.60549 0.3528 0.42367 0.0
C2478 C 0.63326 0.39053 0.35801 0.0
C2479 C 0.60552 0.37238 0.38537 0.0
C2480 C 0.63353 0.40049 0.33908 0.0
C2481 C 0.60726 0.40337 0.32754 0.0
C2482 C 0.60646 0.38349 0.3656 0.0
C2483 C 0.58085 0.39643 0.33588 0.0
C2484 C 0.57874 0.36907 0.39618 0.0
C2485 C 0.63158 0.35574 0.41192 0.0
N2486 N 0.58111 0.38685 0.35437 0.0
N2487 N 0.63101 0.36544 0.39352 0.0
H2488 H 0.31411 0.62764 0.18944 0.0
H2489 H 0.32022 0.62404 0.06245 0.0
H2490 H 0.35552 0.66959 0.15456 0.0
H2491 H 0.35721 0.58153 0.09897 0.0
H2492 H 0.3153 0.64094 0.09586 0.0
H2493 H 0.31193 0.61061 0.15584 0.0
C2494 C 0.32182 0.63349 0.17458 0.0
C2495 C 0.33447 0.65023 0.17478 0.0
C2496 C 0.32417 0.62785 0.09653 0.0
C2497 C 0.3318 0.63088 0.13638 0.0
C2498 C 0.327 0.61818 0.07754 0.0
C2499 C 0.33958 0.60141 0.07787 0.0
C2500 C 0.33289 0.6205 0.11618 0.0
C2501 C 0.34749 0.59439 0.09797 0.0
C2502 C 0.32084 0.62371 0.15555 0.0
C2503 C 0.34472 0.65703 0.15512 0.0
N2504 N 0.34393 0.60395 0.11636 0.0
N2505 N 0.34302 0.64737 0.1367 0.0
H2506 H 0.48579 0.10579 0.17866 0.0
H2507 H 0.39304 0.15484 0.08734 0.0
H2508 H 0.3914 0.10023 0.17158 0.0
H2509 H 0.48511 0.14229 0.07844 0.0
H2510 H 0.39337 0.13873 0.12153 0.0
H2511 H 0.48739 0.12189 0.14442 0.0
C2512 C 0.46551 0.10764 0.16963 0.0
C2513 C 0.43846 0.10144 0.17777 0.0
C2514 C 0.4136 0.13962 0.11223 0.0
C2515 C 0.43993 0.1205 0.13913 0.0
C2516 C 0.41349 0.14898 0.0929 0.0
C2517 C 0.43912 0.14992 0.0802 0.0
C2518 C 0.43966 0.13129 0.1191 0.0
C2519 C 0.46499 0.14194 0.0879 0.0
C2520 C 0.46639 0.11697 0.15023 0.0
C2521 C 0.41271 0.10462 0.16572 0.0
N2522 N 0.46463 0.13294 0.10687 0.0
N2523 N 0.41403 0.11408 0.14717 0.0
H2524 H 0.35573 0.16971 0.65773 0.0
H2525 H 0.35539 0.08102 0.59899 0.0
H2526 H 0.3113 0.12716 0.68941 0.0
H2527 H 0.32014 0.12519 0.56467 0.0
H2528 H 0.34906 0.09719 0.6331 0.0
H2529 H 0.35234 0.15377 0.62347 0.0
C2530 C 0.34438 0.15729 0.65738 0.0
C2531 C 0.33293 0.15 0.67639 0.0
C2532 C 0.34259 0.10323 0.61805 0.0
C2533 C 0.33107 0.13119 0.63757 0.0
C2534 C 0.34614 0.09403 0.59866 0.0
C2535 C 0.33854 0.10182 0.57895 0.0
C2536 C 0.33221 0.12048 0.61763 0.0
C2537 C 0.32671 0.11879 0.57946 0.0
C2538 C 0.34288 0.1481 0.63789 0.0
C2539 C 0.31994 0.13337 0.67506 0.0
N2540 N 0.3245 0.12768 0.59838 0.0
N2541 N 0.31987 0.12438 0.65612 0.0
H2542 H 0.38701 0.59699 0.66993 0.0
H2543 H 0.48321 0.64206 0.57677 0.0
H2544 H 0.48128 0.60386 0.67583 0.0
H2545 H 0.38958 0.65038 0.58463 0.0
H2546 H 0.48389 0.62579 0.61104 0.0
H2547 H 0.3881 0.61327 0.63585 0.0
C2548 C 0.40802 0.60161 0.66375 0.0
C2549 C 0.43411 0.5989 0.67554 0.0
C2550 C 0.46325 0.63132 0.60536 0.0
C2551 C 0.4356 0.61779 0.63674 0.0
C2552 C 0.46294 0.64069 0.58594 0.0
C2553 C 0.43633 0.64757 0.57798 0.0
C2554 C 0.43665 0.62858 0.61669 0.0
C2555 C 0.41055 0.64531 0.59031 0.0
C2556 C 0.40863 0.61107 0.64446 0.0
C2557 C 0.46074 0.60544 0.66704 0.0
N2558 N 0.41128 0.63585 0.60887 0.0
N2559 N 0.46082 0.61456 0.64817 0.0
H2560 H 0.30948 0.39177 0.25325 0.0
H2561 H 0.48028 0.3656 0.25436 0.0
H2562 H 0.33909 0.33905 0.24169 0.0
H2563 H 0.45166 0.4167 0.23463 0.0
H2564 H 0.42841 0.356 0.25468 0.0
H2565 H 0.36091 0.40157 0.25081 0.0
C2566 C 0.32648 0.38218 0.25007 0.0
C2567 C 0.31926 0.3644 0.24782 0.0
C2568 C 0.43347 0.3693 0.2502 0.0
C2569 C 0.37888 0.37571 0.24568 0.0
C2570 C 0.46309 0.3748 0.25008 0.0
C2571 C 0.47044 0.39198 0.24437 0.0
C2572 C 0.41076 0.38113 0.24506 0.0
C2573 C 0.4471 0.40331 0.23892 0.0
C2574 C 0.35601 0.38786 0.24881 0.0
C2575 C 0.34301 0.35279 0.24416 0.0
N2576 N 0.41837 0.39776 0.23961 0.0
N2577 N 0.37152 0.35861 0.2434 0.0
H2578 H 0.80807 0.89054 0.26598 0.0
H2579 H 0.9757 0.87226 0.22818 0.0
H2580 H 0.83249 0.8452 0.22891 0.0
H2581 H 0.94861 0.91529 0.26832 0.0
H2582 H 0.92417 0.86177 0.228 0.0
H2583 H 0.85972 0.89963 0.26629 0.0
C2584 C 0.82424 0.8824 0.25796 0.0
C2585 C 0.81557 0.86695 0.24753 0.0
C2586 C 0.92958 0.87351 0.23683 0.0
C2587 C 0.87551 0.87754 0.24763 0.0
C2588 C 0.95907 0.87945 0.23706 0.0
C2589 C 0.9667 0.89485 0.24806 0.0
C2590 C 0.90745 0.88297 0.24775 0.0
C2591 C 0.94394 0.9036 0.25917 0.0
C2592 C 0.8539 0.88768 0.25806 0.0
C2593 C 0.83785 0.85728 0.23701 0.0
N2594 N 0.9156 0.8976 0.25866 0.0
N2595 N 0.86669 0.86269 0.23738 0.0
H2596 H 0.33564 0.91881 0.02199 0.0
H2597 H 0.44692 0.83831 0.0138 0.0
H2598 H 0.30802 0.86816 0.99984 0.0
H2599 H 0.477 0.89133 0.00557 0.0
H2600 H 0.39604 0.84874 0.01427 0.0
H2601 H 0.38734 0.90869 0.02195 0.0
C2602 C 0.3404 0.90552 0.0173 0.0
C2603 C 0.31734 0.89433 0.01092 0.0
C2604 C 0.41381 0.85808 0.01234 0.0
C2605 C 0.37658 0.8826 0.01101 0.0
C2606 C 0.44313 0.85213 0.01187 0.0
C2607 C 0.46699 0.86382 0.00927 0.0
C2608 C 0.4078 0.87595 0.01071 0.0
C2609 C 0.45985 0.88168 0.00779 0.0
C2610 C 0.36994 0.89979 0.01714 0.0
C2611 C 0.32499 0.87727 0.00478 0.0
N2612 N 0.43106 0.88716 0.0086 0.0
N2613 N 0.35381 0.87192 0.00513 0.0
H2614 H 0.9549 0.34752 0.9809 0.0
H2615 H 0.83505 0.41367 0.03032 0.0
H2616 H 0.97593 0.3837 0.03191 0.0
H2617 H 0.81324 0.37127 0.98747 0.0
H2618 H 0.88669 0.40387 0.03043 0.0
H2619 H 0.90357 0.3572 0.98209 0.0
C2620 C 0.94885 0.35741 0.99251 0.0
C2621 C 0.9702 0.36458 0.0065 0.0
C2622 C 0.87057 0.3967 0.02103 0.0
C2623 C 0.91067 0.3761 0.00761 0.0
C2624 C 0.84088 0.40222 0.02107 0.0
C2625 C 0.8193 0.3934 0.0088 0.0
C2626 C 0.87909 0.38225 0.00856 0.0
C2627 C 0.82881 0.3788 0.99688 0.0
C2628 C 0.91935 0.36303 0.99307 0.0
C2629 C 0.96061 0.3778 0.02067 0.0
N2630 N 0.85778 0.37378 0.99703 0.0
N2631 N 0.93169 0.38308 0.02087 0.0
H2632 H 0.72879 0.62022 0.78054 0.0
H2633 H 0.56213 0.6353 0.73897 0.0
H2634 H 0.70408 0.65733 0.73149 0.0
H2635 H 0.58642 0.59211 0.77983 0.0
H2636 H 0.61382 0.64435 0.73802 0.0
H2637 H 0.67713 0.61029 0.78197 0.0
C2638 C 0.7127 0.62624 0.76996 0.0
C2639 C 0.72115 0.63982 0.756 0.0
C2640 C 0.60792 0.63288 0.74722 0.0
C2641 C 0.66151 0.6286 0.75785 0.0
C2642 C 0.57825 0.62761 0.7477 0.0
C2643 C 0.56952 0.61274 0.75934 0.0
C2644 C 0.62949 0.62335 0.75854 0.0
C2645 C 0.59176 0.60373 0.77076 0.0
C2646 C 0.68308 0.62061 0.77091 0.0
C2647 C 0.69888 0.64714 0.74291 0.0
N2648 N 0.62059 0.60913 0.77003 0.0
N2649 N 0.67033 0.64152 0.74423 0.0
H2650 H 0.0588 0.13775 0.74055 0.0
H2651 H 0.22613 0.12204 0.78042 0.0
H2652 H 0.08354 0.09439 0.78099 0.0
H2653 H 0.20101 0.15919 0.73153 0.0
H2654 H 0.17441 0.11226 0.78226 0.0
H2655 H 0.1106 0.14655 0.73895 0.0
C2656 C 0.07501 0.12997 0.74905 0.0
C2657 C 0.06634 0.11513 0.7608 0.0
C2658 C 0.18028 0.12256 0.77114 0.0
C2659 C 0.12648 0.12547 0.75925 0.0
C2660 C 0.20994 0.1281 0.76996 0.0
C2661 C 0.21831 0.14166 0.75594 0.0
C2662 C 0.15857 0.13061 0.75826 0.0
C2663 C 0.1959 0.14902 0.743 0.0
C2664 C 0.10477 0.1351 0.7482 0.0
C2665 C 0.08878 0.10599 0.77189 0.0
N2666 N 0.16731 0.14348 0.74455 0.0
N2667 N 0.11766 0.11127 0.77081 0.0
H2668 H 0.57797 0.15999 0.02707 0.0
H2669 H 0.69747 0.0938 0.97725 0.0
H2670 H 0.55636 0.12355 0.97647 0.0
H2671 H 0.71962 0.1365 0.01955 0.0
H2672 H 0.64575 0.10348 0.97748 0.0
H2673 H 0.62931 0.15034 0.02559 0.0
C2674 C 0.5839 0.15004 0.01549 0.0
C2675 C 0.56239 0.1428 1.00169 0.0
C2676 C 0.66197 0.11073 0.98668 0.0
C2677 C 0.62193 0.13132 1.00024 0.0
C2678 C 0.6917 0.10529 0.98645 0.0
C2679 C 0.71339 0.11423 0.99847 0.0
C2680 C 0.65354 0.12524 0.99909 0.0
C2681 C 0.70396 0.12888 0.01033 0.0
C2682 C 0.61341 0.14444 0.01476 0.0
C2683 C 0.57181 0.12952 0.98756 0.0
N2684 N 0.67495 0.13382 0.01038 0.0
N2685 N 0.60075 0.12426 0.98719 0.0
H2686 H 0.19703 0.59213 0.97547 0.0
H2687 H 0.07913 0.65845 0.02692 0.0
H2688 H 0.22039 0.63549 0.01637 0.0
H2689 H 0.05545 0.62158 0.97731 0.0
H2690 H 0.13035 0.64878 0.02452 0.0
H2691 H 0.14519 0.60156 0.97672 0.0
C2692 C 0.19149 0.60371 0.98456 0.0
C2693 C 0.21356 0.61291 0.9959 0.0
C2694 C 0.11403 0.64278 0.0141 0.0
C2695 C 0.15361 0.62362 0.99771 0.0
C2696 C 0.08459 0.64838 0.01537 0.0
C2697 C 0.06256 0.64107 1.00208 0.0
C2698 C 0.122 0.62958 0.99954 0.0
C2699 C 0.07137 0.62762 0.98798 0.0
C2700 C 0.1617 0.60901 0.98538 0.0
C2701 C 0.20445 0.62767 0.00767 0.0
N2702 N 0.1003 0.62237 0.98705 0.0
N2703 N 0.17539 0.63247 0.0083 0.0
H2704 H 0.47307 0.86767 0.75677 0.0
H2705 H 0.30222 0.8934 0.75573 0.0
H2706 H 0.44491 0.91902 0.73767 0.0
H2707 H 0.33256 0.84125 0.74155 0.0
H2708 H 0.35362 0.90352 0.75368 0.0
H2709 H 0.42118 0.85812 0.75645 0.0
C2710 C 0.45596 0.87694 0.75249 0.0
C2711 C 0.46344 0.89416 0.74713 0.0
C2712 C 0.34886 0.88987 0.75103 0.0
C2713 C 0.40374 0.88337 0.74714 0.0
C2714 C 0.31937 0.88402 0.75208 0.0
C2715 C 0.31241 0.86627 0.74909 0.0
C2716 C 0.37188 0.87791 0.74734 0.0
C2717 C 0.33629 0.85492 0.74471 0.0
C2718 C 0.42634 0.87147 0.75225 0.0
C2719 C 0.44022 0.90558 0.7417 0.0
N2720 N 0.36471 0.86087 0.74421 0.0
N2721 N 0.41146 0.90006 0.74205 0.0
H2722 H 0.80667 0.38354 0.72217 0.0
H2723 H 0.97165 0.37159 0.76811 0.0
H2724 H 0.82936 0.34947 0.775 0.0
H2725 H 0.9474 0.41379 0.72565 0.0
H2726 H 0.92019 0.36206 0.76848 0.0
H2727 H 0.8581 0.39375 0.72131 0.0
C2728 C 0.82224 0.37824 0.7337 0.0
C2729 C 0.81326 0.36544 0.7486 0.0
C2730 C 0.92607 0.37341 0.75906 0.0
C2731 C 0.87275 0.37697 0.74736 0.0
C2732 C 0.9556 0.37897 0.75891 0.0
C2733 C 0.96427 0.39371 0.74699 0.0
C2734 C 0.90463 0.38249 0.74709 0.0
C2735 C 0.94214 0.40228 0.73495 0.0
C2736 C 0.85176 0.38403 0.73307 0.0
C2737 C 0.83498 0.35901 0.76286 0.0
N2738 N 0.91348 0.39658 0.73534 0.0
N2739 N 0.86349 0.36476 0.76181 0.0
H2740 H 0.33819 0.41781 0.49143 0.0
H2741 H 0.45444 0.34438 0.5286 0.0
H2742 H 0.31229 0.37241 0.52774 0.0
H2743 H 0.47748 0.3895 0.49073 0.0
H2744 H 0.40281 0.3543 0.52917 0.0
H2745 H 0.38918 0.4074 0.49137 0.0
C2746 C 0.34318 0.40567 0.49953 0.0
C2747 C 0.32065 0.39611 0.5098 0.0
C2748 C 0.41917 0.36203 0.52074 0.0
C2749 C 0.37971 0.38391 0.50962 0.0
C2750 C 0.44882 0.35643 0.52054 0.0
C2751 C 0.47069 0.36604 0.50956 0.0
C2752 C 0.4111 0.37743 0.50997 0.0
C2753 C 0.46161 0.38144 0.49916 0.0
C2754 C 0.37244 0.39967 0.49938 0.0
C2755 C 0.32872 0.38023 0.51953 0.0
N2756 N 0.43272 0.3866 0.49964 0.0
N2757 N 0.35751 0.37469 0.5193 0.0
H2758 H 0.94885 0.8405 0.51785 0.0
H2759 H 0.83537 0.91985 0.52074 0.0
H2760 H 0.97681 0.89235 0.49991 0.0
H2761 H 0.8087 0.86785 0.50332 0.0
H2762 H 0.88753 0.91039 0.51991 0.0
H2763 H 0.89793 0.85068 0.5192 0.0
C2764 C 0.94458 0.854 0.51394 0.0
C2765 C 0.96784 0.86538 0.50822 0.0
C2766 C 0.87023 0.90107 0.51632 0.0
C2767 C 0.9086 0.87733 0.5108 0.0
C2768 C 0.84046 0.90641 0.51694 0.0
C2769 C 0.81755 0.89462 0.51212 0.0
C2770 C 0.87721 0.88368 0.51139 0.0
C2771 C 0.82556 0.8774 0.50708 0.0
C2772 C 0.91524 0.85981 0.51494 0.0
C2773 C 0.96013 0.88295 0.50447 0.0
N2774 N 0.85458 0.87243 0.50703 0.0
N2775 N 0.93132 0.88835 0.50587 0.0
H2776 H 0.5883 0.09495 0.28369 0.0
H2777 H 0.70712 0.15981 0.2311 0.0
H2778 H 0.56545 0.13744 0.24127 0.0
H2779 H 0.72867 0.12606 0.28449 0.0
H2780 H 0.6559 0.15007 0.23308 0.0
H2781 H 0.63996 0.10472 0.28311 0.0
C2782 C 0.59391 0.10641 0.2744 0.0
C2783 C 0.57207 0.11525 0.26242 0.0
C2784 C 0.67178 0.14479 0.24441 0.0
C2785 C 0.63178 0.12633 0.26136 0.0
C2786 C 0.7012 0.15044 0.24339 0.0
C2787 C 0.72263 0.144 0.25783 0.0
C2788 C 0.66329 0.13239 0.25986 0.0
C2789 C 0.71326 0.13139 0.27288 0.0
C2790 C 0.62358 0.11191 0.27397 0.0
C2791 C 0.58125 0.12988 0.25044 0.0
N2792 N 0.68441 0.12604 0.2735 0.0
N2793 N 0.61021 0.13484 0.25015 0.0
H2794 H 0.06403 0.63703 0.23984 0.0
H2795 H 0.23202 0.62222 0.27898 0.0
H2796 H 0.08961 0.59385 0.28028 0.0
H2797 H 0.20552 0.65974 0.23092 0.0
H2798 H 0.18047 0.61209 0.28105 0.0
H2799 H 0.11562 0.64623 0.23829 0.0
C2800 C 0.08041 0.62938 0.24837 0.0
C2801 C 0.07204 0.61446 0.26006 0.0
C2802 C 0.186 0.62255 0.27007 0.0
C2803 C 0.13196 0.62524 0.25855 0.0
C2804 C 0.21556 0.62829 0.26876 0.0
C2805 C 0.22349 0.64206 0.2549 0.0
C2806 C 0.16397 0.6306 0.25747 0.0
C2807 C 0.20075 0.64942 0.24226 0.0
C2808 C 0.11004 0.63473 0.24753 0.0
C2809 C 0.09464 0.60549 0.27119 0.0
N2810 N 0.17229 0.64367 0.24392 0.0
N2811 N 0.12343 0.61098 0.27011 0.0
H2812 H 0.69677 0.59395 0.47445 0.0
H2813 H 0.57736 0.65915 0.52616 0.0
H2814 H 0.71932 0.63652 0.51684 0.0
H2815 H 0.55572 0.62361 0.47459 0.0
H2816 H 0.6288 0.64974 0.52416 0.0
H2817 H 0.64504 0.60354 0.47511 0.0
C2818 C 0.69108 0.60539 0.48375 0.0
C2819 C 0.7129 0.61432 0.49567 0.0
C2820 C 0.61285 0.64399 0.51323 0.0
C2821 C 0.65301 0.62521 0.49683 0.0
C2822 C 0.58329 0.64945 0.51426 0.0
C2823 C 0.56173 0.64239 0.50036 0.0
C2824 C 0.62138 0.63117 0.4983 0.0
C2825 C 0.57118 0.62942 0.4858 0.0
C2826 C 0.66134 0.61079 0.48423 0.0
C2827 C 0.70357 0.62891 0.50769 0.0
N2828 N 0.60016 0.62428 0.48515 0.0
N2829 N 0.67454 0.63379 0.508 0.0
H2830 H 0.05354 0.11206 0.50359 0.0
H2831 H 0.22322 0.14034 0.50238 0.0
H2832 H 0.0798 0.1642 0.48648 0.0
H2833 H 0.19641 0.08836 0.48498 0.0
H2834 H 0.17093 0.14939 0.50193 0.0
H2835 H 0.10581 0.10303 0.50219 0.0
C2836 C 0.07029 0.1216 0.49954 0.0
C2837 C 0.06221 0.1389 0.49503 0.0
C2838 C 0.17653 0.13602 0.49812 0.0
C2839 C 0.12219 0.12872 0.49383 0.0
C2840 C 0.20634 0.13084 0.49844 0.0
C2841 C 0.21427 0.11358 0.49358 0.0
C2842 C 0.15427 0.12377 0.4935 0.0
C2843 C 0.19137 0.10183 0.4886 0.0
C2844 C 0.10009 0.11643 0.49866 0.0
C2845 C 0.08495 0.1507 0.48986 0.0
N2846 N 0.16248 0.10707 0.48892 0.0
N2847 N 0.11384 0.14546 0.48963 0.0
loop_
_geom_bond_atom_site_label_1
_geom_bond_atom_site_label_2
_geom_bond_distance
_geom_bond_site_symmetry_2
_ccdc_geom_bond_type
C0 C1 1.443 . S
C0 N4 1.376 . S
C0 C38 1.389 . S
C1 C0 1.443 . S
C1 C2 1.340 . S
C1 H41 0.951 . S
C2 C1 1.340 . S
C2 C3 1.439 . S
C2 H42 0.950 . S
C3 C2 1.439 . S
C3 N4 1.374 . S
C3 C37 1.395 . S
N4 C0 1.376 . S
N4 C3 1.374 . S
N4 Co5 2.008 . S
Co5 N4 2.008 . S
Co5 N6 1.995 . S
Co5 N11 2.008 . S
Co5 N16 1.995 . S
Co5 N21 2.282 . S
Co5 N27 2.282 . S
N6 Co5 1.995 . S
N6 C7 1.376 . S
N6 C10 1.383 . S
C7 N6 1.376 . S
C7 C8 1.446 . S
C7 C37 1.391 . S
C8 C7 1.446 . S
C8 C9 1.339 . S
C8 H43 0.949 . S
C9 C8 1.339 . S
C9 C10 1.439 . S
C9 H44 0.950 . S
C10 N6 1.383 . S
C10 C9 1.439 . S
C10 C39 1.392 . S
N11 Co5 2.008 . S
N11 C12 1.376 . S
N11 C15 1.374 . S
C12 N11 1.376 . S
C12 C13 1.443 . S
C12 C39 1.389 . S
C13 C12 1.443 . S
C13 C14 1.340 . S
C13 H45 0.951 . S
C14 C13 1.340 . S
C14 C15 1.439 . S
C14 H46 0.950 . S
C15 N11 1.374 . S
C15 C14 1.439 . S
C15 C40 1.395 . S
N16 Co5 1.995 . S
N16 C17 1.376 . S
N16 C20 1.383 . S
C17 N16 1.376 . S
C17 C18 1.446 . S
C17 C40 1.391 . S
C18 C17 1.446 . S
C18 C19 1.339 . S
C18 H47 0.949 . S
C19 C18 1.339 . S
C19 C20 1.439 . S
C19 H48 0.950 . S
C20 N16 1.383 . S
C20 C19 1.439 . S
C20 C38 1.392 . S
N21 Co5 2.282 . S
N21 C24 1.332 . S
N21 C26 1.332 . S
C22 C23 1.386 . S
C22 C25 1.388 . S
C23 C22 1.386 . S
C23 C24 1.382 . S
C23 H49 0.950 . S
C24 N21 1.332 . S
C24 C23 1.382 . S
C24 H35 0.952 . S
C25 C22 1.388 . S
C25 C26 1.382 . S
C25 H50 0.950 . S
C26 N21 1.332 . S
C26 C25 1.382 . S
C26 H36 0.948 . S
N27 Co5 2.282 . S
N27 C31 1.332 . S
N27 C32 1.332 . S
C28 C29 1.388 . S
C28 C32 1.382 . S
C28 H51 0.950 . S
C29 C28 1.388 . S
C29 C30 1.386 . S
C30 C29 1.386 . S
C30 C31 1.382 . S
C30 H52 0.950 . S
C31 N27 1.332 . S
C31 C30 1.382 . S
C31 H33 0.952 . S
C32 N27 1.332 . S
C32 C28 1.382 . S
C32 H34 0.948 . S
H33 C31 0.952 . S
H34 C32 0.948 . S
H35 C24 0.952 . S
H36 C26 0.948 . S
C37 C3 1.395 . S
C37 C7 1.391 . S
C38 C0 1.389 . S
C38 C20 1.392 . S
C39 C10 1.392 . S
C39 C12 1.389 . S
C40 C15 1.395 . S
C40 C17 1.391 . S
H41 C1 0.951 . S
H42 C2 0.950 . S
H43 C8 0.949 . S
H44 C9 0.950 . S
H45 C13 0.951 . S
H46 C14 0.950 . S
H47 C18 0.949 . S
H48 C19 0.950 . S
H49 C23 0.950 . S
H50 C25 0.950 . S
H51 C28 0.950 . S
H52 C30 0.950 . S
C53 C54 1.443 . S
C53 N57 1.376 . S
C53 C91 1.389 . S
C54 C53 1.443 . S
C54 C55 1.340 . S
C54 H94 0.951 . S
C55 C54 1.340 . S
C55 C56 1.439 . S
C55 H95 0.950 . S
C56 C55 1.439 . S
C56 N57 1.374 . S
C56 C90 1.395 . S
N57 C53 1.376 . S
N57 C56 1.374 . S
N57 Co58 2.008 . S
Co58 N57 2.008 . S
Co58 N59 1.995 . S
Co58 N64 2.008 . S
Co58 N69 1.995 . S
Co58 N74 2.282 . S
Co58 N80 2.282 . S
N59 Co58 1.995 . S
N59 C60 1.376 . S
N59 C63 1.383 . S
C60 N59 1.376 . S
C60 C61 1.446 . S
C60 C90 1.391 . S
C61 C60 1.446 . S
C61 C62 1.339 . S
C61 H96 0.949 . S
C62 C61 1.339 . S
C62 C63 1.439 . S
C62 H97 0.950 . S
C63 N59 1.383 . S
C63 C62 1.439 . S
C63 C92 1.392 . S
N64 Co58 2.008 . S
N64 C65 1.376 . S
N64 C68 1.374 . S
C65 N64 1.376 . S
C65 C66 1.443 . S
C65 C92 1.389 . S
C66 C65 1.443 . S
C66 C67 1.340 . S
C66 H98 0.951 . S
C67 C66 1.340 . S
C67 C68 1.439 . S
C67 H99 0.950 . S
C68 N64 1.374 . S
C68 C67 1.439 . S
C68 C93 1.395 . S
N69 Co58 1.995 . S
N69 C70 1.376 . S
N69 C73 1.383 . S
C70 N69 1.376 . S
C70 C71 1.446 . S
C70 C93 1.391 . S
C71 C70 1.446 . S
C71 C72 1.339 . S
C71 H100 0.949 . S
C72 C71 1.339 . S
C72 C73 1.439 . S
C72 H101 0.950 . S
C73 N69 1.383 . S
C73 C72 1.439 . S
C73 C91 1.392 . S
N74 Co58 2.282 . S
N74 C77 1.332 . S
N74 C79 1.332 . S
C75 C76 1.386 . S
C75 C78 1.388 . S
C76 C75 1.386 . S
C76 C77 1.382 . S
C76 H102 0.950 . S
C77 N74 1.332 . S
C77 C76 1.382 . S
C77 H88 0.952 . S
C78 C75 1.388 . S
C78 C79 1.382 . S
C78 H103 0.950 . S
C79 N74 1.332 . S
C79 C78 1.382 . S
C79 H89 0.948 . S
N80 Co58 2.282 . S
N80 C84 1.332 . S
N80 C85 1.332 . S
C81 C82 1.388 . S
C81 C85 1.382 1_655 S
C81 H104 0.950 . S
C82 C81 1.388 . S
C82 C83 1.386 . S
C83 C82 1.386 . S
C83 C84 1.382 1_655 S
C83 H105 0.950 . S
C84 N80 1.332 . S
C84 C83 1.382 1_455 S
C84 H86 0.952 . S
C85 N80 1.332 . S
C85 C81 1.382 1_455 S
C85 H87 0.948 . S
H86 C84 0.952 . S
H87 C85 0.948 . S
H88 C77 0.952 . S
H89 C79 0.948 . S
C90 C56 1.395 . S
C90 C60 1.391 . S
C91 C53 1.389 . S
C91 C73 1.392 . S
C92 C63 1.392 . S
C92 C65 1.389 . S
C93 C68 1.395 . S
C93 C70 1.391 . S
H94 C54 0.951 . S
H95 C55 0.950 . S
H96 C61 0.949 . S
H97 C62 0.950 . S
H98 C66 0.951 . S
H99 C67 0.950 . S
H100 C71 0.949 . S
H101 C72 0.950 . S
H102 C76 0.950 . S
H103 C78 0.950 . S
H104 C81 0.950 . S
H105 C83 0.950 . S
C106 C107 1.443 . S
C106 N110 1.376 . S
C106 C144 1.389 . S
C107 C106 1.443 . S
C107 C108 1.340 . S
C107 H147 0.951 . S
C108 C107 1.340 . S
C108 C109 1.439 . S
C108 H148 0.950 . S
C109 C108 1.439 . S
C109 N110 1.374 . S
C109 C143 1.395 1_556 S
N110 C106 1.376 . S
N110 C109 1.374 . S
N110 Co111 2.008 . S
Co111 N110 2.008 . S
Co111 N112 1.995 1_556 S
Co111 N117 2.008 1_556 S
Co111 N122 1.995 . S
Co111 N127 2.282 . S
Co111 N133 2.282 . S
N112 Co111 1.995 1_554 S
N112 C113 1.376 . S
N112 C116 1.383 . S
C113 N112 1.376 . S
C113 C114 1.446 . S
C113 C143 1.391 . S
C114 C113 1.446 . S
C114 C115 1.339 . S
C114 H149 0.949 . S
C115 C114 1.339 . S
C115 C116 1.439 . S
C115 H150 0.950 . S
C116 N112 1.383 . S
C116 C115 1.439 . S
C116 C145 1.392 . S
N117 Co111 2.008 1_554 S
N117 C118 1.376 . S
N117 C121 1.374 . S
C118 N117 1.376 . S
C118 C119 1.443 . S
C118 C145 1.389 . S
C119 C118 1.443 . S
C119 C120 1.340 . S
C119 H151 0.951 . S
C120 C119 1.340 . S
C120 C121 1.439 . S
C120 H152 0.950 . S
C121 N117 1.374 . S
C121 C120 1.439 . S
C121 C146 1.395 1_554 S
N122 Co111 1.995 . S
N122 C123 1.376 . S
N122 C126 1.383 . S
C123 N122 1.376 . S
C123 C124 1.446 . S
C123 C146 1.391 . S
C124 C123 1.446 . S
C124 C125 1.339 . S
C124 H153 0.949 . S
C125 C124 1.339 . S
C125 C126 1.439 . S
C125 H154 0.950 . S
C126 N122 1.383 . S
C126 C125 1.439 . S
C126 C144 1.392 . S
N127 Co111 2.282 . S
N127 C130 1.332 . S
N127 C132 1.323 1_556 S
C128 C129 1.386 . S
C128 C131 1.388 1_556 S
C129 C128 1.386 . S
C129 C130 1.382 . S
C129 H155 0.950 . S
C130 N127 1.332 . S
C130 C129 1.382 . S
C130 H141 0.952 . S
C131 C128 1.388 1_554 S
C131 C132 1.385 . S
C131 H156 0.950 . S
C132 N127 1.323 1_554 S
C132 C131 1.385 . S
C132 H142 0.955 . S
N133 Co111 2.282 . S
N133 C137 1.332 1_556 S
N133 C138 1.332 . S
C134 C135 1.388 . S
C134 C138 1.382 . S
C134 H157 0.950 . S
C135 C134 1.388 . S
C135 C136 1.386 1_556 S
C136 C135 1.386 1_554 S
C136 C137 1.382 . S
C136 H158 0.950 . S
C137 N133 1.332 1_554 S
C137 C136 1.382 . S
C137 H139 0.952 . S
C138 N133 1.332 . S
C138 C134 1.382 . S
C138 H140 0.948 . S
H139 C137 0.952 . S
H140 C138 0.948 . S
H141 C130 0.952 . S
H142 C132 0.955 . S
C143 C109 1.395 1_554 S
C143 C113 1.391 . S
C144 C106 1.389 . S
C144 C126 1.392 . S
C145 C116 1.392 . S
C145 C118 1.389 . S
C146 C121 1.395 1_556 S
C146 C123 1.391 . S
H147 C107 0.951 . S
H148 C108 0.950 . S
H149 C114 0.949 . S
H150 C115 0.950 . S
H151 C119 0.951 . S
H152 C120 0.950 . S
H153 C124 0.949 . S
H154 C125 0.950 . S
H155 C129 0.950 . S
H156 C131 0.950 . S
H157 C134 0.950 . S
H158 C136 0.950 . S
C159 C160 1.443 . S
C159 N163 1.376 . S
C159 C197 1.389 . S
C160 C159 1.443 . S
C160 C161 1.340 . S
C160 H200 0.951 . S
C161 C160 1.340 . S
C161 C162 1.439 . S
C161 H201 0.950 . S
C162 C161 1.439 . S
C162 N163 1.374 . S
C162 C196 1.395 1_556 S
N163 C159 1.376 . S
N163 C162 1.374 . S
N163 Co164 2.008 . S
Co164 N163 2.008 . S
Co164 N165 1.995 1_556 S
Co164 N170 2.008 1_556 S
Co164 N175 1.995 . S
Co164 N180 2.282 . S
Co164 N186 2.282 . S
N165 Co164 1.995 1_554 S
N165 C166 1.376 . S
N165 C169 1.383 . S
C166 N165 1.376 . S
C166 C167 1.446 . S
C166 C196 1.391 . S
C167 C166 1.446 . S
C167 C168 1.339 . S
C167 H202 0.949 . S
C168 C167 1.339 . S
C168 C169 1.439 . S
C168 H203 0.950 . S
C169 N165 1.383 . S
C169 C168 1.439 . S
C169 C198 1.392 . S
N170 Co164 2.008 1_554 S
N170 C171 1.376 . S
N170 C174 1.374 . S
C171 N170 1.376 . S
C171 C172 1.443 . S
C171 C198 1.389 . S
C172 C171 1.443 . S
C172 C173 1.340 . S
C172 H204 0.951 . S
C173 C172 1.340 . S
C173 C174 1.439 . S
C173 H205 0.950 . S
C174 N170 1.374 . S
C174 C173 1.439 . S
C174 C199 1.395 1_554 S
N175 Co164 1.995 . S
N175 C176 1.376 . S
N175 C179 1.383 . S
C176 N175 1.376 . S
C176 C177 1.446 . S
C176 C199 1.391 . S
C177 C176 1.446 . S
C177 C178 1.339 . S
C177 H206 0.949 . S
C178 C177 1.339 . S
C178 C179 1.439 . S
C178 H207 0.950 . S
C179 N175 1.383 . S
C179 C178 1.439 . S
C179 C197 1.392 . S
N180 Co164 2.282 . S
N180 C183 1.332 . S
N180 C185 1.323 1_556 S
C181 C182 1.386 . S
C181 C184 1.388 1_556 S
C182 C181 1.386 . S
C182 C183 1.382 . S
C182 H208 0.950 . S
C183 N180 1.332 . S
C183 C182 1.382 . S
C183 H194 0.952 . S
C184 C181 1.388 1_554 S
C184 C185 1.385 . S
C184 H209 0.950 . S
C185 N180 1.323 1_554 S
C185 C184 1.385 . S
C185 H195 0.955 . S
N186 Co164 2.282 . S
N186 C190 1.332 1_556 S
N186 C191 1.332 . S
C187 C188 1.388 . S
C187 C191 1.382 1_655 S
C187 H210 0.950 . S
C188 C187 1.388 . S
C188 C189 1.386 1_556 S
C189 C188 1.386 1_554 S
C189 C190 1.382 1_655 S
C189 H211 0.950 . S
C190 N186 1.332 1_554 S
C190 C189 1.382 1_455 S
C190 H192 0.952 . S
C191 N186 1.332 . S
C191 C187 1.382 1_455 S
C191 H193 0.948 . S
H192 C190 0.952 . S
H193 C191 0.948 . S
H194 C183 0.952 . S
H195 C185 0.955 . S
C196 C162 1.395 1_554 S
C196 C166 1.391 . S
C197 C159 1.389 . S
C197 C179 1.392 . S
C198 C169 1.392 . S
C198 C171 1.389 . S
C199 C174 1.395 1_556 S
C199 C176 1.391 . S
H200 C160 0.951 . S
H201 C161 0.950 . S
H202 C167 0.949 . S
H203 C168 0.950 . S
H204 C172 0.951 . S
H205 C173 0.950 . S
H206 C177 0.949 . S
H207 C178 0.950 . S
H208 C182 0.950 . S
H209 C184 0.950 . S
H210 C187 0.950 . S
H211 C189 0.950 . S
C212 C213 1.443 . S
C212 N216 1.376 . S
C212 C250 1.389 . S
C213 C212 1.443 . S
C213 C214 1.340 . S
C213 H253 0.951 . S
C214 C213 1.340 . S
C214 C215 1.439 . S
C214 H254 0.950 . S
C215 C214 1.439 . S
C215 N216 1.374 . S
C215 C249 1.395 . S
N216 C212 1.376 . S
N216 C215 1.374 . S
N216 Co217 2.008 . S
Co217 N216 2.008 . S
Co217 N218 1.995 . S
Co217 N223 2.008 . S
Co217 N228 1.995 . S
Co217 N233 2.282 . S
Co217 N239 2.282 . S
N218 Co217 1.995 . S
N218 C219 1.376 . S
N218 C222 1.383 . S
C219 N218 1.376 . S
C219 C220 1.446 . S
C219 C249 1.391 . S
C220 C219 1.446 . S
C220 C221 1.339 . S
C220 H255 0.949 . S
C221 C220 1.339 . S
C221 C222 1.439 . S
C221 H256 0.950 . S
C222 N218 1.383 . S
C222 C221 1.439 . S
C222 C251 1.392 . S
N223 Co217 2.008 . S
N223 C224 1.376 . S
N223 C227 1.374 . S
C224 N223 1.376 . S
C224 C225 1.443 . S
C224 C251 1.389 . S
C225 C224 1.443 . S
C225 C226 1.340 . S
C225 H257 0.951 . S
C226 C225 1.340 . S
C226 C227 1.439 . S
C226 H258 0.950 . S
C227 N223 1.374 . S
C227 C226 1.439 . S
C227 C252 1.395 . S
N228 Co217 1.995 . S
N228 C229 1.376 . S
N228 C232 1.383 . S
C229 N228 1.376 . S
C229 C230 1.446 . S
C229 C252 1.391 . S
C230 C229 1.446 . S
C230 C231 1.339 . S
C230 H259 0.949 . S
C231 C230 1.339 . S
C231 C232 1.439 . S
C231 H260 0.950 . S
C232 N228 1.383 . S
C232 C231 1.439 . S
C232 C250 1.392 . S
N233 Co217 2.282 . S
N233 C236 1.332 . S
N233 C238 1.332 . S
C234 C235 1.386 . S
C234 C237 1.388 . S
C235 C234 1.386 . S
C235 C236 1.382 . S
C235 H261 0.950 . S
C236 N233 1.332 . S
C236 C235 1.382 . S
C236 H247 0.952 . S
C237 C234 1.388 . S
C237 C238 1.382 . S
C237 H262 0.950 . S
C238 N233 1.332 . S
C238 C237 1.382 . S
C238 H248 0.948 . S
N239 Co217 2.282 . S
N239 C243 1.332 . S
N239 C244 1.332 . S
C240 C241 1.388 . S
C240 C244 1.382 . S
C240 H263 0.950 . S
C241 C240 1.388 . S
C241 C242 1.386 . S
C242 C241 1.386 . S
C242 C243 1.382 . S
C242 H264 0.950 . S
C243 N239 1.332 . S
C243 C242 1.382 . S
C243 H245 0.952 . S
C244 N239 1.332 . S
C244 C240 1.382 . S
C244 H246 0.948 . S
H245 C243 0.952 . S
H246 C244 0.948 . S
H247 C236 0.952 . S
H248 C238 0.948 . S
C249 C215 1.395 . S
C249 C219 1.391 . S
C250 C212 1.389 . S
C250 C232 1.392 . S
C251 C222 1.392 . S
C251 C224 1.389 . S
C252 C227 1.395 . S
C252 C229 1.391 . S
H253 C213 0.951 . S
H254 C214 0.950 . S
H255 C220 0.949 . S
H256 C221 0.950 . S
H257 C225 0.951 . S
H258 C226 0.950 . S
H259 C230 0.949 . S
H260 C231 0.950 . S
H261 C235 0.950 . S
H262 C237 0.950 . S
H263 C240 0.950 . S
H264 C242 0.950 . S
C265 C266 1.443 . S
C265 N269 1.376 . S
C265 C303 1.389 . S
C266 C265 1.443 . S
C266 C267 1.340 . S
C266 H306 0.951 . S
C267 C266 1.340 . S
C267 C268 1.439 . S
C267 H307 0.950 . S
C268 C267 1.439 . S
C268 N269 1.374 . S
C268 C302 1.395 . S
N269 C265 1.376 . S
N269 C268 1.374 . S
N269 Co270 2.008 . S
Co270 N269 2.008 . S
Co270 N271 1.995 . S
Co270 N276 2.008 . S
Co270 N281 1.995 . S
Co270 N286 2.282 . S
Co270 N292 2.282 . S
N271 Co270 1.995 . S
N271 C272 1.376 . S
N271 C275 1.383 . S
C272 N271 1.376 . S
C272 C273 1.446 . S
C272 C302 1.391 . S
C273 C272 1.446 . S
C273 C274 1.339 . S
C273 H308 0.949 . S
C274 C273 1.339 . S
C274 C275 1.439 . S
C274 H309 0.950 . S
C275 N271 1.383 . S
C275 C274 1.439 . S
C275 C304 1.392 . S
N276 Co270 2.008 . S
N276 C277 1.376 . S
N276 C280 1.374 . S
C277 N276 1.376 . S
C277 C278 1.443 . S
C277 C304 1.389 . S
C278 C277 1.443 . S
C278 C279 1.340 . S
C278 H310 0.951 . S
C279 C278 1.340 . S
C279 C280 1.439 . S
C279 H311 0.950 . S
C280 N276 1.374 . S
C280 C279 1.439 . S
C280 C305 1.395 . S
N281 Co270 1.995 . S
N281 C282 1.376 . S
N281 C285 1.383 . S
C282 N281 1.376 . S
C282 C283 1.446 . S
C282 C305 1.391 . S
C283 C282 1.446 . S
C283 C284 1.339 . S
C283 H312 0.949 . S
C284 C283 1.339 . S
C284 C285 1.439 . S
C284 H313 0.950 . S
C285 N281 1.383 . S
C285 C284 1.439 . S
C285 C303 1.392 . S
N286 Co270 2.282 . S
N286 C289 1.332 . S
N286 C291 1.332 . S
C287 C288 1.386 . S
C287 C290 1.388 . S
C288 C287 1.386 . S
C288 C289 1.382 . S
C288 H314 0.950 . S
C289 N286 1.332 . S
C289 C288 1.382 . S
C289 H300 0.952 . S
C290 C287 1.388 . S
C290 C291 1.382 . S
C290 H315 0.950 . S
C291 N286 1.332 . S
C291 C290 1.382 . S
C291 H301 0.948 . S
N292 Co270 2.282 . S
N292 C296 1.332 . S
N292 C297 1.332 . S
C293 C294 1.386 . S
C293 C297 1.384 1_455 S
C293 H316 0.950 . S
C294 C293 1.386 . S
C294 C295 1.386 . S
C295 C294 1.386 . S
C295 C296 1.382 1_455 S
C295 H317 0.950 . S
C296 N292 1.332 . S
C296 C295 1.382 1_655 S
C296 H298 0.952 . S
C297 N292 1.332 . S
C297 C293 1.384 1_655 S
C297 H299 0.948 . S
H298 C296 0.952 . S
H299 C297 0.948 . S
H300 C289 0.952 . S
H301 C291 0.948 . S
C302 C268 1.395 . S
C302 C272 1.391 . S
C303 C265 1.389 . S
C303 C285 1.392 . S
C304 C275 1.392 . S
C304 C277 1.389 . S
C305 C280 1.395 . S
C305 C282 1.391 . S
H306 C266 0.951 . S
H307 C267 0.950 . S
H308 C273 0.949 . S
H309 C274 0.950 . S
H310 C278 0.951 . S
H311 C279 0.950 . S
H312 C283 0.949 . S
H313 C284 0.950 . S
H314 C288 0.950 . S
H315 C290 0.950 . S
H316 C293 0.950 . S
H317 C295 0.950 . S
C318 C319 1.443 . S
C318 N322 1.376 . S
C318 C356 1.389 . S
C319 C318 1.443 . S
C319 C320 1.340 . S
C319 H359 0.951 . S
C320 C319 1.340 . S
C320 C321 1.439 . S
C320 H360 0.950 . S
C321 C320 1.439 . S
C321 N322 1.374 . S
C321 C355 1.395 . S
N322 C318 1.376 . S
N322 C321 1.374 . S
N322 Co323 2.008 . S
Co323 N322 2.008 . S
Co323 N324 1.995 1_554 S
Co323 N329 2.008 1_554 S
Co323 N334 1.995 . S
Co323 N339 2.282 . S
Co323 N345 2.282 . S
N324 Co323 1.995 1_556 S
N324 C325 1.376 . S
N324 C328 1.383 . S
C325 N324 1.376 . S
C325 C326 1.446 . S
C325 C355 1.391 1_556 S
C326 C325 1.446 . S
C326 C327 1.339 . S
C326 H361 0.949 . S
C327 C326 1.339 . S
C327 C328 1.439 . S
C327 H362 0.950 . S
C328 N324 1.383 . S
C328 C327 1.439 . S
C328 C357 1.392 . S
N329 Co323 2.008 1_556 S
N329 C330 1.376 . S
N329 C333 1.374 . S
C330 N329 1.376 . S
C330 C331 1.443 . S
C330 C357 1.389 . S
C331 C330 1.443 . S
C331 C332 1.340 . S
C331 H363 0.951 . S
C332 C331 1.340 . S
C332 C333 1.439 . S
C332 H364 0.950 . S
C333 N329 1.374 . S
C333 C332 1.439 . S
C333 C358 1.395 . S
N334 Co323 1.995 . S
N334 C335 1.376 . S
N334 C338 1.383 . S
C335 N334 1.376 . S
C335 C336 1.446 . S
C335 C358 1.391 1_554 S
C336 C335 1.446 . S
C336 C337 1.339 . S
C336 H365 0.949 . S
C337 C336 1.339 . S
C337 C338 1.439 . S
C337 H366 0.950 . S
C338 N334 1.383 . S
C338 C337 1.439 . S
C338 C356 1.392 . S
N339 Co323 2.282 . S
N339 C342 1.332 . S
N339 C344 1.332 . S
C340 C341 1.386 . S
C340 C343 1.388 . S
C341 C340 1.386 . S
C341 C342 1.382 . S
C341 H367 0.950 . S
C342 N339 1.332 . S
C342 C341 1.382 . S
C342 H353 0.952 . S
C343 C340 1.388 . S
C343 C344 1.382 . S
C343 H368 0.958 . S
C344 N339 1.332 . S
C344 C343 1.382 . S
C344 H354 0.948 . S
N345 Co323 2.282 . S
N345 C349 1.332 . S
N345 C350 1.332 . S
C346 C347 1.388 . S
C346 C350 1.382 . S
C346 H369 0.950 . S
C347 C346 1.388 . S
C347 C348 1.386 . S
C348 C347 1.386 . S
C348 C349 1.382 . S
C348 H370 0.950 . S
C349 N345 1.332 . S
C349 C348 1.382 . S
C349 H351 0.946 1_554 S
C350 N345 1.332 . S
C350 C346 1.382 . S
C350 H352 0.948 . S
H351 C349 0.946 1_556 S
H352 C350 0.948 . S
H353 C342 0.952 . S
H354 C344 0.948 . S
C355 C321 1.395 . S
C355 C325 1.391 1_554 S
C356 C318 1.389 . S
C356 C338 1.392 . S
C357 C328 1.392 . S
C357 C330 1.389 . S
C358 C333 1.395 . S
C358 C335 1.391 1_556 S
H359 C319 0.951 . S
H360 C320 0.950 . S
H361 C326 0.949 . S
H362 C327 0.950 . S
H363 C331 0.951 . S
H364 C332 0.950 . S
H365 C336 0.949 . S
H366 C337 0.950 . S
H367 C341 0.950 . S
H368 C343 0.958 . S
H369 C346 0.950 . S
H370 C348 0.950 . S
C371 C372 1.443 . S
C371 N375 1.376 . S
C371 C409 1.389 . S
C372 C371 1.443 . S
C372 C373 1.340 . S
C372 H412 0.951 . S
C373 C372 1.340 . S
C373 C374 1.439 . S
C373 H413 0.950 . S
C374 C373 1.439 . S
C374 N375 1.374 . S
C374 C408 1.395 . S
N375 C371 1.376 . S
N375 C374 1.374 . S
N375 Co376 2.008 . S
Co376 N375 2.008 . S
Co376 N377 1.995 1_554 S
Co376 N382 2.008 1_554 S
Co376 N387 1.995 . S
Co376 N392 2.282 . S
Co376 N398 2.282 . S
N377 Co376 1.995 1_556 S
N377 C378 1.376 . S
N377 C381 1.383 . S
C378 N377 1.376 . S
C378 C379 1.446 . S
C378 C408 1.391 1_556 S
C379 C378 1.446 . S
C379 C380 1.339 . S
C379 H414 0.949 . S
C380 C379 1.339 . S
C380 C381 1.439 . S
C380 H415 0.950 . S
C381 N377 1.383 . S
C381 C380 1.439 . S
C381 C410 1.392 . S
N382 Co376 2.008 1_556 S
N382 C383 1.376 . S
N382 C386 1.374 . S
C383 N382 1.376 . S
C383 C384 1.443 . S
C383 C410 1.389 . S
C384 C383 1.443 . S
C384 C385 1.340 . S
C384 H416 0.951 . S
C385 C384 1.340 . S
C385 C386 1.439 . S
C385 H417 0.950 . S
C386 N382 1.374 . S
C386 C385 1.439 . S
C386 C411 1.395 . S
N387 Co376 1.995 . S
N387 C388 1.376 . S
N387 C391 1.383 . S
C388 N387 1.376 . S
C388 C389 1.446 . S
C388 C411 1.391 1_554 S
C389 C388 1.446 . S
C389 C390 1.339 . S
C389 H418 0.949 . S
C390 C389 1.339 . S
C390 C391 1.439 . S
C390 H419 0.950 . S
C391 N387 1.383 . S
C391 C390 1.439 . S
C391 C409 1.392 . S
N392 Co376 2.282 . S
N392 C395 1.332 . S
N392 C397 1.332 . S
C393 C394 1.386 . S
C393 C396 1.388 . S
C394 C393 1.386 . S
C394 C395 1.382 . S
C394 H420 0.950 . S
C395 N392 1.332 . S
C395 C394 1.382 . S
C395 H406 0.952 . S
C396 C393 1.388 . S
C396 C397 1.382 . S
C396 H421 0.958 . S
C397 N392 1.332 . S
C397 C396 1.382 . S
C397 H407 0.948 . S
N398 Co376 2.282 . S
N398 C402 1.332 . S
N398 C403 1.332 . S
C399 C400 1.386 . S
C399 C403 1.384 1_455 S
C399 H422 0.950 . S
C400 C399 1.386 . S
C400 C401 1.386 . S
C401 C400 1.386 . S
C401 C402 1.382 1_455 S
C401 H423 0.950 . S
C402 N398 1.332 . S
C402 C401 1.382 1_655 S
C402 H404 0.946 1_554 S
C403 N398 1.332 . S
C403 C399 1.384 1_655 S
C403 H405 0.948 . S
H404 C402 0.946 1_556 S
H405 C403 0.948 . S
H406 C395 0.952 . S
H407 C397 0.948 . S
C408 C374 1.395 . S
C408 C378 1.391 1_554 S
C409 C371 1.389 . S
C409 C391 1.392 . S
C410 C381 1.392 . S
C410 C383 1.389 . S
C411 C386 1.395 . S
C411 C388 1.391 1_556 S
H412 C372 0.951 . S
H413 C373 0.950 . S
H414 C379 0.949 . S
H415 C380 0.950 . S
H416 C384 0.951 . S
H417 C385 0.950 . S
H418 C389 0.949 . S
H419 C390 0.950 . S
H420 C394 0.950 . S
H421 C396 0.958 . S
H422 C399 0.950 . S
H423 C401 0.950 . S
C424 C425 1.443 . S
C424 N428 1.376 . S
C424 C462 1.389 . S
C425 C424 1.443 . S
C425 C426 1.340 . S
C425 H465 0.951 . S
C426 C425 1.340 . S
C426 C427 1.439 . S
C426 H466 0.950 . S
C427 C426 1.439 . S
C427 N428 1.374 . S
C427 C461 1.395 . S
N428 C424 1.376 . S
N428 C427 1.374 . S
N428 Co429 2.008 . S
Co429 N428 2.008 . S
Co429 N430 1.995 . S
Co429 N435 2.008 . S
Co429 N440 1.995 . S
Co429 N445 2.282 . S
Co429 N451 2.282 . S
N430 Co429 1.995 . S
N430 C431 1.376 . S
N430 C434 1.383 . S
C431 N430 1.376 . S
C431 C432 1.446 . S
C431 C461 1.391 . S
C432 C431 1.446 . S
C432 C433 1.339 . S
C432 H467 0.949 . S
C433 C432 1.339 . S
C433 C434 1.439 . S
C433 H468 0.950 . S
C434 N430 1.383 . S
C434 C433 1.439 . S
C434 C463 1.392 . S
N435 Co429 2.008 . S
N435 C436 1.376 . S
N435 C439 1.374 . S
C436 N435 1.376 . S
C436 C437 1.443 . S
C436 C463 1.389 . S
C437 C436 1.443 . S
C437 C438 1.340 . S
C437 H469 0.951 . S
C438 C437 1.340 . S
C438 C439 1.439 . S
C438 H470 0.950 . S
C439 N435 1.374 . S
C439 C438 1.439 . S
C439 C464 1.395 . S
N440 Co429 1.995 . S
N440 C441 1.376 . S
N440 C444 1.383 . S
C441 N440 1.376 . S
C441 C442 1.446 . S
C441 C464 1.391 . S
C442 C441 1.446 . S
C442 C443 1.339 . S
C442 H471 0.949 . S
C443 C442 1.339 . S
C443 C444 1.439 . S
C443 H472 0.950 . S
C444 N440 1.383 . S
C444 C443 1.439 . S
C444 C462 1.392 . S
N445 Co429 2.282 . S
N445 C448 1.332 . S
N445 C450 1.332 . S
C446 C447 1.386 . S
C446 C449 1.388 . S
C447 C446 1.386 . S
C447 C448 1.382 . S
C447 H473 0.950 . S
C448 N445 1.332 . S
C448 C447 1.382 . S
C448 H459 0.952 . S
C449 C446 1.388 . S
C449 C450 1.382 . S
C449 H474 0.950 . S
C450 N445 1.332 . S
C450 C449 1.382 . S
C450 H460 0.948 . S
N451 Co429 2.282 . S
N451 C455 1.332 . S
N451 C456 1.332 . S
C452 C453 1.388 . S
C452 C456 1.382 . S
C452 H475 0.950 . S
C453 C452 1.388 . S
C453 C454 1.386 . S
C454 C453 1.386 . S
C454 C455 1.382 . S
C454 H476 0.950 . S
C455 N451 1.332 . S
C455 C454 1.382 . S
C455 H457 0.952 . S
C456 N451 1.332 . S
C456 C452 1.382 . S
C456 H458 0.948 . S
H457 C455 0.952 . S
H458 C456 0.948 . S
H459 C448 0.952 . S
H460 C450 0.948 . S
C461 C427 1.395 . S
C461 C431 1.391 . S
C462 C424 1.389 . S
C462 C444 1.392 . S
C463 C434 1.392 . S
C463 C436 1.389 . S
C464 C439 1.395 . S
C464 C441 1.391 . S
H465 C425 0.951 . S
H466 C426 0.950 . S
H467 C432 0.949 . S
H468 C433 0.950 . S
H469 C437 0.951 . S
H470 C438 0.950 . S
H471 C442 0.949 . S
H472 C443 0.950 . S
H473 C447 0.950 . S
H474 C449 0.950 . S
H475 C452 0.950 . S
H476 C454 0.950 . S
C477 C478 1.443 . S
C477 N481 1.376 . S
C477 C515 1.389 . S
C478 C477 1.443 . S
C478 C479 1.340 . S
C478 H518 0.951 . S
C479 C478 1.340 . S
C479 C480 1.439 . S
C479 H519 0.950 . S
C480 C479 1.439 . S
C480 N481 1.374 . S
C480 C514 1.395 . S
N481 C477 1.376 . S
N481 C480 1.374 . S
N481 Co482 2.008 . S
Co482 N481 2.008 . S
Co482 N483 1.995 . S
Co482 N488 2.008 . S
Co482 N493 1.995 . S
Co482 N498 2.282 . S
Co482 N504 2.282 . S
N483 Co482 1.995 . S
N483 C484 1.376 . S
N483 C487 1.383 . S
C484 N483 1.376 . S
C484 C485 1.446 . S
C484 C514 1.391 . S
C485 C484 1.446 . S
C485 C486 1.339 . S
C485 H520 0.949 . S
C486 C485 1.339 . S
C486 C487 1.439 . S
C486 H521 0.950 . S
C487 N483 1.383 . S
C487 C486 1.439 . S
C487 C516 1.392 . S
N488 Co482 2.008 . S
N488 C489 1.376 . S
N488 C492 1.374 . S
C489 N488 1.376 . S
C489 C490 1.443 . S
C489 C516 1.389 . S
C490 C489 1.443 . S
C490 C491 1.340 . S
C490 H522 0.951 . S
C491 C490 1.340 . S
C491 C492 1.439 . S
C491 H523 0.950 . S
C492 N488 1.374 . S
C492 C491 1.439 . S
C492 C517 1.395 . S
N493 Co482 1.995 . S
N493 C494 1.376 . S
N493 C497 1.383 . S
C494 N493 1.376 . S
C494 C495 1.446 . S
C494 C517 1.391 . S
C495 C494 1.446 . S
C495 C496 1.339 . S
C495 H524 0.949 . S
C496 C495 1.339 . S
C496 C497 1.439 . S
C496 H525 0.950 . S
C497 N493 1.383 . S
C497 C496 1.439 . S
C497 C515 1.392 . S
N498 Co482 2.282 . S
N498 C501 1.332 . S
N498 C503 1.332 . S
C499 C500 1.386 . S
C499 C502 1.388 . S
C500 C499 1.386 . S
C500 C501 1.382 . S
C500 H526 0.950 . S
C501 N498 1.332 . S
C501 C500 1.382 . S
C501 H512 0.952 . S
C502 C499 1.388 . S
C502 C503 1.382 . S
C502 H527 0.950 . S
C503 N498 1.332 . S
C503 C502 1.382 . S
C503 H513 0.948 . S
N504 Co482 2.282 . S
N504 C508 1.332 . S
N504 C509 1.332 . S
C505 C506 1.388 . S
C505 C509 1.382 1_655 S
C505 H528 0.950 . S
C506 C505 1.388 . S
C506 C507 1.386 . S
C507 C506 1.386 . S
C507 C508 1.382 1_655 S
C507 H529 0.950 . S
C508 N504 1.332 . S
C508 C507 1.382 1_455 S
C508 H510 0.952 . S
C509 N504 1.332 . S
C509 C505 1.382 1_455 S
C509 H511 0.948 . S
H510 C508 0.952 . S
H511 C509 0.948 . S
H512 C501 0.952 . S
H513 C503 0.948 . S
C514 C480 1.395 . S
C514 C484 1.391 . S
C515 C477 1.389 . S
C515 C497 1.392 . S
C516 C487 1.392 . S
C516 C489 1.389 . S
C517 C492 1.395 . S
C517 C494 1.391 . S
H518 C478 0.951 . S
H519 C479 0.950 . S
H520 C485 0.949 . S
H521 C486 0.950 . S
H522 C490 0.951 . S
H523 C491 0.950 . S
H524 C495 0.949 . S
H525 C496 0.950 . S
H526 C500 0.950 . S
H527 C502 0.950 . S
H528 C505 0.950 . S
H529 C507 0.950 . S
C530 C531 1.443 . S
C530 N534 1.376 . S
C530 C568 1.389 . S
C531 C530 1.443 . S
C531 C532 1.340 . S
C531 H571 0.951 . S
C532 C531 1.340 . S
C532 C533 1.439 . S
C532 H572 0.950 . S
C533 C532 1.439 . S
C533 N534 1.374 . S
C533 C567 1.395 . S
N534 C530 1.376 . S
N534 C533 1.374 . S
N534 Co535 2.008 . S
Co535 N534 2.008 . S
Co535 N536 1.995 . S
Co535 N541 2.008 . S
Co535 N546 1.995 . S
Co535 N551 2.282 . S
Co535 N557 2.282 . S
N536 Co535 1.995 . S
N536 C537 1.376 . S
N536 C540 1.383 . S
C537 N536 1.376 . S
C537 C538 1.446 . S
C537 C567 1.391 . S
C538 C537 1.446 . S
C538 C539 1.339 . S
C538 H573 0.949 . S
C539 C538 1.339 . S
C539 C540 1.439 . S
C539 H574 0.950 . S
C540 N536 1.383 . S
C540 C539 1.439 . S
C540 C569 1.392 . S
N541 Co535 2.008 . S
N541 C542 1.376 . S
N541 C545 1.374 . S
C542 N541 1.376 . S
C542 C543 1.443 . S
C542 C569 1.389 . S
C543 C542 1.443 . S
C543 C544 1.340 . S
C543 H575 0.951 . S
C544 C543 1.340 . S
C544 C545 1.439 . S
C544 H576 0.950 . S
C545 N541 1.374 . S
C545 C544 1.439 . S
C545 C570 1.395 . S
N546 Co535 1.995 . S
N546 C547 1.376 . S
N546 C550 1.383 . S
C547 N546 1.376 . S
C547 C548 1.446 . S
C547 C570 1.391 . S
C548 C547 1.446 . S
C548 C549 1.339 . S
C548 H577 0.949 . S
C549 C548 1.339 . S
C549 C550 1.439 . S
C549 H578 0.950 . S
C550 N546 1.383 . S
C550 C549 1.439 . S
C550 C568 1.392 . S
N551 Co535 2.282 . S
N551 C554 1.332 . S
N551 C556 1.332 . S
C552 C553 1.386 . S
C552 C555 1.388 . S
C553 C552 1.386 . S
C553 C554 1.382 . S
C553 H579 0.950 . S
C554 N551 1.332 . S
C554 C553 1.382 . S
C554 H565 0.952 . S
C555 C552 1.388 . S
C555 C556 1.382 . S
C555 H580 0.950 . S
C556 N551 1.332 . S
C556 C555 1.382 . S
C556 H566 0.948 . S
N557 Co535 2.282 . S
N557 C561 1.332 . S
N557 C562 1.332 . S
C558 C559 1.388 . S
C558 C562 1.382 . S
C558 H581 0.950 . S
C559 C558 1.388 . S
C559 C560 1.386 . S
C560 C559 1.386 . S
C560 C561 1.382 . S
C560 H582 0.950 . S
C561 N557 1.332 . S
C561 C560 1.382 . S
C561 H563 0.952 . S
C562 N557 1.332 . S
C562 C558 1.382 . S
C562 H564 0.948 . S
H563 C561 0.952 . S
H564 C562 0.948 . S
H565 C554 0.952 . S
H566 C556 0.948 . S
C567 C533 1.395 . S
C567 C537 1.391 . S
C568 C530 1.389 . S
C568 C550 1.392 . S
C569 C540 1.392 . S
C569 C542 1.389 . S
C570 C545 1.395 . S
C570 C547 1.391 . S
H571 C531 0.951 . S
H572 C532 0.950 . S
H573 C538 0.949 . S
H574 C539 0.950 . S
H575 C543 0.951 . S
H576 C544 0.950 . S
H577 C548 0.949 . S
H578 C549 0.950 . S
H579 C553 0.950 . S
H580 C555 0.950 . S
H581 C558 0.950 . S
H582 C560 0.950 . S
C583 C584 1.443 . S
C583 N587 1.376 . S
C583 C621 1.389 . S
C584 C583 1.443 . S
C584 C585 1.340 . S
C584 H624 0.951 . S
C585 C584 1.340 . S
C585 C586 1.439 . S
C585 H625 0.950 . S
C586 C585 1.439 . S
C586 N587 1.374 . S
C586 C620 1.395 . S
N587 C583 1.376 . S
N587 C586 1.374 . S
N587 Co588 2.008 . S
Co588 N587 2.008 . S
Co588 N589 1.995 . S
Co588 N594 2.008 . S
Co588 N599 1.995 . S
Co588 N604 2.282 . S
Co588 N610 2.282 . S
N589 Co588 1.995 . S
N589 C590 1.376 . S
N589 C593 1.383 . S
C590 N589 1.376 . S
C590 C591 1.446 . S
C590 C620 1.391 . S
C591 C590 1.446 . S
C591 C592 1.339 . S
C591 H626 0.949 . S
C592 C591 1.339 . S
C592 C593 1.439 . S
C592 H627 0.950 . S
C593 N589 1.383 . S
C593 C592 1.439 . S
C593 C622 1.392 . S
N594 Co588 2.008 . S
N594 C595 1.376 . S
N594 C598 1.374 . S
C595 N594 1.376 . S
C595 C596 1.443 . S
C595 C622 1.389 . S
C596 C595 1.443 . S
C596 C597 1.340 . S
C596 H628 0.951 . S
C597 C596 1.340 . S
C597 C598 1.439 . S
C597 H629 0.950 . S
C598 N594 1.374 . S
C598 C597 1.439 . S
C598 C623 1.395 . S
N599 Co588 1.995 . S
N599 C600 1.376 . S
N599 C603 1.383 . S
C600 N599 1.376 . S
C600 C601 1.446 . S
C600 C623 1.391 . S
C601 C600 1.446 . S
C601 C602 1.339 . S
C601 H630 0.949 . S
C602 C601 1.339 . S
C602 C603 1.439 . S
C602 H631 0.950 . S
C603 N599 1.383 . S
C603 C602 1.439 . S
C603 C621 1.392 . S
N604 Co588 2.282 . S
N604 C607 1.332 . S
N604 C609 1.332 . S
C605 C606 1.386 . S
C605 C608 1.388 . S
C606 C605 1.386 . S
C606 C607 1.382 . S
C606 H632 0.950 . S
C607 N604 1.332 . S
C607 C606 1.382 . S
C607 H618 0.952 . S
C608 C605 1.388 . S
C608 C609 1.382 . S
C608 H633 0.950 . S
C609 N604 1.332 . S
C609 C608 1.382 . S
C609 H619 0.948 . S
N610 Co588 2.282 . S
N610 C614 1.332 . S
N610 C615 1.332 . S
C611 C612 1.388 . S
C611 C615 1.382 1_655 S
C611 H634 0.950 . S
C612 C611 1.388 . S
C612 C613 1.386 . S
C613 C612 1.386 . S
C613 C614 1.382 1_655 S
C613 H635 0.950 . S
C614 N610 1.332 . S
C614 C613 1.382 1_455 S
C614 H616 0.952 . S
C615 N610 1.332 . S
C615 C611 1.382 1_455 S
C615 H617 0.948 . S
H616 C614 0.952 . S
H617 C615 0.948 . S
H618 C607 0.952 . S
H619 C609 0.948 . S
C620 C586 1.395 . S
C620 C590 1.391 . S
C621 C583 1.389 . S
C621 C603 1.392 . S
C622 C593 1.392 . S
C622 C595 1.389 . S
C623 C598 1.395 . S
C623 C600 1.391 . S
H624 C584 0.951 . S
H625 C585 0.950 . S
H626 C591 0.949 . S
H627 C592 0.950 . S
H628 C596 0.951 . S
H629 C597 0.950 . S
H630 C601 0.949 . S
H631 C602 0.950 . S
H632 C606 0.950 . S
H633 C608 0.950 . S
H634 C611 0.950 . S
H635 C613 0.950 . S
C636 C637 1.443 . S
C636 N640 1.376 . S
C636 C674 1.389 . S
C637 C636 1.443 . S
C637 C638 1.340 . S
C637 H677 0.951 . S
C638 C637 1.340 . S
C638 C639 1.439 . S
C638 H678 0.950 . S
C639 C638 1.439 . S
C639 N640 1.374 . S
C639 C673 1.395 . S
N640 C636 1.376 . S
N640 C639 1.374 . S
N640 Co641 2.008 . S
Co641 N640 2.008 . S
Co641 N642 1.995 . S
Co641 N647 2.008 . S
Co641 N652 1.995 . S
Co641 N657 2.282 . S
Co641 N663 2.282 . S
N642 Co641 1.995 . S
N642 C643 1.376 . S
N642 C646 1.383 . S
C643 N642 1.376 . S
C643 C644 1.446 . S
C643 C673 1.391 . S
C644 C643 1.446 . S
C644 C645 1.339 . S
C644 H679 0.949 . S
C645 C644 1.339 . S
C645 C646 1.439 . S
C645 H680 0.950 . S
C646 N642 1.383 . S
C646 C645 1.439 . S
C646 C675 1.392 . S
N647 Co641 2.008 . S
N647 C648 1.376 . S
N647 C651 1.374 . S
C648 N647 1.376 . S
C648 C649 1.443 . S
C648 C675 1.389 . S
C649 C648 1.443 . S
C649 C650 1.340 . S
C649 H681 0.951 . S
C650 C649 1.340 . S
C650 C651 1.439 . S
C650 H682 0.950 . S
C651 N647 1.374 . S
C651 C650 1.439 . S
C651 C676 1.395 . S
N652 Co641 1.995 . S
N652 C653 1.376 . S
N652 C656 1.383 . S
C653 N652 1.376 . S
C653 C654 1.446 . S
C653 C676 1.391 . S
C654 C653 1.446 . S
C654 C655 1.339 . S
C654 H683 0.949 . S
C655 C654 1.339 . S
C655 C656 1.439 . S
C655 H684 0.950 . S
C656 N652 1.383 . S
C656 C655 1.439 . S
C656 C674 1.392 . S
N657 Co641 2.282 . S
N657 C660 1.332 . S
N657 C662 1.332 . S
C658 C659 1.386 . S
C658 C661 1.388 . S
C659 C658 1.386 . S
C659 C660 1.382 . S
C659 H685 0.950 . S
C660 N657 1.332 . S
C660 C659 1.382 . S
C660 H671 0.952 . S
C661 C658 1.388 . S
C661 C662 1.382 . S
C661 H686 0.950 . S
C662 N657 1.332 . S
C662 C661 1.382 . S
C662 H672 0.948 . S
N663 Co641 2.282 . S
N663 C667 1.332 . S
N663 C668 1.332 . S
C664 C665 1.388 . S
C664 C668 1.382 . S
C664 H687 0.950 . S
C665 C664 1.388 . S
C665 C666 1.386 . S
C666 C665 1.386 . S
C666 C667 1.382 . S
C666 H688 0.950 . S
C667 N663 1.332 . S
C667 C666 1.382 . S
C667 H669 0.952 . S
C668 N663 1.332 . S
C668 C664 1.382 . S
C668 H670 0.948 . S
H669 C667 0.952 . S
H670 C668 0.948 . S
H671 C660 0.952 . S
H672 C662 0.948 . S
C673 C639 1.395 . S
C673 C643 1.391 . S
C674 C636 1.389 . S
C674 C656 1.392 . S
C675 C646 1.392 . S
C675 C648 1.389 . S
C676 C651 1.395 . S
C676 C653 1.391 . S
H677 C637 0.951 . S
H678 C638 0.950 . S
H679 C644 0.949 . S
H680 C645 0.950 . S
H681 C649 0.951 . S
H682 C650 0.950 . S
H683 C654 0.949 . S
H684 C655 0.950 . S
H685 C659 0.950 . S
H686 C661 0.950 . S
H687 C664 0.950 . S
H688 C666 0.950 . S
C689 C690 1.443 . S
C689 N693 1.376 . S
C689 C727 1.389 . S
C690 C689 1.443 . S
C690 C691 1.340 . S
C690 H730 0.951 . S
C691 C690 1.340 . S
C691 C692 1.439 . S
C691 H731 0.950 . S
C692 C691 1.439 . S
C692 N693 1.374 . S
C692 C726 1.395 . S
N693 C689 1.376 . S
N693 C692 1.374 . S
N693 Co694 2.008 . S
Co694 N693 2.008 . S
Co694 N695 1.995 . S
Co694 N700 2.008 . S
Co694 N705 1.995 . S
Co694 N710 2.282 . S
Co694 N716 2.282 . S
N695 Co694 1.995 . S
N695 C696 1.376 . S
N695 C699 1.383 . S
C696 N695 1.376 . S
C696 C697 1.446 . S
C696 C726 1.391 . S
C697 C696 1.446 . S
C697 C698 1.339 . S
C697 H732 0.949 . S
C698 C697 1.339 . S
C698 C699 1.439 . S
C698 H733 0.950 . S
C699 N695 1.383 . S
C699 C698 1.439 . S
C699 C728 1.392 . S
N700 Co694 2.008 . S
N700 C701 1.376 . S
N700 C704 1.374 . S
C701 N700 1.376 . S
C701 C702 1.443 . S
C701 C728 1.389 . S
C702 C701 1.443 . S
C702 C703 1.340 . S
C702 H734 0.951 . S
C703 C702 1.340 . S
C703 C704 1.439 . S
C703 H735 0.950 . S
C704 N700 1.374 . S
C704 C703 1.439 . S
C704 C729 1.395 . S
N705 Co694 1.995 . S
N705 C706 1.376 . S
N705 C709 1.383 . S
C706 N705 1.376 . S
C706 C707 1.446 . S
C706 C729 1.391 . S
C707 C706 1.446 . S
C707 C708 1.339 . S
C707 H736 0.949 . S
C708 C707 1.339 . S
C708 C709 1.439 . S
C708 H737 0.950 . S
C709 N705 1.383 . S
C709 C708 1.439 . S
C709 C727 1.392 . S
N710 Co694 2.282 . S
N710 C713 1.332 . S
N710 C715 1.332 . S
C711 C712 1.386 . S
C711 C714 1.388 . S
C712 C711 1.386 . S
C712 C713 1.382 . S
C712 H738 0.950 . S
C713 N710 1.332 . S
C713 C712 1.382 . S
C713 H724 0.952 . S
C714 C711 1.388 . S
C714 C715 1.382 . S
C714 H739 0.950 . S
C715 N710 1.332 . S
C715 C714 1.382 . S
C715 H725 0.948 . S
N716 Co694 2.282 . S
N716 C720 1.332 . S
N716 C721 1.332 . S
C717 C718 1.386 . S
C717 C721 1.384 1_455 S
C717 H740 0.950 . S
C718 C717 1.386 . S
C718 C719 1.386 . S
C719 C718 1.386 . S
C719 C720 1.382 1_455 S
C719 H741 0.950 . S
C720 N716 1.332 . S
C720 C719 1.382 1_655 S
C720 H722 0.952 . S
C721 N716 1.332 . S
C721 C717 1.384 1_655 S
C721 H723 0.948 . S
H722 C720 0.952 . S
H723 C721 0.948 . S
H724 C713 0.952 . S
H725 C715 0.948 . S
C726 C692 1.395 . S
C726 C696 1.391 . S
C727 C689 1.389 . S
C727 C709 1.392 . S
C728 C699 1.392 . S
C728 C701 1.389 . S
C729 C704 1.395 . S
C729 C706 1.391 . S
H730 C690 0.951 . S
H731 C691 0.950 . S
H732 C697 0.949 . S
H733 C698 0.950 . S
H734 C702 0.951 . S
H735 C703 0.950 . S
H736 C707 0.949 . S
H737 C708 0.950 . S
H738 C712 0.950 . S
H739 C714 0.950 . S
H740 C717 0.950 . S
H741 C719 0.950 . S
C742 C743 1.443 . S
C742 N746 1.376 . S
C742 C780 1.389 . S
C743 C742 1.443 . S
C743 C744 1.340 . S
C743 H783 0.951 . S
C744 C743 1.340 . S
C744 C745 1.439 . S
C744 H784 0.950 . S
C745 C744 1.439 . S
C745 N746 1.374 . S
C745 C779 1.395 . S
N746 C742 1.376 . S
N746 C745 1.374 . S
N746 Co747 2.008 . S
Co747 N746 2.008 . S
Co747 N748 1.995 . S
Co747 N753 2.008 . S
Co747 N758 1.995 . S
Co747 N763 2.282 . S
Co747 N769 2.282 . S
N748 Co747 1.995 . S
N748 C749 1.376 . S
N748 C752 1.383 . S
C749 N748 1.376 . S
C749 C750 1.446 . S
C749 C779 1.391 . S
C750 C749 1.446 . S
C750 C751 1.339 . S
C750 H785 0.949 . S
C751 C750 1.339 . S
C751 C752 1.439 . S
C751 H786 0.950 . S
C752 N748 1.383 . S
C752 C751 1.439 . S
C752 C781 1.392 . S
N753 Co747 2.008 . S
N753 C754 1.376 . S
N753 C757 1.374 . S
C754 N753 1.376 . S
C754 C755 1.443 . S
C754 C781 1.389 . S
C755 C754 1.443 . S
C755 C756 1.340 . S
C755 H787 0.951 . S
C756 C755 1.340 . S
C756 C757 1.439 . S
C756 H788 0.950 . S
C757 N753 1.374 . S
C757 C756 1.439 . S
C757 C782 1.395 . S
N758 Co747 1.995 . S
N758 C759 1.376 . S
N758 C762 1.383 . S
C759 N758 1.376 . S
C759 C760 1.446 . S
C759 C782 1.391 . S
C760 C759 1.446 . S
C760 C761 1.339 . S
C760 H789 0.949 . S
C761 C760 1.339 . S
C761 C762 1.439 . S
C761 H790 0.950 . S
C762 N758 1.383 . S
C762 C761 1.439 . S
C762 C780 1.392 . S
N763 Co747 2.282 . S
N763 C766 1.332 . S
N763 C768 1.332 . S
C764 C765 1.386 . S
C764 C767 1.388 . S
C765 C764 1.386 . S
C765 C766 1.382 . S
C765 H791 0.950 . S
C766 N763 1.332 . S
C766 C765 1.382 . S
C766 H777 0.952 . S
C767 C764 1.388 . S
C767 C768 1.382 . S
C767 H792 0.950 . S
C768 N763 1.332 . S
C768 C767 1.382 . S
C768 H778 0.948 . S
N769 Co747 2.282 . S
N769 C773 1.332 . S
N769 C774 1.332 . S
C770 C771 1.388 . S
C770 C774 1.382 . S
C770 H793 0.950 . S
C771 C770 1.388 . S
C771 C772 1.386 . S
C772 C771 1.386 . S
C772 C773 1.382 . S
C772 H794 0.950 . S
C773 N769 1.332 . S
C773 C772 1.382 . S
C773 H775 0.952 . S
C774 N769 1.332 . S
C774 C770 1.382 . S
C774 H776 0.948 . S
H775 C773 0.952 . S
H776 C774 0.948 . S
H777 C766 0.952 . S
H778 C768 0.948 . S
C779 C745 1.395 . S
C779 C749 1.391 . S
C780 C742 1.389 . S
C780 C762 1.392 . S
C781 C752 1.392 . S
C781 C754 1.389 . S
C782 C757 1.395 . S
C782 C759 1.391 . S
H783 C743 0.951 . S
H784 C744 0.950 . S
H785 C750 0.949 . S
H786 C751 0.950 . S
H787 C755 0.951 . S
H788 C756 0.950 . S
H789 C760 0.949 . S
H790 C761 0.950 . S
H791 C765 0.950 . S
H792 C767 0.950 . S
H793 C770 0.950 . S
H794 C772 0.950 . S
C795 C796 1.443 . S
C795 N799 1.376 . S
C795 C833 1.389 . S
C796 C795 1.443 . S
C796 C797 1.340 . S
C796 H836 0.951 . S
C797 C796 1.340 . S
C797 C798 1.439 . S
C797 H837 0.950 . S
C798 C797 1.439 . S
C798 N799 1.374 . S
C798 C832 1.395 . S
N799 C795 1.376 . S
N799 C798 1.374 . S
N799 Co800 2.008 . S
Co800 N799 2.008 . S
Co800 N801 1.995 . S
Co800 N806 2.008 . S
Co800 N811 1.995 . S
Co800 N816 2.282 . S
Co800 N822 2.282 . S
N801 Co800 1.995 . S
N801 C802 1.376 . S
N801 C805 1.383 . S
C802 N801 1.376 . S
C802 C803 1.446 . S
C802 C832 1.391 . S
C803 C802 1.446 . S
C803 C804 1.339 . S
C803 H838 0.949 . S
C804 C803 1.339 . S
C804 C805 1.439 . S
C804 H839 0.950 . S
C805 N801 1.383 . S
C805 C804 1.439 . S
C805 C834 1.392 . S
N806 Co800 2.008 . S
N806 C807 1.376 . S
N806 C810 1.374 . S
C807 N806 1.376 . S
C807 C808 1.443 . S
C807 C834 1.389 . S
C808 C807 1.443 . S
C808 C809 1.340 . S
C808 H840 0.951 . S
C809 C808 1.340 . S
C809 C810 1.439 . S
C809 H841 0.950 . S
C810 N806 1.374 . S
C810 C809 1.439 . S
C810 C835 1.395 . S
N811 Co800 1.995 . S
N811 C812 1.376 . S
N811 C815 1.383 . S
C812 N811 1.376 . S
C812 C813 1.446 . S
C812 C835 1.391 . S
C813 C812 1.446 . S
C813 C814 1.339 . S
C813 H842 0.949 . S
C814 C813 1.339 . S
C814 C815 1.439 . S
C814 H843 0.950 . S
C815 N811 1.383 . S
C815 C814 1.439 . S
C815 C833 1.392 . S
N816 Co800 2.282 . S
N816 C819 1.332 . S
N816 C821 1.332 . S
C817 C818 1.386 . S
C817 C820 1.388 . S
C818 C817 1.386 . S
C818 C819 1.382 . S
C818 H844 0.950 . S
C819 N816 1.332 . S
C819 C818 1.382 . S
C819 H830 0.952 . S
C820 C817 1.388 . S
C820 C821 1.382 . S
C820 H845 0.950 . S
C821 N816 1.332 . S
C821 C820 1.382 . S
C821 H831 0.948 . S
N822 Co800 2.282 . S
N822 C826 1.332 . S
N822 C827 1.332 . S
C823 C824 1.386 . S
C823 C827 1.384 1_455 S
C823 H846 0.950 . S
C824 C823 1.386 . S
C824 C825 1.386 . S
C825 C824 1.386 . S
C825 C826 1.382 1_455 S
C825 H847 0.950 . S
C826 N822 1.332 . S
C826 C825 1.382 1_655 S
C826 H828 0.952 . S
C827 N822 1.332 . S
C827 C823 1.384 1_655 S
C827 H829 0.948 . S
H828 C826 0.952 . S
H829 C827 0.948 . S
H830 C819 0.952 . S
H831 C821 0.948 . S
C832 C798 1.395 . S
C832 C802 1.391 . S
C833 C795 1.389 . S
C833 C815 1.392 . S
C834 C805 1.392 . S
C834 C807 1.389 . S
C835 C810 1.395 . S
C835 C812 1.391 . S
H836 C796 0.951 . S
H837 C797 0.950 . S
H838 C803 0.949 . S
H839 C804 0.950 . S
H840 C808 0.951 . S
H841 C809 0.950 . S
H842 C813 0.949 . S
H843 C814 0.950 . S
H844 C818 0.950 . S
H845 C820 0.950 . S
H846 C823 0.950 . S
H847 C825 0.950 . S
C848 C849 1.443 . S
C848 N852 1.376 . S
C848 C886 1.389 . S
C849 C848 1.443 . S
C849 C850 1.340 . S
C849 H889 0.951 . S
C850 C849 1.340 . S
C850 C851 1.439 . S
C850 H890 0.950 . S
C851 C850 1.439 . S
C851 N852 1.374 . S
C851 C885 1.395 . S
N852 C848 1.376 . S
N852 C851 1.374 . S
N852 Co853 2.008 . S
Co853 N852 2.008 . S
Co853 N854 1.995 . S
Co853 N859 2.008 . S
Co853 N864 1.995 . S
Co853 N869 2.282 . S
Co853 N875 2.282 . S
N854 Co853 1.995 . S
N854 C855 1.376 . S
N854 C858 1.383 . S
C855 N854 1.376 . S
C855 C856 1.446 . S
C855 C885 1.391 . S
C856 C855 1.446 . S
C856 C857 1.339 . S
C856 H891 0.949 . S
C857 C856 1.339 . S
C857 C858 1.439 . S
C857 H892 0.950 . S
C858 N854 1.383 . S
C858 C857 1.439 . S
C858 C887 1.392 . S
N859 Co853 2.008 . S
N859 C860 1.376 . S
N859 C863 1.374 . S
C860 N859 1.376 . S
C860 C861 1.443 . S
C860 C887 1.389 . S
C861 C860 1.443 . S
C861 C862 1.340 . S
C861 H893 0.951 . S
C862 C861 1.340 . S
C862 C863 1.439 . S
C862 H894 0.950 . S
C863 N859 1.374 . S
C863 C862 1.439 . S
C863 C888 1.395 . S
N864 Co853 1.995 . S
N864 C865 1.376 . S
N864 C868 1.383 . S
C865 N864 1.376 . S
C865 C866 1.446 . S
C865 C888 1.391 . S
C866 C865 1.446 . S
C866 C867 1.339 . S
C866 H895 0.949 . S
C867 C866 1.339 . S
C867 C868 1.439 . S
C867 H896 0.950 . S
C868 N864 1.383 . S
C868 C867 1.439 . S
C868 C886 1.392 . S
N869 Co853 2.282 . S
N869 C872 1.332 . S
N869 C874 1.332 . S
C870 C871 1.386 . S
C870 C873 1.388 . S
C871 C870 1.386 . S
C871 C872 1.382 . S
C871 H897 0.950 . S
C872 N869 1.332 . S
C872 C871 1.382 . S
C872 H883 0.952 . S
C873 C870 1.388 . S
C873 C874 1.382 . S
C873 H898 0.950 . S
C874 N869 1.332 . S
C874 C873 1.382 . S
C874 H884 0.948 . S
N875 Co853 2.282 . S
N875 C879 1.332 . S
N875 C880 1.332 . S
C876 C877 1.388 . S
C876 C880 1.382 . S
C876 H899 0.950 . S
C877 C876 1.388 . S
C877 C878 1.386 . S
C878 C877 1.386 . S
C878 C879 1.382 . S
C878 H900 0.950 . S
C879 N875 1.332 . S
C879 C878 1.382 . S
C879 H881 0.952 . S
C880 N875 1.332 . S
C880 C876 1.382 . S
C880 H882 0.948 . S
H881 C879 0.952 . S
H882 C880 0.948 . S
H883 C872 0.952 . S
H884 C874 0.948 . S
C885 C851 1.395 . S
C885 C855 1.391 . S
C886 C848 1.389 . S
C886 C868 1.392 . S
C887 C858 1.392 . S
C887 C860 1.389 . S
C888 C863 1.395 . S
C888 C865 1.391 . S
H889 C849 0.951 . S
H890 C850 0.950 . S
H891 C856 0.949 . S
H892 C857 0.950 . S
H893 C861 0.951 . S
H894 C862 0.950 . S
H895 C866 0.949 . S
H896 C867 0.950 . S
H897 C871 0.950 . S
H898 C873 0.950 . S
H899 C876 0.950 . S
H900 C878 0.950 . S
C901 C902 1.443 . S
C901 N905 1.376 . S
C901 C939 1.389 . S
C902 C901 1.443 . S
C902 C903 1.340 . S
C902 H942 0.951 . S
C903 C902 1.340 . S
C903 C904 1.439 . S
C903 H943 0.950 . S
C904 C903 1.439 . S
C904 N905 1.374 . S
C904 C938 1.395 . S
N905 C901 1.376 . S
N905 C904 1.374 . S
N905 Co906 2.008 . S
Co906 N905 2.008 . S
Co906 N907 1.995 . S
Co906 N912 2.008 . S
Co906 N917 1.995 . S
Co906 N922 2.282 . S
Co906 N928 2.282 . S
N907 Co906 1.995 . S
N907 C908 1.376 . S
N907 C911 1.383 . S
C908 N907 1.376 . S
C908 C909 1.446 . S
C908 C938 1.391 . S
C909 C908 1.446 . S
C909 C910 1.339 . S
C909 H944 0.949 . S
C910 C909 1.339 . S
C910 C911 1.439 . S
C910 H945 0.950 . S
C911 N907 1.383 . S
C911 C910 1.439 . S
C911 C940 1.392 . S
N912 Co906 2.008 . S
N912 C913 1.376 . S
N912 C916 1.374 . S
C913 N912 1.376 . S
C913 C914 1.443 . S
C913 C940 1.389 . S
C914 C913 1.443 . S
C914 C915 1.340 . S
C914 H946 0.951 . S
C915 C914 1.340 . S
C915 C916 1.439 . S
C915 H947 0.950 . S
C916 N912 1.374 . S
C916 C915 1.439 . S
C916 C941 1.395 . S
N917 Co906 1.995 . S
N917 C918 1.376 . S
N917 C921 1.383 . S
C918 N917 1.376 . S
C918 C919 1.446 . S
C918 C941 1.391 . S
C919 C918 1.446 . S
C919 C920 1.339 . S
C919 H948 0.949 . S
C920 C919 1.339 . S
C920 C921 1.439 . S
C920 H949 0.950 . S
C921 N917 1.383 . S
C921 C920 1.439 . S
C921 C939 1.392 . S
N922 Co906 2.282 . S
N922 C925 1.332 . S
N922 C927 1.332 . S
C923 C924 1.386 . S
C923 C926 1.388 . S
C924 C923 1.386 . S
C924 C925 1.382 . S
C924 H950 0.950 . S
C925 N922 1.332 . S
C925 C924 1.382 . S
C925 H936 0.952 . S
C926 C923 1.388 . S
C926 C927 1.382 . S
C926 H951 0.950 . S
C927 N922 1.332 . S
C927 C926 1.382 . S
C927 H937 0.948 . S
N928 Co906 2.282 . S
N928 C932 1.332 . S
N928 C933 1.332 . S
C929 C930 1.388 . S
C929 C933 1.382 . S
C929 H952 0.950 . S
C930 C929 1.388 . S
C930 C931 1.386 . S
C931 C930 1.386 . S
C931 C932 1.382 . S
C931 H953 0.950 . S
C932 N928 1.332 . S
C932 C931 1.382 . S
C932 H934 0.952 . S
C933 N928 1.332 . S
C933 C929 1.382 . S
C933 H935 0.948 . S
H934 C932 0.952 . S
H935 C933 0.948 . S
H936 C925 0.952 . S
H937 C927 0.948 . S
C938 C904 1.395 . S
C938 C908 1.391 . S
C939 C901 1.389 . S
C939 C921 1.392 . S
C940 C911 1.392 . S
C940 C913 1.389 . S
C941 C916 1.395 . S
C941 C918 1.391 . S
H942 C902 0.951 . S
H943 C903 0.950 . S
H944 C909 0.949 . S
H945 C910 0.950 . S
H946 C914 0.951 . S
H947 C915 0.950 . S
H948 C919 0.949 . S
H949 C920 0.950 . S
H950 C924 0.950 . S
H951 C926 0.950 . S
H952 C929 0.950 . S
H953 C931 0.950 . S
C954 C955 1.443 . S
C954 N958 1.376 . S
C954 C992 1.389 . S
C955 C954 1.443 . S
C955 C956 1.340 . S
C955 H995 0.951 . S
C956 C955 1.340 . S
C956 C957 1.439 . S
C956 H996 0.950 . S
C957 C956 1.439 . S
C957 N958 1.374 . S
C957 C991 1.395 . S
N958 C954 1.376 . S
N958 C957 1.374 . S
N958 Co959 2.008 . S
Co959 N958 2.008 . S
Co959 N960 1.995 . S
Co959 N965 2.008 . S
Co959 N970 1.995 . S
Co959 N975 2.282 . S
Co959 N981 2.282 . S
N960 Co959 1.995 . S
N960 C961 1.376 . S
N960 C964 1.383 . S
C961 N960 1.376 . S
C961 C962 1.446 . S
C961 C991 1.391 . S
C962 C961 1.446 . S
C962 C963 1.339 . S
C962 H997 0.949 . S
C963 C962 1.339 . S
C963 C964 1.439 . S
C963 H998 0.950 . S
C964 N960 1.383 . S
C964 C963 1.439 . S
C964 C993 1.392 . S
N965 Co959 2.008 . S
N965 C966 1.376 . S
N965 C969 1.374 . S
C966 N965 1.376 . S
C966 C967 1.443 . S
C966 C993 1.389 . S
C967 C966 1.443 . S
C967 C968 1.340 . S
C967 H999 0.951 . S
C968 C967 1.340 . S
C968 C969 1.439 . S
C968 H1000 0.950 . S
C969 N965 1.374 . S
C969 C968 1.439 . S
C969 C994 1.395 . S
N970 Co959 1.995 . S
N970 C971 1.376 . S
N970 C974 1.383 . S
C971 N970 1.376 . S
C971 C972 1.446 . S
C971 C994 1.391 . S
C972 C971 1.446 . S
C972 C973 1.339 . S
C972 H1001 0.949 . S
C973 C972 1.339 . S
C973 C974 1.439 . S
C973 H1002 0.950 . S
C974 N970 1.383 . S
C974 C973 1.439 . S
C974 C992 1.392 . S
N975 Co959 2.282 . S
N975 C978 1.332 . S
N975 C980 1.332 . S
C976 C977 1.386 . S
C976 C979 1.388 . S
C977 C976 1.386 . S
C977 C978 1.382 . S
C977 H1003 0.950 . S
C978 N975 1.332 . S
C978 C977 1.382 . S
C978 H989 0.952 . S
C979 C976 1.388 . S
C979 C980 1.382 . S
C979 H1004 0.950 . S
C980 N975 1.332 . S
C980 C979 1.382 . S
C980 H990 0.948 . S
N981 Co959 2.282 . S
N981 C985 1.332 . S
N981 C986 1.332 . S
C982 C983 1.388 . S
C982 C986 1.382 . S
C982 H1005 0.950 . S
C983 C982 1.388 . S
C983 C984 1.386 . S
C984 C983 1.386 . S
C984 C985 1.382 . S
C984 H1006 0.950 . S
C985 N981 1.332 . S
C985 C984 1.382 . S
C985 H987 0.952 . S
C986 N981 1.332 . S
C986 C982 1.382 . S
C986 H988 0.948 . S
H987 C985 0.952 . S
H988 C986 0.948 . S
H989 C978 0.952 . S
H990 C980 0.948 . S
C991 C957 1.395 . S
C991 C961 1.391 . S
C992 C954 1.389 . S
C992 C974 1.392 . S
C993 C964 1.392 . S
C993 C966 1.389 . S
C994 C969 1.395 . S
C994 C971 1.391 . S
H995 C955 0.951 . S
H996 C956 0.950 . S
H997 C962 0.949 . S
H998 C963 0.950 . S
H999 C967 0.951 . S
H1000 C968 0.950 . S
H1001 C972 0.949 . S
H1002 C973 0.950 . S
H1003 C977 0.950 . S
H1004 C979 0.950 . S
H1005 C982 0.950 . S
H1006 C984 0.950 . S
C1007 C1008 1.443 . S
C1007 N1011 1.376 . S
C1007 C1045 1.389 . S
C1008 C1007 1.443 . S
C1008 C1009 1.340 . S
C1008 H1048 0.951 . S
C1009 C1008 1.340 . S
C1009 C1010 1.439 . S
C1009 H1049 0.950 . S
C1010 C1009 1.439 . S
C1010 N1011 1.374 . S
C1010 C1044 1.395 . S
N1011 C1007 1.376 . S
N1011 C1010 1.374 . S
N1011 Co1012 2.008 . S
Co1012 N1011 2.008 . S
Co1012 N1013 1.995 . S
Co1012 N1018 2.008 . S
Co1012 N1023 1.995 . S
Co1012 N1028 2.282 . S
Co1012 N1034 2.282 . S
N1013 Co1012 1.995 . S
N1013 C1014 1.376 . S
N1013 C1017 1.383 . S
C1014 N1013 1.376 . S
C1014 C1015 1.446 . S
C1014 C1044 1.391 . S
C1015 C1014 1.446 . S
C1015 C1016 1.339 . S
C1015 H1050 0.949 . S
C1016 C1015 1.339 . S
C1016 C1017 1.439 . S
C1016 H1051 0.950 . S
C1017 N1013 1.383 . S
C1017 C1016 1.439 . S
C1017 C1046 1.392 . S
N1018 Co1012 2.008 . S
N1018 C1019 1.376 . S
N1018 C1022 1.374 . S
C1019 N1018 1.376 . S
C1019 C1020 1.443 . S
C1019 C1046 1.389 . S
C1020 C1019 1.443 . S
C1020 C1021 1.340 . S
C1020 H1052 0.951 . S
C1021 C1020 1.340 . S
C1021 C1022 1.439 . S
C1021 H1053 0.950 . S
C1022 N1018 1.374 . S
C1022 C1021 1.439 . S
C1022 C1047 1.395 . S
N1023 Co1012 1.995 . S
N1023 C1024 1.376 . S
N1023 C1027 1.383 . S
C1024 N1023 1.376 . S
C1024 C1025 1.446 . S
C1024 C1047 1.391 . S
C1025 C1024 1.446 . S
C1025 C1026 1.339 . S
C1025 H1054 0.949 . S
C1026 C1025 1.339 . S
C1026 C1027 1.439 . S
C1026 H1055 0.950 . S
C1027 N1023 1.383 . S
C1027 C1026 1.439 . S
C1027 C1045 1.392 . S
N1028 Co1012 2.282 . S
N1028 C1031 1.332 . S
N1028 C1033 1.332 . S
C1029 C1030 1.386 . S
C1029 C1032 1.388 . S
C1030 C1029 1.386 . S
C1030 C1031 1.382 . S
C1030 H1056 0.950 . S
C1031 N1028 1.332 . S
C1031 C1030 1.382 . S
C1031 H1042 0.952 . S
C1032 C1029 1.388 . S
C1032 C1033 1.382 . S
C1032 H1057 0.950 . S
C1033 N1028 1.332 . S
C1033 C1032 1.382 . S
C1033 H1043 0.948 . S
N1034 Co1012 2.282 . S
N1034 C1038 1.332 . S
N1034 C1039 1.332 . S
C1035 C1036 1.388 . S
C1035 C1039 1.382 . S
C1035 H1058 0.950 . S
C1036 C1035 1.388 . S
C1036 C1037 1.386 . S
C1037 C1036 1.386 . S
C1037 C1038 1.382 . S
C1037 H1059 0.950 . S
C1038 N1034 1.332 . S
C1038 C1037 1.382 . S
C1038 H1040 0.952 . S
C1039 N1034 1.332 . S
C1039 C1035 1.382 . S
C1039 H1041 0.948 . S
H1040 C1038 0.952 . S
H1041 C1039 0.948 . S
H1042 C1031 0.952 . S
H1043 C1033 0.948 . S
C1044 C1010 1.395 . S
C1044 C1014 1.391 . S
C1045 C1007 1.389 . S
C1045 C1027 1.392 . S
C1046 C1017 1.392 . S
C1046 C1019 1.389 . S
C1047 C1022 1.395 . S
C1047 C1024 1.391 . S
H1048 C1008 0.951 . S
H1049 C1009 0.950 . S
H1050 C1015 0.949 . S
H1051 C1016 0.950 . S
H1052 C1020 0.951 . S
H1053 C1021 0.950 . S
H1054 C1025 0.949 . S
H1055 C1026 0.950 . S
H1056 C1030 0.950 . S
H1057 C1032 0.950 . S
H1058 C1035 0.950 . S
H1059 C1037 0.950 . S
C1060 C1061 1.443 . S
C1060 N1064 1.376 . S
C1060 C1098 1.389 . S
C1061 C1060 1.443 . S
C1061 C1062 1.340 . S
C1061 H1101 0.951 . S
C1062 C1061 1.340 . S
C1062 C1063 1.439 . S
C1062 H1102 0.950 . S
C1063 C1062 1.439 . S
C1063 N1064 1.374 . S
C1063 C1097 1.395 . S
N1064 C1060 1.376 . S
N1064 C1063 1.374 . S
N1064 Co1065 2.008 . S
Co1065 N1064 2.008 . S
Co1065 N1066 1.995 . S
Co1065 N1071 2.008 . S
Co1065 N1076 1.995 . S
Co1065 N1081 2.282 . S
Co1065 N1087 2.282 . S
N1066 Co1065 1.995 . S
N1066 C1067 1.376 . S
N1066 C1070 1.383 . S
C1067 N1066 1.376 . S
C1067 C1068 1.446 . S
C1067 C1097 1.391 . S
C1068 C1067 1.446 . S
C1068 C1069 1.339 . S
C1068 H1103 0.949 . S
C1069 C1068 1.339 . S
C1069 C1070 1.439 . S
C1069 H1104 0.950 . S
C1070 N1066 1.383 . S
C1070 C1069 1.439 . S
C1070 C1099 1.392 . S
N1071 Co1065 2.008 . S
N1071 C1072 1.376 . S
N1071 C1075 1.374 . S
C1072 N1071 1.376 . S
C1072 C1073 1.443 . S
C1072 C1099 1.389 . S
C1073 C1072 1.443 . S
C1073 C1074 1.340 . S
C1073 H1105 0.951 . S
C1074 C1073 1.340 . S
C1074 C1075 1.439 . S
C1074 H1106 0.950 . S
C1075 N1071 1.374 . S
C1075 C1074 1.439 . S
C1075 C1100 1.395 . S
N1076 Co1065 1.995 . S
N1076 C1077 1.376 . S
N1076 C1080 1.383 . S
C1077 N1076 1.376 . S
C1077 C1078 1.446 . S
C1077 C1100 1.391 . S
C1078 C1077 1.446 . S
C1078 C1079 1.339 . S
C1078 H1107 0.949 . S
C1079 C1078 1.339 . S
C1079 C1080 1.439 . S
C1079 H1108 0.950 . S
C1080 N1076 1.383 . S
C1080 C1079 1.439 . S
C1080 C1098 1.392 . S
N1081 Co1065 2.282 . S
N1081 C1084 1.332 . S
N1081 C1086 1.332 . S
C1082 C1083 1.386 . S
C1082 C1085 1.388 . S
C1083 C1082 1.386 . S
C1083 C1084 1.382 . S
C1083 H1109 0.950 . S
C1084 N1081 1.332 . S
C1084 C1083 1.382 . S
C1084 H1095 0.952 . S
C1085 C1082 1.388 . S
C1085 C1086 1.382 . S
C1085 H1110 0.950 . S
C1086 N1081 1.332 . S
C1086 C1085 1.382 . S
C1086 H1096 0.948 . S
N1087 Co1065 2.282 . S
N1087 C1091 1.332 . S
N1087 C1092 1.332 . S
C1088 C1089 1.388 . S
C1088 C1092 1.382 . S
C1088 H1111 0.950 . S
C1089 C1088 1.388 . S
C1089 C1090 1.386 . S
C1090 C1089 1.386 . S
C1090 C1091 1.382 . S
C1090 H1112 0.950 . S
C1091 N1087 1.332 . S
C1091 C1090 1.382 . S
C1091 H1093 0.952 . S
C1092 N1087 1.332 . S
C1092 C1088 1.382 . S
C1092 H1094 0.948 . S
H1093 C1091 0.952 . S
H1094 C1092 0.948 . S
H1095 C1084 0.952 . S
H1096 C1086 0.948 . S
C1097 C1063 1.395 . S
C1097 C1067 1.391 . S
C1098 C1060 1.389 . S
C1098 C1080 1.392 . S
C1099 C1070 1.392 . S
C1099 C1072 1.389 . S
C1100 C1075 1.395 . S
C1100 C1077 1.391 . S
H1101 C1061 0.951 . S
H1102 C1062 0.950 . S
H1103 C1068 0.949 . S
H1104 C1069 0.950 . S
H1105 C1073 0.951 . S
H1106 C1074 0.950 . S
H1107 C1078 0.949 . S
H1108 C1079 0.950 . S
H1109 C1083 0.950 . S
H1110 C1085 0.950 . S
H1111 C1088 0.950 . S
H1112 C1090 0.950 . S
C1113 C1114 1.443 . S
C1113 N1117 1.376 . S
C1113 C1151 1.389 . S
C1114 C1113 1.443 . S
C1114 C1115 1.340 . S
C1114 H1154 0.951 . S
C1115 C1114 1.340 . S
C1115 C1116 1.439 . S
C1115 H1155 0.950 . S
C1116 C1115 1.439 . S
C1116 N1117 1.374 . S
C1116 C1150 1.395 . S
N1117 C1113 1.376 . S
N1117 C1116 1.374 . S
N1117 Co1118 2.008 . S
Co1118 N1117 2.008 . S
Co1118 N1119 1.995 . S
Co1118 N1124 2.008 . S
Co1118 N1129 1.995 . S
Co1118 N1134 2.282 . S
Co1118 N1140 2.282 . S
N1119 Co1118 1.995 . S
N1119 C1120 1.376 . S
N1119 C1123 1.383 . S
C1120 N1119 1.376 . S
C1120 C1121 1.446 . S
C1120 C1150 1.391 . S
C1121 C1120 1.446 . S
C1121 C1122 1.339 . S
C1121 H1156 0.949 . S
C1122 C1121 1.339 . S
C1122 C1123 1.439 . S
C1122 H1157 0.950 . S
C1123 N1119 1.383 . S
C1123 C1122 1.439 . S
C1123 C1152 1.392 . S
N1124 Co1118 2.008 . S
N1124 C1125 1.376 . S
N1124 C1128 1.374 . S
C1125 N1124 1.376 . S
C1125 C1126 1.443 . S
C1125 C1152 1.389 . S
C1126 C1125 1.443 . S
C1126 C1127 1.340 . S
C1126 H1158 0.951 . S
C1127 C1126 1.340 . S
C1127 C1128 1.439 . S
C1127 H1159 0.950 . S
C1128 N1124 1.374 . S
C1128 C1127 1.439 . S
C1128 C1153 1.395 . S
N1129 Co1118 1.995 . S
N1129 C1130 1.376 . S
N1129 C1133 1.383 . S
C1130 N1129 1.376 . S
C1130 C1131 1.446 . S
C1130 C1153 1.391 . S
C1131 C1130 1.446 . S
C1131 C1132 1.339 . S
C1131 H1160 0.949 . S
C1132 C1131 1.339 . S
C1132 C1133 1.439 . S
C1132 H1161 0.950 . S
C1133 N1129 1.383 . S
C1133 C1132 1.439 . S
C1133 C1151 1.392 . S
N1134 Co1118 2.282 . S
N1134 C1137 1.332 . S
N1134 C1139 1.332 . S
C1135 C1136 1.386 . S
C1135 C1138 1.388 . S
C1136 C1135 1.386 . S
C1136 C1137 1.382 . S
C1136 H1162 0.950 . S
C1137 N1134 1.332 . S
C1137 C1136 1.382 . S
C1137 H1148 0.952 . S
C1138 C1135 1.388 . S
C1138 C1139 1.382 . S
C1138 H1163 0.950 . S
C1139 N1134 1.332 . S
C1139 C1138 1.382 . S
C1139 H1149 0.948 . S
N1140 Co1118 2.282 . S
N1140 C1144 1.332 . S
N1140 C1145 1.332 . S
C1141 C1142 1.388 . S
C1141 C1145 1.382 . S
C1141 H1164 0.950 . S
C1142 C1141 1.388 . S
C1142 C1143 1.386 . S
C1143 C1142 1.386 . S
C1143 C1144 1.382 . S
C1143 H1165 0.950 . S
C1144 N1140 1.332 . S
C1144 C1143 1.382 . S
C1144 H1146 0.952 . S
C1145 N1140 1.332 . S
C1145 C1141 1.382 . S
C1145 H1147 0.948 . S
H1146 C1144 0.952 . S
H1147 C1145 0.948 . S
H1148 C1137 0.952 . S
H1149 C1139 0.948 . S
C1150 C1116 1.395 . S
C1150 C1120 1.391 . S
C1151 C1113 1.389 . S
C1151 C1133 1.392 . S
C1152 C1123 1.392 . S
C1152 C1125 1.389 . S
C1153 C1128 1.395 . S
C1153 C1130 1.391 . S
H1154 C1114 0.951 . S
H1155 C1115 0.950 . S
H1156 C1121 0.949 . S
H1157 C1122 0.950 . S
H1158 C1126 0.951 . S
H1159 C1127 0.950 . S
H1160 C1131 0.949 . S
H1161 C1132 0.950 . S
H1162 C1136 0.950 . S
H1163 C1138 0.950 . S
H1164 C1141 0.950 . S
H1165 C1143 0.950 . S
C1166 C1167 1.443 . S
C1166 N1170 1.376 . S
C1166 C1204 1.389 . S
C1167 C1166 1.443 . S
C1167 C1168 1.340 . S
C1167 H1207 0.951 . S
C1168 C1167 1.340 . S
C1168 C1169 1.439 . S
C1168 H1208 0.950 . S
C1169 C1168 1.439 . S
C1169 N1170 1.374 . S
C1169 C1203 1.395 . S
N1170 C1166 1.376 . S
N1170 C1169 1.374 . S
N1170 Co1171 2.008 . S
Co1171 N1170 2.008 . S
Co1171 N1172 1.995 . S
Co1171 N1177 2.008 . S
Co1171 N1182 1.995 . S
Co1171 N1187 2.282 . S
Co1171 N1193 2.282 . S
N1172 Co1171 1.995 . S
N1172 C1173 1.376 . S
N1172 C1176 1.383 . S
C1173 N1172 1.376 . S
C1173 C1174 1.446 . S
C1173 C1203 1.391 . S
C1174 C1173 1.446 . S
C1174 C1175 1.339 . S
C1174 H1209 0.949 . S
C1175 C1174 1.339 . S
C1175 C1176 1.439 . S
C1175 H1210 0.950 . S
C1176 N1172 1.383 . S
C1176 C1175 1.439 . S
C1176 C1205 1.392 . S
N1177 Co1171 2.008 . S
N1177 C1178 1.376 . S
N1177 C1181 1.374 . S
C1178 N1177 1.376 . S
C1178 C1179 1.443 . S
C1178 C1205 1.389 . S
C1179 C1178 1.443 . S
C1179 C1180 1.340 . S
C1179 H1211 0.951 . S
C1180 C1179 1.340 . S
C1180 C1181 1.439 . S
C1180 H1212 0.950 . S
C1181 N1177 1.374 . S
C1181 C1180 1.439 . S
C1181 C1206 1.395 . S
N1182 Co1171 1.995 . S
N1182 C1183 1.376 . S
N1182 C1186 1.383 . S
C1183 N1182 1.376 . S
C1183 C1184 1.446 . S
C1183 C1206 1.391 . S
C1184 C1183 1.446 . S
C1184 C1185 1.339 . S
C1184 H1213 0.949 . S
C1185 C1184 1.339 . S
C1185 C1186 1.439 . S
C1185 H1214 0.950 . S
C1186 N1182 1.383 . S
C1186 C1185 1.439 . S
C1186 C1204 1.392 . S
N1187 Co1171 2.282 . S
N1187 C1190 1.332 . S
N1187 C1192 1.332 . S
C1188 C1189 1.386 . S
C1188 C1191 1.388 . S
C1189 C1188 1.386 . S
C1189 C1190 1.382 . S
C1189 H1215 0.950 . S
C1190 N1187 1.332 . S
C1190 C1189 1.382 . S
C1190 H1201 0.952 . S
C1191 C1188 1.388 . S
C1191 C1192 1.382 . S
C1191 H1216 0.950 . S
C1192 N1187 1.332 . S
C1192 C1191 1.382 . S
C1192 H1202 0.948 . S
N1193 Co1171 2.282 . S
N1193 C1197 1.332 . S
N1193 C1198 1.332 . S
C1194 C1195 1.388 . S
C1194 C1198 1.382 . S
C1194 H1217 0.950 . S
C1195 C1194 1.388 . S
C1195 C1196 1.386 . S
C1196 C1195 1.386 . S
C1196 C1197 1.382 . S
C1196 H1218 0.950 . S
C1197 N1193 1.332 . S
C1197 C1196 1.382 . S
C1197 H1199 0.952 . S
C1198 N1193 1.332 . S
C1198 C1194 1.382 . S
C1198 H1200 0.948 . S
H1199 C1197 0.952 . S
H1200 C1198 0.948 . S
H1201 C1190 0.952 . S
H1202 C1192 0.948 . S
C1203 C1169 1.395 . S
C1203 C1173 1.391 . S
C1204 C1166 1.389 . S
C1204 C1186 1.392 . S
C1205 C1176 1.392 . S
C1205 C1178 1.389 . S
C1206 C1181 1.395 . S
C1206 C1183 1.391 . S
H1207 C1167 0.951 . S
H1208 C1168 0.950 . S
H1209 C1174 0.949 . S
H1210 C1175 0.950 . S
H1211 C1179 0.951 . S
H1212 C1180 0.950 . S
H1213 C1184 0.949 . S
H1214 C1185 0.950 . S
H1215 C1189 0.950 . S
H1216 C1191 0.950 . S
H1217 C1194 0.950 . S
H1218 C1196 0.950 . S
C1219 C1220 1.443 . S
C1219 N1223 1.376 . S
C1219 C1257 1.389 . S
C1220 C1219 1.443 . S
C1220 C1221 1.340 . S
C1220 H1260 0.951 . S
C1221 C1220 1.340 . S
C1221 C1222 1.439 . S
C1221 H1261 0.950 . S
C1222 C1221 1.439 . S
C1222 N1223 1.374 . S
C1222 C1256 1.395 . S
N1223 C1219 1.376 . S
N1223 C1222 1.374 . S
N1223 Co1224 2.008 . S
Co1224 N1223 2.008 . S
Co1224 N1225 1.995 . S
Co1224 N1230 2.008 . S
Co1224 N1235 1.995 . S
Co1224 N1240 2.282 . S
Co1224 N1246 2.282 . S
N1225 Co1224 1.995 . S
N1225 C1226 1.376 . S
N1225 C1229 1.383 . S
C1226 N1225 1.376 . S
C1226 C1227 1.446 . S
C1226 C1256 1.391 . S
C1227 C1226 1.446 . S
C1227 C1228 1.339 . S
C1227 H1262 0.949 . S
C1228 C1227 1.339 . S
C1228 C1229 1.439 . S
C1228 H1263 0.950 . S
C1229 N1225 1.383 . S
C1229 C1228 1.439 . S
C1229 C1258 1.392 . S
N1230 Co1224 2.008 . S
N1230 C1231 1.376 . S
N1230 C1234 1.374 . S
C1231 N1230 1.376 . S
C1231 C1232 1.443 . S
C1231 C1258 1.389 . S
C1232 C1231 1.443 . S
C1232 C1233 1.340 . S
C1232 H1264 0.951 . S
C1233 C1232 1.340 . S
C1233 C1234 1.439 . S
C1233 H1265 0.950 . S
C1234 N1230 1.374 . S
C1234 C1233 1.439 . S
C1234 C1259 1.395 . S
N1235 Co1224 1.995 . S
N1235 C1236 1.376 . S
N1235 C1239 1.383 . S
C1236 N1235 1.376 . S
C1236 C1237 1.446 . S
C1236 C1259 1.391 . S
C1237 C1236 1.446 . S
C1237 C1238 1.339 . S
C1237 H1266 0.949 . S
C1238 C1237 1.339 . S
C1238 C1239 1.439 . S
C1238 H1267 0.950 . S
C1239 N1235 1.383 . S
C1239 C1238 1.439 . S
C1239 C1257 1.392 . S
N1240 Co1224 2.282 . S
N1240 C1243 1.332 . S
N1240 C1245 1.332 . S
C1241 C1242 1.386 . S
C1241 C1244 1.388 . S
C1242 C1241 1.386 . S
C1242 C1243 1.382 . S
C1242 H1268 0.950 . S
C1243 N1240 1.332 . S
C1243 C1242 1.382 . S
C1243 H1254 0.952 . S
C1244 C1241 1.388 . S
C1244 C1245 1.382 . S
C1244 H1269 0.950 . S
C1245 N1240 1.332 . S
C1245 C1244 1.382 . S
C1245 H1255 0.948 . S
N1246 Co1224 2.282 . S
N1246 C1250 1.332 . S
N1246 C1251 1.332 . S
C1247 C1248 1.388 . S
C1247 C1251 1.382 . S
C1247 H1270 0.950 . S
C1248 C1247 1.388 . S
C1248 C1249 1.386 . S
C1249 C1248 1.386 . S
C1249 C1250 1.382 . S
C1249 H1271 0.950 . S
C1250 N1246 1.332 . S
C1250 C1249 1.382 . S
C1250 H1252 0.952 . S
C1251 N1246 1.332 . S
C1251 C1247 1.382 . S
C1251 H1253 0.948 . S
H1252 C1250 0.952 . S
H1253 C1251 0.948 . S
H1254 C1243 0.952 . S
H1255 C1245 0.948 . S
C1256 C1222 1.395 . S
C1256 C1226 1.391 . S
C1257 C1219 1.389 . S
C1257 C1239 1.392 . S
C1258 C1229 1.392 . S
C1258 C1231 1.389 . S
C1259 C1234 1.395 . S
C1259 C1236 1.391 . S
H1260 C1220 0.951 . S
H1261 C1221 0.950 . S
H1262 C1227 0.949 . S
H1263 C1228 0.950 . S
H1264 C1232 0.951 . S
H1265 C1233 0.950 . S
H1266 C1237 0.949 . S
H1267 C1238 0.950 . S
H1268 C1242 0.950 . S
H1269 C1244 0.950 . S
H1270 C1247 0.950 . S
H1271 C1249 0.950 . S
C1272 C1273 1.443 . S
C1272 N1276 1.376 . S
C1272 C1310 1.389 . S
C1273 C1272 1.443 . S
C1273 C1274 1.340 . S
C1273 H1313 0.951 . S
C1274 C1273 1.340 . S
C1274 C1275 1.439 . S
C1274 H1314 0.950 . S
C1275 C1274 1.439 . S
C1275 N1276 1.374 . S
C1275 C1309 1.395 . S
N1276 C1272 1.376 . S
N1276 C1275 1.374 . S
N1276 Co1277 2.008 . S
Co1277 N1276 2.008 . S
Co1277 N1278 1.995 . S
Co1277 N1283 2.008 . S
Co1277 N1288 1.995 . S
Co1277 N1293 2.282 . S
Co1277 N1299 2.282 . S
N1278 Co1277 1.995 . S
N1278 C1279 1.376 . S
N1278 C1282 1.383 . S
C1279 N1278 1.376 . S
C1279 C1280 1.446 . S
C1279 C1309 1.391 . S
C1280 C1279 1.446 . S
C1280 C1281 1.339 . S
C1280 H1315 0.949 . S
C1281 C1280 1.339 . S
C1281 C1282 1.439 . S
C1281 H1316 0.950 . S
C1282 N1278 1.383 . S
C1282 C1281 1.439 . S
C1282 C1311 1.392 . S
N1283 Co1277 2.008 . S
N1283 C1284 1.376 . S
N1283 C1287 1.374 . S
C1284 N1283 1.376 . S
C1284 C1285 1.443 . S
C1284 C1311 1.389 . S
C1285 C1284 1.443 . S
C1285 C1286 1.340 . S
C1285 H1317 0.951 . S
C1286 C1285 1.340 . S
C1286 C1287 1.439 . S
C1286 H1318 0.950 . S
C1287 N1283 1.374 . S
C1287 C1286 1.439 . S
C1287 C1312 1.395 . S
N1288 Co1277 1.995 . S
N1288 C1289 1.376 . S
N1288 C1292 1.383 . S
C1289 N1288 1.376 . S
C1289 C1290 1.446 . S
C1289 C1312 1.391 . S
C1290 C1289 1.446 . S
C1290 C1291 1.339 . S
C1290 H1319 0.949 . S
C1291 C1290 1.339 . S
C1291 C1292 1.439 . S
C1291 H1320 0.950 . S
C1292 N1288 1.383 . S
C1292 C1291 1.439 . S
C1292 C1310 1.392 . S
N1293 Co1277 2.282 . S
N1293 C1296 1.332 . S
N1293 C1298 1.332 . S
C1294 C1295 1.386 . S
C1294 C1297 1.388 . S
C1295 C1294 1.386 . S
C1295 C1296 1.382 . S
C1295 H1321 0.950 . S
C1296 N1293 1.332 . S
C1296 C1295 1.382 . S
C1296 H1307 0.952 . S
C1297 C1294 1.388 . S
C1297 C1298 1.382 . S
C1297 H1322 0.950 . S
C1298 N1293 1.332 . S
C1298 C1297 1.382 . S
C1298 H1308 0.948 . S
N1299 Co1277 2.282 . S
N1299 C1303 1.332 . S
N1299 C1304 1.332 . S
C1300 C1301 1.388 . S
C1300 C1304 1.382 . S
C1300 H1323 0.950 . S
C1301 C1300 1.388 . S
C1301 C1302 1.386 . S
C1302 C1301 1.386 . S
C1302 C1303 1.382 . S
C1302 H1324 0.950 . S
C1303 N1299 1.332 . S
C1303 C1302 1.382 . S
C1303 H1305 0.952 . S
C1304 N1299 1.332 . S
C1304 C1300 1.382 . S
C1304 H1306 0.948 . S
H1305 C1303 0.952 . S
H1306 C1304 0.948 . S
H1307 C1296 0.952 . S
H1308 C1298 0.948 . S
C1309 C1275 1.395 . S
C1309 C1279 1.391 . S
C1310 C1272 1.389 . S
C1310 C1292 1.392 . S
C1311 C1282 1.392 . S
C1311 C1284 1.389 . S
C1312 C1287 1.395 . S
C1312 C1289 1.391 . S
H1313 C1273 0.951 . S
H1314 C1274 0.950 . S
H1315 C1280 0.949 . S
H1316 C1281 0.950 . S
H1317 C1285 0.951 . S
H1318 C1286 0.950 . S
H1319 C1290 0.949 . S
H1320 C1291 0.950 . S
H1321 C1295 0.950 . S
H1322 C1297 0.950 . S
H1323 C1300 0.950 . S
H1324 C1302 0.950 . S
C1325 C1326 1.443 . S
C1325 N1329 1.376 . S
C1325 C1363 1.389 . S
C1326 C1325 1.443 . S
C1326 C1327 1.340 . S
C1326 H1366 0.951 . S
C1327 C1326 1.340 . S
C1327 C1328 1.439 . S
C1327 H1367 0.950 . S
C1328 C1327 1.439 . S
C1328 N1329 1.374 . S
C1328 C1362 1.395 . S
N1329 C1325 1.376 . S
N1329 C1328 1.374 . S
N1329 Co1330 2.008 . S
Co1330 N1329 2.008 . S
Co1330 N1331 1.995 . S
Co1330 N1336 2.008 . S
Co1330 N1341 1.995 . S
Co1330 N1346 2.282 . S
Co1330 N1352 2.282 . S
N1331 Co1330 1.995 . S
N1331 C1332 1.376 . S
N1331 C1335 1.383 . S
C1332 N1331 1.376 . S
C1332 C1333 1.446 . S
C1332 C1362 1.391 . S
C1333 C1332 1.446 . S
C1333 C1334 1.339 . S
C1333 H1368 0.949 . S
C1334 C1333 1.339 . S
C1334 C1335 1.439 . S
C1334 H1369 0.950 . S
C1335 N1331 1.383 . S
C1335 C1334 1.439 . S
C1335 C1364 1.392 . S
N1336 Co1330 2.008 . S
N1336 C1337 1.376 . S
N1336 C1340 1.374 . S
C1337 N1336 1.376 . S
C1337 C1338 1.443 . S
C1337 C1364 1.389 . S
C1338 C1337 1.443 . S
C1338 C1339 1.340 . S
C1338 H1370 0.951 . S
C1339 C1338 1.340 . S
C1339 C1340 1.439 . S
C1339 H1371 0.950 . S
C1340 N1336 1.374 . S
C1340 C1339 1.439 . S
C1340 C1365 1.395 . S
N1341 Co1330 1.995 . S
N1341 C1342 1.376 . S
N1341 C1345 1.383 . S
C1342 N1341 1.376 . S
C1342 C1343 1.446 . S
C1342 C1365 1.391 . S
C1343 C1342 1.446 . S
C1343 C1344 1.339 . S
C1343 H1372 0.949 . S
C1344 C1343 1.339 . S
C1344 C1345 1.439 . S
C1344 H1373 0.950 . S
C1345 N1341 1.383 . S
C1345 C1344 1.439 . S
C1345 C1363 1.392 . S
N1346 Co1330 2.282 . S
N1346 C1349 1.332 . S
N1346 C1351 1.332 . S
C1347 C1348 1.386 . S
C1347 C1350 1.388 . S
C1348 C1347 1.386 . S
C1348 C1349 1.382 . S
C1348 H1374 0.950 . S
C1349 N1346 1.332 . S
C1349 C1348 1.382 . S
C1349 H1360 0.952 . S
C1350 C1347 1.388 . S
C1350 C1351 1.382 . S
C1350 H1375 0.950 . S
C1351 N1346 1.332 . S
C1351 C1350 1.382 . S
C1351 H1361 0.948 . S
N1352 Co1330 2.282 . S
N1352 C1356 1.332 . S
N1352 C1357 1.332 . S
C1353 C1354 1.388 . S
C1353 C1357 1.382 . S
C1353 H1376 0.950 . S
C1354 C1353 1.388 . S
C1354 C1355 1.386 . S
C1355 C1354 1.386 . S
C1355 C1356 1.382 . S
C1355 H1377 0.950 . S
C1356 N1352 1.332 . S
C1356 C1355 1.382 . S
C1356 H1358 0.952 . S
C1357 N1352 1.332 . S
C1357 C1353 1.382 . S
C1357 H1359 0.948 . S
H1358 C1356 0.952 . S
H1359 C1357 0.948 . S
H1360 C1349 0.952 . S
H1361 C1351 0.948 . S
C1362 C1328 1.395 . S
C1362 C1332 1.391 . S
C1363 C1325 1.389 . S
C1363 C1345 1.392 . S
C1364 C1335 1.392 . S
C1364 C1337 1.389 . S
C1365 C1340 1.395 . S
C1365 C1342 1.391 . S
H1366 C1326 0.951 . S
H1367 C1327 0.950 . S
H1368 C1333 0.949 . S
H1369 C1334 0.950 . S
H1370 C1338 0.951 . S
H1371 C1339 0.950 . S
H1372 C1343 0.949 . S
H1373 C1344 0.950 . S
H1374 C1348 0.950 . S
H1375 C1350 0.950 . S
H1376 C1353 0.950 . S
H1377 C1355 0.950 . S
C1378 C1379 1.443 . S
C1378 N1382 1.376 . S
C1378 C1416 1.389 . S
C1379 C1378 1.443 . S
C1379 C1380 1.340 . S
C1379 H1419 0.951 . S
C1380 C1379 1.340 . S
C1380 C1381 1.439 . S
C1380 H1420 0.950 . S
C1381 C1380 1.439 . S
C1381 N1382 1.374 . S
C1381 C1415 1.395 1_556 S
N1382 C1378 1.376 . S
N1382 C1381 1.374 . S
N1382 Co1383 2.008 . S
Co1383 N1382 2.008 . S
Co1383 N1384 1.995 1_556 S
Co1383 N1389 2.008 1_556 S
Co1383 N1394 1.995 . S
Co1383 N1399 2.282 . S
Co1383 N1405 2.282 . S
N1384 Co1383 1.995 1_554 S
N1384 C1385 1.376 . S
N1384 C1388 1.383 . S
C1385 N1384 1.376 . S
C1385 C1386 1.446 . S
C1385 C1415 1.391 . S
C1386 C1385 1.446 . S
C1386 C1387 1.339 . S
C1386 H1421 0.949 . S
C1387 C1386 1.339 . S
C1387 C1388 1.439 . S
C1387 H1422 0.950 . S
C1388 N1384 1.383 . S
C1388 C1387 1.439 . S
C1388 C1417 1.392 . S
N1389 Co1383 2.008 1_554 S
N1389 C1390 1.376 . S
N1389 C1393 1.374 . S
C1390 N1389 1.376 . S
C1390 C1391 1.443 . S
C1390 C1417 1.389 . S
C1391 C1390 1.443 . S
C1391 C1392 1.340 . S
C1391 H1423 0.951 . S
C1392 C1391 1.340 . S
C1392 C1393 1.439 . S
C1392 H1424 0.950 . S
C1393 N1389 1.374 . S
C1393 C1392 1.439 . S
C1393 C1418 1.395 1_554 S
N1394 Co1383 1.995 . S
N1394 C1395 1.376 . S
N1394 C1398 1.383 . S
C1395 N1394 1.376 . S
C1395 C1396 1.446 . S
C1395 C1418 1.391 . S
C1396 C1395 1.446 . S
C1396 C1397 1.339 . S
C1396 H1425 0.949 . S
C1397 C1396 1.339 . S
C1397 C1398 1.439 . S
C1397 H1426 0.950 . S
C1398 N1394 1.383 . S
C1398 C1397 1.439 . S
C1398 C1416 1.392 . S
N1399 Co1383 2.282 . S
N1399 C1402 1.332 . S
N1399 C1404 1.323 1_556 S
C1400 C1401 1.386 . S
C1400 C1403 1.388 1_556 S
C1401 C1400 1.386 . S
C1401 C1402 1.382 . S
C1401 H1427 0.950 . S
C1402 N1399 1.332 . S
C1402 C1401 1.382 . S
C1402 H1413 0.952 . S
C1403 C1400 1.388 1_554 S
C1403 C1404 1.385 . S
C1403 H1428 0.950 . S
C1404 N1399 1.323 1_554 S
C1404 C1403 1.385 . S
C1404 H1414 0.955 . S
N1405 Co1383 2.282 . S
N1405 C1409 1.332 1_556 S
N1405 C1410 1.332 . S
C1406 C1407 1.388 . S
C1406 C1410 1.382 . S
C1406 H1429 0.950 . S
C1407 C1406 1.388 . S
C1407 C1408 1.386 1_556 S
C1408 C1407 1.386 1_554 S
C1408 C1409 1.382 . S
C1408 H1430 0.950 . S
C1409 N1405 1.332 1_554 S
C1409 C1408 1.382 . S
C1409 H1411 0.952 . S
C1410 N1405 1.332 . S
C1410 C1406 1.382 . S
C1410 H1412 0.948 . S
H1411 C1409 0.952 . S
H1412 C1410 0.948 . S
H1413 C1402 0.952 . S
H1414 C1404 0.955 . S
C1415 C1381 1.395 1_554 S
C1415 C1385 1.391 . S
C1416 C1378 1.389 . S
C1416 C1398 1.392 . S
C1417 C1388 1.392 . S
C1417 C1390 1.389 . S
C1418 C1393 1.395 1_556 S
C1418 C1395 1.391 . S
H1419 C1379 0.951 . S
H1420 C1380 0.950 . S
H1421 C1386 0.949 . S
H1422 C1387 0.950 . S
H1423 C1391 0.951 . S
H1424 C1392 0.950 . S
H1425 C1396 0.949 . S
H1426 C1397 0.950 . S
H1427 C1401 0.950 . S
H1428 C1403 0.950 . S
H1429 C1406 0.950 . S
H1430 C1408 0.950 . S
C1431 C1432 1.443 . S
C1431 N1435 1.376 . S
C1431 C1469 1.389 . S
C1432 C1431 1.443 . S
C1432 C1433 1.340 . S
C1432 H1472 0.951 . S
C1433 C1432 1.340 . S
C1433 C1434 1.439 . S
C1433 H1473 0.950 . S
C1434 C1433 1.439 . S
C1434 N1435 1.374 . S
C1434 C1468 1.395 1_556 S
N1435 C1431 1.376 . S
N1435 C1434 1.374 . S
N1435 Co1436 2.008 . S
Co1436 N1435 2.008 . S
Co1436 N1437 1.995 1_556 S
Co1436 N1442 2.008 1_556 S
Co1436 N1447 1.995 . S
Co1436 N1452 2.282 . S
Co1436 N1458 2.282 . S
N1437 Co1436 1.995 1_554 S
N1437 C1438 1.376 . S
N1437 C1441 1.383 . S
C1438 N1437 1.376 . S
C1438 C1439 1.446 . S
C1438 C1468 1.391 . S
C1439 C1438 1.446 . S
C1439 C1440 1.339 . S
C1439 H1474 0.949 . S
C1440 C1439 1.339 . S
C1440 C1441 1.439 . S
C1440 H1475 0.950 . S
C1441 N1437 1.383 . S
C1441 C1440 1.439 . S
C1441 C1470 1.392 . S
N1442 Co1436 2.008 1_554 S
N1442 C1443 1.376 . S
N1442 C1446 1.374 . S
C1443 N1442 1.376 . S
C1443 C1444 1.443 . S
C1443 C1470 1.389 . S
C1444 C1443 1.443 . S
C1444 C1445 1.340 . S
C1444 H1476 0.951 . S
C1445 C1444 1.340 . S
C1445 C1446 1.439 . S
C1445 H1477 0.950 . S
C1446 N1442 1.374 . S
C1446 C1445 1.439 . S
C1446 C1471 1.395 1_554 S
N1447 Co1436 1.995 . S
N1447 C1448 1.376 . S
N1447 C1451 1.383 . S
C1448 N1447 1.376 . S
C1448 C1449 1.446 . S
C1448 C1471 1.391 . S
C1449 C1448 1.446 . S
C1449 C1450 1.339 . S
C1449 H1478 0.949 . S
C1450 C1449 1.339 . S
C1450 C1451 1.439 . S
C1450 H1479 0.950 . S
C1451 N1447 1.383 . S
C1451 C1450 1.439 . S
C1451 C1469 1.392 . S
N1452 Co1436 2.282 . S
N1452 C1455 1.332 . S
N1452 C1457 1.323 1_556 S
C1453 C1454 1.386 . S
C1453 C1456 1.388 1_556 S
C1454 C1453 1.386 . S
C1454 C1455 1.382 . S
C1454 H1480 0.950 . S
C1455 N1452 1.332 . S
C1455 C1454 1.382 . S
C1455 H1466 0.952 . S
C1456 C1453 1.388 1_554 S
C1456 C1457 1.385 . S
C1456 H1481 0.950 . S
C1457 N1452 1.323 1_554 S
C1457 C1456 1.385 . S
C1457 H1467 0.955 . S
N1458 Co1436 2.282 . S
N1458 C1462 1.332 1_556 S
N1458 C1463 1.332 . S
C1459 C1460 1.388 . S
C1459 C1463 1.382 . S
C1459 H1482 0.950 . S
C1460 C1459 1.388 . S
C1460 C1461 1.386 1_556 S
C1461 C1460 1.386 1_554 S
C1461 C1462 1.382 . S
C1461 H1483 0.950 . S
C1462 N1458 1.332 1_554 S
C1462 C1461 1.382 . S
C1462 H1464 0.952 . S
C1463 N1458 1.332 . S
C1463 C1459 1.382 . S
C1463 H1465 0.948 . S
H1464 C1462 0.952 . S
H1465 C1463 0.948 . S
H1466 C1455 0.952 . S
H1467 C1457 0.955 . S
C1468 C1434 1.395 1_554 S
C1468 C1438 1.391 . S
C1469 C1431 1.389 . S
C1469 C1451 1.392 . S
C1470 C1441 1.392 . S
C1470 C1443 1.389 . S
C1471 C1446 1.395 1_556 S
C1471 C1448 1.391 . S
H1472 C1432 0.951 . S
H1473 C1433 0.950 . S
H1474 C1439 0.949 . S
H1475 C1440 0.950 . S
H1476 C1444 0.951 . S
H1477 C1445 0.950 . S
H1478 C1449 0.949 . S
H1479 C1450 0.950 . S
H1480 C1454 0.950 . S
H1481 C1456 0.950 . S
H1482 C1459 0.950 . S
H1483 C1461 0.950 . S
C1484 C1485 1.443 . S
C1484 N1488 1.376 . S
C1484 C1522 1.389 . S
C1485 C1484 1.443 . S
C1485 C1486 1.340 . S
C1485 H1525 0.951 . S
C1486 C1485 1.340 . S
C1486 C1487 1.439 . S
C1486 H1526 0.950 . S
C1487 C1486 1.439 . S
C1487 N1488 1.374 . S
C1487 C1521 1.395 . S
N1488 C1484 1.376 . S
N1488 C1487 1.374 . S
N1488 Co1489 2.008 . S
Co1489 N1488 2.008 . S
Co1489 N1490 1.995 . S
Co1489 N1495 2.008 . S
Co1489 N1500 1.995 . S
Co1489 N1505 2.282 . S
Co1489 N1511 2.282 . S
N1490 Co1489 1.995 . S
N1490 C1491 1.376 . S
N1490 C1494 1.383 . S
C1491 N1490 1.376 . S
C1491 C1492 1.446 . S
C1491 C1521 1.391 . S
C1492 C1491 1.446 . S
C1492 C1493 1.339 . S
C1492 H1527 0.949 . S
C1493 C1492 1.339 . S
C1493 C1494 1.439 . S
C1493 H1528 0.950 . S
C1494 N1490 1.383 . S
C1494 C1493 1.439 . S
C1494 C1523 1.392 . S
N1495 Co1489 2.008 . S
N1495 C1496 1.376 . S
N1495 C1499 1.374 . S
C1496 N1495 1.376 . S
C1496 C1497 1.443 . S
C1496 C1523 1.389 . S
C1497 C1496 1.443 . S
C1497 C1498 1.340 . S
C1497 H1529 0.951 . S
C1498 C1497 1.340 . S
C1498 C1499 1.439 . S
C1498 H1530 0.950 . S
C1499 N1495 1.374 . S
C1499 C1498 1.439 . S
C1499 C1524 1.395 . S
N1500 Co1489 1.995 . S
N1500 C1501 1.376 . S
N1500 C1504 1.383 . S
C1501 N1500 1.376 . S
C1501 C1502 1.446 . S
C1501 C1524 1.391 . S
C1502 C1501 1.446 . S
C1502 C1503 1.339 . S
C1502 H1531 0.949 . S
C1503 C1502 1.339 . S
C1503 C1504 1.439 . S
C1503 H1532 0.950 . S
C1504 N1500 1.383 . S
C1504 C1503 1.439 . S
C1504 C1522 1.392 . S
N1505 Co1489 2.282 . S
N1505 C1508 1.332 . S
N1505 C1510 1.332 . S
C1506 C1507 1.386 . S
C1506 C1509 1.388 . S
C1507 C1506 1.386 . S
C1507 C1508 1.382 . S
C1507 H1533 0.950 . S
C1508 N1505 1.332 . S
C1508 C1507 1.382 . S
C1508 H1519 0.952 . S
C1509 C1506 1.388 . S
C1509 C1510 1.382 . S
C1509 H1534 0.950 . S
C1510 N1505 1.332 . S
C1510 C1509 1.382 . S
C1510 H1520 0.948 . S
N1511 Co1489 2.282 . S
N1511 C1515 1.332 . S
N1511 C1516 1.332 . S
C1512 C1513 1.388 . S
C1512 C1516 1.382 . S
C1512 H1535 0.950 . S
C1513 C1512 1.388 . S
C1513 C1514 1.386 . S
C1514 C1513 1.386 . S
C1514 C1515 1.382 . S
C1514 H1536 0.950 . S
C1515 N1511 1.332 . S
C1515 C1514 1.382 . S
C1515 H1517 0.952 . S
C1516 N1511 1.332 . S
C1516 C1512 1.382 . S
C1516 H1518 0.948 . S
H1517 C1515 0.952 . S
H1518 C1516 0.948 . S
H1519 C1508 0.952 . S
H1520 C1510 0.948 . S
C1521 C1487 1.395 . S
C1521 C1491 1.391 . S
C1522 C1484 1.389 . S
C1522 C1504 1.392 . S
C1523 C1494 1.392 . S
C1523 C1496 1.389 . S
C1524 C1499 1.395 . S
C1524 C1501 1.391 . S
H1525 C1485 0.951 . S
H1526 C1486 0.950 . S
H1527 C1492 0.949 . S
H1528 C1493 0.950 . S
H1529 C1497 0.951 . S
H1530 C1498 0.950 . S
H1531 C1502 0.949 . S
H1532 C1503 0.950 . S
H1533 C1507 0.950 . S
H1534 C1509 0.950 . S
H1535 C1512 0.950 . S
H1536 C1514 0.950 . S
C1537 C1538 1.443 . S
C1537 N1541 1.376 . S
C1537 C1575 1.389 . S
C1538 C1537 1.443 . S
C1538 C1539 1.340 . S
C1538 H1578 0.951 . S
C1539 C1538 1.340 . S
C1539 C1540 1.439 . S
C1539 H1579 0.950 . S
C1540 C1539 1.439 . S
C1540 N1541 1.374 . S
C1540 C1574 1.395 . S
N1541 C1537 1.376 . S
N1541 C1540 1.374 . S
N1541 Co1542 2.008 . S
Co1542 N1541 2.008 . S
Co1542 N1543 1.995 . S
Co1542 N1548 2.008 . S
Co1542 N1553 1.995 . S
Co1542 N1558 2.282 . S
Co1542 N1564 2.282 . S
N1543 Co1542 1.995 . S
N1543 C1544 1.376 . S
N1543 C1547 1.383 . S
C1544 N1543 1.376 . S
C1544 C1545 1.446 . S
C1544 C1574 1.391 . S
C1545 C1544 1.446 . S
C1545 C1546 1.339 . S
C1545 H1580 0.949 . S
C1546 C1545 1.339 . S
C1546 C1547 1.439 . S
C1546 H1581 0.950 . S
C1547 N1543 1.383 . S
C1547 C1546 1.439 . S
C1547 C1576 1.392 . S
N1548 Co1542 2.008 . S
N1548 C1549 1.376 . S
N1548 C1552 1.374 . S
C1549 N1548 1.376 . S
C1549 C1550 1.443 . S
C1549 C1576 1.389 . S
C1550 C1549 1.443 . S
C1550 C1551 1.340 . S
C1550 H1582 0.951 . S
C1551 C1550 1.340 . S
C1551 C1552 1.439 . S
C1551 H1583 0.950 . S
C1552 N1548 1.374 . S
C1552 C1551 1.439 . S
C1552 C1577 1.395 . S
N1553 Co1542 1.995 . S
N1553 C1554 1.376 . S
N1553 C1557 1.383 . S
C1554 N1553 1.376 . S
C1554 C1555 1.446 . S
C1554 C1577 1.391 . S
C1555 C1554 1.446 . S
C1555 C1556 1.339 . S
C1555 H1584 0.949 . S
C1556 C1555 1.339 . S
C1556 C1557 1.439 . S
C1556 H1585 0.950 . S
C1557 N1553 1.383 . S
C1557 C1556 1.439 . S
C1557 C1575 1.392 . S
N1558 Co1542 2.282 . S
N1558 C1561 1.332 . S
N1558 C1563 1.332 . S
C1559 C1560 1.386 . S
C1559 C1562 1.388 . S
C1560 C1559 1.386 . S
C1560 C1561 1.382 . S
C1560 H1586 0.950 . S
C1561 N1558 1.332 . S
C1561 C1560 1.382 . S
C1561 H1572 0.952 . S
C1562 C1559 1.388 . S
C1562 C1563 1.382 . S
C1562 H1587 0.950 . S
C1563 N1558 1.332 . S
C1563 C1562 1.382 . S
C1563 H1573 0.948 . S
N1564 Co1542 2.282 . S
N1564 C1568 1.332 . S
N1564 C1569 1.332 . S
C1565 C1566 1.388 . S
C1565 C1569 1.382 . S
C1565 H1588 0.950 . S
C1566 C1565 1.388 . S
C1566 C1567 1.386 . S
C1567 C1566 1.386 . S
C1567 C1568 1.382 . S
C1567 H1589 0.950 . S
C1568 N1564 1.332 . S
C1568 C1567 1.382 . S
C1568 H1570 0.952 . S
C1569 N1564 1.332 . S
C1569 C1565 1.382 . S
C1569 H1571 0.948 . S
H1570 C1568 0.952 . S
H1571 C1569 0.948 . S
H1572 C1561 0.952 . S
H1573 C1563 0.948 . S
C1574 C1540 1.395 . S
C1574 C1544 1.391 . S
C1575 C1537 1.389 . S
C1575 C1557 1.392 . S
C1576 C1547 1.392 . S
C1576 C1549 1.389 . S
C1577 C1552 1.395 . S
C1577 C1554 1.391 . S
H1578 C1538 0.951 . S
H1579 C1539 0.950 . S
H1580 C1545 0.949 . S
H1581 C1546 0.950 . S
H1582 C1550 0.951 . S
H1583 C1551 0.950 . S
H1584 C1555 0.949 . S
H1585 C1556 0.950 . S
H1586 C1560 0.950 . S
H1587 C1562 0.950 . S
H1588 C1565 0.950 . S
H1589 C1567 0.950 . S
C1590 C1591 1.443 . S
C1590 N1594 1.376 . S
C1590 C1628 1.389 . S
C1591 C1590 1.443 . S
C1591 C1592 1.340 . S
C1591 H1631 0.951 . S
C1592 C1591 1.340 . S
C1592 C1593 1.439 . S
C1592 H1632 0.950 . S
C1593 C1592 1.439 . S
C1593 N1594 1.374 . S
C1593 C1627 1.395 . S
N1594 C1590 1.376 . S
N1594 C1593 1.374 . S
N1594 Co1595 2.008 . S
Co1595 N1594 2.008 . S
Co1595 N1596 1.995 1_554 S
Co1595 N1601 2.008 1_554 S
Co1595 N1606 1.995 . S
Co1595 N1611 2.282 . S
Co1595 N1617 2.282 . S
N1596 Co1595 1.995 1_556 S
N1596 C1597 1.376 . S
N1596 C1600 1.383 . S
C1597 N1596 1.376 . S
C1597 C1598 1.446 . S
C1597 C1627 1.391 1_556 S
C1598 C1597 1.446 . S
C1598 C1599 1.339 . S
C1598 H1633 0.949 . S
C1599 C1598 1.339 . S
C1599 C1600 1.439 . S
C1599 H1634 0.950 . S
C1600 N1596 1.383 . S
C1600 C1599 1.439 . S
C1600 C1629 1.392 . S
N1601 Co1595 2.008 1_556 S
N1601 C1602 1.376 . S
N1601 C1605 1.374 . S
C1602 N1601 1.376 . S
C1602 C1603 1.443 . S
C1602 C1629 1.389 . S
C1603 C1602 1.443 . S
C1603 C1604 1.340 . S
C1603 H1635 0.951 . S
C1604 C1603 1.340 . S
C1604 C1605 1.439 . S
C1604 H1636 0.950 . S
C1605 N1601 1.374 . S
C1605 C1604 1.439 . S
C1605 C1630 1.395 . S
N1606 Co1595 1.995 . S
N1606 C1607 1.376 . S
N1606 C1610 1.383 . S
C1607 N1606 1.376 . S
C1607 C1608 1.446 . S
C1607 C1630 1.391 1_554 S
C1608 C1607 1.446 . S
C1608 C1609 1.339 . S
C1608 H1637 0.949 . S
C1609 C1608 1.339 . S
C1609 C1610 1.439 . S
C1609 H1638 0.950 . S
C1610 N1606 1.383 . S
C1610 C1609 1.439 . S
C1610 C1628 1.392 . S
N1611 Co1595 2.282 . S
N1611 C1614 1.332 . S
N1611 C1616 1.332 . S
C1612 C1613 1.386 . S
C1612 C1615 1.388 . S
C1613 C1612 1.386 . S
C1613 C1614 1.382 . S
C1613 H1639 0.950 . S
C1614 N1611 1.332 . S
C1614 C1613 1.382 . S
C1614 H1625 0.952 . S
C1615 C1612 1.388 . S
C1615 C1616 1.382 . S
C1615 H1640 0.958 . S
C1616 N1611 1.332 . S
C1616 C1615 1.382 . S
C1616 H1626 0.948 . S
N1617 Co1595 2.282 . S
N1617 C1621 1.332 . S
N1617 C1622 1.332 . S
C1618 C1619 1.388 . S
C1618 C1622 1.382 . S
C1618 H1641 0.950 . S
C1619 C1618 1.388 . S
C1619 C1620 1.386 . S
C1620 C1619 1.386 . S
C1620 C1621 1.382 . S
C1620 H1642 0.950 . S
C1621 N1617 1.332 . S
C1621 C1620 1.382 . S
C1621 H1623 0.946 1_554 S
C1622 N1617 1.332 . S
C1622 C1618 1.382 . S
C1622 H1624 0.948 . S
H1623 C1621 0.946 1_556 S
H1624 C1622 0.948 . S
H1625 C1614 0.952 . S
H1626 C1616 0.948 . S
C1627 C1593 1.395 . S
C1627 C1597 1.391 1_554 S
C1628 C1590 1.389 . S
C1628 C1610 1.392 . S
C1629 C1600 1.392 . S
C1629 C1602 1.389 . S
C1630 C1605 1.395 . S
C1630 C1607 1.391 1_556 S
H1631 C1591 0.951 . S
H1632 C1592 0.950 . S
H1633 C1598 0.949 . S
H1634 C1599 0.950 . S
H1635 C1603 0.951 . S
H1636 C1604 0.950 . S
H1637 C1608 0.949 . S
H1638 C1609 0.950 . S
H1639 C1613 0.950 . S
H1640 C1615 0.958 . S
H1641 C1618 0.950 . S
H1642 C1620 0.950 . S
C1643 C1644 1.443 . S
C1643 N1647 1.376 . S
C1643 C1681 1.389 . S
C1644 C1643 1.443 . S
C1644 C1645 1.340 . S
C1644 H1684 0.951 . S
C1645 C1644 1.340 . S
C1645 C1646 1.439 . S
C1645 H1685 0.950 . S
C1646 C1645 1.439 . S
C1646 N1647 1.374 . S
C1646 C1680 1.395 . S
N1647 C1643 1.376 . S
N1647 C1646 1.374 . S
N1647 Co1648 2.008 . S
Co1648 N1647 2.008 . S
Co1648 N1649 1.995 1_554 S
Co1648 N1654 2.008 1_554 S
Co1648 N1659 1.995 . S
Co1648 N1664 2.282 . S
Co1648 N1670 2.282 . S
N1649 Co1648 1.995 1_556 S
N1649 C1650 1.376 . S
N1649 C1653 1.383 . S
C1650 N1649 1.376 . S
C1650 C1651 1.446 . S
C1650 C1680 1.391 1_556 S
C1651 C1650 1.446 . S
C1651 C1652 1.339 . S
C1651 H1686 0.949 . S
C1652 C1651 1.339 . S
C1652 C1653 1.439 . S
C1652 H1687 0.950 . S
C1653 N1649 1.383 . S
C1653 C1652 1.439 . S
C1653 C1682 1.392 . S
N1654 Co1648 2.008 1_556 S
N1654 C1655 1.376 . S
N1654 C1658 1.374 . S
C1655 N1654 1.376 . S
C1655 C1656 1.443 . S
C1655 C1682 1.389 . S
C1656 C1655 1.443 . S
C1656 C1657 1.340 . S
C1656 H1688 0.951 . S
C1657 C1656 1.340 . S
C1657 C1658 1.439 . S
C1657 H1689 0.950 . S
C1658 N1654 1.374 . S
C1658 C1657 1.439 . S
C1658 C1683 1.395 . S
N1659 Co1648 1.995 . S
N1659 C1660 1.376 . S
N1659 C1663 1.383 . S
C1660 N1659 1.376 . S
C1660 C1661 1.446 . S
C1660 C1683 1.391 1_554 S
C1661 C1660 1.446 . S
C1661 C1662 1.339 . S
C1661 H1690 0.949 . S
C1662 C1661 1.339 . S
C1662 C1663 1.439 . S
C1662 H1691 0.950 . S
C1663 N1659 1.383 . S
C1663 C1662 1.439 . S
C1663 C1681 1.392 . S
N1664 Co1648 2.282 . S
N1664 C1667 1.332 . S
N1664 C1669 1.332 . S
C1665 C1666 1.386 . S
C1665 C1668 1.388 . S
C1666 C1665 1.386 . S
C1666 C1667 1.382 . S
C1666 H1692 0.950 . S
C1667 N1664 1.332 . S
C1667 C1666 1.382 . S
C1667 H1678 0.952 . S
C1668 C1665 1.388 . S
C1668 C1669 1.382 . S
C1668 H1693 0.958 . S
C1669 N1664 1.332 . S
C1669 C1668 1.382 . S
C1669 H1679 0.948 . S
N1670 Co1648 2.282 . S
N1670 C1674 1.332 . S
N1670 C1675 1.332 . S
C1671 C1672 1.388 . S
C1671 C1675 1.382 . S
C1671 H1694 0.950 . S
C1672 C1671 1.388 . S
C1672 C1673 1.386 . S
C1673 C1672 1.386 . S
C1673 C1674 1.382 . S
C1673 H1695 0.950 . S
C1674 N1670 1.332 . S
C1674 C1673 1.382 . S
C1674 H1676 0.946 1_554 S
C1675 N1670 1.332 . S
C1675 C1671 1.382 . S
C1675 H1677 0.948 . S
H1676 C1674 0.946 1_556 S
H1677 C1675 0.948 . S
H1678 C1667 0.952 . S
H1679 C1669 0.948 . S
C1680 C1646 1.395 . S
C1680 C1650 1.391 1_554 S
C1681 C1643 1.389 . S
C1681 C1663 1.392 . S
C1682 C1653 1.392 . S
C1682 C1655 1.389 . S
C1683 C1658 1.395 . S
C1683 C1660 1.391 1_556 S
H1684 C1644 0.951 . S
H1685 C1645 0.950 . S
H1686 C1651 0.949 . S
H1687 C1652 0.950 . S
H1688 C1656 0.951 . S
H1689 C1657 0.950 . S
H1690 C1661 0.949 . S
H1691 C1662 0.950 . S
H1692 C1666 0.950 . S
H1693 C1668 0.958 . S
H1694 C1671 0.950 . S
H1695 C1673 0.950 . S
H1696 C1702 0.930 . S
H1697 C1706 0.930 . S
H1698 C1711 0.929 . S
H1699 C1709 0.929 . S
H1700 C1704 0.929 . S
H1701 C1710 0.929 . S
C1702 H1696 0.930 . S
C1702 C1703 1.367 . S
C1702 C1710 1.378 . S
C1703 C1702 1.367 . S
C1703 C1711 1.433 . S
C1704 H1700 0.929 . S
C1704 C1706 1.378 . S
C1704 C1708 1.350 . S
C1705 C1708 1.463 . S
C1705 C1710 1.350 . S
C1705 N1713 1.427 . S
C1706 H1697 0.930 . S
C1706 C1704 1.378 . S
C1706 C1707 1.367 . S
C1707 C1706 1.367 . S
C1707 C1709 1.433 . S
C1708 C1704 1.350 . S
C1708 C1705 1.463 . S
C1708 N1712 1.427 . S
C1709 H1699 0.929 . S
C1709 C1707 1.433 . S
C1709 N1712 1.384 . S
C1710 H1701 0.929 . S
C1710 C1702 1.378 . S
C1710 C1705 1.350 . S
C1711 H1698 0.929 . S
C1711 C1703 1.433 . S
C1711 N1713 1.384 . S
N1712 C1708 1.427 . S
N1712 C1709 1.384 . S
N1713 C1705 1.427 . S
N1713 C1711 1.384 . S
H1714 C1720 0.930 . S
H1715 C1724 0.930 . S
H1716 C1729 0.929 . S
H1717 C1727 0.929 . S
H1718 C1722 0.929 . S
H1719 C1728 0.929 . S
C1720 H1714 0.930 . S
C1720 C1721 1.367 . S
C1720 C1728 1.378 . S
C1721 C1720 1.367 . S
C1721 C1729 1.433 . S
C1722 H1718 0.929 . S
C1722 C1724 1.378 . S
C1722 C1726 1.350 . S
C1723 C1726 1.463 . S
C1723 C1728 1.350 . S
C1723 N1731 1.427 . S
C1724 H1715 0.930 . S
C1724 C1722 1.378 . S
C1724 C1725 1.367 . S
C1725 C1724 1.367 . S
C1725 C1727 1.433 . S
C1726 C1722 1.350 . S
C1726 C1723 1.463 . S
C1726 N1730 1.427 . S
C1727 H1717 0.929 . S
C1727 C1725 1.433 . S
C1727 N1730 1.384 . S
C1728 H1719 0.929 . S
C1728 C1720 1.378 . S
C1728 C1723 1.350 . S
C1729 H1716 0.929 . S
C1729 C1721 1.433 . S
C1729 N1731 1.384 . S
N1730 C1726 1.427 . S
N1730 C1727 1.384 . S
N1731 C1723 1.427 . S
N1731 C1729 1.384 . S
H1732 C1738 0.930 . S
H1733 C1742 0.930 . S
H1734 C1747 0.929 . S
H1735 C1745 0.929 . S
H1736 C1740 0.929 . S
H1737 C1746 0.929 . S
C1738 H1732 0.930 . S
C1738 C1739 1.367 . S
C1738 C1746 1.378 . S
C1739 C1738 1.367 . S
C1739 C1747 1.433 . S
C1740 H1736 0.929 . S
C1740 C1742 1.378 . S
C1740 C1744 1.350 . S
C1741 C1744 1.463 . S
C1741 C1746 1.350 . S
C1741 N1749 1.427 . S
C1742 H1733 0.930 . S
C1742 C1740 1.378 . S
C1742 C1743 1.367 . S
C1743 C1742 1.367 . S
C1743 C1745 1.433 . S
C1744 C1740 1.350 . S
C1744 C1741 1.463 . S
C1744 N1748 1.427 . S
C1745 H1735 0.929 . S
C1745 C1743 1.433 . S
C1745 N1748 1.384 . S
C1746 H1737 0.929 . S
C1746 C1738 1.378 . S
C1746 C1741 1.350 . S
C1747 H1734 0.929 . S
C1747 C1739 1.433 . S
C1747 N1749 1.384 . S
N1748 C1744 1.427 . S
N1748 C1745 1.384 . S
N1749 C1741 1.427 . S
N1749 C1747 1.384 . S
H1750 C1756 0.930 . S
H1751 C1760 0.930 . S
H1752 C1765 0.929 . S
H1753 C1763 0.929 . S
H1754 C1758 0.929 . S
H1755 C1764 0.929 . S
C1756 H1750 0.930 . S
C1756 C1757 1.367 . S
C1756 C1764 1.378 . S
C1757 C1756 1.367 . S
C1757 C1765 1.433 . S
C1758 H1754 0.929 . S
C1758 C1760 1.378 . S
C1758 C1762 1.350 . S
C1759 C1762 1.463 . S
C1759 C1764 1.350 . S
C1759 N1767 1.427 . S
C1760 H1751 0.930 . S
C1760 C1758 1.378 . S
C1760 C1761 1.367 . S
C1761 C1760 1.367 . S
C1761 C1763 1.433 . S
C1762 C1758 1.350 . S
C1762 C1759 1.463 . S
C1762 N1766 1.427 . S
C1763 H1753 0.929 . S
C1763 C1761 1.433 . S
C1763 N1766 1.384 . S
C1764 H1755 0.929 . S
C1764 C1756 1.378 . S
C1764 C1759 1.350 . S
C1765 H1752 0.929 . S
C1765 C1757 1.433 . S
C1765 N1767 1.384 . S
N1766 C1762 1.427 . S
N1766 C1763 1.384 . S
N1767 C1759 1.427 . S
N1767 C1765 1.384 . S
H1768 C1774 0.930 . S
H1769 C1778 0.930 . S
H1770 C1783 0.929 . S
H1771 C1781 0.929 . S
H1772 C1776 0.929 . S
H1773 C1782 0.929 . S
C1774 H1768 0.930 . S
C1774 C1775 1.367 . S
C1774 C1782 1.378 . S
C1775 C1774 1.367 . S
C1775 C1783 1.433 . S
C1776 H1772 0.929 . S
C1776 C1778 1.378 . S
C1776 C1780 1.350 . S
C1777 C1780 1.463 . S
C1777 C1782 1.350 . S
C1777 N1785 1.427 . S
C1778 H1769 0.930 . S
C1778 C1776 1.378 . S
C1778 C1779 1.367 . S
C1779 C1778 1.367 . S
C1779 C1781 1.433 . S
C1780 C1776 1.350 . S
C1780 C1777 1.463 . S
C1780 N1784 1.427 . S
C1781 H1771 0.929 . S
C1781 C1779 1.433 . S
C1781 N1784 1.384 . S
C1782 H1773 0.929 . S
C1782 C1774 1.378 . S
C1782 C1777 1.350 . S
C1783 H1770 0.929 . S
C1783 C1775 1.433 . S
C1783 N1785 1.384 . S
N1784 C1780 1.427 . S
N1784 C1781 1.384 . S
N1785 C1777 1.427 . S
N1785 C1783 1.384 . S
H1786 C1792 0.930 . S
H1787 C1796 0.930 . S
H1788 C1801 0.929 . S
H1789 C1799 0.929 . S
H1790 C1794 0.929 . S
H1791 C1800 0.929 . S
C1792 H1786 0.930 . S
C1792 C1793 1.367 . S
C1792 C1800 1.378 . S
C1793 C1792 1.367 . S
C1793 C1801 1.433 . S
C1794 H1790 0.929 . S
C1794 C1796 1.378 . S
C1794 C1798 1.350 . S
C1795 C1798 1.463 . S
C1795 C1800 1.350 . S
C1795 N1803 1.427 . S
C1796 H1787 0.930 . S
C1796 C1794 1.378 . S
C1796 C1797 1.367 . S
C1797 C1796 1.367 . S
C1797 C1799 1.433 . S
C1798 C1794 1.350 . S
C1798 C1795 1.463 . S
C1798 N1802 1.427 . S
C1799 H1789 0.929 . S
C1799 C1797 1.433 . S
C1799 N1802 1.384 . S
C1800 H1791 0.929 . S
C1800 C1792 1.378 . S
C1800 C1795 1.350 . S
C1801 H1788 0.929 . S
C1801 C1793 1.433 . S
C1801 N1803 1.384 . S
N1802 C1798 1.427 . S
N1802 C1799 1.384 . S
N1803 C1795 1.427 . S
N1803 C1801 1.384 . S
H1804 C1810 0.930 . S
H1805 C1814 0.930 . S
H1806 C1819 0.929 . S
H1807 C1817 0.929 . S
H1808 C1812 0.929 . S
H1809 C1818 0.929 . S
C1810 H1804 0.930 . S
C1810 C1811 1.367 . S
C1810 C1818 1.378 . S
C1811 C1810 1.367 . S
C1811 C1819 1.433 . S
C1812 H1808 0.929 . S
C1812 C1814 1.378 . S
C1812 C1816 1.350 . S
C1813 C1816 1.463 . S
C1813 C1818 1.350 . S
C1813 N1821 1.427 . S
C1814 H1805 0.930 . S
C1814 C1812 1.378 . S
C1814 C1815 1.367 . S
C1815 C1814 1.367 . S
C1815 C1817 1.433 . S
C1816 C1812 1.350 . S
C1816 C1813 1.463 . S
C1816 N1820 1.427 . S
C1817 H1807 0.929 . S
C1817 C1815 1.433 . S
C1817 N1820 1.384 . S
C1818 H1809 0.929 . S
C1818 C1810 1.378 . S
C1818 C1813 1.350 . S
C1819 H1806 0.929 . S
C1819 C1811 1.433 . S
C1819 N1821 1.384 . S
N1820 C1816 1.427 . S
N1820 C1817 1.384 . S
N1821 C1813 1.427 . S
N1821 C1819 1.384 . S
H1822 C1828 0.930 . S
H1823 C1832 0.930 . S
H1824 C1837 0.929 . S
H1825 C1835 0.929 . S
H1826 C1830 0.929 . S
H1827 C1836 0.929 . S
C1828 H1822 0.930 . S
C1828 C1829 1.367 . S
C1828 C1836 1.378 . S
C1829 C1828 1.367 . S
C1829 C1837 1.433 . S
C1830 H1826 0.929 . S
C1830 C1832 1.378 . S
C1830 C1834 1.350 . S
C1831 C1834 1.463 . S
C1831 C1836 1.350 . S
C1831 N1839 1.427 . S
C1832 H1823 0.930 . S
C1832 C1830 1.378 . S
C1832 C1833 1.367 . S
C1833 C1832 1.367 . S
C1833 C1835 1.433 . S
C1834 C1830 1.350 . S
C1834 C1831 1.463 . S
C1834 N1838 1.427 . S
C1835 H1825 0.929 . S
C1835 C1833 1.433 . S
C1835 N1838 1.384 . S
C1836 H1827 0.929 . S
C1836 C1828 1.378 . S
C1836 C1831 1.350 . S
C1837 H1824 0.929 . S
C1837 C1829 1.433 . S
C1837 N1839 1.384 . S
N1838 C1834 1.427 . S
N1838 C1835 1.384 . S
N1839 C1831 1.427 . S
N1839 C1837 1.384 . S
H1840 C1846 0.930 . S
H1841 C1850 0.930 . S
H1842 C1855 0.929 . S
H1843 C1853 0.929 . S
H1844 C1848 0.929 . S
H1845 C1854 0.929 . S
C1846 H1840 0.930 . S
C1846 C1847 1.367 . S
C1846 C1854 1.378 . S
C1847 C1846 1.367 . S
C1847 C1855 1.433 . S
C1848 H1844 0.929 . S
C1848 C1850 1.378 . S
C1848 C1852 1.350 . S
C1849 C1852 1.463 . S
C1849 C1854 1.350 . S
C1849 N1857 1.427 . S
C1850 H1841 0.930 . S
C1850 C1848 1.378 . S
C1850 C1851 1.367 . S
C1851 C1850 1.367 . S
C1851 C1853 1.433 . S
C1852 C1848 1.350 . S
C1852 C1849 1.463 . S
C1852 N1856 1.427 . S
C1853 H1843 0.929 . S
C1853 C1851 1.433 . S
C1853 N1856 1.384 . S
C1854 H1845 0.929 . S
C1854 C1846 1.378 . S
C1854 C1849 1.350 . S
C1855 H1842 0.929 . S
C1855 C1847 1.433 . S
C1855 N1857 1.384 . S
N1856 C1852 1.427 . S
N1856 C1853 1.384 . S
N1857 C1849 1.427 . S
N1857 C1855 1.384 . S
H1858 C1864 0.930 . S
H1859 C1868 0.930 . S
H1860 C1873 0.929 . S
H1861 C1871 0.929 . S
H1862 C1866 0.929 . S
H1863 C1872 0.929 . S
C1864 H1858 0.930 . S
C1864 C1865 1.367 . S
C1864 C1872 1.378 . S
C1865 C1864 1.367 . S
C1865 C1873 1.433 . S
C1866 H1862 0.929 . S
C1866 C1868 1.378 . S
C1866 C1870 1.350 . S
C1867 C1870 1.463 . S
C1867 C1872 1.350 . S
C1867 N1875 1.427 . S
C1868 H1859 0.930 . S
C1868 C1866 1.378 . S
C1868 C1869 1.367 . S
C1869 C1868 1.367 . S
C1869 C1871 1.433 . S
C1870 C1866 1.350 . S
C1870 C1867 1.463 . S
C1870 N1874 1.427 . S
C1871 H1861 0.929 . S
C1871 C1869 1.433 . S
C1871 N1874 1.384 . S
C1872 H1863 0.929 . S
C1872 C1864 1.378 . S
C1872 C1867 1.350 . S
C1873 H1860 0.929 . S
C1873 C1865 1.433 . S
C1873 N1875 1.384 . S
N1874 C1870 1.427 . S
N1874 C1871 1.384 . S
N1875 C1867 1.427 . S
N1875 C1873 1.384 . S
H1876 C1882 0.930 . S
H1877 C1886 0.930 . S
H1878 C1891 0.929 . S
H1879 C1889 0.929 . S
H1880 C1884 0.929 . S
H1881 C1890 0.929 . S
C1882 H1876 0.930 . S
C1882 C1883 1.367 . S
C1882 C1890 1.378 . S
C1883 C1882 1.367 . S
C1883 C1891 1.433 . S
C1884 H1880 0.929 . S
C1884 C1886 1.378 . S
C1884 C1888 1.350 . S
C1885 C1888 1.463 . S
C1885 C1890 1.350 . S
C1885 N1893 1.427 . S
C1886 H1877 0.930 . S
C1886 C1884 1.378 . S
C1886 C1887 1.367 . S
C1887 C1886 1.367 . S
C1887 C1889 1.433 . S
C1888 C1884 1.350 . S
C1888 C1885 1.463 . S
C1888 N1892 1.427 . S
C1889 H1879 0.929 . S
C1889 C1887 1.433 . S
C1889 N1892 1.384 . S
C1890 H1881 0.929 . S
C1890 C1882 1.378 . S
C1890 C1885 1.350 . S
C1891 H1878 0.929 . S
C1891 C1883 1.433 . S
C1891 N1893 1.384 . S
N1892 C1888 1.427 . S
N1892 C1889 1.384 . S
N1893 C1885 1.427 . S
N1893 C1891 1.384 . S
H1894 C1900 0.930 . S
H1895 C1904 0.930 . S
H1896 C1909 0.929 . S
H1897 C1907 0.929 . S
H1898 C1902 0.929 . S
H1899 C1908 0.929 . S
C1900 H1894 0.930 . S
C1900 C1901 1.367 . S
C1900 C1908 1.378 . S
C1901 C1900 1.367 . S
C1901 C1909 1.433 . S
C1902 H1898 0.929 . S
C1902 C1904 1.378 . S
C1902 C1906 1.350 . S
C1903 C1906 1.463 . S
C1903 C1908 1.350 . S
C1903 N1911 1.427 . S
C1904 H1895 0.930 . S
C1904 C1902 1.378 . S
C1904 C1905 1.367 . S
C1905 C1904 1.367 . S
C1905 C1907 1.433 . S
C1906 C1902 1.350 . S
C1906 C1903 1.463 . S
C1906 N1910 1.427 . S
C1907 H1897 0.929 . S
C1907 C1905 1.433 . S
C1907 N1910 1.384 . S
C1908 H1899 0.929 . S
C1908 C1900 1.378 . S
C1908 C1903 1.350 . S
C1909 H1896 0.929 . S
C1909 C1901 1.433 . S
C1909 N1911 1.384 . S
N1910 C1906 1.427 . S
N1910 C1907 1.384 . S
N1911 C1903 1.427 . S
N1911 C1909 1.384 . S
H1912 C1918 0.930 . S
H1913 C1922 0.930 . S
H1914 C1927 0.929 . S
H1915 C1925 0.929 . S
H1916 C1920 0.929 . S
H1917 C1926 0.929 . S
C1918 H1912 0.930 . S
C1918 C1919 1.367 . S
C1918 C1926 1.378 . S
C1919 C1918 1.367 . S
C1919 C1927 1.433 . S
C1920 H1916 0.929 . S
C1920 C1922 1.378 . S
C1920 C1924 1.350 . S
C1921 C1924 1.463 . S
C1921 C1926 1.350 . S
C1921 N1929 1.427 . S
C1922 H1913 0.930 . S
C1922 C1920 1.378 . S
C1922 C1923 1.367 . S
C1923 C1922 1.367 . S
C1923 C1925 1.433 . S
C1924 C1920 1.350 . S
C1924 C1921 1.463 . S
C1924 N1928 1.427 . S
C1925 H1915 0.929 . S
C1925 C1923 1.433 . S
C1925 N1928 1.384 . S
C1926 H1917 0.929 . S
C1926 C1918 1.378 . S
C1926 C1921 1.350 . S
C1927 H1914 0.929 . S
C1927 C1919 1.433 . S
C1927 N1929 1.384 . S
N1928 C1924 1.427 . S
N1928 C1925 1.384 . S
N1929 C1921 1.427 . S
N1929 C1927 1.384 . S
H1930 C1936 0.930 . S
H1931 C1940 0.930 . S
H1932 C1945 0.929 . S
H1933 C1943 0.929 . S
H1934 C1938 0.929 . S
H1935 C1944 0.929 . S
C1936 H1930 0.930 . S
C1936 C1937 1.367 . S
C1936 C1944 1.378 . S
C1937 C1936 1.367 . S
C1937 C1945 1.433 . S
C1938 H1934 0.929 . S
C1938 C1940 1.378 . S
C1938 C1942 1.350 . S
C1939 C1942 1.463 . S
C1939 C1944 1.350 . S
C1939 N1947 1.427 . S
C1940 H1931 0.930 . S
C1940 C1938 1.378 . S
C1940 C1941 1.367 . S
C1941 C1940 1.367 . S
C1941 C1943 1.433 . S
C1942 C1938 1.350 . S
C1942 C1939 1.463 . S
C1942 N1946 1.427 . S
C1943 H1933 0.929 . S
C1943 C1941 1.433 . S
C1943 N1946 1.384 . S
C1944 H1935 0.929 . S
C1944 C1936 1.378 . S
C1944 C1939 1.350 . S
C1945 H1932 0.929 . S
C1945 C1937 1.433 . S
C1945 N1947 1.384 . S
N1946 C1942 1.427 . S
N1946 C1943 1.384 . S
N1947 C1939 1.427 . S
N1947 C1945 1.384 . S
H1948 C1954 0.930 . S
H1949 C1958 0.930 . S
H1950 C1963 0.929 . S
H1951 C1961 0.929 . S
H1952 C1956 0.929 . S
H1953 C1962 0.929 . S
C1954 H1948 0.930 . S
C1954 C1955 1.367 . S
C1954 C1962 1.378 . S
C1955 C1954 1.367 . S
C1955 C1963 1.433 . S
C1956 H1952 0.929 . S
C1956 C1958 1.378 . S
C1956 C1960 1.350 . S
C1957 C1960 1.463 . S
C1957 C1962 1.350 . S
C1957 N1965 1.427 . S
C1958 H1949 0.930 . S
C1958 C1956 1.378 . S
C1958 C1959 1.367 . S
C1959 C1958 1.367 . S
C1959 C1961 1.433 . S
C1960 C1956 1.350 . S
C1960 C1957 1.463 . S
C1960 N1964 1.427 . S
C1961 H1951 0.929 . S
C1961 C1959 1.433 . S
C1961 N1964 1.384 . S
C1962 H1953 0.929 . S
C1962 C1954 1.378 . S
C1962 C1957 1.350 . S
C1963 H1950 0.929 . S
C1963 C1955 1.433 . S
C1963 N1965 1.384 . S
N1964 C1960 1.427 . S
N1964 C1961 1.384 . S
N1965 C1957 1.427 . S
N1965 C1963 1.384 . S
H1966 C1972 0.930 . S
H1967 C1976 0.930 . S
H1968 C1981 0.929 . S
H1969 C1979 0.929 . S
H1970 C1974 0.929 . S
H1971 C1980 0.929 . S
C1972 H1966 0.930 . S
C1972 C1973 1.367 . S
C1972 C1980 1.378 . S
C1973 C1972 1.367 . S
C1973 C1981 1.433 . S
C1974 H1970 0.929 . S
C1974 C1976 1.378 . S
C1974 C1978 1.350 . S
C1975 C1978 1.463 . S
C1975 C1980 1.350 . S
C1975 N1983 1.427 . S
C1976 H1967 0.930 . S
C1976 C1974 1.378 . S
C1976 C1977 1.367 . S
C1977 C1976 1.367 . S
C1977 C1979 1.433 . S
C1978 C1974 1.350 . S
C1978 C1975 1.463 . S
C1978 N1982 1.427 . S
C1979 H1969 0.929 . S
C1979 C1977 1.433 . S
C1979 N1982 1.384 . S
C1980 H1971 0.929 . S
C1980 C1972 1.378 . S
C1980 C1975 1.350 . S
C1981 H1968 0.929 . S
C1981 C1973 1.433 . S
C1981 N1983 1.384 . S
N1982 C1978 1.427 . S
N1982 C1979 1.384 . S
N1983 C1975 1.427 . S
N1983 C1981 1.384 . S
H1984 C1990 0.930 . S
H1985 C1994 0.930 . S
H1986 C1999 0.929 . S
H1987 C1997 0.929 . S
H1988 C1992 0.929 . S
H1989 C1998 0.929 . S
C1990 H1984 0.930 . S
C1990 C1991 1.367 . S
C1990 C1998 1.378 . S
C1991 C1990 1.367 . S
C1991 C1999 1.433 . S
C1992 H1988 0.929 . S
C1992 C1994 1.378 . S
C1992 C1996 1.350 . S
C1993 C1996 1.463 1_655 S
C1993 C1998 1.350 . S
C1993 N2001 1.427 . S
C1994 H1985 0.930 . S
C1994 C1992 1.378 . S
C1994 C1995 1.367 . S
C1995 C1994 1.367 . S
C1995 C1997 1.433 . S
C1996 C1992 1.350 . S
C1996 C1993 1.463 1_455 S
C1996 N2000 1.427 . S
C1997 H1987 0.929 . S
C1997 C1995 1.433 . S
C1997 N2000 1.384 . S
C1998 H1989 0.929 . S
C1998 C1990 1.378 . S
C1998 C1993 1.350 . S
C1999 H1986 0.929 . S
C1999 C1991 1.433 . S
C1999 N2001 1.384 . S
N2000 C1996 1.427 . S
N2000 C1997 1.384 . S
N2001 C1993 1.427 . S
N2001 C1999 1.384 . S
H2002 C2008 0.930 . S
H2003 C2012 0.930 . S
H2004 C2017 0.929 . S
H2005 C2015 0.929 . S
H2006 C2010 0.876 1_565 S
H2007 C2016 0.875 1_545 S
C2008 H2002 0.930 . S
C2008 C2009 1.367 . S
C2008 C2016 1.417 . S
C2009 C2008 1.367 . S
C2009 C2017 1.433 . S
C2010 H2006 0.876 1_545 S
C2010 C2012 1.417 . S
C2010 C2014 1.367 . S
C2011 C2014 1.463 1_565 S
C2011 C2016 1.368 . S
C2011 N2019 1.427 . S
C2012 H2003 0.930 . S
C2012 C2010 1.417 . S
C2012 C2013 1.367 . S
C2013 C2012 1.367 . S
C2013 C2015 1.433 . S
C2014 C2010 1.367 . S
C2014 C2011 1.463 1_545 S
C2014 N2018 1.427 . S
C2015 H2005 0.929 . S
C2015 C2013 1.433 . S
C2015 N2018 1.384 . S
C2016 H2007 0.875 1_565 S
C2016 C2008 1.417 . S
C2016 C2011 1.368 . S
C2017 H2004 0.929 . S
C2017 C2009 1.433 . S
C2017 N2019 1.384 . S
N2018 C2014 1.427 . S
N2018 C2015 1.384 . S
N2019 C2011 1.427 . S
N2019 C2017 1.384 . S
H2020 C2026 0.930 . S
H2021 C2030 0.930 . S
H2022 C2035 0.929 . S
H2023 C2033 0.929 . S
H2024 C2028 0.929 . S
H2025 C2034 0.929 . S
C2026 H2020 0.930 . S
C2026 C2027 1.367 1_554 S
C2026 C2034 1.378 . S
C2027 C2026 1.367 1_556 S
C2027 C2035 1.433 . S
C2028 H2024 0.929 . S
C2028 C2030 1.378 . S
C2028 C2032 1.348 . S
C2029 C2032 1.463 1_464 S
C2029 C2034 1.348 . S
C2029 N2037 1.429 1_554 S
C2030 H2021 0.930 . S
C2030 C2028 1.378 . S
C2030 C2031 1.367 1_556 S
C2031 C2030 1.367 1_554 S
C2031 C2033 1.433 . S
C2032 C2028 1.348 . S
C2032 C2029 1.463 1_646 S
C2032 N2036 1.429 1_556 S
C2033 H2023 0.929 . S
C2033 C2031 1.433 . S
C2033 N2036 1.384 . S
C2034 H2025 0.929 . S
C2034 C2026 1.378 . S
C2034 C2029 1.348 . S
C2035 H2022 0.929 . S
C2035 C2027 1.433 . S
C2035 N2037 1.384 . S
N2036 C2032 1.429 1_554 S
N2036 C2033 1.384 . S
N2037 C2029 1.429 1_556 S
N2037 C2035 1.384 . S
H2038 C2044 0.930 . S
H2039 C2048 0.930 . S
H2040 C2053 0.929 . S
H2041 C2051 0.929 . S
H2042 C2046 0.929 . S
H2043 C2052 0.929 . S
C2044 H2038 0.930 . S
C2044 C2045 1.367 1_556 S
C2044 C2052 1.378 . S
C2045 C2044 1.367 1_554 S
C2045 C2053 1.433 . S
C2046 H2042 0.929 . S
C2046 C2048 1.378 . S
C2046 C2050 1.353 1_554 S
C2047 C2050 1.463 1_554 S
C2047 C2052 1.353 1_554 S
C2047 N2055 1.424 . S
C2048 H2039 0.930 . S
C2048 C2046 1.378 . S
C2048 C2049 1.367 1_554 S
C2049 C2048 1.367 1_556 S
C2049 C2051 1.433 . S
C2050 C2046 1.353 1_556 S
C2050 C2047 1.463 1_556 S
C2050 N2054 1.424 . S
C2051 H2041 0.929 . S
C2051 C2049 1.433 . S
C2051 N2054 1.384 . S
C2052 H2043 0.929 . S
C2052 C2044 1.378 . S
C2052 C2047 1.353 1_556 S
C2053 H2040 0.929 . S
C2053 C2045 1.433 . S
C2053 N2055 1.384 . S
N2054 C2050 1.424 . S
N2054 C2051 1.384 . S
N2055 C2047 1.424 . S
N2055 C2053 1.384 . S
H2056 C2062 0.930 . S
H2057 C2066 0.930 . S
H2058 C2071 0.929 . S
H2059 C2069 0.929 . S
H2060 C2064 0.929 . S
H2061 C2070 0.929 . S
C2062 H2056 0.930 . S
C2062 C2063 1.367 . S
C2062 C2070 1.378 . S
C2063 C2062 1.367 . S
C2063 C2071 1.433 . S
C2064 H2060 0.929 . S
C2064 C2066 1.378 . S
C2064 C2068 1.350 . S
C2065 C2068 1.463 1_655 S
C2065 C2070 1.350 . S
C2065 N2073 1.427 . S
C2066 H2057 0.930 . S
C2066 C2064 1.378 . S
C2066 C2067 1.367 . S
C2067 C2066 1.367 . S
C2067 C2069 1.433 . S
C2068 C2064 1.350 . S
C2068 C2065 1.463 1_455 S
C2068 N2072 1.427 . S
C2069 H2059 0.929 . S
C2069 C2067 1.433 . S
C2069 N2072 1.384 . S
C2070 H2061 0.929 . S
C2070 C2062 1.378 . S
C2070 C2065 1.350 . S
C2071 H2058 0.929 . S
C2071 C2063 1.433 . S
C2071 N2073 1.384 . S
N2072 C2068 1.427 . S
N2072 C2069 1.384 . S
N2073 C2065 1.427 . S
N2073 C2071 1.384 . S
H2074 C2080 0.930 . S
H2075 C2084 0.930 . S
H2076 C2089 0.929 . S
H2077 C2087 0.929 . S
H2078 C2082 0.929 . S
H2079 C2088 0.929 . S
C2080 H2074 0.930 . S
C2080 C2081 1.367 . S
C2080 C2088 1.378 . S
C2081 C2080 1.367 . S
C2081 C2089 1.433 . S
C2082 H2078 0.929 . S
C2082 C2084 1.378 . S
C2082 C2086 1.350 . S
C2083 C2086 1.463 1_565 S
C2083 C2088 1.350 . S
C2083 N2091 1.427 . S
C2084 H2075 0.930 . S
C2084 C2082 1.378 . S
C2084 C2085 1.367 . S
C2085 C2084 1.367 . S
C2085 C2087 1.433 . S
C2086 C2082 1.350 . S
C2086 C2083 1.463 1_545 S
C2086 N2090 1.427 . S
C2087 H2077 0.929 . S
C2087 C2085 1.433 . S
C2087 N2090 1.384 . S
C2088 H2079 0.929 . S
C2088 C2080 1.378 . S
C2088 C2083 1.350 . S
C2089 H2076 0.929 . S
C2089 C2081 1.433 . S
C2089 N2091 1.384 . S
N2090 C2086 1.427 . S
N2090 C2087 1.384 . S
N2091 C2083 1.427 . S
N2091 C2089 1.384 . S
H2092 C2098 0.930 . S
H2093 C2102 0.930 . S
H2094 C2107 0.929 . S
H2095 C2105 0.929 . S
H2096 C2100 0.929 . S
H2097 C2106 0.929 . S
C2098 H2092 0.930 . S
C2098 C2099 1.367 . S
C2098 C2106 1.378 . S
C2099 C2098 1.367 . S
C2099 C2107 1.433 1_556 S
C2100 H2096 0.929 . S
C2100 C2102 1.378 . S
C2100 C2104 1.350 . S
C2101 C2104 1.463 1_556 S
C2101 C2106 1.350 . S
C2101 N2109 1.427 1_556 S
C2102 H2093 0.930 . S
C2102 C2100 1.378 . S
C2102 C2103 1.367 . S
C2103 C2102 1.367 . S
C2103 C2105 1.433 1_554 S
C2104 C2100 1.350 . S
C2104 C2101 1.463 1_554 S
C2104 N2108 1.427 1_554 S
C2105 H2095 0.929 . S
C2105 C2103 1.433 1_556 S
C2105 N2108 1.384 . S
C2106 H2097 0.929 . S
C2106 C2098 1.378 . S
C2106 C2101 1.350 . S
C2107 H2094 0.929 . S
C2107 C2099 1.433 1_554 S
C2107 N2109 1.384 . S
N2108 C2104 1.427 1_556 S
N2108 C2105 1.384 . S
N2109 C2101 1.427 1_554 S
N2109 C2107 1.384 . S
H2110 C2116 0.930 . S
H2111 C2120 0.930 . S
H2112 C2125 0.929 . S
H2113 C2123 0.929 . S
H2114 C2118 0.929 . S
H2115 C2124 0.929 . S
C2116 H2110 0.930 . S
C2116 C2117 1.367 . S
C2116 C2124 1.378 . S
C2117 C2116 1.367 . S
C2117 C2125 1.433 . S
C2118 H2114 0.929 . S
C2118 C2120 1.378 . S
C2118 C2122 1.350 . S
C2119 C2122 1.463 . S
C2119 C2124 1.350 . S
C2119 N2127 1.427 . S
C2120 H2111 0.930 . S
C2120 C2118 1.378 . S
C2120 C2121 1.367 . S
C2121 C2120 1.367 . S
C2121 C2123 1.433 . S
C2122 C2118 1.350 . S
C2122 C2119 1.463 . S
C2122 N2126 1.427 . S
C2123 H2113 0.929 . S
C2123 C2121 1.433 . S
C2123 N2126 1.384 . S
C2124 H2115 0.929 . S
C2124 C2116 1.378 . S
C2124 C2119 1.350 . S
C2125 H2112 0.929 . S
C2125 C2117 1.433 . S
C2125 N2127 1.384 . S
N2126 C2122 1.427 . S
N2126 C2123 1.384 . S
N2127 C2119 1.427 . S
N2127 C2125 1.384 . S
H2128 C2134 0.930 . S
H2129 C2138 0.930 . S
H2130 C2143 0.929 . S
H2131 C2141 0.929 . S
H2132 C2136 0.929 . S
H2133 C2142 0.929 . S
C2134 H2128 0.930 . S
C2134 C2135 1.367 . S
C2134 C2142 1.378 . S
C2135 C2134 1.367 . S
C2135 C2143 1.433 . S
C2136 H2132 0.929 . S
C2136 C2138 1.378 . S
C2136 C2140 1.350 . S
C2137 C2140 1.463 1_655 S
C2137 C2142 1.350 . S
C2137 N2145 1.427 . S
C2138 H2129 0.930 . S
C2138 C2136 1.378 . S
C2138 C2139 1.367 . S
C2139 C2138 1.367 . S
C2139 C2141 1.433 . S
C2140 C2136 1.350 . S
C2140 C2137 1.463 1_455 S
C2140 N2144 1.427 . S
C2141 H2131 0.929 . S
C2141 C2139 1.433 . S
C2141 N2144 1.384 . S
C2142 H2133 0.929 . S
C2142 C2134 1.378 . S
C2142 C2137 1.350 . S
C2143 H2130 0.929 . S
C2143 C2135 1.433 . S
C2143 N2145 1.384 . S
N2144 C2140 1.427 . S
N2144 C2141 1.384 . S
N2145 C2137 1.427 . S
N2145 C2143 1.384 . S
H2146 C2152 0.930 . S
H2147 C2156 0.930 . S
H2148 C2161 0.929 . S
H2149 C2159 0.929 . S
H2150 C2154 0.929 . S
H2151 C2160 0.929 . S
C2152 H2146 0.930 . S
C2152 C2153 1.367 . S
C2152 C2160 1.378 . S
C2153 C2152 1.367 . S
C2153 C2161 1.433 . S
C2154 H2150 0.929 . S
C2154 C2156 1.378 . S
C2154 C2158 1.350 . S
C2155 C2158 1.463 . S
C2155 C2160 1.350 . S
C2155 N2163 1.427 . S
C2156 H2147 0.930 . S
C2156 C2154 1.378 . S
C2156 C2157 1.367 . S
C2157 C2156 1.367 . S
C2157 C2159 1.433 . S
C2158 C2154 1.350 . S
C2158 C2155 1.463 . S
C2158 N2162 1.427 . S
C2159 H2149 0.929 . S
C2159 C2157 1.433 . S
C2159 N2162 1.384 . S
C2160 H2151 0.929 . S
C2160 C2152 1.378 . S
C2160 C2155 1.350 . S
C2161 H2148 0.929 . S
C2161 C2153 1.433 . S
C2161 N2163 1.384 . S
N2162 C2158 1.427 . S
N2162 C2159 1.384 . S
N2163 C2155 1.427 . S
N2163 C2161 1.384 . S
H2164 C2170 0.930 . S
H2165 C2174 0.930 . S
H2166 C2179 0.929 . S
H2167 C2177 0.929 . S
H2168 C2172 0.929 . S
H2169 C2178 0.929 . S
C2170 H2164 0.930 . S
C2170 C2171 1.367 . S
C2170 C2178 1.378 . S
C2171 C2170 1.367 . S
C2171 C2179 1.433 . S
C2172 H2168 0.929 . S
C2172 C2174 1.378 . S
C2172 C2176 1.350 . S
C2173 C2176 1.463 . S
C2173 C2178 1.350 . S
C2173 N2181 1.427 . S
C2174 H2165 0.930 . S
C2174 C2172 1.378 . S
C2174 C2175 1.367 . S
C2175 C2174 1.367 . S
C2175 C2177 1.433 . S
C2176 C2172 1.350 . S
C2176 C2173 1.463 . S
C2176 N2180 1.427 . S
C2177 H2167 0.929 . S
C2177 C2175 1.433 . S
C2177 N2180 1.384 . S
C2178 H2169 0.929 . S
C2178 C2170 1.378 . S
C2178 C2173 1.350 . S
C2179 H2166 0.929 . S
C2179 C2171 1.433 . S
C2179 N2181 1.384 . S
N2180 C2176 1.427 . S
N2180 C2177 1.384 . S
N2181 C2173 1.427 . S
N2181 C2179 1.384 . S
H2182 C2188 0.930 . S
H2183 C2192 0.930 . S
H2184 C2197 0.929 . S
H2185 C2195 0.929 . S
H2186 C2190 0.929 . S
H2187 C2196 0.929 . S
C2188 H2182 0.930 . S
C2188 C2189 1.367 . S
C2188 C2196 1.378 . S
C2189 C2188 1.367 . S
C2189 C2197 1.433 . S
C2190 H2186 0.929 . S
C2190 C2192 1.378 . S
C2190 C2194 1.350 . S
C2191 C2194 1.463 . S
C2191 C2196 1.350 . S
C2191 N2199 1.427 . S
C2192 H2183 0.930 . S
C2192 C2190 1.378 . S
C2192 C2193 1.367 . S
C2193 C2192 1.367 . S
C2193 C2195 1.433 . S
C2194 C2190 1.350 . S
C2194 C2191 1.463 . S
C2194 N2198 1.427 . S
C2195 H2185 0.929 . S
C2195 C2193 1.433 . S
C2195 N2198 1.384 . S
C2196 H2187 0.929 . S
C2196 C2188 1.378 . S
C2196 C2191 1.350 . S
C2197 H2184 0.929 . S
C2197 C2189 1.433 . S
C2197 N2199 1.384 . S
N2198 C2194 1.427 . S
N2198 C2195 1.384 . S
N2199 C2191 1.427 . S
N2199 C2197 1.384 . S
H2200 C2206 0.930 . S
H2201 C2210 0.930 . S
H2202 C2215 0.929 . S
H2203 C2213 0.929 . S
H2204 C2208 0.929 . S
H2205 C2214 0.929 . S
C2206 H2200 0.930 . S
C2206 C2207 1.367 . S
C2206 C2214 1.378 . S
C2207 C2206 1.367 . S
C2207 C2215 1.433 . S
C2208 H2204 0.929 . S
C2208 C2210 1.378 . S
C2208 C2212 1.350 . S
C2209 C2212 1.463 . S
C2209 C2214 1.350 . S
C2209 N2217 1.427 . S
C2210 H2201 0.930 . S
C2210 C2208 1.378 . S
C2210 C2211 1.367 . S
C2211 C2210 1.367 . S
C2211 C2213 1.433 . S
C2212 C2208 1.350 . S
C2212 C2209 1.463 . S
C2212 N2216 1.427 . S
C2213 H2203 0.929 . S
C2213 C2211 1.433 . S
C2213 N2216 1.384 . S
C2214 H2205 0.929 . S
C2214 C2206 1.378 . S
C2214 C2209 1.350 . S
C2215 H2202 0.929 . S
C2215 C2207 1.433 . S
C2215 N2217 1.384 . S
N2216 C2212 1.427 . S
N2216 C2213 1.384 . S
N2217 C2209 1.427 . S
N2217 C2215 1.384 . S
H2218 C2224 0.930 . S
H2219 C2228 0.930 . S
H2220 C2233 0.929 . S
H2221 C2231 0.929 . S
H2222 C2226 0.929 1_545 S
H2223 C2232 0.929 1_565 S
C2224 H2218 0.930 . S
C2224 C2225 1.367 . S
C2224 C2232 1.378 . S
C2225 C2224 1.367 . S
C2225 C2233 1.433 . S
C2226 H2222 0.929 1_565 S
C2226 C2228 1.378 . S
C2226 C2230 1.350 . S
C2227 C2230 1.463 1_545 S
C2227 C2232 1.350 . S
C2227 N2235 1.427 . S
C2228 H2219 0.930 . S
C2228 C2226 1.378 . S
C2228 C2229 1.367 . S
C2229 C2228 1.367 . S
C2229 C2231 1.433 . S
C2230 C2226 1.350 . S
C2230 C2227 1.463 1_565 S
C2230 N2234 1.427 . S
C2231 H2221 0.929 . S
C2231 C2229 1.433 . S
C2231 N2234 1.384 . S
C2232 H2223 0.929 1_545 S
C2232 C2224 1.378 . S
C2232 C2227 1.350 . S
C2233 H2220 0.929 . S
C2233 C2225 1.433 . S
C2233 N2235 1.384 . S
N2234 C2230 1.427 . S
N2234 C2231 1.384 . S
N2235 C2227 1.427 . S
N2235 C2233 1.384 . S
H2236 C2242 0.930 . S
H2237 C2246 0.930 . S
H2238 C2251 0.929 . S
H2239 C2249 0.929 . S
H2240 C2244 0.929 . S
H2241 C2250 0.929 . S
C2242 H2236 0.930 . S
C2242 C2243 1.367 . S
C2242 C2250 1.378 . S
C2243 C2242 1.367 . S
C2243 C2251 1.433 . S
C2244 H2240 0.929 . S
C2244 C2246 1.378 . S
C2244 C2248 1.350 . S
C2245 C2248 1.463 . S
C2245 C2250 1.350 . S
C2245 N2253 1.427 . S
C2246 H2237 0.930 . S
C2246 C2244 1.378 . S
C2246 C2247 1.367 . S
C2247 C2246 1.367 . S
C2247 C2249 1.433 . S
C2248 C2244 1.350 . S
C2248 C2245 1.463 . S
C2248 N2252 1.427 . S
C2249 H2239 0.929 . S
C2249 C2247 1.433 . S
C2249 N2252 1.384 . S
C2250 H2241 0.929 . S
C2250 C2242 1.378 . S
C2250 C2245 1.350 . S
C2251 H2238 0.929 . S
C2251 C2243 1.433 . S
C2251 N2253 1.384 . S
N2252 C2248 1.427 . S
N2252 C2249 1.384 . S
N2253 C2245 1.427 . S
N2253 C2251 1.384 . S
H2254 C2260 0.930 . S
H2255 C2264 0.930 . S
H2256 C2269 0.929 . S
H2257 C2267 0.929 . S
H2258 C2262 0.929 . S
H2259 C2268 0.929 . S
C2260 H2254 0.930 . S
C2260 C2261 1.367 . S
C2260 C2268 1.378 . S
C2261 C2260 1.367 . S
C2261 C2269 1.433 1_556 S
C2262 H2258 0.929 . S
C2262 C2264 1.378 . S
C2262 C2266 1.350 . S
C2263 C2266 1.463 1_556 S
C2263 C2268 1.350 . S
C2263 N2271 1.427 1_556 S
C2264 H2255 0.930 . S
C2264 C2262 1.378 . S
C2264 C2265 1.367 . S
C2265 C2264 1.367 . S
C2265 C2267 1.433 1_554 S
C2266 C2262 1.350 . S
C2266 C2263 1.463 1_554 S
C2266 N2270 1.427 1_554 S
C2267 H2257 0.929 . S
C2267 C2265 1.433 1_556 S
C2267 N2270 1.384 . S
C2268 H2259 0.929 . S
C2268 C2260 1.378 . S
C2268 C2263 1.350 . S
C2269 H2256 0.929 . S
C2269 C2261 1.433 1_554 S
C2269 N2271 1.384 . S
N2270 C2266 1.427 1_556 S
N2270 C2267 1.384 . S
N2271 C2263 1.427 1_554 S
N2271 C2269 1.384 . S
H2272 C2278 0.930 . S
H2273 C2282 0.930 . S
H2274 C2287 0.929 . S
H2275 C2285 0.929 . S
H2276 C2280 0.929 . S
H2277 C2286 0.929 . S
C2278 H2272 0.930 . S
C2278 C2279 1.367 . S
C2278 C2286 1.378 . S
C2279 C2278 1.367 . S
C2279 C2287 1.433 . S
C2280 H2276 0.929 . S
C2280 C2282 1.378 . S
C2280 C2284 1.350 . S
C2281 C2284 1.463 . S
C2281 C2286 1.350 . S
C2281 N2289 1.427 . S
C2282 H2273 0.930 . S
C2282 C2280 1.378 . S
C2282 C2283 1.367 . S
C2283 C2282 1.367 . S
C2283 C2285 1.433 . S
C2284 C2280 1.350 . S
C2284 C2281 1.463 . S
C2284 N2288 1.427 . S
C2285 H2275 0.929 . S
C2285 C2283 1.433 . S
C2285 N2288 1.384 . S
C2286 H2277 0.929 . S
C2286 C2278 1.378 . S
C2286 C2281 1.350 . S
C2287 H2274 0.929 . S
C2287 C2279 1.433 . S
C2287 N2289 1.384 . S
N2288 C2284 1.427 . S
N2288 C2285 1.384 . S
N2289 C2281 1.427 . S
N2289 C2287 1.384 . S
H2290 C2296 0.930 . S
H2291 C2300 0.930 . S
H2292 C2305 0.929 . S
H2293 C2303 0.929 . S
H2294 C2298 0.929 . S
H2295 C2304 0.929 . S
C2296 H2290 0.930 . S
C2296 C2297 1.367 . S
C2296 C2304 1.378 . S
C2297 C2296 1.367 . S
C2297 C2305 1.433 . S
C2298 H2294 0.929 . S
C2298 C2300 1.378 . S
C2298 C2302 1.350 . S
C2299 C2302 1.463 . S
C2299 C2304 1.350 . S
C2299 N2307 1.427 . S
C2300 H2291 0.930 . S
C2300 C2298 1.378 . S
C2300 C2301 1.367 . S
C2301 C2300 1.367 . S
C2301 C2303 1.433 . S
C2302 C2298 1.350 . S
C2302 C2299 1.463 . S
C2302 N2306 1.427 . S
C2303 H2293 0.929 . S
C2303 C2301 1.433 . S
C2303 N2306 1.384 . S
C2304 H2295 0.929 . S
C2304 C2296 1.378 . S
C2304 C2299 1.350 . S
C2305 H2292 0.929 . S
C2305 C2297 1.433 . S
C2305 N2307 1.384 . S
N2306 C2302 1.427 . S
N2306 C2303 1.384 . S
N2307 C2299 1.427 . S
N2307 C2305 1.384 . S
H2308 C2314 0.930 . S
H2309 C2318 0.930 . S
H2310 C2323 0.929 . S
H2311 C2321 0.929 . S
H2312 C2316 0.929 . S
H2313 C2322 0.929 . S
C2314 H2308 0.930 . S
C2314 C2315 1.367 . S
C2314 C2322 1.378 . S
C2315 C2314 1.367 . S
C2315 C2323 1.433 . S
C2316 H2312 0.929 . S
C2316 C2318 1.378 . S
C2316 C2320 1.350 . S
C2317 C2320 1.463 . S
C2317 C2322 1.350 . S
C2317 N2325 1.427 . S
C2318 H2309 0.930 . S
C2318 C2316 1.378 . S
C2318 C2319 1.367 . S
C2319 C2318 1.367 . S
C2319 C2321 1.433 . S
C2320 C2316 1.350 . S
C2320 C2317 1.463 . S
C2320 N2324 1.427 . S
C2321 H2311 0.929 . S
C2321 C2319 1.433 . S
C2321 N2324 1.384 . S
C2322 H2313 0.929 . S
C2322 C2314 1.378 . S
C2322 C2317 1.350 . S
C2323 H2310 0.929 . S
C2323 C2315 1.433 . S
C2323 N2325 1.384 . S
N2324 C2320 1.427 . S
N2324 C2321 1.384 . S
N2325 C2317 1.427 . S
N2325 C2323 1.384 . S
H2326 C2332 0.930 . S
H2327 C2336 0.930 . S
H2328 C2341 0.929 . S
H2329 C2339 0.929 . S
H2330 C2334 0.929 . S
H2331 C2340 0.929 . S
C2332 H2326 0.930 . S
C2332 C2333 1.367 . S
C2332 C2340 1.378 . S
C2333 C2332 1.367 . S
C2333 C2341 1.433 . S
C2334 H2330 0.929 . S
C2334 C2336 1.378 . S
C2334 C2338 1.350 . S
C2335 C2338 1.463 . S
C2335 C2340 1.350 . S
C2335 N2343 1.427 . S
C2336 H2327 0.930 . S
C2336 C2334 1.378 . S
C2336 C2337 1.367 . S
C2337 C2336 1.367 . S
C2337 C2339 1.433 . S
C2338 C2334 1.350 . S
C2338 C2335 1.463 . S
C2338 N2342 1.427 . S
C2339 H2329 0.929 . S
C2339 C2337 1.433 . S
C2339 N2342 1.384 . S
C2340 H2331 0.929 . S
C2340 C2332 1.378 . S
C2340 C2335 1.350 . S
C2341 H2328 0.929 . S
C2341 C2333 1.433 . S
C2341 N2343 1.384 . S
N2342 C2338 1.427 . S
N2342 C2339 1.384 . S
N2343 C2335 1.427 . S
N2343 C2341 1.384 . S
H2344 C2350 0.930 . S
H2345 C2354 0.930 . S
H2346 C2359 0.929 . S
H2347 C2357 0.929 . S
H2348 C2352 0.929 . S
H2349 C2358 0.929 . S
C2350 H2344 0.930 . S
C2350 C2351 1.367 . S
C2350 C2358 1.378 . S
C2351 C2350 1.367 . S
C2351 C2359 1.433 . S
C2352 H2348 0.929 . S
C2352 C2354 1.378 . S
C2352 C2356 1.350 . S
C2353 C2356 1.463 . S
C2353 C2358 1.350 . S
C2353 N2361 1.427 . S
C2354 H2345 0.930 . S
C2354 C2352 1.378 . S
C2354 C2355 1.367 . S
C2355 C2354 1.367 . S
C2355 C2357 1.433 . S
C2356 C2352 1.350 . S
C2356 C2353 1.463 . S
C2356 N2360 1.427 . S
C2357 H2347 0.929 . S
C2357 C2355 1.433 . S
C2357 N2360 1.384 . S
C2358 H2349 0.929 . S
C2358 C2350 1.378 . S
C2358 C2353 1.350 . S
C2359 H2346 0.929 . S
C2359 C2351 1.433 . S
C2359 N2361 1.384 . S
N2360 C2356 1.427 . S
N2360 C2357 1.384 . S
N2361 C2353 1.427 . S
N2361 C2359 1.384 . S
H2362 C2368 0.930 . S
H2363 C2372 0.930 . S
H2364 C2377 0.929 . S
H2365 C2375 0.929 . S
H2366 C2370 0.929 . S
H2367 C2376 0.929 . S
C2368 H2362 0.930 . S
C2368 C2369 1.367 . S
C2368 C2376 1.378 . S
C2369 C2368 1.367 . S
C2369 C2377 1.433 . S
C2370 H2366 0.929 . S
C2370 C2372 1.378 . S
C2370 C2374 1.350 . S
C2371 C2374 1.463 . S
C2371 C2376 1.350 . S
C2371 N2379 1.427 . S
C2372 H2363 0.930 . S
C2372 C2370 1.378 . S
C2372 C2373 1.367 . S
C2373 C2372 1.367 . S
C2373 C2375 1.433 . S
C2374 C2370 1.350 . S
C2374 C2371 1.463 . S
C2374 N2378 1.427 . S
C2375 H2365 0.929 . S
C2375 C2373 1.433 . S
C2375 N2378 1.384 . S
C2376 H2367 0.929 . S
C2376 C2368 1.378 . S
C2376 C2371 1.350 . S
C2377 H2364 0.929 . S
C2377 C2369 1.433 . S
C2377 N2379 1.384 . S
N2378 C2374 1.427 . S
N2378 C2375 1.384 . S
N2379 C2371 1.427 . S
N2379 C2377 1.384 . S
H2380 C2386 0.930 . S
H2381 C2390 0.930 . S
H2382 C2395 0.929 . S
H2383 C2393 0.929 . S
H2384 C2388 0.929 . S
H2385 C2394 0.929 . S
C2386 H2380 0.930 . S
C2386 C2387 1.367 . S
C2386 C2394 1.378 . S
C2387 C2386 1.367 . S
C2387 C2395 1.433 . S
C2388 H2384 0.929 . S
C2388 C2390 1.378 . S
C2388 C2392 1.350 . S
C2389 C2392 1.463 . S
C2389 C2394 1.350 . S
C2389 N2397 1.427 . S
C2390 H2381 0.930 . S
C2390 C2388 1.378 . S
C2390 C2391 1.367 . S
C2391 C2390 1.367 . S
C2391 C2393 1.433 . S
C2392 C2388 1.350 . S
C2392 C2389 1.463 . S
C2392 N2396 1.427 . S
C2393 H2383 0.929 . S
C2393 C2391 1.433 . S
C2393 N2396 1.384 . S
C2394 H2385 0.929 . S
C2394 C2386 1.378 . S
C2394 C2389 1.350 . S
C2395 H2382 0.929 . S
C2395 C2387 1.433 . S
C2395 N2397 1.384 . S
N2396 C2392 1.427 . S
N2396 C2393 1.384 . S
N2397 C2389 1.427 . S
N2397 C2395 1.384 . S
H2398 C2404 0.930 . S
H2399 C2408 0.930 . S
H2400 C2413 0.929 . S
H2401 C2411 0.929 . S
H2402 C2406 0.929 . S
H2403 C2412 0.929 . S
C2404 H2398 0.930 . S
C2404 C2405 1.367 . S
C2404 C2412 1.378 . S
C2405 C2404 1.367 . S
C2405 C2413 1.433 . S
C2406 H2402 0.929 . S
C2406 C2408 1.378 . S
C2406 C2410 1.350 . S
C2407 C2410 1.463 . S
C2407 C2412 1.350 . S
C2407 N2415 1.427 . S
C2408 H2399 0.930 . S
C2408 C2406 1.378 . S
C2408 C2409 1.367 . S
C2409 C2408 1.367 . S
C2409 C2411 1.433 . S
C2410 C2406 1.350 . S
C2410 C2407 1.463 . S
C2410 N2414 1.427 . S
C2411 H2401 0.929 . S
C2411 C2409 1.433 . S
C2411 N2414 1.384 . S
C2412 H2403 0.929 . S
C2412 C2404 1.378 . S
C2412 C2407 1.350 . S
C2413 H2400 0.929 . S
C2413 C2405 1.433 . S
C2413 N2415 1.384 . S
N2414 C2410 1.427 . S
N2414 C2411 1.384 . S
N2415 C2407 1.427 . S
N2415 C2413 1.384 . S
H2416 C2422 0.930 . S
H2417 C2426 0.930 . S
H2418 C2431 0.929 . S
H2419 C2429 0.929 . S
H2420 C2424 0.929 . S
H2421 C2430 0.929 . S
C2422 H2416 0.930 . S
C2422 C2423 1.367 . S
C2422 C2430 1.378 . S
C2423 C2422 1.367 . S
C2423 C2431 1.433 . S
C2424 H2420 0.929 . S
C2424 C2426 1.378 . S
C2424 C2428 1.350 . S
C2425 C2428 1.463 . S
C2425 C2430 1.350 . S
C2425 N2433 1.427 . S
C2426 H2417 0.930 . S
C2426 C2424 1.378 . S
C2426 C2427 1.367 . S
C2427 C2426 1.367 . S
C2427 C2429 1.433 . S
C2428 C2424 1.350 . S
C2428 C2425 1.463 . S
C2428 N2432 1.427 . S
C2429 H2419 0.929 . S
C2429 C2427 1.433 . S
C2429 N2432 1.384 . S
C2430 H2421 0.929 . S
C2430 C2422 1.378 . S
C2430 C2425 1.350 . S
C2431 H2418 0.929 . S
C2431 C2423 1.433 . S
C2431 N2433 1.384 . S
N2432 C2428 1.427 . S
N2432 C2429 1.384 . S
N2433 C2425 1.427 . S
N2433 C2431 1.384 . S
H2434 C2440 0.930 . S
H2435 C2444 0.930 . S
H2436 C2449 0.929 . S
H2437 C2447 0.929 . S
H2438 C2442 0.929 . S
H2439 C2448 0.929 . S
C2440 H2434 0.930 . S
C2440 C2441 1.367 . S
C2440 C2448 1.378 . S
C2441 C2440 1.367 . S
C2441 C2449 1.433 . S
C2442 H2438 0.929 . S
C2442 C2444 1.378 . S
C2442 C2446 1.350 . S
C2443 C2446 1.463 . S
C2443 C2448 1.350 . S
C2443 N2451 1.427 . S
C2444 H2435 0.930 . S
C2444 C2442 1.378 . S
C2444 C2445 1.367 . S
C2445 C2444 1.367 . S
C2445 C2447 1.433 . S
C2446 C2442 1.350 . S
C2446 C2443 1.463 . S
C2446 N2450 1.427 . S
C2447 H2437 0.929 . S
C2447 C2445 1.433 . S
C2447 N2450 1.384 . S
C2448 H2439 0.929 . S
C2448 C2440 1.378 . S
C2448 C2443 1.350 . S
C2449 H2436 0.929 . S
C2449 C2441 1.433 . S
C2449 N2451 1.384 . S
N2450 C2446 1.427 . S
N2450 C2447 1.384 . S
N2451 C2443 1.427 . S
N2451 C2449 1.384 . S
H2452 C2458 0.930 . S
H2453 C2462 0.930 . S
H2454 C2467 0.929 . S
H2455 C2465 0.929 . S
H2456 C2460 0.929 . S
H2457 C2466 0.929 . S
C2458 H2452 0.930 . S
C2458 C2459 1.367 . S
C2458 C2466 1.378 . S
C2459 C2458 1.367 . S
C2459 C2467 1.433 . S
C2460 H2456 0.929 . S
C2460 C2462 1.378 . S
C2460 C2464 1.350 . S
C2461 C2464 1.463 . S
C2461 C2466 1.350 . S
C2461 N2469 1.427 . S
C2462 H2453 0.930 . S
C2462 C2460 1.378 . S
C2462 C2463 1.367 . S
C2463 C2462 1.367 . S
C2463 C2465 1.433 . S
C2464 C2460 1.350 . S
C2464 C2461 1.463 . S
C2464 N2468 1.427 . S
C2465 H2455 0.929 . S
C2465 C2463 1.433 . S
C2465 N2468 1.384 . S
C2466 H2457 0.929 . S
C2466 C2458 1.378 . S
C2466 C2461 1.350 . S
C2467 H2454 0.929 . S
C2467 C2459 1.433 . S
C2467 N2469 1.384 . S
N2468 C2464 1.427 . S
N2468 C2465 1.384 . S
N2469 C2461 1.427 . S
N2469 C2467 1.384 . S
H2470 C2476 0.930 . S
H2471 C2480 0.930 . S
H2472 C2485 0.929 . S
H2473 C2483 0.929 . S
H2474 C2478 0.929 . S
H2475 C2484 0.929 . S
C2476 H2470 0.930 . S
C2476 C2477 1.367 . S
C2476 C2484 1.378 . S
C2477 C2476 1.367 . S
C2477 C2485 1.433 . S
C2478 H2474 0.929 . S
C2478 C2480 1.378 . S
C2478 C2482 1.350 . S
C2479 C2482 1.463 . S
C2479 C2484 1.350 . S
C2479 N2487 1.427 . S
C2480 H2471 0.930 . S
C2480 C2478 1.378 . S
C2480 C2481 1.367 . S
C2481 C2480 1.367 . S
C2481 C2483 1.433 . S
C2482 C2478 1.350 . S
C2482 C2479 1.463 . S
C2482 N2486 1.427 . S
C2483 H2473 0.929 . S
C2483 C2481 1.433 . S
C2483 N2486 1.384 . S
C2484 H2475 0.929 . S
C2484 C2476 1.378 . S
C2484 C2479 1.350 . S
C2485 H2472 0.929 . S
C2485 C2477 1.433 . S
C2485 N2487 1.384 . S
N2486 C2482 1.427 . S
N2486 C2483 1.384 . S
N2487 C2479 1.427 . S
N2487 C2485 1.384 . S
H2488 C2494 0.930 . S
H2489 C2498 0.930 . S
H2490 C2503 0.929 . S
H2491 C2501 0.929 . S
H2492 C2496 0.929 . S
H2493 C2502 0.929 . S
C2494 H2488 0.930 . S
C2494 C2495 1.367 . S
C2494 C2502 1.378 . S
C2495 C2494 1.367 . S
C2495 C2503 1.433 . S
C2496 H2492 0.929 . S
C2496 C2498 1.378 . S
C2496 C2500 1.350 . S
C2497 C2500 1.463 . S
C2497 C2502 1.350 . S
C2497 N2505 1.427 . S
C2498 H2489 0.930 . S
C2498 C2496 1.378 . S
C2498 C2499 1.367 . S
C2499 C2498 1.367 . S
C2499 C2501 1.433 . S
C2500 C2496 1.350 . S
C2500 C2497 1.463 . S
C2500 N2504 1.427 . S
C2501 H2491 0.929 . S
C2501 C2499 1.433 . S
C2501 N2504 1.384 . S
C2502 H2493 0.929 . S
C2502 C2494 1.378 . S
C2502 C2497 1.350 . S
C2503 H2490 0.929 . S
C2503 C2495 1.433 . S
C2503 N2505 1.384 . S
N2504 C2500 1.427 . S
N2504 C2501 1.384 . S
N2505 C2497 1.427 . S
N2505 C2503 1.384 . S
H2506 C2512 0.930 . S
H2507 C2516 0.930 . S
H2508 C2521 0.929 . S
H2509 C2519 0.929 . S
H2510 C2514 0.929 . S
H2511 C2520 0.929 . S
C2512 H2506 0.930 . S
C2512 C2513 1.367 . S
C2512 C2520 1.378 . S
C2513 C2512 1.367 . S
C2513 C2521 1.433 . S
C2514 H2510 0.929 . S
C2514 C2516 1.378 . S
C2514 C2518 1.350 . S
C2515 C2518 1.463 . S
C2515 C2520 1.350 . S
C2515 N2523 1.427 . S
C2516 H2507 0.930 . S
C2516 C2514 1.378 . S
C2516 C2517 1.367 . S
C2517 C2516 1.367 . S
C2517 C2519 1.433 . S
C2518 C2514 1.350 . S
C2518 C2515 1.463 . S
C2518 N2522 1.427 . S
C2519 H2509 0.929 . S
C2519 C2517 1.433 . S
C2519 N2522 1.384 . S
C2520 H2511 0.929 . S
C2520 C2512 1.378 . S
C2520 C2515 1.350 . S
C2521 H2508 0.929 . S
C2521 C2513 1.433 . S
C2521 N2523 1.384 . S
N2522 C2518 1.427 . S
N2522 C2519 1.384 . S
N2523 C2515 1.427 . S
N2523 C2521 1.384 . S
H2524 C2530 0.930 . S
H2525 C2534 0.930 . S
H2526 C2539 0.929 . S
H2527 C2537 0.929 . S
H2528 C2532 0.929 . S
H2529 C2538 0.929 . S
C2530 H2524 0.930 . S
C2530 C2531 1.367 . S
C2530 C2538 1.378 . S
C2531 C2530 1.367 . S
C2531 C2539 1.433 . S
C2532 H2528 0.929 . S
C2532 C2534 1.378 . S
C2532 C2536 1.350 . S
C2533 C2536 1.463 . S
C2533 C2538 1.350 . S
C2533 N2541 1.427 . S
C2534 H2525 0.930 . S
C2534 C2532 1.378 . S
C2534 C2535 1.367 . S
C2535 C2534 1.367 . S
C2535 C2537 1.433 . S
C2536 C2532 1.350 . S
C2536 C2533 1.463 . S
C2536 N2540 1.427 . S
C2537 H2527 0.929 . S
C2537 C2535 1.433 . S
C2537 N2540 1.384 . S
C2538 H2529 0.929 . S
C2538 C2530 1.378 . S
C2538 C2533 1.350 . S
C2539 H2526 0.929 . S
C2539 C2531 1.433 . S
C2539 N2541 1.384 . S
N2540 C2536 1.427 . S
N2540 C2537 1.384 . S
N2541 C2533 1.427 . S
N2541 C2539 1.384 . S
H2542 C2548 0.930 . S
H2543 C2552 0.930 . S
H2544 C2557 0.929 . S
H2545 C2555 0.929 . S
H2546 C2550 0.929 . S
H2547 C2556 0.929 . S
C2548 H2542 0.930 . S
C2548 C2549 1.367 . S
C2548 C2556 1.378 . S
C2549 C2548 1.367 . S
C2549 C2557 1.433 . S
C2550 H2546 0.929 . S
C2550 C2552 1.378 . S
C2550 C2554 1.350 . S
C2551 C2554 1.463 . S
C2551 C2556 1.350 . S
C2551 N2559 1.427 . S
C2552 H2543 0.930 . S
C2552 C2550 1.378 . S
C2552 C2553 1.367 . S
C2553 C2552 1.367 . S
C2553 C2555 1.433 . S
C2554 C2550 1.350 . S
C2554 C2551 1.463 . S
C2554 N2558 1.427 . S
C2555 H2545 0.929 . S
C2555 C2553 1.433 . S
C2555 N2558 1.384 . S
C2556 H2547 0.929 . S
C2556 C2548 1.378 . S
C2556 C2551 1.350 . S
C2557 H2544 0.929 . S
C2557 C2549 1.433 . S
C2557 N2559 1.384 . S
N2558 C2554 1.427 . S
N2558 C2555 1.384 . S
N2559 C2551 1.427 . S
N2559 C2557 1.384 . S
H2560 C2566 0.930 . S
H2561 C2570 0.930 . S
H2562 C2575 0.929 . S
H2563 C2573 0.929 . S
H2564 C2568 0.929 . S
H2565 C2574 0.929 . S
C2566 H2560 0.930 . S
C2566 C2567 1.367 . S
C2566 C2574 1.378 . S
C2567 C2566 1.367 . S
C2567 C2575 1.433 . S
C2568 H2564 0.929 . S
C2568 C2570 1.378 . S
C2568 C2572 1.350 . S
C2569 C2572 1.463 . S
C2569 C2574 1.350 . S
C2569 N2577 1.427 . S
C2570 H2561 0.930 . S
C2570 C2568 1.378 . S
C2570 C2571 1.367 . S
C2571 C2570 1.367 . S
C2571 C2573 1.433 . S
C2572 C2568 1.350 . S
C2572 C2569 1.463 . S
C2572 N2576 1.427 . S
C2573 H2563 0.929 . S
C2573 C2571 1.433 . S
C2573 N2576 1.384 . S
C2574 H2565 0.929 . S
C2574 C2566 1.378 . S
C2574 C2569 1.350 . S
C2575 H2562 0.929 . S
C2575 C2567 1.433 . S
C2575 N2577 1.384 . S
N2576 C2572 1.427 . S
N2576 C2573 1.384 . S
N2577 C2569 1.427 . S
N2577 C2575 1.384 . S
H2578 C2584 0.930 . S
H2579 C2588 0.930 . S
H2580 C2593 0.929 . S
H2581 C2591 0.929 . S
H2582 C2586 0.929 . S
H2583 C2592 0.929 . S
C2584 H2578 0.930 . S
C2584 C2585 1.367 . S
C2584 C2592 1.378 . S
C2585 C2584 1.367 . S
C2585 C2593 1.433 . S
C2586 H2582 0.929 . S
C2586 C2588 1.378 . S
C2586 C2590 1.350 . S
C2587 C2590 1.463 . S
C2587 C2592 1.350 . S
C2587 N2595 1.427 . S
C2588 H2579 0.930 . S
C2588 C2586 1.378 . S
C2588 C2589 1.367 . S
C2589 C2588 1.367 . S
C2589 C2591 1.433 . S
C2590 C2586 1.350 . S
C2590 C2587 1.463 . S
C2590 N2594 1.427 . S
C2591 H2581 0.929 . S
C2591 C2589 1.433 . S
C2591 N2594 1.384 . S
C2592 H2583 0.929 . S
C2592 C2584 1.378 . S
C2592 C2587 1.350 . S
C2593 H2580 0.929 . S
C2593 C2585 1.433 . S
C2593 N2595 1.384 . S
N2594 C2590 1.427 . S
N2594 C2591 1.384 . S
N2595 C2587 1.427 . S
N2595 C2593 1.384 . S
H2596 C2602 0.930 . S
H2597 C2606 0.930 . S
H2598 C2611 0.929 . S
H2599 C2609 0.929 . S
H2600 C2604 0.929 . S
H2601 C2610 0.929 . S
C2602 H2596 0.930 . S
C2602 C2603 1.367 . S
C2602 C2610 1.378 . S
C2603 C2602 1.367 . S
C2603 C2611 1.433 1_556 S
C2604 H2600 0.929 . S
C2604 C2606 1.378 . S
C2604 C2608 1.350 1_554 S
C2605 C2608 1.463 . S
C2605 C2610 1.350 . S
C2605 N2613 1.427 1_556 S
C2606 H2597 0.930 . S
C2606 C2604 1.378 . S
C2606 C2607 1.367 1_554 S
C2607 C2606 1.367 1_556 S
C2607 C2609 1.433 . S
C2608 C2604 1.350 1_556 S
C2608 C2605 1.463 . S
C2608 N2612 1.427 . S
C2609 H2599 0.929 . S
C2609 C2607 1.433 . S
C2609 N2612 1.384 . S
C2610 H2601 0.929 . S
C2610 C2602 1.378 . S
C2610 C2605 1.350 . S
C2611 H2598 0.929 . S
C2611 C2603 1.433 1_554 S
C2611 N2613 1.384 . S
N2612 C2608 1.427 . S
N2612 C2609 1.384 . S
N2613 C2605 1.427 1_554 S
N2613 C2611 1.384 . S
H2614 C2620 0.930 . S
H2615 C2624 0.930 . S
H2616 C2629 0.929 . S
H2617 C2627 0.929 . S
H2618 C2622 0.929 . S
H2619 C2628 0.929 . S
C2620 H2614 0.930 . S
C2620 C2621 1.367 . S
C2620 C2628 1.378 . S
C2621 C2620 1.367 . S
C2621 C2629 1.433 1_556 S
C2622 H2618 0.929 . S
C2622 C2624 1.378 . S
C2622 C2626 1.350 1_554 S
C2623 C2626 1.463 . S
C2623 C2628 1.350 . S
C2623 N2631 1.427 1_556 S
C2624 H2615 0.930 . S
C2624 C2622 1.378 . S
C2624 C2625 1.367 1_554 S
C2625 C2624 1.367 1_556 S
C2625 C2627 1.433 . S
C2626 C2622 1.350 1_556 S
C2626 C2623 1.463 . S
C2626 N2630 1.427 . S
C2627 H2617 0.929 . S
C2627 C2625 1.433 . S
C2627 N2630 1.384 . S
C2628 H2619 0.929 . S
C2628 C2620 1.378 . S
C2628 C2623 1.350 . S
C2629 H2616 0.929 . S
C2629 C2621 1.433 1_554 S
C2629 N2631 1.384 . S
N2630 C2626 1.427 . S
N2630 C2627 1.384 . S
N2631 C2623 1.427 1_554 S
N2631 C2629 1.384 . S
H2632 C2638 0.930 . S
H2633 C2642 0.930 . S
H2634 C2647 0.929 . S
H2635 C2645 0.929 . S
H2636 C2640 0.929 . S
H2637 C2646 0.929 . S
C2638 H2632 0.930 . S
C2638 C2639 1.367 . S
C2638 C2646 1.378 . S
C2639 C2638 1.367 . S
C2639 C2647 1.433 . S
C2640 H2636 0.929 . S
C2640 C2642 1.378 . S
C2640 C2644 1.350 . S
C2641 C2644 1.463 . S
C2641 C2646 1.350 . S
C2641 N2649 1.427 . S
C2642 H2633 0.930 . S
C2642 C2640 1.378 . S
C2642 C2643 1.367 . S
C2643 C2642 1.367 . S
C2643 C2645 1.433 . S
C2644 C2640 1.350 . S
C2644 C2641 1.463 . S
C2644 N2648 1.427 . S
C2645 H2635 0.929 . S
C2645 C2643 1.433 . S
C2645 N2648 1.384 . S
C2646 H2637 0.929 . S
C2646 C2638 1.378 . S
C2646 C2641 1.350 . S
C2647 H2634 0.929 . S
C2647 C2639 1.433 . S
C2647 N2649 1.384 . S
N2648 C2644 1.427 . S
N2648 C2645 1.384 . S
N2649 C2641 1.427 . S
N2649 C2647 1.384 . S
H2650 C2656 0.930 . S
H2651 C2660 0.930 . S
H2652 C2665 0.929 . S
H2653 C2663 0.929 . S
H2654 C2658 0.929 . S
H2655 C2664 0.929 . S
C2656 H2650 0.930 . S
C2656 C2657 1.367 . S
C2656 C2664 1.378 . S
C2657 C2656 1.367 . S
C2657 C2665 1.433 . S
C2658 H2654 0.929 . S
C2658 C2660 1.378 . S
C2658 C2662 1.350 . S
C2659 C2662 1.463 . S
C2659 C2664 1.350 . S
C2659 N2667 1.427 . S
C2660 H2651 0.930 . S
C2660 C2658 1.378 . S
C2660 C2661 1.367 . S
C2661 C2660 1.367 . S
C2661 C2663 1.433 . S
C2662 C2658 1.350 . S
C2662 C2659 1.463 . S
C2662 N2666 1.427 . S
C2663 H2653 0.929 . S
C2663 C2661 1.433 . S
C2663 N2666 1.384 . S
C2664 H2655 0.929 . S
C2664 C2656 1.378 . S
C2664 C2659 1.350 . S
C2665 H2652 0.929 . S
C2665 C2657 1.433 . S
C2665 N2667 1.384 . S
N2666 C2662 1.427 . S
N2666 C2663 1.384 . S
N2667 C2659 1.427 . S
N2667 C2665 1.384 . S
H2668 C2674 0.930 . S
H2669 C2678 0.930 . S
H2670 C2683 0.929 . S
H2671 C2681 0.929 . S
H2672 C2676 0.929 . S
H2673 C2682 0.929 . S
C2674 H2668 0.930 . S
C2674 C2675 1.367 . S
C2674 C2682 1.378 . S
C2675 C2674 1.367 . S
C2675 C2683 1.433 1_554 S
C2676 H2672 0.929 . S
C2676 C2678 1.378 . S
C2676 C2680 1.350 1_556 S
C2677 C2680 1.463 . S
C2677 C2682 1.350 . S
C2677 N2685 1.427 1_554 S
C2678 H2669 0.930 . S
C2678 C2676 1.378 . S
C2678 C2679 1.367 1_556 S
C2679 C2678 1.367 1_554 S
C2679 C2681 1.433 . S
C2680 C2676 1.350 1_554 S
C2680 C2677 1.463 . S
C2680 N2684 1.427 . S
C2681 H2671 0.929 . S
C2681 C2679 1.433 . S
C2681 N2684 1.384 . S
C2682 H2673 0.929 . S
C2682 C2674 1.378 . S
C2682 C2677 1.350 . S
C2683 H2670 0.929 . S
C2683 C2675 1.433 1_556 S
C2683 N2685 1.384 . S
N2684 C2680 1.427 . S
N2684 C2681 1.384 . S
N2685 C2677 1.427 1_556 S
N2685 C2683 1.384 . S
H2686 C2692 0.930 . S
H2687 C2696 0.930 . S
H2688 C2701 0.929 . S
H2689 C2699 0.929 . S
H2690 C2694 0.929 . S
H2691 C2700 0.929 . S
C2692 H2686 0.930 . S
C2692 C2693 1.367 1_556 S
C2692 C2700 1.378 . S
C2693 C2692 1.367 1_554 S
C2693 C2701 1.433 . S
C2694 H2690 0.929 . S
C2694 C2696 1.378 . S
C2694 C2698 1.350 . S
C2695 C2698 1.463 . S
C2695 C2700 1.350 1_554 S
C2695 N2703 1.427 . S
C2696 H2687 0.930 . S
C2696 C2694 1.378 . S
C2696 C2697 1.367 . S
C2697 C2696 1.367 . S
C2697 C2699 1.433 1_554 S
C2698 C2694 1.350 . S
C2698 C2695 1.463 . S
C2698 N2702 1.427 1_554 S
C2699 H2689 0.929 . S
C2699 C2697 1.433 1_556 S
C2699 N2702 1.384 . S
C2700 H2691 0.929 . S
C2700 C2692 1.378 . S
C2700 C2695 1.350 1_556 S
C2701 H2688 0.929 . S
C2701 C2693 1.433 . S
C2701 N2703 1.384 . S
N2702 C2698 1.427 1_556 S
N2702 C2699 1.384 . S
N2703 C2695 1.427 . S
N2703 C2701 1.384 . S
H2704 C2710 0.930 . S
H2705 C2714 0.930 . S
H2706 C2719 0.929 . S
H2707 C2717 0.929 . S
H2708 C2712 0.929 . S
H2709 C2718 0.929 . S
C2710 H2704 0.930 . S
C2710 C2711 1.367 . S
C2710 C2718 1.378 . S
C2711 C2710 1.367 . S
C2711 C2719 1.433 . S
C2712 H2708 0.929 . S
C2712 C2714 1.378 . S
C2712 C2716 1.350 . S
C2713 C2716 1.463 . S
C2713 C2718 1.350 . S
C2713 N2721 1.427 . S
C2714 H2705 0.930 . S
C2714 C2712 1.378 . S
C2714 C2715 1.367 . S
C2715 C2714 1.367 . S
C2715 C2717 1.433 . S
C2716 C2712 1.350 . S
C2716 C2713 1.463 . S
C2716 N2720 1.427 . S
C2717 H2707 0.929 . S
C2717 C2715 1.433 . S
C2717 N2720 1.384 . S
C2718 H2709 0.929 . S
C2718 C2710 1.378 . S
C2718 C2713 1.350 . S
C2719 H2706 0.929 . S
C2719 C2711 1.433 . S
C2719 N2721 1.384 . S
N2720 C2716 1.427 . S
N2720 C2717 1.384 . S
N2721 C2713 1.427 . S
N2721 C2719 1.384 . S
H2722 C2728 0.930 . S
H2723 C2732 0.930 . S
H2724 C2737 0.929 . S
H2725 C2735 0.929 . S
H2726 C2730 0.929 . S
H2727 C2736 0.929 . S
C2728 H2722 0.930 . S
C2728 C2729 1.367 . S
C2728 C2736 1.378 . S
C2729 C2728 1.367 . S
C2729 C2737 1.433 . S
C2730 H2726 0.929 . S
C2730 C2732 1.378 . S
C2730 C2734 1.350 . S
C2731 C2734 1.463 . S
C2731 C2736 1.350 . S
C2731 N2739 1.427 . S
C2732 H2723 0.930 . S
C2732 C2730 1.378 . S
C2732 C2733 1.367 . S
C2733 C2732 1.367 . S
C2733 C2735 1.433 . S
C2734 C2730 1.350 . S
C2734 C2731 1.463 . S
C2734 N2738 1.427 . S
C2735 H2725 0.929 . S
C2735 C2733 1.433 . S
C2735 N2738 1.384 . S
C2736 H2727 0.929 . S
C2736 C2728 1.378 . S
C2736 C2731 1.350 . S
C2737 H2724 0.929 . S
C2737 C2729 1.433 . S
C2737 N2739 1.384 . S
N2738 C2734 1.427 . S
N2738 C2735 1.384 . S
N2739 C2731 1.427 . S
N2739 C2737 1.384 . S
H2740 C2746 0.930 . S
H2741 C2750 0.930 . S
H2742 C2755 0.929 . S
H2743 C2753 0.929 . S
H2744 C2748 0.929 . S
H2745 C2754 0.929 . S
C2746 H2740 0.930 . S
C2746 C2747 1.367 . S
C2746 C2754 1.378 . S
C2747 C2746 1.367 . S
C2747 C2755 1.433 . S
C2748 H2744 0.929 . S
C2748 C2750 1.378 . S
C2748 C2752 1.350 . S
C2749 C2752 1.463 . S
C2749 C2754 1.350 . S
C2749 N2757 1.427 . S
C2750 H2741 0.930 . S
C2750 C2748 1.378 . S
C2750 C2751 1.367 . S
C2751 C2750 1.367 . S
C2751 C2753 1.433 . S
C2752 C2748 1.350 . S
C2752 C2749 1.463 . S
C2752 N2756 1.427 . S
C2753 H2743 0.929 . S
C2753 C2751 1.433 . S
C2753 N2756 1.384 . S
C2754 H2745 0.929 . S
C2754 C2746 1.378 . S
C2754 C2749 1.350 . S
C2755 H2742 0.929 . S
C2755 C2747 1.433 . S
C2755 N2757 1.384 . S
N2756 C2752 1.427 . S
N2756 C2753 1.384 . S
N2757 C2749 1.427 . S
N2757 C2755 1.384 . S
H2758 C2764 0.930 . S
H2759 C2768 0.930 . S
H2760 C2773 0.929 . S
H2761 C2771 0.929 . S
H2762 C2766 0.929 . S
H2763 C2772 0.929 . S
C2764 H2758 0.930 . S
C2764 C2765 1.367 . S
C2764 C2772 1.378 . S
C2765 C2764 1.367 . S
C2765 C2773 1.433 . S
C2766 H2762 0.929 . S
C2766 C2768 1.378 . S
C2766 C2770 1.350 . S
C2767 C2770 1.463 . S
C2767 C2772 1.350 . S
C2767 N2775 1.427 . S
C2768 H2759 0.930 . S
C2768 C2766 1.378 . S
C2768 C2769 1.367 . S
C2769 C2768 1.367 . S
C2769 C2771 1.433 . S
C2770 C2766 1.350 . S
C2770 C2767 1.463 . S
C2770 N2774 1.427 . S
C2771 H2761 0.929 . S
C2771 C2769 1.433 . S
C2771 N2774 1.384 . S
C2772 H2763 0.929 . S
C2772 C2764 1.378 . S
C2772 C2767 1.350 . S
C2773 H2760 0.929 . S
C2773 C2765 1.433 . S
C2773 N2775 1.384 . S
N2774 C2770 1.427 . S
N2774 C2771 1.384 . S
N2775 C2767 1.427 . S
N2775 C2773 1.384 . S
H2776 C2782 0.930 . S
H2777 C2786 0.930 . S
H2778 C2791 0.929 . S
H2779 C2789 0.929 . S
H2780 C2784 0.929 . S
H2781 C2790 0.929 . S
C2782 H2776 0.930 . S
C2782 C2783 1.367 . S
C2782 C2790 1.378 . S
C2783 C2782 1.367 . S
C2783 C2791 1.433 . S
C2784 H2780 0.929 . S
C2784 C2786 1.378 . S
C2784 C2788 1.350 . S
C2785 C2788 1.463 . S
C2785 C2790 1.350 . S
C2785 N2793 1.427 . S
C2786 H2777 0.930 . S
C2786 C2784 1.378 . S
C2786 C2787 1.367 . S
C2787 C2786 1.367 . S
C2787 C2789 1.433 . S
C2788 C2784 1.350 . S
C2788 C2785 1.463 . S
C2788 N2792 1.427 . S
C2789 H2779 0.929 . S
C2789 C2787 1.433 . S
C2789 N2792 1.384 . S
C2790 H2781 0.929 . S
C2790 C2782 1.378 . S
C2790 C2785 1.350 . S
C2791 H2778 0.929 . S
C2791 C2783 1.433 . S
C2791 N2793 1.384 . S
N2792 C2788 1.427 . S
N2792 C2789 1.384 . S
N2793 C2785 1.427 . S
N2793 C2791 1.384 . S
H2794 C2800 0.930 . S
H2795 C2804 0.930 . S
H2796 C2809 0.929 . S
H2797 C2807 0.929 . S
H2798 C2802 0.929 . S
H2799 C2808 0.929 . S
C2800 H2794 0.930 . S
C2800 C2801 1.367 . S
C2800 C2808 1.378 . S
C2801 C2800 1.367 . S
C2801 C2809 1.433 . S
C2802 H2798 0.929 . S
C2802 C2804 1.378 . S
C2802 C2806 1.350 . S
C2803 C2806 1.463 . S
C2803 C2808 1.350 . S
C2803 N2811 1.427 . S
C2804 H2795 0.930 . S
C2804 C2802 1.378 . S
C2804 C2805 1.367 . S
C2805 C2804 1.367 . S
C2805 C2807 1.433 . S
C2806 C2802 1.350 . S
C2806 C2803 1.463 . S
C2806 N2810 1.427 . S
C2807 H2797 0.929 . S
C2807 C2805 1.433 . S
C2807 N2810 1.384 . S
C2808 H2799 0.929 . S
C2808 C2800 1.378 . S
C2808 C2803 1.350 . S
C2809 H2796 0.929 . S
C2809 C2801 1.433 . S
C2809 N2811 1.384 . S
N2810 C2806 1.427 . S
N2810 C2807 1.384 . S
N2811 C2803 1.427 . S
N2811 C2809 1.384 . S
H2812 C2818 0.930 . S
H2813 C2822 0.930 . S
H2814 C2827 0.929 . S
H2815 C2825 0.929 . S
H2816 C2820 0.929 . S
H2817 C2826 0.929 . S
C2818 H2812 0.930 . S
C2818 C2819 1.367 . S
C2818 C2826 1.378 . S
C2819 C2818 1.367 . S
C2819 C2827 1.433 . S
C2820 H2816 0.929 . S
C2820 C2822 1.378 . S
C2820 C2824 1.350 . S
C2821 C2824 1.463 . S
C2821 C2826 1.350 . S
C2821 N2829 1.427 . S
C2822 H2813 0.930 . S
C2822 C2820 1.378 . S
C2822 C2823 1.367 . S
C2823 C2822 1.367 . S
C2823 C2825 1.433 . S
C2824 C2820 1.350 . S
C2824 C2821 1.463 . S
C2824 N2828 1.427 . S
C2825 H2815 0.929 . S
C2825 C2823 1.433 . S
C2825 N2828 1.384 . S
C2826 H2817 0.929 . S
C2826 C2818 1.378 . S
C2826 C2821 1.350 . S
C2827 H2814 0.929 . S
C2827 C2819 1.433 . S
C2827 N2829 1.384 . S
N2828 C2824 1.427 . S
N2828 C2825 1.384 . S
N2829 C2821 1.427 . S
N2829 C2827 1.384 . S
H2830 C2836 0.930 . S
H2831 C2840 0.930 . S
H2832 C2845 0.929 . S
H2833 C2843 0.929 . S
H2834 C2838 0.929 . S
H2835 C2844 0.929 . S
C2836 H2830 0.930 . S
C2836 C2837 1.367 . S
C2836 C2844 1.378 . S
C2837 C2836 1.367 . S
C2837 C2845 1.433 . S
C2838 H2834 0.929 . S
C2838 C2840 1.378 . S
C2838 C2842 1.350 . S
C2839 C2842 1.463 . S
C2839 C2844 1.350 . S
C2839 N2847 1.427 . S
C2840 H2831 0.930 . S
C2840 C2838 1.378 . S
C2840 C2841 1.367 . S
C2841 C2840 1.367 . S
C2841 C2843 1.433 . S
C2842 C2838 1.350 . S
C2842 C2839 1.463 . S
C2842 N2846 1.427 . S
C2843 H2833 0.929 . S
C2843 C2841 1.433 . S
C2843 N2846 1.384 . S
C2844 H2835 0.929 . S
C2844 C2836 1.378 . S
C2844 C2839 1.350 . S
C2845 H2832 0.929 . S
C2845 C2837 1.433 . S
C2845 N2847 1.384 . S
N2846 C2842 1.427 . S
N2846 C2843 1.384 . S
N2847 C2839 1.427 . S
N2847 C2845 1.384 . S
C1703 C39 1.914 . S
C1707 C198 1.910 . S
C1721 C145 1.914 . S
C1725 C92 1.908 . S
C1739 C251 1.900 . S
C1743 C410 1.902 . S
C1757 C357 1.899 . S
C1761 C304 1.905 . S
C1775 C463 1.912 . S
C1779 C622 1.913 . S
C1793 C569 1.907 . S
C1797 C516 1.910 . S
C1811 C675 1.907 . S
C1815 C834 1.903 . S
C1829 C728 1.907 . S
C1833 C781 1.900 . S
C1847 C1046 1.914 . S
C1851 C887 1.911 . S
C1865 C940 1.908 . S
C1869 C993 1.914 . S
C1883 C1099 1.901 . S
C1887 C1258 1.902 . S
C1901 C1205 1.900 . S
C1905 C1152 1.907 . S
C1919 C1311 1.911 . S
C1923 C1470 1.907 . S
C1937 C1417 1.910 . S
C1941 C1364 1.907 . S
C1955 C1523 1.899 . S
C1959 C1682 1.906 . S
C1973 C1576 1.907 . S
C1977 C1629 1.900 . S
C1991 C658 1.509 . S
C1995 C22 1.511 . S
C2009 C75 1.510 . S
C2013 C1135 1.508 . S
C2027 C128 1.512 . S
C2031 C340 1.510 . S
C2045 C1665 1.508 . S
C2049 C181 1.510 . S
C2063 C234 1.509 . S
C2067 C446 1.511 . S
C2081 C923 1.512 . S
C2085 C287 1.510 . S
C2099 C1453 1.511 . S
C2103 C393 1.509 . S
C2117 C1559 1.511 . S
C2121 C499 1.512 . S
C2135 C764 1.509 . S
C2139 C552 1.511 . S
C2153 C1241 1.509 . S
C2157 C605 1.511 . S
C2171 C711 1.509 . S
C2175 C1347 1.510 . S
C2189 C1029 1.510 . S
C2193 C817 1.508 . S
C2207 C1506 1.510 . S
C2211 C870 1.511 . S
C2225 C1188 1.508 . S
C2229 C976 1.510 . S
C2243 C1294 1.511 . S
C2247 C1082 1.509 . S
C2261 C1400 1.512 . S
C2265 C1612 1.510 . S
C2279 C568 2.028 . S
C2283 C38 2.031 . S
C2297 C91 2.028 . S
C2301 C621 2.029 . S
C2315 C462 2.028 . S
C2319 C144 2.029 . S
C2333 C515 2.038 . S
C2337 C197 2.036 . S
C2351 C250 2.046 . S
C2355 C780 2.048 . S
C2369 C303 2.047 . S
C2373 C833 2.048 . S
C2387 C674 2.042 . S
C2391 C356 2.039 . S
C2405 C409 2.046 . S
C2409 C727 2.048 . S
C2423 C1416 2.037 . S
C2427 C886 2.033 . S
C2441 C1469 2.029 . S
C2445 C939 2.033 . S
C2459 C992 2.038 . S
C2463 C1310 2.034 . S
C2477 C1045 2.038 . S
C2481 C1363 2.035 . S
C2495 C1098 2.041 . S
C2499 C1628 2.039 . S
C2513 C1151 2.044 . S
C2517 C1681 2.040 . S
C2531 C1522 2.047 . S
C2535 C1204 2.048 . S
C2549 C1575 2.044 . S
C2553 C1257 2.047 . S
C2567 C29 1.553 . S
C2571 C1354 1.551 . S
C2585 C1301 1.552 . S
C2589 C82 1.550 . S
C2603 C135 1.550 . S
C2607 C1460 1.549 . S
C2621 C188 1.551 . S
C2625 C1407 1.549 . S
C2639 C241 1.553 . S
C2643 C1566 1.554 . S
C2657 C294 1.554 . S
C2661 C1513 1.553 . S
C2675 C1672 1.553 . S
C2679 C347 1.551 . S
C2693 C1619 1.551 . S
C2697 C400 1.553 . S
C2711 C930 1.550 . S
C2715 C453 1.552 . S
C2729 C877 1.550 . S
C2733 C506 1.552 . S
C2747 C559 1.549 . S
C2751 C1036 1.548 . S
C2765 C612 1.549 . S
C2769 C983 1.551 . S
C2783 C1142 1.551 . S
C2787 C665 1.552 . S
C2801 C718 1.554 . S
C2805 C1089 1.552 . S
C2819 C771 1.551 . S
C2823 C1248 1.552 . S
C2837 C824 1.554 . S
C2841 C1195 1.554 . S
