# Generated by pormake.
# Topology pem, (4)-cn, num edge types: 1
# Building blocks:
#     Node 0, Type 0, BuildingBlock: UXUYUI_clean_sbu_0, # of connection points: 4
#     Node 1, Type 0, BuildingBlock: UXUYUI_clean_sbu_0, # of connection points: 4
#     Node 2, Type 0, BuildingBlock: UXUYUI_clean_sbu_0, # of connection points: 4
#     Node 3, Type 0, BuildingBlock: UXUYUI_clean_sbu_0, # of connection points: 4
#     Node 4, Type 0, BuildingBlock: UXUYUI_clean_sbu_0, # of connection points: 4
#     Node 5, Type 0, BuildingBlock: UXUYUI_clean_sbu_0, # of connection points: 4
#     Node 6, Type 0, BuildingBlock: UXUYUI_clean_sbu_0, # of connection points: 4
#     Node 7, Type 0, BuildingBlock: UXUYUI_clean_sbu_0, # of connection points: 4
#     Node 8, Type 0, BuildingBlock: UXUYUI_clean_sbu_0, # of connection points: 4
#     Node 9, Type 0, BuildingBlock: UXUYUI_clean_sbu_0, # of connection points: 4
#     Node 10, Type 0, BuildingBlock: UXUYUI_clean_sbu_0, # of connection points: 4
#     Node 11, Type 0, BuildingBlock: UXUYUI_clean_sbu_0, # of connection points: 4
#     Node 12, Type 0, BuildingBlock: UXUYUI_clean_sbu_0, # of connection points: 4
#     Node 13, Type 0, BuildingBlock: UXUYUI_clean_sbu_0, # of connection points: 4
#     Node 14, Type 0, BuildingBlock: UXUYUI_clean_sbu_0, # of connection points: 4
#     Node 15, Type 0, BuildingBlock: UXUYUI_clean_sbu_0, # of connection points: 4
#     Node 16, Type 0, BuildingBlock: UXUYUI_clean_sbu_0, # of connection points: 4
#     Node 17, Type 0, BuildingBlock: UXUYUI_clean_sbu_0, # of connection points: 4
#     Node 18, Type 0, BuildingBlock: UXUYUI_clean_sbu_0, # of connection points: 4
#     Node 19, Type 0, BuildingBlock: UXUYUI_clean_sbu_0, # of connection points: 4
#     Node 20, Type 0, BuildingBlock: UXUYUI_clean_sbu_0, # of connection points: 4
#     Node 21, Type 0, BuildingBlock: UXUYUI_clean_sbu_0, # of connection points: 4
#     Node 22, Type 0, BuildingBlock: UXUYUI_clean_sbu_0, # of connection points: 4
#     Node 23, Type 0, BuildingBlock: UXUYUI_clean_sbu_0, # of connection points: 4
#     Node 24, Type 0, BuildingBlock: UXUYUI_clean_sbu_0, # of connection points: 4
#     Node 25, Type 0, BuildingBlock: UXUYUI_clean_sbu_0, # of connection points: 4
#     Node 26, Type 0, BuildingBlock: UXUYUI_clean_sbu_0, # of connection points: 4
#     Node 27, Type 0, BuildingBlock: UXUYUI_clean_sbu_0, # of connection points: 4
#     Node 28, Type 0, BuildingBlock: UXUYUI_clean_sbu_0, # of connection points: 4
#     Node 29, Type 0, BuildingBlock: UXUYUI_clean_sbu_0, # of connection points: 4
#     Node 30, Type 0, BuildingBlock: UXUYUI_clean_sbu_0, # of connection points: 4
#     Node 31, Type 0, BuildingBlock: UXUYUI_clean_sbu_0, # of connection points: 4
#     Edge 32, Type (0, 0), BuildingBlock: ZUJKAS_clean_linker_0, # of connection points: 2
#     Edge 33, Type (0, 0), BuildingBlock: ZUJKAS_clean_linker_0, # of connection points: 2
#     Edge 34, Type (0, 0), BuildingBlock: ZUJKAS_clean_linker_0, # of connection points: 2
#     Edge 35, Type (0, 0), BuildingBlock: ZUJKAS_clean_linker_0, # of connection points: 2
#     Edge 36, Type (0, 0), BuildingBlock: ZUJKAS_clean_linker_0, # of connection points: 2
#     Edge 37, Type (0, 0), BuildingBlock: ZUJKAS_clean_linker_0, # of connection points: 2
#     Edge 38, Type (0, 0), BuildingBlock: ZUJKAS_clean_linker_0, # of connection points: 2
#     Edge 39, Type (0, 0), BuildingBlock: ZUJKAS_clean_linker_0, # of connection points: 2
#     Edge 40, Type (0, 0), BuildingBlock: ZUJKAS_clean_linker_0, # of connection points: 2
#     Edge 41, Type (0, 0), BuildingBlock: ZUJKAS_clean_linker_0, # of connection points: 2
#     Edge 42, Type (0, 0), BuildingBlock: ZUJKAS_clean_linker_0, # of connection points: 2
#     Edge 43, Type (0, 0), BuildingBlock: ZUJKAS_clean_linker_0, # of connection points: 2
#     Edge 44, Type (0, 0), BuildingBlock: ZUJKAS_clean_linker_0, # of connection points: 2
#     Edge 45, Type (0, 0), BuildingBlock: ZUJKAS_clean_linker_0, # of connection points: 2
#     Edge 46, Type (0, 0), BuildingBlock: ZUJKAS_clean_linker_0, # of connection points: 2
#     Edge 47, Type (0, 0), BuildingBlock: ZUJKAS_clean_linker_0, # of connection points: 2
#     Edge 48, Type (0, 0), BuildingBlock: ZUJKAS_clean_linker_0, # of connection points: 2
#     Edge 49, Type (0, 0), BuildingBlock: ZUJKAS_clean_linker_0, # of connection points: 2
#     Edge 50, Type (0, 0), BuildingBlock: ZUJKAS_clean_linker_0, # of connection points: 2
#     Edge 51, Type (0, 0), BuildingBlock: ZUJKAS_clean_linker_0, # of connection points: 2
#     Edge 52, Type (0, 0), BuildingBlock: ZUJKAS_clean_linker_0, # of connection points: 2
#     Edge 53, Type (0, 0), BuildingBlock: ZUJKAS_clean_linker_0, # of connection points: 2
#     Edge 54, Type (0, 0), BuildingBlock: ZUJKAS_clean_linker_0, # of connection points: 2
#     Edge 55, Type (0, 0), BuildingBlock: ZUJKAS_clean_linker_0, # of connection points: 2
#     Edge 56, Type (0, 0), BuildingBlock: ZUJKAS_clean_linker_0, # of connection points: 2
#     Edge 57, Type (0, 0), BuildingBlock: ZUJKAS_clean_linker_0, # of connection points: 2
#     Edge 58, Type (0, 0), BuildingBlock: ZUJKAS_clean_linker_0, # of connection points: 2
#     Edge 59, Type (0, 0), BuildingBlock: ZUJKAS_clean_linker_0, # of connection points: 2
#     Edge 60, Type (0, 0), BuildingBlock: ZUJKAS_clean_linker_0, # of connection points: 2
#     Edge 61, Type (0, 0), BuildingBlock: ZUJKAS_clean_linker_0, # of connection points: 2
#     Edge 62, Type (0, 0), BuildingBlock: ZUJKAS_clean_linker_0, # of connection points: 2
#     Edge 63, Type (0, 0), BuildingBlock: ZUJKAS_clean_linker_0, # of connection points: 2
#     Edge 64, Type (0, 0), BuildingBlock: ZUJKAS_clean_linker_0, # of connection points: 2
#     Edge 65, Type (0, 0), BuildingBlock: ZUJKAS_clean_linker_0, # of connection points: 2
#     Edge 66, Type (0, 0), BuildingBlock: ZUJKAS_clean_linker_0, # of connection points: 2
#     Edge 67, Type (0, 0), BuildingBlock: ZUJKAS_clean_linker_0, # of connection points: 2
#     Edge 68, Type (0, 0), BuildingBlock: ZUJKAS_clean_linker_0, # of connection points: 2
#     Edge 69, Type (0, 0), BuildingBlock: ZUJKAS_clean_linker_0, # of connection points: 2
#     Edge 70, Type (0, 0), BuildingBlock: ZUJKAS_clean_linker_0, # of connection points: 2
#     Edge 71, Type (0, 0), BuildingBlock: ZUJKAS_clean_linker_0, # of connection points: 2
#     Edge 72, Type (0, 0), BuildingBlock: ZUJKAS_clean_linker_0, # of connection points: 2
#     Edge 73, Type (0, 0), BuildingBlock: ZUJKAS_clean_linker_0, # of connection points: 2
#     Edge 74, Type (0, 0), BuildingBlock: ZUJKAS_clean_linker_0, # of connection points: 2
#     Edge 75, Type (0, 0), BuildingBlock: ZUJKAS_clean_linker_0, # of connection points: 2
#     Edge 76, Type (0, 0), BuildingBlock: ZUJKAS_clean_linker_0, # of connection points: 2
#     Edge 77, Type (0, 0), BuildingBlock: ZUJKAS_clean_linker_0, # of connection points: 2
#     Edge 78, Type (0, 0), BuildingBlock: ZUJKAS_clean_linker_0, # of connection points: 2
#     Edge 79, Type (0, 0), BuildingBlock: ZUJKAS_clean_linker_0, # of connection points: 2
#     Edge 80, Type (0, 0), BuildingBlock: ZUJKAS_clean_linker_0, # of connection points: 2
#     Edge 81, Type (0, 0), BuildingBlock: ZUJKAS_clean_linker_0, # of connection points: 2
#     Edge 82, Type (0, 0), BuildingBlock: ZUJKAS_clean_linker_0, # of connection points: 2
#     Edge 83, Type (0, 0), BuildingBlock: ZUJKAS_clean_linker_0, # of connection points: 2
#     Edge 84, Type (0, 0), BuildingBlock: ZUJKAS_clean_linker_0, # of connection points: 2
#     Edge 85, Type (0, 0), BuildingBlock: ZUJKAS_clean_linker_0, # of connection points: 2
#     Edge 86, Type (0, 0), BuildingBlock: ZUJKAS_clean_linker_0, # of connection points: 2
#     Edge 87, Type (0, 0), BuildingBlock: ZUJKAS_clean_linker_0, # of connection points: 2
#     Edge 88, Type (0, 0), BuildingBlock: ZUJKAS_clean_linker_0, # of connection points: 2
#     Edge 89, Type (0, 0), BuildingBlock: ZUJKAS_clean_linker_0, # of connection points: 2
#     Edge 90, Type (0, 0), BuildingBlock: ZUJKAS_clean_linker_0, # of connection points: 2
#     Edge 91, Type (0, 0), BuildingBlock: ZUJKAS_clean_linker_0, # of connection points: 2
#     Edge 92, Type (0, 0), BuildingBlock: ZUJKAS_clean_linker_0, # of connection points: 2
#     Edge 93, Type (0, 0), BuildingBlock: ZUJKAS_clean_linker_0, # of connection points: 2
#     Edge 94, Type (0, 0), BuildingBlock: ZUJKAS_clean_linker_0, # of connection points: 2
#     Edge 95, Type (0, 0), BuildingBlock: ZUJKAS_clean_linker_0, # of connection points: 2
# Relax obj value: 0.135
# Max RMSD: 0.073
# Mean RMSD: 0.073
data_MOF--net-pem--node1-UXUYUI_clean_sbu_0--edge1-ZUJKAS_clean_linker_0
_symmetry_space_group_name_H-M    P1
_symmetry_Int_Tables_number       1
_symmetry_cell_setting            triclinic
loop_
_symmetry_equiv_pos_as_xyz
'x, y, z'
_cell_length_a     75.225027
_cell_length_b     74.907631
_cell_length_c     74.908578
_cell_angle_alpha  89.96206
_cell_angle_beta   89.998611
_cell_angle_gamma 89.96656
loop_
_atom_site_label
_atom_site_type_symbol
_atom_site_fract_x
_atom_site_fract_y
_atom_site_fract_z
_atom_type_partial_charge
Li0 Li 0.08146 0.12148 0.1067 0.0
Li1 Li 0.10135 0.09714 0.11968 0.0
Li2 Li 0.10866 0.11332 0.0905 0.0
Li3 Li 0.08458 0.09169 0.09157 0.0
C4 C 0.10378 0.13603 0.12869 0.0
N5 N 0.0936 0.16001 0.15479 0.0
C6 C 0.1054 0.13154 0.1467 0.0
C7 C 0.09753 0.15291 0.12394 0.0
C8 C 0.10006 0.14379 0.1597 0.0
C9 C 0.09227 0.16479 0.13734 0.0
C10 C 0.06446 0.08903 0.12794 0.0
C11 C 0.04802 0.06332 0.13829 0.0
N12 N 0.04254 0.07274 0.15279 0.0
C13 C 0.05856 0.09842 0.14292 0.0
C14 C 0.05907 0.0713 0.1256 0.0
C15 C 0.04755 0.08998 0.15534 0.0
C16 C 0.05566 0.1466 0.0949 0.0
N17 N 0.06289 0.13981 0.11013 0.0
C18 C 0.04388 0.15872 0.12768 0.0
C19 C 0.05698 0.14547 0.12637 0.0
C20 C 0.03648 0.16619 0.11212 0.0
C21 C 0.04256 0.15984 0.09557 0.0
H22 H 0.06 0.14173 0.08209 0.0
H23 H 0.0628 0.14022 0.13842 0.0
C24 C 0.12332 0.07163 0.13907 0.0
N25 N 0.10956 0.08334 0.14089 0.0
C26 C 0.12682 0.05867 0.15212 0.0
C27 C 0.10318 0.07107 0.16985 0.0
C28 C 0.10007 0.08369 0.15637 0.0
C29 C 0.11625 0.05777 0.16755 0.0
H30 H 0.13105 0.07158 0.12701 0.0
H31 H 0.08974 0.09348 0.15818 0.0
C32 C 0.08748 0.12217 0.06434 0.0
N33 N 0.09551 0.13504 0.03073 0.0
C34 C 0.08766 0.11063 0.0497 0.0
C35 C 0.0913 0.14027 0.0619 0.0
C36 C 0.09177 0.11739 0.03281 0.0
C37 C 0.09534 0.14651 0.04479 0.0
C38 C 0.11446 0.06947 0.09569 0.0
C39 C 0.12927 0.06368 0.08601 0.0
C40 C 0.10428 0.05699 0.10506 0.0
C41 C 0.13355 0.04553 0.08578 0.0
C42 C 0.10896 0.03896 0.1045 0.0
N43 N 0.12338 0.03364 0.09493 0.0
C44 C 0.13096 0.10745 0.06119 0.0
C45 C 0.1343 0.13696 0.0718 0.0
C46 C 0.14392 0.11024 0.04811 0.0
N47 N 0.12681 0.12046 0.07315 0.0
C48 C 0.14746 0.14036 0.05887 0.0
C49 C 0.15273 0.12675 0.04697 0.0
H50 H 0.12412 0.0948 0.0618 0.0
H51 H 0.13036 0.14735 0.08099 0.0
C52 C 0.05342 0.0765 0.08143 0.0
N53 N 0.07125 0.07484 0.07928 0.0
C54 C 0.04216 0.06307 0.07554 0.0
C55 C 0.0678 0.04724 0.06401 0.0
C56 C 0.07856 0.06105 0.07009 0.0
C57 C 0.04943 0.04796 0.06724 0.0
H58 H 0.04809 0.08787 0.08854 0.0
H59 H 0.09275 0.06043 0.06803 0.0
O60 O 0.10744 0.12365 0.11579 0.0
O61 O 0.07516 0.09726 0.11555 0.0
O62 O 0.08405 0.11569 0.08108 0.0
O63 O 0.11003 0.08722 0.09612 0.0
H64 H 0.11055 0.11868 0.15058 0.0
H65 H 0.09614 0.15657 0.11002 0.0
H66 H 0.10083 0.14036 0.1737 0.0
H67 H 0.08669 0.17762 0.13384 0.0
H68 H 0.04379 0.04963 0.1366 0.0
H69 H 0.06295 0.11188 0.1453 0.0
H70 H 0.06322 0.06369 0.11412 0.0
H71 H 0.04309 0.09711 0.16707 0.0
H72 H 0.03952 0.16296 0.14078 0.0
H73 H 0.03743 0.1652 0.08317 0.0
H74 H 0.13715 0.04892 0.14964 0.0
H75 H 0.09516 0.07158 0.18183 0.0
H76 H 0.08486 0.09657 0.05138 0.0
H77 H 0.09144 0.14934 0.07314 0.0
H78 H 0.09206 0.1086 0.02136 0.0
H79 H 0.09845 0.16046 0.04272 0.0
H80 H 0.13755 0.07306 0.0789 0.0
H81 H 0.09309 0.06126 0.11294 0.0
H82 H 0.14499 0.04091 0.07835 0.0
H83 H 0.10118 0.02921 0.11175 0.0
H84 H 0.14737 0.09927 0.03937 0.0
H85 H 0.15356 0.15343 0.05834 0.0
H86 H 0.02799 0.06432 0.07778 0.0
H87 H 0.07384 0.03585 0.05748 0.0
Li88 Li 0.17808 0.86176 0.3614 0.0
Li89 Li 0.16245 0.87495 0.33473 0.0
Li90 Li 0.15568 0.84324 0.34647 0.0
Li91 Li 0.1837 0.85079 0.33285 0.0
C92 C 0.15112 0.87368 0.37504 0.0
N93 N 0.15597 0.88641 0.40912 0.0
C94 C 0.15299 0.892 0.37792 0.0
C95 C 0.15114 0.86188 0.38946 0.0
C96 C 0.15538 0.89819 0.39532 0.0
C97 C 0.15376 0.86858 0.40661 0.0
C98 C 0.20421 0.87909 0.33463 0.0
C99 C 0.22307 0.88899 0.31054 0.0
N100 N 0.23764 0.88489 0.32048 0.0
C101 C 0.21938 0.87508 0.34465 0.0
C102 C 0.20606 0.88618 0.31746 0.0
C103 C 0.23616 0.87808 0.33724 0.0
C104 C 0.19307 0.85275 0.39523 0.0
N105 N 0.1905 0.86665 0.38382 0.0
C106 C 0.20848 0.88553 0.40238 0.0
C107 C 0.19781 0.88292 0.38722 0.0
C108 C 0.2118 0.87122 0.41412 0.0
C109 C 0.20359 0.85475 0.41051 0.0
H110 H 0.18703 0.84 0.39239 0.0
H111 H 0.19582 0.89375 0.37786 0.0
C112 C 0.13769 0.89348 0.3128 0.0
N113 N 0.15317 0.89524 0.32202 0.0
C114 C 0.13228 0.90672 0.30076 0.0
C115 C 0.15853 0.92362 0.30832 0.0
C116 C 0.16339 0.91009 0.32026 0.0
C117 C 0.14287 0.922 0.29814 0.0
H118 H 0.12996 0.88138 0.31418 0.0
H119 H 0.17567 0.91117 0.32769 0.0
C120 C 0.18148 0.81841 0.35187 0.0
N121 N 0.1845 0.78206 0.34613 0.0
C122 C 0.17729 0.81113 0.33523 0.0
C123 C 0.18739 0.80717 0.36556 0.0
C124 C 0.17886 0.79275 0.33259 0.0
C125 C 0.18878 0.78884 0.36241 0.0
C126 C 0.15866 0.84958 0.30364 0.0
C127 C 0.15196 0.8336 0.29671 0.0
C128 C 0.16326 0.86339 0.29195 0.0
C129 C 0.15022 0.83163 0.27825 0.0
C130 C 0.16132 0.86092 0.27358 0.0
N131 N 0.1549 0.84522 0.26716 0.0
C132 C 0.12433 0.82474 0.33608 0.0
C133 C 0.13842 0.81274 0.36161 0.0
C134 C 0.1109 0.81184 0.33709 0.0
N135 N 0.13757 0.82516 0.34841 0.0
C136 C 0.12556 0.79931 0.36286 0.0
C137 C 0.11116 0.79888 0.35078 0.0
H138 H 0.12386 0.83483 0.32575 0.0
H139 H 0.14909 0.81326 0.37126 0.0
C140 C 0.21592 0.83444 0.33031 0.0
N141 N 0.20321 0.84185 0.31977 0.0
C142 C 0.23139 0.8277 0.32287 0.0
C143 C 0.22084 0.83697 0.2938 0.0
C144 C 0.20543 0.84343 0.30185 0.0
C145 C 0.23397 0.82884 0.30438 0.0
H146 H 0.21409 0.83391 0.34461 0.0
H147 H 0.19549 0.84988 0.29379 0.0
O148 O 0.15109 0.86711 0.35812 0.0
O149 O 0.18767 0.87576 0.34147 0.0
O150 O 0.17976 0.83639 0.35488 0.0
O151 O 0.1599 0.85195 0.32175 0.0
H152 H 0.15317 0.90123 0.36679 0.0
H153 H 0.14994 0.84764 0.38732 0.0
H154 H 0.15714 0.9123 0.39783 0.0
H155 H 0.15447 0.85953 0.41783 0.0
H156 H 0.22468 0.89435 0.29722 0.0
H157 H 0.21824 0.86937 0.35786 0.0
H158 H 0.19451 0.88928 0.30947 0.0
H159 H 0.24801 0.87488 0.34479 0.0
H160 H 0.21463 0.89842 0.40445 0.0
H161 H 0.20543 0.84342 0.41929 0.0
H162 H 0.12022 0.90466 0.29316 0.0
H163 H 0.16696 0.93527 0.30718 0.0
H164 H 0.173 0.81958 0.32444 0.0
H165 H 0.19079 0.81248 0.37852 0.0
H166 H 0.17561 0.78699 0.31976 0.0
H167 H 0.19325 0.78 0.37292 0.0
H168 H 0.14805 0.8228 0.30546 0.0
H169 H 0.16856 0.8758 0.29695 0.0
H170 H 0.14509 0.81932 0.27275 0.0
H171 H 0.16494 0.87148 0.26442 0.0
H172 H 0.10013 0.81265 0.32758 0.0
H173 H 0.12699 0.78948 0.37333 0.0
H174 H 0.24103 0.82131 0.33151 0.0
H175 H 0.22246 0.83832 0.2795 0.0
Li176 Li 0.40787 0.91405 0.61974 0.0
Li177 Li 0.42414 0.88813 0.60485 0.0
Li178 Li 0.4244 0.91681 0.59188 0.0
Li179 Li 0.39725 0.89993 0.5896 0.0
C180 C 0.44958 0.91902 0.6145 0.0
N181 N 0.48118 0.93732 0.61036 0.0
C182 C 0.46451 0.91034 0.60756 0.0
C183 C 0.4507 0.93701 0.61932 0.0
C184 C 0.48037 0.91983 0.60559 0.0
C185 C 0.4668 0.94603 0.61713 0.0
C186 C 0.40162 0.87453 0.62504 0.0
C187 C 0.40859 0.8433 0.6274 0.0
N188 N 0.41383 0.84589 0.64458 0.0
C189 C 0.40666 0.87685 0.64283 0.0
C190 C 0.40207 0.85757 0.61738 0.0
C191 C 0.41273 0.86215 0.65253 0.0
C192 C 0.38424 0.933 0.64395 0.0
N193 N 0.40111 0.92681 0.64155 0.0
C194 C 0.4113 0.94447 0.66623 0.0
C195 C 0.41441 0.93184 0.65279 0.0
C196 C 0.39429 0.95199 0.66836 0.0
C197 C 0.3805 0.94556 0.65739 0.0
H198 H 0.37388 0.929 0.63477 0.0
H199 H 0.4277 0.92674 0.65075 0.0
C200 C 0.43967 0.85413 0.59582 0.0
N201 N 0.43926 0.86698 0.60865 0.0
C202 C 0.45099 0.83933 0.59741 0.0
C203 C 0.46115 0.85089 0.62564 0.0
C204 C 0.4497 0.86556 0.62343 0.0
C205 C 0.46214 0.83752 0.61242 0.0
H206 H 0.43116 0.85536 0.58427 0.0
H207 H 0.44923 0.87589 0.6335 0.0
C208 C 0.39613 0.94308 0.59433 0.0
N209 N 0.38788 0.97878 0.58928 0.0
C210 C 0.38786 0.94876 0.57856 0.0
C211 C 0.40015 0.95569 0.60751 0.0
C212 C 0.38383 0.96682 0.57626 0.0
C213 C 0.39588 0.97363 0.60472 0.0
C214 C 0.4199 0.89466 0.56128 0.0
C215 C 0.4118 0.9093 0.55305 0.0
C216 C 0.42728 0.88116 0.55073 0.0
C217 C 0.41108 0.91017 0.53445 0.0
C218 C 0.42627 0.88249 0.53215 0.0
N219 N 0.41825 0.89684 0.52446 0.0
C220 C 0.44994 0.92409 0.56572 0.0
C221 C 0.43599 0.94993 0.57739 0.0
C222 C 0.45617 0.93368 0.55107 0.0
N223 N 0.43892 0.93206 0.57772 0.0
C224 C 0.4418 0.96 0.56297 0.0
C225 C 0.45109 0.95155 0.54917 0.0
H226 H 0.45267 0.90996 0.56671 0.0
H227 H 0.42838 0.95627 0.58769 0.0
C228 C 0.36404 0.90826 0.57284 0.0
N229 N 0.37725 0.89588 0.57352 0.0
C230 C 0.34993 0.90648 0.56075 0.0
C231 C 0.36364 0.87967 0.54948 0.0
C232 C 0.37729 0.88177 0.56207 0.0
C233 C 0.34947 0.89203 0.5487 0.0
H234 H 0.3641 0.91927 0.58215 0.0
H235 H 0.38807 0.87222 0.56255 0.0
O236 O 0.4338 0.91009 0.616 0.0
O237 O 0.39813 0.88906 0.61465 0.0
O238 O 0.39991 0.92533 0.59704 0.0
O239 O 0.42074 0.89357 0.57954 0.0
H240 H 0.46379 0.8965 0.60352 0.0
H241 H 0.43921 0.94401 0.62443 0.0
H242 H 0.49201 0.9133 0.60018 0.0
H243 H 0.46784 0.95997 0.62071 0.0
H244 H 0.40993 0.83028 0.62134 0.0
H245 H 0.40643 0.88996 0.6489 0.0
H246 H 0.39842 0.85566 0.60353 0.0
H247 H 0.41696 0.86374 0.66624 0.0
H248 H 0.42226 0.94863 0.67462 0.0
H249 H 0.36717 0.95089 0.65851 0.0
H250 H 0.45127 0.82965 0.5867 0.0
H251 H 0.46913 0.85009 0.63763 0.0
H252 H 0.38451 0.93942 0.56812 0.0
H253 H 0.40703 0.95188 0.61952 0.0
H254 H 0.37746 0.97133 0.56412 0.0
H255 H 0.39906 0.98347 0.61478 0.0
H256 H 0.40633 0.91994 0.56098 0.0
H257 H 0.43379 0.86981 0.55678 0.0
H258 H 0.40486 0.92146 0.52796 0.0
H259 H 0.4319 0.87212 0.52384 0.0
H260 H 0.46366 0.9269 0.54074 0.0
H261 H 0.43829 0.97401 0.56215 0.0
H262 H 0.33933 0.91622 0.56128 0.0
H263 H 0.36443 0.86855 0.54033 0.0
Li264 Li 0.34908 0.13785 0.83899 0.0
Li265 Li 0.33081 0.15176 0.86466 0.0
Li266 Li 0.3287 0.16283 0.83484 0.0
Li267 Li 0.35489 0.1694 0.85175 0.0
C268 C 0.30698 0.13482 0.83595 0.0
N269 N 0.27411 0.12913 0.82047 0.0
C270 C 0.29148 0.14012 0.84478 0.0
C271 C 0.30575 0.12665 0.81922 0.0
C272 C 0.275 0.13712 0.83674 0.0
C273 C 0.28901 0.12388 0.81163 0.0
C274 C 0.35551 0.13545 0.8789 0.0
C275 C 0.34792 0.13429 0.91002 0.0
N276 N 0.34496 0.11645 0.90849 0.0
C277 C 0.35293 0.11703 0.87769 0.0
C278 C 0.35368 0.14408 0.89529 0.0
C279 C 0.34769 0.10762 0.89288 0.0
C280 C 0.37496 0.11749 0.81903 0.0
N281 N 0.35863 0.11704 0.82684 0.0
C282 C 0.35188 0.08973 0.8117 0.0
C283 C 0.34744 0.10313 0.82391 0.0
C284 C 0.36834 0.09015 0.80264 0.0
C285 C 0.38017 0.10407 0.80703 0.0
H286 H 0.38358 0.12881 0.82129 0.0
H287 H 0.33458 0.10293 0.83034 0.0
C288 C 0.3122 0.16029 0.89722 0.0
N289 N 0.31578 0.14671 0.8857 0.0
C290 C 0.30105 0.15768 0.91196 0.0
C291 C 0.29702 0.12712 0.9028 0.0
C292 C 0.30834 0.13032 0.88822 0.0
C293 C 0.29314 0.14094 0.91496 0.0
H294 H 0.31783 0.17328 0.89488 0.0
H295 H 0.31109 0.11972 0.87882 0.0
C296 C 0.3544 0.16652 0.8091 0.0
N297 N 0.35629 0.17799 0.77404 0.0
C298 C 0.35393 0.18475 0.8051 0.0
C299 C 0.35599 0.15414 0.79521 0.0
C300 C 0.35486 0.19028 0.78731 0.0
C301 C 0.35689 0.1602 0.77759 0.0
C302 C 0.33177 0.19512 0.8587 0.0
C303 C 0.33005 0.2062 0.84377 0.0
C304 C 0.33544 0.20275 0.87533 0.0
C305 C 0.33214 0.22463 0.84569 0.0
C306 C 0.33747 0.22123 0.87672 0.0
N307 N 0.33579 0.2317 0.86198 0.0
C308 C 0.29716 0.17985 0.82604 0.0
C309 C 0.31071 0.16517 0.8015 0.0
C310 C 0.28242 0.18414 0.81567 0.0
N311 N 0.31098 0.1707 0.81878 0.0
C312 C 0.29631 0.16927 0.79062 0.0
C313 C 0.28196 0.17883 0.79774 0.0
H314 H 0.29741 0.18341 0.84002 0.0
H315 H 0.32115 0.15682 0.79637 0.0
C316 C 0.3838 0.19189 0.8418 0.0
N317 N 0.37368 0.18674 0.85596 0.0
C318 C 0.39796 0.20376 0.84408 0.0
C319 C 0.39119 0.20501 0.87553 0.0
C320 C 0.37709 0.19311 0.87264 0.0
C321 C 0.40198 0.21031 0.86115 0.0
H322 H 0.38141 0.18624 0.8288 0.0
H323 H 0.36925 0.18852 0.88382 0.0
O324 O 0.32328 0.13807 0.84344 0.0
O325 O 0.35774 0.14527 0.86377 0.0
O326 O 0.3537 0.16081 0.82649 0.0
O327 O 0.33001 0.17696 0.85705 0.0
H328 H 0.29215 0.14681 0.85755 0.0
H329 H 0.31758 0.12293 0.81192 0.0
H330 H 0.26291 0.14125 0.84339 0.0
H331 H 0.28788 0.11771 0.79863 0.0
H332 H 0.34533 0.14098 0.92254 0.0
H333 H 0.35431 0.11021 0.86503 0.0
H334 H 0.35548 0.15838 0.89631 0.0
H335 H 0.34532 0.09339 0.89215 0.0
H336 H 0.34197 0.07968 0.80889 0.0
H337 H 0.3932 0.10494 0.80099 0.0
H338 H 0.29826 0.1689 0.92063 0.0
H339 H 0.29137 0.11394 0.90453 0.0
H340 H 0.3531 0.19457 0.8156 0.0
H341 H 0.3561 0.13999 0.7979 0.0
H342 H 0.3545 0.20435 0.78407 0.0
H343 H 0.35796 0.15074 0.76674 0.0
H344 H 0.32714 0.20071 0.83079 0.0
H345 H 0.3372 0.1945 0.88703 0.0
H346 H 0.33087 0.2333 0.8342 0.0
H347 H 0.34048 0.22724 0.88949 0.0
H348 H 0.2716 0.19164 0.82157 0.0
H349 H 0.29621 0.16468 0.77691 0.0
H350 H 0.40609 0.20727 0.83267 0.0
H351 H 0.39382 0.20975 0.88893 0.0
Li352 Li 0.0792 0.90618 0.41594 0.0
Li353 Li 0.10765 0.8923 0.4203 0.0
Li354 Li 0.09839 0.90578 0.38993 0.0
Li355 Li 0.0834 0.87841 0.40311 0.0
C356 C 0.10218 0.93536 0.41809 0.0
N357 N 0.10167 0.9711 0.42742 0.0
C358 C 0.10595 0.94058 0.43562 0.0
C359 C 0.09834 0.94841 0.40529 0.0
C360 C 0.10555 0.95868 0.44008 0.0
C361 C 0.09811 0.96638 0.41026 0.0
C362 C 0.08581 0.88374 0.447 0.0
C363 C 0.08962 0.86798 0.47487 0.0
N364 N 0.08966 0.88381 0.48374 0.0
C365 C 0.08598 0.89984 0.45642 0.0
C366 C 0.08771 0.86767 0.45632 0.0
C367 C 0.08789 0.8996 0.47496 0.0
C368 C 0.04785 0.90637 0.43394 0.0
N369 N 0.05982 0.91785 0.42663 0.0
C370 C 0.04214 0.94282 0.43486 0.0
C371 C 0.05704 0.93574 0.42649 0.0
C372 C 0.03001 0.93129 0.44328 0.0
C373 C 0.03276 0.91284 0.44241 0.0
H374 H 0.05014 0.89214 0.43327 0.0
H375 H 0.06633 0.94454 0.42004 0.0
C376 C 0.13784 0.90355 0.44049 0.0
N377 N 0.12742 0.88921 0.43664 0.0
C378 C 0.15236 0.90186 0.45206 0.0
C379 C 0.14526 0.87065 0.45563 0.0
C380 C 0.1308 0.87297 0.44406 0.0
C381 C 0.15632 0.88521 0.45976 0.0
H382 H 0.13523 0.91623 0.43415 0.0
H383 H 0.12244 0.86171 0.44076 0.0
C384 C 0.05707 0.90702 0.38849 0.0
N385 N 0.02427 0.92313 0.38432 0.0
C386 C 0.0415 0.89741 0.39187 0.0
C387 C 0.05595 0.92478 0.38287 0.0
C388 C 0.02505 0.9058 0.38972 0.0
C389 C 0.03925 0.93269 0.38086 0.0
C390 C 0.10815 0.8658 0.38678 0.0
C391 C 0.10373 0.8657 0.3687 0.0
C392 C 0.10913 0.84979 0.3963 0.0
C393 C 0.09963 0.84951 0.36053 0.0
C394 C 0.10504 0.83385 0.38761 0.0
N395 N 0.10019 0.8341 0.37013 0.0
C396 C 0.12112 0.92898 0.37008 0.0
C397 C 0.09456 0.92096 0.35516 0.0
C398 C 0.12514 0.94151 0.35679 0.0
N399 N 0.10585 0.91929 0.36925 0.0
C400 C 0.098 0.93342 0.34163 0.0
C401 C 0.11326 0.94422 0.34252 0.0
H402 H 0.12973 0.92766 0.38157 0.0
H403 H 0.0825 0.91313 0.35477 0.0
C404 C 0.06447 0.84697 0.4124 0.0
N405 N 0.06917 0.85721 0.39819 0.0
C406 C 0.0523 0.833 0.41049 0.0
C407 C 0.05021 0.83987 0.37912 0.0
C408 C 0.06209 0.85406 0.38177 0.0
C409 C 0.04485 0.82917 0.39365 0.0
H410 H 0.06962 0.85009 0.42545 0.0
H411 H 0.06532 0.86282 0.37077 0.0
O412 O 0.10289 0.9177 0.41335 0.0
O413 O 0.08445 0.88366 0.42873 0.0
O414 O 0.07331 0.89916 0.39097 0.0
O415 O 0.10984 0.88164 0.3955 0.0
H416 H 0.10926 0.93082 0.44571 0.0
H417 H 0.09528 0.94476 0.39171 0.0
H418 H 0.10839 0.96286 0.4536 0.0
H419 H 0.09504 0.97656 0.40049 0.0
H420 H 0.09117 0.85563 0.4822 0.0
H421 H 0.08469 0.9124 0.44955 0.0
H422 H 0.08809 0.85506 0.44932 0.0
H423 H 0.08802 0.91199 0.48238 0.0
H424 H 0.0406 0.95718 0.43545 0.0
H425 H 0.02361 0.90357 0.44863 0.0
H426 H 0.16063 0.9134 0.45464 0.0
H427 H 0.14768 0.8576 0.46137 0.0
H428 H 0.04209 0.88371 0.39641 0.0
H429 H 0.06783 0.93247 0.38032 0.0
H430 H 0.0129 0.89857 0.39243 0.0
H431 H 0.0382 0.94646 0.37663 0.0
H432 H 0.10279 0.87806 0.36126 0.0
H433 H 0.11241 0.84976 0.41036 0.0
H434 H 0.09563 0.84923 0.34667 0.0
H435 H 0.1054 0.82133 0.39481 0.0
H436 H 0.13703 0.94953 0.3581 0.0
H437 H 0.08866 0.93473 0.33071 0.0
H438 H 0.04836 0.82578 0.42234 0.0
H439 H 0.04518 0.83755 0.3658 0.0
Li440 Li 0.33377 0.84055 0.66924 0.0
Li441 Li 0.35988 0.83489 0.652 0.0
Li442 Li 0.35307 0.86606 0.66417 0.0
Li443 Li 0.33448 0.85164 0.64026 0.0
C444 C 0.36059 0.84101 0.69528 0.0
N445 N 0.36558 0.83632 0.73159 0.0
C446 C 0.36634 0.82455 0.70197 0.0
C447 C 0.35754 0.85512 0.70712 0.0
C448 C 0.36871 0.82243 0.72035 0.0
C449 C 0.3601 0.85248 0.7254 0.0
C450 C 0.33627 0.80815 0.64905 0.0
C451 C 0.33443 0.7784 0.63683 0.0
N452 N 0.33851 0.77152 0.65312 0.0
C453 C 0.34047 0.80075 0.66564 0.0
C454 C 0.33324 0.79687 0.6345 0.0
C455 C 0.34152 0.78223 0.66746 0.0
C456 C 0.30296 0.82285 0.67557 0.0
N457 N 0.31621 0.83117 0.68464 0.0
C458 C 0.29984 0.82923 0.71183 0.0
C459 C 0.315 0.83439 0.70245 0.0
C460 C 0.28589 0.82087 0.70265 0.0
C461 C 0.28768 0.81745 0.68436 0.0
H462 H 0.30393 0.82108 0.6613 0.0
H463 H 0.3253 0.84162 0.70928 0.0
C464 C 0.39151 0.8168 0.66041 0.0
N465 N 0.37875 0.81836 0.64767 0.0
C466 C 0.40595 0.80537 0.65789 0.0
C467 C 0.39361 0.79686 0.62936 0.0
C468 C 0.3794 0.80854 0.63243 0.0
C469 C 0.4073 0.79538 0.64208 0.0
H470 H 0.39082 0.82491 0.6723 0.0
H471 H 0.36905 0.80999 0.62251 0.0
C472 C 0.3118 0.86833 0.6704 0.0
N473 N 0.28067 0.87392 0.68919 0.0
C474 C 0.29546 0.86339 0.66302 0.0
C475 C 0.31228 0.87624 0.68729 0.0
C476 C 0.27988 0.86629 0.67274 0.0
C477 C 0.2964 0.87894 0.69658 0.0
C478 C 0.35794 0.86555 0.62303 0.0
C479 C 0.35251 0.88329 0.62143 0.0
C480 C 0.3578 0.85432 0.60816 0.0
C481 C 0.34597 0.88925 0.60508 0.0
C482 C 0.35129 0.86084 0.59198 0.0
N483 N 0.34525 0.87791 0.59091 0.0
C484 C 0.37861 0.88687 0.6831 0.0
C485 C 0.35143 0.90151 0.67659 0.0
C486 C 0.38337 0.9004 0.69508 0.0
N487 N 0.36254 0.88733 0.67474 0.0
C488 C 0.35556 0.91519 0.68855 0.0
C489 C 0.37134 0.91432 0.69856 0.0
H490 H 0.38707 0.87529 0.6816 0.0
H491 H 0.33877 0.90157 0.66977 0.0
C492 C 0.31464 0.84263 0.60877 0.0
N493 N 0.31848 0.85613 0.62025 0.0
C494 C 0.30258 0.84521 0.59477 0.0
C495 C 0.29864 0.87564 0.60448 0.0
C496 C 0.31044 0.87232 0.61856 0.0
C497 C 0.29437 0.86196 0.5923 0.0
H498 H 0.3209 0.82979 0.61053 0.0
H499 H 0.31338 0.88278 0.62806 0.0
O500 O 0.3587 0.84352 0.67724 0.0
O501 O 0.3357 0.82632 0.64683 0.0
O502 O 0.32725 0.86515 0.66128 0.0
O503 O 0.3613 0.85867 0.63949 0.0
H504 H 0.36907 0.81349 0.69312 0.0
H505 H 0.35289 0.86788 0.70237 0.0
H506 H 0.37312 0.80975 0.72566 0.0
H507 H 0.35767 0.86327 0.73468 0.0
H508 H 0.33217 0.76954 0.62566 0.0
H509 H 0.34284 0.80921 0.67702 0.0
H510 H 0.33021 0.80228 0.62147 0.0
H511 H 0.34475 0.77637 0.68026 0.0
H512 H 0.29884 0.8322 0.72594 0.0
H513 H 0.27734 0.81076 0.67686 0.0
H514 H 0.41599 0.80445 0.6682 0.0
H515 H 0.39413 0.7895 0.61693 0.0
H516 H 0.29482 0.85704 0.65007 0.0
H517 H 0.32477 0.88004 0.6933 0.0
H518 H 0.26717 0.86236 0.66726 0.0
H519 H 0.2966 0.88493 0.70971 0.0
H520 H 0.35244 0.89203 0.63293 0.0
H521 H 0.36187 0.84051 0.60932 0.0
H522 H 0.34101 0.90274 0.60377 0.0
H523 H 0.3506 0.85222 0.58042 0.0
H524 H 0.39566 0.89927 0.70253 0.0
H525 H 0.3461 0.92589 0.69061 0.0
H526 H 0.29953 0.83398 0.58625 0.0
H527 H 0.29308 0.88889 0.60321 0.0
Li528 Li 0.40231 0.10417 0.90947 0.0
Li529 Li 0.42957 0.08777 0.9035 0.0
Li530 Li 0.42589 0.1169 0.8905 0.0
Li531 Li 0.40871 0.09081 0.87876 0.0
C532 C 0.4274 0.1147 0.93393 0.0
N533 N 0.42861 0.12278 0.96997 0.0
C534 C 0.43045 0.10125 0.94653 0.0
C535 C 0.42529 0.13232 0.93974 0.0
C536 C 0.43093 0.10558 0.96466 0.0
C537 C 0.42584 0.13612 0.95798 0.0
C538 C 0.40383 0.06322 0.9123 0.0
C539 C 0.40152 0.03113 0.9146 0.0
N540 N 0.40143 0.03249 0.9327 0.0
C541 C 0.40359 0.06424 0.93093 0.0
C542 C 0.40268 0.04649 0.90406 0.0
C543 C 0.40242 0.04859 0.941 0.0
C544 C 0.37188 0.09513 0.93016 0.0
N545 N 0.38368 0.10849 0.92678 0.0
C546 C 0.36887 0.12742 0.94787 0.0
C547 C 0.38225 0.1245 0.93523 0.0
C548 C 0.35636 0.11395 0.95138 0.0
C549 C 0.35815 0.09754 0.9425 0.0
H550 H 0.37277 0.08272 0.92289 0.0
H551 H 0.3911 0.13527 0.93179 0.0
C552 C 0.46188 0.08475 0.91874 0.0
N553 N 0.44818 0.07438 0.91313 0.0
C554 C 0.4762 0.07717 0.92763 0.0
C555 C 0.4626 0.04815 0.92365 0.0
C556 C 0.44849 0.05634 0.91486 0.0
C557 C 0.47645 0.05869 0.93049 0.0
H558 H 0.46135 0.09905 0.91679 0.0
H559 H 0.43783 0.04832 0.90964 0.0
C560 C 0.39993 0.13174 0.87753 0.0
N561 N 0.40664 0.1645 0.86236 0.0
C562 C 0.39998 0.13355 0.85899 0.0
C563 C 0.40255 0.14663 0.88838 0.0
C564 C 0.40321 0.15033 0.85155 0.0
C565 C 0.4063 0.16302 0.88046 0.0
C566 C 0.44382 0.08301 0.86879 0.0
C567 C 0.45754 0.08863 0.85756 0.0
C568 C 0.43941 0.06493 0.86967 0.0
C569 C 0.46663 0.07599 0.84732 0.0
C570 C 0.4488 0.0527 0.85923 0.0
N571 N 0.4621 0.05843 0.84836 0.0
C572 C 0.44968 0.14486 0.89909 0.0
C573 C 0.44432 0.14343 0.86804 0.0
C574 C 0.46138 0.15913 0.89678 0.0
N575 N 0.44108 0.13748 0.88493 0.0
C576 C 0.4558 0.15795 0.86511 0.0
C577 C 0.4646 0.16592 0.87963 0.0
H578 H 0.44788 0.13938 0.91224 0.0
H579 H 0.43817 0.13683 0.85681 0.0
C580 C 0.38684 0.06484 0.8627 0.0
N581 N 0.39904 0.07761 0.85877 0.0
C582 C 0.38235 0.05178 0.85013 0.0
C583 C 0.4013 0.06659 0.82882 0.0
C584 C 0.40586 0.07906 0.84202 0.0
C585 C 0.38997 0.05211 0.83294 0.0
H586 H 0.38133 0.06414 0.87601 0.0
H587 H 0.41544 0.08942 0.8391 0.0
O588 O 0.42693 0.11077 0.91603 0.0
O589 O 0.40488 0.07849 0.90221 0.0
O590 O 0.3989 0.11523 0.88504 0.0
O591 O 0.43462 0.09526 0.87867 0.0
H592 H 0.43251 0.0876 0.94245 0.0
H593 H 0.4229 0.14298 0.93028 0.0
H594 H 0.43321 0.09526 0.97451 0.0
H595 H 0.42403 0.14968 0.9626 0.0
H596 H 0.40075 0.01813 0.90837 0.0
H597 H 0.40401 0.07699 0.93759 0.0
H598 H 0.40299 0.04524 0.88971 0.0
H599 H 0.40221 0.04925 0.95543 0.0
H600 H 0.36778 0.1404 0.95413 0.0
H601 H 0.34885 0.08676 0.94483 0.0
H602 H 0.4866 0.08574 0.93277 0.0
H603 H 0.46259 0.03378 0.92526 0.0
H604 H 0.39811 0.12202 0.85052 0.0
H605 H 0.4027 0.14532 0.90276 0.0
H606 H 0.40354 0.152 0.83721 0.0
H607 H 0.40925 0.17449 0.88869 0.0
H608 H 0.46107 0.10261 0.85671 0.0
H609 H 0.42879 0.06042 0.87825 0.0
H610 H 0.47726 0.08013 0.83852 0.0
H611 H 0.44548 0.03866 0.85976 0.0
H612 H 0.46796 0.16474 0.90835 0.0
H613 H 0.4582 0.16252 0.8516 0.0
H614 H 0.37365 0.04111 0.85436 0.0
H615 H 0.40702 0.06816 0.81567 0.0
Li616 Li 0.15231 0.15868 0.13896 0.0
Li617 Li 0.1761 0.15829 0.16067 0.0
Li618 Li 0.17907 0.14163 0.13183 0.0
Li619 Li 0.15889 0.13041 0.15604 0.0
C620 C 0.17405 0.18337 0.12766 0.0
N621 N 0.16715 0.21538 0.11066 0.0
C622 C 0.17358 0.19926 0.13742 0.0
C623 C 0.17111 0.18377 0.10923 0.0
C624 C 0.17003 0.2153 0.12858 0.0
C625 C 0.16764 0.20009 0.10088 0.0
C626 C 0.14661 0.15426 0.18303 0.0
C627 C 0.15335 0.14546 0.21328 0.0
N628 N 0.13847 0.15401 0.21903 0.0
C629 C 0.13137 0.16297 0.18927 0.0
C630 C 0.15768 0.14545 0.19516 0.0
C631 C 0.12749 0.16268 0.2075 0.0
C632 C 0.13081 0.18788 0.1449 0.0
N633 N 0.13491 0.17629 0.13157 0.0
C634 C 0.11635 0.19266 0.11127 0.0
C635 C 0.12834 0.17868 0.11479 0.0
C636 C 0.11137 0.20442 0.12508 0.0
C637 C 0.11899 0.20192 0.14201 0.0
H638 H 0.13697 0.18637 0.15782 0.0
H639 H 0.13229 0.16971 0.10422 0.0
C640 C 0.20646 0.17293 0.17546 0.0
N641 N 0.18844 0.17277 0.17636 0.0
C642 C 0.21608 0.185 0.18574 0.0
C643 C 0.18829 0.1963 0.19761 0.0
C644 C 0.17925 0.18423 0.18695 0.0
C645 C 0.20688 0.19683 0.19691 0.0
H646 H 0.21327 0.16395 0.16645 0.0
H647 H 0.16492 0.1845 0.18662 0.0
C648 C 0.15628 0.1201 0.11732 0.0
N649 N 0.16578 0.0936 0.09348 0.0
C650 C 0.15499 0.10216 0.1222 0.0
C651 C 0.16191 0.12456 0.10015 0.0
C652 C 0.15995 0.08896 0.11 0.0
C653 C 0.16682 0.11097 0.08834 0.0
C654 C 0.19643 0.12208 0.16446 0.0
C655 C 0.20122 0.10637 0.15566 0.0
C656 C 0.20357 0.12569 0.18132 0.0
C657 C 0.21285 0.0944 0.16393 0.0
C658 C 0.21518 0.11341 0.18915 0.0
N659 N 0.21953 0.09813 0.18037 0.0
C660 C 0.20573 0.15152 0.10725 0.0
C661 C 0.20177 0.12022 0.10793 0.0
C662 C 0.21801 0.15001 0.09336 0.0
N663 N 0.19737 0.13683 0.1139 0.0
C664 C 0.21374 0.1181 0.09378 0.0
C665 C 0.22186 0.13316 0.0862 0.0
H666 H 0.20281 0.16455 0.1126 0.0
H667 H 0.19537 0.10861 0.11349 0.0
C668 C 0.13524 0.11277 0.18076 0.0
N669 N 0.14963 0.11021 0.17003 0.0
C670 C 0.13079 0.10036 0.194 0.0
C671 C 0.15441 0.0815 0.18332 0.0
C672 C 0.15874 0.09455 0.17069 0.0
C673 C 0.14079 0.0846 0.1959 0.0
H674 H 0.12768 0.12492 0.17979 0.0
H675 H 0.16959 0.09222 0.16162 0.0
O676 O 0.17695 0.16744 0.13616 0.0
O677 O 0.15065 0.15439 0.16519 0.0
O678 O 0.15294 0.13321 0.12957 0.0
O679 O 0.18518 0.13406 0.15645 0.0
H680 H 0.17573 0.19919 0.15168 0.0
H681 H 0.17121 0.17157 0.1015 0.0
H682 H 0.16951 0.22768 0.13599 0.0
H683 H 0.16522 0.20058 0.08666 0.0
H684 H 0.16179 0.13861 0.22277 0.0
H685 H 0.12254 0.16978 0.18015 0.0
H686 H 0.16934 0.13846 0.19056 0.0
H687 H 0.11572 0.16933 0.21248 0.0
H688 H 0.11103 0.19422 0.09793 0.0
H689 H 0.1156 0.21052 0.15312 0.0
H690 H 0.23045 0.18525 0.18487 0.0
H691 H 0.18084 0.20561 0.20576 0.0
H692 H 0.15043 0.0985 0.13533 0.0
H693 H 0.1633 0.13841 0.09629 0.0
H694 H 0.15941 0.07502 0.11373 0.0
H695 H 0.17215 0.11424 0.07537 0.0
H696 H 0.19562 0.10317 0.14282 0.0
H697 H 0.20027 0.13785 0.18833 0.0
H698 H 0.21649 0.0821 0.15731 0.0
H699 H 0.22075 0.11603 0.2022 0.0
H700 H 0.22414 0.16195 0.08801 0.0
H701 H 0.2166 0.10484 0.0888 0.0
H702 H 0.12007 0.10362 0.20304 0.0
H703 H 0.162 0.06924 0.18327 0.0
Li704 Li 0.60281 0.40126 0.9165 0.0
Li705 Li 0.57532 0.41523 0.9075 0.0
Li706 Li 0.58091 0.38686 0.89699 0.0
Li707 Li 0.59817 0.41296 0.88465 0.0
C708 C 0.5767 0.3959 0.94032 0.0
N709 N 0.57402 0.40096 0.9768 0.0
C710 C 0.57864 0.41294 0.94762 0.0
C711 C 0.5734 0.38141 0.95163 0.0
C712 C 0.57723 0.41524 0.96607 0.0
C713 C 0.5721 0.38424 0.97001 0.0
C714 C 0.59903 0.44434 0.91041 0.0
C715 C 0.59549 0.47434 0.89917 0.0
N716 N 0.5996 0.48091 0.91557 0.0
C717 C 0.60334 0.45142 0.92714 0.0
C718 C 0.59517 0.45593 0.89629 0.0
C719 C 0.60349 0.46992 0.92949 0.0
C720 C 0.63189 0.41263 0.93768 0.0
N721 N 0.6202 0.39902 0.93521 0.0
C722 C 0.63323 0.38279 0.9595 0.0
C723 C 0.6206 0.38428 0.94583 0.0
C724 C 0.64565 0.39658 0.96227 0.0
C725 C 0.64475 0.4117 0.95114 0.0
H726 H 0.63154 0.42407 0.92888 0.0
H727 H 0.61119 0.37361 0.94362 0.0
C728 C 0.54259 0.41814 0.92319 0.0
N729 N 0.55497 0.42827 0.91475 0.0
C730 C 0.52695 0.42576 0.92934 0.0
C731 C 0.53625 0.45389 0.91656 0.0
C732 C 0.55188 0.44571 0.91085 0.0
C733 C 0.52376 0.44397 0.92636 0.0
H734 H 0.54487 0.40405 0.92523 0.0
H735 H 0.56134 0.45327 0.90318 0.0
C736 C 0.60724 0.37262 0.88575 0.0
N737 N 0.60006 0.33956 0.87159 0.0
C738 C 0.60518 0.37069 0.86733 0.0
C739 C 0.6064 0.3577 0.89691 0.0
C740 C 0.60151 0.35381 0.86042 0.0
C741 C 0.60269 0.34107 0.88947 0.0
C742 C 0.55718 0.41418 0.87714 0.0
C743 C 0.5412 0.40553 0.88113 0.0
C744 C 0.55689 0.43039 0.8679 0.0
C745 C 0.52515 0.4134 0.87602 0.0
C746 C 0.54056 0.43782 0.863 0.0
N747 N 0.52516 0.42925 0.86715 0.0
C748 C 0.56314 0.35394 0.90453 0.0
C749 C 0.56154 0.36257 0.8742 0.0
C750 C 0.55219 0.3392 0.90128 0.0
N751 N 0.56759 0.36531 0.8911 0.0
C752 C 0.55074 0.34785 0.87028 0.0
C753 C 0.54563 0.33599 0.88397 0.0
H754 H 0.56788 0.35647 0.91788 0.0
H755 H 0.56495 0.37195 0.86376 0.0
C756 C 0.62215 0.43703 0.86759 0.0
N757 N 0.60894 0.42496 0.86471 0.0
C758 C 0.62703 0.44909 0.85415 0.0
C759 C 0.60603 0.43475 0.83449 0.0
C760 C 0.60135 0.4232 0.84837 0.0
C761 C 0.61847 0.44852 0.83745 0.0
H762 H 0.62799 0.43817 0.88074 0.0
H763 H 0.59095 0.41343 0.84638 0.0
O764 O 0.57854 0.39322 0.9223 0.0
O765 O 0.59935 0.42623 0.9077 0.0
O766 O 0.60825 0.38922 0.893 0.0
O767 O 0.57301 0.40688 0.88239 0.0
H768 H 0.58107 0.42429 0.93915 0.0
H769 H 0.57206 0.36806 0.94633 0.0
H770 H 0.57868 0.42839 0.97184 0.0
H771 H 0.56961 0.37312 0.9789 0.0
H772 H 0.5924 0.48342 0.88836 0.0
H773 H 0.6066 0.44277 0.93823 0.0
H774 H 0.5916 0.45079 0.88332 0.0
H775 H 0.60676 0.47554 0.94238 0.0
H776 H 0.63321 0.37098 0.96783 0.0
H777 H 0.65419 0.42252 0.95247 0.0
H778 H 0.51783 0.41756 0.93693 0.0
H779 H 0.5341 0.46788 0.91358 0.0
H780 H 0.60572 0.38219 0.85859 0.0
H781 H 0.60783 0.35912 0.91122 0.0
H782 H 0.59941 0.3521 0.84624 0.0
H783 H 0.60148 0.32944 0.89795 0.0
H784 H 0.54118 0.39304 0.88838 0.0
H785 H 0.56911 0.43726 0.86467 0.0
H786 H 0.51268 0.40694 0.87917 0.0
H787 H 0.54013 0.45041 0.85594 0.0
H788 H 0.54845 0.3308 0.91241 0.0
H789 H 0.54634 0.34592 0.85667 0.0
H790 H 0.63666 0.45935 0.85725 0.0
H791 H 0.5995 0.43316 0.82172 0.0
Li792 Li 0.83138 0.34509 0.16379 0.0
Li793 Li 0.85674 0.3451 0.14487 0.0
Li794 Li 0.8481 0.37295 0.16285 0.0
Li795 Li 0.8298 0.36145 0.13617 0.0
C796 C 0.85763 0.34102 0.18772 0.0
N797 N 0.86061 0.32463 0.22071 0.0
C798 C 0.85678 0.32242 0.18915 0.0
C799 C 0.85999 0.35125 0.20316 0.0
C800 C 0.85831 0.31439 0.20592 0.0
C801 C 0.86147 0.34273 0.21969 0.0
C802 C 0.83652 0.31904 0.13261 0.0
C803 C 0.8448 0.3002 0.10782 0.0
N804 N 0.84489 0.2858 0.11888 0.0
C805 C 0.83662 0.30402 0.14369 0.0
C806 C 0.84059 0.31709 0.11449 0.0
C807 C 0.84091 0.28735 0.13652 0.0
C808 C 0.80277 0.32295 0.17017 0.0
N809 N 0.81574 0.33222 0.17873 0.0
C810 C 0.80133 0.32815 0.20675 0.0
C811 C 0.81529 0.3349 0.19667 0.0
C812 C 0.78756 0.31899 0.19816 0.0
C813 C 0.78845 0.31614 0.17971 0.0
H814 H 0.80306 0.32171 0.1558 0.0
H815 H 0.82498 0.34333 0.20304 0.0
C816 C 0.88525 0.32115 0.15115 0.0
N817 N 0.87666 0.32972 0.13766 0.0
C818 C 0.89833 0.3084 0.14761 0.0
C819 C 0.89439 0.31386 0.11615 0.0
C820 C 0.8811 0.32638 0.12035 0.0
C821 C 0.90325 0.30466 0.12992 0.0
H822 H 0.88214 0.32427 0.16478 0.0
H823 H 0.87413 0.33318 0.10977 0.0
C824 C 0.80674 0.37009 0.16932 0.0
N825 N 0.77528 0.36942 0.18841 0.0
C826 C 0.791 0.36445 0.16115 0.0
C827 C 0.80646 0.37534 0.18723 0.0
C828 C 0.77524 0.36421 0.17102 0.0
C829 C 0.79043 0.37494 0.19664 0.0
C830 C 0.85189 0.3856 0.12573 0.0
C831 C 0.85281 0.40297 0.13247 0.0
C832 C 0.84575 0.38286 0.10839 0.0
C833 C 0.84678 0.41719 0.122 0.0
C834 C 0.83971 0.39739 0.09838 0.0
N835 N 0.84032 0.41412 0.10534 0.0
C836 C 0.87232 0.39341 0.18385 0.0
C837 C 0.84307 0.40503 0.18285 0.0
C838 C 0.87715 0.40591 0.19685 0.0
N839 N 0.8554 0.39286 0.17749 0.0
C840 C 0.84718 0.41746 0.19615 0.0
C841 C 0.8643 0.4177 0.20361 0.0
H842 H 0.8817 0.38336 0.17969 0.0
H843 H 0.8298 0.40462 0.17732 0.0
C844 C 0.80853 0.35653 0.10465 0.0
N845 N 0.81215 0.36803 0.1182 0.0
C846 C 0.79517 0.36035 0.09227 0.0
C847 C 0.78913 0.38776 0.10803 0.0
C848 C 0.80285 0.38353 0.11998 0.0
C849 C 0.78495 0.37599 0.094 0.0
H850 H 0.81583 0.34423 0.10353 0.0
H851 H 0.80583 0.39243 0.13095 0.0
O852 O 0.85639 0.34916 0.17134 0.0
O853 O 0.83257 0.33555 0.13945 0.0
O854 O 0.8224 0.36995 0.15999 0.0
O855 O 0.85565 0.37127 0.13646 0.0
H856 H 0.85499 0.31422 0.17744 0.0
H857 H 0.86038 0.36562 0.20253 0.0
H858 H 0.85766 0.30002 0.20716 0.0
H859 H 0.86323 0.35052 0.23171 0.0
H860 H 0.84817 0.29857 0.09388 0.0
H861 H 0.83337 0.30514 0.15768 0.0
H862 H 0.84111 0.32856 0.10575 0.0
H863 H 0.84107 0.27565 0.14498 0.0
H864 H 0.80083 0.33087 0.22095 0.0
H865 H 0.778 0.30909 0.1727 0.0
H866 H 0.90465 0.30164 0.1587 0.0
H867 H 0.89777 0.31152 0.10229 0.0
H868 H 0.79098 0.35993 0.14745 0.0
H869 H 0.81856 0.37918 0.19398 0.0
H870 H 0.763 0.35976 0.1649 0.0
H871 H 0.79007 0.37883 0.21053 0.0
H872 H 0.85786 0.4055 0.1457 0.0
H873 H 0.84476 0.36948 0.10311 0.0
H874 H 0.84709 0.43066 0.12718 0.0
H875 H 0.83419 0.39531 0.08522 0.0
H876 H 0.8905 0.40568 0.20227 0.0
H877 H 0.83701 0.42657 0.20081 0.0
H878 H 0.79283 0.351 0.0815 0.0
H879 H 0.78158 0.39989 0.11012 0.0
Li880 Li 0.90699 0.61115 0.40852 0.0
Li881 Li 0.93454 0.59528 0.40807 0.0
Li882 Li 0.93204 0.6216 0.3906 0.0
Li883 Li 0.91626 0.59281 0.38143 0.0
C884 C 0.92699 0.62554 0.43349 0.0
N885 N 0.9191 0.63728 0.46758 0.0
C886 C 0.92785 0.61376 0.44795 0.0
C887 C 0.92221 0.64335 0.43643 0.0
C888 C 0.92379 0.61993 0.46506 0.0
C889 C 0.91825 0.64901 0.45375 0.0
C890 C 0.91155 0.56809 0.41386 0.0
C891 C 0.9135 0.536 0.41132 0.0
N892 N 0.91325 0.53459 0.42941 0.0
C893 C 0.91135 0.56627 0.43246 0.0
C894 C 0.91269 0.55278 0.40322 0.0
C895 C 0.91222 0.54926 0.44005 0.0
C896 C 0.88053 0.60456 0.43469 0.0
N897 N 0.88748 0.61773 0.42434 0.0
C898 C 0.86972 0.63952 0.43967 0.0
C899 C 0.88218 0.63498 0.42647 0.0
C900 C 0.86274 0.62619 0.45093 0.0
C901 C 0.86834 0.6085 0.44821 0.0
H902 H 0.8844 0.59091 0.43248 0.0
H903 H 0.88801 0.64529 0.41828 0.0
C904 C 0.96502 0.59636 0.42761 0.0
N905 N 0.9529 0.58441 0.42146 0.0
C906 C 0.97978 0.5906 0.43715 0.0
C907 C 0.96962 0.5602 0.43341 0.0
C908 C 0.95517 0.56657 0.42372 0.0
C909 C 0.98205 0.57232 0.44042 0.0
H910 H 0.96329 0.61044 0.42494 0.0
H911 H 0.94601 0.55722 0.41788 0.0
C912 C 0.90824 0.62905 0.36756 0.0
N913 N 0.91631 0.65037 0.33853 0.0
C914 C 0.90843 0.62184 0.35036 0.0
C915 C 0.91175 0.64716 0.36992 0.0
C916 C 0.91263 0.63282 0.33587 0.0
C917 C 0.91587 0.65773 0.3551 0.0
C918 C 0.95756 0.58971 0.38212 0.0
C919 C 0.97346 0.59918 0.38394 0.0
C920 C 0.95801 0.57114 0.38026 0.0
C921 C 0.98957 0.58989 0.38393 0.0
C922 C 0.97438 0.56235 0.38029 0.0
N923 N 0.98969 0.57182 0.38212 0.0
C924 C 0.95253 0.65248 0.39651 0.0
C925 C 0.95412 0.64239 0.3666 0.0
C926 C 0.96484 0.66593 0.39301 0.0
N927 N 0.94735 0.64106 0.38341 0.0
C928 C 0.96634 0.65588 0.36242 0.0
C929 C 0.97203 0.66768 0.37583 0.0
H930 H 0.94756 0.65082 0.40988 0.0
H931 H 0.95021 0.63283 0.35652 0.0
C932 C 0.89276 0.56943 0.36265 0.0
N933 N 0.90926 0.57684 0.36257 0.0
C934 C 0.88848 0.5558 0.35062 0.0
C935 C 0.918 0.55817 0.33818 0.0
C936 C 0.92163 0.57185 0.35031 0.0
C937 C 0.90135 0.54961 0.33844 0.0
H938 H 0.88321 0.57357 0.37258 0.0
H939 H 0.93459 0.57808 0.35037 0.0
O940 O 0.93047 0.61963 0.41652 0.0
O941 O 0.91031 0.58464 0.40611 0.0
O942 O 0.90604 0.61822 0.38212 0.0
O943 O 0.94163 0.59852 0.38257 0.0
H944 H 0.93158 0.59998 0.44603 0.0
H945 H 0.92108 0.65262 0.42541 0.0
H946 H 0.92435 0.61092 0.47633 0.0
H947 H 0.91436 0.6627 0.45616 0.0
H948 H 0.91441 0.52409 0.40321 0.0
H949 H 0.91063 0.57784 0.44101 0.0
H950 H 0.91315 0.55376 0.38887 0.0
H951 H 0.91209 0.54771 0.45441 0.0
H952 H 0.86591 0.65337 0.44129 0.0
H953 H 0.863 0.59767 0.45614 0.0
H954 H 0.98924 0.60036 0.44197 0.0
H955 H 0.97079 0.54597 0.43569 0.0
H956 H 0.9056 0.60791 0.34817 0.0
H957 H 0.91233 0.65269 0.38323 0.0
H958 H 0.91302 0.62735 0.32251 0.0
H959 H 0.91931 0.67161 0.35683 0.0
H960 H 0.97336 0.61352 0.38558 0.0
H961 H 0.94582 0.56356 0.37917 0.0
H962 H 1.00197 0.59704 0.38542 0.0
H963 H 0.97491 0.54798 0.37899 0.0
H964 H 0.96888 0.67476 0.40371 0.0
H965 H 0.97179 0.65665 0.34906 0.0
H966 H 0.87532 0.54997 0.35109 0.0
H967 H 0.92843 0.55391 0.32919 0.0
Li968 Li 0.82982 0.64262 0.37173 0.0
Li969 Li 0.84815 0.62958 0.34649 0.0
Li970 Li 0.85688 0.6583 0.36267 0.0
Li971 Li 0.83197 0.65801 0.34181 0.0
C972 C 0.85284 0.61937 0.38451 0.0
N973 N 0.84459 0.59184 0.40763 0.0
C974 C 0.85486 0.60164 0.3791 0.0
C975 C 0.84731 0.6231 0.4019 0.0
C976 C 0.8507 0.5879 0.39101 0.0
C977 C 0.84273 0.609 0.41322 0.0
C978 C 0.81005 0.62438 0.33811 0.0
C979 C 0.79528 0.61726 0.31035 0.0
N980 N 0.78564 0.60449 0.31884 0.0
C981 C 0.79983 0.61125 0.34653 0.0
C982 C 0.80762 0.62745 0.31984 0.0
C983 C 0.78765 0.60131 0.33659 0.0
C984 C 0.80601 0.65317 0.3993 0.0
N985 N 0.81238 0.6385 0.39073 0.0
C986 C 0.79283 0.61977 0.4078 0.0
C987 C 0.80613 0.62195 0.39488 0.0
C988 C 0.78593 0.63473 0.41687 0.0
C989 C 0.793 0.65158 0.41254 0.0
H990 H 0.8109 0.66623 0.39577 0.0
H991 H 0.81157 0.61035 0.3883 0.0
C992 C 0.87089 0.60906 0.32338 0.0
N993 N 0.85515 0.60862 0.33231 0.0
C994 C 0.87469 0.59657 0.31 0.0
C995 C 0.8466 0.58237 0.31606 0.0
C996 C 0.84339 0.59513 0.32937 0.0
C997 C 0.86219 0.58329 0.30571 0.0
H998 H 0.88 0.61988 0.32575 0.0
H999 H 0.8312 0.59454 0.33689 0.0
C1000 C 0.8365 0.68494 0.37235 0.0
N1001 N 0.84578 0.71836 0.38483 0.0
C1002 C 0.83615 0.69966 0.36088 0.0
C1003 C 0.84149 0.68722 0.39019 0.0
C1004 C 0.8409 0.71645 0.36745 0.0
C1005 C 0.84615 0.70423 0.39623 0.0
C1006 C 0.86402 0.65293 0.31969 0.0
C1007 C 0.88 0.66175 0.3161 0.0
C1008 C 0.85544 0.64378 0.30591 0.0
C1009 C 0.88696 0.66148 0.29882 0.0
C1010 C 0.8628 0.64381 0.28879 0.0
N1011 N 0.87828 0.6526 0.28562 0.0
C1012 C 0.87956 0.68765 0.35727 0.0
C1013 C 0.88393 0.67478 0.38574 0.0
C1014 C 0.89306 0.70008 0.36036 0.0
N1015 N 0.87568 0.67487 0.36957 0.0
C1016 C 0.89763 0.687 0.38943 0.0
C1017 C 0.90264 0.6997 0.37647 0.0
H1018 H 0.87211 0.68818 0.34495 0.0
H1019 H 0.8801 0.66501 0.39561 0.0
C1020 C 0.8008 0.67005 0.32734 0.0
N1021 N 0.81869 0.67061 0.32505 0.0
C1022 C 0.78959 0.6757 0.31371 0.0
C1023 C 0.81553 0.68349 0.2962 0.0
C1024 C 0.82623 0.67782 0.31024 0.0
C1025 C 0.79702 0.68194 0.29772 0.0
H1026 H 0.7953 0.66419 0.33934 0.0
H1027 H 0.84051 0.67855 0.30903 0.0
O1028 O 0.8556 0.63297 0.37265 0.0
O1029 O 0.82212 0.63421 0.34776 0.0
O1030 O 0.83244 0.66831 0.36603 0.0
O1031 O 0.85715 0.65284 0.33668 0.0
H1032 H 0.8595 0.59848 0.36583 0.0
H1033 H 0.8458 0.63678 0.40633 0.0
H1034 H 0.85209 0.57412 0.38695 0.0
H1035 H 0.83747 0.61172 0.42637 0.0
H1036 H 0.79332 0.61957 0.29622 0.0
H1037 H 0.80141 0.60853 0.36053 0.0
H1038 H 0.81489 0.63774 0.31297 0.0
H1039 H 0.7798 0.59104 0.343 0.0
H1040 H 0.78787 0.60646 0.41038 0.0
H1041 H 0.78861 0.66356 0.41931 0.0
H1042 H 0.8869 0.59794 0.30246 0.0
H1043 H 0.83678 0.57208 0.31368 0.0
H1044 H 0.83244 0.69811 0.34702 0.0
H1045 H 0.84208 0.67592 0.39918 0.0
H1046 H 0.84078 0.72794 0.3587 0.0
H1047 H 0.85018 0.70616 0.40996 0.0
H1048 H 0.88714 0.66859 0.32654 0.0
H1049 H 0.84352 0.6363 0.30848 0.0
H1050 H 0.89933 0.66826 0.29592 0.0
H1051 H 0.85628 0.63669 0.27807 0.0
H1052 H 0.89625 0.70958 0.34995 0.0
H1053 H 0.90431 0.68641 0.40222 0.0
H1054 H 0.77534 0.67437 0.3153 0.0
H1055 H 0.82163 0.68866 0.28416 0.0
Li1056 Li 0.65859 0.37016 0.84733 0.0
Li1057 Li 0.675 0.35577 0.87323 0.0
Li1058 Li 0.67995 0.34591 0.84455 0.0
Li1059 Li 0.65196 0.33812 0.85822 0.0
C1060 C 0.69992 0.37491 0.84608 0.0
N1061 N 0.73223 0.38298 0.83051 0.0
C1062 C 0.71578 0.37074 0.85488 0.0
C1063 C 0.7005 0.38337 0.82945 0.0
C1064 C 0.73198 0.37488 0.84676 0.0
C1065 C 0.71697 0.38729 0.82178 0.0
C1066 C 0.64961 0.36915 0.88759 0.0
C1067 C 0.6527 0.3658 0.91941 0.0
N1068 N 0.65663 0.38347 0.9207 0.0
C1069 C 0.65322 0.38735 0.88926 0.0
C1070 C 0.64908 0.3583 0.90276 0.0
C1071 C 0.65678 0.39434 0.90615 0.0
C1072 C 0.63547 0.38897 0.82354 0.0
N1073 N 0.64912 0.39105 0.83529 0.0
C1074 C 0.65457 0.42051 0.82412 0.0
C1075 C 0.65817 0.40672 0.83623 0.0
C1076 C 0.64179 0.41809 0.81053 0.0
C1077 C 0.6317 0.40225 0.81088 0.0
H1078 H 0.62847 0.37637 0.82299 0.0
H1079 H 0.66892 0.40814 0.84572 0.0
C1080 C 0.69184 0.34484 0.90529 0.0
N1081 N 0.68866 0.35946 0.89503 0.0
C1082 C 0.70387 0.34558 0.9195 0.0
C1083 C 0.70865 0.37675 0.91301 0.0
C1084 C 0.69668 0.37532 0.89872 0.0
C1085 C 0.71277 0.36163 0.92346 0.0
H1086 H 0.68544 0.33239 0.90208 0.0
H1087 H 0.69421 0.38674 0.89023 0.0
C1088 C 0.65602 0.34507 0.81532 0.0
N1089 N 0.65506 0.34051 0.77866 0.0
C1090 C 0.6512 0.32858 0.80798 0.0
C1091 C 0.66027 0.35923 0.80391 0.0
C1092 C 0.65085 0.32654 0.78945 0.0
C1093 C 0.65971 0.35667 0.78545 0.0
C1094 C 0.67648 0.31258 0.8626 0.0
C1095 C 0.67479 0.30607 0.84521 0.0
C1096 C 0.67823 0.30049 0.87673 0.0
C1097 C 0.67501 0.28768 0.84219 0.0
C1098 C 0.67836 0.28218 0.8732 0.0
N1099 N 0.67677 0.2762 0.85615 0.0
C1100 C 0.71241 0.32984 0.84212 0.0
C1101 C 0.70169 0.3384 0.81361 0.0
C1102 C 0.72713 0.32164 0.83452 0.0
N1103 N 0.69978 0.33744 0.8316 0.0
C1104 C 0.71612 0.33022 0.8054 0.0
C1105 C 0.72872 0.32118 0.81589 0.0
H1106 H 0.71078 0.32975 0.85646 0.0
H1107 H 0.69186 0.34496 0.80554 0.0
C1108 C 0.62211 0.318 0.84614 0.0
N1109 N 0.63346 0.32027 0.8601 0.0
C1110 C 0.60791 0.30599 0.84737 0.0
C1111 C 0.61766 0.29823 0.87707 0.0
C1112 C 0.63168 0.31043 0.87528 0.0
C1113 C 0.60528 0.29613 0.86313 0.0
H1114 H 0.62354 0.32615 0.83433 0.0
H1115 H 0.64085 0.31243 0.88621 0.0
O1116 O 0.68392 0.3706 0.85364 0.0
O1117 O 0.64809 0.36172 0.87105 0.0
O1118 O 0.65595 0.34749 0.83349 0.0
O1119 O 0.6758 0.33059 0.86593 0.0
H1120 H 0.71561 0.36407 0.86768 0.0
H1121 H 0.6884 0.3868 0.82249 0.0
H1122 H 0.74435 0.37157 0.85334 0.0
H1123 H 0.71761 0.39374 0.80887 0.0
H1124 H 0.65266 0.35755 0.93126 0.0
H1125 H 0.65378 0.39586 0.87759 0.0
H1126 H 0.64644 0.34414 0.90158 0.0
H1127 H 0.65993 0.40835 0.90766 0.0
H1128 H 0.66223 0.43269 0.82505 0.0
H1129 H 0.62171 0.39958 0.80085 0.0
H1130 H 0.70665 0.33342 0.92679 0.0
H1131 H 0.71482 0.38954 0.9156 0.0
H1132 H 0.64776 0.31741 0.81643 0.0
H1133 H 0.66434 0.37197 0.80918 0.0
H1134 H 0.64719 0.31384 0.78364 0.0
H1135 H 0.66307 0.36752 0.77653 0.0
H1136 H 0.67339 0.31509 0.83412 0.0
H1137 H 0.67926 0.30511 0.89035 0.0
H1138 H 0.67376 0.28254 0.82876 0.0
H1139 H 0.67966 0.27272 0.88404 0.0
H1140 H 0.73672 0.31504 0.84306 0.0
H1141 H 0.71674 0.33004 0.79096 0.0
H1142 H 0.59892 0.30468 0.83616 0.0
H1143 H 0.61616 0.29104 0.88952 0.0
Li1144 Li 0.88606 0.89295 0.92016 0.0
Li1145 Li 0.91488 0.8835 0.90731 0.0
Li1146 Li 0.91213 0.91156 0.92063 0.0
Li1147 Li 0.89832 0.90829 0.89144 0.0
C1148 C 0.90625 0.88887 0.95037 0.0
N1149 N 0.90128 0.8908 0.98688 0.0
C1150 C 0.91351 0.87583 0.96154 0.0
C1151 C 0.89656 0.90295 0.95779 0.0
C1152 C 0.91083 0.87702 0.97996 0.0
C1153 C 0.89417 0.90369 0.97626 0.0
C1154 C 0.89549 0.86754 0.88698 0.0
C1155 C 0.91144 0.85339 0.86304 0.0
N1156 N 0.91054 0.83762 0.87199 0.0
C1157 C 0.89415 0.85109 0.89567 0.0
C1158 C 0.90382 0.86869 0.87037 0.0
C1159 C 0.90191 0.83609 0.88787 0.0
C1160 C 0.8506 0.89902 0.9303 0.0
N1161 N 0.86442 0.88779 0.93344 0.0
C1162 C 0.84786 0.87353 0.95688 0.0
C1163 C 0.86322 0.87498 0.94629 0.0
C1164 C 0.83328 0.88507 0.95397 0.0
C1165 C 0.83478 0.89752 0.93991 0.0
H1166 H 0.85185 0.90929 0.92024 0.0
H1167 H 0.87443 0.86628 0.94879 0.0
C1168 C 0.94333 0.86399 0.89039 0.0
N1169 N 0.93166 0.86375 0.90428 0.0
C1170 C 0.9554 0.84994 0.88792 0.0
C1171 C 0.94366 0.8358 0.91435 0.0
C1172 C 0.93178 0.8501 0.91628 0.0
C1173 C 0.95572 0.83553 0.89999 0.0
H1174 H 0.9432 0.87508 0.88114 0.0
H1175 H 0.9224 0.85014 0.92721 0.0
C1176 C 0.88362 0.93629 0.91622 0.0
N1177 N 0.87447 0.97174 0.9211 0.0
C1178 C 0.89003 0.94941 0.90458 0.0
C1179 C 0.87254 0.94128 0.93037 0.0
C1180 C 0.88524 0.96722 0.90725 0.0
C1181 C 0.8681 0.95925 0.93262 0.0
C1182 C 0.93896 0.91606 0.89827 0.0
C1183 C 0.93931 0.93339 0.89139 0.0
C1184 C 0.95423 0.90892 0.90615 0.0
C1185 C 0.95487 0.94346 0.89284 0.0
C1186 C 0.96953 0.91942 0.90736 0.0
N1187 N 0.96952 0.93633 0.90075 0.0
C1188 C 0.93778 0.91741 0.9455 0.0
C1189 C 0.92139 0.94384 0.93977 0.0
C1190 C 0.94651 0.92548 0.95966 0.0
N1191 N 0.92515 0.92646 0.9362 0.0
C1192 C 0.9298 0.95247 0.95387 0.0
C1193 C 0.94218 0.94307 0.96425 0.0
H1194 H 0.94056 0.90361 0.94233 0.0
H1195 H 0.91151 0.95093 0.93227 0.0
C1196 C 0.87627 0.92951 0.86888 0.0
N1197 N 0.89195 0.92047 0.8694 0.0
C1198 C 0.87212 0.94063 0.85444 0.0
C1199 C 0.89998 0.93242 0.8408 0.0
C1200 C 0.90364 0.92151 0.85559 0.0
C1201 C 0.88419 0.94257 0.84022 0.0
H1202 H 0.86738 0.92887 0.88018 0.0
H1203 H 0.9161 0.91432 0.8563 0.0
O1204 O 0.90887 0.88793 0.93229 0.0
O1205 O 0.88996 0.8827 0.89535 0.0
O1206 O 0.88783 0.91868 0.91355 0.0
O1207 O 0.9238 0.90607 0.8972 0.0
H1208 H 0.92119 0.86491 0.95607 0.0
H1209 H 0.89104 0.91324 0.94938 0.0
H1210 H 0.91635 0.86699 0.98876 0.0
H1211 H 0.88668 0.91452 0.98215 0.0
H1212 H 0.91837 0.85411 0.85041 0.0
H1213 H 0.88777 0.8501 0.90859 0.0
H1214 H 0.90494 0.88138 0.86354 0.0
H1215 H 0.90142 0.82332 0.8946 0.0
H1216 H 0.84777 0.8638 0.96754 0.0
H1217 H 0.82397 0.9063 0.93628 0.0
H1218 H 0.96461 0.85055 0.87682 0.0
H1219 H 0.94325 0.82497 0.92391 0.0
H1220 H 0.89881 0.94594 0.89374 0.0
H1221 H 0.86738 0.93145 0.93957 0.0
H1222 H 0.89016 0.97747 0.89834 0.0
H1223 H 0.85955 0.96326 0.94352 0.0
H1224 H 0.92773 0.939 0.88494 0.0
H1225 H 0.9542 0.8955 0.9115 0.0
H1226 H 0.95531 0.95693 0.88764 0.0
H1227 H 0.98139 0.91412 0.91358 0.0
H1228 H 0.9563 0.91794 0.96713 0.0
H1229 H 0.92613 0.96609 0.95703 0.0
H1230 H 0.85993 0.9483 0.85493 0.0
H1231 H 0.90961 0.93311 0.83009 0.0
Li1232 Li 0.82383 0.15374 0.66779 0.0
Li1233 Li 0.8437 0.12859 0.66754 0.0
Li1234 Li 0.85248 0.15929 0.65538 0.0
Li1235 Li 0.83008 0.14164 0.63999 0.0
C1236 C 0.86137 0.15055 0.69093 0.0
N1237 N 0.89125 0.14803 0.71225 0.0
C1238 C 0.87632 0.14114 0.68498 0.0
C1239 C 0.8616 0.15856 0.70777 0.0
C1240 C 0.89129 0.14003 0.69595 0.0
C1241 C 0.87685 0.15719 0.71832 0.0
C1242 C 0.80101 0.12702 0.66341 0.0
C1243 C 0.77725 0.11404 0.68069 0.0
N1244 N 0.76519 0.12311 0.67063 0.0
C1245 C 0.78838 0.13611 0.65317 0.0
C1246 C 0.79541 0.11581 0.67722 0.0
C1247 C 0.77034 0.134 0.65705 0.0
C1248 C 0.79308 0.17377 0.67388 0.0
N1249 N 0.80603 0.16382 0.68165 0.0
C1250 C 0.79631 0.17191 0.71069 0.0
C1251 C 0.80749 0.16217 0.69961 0.0
C1252 C 0.78358 0.18331 0.70305 0.0
C1253 C 0.78149 0.1836 0.68444 0.0
H1254 H 0.79231 0.17473 0.6595 0.0
H1255 H 0.81798 0.15406 0.70526 0.0
C1256 C 0.8627 0.0962 0.67899 0.0
N1257 N 0.84986 0.10847 0.68254 0.0
C1258 C 0.86609 0.08225 0.6911 0.0
C1259 C 0.84337 0.09417 0.71042 0.0
C1260 C 0.84056 0.10789 0.69808 0.0
C1261 C 0.8561 0.08086 0.70696 0.0
H1262 H 0.87037 0.09734 0.66685 0.0
H1263 H 0.83093 0.11823 0.70095 0.0
C1264 C 0.82788 0.1851 0.64856 0.0
N1265 N 0.82535 0.22154 0.6538 0.0
C1266 C 0.82112 0.19608 0.63509 0.0
C1267 C 0.83332 0.19267 0.66474 0.0
C1268 C 0.81996 0.21446 0.63798 0.0
C1269 C 0.83194 0.21111 0.66711 0.0
C1270 C 0.85619 0.12651 0.62836 0.0
C1271 C 0.85877 0.13633 0.61274 0.0
C1272 C 0.85115 0.1086 0.62742 0.0
C1273 C 0.85561 0.12817 0.59633 0.0
C1274 C 0.84849 0.10081 0.61072 0.0
N1275 N 0.85049 0.11077 0.59568 0.0
C1276 C 0.88145 0.18319 0.66644 0.0
C1277 C 0.87122 0.18719 0.63691 0.0
C1278 C 0.89388 0.19691 0.66433 0.0
N1279 N 0.87069 0.17815 0.6527 0.0
C1280 C 0.88325 0.20131 0.63432 0.0
C1281 C 0.89515 0.20612 0.64803 0.0
H1282 H 0.88064 0.17667 0.67917 0.0
H1283 H 0.86226 0.18344 0.62625 0.0
C1284 C 0.8082 0.12144 0.61589 0.0
N1285 N 0.81804 0.13659 0.61747 0.0
C1286 C 0.79696 0.11894 0.60119 0.0
C1287 C 0.80693 0.14717 0.58938 0.0
C1288 C 0.81768 0.1493 0.6045 0.0
C1289 C 0.79589 0.13205 0.58772 0.0
H1290 H 0.80845 0.11162 0.62647 0.0
H1291 H 0.82551 0.16131 0.60606 0.0
O1292 O 0.84635 0.15147 0.68068 0.0
O1293 O 0.81876 0.12904 0.65986 0.0
O1294 O 0.82913 0.16708 0.64579 0.0
O1295 O 0.85662 0.13492 0.64445 0.0
H1296 H 0.87644 0.13479 0.67204 0.0
H1297 H 0.85011 0.16581 0.7126 0.0
H1298 H 0.90294 0.13283 0.69151 0.0
H1299 H 0.87723 0.16338 0.73136 0.0
H1300 H 0.77273 0.10543 0.69136 0.0
H1301 H 0.79245 0.14496 0.64251 0.0
H1302 H 0.80493 0.10844 0.68512 0.0
H1303 H 0.76045 0.14107 0.64931 0.0
H1304 H 0.7985 0.1715 0.72498 0.0
H1305 H 0.77169 0.19211 0.67811 0.0
H1306 H 0.87624 0.07254 0.688 0.0
H1307 H 0.83576 0.09419 0.72268 0.0
H1308 H 0.81683 0.19044 0.6225 0.0
H1309 H 0.83858 0.18446 0.67536 0.0
H1310 H 0.81477 0.22311 0.62765 0.0
H1311 H 0.83612 0.21713 0.67954 0.0
H1312 H 0.86231 0.15032 0.61334 0.0
H1313 H 0.84883 0.10096 0.63946 0.0
H1314 H 0.85678 0.13581 0.58415 0.0
H1315 H 0.84442 0.08701 0.60972 0.0
H1316 H 0.90269 0.19995 0.67534 0.0
H1317 H 0.88337 0.20821 0.62162 0.0
H1318 H 0.78864 0.10717 0.60089 0.0
H1319 H 0.80707 0.1575 0.57927 0.0
Li1320 Li 0.57954 0.12644 0.39922 0.0
Li1321 Li 0.60669 0.11322 0.41568 0.0
Li1322 Li 0.5947 0.09762 0.38821 0.0
Li1323 Li 0.57741 0.09928 0.41532 0.0
C1324 C 0.60424 0.1296 0.37232 0.0
N1325 N 0.59567 0.1388 0.33753 0.0
C1326 C 0.5943 0.14488 0.36871 0.0
C1327 C 0.611 0.11976 0.35805 0.0
C1328 C 0.58958 0.14902 0.35118 0.0
C1329 C 0.60637 0.1245 0.34056 0.0
C1330 C 0.57594 0.12327 0.44093 0.0
C1331 C 0.57548 0.11634 0.47236 0.0
N1332 N 0.55859 0.12276 0.47342 0.0
C1333 C 0.55864 0.12993 0.44234 0.0
C1334 C 0.58449 0.11651 0.45605 0.0
C1335 C 0.55007 0.1295 0.45888 0.0
C1336 C 0.54836 0.14471 0.38744 0.0
N1337 N 0.56401 0.14716 0.39616 0.0
C1338 C 0.556 0.1775 0.40266 0.0
C1339 C 0.56789 0.16312 0.40395 0.0
C1340 C 0.53971 0.17536 0.39365 0.0
C1341 C 0.53605 0.15862 0.38599 0.0
H1342 H 0.54516 0.13177 0.38207 0.0
H1343 H 0.58024 0.16469 0.41117 0.0
C1344 C 0.63766 0.10263 0.43445 0.0
N1345 N 0.62729 0.11708 0.43087 0.0
C1346 C 0.65155 0.10369 0.44682 0.0
C1347 C 0.64438 0.13474 0.45138 0.0
C1348 C 0.63036 0.13298 0.4391 0.0
C1349 C 0.65523 0.11992 0.45548 0.0
H1350 H 0.63535 0.09025 0.42746 0.0
H1351 H 0.62177 0.14423 0.43635 0.0
C1352 C 0.55917 0.09136 0.38161 0.0
N1353 N 0.53952 0.06637 0.36295 0.0
C1354 C 0.55858 0.07363 0.38737 0.0
C1355 C 0.54969 0.09638 0.36634 0.0
C1356 C 0.54858 0.0612 0.37778 0.0
C1357 C 0.53986 0.08355 0.35709 0.0
C1358 C 0.60157 0.07139 0.42024 0.0
C1359 C 0.59765 0.05578 0.41077 0.0
C1360 C 0.60686 0.0701 0.4381 0.0
C1361 C 0.59889 0.03926 0.41934 0.0
C1362 C 0.60797 0.05334 0.4462 0.0
N1363 N 0.60398 0.03839 0.43673 0.0
C1364 C 0.6163 0.07074 0.37182 0.0
C1365 C 0.59201 0.07928 0.35371 0.0
C1366 C 0.62094 0.0572 0.35975 0.0
N1367 N 0.6017 0.08113 0.36895 0.0
C1368 C 0.59608 0.06582 0.34137 0.0
C1369 C 0.61047 0.05423 0.34448 0.0
H1370 H 0.62406 0.07257 0.38384 0.0
H1371 H 0.58102 0.08813 0.35111 0.0
C1372 C 0.54253 0.09304 0.42289 0.0
N1373 N 0.55904 0.08853 0.42877 0.0
C1374 C 0.52756 0.08509 0.43025 0.0
C1375 C 0.54673 0.06923 0.45078 0.0
C1376 C 0.56136 0.07744 0.44292 0.0
C1377 C 0.52966 0.0727 0.44406 0.0
H1378 H 0.541 0.10261 0.4122 0.0
H1379 H 0.57442 0.07481 0.44806 0.0
O1380 O 0.60524 0.12307 0.38946 0.0
O1381 O 0.58437 0.1231 0.42477 0.0
O1382 O 0.56896 0.10377 0.3908 0.0
O1383 O 0.60093 0.0877 0.4119 0.0
H1384 H 0.59052 0.15367 0.37929 0.0
H1385 H 0.6194 0.10838 0.36056 0.0
H1386 H 0.58133 0.16052 0.3484 0.0
H1387 H 0.61085 0.11666 0.32935 0.0
H1388 H 0.5819 0.11106 0.48416 0.0
H1389 H 0.55181 0.13514 0.43073 0.0
H1390 H 0.5979 0.11135 0.45518 0.0
H1391 H 0.53663 0.13447 0.46015 0.0
H1392 H 0.55957 0.19015 0.40867 0.0
H1393 H 0.52352 0.15602 0.37937 0.0
H1394 H 0.6597 0.09199 0.44906 0.0
H1395 H 0.64645 0.14748 0.45785 0.0
H1396 H 0.56554 0.06953 0.39925 0.0
H1397 H 0.55028 0.10992 0.36136 0.0
H1398 H 0.54801 0.04744 0.38215 0.0
H1399 H 0.53259 0.08724 0.34518 0.0
H1400 H 0.59371 0.05633 0.39692 0.0
H1401 H 0.60967 0.08195 0.44582 0.0
H1402 H 0.59584 0.02713 0.41214 0.0
H1403 H 0.61191 0.05222 0.46004 0.0
H1404 H 0.63222 0.04871 0.36272 0.0
H1405 H 0.58796 0.06448 0.32951 0.0
H1406 H 0.51453 0.08838 0.42503 0.0
H1407 H 0.54881 0.0598 0.46155 0.0
Li1408 Li 0.65902 0.86816 0.17286 0.0
Li1409 Li 0.67478 0.83939 0.17139 0.0
Li1410 Li 0.67427 0.85885 0.14579 0.0
Li1411 Li 0.64693 0.84295 0.15377 0.0
C1412 C 0.701 0.87126 0.16653 0.0
N1413 N 0.7335 0.88678 0.15902 0.0
C1414 C 0.71393 0.86176 0.15708 0.0
C1415 C 0.70463 0.88868 0.17217 0.0
C1416 C 0.73026 0.86983 0.1534 0.0
C1417 C 0.72113 0.89628 0.16824 0.0
C1418 C 0.64004 0.84851 0.19424 0.0
C1419 C 0.63681 0.85486 0.22563 0.0
N1420 N 0.61968 0.85993 0.22273 0.0
C1421 C 0.62246 0.85389 0.19157 0.0
C1422 C 0.64733 0.84907 0.2114 0.0
C1423 C 0.61235 0.85955 0.20614 0.0
C1424 C 0.63683 0.89563 0.1892 0.0
N1425 N 0.65265 0.88683 0.19009 0.0
C1426 C 0.66078 0.90352 0.21617 0.0
C1427 C 0.66448 0.89044 0.20334 0.0
C1428 C 0.64459 0.91293 0.21564 0.0
C1429 C 0.63243 0.90857 0.202 0.0
H1430 H 0.62756 0.89249 0.17862 0.0
H1431 H 0.67681 0.88305 0.20402 0.0
C1432 C 0.70272 0.81547 0.17734 0.0
N1433 N 0.68671 0.82113 0.18348 0.0
C1434 C 0.70955 0.79914 0.1829 0.0
C1435 C 0.68347 0.79505 0.20137 0.0
C1436 C 0.67717 0.81148 0.19547 0.0
C1437 C 0.69965 0.78854 0.19472 0.0
H1438 H 0.70969 0.82304 0.16731 0.0
H1439 H 0.66409 0.81589 0.19945 0.0
C1440 C 0.65403 0.88514 0.13927 0.0
N1441 N 0.66314 0.91674 0.12242 0.0
C1442 C 0.65006 0.88764 0.12125 0.0
C1443 C 0.66313 0.89856 0.14853 0.0
C1444 C 0.65467 0.90378 0.11303 0.0
C1445 C 0.66746 0.91446 0.13987 0.0
C1446 C 0.67168 0.81496 0.14437 0.0
C1447 C 0.68434 0.80768 0.13279 0.0
C1448 C 0.66119 0.80354 0.15473 0.0
C1449 C 0.6859 0.78914 0.1314 0.0
C1450 C 0.66318 0.78509 0.15299 0.0
N1451 N 0.67536 0.77832 0.14142 0.0
C1452 C 0.69703 0.88116 0.12292 0.0
C1453 C 0.68789 0.8533 0.11122 0.0
C1454 C 0.70732 0.88446 0.1077 0.0
N1455 N 0.68778 0.8656 0.12458 0.0
C1456 C 0.6984 0.85581 0.09604 0.0
C1457 C 0.70838 0.87151 0.09421 0.0
H1458 H 0.69679 0.89088 0.13354 0.0
H1459 H 0.67991 0.8414 0.11242 0.0
C1460 C 0.6178 0.81922 0.15886 0.0
N1461 N 0.6274 0.82767 0.14594 0.0
C1462 C 0.60544 0.80602 0.15444 0.0
C1463 C 0.61281 0.81017 0.12337 0.0
C1464 C 0.6254 0.8231 0.12844 0.0
C1465 C 0.6027 0.80144 0.13652 0.0
H1466 H 0.62026 0.82213 0.17274 0.0
H1467 H 0.63364 0.82941 0.11842 0.0
O1468 O 0.68492 0.86359 0.17027 0.0
O1469 O 0.6503 0.84353 0.18 0.0
O1470 O 0.64958 0.86958 0.1478 0.0
O1471 O 0.67017 0.83312 0.14621 0.0
H1472 H 0.71115 0.84856 0.15203 0.0
H1473 H 0.69483 0.89629 0.17948 0.0
H1474 H 0.7403 0.86268 0.14593 0.0
H1475 H 0.72409 0.90975 0.17251 0.0
H1476 H 0.64229 0.85543 0.23897 0.0
H1477 H 0.6168 0.85398 0.1783 0.0
H1478 H 0.66105 0.84535 0.21365 0.0
H1479 H 0.59874 0.8638 0.20423 0.0
H1480 H 0.67043 0.90601 0.2266 0.0
H1481 H 0.61974 0.91531 0.20098 0.0
H1482 H 0.7222 0.79466 0.17765 0.0
H1483 H 0.67534 0.78714 0.21032 0.0
H1484 H 0.64357 0.8772 0.11375 0.0
H1485 H 0.66704 0.89675 0.1622 0.0
H1486 H 0.65158 0.90612 0.09922 0.0
H1487 H 0.67437 0.92493 0.14698 0.0
H1488 H 0.69303 0.8162 0.12508 0.0
H1489 H 0.652 0.80885 0.16442 0.0
H1490 H 0.69559 0.78336 0.12242 0.0
H1491 H 0.65515 0.77615 0.16097 0.0
H1492 H 0.7148 0.89678 0.10671 0.0
H1493 H 0.69867 0.84561 0.08582 0.0
H1494 H 0.59801 0.79946 0.16496 0.0
H1495 H 0.61116 0.80687 0.1094 0.0
Li1496 Li 0.91483 0.09746 0.6137 0.0
Li1497 Li 0.93434 0.09731 0.58656 0.0
Li1498 Li 0.92908 0.12446 0.60105 0.0
Li1499 Li 0.90534 0.11182 0.5835 0.0
C1500 C 0.95474 0.10818 0.62038 0.0
N1501 N 0.98429 0.11986 0.63884 0.0
C1502 C 0.97014 0.11301 0.61113 0.0
C1503 C 0.95438 0.10918 0.639 0.0
C1504 C 0.98493 0.11893 0.62071 0.0
C1505 C 0.96946 0.11513 0.64809 0.0
C1506 C 0.90823 0.06961 0.58282 0.0
C1507 C 0.9019 0.04992 0.55809 0.0
N1508 N 0.90376 0.0356 0.56909 0.0
C1509 C 0.90976 0.05466 0.59391 0.0
C1510 C 0.904 0.06719 0.56479 0.0
C1511 C 0.90759 0.0376 0.58672 0.0
C1512 C 0.89181 0.07963 0.63896 0.0
N1513 N 0.90879 0.08203 0.63333 0.0
C1514 C 0.91885 0.05863 0.65266 0.0
C1515 C 0.92221 0.07183 0.63991 0.0
C1516 C 0.90144 0.05583 0.65916 0.0
C1517 C 0.88784 0.06664 0.65186 0.0
H1518 H 0.88129 0.08753 0.63316 0.0
H1519 H 0.93551 0.07343 0.63467 0.0
C1520 C 0.96393 0.09016 0.56467 0.0
N1521 N 0.95233 0.08346 0.57683 0.0
C1522 C 0.9763 0.07892 0.55664 0.0
C1523 C 0.96557 0.05476 0.57525 0.0
C1524 C 0.95358 0.06649 0.58296 0.0
C1525 C 0.97663 0.06079 0.56141 0.0
H1526 H 0.96319 0.10404 0.5608 0.0
H1527 H 0.9449 0.06197 0.59349 0.0
C1528 C 0.90349 0.13667 0.61831 0.0
N1529 N 0.90903 0.16774 0.63703 0.0
C1530 C 0.90394 0.15298 0.6093 0.0
C1531 C 0.90501 0.13616 0.63688 0.0
C1532 C 0.90705 0.16853 0.61899 0.0
C1533 C 0.90776 0.15208 0.64613 0.0
C1534 C 0.92805 0.12123 0.55668 0.0
C1535 C 0.9271 0.13778 0.54805 0.0
C1536 C 0.92772 0.10562 0.54649 0.0
C1537 C 0.92586 0.1384 0.52945 0.0
C1538 C 0.92651 0.10678 0.52792 0.0
N1539 N 0.9256 0.12301 0.51985 0.0
C1540 C 0.94737 0.15157 0.62323 0.0
C1541 C 0.9496 0.15451 0.5919 0.0
C1542 C 0.95884 0.16613 0.62568 0.0
N1543 N 0.94292 0.14603 0.60649 0.0
C1544 C 0.96106 0.16903 0.59371 0.0
C1545 C 0.96607 0.17493 0.61076 0.0
H1546 H 0.94244 0.14444 0.63473 0.0
H1547 H 0.94652 0.14967 0.57876 0.0
C1548 C 0.87373 0.10196 0.565 0.0
N1549 N 0.88564 0.11539 0.56737 0.0
C1550 C 0.85948 0.10396 0.55318 0.0
C1551 C 0.87027 0.13338 0.54586 0.0
C1552 C 0.88399 0.131 0.55827 0.0
C1553 C 0.85759 0.11978 0.54314 0.0
H1554 H 0.87496 0.08984 0.57273 0.0
H1555 H 0.89332 0.14169 0.56064 0.0
O1556 O 0.94002 0.10265 0.61123 0.0
O1557 O 0.91018 0.08645 0.58974 0.0
O1558 O 0.90287 0.1212 0.60884 0.0
O1559 O 0.92884 0.1204 0.57499 0.0
H1560 H 0.97057 0.11243 0.59671 0.0
H1561 H 0.94249 0.10565 0.64634 0.0
H1562 H 0.9969 0.12284 0.61374 0.0
H1563 H 0.96935 0.11607 0.6625 0.0
H1564 H 0.8987 0.04791 0.54416 0.0
H1565 H 0.91279 0.05615 0.6079 0.0
H1566 H 0.9021 0.07849 0.55603 0.0
H1567 H 0.90893 0.02596 0.59516 0.0
H1568 H 0.92991 0.05041 0.65677 0.0
H1569 H 0.87414 0.06528 0.65588 0.0
H1570 H 0.98491 0.08413 0.54629 0.0
H1571 H 0.96534 0.0409 0.57936 0.0
H1572 H 0.90281 0.15347 0.5949 0.0
H1573 H 0.90463 0.12357 0.64398 0.0
H1574 H 0.90817 0.18118 0.61214 0.0
H1575 H 0.90934 0.15196 0.66048 0.0
H1576 H 0.92687 0.15008 0.5556 0.0
H1577 H 0.92853 0.09273 0.55279 0.0
H1578 H 0.925 0.15112 0.52266 0.0
H1579 H 0.92629 0.09475 0.51993 0.0
H1580 H 0.96251 0.17002 0.63911 0.0
H1581 H 0.96614 0.17543 0.58179 0.0
H1582 H 0.84992 0.09322 0.55226 0.0
H1583 H 0.86985 0.14574 0.53842 0.0
Li1584 Li 0.64925 0.15745 0.35577 0.0
Li1585 Li 0.67762 0.1444 0.36294 0.0
Li1586 Li 0.67432 0.16142 0.33618 0.0
Li1587 Li 0.66192 0.13014 0.33794 0.0
C1588 C 0.66591 0.18416 0.37056 0.0
N1589 N 0.653 0.21264 0.39021 0.0
C1590 C 0.6664 0.18374 0.38923 0.0
C1591 C 0.65879 0.19912 0.36194 0.0
C1592 C 0.65986 0.19827 0.39891 0.0
C1593 C 0.65232 0.21335 0.37208 0.0
C1594 C 0.65688 0.12114 0.37786 0.0
C1595 C 0.66378 0.09226 0.3902 0.0
N1596 N 0.66775 0.10017 0.40604 0.0
C1597 C 0.65988 0.12883 0.39452 0.0
C1598 C 0.65848 0.10269 0.37568 0.0
C1599 C 0.66601 0.1181 0.40842 0.0
C1600 C 0.61859 0.17869 0.35048 0.0
N1601 N 0.62819 0.17063 0.36359 0.0
C1602 C 0.61079 0.18569 0.38589 0.0
C1603 C 0.62439 0.17372 0.38111 0.0
C1604 C 0.6008 0.19426 0.37251 0.0
C1605 C 0.60485 0.19052 0.35462 0.0
H1606 H 0.62151 0.17593 0.33671 0.0
H1607 H 0.63216 0.16725 0.39139 0.0
C1608 C 0.70112 0.12356 0.38631 0.0
N1609 N 0.69574 0.14017 0.3812 0.0
C1610 C 0.71381 0.12146 0.39984 0.0
C1611 C 0.7165 0.15352 0.40145 0.0
C1612 C 0.70366 0.15497 0.38807 0.0
C1613 C 0.72156 0.1366 0.40771 0.0
H1614 H 0.69545 0.11191 0.38004 0.0
H1615 H 0.70011 0.16802 0.38308 0.0
C1616 C 0.64654 0.15962 0.31282 0.0
N1617 N 0.63984 0.17322 0.27914 0.0
C1618 C 0.64432 0.14812 0.29831 0.0
C1619 C 0.64511 0.17807 0.31019 0.0
C1620 C 0.64101 0.15524 0.28139 0.0
C1621 C 0.64178 0.18468 0.29307 0.0
C1622 C 0.70358 0.13315 0.34156 0.0
C1623 C 0.71695 0.14586 0.34396 0.0
C1624 C 0.70764 0.11499 0.34276 0.0
C1625 C 0.73422 0.14016 0.34776 0.0
C1626 C 0.72509 0.10983 0.34654 0.0
N1627 N 0.7379 0.12241 0.34897 0.0
C1628 C 0.68993 0.1936 0.32728 0.0
C1629 C 0.68619 0.17384 0.30282 0.0
C1630 C 0.69399 0.20757 0.31581 0.0
N1631 N 0.68518 0.17749 0.32055 0.0
C1632 C 0.69021 0.18745 0.2908 0.0
C1633 C 0.6934 0.20471 0.29733 0.0
H1634 H 0.68978 0.19582 0.34151 0.0
H1635 H 0.68265 0.16072 0.29796 0.0
C1636 C 0.64383 0.09852 0.32491 0.0
N1637 N 0.65815 0.10937 0.32307 0.0
C1638 C 0.63996 0.08558 0.31202 0.0
C1639 C 0.66699 0.09354 0.29673 0.0
C1640 C 0.66989 0.10683 0.30953 0.0
C1641 C 0.65144 0.08297 0.29731 0.0
H1642 H 0.63515 0.10015 0.33617 0.0
H1643 H 0.68137 0.11544 0.30841 0.0
O1644 O 0.67205 0.16992 0.3608 0.0
O1645 O 0.65328 0.13176 0.36353 0.0
O1646 O 0.64989 0.15281 0.32949 0.0
O1647 O 0.68651 0.13849 0.33838 0.0
H1648 H 0.6715 0.17224 0.39627 0.0
H1649 H 0.65801 0.19967 0.34755 0.0
H1650 H 0.66012 0.19806 0.41334 0.0
H1651 H 0.64669 0.22492 0.36554 0.0
H1652 H 0.66521 0.07797 0.38873 0.0
H1653 H 0.65855 0.14308 0.39639 0.0
H1654 H 0.65602 0.09653 0.36286 0.0
H1655 H 0.66967 0.12412 0.42099 0.0
H1656 H 0.60807 0.18816 0.39987 0.0
H1657 H 0.59763 0.19691 0.34386 0.0
H1658 H 0.71768 0.10815 0.40392 0.0
H1659 H 0.72226 0.16555 0.40696 0.0
H1660 H 0.64502 0.13383 0.30005 0.0
H1661 H 0.64685 0.18723 0.32118 0.0
H1662 H 0.63933 0.14647 0.27005 0.0
H1663 H 0.64084 0.19892 0.29085 0.0
H1664 H 0.71395 0.15998 0.34314 0.0
H1665 H 0.69738 0.10502 0.34102 0.0
H1666 H 0.7447 0.14983 0.3498 0.0
H1667 H 0.72843 0.09582 0.34764 0.0
H1668 H 0.69705 0.22059 0.3213 0.0
H1669 H 0.68984 0.18475 0.27661 0.0
H1670 H 0.62777 0.07817 0.31364 0.0
H1671 H 0.67694 0.09188 0.28648 0.0
Li1672 Li 0.5915 0.91049 0.08521 0.0
Li1673 Li 0.60282 0.90807 0.11585 0.0
Li1674 Li 0.61568 0.88965 0.08957 0.0
Li1675 Li 0.5862 0.88277 0.10056 0.0
C1676 C 0.62072 0.93263 0.08851 0.0
N1677 N 0.63087 0.96639 0.07741 0.0
C1678 C 0.62691 0.94516 0.10087 0.0
C1679 C 0.62009 0.93725 0.0704 0.0
C1680 C 0.63189 0.96215 0.09503 0.0
C1681 C 0.62514 0.95439 0.06508 0.0
C1682 C 0.56027 0.90968 0.1054 0.0
C1683 C 0.53229 0.92125 0.11601 0.0
N1684 N 0.52413 0.91468 0.10121 0.0
C1685 C 0.55161 0.90302 0.0903 0.0
C1686 C 0.55055 0.91885 0.11838 0.0
C1687 C 0.53333 0.90569 0.08842 0.0
C1688 C 0.57562 0.92504 0.05433 0.0
N1689 N 0.58095 0.92829 0.07132 0.0
C1690 C 0.57519 0.9594 0.06821 0.0
C1691 C 0.57999 0.94484 0.07869 0.0
C1692 C 0.57129 0.95663 0.05015 0.0
C1693 C 0.57092 0.93921 0.04332 0.0
H1694 H 0.57552 0.91157 0.04922 0.0
H1695 H 0.58394 0.94682 0.09243 0.0
C1696 C 0.62087 0.92169 0.14708 0.0
N1697 N 0.60683 0.92391 0.13591 0.0
C1698 C 0.62488 0.93452 0.16002 0.0
C1699 C 0.59958 0.95166 0.15009 0.0
C1700 C 0.5962 0.93855 0.13722 0.0
C1701 C 0.61423 0.9499 0.16165 0.0
H1702 H 0.62905 0.91003 0.14576 0.0
H1703 H 0.58535 0.94029 0.12792 0.0
C1704 C 0.60138 0.87786 0.06101 0.0
N1705 N 0.61824 0.86133 0.0326 0.0
C1706 C 0.60571 0.8597 0.06185 0.0
C1707 C 0.60608 0.88765 0.04581 0.0
C1708 C 0.61405 0.85157 0.04731 0.0
C1709 C 0.6145 0.87906 0.03159 0.0
C1710 C 0.60217 0.87113 0.12851 0.0
C1711 C 0.59704 0.85362 0.12494 0.0
C1712 C 0.59823 0.87857 0.14517 0.0
C1713 C 0.58705 0.84428 0.13763 0.0
C1714 C 0.58884 0.86858 0.15775 0.0
N1715 N 0.5833 0.85182 0.15368 0.0
C1716 C 0.64437 0.89509 0.06639 0.0
C1717 C 0.6452 0.86536 0.07677 0.0
C1718 C 0.65843 0.89191 0.05475 0.0
N1719 N 0.63773 0.88197 0.077 0.0
C1720 C 0.65927 0.86144 0.0649 0.0
C1721 C 0.66578 0.87476 0.05327 0.0
H1722 H 0.63856 0.90812 0.06671 0.0
H1723 H 0.63978 0.85494 0.08516 0.0
C1724 C 0.55571 0.86648 0.11775 0.0
N1725 N 0.56742 0.86486 0.10398 0.0
C1726 C 0.54279 0.85333 0.12078 0.0
C1727 C 0.55421 0.83698 0.09557 0.0
C1728 C 0.56649 0.85067 0.09271 0.0
C1729 C 0.54201 0.83808 0.10977 0.0
H1730 H 0.55656 0.87784 0.12659 0.0
H1731 H 0.57547 0.84973 0.08161 0.0
O1732 O 0.61577 0.91589 0.09415 0.0
O1733 O 0.57815 0.90717 0.10754 0.0
O1734 O 0.59334 0.88611 0.07524 0.0
O1735 O 0.60941 0.88147 0.11526 0.0
H1736 H 0.62817 0.94178 0.11482 0.0
H1737 H 0.6155 0.92781 0.06053 0.0
H1738 H 0.63665 0.97193 0.10451 0.0
H1739 H 0.62447 0.95815 0.05115 0.0
H1740 H 0.52459 0.92831 0.12596 0.0
H1741 H 0.55891 0.89582 0.08015 0.0
H1742 H 0.55702 0.92396 0.13023 0.0
H1743 H 0.52646 0.90061 0.07681 0.0
H1744 H 0.57535 0.97269 0.07389 0.0
H1745 H 0.56735 0.93665 0.02954 0.0
H1746 H 0.6365 0.93257 0.16832 0.0
H1747 H 0.59079 0.96308 0.15089 0.0
H1748 H 0.60341 0.85208 0.07387 0.0
H1749 H 0.60372 0.90183 0.04509 0.0
H1750 H 0.61751 0.83756 0.04786 0.0
H1751 H 0.61823 0.88653 0.0198 0.0
H1752 H 0.59983 0.84768 0.11207 0.0
H1753 H 0.6019 0.89204 0.14832 0.0
H1754 H 0.58189 0.83122 0.13456 0.0
H1755 H 0.58566 0.87427 0.17063 0.0
H1756 H 0.66329 0.90294 0.04678 0.0
H1757 H 0.66447 0.84797 0.06441 0.0
H1758 H 0.53354 0.85525 0.13166 0.0
H1759 H 0.5546 0.82554 0.08679 0.0
Li1760 Li 0.86108 0.83642 0.83849 0.0
Li1761 Li 0.8336 0.85144 0.84897 0.0
Li1762 Li 0.83312 0.83512 0.8219 0.0
Li1763 Li 0.84937 0.86474 0.82314 0.0
C1764 C 0.83389 0.80817 0.84601 0.0
N1765 N 0.82461 0.77243 0.84536 0.0
C1766 C 0.8182 0.80238 0.85422 0.0
C1767 C 0.84475 0.79572 0.83739 0.0
C1768 C 0.81377 0.78427 0.85378 0.0
C1769 C 0.83986 0.77775 0.8372 0.0
C1770 C 0.85589 0.87128 0.8628 0.0
C1771 C 0.8452 0.89804 0.8769 0.0
N1772 N 0.84479 0.88927 0.89277 0.0
C1773 C 0.85562 0.86261 0.87928 0.0
C1774 C 0.85089 0.88919 0.86156 0.0
C1775 C 0.84998 0.87195 0.89433 0.0
C1776 C 0.89726 0.82334 0.83496 0.0
N1777 N 0.88198 0.82229 0.84467 0.0
C1778 C 0.89453 0.7988 0.86249 0.0
C1779 C 0.88052 0.81044 0.85839 0.0
C1780 C 0.91026 0.79933 0.85238 0.0
C1781 C 0.9115 0.81182 0.83845 0.0
H1782 H 0.89859 0.83325 0.82462 0.0
H1783 H 0.86836 0.80989 0.86608 0.0
C1784 C 0.81031 0.87151 0.87386 0.0
N1785 N 0.81871 0.85577 0.87043 0.0
C1786 C 0.80053 0.8739 0.88962 0.0
C1787 C 0.80775 0.84375 0.89807 0.0
C1788 C 0.81771 0.8421 0.88237 0.0
C1789 C 0.79896 0.85987 0.90206 0.0
H1790 H 0.81165 0.88255 0.86473 0.0
H1791 H 0.82502 0.82995 0.87994 0.0
C1792 C 0.87092 0.83634 0.80189 0.0
N1793 N 0.89961 0.82655 0.78092 0.0
C1794 C 0.88257 0.84931 0.79527 0.0
C1795 C 0.87391 0.81837 0.79777 0.0
C1796 C 0.89697 0.8441 0.78471 0.0
C1797 C 0.88848 0.8137 0.78718 0.0
C1798 C 0.81001 0.87119 0.82923 0.0
C1799 C 0.79296 0.86491 0.83321 0.0
C1800 C 0.81316 0.88958 0.82872 0.0
C1801 C 0.7794 0.87715 0.83679 0.0
C1802 C 0.79923 0.90138 0.83233 0.0
N1803 N 0.78279 0.89497 0.83628 0.0
C1804 C 0.80361 0.81443 0.81631 0.0
C1805 C 0.82621 0.81023 0.79463 0.0
C1806 C 0.79559 0.79845 0.81149 0.0
N1807 N 0.81915 0.81938 0.80857 0.0
C1808 C 0.81862 0.79413 0.78933 0.0
C1809 C 0.80367 0.7877 0.79851 0.0
H1810 H 0.79848 0.82188 0.8275 0.0
H1811 H 0.83839 0.81473 0.78852 0.0
C1812 C 0.86924 0.89661 0.8136 0.0
N1813 N 0.85583 0.8853 0.80902 0.0
C1814 C 0.87404 0.91068 0.8022 0.0
C1815 C 0.85104 0.90132 0.78177 0.0
C1816 C 0.84677 0.88741 0.79346 0.0
C1817 C 0.86489 0.91319 0.786 0.0
H1818 H 0.87641 0.89455 0.82596 0.0
H1819 H 0.83632 0.87811 0.79004 0.0
O1820 O 0.83845 0.82591 0.84618 0.0
O1821 O 0.85928 0.86175 0.84773 0.0
O1822 O 0.85675 0.84126 0.8123 0.0
O1823 O 0.82344 0.85942 0.82553 0.0
H1824 H 0.80927 0.81177 0.86051 0.0
H1825 H 0.85684 0.79988 0.83087 0.0
H1826 H 0.80164 0.77965 0.85999 0.0
H1827 H 0.84817 0.76802 0.83055 0.0
H1828 H 0.84067 0.91172 0.87612 0.0
H1829 H 0.85905 0.8486 0.88027 0.0
H1830 H 0.85078 0.89598 0.84882 0.0
H1831 H 0.8493 0.86531 0.90713 0.0
H1832 H 0.89297 0.78934 0.87331 0.0
H1833 H 0.9235 0.81292 0.83054 0.0
H1834 H 0.7946 0.88683 0.89209 0.0
H1835 H 0.80697 0.83233 0.90688 0.0
H1836 H 0.88067 0.86324 0.79835 0.0
H1837 H 0.86521 0.80807 0.80276 0.0
H1838 H 0.90608 0.85402 0.77956 0.0
H1839 H 0.89095 0.79984 0.78398 0.0
H1840 H 0.79024 0.85078 0.83372 0.0
H1841 H 0.82623 0.89474 0.82576 0.0
H1842 H 0.76618 0.87246 0.84 0.0
H1843 H 0.80152 0.91563 0.83207 0.0
H1844 H 0.78382 0.79405 0.81856 0.0
H1845 H 0.82508 0.78624 0.7791 0.0
H1846 H 0.88476 0.91951 0.80603 0.0
H1847 H 0.84379 0.90247 0.76934 0.0
Li1848 Li 0.40736 0.5962 0.11359 0.0
Li1849 Li 0.42092 0.59239 0.08423 0.0
Li1850 Li 0.42441 0.62088 0.09817 0.0
Li1851 Li 0.39605 0.61245 0.08556 0.0
C1852 C 0.45096 0.59669 0.10583 0.0
N1853 N 0.48764 0.59633 0.10332 0.0
C1854 C 0.45935 0.60205 0.09004 0.0
C1855 C 0.46129 0.5913 0.12039 0.0
C1856 C 0.47788 0.60172 0.08902 0.0
C1857 C 0.4798 0.59117 0.11884 0.0
C1858 C 0.39361 0.56928 0.08571 0.0
C1859 C 0.39231 0.5476 0.06185 0.0
N1860 N 0.38884 0.53456 0.07399 0.0
C1861 C 0.38995 0.55561 0.0979 0.0
C1862 C 0.39471 0.5652 0.0675 0.0
C1863 C 0.3876 0.53818 0.09173 0.0
C1864 C 0.385 0.58101 0.14097 0.0
N1865 N 0.40194 0.58236 0.13478 0.0
C1866 C 0.41179 0.56081 0.15627 0.0
C1867 C 0.41523 0.57246 0.14208 0.0
C1868 C 0.39441 0.55905 0.16296 0.0
C1869 C 0.3809 0.5694 0.15508 0.0
H1870 H 0.37462 0.58846 0.1345 0.0
H1871 H 0.42842 0.57316 0.13651 0.0
C1872 C 0.43944 0.57689 0.05526 0.0
N1873 N 0.43308 0.57435 0.07202 0.0
C1874 C 0.44609 0.56246 0.04569 0.0
C1875 C 0.44058 0.54349 0.07132 0.0
C1876 C 0.43437 0.55836 0.08049 0.0
C1877 C 0.44608 0.54548 0.05359 0.0
H1878 H 0.43888 0.58996 0.0492 0.0
H1879 H 0.42963 0.55699 0.09406 0.0
C1880 C 0.40582 0.63422 0.12319 0.0
N1881 N 0.42388 0.65611 0.14658 0.0
C1882 C 0.41071 0.65139 0.11794 0.0
C1883 C 0.40896 0.62864 0.14073 0.0
C1884 C 0.42045 0.66198 0.12974 0.0
C1885 C 0.418 0.63997 0.1524 0.0
C1886 C 0.41172 0.62431 0.05819 0.0
C1887 C 0.40714 0.6424 0.05898 0.0
C1888 C 0.40795 0.61457 0.04272 0.0
C1889 C 0.39918 0.65049 0.04419 0.0
C1890 C 0.39991 0.62314 0.02824 0.0
N1891 N 0.39575 0.64078 0.02926 0.0
C1892 C 0.45264 0.63921 0.11714 0.0
C1893 C 0.44607 0.65163 0.08888 0.0
C1894 C 0.46548 0.6524 0.12026 0.0
N1895 N 0.4429 0.63924 0.1018 0.0
C1896 C 0.45864 0.66516 0.09151 0.0
C1897 C 0.46848 0.6658 0.10744 0.0
H1898 H 0.45009 0.62921 0.12724 0.0
H1899 H 0.4389 0.65108 0.07645 0.0
C1900 C 0.36759 0.6058 0.06209 0.0
N1901 N 0.37435 0.61922 0.07223 0.0
C1902 C 0.35238 0.60828 0.05177 0.0
C1903 C 0.35117 0.63882 0.06174 0.0
C1904 C 0.36642 0.63562 0.07223 0.0
C1905 C 0.34377 0.62489 0.05153 0.0
H1906 H 0.37387 0.59297 0.06213 0.0
H1907 H 0.37197 0.64626 0.08024 0.0
O1908 O 0.43279 0.59721 0.10724 0.0
O1909 O 0.39612 0.58646 0.09163 0.0
O1910 O 0.39995 0.62227 0.11076 0.0
O1911 O 0.41921 0.61606 0.07269 0.0
H1912 H 0.45169 0.6066 0.07872 0.0
H1913 H 0.45516 0.58751 0.13287 0.0
H1914 H 0.48451 0.60583 0.07688 0.0
H1915 H 0.48793 0.58705 0.13002 0.0
H1916 H 0.39337 0.54428 0.04784 0.0
H1917 H 0.38891 0.55834 0.11199 0.0
H1918 H 0.39793 0.5754 0.05782 0.0
H1919 H 0.38481 0.52751 0.10106 0.0
H1920 H 0.4226 0.55285 0.16158 0.0
H1921 H 0.36731 0.56858 0.15977 0.0
H1922 H 0.45039 0.56437 0.03202 0.0
H1923 H 0.44065 0.53055 0.07778 0.0
H1924 H 0.40834 0.65591 0.10443 0.0
H1925 H 0.40501 0.61552 0.14515 0.0
H1926 H 0.42574 0.67464 0.12531 0.0
H1927 H 0.42079 0.63572 0.16592 0.0
H1928 H 0.40918 0.65 0.07106 0.0
H1929 H 0.41089 0.60049 0.04194 0.0
H1930 H 0.3955 0.66445 0.04469 0.0
H1931 H 0.39688 0.61573 0.01623 0.0
H1932 H 0.47267 0.65234 0.13278 0.0
H1933 H 0.46079 0.67488 0.08103 0.0
H1934 H 0.3475 0.59721 0.04388 0.0
H1935 H 0.34511 0.65193 0.06183 0.0
Li1936 Li 0.17333 0.65182 0.86952 0.0
Li1937 Li 0.14515 0.66715 0.86112 0.0
Li1938 Li 0.15678 0.63945 0.84305 0.0
Li1939 Li 0.17183 0.66832 0.84257 0.0
C1940 C 0.15333 0.6269 0.87973 0.0
N1941 N 0.1702 0.60169 0.90071 0.0
C1942 C 0.15484 0.62955 0.89809 0.0
C1943 C 0.15971 0.61108 0.87219 0.0
C1944 C 0.16386 0.61685 0.90836 0.0
C1945 C 0.16814 0.59848 0.88299 0.0
C1946 C 0.17328 0.69395 0.87249 0.0
C1947 C 0.16711 0.72539 0.87606 0.0
N1948 N 0.18325 0.72761 0.88391 0.0
C1949 C 0.18983 0.69659 0.88059 0.0
C1950 C 0.16183 0.70851 0.87021 0.0
C1951 C 0.19462 0.71369 0.88626 0.0
C1952 C 0.20056 0.63308 0.88995 0.0
N1953 N 0.18882 0.64693 0.8901 0.0
C1954 C 0.19798 0.65474 0.91983 0.0
C1955 C 0.18736 0.65764 0.90472 0.0
C1956 C 0.21015 0.64049 0.9201 0.0
C1957 C 0.21133 0.62961 0.90483 0.0
H1958 H 0.20131 0.62444 0.87845 0.0
H1959 H 0.17772 0.66836 0.90477 0.0
C1960 C 0.11343 0.68644 0.85421 0.0
N1961 N 0.12488 0.68196 0.86754 0.0
C1962 C 0.0996 0.69857 0.85721 0.0
C1963 C 0.10968 0.70177 0.8876 0.0
C1964 C 0.12325 0.68937 0.88405 0.0
C1965 C 0.09748 0.70657 0.8741 0.0
H1966 H 0.11476 0.68029 0.84125 0.0
H1967 H 0.13278 0.68603 0.89434 0.0
C1968 C 0.20095 0.6449 0.84619 0.0
N1969 N 0.23765 0.64567 0.84814 0.0
C1970 C 0.20974 0.66061 0.85098 0.0
C1971 C 0.21086 0.62958 0.84235 0.0
C1972 C 0.22828 0.66074 0.85189 0.0
C1973 C 0.22939 0.63023 0.84343 0.0
C1974 C 0.14521 0.67127 0.81902 0.0
C1975 C 0.14632 0.6617 0.80305 0.0
C1976 C 0.14258 0.68976 0.81851 0.0
C1977 C 0.14484 0.6708 0.78682 0.0
C1978 C 0.14119 0.69836 0.80202 0.0
N1979 N 0.14235 0.68878 0.78665 0.0
C1980 C 0.13338 0.61669 0.82207 0.0
C1981 C 0.16402 0.60984 0.82034 0.0
C1982 C 0.12947 0.60345 0.80938 0.0
N1983 N 0.15048 0.61971 0.82722 0.0
C1984 C 0.16071 0.5964 0.80781 0.0
C1985 C 0.14327 0.59312 0.80189 0.0
H1986 H 0.12282 0.62486 0.82747 0.0
H1987 H 0.17749 0.61255 0.82445 0.0
C1988 C 0.1836 0.70101 0.82788 0.0
N1989 N 0.18325 0.68304 0.82564 0.0
C1990 C 0.18719 0.71208 0.8135 0.0
C1991 C 0.19152 0.68594 0.79503 0.0
C1992 C 0.18779 0.67531 0.80986 0.0
C1993 C 0.19047 0.70453 0.79672 0.0
H1994 H 0.17995 0.70689 0.84038 0.0
H1995 H 0.18719 0.66095 0.80848 0.0
O1996 O 0.14802 0.6406 0.86888 0.0
O1997 O 0.16819 0.67721 0.86713 0.0
O1998 O 0.18276 0.64441 0.84547 0.0
O1999 O 0.14699 0.66264 0.83505 0.0
H2000 H 0.15034 0.64189 0.90411 0.0
H2001 H 0.1588 0.60874 0.85805 0.0
H2002 H 0.16663 0.61946 0.92219 0.0
H2003 H 0.1734 0.58636 0.87721 0.0
H2004 H 0.1584 0.73675 0.87426 0.0
H2005 H 0.19893 0.68559 0.88253 0.0
H2006 H 0.1492 0.70694 0.86355 0.0
H2007 H 0.20737 0.71588 0.89255 0.0
H2008 H 0.19635 0.66331 0.93134 0.0
H2009 H 0.22052 0.6185 0.90433 0.0
H2010 H 0.09043 0.70121 0.84641 0.0
H2011 H 0.10901 0.70773 0.90074 0.0
H2012 H 0.20235 0.67258 0.8539 0.0
H2013 H 0.20435 0.6172 0.83886 0.0
H2014 H 0.23522 0.67283 0.85559 0.0
H2015 H 0.2372 0.61845 0.84059 0.0
H2016 H 0.14851 0.64744 0.80313 0.0
H2017 H 0.14199 0.69744 0.83073 0.0
H2018 H 0.14577 0.66356 0.77436 0.0
H2019 H 0.13932 0.71267 0.80145 0.0
H2020 H 0.11581 0.60163 0.80522 0.0
H2021 H 0.17181 0.58866 0.80283 0.0
H2022 H 0.18674 0.72642 0.81532 0.0
H2023 H 0.19417 0.67974 0.78225 0.0
Li2024 Li 0.09231 0.412 0.62632 0.0
Li2025 Li 0.07624 0.4124 0.5979 0.0
Li2026 Li 0.07596 0.38486 0.614 0.0
Li2027 Li 0.10277 0.39476 0.59866 0.0
C2028 C 0.0485 0.40737 0.62282 0.0
N2029 N 0.01194 0.40415 0.62466 0.0
C2030 C 0.0389 0.40108 0.60812 0.0
C2031 C 0.03949 0.41192 0.63849 0.0
C2032 C 0.02044 0.39958 0.60931 0.0
C2033 C 0.02101 0.41023 0.63914 0.0
C2034 C 0.10094 0.43762 0.59533 0.0
C2035 C 0.09923 0.45675 0.56939 0.0
N2036 N 0.1006 0.47131 0.58012 0.0
C2037 C 0.10244 0.45282 0.60605 0.0
C2038 C 0.09943 0.43964 0.5768 0.0
C2039 C 0.10221 0.46971 0.59813 0.0
C2040 C 0.11592 0.43052 0.65051 0.0
N2041 N 0.09864 0.42797 0.64581 0.0
C2042 C 0.08941 0.4506 0.66645 0.0
C2043 C 0.08547 0.43776 0.65347 0.0
C2044 C 0.10714 0.4536 0.67169 0.0
C2045 C 0.12049 0.44329 0.66343 0.0
H2046 H 0.12619 0.42284 0.64399 0.0
H2047 H 0.0719 0.43598 0.6491 0.0
C2048 C 0.05694 0.42547 0.56807 0.0
N2049 N 0.06208 0.42849 0.58517 0.0
C2050 C 0.04998 0.43942 0.55796 0.0
C2051 C 0.05222 0.45861 0.58389 0.0
C2052 C 0.059 0.44429 0.59349 0.0
C2053 C 0.04833 0.45638 0.56574 0.0
H2054 H 0.05907 0.41256 0.56206 0.0
H2055 H 0.063 0.44606 0.60724 0.0
C2056 C 0.09726 0.37568 0.6392 0.0
N2057 N 0.0849 0.35553 0.66754 0.0
C2058 C 0.09336 0.35764 0.63684 0.0
C2059 C 0.09532 0.38333 0.6561 0.0
C2060 C 0.08697 0.34773 0.65131 0.0
C2061 C 0.08897 0.37299 0.67021 0.0
C2062 C 0.08577 0.37853 0.57394 0.0
C2063 C 0.08982 0.36041 0.57611 0.0
C2064 C 0.08899 0.38672 0.55746 0.0
C2065 C 0.09649 0.35072 0.56166 0.0
C2066 C 0.09582 0.3766 0.54338 0.0
N2067 N 0.09935 0.35895 0.54573 0.0
C2068 C 0.05125 0.3642 0.63604 0.0
C2069 C 0.0535 0.35471 0.60606 0.0
C2070 C 0.03856 0.35091 0.63958 0.0
N2071 N 0.05886 0.3656 0.61957 0.0
C2072 C 0.04105 0.34117 0.60903 0.0
C2073 C 0.0334 0.33903 0.62599 0.0
H2074 H 0.05505 0.37341 0.64647 0.0
H2075 H 0.0584 0.35681 0.59273 0.0
C2076 C 0.13061 0.40327 0.57475 0.0
N2077 N 0.12373 0.3891 0.58376 0.0
C2078 C 0.14399 0.40102 0.56204 0.0
C2079 C 0.144 0.3695 0.56843 0.0
C2080 C 0.13033 0.37238 0.58096 0.0
C2081 C 0.15099 0.38397 0.55864 0.0
H2082 H 0.12587 0.41649 0.57748 0.0
H2083 H 0.12495 0.36121 0.58833 0.0
O2084 O 0.06665 0.40853 0.62212 0.0
O2085 O 0.10087 0.42092 0.60292 0.0
O2086 O 0.10123 0.38618 0.62479 0.0
O2087 O 0.07922 0.38828 0.58797 0.0
H2088 H 0.04563 0.39718 0.59598 0.0
H2089 H 0.0467 0.4165 0.65011 0.0
H2090 H 0.01287 0.39469 0.59804 0.0
H2091 H 0.01387 0.41369 0.65119 0.0
H2092 H 0.09787 0.45846 0.55511 0.0
H2093 H 0.10373 0.45169 0.62035 0.0
H2094 H 0.09808 0.42811 0.56824 0.0
H2095 H 0.10329 0.48156 0.60631 0.0
H2096 H 0.07863 0.45846 0.6719 0.0
H2097 H 0.13434 0.44491 0.66697 0.0
H2098 H 0.04699 0.43725 0.54399 0.0
H2099 H 0.05079 0.47148 0.59034 0.0
H2100 H 0.09421 0.35167 0.62373 0.0
H2101 H 0.09829 0.39718 0.65835 0.0
H2102 H 0.0829 0.33408 0.64945 0.0
H2103 H 0.08711 0.37892 0.68324 0.0
H2104 H 0.08833 0.35398 0.58895 0.0
H2105 H 0.08652 0.40079 0.55558 0.0
H2106 H 0.09968 0.33671 0.5632 0.0
H2107 H 0.09839 0.3828 0.5306 0.0
H2108 H 0.03294 0.3499 0.65284 0.0
H2109 H 0.03705 0.33281 0.59795 0.0
H2110 H 0.14924 0.41273 0.5554 0.0
H2111 H 0.14895 0.35608 0.56637 0.0
Li2112 Li 0.17998 0.34418 0.66168 0.0
Li2113 Li 0.16312 0.37298 0.66216 0.0
Li2114 Li 0.15167 0.34632 0.64479 0.0
Li2115 Li 0.17863 0.36127 0.63531 0.0
C2116 C 0.14466 0.34583 0.68476 0.0
N2117 N 0.12154 0.3395 0.71281 0.0
C2118 C 0.12911 0.35585 0.68649 0.0
C2119 C 0.14807 0.3321 0.69698 0.0
C2120 C 0.11774 0.35265 0.7009 0.0
C2121 C 0.1363 0.32917 0.71109 0.0
C2122 C 0.20723 0.36914 0.65762 0.0
C2123 C 0.23508 0.38408 0.6631 0.0
N2124 N 0.24385 0.37035 0.65512 0.0
C2125 C 0.21651 0.3552 0.64943 0.0
C2126 C 0.21656 0.38373 0.66447 0.0
C2127 C 0.23502 0.35605 0.64831 0.0
C2128 C 0.20196 0.31476 0.66904 0.0
N2129 N 0.194 0.32935 0.67624 0.0
C2130 C 0.19828 0.31823 0.70568 0.0
C2131 C 0.1933 0.33196 0.69416 0.0
C2132 C 0.20407 0.30201 0.69841 0.0
C2133 C 0.20691 0.30065 0.67998 0.0
H2134 H 0.20305 0.31337 0.65473 0.0
H2135 H 0.18717 0.34392 0.69942 0.0
C2136 C 0.14044 0.39934 0.67905 0.0
N2137 N 0.15706 0.39216 0.67846 0.0
C2138 C 0.13617 0.41239 0.69171 0.0
C2139 C 0.16639 0.41111 0.70245 0.0
C2140 C 0.16994 0.39774 0.6899 0.0
C2141 C 0.14927 0.41858 0.70354 0.0
H2142 H 0.13048 0.39501 0.66962 0.0
H2143 H 0.18297 0.39166 0.68941 0.0
C2144 C 0.17187 0.31706 0.63709 0.0
N2145 N 0.16644 0.2805 0.63682 0.0
C2146 C 0.17654 0.30692 0.62212 0.0
C2147 C 0.16445 0.30848 0.65191 0.0
C2148 C 0.17369 0.28849 0.62224 0.0
C2149 C 0.16181 0.29003 0.65154 0.0
C2150 C 0.15727 0.38694 0.62628 0.0
C2151 C 0.16171 0.38456 0.60837 0.0
C2152 C 0.15803 0.40409 0.63362 0.0
C2153 C 0.16807 0.39906 0.5985 0.0
C2154 C 0.16358 0.41841 0.62308 0.0
N2155 N 0.1687 0.41559 0.60592 0.0
C2156 C 0.12365 0.32165 0.65164 0.0
C2157 C 0.12552 0.33009 0.62128 0.0
C2158 C 0.10992 0.30975 0.6479 0.0
N2159 N 0.13108 0.33176 0.63851 0.0
C2160 C 0.11154 0.3184 0.61693 0.0
C2161 C 0.10336 0.30823 0.63044 0.0
H2162 H 0.12862 0.32234 0.66506 0.0
H2163 H 0.13194 0.33779 0.61091 0.0
C2164 C 0.20514 0.38055 0.61434 0.0
N2165 N 0.1942 0.36609 0.61519 0.0
C2166 C 0.21731 0.38231 0.60028 0.0
C2167 C 0.20662 0.35444 0.58819 0.0
C2168 C 0.19454 0.35336 0.60227 0.0
C2169 C 0.21837 0.36894 0.58715 0.0
H2170 H 0.20461 0.39057 0.62472 0.0
H2171 H 0.18543 0.34229 0.60298 0.0
O2172 O 0.15615 0.34903 0.6709 0.0
O2173 O 0.18907 0.36877 0.65856 0.0
O2174 O 0.1744 0.33522 0.63708 0.0
O2175 O 0.15348 0.37246 0.63684 0.0
H2176 H 0.12577 0.36578 0.67664 0.0
H2177 H 0.15943 0.32346 0.69544 0.0
H2178 H 0.10583 0.36054 0.70261 0.0
H2179 H 0.13886 0.31863 0.72063 0.0
H2180 H 0.24248 0.3953 0.66833 0.0
H2181 H 0.20948 0.34399 0.64372 0.0
H2182 H 0.20958 0.39474 0.67065 0.0
H2183 H 0.24236 0.34538 0.64195 0.0
H2184 H 0.19612 0.31969 0.71991 0.0
H2185 H 0.21179 0.28839 0.67406 0.0
H2186 H 0.12281 0.41776 0.69205 0.0
H2187 H 0.17683 0.41524 0.7115 0.0
H2188 H 0.18236 0.31312 0.6105 0.0
H2189 H 0.16089 0.31592 0.66368 0.0
H2190 H 0.17725 0.28054 0.61074 0.0
H2191 H 0.15612 0.28331 0.66297 0.0
H2192 H 0.16125 0.3714 0.60249 0.0
H2193 H 0.15466 0.40641 0.64735 0.0
H2194 H 0.17287 0.39712 0.58506 0.0
H2195 H 0.16419 0.43171 0.62867 0.0
H2196 H 0.10444 0.30182 0.65867 0.0
H2197 H 0.10699 0.31759 0.60324 0.0
H2198 H 0.22617 0.3937 0.60001 0.0
H2199 H 0.20674 0.34402 0.57816 0.0
Li2200 Li 0.33665 0.66182 0.17251 0.0
Li2201 Li 0.35241 0.63326 0.17195 0.0
Li2202 Li 0.36294 0.66071 0.15353 0.0
Li2203 Li 0.33557 0.64491 0.14571 0.0
C2204 C 0.36393 0.66609 0.19519 0.0
N2205 N 0.36777 0.68518 0.22651 0.0
C2206 C 0.36415 0.65723 0.21161 0.0
C2207 C 0.36578 0.68466 0.1947 0.0
C2208 C 0.36605 0.66712 0.2273 0.0
C2209 C 0.36771 0.69406 0.21067 0.0
C2210 C 0.30847 0.63663 0.17081 0.0
C2211 C 0.28201 0.6196 0.1771 0.0
N2212 N 0.2719 0.63391 0.1724 0.0
C2213 C 0.29783 0.65119 0.16614 0.0
C2214 C 0.30054 0.62072 0.17642 0.0
C2215 C 0.27936 0.64954 0.167 0.0
C2216 C 0.32437 0.69441 0.18632 0.0
N2217 N 0.3251 0.67655 0.1892 0.0
C2218 C 0.31787 0.68036 0.21996 0.0
C2219 C 0.32125 0.66929 0.20539 0.0
C2220 C 0.31864 0.69889 0.21758 0.0
C2221 C 0.32116 0.70592 0.20044 0.0
H2222 H 0.32765 0.69987 0.17349 0.0
H2223 H 0.32224 0.655 0.20727 0.0
C2224 C 0.37323 0.60339 0.1863 0.0
N2225 N 0.35835 0.61365 0.18766 0.0
C2226 C 0.37599 0.58911 0.19817 0.0
C2227 C 0.34837 0.59659 0.21274 0.0
C2228 C 0.34615 0.61062 0.20068 0.0
C2229 C 0.36326 0.58528 0.21144 0.0
H2230 H 0.38283 0.60613 0.1759 0.0
H2231 H 0.3346 0.61917 0.20169 0.0
C2232 C 0.33301 0.68577 0.14096 0.0
N2233 N 0.31968 0.71684 0.12615 0.0
C2234 C 0.31633 0.68582 0.13271 0.0
C2235 C 0.34288 0.70158 0.14169 0.0
C2236 C 0.30984 0.70165 0.1253 0.0
C2237 C 0.33591 0.71713 0.13413 0.0
C2238 C 0.35431 0.61994 0.13626 0.0
C2239 C 0.35704 0.61906 0.11784 0.0
C2240 C 0.34379 0.60695 0.14461 0.0
C2241 C 0.3491 0.60526 0.10812 0.0
C2242 C 0.33628 0.5933 0.13444 0.0
N2243 N 0.33903 0.59277 0.11653 0.0
C2244 C 0.39412 0.68079 0.15946 0.0
C2245 C 0.38245 0.68429 0.13031 0.0
C2246 C 0.4067 0.69417 0.15636 0.0
N2247 N 0.38226 0.67615 0.14657 0.0
C2248 C 0.3949 0.69774 0.1266 0.0
C2249 C 0.40727 0.70289 0.13974 0.0
H2250 H 0.39385 0.6741 0.17222 0.0
H2251 H 0.37261 0.68071 0.12041 0.0
C2252 C 0.30622 0.62929 0.12566 0.0
N2253 N 0.32097 0.63975 0.12496 0.0
C2254 C 0.29528 0.62742 0.11067 0.0
C2255 C 0.31543 0.64621 0.09413 0.0
C2256 C 0.32582 0.64795 0.1095 0.0
C2257 C 0.29967 0.6361 0.09457 0.0
H2258 H 0.3027 0.62257 0.1379 0.0
H2259 H 0.3377 0.65608 0.1092 0.0
O2260 O 0.36177 0.65665 0.17969 0.0
O2261 O 0.32657 0.63784 0.16992 0.0
O2262 O 0.33981 0.67031 0.14797 0.0
O2263 O 0.36078 0.63398 0.146 0.0
H2264 H 0.3628 0.64288 0.21226 0.0
H2265 H 0.36541 0.69177 0.18213 0.0
H2266 H 0.36615 0.66044 0.24011 0.0
H2267 H 0.36907 0.70843 0.21047 0.0
H2268 H 0.27568 0.60735 0.18133 0.0
H2269 H 0.30376 0.66363 0.16195 0.0
H2270 H 0.30862 0.60932 0.18005 0.0
H2271 H 0.27096 0.6607 0.16338 0.0
H2272 H 0.31586 0.6746 0.23307 0.0
H2273 H 0.32152 0.72021 0.19818 0.0
H2274 H 0.38772 0.5809 0.19665 0.0
H2275 H 0.33842 0.59464 0.22299 0.0
H2276 H 0.30844 0.67379 0.13198 0.0
H2277 H 0.3556 0.70196 0.14838 0.0
H2278 H 0.29697 0.70184 0.11885 0.0
H2279 H 0.34339 0.72946 0.13469 0.0
H2280 H 0.36473 0.62923 0.11111 0.0
H2281 H 0.34114 0.60748 0.15873 0.0
H2282 H 0.35066 0.60454 0.09386 0.0
H2283 H 0.32813 0.58323 0.14077 0.0
H2284 H 0.41616 0.69731 0.16678 0.0
H2285 H 0.39468 0.70417 0.11365 0.0
H2286 H 0.28324 0.61963 0.11196 0.0
H2287 H 0.31972 0.65289 0.08209 0.0
Li2288 Li 0.58309 0.61404 0.61608 0.0
Li2289 Li 0.59959 0.58744 0.62694 0.0
Li2290 Li 0.61044 0.60543 0.60053 0.0
Li2291 Li 0.58471 0.58641 0.59736 0.0
C2292 C 0.60553 0.62487 0.64013 0.0
N2293 N 0.59768 0.64878 0.66708 0.0
C2294 C 0.60208 0.61874 0.65741 0.0
C2295 C 0.60514 0.64313 0.63659 0.0
C2296 C 0.59806 0.63103 0.67085 0.0
C2297 C 0.60113 0.65503 0.65039 0.0
C2298 C 0.55975 0.58454 0.63112 0.0
C2299 C 0.53423 0.56562 0.63575 0.0
N2300 N 0.53072 0.57435 0.65127 0.0
C2301 C 0.55587 0.59332 0.64709 0.0
C2302 C 0.54884 0.57059 0.62536 0.0
C2303 C 0.54115 0.58797 0.65711 0.0
C2304 C 0.55812 0.64004 0.6062 0.0
N2305 N 0.56642 0.63334 0.62089 0.0
C2306 C 0.55109 0.6544 0.63946 0.0
C2307 C 0.56262 0.63988 0.63742 0.0
C2308 C 0.54292 0.66195 0.6244 0.0
C2309 C 0.54645 0.65445 0.60761 0.0
H2310 H 0.56049 0.63419 0.59327 0.0
H2311 H 0.56854 0.63398 0.64908 0.0
C2312 C 0.62185 0.5629 0.6454 0.0
N2313 N 0.60613 0.57174 0.64677 0.0
C2314 C 0.62672 0.54997 0.65794 0.0
C2315 C 0.59971 0.55619 0.67405 0.0
C2316 C 0.59512 0.56862 0.66084 0.0
C2317 C 0.61565 0.54638 0.67268 0.0
H2318 H 0.63048 0.56552 0.63424 0.0
H2319 H 0.58279 0.57583 0.66198 0.0
C2320 C 0.59121 0.62143 0.57566 0.0
N2321 N 0.60024 0.64141 0.546 0.0
C2322 C 0.59334 0.61316 0.55908 0.0
C2323 C 0.59365 0.63988 0.57715 0.0
C2324 C 0.59794 0.62349 0.54425 0.0
C2325 C 0.59818 0.64975 0.56199 0.0
C2326 C 0.61078 0.56067 0.60387 0.0
C2327 C 0.62673 0.5525 0.59883 0.0
C2328 C 0.59668 0.55018 0.61001 0.0
C2329 C 0.62828 0.53395 0.6 0.0
C2330 C 0.59876 0.53168 0.61098 0.0
N2331 N 0.61439 0.52401 0.60601 0.0
C2332 C 0.63524 0.59852 0.57398 0.0
C2333 C 0.63502 0.62926 0.58113 0.0
C2334 C 0.64754 0.60138 0.56033 0.0
N2335 N 0.62951 0.61224 0.58437 0.0
C2336 C 0.64726 0.6328 0.56737 0.0
C2337 C 0.654 0.61865 0.55697 0.0
H2338 H 0.62992 0.58531 0.57598 0.0
H2339 H 0.62994 0.6401 0.58918 0.0
C2340 C 0.55551 0.57905 0.57671 0.0
N2341 N 0.57253 0.57397 0.5799 0.0
C2342 C 0.54699 0.57349 0.5612 0.0
C2343 C 0.57361 0.55722 0.55297 0.0
C2344 C 0.58164 0.56319 0.56855 0.0
C2345 C 0.55624 0.56275 0.54899 0.0
H2346 H 0.54894 0.58817 0.58576 0.0
H2347 H 0.59546 0.56017 0.57097 0.0
O2348 O 0.60838 0.61305 0.62654 0.0
O2349 O 0.574 0.58968 0.621 0.0
O2350 O 0.5871 0.61147 0.59043 0.0
O2351 O 0.60917 0.57887 0.60311 0.0
H2352 H 0.6024 0.60468 0.66044 0.0
H2353 H 0.60721 0.64785 0.62314 0.0
H2354 H 0.59532 0.62645 0.68427 0.0
H2355 H 0.60024 0.66917 0.64775 0.0
H2356 H 0.52569 0.55483 0.63147 0.0
H2357 H 0.56439 0.60385 0.65192 0.0
H2358 H 0.55163 0.56364 0.61302 0.0
H2359 H 0.53807 0.59459 0.66956 0.0
H2360 H 0.54839 0.65946 0.65273 0.0
H2361 H 0.54039 0.65977 0.59562 0.0
H2362 H 0.63898 0.54276 0.65577 0.0
H2363 H 0.59087 0.5546 0.68532 0.0
H2364 H 0.59165 0.5989 0.5577 0.0
H2365 H 0.59238 0.64648 0.58994 0.0
H2366 H 0.59972 0.61725 0.53136 0.0
H2367 H 0.60021 0.66401 0.56298 0.0
H2368 H 0.63789 0.5604 0.5943 0.0
H2369 H 0.58431 0.55624 0.61407 0.0
H2370 H 0.64057 0.52747 0.59621 0.0
H2371 H 0.58797 0.52341 0.61574 0.0
H2372 H 0.65177 0.59013 0.55232 0.0
H2373 H 0.65178 0.64636 0.56528 0.0
H2374 H 0.53353 0.5779 0.55855 0.0
H2375 H 0.58121 0.54919 0.54368 0.0
Li2376 Li 0.90975 0.40912 0.1215 0.0
Li2377 Li 0.92777 0.38323 0.1099 0.0
Li2378 Li 0.92267 0.41044 0.09087 0.0
Li2379 Li 0.89865 0.38989 0.0962 0.0
C2380 C 0.94872 0.41672 0.12277 0.0
N2381 N 0.9765 0.43315 0.14051 0.0
C2382 C 0.95473 0.41 0.13909 0.0
C2383 C 0.9569 0.4318 0.11545 0.0
C2384 C 0.96875 0.41849 0.14787 0.0
C2385 C 0.97091 0.43992 0.12462 0.0
C2386 C 0.90802 0.3722 0.13628 0.0
C2387 C 0.92089 0.34511 0.14787 0.0
N2388 N 0.92098 0.35231 0.16452 0.0
C2389 C 0.90802 0.37924 0.15352 0.0
C2390 C 0.914 0.35479 0.13349 0.0
C2391 C 0.91459 0.36899 0.16764 0.0
C2392 C 0.88837 0.43485 0.14031 0.0
N2393 N 0.90353 0.42502 0.14168 0.0
C2394 C 0.91069 0.44011 0.16908 0.0
C2395 C 0.91443 0.42721 0.15603 0.0
C2396 C 0.8957 0.4513 0.16735 0.0
C2397 C 0.88435 0.44819 0.15274 0.0
H2398 H 0.87958 0.43278 0.12918 0.0
H2399 H 0.92604 0.41894 0.15749 0.0
C2400 C 0.95245 0.35695 0.09874 0.0
N2401 N 0.94687 0.36563 0.11367 0.0
C2402 C 0.96572 0.34395 0.09959 0.0
C2403 C 0.9685 0.34966 0.1311 0.0
C2404 C 0.95486 0.36237 0.12967 0.0
C2405 C 0.97411 0.34009 0.11592 0.0
H2406 H 0.94674 0.36016 0.08597 0.0
H2407 H 0.9505 0.36933 0.14148 0.0
C2408 C 0.89528 0.43449 0.09766 0.0
N2409 N 0.88901 0.47086 0.09707 0.0
C2410 C 0.87892 0.4411 0.09174 0.0
C2411 C 0.90843 0.44641 0.10326 0.0
C2412 C 0.876 0.45952 0.09155 0.0
C2413 C 0.90502 0.46473 0.10286 0.0
C2414 C 0.91652 0.37452 0.07045 0.0
C2415 C 0.9139 0.382 0.05356 0.0
C2416 C 0.91351 0.35627 0.07302 0.0
C2417 C 0.90825 0.37112 0.03953 0.0
C2418 C 0.90795 0.34582 0.05863 0.0
N2419 N 0.90542 0.35341 0.04233 0.0
C2420 C 0.95014 0.4199 0.06894 0.0
C2421 C 0.92215 0.432 0.06058 0.0
C2422 C 0.95758 0.42538 0.05287 0.0
N2423 N 0.93274 0.42319 0.07234 0.0
C2424 C 0.92902 0.43766 0.0443 0.0
C2425 C 0.94684 0.43398 0.04018 0.0
H2426 H 0.95795 0.41225 0.07836 0.0
H2427 H 0.90813 0.43355 0.06328 0.0
C2428 C 0.87304 0.3947 0.07007 0.0
N2429 N 0.87886 0.38187 0.08149 0.0
C2430 C 0.85992 0.39101 0.05744 0.0
C2431 C 0.85946 0.36049 0.06767 0.0
C2432 C 0.87255 0.36489 0.08033 0.0
C2433 C 0.85286 0.37369 0.05594 0.0
H2434 H 0.87886 0.40784 0.07049 0.0
H2435 H 0.87793 0.3547 0.08895 0.0
O2436 O 0.93514 0.40843 0.11385 0.0
O2437 O 0.903 0.38258 0.12212 0.0
O2438 O 0.89832 0.41646 0.09809 0.0
O2439 O 0.92162 0.38506 0.08449 0.0
H2440 H 0.94829 0.39867 0.14517 0.0
H2441 H 0.95251 0.43724 0.10283 0.0
H2442 H 0.97341 0.41348 0.16058 0.0
H2443 H 0.97733 0.4516 0.1191 0.0
H2444 H 0.92654 0.33204 0.14572 0.0
H2445 H 0.903 0.39249 0.15599 0.0
H2446 H 0.91411 0.34912 0.1202 0.0
H2447 H 0.91477 0.37436 0.18104 0.0
H2448 H 0.91957 0.44121 0.18038 0.0
H2449 H 0.87265 0.45629 0.15047 0.0
H2450 H 0.96921 0.33695 0.08746 0.0
H2451 H 0.97466 0.34756 0.14398 0.0
H2452 H 0.86849 0.43214 0.08751 0.0
H2453 H 0.92106 0.44155 0.10803 0.0
H2454 H 0.86338 0.4648 0.08707 0.0
H2455 H 0.91508 0.47407 0.10721 0.0
H2456 H 0.91605 0.39608 0.05131 0.0
H2457 H 0.91517 0.35028 0.08607 0.0
H2458 H 0.90608 0.37676 0.02641 0.0
H2459 H 0.90548 0.33171 0.06047 0.0
H2460 H 0.97146 0.42255 0.05025 0.0
H2461 H 0.92029 0.44405 0.03473 0.0
H2462 H 0.85531 0.40184 0.04907 0.0
H2463 H 0.85489 0.34682 0.06689 0.0
Li2464 Li 0.67521 0.66842 0.65913 0.0
Li2465 Li 0.65133 0.66617 0.63732 0.0
Li2466 Li 0.66203 0.6387 0.65398 0.0
Li2467 Li 0.68072 0.65283 0.62939 0.0
C2468 C 0.64418 0.66273 0.68048 0.0
N2469 N 0.63181 0.66661 0.7151 0.0
C2470 C 0.62917 0.6732 0.68402 0.0
C2471 C 0.65265 0.65403 0.69464 0.0
C2472 C 0.62318 0.67505 0.70157 0.0
C2473 C 0.64628 0.6562 0.71201 0.0
C2474 C 0.67034 0.69399 0.62697 0.0
C2475 C 0.66009 0.71059 0.60138 0.0
N2476 N 0.65992 0.72573 0.61139 0.0
C2477 C 0.67016 0.70971 0.637 0.0
C2478 C 0.66535 0.6944 0.609 0.0
C2479 C 0.66482 0.72563 0.62888 0.0
C2480 C 0.70455 0.68009 0.67693 0.0
N2481 N 0.68662 0.68205 0.67657 0.0
C2482 C 0.68642 0.69408 0.70595 0.0
C2483 C 0.67761 0.69 0.69012 0.0
C2484 C 0.70455 0.68999 0.70748 0.0
C2485 C 0.71386 0.68383 0.69249 0.0
H2486 H 0.7113 0.6739 0.66578 0.0
H2487 H 0.66342 0.69195 0.68919 0.0
C2488 C 0.62816 0.69507 0.64129 0.0
N2489 N 0.63129 0.68143 0.62974 0.0
C2490 C 0.61389 0.70676 0.63876 0.0
C2491 C 0.60667 0.69116 0.6116 0.0
C2492 C 0.6212 0.67965 0.61472 0.0
C2493 C 0.60267 0.70493 0.62383 0.0
H2494 H 0.63675 0.69679 0.65272 0.0
H2495 H 0.62421 0.66916 0.60529 0.0
C2496 C 0.69867 0.63527 0.66454 0.0
N2497 N 0.7211 0.61461 0.68545 0.0
C2498 C 0.70933 0.62208 0.6568 0.0
C2499 C 0.6997 0.63802 0.683 0.0
C2500 C 0.72048 0.61173 0.66755 0.0
C2501 C 0.71105 0.62746 0.69332 0.0
C2502 C 0.65956 0.62502 0.61888 0.0
C2503 C 0.65358 0.60894 0.62621 0.0
C2504 C 0.66926 0.62468 0.60303 0.0
C2505 C 0.65878 0.59281 0.61842 0.0
C2506 C 0.67425 0.6083 0.59563 0.0
N2507 N 0.66903 0.59282 0.60348 0.0
C2508 C 0.64152 0.61737 0.67809 0.0
C2509 C 0.66798 0.60301 0.66913 0.0
C2510 C 0.63803 0.60393 0.69057 0.0
N2511 N 0.65656 0.6171 0.66803 0.0
C2512 C 0.66508 0.58926 0.68152 0.0
C2513 C 0.65011 0.58979 0.69279 0.0
H2514 H 0.63262 0.62854 0.67702 0.0
H2515 H 0.67951 0.60252 0.6606 0.0
C2516 C 0.7056 0.66596 0.60355 0.0
N2517 N 0.70004 0.65068 0.61168 0.0
C2518 C 0.71941 0.66563 0.59099 0.0
C2519 C 0.72188 0.63387 0.59538 0.0
C2520 C 0.70817 0.63485 0.60796 0.0
C2521 C 0.72777 0.6494 0.58665 0.0
H2522 H 0.69947 0.67853 0.60692 0.0
H2523 H 0.7037 0.62275 0.61431 0.0
O2524 O 0.65032 0.6608 0.66329 0.0
O2525 O 0.67504 0.67819 0.63482 0.0
O2526 O 0.68763 0.64554 0.65407 0.0
O2527 O 0.65582 0.64098 0.627 0.0
H2528 H 0.62197 0.67966 0.67339 0.0
H2529 H 0.66369 0.64526 0.6922 0.0
H2530 H 0.6116 0.68313 0.70442 0.0
H2531 H 0.65277 0.64947 0.72301 0.0
H2532 H 0.65607 0.7111 0.58753 0.0
H2533 H 0.67393 0.70957 0.65095 0.0
H2534 H 0.6653 0.68229 0.60112 0.0
H2535 H 0.66452 0.73789 0.63649 0.0
H2536 H 0.67895 0.69917 0.71721 0.0
H2537 H 0.72798 0.68101 0.69313 0.0
H2538 H 0.61153 0.71693 0.64873 0.0
H2539 H 0.59877 0.68932 0.59967 0.0
H2540 H 0.70879 0.61953 0.64271 0.0
H2541 H 0.69215 0.6484 0.6894 0.0
H2542 H 0.72863 0.60139 0.66166 0.0
H2543 H 0.71192 0.62955 0.70758 0.0
H2544 H 0.64493 0.60886 0.63769 0.0
H2545 H 0.67286 0.63699 0.59642 0.0
H2546 H 0.65479 0.58029 0.62427 0.0
H2547 H 0.6822 0.60793 0.58361 0.0
H2548 H 0.6263 0.60503 0.69887 0.0
H2549 H 0.67451 0.57837 0.68233 0.0
H2550 H 0.72364 0.67807 0.58497 0.0
H2551 H 0.72759 0.62095 0.59234 0.0
Li2552 Li 0.40512 0.39289 0.41573 0.0
Li2553 Li 0.43156 0.38458 0.39988 0.0
Li2554 Li 0.43157 0.41236 0.41477 0.0
Li2555 Li 0.4137 0.40963 0.38722 0.0
C2556 C 0.42824 0.38948 0.44419 0.0
N2557 N 0.4257 0.39154 0.48096 0.0
C2558 C 0.43451 0.37551 0.45486 0.0
C2559 C 0.42074 0.40451 0.45226 0.0
C2560 C 0.43309 0.3768 0.47341 0.0
C2561 C 0.41955 0.40531 0.47085 0.0
C2562 C 0.41085 0.37234 0.37671 0.0
C2563 C 0.4227 0.36746 0.34719 0.0
N2564 N 0.42535 0.34997 0.35124 0.0
C2565 C 0.41334 0.35426 0.38047 0.0
C2566 C 0.41542 0.37896 0.35988 0.0
C2567 C 0.42091 0.34321 0.36748 0.0
C2568 C 0.3784 0.40009 0.4412 0.0
N2569 N 0.38547 0.38658 0.43137 0.0
C2570 C 0.36468 0.36595 0.44431 0.0
C2571 C 0.37926 0.36958 0.43311 0.0
C2572 C 0.35668 0.37991 0.45403 0.0
C2573 C 0.36416 0.39702 0.45273 0.0
H2574 H 0.38375 0.41339 0.44013 0.0
H2575 H 0.38529 0.35894 0.42546 0.0
C2576 C 0.45855 0.36435 0.38042 0.0
N2577 N 0.44777 0.3648 0.39502 0.0
C2578 C 0.47077 0.35038 0.37813 0.0
C2579 C 0.46051 0.33751 0.40581 0.0
C2580 C 0.4485 0.35166 0.40753 0.0
C2581 C 0.47201 0.33671 0.391 0.0
H2582 H 0.45772 0.37486 0.37055 0.0
H2583 H 0.43976 0.35223 0.41896 0.0
C2584 C 0.39616 0.43343 0.41273 0.0
N2585 N 0.37482 0.46335 0.41564 0.0
C2586 C 0.38086 0.43502 0.40231 0.0
C2587 C 0.40035 0.44687 0.42499 0.0
C2588 C 0.37037 0.45036 0.4038 0.0
C2589 C 0.38942 0.46189 0.42624 0.0
C2590 C 0.45774 0.40905 0.38891 0.0
C2591 C 0.46861 0.40216 0.4024 0.0
C2592 C 0.46541 0.4175 0.37418 0.0
C2593 C 0.48704 0.40379 0.40088 0.0
C2594 C 0.48391 0.41887 0.37316 0.0
N2595 N 0.49424 0.41205 0.38641 0.0
C2596 C 0.45556 0.42898 0.43968 0.0
C2597 C 0.44389 0.44581 0.41549 0.0
C2598 C 0.46501 0.44382 0.44567 0.0
N2599 N 0.44505 0.43045 0.42503 0.0
C2600 C 0.45305 0.46089 0.42095 0.0
C2601 C 0.46366 0.46003 0.43628 0.0
H2602 H 0.45666 0.41638 0.44663 0.0
H2603 H 0.43555 0.44635 0.40378 0.0
C2604 C 0.39088 0.42346 0.35884 0.0
N2605 N 0.40628 0.42548 0.3681 0.0
C2606 C 0.38561 0.43634 0.34629 0.0
C2607 C 0.41207 0.45314 0.35304 0.0
C2608 C 0.41682 0.43996 0.3654 0.0
C2609 C 0.39629 0.45151 0.34304 0.0
H2610 H 0.38252 0.41202 0.36144 0.0
H2611 H 0.42887 0.44145 0.3731 0.0
O2612 O 0.42929 0.38819 0.42597 0.0
O2613 O 0.40579 0.38387 0.38992 0.0
O2614 O 0.40698 0.41881 0.41095 0.0
O2615 O 0.43966 0.40777 0.39019 0.0
H2616 H 0.44039 0.36376 0.44889 0.0
H2617 H 0.41594 0.4155 0.44431 0.0
H2618 H 0.43787 0.36607 0.48181 0.0
H2619 H 0.41375 0.41688 0.47723 0.0
H2620 H 0.42655 0.37252 0.33423 0.0
H2621 H 0.41046 0.34909 0.39364 0.0
H2622 H 0.4139 0.39294 0.35677 0.0
H2623 H 0.42381 0.32942 0.37049 0.0
H2624 H 0.35946 0.3525 0.44499 0.0
H2625 H 0.35886 0.40809 0.46035 0.0
H2626 H 0.47907 0.35027 0.36633 0.0
H2627 H 0.461 0.32752 0.41624 0.0
H2628 H 0.37719 0.42453 0.39315 0.0
H2629 H 0.41185 0.44574 0.43356 0.0
H2630 H 0.35869 0.45196 0.39555 0.0
H2631 H 0.39255 0.4724 0.43562 0.0
H2632 H 0.46288 0.39563 0.41393 0.0
H2633 H 0.45716 0.42293 0.36365 0.0
H2634 H 0.49561 0.39851 0.41121 0.0
H2635 H 0.49004 0.42537 0.36182 0.0
H2636 H 0.47335 0.44261 0.45739 0.0
H2637 H 0.45154 0.47318 0.41347 0.0
H2638 H 0.37328 0.43426 0.33922 0.0
H2639 H 0.42063 0.46466 0.35171 0.0
Li2640 Li 0.10792 0.60605 0.91595 0.0
Li2641 Li 0.08154 0.61482 0.90014 0.0
Li2642 Li 0.08143 0.58659 0.91455 0.0
Li2643 Li 0.09982 0.59075 0.88702 0.0
C2644 C 0.08466 0.60865 0.94426 0.0
N2645 N 0.08731 0.60542 0.98093 0.0
C2646 C 0.0774 0.62173 0.95538 0.0
C2647 C 0.09327 0.59391 0.95181 0.0
C2648 C 0.07887 0.61986 0.97388 0.0
C2649 C 0.09447 0.59253 0.97037 0.0
C2650 C 0.10295 0.62938 0.8793 0.0
C2651 C 0.09114 0.63849 0.8508 0.0
N2652 N 0.08714 0.65472 0.85782 0.0
C2653 C 0.09992 0.64652 0.88586 0.0
C2654 C 0.09882 0.62537 0.86156 0.0
C2655 C 0.09118 0.65886 0.87503 0.0
C2656 C 0.13679 0.59801 0.93866 0.0
N2657 N 0.12716 0.61189 0.93205 0.0
C2658 C 0.14429 0.63251 0.9495 0.0
C2659 C 0.13042 0.62891 0.93747 0.0
C2660 C 0.15488 0.61841 0.95607 0.0
C2661 C 0.15073 0.60095 0.95056 0.0
H2662 H 0.13374 0.58454 0.93469 0.0
H2663 H 0.12233 0.63972 0.93237 0.0
C2664 C 0.05515 0.6344 0.87956 0.0
N2665 N 0.06471 0.63409 0.89498 0.0
C2666 C 0.04352 0.64852 0.87588 0.0
C2667 C 0.05186 0.66203 0.90387 0.0
C2668 C 0.06304 0.64744 0.90718 0.0
C2669 C 0.04181 0.66279 0.88801 0.0
H2670 H 0.05679 0.62389 0.86985 0.0
H2671 H 0.07088 0.64705 0.91927 0.0
C2672 C 0.11823 0.56668 0.90784 0.0
N2673 N 0.14247 0.53965 0.90178 0.0
C2674 C 0.13374 0.5701 0.89821 0.0
C2675 C 0.11513 0.54958 0.91461 0.0
C2676 C 0.1458 0.55624 0.89519 0.0
C2677 C 0.12754 0.53608 0.91138 0.0
C2678 C 0.05753 0.58994 0.88352 0.0
C2679 C 0.04277 0.59242 0.89456 0.0
C2680 C 0.05512 0.58562 0.86554 0.0
C2681 C 0.02574 0.59053 0.88736 0.0
C2682 C 0.03788 0.58389 0.85885 0.0
N2683 N 0.02367 0.58635 0.86981 0.0
C2684 C 0.05725 0.57026 0.93945 0.0
C2685 C 0.06754 0.5537 0.91453 0.0
C2686 C 0.0469 0.55585 0.94499 0.0
N2687 N 0.06743 0.56875 0.92456 0.0
C2688 C 0.0573 0.53914 0.91938 0.0
C2689 C 0.04688 0.54005 0.93484 0.0
H2690 H 0.05706 0.58259 0.94692 0.0
H2691 H 0.07558 0.5531 0.90267 0.0
C2692 C 0.11982 0.57979 0.85475 0.0
N2693 N 0.10686 0.57626 0.86693 0.0
C2694 C 0.12355 0.56745 0.84114 0.0
C2695 C 0.10116 0.54794 0.85337 0.0
C2696 C 0.09764 0.56071 0.86638 0.0
C2697 C 0.11407 0.55121 0.84019 0.0
H2698 H 0.12724 0.59212 0.85558 0.0
H2699 H 0.08754 0.55816 0.87622 0.0
O2700 O 0.08366 0.61065 0.92611 0.0
O2701 O 0.10775 0.61609 0.89077 0.0
O2702 O 0.10622 0.58008 0.91071 0.0
O2703 O 0.07432 0.59184 0.89018 0.0
H2704 H 0.07074 0.63326 0.94978 0.0
H2705 H 0.09894 0.58359 0.94352 0.0
H2706 H 0.07332 0.6299 0.98264 0.0
H2707 H 0.10111 0.58121 0.97637 0.0
H2708 H 0.08772 0.63555 0.83709 0.0
H2709 H 0.10283 0.64972 0.89965 0.0
H2710 H 0.10087 0.61211 0.85632 0.0
H2711 H 0.08715 0.67155 0.88051 0.0
H2712 H 0.1467 0.64617 0.95352 0.0
H2713 H 0.15854 0.58961 0.95489 0.0
H2714 H 0.03593 0.64814 0.86362 0.0
H2715 H 0.05142 0.67274 0.91354 0.0
H2716 H 0.1362 0.5833 0.89295 0.0
H2717 H 0.10337 0.54678 0.92242 0.0
H2718 H 0.15777 0.55863 0.88758 0.0
H2719 H 0.12531 0.52277 0.91653 0.0
H2720 H 0.04445 0.59588 0.90848 0.0
H2721 H 0.06645 0.5838 0.85682 0.0
H2722 H 0.01416 0.59242 0.89572 0.0
H2723 H 0.0358 0.58062 0.84494 0.0
H2724 H 0.0391 0.55704 0.95709 0.0
H2725 H 0.05738 0.5274 0.91095 0.0
H2726 H 0.13368 0.57073 0.83146 0.0
H2727 H 0.09386 0.53552 0.85394 0.0
Li2728 Li 0.32978 0.36723 0.37775 0.0
Li2729 Li 0.35461 0.3494 0.3681 0.0
Li2730 Li 0.34487 0.37548 0.34963 0.0
Li2731 Li 0.32586 0.34939 0.35202 0.0
C2732 C 0.3513 0.39127 0.38375 0.0
N2733 N 0.33784 0.42013 0.40245 0.0
C2734 C 0.35073 0.39095 0.40235 0.0
C2735 C 0.34542 0.40652 0.37471 0.0
C2736 C 0.34368 0.40558 0.41155 0.0
C2737 C 0.33871 0.42094 0.38435 0.0
C2738 C 0.33161 0.32287 0.37809 0.0
C2739 C 0.33856 0.29391 0.3658 0.0
N2740 N 0.33344 0.28615 0.38139 0.0
C2741 C 0.3264 0.31458 0.39397 0.0
C2742 C 0.33772 0.31244 0.36386 0.0
C2743 C 0.32742 0.29601 0.39537 0.0
C2744 C 0.30393 0.38726 0.39896 0.0
N2745 N 0.31623 0.37393 0.39901 0.0
C2746 C 0.30728 0.36524 0.42847 0.0
C2747 C 0.31836 0.36332 0.4136 0.0
C2748 C 0.29348 0.37796 0.4283 0.0
C2749 C 0.29227 0.38938 0.41339 0.0
H2750 H 0.30264 0.39583 0.38743 0.0
H2751 H 0.3285 0.35308 0.41354 0.0
C2752 C 0.38003 0.32245 0.36112 0.0
N2753 N 0.3734 0.3327 0.37453 0.0
C2754 C 0.39239 0.30903 0.36456 0.0
C2755 C 0.39037 0.31592 0.39593 0.0
C2756 C 0.37806 0.32946 0.39179 0.0
C2757 C 0.39789 0.3055 0.38216 0.0
H2758 H 0.3754 0.32427 0.34765 0.0
H2759 H 0.37206 0.33721 0.40238 0.0
C2760 C 0.30083 0.37578 0.35659 0.0
N2761 N 0.26438 0.37828 0.36061 0.0
C2762 C 0.2915 0.36256 0.36588 0.0
C2763 C 0.29159 0.39029 0.34938 0.0
C2764 C 0.27309 0.36406 0.36775 0.0
C2765 C 0.27317 0.39131 0.35155 0.0
C2766 C 0.36077 0.35103 0.32735 0.0
C2767 C 0.3789 0.3546 0.32935 0.0
C2768 C 0.35397 0.34762 0.31031 0.0
C2769 C 0.38984 0.35495 0.31426 0.0
C2770 C 0.36532 0.34816 0.29557 0.0
N2771 N 0.38287 0.35179 0.29783 0.0
C2772 C 0.36919 0.39621 0.32762 0.0
C2773 C 0.3386 0.4007 0.32201 0.0
C2774 C 0.37372 0.40771 0.31358 0.0
N2775 N 0.35185 0.39273 0.33143 0.0
C2776 C 0.3425 0.41287 0.3084 0.0
C2777 C 0.36031 0.41655 0.30383 0.0
H2778 H 0.37958 0.39005 0.33544 0.0
H2779 H 0.32493 0.39766 0.32514 0.0
C2780 C 0.3003 0.32224 0.34405 0.0
N2781 N 0.30937 0.33685 0.33837 0.0
C2782 C 0.28915 0.31324 0.33232 0.0
C2783 C 0.29585 0.33539 0.30974 0.0
C2784 C 0.3067 0.34401 0.32197 0.0
C2785 C 0.28733 0.31951 0.31474 0.0
H2786 H 0.30179 0.31747 0.35757 0.0
H2787 H 0.31342 0.35624 0.31829 0.0
O2788 O 0.35563 0.37614 0.3744 0.0
O2789 O 0.33117 0.34111 0.37677 0.0
O2790 O 0.31889 0.3746 0.35451 0.0
O2791 O 0.34984 0.35047 0.34201 0.0
H2792 H 0.35447 0.379 0.40944 0.0
H2793 H 0.34553 0.40717 0.36038 0.0
H2794 H 0.3422 0.40515 0.42585 0.0
H2795 H 0.33397 0.4327 0.37744 0.0
H2796 H 0.34329 0.28571 0.35491 0.0
H2797 H 0.32164 0.3224 0.40512 0.0
H2798 H 0.3417 0.31852 0.35141 0.0
H2799 H 0.32344 0.28944 0.4076 0.0
H2800 H 0.30932 0.35654 0.43984 0.0
H2801 H 0.28193 0.39938 0.4124 0.0
H2802 H 0.39778 0.30175 0.35333 0.0
H2803 H 0.39377 0.31359 0.40977 0.0
H2804 H 0.29837 0.35132 0.37172 0.0
H2805 H 0.29855 0.40074 0.34229 0.0
H2806 H 0.26573 0.35393 0.37493 0.0
H2807 H 0.26586 0.40248 0.34606 0.0
H2808 H 0.38442 0.35719 0.34243 0.0
H2809 H 0.34016 0.34437 0.30841 0.0
H2810 H 0.40386 0.35773 0.31557 0.0
H2811 H 0.36018 0.34559 0.28233 0.0
H2812 H 0.38765 0.40971 0.31063 0.0
H2813 H 0.33156 0.41947 0.30174 0.0
H2814 H 0.28231 0.30134 0.33682 0.0
H2815 H 0.29478 0.34071 0.29634 0.0
H2816 H 0.02277 0.03331 0.08702 0.0
H2817 H 1.00216 0.00975 0.0779 0.0
H2818 H 0.02959 0.00516 0.02751 0.0
H2819 H 0.05004 0.02879 0.03639 0.0
H2820 H 0.98041 0.0132 0.04825 0.0
H2821 H 0.02253 0.95302 0.04248 0.0
H2822 H 0.02894 0.97223 0.0556 0.0
H2823 H 0.03264 0.97193 0.03185 0.0
C2824 C 0.02443 0.02718 0.07404 0.0
C2825 C 0.03787 0.03291 0.06232 0.0
C2826 C 0.01281 0.01365 0.06897 0.0
C2827 C 0.01464 0.00557 0.05223 0.0
C2828 C 0.02834 0.01093 0.04071 0.0
H2829 H 0.95519 0.97681 0.9671 0.0
H2830 H 0.96943 0.99028 0.99306 0.0
C2831 C 0.03993 0.02447 0.04574 0.0
C2832 C 1.00098 0.9933 0.0456 0.0
H2833 H 0.99684 0.95441 0.0226 0.0
C2834 C 0.98378 1.00008 0.04312 0.0
C2835 C 0.00539 0.97614 0.03923 0.0
C2836 C 0.02335 0.96783 0.04261 0.0
C2837 C 0.9714 0.99086 0.03274 0.0
C2838 C 0.97655 0.97466 0.02464 0.0
C2839 C 0.99308 0.967 0.02868 0.0
C2840 C 0.96631 0.96696 0.0099 0.0
C2841 C 0.95332 0.99901 0.02966 0.0
C2842 C 0.96017 0.94936 0.01082 0.0
C2843 C 0.95208 0.94164 0.996 0.0
C2844 C 0.95023 0.9514 0.98007 0.0
C2845 C 0.95624 0.9691 0.97929 0.0
C2846 C 0.96428 0.97681 0.99411 0.0
H2847 H 0.94933 0.00763 0.04105 0.0
H2848 H 0.95378 0.00749 0.01752 0.0
H2849 H 0.94304 0.98856 0.02768 0.0
H2850 H 0.96185 0.94158 0.02291 0.0
H2851 H 0.9473 0.92803 0.99699 0.0
H2852 H 0.3429 0.72393 0.22645 0.0
H2853 H 0.33901 0.74826 0.24783 0.0
H2854 H 0.28844 0.72606 0.26362 0.0
H2855 H 0.29255 0.70147 0.24253 0.0
H2856 H 0.31224 0.77057 0.2416 0.0
H2857 H 0.30631 0.74545 0.31058 0.0
H2858 H 0.31682 0.73263 0.29306 0.0
H2859 H 0.293 0.73234 0.29571 0.0
C2860 C 0.33124 0.72401 0.23494 0.0
C2861 C 0.31787 0.71111 0.23283 0.0
C2862 C 0.3291 0.7378 0.24717 0.0
C2863 C 0.31353 0.73888 0.25736 0.0
C2864 C 0.30076 0.72523 0.25619 0.0
H2865 H 0.23506 0.80932 0.27381 0.0
H2866 H 0.25972 0.79137 0.26289 0.0
C2867 C 0.303 0.7113 0.24406 0.0
C2868 C 0.30882 0.7558 0.26613 0.0
H2869 H 0.28849 0.772 0.30332 0.0
C2870 C 0.30761 0.77107 0.25531 0.0
C2871 C 0.30298 0.75649 0.28402 0.0
C2872 C 0.30503 0.74086 0.29654 0.0
C2873 C 0.29905 0.78646 0.26137 0.0
C2874 C 0.29145 0.7864 0.27856 0.0
C2875 C 0.29424 0.77186 0.29004 0.0
C2876 C 0.278 0.79963 0.28362 0.0
C2877 C 0.29713 0.80219 0.24894 0.0
C2878 C 0.28031 0.81034 0.29873 0.0
C2879 C 0.26628 0.82081 0.3049 0.0
C2880 C 0.24969 0.82037 0.29621 0.0
C2881 C 0.24774 0.81019 0.28062 0.0
C2882 C 0.2618 0.79989 0.27438 0.0
H2883 H 0.30814 0.80261 0.23906 0.0
H2884 H 0.28446 0.80096 0.24145 0.0
H2885 H 0.29688 0.81497 0.25645 0.0
H2886 H 0.29275 0.81016 0.30602 0.0
H2887 H 0.26821 0.82876 0.31682 0.0
H2888 H 0.42607 0.96749 0.52886 0.0
H2889 H 0.4308 0.986 0.50236 0.0
H2890 H 0.48721 0.97571 0.50558 0.0
H2891 H 0.48239 0.95675 0.53175 0.0
H2892 H 0.44867 0.01581 0.50407 0.0
H2893 H 0.47996 0.97379 0.45264 0.0
H2894 H 0.4682 0.96434 0.47145 0.0
H2895 H 0.49127 0.97062 0.47344 0.0
C2896 C 0.43942 0.96898 0.52363 0.0
C2897 C 0.45396 0.96103 0.53231 0.0
C2898 C 0.44207 0.97938 0.50848 0.0
C2899 C 0.4593 0.98202 0.50189 0.0
C2900 C 0.47374 0.97342 0.51014 0.0
H2901 H 0.52089 0.06594 0.4786 0.0
H2902 H 0.49805 0.04542 0.48925 0.0
C2903 C 0.47106 0.9628 0.52518 0.0
C2904 C 0.46264 0.99601 0.4885 0.0
H2905 H 0.48955 0.0053 0.45324 0.0
C2906 C 0.45712 0.01344 0.49258 0.0
C2907 C 0.4733 0.9929 0.47331 0.0
C2908 C 0.47832 0.97433 0.46737 0.0
C2909 C 0.46366 0.02805 0.48304 0.0
C2910 C 0.4762 0.02504 0.46938 0.0
C2911 C 0.48012 0.00755 0.46397 0.0
C2912 C 0.48774 0.03946 0.4629 0.0
C2913 C 0.45797 0.0466 0.48838 0.0
C2914 C 0.48946 0.04279 0.44459 0.0
C2915 C 0.50262 0.05437 0.43849 0.0
C2916 C 0.51429 0.06255 0.45065 0.0
C2917 C 0.51208 0.05971 0.469 0.0
C2918 C 0.49891 0.0482 0.47508 0.0
H2919 H 0.44419 0.04655 0.49372 0.0
H2920 H 0.46686 0.05153 0.49912 0.0
H2921 H 0.45868 0.05601 0.47695 0.0
H2922 H 0.48109 0.03593 0.43504 0.0
H2923 H 0.50425 0.05621 0.42424 0.0
H2924 H 0.24648 0.17626 0.80514 0.0
H2925 H 0.22196 0.18867 0.78745 0.0
H2926 H 0.25959 0.20609 0.74753 0.0
H2927 H 0.28381 0.19348 0.76482 0.0
H2928 H 0.21823 0.22246 0.78152 0.0
H2929 H 0.2204 0.19057 0.71582 0.0
H2930 H 0.23107 0.18065 0.73504 0.0
H2931 H 0.24271 0.19669 0.72133 0.0
C2932 C 0.24936 0.1824 0.79237 0.0
C2933 C 0.26695 0.184 0.78629 0.0
C2934 C 0.23538 0.18934 0.78225 0.0
C2935 C 0.23889 0.19795 0.766 0.0
C2936 C 0.25644 0.19889 0.75967 0.0
H2937 H 0.22302 0.29713 0.72894 0.0
H2938 H 0.2251 0.26972 0.74659 0.0
C2939 C 0.27032 0.19184 0.76965 0.0
C2940 C 0.22515 0.2088 0.7571 0.0
H2941 H 0.21517 0.22362 0.71543 0.0
C2942 C 0.21696 0.22235 0.7671 0.0
C2943 C 0.22292 0.20838 0.73839 0.0
C2944 C 0.22961 0.19311 0.72713 0.0
C2945 C 0.20875 0.2368 0.75863 0.0
C2946 C 0.2093 0.23786 0.73981 0.0
C2947 C 0.21526 0.22312 0.7299 0.0
C2948 C 0.20641 0.25485 0.73029 0.0
C2949 C 0.20049 0.25123 0.76995 0.0
C2950 C 0.19567 0.2554 0.71502 0.0
C2951 C 0.19497 0.27083 0.70468 0.0
C2952 C 0.2049 0.28593 0.70954 0.0
C2953 C 0.21526 0.28559 0.72505 0.0
C2954 C 0.21621 0.27005 0.73522 0.0
H2955 H 0.19434 0.2454 0.78212 0.0
H2956 H 0.21099 0.26062 0.77442 0.0
H2957 H 0.19019 0.25881 0.7625 0.0
H2958 H 0.18814 0.24378 0.71091 0.0
H2959 H 0.18667 0.27098 0.69285 0.0
H2960 H 0.02191 0.92031 0.47681 0.0
H2961 H 0.00722 0.93827 0.4995 0.0
H2962 H 0.99368 0.97761 0.45966 0.0
H2963 H 0.00791 0.95944 0.43673 0.0
H2964 H 0.02487 0.97108 0.5024 0.0
H2965 H 0.95214 0.98083 0.49522 0.0
H2966 H 0.96358 0.96144 0.48656 0.0
H2967 H 0.96409 0.9822 0.47451 0.0
C2968 C 0.01495 0.93228 0.47268 0.0
C2969 C 0.01631 0.93874 0.45512 0.0
C2970 C 0.0066 0.94253 0.48569 0.0
C2971 C 0.99952 0.95922 0.4812 0.0
C2972 C 0.99892 0.96463 0.46329 0.0
H2973 H 0.97903 0.06062 0.52524 0.0
H2974 H 0.98712 0.03532 0.50662 0.0
C2975 C 0.00722 0.95436 0.45026 0.0
C2976 C 0.99715 0.97267 0.49517 0.0
H2977 H 0.96819 0.0038 0.51076 0.0
C2978 C 0.0124 0.97803 0.50456 0.0
C2979 C 0.98095 0.98176 0.49761 0.0
C2980 C 0.96421 0.97618 0.48805 0.0
C2981 C 0.01207 0.99291 0.51577 0.0
C2982 C 0.99598 0.00232 0.51781 0.0
C2983 C 0.98055 0.99655 0.50896 0.0
C2984 C 0.99477 0.01846 0.52878 0.0
C2985 C 0.02907 0.99892 0.52463 0.0
C2986 C 0.99741 0.01752 0.54726 0.0
C2987 C 0.99324 0.03213 0.55794 0.0
C2988 C 0.98601 0.04764 0.55025 0.0
C2989 C 0.98475 0.04895 0.53158 0.0
C2990 C 0.98912 0.03444 0.52092 0.0
H2991 H 0.04099 0.9929 0.51827 0.0
H2992 H 0.03036 0.01368 0.52416 0.0
H2993 H 0.0289 0.99478 0.53886 0.0
H2994 H 1.00166 0.0052 0.55352 0.0
H2995 H 0.99456 0.03088 0.57229 0.0
H2996 H 0.25159 0.82411 0.69126 0.0
H2997 H 0.22545 0.8095 0.70412 0.0
H2998 H 0.25753 0.7902 0.74782 0.0
H2999 H 0.2837 0.80437 0.73491 0.0
H3000 H 0.22585 0.77206 0.70847 0.0
H3001 H 0.21118 0.80631 0.77217 0.0
H3002 H 0.22342 0.81685 0.75426 0.0
H3003 H 0.23448 0.80194 0.7695 0.0
C3004 C 0.25296 0.81696 0.70376 0.0
C3005 C 0.26967 0.81512 0.71201 0.0
C3006 C 0.23804 0.8088 0.71112 0.0
C3007 C 0.23962 0.79898 0.72693 0.0
C3008 C 0.25603 0.79808 0.73578 0.0
H3009 H 0.21686 0.70446 0.77195 0.0
H3010 H 0.22295 0.728 0.75018 0.0
C3011 C 0.27097 0.80614 0.72839 0.0
C3012 C 0.2251 0.78734 0.73287 0.0
H3013 H 0.20379 0.77473 0.77078 0.0
C3014 C 0.2205 0.77288 0.7219 0.0
C3015 C 0.21805 0.78863 0.75024 0.0
C3016 C 0.2219 0.80439 0.76215 0.0
C3017 C 0.21041 0.7587 0.72857 0.0
C3018 C 0.20502 0.7591 0.7466 0.0
C3019 C 0.20808 0.77441 0.75695 0.0
C3020 C 0.19894 0.74296 0.75594 0.0
C3021 C 0.2065 0.74299 0.71663 0.0
C3022 C 0.18329 0.74345 0.76602 0.0
C3023 C 0.17993 0.73015 0.77854 0.0
C3024 C 0.19226 0.7163 0.78116 0.0
C3025 C 0.20719 0.71502 0.77006 0.0
C3026 C 0.21057 0.72837 0.75757 0.0
H3027 H 0.20563 0.7472 0.70243 0.0
H3028 H 0.21747 0.73314 0.71775 0.0
H3029 H 0.19388 0.73632 0.72047 0.0
H3030 H 0.17425 0.75467 0.76497 0.0
H3031 H 0.16818 0.73118 0.78684 0.0
H3032 H 0.51212 0.06573 0.92945 0.0
H3033 H 0.53529 0.05253 0.94839 0.0
H3034 H 0.49568 0.02052 0.975 0.0
H3035 H 0.47248 0.0338 0.9565 0.0
H3036 H 0.53488 0.05046 0.98978 0.0
H3037 H 0.53551 0.98599 0.95317 0.0
H3038 H 0.52778 0.00658 0.94323 0.0
H3039 H 0.51375 0.99445 0.9584 0.0
C3040 C 0.50838 0.05594 0.93941 0.0
C3041 C 0.49057 0.05059 0.94141 0.0
C3042 C 0.52158 0.04847 0.95015 0.0
C3043 C 0.51705 0.03556 0.96285 0.0
C3044 C 0.49931 0.03039 0.96505 0.0
H3045 H 0.54775 0.98372 0.05496 0.0
H3046 H 0.5395 0.0065 0.03307 0.0
C3047 C 0.48614 0.03784 0.9544 0.0
C3048 C 0.53073 0.02697 0.97375 0.0
H3049 H 0.5475 0.98585 0.98265 0.0
C3050 C 0.53808 0.03644 0.98808 0.0
C3051 C 0.5349 0.00881 0.9712 0.0
C3052 C 0.52771 0.99835 0.95557 0.0
C3053 C 0.54863 0.02773 1.00079 0.0
C3054 C 0.55155 0.00918 0.99905 0.0
C3055 C 0.54522 1.00009 0.98397 0.0
C3056 C 0.55914 0.99833 0.01353 0.0
C3057 C 0.55603 0.03831 0.01621 0.0
C3058 C 0.57291 0.98629 0.00977 0.0
C3059 C 0.57729 0.97307 0.02205 0.0
C3060 C 0.56803 0.97182 0.03825 0.0
C3061 C 0.55505 0.98455 0.04252 0.0
C3062 C 0.55051 0.99765 0.03013 0.0
H3063 H 0.55828 0.05246 0.01237 0.0
H3064 H 0.5463 0.03819 0.02735 0.0
H3065 H 0.56874 0.03255 0.02109 0.0
H3066 H 0.57961 0.98656 0.99697 0.0
H3067 H 0.58754 0.96347 0.01868 0.0
H3068 H 0.28801 0.28344 0.31089 0.0
H3069 H 0.27443 0.26585 0.28727 0.0
H3070 H 0.25282 0.31377 0.26373 0.0
H3071 H 0.26555 0.33149 0.288 0.0
H3072 H 0.22899 0.28696 0.26471 0.0
H3073 H 0.29237 0.26259 0.23651 0.0
H3074 H 0.29103 0.25788 0.25993 0.0
H3075 H 0.29135 0.28072 0.25236 0.0
C3076 C 0.28008 0.29023 0.30091 0.0
C3077 C 0.27786 0.30884 0.30125 0.0
C3078 C 0.27264 0.28021 0.28724 0.0
C3079 C 0.26316 0.28866 0.27354 0.0
C3080 C 0.2604 0.30714 0.27409 0.0
H3081 H 0.23124 0.22043 0.18439 0.0
H3082 H 0.24483 0.24517 0.20092 0.0
C3083 C 0.2677 0.31719 0.28789 0.0
C3084 C 0.2556 0.27792 0.25905 0.0
H3085 H 0.26626 0.24496 0.22969 0.0
C3086 C 0.23713 0.27801 0.25678 0.0
C3087 C 0.26635 0.26664 0.24846 0.0
C3088 C 0.2864 0.2671 0.2493 0.0
C3089 C 0.22896 0.26611 0.24502 0.0
C3090 C 0.2396 0.25359 0.2358 0.0
C3091 C 0.25816 0.25439 0.23709 0.0
C3092 C 0.23169 0.23875 0.22583 0.0
C3093 C 0.20902 0.26682 0.24289 0.0
C3094 C 0.22037 0.22677 0.23463 0.0
C3095 C 0.21262 0.2128 0.22527 0.0
C3096 C 0.2164 0.21046 0.2071 0.0
C3097 C 0.2283 0.222 0.19846 0.0
C3098 C 0.23591 0.23612 0.2078 0.0
H3099 H 0.20382 0.28043 0.24563 0.0
H3100 H 0.2049 0.2628 0.22924 0.0
H3101 H 0.20278 0.25756 0.25262 0.0
H3102 H 0.21747 0.22829 0.24871 0.0
H3103 H 0.20359 0.20388 0.23216 0.0
H3104 H 0.42553 0.5163 0.04807 0.0
H3105 H 0.43122 0.49191 0.02684 0.0
H3106 H 0.48189 0.51544 0.01365 0.0
H3107 H 0.47617 0.53989 0.03458 0.0
H3108 H 0.4423 0.50278 0.98671 0.0
H3109 H 0.48757 0.45796 0.02461 0.0
H3110 H 0.47068 0.47147 0.03529 0.0
H3111 H 0.491 0.48153 0.02776 0.0
C3112 C 0.43803 0.51596 0.04087 0.0
C3113 C 0.4505 0.52979 0.04283 0.0
C3114 C 0.44119 0.50216 0.0288 0.0
C3115 C 0.45696 0.502 0.01892 0.0
C3116 C 0.46971 0.51541 0.02138 0.0
H3117 H 0.52344 0.47676 0.94194 0.0
H3118 H 0.5012 0.48834 0.9624 0.0
C3119 C 0.46645 0.52931 0.03322 0.0
C3120 C 0.45981 0.48888 0.00475 0.0
H3121 H 0.48972 0.45713 0.99263 0.0
C3122 C 0.45216 0.49228 0.98802 0.0
C3123 C 0.47266 0.47535 0.00671 0.0
C3124 C 0.4809 0.4712 0.02459 0.0
C3125 C 0.45845 0.48359 0.97274 0.0
C3126 C 0.4725 0.4713 0.97452 0.0
C3127 C 0.47888 0.46662 0.99147 0.0
C3128 C 0.48326 0.46604 0.95914 0.0
C3129 C 0.45131 0.48869 0.95465 0.0
C3130 C 0.47994 0.4501 0.95007 0.0
C3131 C 0.49249 0.44358 0.93801 0.0
C3132 C 0.50861 0.45277 0.9353 0.0
C3133 C 0.51114 0.46942 0.94352 0.0
C3134 C 0.49852 0.47602 0.95532 0.0
H3135 H 0.4388 0.49652 0.95567 0.0
H3136 H 0.46137 0.49687 0.94752 0.0
H3137 H 0.44883 0.47654 0.94654 0.0
H3138 H 0.46815 0.44233 0.95297 0.0
H3139 H 0.49001 0.43088 0.93156 0.0
H3140 H 0.75264 0.32399 0.19003 0.0
H3141 H 0.72684 0.31269 0.20659 0.0
H3142 H 0.7621 0.28895 0.24542 0.0
H3143 H 0.78772 0.30041 0.22916 0.0
H3144 H 0.71935 0.27858 0.21175 0.0
H3145 H 0.72531 0.31036 0.27759 0.0
H3146 H 0.73685 0.31883 0.25819 0.0
H3147 H 0.74647 0.30123 0.27155 0.0
C3148 C 0.75477 0.31648 0.20221 0.0
C3149 C 0.77205 0.31294 0.20838 0.0
C3150 C 0.74009 0.31022 0.21169 0.0
C3151 C 0.74258 0.3004 0.22743 0.0
C3152 C 0.75987 0.29707 0.23366 0.0
H3153 H 0.71393 0.20624 0.2675 0.0
H3154 H 0.71931 0.23225 0.24866 0.0
C3155 C 0.77449 0.30344 0.22429 0.0
C3156 C 0.72753 0.29144 0.23619 0.0
H3157 H 0.7141 0.27923 0.27774 0.0
C3158 C 0.71769 0.27913 0.22613 0.0
C3159 C 0.72496 0.29253 0.25483 0.0
C3160 C 0.73385 0.30664 0.26607 0.0
C3161 C 0.70709 0.26632 0.23455 0.0
C3162 C 0.70676 0.26572 0.25338 0.0
C3163 C 0.71472 0.27946 0.26327 0.0
C3164 C 0.70118 0.24957 0.26304 0.0
C3165 C 0.69727 0.25291 0.22325 0.0
C3166 C 0.68941 0.25078 0.27747 0.0
C3167 C 0.68655 0.236 0.28839 0.0
C3168 C 0.6955 0.21986 0.28504 0.0
C3169 C 0.70679 0.21849 0.27023 0.0
C3170 C 0.70971 0.23329 0.25939 0.0
H3171 H 0.69284 0.25906 0.2105 0.0
H3172 H 0.70635 0.24173 0.21987 0.0
H3173 H 0.6855 0.24744 0.23033 0.0
H3174 H 0.68287 0.26329 0.28058 0.0
H3175 H 0.67756 0.23726 0.29962 0.0
H3176 H 0.06615 0.48782 0.56473 0.0
H3177 H 0.06038 0.51336 0.54509 0.0
H3178 H 0.0161 0.48526 0.52169 0.0
H3179 H 0.02171 0.45972 0.54136 0.0
H3180 H 0.0584 0.51143 0.50515 0.0
H3181 H 0.99722 0.53578 0.53875 0.0
H3182 H 0.01352 0.52192 0.54985 0.0
H3183 H 0.99774 0.51211 0.53476 0.0
C3184 C 0.05502 0.48725 0.55557 0.0
C3185 C 0.04421 0.47198 0.5546 0.0
C3186 C 0.05187 0.50172 0.54433 0.0
C3187 C 0.03778 0.5011 0.53217 0.0
C3188 C 0.02694 0.48591 0.53119 0.0
H3189 H 1.00216 0.5421 0.43687 0.0
H3190 H 0.02071 0.52853 0.4598 0.0
C3191 C 0.03015 0.47139 0.54233 0.0
C3192 C 0.03442 0.51615 0.52016 0.0
H3193 H 1.00206 0.54565 0.50884 0.0
C3194 C 0.04629 0.51924 0.50607 0.0
C3195 C 0.01881 0.52641 0.52174 0.0
C3196 C 0.00614 0.52405 0.53718 0.0
C3197 C 0.04222 0.53161 0.49265 0.0
C3198 C 0.02583 0.54079 0.49342 0.0
C3199 C 0.01463 0.53857 0.50826 0.0
C3200 C 0.01869 0.55082 0.47812 0.0
C3201 C 0.0552 0.53429 0.47755 0.0
C3202 C 0.01164 0.56793 0.48072 0.0
C3203 C 1.00055 0.57546 0.46788 0.0
C3204 C 0.99646 0.56599 0.45221 0.0
C3205 C 0.0048 0.54953 0.44898 0.0
C3206 C 0.01571 0.54192 0.46193 0.0
H3207 H 0.06908 0.53203 0.4821 0.0
H3208 H 0.05235 0.52445 0.46685 0.0
H3209 H 0.05417 0.54793 0.47181 0.0
H3210 H 0.0137 0.57492 0.49321 0.0
H3211 H 0.99423 0.5881 0.47086 0.0
H3212 H 0.80076 0.67099 0.26329 0.0
H3213 H 0.78178 0.67884 0.23782 0.0
H3214 H 0.74856 0.71039 0.27264 0.0
H3215 H 0.76725 0.70238 0.29807 0.0
H3216 H 0.72947 0.68948 0.24751 0.0
H3217 H 0.78424 0.72907 0.21635 0.0
H3218 H 0.78802 0.70577 0.22075 0.0
H3219 H 0.78577 0.7211 0.23902 0.0
C3220 C 0.78938 0.6796 0.26541 0.0
C3221 C 0.78549 0.6863 0.2825 0.0
C3222 C 0.77856 0.68397 0.25094 0.0
C3223 C 0.76392 0.69525 0.25341 0.0
C3224 C 0.75978 0.70154 0.27055 0.0
H3225 H 0.69907 0.77355 0.22778 0.0
H3226 H 0.71197 0.74515 0.23681 0.0
C3227 C 0.77046 0.69706 0.28501 0.0
C3228 C 0.75356 0.70197 0.23819 0.0
H3229 H 0.7554 0.73459 0.20663 0.0
C3230 C 0.73516 0.69895 0.23815 0.0
C3231 C 0.76112 0.7141 0.22589 0.0
C3232 C 0.78085 0.71784 0.22543 0.0
C3233 C 0.72389 0.70918 0.22738 0.0
C3234 C 0.73131 0.72271 0.21661 0.0
C3235 C 0.74982 0.72422 0.21505 0.0
C3236 C 0.72055 0.73778 0.21019 0.0
C3237 C 0.70409 0.70632 0.22859 0.0
C3238 C 0.72122 0.74305 0.19226 0.0
C3239 C 0.7139 0.75935 0.18708 0.0
C3240 C 0.70605 0.77066 0.19984 0.0
C3241 C 0.70486 0.76502 0.21765 0.0
C3242 C 0.71209 0.74873 0.22279 0.0
H3243 H 0.70098 0.69211 0.23152 0.0
H3244 H 0.69868 0.71448 0.23969 0.0
H3245 H 0.6973 0.7103 0.21604 0.0
H3246 H 0.72792 0.73484 0.18245 0.0
H3247 H 0.71469 0.76327 0.17318 0.0
H3248 H 0.76904 0.17917 0.73631 0.0
H3249 H 0.76044 0.20322 0.75677 0.0
H3250 H 0.77069 0.24207 0.71549 0.0
H3251 H 0.77947 0.21838 0.69519 0.0
H3252 H 0.78493 0.23073 0.76591 0.0
H3253 H 0.72276 0.25777 0.73646 0.0
H3254 H 0.7311 0.23576 0.73127 0.0
H3255 H 0.74051 0.2551 0.72067 0.0
C3256 C 0.76908 0.19282 0.73154 0.0
C3257 C 0.77486 0.19693 0.71418 0.0
C3258 C 0.76418 0.20647 0.74318 0.0
C3259 C 0.76487 0.22428 0.73749 0.0
C3260 C 0.76977 0.22833 0.71994 0.0
H3261 H 0.74841 0.32684 0.78568 0.0
H3262 H 0.76177 0.30348 0.76719 0.0
C3263 C 0.77469 0.21476 0.70834 0.0
C3264 C 0.76226 0.23884 0.75027 0.0
H3265 H 0.73733 0.2759 0.75802 0.0
C3266 C 0.77446 0.24057 0.76433 0.0
C3267 C 0.74869 0.25162 0.74791 0.0
C3268 C 0.73491 0.24993 0.73336 0.0
C3269 C 0.77356 0.25505 0.77607 0.0
C3270 C 0.76009 0.26789 0.77361 0.0
C3271 C 0.74787 0.26612 0.75958 0.0
C3272 C 0.7571 0.2824 0.78637 0.0
C3273 C 0.78705 0.25662 0.79088 0.0
C3274 C 0.75087 0.27823 0.80347 0.0
C3275 C 0.74311 0.29142 0.81392 0.0
C3276 C 0.74144 0.30892 0.80733 0.0
C3277 C 0.74933 0.31339 0.79093 0.0
C3278 C 0.75703 0.30014 0.78044 0.0
H3279 H 0.79912 0.24852 0.78812 0.0
H3280 H 0.79104 0.27075 0.7929 0.0
H3281 H 0.78107 0.25171 0.80351 0.0
H3282 H 0.75053 0.26452 0.80808 0.0
H3283 H 0.73696 0.28749 0.82639 0.0
H3284 H 0.79502 0.76291 0.82366 0.0
H3285 H 0.78275 0.73309 0.81871 0.0
H3286 H 0.78523 0.74184 0.76178 0.0
H3287 H 0.79784 0.77135 0.76667 0.0
H3288 H 0.75207 0.72677 0.80461 0.0
H3289 H 0.8004 0.69099 0.76355 0.0
H3290 H 0.80668 0.71022 0.77668 0.0
H3291 H 0.79845 0.71286 0.75417 0.0
C3292 C 0.79316 0.7583 0.81009 0.0
C3293 C 0.79722 0.7694 0.7955 0.0
C3294 C 0.78634 0.74124 0.80732 0.0
C3295 C 0.78349 0.73506 0.78991 0.0
C3296 C 0.78797 0.74602 0.77534 0.0
H3297 H 0.70471 0.71804 0.73036 0.0
H3298 H 0.7226 0.72121 0.75724 0.0
C3299 C 0.79494 0.76298 0.77811 0.0
C3300 C 0.77307 0.71873 0.78663 0.0
H3301 H 0.7685 0.68864 0.75314 0.0
C3302 C 0.75587 0.71785 0.79386 0.0
C3303 C 0.77816 0.70643 0.77331 0.0
C3304 C 0.79705 0.70508 0.7667 0.0
C3305 C 0.74281 0.70732 0.78579 0.0
C3306 C 0.74709 0.69804 0.76996 0.0
C3307 C 0.76499 0.69632 0.7649 0.0
C3308 C 0.73348 0.69436 0.75628 0.0
C3309 C 0.72422 0.70757 0.7933 0.0
C3310 C 0.73372 0.67831 0.74667 0.0
C3311 C 0.72385 0.67672 0.731 0.0
C3312 C 0.71358 0.69113 0.72482 0.0
C3313 C 0.7125 0.70677 0.73495 0.0
C3314 C 0.72252 0.70844 0.75047 0.0
H3315 H 0.72466 0.70716 0.80812 0.0
H3316 H 0.71756 0.72023 0.78945 0.0
H3317 H 0.71619 0.69615 0.7884 0.0
H3318 H 0.7422 0.66737 0.75081 0.0
H3319 H 0.72458 0.66439 0.72346 0.0
H3320 H 0.46597 0.47201 0.47039 0.0
H3321 H 0.48139 0.49855 0.481 0.0
H3322 H 0.49701 0.51136 0.42705 0.0
H3323 H 0.48205 0.48435 0.41636 0.0
H3324 H 0.52463 0.51224 0.45012 0.0
H3325 H 0.46922 0.55113 0.4782 0.0
H3326 H 0.46781 0.52853 0.48591 0.0
H3327 H 0.46576 0.53324 0.46238 0.0
C3328 C 0.47271 0.48045 0.4608 0.0
C3329 C 0.47289 0.47614 0.44259 0.0
C3330 C 0.48121 0.49577 0.46681 0.0
C3331 C 0.48985 0.50713 0.4547 0.0
C3332 C 0.49008 0.5029 0.4365 0.0
H3333 H 0.5386 0.58464 0.52593 0.0
H3334 H 0.52456 0.57627 0.49761 0.0
C3335 C 0.48158 0.48751 0.43046 0.0
C3336 C 0.50027 0.52218 0.46165 0.0
H3337 H 0.49778 0.55349 0.49434 0.0
C3338 C 0.51876 0.52174 0.45932 0.0
C3339 C 0.49257 0.53493 0.47317 0.0
C3340 C 0.47271 0.5371 0.47487 0.0
C3341 C 0.52986 0.5321 0.4701 0.0
C3342 C 0.52217 0.54273 0.48362 0.0
C3343 C 0.50367 0.54499 0.48421 0.0
C3344 C 0.53252 0.54855 0.49921 0.0
C3345 C 0.54972 0.5306 0.46774 0.0
C3346 C 0.54141 0.53566 0.50948 0.0
C3347 C 0.54928 0.54034 0.52559 0.0
C3348 C 0.54816 0.55794 0.5318 0.0
C3349 C 0.53942 0.57091 0.52146 0.0
C3350 C 0.5316 0.56623 0.50525 0.0
H3351 H 0.55315 0.52862 0.45346 0.0
H3352 H 0.5567 0.54266 0.47275 0.0
H3353 H 0.55463 0.51878 0.4752 0.0
H3354 H 0.54167 0.52179 0.50539 0.0
H3355 H 0.55578 0.53008 0.53344 0.0
H3356 H 0.01332 0.54026 0.94864 0.0
H3357 H 0.99604 0.51461 0.95872 0.0
H3358 H 0.03806 0.47915 0.94196 0.0
H3359 H 0.05594 0.50476 0.93289 0.0
H3360 H 0.98377 0.4839 0.94126 0.0
H3361 H 0.03292 0.46828 0.99486 0.0
H3362 H 0.03368 0.48884 0.98238 0.0
H3363 H 0.04113 0.46838 0.97235 0.0
C3364 C 0.01896 0.52702 0.94728 0.0
C3365 C 0.03606 0.52454 0.94021 0.0
C3366 C 0.00898 0.5124 0.95276 0.0
C3367 C 0.0159 0.49509 0.95115 0.0
C3368 C 0.03264 0.49246 0.94345 0.0
H3369 H 0.96852 0.41394 0.01895 0.0
H3370 H 0.98399 0.42376 0.99195 0.0
C3371 C 0.04275 0.5071 0.93818 0.0
C3372 C 0.00603 0.48011 0.95898 0.0
H3373 H 0.006 0.45305 0.99545 0.0
C3374 C 0.98871 0.47681 0.95288 0.0
C3375 C 0.01268 0.47087 0.97402 0.0
C3376 C 0.03106 0.47428 0.98142 0.0
C3377 C 0.97736 0.46541 0.96228 0.0
C3378 C 0.98358 0.45729 0.97808 0.0
C3379 C 1.00137 0.45932 0.98324 0.0
C3380 C 0.97137 0.4497 0.99133 0.0
C3381 C 0.95855 0.4629 0.95581 0.0
C3382 C 0.95905 0.46102 0.99965 0.0
C3383 C 0.95047 0.45562 0.01518 0.0
C3384 C 0.95419 0.43884 0.02263 0.0
C3385 C 0.96572 0.4271 0.01366 0.0
C3386 C 0.97435 0.43255 0.99814 0.0
H3387 H 0.9577 0.46446 0.94108 0.0
H3388 H 0.95333 0.44955 0.95957 0.0
H3389 H 0.94992 0.47323 0.96195 0.0
H3390 H 0.95698 0.47451 0.99485 0.0
H3391 H 0.94175 0.46496 0.0219 0.0
H3392 H 0.14674 0.0396 0.17818 0.0
H3393 H 0.14923 0.01548 0.20012 0.0
H3394 H 0.09252 0.01762 0.20843 0.0
H3395 H 0.08996 0.04115 0.18659 0.0
H3396 H 0.14567 0.01167 0.23198 0.0
H3397 H 0.09648 0.96631 0.20743 0.0
H3398 H 0.10325 0.9853 0.19435 0.0
H3399 H 0.08464 0.98688 0.20952 0.0
C3400 C 0.13476 0.03479 0.18455 0.0
C3401 C 0.11815 0.04271 0.1807 0.0
C3402 C 0.13622 0.02095 0.19721 0.0
C3403 C 0.12109 0.01446 0.20616 0.0
C3404 C 0.10452 0.02207 0.20187 0.0
H3405 H 0.1091 0.93348 0.28992 0.0
H3406 H 0.1004 0.95841 0.27099 0.0
C3407 C 0.10306 0.03589 0.18942 0.0
C3408 C 0.1223 1.0009 0.22097 0.0
H3409 H 0.10396 0.96377 0.23816 0.0
C3410 C 0.13448 0.00326 0.23518 0.0
C3411 C 0.11 0.9869 0.22266 0.0
C3412 C 0.09806 0.98105 0.20755 0.0
C3413 C 0.12878 1.00025 0.25398 0.0
C3414 C 0.1217 0.98153 0.25257 0.0
C3415 C 0.11081 0.97651 0.23804 0.0
C3416 C 0.12728 0.96596 0.26386 0.0
C3417 C 0.12569 0.02648 0.28265 0.0
C3418 C 0.14523 0.96115 0.2654 0.0
C3419 C 0.15028 0.94647 0.27591 0.0
C3420 C 0.13747 0.93634 0.28525 0.0
C3421 C 0.11941 0.9407 0.28288 0.0
C3422 C 0.11439 0.95515 0.27216 0.0
H3423 H 0.13208 0.04015 0.28203 0.0
H3424 H 0.11239 0.0318 0.28729 0.0
H3425 H 0.13041 0.02377 0.29674 0.0
H3426 H 0.15535 0.96879 0.25852 0.0
H3427 H 0.16428 0.94326 0.27693 0.0
H3428 H 0.33627 0.86098 0.5334 0.0
H3429 H 0.31314 0.85788 0.51098 0.0
H3430 H 0.3032 0.91451 0.51329 0.0
H3431 H 0.3277 0.91812 0.53395 0.0
H3432 H 0.28046 0.86162 0.50978 0.0
H3433 H 0.30552 0.91119 0.46156 0.0
H3434 H 0.31829 0.90452 0.48076 0.0
H3435 H 0.30148 0.92164 0.48264 0.0
C3436 C 0.32966 0.87295 0.5288 0.0
C3437 C 0.33444 0.88989 0.53551 0.0
C3438 C 0.3161 0.87109 0.51606 0.0
C3439 C 0.3066 0.88602 0.50982 0.0
C3440 C 0.31071 0.9028 0.51713 0.0
H3441 H 0.21621 0.89975 0.43701 0.0
H3442 H 0.23825 0.90306 0.46093 0.0
C3443 C 0.32461 0.90477 0.52944 0.0
C3444 C 0.29219 0.88395 0.49608 0.0
H3445 H 0.27566 0.90141 0.45717 0.0
C3446 C 0.2795 0.87034 0.49831 0.0
C3447 C 0.29091 0.89507 0.48076 0.0
C3448 C 0.30491 0.90876 0.47618 0.0
C3449 C 0.26549 0.86782 0.4861 0.0
C3450 C 0.26396 0.87927 0.47115 0.0
C3451 C 0.27661 0.89284 0.46881 0.0
C3452 C 0.24988 0.8769 0.45728 0.0
C3453 C 0.25244 0.8529 0.48937 0.0
C3454 C 0.24904 0.86112 0.44721 0.0
C3455 C 0.23649 0.8592 0.43352 0.0
C3456 C 0.22452 0.87308 0.42942 0.0
C3457 C 0.2253 0.88885 0.43963 0.0
C3458 C 0.23787 0.89074 0.45338 0.0
H3459 H 0.25234 0.84869 0.50358 0.0
H3460 H 0.23879 0.85686 0.48542 0.0
H3461 H 0.25633 0.84115 0.48124 0.0
H3462 H 0.25839 0.8504 0.44964 0.0
H3463 H 0.23658 0.847 0.42578 0.0
H3464 H 0.35572 0.05566 0.7991 0.0
H3465 H 0.36061 0.03497 0.77501 0.0
H3466 H 0.39644 0.0715 0.74957 0.0
H3467 H 0.39073 0.09344 0.77307 0.0
H3468 H 0.35417 0.03927 0.73819 0.0
H3469 H 0.42397 0.02324 0.75408 0.0
H3470 H 0.4123 0.04091 0.76551 0.0
H3471 H 0.42196 0.04486 0.74399 0.0
C3472 C 0.36444 0.05973 0.78838 0.0
C3473 C 0.37265 0.07662 0.78834 0.0
C3474 C 0.36738 0.04755 0.77459 0.0
C3475 C 0.37902 0.05135 0.76054 0.0
C3476 C 0.38755 0.06803 0.7604 0.0
H3477 H 0.4158 0.9808 0.67486 0.0
H3478 H 0.41142 0.00512 0.69599 0.0
C3479 C 0.38434 0.08055 0.77406 0.0
C3480 C 0.38161 0.03784 0.74603 0.0
H3481 H 0.41172 0.00877 0.72808 0.0
C3482 C 0.36679 0.03266 0.73588 0.0
C3483 C 0.39811 0.02936 0.74275 0.0
C3484 C 0.41491 0.03483 0.75229 0.0
C3485 C 0.36794 0.01939 0.72258 0.0
C3486 C 0.38423 0.01013 0.7199 0.0
C3487 C 0.39911 0.0155 0.73004 0.0
C3488 C 0.38639 0.99529 0.70642 0.0
C3489 C 0.35172 0.0161 0.7112 0.0
C3490 C 0.37381 0.98142 0.70478 0.0
C3491 C 0.37596 0.96782 0.69202 0.0
C3492 C 0.3913 0.96701 0.68131 0.0
C3493 C 0.40399 0.98071 0.68312 0.0
C3494 C 0.40148 0.99469 0.69531 0.0
H3495 H 0.34318 0.02818 0.71044 0.0
H3496 H 0.35537 0.01217 0.69739 0.0
H3497 H 0.34363 0.00533 0.71733 0.0
H3498 H 0.36241 0.98084 0.71354 0.0
H3499 H 0.36592 0.95752 0.69108 0.0
H3500 H 0.26213 0.1214 0.9155 0.0
H3501 H 0.24034 0.11895 0.93962 0.0
H3502 H 0.27311 0.1521 0.97304 0.0
H3503 H 0.29514 0.15445 0.94914 0.0
H3504 H 0.2416 0.1062 0.97367 0.0
H3505 H 0.22702 0.17881 0.97572 0.0
H3506 H 0.2401 0.16887 0.95817 0.0
H3507 H 0.24991 0.17334 0.97962 0.0
C3508 C 0.26489 0.12799 0.92806 0.0
C3509 C 0.28041 0.1383 0.93018 0.0
C3510 C 0.25233 0.12664 0.94186 0.0
C3511 C 0.25486 0.13562 0.95814 0.0
C3512 C 0.27062 0.14538 0.96053 0.0
H3513 H 0.1842 0.14512 0.05182 0.0
H3514 H 0.20947 0.14735 0.03127 0.0
C3515 C 0.28321 0.14674 0.94677 0.0
C3516 C 0.24091 0.1349 0.97242 0.0
H3517 H 0.21267 0.16083 0.99723 0.0
C3518 C 0.23528 0.11817 0.97877 0.0
C3519 C 0.23271 0.15049 0.97935 0.0
C3520 C 0.2376 0.16889 0.97278 0.0
C3521 C 0.22164 0.11658 0.99157 0.0
C3522 C 0.21311 0.13215 0.99813 0.0
C3523 C 0.21911 0.14889 0.99221 0.0
C3524 C 0.19749 0.1313 0.01051 0.0
C3525 C 0.21658 0.09818 0.99801 0.0
C3526 C 0.182 0.1221 0.00552 0.0
C3527 C 0.1674 0.12106 0.0171 0.0
C3528 C 0.16782 0.1292 0.03406 0.0
C3529 C 0.1832 0.13885 0.03884 0.0
C3530 C 0.19778 0.13999 0.02715 0.0
H3531 H 0.22785 0.08868 0.99666 0.0
H3532 H 0.21222 0.09836 0.01217 0.0
H3533 H 0.20544 0.0931 0.98975 0.0
H3534 H 0.18115 0.11573 0.99258 0.0
H3535 H 0.15573 0.11384 0.01271 0.0
H3536 H 0.16461 0.06167 0.21175 0.0
H3537 H 0.1595 0.03961 0.23387 0.0
H3538 H 0.10569 0.05863 0.24062 0.0
H3539 H 0.10983 0.07872 0.21575 0.0
H3540 H 0.16162 0.02782 0.26022 0.0
H3541 H 0.08045 0.01786 0.25052 0.0
H3542 H 0.09282 0.03192 0.23539 0.0
H3543 H 0.0858 0.04039 0.25677 0.0
C3544 C 0.15135 0.06077 0.21725 0.0
C3545 C 0.13753 0.07177 0.21105 0.0
C3546 C 0.14844 0.04815 0.23062 0.0
C3547 C 0.13172 0.04626 0.2389 0.0
C3548 C 0.11826 0.05828 0.23378 0.0
H3549 H 0.08941 0.96757 0.32738 0.0
H3550 H 0.09469 0.98954 0.30439 0.0
C3551 C 0.12093 0.07048 0.21976 0.0
C3552 C 0.12899 0.03167 0.25251 0.0
H3553 H 0.09276 0.99955 0.27716 0.0
C3554 C 0.14864 0.02224 0.26277 0.0
C3555 C 0.10759 0.02228 0.25796 0.0
C3556 C 0.09071 0.02845 0.24953 0.0
C3557 C 0.14699 0.00455 0.27853 0.0
C3558 C 0.12541 0.99584 0.28487 0.0
C3559 C 0.10582 0.00469 0.27409 0.0
C3560 C 0.12283 0.98361 0.30082 0.0
C3561 C 0.16386 1.00003 0.28807 0.0
C3562 C 0.13672 0.97323 0.30808 0.0
C3563 C 0.13376 0.96113 0.32202 0.0
C3564 C 0.11663 0.95831 0.32878 0.0
C3565 C 0.10274 0.96892 0.32209 0.0
C3566 C 0.10585 0.98156 0.30861 0.0
H3567 H 0.17449 0.00964 0.28447 0.0
H3568 H 0.16179 1.00062 0.30271 0.0
H3569 H 0.16846 0.98656 0.28408 0.0
H3570 H 0.14979 0.97318 0.30252 0.0
H3571 H 0.14483 0.95328 0.32688 0.0
H3572 H 0.29264 0.84541 0.55924 0.0
H3573 H 0.27007 0.84891 0.53621 0.0
H3574 H 0.24446 0.88988 0.56718 0.0
H3575 H 0.26579 0.88532 0.59124 0.0
H3576 H 0.22919 0.8475 0.54267 0.0
H3577 H 0.25653 0.90958 0.51304 0.0
H3578 H 0.26919 0.89556 0.52801 0.0
H3579 H 0.25265 0.9104 0.53676 0.0
C3580 C 0.28211 0.85498 0.56147 0.0
C3581 C 0.28124 0.86497 0.57743 0.0
C3582 C 0.26935 0.85718 0.54802 0.0
C3583 C 0.2558 0.86991 0.54981 0.0
C3584 C 0.25497 0.88015 0.56543 0.0
H3585 H 0.16712 0.90776 0.48646 0.0
H3586 H 0.19185 0.90378 0.50733 0.0
C3587 C 0.26739 0.8776 0.57915 0.0
C3588 C 0.24214 0.87208 0.53563 0.0
H3589 H 0.22798 0.90034 0.50271 0.0
C3590 C 0.22893 0.859 0.53386 0.0
C3591 C 0.24186 0.88711 0.5242 0.0
C3592 C 0.25588 0.90143 0.52543 0.0
C3593 C 0.21518 0.86072 0.52124 0.0
C3594 C 0.21483 0.87578 0.50977 0.0
C3595 C 0.22819 0.8888 0.51146 0.0
C3596 C 0.20042 0.8785 0.49633 0.0
C3597 C 0.20086 0.84664 0.52071 0.0
C3598 C 0.19718 0.86583 0.48288 0.0
C3599 C 0.18298 0.86804 0.47095 0.0
C3600 C 0.17181 0.88309 0.47207 0.0
C3601 C 0.17547 0.89604 0.48517 0.0
C3602 C 0.1896 0.89377 0.49714 0.0
H3603 H 0.20046 0.8387 0.53323 0.0
H3604 H 0.18757 0.85273 0.51854 0.0
H3605 H 0.20358 0.83733 0.50952 0.0
H3606 H 0.20558 0.85416 0.48163 0.0
H3607 H 0.18081 0.85801 0.46078 0.0
H3608 H 0.41184 0.0406 0.80549 0.0
H3609 H 0.40714 0.01631 0.78472 0.0
H3610 H 0.35814 0.00279 0.81103 0.0
H3611 H 0.36154 0.02825 0.83078 0.0
H3612 H 0.40552 0.98261 0.78934 0.0
H3613 H 0.33604 0.99276 0.77215 0.0
H3614 H 0.34685 0.01007 0.76011 0.0
H3615 H 0.34669 0.01033 0.7841 0.0
C3616 C 0.39961 0.0331 0.80658 0.0
C3617 C 0.38693 0.03706 0.81988 0.0
C3618 C 0.39701 0.019 0.79461 0.0
C3619 C 0.38175 0.00823 0.79545 0.0
C3620 C 0.36952 0.01146 0.80925 0.0
H3621 H 0.34785 0.92259 0.72473 0.0
H3622 H 0.35144 0.94358 0.74924 0.0
C3623 C 0.3718 0.02591 0.82096 0.0
C3624 C 0.37969 0.99307 0.78254 0.0
H3625 H 0.35372 0.97621 0.74913 0.0
C3626 C 0.39407 0.98116 0.78065 0.0
C3627 C 0.36458 0.99063 0.77137 0.0
C3628 C 0.34782 1.00169 0.77229 0.0
C3629 C 0.39395 0.96724 0.76804 0.0
C3630 C 0.37937 0.96557 0.7562 0.0
C3631 C 0.36497 0.97736 0.75813 0.0
C3632 C 0.37823 0.95148 0.74208 0.0
C3633 C 0.40929 0.95426 0.76798 0.0
C3634 C 0.3922 0.94841 0.72992 0.0
C3635 C 0.39033 0.93584 0.71615 0.0
C3636 C 0.37416 0.92675 0.71375 0.0
C3637 C 0.36033 0.92969 0.72599 0.0
C3638 C 0.3624 0.94173 0.74005 0.0
H3639 H 0.41582 0.95359 0.78128 0.0
H3640 H 0.40493 0.94061 0.76426 0.0
H3641 H 0.41943 0.95883 0.75824 0.0
H3642 H 0.40433 0.95613 0.73064 0.0
H3643 H 0.40119 0.93388 0.70685 0.0
H3644 H 0.32144 0.10488 0.94629 0.0
H3645 H 0.29643 0.10964 0.96668 0.0
H3646 H 0.33155 0.13543 0.00413 0.0
H3647 H 0.3566 0.1307 0.98385 0.0
H3648 H 0.29309 0.09657 1.00091 0.0
H3649 H 0.31158 0.16215 0.00787 0.0
H3650 H 0.29014 0.17028 1.0012 0.0
H3651 H 0.30374 0.15806 0.98555 0.0
C3652 C 0.32385 0.11151 0.9589 0.0
C3653 C 0.34105 0.11727 0.96353 0.0
C3654 C 0.30952 0.11433 0.97048 0.0
C3655 C 0.31206 0.12307 0.98684 0.0
C3656 C 0.32918 0.129 0.99141 0.0
H3657 H 0.25499 0.14751 0.08291 0.0
H3658 H 0.2755 0.14477 0.05772 0.0
C3659 C 0.34351 0.12622 0.97983 0.0
C3660 C 0.29712 0.12497 0.99968 0.0
H3661 H 0.27436 0.15535 0.0248 0.0
C3662 C 0.28884 0.10943 0.00603 0.0
C3663 C 0.29164 0.14175 0.00636 0.0
C3664 C 0.29964 0.159 0.99976 0.0
C3665 C 0.27591 0.11009 0.01955 0.0
C3666 C 0.27062 0.12687 0.02651 0.0
C3667 C 0.27844 0.14247 0.01961 0.0
C3668 C 0.25784 0.12856 0.04164 0.0
C3669 C 0.26882 0.09269 0.02683 0.0
C3670 C 0.24098 0.1205 0.04105 0.0
C3671 C 0.22943 0.12166 0.05566 0.0
C3672 C 0.23428 0.13143 0.07091 0.0
C3673 C 0.25092 0.13991 0.07131 0.0
C3674 C 0.26261 0.13839 0.05688 0.0
H3675 H 0.27785 0.08135 0.02382 0.0
H3676 H 0.26693 0.09336 0.04151 0.0
H3677 H 0.2558 0.08977 0.02051 0.0
H3678 H 0.2367 0.11336 0.02928 0.0
H3679 H 0.21653 0.11527 0.05489 0.0
H3680 H 0.90423 0.2788 0.10383 0.0
H3681 H 0.92675 0.25545 0.09959 0.0
H3682 H 0.95736 0.27716 0.14309 0.0
H3683 H 0.93496 0.30034 0.14751 0.0
H3684 H 0.96383 0.25672 0.09283 0.0
H3685 H 0.94995 0.22526 0.15843 0.0
H3686 H 0.9353 0.24159 0.14855 0.0
H3687 H 0.95531 0.24857 0.15968 0.0
C3688 C 0.91584 0.27871 0.11238 0.0
C3689 C 0.9176 0.29134 0.12618 0.0
C3690 C 0.92868 0.26531 0.10998 0.0
C3691 C 0.94355 0.26425 0.12131 0.0
C3692 C 0.94576 0.27735 0.13452 0.0
H3693 H 0.034 0.194 0.13598 0.0
H3694 H 0.01108 0.21701 0.13772 0.0
C3695 C 0.93292 0.29065 0.137 0.0
C3696 C 0.95658 0.24932 0.11961 0.0
H3697 H 0.97513 0.21454 0.14266 0.0
C3698 C 0.96618 0.24738 0.10365 0.0
C3699 C 0.95975 0.23719 0.13377 0.0
C3700 C 0.94944 0.2381 0.15103 0.0
C3701 C 0.9792 0.23399 0.10166 0.0
C3702 C 0.9824 0.22188 0.11586 0.0
C3703 C 0.97266 0.22374 0.13174 0.0
C3704 C 0.99625 0.20763 0.1148 0.0
C3705 C 0.98998 0.23346 0.08469 0.0
C3706 C 0.99543 0.19433 0.10162 0.0
C3707 C 0.00841 0.18093 0.10076 0.0
C3708 C 0.02255 0.18045 0.11311 0.0
C3709 C 0.02324 0.19373 0.12638 0.0
C3710 C 0.01019 0.20705 0.12729 0.0
H3711 H 0.98909 0.24622 0.07717 0.0
H3712 H 0.00419 0.23068 0.08761 0.0
H3713 H 0.98488 0.22264 0.07597 0.0
H3714 H 0.98458 0.19416 0.09211 0.0
H3715 H 0.00717 0.17076 0.09058 0.0
H3716 H 0.54409 0.30277 0.90007 0.0
H3717 H 0.5214 0.27973 0.89623 0.0
H3718 H 0.49582 0.31152 0.85584 0.0
H3719 H 0.51769 0.33509 0.86018 0.0
H3720 H 0.48459 0.28349 0.90105 0.0
H3721 H 0.49987 0.26233 0.83185 0.0
H3722 H 0.5152 0.27518 0.84518 0.0
H3723 H 0.49681 0.28597 0.83434 0.0
C3724 C 0.53363 0.305 0.89041 0.0
C3725 C 0.53285 0.321 0.88049 0.0
C3726 C 0.52079 0.29164 0.88809 0.0
C3727 C 0.50714 0.29368 0.8755 0.0
C3728 C 0.50648 0.30941 0.86533 0.0
H3729 H 0.41184 0.23947 0.84156 0.0
H3730 H 0.43783 0.25863 0.84578 0.0
C3731 C 0.51912 0.3229 0.86781 0.0
C3732 C 0.4929 0.27996 0.87381 0.0
H3733 H 0.47228 0.25245 0.84393 0.0
C3734 C 0.48199 0.27653 0.88862 0.0
C3735 C 0.48948 0.27095 0.85758 0.0
C3736 C 0.50105 0.27363 0.84136 0.0
C3737 C 0.46729 0.26497 0.88746 0.0
C3738 C 0.46368 0.25612 0.87113 0.0
C3739 C 0.47492 0.25922 0.85645 0.0
C3740 C 0.44791 0.24422 0.86871 0.0
C3741 C 0.45532 0.26308 0.90352 0.0
C3742 C 0.44489 0.22956 0.88006 0.0
C3743 C 0.42986 0.21872 0.8778 0.0
C3744 C 0.4177 0.2221 0.86393 0.0
C3745 C 0.42095 0.23652 0.85236 0.0
C3746 C 0.43583 0.24747 0.85476 0.0
H3747 H 0.45691 0.27443 0.91293 0.0
H3748 H 0.44114 0.26228 0.89951 0.0
H3749 H 0.45884 0.25067 0.91081 0.0
H3750 H 0.45426 0.22633 0.89054 0.0
H3751 H 0.42796 0.20744 0.88666 0.0
H3752 H 1.00176 0.67359 0.39555 0.0
H3753 H 0.02505 0.69574 0.39044 0.0
H3754 H 0.99754 0.71438 0.34349 0.0
H3755 H 0.97426 0.69181 0.34833 0.0
H3756 H 0.03602 0.70887 0.33981 0.0
H3757 H 0.01957 0.74882 0.40002 0.0
H3758 H 0.02272 0.72543 0.40311 0.0
H3759 H 0.00401 0.73321 0.39044 0.0
C3760 C 1.00063 0.68246 0.38417 0.0
C3761 C 0.98615 0.68107 0.37239 0.0
C3762 C 0.01393 0.69512 0.38129 0.0
C3763 C 0.01288 0.7069 0.36676 0.0
C3764 C 0.99857 0.70542 0.3548 0.0
H3765 H 0.08775 0.78605 0.32507 0.0
H3766 H 0.0632 0.76557 0.32892 0.0
C3767 C 0.98531 0.69256 0.35757 0.0
C3768 C 0.02674 0.72076 0.36418 0.0
H3769 H 0.04445 0.75806 0.38327 0.0
C3770 C 0.03788 0.71971 0.34923 0.0
C3771 C 0.02941 0.73451 0.37677 0.0
C3772 C 0.01824 0.73571 0.39344 0.0
C3773 C 0.05193 0.73184 0.34671 0.0
C3774 C 0.0542 0.74621 0.35889 0.0
C3775 C 0.04283 0.74724 0.37381 0.0
C3776 C 0.06851 0.75996 0.35678 0.0
C3777 C 0.06465 0.7284 0.3315 0.0
C3778 C 0.07907 0.76494 0.37142 0.0
C3779 C 0.09255 0.77768 0.36957 0.0
C3780 C 0.09632 0.78552 0.35285 0.0
C3781 C 0.0855 0.78064 0.33825 0.0
C3782 C 0.07156 0.76843 0.34031 0.0
H3783 H 0.06497 0.71402 0.32787 0.0
H3784 H 0.06015 0.73587 0.31953 0.0
H3785 H 0.07839 0.7326 0.33489 0.0
H3786 H 0.07697 0.7589 0.3844 0.0
H3787 H 0.09986 0.78139 0.38143 0.0
H3788 H 0.99861 0.33096 0.09006 0.0
H3789 H 0.02097 0.3076 0.091 0.0
H3790 H 0.0068 0.29594 0.14556 0.0
H3791 H 0.98304 0.31797 0.14414 0.0
H3792 H 0.04956 0.30334 0.10866 0.0
H3793 H 0.00602 0.24699 0.12755 0.0
H3794 H 0.9971 0.26822 0.12076 0.0
H3795 H 0.00501 0.26483 0.14324 0.0
C3796 C 0.99979 0.32315 0.10215 0.0
C3797 C 0.9886 0.32634 0.11691 0.0
C3798 C 0.01287 0.30988 0.10274 0.0
C3799 C 0.01542 0.29958 0.1182 0.0
C3800 C 0.00477 0.30316 0.13321 0.0
H3801 H 0.11169 0.23846 0.13847 0.0
H3802 H 0.08848 0.26108 0.13644 0.0
C3803 C 0.99135 0.31614 0.13249 0.0
C3804 C 0.02945 0.28542 0.11856 0.0
H3805 H 0.03695 0.2414 0.12826 0.0
C3806 C 0.04672 0.28978 0.11287 0.0
C3807 C 0.02585 0.2676 0.12381 0.0
C3808 C 0.00744 0.26159 0.12901 0.0
C3809 C 0.06042 0.277 0.11245 0.0
C3810 C 0.05699 0.25938 0.1184 0.0
C3811 C 0.03968 0.25491 0.12384 0.0
C3812 C 0.07121 0.2455 0.11939 0.0
C3813 C 0.07835 0.28249 0.10527 0.0
C3814 C 0.06914 0.22888 0.1109 0.0
C3815 C 0.08235 0.21571 0.11229 0.0
C3816 C 0.09788 0.21882 0.12232 0.0
C3817 C 0.09991 0.23551 0.13071 0.0
C3818 C 0.0867 0.2486 0.12939 0.0
H3819 H 0.07721 0.29407 0.09605 0.0
H3820 H 0.08701 0.28657 0.11654 0.0
H3821 H 0.0849 0.27135 0.09804 0.0
H3822 H 0.05724 0.22606 0.10326 0.0
H3823 H 0.08017 0.20291 0.10594 0.0
H3824 H 0.60007 0.74052 0.63288 0.0
H3825 H 0.57428 0.76007 0.63114 0.0
H3826 H 0.54401 0.71806 0.60637 0.0
H3827 H 0.56961 0.6979 0.60887 0.0
H3828 H 0.53941 0.75161 0.58982 0.0
H3829 H 0.55114 0.76492 0.65639 0.0
H3830 H 0.54586 0.74176 0.65297 0.0
H3831 H 0.5296 0.75668 0.66251 0.0
C3832 C 0.5879 0.73518 0.62735 0.0
C3833 C 0.58705 0.71734 0.62134 0.0
C3834 C 0.5731 0.7465 0.62628 0.0
C3835 C 0.55696 0.74049 0.61905 0.0
C3836 C 0.5562 0.723 0.61226 0.0
H3837 H 0.45816 0.8027 0.60067 0.0
H3838 H 0.47979 0.77846 0.60165 0.0
C3839 C 0.57098 0.7115 0.61356 0.0
C3840 C 0.54114 0.75268 0.61845 0.0
H3841 H 0.515 0.7794 0.64468 0.0
C3842 C 0.53393 0.75753 0.60182 0.0
C3843 C 0.53386 0.76044 0.63409 0.0
C3844 C 0.54043 0.75552 0.65248 0.0
C3845 C 0.52044 0.77058 0.60036 0.0
C3846 C 0.51355 0.77874 0.61599 0.0
C3847 C 0.52028 0.77333 0.63265 0.0
C3848 C 0.50009 0.79354 0.61537 0.0
C3849 C 0.51439 0.77623 0.582 0.0
C3850 C 0.504 0.81024 0.62298 0.0
C3851 C 0.49172 0.82435 0.62218 0.0
C3852 C 0.475 0.82214 0.61395 0.0
C3853 C 0.47097 0.80522 0.60674 0.0
C3854 C 0.48336 0.79119 0.60737 0.0
H3855 H 0.52367 0.77163 0.57142 0.0
H3856 H 0.50114 0.7704 0.57922 0.0
H3857 H 0.51319 0.79098 0.58117 0.0
H3858 H 0.51679 0.81251 0.62924 0.0
H3859 H 0.49559 0.83713 0.62768 0.0
H3860 H 0.93486 0.69279 0.39262 0.0
H3861 H 0.96033 0.71305 0.396 0.0
H3862 H 0.93094 0.75483 0.36969 0.0
H3863 H 0.90538 0.73493 0.36658 0.0
H3864 H 0.97123 0.74413 0.35781 0.0
H3865 H 0.95867 0.76251 0.42879 0.0
H3866 H 0.95632 0.73962 0.42168 0.0
H3867 H 0.94068 0.75603 0.41418 0.0
C3868 C 0.93371 0.70636 0.38777 0.0
C3869 C 0.91797 0.71217 0.37934 0.0
C3870 C 0.94834 0.71788 0.38961 0.0
C3871 C 0.94752 0.73545 0.38309 0.0
C3872 C 0.93188 0.74131 0.37474 0.0
H3873 H 0.01723 0.82683 0.36918 0.0
H3874 H 0.99488 0.80353 0.36636 0.0
C3875 C 0.91728 0.72985 0.37293 0.0
C3876 C 0.96284 0.7479 0.385 0.0
H3877 H 0.98228 0.77698 0.41422 0.0
C3878 C 0.9737 0.75131 0.37014 0.0
C3879 C 0.96619 0.75705 0.40114 0.0
C3880 C 0.95491 0.75376 0.41744 0.0
C3881 C 0.98771 0.76376 0.37096 0.0
C3882 C 0.99064 0.77351 0.38693 0.0
C3883 C 0.98 0.76972 0.40191 0.0
C3884 C 0.00464 0.78764 0.38841 0.0
C3885 C 0.99947 0.76599 0.3548 0.0
C3886 C 0.01746 0.78691 0.40202 0.0
C3887 C 0.03076 0.79992 0.4033 0.0
C3888 C 0.03117 0.81463 0.39154 0.0
C3889 C 0.01793 0.81558 0.37821 0.0
C3890 C 0.00495 0.80223 0.37661 0.0
H3891 H 0.99422 0.77702 0.34642 0.0
H3892 H 0.01335 0.76926 0.35862 0.0
H3893 H 0.99965 0.75368 0.34652 0.0
H3894 H 0.01729 0.77623 0.41173 0.0
H3895 H 0.0407 0.7983 0.4136 0.0
H3896 H 0.46115 0.19649 0.85952 0.0
H3897 H 0.48249 0.22105 0.85664 0.0
H3898 H 0.51923 0.19282 0.89072 0.0
H3899 H 0.49775 0.16867 0.89411 0.0
H3900 H 0.51863 0.22606 0.90016 0.0
H3901 H 0.52529 0.2248 0.82634 0.0
H3902 H 0.50302 0.22846 0.83401 0.0
H3903 H 0.51382 0.20749 0.83847 0.0
C3904 C 0.47385 0.19551 0.86628 0.0
C3905 C 0.47774 0.18063 0.87706 0.0
C3906 C 0.4861 0.20955 0.86458 0.0
C3907 C 0.5027 0.20882 0.87325 0.0
C3908 C 0.50656 0.19386 0.88391 0.0
H3909 H 0.60364 0.26309 0.87904 0.0
H3910 H 0.57782 0.24347 0.88203 0.0
C3911 C 0.49425 0.18001 0.88584 0.0
C3912 C 0.5161 0.22352 0.87162 0.0
H3913 H 0.54121 0.24712 0.84166 0.0
C3914 C 0.5235 0.23064 0.88733 0.0
C3915 C 0.52252 0.22969 0.85491 0.0
C3916 C 0.5159 0.22213 0.83747 0.0
C3917 C 0.53733 0.24327 0.88683 0.0
C3918 C 0.54396 0.24914 0.87016 0.0
C3919 C 0.53614 0.2426 0.85444 0.0
C3920 C 0.55954 0.26138 0.86872 0.0
C3921 C 0.54486 0.24999 0.90425 0.0
C3922 C 0.55799 0.27793 0.86004 0.0
C3923 C 0.57275 0.28922 0.85835 0.0
C3924 C 0.58949 0.28415 0.86514 0.0
C3925 C 0.59097 0.26756 0.87384 0.0
C3926 C 0.57619 0.2563 0.87556 0.0
H3927 H 0.53483 0.24928 0.91512 0.0
H3928 H 0.55628 0.24145 0.90815 0.0
H3929 H 0.54964 0.26396 0.90313 0.0
H3930 H 0.54532 0.2822 0.85468 0.0
H3931 H 0.57098 0.30203 0.85188 0.0
H3932 H 0.88738 0.06375 0.71632 0.0
H3933 H 0.89145 0.03986 0.73829 0.0
H3934 H 0.83523 0.04023 0.74933 0.0
H3935 H 0.8309 0.06352 0.72704 0.0
H3936 H 0.88308 0.04064 0.77515 0.0
H3937 H 0.84429 0.98761 0.7412 0.0
H3938 H 0.83297 0.00847 0.74371 0.0
H3939 H 0.8523 0.00713 0.72966 0.0
C3940 C 0.87581 0.05858 0.72318 0.0
C3941 C 0.8588 0.06577 0.71987 0.0
C3942 C 0.87819 0.04495 0.73585 0.0
C3943 C 0.86363 0.03804 0.74536 0.0
C3944 C 0.84666 0.04507 0.74199 0.0
H3945 H 0.85219 0.95237 0.82484 0.0
H3946 H 0.84671 0.97612 0.80316 0.0
C3947 C 0.84425 0.05864 0.72936 0.0
C3948 C 0.86614 0.02391 0.75922 0.0
H3949 H 0.85359 0.98166 0.77089 0.0
C3950 C 0.87679 0.02765 0.77413 0.0
C3951 C 0.8576 0.00713 0.75814 0.0
C3952 C 0.84626 0.00222 0.74227 0.0
C3953 C 0.87907 0.01516 0.78802 0.0
C3954 C 0.87102 0.99805 0.78672 0.0
C3955 C 0.86002 0.99453 0.77192 0.0
C3956 C 0.87439 0.98343 0.80006 0.0
C3957 C 0.88961 0.02081 0.8042 0.0
C3958 C 0.8918 0.97902 0.80536 0.0
C3959 C 0.89496 0.96562 0.81802 0.0
C3960 C 0.88082 0.95592 0.82561 0.0
C3961 C 0.86343 0.95978 0.81971 0.0
C3962 C 0.86027 0.97334 0.80715 0.0
H3963 H 0.88874 0.03547 0.80629 0.0
H3964 H 0.8849 0.01404 0.8165 0.0
H3965 H 0.90383 0.01751 0.80207 0.0
H3966 H 0.90309 0.98597 0.79973 0.0
H3967 H 0.90854 0.96324 0.82216 0.0
H3968 H 0.66714 0.09473 0.47946 0.0
H3969 H 0.69218 0.09681 0.50014 0.0
H3970 H 0.70287 0.15029 0.48195 0.0
H3971 H 0.67814 0.14821 0.46076 0.0
H3972 H 0.73048 0.10632 0.49189 0.0
H3973 H 0.69603 0.15284 0.53831 0.0
H3974 H 0.68408 0.13896 0.52268 0.0
H3975 H 0.69572 0.15835 0.51492 0.0
C3976 C 0.67489 0.1069 0.47963 0.0
C3977 C 0.67044 0.12133 0.46838 0.0
C3978 C 0.6892 0.10806 0.49155 0.0
C3979 C 0.69933 0.12373 0.4927 0.0
C3980 C 0.69511 0.13813 0.48144 0.0
H3981 H 0.77814 0.15898 0.56993 0.0
H3982 H 0.75629 0.15648 0.54624 0.0
C3983 C 0.68085 0.13694 0.46941 0.0
C3984 C 0.71404 0.1251 0.50596 0.0
H3985 H 0.72535 0.14488 0.5454 0.0
C3986 C 0.72947 0.11482 0.50356 0.0
C3987 C 0.71266 0.13613 0.52119 0.0
C3988 C 0.69622 0.14716 0.52461 0.0
C3989 C 0.74367 0.11546 0.51583 0.0
C3990 C 0.74222 0.12634 0.53132 0.0
C3991 C 0.72668 0.13659 0.53361 0.0
C3992 C 0.75651 0.12758 0.54527 0.0
C3993 C 0.76009 0.10463 0.51171 0.0
C3994 C 0.76418 0.11223 0.5529 0.0
C3995 C 0.77726 0.11363 0.56619 0.0
C3996 C 0.78271 0.13044 0.57268 0.0
C3997 C 0.7748 0.14577 0.56516 0.0
C3998 C 0.76198 0.14435 0.55168 0.0
H3999 H 0.75853 0.09107 0.51747 0.0
H4000 H 0.76192 0.10304 0.49707 0.0
H4001 H 0.77229 0.11072 0.51732 0.0
H4002 H 0.75991 0.09907 0.54878 0.0
H4003 H 0.78303 0.10146 0.57138 0.0
H4004 H 0.61266 0.92063 0.23204 0.0
H4005 H 0.60642 0.9437 0.25427 0.0
H4006 H 0.6611 0.96076 0.25217 0.0
H4007 H 0.66746 0.93768 0.23005 0.0
H4008 H 0.64997 0.95886 0.28593 0.0
H4009 H 0.59847 0.99566 0.24767 0.0
H4010 H 0.59318 0.97273 0.25174 0.0
H4011 H 0.61167 0.97824 0.23764 0.0
C4012 C 0.62334 0.92941 0.23613 0.0
C4013 C 0.64058 0.9272 0.22914 0.0
C4014 C 0.61972 0.9427 0.24885 0.0
C4015 C 0.63317 0.95435 0.25474 0.0
C4016 C 0.65043 0.95204 0.2479 0.0
H4017 H 0.64283 0.04208 0.33222 0.0
H4018 H 0.64854 0.01799 0.31099 0.0
C4019 C 0.65407 0.93873 0.23525 0.0
C4020 C 0.62953 0.9686 0.26833 0.0
H4021 H 0.60367 0.00511 0.27715 0.0
C4022 C 0.63989 0.96904 0.28395 0.0
C4023 C 0.61616 0.98176 0.26605 0.0
C4024 C 0.60433 0.98221 0.24981 0.0
C4025 C 0.63717 0.98198 0.29734 0.0
C4026 C 0.62419 0.99551 0.29481 0.0
C4027 C 0.61376 0.99497 0.27921 0.0
C4028 C 0.62093 0.01019 0.30813 0.0
C4029 C 0.64784 0.98044 0.31434 0.0
C4030 C 0.60348 0.0146 0.31326 0.0
C4031 C 0.60015 0.0288 0.32498 0.0
C4032 C 0.6142 0.03895 0.33212 0.0
C4033 C 0.6317 0.03437 0.32727 0.0
C4034 C 0.63499 0.02042 0.31518 0.0
H4035 H 0.65211 0.96645 0.31678 0.0
H4036 H 0.66003 0.98868 0.31314 0.0
H4037 H 0.64013 0.98505 0.3261 0.0
H4038 H 0.59231 0.00703 0.30818 0.0
H4039 H 0.58652 0.0317 0.32861 0.0
H4040 H 0.81961 0.85738 0.97505 0.0
H4041 H 0.79286 0.8577 0.99362 0.0
H4042 H 0.78296 0.91217 0.97824 0.0
H4043 H 0.80976 0.91257 0.9609 0.0
H4044 H 0.78022 0.90944 0.0101 0.0
H4045 H 0.71328 0.86726 0.97203 0.0
H4046 H 0.72474 0.84923 0.96707 0.0
H4047 H 0.72903 0.8683 0.95672 0.0
C4048 C 0.81188 0.86953 0.9756 0.0
C4049 C 0.81691 0.88476 0.96564 0.0
C4050 C 0.79631 0.86954 0.98606 0.0
C4051 C 0.78511 0.88454 0.98645 0.0
C4052 C 0.79059 0.89995 0.97729 0.0
H4053 H 0.70741 0.89913 0.07059 0.0
H4054 H 0.72559 0.9032 0.04381 0.0
C4055 C 0.80614 0.9001 0.96716 0.0
C4056 C 0.76915 0.88523 0.99852 0.0
H4057 H 0.74798 0.85569 0.02334 0.0
C4058 C 0.77057 0.89879 0.0116 0.0
C4059 C 0.75366 0.87245 0.99877 0.0
C4060 C 0.72782 0.86349 0.97099 0.0
C4061 C 0.76103 0.89792 0.02743 0.0
C4062 C 0.75225 0.88191 0.03124 0.0
C4063 C 0.75269 0.86829 0.01824 0.0
C4064 C 0.7416 0.87947 0.04792 0.0
C4065 C 0.7628 0.91282 0.0409 0.0
C4066 C 0.74384 0.86433 0.0588 0.0
C4067 C 0.73299 0.8617 0.07379 0.0
C4068 C 0.71989 0.87429 0.07836 0.0
C4069 C 0.71766 0.88943 0.06755 0.0
C4070 C 0.7282 0.89183 0.05235 0.0
H4071 H 0.77491 0.92096 0.03851 0.0
H4072 H 0.75116 0.92184 0.03973 0.0
H4073 H 0.7633 0.90756 0.05475 0.0
H4074 H 0.75391 0.85449 0.05564 0.0
H4075 H 0.73492 0.84989 0.08192 0.0
H4076 H 0.92484 0.03951 0.68299 0.0
H4077 H 0.91946 0.01482 0.70285 0.0
H4078 H 0.86359 0.01674 0.69029 0.0
H4079 H 0.86912 0.03954 0.66817 0.0
H4080 H 0.90437 0.00977 0.73089 0.0
H4081 H 0.86852 0.96564 0.68426 0.0
H4082 H 0.87884 0.98602 0.67691 0.0
H4083 H 0.85688 0.98633 0.68666 0.0
C4084 C 0.91144 0.03439 0.68364 0.0
C4085 C 0.89766 0.04156 0.67299 0.0
C4086 C 0.90831 0.0203 0.6955 0.0
C4087 C 0.89117 0.01324 0.69777 0.0
C4088 C 0.87713 0.02114 0.68823 0.0
H4089 H 0.84252 0.93438 0.76642 0.0
H4090 H 0.85019 0.95739 0.74489 0.0
C4091 C 0.88035 0.03472 0.67573 0.0
C4092 C 0.88812 0.99794 0.71037 0.0
H4093 H 0.86686 0.95783 0.71504 0.0
C4094 C 0.89625 0.99839 0.72728 0.0
C4095 C 0.87785 0.98273 0.70579 0.0
C4096 C 0.87022 0.98005 0.68734 0.0
C4097 C 0.89407 0.98452 0.73977 0.0
C4098 C 0.88295 0.96981 0.73556 0.0
C4099 C 0.87506 0.96921 0.71855 0.0
C4100 C 0.87867 0.95524 0.74861 0.0
C4101 C 0.90379 0.98607 0.75728 0.0
C4102 C 0.89204 0.94567 0.75765 0.0
C4103 C 0.88763 0.93232 0.77005 0.0
C4104 C 0.86974 0.92791 0.77341 0.0
C4105 C 0.85643 0.93727 0.76412 0.0
C4106 C 0.86084 0.95058 0.7518 0.0
H4107 H 0.90578 1.00025 0.76113 0.0
H4108 H 0.8967 0.97918 0.76818 0.0
H4109 H 0.91712 0.97988 0.75588 0.0
H4110 H 0.90592 0.94841 0.75504 0.0
H4111 H 0.89825 0.92516 0.77668 0.0
H4112 H 0.84148 0.15101 0.53141 0.0
H4113 H 0.8187 0.15444 0.50877 0.0
H4114 H 0.81508 0.09724 0.50355 0.0
H4115 H 0.83945 0.09366 0.52438 0.0
H4116 H 0.81407 0.11031 0.47267 0.0
H4117 H 0.78829 0.16215 0.50953 0.0
H4118 H 0.78695 0.14168 0.52212 0.0
H4119 H 0.76727 0.15139 0.51232 0.0
C4120 C 0.83619 0.13907 0.52529 0.0
C4121 C 0.84264 0.122 0.52998 0.0
C4122 C 0.8227 0.14109 0.51256 0.0
C4123 C 0.81468 0.12611 0.50468 0.0
C4124 C 0.82088 0.10908 0.50946 0.0
H4125 H 0.72064 0.11468 0.43706 0.0
H4126 H 0.74298 0.11211 0.46086 0.0
C4127 C 0.83477 0.10705 0.52172 0.0
C4128 C 0.80048 0.12803 0.49082 0.0
H4129 H 0.76054 0.14797 0.48148 0.0
C4130 C 0.80234 0.11847 0.47475 0.0
C4131 C 0.78511 0.13878 0.49329 0.0
C4132 C 0.78169 0.14893 0.51033 0.0
C4133 C 0.78943 0.11938 0.46124 0.0
C4134 C 0.77428 0.13018 0.46372 0.0
C4135 C 0.77227 0.13974 0.47966 0.0
C4136 C 0.76059 0.13195 0.44962 0.0
C4137 C 0.792 0.10882 0.4443 0.0
C4138 C 0.76317 0.14395 0.4355 0.0
C4139 C 0.75051 0.14543 0.42191 0.0
C4140 C 0.73505 0.13486 0.42215 0.0
C4141 C 0.7325 0.12284 0.43638 0.0
C4142 C 0.74516 0.12146 0.45004 0.0
H4143 H 0.80393 0.10009 0.44487 0.0
H4144 H 0.78011 0.10041 0.44174 0.0
H4145 H 0.79343 0.11812 0.43284 0.0
H4146 H 0.77504 0.15211 0.43495 0.0
H4147 H 0.75294 0.15469 0.41107 0.0
H4148 H 0.61011 0.98641 0.15872 0.0
H4149 H 0.61687 0.00923 0.18101 0.0
H4150 H 0.63512 0.96851 0.21722 0.0
H4151 H 0.62814 0.94566 0.19533 0.0
H4152 H 0.60365 0.01429 0.21411 0.0
H4153 H 0.67612 0.00236 0.21944 0.0
H4154 H 0.66282 0.99273 0.20187 0.0
H4155 H 0.66327 0.98267 0.22369 0.0
C4156 C 0.6154 0.98222 0.17149 0.0
C4157 C 0.6185 0.96401 0.17514 0.0
C4158 C 0.61939 0.99535 0.1842 0.0
C4159 C 0.62675 0.99065 0.20078 0.0
C4160 C 0.62983 0.97255 0.20445 0.0
H4161 H 0.62732 0.05458 0.2976 0.0
H4162 H 0.6213 0.03302 0.27454 0.0
C4163 C 0.62578 0.95943 0.19183 0.0
C4164 C 0.63059 0.00457 0.21449 0.0
H4165 H 0.66316 0.02093 0.2418 0.0
C4166 C 0.61671 0.01584 0.22003 0.0
C4167 C 0.64762 0.0066 0.2223 0.0
C4168 C 0.66335 0.99557 0.2164 0.0
C4169 C 0.61929 0.0288 0.23337 0.0
C4170 C 0.63622 0.03057 0.24141 0.0
C4171 C 0.65016 0.0195 0.2357 0.0
C4172 C 0.63983 0.04406 0.25554 0.0
C4173 C 0.60387 0.04055 0.23865 0.0
C4174 C 0.65231 0.05763 0.25267 0.0
C4175 C 0.65585 0.07031 0.26595 0.0
C4176 C 0.6473 0.06956 0.28276 0.0
C4177 C 0.63459 0.0559 0.28531 0.0
C4178 C 0.63098 0.04336 0.27196 0.0
H4179 H 0.59323 0.04054 0.22836 0.0
H4180 H 0.59808 0.03549 0.2513 0.0
H4181 H 0.6083 0.05451 0.24087 0.0
H4182 H 0.65919 0.05858 0.23999 0.0
H4183 H 0.66514 0.08078 0.26266 0.0
H4184 H 0.66863 0.88959 0.01981 0.0
H4185 H 0.69261 0.88673 0.99847 0.0
H4186 H 0.71844 0.84842 0.03278 0.0
H4187 H 0.69449 0.85145 0.05442 0.0
H4188 H 0.7213 0.89998 0.99296 0.0
H4189 H 0.73404 0.81885 0.99395 0.0
H4190 H 0.71516 0.82921 0.00495 0.0
H4191 H 0.73623 0.82723 0.01628 0.0
C4192 C 0.6795 0.88068 0.02305 0.0
C4193 C 0.67975 0.87122 0.03934 0.0
C4194 C 0.6933 0.879 0.01066 0.0
C4195 C 0.70772 0.86757 0.0139 0.0
C4196 C 0.70755 0.85728 0.02964 0.0
H4197 H 0.80357 0.84285 0.93466 0.0
H4198 H 0.78565 0.84535 0.9613 0.0
C4199 C 0.69375 0.85907 0.04219 0.0
C4200 C 0.72302 0.86745 1.00118 0.0
H4201 H 0.75944 0.83569 0.97627 0.0
C4202 C 0.72856 0.88788 0.98998 0.0
C4203 C 0.73537 0.84738 0.99602 0.0
C4204 C 0.72979 0.82961 0.00319 0.0
C4205 C 0.74555 0.8884 0.97335 0.0
C4206 C 0.75787 0.86813 0.9681 0.0
C4207 C 0.75296 0.84803 0.97998 0.0
C4208 C 0.76858 0.8664 0.95128 0.0
C4209 C 0.74833 0.9056 0.96363 0.0
C4210 C 0.76405 0.8759 0.93574 0.0
C4211 C 0.77382 0.87384 0.91992 0.0
C4212 C 0.78842 0.86206 0.91903 0.0
C4213 C 0.79248 0.85205 0.93445 0.0
C4214 C 0.78235 0.85378 0.95005 0.0
H4215 H 0.73723 0.90757 0.95408 0.0
H4216 H 0.74791 0.91682 0.97329 0.0
H4217 H 0.76107 0.90577 0.95627 0.0
H4218 H 0.75246 0.88439 0.93539 0.0
H4219 H 0.76952 0.88119 0.90825 0.0
H4220 H 0.96682 0.8191 0.86904 0.0
H4221 H 0.98984 0.79617 0.86563 0.0
H4222 H 0.99742 0.79519 0.92264 0.0
H4223 H 0.97462 0.8182 0.92618 0.0
H4224 H 0.02617 0.80024 0.87766 0.0
H4225 H 0.99359 0.74177 0.90944 0.0
H4226 H 0.9812 0.76102 0.90187 0.0
H4227 H 0.99367 0.76201 0.92225 0.0
C4228 C 0.97338 0.81404 0.88087 0.0
C4229 C 0.96888 0.82065 0.89789 0.0
C4230 C 0.98648 0.80083 0.8789 0.0
C4231 C 0.9953 0.79384 0.89389 0.0
C4232 C 0.9906 0.80012 0.9109 0.0
H4233 H 0.07913 0.71301 0.90556 0.0
H4234 H 0.05552 0.73469 0.91095 0.0
C4235 C 0.97752 0.81332 0.91289 0.0
C4236 C 0.01026 0.78094 0.89164 0.0
H4237 H 0.02374 0.73841 0.90116 0.0
C4238 C 0.02562 0.78667 0.8827 0.0
C4239 C 0.00973 0.7634 0.89864 0.0
C4240 C 0.99363 0.75656 0.90848 0.0
C4241 C 0.0405 0.77546 0.88066 0.0
C4242 C 0.03977 0.75759 0.88697 0.0
C4243 C 0.02443 0.75197 0.89618 0.0
C4244 C 0.05451 0.74444 0.88375 0.0
C4245 C 0.05704 0.78329 0.87234 0.0
C4246 C 0.06182 0.74226 0.86662 0.0
C4247 C 0.0758 0.7303 0.86361 0.0
C4248 C 0.08258 0.71957 0.87751 0.0
C4249 C 0.07478 0.72129 0.89455 0.0
C4250 C 0.06102 0.73359 0.89763 0.0
H4251 H 0.05783 0.7979 0.87472 0.0
H4252 H 0.06929 0.77701 0.87771 0.0
H4253 H 0.05659 0.78125 0.85768 0.0
H4254 H 0.05667 0.74979 0.85542 0.0
H4255 H 0.08136 0.72968 0.8503 0.0
H4256 H 0.50174 0.6629 0.12227 0.0
H4257 H 0.52372 0.68647 0.12687 0.0
H4258 H 0.48753 0.72514 0.1045 0.0
H4259 H 0.46562 0.70146 0.09945 0.0
H4260 H 0.5208 0.72923 0.09122 0.0
H4261 H 0.52508 0.7243 0.16481 0.0
H4262 H 0.52891 0.70334 0.15392 0.0
H4263 H 0.50748 0.71393 0.15218 0.0
C4264 C 0.49835 0.67645 0.11851 0.0
C4265 C 0.48182 0.68027 0.11059 0.0
C4266 C 0.51094 0.68996 0.12121 0.0
C4267 C 0.50723 0.70772 0.11636 0.0
C4268 C 0.49075 0.71159 0.10841 0.0
H4269 H 0.57211 0.80585 0.11716 0.0
H4270 H 0.54842 0.78396 0.11229 0.0
C4271 C 0.47822 0.69802 0.10552 0.0
C4272 C 0.52079 0.72206 0.11903 0.0
H4273 H 0.54745 0.74142 0.15048 0.0
C4274 C 0.52655 0.732 0.1042 0.0
C4275 C 0.52837 0.72568 0.13594 0.0
C4276 C 0.52203 0.71638 0.15265 0.0
C4277 C 0.54005 0.74496 0.10567 0.0
C4278 C 0.54778 0.7485 0.12259 0.0
C4279 C 0.54181 0.73867 0.13745 0.0
C4280 C 0.56218 0.76208 0.12531 0.0
C4281 C 0.5463 0.75414 0.08887 0.0
C4282 C 0.57761 0.75752 0.13492 0.0
C4283 C 0.59084 0.77024 0.13829 0.0
C4284 C 0.58916 0.78776 0.13184 0.0
C4285 C 0.57389 0.79236 0.12205 0.0
C4286 C 0.56039 0.77976 0.11911 0.0
H4287 H 0.54349 0.74596 0.07683 0.0
H4288 H 0.53908 0.76697 0.08733 0.0
H4289 H 0.56079 0.75692 0.08931 0.0
H4290 H 0.5794 0.74408 0.13996 0.0
H4291 H 0.60242 0.76639 0.14599 0.0
H4292 H 1.00207 0.34154 0.64475 0.0
H4293 H 0.97911 0.31858 0.64855 0.0
H4294 H 0.01051 0.28163 0.61785 0.0
H4295 H 0.0336 0.30444 0.61407 0.0
H4296 H 0.96142 0.29844 0.61741 0.0
H4297 H 0.99681 0.25509 0.66637 0.0
H4298 H 1.00096 0.27883 0.66503 0.0
H4299 H 0.00905 0.26434 0.64788 0.0
C4300 C 0.00423 0.32846 0.63901 0.0
C4301 C 0.01974 0.32484 0.62913 0.0
C4302 C 0.99103 0.31538 0.64109 0.0
C4303 C 0.99315 0.29835 0.63356 0.0
C4304 C 0.00868 0.29462 0.62388 0.0
H4305 H 0.91461 0.21346 0.61764 0.0
H4306 H 0.93821 0.2356 0.61374 0.0
C4307 C 0.0218 0.30772 0.62165 0.0
C4308 C 0.97894 0.28462 0.63543 0.0
H4309 H 0.96851 0.24563 0.65679 0.0
C4310 C 0.96298 0.28684 0.62595 0.0
C4311 C 0.981 0.26953 0.64659 0.0
C4312 C 0.99781 0.26667 0.65716 0.0
C4313 C 0.94907 0.27433 0.6273 0.0
C4314 C 0.95112 0.25922 0.63847 0.0
C4315 C 0.96701 0.25711 0.6481 0.0
C4316 C 0.93669 0.24574 0.64072 0.0
C4317 C 0.93211 0.27752 0.61704 0.0
C4318 C 0.92804 0.24392 0.65722 0.0
C4319 C 0.91441 0.23137 0.65947 0.0
C4320 C 0.90917 0.22014 0.64531 0.0
C4321 C 0.91795 0.222 0.62878 0.0
C4322 C 0.93155 0.23464 0.62653 0.0
H4323 H 0.93137 0.29131 0.61162 0.0
H4324 H 0.93142 0.26804 0.60568 0.0
H4325 H 0.92036 0.27513 0.62568 0.0
H4326 H 0.93175 0.25235 0.66835 0.0
H4327 H 0.90788 0.2306 0.67232 0.0
H4328 H 0.03271 0.6774 0.85533 0.0
H4329 H 0.0115 0.70116 0.84918 0.0
H4330 H 1.00293 0.70822 0.90564 0.0
H4331 H 0.02289 0.68346 0.91191 0.0
H4332 H 0.97269 0.70857 0.88967 0.0
H4333 H 0.017 0.75331 0.85169 0.0
H4334 H 0.0135 0.73294 0.83968 0.0
H4335 H 0.02487 0.73249 0.86079 0.0
C4336 C 0.0262 0.68378 0.86651 0.0
C4337 C 0.02962 0.67823 0.88418 0.0
C4338 C 0.01425 0.6977 0.86293 0.0
C4339 C 0.00579 0.70687 0.87692 0.0
C4340 C 0.00934 0.70153 0.89456 0.0
H4341 H 0.9249 0.79105 0.88488 0.0
H4342 H 0.94874 0.76961 0.89121 0.0
C4343 C 0.021 0.6874 0.89814 0.0
C4344 C 0.99251 0.7213 0.87328 0.0
H4345 H 0.98575 0.76058 0.85088 0.0
C4346 C 0.97565 0.71999 0.88128 0.0
C4347 C 0.99615 0.7362 0.86214 0.0
C4348 C 0.01393 0.73888 0.85323 0.0
C4349 C 0.96238 0.7329 0.87837 0.0
C4350 C 0.96609 0.74783 0.86739 0.0
C4351 C 0.9829 0.74918 0.85934 0.0
C4352 C 0.9525 0.76184 0.86362 0.0
C4353 C 0.94435 0.73014 0.88676 0.0
C4354 C 0.94721 0.76527 0.84596 0.0
C4355 C 0.93375 0.77767 0.84232 0.0
C4356 C 0.92522 0.78687 0.85626 0.0
C4357 C 0.93092 0.78386 0.8739 0.0
C4358 C 0.94453 0.77159 0.87752 0.0
H4359 H 0.94221 0.716 0.89069 0.0
H4360 H 0.94335 0.73843 0.89899 0.0
H4361 H 0.93354 0.73417 0.8775 0.0
H4362 H 0.95322 0.75802 0.835 0.0
H4363 H 0.92966 0.77968 0.8286 0.0
H4364 H 0.4041 0.27424 0.36365 0.0
H4365 H 0.42873 0.25348 0.36708 0.0
H4366 H 0.44699 0.28254 0.41314 0.0
H4367 H 0.42336 0.30453 0.40888 0.0
H4368 H 0.46546 0.26295 0.36584 0.0
H4369 H 0.44747 0.23016 0.42991 0.0
H4370 H 0.43164 0.24281 0.41691 0.0
H4371 H 0.44797 0.25416 0.43018 0.0
C4372 C 0.41347 0.27657 0.37435 0.0
C4373 C 0.41174 0.29148 0.38574 0.0
C4374 C 0.42749 0.26447 0.3764 0.0
C4375 C 0.43987 0.26653 0.39022 0.0
C4376 C 0.4377 0.28074 0.40226 0.0
H4377 H 0.53175 0.2006 0.41919 0.0
H4378 H 0.50904 0.22389 0.41803 0.0
C4379 C 0.42397 0.29323 0.39991 0.0
C4380 C 0.45548 0.25431 0.39134 0.0
H4381 H 0.47492 0.22206 0.41703 0.0
C4382 C 0.46753 0.25398 0.37703 0.0
C4383 C 0.45833 0.24281 0.40603 0.0
C4384 C 0.44563 0.24232 0.4216 0.0
C4385 C 0.48235 0.24251 0.37699 0.0
C4386 C 0.48496 0.23057 0.39146 0.0
C4387 C 0.47302 0.23115 0.40592 0.0
C4388 C 0.49958 0.21701 0.39165 0.0
C4389 C 0.49514 0.24362 0.36153 0.0
C4390 C 0.50196 0.20522 0.37725 0.0
C4391 C 0.51527 0.19215 0.37767 0.0
C4392 C 0.5263 0.19014 0.39274 0.0
C4393 C 0.52382 0.20189 0.4072 0.0
C4394 C 0.51067 0.21515 0.40664 0.0
H4395 H 0.49509 0.25717 0.35551 0.0
H4396 H 0.50891 0.24028 0.36565 0.0
H4397 H 0.49093 0.23412 0.351 0.0
H4398 H 0.49331 0.20588 0.36572 0.0
H4399 H 0.51681 0.18354 0.36618 0.0
H4400 H 0.99627 0.18026 0.59114 0.0
H4401 H 0.01819 0.20408 0.59408 0.0
H4402 H 0.98847 0.22643 0.63787 0.0
H4403 H 0.9662 0.2027 0.63487 0.0
H4404 H 0.0143 0.24083 0.59137 0.0
H4405 H 0.03816 0.22175 0.65891 0.0
H4406 H 0.02454 0.20716 0.64548 0.0
H4407 H 0.01464 0.22553 0.65729 0.0
C4408 C 0.99424 0.19033 0.6013 0.0
C4409 C 0.97941 0.18954 0.61276 0.0
C4410 C 0.00686 0.20392 0.60301 0.0
C4411 C 0.00508 0.21698 0.61629 0.0
C4412 C 0.99025 0.21635 0.6277 0.0
H4413 H 0.07303 0.30415 0.65026 0.0
H4414 H 0.0488 0.28312 0.64568 0.0
C4415 C 0.97756 0.20275 0.626 0.0
C4416 C 0.0188 0.2312 0.61807 0.0
H4417 H 0.04997 0.24815 0.64652 0.0
C4418 C 0.02212 0.24244 0.60342 0.0
C4419 C 0.02903 0.23328 0.63377 0.0
C4420 C 0.02657 0.22122 0.64972 0.0
C4421 C 0.03521 0.25585 0.60412 0.0
C4422 C 0.0455 0.25791 0.61983 0.0
C4423 C 0.04211 0.24666 0.63447 0.0
C4424 C 0.05976 0.27165 0.62156 0.0
C4425 C 0.0375 0.26789 0.58813 0.0
C4426 C 0.07402 0.27246 0.60943 0.0
C4427 C 0.08789 0.28474 0.6119 0.0
C4428 C 0.08796 0.29621 0.62675 0.0
C4429 C 0.07354 0.29549 0.63872 0.0
C4430 C 0.05964 0.2834 0.63614 0.0
H4431 H 0.04809 0.26237 0.57942 0.0
H4432 H 0.0251 0.26868 0.58011 0.0
H4433 H 0.04137 0.2816 0.59211 0.0
H4434 H 0.07471 0.26326 0.59831 0.0
H4435 H 0.09889 0.28478 0.60256 0.0
H4436 H 0.41997 0.72869 0.16241 0.0
H4437 H 0.44339 0.75058 0.15681 0.0
H4438 H 0.44955 0.73048 0.10327 0.0
H4439 H 0.42637 0.70825 0.10885 0.0
H4440 H 0.47861 0.74564 0.14767 0.0
H4441 H 0.44352 0.78363 0.09468 0.0
H4442 H 0.43235 0.76758 0.10871 0.0
H4443 H 0.44572 0.76019 0.09024 0.0
C4444 C 0.42635 0.72882 0.14945 0.0
C4445 C 0.42115 0.7167 0.13606 0.0
C4446 C 0.43972 0.74141 0.14626 0.0
C4447 C 0.44815 0.74233 0.12956 0.0
C4448 C 0.44305 0.73025 0.11616 0.0
H4449 H 0.52681 0.81501 0.08523 0.0
H4450 H 0.50589 0.79096 0.0906 0.0
C4451 C 0.42971 0.71759 0.11936 0.0
C4452 C 0.46235 0.75582 0.12633 0.0
H4453 H 0.47329 0.79173 0.10044 0.0
C4454 C 0.47746 0.75575 0.13736 0.0
C4455 C 0.46088 0.76899 0.11286 0.0
C4456 C 0.44469 0.77027 0.10103 0.0
C4457 C 0.49113 0.7684 0.13526 0.0
C4458 C 0.48965 0.78165 0.1218 0.0
C4459 C 0.47458 0.78158 0.11069 0.0
C4460 C 0.50342 0.79578 0.11897 0.0
C4461 C 0.50707 0.76724 0.14742 0.0
C4462 C 0.50922 0.80669 0.13308 0.0
C4463 C 0.5219 0.82007 0.13021 0.0
C4464 C 0.52867 0.82347 0.11298 0.0
C4465 C 0.52247 0.81274 0.0988 0.0
C4466 C 0.5102 0.79901 0.1018 0.0
H4467 H 0.50856 0.75368 0.15318 0.0
H4468 H 0.51948 0.77088 0.14028 0.0
H4469 H 0.50526 0.77656 0.15877 0.0
H4470 H 0.5038 0.80504 0.14635 0.0
H4471 H 0.52637 0.82769 0.14161 0.0
H4472 H 0.6118 0.427 0.79059 0.0
H4473 H 0.60962 0.44831 0.76586 0.0
H4474 H 0.66505 0.46127 0.77225 0.0
H4475 H 0.66769 0.43949 0.79594 0.0
H4476 H 0.61309 0.48231 0.76246 0.0
H4477 H 0.66377 0.45478 0.71949 0.0
H4478 H 0.65502 0.44236 0.7382 0.0
H4479 H 0.6737 0.45713 0.74108 0.0
C4480 C 0.62366 0.43409 0.78654 0.0
C4481 C 0.63994 0.43138 0.79555 0.0
C4482 C 0.62233 0.44638 0.77237 0.0
C4483 C 0.63726 0.45615 0.76677 0.0
C4484 C 0.65341 0.45356 0.77583 0.0
H4485 H 0.64958 0.53577 0.68231 0.0
H4486 H 0.65847 0.51646 0.70648 0.0
C4487 C 0.6548 0.44127 0.7898 0.0
C4488 C 0.63624 0.46998 0.75238 0.0
H4489 H 0.6549 0.48492 0.71443 0.0
C4490 C 0.6245 0.4846 0.75405 0.0
C4491 C 0.64875 0.47074 0.73848 0.0
C4492 C 0.66086 0.45532 0.73402 0.0
C4493 C 0.63129 0.50284 0.75061 0.0
C4494 C 0.6377 0.50055 0.7318 0.0
C4495 C 0.64819 0.48556 0.72722 0.0
C4496 C 0.63179 0.51152 0.71615 0.0
C4497 C 0.63717 0.53173 0.77604 0.0
C4498 C 0.61369 0.51433 0.71258 0.0
C4499 C 0.60838 0.52483 0.69799 0.0
C4500 C 0.62107 0.53319 0.68685 0.0
C4501 C 0.63919 0.52954 0.69008 0.0
C4502 C 0.64441 0.5186 0.70425 0.0
H4503 H 0.64228 0.52937 0.79006 0.0
H4504 H 0.64667 0.54316 0.7734 0.0
H4505 H 0.62605 0.54075 0.78076 0.0
H4506 H 0.60366 0.50846 0.72114 0.0
H4507 H 0.59429 0.5266 0.69573 0.0
H4508 H 0.84838 0.38902 0.02273 0.0
H4509 H 0.82442 0.38452 1.00157 0.0
H4510 H 0.80276 0.34299 0.03498 0.0
H4511 H 0.82557 0.34883 0.05734 0.0
H4512 H 0.81465 0.35824 0.98153 0.0
H4513 H 0.78086 0.37487 0.03455 0.0
H4514 H 0.77366 0.35192 0.0345 0.0
H4515 H 0.75841 0.369 0.02827 0.0
C4516 C 0.83828 0.37926 0.02598 0.0
C4517 C 0.83887 0.36966 0.04218 0.0
C4518 C 0.82464 0.3765 0.0136 0.0
C4519 C 0.8113 0.36378 0.01676 0.0
C4520 C 0.81233 0.35345 0.03244 0.0
H4521 H 0.7144 0.34257 0.95503 0.0
H4522 H 0.73854 0.34158 0.97668 0.0
C4523 C 0.82574 0.35655 0.04512 0.0
C4524 C 0.79651 0.3616 0.00351 0.0
H4525 H 0.7513 0.36387 0.9988 0.0
C4526 C 0.8008 0.35943 0.98536 0.0
C4527 C 0.77833 0.36275 0.00837 0.0
C4528 C 0.77252 0.3649 0.02747 0.0
C4529 C 0.78759 0.35868 0.97205 0.0
C4530 C 0.76947 0.36079 0.97685 0.0
C4531 C 0.76514 0.36243 0.99502 0.0
C4532 C 0.75477 0.36138 0.96335 0.0
C4533 C 0.79328 0.35525 0.95304 0.0
C4534 C 0.75546 0.37312 0.94872 0.0
C4535 C 0.74183 0.37336 0.93595 0.0
C4536 C 0.72684 0.3622 0.93769 0.0
C4537 C 0.72585 0.35103 0.95283 0.0
C4538 C 0.73964 0.35057 0.9654 0.0
H4539 H 0.80611 0.3479 0.95253 0.0
H4540 H 0.78316 0.34742 0.94564 0.0
H4541 H 0.79525 0.3682 0.94613 0.0
H4542 H 0.7666 0.38211 0.94708 0.0
H4543 H 0.74331 0.38208 0.92453 0.0
H4544 H 0.83768 0.57157 0.28114 0.0
H4545 H 0.84233 0.55158 0.25586 0.0
H4546 H 0.89784 0.54725 0.26947 0.0
H4547 H 0.89336 0.56784 0.29438 0.0
H4548 H 0.89497 0.54859 0.23528 0.0
H4549 H 0.83509 0.52141 0.25063 0.0
H4550 H 0.84346 0.49993 0.25654 0.0
H4551 H 0.84897 0.51915 0.27 0.0
C4552 C 0.85084 0.56615 0.27895 0.0
C4553 C 0.86505 0.57095 0.29022 0.0
C4554 C 0.85349 0.55459 0.26445 0.0
C4555 C 0.87029 0.54703 0.26111 0.0
C4556 C 0.88462 0.55241 0.27192 0.0
H4557 H 0.91963 0.47046 0.18796 0.0
H4558 H 0.91345 0.49304 0.2103 0.0
C4559 C 0.88205 0.56422 0.28623 0.0
C4560 C 0.87316 0.53369 0.24641 0.0
H4561 H 0.85935 0.49318 0.23051 0.0
C4562 C 0.88714 0.53648 0.23426 0.0
C4563 C 0.86269 0.51803 0.24453 0.0
C4564 C 0.8468 0.51435 0.25621 0.0
C4565 C 0.89093 0.52425 0.22047 0.0
C4566 C 0.88114 0.50808 0.21929 0.0
C4567 C 0.86705 0.50539 0.23133 0.0
C4568 C 0.88503 0.49385 0.20567 0.0
C4569 C 0.90497 0.52928 0.20698 0.0
C4570 C 0.87113 0.48571 0.19612 0.0
C4571 C 0.87452 0.47196 0.18389 0.0
C4572 C 0.89202 0.46608 0.1805 0.0
C4573 C 0.90593 0.47431 0.19009 0.0
C4574 C 0.90245 0.4877 0.20269 0.0
H4575 H 0.90617 0.54401 0.20572 0.0
H4576 H 0.91805 0.52414 0.21151 0.0
H4577 H 0.90199 0.52371 0.19358 0.0
H4578 H 0.8575 0.48993 0.19815 0.0
H4579 H 0.86327 0.46578 0.17738 0.0
H4580 H 0.7793 0.60647 0.43972 0.0
H4581 H 0.75593 0.60374 0.46202 0.0
H4582 H 0.73664 0.65618 0.44842 0.0
H4583 H 0.75931 0.65873 0.42537 0.0
H4584 H 0.74043 0.65261 0.48404 0.0
H4585 H 0.70355 0.59417 0.45803 0.0
H4586 H 0.72679 0.58977 0.46111 0.0
H4587 H 0.71979 0.606 0.44483 0.0
C4588 C 0.76987 0.6173 0.44104 0.0
C4589 C 0.77144 0.63286 0.43055 0.0
C4590 C 0.75642 0.61568 0.45389 0.0
C4591 C 0.74437 0.6297 0.4569 0.0
C4592 C 0.74581 0.6452 0.44647 0.0
H4593 H 0.65691 0.64644 0.53296 0.0
H4594 H 0.67883 0.64997 0.50897 0.0
C4595 C 0.75901 0.64669 0.43336 0.0
C4596 C 0.73086 0.62861 0.47148 0.0
H4597 H 0.69672 0.60321 0.48777 0.0
C4598 C 0.73074 0.64191 0.48473 0.0
C4599 C 0.71823 0.61461 0.47249 0.0
C4600 C 0.71694 0.60043 0.45826 0.0
C4601 C 0.7186 0.64143 0.49904 0.0
C4602 C 0.70619 0.6273 0.50018 0.0
C4603 C 0.70627 0.61403 0.48693 0.0
C4604 C 0.69326 0.62575 0.5152 0.0
C4605 C 0.71943 0.6558 0.51309 0.0
C4606 C 0.69396 0.61095 0.52665 0.0
C4607 C 0.68149 0.60891 0.54036 0.0
C4608 C 0.66783 0.62155 0.5429 0.0
C4609 C 0.66731 0.63654 0.53156 0.0
C4610 C 0.67985 0.63858 0.51781 0.0
H4611 H 0.73168 0.66397 0.51193 0.0
H4612 H 0.70784 0.66485 0.51157 0.0
H4613 H 0.71882 0.64983 0.52665 0.0
H4614 H 0.7042 0.6009 0.52496 0.0
H4615 H 0.68256 0.59736 0.549 0.0
H4616 H 0.64919 0.46784 0.83021 0.0
H4617 H 0.65341 0.49108 0.80785 0.0
H4618 H 0.59952 0.48285 0.7898 0.0
H4619 H 0.59465 0.46182 0.81315 0.0
H4620 H 0.66278 0.49691 0.77868 0.0
H4621 H 0.58697 0.52791 0.77581 0.0
H4622 H 0.59392 0.51352 0.79392 0.0
H4623 H 0.5856 0.50421 0.77315 0.0
C4624 C 0.63804 0.47144 0.82181 0.0
C4625 C 0.62154 0.46271 0.82364 0.0
C4626 C 0.64055 0.4847 0.80875 0.0
C4627 C 0.62673 0.48947 0.79699 0.0
C4628 C 0.61034 0.48065 0.7989 0.0
H4629 H 0.61868 0.57454 0.70332 0.0
H4630 H 0.61395 0.55135 0.7249 0.0
C4631 C 0.60769 0.46783 0.81214 0.0
C4632 C 0.62991 0.50246 0.78203 0.0
H4633 H 0.60538 0.53749 0.74854 0.0
C4634 C 0.65203 0.50483 0.77328 0.0
C4635 C 0.61194 0.51474 0.77164 0.0
C4636 C 0.59356 0.51509 0.77921 0.0
C4637 C 0.65655 0.51987 0.75528 0.0
C4638 C 0.63854 0.53292 0.74543 0.0
C4639 C 0.61631 0.52958 0.75347 0.0
C4640 C 0.6417 0.54835 0.73274 0.0
C4641 C 0.67508 0.51991 0.74812 0.0
C4642 C 0.65863 0.5559 0.72999 0.0
C4643 C 0.66142 0.56911 0.71698 0.0
C4644 C 0.6472 0.57587 0.70685 0.0
C4645 C 0.63006 0.56954 0.71062 0.0
C4646 C 0.62737 0.55606 0.72329 0.0
H4647 H 0.68292 0.53039 0.755 0.0
H4648 H 0.68152 0.50688 0.75094 0.0
H4649 H 0.6751 0.52231 0.73353 0.0
H4650 H 0.66983 0.55216 0.73804 0.0
H4651 H 0.67472 0.57433 0.71514 0.0
H4652 H 0.76193 0.35177 0.07913 0.0
H4653 H 0.73821 0.35715 0.05781 0.0
H4654 H 0.74825 0.41378 0.0605 0.0
H4655 H 0.77297 0.40837 0.08096 0.0
H4656 H 0.70864 0.37247 0.05798 0.0
H4657 H 0.74695 0.42172 0.02879 0.0
H4658 H 0.74933 0.40919 0.00857 0.0
H4659 H 0.75895 0.40098 0.02892 0.0
C4660 C 0.7594 0.36538 0.07498 0.0
C4661 C 0.76976 0.37957 0.08157 0.0
C4662 C 0.74554 0.36849 0.06294 0.0
C4663 C 0.74159 0.38587 0.05704 0.0
C4664 C 0.75134 0.40018 0.06424 0.0
H4665 H 0.65878 0.42314 0.98389 0.0
H4666 H 0.68186 0.42081 0.00678 0.0
C4667 C 0.76538 0.39706 0.07619 0.0
C4668 C 0.72733 0.38867 0.04335 0.0
H4669 H 0.71819 0.40767 0.00275 0.0
C4670 C 0.71086 0.38012 0.04589 0.0
C4671 C 0.72999 0.39876 0.02748 0.0
C4672 C 0.74731 0.40801 0.02322 0.0
C4673 C 0.69717 0.38124 0.03316 0.0
C4674 C 0.69992 0.39116 0.01735 0.0
C4675 C 0.71616 0.40001 0.01487 0.0
C4676 C 0.68608 0.39249 0.00323 0.0
C4677 C 0.67976 0.37191 0.03677 0.0
C4678 C 0.68094 0.37737 0.99344 0.0
C4679 C 0.66785 0.37867 0.98019 0.0
C4680 C 0.65959 0.39514 0.97644 0.0
C4681 C 0.66493 0.41028 0.98622 0.0
C4682 C 0.67807 0.40897 0.9994 0.0
H4683 H 0.67838 0.36806 0.05103 0.0
H4684 H 0.66837 0.38057 0.03302 0.0
H4685 H 0.67904 0.3596 0.02858 0.0
H4686 H 0.68718 0.36458 0.99594 0.0
H4687 H 0.66442 0.36681 0.9727 0.0
H4688 H 0.91316 0.54396 0.30413 0.0
H4689 H 0.90681 0.51881 0.28458 0.0
H4690 H 0.87615 0.49393 0.32634 0.0
H4691 H 0.88196 0.51934 0.34586 0.0
H4692 H 0.91417 0.48419 0.28683 0.0
H4693 H 0.85114 0.4857 0.30901 0.0
H4694 H 0.84043 0.4906 0.28829 0.0
H4695 H 0.85461 0.50704 0.29866 0.0
C4696 C 0.90494 0.53325 0.3092 0.0
C4697 C 0.89767 0.53405 0.32649 0.0
C4698 C 0.90132 0.51882 0.29795 0.0
C4699 C 0.89049 0.50468 0.3037 0.0
C4700 C 0.88387 0.50499 0.32123 0.0
H4701 H 0.84651 0.42028 0.23521 0.0
H4702 H 0.85375 0.43903 0.26088 0.0
C4703 C 0.88725 0.51959 0.33243 0.0
C4704 C 0.88645 0.48975 0.29117 0.0
H4705 H 0.85258 0.46949 0.2687 0.0
C4706 C 0.90068 0.48091 0.28289 0.0
C4707 C 0.86886 0.48482 0.28659 0.0
C4708 C 0.85287 0.49258 0.29601 0.0
C4709 C 0.89791 0.46771 0.26986 0.0
C4710 C 0.88036 0.46407 0.26387 0.0
C4711 C 0.86609 0.47241 0.27277 0.0
C4712 C 0.87644 0.45191 0.24843 0.0
C4713 C 0.91393 0.45746 0.26334 0.0
C4714 C 0.88668 0.45253 0.23269 0.0
C4715 C 0.88313 0.44099 0.21845 0.0
C4716 C 0.86844 0.42952 0.21896 0.0
C4717 C 0.8578 0.42921 0.23436 0.0
C4718 C 0.86193 0.44003 0.24903 0.0
H4719 H 0.92412 0.45631 0.27401 0.0
H4720 H 0.91038 0.44378 0.25891 0.0
H4721 H 0.92017 0.4648 0.25209 0.0
H4722 H 0.89744 0.46196 0.2313 0.0
H4723 H 0.89172 0.44118 0.20689 0.0
H4724 H 0.86071 0.61235 0.48476 0.0
H4725 H 0.83812 0.61793 0.50751 0.0
H4726 H 0.81231 0.65566 0.47255 0.0
H4727 H 0.83454 0.64963 0.44942 0.0
H4728 H 0.82864 0.64739 0.52562 0.0
H4729 H 0.77166 0.62329 0.48617 0.0
H4730 H 0.79414 0.62114 0.47822 0.0
H4731 H 0.78229 0.64189 0.47543 0.0
C4732 C 0.85015 0.62173 0.48181 0.0
C4733 C 0.84943 0.63044 0.46515 0.0
C4734 C 0.83729 0.62502 0.49492 0.0
C4735 C 0.82332 0.63705 0.49174 0.0
C4736 C 0.82276 0.64609 0.47528 0.0
H4737 H 0.73152 0.66907 0.55577 0.0
H4738 H 0.75546 0.66753 0.53374 0.0
C4739 C 0.83563 0.64279 0.46211 0.0
C4740 C 0.80939 0.64 0.50567 0.0
H4741 H 0.76459 0.63773 0.51328 0.0
C4742 C 0.81464 0.64524 0.5229 0.0
C4743 C 0.79108 0.63716 0.50226 0.0
C4744 C 0.78449 0.6304 0.48453 0.0
C4745 C 0.80215 0.64783 0.53667 0.0
C4746 C 0.78387 0.64498 0.53319 0.0
C4747 C 0.77859 0.63998 0.51595 0.0
C4748 C 0.77 0.64667 0.5473 0.0
C4749 C 0.8086 0.65383 0.55476 0.0
C4750 C 0.77025 0.63553 0.56238 0.0
C4751 C 0.75673 0.63657 0.57521 0.0
C4752 C 0.74248 0.64864 0.57317 0.0
C4753 C 0.74233 0.6598 0.55802 0.0
C4754 C 0.75593 0.65882 0.54527 0.0
H4755 H 0.822 0.66001 0.55398 0.0
H4756 H 0.79924 0.66357 0.56081 0.0
H4757 H 0.80949 0.64208 0.56375 0.0
H4758 H 0.78079 0.62584 0.56414 0.0
H4759 H 0.75752 0.62792 0.58676 0.0
H4760 H 0.51098 0.66651 0.60773 0.0
H4761 H 0.49063 0.6917 0.61013 0.0
H4762 H 0.52615 0.71728 0.64733 0.0
H4763 H 0.54655 0.69187 0.64519 0.0
H4764 H 0.49398 0.72073 0.6585 0.0
H4765 H 0.48732 0.71613 0.58986 0.0
H4766 H 0.50915 0.72378 0.59628 0.0
H4767 H 0.49303 0.73915 0.58723 0.0
C4768 C 0.5146 0.67761 0.61624 0.0
C4769 C 0.53049 0.67728 0.6261 0.0
C4770 C 0.503 0.6921 0.61751 0.0
C4771 C 0.50715 0.70678 0.62839 0.0
C4772 C 0.5228 0.70629 0.6386 0.0
H4773 H 0.4423 0.8022 0.64985 0.0
H4774 H 0.46775 0.78211 0.64638 0.0
C4775 C 0.53438 0.6917 0.63747 0.0
C4776 C 0.49461 0.72208 0.62977 0.0
H4777 H 0.468 0.74931 0.60476 0.0
C4778 C 0.48862 0.72728 0.64676 0.0
C4779 C 0.4877 0.73082 0.61448 0.0
C4780 C 0.49481 0.72731 0.59598 0.0
C4781 C 0.47525 0.74022 0.64879 0.0
C4782 C 0.4676 0.74806 0.63344 0.0
C4783 C 0.47391 0.74328 0.61651 0.0
C4784 C 0.45245 0.76064 0.63474 0.0
C4785 C 0.46882 0.74485 0.6673 0.0
C4786 C 0.43552 0.75536 0.62894 0.0
C4787 C 0.42091 0.76672 0.63106 0.0
C4788 C 0.42298 0.78363 0.63894 0.0
C4789 C 0.44013 0.78909 0.64417 0.0
C4790 C 0.45471 0.77768 0.64213 0.0
H4791 H 0.47423 0.73565 0.67759 0.0
H4792 H 0.47308 0.75862 0.67065 0.0
H4793 H 0.45407 0.74445 0.66786 0.0
H4794 H 0.43354 0.74225 0.62317 0.0
H4795 H 0.40791 0.76203 0.62698 0.0
H4796 H 0.3934 0.5705 0.22694 0.0
H4797 H 0.39526 0.5433 0.24536 0.0
H4798 H 0.33842 0.53786 0.24276 0.0
H4799 H 0.33645 0.5638 0.22361 0.0
H4800 H 0.35024 0.53556 0.2737 0.0
H4801 H 0.36879 0.46637 0.22231 0.0
H4802 H 0.38857 0.47313 0.21577 0.0
H4803 H 0.37056 0.48341 0.20836 0.0
C4804 C 0.38134 0.56319 0.22987 0.0
C4805 C 0.36482 0.56921 0.22327 0.0
C4806 C 0.38245 0.5476 0.24035 0.0
C4807 C 0.36717 0.53743 0.24402 0.0
C4808 C 0.35062 0.54446 0.23885 0.0
H4809 H 0.36266 0.46053 0.33064 0.0
H4810 H 0.35493 0.48043 0.30644 0.0
C4811 C 0.34948 0.55968 0.22818 0.0
C4812 C 0.36797 0.52118 0.25587 0.0
H4813 H 0.39877 0.4942 0.27187 0.0
C4814 C 0.35905 0.52417 0.27223 0.0
C4815 C 0.37772 0.50385 0.25234 0.0
C4816 C 0.37628 0.47946 0.22178 0.0
C4817 C 0.36234 0.51381 0.28721 0.0
C4818 C 0.37667 0.50195 0.28647 0.0
C4819 C 0.38609 0.50063 0.2702 0.0
C4820 C 0.38166 0.49026 0.30202 0.0
C4821 C 0.35243 0.51787 0.30429 0.0
C4822 C 0.39946 0.48822 0.30737 0.0
C4823 C 0.40416 0.47581 0.32059 0.0
C4824 C 0.39116 0.46534 0.32931 0.0
C4825 C 0.37327 0.46791 0.3243 0.0
C4826 C 0.36868 0.47982 0.31063 0.0
H4827 H 0.34703 0.53168 0.30433 0.0
H4828 H 0.34096 0.50864 0.30552 0.0
H4829 H 0.36105 0.51625 0.31621 0.0
H4830 H 0.40987 0.49595 0.30104 0.0
H4831 H 0.41814 0.47418 0.32353 0.0
H4832 H 0.29425 0.66141 0.06829 0.0
H4833 H 0.275 0.65976 0.04265 0.0
H4834 H 0.25686 0.60776 0.05955 0.0
H4835 H 0.27767 0.60846 0.0842 0.0
H4836 H 0.25354 0.59938 0.0296 0.0
H4837 H 0.23082 0.67857 0.02877 0.0
H4838 H 0.2545 0.67688 0.02643 0.0
H4839 H 0.24401 0.66924 0.04677 0.0
C4840 C 0.28645 0.64942 0.06647 0.0
C4841 C 0.28766 0.6351 0.07862 0.0
C4842 C 0.27489 0.6487 0.05186 0.0
C4843 C 0.26384 0.63384 0.04911 0.0
C4844 C 0.26512 0.61947 0.06111 0.0
H4845 H 0.16768 0.59744 0.9833 0.0
H4846 H 0.1945 0.60134 1.00053 0.0
C4847 C 0.27695 0.62 0.07553 0.0
C4848 C 0.25149 0.63268 0.03356 0.0
H4849 H 0.21781 0.66106 1.00143 0.0
C4850 C 0.24682 0.61106 0.02443 0.0
C4851 C 0.24065 0.65212 0.02403 0.0
C4852 C 0.24257 0.67026 0.03207 0.0
C4853 C 0.23098 0.60841 0.00696 0.0
C4854 C 0.21962 0.62781 0.99787 0.0
C4855 C 0.22509 0.64952 0.0061 0.0
C4856 C 0.2028 0.62579 0.98743 0.0
C4857 C 0.22784 0.58995 1.0001 0.0
C4858 C 0.1969 0.63924 0.97573 0.0
C4859 C 0.18133 0.63704 0.96567 0.0
C4860 C 0.17075 0.62167 0.9677 0.0
C4861 C 0.17587 0.609 0.98058 0.0
C4862 C 0.19157 0.61109 0.99033 0.0
H4863 H 0.21939 0.5826 0.00976 0.0
H4864 H 0.22131 0.59014 0.98687 0.0
H4865 H 0.24071 0.58277 0.99919 0.0
H4866 H 0.20442 0.65139 0.97407 0.0
H4867 H 0.17782 0.64726 0.95608 0.0
H4868 H 0.14516 0.5445 0.82144 0.0
H4869 H 0.15011 0.52268 0.79806 0.0
H4870 H 0.09644 0.50347 0.80443 0.0
H4871 H 0.09061 0.52666 0.82591 0.0
H4872 H 0.15199 0.49036 0.79602 0.0
H4873 H 0.08665 0.49801 0.77575 0.0
H4874 H 0.0932 0.50446 0.75383 0.0
H4875 H 0.09877 0.51853 0.77243 0.0
C4876 C 0.13415 0.5361 0.8175 0.0
C4877 C 0.1174 0.5377 0.82574 0.0
C4878 C 0.13707 0.52338 0.80409 0.0
C4879 C 0.12345 0.51168 0.79867 0.0
C4880 C 0.10698 0.51281 0.80741 0.0
H4881 H 0.11969 0.42122 0.72476 0.0
H4882 H 0.11362 0.44325 0.74808 0.0
C4883 C 0.10383 0.52591 0.82029 0.0
C4884 C 0.12676 0.49787 0.78456 0.0
H4885 H 0.10884 0.47768 0.7478 0.0
C4886 C 0.14264 0.48794 0.78527 0.0
C4887 C 0.11448 0.49415 0.77062 0.0
C4888 C 0.09744 0.50449 0.76803 0.0
C4889 C 0.14662 0.47469 0.77259 0.0
C4890 C 0.13443 0.47119 0.75863 0.0
C4891 C 0.11834 0.48061 0.75823 0.0
C4892 C 0.1381 0.45795 0.74421 0.0
C4893 C 0.16365 0.46422 0.77464 0.0
C4894 C 0.15361 0.45911 0.73383 0.0
C4895 C 0.15716 0.44645 0.72055 0.0
C4896 C 0.14511 0.43251 0.71712 0.0
C4897 C 0.12925 0.43178 0.72704 0.0
C4898 C 0.12579 0.44434 0.74044 0.0
H4899 H 0.16841 0.46431 0.78869 0.0
H4900 H 0.16194 0.45014 0.77036 0.0
H4901 H 0.17413 0.47044 0.76628 0.0
H4902 H 0.16302 0.46983 0.73596 0.0
H4903 H 0.16929 0.44765 0.71286 0.0
H4904 H 0.22767 0.39761 0.5664 0.0
H4905 H 0.24999 0.39862 0.54274 0.0
H4906 H 0.26251 0.34322 0.55216 0.0
H4907 H 0.24004 0.34209 0.5756 0.0
H4908 H 0.28369 0.39471 0.54143 0.0
H4909 H 0.25655 0.33956 0.50041 0.0
H4910 H 0.24418 0.34958 0.51841 0.0
H4911 H 0.26091 0.3329 0.52284 0.0
C4912 C 0.23513 0.38562 0.56332 0.0
C4913 C 0.23192 0.36972 0.57271 0.0
C4914 C 0.24782 0.38615 0.54966 0.0
C4915 C 0.2575 0.37078 0.54495 0.0
C4916 C 0.25466 0.35504 0.55476 0.0
H4917 H 0.34961 0.35195 0.47684 0.0
H4918 H 0.32471 0.34918 0.49786 0.0
C4919 C 0.24188 0.35445 0.56831 0.0
C4920 C 0.27106 0.37141 0.53037 0.0
H4921 H 0.2858 0.34969 0.49295 0.0
C4922 C 0.28396 0.38497 0.53073 0.0
C4923 C 0.27154 0.35872 0.51631 0.0
C4924 C 0.25745 0.34451 0.51433 0.0
C4925 C 0.29738 0.38603 0.51771 0.0
C4926 C 0.29803 0.37318 0.50389 0.0
C4927 C 0.28524 0.35956 0.50352 0.0
C4928 C 0.31198 0.37379 0.48979 0.0
C4929 C 0.311 0.40075 0.51904 0.0
C4930 C 0.31273 0.38818 0.47782 0.0
C4931 C 0.3269 0.38978 0.46582 0.0
C4932 C 0.34065 0.37699 0.46546 0.0
C4933 C 0.33931 0.36204 0.47677 0.0
C4934 C 0.3251 0.36047 0.48882 0.0
H4935 H 0.31099 0.40714 0.53242 0.0
H4936 H 0.32455 0.39556 0.51626 0.0
H4937 H 0.30794 0.41118 0.50897 0.0
H4938 H 0.30253 0.39839 0.47802 0.0
H4939 H 0.32721 0.40121 0.45697 0.0
H4940 H 0.34098 0.4255 0.27363 0.0
H4941 H 0.34692 0.44911 0.25224 0.0
H4942 H 0.3958 0.46144 0.2796 0.0
H4943 H 0.38996 0.43817 0.30106 0.0
H4944 H 0.34216 0.48024 0.2477 0.0
H4945 H 0.42236 0.47046 0.23772 0.0
H4946 H 0.40877 0.45432 0.24954 0.0
H4947 H 0.41874 0.47289 0.26122 0.0
C4948 C 0.35296 0.4333 0.27528 0.0
C4949 C 0.36475 0.42993 0.28954 0.0
C4950 C 0.35641 0.44688 0.26287 0.0
C4951 C 0.37182 0.45737 0.26416 0.0
C4952 C 0.38397 0.45351 0.27784 0.0
H4953 H 0.4146 0.55219 0.19263 0.0
H4954 H 0.40856 0.53161 0.21683 0.0
C4955 C 0.38052 0.44003 0.29033 0.0
C4956 C 0.37448 0.47286 0.25194 0.0
H4957 H 0.41195 0.50198 0.22574 0.0
C4958 C 0.35533 0.48457 0.24387 0.0
C4959 C 0.39634 0.47977 0.24484 0.0
C4960 C 0.41245 0.46862 0.24854 0.0
C4961 C 0.35763 0.50271 0.22858 0.0
C4962 C 0.3798 0.50999 0.22186 0.0
C4963 C 0.39881 0.49863 0.23052 0.0
C4964 C 0.38313 0.52253 0.2066 0.0
C4965 C 0.34094 0.50891 0.21963 0.0
C4966 C 0.37155 0.52386 0.1919 0.0
C4967 C 0.375 0.53587 0.17792 0.0
C4968 C 0.3905 0.54638 0.1779 0.0
C4969 C 0.40253 0.54434 0.1921 0.0
C4970 C 0.399 0.53247 0.20608 0.0
H4971 H 0.33745 0.49922 0.209 0.0
H4972 H 0.32985 0.50894 0.22938 0.0
H4973 H 0.34237 0.52224 0.21349 0.0
H4974 H 0.3602 0.51518 0.19065 0.0
H4975 H 0.36577 0.53651 0.16684 0.0
H4976 H 0.31578 0.60191 0.04906 0.0
H4977 H 0.29077 0.60294 0.02844 0.0
H4978 H 0.30849 0.65396 0.00873 0.0
H4979 H 0.33403 0.65289 0.02938 0.0
H4980 H 0.27112 0.65077 0.01331 0.0
H4981 H 0.29608 0.59498 0.9737 0.0
H4982 H 0.29736 0.59081 0.99728 0.0
H4983 H 0.31017 0.60862 0.98771 0.0
C4984 C 0.31449 0.61335 0.04032 0.0
C4985 C 0.32722 0.62711 0.04062 0.0
C4986 C 0.30015 0.61391 0.02848 0.0
C4987 C 0.29802 0.62825 0.01659 0.0
C4988 C 0.31002 0.64261 0.01755 0.0
H4989 H 0.22734 0.66419 0.94244 0.0
H4990 H 0.24441 0.65742 0.96962 0.0
C4991 C 0.32453 0.64203 0.02945 0.0
C4992 C 0.28317 0.62768 0.00335 0.0
H4993 H 0.26732 0.6059 0.96757 0.0
C4994 C 0.26847 0.63922 0.0051 0.0
C4995 C 0.28201 0.61402 0.99062 0.0
C4996 C 0.29727 0.60146 0.98698 0.0
C4997 C 0.25019 0.63222 0.00223 0.0
C4998 C 0.2521 0.62447 0.98384 0.0
C4999 C 0.26698 0.61367 0.97977 0.0
C5000 C 0.24073 0.62885 0.96791 0.0
C5001 C 0.22163 0.6284 0.02843 0.0
C5002 C 0.23344 0.61506 0.95744 0.0
C5003 C 0.22357 0.61887 0.94207 0.0
C5004 C 0.22104 0.63659 0.93639 0.0
C5005 C 0.2288 0.6504 0.94654 0.0
C5006 C 0.23853 0.64657 0.96213 0.0
H5007 H 0.2138 0.64024 0.03358 0.0
H5008 H 0.22392 0.62281 0.04228 0.0
H5009 H 0.20941 0.61992 0.02604 0.0
H5010 H 0.23531 0.60125 0.96121 0.0
H5011 H 0.21775 0.60788 0.93474 0.0
H5012 H 0.08768 0.46396 0.7011 0.0
H5013 H 0.09378 0.48814 0.72187 0.0
H5014 H 0.14314 0.49912 0.69481 0.0
H5015 H 0.13682 0.47535 0.67343 0.0
H5016 H 0.14817 0.49998 0.72966 0.0
H5017 H 0.08858 0.54057 0.7151 0.0
H5018 H 0.0828 0.5184 0.72194 0.0
H5019 H 0.09494 0.52178 0.70148 0.0
C5020 C 0.09973 0.47164 0.6993 0.0
C5021 C 0.11157 0.4677 0.68526 0.0
C5022 C 0.10325 0.48553 0.71131 0.0
C5023 C 0.1188 0.49581 0.70983 0.0
C5024 C 0.13098 0.49153 0.69625 0.0
H5025 H 0.16389 0.58376 0.77294 0.0
H5026 H 0.15848 0.56053 0.75083 0.0
C5027 C 0.12738 0.47776 0.68407 0.0
C5028 C 0.12256 0.51068 0.72268 0.0
H5029 H 0.10473 0.54835 0.74138 0.0
C5030 C 0.1387 0.5106 0.73213 0.0
C5031 C 0.11034 0.52474 0.72588 0.0
C5032 C 0.09329 0.52651 0.71542 0.0
C5033 C 0.14263 0.52362 0.74511 0.0
C5034 C 0.1302 0.53745 0.74865 0.0
C5035 C 0.11421 0.53772 0.73893 0.0
C5036 C 0.13349 0.55183 0.76218 0.0
C5037 C 0.16 0.52207 0.75505 0.0
C5038 C 0.12095 0.55542 0.77566 0.0
C5039 C 0.124 0.56879 0.78841 0.0
C5040 C 0.13965 0.5791 0.788 0.0
C5041 C 0.15194 0.57582 0.77415 0.0
C5042 C 0.14886 0.56245 0.76141 0.0
H5043 H 0.16462 0.50799 0.75568 0.0
H5044 H 0.17029 0.52987 0.74786 0.0
H5045 H 0.15897 0.5273 0.76882 0.0
H5046 H 0.10884 0.54769 0.77653 0.0
H5047 H 0.11423 0.57074 0.79884 0.0
H5048 H 0.15585 0.4012 0.52664 0.0
H5049 H 0.18128 0.39943 0.50641 0.0
H5050 H 0.20573 0.36008 0.54043 0.0
H5051 H 0.18037 0.362 0.56107 0.0
H5052 H 0.22342 0.40179 0.52069 0.0
H5053 H 0.19979 0.34238 0.48284 0.0
H5054 H 0.18417 0.3579 0.49257 0.0
H5055 H 0.19699 0.34357 0.50675 0.0
C5056 C 0.16665 0.39222 0.52997 0.0
C5057 C 0.16601 0.3818 0.54564 0.0
C5058 C 0.18118 0.39122 0.51832 0.0
C5059 C 0.19542 0.3797 0.52193 0.0
C5060 C 0.19485 0.36907 0.53738 0.0
H5061 H 0.2806 0.3501 0.44851 0.0
H5062 H 0.25801 0.35077 0.47153 0.0
C5063 C 0.18028 0.37008 0.5491 0.0
C5064 C 0.2107 0.37878 0.50932 0.0
H5065 H 0.22572 0.3564 0.47262 0.0
C5066 C 0.22411 0.39176 0.51028 0.0
C5067 C 0.21152 0.36573 0.49576 0.0
C5068 C 0.1974 0.35154 0.49425 0.0
C5069 C 0.23837 0.39201 0.49806 0.0
C5070 C 0.2389 0.3793 0.48399 0.0
C5071 C 0.22548 0.3662 0.48325 0.0
C5072 C 0.25316 0.37922 0.46995 0.0
C5073 C 0.25277 0.40581 0.50056 0.0
C5074 C 0.25793 0.39487 0.46071 0.0
C5075 C 0.27131 0.39462 0.44767 0.0
C5076 C 0.27993 0.37859 0.44301 0.0
C5077 C 0.27479 0.36286 0.45196 0.0
C5078 C 0.26162 0.36319 0.46515 0.0
H5079 H 0.24965 0.41772 0.49234 0.0
H5080 H 0.25359 0.41041 0.5146 0.0
H5081 H 0.26598 0.40058 0.49655 0.0
H5082 H 0.25115 0.40732 0.46333 0.0
H5083 H 0.2748 0.40707 0.44122 0.0
H5084 H 0.50615 0.33799 0.37749 0.0
H5085 H 0.52769 0.31364 0.37517 0.0
H5086 H 0.48981 0.27743 0.39864 0.0
H5087 H 0.46818 0.30161 0.40067 0.0
H5088 H 0.52229 0.2732 0.41327 0.0
H5089 H 0.52846 0.27326 0.33959 0.0
H5090 H 0.53424 0.29431 0.34943 0.0
H5091 H 0.51179 0.28622 0.35105 0.0
C5092 C 0.50223 0.32479 0.38186 0.0
C5093 C 0.48523 0.32181 0.38917 0.0
C5094 C 0.51463 0.31084 0.38055 0.0
C5095 C 0.5103 0.29353 0.38639 0.0
C5096 C 0.49345 0.29057 0.39385 0.0
H5097 H 0.56734 0.19645 0.35834 0.0
H5098 H 0.54514 0.21992 0.36302 0.0
C5099 C 0.48108 0.30448 0.39512 0.0
C5100 C 0.52337 0.27855 0.38505 0.0
H5101 H 0.54892 0.25502 0.35554 0.0
C5102 C 0.52807 0.26919 0.40063 0.0
C5103 C 0.53092 0.27324 0.36856 0.0
C5104 C 0.52598 0.28217 0.35119 0.0
C5105 C 0.54021 0.25487 0.40023 0.0
C5106 C 0.54788 0.24966 0.38376 0.0
C5107 C 0.54308 0.25896 0.36818 0.0
C5108 C 0.56084 0.23462 0.38224 0.0
C5109 C 0.54465 0.24554 0.41751 0.0
C5110 C 0.577 0.23481 0.3917 0.0
C5111 C 0.58966 0.22128 0.38915 0.0
C5112 C 0.58657 0.20744 0.37687 0.0
C5113 C 0.57022 0.20705 0.36773 0.0
C5114 C 0.55751 0.22046 0.37041 0.0
H5115 H 0.53365 0.24677 0.42733 0.0
H5116 H 0.54759 0.23119 0.41543 0.0
H5117 H 0.5566 0.25189 0.42343 0.0
H5118 H 0.58008 0.24572 0.40065 0.0
H5119 H 0.6022 0.22208 0.39622 0.0
loop_
_geom_bond_atom_site_label_1
_geom_bond_atom_site_label_2
_geom_bond_distance
_geom_bond_site_symmetry_2
_ccdc_geom_bond_type
Li0 N17 1.990 . S
Li0 O60 1.956 . S
Li0 O61 1.970 . S
Li0 O62 1.961 . S
Li1 N25 1.990 . S
Li1 O60 1.970 . S
Li1 O61 1.956 . S
Li1 O63 1.961 . S
Li2 N47 1.990 . S
Li2 O60 1.961 . S
Li2 O62 1.956 . S
Li2 O63 1.970 . S
Li3 N53 1.990 . S
Li3 O61 1.961 . S
Li3 O62 1.970 . S
Li3 O63 1.956 . S
C4 C6 1.348 . S
C4 C7 1.356 . S
C4 O60 1.325 . S
N5 C8 1.314 . S
N5 C9 1.279 . S
C6 C4 1.348 . S
C6 C8 1.353 . S
C6 H64 0.929 . S
C7 C4 1.356 . S
C7 C9 1.358 . S
C7 H65 0.930 . S
C8 N5 1.314 . S
C8 C6 1.353 . S
C8 H66 0.930 . S
C9 N5 1.279 . S
C9 C7 1.358 . S
C9 H67 0.930 . S
C10 C13 1.348 . S
C10 C14 1.356 . S
C10 O61 1.325 . S
C11 N12 1.279 . S
C11 C14 1.358 . S
C11 H68 0.930 . S
N12 C11 1.279 . S
N12 C15 1.314 . S
C13 C10 1.348 . S
C13 C15 1.353 . S
C13 H69 0.929 . S
C14 C10 1.356 . S
C14 C11 1.358 . S
C14 H70 0.930 . S
C15 N12 1.314 . S
C15 C13 1.353 . S
C15 H71 0.930 . S
C16 N17 1.314 . S
C16 C21 1.353 . S
C16 H22 0.930 . S
N17 Li0 1.990 . S
N17 C16 1.314 . S
N17 C19 1.279 . S
C18 C19 1.358 . S
C18 C20 1.356 . S
C18 H72 0.930 . S
C19 N17 1.279 . S
C19 C18 1.358 . S
C19 H23 0.930 . S
C20 C18 1.356 . S
C20 C21 1.348 . S
C21 C16 1.353 . S
C21 C20 1.348 . S
C21 H73 0.929 . S
H22 C16 0.930 . S
H23 C19 0.930 . S
C24 N25 1.314 . S
C24 C26 1.353 . S
C24 H30 0.930 . S
N25 Li1 1.990 . S
N25 C24 1.314 . S
N25 C28 1.279 . S
C26 C24 1.353 . S
C26 C29 1.348 . S
C26 H74 0.929 . S
C27 C28 1.358 . S
C27 C29 1.356 . S
C27 H75 0.930 . S
C28 N25 1.279 . S
C28 C27 1.358 . S
C28 H31 0.930 . S
C29 C26 1.348 . S
C29 C27 1.356 . S
H30 C24 0.930 . S
H31 C28 0.930 . S
C32 C34 1.348 . S
C32 C35 1.356 . S
C32 O62 1.325 . S
N33 C36 1.314 . S
N33 C37 1.279 . S
C34 C32 1.348 . S
C34 C36 1.353 . S
C34 H76 0.929 . S
C35 C32 1.356 . S
C35 C37 1.358 . S
C35 H77 0.930 . S
C36 N33 1.314 . S
C36 C34 1.353 . S
C36 H78 0.930 . S
C37 N33 1.279 . S
C37 C35 1.358 . S
C37 H79 0.930 . S
C38 C39 1.348 . S
C38 C40 1.356 . S
C38 O63 1.325 . S
C39 C38 1.348 . S
C39 C41 1.353 . S
C39 H80 0.929 . S
C40 C38 1.356 . S
C40 C42 1.358 . S
C40 H81 0.930 . S
C41 C39 1.353 . S
C41 N43 1.314 . S
C41 H82 0.930 . S
C42 C40 1.358 . S
C42 N43 1.279 . S
C42 H83 0.930 . S
N43 C41 1.314 . S
N43 C42 1.279 . S
C44 C46 1.353 . S
C44 N47 1.314 . S
C44 H50 0.930 . S
C45 N47 1.279 . S
C45 C48 1.358 . S
C45 H51 0.930 . S
C46 C44 1.353 . S
C46 C49 1.348 . S
C46 H84 0.929 . S
N47 Li2 1.990 . S
N47 C44 1.314 . S
N47 C45 1.279 . S
C48 C45 1.358 . S
C48 C49 1.356 . S
C48 H85 0.930 . S
C49 C46 1.348 . S
C49 C48 1.356 . S
H50 C44 0.930 . S
H51 C45 0.930 . S
C52 N53 1.314 . S
C52 C54 1.353 . S
C52 H58 0.930 . S
N53 Li3 1.990 . S
N53 C52 1.314 . S
N53 C56 1.279 . S
C54 C52 1.353 . S
C54 C57 1.348 . S
C54 H86 0.929 . S
C55 C56 1.358 . S
C55 C57 1.356 . S
C55 H87 0.930 . S
C56 N53 1.279 . S
C56 C55 1.358 . S
C56 H59 0.930 . S
C57 C54 1.348 . S
C57 C55 1.356 . S
H58 C52 0.930 . S
H59 C56 0.930 . S
O60 Li0 1.956 . S
O60 Li1 1.970 . S
O60 Li2 1.961 . S
O60 C4 1.325 . S
O61 Li0 1.970 . S
O61 Li1 1.956 . S
O61 Li3 1.961 . S
O61 C10 1.325 . S
O62 Li0 1.961 . S
O62 Li2 1.956 . S
O62 Li3 1.970 . S
O62 C32 1.325 . S
O63 Li1 1.961 . S
O63 Li2 1.970 . S
O63 Li3 1.956 . S
O63 C38 1.325 . S
H64 C6 0.929 . S
H65 C7 0.930 . S
H66 C8 0.930 . S
H67 C9 0.930 . S
H68 C11 0.930 . S
H69 C13 0.929 . S
H70 C14 0.930 . S
H71 C15 0.930 . S
H72 C18 0.930 . S
H73 C21 0.929 . S
H74 C26 0.929 . S
H75 C27 0.930 . S
H76 C34 0.929 . S
H77 C35 0.930 . S
H78 C36 0.930 . S
H79 C37 0.930 . S
H80 C39 0.929 . S
H81 C40 0.930 . S
H82 C41 0.930 . S
H83 C42 0.930 . S
H84 C46 0.929 . S
H85 C48 0.930 . S
H86 C54 0.929 . S
H87 C55 0.930 . S
Li88 N105 1.990 . S
Li88 O148 1.956 . S
Li88 O149 1.970 . S
Li88 O150 1.961 . S
Li89 N113 1.990 . S
Li89 O148 1.970 . S
Li89 O149 1.956 . S
Li89 O151 1.961 . S
Li90 N135 1.990 . S
Li90 O148 1.961 . S
Li90 O150 1.956 . S
Li90 O151 1.970 . S
Li91 N141 1.990 . S
Li91 O149 1.961 . S
Li91 O150 1.970 . S
Li91 O151 1.956 . S
C92 C94 1.348 . S
C92 C95 1.356 . S
C92 O148 1.325 . S
N93 C96 1.314 . S
N93 C97 1.279 . S
C94 C92 1.348 . S
C94 C96 1.353 . S
C94 H152 0.929 . S
C95 C92 1.356 . S
C95 C97 1.358 . S
C95 H153 0.930 . S
C96 N93 1.314 . S
C96 C94 1.353 . S
C96 H154 0.930 . S
C97 N93 1.279 . S
C97 C95 1.358 . S
C97 H155 0.930 . S
C98 C101 1.348 . S
C98 C102 1.356 . S
C98 O149 1.325 . S
C99 N100 1.279 . S
C99 C102 1.358 . S
C99 H156 0.930 . S
N100 C99 1.279 . S
N100 C103 1.314 . S
C101 C98 1.348 . S
C101 C103 1.353 . S
C101 H157 0.929 . S
C102 C98 1.356 . S
C102 C99 1.358 . S
C102 H158 0.930 . S
C103 N100 1.314 . S
C103 C101 1.353 . S
C103 H159 0.930 . S
C104 N105 1.314 . S
C104 C109 1.353 . S
C104 H110 0.930 . S
N105 Li88 1.990 . S
N105 C104 1.314 . S
N105 C107 1.279 . S
C106 C107 1.358 . S
C106 C108 1.356 . S
C106 H160 0.930 . S
C107 N105 1.279 . S
C107 C106 1.358 . S
C107 H111 0.930 . S
C108 C106 1.356 . S
C108 C109 1.348 . S
C109 C104 1.353 . S
C109 C108 1.348 . S
C109 H161 0.929 . S
H110 C104 0.930 . S
H111 C107 0.930 . S
C112 N113 1.314 . S
C112 C114 1.353 . S
C112 H118 0.930 . S
N113 Li89 1.990 . S
N113 C112 1.314 . S
N113 C116 1.279 . S
C114 C112 1.353 . S
C114 C117 1.348 . S
C114 H162 0.929 . S
C115 C116 1.358 . S
C115 C117 1.356 . S
C115 H163 0.930 . S
C116 N113 1.279 . S
C116 C115 1.358 . S
C116 H119 0.930 . S
C117 C114 1.348 . S
C117 C115 1.356 . S
H118 C112 0.930 . S
H119 C116 0.930 . S
C120 C122 1.348 . S
C120 C123 1.356 . S
C120 O150 1.325 . S
N121 C124 1.314 . S
N121 C125 1.279 . S
C122 C120 1.348 . S
C122 C124 1.353 . S
C122 H164 0.929 . S
C123 C120 1.356 . S
C123 C125 1.358 . S
C123 H165 0.930 . S
C124 N121 1.314 . S
C124 C122 1.353 . S
C124 H166 0.930 . S
C125 N121 1.279 . S
C125 C123 1.358 . S
C125 H167 0.930 . S
C126 C127 1.348 . S
C126 C128 1.356 . S
C126 O151 1.325 . S
C127 C126 1.348 . S
C127 C129 1.353 . S
C127 H168 0.929 . S
C128 C126 1.356 . S
C128 C130 1.358 . S
C128 H169 0.930 . S
C129 C127 1.353 . S
C129 N131 1.314 . S
C129 H170 0.930 . S
C130 C128 1.358 . S
C130 N131 1.279 . S
C130 H171 0.930 . S
N131 C129 1.314 . S
N131 C130 1.279 . S
C132 C134 1.353 . S
C132 N135 1.314 . S
C132 H138 0.930 . S
C133 N135 1.279 . S
C133 C136 1.358 . S
C133 H139 0.930 . S
C134 C132 1.353 . S
C134 C137 1.348 . S
C134 H172 0.929 . S
N135 Li90 1.990 . S
N135 C132 1.314 . S
N135 C133 1.279 . S
C136 C133 1.358 . S
C136 C137 1.356 . S
C136 H173 0.930 . S
C137 C134 1.348 . S
C137 C136 1.356 . S
H138 C132 0.930 . S
H139 C133 0.930 . S
C140 N141 1.314 . S
C140 C142 1.353 . S
C140 H146 0.930 . S
N141 Li91 1.990 . S
N141 C140 1.314 . S
N141 C144 1.279 . S
C142 C140 1.353 . S
C142 C145 1.348 . S
C142 H174 0.929 . S
C143 C144 1.358 . S
C143 C145 1.356 . S
C143 H175 0.930 . S
C144 N141 1.279 . S
C144 C143 1.358 . S
C144 H147 0.930 . S
C145 C142 1.348 . S
C145 C143 1.356 . S
H146 C140 0.930 . S
H147 C144 0.930 . S
O148 Li88 1.956 . S
O148 Li89 1.970 . S
O148 Li90 1.961 . S
O148 C92 1.325 . S
O149 Li88 1.970 . S
O149 Li89 1.956 . S
O149 Li91 1.961 . S
O149 C98 1.325 . S
O150 Li88 1.961 . S
O150 Li90 1.956 . S
O150 Li91 1.970 . S
O150 C120 1.325 . S
O151 Li89 1.961 . S
O151 Li90 1.970 . S
O151 Li91 1.956 . S
O151 C126 1.325 . S
H152 C94 0.929 . S
H153 C95 0.930 . S
H154 C96 0.930 . S
H155 C97 0.930 . S
H156 C99 0.930 . S
H157 C101 0.929 . S
H158 C102 0.930 . S
H159 C103 0.930 . S
H160 C106 0.930 . S
H161 C109 0.929 . S
H162 C114 0.929 . S
H163 C115 0.930 . S
H164 C122 0.929 . S
H165 C123 0.930 . S
H166 C124 0.930 . S
H167 C125 0.930 . S
H168 C127 0.929 . S
H169 C128 0.930 . S
H170 C129 0.930 . S
H171 C130 0.930 . S
H172 C134 0.929 . S
H173 C136 0.930 . S
H174 C142 0.929 . S
H175 C143 0.930 . S
Li176 N193 1.990 . S
Li176 O236 1.956 . S
Li176 O237 1.970 . S
Li176 O238 1.961 . S
Li177 N201 1.990 . S
Li177 O236 1.970 . S
Li177 O237 1.956 . S
Li177 O239 1.961 . S
Li178 N223 1.990 . S
Li178 O236 1.961 . S
Li178 O238 1.956 . S
Li178 O239 1.970 . S
Li179 N229 1.990 . S
Li179 O237 1.961 . S
Li179 O238 1.970 . S
Li179 O239 1.956 . S
C180 C182 1.348 . S
C180 C183 1.356 . S
C180 O236 1.325 . S
N181 C184 1.314 . S
N181 C185 1.279 . S
C182 C180 1.348 . S
C182 C184 1.353 . S
C182 H240 0.929 . S
C183 C180 1.356 . S
C183 C185 1.358 . S
C183 H241 0.930 . S
C184 N181 1.314 . S
C184 C182 1.353 . S
C184 H242 0.930 . S
C185 N181 1.279 . S
C185 C183 1.358 . S
C185 H243 0.930 . S
C186 C189 1.348 . S
C186 C190 1.356 . S
C186 O237 1.325 . S
C187 N188 1.279 . S
C187 C190 1.358 . S
C187 H244 0.930 . S
N188 C187 1.279 . S
N188 C191 1.314 . S
C189 C186 1.348 . S
C189 C191 1.353 . S
C189 H245 0.929 . S
C190 C186 1.356 . S
C190 C187 1.358 . S
C190 H246 0.930 . S
C191 N188 1.314 . S
C191 C189 1.353 . S
C191 H247 0.930 . S
C192 N193 1.314 . S
C192 C197 1.353 . S
C192 H198 0.930 . S
N193 Li176 1.990 . S
N193 C192 1.314 . S
N193 C195 1.279 . S
C194 C195 1.358 . S
C194 C196 1.356 . S
C194 H248 0.930 . S
C195 N193 1.279 . S
C195 C194 1.358 . S
C195 H199 0.930 . S
C196 C194 1.356 . S
C196 C197 1.348 . S
C197 C192 1.353 . S
C197 C196 1.348 . S
C197 H249 0.929 . S
H198 C192 0.930 . S
H199 C195 0.930 . S
C200 N201 1.314 . S
C200 C202 1.353 . S
C200 H206 0.930 . S
N201 Li177 1.990 . S
N201 C200 1.314 . S
N201 C204 1.279 . S
C202 C200 1.353 . S
C202 C205 1.348 . S
C202 H250 0.929 . S
C203 C204 1.358 . S
C203 C205 1.356 . S
C203 H251 0.930 . S
C204 N201 1.279 . S
C204 C203 1.358 . S
C204 H207 0.930 . S
C205 C202 1.348 . S
C205 C203 1.356 . S
H206 C200 0.930 . S
H207 C204 0.930 . S
C208 C210 1.348 . S
C208 C211 1.356 . S
C208 O238 1.325 . S
N209 C212 1.314 . S
N209 C213 1.279 . S
C210 C208 1.348 . S
C210 C212 1.353 . S
C210 H252 0.929 . S
C211 C208 1.356 . S
C211 C213 1.358 . S
C211 H253 0.930 . S
C212 N209 1.314 . S
C212 C210 1.353 . S
C212 H254 0.930 . S
C213 N209 1.279 . S
C213 C211 1.358 . S
C213 H255 0.930 . S
C214 C215 1.348 . S
C214 C216 1.356 . S
C214 O239 1.325 . S
C215 C214 1.348 . S
C215 C217 1.353 . S
C215 H256 0.929 . S
C216 C214 1.356 . S
C216 C218 1.358 . S
C216 H257 0.930 . S
C217 C215 1.353 . S
C217 N219 1.314 . S
C217 H258 0.930 . S
C218 C216 1.358 . S
C218 N219 1.279 . S
C218 H259 0.930 . S
N219 C217 1.314 . S
N219 C218 1.279 . S
C220 C222 1.353 . S
C220 N223 1.314 . S
C220 H226 0.930 . S
C221 N223 1.279 . S
C221 C224 1.358 . S
C221 H227 0.930 . S
C222 C220 1.353 . S
C222 C225 1.348 . S
C222 H260 0.929 . S
N223 Li178 1.990 . S
N223 C220 1.314 . S
N223 C221 1.279 . S
C224 C221 1.358 . S
C224 C225 1.356 . S
C224 H261 0.930 . S
C225 C222 1.348 . S
C225 C224 1.356 . S
H226 C220 0.930 . S
H227 C221 0.930 . S
C228 N229 1.314 . S
C228 C230 1.353 . S
C228 H234 0.930 . S
N229 Li179 1.990 . S
N229 C228 1.314 . S
N229 C232 1.279 . S
C230 C228 1.353 . S
C230 C233 1.348 . S
C230 H262 0.929 . S
C231 C232 1.358 . S
C231 C233 1.356 . S
C231 H263 0.930 . S
C232 N229 1.279 . S
C232 C231 1.358 . S
C232 H235 0.930 . S
C233 C230 1.348 . S
C233 C231 1.356 . S
H234 C228 0.930 . S
H235 C232 0.930 . S
O236 Li176 1.956 . S
O236 Li177 1.970 . S
O236 Li178 1.961 . S
O236 C180 1.325 . S
O237 Li176 1.970 . S
O237 Li177 1.956 . S
O237 Li179 1.961 . S
O237 C186 1.325 . S
O238 Li176 1.961 . S
O238 Li178 1.956 . S
O238 Li179 1.970 . S
O238 C208 1.325 . S
O239 Li177 1.961 . S
O239 Li178 1.970 . S
O239 Li179 1.956 . S
O239 C214 1.325 . S
H240 C182 0.929 . S
H241 C183 0.930 . S
H242 C184 0.930 . S
H243 C185 0.930 . S
H244 C187 0.930 . S
H245 C189 0.929 . S
H246 C190 0.930 . S
H247 C191 0.930 . S
H248 C194 0.930 . S
H249 C197 0.929 . S
H250 C202 0.929 . S
H251 C203 0.930 . S
H252 C210 0.929 . S
H253 C211 0.930 . S
H254 C212 0.930 . S
H255 C213 0.930 . S
H256 C215 0.929 . S
H257 C216 0.930 . S
H258 C217 0.930 . S
H259 C218 0.930 . S
H260 C222 0.929 . S
H261 C224 0.930 . S
H262 C230 0.929 . S
H263 C231 0.930 . S
Li264 N281 1.990 . S
Li264 O324 1.956 . S
Li264 O325 1.970 . S
Li264 O326 1.961 . S
Li265 N289 1.990 . S
Li265 O324 1.970 . S
Li265 O325 1.956 . S
Li265 O327 1.961 . S
Li266 N311 1.990 . S
Li266 O324 1.961 . S
Li266 O326 1.956 . S
Li266 O327 1.970 . S
Li267 N317 1.990 . S
Li267 O325 1.961 . S
Li267 O326 1.970 . S
Li267 O327 1.956 . S
C268 C270 1.348 . S
C268 C271 1.356 . S
C268 O324 1.325 . S
N269 C272 1.314 . S
N269 C273 1.279 . S
C270 C268 1.348 . S
C270 C272 1.353 . S
C270 H328 0.929 . S
C271 C268 1.356 . S
C271 C273 1.358 . S
C271 H329 0.930 . S
C272 N269 1.314 . S
C272 C270 1.353 . S
C272 H330 0.930 . S
C273 N269 1.279 . S
C273 C271 1.358 . S
C273 H331 0.930 . S
C274 C277 1.348 . S
C274 C278 1.356 . S
C274 O325 1.325 . S
C275 N276 1.279 . S
C275 C278 1.358 . S
C275 H332 0.930 . S
N276 C275 1.279 . S
N276 C279 1.314 . S
C277 C274 1.348 . S
C277 C279 1.353 . S
C277 H333 0.929 . S
C278 C274 1.356 . S
C278 C275 1.358 . S
C278 H334 0.930 . S
C279 N276 1.314 . S
C279 C277 1.353 . S
C279 H335 0.930 . S
C280 N281 1.314 . S
C280 C285 1.353 . S
C280 H286 0.930 . S
N281 Li264 1.990 . S
N281 C280 1.314 . S
N281 C283 1.279 . S
C282 C283 1.358 . S
C282 C284 1.356 . S
C282 H336 0.930 . S
C283 N281 1.279 . S
C283 C282 1.358 . S
C283 H287 0.930 . S
C284 C282 1.356 . S
C284 C285 1.348 . S
C285 C280 1.353 . S
C285 C284 1.348 . S
C285 H337 0.929 . S
H286 C280 0.930 . S
H287 C283 0.930 . S
C288 N289 1.314 . S
C288 C290 1.353 . S
C288 H294 0.930 . S
N289 Li265 1.990 . S
N289 C288 1.314 . S
N289 C292 1.279 . S
C290 C288 1.353 . S
C290 C293 1.348 . S
C290 H338 0.929 . S
C291 C292 1.358 . S
C291 C293 1.356 . S
C291 H339 0.930 . S
C292 N289 1.279 . S
C292 C291 1.358 . S
C292 H295 0.930 . S
C293 C290 1.348 . S
C293 C291 1.356 . S
H294 C288 0.930 . S
H295 C292 0.930 . S
C296 C298 1.348 . S
C296 C299 1.356 . S
C296 O326 1.325 . S
N297 C300 1.314 . S
N297 C301 1.279 . S
C298 C296 1.348 . S
C298 C300 1.353 . S
C298 H340 0.929 . S
C299 C296 1.356 . S
C299 C301 1.358 . S
C299 H341 0.930 . S
C300 N297 1.314 . S
C300 C298 1.353 . S
C300 H342 0.930 . S
C301 N297 1.279 . S
C301 C299 1.358 . S
C301 H343 0.930 . S
C302 C303 1.348 . S
C302 C304 1.356 . S
C302 O327 1.325 . S
C303 C302 1.348 . S
C303 C305 1.353 . S
C303 H344 0.929 . S
C304 C302 1.356 . S
C304 C306 1.358 . S
C304 H345 0.930 . S
C305 C303 1.353 . S
C305 N307 1.314 . S
C305 H346 0.930 . S
C306 C304 1.358 . S
C306 N307 1.279 . S
C306 H347 0.930 . S
N307 C305 1.314 . S
N307 C306 1.279 . S
C308 C310 1.353 . S
C308 N311 1.314 . S
C308 H314 0.930 . S
C309 N311 1.279 . S
C309 C312 1.358 . S
C309 H315 0.930 . S
C310 C308 1.353 . S
C310 C313 1.348 . S
C310 H348 0.929 . S
N311 Li266 1.990 . S
N311 C308 1.314 . S
N311 C309 1.279 . S
C312 C309 1.358 . S
C312 C313 1.356 . S
C312 H349 0.930 . S
C313 C310 1.348 . S
C313 C312 1.356 . S
H314 C308 0.930 . S
H315 C309 0.930 . S
C316 N317 1.314 . S
C316 C318 1.353 . S
C316 H322 0.930 . S
N317 Li267 1.990 . S
N317 C316 1.314 . S
N317 C320 1.279 . S
C318 C316 1.353 . S
C318 C321 1.348 . S
C318 H350 0.929 . S
C319 C320 1.358 . S
C319 C321 1.356 . S
C319 H351 0.930 . S
C320 N317 1.279 . S
C320 C319 1.358 . S
C320 H323 0.930 . S
C321 C318 1.348 . S
C321 C319 1.356 . S
H322 C316 0.930 . S
H323 C320 0.930 . S
O324 Li264 1.956 . S
O324 Li265 1.970 . S
O324 Li266 1.961 . S
O324 C268 1.325 . S
O325 Li264 1.970 . S
O325 Li265 1.956 . S
O325 Li267 1.961 . S
O325 C274 1.325 . S
O326 Li264 1.961 . S
O326 Li266 1.956 . S
O326 Li267 1.970 . S
O326 C296 1.325 . S
O327 Li265 1.961 . S
O327 Li266 1.970 . S
O327 Li267 1.956 . S
O327 C302 1.325 . S
H328 C270 0.929 . S
H329 C271 0.930 . S
H330 C272 0.930 . S
H331 C273 0.930 . S
H332 C275 0.930 . S
H333 C277 0.929 . S
H334 C278 0.930 . S
H335 C279 0.930 . S
H336 C282 0.930 . S
H337 C285 0.929 . S
H338 C290 0.929 . S
H339 C291 0.930 . S
H340 C298 0.929 . S
H341 C299 0.930 . S
H342 C300 0.930 . S
H343 C301 0.930 . S
H344 C303 0.929 . S
H345 C304 0.930 . S
H346 C305 0.930 . S
H347 C306 0.930 . S
H348 C310 0.929 . S
H349 C312 0.930 . S
H350 C318 0.929 . S
H351 C319 0.930 . S
Li352 N369 1.990 . S
Li352 O412 1.956 . S
Li352 O413 1.970 . S
Li352 O414 1.961 . S
Li353 N377 1.990 . S
Li353 O412 1.970 . S
Li353 O413 1.956 . S
Li353 O415 1.961 . S
Li354 N399 1.990 . S
Li354 O412 1.961 . S
Li354 O414 1.956 . S
Li354 O415 1.970 . S
Li355 N405 1.990 . S
Li355 O413 1.961 . S
Li355 O414 1.970 . S
Li355 O415 1.956 . S
C356 C358 1.348 . S
C356 C359 1.356 . S
C356 O412 1.325 . S
N357 C360 1.314 . S
N357 C361 1.279 . S
C358 C356 1.348 . S
C358 C360 1.353 . S
C358 H416 0.929 . S
C359 C356 1.356 . S
C359 C361 1.358 . S
C359 H417 0.930 . S
C360 N357 1.314 . S
C360 C358 1.353 . S
C360 H418 0.930 . S
C361 N357 1.279 . S
C361 C359 1.358 . S
C361 H419 0.930 . S
C362 C365 1.348 . S
C362 C366 1.356 . S
C362 O413 1.325 . S
C363 N364 1.279 . S
C363 C366 1.358 . S
C363 H420 0.930 . S
N364 C363 1.279 . S
N364 C367 1.314 . S
C365 C362 1.348 . S
C365 C367 1.353 . S
C365 H421 0.929 . S
C366 C362 1.356 . S
C366 C363 1.358 . S
C366 H422 0.930 . S
C367 N364 1.314 . S
C367 C365 1.353 . S
C367 H423 0.930 . S
C368 N369 1.314 . S
C368 C373 1.353 . S
C368 H374 0.930 . S
N369 Li352 1.990 . S
N369 C368 1.314 . S
N369 C371 1.279 . S
C370 C371 1.358 . S
C370 C372 1.356 . S
C370 H424 0.930 . S
C371 N369 1.279 . S
C371 C370 1.358 . S
C371 H375 0.930 . S
C372 C370 1.356 . S
C372 C373 1.348 . S
C373 C368 1.353 . S
C373 C372 1.348 . S
C373 H425 0.929 . S
H374 C368 0.930 . S
H375 C371 0.930 . S
C376 N377 1.314 . S
C376 C378 1.353 . S
C376 H382 0.930 . S
N377 Li353 1.990 . S
N377 C376 1.314 . S
N377 C380 1.279 . S
C378 C376 1.353 . S
C378 C381 1.348 . S
C378 H426 0.929 . S
C379 C380 1.358 . S
C379 C381 1.356 . S
C379 H427 0.930 . S
C380 N377 1.279 . S
C380 C379 1.358 . S
C380 H383 0.930 . S
C381 C378 1.348 . S
C381 C379 1.356 . S
H382 C376 0.930 . S
H383 C380 0.930 . S
C384 C386 1.348 . S
C384 C387 1.356 . S
C384 O414 1.325 . S
N385 C388 1.314 . S
N385 C389 1.279 . S
C386 C384 1.348 . S
C386 C388 1.353 . S
C386 H428 0.929 . S
C387 C384 1.356 . S
C387 C389 1.358 . S
C387 H429 0.930 . S
C388 N385 1.314 . S
C388 C386 1.353 . S
C388 H430 0.930 . S
C389 N385 1.279 . S
C389 C387 1.358 . S
C389 H431 0.930 . S
C390 C391 1.348 . S
C390 C392 1.356 . S
C390 O415 1.325 . S
C391 C390 1.348 . S
C391 C393 1.353 . S
C391 H432 0.929 . S
C392 C390 1.356 . S
C392 C394 1.358 . S
C392 H433 0.930 . S
C393 C391 1.353 . S
C393 N395 1.314 . S
C393 H434 0.930 . S
C394 C392 1.358 . S
C394 N395 1.279 . S
C394 H435 0.930 . S
N395 C393 1.314 . S
N395 C394 1.279 . S
C396 C398 1.353 . S
C396 N399 1.314 . S
C396 H402 0.930 . S
C397 N399 1.279 . S
C397 C400 1.358 . S
C397 H403 0.930 . S
C398 C396 1.353 . S
C398 C401 1.348 . S
C398 H436 0.929 . S
N399 Li354 1.990 . S
N399 C396 1.314 . S
N399 C397 1.279 . S
C400 C397 1.358 . S
C400 C401 1.356 . S
C400 H437 0.930 . S
C401 C398 1.348 . S
C401 C400 1.356 . S
H402 C396 0.930 . S
H403 C397 0.930 . S
C404 N405 1.314 . S
C404 C406 1.353 . S
C404 H410 0.930 . S
N405 Li355 1.990 . S
N405 C404 1.314 . S
N405 C408 1.279 . S
C406 C404 1.353 . S
C406 C409 1.348 . S
C406 H438 0.929 . S
C407 C408 1.358 . S
C407 C409 1.356 . S
C407 H439 0.930 . S
C408 N405 1.279 . S
C408 C407 1.358 . S
C408 H411 0.930 . S
C409 C406 1.348 . S
C409 C407 1.356 . S
H410 C404 0.930 . S
H411 C408 0.930 . S
O412 Li352 1.956 . S
O412 Li353 1.970 . S
O412 Li354 1.961 . S
O412 C356 1.325 . S
O413 Li352 1.970 . S
O413 Li353 1.956 . S
O413 Li355 1.961 . S
O413 C362 1.325 . S
O414 Li352 1.961 . S
O414 Li354 1.956 . S
O414 Li355 1.970 . S
O414 C384 1.325 . S
O415 Li353 1.961 . S
O415 Li354 1.970 . S
O415 Li355 1.956 . S
O415 C390 1.325 . S
H416 C358 0.929 . S
H417 C359 0.930 . S
H418 C360 0.930 . S
H419 C361 0.930 . S
H420 C363 0.930 . S
H421 C365 0.929 . S
H422 C366 0.930 . S
H423 C367 0.930 . S
H424 C370 0.930 . S
H425 C373 0.929 . S
H426 C378 0.929 . S
H427 C379 0.930 . S
H428 C386 0.929 . S
H429 C387 0.930 . S
H430 C388 0.930 . S
H431 C389 0.930 . S
H432 C391 0.929 . S
H433 C392 0.930 . S
H434 C393 0.930 . S
H435 C394 0.930 . S
H436 C398 0.929 . S
H437 C400 0.930 . S
H438 C406 0.929 . S
H439 C407 0.930 . S
Li440 N457 1.990 . S
Li440 O500 1.956 . S
Li440 O501 1.970 . S
Li440 O502 1.961 . S
Li441 N465 1.990 . S
Li441 O500 1.970 . S
Li441 O501 1.956 . S
Li441 O503 1.961 . S
Li442 N487 1.990 . S
Li442 O500 1.961 . S
Li442 O502 1.956 . S
Li442 O503 1.970 . S
Li443 N493 1.990 . S
Li443 O501 1.961 . S
Li443 O502 1.970 . S
Li443 O503 1.956 . S
C444 C446 1.348 . S
C444 C447 1.356 . S
C444 O500 1.325 . S
N445 C448 1.314 . S
N445 C449 1.279 . S
C446 C444 1.348 . S
C446 C448 1.353 . S
C446 H504 0.929 . S
C447 C444 1.356 . S
C447 C449 1.358 . S
C447 H505 0.930 . S
C448 N445 1.314 . S
C448 C446 1.353 . S
C448 H506 0.930 . S
C449 N445 1.279 . S
C449 C447 1.358 . S
C449 H507 0.930 . S
C450 C453 1.348 . S
C450 C454 1.356 . S
C450 O501 1.325 . S
C451 N452 1.279 . S
C451 C454 1.358 . S
C451 H508 0.930 . S
N452 C451 1.279 . S
N452 C455 1.314 . S
C453 C450 1.348 . S
C453 C455 1.353 . S
C453 H509 0.929 . S
C454 C450 1.356 . S
C454 C451 1.358 . S
C454 H510 0.930 . S
C455 N452 1.314 . S
C455 C453 1.353 . S
C455 H511 0.930 . S
C456 N457 1.314 . S
C456 C461 1.353 . S
C456 H462 0.930 . S
N457 Li440 1.990 . S
N457 C456 1.314 . S
N457 C459 1.279 . S
C458 C459 1.358 . S
C458 C460 1.356 . S
C458 H512 0.930 . S
C459 N457 1.279 . S
C459 C458 1.358 . S
C459 H463 0.930 . S
C460 C458 1.356 . S
C460 C461 1.348 . S
C461 C456 1.353 . S
C461 C460 1.348 . S
C461 H513 0.929 . S
H462 C456 0.930 . S
H463 C459 0.930 . S
C464 N465 1.314 . S
C464 C466 1.353 . S
C464 H470 0.930 . S
N465 Li441 1.990 . S
N465 C464 1.314 . S
N465 C468 1.279 . S
C466 C464 1.353 . S
C466 C469 1.348 . S
C466 H514 0.929 . S
C467 C468 1.358 . S
C467 C469 1.356 . S
C467 H515 0.930 . S
C468 N465 1.279 . S
C468 C467 1.358 . S
C468 H471 0.930 . S
C469 C466 1.348 . S
C469 C467 1.356 . S
H470 C464 0.930 . S
H471 C468 0.930 . S
C472 C474 1.348 . S
C472 C475 1.356 . S
C472 O502 1.325 . S
N473 C476 1.314 . S
N473 C477 1.279 . S
C474 C472 1.348 . S
C474 C476 1.353 . S
C474 H516 0.929 . S
C475 C472 1.356 . S
C475 C477 1.358 . S
C475 H517 0.930 . S
C476 N473 1.314 . S
C476 C474 1.353 . S
C476 H518 0.930 . S
C477 N473 1.279 . S
C477 C475 1.358 . S
C477 H519 0.930 . S
C478 C479 1.348 . S
C478 C480 1.356 . S
C478 O503 1.325 . S
C479 C478 1.348 . S
C479 C481 1.353 . S
C479 H520 0.929 . S
C480 C478 1.356 . S
C480 C482 1.358 . S
C480 H521 0.930 . S
C481 C479 1.353 . S
C481 N483 1.314 . S
C481 H522 0.930 . S
C482 C480 1.358 . S
C482 N483 1.279 . S
C482 H523 0.930 . S
N483 C481 1.314 . S
N483 C482 1.279 . S
C484 C486 1.353 . S
C484 N487 1.314 . S
C484 H490 0.930 . S
C485 N487 1.279 . S
C485 C488 1.358 . S
C485 H491 0.930 . S
C486 C484 1.353 . S
C486 C489 1.348 . S
C486 H524 0.929 . S
N487 Li442 1.990 . S
N487 C484 1.314 . S
N487 C485 1.279 . S
C488 C485 1.358 . S
C488 C489 1.356 . S
C488 H525 0.930 . S
C489 C486 1.348 . S
C489 C488 1.356 . S
H490 C484 0.930 . S
H491 C485 0.930 . S
C492 N493 1.314 . S
C492 C494 1.353 . S
C492 H498 0.930 . S
N493 Li443 1.990 . S
N493 C492 1.314 . S
N493 C496 1.279 . S
C494 C492 1.353 . S
C494 C497 1.348 . S
C494 H526 0.929 . S
C495 C496 1.358 . S
C495 C497 1.356 . S
C495 H527 0.930 . S
C496 N493 1.279 . S
C496 C495 1.358 . S
C496 H499 0.930 . S
C497 C494 1.348 . S
C497 C495 1.356 . S
H498 C492 0.930 . S
H499 C496 0.930 . S
O500 Li440 1.956 . S
O500 Li441 1.970 . S
O500 Li442 1.961 . S
O500 C444 1.325 . S
O501 Li440 1.970 . S
O501 Li441 1.956 . S
O501 Li443 1.961 . S
O501 C450 1.325 . S
O502 Li440 1.961 . S
O502 Li442 1.956 . S
O502 Li443 1.970 . S
O502 C472 1.325 . S
O503 Li441 1.961 . S
O503 Li442 1.970 . S
O503 Li443 1.956 . S
O503 C478 1.325 . S
H504 C446 0.929 . S
H505 C447 0.930 . S
H506 C448 0.930 . S
H507 C449 0.930 . S
H508 C451 0.930 . S
H509 C453 0.929 . S
H510 C454 0.930 . S
H511 C455 0.930 . S
H512 C458 0.930 . S
H513 C461 0.929 . S
H514 C466 0.929 . S
H515 C467 0.930 . S
H516 C474 0.929 . S
H517 C475 0.930 . S
H518 C476 0.930 . S
H519 C477 0.930 . S
H520 C479 0.929 . S
H521 C480 0.930 . S
H522 C481 0.930 . S
H523 C482 0.930 . S
H524 C486 0.929 . S
H525 C488 0.930 . S
H526 C494 0.929 . S
H527 C495 0.930 . S
Li528 N545 1.990 . S
Li528 O588 1.956 . S
Li528 O589 1.970 . S
Li528 O590 1.961 . S
Li529 N553 1.990 . S
Li529 O588 1.970 . S
Li529 O589 1.956 . S
Li529 O591 1.961 . S
Li530 N575 1.990 . S
Li530 O588 1.961 . S
Li530 O590 1.956 . S
Li530 O591 1.970 . S
Li531 N581 1.990 . S
Li531 O589 1.961 . S
Li531 O590 1.970 . S
Li531 O591 1.956 . S
C532 C534 1.348 . S
C532 C535 1.356 . S
C532 O588 1.325 . S
N533 C536 1.314 . S
N533 C537 1.279 . S
C534 C532 1.348 . S
C534 C536 1.353 . S
C534 H592 0.929 . S
C535 C532 1.356 . S
C535 C537 1.358 . S
C535 H593 0.930 . S
C536 N533 1.314 . S
C536 C534 1.353 . S
C536 H594 0.930 . S
C537 N533 1.279 . S
C537 C535 1.358 . S
C537 H595 0.930 . S
C538 C541 1.348 . S
C538 C542 1.356 . S
C538 O589 1.325 . S
C539 N540 1.279 . S
C539 C542 1.358 . S
C539 H596 0.930 . S
N540 C539 1.279 . S
N540 C543 1.314 . S
C541 C538 1.348 . S
C541 C543 1.353 . S
C541 H597 0.929 . S
C542 C538 1.356 . S
C542 C539 1.358 . S
C542 H598 0.930 . S
C543 N540 1.314 . S
C543 C541 1.353 . S
C543 H599 0.930 . S
C544 N545 1.314 . S
C544 C549 1.353 . S
C544 H550 0.930 . S
N545 Li528 1.990 . S
N545 C544 1.314 . S
N545 C547 1.279 . S
C546 C547 1.358 . S
C546 C548 1.356 . S
C546 H600 0.930 . S
C547 N545 1.279 . S
C547 C546 1.358 . S
C547 H551 0.930 . S
C548 C546 1.356 . S
C548 C549 1.348 . S
C549 C544 1.353 . S
C549 C548 1.348 . S
C549 H601 0.929 . S
H550 C544 0.930 . S
H551 C547 0.930 . S
C552 N553 1.314 . S
C552 C554 1.353 . S
C552 H558 0.930 . S
N553 Li529 1.990 . S
N553 C552 1.314 . S
N553 C556 1.279 . S
C554 C552 1.353 . S
C554 C557 1.348 . S
C554 H602 0.929 . S
C555 C556 1.358 . S
C555 C557 1.356 . S
C555 H603 0.930 . S
C556 N553 1.279 . S
C556 C555 1.358 . S
C556 H559 0.930 . S
C557 C554 1.348 . S
C557 C555 1.356 . S
H558 C552 0.930 . S
H559 C556 0.930 . S
C560 C562 1.348 . S
C560 C563 1.356 . S
C560 O590 1.325 . S
N561 C564 1.314 . S
N561 C565 1.279 . S
C562 C560 1.348 . S
C562 C564 1.353 . S
C562 H604 0.929 . S
C563 C560 1.356 . S
C563 C565 1.358 . S
C563 H605 0.930 . S
C564 N561 1.314 . S
C564 C562 1.353 . S
C564 H606 0.930 . S
C565 N561 1.279 . S
C565 C563 1.358 . S
C565 H607 0.930 . S
C566 C567 1.348 . S
C566 C568 1.356 . S
C566 O591 1.325 . S
C567 C566 1.348 . S
C567 C569 1.353 . S
C567 H608 0.929 . S
C568 C566 1.356 . S
C568 C570 1.358 . S
C568 H609 0.930 . S
C569 C567 1.353 . S
C569 N571 1.314 . S
C569 H610 0.930 . S
C570 C568 1.358 . S
C570 N571 1.279 . S
C570 H611 0.930 . S
N571 C569 1.314 . S
N571 C570 1.279 . S
C572 C574 1.353 . S
C572 N575 1.314 . S
C572 H578 0.930 . S
C573 N575 1.279 . S
C573 C576 1.358 . S
C573 H579 0.930 . S
C574 C572 1.353 . S
C574 C577 1.348 . S
C574 H612 0.929 . S
N575 Li530 1.990 . S
N575 C572 1.314 . S
N575 C573 1.279 . S
C576 C573 1.358 . S
C576 C577 1.356 . S
C576 H613 0.930 . S
C577 C574 1.348 . S
C577 C576 1.356 . S
H578 C572 0.930 . S
H579 C573 0.930 . S
C580 N581 1.314 . S
C580 C582 1.353 . S
C580 H586 0.930 . S
N581 Li531 1.990 . S
N581 C580 1.314 . S
N581 C584 1.279 . S
C582 C580 1.353 . S
C582 C585 1.348 . S
C582 H614 0.929 . S
C583 C584 1.358 . S
C583 C585 1.356 . S
C583 H615 0.930 . S
C584 N581 1.279 . S
C584 C583 1.358 . S
C584 H587 0.930 . S
C585 C582 1.348 . S
C585 C583 1.356 . S
H586 C580 0.930 . S
H587 C584 0.930 . S
O588 Li528 1.956 . S
O588 Li529 1.970 . S
O588 Li530 1.961 . S
O588 C532 1.325 . S
O589 Li528 1.970 . S
O589 Li529 1.956 . S
O589 Li531 1.961 . S
O589 C538 1.325 . S
O590 Li528 1.961 . S
O590 Li530 1.956 . S
O590 Li531 1.970 . S
O590 C560 1.325 . S
O591 Li529 1.961 . S
O591 Li530 1.970 . S
O591 Li531 1.956 . S
O591 C566 1.325 . S
H592 C534 0.929 . S
H593 C535 0.930 . S
H594 C536 0.930 . S
H595 C537 0.930 . S
H596 C539 0.930 . S
H597 C541 0.929 . S
H598 C542 0.930 . S
H599 C543 0.930 . S
H600 C546 0.930 . S
H601 C549 0.929 . S
H602 C554 0.929 . S
H603 C555 0.930 . S
H604 C562 0.929 . S
H605 C563 0.930 . S
H606 C564 0.930 . S
H607 C565 0.930 . S
H608 C567 0.929 . S
H609 C568 0.930 . S
H610 C569 0.930 . S
H611 C570 0.930 . S
H612 C574 0.929 . S
H613 C576 0.930 . S
H614 C582 0.929 . S
H615 C583 0.930 . S
Li616 N633 1.990 . S
Li616 O676 1.956 . S
Li616 O677 1.970 . S
Li616 O678 1.961 . S
Li617 N641 1.990 . S
Li617 O676 1.970 . S
Li617 O677 1.956 . S
Li617 O679 1.961 . S
Li618 N663 1.990 . S
Li618 O676 1.961 . S
Li618 O678 1.956 . S
Li618 O679 1.970 . S
Li619 N669 1.990 . S
Li619 O677 1.961 . S
Li619 O678 1.970 . S
Li619 O679 1.956 . S
C620 C622 1.348 . S
C620 C623 1.356 . S
C620 O676 1.325 . S
N621 C624 1.314 . S
N621 C625 1.279 . S
C622 C620 1.348 . S
C622 C624 1.353 . S
C622 H680 0.929 . S
C623 C620 1.356 . S
C623 C625 1.358 . S
C623 H681 0.930 . S
C624 N621 1.314 . S
C624 C622 1.353 . S
C624 H682 0.930 . S
C625 N621 1.279 . S
C625 C623 1.358 . S
C625 H683 0.930 . S
C626 C629 1.348 . S
C626 C630 1.356 . S
C626 O677 1.325 . S
C627 N628 1.279 . S
C627 C630 1.358 . S
C627 H684 0.930 . S
N628 C627 1.279 . S
N628 C631 1.314 . S
C629 C626 1.348 . S
C629 C631 1.353 . S
C629 H685 0.929 . S
C630 C626 1.356 . S
C630 C627 1.358 . S
C630 H686 0.930 . S
C631 N628 1.314 . S
C631 C629 1.353 . S
C631 H687 0.930 . S
C632 N633 1.314 . S
C632 C637 1.353 . S
C632 H638 0.930 . S
N633 Li616 1.990 . S
N633 C632 1.314 . S
N633 C635 1.279 . S
C634 C635 1.358 . S
C634 C636 1.356 . S
C634 H688 0.930 . S
C635 N633 1.279 . S
C635 C634 1.358 . S
C635 H639 0.930 . S
C636 C634 1.356 . S
C636 C637 1.348 . S
C637 C632 1.353 . S
C637 C636 1.348 . S
C637 H689 0.929 . S
H638 C632 0.930 . S
H639 C635 0.930 . S
C640 N641 1.314 . S
C640 C642 1.353 . S
C640 H646 0.930 . S
N641 Li617 1.990 . S
N641 C640 1.314 . S
N641 C644 1.279 . S
C642 C640 1.353 . S
C642 C645 1.348 . S
C642 H690 0.929 . S
C643 C644 1.358 . S
C643 C645 1.356 . S
C643 H691 0.930 . S
C644 N641 1.279 . S
C644 C643 1.358 . S
C644 H647 0.930 . S
C645 C642 1.348 . S
C645 C643 1.356 . S
H646 C640 0.930 . S
H647 C644 0.930 . S
C648 C650 1.348 . S
C648 C651 1.356 . S
C648 O678 1.325 . S
N649 C652 1.314 . S
N649 C653 1.279 . S
C650 C648 1.348 . S
C650 C652 1.353 . S
C650 H692 0.929 . S
C651 C648 1.356 . S
C651 C653 1.358 . S
C651 H693 0.930 . S
C652 N649 1.314 . S
C652 C650 1.353 . S
C652 H694 0.930 . S
C653 N649 1.279 . S
C653 C651 1.358 . S
C653 H695 0.930 . S
C654 C655 1.348 . S
C654 C656 1.356 . S
C654 O679 1.325 . S
C655 C654 1.348 . S
C655 C657 1.353 . S
C655 H696 0.929 . S
C656 C654 1.356 . S
C656 C658 1.358 . S
C656 H697 0.930 . S
C657 C655 1.353 . S
C657 N659 1.314 . S
C657 H698 0.930 . S
C658 C656 1.358 . S
C658 N659 1.279 . S
C658 H699 0.930 . S
N659 C657 1.314 . S
N659 C658 1.279 . S
C660 C662 1.353 . S
C660 N663 1.314 . S
C660 H666 0.930 . S
C661 N663 1.279 . S
C661 C664 1.358 . S
C661 H667 0.930 . S
C662 C660 1.353 . S
C662 C665 1.348 . S
C662 H700 0.929 . S
N663 Li618 1.990 . S
N663 C660 1.314 . S
N663 C661 1.279 . S
C664 C661 1.358 . S
C664 C665 1.356 . S
C664 H701 0.930 . S
C665 C662 1.348 . S
C665 C664 1.356 . S
H666 C660 0.930 . S
H667 C661 0.930 . S
C668 N669 1.314 . S
C668 C670 1.353 . S
C668 H674 0.930 . S
N669 Li619 1.990 . S
N669 C668 1.314 . S
N669 C672 1.279 . S
C670 C668 1.353 . S
C670 C673 1.348 . S
C670 H702 0.929 . S
C671 C672 1.358 . S
C671 C673 1.356 . S
C671 H703 0.930 . S
C672 N669 1.279 . S
C672 C671 1.358 . S
C672 H675 0.930 . S
C673 C670 1.348 . S
C673 C671 1.356 . S
H674 C668 0.930 . S
H675 C672 0.930 . S
O676 Li616 1.956 . S
O676 Li617 1.970 . S
O676 Li618 1.961 . S
O676 C620 1.325 . S
O677 Li616 1.970 . S
O677 Li617 1.956 . S
O677 Li619 1.961 . S
O677 C626 1.325 . S
O678 Li616 1.961 . S
O678 Li618 1.956 . S
O678 Li619 1.970 . S
O678 C648 1.325 . S
O679 Li617 1.961 . S
O679 Li618 1.970 . S
O679 Li619 1.956 . S
O679 C654 1.325 . S
H680 C622 0.929 . S
H681 C623 0.930 . S
H682 C624 0.930 . S
H683 C625 0.930 . S
H684 C627 0.930 . S
H685 C629 0.929 . S
H686 C630 0.930 . S
H687 C631 0.930 . S
H688 C634 0.930 . S
H689 C637 0.929 . S
H690 C642 0.929 . S
H691 C643 0.930 . S
H692 C650 0.929 . S
H693 C651 0.930 . S
H694 C652 0.930 . S
H695 C653 0.930 . S
H696 C655 0.929 . S
H697 C656 0.930 . S
H698 C657 0.930 . S
H699 C658 0.930 . S
H700 C662 0.929 . S
H701 C664 0.930 . S
H702 C670 0.929 . S
H703 C671 0.930 . S
Li704 N721 1.990 . S
Li704 O764 1.956 . S
Li704 O765 1.970 . S
Li704 O766 1.961 . S
Li705 N729 1.990 . S
Li705 O764 1.970 . S
Li705 O765 1.956 . S
Li705 O767 1.961 . S
Li706 N751 1.990 . S
Li706 O764 1.961 . S
Li706 O766 1.956 . S
Li706 O767 1.970 . S
Li707 N757 1.990 . S
Li707 O765 1.961 . S
Li707 O766 1.970 . S
Li707 O767 1.956 . S
C708 C710 1.348 . S
C708 C711 1.356 . S
C708 O764 1.325 . S
N709 C712 1.314 . S
N709 C713 1.279 . S
C710 C708 1.348 . S
C710 C712 1.353 . S
C710 H768 0.929 . S
C711 C708 1.356 . S
C711 C713 1.358 . S
C711 H769 0.930 . S
C712 N709 1.314 . S
C712 C710 1.353 . S
C712 H770 0.930 . S
C713 N709 1.279 . S
C713 C711 1.358 . S
C713 H771 0.930 . S
C714 C717 1.348 . S
C714 C718 1.356 . S
C714 O765 1.325 . S
C715 N716 1.279 . S
C715 C718 1.358 . S
C715 H772 0.930 . S
N716 C715 1.279 . S
N716 C719 1.314 . S
C717 C714 1.348 . S
C717 C719 1.353 . S
C717 H773 0.929 . S
C718 C714 1.356 . S
C718 C715 1.358 . S
C718 H774 0.930 . S
C719 N716 1.314 . S
C719 C717 1.353 . S
C719 H775 0.930 . S
C720 N721 1.314 . S
C720 C725 1.353 . S
C720 H726 0.930 . S
N721 Li704 1.990 . S
N721 C720 1.314 . S
N721 C723 1.279 . S
C722 C723 1.358 . S
C722 C724 1.356 . S
C722 H776 0.930 . S
C723 N721 1.279 . S
C723 C722 1.358 . S
C723 H727 0.930 . S
C724 C722 1.356 . S
C724 C725 1.348 . S
C725 C720 1.353 . S
C725 C724 1.348 . S
C725 H777 0.929 . S
H726 C720 0.930 . S
H727 C723 0.930 . S
C728 N729 1.314 . S
C728 C730 1.353 . S
C728 H734 0.930 . S
N729 Li705 1.990 . S
N729 C728 1.314 . S
N729 C732 1.279 . S
C730 C728 1.353 . S
C730 C733 1.348 . S
C730 H778 0.929 . S
C731 C732 1.358 . S
C731 C733 1.356 . S
C731 H779 0.930 . S
C732 N729 1.279 . S
C732 C731 1.358 . S
C732 H735 0.930 . S
C733 C730 1.348 . S
C733 C731 1.356 . S
H734 C728 0.930 . S
H735 C732 0.930 . S
C736 C738 1.348 . S
C736 C739 1.356 . S
C736 O766 1.325 . S
N737 C740 1.314 . S
N737 C741 1.279 . S
C738 C736 1.348 . S
C738 C740 1.353 . S
C738 H780 0.929 . S
C739 C736 1.356 . S
C739 C741 1.358 . S
C739 H781 0.930 . S
C740 N737 1.314 . S
C740 C738 1.353 . S
C740 H782 0.930 . S
C741 N737 1.279 . S
C741 C739 1.358 . S
C741 H783 0.930 . S
C742 C743 1.348 . S
C742 C744 1.356 . S
C742 O767 1.325 . S
C743 C742 1.348 . S
C743 C745 1.353 . S
C743 H784 0.929 . S
C744 C742 1.356 . S
C744 C746 1.358 . S
C744 H785 0.930 . S
C745 C743 1.353 . S
C745 N747 1.314 . S
C745 H786 0.930 . S
C746 C744 1.358 . S
C746 N747 1.279 . S
C746 H787 0.930 . S
N747 C745 1.314 . S
N747 C746 1.279 . S
C748 C750 1.353 . S
C748 N751 1.314 . S
C748 H754 0.930 . S
C749 N751 1.279 . S
C749 C752 1.358 . S
C749 H755 0.930 . S
C750 C748 1.353 . S
C750 C753 1.348 . S
C750 H788 0.929 . S
N751 Li706 1.990 . S
N751 C748 1.314 . S
N751 C749 1.279 . S
C752 C749 1.358 . S
C752 C753 1.356 . S
C752 H789 0.930 . S
C753 C750 1.348 . S
C753 C752 1.356 . S
H754 C748 0.930 . S
H755 C749 0.930 . S
C756 N757 1.314 . S
C756 C758 1.353 . S
C756 H762 0.930 . S
N757 Li707 1.990 . S
N757 C756 1.314 . S
N757 C760 1.279 . S
C758 C756 1.353 . S
C758 C761 1.348 . S
C758 H790 0.929 . S
C759 C760 1.358 . S
C759 C761 1.356 . S
C759 H791 0.930 . S
C760 N757 1.279 . S
C760 C759 1.358 . S
C760 H763 0.930 . S
C761 C758 1.348 . S
C761 C759 1.356 . S
H762 C756 0.930 . S
H763 C760 0.930 . S
O764 Li704 1.956 . S
O764 Li705 1.970 . S
O764 Li706 1.961 . S
O764 C708 1.325 . S
O765 Li704 1.970 . S
O765 Li705 1.956 . S
O765 Li707 1.961 . S
O765 C714 1.325 . S
O766 Li704 1.961 . S
O766 Li706 1.956 . S
O766 Li707 1.970 . S
O766 C736 1.325 . S
O767 Li705 1.961 . S
O767 Li706 1.970 . S
O767 Li707 1.956 . S
O767 C742 1.325 . S
H768 C710 0.929 . S
H769 C711 0.930 . S
H770 C712 0.930 . S
H771 C713 0.930 . S
H772 C715 0.930 . S
H773 C717 0.929 . S
H774 C718 0.930 . S
H775 C719 0.930 . S
H776 C722 0.930 . S
H777 C725 0.929 . S
H778 C730 0.929 . S
H779 C731 0.930 . S
H780 C738 0.929 . S
H781 C739 0.930 . S
H782 C740 0.930 . S
H783 C741 0.930 . S
H784 C743 0.929 . S
H785 C744 0.930 . S
H786 C745 0.930 . S
H787 C746 0.930 . S
H788 C750 0.929 . S
H789 C752 0.930 . S
H790 C758 0.929 . S
H791 C759 0.930 . S
Li792 N809 1.990 . S
Li792 O852 1.956 . S
Li792 O853 1.970 . S
Li792 O854 1.961 . S
Li793 N817 1.990 . S
Li793 O852 1.970 . S
Li793 O853 1.956 . S
Li793 O855 1.961 . S
Li794 N839 1.990 . S
Li794 O852 1.961 . S
Li794 O854 1.956 . S
Li794 O855 1.970 . S
Li795 N845 1.990 . S
Li795 O853 1.961 . S
Li795 O854 1.970 . S
Li795 O855 1.956 . S
C796 C798 1.348 . S
C796 C799 1.356 . S
C796 O852 1.325 . S
N797 C800 1.314 . S
N797 C801 1.279 . S
C798 C796 1.348 . S
C798 C800 1.353 . S
C798 H856 0.929 . S
C799 C796 1.356 . S
C799 C801 1.358 . S
C799 H857 0.930 . S
C800 N797 1.314 . S
C800 C798 1.353 . S
C800 H858 0.930 . S
C801 N797 1.279 . S
C801 C799 1.358 . S
C801 H859 0.930 . S
C802 C805 1.348 . S
C802 C806 1.356 . S
C802 O853 1.325 . S
C803 N804 1.279 . S
C803 C806 1.358 . S
C803 H860 0.930 . S
N804 C803 1.279 . S
N804 C807 1.314 . S
C805 C802 1.348 . S
C805 C807 1.353 . S
C805 H861 0.929 . S
C806 C802 1.356 . S
C806 C803 1.358 . S
C806 H862 0.930 . S
C807 N804 1.314 . S
C807 C805 1.353 . S
C807 H863 0.930 . S
C808 N809 1.314 . S
C808 C813 1.353 . S
C808 H814 0.930 . S
N809 Li792 1.990 . S
N809 C808 1.314 . S
N809 C811 1.279 . S
C810 C811 1.358 . S
C810 C812 1.356 . S
C810 H864 0.930 . S
C811 N809 1.279 . S
C811 C810 1.358 . S
C811 H815 0.930 . S
C812 C810 1.356 . S
C812 C813 1.348 . S
C813 C808 1.353 . S
C813 C812 1.348 . S
C813 H865 0.929 . S
H814 C808 0.930 . S
H815 C811 0.930 . S
C816 N817 1.314 . S
C816 C818 1.353 . S
C816 H822 0.930 . S
N817 Li793 1.990 . S
N817 C816 1.314 . S
N817 C820 1.279 . S
C818 C816 1.353 . S
C818 C821 1.348 . S
C818 H866 0.929 . S
C819 C820 1.358 . S
C819 C821 1.356 . S
C819 H867 0.930 . S
C820 N817 1.279 . S
C820 C819 1.358 . S
C820 H823 0.930 . S
C821 C818 1.348 . S
C821 C819 1.356 . S
H822 C816 0.930 . S
H823 C820 0.930 . S
C824 C826 1.348 . S
C824 C827 1.356 . S
C824 O854 1.325 . S
N825 C828 1.314 . S
N825 C829 1.279 . S
C826 C824 1.348 . S
C826 C828 1.353 . S
C826 H868 0.929 . S
C827 C824 1.356 . S
C827 C829 1.358 . S
C827 H869 0.930 . S
C828 N825 1.314 . S
C828 C826 1.353 . S
C828 H870 0.930 . S
C829 N825 1.279 . S
C829 C827 1.358 . S
C829 H871 0.930 . S
C830 C831 1.348 . S
C830 C832 1.356 . S
C830 O855 1.325 . S
C831 C830 1.348 . S
C831 C833 1.353 . S
C831 H872 0.929 . S
C832 C830 1.356 . S
C832 C834 1.358 . S
C832 H873 0.930 . S
C833 C831 1.353 . S
C833 N835 1.314 . S
C833 H874 0.930 . S
C834 C832 1.358 . S
C834 N835 1.279 . S
C834 H875 0.930 . S
N835 C833 1.314 . S
N835 C834 1.279 . S
C836 C838 1.353 . S
C836 N839 1.314 . S
C836 H842 0.930 . S
C837 N839 1.279 . S
C837 C840 1.358 . S
C837 H843 0.930 . S
C838 C836 1.353 . S
C838 C841 1.348 . S
C838 H876 0.929 . S
N839 Li794 1.990 . S
N839 C836 1.314 . S
N839 C837 1.279 . S
C840 C837 1.358 . S
C840 C841 1.356 . S
C840 H877 0.930 . S
C841 C838 1.348 . S
C841 C840 1.356 . S
H842 C836 0.930 . S
H843 C837 0.930 . S
C844 N845 1.314 . S
C844 C846 1.353 . S
C844 H850 0.930 . S
N845 Li795 1.990 . S
N845 C844 1.314 . S
N845 C848 1.279 . S
C846 C844 1.353 . S
C846 C849 1.348 . S
C846 H878 0.929 . S
C847 C848 1.358 . S
C847 C849 1.356 . S
C847 H879 0.930 . S
C848 N845 1.279 . S
C848 C847 1.358 . S
C848 H851 0.930 . S
C849 C846 1.348 . S
C849 C847 1.356 . S
H850 C844 0.930 . S
H851 C848 0.930 . S
O852 Li792 1.956 . S
O852 Li793 1.970 . S
O852 Li794 1.961 . S
O852 C796 1.325 . S
O853 Li792 1.970 . S
O853 Li793 1.956 . S
O853 Li795 1.961 . S
O853 C802 1.325 . S
O854 Li792 1.961 . S
O854 Li794 1.956 . S
O854 Li795 1.970 . S
O854 C824 1.325 . S
O855 Li793 1.961 . S
O855 Li794 1.970 . S
O855 Li795 1.956 . S
O855 C830 1.325 . S
H856 C798 0.929 . S
H857 C799 0.930 . S
H858 C800 0.930 . S
H859 C801 0.930 . S
H860 C803 0.930 . S
H861 C805 0.929 . S
H862 C806 0.930 . S
H863 C807 0.930 . S
H864 C810 0.930 . S
H865 C813 0.929 . S
H866 C818 0.929 . S
H867 C819 0.930 . S
H868 C826 0.929 . S
H869 C827 0.930 . S
H870 C828 0.930 . S
H871 C829 0.930 . S
H872 C831 0.929 . S
H873 C832 0.930 . S
H874 C833 0.930 . S
H875 C834 0.930 . S
H876 C838 0.929 . S
H877 C840 0.930 . S
H878 C846 0.929 . S
H879 C847 0.930 . S
Li880 N897 1.990 . S
Li880 O940 1.956 . S
Li880 O941 1.970 . S
Li880 O942 1.961 . S
Li881 N905 1.990 . S
Li881 O940 1.970 . S
Li881 O941 1.956 . S
Li881 O943 1.961 . S
Li882 N927 1.990 . S
Li882 O940 1.961 . S
Li882 O942 1.956 . S
Li882 O943 1.970 . S
Li883 N933 1.990 . S
Li883 O941 1.961 . S
Li883 O942 1.970 . S
Li883 O943 1.956 . S
C884 C886 1.348 . S
C884 C887 1.356 . S
C884 O940 1.325 . S
N885 C888 1.314 . S
N885 C889 1.279 . S
C886 C884 1.348 . S
C886 C888 1.353 . S
C886 H944 0.929 . S
C887 C884 1.356 . S
C887 C889 1.358 . S
C887 H945 0.930 . S
C888 N885 1.314 . S
C888 C886 1.353 . S
C888 H946 0.930 . S
C889 N885 1.279 . S
C889 C887 1.358 . S
C889 H947 0.930 . S
C890 C893 1.348 . S
C890 C894 1.356 . S
C890 O941 1.325 . S
C891 N892 1.279 . S
C891 C894 1.358 . S
C891 H948 0.930 . S
N892 C891 1.279 . S
N892 C895 1.314 . S
C893 C890 1.348 . S
C893 C895 1.353 . S
C893 H949 0.929 . S
C894 C890 1.356 . S
C894 C891 1.358 . S
C894 H950 0.930 . S
C895 N892 1.314 . S
C895 C893 1.353 . S
C895 H951 0.930 . S
C896 N897 1.314 . S
C896 C901 1.353 . S
C896 H902 0.930 . S
N897 Li880 1.990 . S
N897 C896 1.314 . S
N897 C899 1.279 . S
C898 C899 1.358 . S
C898 C900 1.356 . S
C898 H952 0.930 . S
C899 N897 1.279 . S
C899 C898 1.358 . S
C899 H903 0.930 . S
C900 C898 1.356 . S
C900 C901 1.348 . S
C901 C896 1.353 . S
C901 C900 1.348 . S
C901 H953 0.929 . S
H902 C896 0.930 . S
H903 C899 0.930 . S
C904 N905 1.314 . S
C904 C906 1.353 . S
C904 H910 0.930 . S
N905 Li881 1.990 . S
N905 C904 1.314 . S
N905 C908 1.279 . S
C906 C904 1.353 . S
C906 C909 1.348 . S
C906 H954 0.929 . S
C907 C908 1.358 . S
C907 C909 1.356 . S
C907 H955 0.930 . S
C908 N905 1.279 . S
C908 C907 1.358 . S
C908 H911 0.930 . S
C909 C906 1.348 . S
C909 C907 1.356 . S
H910 C904 0.930 . S
H911 C908 0.930 . S
C912 C914 1.348 . S
C912 C915 1.356 . S
C912 O942 1.325 . S
N913 C916 1.314 . S
N913 C917 1.279 . S
C914 C912 1.348 . S
C914 C916 1.353 . S
C914 H956 0.929 . S
C915 C912 1.356 . S
C915 C917 1.358 . S
C915 H957 0.930 . S
C916 N913 1.314 . S
C916 C914 1.353 . S
C916 H958 0.930 . S
C917 N913 1.279 . S
C917 C915 1.358 . S
C917 H959 0.930 . S
C918 C919 1.348 . S
C918 C920 1.356 . S
C918 O943 1.325 . S
C919 C918 1.348 . S
C919 C921 1.353 . S
C919 H960 0.929 . S
C920 C918 1.356 . S
C920 C922 1.358 . S
C920 H961 0.930 . S
C921 C919 1.353 . S
C921 N923 1.314 . S
C921 H962 0.930 . S
C922 C920 1.358 . S
C922 N923 1.279 . S
C922 H963 0.930 . S
N923 C921 1.314 . S
N923 C922 1.279 . S
C924 C926 1.353 . S
C924 N927 1.314 . S
C924 H930 0.930 . S
C925 N927 1.279 . S
C925 C928 1.358 . S
C925 H931 0.930 . S
C926 C924 1.353 . S
C926 C929 1.348 . S
C926 H964 0.929 . S
N927 Li882 1.990 . S
N927 C924 1.314 . S
N927 C925 1.279 . S
C928 C925 1.358 . S
C928 C929 1.356 . S
C928 H965 0.930 . S
C929 C926 1.348 . S
C929 C928 1.356 . S
H930 C924 0.930 . S
H931 C925 0.930 . S
C932 N933 1.314 . S
C932 C934 1.353 . S
C932 H938 0.930 . S
N933 Li883 1.990 . S
N933 C932 1.314 . S
N933 C936 1.279 . S
C934 C932 1.353 . S
C934 C937 1.348 . S
C934 H966 0.929 . S
C935 C936 1.358 . S
C935 C937 1.356 . S
C935 H967 0.930 . S
C936 N933 1.279 . S
C936 C935 1.358 . S
C936 H939 0.930 . S
C937 C934 1.348 . S
C937 C935 1.356 . S
H938 C932 0.930 . S
H939 C936 0.930 . S
O940 Li880 1.956 . S
O940 Li881 1.970 . S
O940 Li882 1.961 . S
O940 C884 1.325 . S
O941 Li880 1.970 . S
O941 Li881 1.956 . S
O941 Li883 1.961 . S
O941 C890 1.325 . S
O942 Li880 1.961 . S
O942 Li882 1.956 . S
O942 Li883 1.970 . S
O942 C912 1.325 . S
O943 Li881 1.961 . S
O943 Li882 1.970 . S
O943 Li883 1.956 . S
O943 C918 1.325 . S
H944 C886 0.929 . S
H945 C887 0.930 . S
H946 C888 0.930 . S
H947 C889 0.930 . S
H948 C891 0.930 . S
H949 C893 0.929 . S
H950 C894 0.930 . S
H951 C895 0.930 . S
H952 C898 0.930 . S
H953 C901 0.929 . S
H954 C906 0.929 . S
H955 C907 0.930 . S
H956 C914 0.929 . S
H957 C915 0.930 . S
H958 C916 0.930 . S
H959 C917 0.930 . S
H960 C919 0.929 . S
H961 C920 0.930 . S
H962 C921 0.930 . S
H963 C922 0.930 . S
H964 C926 0.929 . S
H965 C928 0.930 . S
H966 C934 0.929 . S
H967 C935 0.930 . S
Li968 N985 1.990 . S
Li968 O1028 1.956 . S
Li968 O1029 1.970 . S
Li968 O1030 1.961 . S
Li969 N993 1.990 . S
Li969 O1028 1.970 . S
Li969 O1029 1.956 . S
Li969 O1031 1.961 . S
Li970 N1015 1.990 . S
Li970 O1028 1.961 . S
Li970 O1030 1.956 . S
Li970 O1031 1.970 . S
Li971 N1021 1.990 . S
Li971 O1029 1.961 . S
Li971 O1030 1.970 . S
Li971 O1031 1.956 . S
C972 C974 1.348 . S
C972 C975 1.356 . S
C972 O1028 1.325 . S
N973 C976 1.314 . S
N973 C977 1.279 . S
C974 C972 1.348 . S
C974 C976 1.353 . S
C974 H1032 0.929 . S
C975 C972 1.356 . S
C975 C977 1.358 . S
C975 H1033 0.930 . S
C976 N973 1.314 . S
C976 C974 1.353 . S
C976 H1034 0.930 . S
C977 N973 1.279 . S
C977 C975 1.358 . S
C977 H1035 0.930 . S
C978 C981 1.348 . S
C978 C982 1.356 . S
C978 O1029 1.325 . S
C979 N980 1.279 . S
C979 C982 1.358 . S
C979 H1036 0.930 . S
N980 C979 1.279 . S
N980 C983 1.314 . S
C981 C978 1.348 . S
C981 C983 1.353 . S
C981 H1037 0.929 . S
C982 C978 1.356 . S
C982 C979 1.358 . S
C982 H1038 0.930 . S
C983 N980 1.314 . S
C983 C981 1.353 . S
C983 H1039 0.930 . S
C984 N985 1.314 . S
C984 C989 1.353 . S
C984 H990 0.930 . S
N985 Li968 1.990 . S
N985 C984 1.314 . S
N985 C987 1.279 . S
C986 C987 1.358 . S
C986 C988 1.356 . S
C986 H1040 0.930 . S
C987 N985 1.279 . S
C987 C986 1.358 . S
C987 H991 0.930 . S
C988 C986 1.356 . S
C988 C989 1.348 . S
C989 C984 1.353 . S
C989 C988 1.348 . S
C989 H1041 0.929 . S
H990 C984 0.930 . S
H991 C987 0.930 . S
C992 N993 1.314 . S
C992 C994 1.353 . S
C992 H998 0.930 . S
N993 Li969 1.990 . S
N993 C992 1.314 . S
N993 C996 1.279 . S
C994 C992 1.353 . S
C994 C997 1.348 . S
C994 H1042 0.929 . S
C995 C996 1.358 . S
C995 C997 1.356 . S
C995 H1043 0.930 . S
C996 N993 1.279 . S
C996 C995 1.358 . S
C996 H999 0.930 . S
C997 C994 1.348 . S
C997 C995 1.356 . S
H998 C992 0.930 . S
H999 C996 0.930 . S
C1000 C1002 1.348 . S
C1000 C1003 1.356 . S
C1000 O1030 1.325 . S
N1001 C1004 1.314 . S
N1001 C1005 1.279 . S
C1002 C1000 1.348 . S
C1002 C1004 1.353 . S
C1002 H1044 0.929 . S
C1003 C1000 1.356 . S
C1003 C1005 1.358 . S
C1003 H1045 0.930 . S
C1004 N1001 1.314 . S
C1004 C1002 1.353 . S
C1004 H1046 0.930 . S
C1005 N1001 1.279 . S
C1005 C1003 1.358 . S
C1005 H1047 0.930 . S
C1006 C1007 1.348 . S
C1006 C1008 1.356 . S
C1006 O1031 1.325 . S
C1007 C1006 1.348 . S
C1007 C1009 1.353 . S
C1007 H1048 0.929 . S
C1008 C1006 1.356 . S
C1008 C1010 1.358 . S
C1008 H1049 0.930 . S
C1009 C1007 1.353 . S
C1009 N1011 1.314 . S
C1009 H1050 0.930 . S
C1010 C1008 1.358 . S
C1010 N1011 1.279 . S
C1010 H1051 0.930 . S
N1011 C1009 1.314 . S
N1011 C1010 1.279 . S
C1012 C1014 1.353 . S
C1012 N1015 1.314 . S
C1012 H1018 0.930 . S
C1013 N1015 1.279 . S
C1013 C1016 1.358 . S
C1013 H1019 0.930 . S
C1014 C1012 1.353 . S
C1014 C1017 1.348 . S
C1014 H1052 0.929 . S
N1015 Li970 1.990 . S
N1015 C1012 1.314 . S
N1015 C1013 1.279 . S
C1016 C1013 1.358 . S
C1016 C1017 1.356 . S
C1016 H1053 0.930 . S
C1017 C1014 1.348 . S
C1017 C1016 1.356 . S
H1018 C1012 0.930 . S
H1019 C1013 0.930 . S
C1020 N1021 1.314 . S
C1020 C1022 1.353 . S
C1020 H1026 0.930 . S
N1021 Li971 1.990 . S
N1021 C1020 1.314 . S
N1021 C1024 1.279 . S
C1022 C1020 1.353 . S
C1022 C1025 1.348 . S
C1022 H1054 0.929 . S
C1023 C1024 1.358 . S
C1023 C1025 1.356 . S
C1023 H1055 0.930 . S
C1024 N1021 1.279 . S
C1024 C1023 1.358 . S
C1024 H1027 0.930 . S
C1025 C1022 1.348 . S
C1025 C1023 1.356 . S
H1026 C1020 0.930 . S
H1027 C1024 0.930 . S
O1028 Li968 1.956 . S
O1028 Li969 1.970 . S
O1028 Li970 1.961 . S
O1028 C972 1.325 . S
O1029 Li968 1.970 . S
O1029 Li969 1.956 . S
O1029 Li971 1.961 . S
O1029 C978 1.325 . S
O1030 Li968 1.961 . S
O1030 Li970 1.956 . S
O1030 Li971 1.970 . S
O1030 C1000 1.325 . S
O1031 Li969 1.961 . S
O1031 Li970 1.970 . S
O1031 Li971 1.956 . S
O1031 C1006 1.325 . S
H1032 C974 0.929 . S
H1033 C975 0.930 . S
H1034 C976 0.930 . S
H1035 C977 0.930 . S
H1036 C979 0.930 . S
H1037 C981 0.929 . S
H1038 C982 0.930 . S
H1039 C983 0.930 . S
H1040 C986 0.930 . S
H1041 C989 0.929 . S
H1042 C994 0.929 . S
H1043 C995 0.930 . S
H1044 C1002 0.929 . S
H1045 C1003 0.930 . S
H1046 C1004 0.930 . S
H1047 C1005 0.930 . S
H1048 C1007 0.929 . S
H1049 C1008 0.930 . S
H1050 C1009 0.930 . S
H1051 C1010 0.930 . S
H1052 C1014 0.929 . S
H1053 C1016 0.930 . S
H1054 C1022 0.929 . S
H1055 C1023 0.930 . S
Li1056 N1073 1.990 . S
Li1056 O1116 1.956 . S
Li1056 O1117 1.970 . S
Li1056 O1118 1.961 . S
Li1057 N1081 1.990 . S
Li1057 O1116 1.970 . S
Li1057 O1117 1.956 . S
Li1057 O1119 1.961 . S
Li1058 N1103 1.990 . S
Li1058 O1116 1.961 . S
Li1058 O1118 1.956 . S
Li1058 O1119 1.970 . S
Li1059 N1109 1.990 . S
Li1059 O1117 1.961 . S
Li1059 O1118 1.970 . S
Li1059 O1119 1.956 . S
C1060 C1062 1.348 . S
C1060 C1063 1.356 . S
C1060 O1116 1.325 . S
N1061 C1064 1.314 . S
N1061 C1065 1.279 . S
C1062 C1060 1.348 . S
C1062 C1064 1.353 . S
C1062 H1120 0.929 . S
C1063 C1060 1.356 . S
C1063 C1065 1.358 . S
C1063 H1121 0.930 . S
C1064 N1061 1.314 . S
C1064 C1062 1.353 . S
C1064 H1122 0.930 . S
C1065 N1061 1.279 . S
C1065 C1063 1.358 . S
C1065 H1123 0.930 . S
C1066 C1069 1.348 . S
C1066 C1070 1.356 . S
C1066 O1117 1.325 . S
C1067 N1068 1.279 . S
C1067 C1070 1.358 . S
C1067 H1124 0.930 . S
N1068 C1067 1.279 . S
N1068 C1071 1.314 . S
C1069 C1066 1.348 . S
C1069 C1071 1.353 . S
C1069 H1125 0.929 . S
C1070 C1066 1.356 . S
C1070 C1067 1.358 . S
C1070 H1126 0.930 . S
C1071 N1068 1.314 . S
C1071 C1069 1.353 . S
C1071 H1127 0.930 . S
C1072 N1073 1.314 . S
C1072 C1077 1.353 . S
C1072 H1078 0.930 . S
N1073 Li1056 1.990 . S
N1073 C1072 1.314 . S
N1073 C1075 1.279 . S
C1074 C1075 1.358 . S
C1074 C1076 1.356 . S
C1074 H1128 0.930 . S
C1075 N1073 1.279 . S
C1075 C1074 1.358 . S
C1075 H1079 0.930 . S
C1076 C1074 1.356 . S
C1076 C1077 1.348 . S
C1077 C1072 1.353 . S
C1077 C1076 1.348 . S
C1077 H1129 0.929 . S
H1078 C1072 0.930 . S
H1079 C1075 0.930 . S
C1080 N1081 1.314 . S
C1080 C1082 1.353 . S
C1080 H1086 0.930 . S
N1081 Li1057 1.990 . S
N1081 C1080 1.314 . S
N1081 C1084 1.279 . S
C1082 C1080 1.353 . S
C1082 C1085 1.348 . S
C1082 H1130 0.929 . S
C1083 C1084 1.358 . S
C1083 C1085 1.356 . S
C1083 H1131 0.930 . S
C1084 N1081 1.279 . S
C1084 C1083 1.358 . S
C1084 H1087 0.930 . S
C1085 C1082 1.348 . S
C1085 C1083 1.356 . S
H1086 C1080 0.930 . S
H1087 C1084 0.930 . S
C1088 C1090 1.348 . S
C1088 C1091 1.356 . S
C1088 O1118 1.325 . S
N1089 C1092 1.314 . S
N1089 C1093 1.279 . S
C1090 C1088 1.348 . S
C1090 C1092 1.353 . S
C1090 H1132 0.929 . S
C1091 C1088 1.356 . S
C1091 C1093 1.358 . S
C1091 H1133 0.930 . S
C1092 N1089 1.314 . S
C1092 C1090 1.353 . S
C1092 H1134 0.930 . S
C1093 N1089 1.279 . S
C1093 C1091 1.358 . S
C1093 H1135 0.930 . S
C1094 C1095 1.348 . S
C1094 C1096 1.356 . S
C1094 O1119 1.325 . S
C1095 C1094 1.348 . S
C1095 C1097 1.353 . S
C1095 H1136 0.929 . S
C1096 C1094 1.356 . S
C1096 C1098 1.358 . S
C1096 H1137 0.930 . S
C1097 C1095 1.353 . S
C1097 N1099 1.314 . S
C1097 H1138 0.930 . S
C1098 C1096 1.358 . S
C1098 N1099 1.279 . S
C1098 H1139 0.930 . S
N1099 C1097 1.314 . S
N1099 C1098 1.279 . S
C1100 C1102 1.353 . S
C1100 N1103 1.314 . S
C1100 H1106 0.930 . S
C1101 N1103 1.279 . S
C1101 C1104 1.358 . S
C1101 H1107 0.930 . S
C1102 C1100 1.353 . S
C1102 C1105 1.348 . S
C1102 H1140 0.929 . S
N1103 Li1058 1.990 . S
N1103 C1100 1.314 . S
N1103 C1101 1.279 . S
C1104 C1101 1.358 . S
C1104 C1105 1.356 . S
C1104 H1141 0.930 . S
C1105 C1102 1.348 . S
C1105 C1104 1.356 . S
H1106 C1100 0.930 . S
H1107 C1101 0.930 . S
C1108 N1109 1.314 . S
C1108 C1110 1.353 . S
C1108 H1114 0.930 . S
N1109 Li1059 1.990 . S
N1109 C1108 1.314 . S
N1109 C1112 1.279 . S
C1110 C1108 1.353 . S
C1110 C1113 1.348 . S
C1110 H1142 0.929 . S
C1111 C1112 1.358 . S
C1111 C1113 1.356 . S
C1111 H1143 0.930 . S
C1112 N1109 1.279 . S
C1112 C1111 1.358 . S
C1112 H1115 0.930 . S
C1113 C1110 1.348 . S
C1113 C1111 1.356 . S
H1114 C1108 0.930 . S
H1115 C1112 0.930 . S
O1116 Li1056 1.956 . S
O1116 Li1057 1.970 . S
O1116 Li1058 1.961 . S
O1116 C1060 1.325 . S
O1117 Li1056 1.970 . S
O1117 Li1057 1.956 . S
O1117 Li1059 1.961 . S
O1117 C1066 1.325 . S
O1118 Li1056 1.961 . S
O1118 Li1058 1.956 . S
O1118 Li1059 1.970 . S
O1118 C1088 1.325 . S
O1119 Li1057 1.961 . S
O1119 Li1058 1.970 . S
O1119 Li1059 1.956 . S
O1119 C1094 1.325 . S
H1120 C1062 0.929 . S
H1121 C1063 0.930 . S
H1122 C1064 0.930 . S
H1123 C1065 0.930 . S
H1124 C1067 0.930 . S
H1125 C1069 0.929 . S
H1126 C1070 0.930 . S
H1127 C1071 0.930 . S
H1128 C1074 0.930 . S
H1129 C1077 0.929 . S
H1130 C1082 0.929 . S
H1131 C1083 0.930 . S
H1132 C1090 0.929 . S
H1133 C1091 0.930 . S
H1134 C1092 0.930 . S
H1135 C1093 0.930 . S
H1136 C1095 0.929 . S
H1137 C1096 0.930 . S
H1138 C1097 0.930 . S
H1139 C1098 0.930 . S
H1140 C1102 0.929 . S
H1141 C1104 0.930 . S
H1142 C1110 0.929 . S
H1143 C1111 0.930 . S
Li1144 N1161 1.990 . S
Li1144 O1204 1.956 . S
Li1144 O1205 1.970 . S
Li1144 O1206 1.961 . S
Li1145 N1169 1.990 . S
Li1145 O1204 1.970 . S
Li1145 O1205 1.956 . S
Li1145 O1207 1.961 . S
Li1146 N1191 1.990 . S
Li1146 O1204 1.961 . S
Li1146 O1206 1.956 . S
Li1146 O1207 1.970 . S
Li1147 N1197 1.990 . S
Li1147 O1205 1.961 . S
Li1147 O1206 1.970 . S
Li1147 O1207 1.956 . S
C1148 C1150 1.348 . S
C1148 C1151 1.356 . S
C1148 O1204 1.325 . S
N1149 C1152 1.314 . S
N1149 C1153 1.279 . S
C1150 C1148 1.348 . S
C1150 C1152 1.353 . S
C1150 H1208 0.929 . S
C1151 C1148 1.356 . S
C1151 C1153 1.358 . S
C1151 H1209 0.930 . S
C1152 N1149 1.314 . S
C1152 C1150 1.353 . S
C1152 H1210 0.930 . S
C1153 N1149 1.279 . S
C1153 C1151 1.358 . S
C1153 H1211 0.930 . S
C1154 C1157 1.348 . S
C1154 C1158 1.356 . S
C1154 O1205 1.325 . S
C1155 N1156 1.279 . S
C1155 C1158 1.358 . S
C1155 H1212 0.930 . S
N1156 C1155 1.279 . S
N1156 C1159 1.314 . S
C1157 C1154 1.348 . S
C1157 C1159 1.353 . S
C1157 H1213 0.929 . S
C1158 C1154 1.356 . S
C1158 C1155 1.358 . S
C1158 H1214 0.930 . S
C1159 N1156 1.314 . S
C1159 C1157 1.353 . S
C1159 H1215 0.930 . S
C1160 N1161 1.314 . S
C1160 C1165 1.353 . S
C1160 H1166 0.930 . S
N1161 Li1144 1.990 . S
N1161 C1160 1.314 . S
N1161 C1163 1.279 . S
C1162 C1163 1.358 . S
C1162 C1164 1.356 . S
C1162 H1216 0.930 . S
C1163 N1161 1.279 . S
C1163 C1162 1.358 . S
C1163 H1167 0.930 . S
C1164 C1162 1.356 . S
C1164 C1165 1.348 . S
C1165 C1160 1.353 . S
C1165 C1164 1.348 . S
C1165 H1217 0.929 . S
H1166 C1160 0.930 . S
H1167 C1163 0.930 . S
C1168 N1169 1.314 . S
C1168 C1170 1.353 . S
C1168 H1174 0.930 . S
N1169 Li1145 1.990 . S
N1169 C1168 1.314 . S
N1169 C1172 1.279 . S
C1170 C1168 1.353 . S
C1170 C1173 1.348 . S
C1170 H1218 0.929 . S
C1171 C1172 1.358 . S
C1171 C1173 1.356 . S
C1171 H1219 0.930 . S
C1172 N1169 1.279 . S
C1172 C1171 1.358 . S
C1172 H1175 0.930 . S
C1173 C1170 1.348 . S
C1173 C1171 1.356 . S
H1174 C1168 0.930 . S
H1175 C1172 0.930 . S
C1176 C1178 1.348 . S
C1176 C1179 1.356 . S
C1176 O1206 1.325 . S
N1177 C1180 1.314 . S
N1177 C1181 1.279 . S
C1178 C1176 1.348 . S
C1178 C1180 1.353 . S
C1178 H1220 0.929 . S
C1179 C1176 1.356 . S
C1179 C1181 1.358 . S
C1179 H1221 0.930 . S
C1180 N1177 1.314 . S
C1180 C1178 1.353 . S
C1180 H1222 0.930 . S
C1181 N1177 1.279 . S
C1181 C1179 1.358 . S
C1181 H1223 0.930 . S
C1182 C1183 1.348 . S
C1182 C1184 1.356 . S
C1182 O1207 1.325 . S
C1183 C1182 1.348 . S
C1183 C1185 1.353 . S
C1183 H1224 0.929 . S
C1184 C1182 1.356 . S
C1184 C1186 1.358 . S
C1184 H1225 0.930 . S
C1185 C1183 1.353 . S
C1185 N1187 1.314 . S
C1185 H1226 0.930 . S
C1186 C1184 1.358 . S
C1186 N1187 1.279 . S
C1186 H1227 0.930 . S
N1187 C1185 1.314 . S
N1187 C1186 1.279 . S
C1188 C1190 1.353 . S
C1188 N1191 1.314 . S
C1188 H1194 0.930 . S
C1189 N1191 1.279 . S
C1189 C1192 1.358 . S
C1189 H1195 0.930 . S
C1190 C1188 1.353 . S
C1190 C1193 1.348 . S
C1190 H1228 0.929 . S
N1191 Li1146 1.990 . S
N1191 C1188 1.314 . S
N1191 C1189 1.279 . S
C1192 C1189 1.358 . S
C1192 C1193 1.356 . S
C1192 H1229 0.930 . S
C1193 C1190 1.348 . S
C1193 C1192 1.356 . S
H1194 C1188 0.930 . S
H1195 C1189 0.930 . S
C1196 N1197 1.314 . S
C1196 C1198 1.353 . S
C1196 H1202 0.930 . S
N1197 Li1147 1.990 . S
N1197 C1196 1.314 . S
N1197 C1200 1.279 . S
C1198 C1196 1.353 . S
C1198 C1201 1.348 . S
C1198 H1230 0.929 . S
C1199 C1200 1.358 . S
C1199 C1201 1.356 . S
C1199 H1231 0.930 . S
C1200 N1197 1.279 . S
C1200 C1199 1.358 . S
C1200 H1203 0.930 . S
C1201 C1198 1.348 . S
C1201 C1199 1.356 . S
H1202 C1196 0.930 . S
H1203 C1200 0.930 . S
O1204 Li1144 1.956 . S
O1204 Li1145 1.970 . S
O1204 Li1146 1.961 . S
O1204 C1148 1.325 . S
O1205 Li1144 1.970 . S
O1205 Li1145 1.956 . S
O1205 Li1147 1.961 . S
O1205 C1154 1.325 . S
O1206 Li1144 1.961 . S
O1206 Li1146 1.956 . S
O1206 Li1147 1.970 . S
O1206 C1176 1.325 . S
O1207 Li1145 1.961 . S
O1207 Li1146 1.970 . S
O1207 Li1147 1.956 . S
O1207 C1182 1.325 . S
H1208 C1150 0.929 . S
H1209 C1151 0.930 . S
H1210 C1152 0.930 . S
H1211 C1153 0.930 . S
H1212 C1155 0.930 . S
H1213 C1157 0.929 . S
H1214 C1158 0.930 . S
H1215 C1159 0.930 . S
H1216 C1162 0.930 . S
H1217 C1165 0.929 . S
H1218 C1170 0.929 . S
H1219 C1171 0.930 . S
H1220 C1178 0.929 . S
H1221 C1179 0.930 . S
H1222 C1180 0.930 . S
H1223 C1181 0.930 . S
H1224 C1183 0.929 . S
H1225 C1184 0.930 . S
H1226 C1185 0.930 . S
H1227 C1186 0.930 . S
H1228 C1190 0.929 . S
H1229 C1192 0.930 . S
H1230 C1198 0.929 . S
H1231 C1199 0.930 . S
Li1232 N1249 1.990 . S
Li1232 O1292 1.956 . S
Li1232 O1293 1.970 . S
Li1232 O1294 1.961 . S
Li1233 N1257 1.990 . S
Li1233 O1292 1.970 . S
Li1233 O1293 1.956 . S
Li1233 O1295 1.961 . S
Li1234 N1279 1.990 . S
Li1234 O1292 1.961 . S
Li1234 O1294 1.956 . S
Li1234 O1295 1.970 . S
Li1235 N1285 1.990 . S
Li1235 O1293 1.961 . S
Li1235 O1294 1.970 . S
Li1235 O1295 1.956 . S
C1236 C1238 1.348 . S
C1236 C1239 1.356 . S
C1236 O1292 1.325 . S
N1237 C1240 1.314 . S
N1237 C1241 1.279 . S
C1238 C1236 1.348 . S
C1238 C1240 1.353 . S
C1238 H1296 0.929 . S
C1239 C1236 1.356 . S
C1239 C1241 1.358 . S
C1239 H1297 0.930 . S
C1240 N1237 1.314 . S
C1240 C1238 1.353 . S
C1240 H1298 0.930 . S
C1241 N1237 1.279 . S
C1241 C1239 1.358 . S
C1241 H1299 0.930 . S
C1242 C1245 1.348 . S
C1242 C1246 1.356 . S
C1242 O1293 1.325 . S
C1243 N1244 1.279 . S
C1243 C1246 1.358 . S
C1243 H1300 0.930 . S
N1244 C1243 1.279 . S
N1244 C1247 1.314 . S
C1245 C1242 1.348 . S
C1245 C1247 1.353 . S
C1245 H1301 0.929 . S
C1246 C1242 1.356 . S
C1246 C1243 1.358 . S
C1246 H1302 0.930 . S
C1247 N1244 1.314 . S
C1247 C1245 1.353 . S
C1247 H1303 0.930 . S
C1248 N1249 1.314 . S
C1248 C1253 1.353 . S
C1248 H1254 0.930 . S
N1249 Li1232 1.990 . S
N1249 C1248 1.314 . S
N1249 C1251 1.279 . S
C1250 C1251 1.358 . S
C1250 C1252 1.356 . S
C1250 H1304 0.930 . S
C1251 N1249 1.279 . S
C1251 C1250 1.358 . S
C1251 H1255 0.930 . S
C1252 C1250 1.356 . S
C1252 C1253 1.348 . S
C1253 C1248 1.353 . S
C1253 C1252 1.348 . S
C1253 H1305 0.929 . S
H1254 C1248 0.930 . S
H1255 C1251 0.930 . S
C1256 N1257 1.314 . S
C1256 C1258 1.353 . S
C1256 H1262 0.930 . S
N1257 Li1233 1.990 . S
N1257 C1256 1.314 . S
N1257 C1260 1.279 . S
C1258 C1256 1.353 . S
C1258 C1261 1.348 . S
C1258 H1306 0.929 . S
C1259 C1260 1.358 . S
C1259 C1261 1.356 . S
C1259 H1307 0.930 . S
C1260 N1257 1.279 . S
C1260 C1259 1.358 . S
C1260 H1263 0.930 . S
C1261 C1258 1.348 . S
C1261 C1259 1.356 . S
H1262 C1256 0.930 . S
H1263 C1260 0.930 . S
C1264 C1266 1.348 . S
C1264 C1267 1.356 . S
C1264 O1294 1.325 . S
N1265 C1268 1.314 . S
N1265 C1269 1.279 . S
C1266 C1264 1.348 . S
C1266 C1268 1.353 . S
C1266 H1308 0.929 . S
C1267 C1264 1.356 . S
C1267 C1269 1.358 . S
C1267 H1309 0.930 . S
C1268 N1265 1.314 . S
C1268 C1266 1.353 . S
C1268 H1310 0.930 . S
C1269 N1265 1.279 . S
C1269 C1267 1.358 . S
C1269 H1311 0.930 . S
C1270 C1271 1.348 . S
C1270 C1272 1.356 . S
C1270 O1295 1.325 . S
C1271 C1270 1.348 . S
C1271 C1273 1.353 . S
C1271 H1312 0.929 . S
C1272 C1270 1.356 . S
C1272 C1274 1.358 . S
C1272 H1313 0.930 . S
C1273 C1271 1.353 . S
C1273 N1275 1.314 . S
C1273 H1314 0.930 . S
C1274 C1272 1.358 . S
C1274 N1275 1.279 . S
C1274 H1315 0.930 . S
N1275 C1273 1.314 . S
N1275 C1274 1.279 . S
C1276 C1278 1.353 . S
C1276 N1279 1.314 . S
C1276 H1282 0.930 . S
C1277 N1279 1.279 . S
C1277 C1280 1.358 . S
C1277 H1283 0.930 . S
C1278 C1276 1.353 . S
C1278 C1281 1.348 . S
C1278 H1316 0.929 . S
N1279 Li1234 1.990 . S
N1279 C1276 1.314 . S
N1279 C1277 1.279 . S
C1280 C1277 1.358 . S
C1280 C1281 1.356 . S
C1280 H1317 0.930 . S
C1281 C1278 1.348 . S
C1281 C1280 1.356 . S
H1282 C1276 0.930 . S
H1283 C1277 0.930 . S
C1284 N1285 1.314 . S
C1284 C1286 1.353 . S
C1284 H1290 0.930 . S
N1285 Li1235 1.990 . S
N1285 C1284 1.314 . S
N1285 C1288 1.279 . S
C1286 C1284 1.353 . S
C1286 C1289 1.348 . S
C1286 H1318 0.929 . S
C1287 C1288 1.358 . S
C1287 C1289 1.356 . S
C1287 H1319 0.930 . S
C1288 N1285 1.279 . S
C1288 C1287 1.358 . S
C1288 H1291 0.930 . S
C1289 C1286 1.348 . S
C1289 C1287 1.356 . S
H1290 C1284 0.930 . S
H1291 C1288 0.930 . S
O1292 Li1232 1.956 . S
O1292 Li1233 1.970 . S
O1292 Li1234 1.961 . S
O1292 C1236 1.325 . S
O1293 Li1232 1.970 . S
O1293 Li1233 1.956 . S
O1293 Li1235 1.961 . S
O1293 C1242 1.325 . S
O1294 Li1232 1.961 . S
O1294 Li1234 1.956 . S
O1294 Li1235 1.970 . S
O1294 C1264 1.325 . S
O1295 Li1233 1.961 . S
O1295 Li1234 1.970 . S
O1295 Li1235 1.956 . S
O1295 C1270 1.325 . S
H1296 C1238 0.929 . S
H1297 C1239 0.930 . S
H1298 C1240 0.930 . S
H1299 C1241 0.930 . S
H1300 C1243 0.930 . S
H1301 C1245 0.929 . S
H1302 C1246 0.930 . S
H1303 C1247 0.930 . S
H1304 C1250 0.930 . S
H1305 C1253 0.929 . S
H1306 C1258 0.929 . S
H1307 C1259 0.930 . S
H1308 C1266 0.929 . S
H1309 C1267 0.930 . S
H1310 C1268 0.930 . S
H1311 C1269 0.930 . S
H1312 C1271 0.929 . S
H1313 C1272 0.930 . S
H1314 C1273 0.930 . S
H1315 C1274 0.930 . S
H1316 C1278 0.929 . S
H1317 C1280 0.930 . S
H1318 C1286 0.929 . S
H1319 C1287 0.930 . S
Li1320 N1337 1.990 . S
Li1320 O1380 1.956 . S
Li1320 O1381 1.970 . S
Li1320 O1382 1.961 . S
Li1321 N1345 1.990 . S
Li1321 O1380 1.970 . S
Li1321 O1381 1.956 . S
Li1321 O1383 1.961 . S
Li1322 N1367 1.990 . S
Li1322 O1380 1.961 . S
Li1322 O1382 1.956 . S
Li1322 O1383 1.970 . S
Li1323 N1373 1.990 . S
Li1323 O1381 1.961 . S
Li1323 O1382 1.970 . S
Li1323 O1383 1.956 . S
C1324 C1326 1.348 . S
C1324 C1327 1.356 . S
C1324 O1380 1.325 . S
N1325 C1328 1.314 . S
N1325 C1329 1.279 . S
C1326 C1324 1.348 . S
C1326 C1328 1.353 . S
C1326 H1384 0.929 . S
C1327 C1324 1.356 . S
C1327 C1329 1.358 . S
C1327 H1385 0.930 . S
C1328 N1325 1.314 . S
C1328 C1326 1.353 . S
C1328 H1386 0.930 . S
C1329 N1325 1.279 . S
C1329 C1327 1.358 . S
C1329 H1387 0.930 . S
C1330 C1333 1.348 . S
C1330 C1334 1.356 . S
C1330 O1381 1.325 . S
C1331 N1332 1.279 . S
C1331 C1334 1.358 . S
C1331 H1388 0.930 . S
N1332 C1331 1.279 . S
N1332 C1335 1.314 . S
C1333 C1330 1.348 . S
C1333 C1335 1.353 . S
C1333 H1389 0.929 . S
C1334 C1330 1.356 . S
C1334 C1331 1.358 . S
C1334 H1390 0.930 . S
C1335 N1332 1.314 . S
C1335 C1333 1.353 . S
C1335 H1391 0.930 . S
C1336 N1337 1.314 . S
C1336 C1341 1.353 . S
C1336 H1342 0.930 . S
N1337 Li1320 1.990 . S
N1337 C1336 1.314 . S
N1337 C1339 1.279 . S
C1338 C1339 1.358 . S
C1338 C1340 1.356 . S
C1338 H1392 0.930 . S
C1339 N1337 1.279 . S
C1339 C1338 1.358 . S
C1339 H1343 0.930 . S
C1340 C1338 1.356 . S
C1340 C1341 1.348 . S
C1341 C1336 1.353 . S
C1341 C1340 1.348 . S
C1341 H1393 0.929 . S
H1342 C1336 0.930 . S
H1343 C1339 0.930 . S
C1344 N1345 1.314 . S
C1344 C1346 1.353 . S
C1344 H1350 0.930 . S
N1345 Li1321 1.990 . S
N1345 C1344 1.314 . S
N1345 C1348 1.279 . S
C1346 C1344 1.353 . S
C1346 C1349 1.348 . S
C1346 H1394 0.929 . S
C1347 C1348 1.358 . S
C1347 C1349 1.356 . S
C1347 H1395 0.930 . S
C1348 N1345 1.279 . S
C1348 C1347 1.358 . S
C1348 H1351 0.930 . S
C1349 C1346 1.348 . S
C1349 C1347 1.356 . S
H1350 C1344 0.930 . S
H1351 C1348 0.930 . S
C1352 C1354 1.348 . S
C1352 C1355 1.356 . S
C1352 O1382 1.325 . S
N1353 C1356 1.314 . S
N1353 C1357 1.279 . S
C1354 C1352 1.348 . S
C1354 C1356 1.353 . S
C1354 H1396 0.929 . S
C1355 C1352 1.356 . S
C1355 C1357 1.358 . S
C1355 H1397 0.930 . S
C1356 N1353 1.314 . S
C1356 C1354 1.353 . S
C1356 H1398 0.930 . S
C1357 N1353 1.279 . S
C1357 C1355 1.358 . S
C1357 H1399 0.930 . S
C1358 C1359 1.348 . S
C1358 C1360 1.356 . S
C1358 O1383 1.325 . S
C1359 C1358 1.348 . S
C1359 C1361 1.353 . S
C1359 H1400 0.929 . S
C1360 C1358 1.356 . S
C1360 C1362 1.358 . S
C1360 H1401 0.930 . S
C1361 C1359 1.353 . S
C1361 N1363 1.314 . S
C1361 H1402 0.930 . S
C1362 C1360 1.358 . S
C1362 N1363 1.279 . S
C1362 H1403 0.930 . S
N1363 C1361 1.314 . S
N1363 C1362 1.279 . S
C1364 C1366 1.353 . S
C1364 N1367 1.314 . S
C1364 H1370 0.930 . S
C1365 N1367 1.279 . S
C1365 C1368 1.358 . S
C1365 H1371 0.930 . S
C1366 C1364 1.353 . S
C1366 C1369 1.348 . S
C1366 H1404 0.929 . S
N1367 Li1322 1.990 . S
N1367 C1364 1.314 . S
N1367 C1365 1.279 . S
C1368 C1365 1.358 . S
C1368 C1369 1.356 . S
C1368 H1405 0.930 . S
C1369 C1366 1.348 . S
C1369 C1368 1.356 . S
H1370 C1364 0.930 . S
H1371 C1365 0.930 . S
C1372 N1373 1.314 . S
C1372 C1374 1.353 . S
C1372 H1378 0.930 . S
N1373 Li1323 1.990 . S
N1373 C1372 1.314 . S
N1373 C1376 1.279 . S
C1374 C1372 1.353 . S
C1374 C1377 1.348 . S
C1374 H1406 0.929 . S
C1375 C1376 1.358 . S
C1375 C1377 1.356 . S
C1375 H1407 0.930 . S
C1376 N1373 1.279 . S
C1376 C1375 1.358 . S
C1376 H1379 0.930 . S
C1377 C1374 1.348 . S
C1377 C1375 1.356 . S
H1378 C1372 0.930 . S
H1379 C1376 0.930 . S
O1380 Li1320 1.956 . S
O1380 Li1321 1.970 . S
O1380 Li1322 1.961 . S
O1380 C1324 1.325 . S
O1381 Li1320 1.970 . S
O1381 Li1321 1.956 . S
O1381 Li1323 1.961 . S
O1381 C1330 1.325 . S
O1382 Li1320 1.961 . S
O1382 Li1322 1.956 . S
O1382 Li1323 1.970 . S
O1382 C1352 1.325 . S
O1383 Li1321 1.961 . S
O1383 Li1322 1.970 . S
O1383 Li1323 1.956 . S
O1383 C1358 1.325 . S
H1384 C1326 0.929 . S
H1385 C1327 0.930 . S
H1386 C1328 0.930 . S
H1387 C1329 0.930 . S
H1388 C1331 0.930 . S
H1389 C1333 0.929 . S
H1390 C1334 0.930 . S
H1391 C1335 0.930 . S
H1392 C1338 0.930 . S
H1393 C1341 0.929 . S
H1394 C1346 0.929 . S
H1395 C1347 0.930 . S
H1396 C1354 0.929 . S
H1397 C1355 0.930 . S
H1398 C1356 0.930 . S
H1399 C1357 0.930 . S
H1400 C1359 0.929 . S
H1401 C1360 0.930 . S
H1402 C1361 0.930 . S
H1403 C1362 0.930 . S
H1404 C1366 0.929 . S
H1405 C1368 0.930 . S
H1406 C1374 0.929 . S
H1407 C1375 0.930 . S
Li1408 N1425 1.990 . S
Li1408 O1468 1.956 . S
Li1408 O1469 1.970 . S
Li1408 O1470 1.961 . S
Li1409 N1433 1.990 . S
Li1409 O1468 1.970 . S
Li1409 O1469 1.956 . S
Li1409 O1471 1.961 . S
Li1410 N1455 1.990 . S
Li1410 O1468 1.961 . S
Li1410 O1470 1.956 . S
Li1410 O1471 1.970 . S
Li1411 N1461 1.990 . S
Li1411 O1469 1.961 . S
Li1411 O1470 1.970 . S
Li1411 O1471 1.956 . S
C1412 C1414 1.348 . S
C1412 C1415 1.356 . S
C1412 O1468 1.325 . S
N1413 C1416 1.314 . S
N1413 C1417 1.279 . S
C1414 C1412 1.348 . S
C1414 C1416 1.353 . S
C1414 H1472 0.929 . S
C1415 C1412 1.356 . S
C1415 C1417 1.358 . S
C1415 H1473 0.930 . S
C1416 N1413 1.314 . S
C1416 C1414 1.353 . S
C1416 H1474 0.930 . S
C1417 N1413 1.279 . S
C1417 C1415 1.358 . S
C1417 H1475 0.930 . S
C1418 C1421 1.348 . S
C1418 C1422 1.356 . S
C1418 O1469 1.325 . S
C1419 N1420 1.279 . S
C1419 C1422 1.358 . S
C1419 H1476 0.930 . S
N1420 C1419 1.279 . S
N1420 C1423 1.314 . S
C1421 C1418 1.348 . S
C1421 C1423 1.353 . S
C1421 H1477 0.929 . S
C1422 C1418 1.356 . S
C1422 C1419 1.358 . S
C1422 H1478 0.930 . S
C1423 N1420 1.314 . S
C1423 C1421 1.353 . S
C1423 H1479 0.930 . S
C1424 N1425 1.314 . S
C1424 C1429 1.353 . S
C1424 H1430 0.930 . S
N1425 Li1408 1.990 . S
N1425 C1424 1.314 . S
N1425 C1427 1.279 . S
C1426 C1427 1.358 . S
C1426 C1428 1.356 . S
C1426 H1480 0.930 . S
C1427 N1425 1.279 . S
C1427 C1426 1.358 . S
C1427 H1431 0.930 . S
C1428 C1426 1.356 . S
C1428 C1429 1.348 . S
C1429 C1424 1.353 . S
C1429 C1428 1.348 . S
C1429 H1481 0.929 . S
H1430 C1424 0.930 . S
H1431 C1427 0.930 . S
C1432 N1433 1.314 . S
C1432 C1434 1.353 . S
C1432 H1438 0.930 . S
N1433 Li1409 1.990 . S
N1433 C1432 1.314 . S
N1433 C1436 1.279 . S
C1434 C1432 1.353 . S
C1434 C1437 1.348 . S
C1434 H1482 0.929 . S
C1435 C1436 1.358 . S
C1435 C1437 1.356 . S
C1435 H1483 0.930 . S
C1436 N1433 1.279 . S
C1436 C1435 1.358 . S
C1436 H1439 0.930 . S
C1437 C1434 1.348 . S
C1437 C1435 1.356 . S
H1438 C1432 0.930 . S
H1439 C1436 0.930 . S
C1440 C1442 1.348 . S
C1440 C1443 1.356 . S
C1440 O1470 1.325 . S
N1441 C1444 1.314 . S
N1441 C1445 1.279 . S
C1442 C1440 1.348 . S
C1442 C1444 1.353 . S
C1442 H1484 0.929 . S
C1443 C1440 1.356 . S
C1443 C1445 1.358 . S
C1443 H1485 0.930 . S
C1444 N1441 1.314 . S
C1444 C1442 1.353 . S
C1444 H1486 0.930 . S
C1445 N1441 1.279 . S
C1445 C1443 1.358 . S
C1445 H1487 0.930 . S
C1446 C1447 1.348 . S
C1446 C1448 1.356 . S
C1446 O1471 1.325 . S
C1447 C1446 1.348 . S
C1447 C1449 1.353 . S
C1447 H1488 0.929 . S
C1448 C1446 1.356 . S
C1448 C1450 1.358 . S
C1448 H1489 0.930 . S
C1449 C1447 1.353 . S
C1449 N1451 1.314 . S
C1449 H1490 0.930 . S
C1450 C1448 1.358 . S
C1450 N1451 1.279 . S
C1450 H1491 0.930 . S
N1451 C1449 1.314 . S
N1451 C1450 1.279 . S
C1452 C1454 1.353 . S
C1452 N1455 1.314 . S
C1452 H1458 0.930 . S
C1453 N1455 1.279 . S
C1453 C1456 1.358 . S
C1453 H1459 0.930 . S
C1454 C1452 1.353 . S
C1454 C1457 1.348 . S
C1454 H1492 0.929 . S
N1455 Li1410 1.990 . S
N1455 C1452 1.314 . S
N1455 C1453 1.279 . S
C1456 C1453 1.358 . S
C1456 C1457 1.356 . S
C1456 H1493 0.930 . S
C1457 C1454 1.348 . S
C1457 C1456 1.356 . S
H1458 C1452 0.930 . S
H1459 C1453 0.930 . S
C1460 N1461 1.314 . S
C1460 C1462 1.353 . S
C1460 H1466 0.930 . S
N1461 Li1411 1.990 . S
N1461 C1460 1.314 . S
N1461 C1464 1.279 . S
C1462 C1460 1.353 . S
C1462 C1465 1.348 . S
C1462 H1494 0.929 . S
C1463 C1464 1.358 . S
C1463 C1465 1.356 . S
C1463 H1495 0.930 . S
C1464 N1461 1.279 . S
C1464 C1463 1.358 . S
C1464 H1467 0.930 . S
C1465 C1462 1.348 . S
C1465 C1463 1.356 . S
H1466 C1460 0.930 . S
H1467 C1464 0.930 . S
O1468 Li1408 1.956 . S
O1468 Li1409 1.970 . S
O1468 Li1410 1.961 . S
O1468 C1412 1.325 . S
O1469 Li1408 1.970 . S
O1469 Li1409 1.956 . S
O1469 Li1411 1.961 . S
O1469 C1418 1.325 . S
O1470 Li1408 1.961 . S
O1470 Li1410 1.956 . S
O1470 Li1411 1.970 . S
O1470 C1440 1.325 . S
O1471 Li1409 1.961 . S
O1471 Li1410 1.970 . S
O1471 Li1411 1.956 . S
O1471 C1446 1.325 . S
H1472 C1414 0.929 . S
H1473 C1415 0.930 . S
H1474 C1416 0.930 . S
H1475 C1417 0.930 . S
H1476 C1419 0.930 . S
H1477 C1421 0.929 . S
H1478 C1422 0.930 . S
H1479 C1423 0.930 . S
H1480 C1426 0.930 . S
H1481 C1429 0.929 . S
H1482 C1434 0.929 . S
H1483 C1435 0.930 . S
H1484 C1442 0.929 . S
H1485 C1443 0.930 . S
H1486 C1444 0.930 . S
H1487 C1445 0.930 . S
H1488 C1447 0.929 . S
H1489 C1448 0.930 . S
H1490 C1449 0.930 . S
H1491 C1450 0.930 . S
H1492 C1454 0.929 . S
H1493 C1456 0.930 . S
H1494 C1462 0.929 . S
H1495 C1463 0.930 . S
Li1496 N1513 1.990 . S
Li1496 O1556 1.956 . S
Li1496 O1557 1.970 . S
Li1496 O1558 1.961 . S
Li1497 N1521 1.990 . S
Li1497 O1556 1.970 . S
Li1497 O1557 1.956 . S
Li1497 O1559 1.961 . S
Li1498 N1543 1.990 . S
Li1498 O1556 1.961 . S
Li1498 O1558 1.956 . S
Li1498 O1559 1.970 . S
Li1499 N1549 1.990 . S
Li1499 O1557 1.961 . S
Li1499 O1558 1.970 . S
Li1499 O1559 1.956 . S
C1500 C1502 1.348 . S
C1500 C1503 1.356 . S
C1500 O1556 1.325 . S
N1501 C1504 1.314 . S
N1501 C1505 1.279 . S
C1502 C1500 1.348 . S
C1502 C1504 1.353 . S
C1502 H1560 0.929 . S
C1503 C1500 1.356 . S
C1503 C1505 1.358 . S
C1503 H1561 0.930 . S
C1504 N1501 1.314 . S
C1504 C1502 1.353 . S
C1504 H1562 0.930 . S
C1505 N1501 1.279 . S
C1505 C1503 1.358 . S
C1505 H1563 0.930 . S
C1506 C1509 1.348 . S
C1506 C1510 1.356 . S
C1506 O1557 1.325 . S
C1507 N1508 1.279 . S
C1507 C1510 1.358 . S
C1507 H1564 0.930 . S
N1508 C1507 1.279 . S
N1508 C1511 1.314 . S
C1509 C1506 1.348 . S
C1509 C1511 1.353 . S
C1509 H1565 0.929 . S
C1510 C1506 1.356 . S
C1510 C1507 1.358 . S
C1510 H1566 0.930 . S
C1511 N1508 1.314 . S
C1511 C1509 1.353 . S
C1511 H1567 0.930 . S
C1512 N1513 1.314 . S
C1512 C1517 1.353 . S
C1512 H1518 0.930 . S
N1513 Li1496 1.990 . S
N1513 C1512 1.314 . S
N1513 C1515 1.279 . S
C1514 C1515 1.358 . S
C1514 C1516 1.356 . S
C1514 H1568 0.930 . S
C1515 N1513 1.279 . S
C1515 C1514 1.358 . S
C1515 H1519 0.930 . S
C1516 C1514 1.356 . S
C1516 C1517 1.348 . S
C1517 C1512 1.353 . S
C1517 C1516 1.348 . S
C1517 H1569 0.929 . S
H1518 C1512 0.930 . S
H1519 C1515 0.930 . S
C1520 N1521 1.314 . S
C1520 C1522 1.353 . S
C1520 H1526 0.930 . S
N1521 Li1497 1.990 . S
N1521 C1520 1.314 . S
N1521 C1524 1.279 . S
C1522 C1520 1.353 . S
C1522 C1525 1.348 . S
C1522 H1570 0.929 . S
C1523 C1524 1.358 . S
C1523 C1525 1.356 . S
C1523 H1571 0.930 . S
C1524 N1521 1.279 . S
C1524 C1523 1.358 . S
C1524 H1527 0.930 . S
C1525 C1522 1.348 . S
C1525 C1523 1.356 . S
H1526 C1520 0.930 . S
H1527 C1524 0.930 . S
C1528 C1530 1.348 . S
C1528 C1531 1.356 . S
C1528 O1558 1.325 . S
N1529 C1532 1.314 . S
N1529 C1533 1.279 . S
C1530 C1528 1.348 . S
C1530 C1532 1.353 . S
C1530 H1572 0.929 . S
C1531 C1528 1.356 . S
C1531 C1533 1.358 . S
C1531 H1573 0.930 . S
C1532 N1529 1.314 . S
C1532 C1530 1.353 . S
C1532 H1574 0.930 . S
C1533 N1529 1.279 . S
C1533 C1531 1.358 . S
C1533 H1575 0.930 . S
C1534 C1535 1.348 . S
C1534 C1536 1.356 . S
C1534 O1559 1.325 . S
C1535 C1534 1.348 . S
C1535 C1537 1.353 . S
C1535 H1576 0.929 . S
C1536 C1534 1.356 . S
C1536 C1538 1.358 . S
C1536 H1577 0.930 . S
C1537 C1535 1.353 . S
C1537 N1539 1.314 . S
C1537 H1578 0.930 . S
C1538 C1536 1.358 . S
C1538 N1539 1.279 . S
C1538 H1579 0.930 . S
N1539 C1537 1.314 . S
N1539 C1538 1.279 . S
C1540 C1542 1.353 . S
C1540 N1543 1.314 . S
C1540 H1546 0.930 . S
C1541 N1543 1.279 . S
C1541 C1544 1.358 . S
C1541 H1547 0.930 . S
C1542 C1540 1.353 . S
C1542 C1545 1.348 . S
C1542 H1580 0.929 . S
N1543 Li1498 1.990 . S
N1543 C1540 1.314 . S
N1543 C1541 1.279 . S
C1544 C1541 1.358 . S
C1544 C1545 1.356 . S
C1544 H1581 0.930 . S
C1545 C1542 1.348 . S
C1545 C1544 1.356 . S
H1546 C1540 0.930 . S
H1547 C1541 0.930 . S
C1548 N1549 1.314 . S
C1548 C1550 1.353 . S
C1548 H1554 0.930 . S
N1549 Li1499 1.990 . S
N1549 C1548 1.314 . S
N1549 C1552 1.279 . S
C1550 C1548 1.353 . S
C1550 C1553 1.348 . S
C1550 H1582 0.929 . S
C1551 C1552 1.358 . S
C1551 C1553 1.356 . S
C1551 H1583 0.930 . S
C1552 N1549 1.279 . S
C1552 C1551 1.358 . S
C1552 H1555 0.930 . S
C1553 C1550 1.348 . S
C1553 C1551 1.356 . S
H1554 C1548 0.930 . S
H1555 C1552 0.930 . S
O1556 Li1496 1.956 . S
O1556 Li1497 1.970 . S
O1556 Li1498 1.961 . S
O1556 C1500 1.325 . S
O1557 Li1496 1.970 . S
O1557 Li1497 1.956 . S
O1557 Li1499 1.961 . S
O1557 C1506 1.325 . S
O1558 Li1496 1.961 . S
O1558 Li1498 1.956 . S
O1558 Li1499 1.970 . S
O1558 C1528 1.325 . S
O1559 Li1497 1.961 . S
O1559 Li1498 1.970 . S
O1559 Li1499 1.956 . S
O1559 C1534 1.325 . S
H1560 C1502 0.929 . S
H1561 C1503 0.930 . S
H1562 C1504 0.930 . S
H1563 C1505 0.930 . S
H1564 C1507 0.930 . S
H1565 C1509 0.929 . S
H1566 C1510 0.930 . S
H1567 C1511 0.930 . S
H1568 C1514 0.930 . S
H1569 C1517 0.929 . S
H1570 C1522 0.929 . S
H1571 C1523 0.930 . S
H1572 C1530 0.929 . S
H1573 C1531 0.930 . S
H1574 C1532 0.930 . S
H1575 C1533 0.930 . S
H1576 C1535 0.929 . S
H1577 C1536 0.930 . S
H1578 C1537 0.930 . S
H1579 C1538 0.930 . S
H1580 C1542 0.929 . S
H1581 C1544 0.930 . S
H1582 C1550 0.929 . S
H1583 C1551 0.930 . S
Li1584 N1601 1.990 . S
Li1584 O1644 1.956 . S
Li1584 O1645 1.970 . S
Li1584 O1646 1.961 . S
Li1585 N1609 1.990 . S
Li1585 O1644 1.970 . S
Li1585 O1645 1.956 . S
Li1585 O1647 1.961 . S
Li1586 N1631 1.990 . S
Li1586 O1644 1.961 . S
Li1586 O1646 1.956 . S
Li1586 O1647 1.970 . S
Li1587 N1637 1.990 . S
Li1587 O1645 1.961 . S
Li1587 O1646 1.970 . S
Li1587 O1647 1.956 . S
C1588 C1590 1.348 . S
C1588 C1591 1.356 . S
C1588 O1644 1.325 . S
N1589 C1592 1.314 . S
N1589 C1593 1.279 . S
C1590 C1588 1.348 . S
C1590 C1592 1.353 . S
C1590 H1648 0.929 . S
C1591 C1588 1.356 . S
C1591 C1593 1.358 . S
C1591 H1649 0.930 . S
C1592 N1589 1.314 . S
C1592 C1590 1.353 . S
C1592 H1650 0.930 . S
C1593 N1589 1.279 . S
C1593 C1591 1.358 . S
C1593 H1651 0.930 . S
C1594 C1597 1.348 . S
C1594 C1598 1.356 . S
C1594 O1645 1.325 . S
C1595 N1596 1.279 . S
C1595 C1598 1.358 . S
C1595 H1652 0.930 . S
N1596 C1595 1.279 . S
N1596 C1599 1.314 . S
C1597 C1594 1.348 . S
C1597 C1599 1.353 . S
C1597 H1653 0.929 . S
C1598 C1594 1.356 . S
C1598 C1595 1.358 . S
C1598 H1654 0.930 . S
C1599 N1596 1.314 . S
C1599 C1597 1.353 . S
C1599 H1655 0.930 . S
C1600 N1601 1.314 . S
C1600 C1605 1.353 . S
C1600 H1606 0.930 . S
N1601 Li1584 1.990 . S
N1601 C1600 1.314 . S
N1601 C1603 1.279 . S
C1602 C1603 1.358 . S
C1602 C1604 1.356 . S
C1602 H1656 0.930 . S
C1603 N1601 1.279 . S
C1603 C1602 1.358 . S
C1603 H1607 0.930 . S
C1604 C1602 1.356 . S
C1604 C1605 1.348 . S
C1605 C1600 1.353 . S
C1605 C1604 1.348 . S
C1605 H1657 0.929 . S
H1606 C1600 0.930 . S
H1607 C1603 0.930 . S
C1608 N1609 1.314 . S
C1608 C1610 1.353 . S
C1608 H1614 0.930 . S
N1609 Li1585 1.990 . S
N1609 C1608 1.314 . S
N1609 C1612 1.279 . S
C1610 C1608 1.353 . S
C1610 C1613 1.348 . S
C1610 H1658 0.929 . S
C1611 C1612 1.358 . S
C1611 C1613 1.356 . S
C1611 H1659 0.930 . S
C1612 N1609 1.279 . S
C1612 C1611 1.358 . S
C1612 H1615 0.930 . S
C1613 C1610 1.348 . S
C1613 C1611 1.356 . S
H1614 C1608 0.930 . S
H1615 C1612 0.930 . S
C1616 C1618 1.348 . S
C1616 C1619 1.356 . S
C1616 O1646 1.325 . S
N1617 C1620 1.314 . S
N1617 C1621 1.279 . S
C1618 C1616 1.348 . S
C1618 C1620 1.353 . S
C1618 H1660 0.929 . S
C1619 C1616 1.356 . S
C1619 C1621 1.358 . S
C1619 H1661 0.930 . S
C1620 N1617 1.314 . S
C1620 C1618 1.353 . S
C1620 H1662 0.930 . S
C1621 N1617 1.279 . S
C1621 C1619 1.358 . S
C1621 H1663 0.930 . S
C1622 C1623 1.348 . S
C1622 C1624 1.356 . S
C1622 O1647 1.325 . S
C1623 C1622 1.348 . S
C1623 C1625 1.353 . S
C1623 H1664 0.929 . S
C1624 C1622 1.356 . S
C1624 C1626 1.358 . S
C1624 H1665 0.930 . S
C1625 C1623 1.353 . S
C1625 N1627 1.314 . S
C1625 H1666 0.930 . S
C1626 C1624 1.358 . S
C1626 N1627 1.279 . S
C1626 H1667 0.930 . S
N1627 C1625 1.314 . S
N1627 C1626 1.279 . S
C1628 C1630 1.353 . S
C1628 N1631 1.314 . S
C1628 H1634 0.930 . S
C1629 N1631 1.279 . S
C1629 C1632 1.358 . S
C1629 H1635 0.930 . S
C1630 C1628 1.353 . S
C1630 C1633 1.348 . S
C1630 H1668 0.929 . S
N1631 Li1586 1.990 . S
N1631 C1628 1.314 . S
N1631 C1629 1.279 . S
C1632 C1629 1.358 . S
C1632 C1633 1.356 . S
C1632 H1669 0.930 . S
C1633 C1630 1.348 . S
C1633 C1632 1.356 . S
H1634 C1628 0.930 . S
H1635 C1629 0.930 . S
C1636 N1637 1.314 . S
C1636 C1638 1.353 . S
C1636 H1642 0.930 . S
N1637 Li1587 1.990 . S
N1637 C1636 1.314 . S
N1637 C1640 1.279 . S
C1638 C1636 1.353 . S
C1638 C1641 1.348 . S
C1638 H1670 0.929 . S
C1639 C1640 1.358 . S
C1639 C1641 1.356 . S
C1639 H1671 0.930 . S
C1640 N1637 1.279 . S
C1640 C1639 1.358 . S
C1640 H1643 0.930 . S
C1641 C1638 1.348 . S
C1641 C1639 1.356 . S
H1642 C1636 0.930 . S
H1643 C1640 0.930 . S
O1644 Li1584 1.956 . S
O1644 Li1585 1.970 . S
O1644 Li1586 1.961 . S
O1644 C1588 1.325 . S
O1645 Li1584 1.970 . S
O1645 Li1585 1.956 . S
O1645 Li1587 1.961 . S
O1645 C1594 1.325 . S
O1646 Li1584 1.961 . S
O1646 Li1586 1.956 . S
O1646 Li1587 1.970 . S
O1646 C1616 1.325 . S
O1647 Li1585 1.961 . S
O1647 Li1586 1.970 . S
O1647 Li1587 1.956 . S
O1647 C1622 1.325 . S
H1648 C1590 0.929 . S
H1649 C1591 0.930 . S
H1650 C1592 0.930 . S
H1651 C1593 0.930 . S
H1652 C1595 0.930 . S
H1653 C1597 0.929 . S
H1654 C1598 0.930 . S
H1655 C1599 0.930 . S
H1656 C1602 0.930 . S
H1657 C1605 0.929 . S
H1658 C1610 0.929 . S
H1659 C1611 0.930 . S
H1660 C1618 0.929 . S
H1661 C1619 0.930 . S
H1662 C1620 0.930 . S
H1663 C1621 0.930 . S
H1664 C1623 0.929 . S
H1665 C1624 0.930 . S
H1666 C1625 0.930 . S
H1667 C1626 0.930 . S
H1668 C1630 0.929 . S
H1669 C1632 0.930 . S
H1670 C1638 0.929 . S
H1671 C1639 0.930 . S
Li1672 N1689 1.990 . S
Li1672 O1732 1.956 . S
Li1672 O1733 1.970 . S
Li1672 O1734 1.961 . S
Li1673 N1697 1.990 . S
Li1673 O1732 1.970 . S
Li1673 O1733 1.956 . S
Li1673 O1735 1.961 . S
Li1674 N1719 1.990 . S
Li1674 O1732 1.961 . S
Li1674 O1734 1.956 . S
Li1674 O1735 1.970 . S
Li1675 N1725 1.990 . S
Li1675 O1733 1.961 . S
Li1675 O1734 1.970 . S
Li1675 O1735 1.956 . S
C1676 C1678 1.348 . S
C1676 C1679 1.356 . S
C1676 O1732 1.325 . S
N1677 C1680 1.314 . S
N1677 C1681 1.279 . S
C1678 C1676 1.348 . S
C1678 C1680 1.353 . S
C1678 H1736 0.929 . S
C1679 C1676 1.356 . S
C1679 C1681 1.358 . S
C1679 H1737 0.930 . S
C1680 N1677 1.314 . S
C1680 C1678 1.353 . S
C1680 H1738 0.930 . S
C1681 N1677 1.279 . S
C1681 C1679 1.358 . S
C1681 H1739 0.930 . S
C1682 C1685 1.348 . S
C1682 C1686 1.356 . S
C1682 O1733 1.325 . S
C1683 N1684 1.279 . S
C1683 C1686 1.358 . S
C1683 H1740 0.930 . S
N1684 C1683 1.279 . S
N1684 C1687 1.314 . S
C1685 C1682 1.348 . S
C1685 C1687 1.353 . S
C1685 H1741 0.929 . S
C1686 C1682 1.356 . S
C1686 C1683 1.358 . S
C1686 H1742 0.930 . S
C1687 N1684 1.314 . S
C1687 C1685 1.353 . S
C1687 H1743 0.930 . S
C1688 N1689 1.314 . S
C1688 C1693 1.353 . S
C1688 H1694 0.930 . S
N1689 Li1672 1.990 . S
N1689 C1688 1.314 . S
N1689 C1691 1.279 . S
C1690 C1691 1.358 . S
C1690 C1692 1.356 . S
C1690 H1744 0.930 . S
C1691 N1689 1.279 . S
C1691 C1690 1.358 . S
C1691 H1695 0.930 . S
C1692 C1690 1.356 . S
C1692 C1693 1.348 . S
C1693 C1688 1.353 . S
C1693 C1692 1.348 . S
C1693 H1745 0.929 . S
H1694 C1688 0.930 . S
H1695 C1691 0.930 . S
C1696 N1697 1.314 . S
C1696 C1698 1.353 . S
C1696 H1702 0.930 . S
N1697 Li1673 1.990 . S
N1697 C1696 1.314 . S
N1697 C1700 1.279 . S
C1698 C1696 1.353 . S
C1698 C1701 1.348 . S
C1698 H1746 0.929 . S
C1699 C1700 1.358 . S
C1699 C1701 1.356 . S
C1699 H1747 0.930 . S
C1700 N1697 1.279 . S
C1700 C1699 1.358 . S
C1700 H1703 0.930 . S
C1701 C1698 1.348 . S
C1701 C1699 1.356 . S
H1702 C1696 0.930 . S
H1703 C1700 0.930 . S
C1704 C1706 1.348 . S
C1704 C1707 1.356 . S
C1704 O1734 1.325 . S
N1705 C1708 1.314 . S
N1705 C1709 1.279 . S
C1706 C1704 1.348 . S
C1706 C1708 1.353 . S
C1706 H1748 0.929 . S
C1707 C1704 1.356 . S
C1707 C1709 1.358 . S
C1707 H1749 0.930 . S
C1708 N1705 1.314 . S
C1708 C1706 1.353 . S
C1708 H1750 0.930 . S
C1709 N1705 1.279 . S
C1709 C1707 1.358 . S
C1709 H1751 0.930 . S
C1710 C1711 1.348 . S
C1710 C1712 1.356 . S
C1710 O1735 1.325 . S
C1711 C1710 1.348 . S
C1711 C1713 1.353 . S
C1711 H1752 0.929 . S
C1712 C1710 1.356 . S
C1712 C1714 1.358 . S
C1712 H1753 0.930 . S
C1713 C1711 1.353 . S
C1713 N1715 1.314 . S
C1713 H1754 0.930 . S
C1714 C1712 1.358 . S
C1714 N1715 1.279 . S
C1714 H1755 0.930 . S
N1715 C1713 1.314 . S
N1715 C1714 1.279 . S
C1716 C1718 1.353 . S
C1716 N1719 1.314 . S
C1716 H1722 0.930 . S
C1717 N1719 1.279 . S
C1717 C1720 1.358 . S
C1717 H1723 0.930 . S
C1718 C1716 1.353 . S
C1718 C1721 1.348 . S
C1718 H1756 0.929 . S
N1719 Li1674 1.990 . S
N1719 C1716 1.314 . S
N1719 C1717 1.279 . S
C1720 C1717 1.358 . S
C1720 C1721 1.356 . S
C1720 H1757 0.930 . S
C1721 C1718 1.348 . S
C1721 C1720 1.356 . S
H1722 C1716 0.930 . S
H1723 C1717 0.930 . S
C1724 N1725 1.314 . S
C1724 C1726 1.353 . S
C1724 H1730 0.930 . S
N1725 Li1675 1.990 . S
N1725 C1724 1.314 . S
N1725 C1728 1.279 . S
C1726 C1724 1.353 . S
C1726 C1729 1.348 . S
C1726 H1758 0.929 . S
C1727 C1728 1.358 . S
C1727 C1729 1.356 . S
C1727 H1759 0.930 . S
C1728 N1725 1.279 . S
C1728 C1727 1.358 . S
C1728 H1731 0.930 . S
C1729 C1726 1.348 . S
C1729 C1727 1.356 . S
H1730 C1724 0.930 . S
H1731 C1728 0.930 . S
O1732 Li1672 1.956 . S
O1732 Li1673 1.970 . S
O1732 Li1674 1.961 . S
O1732 C1676 1.325 . S
O1733 Li1672 1.970 . S
O1733 Li1673 1.956 . S
O1733 Li1675 1.961 . S
O1733 C1682 1.325 . S
O1734 Li1672 1.961 . S
O1734 Li1674 1.956 . S
O1734 Li1675 1.970 . S
O1734 C1704 1.325 . S
O1735 Li1673 1.961 . S
O1735 Li1674 1.970 . S
O1735 Li1675 1.956 . S
O1735 C1710 1.325 . S
H1736 C1678 0.929 . S
H1737 C1679 0.930 . S
H1738 C1680 0.930 . S
H1739 C1681 0.930 . S
H1740 C1683 0.930 . S
H1741 C1685 0.929 . S
H1742 C1686 0.930 . S
H1743 C1687 0.930 . S
H1744 C1690 0.930 . S
H1745 C1693 0.929 . S
H1746 C1698 0.929 . S
H1747 C1699 0.930 . S
H1748 C1706 0.929 . S
H1749 C1707 0.930 . S
H1750 C1708 0.930 . S
H1751 C1709 0.930 . S
H1752 C1711 0.929 . S
H1753 C1712 0.930 . S
H1754 C1713 0.930 . S
H1755 C1714 0.930 . S
H1756 C1718 0.929 . S
H1757 C1720 0.930 . S
H1758 C1726 0.929 . S
H1759 C1727 0.930 . S
Li1760 N1777 1.990 . S
Li1760 O1820 1.956 . S
Li1760 O1821 1.970 . S
Li1760 O1822 1.961 . S
Li1761 N1785 1.990 . S
Li1761 O1820 1.970 . S
Li1761 O1821 1.956 . S
Li1761 O1823 1.961 . S
Li1762 N1807 1.990 . S
Li1762 O1820 1.961 . S
Li1762 O1822 1.956 . S
Li1762 O1823 1.970 . S
Li1763 N1813 1.990 . S
Li1763 O1821 1.961 . S
Li1763 O1822 1.970 . S
Li1763 O1823 1.956 . S
C1764 C1766 1.348 . S
C1764 C1767 1.356 . S
C1764 O1820 1.325 . S
N1765 C1768 1.314 . S
N1765 C1769 1.279 . S
C1766 C1764 1.348 . S
C1766 C1768 1.353 . S
C1766 H1824 0.929 . S
C1767 C1764 1.356 . S
C1767 C1769 1.358 . S
C1767 H1825 0.930 . S
C1768 N1765 1.314 . S
C1768 C1766 1.353 . S
C1768 H1826 0.930 . S
C1769 N1765 1.279 . S
C1769 C1767 1.358 . S
C1769 H1827 0.930 . S
C1770 C1773 1.348 . S
C1770 C1774 1.356 . S
C1770 O1821 1.325 . S
C1771 N1772 1.279 . S
C1771 C1774 1.358 . S
C1771 H1828 0.930 . S
N1772 C1771 1.279 . S
N1772 C1775 1.314 . S
C1773 C1770 1.348 . S
C1773 C1775 1.353 . S
C1773 H1829 0.929 . S
C1774 C1770 1.356 . S
C1774 C1771 1.358 . S
C1774 H1830 0.930 . S
C1775 N1772 1.314 . S
C1775 C1773 1.353 . S
C1775 H1831 0.930 . S
C1776 N1777 1.314 . S
C1776 C1781 1.353 . S
C1776 H1782 0.930 . S
N1777 Li1760 1.990 . S
N1777 C1776 1.314 . S
N1777 C1779 1.279 . S
C1778 C1779 1.358 . S
C1778 C1780 1.356 . S
C1778 H1832 0.930 . S
C1779 N1777 1.279 . S
C1779 C1778 1.358 . S
C1779 H1783 0.930 . S
C1780 C1778 1.356 . S
C1780 C1781 1.348 . S
C1781 C1776 1.353 . S
C1781 C1780 1.348 . S
C1781 H1833 0.929 . S
H1782 C1776 0.930 . S
H1783 C1779 0.930 . S
C1784 N1785 1.314 . S
C1784 C1786 1.353 . S
C1784 H1790 0.930 . S
N1785 Li1761 1.990 . S
N1785 C1784 1.314 . S
N1785 C1788 1.279 . S
C1786 C1784 1.353 . S
C1786 C1789 1.348 . S
C1786 H1834 0.929 . S
C1787 C1788 1.358 . S
C1787 C1789 1.356 . S
C1787 H1835 0.930 . S
C1788 N1785 1.279 . S
C1788 C1787 1.358 . S
C1788 H1791 0.930 . S
C1789 C1786 1.348 . S
C1789 C1787 1.356 . S
H1790 C1784 0.930 . S
H1791 C1788 0.930 . S
C1792 C1794 1.348 . S
C1792 C1795 1.356 . S
C1792 O1822 1.325 . S
N1793 C1796 1.314 . S
N1793 C1797 1.279 . S
C1794 C1792 1.348 . S
C1794 C1796 1.353 . S
C1794 H1836 0.929 . S
C1795 C1792 1.356 . S
C1795 C1797 1.358 . S
C1795 H1837 0.930 . S
C1796 N1793 1.314 . S
C1796 C1794 1.353 . S
C1796 H1838 0.930 . S
C1797 N1793 1.279 . S
C1797 C1795 1.358 . S
C1797 H1839 0.930 . S
C1798 C1799 1.348 . S
C1798 C1800 1.356 . S
C1798 O1823 1.325 . S
C1799 C1798 1.348 . S
C1799 C1801 1.353 . S
C1799 H1840 0.929 . S
C1800 C1798 1.356 . S
C1800 C1802 1.358 . S
C1800 H1841 0.930 . S
C1801 C1799 1.353 . S
C1801 N1803 1.314 . S
C1801 H1842 0.930 . S
C1802 C1800 1.358 . S
C1802 N1803 1.279 . S
C1802 H1843 0.930 . S
N1803 C1801 1.314 . S
N1803 C1802 1.279 . S
C1804 C1806 1.353 . S
C1804 N1807 1.314 . S
C1804 H1810 0.930 . S
C1805 N1807 1.279 . S
C1805 C1808 1.358 . S
C1805 H1811 0.930 . S
C1806 C1804 1.353 . S
C1806 C1809 1.348 . S
C1806 H1844 0.929 . S
N1807 Li1762 1.990 . S
N1807 C1804 1.314 . S
N1807 C1805 1.279 . S
C1808 C1805 1.358 . S
C1808 C1809 1.356 . S
C1808 H1845 0.930 . S
C1809 C1806 1.348 . S
C1809 C1808 1.356 . S
H1810 C1804 0.930 . S
H1811 C1805 0.930 . S
C1812 N1813 1.314 . S
C1812 C1814 1.353 . S
C1812 H1818 0.930 . S
N1813 Li1763 1.990 . S
N1813 C1812 1.314 . S
N1813 C1816 1.279 . S
C1814 C1812 1.353 . S
C1814 C1817 1.348 . S
C1814 H1846 0.929 . S
C1815 C1816 1.358 . S
C1815 C1817 1.356 . S
C1815 H1847 0.930 . S
C1816 N1813 1.279 . S
C1816 C1815 1.358 . S
C1816 H1819 0.930 . S
C1817 C1814 1.348 . S
C1817 C1815 1.356 . S
H1818 C1812 0.930 . S
H1819 C1816 0.930 . S
O1820 Li1760 1.956 . S
O1820 Li1761 1.970 . S
O1820 Li1762 1.961 . S
O1820 C1764 1.325 . S
O1821 Li1760 1.970 . S
O1821 Li1761 1.956 . S
O1821 Li1763 1.961 . S
O1821 C1770 1.325 . S
O1822 Li1760 1.961 . S
O1822 Li1762 1.956 . S
O1822 Li1763 1.970 . S
O1822 C1792 1.325 . S
O1823 Li1761 1.961 . S
O1823 Li1762 1.970 . S
O1823 Li1763 1.956 . S
O1823 C1798 1.325 . S
H1824 C1766 0.929 . S
H1825 C1767 0.930 . S
H1826 C1768 0.930 . S
H1827 C1769 0.930 . S
H1828 C1771 0.930 . S
H1829 C1773 0.929 . S
H1830 C1774 0.930 . S
H1831 C1775 0.930 . S
H1832 C1778 0.930 . S
H1833 C1781 0.929 . S
H1834 C1786 0.929 . S
H1835 C1787 0.930 . S
H1836 C1794 0.929 . S
H1837 C1795 0.930 . S
H1838 C1796 0.930 . S
H1839 C1797 0.930 . S
H1840 C1799 0.929 . S
H1841 C1800 0.930 . S
H1842 C1801 0.930 . S
H1843 C1802 0.930 . S
H1844 C1806 0.929 . S
H1845 C1808 0.930 . S
H1846 C1814 0.929 . S
H1847 C1815 0.930 . S
Li1848 N1865 1.990 . S
Li1848 O1908 1.956 . S
Li1848 O1909 1.970 . S
Li1848 O1910 1.961 . S
Li1849 N1873 1.990 . S
Li1849 O1908 1.970 . S
Li1849 O1909 1.956 . S
Li1849 O1911 1.961 . S
Li1850 N1895 1.990 . S
Li1850 O1908 1.961 . S
Li1850 O1910 1.956 . S
Li1850 O1911 1.970 . S
Li1851 N1901 1.990 . S
Li1851 O1909 1.961 . S
Li1851 O1910 1.970 . S
Li1851 O1911 1.956 . S
C1852 C1854 1.348 . S
C1852 C1855 1.356 . S
C1852 O1908 1.325 . S
N1853 C1856 1.314 . S
N1853 C1857 1.279 . S
C1854 C1852 1.348 . S
C1854 C1856 1.353 . S
C1854 H1912 0.929 . S
C1855 C1852 1.356 . S
C1855 C1857 1.358 . S
C1855 H1913 0.930 . S
C1856 N1853 1.314 . S
C1856 C1854 1.353 . S
C1856 H1914 0.930 . S
C1857 N1853 1.279 . S
C1857 C1855 1.358 . S
C1857 H1915 0.930 . S
C1858 C1861 1.348 . S
C1858 C1862 1.356 . S
C1858 O1909 1.325 . S
C1859 N1860 1.279 . S
C1859 C1862 1.358 . S
C1859 H1916 0.930 . S
N1860 C1859 1.279 . S
N1860 C1863 1.314 . S
C1861 C1858 1.348 . S
C1861 C1863 1.353 . S
C1861 H1917 0.929 . S
C1862 C1858 1.356 . S
C1862 C1859 1.358 . S
C1862 H1918 0.930 . S
C1863 N1860 1.314 . S
C1863 C1861 1.353 . S
C1863 H1919 0.930 . S
C1864 N1865 1.314 . S
C1864 C1869 1.353 . S
C1864 H1870 0.930 . S
N1865 Li1848 1.990 . S
N1865 C1864 1.314 . S
N1865 C1867 1.279 . S
C1866 C1867 1.358 . S
C1866 C1868 1.356 . S
C1866 H1920 0.930 . S
C1867 N1865 1.279 . S
C1867 C1866 1.358 . S
C1867 H1871 0.930 . S
C1868 C1866 1.356 . S
C1868 C1869 1.348 . S
C1869 C1864 1.353 . S
C1869 C1868 1.348 . S
C1869 H1921 0.929 . S
H1870 C1864 0.930 . S
H1871 C1867 0.930 . S
C1872 N1873 1.314 . S
C1872 C1874 1.353 . S
C1872 H1878 0.930 . S
N1873 Li1849 1.990 . S
N1873 C1872 1.314 . S
N1873 C1876 1.279 . S
C1874 C1872 1.353 . S
C1874 C1877 1.348 . S
C1874 H1922 0.929 . S
C1875 C1876 1.358 . S
C1875 C1877 1.356 . S
C1875 H1923 0.930 . S
C1876 N1873 1.279 . S
C1876 C1875 1.358 . S
C1876 H1879 0.930 . S
C1877 C1874 1.348 . S
C1877 C1875 1.356 . S
H1878 C1872 0.930 . S
H1879 C1876 0.930 . S
C1880 C1882 1.348 . S
C1880 C1883 1.356 . S
C1880 O1910 1.325 . S
N1881 C1884 1.314 . S
N1881 C1885 1.279 . S
C1882 C1880 1.348 . S
C1882 C1884 1.353 . S
C1882 H1924 0.929 . S
C1883 C1880 1.356 . S
C1883 C1885 1.358 . S
C1883 H1925 0.930 . S
C1884 N1881 1.314 . S
C1884 C1882 1.353 . S
C1884 H1926 0.930 . S
C1885 N1881 1.279 . S
C1885 C1883 1.358 . S
C1885 H1927 0.930 . S
C1886 C1887 1.348 . S
C1886 C1888 1.356 . S
C1886 O1911 1.325 . S
C1887 C1886 1.348 . S
C1887 C1889 1.353 . S
C1887 H1928 0.929 . S
C1888 C1886 1.356 . S
C1888 C1890 1.358 . S
C1888 H1929 0.930 . S
C1889 C1887 1.353 . S
C1889 N1891 1.314 . S
C1889 H1930 0.930 . S
C1890 C1888 1.358 . S
C1890 N1891 1.279 . S
C1890 H1931 0.930 . S
N1891 C1889 1.314 . S
N1891 C1890 1.279 . S
C1892 C1894 1.353 . S
C1892 N1895 1.314 . S
C1892 H1898 0.930 . S
C1893 N1895 1.279 . S
C1893 C1896 1.358 . S
C1893 H1899 0.930 . S
C1894 C1892 1.353 . S
C1894 C1897 1.348 . S
C1894 H1932 0.929 . S
N1895 Li1850 1.990 . S
N1895 C1892 1.314 . S
N1895 C1893 1.279 . S
C1896 C1893 1.358 . S
C1896 C1897 1.356 . S
C1896 H1933 0.930 . S
C1897 C1894 1.348 . S
C1897 C1896 1.356 . S
H1898 C1892 0.930 . S
H1899 C1893 0.930 . S
C1900 N1901 1.314 . S
C1900 C1902 1.353 . S
C1900 H1906 0.930 . S
N1901 Li1851 1.990 . S
N1901 C1900 1.314 . S
N1901 C1904 1.279 . S
C1902 C1900 1.353 . S
C1902 C1905 1.348 . S
C1902 H1934 0.929 . S
C1903 C1904 1.358 . S
C1903 C1905 1.356 . S
C1903 H1935 0.930 . S
C1904 N1901 1.279 . S
C1904 C1903 1.358 . S
C1904 H1907 0.930 . S
C1905 C1902 1.348 . S
C1905 C1903 1.356 . S
H1906 C1900 0.930 . S
H1907 C1904 0.930 . S
O1908 Li1848 1.956 . S
O1908 Li1849 1.970 . S
O1908 Li1850 1.961 . S
O1908 C1852 1.325 . S
O1909 Li1848 1.970 . S
O1909 Li1849 1.956 . S
O1909 Li1851 1.961 . S
O1909 C1858 1.325 . S
O1910 Li1848 1.961 . S
O1910 Li1850 1.956 . S
O1910 Li1851 1.970 . S
O1910 C1880 1.325 . S
O1911 Li1849 1.961 . S
O1911 Li1850 1.970 . S
O1911 Li1851 1.956 . S
O1911 C1886 1.325 . S
H1912 C1854 0.929 . S
H1913 C1855 0.930 . S
H1914 C1856 0.930 . S
H1915 C1857 0.930 . S
H1916 C1859 0.930 . S
H1917 C1861 0.929 . S
H1918 C1862 0.930 . S
H1919 C1863 0.930 . S
H1920 C1866 0.930 . S
H1921 C1869 0.929 . S
H1922 C1874 0.929 . S
H1923 C1875 0.930 . S
H1924 C1882 0.929 . S
H1925 C1883 0.930 . S
H1926 C1884 0.930 . S
H1927 C1885 0.930 . S
H1928 C1887 0.929 . S
H1929 C1888 0.930 . S
H1930 C1889 0.930 . S
H1931 C1890 0.930 . S
H1932 C1894 0.929 . S
H1933 C1896 0.930 . S
H1934 C1902 0.929 . S
H1935 C1903 0.930 . S
Li1936 N1953 1.990 . S
Li1936 O1996 1.956 . S
Li1936 O1997 1.970 . S
Li1936 O1998 1.961 . S
Li1937 N1961 1.990 . S
Li1937 O1996 1.970 . S
Li1937 O1997 1.956 . S
Li1937 O1999 1.961 . S
Li1938 N1983 1.990 . S
Li1938 O1996 1.961 . S
Li1938 O1998 1.956 . S
Li1938 O1999 1.970 . S
Li1939 N1989 1.990 . S
Li1939 O1997 1.961 . S
Li1939 O1998 1.970 . S
Li1939 O1999 1.956 . S
C1940 C1942 1.348 . S
C1940 C1943 1.356 . S
C1940 O1996 1.325 . S
N1941 C1944 1.314 . S
N1941 C1945 1.279 . S
C1942 C1940 1.348 . S
C1942 C1944 1.353 . S
C1942 H2000 0.929 . S
C1943 C1940 1.356 . S
C1943 C1945 1.358 . S
C1943 H2001 0.930 . S
C1944 N1941 1.314 . S
C1944 C1942 1.353 . S
C1944 H2002 0.930 . S
C1945 N1941 1.279 . S
C1945 C1943 1.358 . S
C1945 H2003 0.930 . S
C1946 C1949 1.348 . S
C1946 C1950 1.356 . S
C1946 O1997 1.325 . S
C1947 N1948 1.279 . S
C1947 C1950 1.358 . S
C1947 H2004 0.930 . S
N1948 C1947 1.279 . S
N1948 C1951 1.314 . S
C1949 C1946 1.348 . S
C1949 C1951 1.353 . S
C1949 H2005 0.929 . S
C1950 C1946 1.356 . S
C1950 C1947 1.358 . S
C1950 H2006 0.930 . S
C1951 N1948 1.314 . S
C1951 C1949 1.353 . S
C1951 H2007 0.930 . S
C1952 N1953 1.314 . S
C1952 C1957 1.353 . S
C1952 H1958 0.930 . S
N1953 Li1936 1.990 . S
N1953 C1952 1.314 . S
N1953 C1955 1.279 . S
C1954 C1955 1.358 . S
C1954 C1956 1.356 . S
C1954 H2008 0.930 . S
C1955 N1953 1.279 . S
C1955 C1954 1.358 . S
C1955 H1959 0.930 . S
C1956 C1954 1.356 . S
C1956 C1957 1.348 . S
C1957 C1952 1.353 . S
C1957 C1956 1.348 . S
C1957 H2009 0.929 . S
H1958 C1952 0.930 . S
H1959 C1955 0.930 . S
C1960 N1961 1.314 . S
C1960 C1962 1.353 . S
C1960 H1966 0.930 . S
N1961 Li1937 1.990 . S
N1961 C1960 1.314 . S
N1961 C1964 1.279 . S
C1962 C1960 1.353 . S
C1962 C1965 1.348 . S
C1962 H2010 0.929 . S
C1963 C1964 1.358 . S
C1963 C1965 1.356 . S
C1963 H2011 0.930 . S
C1964 N1961 1.279 . S
C1964 C1963 1.358 . S
C1964 H1967 0.930 . S
C1965 C1962 1.348 . S
C1965 C1963 1.356 . S
H1966 C1960 0.930 . S
H1967 C1964 0.930 . S
C1968 C1970 1.348 . S
C1968 C1971 1.356 . S
C1968 O1998 1.325 . S
N1969 C1972 1.314 . S
N1969 C1973 1.279 . S
C1970 C1968 1.348 . S
C1970 C1972 1.353 . S
C1970 H2012 0.929 . S
C1971 C1968 1.356 . S
C1971 C1973 1.358 . S
C1971 H2013 0.930 . S
C1972 N1969 1.314 . S
C1972 C1970 1.353 . S
C1972 H2014 0.930 . S
C1973 N1969 1.279 . S
C1973 C1971 1.358 . S
C1973 H2015 0.930 . S
C1974 C1975 1.348 . S
C1974 C1976 1.356 . S
C1974 O1999 1.325 . S
C1975 C1974 1.348 . S
C1975 C1977 1.353 . S
C1975 H2016 0.929 . S
C1976 C1974 1.356 . S
C1976 C1978 1.358 . S
C1976 H2017 0.930 . S
C1977 C1975 1.353 . S
C1977 N1979 1.314 . S
C1977 H2018 0.930 . S
C1978 C1976 1.358 . S
C1978 N1979 1.279 . S
C1978 H2019 0.930 . S
N1979 C1977 1.314 . S
N1979 C1978 1.279 . S
C1980 C1982 1.353 . S
C1980 N1983 1.314 . S
C1980 H1986 0.930 . S
C1981 N1983 1.279 . S
C1981 C1984 1.358 . S
C1981 H1987 0.930 . S
C1982 C1980 1.353 . S
C1982 C1985 1.348 . S
C1982 H2020 0.929 . S
N1983 Li1938 1.990 . S
N1983 C1980 1.314 . S
N1983 C1981 1.279 . S
C1984 C1981 1.358 . S
C1984 C1985 1.356 . S
C1984 H2021 0.930 . S
C1985 C1982 1.348 . S
C1985 C1984 1.356 . S
H1986 C1980 0.930 . S
H1987 C1981 0.930 . S
C1988 N1989 1.314 . S
C1988 C1990 1.353 . S
C1988 H1994 0.930 . S
N1989 Li1939 1.990 . S
N1989 C1988 1.314 . S
N1989 C1992 1.279 . S
C1990 C1988 1.353 . S
C1990 C1993 1.348 . S
C1990 H2022 0.929 . S
C1991 C1992 1.358 . S
C1991 C1993 1.356 . S
C1991 H2023 0.930 . S
C1992 N1989 1.279 . S
C1992 C1991 1.358 . S
C1992 H1995 0.930 . S
C1993 C1990 1.348 . S
C1993 C1991 1.356 . S
H1994 C1988 0.930 . S
H1995 C1992 0.930 . S
O1996 Li1936 1.956 . S
O1996 Li1937 1.970 . S
O1996 Li1938 1.961 . S
O1996 C1940 1.325 . S
O1997 Li1936 1.970 . S
O1997 Li1937 1.956 . S
O1997 Li1939 1.961 . S
O1997 C1946 1.325 . S
O1998 Li1936 1.961 . S
O1998 Li1938 1.956 . S
O1998 Li1939 1.970 . S
O1998 C1968 1.325 . S
O1999 Li1937 1.961 . S
O1999 Li1938 1.970 . S
O1999 Li1939 1.956 . S
O1999 C1974 1.325 . S
H2000 C1942 0.929 . S
H2001 C1943 0.930 . S
H2002 C1944 0.930 . S
H2003 C1945 0.930 . S
H2004 C1947 0.930 . S
H2005 C1949 0.929 . S
H2006 C1950 0.930 . S
H2007 C1951 0.930 . S
H2008 C1954 0.930 . S
H2009 C1957 0.929 . S
H2010 C1962 0.929 . S
H2011 C1963 0.930 . S
H2012 C1970 0.929 . S
H2013 C1971 0.930 . S
H2014 C1972 0.930 . S
H2015 C1973 0.930 . S
H2016 C1975 0.929 . S
H2017 C1976 0.930 . S
H2018 C1977 0.930 . S
H2019 C1978 0.930 . S
H2020 C1982 0.929 . S
H2021 C1984 0.930 . S
H2022 C1990 0.929 . S
H2023 C1991 0.930 . S
Li2024 N2041 1.990 . S
Li2024 O2084 1.956 . S
Li2024 O2085 1.970 . S
Li2024 O2086 1.961 . S
Li2025 N2049 1.990 . S
Li2025 O2084 1.970 . S
Li2025 O2085 1.956 . S
Li2025 O2087 1.961 . S
Li2026 N2071 1.990 . S
Li2026 O2084 1.961 . S
Li2026 O2086 1.956 . S
Li2026 O2087 1.970 . S
Li2027 N2077 1.990 . S
Li2027 O2085 1.961 . S
Li2027 O2086 1.970 . S
Li2027 O2087 1.956 . S
C2028 C2030 1.348 . S
C2028 C2031 1.356 . S
C2028 O2084 1.325 . S
N2029 C2032 1.314 . S
N2029 C2033 1.279 . S
C2030 C2028 1.348 . S
C2030 C2032 1.353 . S
C2030 H2088 0.929 . S
C2031 C2028 1.356 . S
C2031 C2033 1.358 . S
C2031 H2089 0.930 . S
C2032 N2029 1.314 . S
C2032 C2030 1.353 . S
C2032 H2090 0.930 . S
C2033 N2029 1.279 . S
C2033 C2031 1.358 . S
C2033 H2091 0.930 . S
C2034 C2037 1.348 . S
C2034 C2038 1.356 . S
C2034 O2085 1.325 . S
C2035 N2036 1.279 . S
C2035 C2038 1.358 . S
C2035 H2092 0.930 . S
N2036 C2035 1.279 . S
N2036 C2039 1.314 . S
C2037 C2034 1.348 . S
C2037 C2039 1.353 . S
C2037 H2093 0.929 . S
C2038 C2034 1.356 . S
C2038 C2035 1.358 . S
C2038 H2094 0.930 . S
C2039 N2036 1.314 . S
C2039 C2037 1.353 . S
C2039 H2095 0.930 . S
C2040 N2041 1.314 . S
C2040 C2045 1.353 . S
C2040 H2046 0.930 . S
N2041 Li2024 1.990 . S
N2041 C2040 1.314 . S
N2041 C2043 1.279 . S
C2042 C2043 1.358 . S
C2042 C2044 1.356 . S
C2042 H2096 0.930 . S
C2043 N2041 1.279 . S
C2043 C2042 1.358 . S
C2043 H2047 0.930 . S
C2044 C2042 1.356 . S
C2044 C2045 1.348 . S
C2045 C2040 1.353 . S
C2045 C2044 1.348 . S
C2045 H2097 0.929 . S
H2046 C2040 0.930 . S
H2047 C2043 0.930 . S
C2048 N2049 1.314 . S
C2048 C2050 1.353 . S
C2048 H2054 0.930 . S
N2049 Li2025 1.990 . S
N2049 C2048 1.314 . S
N2049 C2052 1.279 . S
C2050 C2048 1.353 . S
C2050 C2053 1.348 . S
C2050 H2098 0.929 . S
C2051 C2052 1.358 . S
C2051 C2053 1.356 . S
C2051 H2099 0.930 . S
C2052 N2049 1.279 . S
C2052 C2051 1.358 . S
C2052 H2055 0.930 . S
C2053 C2050 1.348 . S
C2053 C2051 1.356 . S
H2054 C2048 0.930 . S
H2055 C2052 0.930 . S
C2056 C2058 1.348 . S
C2056 C2059 1.356 . S
C2056 O2086 1.325 . S
N2057 C2060 1.314 . S
N2057 C2061 1.279 . S
C2058 C2056 1.348 . S
C2058 C2060 1.353 . S
C2058 H2100 0.929 . S
C2059 C2056 1.356 . S
C2059 C2061 1.358 . S
C2059 H2101 0.930 . S
C2060 N2057 1.314 . S
C2060 C2058 1.353 . S
C2060 H2102 0.930 . S
C2061 N2057 1.279 . S
C2061 C2059 1.358 . S
C2061 H2103 0.930 . S
C2062 C2063 1.348 . S
C2062 C2064 1.356 . S
C2062 O2087 1.325 . S
C2063 C2062 1.348 . S
C2063 C2065 1.353 . S
C2063 H2104 0.929 . S
C2064 C2062 1.356 . S
C2064 C2066 1.358 . S
C2064 H2105 0.930 . S
C2065 C2063 1.353 . S
C2065 N2067 1.314 . S
C2065 H2106 0.930 . S
C2066 C2064 1.358 . S
C2066 N2067 1.279 . S
C2066 H2107 0.930 . S
N2067 C2065 1.314 . S
N2067 C2066 1.279 . S
C2068 C2070 1.353 . S
C2068 N2071 1.314 . S
C2068 H2074 0.930 . S
C2069 N2071 1.279 . S
C2069 C2072 1.358 . S
C2069 H2075 0.930 . S
C2070 C2068 1.353 . S
C2070 C2073 1.348 . S
C2070 H2108 0.929 . S
N2071 Li2026 1.990 . S
N2071 C2068 1.314 . S
N2071 C2069 1.279 . S
C2072 C2069 1.358 . S
C2072 C2073 1.356 . S
C2072 H2109 0.930 . S
C2073 C2070 1.348 . S
C2073 C2072 1.356 . S
H2074 C2068 0.930 . S
H2075 C2069 0.930 . S
C2076 N2077 1.314 . S
C2076 C2078 1.353 . S
C2076 H2082 0.930 . S
N2077 Li2027 1.990 . S
N2077 C2076 1.314 . S
N2077 C2080 1.279 . S
C2078 C2076 1.353 . S
C2078 C2081 1.348 . S
C2078 H2110 0.929 . S
C2079 C2080 1.358 . S
C2079 C2081 1.356 . S
C2079 H2111 0.930 . S
C2080 N2077 1.279 . S
C2080 C2079 1.358 . S
C2080 H2083 0.930 . S
C2081 C2078 1.348 . S
C2081 C2079 1.356 . S
H2082 C2076 0.930 . S
H2083 C2080 0.930 . S
O2084 Li2024 1.956 . S
O2084 Li2025 1.970 . S
O2084 Li2026 1.961 . S
O2084 C2028 1.325 . S
O2085 Li2024 1.970 . S
O2085 Li2025 1.956 . S
O2085 Li2027 1.961 . S
O2085 C2034 1.325 . S
O2086 Li2024 1.961 . S
O2086 Li2026 1.956 . S
O2086 Li2027 1.970 . S
O2086 C2056 1.325 . S
O2087 Li2025 1.961 . S
O2087 Li2026 1.970 . S
O2087 Li2027 1.956 . S
O2087 C2062 1.325 . S
H2088 C2030 0.929 . S
H2089 C2031 0.930 . S
H2090 C2032 0.930 . S
H2091 C2033 0.930 . S
H2092 C2035 0.930 . S
H2093 C2037 0.929 . S
H2094 C2038 0.930 . S
H2095 C2039 0.930 . S
H2096 C2042 0.930 . S
H2097 C2045 0.929 . S
H2098 C2050 0.929 . S
H2099 C2051 0.930 . S
H2100 C2058 0.929 . S
H2101 C2059 0.930 . S
H2102 C2060 0.930 . S
H2103 C2061 0.930 . S
H2104 C2063 0.929 . S
H2105 C2064 0.930 . S
H2106 C2065 0.930 . S
H2107 C2066 0.930 . S
H2108 C2070 0.929 . S
H2109 C2072 0.930 . S
H2110 C2078 0.929 . S
H2111 C2079 0.930 . S
Li2112 N2129 1.990 . S
Li2112 O2172 1.956 . S
Li2112 O2173 1.970 . S
Li2112 O2174 1.961 . S
Li2113 N2137 1.990 . S
Li2113 O2172 1.970 . S
Li2113 O2173 1.956 . S
Li2113 O2175 1.961 . S
Li2114 N2159 1.990 . S
Li2114 O2172 1.961 . S
Li2114 O2174 1.956 . S
Li2114 O2175 1.970 . S
Li2115 N2165 1.990 . S
Li2115 O2173 1.961 . S
Li2115 O2174 1.970 . S
Li2115 O2175 1.956 . S
C2116 C2118 1.348 . S
C2116 C2119 1.356 . S
C2116 O2172 1.325 . S
N2117 C2120 1.314 . S
N2117 C2121 1.279 . S
C2118 C2116 1.348 . S
C2118 C2120 1.353 . S
C2118 H2176 0.929 . S
C2119 C2116 1.356 . S
C2119 C2121 1.358 . S
C2119 H2177 0.930 . S
C2120 N2117 1.314 . S
C2120 C2118 1.353 . S
C2120 H2178 0.930 . S
C2121 N2117 1.279 . S
C2121 C2119 1.358 . S
C2121 H2179 0.930 . S
C2122 C2125 1.348 . S
C2122 C2126 1.356 . S
C2122 O2173 1.325 . S
C2123 N2124 1.279 . S
C2123 C2126 1.358 . S
C2123 H2180 0.930 . S
N2124 C2123 1.279 . S
N2124 C2127 1.314 . S
C2125 C2122 1.348 . S
C2125 C2127 1.353 . S
C2125 H2181 0.929 . S
C2126 C2122 1.356 . S
C2126 C2123 1.358 . S
C2126 H2182 0.930 . S
C2127 N2124 1.314 . S
C2127 C2125 1.353 . S
C2127 H2183 0.930 . S
C2128 N2129 1.314 . S
C2128 C2133 1.353 . S
C2128 H2134 0.930 . S
N2129 Li2112 1.990 . S
N2129 C2128 1.314 . S
N2129 C2131 1.279 . S
C2130 C2131 1.358 . S
C2130 C2132 1.356 . S
C2130 H2184 0.930 . S
C2131 N2129 1.279 . S
C2131 C2130 1.358 . S
C2131 H2135 0.930 . S
C2132 C2130 1.356 . S
C2132 C2133 1.348 . S
C2133 C2128 1.353 . S
C2133 C2132 1.348 . S
C2133 H2185 0.929 . S
H2134 C2128 0.930 . S
H2135 C2131 0.930 . S
C2136 N2137 1.314 . S
C2136 C2138 1.353 . S
C2136 H2142 0.930 . S
N2137 Li2113 1.990 . S
N2137 C2136 1.314 . S
N2137 C2140 1.279 . S
C2138 C2136 1.353 . S
C2138 C2141 1.348 . S
C2138 H2186 0.929 . S
C2139 C2140 1.358 . S
C2139 C2141 1.356 . S
C2139 H2187 0.930 . S
C2140 N2137 1.279 . S
C2140 C2139 1.358 . S
C2140 H2143 0.930 . S
C2141 C2138 1.348 . S
C2141 C2139 1.356 . S
H2142 C2136 0.930 . S
H2143 C2140 0.930 . S
C2144 C2146 1.348 . S
C2144 C2147 1.356 . S
C2144 O2174 1.325 . S
N2145 C2148 1.314 . S
N2145 C2149 1.279 . S
C2146 C2144 1.348 . S
C2146 C2148 1.353 . S
C2146 H2188 0.929 . S
C2147 C2144 1.356 . S
C2147 C2149 1.358 . S
C2147 H2189 0.930 . S
C2148 N2145 1.314 . S
C2148 C2146 1.353 . S
C2148 H2190 0.930 . S
C2149 N2145 1.279 . S
C2149 C2147 1.358 . S
C2149 H2191 0.930 . S
C2150 C2151 1.348 . S
C2150 C2152 1.356 . S
C2150 O2175 1.325 . S
C2151 C2150 1.348 . S
C2151 C2153 1.353 . S
C2151 H2192 0.929 . S
C2152 C2150 1.356 . S
C2152 C2154 1.358 . S
C2152 H2193 0.930 . S
C2153 C2151 1.353 . S
C2153 N2155 1.314 . S
C2153 H2194 0.930 . S
C2154 C2152 1.358 . S
C2154 N2155 1.279 . S
C2154 H2195 0.930 . S
N2155 C2153 1.314 . S
N2155 C2154 1.279 . S
C2156 C2158 1.353 . S
C2156 N2159 1.314 . S
C2156 H2162 0.930 . S
C2157 N2159 1.279 . S
C2157 C2160 1.358 . S
C2157 H2163 0.930 . S
C2158 C2156 1.353 . S
C2158 C2161 1.348 . S
C2158 H2196 0.929 . S
N2159 Li2114 1.990 . S
N2159 C2156 1.314 . S
N2159 C2157 1.279 . S
C2160 C2157 1.358 . S
C2160 C2161 1.356 . S
C2160 H2197 0.930 . S
C2161 C2158 1.348 . S
C2161 C2160 1.356 . S
H2162 C2156 0.930 . S
H2163 C2157 0.930 . S
C2164 N2165 1.314 . S
C2164 C2166 1.353 . S
C2164 H2170 0.930 . S
N2165 Li2115 1.990 . S
N2165 C2164 1.314 . S
N2165 C2168 1.279 . S
C2166 C2164 1.353 . S
C2166 C2169 1.348 . S
C2166 H2198 0.929 . S
C2167 C2168 1.358 . S
C2167 C2169 1.356 . S
C2167 H2199 0.930 . S
C2168 N2165 1.279 . S
C2168 C2167 1.358 . S
C2168 H2171 0.930 . S
C2169 C2166 1.348 . S
C2169 C2167 1.356 . S
H2170 C2164 0.930 . S
H2171 C2168 0.930 . S
O2172 Li2112 1.956 . S
O2172 Li2113 1.970 . S
O2172 Li2114 1.961 . S
O2172 C2116 1.325 . S
O2173 Li2112 1.970 . S
O2173 Li2113 1.956 . S
O2173 Li2115 1.961 . S
O2173 C2122 1.325 . S
O2174 Li2112 1.961 . S
O2174 Li2114 1.956 . S
O2174 Li2115 1.970 . S
O2174 C2144 1.325 . S
O2175 Li2113 1.961 . S
O2175 Li2114 1.970 . S
O2175 Li2115 1.956 . S
O2175 C2150 1.325 . S
H2176 C2118 0.929 . S
H2177 C2119 0.930 . S
H2178 C2120 0.930 . S
H2179 C2121 0.930 . S
H2180 C2123 0.930 . S
H2181 C2125 0.929 . S
H2182 C2126 0.930 . S
H2183 C2127 0.930 . S
H2184 C2130 0.930 . S
H2185 C2133 0.929 . S
H2186 C2138 0.929 . S
H2187 C2139 0.930 . S
H2188 C2146 0.929 . S
H2189 C2147 0.930 . S
H2190 C2148 0.930 . S
H2191 C2149 0.930 . S
H2192 C2151 0.929 . S
H2193 C2152 0.930 . S
H2194 C2153 0.930 . S
H2195 C2154 0.930 . S
H2196 C2158 0.929 . S
H2197 C2160 0.930 . S
H2198 C2166 0.929 . S
H2199 C2167 0.930 . S
Li2200 N2217 1.990 . S
Li2200 O2260 1.956 . S
Li2200 O2261 1.970 . S
Li2200 O2262 1.961 . S
Li2201 N2225 1.990 . S
Li2201 O2260 1.970 . S
Li2201 O2261 1.956 . S
Li2201 O2263 1.961 . S
Li2202 N2247 1.990 . S
Li2202 O2260 1.961 . S
Li2202 O2262 1.956 . S
Li2202 O2263 1.970 . S
Li2203 N2253 1.990 . S
Li2203 O2261 1.961 . S
Li2203 O2262 1.970 . S
Li2203 O2263 1.956 . S
C2204 C2206 1.348 . S
C2204 C2207 1.356 . S
C2204 O2260 1.325 . S
N2205 C2208 1.314 . S
N2205 C2209 1.279 . S
C2206 C2204 1.348 . S
C2206 C2208 1.353 . S
C2206 H2264 0.929 . S
C2207 C2204 1.356 . S
C2207 C2209 1.358 . S
C2207 H2265 0.930 . S
C2208 N2205 1.314 . S
C2208 C2206 1.353 . S
C2208 H2266 0.930 . S
C2209 N2205 1.279 . S
C2209 C2207 1.358 . S
C2209 H2267 0.930 . S
C2210 C2213 1.348 . S
C2210 C2214 1.356 . S
C2210 O2261 1.325 . S
C2211 N2212 1.279 . S
C2211 C2214 1.358 . S
C2211 H2268 0.930 . S
N2212 C2211 1.279 . S
N2212 C2215 1.314 . S
C2213 C2210 1.348 . S
C2213 C2215 1.353 . S
C2213 H2269 0.929 . S
C2214 C2210 1.356 . S
C2214 C2211 1.358 . S
C2214 H2270 0.930 . S
C2215 N2212 1.314 . S
C2215 C2213 1.353 . S
C2215 H2271 0.930 . S
C2216 N2217 1.314 . S
C2216 C2221 1.353 . S
C2216 H2222 0.930 . S
N2217 Li2200 1.990 . S
N2217 C2216 1.314 . S
N2217 C2219 1.279 . S
C2218 C2219 1.358 . S
C2218 C2220 1.356 . S
C2218 H2272 0.930 . S
C2219 N2217 1.279 . S
C2219 C2218 1.358 . S
C2219 H2223 0.930 . S
C2220 C2218 1.356 . S
C2220 C2221 1.348 . S
C2221 C2216 1.353 . S
C2221 C2220 1.348 . S
C2221 H2273 0.929 . S
H2222 C2216 0.930 . S
H2223 C2219 0.930 . S
C2224 N2225 1.314 . S
C2224 C2226 1.353 . S
C2224 H2230 0.930 . S
N2225 Li2201 1.990 . S
N2225 C2224 1.314 . S
N2225 C2228 1.279 . S
C2226 C2224 1.353 . S
C2226 C2229 1.348 . S
C2226 H2274 0.929 . S
C2227 C2228 1.358 . S
C2227 C2229 1.356 . S
C2227 H2275 0.930 . S
C2228 N2225 1.279 . S
C2228 C2227 1.358 . S
C2228 H2231 0.930 . S
C2229 C2226 1.348 . S
C2229 C2227 1.356 . S
H2230 C2224 0.930 . S
H2231 C2228 0.930 . S
C2232 C2234 1.348 . S
C2232 C2235 1.356 . S
C2232 O2262 1.325 . S
N2233 C2236 1.314 . S
N2233 C2237 1.279 . S
C2234 C2232 1.348 . S
C2234 C2236 1.353 . S
C2234 H2276 0.929 . S
C2235 C2232 1.356 . S
C2235 C2237 1.358 . S
C2235 H2277 0.930 . S
C2236 N2233 1.314 . S
C2236 C2234 1.353 . S
C2236 H2278 0.930 . S
C2237 N2233 1.279 . S
C2237 C2235 1.358 . S
C2237 H2279 0.930 . S
C2238 C2239 1.348 . S
C2238 C2240 1.356 . S
C2238 O2263 1.325 . S
C2239 C2238 1.348 . S
C2239 C2241 1.353 . S
C2239 H2280 0.929 . S
C2240 C2238 1.356 . S
C2240 C2242 1.358 . S
C2240 H2281 0.930 . S
C2241 C2239 1.353 . S
C2241 N2243 1.314 . S
C2241 H2282 0.930 . S
C2242 C2240 1.358 . S
C2242 N2243 1.279 . S
C2242 H2283 0.930 . S
N2243 C2241 1.314 . S
N2243 C2242 1.279 . S
C2244 C2246 1.353 . S
C2244 N2247 1.314 . S
C2244 H2250 0.930 . S
C2245 N2247 1.279 . S
C2245 C2248 1.358 . S
C2245 H2251 0.930 . S
C2246 C2244 1.353 . S
C2246 C2249 1.348 . S
C2246 H2284 0.929 . S
N2247 Li2202 1.990 . S
N2247 C2244 1.314 . S
N2247 C2245 1.279 . S
C2248 C2245 1.358 . S
C2248 C2249 1.356 . S
C2248 H2285 0.930 . S
C2249 C2246 1.348 . S
C2249 C2248 1.356 . S
H2250 C2244 0.930 . S
H2251 C2245 0.930 . S
C2252 N2253 1.314 . S
C2252 C2254 1.353 . S
C2252 H2258 0.930 . S
N2253 Li2203 1.990 . S
N2253 C2252 1.314 . S
N2253 C2256 1.279 . S
C2254 C2252 1.353 . S
C2254 C2257 1.348 . S
C2254 H2286 0.929 . S
C2255 C2256 1.358 . S
C2255 C2257 1.356 . S
C2255 H2287 0.930 . S
C2256 N2253 1.279 . S
C2256 C2255 1.358 . S
C2256 H2259 0.930 . S
C2257 C2254 1.348 . S
C2257 C2255 1.356 . S
H2258 C2252 0.930 . S
H2259 C2256 0.930 . S
O2260 Li2200 1.956 . S
O2260 Li2201 1.970 . S
O2260 Li2202 1.961 . S
O2260 C2204 1.325 . S
O2261 Li2200 1.970 . S
O2261 Li2201 1.956 . S
O2261 Li2203 1.961 . S
O2261 C2210 1.325 . S
O2262 Li2200 1.961 . S
O2262 Li2202 1.956 . S
O2262 Li2203 1.970 . S
O2262 C2232 1.325 . S
O2263 Li2201 1.961 . S
O2263 Li2202 1.970 . S
O2263 Li2203 1.956 . S
O2263 C2238 1.325 . S
H2264 C2206 0.929 . S
H2265 C2207 0.930 . S
H2266 C2208 0.930 . S
H2267 C2209 0.930 . S
H2268 C2211 0.930 . S
H2269 C2213 0.929 . S
H2270 C2214 0.930 . S
H2271 C2215 0.930 . S
H2272 C2218 0.930 . S
H2273 C2221 0.929 . S
H2274 C2226 0.929 . S
H2275 C2227 0.930 . S
H2276 C2234 0.929 . S
H2277 C2235 0.930 . S
H2278 C2236 0.930 . S
H2279 C2237 0.930 . S
H2280 C2239 0.929 . S
H2281 C2240 0.930 . S
H2282 C2241 0.930 . S
H2283 C2242 0.930 . S
H2284 C2246 0.929 . S
H2285 C2248 0.930 . S
H2286 C2254 0.929 . S
H2287 C2255 0.930 . S
Li2288 N2305 1.990 . S
Li2288 O2348 1.956 . S
Li2288 O2349 1.970 . S
Li2288 O2350 1.961 . S
Li2289 N2313 1.990 . S
Li2289 O2348 1.970 . S
Li2289 O2349 1.956 . S
Li2289 O2351 1.961 . S
Li2290 N2335 1.990 . S
Li2290 O2348 1.961 . S
Li2290 O2350 1.956 . S
Li2290 O2351 1.970 . S
Li2291 N2341 1.990 . S
Li2291 O2349 1.961 . S
Li2291 O2350 1.970 . S
Li2291 O2351 1.956 . S
C2292 C2294 1.348 . S
C2292 C2295 1.356 . S
C2292 O2348 1.325 . S
N2293 C2296 1.314 . S
N2293 C2297 1.279 . S
C2294 C2292 1.348 . S
C2294 C2296 1.353 . S
C2294 H2352 0.929 . S
C2295 C2292 1.356 . S
C2295 C2297 1.358 . S
C2295 H2353 0.930 . S
C2296 N2293 1.314 . S
C2296 C2294 1.353 . S
C2296 H2354 0.930 . S
C2297 N2293 1.279 . S
C2297 C2295 1.358 . S
C2297 H2355 0.930 . S
C2298 C2301 1.348 . S
C2298 C2302 1.356 . S
C2298 O2349 1.325 . S
C2299 N2300 1.279 . S
C2299 C2302 1.358 . S
C2299 H2356 0.930 . S
N2300 C2299 1.279 . S
N2300 C2303 1.314 . S
C2301 C2298 1.348 . S
C2301 C2303 1.353 . S
C2301 H2357 0.929 . S
C2302 C2298 1.356 . S
C2302 C2299 1.358 . S
C2302 H2358 0.930 . S
C2303 N2300 1.314 . S
C2303 C2301 1.353 . S
C2303 H2359 0.930 . S
C2304 N2305 1.314 . S
C2304 C2309 1.353 . S
C2304 H2310 0.930 . S
N2305 Li2288 1.990 . S
N2305 C2304 1.314 . S
N2305 C2307 1.279 . S
C2306 C2307 1.358 . S
C2306 C2308 1.356 . S
C2306 H2360 0.930 . S
C2307 N2305 1.279 . S
C2307 C2306 1.358 . S
C2307 H2311 0.930 . S
C2308 C2306 1.356 . S
C2308 C2309 1.348 . S
C2309 C2304 1.353 . S
C2309 C2308 1.348 . S
C2309 H2361 0.929 . S
H2310 C2304 0.930 . S
H2311 C2307 0.930 . S
C2312 N2313 1.314 . S
C2312 C2314 1.353 . S
C2312 H2318 0.930 . S
N2313 Li2289 1.990 . S
N2313 C2312 1.314 . S
N2313 C2316 1.279 . S
C2314 C2312 1.353 . S
C2314 C2317 1.348 . S
C2314 H2362 0.929 . S
C2315 C2316 1.358 . S
C2315 C2317 1.356 . S
C2315 H2363 0.930 . S
C2316 N2313 1.279 . S
C2316 C2315 1.358 . S
C2316 H2319 0.930 . S
C2317 C2314 1.348 . S
C2317 C2315 1.356 . S
H2318 C2312 0.930 . S
H2319 C2316 0.930 . S
C2320 C2322 1.348 . S
C2320 C2323 1.356 . S
C2320 O2350 1.325 . S
N2321 C2324 1.314 . S
N2321 C2325 1.279 . S
C2322 C2320 1.348 . S
C2322 C2324 1.353 . S
C2322 H2364 0.929 . S
C2323 C2320 1.356 . S
C2323 C2325 1.358 . S
C2323 H2365 0.930 . S
C2324 N2321 1.314 . S
C2324 C2322 1.353 . S
C2324 H2366 0.930 . S
C2325 N2321 1.279 . S
C2325 C2323 1.358 . S
C2325 H2367 0.930 . S
C2326 C2327 1.348 . S
C2326 C2328 1.356 . S
C2326 O2351 1.325 . S
C2327 C2326 1.348 . S
C2327 C2329 1.353 . S
C2327 H2368 0.929 . S
C2328 C2326 1.356 . S
C2328 C2330 1.358 . S
C2328 H2369 0.930 . S
C2329 C2327 1.353 . S
C2329 N2331 1.314 . S
C2329 H2370 0.930 . S
C2330 C2328 1.358 . S
C2330 N2331 1.279 . S
C2330 H2371 0.930 . S
N2331 C2329 1.314 . S
N2331 C2330 1.279 . S
C2332 C2334 1.353 . S
C2332 N2335 1.314 . S
C2332 H2338 0.930 . S
C2333 N2335 1.279 . S
C2333 C2336 1.358 . S
C2333 H2339 0.930 . S
C2334 C2332 1.353 . S
C2334 C2337 1.348 . S
C2334 H2372 0.929 . S
N2335 Li2290 1.990 . S
N2335 C2332 1.314 . S
N2335 C2333 1.279 . S
C2336 C2333 1.358 . S
C2336 C2337 1.356 . S
C2336 H2373 0.930 . S
C2337 C2334 1.348 . S
C2337 C2336 1.356 . S
H2338 C2332 0.930 . S
H2339 C2333 0.930 . S
C2340 N2341 1.314 . S
C2340 C2342 1.353 . S
C2340 H2346 0.930 . S
N2341 Li2291 1.990 . S
N2341 C2340 1.314 . S
N2341 C2344 1.279 . S
C2342 C2340 1.353 . S
C2342 C2345 1.348 . S
C2342 H2374 0.929 . S
C2343 C2344 1.358 . S
C2343 C2345 1.356 . S
C2343 H2375 0.930 . S
C2344 N2341 1.279 . S
C2344 C2343 1.358 . S
C2344 H2347 0.930 . S
C2345 C2342 1.348 . S
C2345 C2343 1.356 . S
H2346 C2340 0.930 . S
H2347 C2344 0.930 . S
O2348 Li2288 1.956 . S
O2348 Li2289 1.970 . S
O2348 Li2290 1.961 . S
O2348 C2292 1.325 . S
O2349 Li2288 1.970 . S
O2349 Li2289 1.956 . S
O2349 Li2291 1.961 . S
O2349 C2298 1.325 . S
O2350 Li2288 1.961 . S
O2350 Li2290 1.956 . S
O2350 Li2291 1.970 . S
O2350 C2320 1.325 . S
O2351 Li2289 1.961 . S
O2351 Li2290 1.970 . S
O2351 Li2291 1.956 . S
O2351 C2326 1.325 . S
H2352 C2294 0.929 . S
H2353 C2295 0.930 . S
H2354 C2296 0.930 . S
H2355 C2297 0.930 . S
H2356 C2299 0.930 . S
H2357 C2301 0.929 . S
H2358 C2302 0.930 . S
H2359 C2303 0.930 . S
H2360 C2306 0.930 . S
H2361 C2309 0.929 . S
H2362 C2314 0.929 . S
H2363 C2315 0.930 . S
H2364 C2322 0.929 . S
H2365 C2323 0.930 . S
H2366 C2324 0.930 . S
H2367 C2325 0.930 . S
H2368 C2327 0.929 . S
H2369 C2328 0.930 . S
H2370 C2329 0.930 . S
H2371 C2330 0.930 . S
H2372 C2334 0.929 . S
H2373 C2336 0.930 . S
H2374 C2342 0.929 . S
H2375 C2343 0.930 . S
Li2376 N2393 1.990 . S
Li2376 O2436 1.956 . S
Li2376 O2437 1.970 . S
Li2376 O2438 1.961 . S
Li2377 N2401 1.990 . S
Li2377 O2436 1.970 . S
Li2377 O2437 1.956 . S
Li2377 O2439 1.961 . S
Li2378 N2423 1.990 . S
Li2378 O2436 1.961 . S
Li2378 O2438 1.956 . S
Li2378 O2439 1.970 . S
Li2379 N2429 1.990 . S
Li2379 O2437 1.961 . S
Li2379 O2438 1.970 . S
Li2379 O2439 1.956 . S
C2380 C2382 1.348 . S
C2380 C2383 1.356 . S
C2380 O2436 1.325 . S
N2381 C2384 1.314 . S
N2381 C2385 1.279 . S
C2382 C2380 1.348 . S
C2382 C2384 1.353 . S
C2382 H2440 0.929 . S
C2383 C2380 1.356 . S
C2383 C2385 1.358 . S
C2383 H2441 0.930 . S
C2384 N2381 1.314 . S
C2384 C2382 1.353 . S
C2384 H2442 0.930 . S
C2385 N2381 1.279 . S
C2385 C2383 1.358 . S
C2385 H2443 0.930 . S
C2386 C2389 1.348 . S
C2386 C2390 1.356 . S
C2386 O2437 1.325 . S
C2387 N2388 1.279 . S
C2387 C2390 1.358 . S
C2387 H2444 0.930 . S
N2388 C2387 1.279 . S
N2388 C2391 1.314 . S
C2389 C2386 1.348 . S
C2389 C2391 1.353 . S
C2389 H2445 0.929 . S
C2390 C2386 1.356 . S
C2390 C2387 1.358 . S
C2390 H2446 0.930 . S
C2391 N2388 1.314 . S
C2391 C2389 1.353 . S
C2391 H2447 0.930 . S
C2392 N2393 1.314 . S
C2392 C2397 1.353 . S
C2392 H2398 0.930 . S
N2393 Li2376 1.990 . S
N2393 C2392 1.314 . S
N2393 C2395 1.279 . S
C2394 C2395 1.358 . S
C2394 C2396 1.356 . S
C2394 H2448 0.930 . S
C2395 N2393 1.279 . S
C2395 C2394 1.358 . S
C2395 H2399 0.930 . S
C2396 C2394 1.356 . S
C2396 C2397 1.348 . S
C2397 C2392 1.353 . S
C2397 C2396 1.348 . S
C2397 H2449 0.929 . S
H2398 C2392 0.930 . S
H2399 C2395 0.930 . S
C2400 N2401 1.314 . S
C2400 C2402 1.353 . S
C2400 H2406 0.930 . S
N2401 Li2377 1.990 . S
N2401 C2400 1.314 . S
N2401 C2404 1.279 . S
C2402 C2400 1.353 . S
C2402 C2405 1.348 . S
C2402 H2450 0.929 . S
C2403 C2404 1.358 . S
C2403 C2405 1.356 . S
C2403 H2451 0.930 . S
C2404 N2401 1.279 . S
C2404 C2403 1.358 . S
C2404 H2407 0.930 . S
C2405 C2402 1.348 . S
C2405 C2403 1.356 . S
H2406 C2400 0.930 . S
H2407 C2404 0.930 . S
C2408 C2410 1.348 . S
C2408 C2411 1.356 . S
C2408 O2438 1.325 . S
N2409 C2412 1.314 . S
N2409 C2413 1.279 . S
C2410 C2408 1.348 . S
C2410 C2412 1.353 . S
C2410 H2452 0.929 . S
C2411 C2408 1.356 . S
C2411 C2413 1.358 . S
C2411 H2453 0.930 . S
C2412 N2409 1.314 . S
C2412 C2410 1.353 . S
C2412 H2454 0.930 . S
C2413 N2409 1.279 . S
C2413 C2411 1.358 . S
C2413 H2455 0.930 . S
C2414 C2415 1.348 . S
C2414 C2416 1.356 . S
C2414 O2439 1.325 . S
C2415 C2414 1.348 . S
C2415 C2417 1.353 . S
C2415 H2456 0.929 . S
C2416 C2414 1.356 . S
C2416 C2418 1.358 . S
C2416 H2457 0.930 . S
C2417 C2415 1.353 . S
C2417 N2419 1.314 . S
C2417 H2458 0.930 . S
C2418 C2416 1.358 . S
C2418 N2419 1.279 . S
C2418 H2459 0.930 . S
N2419 C2417 1.314 . S
N2419 C2418 1.279 . S
C2420 C2422 1.353 . S
C2420 N2423 1.314 . S
C2420 H2426 0.930 . S
C2421 N2423 1.279 . S
C2421 C2424 1.358 . S
C2421 H2427 0.930 . S
C2422 C2420 1.353 . S
C2422 C2425 1.348 . S
C2422 H2460 0.929 . S
N2423 Li2378 1.990 . S
N2423 C2420 1.314 . S
N2423 C2421 1.279 . S
C2424 C2421 1.358 . S
C2424 C2425 1.356 . S
C2424 H2461 0.930 . S
C2425 C2422 1.348 . S
C2425 C2424 1.356 . S
H2426 C2420 0.930 . S
H2427 C2421 0.930 . S
C2428 N2429 1.314 . S
C2428 C2430 1.353 . S
C2428 H2434 0.930 . S
N2429 Li2379 1.990 . S
N2429 C2428 1.314 . S
N2429 C2432 1.279 . S
C2430 C2428 1.353 . S
C2430 C2433 1.348 . S
C2430 H2462 0.929 . S
C2431 C2432 1.358 . S
C2431 C2433 1.356 . S
C2431 H2463 0.930 . S
C2432 N2429 1.279 . S
C2432 C2431 1.358 . S
C2432 H2435 0.930 . S
C2433 C2430 1.348 . S
C2433 C2431 1.356 . S
H2434 C2428 0.930 . S
H2435 C2432 0.930 . S
O2436 Li2376 1.956 . S
O2436 Li2377 1.970 . S
O2436 Li2378 1.961 . S
O2436 C2380 1.325 . S
O2437 Li2376 1.970 . S
O2437 Li2377 1.956 . S
O2437 Li2379 1.961 . S
O2437 C2386 1.325 . S
O2438 Li2376 1.961 . S
O2438 Li2378 1.956 . S
O2438 Li2379 1.970 . S
O2438 C2408 1.325 . S
O2439 Li2377 1.961 . S
O2439 Li2378 1.970 . S
O2439 Li2379 1.956 . S
O2439 C2414 1.325 . S
H2440 C2382 0.929 . S
H2441 C2383 0.930 . S
H2442 C2384 0.930 . S
H2443 C2385 0.930 . S
H2444 C2387 0.930 . S
H2445 C2389 0.929 . S
H2446 C2390 0.930 . S
H2447 C2391 0.930 . S
H2448 C2394 0.930 . S
H2449 C2397 0.929 . S
H2450 C2402 0.929 . S
H2451 C2403 0.930 . S
H2452 C2410 0.929 . S
H2453 C2411 0.930 . S
H2454 C2412 0.930 . S
H2455 C2413 0.930 . S
H2456 C2415 0.929 . S
H2457 C2416 0.930 . S
H2458 C2417 0.930 . S
H2459 C2418 0.930 . S
H2460 C2422 0.929 . S
H2461 C2424 0.930 . S
H2462 C2430 0.929 . S
H2463 C2431 0.930 . S
Li2464 N2481 1.990 . S
Li2464 O2524 1.956 . S
Li2464 O2525 1.970 . S
Li2464 O2526 1.961 . S
Li2465 N2489 1.990 . S
Li2465 O2524 1.970 . S
Li2465 O2525 1.956 . S
Li2465 O2527 1.961 . S
Li2466 N2511 1.990 . S
Li2466 O2524 1.961 . S
Li2466 O2526 1.956 . S
Li2466 O2527 1.970 . S
Li2467 N2517 1.990 . S
Li2467 O2525 1.961 . S
Li2467 O2526 1.970 . S
Li2467 O2527 1.956 . S
C2468 C2470 1.348 . S
C2468 C2471 1.356 . S
C2468 O2524 1.325 . S
N2469 C2472 1.314 . S
N2469 C2473 1.279 . S
C2470 C2468 1.348 . S
C2470 C2472 1.353 . S
C2470 H2528 0.929 . S
C2471 C2468 1.356 . S
C2471 C2473 1.358 . S
C2471 H2529 0.930 . S
C2472 N2469 1.314 . S
C2472 C2470 1.353 . S
C2472 H2530 0.930 . S
C2473 N2469 1.279 . S
C2473 C2471 1.358 . S
C2473 H2531 0.930 . S
C2474 C2477 1.348 . S
C2474 C2478 1.356 . S
C2474 O2525 1.325 . S
C2475 N2476 1.279 . S
C2475 C2478 1.358 . S
C2475 H2532 0.930 . S
N2476 C2475 1.279 . S
N2476 C2479 1.314 . S
C2477 C2474 1.348 . S
C2477 C2479 1.353 . S
C2477 H2533 0.929 . S
C2478 C2474 1.356 . S
C2478 C2475 1.358 . S
C2478 H2534 0.930 . S
C2479 N2476 1.314 . S
C2479 C2477 1.353 . S
C2479 H2535 0.930 . S
C2480 N2481 1.314 . S
C2480 C2485 1.353 . S
C2480 H2486 0.930 . S
N2481 Li2464 1.990 . S
N2481 C2480 1.314 . S
N2481 C2483 1.279 . S
C2482 C2483 1.358 . S
C2482 C2484 1.356 . S
C2482 H2536 0.930 . S
C2483 N2481 1.279 . S
C2483 C2482 1.358 . S
C2483 H2487 0.930 . S
C2484 C2482 1.356 . S
C2484 C2485 1.348 . S
C2485 C2480 1.353 . S
C2485 C2484 1.348 . S
C2485 H2537 0.929 . S
H2486 C2480 0.930 . S
H2487 C2483 0.930 . S
C2488 N2489 1.314 . S
C2488 C2490 1.353 . S
C2488 H2494 0.930 . S
N2489 Li2465 1.990 . S
N2489 C2488 1.314 . S
N2489 C2492 1.279 . S
C2490 C2488 1.353 . S
C2490 C2493 1.348 . S
C2490 H2538 0.929 . S
C2491 C2492 1.358 . S
C2491 C2493 1.356 . S
C2491 H2539 0.930 . S
C2492 N2489 1.279 . S
C2492 C2491 1.358 . S
C2492 H2495 0.930 . S
C2493 C2490 1.348 . S
C2493 C2491 1.356 . S
H2494 C2488 0.930 . S
H2495 C2492 0.930 . S
C2496 C2498 1.348 . S
C2496 C2499 1.356 . S
C2496 O2526 1.325 . S
N2497 C2500 1.314 . S
N2497 C2501 1.279 . S
C2498 C2496 1.348 . S
C2498 C2500 1.353 . S
C2498 H2540 0.929 . S
C2499 C2496 1.356 . S
C2499 C2501 1.358 . S
C2499 H2541 0.930 . S
C2500 N2497 1.314 . S
C2500 C2498 1.353 . S
C2500 H2542 0.930 . S
C2501 N2497 1.279 . S
C2501 C2499 1.358 . S
C2501 H2543 0.930 . S
C2502 C2503 1.348 . S
C2502 C2504 1.356 . S
C2502 O2527 1.325 . S
C2503 C2502 1.348 . S
C2503 C2505 1.353 . S
C2503 H2544 0.929 . S
C2504 C2502 1.356 . S
C2504 C2506 1.358 . S
C2504 H2545 0.930 . S
C2505 C2503 1.353 . S
C2505 N2507 1.314 . S
C2505 H2546 0.930 . S
C2506 C2504 1.358 . S
C2506 N2507 1.279 . S
C2506 H2547 0.930 . S
N2507 C2505 1.314 . S
N2507 C2506 1.279 . S
C2508 C2510 1.353 . S
C2508 N2511 1.314 . S
C2508 H2514 0.930 . S
C2509 N2511 1.279 . S
C2509 C2512 1.358 . S
C2509 H2515 0.930 . S
C2510 C2508 1.353 . S
C2510 C2513 1.348 . S
C2510 H2548 0.929 . S
N2511 Li2466 1.990 . S
N2511 C2508 1.314 . S
N2511 C2509 1.279 . S
C2512 C2509 1.358 . S
C2512 C2513 1.356 . S
C2512 H2549 0.930 . S
C2513 C2510 1.348 . S
C2513 C2512 1.356 . S
H2514 C2508 0.930 . S
H2515 C2509 0.930 . S
C2516 N2517 1.314 . S
C2516 C2518 1.353 . S
C2516 H2522 0.930 . S
N2517 Li2467 1.990 . S
N2517 C2516 1.314 . S
N2517 C2520 1.279 . S
C2518 C2516 1.353 . S
C2518 C2521 1.348 . S
C2518 H2550 0.929 . S
C2519 C2520 1.358 . S
C2519 C2521 1.356 . S
C2519 H2551 0.930 . S
C2520 N2517 1.279 . S
C2520 C2519 1.358 . S
C2520 H2523 0.930 . S
C2521 C2518 1.348 . S
C2521 C2519 1.356 . S
H2522 C2516 0.930 . S
H2523 C2520 0.930 . S
O2524 Li2464 1.956 . S
O2524 Li2465 1.970 . S
O2524 Li2466 1.961 . S
O2524 C2468 1.325 . S
O2525 Li2464 1.970 . S
O2525 Li2465 1.956 . S
O2525 Li2467 1.961 . S
O2525 C2474 1.325 . S
O2526 Li2464 1.961 . S
O2526 Li2466 1.956 . S
O2526 Li2467 1.970 . S
O2526 C2496 1.325 . S
O2527 Li2465 1.961 . S
O2527 Li2466 1.970 . S
O2527 Li2467 1.956 . S
O2527 C2502 1.325 . S
H2528 C2470 0.929 . S
H2529 C2471 0.930 . S
H2530 C2472 0.930 . S
H2531 C2473 0.930 . S
H2532 C2475 0.930 . S
H2533 C2477 0.929 . S
H2534 C2478 0.930 . S
H2535 C2479 0.930 . S
H2536 C2482 0.930 . S
H2537 C2485 0.929 . S
H2538 C2490 0.929 . S
H2539 C2491 0.930 . S
H2540 C2498 0.929 . S
H2541 C2499 0.930 . S
H2542 C2500 0.930 . S
H2543 C2501 0.930 . S
H2544 C2503 0.929 . S
H2545 C2504 0.930 . S
H2546 C2505 0.930 . S
H2547 C2506 0.930 . S
H2548 C2510 0.929 . S
H2549 C2512 0.930 . S
H2550 C2518 0.929 . S
H2551 C2519 0.930 . S
Li2552 N2569 1.990 . S
Li2552 O2612 1.956 . S
Li2552 O2613 1.970 . S
Li2552 O2614 1.961 . S
Li2553 N2577 1.990 . S
Li2553 O2612 1.970 . S
Li2553 O2613 1.956 . S
Li2553 O2615 1.961 . S
Li2554 N2599 1.990 . S
Li2554 O2612 1.961 . S
Li2554 O2614 1.956 . S
Li2554 O2615 1.970 . S
Li2555 N2605 1.990 . S
Li2555 O2613 1.961 . S
Li2555 O2614 1.970 . S
Li2555 O2615 1.956 . S
C2556 C2558 1.348 . S
C2556 C2559 1.356 . S
C2556 O2612 1.325 . S
N2557 C2560 1.314 . S
N2557 C2561 1.279 . S
C2558 C2556 1.348 . S
C2558 C2560 1.353 . S
C2558 H2616 0.929 . S
C2559 C2556 1.356 . S
C2559 C2561 1.358 . S
C2559 H2617 0.930 . S
C2560 N2557 1.314 . S
C2560 C2558 1.353 . S
C2560 H2618 0.930 . S
C2561 N2557 1.279 . S
C2561 C2559 1.358 . S
C2561 H2619 0.930 . S
C2562 C2565 1.348 . S
C2562 C2566 1.356 . S
C2562 O2613 1.325 . S
C2563 N2564 1.279 . S
C2563 C2566 1.358 . S
C2563 H2620 0.930 . S
N2564 C2563 1.279 . S
N2564 C2567 1.314 . S
C2565 C2562 1.348 . S
C2565 C2567 1.353 . S
C2565 H2621 0.929 . S
C2566 C2562 1.356 . S
C2566 C2563 1.358 . S
C2566 H2622 0.930 . S
C2567 N2564 1.314 . S
C2567 C2565 1.353 . S
C2567 H2623 0.930 . S
C2568 N2569 1.314 . S
C2568 C2573 1.353 . S
C2568 H2574 0.930 . S
N2569 Li2552 1.990 . S
N2569 C2568 1.314 . S
N2569 C2571 1.279 . S
C2570 C2571 1.358 . S
C2570 C2572 1.356 . S
C2570 H2624 0.930 . S
C2571 N2569 1.279 . S
C2571 C2570 1.358 . S
C2571 H2575 0.930 . S
C2572 C2570 1.356 . S
C2572 C2573 1.348 . S
C2573 C2568 1.353 . S
C2573 C2572 1.348 . S
C2573 H2625 0.929 . S
H2574 C2568 0.930 . S
H2575 C2571 0.930 . S
C2576 N2577 1.314 . S
C2576 C2578 1.353 . S
C2576 H2582 0.930 . S
N2577 Li2553 1.990 . S
N2577 C2576 1.314 . S
N2577 C2580 1.279 . S
C2578 C2576 1.353 . S
C2578 C2581 1.348 . S
C2578 H2626 0.929 . S
C2579 C2580 1.358 . S
C2579 C2581 1.356 . S
C2579 H2627 0.930 . S
C2580 N2577 1.279 . S
C2580 C2579 1.358 . S
C2580 H2583 0.930 . S
C2581 C2578 1.348 . S
C2581 C2579 1.356 . S
H2582 C2576 0.930 . S
H2583 C2580 0.930 . S
C2584 C2586 1.348 . S
C2584 C2587 1.356 . S
C2584 O2614 1.325 . S
N2585 C2588 1.314 . S
N2585 C2589 1.279 . S
C2586 C2584 1.348 . S
C2586 C2588 1.353 . S
C2586 H2628 0.929 . S
C2587 C2584 1.356 . S
C2587 C2589 1.358 . S
C2587 H2629 0.930 . S
C2588 N2585 1.314 . S
C2588 C2586 1.353 . S
C2588 H2630 0.930 . S
C2589 N2585 1.279 . S
C2589 C2587 1.358 . S
C2589 H2631 0.930 . S
C2590 C2591 1.348 . S
C2590 C2592 1.356 . S
C2590 O2615 1.325 . S
C2591 C2590 1.348 . S
C2591 C2593 1.353 . S
C2591 H2632 0.929 . S
C2592 C2590 1.356 . S
C2592 C2594 1.358 . S
C2592 H2633 0.930 . S
C2593 C2591 1.353 . S
C2593 N2595 1.314 . S
C2593 H2634 0.930 . S
C2594 C2592 1.358 . S
C2594 N2595 1.279 . S
C2594 H2635 0.930 . S
N2595 C2593 1.314 . S
N2595 C2594 1.279 . S
C2596 C2598 1.353 . S
C2596 N2599 1.314 . S
C2596 H2602 0.930 . S
C2597 N2599 1.279 . S
C2597 C2600 1.358 . S
C2597 H2603 0.930 . S
C2598 C2596 1.353 . S
C2598 C2601 1.348 . S
C2598 H2636 0.929 . S
N2599 Li2554 1.990 . S
N2599 C2596 1.314 . S
N2599 C2597 1.279 . S
C2600 C2597 1.358 . S
C2600 C2601 1.356 . S
C2600 H2637 0.930 . S
C2601 C2598 1.348 . S
C2601 C2600 1.356 . S
H2602 C2596 0.930 . S
H2603 C2597 0.930 . S
C2604 N2605 1.314 . S
C2604 C2606 1.353 . S
C2604 H2610 0.930 . S
N2605 Li2555 1.990 . S
N2605 C2604 1.314 . S
N2605 C2608 1.279 . S
C2606 C2604 1.353 . S
C2606 C2609 1.348 . S
C2606 H2638 0.929 . S
C2607 C2608 1.358 . S
C2607 C2609 1.356 . S
C2607 H2639 0.930 . S
C2608 N2605 1.279 . S
C2608 C2607 1.358 . S
C2608 H2611 0.930 . S
C2609 C2606 1.348 . S
C2609 C2607 1.356 . S
H2610 C2604 0.930 . S
H2611 C2608 0.930 . S
O2612 Li2552 1.956 . S
O2612 Li2553 1.970 . S
O2612 Li2554 1.961 . S
O2612 C2556 1.325 . S
O2613 Li2552 1.970 . S
O2613 Li2553 1.956 . S
O2613 Li2555 1.961 . S
O2613 C2562 1.325 . S
O2614 Li2552 1.961 . S
O2614 Li2554 1.956 . S
O2614 Li2555 1.970 . S
O2614 C2584 1.325 . S
O2615 Li2553 1.961 . S
O2615 Li2554 1.970 . S
O2615 Li2555 1.956 . S
O2615 C2590 1.325 . S
H2616 C2558 0.929 . S
H2617 C2559 0.930 . S
H2618 C2560 0.930 . S
H2619 C2561 0.930 . S
H2620 C2563 0.930 . S
H2621 C2565 0.929 . S
H2622 C2566 0.930 . S
H2623 C2567 0.930 . S
H2624 C2570 0.930 . S
H2625 C2573 0.929 . S
H2626 C2578 0.929 . S
H2627 C2579 0.930 . S
H2628 C2586 0.929 . S
H2629 C2587 0.930 . S
H2630 C2588 0.930 . S
H2631 C2589 0.930 . S
H2632 C2591 0.929 . S
H2633 C2592 0.930 . S
H2634 C2593 0.930 . S
H2635 C2594 0.930 . S
H2636 C2598 0.929 . S
H2637 C2600 0.930 . S
H2638 C2606 0.929 . S
H2639 C2607 0.930 . S
Li2640 N2657 1.990 . S
Li2640 O2700 1.956 . S
Li2640 O2701 1.970 . S
Li2640 O2702 1.961 . S
Li2641 N2665 1.990 . S
Li2641 O2700 1.970 . S
Li2641 O2701 1.956 . S
Li2641 O2703 1.961 . S
Li2642 N2687 1.990 . S
Li2642 O2700 1.961 . S
Li2642 O2702 1.956 . S
Li2642 O2703 1.970 . S
Li2643 N2693 1.990 . S
Li2643 O2701 1.961 . S
Li2643 O2702 1.970 . S
Li2643 O2703 1.956 . S
C2644 C2646 1.348 . S
C2644 C2647 1.356 . S
C2644 O2700 1.325 . S
N2645 C2648 1.314 . S
N2645 C2649 1.279 . S
C2646 C2644 1.348 . S
C2646 C2648 1.353 . S
C2646 H2704 0.929 . S
C2647 C2644 1.356 . S
C2647 C2649 1.358 . S
C2647 H2705 0.930 . S
C2648 N2645 1.314 . S
C2648 C2646 1.353 . S
C2648 H2706 0.930 . S
C2649 N2645 1.279 . S
C2649 C2647 1.358 . S
C2649 H2707 0.930 . S
C2650 C2653 1.348 . S
C2650 C2654 1.356 . S
C2650 O2701 1.325 . S
C2651 N2652 1.279 . S
C2651 C2654 1.358 . S
C2651 H2708 0.930 . S
N2652 C2651 1.279 . S
N2652 C2655 1.314 . S
C2653 C2650 1.348 . S
C2653 C2655 1.353 . S
C2653 H2709 0.929 . S
C2654 C2650 1.356 . S
C2654 C2651 1.358 . S
C2654 H2710 0.930 . S
C2655 N2652 1.314 . S
C2655 C2653 1.353 . S
C2655 H2711 0.930 . S
C2656 N2657 1.314 . S
C2656 C2661 1.353 . S
C2656 H2662 0.930 . S
N2657 Li2640 1.990 . S
N2657 C2656 1.314 . S
N2657 C2659 1.279 . S
C2658 C2659 1.358 . S
C2658 C2660 1.356 . S
C2658 H2712 0.930 . S
C2659 N2657 1.279 . S
C2659 C2658 1.358 . S
C2659 H2663 0.930 . S
C2660 C2658 1.356 . S
C2660 C2661 1.348 . S
C2661 C2656 1.353 . S
C2661 C2660 1.348 . S
C2661 H2713 0.929 . S
H2662 C2656 0.930 . S
H2663 C2659 0.930 . S
C2664 N2665 1.314 . S
C2664 C2666 1.353 . S
C2664 H2670 0.930 . S
N2665 Li2641 1.990 . S
N2665 C2664 1.314 . S
N2665 C2668 1.279 . S
C2666 C2664 1.353 . S
C2666 C2669 1.348 . S
C2666 H2714 0.929 . S
C2667 C2668 1.358 . S
C2667 C2669 1.356 . S
C2667 H2715 0.930 . S
C2668 N2665 1.279 . S
C2668 C2667 1.358 . S
C2668 H2671 0.930 . S
C2669 C2666 1.348 . S
C2669 C2667 1.356 . S
H2670 C2664 0.930 . S
H2671 C2668 0.930 . S
C2672 C2674 1.348 . S
C2672 C2675 1.356 . S
C2672 O2702 1.325 . S
N2673 C2676 1.314 . S
N2673 C2677 1.279 . S
C2674 C2672 1.348 . S
C2674 C2676 1.353 . S
C2674 H2716 0.929 . S
C2675 C2672 1.356 . S
C2675 C2677 1.358 . S
C2675 H2717 0.930 . S
C2676 N2673 1.314 . S
C2676 C2674 1.353 . S
C2676 H2718 0.930 . S
C2677 N2673 1.279 . S
C2677 C2675 1.358 . S
C2677 H2719 0.930 . S
C2678 C2679 1.348 . S
C2678 C2680 1.356 . S
C2678 O2703 1.325 . S
C2679 C2678 1.348 . S
C2679 C2681 1.353 . S
C2679 H2720 0.929 . S
C2680 C2678 1.356 . S
C2680 C2682 1.358 . S
C2680 H2721 0.930 . S
C2681 C2679 1.353 . S
C2681 N2683 1.314 . S
C2681 H2722 0.930 . S
C2682 C2680 1.358 . S
C2682 N2683 1.279 . S
C2682 H2723 0.930 . S
N2683 C2681 1.314 . S
N2683 C2682 1.279 . S
C2684 C2686 1.353 . S
C2684 N2687 1.314 . S
C2684 H2690 0.930 . S
C2685 N2687 1.279 . S
C2685 C2688 1.358 . S
C2685 H2691 0.930 . S
C2686 C2684 1.353 . S
C2686 C2689 1.348 . S
C2686 H2724 0.929 . S
N2687 Li2642 1.990 . S
N2687 C2684 1.314 . S
N2687 C2685 1.279 . S
C2688 C2685 1.358 . S
C2688 C2689 1.356 . S
C2688 H2725 0.930 . S
C2689 C2686 1.348 . S
C2689 C2688 1.356 . S
H2690 C2684 0.930 . S
H2691 C2685 0.930 . S
C2692 N2693 1.314 . S
C2692 C2694 1.353 . S
C2692 H2698 0.930 . S
N2693 Li2643 1.990 . S
N2693 C2692 1.314 . S
N2693 C2696 1.279 . S
C2694 C2692 1.353 . S
C2694 C2697 1.348 . S
C2694 H2726 0.929 . S
C2695 C2696 1.358 . S
C2695 C2697 1.356 . S
C2695 H2727 0.930 . S
C2696 N2693 1.279 . S
C2696 C2695 1.358 . S
C2696 H2699 0.930 . S
C2697 C2694 1.348 . S
C2697 C2695 1.356 . S
H2698 C2692 0.930 . S
H2699 C2696 0.930 . S
O2700 Li2640 1.956 . S
O2700 Li2641 1.970 . S
O2700 Li2642 1.961 . S
O2700 C2644 1.325 . S
O2701 Li2640 1.970 . S
O2701 Li2641 1.956 . S
O2701 Li2643 1.961 . S
O2701 C2650 1.325 . S
O2702 Li2640 1.961 . S
O2702 Li2642 1.956 . S
O2702 Li2643 1.970 . S
O2702 C2672 1.325 . S
O2703 Li2641 1.961 . S
O2703 Li2642 1.970 . S
O2703 Li2643 1.956 . S
O2703 C2678 1.325 . S
H2704 C2646 0.929 . S
H2705 C2647 0.930 . S
H2706 C2648 0.930 . S
H2707 C2649 0.930 . S
H2708 C2651 0.930 . S
H2709 C2653 0.929 . S
H2710 C2654 0.930 . S
H2711 C2655 0.930 . S
H2712 C2658 0.930 . S
H2713 C2661 0.929 . S
H2714 C2666 0.929 . S
H2715 C2667 0.930 . S
H2716 C2674 0.929 . S
H2717 C2675 0.930 . S
H2718 C2676 0.930 . S
H2719 C2677 0.930 . S
H2720 C2679 0.929 . S
H2721 C2680 0.930 . S
H2722 C2681 0.930 . S
H2723 C2682 0.930 . S
H2724 C2686 0.929 . S
H2725 C2688 0.930 . S
H2726 C2694 0.929 . S
H2727 C2695 0.930 . S
Li2728 N2745 1.990 . S
Li2728 O2788 1.956 . S
Li2728 O2789 1.970 . S
Li2728 O2790 1.961 . S
Li2729 N2753 1.990 . S
Li2729 O2788 1.970 . S
Li2729 O2789 1.956 . S
Li2729 O2791 1.961 . S
Li2730 N2775 1.990 . S
Li2730 O2788 1.961 . S
Li2730 O2790 1.956 . S
Li2730 O2791 1.970 . S
Li2731 N2781 1.990 . S
Li2731 O2789 1.961 . S
Li2731 O2790 1.970 . S
Li2731 O2791 1.956 . S
C2732 C2734 1.348 . S
C2732 C2735 1.356 . S
C2732 O2788 1.325 . S
N2733 C2736 1.314 . S
N2733 C2737 1.279 . S
C2734 C2732 1.348 . S
C2734 C2736 1.353 . S
C2734 H2792 0.929 . S
C2735 C2732 1.356 . S
C2735 C2737 1.358 . S
C2735 H2793 0.930 . S
C2736 N2733 1.314 . S
C2736 C2734 1.353 . S
C2736 H2794 0.930 . S
C2737 N2733 1.279 . S
C2737 C2735 1.358 . S
C2737 H2795 0.930 . S
C2738 C2741 1.348 . S
C2738 C2742 1.356 . S
C2738 O2789 1.325 . S
C2739 N2740 1.279 . S
C2739 C2742 1.358 . S
C2739 H2796 0.930 . S
N2740 C2739 1.279 . S
N2740 C2743 1.314 . S
C2741 C2738 1.348 . S
C2741 C2743 1.353 . S
C2741 H2797 0.929 . S
C2742 C2738 1.356 . S
C2742 C2739 1.358 . S
C2742 H2798 0.930 . S
C2743 N2740 1.314 . S
C2743 C2741 1.353 . S
C2743 H2799 0.930 . S
C2744 N2745 1.314 . S
C2744 C2749 1.353 . S
C2744 H2750 0.930 . S
N2745 Li2728 1.990 . S
N2745 C2744 1.314 . S
N2745 C2747 1.279 . S
C2746 C2747 1.358 . S
C2746 C2748 1.356 . S
C2746 H2800 0.930 . S
C2747 N2745 1.279 . S
C2747 C2746 1.358 . S
C2747 H2751 0.930 . S
C2748 C2746 1.356 . S
C2748 C2749 1.348 . S
C2749 C2744 1.353 . S
C2749 C2748 1.348 . S
C2749 H2801 0.929 . S
H2750 C2744 0.930 . S
H2751 C2747 0.930 . S
C2752 N2753 1.314 . S
C2752 C2754 1.353 . S
C2752 H2758 0.930 . S
N2753 Li2729 1.990 . S
N2753 C2752 1.314 . S
N2753 C2756 1.279 . S
C2754 C2752 1.353 . S
C2754 C2757 1.348 . S
C2754 H2802 0.929 . S
C2755 C2756 1.358 . S
C2755 C2757 1.356 . S
C2755 H2803 0.930 . S
C2756 N2753 1.279 . S
C2756 C2755 1.358 . S
C2756 H2759 0.930 . S
C2757 C2754 1.348 . S
C2757 C2755 1.356 . S
H2758 C2752 0.930 . S
H2759 C2756 0.930 . S
C2760 C2762 1.348 . S
C2760 C2763 1.356 . S
C2760 O2790 1.325 . S
N2761 C2764 1.314 . S
N2761 C2765 1.279 . S
C2762 C2760 1.348 . S
C2762 C2764 1.353 . S
C2762 H2804 0.929 . S
C2763 C2760 1.356 . S
C2763 C2765 1.358 . S
C2763 H2805 0.930 . S
C2764 N2761 1.314 . S
C2764 C2762 1.353 . S
C2764 H2806 0.930 . S
C2765 N2761 1.279 . S
C2765 C2763 1.358 . S
C2765 H2807 0.930 . S
C2766 C2767 1.348 . S
C2766 C2768 1.356 . S
C2766 O2791 1.325 . S
C2767 C2766 1.348 . S
C2767 C2769 1.353 . S
C2767 H2808 0.929 . S
C2768 C2766 1.356 . S
C2768 C2770 1.358 . S
C2768 H2809 0.930 . S
C2769 C2767 1.353 . S
C2769 N2771 1.314 . S
C2769 H2810 0.930 . S
C2770 C2768 1.358 . S
C2770 N2771 1.279 . S
C2770 H2811 0.930 . S
N2771 C2769 1.314 . S
N2771 C2770 1.279 . S
C2772 C2774 1.353 . S
C2772 N2775 1.314 . S
C2772 H2778 0.930 . S
C2773 N2775 1.279 . S
C2773 C2776 1.358 . S
C2773 H2779 0.930 . S
C2774 C2772 1.353 . S
C2774 C2777 1.348 . S
C2774 H2812 0.929 . S
N2775 Li2730 1.990 . S
N2775 C2772 1.314 . S
N2775 C2773 1.279 . S
C2776 C2773 1.358 . S
C2776 C2777 1.356 . S
C2776 H2813 0.930 . S
C2777 C2774 1.348 . S
C2777 C2776 1.356 . S
H2778 C2772 0.930 . S
H2779 C2773 0.930 . S
C2780 N2781 1.314 . S
C2780 C2782 1.353 . S
C2780 H2786 0.930 . S
N2781 Li2731 1.990 . S
N2781 C2780 1.314 . S
N2781 C2784 1.279 . S
C2782 C2780 1.353 . S
C2782 C2785 1.348 . S
C2782 H2814 0.929 . S
C2783 C2784 1.358 . S
C2783 C2785 1.356 . S
C2783 H2815 0.930 . S
C2784 N2781 1.279 . S
C2784 C2783 1.358 . S
C2784 H2787 0.930 . S
C2785 C2782 1.348 . S
C2785 C2783 1.356 . S
H2786 C2780 0.930 . S
H2787 C2784 0.930 . S
O2788 Li2728 1.956 . S
O2788 Li2729 1.970 . S
O2788 Li2730 1.961 . S
O2788 C2732 1.325 . S
O2789 Li2728 1.970 . S
O2789 Li2729 1.956 . S
O2789 Li2731 1.961 . S
O2789 C2738 1.325 . S
O2790 Li2728 1.961 . S
O2790 Li2730 1.956 . S
O2790 Li2731 1.970 . S
O2790 C2760 1.325 . S
O2791 Li2729 1.961 . S
O2791 Li2730 1.970 . S
O2791 Li2731 1.956 . S
O2791 C2766 1.325 . S
H2792 C2734 0.929 . S
H2793 C2735 0.930 . S
H2794 C2736 0.930 . S
H2795 C2737 0.930 . S
H2796 C2739 0.930 . S
H2797 C2741 0.929 . S
H2798 C2742 0.930 . S
H2799 C2743 0.930 . S
H2800 C2746 0.930 . S
H2801 C2749 0.929 . S
H2802 C2754 0.929 . S
H2803 C2755 0.930 . S
H2804 C2762 0.929 . S
H2805 C2763 0.930 . S
H2806 C2764 0.930 . S
H2807 C2765 0.930 . S
H2808 C2767 0.929 . S
H2809 C2768 0.930 . S
H2810 C2769 0.930 . S
H2811 C2770 0.930 . S
H2812 C2774 0.929 . S
H2813 C2776 0.930 . S
H2814 C2782 0.929 . S
H2815 C2783 0.930 . S
H2816 C2824 0.929 . S
H2817 C2826 0.930 . S
H2818 C2828 0.930 . S
H2819 C2831 0.929 . S
H2820 C2834 0.930 . S
H2821 C2836 0.960 1_556 S
H2822 C2836 0.959 . S
H2823 C2836 0.960 1_546 S
C2824 H2816 0.929 . S
C2824 C2825 1.377 . S
C2824 C2826 1.384 . S
C2825 C2824 1.377 . S
C2825 C2831 1.390 . S
C2826 H2817 0.930 . S
C2826 C2824 1.384 . S
C2826 C2827 1.372 . S
C2827 C2826 1.372 . S
C2827 C2828 1.400 . S
C2827 C2832 1.490 . S
C2828 H2818 0.930 . S
C2828 C2827 1.400 . S
C2828 C2831 1.386 . S
H2829 C2845 0.930 . S
H2830 C2846 0.931 . S
C2831 H2819 0.929 . S
C2831 C2825 1.390 . S
C2831 C2828 1.386 . S
C2832 C2827 1.490 . S
C2832 C2834 1.395 1_455 S
C2832 C2835 1.424 1_545 S
H2833 C2839 0.930 . S
C2834 H2820 0.930 . S
C2834 C2832 1.395 1_655 S
C2834 C2837 1.403 . S
C2835 C2832 1.424 1_565 S
C2835 C2836 1.523 . S
C2835 C2839 1.380 1_554 S
C2836 H2821 0.960 1_554 S
C2836 H2822 0.959 . S
C2836 H2823 0.960 1_564 S
C2836 C2835 1.523 . S
C2837 C2834 1.403 . S
C2837 C2838 1.392 1_544 S
C2837 C2841 1.495 . S
C2838 C2837 1.392 1_566 S
C2838 C2839 1.385 1_655 S
C2838 C2840 1.478 . S
C2839 H2833 0.930 . S
C2839 C2835 1.380 1_556 S
C2839 C2838 1.385 1_455 S
C2840 C2838 1.478 . S
C2840 C2842 1.381 . S
C2840 C2846 1.383 . S
C2841 C2837 1.495 . S
C2841 H2847 0.959 . S
C2841 H2848 0.961 1_554 S
C2841 H2849 0.960 1_545 S
C2842 C2840 1.381 . S
C2842 C2843 1.394 . S
C2842 H2850 0.930 . S
C2843 C2842 1.394 . S
C2843 C2844 1.383 . S
C2843 H2851 0.929 . S
C2844 C2843 1.383 . S
C2844 C2845 1.377 . S
C2845 H2829 0.930 . S
C2845 C2844 1.377 . S
C2845 C2846 1.379 . S
C2846 H2830 0.931 . S
C2846 C2840 1.383 . S
C2846 C2845 1.379 . S
H2847 C2841 0.959 . S
H2848 C2841 0.961 1_556 S
H2849 C2841 0.960 1_565 S
H2850 C2842 0.930 . S
H2851 C2843 0.929 . S
H2852 C2860 0.929 . S
H2853 C2862 0.930 . S
H2854 C2864 0.930 . S
H2855 C2867 0.929 . S
H2856 C2870 0.930 . S
H2857 C2872 0.960 . S
H2858 C2872 0.960 . S
H2859 C2872 0.960 . S
C2860 H2852 0.929 . S
C2860 C2861 1.377 . S
C2860 C2862 1.384 . S
C2861 C2860 1.377 . S
C2861 C2867 1.390 . S
C2862 H2853 0.930 . S
C2862 C2860 1.384 . S
C2862 C2863 1.372 . S
C2863 C2862 1.372 . S
C2863 C2864 1.400 . S
C2863 C2868 1.490 . S
C2864 H2854 0.930 . S
C2864 C2863 1.400 . S
C2864 C2867 1.386 . S
H2865 C2881 0.930 . S
H2866 C2882 0.931 . S
C2867 H2855 0.929 . S
C2867 C2861 1.390 . S
C2867 C2864 1.386 . S
C2868 C2863 1.490 . S
C2868 C2870 1.395 . S
C2868 C2871 1.403 . S
H2869 C2875 0.930 . S
C2870 H2856 0.930 . S
C2870 C2868 1.395 . S
C2870 C2873 1.403 . S
C2871 C2868 1.403 . S
C2871 C2872 1.524 . S
C2871 C2875 1.400 . S
C2872 H2857 0.960 . S
C2872 H2858 0.960 . S
C2872 H2859 0.960 . S
C2872 C2871 1.524 . S
C2873 C2870 1.403 . S
C2873 C2874 1.392 . S
C2873 C2877 1.495 . S
C2874 C2873 1.392 . S
C2874 C2875 1.385 . S
C2874 C2876 1.478 . S
C2875 H2869 0.930 . S
C2875 C2871 1.400 . S
C2875 C2874 1.385 . S
C2876 C2874 1.478 . S
C2876 C2878 1.381 . S
C2876 C2882 1.383 . S
C2877 C2873 1.495 . S
C2877 H2883 0.959 . S
C2877 H2884 0.961 . S
C2877 H2885 0.960 . S
C2878 C2876 1.381 . S
C2878 C2879 1.394 . S
C2878 H2886 0.930 . S
C2879 C2878 1.394 . S
C2879 C2880 1.383 . S
C2879 H2887 0.929 . S
C2880 C2879 1.383 . S
C2880 C2881 1.377 . S
C2881 H2865 0.930 . S
C2881 C2880 1.377 . S
C2881 C2882 1.379 . S
C2882 H2866 0.931 . S
C2882 C2876 1.383 . S
C2882 C2881 1.379 . S
H2883 C2877 0.959 . S
H2884 C2877 0.961 . S
H2885 C2877 0.960 . S
H2886 C2878 0.930 . S
H2887 C2879 0.929 . S
H2888 C2896 0.929 . S
H2889 C2898 0.930 . S
H2890 C2900 0.930 . S
H2891 C2903 0.929 . S
H2892 C2906 0.930 . S
H2893 C2908 0.960 . S
H2894 C2908 0.960 . S
H2895 C2908 0.960 . S
C2896 H2888 0.929 . S
C2896 C2897 1.377 . S
C2896 C2898 1.384 . S
C2897 C2896 1.377 . S
C2897 C2903 1.390 . S
C2898 H2889 0.930 . S
C2898 C2896 1.384 . S
C2898 C2899 1.372 . S
C2899 C2898 1.372 . S
C2899 C2900 1.400 . S
C2899 C2904 1.490 . S
C2900 H2890 0.930 . S
C2900 C2899 1.400 . S
C2900 C2903 1.386 . S
H2901 C2917 0.930 . S
H2902 C2918 0.931 . S
C2903 H2891 0.929 . S
C2903 C2897 1.390 . S
C2903 C2900 1.386 . S
C2904 C2899 1.490 . S
C2904 C2906 1.395 1_565 S
C2904 C2907 1.403 . S
H2905 C2911 0.930 . S
C2906 H2892 0.930 . S
C2906 C2904 1.395 1_545 S
C2906 C2909 1.403 . S
C2907 C2904 1.403 . S
C2907 C2908 1.524 . S
C2907 C2911 1.400 . S
C2908 H2893 0.960 . S
C2908 H2894 0.960 . S
C2908 H2895 0.960 . S
C2908 C2907 1.524 . S
C2909 C2906 1.403 . S
C2909 C2910 1.392 . S
C2909 C2913 1.495 . S
C2910 C2909 1.392 . S
C2910 C2911 1.385 1_545 S
C2910 C2912 1.478 . S
C2911 H2905 0.930 . S
C2911 C2907 1.400 . S
C2911 C2910 1.385 1_565 S
C2912 C2910 1.478 . S
C2912 C2914 1.381 . S
C2912 C2918 1.383 . S
C2913 C2909 1.495 . S
C2913 H2919 0.959 . S
C2913 H2920 0.961 . S
C2913 H2921 0.960 . S
C2914 C2912 1.381 . S
C2914 C2915 1.394 . S
C2914 H2922 0.930 . S
C2915 C2914 1.394 . S
C2915 C2916 1.383 . S
C2915 H2923 0.929 . S
C2916 C2915 1.383 . S
C2916 C2917 1.377 . S
C2917 H2901 0.930 . S
C2917 C2916 1.377 . S
C2917 C2918 1.379 . S
C2918 H2902 0.931 . S
C2918 C2912 1.383 . S
C2918 C2917 1.379 . S
H2919 C2913 0.959 . S
H2920 C2913 0.961 . S
H2921 C2913 0.960 . S
H2922 C2914 0.930 . S
H2923 C2915 0.929 . S
H2924 C2932 0.929 . S
H2925 C2934 0.930 . S
H2926 C2936 0.930 . S
H2927 C2939 0.929 . S
H2928 C2942 0.930 . S
H2929 C2944 0.960 . S
H2930 C2944 0.960 . S
H2931 C2944 0.960 . S
C2932 H2924 0.929 . S
C2932 C2933 1.377 . S
C2932 C2934 1.384 . S
C2933 C2932 1.377 . S
C2933 C2939 1.390 . S
C2934 H2925 0.930 . S
C2934 C2932 1.384 . S
C2934 C2935 1.372 . S
C2935 C2934 1.372 . S
C2935 C2936 1.400 . S
C2935 C2940 1.490 . S
C2936 H2926 0.930 . S
C2936 C2935 1.400 . S
C2936 C2939 1.386 . S
H2937 C2953 0.930 . S
H2938 C2954 0.931 . S
C2939 H2927 0.929 . S
C2939 C2933 1.390 . S
C2939 C2936 1.386 . S
C2940 C2935 1.490 . S
C2940 C2942 1.395 . S
C2940 C2943 1.403 . S
H2941 C2947 0.930 . S
C2942 H2928 0.930 . S
C2942 C2940 1.395 . S
C2942 C2945 1.403 . S
C2943 C2940 1.403 . S
C2943 C2944 1.524 . S
C2943 C2947 1.400 . S
C2944 H2929 0.960 . S
C2944 H2930 0.960 . S
C2944 H2931 0.960 . S
C2944 C2943 1.524 . S
C2945 C2942 1.403 . S
C2945 C2946 1.392 . S
C2945 C2949 1.495 . S
C2946 C2945 1.392 . S
C2946 C2947 1.385 . S
C2946 C2948 1.478 . S
C2947 H2941 0.930 . S
C2947 C2943 1.400 . S
C2947 C2946 1.385 . S
C2948 C2946 1.478 . S
C2948 C2950 1.381 . S
C2948 C2954 1.383 . S
C2949 C2945 1.495 . S
C2949 H2955 0.959 . S
C2949 H2956 0.961 . S
C2949 H2957 0.960 . S
C2950 C2948 1.381 . S
C2950 C2951 1.394 . S
C2950 H2958 0.930 . S
C2951 C2950 1.394 . S
C2951 C2952 1.383 . S
C2951 H2959 0.929 . S
C2952 C2951 1.383 . S
C2952 C2953 1.377 . S
C2953 H2937 0.930 . S
C2953 C2952 1.377 . S
C2953 C2954 1.379 . S
C2954 H2938 0.931 . S
C2954 C2948 1.383 . S
C2954 C2953 1.379 . S
H2955 C2949 0.959 . S
H2956 C2949 0.961 . S
H2957 C2949 0.960 . S
H2958 C2950 0.930 . S
H2959 C2951 0.929 . S
H2960 C2968 0.929 . S
H2961 C2970 0.930 . S
H2962 C2972 0.930 . S
H2963 C2975 0.929 . S
H2964 C2978 0.930 . S
H2965 C2980 0.960 . S
H2966 C2980 0.960 1_565 S
H2967 C2980 0.960 1_455 S
C2968 H2960 0.929 . S
C2968 C2969 1.377 . S
C2968 C2970 1.384 . S
C2969 C2968 1.377 . S
C2969 C2975 1.390 . S
C2970 H2961 0.930 . S
C2970 C2968 1.384 . S
C2970 C2971 1.372 . S
C2971 C2970 1.372 . S
C2971 C2972 1.400 . S
C2971 C2976 1.490 . S
C2972 H2962 0.930 . S
C2972 C2971 1.400 . S
C2972 C2975 1.386 . S
H2973 C2989 0.930 . S
H2974 C2990 0.931 . S
C2975 H2963 0.929 . S
C2975 C2969 1.390 . S
C2975 C2972 1.386 . S
C2976 C2971 1.490 . S
C2976 C2978 1.395 . S
C2976 C2979 1.402 1_565 S
H2977 C2983 0.930 . S
C2978 H2964 0.930 . S
C2978 C2976 1.395 . S
C2978 C2981 1.401 1_455 S
C2979 C2976 1.402 1_545 S
C2979 C2980 1.524 1_455 S
C2979 C2983 1.401 1_455 S
C2980 H2965 0.960 . S
C2980 H2966 0.960 1_545 S
C2980 H2967 0.960 1_655 S
C2980 C2979 1.524 1_655 S
C2981 C2978 1.401 1_655 S
C2981 C2982 1.395 1_565 S
C2981 C2985 1.495 1_655 S
C2982 C2981 1.395 1_545 S
C2982 C2983 1.385 . S
C2982 C2984 1.478 . S
C2983 H2977 0.930 . S
C2983 C2979 1.401 1_655 S
C2983 C2982 1.385 . S
C2984 C2982 1.478 . S
C2984 C2986 1.381 . S
C2984 C2990 1.383 . S
C2985 C2981 1.495 1_455 S
C2985 H2991 0.966 . S
C2985 H2992 0.971 . S
C2985 H2993 0.949 1_455 S
C2986 C2984 1.381 . S
C2986 C2987 1.394 . S
C2986 H2994 0.930 . S
C2987 C2986 1.394 . S
C2987 C2988 1.383 . S
C2987 H2995 0.929 . S
C2988 C2987 1.383 . S
C2988 C2989 1.377 . S
C2989 H2973 0.930 . S
C2989 C2988 1.377 . S
C2989 C2990 1.379 . S
C2990 H2974 0.931 . S
C2990 C2984 1.383 . S
C2990 C2989 1.379 . S
H2991 C2985 0.966 . S
H2992 C2985 0.971 . S
H2993 C2985 0.949 1_655 S
H2994 C2986 0.930 . S
H2995 C2987 0.929 . S
H2996 C3004 0.929 . S
H2997 C3006 0.930 . S
H2998 C3008 0.930 . S
H2999 C3011 0.929 . S
H3000 C3014 0.930 . S
H3001 C3016 0.960 . S
H3002 C3016 0.960 . S
H3003 C3016 0.960 . S
C3004 H2996 0.929 . S
C3004 C3005 1.377 . S
C3004 C3006 1.384 . S
C3005 C3004 1.377 . S
C3005 C3011 1.390 . S
C3006 H2997 0.930 . S
C3006 C3004 1.384 . S
C3006 C3007 1.372 . S
C3007 C3006 1.372 . S
C3007 C3008 1.400 . S
C3007 C3012 1.490 . S
C3008 H2998 0.930 . S
C3008 C3007 1.400 . S
C3008 C3011 1.386 . S
H3009 C3025 0.930 . S
H3010 C3026 0.931 . S
C3011 H2999 0.929 . S
C3011 C3005 1.390 . S
C3011 C3008 1.386 . S
C3012 C3007 1.490 . S
C3012 C3014 1.395 . S
C3012 C3015 1.403 . S
H3013 C3019 0.930 . S
C3014 H3000 0.930 . S
C3014 C3012 1.395 . S
C3014 C3017 1.403 . S
C3015 C3012 1.403 . S
C3015 C3016 1.524 . S
C3015 C3019 1.400 . S
C3016 H3001 0.960 . S
C3016 H3002 0.960 . S
C3016 H3003 0.960 . S
C3016 C3015 1.524 . S
C3017 C3014 1.403 . S
C3017 C3018 1.392 . S
C3017 C3021 1.495 . S
C3018 C3017 1.392 . S
C3018 C3019 1.385 . S
C3018 C3020 1.478 . S
C3019 H3013 0.930 . S
C3019 C3015 1.400 . S
C3019 C3018 1.385 . S
C3020 C3018 1.478 . S
C3020 C3022 1.381 . S
C3020 C3026 1.383 . S
C3021 C3017 1.495 . S
C3021 H3027 0.959 . S
C3021 H3028 0.961 . S
C3021 H3029 0.960 . S
C3022 C3020 1.381 . S
C3022 C3023 1.394 . S
C3022 H3030 0.930 . S
C3023 C3022 1.394 . S
C3023 C3024 1.383 . S
C3023 H3031 0.929 . S
C3024 C3023 1.383 . S
C3024 C3025 1.377 . S
C3025 H3009 0.930 . S
C3025 C3024 1.377 . S
C3025 C3026 1.379 . S
C3026 H3010 0.931 . S
C3026 C3020 1.383 . S
C3026 C3025 1.379 . S
H3027 C3021 0.959 . S
H3028 C3021 0.961 . S
H3029 C3021 0.960 . S
H3030 C3022 0.930 . S
H3031 C3023 0.929 . S
H3032 C3040 0.929 . S
H3033 C3042 0.930 . S
H3034 C3044 0.930 . S
H3035 C3047 0.929 . S
H3036 C3050 0.930 . S
H3037 C3052 0.960 . S
H3038 C3052 0.960 . S
H3039 C3052 0.960 . S
C3040 H3032 0.929 . S
C3040 C3041 1.377 . S
C3040 C3042 1.384 . S
C3041 C3040 1.377 . S
C3041 C3047 1.390 . S
C3042 H3033 0.930 . S
C3042 C3040 1.384 . S
C3042 C3043 1.372 . S
C3043 C3042 1.372 . S
C3043 C3044 1.400 . S
C3043 C3048 1.490 . S
C3044 H3034 0.930 . S
C3044 C3043 1.400 . S
C3044 C3047 1.386 . S
H3045 C3061 0.930 . S
H3046 C3062 0.931 . S
C3047 H3035 0.929 . S
C3047 C3041 1.390 . S
C3047 C3044 1.386 . S
C3048 C3043 1.490 . S
C3048 C3050 1.395 . S
C3048 C3051 1.403 1_545 S
H3049 C3055 0.930 . S
C3050 H3036 0.930 . S
C3050 C3048 1.395 . S
C3050 C3053 1.403 1_556 S
C3051 C3048 1.403 1_565 S
C3051 C3052 1.524 . S
C3051 C3055 1.400 1_556 S
C3052 H3037 0.960 . S
C3052 H3038 0.960 . S
C3052 H3039 0.960 . S
C3052 C3051 1.524 . S
C3053 C3050 1.403 1_554 S
C3053 C3054 1.392 1_545 S
C3053 C3057 1.495 . S
C3054 C3053 1.392 1_565 S
C3054 C3055 1.385 . S
C3054 C3056 1.478 . S
C3055 H3049 0.930 . S
C3055 C3051 1.400 1_554 S
C3055 C3054 1.385 . S
C3056 C3054 1.478 . S
C3056 C3058 1.381 . S
C3056 C3062 1.383 . S
C3057 C3053 1.495 . S
C3057 H3063 0.959 . S
C3057 H3064 0.961 . S
C3057 H3065 0.960 . S
C3058 C3056 1.381 . S
C3058 C3059 1.394 . S
C3058 H3066 0.930 . S
C3059 C3058 1.394 . S
C3059 C3060 1.383 . S
C3059 H3067 0.929 . S
C3060 C3059 1.383 . S
C3060 C3061 1.377 . S
C3061 H3045 0.930 . S
C3061 C3060 1.377 . S
C3061 C3062 1.379 . S
C3062 H3046 0.931 . S
C3062 C3056 1.383 . S
C3062 C3061 1.379 . S
H3063 C3057 0.959 . S
H3064 C3057 0.961 . S
H3065 C3057 0.960 . S
H3066 C3058 0.930 . S
H3067 C3059 0.929 . S
H3068 C3076 0.929 . S
H3069 C3078 0.930 . S
H3070 C3080 0.930 . S
H3071 C3083 0.929 . S
H3072 C3086 0.930 . S
H3073 C3088 0.960 . S
H3074 C3088 0.960 . S
H3075 C3088 0.960 . S
C3076 H3068 0.929 . S
C3076 C3077 1.377 . S
C3076 C3078 1.384 . S
C3077 C3076 1.377 . S
C3077 C3083 1.390 . S
C3078 H3069 0.930 . S
C3078 C3076 1.384 . S
C3078 C3079 1.372 . S
C3079 C3078 1.372 . S
C3079 C3080 1.400 . S
C3079 C3084 1.490 . S
C3080 H3070 0.930 . S
C3080 C3079 1.400 . S
C3080 C3083 1.386 . S
H3081 C3097 0.930 . S
H3082 C3098 0.931 . S
C3083 H3071 0.929 . S
C3083 C3077 1.390 . S
C3083 C3080 1.386 . S
C3084 C3079 1.490 . S
C3084 C3086 1.395 . S
C3084 C3087 1.403 . S
H3085 C3091 0.930 . S
C3086 H3072 0.930 . S
C3086 C3084 1.395 . S
C3086 C3089 1.403 . S
C3087 C3084 1.403 . S
C3087 C3088 1.524 . S
C3087 C3091 1.400 . S
C3088 H3073 0.960 . S
C3088 H3074 0.960 . S
C3088 H3075 0.960 . S
C3088 C3087 1.524 . S
C3089 C3086 1.403 . S
C3089 C3090 1.392 . S
C3089 C3093 1.495 . S
C3090 C3089 1.392 . S
C3090 C3091 1.385 . S
C3090 C3092 1.478 . S
C3091 H3085 0.930 . S
C3091 C3087 1.400 . S
C3091 C3090 1.385 . S
C3092 C3090 1.478 . S
C3092 C3094 1.381 . S
C3092 C3098 1.383 . S
C3093 C3089 1.495 . S
C3093 H3099 0.959 . S
C3093 H3100 0.961 . S
C3093 H3101 0.960 . S
C3094 C3092 1.381 . S
C3094 C3095 1.394 . S
C3094 H3102 0.930 . S
C3095 C3094 1.394 . S
C3095 C3096 1.383 . S
C3095 H3103 0.929 . S
C3096 C3095 1.383 . S
C3096 C3097 1.377 . S
C3097 H3081 0.930 . S
C3097 C3096 1.377 . S
C3097 C3098 1.379 . S
C3098 H3082 0.931 . S
C3098 C3092 1.383 . S
C3098 C3097 1.379 . S
H3099 C3093 0.959 . S
H3100 C3093 0.961 . S
H3101 C3093 0.960 . S
H3102 C3094 0.930 . S
H3103 C3095 0.929 . S
H3104 C3112 0.929 . S
H3105 C3114 0.930 . S
H3106 C3116 0.930 . S
H3107 C3119 0.929 . S
H3108 C3122 0.930 . S
H3109 C3124 0.960 . S
H3110 C3124 0.960 . S
H3111 C3124 0.960 . S
C3112 H3104 0.929 . S
C3112 C3113 1.377 . S
C3112 C3114 1.384 . S
C3113 C3112 1.377 . S
C3113 C3119 1.390 . S
C3114 H3105 0.930 . S
C3114 C3112 1.384 . S
C3114 C3115 1.372 . S
C3115 C3114 1.372 . S
C3115 C3116 1.400 . S
C3115 C3120 1.490 . S
C3116 H3106 0.930 . S
C3116 C3115 1.400 . S
C3116 C3119 1.386 . S
H3117 C3133 0.930 . S
H3118 C3134 0.931 . S
C3119 H3107 0.929 . S
C3119 C3113 1.390 . S
C3119 C3116 1.386 . S
C3120 C3115 1.490 . S
C3120 C3122 1.395 1_554 S
C3120 C3123 1.403 . S
H3121 C3127 0.930 . S
C3122 H3108 0.930 . S
C3122 C3120 1.395 1_556 S
C3122 C3125 1.403 . S
C3123 C3120 1.403 . S
C3123 C3124 1.524 . S
C3123 C3127 1.400 . S
C3124 H3109 0.960 . S
C3124 H3110 0.960 . S
C3124 H3111 0.960 . S
C3124 C3123 1.524 . S
C3125 C3122 1.403 . S
C3125 C3126 1.392 . S
C3125 C3129 1.495 . S
C3126 C3125 1.392 . S
C3126 C3127 1.385 1_556 S
C3126 C3128 1.478 . S
C3127 H3121 0.930 . S
C3127 C3123 1.400 . S
C3127 C3126 1.385 1_554 S
C3128 C3126 1.478 . S
C3128 C3130 1.381 . S
C3128 C3134 1.383 . S
C3129 C3125 1.495 . S
C3129 H3135 0.959 . S
C3129 H3136 0.961 . S
C3129 H3137 0.960 . S
C3130 C3128 1.381 . S
C3130 C3131 1.394 . S
C3130 H3138 0.930 . S
C3131 C3130 1.394 . S
C3131 C3132 1.383 . S
C3131 H3139 0.929 . S
C3132 C3131 1.383 . S
C3132 C3133 1.377 . S
C3133 H3117 0.930 . S
C3133 C3132 1.377 . S
C3133 C3134 1.379 . S
C3134 H3118 0.931 . S
C3134 C3128 1.383 . S
C3134 C3133 1.379 . S
H3135 C3129 0.959 . S
H3136 C3129 0.961 . S
H3137 C3129 0.960 . S
H3138 C3130 0.930 . S
H3139 C3131 0.929 . S
H3140 C3148 0.929 . S
H3141 C3150 0.930 . S
H3142 C3152 0.930 . S
H3143 C3155 0.929 . S
H3144 C3158 0.930 . S
H3145 C3160 0.960 . S
H3146 C3160 0.960 . S
H3147 C3160 0.960 . S
C3148 H3140 0.929 . S
C3148 C3149 1.377 . S
C3148 C3150 1.384 . S
C3149 C3148 1.377 . S
C3149 C3155 1.390 . S
C3150 H3141 0.930 . S
C3150 C3148 1.384 . S
C3150 C3151 1.372 . S
C3151 C3150 1.372 . S
C3151 C3152 1.400 . S
C3151 C3156 1.490 . S
C3152 H3142 0.930 . S
C3152 C3151 1.400 . S
C3152 C3155 1.386 . S
H3153 C3169 0.930 . S
H3154 C3170 0.931 . S
C3155 H3143 0.929 . S
C3155 C3149 1.390 . S
C3155 C3152 1.386 . S
C3156 C3151 1.490 . S
C3156 C3158 1.395 . S
C3156 C3159 1.403 . S
H3157 C3163 0.930 . S
C3158 H3144 0.930 . S
C3158 C3156 1.395 . S
C3158 C3161 1.403 . S
C3159 C3156 1.403 . S
C3159 C3160 1.524 . S
C3159 C3163 1.400 . S
C3160 H3145 0.960 . S
C3160 H3146 0.960 . S
C3160 H3147 0.960 . S
C3160 C3159 1.524 . S
C3161 C3158 1.403 . S
C3161 C3162 1.392 . S
C3161 C3165 1.495 . S
C3162 C3161 1.392 . S
C3162 C3163 1.385 . S
C3162 C3164 1.478 . S
C3163 H3157 0.930 . S
C3163 C3159 1.400 . S
C3163 C3162 1.385 . S
C3164 C3162 1.478 . S
C3164 C3166 1.381 . S
C3164 C3170 1.383 . S
C3165 C3161 1.495 . S
C3165 H3171 0.959 . S
C3165 H3172 0.961 . S
C3165 H3173 0.960 . S
C3166 C3164 1.381 . S
C3166 C3167 1.394 . S
C3166 H3174 0.930 . S
C3167 C3166 1.394 . S
C3167 C3168 1.383 . S
C3167 H3175 0.929 . S
C3168 C3167 1.383 . S
C3168 C3169 1.377 . S
C3169 H3153 0.930 . S
C3169 C3168 1.377 . S
C3169 C3170 1.379 . S
C3170 H3154 0.931 . S
C3170 C3164 1.383 . S
C3170 C3169 1.379 . S
H3171 C3165 0.959 . S
H3172 C3165 0.961 . S
H3173 C3165 0.960 . S
H3174 C3166 0.930 . S
H3175 C3167 0.929 . S
H3176 C3184 0.929 . S
H3177 C3186 0.930 . S
H3178 C3188 0.930 . S
H3179 C3191 0.929 . S
H3180 C3194 0.930 . S
H3181 C3196 0.960 . S
H3182 C3196 0.960 1_455 S
H3183 C3196 0.960 . S
C3184 H3176 0.929 . S
C3184 C3185 1.377 . S
C3184 C3186 1.384 . S
C3185 C3184 1.377 . S
C3185 C3191 1.390 . S
C3186 H3177 0.930 . S
C3186 C3184 1.384 . S
C3186 C3187 1.372 . S
C3187 C3186 1.372 . S
C3187 C3188 1.400 . S
C3187 C3192 1.490 . S
C3188 H3178 0.930 . S
C3188 C3187 1.400 . S
C3188 C3191 1.386 . S
H3189 C3205 0.930 . S
H3190 C3206 0.931 . S
C3191 H3179 0.929 . S
C3191 C3185 1.390 . S
C3191 C3188 1.386 . S
C3192 C3187 1.490 . S
C3192 C3194 1.395 . S
C3192 C3195 1.359 1_455 S
H3193 C3199 0.930 . S
C3194 H3180 0.930 . S
C3194 C3192 1.395 . S
C3194 C3197 1.403 . S
C3195 C3192 1.359 1_655 S
C3195 C3196 1.534 . S
C3195 C3199 1.437 . S
C3196 H3181 0.960 . S
C3196 H3182 0.960 1_655 S
C3196 H3183 0.960 . S
C3196 C3195 1.534 . S
C3197 C3194 1.403 . S
C3197 C3198 1.392 1_455 S
C3197 C3201 1.495 . S
C3198 C3197 1.392 1_655 S
C3198 C3199 1.385 . S
C3198 C3200 1.478 . S
C3199 H3193 0.930 . S
C3199 C3195 1.437 . S
C3199 C3198 1.385 . S
C3200 C3198 1.478 . S
C3200 C3202 1.381 . S
C3200 C3206 1.383 . S
C3201 C3197 1.495 . S
C3201 H3207 0.959 . S
C3201 H3208 0.961 1_455 S
C3201 H3209 0.960 . S
C3202 C3200 1.381 . S
C3202 C3203 1.394 . S
C3202 H3210 0.930 . S
C3203 C3202 1.394 . S
C3203 C3204 1.383 . S
C3203 H3211 0.929 . S
C3204 C3203 1.383 . S
C3204 C3205 1.377 . S
C3205 H3189 0.930 . S
C3205 C3204 1.377 . S
C3205 C3206 1.379 . S
C3206 H3190 0.931 . S
C3206 C3200 1.383 . S
C3206 C3205 1.379 . S
H3207 C3201 0.959 . S
H3208 C3201 0.961 1_655 S
H3209 C3201 0.960 . S
H3210 C3202 0.930 . S
H3211 C3203 0.929 . S
H3212 C3220 0.929 . S
H3213 C3222 0.930 . S
H3214 C3224 0.930 . S
H3215 C3227 0.929 . S
H3216 C3230 0.930 . S
H3217 C3232 0.960 . S
H3218 C3232 0.960 . S
H3219 C3232 0.960 . S
C3220 H3212 0.929 . S
C3220 C3221 1.377 . S
C3220 C3222 1.384 . S
C3221 C3220 1.377 . S
C3221 C3227 1.390 . S
C3222 H3213 0.930 . S
C3222 C3220 1.384 . S
C3222 C3223 1.372 . S
C3223 C3222 1.372 . S
C3223 C3224 1.400 . S
C3223 C3228 1.490 . S
C3224 H3214 0.930 . S
C3224 C3223 1.400 . S
C3224 C3227 1.386 . S
H3225 C3241 0.930 . S
H3226 C3242 0.931 . S
C3227 H3215 0.929 . S
C3227 C3221 1.390 . S
C3227 C3224 1.386 . S
C3228 C3223 1.490 . S
C3228 C3230 1.395 . S
C3228 C3231 1.403 . S
H3229 C3235 0.930 . S
C3230 H3216 0.930 . S
C3230 C3228 1.395 . S
C3230 C3233 1.403 . S
C3231 C3228 1.403 . S
C3231 C3232 1.524 . S
C3231 C3235 1.400 . S
C3232 H3217 0.960 . S
C3232 H3218 0.960 . S
C3232 H3219 0.960 . S
C3232 C3231 1.524 . S
C3233 C3230 1.403 . S
C3233 C3234 1.392 . S
C3233 C3237 1.495 . S
C3234 C3233 1.392 . S
C3234 C3235 1.385 . S
C3234 C3236 1.478 . S
C3235 H3229 0.930 . S
C3235 C3231 1.400 . S
C3235 C3234 1.385 . S
C3236 C3234 1.478 . S
C3236 C3238 1.381 . S
C3236 C3242 1.383 . S
C3237 C3233 1.495 . S
C3237 H3243 0.959 . S
C3237 H3244 0.961 . S
C3237 H3245 0.960 . S
C3238 C3236 1.381 . S
C3238 C3239 1.394 . S
C3238 H3246 0.930 . S
C3239 C3238 1.394 . S
C3239 C3240 1.383 . S
C3239 H3247 0.929 . S
C3240 C3239 1.383 . S
C3240 C3241 1.377 . S
C3241 H3225 0.930 . S
C3241 C3240 1.377 . S
C3241 C3242 1.379 . S
C3242 H3226 0.931 . S
C3242 C3236 1.383 . S
C3242 C3241 1.379 . S
H3243 C3237 0.959 . S
H3244 C3237 0.961 . S
H3245 C3237 0.960 . S
H3246 C3238 0.930 . S
H3247 C3239 0.929 . S
H3248 C3256 0.929 . S
H3249 C3258 0.930 . S
H3250 C3260 0.930 . S
H3251 C3263 0.929 . S
H3252 C3266 0.930 . S
H3253 C3268 0.960 . S
H3254 C3268 0.960 . S
H3255 C3268 0.960 . S
C3256 H3248 0.929 . S
C3256 C3257 1.377 . S
C3256 C3258 1.384 . S
C3257 C3256 1.377 . S
C3257 C3263 1.390 . S
C3258 H3249 0.930 . S
C3258 C3256 1.384 . S
C3258 C3259 1.372 . S
C3259 C3258 1.372 . S
C3259 C3260 1.400 . S
C3259 C3264 1.490 . S
C3260 H3250 0.930 . S
C3260 C3259 1.400 . S
C3260 C3263 1.386 . S
H3261 C3277 0.930 . S
H3262 C3278 0.931 . S
C3263 H3251 0.929 . S
C3263 C3257 1.390 . S
C3263 C3260 1.386 . S
C3264 C3259 1.490 . S
C3264 C3266 1.395 . S
C3264 C3267 1.403 . S
H3265 C3271 0.930 . S
C3266 H3252 0.930 . S
C3266 C3264 1.395 . S
C3266 C3269 1.403 . S
C3267 C3264 1.403 . S
C3267 C3268 1.524 . S
C3267 C3271 1.400 . S
C3268 H3253 0.960 . S
C3268 H3254 0.960 . S
C3268 H3255 0.960 . S
C3268 C3267 1.524 . S
C3269 C3266 1.403 . S
C3269 C3270 1.392 . S
C3269 C3273 1.495 . S
C3270 C3269 1.392 . S
C3270 C3271 1.385 . S
C3270 C3272 1.478 . S
C3271 H3265 0.930 . S
C3271 C3267 1.400 . S
C3271 C3270 1.385 . S
C3272 C3270 1.478 . S
C3272 C3274 1.381 . S
C3272 C3278 1.383 . S
C3273 C3269 1.495 . S
C3273 H3279 0.959 . S
C3273 H3280 0.961 . S
C3273 H3281 0.960 . S
C3274 C3272 1.381 . S
C3274 C3275 1.394 . S
C3274 H3282 0.930 . S
C3275 C3274 1.394 . S
C3275 C3276 1.383 . S
C3275 H3283 0.929 . S
C3276 C3275 1.383 . S
C3276 C3277 1.377 . S
C3277 H3261 0.930 . S
C3277 C3276 1.377 . S
C3277 C3278 1.379 . S
C3278 H3262 0.931 . S
C3278 C3272 1.383 . S
C3278 C3277 1.379 . S
H3279 C3273 0.959 . S
H3280 C3273 0.961 . S
H3281 C3273 0.960 . S
H3282 C3274 0.930 . S
H3283 C3275 0.929 . S
H3284 C3292 0.929 . S
H3285 C3294 0.930 . S
H3286 C3296 0.930 . S
H3287 C3299 0.929 . S
H3288 C3302 0.930 . S
H3289 C3304 0.960 . S
H3290 C3304 0.960 . S
H3291 C3304 0.960 . S
C3292 H3284 0.929 . S
C3292 C3293 1.377 . S
C3292 C3294 1.384 . S
C3293 C3292 1.377 . S
C3293 C3299 1.390 . S
C3294 H3285 0.930 . S
C3294 C3292 1.384 . S
C3294 C3295 1.372 . S
C3295 C3294 1.372 . S
C3295 C3296 1.400 . S
C3295 C3300 1.490 . S
C3296 H3286 0.930 . S
C3296 C3295 1.400 . S
C3296 C3299 1.386 . S
H3297 C3313 0.930 . S
H3298 C3314 0.931 . S
C3299 H3287 0.929 . S
C3299 C3293 1.390 . S
C3299 C3296 1.386 . S
C3300 C3295 1.490 . S
C3300 C3302 1.395 . S
C3300 C3303 1.403 . S
H3301 C3307 0.930 . S
C3302 H3288 0.930 . S
C3302 C3300 1.395 . S
C3302 C3305 1.403 . S
C3303 C3300 1.403 . S
C3303 C3304 1.524 . S
C3303 C3307 1.400 . S
C3304 H3289 0.960 . S
C3304 H3290 0.960 . S
C3304 H3291 0.960 . S
C3304 C3303 1.524 . S
C3305 C3302 1.403 . S
C3305 C3306 1.392 . S
C3305 C3309 1.495 . S
C3306 C3305 1.392 . S
C3306 C3307 1.385 . S
C3306 C3308 1.478 . S
C3307 H3301 0.930 . S
C3307 C3303 1.400 . S
C3307 C3306 1.385 . S
C3308 C3306 1.478 . S
C3308 C3310 1.381 . S
C3308 C3314 1.383 . S
C3309 C3305 1.495 . S
C3309 H3315 0.959 . S
C3309 H3316 0.961 . S
C3309 H3317 0.960 . S
C3310 C3308 1.381 . S
C3310 C3311 1.394 . S
C3310 H3318 0.930 . S
C3311 C3310 1.394 . S
C3311 C3312 1.383 . S
C3311 H3319 0.929 . S
C3312 C3311 1.383 . S
C3312 C3313 1.377 . S
C3313 H3297 0.930 . S
C3313 C3312 1.377 . S
C3313 C3314 1.379 . S
C3314 H3298 0.931 . S
C3314 C3308 1.383 . S
C3314 C3313 1.379 . S
H3315 C3309 0.959 . S
H3316 C3309 0.961 . S
H3317 C3309 0.960 . S
H3318 C3310 0.930 . S
H3319 C3311 0.929 . S
H3320 C3328 0.929 . S
H3321 C3330 0.930 . S
H3322 C3332 0.930 . S
H3323 C3335 0.929 . S
H3324 C3338 0.930 . S
H3325 C3340 0.960 . S
H3326 C3340 0.960 . S
H3327 C3340 0.960 . S
C3328 H3320 0.929 . S
C3328 C3329 1.377 . S
C3328 C3330 1.384 . S
C3329 C3328 1.377 . S
C3329 C3335 1.390 . S
C3330 H3321 0.930 . S
C3330 C3328 1.384 . S
C3330 C3331 1.372 . S
C3331 C3330 1.372 . S
C3331 C3332 1.400 . S
C3331 C3336 1.490 . S
C3332 H3322 0.930 . S
C3332 C3331 1.400 . S
C3332 C3335 1.386 . S
H3333 C3349 0.930 . S
H3334 C3350 0.931 . S
C3335 H3323 0.929 . S
C3335 C3329 1.390 . S
C3335 C3332 1.386 . S
C3336 C3331 1.490 . S
C3336 C3338 1.395 . S
C3336 C3339 1.403 . S
H3337 C3343 0.930 . S
C3338 H3324 0.930 . S
C3338 C3336 1.395 . S
C3338 C3341 1.403 . S
C3339 C3336 1.403 . S
C3339 C3340 1.524 . S
C3339 C3343 1.400 . S
C3340 H3325 0.960 . S
C3340 H3326 0.960 . S
C3340 H3327 0.960 . S
C3340 C3339 1.524 . S
C3341 C3338 1.403 . S
C3341 C3342 1.392 . S
C3341 C3345 1.495 . S
C3342 C3341 1.392 . S
C3342 C3343 1.385 . S
C3342 C3344 1.478 . S
C3343 H3337 0.930 . S
C3343 C3339 1.400 . S
C3343 C3342 1.385 . S
C3344 C3342 1.478 . S
C3344 C3346 1.381 . S
C3344 C3350 1.383 . S
C3345 C3341 1.495 . S
C3345 H3351 0.959 . S
C3345 H3352 0.961 . S
C3345 H3353 0.960 . S
C3346 C3344 1.381 . S
C3346 C3347 1.394 . S
C3346 H3354 0.930 . S
C3347 C3346 1.394 . S
C3347 C3348 1.383 . S
C3347 H3355 0.929 . S
C3348 C3347 1.383 . S
C3348 C3349 1.377 . S
C3349 H3333 0.930 . S
C3349 C3348 1.377 . S
C3349 C3350 1.379 . S
C3350 H3334 0.931 . S
C3350 C3344 1.383 . S
C3350 C3349 1.379 . S
H3351 C3345 0.959 . S
H3352 C3345 0.961 . S
H3353 C3345 0.960 . S
H3354 C3346 0.930 . S
H3355 C3347 0.929 . S
H3356 C3364 0.929 . S
H3357 C3366 0.930 . S
H3358 C3368 0.930 . S
H3359 C3371 0.929 . S
H3360 C3374 0.930 . S
H3361 C3376 0.960 . S
H3362 C3376 0.960 . S
H3363 C3376 0.960 . S
C3364 H3356 0.929 . S
C3364 C3365 1.377 . S
C3364 C3366 1.384 . S
C3365 C3364 1.377 . S
C3365 C3371 1.390 . S
C3366 H3357 0.930 . S
C3366 C3364 1.384 . S
C3366 C3367 1.372 . S
C3367 C3366 1.372 . S
C3367 C3368 1.400 . S
C3367 C3372 1.490 . S
C3368 H3358 0.930 . S
C3368 C3367 1.400 . S
C3368 C3371 1.386 . S
H3369 C3385 0.930 . S
H3370 C3386 0.931 . S
C3371 H3359 0.929 . S
C3371 C3365 1.390 . S
C3371 C3368 1.386 . S
C3372 C3367 1.490 . S
C3372 C3374 1.395 1_455 S
C3372 C3375 1.403 1_556 S
H3373 C3379 0.930 . S
C3374 H3360 0.930 . S
C3374 C3372 1.395 1_655 S
C3374 C3377 1.403 . S
C3375 C3372 1.403 1_554 S
C3375 C3376 1.524 . S
C3375 C3379 1.399 . S
C3376 H3361 0.960 . S
C3376 H3362 0.960 . S
C3376 H3363 0.960 . S
C3376 C3375 1.524 . S
C3377 C3374 1.403 . S
C3377 C3378 1.392 1_556 S
C3377 C3381 1.495 . S
C3378 C3377 1.392 1_554 S
C3378 C3379 1.386 1_655 S
C3378 C3380 1.478 . S
C3379 H3373 0.930 . S
C3379 C3375 1.399 . S
C3379 C3378 1.386 1_455 S
C3380 C3378 1.478 . S
C3380 C3382 1.381 . S
C3380 C3386 1.383 . S
C3381 C3377 1.495 . S
C3381 H3387 0.959 . S
C3381 H3388 0.961 . S
C3381 H3389 0.960 . S
C3382 C3380 1.381 . S
C3382 C3383 1.394 . S
C3382 H3390 0.930 . S
C3383 C3382 1.394 . S
C3383 C3384 1.383 . S
C3383 H3391 0.929 . S
C3384 C3383 1.383 . S
C3384 C3385 1.377 . S
C3385 H3369 0.930 . S
C3385 C3384 1.377 . S
C3385 C3386 1.379 . S
C3386 H3370 0.931 . S
C3386 C3380 1.383 . S
C3386 C3385 1.379 . S
H3387 C3381 0.959 . S
H3388 C3381 0.961 . S
H3389 C3381 0.960 . S
H3390 C3382 0.930 . S
H3391 C3383 0.929 . S
H3392 C3400 0.929 . S
H3393 C3402 0.930 . S
H3394 C3404 0.930 . S
H3395 C3407 0.929 . S
H3396 C3410 0.930 . S
H3397 C3412 0.960 . S
H3398 C3412 0.960 . S
H3399 C3412 0.960 . S
C3400 H3392 0.929 . S
C3400 C3401 1.377 . S
C3400 C3402 1.384 . S
C3401 C3400 1.377 . S
C3401 C3407 1.390 . S
C3402 H3393 0.930 . S
C3402 C3400 1.384 . S
C3402 C3403 1.372 . S
C3403 C3402 1.372 . S
C3403 C3404 1.400 . S
C3403 C3408 1.490 . S
C3404 H3394 0.930 . S
C3404 C3403 1.400 . S
C3404 C3407 1.386 . S
H3405 C3421 0.930 . S
H3406 C3422 0.931 . S
C3407 H3395 0.929 . S
C3407 C3401 1.390 . S
C3407 C3404 1.386 . S
C3408 C3403 1.490 . S
C3408 C3410 1.395 . S
C3408 C3411 1.403 1_545 S
H3409 C3415 0.930 . S
C3410 H3396 0.930 . S
C3410 C3408 1.395 . S
C3410 C3413 1.403 1_545 S
C3411 C3408 1.403 1_565 S
C3411 C3412 1.524 . S
C3411 C3415 1.400 . S
C3412 H3397 0.960 . S
C3412 H3398 0.960 . S
C3412 H3399 0.960 . S
C3412 C3411 1.524 . S
C3413 C3410 1.403 1_565 S
C3413 C3414 1.392 . S
C3413 C3417 1.495 1_565 S
C3414 C3413 1.392 . S
C3414 C3415 1.385 . S
C3414 C3416 1.478 . S
C3415 H3409 0.930 . S
C3415 C3411 1.400 . S
C3415 C3414 1.385 . S
C3416 C3414 1.478 . S
C3416 C3418 1.381 . S
C3416 C3422 1.383 . S
C3417 C3413 1.495 1_545 S
C3417 H3423 0.959 . S
C3417 H3424 0.952 1_545 S
C3417 H3425 0.960 1_545 S
C3418 C3416 1.381 . S
C3418 C3419 1.394 . S
C3418 H3426 0.930 . S
C3419 C3418 1.394 . S
C3419 C3420 1.383 . S
C3419 H3427 0.929 . S
C3420 C3419 1.383 . S
C3420 C3421 1.377 . S
C3421 H3405 0.930 . S
C3421 C3420 1.377 . S
C3421 C3422 1.379 . S
C3422 H3406 0.931 . S
C3422 C3416 1.383 . S
C3422 C3421 1.379 . S
H3423 C3417 0.959 . S
H3424 C3417 0.952 1_565 S
H3425 C3417 0.960 1_565 S
H3426 C3418 0.930 . S
H3427 C3419 0.929 . S
H3428 C3436 0.929 . S
H3429 C3438 0.930 . S
H3430 C3440 0.930 . S
H3431 C3443 0.929 . S
H3432 C3446 0.930 . S
H3433 C3448 0.960 . S
H3434 C3448 0.960 . S
H3435 C3448 0.960 . S
C3436 H3428 0.929 . S
C3436 C3437 1.377 . S
C3436 C3438 1.384 . S
C3437 C3436 1.377 . S
C3437 C3443 1.390 . S
C3438 H3429 0.930 . S
C3438 C3436 1.384 . S
C3438 C3439 1.372 . S
C3439 C3438 1.372 . S
C3439 C3440 1.400 . S
C3439 C3444 1.490 . S
C3440 H3430 0.930 . S
C3440 C3439 1.400 . S
C3440 C3443 1.386 . S
H3441 C3457 0.930 . S
H3442 C3458 0.931 . S
C3443 H3431 0.929 . S
C3443 C3437 1.390 . S
C3443 C3440 1.386 . S
C3444 C3439 1.490 . S
C3444 C3446 1.395 . S
C3444 C3447 1.403 . S
H3445 C3451 0.930 . S
C3446 H3432 0.930 . S
C3446 C3444 1.395 . S
C3446 C3449 1.403 . S
C3447 C3444 1.403 . S
C3447 C3448 1.524 . S
C3447 C3451 1.400 . S
C3448 H3433 0.960 . S
C3448 H3434 0.960 . S
C3448 H3435 0.960 . S
C3448 C3447 1.524 . S
C3449 C3446 1.403 . S
C3449 C3450 1.392 . S
C3449 C3453 1.495 . S
C3450 C3449 1.392 . S
C3450 C3451 1.385 . S
C3450 C3452 1.478 . S
C3451 H3445 0.930 . S
C3451 C3447 1.400 . S
C3451 C3450 1.385 . S
C3452 C3450 1.478 . S
C3452 C3454 1.381 . S
C3452 C3458 1.383 . S
C3453 C3449 1.495 . S
C3453 H3459 0.959 . S
C3453 H3460 0.961 . S
C3453 H3461 0.960 . S
C3454 C3452 1.381 . S
C3454 C3455 1.394 . S
C3454 H3462 0.930 . S
C3455 C3454 1.394 . S
C3455 C3456 1.383 . S
C3455 H3463 0.929 . S
C3456 C3455 1.383 . S
C3456 C3457 1.377 . S
C3457 H3441 0.930 . S
C3457 C3456 1.377 . S
C3457 C3458 1.379 . S
C3458 H3442 0.931 . S
C3458 C3452 1.383 . S
C3458 C3457 1.379 . S
H3459 C3453 0.959 . S
H3460 C3453 0.961 . S
H3461 C3453 0.960 . S
H3462 C3454 0.930 . S
H3463 C3455 0.929 . S
H3464 C3472 0.929 . S
H3465 C3474 0.930 . S
H3466 C3476 0.930 . S
H3467 C3479 0.929 . S
H3468 C3482 0.930 . S
H3469 C3484 0.960 . S
H3470 C3484 0.960 . S
H3471 C3484 0.960 . S
C3472 H3464 0.929 . S
C3472 C3473 1.377 . S
C3472 C3474 1.384 . S
C3473 C3472 1.377 . S
C3473 C3479 1.390 . S
C3474 H3465 0.930 . S
C3474 C3472 1.384 . S
C3474 C3475 1.372 . S
C3475 C3474 1.372 . S
C3475 C3476 1.400 . S
C3475 C3480 1.490 . S
C3476 H3466 0.930 . S
C3476 C3475 1.400 . S
C3476 C3479 1.386 . S
H3477 C3493 0.930 . S
H3478 C3494 0.975 . S
C3479 H3467 0.929 . S
C3479 C3473 1.390 . S
C3479 C3476 1.386 . S
C3480 C3475 1.490 . S
C3480 C3482 1.395 . S
C3480 C3483 1.403 . S
H3481 C3487 0.930 1_565 S
C3482 H3468 0.930 . S
C3482 C3480 1.395 . S
C3482 C3485 1.403 . S
C3483 C3480 1.403 . S
C3483 C3484 1.524 . S
C3483 C3487 1.400 . S
C3484 H3469 0.960 . S
C3484 H3470 0.960 . S
C3484 H3471 0.960 . S
C3484 C3483 1.524 . S
C3485 C3482 1.403 . S
C3485 C3486 1.392 1_545 S
C3485 C3489 1.495 . S
C3486 C3485 1.392 1_565 S
C3486 C3487 1.385 1_565 S
C3486 C3488 1.478 . S
C3487 H3481 0.930 1_545 S
C3487 C3483 1.400 . S
C3487 C3486 1.385 1_545 S
C3488 C3486 1.478 . S
C3488 C3490 1.381 . S
C3488 C3494 1.383 . S
C3489 C3485 1.495 . S
C3489 H3495 0.959 . S
C3489 H3496 0.961 . S
C3489 H3497 0.960 1_545 S
C3490 C3488 1.381 . S
C3490 C3491 1.394 . S
C3490 H3498 0.930 . S
C3491 C3490 1.394 . S
C3491 C3492 1.383 . S
C3491 H3499 0.929 . S
C3492 C3491 1.383 . S
C3492 C3493 1.377 . S
C3493 H3477 0.930 . S
C3493 C3492 1.377 . S
C3493 C3494 1.379 . S
C3494 H3478 0.975 . S
C3494 C3488 1.383 . S
C3494 C3493 1.379 . S
H3495 C3489 0.959 . S
H3496 C3489 0.961 . S
H3497 C3489 0.960 1_565 S
H3498 C3490 0.930 . S
H3499 C3491 0.929 . S
H3500 C3508 0.929 . S
H3501 C3510 0.930 . S
H3502 C3512 0.930 . S
H3503 C3515 0.929 . S
H3504 C3518 0.930 . S
H3505 C3520 0.960 . S
H3506 C3520 0.960 . S
H3507 C3520 0.960 . S
C3508 H3500 0.929 . S
C3508 C3509 1.377 . S
C3508 C3510 1.384 . S
C3509 C3508 1.377 . S
C3509 C3515 1.390 . S
C3510 H3501 0.930 . S
C3510 C3508 1.384 . S
C3510 C3511 1.372 . S
C3511 C3510 1.372 . S
C3511 C3512 1.400 . S
C3511 C3516 1.490 . S
C3512 H3502 0.930 . S
C3512 C3511 1.400 . S
C3512 C3515 1.386 . S
H3513 C3529 0.930 . S
H3514 C3530 0.931 . S
C3515 H3503 0.929 . S
C3515 C3509 1.390 . S
C3515 C3512 1.386 . S
C3516 C3511 1.490 . S
C3516 C3518 1.395 . S
C3516 C3519 1.403 . S
H3517 C3523 0.930 . S
C3518 H3504 0.930 . S
C3518 C3516 1.395 . S
C3518 C3521 1.403 . S
C3519 C3516 1.403 . S
C3519 C3520 1.524 . S
C3519 C3523 1.400 . S
C3520 H3505 0.960 . S
C3520 H3506 0.960 . S
C3520 H3507 0.960 . S
C3520 C3519 1.524 . S
C3521 C3518 1.403 . S
C3521 C3522 1.392 1_556 S
C3521 C3525 1.495 1_556 S
C3522 C3521 1.392 1_554 S
C3522 C3523 1.385 1_554 S
C3522 C3524 1.478 . S
C3523 H3517 0.930 . S
C3523 C3519 1.400 . S
C3523 C3522 1.385 1_556 S
C3524 C3522 1.478 . S
C3524 C3526 1.381 . S
C3524 C3530 1.383 . S
C3525 C3521 1.495 1_554 S
C3525 H3531 0.959 1_554 S
C3525 H3532 0.961 . S
C3525 H3533 0.960 . S
C3526 C3524 1.381 . S
C3526 C3527 1.394 . S
C3526 H3534 0.930 . S
C3527 C3526 1.394 . S
C3527 C3528 1.383 . S
C3527 H3535 0.929 . S
C3528 C3527 1.383 . S
C3528 C3529 1.377 . S
C3529 H3513 0.930 . S
C3529 C3528 1.377 . S
C3529 C3530 1.379 . S
C3530 H3514 0.931 . S
C3530 C3524 1.383 . S
C3530 C3529 1.379 . S
H3531 C3525 0.959 1_556 S
H3532 C3525 0.961 . S
H3533 C3525 0.960 . S
H3534 C3526 0.930 . S
H3535 C3527 0.929 . S
H3536 C3544 0.929 . S
H3537 C3546 0.930 . S
H3538 C3548 0.930 . S
H3539 C3551 0.929 . S
H3540 C3554 0.930 . S
H3541 C3556 0.960 . S
H3542 C3556 0.960 . S
H3543 C3556 0.960 . S
C3544 H3536 0.929 . S
C3544 C3545 1.377 . S
C3544 C3546 1.384 . S
C3545 C3544 1.377 . S
C3545 C3551 1.390 . S
C3546 H3537 0.930 . S
C3546 C3544 1.384 . S
C3546 C3547 1.372 . S
C3547 C3546 1.372 . S
C3547 C3548 1.400 . S
C3547 C3552 1.490 . S
C3548 H3538 0.930 . S
C3548 C3547 1.400 . S
C3548 C3551 1.386 . S
H3549 C3565 0.930 . S
H3550 C3566 0.926 . S
C3551 H3539 0.929 . S
C3551 C3545 1.390 . S
C3551 C3548 1.386 . S
C3552 C3547 1.490 . S
C3552 C3554 1.395 . S
C3552 C3555 1.403 . S
H3553 C3559 0.917 1_565 S
C3554 H3540 0.930 . S
C3554 C3552 1.395 . S
C3554 C3557 1.403 . S
C3555 C3552 1.403 . S
C3555 C3556 1.524 . S
C3555 C3559 1.400 . S
C3556 H3541 0.960 . S
C3556 H3542 0.960 . S
C3556 H3543 0.960 . S
C3556 C3555 1.524 . S
C3557 C3554 1.403 . S
C3557 C3558 1.392 1_545 S
C3557 C3561 1.495 1_545 S
C3558 C3557 1.392 1_565 S
C3558 C3559 1.385 1_565 S
C3558 C3560 1.478 . S
C3559 H3553 0.917 1_545 S
C3559 C3555 1.400 . S
C3559 C3558 1.385 1_545 S
C3560 C3558 1.478 . S
C3560 C3562 1.381 . S
C3560 C3566 1.383 . S
C3561 C3557 1.495 1_565 S
C3561 H3567 0.959 1_565 S
C3561 H3568 0.961 1_565 S
C3561 H3569 0.960 . S
C3562 C3560 1.381 . S
C3562 C3563 1.394 . S
C3562 H3570 0.930 . S
C3563 C3562 1.394 . S
C3563 C3564 1.383 . S
C3563 H3571 0.929 . S
C3564 C3563 1.383 . S
C3564 C3565 1.377 . S
C3565 H3549 0.930 . S
C3565 C3564 1.377 . S
C3565 C3566 1.379 . S
C3566 H3550 0.926 . S
C3566 C3560 1.383 . S
C3566 C3565 1.379 . S
H3567 C3561 0.959 1_545 S
H3568 C3561 0.961 1_545 S
H3569 C3561 0.960 . S
H3570 C3562 0.930 . S
H3571 C3563 0.929 . S
H3572 C3580 0.929 . S
H3573 C3582 0.930 . S
H3574 C3584 0.930 . S
H3575 C3587 0.929 . S
H3576 C3590 0.930 . S
H3577 C3592 0.960 . S
H3578 C3592 0.960 . S
H3579 C3592 0.960 . S
C3580 H3572 0.929 . S
C3580 C3581 1.377 . S
C3580 C3582 1.384 . S
C3581 C3580 1.377 . S
C3581 C3587 1.390 . S
C3582 H3573 0.930 . S
C3582 C3580 1.384 . S
C3582 C3583 1.372 . S
C3583 C3582 1.372 . S
C3583 C3584 1.400 . S
C3583 C3588 1.490 . S
C3584 H3574 0.930 . S
C3584 C3583 1.400 . S
C3584 C3587 1.386 . S
H3585 C3601 0.930 . S
H3586 C3602 0.931 . S
C3587 H3575 0.929 . S
C3587 C3581 1.390 . S
C3587 C3584 1.386 . S
C3588 C3583 1.490 . S
C3588 C3590 1.395 . S
C3588 C3591 1.403 . S
H3589 C3595 0.930 . S
C3590 H3576 0.930 . S
C3590 C3588 1.395 . S
C3590 C3593 1.403 . S
C3591 C3588 1.403 . S
C3591 C3592 1.524 . S
C3591 C3595 1.400 . S
C3592 H3577 0.960 . S
C3592 H3578 0.960 . S
C3592 H3579 0.960 . S
C3592 C3591 1.524 . S
C3593 C3590 1.403 . S
C3593 C3594 1.392 . S
C3593 C3597 1.495 . S
C3594 C3593 1.392 . S
C3594 C3595 1.385 . S
C3594 C3596 1.478 . S
C3595 H3589 0.930 . S
C3595 C3591 1.400 . S
C3595 C3594 1.385 . S
C3596 C3594 1.478 . S
C3596 C3598 1.381 . S
C3596 C3602 1.383 . S
C3597 C3593 1.495 . S
C3597 H3603 0.959 . S
C3597 H3604 0.961 . S
C3597 H3605 0.960 . S
C3598 C3596 1.381 . S
C3598 C3599 1.394 . S
C3598 H3606 0.930 . S
C3599 C3598 1.394 . S
C3599 C3600 1.383 . S
C3599 H3607 0.929 . S
C3600 C3599 1.383 . S
C3600 C3601 1.377 . S
C3601 H3585 0.930 . S
C3601 C3600 1.377 . S
C3601 C3602 1.379 . S
C3602 H3586 0.931 . S
C3602 C3596 1.383 . S
C3602 C3601 1.379 . S
H3603 C3597 0.959 . S
H3604 C3597 0.961 . S
H3605 C3597 0.960 . S
H3606 C3598 0.930 . S
H3607 C3599 0.929 . S
H3608 C3616 0.929 . S
H3609 C3618 0.930 . S
H3610 C3620 0.930 . S
H3611 C3623 0.929 . S
H3612 C3626 0.930 . S
H3613 C3628 0.960 . S
H3614 C3628 0.960 . S
H3615 C3628 0.960 . S
C3616 H3608 0.929 . S
C3616 C3617 1.377 . S
C3616 C3618 1.384 . S
C3617 C3616 1.377 . S
C3617 C3623 1.390 . S
C3618 H3609 0.930 . S
C3618 C3616 1.384 . S
C3618 C3619 1.372 . S
C3619 C3618 1.372 . S
C3619 C3620 1.400 . S
C3619 C3624 1.490 . S
C3620 H3610 0.930 . S
C3620 C3619 1.400 . S
C3620 C3623 1.386 . S
H3621 C3637 0.930 . S
H3622 C3638 0.931 . S
C3623 H3611 0.929 . S
C3623 C3617 1.390 . S
C3623 C3620 1.386 . S
C3624 C3619 1.490 . S
C3624 C3626 1.395 1_545 S
C3624 C3627 1.403 . S
H3625 C3631 0.930 . S
C3626 H3612 0.930 . S
C3626 C3624 1.395 1_565 S
C3626 C3629 1.403 . S
C3627 C3624 1.403 . S
C3627 C3628 1.524 . S
C3627 C3631 1.400 1_545 S
C3628 H3613 0.960 . S
C3628 H3614 0.960 . S
C3628 H3615 0.960 . S
C3628 C3627 1.524 . S
C3629 C3626 1.403 . S
C3629 C3630 1.392 . S
C3629 C3633 1.495 . S
C3630 C3629 1.392 . S
C3630 C3631 1.385 . S
C3630 C3632 1.478 . S
C3631 H3625 0.930 . S
C3631 C3627 1.400 1_565 S
C3631 C3630 1.385 . S
C3632 C3630 1.478 . S
C3632 C3634 1.381 . S
C3632 C3638 1.383 . S
C3633 C3629 1.495 . S
C3633 H3639 0.959 . S
C3633 H3640 0.961 . S
C3633 H3641 0.960 . S
C3634 C3632 1.381 . S
C3634 C3635 1.394 . S
C3634 H3642 0.930 . S
C3635 C3634 1.394 . S
C3635 C3636 1.383 . S
C3635 H3643 0.929 . S
C3636 C3635 1.383 . S
C3636 C3637 1.377 . S
C3637 H3621 0.930 . S
C3637 C3636 1.377 . S
C3637 C3638 1.379 . S
C3638 H3622 0.931 . S
C3638 C3632 1.383 . S
C3638 C3637 1.379 . S
H3639 C3633 0.959 . S
H3640 C3633 0.961 . S
H3641 C3633 0.960 . S
H3642 C3634 0.930 . S
H3643 C3635 0.929 . S
H3644 C3652 0.929 . S
H3645 C3654 0.930 . S
H3646 C3656 0.930 . S
H3647 C3659 0.929 . S
H3648 C3662 0.930 . S
H3649 C3664 0.960 . S
H3650 C3664 0.960 . S
H3651 C3664 0.960 . S
C3652 H3644 0.929 . S
C3652 C3653 1.377 . S
C3652 C3654 1.384 . S
C3653 C3652 1.377 . S
C3653 C3659 1.390 . S
C3654 H3645 0.930 . S
C3654 C3652 1.384 . S
C3654 C3655 1.372 . S
C3655 C3654 1.372 . S
C3655 C3656 1.400 . S
C3655 C3660 1.526 . S
C3656 H3646 0.930 . S
C3656 C3655 1.400 . S
C3656 C3659 1.386 . S
H3657 C3673 0.930 . S
H3658 C3674 0.931 . S
C3659 H3647 0.929 . S
C3659 C3653 1.390 . S
C3659 C3656 1.386 . S
C3660 C3655 1.526 . S
C3660 C3662 1.354 1_556 S
C3660 C3663 1.409 . S
H3661 C3667 0.930 . S
C3662 H3648 0.930 . S
C3662 C3660 1.354 1_554 S
C3662 C3665 1.403 . S
C3663 C3660 1.409 . S
C3663 C3664 1.524 . S
C3663 C3667 1.400 1_556 S
C3664 H3649 0.960 . S
C3664 H3650 0.960 . S
C3664 H3651 0.960 . S
C3664 C3663 1.524 . S
C3665 C3662 1.403 . S
C3665 C3666 1.392 . S
C3665 C3669 1.495 . S
C3666 C3665 1.392 . S
C3666 C3667 1.385 . S
C3666 C3668 1.478 . S
C3667 H3661 0.930 . S
C3667 C3663 1.400 1_554 S
C3667 C3666 1.385 . S
C3668 C3666 1.478 . S
C3668 C3670 1.381 . S
C3668 C3674 1.383 . S
C3669 C3665 1.495 . S
C3669 H3675 0.959 . S
C3669 H3676 0.961 . S
C3669 H3677 0.960 . S
C3670 C3668 1.381 . S
C3670 C3671 1.394 . S
C3670 H3678 0.930 . S
C3671 C3670 1.394 . S
C3671 C3672 1.383 . S
C3671 H3679 0.929 . S
C3672 C3671 1.383 . S
C3672 C3673 1.377 . S
C3673 H3657 0.930 . S
C3673 C3672 1.377 . S
C3673 C3674 1.379 . S
C3674 H3658 0.931 . S
C3674 C3668 1.383 . S
C3674 C3673 1.379 . S
H3675 C3669 0.959 . S
H3676 C3669 0.961 . S
H3677 C3669 0.960 . S
H3678 C3670 0.930 . S
H3679 C3671 0.929 . S
H3680 C3688 0.929 . S
H3681 C3690 0.930 . S
H3682 C3692 0.930 . S
H3683 C3695 0.929 . S
H3684 C3698 0.930 . S
H3685 C3700 0.960 . S
H3686 C3700 0.960 . S
H3687 C3700 0.960 . S
C3688 H3680 0.929 . S
C3688 C3689 1.377 . S
C3688 C3690 1.384 . S
C3689 C3688 1.377 . S
C3689 C3695 1.390 . S
C3690 H3681 0.930 . S
C3690 C3688 1.384 . S
C3690 C3691 1.372 . S
C3691 C3690 1.372 . S
C3691 C3692 1.400 . S
C3691 C3696 1.490 . S
C3692 H3682 0.930 . S
C3692 C3691 1.400 . S
C3692 C3695 1.386 . S
H3693 C3709 0.930 . S
H3694 C3710 0.931 . S
C3695 H3683 0.929 . S
C3695 C3689 1.390 . S
C3695 C3692 1.386 . S
C3696 C3691 1.490 . S
C3696 C3698 1.395 . S
C3696 C3699 1.403 . S
H3697 C3703 0.937 . S
C3698 H3684 0.930 . S
C3698 C3696 1.395 . S
C3698 C3701 1.403 . S
C3699 C3696 1.403 . S
C3699 C3700 1.524 . S
C3699 C3703 1.400 . S
C3700 H3685 0.960 . S
C3700 H3686 0.960 . S
C3700 H3687 0.960 . S
C3700 C3699 1.524 . S
C3701 C3698 1.403 . S
C3701 C3702 1.390 1_655 S
C3701 C3705 1.495 . S
C3702 C3701 1.390 1_455 S
C3702 C3703 1.384 1_455 S
C3702 C3704 1.481 . S
C3703 H3697 0.937 . S
C3703 C3699 1.400 . S
C3703 C3702 1.384 1_655 S
C3704 C3702 1.481 . S
C3704 C3706 1.381 . S
C3704 C3710 1.383 . S
C3705 C3701 1.495 . S
C3705 H3711 0.959 . S
C3705 H3712 0.961 1_655 S
C3705 H3713 0.960 . S
C3706 C3704 1.381 . S
C3706 C3707 1.394 . S
C3706 H3714 0.936 1_455 S
C3707 C3706 1.394 . S
C3707 C3708 1.383 . S
C3707 H3715 0.929 . S
C3708 C3707 1.383 . S
C3708 C3709 1.377 . S
C3709 H3693 0.930 . S
C3709 C3708 1.377 . S
C3709 C3710 1.379 . S
C3710 H3694 0.931 . S
C3710 C3704 1.383 . S
C3710 C3709 1.379 . S
H3711 C3705 0.959 . S
H3712 C3705 0.961 1_455 S
H3713 C3705 0.960 . S
H3714 C3706 0.936 1_655 S
H3715 C3707 0.929 . S
H3716 C3724 0.929 . S
H3717 C3726 0.930 . S
H3718 C3728 0.930 . S
H3719 C3731 0.929 . S
H3720 C3734 0.930 . S
H3721 C3736 0.960 . S
H3722 C3736 0.960 . S
H3723 C3736 0.960 . S
C3724 H3716 0.929 . S
C3724 C3725 1.377 . S
C3724 C3726 1.384 . S
C3725 C3724 1.377 . S
C3725 C3731 1.390 . S
C3726 H3717 0.930 . S
C3726 C3724 1.384 . S
C3726 C3727 1.372 . S
C3727 C3726 1.372 . S
C3727 C3728 1.400 . S
C3727 C3732 1.490 . S
C3728 H3718 0.930 . S
C3728 C3727 1.400 . S
C3728 C3731 1.386 . S
H3729 C3745 0.930 . S
H3730 C3746 0.931 . S
C3731 H3719 0.929 . S
C3731 C3725 1.390 . S
C3731 C3728 1.386 . S
C3732 C3727 1.490 . S
C3732 C3734 1.395 . S
C3732 C3735 1.403 . S
H3733 C3739 0.930 . S
C3734 H3720 0.930 . S
C3734 C3732 1.395 . S
C3734 C3737 1.403 . S
C3735 C3732 1.403 . S
C3735 C3736 1.524 . S
C3735 C3739 1.400 . S
C3736 H3721 0.960 . S
C3736 H3722 0.960 . S
C3736 H3723 0.960 . S
C3736 C3735 1.524 . S
C3737 C3734 1.403 . S
C3737 C3738 1.392 . S
C3737 C3741 1.495 . S
C3738 C3737 1.392 . S
C3738 C3739 1.385 . S
C3738 C3740 1.478 . S
C3739 H3733 0.930 . S
C3739 C3735 1.400 . S
C3739 C3738 1.385 . S
C3740 C3738 1.478 . S
C3740 C3742 1.381 . S
C3740 C3746 1.383 . S
C3741 C3737 1.495 . S
C3741 H3747 0.959 . S
C3741 H3748 0.961 . S
C3741 H3749 0.960 . S
C3742 C3740 1.381 . S
C3742 C3743 1.394 . S
C3742 H3750 0.930 . S
C3743 C3742 1.394 . S
C3743 C3744 1.383 . S
C3743 H3751 0.929 . S
C3744 C3743 1.383 . S
C3744 C3745 1.377 . S
C3745 H3729 0.930 . S
C3745 C3744 1.377 . S
C3745 C3746 1.379 . S
C3746 H3730 0.931 . S
C3746 C3740 1.383 . S
C3746 C3745 1.379 . S
H3747 C3741 0.959 . S
H3748 C3741 0.961 . S
H3749 C3741 0.960 . S
H3750 C3742 0.930 . S
H3751 C3743 0.929 . S
H3752 C3760 0.929 . S
H3753 C3762 0.930 . S
H3754 C3764 0.930 . S
H3755 C3767 0.929 . S
H3756 C3770 0.930 . S
H3757 C3772 0.960 . S
H3758 C3772 0.960 . S
H3759 C3772 0.960 . S
C3760 H3752 0.929 . S
C3760 C3761 1.377 . S
C3760 C3762 1.384 . S
C3761 C3760 1.377 . S
C3761 C3767 1.390 . S
C3762 H3753 0.930 . S
C3762 C3760 1.384 . S
C3762 C3763 1.372 . S
C3763 C3762 1.372 . S
C3763 C3764 1.400 . S
C3763 C3768 1.462 1_655 S
C3764 H3754 0.930 . S
C3764 C3763 1.400 . S
C3764 C3767 1.386 . S
H3765 C3781 0.930 . S
H3766 C3782 0.931 . S
C3767 H3755 0.929 . S
C3767 C3761 1.390 . S
C3767 C3764 1.386 . S
C3768 C3763 1.462 1_455 S
C3768 C3770 1.429 . S
C3768 C3771 1.397 1_455 S
H3769 C3775 0.930 . S
C3770 H3756 0.930 . S
C3770 C3768 1.429 . S
C3770 C3773 1.403 . S
C3771 C3768 1.397 1_655 S
C3771 C3772 1.524 . S
C3771 C3775 1.400 1_655 S
C3772 H3757 0.960 . S
C3772 H3758 0.960 . S
C3772 H3759 0.960 . S
C3772 C3771 1.524 . S
C3773 C3770 1.403 . S
C3773 C3774 1.392 . S
C3773 C3777 1.495 . S
C3774 C3773 1.392 . S
C3774 C3775 1.385 . S
C3774 C3776 1.478 . S
C3775 H3769 0.930 . S
C3775 C3771 1.400 1_455 S
C3775 C3774 1.385 . S
C3776 C3774 1.478 . S
C3776 C3778 1.381 . S
C3776 C3782 1.383 . S
C3777 C3773 1.495 . S
C3777 H3783 0.959 . S
C3777 H3784 0.961 . S
C3777 H3785 0.960 . S
C3778 C3776 1.381 . S
C3778 C3779 1.394 . S
C3778 H3786 0.930 . S
C3779 C3778 1.394 . S
C3779 C3780 1.383 . S
C3779 H3787 0.929 . S
C3780 C3779 1.383 . S
C3780 C3781 1.377 . S
C3781 H3765 0.930 . S
C3781 C3780 1.377 . S
C3781 C3782 1.379 . S
C3782 H3766 0.931 . S
C3782 C3776 1.383 . S
C3782 C3781 1.379 . S
H3783 C3777 0.959 . S
H3784 C3777 0.961 . S
H3785 C3777 0.960 . S
H3786 C3778 0.930 . S
H3787 C3779 0.929 . S
H3788 C3796 0.929 . S
H3789 C3798 0.930 . S
H3790 C3800 0.930 . S
H3791 C3803 0.929 . S
H3792 C3806 0.930 . S
H3793 C3808 0.960 . S
H3794 C3808 0.960 . S
H3795 C3808 0.960 . S
C3796 H3788 0.929 . S
C3796 C3797 1.377 . S
C3796 C3798 1.384 . S
C3797 C3796 1.377 . S
C3797 C3803 1.390 . S
C3798 H3789 0.930 . S
C3798 C3796 1.384 . S
C3798 C3799 1.372 . S
C3799 C3798 1.372 . S
C3799 C3800 1.400 . S
C3799 C3804 1.468 1_655 S
C3800 H3790 0.930 . S
C3800 C3799 1.400 . S
C3800 C3803 1.386 . S
H3801 C3817 0.930 . S
H3802 C3818 0.931 . S
C3803 H3791 0.929 . S
C3803 C3797 1.390 . S
C3803 C3800 1.386 . S
C3804 C3799 1.468 1_455 S
C3804 C3806 1.423 . S
C3804 C3807 1.397 1_455 S
H3805 C3811 0.930 . S
C3806 H3792 0.930 . S
C3806 C3804 1.423 . S
C3806 C3809 1.403 . S
C3807 C3804 1.397 1_655 S
C3807 C3808 1.524 . S
C3807 C3811 1.400 1_655 S
C3808 H3793 0.960 . S
C3808 H3794 0.960 . S
C3808 H3795 0.960 . S
C3808 C3807 1.524 . S
C3809 C3806 1.403 . S
C3809 C3810 1.392 . S
C3809 C3813 1.495 . S
C3810 C3809 1.392 . S
C3810 C3811 1.385 . S
C3810 C3812 1.478 . S
C3811 H3805 0.930 . S
C3811 C3807 1.400 1_455 S
C3811 C3810 1.385 . S
C3812 C3810 1.478 . S
C3812 C3814 1.381 . S
C3812 C3818 1.383 . S
C3813 C3809 1.495 . S
C3813 H3819 0.959 . S
C3813 H3820 0.961 . S
C3813 H3821 0.960 . S
C3814 C3812 1.381 . S
C3814 C3815 1.394 . S
C3814 H3822 0.930 . S
C3815 C3814 1.394 . S
C3815 C3816 1.383 . S
C3815 H3823 0.929 . S
C3816 C3815 1.383 . S
C3816 C3817 1.377 . S
C3817 H3801 0.930 . S
C3817 C3816 1.377 . S
C3817 C3818 1.379 . S
C3818 H3802 0.931 . S
C3818 C3812 1.383 . S
C3818 C3817 1.379 . S
H3819 C3813 0.959 . S
H3820 C3813 0.961 . S
H3821 C3813 0.960 . S
H3822 C3814 0.930 . S
H3823 C3815 0.929 . S
H3824 C3832 0.929 . S
H3825 C3834 0.930 . S
H3826 C3836 0.930 . S
H3827 C3839 0.929 . S
H3828 C3842 0.930 . S
H3829 C3844 0.960 . S
H3830 C3844 0.960 . S
H3831 C3844 0.960 . S
C3832 H3824 0.929 . S
C3832 C3833 1.377 . S
C3832 C3834 1.384 . S
C3833 C3832 1.377 . S
C3833 C3839 1.390 . S
C3834 H3825 0.930 . S
C3834 C3832 1.384 . S
C3834 C3835 1.372 . S
C3835 C3834 1.372 . S
C3835 C3836 1.400 . S
C3835 C3840 1.490 . S
C3836 H3826 0.930 . S
C3836 C3835 1.400 . S
C3836 C3839 1.386 . S
H3837 C3853 0.930 . S
H3838 C3854 0.931 . S
C3839 H3827 0.929 . S
C3839 C3833 1.390 . S
C3839 C3836 1.386 . S
C3840 C3835 1.490 . S
C3840 C3842 1.395 . S
C3840 C3843 1.403 . S
H3841 C3847 0.930 . S
C3842 H3828 0.930 . S
C3842 C3840 1.395 . S
C3842 C3845 1.403 . S
C3843 C3840 1.403 . S
C3843 C3844 1.524 . S
C3843 C3847 1.400 . S
C3844 H3829 0.960 . S
C3844 H3830 0.960 . S
C3844 H3831 0.960 . S
C3844 C3843 1.524 . S
C3845 C3842 1.403 . S
C3845 C3846 1.392 . S
C3845 C3849 1.495 . S
C3846 C3845 1.392 . S
C3846 C3847 1.385 . S
C3846 C3848 1.478 . S
C3847 H3841 0.930 . S
C3847 C3843 1.400 . S
C3847 C3846 1.385 . S
C3848 C3846 1.478 . S
C3848 C3850 1.381 . S
C3848 C3854 1.383 . S
C3849 C3845 1.495 . S
C3849 H3855 0.959 . S
C3849 H3856 0.961 . S
C3849 H3857 0.960 . S
C3850 C3848 1.381 . S
C3850 C3851 1.394 . S
C3850 H3858 0.930 . S
C3851 C3850 1.394 . S
C3851 C3852 1.383 . S
C3851 H3859 0.929 . S
C3852 C3851 1.383 . S
C3852 C3853 1.377 . S
C3853 H3837 0.930 . S
C3853 C3852 1.377 . S
C3853 C3854 1.379 . S
C3854 H3838 0.931 . S
C3854 C3848 1.383 . S
C3854 C3853 1.379 . S
H3855 C3849 0.959 . S
H3856 C3849 0.961 . S
H3857 C3849 0.960 . S
H3858 C3850 0.930 . S
H3859 C3851 0.929 . S
H3860 C3868 0.929 . S
H3861 C3870 0.930 . S
H3862 C3872 0.930 . S
H3863 C3875 0.929 . S
H3864 C3878 0.930 . S
H3865 C3880 0.960 . S
H3866 C3880 0.960 . S
H3867 C3880 0.960 . S
C3868 H3860 0.929 . S
C3868 C3869 1.377 . S
C3868 C3870 1.384 . S
C3869 C3868 1.377 . S
C3869 C3875 1.390 . S
C3870 H3861 0.930 . S
C3870 C3868 1.384 . S
C3870 C3871 1.372 . S
C3871 C3870 1.372 . S
C3871 C3872 1.400 . S
C3871 C3876 1.490 . S
C3872 H3862 0.930 . S
C3872 C3871 1.400 . S
C3872 C3875 1.386 . S
H3873 C3889 0.930 . S
H3874 C3890 0.952 . S
C3875 H3863 0.929 . S
C3875 C3869 1.390 . S
C3875 C3872 1.386 . S
C3876 C3871 1.490 . S
C3876 C3878 1.395 . S
C3876 C3879 1.403 . S
H3877 C3883 0.930 . S
C3878 H3864 0.930 . S
C3878 C3876 1.395 . S
C3878 C3881 1.403 1_655 S
C3879 C3876 1.403 . S
C3879 C3880 1.524 . S
C3879 C3883 1.400 . S
C3880 H3865 0.960 . S
C3880 H3866 0.960 . S
C3880 H3867 0.960 . S
C3880 C3879 1.524 . S
C3881 C3878 1.403 1_455 S
C3881 C3882 1.392 . S
C3881 C3885 1.495 . S
C3882 C3881 1.392 . S
C3882 C3883 1.385 1_455 S
C3882 C3884 1.478 . S
C3883 H3877 0.930 . S
C3883 C3879 1.400 . S
C3883 C3882 1.385 1_655 S
C3884 C3882 1.478 . S
C3884 C3886 1.381 . S
C3884 C3890 1.383 . S
C3885 C3881 1.495 . S
C3885 H3891 0.959 . S
C3885 H3892 0.961 . S
C3885 H3893 0.960 . S
C3886 C3884 1.381 . S
C3886 C3887 1.394 . S
C3886 H3894 0.930 . S
C3887 C3886 1.394 . S
C3887 C3888 1.383 . S
C3887 H3895 0.929 . S
C3888 C3887 1.383 . S
C3888 C3889 1.377 . S
C3889 H3873 0.930 . S
C3889 C3888 1.377 . S
C3889 C3890 1.379 . S
C3890 H3874 0.952 . S
C3890 C3884 1.383 . S
C3890 C3889 1.379 . S
H3891 C3885 0.959 . S
H3892 C3885 0.961 . S
H3893 C3885 0.960 . S
H3894 C3886 0.930 . S
H3895 C3887 0.929 . S
H3896 C3904 0.929 . S
H3897 C3906 0.930 . S
H3898 C3908 0.930 . S
H3899 C3911 0.929 . S
H3900 C3914 0.930 . S
H3901 C3916 0.960 . S
H3902 C3916 0.960 . S
H3903 C3916 0.960 . S
C3904 H3896 0.929 . S
C3904 C3905 1.377 . S
C3904 C3906 1.384 . S
C3905 C3904 1.377 . S
C3905 C3911 1.390 . S
C3906 H3897 0.930 . S
C3906 C3904 1.384 . S
C3906 C3907 1.372 . S
C3907 C3906 1.372 . S
C3907 C3908 1.400 . S
C3907 C3912 1.490 . S
C3908 H3898 0.930 . S
C3908 C3907 1.400 . S
C3908 C3911 1.386 . S
H3909 C3925 0.930 . S
H3910 C3926 0.931 . S
C3911 H3899 0.929 . S
C3911 C3905 1.390 . S
C3911 C3908 1.386 . S
C3912 C3907 1.490 . S
C3912 C3914 1.395 . S
C3912 C3915 1.403 . S
H3913 C3919 0.930 . S
C3914 H3900 0.930 . S
C3914 C3912 1.395 . S
C3914 C3917 1.403 . S
C3915 C3912 1.403 . S
C3915 C3916 1.524 . S
C3915 C3919 1.400 . S
C3916 H3901 0.960 . S
C3916 H3902 0.960 . S
C3916 H3903 0.960 . S
C3916 C3915 1.524 . S
C3917 C3914 1.403 . S
C3917 C3918 1.392 . S
C3917 C3921 1.495 . S
C3918 C3917 1.392 . S
C3918 C3919 1.385 . S
C3918 C3920 1.478 . S
C3919 H3913 0.930 . S
C3919 C3915 1.400 . S
C3919 C3918 1.385 . S
C3920 C3918 1.478 . S
C3920 C3922 1.381 . S
C3920 C3926 1.383 . S
C3921 C3917 1.495 . S
C3921 H3927 0.959 . S
C3921 H3928 0.961 . S
C3921 H3929 0.960 . S
C3922 C3920 1.381 . S
C3922 C3923 1.394 . S
C3922 H3930 0.930 . S
C3923 C3922 1.394 . S
C3923 C3924 1.383 . S
C3923 H3931 0.929 . S
C3924 C3923 1.383 . S
C3924 C3925 1.377 . S
C3925 H3909 0.930 . S
C3925 C3924 1.377 . S
C3925 C3926 1.379 . S
C3926 H3910 0.931 . S
C3926 C3920 1.383 . S
C3926 C3925 1.379 . S
H3927 C3921 0.959 . S
H3928 C3921 0.961 . S
H3929 C3921 0.960 . S
H3930 C3922 0.930 . S
H3931 C3923 0.929 . S
H3932 C3940 0.929 . S
H3933 C3942 0.930 . S
H3934 C3944 0.930 . S
H3935 C3947 0.929 . S
H3936 C3950 0.930 . S
H3937 C3952 0.953 . S
H3938 C3952 0.962 1_545 S
H3939 C3952 0.963 1_545 S
C3940 H3932 0.929 . S
C3940 C3941 1.377 . S
C3940 C3942 1.384 . S
C3941 C3940 1.377 . S
C3941 C3947 1.390 . S
C3942 H3933 0.930 . S
C3942 C3940 1.384 . S
C3942 C3943 1.372 . S
C3943 C3942 1.372 . S
C3943 C3944 1.400 . S
C3943 C3948 1.490 . S
C3944 H3934 0.930 . S
C3944 C3943 1.400 . S
C3944 C3947 1.386 . S
H3945 C3961 0.930 . S
H3946 C3962 0.931 . S
C3947 H3935 0.929 . S
C3947 C3941 1.390 . S
C3947 C3944 1.386 . S
C3948 C3943 1.490 . S
C3948 C3950 1.395 . S
C3948 C3951 1.403 . S
H3949 C3955 0.930 . S
C3950 H3936 0.930 . S
C3950 C3948 1.395 . S
C3950 C3953 1.403 . S
C3951 C3948 1.403 . S
C3951 C3952 1.526 1_545 S
C3951 C3955 1.400 1_545 S
C3952 H3937 0.953 . S
C3952 H3938 0.962 1_565 S
C3952 H3939 0.963 1_565 S
C3952 C3951 1.526 1_565 S
C3953 C3950 1.403 . S
C3953 C3954 1.392 . S
C3953 C3957 1.495 . S
C3954 C3953 1.392 . S
C3954 C3955 1.385 1_545 S
C3954 C3956 1.478 1_545 S
C3955 H3949 0.930 . S
C3955 C3951 1.400 1_565 S
C3955 C3954 1.385 1_565 S
C3956 C3954 1.478 1_565 S
C3956 C3958 1.381 . S
C3956 C3962 1.383 . S
C3957 C3953 1.495 . S
C3957 H3963 0.959 . S
C3957 H3964 0.961 . S
C3957 H3965 0.960 . S
C3958 C3956 1.381 . S
C3958 C3959 1.394 . S
C3958 H3966 0.930 . S
C3959 C3958 1.394 . S
C3959 C3960 1.383 . S
C3959 H3967 0.929 . S
C3960 C3959 1.383 . S
C3960 C3961 1.377 . S
C3961 H3945 0.930 . S
C3961 C3960 1.377 . S
C3961 C3962 1.379 . S
C3962 H3946 0.931 . S
C3962 C3956 1.383 . S
C3962 C3961 1.379 . S
H3963 C3957 0.959 . S
H3964 C3957 0.961 . S
H3965 C3957 0.960 . S
H3966 C3958 0.930 . S
H3967 C3959 0.929 . S
H3968 C3976 0.929 . S
H3969 C3978 0.930 . S
H3970 C3980 0.930 . S
H3971 C3983 0.929 . S
H3972 C3986 0.930 . S
H3973 C3988 0.960 . S
H3974 C3988 0.960 . S
H3975 C3988 0.960 . S
C3976 H3968 0.929 . S
C3976 C3977 1.377 . S
C3976 C3978 1.384 . S
C3977 C3976 1.377 . S
C3977 C3983 1.390 . S
C3978 H3969 0.930 . S
C3978 C3976 1.384 . S
C3978 C3979 1.372 . S
C3979 C3978 1.372 . S
C3979 C3980 1.400 . S
C3979 C3984 1.490 . S
C3980 H3970 0.930 . S
C3980 C3979 1.400 . S
C3980 C3983 1.386 . S
H3981 C3997 0.930 . S
H3982 C3998 0.931 . S
C3983 H3971 0.929 . S
C3983 C3977 1.390 . S
C3983 C3980 1.386 . S
C3984 C3979 1.490 . S
C3984 C3986 1.395 . S
C3984 C3987 1.403 . S
H3985 C3991 0.930 . S
C3986 H3972 0.930 . S
C3986 C3984 1.395 . S
C3986 C3989 1.403 . S
C3987 C3984 1.403 . S
C3987 C3988 1.524 . S
C3987 C3991 1.400 . S
C3988 H3973 0.960 . S
C3988 H3974 0.960 . S
C3988 H3975 0.960 . S
C3988 C3987 1.524 . S
C3989 C3986 1.403 . S
C3989 C3990 1.392 . S
C3989 C3993 1.495 . S
C3990 C3989 1.392 . S
C3990 C3991 1.385 . S
C3990 C3992 1.478 . S
C3991 H3985 0.930 . S
C3991 C3987 1.400 . S
C3991 C3990 1.385 . S
C3992 C3990 1.478 . S
C3992 C3994 1.381 . S
C3992 C3998 1.383 . S
C3993 C3989 1.495 . S
C3993 H3999 0.959 . S
C3993 H4000 0.961 . S
C3993 H4001 0.960 . S
C3994 C3992 1.381 . S
C3994 C3995 1.394 . S
C3994 H4002 0.930 . S
C3995 C3994 1.394 . S
C3995 C3996 1.383 . S
C3995 H4003 0.929 . S
C3996 C3995 1.383 . S
C3996 C3997 1.377 . S
C3997 H3981 0.930 . S
C3997 C3996 1.377 . S
C3997 C3998 1.379 . S
C3998 H3982 0.931 . S
C3998 C3992 1.383 . S
C3998 C3997 1.379 . S
H3999 C3993 0.959 . S
H4000 C3993 0.961 . S
H4001 C3993 0.960 . S
H4002 C3994 0.930 . S
H4003 C3995 0.929 . S
H4004 C4012 0.929 . S
H4005 C4014 0.930 . S
H4006 C4016 0.930 . S
H4007 C4019 0.929 . S
H4008 C4022 0.930 . S
H4009 C4024 0.957 1_545 S
H4010 C4024 0.961 . S
H4011 C4024 0.961 . S
C4012 H4004 0.929 . S
C4012 C4013 1.377 . S
C4012 C4014 1.384 . S
C4013 C4012 1.377 . S
C4013 C4019 1.390 . S
C4014 H4005 0.930 . S
C4014 C4012 1.384 . S
C4014 C4015 1.372 . S
C4015 C4014 1.372 . S
C4015 C4016 1.400 . S
C4015 C4020 1.490 . S
C4016 H4006 0.930 . S
C4016 C4015 1.400 . S
C4016 C4019 1.386 . S
H4017 C4033 0.930 . S
H4018 C4034 0.931 . S
C4019 H4007 0.929 . S
C4019 C4013 1.390 . S
C4019 C4016 1.386 . S
C4020 C4015 1.490 . S
C4020 C4022 1.395 . S
C4020 C4023 1.403 . S
H4021 C4027 0.930 . S
C4022 H4008 0.930 . S
C4022 C4020 1.395 . S
C4022 C4025 1.403 . S
C4023 C4020 1.403 . S
C4023 C4024 1.525 . S
C4023 C4027 1.400 1_565 S
C4024 H4009 0.957 1_565 S
C4024 H4010 0.961 . S
C4024 H4011 0.961 . S
C4024 C4023 1.525 . S
C4025 C4022 1.403 . S
C4025 C4026 1.392 . S
C4025 C4029 1.495 . S
C4026 C4025 1.392 . S
C4026 C4027 1.385 1_565 S
C4026 C4028 1.478 1_565 S
C4027 H4021 0.930 . S
C4027 C4023 1.400 1_545 S
C4027 C4026 1.385 1_545 S
C4028 C4026 1.478 1_545 S
C4028 C4030 1.381 . S
C4028 C4034 1.383 . S
C4029 C4025 1.495 . S
C4029 H4035 0.959 . S
C4029 H4036 0.961 . S
C4029 H4037 0.960 . S
C4030 C4028 1.381 . S
C4030 C4031 1.394 . S
C4030 H4038 0.930 . S
C4031 C4030 1.394 . S
C4031 C4032 1.383 . S
C4031 H4039 0.929 . S
C4032 C4031 1.383 . S
C4032 C4033 1.377 . S
C4033 H4017 0.930 . S
C4033 C4032 1.377 . S
C4033 C4034 1.379 . S
C4034 H4018 0.931 . S
C4034 C4028 1.383 . S
C4034 C4033 1.379 . S
H4035 C4029 0.959 . S
H4036 C4029 0.961 . S
H4037 C4029 0.960 . S
H4038 C4030 0.930 . S
H4039 C4031 0.929 . S
H4040 C4048 0.929 . S
H4041 C4050 0.930 . S
H4042 C4052 0.930 . S
H4043 C4055 0.929 . S
H4044 C4058 0.930 . S
H4045 C4060 0.960 . S
H4046 C4060 0.960 . S
H4047 C4060 0.960 . S
C4048 H4040 0.929 . S
C4048 C4049 1.377 . S
C4048 C4050 1.384 . S
C4049 C4048 1.377 . S
C4049 C4055 1.390 . S
C4050 H4041 0.930 . S
C4050 C4048 1.384 . S
C4050 C4051 1.372 . S
C4051 C4050 1.372 . S
C4051 C4052 1.400 . S
C4051 C4056 1.521 . S
C4052 H4042 0.930 . S
C4052 C4051 1.400 . S
C4052 C4055 1.386 . S
H4053 C4069 0.930 . S
H4054 C4070 0.931 . S
C4055 H4043 0.929 . S
C4055 C4049 1.390 . S
C4055 C4052 1.386 . S
C4056 C4051 1.521 . S
C4056 C4058 1.354 1_556 S
C4056 C4059 1.412 . S
H4057 C4063 0.930 . S
C4058 H4044 0.930 . S
C4058 C4056 1.354 1_554 S
C4058 C4061 1.403 . S
C4059 C4056 1.412 . S
C4059 C4060 1.524 . S
C4059 C4063 1.400 1_556 S
C4060 H4045 0.960 . S
C4060 H4046 0.960 . S
C4060 H4047 0.960 . S
C4060 C4059 1.524 . S
C4061 C4058 1.403 . S
C4061 C4062 1.392 . S
C4061 C4065 1.495 . S
C4062 C4061 1.392 . S
C4062 C4063 1.385 . S
C4062 C4064 1.478 . S
C4063 H4057 0.930 . S
C4063 C4059 1.400 1_554 S
C4063 C4062 1.385 . S
C4064 C4062 1.478 . S
C4064 C4066 1.381 . S
C4064 C4070 1.383 . S
C4065 C4061 1.495 . S
C4065 H4071 0.959 . S
C4065 H4072 0.961 . S
C4065 H4073 0.960 . S
C4066 C4064 1.381 . S
C4066 C4067 1.394 . S
C4066 H4074 0.930 . S
C4067 C4066 1.394 . S
C4067 C4068 1.383 . S
C4067 H4075 0.929 . S
C4068 C4067 1.383 . S
C4068 C4069 1.377 . S
C4069 H4053 0.930 . S
C4069 C4068 1.377 . S
C4069 C4070 1.379 . S
C4070 H4054 0.931 . S
C4070 C4064 1.383 . S
C4070 C4069 1.379 . S
H4071 C4065 0.959 . S
H4072 C4065 0.961 . S
H4073 C4065 0.960 . S
H4074 C4066 0.930 . S
H4075 C4067 0.929 . S
H4076 C4084 0.929 . S
H4077 C4086 0.930 . S
H4078 C4088 0.930 . S
H4079 C4091 0.929 . S
H4080 C4094 0.930 . S
H4081 C4096 0.960 . S
H4082 C4096 0.960 . S
H4083 C4096 0.960 . S
C4084 H4076 0.929 . S
C4084 C4085 1.377 . S
C4084 C4086 1.384 . S
C4085 C4084 1.377 . S
C4085 C4091 1.390 . S
C4086 H4077 0.930 . S
C4086 C4084 1.384 . S
C4086 C4087 1.372 . S
C4087 C4086 1.372 . S
C4087 C4088 1.400 . S
C4087 C4092 1.490 . S
C4088 H4078 0.930 . S
C4088 C4087 1.400 . S
C4088 C4091 1.386 . S
H4089 C4105 0.930 . S
H4090 C4106 0.931 . S
C4091 H4079 0.929 . S
C4091 C4085 1.390 . S
C4091 C4088 1.386 . S
C4092 C4087 1.490 . S
C4092 C4094 1.395 . S
C4092 C4095 1.403 1_545 S
H4093 C4099 0.930 . S
C4094 H4080 0.930 . S
C4094 C4092 1.395 . S
C4094 C4097 1.403 1_545 S
C4095 C4092 1.403 1_565 S
C4095 C4096 1.524 . S
C4095 C4099 1.400 . S
C4096 H4081 0.960 . S
C4096 H4082 0.960 . S
C4096 H4083 0.960 . S
C4096 C4095 1.524 . S
C4097 C4094 1.403 1_565 S
C4097 C4098 1.392 . S
C4097 C4101 1.510 . S
C4098 C4097 1.392 . S
C4098 C4099 1.385 . S
C4098 C4100 1.478 . S
C4099 H4093 0.930 . S
C4099 C4095 1.400 . S
C4099 C4098 1.385 . S
C4100 C4098 1.478 . S
C4100 C4102 1.381 . S
C4100 C4106 1.383 . S
C4101 C4097 1.510 . S
C4101 H4107 0.913 1_565 S
C4101 H4108 0.965 . S
C4101 H4109 0.990 . S
C4102 C4100 1.381 . S
C4102 C4103 1.394 . S
C4102 H4110 0.930 . S
C4103 C4102 1.394 . S
C4103 C4104 1.383 . S
C4103 H4111 0.929 . S
C4104 C4103 1.383 . S
C4104 C4105 1.377 . S
C4105 H4089 0.930 . S
C4105 C4104 1.377 . S
C4105 C4106 1.379 . S
C4106 H4090 0.931 . S
C4106 C4100 1.383 . S
C4106 C4105 1.379 . S
H4107 C4101 0.913 1_545 S
H4108 C4101 0.965 . S
H4109 C4101 0.990 . S
H4110 C4102 0.930 . S
H4111 C4103 0.929 . S
H4112 C4120 0.929 . S
H4113 C4122 0.930 . S
H4114 C4124 0.930 . S
H4115 C4127 0.929 . S
H4116 C4130 0.930 . S
H4117 C4132 0.960 . S
H4118 C4132 0.960 . S
H4119 C4132 0.960 . S
C4120 H4112 0.929 . S
C4120 C4121 1.377 . S
C4120 C4122 1.384 . S
C4121 C4120 1.377 . S
C4121 C4127 1.390 . S
C4122 H4113 0.930 . S
C4122 C4120 1.384 . S
C4122 C4123 1.372 . S
C4123 C4122 1.372 . S
C4123 C4124 1.400 . S
C4123 C4128 1.490 . S
C4124 H4114 0.930 . S
C4124 C4123 1.400 . S
C4124 C4127 1.386 . S
H4125 C4141 0.930 . S
H4126 C4142 0.931 . S
C4127 H4115 0.929 . S
C4127 C4121 1.390 . S
C4127 C4124 1.386 . S
C4128 C4123 1.490 . S
C4128 C4130 1.395 . S
C4128 C4131 1.403 . S
H4129 C4135 0.930 . S
C4130 H4116 0.930 . S
C4130 C4128 1.395 . S
C4130 C4133 1.403 . S
C4131 C4128 1.403 . S
C4131 C4132 1.524 . S
C4131 C4135 1.400 . S
C4132 H4117 0.960 . S
C4132 H4118 0.960 . S
C4132 H4119 0.960 . S
C4132 C4131 1.524 . S
C4133 C4130 1.403 . S
C4133 C4134 1.392 . S
C4133 C4137 1.495 . S
C4134 C4133 1.392 . S
C4134 C4135 1.385 . S
C4134 C4136 1.478 . S
C4135 H4129 0.930 . S
C4135 C4131 1.400 . S
C4135 C4134 1.385 . S
C4136 C4134 1.478 . S
C4136 C4138 1.381 . S
C4136 C4142 1.383 . S
C4137 C4133 1.495 . S
C4137 H4143 0.959 . S
C4137 H4144 0.961 . S
C4137 H4145 0.960 . S
C4138 C4136 1.381 . S
C4138 C4139 1.394 . S
C4138 H4146 0.930 . S
C4139 C4138 1.394 . S
C4139 C4140 1.383 . S
C4139 H4147 0.929 . S
C4140 C4139 1.383 . S
C4140 C4141 1.377 . S
C4141 H4125 0.930 . S
C4141 C4140 1.377 . S
C4141 C4142 1.379 . S
C4142 H4126 0.931 . S
C4142 C4136 1.383 . S
C4142 C4141 1.379 . S
H4143 C4137 0.959 . S
H4144 C4137 0.961 . S
H4145 C4137 0.960 . S
H4146 C4138 0.930 . S
H4147 C4139 0.929 . S
H4148 C4156 0.929 . S
H4149 C4158 0.867 1_545 S
H4150 C4160 0.930 . S
H4151 C4163 0.929 . S
H4152 C4166 0.930 . S
H4153 C4168 0.948 1_545 S
H4154 C4168 0.960 . S
H4155 C4168 0.960 . S
C4156 H4148 0.929 . S
C4156 C4157 1.377 . S
C4156 C4158 1.384 . S
C4157 C4156 1.377 . S
C4157 C4163 1.390 . S
C4158 H4149 0.867 1_565 S
C4158 C4156 1.384 . S
C4158 C4159 1.372 . S
C4159 C4158 1.372 . S
C4159 C4160 1.400 . S
C4159 C4164 1.494 . S
C4160 H4150 0.930 . S
C4160 C4159 1.400 . S
C4160 C4163 1.386 . S
H4161 C4177 0.930 . S
H4162 C4178 0.931 . S
C4163 H4151 0.929 . S
C4163 C4157 1.390 . S
C4163 C4160 1.386 . S
C4164 C4159 1.494 . S
C4164 C4166 1.392 1_565 S
C4164 C4167 1.401 1_565 S
H4165 C4171 0.930 . S
C4166 H4152 0.930 . S
C4166 C4164 1.392 1_545 S
C4166 C4169 1.403 . S
C4167 C4164 1.401 1_545 S
C4167 C4168 1.524 1_545 S
C4167 C4171 1.400 . S
C4168 H4153 0.948 1_565 S
C4168 H4154 0.960 . S
C4168 H4155 0.960 . S
C4168 C4167 1.524 1_565 S
C4169 C4166 1.403 . S
C4169 C4170 1.392 . S
C4169 C4173 1.495 . S
C4170 C4169 1.392 . S
C4170 C4171 1.385 . S
C4170 C4172 1.478 . S
C4171 H4165 0.930 . S
C4171 C4167 1.400 . S
C4171 C4170 1.385 . S
C4172 C4170 1.478 . S
C4172 C4174 1.381 . S
C4172 C4178 1.383 . S
C4173 C4169 1.495 . S
C4173 H4179 0.959 . S
C4173 H4180 0.961 . S
C4173 H4181 0.960 . S
C4174 C4172 1.381 . S
C4174 C4175 1.394 . S
C4174 H4182 0.930 . S
C4175 C4174 1.394 . S
C4175 C4176 1.383 . S
C4175 H4183 0.929 . S
C4176 C4175 1.383 . S
C4176 C4177 1.377 . S
C4177 H4161 0.930 . S
C4177 C4176 1.377 . S
C4177 C4178 1.379 . S
C4178 H4162 0.931 . S
C4178 C4172 1.383 . S
C4178 C4177 1.379 . S
H4179 C4173 0.959 . S
H4180 C4173 0.961 . S
H4181 C4173 0.960 . S
H4182 C4174 0.930 . S
H4183 C4175 0.929 . S
H4184 C4192 0.929 . S
H4185 C4194 0.930 . S
H4186 C4196 0.930 . S
H4187 C4199 0.929 . S
H4188 C4202 0.930 . S
H4189 C4204 0.960 . S
H4190 C4204 0.960 . S
H4191 C4204 0.960 . S
C4192 H4184 0.929 . S
C4192 C4193 1.377 . S
C4192 C4194 1.384 . S
C4193 C4192 1.377 . S
C4193 C4199 1.390 . S
C4194 H4185 0.930 . S
C4194 C4192 1.384 . S
C4194 C4195 1.372 . S
C4195 C4194 1.372 . S
C4195 C4196 1.400 . S
C4195 C4200 1.490 . S
C4196 H4186 0.930 . S
C4196 C4195 1.400 . S
C4196 C4199 1.386 . S
H4197 C4213 0.930 . S
H4198 C4214 0.931 . S
C4199 H4187 0.929 . S
C4199 C4193 1.390 . S
C4199 C4196 1.386 . S
C4200 C4195 1.490 . S
C4200 C4202 1.395 . S
C4200 C4203 1.403 1_554 S
H4201 C4207 0.930 . S
C4202 H4188 0.930 . S
C4202 C4200 1.395 . S
C4202 C4205 1.403 1_554 S
C4203 C4200 1.403 1_556 S
C4203 C4204 1.524 . S
C4203 C4207 1.400 . S
C4204 H4189 0.960 . S
C4204 H4190 0.960 . S
C4204 H4191 0.960 . S
C4204 C4203 1.524 . S
C4205 C4202 1.403 1_556 S
C4205 C4206 1.392 . S
C4205 C4209 1.491 1_556 S
C4206 C4205 1.392 . S
C4206 C4207 1.385 . S
C4206 C4208 1.478 . S
C4207 H4201 0.930 . S
C4207 C4203 1.400 . S
C4207 C4206 1.385 . S
C4208 C4206 1.478 . S
C4208 C4210 1.381 . S
C4208 C4214 1.383 . S
C4209 C4205 1.491 1_554 S
C4209 H4215 0.971 . S
C4209 H4216 0.959 1_554 S
C4209 H4217 0.952 1_554 S
C4210 C4208 1.381 . S
C4210 C4211 1.394 . S
C4210 H4218 0.930 . S
C4211 C4210 1.394 . S
C4211 C4212 1.383 . S
C4211 H4219 0.929 . S
C4212 C4211 1.383 . S
C4212 C4213 1.377 . S
C4213 H4197 0.930 . S
C4213 C4212 1.377 . S
C4213 C4214 1.379 . S
C4214 H4198 0.931 . S
C4214 C4208 1.383 . S
C4214 C4213 1.379 . S
H4215 C4209 0.971 . S
H4216 C4209 0.959 1_556 S
H4217 C4209 0.952 1_556 S
H4218 C4210 0.930 . S
H4219 C4211 0.929 . S
H4220 C4228 0.929 . S
H4221 C4230 0.930 . S
H4222 C4232 0.930 . S
H4223 C4235 0.929 . S
H4224 C4238 0.930 . S
H4225 C4240 0.960 . S
H4226 C4240 0.960 . S
H4227 C4240 0.960 . S
C4228 H4220 0.929 . S
C4228 C4229 1.377 . S
C4228 C4230 1.384 . S
C4229 C4228 1.377 . S
C4229 C4235 1.390 . S
C4230 H4221 0.930 . S
C4230 C4228 1.384 . S
C4230 C4231 1.372 . S
C4231 C4230 1.372 . S
C4231 C4232 1.400 . S
C4231 C4236 1.475 1_655 S
C4232 H4222 0.930 . S
C4232 C4231 1.400 . S
C4232 C4235 1.386 . S
H4233 C4249 0.930 . S
H4234 C4250 0.931 . S
C4235 H4223 0.929 . S
C4235 C4229 1.390 . S
C4235 C4232 1.386 . S
C4236 C4231 1.475 1_455 S
C4236 C4238 1.413 . S
C4236 C4239 1.399 1_455 S
H4237 C4243 0.930 . S
C4238 H4224 0.930 . S
C4238 C4236 1.413 . S
C4238 C4241 1.403 . S
C4239 C4236 1.399 1_655 S
C4239 C4240 1.524 . S
C4239 C4243 1.400 1_655 S
C4240 H4225 0.960 . S
C4240 H4226 0.960 . S
C4240 H4227 0.960 . S
C4240 C4239 1.524 . S
C4241 C4238 1.403 . S
C4241 C4242 1.392 . S
C4241 C4245 1.495 . S
C4242 C4241 1.392 . S
C4242 C4243 1.385 . S
C4242 C4244 1.478 . S
C4243 H4237 0.930 . S
C4243 C4239 1.400 1_455 S
C4243 C4242 1.385 . S
C4244 C4242 1.478 . S
C4244 C4246 1.381 . S
C4244 C4250 1.383 . S
C4245 C4241 1.495 . S
C4245 H4251 0.959 . S
C4245 H4252 0.961 . S
C4245 H4253 0.960 . S
C4246 C4244 1.381 . S
C4246 C4247 1.394 . S
C4246 H4254 0.930 . S
C4247 C4246 1.394 . S
C4247 C4248 1.383 . S
C4247 H4255 0.929 . S
C4248 C4247 1.383 . S
C4248 C4249 1.377 . S
C4249 H4233 0.930 . S
C4249 C4248 1.377 . S
C4249 C4250 1.379 . S
C4250 H4234 0.931 . S
C4250 C4244 1.383 . S
C4250 C4249 1.379 . S
H4251 C4245 0.959 . S
H4252 C4245 0.961 . S
H4253 C4245 0.960 . S
H4254 C4246 0.930 . S
H4255 C4247 0.929 . S
H4256 C4264 0.929 . S
H4257 C4266 0.930 . S
H4258 C4268 0.930 . S
H4259 C4271 0.929 . S
H4260 C4274 0.930 . S
H4261 C4276 0.960 . S
H4262 C4276 0.960 . S
H4263 C4276 0.960 . S
C4264 H4256 0.929 . S
C4264 C4265 1.377 . S
C4264 C4266 1.384 . S
C4265 C4264 1.377 . S
C4265 C4271 1.390 . S
C4266 H4257 0.930 . S
C4266 C4264 1.384 . S
C4266 C4267 1.372 . S
C4267 C4266 1.372 . S
C4267 C4268 1.400 . S
C4267 C4272 1.490 . S
C4268 H4258 0.930 . S
C4268 C4267 1.400 . S
C4268 C4271 1.386 . S
H4269 C4285 0.930 . S
H4270 C4286 0.931 . S
C4271 H4259 0.929 . S
C4271 C4265 1.390 . S
C4271 C4268 1.386 . S
C4272 C4267 1.490 . S
C4272 C4274 1.395 . S
C4272 C4275 1.403 . S
H4273 C4279 0.930 . S
C4274 H4260 0.930 . S
C4274 C4272 1.395 . S
C4274 C4277 1.403 . S
C4275 C4272 1.403 . S
C4275 C4276 1.524 . S
C4275 C4279 1.400 . S
C4276 H4261 0.960 . S
C4276 H4262 0.960 . S
C4276 H4263 0.960 . S
C4276 C4275 1.524 . S
C4277 C4274 1.403 . S
C4277 C4278 1.392 . S
C4277 C4281 1.495 . S
C4278 C4277 1.392 . S
C4278 C4279 1.385 . S
C4278 C4280 1.478 . S
C4279 H4273 0.930 . S
C4279 C4275 1.400 . S
C4279 C4278 1.385 . S
C4280 C4278 1.478 . S
C4280 C4282 1.381 . S
C4280 C4286 1.383 . S
C4281 C4277 1.495 . S
C4281 H4287 0.959 . S
C4281 H4288 0.961 . S
C4281 H4289 0.960 . S
C4282 C4280 1.381 . S
C4282 C4283 1.394 . S
C4282 H4290 0.930 . S
C4283 C4282 1.394 . S
C4283 C4284 1.383 . S
C4283 H4291 0.929 . S
C4284 C4283 1.383 . S
C4284 C4285 1.377 . S
C4285 H4269 0.930 . S
C4285 C4284 1.377 . S
C4285 C4286 1.379 . S
C4286 H4270 0.931 . S
C4286 C4280 1.383 . S
C4286 C4285 1.379 . S
H4287 C4281 0.959 . S
H4288 C4281 0.961 . S
H4289 C4281 0.960 . S
H4290 C4282 0.930 . S
H4291 C4283 0.929 . S
H4292 C4300 0.929 . S
H4293 C4302 0.930 1_655 S
H4294 C4304 0.930 . S
H4295 C4307 0.929 . S
H4296 C4310 0.930 . S
H4297 C4312 0.960 . S
H4298 C4312 0.960 . S
H4299 C4312 0.960 . S
C4300 H4292 0.929 . S
C4300 C4301 1.377 . S
C4300 C4302 1.384 . S
C4301 C4300 1.377 . S
C4301 C4307 1.390 . S
C4302 H4293 0.930 1_455 S
C4302 C4300 1.384 . S
C4302 C4303 1.372 . S
C4303 C4302 1.372 . S
C4303 C4304 1.400 . S
C4303 C4308 1.459 1_455 S
C4304 H4294 0.930 . S
C4304 C4303 1.400 . S
C4304 C4307 1.386 . S
H4305 C4321 0.930 . S
H4306 C4322 0.931 . S
C4307 H4295 0.929 . S
C4307 C4301 1.390 . S
C4307 C4304 1.386 . S
C4308 C4303 1.459 1_655 S
C4308 C4310 1.427 . S
C4308 C4311 1.403 . S
H4309 C4315 0.930 . S
C4310 H4296 0.930 . S
C4310 C4308 1.427 . S
C4310 C4313 1.403 . S
C4311 C4308 1.403 . S
C4311 C4312 1.497 1_655 S
C4311 C4315 1.429 . S
C4312 H4297 0.960 . S
C4312 H4298 0.960 . S
C4312 H4299 0.960 . S
C4312 C4311 1.497 1_455 S
C4313 C4310 1.403 . S
C4313 C4314 1.392 . S
C4313 C4317 1.495 . S
C4314 C4313 1.392 . S
C4314 C4315 1.385 . S
C4314 C4316 1.478 . S
C4315 H4309 0.930 . S
C4315 C4311 1.429 . S
C4315 C4314 1.385 . S
C4316 C4314 1.478 . S
C4316 C4318 1.381 . S
C4316 C4322 1.383 . S
C4317 C4313 1.495 . S
C4317 H4323 0.959 . S
C4317 H4324 0.961 . S
C4317 H4325 0.960 . S
C4318 C4316 1.381 . S
C4318 C4319 1.394 . S
C4318 H4326 0.930 . S
C4319 C4318 1.394 . S
C4319 C4320 1.383 . S
C4319 H4327 0.929 . S
C4320 C4319 1.383 . S
C4320 C4321 1.377 . S
C4321 H4305 0.930 . S
C4321 C4320 1.377 . S
C4321 C4322 1.379 . S
C4322 H4306 0.931 . S
C4322 C4316 1.383 . S
C4322 C4321 1.379 . S
H4323 C4317 0.959 . S
H4324 C4317 0.961 . S
H4325 C4317 0.960 . S
H4326 C4318 0.930 . S
H4327 C4319 0.929 . S
H4328 C4336 0.929 . S
H4329 C4338 0.930 . S
H4330 C4340 0.930 . S
H4331 C4343 0.929 . S
H4332 C4346 0.930 . S
H4333 C4348 0.960 . S
H4334 C4348 0.960 . S
H4335 C4348 0.960 . S
C4336 H4328 0.929 . S
C4336 C4337 1.377 . S
C4336 C4338 1.384 . S
C4337 C4336 1.377 . S
C4337 C4343 1.390 . S
C4338 H4329 0.930 . S
C4338 C4336 1.384 . S
C4338 C4339 1.372 . S
C4339 C4338 1.372 . S
C4339 C4340 1.400 . S
C4339 C4344 1.462 1_455 S
C4340 H4330 0.930 . S
C4340 C4339 1.400 . S
C4340 C4343 1.386 . S
H4341 C4357 0.930 . S
H4342 C4358 0.931 . S
C4343 H4331 0.929 . S
C4343 C4337 1.390 . S
C4343 C4340 1.386 . S
C4344 C4339 1.462 1_655 S
C4344 C4346 1.429 . S
C4344 C4347 1.397 1_655 S
H4345 C4351 0.930 . S
C4346 H4332 0.930 . S
C4346 C4344 1.429 . S
C4346 C4349 1.403 . S
C4347 C4344 1.397 1_455 S
C4347 C4348 1.524 . S
C4347 C4351 1.400 1_455 S
C4348 H4333 0.960 . S
C4348 H4334 0.960 . S
C4348 H4335 0.960 . S
C4348 C4347 1.524 . S
C4349 C4346 1.403 . S
C4349 C4350 1.392 . S
C4349 C4353 1.495 . S
C4350 C4349 1.392 . S
C4350 C4351 1.385 . S
C4350 C4352 1.478 . S
C4351 H4345 0.930 . S
C4351 C4347 1.400 1_655 S
C4351 C4350 1.385 . S
C4352 C4350 1.478 . S
C4352 C4354 1.381 . S
C4352 C4358 1.383 . S
C4353 C4349 1.495 . S
C4353 H4359 0.959 . S
C4353 H4360 0.961 . S
C4353 H4361 0.960 . S
C4354 C4352 1.381 . S
C4354 C4355 1.394 . S
C4354 H4362 0.930 . S
C4355 C4354 1.394 . S
C4355 C4356 1.383 . S
C4355 H4363 0.929 . S
C4356 C4355 1.383 . S
C4356 C4357 1.377 . S
C4357 H4341 0.930 . S
C4357 C4356 1.377 . S
C4357 C4358 1.379 . S
C4358 H4342 0.931 . S
C4358 C4352 1.383 . S
C4358 C4357 1.379 . S
H4359 C4353 0.959 . S
H4360 C4353 0.961 . S
H4361 C4353 0.960 . S
H4362 C4354 0.930 . S
H4363 C4355 0.929 . S
H4364 C4372 0.929 . S
H4365 C4374 0.930 . S
H4366 C4376 0.930 . S
H4367 C4379 0.929 . S
H4368 C4382 0.930 . S
H4369 C4384 0.960 . S
H4370 C4384 0.960 . S
H4371 C4384 0.960 . S
C4372 H4364 0.929 . S
C4372 C4373 1.377 . S
C4372 C4374 1.384 . S
C4373 C4372 1.377 . S
C4373 C4379 1.390 . S
C4374 H4365 0.930 . S
C4374 C4372 1.384 . S
C4374 C4375 1.372 . S
C4375 C4374 1.372 . S
C4375 C4376 1.400 . S
C4375 C4380 1.490 . S
C4376 H4366 0.930 . S
C4376 C4375 1.400 . S
C4376 C4379 1.386 . S
H4377 C4393 0.930 . S
H4378 C4394 0.931 . S
C4379 H4367 0.929 . S
C4379 C4373 1.390 . S
C4379 C4376 1.386 . S
C4380 C4375 1.490 . S
C4380 C4382 1.395 . S
C4380 C4383 1.403 . S
H4381 C4387 0.930 . S
C4382 H4368 0.930 . S
C4382 C4380 1.395 . S
C4382 C4385 1.403 . S
C4383 C4380 1.403 . S
C4383 C4384 1.524 . S
C4383 C4387 1.400 . S
C4384 H4369 0.960 . S
C4384 H4370 0.960 . S
C4384 H4371 0.960 . S
C4384 C4383 1.524 . S
C4385 C4382 1.403 . S
C4385 C4386 1.392 . S
C4385 C4389 1.495 . S
C4386 C4385 1.392 . S
C4386 C4387 1.385 . S
C4386 C4388 1.478 . S
C4387 H4381 0.930 . S
C4387 C4383 1.400 . S
C4387 C4386 1.385 . S
C4388 C4386 1.478 . S
C4388 C4390 1.381 . S
C4388 C4394 1.383 . S
C4389 C4385 1.495 . S
C4389 H4395 0.959 . S
C4389 H4396 0.961 . S
C4389 H4397 0.960 . S
C4390 C4388 1.381 . S
C4390 C4391 1.394 . S
C4390 H4398 0.930 . S
C4391 C4390 1.394 . S
C4391 C4392 1.383 . S
C4391 H4399 0.929 . S
C4392 C4391 1.383 . S
C4392 C4393 1.377 . S
C4393 H4377 0.930 . S
C4393 C4392 1.377 . S
C4393 C4394 1.379 . S
C4394 H4378 0.931 . S
C4394 C4388 1.383 . S
C4394 C4393 1.379 . S
H4395 C4389 0.959 . S
H4396 C4389 0.961 . S
H4397 C4389 0.960 . S
H4398 C4390 0.930 . S
H4399 C4391 0.929 . S
H4400 C4408 0.929 . S
H4401 C4410 0.930 . S
H4402 C4412 0.930 . S
H4403 C4415 0.929 . S
H4404 C4418 0.930 . S
H4405 C4420 0.960 . S
H4406 C4420 0.960 . S
H4407 C4420 0.960 . S
C4408 H4400 0.929 . S
C4408 C4409 1.377 . S
C4408 C4410 1.384 . S
C4409 C4408 1.377 . S
C4409 C4415 1.390 . S
C4410 H4401 0.930 . S
C4410 C4408 1.384 . S
C4410 C4411 1.372 . S
C4411 C4410 1.372 . S
C4411 C4412 1.400 . S
C4411 C4416 1.505 . S
C4412 H4402 0.930 . S
C4412 C4411 1.400 . S
C4412 C4415 1.386 . S
H4413 C4429 0.930 . S
H4414 C4430 0.931 . S
C4415 H4403 0.929 . S
C4415 C4409 1.390 . S
C4415 C4412 1.386 . S
C4416 C4411 1.505 . S
C4416 C4418 1.398 . S
C4416 C4419 1.384 1_655 S
H4417 C4423 0.930 . S
C4418 H4404 0.930 . S
C4418 C4416 1.398 . S
C4418 C4421 1.403 1_655 S
C4419 C4416 1.384 1_455 S
C4419 C4420 1.524 . S
C4419 C4423 1.400 . S
C4420 H4405 0.960 . S
C4420 H4406 0.960 . S
C4420 H4407 0.960 . S
C4420 C4419 1.524 . S
C4421 C4418 1.403 1_455 S
C4421 C4422 1.392 . S
C4421 C4425 1.495 . S
C4422 C4421 1.392 . S
C4422 C4423 1.385 . S
C4422 C4424 1.478 . S
C4423 H4417 0.930 . S
C4423 C4419 1.400 . S
C4423 C4422 1.385 . S
C4424 C4422 1.478 . S
C4424 C4426 1.381 . S
C4424 C4430 1.383 . S
C4425 C4421 1.495 . S
C4425 H4431 0.959 1_455 S
C4425 H4432 0.961 . S
C4425 H4433 0.960 . S
C4426 C4424 1.381 . S
C4426 C4427 1.394 . S
C4426 H4434 0.930 . S
C4427 C4426 1.394 . S
C4427 C4428 1.383 . S
C4427 H4435 0.929 . S
C4428 C4427 1.383 . S
C4428 C4429 1.377 . S
C4429 H4413 0.930 . S
C4429 C4428 1.377 . S
C4429 C4430 1.379 . S
C4430 H4414 0.931 . S
C4430 C4424 1.383 . S
C4430 C4429 1.379 . S
H4431 C4425 0.959 1_655 S
H4432 C4425 0.961 . S
H4433 C4425 0.960 . S
H4434 C4426 0.930 . S
H4435 C4427 0.929 . S
H4436 C4444 0.929 . S
H4437 C4446 0.930 . S
H4438 C4448 0.930 . S
H4439 C4451 0.929 . S
H4440 C4454 0.930 . S
H4441 C4456 0.960 . S
H4442 C4456 0.960 . S
H4443 C4456 0.960 . S
C4444 H4436 0.929 . S
C4444 C4445 1.377 . S
C4444 C4446 1.384 . S
C4445 C4444 1.377 . S
C4445 C4451 1.390 . S
C4446 H4437 0.930 . S
C4446 C4444 1.384 . S
C4446 C4447 1.372 . S
C4447 C4446 1.372 . S
C4447 C4448 1.400 . S
C4447 C4452 1.490 . S
C4448 H4438 0.930 . S
C4448 C4447 1.400 . S
C4448 C4451 1.386 . S
H4449 C4465 0.930 . S
H4450 C4466 0.931 . S
C4451 H4439 0.929 . S
C4451 C4445 1.390 . S
C4451 C4448 1.386 . S
C4452 C4447 1.490 . S
C4452 C4454 1.395 . S
C4452 C4455 1.403 . S
H4453 C4459 0.930 . S
C4454 H4440 0.930 . S
C4454 C4452 1.395 . S
C4454 C4457 1.403 . S
C4455 C4452 1.403 . S
C4455 C4456 1.524 . S
C4455 C4459 1.400 . S
C4456 H4441 0.960 . S
C4456 H4442 0.960 . S
C4456 H4443 0.960 . S
C4456 C4455 1.524 . S
C4457 C4454 1.403 . S
C4457 C4458 1.392 . S
C4457 C4461 1.495 . S
C4458 C4457 1.392 . S
C4458 C4459 1.385 . S
C4458 C4460 1.478 . S
C4459 H4453 0.930 . S
C4459 C4455 1.400 . S
C4459 C4458 1.385 . S
C4460 C4458 1.478 . S
C4460 C4462 1.381 . S
C4460 C4466 1.383 . S
C4461 C4457 1.495 . S
C4461 H4467 0.959 . S
C4461 H4468 0.961 . S
C4461 H4469 0.960 . S
C4462 C4460 1.381 . S
C4462 C4463 1.394 . S
C4462 H4470 0.930 . S
C4463 C4462 1.394 . S
C4463 C4464 1.383 . S
C4463 H4471 0.929 . S
C4464 C4463 1.383 . S
C4464 C4465 1.377 . S
C4465 H4449 0.930 . S
C4465 C4464 1.377 . S
C4465 C4466 1.379 . S
C4466 H4450 0.931 . S
C4466 C4460 1.383 . S
C4466 C4465 1.379 . S
H4467 C4461 0.959 . S
H4468 C4461 0.961 . S
H4469 C4461 0.960 . S
H4470 C4462 0.930 . S
H4471 C4463 0.929 . S
H4472 C4480 0.929 . S
H4473 C4482 0.930 . S
H4474 C4484 0.930 . S
H4475 C4487 0.929 . S
H4476 C4490 0.930 . S
H4477 C4492 0.960 . S
H4478 C4492 0.960 . S
H4479 C4492 0.960 . S
C4480 H4472 0.929 . S
C4480 C4481 1.377 . S
C4480 C4482 1.384 . S
C4481 C4480 1.377 . S
C4481 C4487 1.390 . S
C4482 H4473 0.930 . S
C4482 C4480 1.384 . S
C4482 C4483 1.372 . S
C4483 C4482 1.372 . S
C4483 C4484 1.400 . S
C4483 C4488 1.490 . S
C4484 H4474 0.930 . S
C4484 C4483 1.400 . S
C4484 C4487 1.386 . S
H4485 C4501 0.930 . S
H4486 C4502 0.931 . S
C4487 H4475 0.929 . S
C4487 C4481 1.390 . S
C4487 C4484 1.386 . S
C4488 C4483 1.490 . S
C4488 C4490 1.395 . S
C4488 C4491 1.403 . S
H4489 C4495 0.930 . S
C4490 H4476 0.930 . S
C4490 C4488 1.395 . S
C4490 C4493 1.403 . S
C4491 C4488 1.403 . S
C4491 C4492 1.524 . S
C4491 C4495 1.400 . S
C4492 H4477 0.960 . S
C4492 H4478 0.960 . S
C4492 H4479 0.960 . S
C4492 C4491 1.524 . S
C4493 C4490 1.403 . S
C4493 C4494 1.392 . S
C4493 C4497 1.495 . S
C4494 C4493 1.392 . S
C4494 C4495 1.385 . S
C4494 C4496 1.478 . S
C4495 H4489 0.930 . S
C4495 C4491 1.400 . S
C4495 C4494 1.385 . S
C4496 C4494 1.478 . S
C4496 C4498 1.381 . S
C4496 C4502 1.383 . S
C4497 C4493 1.495 . S
C4497 H4503 0.959 . S
C4497 H4504 0.961 . S
C4497 H4505 0.960 . S
C4498 C4496 1.381 . S
C4498 C4499 1.394 . S
C4498 H4506 0.930 . S
C4499 C4498 1.394 . S
C4499 C4500 1.383 . S
C4499 H4507 0.929 . S
C4500 C4499 1.383 . S
C4500 C4501 1.377 . S
C4501 H4485 0.930 . S
C4501 C4500 1.377 . S
C4501 C4502 1.379 . S
C4502 H4486 0.931 . S
C4502 C4496 1.383 . S
C4502 C4501 1.379 . S
H4503 C4497 0.959 . S
H4504 C4497 0.961 . S
H4505 C4497 0.960 . S
H4506 C4498 0.930 . S
H4507 C4499 0.929 . S
H4508 C4516 0.929 . S
H4509 C4518 0.930 . S
H4510 C4520 0.930 . S
H4511 C4523 0.929 . S
H4512 C4526 0.930 . S
H4513 C4528 0.960 . S
H4514 C4528 0.960 . S
H4515 C4528 0.960 . S
C4516 H4508 0.929 . S
C4516 C4517 1.377 . S
C4516 C4518 1.384 . S
C4517 C4516 1.377 . S
C4517 C4523 1.390 . S
C4518 H4509 0.930 . S
C4518 C4516 1.384 . S
C4518 C4519 1.372 . S
C4519 C4518 1.372 . S
C4519 C4520 1.400 . S
C4519 C4524 1.500 . S
C4520 H4510 0.930 . S
C4520 C4519 1.400 . S
C4520 C4523 1.386 . S
H4521 C4537 0.930 . S
H4522 C4538 0.931 . S
C4523 H4511 0.929 . S
C4523 C4517 1.390 . S
C4523 C4520 1.386 . S
C4524 C4519 1.500 . S
C4524 C4526 1.382 1_554 S
C4524 C4527 1.406 . S
H4525 C4531 0.930 . S
C4526 H4512 0.930 . S
C4526 C4524 1.382 1_556 S
C4526 C4529 1.403 . S
C4527 C4524 1.406 . S
C4527 C4528 1.524 . S
C4527 C4531 1.400 1_554 S
C4528 H4513 0.960 . S
C4528 H4514 0.960 . S
C4528 H4515 0.960 . S
C4528 C4527 1.524 . S
C4529 C4526 1.403 . S
C4529 C4530 1.392 . S
C4529 C4533 1.495 . S
C4530 C4529 1.392 . S
C4530 C4531 1.385 . S
C4530 C4532 1.478 . S
C4531 H4525 0.930 . S
C4531 C4527 1.400 1_556 S
C4531 C4530 1.385 . S
C4532 C4530 1.478 . S
C4532 C4534 1.381 . S
C4532 C4538 1.383 . S
C4533 C4529 1.495 . S
C4533 H4539 0.959 . S
C4533 H4540 0.961 . S
C4533 H4541 0.960 . S
C4534 C4532 1.381 . S
C4534 C4535 1.394 . S
C4534 H4542 0.930 . S
C4535 C4534 1.394 . S
C4535 C4536 1.383 . S
C4535 H4543 0.929 . S
C4536 C4535 1.383 . S
C4536 C4537 1.377 . S
C4537 H4521 0.930 . S
C4537 C4536 1.377 . S
C4537 C4538 1.379 . S
C4538 H4522 0.931 . S
C4538 C4532 1.383 . S
C4538 C4537 1.379 . S
H4539 C4533 0.959 . S
H4540 C4533 0.961 . S
H4541 C4533 0.960 . S
H4542 C4534 0.930 . S
H4543 C4535 0.929 . S
H4544 C4552 0.929 . S
H4545 C4554 0.930 . S
H4546 C4556 0.930 . S
H4547 C4559 0.929 . S
H4548 C4562 0.930 . S
H4549 C4564 0.960 . S
H4550 C4564 0.960 . S
H4551 C4564 0.960 . S
C4552 H4544 0.929 . S
C4552 C4553 1.377 . S
C4552 C4554 1.384 . S
C4553 C4552 1.377 . S
C4553 C4559 1.390 . S
C4554 H4545 0.930 . S
C4554 C4552 1.384 . S
C4554 C4555 1.372 . S
C4555 C4554 1.372 . S
C4555 C4556 1.400 . S
C4555 C4560 1.490 . S
C4556 H4546 0.930 . S
C4556 C4555 1.400 . S
C4556 C4559 1.386 . S
H4557 C4573 0.930 . S
H4558 C4574 0.931 . S
C4559 H4547 0.929 . S
C4559 C4553 1.390 . S
C4559 C4556 1.386 . S
C4560 C4555 1.490 . S
C4560 C4562 1.395 . S
C4560 C4563 1.403 . S
H4561 C4567 0.930 . S
C4562 H4548 0.930 . S
C4562 C4560 1.395 . S
C4562 C4565 1.403 . S
C4563 C4560 1.403 . S
C4563 C4564 1.524 . S
C4563 C4567 1.400 . S
C4564 H4549 0.960 . S
C4564 H4550 0.960 . S
C4564 H4551 0.960 . S
C4564 C4563 1.524 . S
C4565 C4562 1.403 . S
C4565 C4566 1.392 . S
C4565 C4569 1.495 . S
C4566 C4565 1.392 . S
C4566 C4567 1.385 . S
C4566 C4568 1.478 . S
C4567 H4561 0.930 . S
C4567 C4563 1.400 . S
C4567 C4566 1.385 . S
C4568 C4566 1.478 . S
C4568 C4570 1.381 . S
C4568 C4574 1.383 . S
C4569 C4565 1.495 . S
C4569 H4575 0.959 . S
C4569 H4576 0.961 . S
C4569 H4577 0.960 . S
C4570 C4568 1.381 . S
C4570 C4571 1.394 . S
C4570 H4578 0.930 . S
C4571 C4570 1.394 . S
C4571 C4572 1.383 . S
C4571 H4579 0.929 . S
C4572 C4571 1.383 . S
C4572 C4573 1.377 . S
C4573 H4557 0.930 . S
C4573 C4572 1.377 . S
C4573 C4574 1.379 . S
C4574 H4558 0.931 . S
C4574 C4568 1.383 . S
C4574 C4573 1.379 . S
H4575 C4569 0.959 . S
H4576 C4569 0.961 . S
H4577 C4569 0.960 . S
H4578 C4570 0.930 . S
H4579 C4571 0.929 . S
H4580 C4588 0.929 . S
H4581 C4590 0.930 . S
H4582 C4592 0.930 . S
H4583 C4595 0.929 . S
H4584 C4598 0.930 . S
H4585 C4600 0.960 . S
H4586 C4600 0.960 . S
H4587 C4600 0.960 . S
C4588 H4580 0.929 . S
C4588 C4589 1.377 . S
C4588 C4590 1.384 . S
C4589 C4588 1.377 . S
C4589 C4595 1.390 . S
C4590 H4581 0.930 . S
C4590 C4588 1.384 . S
C4590 C4591 1.372 . S
C4591 C4590 1.372 . S
C4591 C4592 1.400 . S
C4591 C4596 1.490 . S
C4592 H4582 0.930 . S
C4592 C4591 1.400 . S
C4592 C4595 1.386 . S
H4593 C4609 0.930 . S
H4594 C4610 0.931 . S
C4595 H4583 0.929 . S
C4595 C4589 1.390 . S
C4595 C4592 1.386 . S
C4596 C4591 1.490 . S
C4596 C4598 1.395 . S
C4596 C4599 1.403 . S
H4597 C4603 0.930 . S
C4598 H4584 0.930 . S
C4598 C4596 1.395 . S
C4598 C4601 1.403 . S
C4599 C4596 1.403 . S
C4599 C4600 1.524 . S
C4599 C4603 1.400 . S
C4600 H4585 0.960 . S
C4600 H4586 0.960 . S
C4600 H4587 0.960 . S
C4600 C4599 1.524 . S
C4601 C4598 1.403 . S
C4601 C4602 1.392 . S
C4601 C4605 1.495 . S
C4602 C4601 1.392 . S
C4602 C4603 1.385 . S
C4602 C4604 1.478 . S
C4603 H4597 0.930 . S
C4603 C4599 1.400 . S
C4603 C4602 1.385 . S
C4604 C4602 1.478 . S
C4604 C4606 1.381 . S
C4604 C4610 1.383 . S
C4605 C4601 1.495 . S
C4605 H4611 0.959 . S
C4605 H4612 0.961 . S
C4605 H4613 0.960 . S
C4606 C4604 1.381 . S
C4606 C4607 1.394 . S
C4606 H4614 0.930 . S
C4607 C4606 1.394 . S
C4607 C4608 1.383 . S
C4607 H4615 0.929 . S
C4608 C4607 1.383 . S
C4608 C4609 1.377 . S
C4609 H4593 0.930 . S
C4609 C4608 1.377 . S
C4609 C4610 1.379 . S
C4610 H4594 0.931 . S
C4610 C4604 1.383 . S
C4610 C4609 1.379 . S
H4611 C4605 0.959 . S
H4612 C4605 0.961 . S
H4613 C4605 0.960 . S
H4614 C4606 0.930 . S
H4615 C4607 0.929 . S
H4616 C4624 0.929 . S
H4617 C4626 0.930 . S
H4618 C4628 0.930 . S
H4619 C4631 0.929 . S
H4620 C4634 0.930 . S
H4621 C4636 0.960 . S
H4622 C4636 0.960 . S
H4623 C4636 0.960 . S
C4624 H4616 0.929 . S
C4624 C4625 1.377 . S
C4624 C4626 1.384 . S
C4625 C4624 1.377 . S
C4625 C4631 1.390 . S
C4626 H4617 0.930 . S
C4626 C4624 1.384 . S
C4626 C4627 1.372 . S
C4627 C4626 1.372 . S
C4627 C4628 1.400 . S
C4627 C4632 1.490 . S
C4628 H4618 0.930 . S
C4628 C4627 1.400 . S
C4628 C4631 1.386 . S
H4629 C4645 0.930 . S
H4630 C4646 0.931 . S
C4631 H4619 0.929 . S
C4631 C4625 1.390 . S
C4631 C4628 1.386 . S
C4632 C4627 1.490 . S
C4632 C4634 1.395 . S
C4632 C4635 1.403 . S
H4633 C4639 0.930 . S
C4634 H4620 0.930 . S
C4634 C4632 1.395 . S
C4634 C4637 1.403 . S
C4635 C4632 1.403 . S
C4635 C4636 1.524 . S
C4635 C4639 1.400 . S
C4636 H4621 0.960 . S
C4636 H4622 0.960 . S
C4636 H4623 0.960 . S
C4636 C4635 1.524 . S
C4637 C4634 1.403 . S
C4637 C4638 1.392 . S
C4637 C4641 1.495 . S
C4638 C4637 1.392 . S
C4638 C4639 1.385 . S
C4638 C4640 1.478 . S
C4639 H4633 0.930 . S
C4639 C4635 1.400 . S
C4639 C4638 1.385 . S
C4640 C4638 1.478 . S
C4640 C4642 1.381 . S
C4640 C4646 1.383 . S
C4641 C4637 1.495 . S
C4641 H4647 0.959 . S
C4641 H4648 0.961 . S
C4641 H4649 0.960 . S
C4642 C4640 1.381 . S
C4642 C4643 1.394 . S
C4642 H4650 0.930 . S
C4643 C4642 1.394 . S
C4643 C4644 1.383 . S
C4643 H4651 0.929 . S
C4644 C4643 1.383 . S
C4644 C4645 1.377 . S
C4645 H4629 0.930 . S
C4645 C4644 1.377 . S
C4645 C4646 1.379 . S
C4646 H4630 0.931 . S
C4646 C4640 1.383 . S
C4646 C4645 1.379 . S
H4647 C4641 0.959 . S
H4648 C4641 0.961 . S
H4649 C4641 0.960 . S
H4650 C4642 0.930 . S
H4651 C4643 0.929 . S
H4652 C4660 0.929 . S
H4653 C4662 0.930 . S
H4654 C4664 0.930 . S
H4655 C4667 0.929 . S
H4656 C4670 0.930 . S
H4657 C4672 0.964 . S
H4658 C4672 0.959 1_554 S
H4659 C4672 0.959 1_554 S
C4660 H4652 0.929 . S
C4660 C4661 1.377 . S
C4660 C4662 1.384 . S
C4661 C4660 1.377 . S
C4661 C4667 1.390 . S
C4662 H4653 0.930 . S
C4662 C4660 1.384 . S
C4662 C4663 1.372 . S
C4663 C4662 1.372 . S
C4663 C4664 1.400 . S
C4663 C4668 1.490 . S
C4664 H4654 0.930 . S
C4664 C4663 1.400 . S
C4664 C4667 1.386 . S
H4665 C4681 0.930 . S
H4666 C4682 0.931 . S
C4667 H4655 0.929 . S
C4667 C4661 1.390 . S
C4667 C4664 1.386 . S
C4668 C4663 1.490 . S
C4668 C4670 1.395 . S
C4668 C4671 1.403 . S
H4669 C4675 0.930 . S
C4670 H4656 0.930 . S
C4670 C4668 1.395 . S
C4670 C4673 1.403 . S
C4671 C4668 1.403 . S
C4671 C4672 1.522 1_554 S
C4671 C4675 1.400 1_554 S
C4672 H4657 0.964 . S
C4672 H4658 0.959 1_556 S
C4672 H4659 0.959 1_556 S
C4672 C4671 1.522 1_556 S
C4673 C4670 1.403 . S
C4673 C4674 1.392 . S
C4673 C4677 1.495 . S
C4674 C4673 1.392 . S
C4674 C4675 1.385 1_554 S
C4674 C4676 1.478 1_554 S
C4675 H4669 0.930 . S
C4675 C4671 1.400 1_556 S
C4675 C4674 1.385 1_556 S
C4676 C4674 1.478 1_556 S
C4676 C4678 1.381 . S
C4676 C4682 1.383 . S
C4677 C4673 1.495 . S
C4677 H4683 0.959 . S
C4677 H4684 0.961 . S
C4677 H4685 0.960 . S
C4678 C4676 1.381 . S
C4678 C4679 1.394 . S
C4678 H4686 0.930 . S
C4679 C4678 1.394 . S
C4679 C4680 1.383 . S
C4679 H4687 0.929 . S
C4680 C4679 1.383 . S
C4680 C4681 1.377 . S
C4681 H4665 0.930 . S
C4681 C4680 1.377 . S
C4681 C4682 1.379 . S
C4682 H4666 0.931 . S
C4682 C4676 1.383 . S
C4682 C4681 1.379 . S
H4683 C4677 0.959 . S
H4684 C4677 0.961 . S
H4685 C4677 0.960 . S
H4686 C4678 0.930 . S
H4687 C4679 0.929 . S
H4688 C4696 0.929 . S
H4689 C4698 0.930 . S
H4690 C4700 0.930 . S
H4691 C4703 0.929 . S
H4692 C4706 0.930 . S
H4693 C4708 0.960 . S
H4694 C4708 0.960 . S
H4695 C4708 0.960 . S
C4696 H4688 0.929 . S
C4696 C4697 1.377 . S
C4696 C4698 1.384 . S
C4697 C4696 1.377 . S
C4697 C4703 1.390 . S
C4698 H4689 0.930 . S
C4698 C4696 1.384 . S
C4698 C4699 1.372 . S
C4699 C4698 1.372 . S
C4699 C4700 1.400 . S
C4699 C4704 1.490 . S
C4700 H4690 0.930 . S
C4700 C4699 1.400 . S
C4700 C4703 1.386 . S
H4701 C4717 0.930 . S
H4702 C4718 0.931 . S
C4703 H4691 0.929 . S
C4703 C4697 1.390 . S
C4703 C4700 1.386 . S
C4704 C4699 1.490 . S
C4704 C4706 1.395 . S
C4704 C4707 1.403 . S
H4705 C4711 0.930 . S
C4706 H4692 0.930 . S
C4706 C4704 1.395 . S
C4706 C4709 1.403 . S
C4707 C4704 1.403 . S
C4707 C4708 1.524 . S
C4707 C4711 1.400 . S
C4708 H4693 0.960 . S
C4708 H4694 0.960 . S
C4708 H4695 0.960 . S
C4708 C4707 1.524 . S
C4709 C4706 1.403 . S
C4709 C4710 1.392 . S
C4709 C4713 1.495 . S
C4710 C4709 1.392 . S
C4710 C4711 1.385 . S
C4710 C4712 1.478 . S
C4711 H4705 0.930 . S
C4711 C4707 1.400 . S
C4711 C4710 1.385 . S
C4712 C4710 1.478 . S
C4712 C4714 1.381 . S
C4712 C4718 1.383 . S
C4713 C4709 1.495 . S
C4713 H4719 0.959 . S
C4713 H4720 0.961 . S
C4713 H4721 0.960 . S
C4714 C4712 1.381 . S
C4714 C4715 1.394 . S
C4714 H4722 0.930 . S
C4715 C4714 1.394 . S
C4715 C4716 1.383 . S
C4715 H4723 0.929 . S
C4716 C4715 1.383 . S
C4716 C4717 1.377 . S
C4717 H4701 0.930 . S
C4717 C4716 1.377 . S
C4717 C4718 1.379 . S
C4718 H4702 0.931 . S
C4718 C4712 1.383 . S
C4718 C4717 1.379 . S
H4719 C4713 0.959 . S
H4720 C4713 0.961 . S
H4721 C4713 0.960 . S
H4722 C4714 0.930 . S
H4723 C4715 0.929 . S
H4724 C4732 0.929 . S
H4725 C4734 0.930 . S
H4726 C4736 0.930 . S
H4727 C4739 0.929 . S
H4728 C4742 0.930 . S
H4729 C4744 0.960 . S
H4730 C4744 0.960 . S
H4731 C4744 0.960 . S
C4732 H4724 0.929 . S
C4732 C4733 1.377 . S
C4732 C4734 1.384 . S
C4733 C4732 1.377 . S
C4733 C4739 1.390 . S
C4734 H4725 0.930 . S
C4734 C4732 1.384 . S
C4734 C4735 1.372 . S
C4735 C4734 1.372 . S
C4735 C4736 1.400 . S
C4735 C4740 1.490 . S
C4736 H4726 0.930 . S
C4736 C4735 1.400 . S
C4736 C4739 1.386 . S
H4737 C4753 0.930 . S
H4738 C4754 0.931 . S
C4739 H4727 0.929 . S
C4739 C4733 1.390 . S
C4739 C4736 1.386 . S
C4740 C4735 1.490 . S
C4740 C4742 1.395 . S
C4740 C4743 1.403 . S
H4741 C4747 0.930 . S
C4742 H4728 0.930 . S
C4742 C4740 1.395 . S
C4742 C4745 1.403 . S
C4743 C4740 1.403 . S
C4743 C4744 1.524 . S
C4743 C4747 1.400 . S
C4744 H4729 0.960 . S
C4744 H4730 0.960 . S
C4744 H4731 0.960 . S
C4744 C4743 1.524 . S
C4745 C4742 1.403 . S
C4745 C4746 1.392 . S
C4745 C4749 1.495 . S
C4746 C4745 1.392 . S
C4746 C4747 1.385 . S
C4746 C4748 1.478 . S
C4747 H4741 0.930 . S
C4747 C4743 1.400 . S
C4747 C4746 1.385 . S
C4748 C4746 1.478 . S
C4748 C4750 1.381 . S
C4748 C4754 1.383 . S
C4749 C4745 1.495 . S
C4749 H4755 0.959 . S
C4749 H4756 0.961 . S
C4749 H4757 0.960 . S
C4750 C4748 1.381 . S
C4750 C4751 1.394 . S
C4750 H4758 0.930 . S
C4751 C4750 1.394 . S
C4751 C4752 1.383 . S
C4751 H4759 0.929 . S
C4752 C4751 1.383 . S
C4752 C4753 1.377 . S
C4753 H4737 0.930 . S
C4753 C4752 1.377 . S
C4753 C4754 1.379 . S
C4754 H4738 0.931 . S
C4754 C4748 1.383 . S
C4754 C4753 1.379 . S
H4755 C4749 0.959 . S
H4756 C4749 0.961 . S
H4757 C4749 0.960 . S
H4758 C4750 0.930 . S
H4759 C4751 0.929 . S
H4760 C4768 0.929 . S
H4761 C4770 0.930 . S
H4762 C4772 0.930 . S
H4763 C4775 0.929 . S
H4764 C4778 0.930 . S
H4765 C4780 0.960 . S
H4766 C4780 0.960 . S
H4767 C4780 0.960 . S
C4768 H4760 0.929 . S
C4768 C4769 1.377 . S
C4768 C4770 1.384 . S
C4769 C4768 1.377 . S
C4769 C4775 1.390 . S
C4770 H4761 0.930 . S
C4770 C4768 1.384 . S
C4770 C4771 1.372 . S
C4771 C4770 1.372 . S
C4771 C4772 1.400 . S
C4771 C4776 1.490 . S
C4772 H4762 0.930 . S
C4772 C4771 1.400 . S
C4772 C4775 1.386 . S
H4773 C4789 0.930 . S
H4774 C4790 0.931 . S
C4775 H4763 0.929 . S
C4775 C4769 1.390 . S
C4775 C4772 1.386 . S
C4776 C4771 1.490 . S
C4776 C4778 1.395 . S
C4776 C4779 1.403 . S
H4777 C4783 0.930 . S
C4778 H4764 0.930 . S
C4778 C4776 1.395 . S
C4778 C4781 1.403 . S
C4779 C4776 1.403 . S
C4779 C4780 1.524 . S
C4779 C4783 1.400 . S
C4780 H4765 0.960 . S
C4780 H4766 0.960 . S
C4780 H4767 0.960 . S
C4780 C4779 1.524 . S
C4781 C4778 1.403 . S
C4781 C4782 1.392 . S
C4781 C4785 1.495 . S
C4782 C4781 1.392 . S
C4782 C4783 1.385 . S
C4782 C4784 1.478 . S
C4783 H4777 0.930 . S
C4783 C4779 1.400 . S
C4783 C4782 1.385 . S
C4784 C4782 1.478 . S
C4784 C4786 1.381 . S
C4784 C4790 1.383 . S
C4785 C4781 1.495 . S
C4785 H4791 0.959 . S
C4785 H4792 0.961 . S
C4785 H4793 0.960 . S
C4786 C4784 1.381 . S
C4786 C4787 1.394 . S
C4786 H4794 0.930 . S
C4787 C4786 1.394 . S
C4787 C4788 1.383 . S
C4787 H4795 0.929 . S
C4788 C4787 1.383 . S
C4788 C4789 1.377 . S
C4789 H4773 0.930 . S
C4789 C4788 1.377 . S
C4789 C4790 1.379 . S
C4790 H4774 0.931 . S
C4790 C4784 1.383 . S
C4790 C4789 1.379 . S
H4791 C4785 0.959 . S
H4792 C4785 0.961 . S
H4793 C4785 0.960 . S
H4794 C4786 0.930 . S
H4795 C4787 0.929 . S
H4796 C4804 0.929 . S
H4797 C4806 0.930 . S
H4798 C4808 0.930 . S
H4799 C4811 0.929 . S
H4800 C4814 0.930 . S
H4801 C4816 0.960 . S
H4802 C4816 0.960 . S
H4803 C4816 0.960 . S
C4804 H4796 0.929 . S
C4804 C4805 1.377 . S
C4804 C4806 1.384 . S
C4805 C4804 1.377 . S
C4805 C4811 1.390 . S
C4806 H4797 0.930 . S
C4806 C4804 1.384 . S
C4806 C4807 1.372 . S
C4807 C4806 1.372 . S
C4807 C4808 1.400 . S
C4807 C4812 1.490 . S
C4808 H4798 0.930 . S
C4808 C4807 1.400 . S
C4808 C4811 1.386 . S
H4809 C4825 0.930 . S
H4810 C4826 0.931 . S
C4811 H4799 0.929 . S
C4811 C4805 1.390 . S
C4811 C4808 1.386 . S
C4812 C4807 1.490 . S
C4812 C4814 1.395 . S
C4812 C4815 1.403 . S
H4813 C4819 0.930 . S
C4814 H4800 0.930 . S
C4814 C4812 1.395 . S
C4814 C4817 1.403 . S
C4815 C4812 1.403 . S
C4815 C4816 1.524 . S
C4815 C4819 1.400 . S
C4816 H4801 0.960 . S
C4816 H4802 0.960 . S
C4816 H4803 0.960 . S
C4816 C4815 1.524 . S
C4817 C4814 1.403 . S
C4817 C4818 1.392 . S
C4817 C4821 1.495 . S
C4818 C4817 1.392 . S
C4818 C4819 1.385 . S
C4818 C4820 1.478 . S
C4819 H4813 0.930 . S
C4819 C4815 1.400 . S
C4819 C4818 1.385 . S
C4820 C4818 1.478 . S
C4820 C4822 1.381 . S
C4820 C4826 1.383 . S
C4821 C4817 1.495 . S
C4821 H4827 0.959 . S
C4821 H4828 0.961 . S
C4821 H4829 0.960 . S
C4822 C4820 1.381 . S
C4822 C4823 1.394 . S
C4822 H4830 0.930 . S
C4823 C4822 1.394 . S
C4823 C4824 1.383 . S
C4823 H4831 0.929 . S
C4824 C4823 1.383 . S
C4824 C4825 1.377 . S
C4825 H4809 0.930 . S
C4825 C4824 1.377 . S
C4825 C4826 1.379 . S
C4826 H4810 0.931 . S
C4826 C4820 1.383 . S
C4826 C4825 1.379 . S
H4827 C4821 0.959 . S
H4828 C4821 0.961 . S
H4829 C4821 0.960 . S
H4830 C4822 0.930 . S
H4831 C4823 0.929 . S
H4832 C4840 0.929 . S
H4833 C4842 0.930 . S
H4834 C4844 0.930 . S
H4835 C4847 0.929 . S
H4836 C4850 0.930 . S
H4837 C4852 0.960 . S
H4838 C4852 0.960 . S
H4839 C4852 0.960 . S
C4840 H4832 0.929 . S
C4840 C4841 1.377 . S
C4840 C4842 1.384 . S
C4841 C4840 1.377 . S
C4841 C4847 1.390 . S
C4842 H4833 0.930 . S
C4842 C4840 1.384 . S
C4842 C4843 1.372 . S
C4843 C4842 1.372 . S
C4843 C4844 1.400 . S
C4843 C4848 1.490 . S
C4844 H4834 0.930 . S
C4844 C4843 1.400 . S
C4844 C4847 1.386 . S
H4845 C4861 0.930 . S
H4846 C4862 0.931 . S
C4847 H4835 0.929 . S
C4847 C4841 1.390 . S
C4847 C4844 1.386 . S
C4848 C4843 1.490 . S
C4848 C4850 1.395 . S
C4848 C4851 1.403 . S
H4849 C4855 0.930 . S
C4850 H4836 0.930 . S
C4850 C4848 1.395 . S
C4850 C4853 1.403 1_554 S
C4851 C4848 1.403 . S
C4851 C4852 1.524 . S
C4851 C4855 1.400 . S
C4852 H4837 0.960 . S
C4852 H4838 0.960 . S
C4852 H4839 0.960 . S
C4852 C4851 1.524 . S
C4853 C4850 1.403 1_556 S
C4853 C4854 1.392 . S
C4853 C4857 1.495 . S
C4854 C4853 1.392 . S
C4854 C4855 1.385 1_556 S
C4854 C4856 1.478 . S
C4855 H4849 0.930 . S
C4855 C4851 1.400 . S
C4855 C4854 1.385 1_554 S
C4856 C4854 1.478 . S
C4856 C4858 1.381 . S
C4856 C4862 1.383 . S
C4857 C4853 1.495 . S
C4857 H4863 0.959 . S
C4857 H4864 0.961 . S
C4857 H4865 0.960 . S
C4858 C4856 1.381 . S
C4858 C4859 1.394 . S
C4858 H4866 0.930 . S
C4859 C4858 1.394 . S
C4859 C4860 1.383 . S
C4859 H4867 0.929 . S
C4860 C4859 1.383 . S
C4860 C4861 1.377 . S
C4861 H4845 0.930 . S
C4861 C4860 1.377 . S
C4861 C4862 1.379 . S
C4862 H4846 0.931 . S
C4862 C4856 1.383 . S
C4862 C4861 1.379 . S
H4863 C4857 0.959 . S
H4864 C4857 0.961 . S
H4865 C4857 0.960 . S
H4866 C4858 0.930 . S
H4867 C4859 0.929 . S
H4868 C4876 0.929 . S
H4869 C4878 0.930 . S
H4870 C4880 0.930 . S
H4871 C4883 0.929 . S
H4872 C4886 0.930 . S
H4873 C4888 0.960 . S
H4874 C4888 0.960 . S
H4875 C4888 0.960 . S
C4876 H4868 0.929 . S
C4876 C4877 1.377 . S
C4876 C4878 1.384 . S
C4877 C4876 1.377 . S
C4877 C4883 1.390 . S
C4878 H4869 0.930 . S
C4878 C4876 1.384 . S
C4878 C4879 1.372 . S
C4879 C4878 1.372 . S
C4879 C4880 1.400 . S
C4879 C4884 1.490 . S
C4880 H4870 0.930 . S
C4880 C4879 1.400 . S
C4880 C4883 1.386 . S
H4881 C4897 0.930 . S
H4882 C4898 0.931 . S
C4883 H4871 0.929 . S
C4883 C4877 1.390 . S
C4883 C4880 1.386 . S
C4884 C4879 1.490 . S
C4884 C4886 1.395 . S
C4884 C4887 1.403 . S
H4885 C4891 0.930 . S
C4886 H4872 0.930 . S
C4886 C4884 1.395 . S
C4886 C4889 1.403 . S
C4887 C4884 1.403 . S
C4887 C4888 1.524 . S
C4887 C4891 1.400 . S
C4888 H4873 0.960 . S
C4888 H4874 0.960 . S
C4888 H4875 0.960 . S
C4888 C4887 1.524 . S
C4889 C4886 1.403 . S
C4889 C4890 1.392 . S
C4889 C4893 1.495 . S
C4890 C4889 1.392 . S
C4890 C4891 1.385 . S
C4890 C4892 1.478 . S
C4891 H4885 0.930 . S
C4891 C4887 1.400 . S
C4891 C4890 1.385 . S
C4892 C4890 1.478 . S
C4892 C4894 1.381 . S
C4892 C4898 1.383 . S
C4893 C4889 1.495 . S
C4893 H4899 0.959 . S
C4893 H4900 0.961 . S
C4893 H4901 0.960 . S
C4894 C4892 1.381 . S
C4894 C4895 1.394 . S
C4894 H4902 0.930 . S
C4895 C4894 1.394 . S
C4895 C4896 1.383 . S
C4895 H4903 0.929 . S
C4896 C4895 1.383 . S
C4896 C4897 1.377 . S
C4897 H4881 0.930 . S
C4897 C4896 1.377 . S
C4897 C4898 1.379 . S
C4898 H4882 0.931 . S
C4898 C4892 1.383 . S
C4898 C4897 1.379 . S
H4899 C4893 0.959 . S
H4900 C4893 0.961 . S
H4901 C4893 0.960 . S
H4902 C4894 0.930 . S
H4903 C4895 0.929 . S
H4904 C4912 0.929 . S
H4905 C4914 0.930 . S
H4906 C4916 0.930 . S
H4907 C4919 0.929 . S
H4908 C4922 0.930 . S
H4909 C4924 0.960 . S
H4910 C4924 0.960 . S
H4911 C4924 0.960 . S
C4912 H4904 0.929 . S
C4912 C4913 1.377 . S
C4912 C4914 1.384 . S
C4913 C4912 1.377 . S
C4913 C4919 1.390 . S
C4914 H4905 0.930 . S
C4914 C4912 1.384 . S
C4914 C4915 1.372 . S
C4915 C4914 1.372 . S
C4915 C4916 1.400 . S
C4915 C4920 1.490 . S
C4916 H4906 0.930 . S
C4916 C4915 1.400 . S
C4916 C4919 1.386 . S
H4917 C4933 0.930 . S
H4918 C4934 0.931 . S
C4919 H4907 0.929 . S
C4919 C4913 1.390 . S
C4919 C4916 1.386 . S
C4920 C4915 1.490 . S
C4920 C4922 1.395 . S
C4920 C4923 1.403 . S
H4921 C4927 0.930 . S
C4922 H4908 0.930 . S
C4922 C4920 1.395 . S
C4922 C4925 1.403 . S
C4923 C4920 1.403 . S
C4923 C4924 1.524 . S
C4923 C4927 1.400 . S
C4924 H4909 0.960 . S
C4924 H4910 0.960 . S
C4924 H4911 0.960 . S
C4924 C4923 1.524 . S
C4925 C4922 1.403 . S
C4925 C4926 1.392 . S
C4925 C4929 1.495 . S
C4926 C4925 1.392 . S
C4926 C4927 1.385 . S
C4926 C4928 1.478 . S
C4927 H4921 0.930 . S
C4927 C4923 1.400 . S
C4927 C4926 1.385 . S
C4928 C4926 1.478 . S
C4928 C4930 1.381 . S
C4928 C4934 1.383 . S
C4929 C4925 1.495 . S
C4929 H4935 0.959 . S
C4929 H4936 0.961 . S
C4929 H4937 0.960 . S
C4930 C4928 1.381 . S
C4930 C4931 1.394 . S
C4930 H4938 0.930 . S
C4931 C4930 1.394 . S
C4931 C4932 1.383 . S
C4931 H4939 0.929 . S
C4932 C4931 1.383 . S
C4932 C4933 1.377 . S
C4933 H4917 0.930 . S
C4933 C4932 1.377 . S
C4933 C4934 1.379 . S
C4934 H4918 0.931 . S
C4934 C4928 1.383 . S
C4934 C4933 1.379 . S
H4935 C4929 0.959 . S
H4936 C4929 0.961 . S
H4937 C4929 0.960 . S
H4938 C4930 0.930 . S
H4939 C4931 0.929 . S
H4940 C4948 0.929 . S
H4941 C4950 0.930 . S
H4942 C4952 0.930 . S
H4943 C4955 0.929 . S
H4944 C4958 0.930 . S
H4945 C4960 0.960 . S
H4946 C4960 0.960 . S
H4947 C4960 0.960 . S
C4948 H4940 0.929 . S
C4948 C4949 1.377 . S
C4948 C4950 1.384 . S
C4949 C4948 1.377 . S
C4949 C4955 1.390 . S
C4950 H4941 0.930 . S
C4950 C4948 1.384 . S
C4950 C4951 1.372 . S
C4951 C4950 1.372 . S
C4951 C4952 1.400 . S
C4951 C4956 1.490 . S
C4952 H4942 0.930 . S
C4952 C4951 1.400 . S
C4952 C4955 1.386 . S
H4953 C4969 0.930 . S
H4954 C4970 0.931 . S
C4955 H4943 0.929 . S
C4955 C4949 1.390 . S
C4955 C4952 1.386 . S
C4956 C4951 1.490 . S
C4956 C4958 1.395 . S
C4956 C4959 1.403 . S
H4957 C4963 0.930 . S
C4958 H4944 0.930 . S
C4958 C4956 1.395 . S
C4958 C4961 1.403 . S
C4959 C4956 1.403 . S
C4959 C4960 1.524 . S
C4959 C4963 1.400 . S
C4960 H4945 0.960 . S
C4960 H4946 0.960 . S
C4960 H4947 0.960 . S
C4960 C4959 1.524 . S
C4961 C4958 1.403 . S
C4961 C4962 1.392 . S
C4961 C4965 1.495 . S
C4962 C4961 1.392 . S
C4962 C4963 1.385 . S
C4962 C4964 1.478 . S
C4963 H4957 0.930 . S
C4963 C4959 1.400 . S
C4963 C4962 1.385 . S
C4964 C4962 1.478 . S
C4964 C4966 1.381 . S
C4964 C4970 1.383 . S
C4965 C4961 1.495 . S
C4965 H4971 0.959 . S
C4965 H4972 0.961 . S
C4965 H4973 0.960 . S
C4966 C4964 1.381 . S
C4966 C4967 1.394 . S
C4966 H4974 0.930 . S
C4967 C4966 1.394 . S
C4967 C4968 1.383 . S
C4967 H4975 0.929 . S
C4968 C4967 1.383 . S
C4968 C4969 1.377 . S
C4969 H4953 0.930 . S
C4969 C4968 1.377 . S
C4969 C4970 1.379 . S
C4970 H4954 0.931 . S
C4970 C4964 1.383 . S
C4970 C4969 1.379 . S
H4971 C4965 0.959 . S
H4972 C4965 0.961 . S
H4973 C4965 0.960 . S
H4974 C4966 0.930 . S
H4975 C4967 0.929 . S
H4976 C4984 0.929 . S
H4977 C4986 0.930 . S
H4978 C4988 0.930 . S
H4979 C4991 0.929 . S
H4980 C4994 0.930 . S
H4981 C4996 0.960 . S
H4982 C4996 0.960 . S
H4983 C4996 0.960 . S
C4984 H4976 0.929 . S
C4984 C4985 1.377 . S
C4984 C4986 1.384 . S
C4985 C4984 1.377 . S
C4985 C4991 1.390 . S
C4986 H4977 0.930 . S
C4986 C4984 1.384 . S
C4986 C4987 1.372 . S
C4987 C4986 1.372 . S
C4987 C4988 1.400 . S
C4987 C4992 1.490 . S
C4988 H4978 0.930 . S
C4988 C4987 1.400 . S
C4988 C4991 1.386 . S
H4989 C5005 0.930 . S
H4990 C5006 0.931 . S
C4991 H4979 0.929 . S
C4991 C4985 1.390 . S
C4991 C4988 1.386 . S
C4992 C4987 1.490 . S
C4992 C4994 1.395 . S
C4992 C4995 1.403 1_554 S
H4993 C4999 0.930 . S
C4994 H4980 0.930 . S
C4994 C4992 1.395 . S
C4994 C4997 1.403 1_554 S
C4995 C4992 1.403 1_556 S
C4995 C4996 1.524 . S
C4995 C4999 1.400 . S
C4996 H4981 0.960 . S
C4996 H4982 0.960 . S
C4996 H4983 0.960 . S
C4996 C4995 1.524 . S
C4997 C4994 1.403 1_556 S
C4997 C4998 1.392 . S
C4997 C5001 1.495 1_556 S
C4998 C4997 1.392 . S
C4998 C4999 1.385 . S
C4998 C5000 1.478 . S
C4999 H4993 0.930 . S
C4999 C4995 1.400 . S
C4999 C4998 1.385 . S
C5000 C4998 1.478 . S
C5000 C5002 1.381 . S
C5000 C5006 1.383 . S
C5001 C4997 1.495 1_554 S
C5001 H5007 0.959 . S
C5001 H5008 0.961 1_554 S
C5001 H5009 0.960 1_554 S
C5002 C5000 1.381 . S
C5002 C5003 1.394 . S
C5002 H5010 0.930 . S
C5003 C5002 1.394 . S
C5003 C5004 1.383 . S
C5003 H5011 0.929 . S
C5004 C5003 1.383 . S
C5004 C5005 1.377 . S
C5005 H4989 0.930 . S
C5005 C5004 1.377 . S
C5005 C5006 1.379 . S
C5006 H4990 0.931 . S
C5006 C5000 1.383 . S
C5006 C5005 1.379 . S
H5007 C5001 0.959 . S
H5008 C5001 0.961 1_556 S
H5009 C5001 0.960 1_556 S
H5010 C5002 0.930 . S
H5011 C5003 0.929 . S
H5012 C5020 0.929 . S
H5013 C5022 0.930 . S
H5014 C5024 0.930 . S
H5015 C5027 0.929 . S
H5016 C5030 0.930 . S
H5017 C5032 0.960 . S
H5018 C5032 0.960 . S
H5019 C5032 0.960 . S
C5020 H5012 0.929 . S
C5020 C5021 1.377 . S
C5020 C5022 1.384 . S
C5021 C5020 1.377 . S
C5021 C5027 1.390 . S
C5022 H5013 0.930 . S
C5022 C5020 1.384 . S
C5022 C5023 1.372 . S
C5023 C5022 1.372 . S
C5023 C5024 1.400 . S
C5023 C5028 1.490 . S
C5024 H5014 0.930 . S
C5024 C5023 1.400 . S
C5024 C5027 1.386 . S
H5025 C5041 0.930 . S
H5026 C5042 0.931 . S
C5027 H5015 0.929 . S
C5027 C5021 1.390 . S
C5027 C5024 1.386 . S
C5028 C5023 1.490 . S
C5028 C5030 1.395 . S
C5028 C5031 1.403 . S
H5029 C5035 0.930 . S
C5030 H5016 0.930 . S
C5030 C5028 1.395 . S
C5030 C5033 1.403 . S
C5031 C5028 1.403 . S
C5031 C5032 1.524 . S
C5031 C5035 1.400 . S
C5032 H5017 0.960 . S
C5032 H5018 0.960 . S
C5032 H5019 0.960 . S
C5032 C5031 1.524 . S
C5033 C5030 1.403 . S
C5033 C5034 1.392 . S
C5033 C5037 1.495 . S
C5034 C5033 1.392 . S
C5034 C5035 1.385 . S
C5034 C5036 1.478 . S
C5035 H5029 0.930 . S
C5035 C5031 1.400 . S
C5035 C5034 1.385 . S
C5036 C5034 1.478 . S
C5036 C5038 1.381 . S
C5036 C5042 1.383 . S
C5037 C5033 1.495 . S
C5037 H5043 0.959 . S
C5037 H5044 0.961 . S
C5037 H5045 0.960 . S
C5038 C5036 1.381 . S
C5038 C5039 1.394 . S
C5038 H5046 0.930 . S
C5039 C5038 1.394 . S
C5039 C5040 1.383 . S
C5039 H5047 0.929 . S
C5040 C5039 1.383 . S
C5040 C5041 1.377 . S
C5041 H5025 0.930 . S
C5041 C5040 1.377 . S
C5041 C5042 1.379 . S
C5042 H5026 0.931 . S
C5042 C5036 1.383 . S
C5042 C5041 1.379 . S
H5043 C5037 0.959 . S
H5044 C5037 0.961 . S
H5045 C5037 0.960 . S
H5046 C5038 0.930 . S
H5047 C5039 0.929 . S
H5048 C5056 0.929 . S
H5049 C5058 0.930 . S
H5050 C5060 0.930 . S
H5051 C5063 0.929 . S
H5052 C5066 0.930 . S
H5053 C5068 0.960 . S
H5054 C5068 0.960 . S
H5055 C5068 0.960 . S
C5056 H5048 0.929 . S
C5056 C5057 1.377 . S
C5056 C5058 1.384 . S
C5057 C5056 1.377 . S
C5057 C5063 1.390 . S
C5058 H5049 0.930 . S
C5058 C5056 1.384 . S
C5058 C5059 1.372 . S
C5059 C5058 1.372 . S
C5059 C5060 1.400 . S
C5059 C5064 1.490 . S
C5060 H5050 0.930 . S
C5060 C5059 1.400 . S
C5060 C5063 1.386 . S
H5061 C5077 0.930 . S
H5062 C5078 0.931 . S
C5063 H5051 0.929 . S
C5063 C5057 1.390 . S
C5063 C5060 1.386 . S
C5064 C5059 1.490 . S
C5064 C5066 1.395 . S
C5064 C5067 1.403 . S
H5065 C5071 0.930 . S
C5066 H5052 0.930 . S
C5066 C5064 1.395 . S
C5066 C5069 1.403 . S
C5067 C5064 1.403 . S
C5067 C5068 1.524 . S
C5067 C5071 1.400 . S
C5068 H5053 0.960 . S
C5068 H5054 0.960 . S
C5068 H5055 0.960 . S
C5068 C5067 1.524 . S
C5069 C5066 1.403 . S
C5069 C5070 1.392 . S
C5069 C5073 1.495 . S
C5070 C5069 1.392 . S
C5070 C5071 1.385 . S
C5070 C5072 1.478 . S
C5071 H5065 0.930 . S
C5071 C5067 1.400 . S
C5071 C5070 1.385 . S
C5072 C5070 1.478 . S
C5072 C5074 1.381 . S
C5072 C5078 1.383 . S
C5073 C5069 1.495 . S
C5073 H5079 0.959 . S
C5073 H5080 0.961 . S
C5073 H5081 0.960 . S
C5074 C5072 1.381 . S
C5074 C5075 1.394 . S
C5074 H5082 0.930 . S
C5075 C5074 1.394 . S
C5075 C5076 1.383 . S
C5075 H5083 0.929 . S
C5076 C5075 1.383 . S
C5076 C5077 1.377 . S
C5077 H5061 0.930 . S
C5077 C5076 1.377 . S
C5077 C5078 1.379 . S
C5078 H5062 0.931 . S
C5078 C5072 1.383 . S
C5078 C5077 1.379 . S
H5079 C5073 0.959 . S
H5080 C5073 0.961 . S
H5081 C5073 0.960 . S
H5082 C5074 0.930 . S
H5083 C5075 0.929 . S
H5084 C5092 0.929 . S
H5085 C5094 0.930 . S
H5086 C5096 0.930 . S
H5087 C5099 0.929 . S
H5088 C5102 0.930 . S
H5089 C5104 0.960 . S
H5090 C5104 0.960 . S
H5091 C5104 0.960 . S
C5092 H5084 0.929 . S
C5092 C5093 1.377 . S
C5092 C5094 1.384 . S
C5093 C5092 1.377 . S
C5093 C5099 1.390 . S
C5094 H5085 0.930 . S
C5094 C5092 1.384 . S
C5094 C5095 1.372 . S
C5095 C5094 1.372 . S
C5095 C5096 1.400 . S
C5095 C5100 1.490 . S
C5096 H5086 0.930 . S
C5096 C5095 1.400 . S
C5096 C5099 1.386 . S
H5097 C5113 0.930 . S
H5098 C5114 0.931 . S
C5099 H5087 0.929 . S
C5099 C5093 1.390 . S
C5099 C5096 1.386 . S
C5100 C5095 1.490 . S
C5100 C5102 1.395 . S
C5100 C5103 1.403 . S
H5101 C5107 0.930 . S
C5102 H5088 0.930 . S
C5102 C5100 1.395 . S
C5102 C5105 1.403 . S
C5103 C5100 1.403 . S
C5103 C5104 1.524 . S
C5103 C5107 1.400 . S
C5104 H5089 0.960 . S
C5104 H5090 0.960 . S
C5104 H5091 0.960 . S
C5104 C5103 1.524 . S
C5105 C5102 1.403 . S
C5105 C5106 1.392 . S
C5105 C5109 1.495 . S
C5106 C5105 1.392 . S
C5106 C5107 1.385 . S
C5106 C5108 1.478 . S
C5107 H5101 0.930 . S
C5107 C5103 1.400 . S
C5107 C5106 1.385 . S
C5108 C5106 1.478 . S
C5108 C5110 1.381 . S
C5108 C5114 1.383 . S
C5109 C5105 1.495 . S
C5109 H5115 0.959 . S
C5109 H5116 0.961 . S
C5109 H5117 0.960 . S
C5110 C5108 1.381 . S
C5110 C5111 1.394 . S
C5110 H5118 0.930 . S
C5111 C5110 1.394 . S
C5111 C5112 1.383 . S
C5111 H5119 0.929 . S
C5112 C5111 1.383 . S
C5112 C5113 1.377 . S
C5113 H5097 0.930 . S
C5113 C5112 1.377 . S
C5113 C5114 1.379 . S
C5114 H5098 0.931 . S
C5114 C5108 1.383 . S
C5114 C5113 1.379 . S
H5115 C5109 0.959 . S
H5116 C5109 0.961 . S
H5117 C5109 0.960 . S
H5118 C5110 0.930 . S
H5119 C5111 0.929 . S
C2825 C57 0.808 . S
C2844 C1193 0.805 . S
C2861 C2220 0.808 . S
C2880 C145 0.804 . S
C2897 C225 0.809 . S
C2916 C1377 0.809 . S
C2933 C313 0.808 . S
C2952 C2132 0.804 . S
C2969 C372 0.809 . S
C2988 C1525 0.810 . S
C3005 C460 0.808 . S
C3024 C1993 0.804 . S
C3041 C557 0.808 . S
C3060 C1692 0.806 . S
C3077 C2785 0.808 . S
C3096 C645 0.807 . S
C3113 C1877 0.808 . S
C3132 C733 0.805 . S
C3149 C812 0.808 . S
C3168 C1633 0.804 . S
C3185 C2053 0.808 . S
C3204 C909 0.806 . S
C3221 C1025 0.808 . S
C3240 C1437 0.804 . S
C3257 C1252 0.809 . S
C3276 C1105 0.811 . S
C3293 C1809 0.808 . S
C3312 C2484 0.804 . S
C3329 C2601 0.808 . S
C3348 C2345 0.807 . S
C3365 C2689 0.809 . S
C3384 C2425 0.810 . S
C3401 C29 1.639 . S
C3420 C117 1.644 . S
C3437 C233 1.651 . S
C3456 C108 1.644 . S
C3473 C284 1.640 . S
C3492 C196 1.646 . S
C3509 C293 1.649 . S
C3528 C49 1.639 . S
C3545 C673 1.640 . S
C3564 C401 1.648 . S
C3581 C497 1.652 . S
C3600 C381 1.648 . S
C3617 C585 1.637 . S
C3636 C489 1.629 . S
C3653 C548 1.653 . S
C3672 C665 1.648 . S
C3689 C821 1.649 . S
C3708 C20 1.635 . S
C3725 C753 1.651 . S
C3744 C321 1.642 . S
C3761 C929 1.649 . S
C3780 C137 1.634 . S
C3797 C2405 1.649 . S
C3816 C636 1.636 . S
C3833 C2493 1.650 . S
C3852 C205 1.636 . S
C3869 C1017 1.655 . S
C3888 C409 1.664 . S
C3905 C577 1.655 . S
C3924 C1113 1.664 . S
C3941 C1261 1.642 . S
C3960 C1201 1.628 . S
C3977 C1349 1.643 . S
C3996 C1289 1.667 . S
C4013 C1428 1.642 . S
C4032 C1369 1.629 . S
C4049 C1164 1.650 . S
C4068 C1457 1.643 . S
C4085 C1516 1.635 . S
C4104 C1817 1.648 . S
C4121 C1553 1.650 . S
C4140 C1613 1.647 . S
C4157 C1701 1.639 . S
C4176 C1641 1.648 . S
C4193 C1721 1.643 . S
C4212 C1789 1.665 . S
C4229 C1173 1.659 . S
C4248 C1965 1.632 . S
C4265 C1897 1.658 . S
C4284 C1465 1.645 . S
C4301 C2073 1.658 . S
C4320 C1281 1.647 . S
C4337 C2669 1.659 . S
C4356 C1780 1.639 . S
C4373 C2757 1.643 . S
C4392 C1340 1.665 . S
C4409 C1545 1.653 . S
C4428 C2161 1.660 . S
C4445 C2249 1.644 . S
C4464 C1729 1.667 . S
C4481 C1076 1.640 . S
C4500 C2317 1.651 . S
C4517 C2433 1.651 . S
C4536 C1085 1.640 . S
C4553 C997 1.635 . S
C4572 C2396 1.621 . S
C4589 C988 1.655 . S
C4608 C2337 1.664 . S
C4625 C761 1.637 . S
C4644 C2513 1.637 . S
C4661 C849 1.650 . S
C4680 C724 1.639 . S
C4697 C937 1.636 . S
C4716 C841 1.625 . S
C4733 C900 1.652 . S
C4752 C2521 1.646 . S
C4769 C2308 1.649 . S
C4788 C469 1.633 . S
C4805 C2229 1.642 . S
C4824 C2609 1.624 . S
C4841 C2257 1.653 . S
C4860 C2660 1.650 . S
C4877 C2697 1.642 . S
C4896 C2141 1.624 . S
C4913 C2169 1.658 . S
C4932 C2572 1.626 . S
C4949 C2777 1.635 . S
C4968 C1868 1.649 . S
C4985 C1905 1.643 . S
C5004 C1956 1.661 . S
C5021 C2044 1.636 . S
C5040 C1985 1.633 . S
C5057 C2081 1.643 . S
C5076 C2748 1.667 . S
C5093 C2581 1.656 . S
C5112 C1604 1.655 . S
