# Generated by pormake.
# Topology som, (6)-cn, num edge types: 1
# Building blocks:
#     Node 0, Type 0, BuildingBlock: MIFKUJ_clean_sbu_0, # of connection points: 6
#     Node 1, Type 0, BuildingBlock: MIFKUJ_clean_sbu_0, # of connection points: 6
#     Node 2, Type 0, BuildingBlock: MIFKUJ_clean_sbu_0, # of connection points: 6
#     Node 3, Type 0, BuildingBlock: MIFKUJ_clean_sbu_0, # of connection points: 6
#     Node 4, Type 0, BuildingBlock: MIFKUJ_clean_sbu_0, # of connection points: 6
#     Node 5, Type 0, BuildingBlock: MIFKUJ_clean_sbu_0, # of connection points: 6
#     Node 6, Type 0, BuildingBlock: MIFKUJ_clean_sbu_0, # of connection points: 6
#     Node 7, Type 0, BuildingBlock: MIFKUJ_clean_sbu_0, # of connection points: 6
#     Node 8, Type 0, BuildingBlock: MIFKUJ_clean_sbu_0, # of connection points: 6
#     Node 9, Type 0, BuildingBlock: MIFKUJ_clean_sbu_0, # of connection points: 6
#     Node 10, Type 0, BuildingBlock: MIFKUJ_clean_sbu_0, # of connection points: 6
#     Node 11, Type 0, BuildingBlock: MIFKUJ_clean_sbu_0, # of connection points: 6
#     Node 12, Type 0, BuildingBlock: MIFKUJ_clean_sbu_0, # of connection points: 6
#     Node 13, Type 0, BuildingBlock: MIFKUJ_clean_sbu_0, # of connection points: 6
#     Node 14, Type 0, BuildingBlock: MIFKUJ_clean_sbu_0, # of connection points: 6
#     Node 15, Type 0, BuildingBlock: MIFKUJ_clean_sbu_0, # of connection points: 6
#     Node 16, Type 0, BuildingBlock: MIFKUJ_clean_sbu_0, # of connection points: 6
#     Node 17, Type 0, BuildingBlock: MIFKUJ_clean_sbu_0, # of connection points: 6
#     Node 18, Type 0, BuildingBlock: MIFKUJ_clean_sbu_0, # of connection points: 6
#     Node 19, Type 0, BuildingBlock: MIFKUJ_clean_sbu_0, # of connection points: 6
#     Node 20, Type 0, BuildingBlock: MIFKUJ_clean_sbu_0, # of connection points: 6
#     Node 21, Type 0, BuildingBlock: MIFKUJ_clean_sbu_0, # of connection points: 6
#     Node 22, Type 0, BuildingBlock: MIFKUJ_clean_sbu_0, # of connection points: 6
#     Node 23, Type 0, BuildingBlock: MIFKUJ_clean_sbu_0, # of connection points: 6
#     Node 24, Type 0, BuildingBlock: MIFKUJ_clean_sbu_0, # of connection points: 6
#     Node 25, Type 0, BuildingBlock: MIFKUJ_clean_sbu_0, # of connection points: 6
#     Node 26, Type 0, BuildingBlock: MIFKUJ_clean_sbu_0, # of connection points: 6
#     Node 27, Type 0, BuildingBlock: MIFKUJ_clean_sbu_0, # of connection points: 6
#     Node 28, Type 0, BuildingBlock: MIFKUJ_clean_sbu_0, # of connection points: 6
#     Node 29, Type 0, BuildingBlock: MIFKUJ_clean_sbu_0, # of connection points: 6
#     Node 30, Type 0, BuildingBlock: MIFKUJ_clean_sbu_0, # of connection points: 6
#     Node 31, Type 0, BuildingBlock: MIFKUJ_clean_sbu_0, # of connection points: 6
#     Edge 32, Type (0, 0), BuildingBlock: ZUJKAS_clean_linker_0, # of connection points: 2
#     Edge 33, Type (0, 0), BuildingBlock: ZUJKAS_clean_linker_0, # of connection points: 2
#     Edge 34, Type (0, 0), BuildingBlock: ZUJKAS_clean_linker_0, # of connection points: 2
#     Edge 35, Type (0, 0), BuildingBlock: ZUJKAS_clean_linker_0, # of connection points: 2
#     Edge 36, Type (0, 0), BuildingBlock: ZUJKAS_clean_linker_0, # of connection points: 2
#     Edge 37, Type (0, 0), BuildingBlock: ZUJKAS_clean_linker_0, # of connection points: 2
#     Edge 38, Type (0, 0), BuildingBlock: ZUJKAS_clean_linker_0, # of connection points: 2
#     Edge 39, Type (0, 0), BuildingBlock: ZUJKAS_clean_linker_0, # of connection points: 2
#     Edge 40, Type (0, 0), BuildingBlock: ZUJKAS_clean_linker_0, # of connection points: 2
#     Edge 41, Type (0, 0), BuildingBlock: ZUJKAS_clean_linker_0, # of connection points: 2
#     Edge 42, Type (0, 0), BuildingBlock: ZUJKAS_clean_linker_0, # of connection points: 2
#     Edge 43, Type (0, 0), BuildingBlock: ZUJKAS_clean_linker_0, # of connection points: 2
#     Edge 44, Type (0, 0), BuildingBlock: ZUJKAS_clean_linker_0, # of connection points: 2
#     Edge 45, Type (0, 0), BuildingBlock: ZUJKAS_clean_linker_0, # of connection points: 2
#     Edge 46, Type (0, 0), BuildingBlock: ZUJKAS_clean_linker_0, # of connection points: 2
#     Edge 47, Type (0, 0), BuildingBlock: ZUJKAS_clean_linker_0, # of connection points: 2
#     Edge 48, Type (0, 0), BuildingBlock: ZUJKAS_clean_linker_0, # of connection points: 2
#     Edge 49, Type (0, 0), BuildingBlock: ZUJKAS_clean_linker_0, # of connection points: 2
#     Edge 50, Type (0, 0), BuildingBlock: ZUJKAS_clean_linker_0, # of connection points: 2
#     Edge 51, Type (0, 0), BuildingBlock: ZUJKAS_clean_linker_0, # of connection points: 2
#     Edge 52, Type (0, 0), BuildingBlock: ZUJKAS_clean_linker_0, # of connection points: 2
#     Edge 53, Type (0, 0), BuildingBlock: ZUJKAS_clean_linker_0, # of connection points: 2
#     Edge 54, Type (0, 0), BuildingBlock: ZUJKAS_clean_linker_0, # of connection points: 2
#     Edge 55, Type (0, 0), BuildingBlock: ZUJKAS_clean_linker_0, # of connection points: 2
#     Edge 56, Type (0, 0), BuildingBlock: ZUJKAS_clean_linker_0, # of connection points: 2
#     Edge 57, Type (0, 0), BuildingBlock: ZUJKAS_clean_linker_0, # of connection points: 2
#     Edge 58, Type (0, 0), BuildingBlock: ZUJKAS_clean_linker_0, # of connection points: 2
#     Edge 59, Type (0, 0), BuildingBlock: ZUJKAS_clean_linker_0, # of connection points: 2
#     Edge 60, Type (0, 0), BuildingBlock: ZUJKAS_clean_linker_0, # of connection points: 2
#     Edge 61, Type (0, 0), BuildingBlock: ZUJKAS_clean_linker_0, # of connection points: 2
#     Edge 62, Type (0, 0), BuildingBlock: ZUJKAS_clean_linker_0, # of connection points: 2
#     Edge 63, Type (0, 0), BuildingBlock: ZUJKAS_clean_linker_0, # of connection points: 2
#     Edge 64, Type (0, 0), BuildingBlock: ZUJKAS_clean_linker_0, # of connection points: 2
#     Edge 65, Type (0, 0), BuildingBlock: ZUJKAS_clean_linker_0, # of connection points: 2
#     Edge 66, Type (0, 0), BuildingBlock: ZUJKAS_clean_linker_0, # of connection points: 2
#     Edge 67, Type (0, 0), BuildingBlock: ZUJKAS_clean_linker_0, # of connection points: 2
#     Edge 68, Type (0, 0), BuildingBlock: ZUJKAS_clean_linker_0, # of connection points: 2
#     Edge 69, Type (0, 0), BuildingBlock: ZUJKAS_clean_linker_0, # of connection points: 2
#     Edge 70, Type (0, 0), BuildingBlock: ZUJKAS_clean_linker_0, # of connection points: 2
#     Edge 71, Type (0, 0), BuildingBlock: ZUJKAS_clean_linker_0, # of connection points: 2
#     Edge 72, Type (0, 0), BuildingBlock: ZUJKAS_clean_linker_0, # of connection points: 2
#     Edge 73, Type (0, 0), BuildingBlock: ZUJKAS_clean_linker_0, # of connection points: 2
#     Edge 74, Type (0, 0), BuildingBlock: ZUJKAS_clean_linker_0, # of connection points: 2
#     Edge 75, Type (0, 0), BuildingBlock: ZUJKAS_clean_linker_0, # of connection points: 2
#     Edge 76, Type (0, 0), BuildingBlock: ZUJKAS_clean_linker_0, # of connection points: 2
#     Edge 77, Type (0, 0), BuildingBlock: ZUJKAS_clean_linker_0, # of connection points: 2
#     Edge 78, Type (0, 0), BuildingBlock: ZUJKAS_clean_linker_0, # of connection points: 2
#     Edge 79, Type (0, 0), BuildingBlock: ZUJKAS_clean_linker_0, # of connection points: 2
#     Edge 80, Type (0, 0), BuildingBlock: ZUJKAS_clean_linker_0, # of connection points: 2
#     Edge 81, Type (0, 0), BuildingBlock: ZUJKAS_clean_linker_0, # of connection points: 2
#     Edge 82, Type (0, 0), BuildingBlock: ZUJKAS_clean_linker_0, # of connection points: 2
#     Edge 83, Type (0, 0), BuildingBlock: ZUJKAS_clean_linker_0, # of connection points: 2
#     Edge 84, Type (0, 0), BuildingBlock: ZUJKAS_clean_linker_0, # of connection points: 2
#     Edge 85, Type (0, 0), BuildingBlock: ZUJKAS_clean_linker_0, # of connection points: 2
#     Edge 86, Type (0, 0), BuildingBlock: ZUJKAS_clean_linker_0, # of connection points: 2
#     Edge 87, Type (0, 0), BuildingBlock: ZUJKAS_clean_linker_0, # of connection points: 2
#     Edge 88, Type (0, 0), BuildingBlock: ZUJKAS_clean_linker_0, # of connection points: 2
#     Edge 89, Type (0, 0), BuildingBlock: ZUJKAS_clean_linker_0, # of connection points: 2
#     Edge 90, Type (0, 0), BuildingBlock: ZUJKAS_clean_linker_0, # of connection points: 2
#     Edge 91, Type (0, 0), BuildingBlock: ZUJKAS_clean_linker_0, # of connection points: 2
#     Edge 92, Type (0, 0), BuildingBlock: ZUJKAS_clean_linker_0, # of connection points: 2
#     Edge 93, Type (0, 0), BuildingBlock: ZUJKAS_clean_linker_0, # of connection points: 2
#     Edge 94, Type (0, 0), BuildingBlock: ZUJKAS_clean_linker_0, # of connection points: 2
#     Edge 95, Type (0, 0), BuildingBlock: ZUJKAS_clean_linker_0, # of connection points: 2
#     Edge 96, Type (0, 0), BuildingBlock: ZUJKAS_clean_linker_0, # of connection points: 2
#     Edge 97, Type (0, 0), BuildingBlock: ZUJKAS_clean_linker_0, # of connection points: 2
#     Edge 98, Type (0, 0), BuildingBlock: ZUJKAS_clean_linker_0, # of connection points: 2
#     Edge 99, Type (0, 0), BuildingBlock: ZUJKAS_clean_linker_0, # of connection points: 2
#     Edge 100, Type (0, 0), BuildingBlock: ZUJKAS_clean_linker_0, # of connection points: 2
#     Edge 101, Type (0, 0), BuildingBlock: ZUJKAS_clean_linker_0, # of connection points: 2
#     Edge 102, Type (0, 0), BuildingBlock: ZUJKAS_clean_linker_0, # of connection points: 2
#     Edge 103, Type (0, 0), BuildingBlock: ZUJKAS_clean_linker_0, # of connection points: 2
#     Edge 104, Type (0, 0), BuildingBlock: ZUJKAS_clean_linker_0, # of connection points: 2
#     Edge 105, Type (0, 0), BuildingBlock: ZUJKAS_clean_linker_0, # of connection points: 2
#     Edge 106, Type (0, 0), BuildingBlock: ZUJKAS_clean_linker_0, # of connection points: 2
#     Edge 107, Type (0, 0), BuildingBlock: ZUJKAS_clean_linker_0, # of connection points: 2
#     Edge 108, Type (0, 0), BuildingBlock: ZUJKAS_clean_linker_0, # of connection points: 2
#     Edge 109, Type (0, 0), BuildingBlock: ZUJKAS_clean_linker_0, # of connection points: 2
#     Edge 110, Type (0, 0), BuildingBlock: ZUJKAS_clean_linker_0, # of connection points: 2
#     Edge 111, Type (0, 0), BuildingBlock: ZUJKAS_clean_linker_0, # of connection points: 2
#     Edge 112, Type (0, 0), BuildingBlock: ZUJKAS_clean_linker_0, # of connection points: 2
#     Edge 113, Type (0, 0), BuildingBlock: ZUJKAS_clean_linker_0, # of connection points: 2
#     Edge 114, Type (0, 0), BuildingBlock: ZUJKAS_clean_linker_0, # of connection points: 2
#     Edge 115, Type (0, 0), BuildingBlock: ZUJKAS_clean_linker_0, # of connection points: 2
#     Edge 116, Type (0, 0), BuildingBlock: ZUJKAS_clean_linker_0, # of connection points: 2
#     Edge 117, Type (0, 0), BuildingBlock: ZUJKAS_clean_linker_0, # of connection points: 2
#     Edge 118, Type (0, 0), BuildingBlock: ZUJKAS_clean_linker_0, # of connection points: 2
#     Edge 119, Type (0, 0), BuildingBlock: ZUJKAS_clean_linker_0, # of connection points: 2
#     Edge 120, Type (0, 0), BuildingBlock: ZUJKAS_clean_linker_0, # of connection points: 2
#     Edge 121, Type (0, 0), BuildingBlock: ZUJKAS_clean_linker_0, # of connection points: 2
#     Edge 122, Type (0, 0), BuildingBlock: ZUJKAS_clean_linker_0, # of connection points: 2
#     Edge 123, Type (0, 0), BuildingBlock: ZUJKAS_clean_linker_0, # of connection points: 2
#     Edge 124, Type (0, 0), BuildingBlock: ZUJKAS_clean_linker_0, # of connection points: 2
#     Edge 125, Type (0, 0), BuildingBlock: ZUJKAS_clean_linker_0, # of connection points: 2
#     Edge 126, Type (0, 0), BuildingBlock: ZUJKAS_clean_linker_0, # of connection points: 2
#     Edge 127, Type (0, 0), BuildingBlock: ZUJKAS_clean_linker_0, # of connection points: 2
# Relax obj value: 0.043
# Max RMSD: 0.094
# Mean RMSD: 0.094
data_MOF--net-som--node1-MIFKUJ_clean_sbu_0--edge1-ZUJKAS_clean_linker_0
_symmetry_space_group_name_H-M    P1
_symmetry_Int_Tables_number       1
_symmetry_cell_setting            triclinic
loop_
_symmetry_equiv_pos_as_xyz
'x, y, z'
_cell_length_a     23.387956
_cell_length_b     84.346433
_cell_length_c     147.66159
_cell_angle_alpha  89.965145
_cell_angle_beta   90.050357
_cell_angle_gamma 90.075552
loop_
_atom_site_label
_atom_site_type_symbol
_atom_site_fract_x
_atom_site_fract_y
_atom_site_fract_z
_atom_type_partial_charge
Zn0 Zn 0.11386 0.51202 0.054 0.0
Zn1 Zn 0.95448 0.49084 0.05429 0.0
C2 C 0.12388 0.54468 0.05175 0.0
O3 O 0.14667 0.53862 0.0444 0.0
C4 C 0.91473 0.45954 0.05865 0.0
O5 O 0.88001 0.46792 0.06374 0.0
O6 O 0.19763 0.50648 0.05391 0.0
O7 O 0.06903 0.49588 0.06067 0.0
O8 O 0.98453 0.4981 0.06649 0.0
C9 C 0.23273 0.51359 0.05909 0.0
O10 O 0.21339 0.52418 0.06484 0.0
O11 O 0.10419 0.53521 0.05772 0.0
C12 C 0.83777 0.49097 0.04814 0.0
O13 O 0.85743 0.47999 0.04266 0.0
O14 O 0.87226 0.49793 0.05349 0.0
O15 O 0.99858 0.49894 0.04311 0.0
O16 O 0.08416 0.51033 0.04144 0.0
O17 O 0.95295 0.46671 0.05407 0.0
C18 C 0.03807 0.49972 0.0673 0.0
C19 C 0.03758 0.50504 0.03812 0.0
Zn20 Zn 0.14681 0.74808 0.05389 0.0
Zn21 Zn 0.3002 0.76037 0.05442 0.0
C22 C 0.14484 0.71476 0.05079 0.0
O23 O 0.13161 0.72029 0.04274 0.0
C24 C 0.31005 0.79301 0.06082 0.0
O25 O 0.32117 0.7862 0.06863 0.0
O26 O 0.06217 0.75245 0.05321 0.0
O27 O 0.17978 0.76265 0.06324 0.0
O28 O 0.2636 0.75196 0.06592 0.0
C29 C 0.02829 0.74694 0.05916 0.0
O30 O 0.04933 0.73862 0.06591 0.0
O31 O 0.15516 0.7246 0.05714 0.0
C32 C 0.41834 0.76281 0.0498 0.0
O33 O 0.3967 0.77264 0.04381 0.0
O34 O 0.38468 0.75553 0.05515 0.0
O35 O 0.27279 0.75297 0.04212 0.0
O36 O 0.17768 0.75135 0.04146 0.0
O37 O 0.29693 0.78439 0.05406 0.0
C38 C 0.21504 0.75654 0.06873 0.0
C39 C 0.2264 0.75153 0.03767 0.0
Zn40 Zn 0.1146 0.74569 0.17647 0.0
Zn41 Zn 0.95752 0.76617 0.17513 0.0
C42 C 0.13513 0.7138 0.17848 0.0
O43 O 0.16538 0.72062 0.1849 0.0
C44 C 0.91775 0.79702 0.17081 0.0
O45 O 0.88105 0.78838 0.16623 0.0
O46 O 0.19973 0.74954 0.17748 0.0
O47 O 0.08066 0.76091 0.16763 0.0
O48 O 0.99133 0.75781 0.16357 0.0
C49 C 0.23061 0.75662 0.17166 0.0
O50 O 0.20649 0.76289 0.16447 0.0
O51 O 0.10543 0.72251 0.17324 0.0
C52 C 0.84354 0.7543 0.18135 0.0
O53 O 0.86825 0.7496 0.18888 0.0
O54 O 0.87355 0.76046 0.1751 0.0
O55 O 0.99393 0.759 0.18688 0.0
O56 O 0.08027 0.74837 0.18873 0.0
O57 O 0.95854 0.79019 0.17496 0.0
C58 C 0.04418 0.75648 0.16182 0.0
C59 C 0.03298 0.75327 0.19192 0.0
Zn60 Zn 0.14717 0.511 0.17816 0.0
Zn61 Zn 0.30152 0.49552 0.17523 0.0
C62 C 0.11373 0.54371 0.17933 0.0
O63 O 0.06405 0.53736 0.17732 0.0
C64 C 0.28637 0.4618 0.17216 0.0
O65 O 0.26666 0.46656 0.16429 0.0
O66 O 0.06239 0.50615 0.17943 0.0
O67 O 0.16996 0.50691 0.16539 0.0
O68 O 0.26015 0.49932 0.16336 0.0
C69 C 0.03175 0.50006 0.17322 0.0
O70 O 0.0561 0.49538 0.16567 0.0
O71 O 0.15701 0.5347 0.18028 0.0
C72 C 0.41894 0.50076 0.18002 0.0
O73 O 0.39718 0.49904 0.18816 0.0
O74 O 0.38573 0.5002 0.1732 0.0
O75 O 0.27722 0.50729 0.18656 0.0
O76 O 0.18852 0.49855 0.18767 0.0
O77 O 0.30087 0.47207 0.17803 0.0
C78 C 0.21123 0.50307 0.16026 0.0
C79 C 0.23322 0.50424 0.19131 0.0
Zn80 Zn 0.05838 0.51652 0.92634 0.0
Zn81 Zn 0.89972 0.48917 0.92637 0.0
C82 C 0.04267 0.55056 0.92551 0.0
O83 O 1.00211 0.54681 0.91974 0.0
C84 C 0.86955 0.45748 0.92847 0.0
O85 O 0.83908 0.46456 0.93476 0.0
O86 O 0.1388 0.50738 0.92572 0.0
O87 O 0.00704 0.50553 0.93603 0.0
O88 O 0.9288 0.49141 0.93901 0.0
C89 C 0.1744 0.5104 0.93202 0.0
O90 O 0.15651 0.51802 0.93924 0.0
O91 O 0.07007 0.53957 0.92949 0.0
C92 C 0.78396 0.49573 0.91939 0.0
O93 O 0.80296 0.48918 0.9119 0.0
O94 O 0.81817 0.4976 0.92601 0.0
O95 O 0.95793 0.50159 0.91993 0.0
O96 O 0.02324 0.51593 0.91365 0.0
O97 O 0.90094 0.46592 0.92335 0.0
C98 C 0.97394 0.49856 0.94169 0.0
C99 C 0.9768 0.5083 0.91293 0.0
Zn100 Zn 0.70975 0.24675 0.92651 0.0
Zn101 Zn 0.85636 0.2544 0.92728 0.0
C102 C 0.70935 0.21364 0.92124 0.0
O103 O 0.70208 0.21968 0.91312 0.0
C104 C 0.83996 0.28772 0.9315 0.0
O105 O 0.84367 0.2825 0.93986 0.0
O106 O 0.62398 0.25101 0.9256 0.0
O107 O 0.73652 0.25678 0.93815 0.0
O108 O 0.82546 0.24788 0.93929 0.0
C109 C 0.58876 0.24146 0.92931 0.0
O110 O 0.60856 0.22924 0.93383 0.0
O111 O 0.71689 0.22291 0.92792 0.0
C112 C 0.97705 0.26223 0.92466 0.0
O113 O 0.95573 0.27525 0.92115 0.0
O114 O 0.94312 0.25163 0.92767 0.0
O115 O 0.82765 0.24125 0.91706 0.0
O116 O 0.74623 0.25372 0.91475 0.0
O117 O 0.84169 0.27788 0.92498 0.0
C118 C 0.77892 0.25233 0.94292 0.0
C119 C 0.7914 0.2473 0.91169 0.0
Zn120 Zn 0.0502 0.24679 0.80488 0.0
Zn121 Zn 0.89899 0.25816 0.80437 0.0
C122 C 0.04863 0.21386 0.80999 0.0
O123 O 0.05857 0.22008 0.81799 0.0
C124 C 0.88297 0.29097 0.80132 0.0
O125 O 0.84768 0.2847 0.79539 0.0
O126 O 0.13611 0.25049 0.80513 0.0
O127 O 0.02136 0.25802 0.79373 0.0
O128 O 0.92922 0.25187 0.79237 0.0
C129 C 0.17021 0.24093 0.80122 0.0
O130 O 0.1493 0.22858 0.79692 0.0
O131 O 0.03985 0.22304 0.80331 0.0
C132 C 0.77778 0.26321 0.80862 0.0
O133 O 0.79745 0.27494 0.81358 0.0
O134 O 0.81278 0.25448 0.80429 0.0
O135 O 0.93181 0.24481 0.8141 0.0
O136 O 0.01815 0.25407 0.81683 0.0
O137 O 0.91328 0.28181 0.80621 0.0
C138 C 0.97799 0.25456 0.7889 0.0
C139 C 0.96789 0.25082 0.81949 0.0
Zn140 Zn 0.70884 0.51087 0.80563 0.0
Zn141 Zn 0.8632 0.49352 0.80425 0.0
C142 C 0.69923 0.54309 0.80963 0.0
O143 O 0.68494 0.53632 0.81732 0.0
C144 C 0.89175 0.46113 0.7991 0.0
O145 O 0.93522 0.46795 0.79502 0.0
O146 O 0.62381 0.50638 0.80632 0.0
O147 O 0.73905 0.49793 0.79519 0.0
O148 O 0.82959 0.50446 0.79345 0.0
C149 C 0.58998 0.51392 0.80111 0.0
O150 O 0.61127 0.52413 0.79529 0.0
O151 O 0.71479 0.53437 0.80306 0.0
C152 C 0.98277 0.49133 0.80925 0.0
O153 O 0.96344 0.48029 0.81474 0.0
O154 O 0.94764 0.49878 0.80424 0.0
O155 O 0.83261 0.49881 0.81646 0.0
O156 O 0.74289 0.50714 0.81802 0.0
O157 O 0.85469 0.46972 0.80303 0.0
C158 C 0.77943 0.50309 0.79026 0.0
C159 C 0.79087 0.50314 0.82135 0.0
Zn160 Zn 0.11145 0.01214 0.55462 0.0
Zn161 Zn 0.95652 0.9935 0.55578 0.0
C162 C 0.13451 0.04428 0.55279 0.0
O163 O 0.16412 0.03768 0.54624 0.0
C164 C 0.94496 0.96139 0.56224 0.0
O165 O 0.93061 0.96852 0.56981 0.0
O166 O 0.19555 0.00733 0.55324 0.0
O167 O 0.0814 0.997 0.56404 0.0
O168 O 0.99163 1.00194 0.56732 0.0
C169 C 0.23062 0.01199 0.55926 0.0
O170 O 0.21105 0.01964 0.56636 0.0
O171 O 0.10502 0.0354 0.55798 0.0
C172 C 0.83899 0.99241 0.55025 0.0
O173 O 0.86088 0.98352 0.54383 0.0
O174 O 0.87221 0.99853 0.55612 0.0
O175 O 0.98764 1.00051 0.54376 0.0
O176 O 0.07607 0.01005 0.5424 0.0
O177 O 0.96042 0.96972 0.55551 0.0
C178 C 0.0437 1.00117 0.56972 0.0
C179 C 0.02842 0.00595 0.53901 0.0
Zn180 Zn 0.14367 0.24779 0.55202 0.0
Zn181 Zn 0.29768 0.26257 0.55451 0.0
C182 C 0.11079 0.21439 0.55109 0.0
O183 O 0.05939 0.22045 0.55033 0.0
C184 C 0.31852 0.2947 0.55793 0.0
O185 O 0.33849 0.28769 0.56523 0.0
O186 O 0.05913 0.25283 0.55111 0.0
O187 O 0.16817 0.25448 0.56435 0.0
O188 O 0.26036 0.25949 0.5667 0.0
C189 C 0.02642 0.25123 0.55793 0.0
O190 O 0.04831 0.24641 0.56565 0.0
O191 O 0.1538 0.22366 0.55147 0.0
C192 C 0.41445 0.26075 0.54924 0.0
O193 O 0.39191 0.26616 0.5417 0.0
O194 O 0.38171 0.25772 0.5559 0.0
O195 O 0.26925 0.24991 0.54376 0.0
O196 O 0.18148 0.25845 0.54145 0.0
O197 O 0.29542 0.28617 0.55183 0.0
C198 C 0.20949 0.25784 0.56958 0.0
C199 C 0.23164 0.25582 0.53855 0.0
Zn200 Zn 0.11356 0.24717 0.67686 0.0
Zn201 Zn 0.95673 0.26372 0.67641 0.0
C202 C 0.12845 0.21475 0.67874 0.0
O203 O 0.15562 0.22088 0.6857 0.0
C204 C 0.94355 0.29583 0.67005 0.0
O205 O 0.93128 0.28857 0.66242 0.0
O206 O 0.19767 0.25185 0.6777 0.0
O207 O 0.07708 0.26296 0.6687 0.0
O208 O 0.99068 0.25609 0.66468 0.0
C209 C 0.23292 0.24582 0.67215 0.0
O210 O 0.21386 0.2366 0.66564 0.0
O211 O 0.10399 0.22412 0.67318 0.0
C212 C 0.84073 0.26261 0.68251 0.0
O213 O 0.86277 0.27016 0.68946 0.0
O214 O 0.87345 0.25809 0.67615 0.0
O215 O 0.99047 0.25612 0.68825 0.0
O216 O 0.08209 0.2489 0.6892 0.0
O217 O 0.95825 0.28761 0.67687 0.0
C218 C 0.0431 0.25774 0.66274 0.0
C219 C 0.03374 0.25153 0.69279 0.0
Zn220 Zn 0.14432 0.01181 0.67656 0.0
Zn221 Zn 0.3032 0.99016 0.6763 0.0
C222 C 0.15089 0.04499 0.67904 0.0
O223 O 0.14411 0.03992 0.68738 0.0
C224 C 0.30813 0.95694 0.67068 0.0
O225 O 0.30561 0.96275 0.66243 0.0
O226 O 0.06032 0.00652 0.67691 0.0
O227 O 0.18578 0.99564 0.66921 0.0
O228 O 0.27262 0.99691 0.66408 0.0
C229 C 0.02434 0.01438 0.67228 0.0
O230 O 0.04266 0.02581 0.66697 0.0
O231 O 0.15365 0.03491 0.67263 0.0
C232 C 0.41943 0.98975 0.68223 0.0
O233 O 0.3991 0.97846 0.68746 0.0
O234 O 0.38547 0.99713 0.67699 0.0
O235 O 0.26026 0.9986 0.68727 0.0
O236 O 0.17522 0.00989 0.68917 0.0
O237 O 0.30516 0.96631 0.67739 0.0
C238 C 0.21958 0.99903 0.66281 0.0
C239 C 0.22231 0.00477 0.69235 0.0
Zn240 Zn 0.05046 0.01195 0.42628 0.0
Zn241 Zn 0.89845 0.9983 0.42741 0.0
C242 C 0.05222 0.0453 0.42137 0.0
O243 O 0.0621 0.0395 0.41326 0.0
C244 C 0.91198 0.96474 0.43116 0.0
O245 O 0.91246 0.96997 0.43953 0.0
O246 O 0.13579 0.00803 0.42546 0.0
O247 O 0.02679 1.00194 0.43801 0.0
O248 O 0.93174 0.00343 0.43953 0.0
C249 C 0.17036 0.01706 0.42968 0.0
O250 O 0.15002 0.02885 0.43451 0.0
O251 O 0.04207 0.03579 0.42784 0.0
C252 C 0.77703 0.99212 0.42489 0.0
O253 O 0.79607 0.97909 0.42109 0.0
O254 O 0.81266 1.00211 0.42807 0.0
O255 O 0.92758 0.01231 0.41754 0.0
O256 O 0.01493 0.00421 0.4146 0.0
O257 O 0.90935 0.97469 0.42468 0.0
C258 C 0.98178 1.00219 0.44281 0.0
C259 C 0.96416 0.007 0.412 0.0
Zn260 Zn 0.70428 0.74099 0.42513 0.0
Zn261 Zn 0.86006 0.76264 0.42606 0.0
C262 C 0.66811 0.70958 0.42125 0.0
O263 O 0.62926 0.71764 0.41678 0.0
C264 C 0.87301 0.7953 0.42868 0.0
O265 O 0.89879 0.78899 0.43572 0.0
O266 O 0.61985 0.74585 0.42537 0.0
O267 O 0.74159 0.74867 0.43667 0.0
O268 O 0.82689 0.76003 0.43844 0.0
C269 C 0.59031 0.7509 0.43198 0.0
O270 O 0.61577 0.75477 0.4396 0.0
O271 O 0.70869 0.71701 0.42511 0.0
C272 C 0.98228 0.76631 0.42312 0.0
O273 O 0.96626 0.77897 0.41862 0.0
O274 O 0.94481 0.75743 0.42676 0.0
O275 O 0.82451 0.74708 0.4175 0.0
O276 O 0.73522 0.74963 0.41345 0.0
O277 O 0.85017 0.78606 0.42287 0.0
C278 C 0.7801 0.75479 0.44167 0.0
C279 C 0.78789 0.7511 0.41161 0.0
Zn280 Zn 0.04887 0.7427 0.30521 0.0
Zn281 Zn 0.89387 0.76082 0.30405 0.0
C282 C 0.06559 0.71076 0.31134 0.0
O283 O 0.08786 0.71825 0.3183 0.0
C284 C 0.88356 0.79332 0.30207 0.0
O285 O 0.86188 0.78745 0.29458 0.0
O286 O 0.13334 0.74753 0.30579 0.0
O287 O 0.01839 0.7503 0.29317 0.0
O288 O 0.92922 0.75923 0.29181 0.0
C289 C 0.16599 0.74411 0.2992 0.0
O290 O 0.14367 0.73798 0.29182 0.0
O291 O 0.04346 0.71883 0.30497 0.0
C292 C 0.77524 0.75975 0.30913 0.0
O293 O 0.79596 0.76522 0.31679 0.0
O294 O 0.80937 0.75673 0.30266 0.0
O295 O 0.9259 0.74491 0.31274 0.0
O296 O 0.01331 0.75119 0.31666 0.0
O297 O 0.90256 0.78373 0.30802 0.0
C298 C 0.97741 0.75569 0.2884 0.0
C299 C 0.96078 0.74988 0.31866 0.0
Zn300 Zn 0.70061 0.01214 0.30581 0.0
Zn301 Zn 0.86144 0.99556 0.30506 0.0
C302 C 0.72043 0.04662 0.30905 0.0
O303 O 0.76658 0.04281 0.31363 0.0
C304 C 0.86981 0.96289 0.30255 0.0
O305 O 0.88681 0.9687 0.29475 0.0
O306 O 0.61999 0.00422 0.3056 0.0
O307 O 0.73974 0.00612 0.29411 0.0
O308 O 0.8294 0.99767 0.29269 0.0
C309 C 0.588 0.00853 0.29909 0.0
O310 O 0.61028 0.0166 0.29235 0.0
O311 O 0.68999 0.03578 0.30554 0.0
C312 C 0.97989 0.99666 0.31027 0.0
O313 O 0.96073 0.98934 0.31751 0.0
O314 O 0.94493 1.00072 0.30411 0.0
O315 O 0.82315 0.011 0.31326 0.0
O316 O 0.73636 0.00507 0.31755 0.0
O317 O 0.8547 0.97247 0.30877 0.0
C318 C 0.78149 1.00147 0.28927 0.0
C319 C 0.78938 0.00587 0.31928 0.0
Zn320 Zn 0.61046 0.50945 0.55193 0.0
Zn321 Zn 0.45753 0.49346 0.5543 0.0
C322 C 0.61308 0.54265 0.54593 0.0
O323 O 0.63514 0.53692 0.53844 0.0
C324 C 0.45166 0.46007 0.55786 0.0
O325 O 0.45264 0.46542 0.56621 0.0
O326 O 0.69588 0.50635 0.55079 0.0
O327 O 0.58955 0.502 0.56417 0.0
O328 O 0.49795 0.49618 0.5664 0.0
C329 C 0.72848 0.51195 0.55691 0.0
O330 O 0.70557 0.51964 0.56373 0.0
O331 O 0.59737 0.53316 0.55213 0.0
C332 C 0.33986 0.49493 0.54973 0.0
O333 O 0.36104 0.48848 0.54236 0.0
O334 O 0.3739 0.49877 0.55609 0.0
O335 O 0.48375 0.50593 0.54322 0.0
O336 O 0.57383 0.49879 0.54128 0.0
O337 O 0.45594 0.46989 0.55134 0.0
C338 C 0.54856 0.49822 0.56936 0.0
C339 C 0.52429 0.50142 0.5381 0.0
Zn340 Zn 0.64779 0.7443 0.55327 0.0
Zn341 Zn 0.80392 0.7642 0.55461 0.0
C342 C 0.63604 0.71209 0.55109 0.0
O343 O 0.61715 0.71846 0.54353 0.0
C344 C 0.80299 0.7967 0.56087 0.0
O345 O 0.81013 0.79001 0.56883 0.0
O346 O 0.56368 0.74893 0.55156 0.0
O347 O 0.68153 0.76046 0.56168 0.0
O348 O 0.76907 0.75579 0.56613 0.0
C349 C 0.5299 0.74833 0.55829 0.0
O350 O 0.5506 0.74499 0.56634 0.0
O351 O 0.65367 0.72129 0.55734 0.0
C352 C 0.91914 0.75411 0.54914 0.0
O353 O 0.89393 0.74855 0.54185 0.0
O354 O 0.88913 0.76055 0.55529 0.0
O355 O 0.77296 0.75572 0.5428 0.0
O356 O 0.68562 0.74549 0.54118 0.0
O357 O 0.79649 0.78796 0.55395 0.0
C358 C 0.71587 0.75593 0.56778 0.0
C359 C 0.73382 0.74954 0.53794 0.0
Zn360 Zn 0.61041 0.74868 0.67689 0.0
Zn361 Zn 0.46259 0.75999 0.67542 0.0
C362 C 0.60913 0.7156 0.68128 0.0
O363 O 0.62789 0.72169 0.68892 0.0
C364 C 0.44812 0.79223 0.67047 0.0
O365 O 0.42551 0.78504 0.66343 0.0
O366 O 0.69664 0.75208 0.67755 0.0
O367 O 0.58509 0.76172 0.66639 0.0
O368 O 0.49851 0.75249 0.66372 0.0
C369 C 0.73261 0.74159 0.67513 0.0
O370 O 0.71423 0.72789 0.67208 0.0
O371 O 0.59583 0.725 0.67486 0.0
C372 C 0.34418 0.75652 0.68091 0.0
O373 O 0.36672 0.75741 0.68904 0.0
O374 O 0.3769 0.7569 0.67403 0.0
O375 O 0.48563 0.74985 0.68735 0.0
O376 O 0.5782 0.7552 0.68886 0.0
O377 O 0.47107 0.78383 0.67663 0.0
C378 C 0.54775 0.75656 0.66092 0.0
C379 C 0.52938 0.75239 0.69228 0.0
Zn380 Zn 0.64297 0.51288 0.67795 0.0
Zn381 Zn 0.79621 0.4936 0.67682 0.0
C382 C 0.64871 0.54609 0.68025 0.0
O383 O 0.63967 0.54095 0.68853 0.0
C384 C 0.80197 0.46105 0.67052 0.0
O385 O 0.81016 0.46792 0.66264 0.0
O386 O 0.55807 0.50996 0.67979 0.0
O387 O 0.66879 0.49623 0.66912 0.0
O388 O 0.75782 0.50124 0.66525 0.0
C389 C 0.52565 0.50664 0.67315 0.0
O390 O 0.548 0.50513 0.66504 0.0
O391 O 0.65363 0.53594 0.6739 0.0
C392 C 0.91348 0.50082 0.68229 0.0
O393 O 0.891 0.50222 0.69039 0.0
O394 O 0.88112 0.49787 0.67557 0.0
O395 O 0.76846 0.50132 0.6891 0.0
O396 O 0.67894 0.51018 0.69001 0.0
O397 O 0.79235 0.46963 0.67743 0.0
C398 C 0.70554 0.49951 0.66311 0.0
C399 C 0.72627 0.50653 0.69366 0.0
Zn400 Zn 0.54527 0.51074 0.42693 0.0
Zn401 Zn 0.38909 0.49164 0.42878 0.0
C402 C 0.58209 0.54198 0.42571 0.0
O403 O 0.61004 0.53481 0.41918 0.0
C404 C 0.38177 0.45893 0.43505 0.0
O405 O 0.35745 0.46541 0.44216 0.0
O406 O 0.62831 0.50461 0.42559 0.0
O407 O 0.51169 0.4969 0.43668 0.0
O408 O 0.42215 0.50215 0.43974 0.0
C409 C 0.66127 0.50741 0.43226 0.0
O410 O 0.63915 0.5129 0.43981 0.0
O411 O 0.54691 0.53398 0.43045 0.0
C412 C 0.2711 0.49429 0.42256 0.0
O413 O 0.29278 0.49031 0.41468 0.0
O414 O 0.30407 0.4956 0.42937 0.0
O415 O 0.41886 0.49948 0.4169 0.0
O416 O 0.50614 0.50938 0.41474 0.0
O417 O 0.40042 0.46786 0.42878 0.0
C418 C 0.47445 0.50268 0.44196 0.0
C419 C 0.45718 0.50528 0.41176 0.0
Zn420 Zn 0.21267 0.24228 0.42573 0.0
Zn421 Zn 0.36404 0.25626 0.42776 0.0
C422 C 0.19944 0.2096 0.42209 0.0
O423 O 0.18573 0.21603 0.41428 0.0
C424 C 0.35478 0.28909 0.43425 0.0
O425 O 0.36399 0.28282 0.44226 0.0
O426 O 0.12775 0.24654 0.42417 0.0
O427 O 0.2389 0.25489 0.43669 0.0
O428 O 0.32678 0.24591 0.4385 0.0
C429 C 0.09541 0.24678 0.4311 0.0
O430 O 0.11832 0.24499 0.43916 0.0
O431 O 0.21579 0.21865 0.42849 0.0
C432 C 0.4833 0.25649 0.42277 0.0
O433 O 0.46166 0.26139 0.41505 0.0
O434 O 0.44969 0.25344 0.42932 0.0
O435 O 0.34448 0.24831 0.41545 0.0
O436 O 0.25047 0.2459 0.41353 0.0
O437 O 0.351 0.28003 0.42739 0.0
C438 C 0.27883 0.24991 0.44179 0.0
C439 C 0.30111 0.24641 0.41038 0.0
Zn440 Zn 0.5467 0.24209 0.30498 0.0
Zn441 Zn 0.38924 0.26209 0.3033 0.0
C442 C 0.57454 0.21089 0.31068 0.0
O443 O 0.60648 0.2191 0.3163 0.0
C444 C 0.40299 0.29559 0.30145 0.0
O445 O 0.40907 0.29109 0.293 0.0
O446 O 0.63071 0.24728 0.30494 0.0
O447 O 0.51047 0.24949 0.29315 0.0
O448 O 0.42412 0.26011 0.29103 0.0
C449 C 0.66274 0.24372 0.2983 0.0
O450 O 0.6399 0.23743 0.29101 0.0
O451 O 0.54218 0.21826 0.3052 0.0
C452 C 0.27113 0.26063 0.30851 0.0
O453 O 0.29043 0.26836 0.31561 0.0
O454 O 0.30585 0.25654 0.30233 0.0
O455 O 0.429 0.24641 0.3111 0.0
O456 O 0.51378 0.25078 0.31655 0.0
O457 O 0.39528 0.28509 0.30753 0.0
C458 C 0.47196 0.25529 0.288 0.0
C459 C 0.46005 0.2514 0.3175 0.0
Zn460 Zn 0.20252 0.51242 0.30496 0.0
Zn461 Zn 0.35892 0.49719 0.30384 0.0
C462 C 0.20792 0.5461 0.31055 0.0
O463 O 0.22223 0.54075 0.31859 0.0
C464 C 0.37562 0.46473 0.30297 0.0
O465 O 0.40363 0.47045 0.29598 0.0
O466 O 0.11918 0.50643 0.30616 0.0
O467 O 0.23287 0.50517 0.29279 0.0
O468 O 0.32454 0.49841 0.29156 0.0
C469 C 0.08636 0.50604 0.29929 0.0
O470 O 0.10811 0.50836 0.29121 0.0
O471 O 0.19998 0.53635 0.30411 0.0
C472 C 0.47595 0.50476 0.30898 0.0
O473 O 0.4532 0.50712 0.31699 0.0
O474 O 0.44386 0.5008 0.30241 0.0
O475 O 0.32773 0.5136 0.31231 0.0
O476 O 0.24256 0.50547 0.31647 0.0
O477 O 0.34946 0.4744 0.30813 0.0
C478 C 0.27565 0.50082 0.28807 0.0
C479 C 0.29415 0.50868 0.31842 0.0
Zn480 Zn 0.61397 0.01354 0.05332 0.0
Zn481 Zn 0.45883 0.99094 0.05449 0.0
C482 C 0.59693 0.04705 0.05067 0.0
O483 O 0.5878 0.04199 0.04238 0.0
C484 C 0.44108 0.959 0.06068 0.0
O485 O 0.42216 0.96656 0.06785 0.0
O486 O 0.6985 0.00936 0.05182 0.0
O487 O 0.58649 0.99842 0.06285 0.0
O488 O 0.49449 0.99906 0.06599 0.0
C489 C 0.73121 0.00981 0.05871 0.0
O490 O 0.70898 0.01287 0.06669 0.0
O491 O 0.60707 0.03693 0.05688 0.0
C492 C 0.34042 0.99167 0.04895 0.0
O493 O 0.36097 0.98411 0.04189 0.0
O494 O 0.37464 0.99627 0.05512 0.0
O495 O 0.49081 0.99871 0.04261 0.0
O496 O 0.57666 0.00996 0.04126 0.0
O497 O 0.4617 0.96699 0.05415 0.0
C498 C 0.54613 1.00131 0.06831 0.0
C499 C 0.53023 0.00488 0.03783 0.0
Zn500 Zn 0.64755 0.24983 0.0542 0.0
Zn501 Zn 0.79504 0.25859 0.05582 0.0
C502 C 0.63169 0.21679 0.05013 0.0
O503 O 0.59827 0.22324 0.044 0.0
C504 C 0.82698 0.29099 0.05821 0.0
O505 O 0.86485 0.28387 0.06337 0.0
O506 O 0.56148 0.25288 0.05276 0.0
O507 O 0.67094 0.26095 0.06565 0.0
O508 O 0.75891 0.25176 0.06762 0.0
C509 C 0.52724 0.25082 0.05936 0.0
O510 O 0.54823 0.24698 0.06732 0.0
O511 O 0.66009 0.22588 0.05536 0.0
C512 C 0.91285 0.25804 0.05001 0.0
O513 O 0.88943 0.26377 0.04261 0.0
O514 O 0.88066 0.25428 0.05664 0.0
O515 O 0.76892 0.2477 0.04444 0.0
O516 O 0.68289 0.25809 0.04281 0.0
O517 O 0.78846 0.2827 0.05435 0.0
C518 C 0.7117 0.25673 0.07081 0.0
C519 C 0.7296 0.25325 0.03943 0.0
Zn520 Zn 0.61478 0.24134 0.17652 0.0
Zn521 Zn 0.45418 0.26648 0.17696 0.0
C522 C 0.64214 0.20947 0.17857 0.0
O523 O 0.67142 0.21588 0.18524 0.0
C524 C 0.42711 0.29749 0.17284 0.0
O525 O 0.40422 0.28959 0.16608 0.0
O526 O 0.69519 0.2503 0.17569 0.0
O527 O 0.55403 0.25247 0.16994 0.0
O528 O 0.48187 0.26434 0.16398 0.0
C529 C 0.73234 0.24377 0.17063 0.0
O530 O 0.71635 0.23221 0.16523 0.0
O531 O 0.61364 0.21842 0.17335 0.0
C532 C 0.33775 0.26515 0.18324 0.0
O533 O 0.3574 0.27583 0.18893 0.0
O534 O 0.37227 0.25869 0.1777 0.0
O535 O 0.50771 0.25572 0.18622 0.0
O536 O 0.58774 0.24276 0.18932 0.0
O537 O 0.45278 0.28986 0.17905 0.0
C538 C 0.53002 0.2578 0.16294 0.0
C539 C 0.54099 0.24904 0.19193 0.0
Zn540 Zn 0.64137 0.00733 0.17733 0.0
Zn541 Zn 0.79469 0.99702 0.17552 0.0
C542 C 0.66345 0.04063 0.18016 0.0
O543 O 0.67357 0.03564 0.18843 0.0
C544 C 0.83607 0.96547 0.1716 0.0
O545 O 0.8772 0.97355 0.16768 0.0
O546 O 0.55572 0.00447 0.17851 0.0
O547 O 0.67147 0.99306 0.16758 0.0
O548 O 0.75198 0.00564 0.16466 0.0
C549 C 0.52346 1.00016 0.17202 0.0
O550 O 0.54636 0.9966 0.16416 0.0
O551 O 0.65101 0.0306 0.17403 0.0
C552 C 0.9116 1.00138 0.18119 0.0
O553 O 0.89026 0.99622 0.18887 0.0
O554 O 0.87828 0.00343 0.17447 0.0
O555 O 0.76897 1.00281 0.18809 0.0
O556 O 0.67431 0.00353 0.18957 0.0
O557 O 0.7941 0.9729 0.17507 0.0
C558 C 0.70507 0.99962 0.16198 0.0
C559 C 0.72424 0.00364 0.19296 0.0
Zn560 Zn 0.54506 0.01707 0.92504 0.0
Zn561 Zn 0.38839 0.99558 0.92544 0.0
C562 C 0.56908 0.04906 0.91926 0.0
O563 O 0.5945 0.04157 0.91259 0.0
C564 C 0.39313 0.96267 0.92884 0.0
O565 O 0.38324 0.96848 0.93693 0.0
O566 O 0.62852 0.0111 0.92568 0.0
O567 O 0.50644 0.00971 0.93654 0.0
O568 O 0.41996 0.99892 0.93791 0.0
C569 C 0.66292 0.01857 0.93082 0.0
O570 O 0.64304 0.0299 0.93604 0.0
O571 O 0.54247 0.04103 0.9252 0.0
C572 C 0.26767 0.99207 0.92146 0.0
O573 O 0.28606 0.98074 0.91611 0.0
O574 O 0.3037 1.00009 0.92601 0.0
O575 O 0.42434 0.01098 0.91683 0.0
O576 O 0.51446 0.00843 0.91324 0.0
O577 O 0.39878 0.97223 0.92221 0.0
C578 C 0.46642 0.00393 0.94136 0.0
C579 C 0.4621 0.00675 0.91119 0.0
Zn580 Zn 0.2118 0.74673 0.9252 0.0
Zn581 Zn 0.36324 0.76033 0.92711 0.0
C582 C 0.1894 0.71472 0.92231 0.0
O583 O 0.16649 0.72163 0.9152 0.0
C584 C 0.37562 0.79315 0.93233 0.0
O585 O 0.41205 0.78687 0.93808 0.0
O586 O 0.12685 0.75118 0.92393 0.0
O587 O 0.24096 0.7595 0.93586 0.0
O588 O 0.32725 0.7497 0.93782 0.0
C589 C 0.09508 0.75041 0.93091 0.0
O590 O 0.11869 0.74767 0.93884 0.0
O591 O 0.21497 0.72331 0.92813 0.0
C592 C 0.48316 0.75861 0.92192 0.0
O593 O 0.46211 0.76095 0.91378 0.0
O594 O 0.4492 0.75785 0.92863 0.0
O595 O 0.3429 0.752 0.91483 0.0
O596 O 0.249 0.74918 0.91289 0.0
O597 O 0.34734 0.78401 0.92713 0.0
C598 C 0.27862 0.75339 0.94098 0.0
C599 C 0.29981 0.74937 0.9098 0.0
Zn600 Zn 0.55456 0.74012 0.80455 0.0
Zn601 Zn 0.39298 0.76095 0.80505 0.0
C602 C 0.56233 0.70781 0.81046 0.0
O603 O 0.57325 0.71458 0.81828 0.0
C604 C 0.38106 0.79334 0.80227 0.0
O605 O 0.35636 0.78709 0.79512 0.0
O606 O 0.63718 0.74673 0.80306 0.0
O607 O 0.50357 0.74881 0.79415 0.0
O608 O 0.41699 0.75932 0.79211 0.0
C609 C 0.67407 0.73666 0.80044 0.0
O610 O 0.65715 0.72247 0.79796 0.0
O611 O 0.55096 0.71643 0.80364 0.0
C612 C 0.27515 0.76298 0.80991 0.0
O613 O 0.29235 0.77655 0.81329 0.0
O614 O 0.31123 0.75362 0.80635 0.0
O615 O 0.45054 0.74749 0.81062 0.0
O616 O 0.53097 0.74564 0.81742 0.0
O617 O 0.40187 0.78412 0.80825 0.0
C618 C 0.46497 0.75466 0.78898 0.0
C619 C 0.47831 0.74871 0.8179 0.0
Zn620 Zn 0.20374 0.0167 0.8053 0.0
Zn621 Zn 0.36106 0.99554 0.80465 0.0
C622 C 0.18552 0.04875 0.81144 0.0
O623 O 0.16615 0.04135 0.81864 0.0
C624 C 0.36392 0.96276 0.80205 0.0
O625 O 0.38028 0.96838 0.79417 0.0
O626 O 0.12027 0.0108 0.8047 0.0
O627 O 0.24332 0.00883 0.79388 0.0
O628 O 0.32884 0.99763 0.79214 0.0
C629 C 0.08595 0.01879 0.79983 0.0
O630 O 0.10614 0.03042 0.79484 0.0
O631 O 0.20656 0.04063 0.80501 0.0
C632 C 0.48095 0.99325 0.80908 0.0
O633 O 0.46226 0.98247 0.81478 0.0
O634 O 0.44523 1.00064 0.80415 0.0
O635 O 0.32116 0.01124 0.81248 0.0
O636 O 0.23384 0.00829 0.8172 0.0
O637 O 0.35161 0.97248 0.80835 0.0
C638 C 0.28196 1.00275 0.78888 0.0
C639 C 0.28699 0.00671 0.81859 0.0
H640 H 0.82203 0.44226 0.06396 0.0
H641 H 0.80687 0.41368 0.06248 0.0
H642 H 0.97243 0.4088 0.05002 0.0
H643 H 0.9879 0.43753 0.05136 0.0
H644 H 0.8241 0.3936 0.04404 0.0
H645 H 0.95656 0.37832 0.0742 0.0
H646 H 0.92234 0.39741 0.07308 0.0
H647 H 0.98316 0.39273 0.06622 0.0
C648 C 0.85536 0.43514 0.06091 0.0
C649 C 0.90636 0.44217 0.05781 0.0
C650 C 0.84641 0.41882 0.06003 0.0
C651 C 0.88846 0.40918 0.05613 0.0
C652 C 0.93943 0.41609 0.05302 0.0
H653 H 0.92573 0.30733 0.05668 0.0
H654 H 0.93885 0.33584 0.05497 0.0
C655 C 0.94821 0.43248 0.05381 0.0
C656 C 0.87952 0.39182 0.05563 0.0
H657 H 0.91281 0.35734 0.06643 0.0
C658 C 0.84357 0.38559 0.04889 0.0
C659 C 0.90511 0.3815 0.06196 0.0
C660 C 0.94388 0.38772 0.06932 0.0
C661 C 0.83307 0.36919 0.04826 0.0
C662 C 0.8578 0.35882 0.05473 0.0
C663 C 0.89375 0.36519 0.06146 0.0
C664 C 0.84842 0.34131 0.05466 0.0
C665 C 0.79683 0.36317 0.04054 0.0
C666 C 0.79309 0.33467 0.05485 0.0
C667 C 0.78553 0.3182 0.05561 0.0
C668 C 0.83315 0.30818 0.05648 0.0
C669 C 0.88822 0.3148 0.05613 0.0
C670 C 0.89576 0.33112 0.05515 0.0
H671 H 0.7968 0.37161 0.03475 0.0
H672 H 0.81209 0.35147 0.03809 0.0
H673 H 0.75201 0.36185 0.04288 0.0
H674 H 0.75575 0.34223 0.05472 0.0
H675 H 0.74262 0.31338 0.05592 0.0
H676 H 0.45994 0.94017 0.04581 0.0
H677 H 0.43662 0.91196 0.04411 0.0
H678 H 0.38021 0.91038 0.07189 0.0
H679 H 0.40261 0.93849 0.07362 0.0
H680 H 0.47354 0.88475 0.05352 0.0
H681 H 0.24092 0.89407 0.05778 0.0
H682 H 0.29004 0.91011 0.05551 0.0
H683 H 0.28195 0.90257 0.06684 0.0
C684 C 0.44292 0.93378 0.05157 0.0
C685 C 0.43257 0.94163 0.05983 0.0
C686 C 0.42956 0.91767 0.05058 0.0
C687 C 0.40545 0.90917 0.05781 0.0
C688 C 0.39742 0.91681 0.06615 0.0
H689 H 0.31964 0.81553 0.07403 0.0
H690 H 0.34137 0.84375 0.07213 0.0
C691 C 0.41059 0.93288 0.06714 0.0
C692 C 0.38805 0.89234 0.05671 0.0
H693 H 0.27431 0.86735 0.05952 0.0
C694 C 0.42986 0.88095 0.0547 0.0
C695 C 0.33082 0.88743 0.05811 0.0
C696 C 0.28321 0.8992 0.05959 0.0
C697 C 0.41648 0.86468 0.05458 0.0
C698 C 0.36 0.85977 0.05653 0.0
C699 C 0.31773 0.87118 0.05814 0.0
C700 C 0.34483 0.8428 0.05751 0.0
C701 C 0.46303 0.85277 0.05273 0.0
C702 C 0.33851 0.83303 0.04989 0.0
C703 C 0.32542 0.81692 0.05095 0.0
C704 C 0.31896 0.8103 0.05965 0.0
C705 C 0.32447 0.82023 0.06724 0.0
C706 C 0.33691 0.83635 0.06617 0.0
H707 H 0.50563 0.85845 0.05195 0.0
H708 H 0.46516 0.84398 0.05832 0.0
H709 H 0.45293 0.8462 0.04641 0.0
H710 H 0.34417 0.83784 0.04315 0.0
H711 H 0.32181 0.80958 0.04495 0.0
H712 H 0.75217 0.94391 0.17591 0.0
H713 H 0.76225 0.91496 0.17714 0.0
H714 H 0.94146 0.9189 0.17076 0.0
H715 H 0.93186 0.94764 0.16938 0.0
H716 H 0.82406 0.89526 0.16085 0.0
H717 H 0.91412 0.89015 0.19566 0.0
H718 H 0.86633 0.90604 0.19245 0.0
H719 H 0.93871 0.90607 0.18849 0.0
C720 C 0.79371 0.9386 0.17479 0.0
C721 C 0.84111 0.94804 0.17247 0.0
C722 C 0.79939 0.92211 0.17553 0.0
C723 C 0.8527 0.91491 0.17411 0.0
C724 C 0.90012 0.92431 0.17193 0.0
H725 H 0.99591 0.82022 0.17497 0.0
H726 H 0.97833 0.84887 0.17602 0.0
C727 C 0.89438 0.94071 0.17109 0.0
C728 C 0.85866 0.89749 0.17428 0.0
H729 H 0.91194 0.86684 0.18679 0.0
C730 C 0.8427 0.88897 0.16654 0.0
C731 C 0.8839 0.88949 0.18166 0.0
C732 C 0.9017 0.89831 0.19009 0.0
C733 C 0.85251 0.87261 0.16589 0.0
C734 C 0.87735 0.86448 0.17332 0.0
C735 C 0.89283 0.87304 0.18111 0.0
C736 C 0.88779 0.84712 0.17308 0.0
C737 C 0.83813 0.86436 0.1571 0.0
C738 C 0.84265 0.83661 0.17128 0.0
C739 C 0.85285 0.82039 0.17047 0.0
C740 C 0.90814 0.81425 0.1717 0.0
C741 C 0.95298 0.82466 0.17391 0.0
C742 C 0.94292 0.84099 0.17455 0.0
H743 H 0.83643 0.87285 0.15135 0.0
H744 H 0.86989 0.85502 0.15549 0.0
H745 H 0.79537 0.85874 0.15769 0.0
H746 H 0.79944 0.84097 0.17044 0.0
H747 H 0.81716 0.81262 0.16897 0.0
H748 H 0.25866 0.43693 0.16121 0.0
H749 H 0.28906 0.40938 0.16273 0.0
H750 H 0.37458 0.42066 0.1878 0.0
H751 H 0.3437 0.44828 0.18641 0.0
H752 H 0.40453 0.39993 0.16345 0.0
H753 H 0.28419 0.38019 0.19397 0.0
H754 H 0.26513 0.39781 0.18771 0.0
H755 H 0.32567 0.39802 0.1952 0.0
C756 C 0.28318 0.43353 0.16712 0.0
C757 C 0.29888 0.44481 0.17367 0.0
C758 C 0.30061 0.41779 0.16797 0.0
C759 C 0.33387 0.41301 0.17538 0.0
C760 C 0.34824 0.42409 0.18209 0.0
H761 H 0.46556 0.31752 0.18611 0.0
H762 H 0.4519 0.34629 0.18695 0.0
C763 C 0.33065 0.43987 0.18127 0.0
C764 C 0.35619 0.39663 0.17573 0.0
H765 H 0.34694 0.36175 0.18734 0.0
C766 C 0.39217 0.39159 0.1687 0.0
C767 C 0.34061 0.38588 0.18265 0.0
C768 C 0.30146 0.39065 0.19029 0.0
C769 C 0.41187 0.37593 0.16827 0.0
C770 C 0.39427 0.36501 0.17497 0.0
C771 C 0.36021 0.37019 0.18221 0.0
C772 C 0.40655 0.3479 0.1742 0.0
C773 C 0.45101 0.3712 0.16061 0.0
C774 C 0.38543 0.33936 0.16678 0.0
C775 C 0.39307 0.32301 0.16628 0.0
C776 C 0.42157 0.31488 0.17325 0.0
C777 C 0.44335 0.32347 0.18065 0.0
C778 C 0.43566 0.33988 0.18113 0.0
H779 H 0.4747 0.38159 0.15789 0.0
H780 H 0.48234 0.36211 0.16283 0.0
H781 H 0.42507 0.36615 0.15502 0.0
H782 H 0.36176 0.34529 0.16145 0.0
H783 H 0.37575 0.31673 0.1605 0.0
H784 H 0.13196 0.56227 0.93553 0.0
H785 H 0.1635 0.58992 0.93667 0.0
H786 H 0.02554 0.60427 0.91911 0.0
H787 H 0.99352 0.57677 0.91795 0.0
H788 H 0.19573 0.61053 0.92188 0.0
H789 H 0.01144 0.63378 0.94141 0.0
H790 H 0.02812 0.6129 0.94081 0.0
H791 H 0.99171 0.62248 0.93159 0.0
C792 C 0.10793 0.57133 0.93199 0.0
C793 C 0.05992 0.56733 0.9267 0.0
C794 C 0.12618 0.5871 0.93262 0.0
C795 C 0.09643 0.59912 0.92806 0.0
C796 C 0.04848 0.59518 0.92281 0.0
H797 H 0.12903 0.69437 0.91167 0.0
H798 H 0.11311 0.66608 0.91395 0.0
C799 C 0.03032 0.57944 0.92214 0.0
C800 C 0.11609 0.61579 0.92855 0.0
H801 H 0.07178 0.65299 0.93429 0.0
C802 C 0.16916 0.6198 0.92473 0.0
C803 C 0.08135 0.62781 0.9323 0.0
C804 C 0.02519 0.62406 0.93684 0.0
C805 C 0.18704 0.63569 0.92418 0.0
C806 C 0.15111 0.64772 0.92758 0.0
C807 C 0.09915 0.64367 0.9317 0.0
C808 C 0.16404 0.66467 0.92614 0.0
C809 C 0.243 0.63967 0.91965 0.0
C810 C 0.19818 0.67318 0.93226 0.0
C811 C 0.20732 0.68947 0.93101 0.0
C812 C 0.18243 0.6974 0.9236 0.0
C813 C 0.14896 0.68868 0.91744 0.0
C814 C 0.13974 0.67249 0.91872 0.0
H815 H 0.26686 0.6289 0.91755 0.0
H816 H 0.23485 0.64711 0.91358 0.0
H817 H 0.27013 0.6467 0.92434 0.0
H818 H 0.21707 0.66727 0.93805 0.0
H819 H 0.23333 0.69585 0.93586 0.0
H820 H 0.67725 0.19861 0.93688 0.0
H821 H 0.65293 0.17046 0.93876 0.0
H822 H 0.69728 0.16182 0.91087 0.0
H823 H 0.7206 0.18991 0.90888 0.0
H824 H 0.56641 0.15329 0.92616 0.0
H825 H 0.78474 0.12756 0.92759 0.0
H826 H 0.76946 0.14779 0.93081 0.0
H827 H 0.77348 0.14249 0.91905 0.0
C828 C 0.68261 0.19066 0.93119 0.0
C829 C 0.70091 0.19645 0.92272 0.0
C830 C 0.66842 0.17463 0.93226 0.0
C831 C 0.67351 0.16412 0.92496 0.0
C832 C 0.69337 0.16977 0.9166 0.0
H833 H 0.62028 0.06971 0.90756 0.0
H834 H 0.64144 0.09774 0.91001 0.0
C835 C 0.70663 0.1858 0.91547 0.0
C836 C 0.65581 0.14733 0.92582 0.0
H837 H 0.70821 0.10968 0.92465 0.0
C838 C 0.59724 0.1437 0.92598 0.0
C839 C 0.69627 0.13494 0.92562 0.0
C840 C 0.7596 0.1383 0.92583 0.0
C841 C 0.57803 0.12792 0.92542 0.0
C842 C 0.61861 0.11554 0.92478 0.0
C843 C 0.67718 0.1192 0.92505 0.0
C844 C 0.60167 0.09882 0.92321 0.0
C845 C 0.51464 0.12464 0.92507 0.0
C846 C 0.57163 0.09016 0.92979 0.0
C847 C 0.55921 0.07409 0.92839 0.0
C848 C 0.57702 0.06639 0.92042 0.0
C849 C 0.60602 0.07523 0.91378 0.0
C850 C 0.61826 0.09126 0.91517 0.0
H851 H 0.48929 0.13565 0.92412 0.0
H852 H 0.50451 0.11631 0.91947 0.0
H853 H 0.50104 0.119 0.93151 0.0
H854 H 0.55912 0.09571 0.93609 0.0
H855 H 0.53711 0.06761 0.93367 0.0
H856 H 0.04796 0.19077 0.82289 0.0
H857 H 0.06952 0.16262 0.82097 0.0
H858 H 0.08804 0.16956 0.79219 0.0
H859 H 0.06611 0.19784 0.79404 0.0
H860 H 0.01262 0.13915 0.80888 0.0
H861 H 0.2434 0.14926 0.80139 0.0
H862 H 0.19991 0.16416 0.80682 0.0
H863 H 0.19111 0.16021 0.79498 0.0
C864 C 0.05608 0.18631 0.81613 0.0
C865 C 0.05547 0.19655 0.80863 0.0
C866 C 0.0684 0.17022 0.81505 0.0
C867 C 0.08107 0.16408 0.80646 0.0
C868 C 0.07896 0.17413 0.79889 0.0
H869 H 0.2026 0.06693 0.79625 0.0
H870 H 0.17744 0.09489 0.79412 0.0
C871 C 0.06601 0.19025 0.79996 0.0
C872 C 0.09745 0.14718 0.8056 0.0
H873 H 0.21291 0.12282 0.80296 0.0
C874 C 0.05626 0.13555 0.8075 0.0
C875 C 0.1543 0.14254 0.8037 0.0
C876 C 0.20007 0.15463 0.80164 0.0
C877 C 0.07073 0.11942 0.80781 0.0
C878 C 0.12827 0.11484 0.80643 0.0
C879 C 0.16899 0.12639 0.80411 0.0
C880 C 0.14711 0.09821 0.80782 0.0
C881 C 0.02426 0.10742 0.80965 0.0
C882 C 0.14022 0.09097 0.81631 0.0
C883 C 0.15441 0.07503 0.81756 0.0
C884 C 0.17633 0.06603 0.81035 0.0
C885 C 0.18569 0.07352 0.80195 0.0
C886 C 0.17126 0.08948 0.8007 0.0
H887 H 0.98139 0.11213 0.80785 0.0
H888 H 0.03164 0.0963 0.8058 0.0
H889 H 0.02396 0.10451 0.81698 0.0
H890 H 0.123 0.09761 0.82196 0.0
H891 H 0.14719 0.0697 0.82413 0.0
H892 H 0.58015 0.68577 0.82369 0.0
H893 H 0.60138 0.65761 0.82169 0.0
H894 H 0.58432 0.66272 0.79276 0.0
H895 H 0.56311 0.69093 0.79466 0.0
H896 H 0.53221 0.63362 0.81229 0.0
H897 H 0.74727 0.64319 0.79699 0.0
H898 H 0.71102 0.65842 0.80337 0.0
H899 H 0.68791 0.65373 0.7921 0.0
C900 C 0.58057 0.6809 0.8169 0.0
C901 C 0.57023 0.69058 0.80933 0.0
C902 C 0.59272 0.66483 0.81578 0.0
C903 C 0.59518 0.65821 0.80708 0.0
C904 C 0.58339 0.66771 0.79952 0.0
H905 H 0.69436 0.56027 0.79381 0.0
H906 H 0.66824 0.58835 0.7922 0.0
C907 C 0.57091 0.68378 0.80063 0.0
C908 C 0.61035 0.64135 0.80599 0.0
H909 H 0.7182 0.61674 0.79933 0.0
C910 C 0.57264 0.62989 0.80939 0.0
C911 C 0.6629 0.63661 0.80212 0.0
C912 C 0.70498 0.64858 0.79847 0.0
C913 C 0.58666 0.61376 0.80922 0.0
C914 C 0.64041 0.60904 0.80576 0.0
C915 C 0.6772 0.62044 0.80202 0.0
C916 C 0.66045 0.59248 0.80661 0.0
C917 C 0.54392 0.60191 0.81282 0.0
C918 C 0.66672 0.58575 0.81523 0.0
C919 C 0.68139 0.56983 0.81617 0.0
C920 C 0.69074 0.56034 0.8085 0.0
C921 C 0.68741 0.5673 0.79985 0.0
C922 C 0.67235 0.58329 0.79891 0.0
H923 H 0.49969 0.6067 0.81262 0.0
H924 H 0.54516 0.5907 0.80889 0.0
H925 H 0.55437 0.59916 0.81998 0.0
H926 H 0.65913 0.59277 0.82125 0.0
H927 H 0.68428 0.56489 0.82293 0.0
H928 H 0.91817 0.93985 0.57537 0.0
H929 H 0.89377 0.91189 0.57336 0.0
H930 H 0.92484 0.91598 0.54467 0.0
H931 H 0.95034 0.94391 0.54663 0.0
H932 H 0.80369 0.90091 0.56258 0.0
H933 H 0.01124 0.87542 0.55133 0.0
H934 H 0.00633 0.89461 0.55668 0.0
H935 H 0.98581 0.89224 0.54504 0.0
C936 C 0.92064 0.93476 0.56865 0.0
C937 C 0.93613 0.94411 0.56117 0.0
C938 C 0.90657 0.91879 0.56751 0.0
C939 C 0.90777 0.91185 0.55888 0.0
C940 C 0.92455 0.92103 0.55141 0.0
H941 H 0.81528 0.81364 0.54515 0.0
H942 H 0.83568 0.84202 0.54362 0.0
C943 C 0.93893 0.93701 0.55255 0.0
C944 C 0.88805 0.89527 0.55771 0.0
H945 H 0.93239 0.85799 0.55209 0.0
C946 C 0.83179 0.89153 0.56025 0.0
C947 C 0.9245 0.88312 0.55453 0.0
C948 C 0.98548 0.88645 0.55179 0.0
C949 C 0.81149 0.8759 0.55997 0.0
C950 C 0.84869 0.86366 0.55719 0.0
C951 C 0.90413 0.86744 0.55426 0.0
C952 C 0.83237 0.84676 0.558 0.0
C953 C 0.75054 0.87255 0.56271 0.0
C954 C 0.82352 0.84008 0.56659 0.0
C955 C 0.81221 0.8239 0.5675 0.0
C956 C 0.80942 0.81408 0.55983 0.0
C957 C 0.81686 0.82089 0.5512 0.0
C958 C 0.82871 0.83708 0.5503 0.0
H959 H 0.72357 0.88336 0.56228 0.0
H960 H 0.73143 0.86318 0.55837 0.0
H961 H 0.74985 0.86831 0.56982 0.0
H962 H 0.8269 0.84734 0.57262 0.0
H963 H 0.80678 0.81903 0.57424 0.0
H964 H 0.2854 0.31353 0.54359 0.0
H965 H 0.30521 0.34196 0.54151 0.0
H966 H 0.38997 0.34327 0.56742 0.0
H967 H 0.37045 0.31514 0.56959 0.0
H968 H 0.2777 0.3693 0.55428 0.0
H969 H 0.50926 0.35985 0.54803 0.0
H970 H 0.45657 0.34437 0.54656 0.0
H971 H 0.48087 0.34957 0.55771 0.0
C972 C 0.30795 0.31991 0.54886 0.0
C973 C 0.32669 0.31202 0.55673 0.0
C974 C 0.31919 0.33613 0.54766 0.0
C975 C 0.34971 0.34462 0.55426 0.0
C976 C 0.36701 0.33687 0.5622 0.0
H977 H 0.46567 0.43565 0.5697 0.0
H978 H 0.44009 0.40779 0.56753 0.0
C979 C 0.35564 0.32077 0.56342 0.0
C980 C 0.36487 0.36153 0.55293 0.0
H981 H 0.48018 0.38629 0.5514 0.0
C982 C 0.32178 0.37305 0.55347 0.0
C983 C 0.42245 0.36634 0.55189 0.0
C984 C 0.47005 0.35441 0.55093 0.0
C985 C 0.33526 0.38932 0.55344 0.0
C986 C 0.39309 0.39408 0.55278 0.0
C987 C 0.43589 0.38257 0.5519 0.0
C988 C 0.41037 0.41089 0.55378 0.0
C989 C 0.28812 0.40134 0.55454 0.0
C990 C 0.40314 0.42177 0.54668 0.0
C991 C 0.41842 0.43772 0.54785 0.0
C992 C 0.44055 0.44302 0.55619 0.0
C993 C 0.44857 0.43197 0.56321 0.0
C994 C 0.43397 0.41605 0.56199 0.0
H995 H 0.24563 0.39568 0.5555 0.0
H996 H 0.29724 0.40906 0.56046 0.0
H997 H 0.28632 0.40905 0.54845 0.0
H998 H 0.3852 0.41795 0.54027 0.0
H999 H 0.41139 0.44597 0.54234 0.0
H1000 H 0.91826 0.31701 0.65665 0.0
H1001 H 0.89431 0.34504 0.6583 0.0
H1002 H 0.92145 0.34178 0.68713 0.0
H1003 H 0.94647 0.31375 0.68553 0.0
H1004 H 0.80377 0.35684 0.66849 0.0
H1005 H 0.01073 0.38183 0.68046 0.0
H1006 H 0.00545 0.36248 0.6753 0.0
H1007 H 0.98345 0.36532 0.68683 0.0
C1008 C 0.91989 0.32228 0.66333 0.0
C1009 C 0.93426 0.31313 0.67095 0.0
C1010 C 0.90608 0.33831 0.66426 0.0
C1011 C 0.90643 0.34554 0.67282 0.0
C1012 C 0.92186 0.33653 0.68044 0.0
H1013 H 0.8139 0.44386 0.68619 0.0
H1014 H 0.83508 0.4155 0.68762 0.0
C1015 C 0.93595 0.32049 0.67951 0.0
C1016 C 0.88749 0.36225 0.67374 0.0
H1017 H 0.93266 0.39948 0.67944 0.0
C1018 C 0.83194 0.36615 0.6709 0.0
C1019 C 0.92401 0.37435 0.67702 0.0
C1020 C 0.9844 0.37088 0.68002 0.0
C1021 C 0.81235 0.38186 0.67105 0.0
C1022 C 0.84955 0.39403 0.67399 0.0
C1023 C 0.90435 0.3901 0.67716 0.0
C1024 C 0.83373 0.411 0.67321 0.0
C1025 C 0.75204 0.38535 0.66803 0.0
C1026 C 0.82589 0.41783 0.66463 0.0
C1027 C 0.81414 0.434 0.66378 0.0
C1028 C 0.80981 0.44368 0.6715 0.0
C1029 C 0.81658 0.43673 0.68011 0.0
C1030 C 0.82891 0.42055 0.68095 0.0
H1031 H 0.7246 0.37459 0.66831 0.0
H1032 H 0.73249 0.39473 0.67229 0.0
H1033 H 0.75278 0.38963 0.66092 0.0
H1034 H 0.83015 0.41069 0.65857 0.0
H1035 H 0.80929 0.43896 0.65705 0.0
H1036 H 0.47757 0.81084 0.68508 0.0
H1037 H 0.4553 0.83904 0.68733 0.0
H1038 H 0.37881 0.8409 0.66078 0.0
H1039 H 0.40063 0.81294 0.65847 0.0
H1040 H 0.4846 0.86689 0.67615 0.0
H1041 H 0.25127 0.85615 0.67856 0.0
H1042 H 0.3036 0.84066 0.68015 0.0
H1043 H 0.28395 0.84687 0.66892 0.0
C1044 C 0.4565 0.8173 0.67969 0.0
C1045 C 0.44049 0.80958 0.67162 0.0
C1046 C 0.44373 0.83339 0.681 0.0
C1047 C 0.41446 0.84194 0.67429 0.0
C1048 C 0.40046 0.83442 0.66611 0.0
H1049 H 0.30258 0.93295 0.65828 0.0
H1050 H 0.3283 0.90508 0.66052 0.0
C1051 C 0.41325 0.81843 0.66479 0.0
C1052 C 0.39746 0.85868 0.67572 0.0
H1053 H 0.28041 0.88287 0.67551 0.0
C1054 C 0.44001 0.87041 0.67618 0.0
C1055 C 0.33922 0.8632 0.67584 0.0
C1056 C 0.29179 0.85106 0.67593 0.0
C1057 C 0.42569 0.8866 0.67621 0.0
C1058 C 0.36751 0.89107 0.67577 0.0
C1059 C 0.32499 0.87936 0.67575 0.0
C1060 C 0.35015 0.90782 0.67466 0.0
C1061 C 0.47265 0.89887 0.67627 0.0
C1062 C 0.35297 0.91846 0.68194 0.0
C1063 C 0.33779 0.93436 0.68071 0.0
C1064 C 0.31995 0.93989 0.67216 0.0
C1065 C 0.3163 0.92909 0.66493 0.0
C1066 C 0.33096 0.91318 0.6662 0.0
H1067 H 0.51586 0.89345 0.67593 0.0
H1068 H 0.46737 0.90708 0.67045 0.0
H1069 H 0.46976 0.90602 0.68256 0.0
H1070 H 0.36733 0.91448 0.68854 0.0
H1071 H 0.34127 0.94238 0.68641 0.0
H1072 H 0.07201 0.06011 0.43765 0.0
H1073 H 0.09558 0.08817 0.44014 0.0
H1074 H 0.07624 0.0972 0.41157 0.0
H1075 H 0.0532 0.06929 0.40901 0.0
H1076 H 0.19003 0.10559 0.43126 0.0
H1077 H 0.97696 0.13169 0.42439 0.0
H1078 H 0.98661 0.11113 0.42747 0.0
H1079 H 0.99973 0.11755 0.41605 0.0
C1080 C 0.07194 0.06813 0.43192 0.0
C1081 C 0.06054 0.06248 0.42312 0.0
C1082 C 0.08575 0.08413 0.43335 0.0
C1083 C 0.0873 0.09478 0.42605 0.0
C1084 C 0.0747 0.08922 0.41731 0.0
H1085 H 0.17071 0.18762 0.40939 0.0
H1086 H 0.14671 0.15979 0.41169 0.0
C1087 C 0.06163 0.07325 0.41586 0.0
C1088 C 0.10406 0.11162 0.42736 0.0
H1089 H 0.05685 0.14934 0.42363 0.0
C1090 C 0.16077 0.1152 0.42976 0.0
C1091 C 0.06571 0.12411 0.42544 0.0
C1092 C 0.00368 0.12099 0.42327 0.0
C1093 C 0.18094 0.13095 0.42975 0.0
C1094 C 0.1432 0.14336 0.42736 0.0
C1095 C 0.08586 0.13979 0.42539 0.0
C1096 C 0.16288 0.15998 0.42611 0.0
C1097 C 0.24304 0.13416 0.43181 0.0
C1098 C 0.18085 0.16934 0.43345 0.0
C1099 C 0.19476 0.18539 0.43216 0.0
C1100 C 0.19061 0.19232 0.4235 0.0
C1101 C 0.17416 0.18273 0.41615 0.0
C1102 C 0.16035 0.16679 0.41745 0.0
H1103 H 0.26837 0.12306 0.43235 0.0
H1104 H 0.26213 0.14177 0.42647 0.0
H1105 H 0.24644 0.14062 0.43833 0.0
H1106 H 0.18251 0.16437 0.44021 0.0
H1107 H 0.20709 0.19245 0.43796 0.0
H1108 H 0.74989 0.68728 0.4252 0.0
H1109 H 0.73536 0.65862 0.42715 0.0
H1110 H 0.5542 0.66479 0.4229 0.0
H1111 H 0.56877 0.69309 0.42052 0.0
H1112 H 0.67452 0.64124 0.43903 0.0
H1113 H 0.58736 0.63136 0.40459 0.0
H1114 H 0.62071 0.64978 0.40784 0.0
H1115 H 0.54718 0.64587 0.41073 0.0
C1116 C 0.70712 0.68245 0.42461 0.0
C1117 C 0.66063 0.69234 0.42253 0.0
C1118 C 0.69881 0.66611 0.42576 0.0
C1119 C 0.64382 0.6595 0.42496 0.0
C1120 C 0.59723 0.66951 0.42324 0.0
H1121 H 0.512 0.56357 0.43414 0.0
H1122 H 0.52711 0.59243 0.4352 0.0
C1123 C 0.60564 0.68571 0.4219 0.0
C1124 C 0.63482 0.64214 0.42585 0.0
H1125 H 0.57743 0.61005 0.41502 0.0
C1126 C 0.65338 0.63443 0.43377 0.0
C1127 C 0.60764 0.6332 0.41895 0.0
C1128 C 0.59014 0.64044 0.41002 0.0
C1129 C 0.64478 0.61807 0.435 0.0
C1130 C 0.61652 0.60933 0.42819 0.0
C1131 C 0.59813 0.61695 0.42029 0.0
C1132 C 0.60998 0.59195 0.42871 0.0
C1133 C 0.66647 0.61008 0.44346 0.0
C1134 C 0.6518 0.5823 0.4248 0.0
C1135 C 0.64307 0.566 0.42409 0.0
C1136 C 0.59239 0.55903 0.42733 0.0
C1137 C 0.55145 0.56864 0.43161 0.0
C1138 C 0.56002 0.58506 0.43223 0.0
H1139 H 0.68536 0.61866 0.44833 0.0
H1140 H 0.63097 0.60362 0.44683 0.0
H1141 H 0.69949 0.6012 0.44162 0.0
H1142 H 0.69046 0.58747 0.42203 0.0
H1143 H 0.6757 0.55888 0.42086 0.0
H1144 H 0.15705 0.56022 0.29591 0.0
H1145 H 0.13166 0.58821 0.2941 0.0
H1146 H 0.20584 0.59858 0.32017 0.0
H1147 H 0.23122 0.57065 0.32207 0.0
H1148 H 0.05992 0.60621 0.30627 0.0
H1149 H 0.27679 0.63202 0.3027 0.0
H1150 H 0.26184 0.61127 0.30079 0.0
H1151 H 0.26986 0.61868 0.31213 0.0
C1152 C 0.16855 0.56848 0.30122 0.0
C1153 C 0.19621 0.5632 0.30915 0.0
C1154 C 0.15384 0.58445 0.30018 0.0
C1155 C 0.1673 0.59546 0.30697 0.0
C1156 C 0.19575 0.59029 0.3148 0.0
H1157 H 0.1119 0.69028 0.32362 0.0
H1158 H 0.13193 0.66209 0.32159 0.0
C1159 C 0.21002 0.57431 0.31589 0.0
C1160 C 0.1494 0.61224 0.30613 0.0
H1161 H 0.20162 0.65003 0.30647 0.0
C1162 C 0.09076 0.61582 0.30618 0.0
C1163 C 0.18979 0.62471 0.30592 0.0
C1164 C 0.25311 0.62152 0.30529 0.0
C1165 C 0.07157 0.6316 0.30654 0.0
C1166 C 0.11215 0.64402 0.30682 0.0
C1167 C 0.17065 0.64044 0.30636 0.0
C1168 C 0.0953 0.66077 0.30816 0.0
C1169 C 0.00829 0.63489 0.30705 0.0
C1170 C 0.06733 0.6693 0.30131 0.0
C1171 C 0.05574 0.68547 0.30245 0.0
C1172 C 0.07221 0.69336 0.31044 0.0
C1173 C 0.09876 0.68461 0.31737 0.0
C1174 C 0.11034 0.6685 0.31623 0.0
H1175 H 0.98275 0.62387 0.30787 0.0
H1176 H 0.99892 0.64297 0.31279 0.0
H1177 H 0.99431 0.64089 0.30073 0.0
H1178 H 0.05591 0.66357 0.295 0.0
H1179 H 0.03538 0.69186 0.29696 0.0
H1180 H 0.62584 0.05802 0.30035 0.0
H1181 H 0.59493 0.08559 0.29903 0.0
H1182 H 0.74261 0.10066 0.31427 0.0
H1183 H 0.77422 0.07311 0.3156 0.0
H1184 H 0.56973 0.10659 0.31332 0.0
H1185 H 0.74489 0.1294 0.29166 0.0
H1186 H 0.72939 0.10851 0.29282 0.0
H1187 H 0.76993 0.11868 0.30139 0.0
C1188 C 0.65204 0.06719 0.30338 0.0
C1189 C 0.70264 0.06337 0.30808 0.0
C1190 C 0.63421 0.08294 0.30261 0.0
C1191 C 0.66685 0.09515 0.30645 0.0
C1192 C 0.71739 0.0914 0.31112 0.0
H1193 H 0.64898 0.19225 0.32008 0.0
H1194 H 0.66494 0.16381 0.31835 0.0
C1195 C 0.73523 0.07565 0.31191 0.0
C1196 C 0.64697 0.11177 0.30594 0.0
H1197 H 0.68858 0.14883 0.2994 0.0
C1198 C 0.59521 0.11581 0.31016 0.0
C1199 C 0.68001 0.12371 0.30172 0.0
C1200 C 0.73386 0.11987 0.29655 0.0
C1201 C 0.57729 0.13167 0.31071 0.0
C1202 C 0.61203 0.14366 0.30693 0.0
C1203 C 0.66243 0.13956 0.30237 0.0
C1204 C 0.59915 0.16063 0.30822 0.0
C1205 C 0.52273 0.13564 0.31564 0.0
C1206 C 0.55644 0.16816 0.30313 0.0
C1207 C 0.54725 0.18447 0.30407 0.0
C1208 C 0.58065 0.19345 0.31014 0.0
C1209 C 0.62245 0.18571 0.31536 0.0
C1210 C 0.63176 0.16947 0.31437 0.0
H1211 H 0.50204 0.12499 0.31862 0.0
H1212 H 0.5317 0.14429 0.32113 0.0
H1213 H 0.49223 0.14131 0.31087 0.0
H1214 H 0.53108 0.16148 0.29831 0.0
H1215 H 0.51474 0.19008 0.29995 0.0
H1216 H 0.13419 0.48588 0.07386 0.0
H1217 H 0.16812 0.48597 0.08951 0.0
H1218 H 0.03563 0.5193 0.09661 0.0
H1219 H 0.999 0.5183 0.08107 0.0
H1220 H 0.20952 0.50649 0.10063 0.0
H1221 H 0.00313 0.48607 0.11477 0.0
H1222 H 0.01621 0.48682 0.10275 0.0
H1223 H 0.99534 0.50443 0.10882 0.0
C1224 C 0.1126 0.49332 0.07876 0.0
C1225 C 0.06363 0.50196 0.07632 0.0
C1226 C 0.13194 0.49334 0.0877 0.0
C1227 C 0.10335 0.50224 0.09432 0.0
C1228 C 0.05692 0.5118 0.09172 0.0
H1229 H 0.13629 0.52125 0.15089 0.0
H1230 H 0.11499 0.5203 0.13472 0.0
C1231 C 0.03645 0.5114 0.08283 0.0
C1232 C 0.12171 0.50133 0.10393 0.0
H1233 H 0.07221 0.49529 0.1254 0.0
C1234 C 0.17957 0.50394 0.10604 0.0
C1235 C 0.08283 0.49769 0.11099 0.0
C1236 C 0.02111 0.49342 0.10921 0.0
C1237 C 0.19911 0.50373 0.11504 0.0
C1238 C 0.15965 0.50081 0.1221 0.0
C1239 C 0.10222 0.49773 0.11997 0.0
C1240 C 0.17584 0.50169 0.13178 0.0
C1241 C 0.2614 0.50708 0.11691 0.0
C1242 C 0.21745 0.49159 0.13549 0.0
C1243 C 0.23051 0.49232 0.14473 0.0
C1244 C 0.20109 0.5029 0.15041 0.0
C1245 C 0.15948 0.51294 0.14667 0.0
C1246 C 0.14724 0.51241 0.13744 0.0
H1247 H 0.28295 0.51264 0.111 0.0
H1248 H 0.26641 0.515 0.12286 0.0
H1249 H 0.2836 0.49576 0.11841 0.0
H1250 H 0.23897 0.48294 0.13129 0.0
H1251 H 0.26223 0.4843 0.14748 0.0
H1252 H 0.26883 0.73925 0.08195 0.0
H1253 H 0.24141 0.73698 0.09792 0.0
H1254 H 0.10095 0.7691 0.09334 0.0
H1255 H 0.12686 0.77108 0.0774 0.0
H1256 H 0.23321 0.76026 0.11097 0.0
H1257 H 0.02161 0.73219 0.10548 0.0
H1258 H 0.07452 0.73366 0.09662 0.0
H1259 H 0.03021 0.75041 0.09937 0.0
C1260 C 0.23199 0.74577 0.08435 0.0
C1261 C 0.19975 0.75524 0.07841 0.0
C1262 C 0.21639 0.74446 0.09346 0.0
C1263 C 0.16846 0.75262 0.09676 0.0
C1264 C 0.13708 0.76235 0.09088 0.0
H1265 H 0.99307 0.76842 0.14679 0.0
H1266 H 0.02687 0.7667 0.13117 0.0
C1267 C 0.1522 0.76353 0.08178 0.0
C1268 C 0.15189 0.75135 0.1064 0.0
H1269 H 0.0398 0.74239 0.12025 0.0
C1270 C 0.19117 0.7562 0.11304 0.0
C1271 C 0.09697 0.74607 0.10904 0.0
C1272 C 0.05359 0.74015 0.10226 0.0
C1273 C 0.17618 0.75656 0.12224 0.0
C1274 C 0.12081 0.75153 0.12486 0.0
C1275 C 0.08214 0.74629 0.11823 0.0
C1276 C 0.10083 0.75231 0.13438 0.0
C1277 C 0.21901 0.76296 0.12897 0.0
C1278 C 0.13071 0.74461 0.14137 0.0
C1279 C 0.11205 0.74587 0.15033 0.0
C1280 C 0.06232 0.75443 0.15237 0.0
C1281 C 0.03132 0.76164 0.14536 0.0
C1282 C 0.05068 0.76069 0.13645 0.0
H1283 H 0.25245 0.77026 0.12561 0.0
H1284 H 0.19779 0.7703 0.13422 0.0
H1285 H 0.24072 0.7529 0.13238 0.0
H1286 H 0.16842 0.73764 0.13991 0.0
H1287 H 0.13613 0.74007 0.15565 0.0
H1288 H 0.74812 0.52419 0.83369 0.0
H1289 H 0.77153 0.52554 0.84991 0.0
H1290 H 0.87306 0.48309 0.84737 0.0
H1291 H 0.85222 0.48216 0.83118 0.0
H1292 H 0.75655 0.50577 0.86428 0.0
H1293 H 0.98809 0.51338 0.85765 0.0
H1294 H 0.93525 0.51472 0.84878 0.0
H1295 H 0.96046 0.49566 0.85258 0.0
C1296 C 0.77512 0.51512 0.83665 0.0
C1297 C 0.79906 0.50319 0.83122 0.0
C1298 C 0.78847 0.5159 0.84588 0.0
C1299 C 0.82526 0.50464 0.84978 0.0
C1300 C 0.8462 0.49219 0.84444 0.0
H1301 H 0.93783 0.48232 0.904 0.0
H1302 H 0.89415 0.48168 0.88882 0.0
C1303 C 0.83399 0.49162 0.83521 0.0
C1304 C 0.84329 0.50601 0.85935 0.0
H1305 H 0.96171 0.50733 0.87286 0.0
C1306 C 0.80136 0.5062 0.86616 0.0
C1307 C 0.90185 0.50682 0.86178 0.0
C1308 C 0.94893 0.50781 0.8548 0.0
C1309 C 0.81669 0.50662 0.87536 0.0
C1310 C 0.87509 0.50679 0.87772 0.0
C1311 C 0.91692 0.50696 0.87095 0.0
C1312 C 0.89426 0.50718 0.8872 0.0
C1313 C 0.77088 0.50694 0.88253 0.0
C1314 C 0.90846 0.52172 0.8912 0.0
C1315 C 0.93436 0.52206 0.89971 0.0
C1316 C 0.94546 0.50789 0.90435 0.0
C1317 C 0.9291 0.49336 0.90052 0.0
C1318 C 0.90416 0.493 0.89191 0.0
H1319 H 0.72717 0.50652 0.87958 0.0
H1320 H 0.77638 0.49671 0.88718 0.0
H1321 H 0.77527 0.5179 0.88663 0.0
H1322 H 0.90116 0.53273 0.88761 0.0
H1323 H 0.94634 0.53338 0.90263 0.0
H1324 H 0.86508 0.26017 0.82559 0.0
H1325 H 0.83311 0.26178 0.84129 0.0
H1326 H 1.00004 0.2466 0.85031 0.0
H1327 H 0.033 0.24586 0.83455 0.0
H1328 H 0.8244 0.23798 0.85267 0.0
H1329 H 0.97187 0.2827 0.86722 0.0
H1330 H 0.96534 0.27958 0.85517 0.0
H1331 H 0.00922 0.26663 0.86194 0.0
C1332 C 0.89515 0.2575 0.83096 0.0
C1333 C 0.9514 0.253 0.82895 0.0
C1334 C 0.87689 0.25838 0.8399 0.0
C1335 C 0.91437 0.25449 0.84696 0.0
C1336 C 0.97093 0.2501 0.84497 0.0
H1337 H 0.88407 0.23465 0.90327 0.0
H1338 H 0.90877 0.23636 0.88728 0.0
C1339 C 0.98965 0.2496 0.83599 0.0
C1340 C 0.89276 0.25394 0.85633 0.0
H1341 H 0.91869 0.26702 0.87778 0.0
C1342 C 0.8446 0.24447 0.85814 0.0
C1343 C 0.91915 0.26247 0.86344 0.0
C1344 C 0.96888 0.27354 0.86183 0.0
C1345 C 0.82305 0.24297 0.86694 0.0
C1346 C 0.85054 0.25112 0.87405 0.0
C1347 C 0.89805 0.26076 0.87225 0.0
C1348 C 0.83254 0.24925 0.88351 0.0
C1349 C 0.77218 0.23236 0.86864 0.0
C1350 C 0.78111 0.25583 0.88659 0.0
C1351 C 0.76671 0.2549 0.89575 0.0
C1352 C 0.80381 0.24743 0.90192 0.0
C1353 C 0.85463 0.24054 0.89871 0.0
C1354 C 0.8689 0.24149 0.88959 0.0
H1355 H 0.761 0.22512 0.86261 0.0
H1356 H 0.78076 0.22429 0.87443 0.0
H1357 H 0.73464 0.23975 0.87042 0.0
H1358 H 0.75288 0.26198 0.88195 0.0
H1359 H 0.72727 0.2603 0.89803 0.0
H1360 H 0.97136 0.00462 0.5842 0.0
H1361 H 0.997 0.00548 0.60029 0.0
H1362 H 0.17505 1.00047 0.59335 0.0
H1363 H 0.15006 0.99944 0.5773 0.0
H1364 H 0.06508 0.98101 0.61033 0.0
H1365 H 0.16328 0.0411 0.60991 0.0
H1366 H 0.11343 0.03451 0.60134 0.0
H1367 H 0.18609 0.0277 0.60116 0.0
C1368 C 0.01602 0.00377 0.58609 0.0
C1369 C 0.05873 1.00208 0.57945 0.0
C1370 C 0.0305 0.00422 0.59528 0.0
C1371 C 0.08787 0.0032 0.59796 0.0
C1372 C 0.13056 1.00148 0.59138 0.0
H1373 H 0.28163 0.00336 0.64735 0.0
H1374 H 0.24603 0.00473 0.63182 0.0
C1375 C 0.11616 1.0009 0.58221 0.0
C1376 C 0.10336 0.00375 0.60767 0.0
H1377 H 0.17433 0.02605 0.62334 0.0
C1378 C 0.08849 0.9909 0.61322 0.0
C1379 C 0.13416 0.01664 0.61135 0.0
C1380 C 0.14995 0.03086 0.60567 0.0
C1381 C 0.10512 0.9904 0.62236 0.0
C1382 C 0.13617 0.0033 0.62606 0.0
C1383 C 0.15034 0.01622 0.6205 0.0
C1384 C 0.15675 0.00327 0.63556 0.0
C1385 C 0.09122 0.97583 0.62788 0.0
C1386 C 0.11825 1.00246 0.64283 0.0
C1387 C 0.13848 1.00165 0.65174 0.0
C1388 C 0.1976 1.00173 0.65352 0.0
C1389 C 0.23586 0.00321 0.64622 0.0
C1390 C 0.21561 0.00398 0.63734 0.0
H1391 H 0.07952 0.96559 0.62352 0.0
H1392 H 0.12804 0.97238 0.6322 0.0
H1393 H 0.05438 0.97841 0.63236 0.0
H1394 H 0.07258 1.00226 0.64161 0.0
H1395 H 0.10787 1.00058 0.65721 0.0
H1396 H 0.28466 0.25484 0.58377 0.0
H1397 H 0.26092 0.25433 0.59997 0.0
H1398 H 0.08385 0.2631 0.59357 0.0
H1399 H 0.10695 0.26375 0.57749 0.0
H1400 H 0.19977 0.27857 0.61089 0.0
H1401 H 0.08525 0.22091 0.60853 0.0
H1402 H 0.13523 0.22756 0.6 0.0
H1403 H 0.06429 0.23566 0.60039 0.0
C1404 C 0.24081 0.25679 0.58583 0.0
C1405 C 0.19743 0.259 0.57936 0.0
C1406 C 0.22735 0.25646 0.59506 0.0
C1407 C 0.1705 0.25832 0.59788 0.0
C1408 C 0.12773 0.26126 0.59147 0.0
H1409 H 0.97771 0.25509 0.64743 0.0
H1410 H 0.01122 0.25498 0.63175 0.0
C1411 C 0.14103 0.26159 0.58229 0.0
C1412 C 0.15515 0.25706 0.60752 0.0
H1413 H 0.07668 0.23498 0.62234 0.0
C1414 C 0.17333 0.26899 0.61345 0.0
C1415 C 0.12022 0.2446 0.61074 0.0
C1416 C 0.10036 0.23136 0.60461 0.0
C1417 C 0.15596 0.26907 0.62253 0.0
C1418 C 0.12099 0.25657 0.62578 0.0
C1419 C 0.10352 0.24452 0.61984 0.0
C1420 C 0.10109 0.25592 0.63527 0.0
C1421 C 0.17346 0.28285 0.62845 0.0
C1422 C 0.14053 0.25607 0.64242 0.0
C1423 C 0.1215 0.25646 0.65135 0.0
C1424 C 0.06274 0.2562 0.6533 0.0
C1425 C 0.02328 0.25528 0.64614 0.0
C1426 C 0.04236 0.25522 0.63719 0.0
H1427 H 0.18523 0.29341 0.62435 0.0
H1428 H 0.13862 0.28622 0.63317 0.0
H1429 H 0.21146 0.27944 0.6325 0.0
H1430 H 0.18607 0.25612 0.64109 0.0
H1431 H 0.15283 0.25722 0.65672 0.0
H1432 H 0.0353 1.00294 0.39743 0.0
H1433 H 0.00774 1.00148 0.38142 0.0
H1434 H 0.83016 0.00559 0.3889 0.0
H1435 H 0.85707 0.00725 0.40483 0.0
H1436 H 0.93296 0.97987 0.3724 0.0
H1437 H 0.8545 0.04195 0.37074 0.0
H1438 H 0.89904 0.0348 0.37985 0.0
H1439 H 0.8238 0.03042 0.37973 0.0
C1440 C 0.9904 0.00349 0.39566 0.0
C1441 C 0.94838 0.00541 0.40237 0.0
C1442 C 0.97478 1.00265 0.38653 0.0
C1443 C 0.91706 0.00371 0.38402 0.0
C1444 C 0.87501 0.00511 0.39072 0.0
H1445 H 0.72766 0.99626 0.33403 0.0
H1446 H 0.76059 0.99466 0.34976 0.0
C1447 C 0.89051 0.00603 0.39981 0.0
C1448 C 0.90047 0.00351 0.37438 0.0
H1449 H 0.83377 0.02548 0.35809 0.0
C1450 C 0.91159 0.98986 0.36925 0.0
C1451 C 0.8728 0.01661 0.37031 0.0
C1452 C 0.86224 0.03184 0.37541 0.0
C1453 C 0.89452 0.98887 0.36016 0.0
C1454 C 0.86595 1.00183 0.35619 0.0
C1455 C 0.85537 0.01553 0.36126 0.0
C1456 C 0.84746 1.00156 0.34668 0.0
C1457 C 0.9064 0.97399 0.35483 0.0
C1458 C 0.88576 0.00595 0.33984 0.0
C1459 C 0.86709 0.00703 0.33089 0.0
C1460 C 0.8099 0.00365 0.32865 0.0
C1461 C 0.77199 0.99891 0.33553 0.0
C1462 C 0.79064 0.99796 0.3445 0.0
H1463 H 0.92653 0.96462 0.35904 0.0
H1464 H 0.86592 0.96932 0.35193 0.0
H1465 H 0.93528 0.97682 0.34908 0.0
H1466 H 0.92968 0.0089 0.34147 0.0
H1467 H 0.8971 0.01095 0.32578 0.0
H1468 H 0.85779 0.74152 0.32594 0.0
H1469 H 0.82858 0.7432 0.34179 0.0
H1470 H 0.99216 0.76347 0.34876 0.0
H1471 H 0.02181 0.76195 0.33288 0.0
H1472 H 0.88863 0.72834 0.35677 0.0
H1473 H 0.87072 0.79383 0.36018 0.0
H1474 H 0.86912 0.78389 0.34935 0.0
H1475 H 0.93582 0.78666 0.35516 0.0
C1476 C 0.88737 0.74652 0.33081 0.0
C1477 C 0.9421 0.75165 0.32815 0.0
C1478 C 0.87064 0.74741 0.33987 0.0
C1479 C 0.9081 0.75356 0.34639 0.0
C1480 C 0.96247 0.75886 0.34377 0.0
H1481 H 0.89497 0.75722 0.40513 0.0
H1482 H 0.92538 0.75789 0.38923 0.0
C1483 C 0.97937 0.75793 0.33472 0.0
C1484 C 0.89108 0.75383 0.35601 0.0
H1485 H 0.86151 0.77868 0.37362 0.0
C1486 C 0.88256 0.73932 0.36046 0.0
C1487 C 0.88322 0.76821 0.36075 0.0
C1488 C 0.8897 0.78406 0.35613 0.0
C1489 C 0.86687 0.73884 0.36962 0.0
C1490 C 0.8593 0.75321 0.37435 0.0
C1491 C 0.86781 0.76771 0.36992 0.0
C1492 C 0.84085 0.75337 0.38388 0.0
C1493 C 0.8587 0.72303 0.37422 0.0
C1494 C 0.78322 0.75089 0.38602 0.0
C1495 C 0.76563 0.75067 0.39504 0.0
C1496 C 0.80562 0.75276 0.40206 0.0
C1497 C 0.86328 0.75552 0.39986 0.0
C1498 C 0.88072 0.75589 0.39082 0.0
H1499 H 0.87216 0.71297 0.36986 0.0
H1500 H 0.8835 0.72265 0.38064 0.0
H1501 H 0.81288 0.72146 0.37597 0.0
H1502 H 0.75201 0.74898 0.3807 0.0
H1503 H 0.72096 0.74844 0.3965 0.0
H1504 H 0.47588 0.48927 0.58314 0.0
H1505 H 0.49739 0.4888 0.59945 0.0
H1506 H 0.6694 0.50447 0.59398 0.0
H1507 H 0.6491 0.50487 0.57785 0.0
H1508 H 0.60254 0.47154 0.60829 0.0
H1509 H 0.59249 0.53698 0.61278 0.0
H1510 H 0.55495 0.52678 0.6038 0.0
H1511 H 0.63071 0.52986 0.60303 0.0
C1512 C 0.51828 0.49257 0.58542 0.0
C1513 C 0.5606 0.4972 0.57918 0.0
C1514 C 0.53043 0.49229 0.59471 0.0
C1515 C 0.58472 0.49678 0.59784 0.0
C1516 C 0.6271 0.50113 0.59165 0.0
H1517 H 0.76222 0.51159 0.64842 0.0
H1518 H 0.73236 0.51027 0.6325 0.0
C1519 C 0.61529 0.50131 0.58242 0.0
C1520 C 0.59818 0.49698 0.60758 0.0
H1521 H 0.63141 0.52207 0.62491 0.0
C1522 C 0.6082 0.48254 0.61199 0.0
C1523 C 0.60623 0.5114 0.61227 0.0
C1524 C 0.59524 0.52718 0.60778 0.0
C1525 C 0.62763 0.48215 0.62098 0.0
C1526 C 0.63595 0.4966 0.62567 0.0
C1527 C 0.62518 0.51103 0.62127 0.0
C1528 C 0.65493 0.49701 0.63521 0.0
C1529 C 0.64086 0.46633 0.62526 0.0
C1530 C 0.62116 0.49005 0.64196 0.0
C1531 C 0.63821 0.4907 0.651 0.0
C1532 C 0.68894 0.49855 0.65348 0.0
C1533 C 0.72294 0.50547 0.6467 0.0
C1534 C 0.70586 0.50477 0.63763 0.0
H1535 H 0.64738 0.45695 0.62009 0.0
H1536 H 0.6797 0.46705 0.62957 0.0
H1537 H 0.60443 0.46268 0.6296 0.0
H1538 H 0.58129 0.48422 0.64025 0.0
H1539 H 0.61167 0.48496 0.65603 0.0
H1540 H 0.77285 0.74289 0.58212 0.0
H1541 H 0.74117 0.74184 0.59795 0.0
H1542 H 0.58276 0.76447 0.59053 0.0
H1543 H 0.61443 0.76598 0.57479 0.0
H1544 H 0.69807 0.7727 0.60786 0.0
H1545 H 0.54592 0.72188 0.60616 0.0
H1546 H 0.60619 0.7236 0.59856 0.0
H1547 H 0.54543 0.73628 0.59713 0.0
C1548 C 0.73112 0.74753 0.58386 0.0
C1549 C 0.69577 0.75431 0.5772 0.0
C1550 C 0.71313 0.7469 0.59287 0.0
C1551 C 0.65951 0.75292 0.59531 0.0
C1552 C 0.62392 0.75955 0.58869 0.0
H1553 H 0.47537 0.75828 0.64636 0.0
H1554 H 0.50201 0.75787 0.63028 0.0
C1555 C 0.64197 0.76029 0.57971 0.0
C1556 C 0.64192 0.75318 0.60487 0.0
H1557 H 0.55276 0.73547 0.62007 0.0
C1558 C 0.66649 0.76455 0.61058 0.0
C1559 C 0.60008 0.74268 0.60825 0.0
C1560 C 0.57277 0.73033 0.60226 0.0
C1561 C 0.64997 0.76578 0.61967 0.0
C1562 C 0.60908 0.75499 0.62316 0.0
C1563 C 0.58418 0.74369 0.61738 0.0
C1564 C 0.59263 0.75501 0.63282 0.0
C1565 C 0.67556 0.77886 0.62536 0.0
C1566 C 0.63456 0.7532 0.63954 0.0
C1567 C 0.61963 0.75369 0.64866 0.0
C1568 C 0.56225 0.7556 0.65124 0.0
C1569 C 0.51989 0.7568 0.64453 0.0
C1570 C 0.53505 0.75659 0.63537 0.0
H1571 H 0.69101 0.78884 0.62109 0.0
H1572 H 0.6441 0.78355 0.6303 0.0
H1573 H 0.71281 0.77415 0.62915 0.0
H1574 H 0.67895 0.75143 0.63772 0.0
H1575 H 0.65302 0.75245 0.6537 0.0
H1576 H 0.37848 0.5266 0.32594 0.0
H1577 H 0.41104 0.52645 0.34169 0.0
H1578 H 0.28469 0.49096 0.34818 0.0
H1579 H 0.25187 0.49097 0.33238 0.0
H1580 H 0.336 0.53195 0.3579 0.0
H1581 H 0.44655 0.47356 0.35705 0.0
H1582 H 0.43256 0.485 0.34695 0.0
H1583 H 0.37563 0.47428 0.35232 0.0
C1584 C 0.358 0.51864 0.3307 0.0
C1585 C 0.31312 0.50865 0.32793 0.0
C1586 C 0.37642 0.51865 0.33968 0.0
C1587 C 0.35056 0.50859 0.34601 0.0
C1588 C 0.30543 0.49868 0.34332 0.0
H1589 H 0.37692 0.48883 0.40236 0.0
H1590 H 0.354 0.49077 0.38631 0.0
C1591 C 0.28662 0.49876 0.33434 0.0
C1592 C 0.37026 0.50866 0.35549 0.0
H1593 H 0.43809 0.48606 0.37134 0.0
C1594 C 0.35873 0.522 0.36085 0.0
C1595 C 0.39998 0.49565 0.35923 0.0
C1596 C 0.41493 0.48131 0.3536 0.0
C1597 C 0.3748 0.52246 0.36999 0.0
C1598 C 0.40372 0.50933 0.37376 0.0
C1599 C 0.41607 0.49611 0.36836 0.0
C1600 C 0.41798 0.50861 0.38347 0.0
C1601 C 0.35915 0.53667 0.37566 0.0
C1602 C 0.46188 0.51797 0.38714 0.0
C1603 C 0.47526 0.51689 0.39636 0.0
C1604 C 0.44449 0.50651 0.402 0.0
C1605 C 0.40074 0.49714 0.39824 0.0
C1606 C 0.38778 0.49814 0.38906 0.0
H1607 H 0.33079 0.54503 0.37197 0.0
H1608 H 0.33733 0.53281 0.38197 0.0
H1609 H 0.39865 0.54309 0.37765 0.0
H1610 H 0.48589 0.52602 0.38286 0.0
H1611 H 0.50915 0.52425 0.39908 0.0
H1612 H 0.22083 0.24474 0.39675 0.0
H1613 H 0.23848 0.24564 0.38037 0.0
H1614 H 0.41993 0.24854 0.38534 0.0
H1615 H 0.40322 0.24716 0.40152 0.0
H1616 H 0.29167 0.26938 0.37043 0.0
H1617 H 0.41094 0.21308 0.36707 0.0
H1618 H 0.36964 0.21782 0.37703 0.0
H1619 H 0.44096 0.22556 0.37567 0.0
C1620 C 0.2645 0.24535 0.39434 0.0
C1621 C 0.31058 0.24588 0.40047 0.0
C1622 C 0.27446 0.24593 0.38499 0.0
C1623 C 0.33054 0.24694 0.38166 0.0
C1624 C 0.37639 0.24741 0.38776 0.0
H1625 H 0.51309 0.26357 0.33247 0.0
H1626 H 0.47544 0.26425 0.34794 0.0
C1627 C 0.36662 0.24674 0.39704 0.0
C1628 C 0.34193 0.24812 0.37183 0.0
H1629 H 0.42259 0.23188 0.35499 0.0
C1630 C 0.31956 0.26107 0.36701 0.0
C1631 C 0.37826 0.23721 0.36739 0.0
C1632 C 0.40083 0.22255 0.37204 0.0
C1633 C 0.3346 0.26372 0.35792 0.0
C1634 C 0.37289 0.25321 0.35366 0.0
C1635 C 0.39386 0.24004 0.35839 0.0
C1636 C 0.39176 0.25544 0.34424 0.0
C1637 C 0.31102 0.27792 0.35298 0.0
C1638 C 0.35661 0.2505 0.33711 0.0
C1639 C 0.37808 0.24993 0.3283 0.0
C1640 C 0.43496 0.25436 0.32651 0.0
C1641 C 0.46912 0.26008 0.33364 0.0
C1642 C 0.44771 0.26052 0.34246 0.0
H1643 H 0.28459 0.28557 0.35743 0.0
H1644 H 0.34665 0.28509 0.35014 0.0
H1645 H 0.28431 0.27387 0.3472 0.0
H1646 H 0.31357 0.24632 0.33842 0.0
H1647 H 0.35107 0.24517 0.323 0.0
H1648 H 0.63945 0.97843 0.15284 0.0
H1649 H 0.61388 0.9789 0.13679 0.0
H1650 H 0.70685 0.02278 0.1335 0.0
H1651 H 0.73497 0.0219 0.14947 0.0
H1652 H 0.55299 0.9994 0.12754 0.0
H1653 H 0.77135 0.99792 0.11299 0.0
H1654 H 0.75795 0.99448 0.12485 0.0
H1655 H 0.7607 0.01439 0.12045 0.0
C1656 C 0.65477 0.9881 0.14866 0.0
C1657 C 0.68961 1.00005 0.15233 0.0
C1658 C 0.64014 0.98837 0.13951 0.0
C1659 C 0.65942 1.0007 0.1339 0.0
C1660 C 0.69311 0.01287 0.13762 0.0
H1661 H 0.60572 0.0238 0.07731 0.0
H1662 H 0.63066 0.02396 0.09347 0.0
C1663 C 0.70883 0.01242 0.14674 0.0
C1664 C 0.64255 1.00101 0.12424 0.0
H1665 H 0.69526 1.00308 0.10273 0.0
C1666 C 0.58411 1.00013 0.12211 0.0
C1667 C 0.68325 1.00195 0.11717 0.0
C1668 C 0.74681 1.00208 0.11897 0.0
C1669 C 0.5651 1.00042 0.11311 0.0
C1670 C 0.60578 1.00148 0.10605 0.0
C1671 C 0.66419 1.00237 0.10817 0.0
C1672 C 0.58886 1.00161 0.0964 0.0
C1673 C 0.50161 0.99987 0.11128 0.0
C1674 C 0.55744 0.98896 0.09272 0.0
C1675 C 0.54213 0.98907 0.08358 0.0
C1676 C 0.55943 1.00162 0.07798 0.0
C1677 C 0.5918 0.01409 0.08158 0.0
C1678 C 0.60607 0.01415 0.09076 0.0
H1679 H 0.47649 0.00366 0.11728 0.0
H1680 H 0.48993 0.00754 0.10545 0.0
H1681 H 0.48899 0.98751 0.10965 0.0
H1682 H 0.54542 0.97891 0.09687 0.0
H1683 H 0.51811 0.97919 0.08084 0.0
H1684 H 0.76465 0.23854 0.08363 0.0
H1685 H 0.74072 0.23684 0.09977 0.0
H1686 H 0.61529 0.27383 0.09634 0.0
H1687 H 0.63735 0.27517 0.0802 0.0
H1688 H 0.74199 0.25806 0.11377 0.0
H1689 H 0.52011 0.23851 0.10688 0.0
H1690 H 0.57395 0.23933 0.09815 0.0
H1691 H 0.5364 0.25701 0.1015 0.0
C1692 C 0.73225 0.24637 0.08635 0.0
C1693 C 0.70221 0.25682 0.08066 0.0
C1694 C 0.71862 0.24537 0.09555 0.0
C1695 C 0.67518 0.2549 0.09917 0.0
C1696 C 0.64763 0.266 0.0936 0.0
H1697 H 0.50405 0.27526 0.14813 0.0
H1698 H 0.54487 0.27318 0.133 0.0
C1699 C 0.66049 0.26682 0.0844 0.0
C1700 C 0.65745 0.25309 0.10872 0.0
H1701 H 0.54006 0.24717 0.12197 0.0
C1702 C 0.69802 0.2555 0.1156 0.0
C1703 C 0.60021 0.24951 0.11105 0.0
C1704 C 0.55534 0.24577 0.104 0.0
C1705 C 0.68205 0.25538 0.12476 0.0
C1706 C 0.62419 0.25259 0.12704 0.0
C1707 C 0.58429 0.24946 0.12018 0.0
C1708 C 0.60263 0.25405 0.13641 0.0
C1709 C 0.72659 0.25888 0.13189 0.0
C1710 C 0.62176 0.24399 0.14335 0.0
C1711 C 0.59875 0.24526 0.15207 0.0
C1712 C 0.55579 0.25644 0.15388 0.0
C1713 C 0.53684 0.26646 0.14691 0.0
C1714 C 0.56019 0.26531 0.13827 0.0
H1715 H 0.76628 0.2639 0.12891 0.0
H1716 H 0.7098 0.26732 0.137 0.0
H1717 H 0.73797 0.24772 0.13544 0.0
H1718 H 0.65359 0.23498 0.142 0.0
H1719 H 0.61349 0.23729 0.15732 0.0
H1720 H 0.22556 0.99561 0.83302 0.0
H1721 H 0.25808 0.99289 0.84871 0.0
H1722 H 0.42814 0.00684 0.84075 0.0
H1723 H 0.39631 0.00949 0.82503 0.0
H1724 H 0.35895 0.97458 0.85662 0.0
H1725 H 0.36727 0.04026 0.86028 0.0
H1726 H 0.32596 0.03058 0.85154 0.0
H1727 H 0.40223 0.03197 0.85051 0.0
C1728 C 0.27009 0.99789 0.83458 0.0
C1729 C 0.30821 1.00294 0.82779 0.0
C1730 C 0.28854 0.9963 0.84354 0.0
C1731 C 0.34522 0.99985 0.84587 0.0
C1732 C 0.38407 0.00417 0.83907 0.0
H1733 H 0.53164 0.00618 0.89629 0.0
H1734 H 0.5029 0.0033 0.88044 0.0
C1735 C 0.36581 0.00564 0.83009 0.0
C1736 C 0.36282 1.00001 0.85548 0.0
H1737 H 0.39911 0.02505 0.87272 0.0
C1738 C 0.36771 0.98559 0.86016 0.0
C1739 C 0.37371 0.01442 0.86005 0.0
C1740 C 0.36673 0.03024 0.8554 0.0
C1741 C 0.38425 0.98523 0.86931 0.0
C1742 C 0.3957 0.99963 0.87383 0.0
C1743 C 0.39048 0.01404 0.86917 0.0
C1744 C 0.41321 1.00004 0.88343 0.0
C1745 C 0.3901 0.96955 0.87411 0.0
C1746 C 0.3721 0.99904 0.8903 0.0
C1747 C 0.3882 1.00081 0.89937 0.0
C1748 C 0.44574 0.00355 0.90168 0.0
C1749 C 0.487 0.00405 0.89475 0.0
C1750 C 0.47074 1.00243 0.88569 0.0
H1751 H 0.38334 0.95933 0.86948 0.0
H1752 H 0.43328 0.96859 0.8772 0.0
H1753 H 0.35836 0.96886 0.87969 0.0
H1754 H 0.32742 0.99727 0.88864 0.0
H1755 H 0.35548 1.00031 0.90455 0.0
H1756 H 0.36446 0.74824 0.82212 0.0
H1757 H 0.32231 0.74958 0.83729 0.0
H1758 H 0.48966 0.7577 0.84869 0.0
H1759 H 0.53161 0.75674 0.8336 0.0
H1760 H 0.34951 0.7289 0.85142 0.0
H1761 H 0.39401 0.79098 0.86144 0.0
H1762 H 0.39733 0.78443 0.84981 0.0
H1763 H 0.45642 0.78092 0.85737 0.0
C1764 C 0.39187 0.75089 0.82782 0.0
C1765 C 0.45122 0.75259 0.82665 0.0
C1766 C 0.36786 0.75146 0.83649 0.0
C1767 C 0.40279 0.75388 0.84411 0.0
C1768 C 0.46173 0.75614 0.8429 0.0
H1769 H 0.40174 0.74477 0.90124 0.0
H1770 H 0.42015 0.74466 0.88501 0.0
C1771 C 0.48568 0.75556 0.83426 0.0
C1772 C 0.3789 0.75289 0.85338 0.0
H1773 H 0.37348 0.77274 0.87348 0.0
C1774 C 0.3537 0.73858 0.85621 0.0
C1775 C 0.38473 0.76551 0.85961 0.0
C1776 C 0.4091 0.78137 0.85688 0.0
C1777 C 0.33634 0.73636 0.86523 0.0
C1778 C 0.34417 0.7488 0.87149 0.0
C1779 C 0.36775 0.76323 0.86862 0.0
C1780 C 0.33127 0.7469 0.88121 0.0
C1781 C 0.31198 0.72061 0.86814 0.0
C1782 C 0.27495 0.7479 0.8844 0.0
C1783 C 0.26414 0.74811 0.89373 0.0
C1784 C 0.30967 0.74742 0.89996 0.0
C1785 C 0.36575 0.74566 0.89666 0.0
C1786 C 0.37642 0.74549 0.88738 0.0
H1787 H 0.31161 0.71181 0.86254 0.0
H1788 H 0.33738 0.71576 0.87386 0.0
H1789 H 0.26753 0.72228 0.87059 0.0
H1790 H 0.23965 0.74907 0.8797 0.0
H1791 H 0.22046 0.74939 0.89604 0.0
H1792 H 0.15143 0.69163 0.03803 0.0
H1793 H 0.14807 0.66294 0.0402 0.0
H1794 H 0.13542 0.66952 0.06907 0.0
H1795 H 0.13938 0.69846 0.06696 0.0
H1796 H 0.22699 0.64381 0.05243 0.0
H1797 H 0.99469 0.63989 0.06052 0.0
H1798 H 0.0243 0.65636 0.05425 0.0
H1799 H 0.03744 0.65469 0.06617 0.0
C1800 C 0.14807 0.68703 0.04486 0.0
C1801 C 0.14561 0.69736 0.05232 0.0
C1802 C 0.14618 0.6706 0.04608 0.0
C1803 C 0.14097 0.66411 0.05478 0.0
C1804 C 0.13901 0.67432 0.06229 0.0
H1805 H 0.09621 0.56215 0.06696 0.0
H1806 H 0.10104 0.59116 0.06868 0.0
C1807 C 0.14161 0.69083 0.06108 0.0
C1808 C 0.13822 0.64661 0.05586 0.0
H1809 H 0.04534 0.61588 0.05937 0.0
C1810 C 0.18746 0.6377 0.05405 0.0
C1811 C 0.08663 0.63868 0.05799 0.0
C1812 C 0.03245 0.6478 0.05982 0.0
C1813 C 0.18631 0.62104 0.05416 0.0
C1814 C 0.13413 0.61305 0.05591 0.0
C1815 C 0.08527 0.62198 0.05802 0.0
C1816 C 0.12891 0.59554 0.05493 0.0
C1817 C 0.2411 0.61217 0.05234 0.0
C1818 C 0.14136 0.5884 0.04658 0.0
C1819 C 0.13889 0.57196 0.0456 0.0
C1820 C 0.12319 0.56218 0.05292 0.0
C1821 C 0.10868 0.56934 0.06121 0.0
C1822 C 0.11145 0.5859 0.0622 0.0
H1823 H 0.27919 0.61949 0.05401 0.0
H1824 H 0.2431 0.60099 0.05631 0.0
H1825 H 0.24338 0.60914 0.04504 0.0
H1826 H 0.15335 0.59558 0.0408 0.0
H1827 H 0.14961 0.56693 0.03908 0.0
H1828 H 0.21045 0.69351 0.18628 0.0
H1829 H 0.21001 0.66466 0.18586 0.0
H1830 H 0.05993 0.66544 0.16885 0.0
H1831 H 0.06106 0.69454 0.16904 0.0
H1832 H 0.12958 0.64513 0.19219 0.0
H1833 H 0.15972 0.63431 0.15544 0.0
H1834 H 0.17051 0.65356 0.1605 0.0
H1835 H 0.09943 0.64668 0.15796 0.0
C1836 C 0.17757 0.68758 0.18237 0.0
C1837 C 0.13572 0.69631 0.17769 0.0
C1838 C 0.17741 0.67106 0.18214 0.0
C1839 C 0.13532 0.66285 0.17726 0.0
C1840 C 0.0936 0.67151 0.1725 0.0
H1841 H 0.02817 0.56542 0.17791 0.0
H1842 H 0.0364 0.59426 0.17767 0.0
C1843 C 0.09408 0.68813 0.17265 0.0
C1844 C 0.13394 0.64527 0.1776 0.0
H1845 H 0.13604 0.61186 0.16452 0.0
C1846 C 0.1314 0.63788 0.18613 0.0
C1847 C 0.1366 0.63579 0.1697 0.0
C1848 C 0.14228 0.64297 0.16038 0.0
C1849 C 0.13056 0.62131 0.18696 0.0
C1850 C 0.1321 0.61192 0.17907 0.0
C1851 C 0.13495 0.6192 0.17055 0.0
C1852 C 0.12799 0.59448 0.17955 0.0
C1853 C 0.12727 0.61384 0.19623 0.0
C1854 C 0.17696 0.58514 0.1808 0.0
C1855 C 0.17255 0.56858 0.18095 0.0
C1856 C 0.11904 0.56118 0.17982 0.0
C1857 C 0.07009 0.57069 0.17876 0.0
C1858 C 0.07459 0.58718 0.1786 0.0
H1859 H 0.12599 0.62282 0.20172 0.0
H1860 H 0.08845 0.60629 0.19669 0.0
H1861 H 0.1649 0.60605 0.1973 0.0
H1862 H 0.21853 0.59067 0.18156 0.0
H1863 H 0.21101 0.56159 0.18178 0.0
H1864 H 0.79428 0.31083 0.94202 0.0
H1865 H 0.8029 0.33952 0.94007 0.0
H1866 H 0.90105 0.33221 0.91568 0.0
H1867 H 0.88932 0.3035 0.91734 0.0
H1868 H 0.89476 0.35678 0.94058 0.0
H1869 H 0.79658 0.36552 0.9067 0.0
H1870 H 0.79143 0.34696 0.9127 0.0
H1871 H 0.85574 0.35204 0.90665 0.0
C1872 C 0.81666 0.31538 0.93615 0.0
C1873 C 0.84064 0.30498 0.92979 0.0
C1874 C 0.82182 0.33177 0.93505 0.0
C1875 C 0.85205 0.33812 0.92766 0.0
C1876 C 0.876 0.3277 0.92128 0.0
H1877 H 0.93194 0.43857 0.917 0.0
H1878 H 0.93314 0.40947 0.91651 0.0
C1879 C 0.86953 0.31128 0.92226 0.0
C1880 C 0.86073 0.35559 0.92702 0.0
H1881 H 0.83987 0.38796 0.91346 0.0
C1882 C 0.88261 0.36355 0.93464 0.0
C1883 C 0.84582 0.36449 0.91922 0.0
C1884 C 0.82063 0.35684 0.91089 0.0
C1885 C 0.88854 0.3801 0.93477 0.0
C1886 C 0.87196 0.38898 0.9271 0.0
C1887 C 0.85235 0.38107 0.91934 0.0
C1888 C 0.87107 0.40654 0.92724 0.0
C1889 C 0.9122 0.38794 0.94317 0.0
C1890 C 0.83494 0.41448 0.93329 0.0
C1891 C 0.83407 0.43101 0.93359 0.0
C1892 C 0.86915 0.43997 0.92779 0.0
C1893 C 0.9045 0.43201 0.92157 0.0
C1894 C 0.90529 0.4154 0.92128 0.0
H1895 H 0.93769 0.37952 0.94732 0.0
H1896 H 0.9395 0.39827 0.9414 0.0
H1897 H 0.87621 0.39223 0.9474 0.0
H1898 H 0.80732 0.40786 0.93781 0.0
H1899 H 0.80606 0.43674 0.93841 0.0
H1900 H 0.97561 0.43974 0.79511 0.0
H1901 H 0.9721 0.41088 0.7968 0.0
H1902 H 0.79871 0.41397 0.80647 0.0
H1903 H 0.80178 0.44293 0.80489 0.0
H1904 H 0.92152 0.39268 0.8157 0.0
H1905 H 0.82202 0.38241 0.78187 0.0
H1906 H 0.86856 0.39919 0.78382 0.0
H1907 H 0.7989 0.39876 0.78884 0.0
C1908 C 0.9366 0.43431 0.79757 0.0
C1909 C 0.88883 0.44363 0.79982 0.0
C1910 C 0.93487 0.41784 0.79858 0.0
C1911 C 0.88528 0.41039 0.80179 0.0
C1912 C 0.83745 0.41958 0.80403 0.0
H1913 H 0.79374 0.31104 0.79918 0.0
H1914 H 0.79346 0.33987 0.80049 0.0
C1915 C 0.83925 0.43609 0.80309 0.0
C1916 C 0.88303 0.39291 0.80247 0.0
H1917 H 0.84507 0.36 0.79053 0.0
C1918 C 0.90467 0.38546 0.81023 0.0
C1919 C 0.86053 0.38366 0.79536 0.0
C1920 C 0.83611 0.39129 0.78696 0.0
C1921 C 0.9043 0.36883 0.81108 0.0
C1922 C 0.88335 0.35946 0.80382 0.0
C1923 C 0.86132 0.36708 0.79609 0.0
C1924 C 0.88313 0.34179 0.80402 0.0
C1925 C 0.92505 0.36159 0.81983 0.0
C1926 C 0.9334 0.33309 0.8057 0.0
C1927 C 0.93324 0.31648 0.80517 0.0
C1928 C 0.88329 0.30835 0.80264 0.0
C1929 C 0.83306 0.31702 0.80104 0.0
C1930 C 0.83286 0.33352 0.8018 0.0
H1931 H 0.92127 0.37007 0.82555 0.0
H1932 H 0.90072 0.35068 0.82154 0.0
H1933 H 0.9709 0.35846 0.81913 0.0
H1934 H 0.97318 0.33914 0.80717 0.0
H1935 H 0.97261 0.31007 0.80637 0.0
H1936 H 0.05891 0.06327 0.56204 0.0
H1937 H 0.05767 0.0924 0.56243 0.0
H1938 H 0.21198 0.09363 0.54647 0.0
H1939 H 0.21248 0.06476 0.54581 0.0
H1940 H 0.13276 0.11478 0.56857 0.0
H1941 H 0.10754 0.12084 0.53142 0.0
H1942 H 0.09953 0.10209 0.53716 0.0
H1943 H 0.16962 0.10956 0.53444 0.0
C1944 C 0.0926 0.06978 0.55865 0.0
C1945 C 0.13532 0.06174 0.55379 0.0
C1946 C 0.09187 0.0864 0.55887 0.0
C1947 C 0.13396 0.0952 0.55428 0.0
C1948 C 0.17806 0.08713 0.54981 0.0
H1949 H 0.20902 0.19656 0.54985 0.0
H1950 H 0.21734 0.16757 0.55119 0.0
C1951 C 0.17843 0.0706 0.54949 0.0
C1952 C 0.13174 0.11281 0.55403 0.0
H1953 H 0.12958 0.14444 0.53953 0.0
C1954 C 0.13186 0.12125 0.56223 0.0
C1955 C 0.13018 0.12128 0.54573 0.0
C1956 C 0.1261 0.11298 0.5367 0.0
C1957 C 0.13141 0.13792 0.56233 0.0
C1958 C 0.13114 0.14629 0.55405 0.0
C1959 C 0.13077 0.13791 0.54586 0.0
C1960 C 0.12728 0.16378 0.55371 0.0
C1961 C 0.13119 0.14658 0.57126 0.0
C1962 C 0.07393 0.1711 0.55463 0.0
C1963 C 0.06892 0.18751 0.55375 0.0
C1964 C 0.1173 0.19697 0.55199 0.0
C1965 C 0.171 0.18961 0.5512 0.0
C1966 C 0.17585 0.17309 0.55198 0.0
H1967 H 0.13693 0.13842 0.5771 0.0
H1968 H 0.16576 0.15561 0.57137 0.0
H1969 H 0.08991 0.1529 0.57207 0.0
H1970 H 0.03599 0.16406 0.55591 0.0
H1971 H 0.02698 0.19279 0.55448 0.0
H1972 H 0.18273 0.1927 0.68906 0.0
H1973 H 0.18053 0.16397 0.68752 0.0
H1974 H 0.0683 0.16818 0.66446 0.0
H1975 H 0.0708 0.19721 0.66588 0.0
H1976 H 0.08395 0.14415 0.6883 0.0
H1977 H 0.19656 0.13879 0.65525 0.0
H1978 H 0.19816 0.15679 0.66187 0.0
H1979 H 0.13521 0.1516 0.65556 0.0
C1980 C 0.15768 0.18759 0.68362 0.0
C1981 C 0.12703 0.19729 0.67757 0.0
C1982 C 0.15647 0.17113 0.68276 0.0
C1983 C 0.12477 0.16393 0.67583 0.0
C1984 C 0.09388 0.17351 0.66977 0.0
H1985 H 0.10711 0.06136 0.66453 0.0
H1986 H 0.09642 0.09031 0.66325 0.0
C1987 C 0.09514 0.19008 0.67061 0.0
C1988 C 0.12352 0.14636 0.67521 0.0
H1989 H 0.16864 0.11506 0.6624 0.0
C1990 C 0.1021 0.13778 0.68261 0.0
C1991 C 0.14669 0.13807 0.66774 0.0
C1992 C 0.17087 0.14672 0.65966 0.0
C1993 C 0.10416 0.12116 0.68284 0.0
C1994 C 0.12991 0.11286 0.67556 0.0
C1995 C 0.14936 0.12141 0.668 0.0
C1996 C 0.13941 0.09543 0.67592 0.0
C1997 C 0.07845 0.11272 0.69089 0.0
C1998 C 0.16909 0.08874 0.68324 0.0
C1999 C 0.17437 0.07233 0.68404 0.0
C2000 C 0.1517 0.06225 0.67738 0.0
C2001 C 0.12523 0.0689 0.66973 0.0
C2002 C 0.11889 0.08541 0.66902 0.0
H2003 H 0.04423 0.11993 0.69408 0.0
H2004 H 0.0602 0.10105 0.68895 0.0
H2005 H 0.11214 0.11078 0.69607 0.0
H2006 H 0.18726 0.09621 0.68847 0.0
H2007 H 0.19555 0.0675 0.68996 0.0
H2008 H 0.80408 0.81384 0.41784 0.0
H2009 H 0.80557 0.84297 0.41651 0.0
H2010 H 0.94597 0.84512 0.43539 0.0
H2011 H 0.94436 0.8163 0.43686 0.0
H2012 H 0.80223 0.86625 0.43351 0.0
H2013 H 0.99154 0.87076 0.41087 0.0
H2014 H 0.94625 0.85337 0.41121 0.0
H2015 H 0.9964 0.85701 0.42017 0.0
C2016 C 0.83535 0.82054 0.42167 0.0
C2017 C 0.87397 0.81276 0.42747 0.0
C2018 C 0.83606 0.83715 0.42093 0.0
C2019 C 0.87606 0.84615 0.42583 0.0
C2020 C 0.91493 0.83838 0.43153 0.0
H2021 H 0.94966 0.94096 0.44211 0.0
H2022 H 0.93721 0.91233 0.44003 0.0
C2023 C 0.91377 0.8219 0.43237 0.0
C2024 C 0.8773 0.8637 0.42523 0.0
H2025 H 0.95993 0.89456 0.41784 0.0
C2026 C 0.83612 0.87248 0.42998 0.0
C2027 C 0.92176 0.87175 0.42065 0.0
C2028 C 0.96647 0.86281 0.41537 0.0
C2029 C 0.83956 0.88911 0.43051 0.0
C2030 C 0.88504 0.8971 0.42616 0.0
C2031 C 0.92509 0.88837 0.42116 0.0
C2032 C 0.89351 0.91443 0.42719 0.0
C2033 C 0.79551 0.89809 0.4359 0.0
C2034 C 0.874 0.92504 0.42055 0.0
C2035 C 0.88164 0.94143 0.42166 0.0
C2036 C 0.90856 0.94743 0.42947 0.0
C2037 C 0.92864 0.9367 0.43603 0.0
C2038 C 0.92147 0.92036 0.43487 0.0
H2039 H 0.76089 0.89025 0.43846 0.0
H2040 H 0.81648 0.90394 0.44176 0.0
H2041 H 0.77631 0.90755 0.43164 0.0
H2042 H 0.8522 0.92066 0.41458 0.0
H2043 H 0.86501 0.94941 0.41655 0.0
H2044 H 0.91451 0.8102 0.31731 0.0
H2045 H 0.91152 0.83915 0.31933 0.0
H2046 H 0.85304 0.84456 0.29181 0.0
H2047 H 0.85515 0.81595 0.28977 0.0
H2048 H 0.96743 0.86381 0.30943 0.0
H2049 H 0.73182 0.86837 0.30641 0.0
H2050 H 0.76771 0.84976 0.30844 0.0
H2051 H 0.76407 0.85786 0.29718 0.0
C2052 C 0.90103 0.81759 0.31171 0.0
C2053 C 0.88448 0.81074 0.30342 0.0
C2054 C 0.89936 0.8341 0.31286 0.0
C2055 C 0.88088 0.84397 0.30577 0.0
C2056 C 0.86604 0.83716 0.29744 0.0
H2057 H 0.872 0.94015 0.28955 0.0
H2058 H 0.8747 0.91142 0.29154 0.0
C2059 C 0.86754 0.82076 0.29628 0.0
C2060 C 0.87711 0.86141 0.30694 0.0
H2061 H 0.78478 0.89254 0.30467 0.0
C2062 C 0.92737 0.87009 0.30857 0.0
C2063 C 0.82474 0.86959 0.3058 0.0
C2064 C 0.76892 0.86092 0.30445 0.0
C2065 C 0.92694 0.88676 0.30867 0.0
C2066 C 0.875 0.89487 0.30716 0.0
C2067 C 0.8245 0.88623 0.30584 0.0
C2068 C 0.87309 0.91231 0.30616 0.0
C2069 C 0.98217 0.8957 0.30999 0.0
C2070 C 0.87055 0.92229 0.31376 0.0
C2071 C 0.8684 0.9388 0.31265 0.0
C2072 C 0.86932 0.9455 0.30392 0.0
C2073 C 0.87156 0.93539 0.29636 0.0
C2074 C 0.87309 0.91896 0.29747 0.0
H2075 H 0.01921 0.88765 0.31098 0.0
H2076 H 0.99047 0.90335 0.30401 0.0
H2077 H 0.9785 0.90358 0.31598 0.0
H2078 H 0.87034 0.9173 0.32052 0.0
H2079 H 0.86699 0.94629 0.3186 0.0
H2080 H 0.6268 0.56646 0.53351 0.0
H2081 H 0.62886 0.59509 0.53634 0.0
H2082 H 0.59957 0.5868 0.56476 0.0
H2083 H 0.59682 0.55816 0.562 0.0
H2084 H 0.53384 0.61375 0.54637 0.0
H2085 H 0.75064 0.61595 0.56205 0.0
H2086 H 0.72993 0.60021 0.55441 0.0
H2087 H 0.70101 0.60083 0.56564 0.0
C2088 C 0.62058 0.57071 0.54036 0.0
C2089 C 0.61155 0.56002 0.54752 0.0
C2090 C 0.62185 0.58706 0.54196 0.0
C2091 C 0.61494 0.593 0.55077 0.0
C2092 C 0.60546 0.58241 0.55793 0.0
H2093 H 0.64607 0.69394 0.56661 0.0
H2094 H 0.63879 0.66483 0.56772 0.0
C2095 C 0.60356 0.56606 0.55632 0.0
C2096 C 0.6167 0.61033 0.55238 0.0
H2097 H 0.70305 0.64026 0.55994 0.0
C2098 C 0.57061 0.61955 0.5494 0.0
C2099 C 0.6643 0.6178 0.55648 0.0
C2100 C 0.71459 0.60828 0.55983 0.0
C2101 C 0.57145 0.63613 0.55018 0.0
C2102 C 0.62052 0.64373 0.55378 0.0
C2103 C 0.66565 0.63445 0.55713 0.0
C2104 C 0.62752 0.66123 0.55331 0.0
C2105 C 0.51978 0.64536 0.54707 0.0
C2106 C 0.62545 0.66877 0.54485 0.0
C2107 C 0.62915 0.68522 0.54422 0.0
C2108 C 0.63596 0.69459 0.55202 0.0
C2109 C 0.6406 0.68703 0.56049 0.0
C2110 C 0.63638 0.67044 0.56113 0.0
H2111 H 0.48029 0.63805 0.54747 0.0
H2112 H 0.51361 0.65623 0.55119 0.0
H2113 H 0.52568 0.64891 0.53989 0.0
H2114 H 0.62046 0.66191 0.53871 0.0
H2115 H 0.62641 0.6906 0.53757 0.0
H2116 H 0.6709 0.56928 0.69249 0.0
H2117 H 0.66504 0.59794 0.69039 0.0
H2118 H 0.62211 0.59116 0.66226 0.0
H2119 H 0.62855 0.5622 0.66429 0.0
H2120 H 0.72713 0.61801 0.67629 0.0
H2121 H 0.48902 0.61913 0.67474 0.0
H2122 H 0.5274 0.60303 0.68004 0.0
H2123 H 0.52704 0.60485 0.66795 0.0
C2124 C 0.66062 0.57383 0.68582 0.0
C2125 C 0.65004 0.56344 0.67856 0.0
C2126 C 0.65735 0.59024 0.68464 0.0
C2127 C 0.64264 0.59667 0.6762 0.0
C2128 C 0.63318 0.5864 0.66885 0.0
H2129 H 0.57491 0.69835 0.66635 0.0
H2130 H 0.58314 0.66956 0.66408 0.0
C2131 C 0.6372 0.56989 0.67 0.0
C2132 C 0.63642 0.61413 0.6753 0.0
H2133 H 0.53658 0.64372 0.67485 0.0
C2134 C 0.68554 0.62364 0.67586 0.0
C2135 C 0.58212 0.62144 0.67475 0.0
C2136 C 0.5281 0.61168 0.67437 0.0
C2137 C 0.68174 0.64028 0.67605 0.0
C2138 C 0.6273 0.6476 0.67587 0.0
C2139 C 0.57825 0.6381 0.67499 0.0
C2140 C 0.62052 0.66498 0.67723 0.0
C2141 C 0.73609 0.64989 0.67655 0.0
C2142 C 0.63747 0.67191 0.68544 0.0
C2143 C 0.63247 0.68825 0.68678 0.0
C2144 C 0.61035 0.69811 0.67993 0.0
C2145 C 0.59219 0.69112 0.67176 0.0
C2146 C 0.59692 0.67467 0.67045 0.0
H2147 H 0.77353 0.64302 0.6741 0.0
H2148 H 0.73246 0.66093 0.67249 0.0
H2149 H 0.74428 0.65326 0.6837 0.0
H2150 H 0.65481 0.66464 0.69084 0.0
H2151 H 0.64679 0.69316 0.69317 0.0
H2152 H 0.35406 0.4365 0.44767 0.0
H2153 H 0.35027 0.40777 0.44569 0.0
H2154 H 0.40576 0.41294 0.418 0.0
H2155 H 0.41095 0.44172 0.41999 0.0
H2156 H 0.28303 0.39111 0.43377 0.0
H2157 H 0.5127 0.3786 0.42711 0.0
H2158 H 0.48864 0.39733 0.43161 0.0
H2159 H 0.48013 0.39297 0.41977 0.0
C2160 C 0.36609 0.43154 0.44119 0.0
C2161 C 0.383 0.44143 0.43401 0.0
C2162 C 0.36376 0.4151 0.44005 0.0
C2163 C 0.37823 0.40815 0.43173 0.0
C2164 C 0.39552 0.41797 0.42455 0.0
H2165 H 0.36246 0.30615 0.41847 0.0
H2166 H 0.36568 0.33509 0.41677 0.0
C2167 C 0.39824 0.43444 0.42569 0.0
C2168 C 0.37285 0.3907 0.43057 0.0
H2169 H 0.44924 0.35682 0.4267 0.0
C2170 C 0.31938 0.38364 0.43219 0.0
C2171 C 0.42011 0.38094 0.42837 0.0
C2172 C 0.47878 0.38778 0.42668 0.0
C2173 C 0.31228 0.36712 0.43196 0.0
C2174 C 0.35994 0.35736 0.43016 0.0
C2175 C 0.41286 0.36437 0.42813 0.0
C2176 C 0.3565 0.33988 0.43107 0.0
C2177 C 0.25397 0.36014 0.43376 0.0
C2178 C 0.35039 0.33303 0.43968 0.0
C2179 C 0.34899 0.31655 0.44069 0.0
C2180 C 0.35328 0.30657 0.4331 0.0
C2181 C 0.35867 0.31349 0.42445 0.0
C2182 C 0.36073 0.33001 0.42346 0.0
H2183 H 0.21958 0.36913 0.43305 0.0
H2184 H 0.24511 0.35017 0.42905 0.0
H2185 H 0.25269 0.35541 0.44077 0.0
H2186 H 0.34749 0.34046 0.44564 0.0
H2187 H 0.34488 0.31163 0.44744 0.0
H2188 H 0.35261 0.31053 0.31597 0.0
H2189 H 0.3397 0.33928 0.31798 0.0
H2190 H 0.43701 0.34787 0.29367 0.0
H2191 H 0.44853 0.31942 0.29149 0.0
H2192 H 0.41392 0.36473 0.31971 0.0
H2193 H 0.28944 0.3706 0.28804 0.0
H2194 H 0.30544 0.35158 0.29303 0.0
H2195 H 0.35754 0.36154 0.28607 0.0
C2196 C 0.37164 0.3186 0.31112 0.0
C2197 C 0.40097 0.31274 0.30351 0.0
C2198 C 0.3641 0.33499 0.31225 0.0
C2199 C 0.38597 0.3457 0.30583 0.0
C2200 C 0.41811 0.33983 0.29855 0.0
H2201 H 0.43251 0.44226 0.29339 0.0
H2202 H 0.42944 0.41363 0.29524 0.0
C2203 C 0.42501 0.32355 0.29735 0.0
C2204 C 0.37504 0.36301 0.30653 0.0
H2205 H 0.32864 0.39468 0.29413 0.0
C2206 C 0.39439 0.37128 0.3142 0.0
C2207 C 0.34892 0.37153 0.29937 0.0
C2208 C 0.3236 0.36332 0.29121 0.0
C2209 C 0.39167 0.38795 0.31463 0.0
C2210 C 0.3686 0.39647 0.30723 0.0
C2211 C 0.34673 0.38813 0.29977 0.0
C2212 C 0.37143 0.41403 0.30663 0.0
C2213 C 0.41597 0.39637 0.32278 0.0
C2214 C 0.33985 0.42384 0.31246 0.0
C2215 C 0.34148 0.4404 0.31142 0.0
C2216 C 0.37453 0.44733 0.3045 0.0
C2217 C 0.40642 0.43739 0.29877 0.0
C2218 C 0.40477 0.42097 0.29982 0.0
H2219 H 0.43966 0.38819 0.32733 0.0
H2220 H 0.44519 0.40604 0.32062 0.0
H2221 H 0.38058 0.4018 0.32669 0.0
H2222 H 0.3132 0.41871 0.31769 0.0
H2223 H 0.31632 0.44772 0.31593 0.0
H2224 H 0.55367 0.07058 0.04012 0.0
H2225 H 0.5641 0.09919 0.04207 0.0
H2226 H 0.65755 0.09163 0.06685 0.0
H2227 H 0.64675 0.06276 0.06501 0.0
H2228 H 0.53294 0.11844 0.0597 0.0
H2229 H 0.75913 0.12043 0.04785 0.0
H2230 H 0.71091 0.10489 0.04429 0.0
H2231 H 0.73691 0.10521 0.0557 0.0
C2232 C 0.5761 0.07495 0.04603 0.0
C2233 C 0.59943 0.06437 0.05241 0.0
C2234 C 0.58201 0.09132 0.04713 0.0
C2235 C 0.61195 0.0975 0.05455 0.0
C2236 C 0.6345 0.08705 0.06105 0.0
H2237 H 0.69718 0.1988 0.0618 0.0
H2238 H 0.69479 0.16986 0.06379 0.0
C2239 C 0.62802 0.07059 0.06001 0.0
C2240 C 0.61966 0.11492 0.05533 0.0
H2241 H 0.71361 0.14487 0.05055 0.0
C2242 C 0.57262 0.12423 0.05782 0.0
C2243 C 0.67148 0.12241 0.05286 0.0
C2244 C 0.72274 0.11282 0.04999 0.0
C2245 C 0.57567 0.14087 0.05773 0.0
C2246 C 0.62675 0.14842 0.05489 0.0
C2247 C 0.67449 0.13909 0.05271 0.0
C2248 C 0.62988 0.1659 0.05359 0.0
C2249 C 0.52392 0.15027 0.06059 0.0
C2250 C 0.5952 0.17324 0.04707 0.0
C2251 C 0.59667 0.18968 0.04588 0.0
C2252 C 0.63294 0.19923 0.0512 0.0
C2253 C 0.66861 0.19183 0.05761 0.0
C2254 C 0.66731 0.17529 0.05876 0.0
H2255 H 0.49471 0.1431 0.06489 0.0
H2256 H 0.53664 0.16108 0.06438 0.0
H2257 H 0.49985 0.15401 0.05447 0.0
H2258 H 0.56675 0.16622 0.04288 0.0
H2259 H 0.56875 0.19491 0.04085 0.0
H2260 H 0.70442 0.1875 0.18777 0.0
H2261 H 0.69873 0.15871 0.18645 0.0
H2262 H 0.56884 0.16332 0.16586 0.0
H2263 H 0.57488 0.19224 0.16702 0.0
H2264 H 0.59968 0.14003 0.18932 0.0
H2265 H 0.68562 0.13287 0.15438 0.0
H2266 H 0.69441 0.15101 0.16073 0.0
H2267 H 0.62636 0.14619 0.15582 0.0
C2268 C 0.67495 0.18242 0.18291 0.0
C2269 C 0.64025 0.19212 0.17748 0.0
C2270 C 0.67169 0.16597 0.18217 0.0
C2271 C 0.63378 0.15893 0.17601 0.0
C2272 C 0.59909 0.16855 0.17055 0.0
H2273 H 0.60469 0.05614 0.16673 0.0
H2274 H 0.59088 0.0849 0.16527 0.0
C2275 C 0.60249 0.18505 0.17125 0.0
C2276 C 0.62992 0.14148 0.17558 0.0
H2277 H 0.66287 0.10957 0.1624 0.0
C2278 C 0.61308 0.13335 0.18341 0.0
C2279 C 0.6464 0.13286 0.1678 0.0
C2280 C 0.66458 0.14111 0.1592 0.0
C2281 C 0.61422 0.11677 0.18381 0.0
C2282 C 0.63427 0.10813 0.17624 0.0
C2283 C 0.64822 0.11624 0.16823 0.0
C2284 C 0.64452 0.09082 0.17673 0.0
C2285 C 0.59421 0.10873 0.19238 0.0
C2286 C 0.6809 0.0847 0.18343 0.0
C2287 C 0.68834 0.06838 0.18433 0.0
C2288 C 0.66061 0.05785 0.17841 0.0
C2289 C 0.6267 0.064 0.17137 0.0
C2290 C 0.61859 0.08039 0.17055 0.0
H2291 H 0.56255 0.11615 0.19605 0.0
H2292 H 0.57455 0.09701 0.19094 0.0
H2293 H 0.63131 0.10695 0.19696 0.0
H2294 H 0.70295 0.09256 0.18807 0.0
H2295 H 0.71529 0.064 0.18975 0.0
H2296 H 0.30655 0.81037 0.92092 0.0
H2297 H 0.30673 0.83918 0.91859 0.0
H2298 H 0.43655 0.84429 0.93912 0.0
H2299 H 0.43679 0.81563 0.9415 0.0
H2300 H 0.28826 0.86463 0.93156 0.0
H2301 H 0.50488 0.86628 0.91628 0.0
H2302 H 0.46358 0.84824 0.91722 0.0
H2303 H 0.50112 0.85592 0.9269 0.0
C2304 C 0.33493 0.81763 0.92497 0.0
C2305 C 0.37198 0.81065 0.93135 0.0
C2306 C 0.33499 0.83408 0.92362 0.0
C2307 C 0.37244 0.84382 0.92856 0.0
C2308 C 0.40813 0.83695 0.93511 0.0
H2309 H 0.41283 0.94049 0.94176 0.0
H2310 H 0.40603 0.91171 0.94038 0.0
C2311 C 0.40794 0.82055 0.93649 0.0
C2312 C 0.37457 0.86118 0.92691 0.0
H2313 H 0.46534 0.89116 0.92083 0.0
C2314 C 0.32664 0.87041 0.92909 0.0
C2315 C 0.42455 0.86869 0.92361 0.0
C2316 C 0.47635 0.85929 0.92078 0.0
C2317 C 0.3285 0.88704 0.92848 0.0
C2318 C 0.37937 0.89455 0.9256 0.0
C2319 C 0.42643 0.88532 0.92304 0.0
C2320 C 0.38607 0.91198 0.92609 0.0
C2321 C 0.27683 0.8966 0.93119 0.0
C2322 C 0.37835 0.92163 0.91843 0.0
C2323 C 0.38254 0.93818 0.91918 0.0
C2324 C 0.3942 0.94525 0.92761 0.0
C2325 C 0.40333 0.93544 0.93518 0.0
C2326 C 0.39947 0.91899 0.93442 0.0
H2327 H 0.23866 0.88901 0.93235 0.0
H2328 H 0.28635 0.9032 0.93751 0.0
H2329 H 0.26672 0.90545 0.92585 0.0
H2330 H 0.36801 0.91637 0.91194 0.0
H2331 H 0.37492 0.94544 0.91325 0.0
H2332 H 0.34569 0.8154 0.7901 0.0
H2333 H 0.34396 0.84409 0.79185 0.0
H2334 H 0.41465 0.83961 0.81872 0.0
H2335 H 0.4175 0.81068 0.81696 0.0
H2336 H 0.28497 0.86144 0.80441 0.0
H2337 H 0.51864 0.87283 0.80703 0.0
H2338 H 0.48985 0.85419 0.80312 0.0
H2339 H 0.49073 0.85871 0.81501 0.0
C2340 C 0.36124 0.82047 0.79638 0.0
C2341 C 0.38183 0.81076 0.8034 0.0
C2342 C 0.36012 0.8369 0.79736 0.0
C2343 C 0.37959 0.844 0.80537 0.0
C2344 C 0.40033 0.83438 0.81241 0.0
H2345 H 0.36686 0.94616 0.81809 0.0
H2346 H 0.36905 0.91714 0.81995 0.0
C2347 C 0.40169 0.81786 0.81142 0.0
C2348 C 0.3763 0.86147 0.80633 0.0
H2349 H 0.45751 0.89498 0.80847 0.0
C2350 C 0.32265 0.86875 0.80538 0.0
C2351 C 0.4256 0.87099 0.80753 0.0
C2352 C 0.48459 0.86385 0.80816 0.0
C2353 C 0.31709 0.88531 0.80546 0.0
C2354 C 0.36633 0.89479 0.80655 0.0
C2355 C 0.41982 0.88758 0.80774 0.0
C2356 C 0.36366 0.91221 0.8056 0.0
C2357 C 0.25886 0.89262 0.80415 0.0
C2358 C 0.35982 0.91889 0.79694 0.0
C2359 C 0.35905 0.93532 0.79586 0.0
C2360 C 0.36161 0.9454 0.80343 0.0
C2361 C 0.36443 0.93868 0.81214 0.0
C2362 C 0.36594 0.92216 0.81321 0.0
H2363 H 0.22397 0.88374 0.80481 0.0
H2364 H 0.25188 0.90223 0.80916 0.0
H2365 H 0.25643 0.89797 0.79729 0.0
H2366 H 0.35807 0.91137 0.791 0.0
H2367 H 0.3566 0.94012 0.78906 0.0
H2368 H 0.78303 0.51359 0.05819 0.0
H2369 H 0.67982 0.51709 0.06008 0.0
H2370 H 0.64851 0.47835 0.0417 0.0
H2371 H 0.7515 0.47471 0.03977 0.0
H2372 H 0.59477 0.52297 0.04633 0.0
H2373 H 0.55737 0.46661 0.06495 0.0
H2374 H 0.62754 0.47532 0.06373 0.0
H2375 H 0.59574 0.46471 0.05446 0.0
C2376 C 0.75422 0.50585 0.05452 0.0
C2377 C 0.7755 0.49385 0.04883 0.0
C2378 C 0.69531 0.50787 0.05562 0.0
C2379 C 0.65671 0.49783 0.05113 0.0
C2380 C 0.6777 0.48605 0.04533 0.0
H2381 H 0.2867 0.49147 0.04858 0.0
H2382 H 0.3898 0.48773 0.04666 0.0
C2383 C 0.73657 0.48407 0.04418 0.0
C2384 C 0.5944 0.49981 0.05245 0.0
H2385 H 0.47533 0.48128 0.06067 0.0
C2386 C 0.56863 0.5139 0.04949 0.0
C2387 C 0.56058 0.48792 0.05658 0.0
C2388 C 0.58659 0.47283 0.06019 0.0
C2389 C 0.50957 0.51633 0.05043 0.0
C2390 C 0.47577 0.50444 0.05455 0.0
C2391 C 0.5015 0.49034 0.0575 0.0
C2392 C 0.41355 0.50649 0.0559 0.0
C2393 C 0.48354 0.53144 0.04685 0.0
C2394 C 0.39299 0.51809 0.06187 0.0
C2395 C 0.3342 0.52021 0.06302 0.0
C2396 C 0.29493 0.51077 0.05822 0.0
C2397 C 0.31579 0.49896 0.05236 0.0
C2398 C 0.37462 0.4968 0.05125 0.0
H2399 H 0.51297 0.53779 0.04219 0.0
H2400 H 0.44293 0.52893 0.04322 0.0
H2401 H 0.47369 0.53943 0.05261 0.0
H2402 H 0.42247 0.52553 0.06561 0.0
H2403 H 0.3196 0.52939 0.0676 0.0
H2404 H 0.50103 0.77691 0.03948 0.0
H2405 H 0.60471 0.77418 0.0409 0.0
H2406 H 0.58181 0.74198 0.0633 0.0
H2407 H 0.47798 0.74446 0.06186 0.0
H2408 H 0.6739 0.78129 0.0557 0.0
H2409 H 0.69009 0.71761 0.04665 0.0
H2410 H 0.62667 0.72919 0.04449 0.0
H2411 H 0.6406 0.7216 0.05566 0.0
C2412 C 0.51795 0.76915 0.04467 0.0
C2413 C 0.48114 0.76082 0.05053 0.0
C2414 C 0.57726 0.76764 0.04548 0.0
C2415 C 0.60096 0.75771 0.05212 0.0
C2416 C 0.56441 0.74945 0.058 0.0
H2417 H 0.94386 0.73484 0.06996 0.0
H2418 H 0.84048 0.73812 0.06826 0.0
C2419 C 0.50506 0.75093 0.0572 0.0
C2420 C 0.66394 0.75634 0.05303 0.0
H2421 H 0.7739 0.72974 0.05259 0.0
C2422 C 0.69584 0.77004 0.05497 0.0
C2423 C 0.69245 0.74165 0.05205 0.0
C2424 C 0.66085 0.72669 0.04951 0.0
C2425 C 0.7554 0.76938 0.05616 0.0
C2426 C 0.78373 0.75467 0.05529 0.0
C2427 C 0.75192 0.74099 0.0533 0.0
C2428 C 0.84645 0.75317 0.05643 0.0
C2429 C 0.78742 0.78436 0.05853 0.0
C2430 C 0.884 0.7605 0.05031 0.0
C2431 C 0.94312 0.75862 0.05125 0.0
C2432 C 0.96575 0.74935 0.05832 0.0
C2433 C 0.92792 0.74209 0.06446 0.0
C2434 C 0.86882 0.74393 0.06349 0.0
H2435 H 0.75823 0.79387 0.0609 0.0
H2436 H 0.81975 0.78203 0.06388 0.0
H2437 H 0.81022 0.78875 0.05244 0.0
H2438 H 0.86753 0.76748 0.04474 0.0
H2439 H 0.97102 0.76433 0.04639 0.0
H2440 H 0.77871 0.7697 0.16877 0.0
H2441 H 0.67483 0.77021 0.16749 0.0
H2442 H 0.66124 0.73825 0.19021 0.0
H2443 H 0.76562 0.7381 0.19173 0.0
H2444 H 0.6 0.74685 0.16412 0.0
H2445 H 0.55333 0.77297 0.19778 0.0
H2446 H 0.62459 0.77238 0.19312 0.0
H2447 H 0.59423 0.75502 0.19835 0.0
C2448 C 0.75376 0.76276 0.17351 0.0
C2449 C 0.7805 0.75388 0.18038 0.0
C2450 C 0.69427 0.76309 0.17277 0.0
C2451 C 0.66011 0.7545 0.17884 0.0
C2452 C 0.68664 0.74532 0.18559 0.0
H2453 H 0.29459 0.74046 0.1841 0.0
H2454 H 0.39858 0.74002 0.18556 0.0
C2455 C 0.74631 0.74513 0.18641 0.0
C2456 C 0.59687 0.75496 0.17794 0.0
H2457 H 0.47375 0.76392 0.18925 0.0
C2458 C 0.57239 0.75064 0.1696 0.0
C2459 C 0.56088 0.75994 0.18509 0.0
C2460 C 0.58454 0.76549 0.19406 0.0
C2461 C 0.51295 0.75088 0.16827 0.0
C2462 C 0.47698 0.75581 0.17544 0.0
C2463 C 0.5014 0.76013 0.18377 0.0
C2464 C 0.4138 0.75631 0.1745 0.0
C2465 C 0.48926 0.74551 0.15927 0.0
C2466 C 0.38766 0.76581 0.16787 0.0
C2467 C 0.3281 0.76601 0.16696 0.0
C2468 C 0.29356 0.75689 0.17277 0.0
C2469 C 0.31987 0.74767 0.17953 0.0
C2470 C 0.37936 0.74738 0.18037 0.0
H2471 H 0.52054 0.73817 0.15548 0.0
H2472 H 0.44935 0.73855 0.16017 0.0
H2473 H 0.47924 0.75606 0.15507 0.0
H2474 H 0.41331 0.77311 0.1634 0.0
H2475 H 0.30917 0.77332 0.16173 0.0
H2476 H 0.96594 0.51475 0.18602 0.0
H2477 H 0.86138 0.51522 0.187 0.0
H2478 H 0.85011 0.48512 0.16349 0.0
H2479 H 0.95464 0.48469 0.16238 0.0
H2480 H 0.78125 0.52457 0.17081 0.0
H2481 H 0.75231 0.46422 0.1855 0.0
H2482 H 0.81745 0.47547 0.18699 0.0
H2483 H 0.802 0.4665 0.17626 0.0
C2484 C 0.9413 0.50812 0.1811 0.0
C2485 C 0.96866 0.49962 0.17414 0.0
C2486 C 0.8816 0.50847 0.18165 0.0
C2487 C 0.84827 0.50017 0.17533 0.0
C2488 C 0.87527 0.49155 0.16844 0.0
H2489 H 0.48241 0.49576 0.16468 0.0
H2490 H 0.58706 0.49626 0.1633 0.0
C2491 C 0.93495 0.49131 0.16783 0.0
C2492 C 0.78512 0.50065 0.17588 0.0
H2493 H 0.66867 0.47847 0.18177 0.0
C2494 C 0.75654 0.51451 0.17319 0.0
C2495 C 0.7533 0.48752 0.17903 0.0
C2496 C 0.7825 0.47256 0.18217 0.0
C2497 C 0.69658 0.51547 0.17349 0.0
C2498 C 0.66482 0.5023 0.17659 0.0
C2499 C 0.69339 0.4885 0.17934 0.0
C2500 C 0.60178 0.50279 0.17726 0.0
C2501 C 0.6672 0.53053 0.17058 0.0
C2502 C 0.57582 0.50638 0.18556 0.0
C2503 C 0.5163 0.50606 0.18638 0.0
C2504 C 0.48167 0.50219 0.1789 0.0
C2505 C 0.50788 0.49891 0.17054 0.0
C2506 C 0.56755 0.49914 0.16974 0.0
H2507 H 0.69805 0.53981 0.16842 0.0
H2508 H 0.63769 0.52796 0.16487 0.0
H2509 H 0.64104 0.5352 0.17625 0.0
H2510 H 0.6017 0.50924 0.19142 0.0
H2511 H 0.49744 0.50872 0.1929 0.0
H2512 H 0.70024 0.49516 0.90639 0.0
H2513 H 0.59709 0.49833 0.90852 0.0
H2514 H 0.62371 0.50635 0.93705 0.0
H2515 H 0.72681 0.50355 0.93495 0.0
H2516 H 0.52708 0.48001 0.9189 0.0
H2517 H 0.51633 0.54217 0.93094 0.0
H2518 H 0.57975 0.53401 0.92579 0.0
H2519 H 0.5637 0.52999 0.93748 0.0
C2520 C 0.68425 0.49782 0.9131 0.0
C2521 C 0.72195 0.49912 0.92049 0.0
C2522 C 0.62519 0.4996 0.91431 0.0
C2523 C 0.60246 0.50276 0.92293 0.0
C2524 C 0.6401 0.50429 0.9303 0.0
H2525 H 0.25865 0.51195 0.94484 0.0
H2526 H 0.36175 0.50912 0.94263 0.0
C2527 C 0.69918 0.50261 0.92909 0.0
C2528 C 0.53934 0.50348 0.92428 0.0
H2529 H 0.43141 0.52686 0.93232 0.0
C2530 C 0.50612 0.4903 0.92178 0.0
C2531 C 0.51192 0.51685 0.92811 0.0
C2532 C 0.54465 0.53162 0.93066 0.0
C2533 C 0.44659 0.48999 0.92313 0.0
C2534 C 0.4191 0.50338 0.92691 0.0
C2535 C 0.45235 0.51657 0.92943 0.0
C2536 C 0.35597 0.50406 0.92829 0.0
C2537 C 0.41405 0.47513 0.92069 0.0
C2538 C 0.31804 0.50206 0.92099 0.0
C2539 C 0.25888 0.50347 0.92226 0.0
C2540 C 0.23641 0.5072 0.93083 0.0
C2541 C 0.27443 0.50906 0.93814 0.0
C2542 C 0.33348 0.50749 0.93689 0.0
H2543 H 0.4425 0.46459 0.92054 0.0
H2544 H 0.37887 0.47283 0.92557 0.0
H2545 H 0.3952 0.47653 0.91384 0.0
H2546 H 0.33421 0.49981 0.91425 0.0
H2547 H 0.23094 0.50217 0.91645 0.0
H2548 H 0.5308 0.26845 0.9244 0.0
H2549 H 0.42684 0.2722 0.92372 0.0
H2550 H 0.4017 0.22334 0.9314 0.0
H2551 H 0.50496 0.21968 0.93239 0.0
H2552 H 0.34558 0.25821 0.91349 0.0
H2553 H 0.30164 0.24502 0.94958 0.0
H2554 H 0.37314 0.24811 0.94535 0.0
H2555 H 0.33841 0.2292 0.94397 0.0
C2556 C 0.50304 0.25854 0.92597 0.0
C2557 C 0.52612 0.24383 0.92855 0.0
C2558 C 0.44366 0.26069 0.92559 0.0
C2559 C 0.40632 0.24816 0.92772 0.0
C2560 C 0.42944 0.23334 0.93002 0.0
H2561 H 0.03707 0.23518 0.9287 0.0
H2562 H 0.14115 0.23186 0.92911 0.0
C2563 C 0.48861 0.23124 0.93052 0.0
C2564 C 0.34324 0.25044 0.92738 0.0
H2565 H 0.22083 0.24645 0.93981 0.0
C2566 C 0.31835 0.25574 0.91927 0.0
C2567 C 0.30758 0.24718 0.93491 0.0
C2568 C 0.33158 0.24221 0.94397 0.0
C2569 C 0.25883 0.25755 0.91841 0.0
C2570 C 0.2232 0.25419 0.92593 0.0
C2571 C 0.24809 0.24894 0.93404 0.0
C2572 C 0.16006 0.25621 0.92556 0.0
C2573 C 0.23468 0.26267 0.90939 0.0
C2574 C 0.13602 0.27104 0.92356 0.0
C2575 C 0.07666 0.27294 0.92325 0.0
C2576 C 0.03997 0.26009 0.92508 0.0
C2577 C 0.06409 0.24531 0.92725 0.0
C2578 C 0.12357 0.24339 0.92749 0.0
H2579 H 0.26499 0.26029 0.90377 0.0
H2580 H 0.1937 0.25653 0.90792 0.0
H2581 H 0.2265 0.27562 0.90955 0.0
H2582 H 0.16317 0.28122 0.92231 0.0
H2583 H 0.05958 0.28454 0.92166 0.0
H2584 H 0.69282 0.28443 0.81225 0.0
H2585 H 0.58947 0.28055 0.8106 0.0
H2586 H 0.61792 0.23274 0.80139 0.0
H2587 H 0.72158 0.23655 0.80289 0.0
H2588 H 0.53021 0.26614 0.79222 0.0
H2589 H 0.49991 0.23493 0.82517 0.0
H2590 H 0.55642 0.24926 0.8235 0.0
H2591 H 0.56127 0.23013 0.8183 0.0
C2592 C 0.67714 0.27306 0.8099 0.0
C2593 C 0.71533 0.26077 0.80772 0.0
C2594 C 0.61815 0.27091 0.80892 0.0
C2595 C 0.59635 0.25637 0.80589 0.0
C2596 C 0.63417 0.24405 0.80373 0.0
H2597 H 0.25411 0.21936 0.79767 0.0
H2598 H 0.35777 0.22332 0.79848 0.0
C2599 C 0.69325 0.24625 0.80459 0.0
C2600 C 0.53391 0.25404 0.80504 0.0
H2601 H 0.4186 0.23802 0.81589 0.0
C2602 C 0.50568 0.26002 0.79738 0.0
C2603 C 0.50238 0.24604 0.8118 0.0
C2604 C 0.53113 0.23972 0.8202 0.0
C2605 C 0.44636 0.2581 0.7963 0.0
C2606 C 0.41483 0.25014 0.80308 0.0
C2607 C 0.44312 0.24412 0.81072 0.0
C2608 C 0.35224 0.24797 0.80236 0.0
C2609 C 0.41759 0.26439 0.78789 0.0
C2610 C 0.31505 0.26053 0.80433 0.0
C2611 C 0.25579 0.25828 0.80399 0.0
C2612 C 0.23284 0.24345 0.80157 0.0
C2613 C 0.27041 0.23094 0.79951 0.0
C2614 C 0.3296 0.23316 0.79998 0.0
H2615 H 0.4489 0.26884 0.78284 0.0
H2616 H 0.39124 0.25494 0.78472 0.0
H2617 H 0.38846 0.27423 0.78976 0.0
H2618 H 0.33193 0.27203 0.80622 0.0
H2619 H 0.22797 0.26815 0.80556 0.0
H2620 H 0.06991 0.47329 0.81599 0.0
H2621 H 0.17281 0.47768 0.81425 0.0
H2622 H 0.13964 0.52018 0.79891 0.0
H2623 H 0.03649 0.51586 0.80055 0.0
H2624 H 0.23468 0.48178 0.79655 0.0
H2625 H 0.25293 0.53289 0.82024 0.0
H2626 H 0.19435 0.51893 0.82073 0.0
H2627 H 0.19647 0.53361 0.81195 0.0
C2628 C 0.08442 0.48363 0.81229 0.0
C2629 C 0.04501 0.49427 0.80844 0.0
C2630 C 0.14321 0.48607 0.81128 0.0
C2631 C 0.16365 0.49929 0.80651 0.0
C2632 C 0.12457 0.50998 0.80268 0.0
H2633 H 0.50641 0.53251 0.79378 0.0
H2634 H 0.40276 0.52888 0.79483 0.0
C2635 C 0.06572 0.50747 0.80361 0.0
C2636 C 0.22595 0.50178 0.80548 0.0
H2637 H 0.33644 0.52542 0.81234 0.0
C2638 C 0.25703 0.49129 0.8 0.0
C2639 C 0.25471 0.51425 0.80998 0.0
C2640 C 0.22323 0.52555 0.81611 0.0
C2641 C 0.31634 0.493 0.79888 0.0
C2642 C 0.34517 0.50536 0.80346 0.0
C2643 C 0.31404 0.51595 0.80886 0.0
C2644 C 0.40787 0.5074 0.80278 0.0
C2645 C 0.34785 0.48175 0.79272 0.0
C2646 C 0.44488 0.49656 0.80697 0.0
C2647 C 0.50415 0.49866 0.80646 0.0
C2648 C 0.52732 0.51158 0.80168 0.0
C2649 C 0.48996 0.52238 0.79747 0.0
C2650 C 0.43075 0.52037 0.79807 0.0
H2651 H 0.31817 0.47459 0.7885 0.0
H2652 H 0.37728 0.4884 0.7882 0.0
H2653 H 0.37407 0.47354 0.79688 0.0
H2654 H 0.42786 0.48654 0.81069 0.0
H2655 H 0.53176 0.49014 0.80977 0.0
H2656 H 0.31593 0.01964 0.57113 0.0
H2657 H 0.41882 0.01596 0.56916 0.0
H2658 H 0.38921 0.99462 0.54304 0.0
H2659 H 0.28615 0.99841 0.5449 0.0
H2660 H 0.48005 0.98789 0.56643 0.0
H2661 H 0.50687 0.02939 0.5375 0.0
H2662 H 0.44338 0.02909 0.54444 0.0
H2663 H 0.45355 0.01432 0.53583 0.0
C2664 C 0.33122 0.01419 0.56495 0.0
C2665 C 0.29282 0.00939 0.55815 0.0
C2666 C 0.39005 0.01209 0.56385 0.0
C2667 C 0.41168 0.00524 0.5559 0.0
C2668 C 0.37348 1.00021 0.54915 0.0
H2669 H 0.75712 0.98273 0.53821 0.0
H2670 H 0.65328 0.98545 0.53959 0.0
C2671 C 0.31457 1.0023 0.55025 0.0
C2672 C 0.4742 0.00317 0.55478 0.0
H2673 H 0.58785 0.01419 0.54168 0.0
C2674 C 0.50368 0.99367 0.56103 0.0
C2675 C 0.50483 0.01071 0.54772 0.0
C2676 C 0.47576 0.02157 0.54103 0.0
C2677 C 0.56297 0.99138 0.56037 0.0
C2678 C 0.59362 0.99899 0.55335 0.0
C2679 C 0.56413 0.00838 0.54705 0.0
C2680 C 0.65649 0.9975 0.55251 0.0
C2681 C 0.59228 0.98066 0.56711 0.0
C2682 C 0.69264 0.00361 0.55924 0.0
C2683 C 0.75197 1.00216 0.55846 0.0
C2684 C 0.77625 0.99455 0.55091 0.0
C2685 C 0.73985 0.98862 0.54412 0.0
C2686 C 0.68051 0.99016 0.54489 0.0
H2687 H 0.56133 0.97288 0.5707 0.0
H2688 H 0.62465 0.97311 0.56371 0.0
H2689 H 0.61462 0.98802 0.57224 0.0
H2690 H 0.67491 0.00954 0.56511 0.0
H2691 H 0.77874 0.00687 0.56381 0.0
H2692 H 0.49452 0.26364 0.53589 0.0
H2693 H 0.59839 0.26169 0.53734 0.0
H2694 H 0.5807 0.25273 0.56596 0.0
H2695 H 0.47665 0.25432 0.56454 0.0
H2696 H 0.67077 0.27988 0.54748 0.0
H2697 H 0.68553 0.21701 0.55826 0.0
H2698 H 0.62081 0.22542 0.55365 0.0
H2699 H 0.63967 0.22875 0.56531 0.0
C2700 C 0.51265 0.26111 0.54248 0.0
C2701 C 0.47725 0.25902 0.55009 0.0
C2702 C 0.57206 0.26003 0.5433 0.0
C2703 C 0.5973 0.25682 0.55173 0.0
C2704 C 0.56212 0.25482 0.55935 0.0
H2705 H 0.94572 0.24953 0.57126 0.0
H2706 H 0.84195 0.2515 0.56961 0.0
C2707 C 0.50264 0.25581 0.55853 0.0
C2708 C 0.66048 0.25612 0.55258 0.0
H2709 H 0.77072 0.23231 0.55927 0.0
C2710 C 0.69268 0.26945 0.55001 0.0
C2711 C 0.68898 0.2425 0.55589 0.0
C2712 C 0.65707 0.22755 0.55836 0.0
C2713 C 0.7525 0.26965 0.55082 0.0
C2714 C 0.78091 0.25607 0.55418 0.0
C2715 C 0.74877 0.24273 0.55673 0.0
C2716 C 0.84398 0.25544 0.55514 0.0
C2717 C 0.78462 0.28453 0.54828 0.0
C2718 C 0.87955 0.25695 0.54753 0.0
C2719 C 0.93894 0.25592 0.54845 0.0
C2720 C 0.9638 0.25318 0.55699 0.0
C2721 C 0.928 0.25168 0.56459 0.0
C2722 C 0.86867 0.25277 0.56366 0.0
H2723 H 0.75612 0.29505 0.54811 0.0
H2724 H 0.8201 0.28687 0.5531 0.0
H2725 H 0.80327 0.28303 0.54142 0.0
H2726 H 0.86134 0.25868 0.54086 0.0
H2727 H 0.96526 0.25698 0.54245 0.0
H2728 H 0.75954 0.26803 0.69547 0.0
H2729 H 0.65575 0.26517 0.69396 0.0
H2730 H 0.67677 0.25005 0.66627 0.0
H2731 H 0.78035 0.25251 0.66776 0.0
H2732 H 0.58275 0.28045 0.68209 0.0
H2733 H 0.57538 0.21543 0.67657 0.0
H2734 H 0.63846 0.22544 0.68071 0.0
H2735 H 0.62153 0.22567 0.66882 0.0
C2736 C 0.74208 0.26395 0.68908 0.0
C2737 C 0.77819 0.26036 0.68176 0.0
C2738 C 0.68281 0.26236 0.68823 0.0
C2739 C 0.65868 0.25715 0.68005 0.0
C2740 C 0.69459 0.2537 0.67271 0.0
H2741 H 0.3172 0.24016 0.65982 0.0
H2742 H 0.42013 0.24397 0.6618 0.0
C2743 C 0.7538 0.25517 0.67357 0.0
C2744 C 0.59586 0.25574 0.67909 0.0
H2745 H 0.48939 0.22962 0.67386 0.0
C2746 C 0.56219 0.26933 0.68034 0.0
C2747 C 0.5693 0.24121 0.6768 0.0
C2748 C 0.60294 0.22607 0.67573 0.0
C2749 C 0.50266 0.26887 0.67913 0.0
C2750 C 0.47615 0.25435 0.67679 0.0
C2751 C 0.50984 0.24075 0.67561 0.0
C2752 C 0.41353 0.25291 0.6755 0.0
C2753 C 0.46906 0.28403 0.68015 0.0
C2754 C 0.37568 0.25664 0.68255 0.0
C2755 C 0.31681 0.25465 0.6814 0.0
C2756 C 0.29488 0.24859 0.67323 0.0
C2757 C 0.33285 0.24481 0.66619 0.0
C2758 C 0.39163 0.24699 0.66731 0.0
H2759 H 0.49673 0.29466 0.67933 0.0
H2760 H 0.43379 0.28468 0.67512 0.0
H2761 H 0.45015 0.28447 0.68703 0.0
H2762 H 0.39169 0.26081 0.689 0.0
H2763 H 0.28864 0.2575 0.68698 0.0
H2764 H 0.97214 0.99066 0.68189 0.0
H2765 H 0.86942 0.98593 0.68359 0.0
H2766 H 0.83386 0.02636 0.66661 0.0
H2767 H 0.93624 0.03101 0.66473 0.0
H2768 H 0.78772 0.00596 0.6908 0.0
H2769 H 0.73671 0.99187 0.65502 0.0
H2770 H 0.80904 0.99227 0.65929 0.0
H2771 H 0.77318 0.01045 0.65641 0.0
C2772 C 0.94246 0.99847 0.67845 0.0
C2773 C 0.96237 0.01116 0.67313 0.0
C2774 C 0.88381 0.99576 0.67944 0.0
C2775 C 0.84407 0.00564 0.67511 0.0
C2776 C 0.86381 0.01836 0.66984 0.0
H2777 H 0.47541 0.01327 0.67302 0.0
H2778 H 0.57877 0.01725 0.67178 0.0
C2779 C 0.92238 0.02105 0.66881 0.0
C2780 C 0.78192 1.00302 0.67635 0.0
H2781 H 0.65766 0.99638 0.66481 0.0
C2782 C 0.75926 0.00376 0.68514 0.0
C2783 C 0.74499 1.00015 0.66894 0.0
C2784 C 0.7672 0.99848 0.65939 0.0
C2785 C 0.70033 1.00213 0.68669 0.0
C2786 C 0.66332 0.99944 0.67927 0.0
C2787 C 0.6861 0.99855 0.67049 0.0
C2788 C 0.60079 0.99744 0.68042 0.0
C2789 C 0.67815 0.00371 0.69625 0.0
C2790 C 0.57894 0.98498 0.68568 0.0
C2791 C 0.51995 0.98275 0.68646 0.0
C2792 C 0.48169 0.99282 0.68189 0.0
C2793 C 0.50371 0.00533 0.67664 0.0
C2794 C 0.56274 0.0076 0.67591 0.0
H2795 H 0.70911 0.01 0.70069 0.0
H2796 H 0.63686 0.01019 0.69638 0.0
H2797 H 0.67105 0.99171 0.69912 0.0
H2798 H 0.60751 0.97677 0.68904 0.0
H2799 H 0.50443 0.9729 0.69048 0.0
H2800 H 0.6913 0.97049 0.42282 0.0
H2801 H 0.58811 0.97506 0.42371 0.0
H2802 H 0.61811 0.02461 0.429 0.0
H2803 H 0.72175 0.02015 0.42825 0.0
H2804 H 0.52767 0.99292 0.44028 0.0
H2805 H 0.50237 0.018 0.40556 0.0
H2806 H 0.55904 0.0043 0.40836 0.0
H2807 H 0.56238 0.02433 0.41235 0.0
C2808 C 0.67604 0.98238 0.42417 0.0
C2809 C 0.71469 0.99497 0.42547 0.0
C2810 C 0.61712 0.98494 0.42469 0.0
C2811 C 0.59579 1.00016 0.42639 0.0
C2812 C 0.63402 0.01279 0.42767 0.0
H2813 H 0.25509 0.03815 0.43372 0.0
H2814 H 0.35858 0.03383 0.43306 0.0
C2815 C 0.69308 0.01021 0.42726 0.0
C2816 C 0.53339 1.00277 0.42686 0.0
H2817 H 0.41987 0.01683 0.41473 0.0
C2818 C 0.504 0.99815 0.43471 0.0
C2819 C 0.50295 0.00953 0.41955 0.0
C2820 C 0.5329 0.01431 0.41093 0.0
C2821 C 0.44464 1.00027 0.43546 0.0
C2822 C 0.41426 0.00704 0.42815 0.0
C2823 C 0.44359 0.01164 0.4203 0.0
C2824 C 0.35183 0.00951 0.42858 0.0
C2825 C 0.41446 0.99537 0.44403 0.0
C2826 C 0.31414 0.99725 0.42623 0.0
C2827 C 0.25501 0.9997 0.4265 0.0
C2828 C 0.2328 0.01442 0.42923 0.0
C2829 C 0.27088 0.02665 0.43163 0.0
C2830 C 0.32994 0.02424 0.43125 0.0
H2831 H 0.44461 0.99092 0.44927 0.0
H2832 H 0.3905 0.0056 0.44685 0.0
H2833 H 0.3829 0.98591 0.44248 0.0
H2834 H 0.33053 0.9858 0.42416 0.0
H2835 H 0.22673 0.99003 0.42468 0.0
H2836 H 0.51375 0.76594 0.44308 0.0
H2837 H 0.40915 0.76638 0.44162 0.0
H2838 H 0.41988 0.73706 0.4178 0.0
H2839 H 0.52412 0.73658 0.41913 0.0
H2840 H 0.3516 0.77231 0.41934 0.0
H2841 H 0.29532 0.72115 0.44152 0.0
H2842 H 0.35555 0.73365 0.44437 0.0
H2843 H 0.35899 0.72112 0.4346 0.0
C2844 C 0.49383 0.75954 0.43755 0.0
C2845 C 0.52723 0.75132 0.43119 0.0
C2846 C 0.43421 0.75977 0.43675 0.0
C2847 C 0.40719 0.75166 0.42964 0.0
C2848 C 0.4402 0.74334 0.42333 0.0
H2849 H 0.03914 0.73821 0.42128 0.0
H2850 H 0.14293 0.73395 0.42248 0.0
C2851 C 0.49972 0.74317 0.42409 0.0
C2852 C 0.3446 0.75261 0.4285 0.0
H2853 H 0.21896 0.73603 0.43546 0.0
C2854 C 0.32242 0.7644 0.42284 0.0
C2855 C 0.30721 0.74198 0.43291 0.0
C2856 C 0.33001 0.72868 0.4387 0.0
C2857 C 0.26331 0.76611 0.4216 0.0
C2858 C 0.22531 0.75606 0.42643 0.0
C2859 C 0.24786 0.74389 0.43187 0.0
C2860 C 0.16229 0.7583 0.42605 0.0
C2861 C 0.24253 0.77849 0.41499 0.0
C2862 C 0.13847 0.77323 0.42789 0.0
C2863 C 0.07985 0.77575 0.42692 0.0
C2864 C 0.04356 0.76323 0.42447 0.0
C2865 C 0.06657 0.74804 0.42315 0.0
C2866 C 0.12569 0.74562 0.42384 0.0
H2867 H 0.27516 0.781 0.40971 0.0
H2868 H 0.20241 0.77474 0.41158 0.0
H2869 H 0.23446 0.78973 0.41867 0.0
H2870 H 0.16532 0.78303 0.42998 0.0
H2871 H 0.06275 0.78749 0.42815 0.0
H2872 H 0.24591 0.74235 0.28572 0.0
H2873 H 0.34994 0.74473 0.2872 0.0
H2874 H 0.33192 0.75274 0.31588 0.0
H2875 H 0.22796 0.75045 0.31449 0.0
H2876 H 0.4153 0.77137 0.29476 0.0
H2877 H 0.44643 0.71475 0.31341 0.0
H2878 H 0.38279 0.71894 0.3069 0.0
H2879 H 0.39225 0.72767 0.31789 0.0
C2880 C 0.26406 0.74464 0.29235 0.0
C2881 C 0.22868 0.74617 0.3 0.0
C2882 C 0.32345 0.74601 0.29317 0.0
C2883 C 0.3485 0.74871 0.30166 0.0
C2884 C 0.31336 0.75045 0.30929 0.0
H2885 H 0.6922 0.76133 0.32212 0.0
H2886 H 0.58876 0.75859 0.32006 0.0
C2887 C 0.25396 0.74923 0.30846 0.0
C2888 C 0.41143 0.74983 0.30256 0.0
H2889 H 0.52702 0.73169 0.31217 0.0
C2890 C 0.43986 0.76266 0.29852 0.0
C2891 C 0.44316 0.73843 0.30746 0.0
C2892 C 0.41486 0.72408 0.31161 0.0
C2893 C 0.49924 0.7646 0.29944 0.0
C2894 C 0.5309 0.75327 0.3044 0.0
C2895 C 0.50251 0.74037 0.30839 0.0
C2896 C 0.59355 0.75468 0.30561 0.0
C2897 C 0.52758 0.77894 0.29528 0.0
C2898 C 0.63042 0.75314 0.29817 0.0
C2899 C 0.68954 0.75461 0.29933 0.0
C2900 C 0.71279 0.75768 0.30794 0.0
C2901 C 0.67567 0.75904 0.31539 0.0
C2902 C 0.61659 0.75746 0.31423 0.0
H2903 H 0.49595 0.7881 0.29326 0.0
H2904 H 0.55858 0.7843 0.30009 0.0
H2905 H 0.55148 0.77526 0.28914 0.0
H2906 H 0.61344 0.75079 0.29148 0.0
H2907 H 0.71694 0.75349 0.29345 0.0
H2908 H 0.03621 1.00302 0.29449 0.0
H2909 H 0.13952 0.00524 0.29224 0.0
H2910 H 0.16653 0.99883 0.32091 0.0
H2911 H 0.06338 0.99608 0.32318 0.0
H2912 H 0.21978 0.02565 0.29896 0.0
H2913 H 0.26569 0.9643 0.31038 0.0
H2914 H 0.19405 0.97114 0.3081 0.0
H2915 H 0.22846 0.9759 0.31866 0.0
C2916 C 0.06416 1.00213 0.30033 0.0
C2917 C 0.04183 0.99918 0.309 0.0
C2918 C 0.12313 0.0034 0.29902 0.0
C2919 C 0.16071 1.00184 0.30638 0.0
C2920 C 0.13835 0.9996 0.31511 0.0
H2921 H 0.52523 1.00211 0.31418 0.0
H2922 H 0.42128 1.00099 0.31548 0.0
C2923 C 0.07943 0.99811 0.3164 0.0
C2924 C 0.2233 1.00235 0.3049 0.0
H2925 H 0.34572 0.98108 0.30801 0.0
C2926 C 0.2474 0.01589 0.30089 0.0
C2927 C 0.25907 0.98955 0.30738 0.0
C2928 C 0.2355 0.97434 0.31128 0.0
C2929 C 0.30666 0.0172 0.29956 0.0
C2930 C 0.34249 0.00446 0.30217 0.0
C2931 C 0.3182 0.99085 0.30605 0.0
C2932 C 0.40551 0.00512 0.30122 0.0
C2933 C 0.33033 0.03237 0.29564 0.0
C2934 C 0.43123 0.00752 0.29274 0.0
C2935 C 0.49076 0.00835 0.292 0.0
C2936 C 0.52548 0.00643 0.29969 0.0
C2937 C 0.49964 0.00351 0.30812 0.0
C2938 C 0.44023 1.00293 0.30887 0.0
H2939 H 0.29962 0.04234 0.29632 0.0
H2940 H 0.37103 0.03577 0.299 0.0
H2941 H 0.33891 0.03065 0.28832 0.0
H2942 H 0.40534 0.00877 0.2867 0.0
H2943 H 0.50957 0.01052 0.28541 0.0
H2944 H 0.28016 0.50608 0.56441 0.0
H2945 H 0.17617 0.50849 0.56598 0.0
H2946 H 0.15399 0.49097 0.53877 0.0
H2947 H 0.25742 0.48834 0.53718 0.0
H2948 H 0.09925 0.52632 0.55556 0.0
H2949 H 0.04833 0.46217 0.5535 0.0
H2950 H 0.11991 0.46943 0.55548 0.0
H2951 H 0.09052 0.46939 0.54422 0.0
C2952 C 0.25314 0.50273 0.55876 0.0
C2953 C 0.27715 0.49695 0.55068 0.0
C2954 C 0.19375 0.5041 0.55967 0.0
C2955 C 0.15731 0.49964 0.55255 0.0
C2956 C 0.1812 0.49413 0.54443 0.0
H2957 H 0.79134 0.49979 0.54288 0.0
H2958 H 0.89542 0.49706 0.54199 0.0
C2959 C 0.24045 0.49274 0.54352 0.0
C2960 C 0.09434 0.50111 0.5535 0.0
H2961 H 0.96974 0.47996 0.55268 0.0
C2962 C 0.07091 0.51618 0.555 0.0
C2963 C 0.05747 0.48785 0.55273 0.0
C2964 C 0.08024 0.47127 0.55147 0.0
C2965 C 0.0115 0.51844 0.55553 0.0
C2966 C 0.97457 0.5052 0.55472 0.0
C2967 C 0.99806 0.4901 0.55328 0.0
C2968 C 0.91143 0.50676 0.55532 0.0
C2969 C 0.98883 0.53506 0.55669 0.0
C2970 C 0.88576 0.51288 0.56316 0.0
C2971 C 0.82638 0.51455 0.56367 0.0
C2972 C 0.79135 0.50995 0.55637 0.0
C2973 C 0.81707 0.5035 0.5486 0.0
C2974 C 0.87655 0.50191 0.54809 0.0
H2975 H 0.02098 0.54412 0.55469 0.0
H2976 H 0.94948 0.53691 0.55261 0.0
H2977 H 0.97813 0.53703 0.56392 0.0
H2978 H 0.91166 0.51631 0.56892 0.0
H2979 H 0.80797 0.5194 0.56979 0.0
H2980 H 0.4684 0.74611 0.54258 0.0
H2981 H 0.36438 0.74816 0.54078 0.0
H2982 H 0.34681 0.75743 0.56934 0.0
H2983 H 0.45066 0.75533 0.57123 0.0
H2984 H 0.2762 0.73009 0.55982 0.0
H2985 H 0.26023 0.79065 0.54486 0.0
H2986 H 0.31735 0.7777 0.54132 0.0
H2987 H 0.3169 0.78538 0.55263 0.0
C2988 C 0.44246 0.74878 0.54846 0.0
C2989 C 0.46764 0.75053 0.55705 0.0
C2990 C 0.38314 0.74993 0.54741 0.0
C2991 C 0.34824 0.75299 0.55493 0.0
C2992 C 0.37324 0.75503 0.56348 0.0
H2993 H 0.98559 0.76908 0.56177 0.0
H2994 H 0.08996 0.76872 0.56302 0.0
C2995 C 0.43247 0.75381 0.56454 0.0
C2996 C 0.28536 0.75331 0.55395 0.0
H2997 H 0.17435 0.77627 0.54663 0.0
C2998 C 0.25383 0.74015 0.55692 0.0
C2999 C 0.25668 0.7665 0.5502 0.0
C3000 C 0.28914 0.78095 0.54707 0.0
C3001 C 0.19401 0.7398 0.55618 0.0
C3002 C 0.1653 0.75295 0.5524 0.0
C3003 C 0.19677 0.76618 0.54949 0.0
C3004 C 0.10236 0.75321 0.55154 0.0
C3005 C 0.16155 0.72549 0.55952 0.0
C3006 C 0.07509 0.74463 0.54465 0.0
C3007 C 0.01548 0.74485 0.54387 0.0
C3008 C 0.9822 0.75359 0.55003 0.0
C3009 C 0.00989 0.76214 0.55695 0.0
C3010 C 0.06948 0.76202 0.55766 0.0
H3011 H 0.18965 0.71694 0.56312 0.0
H3012 H 0.12676 0.72923 0.56417 0.0
H3013 H 0.14141 0.71936 0.55369 0.0
H3014 H 0.09999 0.73779 0.53986 0.0
H3015 H 0.99552 0.73816 0.53847 0.0
H3016 H 0.8168 0.71988 0.67758 0.0
H3017 H 0.91978 0.7245 0.67833 0.0
H3018 H 0.89219 0.77458 0.67422 0.0
H3019 H 0.78858 0.77006 0.67394 0.0
H3020 H 0.99002 0.73515 0.66601 0.0
H3021 H 0.99826 0.77638 0.69528 0.0
H3022 H 0.93416 0.76571 0.69227 0.0
H3023 H 0.95446 0.78327 0.68612 0.0
C3024 C 0.83268 0.7319 0.67691 0.0
C3025 C 0.79474 0.74463 0.67575 0.0
C3026 C 0.89157 0.73453 0.67733 0.0
C3027 C 0.91398 0.74992 0.67645 0.0
C3028 C 0.87608 0.76266 0.67518 0.0
H3029 H 0.2809 0.76352 0.66581 0.0
H3030 H 0.17653 0.76308 0.66429 0.0
C3031 C 0.81689 0.76007 0.67497 0.0
C3032 C 0.97706 0.75232 0.6766 0.0
H3033 H 0.08533 0.77164 0.6876 0.0
C3034 C 0.01078 0.74316 0.67073 0.0
C3035 C 0.00431 0.76274 0.68278 0.0
C3036 C 0.97103 0.77248 0.68953 0.0
C3037 C 0.07074 0.74385 0.67097 0.0
C3038 C 0.0979 0.7543 0.6771 0.0
C3039 C 0.06434 0.76369 0.68287 0.0
C3040 C 0.1611 0.755 0.67799 0.0
C3041 C 0.10452 0.73294 0.6649 0.0
C3042 C 0.18701 0.75096 0.68625 0.0
C3043 C 0.24649 0.75137 0.68717 0.0
C3044 C 0.28129 0.75575 0.67982 0.0
C3045 C 0.25527 0.75986 0.67155 0.0
C3046 C 0.19566 0.7596 0.67067 0.0
H3047 H 0.07751 0.72333 0.66203 0.0
H3048 H 0.12261 0.73985 0.65919 0.0
H3049 H 0.14056 0.72747 0.66867 0.0
H3050 H 0.16117 0.74736 0.69198 0.0
H3051 H 0.26521 0.74814 0.69362 0.0
H3052 H 0.99202 0.51368 0.69384 0.0
H3053 H 0.09608 0.51414 0.69215 0.0
H3054 H 0.08103 0.48914 0.66678 0.0
H3055 H 0.97691 0.48919 0.66825 0.0
H3056 H 0.17102 0.49013 0.69119 0.0
H3057 H 0.18275 0.52512 0.65943 0.0
H3058 H 0.1175 0.52319 0.66584 0.0
H3059 H 0.14016 0.50753 0.65838 0.0
C3060 C 0.01088 0.50844 0.68785 0.0
C3061 C 0.97626 0.50157 0.68112 0.0
C3062 C 0.07035 0.50867 0.68691 0.0
C3063 C 0.09641 0.50193 0.67926 0.0
C3064 C 0.06191 0.49484 0.6726 0.0
H3065 H 0.44928 0.4925 0.66175 0.0
H3066 H 0.34573 0.49023 0.66364 0.0
C3067 C 1.00238 0.49482 0.67347 0.0
C3068 C 0.15969 0.50201 0.67839 0.0
H3069 H 0.26912 0.51356 0.66459 0.0
C3070 C 0.19251 0.49531 0.68539 0.0
C3071 C 0.18771 0.50871 0.67081 0.0
C3072 C 0.15527 0.51668 0.66323 0.0
C3073 C 0.25249 0.49494 0.68495 0.0
C3074 C 0.28048 0.50171 0.67738 0.0
C3075 C 0.24764 0.50834 0.67038 0.0
C3076 C 0.34374 0.50226 0.67658 0.0
C3077 C 0.28509 0.48701 0.69253 0.0
C3078 C 0.37716 0.50977 0.68323 0.0
C3079 C 0.43648 0.51089 0.68222 0.0
C3080 C 0.46331 0.50483 0.67445 0.0
C3081 C 0.4298 0.49735 0.6678 0.0
C3082 C 0.37064 0.49603 0.66887 0.0
H3083 H 0.25793 0.47837 0.69624 0.0
H3084 H 0.32343 0.48074 0.68993 0.0
H3085 H 0.29935 0.49615 0.69744 0.0
H3086 H 0.35729 0.51507 0.68911 0.0
H3087 H 0.46111 0.51687 0.68742 0.0
H3088 H 0.74193 0.50955 0.44559 0.0
H3089 H 0.84595 0.50844 0.44392 0.0
H3090 H 0.82686 0.5012 0.41518 0.0
H3091 H 0.72273 0.5023 0.41676 0.0
H3092 H 0.91192 0.48285 0.43646 0.0
H3093 H 0.94015 0.53917 0.41743 0.0
H3094 H 0.87635 0.53472 0.42384 0.0
H3095 H 0.88719 0.52587 0.41292 0.0
C3096 C 0.7598 0.5077 0.43891 0.0
C3097 C 0.72405 0.50598 0.43131 0.0
C3098 C 0.81923 0.50709 0.43798 0.0
C3099 C 0.84399 0.50496 0.42942 0.0
C3100 C 0.80852 0.5031 0.42182 0.0
H3101 H 0.18926 0.49389 0.4093 0.0
H3102 H 0.08581 0.4969 0.41113 0.0
C3103 C 0.74905 0.50359 0.42275 0.0
C3104 C 0.90695 0.50416 0.42848 0.0
H3105 H 0.02171 0.52264 0.41881 0.0
C3106 C 0.93604 0.49158 0.43264 0.0
C3107 C 0.9381 0.51559 0.4235 0.0
C3108 C 0.90909 0.5297 0.41922 0.0
C3109 C 0.99547 0.4899 0.43178 0.0
C3110 C 0.02665 0.50128 0.42676 0.0
C3111 C 0.99761 0.51393 0.42264 0.0
C3112 C 0.08945 0.50013 0.42565 0.0
C3113 C 0.02426 0.47576 0.43607 0.0
C3114 C 0.12576 0.50125 0.43319 0.0
C3115 C 0.18484 0.49955 0.43217 0.0
C3116 C 0.20872 0.49672 0.42358 0.0
C3117 C 0.17226 0.49596 0.41601 0.0
C3118 C 0.11316 0.49772 0.41704 0.0
H3119 H 0.99307 0.46631 0.43785 0.0
H3120 H 0.05696 0.47069 0.43146 0.0
H3121 H 0.04609 0.47956 0.44238 0.0
H3122 H 0.10833 0.50338 0.43988 0.0
H3123 H 0.21168 0.50028 0.43814 0.0
H3124 H 0.03066 0.2433 0.41573 0.0
H3125 H 0.92618 0.24475 0.41441 0.0
H3126 H 0.91349 0.25492 0.44294 0.0
H3127 H 0.01763 0.25335 0.44435 0.0
H3128 H 0.84131 0.22563 0.42576 0.0
H3129 H 0.82265 0.29121 0.42879 0.0
H3130 H 0.88766 0.28161 0.42513 0.0
H3131 H 0.86802 0.28132 0.43687 0.0
C3132 C 0.00567 0.24595 0.42171 0.0
C3133 C 0.03249 0.24827 0.43014 0.0
C3134 C 0.94602 0.2467 0.42095 0.0
C3135 C 0.91228 0.25003 0.42857 0.0
C3136 C 0.93887 0.25244 0.43697 0.0
H3137 H 0.54514 0.25338 0.43847 0.0
H3138 H 0.64944 0.2513 0.44001 0.0
C3139 C 0.99838 0.25152 0.43776 0.0
C3140 C 0.84916 0.25082 0.42778 0.0
H3141 H 0.73646 0.27653 0.4285 0.0
C3142 C 0.81834 0.23675 0.42633 0.0
C3143 C 0.81945 0.26534 0.42855 0.0
C3144 C 0.85089 0.2808 0.42987 0.0
C3145 C 0.75834 0.23685 0.42573 0.0
C3146 C 0.72875 0.25136 0.42652 0.0
C3147 C 0.75948 0.26542 0.42795 0.0
C3148 C 0.66582 0.25221 0.42561 0.0
C3149 C 0.72656 0.22149 0.42428 0.0
C3150 C 0.64088 0.25343 0.41701 0.0
C3151 C 0.58155 0.25474 0.4161 0.0
C3152 C 0.54605 0.25475 0.42379 0.0
C3153 C 0.57126 0.25334 0.43241 0.0
C3154 C 0.63075 0.25218 0.43331 0.0
H3155 H 0.75552 0.21106 0.42434 0.0
H3156 H 0.69374 0.21995 0.42964 0.0
H3157 H 0.7039 0.2219 0.41767 0.0
H3158 H 0.66741 0.25348 0.411 0.0
H3159 H 0.56352 0.25573 0.40937 0.0
H3160 H 0.21292 0.25319 0.29305 0.0
H3161 H 0.1096 0.24987 0.29125 0.0
H3162 H 0.08676 0.25694 0.31996 0.0
H3163 H 0.18981 0.26085 0.32175 0.0
H3164 H 0.03372 0.22903 0.29827 0.0
H3165 H 0.98001 0.28978 0.30978 0.0
H3166 H 0.05235 0.28378 0.30734 0.0
H3167 H 0.01981 0.27867 0.318 0.0
C3168 C 0.18587 0.25402 0.29898 0.0
C3169 C 0.2093 0.2575 0.30752 0.0
C3170 C 0.12686 0.25211 0.29794 0.0
C3171 C 0.09033 0.25354 0.30543 0.0
C3172 C 0.11395 0.2563 0.31403 0.0
H3173 H 0.72503 0.24896 0.31364 0.0
H3174 H 0.82888 0.25074 0.31507 0.0
C3175 C 0.17285 0.25843 0.31506 0.0
C3176 C 0.02754 0.25227 0.30421 0.0
H3177 H 0.90225 0.27208 0.30766 0.0
C3178 C 0.00494 0.23846 0.30028 0.0
C3179 C 0.9901 0.26463 0.30681 0.0
C3180 C 0.01177 0.28011 0.31063 0.0
C3181 C 0.94577 0.23651 0.29907 0.0
C3182 C 0.90835 0.24881 0.30176 0.0
C3183 C 0.93101 0.26265 0.30564 0.0
C3184 C 0.84541 0.24754 0.30077 0.0
C3185 C 0.92389 0.22114 0.29515 0.0
C3186 C 0.82013 0.24537 0.29223 0.0
C3187 C 0.76068 0.24422 0.2914 0.0
C3188 C 0.72547 0.24551 0.29908 0.0
C3189 C 0.75091 0.24801 0.30759 0.0
C3190 C 0.81028 0.24899 0.30842 0.0
H3191 H 0.95604 0.2115 0.29572 0.0
H3192 H 0.884 0.21728 0.29858 0.0
H3193 H 0.91431 0.22287 0.28785 0.0
H3194 H 0.84632 0.24465 0.2862 0.0
H3195 H 0.74231 0.2424 0.28474 0.0
H3196 H 0.02444 0.50975 0.31485 0.0
H3197 H 0.92017 0.50955 0.31645 0.0
H3198 H 0.90224 0.4995 0.28797 0.0
H3199 H 0.00648 0.49973 0.28628 0.0
H3200 H 0.83441 0.52768 0.29685 0.0
H3201 H 0.81141 0.46825 0.31301 0.0
H3202 H 0.86905 0.48099 0.31661 0.0
H3203 H 0.86971 0.47282 0.30541 0.0
C3204 C 0.99838 0.50729 0.30895 0.0
C3205 C 0.02369 0.50471 0.30044 0.0
C3206 C 0.93889 0.50724 0.30987 0.0
C3207 C 0.90383 0.50449 0.30233 0.0
C3208 C 0.92881 0.50169 0.29386 0.0
H3209 H 0.5391 0.49378 0.29474 0.0
H3210 H 0.64329 0.49439 0.29306 0.0
C3211 C 0.98828 0.5018 0.29291 0.0
C3212 C 0.84095 0.50482 0.30326 0.0
H3213 H 0.72754 0.48342 0.31119 0.0
C3214 C 0.81094 0.51803 0.29997 0.0
C3215 C 0.81081 0.49218 0.30734 0.0
C3216 C 0.84152 0.47767 0.31078 0.0
C3217 C 0.75118 0.51894 0.30074 0.0
C3218 C 0.72113 0.50631 0.30484 0.0
C3219 C 0.75107 0.49309 0.30808 0.0
C3220 C 0.6583 0.50656 0.30572 0.0
C3221 C 0.72019 0.53334 0.29721 0.0
C3222 C 0.6327 0.51324 0.3134 0.0
C3223 C 0.57327 0.51284 0.31441 0.0
C3224 C 0.5386 0.50582 0.30773 0.0
C3225 C 0.56457 0.49936 0.29998 0.0
C3226 C 0.624 0.49966 0.29901 0.0
H3227 H 0.74969 0.54205 0.29404 0.0
H3228 H 0.6877 0.52967 0.29214 0.0
H3229 H 0.69718 0.53922 0.30286 0.0
H3230 H 0.65876 0.51862 0.31863 0.0
H3231 H 0.55453 0.51797 0.32044 0.0
H3232 H 0.8127 0.01063 0.07201 0.0
H3233 H 0.91611 0.00749 0.07033 0.0
H3234 H 0.89464 0.99994 0.04165 0.0
H3235 H 0.79127 0.00329 0.04323 0.0
H3236 H 0.9801 0.9822 0.06383 0.0
H3237 H 0.01215 0.03571 0.04253 0.0
H3238 H 0.94684 0.03206 0.04869 0.0
H3239 H 0.95993 0.02212 0.03813 0.0
C3240 C 0.82991 0.00832 0.06534 0.0
C3241 C 0.79369 0.00736 0.05774 0.0
C3242 C 0.88906 0.00651 0.06439 0.0
C3243 C 0.91319 0.00377 0.05584 0.0
C3244 C 0.87707 1.00241 0.04828 0.0
H3245 H 0.25737 0.98716 0.03616 0.0
H3246 H 0.1538 0.98996 0.03801 0.0
C3247 C 0.81793 0.00424 0.04921 0.0
C3248 C 0.97613 1.00229 0.05484 0.0
H3249 H 0.0919 0.01854 0.04418 0.0
C3250 C 0.0046 0.99019 0.05957 0.0
C3251 C 0.00805 0.01276 0.0493 0.0
C3252 C 0.98037 0.02649 0.04443 0.0
C3253 C 0.06399 0.9881 0.05876 0.0
C3254 C 0.09568 0.99847 0.05316 0.0
C3255 C 0.06733 0.01058 0.04845 0.0
C3256 C 0.15842 0.99693 0.05208 0.0
C3257 C 0.09236 0.97465 0.06378 0.0
C3258 C 0.19528 1.00018 0.05935 0.0
C3259 C 0.2545 0.99873 0.0583 0.0
C3260 C 0.27789 0.99393 0.04996 0.0
C3261 C 0.24076 0.99084 0.04267 0.0
C3262 C 0.1816 0.99243 0.04371 0.0
H3263 H 0.06074 0.96593 0.06639 0.0
H3264 H 0.12307 0.96838 0.0593 0.0
H3265 H 0.11665 0.97948 0.06962 0.0
H3266 H 0.1782 0.00386 0.06583 0.0
H3267 H 0.28186 1.00117 0.06406 0.0
H3268 H 0.99211 0.26112 0.03652 0.0
H3269 H 0.09632 0.25997 0.03783 0.0
H3270 H 0.08106 0.25254 0.06662 0.0
H3271 H 0.97682 0.25321 0.06532 0.0
H3272 H 0.17108 0.27826 0.04708 0.0
H3273 H 0.18497 0.21657 0.05978 0.0
H3274 H 0.11982 0.22472 0.05519 0.0
H3275 H 0.14047 0.22892 0.06669 0.0
C3276 C 0.0109 0.2591 0.04312 0.0
C3277 C 0.97605 0.25703 0.0508 0.0
C3278 C 0.07055 0.2585 0.04386 0.0
C3279 C 0.09671 0.25586 0.05229 0.0
C3280 C 0.062 0.25412 0.06 0.0
H3281 H 0.44403 0.24973 0.07234 0.0
H3282 H 0.34058 0.25159 0.07028 0.0
C3283 C 1.00232 0.25457 0.05925 0.0
C3284 C 0.16022 0.25514 0.05304 0.0
H3285 H 0.2703 0.23189 0.06047 0.0
C3286 C 0.1928 0.26808 0.04996 0.0
C3287 C 0.18872 0.24183 0.05676 0.0
C3288 C 0.15677 0.22716 0.05971 0.0
C3289 C 0.2528 0.26826 0.05073 0.0
C3290 C 0.28114 0.25505 0.05458 0.0
C3291 C 0.2486 0.24206 0.05757 0.0
C3292 C 0.3444 0.25449 0.05573 0.0
C3293 C 0.28513 0.28277 0.04763 0.0
C3294 C 0.38122 0.2554 0.04823 0.0
C3295 C 0.44062 0.25441 0.04939 0.0
C3296 C 0.46439 0.25232 0.05807 0.0
C3297 C 0.42733 0.25134 0.06556 0.0
C3298 C 0.36807 0.2524 0.06439 0.0
H3299 H 0.25676 0.29328 0.04704 0.0
H3300 H 0.32056 0.28564 0.05237 0.0
H3301 H 0.30384 0.28046 0.04086 0.0
H3302 H 0.36401 0.25664 0.04146 0.0
H3303 H 0.46783 0.25507 0.04347 0.0
H3304 H 0.78313 0.26352 0.18305 0.0
H3305 H 0.88572 0.26791 0.18538 0.0
H3306 H 0.92332 0.23671 0.16305 0.0
H3307 H 0.82126 0.23239 0.1606 0.0
H3308 H 0.96905 0.24489 0.18938 0.0
H3309 H 0.01912 0.27601 0.15725 0.0
H3310 H 0.94696 0.27364 0.16138 0.0
H3311 H 0.98216 0.25754 0.15568 0.0
C3312 C 0.8132 0.25778 0.17854 0.0
C3313 C 0.79391 0.24767 0.1716 0.0
C3314 C 0.87181 0.26025 0.17992 0.0
C3315 C 0.91215 0.25278 0.17433 0.0
C3316 C 0.89298 0.24283 0.16734 0.0
H3317 H 0.28115 0.24569 0.17134 0.0
H3318 H 0.17765 0.24237 0.16967 0.0
C3319 C 0.83452 0.24034 0.16597 0.0
C3320 C 0.97435 0.25486 0.17598 0.0
H3321 H 0.0985 0.26687 0.1659 0.0
C3322 C 0.99734 0.24982 0.18428 0.0
C3323 C 0.01118 0.26126 0.16931 0.0
C3324 C 0.98864 0.26757 0.16043 0.0
C3325 C 0.05641 0.25062 0.186 0.0
C3326 C 0.09329 0.25681 0.17928 0.0
C3327 C 0.0702 0.26201 0.17102 0.0
C3328 C 0.15597 0.25815 0.18068 0.0
C3329 C 0.07908 0.24444 0.1949 0.0
C3330 C 0.17812 0.26809 0.18745 0.0
C3331 C 0.23721 0.26999 0.18844 0.0
C3332 C 0.27539 0.26205 0.18265 0.0
C3333 C 0.25304 0.25193 0.17595 0.0
C3334 C 0.19389 0.25005 0.17496 0.0
H3335 H 0.04761 0.23664 0.19836 0.0
H3336 H 0.11934 0.23771 0.19388 0.0
H3337 H 0.0885 0.25459 0.19944 0.0
H3338 H 0.14966 0.27468 0.19183 0.0
H3339 H 0.25287 0.27796 0.19363 0.0
H3340 H 0.46093 0.01315 0.18581 0.0
H3341 H 0.35663 0.01367 0.18739 0.0
H3342 H 0.33913 0.98739 0.16252 0.0
H3343 H 0.44339 0.98694 0.16081 0.0
H3344 H 0.27276 0.02474 0.17054 0.0
H3345 H 0.24644 0.96473 0.18585 0.0
H3346 H 0.3106 0.97632 0.18756 0.0
H3347 H 0.29689 0.96751 0.17674 0.0
C3348 C 0.43498 0.0074 0.1807 0.0
C3349 C 0.46049 0.99997 0.17318 0.0
C3350 C 0.37545 0.00776 0.1816 0.0
C3351 C 0.34048 1.00056 0.17508 0.0
C3352 C 0.36561 0.993 0.16762 0.0
H3353 H 0.97371 1.00184 0.16548 0.0
H3354 H 0.07811 1.00218 0.16395 0.0
C3355 C 0.42513 0.99276 0.16666 0.0
C3356 C 0.27755 1.00111 0.17599 0.0
H3357 H 0.16252 0.9794 0.18301 0.0
C3358 C 0.24851 0.01484 0.17325 0.0
C3359 C 0.24644 0.9882 0.17957 0.0
C3360 C 0.27631 0.97331 0.18265 0.0
C3361 C 0.18872 0.01594 0.17394 0.0
C3362 C 0.15749 1.00297 0.17746 0.0
C3363 C 0.18668 0.9893 0.18028 0.0
C3364 C 0.09443 0.00344 0.17835 0.0
C3365 C 0.1592 0.031 0.17105 0.0
C3366 C 0.06922 0.00398 0.18695 0.0
C3367 C 0.00971 0.00376 0.18786 0.0
C3368 C 0.97433 1.00298 0.18016 0.0
C3369 C 0.99976 1.00267 0.17153 0.0
C3370 C 0.05935 1.00282 0.17064 0.0
H3371 H 0.19006 0.04068 0.16957 0.0
H3372 H 0.13366 0.02869 0.16485 0.0
H3373 H 0.12931 0.03503 0.17642 0.0
H3374 H 0.09566 0.00447 0.19298 0.0
H3375 H 0.99143 0.00404 0.19459 0.0
H3376 H 0.71796 0.99584 0.9209 0.0
H3377 H 0.82094 0.99126 0.91981 0.0
H3378 H 0.8517 0.02942 0.93862 0.0
H3379 H 0.74878 0.03394 0.93987 0.0
H3380 H 0.90304 0.01258 0.91387 0.0
H3381 H 0.94822 0.99362 0.94917 0.0
H3382 H 0.87666 0.9944 0.9446 0.0
H3383 H 0.91166 0.01226 0.94828 0.0
C3384 C 0.74655 0.00316 0.92488 0.0
C3385 C 0.72508 0.01523 0.9305 0.0
C3386 C 0.80541 1.00054 0.92424 0.0
C3387 C 0.84395 0.00986 0.92922 0.0
C3388 C 0.82269 0.02186 0.93487 0.0
H3389 H 0.21515 0.01475 0.93178 0.0
H3390 H 0.11244 0.01945 0.93344 0.0
C3391 C 0.76381 0.02448 0.93553 0.0
C3392 C 0.90641 0.0075 0.92816 0.0
H3393 H 0.02854 0.99837 0.93973 0.0
C3394 C 0.93047 0.0094 0.91952 0.0
C3395 C 0.94211 0.00344 0.93554 0.0
C3396 C 0.91841 1.00066 0.94491 0.0
C3397 C 0.98938 0.00753 0.91807 0.0
C3398 C 0.02502 0.00338 0.92544 0.0
C3399 C 1.00107 1.00156 0.93409 0.0
C3400 C 0.08721 1.00067 0.92429 0.0
C3401 C 0.01309 0.01031 0.9087 0.0
C3402 C 0.10703 0.98848 0.91865 0.0
C3403 C 0.16565 0.98578 0.91767 0.0
C3404 C 0.2056 0.99517 0.92237 0.0
C3405 C 0.18556 0.00733 0.92805 0.0
C3406 C 0.12689 0.01002 0.92902 0.0
H3407 H 0.9834 0.01742 0.90446 0.0
H3408 H 0.05498 0.0165 0.90901 0.0
H3409 H 0.01958 0.99872 0.90531 0.0
H3410 H 0.0771 0.98091 0.91508 0.0
H3411 H 0.17956 0.97625 0.91328 0.0
H3412 H 0.01815 0.75642 0.94438 0.0
H3413 H 0.91364 0.75731 0.94321 0.0
H3414 H 0.92473 0.74746 0.91463 0.0
H3415 H 0.02939 0.74677 0.9157 0.0
H3416 H 0.8457 0.77805 0.92994 0.0
H3417 H 0.81228 0.71293 0.92675 0.0
H3418 H 0.87521 0.72135 0.93199 0.0
H3419 H 0.86772 0.72168 0.91991 0.0
C3420 C 0.99838 0.75449 0.93783 0.0
C3421 C 0.03204 0.75157 0.93012 0.0
C3422 C 0.93872 0.755 0.93719 0.0
C3423 C 0.91162 0.75232 0.92885 0.0
C3424 C 0.94497 0.74946 0.92113 0.0
H3425 H 0.56417 0.753 0.90901 0.0
H3426 H 0.66789 0.75121 0.91106 0.0
C3427 C 0.0047 0.74916 0.92175 0.0
C3428 C 0.84841 0.75273 0.9282 0.0
H3429 H 0.73096 0.72929 0.9249 0.0
C3430 C 0.82052 0.7674 0.92889 0.0
C3431 C 0.81588 0.7388 0.92684 0.0
C3432 C 0.84396 0.72273 0.92638 0.0
C3433 C 0.7608 0.76852 0.92806 0.0
C3434 C 0.72831 0.75461 0.92662 0.0
C3435 C 0.75614 0.73992 0.926 0.0
C3436 C 0.6654 0.75519 0.92551 0.0
C3437 C 0.73268 0.78458 0.92853 0.0
C3438 C 0.62976 0.75784 0.933 0.0
C3439 C 0.57039 0.75873 0.93187 0.0
C3440 C 0.54579 0.75714 0.92322 0.0
C3441 C 0.58176 0.75437 0.91576 0.0
C3442 C 0.64099 0.7533 0.91691 0.0
H3443 H 0.76442 0.79439 0.92859 0.0
H3444 H 0.70349 0.78622 0.92267 0.0
H3445 H 0.70657 0.78534 0.93478 0.0
H3446 H 0.64793 0.75928 0.9397 0.0
H3447 H 0.54387 0.76091 0.93775 0.0
H3448 H 0.21396 0.73696 0.81504 0.0
H3449 H 0.11026 0.73286 0.81314 0.0
H3450 H 0.09654 0.77837 0.79998 0.0
H3451 H 0.19941 0.78267 0.80209 0.0
H3452 H 0.01916 0.75582 0.81961 0.0
H3453 H 0.02052 0.74404 0.78253 0.0
H3454 H 0.0836 0.74197 0.7895 0.0
H3455 H 0.05909 0.76132 0.78628 0.0
C3456 C 0.18852 0.74601 0.81174 0.0
C3457 C 0.21387 0.76013 0.80874 0.0
C3458 C 0.12967 0.74369 0.81067 0.0
C3459 C 0.09622 0.75529 0.80638 0.0
C3460 C 0.12186 0.7693 0.80328 0.0
H3461 H 0.72578 0.76569 0.80227 0.0
H3462 H 0.82868 0.77103 0.80379 0.0
C3463 C 0.18027 0.77176 0.80452 0.0
C3464 C 0.03411 0.75301 0.80532 0.0
H3465 H 0.92996 0.74644 0.78957 0.0
C3466 C 0.99952 0.75377 0.81306 0.0
C3467 C 0.00907 0.75038 0.79674 0.0
C3468 C 0.04485 0.74926 0.78827 0.0
C3469 C 0.94003 0.752 0.81242 0.0
C3470 C 0.91504 0.74937 0.80384 0.0
C3471 C 0.9496 0.74859 0.79611 0.0
C3472 C 0.85332 0.74638 0.80285 0.0
C3473 C 0.90414 0.75265 0.82089 0.0
C3474 C 0.83387 0.73082 0.80173 0.0
C3475 C 0.77559 0.72774 0.8008 0.0
C3476 C 0.73577 0.74022 0.801 0.0
C3477 C 0.7555 0.75586 0.8021 0.0
C3478 C 0.81404 0.75892 0.80298 0.0
H3479 H 0.93044 0.75434 0.82708 0.0
H3480 H 0.87314 0.76256 0.82038 0.0
H3481 H 0.87919 0.7415 0.82158 0.0
H3482 H 0.86382 0.72102 0.80165 0.0
H3483 H 0.76174 0.71555 0.80008 0.0
H3484 H 0.53371 0.01603 0.79883 0.0
H3485 H 0.63659 0.02029 0.7969 0.0
H3486 H 0.6714 0.98156 0.81515 0.0
H3487 H 0.56877 0.97718 0.81713 0.0
H3488 H 0.72114 0.02647 0.81096 0.0
H3489 H 0.76362 0.97114 0.79169 0.0
H3490 H 0.69284 0.97944 0.79285 0.0
H3491 H 0.7244 0.96863 0.80206 0.0
C3492 C 0.56322 0.00841 0.80244 0.0
C3493 C 0.54304 0.99622 0.80811 0.0
C3494 C 0.62193 0.01088 0.80133 0.0
C3495 C 0.66141 1.0011 0.80579 0.0
C3496 C 0.6415 0.98907 0.81154 0.0
H3497 H 0.03008 0.99544 0.80921 0.0
H3498 H 0.92673 0.99143 0.81049 0.0
C3499 C 0.58284 0.98665 0.8127 0.0
C3500 C 0.72353 0.0036 0.80453 0.0
H3501 H 0.84442 0.98604 0.79637 0.0
C3502 C 0.74813 0.0177 0.80773 0.0
C3503 C 0.75841 0.99209 0.80031 0.0
C3504 C 0.73361 0.97701 0.79645 0.0
C3505 C 0.80716 0.02045 0.807 0.0
C3506 C 0.84212 0.0089 0.80282 0.0
C3507 C 0.81743 0.99484 0.79958 0.0
C3508 C 0.90458 0.01116 0.80182 0.0
C3509 C 0.8319 0.0355 0.8109 0.0
C3510 C 0.92623 0.0234 0.79638 0.0
C3511 C 0.98522 0.0257 0.7956 0.0
C3512 C 0.02362 0.01578 0.80025 0.0
C3513 C 1.0017 0.00332 0.80555 0.0
C3514 C 0.94269 1.001 0.8063 0.0
H3515 H 0.80173 0.04138 0.81564 0.0
H3516 H 0.87247 0.03304 0.81455 0.0
H3517 H 0.84142 0.0439 0.80532 0.0
H3518 H 0.89747 0.0312 0.79274 0.0
H3519 H 1.00063 0.03539 0.79144 0.0
H3520 H 0.11064 0.51764 0.02564 0.0
H3521 H 0.1008 0.51761 0.00921 0.0
H3522 H 0.93858 0.4936 0.01154 0.0
H3523 H 0.94764 0.49365 0.02806 0.0
H3524 H 0.08983 0.49045 -0.00185 0.0
H3525 H 0.90519 0.53136 -0.00551 0.0
H3526 H 0.94731 0.53019 0.00472 0.0
H3527 H 0.89443 0.51531 0.00231 0.0
C3528 C 0.07258 0.51242 0.02269 0.0
C3529 C 0.02993 0.5056 0.02818 0.0
C3530 C 0.06714 0.51242 0.01329 0.0
C3531 C 0.01885 0.50572 0.00919 0.0
C3532 C 0.97581 0.49905 0.01461 0.0
H3533 H 0.91226 0.48471 0.95518 0.0
H3534 H 0.92751 0.48672 0.97144 0.0
C3535 C 0.98119 0.49902 0.02404 0.0
C3536 C 0.0149 0.50516 -0.00078 0.0
H3537 H 0.93485 0.51763 0.98126 0.0
C3538 C 0.05625 0.49648 -0.00556 0.0
C3539 C 0.97112 0.5131 -0.00557 0.0
C3540 C 0.9272 0.52314 -0.00078 0.0
C3541 C 0.05404 0.49521 0.98498 0.0
C3542 C 0.00974 0.50293 0.98022 0.0
C3543 C 0.9688 0.51176 0.98498 0.0
C3544 C 0.00317 0.50132 0.97034 0.0
C3545 C 0.0979 0.48525 0.98012 0.0
C3546 C 0.04109 0.50884 0.96435 0.0
C3547 C 0.03245 0.50779 0.95499 0.0
C3548 C 0.98576 0.4992 0.95152 0.0
C3549 C 0.94859 0.49148 0.95759 0.0
C3550 C 0.95712 0.4926 0.9669 0.0
H3551 H 0.12523 0.47845 0.9849 0.0
H3552 H 0.07644 0.47681 0.97545 0.0
H3553 H 0.12582 0.49305 0.97599 0.0
H3554 H 0.07667 0.51573 0.96693 0.0
H3555 H 0.06167 0.5139 0.9505 0.0
H3556 H 0.189 0.76533 0.95079 0.0
H3557 H 0.17637 0.7644 0.96725 0.0
H3558 H 0.33287 0.73783 0.96987 0.0
H3559 H 0.3461 0.7387 0.95348 0.0
H3560 H 0.17256 0.73697 0.97934 0.0
H3561 H 0.35513 0.77743 0.98627 0.0
H3562 H 0.32237 0.77577 0.97523 0.0
H3563 H 0.37135 0.76083 0.9791 0.0
C3564 C 0.22055 0.7592 0.95486 0.0
C3565 C 0.26885 0.75222 0.95084 0.0
C3566 C 0.21325 0.7587 0.96425 0.0
C3567 C 0.2542 0.75127 0.96974 0.0
C3568 C 0.30141 0.74387 0.96573 0.0
H3569 H 0.31557 0.74169 0.02715 0.0
H3570 H 0.31952 0.7409 0.01059 0.0
C3571 C 0.30879 0.74437 0.95637 0.0
C3572 C 0.24835 0.75144 0.97968 0.0
H3573 H 0.31286 0.76483 -0.00107 0.0
C3574 C 0.20296 0.7431 0.98365 0.0
C3575 C 0.28827 0.75945 0.98523 0.0
C3576 C 0.33681 0.769 0.98126 0.0
C3577 C 0.19729 0.74217 -0.0069 0.0
C3578 C 0.23741 0.75015 -0.00134 0.0
C3579 C 0.28238 0.75864 -0.00535 0.0
C3580 C 0.23371 0.74994 0.00867 0.0
C3581 C 0.14942 0.73228 -0.003 0.0
C3582 C 0.18433 0.75535 0.01307 0.0
C3583 C 0.18162 0.75553 0.0225 0.0
C3584 C 0.22885 0.7507 0.02771 0.0
C3585 C 0.27858 0.74549 0.0233 0.0
C3586 C 0.28085 0.74503 0.01386 0.0
H3587 H 0.13398 0.72328 -0.00793 0.0
H3588 H 0.16312 0.72609 0.00327 0.0
H3589 H 0.11285 0.74011 -0.00133 0.0
H3590 H 0.14817 0.75968 0.00921 0.0
H3591 H 0.14304 0.75984 0.02571 0.0
H3592 H 0.90633 0.77007 0.2762 0.0
H3593 H 0.91472 0.76999 0.25969 0.0
H3594 H 0.07278 0.74396 0.26169 0.0
H3595 H 0.06487 0.74388 0.27818 0.0
H3596 H 0.00985 0.78099 0.24827 0.0
H3597 H 0.9641 0.71646 0.2454 0.0
H3598 H 0.94699 0.72783 0.2554 0.0
H3599 H 0.01939 0.72182 0.2533 0.0
C3600 C 0.94303 0.76438 0.27314 0.0
C3601 C 0.98468 0.75684 0.2785 0.0
C3602 C 0.94774 0.76438 0.26372 0.0
C3603 C 0.99383 0.75675 0.25954 0.0
C3604 C 0.03648 0.74971 0.26484 0.0
H3605 H 0.10121 0.73949 0.20474 0.0
H3606 H 0.08923 0.74031 0.22118 0.0
C3607 C 0.032 0.74976 0.27426 0.0
C3608 C 0.99681 0.75584 0.24959 0.0
H3609 H 0.99222 0.72975 0.23197 0.0
C3610 C 0.00571 0.76984 0.24468 0.0
C3611 C 0.99123 0.74122 0.24501 0.0
C3612 C 0.97943 0.72596 0.25001 0.0
C3613 C 0.01059 0.76954 0.23522 0.0
C3614 C 0.00546 0.7549 0.23064 0.0
C3615 C 0.99611 0.74092 0.23555 0.0
C3616 C 0.01083 0.75385 0.22072 0.0
C3617 C 0.02257 0.78479 0.23022 0.0
C3618 C 0.96989 0.76091 0.21509 0.0
C3619 C 0.97648 0.76047 0.2057 0.0
C3620 C 0.02418 0.75295 0.20182 0.0
C3621 C 0.06426 0.7455 0.20751 0.0
C3622 C 0.05748 0.74591 0.21689 0.0
H3623 H 0.03674 0.79439 0.23486 0.0
H3624 H 0.05597 0.78297 0.22498 0.0
H3625 H 0.98301 0.78877 0.22675 0.0
H3626 H 0.93314 0.76687 0.21796 0.0
H3627 H 0.94472 0.76627 0.20152 0.0
H3628 H 0.32951 0.50598 0.20182 0.0
H3629 H 0.33501 0.50498 0.21832 0.0
H3630 H 0.15084 0.50407 0.21986 0.0
H3631 H 0.14501 0.50443 0.20334 0.0
H3632 H 0.29554 0.52452 0.23129 0.0
H3633 H 0.19197 0.46557 0.23465 0.0
H3634 H 0.21531 0.47335 0.22388 0.0
H3635 H 0.14871 0.47977 0.22875 0.0
C3636 C 0.29018 0.50555 0.20566 0.0
C3637 C 0.23685 0.505 0.20127 0.0
C3638 C 0.29339 0.50499 0.21509 0.0
C3639 C 0.24336 0.50404 0.22029 0.0
C3640 C 0.18999 0.50427 0.21596 0.0
H3641 H 0.18005 0.5065 0.27785 0.0
H3642 H 0.17263 0.50682 0.26136 0.0
C3643 C 0.18675 0.50458 0.20652 0.0
C3644 C 0.2472 0.50283 0.23026 0.0
H3645 H 0.20849 0.47983 0.24829 0.0
C3646 C 0.27677 0.51471 0.235 0.0
C3647 C 0.22285 0.48996 0.23507 0.0
C3648 C 0.19342 0.47636 0.23033 0.0
C3649 C 0.28191 0.51419 0.24445 0.0
C3650 C 0.25691 0.50145 0.24923 0.0
C3651 C 0.22735 0.48958 0.24454 0.0
C3652 C 0.2609 0.50035 0.25914 0.0
C3653 C 0.3134 0.5273 0.2493 0.0
C3654 C 0.31274 0.49626 0.26327 0.0
C3655 C 0.31711 0.49595 0.27269 0.0
C3656 C 0.26965 0.49979 0.27812 0.0
C3657 C 0.21736 0.50347 0.2739 0.0
C3658 C 0.21301 0.50369 0.26448 0.0
H3659 H 0.32346 0.5374 0.24474 0.0
H3660 H 0.28764 0.53171 0.25509 0.0
H3661 H 0.35412 0.52259 0.25207 0.0
H3662 H 0.34994 0.49351 0.2592 0.0
H3663 H 0.35799 0.493 0.2757 0.0
H3664 H 0.85689 0.2413 0.95513 0.0
H3665 H 0.84979 0.24167 0.97161 0.0
H3666 H 0.68665 0.26524 0.96973 0.0
H3667 H 0.6927 0.2647 0.95321 0.0
H3668 H 0.83883 0.26766 0.9832 0.0
H3669 H 0.65323 0.22675 0.98582 0.0
H3670 H 0.69446 0.22892 0.97556 0.0
H3671 H 0.64156 0.24347 0.97852 0.0
C3672 C 0.81942 0.24656 0.95821 0.0
C3673 C 0.77515 0.25289 0.95287 0.0
C3674 C 0.81553 0.24676 0.96762 0.0
C3675 C 0.76737 0.25327 0.97183 0.0
C3676 C 0.7236 0.25988 0.96655 0.0
H3677 H 0.65764 0.26597 0.02684 0.0
H3678 H 0.67028 0.26652 0.01044 0.0
C3679 C 0.72727 0.25961 0.95713 0.0
C3680 C 0.76324 0.25325 0.98177 0.0
H3681 H 0.68221 0.23972 -0.00068 0.0
C3682 C 0.80479 0.26151 0.98675 0.0
C3683 C 0.71887 0.24513 0.98632 0.0
C3684 C 0.67476 0.23544 0.9813 0.0
C3685 C 0.80231 0.26219 -0.00378 0.0
C3686 C 0.7575 0.25423 0.00075 0.0
C3687 C 0.71629 0.24586 -0.00423 0.0
C3688 C 0.75195 0.25452 0.01067 0.0
C3689 C 0.8468 0.27167 0.00128 0.0
C3690 C 0.79378 0.24753 0.01618 0.0
C3691 C 0.78681 0.24722 0.02556 0.0
C3692 C 0.7376 0.25375 0.02954 0.0
C3693 C 0.69591 0.26078 0.02398 0.0
C3694 C 0.70305 0.26113 0.01462 0.0
H3695 H 0.87004 0.27998 -0.00326 0.0
H3696 H 0.82694 0.27856 0.00685 0.0
H3697 H 0.87853 0.26345 0.0043 0.0
H3698 H 0.8313 0.24211 0.01321 0.0
H3699 H 0.81964 0.24169 0.02966 0.0
H3700 H 0.07025 0.26363 0.77882 0.0
H3701 H 0.08018 0.26219 0.76236 0.0
H3702 H 0.91093 0.24215 0.76027 0.0
H3703 H 0.90003 0.24371 0.77667 0.0
H3704 H 0.06957 0.23445 0.75106 0.0
H3705 H 0.90893 0.28102 0.74317 0.0
H3706 H 0.94005 0.2787 0.75429 0.0
H3707 H 0.88451 0.2655 0.75055 0.0
C3708 C 0.03502 0.25899 0.77485 0.0
C3709 C 0.98409 0.25395 0.77901 0.0
C3710 C 0.04088 0.25815 0.76548 0.0
C3711 C 0.99595 0.25227 0.76018 0.0
C3712 C 0.94552 0.24699 0.7643 0.0
H3713 H 0.93863 0.24439 0.70261 0.0
H3714 H 0.93084 0.24312 0.71914 0.0
C3715 C 0.93946 0.2479 0.77365 0.0
C3716 C 1.00174 0.25163 0.75031 0.0
H3717 H 0.94644 0.26665 0.73079 0.0
C3718 C 0.04286 0.24148 0.74659 0.0
C3719 C 0.96651 0.26083 0.7446 0.0
C3720 C 0.92279 0.27224 0.74833 0.0
C3721 C 0.04906 0.24005 0.73721 0.0
C3722 C 0.01396 0.24932 0.73147 0.0
C3723 C 0.97296 0.2595 0.73523 0.0
C3724 C 0.01974 0.249 0.72155 0.0
C3725 C 0.09224 0.2284 0.73356 0.0
C3726 C 0.0722 0.25277 0.7175 0.0
C3727 C 0.07696 0.25317 0.70812 0.0
C3728 C 0.0289 0.25027 0.70265 0.0
C3729 C 0.97623 0.24667 0.7067 0.0
C3730 C 0.97179 0.24593 0.7161 0.0
H3731 H 0.10179 0.21891 0.73855 0.0
H3732 H 0.07699 0.2228 0.72719 0.0
H3733 H 0.13284 0.23474 0.73212 0.0
H3734 H 0.10917 0.25571 0.72159 0.0
H3735 H 0.11785 0.25623 0.70514 0.0
H3736 H 0.67971 0.5001 0.78066 0.0
H3737 H 0.66795 0.50105 0.76418 0.0
H3738 H 0.84824 0.51025 0.76107 0.0
H3739 H 0.8607 0.50931 0.77746 0.0
H3740 H 0.70138 0.52709 0.75181 0.0
H3741 H 0.81345 0.47019 0.74515 0.0
H3742 H 0.78484 0.47526 0.75613 0.0
H3743 H 0.85087 0.4839 0.75235 0.0
C3744 C 0.71685 0.50234 0.77647 0.0
C3745 C 0.77124 0.50446 0.78037 0.0
C3746 C 0.71 0.50289 0.76708 0.0
C3747 C 0.75743 0.50546 0.76147 0.0
C3748 C 0.81139 0.50798 0.76533 0.0
H3749 H 0.82335 0.50772 0.70402 0.0
H3750 H 0.82948 0.50825 0.72055 0.0
C3751 C 0.81829 0.5075 0.7747 0.0
C3752 C 0.75087 0.50561 0.75155 0.0
H3753 H 0.79081 0.48602 0.7324 0.0
C3754 C 0.72054 0.51809 0.74754 0.0
C3755 C 0.77623 0.49385 0.74607 0.0
C3756 C 0.80784 0.47995 0.75012 0.0
C3757 C 0.71617 0.51937 0.7381 0.0
C3758 C 0.74177 0.50763 0.7326 0.0
C3759 C 0.77154 0.49505 0.73664 0.0
C3760 C 0.73785 0.50803 0.72262 0.0
C3761 C 0.68564 0.53351 0.73411 0.0
C3762 C 0.68437 0.50768 0.71834 0.0
C3763 C 0.68079 0.50756 0.70892 0.0
C3764 C 0.7307 0.50744 0.70361 0.0
C3765 C 0.78424 0.50772 0.70792 0.0
C3766 C 0.78777 0.50804 0.71735 0.0
H3767 H 0.68333 0.54349 0.73901 0.0
H3768 H 0.70722 0.53774 0.72787 0.0
H3769 H 0.64121 0.53006 0.73234 0.0
H3770 H 0.64537 0.50723 0.72228 0.0
H3771 H 0.63885 0.50715 0.70581 0.0
H3772 H 0.06724 0.02865 0.52745 0.0
H3773 H 0.05727 0.02907 0.51092 0.0
H3774 H 0.96916 0.98408 0.51193 0.0
H3775 H 0.9756 0.98421 0.52844 0.0
H3776 H 0.09842 0.01028 0.49871 0.0
H3777 H 0.86255 0.00742 0.49611 0.0
H3778 H 0.8984 0.01094 0.50674 0.0
H3779 H 0.88996 0.99103 0.50248 0.0
C3780 C 0.04504 0.019 0.5241 0.0
C3781 C 0.02152 0.0065 0.52915 0.0
C3782 C 0.03947 0.01922 0.5147 0.0
C3783 C 0.01134 0.00677 0.5102 0.0
C3784 C 0.98903 0.9941 0.51526 0.0
H3785 H 0.98597 0.97734 0.4544 0.0
H3786 H 0.99686 0.9787 0.47097 0.0
C3787 C 0.99309 0.99412 0.52467 0.0
C3788 C 0.00755 0.00667 0.50021 0.0
H3789 H 0.91482 1.00156 0.48259 0.0
C3790 C 0.05816 0.00854 0.49519 0.0
C3791 C 0.95491 0.00447 0.49562 0.0
C3792 C 0.89839 0.00353 0.50053 0.0
C3793 C 0.05763 0.00792 0.48572 0.0
C3794 C 0.0054 0.00517 0.48122 0.0
C3795 C 0.9548 0.00346 0.48617 0.0
C3796 C 1.00204 0.00431 0.47133 0.0
C3797 C 0.11266 0.01003 0.48053 0.0
C3798 C 1.00129 0.01829 0.46621 0.0
C3799 C 0.99464 0.01752 0.45684 0.0
C3800 C 0.98868 1.00278 0.45258 0.0
C3801 C 0.9901 0.98879 0.45767 0.0
C3802 C 0.99651 0.98955 0.46705 0.0
H3803 H 0.1505 0.01068 0.48507 0.0
H3804 H 0.11852 1.00006 0.47571 0.0
H3805 H 0.11048 0.02113 0.4765 0.0
H3806 H 0.00512 0.02974 0.46947 0.0
H3807 H 0.99385 0.0284 0.45293 0.0
H3808 H 0.34639 0.23545 0.45436 0.0
H3809 H 0.33783 0.23656 0.47082 0.0
H3810 H 0.18865 0.26625 0.46825 0.0
H3811 H 0.19602 0.26488 0.45173 0.0
H3812 H 0.34397 0.26273 0.48153 0.0
H3813 H 0.13422 0.23291 0.48602 0.0
H3814 H 0.1733 0.23223 0.47549 0.0
H3815 H 0.13205 0.24948 0.47839 0.0
C3816 C 0.31147 0.24214 0.45728 0.0
C3817 C 0.2719 0.2501 0.45174 0.0
C3818 C 0.30667 0.24274 0.46669 0.0
C3819 C 0.26232 0.25135 0.47075 0.0
C3820 C 0.2225 0.25926 0.46525 0.0
H3821 H 0.16877 0.27191 0.52606 0.0
H3822 H 0.1804 0.2718 0.50963 0.0
C3823 C 0.22695 0.25853 0.45582 0.0
C3824 C 0.25953 0.25258 0.48074 0.0
H3825 H 0.17397 0.24536 0.49898 0.0
C3826 C 0.3069 0.25888 0.48536 0.0
C3827 C 0.21113 0.24753 0.4857 0.0
C3828 C 0.15999 0.24002 0.48117 0.0
C3829 C 0.30682 0.26054 0.49482 0.0
C3830 C 0.25831 0.25556 0.49977 0.0
C3831 C 0.211 0.24923 0.49515 0.0
C3832 C 0.25528 0.25677 0.50975 0.0
C3833 C 0.35813 0.26789 0.49938 0.0
C3834 C 0.29412 0.24854 0.51527 0.0
C3835 C 0.28789 0.24869 0.52469 0.0
C3836 C 0.24206 0.25684 0.5287 0.0
C3837 C 0.20416 0.26538 0.52316 0.0
C3838 C 0.21074 0.26535 0.51378 0.0
H3839 H 0.38444 0.27487 0.49454 0.0
H3840 H 0.34493 0.27576 0.50503 0.0
H3841 H 0.38546 0.25835 0.50221 0.0
H3842 H 0.32815 0.24159 0.51229 0.0
H3843 H 0.3177 0.24196 0.52878 0.0
H3844 H 0.20291 0.01903 0.77888 0.0
H3845 H 0.19268 0.01928 0.76237 0.0
H3846 H 0.33075 0.98575 0.75999 0.0
H3847 H 0.34181 0.98547 0.77646 0.0
H3848 H 0.29265 0.02665 0.74955 0.0
H3849 H 0.18771 0.96792 0.74482 0.0
H3850 H 0.1829 0.97893 0.75529 0.0
H3851 H 0.24782 0.96881 0.75244 0.0
C3852 C 0.23083 0.01161 0.77485 0.0
C3853 C 0.27334 1.00227 0.77897 0.0
C3854 C 0.22498 0.01181 0.76544 0.0
C3855 C 0.26087 1.0025 0.76002 0.0
C3856 C 0.30253 0.99294 0.7641 0.0
H3857 H 0.30406 0.98927 0.70224 0.0
H3858 H 0.31618 0.98946 0.71872 0.0
C3859 C 0.30886 0.99285 0.7735 0.0
C3860 C 0.25632 0.00321 0.75007 0.0
H3861 H 0.2154 0.98173 0.7316 0.0
C3862 C 0.27558 0.01689 0.74561 0.0
C3863 C 0.23421 0.99039 0.74502 0.0
C3864 C 0.21156 0.97567 0.74959 0.0
C3865 C 0.27382 0.018 0.73613 0.0
C3866 C 0.25181 0.00516 0.73108 0.0
C3867 C 0.23253 0.99149 0.73555 0.0
C3868 C 0.24688 0.00585 0.72114 0.0
C3869 C 0.29615 0.03273 0.73155 0.0
C3870 C 0.20402 0.01506 0.71712 0.0
C3871 C 0.19657 0.01488 0.70774 0.0
C3872 C 0.23212 0.00553 0.70223 0.0
C3873 C 0.27599 0.9966 0.70629 0.0
C3874 C 0.28298 0.99667 0.71569 0.0
H3875 H 0.31923 0.04064 0.73633 0.0
H3876 H 0.32543 0.02949 0.72593 0.0
H3877 H 0.25982 0.03942 0.72858 0.0
H3878 H 0.17561 0.02214 0.72126 0.0
H3879 H 0.16263 0.02197 0.70483 0.0
H3880 H 0.70069 0.73834 0.45146 0.0
H3881 H 0.69087 0.73744 0.46795 0.0
H3882 H 0.82967 0.77078 0.47072 0.0
H3883 H 0.84024 0.77174 0.45424 0.0
H3884 H 0.7915 0.72908 0.48015 0.0
H3885 H 0.68947 0.78759 0.48672 0.0
H3886 H 0.68305 0.77744 0.47599 0.0
H3887 H 0.7486 0.78724 0.47891 0.0
C3888 C 0.72875 0.74562 0.45556 0.0
C3889 C 0.77146 0.75506 0.45156 0.0
C3890 C 0.7231 0.74506 0.46496 0.0
C3891 C 0.75945 0.75408 0.47046 0.0
C3892 C 0.80109 0.76382 0.46652 0.0
H3893 H 0.8153 0.76435 0.52776 0.0
H3894 H 0.8237 0.7643 0.51126 0.0
C3895 C 0.80718 0.76429 0.45713 0.0
C3896 C 0.75611 0.75263 0.48037 0.0
H3897 H 0.7195 0.77283 0.49948 0.0
C3898 C 0.7755 0.73858 0.4844 0.0
C3899 C 0.7353 0.76511 0.4858 0.0
C3900 C 0.7125 0.7802 0.48168 0.0
C3901 C 0.77546 0.73677 0.49383 0.0
C3902 C 0.75507 0.7493 0.49926 0.0
C3903 C 0.73534 0.76331 0.49523 0.0
C3904 C 0.75328 0.74807 0.50918 0.0
C3905 C 0.79809 0.72168 0.49798 0.0
C3906 C 0.71128 0.73879 0.51338 0.0
C3907 C 0.706 0.73887 0.52278 0.0
C3908 C 0.74289 0.7482 0.5281 0.0
C3909 C 0.78634 0.75701 0.52386 0.0
C3910 C 0.79116 0.75704 0.51445 0.0
H3911 H 0.81938 0.71399 0.49289 0.0
H3912 H 0.82906 0.72448 0.50346 0.0
H3913 H 0.7622 0.71496 0.50105 0.0
H3914 H 0.68158 0.73186 0.50936 0.0
H3915 H 0.67237 0.73187 0.52587 0.0
H3916 H 0.82318 0.00582 0.2028 0.0
H3917 H 0.83287 0.00594 0.21927 0.0
H3918 H 0.64947 0.00409 0.22205 0.0
H3919 H 0.63905 0.0038 0.2056 0.0
H3920 H 0.78256 0.02763 0.23243 0.0
H3921 H 0.71185 0.96501 0.23638 0.0
H3922 H 0.73579 0.97307 0.2257 0.0
H3923 H 0.66523 0.97742 0.22978 0.0
C3924 C 0.78486 0.00541 0.2069 0.0
C3925 C 0.73037 0.00455 0.20288 0.0
C3926 C 0.79054 0.00555 0.21629 0.0
C3927 C 0.74189 0.00477 0.2218 0.0
C3928 C 0.68745 0.00443 0.21785 0.0
H3929 H 0.68292 0.00386 0.27941 0.0
H3930 H 0.67386 0.00489 0.26291 0.0
C3931 C 0.68167 0.00431 0.20846 0.0
C3932 C 0.74801 0.00399 0.23169 0.0
H3933 H 0.72484 0.97985 0.24985 0.0
C3934 C 0.7702 0.0172 0.23626 0.0
C3935 C 0.73195 0.99028 0.23657 0.0
C3936 C 0.7103 0.97556 0.23188 0.0
C3937 C 0.77576 0.01714 0.2457 0.0
C3938 C 0.75908 0.0035 0.25058 0.0
C3939 C 0.73719 0.99028 0.24601 0.0
C3940 C 0.76463 1.00269 0.26046 0.0
C3941 C 0.79865 0.03165 0.25045 0.0
C3942 C 0.81861 1.00085 0.26441 0.0
C3943 C 0.82397 1.00016 0.27379 0.0
C3944 C 0.77534 1.00139 0.27935 0.0
C3945 C 0.72117 1.00301 0.27532 0.0
C3946 C 0.71586 0.00358 0.26592 0.0
H3947 H 0.80209 0.042 0.24582 0.0
H3948 H 0.77061 0.03487 0.25623 0.0
H3949 H 0.84177 0.02904 0.25321 0.0
H3950 H 0.85652 1.0 0.26022 0.0
H3951 H 0.86631 0.99891 0.27669 0.0
H3952 H 0.44057 0.51604 0.52811 0.0
H3953 H 0.43376 0.51747 0.51154 0.0
H3954 H 0.58444 0.4884 0.50914 0.0
H3955 H 0.59202 0.48701 0.52562 0.0
H3956 H 0.53288 0.52878 0.49941 0.0
H3957 H 0.4533 0.46763 0.4928 0.0
H3958 H 0.44251 0.47761 0.50349 0.0
H3959 H 0.51132 0.46956 0.50075 0.0
C3960 C 0.47196 0.50986 0.52405 0.0
C3961 C 0.51705 0.5015 0.52816 0.0
C3962 C 0.46811 0.51074 0.51461 0.0
C3963 C 0.50863 0.50304 0.50918 0.0
C3964 C 0.55276 0.49438 0.51325 0.0
H3965 H 0.56629 0.49183 0.45165 0.0
H3966 H 0.58015 0.49374 0.46808 0.0
C3967 C 0.55705 0.49364 0.52266 0.0
C3968 C 0.50616 0.50434 0.49923 0.0
H3969 H 0.48129 0.4828 0.48009 0.0
C3970 C 0.52129 0.51879 0.49517 0.0
C3971 C 0.4914 0.49122 0.49378 0.0
C3972 C 0.47329 0.47562 0.49788 0.0
C3973 C 0.52264 0.52038 0.4857 0.0
C3974 C 0.50813 0.50723 0.48026 0.0
C3975 C 0.49292 0.4928 0.48433 0.0
C3976 C 0.50541 0.50829 0.47031 0.0
C3977 C 0.54027 0.53597 0.48155 0.0
C3978 C 0.45948 0.51612 0.46619 0.0
C3979 C 0.45104 0.5149 0.45686 0.0
C3980 C 0.48862 0.50588 0.45152 0.0
C3981 C 0.53665 0.49886 0.4556 0.0
C3982 C 0.54462 0.49991 0.46496 0.0
H3983 H 0.5588 0.5442 0.48664 0.0
H3984 H 0.57211 0.53399 0.47609 0.0
H3985 H 0.50234 0.54172 0.47845 0.0
H3986 H 0.42864 0.52253 0.47024 0.0
H3987 H 0.41398 0.52055 0.45387 0.0
H3988 H 0.38321 0.75456 0.77587 0.0
H3989 H 0.39676 0.75408 0.7595 0.0
H3990 H 0.57968 0.75572 0.76326 0.0
H3991 H 0.56639 0.75542 0.77972 0.0
H3992 H 0.44247 0.77457 0.74826 0.0
H3993 H 0.56704 0.71874 0.74655 0.0
H3994 H 0.53188 0.72515 0.75677 0.0
H3995 H 0.6 0.73343 0.7536 0.0
C3996 C 0.42638 0.75476 0.77322 0.0
C3997 C 0.4738 0.75488 0.77907 0.0
C3998 C 0.43405 0.7545 0.76386 0.0
C3999 C 0.48923 0.75455 0.76014 0.0
C4000 C 0.53673 0.75516 0.76597 0.0
H4001 H 0.61059 0.75999 0.70487 0.0
H4002 H 0.59989 0.76074 0.72132 0.0
C4003 C 0.52911 0.7551 0.77537 0.0
C4004 C 0.49649 0.75414 0.75017 0.0
H4005 H 0.55974 0.73363 0.73294 0.0
C4006 C 0.46792 0.76557 0.74492 0.0
C4007 C 0.5295 0.74233 0.7458 0.0
C4008 C 0.55837 0.72913 0.75096 0.0
C4009 C 0.47189 0.76559 0.73544 0.0
C4010 C 0.50542 0.75393 0.73113 0.0
C4011 C 0.53425 0.74257 0.73633 0.0
C4012 C 0.51134 0.75337 0.7212 0.0
C4013 C 0.44078 0.77815 0.73009 0.0
C4014 C 0.46514 0.74877 0.71575 0.0
C4015 C 0.47106 0.74825 0.70634 0.0
C4016 C 0.52335 0.75234 0.70225 0.0
C4017 C 0.56973 0.75675 0.70779 0.0
C4018 C 0.56376 0.75722 0.71718 0.0
H4019 H 0.42397 0.78775 0.73449 0.0
H4020 H 0.46959 0.78345 0.72493 0.0
H4021 H 0.40423 0.77265 0.72646 0.0
H4022 H 0.42458 0.74554 0.71878 0.0
H4023 H 0.43469 0.74464 0.7023 0.0
H4024 H 0.54956 0.2382 0.27822 0.0
H4025 H 0.56018 0.23757 0.26172 0.0
H4026 H 0.42665 0.27245 0.25902 0.0
H4027 H 0.41547 0.27315 0.27547 0.0
H4028 H 0.46202 0.23041 0.24921 0.0
H4029 H 0.56715 0.28878 0.2434 0.0
H4030 H 0.57094 0.27845 0.25411 0.0
H4031 H 0.50664 0.28861 0.25093 0.0
C4032 C 0.52301 0.24589 0.27412 0.0
C4033 C 0.48163 0.25571 0.27813 0.0
C4034 C 0.52899 0.24547 0.26472 0.0
C4035 C 0.49434 0.25502 0.25922 0.0
C4036 C 0.454 0.2651 0.2632 0.0
H4037 H 0.45954 0.26643 0.20087 0.0
H4038 H 0.44289 0.26728 0.21728 0.0
C4039 C 0.44757 0.26542 0.27258 0.0
C4040 C 0.49815 0.2539 0.24929 0.0
H4041 H 0.53727 0.27456 0.23043 0.0
C4042 C 0.47857 0.24001 0.24508 0.0
C4043 C 0.51953 0.26652 0.244 0.0
C4044 C 0.5427 0.28142 0.2483 0.0
C4045 C 0.47945 0.23848 0.23563 0.0
C4046 C 0.50091 0.2511 0.23034 0.0
C4047 C 0.52029 0.265 0.23455 0.0
C4048 C 0.50721 0.24972 0.22044 0.0
C4049 C 0.45706 0.22347 0.23135 0.0
C4050 C 0.54862 0.23952 0.21688 0.0
C4051 C 0.55852 0.2391 0.20758 0.0
C4052 C 0.52709 0.24887 0.20168 0.0
C4053 C 0.4844 0.25878 0.20525 0.0
C4054 C 0.47488 0.25929 0.2146 0.0
H4055 H 0.43142 0.2163 0.23619 0.0
H4056 H 0.43023 0.22627 0.22535 0.0
H4057 H 0.49361 0.21616 0.22903 0.0
H4058 H 0.57434 0.23219 0.22132 0.0
H4059 H 0.59147 0.23126 0.20504 0.0
H4060 H 0.43205 1.00007 0.02813 0.0
H4061 H 0.42123 0.99997 0.01164 0.0
H4062 H 0.60028 0.01093 0.0086 0.0
H4063 H 0.61176 0.01113 0.02506 0.0
H4064 H 0.4551 0.02632 -0.00124 0.0
H4065 H 0.56646 0.96871 -0.00638 0.0
H4066 H 0.53501 0.97429 0.00432 0.0
H4067 H 0.60146 0.98297 0.00081 0.0
C4068 C 0.46915 1.00248 0.02396 0.0
C4069 C 0.52286 0.0055 0.0279 0.0
C4070 C 0.46281 1.00245 0.01457 0.0
C4071 C 0.51012 0.00527 0.00898 0.0
C4072 C 0.5635 0.00857 0.01286 0.0
H4073 H 0.56339 0.00986 0.95117 0.0
H4074 H 0.57353 0.0101 0.96766 0.0
C4075 C 0.56984 0.00874 0.02225 0.0
C4076 C 0.50379 0.00469 -0.00093 0.0
H4077 H 0.53985 0.98294 0.98046 0.0
C4078 C 0.47337 0.01683 -0.00526 0.0
C4079 C 0.52782 0.99226 -0.00608 0.0
C4080 C 0.55925 0.97872 -0.00163 0.0
C4081 C 0.46705 0.01698 0.9853 0.0
C4082 C 0.49121 0.00458 0.98016 0.0
C4083 C 0.52155 0.99242 0.98448 0.0
C4084 C 0.48519 0.00404 0.97024 0.0
C4085 C 0.43544 0.03048 0.98085 0.0
C4086 C 0.43231 1.00031 0.96632 0.0
C4087 C 0.42635 1.00006 0.95692 0.0
C4088 C 0.47322 0.00363 0.95131 0.0
C4089 C 0.52639 0.00716 0.9553 0.0
C4090 C 0.53235 0.00728 0.9647 0.0
H4091 H 0.42703 0.04036 0.98564 0.0
H4092 H 0.46026 0.03512 0.97501 0.0
H4093 H 0.39385 0.0261 0.97823 0.0
H4094 H 0.39566 0.99765 0.97055 0.0
H4095 H 0.38486 0.99727 0.95407 0.0
loop_
_geom_bond_atom_site_label_1
_geom_bond_atom_site_label_2
_geom_bond_distance
_geom_bond_site_symmetry_2
_ccdc_geom_bond_type
Zn0 O6 1.969 . S
Zn0 O7 1.965 . S
Zn0 O11 2.024 . S
Zn0 O16 1.969 . S
Zn1 O8 1.969 . S
Zn1 O14 1.969 . S
Zn1 O15 1.965 . S
Zn1 O17 2.024 . S
C2 O3 1.229 . S
C2 O11 1.058 . S
O3 C2 1.229 . S
C4 O5 1.229 . S
C4 O17 1.058 . S
O5 C4 1.229 . S
O6 Zn0 1.969 . S
O6 C9 1.267 . S
O7 Zn0 1.965 . S
O7 C18 1.260 . S
O8 Zn1 1.969 . S
O8 C18 1.258 1_655 S
C9 O6 1.267 . S
C9 O10 1.228 . S
O10 C9 1.228 . S
O11 Zn0 2.024 . S
O11 C2 1.058 . S
C12 O13 1.228 . S
C12 O14 1.267 . S
O13 C12 1.228 . S
O14 Zn1 1.969 . S
O14 C12 1.267 . S
O15 Zn1 1.965 . S
O15 C19 1.260 1_655 S
O16 Zn0 1.969 . S
O16 C19 1.258 . S
O17 Zn1 2.024 . S
O17 C4 1.058 . S
C18 O7 1.260 . S
C18 O8 1.258 1_455 S
C19 O15 1.260 1_455 S
C19 O16 1.258 . S
Zn20 O26 1.969 . S
Zn20 O27 1.965 . S
Zn20 O31 2.024 . S
Zn20 O36 1.969 . S
Zn21 O28 1.969 . S
Zn21 O34 1.969 . S
Zn21 O35 1.965 . S
Zn21 O37 2.024 . S
C22 O23 1.229 . S
C22 O31 1.058 . S
O23 C22 1.229 . S
C24 O25 1.229 . S
C24 O37 1.058 . S
O25 C24 1.229 . S
O26 Zn20 1.969 . S
O26 C29 1.267 . S
O27 Zn20 1.965 . S
O27 C38 1.260 . S
O28 Zn21 1.969 . S
O28 C38 1.258 . S
C29 O26 1.267 . S
C29 O30 1.228 . S
O30 C29 1.228 . S
O31 Zn20 2.024 . S
O31 C22 1.058 . S
C32 O33 1.228 . S
C32 O34 1.267 . S
O33 C32 1.228 . S
O34 Zn21 1.969 . S
O34 C32 1.267 . S
O35 Zn21 1.965 . S
O35 C39 1.260 . S
O36 Zn20 1.969 . S
O36 C39 1.258 . S
O37 Zn21 2.024 . S
O37 C24 1.058 . S
C38 O27 1.260 . S
C38 O28 1.258 . S
C39 O35 1.260 . S
C39 O36 1.258 . S
Zn40 O46 1.969 . S
Zn40 O47 1.965 . S
Zn40 O51 2.024 . S
Zn40 O56 1.969 . S
Zn41 O48 1.969 . S
Zn41 O54 1.969 . S
Zn41 O55 1.965 . S
Zn41 O57 2.024 . S
C42 O43 1.229 . S
C42 O51 1.058 . S
O43 C42 1.229 . S
C44 O45 1.229 . S
C44 O57 1.058 . S
O45 C44 1.229 . S
O46 Zn40 1.969 . S
O46 C49 1.267 . S
O47 Zn40 1.965 . S
O47 C58 1.260 . S
O48 Zn41 1.969 . S
O48 C58 1.258 1_655 S
C49 O46 1.267 . S
C49 O50 1.228 . S
O50 C49 1.228 . S
O51 Zn40 2.024 . S
O51 C42 1.058 . S
C52 O53 1.228 . S
C52 O54 1.267 . S
O53 C52 1.228 . S
O54 Zn41 1.969 . S
O54 C52 1.267 . S
O55 Zn41 1.965 . S
O55 C59 1.260 1_655 S
O56 Zn40 1.969 . S
O56 C59 1.258 . S
O57 Zn41 2.024 . S
O57 C44 1.058 . S
C58 O47 1.260 . S
C58 O48 1.258 1_455 S
C59 O55 1.260 1_455 S
C59 O56 1.258 . S
Zn60 O66 1.969 . S
Zn60 O67 1.965 . S
Zn60 O71 2.024 . S
Zn60 O76 1.969 . S
Zn61 O68 1.969 . S
Zn61 O74 1.969 . S
Zn61 O75 1.965 . S
Zn61 O77 2.024 . S
C62 O63 1.229 . S
C62 O71 1.058 . S
O63 C62 1.229 . S
C64 O65 1.229 . S
C64 O77 1.058 . S
O65 C64 1.229 . S
O66 Zn60 1.969 . S
O66 C69 1.267 . S
O67 Zn60 1.965 . S
O67 C78 1.260 . S
O68 Zn61 1.969 . S
O68 C78 1.258 . S
C69 O66 1.267 . S
C69 O70 1.228 . S
O70 C69 1.228 . S
O71 Zn60 2.024 . S
O71 C62 1.058 . S
C72 O73 1.228 . S
C72 O74 1.267 . S
O73 C72 1.228 . S
O74 Zn61 1.969 . S
O74 C72 1.267 . S
O75 Zn61 1.965 . S
O75 C79 1.260 . S
O76 Zn60 1.969 . S
O76 C79 1.258 . S
O77 Zn61 2.024 . S
O77 C64 1.058 . S
C78 O67 1.260 . S
C78 O68 1.258 . S
C79 O75 1.260 . S
C79 O76 1.258 . S
Zn80 O86 1.969 . S
Zn80 O87 1.965 . S
Zn80 O91 2.024 . S
Zn80 O96 1.969 . S
Zn81 O88 1.969 . S
Zn81 O94 1.969 . S
Zn81 O95 1.965 . S
Zn81 O97 2.024 . S
C82 O83 1.229 . S
C82 O91 1.058 . S
O83 C82 1.229 . S
C84 O85 1.229 . S
C84 O97 1.058 . S
O85 C84 1.229 . S
O86 Zn80 1.969 . S
O86 C89 1.267 . S
O87 Zn80 1.965 . S
O87 C98 1.260 1_455 S
O88 Zn81 1.969 . S
O88 C98 1.258 . S
C89 O86 1.267 . S
C89 O90 1.228 . S
O90 C89 1.228 . S
O91 Zn80 2.024 . S
O91 C82 1.058 . S
C92 O93 1.228 . S
C92 O94 1.267 . S
O93 C92 1.228 . S
O94 Zn81 1.969 . S
O94 C92 1.267 . S
O95 Zn81 1.965 . S
O95 C99 1.260 . S
O96 Zn80 1.969 . S
O96 C99 1.258 1_455 S
O97 Zn81 2.024 . S
O97 C84 1.058 . S
C98 O87 1.260 1_655 S
C98 O88 1.258 . S
C99 O95 1.260 . S
C99 O96 1.258 1_655 S
Zn100 O106 1.969 . S
Zn100 O107 1.965 . S
Zn100 O111 2.024 . S
Zn100 O116 1.969 . S
Zn101 O108 1.969 . S
Zn101 O114 1.969 . S
Zn101 O115 1.965 . S
Zn101 O117 2.024 . S
C102 O103 1.229 . S
C102 O111 1.058 . S
O103 C102 1.229 . S
C104 O105 1.229 . S
C104 O117 1.058 . S
O105 C104 1.229 . S
O106 Zn100 1.969 . S
O106 C109 1.267 . S
O107 Zn100 1.965 . S
O107 C118 1.260 . S
O108 Zn101 1.969 . S
O108 C118 1.258 . S
C109 O106 1.267 . S
C109 O110 1.228 . S
O110 C109 1.228 . S
O111 Zn100 2.024 . S
O111 C102 1.058 . S
C112 O113 1.228 . S
C112 O114 1.267 . S
O113 C112 1.228 . S
O114 Zn101 1.969 . S
O114 C112 1.267 . S
O115 Zn101 1.965 . S
O115 C119 1.260 . S
O116 Zn100 1.969 . S
O116 C119 1.258 . S
O117 Zn101 2.024 . S
O117 C104 1.058 . S
C118 O107 1.260 . S
C118 O108 1.258 . S
C119 O115 1.260 . S
C119 O116 1.258 . S
Zn120 O126 1.969 . S
Zn120 O127 1.965 . S
Zn120 O131 2.024 . S
Zn120 O136 1.969 . S
Zn121 O128 1.969 . S
Zn121 O134 1.969 . S
Zn121 O135 1.965 . S
Zn121 O137 2.024 . S
C122 O123 1.229 . S
C122 O131 1.058 . S
O123 C122 1.229 . S
C124 O125 1.229 . S
C124 O137 1.058 . S
O125 C124 1.229 . S
O126 Zn120 1.969 . S
O126 C129 1.267 . S
O127 Zn120 1.965 . S
O127 C138 1.260 1_455 S
O128 Zn121 1.969 . S
O128 C138 1.258 . S
C129 O126 1.267 . S
C129 O130 1.228 . S
O130 C129 1.228 . S
O131 Zn120 2.024 . S
O131 C122 1.058 . S
C132 O133 1.228 . S
C132 O134 1.267 . S
O133 C132 1.228 . S
O134 Zn121 1.969 . S
O134 C132 1.267 . S
O135 Zn121 1.965 . S
O135 C139 1.260 . S
O136 Zn120 1.969 . S
O136 C139 1.258 1_455 S
O137 Zn121 2.024 . S
O137 C124 1.058 . S
C138 O127 1.260 1_655 S
C138 O128 1.258 . S
C139 O135 1.260 . S
C139 O136 1.258 1_655 S
Zn140 O146 1.969 . S
Zn140 O147 1.965 . S
Zn140 O151 2.024 . S
Zn140 O156 1.969 . S
Zn141 O148 1.969 . S
Zn141 O154 1.969 . S
Zn141 O155 1.965 . S
Zn141 O157 2.024 . S
C142 O143 1.229 . S
C142 O151 1.058 . S
O143 C142 1.229 . S
C144 O145 1.229 . S
C144 O157 1.058 . S
O145 C144 1.229 . S
O146 Zn140 1.969 . S
O146 C149 1.267 . S
O147 Zn140 1.965 . S
O147 C158 1.260 . S
O148 Zn141 1.969 . S
O148 C158 1.258 . S
C149 O146 1.267 . S
C149 O150 1.228 . S
O150 C149 1.228 . S
O151 Zn140 2.024 . S
O151 C142 1.058 . S
C152 O153 1.228 . S
C152 O154 1.267 . S
O153 C152 1.228 . S
O154 Zn141 1.969 . S
O154 C152 1.267 . S
O155 Zn141 1.965 . S
O155 C159 1.260 . S
O156 Zn140 1.969 . S
O156 C159 1.258 . S
O157 Zn141 2.024 . S
O157 C144 1.058 . S
C158 O147 1.260 . S
C158 O148 1.258 . S
C159 O155 1.260 . S
C159 O156 1.258 . S
Zn160 O166 1.969 . S
Zn160 O167 1.965 1_545 S
Zn160 O171 2.024 . S
Zn160 O176 1.969 . S
Zn161 O168 1.969 . S
Zn161 O174 1.969 . S
Zn161 O175 1.987 . S
Zn161 O177 2.024 . S
C162 O163 1.229 . S
C162 O171 1.058 . S
O163 C162 1.229 . S
C164 O165 1.229 . S
C164 O177 1.058 . S
O165 C164 1.229 . S
O166 Zn160 1.969 . S
O166 C169 1.267 . S
O167 Zn160 1.965 1_565 S
O167 C178 1.260 . S
O168 Zn161 1.969 . S
O168 C178 1.258 1_655 S
C169 O166 1.267 . S
C169 O170 1.228 . S
O170 C169 1.228 . S
O171 Zn160 2.024 . S
O171 C162 1.058 . S
C172 O173 1.228 . S
C172 O174 1.267 . S
O173 C172 1.228 . S
O174 Zn161 1.969 . S
O174 C172 1.267 . S
O175 Zn161 1.987 . S
O175 C179 1.257 1_665 S
O176 Zn160 1.969 . S
O176 C179 1.258 . S
O177 Zn161 2.024 . S
O177 C164 1.058 . S
C178 O167 1.260 . S
C178 O168 1.258 1_455 S
C179 O175 1.257 1_445 S
C179 O176 1.258 . S
Zn180 O186 1.969 . S
Zn180 O187 1.965 . S
Zn180 O191 2.024 . S
Zn180 O196 1.969 . S
Zn181 O188 1.969 . S
Zn181 O194 1.969 . S
Zn181 O195 1.965 . S
Zn181 O197 2.024 . S
C182 O183 1.229 . S
C182 O191 1.058 . S
O183 C182 1.229 . S
C184 O185 1.229 . S
C184 O197 1.058 . S
O185 C184 1.229 . S
O186 Zn180 1.969 . S
O186 C189 1.267 . S
O187 Zn180 1.965 . S
O187 C198 1.260 . S
O188 Zn181 1.969 . S
O188 C198 1.258 . S
C189 O186 1.267 . S
C189 O190 1.228 . S
O190 C189 1.228 . S
O191 Zn180 2.024 . S
O191 C182 1.058 . S
C192 O193 1.228 . S
C192 O194 1.267 . S
O193 C192 1.228 . S
O194 Zn181 1.969 . S
O194 C192 1.267 . S
O195 Zn181 1.965 . S
O195 C199 1.260 . S
O196 Zn180 1.969 . S
O196 C199 1.258 . S
O197 Zn181 2.024 . S
O197 C184 1.058 . S
C198 O187 1.260 . S
C198 O188 1.258 . S
C199 O195 1.260 . S
C199 O196 1.258 . S
Zn200 O206 1.969 . S
Zn200 O207 1.965 . S
Zn200 O211 2.024 . S
Zn200 O216 1.969 . S
Zn201 O208 1.969 . S
Zn201 O214 1.969 . S
Zn201 O215 1.965 . S
Zn201 O217 2.024 . S
C202 O203 1.229 . S
C202 O211 1.058 . S
O203 C202 1.229 . S
C204 O205 1.229 . S
C204 O217 1.058 . S
O205 C204 1.229 . S
O206 Zn200 1.969 . S
O206 C209 1.267 . S
O207 Zn200 1.965 . S
O207 C218 1.260 . S
O208 Zn201 1.969 . S
O208 C218 1.258 1_655 S
C209 O206 1.267 . S
C209 O210 1.228 . S
O210 C209 1.228 . S
O211 Zn200 2.024 . S
O211 C202 1.058 . S
C212 O213 1.228 . S
C212 O214 1.267 . S
O213 C212 1.228 . S
O214 Zn201 1.969 . S
O214 C212 1.267 . S
O215 Zn201 1.965 . S
O215 C219 1.260 1_655 S
O216 Zn200 1.969 . S
O216 C219 1.258 . S
O217 Zn201 2.024 . S
O217 C204 1.058 . S
C218 O207 1.260 . S
C218 O208 1.258 1_455 S
C219 O215 1.260 1_455 S
C219 O216 1.258 . S
Zn220 O226 1.969 . S
Zn220 O227 1.965 1_545 S
Zn220 O231 2.024 . S
Zn220 O236 1.969 . S
Zn221 O228 1.969 . S
Zn221 O234 1.969 . S
Zn221 O235 1.987 . S
Zn221 O237 2.024 . S
C222 O223 1.229 . S
C222 O231 1.058 . S
O223 C222 1.229 . S
C224 O225 1.229 . S
C224 O237 1.058 . S
O225 C224 1.229 . S
O226 Zn220 1.969 . S
O226 C229 1.267 . S
O227 Zn220 1.965 1_565 S
O227 C238 1.260 . S
O228 Zn221 1.969 . S
O228 C238 1.258 . S
C229 O226 1.267 . S
C229 O230 1.228 . S
O230 C229 1.228 . S
O231 Zn220 2.024 . S
O231 C222 1.058 . S
C232 O233 1.228 . S
C232 O234 1.267 . S
O233 C232 1.228 . S
O234 Zn221 1.969 . S
O234 C232 1.267 . S
O235 Zn221 1.987 . S
O235 C239 1.257 1_565 S
O236 Zn220 1.969 . S
O236 C239 1.258 . S
O237 Zn221 2.024 . S
O237 C224 1.058 . S
C238 O227 1.260 . S
C238 O228 1.258 . S
C239 O235 1.257 1_545 S
C239 O236 1.258 . S
Zn240 O246 1.969 . S
Zn240 O247 1.987 . S
Zn240 O251 2.024 . S
Zn240 O256 1.969 . S
Zn241 O248 1.969 . S
Zn241 O254 1.969 . S
Zn241 O255 1.965 1_565 S
Zn241 O257 2.024 . S
C242 O243 1.229 . S
C242 O251 1.058 . S
O243 C242 1.229 . S
C244 O245 1.229 . S
C244 O257 1.058 . S
O245 C244 1.229 . S
O246 Zn240 1.969 . S
O246 C249 1.267 . S
O247 Zn240 1.987 . S
O247 C258 1.257 1_445 S
O248 Zn241 1.969 . S
O248 C258 1.258 . S
C249 O246 1.267 . S
C249 O250 1.228 . S
O250 C249 1.228 . S
O251 Zn240 2.024 . S
O251 C242 1.058 . S
C252 O253 1.228 . S
C252 O254 1.267 . S
O253 C252 1.228 . S
O254 Zn241 1.969 . S
O254 C252 1.267 . S
O255 Zn241 1.965 1_545 S
O255 C259 1.260 . S
O256 Zn240 1.969 . S
O256 C259 1.258 1_455 S
O257 Zn241 2.024 . S
O257 C244 1.058 . S
C258 O247 1.257 1_665 S
C258 O248 1.258 . S
C259 O255 1.260 . S
C259 O256 1.258 1_655 S
Zn260 O266 1.969 . S
Zn260 O267 1.965 . S
Zn260 O271 2.024 . S
Zn260 O276 1.969 . S
Zn261 O268 1.969 . S
Zn261 O274 1.969 . S
Zn261 O275 1.965 . S
Zn261 O277 2.024 . S
C262 O263 1.229 . S
C262 O271 1.058 . S
O263 C262 1.229 . S
C264 O265 1.229 . S
C264 O277 1.058 . S
O265 C264 1.229 . S
O266 Zn260 1.969 . S
O266 C269 1.267 . S
O267 Zn260 1.965 . S
O267 C278 1.260 . S
O268 Zn261 1.969 . S
O268 C278 1.258 . S
C269 O266 1.267 . S
C269 O270 1.228 . S
O270 C269 1.228 . S
O271 Zn260 2.024 . S
O271 C262 1.058 . S
C272 O273 1.228 . S
C272 O274 1.267 . S
O273 C272 1.228 . S
O274 Zn261 1.969 . S
O274 C272 1.267 . S
O275 Zn261 1.965 . S
O275 C279 1.260 . S
O276 Zn260 1.969 . S
O276 C279 1.258 . S
O277 Zn261 2.024 . S
O277 C264 1.058 . S
C278 O267 1.260 . S
C278 O268 1.258 . S
C279 O275 1.260 . S
C279 O276 1.258 . S
Zn280 O286 1.969 . S
Zn280 O287 1.965 . S
Zn280 O291 2.024 . S
Zn280 O296 1.969 . S
Zn281 O288 1.969 . S
Zn281 O294 1.969 . S
Zn281 O295 1.965 . S
Zn281 O297 2.024 . S
C282 O283 1.229 . S
C282 O291 1.058 . S
O283 C282 1.229 . S
C284 O285 1.229 . S
C284 O297 1.058 . S
O285 C284 1.229 . S
O286 Zn280 1.969 . S
O286 C289 1.267 . S
O287 Zn280 1.965 . S
O287 C298 1.260 1_455 S
O288 Zn281 1.969 . S
O288 C298 1.258 . S
C289 O286 1.267 . S
C289 O290 1.228 . S
O290 C289 1.228 . S
O291 Zn280 2.024 . S
O291 C282 1.058 . S
C292 O293 1.228 . S
C292 O294 1.267 . S
O293 C292 1.228 . S
O294 Zn281 1.969 . S
O294 C292 1.267 . S
O295 Zn281 1.965 . S
O295 C299 1.260 . S
O296 Zn280 1.969 . S
O296 C299 1.258 1_455 S
O297 Zn281 2.024 . S
O297 C284 1.058 . S
C298 O287 1.260 1_655 S
C298 O288 1.258 . S
C299 O295 1.260 . S
C299 O296 1.258 1_655 S
Zn300 O306 1.969 . S
Zn300 O307 1.987 . S
Zn300 O311 2.024 . S
Zn300 O316 1.969 . S
Zn301 O308 1.969 . S
Zn301 O314 1.969 . S
Zn301 O315 1.965 1_565 S
Zn301 O317 2.024 . S
C302 O303 1.229 . S
C302 O311 1.058 . S
O303 C302 1.229 . S
C304 O305 1.229 . S
C304 O317 1.058 . S
O305 C304 1.229 . S
O306 Zn300 1.969 . S
O306 C309 1.267 . S
O307 Zn300 1.987 . S
O307 C318 1.257 1_545 S
O308 Zn301 1.969 . S
O308 C318 1.258 . S
C309 O306 1.267 . S
C309 O310 1.228 . S
O310 C309 1.228 . S
O311 Zn300 2.024 . S
O311 C302 1.058 . S
C312 O313 1.228 . S
C312 O314 1.267 . S
O313 C312 1.228 . S
O314 Zn301 1.969 . S
O314 C312 1.267 . S
O315 Zn301 1.965 1_545 S
O315 C319 1.260 . S
O316 Zn300 1.969 . S
O316 C319 1.258 . S
O317 Zn301 2.024 . S
O317 C304 1.058 . S
C318 O307 1.257 1_565 S
C318 O308 1.258 . S
C319 O315 1.260 . S
C319 O316 1.258 . S
Zn320 O326 1.969 . S
Zn320 O327 1.965 . S
Zn320 O331 2.024 . S
Zn320 O336 1.969 . S
Zn321 O328 1.969 . S
Zn321 O334 1.969 . S
Zn321 O335 1.965 . S
Zn321 O337 2.024 . S
C322 O323 1.229 . S
C322 O331 1.058 . S
O323 C322 1.229 . S
C324 O325 1.229 . S
C324 O337 1.058 . S
O325 C324 1.229 . S
O326 Zn320 1.969 . S
O326 C329 1.267 . S
O327 Zn320 1.965 . S
O327 C338 1.260 . S
O328 Zn321 1.969 . S
O328 C338 1.258 . S
C329 O326 1.267 . S
C329 O330 1.228 . S
O330 C329 1.228 . S
O331 Zn320 2.024 . S
O331 C322 1.058 . S
C332 O333 1.228 . S
C332 O334 1.267 . S
O333 C332 1.228 . S
O334 Zn321 1.969 . S
O334 C332 1.267 . S
O335 Zn321 1.965 . S
O335 C339 1.260 . S
O336 Zn320 1.969 . S
O336 C339 1.258 . S
O337 Zn321 2.024 . S
O337 C324 1.058 . S
C338 O327 1.260 . S
C338 O328 1.258 . S
C339 O335 1.260 . S
C339 O336 1.258 . S
Zn340 O346 1.969 . S
Zn340 O347 1.965 . S
Zn340 O351 2.024 . S
Zn340 O356 1.969 . S
Zn341 O348 1.969 . S
Zn341 O354 1.969 . S
Zn341 O355 1.965 . S
Zn341 O357 2.024 . S
C342 O343 1.229 . S
C342 O351 1.058 . S
O343 C342 1.229 . S
C344 O345 1.229 . S
C344 O357 1.058 . S
O345 C344 1.229 . S
O346 Zn340 1.969 . S
O346 C349 1.267 . S
O347 Zn340 1.965 . S
O347 C358 1.260 . S
O348 Zn341 1.969 . S
O348 C358 1.258 . S
C349 O346 1.267 . S
C349 O350 1.228 . S
O350 C349 1.228 . S
O351 Zn340 2.024 . S
O351 C342 1.058 . S
C352 O353 1.228 . S
C352 O354 1.267 . S
O353 C352 1.228 . S
O354 Zn341 1.969 . S
O354 C352 1.267 . S
O355 Zn341 1.965 . S
O355 C359 1.260 . S
O356 Zn340 1.969 . S
O356 C359 1.258 . S
O357 Zn341 2.024 . S
O357 C344 1.058 . S
C358 O347 1.260 . S
C358 O348 1.258 . S
C359 O355 1.260 . S
C359 O356 1.258 . S
Zn360 O366 1.969 . S
Zn360 O367 1.965 . S
Zn360 O371 2.024 . S
Zn360 O376 1.969 . S
Zn361 O368 1.969 . S
Zn361 O374 1.969 . S
Zn361 O375 1.965 . S
Zn361 O377 2.024 . S
C362 O363 1.229 . S
C362 O371 1.058 . S
O363 C362 1.229 . S
C364 O365 1.229 . S
C364 O377 1.058 . S
O365 C364 1.229 . S
O366 Zn360 1.969 . S
O366 C369 1.267 . S
O367 Zn360 1.965 . S
O367 C378 1.260 . S
O368 Zn361 1.969 . S
O368 C378 1.258 . S
C369 O366 1.267 . S
C369 O370 1.228 . S
O370 C369 1.228 . S
O371 Zn360 2.024 . S
O371 C362 1.058 . S
C372 O373 1.228 . S
C372 O374 1.267 . S
O373 C372 1.228 . S
O374 Zn361 1.969 . S
O374 C372 1.267 . S
O375 Zn361 1.965 . S
O375 C379 1.260 . S
O376 Zn360 1.969 . S
O376 C379 1.258 . S
O377 Zn361 2.024 . S
O377 C364 1.058 . S
C378 O367 1.260 . S
C378 O368 1.258 . S
C379 O375 1.260 . S
C379 O376 1.258 . S
Zn380 O386 1.969 . S
Zn380 O387 1.965 . S
Zn380 O391 2.024 . S
Zn380 O396 1.969 . S
Zn381 O388 1.969 . S
Zn381 O394 1.969 . S
Zn381 O395 1.965 . S
Zn381 O397 2.024 . S
C382 O383 1.229 . S
C382 O391 1.058 . S
O383 C382 1.229 . S
C384 O385 1.229 . S
C384 O397 1.058 . S
O385 C384 1.229 . S
O386 Zn380 1.969 . S
O386 C389 1.267 . S
O387 Zn380 1.965 . S
O387 C398 1.260 . S
O388 Zn381 1.969 . S
O388 C398 1.258 . S
C389 O386 1.267 . S
C389 O390 1.228 . S
O390 C389 1.228 . S
O391 Zn380 2.024 . S
O391 C382 1.058 . S
C392 O393 1.228 . S
C392 O394 1.267 . S
O393 C392 1.228 . S
O394 Zn381 1.969 . S
O394 C392 1.267 . S
O395 Zn381 1.965 . S
O395 C399 1.260 . S
O396 Zn380 1.969 . S
O396 C399 1.258 . S
O397 Zn381 2.024 . S
O397 C384 1.058 . S
C398 O387 1.260 . S
C398 O388 1.258 . S
C399 O395 1.260 . S
C399 O396 1.258 . S
Zn400 O406 1.969 . S
Zn400 O407 1.965 . S
Zn400 O411 2.024 . S
Zn400 O416 1.969 . S
Zn401 O408 1.969 . S
Zn401 O414 1.969 . S
Zn401 O415 1.965 . S
Zn401 O417 2.024 . S
C402 O403 1.229 . S
C402 O411 1.058 . S
O403 C402 1.229 . S
C404 O405 1.229 . S
C404 O417 1.058 . S
O405 C404 1.229 . S
O406 Zn400 1.969 . S
O406 C409 1.267 . S
O407 Zn400 1.965 . S
O407 C418 1.260 . S
O408 Zn401 1.969 . S
O408 C418 1.258 . S
C409 O406 1.267 . S
C409 O410 1.228 . S
O410 C409 1.228 . S
O411 Zn400 2.024 . S
O411 C402 1.058 . S
C412 O413 1.228 . S
C412 O414 1.267 . S
O413 C412 1.228 . S
O414 Zn401 1.969 . S
O414 C412 1.267 . S
O415 Zn401 1.965 . S
O415 C419 1.260 . S
O416 Zn400 1.969 . S
O416 C419 1.258 . S
O417 Zn401 2.024 . S
O417 C404 1.058 . S
C418 O407 1.260 . S
C418 O408 1.258 . S
C419 O415 1.260 . S
C419 O416 1.258 . S
Zn420 O426 1.969 . S
Zn420 O427 1.965 . S
Zn420 O431 2.024 . S
Zn420 O436 1.969 . S
Zn421 O428 1.969 . S
Zn421 O434 1.969 . S
Zn421 O435 1.965 . S
Zn421 O437 2.024 . S
C422 O423 1.229 . S
C422 O431 1.058 . S
O423 C422 1.229 . S
C424 O425 1.229 . S
C424 O437 1.058 . S
O425 C424 1.229 . S
O426 Zn420 1.969 . S
O426 C429 1.267 . S
O427 Zn420 1.965 . S
O427 C438 1.260 . S
O428 Zn421 1.969 . S
O428 C438 1.258 . S
C429 O426 1.267 . S
C429 O430 1.228 . S
O430 C429 1.228 . S
O431 Zn420 2.024 . S
O431 C422 1.058 . S
C432 O433 1.228 . S
C432 O434 1.267 . S
O433 C432 1.228 . S
O434 Zn421 1.969 . S
O434 C432 1.267 . S
O435 Zn421 1.965 . S
O435 C439 1.260 . S
O436 Zn420 1.969 . S
O436 C439 1.258 . S
O437 Zn421 2.024 . S
O437 C424 1.058 . S
C438 O427 1.260 . S
C438 O428 1.258 . S
C439 O435 1.260 . S
C439 O436 1.258 . S
Zn440 O446 1.969 . S
Zn440 O447 1.965 . S
Zn440 O451 2.024 . S
Zn440 O456 1.969 . S
Zn441 O448 1.969 . S
Zn441 O454 1.969 . S
Zn441 O455 1.965 . S
Zn441 O457 2.024 . S
C442 O443 1.229 . S
C442 O451 1.058 . S
O443 C442 1.229 . S
C444 O445 1.229 . S
C444 O457 1.058 . S
O445 C444 1.229 . S
O446 Zn440 1.969 . S
O446 C449 1.267 . S
O447 Zn440 1.965 . S
O447 C458 1.260 . S
O448 Zn441 1.969 . S
O448 C458 1.258 . S
C449 O446 1.267 . S
C449 O450 1.228 . S
O450 C449 1.228 . S
O451 Zn440 2.024 . S
O451 C442 1.058 . S
C452 O453 1.228 . S
C452 O454 1.267 . S
O453 C452 1.228 . S
O454 Zn441 1.969 . S
O454 C452 1.267 . S
O455 Zn441 1.965 . S
O455 C459 1.260 . S
O456 Zn440 1.969 . S
O456 C459 1.258 . S
O457 Zn441 2.024 . S
O457 C444 1.058 . S
C458 O447 1.260 . S
C458 O448 1.258 . S
C459 O455 1.260 . S
C459 O456 1.258 . S
Zn460 O466 1.969 . S
Zn460 O467 1.965 . S
Zn460 O471 2.024 . S
Zn460 O476 1.969 . S
Zn461 O468 1.969 . S
Zn461 O474 1.969 . S
Zn461 O475 1.965 . S
Zn461 O477 2.024 . S
C462 O463 1.229 . S
C462 O471 1.058 . S
O463 C462 1.229 . S
C464 O465 1.229 . S
C464 O477 1.058 . S
O465 C464 1.229 . S
O466 Zn460 1.969 . S
O466 C469 1.267 . S
O467 Zn460 1.965 . S
O467 C478 1.260 . S
O468 Zn461 1.969 . S
O468 C478 1.258 . S
C469 O466 1.267 . S
C469 O470 1.228 . S
O470 C469 1.228 . S
O471 Zn460 2.024 . S
O471 C462 1.058 . S
C472 O473 1.228 . S
C472 O474 1.267 . S
O473 C472 1.228 . S
O474 Zn461 1.969 . S
O474 C472 1.267 . S
O475 Zn461 1.965 . S
O475 C479 1.260 . S
O476 Zn460 1.969 . S
O476 C479 1.258 . S
O477 Zn461 2.024 . S
O477 C464 1.058 . S
C478 O467 1.260 . S
C478 O468 1.258 . S
C479 O475 1.260 . S
C479 O476 1.258 . S
Zn480 O486 1.969 . S
Zn480 O487 1.965 1_545 S
Zn480 O491 2.024 . S
Zn480 O496 1.969 . S
Zn481 O488 1.969 . S
Zn481 O494 1.969 . S
Zn481 O495 1.987 . S
Zn481 O497 2.024 . S
C482 O483 1.229 . S
C482 O491 1.058 . S
O483 C482 1.229 . S
C484 O485 1.229 . S
C484 O497 1.058 . S
O485 C484 1.229 . S
O486 Zn480 1.969 . S
O486 C489 1.267 . S
O487 Zn480 1.965 1_565 S
O487 C498 1.260 . S
O488 Zn481 1.969 . S
O488 C498 1.258 . S
C489 O486 1.267 . S
C489 O490 1.228 . S
O490 C489 1.228 . S
O491 Zn480 2.024 . S
O491 C482 1.058 . S
C492 O493 1.228 . S
C492 O494 1.267 . S
O493 C492 1.228 . S
O494 Zn481 1.969 . S
O494 C492 1.267 . S
O495 Zn481 1.987 . S
O495 C499 1.257 1_565 S
O496 Zn480 1.969 . S
O496 C499 1.258 . S
O497 Zn481 2.024 . S
O497 C484 1.058 . S
C498 O487 1.260 . S
C498 O488 1.258 . S
C499 O495 1.257 1_545 S
C499 O496 1.258 . S
Zn500 O506 1.969 . S
Zn500 O507 1.965 . S
Zn500 O511 2.024 . S
Zn500 O516 1.969 . S
Zn501 O508 1.969 . S
Zn501 O514 1.969 . S
Zn501 O515 1.965 . S
Zn501 O517 2.024 . S
C502 O503 1.229 . S
C502 O511 1.058 . S
O503 C502 1.229 . S
C504 O505 1.229 . S
C504 O517 1.058 . S
O505 C504 1.229 . S
O506 Zn500 1.969 . S
O506 C509 1.267 . S
O507 Zn500 1.965 . S
O507 C518 1.260 . S
O508 Zn501 1.969 . S
O508 C518 1.258 . S
C509 O506 1.267 . S
C509 O510 1.228 . S
O510 C509 1.228 . S
O511 Zn500 2.024 . S
O511 C502 1.058 . S
C512 O513 1.228 . S
C512 O514 1.267 . S
O513 C512 1.228 . S
O514 Zn501 1.969 . S
O514 C512 1.267 . S
O515 Zn501 1.965 . S
O515 C519 1.260 . S
O516 Zn500 1.969 . S
O516 C519 1.258 . S
O517 Zn501 2.024 . S
O517 C504 1.058 . S
C518 O507 1.260 . S
C518 O508 1.258 . S
C519 O515 1.260 . S
C519 O516 1.258 . S
Zn520 O526 1.969 . S
Zn520 O527 1.965 . S
Zn520 O531 2.024 . S
Zn520 O536 1.969 . S
Zn521 O528 1.969 . S
Zn521 O534 1.969 . S
Zn521 O535 1.965 . S
Zn521 O537 2.024 . S
C522 O523 1.229 . S
C522 O531 1.058 . S
O523 C522 1.229 . S
C524 O525 1.229 . S
C524 O537 1.058 . S
O525 C524 1.229 . S
O526 Zn520 1.969 . S
O526 C529 1.267 . S
O527 Zn520 1.965 . S
O527 C538 1.260 . S
O528 Zn521 1.969 . S
O528 C538 1.258 . S
C529 O526 1.267 . S
C529 O530 1.228 . S
O530 C529 1.228 . S
O531 Zn520 2.024 . S
O531 C522 1.058 . S
C532 O533 1.228 . S
C532 O534 1.267 . S
O533 C532 1.228 . S
O534 Zn521 1.969 . S
O534 C532 1.267 . S
O535 Zn521 1.965 . S
O535 C539 1.260 . S
O536 Zn520 1.969 . S
O536 C539 1.258 . S
O537 Zn521 2.024 . S
O537 C524 1.058 . S
C538 O527 1.260 . S
C538 O528 1.258 . S
C539 O535 1.260 . S
C539 O536 1.258 . S
Zn540 O546 1.969 . S
Zn540 O547 1.965 1_545 S
Zn540 O551 2.024 . S
Zn540 O556 1.969 . S
Zn541 O548 1.969 . S
Zn541 O554 1.969 . S
Zn541 O555 1.987 . S
Zn541 O557 2.024 . S
C542 O543 1.229 . S
C542 O551 1.058 . S
O543 C542 1.229 . S
C544 O545 1.229 . S
C544 O557 1.058 . S
O545 C544 1.229 . S
O546 Zn540 1.969 . S
O546 C549 1.267 . S
O547 Zn540 1.965 1_565 S
O547 C558 1.260 . S
O548 Zn541 1.969 . S
O548 C558 1.258 . S
C549 O546 1.267 . S
C549 O550 1.228 . S
O550 C549 1.228 . S
O551 Zn540 2.024 . S
O551 C542 1.058 . S
C552 O553 1.228 . S
C552 O554 1.267 . S
O553 C552 1.228 . S
O554 Zn541 1.969 . S
O554 C552 1.267 . S
O555 Zn541 1.987 . S
O555 C559 1.257 1_565 S
O556 Zn540 1.969 . S
O556 C559 1.258 . S
O557 Zn541 2.024 . S
O557 C544 1.058 . S
C558 O547 1.260 . S
C558 O548 1.258 . S
C559 O555 1.257 1_545 S
C559 O556 1.258 . S
Zn560 O566 1.969 . S
Zn560 O567 1.987 . S
Zn560 O571 2.024 . S
Zn560 O576 1.969 . S
Zn561 O568 1.969 . S
Zn561 O574 1.969 . S
Zn561 O575 1.965 1_565 S
Zn561 O577 2.024 . S
C562 O563 1.229 . S
C562 O571 1.058 . S
O563 C562 1.229 . S
C564 O565 1.229 . S
C564 O577 1.058 . S
O565 C564 1.229 . S
O566 Zn560 1.969 . S
O566 C569 1.267 . S
O567 Zn560 1.987 . S
O567 C578 1.257 1_545 S
O568 Zn561 1.969 . S
O568 C578 1.258 . S
C569 O566 1.267 . S
C569 O570 1.228 . S
O570 C569 1.228 . S
O571 Zn560 2.024 . S
O571 C562 1.058 . S
C572 O573 1.228 . S
C572 O574 1.267 . S
O573 C572 1.228 . S
O574 Zn561 1.969 . S
O574 C572 1.267 . S
O575 Zn561 1.965 1_545 S
O575 C579 1.260 . S
O576 Zn560 1.969 . S
O576 C579 1.258 . S
O577 Zn561 2.024 . S
O577 C564 1.058 . S
C578 O567 1.257 1_565 S
C578 O568 1.258 . S
C579 O575 1.260 . S
C579 O576 1.258 . S
Zn580 O586 1.969 . S
Zn580 O587 1.965 . S
Zn580 O591 2.024 . S
Zn580 O596 1.969 . S
Zn581 O588 1.969 . S
Zn581 O594 1.969 . S
Zn581 O595 1.965 . S
Zn581 O597 2.024 . S
C582 O583 1.229 . S
C582 O591 1.058 . S
O583 C582 1.229 . S
C584 O585 1.229 . S
C584 O597 1.058 . S
O585 C584 1.229 . S
O586 Zn580 1.969 . S
O586 C589 1.267 . S
O587 Zn580 1.965 . S
O587 C598 1.260 . S
O588 Zn581 1.969 . S
O588 C598 1.258 . S
C589 O586 1.267 . S
C589 O590 1.228 . S
O590 C589 1.228 . S
O591 Zn580 2.024 . S
O591 C582 1.058 . S
C592 O593 1.228 . S
C592 O594 1.267 . S
O593 C592 1.228 . S
O594 Zn581 1.969 . S
O594 C592 1.267 . S
O595 Zn581 1.965 . S
O595 C599 1.260 . S
O596 Zn580 1.969 . S
O596 C599 1.258 . S
O597 Zn581 2.024 . S
O597 C584 1.058 . S
C598 O587 1.260 . S
C598 O588 1.258 . S
C599 O595 1.260 . S
C599 O596 1.258 . S
Zn600 O606 1.969 . S
Zn600 O607 1.965 . S
Zn600 O611 2.024 . S
Zn600 O616 1.969 . S
Zn601 O608 1.969 . S
Zn601 O614 1.969 . S
Zn601 O615 1.965 . S
Zn601 O617 2.024 . S
C602 O603 1.229 . S
C602 O611 1.058 . S
O603 C602 1.229 . S
C604 O605 1.229 . S
C604 O617 1.058 . S
O605 C604 1.229 . S
O606 Zn600 1.969 . S
O606 C609 1.267 . S
O607 Zn600 1.965 . S
O607 C618 1.260 . S
O608 Zn601 1.969 . S
O608 C618 1.258 . S
C609 O606 1.267 . S
C609 O610 1.228 . S
O610 C609 1.228 . S
O611 Zn600 2.024 . S
O611 C602 1.058 . S
C612 O613 1.228 . S
C612 O614 1.267 . S
O613 C612 1.228 . S
O614 Zn601 1.969 . S
O614 C612 1.267 . S
O615 Zn601 1.965 . S
O615 C619 1.260 . S
O616 Zn600 1.969 . S
O616 C619 1.258 . S
O617 Zn601 2.024 . S
O617 C604 1.058 . S
C618 O607 1.260 . S
C618 O608 1.258 . S
C619 O615 1.260 . S
C619 O616 1.258 . S
Zn620 O626 1.969 . S
Zn620 O627 1.987 . S
Zn620 O631 2.024 . S
Zn620 O636 1.969 . S
Zn621 O628 1.969 . S
Zn621 O634 1.969 . S
Zn621 O635 1.965 1_565 S
Zn621 O637 2.024 . S
C622 O623 1.229 . S
C622 O631 1.058 . S
O623 C622 1.229 . S
C624 O625 1.229 . S
C624 O637 1.058 . S
O625 C624 1.229 . S
O626 Zn620 1.969 . S
O626 C629 1.267 . S
O627 Zn620 1.987 . S
O627 C638 1.257 1_545 S
O628 Zn621 1.969 . S
O628 C638 1.258 . S
C629 O626 1.267 . S
C629 O630 1.228 . S
O630 C629 1.228 . S
O631 Zn620 2.024 . S
O631 C622 1.058 . S
C632 O633 1.228 . S
C632 O634 1.267 . S
O633 C632 1.228 . S
O634 Zn621 1.969 . S
O634 C632 1.267 . S
O635 Zn621 1.965 1_545 S
O635 C639 1.260 . S
O636 Zn620 1.969 . S
O636 C639 1.258 . S
O637 Zn621 2.024 . S
O637 C624 1.058 . S
C638 O627 1.257 1_565 S
C638 O628 1.258 . S
C639 O635 1.260 . S
C639 O636 1.258 . S
H640 C648 0.929 . S
H641 C650 0.930 . S
H642 C652 0.930 . S
H643 C655 0.929 1_455 S
H644 C658 0.930 . S
H645 C660 0.960 . S
H646 C660 0.960 . S
H647 C660 0.960 . S
C648 H640 0.929 . S
C648 C649 1.377 . S
C648 C650 1.384 . S
C649 C648 1.377 . S
C649 C655 1.390 . S
C650 H641 0.930 . S
C650 C648 1.384 . S
C650 C651 1.372 . S
C651 C650 1.372 . S
C651 C652 1.400 . S
C651 C656 1.490 . S
C652 H642 0.930 . S
C652 C651 1.400 . S
C652 C655 1.386 . S
H653 C669 0.930 . S
H654 C670 0.931 . S
C655 H643 0.929 1_655 S
C655 C649 1.390 . S
C655 C652 1.386 . S
C656 C651 1.490 . S
C656 C658 1.395 . S
C656 C659 1.403 . S
H657 C663 0.930 . S
C658 H644 0.930 . S
C658 C656 1.395 . S
C658 C661 1.403 . S
C659 C656 1.403 . S
C659 C660 1.524 . S
C659 C663 1.400 . S
C660 H645 0.960 . S
C660 H646 0.960 . S
C660 H647 0.960 . S
C660 C659 1.524 . S
C661 C658 1.403 . S
C661 C662 1.392 . S
C661 C665 1.495 . S
C662 C661 1.392 . S
C662 C663 1.385 . S
C662 C664 1.478 . S
C663 H657 0.930 . S
C663 C659 1.400 . S
C663 C662 1.385 . S
C664 C662 1.478 . S
C664 C666 1.381 . S
C664 C670 1.383 . S
C665 C661 1.495 . S
C665 H671 0.959 . S
C665 H672 0.961 . S
C665 H673 0.960 . S
C666 C664 1.381 . S
C666 C667 1.394 . S
C666 H674 0.930 . S
C667 C666 1.394 . S
C667 C668 1.383 . S
C667 H675 0.929 . S
C668 C667 1.383 . S
C668 C669 1.377 . S
C669 H653 0.930 . S
C669 C668 1.377 . S
C669 C670 1.379 . S
C670 H654 0.931 . S
C670 C664 1.383 . S
C670 C669 1.379 . S
H671 C665 0.959 . S
H672 C665 0.961 . S
H673 C665 0.960 . S
H674 C666 0.930 . S
H675 C667 0.929 . S
H676 C684 0.929 . S
H677 C686 0.930 . S
H678 C688 0.930 . S
H679 C691 0.929 . S
H680 C694 0.930 . S
H681 C696 0.960 . S
H682 C696 0.960 . S
H683 C696 0.960 . S
C684 H676 0.929 . S
C684 C685 1.377 . S
C684 C686 1.384 . S
C685 C684 1.377 . S
C685 C691 1.390 . S
C686 H677 0.930 . S
C686 C684 1.384 . S
C686 C687 1.372 . S
C687 C686 1.372 . S
C687 C688 1.400 . S
C687 C692 1.490 . S
C688 H678 0.930 . S
C688 C687 1.400 . S
C688 C691 1.386 . S
H689 C705 0.930 . S
H690 C706 0.931 . S
C691 H679 0.929 . S
C691 C685 1.390 . S
C691 C688 1.386 . S
C692 C687 1.490 . S
C692 C694 1.395 . S
C692 C695 1.403 . S
H693 C699 0.930 . S
C694 H680 0.930 . S
C694 C692 1.395 . S
C694 C697 1.403 . S
C695 C692 1.403 . S
C695 C696 1.524 . S
C695 C699 1.400 . S
C696 H681 0.960 . S
C696 H682 0.960 . S
C696 H683 0.960 . S
C696 C695 1.524 . S
C697 C694 1.403 . S
C697 C698 1.392 . S
C697 C701 1.495 . S
C698 C697 1.392 . S
C698 C699 1.385 . S
C698 C700 1.478 . S
C699 H693 0.930 . S
C699 C695 1.400 . S
C699 C698 1.385 . S
C700 C698 1.478 . S
C700 C702 1.381 . S
C700 C706 1.383 . S
C701 C697 1.495 . S
C701 H707 0.959 . S
C701 H708 0.961 . S
C701 H709 0.960 . S
C702 C700 1.381 . S
C702 C703 1.394 . S
C702 H710 0.930 . S
C703 C702 1.394 . S
C703 C704 1.383 . S
C703 H711 0.929 . S
C704 C703 1.383 . S
C704 C705 1.377 . S
C705 H689 0.930 . S
C705 C704 1.377 . S
C705 C706 1.379 . S
C706 H690 0.931 . S
C706 C700 1.383 . S
C706 C705 1.379 . S
H707 C701 0.959 . S
H708 C701 0.961 . S
H709 C701 0.960 . S
H710 C702 0.930 . S
H711 C703 0.929 . S
H712 C720 0.929 . S
H713 C722 0.930 . S
H714 C724 0.930 . S
H715 C727 0.929 . S
H716 C730 0.930 . S
H717 C732 0.960 . S
H718 C732 0.960 . S
H719 C732 0.960 . S
C720 H712 0.929 . S
C720 C721 1.377 . S
C720 C722 1.384 . S
C721 C720 1.377 . S
C721 C727 1.390 . S
C722 H713 0.930 . S
C722 C720 1.384 . S
C722 C723 1.372 . S
C723 C722 1.372 . S
C723 C724 1.400 . S
C723 C728 1.490 . S
C724 H714 0.930 . S
C724 C723 1.400 . S
C724 C727 1.386 . S
H725 C741 0.930 1_455 S
H726 C742 0.931 . S
C727 H715 0.929 . S
C727 C721 1.390 . S
C727 C724 1.386 . S
C728 C723 1.490 . S
C728 C730 1.395 . S
C728 C731 1.403 . S
H729 C735 0.930 . S
C730 H716 0.930 . S
C730 C728 1.395 . S
C730 C733 1.403 . S
C731 C728 1.403 . S
C731 C732 1.524 . S
C731 C735 1.400 . S
C732 H717 0.960 . S
C732 H718 0.960 . S
C732 H719 0.960 . S
C732 C731 1.524 . S
C733 C730 1.403 . S
C733 C734 1.392 . S
C733 C737 1.495 . S
C734 C733 1.392 . S
C734 C735 1.385 . S
C734 C736 1.478 . S
C735 H729 0.930 . S
C735 C731 1.400 . S
C735 C734 1.385 . S
C736 C734 1.478 . S
C736 C738 1.381 . S
C736 C742 1.383 . S
C737 C733 1.495 . S
C737 H743 0.959 . S
C737 H744 0.961 . S
C737 H745 0.960 . S
C738 C736 1.381 . S
C738 C739 1.394 . S
C738 H746 0.930 . S
C739 C738 1.394 . S
C739 C740 1.383 . S
C739 H747 0.929 . S
C740 C739 1.383 . S
C740 C741 1.377 . S
C741 H725 0.930 1_655 S
C741 C740 1.377 . S
C741 C742 1.379 . S
C742 H726 0.931 . S
C742 C736 1.383 . S
C742 C741 1.379 . S
H743 C737 0.959 . S
H744 C737 0.961 . S
H745 C737 0.960 . S
H746 C738 0.930 . S
H747 C739 0.929 . S
H748 C756 0.929 . S
H749 C758 0.930 . S
H750 C760 0.930 . S
H751 C763 0.929 . S
H752 C766 0.930 . S
H753 C768 0.960 . S
H754 C768 0.960 . S
H755 C768 0.960 . S
C756 H748 0.929 . S
C756 C757 1.377 . S
C756 C758 1.384 . S
C757 C756 1.377 . S
C757 C763 1.390 . S
C758 H749 0.930 . S
C758 C756 1.384 . S
C758 C759 1.372 . S
C759 C758 1.372 . S
C759 C760 1.400 . S
C759 C764 1.490 . S
C760 H750 0.930 . S
C760 C759 1.400 . S
C760 C763 1.386 . S
H761 C777 0.930 . S
H762 C778 0.931 . S
C763 H751 0.929 . S
C763 C757 1.390 . S
C763 C760 1.386 . S
C764 C759 1.490 . S
C764 C766 1.395 . S
C764 C767 1.403 . S
H765 C771 0.930 . S
C766 H752 0.930 . S
C766 C764 1.395 . S
C766 C769 1.403 . S
C767 C764 1.403 . S
C767 C768 1.524 . S
C767 C771 1.400 . S
C768 H753 0.960 . S
C768 H754 0.960 . S
C768 H755 0.960 . S
C768 C767 1.524 . S
C769 C766 1.403 . S
C769 C770 1.392 . S
C769 C773 1.495 . S
C770 C769 1.392 . S
C770 C771 1.385 . S
C770 C772 1.478 . S
C771 H765 0.930 . S
C771 C767 1.400 . S
C771 C770 1.385 . S
C772 C770 1.478 . S
C772 C774 1.381 . S
C772 C778 1.383 . S
C773 C769 1.495 . S
C773 H779 0.959 . S
C773 H780 0.961 . S
C773 H781 0.960 . S
C774 C772 1.381 . S
C774 C775 1.394 . S
C774 H782 0.930 . S
C775 C774 1.394 . S
C775 C776 1.383 . S
C775 H783 0.929 . S
C776 C775 1.383 . S
C776 C777 1.377 . S
C777 H761 0.930 . S
C777 C776 1.377 . S
C777 C778 1.379 . S
C778 H762 0.931 . S
C778 C772 1.383 . S
C778 C777 1.379 . S
H779 C773 0.959 . S
H780 C773 0.961 . S
H781 C773 0.960 . S
H782 C774 0.930 . S
H783 C775 0.929 . S
H784 C792 0.929 . S
H785 C794 0.930 . S
H786 C796 0.930 . S
H787 C799 0.929 1_655 S
H788 C802 0.930 . S
H789 C804 0.960 . S
H790 C804 0.960 . S
H791 C804 0.960 1_655 S
C792 H784 0.929 . S
C792 C793 1.377 . S
C792 C794 1.384 . S
C793 C792 1.377 . S
C793 C799 1.390 . S
C794 H785 0.930 . S
C794 C792 1.384 . S
C794 C795 1.372 . S
C795 C794 1.372 . S
C795 C796 1.400 . S
C795 C800 1.490 . S
C796 H786 0.930 . S
C796 C795 1.400 . S
C796 C799 1.386 . S
H797 C813 0.930 . S
H798 C814 0.931 . S
C799 H787 0.929 1_455 S
C799 C793 1.390 . S
C799 C796 1.386 . S
C800 C795 1.490 . S
C800 C802 1.395 . S
C800 C803 1.403 . S
H801 C807 0.930 . S
C802 H788 0.930 . S
C802 C800 1.395 . S
C802 C805 1.403 . S
C803 C800 1.403 . S
C803 C804 1.524 . S
C803 C807 1.400 . S
C804 H789 0.960 . S
C804 H790 0.960 . S
C804 H791 0.960 1_455 S
C804 C803 1.524 . S
C805 C802 1.403 . S
C805 C806 1.392 . S
C805 C809 1.495 . S
C806 C805 1.392 . S
C806 C807 1.385 . S
C806 C808 1.478 . S
C807 H801 0.930 . S
C807 C803 1.400 . S
C807 C806 1.385 . S
C808 C806 1.478 . S
C808 C810 1.381 . S
C808 C814 1.383 . S
C809 C805 1.495 . S
C809 H815 0.959 . S
C809 H816 0.961 . S
C809 H817 0.960 . S
C810 C808 1.381 . S
C810 C811 1.394 . S
C810 H818 0.930 . S
C811 C810 1.394 . S
C811 C812 1.383 . S
C811 H819 0.929 . S
C812 C811 1.383 . S
C812 C813 1.377 . S
C813 H797 0.930 . S
C813 C812 1.377 . S
C813 C814 1.379 . S
C814 H798 0.931 . S
C814 C808 1.383 . S
C814 C813 1.379 . S
H815 C809 0.959 . S
H816 C809 0.961 . S
H817 C809 0.960 . S
H818 C810 0.930 . S
H819 C811 0.929 . S
H820 C828 0.929 . S
H821 C830 0.930 . S
H822 C832 0.930 . S
H823 C835 0.929 . S
H824 C838 0.930 . S
H825 C840 0.960 . S
H826 C840 0.960 . S
H827 C840 0.960 . S
C828 H820 0.929 . S
C828 C829 1.377 . S
C828 C830 1.384 . S
C829 C828 1.377 . S
C829 C835 1.390 . S
C830 H821 0.930 . S
C830 C828 1.384 . S
C830 C831 1.372 . S
C831 C830 1.372 . S
C831 C832 1.400 . S
C831 C836 1.490 . S
C832 H822 0.930 . S
C832 C831 1.400 . S
C832 C835 1.386 . S
H833 C849 0.930 . S
H834 C850 0.931 . S
C835 H823 0.929 . S
C835 C829 1.390 . S
C835 C832 1.386 . S
C836 C831 1.490 . S
C836 C838 1.395 . S
C836 C839 1.403 . S
H837 C843 0.930 . S
C838 H824 0.930 . S
C838 C836 1.395 . S
C838 C841 1.403 . S
C839 C836 1.403 . S
C839 C840 1.524 . S
C839 C843 1.400 . S
C840 H825 0.960 . S
C840 H826 0.960 . S
C840 H827 0.960 . S
C840 C839 1.524 . S
C841 C838 1.403 . S
C841 C842 1.392 . S
C841 C845 1.495 . S
C842 C841 1.392 . S
C842 C843 1.385 . S
C842 C844 1.478 . S
C843 H837 0.930 . S
C843 C839 1.400 . S
C843 C842 1.385 . S
C844 C842 1.478 . S
C844 C846 1.381 . S
C844 C850 1.383 . S
C845 C841 1.495 . S
C845 H851 0.959 . S
C845 H852 0.961 . S
C845 H853 0.960 . S
C846 C844 1.381 . S
C846 C847 1.394 . S
C846 H854 0.930 . S
C847 C846 1.394 . S
C847 C848 1.383 . S
C847 H855 0.929 . S
C848 C847 1.383 . S
C848 C849 1.377 . S
C849 H833 0.930 . S
C849 C848 1.377 . S
C849 C850 1.379 . S
C850 H834 0.931 . S
C850 C844 1.383 . S
C850 C849 1.379 . S
H851 C845 0.959 . S
H852 C845 0.961 . S
H853 C845 0.960 . S
H854 C846 0.930 . S
H855 C847 0.929 . S
H856 C864 0.929 . S
H857 C866 0.930 . S
H858 C868 0.930 . S
H859 C871 0.929 . S
H860 C874 0.930 . S
H861 C876 0.960 . S
H862 C876 0.960 . S
H863 C876 0.960 . S
C864 H856 0.929 . S
C864 C865 1.377 . S
C864 C866 1.384 . S
C865 C864 1.377 . S
C865 C871 1.390 . S
C866 H857 0.930 . S
C866 C864 1.384 . S
C866 C867 1.372 . S
C867 C866 1.372 . S
C867 C868 1.400 . S
C867 C872 1.490 . S
C868 H858 0.930 . S
C868 C867 1.400 . S
C868 C871 1.386 . S
H869 C885 0.930 . S
H870 C886 0.931 . S
C871 H859 0.929 . S
C871 C865 1.390 . S
C871 C868 1.386 . S
C872 C867 1.490 . S
C872 C874 1.395 . S
C872 C875 1.403 . S
H873 C879 0.930 . S
C874 H860 0.930 . S
C874 C872 1.395 . S
C874 C877 1.403 . S
C875 C872 1.403 . S
C875 C876 1.524 . S
C875 C879 1.400 . S
C876 H861 0.960 . S
C876 H862 0.960 . S
C876 H863 0.960 . S
C876 C875 1.524 . S
C877 C874 1.403 . S
C877 C878 1.392 . S
C877 C881 1.495 . S
C878 C877 1.392 . S
C878 C879 1.385 . S
C878 C880 1.478 . S
C879 H873 0.930 . S
C879 C875 1.400 . S
C879 C878 1.385 . S
C880 C878 1.478 . S
C880 C882 1.381 . S
C880 C886 1.383 . S
C881 C877 1.495 . S
C881 H887 0.959 1_455 S
C881 H888 0.961 . S
C881 H889 0.960 . S
C882 C880 1.381 . S
C882 C883 1.394 . S
C882 H890 0.930 . S
C883 C882 1.394 . S
C883 C884 1.383 . S
C883 H891 0.929 . S
C884 C883 1.383 . S
C884 C885 1.377 . S
C885 H869 0.930 . S
C885 C884 1.377 . S
C885 C886 1.379 . S
C886 H870 0.931 . S
C886 C880 1.383 . S
C886 C885 1.379 . S
H887 C881 0.959 1_655 S
H888 C881 0.961 . S
H889 C881 0.960 . S
H890 C882 0.930 . S
H891 C883 0.929 . S
H892 C900 0.929 . S
H893 C902 0.930 . S
H894 C904 0.930 . S
H895 C907 0.929 . S
H896 C910 0.930 . S
H897 C912 0.960 . S
H898 C912 0.960 . S
H899 C912 0.960 . S
C900 H892 0.929 . S
C900 C901 1.377 . S
C900 C902 1.384 . S
C901 C900 1.377 . S
C901 C907 1.390 . S
C902 H893 0.930 . S
C902 C900 1.384 . S
C902 C903 1.372 . S
C903 C902 1.372 . S
C903 C904 1.400 . S
C903 C908 1.490 . S
C904 H894 0.930 . S
C904 C903 1.400 . S
C904 C907 1.386 . S
H905 C921 0.930 . S
H906 C922 0.931 . S
C907 H895 0.929 . S
C907 C901 1.390 . S
C907 C904 1.386 . S
C908 C903 1.490 . S
C908 C910 1.395 . S
C908 C911 1.403 . S
H909 C915 0.930 . S
C910 H896 0.930 . S
C910 C908 1.395 . S
C910 C913 1.403 . S
C911 C908 1.403 . S
C911 C912 1.524 . S
C911 C915 1.400 . S
C912 H897 0.960 . S
C912 H898 0.960 . S
C912 H899 0.960 . S
C912 C911 1.524 . S
C913 C910 1.403 . S
C913 C914 1.392 . S
C913 C917 1.495 . S
C914 C913 1.392 . S
C914 C915 1.385 . S
C914 C916 1.478 . S
C915 H909 0.930 . S
C915 C911 1.400 . S
C915 C914 1.385 . S
C916 C914 1.478 . S
C916 C918 1.381 . S
C916 C922 1.383 . S
C917 C913 1.495 . S
C917 H923 0.959 . S
C917 H924 0.961 . S
C917 H925 0.960 . S
C918 C916 1.381 . S
C918 C919 1.394 . S
C918 H926 0.930 . S
C919 C918 1.394 . S
C919 C920 1.383 . S
C919 H927 0.929 . S
C920 C919 1.383 . S
C920 C921 1.377 . S
C921 H905 0.930 . S
C921 C920 1.377 . S
C921 C922 1.379 . S
C922 H906 0.931 . S
C922 C916 1.383 . S
C922 C921 1.379 . S
H923 C917 0.959 . S
H924 C917 0.961 . S
H925 C917 0.960 . S
H926 C918 0.930 . S
H927 C919 0.929 . S
H928 C936 0.929 . S
H929 C938 0.930 . S
H930 C940 0.930 . S
H931 C943 0.929 . S
H932 C946 0.930 . S
H933 C948 0.960 1_455 S
H934 C948 0.960 1_455 S
H935 C948 0.960 . S
C936 H928 0.929 . S
C936 C937 1.377 . S
C936 C938 1.384 . S
C937 C936 1.377 . S
C937 C943 1.390 . S
C938 H929 0.930 . S
C938 C936 1.384 . S
C938 C939 1.372 . S
C939 C938 1.372 . S
C939 C940 1.400 . S
C939 C944 1.490 . S
C940 H930 0.930 . S
C940 C939 1.400 . S
C940 C943 1.386 . S
H941 C957 0.930 . S
H942 C958 0.931 . S
C943 H931 0.929 . S
C943 C937 1.390 . S
C943 C940 1.386 . S
C944 C939 1.490 . S
C944 C946 1.395 . S
C944 C947 1.403 . S
H945 C951 0.930 . S
C946 H932 0.930 . S
C946 C944 1.395 . S
C946 C949 1.403 . S
C947 C944 1.403 . S
C947 C948 1.524 . S
C947 C951 1.400 . S
C948 H933 0.960 1_655 S
C948 H934 0.960 1_655 S
C948 H935 0.960 . S
C948 C947 1.524 . S
C949 C946 1.403 . S
C949 C950 1.392 . S
C949 C953 1.495 . S
C950 C949 1.392 . S
C950 C951 1.385 . S
C950 C952 1.478 . S
C951 H945 0.930 . S
C951 C947 1.400 . S
C951 C950 1.385 . S
C952 C950 1.478 . S
C952 C954 1.381 . S
C952 C958 1.383 . S
C953 C949 1.495 . S
C953 H959 0.959 . S
C953 H960 0.961 . S
C953 H961 0.960 . S
C954 C952 1.381 . S
C954 C955 1.394 . S
C954 H962 0.930 . S
C955 C954 1.394 . S
C955 C956 1.383 . S
C955 H963 0.929 . S
C956 C955 1.383 . S
C956 C957 1.377 . S
C957 H941 0.930 . S
C957 C956 1.377 . S
C957 C958 1.379 . S
C958 H942 0.931 . S
C958 C952 1.383 . S
C958 C957 1.379 . S
H959 C953 0.959 . S
H960 C953 0.961 . S
H961 C953 0.960 . S
H962 C954 0.930 . S
H963 C955 0.929 . S
H964 C972 0.929 . S
H965 C974 0.930 . S
H966 C976 0.930 . S
H967 C979 0.929 . S
H968 C982 0.930 . S
H969 C984 0.960 . S
H970 C984 0.960 . S
H971 C984 0.960 . S
C972 H964 0.929 . S
C972 C973 1.377 . S
C972 C974 1.384 . S
C973 C972 1.377 . S
C973 C979 1.390 . S
C974 H965 0.930 . S
C974 C972 1.384 . S
C974 C975 1.372 . S
C975 C974 1.372 . S
C975 C976 1.400 . S
C975 C980 1.490 . S
C976 H966 0.930 . S
C976 C975 1.400 . S
C976 C979 1.386 . S
H977 C993 0.930 . S
H978 C994 0.931 . S
C979 H967 0.929 . S
C979 C973 1.390 . S
C979 C976 1.386 . S
C980 C975 1.490 . S
C980 C982 1.395 . S
C980 C983 1.403 . S
H981 C987 0.930 . S
C982 H968 0.930 . S
C982 C980 1.395 . S
C982 C985 1.403 . S
C983 C980 1.403 . S
C983 C984 1.524 . S
C983 C987 1.400 . S
C984 H969 0.960 . S
C984 H970 0.960 . S
C984 H971 0.960 . S
C984 C983 1.524 . S
C985 C982 1.403 . S
C985 C986 1.392 . S
C985 C989 1.495 . S
C986 C985 1.392 . S
C986 C987 1.385 . S
C986 C988 1.478 . S
C987 H981 0.930 . S
C987 C983 1.400 . S
C987 C986 1.385 . S
C988 C986 1.478 . S
C988 C990 1.381 . S
C988 C994 1.383 . S
C989 C985 1.495 . S
C989 H995 0.959 . S
C989 H996 0.961 . S
C989 H997 0.960 . S
C990 C988 1.381 . S
C990 C991 1.394 . S
C990 H998 0.930 . S
C991 C990 1.394 . S
C991 C992 1.383 . S
C991 H999 0.929 . S
C992 C991 1.383 . S
C992 C993 1.377 . S
C993 H977 0.930 . S
C993 C992 1.377 . S
C993 C994 1.379 . S
C994 H978 0.931 . S
C994 C988 1.383 . S
C994 C993 1.379 . S
H995 C989 0.959 . S
H996 C989 0.961 . S
H997 C989 0.960 . S
H998 C990 0.930 . S
H999 C991 0.929 . S
H1000 C1008 0.929 . S
H1001 C1010 0.930 . S
H1002 C1012 0.930 . S
H1003 C1015 0.929 . S
H1004 C1018 0.930 . S
H1005 C1020 0.960 1_455 S
H1006 C1020 0.960 1_455 S
H1007 C1020 0.960 . S
C1008 H1000 0.929 . S
C1008 C1009 1.377 . S
C1008 C1010 1.384 . S
C1009 C1008 1.377 . S
C1009 C1015 1.390 . S
C1010 H1001 0.930 . S
C1010 C1008 1.384 . S
C1010 C1011 1.372 . S
C1011 C1010 1.372 . S
C1011 C1012 1.400 . S
C1011 C1016 1.490 . S
C1012 H1002 0.930 . S
C1012 C1011 1.400 . S
C1012 C1015 1.386 . S
H1013 C1029 0.930 . S
H1014 C1030 0.931 . S
C1015 H1003 0.929 . S
C1015 C1009 1.390 . S
C1015 C1012 1.386 . S
C1016 C1011 1.490 . S
C1016 C1018 1.395 . S
C1016 C1019 1.403 . S
H1017 C1023 0.930 . S
C1018 H1004 0.930 . S
C1018 C1016 1.395 . S
C1018 C1021 1.403 . S
C1019 C1016 1.403 . S
C1019 C1020 1.524 . S
C1019 C1023 1.400 . S
C1020 H1005 0.960 1_655 S
C1020 H1006 0.960 1_655 S
C1020 H1007 0.960 . S
C1020 C1019 1.524 . S
C1021 C1018 1.403 . S
C1021 C1022 1.392 . S
C1021 C1025 1.495 . S
C1022 C1021 1.392 . S
C1022 C1023 1.385 . S
C1022 C1024 1.478 . S
C1023 H1017 0.930 . S
C1023 C1019 1.400 . S
C1023 C1022 1.385 . S
C1024 C1022 1.478 . S
C1024 C1026 1.381 . S
C1024 C1030 1.383 . S
C1025 C1021 1.495 . S
C1025 H1031 0.959 . S
C1025 H1032 0.961 . S
C1025 H1033 0.960 . S
C1026 C1024 1.381 . S
C1026 C1027 1.394 . S
C1026 H1034 0.930 . S
C1027 C1026 1.394 . S
C1027 C1028 1.383 . S
C1027 H1035 0.929 . S
C1028 C1027 1.383 . S
C1028 C1029 1.377 . S
C1029 H1013 0.930 . S
C1029 C1028 1.377 . S
C1029 C1030 1.379 . S
C1030 H1014 0.931 . S
C1030 C1024 1.383 . S
C1030 C1029 1.379 . S
H1031 C1025 0.959 . S
H1032 C1025 0.961 . S
H1033 C1025 0.960 . S
H1034 C1026 0.930 . S
H1035 C1027 0.929 . S
H1036 C1044 0.929 . S
H1037 C1046 0.930 . S
H1038 C1048 0.930 . S
H1039 C1051 0.929 . S
H1040 C1054 0.930 . S
H1041 C1056 0.960 . S
H1042 C1056 0.960 . S
H1043 C1056 0.960 . S
C1044 H1036 0.929 . S
C1044 C1045 1.377 . S
C1044 C1046 1.384 . S
C1045 C1044 1.377 . S
C1045 C1051 1.390 . S
C1046 H1037 0.930 . S
C1046 C1044 1.384 . S
C1046 C1047 1.372 . S
C1047 C1046 1.372 . S
C1047 C1048 1.400 . S
C1047 C1052 1.490 . S
C1048 H1038 0.930 . S
C1048 C1047 1.400 . S
C1048 C1051 1.386 . S
H1049 C1065 0.930 . S
H1050 C1066 0.931 . S
C1051 H1039 0.929 . S
C1051 C1045 1.390 . S
C1051 C1048 1.386 . S
C1052 C1047 1.490 . S
C1052 C1054 1.395 . S
C1052 C1055 1.403 . S
H1053 C1059 0.930 . S
C1054 H1040 0.930 . S
C1054 C1052 1.395 . S
C1054 C1057 1.403 . S
C1055 C1052 1.403 . S
C1055 C1056 1.524 . S
C1055 C1059 1.400 . S
C1056 H1041 0.960 . S
C1056 H1042 0.960 . S
C1056 H1043 0.960 . S
C1056 C1055 1.524 . S
C1057 C1054 1.403 . S
C1057 C1058 1.392 . S
C1057 C1061 1.495 . S
C1058 C1057 1.392 . S
C1058 C1059 1.385 . S
C1058 C1060 1.478 . S
C1059 H1053 0.930 . S
C1059 C1055 1.400 . S
C1059 C1058 1.385 . S
C1060 C1058 1.478 . S
C1060 C1062 1.381 . S
C1060 C1066 1.383 . S
C1061 C1057 1.495 . S
C1061 H1067 0.959 . S
C1061 H1068 0.961 . S
C1061 H1069 0.960 . S
C1062 C1060 1.381 . S
C1062 C1063 1.394 . S
C1062 H1070 0.930 . S
C1063 C1062 1.394 . S
C1063 C1064 1.383 . S
C1063 H1071 0.929 . S
C1064 C1063 1.383 . S
C1064 C1065 1.377 . S
C1065 H1049 0.930 . S
C1065 C1064 1.377 . S
C1065 C1066 1.379 . S
C1066 H1050 0.931 . S
C1066 C1060 1.383 . S
C1066 C1065 1.379 . S
H1067 C1061 0.959 . S
H1068 C1061 0.961 . S
H1069 C1061 0.960 . S
H1070 C1062 0.930 . S
H1071 C1063 0.929 . S
H1072 C1080 0.929 . S
H1073 C1082 0.930 . S
H1074 C1084 0.930 . S
H1075 C1087 0.929 . S
H1076 C1090 0.930 . S
H1077 C1092 0.960 1_655 S
H1078 C1092 0.960 1_655 S
H1079 C1092 0.960 . S
C1080 H1072 0.929 . S
C1080 C1081 1.377 . S
C1080 C1082 1.384 . S
C1081 C1080 1.377 . S
C1081 C1087 1.390 . S
C1082 H1073 0.930 . S
C1082 C1080 1.384 . S
C1082 C1083 1.372 . S
C1083 C1082 1.372 . S
C1083 C1084 1.400 . S
C1083 C1088 1.490 . S
C1084 H1074 0.930 . S
C1084 C1083 1.400 . S
C1084 C1087 1.386 . S
H1085 C1101 0.930 . S
H1086 C1102 0.931 . S
C1087 H1075 0.929 . S
C1087 C1081 1.390 . S
C1087 C1084 1.386 . S
C1088 C1083 1.490 . S
C1088 C1090 1.395 . S
C1088 C1091 1.403 . S
H1089 C1095 0.930 . S
C1090 H1076 0.930 . S
C1090 C1088 1.395 . S
C1090 C1093 1.403 . S
C1091 C1088 1.403 . S
C1091 C1092 1.524 . S
C1091 C1095 1.400 . S
C1092 H1077 0.960 1_455 S
C1092 H1078 0.960 1_455 S
C1092 H1079 0.960 . S
C1092 C1091 1.524 . S
C1093 C1090 1.403 . S
C1093 C1094 1.392 . S
C1093 C1097 1.495 . S
C1094 C1093 1.392 . S
C1094 C1095 1.385 . S
C1094 C1096 1.478 . S
C1095 H1089 0.930 . S
C1095 C1091 1.400 . S
C1095 C1094 1.385 . S
C1096 C1094 1.478 . S
C1096 C1098 1.381 . S
C1096 C1102 1.383 . S
C1097 C1093 1.495 . S
C1097 H1103 0.959 . S
C1097 H1104 0.961 . S
C1097 H1105 0.960 . S
C1098 C1096 1.381 . S
C1098 C1099 1.394 . S
C1098 H1106 0.930 . S
C1099 C1098 1.394 . S
C1099 C1100 1.383 . S
C1099 H1107 0.929 . S
C1100 C1099 1.383 . S
C1100 C1101 1.377 . S
C1101 H1085 0.930 . S
C1101 C1100 1.377 . S
C1101 C1102 1.379 . S
C1102 H1086 0.931 . S
C1102 C1096 1.383 . S
C1102 C1101 1.379 . S
H1103 C1097 0.959 . S
H1104 C1097 0.961 . S
H1105 C1097 0.960 . S
H1106 C1098 0.930 . S
H1107 C1099 0.929 . S
H1108 C1116 0.929 . S
H1109 C1118 0.930 . S
H1110 C1120 0.930 . S
H1111 C1123 0.929 . S
H1112 C1126 0.930 . S
H1113 C1128 0.960 . S
H1114 C1128 0.960 . S
H1115 C1128 0.960 . S
C1116 H1108 0.929 . S
C1116 C1117 1.377 . S
C1116 C1118 1.384 . S
C1117 C1116 1.377 . S
C1117 C1123 1.390 . S
C1118 H1109 0.930 . S
C1118 C1116 1.384 . S
C1118 C1119 1.372 . S
C1119 C1118 1.372 . S
C1119 C1120 1.400 . S
C1119 C1124 1.490 . S
C1120 H1110 0.930 . S
C1120 C1119 1.400 . S
C1120 C1123 1.386 . S
H1121 C1137 0.930 . S
H1122 C1138 0.931 . S
C1123 H1111 0.929 . S
C1123 C1117 1.390 . S
C1123 C1120 1.386 . S
C1124 C1119 1.490 . S
C1124 C1126 1.395 . S
C1124 C1127 1.403 . S
H1125 C1131 0.930 . S
C1126 H1112 0.930 . S
C1126 C1124 1.395 . S
C1126 C1129 1.403 . S
C1127 C1124 1.403 . S
C1127 C1128 1.524 . S
C1127 C1131 1.400 . S
C1128 H1113 0.960 . S
C1128 H1114 0.960 . S
C1128 H1115 0.960 . S
C1128 C1127 1.524 . S
C1129 C1126 1.403 . S
C1129 C1130 1.392 . S
C1129 C1133 1.495 . S
C1130 C1129 1.392 . S
C1130 C1131 1.385 . S
C1130 C1132 1.478 . S
C1131 H1125 0.930 . S
C1131 C1127 1.400 . S
C1131 C1130 1.385 . S
C1132 C1130 1.478 . S
C1132 C1134 1.381 . S
C1132 C1138 1.383 . S
C1133 C1129 1.495 . S
C1133 H1139 0.959 . S
C1133 H1140 0.961 . S
C1133 H1141 0.960 . S
C1134 C1132 1.381 . S
C1134 C1135 1.394 . S
C1134 H1142 0.930 . S
C1135 C1134 1.394 . S
C1135 C1136 1.383 . S
C1135 H1143 0.929 . S
C1136 C1135 1.383 . S
C1136 C1137 1.377 . S
C1137 H1121 0.930 . S
C1137 C1136 1.377 . S
C1137 C1138 1.379 . S
C1138 H1122 0.931 . S
C1138 C1132 1.383 . S
C1138 C1137 1.379 . S
H1139 C1133 0.959 . S
H1140 C1133 0.961 . S
H1141 C1133 0.960 . S
H1142 C1134 0.930 . S
H1143 C1135 0.929 . S
H1144 C1152 0.929 . S
H1145 C1154 0.930 . S
H1146 C1156 0.930 . S
H1147 C1159 0.929 . S
H1148 C1162 0.930 . S
H1149 C1164 0.960 . S
H1150 C1164 0.960 . S
H1151 C1164 0.960 . S
C1152 H1144 0.929 . S
C1152 C1153 1.377 . S
C1152 C1154 1.384 . S
C1153 C1152 1.377 . S
C1153 C1159 1.390 . S
C1154 H1145 0.930 . S
C1154 C1152 1.384 . S
C1154 C1155 1.372 . S
C1155 C1154 1.372 . S
C1155 C1156 1.400 . S
C1155 C1160 1.490 . S
C1156 H1146 0.930 . S
C1156 C1155 1.400 . S
C1156 C1159 1.386 . S
H1157 C1173 0.930 . S
H1158 C1174 0.931 . S
C1159 H1147 0.929 . S
C1159 C1153 1.390 . S
C1159 C1156 1.386 . S
C1160 C1155 1.490 . S
C1160 C1162 1.395 . S
C1160 C1163 1.403 . S
H1161 C1167 0.930 . S
C1162 H1148 0.930 . S
C1162 C1160 1.395 . S
C1162 C1165 1.403 . S
C1163 C1160 1.403 . S
C1163 C1164 1.524 . S
C1163 C1167 1.400 . S
C1164 H1149 0.960 . S
C1164 H1150 0.960 . S
C1164 H1151 0.960 . S
C1164 C1163 1.524 . S
C1165 C1162 1.403 . S
C1165 C1166 1.392 . S
C1165 C1169 1.495 1_455 S
C1166 C1165 1.392 . S
C1166 C1167 1.385 . S
C1166 C1168 1.478 . S
C1167 H1161 0.930 . S
C1167 C1163 1.400 . S
C1167 C1166 1.385 . S
C1168 C1166 1.478 . S
C1168 C1170 1.381 . S
C1168 C1174 1.383 . S
C1169 C1165 1.495 1_655 S
C1169 H1175 0.959 . S
C1169 H1176 0.961 . S
C1169 H1177 0.960 . S
C1170 C1168 1.381 . S
C1170 C1171 1.394 . S
C1170 H1178 0.930 . S
C1171 C1170 1.394 . S
C1171 C1172 1.383 . S
C1171 H1179 0.929 . S
C1172 C1171 1.383 . S
C1172 C1173 1.377 . S
C1173 H1157 0.930 . S
C1173 C1172 1.377 . S
C1173 C1174 1.379 . S
C1174 H1158 0.931 . S
C1174 C1168 1.383 . S
C1174 C1173 1.379 . S
H1175 C1169 0.959 . S
H1176 C1169 0.961 . S
H1177 C1169 0.960 . S
H1178 C1170 0.930 . S
H1179 C1171 0.929 . S
H1180 C1188 0.929 . S
H1181 C1190 0.930 . S
H1182 C1192 0.930 . S
H1183 C1195 0.929 . S
H1184 C1198 0.930 . S
H1185 C1200 0.960 . S
H1186 C1200 0.960 . S
H1187 C1200 0.960 . S
C1188 H1180 0.929 . S
C1188 C1189 1.377 . S
C1188 C1190 1.384 . S
C1189 C1188 1.377 . S
C1189 C1195 1.390 . S
C1190 H1181 0.930 . S
C1190 C1188 1.384 . S
C1190 C1191 1.372 . S
C1191 C1190 1.372 . S
C1191 C1192 1.400 . S
C1191 C1196 1.490 . S
C1192 H1182 0.930 . S
C1192 C1191 1.400 . S
C1192 C1195 1.386 . S
H1193 C1209 0.930 . S
H1194 C1210 0.931 . S
C1195 H1183 0.929 . S
C1195 C1189 1.390 . S
C1195 C1192 1.386 . S
C1196 C1191 1.490 . S
C1196 C1198 1.395 . S
C1196 C1199 1.403 . S
H1197 C1203 0.930 . S
C1198 H1184 0.930 . S
C1198 C1196 1.395 . S
C1198 C1201 1.403 . S
C1199 C1196 1.403 . S
C1199 C1200 1.524 . S
C1199 C1203 1.400 . S
C1200 H1185 0.960 . S
C1200 H1186 0.960 . S
C1200 H1187 0.960 . S
C1200 C1199 1.524 . S
C1201 C1198 1.403 . S
C1201 C1202 1.392 . S
C1201 C1205 1.495 . S
C1202 C1201 1.392 . S
C1202 C1203 1.385 . S
C1202 C1204 1.478 . S
C1203 H1197 0.930 . S
C1203 C1199 1.400 . S
C1203 C1202 1.385 . S
C1204 C1202 1.478 . S
C1204 C1206 1.381 . S
C1204 C1210 1.383 . S
C1205 C1201 1.495 . S
C1205 H1211 0.959 . S
C1205 H1212 0.961 . S
C1205 H1213 0.960 . S
C1206 C1204 1.381 . S
C1206 C1207 1.394 . S
C1206 H1214 0.930 . S
C1207 C1206 1.394 . S
C1207 C1208 1.383 . S
C1207 H1215 0.929 . S
C1208 C1207 1.383 . S
C1208 C1209 1.377 . S
C1209 H1193 0.930 . S
C1209 C1208 1.377 . S
C1209 C1210 1.379 . S
C1210 H1194 0.931 . S
C1210 C1204 1.383 . S
C1210 C1209 1.379 . S
H1211 C1205 0.959 . S
H1212 C1205 0.961 . S
H1213 C1205 0.960 . S
H1214 C1206 0.930 . S
H1215 C1207 0.929 . S
H1216 C1224 0.929 . S
H1217 C1226 0.930 . S
H1218 C1228 0.930 . S
H1219 C1231 0.929 . S
H1220 C1234 0.930 . S
H1221 C1236 0.960 1_655 S
H1222 C1236 0.960 1_655 S
H1223 C1236 0.960 1_655 S
C1224 H1216 0.929 . S
C1224 C1225 1.377 . S
C1224 C1226 1.384 . S
C1225 C1224 1.377 . S
C1225 C1231 1.390 . S
C1226 H1217 0.930 . S
C1226 C1224 1.384 . S
C1226 C1227 1.372 . S
C1227 C1226 1.372 . S
C1227 C1228 1.400 . S
C1227 C1232 1.490 . S
C1228 H1218 0.930 . S
C1228 C1227 1.400 . S
C1228 C1231 1.386 . S
H1229 C1245 0.930 . S
H1230 C1246 0.931 . S
C1231 H1219 0.929 . S
C1231 C1225 1.390 . S
C1231 C1228 1.386 . S
C1232 C1227 1.490 . S
C1232 C1234 1.395 . S
C1232 C1235 1.403 . S
H1233 C1239 0.930 . S
C1234 H1220 0.930 . S
C1234 C1232 1.395 . S
C1234 C1237 1.403 . S
C1235 C1232 1.403 . S
C1235 C1236 1.524 . S
C1235 C1239 1.400 . S
C1236 H1221 0.960 1_455 S
C1236 H1222 0.960 1_455 S
C1236 H1223 0.960 1_455 S
C1236 C1235 1.524 . S
C1237 C1234 1.403 . S
C1237 C1238 1.392 . S
C1237 C1241 1.495 . S
C1238 C1237 1.392 . S
C1238 C1239 1.385 . S
C1238 C1240 1.478 . S
C1239 H1233 0.930 . S
C1239 C1235 1.400 . S
C1239 C1238 1.385 . S
C1240 C1238 1.478 . S
C1240 C1242 1.381 . S
C1240 C1246 1.383 . S
C1241 C1237 1.495 . S
C1241 H1247 0.959 . S
C1241 H1248 0.961 . S
C1241 H1249 0.960 . S
C1242 C1240 1.381 . S
C1242 C1243 1.394 . S
C1242 H1250 0.930 . S
C1243 C1242 1.394 . S
C1243 C1244 1.383 . S
C1243 H1251 0.929 . S
C1244 C1243 1.383 . S
C1244 C1245 1.377 . S
C1245 H1229 0.930 . S
C1245 C1244 1.377 . S
C1245 C1246 1.379 . S
C1246 H1230 0.931 . S
C1246 C1240 1.383 . S
C1246 C1245 1.379 . S
H1247 C1241 0.959 . S
H1248 C1241 0.961 . S
H1249 C1241 0.960 . S
H1250 C1242 0.930 . S
H1251 C1243 0.929 . S
H1252 C1260 0.929 . S
H1253 C1262 0.930 . S
H1254 C1264 0.930 . S
H1255 C1267 0.929 . S
H1256 C1270 0.930 . S
H1257 C1272 0.960 . S
H1258 C1272 0.960 . S
H1259 C1272 0.960 . S
C1260 H1252 0.929 . S
C1260 C1261 1.377 . S
C1260 C1262 1.384 . S
C1261 C1260 1.377 . S
C1261 C1267 1.390 . S
C1262 H1253 0.930 . S
C1262 C1260 1.384 . S
C1262 C1263 1.372 . S
C1263 C1262 1.372 . S
C1263 C1264 1.400 . S
C1263 C1268 1.490 . S
C1264 H1254 0.930 . S
C1264 C1263 1.400 . S
C1264 C1267 1.386 . S
H1265 C1281 0.930 . S
H1266 C1282 0.931 . S
C1267 H1255 0.929 . S
C1267 C1261 1.390 . S
C1267 C1264 1.386 . S
C1268 C1263 1.490 . S
C1268 C1270 1.395 . S
C1268 C1271 1.403 . S
H1269 C1275 0.930 . S
C1270 H1256 0.930 . S
C1270 C1268 1.395 . S
C1270 C1273 1.403 . S
C1271 C1268 1.403 . S
C1271 C1272 1.524 . S
C1271 C1275 1.400 . S
C1272 H1257 0.960 . S
C1272 H1258 0.960 . S
C1272 H1259 0.960 . S
C1272 C1271 1.524 . S
C1273 C1270 1.403 . S
C1273 C1274 1.392 . S
C1273 C1277 1.495 . S
C1274 C1273 1.392 . S
C1274 C1275 1.385 . S
C1274 C1276 1.478 . S
C1275 H1269 0.930 . S
C1275 C1271 1.400 . S
C1275 C1274 1.385 . S
C1276 C1274 1.478 . S
C1276 C1278 1.381 . S
C1276 C1282 1.383 . S
C1277 C1273 1.495 . S
C1277 H1283 0.959 . S
C1277 H1284 0.961 . S
C1277 H1285 0.960 . S
C1278 C1276 1.381 . S
C1278 C1279 1.394 . S
C1278 H1286 0.930 . S
C1279 C1278 1.394 . S
C1279 C1280 1.383 . S
C1279 H1287 0.929 . S
C1280 C1279 1.383 . S
C1280 C1281 1.377 . S
C1281 H1265 0.930 . S
C1281 C1280 1.377 . S
C1281 C1282 1.379 . S
C1282 H1266 0.931 . S
C1282 C1276 1.383 . S
C1282 C1281 1.379 . S
H1283 C1277 0.959 . S
H1284 C1277 0.961 . S
H1285 C1277 0.960 . S
H1286 C1278 0.930 . S
H1287 C1279 0.929 . S
H1288 C1296 0.929 . S
H1289 C1298 0.930 . S
H1290 C1300 0.930 . S
H1291 C1303 0.929 . S
H1292 C1306 0.930 . S
H1293 C1308 0.960 . S
H1294 C1308 0.960 . S
H1295 C1308 0.960 . S
C1296 H1288 0.929 . S
C1296 C1297 1.377 . S
C1296 C1298 1.384 . S
C1297 C1296 1.377 . S
C1297 C1303 1.390 . S
C1298 H1289 0.930 . S
C1298 C1296 1.384 . S
C1298 C1299 1.372 . S
C1299 C1298 1.372 . S
C1299 C1300 1.400 . S
C1299 C1304 1.490 . S
C1300 H1290 0.930 . S
C1300 C1299 1.400 . S
C1300 C1303 1.386 . S
H1301 C1317 0.930 . S
H1302 C1318 0.931 . S
C1303 H1291 0.929 . S
C1303 C1297 1.390 . S
C1303 C1300 1.386 . S
C1304 C1299 1.490 . S
C1304 C1306 1.395 . S
C1304 C1307 1.403 . S
H1305 C1311 0.930 . S
C1306 H1292 0.930 . S
C1306 C1304 1.395 . S
C1306 C1309 1.403 . S
C1307 C1304 1.403 . S
C1307 C1308 1.524 . S
C1307 C1311 1.400 . S
C1308 H1293 0.960 . S
C1308 H1294 0.960 . S
C1308 H1295 0.960 . S
C1308 C1307 1.524 . S
C1309 C1306 1.403 . S
C1309 C1310 1.392 . S
C1309 C1313 1.495 . S
C1310 C1309 1.392 . S
C1310 C1311 1.385 . S
C1310 C1312 1.478 . S
C1311 H1305 0.930 . S
C1311 C1307 1.400 . S
C1311 C1310 1.385 . S
C1312 C1310 1.478 . S
C1312 C1314 1.381 . S
C1312 C1318 1.383 . S
C1313 C1309 1.495 . S
C1313 H1319 0.959 . S
C1313 H1320 0.961 . S
C1313 H1321 0.960 . S
C1314 C1312 1.381 . S
C1314 C1315 1.394 . S
C1314 H1322 0.930 . S
C1315 C1314 1.394 . S
C1315 C1316 1.383 . S
C1315 H1323 0.929 . S
C1316 C1315 1.383 . S
C1316 C1317 1.377 . S
C1317 H1301 0.930 . S
C1317 C1316 1.377 . S
C1317 C1318 1.379 . S
C1318 H1302 0.931 . S
C1318 C1312 1.383 . S
C1318 C1317 1.379 . S
H1319 C1313 0.959 . S
H1320 C1313 0.961 . S
H1321 C1313 0.960 . S
H1322 C1314 0.930 . S
H1323 C1315 0.929 . S
H1324 C1332 0.929 . S
H1325 C1334 0.930 . S
H1326 C1336 0.930 . S
H1327 C1339 0.929 1_455 S
H1328 C1342 0.930 . S
H1329 C1344 0.960 . S
H1330 C1344 0.960 . S
H1331 C1344 0.960 1_455 S
C1332 H1324 0.929 . S
C1332 C1333 1.377 . S
C1332 C1334 1.384 . S
C1333 C1332 1.377 . S
C1333 C1339 1.390 . S
C1334 H1325 0.930 . S
C1334 C1332 1.384 . S
C1334 C1335 1.372 . S
C1335 C1334 1.372 . S
C1335 C1336 1.400 . S
C1335 C1340 1.490 . S
C1336 H1326 0.930 . S
C1336 C1335 1.400 . S
C1336 C1339 1.386 . S
H1337 C1353 0.930 . S
H1338 C1354 0.931 . S
C1339 H1327 0.929 1_655 S
C1339 C1333 1.390 . S
C1339 C1336 1.386 . S
C1340 C1335 1.490 . S
C1340 C1342 1.395 . S
C1340 C1343 1.403 . S
H1341 C1347 0.930 . S
C1342 H1328 0.930 . S
C1342 C1340 1.395 . S
C1342 C1345 1.403 . S
C1343 C1340 1.403 . S
C1343 C1344 1.524 . S
C1343 C1347 1.400 . S
C1344 H1329 0.960 . S
C1344 H1330 0.960 . S
C1344 H1331 0.960 1_655 S
C1344 C1343 1.524 . S
C1345 C1342 1.403 . S
C1345 C1346 1.392 . S
C1345 C1349 1.495 . S
C1346 C1345 1.392 . S
C1346 C1347 1.385 . S
C1346 C1348 1.478 . S
C1347 H1341 0.930 . S
C1347 C1343 1.400 . S
C1347 C1346 1.385 . S
C1348 C1346 1.478 . S
C1348 C1350 1.381 . S
C1348 C1354 1.383 . S
C1349 C1345 1.495 . S
C1349 H1355 0.959 . S
C1349 H1356 0.961 . S
C1349 H1357 0.960 . S
C1350 C1348 1.381 . S
C1350 C1351 1.394 . S
C1350 H1358 0.930 . S
C1351 C1350 1.394 . S
C1351 C1352 1.383 . S
C1351 H1359 0.929 . S
C1352 C1351 1.383 . S
C1352 C1353 1.377 . S
C1353 H1337 0.930 . S
C1353 C1352 1.377 . S
C1353 C1354 1.379 . S
C1354 H1338 0.931 . S
C1354 C1348 1.383 . S
C1354 C1353 1.379 . S
H1355 C1349 0.959 . S
H1356 C1349 0.961 . S
H1357 C1349 0.960 . S
H1358 C1350 0.930 . S
H1359 C1351 0.929 . S
H1360 C1368 0.929 1_655 S
H1361 C1370 0.930 . S
H1362 C1372 0.930 . S
H1363 C1375 0.929 . S
H1364 C1378 0.930 . S
H1365 C1380 0.960 . S
H1366 C1380 0.960 . S
H1367 C1380 0.960 . S
C1368 H1360 0.929 1_455 S
C1368 C1369 1.377 . S
C1368 C1370 1.384 . S
C1369 C1368 1.377 . S
C1369 C1375 1.390 . S
C1370 H1361 0.930 . S
C1370 C1368 1.384 . S
C1370 C1371 1.372 . S
C1371 C1370 1.372 . S
C1371 C1372 1.400 . S
C1371 C1376 1.490 . S
C1372 H1362 0.930 . S
C1372 C1371 1.400 . S
C1372 C1375 1.386 . S
H1373 C1389 0.930 . S
H1374 C1390 0.931 . S
C1375 H1363 0.929 . S
C1375 C1369 1.390 . S
C1375 C1372 1.386 . S
C1376 C1371 1.490 . S
C1376 C1378 1.395 . S
C1376 C1379 1.403 1_565 S
H1377 C1383 0.930 . S
C1378 H1364 0.930 . S
C1378 C1376 1.395 . S
C1378 C1381 1.403 . S
C1379 C1376 1.403 1_545 S
C1379 C1380 1.524 . S
C1379 C1383 1.400 . S
C1380 H1365 0.960 . S
C1380 H1366 0.960 . S
C1380 H1367 0.960 . S
C1380 C1379 1.524 . S
C1381 C1378 1.403 . S
C1381 C1382 1.392 . S
C1381 C1385 1.495 . S
C1382 C1381 1.392 . S
C1382 C1383 1.385 1_565 S
C1382 C1384 1.478 . S
C1383 H1377 0.930 . S
C1383 C1379 1.400 . S
C1383 C1382 1.385 1_545 S
C1384 C1382 1.478 . S
C1384 C1386 1.381 . S
C1384 C1390 1.383 . S
C1385 C1381 1.495 . S
C1385 H1391 0.959 . S
C1385 H1392 0.961 . S
C1385 H1393 0.960 . S
C1386 C1384 1.381 . S
C1386 C1387 1.394 . S
C1386 H1394 0.930 . S
C1387 C1386 1.394 . S
C1387 C1388 1.383 . S
C1387 H1395 0.929 . S
C1388 C1387 1.383 . S
C1388 C1389 1.377 . S
C1389 H1373 0.930 . S
C1389 C1388 1.377 . S
C1389 C1390 1.379 . S
C1390 H1374 0.931 . S
C1390 C1384 1.383 . S
C1390 C1389 1.379 . S
H1391 C1385 0.959 . S
H1392 C1385 0.961 . S
H1393 C1385 0.960 . S
H1394 C1386 0.930 . S
H1395 C1387 0.929 . S
H1396 C1404 0.929 . S
H1397 C1406 0.930 . S
H1398 C1408 0.930 . S
H1399 C1411 0.929 . S
H1400 C1414 0.930 . S
H1401 C1416 0.960 . S
H1402 C1416 0.960 . S
H1403 C1416 0.960 . S
C1404 H1396 0.929 . S
C1404 C1405 1.377 . S
C1404 C1406 1.384 . S
C1405 C1404 1.377 . S
C1405 C1411 1.390 . S
C1406 H1397 0.930 . S
C1406 C1404 1.384 . S
C1406 C1407 1.372 . S
C1407 C1406 1.372 . S
C1407 C1408 1.400 . S
C1407 C1412 1.490 . S
C1408 H1398 0.930 . S
C1408 C1407 1.400 . S
C1408 C1411 1.386 . S
H1409 C1425 0.930 1_655 S
H1410 C1426 0.931 . S
C1411 H1399 0.929 . S
C1411 C1405 1.390 . S
C1411 C1408 1.386 . S
C1412 C1407 1.490 . S
C1412 C1414 1.395 . S
C1412 C1415 1.403 . S
H1413 C1419 0.930 . S
C1414 H1400 0.930 . S
C1414 C1412 1.395 . S
C1414 C1417 1.403 . S
C1415 C1412 1.403 . S
C1415 C1416 1.524 . S
C1415 C1419 1.400 . S
C1416 H1401 0.960 . S
C1416 H1402 0.960 . S
C1416 H1403 0.960 . S
C1416 C1415 1.524 . S
C1417 C1414 1.403 . S
C1417 C1418 1.392 . S
C1417 C1421 1.495 . S
C1418 C1417 1.392 . S
C1418 C1419 1.385 . S
C1418 C1420 1.478 . S
C1419 H1413 0.930 . S
C1419 C1415 1.400 . S
C1419 C1418 1.385 . S
C1420 C1418 1.478 . S
C1420 C1422 1.381 . S
C1420 C1426 1.383 . S
C1421 C1417 1.495 . S
C1421 H1427 0.959 . S
C1421 H1428 0.961 . S
C1421 H1429 0.960 . S
C1422 C1420 1.381 . S
C1422 C1423 1.394 . S
C1422 H1430 0.930 . S
C1423 C1422 1.394 . S
C1423 C1424 1.383 . S
C1423 H1431 0.929 . S
C1424 C1423 1.383 . S
C1424 C1425 1.377 . S
C1425 H1409 0.930 1_455 S
C1425 C1424 1.377 . S
C1425 C1426 1.379 . S
C1426 H1410 0.931 . S
C1426 C1420 1.383 . S
C1426 C1425 1.379 . S
H1427 C1421 0.959 . S
H1428 C1421 0.961 . S
H1429 C1421 0.960 . S
H1430 C1422 0.930 . S
H1431 C1423 0.929 . S
H1432 C1440 0.929 1_455 S
H1433 C1442 0.926 1_565 S
H1434 C1444 0.930 . S
H1435 C1447 0.929 . S
H1436 C1450 0.930 . S
H1437 C1452 0.960 . S
H1438 C1452 0.960 . S
H1439 C1452 0.960 . S
C1440 H1432 0.929 1_655 S
C1440 C1441 1.377 . S
C1440 C1442 1.384 . S
C1441 C1440 1.377 . S
C1441 C1447 1.390 . S
C1442 H1433 0.926 1_545 S
C1442 C1440 1.384 . S
C1442 C1443 1.372 . S
C1443 C1442 1.372 . S
C1443 C1444 1.400 . S
C1443 C1448 1.490 . S
C1444 H1434 0.930 . S
C1444 C1443 1.400 . S
C1444 C1447 1.386 . S
H1445 C1461 0.930 . S
H1446 C1462 0.931 . S
C1447 H1435 0.929 . S
C1447 C1441 1.390 . S
C1447 C1444 1.386 . S
C1448 C1443 1.490 . S
C1448 C1450 1.395 1_545 S
C1448 C1451 1.403 . S
H1449 C1455 0.930 . S
C1450 H1436 0.930 . S
C1450 C1448 1.395 1_565 S
C1450 C1453 1.403 . S
C1451 C1448 1.403 . S
C1451 C1452 1.524 . S
C1451 C1455 1.400 . S
C1452 H1437 0.960 . S
C1452 H1438 0.960 . S
C1452 H1439 0.960 . S
C1452 C1451 1.524 . S
C1453 C1450 1.403 . S
C1453 C1454 1.342 1_565 S
C1453 C1457 1.495 . S
C1454 C1453 1.342 1_545 S
C1454 C1455 1.440 . S
C1454 C1456 1.477 . S
C1455 H1449 0.930 . S
C1455 C1451 1.400 . S
C1455 C1454 1.440 . S
C1456 C1454 1.477 . S
C1456 C1458 1.381 . S
C1456 C1462 1.387 . S
C1457 C1453 1.495 . S
C1457 H1463 0.959 . S
C1457 H1464 0.961 . S
C1457 H1465 0.960 . S
C1458 C1456 1.381 . S
C1458 C1459 1.395 . S
C1458 H1466 0.926 1_545 S
C1459 C1458 1.395 . S
C1459 C1460 1.383 . S
C1459 H1467 0.929 . S
C1460 C1459 1.383 . S
C1460 C1461 1.377 . S
C1461 H1445 0.930 . S
C1461 C1460 1.377 . S
C1461 C1462 1.379 . S
C1462 H1446 0.931 . S
C1462 C1456 1.387 . S
C1462 C1461 1.379 . S
H1463 C1457 0.959 . S
H1464 C1457 0.961 . S
H1465 C1457 0.960 . S
H1466 C1458 0.926 1_565 S
H1467 C1459 0.929 . S
H1468 C1476 0.929 . S
H1469 C1478 0.930 . S
H1470 C1480 0.930 . S
H1471 C1483 0.929 1_455 S
H1472 C1486 0.930 . S
H1473 C1488 0.960 . S
H1474 C1488 0.960 . S
H1475 C1488 0.960 . S
C1476 H1468 0.929 . S
C1476 C1477 1.377 . S
C1476 C1478 1.384 . S
C1477 C1476 1.377 . S
C1477 C1483 1.390 . S
C1478 H1469 0.930 . S
C1478 C1476 1.384 . S
C1478 C1479 1.372 . S
C1479 C1478 1.372 . S
C1479 C1480 1.400 . S
C1479 C1484 1.490 . S
C1480 H1470 0.930 . S
C1480 C1479 1.400 . S
C1480 C1483 1.386 . S
H1481 C1497 0.930 . S
H1482 C1498 0.931 . S
C1483 H1471 0.929 1_655 S
C1483 C1477 1.390 . S
C1483 C1480 1.386 . S
C1484 C1479 1.490 . S
C1484 C1486 1.395 . S
C1484 C1487 1.403 . S
H1485 C1491 0.930 . S
C1486 H1472 0.930 . S
C1486 C1484 1.395 . S
C1486 C1489 1.403 . S
C1487 C1484 1.403 . S
C1487 C1488 1.524 . S
C1487 C1491 1.400 . S
C1488 H1473 0.960 . S
C1488 H1474 0.960 . S
C1488 H1475 0.960 . S
C1488 C1487 1.524 . S
C1489 C1486 1.403 . S
C1489 C1490 1.392 . S
C1489 C1493 1.495 . S
C1490 C1489 1.392 . S
C1490 C1491 1.385 . S
C1490 C1492 1.478 . S
C1491 H1485 0.930 . S
C1491 C1487 1.400 . S
C1491 C1490 1.385 . S
C1492 C1490 1.478 . S
C1492 C1494 1.381 . S
C1492 C1498 1.383 . S
C1493 C1489 1.495 . S
C1493 H1499 0.959 . S
C1493 H1500 0.961 . S
C1493 H1501 0.960 . S
C1494 C1492 1.381 . S
C1494 C1495 1.394 . S
C1494 H1502 0.930 . S
C1495 C1494 1.394 . S
C1495 C1496 1.383 . S
C1495 H1503 0.929 . S
C1496 C1495 1.383 . S
C1496 C1497 1.377 . S
C1497 H1481 0.930 . S
C1497 C1496 1.377 . S
C1497 C1498 1.379 . S
C1498 H1482 0.931 . S
C1498 C1492 1.383 . S
C1498 C1497 1.379 . S
H1499 C1493 0.959 . S
H1500 C1493 0.961 . S
H1501 C1493 0.960 . S
H1502 C1494 0.930 . S
H1503 C1495 0.929 . S
H1504 C1512 0.929 . S
H1505 C1514 0.930 . S
H1506 C1516 0.930 . S
H1507 C1519 0.929 . S
H1508 C1522 0.930 . S
H1509 C1524 0.960 . S
H1510 C1524 0.960 . S
H1511 C1524 0.960 . S
C1512 H1504 0.929 . S
C1512 C1513 1.377 . S
C1512 C1514 1.384 . S
C1513 C1512 1.377 . S
C1513 C1519 1.390 . S
C1514 H1505 0.930 . S
C1514 C1512 1.384 . S
C1514 C1515 1.372 . S
C1515 C1514 1.372 . S
C1515 C1516 1.400 . S
C1515 C1520 1.490 . S
C1516 H1506 0.930 . S
C1516 C1515 1.400 . S
C1516 C1519 1.386 . S
H1517 C1533 0.930 . S
H1518 C1534 0.931 . S
C1519 H1507 0.929 . S
C1519 C1513 1.390 . S
C1519 C1516 1.386 . S
C1520 C1515 1.490 . S
C1520 C1522 1.395 . S
C1520 C1523 1.403 . S
H1521 C1527 0.930 . S
C1522 H1508 0.930 . S
C1522 C1520 1.395 . S
C1522 C1525 1.403 . S
C1523 C1520 1.403 . S
C1523 C1524 1.524 . S
C1523 C1527 1.400 . S
C1524 H1509 0.960 . S
C1524 H1510 0.960 . S
C1524 H1511 0.960 . S
C1524 C1523 1.524 . S
C1525 C1522 1.403 . S
C1525 C1526 1.392 . S
C1525 C1529 1.495 . S
C1526 C1525 1.392 . S
C1526 C1527 1.385 . S
C1526 C1528 1.478 . S
C1527 H1521 0.930 . S
C1527 C1523 1.400 . S
C1527 C1526 1.385 . S
C1528 C1526 1.478 . S
C1528 C1530 1.381 . S
C1528 C1534 1.383 . S
C1529 C1525 1.495 . S
C1529 H1535 0.959 . S
C1529 H1536 0.961 . S
C1529 H1537 0.960 . S
C1530 C1528 1.381 . S
C1530 C1531 1.394 . S
C1530 H1538 0.930 . S
C1531 C1530 1.394 . S
C1531 C1532 1.383 . S
C1531 H1539 0.929 . S
C1532 C1531 1.383 . S
C1532 C1533 1.377 . S
C1533 H1517 0.930 . S
C1533 C1532 1.377 . S
C1533 C1534 1.379 . S
C1534 H1518 0.931 . S
C1534 C1528 1.383 . S
C1534 C1533 1.379 . S
H1535 C1529 0.959 . S
H1536 C1529 0.961 . S
H1537 C1529 0.960 . S
H1538 C1530 0.930 . S
H1539 C1531 0.929 . S
H1540 C1548 0.929 . S
H1541 C1550 0.930 . S
H1542 C1552 0.930 . S
H1543 C1555 0.929 . S
H1544 C1558 0.930 . S
H1545 C1560 0.960 . S
H1546 C1560 0.960 . S
H1547 C1560 0.960 . S
C1548 H1540 0.929 . S
C1548 C1549 1.377 . S
C1548 C1550 1.384 . S
C1549 C1548 1.377 . S
C1549 C1555 1.390 . S
C1550 H1541 0.930 . S
C1550 C1548 1.384 . S
C1550 C1551 1.372 . S
C1551 C1550 1.372 . S
C1551 C1552 1.400 . S
C1551 C1556 1.490 . S
C1552 H1542 0.930 . S
C1552 C1551 1.400 . S
C1552 C1555 1.386 . S
H1553 C1569 0.930 . S
H1554 C1570 0.931 . S
C1555 H1543 0.929 . S
C1555 C1549 1.390 . S
C1555 C1552 1.386 . S
C1556 C1551 1.490 . S
C1556 C1558 1.395 . S
C1556 C1559 1.403 . S
H1557 C1563 0.930 . S
C1558 H1544 0.930 . S
C1558 C1556 1.395 . S
C1558 C1561 1.403 . S
C1559 C1556 1.403 . S
C1559 C1560 1.524 . S
C1559 C1563 1.400 . S
C1560 H1545 0.960 . S
C1560 H1546 0.960 . S
C1560 H1547 0.960 . S
C1560 C1559 1.524 . S
C1561 C1558 1.403 . S
C1561 C1562 1.392 . S
C1561 C1565 1.495 . S
C1562 C1561 1.392 . S
C1562 C1563 1.385 . S
C1562 C1564 1.478 . S
C1563 H1557 0.930 . S
C1563 C1559 1.400 . S
C1563 C1562 1.385 . S
C1564 C1562 1.478 . S
C1564 C1566 1.381 . S
C1564 C1570 1.383 . S
C1565 C1561 1.495 . S
C1565 H1571 0.959 . S
C1565 H1572 0.961 . S
C1565 H1573 0.960 . S
C1566 C1564 1.381 . S
C1566 C1567 1.394 . S
C1566 H1574 0.930 . S
C1567 C1566 1.394 . S
C1567 C1568 1.383 . S
C1567 H1575 0.929 . S
C1568 C1567 1.383 . S
C1568 C1569 1.377 . S
C1569 H1553 0.930 . S
C1569 C1568 1.377 . S
C1569 C1570 1.379 . S
C1570 H1554 0.931 . S
C1570 C1564 1.383 . S
C1570 C1569 1.379 . S
H1571 C1565 0.959 . S
H1572 C1565 0.961 . S
H1573 C1565 0.960 . S
H1574 C1566 0.930 . S
H1575 C1567 0.929 . S
H1576 C1584 0.929 . S
H1577 C1586 0.930 . S
H1578 C1588 0.930 . S
H1579 C1591 0.929 . S
H1580 C1594 0.930 . S
H1581 C1596 0.960 . S
H1582 C1596 0.960 . S
H1583 C1596 0.960 . S
C1584 H1576 0.929 . S
C1584 C1585 1.377 . S
C1584 C1586 1.384 . S
C1585 C1584 1.377 . S
C1585 C1591 1.390 . S
C1586 H1577 0.930 . S
C1586 C1584 1.384 . S
C1586 C1587 1.372 . S
C1587 C1586 1.372 . S
C1587 C1588 1.400 . S
C1587 C1592 1.490 . S
C1588 H1578 0.930 . S
C1588 C1587 1.400 . S
C1588 C1591 1.386 . S
H1589 C1605 0.930 . S
H1590 C1606 0.931 . S
C1591 H1579 0.929 . S
C1591 C1585 1.390 . S
C1591 C1588 1.386 . S
C1592 C1587 1.490 . S
C1592 C1594 1.395 . S
C1592 C1595 1.403 . S
H1593 C1599 0.930 . S
C1594 H1580 0.930 . S
C1594 C1592 1.395 . S
C1594 C1597 1.403 . S
C1595 C1592 1.403 . S
C1595 C1596 1.524 . S
C1595 C1599 1.400 . S
C1596 H1581 0.960 . S
C1596 H1582 0.960 . S
C1596 H1583 0.960 . S
C1596 C1595 1.524 . S
C1597 C1594 1.403 . S
C1597 C1598 1.392 . S
C1597 C1601 1.495 . S
C1598 C1597 1.392 . S
C1598 C1599 1.385 . S
C1598 C1600 1.478 . S
C1599 H1593 0.930 . S
C1599 C1595 1.400 . S
C1599 C1598 1.385 . S
C1600 C1598 1.478 . S
C1600 C1602 1.381 . S
C1600 C1606 1.383 . S
C1601 C1597 1.495 . S
C1601 H1607 0.959 . S
C1601 H1608 0.961 . S
C1601 H1609 0.960 . S
C1602 C1600 1.381 . S
C1602 C1603 1.394 . S
C1602 H1610 0.930 . S
C1603 C1602 1.394 . S
C1603 C1604 1.383 . S
C1603 H1611 0.929 . S
C1604 C1603 1.383 . S
C1604 C1605 1.377 . S
C1605 H1589 0.930 . S
C1605 C1604 1.377 . S
C1605 C1606 1.379 . S
C1606 H1590 0.931 . S
C1606 C1600 1.383 . S
C1606 C1605 1.379 . S
H1607 C1601 0.959 . S
H1608 C1601 0.961 . S
H1609 C1601 0.960 . S
H1610 C1602 0.930 . S
H1611 C1603 0.929 . S
H1612 C1620 0.929 . S
H1613 C1622 0.930 . S
H1614 C1624 0.930 . S
H1615 C1627 0.929 . S
H1616 C1630 0.930 . S
H1617 C1632 0.960 . S
H1618 C1632 0.960 . S
H1619 C1632 0.960 . S
C1620 H1612 0.929 . S
C1620 C1621 1.377 . S
C1620 C1622 1.384 . S
C1621 C1620 1.377 . S
C1621 C1627 1.390 . S
C1622 H1613 0.930 . S
C1622 C1620 1.384 . S
C1622 C1623 1.372 . S
C1623 C1622 1.372 . S
C1623 C1624 1.400 . S
C1623 C1628 1.490 . S
C1624 H1614 0.930 . S
C1624 C1623 1.400 . S
C1624 C1627 1.386 . S
H1625 C1641 0.930 . S
H1626 C1642 0.931 . S
C1627 H1615 0.929 . S
C1627 C1621 1.390 . S
C1627 C1624 1.386 . S
C1628 C1623 1.490 . S
C1628 C1630 1.395 . S
C1628 C1631 1.403 . S
H1629 C1635 0.930 . S
C1630 H1616 0.930 . S
C1630 C1628 1.395 . S
C1630 C1633 1.403 . S
C1631 C1628 1.403 . S
C1631 C1632 1.524 . S
C1631 C1635 1.400 . S
C1632 H1617 0.960 . S
C1632 H1618 0.960 . S
C1632 H1619 0.960 . S
C1632 C1631 1.524 . S
C1633 C1630 1.403 . S
C1633 C1634 1.392 . S
C1633 C1637 1.495 . S
C1634 C1633 1.392 . S
C1634 C1635 1.385 . S
C1634 C1636 1.478 . S
C1635 H1629 0.930 . S
C1635 C1631 1.400 . S
C1635 C1634 1.385 . S
C1636 C1634 1.478 . S
C1636 C1638 1.381 . S
C1636 C1642 1.383 . S
C1637 C1633 1.495 . S
C1637 H1643 0.959 . S
C1637 H1644 0.961 . S
C1637 H1645 0.960 . S
C1638 C1636 1.381 . S
C1638 C1639 1.394 . S
C1638 H1646 0.930 . S
C1639 C1638 1.394 . S
C1639 C1640 1.383 . S
C1639 H1647 0.929 . S
C1640 C1639 1.383 . S
C1640 C1641 1.377 . S
C1641 H1625 0.930 . S
C1641 C1640 1.377 . S
C1641 C1642 1.379 . S
C1642 H1626 0.931 . S
C1642 C1636 1.383 . S
C1642 C1641 1.379 . S
H1643 C1637 0.959 . S
H1644 C1637 0.961 . S
H1645 C1637 0.960 . S
H1646 C1638 0.930 . S
H1647 C1639 0.929 . S
H1648 C1656 0.929 . S
H1649 C1658 0.930 . S
H1650 C1660 0.930 . S
H1651 C1663 0.929 . S
H1652 C1666 0.930 . S
H1653 C1668 0.960 . S
H1654 C1668 0.960 1_565 S
H1655 C1668 0.960 . S
C1656 H1648 0.929 . S
C1656 C1657 1.377 . S
C1656 C1658 1.384 . S
C1657 C1656 1.377 . S
C1657 C1663 1.390 1_565 S
C1658 H1649 0.930 . S
C1658 C1656 1.384 . S
C1658 C1659 1.372 . S
C1659 C1658 1.372 . S
C1659 C1660 1.400 1_565 S
C1659 C1664 1.490 . S
C1660 H1650 0.930 . S
C1660 C1659 1.400 1_545 S
C1660 C1663 1.386 . S
H1661 C1677 0.930 . S
H1662 C1678 0.931 . S
C1663 H1651 0.929 . S
C1663 C1657 1.390 1_545 S
C1663 C1660 1.386 . S
C1664 C1659 1.490 . S
C1664 C1666 1.395 . S
C1664 C1667 1.403 . S
H1665 C1671 0.930 1_545 S
C1666 H1652 0.930 . S
C1666 C1664 1.395 . S
C1666 C1669 1.403 . S
C1667 C1664 1.403 . S
C1667 C1668 1.524 1_565 S
C1667 C1671 1.400 . S
C1668 H1653 0.960 . S
C1668 H1654 0.960 1_545 S
C1668 H1655 0.960 . S
C1668 C1667 1.524 1_545 S
C1669 C1666 1.403 . S
C1669 C1670 1.392 . S
C1669 C1673 1.495 . S
C1670 C1669 1.392 . S
C1670 C1671 1.385 . S
C1670 C1672 1.478 . S
C1671 H1665 0.930 1_565 S
C1671 C1667 1.400 . S
C1671 C1670 1.385 . S
C1672 C1670 1.478 . S
C1672 C1674 1.381 . S
C1672 C1678 1.383 1_565 S
C1673 C1669 1.495 . S
C1673 H1679 0.959 . S
C1673 H1680 0.961 . S
C1673 H1681 0.960 . S
C1674 C1672 1.381 . S
C1674 C1675 1.394 . S
C1674 H1682 0.930 . S
C1675 C1674 1.394 . S
C1675 C1676 1.383 . S
C1675 H1683 0.929 . S
C1676 C1675 1.383 . S
C1676 C1677 1.377 1_565 S
C1677 H1661 0.930 . S
C1677 C1676 1.377 1_545 S
C1677 C1678 1.379 . S
C1678 H1662 0.931 . S
C1678 C1672 1.383 1_545 S
C1678 C1677 1.379 . S
H1679 C1673 0.959 . S
H1680 C1673 0.961 . S
H1681 C1673 0.960 . S
H1682 C1674 0.930 . S
H1683 C1675 0.929 . S
H1684 C1692 0.929 . S
H1685 C1694 0.930 . S
H1686 C1696 0.930 . S
H1687 C1699 0.929 . S
H1688 C1702 0.930 . S
H1689 C1704 0.960 . S
H1690 C1704 0.960 . S
H1691 C1704 0.960 . S
C1692 H1684 0.929 . S
C1692 C1693 1.377 . S
C1692 C1694 1.384 . S
C1693 C1692 1.377 . S
C1693 C1699 1.390 . S
C1694 H1685 0.930 . S
C1694 C1692 1.384 . S
C1694 C1695 1.372 . S
C1695 C1694 1.372 . S
C1695 C1696 1.400 . S
C1695 C1700 1.490 . S
C1696 H1686 0.930 . S
C1696 C1695 1.400 . S
C1696 C1699 1.386 . S
H1697 C1713 0.930 . S
H1698 C1714 0.931 . S
C1699 H1687 0.929 . S
C1699 C1693 1.390 . S
C1699 C1696 1.386 . S
C1700 C1695 1.490 . S
C1700 C1702 1.395 . S
C1700 C1703 1.403 . S
H1701 C1707 0.930 . S
C1702 H1688 0.930 . S
C1702 C1700 1.395 . S
C1702 C1705 1.403 . S
C1703 C1700 1.403 . S
C1703 C1704 1.524 . S
C1703 C1707 1.400 . S
C1704 H1689 0.960 . S
C1704 H1690 0.960 . S
C1704 H1691 0.960 . S
C1704 C1703 1.524 . S
C1705 C1702 1.403 . S
C1705 C1706 1.392 . S
C1705 C1709 1.495 . S
C1706 C1705 1.392 . S
C1706 C1707 1.385 . S
C1706 C1708 1.478 . S
C1707 H1701 0.930 . S
C1707 C1703 1.400 . S
C1707 C1706 1.385 . S
C1708 C1706 1.478 . S
C1708 C1710 1.381 . S
C1708 C1714 1.383 . S
C1709 C1705 1.495 . S
C1709 H1715 0.959 . S
C1709 H1716 0.961 . S
C1709 H1717 0.960 . S
C1710 C1708 1.381 . S
C1710 C1711 1.394 . S
C1710 H1718 0.930 . S
C1711 C1710 1.394 . S
C1711 C1712 1.383 . S
C1711 H1719 0.929 . S
C1712 C1711 1.383 . S
C1712 C1713 1.377 . S
C1713 H1697 0.930 . S
C1713 C1712 1.377 . S
C1713 C1714 1.379 . S
C1714 H1698 0.931 . S
C1714 C1708 1.383 . S
C1714 C1713 1.379 . S
H1715 C1709 0.959 . S
H1716 C1709 0.961 . S
H1717 C1709 0.960 . S
H1718 C1710 0.930 . S
H1719 C1711 0.929 . S
H1720 C1728 0.929 . S
H1721 C1730 0.930 . S
H1722 C1732 0.930 . S
H1723 C1735 0.929 . S
H1724 C1738 0.930 . S
H1725 C1740 0.960 . S
H1726 C1740 0.960 . S
H1727 C1740 0.960 . S
C1728 H1720 0.929 . S
C1728 C1729 1.377 1_565 S
C1728 C1730 1.384 . S
C1729 C1728 1.377 1_545 S
C1729 C1735 1.390 . S
C1730 H1721 0.930 . S
C1730 C1728 1.384 . S
C1730 C1731 1.372 1_565 S
C1731 C1730 1.372 1_545 S
C1731 C1732 1.400 . S
C1731 C1736 1.490 . S
C1732 H1722 0.930 . S
C1732 C1731 1.400 . S
C1732 C1735 1.386 . S
H1733 C1749 0.930 . S
H1734 C1750 0.931 . S
C1735 H1723 0.929 . S
C1735 C1729 1.390 . S
C1735 C1732 1.386 . S
C1736 C1731 1.490 . S
C1736 C1738 1.395 1_545 S
C1736 C1739 1.403 . S
H1737 C1743 0.930 . S
C1738 H1724 0.930 . S
C1738 C1736 1.395 1_565 S
C1738 C1741 1.403 . S
C1739 C1736 1.403 . S
C1739 C1740 1.524 . S
C1739 C1743 1.400 . S
C1740 H1725 0.960 . S
C1740 H1726 0.960 . S
C1740 H1727 0.960 . S
C1740 C1739 1.524 . S
C1741 C1738 1.403 . S
C1741 C1742 1.364 1_565 S
C1741 C1745 1.495 . S
C1742 C1741 1.364 1_545 S
C1742 C1743 1.416 . S
C1742 C1744 1.478 . S
C1743 H1737 0.930 . S
C1743 C1739 1.400 . S
C1743 C1742 1.416 . S
C1744 C1742 1.478 . S
C1744 C1746 1.371 1_545 S
C1744 C1750 1.395 . S
C1745 C1741 1.495 . S
C1745 H1751 0.959 . S
C1745 H1752 0.961 . S
C1745 H1753 0.960 . S
C1746 C1744 1.371 1_565 S
C1746 C1747 1.394 . S
C1746 H1754 0.930 . S
C1747 C1746 1.394 . S
C1747 C1748 1.383 1_565 S
C1747 H1755 0.929 . S
C1748 C1747 1.383 1_545 S
C1748 C1749 1.377 . S
C1749 H1733 0.930 . S
C1749 C1748 1.377 . S
C1749 C1750 1.379 . S
C1750 H1734 0.931 . S
C1750 C1744 1.395 . S
C1750 C1749 1.379 . S
H1751 C1745 0.959 . S
H1752 C1745 0.961 . S
H1753 C1745 0.960 . S
H1754 C1746 0.930 . S
H1755 C1747 0.929 . S
H1756 C1764 0.929 . S
H1757 C1766 0.930 . S
H1758 C1768 0.930 . S
H1759 C1771 0.929 . S
H1760 C1774 0.930 . S
H1761 C1776 0.960 . S
H1762 C1776 0.960 . S
H1763 C1776 0.960 . S
C1764 H1756 0.929 . S
C1764 C1765 1.377 . S
C1764 C1766 1.384 . S
C1765 C1764 1.377 . S
C1765 C1771 1.390 . S
C1766 H1757 0.930 . S
C1766 C1764 1.384 . S
C1766 C1767 1.372 . S
C1767 C1766 1.372 . S
C1767 C1768 1.400 . S
C1767 C1772 1.490 . S
C1768 H1758 0.930 . S
C1768 C1767 1.400 . S
C1768 C1771 1.386 . S
H1769 C1785 0.930 . S
H1770 C1786 0.931 . S
C1771 H1759 0.929 . S
C1771 C1765 1.390 . S
C1771 C1768 1.386 . S
C1772 C1767 1.490 . S
C1772 C1774 1.395 . S
C1772 C1775 1.403 . S
H1773 C1779 0.930 . S
C1774 H1760 0.930 . S
C1774 C1772 1.395 . S
C1774 C1777 1.403 . S
C1775 C1772 1.403 . S
C1775 C1776 1.524 . S
C1775 C1779 1.400 . S
C1776 H1761 0.960 . S
C1776 H1762 0.960 . S
C1776 H1763 0.960 . S
C1776 C1775 1.524 . S
C1777 C1774 1.403 . S
C1777 C1778 1.392 . S
C1777 C1781 1.495 . S
C1778 C1777 1.392 . S
C1778 C1779 1.385 . S
C1778 C1780 1.478 . S
C1779 H1773 0.930 . S
C1779 C1775 1.400 . S
C1779 C1778 1.385 . S
C1780 C1778 1.478 . S
C1780 C1782 1.381 . S
C1780 C1786 1.383 . S
C1781 C1777 1.495 . S
C1781 H1787 0.959 . S
C1781 H1788 0.961 . S
C1781 H1789 0.960 . S
C1782 C1780 1.381 . S
C1782 C1783 1.394 . S
C1782 H1790 0.930 . S
C1783 C1782 1.394 . S
C1783 C1784 1.383 . S
C1783 H1791 0.929 . S
C1784 C1783 1.383 . S
C1784 C1785 1.377 . S
C1785 H1769 0.930 . S
C1785 C1784 1.377 . S
C1785 C1786 1.379 . S
C1786 H1770 0.931 . S
C1786 C1780 1.383 . S
C1786 C1785 1.379 . S
H1787 C1781 0.959 . S
H1788 C1781 0.961 . S
H1789 C1781 0.960 . S
H1790 C1782 0.930 . S
H1791 C1783 0.929 . S
H1792 C1800 0.929 . S
H1793 C1802 0.930 . S
H1794 C1804 0.930 . S
H1795 C1807 0.929 . S
H1796 C1810 0.930 . S
H1797 C1812 0.960 1_655 S
H1798 C1812 0.960 . S
H1799 C1812 0.960 . S
C1800 H1792 0.929 . S
C1800 C1801 1.377 . S
C1800 C1802 1.384 . S
C1801 C1800 1.377 . S
C1801 C1807 1.390 . S
C1802 H1793 0.930 . S
C1802 C1800 1.384 . S
C1802 C1803 1.372 . S
C1803 C1802 1.372 . S
C1803 C1804 1.400 . S
C1803 C1808 1.490 . S
C1804 H1794 0.930 . S
C1804 C1803 1.400 . S
C1804 C1807 1.386 . S
H1805 C1821 0.930 . S
H1806 C1822 0.931 . S
C1807 H1795 0.929 . S
C1807 C1801 1.390 . S
C1807 C1804 1.386 . S
C1808 C1803 1.490 . S
C1808 C1810 1.395 . S
C1808 C1811 1.403 . S
H1809 C1815 0.930 . S
C1810 H1796 0.930 . S
C1810 C1808 1.395 . S
C1810 C1813 1.403 . S
C1811 C1808 1.403 . S
C1811 C1812 1.524 . S
C1811 C1815 1.400 . S
C1812 H1797 0.960 1_455 S
C1812 H1798 0.960 . S
C1812 H1799 0.960 . S
C1812 C1811 1.524 . S
C1813 C1810 1.403 . S
C1813 C1814 1.392 . S
C1813 C1817 1.495 . S
C1814 C1813 1.392 . S
C1814 C1815 1.385 . S
C1814 C1816 1.478 . S
C1815 H1809 0.930 . S
C1815 C1811 1.400 . S
C1815 C1814 1.385 . S
C1816 C1814 1.478 . S
C1816 C1818 1.381 . S
C1816 C1822 1.383 . S
C1817 C1813 1.495 . S
C1817 H1823 0.959 . S
C1817 H1824 0.961 . S
C1817 H1825 0.960 . S
C1818 C1816 1.381 . S
C1818 C1819 1.394 . S
C1818 H1826 0.930 . S
C1819 C1818 1.394 . S
C1819 C1820 1.383 . S
C1819 H1827 0.929 . S
C1820 C1819 1.383 . S
C1820 C1821 1.377 . S
C1821 H1805 0.930 . S
C1821 C1820 1.377 . S
C1821 C1822 1.379 . S
C1822 H1806 0.931 . S
C1822 C1816 1.383 . S
C1822 C1821 1.379 . S
H1823 C1817 0.959 . S
H1824 C1817 0.961 . S
H1825 C1817 0.960 . S
H1826 C1818 0.930 . S
H1827 C1819 0.929 . S
H1828 C1836 0.929 . S
H1829 C1838 0.930 . S
H1830 C1840 0.930 . S
H1831 C1843 0.929 . S
H1832 C1846 0.930 . S
H1833 C1848 0.960 . S
H1834 C1848 0.960 . S
H1835 C1848 0.960 . S
C1836 H1828 0.929 . S
C1836 C1837 1.377 . S
C1836 C1838 1.384 . S
C1837 C1836 1.377 . S
C1837 C1843 1.390 . S
C1838 H1829 0.930 . S
C1838 C1836 1.384 . S
C1838 C1839 1.372 . S
C1839 C1838 1.372 . S
C1839 C1840 1.400 . S
C1839 C1844 1.490 . S
C1840 H1830 0.930 . S
C1840 C1839 1.400 . S
C1840 C1843 1.386 . S
H1841 C1857 0.930 . S
H1842 C1858 0.931 . S
C1843 H1831 0.929 . S
C1843 C1837 1.390 . S
C1843 C1840 1.386 . S
C1844 C1839 1.490 . S
C1844 C1846 1.395 . S
C1844 C1847 1.403 . S
H1845 C1851 0.930 . S
C1846 H1832 0.930 . S
C1846 C1844 1.395 . S
C1846 C1849 1.403 . S
C1847 C1844 1.403 . S
C1847 C1848 1.524 . S
C1847 C1851 1.400 . S
C1848 H1833 0.960 . S
C1848 H1834 0.960 . S
C1848 H1835 0.960 . S
C1848 C1847 1.524 . S
C1849 C1846 1.403 . S
C1849 C1850 1.392 . S
C1849 C1853 1.495 . S
C1850 C1849 1.392 . S
C1850 C1851 1.385 . S
C1850 C1852 1.478 . S
C1851 H1845 0.930 . S
C1851 C1847 1.400 . S
C1851 C1850 1.385 . S
C1852 C1850 1.478 . S
C1852 C1854 1.381 . S
C1852 C1858 1.383 . S
C1853 C1849 1.495 . S
C1853 H1859 0.959 . S
C1853 H1860 0.961 . S
C1853 H1861 0.960 . S
C1854 C1852 1.381 . S
C1854 C1855 1.394 . S
C1854 H1862 0.930 . S
C1855 C1854 1.394 . S
C1855 C1856 1.383 . S
C1855 H1863 0.929 . S
C1856 C1855 1.383 . S
C1856 C1857 1.377 . S
C1857 H1841 0.930 . S
C1857 C1856 1.377 . S
C1857 C1858 1.379 . S
C1858 H1842 0.931 . S
C1858 C1852 1.383 . S
C1858 C1857 1.379 . S
H1859 C1853 0.959 . S
H1860 C1853 0.961 . S
H1861 C1853 0.960 . S
H1862 C1854 0.930 . S
H1863 C1855 0.929 . S
H1864 C1872 0.929 . S
H1865 C1874 0.930 . S
H1866 C1876 0.930 . S
H1867 C1879 0.929 . S
H1868 C1882 0.930 . S
H1869 C1884 0.960 . S
H1870 C1884 0.960 . S
H1871 C1884 0.960 . S
C1872 H1864 0.929 . S
C1872 C1873 1.377 . S
C1872 C1874 1.384 . S
C1873 C1872 1.377 . S
C1873 C1879 1.390 . S
C1874 H1865 0.930 . S
C1874 C1872 1.384 . S
C1874 C1875 1.372 . S
C1875 C1874 1.372 . S
C1875 C1876 1.400 . S
C1875 C1880 1.490 . S
C1876 H1866 0.930 . S
C1876 C1875 1.400 . S
C1876 C1879 1.386 . S
H1877 C1893 0.930 . S
H1878 C1894 0.931 . S
C1879 H1867 0.929 . S
C1879 C1873 1.390 . S
C1879 C1876 1.386 . S
C1880 C1875 1.490 . S
C1880 C1882 1.395 . S
C1880 C1883 1.403 . S
H1881 C1887 0.930 . S
C1882 H1868 0.930 . S
C1882 C1880 1.395 . S
C1882 C1885 1.403 . S
C1883 C1880 1.403 . S
C1883 C1884 1.524 . S
C1883 C1887 1.400 . S
C1884 H1869 0.960 . S
C1884 H1870 0.960 . S
C1884 H1871 0.960 . S
C1884 C1883 1.524 . S
C1885 C1882 1.403 . S
C1885 C1886 1.392 . S
C1885 C1889 1.495 . S
C1886 C1885 1.392 . S
C1886 C1887 1.385 . S
C1886 C1888 1.478 . S
C1887 H1881 0.930 . S
C1887 C1883 1.400 . S
C1887 C1886 1.385 . S
C1888 C1886 1.478 . S
C1888 C1890 1.381 . S
C1888 C1894 1.383 . S
C1889 C1885 1.495 . S
C1889 H1895 0.959 . S
C1889 H1896 0.961 . S
C1889 H1897 0.960 . S
C1890 C1888 1.381 . S
C1890 C1891 1.394 . S
C1890 H1898 0.930 . S
C1891 C1890 1.394 . S
C1891 C1892 1.383 . S
C1891 H1899 0.929 . S
C1892 C1891 1.383 . S
C1892 C1893 1.377 . S
C1893 H1877 0.930 . S
C1893 C1892 1.377 . S
C1893 C1894 1.379 . S
C1894 H1878 0.931 . S
C1894 C1888 1.383 . S
C1894 C1893 1.379 . S
H1895 C1889 0.959 . S
H1896 C1889 0.961 . S
H1897 C1889 0.960 . S
H1898 C1890 0.930 . S
H1899 C1891 0.929 . S
H1900 C1908 0.929 . S
H1901 C1910 0.930 . S
H1902 C1912 0.930 . S
H1903 C1915 0.929 . S
H1904 C1918 0.930 . S
H1905 C1920 0.960 . S
H1906 C1920 0.960 . S
H1907 C1920 0.960 . S
C1908 H1900 0.929 . S
C1908 C1909 1.377 . S
C1908 C1910 1.384 . S
C1909 C1908 1.377 . S
C1909 C1915 1.390 . S
C1910 H1901 0.930 . S
C1910 C1908 1.384 . S
C1910 C1911 1.372 . S
C1911 C1910 1.372 . S
C1911 C1912 1.400 . S
C1911 C1916 1.490 . S
C1912 H1902 0.930 . S
C1912 C1911 1.400 . S
C1912 C1915 1.386 . S
H1913 C1929 0.930 . S
H1914 C1930 0.931 . S
C1915 H1903 0.929 . S
C1915 C1909 1.390 . S
C1915 C1912 1.386 . S
C1916 C1911 1.490 . S
C1916 C1918 1.395 . S
C1916 C1919 1.403 . S
H1917 C1923 0.930 . S
C1918 H1904 0.930 . S
C1918 C1916 1.395 . S
C1918 C1921 1.403 . S
C1919 C1916 1.403 . S
C1919 C1920 1.524 . S
C1919 C1923 1.400 . S
C1920 H1905 0.960 . S
C1920 H1906 0.960 . S
C1920 H1907 0.960 . S
C1920 C1919 1.524 . S
C1921 C1918 1.403 . S
C1921 C1922 1.392 . S
C1921 C1925 1.495 . S
C1922 C1921 1.392 . S
C1922 C1923 1.385 . S
C1922 C1924 1.478 . S
C1923 H1917 0.930 . S
C1923 C1919 1.400 . S
C1923 C1922 1.385 . S
C1924 C1922 1.478 . S
C1924 C1926 1.381 . S
C1924 C1930 1.383 . S
C1925 C1921 1.495 . S
C1925 H1931 0.959 . S
C1925 H1932 0.961 . S
C1925 H1933 0.960 . S
C1926 C1924 1.381 . S
C1926 C1927 1.394 . S
C1926 H1934 0.930 . S
C1927 C1926 1.394 . S
C1927 C1928 1.383 . S
C1927 H1935 0.929 . S
C1928 C1927 1.383 . S
C1928 C1929 1.377 . S
C1929 H1913 0.930 . S
C1929 C1928 1.377 . S
C1929 C1930 1.379 . S
C1930 H1914 0.931 . S
C1930 C1924 1.383 . S
C1930 C1929 1.379 . S
H1931 C1925 0.959 . S
H1932 C1925 0.961 . S
H1933 C1925 0.960 . S
H1934 C1926 0.930 . S
H1935 C1927 0.929 . S
H1936 C1944 0.929 . S
H1937 C1946 0.930 . S
H1938 C1948 0.930 . S
H1939 C1951 0.929 . S
H1940 C1954 0.930 . S
H1941 C1956 0.960 . S
H1942 C1956 0.960 . S
H1943 C1956 0.960 . S
C1944 H1936 0.929 . S
C1944 C1945 1.377 . S
C1944 C1946 1.384 . S
C1945 C1944 1.377 . S
C1945 C1951 1.390 . S
C1946 H1937 0.930 . S
C1946 C1944 1.384 . S
C1946 C1947 1.372 . S
C1947 C1946 1.372 . S
C1947 C1948 1.400 . S
C1947 C1952 1.490 . S
C1948 H1938 0.930 . S
C1948 C1947 1.400 . S
C1948 C1951 1.386 . S
H1949 C1965 0.930 . S
H1950 C1966 0.931 . S
C1951 H1939 0.929 . S
C1951 C1945 1.390 . S
C1951 C1948 1.386 . S
C1952 C1947 1.490 . S
C1952 C1954 1.395 . S
C1952 C1955 1.403 . S
H1953 C1959 0.930 . S
C1954 H1940 0.930 . S
C1954 C1952 1.395 . S
C1954 C1957 1.403 . S
C1955 C1952 1.403 . S
C1955 C1956 1.524 . S
C1955 C1959 1.400 . S
C1956 H1941 0.960 . S
C1956 H1942 0.960 . S
C1956 H1943 0.960 . S
C1956 C1955 1.524 . S
C1957 C1954 1.403 . S
C1957 C1958 1.392 . S
C1957 C1961 1.495 . S
C1958 C1957 1.392 . S
C1958 C1959 1.385 . S
C1958 C1960 1.478 . S
C1959 H1953 0.930 . S
C1959 C1955 1.400 . S
C1959 C1958 1.385 . S
C1960 C1958 1.478 . S
C1960 C1962 1.381 . S
C1960 C1966 1.383 . S
C1961 C1957 1.495 . S
C1961 H1967 0.959 . S
C1961 H1968 0.961 . S
C1961 H1969 0.960 . S
C1962 C1960 1.381 . S
C1962 C1963 1.394 . S
C1962 H1970 0.930 . S
C1963 C1962 1.394 . S
C1963 C1964 1.383 . S
C1963 H1971 0.929 . S
C1964 C1963 1.383 . S
C1964 C1965 1.377 . S
C1965 H1949 0.930 . S
C1965 C1964 1.377 . S
C1965 C1966 1.379 . S
C1966 H1950 0.931 . S
C1966 C1960 1.383 . S
C1966 C1965 1.379 . S
H1967 C1961 0.959 . S
H1968 C1961 0.961 . S
H1969 C1961 0.960 . S
H1970 C1962 0.930 . S
H1971 C1963 0.929 . S
H1972 C1980 0.929 . S
H1973 C1982 0.930 . S
H1974 C1984 0.930 . S
H1975 C1987 0.929 . S
H1976 C1990 0.930 . S
H1977 C1992 0.960 . S
H1978 C1992 0.960 . S
H1979 C1992 0.960 . S
C1980 H1972 0.929 . S
C1980 C1981 1.377 . S
C1980 C1982 1.384 . S
C1981 C1980 1.377 . S
C1981 C1987 1.390 . S
C1982 H1973 0.930 . S
C1982 C1980 1.384 . S
C1982 C1983 1.372 . S
C1983 C1982 1.372 . S
C1983 C1984 1.400 . S
C1983 C1988 1.490 . S
C1984 H1974 0.930 . S
C1984 C1983 1.400 . S
C1984 C1987 1.386 . S
H1985 C2001 0.930 . S
H1986 C2002 0.931 . S
C1987 H1975 0.929 . S
C1987 C1981 1.390 . S
C1987 C1984 1.386 . S
C1988 C1983 1.490 . S
C1988 C1990 1.395 . S
C1988 C1991 1.403 . S
H1989 C1995 0.930 . S
C1990 H1976 0.930 . S
C1990 C1988 1.395 . S
C1990 C1993 1.403 . S
C1991 C1988 1.403 . S
C1991 C1992 1.524 . S
C1991 C1995 1.400 . S
C1992 H1977 0.960 . S
C1992 H1978 0.960 . S
C1992 H1979 0.960 . S
C1992 C1991 1.524 . S
C1993 C1990 1.403 . S
C1993 C1994 1.392 . S
C1993 C1997 1.495 . S
C1994 C1993 1.392 . S
C1994 C1995 1.385 . S
C1994 C1996 1.478 . S
C1995 H1989 0.930 . S
C1995 C1991 1.400 . S
C1995 C1994 1.385 . S
C1996 C1994 1.478 . S
C1996 C1998 1.381 . S
C1996 C2002 1.383 . S
C1997 C1993 1.495 . S
C1997 H2003 0.959 . S
C1997 H2004 0.961 . S
C1997 H2005 0.960 . S
C1998 C1996 1.381 . S
C1998 C1999 1.394 . S
C1998 H2006 0.930 . S
C1999 C1998 1.394 . S
C1999 C2000 1.383 . S
C1999 H2007 0.929 . S
C2000 C1999 1.383 . S
C2000 C2001 1.377 . S
C2001 H1985 0.930 . S
C2001 C2000 1.377 . S
C2001 C2002 1.379 . S
C2002 H1986 0.931 . S
C2002 C1996 1.383 . S
C2002 C2001 1.379 . S
H2003 C1997 0.959 . S
H2004 C1997 0.961 . S
H2005 C1997 0.960 . S
H2006 C1998 0.930 . S
H2007 C1999 0.929 . S
H2008 C2016 0.929 . S
H2009 C2018 0.930 . S
H2010 C2020 0.930 . S
H2011 C2023 0.929 . S
H2012 C2026 0.930 . S
H2013 C2028 0.960 . S
H2014 C2028 0.960 . S
H2015 C2028 0.960 . S
C2016 H2008 0.929 . S
C2016 C2017 1.377 . S
C2016 C2018 1.384 . S
C2017 C2016 1.377 . S
C2017 C2023 1.390 . S
C2018 H2009 0.930 . S
C2018 C2016 1.384 . S
C2018 C2019 1.372 . S
C2019 C2018 1.372 . S
C2019 C2020 1.400 . S
C2019 C2024 1.490 . S
C2020 H2010 0.930 . S
C2020 C2019 1.400 . S
C2020 C2023 1.386 . S
H2021 C2037 0.930 . S
H2022 C2038 0.931 . S
C2023 H2011 0.929 . S
C2023 C2017 1.390 . S
C2023 C2020 1.386 . S
C2024 C2019 1.490 . S
C2024 C2026 1.395 . S
C2024 C2027 1.403 . S
H2025 C2031 0.930 . S
C2026 H2012 0.930 . S
C2026 C2024 1.395 . S
C2026 C2029 1.403 . S
C2027 C2024 1.403 . S
C2027 C2028 1.524 . S
C2027 C2031 1.400 . S
C2028 H2013 0.960 . S
C2028 H2014 0.960 . S
C2028 H2015 0.960 . S
C2028 C2027 1.524 . S
C2029 C2026 1.403 . S
C2029 C2030 1.392 . S
C2029 C2033 1.495 . S
C2030 C2029 1.392 . S
C2030 C2031 1.385 . S
C2030 C2032 1.478 . S
C2031 H2025 0.930 . S
C2031 C2027 1.400 . S
C2031 C2030 1.385 . S
C2032 C2030 1.478 . S
C2032 C2034 1.381 . S
C2032 C2038 1.383 . S
C2033 C2029 1.495 . S
C2033 H2039 0.959 . S
C2033 H2040 0.961 . S
C2033 H2041 0.960 . S
C2034 C2032 1.381 . S
C2034 C2035 1.394 . S
C2034 H2042 0.930 . S
C2035 C2034 1.394 . S
C2035 C2036 1.383 . S
C2035 H2043 0.929 . S
C2036 C2035 1.383 . S
C2036 C2037 1.377 . S
C2037 H2021 0.930 . S
C2037 C2036 1.377 . S
C2037 C2038 1.379 . S
C2038 H2022 0.931 . S
C2038 C2032 1.383 . S
C2038 C2037 1.379 . S
H2039 C2033 0.959 . S
H2040 C2033 0.961 . S
H2041 C2033 0.960 . S
H2042 C2034 0.930 . S
H2043 C2035 0.929 . S
H2044 C2052 0.929 . S
H2045 C2054 0.930 . S
H2046 C2056 0.930 . S
H2047 C2059 0.929 . S
H2048 C2062 0.930 . S
H2049 C2064 0.960 . S
H2050 C2064 0.960 . S
H2051 C2064 0.960 . S
C2052 H2044 0.929 . S
C2052 C2053 1.377 . S
C2052 C2054 1.384 . S
C2053 C2052 1.377 . S
C2053 C2059 1.390 . S
C2054 H2045 0.930 . S
C2054 C2052 1.384 . S
C2054 C2055 1.372 . S
C2055 C2054 1.372 . S
C2055 C2056 1.400 . S
C2055 C2060 1.490 . S
C2056 H2046 0.930 . S
C2056 C2055 1.400 . S
C2056 C2059 1.386 . S
H2057 C2073 0.930 . S
H2058 C2074 0.931 . S
C2059 H2047 0.929 . S
C2059 C2053 1.390 . S
C2059 C2056 1.386 . S
C2060 C2055 1.490 . S
C2060 C2062 1.395 . S
C2060 C2063 1.403 . S
H2061 C2067 0.930 . S
C2062 H2048 0.930 . S
C2062 C2060 1.395 . S
C2062 C2065 1.403 . S
C2063 C2060 1.403 . S
C2063 C2064 1.524 . S
C2063 C2067 1.400 . S
C2064 H2049 0.960 . S
C2064 H2050 0.960 . S
C2064 H2051 0.960 . S
C2064 C2063 1.524 . S
C2065 C2062 1.403 . S
C2065 C2066 1.392 . S
C2065 C2069 1.495 . S
C2066 C2065 1.392 . S
C2066 C2067 1.385 . S
C2066 C2068 1.478 . S
C2067 H2061 0.930 . S
C2067 C2063 1.400 . S
C2067 C2066 1.385 . S
C2068 C2066 1.478 . S
C2068 C2070 1.381 . S
C2068 C2074 1.383 . S
C2069 C2065 1.495 . S
C2069 H2075 0.959 1_655 S
C2069 H2076 0.961 . S
C2069 H2077 0.960 . S
C2070 C2068 1.381 . S
C2070 C2071 1.394 . S
C2070 H2078 0.930 . S
C2071 C2070 1.394 . S
C2071 C2072 1.383 . S
C2071 H2079 0.929 . S
C2072 C2071 1.383 . S
C2072 C2073 1.377 . S
C2073 H2057 0.930 . S
C2073 C2072 1.377 . S
C2073 C2074 1.379 . S
C2074 H2058 0.931 . S
C2074 C2068 1.383 . S
C2074 C2073 1.379 . S
H2075 C2069 0.959 1_455 S
H2076 C2069 0.961 . S
H2077 C2069 0.960 . S
H2078 C2070 0.930 . S
H2079 C2071 0.929 . S
H2080 C2088 0.929 . S
H2081 C2090 0.930 . S
H2082 C2092 0.930 . S
H2083 C2095 0.929 . S
H2084 C2098 0.930 . S
H2085 C2100 0.960 . S
H2086 C2100 0.960 . S
H2087 C2100 0.960 . S
C2088 H2080 0.929 . S
C2088 C2089 1.377 . S
C2088 C2090 1.384 . S
C2089 C2088 1.377 . S
C2089 C2095 1.390 . S
C2090 H2081 0.930 . S
C2090 C2088 1.384 . S
C2090 C2091 1.372 . S
C2091 C2090 1.372 . S
C2091 C2092 1.400 . S
C2091 C2096 1.490 . S
C2092 H2082 0.930 . S
C2092 C2091 1.400 . S
C2092 C2095 1.386 . S
H2093 C2109 0.930 . S
H2094 C2110 0.931 . S
C2095 H2083 0.929 . S
C2095 C2089 1.390 . S
C2095 C2092 1.386 . S
C2096 C2091 1.490 . S
C2096 C2098 1.395 . S
C2096 C2099 1.403 . S
H2097 C2103 0.930 . S
C2098 H2084 0.930 . S
C2098 C2096 1.395 . S
C2098 C2101 1.403 . S
C2099 C2096 1.403 . S
C2099 C2100 1.524 . S
C2099 C2103 1.400 . S
C2100 H2085 0.960 . S
C2100 H2086 0.960 . S
C2100 H2087 0.960 . S
C2100 C2099 1.524 . S
C2101 C2098 1.403 . S
C2101 C2102 1.392 . S
C2101 C2105 1.495 . S
C2102 C2101 1.392 . S
C2102 C2103 1.385 . S
C2102 C2104 1.478 . S
C2103 H2097 0.930 . S
C2103 C2099 1.400 . S
C2103 C2102 1.385 . S
C2104 C2102 1.478 . S
C2104 C2106 1.381 . S
C2104 C2110 1.383 . S
C2105 C2101 1.495 . S
C2105 H2111 0.959 . S
C2105 H2112 0.961 . S
C2105 H2113 0.960 . S
C2106 C2104 1.381 . S
C2106 C2107 1.394 . S
C2106 H2114 0.930 . S
C2107 C2106 1.394 . S
C2107 C2108 1.383 . S
C2107 H2115 0.929 . S
C2108 C2107 1.383 . S
C2108 C2109 1.377 . S
C2109 H2093 0.930 . S
C2109 C2108 1.377 . S
C2109 C2110 1.379 . S
C2110 H2094 0.931 . S
C2110 C2104 1.383 . S
C2110 C2109 1.379 . S
H2111 C2105 0.959 . S
H2112 C2105 0.961 . S
H2113 C2105 0.960 . S
H2114 C2106 0.930 . S
H2115 C2107 0.929 . S
H2116 C2124 0.929 . S
H2117 C2126 0.930 . S
H2118 C2128 0.930 . S
H2119 C2131 0.929 . S
H2120 C2134 0.930 . S
H2121 C2136 0.960 . S
H2122 C2136 0.960 . S
H2123 C2136 0.960 . S
C2124 H2116 0.929 . S
C2124 C2125 1.377 . S
C2124 C2126 1.384 . S
C2125 C2124 1.377 . S
C2125 C2131 1.390 . S
C2126 H2117 0.930 . S
C2126 C2124 1.384 . S
C2126 C2127 1.372 . S
C2127 C2126 1.372 . S
C2127 C2128 1.400 . S
C2127 C2132 1.490 . S
C2128 H2118 0.930 . S
C2128 C2127 1.400 . S
C2128 C2131 1.386 . S
H2129 C2145 0.930 . S
H2130 C2146 0.931 . S
C2131 H2119 0.929 . S
C2131 C2125 1.390 . S
C2131 C2128 1.386 . S
C2132 C2127 1.490 . S
C2132 C2134 1.395 . S
C2132 C2135 1.403 . S
H2133 C2139 0.930 . S
C2134 H2120 0.930 . S
C2134 C2132 1.395 . S
C2134 C2137 1.403 . S
C2135 C2132 1.403 . S
C2135 C2136 1.524 . S
C2135 C2139 1.400 . S
C2136 H2121 0.960 . S
C2136 H2122 0.960 . S
C2136 H2123 0.960 . S
C2136 C2135 1.524 . S
C2137 C2134 1.403 . S
C2137 C2138 1.392 . S
C2137 C2141 1.495 . S
C2138 C2137 1.392 . S
C2138 C2139 1.385 . S
C2138 C2140 1.478 . S
C2139 H2133 0.930 . S
C2139 C2135 1.400 . S
C2139 C2138 1.385 . S
C2140 C2138 1.478 . S
C2140 C2142 1.381 . S
C2140 C2146 1.383 . S
C2141 C2137 1.495 . S
C2141 H2147 0.959 . S
C2141 H2148 0.961 . S
C2141 H2149 0.960 . S
C2142 C2140 1.381 . S
C2142 C2143 1.394 . S
C2142 H2150 0.930 . S
C2143 C2142 1.394 . S
C2143 C2144 1.383 . S
C2143 H2151 0.929 . S
C2144 C2143 1.383 . S
C2144 C2145 1.377 . S
C2145 H2129 0.930 . S
C2145 C2144 1.377 . S
C2145 C2146 1.379 . S
C2146 H2130 0.931 . S
C2146 C2140 1.383 . S
C2146 C2145 1.379 . S
H2147 C2141 0.959 . S
H2148 C2141 0.961 . S
H2149 C2141 0.960 . S
H2150 C2142 0.930 . S
H2151 C2143 0.929 . S
H2152 C2160 0.929 . S
H2153 C2162 0.930 . S
H2154 C2164 0.930 . S
H2155 C2167 0.929 . S
H2156 C2170 0.930 . S
H2157 C2172 0.960 . S
H2158 C2172 0.960 . S
H2159 C2172 0.960 . S
C2160 H2152 0.929 . S
C2160 C2161 1.377 . S
C2160 C2162 1.384 . S
C2161 C2160 1.377 . S
C2161 C2167 1.390 . S
C2162 H2153 0.930 . S
C2162 C2160 1.384 . S
C2162 C2163 1.372 . S
C2163 C2162 1.372 . S
C2163 C2164 1.400 . S
C2163 C2168 1.490 . S
C2164 H2154 0.930 . S
C2164 C2163 1.400 . S
C2164 C2167 1.386 . S
H2165 C2181 0.930 . S
H2166 C2182 0.931 . S
C2167 H2155 0.929 . S
C2167 C2161 1.390 . S
C2167 C2164 1.386 . S
C2168 C2163 1.490 . S
C2168 C2170 1.395 . S
C2168 C2171 1.403 . S
H2169 C2175 0.930 . S
C2170 H2156 0.930 . S
C2170 C2168 1.395 . S
C2170 C2173 1.403 . S
C2171 C2168 1.403 . S
C2171 C2172 1.524 . S
C2171 C2175 1.400 . S
C2172 H2157 0.960 . S
C2172 H2158 0.960 . S
C2172 H2159 0.960 . S
C2172 C2171 1.524 . S
C2173 C2170 1.403 . S
C2173 C2174 1.392 . S
C2173 C2177 1.495 . S
C2174 C2173 1.392 . S
C2174 C2175 1.385 . S
C2174 C2176 1.478 . S
C2175 H2169 0.930 . S
C2175 C2171 1.400 . S
C2175 C2174 1.385 . S
C2176 C2174 1.478 . S
C2176 C2178 1.381 . S
C2176 C2182 1.383 . S
C2177 C2173 1.495 . S
C2177 H2183 0.959 . S
C2177 H2184 0.961 . S
C2177 H2185 0.960 . S
C2178 C2176 1.381 . S
C2178 C2179 1.394 . S
C2178 H2186 0.930 . S
C2179 C2178 1.394 . S
C2179 C2180 1.383 . S
C2179 H2187 0.929 . S
C2180 C2179 1.383 . S
C2180 C2181 1.377 . S
C2181 H2165 0.930 . S
C2181 C2180 1.377 . S
C2181 C2182 1.379 . S
C2182 H2166 0.931 . S
C2182 C2176 1.383 . S
C2182 C2181 1.379 . S
H2183 C2177 0.959 . S
H2184 C2177 0.961 . S
H2185 C2177 0.960 . S
H2186 C2178 0.930 . S
H2187 C2179 0.929 . S
H2188 C2196 0.929 . S
H2189 C2198 0.930 . S
H2190 C2200 0.930 . S
H2191 C2203 0.929 . S
H2192 C2206 0.930 . S
H2193 C2208 0.960 . S
H2194 C2208 0.960 . S
H2195 C2208 0.960 . S
C2196 H2188 0.929 . S
C2196 C2197 1.377 . S
C2196 C2198 1.384 . S
C2197 C2196 1.377 . S
C2197 C2203 1.390 . S
C2198 H2189 0.930 . S
C2198 C2196 1.384 . S
C2198 C2199 1.372 . S
C2199 C2198 1.372 . S
C2199 C2200 1.400 . S
C2199 C2204 1.490 . S
C2200 H2190 0.930 . S
C2200 C2199 1.400 . S
C2200 C2203 1.386 . S
H2201 C2217 0.930 . S
H2202 C2218 0.931 . S
C2203 H2191 0.929 . S
C2203 C2197 1.390 . S
C2203 C2200 1.386 . S
C2204 C2199 1.490 . S
C2204 C2206 1.395 . S
C2204 C2207 1.403 . S
H2205 C2211 0.930 . S
C2206 H2192 0.930 . S
C2206 C2204 1.395 . S
C2206 C2209 1.403 . S
C2207 C2204 1.403 . S
C2207 C2208 1.524 . S
C2207 C2211 1.400 . S
C2208 H2193 0.960 . S
C2208 H2194 0.960 . S
C2208 H2195 0.960 . S
C2208 C2207 1.524 . S
C2209 C2206 1.403 . S
C2209 C2210 1.392 . S
C2209 C2213 1.495 . S
C2210 C2209 1.392 . S
C2210 C2211 1.385 . S
C2210 C2212 1.478 . S
C2211 H2205 0.930 . S
C2211 C2207 1.400 . S
C2211 C2210 1.385 . S
C2212 C2210 1.478 . S
C2212 C2214 1.381 . S
C2212 C2218 1.383 . S
C2213 C2209 1.495 . S
C2213 H2219 0.959 . S
C2213 H2220 0.961 . S
C2213 H2221 0.960 . S
C2214 C2212 1.381 . S
C2214 C2215 1.394 . S
C2214 H2222 0.930 . S
C2215 C2214 1.394 . S
C2215 C2216 1.383 . S
C2215 H2223 0.929 . S
C2216 C2215 1.383 . S
C2216 C2217 1.377 . S
C2217 H2201 0.930 . S
C2217 C2216 1.377 . S
C2217 C2218 1.379 . S
C2218 H2202 0.931 . S
C2218 C2212 1.383 . S
C2218 C2217 1.379 . S
H2219 C2213 0.959 . S
H2220 C2213 0.961 . S
H2221 C2213 0.960 . S
H2222 C2214 0.930 . S
H2223 C2215 0.929 . S
H2224 C2232 0.929 . S
H2225 C2234 0.930 . S
H2226 C2236 0.930 . S
H2227 C2239 0.929 . S
H2228 C2242 0.930 . S
H2229 C2244 0.960 . S
H2230 C2244 0.960 . S
H2231 C2244 0.960 . S
C2232 H2224 0.929 . S
C2232 C2233 1.377 . S
C2232 C2234 1.384 . S
C2233 C2232 1.377 . S
C2233 C2239 1.390 . S
C2234 H2225 0.930 . S
C2234 C2232 1.384 . S
C2234 C2235 1.372 . S
C2235 C2234 1.372 . S
C2235 C2236 1.400 . S
C2235 C2240 1.490 . S
C2236 H2226 0.930 . S
C2236 C2235 1.400 . S
C2236 C2239 1.386 . S
H2237 C2253 0.930 . S
H2238 C2254 0.931 . S
C2239 H2227 0.929 . S
C2239 C2233 1.390 . S
C2239 C2236 1.386 . S
C2240 C2235 1.490 . S
C2240 C2242 1.395 . S
C2240 C2243 1.403 . S
H2241 C2247 0.930 . S
C2242 H2228 0.930 . S
C2242 C2240 1.395 . S
C2242 C2245 1.403 . S
C2243 C2240 1.403 . S
C2243 C2244 1.524 . S
C2243 C2247 1.400 . S
C2244 H2229 0.960 . S
C2244 H2230 0.960 . S
C2244 H2231 0.960 . S
C2244 C2243 1.524 . S
C2245 C2242 1.403 . S
C2245 C2246 1.392 . S
C2245 C2249 1.495 . S
C2246 C2245 1.392 . S
C2246 C2247 1.385 . S
C2246 C2248 1.478 . S
C2247 H2241 0.930 . S
C2247 C2243 1.400 . S
C2247 C2246 1.385 . S
C2248 C2246 1.478 . S
C2248 C2250 1.381 . S
C2248 C2254 1.383 . S
C2249 C2245 1.495 . S
C2249 H2255 0.959 . S
C2249 H2256 0.961 . S
C2249 H2257 0.960 . S
C2250 C2248 1.381 . S
C2250 C2251 1.394 . S
C2250 H2258 0.930 . S
C2251 C2250 1.394 . S
C2251 C2252 1.383 . S
C2251 H2259 0.929 . S
C2252 C2251 1.383 . S
C2252 C2253 1.377 . S
C2253 H2237 0.930 . S
C2253 C2252 1.377 . S
C2253 C2254 1.379 . S
C2254 H2238 0.931 . S
C2254 C2248 1.383 . S
C2254 C2253 1.379 . S
H2255 C2249 0.959 . S
H2256 C2249 0.961 . S
H2257 C2249 0.960 . S
H2258 C2250 0.930 . S
H2259 C2251 0.929 . S
H2260 C2268 0.929 . S
H2261 C2270 0.930 . S
H2262 C2272 0.930 . S
H2263 C2275 0.929 . S
H2264 C2278 0.930 . S
H2265 C2280 0.960 . S
H2266 C2280 0.960 . S
H2267 C2280 0.960 . S
C2268 H2260 0.929 . S
C2268 C2269 1.377 . S
C2268 C2270 1.384 . S
C2269 C2268 1.377 . S
C2269 C2275 1.390 . S
C2270 H2261 0.930 . S
C2270 C2268 1.384 . S
C2270 C2271 1.372 . S
C2271 C2270 1.372 . S
C2271 C2272 1.400 . S
C2271 C2276 1.490 . S
C2272 H2262 0.930 . S
C2272 C2271 1.400 . S
C2272 C2275 1.386 . S
H2273 C2289 0.930 . S
H2274 C2290 0.931 . S
C2275 H2263 0.929 . S
C2275 C2269 1.390 . S
C2275 C2272 1.386 . S
C2276 C2271 1.490 . S
C2276 C2278 1.395 . S
C2276 C2279 1.403 . S
H2277 C2283 0.930 . S
C2278 H2264 0.930 . S
C2278 C2276 1.395 . S
C2278 C2281 1.403 . S
C2279 C2276 1.403 . S
C2279 C2280 1.524 . S
C2279 C2283 1.400 . S
C2280 H2265 0.960 . S
C2280 H2266 0.960 . S
C2280 H2267 0.960 . S
C2280 C2279 1.524 . S
C2281 C2278 1.403 . S
C2281 C2282 1.392 . S
C2281 C2285 1.495 . S
C2282 C2281 1.392 . S
C2282 C2283 1.385 . S
C2282 C2284 1.478 . S
C2283 H2277 0.930 . S
C2283 C2279 1.400 . S
C2283 C2282 1.385 . S
C2284 C2282 1.478 . S
C2284 C2286 1.381 . S
C2284 C2290 1.383 . S
C2285 C2281 1.495 . S
C2285 H2291 0.959 . S
C2285 H2292 0.961 . S
C2285 H2293 0.960 . S
C2286 C2284 1.381 . S
C2286 C2287 1.394 . S
C2286 H2294 0.930 . S
C2287 C2286 1.394 . S
C2287 C2288 1.383 . S
C2287 H2295 0.929 . S
C2288 C2287 1.383 . S
C2288 C2289 1.377 . S
C2289 H2273 0.930 . S
C2289 C2288 1.377 . S
C2289 C2290 1.379 . S
C2290 H2274 0.931 . S
C2290 C2284 1.383 . S
C2290 C2289 1.379 . S
H2291 C2285 0.959 . S
H2292 C2285 0.961 . S
H2293 C2285 0.960 . S
H2294 C2286 0.930 . S
H2295 C2287 0.929 . S
H2296 C2304 0.929 . S
H2297 C2306 0.930 . S
H2298 C2308 0.930 . S
H2299 C2311 0.929 . S
H2300 C2314 0.930 . S
H2301 C2316 0.960 . S
H2302 C2316 0.960 . S
H2303 C2316 0.960 . S
C2304 H2296 0.929 . S
C2304 C2305 1.377 . S
C2304 C2306 1.384 . S
C2305 C2304 1.377 . S
C2305 C2311 1.390 . S
C2306 H2297 0.930 . S
C2306 C2304 1.384 . S
C2306 C2307 1.372 . S
C2307 C2306 1.372 . S
C2307 C2308 1.400 . S
C2307 C2312 1.490 . S
C2308 H2298 0.930 . S
C2308 C2307 1.400 . S
C2308 C2311 1.386 . S
H2309 C2325 0.930 . S
H2310 C2326 0.931 . S
C2311 H2299 0.929 . S
C2311 C2305 1.390 . S
C2311 C2308 1.386 . S
C2312 C2307 1.490 . S
C2312 C2314 1.395 . S
C2312 C2315 1.403 . S
H2313 C2319 0.930 . S
C2314 H2300 0.930 . S
C2314 C2312 1.395 . S
C2314 C2317 1.403 . S
C2315 C2312 1.403 . S
C2315 C2316 1.524 . S
C2315 C2319 1.400 . S
C2316 H2301 0.960 . S
C2316 H2302 0.960 . S
C2316 H2303 0.960 . S
C2316 C2315 1.524 . S
C2317 C2314 1.403 . S
C2317 C2318 1.392 . S
C2317 C2321 1.495 . S
C2318 C2317 1.392 . S
C2318 C2319 1.385 . S
C2318 C2320 1.478 . S
C2319 H2313 0.930 . S
C2319 C2315 1.400 . S
C2319 C2318 1.385 . S
C2320 C2318 1.478 . S
C2320 C2322 1.381 . S
C2320 C2326 1.383 . S
C2321 C2317 1.495 . S
C2321 H2327 0.959 . S
C2321 H2328 0.961 . S
C2321 H2329 0.960 . S
C2322 C2320 1.381 . S
C2322 C2323 1.394 . S
C2322 H2330 0.930 . S
C2323 C2322 1.394 . S
C2323 C2324 1.383 . S
C2323 H2331 0.929 . S
C2324 C2323 1.383 . S
C2324 C2325 1.377 . S
C2325 H2309 0.930 . S
C2325 C2324 1.377 . S
C2325 C2326 1.379 . S
C2326 H2310 0.931 . S
C2326 C2320 1.383 . S
C2326 C2325 1.379 . S
H2327 C2321 0.959 . S
H2328 C2321 0.961 . S
H2329 C2321 0.960 . S
H2330 C2322 0.930 . S
H2331 C2323 0.929 . S
H2332 C2340 0.929 . S
H2333 C2342 0.930 . S
H2334 C2344 0.930 . S
H2335 C2347 0.929 . S
H2336 C2350 0.930 . S
H2337 C2352 0.960 . S
H2338 C2352 0.960 . S
H2339 C2352 0.960 . S
C2340 H2332 0.929 . S
C2340 C2341 1.377 . S
C2340 C2342 1.384 . S
C2341 C2340 1.377 . S
C2341 C2347 1.390 . S
C2342 H2333 0.930 . S
C2342 C2340 1.384 . S
C2342 C2343 1.372 . S
C2343 C2342 1.372 . S
C2343 C2344 1.400 . S
C2343 C2348 1.490 . S
C2344 H2334 0.930 . S
C2344 C2343 1.400 . S
C2344 C2347 1.386 . S
H2345 C2361 0.930 . S
H2346 C2362 0.931 . S
C2347 H2335 0.929 . S
C2347 C2341 1.390 . S
C2347 C2344 1.386 . S
C2348 C2343 1.490 . S
C2348 C2350 1.395 . S
C2348 C2351 1.403 . S
H2349 C2355 0.930 . S
C2350 H2336 0.930 . S
C2350 C2348 1.395 . S
C2350 C2353 1.403 . S
C2351 C2348 1.403 . S
C2351 C2352 1.524 . S
C2351 C2355 1.400 . S
C2352 H2337 0.960 . S
C2352 H2338 0.960 . S
C2352 H2339 0.960 . S
C2352 C2351 1.524 . S
C2353 C2350 1.403 . S
C2353 C2354 1.392 . S
C2353 C2357 1.495 . S
C2354 C2353 1.392 . S
C2354 C2355 1.385 . S
C2354 C2356 1.478 . S
C2355 H2349 0.930 . S
C2355 C2351 1.400 . S
C2355 C2354 1.385 . S
C2356 C2354 1.478 . S
C2356 C2358 1.381 . S
C2356 C2362 1.383 . S
C2357 C2353 1.495 . S
C2357 H2363 0.959 . S
C2357 H2364 0.961 . S
C2357 H2365 0.960 . S
C2358 C2356 1.381 . S
C2358 C2359 1.394 . S
C2358 H2366 0.930 . S
C2359 C2358 1.394 . S
C2359 C2360 1.383 . S
C2359 H2367 0.929 . S
C2360 C2359 1.383 . S
C2360 C2361 1.377 . S
C2361 H2345 0.930 . S
C2361 C2360 1.377 . S
C2361 C2362 1.379 . S
C2362 H2346 0.931 . S
C2362 C2356 1.383 . S
C2362 C2361 1.379 . S
H2363 C2357 0.959 . S
H2364 C2357 0.961 . S
H2365 C2357 0.960 . S
H2366 C2358 0.930 . S
H2367 C2359 0.929 . S
H2368 C2376 0.929 . S
H2369 C2378 0.930 . S
H2370 C2380 0.930 . S
H2371 C2383 0.929 . S
H2372 C2386 0.930 . S
H2373 C2388 0.960 . S
H2374 C2388 0.960 . S
H2375 C2388 0.960 . S
C2376 H2368 0.929 . S
C2376 C2377 1.377 . S
C2376 C2378 1.384 . S
C2377 C2376 1.377 . S
C2377 C2383 1.390 . S
C2378 H2369 0.930 . S
C2378 C2376 1.384 . S
C2378 C2379 1.372 . S
C2379 C2378 1.372 . S
C2379 C2380 1.400 . S
C2379 C2384 1.490 . S
C2380 H2370 0.930 . S
C2380 C2379 1.400 . S
C2380 C2383 1.386 . S
H2381 C2397 0.930 . S
H2382 C2398 0.931 . S
C2383 H2371 0.929 . S
C2383 C2377 1.390 . S
C2383 C2380 1.386 . S
C2384 C2379 1.490 . S
C2384 C2386 1.395 . S
C2384 C2387 1.403 . S
H2385 C2391 0.930 . S
C2386 H2372 0.930 . S
C2386 C2384 1.395 . S
C2386 C2389 1.403 . S
C2387 C2384 1.403 . S
C2387 C2388 1.524 . S
C2387 C2391 1.400 . S
C2388 H2373 0.960 . S
C2388 H2374 0.960 . S
C2388 H2375 0.960 . S
C2388 C2387 1.524 . S
C2389 C2386 1.403 . S
C2389 C2390 1.392 . S
C2389 C2393 1.495 . S
C2390 C2389 1.392 . S
C2390 C2391 1.385 . S
C2390 C2392 1.478 . S
C2391 H2385 0.930 . S
C2391 C2387 1.400 . S
C2391 C2390 1.385 . S
C2392 C2390 1.478 . S
C2392 C2394 1.381 . S
C2392 C2398 1.383 . S
C2393 C2389 1.495 . S
C2393 H2399 0.959 . S
C2393 H2400 0.961 . S
C2393 H2401 0.960 . S
C2394 C2392 1.381 . S
C2394 C2395 1.394 . S
C2394 H2402 0.930 . S
C2395 C2394 1.394 . S
C2395 C2396 1.383 . S
C2395 H2403 0.929 . S
C2396 C2395 1.383 . S
C2396 C2397 1.377 . S
C2397 H2381 0.930 . S
C2397 C2396 1.377 . S
C2397 C2398 1.379 . S
C2398 H2382 0.931 . S
C2398 C2392 1.383 . S
C2398 C2397 1.379 . S
H2399 C2393 0.959 . S
H2400 C2393 0.961 . S
H2401 C2393 0.960 . S
H2402 C2394 0.930 . S
H2403 C2395 0.929 . S
H2404 C2412 0.929 . S
H2405 C2414 0.930 . S
H2406 C2416 0.930 . S
H2407 C2419 0.929 . S
H2408 C2422 0.930 . S
H2409 C2424 0.960 . S
H2410 C2424 0.960 . S
H2411 C2424 0.960 . S
C2412 H2404 0.929 . S
C2412 C2413 1.377 . S
C2412 C2414 1.384 . S
C2413 C2412 1.377 . S
C2413 C2419 1.390 . S
C2414 H2405 0.930 . S
C2414 C2412 1.384 . S
C2414 C2415 1.372 . S
C2415 C2414 1.372 . S
C2415 C2416 1.400 . S
C2415 C2420 1.490 . S
C2416 H2406 0.930 . S
C2416 C2415 1.400 . S
C2416 C2419 1.386 . S
H2417 C2433 0.930 . S
H2418 C2434 0.931 . S
C2419 H2407 0.929 . S
C2419 C2413 1.390 . S
C2419 C2416 1.386 . S
C2420 C2415 1.490 . S
C2420 C2422 1.395 . S
C2420 C2423 1.403 . S
H2421 C2427 0.930 . S
C2422 H2408 0.930 . S
C2422 C2420 1.395 . S
C2422 C2425 1.403 . S
C2423 C2420 1.403 . S
C2423 C2424 1.524 . S
C2423 C2427 1.400 . S
C2424 H2409 0.960 . S
C2424 H2410 0.960 . S
C2424 H2411 0.960 . S
C2424 C2423 1.524 . S
C2425 C2422 1.403 . S
C2425 C2426 1.392 . S
C2425 C2429 1.495 . S
C2426 C2425 1.392 . S
C2426 C2427 1.385 . S
C2426 C2428 1.478 . S
C2427 H2421 0.930 . S
C2427 C2423 1.400 . S
C2427 C2426 1.385 . S
C2428 C2426 1.478 . S
C2428 C2430 1.381 . S
C2428 C2434 1.383 . S
C2429 C2425 1.495 . S
C2429 H2435 0.959 . S
C2429 H2436 0.961 . S
C2429 H2437 0.960 . S
C2430 C2428 1.381 . S
C2430 C2431 1.394 . S
C2430 H2438 0.930 . S
C2431 C2430 1.394 . S
C2431 C2432 1.383 . S
C2431 H2439 0.929 . S
C2432 C2431 1.383 . S
C2432 C2433 1.377 . S
C2433 H2417 0.930 . S
C2433 C2432 1.377 . S
C2433 C2434 1.379 . S
C2434 H2418 0.931 . S
C2434 C2428 1.383 . S
C2434 C2433 1.379 . S
H2435 C2429 0.959 . S
H2436 C2429 0.961 . S
H2437 C2429 0.960 . S
H2438 C2430 0.930 . S
H2439 C2431 0.929 . S
H2440 C2448 0.929 . S
H2441 C2450 0.930 . S
H2442 C2452 0.930 . S
H2443 C2455 0.929 . S
H2444 C2458 0.930 . S
H2445 C2460 0.960 . S
H2446 C2460 0.960 . S
H2447 C2460 0.960 . S
C2448 H2440 0.929 . S
C2448 C2449 1.377 . S
C2448 C2450 1.384 . S
C2449 C2448 1.377 . S
C2449 C2455 1.390 . S
C2450 H2441 0.930 . S
C2450 C2448 1.384 . S
C2450 C2451 1.372 . S
C2451 C2450 1.372 . S
C2451 C2452 1.400 . S
C2451 C2456 1.490 . S
C2452 H2442 0.930 . S
C2452 C2451 1.400 . S
C2452 C2455 1.386 . S
H2453 C2469 0.930 . S
H2454 C2470 0.931 . S
C2455 H2443 0.929 . S
C2455 C2449 1.390 . S
C2455 C2452 1.386 . S
C2456 C2451 1.490 . S
C2456 C2458 1.395 . S
C2456 C2459 1.403 . S
H2457 C2463 0.930 . S
C2458 H2444 0.930 . S
C2458 C2456 1.395 . S
C2458 C2461 1.403 . S
C2459 C2456 1.403 . S
C2459 C2460 1.524 . S
C2459 C2463 1.400 . S
C2460 H2445 0.960 . S
C2460 H2446 0.960 . S
C2460 H2447 0.960 . S
C2460 C2459 1.524 . S
C2461 C2458 1.403 . S
C2461 C2462 1.392 . S
C2461 C2465 1.495 . S
C2462 C2461 1.392 . S
C2462 C2463 1.385 . S
C2462 C2464 1.478 . S
C2463 H2457 0.930 . S
C2463 C2459 1.400 . S
C2463 C2462 1.385 . S
C2464 C2462 1.478 . S
C2464 C2466 1.381 . S
C2464 C2470 1.383 . S
C2465 C2461 1.495 . S
C2465 H2471 0.959 . S
C2465 H2472 0.961 . S
C2465 H2473 0.960 . S
C2466 C2464 1.381 . S
C2466 C2467 1.394 . S
C2466 H2474 0.930 . S
C2467 C2466 1.394 . S
C2467 C2468 1.383 . S
C2467 H2475 0.929 . S
C2468 C2467 1.383 . S
C2468 C2469 1.377 . S
C2469 H2453 0.930 . S
C2469 C2468 1.377 . S
C2469 C2470 1.379 . S
C2470 H2454 0.931 . S
C2470 C2464 1.383 . S
C2470 C2469 1.379 . S
H2471 C2465 0.959 . S
H2472 C2465 0.961 . S
H2473 C2465 0.960 . S
H2474 C2466 0.930 . S
H2475 C2467 0.929 . S
H2476 C2484 0.929 . S
H2477 C2486 0.930 . S
H2478 C2488 0.930 . S
H2479 C2491 0.929 . S
H2480 C2494 0.930 . S
H2481 C2496 0.960 . S
H2482 C2496 0.960 . S
H2483 C2496 0.960 . S
C2484 H2476 0.929 . S
C2484 C2485 1.377 . S
C2484 C2486 1.384 . S
C2485 C2484 1.377 . S
C2485 C2491 1.390 . S
C2486 H2477 0.930 . S
C2486 C2484 1.384 . S
C2486 C2487 1.372 . S
C2487 C2486 1.372 . S
C2487 C2488 1.400 . S
C2487 C2492 1.490 . S
C2488 H2478 0.930 . S
C2488 C2487 1.400 . S
C2488 C2491 1.386 . S
H2489 C2505 0.930 . S
H2490 C2506 0.931 . S
C2491 H2479 0.929 . S
C2491 C2485 1.390 . S
C2491 C2488 1.386 . S
C2492 C2487 1.490 . S
C2492 C2494 1.395 . S
C2492 C2495 1.403 . S
H2493 C2499 0.930 . S
C2494 H2480 0.930 . S
C2494 C2492 1.395 . S
C2494 C2497 1.403 . S
C2495 C2492 1.403 . S
C2495 C2496 1.524 . S
C2495 C2499 1.400 . S
C2496 H2481 0.960 . S
C2496 H2482 0.960 . S
C2496 H2483 0.960 . S
C2496 C2495 1.524 . S
C2497 C2494 1.403 . S
C2497 C2498 1.392 . S
C2497 C2501 1.495 . S
C2498 C2497 1.392 . S
C2498 C2499 1.385 . S
C2498 C2500 1.478 . S
C2499 H2493 0.930 . S
C2499 C2495 1.400 . S
C2499 C2498 1.385 . S
C2500 C2498 1.478 . S
C2500 C2502 1.381 . S
C2500 C2506 1.383 . S
C2501 C2497 1.495 . S
C2501 H2507 0.959 . S
C2501 H2508 0.961 . S
C2501 H2509 0.960 . S
C2502 C2500 1.381 . S
C2502 C2503 1.394 . S
C2502 H2510 0.930 . S
C2503 C2502 1.394 . S
C2503 C2504 1.383 . S
C2503 H2511 0.929 . S
C2504 C2503 1.383 . S
C2504 C2505 1.377 . S
C2505 H2489 0.930 . S
C2505 C2504 1.377 . S
C2505 C2506 1.379 . S
C2506 H2490 0.931 . S
C2506 C2500 1.383 . S
C2506 C2505 1.379 . S
H2507 C2501 0.959 . S
H2508 C2501 0.961 . S
H2509 C2501 0.960 . S
H2510 C2502 0.930 . S
H2511 C2503 0.929 . S
H2512 C2520 0.929 . S
H2513 C2522 0.930 . S
H2514 C2524 0.930 . S
H2515 C2527 0.929 . S
H2516 C2530 0.930 . S
H2517 C2532 0.960 . S
H2518 C2532 0.960 . S
H2519 C2532 0.960 . S
C2520 H2512 0.929 . S
C2520 C2521 1.377 . S
C2520 C2522 1.384 . S
C2521 C2520 1.377 . S
C2521 C2527 1.390 . S
C2522 H2513 0.930 . S
C2522 C2520 1.384 . S
C2522 C2523 1.372 . S
C2523 C2522 1.372 . S
C2523 C2524 1.400 . S
C2523 C2528 1.490 . S
C2524 H2514 0.930 . S
C2524 C2523 1.400 . S
C2524 C2527 1.386 . S
H2525 C2541 0.930 . S
H2526 C2542 0.931 . S
C2527 H2515 0.929 . S
C2527 C2521 1.390 . S
C2527 C2524 1.386 . S
C2528 C2523 1.490 . S
C2528 C2530 1.395 . S
C2528 C2531 1.403 . S
H2529 C2535 0.930 . S
C2530 H2516 0.930 . S
C2530 C2528 1.395 . S
C2530 C2533 1.403 . S
C2531 C2528 1.403 . S
C2531 C2532 1.524 . S
C2531 C2535 1.400 . S
C2532 H2517 0.960 . S
C2532 H2518 0.960 . S
C2532 H2519 0.960 . S
C2532 C2531 1.524 . S
C2533 C2530 1.403 . S
C2533 C2534 1.392 . S
C2533 C2537 1.495 . S
C2534 C2533 1.392 . S
C2534 C2535 1.385 . S
C2534 C2536 1.478 . S
C2535 H2529 0.930 . S
C2535 C2531 1.400 . S
C2535 C2534 1.385 . S
C2536 C2534 1.478 . S
C2536 C2538 1.381 . S
C2536 C2542 1.383 . S
C2537 C2533 1.495 . S
C2537 H2543 0.959 . S
C2537 H2544 0.961 . S
C2537 H2545 0.960 . S
C2538 C2536 1.381 . S
C2538 C2539 1.394 . S
C2538 H2546 0.930 . S
C2539 C2538 1.394 . S
C2539 C2540 1.383 . S
C2539 H2547 0.929 . S
C2540 C2539 1.383 . S
C2540 C2541 1.377 . S
C2541 H2525 0.930 . S
C2541 C2540 1.377 . S
C2541 C2542 1.379 . S
C2542 H2526 0.931 . S
C2542 C2536 1.383 . S
C2542 C2541 1.379 . S
H2543 C2537 0.959 . S
H2544 C2537 0.961 . S
H2545 C2537 0.960 . S
H2546 C2538 0.930 . S
H2547 C2539 0.929 . S
H2548 C2556 0.929 . S
H2549 C2558 0.930 . S
H2550 C2560 0.930 . S
H2551 C2563 0.929 . S
H2552 C2566 0.930 . S
H2553 C2568 0.960 . S
H2554 C2568 0.960 . S
H2555 C2568 0.960 . S
C2556 H2548 0.929 . S
C2556 C2557 1.377 . S
C2556 C2558 1.384 . S
C2557 C2556 1.377 . S
C2557 C2563 1.390 . S
C2558 H2549 0.930 . S
C2558 C2556 1.384 . S
C2558 C2559 1.372 . S
C2559 C2558 1.372 . S
C2559 C2560 1.400 . S
C2559 C2564 1.490 . S
C2560 H2550 0.930 . S
C2560 C2559 1.400 . S
C2560 C2563 1.386 . S
H2561 C2577 0.930 . S
H2562 C2578 0.931 . S
C2563 H2551 0.929 . S
C2563 C2557 1.390 . S
C2563 C2560 1.386 . S
C2564 C2559 1.490 . S
C2564 C2566 1.395 . S
C2564 C2567 1.403 . S
H2565 C2571 0.930 . S
C2566 H2552 0.930 . S
C2566 C2564 1.395 . S
C2566 C2569 1.403 . S
C2567 C2564 1.403 . S
C2567 C2568 1.524 . S
C2567 C2571 1.400 . S
C2568 H2553 0.960 . S
C2568 H2554 0.960 . S
C2568 H2555 0.960 . S
C2568 C2567 1.524 . S
C2569 C2566 1.403 . S
C2569 C2570 1.392 . S
C2569 C2573 1.495 . S
C2570 C2569 1.392 . S
C2570 C2571 1.385 . S
C2570 C2572 1.478 . S
C2571 H2565 0.930 . S
C2571 C2567 1.400 . S
C2571 C2570 1.385 . S
C2572 C2570 1.478 . S
C2572 C2574 1.381 . S
C2572 C2578 1.383 . S
C2573 C2569 1.495 . S
C2573 H2579 0.959 . S
C2573 H2580 0.961 . S
C2573 H2581 0.960 . S
C2574 C2572 1.381 . S
C2574 C2575 1.394 . S
C2574 H2582 0.930 . S
C2575 C2574 1.394 . S
C2575 C2576 1.383 . S
C2575 H2583 0.929 . S
C2576 C2575 1.383 . S
C2576 C2577 1.377 . S
C2577 H2561 0.930 . S
C2577 C2576 1.377 . S
C2577 C2578 1.379 . S
C2578 H2562 0.931 . S
C2578 C2572 1.383 . S
C2578 C2577 1.379 . S
H2579 C2573 0.959 . S
H2580 C2573 0.961 . S
H2581 C2573 0.960 . S
H2582 C2574 0.930 . S
H2583 C2575 0.929 . S
H2584 C2592 0.929 . S
H2585 C2594 0.930 . S
H2586 C2596 0.930 . S
H2587 C2599 0.929 . S
H2588 C2602 0.930 . S
H2589 C2604 0.960 . S
H2590 C2604 0.960 . S
H2591 C2604 0.960 . S
C2592 H2584 0.929 . S
C2592 C2593 1.377 . S
C2592 C2594 1.384 . S
C2593 C2592 1.377 . S
C2593 C2599 1.390 . S
C2594 H2585 0.930 . S
C2594 C2592 1.384 . S
C2594 C2595 1.372 . S
C2595 C2594 1.372 . S
C2595 C2596 1.400 . S
C2595 C2600 1.490 . S
C2596 H2586 0.930 . S
C2596 C2595 1.400 . S
C2596 C2599 1.386 . S
H2597 C2613 0.930 . S
H2598 C2614 0.931 . S
C2599 H2587 0.929 . S
C2599 C2593 1.390 . S
C2599 C2596 1.386 . S
C2600 C2595 1.490 . S
C2600 C2602 1.395 . S
C2600 C2603 1.403 . S
H2601 C2607 0.930 . S
C2602 H2588 0.930 . S
C2602 C2600 1.395 . S
C2602 C2605 1.403 . S
C2603 C2600 1.403 . S
C2603 C2604 1.524 . S
C2603 C2607 1.400 . S
C2604 H2589 0.960 . S
C2604 H2590 0.960 . S
C2604 H2591 0.960 . S
C2604 C2603 1.524 . S
C2605 C2602 1.403 . S
C2605 C2606 1.392 . S
C2605 C2609 1.495 . S
C2606 C2605 1.392 . S
C2606 C2607 1.385 . S
C2606 C2608 1.478 . S
C2607 H2601 0.930 . S
C2607 C2603 1.400 . S
C2607 C2606 1.385 . S
C2608 C2606 1.478 . S
C2608 C2610 1.381 . S
C2608 C2614 1.383 . S
C2609 C2605 1.495 . S
C2609 H2615 0.959 . S
C2609 H2616 0.961 . S
C2609 H2617 0.960 . S
C2610 C2608 1.381 . S
C2610 C2611 1.394 . S
C2610 H2618 0.930 . S
C2611 C2610 1.394 . S
C2611 C2612 1.383 . S
C2611 H2619 0.929 . S
C2612 C2611 1.383 . S
C2612 C2613 1.377 . S
C2613 H2597 0.930 . S
C2613 C2612 1.377 . S
C2613 C2614 1.379 . S
C2614 H2598 0.931 . S
C2614 C2608 1.383 . S
C2614 C2613 1.379 . S
H2615 C2609 0.959 . S
H2616 C2609 0.961 . S
H2617 C2609 0.960 . S
H2618 C2610 0.930 . S
H2619 C2611 0.929 . S
H2620 C2628 0.929 . S
H2621 C2630 0.930 . S
H2622 C2632 0.930 . S
H2623 C2635 0.929 . S
H2624 C2638 0.930 . S
H2625 C2640 0.960 . S
H2626 C2640 0.960 . S
H2627 C2640 0.960 . S
C2628 H2620 0.929 . S
C2628 C2629 1.377 . S
C2628 C2630 1.384 . S
C2629 C2628 1.377 . S
C2629 C2635 1.390 . S
C2630 H2621 0.930 . S
C2630 C2628 1.384 . S
C2630 C2631 1.372 . S
C2631 C2630 1.372 . S
C2631 C2632 1.400 . S
C2631 C2636 1.490 . S
C2632 H2622 0.930 . S
C2632 C2631 1.400 . S
C2632 C2635 1.386 . S
H2633 C2649 0.930 . S
H2634 C2650 0.931 . S
C2635 H2623 0.929 . S
C2635 C2629 1.390 . S
C2635 C2632 1.386 . S
C2636 C2631 1.490 . S
C2636 C2638 1.395 . S
C2636 C2639 1.403 . S
H2637 C2643 0.930 . S
C2638 H2624 0.930 . S
C2638 C2636 1.395 . S
C2638 C2641 1.403 . S
C2639 C2636 1.403 . S
C2639 C2640 1.524 . S
C2639 C2643 1.400 . S
C2640 H2625 0.960 . S
C2640 H2626 0.960 . S
C2640 H2627 0.960 . S
C2640 C2639 1.524 . S
C2641 C2638 1.403 . S
C2641 C2642 1.392 . S
C2641 C2645 1.495 . S
C2642 C2641 1.392 . S
C2642 C2643 1.385 . S
C2642 C2644 1.478 . S
C2643 H2637 0.930 . S
C2643 C2639 1.400 . S
C2643 C2642 1.385 . S
C2644 C2642 1.478 . S
C2644 C2646 1.381 . S
C2644 C2650 1.383 . S
C2645 C2641 1.495 . S
C2645 H2651 0.959 . S
C2645 H2652 0.961 . S
C2645 H2653 0.960 . S
C2646 C2644 1.381 . S
C2646 C2647 1.394 . S
C2646 H2654 0.930 . S
C2647 C2646 1.394 . S
C2647 C2648 1.383 . S
C2647 H2655 0.929 . S
C2648 C2647 1.383 . S
C2648 C2649 1.377 . S
C2649 H2633 0.930 . S
C2649 C2648 1.377 . S
C2649 C2650 1.379 . S
C2650 H2634 0.931 . S
C2650 C2644 1.383 . S
C2650 C2649 1.379 . S
H2651 C2645 0.959 . S
H2652 C2645 0.961 . S
H2653 C2645 0.960 . S
H2654 C2646 0.930 . S
H2655 C2647 0.929 . S
H2656 C2664 0.929 . S
H2657 C2666 0.930 . S
H2658 C2668 0.930 . S
H2659 C2671 0.929 . S
H2660 C2674 0.930 . S
H2661 C2676 0.960 . S
H2662 C2676 0.960 . S
H2663 C2676 0.960 . S
C2664 H2656 0.929 . S
C2664 C2665 1.377 . S
C2664 C2666 1.384 . S
C2665 C2664 1.377 . S
C2665 C2671 1.390 1_545 S
C2666 H2657 0.930 . S
C2666 C2664 1.384 . S
C2666 C2667 1.373 . S
C2667 C2666 1.373 . S
C2667 C2668 1.399 1_545 S
C2667 C2672 1.490 1_545 S
C2668 H2658 0.930 . S
C2668 C2667 1.399 1_565 S
C2668 C2671 1.386 . S
H2669 C2685 0.930 . S
H2670 C2686 0.931 . S
C2671 H2659 0.929 . S
C2671 C2665 1.390 1_565 S
C2671 C2668 1.386 . S
C2672 C2667 1.490 1_565 S
C2672 C2674 1.395 . S
C2672 C2675 1.403 1_565 S
H2673 C2679 0.930 . S
C2674 H2660 0.930 . S
C2674 C2672 1.395 . S
C2674 C2677 1.403 . S
C2675 C2672 1.403 1_545 S
C2675 C2676 1.524 . S
C2675 C2679 1.400 . S
C2676 H2661 0.960 . S
C2676 H2662 0.960 . S
C2676 H2663 0.960 . S
C2676 C2675 1.524 . S
C2677 C2674 1.403 . S
C2677 C2678 1.392 . S
C2677 C2681 1.495 . S
C2678 C2677 1.392 . S
C2678 C2679 1.385 1_565 S
C2678 C2680 1.478 . S
C2679 H2673 0.930 . S
C2679 C2675 1.400 . S
C2679 C2678 1.385 1_545 S
C2680 C2678 1.478 . S
C2680 C2682 1.381 . S
C2680 C2686 1.383 . S
C2681 C2677 1.495 . S
C2681 H2687 0.959 . S
C2681 H2688 0.961 . S
C2681 H2689 0.960 . S
C2682 C2680 1.381 . S
C2682 C2683 1.394 . S
C2682 H2690 0.930 1_565 S
C2683 C2682 1.394 . S
C2683 C2684 1.383 . S
C2683 H2691 0.929 1_565 S
C2684 C2683 1.383 . S
C2684 C2685 1.377 . S
C2685 H2669 0.930 . S
C2685 C2684 1.377 . S
C2685 C2686 1.379 . S
C2686 H2670 0.931 . S
C2686 C2680 1.383 . S
C2686 C2685 1.379 . S
H2687 C2681 0.959 . S
H2688 C2681 0.961 . S
H2689 C2681 0.960 . S
H2690 C2682 0.930 1_545 S
H2691 C2683 0.929 1_545 S
H2692 C2700 0.929 . S
H2693 C2702 0.930 . S
H2694 C2704 0.930 . S
H2695 C2707 0.929 . S
H2696 C2710 0.930 . S
H2697 C2712 0.960 . S
H2698 C2712 0.960 . S
H2699 C2712 0.960 . S
C2700 H2692 0.929 . S
C2700 C2701 1.377 . S
C2700 C2702 1.384 . S
C2701 C2700 1.377 . S
C2701 C2707 1.390 . S
C2702 H2693 0.930 . S
C2702 C2700 1.384 . S
C2702 C2703 1.372 . S
C2703 C2702 1.372 . S
C2703 C2704 1.400 . S
C2703 C2708 1.490 . S
C2704 H2694 0.930 . S
C2704 C2703 1.400 . S
C2704 C2707 1.386 . S
H2705 C2721 0.930 . S
H2706 C2722 0.931 . S
C2707 H2695 0.929 . S
C2707 C2701 1.390 . S
C2707 C2704 1.386 . S
C2708 C2703 1.490 . S
C2708 C2710 1.395 . S
C2708 C2711 1.403 . S
H2709 C2715 0.930 . S
C2710 H2696 0.930 . S
C2710 C2708 1.395 . S
C2710 C2713 1.403 . S
C2711 C2708 1.403 . S
C2711 C2712 1.524 . S
C2711 C2715 1.400 . S
C2712 H2697 0.960 . S
C2712 H2698 0.960 . S
C2712 H2699 0.960 . S
C2712 C2711 1.524 . S
C2713 C2710 1.403 . S
C2713 C2714 1.392 . S
C2713 C2717 1.495 . S
C2714 C2713 1.392 . S
C2714 C2715 1.385 . S
C2714 C2716 1.478 . S
C2715 H2709 0.930 . S
C2715 C2711 1.400 . S
C2715 C2714 1.385 . S
C2716 C2714 1.478 . S
C2716 C2718 1.381 . S
C2716 C2722 1.383 . S
C2717 C2713 1.495 . S
C2717 H2723 0.959 . S
C2717 H2724 0.961 . S
C2717 H2725 0.960 . S
C2718 C2716 1.381 . S
C2718 C2719 1.394 . S
C2718 H2726 0.930 . S
C2719 C2718 1.394 . S
C2719 C2720 1.383 . S
C2719 H2727 0.929 . S
C2720 C2719 1.383 . S
C2720 C2721 1.377 . S
C2721 H2705 0.930 . S
C2721 C2720 1.377 . S
C2721 C2722 1.379 . S
C2722 H2706 0.931 . S
C2722 C2716 1.383 . S
C2722 C2721 1.379 . S
H2723 C2717 0.959 . S
H2724 C2717 0.961 . S
H2725 C2717 0.960 . S
H2726 C2718 0.930 . S
H2727 C2719 0.929 . S
H2728 C2736 0.929 . S
H2729 C2738 0.930 . S
H2730 C2740 0.930 . S
H2731 C2743 0.929 . S
H2732 C2746 0.930 . S
H2733 C2748 0.960 . S
H2734 C2748 0.960 . S
H2735 C2748 0.960 . S
C2736 H2728 0.929 . S
C2736 C2737 1.377 . S
C2736 C2738 1.384 . S
C2737 C2736 1.377 . S
C2737 C2743 1.390 . S
C2738 H2729 0.930 . S
C2738 C2736 1.384 . S
C2738 C2739 1.372 . S
C2739 C2738 1.372 . S
C2739 C2740 1.400 . S
C2739 C2744 1.490 . S
C2740 H2730 0.930 . S
C2740 C2739 1.400 . S
C2740 C2743 1.386 . S
H2741 C2757 0.930 . S
H2742 C2758 0.931 . S
C2743 H2731 0.929 . S
C2743 C2737 1.390 . S
C2743 C2740 1.386 . S
C2744 C2739 1.490 . S
C2744 C2746 1.395 . S
C2744 C2747 1.403 . S
H2745 C2751 0.930 . S
C2746 H2732 0.930 . S
C2746 C2744 1.395 . S
C2746 C2749 1.403 . S
C2747 C2744 1.403 . S
C2747 C2748 1.524 . S
C2747 C2751 1.400 . S
C2748 H2733 0.960 . S
C2748 H2734 0.960 . S
C2748 H2735 0.960 . S
C2748 C2747 1.524 . S
C2749 C2746 1.403 . S
C2749 C2750 1.392 . S
C2749 C2753 1.495 . S
C2750 C2749 1.392 . S
C2750 C2751 1.385 . S
C2750 C2752 1.478 . S
C2751 H2745 0.930 . S
C2751 C2747 1.400 . S
C2751 C2750 1.385 . S
C2752 C2750 1.478 . S
C2752 C2754 1.381 . S
C2752 C2758 1.383 . S
C2753 C2749 1.495 . S
C2753 H2759 0.959 . S
C2753 H2760 0.961 . S
C2753 H2761 0.960 . S
C2754 C2752 1.381 . S
C2754 C2755 1.394 . S
C2754 H2762 0.930 . S
C2755 C2754 1.394 . S
C2755 C2756 1.383 . S
C2755 H2763 0.929 . S
C2756 C2755 1.383 . S
C2756 C2757 1.377 . S
C2757 H2741 0.930 . S
C2757 C2756 1.377 . S
C2757 C2758 1.379 . S
C2758 H2742 0.931 . S
C2758 C2752 1.383 . S
C2758 C2757 1.379 . S
H2759 C2753 0.959 . S
H2760 C2753 0.961 . S
H2761 C2753 0.960 . S
H2762 C2754 0.930 . S
H2763 C2755 0.929 . S
H2764 C2772 0.929 . S
H2765 C2774 0.930 . S
H2766 C2776 0.930 . S
H2767 C2779 0.929 . S
H2768 C2782 0.930 . S
H2769 C2784 0.960 . S
H2770 C2784 0.960 . S
H2771 C2784 0.960 1_545 S
C2772 H2764 0.929 . S
C2772 C2773 1.377 1_565 S
C2772 C2774 1.384 . S
C2773 C2772 1.377 1_545 S
C2773 C2779 1.390 . S
C2774 H2765 0.930 . S
C2774 C2772 1.384 . S
C2774 C2775 1.372 . S
C2775 C2774 1.372 . S
C2775 C2776 1.400 1_565 S
C2775 C2780 1.490 . S
C2776 H2766 0.930 . S
C2776 C2775 1.400 1_545 S
C2776 C2779 1.386 . S
H2777 C2793 0.930 . S
H2778 C2794 0.931 . S
C2779 H2767 0.929 . S
C2779 C2773 1.390 . S
C2779 C2776 1.386 . S
C2780 C2775 1.490 . S
C2780 C2782 1.395 . S
C2780 C2783 1.403 . S
H2781 C2787 0.930 . S
C2782 H2768 0.930 . S
C2782 C2780 1.395 . S
C2782 C2785 1.403 . S
C2783 C2780 1.403 . S
C2783 C2784 1.524 . S
C2783 C2787 1.400 . S
C2784 H2769 0.960 . S
C2784 H2770 0.960 . S
C2784 H2771 0.960 1_565 S
C2784 C2783 1.524 . S
C2785 C2782 1.403 . S
C2785 C2786 1.392 . S
C2785 C2789 1.495 . S
C2786 C2785 1.392 . S
C2786 C2787 1.385 . S
C2786 C2788 1.478 . S
C2787 H2781 0.930 . S
C2787 C2783 1.400 . S
C2787 C2786 1.385 . S
C2788 C2786 1.478 . S
C2788 C2790 1.381 . S
C2788 C2794 1.383 1_565 S
C2789 C2785 1.495 . S
C2789 H2795 0.959 . S
C2789 H2796 0.961 1_565 S
C2789 H2797 0.960 . S
C2790 C2788 1.381 . S
C2790 C2791 1.394 . S
C2790 H2798 0.930 . S
C2791 C2790 1.394 . S
C2791 C2792 1.383 . S
C2791 H2799 0.929 . S
C2792 C2791 1.383 . S
C2792 C2793 1.377 1_565 S
C2793 H2777 0.930 . S
C2793 C2792 1.377 1_545 S
C2793 C2794 1.379 . S
C2794 H2778 0.931 . S
C2794 C2788 1.383 1_545 S
C2794 C2793 1.379 . S
H2795 C2789 0.959 . S
H2796 C2789 0.961 1_545 S
H2797 C2789 0.960 . S
H2798 C2790 0.930 . S
H2799 C2791 0.929 . S
H2800 C2808 0.929 . S
H2801 C2810 0.930 . S
H2802 C2812 0.930 . S
H2803 C2815 0.929 . S
H2804 C2818 0.930 . S
H2805 C2820 0.960 . S
H2806 C2820 0.960 1_565 S
H2807 C2820 0.960 . S
C2808 H2800 0.929 . S
C2808 C2809 1.377 . S
C2808 C2810 1.384 . S
C2809 C2808 1.377 . S
C2809 C2815 1.390 1_565 S
C2810 H2801 0.930 . S
C2810 C2808 1.384 . S
C2810 C2811 1.407 . S
C2811 C2810 1.407 . S
C2811 C2812 1.367 1_565 S
C2811 C2816 1.488 1_565 S
C2812 H2802 0.930 . S
C2812 C2811 1.367 1_545 S
C2812 C2815 1.386 . S
H2813 C2829 0.930 . S
H2814 C2830 0.931 . S
C2815 H2803 0.929 . S
C2815 C2809 1.390 1_545 S
C2815 C2812 1.386 . S
C2816 C2811 1.488 1_545 S
C2816 C2818 1.389 1_545 S
C2816 C2819 1.410 . S
H2817 C2823 0.930 . S
C2818 H2804 0.930 . S
C2818 C2816 1.389 1_565 S
C2818 C2821 1.403 . S
C2819 C2816 1.410 . S
C2819 C2820 1.524 . S
C2819 C2823 1.400 . S
C2820 H2805 0.960 . S
C2820 H2806 0.960 1_545 S
C2820 H2807 0.960 . S
C2820 C2819 1.524 . S
C2821 C2818 1.403 . S
C2821 C2822 1.392 1_565 S
C2821 C2825 1.495 . S
C2822 C2821 1.392 1_545 S
C2822 C2823 1.385 . S
C2822 C2824 1.478 . S
C2823 H2817 0.930 . S
C2823 C2819 1.400 . S
C2823 C2822 1.385 . S
C2824 C2822 1.478 . S
C2824 C2826 1.381 1_545 S
C2824 C2830 1.383 . S
C2825 C2821 1.495 . S
C2825 H2831 0.959 . S
C2825 H2832 0.961 1_565 S
C2825 H2833 0.960 . S
C2826 C2824 1.381 1_565 S
C2826 C2827 1.394 . S
C2826 H2834 0.930 . S
C2827 C2826 1.394 . S
C2827 C2828 1.383 1_565 S
C2827 H2835 0.929 . S
C2828 C2827 1.383 1_545 S
C2828 C2829 1.377 . S
C2829 H2813 0.930 . S
C2829 C2828 1.377 . S
C2829 C2830 1.379 . S
C2830 H2814 0.931 . S
C2830 C2824 1.383 . S
C2830 C2829 1.379 . S
H2831 C2825 0.959 . S
H2832 C2825 0.961 1_545 S
H2833 C2825 0.960 . S
H2834 C2826 0.930 . S
H2835 C2827 0.929 . S
H2836 C2844 0.929 . S
H2837 C2846 0.930 . S
H2838 C2848 0.930 . S
H2839 C2851 0.929 . S
H2840 C2854 0.930 . S
H2841 C2856 0.960 . S
H2842 C2856 0.960 . S
H2843 C2856 0.960 . S
C2844 H2836 0.929 . S
C2844 C2845 1.377 . S
C2844 C2846 1.384 . S
C2845 C2844 1.377 . S
C2845 C2851 1.390 . S
C2846 H2837 0.930 . S
C2846 C2844 1.384 . S
C2846 C2847 1.372 . S
C2847 C2846 1.372 . S
C2847 C2848 1.400 . S
C2847 C2852 1.490 . S
C2848 H2838 0.930 . S
C2848 C2847 1.400 . S
C2848 C2851 1.386 . S
H2849 C2865 0.930 . S
H2850 C2866 0.931 . S
C2851 H2839 0.929 . S
C2851 C2845 1.390 . S
C2851 C2848 1.386 . S
C2852 C2847 1.490 . S
C2852 C2854 1.395 . S
C2852 C2855 1.403 . S
H2853 C2859 0.930 . S
C2854 H2840 0.930 . S
C2854 C2852 1.395 . S
C2854 C2857 1.403 . S
C2855 C2852 1.403 . S
C2855 C2856 1.524 . S
C2855 C2859 1.400 . S
C2856 H2841 0.960 . S
C2856 H2842 0.960 . S
C2856 H2843 0.960 . S
C2856 C2855 1.524 . S
C2857 C2854 1.403 . S
C2857 C2858 1.392 . S
C2857 C2861 1.495 . S
C2858 C2857 1.392 . S
C2858 C2859 1.385 . S
C2858 C2860 1.478 . S
C2859 H2853 0.930 . S
C2859 C2855 1.400 . S
C2859 C2858 1.385 . S
C2860 C2858 1.478 . S
C2860 C2862 1.381 . S
C2860 C2866 1.383 . S
C2861 C2857 1.495 . S
C2861 H2867 0.959 . S
C2861 H2868 0.961 . S
C2861 H2869 0.960 . S
C2862 C2860 1.381 . S
C2862 C2863 1.394 . S
C2862 H2870 0.930 . S
C2863 C2862 1.394 . S
C2863 C2864 1.383 . S
C2863 H2871 0.929 . S
C2864 C2863 1.383 . S
C2864 C2865 1.377 . S
C2865 H2849 0.930 . S
C2865 C2864 1.377 . S
C2865 C2866 1.379 . S
C2866 H2850 0.931 . S
C2866 C2860 1.383 . S
C2866 C2865 1.379 . S
H2867 C2861 0.959 . S
H2868 C2861 0.961 . S
H2869 C2861 0.960 . S
H2870 C2862 0.930 . S
H2871 C2863 0.929 . S
H2872 C2880 0.929 . S
H2873 C2882 0.930 . S
H2874 C2884 0.930 . S
H2875 C2887 0.929 . S
H2876 C2890 0.930 . S
H2877 C2892 0.960 . S
H2878 C2892 0.960 . S
H2879 C2892 0.960 . S
C2880 H2872 0.929 . S
C2880 C2881 1.377 . S
C2880 C2882 1.384 . S
C2881 C2880 1.377 . S
C2881 C2887 1.390 . S
C2882 H2873 0.930 . S
C2882 C2880 1.384 . S
C2882 C2883 1.372 . S
C2883 C2882 1.372 . S
C2883 C2884 1.400 . S
C2883 C2888 1.490 . S
C2884 H2874 0.930 . S
C2884 C2883 1.400 . S
C2884 C2887 1.386 . S
H2885 C2901 0.930 . S
H2886 C2902 0.931 . S
C2887 H2875 0.929 . S
C2887 C2881 1.390 . S
C2887 C2884 1.386 . S
C2888 C2883 1.490 . S
C2888 C2890 1.395 . S
C2888 C2891 1.403 . S
H2889 C2895 0.930 . S
C2890 H2876 0.930 . S
C2890 C2888 1.395 . S
C2890 C2893 1.403 . S
C2891 C2888 1.403 . S
C2891 C2892 1.524 . S
C2891 C2895 1.400 . S
C2892 H2877 0.960 . S
C2892 H2878 0.960 . S
C2892 H2879 0.960 . S
C2892 C2891 1.524 . S
C2893 C2890 1.403 . S
C2893 C2894 1.392 . S
C2893 C2897 1.495 . S
C2894 C2893 1.392 . S
C2894 C2895 1.385 . S
C2894 C2896 1.478 . S
C2895 H2889 0.930 . S
C2895 C2891 1.400 . S
C2895 C2894 1.385 . S
C2896 C2894 1.478 . S
C2896 C2898 1.381 . S
C2896 C2902 1.383 . S
C2897 C2893 1.495 . S
C2897 H2903 0.959 . S
C2897 H2904 0.961 . S
C2897 H2905 0.960 . S
C2898 C2896 1.381 . S
C2898 C2899 1.394 . S
C2898 H2906 0.930 . S
C2899 C2898 1.394 . S
C2899 C2900 1.383 . S
C2899 H2907 0.929 . S
C2900 C2899 1.383 . S
C2900 C2901 1.377 . S
C2901 H2885 0.930 . S
C2901 C2900 1.377 . S
C2901 C2902 1.379 . S
C2902 H2886 0.931 . S
C2902 C2896 1.383 . S
C2902 C2901 1.379 . S
H2903 C2897 0.959 . S
H2904 C2897 0.961 . S
H2905 C2897 0.960 . S
H2906 C2898 0.930 . S
H2907 C2899 0.929 . S
H2908 C2916 0.929 . S
H2909 C2918 0.930 . S
H2910 C2920 0.940 . S
H2911 C2923 0.927 1_545 S
H2912 C2926 0.930 . S
H2913 C2928 0.960 . S
H2914 C2928 0.960 . S
H2915 C2928 0.960 . S
C2916 H2908 0.929 . S
C2916 C2917 1.377 . S
C2916 C2918 1.384 . S
C2917 C2916 1.377 . S
C2917 C2923 1.389 . S
C2918 H2909 0.930 . S
C2918 C2916 1.384 . S
C2918 C2919 1.373 1_565 S
C2919 C2918 1.373 1_545 S
C2919 C2920 1.398 . S
C2919 C2924 1.489 . S
C2920 H2910 0.940 . S
C2920 C2919 1.398 . S
C2920 C2923 1.384 1_545 S
H2921 C2937 0.930 . S
H2922 C2938 0.931 . S
C2923 H2911 0.927 1_565 S
C2923 C2917 1.389 . S
C2923 C2920 1.384 1_565 S
C2924 C2919 1.489 . S
C2924 C2926 1.395 . S
C2924 C2927 1.403 1_545 S
H2925 C2931 0.930 . S
C2926 H2912 0.930 . S
C2926 C2924 1.395 . S
C2926 C2929 1.403 . S
C2927 C2924 1.403 1_565 S
C2927 C2928 1.524 . S
C2927 C2931 1.400 . S
C2928 H2913 0.960 . S
C2928 H2914 0.960 . S
C2928 H2915 0.960 . S
C2928 C2927 1.524 . S
C2929 C2926 1.403 . S
C2929 C2930 1.392 . S
C2929 C2933 1.495 . S
C2930 C2929 1.392 . S
C2930 C2931 1.385 1_545 S
C2930 C2932 1.478 . S
C2931 H2925 0.930 . S
C2931 C2927 1.400 . S
C2931 C2930 1.385 1_565 S
C2932 C2930 1.478 . S
C2932 C2934 1.381 . S
C2932 C2938 1.383 . S
C2933 C2929 1.495 . S
C2933 H2939 0.959 . S
C2933 H2940 0.961 . S
C2933 H2941 0.960 . S
C2934 C2932 1.381 . S
C2934 C2935 1.394 . S
C2934 H2942 0.930 . S
C2935 C2934 1.394 . S
C2935 C2936 1.383 . S
C2935 H2943 0.929 . S
C2936 C2935 1.383 . S
C2936 C2937 1.377 . S
C2937 H2921 0.930 . S
C2937 C2936 1.377 . S
C2937 C2938 1.379 . S
C2938 H2922 0.931 . S
C2938 C2932 1.383 . S
C2938 C2937 1.379 . S
H2939 C2933 0.959 . S
H2940 C2933 0.961 . S
H2941 C2933 0.960 . S
H2942 C2934 0.930 . S
H2943 C2935 0.929 . S
H2944 C2952 0.929 . S
H2945 C2954 0.930 . S
H2946 C2956 0.930 . S
H2947 C2959 0.929 . S
H2948 C2962 0.930 . S
H2949 C2964 0.960 . S
H2950 C2964 0.960 . S
H2951 C2964 0.960 . S
C2952 H2944 0.929 . S
C2952 C2953 1.377 . S
C2952 C2954 1.384 . S
C2953 C2952 1.377 . S
C2953 C2959 1.390 . S
C2954 H2945 0.930 . S
C2954 C2952 1.384 . S
C2954 C2955 1.372 . S
C2955 C2954 1.372 . S
C2955 C2956 1.400 . S
C2955 C2960 1.490 . S
C2956 H2946 0.930 . S
C2956 C2955 1.400 . S
C2956 C2959 1.386 . S
H2957 C2973 0.930 . S
H2958 C2974 0.931 . S
C2959 H2947 0.929 . S
C2959 C2953 1.390 . S
C2959 C2956 1.386 . S
C2960 C2955 1.490 . S
C2960 C2962 1.395 . S
C2960 C2963 1.403 . S
H2961 C2967 0.930 . S
C2962 H2948 0.930 . S
C2962 C2960 1.395 . S
C2962 C2965 1.403 . S
C2963 C2960 1.403 . S
C2963 C2964 1.524 . S
C2963 C2967 1.400 1_455 S
C2964 H2949 0.960 . S
C2964 H2950 0.960 . S
C2964 H2951 0.960 . S
C2964 C2963 1.524 . S
C2965 C2962 1.403 . S
C2965 C2966 1.392 1_455 S
C2965 C2969 1.495 1_455 S
C2966 C2965 1.392 1_655 S
C2966 C2967 1.385 . S
C2966 C2968 1.478 . S
C2967 H2961 0.930 . S
C2967 C2963 1.400 1_655 S
C2967 C2966 1.385 . S
C2968 C2966 1.478 . S
C2968 C2970 1.381 . S
C2968 C2974 1.383 . S
C2969 C2965 1.495 1_655 S
C2969 H2975 0.959 1_655 S
C2969 H2976 0.961 . S
C2969 H2977 0.960 . S
C2970 C2968 1.381 . S
C2970 C2971 1.394 . S
C2970 H2978 0.930 . S
C2971 C2970 1.394 . S
C2971 C2972 1.383 . S
C2971 H2979 0.929 . S
C2972 C2971 1.383 . S
C2972 C2973 1.377 . S
C2973 H2957 0.930 . S
C2973 C2972 1.377 . S
C2973 C2974 1.379 . S
C2974 H2958 0.931 . S
C2974 C2968 1.383 . S
C2974 C2973 1.379 . S
H2975 C2969 0.959 1_455 S
H2976 C2969 0.961 . S
H2977 C2969 0.960 . S
H2978 C2970 0.930 . S
H2979 C2971 0.929 . S
H2980 C2988 0.929 . S
H2981 C2990 0.930 . S
H2982 C2992 0.930 . S
H2983 C2995 0.929 . S
H2984 C2998 0.930 . S
H2985 C3000 0.960 . S
H2986 C3000 0.960 . S
H2987 C3000 0.960 . S
C2988 H2980 0.929 . S
C2988 C2989 1.377 . S
C2988 C2990 1.384 . S
C2989 C2988 1.377 . S
C2989 C2995 1.390 . S
C2990 H2981 0.930 . S
C2990 C2988 1.384 . S
C2990 C2991 1.372 . S
C2991 C2990 1.372 . S
C2991 C2992 1.400 . S
C2991 C2996 1.490 . S
C2992 H2982 0.930 . S
C2992 C2991 1.400 . S
C2992 C2995 1.386 . S
H2993 C3009 0.930 1_655 S
H2994 C3010 0.931 . S
C2995 H2983 0.929 . S
C2995 C2989 1.390 . S
C2995 C2992 1.386 . S
C2996 C2991 1.490 . S
C2996 C2998 1.395 . S
C2996 C2999 1.403 . S
H2997 C3003 0.930 . S
C2998 H2984 0.930 . S
C2998 C2996 1.395 . S
C2998 C3001 1.403 . S
C2999 C2996 1.403 . S
C2999 C3000 1.524 . S
C2999 C3003 1.400 . S
C3000 H2985 0.960 . S
C3000 H2986 0.960 . S
C3000 H2987 0.960 . S
C3000 C2999 1.524 . S
C3001 C2998 1.403 . S
C3001 C3002 1.392 . S
C3001 C3005 1.495 . S
C3002 C3001 1.392 . S
C3002 C3003 1.385 . S
C3002 C3004 1.478 . S
C3003 H2997 0.930 . S
C3003 C2999 1.400 . S
C3003 C3002 1.385 . S
C3004 C3002 1.478 . S
C3004 C3006 1.381 . S
C3004 C3010 1.383 . S
C3005 C3001 1.495 . S
C3005 H3011 0.959 . S
C3005 H3012 0.961 . S
C3005 H3013 0.960 . S
C3006 C3004 1.381 . S
C3006 C3007 1.394 . S
C3006 H3014 0.930 . S
C3007 C3006 1.394 . S
C3007 C3008 1.383 1_455 S
C3007 H3015 0.929 1_455 S
C3008 C3007 1.383 1_655 S
C3008 C3009 1.377 1_655 S
C3009 H2993 0.930 1_455 S
C3009 C3008 1.377 1_455 S
C3009 C3010 1.379 . S
C3010 H2994 0.931 . S
C3010 C3004 1.383 . S
C3010 C3009 1.379 . S
H3011 C3005 0.959 . S
H3012 C3005 0.961 . S
H3013 C3005 0.960 . S
H3014 C3006 0.930 . S
H3015 C3007 0.929 1_655 S
H3016 C3024 0.929 . S
H3017 C3026 0.930 . S
H3018 C3028 0.930 . S
H3019 C3031 0.929 . S
H3020 C3034 0.930 1_655 S
H3021 C3036 0.960 1_455 S
H3022 C3036 0.960 . S
H3023 C3036 0.960 . S
C3024 H3016 0.929 . S
C3024 C3025 1.377 . S
C3024 C3026 1.384 . S
C3025 C3024 1.377 . S
C3025 C3031 1.390 . S
C3026 H3017 0.930 . S
C3026 C3024 1.384 . S
C3026 C3027 1.372 . S
C3027 C3026 1.372 . S
C3027 C3028 1.400 . S
C3027 C3032 1.490 . S
C3028 H3018 0.930 . S
C3028 C3027 1.400 . S
C3028 C3031 1.386 . S
H3029 C3045 0.930 . S
H3030 C3046 0.931 . S
C3031 H3019 0.929 . S
C3031 C3025 1.390 . S
C3031 C3028 1.386 . S
C3032 C3027 1.490 . S
C3032 C3034 1.395 1_655 S
C3032 C3035 1.403 1_655 S
H3033 C3039 0.930 . S
C3034 H3020 0.930 1_455 S
C3034 C3032 1.395 1_455 S
C3034 C3037 1.403 . S
C3035 C3032 1.403 1_455 S
C3035 C3036 1.524 1_455 S
C3035 C3039 1.400 . S
C3036 H3021 0.960 1_655 S
C3036 H3022 0.960 . S
C3036 H3023 0.960 . S
C3036 C3035 1.524 1_655 S
C3037 C3034 1.403 . S
C3037 C3038 1.392 . S
C3037 C3041 1.495 . S
C3038 C3037 1.392 . S
C3038 C3039 1.385 . S
C3038 C3040 1.478 . S
C3039 H3033 0.930 . S
C3039 C3035 1.400 . S
C3039 C3038 1.385 . S
C3040 C3038 1.478 . S
C3040 C3042 1.381 . S
C3040 C3046 1.383 . S
C3041 C3037 1.495 . S
C3041 H3047 0.959 . S
C3041 H3048 0.961 . S
C3041 H3049 0.960 . S
C3042 C3040 1.381 . S
C3042 C3043 1.394 . S
C3042 H3050 0.930 . S
C3043 C3042 1.394 . S
C3043 C3044 1.383 . S
C3043 H3051 0.929 . S
C3044 C3043 1.383 . S
C3044 C3045 1.377 . S
C3045 H3029 0.930 . S
C3045 C3044 1.377 . S
C3045 C3046 1.379 . S
C3046 H3030 0.931 . S
C3046 C3040 1.383 . S
C3046 C3045 1.379 . S
H3047 C3041 0.959 . S
H3048 C3041 0.961 . S
H3049 C3041 0.960 . S
H3050 C3042 0.930 . S
H3051 C3043 0.929 . S
H3052 C3060 0.929 1_655 S
H3053 C3062 0.930 . S
H3054 C3064 0.930 . S
H3055 C3067 0.929 1_655 S
H3056 C3070 0.930 . S
H3057 C3072 0.960 . S
H3058 C3072 0.960 . S
H3059 C3072 0.960 . S
C3060 H3052 0.929 1_455 S
C3060 C3061 1.377 1_455 S
C3060 C3062 1.384 . S
C3061 C3060 1.377 1_655 S
C3061 C3067 1.390 1_655 S
C3062 H3053 0.930 . S
C3062 C3060 1.384 . S
C3062 C3063 1.372 . S
C3063 C3062 1.372 . S
C3063 C3064 1.400 . S
C3063 C3068 1.490 . S
C3064 H3054 0.930 . S
C3064 C3063 1.400 . S
C3064 C3067 1.386 . S
H3065 C3081 0.930 . S
H3066 C3082 0.931 . S
C3067 H3055 0.929 1_455 S
C3067 C3061 1.390 1_455 S
C3067 C3064 1.386 . S
C3068 C3063 1.490 . S
C3068 C3070 1.395 . S
C3068 C3071 1.403 . S
H3069 C3075 0.930 . S
C3070 H3056 0.930 . S
C3070 C3068 1.395 . S
C3070 C3073 1.403 . S
C3071 C3068 1.403 . S
C3071 C3072 1.524 . S
C3071 C3075 1.400 . S
C3072 H3057 0.960 . S
C3072 H3058 0.960 . S
C3072 H3059 0.960 . S
C3072 C3071 1.524 . S
C3073 C3070 1.403 . S
C3073 C3074 1.392 . S
C3073 C3077 1.495 . S
C3074 C3073 1.392 . S
C3074 C3075 1.385 . S
C3074 C3076 1.478 . S
C3075 H3069 0.930 . S
C3075 C3071 1.400 . S
C3075 C3074 1.385 . S
C3076 C3074 1.478 . S
C3076 C3078 1.381 . S
C3076 C3082 1.383 . S
C3077 C3073 1.495 . S
C3077 H3083 0.959 . S
C3077 H3084 0.961 . S
C3077 H3085 0.960 . S
C3078 C3076 1.381 . S
C3078 C3079 1.394 . S
C3078 H3086 0.930 . S
C3079 C3078 1.394 . S
C3079 C3080 1.383 . S
C3079 H3087 0.929 . S
C3080 C3079 1.383 . S
C3080 C3081 1.377 . S
C3081 H3065 0.930 . S
C3081 C3080 1.377 . S
C3081 C3082 1.379 . S
C3082 H3066 0.931 . S
C3082 C3076 1.383 . S
C3082 C3081 1.379 . S
H3083 C3077 0.959 . S
H3084 C3077 0.961 . S
H3085 C3077 0.960 . S
H3086 C3078 0.930 . S
H3087 C3079 0.929 . S
H3088 C3096 0.929 . S
H3089 C3098 0.930 . S
H3090 C3100 0.930 . S
H3091 C3103 0.929 . S
H3092 C3106 0.930 . S
H3093 C3108 0.960 . S
H3094 C3108 0.960 . S
H3095 C3108 0.960 . S
C3096 H3088 0.929 . S
C3096 C3097 1.377 . S
C3096 C3098 1.384 . S
C3097 C3096 1.377 . S
C3097 C3103 1.390 . S
C3098 H3089 0.930 . S
C3098 C3096 1.384 . S
C3098 C3099 1.372 . S
C3099 C3098 1.372 . S
C3099 C3100 1.400 . S
C3099 C3104 1.490 . S
C3100 H3090 0.930 . S
C3100 C3099 1.400 . S
C3100 C3103 1.386 . S
H3101 C3117 0.930 . S
H3102 C3118 0.931 . S
C3103 H3091 0.929 . S
C3103 C3097 1.390 . S
C3103 C3100 1.386 . S
C3104 C3099 1.490 . S
C3104 C3106 1.395 . S
C3104 C3107 1.403 . S
H3105 C3111 0.930 . S
C3106 H3092 0.930 . S
C3106 C3104 1.395 . S
C3106 C3109 1.403 . S
C3107 C3104 1.403 . S
C3107 C3108 1.524 . S
C3107 C3111 1.400 1_655 S
C3108 H3093 0.960 . S
C3108 H3094 0.960 . S
C3108 H3095 0.960 . S
C3108 C3107 1.524 . S
C3109 C3106 1.403 . S
C3109 C3110 1.392 1_655 S
C3109 C3113 1.495 1_655 S
C3110 C3109 1.392 1_455 S
C3110 C3111 1.385 . S
C3110 C3112 1.478 . S
C3111 H3105 0.930 . S
C3111 C3107 1.400 1_455 S
C3111 C3110 1.385 . S
C3112 C3110 1.478 . S
C3112 C3114 1.381 . S
C3112 C3118 1.383 . S
C3113 C3109 1.495 1_455 S
C3113 H3119 0.959 1_455 S
C3113 H3120 0.961 . S
C3113 H3121 0.960 . S
C3114 C3112 1.381 . S
C3114 C3115 1.394 . S
C3114 H3122 0.930 . S
C3115 C3114 1.394 . S
C3115 C3116 1.383 . S
C3115 H3123 0.929 . S
C3116 C3115 1.383 . S
C3116 C3117 1.377 . S
C3117 H3101 0.930 . S
C3117 C3116 1.377 . S
C3117 C3118 1.379 . S
C3118 H3102 0.931 . S
C3118 C3112 1.383 . S
C3118 C3117 1.379 . S
H3119 C3113 0.959 1_655 S
H3120 C3113 0.961 . S
H3121 C3113 0.960 . S
H3122 C3114 0.930 . S
H3123 C3115 0.929 . S
H3124 C3132 0.929 1_455 S
H3125 C3134 0.930 . S
H3126 C3136 0.930 . S
H3127 C3139 0.929 1_455 S
H3128 C3142 0.930 . S
H3129 C3144 0.960 . S
H3130 C3144 0.960 . S
H3131 C3144 0.960 . S
C3132 H3124 0.929 1_655 S
C3132 C3133 1.377 1_655 S
C3132 C3134 1.384 . S
C3133 C3132 1.377 1_455 S
C3133 C3139 1.390 1_455 S
C3134 H3125 0.930 . S
C3134 C3132 1.384 . S
C3134 C3135 1.372 . S
C3135 C3134 1.372 . S
C3135 C3136 1.400 . S
C3135 C3140 1.490 . S
C3136 H3126 0.930 . S
C3136 C3135 1.400 . S
C3136 C3139 1.386 . S
H3137 C3153 0.930 . S
H3138 C3154 0.931 . S
C3139 H3127 0.929 1_655 S
C3139 C3133 1.390 1_655 S
C3139 C3136 1.386 . S
C3140 C3135 1.490 . S
C3140 C3142 1.395 . S
C3140 C3143 1.403 . S
H3141 C3147 0.930 . S
C3142 H3128 0.930 . S
C3142 C3140 1.395 . S
C3142 C3145 1.403 . S
C3143 C3140 1.403 . S
C3143 C3144 1.524 . S
C3143 C3147 1.400 . S
C3144 H3129 0.960 . S
C3144 H3130 0.960 . S
C3144 H3131 0.960 . S
C3144 C3143 1.524 . S
C3145 C3142 1.403 . S
C3145 C3146 1.392 . S
C3145 C3149 1.495 . S
C3146 C3145 1.392 . S
C3146 C3147 1.385 . S
C3146 C3148 1.478 . S
C3147 H3141 0.930 . S
C3147 C3143 1.400 . S
C3147 C3146 1.385 . S
C3148 C3146 1.478 . S
C3148 C3150 1.381 . S
C3148 C3154 1.383 . S
C3149 C3145 1.495 . S
C3149 H3155 0.959 . S
C3149 H3156 0.961 . S
C3149 H3157 0.960 . S
C3150 C3148 1.381 . S
C3150 C3151 1.394 . S
C3150 H3158 0.930 . S
C3151 C3150 1.394 . S
C3151 C3152 1.383 . S
C3151 H3159 0.929 . S
C3152 C3151 1.383 . S
C3152 C3153 1.377 . S
C3153 H3137 0.930 . S
C3153 C3152 1.377 . S
C3153 C3154 1.379 . S
C3154 H3138 0.931 . S
C3154 C3148 1.383 . S
C3154 C3153 1.379 . S
H3155 C3149 0.959 . S
H3156 C3149 0.961 . S
H3157 C3149 0.960 . S
H3158 C3150 0.930 . S
H3159 C3151 0.929 . S
H3160 C3168 0.929 . S
H3161 C3170 0.930 . S
H3162 C3172 0.930 . S
H3163 C3175 0.929 . S
H3164 C3178 0.930 . S
H3165 C3180 0.960 1_655 S
H3166 C3180 0.960 . S
H3167 C3180 0.960 . S
C3168 H3160 0.929 . S
C3168 C3169 1.377 . S
C3168 C3170 1.384 . S
C3169 C3168 1.377 . S
C3169 C3175 1.390 . S
C3170 H3161 0.930 . S
C3170 C3168 1.384 . S
C3170 C3171 1.372 . S
C3171 C3170 1.372 . S
C3171 C3172 1.400 . S
C3171 C3176 1.490 . S
C3172 H3162 0.930 . S
C3172 C3171 1.400 . S
C3172 C3175 1.386 . S
H3173 C3189 0.930 . S
H3174 C3190 0.931 . S
C3175 H3163 0.929 . S
C3175 C3169 1.390 . S
C3175 C3172 1.386 . S
C3176 C3171 1.490 . S
C3176 C3178 1.395 . S
C3176 C3179 1.403 1_455 S
H3177 C3183 0.930 . S
C3178 H3164 0.930 . S
C3178 C3176 1.395 . S
C3178 C3181 1.403 1_455 S
C3179 C3176 1.403 1_655 S
C3179 C3180 1.524 1_655 S
C3179 C3183 1.400 . S
C3180 H3165 0.960 1_455 S
C3180 H3166 0.960 . S
C3180 H3167 0.960 . S
C3180 C3179 1.524 1_455 S
C3181 C3178 1.403 1_655 S
C3181 C3182 1.392 . S
C3181 C3185 1.495 . S
C3182 C3181 1.392 . S
C3182 C3183 1.385 . S
C3182 C3184 1.478 . S
C3183 H3177 0.930 . S
C3183 C3179 1.400 . S
C3183 C3182 1.385 . S
C3184 C3182 1.478 . S
C3184 C3186 1.381 . S
C3184 C3190 1.383 . S
C3185 C3181 1.495 . S
C3185 H3191 0.959 . S
C3185 H3192 0.961 . S
C3185 H3193 0.960 . S
C3186 C3184 1.381 . S
C3186 C3187 1.394 . S
C3186 H3194 0.930 . S
C3187 C3186 1.394 . S
C3187 C3188 1.383 . S
C3187 H3195 0.929 . S
C3188 C3187 1.383 . S
C3188 C3189 1.377 . S
C3189 H3173 0.930 . S
C3189 C3188 1.377 . S
C3189 C3190 1.379 . S
C3190 H3174 0.931 . S
C3190 C3184 1.383 . S
C3190 C3189 1.379 . S
H3191 C3185 0.959 . S
H3192 C3185 0.961 . S
H3193 C3185 0.960 . S
H3194 C3186 0.930 . S
H3195 C3187 0.929 . S
H3196 C3204 0.929 1_455 S
H3197 C3206 0.930 . S
H3198 C3208 0.930 . S
H3199 C3211 0.929 1_455 S
H3200 C3214 0.930 . S
H3201 C3216 0.960 . S
H3202 C3216 0.960 . S
H3203 C3216 0.960 . S
C3204 H3196 0.929 1_655 S
C3204 C3205 1.377 1_655 S
C3204 C3206 1.384 . S
C3205 C3204 1.377 1_455 S
C3205 C3211 1.390 1_455 S
C3206 H3197 0.930 . S
C3206 C3204 1.384 . S
C3206 C3207 1.372 . S
C3207 C3206 1.372 . S
C3207 C3208 1.400 . S
C3207 C3212 1.490 . S
C3208 H3198 0.930 . S
C3208 C3207 1.400 . S
C3208 C3211 1.386 . S
H3209 C3225 0.930 . S
H3210 C3226 0.931 . S
C3211 H3199 0.929 1_655 S
C3211 C3205 1.390 1_655 S
C3211 C3208 1.386 . S
C3212 C3207 1.490 . S
C3212 C3214 1.395 . S
C3212 C3215 1.403 . S
H3213 C3219 0.930 . S
C3214 H3200 0.930 . S
C3214 C3212 1.395 . S
C3214 C3217 1.403 . S
C3215 C3212 1.403 . S
C3215 C3216 1.524 . S
C3215 C3219 1.400 . S
C3216 H3201 0.960 . S
C3216 H3202 0.960 . S
C3216 H3203 0.960 . S
C3216 C3215 1.524 . S
C3217 C3214 1.403 . S
C3217 C3218 1.392 . S
C3217 C3221 1.495 . S
C3218 C3217 1.392 . S
C3218 C3219 1.385 . S
C3218 C3220 1.478 . S
C3219 H3213 0.930 . S
C3219 C3215 1.400 . S
C3219 C3218 1.385 . S
C3220 C3218 1.478 . S
C3220 C3222 1.381 . S
C3220 C3226 1.383 . S
C3221 C3217 1.495 . S
C3221 H3227 0.959 . S
C3221 H3228 0.961 . S
C3221 H3229 0.960 . S
C3222 C3220 1.381 . S
C3222 C3223 1.394 . S
C3222 H3230 0.930 . S
C3223 C3222 1.394 . S
C3223 C3224 1.383 . S
C3223 H3231 0.929 . S
C3224 C3223 1.383 . S
C3224 C3225 1.377 . S
C3225 H3209 0.930 . S
C3225 C3224 1.377 . S
C3225 C3226 1.379 . S
C3226 H3210 0.931 . S
C3226 C3220 1.383 . S
C3226 C3225 1.379 . S
H3227 C3221 0.959 . S
H3228 C3221 0.961 . S
H3229 C3221 0.960 . S
H3230 C3222 0.930 . S
H3231 C3223 0.929 . S
H3232 C3240 0.929 . S
H3233 C3242 0.930 . S
H3234 C3244 0.928 . S
H3235 C3247 0.929 . S
H3236 C3250 0.930 . S
H3237 C3252 0.960 1_455 S
H3238 C3252 0.960 . S
H3239 C3252 0.960 . S
C3240 H3232 0.929 . S
C3240 C3241 1.377 . S
C3240 C3242 1.384 . S
C3241 C3240 1.377 . S
C3241 C3247 1.396 . S
C3242 H3233 0.930 . S
C3242 C3240 1.384 . S
C3242 C3243 1.372 1_545 S
C3243 C3242 1.372 1_565 S
C3243 C3244 1.400 . S
C3243 C3248 1.490 . S
C3244 H3234 0.928 . S
C3244 C3243 1.400 . S
C3244 C3247 1.383 1_565 S
H3245 C3261 0.930 . S
H3246 C3262 0.931 . S
C3247 H3235 0.929 . S
C3247 C3241 1.396 . S
C3247 C3244 1.383 1_545 S
C3248 C3243 1.490 . S
C3248 C3250 1.395 . S
C3248 C3251 1.403 1_665 S
H3249 C3255 0.930 . S
C3250 H3236 0.930 . S
C3250 C3248 1.395 . S
C3250 C3253 1.403 1_655 S
C3251 C3248 1.403 1_445 S
C3251 C3252 1.524 1_455 S
C3251 C3255 1.400 . S
C3252 H3237 0.960 1_655 S
C3252 H3238 0.960 . S
C3252 H3239 0.960 . S
C3252 C3251 1.524 1_655 S
C3253 C3250 1.403 1_455 S
C3253 C3254 1.392 . S
C3253 C3257 1.495 . S
C3254 C3253 1.392 . S
C3254 C3255 1.385 1_565 S
C3254 C3256 1.478 . S
C3255 H3249 0.930 . S
C3255 C3251 1.400 . S
C3255 C3254 1.385 1_545 S
C3256 C3254 1.478 . S
C3256 C3258 1.381 . S
C3256 C3262 1.383 . S
C3257 C3253 1.495 . S
C3257 H3263 0.959 . S
C3257 H3264 0.961 . S
C3257 H3265 0.960 . S
C3258 C3256 1.381 . S
C3258 C3259 1.394 . S
C3258 H3266 0.930 . S
C3259 C3258 1.394 . S
C3259 C3260 1.383 . S
C3259 H3267 0.929 . S
C3260 C3259 1.383 . S
C3260 C3261 1.377 . S
C3261 H3245 0.930 . S
C3261 C3260 1.377 . S
C3261 C3262 1.379 . S
C3262 H3246 0.931 . S
C3262 C3256 1.383 . S
C3262 C3261 1.379 . S
H3263 C3257 0.959 . S
H3264 C3257 0.961 . S
H3265 C3257 0.960 . S
H3266 C3258 0.930 . S
H3267 C3259 0.929 . S
H3268 C3276 0.929 1_655 S
H3269 C3278 0.930 . S
H3270 C3280 0.930 . S
H3271 C3283 0.929 1_655 S
H3272 C3286 0.930 . S
H3273 C3288 0.960 . S
H3274 C3288 0.960 . S
H3275 C3288 0.960 . S
C3276 H3268 0.929 1_455 S
C3276 C3277 1.377 1_455 S
C3276 C3278 1.384 . S
C3277 C3276 1.377 1_655 S
C3277 C3283 1.390 1_655 S
C3278 H3269 0.930 . S
C3278 C3276 1.384 . S
C3278 C3279 1.372 . S
C3279 C3278 1.372 . S
C3279 C3280 1.400 . S
C3279 C3284 1.490 . S
C3280 H3270 0.930 . S
C3280 C3279 1.400 . S
C3280 C3283 1.386 . S
H3281 C3297 0.930 . S
H3282 C3298 0.931 . S
C3283 H3271 0.929 1_455 S
C3283 C3277 1.390 1_455 S
C3283 C3280 1.386 . S
C3284 C3279 1.490 . S
C3284 C3286 1.395 . S
C3284 C3287 1.403 . S
H3285 C3291 0.930 . S
C3286 H3272 0.930 . S
C3286 C3284 1.395 . S
C3286 C3289 1.403 . S
C3287 C3284 1.403 . S
C3287 C3288 1.524 . S
C3287 C3291 1.400 . S
C3288 H3273 0.960 . S
C3288 H3274 0.960 . S
C3288 H3275 0.960 . S
C3288 C3287 1.524 . S
C3289 C3286 1.403 . S
C3289 C3290 1.392 . S
C3289 C3293 1.495 . S
C3290 C3289 1.392 . S
C3290 C3291 1.385 . S
C3290 C3292 1.478 . S
C3291 H3285 0.930 . S
C3291 C3287 1.400 . S
C3291 C3290 1.385 . S
C3292 C3290 1.478 . S
C3292 C3294 1.381 . S
C3292 C3298 1.383 . S
C3293 C3289 1.495 . S
C3293 H3299 0.959 . S
C3293 H3300 0.961 . S
C3293 H3301 0.960 . S
C3294 C3292 1.381 . S
C3294 C3295 1.394 . S
C3294 H3302 0.930 . S
C3295 C3294 1.394 . S
C3295 C3296 1.383 . S
C3295 H3303 0.929 . S
C3296 C3295 1.383 . S
C3296 C3297 1.377 . S
C3297 H3281 0.930 . S
C3297 C3296 1.377 . S
C3297 C3298 1.379 . S
C3298 H3282 0.931 . S
C3298 C3292 1.383 . S
C3298 C3297 1.379 . S
H3299 C3293 0.959 . S
H3300 C3293 0.961 . S
H3301 C3293 0.960 . S
H3302 C3294 0.930 . S
H3303 C3295 0.929 . S
H3304 C3312 0.929 . S
H3305 C3314 0.930 . S
H3306 C3316 0.930 . S
H3307 C3319 0.929 . S
H3308 C3322 0.930 1_655 S
H3309 C3324 0.960 1_455 S
H3310 C3324 0.960 . S
H3311 C3324 0.960 . S
C3312 H3304 0.929 . S
C3312 C3313 1.377 . S
C3312 C3314 1.384 . S
C3313 C3312 1.377 . S
C3313 C3319 1.390 . S
C3314 H3305 0.930 . S
C3314 C3312 1.384 . S
C3314 C3315 1.372 . S
C3315 C3314 1.372 . S
C3315 C3316 1.400 . S
C3315 C3320 1.490 . S
C3316 H3306 0.930 . S
C3316 C3315 1.400 . S
C3316 C3319 1.386 . S
H3317 C3333 0.930 . S
H3318 C3334 0.931 . S
C3319 H3307 0.929 . S
C3319 C3313 1.390 . S
C3319 C3316 1.386 . S
C3320 C3315 1.490 . S
C3320 C3322 1.395 1_655 S
C3320 C3323 1.403 1_655 S
H3321 C3327 0.930 . S
C3322 H3308 0.930 1_455 S
C3322 C3320 1.395 1_455 S
C3322 C3325 1.403 . S
C3323 C3320 1.403 1_455 S
C3323 C3324 1.524 1_455 S
C3323 C3327 1.400 . S
C3324 H3309 0.960 1_655 S
C3324 H3310 0.960 . S
C3324 H3311 0.960 . S
C3324 C3323 1.524 1_655 S
C3325 C3322 1.403 . S
C3325 C3326 1.392 . S
C3325 C3329 1.495 . S
C3326 C3325 1.392 . S
C3326 C3327 1.385 . S
C3326 C3328 1.478 . S
C3327 H3321 0.930 . S
C3327 C3323 1.400 . S
C3327 C3326 1.385 . S
C3328 C3326 1.478 . S
C3328 C3330 1.381 . S
C3328 C3334 1.383 . S
C3329 C3325 1.495 . S
C3329 H3335 0.959 . S
C3329 H3336 0.961 . S
C3329 H3337 0.960 . S
C3330 C3328 1.381 . S
C3330 C3331 1.394 . S
C3330 H3338 0.930 . S
C3331 C3330 1.394 . S
C3331 C3332 1.383 . S
C3331 H3339 0.929 . S
C3332 C3331 1.383 . S
C3332 C3333 1.377 . S
C3333 H3317 0.930 . S
C3333 C3332 1.377 . S
C3333 C3334 1.379 . S
C3334 H3318 0.931 . S
C3334 C3328 1.383 . S
C3334 C3333 1.379 . S
H3335 C3329 0.959 . S
H3336 C3329 0.961 . S
H3337 C3329 0.960 . S
H3338 C3330 0.930 . S
H3339 C3331 0.929 . S
H3340 C3348 0.929 . S
H3341 C3350 0.930 . S
H3342 C3352 0.930 . S
H3343 C3355 0.929 . S
H3344 C3358 0.930 . S
H3345 C3360 0.960 . S
H3346 C3360 0.960 . S
H3347 C3360 0.960 . S
C3348 H3340 0.929 . S
C3348 C3349 1.377 . S
C3348 C3350 1.384 . S
C3349 C3348 1.377 . S
C3349 C3355 1.390 1_545 S
C3350 H3341 0.930 . S
C3350 C3348 1.384 . S
C3350 C3351 1.383 . S
C3351 C3350 1.383 . S
C3351 C3352 1.389 1_545 S
C3351 C3356 1.489 1_545 S
C3352 H3342 0.930 . S
C3352 C3351 1.389 1_565 S
C3352 C3355 1.386 . S
H3353 C3369 0.930 1_655 S
H3354 C3370 0.931 . S
C3355 H3343 0.929 . S
C3355 C3349 1.390 1_565 S
C3355 C3352 1.386 . S
C3356 C3351 1.489 1_565 S
C3356 C3358 1.379 1_565 S
C3356 C3359 1.419 . S
H3357 C3363 0.930 . S
C3358 H3344 0.930 . S
C3358 C3356 1.379 1_545 S
C3358 C3361 1.403 . S
C3359 C3356 1.419 . S
C3359 C3360 1.524 . S
C3359 C3363 1.400 . S
C3360 H3345 0.960 . S
C3360 H3346 0.960 . S
C3360 H3347 0.960 . S
C3360 C3359 1.524 . S
C3361 C3358 1.403 . S
C3361 C3362 1.365 1_545 S
C3361 C3365 1.495 . S
C3362 C3361 1.365 1_565 S
C3362 C3363 1.412 . S
C3362 C3364 1.480 . S
C3363 H3357 0.930 . S
C3363 C3359 1.400 . S
C3363 C3362 1.412 . S
C3364 C3362 1.480 . S
C3364 C3366 1.381 1_565 S
C3364 C3370 1.383 . S
C3365 C3361 1.495 . S
C3365 H3371 0.959 . S
C3365 H3372 0.961 . S
C3365 H3373 0.960 . S
C3366 C3364 1.381 1_545 S
C3366 C3367 1.394 . S
C3366 H3374 0.930 . S
C3367 C3366 1.394 . S
C3367 C3368 1.383 1_445 S
C3367 H3375 0.929 1_455 S
C3368 C3367 1.383 1_665 S
C3368 C3369 1.377 1_655 S
C3369 H3353 0.930 1_455 S
C3369 C3368 1.377 1_455 S
C3369 C3370 1.379 . S
C3370 H3354 0.931 . S
C3370 C3364 1.383 . S
C3370 C3369 1.379 . S
H3371 C3365 0.959 . S
H3372 C3365 0.961 . S
H3373 C3365 0.960 . S
H3374 C3366 0.930 . S
H3375 C3367 0.929 1_655 S
H3376 C3384 0.929 . S
H3377 C3386 0.930 . S
H3378 C3388 0.930 . S
H3379 C3391 0.929 . S
H3380 C3394 0.930 . S
H3381 C3396 0.960 . S
H3382 C3396 0.960 . S
H3383 C3396 0.960 1_545 S
C3384 H3376 0.929 . S
C3384 C3385 1.377 1_565 S
C3384 C3386 1.384 . S
C3385 C3384 1.377 1_545 S
C3385 C3391 1.390 . S
C3386 H3377 0.930 . S
C3386 C3384 1.384 . S
C3386 C3387 1.372 1_565 S
C3387 C3386 1.372 1_545 S
C3387 C3388 1.400 . S
C3387 C3392 1.490 . S
C3388 H3378 0.930 . S
C3388 C3387 1.400 . S
C3388 C3391 1.386 . S
H3389 C3405 0.930 . S
H3390 C3406 0.931 . S
C3391 H3379 0.929 . S
C3391 C3385 1.390 . S
C3391 C3388 1.386 . S
C3392 C3387 1.490 . S
C3392 C3394 1.395 . S
C3392 C3395 1.403 . S
H3393 C3399 0.938 . S
C3394 H3380 0.930 . S
C3394 C3392 1.395 . S
C3394 C3397 1.403 . S
C3395 C3392 1.403 . S
C3395 C3396 1.524 1_545 S
C3395 C3399 1.392 1_645 S
C3396 H3381 0.960 . S
C3396 H3382 0.960 . S
C3396 H3383 0.960 1_565 S
C3396 C3395 1.524 1_565 S
C3397 C3394 1.403 . S
C3397 C3398 1.392 1_655 S
C3397 C3401 1.495 1_655 S
C3398 C3397 1.392 1_455 S
C3398 C3399 1.386 1_545 S
C3398 C3400 1.481 . S
C3399 H3393 0.938 . S
C3399 C3395 1.392 1_465 S
C3399 C3398 1.386 1_565 S
C3400 C3398 1.481 . S
C3400 C3402 1.340 1_545 S
C3400 C3406 1.421 . S
C3401 C3397 1.495 1_455 S
C3401 H3407 0.959 1_455 S
C3401 H3408 0.961 . S
C3401 H3409 0.960 1_545 S
C3402 C3400 1.340 1_565 S
C3402 C3403 1.394 . S
C3402 H3410 0.930 . S
C3403 C3402 1.394 . S
C3403 C3404 1.383 . S
C3403 H3411 0.929 . S
C3404 C3403 1.383 . S
C3404 C3405 1.377 1_565 S
C3405 H3389 0.930 . S
C3405 C3404 1.377 1_545 S
C3405 C3406 1.379 . S
C3406 H3390 0.931 . S
C3406 C3400 1.421 . S
C3406 C3405 1.379 . S
H3407 C3401 0.959 1_655 S
H3408 C3401 0.961 . S
H3409 C3401 0.960 1_565 S
H3410 C3402 0.930 . S
H3411 C3403 0.929 . S
H3412 C3420 0.929 1_455 S
H3413 C3422 0.930 . S
H3414 C3424 0.930 . S
H3415 C3427 0.929 1_455 S
H3416 C3430 0.930 . S
H3417 C3432 0.960 . S
H3418 C3432 0.960 . S
H3419 C3432 0.960 . S
C3420 H3412 0.929 1_655 S
C3420 C3421 1.377 1_655 S
C3420 C3422 1.384 . S
C3421 C3420 1.377 1_455 S
C3421 C3427 1.390 1_455 S
C3422 H3413 0.930 . S
C3422 C3420 1.384 . S
C3422 C3423 1.372 . S
C3423 C3422 1.372 . S
C3423 C3424 1.400 . S
C3423 C3428 1.490 . S
C3424 H3414 0.930 . S
C3424 C3423 1.400 . S
C3424 C3427 1.386 . S
H3425 C3441 0.930 . S
H3426 C3442 0.931 . S
C3427 H3415 0.929 1_655 S
C3427 C3421 1.390 1_655 S
C3427 C3424 1.386 . S
C3428 C3423 1.490 . S
C3428 C3430 1.395 . S
C3428 C3431 1.403 . S
H3429 C3435 0.930 . S
C3430 H3416 0.930 . S
C3430 C3428 1.395 . S
C3430 C3433 1.403 . S
C3431 C3428 1.403 . S
C3431 C3432 1.524 . S
C3431 C3435 1.400 . S
C3432 H3417 0.960 . S
C3432 H3418 0.960 . S
C3432 H3419 0.960 . S
C3432 C3431 1.524 . S
C3433 C3430 1.403 . S
C3433 C3434 1.392 . S
C3433 C3437 1.495 . S
C3434 C3433 1.392 . S
C3434 C3435 1.385 . S
C3434 C3436 1.478 . S
C3435 H3429 0.930 . S
C3435 C3431 1.400 . S
C3435 C3434 1.385 . S
C3436 C3434 1.478 . S
C3436 C3438 1.381 . S
C3436 C3442 1.383 . S
C3437 C3433 1.495 . S
C3437 H3443 0.959 . S
C3437 H3444 0.961 . S
C3437 H3445 0.960 . S
C3438 C3436 1.381 . S
C3438 C3439 1.394 . S
C3438 H3446 0.930 . S
C3439 C3438 1.394 . S
C3439 C3440 1.383 . S
C3439 H3447 0.929 . S
C3440 C3439 1.383 . S
C3440 C3441 1.377 . S
C3441 H3425 0.930 . S
C3441 C3440 1.377 . S
C3441 C3442 1.379 . S
C3442 H3426 0.931 . S
C3442 C3436 1.383 . S
C3442 C3441 1.379 . S
H3443 C3437 0.959 . S
H3444 C3437 0.961 . S
H3445 C3437 0.960 . S
H3446 C3438 0.930 . S
H3447 C3439 0.929 . S
H3448 C3456 0.929 . S
H3449 C3458 0.930 . S
H3450 C3460 0.930 . S
H3451 C3463 0.929 . S
H3452 C3466 0.930 1_455 S
H3453 C3468 0.960 1_655 S
H3454 C3468 0.960 . S
H3455 C3468 0.960 . S
C3456 H3448 0.929 . S
C3456 C3457 1.377 . S
C3456 C3458 1.384 . S
C3457 C3456 1.377 . S
C3457 C3463 1.390 . S
C3458 H3449 0.930 . S
C3458 C3456 1.384 . S
C3458 C3459 1.372 . S
C3459 C3458 1.372 . S
C3459 C3460 1.400 . S
C3459 C3464 1.490 . S
C3460 H3450 0.930 . S
C3460 C3459 1.400 . S
C3460 C3463 1.386 . S
H3461 C3477 0.930 . S
H3462 C3478 0.931 . S
C3463 H3451 0.929 . S
C3463 C3457 1.390 . S
C3463 C3460 1.386 . S
C3464 C3459 1.490 . S
C3464 C3466 1.395 1_455 S
C3464 C3467 1.403 1_455 S
H3465 C3471 0.930 . S
C3466 H3452 0.930 1_655 S
C3466 C3464 1.395 1_655 S
C3466 C3469 1.403 . S
C3467 C3464 1.403 1_655 S
C3467 C3468 1.524 1_655 S
C3467 C3471 1.400 . S
C3468 H3453 0.960 1_455 S
C3468 H3454 0.960 . S
C3468 H3455 0.960 . S
C3468 C3467 1.524 1_455 S
C3469 C3466 1.403 . S
C3469 C3470 1.392 . S
C3469 C3473 1.495 . S
C3470 C3469 1.392 . S
C3470 C3471 1.385 . S
C3470 C3472 1.478 . S
C3471 H3465 0.930 . S
C3471 C3467 1.400 . S
C3471 C3470 1.385 . S
C3472 C3470 1.478 . S
C3472 C3474 1.381 . S
C3472 C3478 1.383 . S
C3473 C3469 1.495 . S
C3473 H3479 0.959 . S
C3473 H3480 0.961 . S
C3473 H3481 0.960 . S
C3474 C3472 1.381 . S
C3474 C3475 1.394 . S
C3474 H3482 0.930 . S
C3475 C3474 1.394 . S
C3475 C3476 1.383 . S
C3475 H3483 0.929 . S
C3476 C3475 1.383 . S
C3476 C3477 1.377 . S
C3477 H3461 0.930 . S
C3477 C3476 1.377 . S
C3477 C3478 1.379 . S
C3478 H3462 0.931 . S
C3478 C3472 1.383 . S
C3478 C3477 1.379 . S
H3479 C3473 0.959 . S
H3480 C3473 0.961 . S
H3481 C3473 0.960 . S
H3482 C3474 0.930 . S
H3483 C3475 0.929 . S
H3484 C3492 0.929 . S
H3485 C3494 0.930 . S
H3486 C3496 0.930 . S
H3487 C3499 0.929 . S
H3488 C3502 0.930 . S
H3489 C3504 0.960 . S
H3490 C3504 0.960 . S
H3491 C3504 0.960 . S
C3492 H3484 0.929 . S
C3492 C3493 1.377 1_545 S
C3492 C3494 1.384 . S
C3493 C3492 1.377 1_565 S
C3493 C3499 1.390 . S
C3494 H3485 0.930 . S
C3494 C3492 1.384 . S
C3494 C3495 1.422 . S
C3495 C3494 1.422 . S
C3495 C3496 1.344 1_545 S
C3495 C3500 1.498 . S
C3496 H3486 0.930 . S
C3496 C3495 1.344 1_565 S
C3496 C3499 1.386 . S
H3497 C3513 0.930 1_455 S
H3498 C3514 0.931 . S
C3499 H3487 0.929 . S
C3499 C3493 1.390 . S
C3499 C3496 1.386 . S
C3500 C3495 1.498 . S
C3500 C3502 1.395 . S
C3500 C3503 1.403 1_545 S
H3501 C3507 0.930 . S
C3502 H3488 0.930 . S
C3502 C3500 1.395 . S
C3502 C3505 1.403 . S
C3503 C3500 1.403 1_565 S
C3503 C3504 1.524 . S
C3503 C3507 1.400 . S
C3504 H3489 0.960 . S
C3504 H3490 0.960 . S
C3504 H3491 0.960 . S
C3504 C3503 1.524 . S
C3505 C3502 1.403 . S
C3505 C3506 1.392 . S
C3505 C3509 1.495 . S
C3506 C3505 1.392 . S
C3506 C3507 1.385 1_545 S
C3506 C3508 1.478 . S
C3507 H3501 0.930 . S
C3507 C3503 1.400 . S
C3507 C3506 1.385 1_565 S
C3508 C3506 1.478 . S
C3508 C3510 1.381 . S
C3508 C3514 1.383 1_545 S
C3509 C3505 1.495 . S
C3509 H3515 0.959 . S
C3509 H3516 0.961 . S
C3509 H3517 0.960 . S
C3510 C3508 1.381 . S
C3510 C3511 1.394 . S
C3510 H3518 0.930 . S
C3511 C3510 1.394 . S
C3511 C3512 1.383 1_655 S
C3511 H3519 0.929 1_655 S
C3512 C3511 1.383 1_455 S
C3512 C3513 1.377 1_445 S
C3513 H3497 0.930 1_655 S
C3513 C3512 1.377 1_665 S
C3513 C3514 1.379 . S
C3514 H3498 0.931 . S
C3514 C3508 1.383 1_565 S
C3514 C3513 1.379 . S
H3515 C3509 0.959 . S
H3516 C3509 0.961 . S
H3517 C3509 0.960 . S
H3518 C3510 0.930 . S
H3519 C3511 0.929 1_455 S
H3520 C3528 0.929 . S
H3521 C3530 0.930 . S
H3522 C3532 0.930 . S
H3523 C3535 0.929 . S
H3524 C3538 0.930 . S
H3525 C3540 0.960 . S
H3526 C3540 0.960 . S
H3527 C3540 0.960 . S
C3528 H3520 0.929 . S
C3528 C3529 1.377 . S
C3528 C3530 1.384 . S
C3529 C3528 1.377 . S
C3529 C3535 1.390 1_455 S
C3530 H3521 0.930 . S
C3530 C3528 1.384 . S
C3530 C3531 1.372 . S
C3531 C3530 1.372 . S
C3531 C3532 1.400 1_455 S
C3531 C3536 1.490 . S
C3532 H3522 0.930 . S
C3532 C3531 1.400 1_655 S
C3532 C3535 1.386 . S
H3533 C3549 0.930 . S
H3534 C3550 0.931 . S
C3535 H3523 0.929 . S
C3535 C3529 1.390 1_655 S
C3535 C3532 1.386 . S
C3536 C3531 1.490 . S
C3536 C3538 1.395 . S
C3536 C3539 1.403 1_455 S
H3537 C3543 0.930 . S
C3538 H3524 0.930 . S
C3538 C3536 1.395 . S
C3538 C3541 1.403 1_554 S
C3539 C3536 1.403 1_655 S
C3539 C3540 1.524 . S
C3539 C3543 1.400 1_554 S
C3540 H3525 0.960 . S
C3540 H3526 0.960 . S
C3540 H3527 0.960 . S
C3540 C3539 1.524 . S
C3541 C3538 1.403 1_556 S
C3541 C3542 1.392 . S
C3541 C3545 1.495 . S
C3542 C3541 1.392 . S
C3542 C3543 1.385 1_455 S
C3542 C3544 1.478 . S
C3543 H3537 0.930 . S
C3543 C3539 1.400 1_556 S
C3543 C3542 1.385 1_655 S
C3544 C3542 1.478 . S
C3544 C3546 1.381 . S
C3544 C3550 1.383 1_455 S
C3545 C3541 1.495 . S
C3545 H3551 0.959 . S
C3545 H3552 0.961 . S
C3545 H3553 0.960 . S
C3546 C3544 1.381 . S
C3546 C3547 1.394 . S
C3546 H3554 0.930 . S
C3547 C3546 1.394 . S
C3547 C3548 1.383 1_455 S
C3547 H3555 0.929 . S
C3548 C3547 1.383 1_655 S
C3548 C3549 1.377 . S
C3549 H3533 0.930 . S
C3549 C3548 1.377 . S
C3549 C3550 1.379 . S
C3550 H3534 0.931 . S
C3550 C3544 1.383 1_655 S
C3550 C3549 1.379 . S
H3551 C3545 0.959 . S
H3552 C3545 0.961 . S
H3553 C3545 0.960 . S
H3554 C3546 0.930 . S
H3555 C3547 0.929 . S
H3556 C3564 0.929 . S
H3557 C3566 0.930 . S
H3558 C3568 0.930 . S
H3559 C3571 0.929 . S
H3560 C3574 0.930 . S
H3561 C3576 0.960 . S
H3562 C3576 0.960 . S
H3563 C3576 0.960 . S
C3564 H3556 0.929 . S
C3564 C3565 1.377 . S
C3564 C3566 1.384 . S
C3565 C3564 1.377 . S
C3565 C3571 1.390 . S
C3566 H3557 0.930 . S
C3566 C3564 1.384 . S
C3566 C3567 1.372 . S
C3567 C3566 1.372 . S
C3567 C3568 1.400 . S
C3567 C3572 1.490 . S
C3568 H3558 0.930 . S
C3568 C3567 1.400 . S
C3568 C3571 1.386 . S
H3569 C3585 0.930 . S
H3570 C3586 0.931 . S
C3571 H3559 0.929 . S
C3571 C3565 1.390 . S
C3571 C3568 1.386 . S
C3572 C3567 1.490 . S
C3572 C3574 1.395 . S
C3572 C3575 1.403 . S
H3573 C3579 0.930 . S
C3574 H3560 0.930 . S
C3574 C3572 1.395 . S
C3574 C3577 1.403 1_556 S
C3575 C3572 1.403 . S
C3575 C3576 1.524 . S
C3575 C3579 1.400 1_556 S
C3576 H3561 0.960 . S
C3576 H3562 0.960 . S
C3576 H3563 0.960 . S
C3576 C3575 1.524 . S
C3577 C3574 1.403 1_554 S
C3577 C3578 1.392 . S
C3577 C3581 1.495 . S
C3578 C3577 1.392 . S
C3578 C3579 1.385 . S
C3578 C3580 1.478 . S
C3579 H3573 0.930 . S
C3579 C3575 1.400 1_554 S
C3579 C3578 1.385 . S
C3580 C3578 1.478 . S
C3580 C3582 1.381 . S
C3580 C3586 1.383 . S
C3581 C3577 1.495 . S
C3581 H3587 0.959 . S
C3581 H3588 0.961 . S
C3581 H3589 0.960 . S
C3582 C3580 1.381 . S
C3582 C3583 1.394 . S
C3582 H3590 0.930 . S
C3583 C3582 1.394 . S
C3583 C3584 1.383 . S
C3583 H3591 0.929 . S
C3584 C3583 1.383 . S
C3584 C3585 1.377 . S
C3585 H3569 0.930 . S
C3585 C3584 1.377 . S
C3585 C3586 1.379 . S
C3586 H3570 0.931 . S
C3586 C3580 1.383 . S
C3586 C3585 1.379 . S
H3587 C3581 0.959 . S
H3588 C3581 0.961 . S
H3589 C3581 0.960 . S
H3590 C3582 0.930 . S
H3591 C3583 0.929 . S
H3592 C3600 0.929 . S
H3593 C3602 0.930 . S
H3594 C3604 0.930 . S
H3595 C3607 0.929 . S
H3596 C3610 0.930 . S
H3597 C3612 0.960 . S
H3598 C3612 0.960 . S
H3599 C3612 0.960 1_455 S
C3600 H3592 0.929 . S
C3600 C3601 1.377 . S
C3600 C3602 1.384 . S
C3601 C3600 1.377 . S
C3601 C3607 1.390 1_655 S
C3602 H3593 0.930 . S
C3602 C3600 1.384 . S
C3602 C3603 1.372 . S
C3603 C3602 1.372 . S
C3603 C3604 1.400 1_655 S
C3603 C3608 1.490 . S
C3604 H3594 0.930 . S
C3604 C3603 1.400 1_455 S
C3604 C3607 1.386 . S
H3605 C3621 0.930 . S
H3606 C3622 0.931 . S
C3607 H3595 0.929 . S
C3607 C3601 1.390 1_455 S
C3607 C3604 1.386 . S
C3608 C3603 1.490 . S
C3608 C3610 1.395 1_655 S
C3608 C3611 1.403 . S
H3609 C3615 0.930 . S
C3610 H3596 0.930 . S
C3610 C3608 1.395 1_455 S
C3610 C3613 1.403 . S
C3611 C3608 1.403 . S
C3611 C3612 1.524 . S
C3611 C3615 1.400 . S
C3612 H3597 0.960 . S
C3612 H3598 0.960 . S
C3612 H3599 0.960 1_655 S
C3612 C3611 1.524 . S
C3613 C3610 1.403 . S
C3613 C3614 1.392 . S
C3613 C3617 1.495 . S
C3614 C3613 1.392 . S
C3614 C3615 1.385 1_455 S
C3614 C3616 1.478 . S
C3615 H3609 0.930 . S
C3615 C3611 1.400 . S
C3615 C3614 1.385 1_655 S
C3616 C3614 1.478 . S
C3616 C3618 1.381 1_455 S
C3616 C3622 1.383 . S
C3617 C3613 1.495 . S
C3617 H3623 0.959 . S
C3617 H3624 0.961 . S
C3617 H3625 0.960 1_455 S
C3618 C3616 1.381 1_655 S
C3618 C3619 1.394 . S
C3618 H3626 0.930 . S
C3619 C3618 1.394 . S
C3619 C3620 1.383 1_655 S
C3619 H3627 0.929 . S
C3620 C3619 1.383 1_455 S
C3620 C3621 1.377 . S
C3621 H3605 0.930 . S
C3621 C3620 1.377 . S
C3621 C3622 1.379 . S
C3622 H3606 0.931 . S
C3622 C3616 1.383 . S
C3622 C3621 1.379 . S
H3623 C3617 0.959 . S
H3624 C3617 0.961 . S
H3625 C3617 0.960 1_655 S
H3626 C3618 0.930 . S
H3627 C3619 0.929 . S
H3628 C3636 0.929 . S
H3629 C3638 0.930 . S
H3630 C3640 0.930 . S
H3631 C3643 0.929 . S
H3632 C3646 0.930 . S
H3633 C3648 0.960 . S
H3634 C3648 0.960 . S
H3635 C3648 0.960 . S
C3636 H3628 0.929 . S
C3636 C3637 1.377 . S
C3636 C3638 1.384 . S
C3637 C3636 1.377 . S
C3637 C3643 1.390 . S
C3638 H3629 0.930 . S
C3638 C3636 1.384 . S
C3638 C3639 1.372 . S
C3639 C3638 1.372 . S
C3639 C3640 1.400 . S
C3639 C3644 1.490 . S
C3640 H3630 0.930 . S
C3640 C3639 1.400 . S
C3640 C3643 1.386 . S
H3641 C3657 0.930 . S
H3642 C3658 0.931 . S
C3643 H3631 0.929 . S
C3643 C3637 1.390 . S
C3643 C3640 1.386 . S
C3644 C3639 1.490 . S
C3644 C3646 1.395 . S
C3644 C3647 1.403 . S
H3645 C3651 0.930 . S
C3646 H3632 0.930 . S
C3646 C3644 1.395 . S
C3646 C3649 1.403 . S
C3647 C3644 1.403 . S
C3647 C3648 1.524 . S
C3647 C3651 1.400 . S
C3648 H3633 0.960 . S
C3648 H3634 0.960 . S
C3648 H3635 0.960 . S
C3648 C3647 1.524 . S
C3649 C3646 1.403 . S
C3649 C3650 1.392 . S
C3649 C3653 1.495 . S
C3650 C3649 1.392 . S
C3650 C3651 1.385 . S
C3650 C3652 1.478 . S
C3651 H3645 0.930 . S
C3651 C3647 1.400 . S
C3651 C3650 1.385 . S
C3652 C3650 1.478 . S
C3652 C3654 1.381 . S
C3652 C3658 1.383 . S
C3653 C3649 1.495 . S
C3653 H3659 0.959 . S
C3653 H3660 0.961 . S
C3653 H3661 0.960 . S
C3654 C3652 1.381 . S
C3654 C3655 1.394 . S
C3654 H3662 0.930 . S
C3655 C3654 1.394 . S
C3655 C3656 1.383 . S
C3655 H3663 0.929 . S
C3656 C3655 1.383 . S
C3656 C3657 1.377 . S
C3657 H3641 0.930 . S
C3657 C3656 1.377 . S
C3657 C3658 1.379 . S
C3658 H3642 0.931 . S
C3658 C3652 1.383 . S
C3658 C3657 1.379 . S
H3659 C3653 0.959 . S
H3660 C3653 0.961 . S
H3661 C3653 0.960 . S
H3662 C3654 0.930 . S
H3663 C3655 0.929 . S
H3664 C3672 0.929 . S
H3665 C3674 0.930 . S
H3666 C3676 0.930 . S
H3667 C3679 0.929 . S
H3668 C3682 0.930 . S
H3669 C3684 0.960 . S
H3670 C3684 0.960 . S
H3671 C3684 0.960 . S
C3672 H3664 0.929 . S
C3672 C3673 1.377 . S
C3672 C3674 1.384 . S
C3673 C3672 1.377 . S
C3673 C3679 1.390 . S
C3674 H3665 0.930 . S
C3674 C3672 1.384 . S
C3674 C3675 1.372 . S
C3675 C3674 1.372 . S
C3675 C3676 1.400 . S
C3675 C3680 1.490 . S
C3676 H3666 0.930 . S
C3676 C3675 1.400 . S
C3676 C3679 1.386 . S
H3677 C3693 0.930 . S
H3678 C3694 0.931 . S
C3679 H3667 0.929 . S
C3679 C3673 1.390 . S
C3679 C3676 1.386 . S
C3680 C3675 1.490 . S
C3680 C3682 1.395 . S
C3680 C3683 1.403 . S
H3681 C3687 0.930 . S
C3682 H3668 0.930 . S
C3682 C3680 1.395 . S
C3682 C3685 1.403 1_556 S
C3683 C3680 1.403 . S
C3683 C3684 1.524 . S
C3683 C3687 1.400 1_556 S
C3684 H3669 0.960 . S
C3684 H3670 0.960 . S
C3684 H3671 0.960 . S
C3684 C3683 1.524 . S
C3685 C3682 1.403 1_554 S
C3685 C3686 1.392 . S
C3685 C3689 1.495 . S
C3686 C3685 1.392 . S
C3686 C3687 1.385 . S
C3686 C3688 1.478 . S
C3687 H3681 0.930 . S
C3687 C3683 1.400 1_554 S
C3687 C3686 1.385 . S
C3688 C3686 1.478 . S
C3688 C3690 1.381 . S
C3688 C3694 1.383 . S
C3689 C3685 1.495 . S
C3689 H3695 0.959 . S
C3689 H3696 0.961 . S
C3689 H3697 0.960 . S
C3690 C3688 1.381 . S
C3690 C3691 1.394 . S
C3690 H3698 0.930 . S
C3691 C3690 1.394 . S
C3691 C3692 1.383 . S
C3691 H3699 0.929 . S
C3692 C3691 1.383 . S
C3692 C3693 1.377 . S
C3693 H3677 0.930 . S
C3693 C3692 1.377 . S
C3693 C3694 1.379 . S
C3694 H3678 0.931 . S
C3694 C3688 1.383 . S
C3694 C3693 1.379 . S
H3695 C3689 0.959 . S
H3696 C3689 0.961 . S
H3697 C3689 0.960 . S
H3698 C3690 0.930 . S
H3699 C3691 0.929 . S
H3700 C3708 0.929 . S
H3701 C3710 0.930 . S
H3702 C3712 0.930 . S
H3703 C3715 0.929 . S
H3704 C3718 0.930 . S
H3705 C3720 0.960 . S
H3706 C3720 0.960 . S
H3707 C3720 0.960 . S
C3708 H3700 0.929 . S
C3708 C3709 1.377 1_455 S
C3708 C3710 1.384 . S
C3709 C3708 1.377 1_655 S
C3709 C3715 1.390 . S
C3710 H3701 0.930 . S
C3710 C3708 1.384 . S
C3710 C3711 1.372 1_455 S
C3711 C3710 1.372 1_655 S
C3711 C3712 1.400 . S
C3711 C3716 1.490 1_655 S
C3712 H3702 0.930 . S
C3712 C3711 1.400 . S
C3712 C3715 1.386 . S
H3713 C3729 0.930 . S
H3714 C3730 0.931 . S
C3715 H3703 0.929 . S
C3715 C3709 1.390 . S
C3715 C3712 1.386 . S
C3716 C3711 1.490 1_455 S
C3716 C3718 1.395 . S
C3716 C3719 1.403 1_455 S
H3717 C3723 0.930 . S
C3718 H3704 0.930 . S
C3718 C3716 1.395 . S
C3718 C3721 1.403 . S
C3719 C3716 1.403 1_655 S
C3719 C3720 1.524 . S
C3719 C3723 1.400 . S
C3720 H3705 0.960 . S
C3720 H3706 0.960 . S
C3720 H3707 0.960 . S
C3720 C3719 1.524 . S
C3721 C3718 1.403 . S
C3721 C3722 1.392 . S
C3721 C3725 1.495 . S
C3722 C3721 1.392 . S
C3722 C3723 1.385 1_455 S
C3722 C3724 1.478 . S
C3723 H3717 0.930 . S
C3723 C3719 1.400 . S
C3723 C3722 1.385 1_655 S
C3724 C3722 1.478 . S
C3724 C3726 1.381 . S
C3724 C3730 1.383 1_455 S
C3725 C3721 1.495 . S
C3725 H3731 0.959 . S
C3725 H3732 0.961 . S
C3725 H3733 0.960 . S
C3726 C3724 1.381 . S
C3726 C3727 1.394 . S
C3726 H3734 0.930 . S
C3727 C3726 1.394 . S
C3727 C3728 1.383 . S
C3727 H3735 0.929 . S
C3728 C3727 1.383 . S
C3728 C3729 1.377 1_455 S
C3729 H3713 0.930 . S
C3729 C3728 1.377 1_655 S
C3729 C3730 1.379 . S
C3730 H3714 0.931 . S
C3730 C3724 1.383 1_655 S
C3730 C3729 1.379 . S
H3731 C3725 0.959 . S
H3732 C3725 0.961 . S
H3733 C3725 0.960 . S
H3734 C3726 0.930 . S
H3735 C3727 0.929 . S
H3736 C3744 0.929 . S
H3737 C3746 0.930 . S
H3738 C3748 0.930 . S
H3739 C3751 0.929 . S
H3740 C3754 0.930 . S
H3741 C3756 0.960 . S
H3742 C3756 0.960 . S
H3743 C3756 0.960 . S
C3744 H3736 0.929 . S
C3744 C3745 1.377 . S
C3744 C3746 1.384 . S
C3745 C3744 1.377 . S
C3745 C3751 1.390 . S
C3746 H3737 0.930 . S
C3746 C3744 1.384 . S
C3746 C3747 1.372 . S
C3747 C3746 1.372 . S
C3747 C3748 1.400 . S
C3747 C3752 1.490 . S
C3748 H3738 0.930 . S
C3748 C3747 1.400 . S
C3748 C3751 1.386 . S
H3749 C3765 0.930 . S
H3750 C3766 0.931 . S
C3751 H3739 0.929 . S
C3751 C3745 1.390 . S
C3751 C3748 1.386 . S
C3752 C3747 1.490 . S
C3752 C3754 1.395 . S
C3752 C3755 1.403 . S
H3753 C3759 0.930 . S
C3754 H3740 0.930 . S
C3754 C3752 1.395 . S
C3754 C3757 1.403 . S
C3755 C3752 1.403 . S
C3755 C3756 1.524 . S
C3755 C3759 1.400 . S
C3756 H3741 0.960 . S
C3756 H3742 0.960 . S
C3756 H3743 0.960 . S
C3756 C3755 1.524 . S
C3757 C3754 1.403 . S
C3757 C3758 1.392 . S
C3757 C3761 1.495 . S
C3758 C3757 1.392 . S
C3758 C3759 1.385 . S
C3758 C3760 1.478 . S
C3759 H3753 0.930 . S
C3759 C3755 1.400 . S
C3759 C3758 1.385 . S
C3760 C3758 1.478 . S
C3760 C3762 1.381 . S
C3760 C3766 1.383 . S
C3761 C3757 1.495 . S
C3761 H3767 0.959 . S
C3761 H3768 0.961 . S
C3761 H3769 0.960 . S
C3762 C3760 1.381 . S
C3762 C3763 1.394 . S
C3762 H3770 0.930 . S
C3763 C3762 1.394 . S
C3763 C3764 1.383 . S
C3763 H3771 0.929 . S
C3764 C3763 1.383 . S
C3764 C3765 1.377 . S
C3765 H3749 0.930 . S
C3765 C3764 1.377 . S
C3765 C3766 1.379 . S
C3766 H3750 0.931 . S
C3766 C3760 1.383 . S
C3766 C3765 1.379 . S
H3767 C3761 0.959 . S
H3768 C3761 0.961 . S
H3769 C3761 0.960 . S
H3770 C3762 0.930 . S
H3771 C3763 0.929 . S
H3772 C3780 0.929 . S
H3773 C3782 0.930 . S
H3774 C3784 0.930 . S
H3775 C3787 0.929 . S
H3776 C3790 0.930 . S
H3777 C3792 0.960 . S
H3778 C3792 0.960 1_545 S
H3779 C3792 0.960 . S
C3780 H3772 0.929 . S
C3780 C3781 1.314 1_545 S
C3780 C3782 1.384 . S
C3781 C3780 1.314 1_565 S
C3781 C3787 1.452 1_455 S
C3782 H3773 0.930 . S
C3782 C3780 1.384 . S
C3782 C3783 1.385 . S
C3783 C3782 1.385 . S
C3783 C3784 1.386 1_445 S
C3783 C3788 1.489 . S
C3784 H3774 0.930 . S
C3784 C3783 1.386 1_665 S
C3784 C3787 1.386 . S
H3785 C3801 0.930 . S
H3786 C3802 0.931 . S
C3787 H3775 0.929 . S
C3787 C3781 1.452 1_655 S
C3787 C3784 1.386 . S
C3788 C3783 1.489 . S
C3788 C3790 1.410 . S
C3788 C3791 1.391 1_445 S
H3789 C3795 0.930 . S
C3790 H3776 0.930 . S
C3790 C3788 1.410 . S
C3790 C3793 1.403 . S
C3791 C3788 1.391 1_665 S
C3791 C3792 1.524 . S
C3791 C3795 1.400 . S
C3792 H3777 0.960 . S
C3792 H3778 0.960 1_565 S
C3792 H3779 0.960 . S
C3792 C3791 1.524 . S
C3793 C3790 1.403 . S
C3793 C3794 1.392 . S
C3793 C3797 1.495 . S
C3794 C3793 1.392 . S
C3794 C3795 1.385 1_445 S
C3794 C3796 1.478 . S
C3795 H3789 0.930 . S
C3795 C3791 1.400 . S
C3795 C3794 1.385 1_665 S
C3796 C3794 1.478 . S
C3796 C3798 1.381 . S
C3796 C3802 1.383 1_445 S
C3797 C3793 1.495 . S
C3797 H3803 0.959 . S
C3797 H3804 0.961 . S
C3797 H3805 0.960 . S
C3798 C3796 1.381 . S
C3798 C3799 1.394 . S
C3798 H3806 0.930 . S
C3799 C3798 1.394 . S
C3799 C3800 1.383 1_455 S
C3799 H3807 0.929 . S
C3800 C3799 1.383 1_655 S
C3800 C3801 1.377 1_545 S
C3801 H3785 0.930 . S
C3801 C3800 1.377 1_565 S
C3801 C3802 1.379 . S
C3802 H3786 0.931 . S
C3802 C3796 1.383 1_665 S
C3802 C3801 1.379 . S
H3803 C3797 0.959 . S
H3804 C3797 0.961 . S
H3805 C3797 0.960 . S
H3806 C3798 0.930 . S
H3807 C3799 0.929 . S
H3808 C3816 0.929 . S
H3809 C3818 0.930 . S
H3810 C3820 0.930 . S
H3811 C3823 0.929 . S
H3812 C3826 0.930 . S
H3813 C3828 0.960 . S
H3814 C3828 0.960 . S
H3815 C3828 0.960 . S
C3816 H3808 0.929 . S
C3816 C3817 1.377 . S
C3816 C3818 1.384 . S
C3817 C3816 1.377 . S
C3817 C3823 1.390 . S
C3818 H3809 0.930 . S
C3818 C3816 1.384 . S
C3818 C3819 1.372 . S
C3819 C3818 1.372 . S
C3819 C3820 1.400 . S
C3819 C3824 1.490 . S
C3820 H3810 0.930 . S
C3820 C3819 1.400 . S
C3820 C3823 1.386 . S
H3821 C3837 0.930 . S
H3822 C3838 0.931 . S
C3823 H3811 0.929 . S
C3823 C3817 1.390 . S
C3823 C3820 1.386 . S
C3824 C3819 1.490 . S
C3824 C3826 1.395 . S
C3824 C3827 1.403 . S
H3825 C3831 0.930 . S
C3826 H3812 0.930 . S
C3826 C3824 1.395 . S
C3826 C3829 1.403 . S
C3827 C3824 1.403 . S
C3827 C3828 1.524 . S
C3827 C3831 1.400 . S
C3828 H3813 0.960 . S
C3828 H3814 0.960 . S
C3828 H3815 0.960 . S
C3828 C3827 1.524 . S
C3829 C3826 1.403 . S
C3829 C3830 1.392 . S
C3829 C3833 1.495 . S
C3830 C3829 1.392 . S
C3830 C3831 1.385 . S
C3830 C3832 1.478 . S
C3831 H3825 0.930 . S
C3831 C3827 1.400 . S
C3831 C3830 1.385 . S
C3832 C3830 1.478 . S
C3832 C3834 1.381 . S
C3832 C3838 1.383 . S
C3833 C3829 1.495 . S
C3833 H3839 0.959 . S
C3833 H3840 0.961 . S
C3833 H3841 0.960 . S
C3834 C3832 1.381 . S
C3834 C3835 1.394 . S
C3834 H3842 0.930 . S
C3835 C3834 1.394 . S
C3835 C3836 1.383 . S
C3835 H3843 0.929 . S
C3836 C3835 1.383 . S
C3836 C3837 1.377 . S
C3837 H3821 0.930 . S
C3837 C3836 1.377 . S
C3837 C3838 1.379 . S
C3838 H3822 0.931 . S
C3838 C3832 1.383 . S
C3838 C3837 1.379 . S
H3839 C3833 0.959 . S
H3840 C3833 0.961 . S
H3841 C3833 0.960 . S
H3842 C3834 0.930 . S
H3843 C3835 0.929 . S
H3844 C3852 0.929 . S
H3845 C3854 0.930 . S
H3846 C3856 0.930 . S
H3847 C3859 0.929 . S
H3848 C3862 0.930 . S
H3849 C3864 0.960 . S
H3850 C3864 0.960 . S
H3851 C3864 0.960 . S
C3852 H3844 0.929 . S
C3852 C3853 1.377 . S
C3852 C3854 1.384 . S
C3853 C3852 1.377 . S
C3853 C3859 1.390 1_545 S
C3854 H3845 0.930 . S
C3854 C3852 1.384 . S
C3854 C3855 1.372 . S
C3855 C3854 1.372 . S
C3855 C3856 1.400 1_545 S
C3855 C3860 1.490 . S
C3856 H3846 0.930 . S
C3856 C3855 1.400 1_565 S
C3856 C3859 1.386 . S
H3857 C3873 0.930 . S
H3858 C3874 0.931 . S
C3859 H3847 0.929 . S
C3859 C3853 1.390 1_565 S
C3859 C3856 1.386 . S
C3860 C3855 1.490 . S
C3860 C3862 1.395 . S
C3860 C3863 1.403 1_545 S
H3861 C3867 0.930 . S
C3862 H3848 0.930 . S
C3862 C3860 1.395 . S
C3862 C3865 1.403 . S
C3863 C3860 1.403 1_565 S
C3863 C3864 1.524 . S
C3863 C3867 1.400 . S
C3864 H3849 0.960 . S
C3864 H3850 0.960 . S
C3864 H3851 0.960 . S
C3864 C3863 1.524 . S
C3865 C3862 1.403 . S
C3865 C3866 1.392 . S
C3865 C3869 1.495 . S
C3866 C3865 1.392 . S
C3866 C3867 1.385 1_545 S
C3866 C3868 1.478 . S
C3867 H3861 0.930 . S
C3867 C3863 1.400 . S
C3867 C3866 1.385 1_565 S
C3868 C3866 1.478 . S
C3868 C3870 1.381 . S
C3868 C3874 1.383 1_545 S
C3869 C3865 1.495 . S
C3869 H3875 0.959 . S
C3869 H3876 0.961 . S
C3869 H3877 0.960 . S
C3870 C3868 1.381 . S
C3870 C3871 1.394 . S
C3870 H3878 0.930 . S
C3871 C3870 1.394 . S
C3871 C3872 1.378 1_545 S
C3871 H3879 0.929 . S
C3872 C3871 1.378 1_565 S
C3872 C3873 1.382 . S
C3873 H3857 0.930 . S
C3873 C3872 1.382 . S
C3873 C3874 1.379 . S
C3874 H3858 0.931 . S
C3874 C3868 1.383 1_565 S
C3874 C3873 1.379 . S
H3875 C3869 0.959 . S
H3876 C3869 0.961 . S
H3877 C3869 0.960 . S
H3878 C3870 0.930 . S
H3879 C3871 0.929 . S
H3880 C3888 0.929 . S
H3881 C3890 0.930 . S
H3882 C3892 0.930 . S
H3883 C3895 0.929 . S
H3884 C3898 0.930 . S
H3885 C3900 0.960 . S
H3886 C3900 0.960 . S
H3887 C3900 0.960 . S
C3888 H3880 0.929 . S
C3888 C3889 1.377 . S
C3888 C3890 1.384 . S
C3889 C3888 1.377 . S
C3889 C3895 1.390 . S
C3890 H3881 0.930 . S
C3890 C3888 1.384 . S
C3890 C3891 1.372 . S
C3891 C3890 1.372 . S
C3891 C3892 1.400 . S
C3891 C3896 1.490 . S
C3892 H3882 0.930 . S
C3892 C3891 1.400 . S
C3892 C3895 1.386 . S
H3893 C3909 0.930 . S
H3894 C3910 0.931 . S
C3895 H3883 0.929 . S
C3895 C3889 1.390 . S
C3895 C3892 1.386 . S
C3896 C3891 1.490 . S
C3896 C3898 1.395 . S
C3896 C3899 1.403 . S
H3897 C3903 0.930 . S
C3898 H3884 0.930 . S
C3898 C3896 1.395 . S
C3898 C3901 1.403 . S
C3899 C3896 1.403 . S
C3899 C3900 1.524 . S
C3899 C3903 1.400 . S
C3900 H3885 0.960 . S
C3900 H3886 0.960 . S
C3900 H3887 0.960 . S
C3900 C3899 1.524 . S
C3901 C3898 1.403 . S
C3901 C3902 1.392 . S
C3901 C3905 1.495 . S
C3902 C3901 1.392 . S
C3902 C3903 1.385 . S
C3902 C3904 1.478 . S
C3903 H3897 0.930 . S
C3903 C3899 1.400 . S
C3903 C3902 1.385 . S
C3904 C3902 1.478 . S
C3904 C3906 1.381 . S
C3904 C3910 1.383 . S
C3905 C3901 1.495 . S
C3905 H3911 0.959 . S
C3905 H3912 0.961 . S
C3905 H3913 0.960 . S
C3906 C3904 1.381 . S
C3906 C3907 1.394 . S
C3906 H3914 0.930 . S
C3907 C3906 1.394 . S
C3907 C3908 1.383 . S
C3907 H3915 0.929 . S
C3908 C3907 1.383 . S
C3908 C3909 1.377 . S
C3909 H3893 0.930 . S
C3909 C3908 1.377 . S
C3909 C3910 1.379 . S
C3910 H3894 0.931 . S
C3910 C3904 1.383 . S
C3910 C3909 1.379 . S
H3911 C3905 0.959 . S
H3912 C3905 0.961 . S
H3913 C3905 0.960 . S
H3914 C3906 0.930 . S
H3915 C3907 0.929 . S
H3916 C3924 0.934 . S
H3917 C3926 0.930 . S
H3918 C3928 0.930 . S
H3919 C3931 0.929 . S
H3920 C3934 0.930 . S
H3921 C3936 0.960 . S
H3922 C3936 0.960 . S
H3923 C3936 0.960 . S
C3924 H3916 0.934 . S
C3924 C3925 1.373 1_545 S
C3924 C3926 1.386 . S
C3925 C3924 1.373 1_565 S
C3925 C3931 1.390 . S
C3926 H3917 0.930 . S
C3926 C3924 1.386 . S
C3926 C3927 1.368 1_545 S
C3927 C3926 1.368 1_565 S
C3927 C3928 1.407 . S
C3927 C3932 1.488 1_565 S
C3928 H3918 0.930 . S
C3928 C3927 1.407 . S
C3928 C3931 1.386 . S
H3929 C3945 0.930 . S
H3930 C3946 0.931 . S
C3931 H3919 0.929 . S
C3931 C3925 1.390 . S
C3931 C3928 1.386 . S
C3932 C3927 1.488 1_545 S
C3932 C3934 1.402 . S
C3932 C3935 1.396 1_545 S
H3933 C3939 0.930 . S
C3934 H3920 0.930 . S
C3934 C3932 1.402 . S
C3934 C3937 1.403 . S
C3935 C3932 1.396 1_565 S
C3935 C3936 1.524 . S
C3935 C3939 1.400 . S
C3936 H3921 0.960 . S
C3936 H3922 0.960 . S
C3936 H3923 0.960 . S
C3936 C3935 1.524 . S
C3937 C3934 1.403 . S
C3937 C3938 1.392 . S
C3937 C3941 1.495 . S
C3938 C3937 1.392 . S
C3938 C3939 1.385 1_545 S
C3938 C3940 1.478 . S
C3939 H3933 0.930 . S
C3939 C3935 1.400 . S
C3939 C3938 1.385 1_565 S
C3940 C3938 1.478 . S
C3940 C3942 1.381 . S
C3940 C3946 1.383 . S
C3941 C3937 1.495 . S
C3941 H3947 0.959 . S
C3941 H3948 0.961 . S
C3941 H3949 0.960 . S
C3942 C3940 1.381 . S
C3942 C3943 1.394 . S
C3942 H3950 0.930 . S
C3943 C3942 1.394 . S
C3943 C3944 1.383 . S
C3943 H3951 0.929 . S
C3944 C3943 1.383 . S
C3944 C3945 1.377 . S
C3945 H3929 0.930 . S
C3945 C3944 1.377 . S
C3945 C3946 1.379 . S
C3946 H3930 0.931 . S
C3946 C3940 1.383 . S
C3946 C3945 1.379 . S
H3947 C3941 0.959 . S
H3948 C3941 0.961 . S
H3949 C3941 0.960 . S
H3950 C3942 0.930 . S
H3951 C3943 0.929 . S
H3952 C3960 0.929 . S
H3953 C3962 0.930 . S
H3954 C3964 0.930 . S
H3955 C3967 0.929 . S
H3956 C3970 0.930 . S
H3957 C3972 0.960 . S
H3958 C3972 0.960 . S
H3959 C3972 0.960 . S
C3960 H3952 0.929 . S
C3960 C3961 1.377 . S
C3960 C3962 1.384 . S
C3961 C3960 1.377 . S
C3961 C3967 1.390 . S
C3962 H3953 0.930 . S
C3962 C3960 1.384 . S
C3962 C3963 1.372 . S
C3963 C3962 1.372 . S
C3963 C3964 1.400 . S
C3963 C3968 1.490 . S
C3964 H3954 0.930 . S
C3964 C3963 1.400 . S
C3964 C3967 1.386 . S
H3965 C3981 0.930 . S
H3966 C3982 0.931 . S
C3967 H3955 0.929 . S
C3967 C3961 1.390 . S
C3967 C3964 1.386 . S
C3968 C3963 1.490 . S
C3968 C3970 1.395 . S
C3968 C3971 1.403 . S
H3969 C3975 0.930 . S
C3970 H3956 0.930 . S
C3970 C3968 1.395 . S
C3970 C3973 1.403 . S
C3971 C3968 1.403 . S
C3971 C3972 1.524 . S
C3971 C3975 1.400 . S
C3972 H3957 0.960 . S
C3972 H3958 0.960 . S
C3972 H3959 0.960 . S
C3972 C3971 1.524 . S
C3973 C3970 1.403 . S
C3973 C3974 1.392 . S
C3973 C3977 1.495 . S
C3974 C3973 1.392 . S
C3974 C3975 1.385 . S
C3974 C3976 1.478 . S
C3975 H3969 0.930 . S
C3975 C3971 1.400 . S
C3975 C3974 1.385 . S
C3976 C3974 1.478 . S
C3976 C3978 1.381 . S
C3976 C3982 1.383 . S
C3977 C3973 1.495 . S
C3977 H3983 0.959 . S
C3977 H3984 0.961 . S
C3977 H3985 0.960 . S
C3978 C3976 1.381 . S
C3978 C3979 1.394 . S
C3978 H3986 0.930 . S
C3979 C3978 1.394 . S
C3979 C3980 1.383 . S
C3979 H3987 0.929 . S
C3980 C3979 1.383 . S
C3980 C3981 1.377 . S
C3981 H3965 0.930 . S
C3981 C3980 1.377 . S
C3981 C3982 1.379 . S
C3982 H3966 0.931 . S
C3982 C3976 1.383 . S
C3982 C3981 1.379 . S
H3983 C3977 0.959 . S
H3984 C3977 0.961 . S
H3985 C3977 0.960 . S
H3986 C3978 0.930 . S
H3987 C3979 0.929 . S
H3988 C3996 0.929 . S
H3989 C3998 0.930 . S
H3990 C4000 0.930 . S
H3991 C4003 0.929 . S
H3992 C4006 0.930 . S
H3993 C4008 0.960 . S
H3994 C4008 0.960 . S
H3995 C4008 0.960 . S
C3996 H3988 0.929 . S
C3996 C3997 1.377 . S
C3996 C3998 1.384 . S
C3997 C3996 1.377 . S
C3997 C4003 1.390 . S
C3998 H3989 0.930 . S
C3998 C3996 1.384 . S
C3998 C3999 1.372 . S
C3999 C3998 1.372 . S
C3999 C4000 1.400 . S
C3999 C4004 1.490 . S
C4000 H3990 0.930 . S
C4000 C3999 1.400 . S
C4000 C4003 1.386 . S
H4001 C4017 0.930 . S
H4002 C4018 0.931 . S
C4003 H3991 0.929 . S
C4003 C3997 1.390 . S
C4003 C4000 1.386 . S
C4004 C3999 1.490 . S
C4004 C4006 1.395 . S
C4004 C4007 1.403 . S
H4005 C4011 0.930 . S
C4006 H3992 0.930 . S
C4006 C4004 1.395 . S
C4006 C4009 1.403 . S
C4007 C4004 1.403 . S
C4007 C4008 1.524 . S
C4007 C4011 1.400 . S
C4008 H3993 0.960 . S
C4008 H3994 0.960 . S
C4008 H3995 0.960 . S
C4008 C4007 1.524 . S
C4009 C4006 1.403 . S
C4009 C4010 1.392 . S
C4009 C4013 1.495 . S
C4010 C4009 1.392 . S
C4010 C4011 1.385 . S
C4010 C4012 1.478 . S
C4011 H4005 0.930 . S
C4011 C4007 1.400 . S
C4011 C4010 1.385 . S
C4012 C4010 1.478 . S
C4012 C4014 1.381 . S
C4012 C4018 1.383 . S
C4013 C4009 1.495 . S
C4013 H4019 0.959 . S
C4013 H4020 0.961 . S
C4013 H4021 0.960 . S
C4014 C4012 1.381 . S
C4014 C4015 1.394 . S
C4014 H4022 0.930 . S
C4015 C4014 1.394 . S
C4015 C4016 1.383 . S
C4015 H4023 0.929 . S
C4016 C4015 1.383 . S
C4016 C4017 1.377 . S
C4017 H4001 0.930 . S
C4017 C4016 1.377 . S
C4017 C4018 1.379 . S
C4018 H4002 0.931 . S
C4018 C4012 1.383 . S
C4018 C4017 1.379 . S
H4019 C4013 0.959 . S
H4020 C4013 0.961 . S
H4021 C4013 0.960 . S
H4022 C4014 0.930 . S
H4023 C4015 0.929 . S
H4024 C4032 0.929 . S
H4025 C4034 0.930 . S
H4026 C4036 0.930 . S
H4027 C4039 0.929 . S
H4028 C4042 0.930 . S
H4029 C4044 0.960 . S
H4030 C4044 0.960 . S
H4031 C4044 0.960 . S
C4032 H4024 0.929 . S
C4032 C4033 1.377 . S
C4032 C4034 1.384 . S
C4033 C4032 1.377 . S
C4033 C4039 1.390 . S
C4034 H4025 0.930 . S
C4034 C4032 1.384 . S
C4034 C4035 1.372 . S
C4035 C4034 1.372 . S
C4035 C4036 1.400 . S
C4035 C4040 1.490 . S
C4036 H4026 0.930 . S
C4036 C4035 1.400 . S
C4036 C4039 1.386 . S
H4037 C4053 0.930 . S
H4038 C4054 0.931 . S
C4039 H4027 0.929 . S
C4039 C4033 1.390 . S
C4039 C4036 1.386 . S
C4040 C4035 1.490 . S
C4040 C4042 1.395 . S
C4040 C4043 1.403 . S
H4041 C4047 0.930 . S
C4042 H4028 0.930 . S
C4042 C4040 1.395 . S
C4042 C4045 1.403 . S
C4043 C4040 1.403 . S
C4043 C4044 1.524 . S
C4043 C4047 1.400 . S
C4044 H4029 0.960 . S
C4044 H4030 0.960 . S
C4044 H4031 0.960 . S
C4044 C4043 1.524 . S
C4045 C4042 1.403 . S
C4045 C4046 1.392 . S
C4045 C4049 1.495 . S
C4046 C4045 1.392 . S
C4046 C4047 1.385 . S
C4046 C4048 1.478 . S
C4047 H4041 0.930 . S
C4047 C4043 1.400 . S
C4047 C4046 1.385 . S
C4048 C4046 1.478 . S
C4048 C4050 1.381 . S
C4048 C4054 1.383 . S
C4049 C4045 1.495 . S
C4049 H4055 0.959 . S
C4049 H4056 0.961 . S
C4049 H4057 0.960 . S
C4050 C4048 1.381 . S
C4050 C4051 1.394 . S
C4050 H4058 0.930 . S
C4051 C4050 1.394 . S
C4051 C4052 1.383 . S
C4051 H4059 0.929 . S
C4052 C4051 1.383 . S
C4052 C4053 1.377 . S
C4053 H4037 0.930 . S
C4053 C4052 1.377 . S
C4053 C4054 1.379 . S
C4054 H4038 0.931 . S
C4054 C4048 1.383 . S
C4054 C4053 1.379 . S
H4055 C4049 0.959 . S
H4056 C4049 0.961 . S
H4057 C4049 0.960 . S
H4058 C4050 0.930 . S
H4059 C4051 0.929 . S
H4060 C4068 0.929 . S
H4061 C4070 0.933 . S
H4062 C4072 0.933 . S
H4063 C4075 0.929 . S
H4064 C4078 0.930 . S
H4065 C4080 0.960 . S
H4066 C4080 0.960 . S
H4067 C4080 0.960 . S
C4068 H4060 0.929 . S
C4068 C4069 1.377 . S
C4068 C4070 1.384 . S
C4069 C4068 1.377 . S
C4069 C4075 1.390 . S
C4070 H4061 0.933 . S
C4070 C4068 1.384 . S
C4070 C4071 1.374 . S
C4071 C4070 1.374 . S
C4071 C4072 1.400 . S
C4071 C4076 1.488 1_565 S
C4072 H4062 0.933 . S
C4072 C4071 1.400 . S
C4072 C4075 1.388 . S
H4073 C4089 0.930 . S
H4074 C4090 0.931 . S
C4075 H4063 0.929 . S
C4075 C4069 1.390 . S
C4075 C4072 1.388 . S
C4076 C4071 1.488 1_545 S
C4076 C4078 1.391 . S
C4076 C4079 1.406 1_545 S
H4077 C4083 0.930 . S
C4078 H4064 0.930 . S
C4078 C4076 1.391 . S
C4078 C4081 1.403 1_554 S
C4079 C4076 1.406 1_565 S
C4079 C4080 1.524 . S
C4079 C4083 1.400 1_554 S
C4080 H4065 0.960 . S
C4080 H4066 0.960 . S
C4080 H4067 0.960 . S
C4080 C4079 1.524 . S
C4081 C4078 1.403 1_556 S
C4081 C4082 1.392 . S
C4081 C4085 1.495 . S
C4082 C4081 1.392 . S
C4082 C4083 1.385 1_545 S
C4082 C4084 1.478 . S
C4083 H4077 0.930 . S
C4083 C4079 1.400 1_556 S
C4083 C4082 1.385 1_565 S
C4084 C4082 1.478 . S
C4084 C4086 1.381 . S
C4084 C4090 1.383 . S
C4085 C4081 1.495 . S
C4085 H4091 0.959 . S
C4085 H4092 0.961 . S
C4085 H4093 0.960 . S
C4086 C4084 1.381 . S
C4086 C4087 1.398 . S
C4086 H4094 0.935 . S
C4087 C4086 1.398 . S
C4087 C4088 1.390 . S
C4087 H4095 0.921 1_545 S
C4088 C4087 1.390 . S
C4088 C4089 1.377 . S
C4089 H4073 0.930 . S
C4089 C4088 1.377 . S
C4089 C4090 1.379 . S
C4090 H4074 0.931 . S
C4090 C4084 1.383 . S
C4090 C4089 1.379 . S
H4091 C4085 0.959 . S
H4092 C4085 0.961 . S
H4093 C4085 0.960 . S
H4094 C4086 0.935 . S
H4095 C4087 0.921 1_565 S
C649 C4 1.433 . S
C668 C504 1.456 . S
C685 C484 1.435 . S
C704 C24 1.404 . S
C721 C544 1.443 . S
C740 C44 1.416 . S
C757 C64 1.444 . S
C776 C524 1.445 . S
C793 C82 1.438 . S
C812 C582 1.455 . S
C829 C102 1.441 . S
C848 C562 1.464 . S
C865 C122 1.433 . S
C884 C622 1.403 . S
C901 C602 1.432 . S
C920 C142 1.403 . S
C937 C164 1.441 . S
C956 C344 1.463 . S
C973 C184 1.438 . S
C992 C324 1.402 . S
C1009 C204 1.441 . S
C1028 C384 1.463 . S
C1045 C364 1.437 . S
C1064 C224 1.403 . S
C1081 C242 1.443 . S
C1100 C422 1.467 . S
C1117 C262 1.440 . S
C1136 C402 1.428 . S
C1153 C462 1.441 . S
C1172 C282 1.464 . S
C1189 C302 1.438 . S
C1208 C442 1.453 . S
C1225 C18 1.513 . S
C1244 C78 1.513 . S
C1261 C38 1.519 . S
C1280 C58 1.510 . S
C1297 C159 1.513 . S
C1316 C99 1.512 . S
C1333 C139 1.519 . S
C1352 C119 1.505 . S
C1369 C178 1.518 . S
C1388 C238 1.499 . S
C1405 C198 1.519 . S
C1424 C218 1.501 . S
C1441 C259 1.514 . S
C1460 C319 1.526 . S
C1477 C299 1.517 . S
C1496 C279 1.499 . S
C1513 C338 1.517 . S
C1532 C398 1.499 . S
C1549 C358 1.519 . S
C1568 C378 1.502 . S
C1585 C479 1.516 . S
C1604 C419 1.501 . S
C1621 C439 1.514 . S
C1640 C459 1.524 . S
C1657 C558 1.513 . S
C1676 C498 1.510 . S
C1693 C518 1.519 . S
C1712 C538 1.512 . S
C1729 C639 1.515 . S
C1748 C579 1.526 . S
C1765 C619 1.518 . S
C1784 C599 1.500 . S
C1801 C22 1.574 . S
C1820 C2 1.555 . S
C1837 C42 1.574 . S
C1856 C62 1.564 . S
C1873 C104 1.581 . S
C1892 C84 1.572 . S
C1909 C144 1.574 . S
C1928 C124 1.587 . S
C1945 C162 1.580 . S
C1964 C182 1.582 . S
C1981 C202 1.574 . S
C2000 C222 1.560 . S
C2017 C264 1.580 . S
C2036 C244 1.556 . S
C2053 C284 1.577 . S
C2072 C304 1.556 . S
C2089 C322 1.574 . S
C2108 C342 1.554 . S
C2125 C382 1.575 . S
C2144 C362 1.557 . S
C2161 C404 1.578 . S
C2180 C424 1.591 . S
C2197 C444 1.573 . S
C2216 C464 1.573 . S
C2233 C482 1.576 . S
C2252 C502 1.561 . S
C2269 C522 1.574 . S
C2288 C542 1.562 . S
C2305 C584 1.579 . S
C2324 C564 1.554 . S
C2341 C604 1.578 . S
C2360 C624 1.592 . S
C2377 C12 1.725 . S
C2396 C9 1.713 . S
C2413 C32 1.723 . S
C2432 C29 1.729 1_655 S
C2449 C52 1.721 . S
C2468 C49 1.711 . S
C2485 C69 1.725 1_655 S
C2504 C72 1.734 . S
C2521 C92 1.725 . S
C2540 C89 1.734 . S
C2557 C109 1.724 . S
C2576 C112 1.709 1_455 S
C2593 C132 1.721 . S
C2612 C129 1.716 . S
C2629 C152 1.721 1_455 S
C2648 C149 1.722 . S
C2665 C169 1.721 . S
C2684 C172 1.715 . S
C2701 C192 1.724 . S
C2720 C189 1.734 1_655 S
C2737 C212 1.724 . S
C2756 C209 1.733 . S
C2773 C229 1.725 1_655 S
C2792 C232 1.715 . S
C2809 C252 1.721 . S
C2828 C249 1.715 . S
C2845 C269 1.723 . S
C2864 C272 1.706 1_455 S
C2881 C289 1.721 . S
C2900 C292 1.710 . S
C2917 C312 1.722 1_455 S
C2936 C309 1.706 . S
C2953 C332 1.723 . S
C2972 C329 1.707 . S
C2989 C349 1.725 . S
C3008 C352 1.734 . S
C3025 C369 1.724 . S
C3044 C372 1.734 . S
C3061 C392 1.726 . S
C3080 C389 1.731 . S
C3097 C409 1.721 . S
C3116 C412 1.711 . S
C3133 C429 1.726 . S
C3152 C432 1.733 . S
C3169 C452 1.722 . S
C3188 C449 1.706 . S
C3205 C469 1.725 . S
C3224 C472 1.734 . S
C3241 C489 1.721 . S
C3260 C492 1.712 . S
C3277 C512 1.725 . S
C3296 C509 1.734 . S
C3313 C529 1.726 . S
C3332 C532 1.720 . S
C3349 C549 1.725 . S
C3368 C552 1.734 . S
C3385 C569 1.726 . S
C3404 C572 1.717 . S
C3421 C589 1.721 . S
C3440 C592 1.706 . S
C3457 C612 1.726 . S
C3476 C609 1.728 . S
C3493 C632 1.725 . S
C3512 C629 1.713 . S
C3529 C19 1.503 . S
C3548 C98 1.501 . S
C3565 C598 1.503 . S
C3584 C39 1.486 . S
C3601 C298 1.505 . S
C3620 C59 1.515 . S
C3637 C79 1.510 . S
C3656 C478 1.510 . S
C3673 C118 1.509 . S
C3692 C519 1.520 . S
C3709 C138 1.504 . S
C3728 C219 1.486 . S
C3745 C158 1.505 . S
C3764 C399 1.485 . S
C3781 C179 1.499 1_565 S
C3800 C258 1.517 1_545 S
C3817 C438 1.509 . S
C3836 C199 1.518 . S
C3853 C638 1.509 1_545 S
C3872 C239 1.496 1_565 S
C3889 C278 1.508 . S
C3908 C359 1.496 . S
C3925 C559 1.510 1_565 S
C3944 C318 1.514 1_545 S
C3961 C339 1.509 . S
C3980 C418 1.521 . S
C3997 C618 1.508 . S
C4016 C379 1.521 . S
C4033 C458 1.509 . S
C4052 C539 1.496 . S
C4069 C499 1.510 1_565 S
C4088 C578 1.512 1_545 S
