# Generated by pormake.
# Topology ukm, (4)-cn, num edge types: 1
# Building blocks:
#     Node 0, Type 0, BuildingBlock: NAHDIM_clean_sbu_0, # of connection points: 4
#     Node 1, Type 0, BuildingBlock: NAHDIM_clean_sbu_0, # of connection points: 4
#     Node 2, Type 0, BuildingBlock: NAHDIM_clean_sbu_0, # of connection points: 4
#     Node 3, Type 0, BuildingBlock: NAHDIM_clean_sbu_0, # of connection points: 4
#     Node 4, Type 0, BuildingBlock: NAHDIM_clean_sbu_0, # of connection points: 4
#     Node 5, Type 0, BuildingBlock: NAHDIM_clean_sbu_0, # of connection points: 4
#     Node 6, Type 0, BuildingBlock: NAHDIM_clean_sbu_0, # of connection points: 4
#     Node 7, Type 0, BuildingBlock: NAHDIM_clean_sbu_0, # of connection points: 4
#     Node 8, Type 0, BuildingBlock: NAHDIM_clean_sbu_0, # of connection points: 4
#     Node 9, Type 0, BuildingBlock: NAHDIM_clean_sbu_0, # of connection points: 4
#     Node 10, Type 0, BuildingBlock: NAHDIM_clean_sbu_0, # of connection points: 4
#     Node 11, Type 0, BuildingBlock: NAHDIM_clean_sbu_0, # of connection points: 4
#     Node 12, Type 0, BuildingBlock: NAHDIM_clean_sbu_0, # of connection points: 4
#     Node 13, Type 0, BuildingBlock: NAHDIM_clean_sbu_0, # of connection points: 4
#     Node 14, Type 0, BuildingBlock: NAHDIM_clean_sbu_0, # of connection points: 4
#     Node 15, Type 0, BuildingBlock: NAHDIM_clean_sbu_0, # of connection points: 4
#     Node 16, Type 0, BuildingBlock: NAHDIM_clean_sbu_0, # of connection points: 4
#     Node 17, Type 0, BuildingBlock: NAHDIM_clean_sbu_0, # of connection points: 4
#     Node 18, Type 0, BuildingBlock: NAHDIM_clean_sbu_0, # of connection points: 4
#     Node 19, Type 0, BuildingBlock: NAHDIM_clean_sbu_0, # of connection points: 4
#     Node 20, Type 0, BuildingBlock: NAHDIM_clean_sbu_0, # of connection points: 4
#     Node 21, Type 0, BuildingBlock: NAHDIM_clean_sbu_0, # of connection points: 4
#     Node 22, Type 0, BuildingBlock: NAHDIM_clean_sbu_0, # of connection points: 4
#     Node 23, Type 0, BuildingBlock: NAHDIM_clean_sbu_0, # of connection points: 4
#     Node 24, Type 0, BuildingBlock: NAHDIM_clean_sbu_0, # of connection points: 4
#     Node 25, Type 0, BuildingBlock: NAHDIM_clean_sbu_0, # of connection points: 4
#     Node 26, Type 0, BuildingBlock: NAHDIM_clean_sbu_0, # of connection points: 4
#     Node 27, Type 0, BuildingBlock: NAHDIM_clean_sbu_0, # of connection points: 4
#     Node 28, Type 0, BuildingBlock: NAHDIM_clean_sbu_0, # of connection points: 4
#     Node 29, Type 0, BuildingBlock: NAHDIM_clean_sbu_0, # of connection points: 4
#     Node 30, Type 0, BuildingBlock: NAHDIM_clean_sbu_0, # of connection points: 4
#     Node 31, Type 0, BuildingBlock: NAHDIM_clean_sbu_0, # of connection points: 4
#     Edge 32, Type (0, 0), BuildingBlock: AJUNOK_clean_linker_0, # of connection points: 2
#     Edge 33, Type (0, 0), BuildingBlock: AJUNOK_clean_linker_0, # of connection points: 2
#     Edge 34, Type (0, 0), BuildingBlock: AJUNOK_clean_linker_0, # of connection points: 2
#     Edge 35, Type (0, 0), BuildingBlock: AJUNOK_clean_linker_0, # of connection points: 2
#     Edge 36, Type (0, 0), BuildingBlock: AJUNOK_clean_linker_0, # of connection points: 2
#     Edge 37, Type (0, 0), BuildingBlock: AJUNOK_clean_linker_0, # of connection points: 2
#     Edge 38, Type (0, 0), BuildingBlock: AJUNOK_clean_linker_0, # of connection points: 2
#     Edge 39, Type (0, 0), BuildingBlock: AJUNOK_clean_linker_0, # of connection points: 2
#     Edge 40, Type (0, 0), BuildingBlock: AJUNOK_clean_linker_0, # of connection points: 2
#     Edge 41, Type (0, 0), BuildingBlock: AJUNOK_clean_linker_0, # of connection points: 2
#     Edge 42, Type (0, 0), BuildingBlock: AJUNOK_clean_linker_0, # of connection points: 2
#     Edge 43, Type (0, 0), BuildingBlock: AJUNOK_clean_linker_0, # of connection points: 2
#     Edge 44, Type (0, 0), BuildingBlock: AJUNOK_clean_linker_0, # of connection points: 2
#     Edge 45, Type (0, 0), BuildingBlock: AJUNOK_clean_linker_0, # of connection points: 2
#     Edge 46, Type (0, 0), BuildingBlock: AJUNOK_clean_linker_0, # of connection points: 2
#     Edge 47, Type (0, 0), BuildingBlock: AJUNOK_clean_linker_0, # of connection points: 2
#     Edge 48, Type (0, 0), BuildingBlock: AJUNOK_clean_linker_0, # of connection points: 2
#     Edge 49, Type (0, 0), BuildingBlock: AJUNOK_clean_linker_0, # of connection points: 2
#     Edge 50, Type (0, 0), BuildingBlock: AJUNOK_clean_linker_0, # of connection points: 2
#     Edge 51, Type (0, 0), BuildingBlock: AJUNOK_clean_linker_0, # of connection points: 2
#     Edge 52, Type (0, 0), BuildingBlock: AJUNOK_clean_linker_0, # of connection points: 2
#     Edge 53, Type (0, 0), BuildingBlock: AJUNOK_clean_linker_0, # of connection points: 2
#     Edge 54, Type (0, 0), BuildingBlock: AJUNOK_clean_linker_0, # of connection points: 2
#     Edge 55, Type (0, 0), BuildingBlock: AJUNOK_clean_linker_0, # of connection points: 2
#     Edge 56, Type (0, 0), BuildingBlock: AJUNOK_clean_linker_0, # of connection points: 2
#     Edge 57, Type (0, 0), BuildingBlock: AJUNOK_clean_linker_0, # of connection points: 2
#     Edge 58, Type (0, 0), BuildingBlock: AJUNOK_clean_linker_0, # of connection points: 2
#     Edge 59, Type (0, 0), BuildingBlock: AJUNOK_clean_linker_0, # of connection points: 2
#     Edge 60, Type (0, 0), BuildingBlock: AJUNOK_clean_linker_0, # of connection points: 2
#     Edge 61, Type (0, 0), BuildingBlock: AJUNOK_clean_linker_0, # of connection points: 2
#     Edge 62, Type (0, 0), BuildingBlock: AJUNOK_clean_linker_0, # of connection points: 2
#     Edge 63, Type (0, 0), BuildingBlock: AJUNOK_clean_linker_0, # of connection points: 2
#     Edge 64, Type (0, 0), BuildingBlock: AJUNOK_clean_linker_0, # of connection points: 2
#     Edge 65, Type (0, 0), BuildingBlock: AJUNOK_clean_linker_0, # of connection points: 2
#     Edge 66, Type (0, 0), BuildingBlock: AJUNOK_clean_linker_0, # of connection points: 2
#     Edge 67, Type (0, 0), BuildingBlock: AJUNOK_clean_linker_0, # of connection points: 2
#     Edge 68, Type (0, 0), BuildingBlock: AJUNOK_clean_linker_0, # of connection points: 2
#     Edge 69, Type (0, 0), BuildingBlock: AJUNOK_clean_linker_0, # of connection points: 2
#     Edge 70, Type (0, 0), BuildingBlock: AJUNOK_clean_linker_0, # of connection points: 2
#     Edge 71, Type (0, 0), BuildingBlock: AJUNOK_clean_linker_0, # of connection points: 2
#     Edge 72, Type (0, 0), BuildingBlock: AJUNOK_clean_linker_0, # of connection points: 2
#     Edge 73, Type (0, 0), BuildingBlock: AJUNOK_clean_linker_0, # of connection points: 2
#     Edge 74, Type (0, 0), BuildingBlock: AJUNOK_clean_linker_0, # of connection points: 2
#     Edge 75, Type (0, 0), BuildingBlock: AJUNOK_clean_linker_0, # of connection points: 2
#     Edge 76, Type (0, 0), BuildingBlock: AJUNOK_clean_linker_0, # of connection points: 2
#     Edge 77, Type (0, 0), BuildingBlock: AJUNOK_clean_linker_0, # of connection points: 2
#     Edge 78, Type (0, 0), BuildingBlock: AJUNOK_clean_linker_0, # of connection points: 2
#     Edge 79, Type (0, 0), BuildingBlock: AJUNOK_clean_linker_0, # of connection points: 2
#     Edge 80, Type (0, 0), BuildingBlock: AJUNOK_clean_linker_0, # of connection points: 2
#     Edge 81, Type (0, 0), BuildingBlock: AJUNOK_clean_linker_0, # of connection points: 2
#     Edge 82, Type (0, 0), BuildingBlock: AJUNOK_clean_linker_0, # of connection points: 2
#     Edge 83, Type (0, 0), BuildingBlock: AJUNOK_clean_linker_0, # of connection points: 2
#     Edge 84, Type (0, 0), BuildingBlock: AJUNOK_clean_linker_0, # of connection points: 2
#     Edge 85, Type (0, 0), BuildingBlock: AJUNOK_clean_linker_0, # of connection points: 2
#     Edge 86, Type (0, 0), BuildingBlock: AJUNOK_clean_linker_0, # of connection points: 2
#     Edge 87, Type (0, 0), BuildingBlock: AJUNOK_clean_linker_0, # of connection points: 2
#     Edge 88, Type (0, 0), BuildingBlock: AJUNOK_clean_linker_0, # of connection points: 2
#     Edge 89, Type (0, 0), BuildingBlock: AJUNOK_clean_linker_0, # of connection points: 2
#     Edge 90, Type (0, 0), BuildingBlock: AJUNOK_clean_linker_0, # of connection points: 2
#     Edge 91, Type (0, 0), BuildingBlock: AJUNOK_clean_linker_0, # of connection points: 2
#     Edge 92, Type (0, 0), BuildingBlock: AJUNOK_clean_linker_0, # of connection points: 2
#     Edge 93, Type (0, 0), BuildingBlock: AJUNOK_clean_linker_0, # of connection points: 2
#     Edge 94, Type (0, 0), BuildingBlock: AJUNOK_clean_linker_0, # of connection points: 2
#     Edge 95, Type (0, 0), BuildingBlock: AJUNOK_clean_linker_0, # of connection points: 2
# Relax obj value: 0.263
# Max RMSD: 0.216
# Mean RMSD: 0.216
data_MOF--net-ukm--node1-NAHDIM_clean_sbu_0--edge1-AJUNOK_clean_linker_0
_symmetry_space_group_name_H-M    P1
_symmetry_Int_Tables_number       1
_symmetry_cell_setting            triclinic
loop_
_symmetry_equiv_pos_as_xyz
'x, y, z'
_cell_length_a     19.12826
_cell_length_b     78.349985
_cell_length_c     28.453636
_cell_angle_alpha  90.175521
_cell_angle_beta   89.935762
_cell_angle_gamma 90.00967
loop_
_atom_site_label
_atom_site_type_symbol
_atom_site_fract_x
_atom_site_fract_y
_atom_site_fract_z
_atom_type_partial_charge
C0 C 0.04263 0.28826 0.24317 0.0
O1 O 0.10439 0.29212 0.226 0.0
O2 O 0.16026 0.31188 0.32643 0.0
Zn3 Zn 0.07455 0.31864 0.28937 0.0
O4 O 0.10291 0.32818 0.2275 0.0
C5 C 0.97426 0.34096 0.34826 0.0
O6 O 0.94045 0.32825 0.36794 0.0
O7 O 0.016 0.29801 0.27429 0.0
C8 C 0.05844 0.33645 0.20352 0.0
O9 O 0.99608 0.33921 0.22136 0.0
C10 C 0.21936 0.31001 0.30651 0.0
O11 O 0.2244 0.31265 0.26107 0.0
O12 O 0.02436 0.33805 0.32009 0.0
C13 C 0.26832 0.97227 0.28836 0.0
O14 O 0.2137 0.96934 0.26162 0.0
O15 O 0.13248 0.94307 0.35069 0.0
Zn16 Zn 0.22634 0.93973 0.31863 0.0
O17 O 0.20994 0.93397 0.25138 0.0
C18 C 0.28561 0.91655 0.38882 0.0
O19 O 0.27363 0.92899 0.41883 0.0
O20 O 0.28505 0.96118 0.31899 0.0
C21 C 0.16487 0.9233 0.23694 0.0
O22 O 0.1262 0.91498 0.26741 0.0
C23 C 0.07894 0.94824 0.32831 0.0
O24 O 0.08578 0.95274 0.28415 0.0
O25 O 0.27349 0.91907 0.34555 0.0
C26 C 0.14915 0.96918 0.96878 0.0
O27 O 0.20543 0.96386 0.99071 0.0
O28 O 0.24493 0.93279 0.9059 0.0
Zn29 Zn 0.15381 0.93459 0.94204 0.0
O30 O 0.16934 0.92901 0.00978 0.0
C31 C 0.09341 0.90215 0.93246 0.0
O32 O 0.14562 0.89921 0.96125 0.0
O33 O 0.11689 0.95874 0.94209 0.0
C34 C 0.11718 0.92676 0.03671 0.0
O35 O 0.05381 0.92796 0.01929 0.0
C36 C 0.30338 0.93143 0.92688 0.0
O37 O 0.30433 0.93161 0.97302 0.0
O38 O 0.08511 0.9172 0.91669 0.0
C39 C 0.17262 0.27864 0.97852 0.0
O40 O 0.11863 0.28462 0.00188 0.0
O41 O 0.05279 0.30655 0.90412 0.0
Zn42 Zn 0.1484 0.30968 0.93339 0.0
O43 O 0.13846 0.32042 -0.00383 0.0
C44 C 0.18902 0.32862 0.85283 0.0
O45 O 0.15148 0.31689 0.83145 0.0
O46 O 0.19625 0.28721 0.94405 0.0
C47 C 0.10461 0.33396 0.00526 0.0
O48 O 0.07134 0.34197 0.97153 0.0
C49 C 0.99681 0.30531 0.92805 0.0
O50 O 1.00074 0.30535 0.97411 0.0
O51 O 0.20287 0.32663 0.89601 0.0
C52 C 0.88836 0.72014 0.69651 0.0
O53 O 0.82606 0.71593 0.71206 0.0
O54 O 0.77569 0.68982 0.63425 0.0
Zn55 Zn 0.86924 0.68724 0.66659 0.0
O56 O 0.85487 0.68169 0.73419 0.0
C57 C 0.88974 0.65343 0.6531 0.0
O58 O 0.82898 0.65503 0.67425 0.0
O59 O 0.92064 0.7096 0.67006 0.0
C60 C 0.90535 0.67555 0.75754 0.0
O61 O 0.96519 0.6724 0.73653 0.0
C62 C 0.71847 0.68904 0.65699 0.0
O63 O 0.72041 0.6867 0.70266 0.0
O64 O 0.92191 0.66688 0.64048 0.0
C65 C 0.85181 0.01732 0.72921 0.0
O66 O 0.90589 0.02352 0.75192 0.0
O67 O 0.96127 0.04786 0.65656 0.0
Zn68 Zn 0.8663 0.04963 0.6877 0.0
O69 O 0.87809 0.0599 0.75101 0.0
C70 C 0.8174 0.06785 0.60764 0.0
O71 O 0.85539 0.05629 0.5859 0.0
O72 O 0.82363 0.02636 0.69727 0.0
C73 C 0.90471 0.07451 0.75809 0.0
O74 O 0.92563 0.08367 0.72213 0.0
C75 C 0.01799 0.04715 0.67976 0.0
O76 O 0.01519 0.04685 0.72586 0.0
O77 O 0.80789 0.0663 0.65155 0.0
C78 C 0.02516 0.03592 0.00656 0.0
O79 O 0.96744 0.03975 0.98402 0.0
O80 O 0.91579 0.06661 0.08957 0.0
Zn81 Zn 0.99635 0.06891 0.04365 0.0
O82 O 0.9556 0.07454 0.98102 0.0
C83 C 0.05399 0.09613 0.1007 0.0
O84 O 0.02475 0.08763 0.13529 0.0
O85 O 0.04968 0.04665 0.03602 0.0
C86 C 0.98651 0.08382 0.95097 0.0
O87 O 0.04722 0.09061 0.96162 0.0
C88 C 0.85694 0.06119 0.07498 0.0
O89 O 0.85112 0.05652 0.03081 0.0
O90 O 0.05516 0.08935 0.06018 0.0
C91 C 0.80055 0.70935 0.03228 0.0
O92 O 0.86619 0.70863 0.01878 0.0
O93 O 0.93694 0.68496 0.08352 0.0
Zn94 Zn 0.84623 0.67766 0.05239 0.0
O95 O 0.86036 0.67558 0.9832 0.0
C96 C 0.86667 0.64404 0.07731 0.0
O97 O 0.93028 0.65017 0.0735 0.0
O98 O 0.77542 0.69677 0.05499 0.0
C99 C 0.88184 0.66353 0.95713 0.0
O100 O 0.90296 0.64912 0.97571 0.0
C101 C 0.99299 0.68691 0.05994 0.0
O102 O 0.9915 0.68454 0.01428 0.0
O103 O 0.81532 0.65428 0.07418 0.0
C104 C 0.02939 0.78161 0.76273 0.0
O105 O 0.08787 0.78607 0.74181 0.0
O106 O 0.15927 0.80715 0.81957 0.0
Zn107 Zn 0.05949 0.81299 0.80278 0.0
O108 O 0.06006 0.8249 0.74061 0.0
C109 C 0.98617 0.84226 0.84262 0.0
O110 O 0.95644 0.84327 0.80119 0.0
O111 O 0.00448 0.79139 0.79438 0.0
C112 C 0.00624 0.8252 0.71444 0.0
O113 O 0.94863 0.81775 0.72897 0.0
C114 C 0.20225 0.81943 0.82386 0.0
O115 O 0.1796 0.83505 0.81689 0.0
O116 O 0.02427 0.82941 0.85199 0.0
C117 C 0.16446 0.46628 0.77068 0.0
O118 O 0.10119 0.46411 0.75371 0.0
O119 O 0.03931 0.43723 0.82402 0.0
Zn120 Zn 0.13213 0.43306 0.79164 0.0
O121 O 0.11901 0.42861 0.723 0.0
C122 C 0.14283 0.39859 0.80164 0.0
O123 O 0.08498 0.4011 0.77777 0.0
O124 O 0.1921 0.45411 0.7936 0.0
C125 C 0.17081 0.42256 0.70046 0.0
O126 O 0.22979 0.41987 0.72285 0.0
C127 C 0.98157 0.43651 0.80195 0.0
O128 O 0.98239 0.43322 0.75667 0.0
O129 O 0.17645 0.41154 0.81645 0.0
C130 C 0.08593 0.46945 0.44444 0.0
O131 O 0.13982 0.46501 0.4702 0.0
O132 O 0.20347 0.43472 0.38225 0.0
Zn133 Zn 0.10775 0.43572 0.41303 0.0
O134 O 0.11645 0.42968 0.48043 0.0
C135 C 0.9974 0.41044 0.40698 0.0
O136 O 0.98272 0.41573 0.44971 0.0
O137 O 0.06407 0.4591 0.41317 0.0
C138 C 0.15179 0.41766 0.49828 0.0
O139 O 0.18826 0.40744 0.47101 0.0
C140 C 0.2601 0.43767 0.40434 0.0
O141 O 0.25682 0.44271 0.44833 0.0
O142 O 0.04544 0.41795 0.38393 0.0
C143 C 0.16117 0.7902 0.49523 0.0
O144 O 0.11051 0.79686 0.52042 0.0
O145 O 0.06007 0.81915 0.4023 0.0
Zn146 Zn 0.14195 0.82172 0.44671 0.0
O147 O 0.10807 0.83087 0.50829 0.0
C148 C 0.24777 0.84751 0.45033 0.0
O149 O 0.24879 0.8429 0.49466 0.0
O150 O 0.18557 0.79864 0.46062 0.0
C151 C 0.051 0.83817 0.51901 0.0
O152 O 0.00464 0.8415 0.4863 0.0
C153 C 0.00502 0.8114 0.41542 0.0
O154 O 0.00338 0.80445 0.45732 0.0
O155 O 0.20983 0.83913 0.42169 0.0
C156 C 0.91029 0.22553 0.17832 0.0
O157 O 0.85064 0.22046 0.19628 0.0
O158 O 0.80814 0.19023 0.12133 0.0
Zn159 Zn 0.90305 0.19139 0.15339 0.0
O160 O 0.8912 0.1863 0.22116 0.0
C161 C 0.01747 0.16873 0.10711 0.0
O162 O 0.04391 0.18047 0.07946 0.0
O163 O 0.94488 0.21504 0.15311 0.0
C164 C 0.87458 0.17162 0.23608 0.0
O165 O 0.86009 0.15938 0.20596 0.0
C166 C 0.75269 0.19108 0.14604 0.0
O167 O 0.75827 0.19304 0.19172 0.0
O168 O 0.96575 0.17218 0.13347 0.0
C169 C 0.83586 0.51623 0.21101 0.0
O170 O 0.88944 0.52099 0.23678 0.0
O171 O 0.96077 0.54781 0.16649 0.0
Zn172 Zn 0.85799 0.54967 0.183 0.0
O173 O 0.84903 0.55762 0.24916 0.0
C174 C 0.83871 0.5712 0.10397 0.0
O175 O 0.88094 0.56003 0.0844 0.0
O176 O 0.8117 0.52668 0.18098 0.0
C177 C 0.84479 0.57309 0.26238 0.0
O178 O 0.85 0.58547 0.23158 0.0
C179 C 0.99796 0.56127 0.16546 0.0
O180 O 0.96851 0.57594 0.17574 0.0
O181 O 0.81296 0.56781 0.14391 0.0
C182 C 0.92522 0.52874 0.50511 0.0
O183 O 0.86352 0.53202 0.48718 0.0
O184 O 0.80859 0.55618 0.59019 0.0
Zn185 Zn 0.8921 0.56014 0.54759 0.0
O186 O 0.85584 0.56669 0.48468 0.0
C187 C 0.95017 0.58323 0.61497 0.0
O188 O 0.92859 0.57142 0.64432 0.0
O189 O 0.94979 0.53889 0.53604 0.0
C190 C 0.86309 0.58058 0.46245 0.0
O191 O 0.89702 0.59333 0.482 0.0
C192 C 0.7497 0.55199 0.57289 0.0
O193 O 0.74536 0.54903 0.52754 0.0
O194 O 0.94699 0.58019 0.57125 0.0
C195 C 0.80814 0.20389 0.50456 0.0
O196 O 0.87512 0.20269 0.4949 0.0
O197 O 0.92705 0.1784 0.57274 0.0
Zn198 Zn 0.84498 0.17174 0.53221 0.0
O199 O 0.87644 0.16873 0.46587 0.0
C200 C 0.83335 0.13621 0.53721 0.0
O201 O 0.88832 0.13835 0.5102 0.0
O202 O 0.77887 0.19166 0.52653 0.0
C203 C 0.83263 0.16345 0.43574 0.0
O204 O 0.77024 0.15858 0.44966 0.0
C205 C 0.98935 0.1755 0.55931 0.0
O206 O 0.99967 0.16766 0.51904 0.0
O207 O 0.80286 0.14932 0.55406 0.0
C208 C 0.55186 0.27586 0.79707 0.0
O209 O 0.61584 0.27807 0.78142 0.0
O210 O 0.67166 0.30717 0.84959 0.0
Zn211 Zn 0.58048 0.30963 0.81417 0.0
O212 O 0.59819 0.3111 0.74512 0.0
C213 C 0.56182 0.34453 0.81294 0.0
O214 O 0.61828 0.34199 0.78755 0.0
O215 O 0.52246 0.28818 0.81875 0.0
C216 C 0.54903 0.31587 0.71826 0.0
O217 O 0.48914 0.32076 0.73647 0.0
C218 C 0.73028 0.3066 0.8285 0.0
O219 O 0.73147 0.3074 0.78239 0.0
O220 O 0.53286 0.33179 0.83268 0.0
C221 C 0.72983 0.9514 0.77681 0.0
O222 O 0.66722 0.94803 0.76025 0.0
O223 O 0.61759 0.92082 0.83429 0.0
Zn224 Zn 0.70751 0.91771 0.79767 0.0
O225 O 0.6892 0.91367 0.7292 0.0
C226 C 0.72728 0.88335 0.80498 0.0
O227 O 0.66991 0.88523 0.7802 0.0
O228 O 0.76214 0.93969 0.79886 0.0
C229 C 0.73954 0.90836 0.70386 0.0
O230 O 0.80068 0.9057 0.7235 0.0
C231 C 0.55724 0.92137 0.81566 0.0
O232 O 0.55167 0.91971 0.76986 0.0
O233 O 0.75763 0.89662 0.82088 0.0
C234 C 0.63223 0.96646 0.48176 0.0
O235 O 0.68892 0.96061 0.50203 0.0
O236 O 0.75055 0.94106 0.39731 0.0
Zn237 Zn 0.65779 0.93667 0.42975 0.0
O238 O 0.67329 0.9255 0.49149 0.0
C239 C 0.55062 0.91199 0.41306 0.0
O240 O 0.53486 0.91593 0.45671 0.0
O241 O 0.608 0.95854 0.44617 0.0
C242 C 0.7109 0.91284 0.50274 0.0
O243 O 0.74864 0.905 0.47068 0.0
C244 C 0.80712 0.94305 0.42021 0.0
O245 O 0.80525 0.94253 0.46631 0.0
O246 O 0.59866 0.92036 0.3924 0.0
C247 C 0.64901 0.26347 0.44567 0.0
O248 O 0.58666 0.26574 0.46404 0.0
O249 O 0.53238 0.2977 0.39162 0.0
Zn250 Zn 0.62298 0.29776 0.4283 0.0
O251 O 0.60274 0.29984 0.49641 0.0
C252 C 0.728 0.32288 0.38729 0.0
O253 O 0.75685 0.31104 0.36088 0.0
O254 O 0.67692 0.27575 0.42322 0.0
C255 C 0.57987 0.31326 0.51604 0.0
O256 O 0.56387 0.32658 0.49026 0.0
C257 C 0.4737 0.29522 0.41162 0.0
O258 O 0.47255 0.29152 0.45657 0.0
O259 O 0.67688 0.31912 0.41382 0.0
C260 C 0.42578 0.72569 0.20791 0.0
O261 O 0.36212 0.72331 0.22376 0.0
O262 O 0.31101 0.69381 0.14531 0.0
Zn263 Zn 0.3972 0.69192 0.18611 0.0
O264 O 0.36682 0.68902 0.25221 0.0
C265 C 0.4987 0.6643 0.14957 0.0
O266 O 0.53803 0.67495 0.12571 0.0
O267 O 0.45564 0.71345 0.18619 0.0
C268 C 0.32852 0.67693 0.26682 0.0
O269 O 0.30555 0.66538 0.23702 0.0
C270 C 0.25199 0.69805 0.16245 0.0
O271 O 0.24788 0.70227 0.20705 0.0
O272 O 0.44605 0.66982 0.17218 0.0
C273 C 0.43182 0.03347 0.24975 0.0
O274 O 0.49168 0.03653 0.27071 0.0
O275 O 0.55045 0.06326 0.18089 0.0
Zn276 Zn 0.46243 0.06653 0.21907 0.0
O277 O 0.48265 0.07208 0.28648 0.0
C278 C 0.4302 0.10072 0.20865 0.0
O279 O 0.49083 0.10108 0.23027 0.0
O280 O 0.40743 0.04466 0.22182 0.0
C281 C 0.43087 0.07766 0.31001 0.0
O282 O 0.37005 0.07939 0.28918 0.0
C283 C 0.61138 0.06667 0.19605 0.0
O284 O 0.61847 0.07277 0.23883 0.0
O285 O 0.40607 0.08643 0.19489 0.0
C286 C 0.47562 0.02315 0.56228 0.0
O287 O 0.41536 0.0269 0.54273 0.0
O288 O 0.34663 0.05098 0.61774 0.0
Zn289 Zn 0.44538 0.05516 0.59464 0.0
O290 O 0.44548 0.06259 0.52817 0.0
C291 C 0.46877 0.07714 0.67284 0.0
O292 O 0.43405 0.06504 0.69464 0.0
O293 O 0.5009 0.03349 0.59238 0.0
C294 C 0.4292 0.0771 0.51197 0.0
O295 O 0.40587 0.0891 0.54027 0.0
C296 C 0.29283 0.05183 0.59158 0.0
O297 O 0.30092 0.05508 0.54667 0.0
O298 O 0.4875 0.07455 0.63068 0.0
C299 C 0.27795 0.7236 0.54094 0.0
O300 O 0.3383 0.71957 0.52183 0.0
O301 O 0.39078 0.69096 0.59042 0.0
Zn302 Zn 0.29457 0.68947 0.56071 0.0
O303 O 0.30613 0.68543 0.49205 0.0
C304 C 0.27325 0.65528 0.57214 0.0
O305 O 0.32922 0.65672 0.54562 0.0
O306 O 0.24559 0.71223 0.5644 0.0
C307 C 0.26063 0.67884 0.46515 0.0
O308 O 0.20031 0.6739 0.48253 0.0
C309 C 0.446 0.69102 0.56537 0.0
O310 O 0.44009 0.69029 0.51946 0.0
O311 O 0.24373 0.66887 0.58662 0.0
C312 C 0.57891 0.78801 0.2526 0.0
O313 O 0.64165 0.78986 0.23448 0.0
O314 O 0.70011 0.818 0.31201 0.0
Zn315 Zn 0.61154 0.82164 0.27478 0.0
O316 O 0.62973 0.8253 0.20678 0.0
C317 C 0.52874 0.84452 0.33604 0.0
O318 O 0.51674 0.83108 0.36229 0.0
O319 O 0.55266 0.80038 0.2758 0.0
C320 C 0.67242 0.8347 0.18466 0.0
O321 O 0.71703 0.84435 0.20761 0.0
C322 C 0.75959 0.81416 0.295 0.0
O323 O 0.76652 0.81221 0.24938 0.0
O324 O 0.5639 0.84276 0.29845 0.0
C325 C 0.69803 0.45221 0.25853 0.0
O326 O 0.63476 0.44877 0.24328 0.0
O327 O 0.58429 0.42448 0.32978 0.0
Zn328 Zn 0.67242 0.4197 0.29188 0.0
O329 O 0.64489 0.41362 0.22652 0.0
C330 C 0.73444 0.39523 0.35819 0.0
O331 O 0.71169 0.40555 0.39134 0.0
O332 O 0.72845 0.4413 0.28457 0.0
C333 C 0.68776 0.40738 0.19709 0.0
O334 O 0.75175 0.40387 0.21077 0.0
C335 C 0.52483 0.41998 0.31392 0.0
O336 O 0.52207 0.41143 0.2742 0.0
O337 O 0.72611 0.39944 0.31556 0.0
C338 C 0.54815 0.4704 0.96623 0.0
O339 O 0.60445 0.46556 0.98896 0.0
O340 O 0.66272 0.44032 0.89013 0.0
Zn341 Zn 0.57277 0.43797 0.92695 0.0
O342 O 0.59329 0.42938 0.99105 0.0
C343 C 0.52408 0.41553 0.85474 0.0
O344 O 0.55817 0.42637 0.82805 0.0
O345 O 0.52306 0.46053 0.93487 0.0
C346 C 0.63174 0.41661 1e-05 0.0
O347 O 0.66467 0.40869 0.96578 0.0
C348 C 0.72202 0.4434 0.9084 0.0
O349 O 0.72595 0.4462 0.95386 0.0
O350 O 0.51569 0.41923 0.89782 0.0
C351 C 0.6394 0.76648 0.95981 0.0
O352 O 0.58698 0.7732 0.98328 0.0
O353 O 0.52226 0.79614 0.88709 0.0
Zn354 Zn 0.62261 0.79729 0.90907 0.0
O355 O 0.62421 0.811 0.96868 0.0
C356 C 0.74273 0.81468 0.86373 0.0
O357 O 0.78395 0.8071 0.89396 0.0
O358 O 0.66273 0.77428 0.92387 0.0
C359 C 0.67954 0.81196 -0.00678 0.0
O360 O 0.73483 0.80318 0.9805 0.0
C361 C 0.49391 0.81055 0.87938 0.0
O362 O 0.5316 0.82439 0.88565 0.0
O363 O 0.67819 0.81081 0.86206 0.0
C364 C 0.39462 0.21395 0.75356 0.0
O365 O 0.33732 0.21104 0.7777 0.0
O366 O 0.28203 0.18127 0.6735 0.0
Zn367 Zn 0.36103 0.18053 0.72014 0.0
O368 O 0.324 0.17619 0.78479 0.0
C369 C 0.39164 0.14609 0.71689 0.0
O370 O 0.32746 0.14673 0.73316 0.0
O371 O 0.41538 0.20272 0.72419 0.0
C372 C 0.26291 0.17237 0.79878 0.0
O373 O 0.21122 0.17108 0.76867 0.0
C374 C 0.22987 0.19124 0.67695 0.0
O375 O 0.22845 0.20257 0.71102 0.0
O376 O 0.42168 0.15997 0.70546 0.0
C377 C 0.31264 0.52805 0.71579 0.0
O378 O 0.37309 0.53224 0.73438 0.0
O379 O 0.43084 0.55601 0.65298 0.0
Zn380 Zn 0.33469 0.5607 0.67984 0.0
O381 O 0.34388 0.57104 0.74392 0.0
C382 C 0.23908 0.58818 0.65 0.0
O383 O 0.20825 0.58606 0.69077 0.0
O384 O 0.28337 0.5385 0.68781 0.0
C385 C 0.29397 0.56969 0.77313 0.0
O386 O 0.23647 0.56181 0.76019 0.0
C387 C 0.48731 0.55764 0.67619 0.0
O388 O 0.48403 0.56228 0.72051 0.0
O389 O 0.28781 0.57799 0.63791 0.0
C390 C 0.42344 0.53581 0.01775 0.0
O391 O 0.36608 0.54135 -0.00242 0.0
O392 O 0.32111 0.56931 0.08862 0.0
Zn393 Zn 0.41274 0.5692 0.05289 0.0
O394 O 0.39258 0.57634 0.98696 0.0
C395 C 0.47506 0.59193 0.12085 0.0
O396 O 0.43627 0.58313 0.15025 0.0
O397 O 0.45462 0.54559 0.04685 0.0
C398 C 0.33257 0.58045 0.97174 0.0
O399 O 0.27929 0.58092 0.00088 0.0
C400 C 0.28837 0.55632 0.1038 0.0
O401 O 0.31699 0.54116 0.09945 0.0
O402 O 0.47771 0.58719 0.07822 0.0
C403 C 0.29984 0.21552 0.04397 0.0
O404 O 0.3538 0.20879 0.02216 0.0
O405 O 0.41999 0.18747 0.09832 0.0
Zn406 Zn 0.31797 0.18421 0.08286 0.0
O407 O 0.30887 0.17362 0.01989 0.0
C408 C 0.30885 0.16609 0.16717 0.0
O409 O 0.3463 0.17911 0.18182 0.0
O410 O 0.27187 0.20713 0.07734 0.0
C411 C 0.24949 0.17385 2e-05 0.0
O412 O 0.19574 0.1801 0.02309 0.0
C413 C 0.47074 0.18376 0.07125 0.0
O414 O 0.45769 0.17751 0.02929 0.0
O415 O 0.27778 0.16739 0.128 0.0
C416 C 0.98728 0.38876 0.34339 0.0
C417 C 0.97131 0.39373 0.38966 0.0
C418 C 0.98205 0.37174 0.3293 0.0
C419 C 0.96045 0.35897 0.36081 0.0
H420 H 0.00856 0.39787 0.31862 0.0
H421 H 0.99918 0.36842 0.29411 0.0
S422 S 0.89611 0.36584 0.48225 0.0
N423 N 0.92039 0.385 0.46441 0.0
N424 N 0.91097 0.35283 0.43758 0.0
C425 C 0.93615 0.364 0.40531 0.0
C426 C 0.94145 0.38145 0.41983 0.0
C427 C 0.29008 0.88518 0.37286 0.0
C428 C 0.29536 0.89873 0.40536 0.0
C429 C 0.28027 0.86834 0.38782 0.0
C430 C 0.27606 0.86434 0.43585 0.0
H431 H 0.28859 0.88765 0.33544 0.0
H432 H 0.27184 0.85856 0.36143 0.0
S433 S 0.30428 0.89449 0.53507 0.0
N434 N 0.3087 0.90654 0.48766 0.0
N435 N 0.29017 0.87489 0.51591 0.0
C436 C 0.28928 0.87745 0.46869 0.0
C437 C 0.29909 0.89465 0.4534 0.0
C438 C 0.01726 0.88868 0.8712 0.0
C439 C 0.05099 0.88767 0.91498 0.0
C440 C 0.98968 0.87403 0.84966 0.0
C441 C 0.99523 0.85791 0.87118 0.0
H442 H 0.01631 0.90058 0.85195 0.0
H443 H 0.96882 0.8752 0.81445 0.0
S444 S 0.06132 0.8494 0.99126 0.0
N445 N 0.07553 0.86996 0.98315 0.0
N446 N 0.02429 0.84246 0.94244 0.0
C447 C 0.02163 0.85713 0.91714 0.0
C448 C 0.04948 0.87202 0.9391 0.0
C449 C 0.13438 0.3675 0.7852 0.0
C450 C 0.16651 0.38089 0.81022 0.0
C451 C 0.1475 0.35044 0.79619 0.0
C452 C 0.19278 0.34606 0.83308 0.0
H453 H 0.09643 0.37015 0.75794 0.0
H454 H 0.11806 0.34073 0.77764 0.0
S455 S 0.30147 0.37616 0.90279 0.0
N456 N 0.25417 0.38858 0.86845 0.0
N457 N 0.27854 0.35639 0.88962 0.0
C458 C 0.23039 0.35925 0.85545 0.0
C459 C 0.21727 0.37671 0.84396 0.0
C460 C 0.91432 0.60616 0.67022 0.0
C461 C 0.95303 0.60126 0.63043 0.0
C462 C 0.89753 0.62326 0.67828 0.0
C463 C 0.91966 0.63617 0.64738 0.0
H464 H 0.89197 0.59667 0.69341 0.0
H465 H 0.86423 0.62628 0.708 0.0
S466 S 0.03648 0.63046 0.54455 0.0
N467 N 0.02313 0.6109 0.56418 0.0
N468 N 0.9923 0.64325 0.58005 0.0
C469 C 0.96489 0.63171 0.61044 0.0
C470 C 0.98142 0.61418 0.60181 0.0
C471 C 0.78197 0.09862 0.61278 0.0
C472 C 0.80394 0.08461 0.58514 0.0
C473 C 0.78635 0.11539 0.59585 0.0
C474 C 0.8131 0.11871 0.55081 0.0
H475 H 0.76566 0.09678 0.64888 0.0
H476 H 0.77343 0.12583 0.61935 0.0
S477 S 0.86139 0.0865 0.46059 0.0
N478 N 0.84118 0.07516 0.50747 0.0
N479 N 0.84994 0.10664 0.47599 0.0
C480 C 0.82825 0.10479 0.52121 0.0
C481 C 0.82338 0.08774 0.53825 0.0
C482 C 0.03173 0.14083 0.14733 0.0
C483 C 0.04392 0.15096 0.10735 0.0
C484 C 0.04206 0.12317 0.14633 0.0
C485 C 0.06448 0.11486 0.10513 0.0
H486 H 0.01049 0.14646 0.17912 0.0
H487 H 0.02752 0.11592 0.17717 0.0
S488 S 0.1174 0.13604 -0.00614 0.0
N489 N 0.08937 0.15179 0.02766 0.0
N490 N 0.11005 0.11855 0.02574 0.0
C491 C 0.08408 0.12508 0.06647 0.0
C492 C 0.07341 0.14315 0.06755 0.0
C493 C 0.78808 0.60067 0.10507 0.0
C494 C 0.84016 0.5893 0.08916 0.0
C495 C 0.79556 0.6184 0.0998 0.0
C496 C 0.85614 0.62535 0.07944 0.0
H497 H 0.74228 0.59587 0.12316 0.0
H498 H 0.75504 0.6267 0.11349 0.0
S499 S 0.00496 0.60108 0.02821 0.0
N500 N 0.95182 0.58631 0.04884 0.0
N501 N 0.96643 0.61946 0.03973 0.0
C502 C 0.90706 0.61409 0.06149 0.0
C503 C 0.89886 0.5961 0.06605 0.0
C504 C 0.49839 0.38483 0.87275 0.0
C505 C 0.51558 0.3975 0.83945 0.0
C506 C 0.50835 0.36743 0.86291 0.0
C507 C 0.53615 0.36215 0.81957 0.0
H508 H 0.48157 0.38837 0.90781 0.0
H509 H 0.49894 0.35821 0.89051 0.0
S510 S 0.57323 0.38967 0.71662 0.0
N511 N 0.54932 0.40311 0.75843 0.0
N512 N 0.56869 0.37049 0.74031 0.0
C513 C 0.54654 0.37447 0.78443 0.0
C514 C 0.5359 0.39213 0.79423 0.0
C515 C 0.73569 0.83552 0.79908 0.0
C516 C 0.76266 0.8312 0.84325 0.0
C517 C 0.73055 0.85256 0.78531 0.0
C518 C 0.75154 0.86589 0.81543 0.0
H519 H 0.71327 0.82576 0.77661 0.0
H520 H 0.70539 0.85534 0.7521 0.0
S521 S 0.83445 0.8611 0.93229 0.0
N522 N 0.81833 0.84135 0.91493 0.0
N523 N 0.80822 0.87354 0.88897 0.0
C524 C 0.7853 0.86168 0.85765 0.0
C525 C 0.79094 0.84423 0.87162 0.0
C526 C 0.53328 0.8761 0.32534 0.0
C527 C 0.5154 0.86208 0.35382 0.0
C528 C 0.53869 0.89257 0.34405 0.0
C529 C 0.52592 0.89575 0.39193 0.0
H530 H 0.54773 0.87424 0.28886 0.0
H531 H 0.55719 0.90269 0.32135 0.0
S532 S 0.46335 0.86412 0.47941 0.0
N533 N 0.47414 0.85295 0.43067 0.0
N534 N 0.48387 0.88397 0.46588 0.0
C535 C 0.50031 0.88223 0.41963 0.0
C536 C 0.49514 0.86537 0.40055 0.0
C537 C 0.72754 0.35257 0.41883 0.0
C538 C 0.74725 0.34114 0.38287 0.0
C539 C 0.73003 0.37025 0.41221 0.0
C540 C 0.75161 0.37721 0.36911 0.0
H541 H 0.7064 0.34783 0.45164 0.0
H542 H 0.71003 0.3784 0.43994 0.0
S543 S 0.82284 0.35297 0.26736 0.0
N544 N 0.79977 0.33812 0.30541 0.0
N545 N 0.80439 0.37141 0.29279 0.0
C546 C 0.77835 0.366 0.33464 0.0
C547 C 0.77621 0.34794 0.34155 0.0
C548 C 0.46824 0.61747 0.17297 0.0
C549 C 0.49789 0.60947 0.13343 0.0
C550 C 0.47326 0.63512 0.17941 0.0
C551 C 0.5086 0.64553 0.14681 0.0
H552 H 0.43663 0.61029 0.19757 0.0
H553 H 0.44592 0.64073 0.20904 0.0
S554 S 0.60959 0.63033 0.04347 0.0
N555 N 0.57426 0.61286 0.06555 0.0
N556 N 0.58389 0.64615 0.07787 0.0
C557 C 0.54501 0.6375 0.10992 0.0
C558 C 0.53955 0.61944 0.10316 0.0
C559 C 0.31113 0.13434 0.1566 0.0
C560 C 0.32541 0.14877 0.18486 0.0
C561 C 0.34279 0.11855 0.16561 0.0
C562 C 0.38981 0.11665 0.20309 0.0
H563 H 0.27887 0.13545 0.12549 0.0
H564 H 0.33328 0.10805 0.14159 0.0
S565 S 0.43109 0.14914 0.29415 0.0
N566 N 0.3798 0.15918 0.25668 0.0
N567 N 0.43924 0.12953 0.27352 0.0
C568 C 0.39911 0.13046 0.23419 0.0
C569 C 0.3667 0.14649 0.22519 0.0
C570 C 0.42041 0.09871 0.72836 0.0
C571 C 0.46546 0.09493 0.69068 0.0
C572 C 0.40032 0.1155 0.73809 0.0
C573 C 0.42515 0.12922 0.71102 0.0
H574 H 0.39641 0.08859 0.7486 0.0
H575 H 0.36242 0.11763 0.76583 0.0
S576 S 0.55556 0.1266 0.6148 0.0
N577 N 0.54283 0.10658 0.63067 0.0
N578 N 0.50511 0.13825 0.64947 0.0
C579 C 0.47574 0.12587 0.67641 0.0
C580 C 0.49594 0.10869 0.66614 0.0
C581 C 0.28295 0.62373 0.56627 0.0
C582 C 0.25041 0.63802 0.5869 0.0
C583 C 0.27365 0.60736 0.5844 0.0
C584 C 0.23158 0.60453 0.62417 0.0
H585 H 0.3189 0.62523 0.53712 0.0
H586 H 0.30335 0.59703 0.56872 0.0
S587 S 0.12101 0.63698 0.6841 0.0
N588 N 0.1644 0.64787 0.6439 0.0
N589 N 0.14662 0.61695 0.67825 0.0
C590 C 0.19247 0.61839 0.64196 0.0
C591 C 0.20204 0.63518 0.62332 0.0
C592 C 0.40971 0.30198 0.33725 0.0
C593 C 0.40749 0.29787 0.38534 0.0
C594 C 0.34861 0.30563 0.31212 0.0
C595 C 0.28255 0.3054 0.33399 0.0
H596 H 0.45919 0.30262 0.31878 0.0
H597 H 0.35361 0.30891 0.27533 0.0
S598 S 0.24721 0.2946 0.4588 0.0
N599 N 0.33294 0.29317 0.45357 0.0
N600 N 0.21829 0.30007 0.40634 0.0
C601 C 0.27924 0.30097 0.38185 0.0
C602 C 0.34156 0.29718 0.40748 0.0
C603 C 0.00306 0.94643 0.39984 0.0
C604 C 0.00884 0.94785 0.35074 0.0
C605 C 0.93767 0.94519 0.42182 0.0
C606 C 0.87519 0.94516 0.39563 0.0
H607 H 0.04947 0.94618 0.42161 0.0
H608 H 0.93641 0.94399 0.45972 0.0
S609 S 0.86146 0.94861 0.26578 0.0
N610 N 0.94622 0.94926 0.27639 0.0
N611 N 0.82347 0.94687 0.31766 0.0
C612 C 0.88013 0.94674 0.34645 0.0
C613 C 0.94683 0.94811 0.32405 0.0
C614 C 0.42766 0.9253 0.82361 0.0
C615 C 0.49374 0.92403 0.84507 0.0
C616 C 0.36676 0.92781 0.85024 0.0
C617 C 0.36916 0.92913 0.89958 0.0
H618 H 0.4226 0.92435 0.78578 0.0
H619 H 0.31735 0.92863 0.83185 0.0
S620 S 0.52921 0.9268 0.97327 0.0
N621 N 0.55786 0.92439 0.91894 0.0
N622 N 0.44373 0.92909 0.9689 0.0
C623 C 0.43496 0.92795 0.92158 0.0
C624 C 0.49706 0.92541 0.89442 0.0
C625 C 0.86095 0.30538 0.83074 0.0
C626 C 0.79693 0.30558 0.85518 0.0
C627 C 0.92495 0.30503 0.85457 0.0
C628 C 0.92787 0.30484 0.904 0.0
H629 H 0.862 0.30567 0.79266 0.0
H630 H 0.9725 0.30508 0.8339 0.0
S631 S 0.77525 0.30475 0.98495 0.0
N632 N 0.74049 0.30518 0.93191 0.0
N633 N 0.86066 0.30451 0.97674 0.0
C634 C 0.86425 0.30476 0.92901 0.0
C635 C 0.7989 0.30514 0.90467 0.0
C636 C 0.58767 0.68898 0.65866 0.0
C637 C 0.65006 0.69023 0.63255 0.0
C638 C 0.52217 0.6895 0.63675 0.0
C639 C 0.51613 0.69124 0.58773 0.0
H640 H 0.58915 0.68744 0.69646 0.0
H641 H 0.47594 0.68829 0.65851 0.0
S642 S 0.6633 0.69579 0.50324 0.0
N643 N 0.70146 0.69384 0.55492 0.0
N644 N 0.57853 0.69481 0.51373 0.0
C645 C 0.57806 0.69279 0.56116 0.0
C646 C 0.64487 0.69229 0.58354 0.0
C647 C 0.14858 0.04587 0.68198 0.0
C648 C 0.08684 0.04757 0.65554 0.0
C649 C 0.21456 0.047 0.66084 0.0
C650 C 0.22186 0.04991 0.61229 0.0
H651 H 0.14622 0.04379 0.71956 0.0
H652 H 0.26023 0.04576 0.68306 0.0
S653 S 0.07653 0.05498 0.52682 0.0
N654 N 0.03719 0.05205 0.5778 0.0
N655 N 0.16111 0.05418 0.53805 0.0
C656 C 0.16052 0.05139 0.58517 0.0
C657 C 0.09315 0.05022 0.60678 0.0
C658 C 0.73945 0.07037 0.18006 0.0
C659 C 0.67366 0.06432 0.16535 0.0
C660 C 0.7986 0.06897 0.15111 0.0
C661 C 0.79454 0.06144 0.10621 0.0
H662 H 0.74536 0.07652 0.21397 0.0
H663 H 0.84761 0.07413 0.16383 0.0
S664 S 0.63559 0.04244 0.05218 0.0
N665 N 0.60881 0.04971 0.10362 0.0
N666 N 0.71965 0.04705 0.04938 0.0
C667 C 0.72944 0.05491 0.09152 0.0
C668 C 0.66916 0.05636 0.12099 0.0
C669 C 0.05948 0.6947 0.13242 0.0
C670 C 0.05973 0.69085 0.08412 0.0
C671 C 0.1218 0.69751 0.15693 0.0
C672 C 0.18715 0.6965 0.13428 0.0
H673 H 0.01076 0.69533 0.1518 0.0
H674 H 0.11849 0.7001 0.19428 0.0
S675 S 0.21678 0.68779 0.00748 0.0
N676 N 0.13109 0.68694 0.01391 0.0
N677 N 0.24822 0.69216 0.06015 0.0
C678 C 0.18825 0.69312 0.08569 0.0
C679 C 0.1246 0.69033 0.06059 0.0
C680 C 0.39133 0.82836 0.85618 0.0
C681 C 0.41965 0.81206 0.86443 0.0
C682 C 0.32146 0.8305 0.84291 0.0
C683 C 0.27642 0.81645 0.83724 0.0
H684 H 0.42324 0.83969 0.86015 0.0
H685 H 0.30271 0.84338 0.83728 0.0
S686 S 0.32447 0.77091 0.85377 0.0
N687 N 0.39709 0.78149 0.8654 0.0
N688 N 0.26558 0.7855 0.84039 0.0
C689 C 0.30398 0.80001 0.84501 0.0
C690 C 0.3755 0.79782 0.85858 0.0
C691 C 0.85226 0.44529 0.90074 0.0
C692 C 0.78679 0.44249 0.87954 0.0
C693 C 0.91462 0.44352 0.87527 0.0
C694 C 0.91431 0.43891 0.8274 0.0
H695 H 0.85574 0.44867 0.93761 0.0
H696 H 0.9635 0.44568 0.89352 0.0
S697 S 0.75661 0.43047 0.75471 0.0
N698 N 0.72545 0.43515 0.80728 0.0
N699 N 0.8424 0.43186 0.75948 0.0
C700 C 0.84913 0.43634 0.80545 0.0
C701 C 0.78553 0.43813 0.83145 0.0
C702 C 0.39431 0.42175 0.31588 0.0
C703 C 0.45881 0.42485 0.33817 0.0
C704 C 0.33082 0.42624 0.33715 0.0
C705 C 0.32877 0.43397 0.38184 0.0
H706 H 0.39249 0.4158 0.2815 0.0
H707 H 0.28291 0.42341 0.31843 0.0
S708 S 0.48297 0.44509 0.45522 0.0
N709 N 0.51671 0.43636 0.40745 0.0
N710 N 0.39745 0.44474 0.44759 0.0
C711 C 0.39291 0.43727 0.40452 0.0
C712 C 0.45779 0.43274 0.38269 0.0
C713 C 0.88904 0.81446 0.30753 0.0
C714 C 0.82127 0.81267 0.3262 0.0
C715 C 0.94818 0.81394 0.33657 0.0
C716 C 0.94193 0.8113 0.38528 0.0
H717 H 0.89654 0.81665 0.2703 0.0
H718 H 0.9992 0.81562 0.32068 0.0
S719 S 0.77636 0.80539 0.45157 0.0
N720 N 0.75145 0.80785 0.39648 0.0
N721 N 0.86247 0.80667 0.45089 0.0
C722 C 0.87455 0.80916 0.40431 0.0
C723 C 0.81428 0.80992 0.37484 0.0
C724 C 0.62292 0.19211 0.15332 0.0
C725 C 0.68215 0.18962 0.12473 0.0
C726 C 0.55528 0.19036 0.13546 0.0
C727 C 0.54359 0.18597 0.08815 0.0
H728 H 0.62848 0.19539 0.19014 0.0
H729 H 0.51183 0.1923 0.15933 0.0
S730 S 0.68067 0.17838 -0.00214 0.0
N731 N 0.72473 0.1828 0.04626 0.0
N732 N 0.59725 0.17947 0.01253 0.0
C733 C 0.60224 0.18359 0.05883 0.0
C734 C 0.67151 0.18544 0.07712 0.0
C735 C 0.17649 0.54341 0.13282 0.0
C736 C 0.21582 0.55809 0.12208 0.0
C737 C 0.10644 0.54458 0.14708 0.0
C738 C 0.07277 0.56047 0.15149 0.0
H739 H 0.19948 0.53083 0.1295 0.0
H740 H 0.07846 0.53287 0.15449 0.0
S741 S 0.15255 0.6029 0.12858 0.0
N742 N 0.21585 0.58914 0.11771 0.0
N743 N 0.08457 0.5913 0.1445 0.0
C744 C 0.11172 0.5753 0.14159 0.0
C745 C 0.18305 0.57411 0.12692 0.0
C746 C 0.62084 0.54767 0.58112 0.0
C747 C 0.68505 0.55213 0.60195 0.0
C748 C 0.55774 0.54914 0.60577 0.0
C749 C 0.55587 0.55512 0.65245 0.0
H750 H 0.61879 0.5433 0.545 0.0
H751 H 0.50988 0.5458 0.58762 0.0
S752 S 0.70984 0.56763 0.7243 0.0
N753 N 0.7432 0.56212 0.67293 0.0
N754 N 0.62462 0.56485 0.71936 0.0
C755 C 0.61992 0.55911 0.67435 0.0
C756 C 0.68441 0.55762 0.64913 0.0
C757 C 0.11687 0.17427 0.57782 0.0
C758 C 0.04986 0.18051 0.58889 0.0
C759 C 0.17482 0.17817 0.60587 0.0
C760 C 0.16843 0.1886 0.646 0.0
H761 H 0.12472 0.16602 0.54766 0.0
H762 H 0.22496 0.17277 0.59619 0.0
S763 S 0.00505 0.20893 0.68923 0.0
N764 N 0.98083 0.19819 0.64198 0.0
N765 N 0.08984 0.20557 0.69461 0.0
C766 C 0.10206 0.19532 0.65686 0.0
C767 C 0.04279 0.19124 0.62841 0.0
C768 C 0.00741 0.24695 0.17716 0.0
C769 C 0.94027 0.24225 0.19253 0.0
C770 C 0.03945 0.26191 0.19346 0.0
C771 C 0.00585 0.27279 0.22591 0.0
H772 H 0.03619 0.23888 0.15298 0.0
H773 H 0.09157 0.26479 0.18084 0.0
S774 S 0.82773 0.2669 0.27515 0.0
N775 N 0.83968 0.25018 0.24063 0.0
N776 N 0.90026 0.27821 0.27125 0.0
C777 C 0.93798 0.2685 0.24072 0.0
C778 C 0.90514 0.25327 0.22401 0.0
C779 C 0.29202 -0.00085 0.24413 0.0
C780 C 0.3109 0.98785 0.28039 0.0
C781 C 0.33155 0.01375 0.23438 0.0
C782 C 0.39187 0.0177 0.26039 0.0
H783 H 0.2463 0.99672 0.22269 0.0
H784 H 0.3146 0.02198 0.20606 0.0
S785 S 0.46338 0.99255 0.36001 0.0
N786 N 0.39363 0.98177 0.34303 0.0
N787 N 0.46809 0.00922 0.32483 0.0
C788 C 0.41137 0.00656 0.29699 0.0
C789 C 0.37088 0.99167 0.30698 0.0
C790 C 0.03187 0.00824 0.96271 0.0
C791 C 0.05986 0.01927 -0.00287 0.0
C792 C 0.06172 0.99227 0.95329 0.0
C793 C 0.12104 0.98658 0.97781 0.0
H794 H 0.98598 0.01188 0.94284 0.0
H795 H 0.03754 0.98428 0.92677 0.0
S796 S 0.21563 0.01063 0.07105 0.0
N797 N 0.15118 0.02342 0.05547 0.0
N798 N 0.2075 0.99343 0.03787 0.0
C799 C 0.15031 -0.00244 0.01196 0.0
C800 C 0.11972 0.01387 0.0216 0.0
C801 C 0.20895 0.23843 0.04849 0.0
C802 C 0.26966 0.23185 0.02732 0.0
C803 C 0.17799 0.25348 0.03219 0.0
C804 C 0.20636 0.26258 -0.00601 0.0
H805 H 0.1847 0.23189 0.07777 0.0
H806 H 0.13126 0.25798 0.04985 0.0
S807 S 0.36553 0.25088 0.92645 0.0
N808 N 0.35763 0.23571 0.96618 0.0
N809 N 0.29922 0.26393 0.93563 0.0
C810 C 0.26722 0.25618 0.97253 0.0
C811 C 0.29891 0.24085 0.98918 0.0
C812 C 0.99047 0.7401 0.69869 0.0
C813 C 0.92229 0.73607 0.71333 0.0
C814 C 0.02455 0.75477 0.71512 0.0
C815 C 0.99219 0.76595 0.74735 0.0
H816 H 0.01812 0.7318 0.67453 0.0
H817 H 0.07696 0.75729 0.70245 0.0
S818 S 0.81446 0.76101 0.79812 0.0
N819 N 0.82375 0.74441 0.76282 0.0
N820 N 0.88819 0.77184 0.79394 0.0
C821 C 0.92424 0.76201 0.76279 0.0
C822 C 0.88923 0.74712 0.74575 0.0
C823 C 0.72822 0.97953 0.73589 0.0
C824 C 0.76247 0.96817 0.7665 0.0
C825 C 0.75769 0.99528 0.72392 0.0
C826 C 0.82267 0.0004 0.74207 0.0
H827 H 0.67813 0.97626 0.7206 0.0
H828 H 0.72882 0.00354 0.7005 0.0
S829 S 0.93369 0.97552 0.82438 0.0
N830 N 0.86485 0.96325 0.81521 0.0
N831 N 0.92048 0.99286 0.79279 0.0
C832 C 0.85751 0.98923 0.77303 0.0
C833 C 0.82743 0.97312 0.78517 0.0
C834 C 0.74139 0.74672 0.95848 0.0
C835 C 0.67641 0.75122 0.97795 0.0
C836 C 0.78058 0.73325 0.97672 0.0
C837 C 0.7564 0.72353 0.01498 0.0
H838 H 0.76313 0.75382 0.9293 0.0
H839 H 0.83037 0.73043 0.96025 0.0
S840 S 0.58813 0.7295 0.07771 0.0
N841 N 0.58841 0.74454 0.03714 0.0
N842 N 0.66231 0.71898 0.07101 0.0
C843 C 0.69081 0.72757 0.03427 0.0
C844 C 0.65084 0.74147 0.0159 0.0
C845 C 0.2055 0.5099 0.72025 0.0
C846 C 0.27687 0.51211 0.73018 0.0
C847 C 0.16971 0.49522 0.73449 0.0
C848 C 0.20374 0.48206 0.75912 0.0
H849 H 0.17663 0.51964 0.70156 0.0
H850 H 0.11477 0.4942 0.72572 0.0
S851 S 0.39118 0.48132 0.79282 0.0
N852 N 0.38091 0.49975 0.76574 0.0
N853 N 0.31356 0.47211 0.79233 0.0
C854 C 0.27521 0.48407 0.7694 0.0
C855 C 0.31175 0.49909 0.75495 0.0
C856 C 0.06884 0.49548 0.49425 0.0
C857 C 0.04634 0.48517 0.45649 0.0
C858 C 0.02965 0.50954 0.50957 0.0
C859 C 0.96619 0.51389 0.48786 0.0
H860 H 0.11668 0.49253 0.51286 0.0
H861 H 0.04902 0.51691 0.53908 0.0
S862 S 0.88572 0.49169 0.38558 0.0
N863 N 0.95767 0.48078 0.3964 0.0
N864 N 0.88402 0.50717 0.42501 0.0
C865 C 0.94376 0.50395 0.44928 0.0
C866 C 0.98383 0.48963 0.43361 0.0
C867 C 0.28352 0.75218 0.50239 0.0
C868 C 0.24718 0.74065 0.53152 0.0
C869 C 0.25521 0.76808 0.49057 0.0
C870 C 0.1896 0.77321 0.50769 0.0
H871 H 0.33427 0.7489 0.48807 0.0
H872 H 0.28534 0.77645 0.46807 0.0
S873 S 0.0721 0.74773 0.58435 0.0
N874 N 0.14132 0.73546 0.5767 0.0
N875 N 0.0882 0.76538 0.55476 0.0
C876 C 0.15262 0.76186 0.53699 0.0
C877 C 0.18135 0.74559 0.54884 0.0
C878 C 0.79515 0.47342 0.26709 0.0
C879 C 0.7332 0.46831 0.24459 0.0
C880 C 0.82851 0.48873 0.25517 0.0
C881 C 0.80145 0.49957 0.22019 0.0
H882 H 0.81776 0.46567 0.29463 0.0
H883 H 0.87561 0.49215 0.27406 0.0
S884 S 0.64303 0.49146 0.14816 0.0
N885 N 0.64784 0.47491 0.18375 0.0
N886 N 0.7105 0.50366 0.16157 0.0
C887 C 0.74044 0.49441 0.19652 0.0
C888 C 0.70632 0.47881 0.20871 0.0
C889 C 0.70062 0.22212 0.50568 0.0
C890 C 0.76766 0.21881 0.48767 0.0
C891 C 0.6621 0.23631 0.49079 0.0
C892 C 0.68892 0.24778 0.45715 0.0
H893 H 0.67805 0.21385 0.5321 0.0
H894 H 0.61137 0.23847 0.50667 0.0
S895 S 0.85932 0.24392 0.39552 0.0
N896 N 0.85747 0.22754 0.43181 0.0
N897 N 0.78502 0.25419 0.40404 0.0
C898 C 0.75503 0.24433 0.43772 0.0
C899 C 0.79438 0.22987 0.45294 0.0
C900 C 0.44783 0.2567 0.80624 0.0
C901 C 0.51335 0.2599 0.78572 0.0
C902 C 0.40989 0.24191 0.79524 0.0
C903 C 0.43555 0.22974 0.76292 0.0
H904 H 0.42557 0.26567 0.83112 0.0
H905 H 0.35992 0.24004 0.81241 0.0
S906 S 0.6032 0.23244 0.69747 0.0
N907 N 0.60154 0.24985 0.73023 0.0
N908 N 0.53006 0.22217 0.70953 0.0
C909 C 0.50062 0.23289 0.74159 0.0
C910 C 0.53953 0.24791 0.75301 0.0
C911 C 0.48726 -0.00202 0.50889 0.0
C912 C 0.51617 0.00836 0.54445 0.0
C913 C 0.52544 0.98465 0.48846 0.0
C914 C 0.59415 0.98109 0.50276 0.0
H915 H 0.43469 0.00022 0.4962 0.0
H916 H 0.50049 0.97701 0.46149 0.0
S917 S 0.69462 0.00443 0.59441 0.0
N918 N 0.61803 0.01411 0.59313 0.0
N919 N 0.68995 0.98906 0.55476 0.0
C920 C 0.62378 0.99128 0.5385 0.0
C921 C 0.58478 0.00489 0.55934 0.0
C922 C 0.57095 0.75859 0.21857 0.0
C923 C 0.53861 0.77222 0.24267 0.0
C924 C 0.53403 0.74372 0.20692 0.0
C925 C 0.46309 0.74186 0.21875 0.0
H926 H 0.62549 0.75935 0.20848 0.0
H927 H 0.56162 0.73357 0.18884 0.0
S928 S 0.35328 0.77393 0.2812 0.0
N929 N 0.43106 0.78293 0.27757 0.0
N930 N 0.36141 0.75512 0.25556 0.0
C931 C 0.42988 0.75544 0.24268 0.0
C932 C 0.46765 0.77056 0.25471 0.0
C933 C 0.54568 0.49763 0.01236 0.0
C934 C 0.51446 0.48692 0.97846 0.0
C935 C 0.51553 0.51325 0.02523 0.0
C936 C 0.45274 0.51886 0.00482 0.0
H937 H 0.59418 0.49399 0.02919 0.0
H938 H 0.54209 0.52102 0.05123 0.0
S939 S 0.34852 0.49543 0.91513 0.0
N940 N 0.41625 0.48293 0.92529 0.0
N941 N 0.35941 0.51224 0.94939 0.0
C942 C 0.42043 0.50821 0.97115 0.0
C943 C 0.45132 0.49228 0.95798 0.0
C944 C 0.13855 0.33527 0.13486 0.0
C945 C 0.07306 0.33991 0.15343 0.0
C946 C 0.14975 0.33467 0.08648 0.0
C947 C 0.09625 0.33887 0.05482 0.0
H948 H 0.18047 0.33107 0.15764 0.0
H949 H 0.19966 0.33 0.07373 0.0
S950 S 0.9193 0.35472 0.08512 0.0
N951 N 0.95677 0.351 0.13634 0.0
N952 N 0.97845 0.34988 0.04491 0.0
C953 C 0.03278 0.34512 0.07267 0.0
C954 C 0.02102 0.34564 0.1222 0.0
C955 C 0.19514 0.92697 0.10655 0.0
C956 C 0.12842 0.92401 0.08748 0.0
C957 C 0.20671 0.92605 0.15487 0.0
C958 C 0.15231 0.9219 0.18604 0.0
H959 H 0.23856 0.93061 0.08424 0.0
H960 H 0.25853 0.92896 0.168 0.0
S961 S 0.96913 0.9117 0.15399 0.0
N962 N 0.00787 0.91579 0.10336 0.0
N963 N 0.03008 0.91396 0.19458 0.0
C964 C 0.08604 0.91813 0.16748 0.0
C965 C 0.07396 0.91924 0.11809 0.0
C966 C 0.93629 0.65941 0.82976 0.0
C967 C 0.8972 0.67234 0.80802 0.0
C968 C 0.92979 0.6563 0.87798 0.0
C969 C 0.88494 0.66625 0.90601 0.0
H970 H 0.9719 0.65158 0.80936 0.0
H971 H 0.96119 0.64629 0.89348 0.0
S972 S 0.7716 0.70183 0.86558 0.0
N973 N 0.81215 0.69516 0.81773 0.0
N974 N 0.80016 0.68949 0.90834 0.0
C975 C 0.84532 0.67921 0.88449 0.0
C976 C 0.85137 0.68221 0.83544 0.0
C977 C 0.88256 0.07175 0.8435 0.0
C978 C 0.91896 0.07984 0.80689 0.0
C979 C 0.9022 0.07402 0.89026 0.0
C980 C 0.95951 0.08439 0.90234 0.0
H981 H 0.84008 0.06301 0.83594 0.0
H982 H 0.87411 0.06688 0.9168 0.0
S983 S 0.06525 0.11058 0.82014 0.0
N984 N 0.00965 0.10025 0.78599 0.0
N985 N 0.04701 0.10455 0.87434 0.0
C986 C 0.99307 0.09362 0.86642 0.0
C987 C 0.97264 0.09136 0.81854 0.0
C988 C 0.07739 0.83741 0.64944 0.0
C989 C 0.01174 0.83206 0.66616 0.0
C990 C 0.08799 0.84089 0.6019 0.0
C991 C 0.03329 0.83931 0.56928 0.0
H992 H 0.12222 0.83799 0.67263 0.0
H993 H 0.14052 0.84387 0.59016 0.0
S994 S 0.84854 0.82882 0.59603 0.0
N995 N 0.88876 0.82768 0.64726 0.0
N996 N 0.90913 0.83427 0.55752 0.0
C997 C 0.96588 0.83562 0.58599 0.0
C998 C 0.95501 0.83194 0.63458 0.0
C999 C 0.10564 0.42515 0.62532 0.0
C1000 C 0.16527 0.41943 0.64939 0.0
C1001 C 0.10086 0.42379 0.57656 0.0
C1002 C 0.15521 0.41654 0.54987 0.0
H1003 H 0.06294 0.43122 0.644 0.0
H1004 H 0.05467 0.42885 0.55954 0.0
S1005 S 0.31991 0.39817 0.59603 0.0
N1006 N 0.27805 0.40512 0.64313 0.0
N1007 N 0.26866 0.40257 0.55101 0.0
C1008 C 0.21369 0.40997 0.57347 0.0
C1009 C 0.21888 0.41145 0.62336 0.0
C1010 C 0.82357 0.15613 0.30447 0.0
C1011 C 0.86882 0.16875 0.28701 0.0
C1012 C 0.81311 0.15423 0.35289 0.0
C1013 C 0.84871 0.16465 0.3853 0.0
H1014 H 0.79427 0.14805 0.28061 0.0
H1015 H 0.77638 0.14468 0.36499 0.0
S1016 S 0.97606 0.19893 0.35737 0.0
N1017 N 0.95163 0.19136 0.30576 0.0
N1018 N 0.93278 0.18763 0.39665 0.0
C1019 C 0.89603 0.1769 0.36828 0.0
C1020 C 0.90584 0.179 0.31911 0.0
C1021 C 0.87687 0.59277 0.38177 0.0
C1022 C 0.84542 0.58079 0.41193 0.0
C1023 C 0.87292 0.59085 0.33281 0.0
C1024 C 0.83795 0.57684 0.31279 0.0
H1025 H 0.90816 0.6031 0.39589 0.0
H1026 H 0.901 0.59977 0.31072 0.0
S1027 S 0.73527 0.54394 0.37587 0.0
N1028 N 0.76873 0.55603 0.41778 0.0
N1029 N 0.76303 0.55227 0.32604 0.0
C1030 C 0.80157 0.56562 0.34235 0.0
C1031 C 0.80476 0.56766 0.39193 0.0
C1032 C 0.53064 0.32626 0.58919 0.0
C1033 C 0.57296 0.31381 0.56766 0.0
C1034 C 0.52282 0.32683 0.63812 0.0
C1035 C 0.55818 0.31518 0.66705 0.0
H1036 H 0.50267 0.33551 0.56814 0.0
H1037 H 0.48946 0.33655 0.65341 0.0
S1038 S 0.67486 0.28003 0.62835 0.0
N1039 N 0.65032 0.28945 0.57927 0.0
N1040 N 0.63612 0.29073 0.67109 0.0
C1041 C 0.60094 0.30274 0.6461 0.0
C1042 C 0.60816 0.30199 0.59639 0.0
C1043 C 0.66172 0.91376 0.58316 0.0
C1044 C 0.71607 0.90857 0.55302 0.0
C1045 C 0.66874 0.91285 0.63183 0.0
C1046 C 0.73063 0.90679 0.65244 0.0
H1047 H 0.61402 0.91918 0.56908 0.0
H1048 H 0.62619 0.91762 0.65333 0.0
S1049 S 0.8848 0.88933 0.58891 0.0
N1050 N 0.83099 0.89548 0.54688 0.0
N1051 N 0.84451 0.89369 0.6389 0.0
C1052 C 0.78372 0.90045 0.62274 0.0
C1053 C 0.7763 0.90132 0.57286 0.0
C1054 C 0.33295 0.68677 0.39638 0.0
C1055 C 0.27609 0.67751 0.41449 0.0
C1056 C 0.34942 0.68626 0.34876 0.0
C1057 C 0.31009 0.67637 0.3171 0.0
H1058 H 0.36489 0.69472 0.41901 0.0
H1059 H 0.39355 0.69376 0.33679 0.0
S1060 S 0.15705 0.64933 0.34662 0.0
N1061 N 0.1809 0.65784 0.39731 0.0
N1062 N 0.2123 0.65683 0.30708 0.0
C1063 C 0.25362 0.6668 0.3346 0.0
C1064 C 0.2364 0.66742 0.38344 0.0
C1065 C 0.48366 0.06997 0.43543 0.0
C1066 C 0.43489 0.07975 0.46096 0.0
C1067 C 0.48469 0.07017 0.38641 0.0
C1068 C 0.43621 0.07995 0.36117 0.0
H1069 H 0.52015 0.06168 0.45345 0.0
H1070 H 0.52135 0.0619 0.36828 0.0
S1071 S 0.30316 0.10928 0.41128 0.0
N1072 N 0.34125 0.10068 0.45759 0.0
N1073 N 0.34249 0.10091 0.36492 0.0
C1074 C 0.38968 0.09052 0.38616 0.0
C1075 C 0.38928 0.09049 0.43627 0.0
C1076 C 0.61489 0.82289 0.06276 0.0
C1077 C 0.67863 0.82088 0.03887 0.0
C1078 C 0.61334 0.82859 0.10926 0.0
C1079 C 0.67529 0.83276 0.13327 0.0
H1080 H 0.56611 0.81907 0.04651 0.0
H1081 H 0.56341 0.82898 0.12728 0.0
S1082 S 0.85449 0.83249 0.0837 0.0
N1083 N 0.80447 0.82549 0.04045 0.0
N1084 N 0.80125 0.83642 0.12821 0.0
C1085 C 0.7388 0.83223 0.1086 0.0
C1086 C 0.74055 0.82619 0.06126 0.0
C1087 C 0.70703 0.40549 0.06461 0.0
C1088 C 0.64196 0.4116 0.04928 0.0
C1089 C 0.72048 0.40324 0.11262 0.0
C1090 C 0.66904 0.40689 0.14667 0.0
H1091 H 0.74894 0.40331 0.03966 0.0
H1092 H 0.77249 0.39934 0.12308 0.0
S1093 S 0.48594 0.42023 0.12309 0.0
N1094 N 0.52297 0.4192 0.07076 0.0
N1095 N 0.54741 0.41474 0.16075 0.0
C1096 C 0.60198 0.41172 0.1312 0.0
C1097 C 0.58869 0.41416 0.08252 0.0
C1098 C 0.3091 0.16443 0.87674 0.0
C1099 C 0.25204 0.1697 0.84938 0.0
C1100 C 0.30566 0.1646 0.92562 0.0
C1101 C 0.24523 0.17024 0.94914 0.0
H1102 H 0.35799 0.16075 0.86028 0.0
H1103 H 0.35224 0.1611 0.94498 0.0
S1104 S 0.0777 0.18286 0.89326 0.0
N1105 N 0.13048 0.17871 0.8487 0.0
N1106 N 0.12383 0.17925 0.94123 0.0
C1107 C 0.18569 0.17423 0.92218 0.0
C1108 C 0.18915 0.17391 0.87206 0.0
C1109 C 0.25522 0.57675 0.90213 0.0
C1110 C 0.32106 0.58104 0.92054 0.0
C1111 C 0.2463 0.57386 0.85398 0.0
C1112 C 0.30275 0.57529 0.82245 0.0
H1113 H 0.21105 0.57464 0.92526 0.0
H1114 H 0.19527 0.56983 0.84175 0.0
S1115 S 0.48322 0.58904 0.85237 0.0
N1116 N 0.44166 0.58861 0.90322 0.0
N1117 N 0.42496 0.58333 0.81258 0.0
C1118 C 0.36764 0.58087 0.84004 0.0
C1119 C 0.37677 0.5837 0.88914 0.0
loop_
_geom_bond_atom_site_label_1
_geom_bond_atom_site_label_2
_geom_bond_distance
_geom_bond_site_symmetry_2
_ccdc_geom_bond_type
C0 O1 1.160 . S
C0 O7 1.185 . S
O1 C0 1.160 . S
O2 Zn3 1.899 . S
O2 C10 1.284 . S
Zn3 O2 1.899 . S
Zn3 O4 2.032 . S
Zn3 O7 2.086 . S
Zn3 O12 1.977 . S
O4 Zn3 2.032 . S
O4 C8 1.278 . S
C5 O6 1.203 . S
C5 O12 1.267 . S
O6 C5 1.203 . S
O7 C0 1.185 . S
O7 Zn3 2.086 . S
C8 O4 1.278 . S
C8 O9 1.211 . S
O9 C8 1.211 . S
C10 O2 1.284 . S
C10 O11 1.273 . S
O11 C10 1.273 . S
O12 Zn3 1.977 . S
O12 C5 1.267 . S
C13 O14 1.160 . S
C13 O20 1.185 . S
O14 C13 1.160 . S
O15 Zn16 1.899 . S
O15 C23 1.284 . S
Zn16 O15 1.899 . S
Zn16 O17 2.032 . S
Zn16 O20 2.086 . S
Zn16 O25 1.977 . S
O17 Zn16 2.032 . S
O17 C21 1.278 . S
C18 O19 1.203 . S
C18 O25 1.267 . S
O19 C18 1.203 . S
O20 C13 1.185 . S
O20 Zn16 2.086 . S
C21 O17 1.278 . S
C21 O22 1.211 . S
O22 C21 1.211 . S
C23 O15 1.284 . S
C23 O24 1.273 . S
O24 C23 1.273 . S
O25 Zn16 1.977 . S
O25 C18 1.267 . S
C26 O27 1.160 . S
C26 O33 1.185 . S
O27 C26 1.160 . S
O28 Zn29 1.899 . S
O28 C36 1.284 . S
Zn29 O28 1.899 . S
Zn29 O30 2.032 1_556 S
Zn29 O33 2.086 . S
Zn29 O38 1.977 . S
O30 Zn29 2.032 1_554 S
O30 C34 1.278 . S
C31 O32 1.203 . S
C31 O38 1.267 . S
O32 C31 1.203 . S
O33 C26 1.185 . S
O33 Zn29 2.086 . S
C34 O30 1.278 . S
C34 O35 1.211 . S
O35 C34 1.211 . S
C36 O28 1.284 . S
C36 O37 1.273 . S
O37 C36 1.273 . S
O38 Zn29 1.977 . S
O38 C31 1.267 . S
C39 O40 1.160 . S
C39 O46 1.185 . S
O40 C39 1.160 . S
O41 Zn42 1.899 . S
O41 C49 1.284 . S
Zn42 O41 1.899 . S
Zn42 O43 2.032 1_556 S
Zn42 O46 2.086 . S
Zn42 O51 1.977 . S
O43 Zn42 2.032 1_554 S
O43 C47 1.278 . S
C44 O45 1.203 . S
C44 O51 1.267 . S
O45 C44 1.203 . S
O46 C39 1.185 . S
O46 Zn42 2.086 . S
C47 O43 1.278 . S
C47 O48 1.211 . S
O48 C47 1.211 . S
C49 O41 1.284 . S
C49 O50 1.273 . S
O50 C49 1.273 . S
O51 Zn42 1.977 . S
O51 C44 1.267 . S
C52 O53 1.160 . S
C52 O59 1.185 . S
O53 C52 1.160 . S
O54 Zn55 1.899 . S
O54 C62 1.284 . S
Zn55 O54 1.899 . S
Zn55 O56 2.032 . S
Zn55 O59 2.086 . S
Zn55 O64 1.977 . S
O56 Zn55 2.032 . S
O56 C60 1.278 . S
C57 O58 1.203 . S
C57 O64 1.267 . S
O58 C57 1.203 . S
O59 C52 1.185 . S
O59 Zn55 2.086 . S
C60 O56 1.278 . S
C60 O61 1.211 . S
O61 C60 1.211 . S
C62 O54 1.284 . S
C62 O63 1.273 . S
O63 C62 1.273 . S
O64 Zn55 1.977 . S
O64 C57 1.267 . S
C65 O66 1.160 . S
C65 O72 1.185 . S
O66 C65 1.160 . S
O67 Zn68 1.899 . S
O67 C75 1.284 . S
Zn68 O67 1.899 . S
Zn68 O69 2.032 . S
Zn68 O72 2.086 . S
Zn68 O77 1.977 . S
O69 Zn68 2.032 . S
O69 C73 1.278 . S
C70 O71 1.203 . S
C70 O77 1.267 . S
O71 C70 1.203 . S
O72 C65 1.185 . S
O72 Zn68 2.086 . S
C73 O69 1.278 . S
C73 O74 1.211 . S
O74 C73 1.211 . S
C75 O67 1.284 . S
C75 O76 1.273 . S
O76 C75 1.273 . S
O77 Zn68 1.977 . S
O77 C70 1.267 . S
C78 O79 1.160 . S
C78 O85 1.185 . S
O79 C78 1.160 . S
O80 Zn81 1.899 . S
O80 C88 1.284 . S
Zn81 O80 1.899 . S
Zn81 O82 2.032 1_554 S
Zn81 O85 2.086 . S
Zn81 O90 1.977 . S
O82 Zn81 2.032 1_556 S
O82 C86 1.278 . S
C83 O84 1.203 . S
C83 O90 1.267 . S
O84 C83 1.203 . S
O85 C78 1.185 . S
O85 Zn81 2.086 . S
C86 O82 1.278 . S
C86 O87 1.211 . S
O87 C86 1.211 . S
C88 O80 1.284 . S
C88 O89 1.273 . S
O89 C88 1.273 . S
O90 Zn81 1.977 . S
O90 C83 1.267 . S
C91 O92 1.160 . S
C91 O98 1.185 . S
O92 C91 1.160 . S
O93 Zn94 1.899 . S
O93 C101 1.284 . S
Zn94 O93 1.899 . S
Zn94 O95 2.032 1_554 S
Zn94 O98 2.086 . S
Zn94 O103 1.977 . S
O95 Zn94 2.032 1_556 S
O95 C99 1.278 . S
C96 O97 1.203 . S
C96 O103 1.267 . S
O97 C96 1.203 . S
O98 C91 1.185 . S
O98 Zn94 2.086 . S
C99 O95 1.278 . S
C99 O100 1.211 . S
O100 C99 1.211 . S
C101 O93 1.284 . S
C101 O102 1.273 . S
O102 C101 1.273 . S
O103 Zn94 1.977 . S
O103 C96 1.267 . S
C104 O105 1.160 . S
C104 O111 1.185 . S
O105 C104 1.160 . S
O106 Zn107 1.899 . S
O106 C114 1.284 . S
Zn107 O106 1.899 . S
Zn107 O108 2.032 . S
Zn107 O111 2.086 . S
Zn107 O116 1.977 . S
O108 Zn107 2.032 . S
O108 C112 1.278 . S
C109 O110 1.203 . S
C109 O116 1.267 . S
O110 C109 1.203 . S
O111 C104 1.185 . S
O111 Zn107 2.086 . S
C112 O108 1.278 . S
C112 O113 1.211 . S
O113 C112 1.211 . S
C114 O106 1.284 . S
C114 O115 1.273 . S
O115 C114 1.273 . S
O116 Zn107 1.977 . S
O116 C109 1.267 . S
C117 O118 1.160 . S
C117 O124 1.185 . S
O118 C117 1.160 . S
O119 Zn120 1.899 . S
O119 C127 1.284 . S
Zn120 O119 1.899 . S
Zn120 O121 2.032 . S
Zn120 O124 2.086 . S
Zn120 O129 1.977 . S
O121 Zn120 2.032 . S
O121 C125 1.278 . S
C122 O123 1.203 . S
C122 O129 1.267 . S
O123 C122 1.203 . S
O124 C117 1.185 . S
O124 Zn120 2.086 . S
C125 O121 1.278 . S
C125 O126 1.211 . S
O126 C125 1.211 . S
C127 O119 1.284 . S
C127 O128 1.273 . S
O128 C127 1.273 . S
O129 Zn120 1.977 . S
O129 C122 1.267 . S
C130 O131 1.160 . S
C130 O137 1.185 . S
O131 C130 1.160 . S
O132 Zn133 1.899 . S
O132 C140 1.284 . S
Zn133 O132 1.899 . S
Zn133 O134 2.032 . S
Zn133 O137 2.086 . S
Zn133 O142 1.977 . S
O134 Zn133 2.032 . S
O134 C138 1.278 . S
C135 O136 1.203 . S
C135 O142 1.267 . S
O136 C135 1.203 . S
O137 C130 1.185 . S
O137 Zn133 2.086 . S
C138 O134 1.278 . S
C138 O139 1.211 . S
O139 C138 1.211 . S
C140 O132 1.284 . S
C140 O141 1.273 . S
O141 C140 1.273 . S
O142 Zn133 1.977 . S
O142 C135 1.267 . S
C143 O144 1.160 . S
C143 O150 1.185 . S
O144 C143 1.160 . S
O145 Zn146 1.899 . S
O145 C153 1.284 . S
Zn146 O145 1.899 . S
Zn146 O147 2.032 . S
Zn146 O150 2.086 . S
Zn146 O155 1.977 . S
O147 Zn146 2.032 . S
O147 C151 1.278 . S
C148 O149 1.203 . S
C148 O155 1.267 . S
O149 C148 1.203 . S
O150 C143 1.185 . S
O150 Zn146 2.086 . S
C151 O147 1.278 . S
C151 O152 1.211 . S
O152 C151 1.211 . S
C153 O145 1.284 . S
C153 O154 1.273 . S
O154 C153 1.273 . S
O155 Zn146 1.977 . S
O155 C148 1.267 . S
C156 O157 1.160 . S
C156 O163 1.185 . S
O157 C156 1.160 . S
O158 Zn159 1.899 . S
O158 C166 1.284 . S
Zn159 O158 1.899 . S
Zn159 O160 2.032 . S
Zn159 O163 2.086 . S
Zn159 O168 1.977 . S
O160 Zn159 2.032 . S
O160 C164 1.278 . S
C161 O162 1.203 . S
C161 O168 1.267 . S
O162 C161 1.203 . S
O163 C156 1.185 . S
O163 Zn159 2.086 . S
C164 O160 1.278 . S
C164 O165 1.211 . S
O165 C164 1.211 . S
C166 O158 1.284 . S
C166 O167 1.273 . S
O167 C166 1.273 . S
O168 Zn159 1.977 . S
O168 C161 1.267 . S
C169 O170 1.160 . S
C169 O176 1.185 . S
O170 C169 1.160 . S
O171 Zn172 1.899 . S
O171 C179 1.284 . S
Zn172 O171 1.899 . S
Zn172 O173 2.032 . S
Zn172 O176 2.086 . S
Zn172 O181 1.977 . S
O173 Zn172 2.032 . S
O173 C177 1.278 . S
C174 O175 1.203 . S
C174 O181 1.267 . S
O175 C174 1.203 . S
O176 C169 1.185 . S
O176 Zn172 2.086 . S
C177 O173 1.278 . S
C177 O178 1.211 . S
O178 C177 1.211 . S
C179 O171 1.284 . S
C179 O180 1.273 . S
O180 C179 1.273 . S
O181 Zn172 1.977 . S
O181 C174 1.267 . S
C182 O183 1.160 . S
C182 O189 1.185 . S
O183 C182 1.160 . S
O184 Zn185 1.899 . S
O184 C192 1.284 . S
Zn185 O184 1.899 . S
Zn185 O186 2.032 . S
Zn185 O189 2.086 . S
Zn185 O194 1.977 . S
O186 Zn185 2.032 . S
O186 C190 1.278 . S
C187 O188 1.203 . S
C187 O194 1.267 . S
O188 C187 1.203 . S
O189 C182 1.185 . S
O189 Zn185 2.086 . S
C190 O186 1.278 . S
C190 O191 1.211 . S
O191 C190 1.211 . S
C192 O184 1.284 . S
C192 O193 1.273 . S
O193 C192 1.273 . S
O194 Zn185 1.977 . S
O194 C187 1.267 . S
C195 O196 1.160 . S
C195 O202 1.185 . S
O196 C195 1.160 . S
O197 Zn198 1.899 . S
O197 C205 1.284 . S
Zn198 O197 1.899 . S
Zn198 O199 2.032 . S
Zn198 O202 2.086 . S
Zn198 O207 1.977 . S
O199 Zn198 2.032 . S
O199 C203 1.278 . S
C200 O201 1.203 . S
C200 O207 1.267 . S
O201 C200 1.203 . S
O202 C195 1.185 . S
O202 Zn198 2.086 . S
C203 O199 1.278 . S
C203 O204 1.211 . S
O204 C203 1.211 . S
C205 O197 1.284 . S
C205 O206 1.273 . S
O206 C205 1.273 . S
O207 Zn198 1.977 . S
O207 C200 1.267 . S
C208 O209 1.160 . S
C208 O215 1.185 . S
O209 C208 1.160 . S
O210 Zn211 1.899 . S
O210 C218 1.284 . S
Zn211 O210 1.899 . S
Zn211 O212 2.032 . S
Zn211 O215 2.086 . S
Zn211 O220 1.977 . S
O212 Zn211 2.032 . S
O212 C216 1.278 . S
C213 O214 1.203 . S
C213 O220 1.267 . S
O214 C213 1.203 . S
O215 C208 1.185 . S
O215 Zn211 2.086 . S
C216 O212 1.278 . S
C216 O217 1.211 . S
O217 C216 1.211 . S
C218 O210 1.284 . S
C218 O219 1.273 . S
O219 C218 1.273 . S
O220 Zn211 1.977 . S
O220 C213 1.267 . S
C221 O222 1.160 . S
C221 O228 1.185 . S
O222 C221 1.160 . S
O223 Zn224 1.899 . S
O223 C231 1.284 . S
Zn224 O223 1.899 . S
Zn224 O225 2.032 . S
Zn224 O228 2.086 . S
Zn224 O233 1.977 . S
O225 Zn224 2.032 . S
O225 C229 1.278 . S
C226 O227 1.203 . S
C226 O233 1.267 . S
O227 C226 1.203 . S
O228 C221 1.185 . S
O228 Zn224 2.086 . S
C229 O225 1.278 . S
C229 O230 1.211 . S
O230 C229 1.211 . S
C231 O223 1.284 . S
C231 O232 1.273 . S
O232 C231 1.273 . S
O233 Zn224 1.977 . S
O233 C226 1.267 . S
C234 O235 1.160 . S
C234 O241 1.185 . S
O235 C234 1.160 . S
O236 Zn237 1.899 . S
O236 C244 1.284 . S
Zn237 O236 1.899 . S
Zn237 O238 2.032 . S
Zn237 O241 2.086 . S
Zn237 O246 1.977 . S
O238 Zn237 2.032 . S
O238 C242 1.278 . S
C239 O240 1.203 . S
C239 O246 1.267 . S
O240 C239 1.203 . S
O241 C234 1.185 . S
O241 Zn237 2.086 . S
C242 O238 1.278 . S
C242 O243 1.211 . S
O243 C242 1.211 . S
C244 O236 1.284 . S
C244 O245 1.273 . S
O245 C244 1.273 . S
O246 Zn237 1.977 . S
O246 C239 1.267 . S
C247 O248 1.160 . S
C247 O254 1.185 . S
O248 C247 1.160 . S
O249 Zn250 1.899 . S
O249 C257 1.284 . S
Zn250 O249 1.899 . S
Zn250 O251 2.032 . S
Zn250 O254 2.086 . S
Zn250 O259 1.977 . S
O251 Zn250 2.032 . S
O251 C255 1.278 . S
C252 O253 1.203 . S
C252 O259 1.267 . S
O253 C252 1.203 . S
O254 C247 1.185 . S
O254 Zn250 2.086 . S
C255 O251 1.278 . S
C255 O256 1.211 . S
O256 C255 1.211 . S
C257 O249 1.284 . S
C257 O258 1.273 . S
O258 C257 1.273 . S
O259 Zn250 1.977 . S
O259 C252 1.267 . S
C260 O261 1.160 . S
C260 O267 1.185 . S
O261 C260 1.160 . S
O262 Zn263 1.899 . S
O262 C270 1.284 . S
Zn263 O262 1.899 . S
Zn263 O264 2.032 . S
Zn263 O267 2.086 . S
Zn263 O272 1.977 . S
O264 Zn263 2.032 . S
O264 C268 1.278 . S
C265 O266 1.203 . S
C265 O272 1.267 . S
O266 C265 1.203 . S
O267 C260 1.185 . S
O267 Zn263 2.086 . S
C268 O264 1.278 . S
C268 O269 1.211 . S
O269 C268 1.211 . S
C270 O262 1.284 . S
C270 O271 1.273 . S
O271 C270 1.273 . S
O272 Zn263 1.977 . S
O272 C265 1.267 . S
C273 O274 1.160 . S
C273 O280 1.185 . S
O274 C273 1.160 . S
O275 Zn276 1.899 . S
O275 C283 1.284 . S
Zn276 O275 1.899 . S
Zn276 O277 2.032 . S
Zn276 O280 2.086 . S
Zn276 O285 1.977 . S
O277 Zn276 2.032 . S
O277 C281 1.278 . S
C278 O279 1.203 . S
C278 O285 1.267 . S
O279 C278 1.203 . S
O280 C273 1.185 . S
O280 Zn276 2.086 . S
C281 O277 1.278 . S
C281 O282 1.211 . S
O282 C281 1.211 . S
C283 O275 1.284 . S
C283 O284 1.273 . S
O284 C283 1.273 . S
O285 Zn276 1.977 . S
O285 C278 1.267 . S
C286 O287 1.160 . S
C286 O293 1.185 . S
O287 C286 1.160 . S
O288 Zn289 1.899 . S
O288 C296 1.284 . S
Zn289 O288 1.899 . S
Zn289 O290 2.032 . S
Zn289 O293 2.086 . S
Zn289 O298 1.977 . S
O290 Zn289 2.032 . S
O290 C294 1.278 . S
C291 O292 1.203 . S
C291 O298 1.267 . S
O292 C291 1.203 . S
O293 C286 1.185 . S
O293 Zn289 2.086 . S
C294 O290 1.278 . S
C294 O295 1.211 . S
O295 C294 1.211 . S
C296 O288 1.284 . S
C296 O297 1.273 . S
O297 C296 1.273 . S
O298 Zn289 1.977 . S
O298 C291 1.267 . S
C299 O300 1.160 . S
C299 O306 1.185 . S
O300 C299 1.160 . S
O301 Zn302 1.899 . S
O301 C309 1.284 . S
Zn302 O301 1.899 . S
Zn302 O303 2.032 . S
Zn302 O306 2.086 . S
Zn302 O311 1.977 . S
O303 Zn302 2.032 . S
O303 C307 1.278 . S
C304 O305 1.203 . S
C304 O311 1.267 . S
O305 C304 1.203 . S
O306 C299 1.185 . S
O306 Zn302 2.086 . S
C307 O303 1.278 . S
C307 O308 1.211 . S
O308 C307 1.211 . S
C309 O301 1.284 . S
C309 O310 1.273 . S
O310 C309 1.273 . S
O311 Zn302 1.977 . S
O311 C304 1.267 . S
C312 O313 1.160 . S
C312 O319 1.185 . S
O313 C312 1.160 . S
O314 Zn315 1.899 . S
O314 C322 1.284 . S
Zn315 O314 1.899 . S
Zn315 O316 2.032 . S
Zn315 O319 2.086 . S
Zn315 O324 1.977 . S
O316 Zn315 2.032 . S
O316 C320 1.278 . S
C317 O318 1.203 . S
C317 O324 1.267 . S
O318 C317 1.203 . S
O319 C312 1.185 . S
O319 Zn315 2.086 . S
C320 O316 1.278 . S
C320 O321 1.211 . S
O321 C320 1.211 . S
C322 O314 1.284 . S
C322 O323 1.273 . S
O323 C322 1.273 . S
O324 Zn315 1.977 . S
O324 C317 1.267 . S
C325 O326 1.160 . S
C325 O332 1.185 . S
O326 C325 1.160 . S
O327 Zn328 1.899 . S
O327 C335 1.284 . S
Zn328 O327 1.899 . S
Zn328 O329 2.032 . S
Zn328 O332 2.086 . S
Zn328 O337 1.977 . S
O329 Zn328 2.032 . S
O329 C333 1.278 . S
C330 O331 1.203 . S
C330 O337 1.267 . S
O331 C330 1.203 . S
O332 C325 1.185 . S
O332 Zn328 2.086 . S
C333 O329 1.278 . S
C333 O334 1.211 . S
O334 C333 1.211 . S
C335 O327 1.284 . S
C335 O336 1.273 . S
O336 C335 1.273 . S
O337 Zn328 1.977 . S
O337 C330 1.267 . S
C338 O339 1.160 . S
C338 O345 1.185 . S
O339 C338 1.160 . S
O340 Zn341 1.899 . S
O340 C348 1.284 . S
Zn341 O340 1.899 . S
Zn341 O342 2.032 1_556 S
Zn341 O345 2.086 . S
Zn341 O350 1.977 . S
O342 Zn341 2.032 1_554 S
O342 C346 1.278 . S
C343 O344 1.203 . S
C343 O350 1.267 . S
O344 C343 1.203 . S
O345 C338 1.185 . S
O345 Zn341 2.086 . S
C346 O342 1.278 . S
C346 O347 1.211 . S
O347 C346 1.211 . S
C348 O340 1.284 . S
C348 O349 1.273 . S
O349 C348 1.273 . S
O350 Zn341 1.977 . S
O350 C343 1.267 . S
C351 O352 1.160 . S
C351 O358 1.185 . S
O352 C351 1.160 . S
O353 Zn354 1.899 . S
O353 C361 1.284 . S
Zn354 O353 1.899 . S
Zn354 O355 2.032 1_556 S
Zn354 O358 2.086 . S
Zn354 O363 1.977 . S
O355 Zn354 2.032 1_554 S
O355 C359 1.278 . S
C356 O357 1.203 . S
C356 O363 1.267 . S
O357 C356 1.203 . S
O358 C351 1.185 . S
O358 Zn354 2.086 . S
C359 O355 1.278 . S
C359 O360 1.211 . S
O360 C359 1.211 . S
C361 O353 1.284 . S
C361 O362 1.273 . S
O362 C361 1.273 . S
O363 Zn354 1.977 . S
O363 C356 1.267 . S
C364 O365 1.160 . S
C364 O371 1.185 . S
O365 C364 1.160 . S
O366 Zn367 1.899 . S
O366 C374 1.284 . S
Zn367 O366 1.899 . S
Zn367 O368 2.032 . S
Zn367 O371 2.086 . S
Zn367 O376 1.977 . S
O368 Zn367 2.032 . S
O368 C372 1.278 . S
C369 O370 1.203 . S
C369 O376 1.267 . S
O370 C369 1.203 . S
O371 C364 1.185 . S
O371 Zn367 2.086 . S
C372 O368 1.278 . S
C372 O373 1.211 . S
O373 C372 1.211 . S
C374 O366 1.284 . S
C374 O375 1.273 . S
O375 C374 1.273 . S
O376 Zn367 1.977 . S
O376 C369 1.267 . S
C377 O378 1.160 . S
C377 O384 1.185 . S
O378 C377 1.160 . S
O379 Zn380 1.899 . S
O379 C387 1.284 . S
Zn380 O379 1.899 . S
Zn380 O381 2.032 . S
Zn380 O384 2.086 . S
Zn380 O389 1.977 . S
O381 Zn380 2.032 . S
O381 C385 1.278 . S
C382 O383 1.203 . S
C382 O389 1.267 . S
O383 C382 1.203 . S
O384 C377 1.185 . S
O384 Zn380 2.086 . S
C385 O381 1.278 . S
C385 O386 1.211 . S
O386 C385 1.211 . S
C387 O379 1.284 . S
C387 O388 1.273 . S
O388 C387 1.273 . S
O389 Zn380 1.977 . S
O389 C382 1.267 . S
C390 O391 1.160 . S
C390 O397 1.185 . S
O391 C390 1.160 . S
O392 Zn393 1.899 . S
O392 C400 1.284 . S
Zn393 O392 1.899 . S
Zn393 O394 2.032 1_554 S
Zn393 O397 2.086 . S
Zn393 O402 1.977 . S
O394 Zn393 2.032 1_556 S
O394 C398 1.278 . S
C395 O396 1.203 . S
C395 O402 1.267 . S
O396 C395 1.203 . S
O397 C390 1.185 . S
O397 Zn393 2.086 . S
C398 O394 1.278 . S
C398 O399 1.211 . S
O399 C398 1.211 . S
C400 O392 1.284 . S
C400 O401 1.273 . S
O401 C400 1.273 . S
O402 Zn393 1.977 . S
O402 C395 1.267 . S
C403 O404 1.160 . S
C403 O410 1.185 . S
O404 C403 1.160 . S
O405 Zn406 1.899 . S
O405 C413 1.284 . S
Zn406 O405 1.899 . S
Zn406 O407 2.032 1_554 S
Zn406 O410 2.086 . S
Zn406 O415 1.977 . S
O407 Zn406 2.032 1_556 S
O407 C411 1.278 . S
C408 O409 1.203 . S
C408 O415 1.267 . S
O409 C408 1.203 . S
O410 C403 1.185 . S
O410 Zn406 2.086 . S
C411 O407 1.278 . S
C411 O412 1.211 . S
O412 C411 1.211 . S
C413 O405 1.284 . S
C413 O414 1.273 . S
O414 C413 1.273 . S
O415 Zn406 1.977 . S
O415 C408 1.267 . S
C416 C417 1.369 . S
C416 C418 1.419 . S
C416 H420 0.930 1_455 S
C417 C416 1.369 . S
C417 C426 1.429 . S
C418 C416 1.419 . S
C418 C419 1.363 . S
C418 H421 0.929 1_455 S
C419 C418 1.363 . S
C419 C425 1.428 . S
H420 C416 0.930 1_655 S
H421 C418 0.929 1_655 S
S422 N423 1.613 . S
S422 N424 1.610 . S
N423 S422 1.613 . S
N423 C426 1.350 . S
N424 S422 1.610 . S
N424 C425 1.351 . S
C425 C419 1.428 . S
C425 N424 1.351 . S
C425 C426 1.434 . S
C426 C417 1.429 . S
C426 N423 1.350 . S
C426 C425 1.434 . S
C427 C428 1.369 . S
C427 C429 1.419 . S
C427 H431 0.930 . S
C428 C427 1.369 . S
C428 C437 1.429 . S
C429 C427 1.419 . S
C429 C430 1.363 . S
C429 H432 0.929 . S
C430 C429 1.363 . S
C430 C436 1.428 . S
H431 C427 0.930 . S
H432 C429 0.929 . S
S433 N434 1.613 . S
S433 N435 1.610 . S
N434 S433 1.613 . S
N434 C437 1.350 . S
N435 S433 1.610 . S
N435 C436 1.351 . S
C436 C430 1.428 . S
C436 N435 1.351 . S
C436 C437 1.434 . S
C437 C428 1.429 . S
C437 N434 1.350 . S
C437 C436 1.434 . S
C438 C439 1.369 . S
C438 C440 1.419 . S
C438 H442 0.930 . S
C439 C438 1.369 . S
C439 C448 1.429 . S
C440 C438 1.419 . S
C440 C441 1.363 . S
C440 H443 0.929 . S
C441 C440 1.363 . S
C441 C447 1.428 . S
H442 C438 0.930 . S
H443 C440 0.929 . S
S444 N445 1.613 . S
S444 N446 1.610 . S
N445 S444 1.613 . S
N445 C448 1.350 . S
N446 S444 1.610 . S
N446 C447 1.351 . S
C447 C441 1.428 . S
C447 N446 1.351 . S
C447 C448 1.434 . S
C448 C439 1.429 . S
C448 N445 1.350 . S
C448 C447 1.434 . S
C449 C450 1.369 . S
C449 C451 1.419 . S
C449 H453 0.930 . S
C450 C449 1.369 . S
C450 C459 1.429 . S
C451 C449 1.419 . S
C451 C452 1.363 . S
C451 H454 0.929 . S
C452 C451 1.363 . S
C452 C458 1.428 . S
H453 C449 0.930 . S
H454 C451 0.929 . S
S455 N456 1.613 . S
S455 N457 1.610 . S
N456 S455 1.613 . S
N456 C459 1.350 . S
N457 S455 1.610 . S
N457 C458 1.351 . S
C458 C452 1.428 . S
C458 N457 1.351 . S
C458 C459 1.434 . S
C459 C450 1.429 . S
C459 N456 1.350 . S
C459 C458 1.434 . S
C460 C461 1.369 . S
C460 C462 1.419 . S
C460 H464 0.930 . S
C461 C460 1.369 . S
C461 C470 1.429 . S
C462 C460 1.419 . S
C462 C463 1.363 . S
C462 H465 0.929 . S
C463 C462 1.363 . S
C463 C469 1.428 . S
H464 C460 0.930 . S
H465 C462 0.929 . S
S466 N467 1.613 . S
S466 N468 1.610 . S
N467 S466 1.613 . S
N467 C470 1.350 1_455 S
N468 S466 1.610 . S
N468 C469 1.351 1_455 S
C469 C463 1.428 . S
C469 N468 1.351 1_655 S
C469 C470 1.434 . S
C470 C461 1.429 . S
C470 N467 1.350 1_655 S
C470 C469 1.434 . S
C471 C472 1.369 . S
C471 C473 1.419 . S
C471 H475 0.930 . S
C472 C471 1.369 . S
C472 C481 1.429 . S
C473 C471 1.419 . S
C473 C474 1.363 . S
C473 H476 0.929 . S
C474 C473 1.363 . S
C474 C480 1.428 . S
H475 C471 0.930 . S
H476 C473 0.929 . S
S477 N478 1.613 . S
S477 N479 1.610 . S
N478 S477 1.613 . S
N478 C481 1.350 . S
N479 S477 1.610 . S
N479 C480 1.351 . S
C480 C474 1.428 . S
C480 N479 1.351 . S
C480 C481 1.434 . S
C481 C472 1.429 . S
C481 N478 1.350 . S
C481 C480 1.434 . S
C482 C483 1.369 . S
C482 C484 1.419 . S
C482 H486 0.930 . S
C483 C482 1.369 . S
C483 C492 1.429 . S
C484 C482 1.419 . S
C484 C485 1.363 . S
C484 H487 0.929 . S
C485 C484 1.363 . S
C485 C491 1.428 . S
H486 C482 0.930 . S
H487 C484 0.929 . S
S488 N489 1.613 . S
S488 N490 1.610 . S
N489 S488 1.613 . S
N489 C492 1.350 . S
N490 S488 1.610 . S
N490 C491 1.351 . S
C491 C485 1.428 . S
C491 N490 1.351 . S
C491 C492 1.434 . S
C492 C483 1.429 . S
C492 N489 1.350 . S
C492 C491 1.434 . S
C493 C494 1.369 . S
C493 C495 1.419 . S
C493 H497 0.930 . S
C494 C493 1.369 . S
C494 C503 1.429 . S
C495 C493 1.419 . S
C495 C496 1.363 . S
C495 H498 0.929 . S
C496 C495 1.363 . S
C496 C502 1.428 . S
H497 C493 0.930 . S
H498 C495 0.929 . S
S499 N500 1.613 . S
S499 N501 1.610 . S
N500 S499 1.613 . S
N500 C503 1.350 . S
N501 S499 1.610 . S
N501 C502 1.351 . S
C502 C496 1.428 . S
C502 N501 1.351 . S
C502 C503 1.434 . S
C503 C494 1.429 . S
C503 N500 1.350 . S
C503 C502 1.434 . S
C504 C505 1.369 . S
C504 C506 1.419 . S
C504 H508 0.930 . S
C505 C504 1.369 . S
C505 C514 1.429 . S
C506 C504 1.419 . S
C506 C507 1.363 . S
C506 H509 0.929 . S
C507 C506 1.363 . S
C507 C513 1.428 . S
H508 C504 0.930 . S
H509 C506 0.929 . S
S510 N511 1.613 . S
S510 N512 1.610 . S
N511 S510 1.613 . S
N511 C514 1.350 . S
N512 S510 1.610 . S
N512 C513 1.351 . S
C513 C507 1.428 . S
C513 N512 1.351 . S
C513 C514 1.434 . S
C514 C505 1.429 . S
C514 N511 1.350 . S
C514 C513 1.434 . S
C515 C516 1.369 . S
C515 C517 1.419 . S
C515 H519 0.930 . S
C516 C515 1.369 . S
C516 C525 1.429 . S
C517 C515 1.419 . S
C517 C518 1.363 . S
C517 H520 0.929 . S
C518 C517 1.363 . S
C518 C524 1.428 . S
H519 C515 0.930 . S
H520 C517 0.929 . S
S521 N522 1.613 . S
S521 N523 1.610 . S
N522 S521 1.613 . S
N522 C525 1.350 . S
N523 S521 1.610 . S
N523 C524 1.351 . S
C524 C518 1.428 . S
C524 N523 1.351 . S
C524 C525 1.434 . S
C525 C516 1.429 . S
C525 N522 1.350 . S
C525 C524 1.434 . S
C526 C527 1.369 . S
C526 C528 1.419 . S
C526 H530 0.930 . S
C527 C526 1.369 . S
C527 C536 1.429 . S
C528 C526 1.419 . S
C528 C529 1.363 . S
C528 H531 0.929 . S
C529 C528 1.363 . S
C529 C535 1.428 . S
H530 C526 0.930 . S
H531 C528 0.929 . S
S532 N533 1.613 . S
S532 N534 1.610 . S
N533 S532 1.613 . S
N533 C536 1.350 . S
N534 S532 1.610 . S
N534 C535 1.351 . S
C535 C529 1.428 . S
C535 N534 1.351 . S
C535 C536 1.434 . S
C536 C527 1.429 . S
C536 N533 1.350 . S
C536 C535 1.434 . S
C537 C538 1.369 . S
C537 C539 1.419 . S
C537 H541 0.930 . S
C538 C537 1.369 . S
C538 C547 1.429 . S
C539 C537 1.419 . S
C539 C540 1.363 . S
C539 H542 0.929 . S
C540 C539 1.363 . S
C540 C546 1.428 . S
H541 C537 0.930 . S
H542 C539 0.929 . S
S543 N544 1.613 . S
S543 N545 1.610 . S
N544 S543 1.613 . S
N544 C547 1.350 . S
N545 S543 1.610 . S
N545 C546 1.351 . S
C546 C540 1.428 . S
C546 N545 1.351 . S
C546 C547 1.434 . S
C547 C538 1.429 . S
C547 N544 1.350 . S
C547 C546 1.434 . S
C548 C549 1.369 . S
C548 C550 1.419 . S
C548 H552 0.930 . S
C549 C548 1.369 . S
C549 C558 1.429 . S
C550 C548 1.419 . S
C550 C551 1.363 . S
C550 H553 0.929 . S
C551 C550 1.363 . S
C551 C557 1.428 . S
H552 C548 0.930 . S
H553 C550 0.929 . S
S554 N555 1.613 . S
S554 N556 1.610 . S
N555 S554 1.613 . S
N555 C558 1.350 . S
N556 S554 1.610 . S
N556 C557 1.351 . S
C557 C551 1.428 . S
C557 N556 1.351 . S
C557 C558 1.434 . S
C558 C549 1.429 . S
C558 N555 1.350 . S
C558 C557 1.434 . S
C559 C560 1.369 . S
C559 C561 1.419 . S
C559 H563 0.930 . S
C560 C559 1.369 . S
C560 C569 1.429 . S
C561 C559 1.419 . S
C561 C562 1.363 . S
C561 H564 0.929 . S
C562 C561 1.363 . S
C562 C568 1.428 . S
H563 C559 0.930 . S
H564 C561 0.929 . S
S565 N566 1.613 . S
S565 N567 1.610 . S
N566 S565 1.613 . S
N566 C569 1.350 . S
N567 S565 1.610 . S
N567 C568 1.351 . S
C568 C562 1.428 . S
C568 N567 1.351 . S
C568 C569 1.434 . S
C569 C560 1.429 . S
C569 N566 1.350 . S
C569 C568 1.434 . S
C570 C571 1.369 . S
C570 C572 1.419 . S
C570 H574 0.930 . S
C571 C570 1.369 . S
C571 C580 1.429 . S
C572 C570 1.419 . S
C572 C573 1.363 . S
C572 H575 0.929 . S
C573 C572 1.363 . S
C573 C579 1.428 . S
H574 C570 0.930 . S
H575 C572 0.929 . S
S576 N577 1.613 . S
S576 N578 1.610 . S
N577 S576 1.613 . S
N577 C580 1.350 . S
N578 S576 1.610 . S
N578 C579 1.351 . S
C579 C573 1.428 . S
C579 N578 1.351 . S
C579 C580 1.434 . S
C580 C571 1.429 . S
C580 N577 1.350 . S
C580 C579 1.434 . S
C581 C582 1.369 . S
C581 C583 1.419 . S
C581 H585 0.930 . S
C582 C581 1.369 . S
C582 C591 1.429 . S
C583 C581 1.419 . S
C583 C584 1.363 . S
C583 H586 0.929 . S
C584 C583 1.363 . S
C584 C590 1.428 . S
H585 C581 0.930 . S
H586 C583 0.929 . S
S587 N588 1.613 . S
S587 N589 1.610 . S
N588 S587 1.613 . S
N588 C591 1.350 . S
N589 S587 1.610 . S
N589 C590 1.351 . S
C590 C584 1.428 . S
C590 N589 1.351 . S
C590 C591 1.434 . S
C591 C582 1.429 . S
C591 N588 1.350 . S
C591 C590 1.434 . S
C592 C593 1.369 . S
C592 C594 1.419 . S
C592 H596 0.930 . S
C593 C592 1.369 . S
C593 C602 1.429 . S
C594 C592 1.419 . S
C594 C595 1.363 . S
C594 H597 0.929 . S
C595 C594 1.363 . S
C595 C601 1.428 . S
H596 C592 0.930 . S
H597 C594 0.929 . S
S598 N599 1.613 . S
S598 N600 1.610 . S
N599 S598 1.613 . S
N599 C602 1.350 . S
N600 S598 1.610 . S
N600 C601 1.351 . S
C601 C595 1.428 . S
C601 N600 1.351 . S
C601 C602 1.434 . S
C602 C593 1.429 . S
C602 N599 1.350 . S
C602 C601 1.434 . S
C603 C604 1.369 . S
C603 C605 1.419 . S
C603 H607 0.930 . S
C604 C603 1.369 . S
C604 C613 1.429 . S
C605 C603 1.419 . S
C605 C606 1.363 . S
C605 H608 0.929 . S
C606 C605 1.363 . S
C606 C612 1.428 . S
H607 C603 0.930 . S
H608 C605 0.929 . S
S609 N610 1.613 . S
S609 N611 1.610 . S
N610 S609 1.613 . S
N610 C613 1.350 . S
N611 S609 1.610 . S
N611 C612 1.351 . S
C612 C606 1.428 . S
C612 N611 1.351 . S
C612 C613 1.434 . S
C613 C604 1.429 . S
C613 N610 1.350 . S
C613 C612 1.434 . S
C614 C615 1.369 . S
C614 C616 1.419 . S
C614 H618 0.930 . S
C615 C614 1.369 . S
C615 C624 1.429 . S
C616 C614 1.419 . S
C616 C617 1.363 . S
C616 H619 0.929 . S
C617 C616 1.363 . S
C617 C623 1.428 . S
H618 C614 0.930 . S
H619 C616 0.929 . S
S620 N621 1.613 . S
S620 N622 1.610 . S
N621 S620 1.613 . S
N621 C624 1.350 . S
N622 S620 1.610 . S
N622 C623 1.351 . S
C623 C617 1.428 . S
C623 N622 1.351 . S
C623 C624 1.434 . S
C624 C615 1.429 . S
C624 N621 1.350 . S
C624 C623 1.434 . S
C625 C626 1.369 . S
C625 C627 1.419 . S
C625 H629 0.930 . S
C626 C625 1.369 . S
C626 C635 1.429 . S
C627 C625 1.419 . S
C627 C628 1.363 . S
C627 H630 0.929 . S
C628 C627 1.363 . S
C628 C634 1.428 . S
H629 C625 0.930 . S
H630 C627 0.929 . S
S631 N632 1.613 . S
S631 N633 1.610 . S
N632 S631 1.613 . S
N632 C635 1.350 . S
N633 S631 1.610 . S
N633 C634 1.351 . S
C634 C628 1.428 . S
C634 N633 1.351 . S
C634 C635 1.434 . S
C635 C626 1.429 . S
C635 N632 1.350 . S
C635 C634 1.434 . S
C636 C637 1.369 . S
C636 C638 1.419 . S
C636 H640 0.930 . S
C637 C636 1.369 . S
C637 C646 1.429 . S
C638 C636 1.419 . S
C638 C639 1.363 . S
C638 H641 0.929 . S
C639 C638 1.363 . S
C639 C645 1.428 . S
H640 C636 0.930 . S
H641 C638 0.929 . S
S642 N643 1.613 . S
S642 N644 1.610 . S
N643 S642 1.613 . S
N643 C646 1.350 . S
N644 S642 1.610 . S
N644 C645 1.351 . S
C645 C639 1.428 . S
C645 N644 1.351 . S
C645 C646 1.434 . S
C646 C637 1.429 . S
C646 N643 1.350 . S
C646 C645 1.434 . S
C647 C648 1.369 . S
C647 C649 1.419 . S
C647 H651 0.930 . S
C648 C647 1.369 . S
C648 C657 1.429 . S
C649 C647 1.419 . S
C649 C650 1.363 . S
C649 H652 0.929 . S
C650 C649 1.363 . S
C650 C656 1.428 . S
H651 C647 0.930 . S
H652 C649 0.929 . S
S653 N654 1.613 . S
S653 N655 1.610 . S
N654 S653 1.613 . S
N654 C657 1.350 . S
N655 S653 1.610 . S
N655 C656 1.351 . S
C656 C650 1.428 . S
C656 N655 1.351 . S
C656 C657 1.434 . S
C657 C648 1.429 . S
C657 N654 1.350 . S
C657 C656 1.434 . S
C658 C659 1.369 . S
C658 C660 1.419 . S
C658 H662 0.930 . S
C659 C658 1.369 . S
C659 C668 1.429 . S
C660 C658 1.419 . S
C660 C661 1.363 . S
C660 H663 0.929 . S
C661 C660 1.363 . S
C661 C667 1.428 . S
H662 C658 0.930 . S
H663 C660 0.929 . S
S664 N665 1.613 . S
S664 N666 1.610 . S
N665 S664 1.613 . S
N665 C668 1.350 . S
N666 S664 1.610 . S
N666 C667 1.351 . S
C667 C661 1.428 . S
C667 N666 1.351 . S
C667 C668 1.434 . S
C668 C659 1.429 . S
C668 N665 1.350 . S
C668 C667 1.434 . S
C669 C670 1.369 . S
C669 C671 1.419 . S
C669 H673 0.930 . S
C670 C669 1.369 . S
C670 C679 1.429 . S
C671 C669 1.419 . S
C671 C672 1.363 . S
C671 H674 0.929 . S
C672 C671 1.363 . S
C672 C678 1.428 . S
H673 C669 0.930 . S
H674 C671 0.929 . S
S675 N676 1.613 . S
S675 N677 1.610 . S
N676 S675 1.613 . S
N676 C679 1.350 . S
N677 S675 1.610 . S
N677 C678 1.351 . S
C678 C672 1.428 . S
C678 N677 1.351 . S
C678 C679 1.434 . S
C679 C670 1.429 . S
C679 N676 1.350 . S
C679 C678 1.434 . S
C680 C681 1.369 . S
C680 C682 1.419 . S
C680 H684 0.930 . S
C681 C680 1.369 . S
C681 C690 1.429 . S
C682 C680 1.419 . S
C682 C683 1.363 . S
C682 H685 0.929 . S
C683 C682 1.363 . S
C683 C689 1.428 . S
H684 C680 0.930 . S
H685 C682 0.929 . S
S686 N687 1.613 . S
S686 N688 1.610 . S
N687 S686 1.613 . S
N687 C690 1.350 . S
N688 S686 1.610 . S
N688 C689 1.351 . S
C689 C683 1.428 . S
C689 N688 1.351 . S
C689 C690 1.434 . S
C690 C681 1.429 . S
C690 N687 1.350 . S
C690 C689 1.434 . S
C691 C692 1.369 . S
C691 C693 1.419 . S
C691 H695 0.930 . S
C692 C691 1.369 . S
C692 C701 1.429 . S
C693 C691 1.419 . S
C693 C694 1.363 . S
C693 H696 0.929 . S
C694 C693 1.363 . S
C694 C700 1.428 . S
H695 C691 0.930 . S
H696 C693 0.929 . S
S697 N698 1.613 . S
S697 N699 1.610 . S
N698 S697 1.613 . S
N698 C701 1.350 . S
N699 S697 1.610 . S
N699 C700 1.351 . S
C700 C694 1.428 . S
C700 N699 1.351 . S
C700 C701 1.434 . S
C701 C692 1.429 . S
C701 N698 1.350 . S
C701 C700 1.434 . S
C702 C703 1.369 . S
C702 C704 1.419 . S
C702 H706 0.930 . S
C703 C702 1.369 . S
C703 C712 1.429 . S
C704 C702 1.419 . S
C704 C705 1.363 . S
C704 H707 0.929 . S
C705 C704 1.363 . S
C705 C711 1.428 . S
H706 C702 0.930 . S
H707 C704 0.929 . S
S708 N709 1.613 . S
S708 N710 1.610 . S
N709 S708 1.613 . S
N709 C712 1.350 . S
N710 S708 1.610 . S
N710 C711 1.351 . S
C711 C705 1.428 . S
C711 N710 1.351 . S
C711 C712 1.434 . S
C712 C703 1.429 . S
C712 N709 1.350 . S
C712 C711 1.434 . S
C713 C714 1.369 . S
C713 C715 1.419 . S
C713 H717 0.930 . S
C714 C713 1.369 . S
C714 C723 1.429 . S
C715 C713 1.419 . S
C715 C716 1.363 . S
C715 H718 0.929 . S
C716 C715 1.363 . S
C716 C722 1.428 . S
H717 C713 0.930 . S
H718 C715 0.929 . S
S719 N720 1.613 . S
S719 N721 1.610 . S
N720 S719 1.613 . S
N720 C723 1.350 . S
N721 S719 1.610 . S
N721 C722 1.351 . S
C722 C716 1.428 . S
C722 N721 1.351 . S
C722 C723 1.434 . S
C723 C714 1.429 . S
C723 N720 1.350 . S
C723 C722 1.434 . S
C724 C725 1.369 . S
C724 C726 1.419 . S
C724 H728 0.930 . S
C725 C724 1.369 . S
C725 C734 1.429 . S
C726 C724 1.419 . S
C726 C727 1.363 . S
C726 H729 0.929 . S
C727 C726 1.363 . S
C727 C733 1.428 . S
H728 C724 0.930 . S
H729 C726 0.929 . S
S730 N731 1.613 . S
S730 N732 1.610 . S
N731 S730 1.613 . S
N731 C734 1.350 . S
N732 S730 1.610 . S
N732 C733 1.351 . S
C733 C727 1.428 . S
C733 N732 1.351 . S
C733 C734 1.434 . S
C734 C725 1.429 . S
C734 N731 1.350 . S
C734 C733 1.434 . S
C735 C736 1.369 . S
C735 C737 1.419 . S
C735 H739 0.930 . S
C736 C735 1.369 . S
C736 C745 1.429 . S
C737 C735 1.419 . S
C737 C738 1.363 . S
C737 H740 0.929 . S
C738 C737 1.363 . S
C738 C744 1.428 . S
H739 C735 0.930 . S
H740 C737 0.929 . S
S741 N742 1.613 . S
S741 N743 1.610 . S
N742 S741 1.613 . S
N742 C745 1.350 . S
N743 S741 1.610 . S
N743 C744 1.351 . S
C744 C738 1.428 . S
C744 N743 1.351 . S
C744 C745 1.434 . S
C745 C736 1.429 . S
C745 N742 1.350 . S
C745 C744 1.434 . S
C746 C747 1.369 . S
C746 C748 1.419 . S
C746 H750 0.930 . S
C747 C746 1.369 . S
C747 C756 1.429 . S
C748 C746 1.419 . S
C748 C749 1.363 . S
C748 H751 0.929 . S
C749 C748 1.363 . S
C749 C755 1.428 . S
H750 C746 0.930 . S
H751 C748 0.929 . S
S752 N753 1.613 . S
S752 N754 1.610 . S
N753 S752 1.613 . S
N753 C756 1.350 . S
N754 S752 1.610 . S
N754 C755 1.351 . S
C755 C749 1.428 . S
C755 N754 1.351 . S
C755 C756 1.434 . S
C756 C747 1.429 . S
C756 N753 1.350 . S
C756 C755 1.434 . S
C757 C758 1.369 . S
C757 C759 1.419 . S
C757 H761 0.930 . S
C758 C757 1.369 . S
C758 C767 1.429 . S
C759 C757 1.419 . S
C759 C760 1.363 . S
C759 H762 0.929 . S
C760 C759 1.363 . S
C760 C766 1.428 . S
H761 C757 0.930 . S
H762 C759 0.929 . S
S763 N764 1.613 . S
S763 N765 1.610 . S
N764 S763 1.613 . S
N764 C767 1.350 . S
N765 S763 1.610 . S
N765 C766 1.351 . S
C766 C760 1.428 . S
C766 N765 1.351 . S
C766 C767 1.434 . S
C767 C758 1.429 . S
C767 N764 1.350 . S
C767 C766 1.434 . S
C768 C769 1.369 1_455 S
C768 C770 1.419 . S
C768 H772 0.930 . S
C769 C768 1.369 1_655 S
C769 C778 1.429 . S
C770 C768 1.419 . S
C770 C771 1.363 . S
C770 H773 0.929 . S
C771 C770 1.363 . S
C771 C777 1.428 1_455 S
H772 C768 0.930 . S
H773 C770 0.929 . S
S774 N775 1.613 . S
S774 N776 1.610 . S
N775 S774 1.613 . S
N775 C778 1.350 . S
N776 S774 1.610 . S
N776 C777 1.351 . S
C777 C771 1.428 1_655 S
C777 N776 1.351 . S
C777 C778 1.434 . S
C778 C769 1.429 . S
C778 N775 1.350 . S
C778 C777 1.434 . S
C779 C780 1.369 . S
C779 C781 1.419 1_565 S
C779 H783 0.930 . S
C780 C779 1.369 . S
C780 C789 1.429 . S
C781 C779 1.419 1_545 S
C781 C782 1.363 . S
C781 H784 0.929 . S
C782 C781 1.363 . S
C782 C788 1.428 . S
H783 C779 0.930 . S
H784 C781 0.929 . S
S785 N786 1.613 1_545 S
S785 N787 1.610 . S
N786 S785 1.613 1_565 S
N786 C789 1.350 . S
N787 S785 1.610 . S
N787 C788 1.351 . S
C788 C782 1.428 . S
C788 N787 1.351 . S
C788 C789 1.434 1_545 S
C789 C780 1.429 . S
C789 N786 1.350 . S
C789 C788 1.434 1_565 S
C790 C791 1.369 . S
C790 C792 1.419 1_544 S
C790 H794 0.930 . S
C791 C790 1.369 . S
C791 C800 1.429 1_655 S
C792 C790 1.419 1_566 S
C792 C793 1.363 1_655 S
C792 H795 0.929 . S
C793 C792 1.363 1_455 S
C793 C799 1.428 . S
H794 C790 0.930 . S
H795 C792 0.929 . S
S796 N797 1.613 1_556 S
S796 N798 1.610 1_545 S
N797 S796 1.613 1_554 S
N797 C800 1.350 . S
N798 S796 1.610 1_565 S
N798 C799 1.351 . S
C799 C793 1.428 . S
C799 N798 1.351 . S
C799 C800 1.434 1_566 S
C800 C791 1.429 1_455 S
C800 N797 1.350 . S
C800 C799 1.434 1_544 S
C801 C802 1.369 1_556 S
C801 C803 1.419 . S
C801 H805 0.930 . S
C802 C801 1.369 1_554 S
C802 C811 1.429 . S
C803 C801 1.419 . S
C803 C804 1.363 . S
C803 H806 0.929 . S
C804 C803 1.363 . S
C804 C810 1.428 1_556 S
H805 C801 0.930 . S
H806 C803 0.929 . S
S807 N808 1.613 . S
S807 N809 1.610 . S
N808 S807 1.613 . S
N808 C811 1.350 . S
N809 S807 1.610 . S
N809 C810 1.351 . S
C810 C804 1.428 1_554 S
C810 N809 1.351 . S
C810 C811 1.434 . S
C811 C802 1.429 . S
C811 N808 1.350 . S
C811 C810 1.434 . S
C812 C813 1.369 1_455 S
C812 C814 1.419 . S
C812 H816 0.930 . S
C813 C812 1.369 1_655 S
C813 C822 1.429 . S
C814 C812 1.419 . S
C814 C815 1.363 . S
C814 H817 0.929 . S
C815 C814 1.363 . S
C815 C821 1.428 1_455 S
H816 C812 0.930 . S
H817 C814 0.929 . S
S818 N819 1.613 . S
S818 N820 1.610 . S
N819 S818 1.613 . S
N819 C822 1.350 . S
N820 S818 1.610 . S
N820 C821 1.351 . S
C821 C815 1.428 1_655 S
C821 N820 1.351 . S
C821 C822 1.434 . S
C822 C813 1.429 . S
C822 N819 1.350 . S
C822 C821 1.434 . S
C823 C824 1.369 . S
C823 C825 1.419 1_565 S
C823 H827 0.930 . S
C824 C823 1.369 . S
C824 C833 1.429 . S
C825 C823 1.419 1_545 S
C825 C826 1.363 . S
C825 H828 0.929 . S
C826 C825 1.363 . S
C826 C832 1.428 . S
H827 C823 0.930 . S
H828 C825 0.929 . S
S829 N830 1.613 1_545 S
S829 N831 1.610 . S
N830 S829 1.613 1_565 S
N830 C833 1.350 . S
N831 S829 1.610 . S
N831 C832 1.351 . S
C832 C826 1.428 . S
C832 N831 1.351 . S
C832 C833 1.434 1_545 S
C833 C824 1.429 . S
C833 N830 1.350 . S
C833 C832 1.434 1_565 S
C834 C835 1.369 1_554 S
C834 C836 1.419 . S
C834 H838 0.930 . S
C835 C834 1.369 1_556 S
C835 C844 1.429 . S
C836 C834 1.419 . S
C836 C837 1.363 . S
C836 H839 0.929 . S
C837 C836 1.363 . S
C837 C843 1.428 1_554 S
H838 C834 0.930 . S
H839 C836 0.929 . S
S840 N841 1.613 . S
S840 N842 1.610 . S
N841 S840 1.613 . S
N841 C844 1.350 . S
N842 S840 1.610 . S
N842 C843 1.351 . S
C843 C837 1.428 1_556 S
C843 N842 1.351 . S
C843 C844 1.434 . S
C844 C835 1.429 . S
C844 N841 1.350 . S
C844 C843 1.434 . S
C845 C846 1.369 . S
C845 C847 1.419 . S
C845 H849 0.930 . S
C846 C845 1.369 . S
C846 C855 1.429 . S
C847 C845 1.419 . S
C847 C848 1.363 . S
C847 H850 0.929 . S
C848 C847 1.363 . S
C848 C854 1.428 . S
H849 C845 0.930 . S
H850 C847 0.929 . S
S851 N852 1.613 . S
S851 N853 1.610 . S
N852 S851 1.613 . S
N852 C855 1.350 . S
N853 S851 1.610 . S
N853 C854 1.351 . S
C854 C848 1.428 . S
C854 N853 1.351 . S
C854 C855 1.434 . S
C855 C846 1.429 . S
C855 N852 1.350 . S
C855 C854 1.434 . S
C856 C857 1.369 1_655 S
C856 C858 1.419 . S
C856 H860 0.930 . S
C857 C856 1.369 1_455 S
C857 C866 1.429 . S
C858 C856 1.419 . S
C858 C859 1.363 . S
C858 H861 0.929 . S
C859 C858 1.363 . S
C859 C865 1.429 . S
H860 C856 0.930 . S
H861 C858 0.929 . S
S862 N863 1.613 . S
S862 N864 1.610 . S
N863 S862 1.613 . S
N863 C866 1.349 1_655 S
N864 S862 1.610 . S
N864 C865 1.352 . S
C865 C859 1.429 . S
C865 N864 1.352 . S
C865 C866 1.434 1_655 S
C866 C857 1.429 . S
C866 N863 1.349 1_455 S
C866 C865 1.434 1_455 S
C867 C868 1.369 . S
C867 C869 1.419 . S
C867 H871 0.930 . S
C868 C867 1.369 . S
C868 C877 1.429 . S
C869 C867 1.419 . S
C869 C870 1.363 . S
C869 H872 0.929 . S
C870 C869 1.363 . S
C870 C876 1.428 . S
H871 C867 0.930 . S
H872 C869 0.929 . S
S873 N874 1.613 . S
S873 N875 1.610 . S
N874 S873 1.613 . S
N874 C877 1.350 . S
N875 S873 1.610 . S
N875 C876 1.351 . S
C876 C870 1.428 . S
C876 N875 1.351 . S
C876 C877 1.434 . S
C877 C868 1.429 . S
C877 N874 1.350 . S
C877 C876 1.434 . S
C878 C879 1.369 . S
C878 C880 1.419 . S
C878 H882 0.930 . S
C879 C878 1.369 . S
C879 C888 1.429 . S
C880 C878 1.419 . S
C880 C881 1.363 . S
C880 H883 0.929 . S
C881 C880 1.363 . S
C881 C887 1.428 . S
H882 C878 0.930 . S
H883 C880 0.929 . S
S884 N885 1.613 . S
S884 N886 1.610 . S
N885 S884 1.613 . S
N885 C888 1.350 . S
N886 S884 1.610 . S
N886 C887 1.351 . S
C887 C881 1.428 . S
C887 N886 1.351 . S
C887 C888 1.434 . S
C888 C879 1.429 . S
C888 N885 1.350 . S
C888 C887 1.434 . S
C889 C890 1.369 . S
C889 C891 1.419 . S
C889 H893 0.930 . S
C890 C889 1.369 . S
C890 C899 1.429 . S
C891 C889 1.419 . S
C891 C892 1.363 . S
C891 H894 0.929 . S
C892 C891 1.363 . S
C892 C898 1.428 . S
H893 C889 0.930 . S
H894 C891 0.929 . S
S895 N896 1.613 . S
S895 N897 1.610 . S
N896 S895 1.613 . S
N896 C899 1.350 . S
N897 S895 1.610 . S
N897 C898 1.351 . S
C898 C892 1.428 . S
C898 N897 1.351 . S
C898 C899 1.434 . S
C899 C890 1.429 . S
C899 N896 1.350 . S
C899 C898 1.434 . S
C900 C901 1.369 . S
C900 C902 1.419 . S
C900 H904 0.930 . S
C901 C900 1.369 . S
C901 C910 1.429 . S
C902 C900 1.419 . S
C902 C903 1.363 . S
C902 H905 0.929 . S
C903 C902 1.363 . S
C903 C909 1.428 . S
H904 C900 0.930 . S
H905 C902 0.929 . S
S906 N907 1.613 . S
S906 N908 1.610 . S
N907 S906 1.613 . S
N907 C910 1.350 . S
N908 S906 1.610 . S
N908 C909 1.351 . S
C909 C903 1.428 . S
C909 N908 1.351 . S
C909 C910 1.434 . S
C910 C901 1.429 . S
C910 N907 1.350 . S
C910 C909 1.434 . S
C911 C912 1.369 . S
C911 C913 1.419 1_545 S
C911 H915 0.930 . S
C912 C911 1.369 . S
C912 C921 1.429 . S
C913 C911 1.419 1_565 S
C913 C914 1.363 . S
C913 H916 0.929 . S
C914 C913 1.363 . S
C914 C920 1.428 . S
H915 C911 0.930 . S
H916 C913 0.929 . S
S917 N918 1.613 1_565 S
S917 N919 1.610 . S
N918 S917 1.613 1_545 S
N918 C921 1.350 . S
N919 S917 1.610 . S
N919 C920 1.351 . S
C920 C914 1.428 . S
C920 N919 1.351 . S
C920 C921 1.434 1_565 S
C921 C912 1.429 . S
C921 N918 1.350 . S
C921 C920 1.434 1_545 S
C922 C923 1.369 . S
C922 C924 1.419 . S
C922 H926 0.930 . S
C923 C922 1.369 . S
C923 C932 1.429 . S
C924 C922 1.419 . S
C924 C925 1.363 . S
C924 H927 0.929 . S
C925 C924 1.363 . S
C925 C931 1.428 . S
H926 C922 0.930 . S
H927 C924 0.929 . S
S928 N929 1.613 . S
S928 N930 1.610 . S
N929 S928 1.613 . S
N929 C932 1.350 . S
N930 S928 1.610 . S
N930 C931 1.351 . S
C931 C925 1.428 . S
C931 N930 1.351 . S
C931 C932 1.434 . S
C932 C923 1.429 . S
C932 N929 1.350 . S
C932 C931 1.434 . S
C933 C934 1.369 . S
C933 C935 1.419 1_556 S
C933 H937 0.930 . S
C934 C933 1.369 . S
C934 C943 1.429 . S
C935 C933 1.419 1_554 S
C935 C936 1.363 . S
C935 H938 0.929 . S
C936 C935 1.363 . S
C936 C942 1.428 . S
H937 C933 0.930 . S
H938 C935 0.929 . S
S939 N940 1.613 . S
S939 N941 1.610 1_556 S
N940 S939 1.613 . S
N940 C943 1.350 . S
N941 S939 1.610 1_554 S
N941 C942 1.351 . S
C942 C936 1.428 . S
C942 N941 1.351 . S
C942 C943 1.434 1_554 S
C943 C934 1.429 . S
C943 N940 1.350 . S
C943 C942 1.434 1_556 S
C944 C945 1.369 . S
C944 C946 1.419 . S
C944 H948 0.930 . S
C945 C944 1.369 . S
C945 C954 1.429 . S
C946 C944 1.419 . S
C946 C947 1.363 . S
C946 H949 0.929 . S
C947 C946 1.363 . S
C947 C953 1.428 . S
H948 C944 0.930 . S
H949 C946 0.929 . S
S950 N951 1.613 . S
S950 N952 1.610 . S
N951 S950 1.613 . S
N951 C954 1.350 . S
N952 S950 1.610 . S
N952 C953 1.351 . S
C953 C947 1.428 . S
C953 N952 1.351 . S
C953 C954 1.434 . S
C954 C945 1.429 . S
C954 N951 1.350 . S
C954 C953 1.434 . S
C955 C956 1.369 . S
C955 C957 1.419 . S
C955 H959 0.930 . S
C956 C955 1.369 . S
C956 C965 1.429 . S
C957 C955 1.419 . S
C957 C958 1.363 . S
C957 H960 0.929 . S
C958 C957 1.363 . S
C958 C964 1.428 . S
H959 C955 0.930 . S
H960 C957 0.929 . S
S961 N962 1.613 . S
S961 N963 1.610 . S
N962 S961 1.613 . S
N962 C965 1.350 . S
N963 S961 1.610 . S
N963 C964 1.351 . S
C964 C958 1.428 . S
C964 N963 1.351 . S
C964 C965 1.434 . S
C965 C956 1.429 . S
C965 N962 1.350 . S
C965 C964 1.434 . S
C966 C967 1.369 . S
C966 C968 1.419 . S
C966 H970 0.930 . S
C967 C966 1.369 . S
C967 C976 1.429 . S
C968 C966 1.419 . S
C968 C969 1.363 . S
C968 H971 0.929 . S
C969 C968 1.363 . S
C969 C975 1.428 . S
H970 C966 0.930 . S
H971 C968 0.929 . S
S972 N973 1.613 . S
S972 N974 1.610 . S
N973 S972 1.613 . S
N973 C976 1.350 . S
N974 S972 1.610 . S
N974 C975 1.351 . S
C975 C969 1.428 . S
C975 N974 1.351 . S
C975 C976 1.434 . S
C976 C967 1.429 . S
C976 N973 1.350 . S
C976 C975 1.434 . S
C977 C978 1.369 . S
C977 C979 1.419 . S
C977 H981 0.930 . S
C978 C977 1.369 . S
C978 C987 1.429 . S
C979 C977 1.419 . S
C979 C980 1.363 . S
C979 H982 0.929 . S
C980 C979 1.363 . S
C980 C986 1.428 . S
H981 C977 0.930 . S
H982 C979 0.929 . S
S983 N984 1.613 . S
S983 N985 1.610 . S
N984 S983 1.613 . S
N984 C987 1.350 . S
N985 S983 1.610 . S
N985 C986 1.351 . S
C986 C980 1.428 . S
C986 N985 1.351 . S
C986 C987 1.434 . S
C987 C978 1.429 . S
C987 N984 1.350 . S
C987 C986 1.434 . S
C988 C989 1.369 . S
C988 C990 1.419 . S
C988 H992 0.930 . S
C989 C988 1.369 . S
C989 C998 1.429 . S
C990 C988 1.419 . S
C990 C991 1.363 . S
C990 H993 0.929 . S
C991 C990 1.363 . S
C991 C997 1.428 . S
H992 C988 0.930 . S
H993 C990 0.929 . S
S994 N995 1.613 1_655 S
S994 N996 1.610 1_655 S
N995 S994 1.613 1_455 S
N995 C998 1.350 . S
N996 S994 1.610 1_455 S
N996 C997 1.351 . S
C997 C991 1.428 . S
C997 N996 1.351 . S
C997 C998 1.434 . S
C998 C989 1.429 . S
C998 N995 1.350 . S
C998 C997 1.434 . S
C999 C1000 1.369 . S
C999 C1001 1.419 . S
C999 H1003 0.930 . S
C1000 C999 1.369 . S
C1000 C1009 1.429 . S
C1001 C999 1.419 . S
C1001 C1002 1.363 . S
C1001 H1004 0.929 . S
C1002 C1001 1.363 . S
C1002 C1008 1.428 . S
H1003 C999 0.930 . S
H1004 C1001 0.929 . S
S1005 N1006 1.613 . S
S1005 N1007 1.610 . S
N1006 S1005 1.613 . S
N1006 C1009 1.350 . S
N1007 S1005 1.610 . S
N1007 C1008 1.351 . S
C1008 C1002 1.428 . S
C1008 N1007 1.351 . S
C1008 C1009 1.434 . S
C1009 C1000 1.429 . S
C1009 N1006 1.350 . S
C1009 C1008 1.434 . S
C1010 C1011 1.369 . S
C1010 C1012 1.419 . S
C1010 H1014 0.930 . S
C1011 C1010 1.369 . S
C1011 C1020 1.429 . S
C1012 C1010 1.419 . S
C1012 C1013 1.363 . S
C1012 H1015 0.929 . S
C1013 C1012 1.363 . S
C1013 C1019 1.428 . S
H1014 C1010 0.930 . S
H1015 C1012 0.929 . S
S1016 N1017 1.613 . S
S1016 N1018 1.610 1_455 S
N1017 S1016 1.613 . S
N1017 C1020 1.350 1_455 S
N1018 S1016 1.610 1_655 S
N1018 C1019 1.351 . S
C1019 C1013 1.428 . S
C1019 N1018 1.351 . S
C1019 C1020 1.434 . S
C1020 C1011 1.429 . S
C1020 N1017 1.350 1_655 S
C1020 C1019 1.434 . S
C1021 C1022 1.369 . S
C1021 C1023 1.419 . S
C1021 H1025 0.930 . S
C1022 C1021 1.369 . S
C1022 C1031 1.429 . S
C1023 C1021 1.419 . S
C1023 C1024 1.363 . S
C1023 H1026 0.929 . S
C1024 C1023 1.363 . S
C1024 C1030 1.428 . S
H1025 C1021 0.930 . S
H1026 C1023 0.929 . S
S1027 N1028 1.613 . S
S1027 N1029 1.610 . S
N1028 S1027 1.613 . S
N1028 C1031 1.350 . S
N1029 S1027 1.610 . S
N1029 C1030 1.351 . S
C1030 C1024 1.428 . S
C1030 N1029 1.351 . S
C1030 C1031 1.434 . S
C1031 C1022 1.429 . S
C1031 N1028 1.350 . S
C1031 C1030 1.434 . S
C1032 C1033 1.369 . S
C1032 C1034 1.419 . S
C1032 H1036 0.930 . S
C1033 C1032 1.369 . S
C1033 C1042 1.429 . S
C1034 C1032 1.419 . S
C1034 C1035 1.363 . S
C1034 H1037 0.929 . S
C1035 C1034 1.363 . S
C1035 C1041 1.428 . S
H1036 C1032 0.930 . S
H1037 C1034 0.929 . S
S1038 N1039 1.613 . S
S1038 N1040 1.610 . S
N1039 S1038 1.613 . S
N1039 C1042 1.350 . S
N1040 S1038 1.610 . S
N1040 C1041 1.351 . S
C1041 C1035 1.428 . S
C1041 N1040 1.351 . S
C1041 C1042 1.434 . S
C1042 C1033 1.429 . S
C1042 N1039 1.350 . S
C1042 C1041 1.434 . S
C1043 C1044 1.369 . S
C1043 C1045 1.419 . S
C1043 H1047 0.930 . S
C1044 C1043 1.369 . S
C1044 C1053 1.429 . S
C1045 C1043 1.419 . S
C1045 C1046 1.363 . S
C1045 H1048 0.929 . S
C1046 C1045 1.363 . S
C1046 C1052 1.428 . S
H1047 C1043 0.930 . S
H1048 C1045 0.929 . S
S1049 N1050 1.613 . S
S1049 N1051 1.610 . S
N1050 S1049 1.613 . S
N1050 C1053 1.350 . S
N1051 S1049 1.610 . S
N1051 C1052 1.351 . S
C1052 C1046 1.428 . S
C1052 N1051 1.351 . S
C1052 C1053 1.434 . S
C1053 C1044 1.429 . S
C1053 N1050 1.350 . S
C1053 C1052 1.434 . S
C1054 C1055 1.369 . S
C1054 C1056 1.419 . S
C1054 H1058 0.930 . S
C1055 C1054 1.369 . S
C1055 C1064 1.429 . S
C1056 C1054 1.419 . S
C1056 C1057 1.363 . S
C1056 H1059 0.929 . S
C1057 C1056 1.363 . S
C1057 C1063 1.428 . S
H1058 C1054 0.930 . S
H1059 C1056 0.929 . S
S1060 N1061 1.613 . S
S1060 N1062 1.610 . S
N1061 S1060 1.613 . S
N1061 C1064 1.350 . S
N1062 S1060 1.610 . S
N1062 C1063 1.351 . S
C1063 C1057 1.428 . S
C1063 N1062 1.351 . S
C1063 C1064 1.434 . S
C1064 C1055 1.429 . S
C1064 N1061 1.350 . S
C1064 C1063 1.434 . S
C1065 C1066 1.369 . S
C1065 C1067 1.419 . S
C1065 H1069 0.930 . S
C1066 C1065 1.369 . S
C1066 C1075 1.429 . S
C1067 C1065 1.419 . S
C1067 C1068 1.363 . S
C1067 H1070 0.929 . S
C1068 C1067 1.363 . S
C1068 C1074 1.428 . S
H1069 C1065 0.930 . S
H1070 C1067 0.929 . S
S1071 N1072 1.613 . S
S1071 N1073 1.610 . S
N1072 S1071 1.613 . S
N1072 C1075 1.350 . S
N1073 S1071 1.610 . S
N1073 C1074 1.351 . S
C1074 C1068 1.428 . S
C1074 N1073 1.351 . S
C1074 C1075 1.434 . S
C1075 C1066 1.429 . S
C1075 N1072 1.350 . S
C1075 C1074 1.434 . S
C1076 C1077 1.369 . S
C1076 C1078 1.419 . S
C1076 H1080 0.930 . S
C1077 C1076 1.369 . S
C1077 C1086 1.429 . S
C1078 C1076 1.419 . S
C1078 C1079 1.363 . S
C1078 H1081 0.929 . S
C1079 C1078 1.363 . S
C1079 C1085 1.428 . S
H1080 C1076 0.930 . S
H1081 C1078 0.929 . S
S1082 N1083 1.613 . S
S1082 N1084 1.610 . S
N1083 S1082 1.613 . S
N1083 C1086 1.350 . S
N1084 S1082 1.610 . S
N1084 C1085 1.351 . S
C1085 C1079 1.428 . S
C1085 N1084 1.351 . S
C1085 C1086 1.434 . S
C1086 C1077 1.429 . S
C1086 N1083 1.350 . S
C1086 C1085 1.434 . S
C1087 C1088 1.369 . S
C1087 C1089 1.419 . S
C1087 H1091 0.930 . S
C1088 C1087 1.369 . S
C1088 C1097 1.429 . S
C1089 C1087 1.419 . S
C1089 C1090 1.363 . S
C1089 H1092 0.929 . S
C1090 C1089 1.363 . S
C1090 C1096 1.428 . S
H1091 C1087 0.930 . S
H1092 C1089 0.929 . S
S1093 N1094 1.613 . S
S1093 N1095 1.610 . S
N1094 S1093 1.613 . S
N1094 C1097 1.350 . S
N1095 S1093 1.610 . S
N1095 C1096 1.351 . S
C1096 C1090 1.428 . S
C1096 N1095 1.351 . S
C1096 C1097 1.434 . S
C1097 C1088 1.429 . S
C1097 N1094 1.350 . S
C1097 C1096 1.434 . S
C1098 C1099 1.369 . S
C1098 C1100 1.419 . S
C1098 H1102 0.930 . S
C1099 C1098 1.369 . S
C1099 C1108 1.429 . S
C1100 C1098 1.419 . S
C1100 C1101 1.363 . S
C1100 H1103 0.929 . S
C1101 C1100 1.363 . S
C1101 C1107 1.428 . S
H1102 C1098 0.930 . S
H1103 C1100 0.929 . S
S1104 N1105 1.613 . S
S1104 N1106 1.610 . S
N1105 S1104 1.613 . S
N1105 C1108 1.350 . S
N1106 S1104 1.610 . S
N1106 C1107 1.351 . S
C1107 C1101 1.428 . S
C1107 N1106 1.351 . S
C1107 C1108 1.434 . S
C1108 C1099 1.429 . S
C1108 N1105 1.350 . S
C1108 C1107 1.434 . S
C1109 C1110 1.369 . S
C1109 C1111 1.419 . S
C1109 H1113 0.930 . S
C1110 C1109 1.369 . S
C1110 C1119 1.429 . S
C1111 C1109 1.419 . S
C1111 C1112 1.363 . S
C1111 H1114 0.929 . S
C1112 C1111 1.363 . S
C1112 C1118 1.428 . S
H1113 C1109 0.930 . S
H1114 C1111 0.929 . S
S1115 N1116 1.613 . S
S1115 N1117 1.610 . S
N1116 S1115 1.613 . S
N1116 C1119 1.350 . S
N1117 S1115 1.610 . S
N1117 C1118 1.351 . S
C1118 C1112 1.428 . S
C1118 N1117 1.351 . S
C1118 C1119 1.434 . S
C1119 C1110 1.429 . S
C1119 N1116 1.350 . S
C1119 C1118 1.434 . S
C417 C135 1.159 . S
C419 C5 1.162 . S
C428 C18 1.164 . S
C430 C148 1.162 . S
C439 C31 1.161 . S
C441 C109 1.165 . S
C450 C122 1.172 . S
C452 C44 1.168 . S
C461 C187 1.170 . S
C463 C57 1.171 . S
C472 C70 1.160 . S
C474 C200 1.163 . S
C483 C161 1.165 . S
C485 C83 1.163 . S
C494 C174 1.159 . S
C496 C96 1.161 . S
C505 C343 1.159 . S
C507 C213 1.160 . S
C516 C356 1.165 . S
C518 C226 1.168 . S
C527 C317 1.159 . S
C529 C239 1.160 . S
C538 C252 1.168 . S
C540 C330 1.164 . S
C549 C395 1.173 . S
C551 C265 1.171 . S
C560 C408 1.159 . S
C562 C278 1.161 . S
C571 C291 1.173 . S
C573 C369 1.171 . S
C582 C304 1.168 . S
C584 C382 1.166 . S
C593 C257 1.531 . S
C595 C10 1.535 . S
C604 C23 1.531 1_655 S
C606 C244 1.535 . S
C615 C231 1.532 . S
C617 C36 1.531 . S
C626 C218 1.535 . S
C628 C49 1.531 1_655 S
C637 C62 1.534 . S
C639 C309 1.534 . S
C648 C75 1.536 1_455 S
C650 C296 1.532 . S
C659 C283 1.534 . S
C661 C88 1.534 . S
C670 C101 1.533 1_455 S
C672 C270 1.532 . S
C681 C361 1.535 . S
C683 C114 1.534 . S
C692 C348 1.535 . S
C694 C127 1.531 1_655 S
C703 C335 1.534 . S
C705 C140 1.531 . S
C714 C322 1.532 . S
C716 C153 1.532 1_655 S
C725 C166 1.536 . S
C727 C413 1.532 . S
C736 C400 1.533 . S
C738 C179 1.531 1_455 S
C747 C192 1.534 . S
C749 C387 1.534 . S
C758 C205 1.535 1_455 S
C760 C374 1.531 . S
C769 C156 1.547 . S
C771 C0 1.541 . S
C780 C13 1.552 . S
C782 C273 1.540 . S
C791 C78 1.548 . S
C793 C26 1.540 . S
C802 C403 1.549 . S
C804 C39 1.544 . S
C813 C52 1.547 . S
C815 C104 1.542 . S
C824 C221 1.552 . S
C826 C65 1.540 . S
C835 C351 1.545 . S
C837 C91 1.545 . S
C846 C377 1.539 . S
C848 C117 1.551 . S
C857 C130 1.544 . S
C859 C182 1.544 . S
C868 C299 1.541 . S
C870 C143 1.549 . S
C879 C325 1.549 . S
C881 C169 1.543 . S
C890 C195 1.542 . S
C892 C247 1.549 . S
C901 C208 1.540 . S
C903 C364 1.546 . S
C912 C286 1.551 . S
C914 C234 1.538 . S
C923 C312 1.543 . S
C925 C260 1.545 . S
C934 C338 1.551 . S
C936 C390 1.538 . S
C945 C8 0.959 . S
C947 C47 0.960 . S
C956 C34 0.959 . S
C958 C21 0.960 . S
C967 C60 0.965 . S
C969 C99 0.964 . S
C978 C73 0.960 . S
C980 C86 0.959 . S
C989 C112 0.961 . S
C991 C151 0.962 . S
C1000 C125 0.961 . S
C1002 C138 0.962 . S
C1011 C164 0.961 . S
C1013 C203 0.962 . S
C1022 C190 0.964 . S
C1024 C177 0.964 . S
C1033 C255 0.964 . S
C1035 C216 0.964 . S
C1044 C242 0.959 . S
C1046 C229 0.959 . S
C1055 C307 0.960 . S
C1057 C268 0.961 . S
C1066 C294 0.962 . S
C1068 C281 0.961 . S
C1077 C359 0.960 . S
C1079 C320 0.961 . S
C1088 C346 0.965 . S
C1090 C333 0.964 . S
C1099 C372 0.963 . S
C1101 C411 0.961 . S
C1110 C398 0.962 . S
C1112 C385 0.963 . S
