# Generated by pormake.
# Topology uov, (4)-cn, num edge types: 1
# Building blocks:
#     Node 0, Type 0, BuildingBlock: GALJAG_clean_sbu_0, # of connection points: 4
#     Node 1, Type 0, BuildingBlock: GALJAG_clean_sbu_0, # of connection points: 4
#     Node 2, Type 0, BuildingBlock: GALJAG_clean_sbu_0, # of connection points: 4
#     Node 3, Type 0, BuildingBlock: GALJAG_clean_sbu_0, # of connection points: 4
#     Node 4, Type 0, BuildingBlock: GALJAG_clean_sbu_0, # of connection points: 4
#     Node 5, Type 0, BuildingBlock: GALJAG_clean_sbu_0, # of connection points: 4
#     Node 6, Type 0, BuildingBlock: GALJAG_clean_sbu_0, # of connection points: 4
#     Node 7, Type 0, BuildingBlock: GALJAG_clean_sbu_0, # of connection points: 4
#     Edge 8, Type (0, 0), BuildingBlock: AJUNOK_clean_linker_0, # of connection points: 2
#     Edge 9, Type (0, 0), BuildingBlock: AJUNOK_clean_linker_0, # of connection points: 2
#     Edge 10, Type (0, 0), BuildingBlock: AJUNOK_clean_linker_0, # of connection points: 2
#     Edge 11, Type (0, 0), BuildingBlock: AJUNOK_clean_linker_0, # of connection points: 2
#     Edge 12, Type (0, 0), BuildingBlock: AJUNOK_clean_linker_0, # of connection points: 2
#     Edge 13, Type (0, 0), BuildingBlock: AJUNOK_clean_linker_0, # of connection points: 2
#     Edge 14, Type (0, 0), BuildingBlock: AJUNOK_clean_linker_0, # of connection points: 2
#     Edge 15, Type (0, 0), BuildingBlock: AJUNOK_clean_linker_0, # of connection points: 2
#     Edge 16, Type (0, 0), BuildingBlock: AJUNOK_clean_linker_0, # of connection points: 2
#     Edge 17, Type (0, 0), BuildingBlock: AJUNOK_clean_linker_0, # of connection points: 2
#     Edge 18, Type (0, 0), BuildingBlock: AJUNOK_clean_linker_0, # of connection points: 2
#     Edge 19, Type (0, 0), BuildingBlock: AJUNOK_clean_linker_0, # of connection points: 2
#     Edge 20, Type (0, 0), BuildingBlock: AJUNOK_clean_linker_0, # of connection points: 2
#     Edge 21, Type (0, 0), BuildingBlock: AJUNOK_clean_linker_0, # of connection points: 2
#     Edge 22, Type (0, 0), BuildingBlock: AJUNOK_clean_linker_0, # of connection points: 2
#     Edge 23, Type (0, 0), BuildingBlock: AJUNOK_clean_linker_0, # of connection points: 2
# Relax obj value: 0.177
# Max RMSD: 0.147
# Mean RMSD: 0.147
data_MOF--net-uov--node1-GALJAG_clean_sbu_0--edge1-AJUNOK_clean_linker_0
_symmetry_space_group_name_H-M    P1
_symmetry_Int_Tables_number       1
_symmetry_cell_setting            triclinic
loop_
_symmetry_equiv_pos_as_xyz
'x, y, z'
_cell_length_a     21.270527
_cell_length_b     21.389184
_cell_length_c     34.069341
_cell_angle_alpha  90.037435
_cell_angle_beta   90.155061
_cell_angle_gamma 89.622476
loop_
_atom_site_label
_atom_site_type_symbol
_atom_site_fract_x
_atom_site_fract_y
_atom_site_fract_z
_atom_type_partial_charge
In0 In 0.03363 0.24286 0.61476 0.0
O1 O 0.07459 0.3384 0.60136 0.0
O2 O 0.00973 0.33237 0.64846 0.0
C3 C 0.09229 0.19542 0.55152 0.0
C4 C 0.07295 0.18126 0.68033 0.0
C5 C 0.91833 0.23183 0.58215 0.0
O6 O 0.11717 0.23787 0.57218 0.0
O7 O 0.04095 0.17477 0.56438 0.0
O8 O 0.93957 0.19226 0.60647 0.0
O9 O 0.95337 0.27826 0.57692 0.0
C10 C 0.04307 0.36698 0.62712 0.0
O11 O 0.02111 0.21007 0.67845 0.0
O12 O 0.10469 0.18292 0.64919 0.0
In13 In 0.2349 0.95819 0.38481 0.0
O14 O 0.33747 0.92742 0.38457 0.0
O15 O 0.31424 0.01421 0.35754 0.0
C16 C 0.19498 0.89801 0.44931 0.0
C17 C 0.18389 0.90582 0.31961 0.0
C18 C 0.19952 0.06582 0.41949 0.0
O19 O 0.25108 0.89266 0.43768 0.0
O20 O 0.15915 0.92847 0.42684 0.0
O21 O 0.16767 0.04076 0.39237 0.0
O22 O 0.25159 0.03939 0.42635 0.0
C23 C 0.35685 0.97583 0.36731 0.0
O24 O 0.18042 0.96369 0.32662 0.0
O25 O 0.21354 0.87477 0.34519 0.0
In26 In 0.97032 0.75631 0.61787 0.0
O27 O 0.95559 0.65549 0.59976 0.0
O28 O 0.01238 0.67174 0.65023 0.0
C29 C 0.89223 0.78794 0.55789 0.0
C30 C 0.92496 0.80239 0.68618 0.0
C31 C 0.07352 0.81208 0.58888 0.0
O32 O 0.94417 0.76075 0.55286 0.0
O33 O 0.87776 0.79579 0.59342 0.0
O34 O 0.02566 0.84199 0.60027 0.0
O35 O 0.07186 0.75431 0.59606 0.0
C36 C 0.98985 0.63255 0.62642 0.0
O37 O 0.9777 0.81852 0.67262 0.0
O38 O 0.89676 0.7617 0.66596 0.0
In39 In 0.7414 0.05027 0.40052 0.0
O40 O 0.6407 0.08174 0.38904 0.0
O41 O 0.66476 0.98745 0.37562 0.0
C42 C 0.76997 0.13549 0.45637 0.0
C43 C 0.79929 0.08704 0.33395 0.0
C44 C 0.77669 0.94762 0.44139 0.0
O45 O 0.72 0.10438 0.45699 0.0
O46 O 0.80351 0.12656 0.42648 0.0
O47 O 0.79977 0.95996 0.40812 0.0
O48 O 0.73521 0.98568 0.45273 0.0
C49 C 0.62254 0.0292 0.37668 0.0
O50 O 0.82417 0.04823 0.35738 0.0
O51 O 0.74532 0.10612 0.34388 0.0
In52 In 0.95257 0.22988 0.12176 0.0
O53 O 0.96723 0.17272 0.17843 0.0
O54 O 0.87919 0.21843 0.16883 0.0
C55 C 0.04652 0.20409 0.07166 0.0
C56 C 0.97597 0.34952 0.1398 0.0
C57 C 0.86971 0.18042 0.07137 0.0
O58 O 0.04405 0.17769 0.10498 0.0
O59 O 0.0039 0.24392 0.06529 0.0
O60 O 0.87914 0.23867 0.07293 0.0
O61 O 0.89979 0.14812 0.09619 0.0
C62 C 0.91221 0.18399 0.19094 0.0
O63 O 0.92374 0.33205 0.12596 0.0
O64 O 0.01529 0.30612 0.14588 0.0
In65 In 0.24178 0.03296 0.88681 0.0
O66 O 0.34225 0.06874 0.881 0.0
O67 O 0.32069 0.97908 0.85768 0.0
C68 C 0.19142 0.10677 0.94215 0.0
C69 C 0.18398 0.07298 0.82076 0.0
C70 C 0.22552 0.93368 0.93415 0.0
O71 O 0.25031 0.10316 0.93732 0.0
O72 O 0.15882 0.07593 0.91803 0.0
O73 O 0.19261 0.94081 0.90336 0.0
O74 O 0.26744 0.97418 0.939 0.0
C75 C 0.36226 0.01949 0.8645 0.0
O76 O 0.18818 0.01541 0.82909 0.0
O77 O 0.2097 0.10932 0.84508 0.0
In78 In 0.05065 0.73169 0.11082 0.0
O79 O 0.08471 0.63153 0.11877 0.0
O80 O 0.99131 0.65432 0.13644 0.0
C81 C 0.13321 0.77972 0.05952 0.0
C82 C 0.08493 0.7857 0.17903 0.0
C83 C 0.95147 0.75229 0.06333 0.0
O84 O 0.11976 0.72232 0.05954 0.0
O85 O 0.10766 0.81153 0.0863 0.0
O86 O 0.95422 0.77652 0.09725 0.0
O87 O -0.00283 0.71725 0.05472 0.0
C88 C 0.03325 0.61271 0.13283 0.0
O89 O 0.03586 0.80225 0.1605 0.0
O90 O 0.11551 0.74143 0.1634 0.0
In91 In 0.74723 0.94167 0.89251 0.0
O92 O 0.81729 0.95737 0.84225 0.0
O93 O 0.75923 0.87662 0.84078 0.0
C94 C 0.76825 0.03359 0.94469 0.0
C95 C 0.62824 0.96433 0.86979 0.0
C96 C 0.79519 0.85543 0.94161 0.0
O97 O 0.79435 0.03373 0.91123 0.0
O98 O 0.73058 0.98934 0.9502 0.0
O99 O 0.73684 0.86688 0.9403 0.0
O100 O 0.82782 0.88493 0.91708 0.0
C101 C 0.80263 0.90728 0.82465 0.0
O102 O 0.64627 0.91163 0.88248 0.0
O103 O 0.67063 0.00527 0.86787 0.0
C104 C 0.00841 0.53201 0.66238 0.0
C105 C 0.00708 0.56579 0.62702 0.0
C106 C 0.02175 0.46755 0.66253 0.0
C107 C 0.03652 0.4357 0.62755 0.0
H108 H -0.00299 0.55505 0.6898 0.0
H109 H 0.01989 0.44237 0.69008 0.0
S110 S 0.04341 0.50469 0.52775 0.0
N111 N 0.02356 0.56368 0.55653 0.0
N112 N 0.05112 0.44351 0.55692 0.0
C113 C 0.03781 0.46981 0.59231 0.0
C114 C 0.0224 0.53468 0.59202 0.0
C115 C 0.53362 0.95425 0.37099 0.0
C116 C 0.55576 0.01589 0.36819 0.0
C117 C 0.46919 0.94134 0.36894 0.0
C118 C 0.42465 0.98944 0.3633 0.0
H119 H 0.56596 0.91597 0.37674 0.0
H120 H 0.45407 0.89351 0.37299 0.0
S121 S 0.45922 0.15791 0.34962 0.0
N122 N 0.52878 0.12489 0.35642 0.0
N123 N 0.40775 0.10058 0.35176 0.0
C124 C 0.44654 0.0508 0.35801 0.0
C125 C 0.51209 0.06405 0.3607 0.0
C126 C 0.94386 0.46159 0.14324 0.0
C127 C 0.99195 0.41625 0.14416 0.0
C128 C 0.95784 0.52538 0.14173 0.0
C129 C 0.02044 0.54608 0.14043 0.0
H130 H 0.89498 0.4477 0.1425 0.0
H131 H 0.9192 0.55848 0.13972 0.0
S132 S 0.16362 0.44655 0.1458 0.0
N133 N 0.10477 0.39662 0.14679 0.0
N134 N 0.13094 0.51666 0.14323 0.0
C135 C 0.069 0.50146 0.14319 0.0
C136 C 0.05477 0.43646 0.14529 0.0
C137 C 0.47439 0.05385 0.86546 0.0
C138 C 0.4301 0.0064 0.8589 0.0
C139 C 0.53897 0.0404 0.86663 0.0
C140 C 0.56142 0.97884 0.86195 0.0
H141 H 0.45902 0.10138 0.87116 0.0
H142 H 0.5712 0.07797 0.87331 0.0
S143 S 0.46588 0.83896 0.83945 0.0
N144 N 0.414 0.89628 0.84378 0.0
N145 N 0.53523 0.87111 0.84691 0.0
C146 C 0.51807 0.93159 0.85328 0.0
C147 C 0.45242 0.94537 0.85146 0.0
C148 C 0.2109 0.13743 0.47697 0.0
C149 C 0.17231 0.11131 0.44759 0.0
C150 C 0.18493 0.16775 0.50974 0.0
C151 C 0.11954 0.17188 0.51453 0.0
H152 H 0.26149 0.13165 0.47567 0.0
H153 H 0.21614 0.18482 0.53247 0.0
S154 S -0.00209 0.11894 0.44385 0.0
N155 N 0.06528 0.09803 0.42359 0.0
N156 N 0.01672 0.15392 0.48542 0.0
C157 C 0.08052 0.14983 0.48421 0.0
C158 C 0.10687 0.11993 0.45059 0.0
C159 C 0.18564 0.81873 0.50308 0.0
C160 C 0.17397 0.87909 0.48861 0.0
C161 C 0.15736 0.79859 0.53806 0.0
C162 C 0.11744 0.83863 0.55976 0.0
H163 H 0.21345 0.78586 0.48613 0.0
H164 H 0.16359 0.75022 0.54672 0.0
S165 S 0.08387 0.00551 0.53791 0.0
N166 N 0.12798 0.98141 0.50102 0.0
N167 N 0.07635 0.94445 0.56707 0.0
C168 C 0.1109 0.90099 0.54734 0.0
C169 C 0.13864 0.92095 0.51156 0.0
C170 C 0.77488 0.892 0.50559 0.0
C171 C 0.80056 0.89761 0.46769 0.0
C172 C 0.80249 0.85302 0.53384 0.0
C173 C 0.85683 0.8179 0.52535 0.0
H174 H 0.73474 0.92018 0.51426 0.0
H175 H 0.78273 0.85287 0.56312 0.0
S176 S 0.93783 0.80955 0.429 0.0
N177 N 0.87983 0.86004 0.42198 0.0
N178 N 0.93176 0.78637 0.47505 0.0
C179 C 0.88046 0.81961 0.48675 0.0
C180 C 0.85233 0.85959 0.45793 0.0
C181 C 0.83357 0.22086 0.48537 0.0
C182 C 0.79407 0.16939 0.49085 0.0
C183 C 0.86892 0.24495 0.51652 0.0
C184 C 0.86758 0.21703 0.55398 0.0
H185 H 0.83963 0.24063 0.45635 0.0
H186 H 0.90128 0.28253 0.51026 0.0
S187 S 0.76715 0.08469 0.5842 0.0
N188 N 0.75082 0.09483 0.5372 0.0
N189 N 0.81936 0.13866 0.59555 0.0
C190 C 0.82521 0.16807 0.56042 0.0
C191 C 0.78791 0.14455 0.52886 0.0
C192 C 0.82129 0.13052 0.96945 0.0
C193 C 0.7855 0.07676 0.97694 0.0
C194 C 0.84456 0.16723 1.0004 0.0
C195 C 0.83378 0.15047 0.0397 0.0
H196 H 0.83308 0.1432 0.93959 0.0
H197 H 0.87436 0.20663 0.99357 0.0
S198 S 0.73899 0.01779 0.07529 0.0
N199 N 0.73637 0.01192 0.027 0.0
N200 N 0.7822 0.07985 0.08465 0.0
C201 C 0.79608 0.09868 0.04758 0.0
C202 C 0.77129 0.0621 0.0163 0.0
C203 C 0.10411 0.17022 0.96915 0.0
C204 C 0.16164 0.13943 0.97533 0.0
C205 C 0.06905 0.19325 1.00066 0.0
C206 C 0.08929 0.18476 0.03971 0.0
H207 H 0.08525 0.1752 0.93971 0.0
H208 H 0.02421 0.21543 0.99432 0.0
S209 S 0.23807 0.10904 0.07143 0.0
N210 N 0.23922 0.10393 0.02302 0.0
N211 N 0.17181 0.14553 0.08273 0.0
C212 C 0.14754 0.15534 0.04633 0.0
C213 C 0.1842 0.13318 0.01398 0.0
C214 C 0.15074 0.79783 0.98817 0.0
C215 C 0.16733 0.81022 0.02739 0.0
C216 C 0.17169 0.83648 0.95758 0.0
C217 C 0.21097 0.88773 0.96529 0.0
H218 H 0.11809 0.76066 0.98137 0.0
H219 H 0.15535 0.82744 0.92799 0.0
S220 S 0.27242 0.93524 0.0631 0.0
N221 N 0.22775 0.87419 0.07222 0.0
N222 N 0.26932 0.94548 0.01512 0.0
C223 C 0.23098 0.89782 0.0043 0.0
C224 C 0.2085 0.8594 0.0353 0.0
C225 C 0.88151 0.78594 0.96374 0.0
C226 C 0.82559 0.81798 0.97259 0.0
C227 C 0.91969 0.76154 0.99349 0.0
C228 C 0.90421 0.76967 0.03333 0.0
H229 H 0.89727 0.78202 0.9336 0.0
H230 H 0.96356 0.73931 0.98509 0.0
S231 S 0.75952 0.84484 0.07181 0.0
N232 N 0.75338 0.85196 0.02365 0.0
N233 N 0.82648 0.80741 0.07998 0.0
C234 C 0.84673 0.79875 0.04258 0.0
C235 C 0.80698 0.8225 0.01207 0.0
C236 C 0.13638 0.09813 0.71438 0.0
C237 C 0.09649 0.15086 0.71662 0.0
C238 C 0.16237 0.07102 0.74842 0.0
C239 C 0.15098 0.0971 0.78562 0.0
H240 H 0.14786 0.07791 0.68611 0.0
H241 H 0.1935 0.03101 0.74547 0.0
S242 S 0.04858 0.23354 0.80757 0.0
N243 N 0.04475 0.22614 0.75936 0.0
N244 N 0.0958 0.17699 0.82295 0.0
C245 C 0.11056 0.14912 0.78828 0.0
C246 C 0.08268 0.17553 0.75387 0.0
C247 C 0.15274 0.7872 0.23902 0.0
C248 C 0.10692 0.81672 0.21548 0.0
C249 C 0.17659 0.81614 0.27281 0.0
C250 C 0.15641 0.87627 0.2841 0.0
H251 H 0.1705 0.74124 0.23131 0.0
H252 H 0.21192 0.79146 0.28985 0.0
S253 S 0.03672 0.97348 0.23271 0.0
N254 N 0.04142 0.90907 0.20615 0.0
N255 N 0.08706 0.96407 0.26927 0.0
C256 C 0.11039 0.90631 0.26093 0.0
C257 C 0.08539 0.87636 0.22677 0.0
C258 C 0.83985 0.8056 0.73638 0.0
C259 C 0.89629 0.83037 0.72189 0.0
C260 C 0.80998 0.83146 0.76921 0.0
C261 C 0.83489 0.88359 0.78894 0.0
H262 H 0.81832 0.76565 0.7223 0.0
H263 H 0.7668 0.81015 0.77917 0.0
S264 S 0.98164 0.96675 0.76284 0.0
N265 N 0.97614 0.91045 0.7298 0.0
N266 N 0.91967 0.9593 0.79155 0.0
C267 C 0.89122 0.90924 0.77474 0.0
C268 C 0.92202 0.88253 0.74128 0.0
C269 C 0.79323 0.13481 0.26739 0.0
C270 C 0.83028 0.10937 0.2977 0.0
C271 C 0.8205 0.15827 0.23314 0.0
C272 C 0.8861 0.15761 0.22771 0.0
H273 H 0.74249 0.13652 0.27005 0.0
H274 H 0.78962 0.17704 0.21065 0.0
S275 S 0.00453 0.1011 0.2998 0.0
N276 N 0.93627 0.08756 0.32107 0.0
N277 N 0.98778 0.13213 0.25657 0.0
C278 C 0.92396 0.13275 0.25791 0.0
C279 C 0.896 0.10853 0.29292 0.0
loop_
_geom_bond_atom_site_label_1
_geom_bond_atom_site_label_2
_geom_bond_distance
_geom_bond_site_symmetry_2
_ccdc_geom_bond_type
In0 O1 2.294 . S
In0 O2 2.326 . S
In0 O6 2.266 . S
In0 O7 2.326 . S
In0 O8 2.266 1_455 S
In0 O9 2.326 . S
In0 O11 2.294 . S
In0 O12 2.326 . S
O1 In0 2.294 . S
O1 C10 1.240 . S
O2 In0 2.326 . S
O2 C10 1.252 . S
C3 O6 1.252 . S
C3 O7 1.260 . S
C4 O11 1.240 . S
C4 O12 1.252 . S
C5 O8 1.252 . S
C5 O9 1.260 1_655 S
O6 In0 2.266 . S
O6 C3 1.252 . S
O7 In0 2.326 . S
O7 C3 1.260 . S
O8 In0 2.266 1_655 S
O8 C5 1.252 . S
O9 In0 2.326 . S
O9 C5 1.260 1_455 S
C10 O1 1.240 . S
C10 O2 1.252 . S
O11 In0 2.294 . S
O11 C4 1.240 . S
O12 In0 2.326 . S
O12 C4 1.252 . S
In13 O14 2.294 . S
In13 O15 2.326 . S
In13 O19 2.266 . S
In13 O20 2.326 . S
In13 O21 2.266 1_565 S
In13 O22 2.326 . S
In13 O24 2.294 . S
In13 O25 2.326 . S
O14 In13 2.294 . S
O14 C23 1.240 . S
O15 In13 2.326 . S
O15 C23 1.252 . S
C16 O19 1.252 . S
C16 O20 1.260 . S
C17 O24 1.240 . S
C17 O25 1.252 . S
C18 O21 1.252 . S
C18 O22 1.260 1_545 S
O19 In13 2.266 . S
O19 C16 1.252 . S
O20 In13 2.326 . S
O20 C16 1.260 . S
O21 In13 2.266 1_545 S
O21 C18 1.252 . S
O22 In13 2.326 . S
O22 C18 1.260 1_565 S
C23 O14 1.240 . S
C23 O15 1.252 . S
O24 In13 2.294 . S
O24 C17 1.240 . S
O25 In13 2.326 . S
O25 C17 1.252 . S
In26 O27 2.294 . S
In26 O28 2.326 . S
In26 O32 2.266 . S
In26 O33 2.326 . S
In26 O34 2.266 1_655 S
In26 O35 2.326 . S
In26 O37 2.294 . S
In26 O38 2.326 . S
O27 In26 2.294 . S
O27 C36 1.240 . S
O28 In26 2.326 . S
O28 C36 1.252 . S
C29 O32 1.252 . S
C29 O33 1.260 . S
C30 O37 1.240 . S
C30 O38 1.252 . S
C31 O34 1.252 . S
C31 O35 1.260 1_455 S
O32 In26 2.266 . S
O32 C29 1.252 . S
O33 In26 2.326 . S
O33 C29 1.260 . S
O34 In26 2.266 1_455 S
O34 C31 1.252 . S
O35 In26 2.326 . S
O35 C31 1.260 1_655 S
C36 O27 1.240 . S
C36 O28 1.252 . S
O37 In26 2.294 . S
O37 C30 1.240 . S
O38 In26 2.326 . S
O38 C30 1.252 . S
In39 O40 2.294 . S
In39 O41 2.326 . S
In39 O45 2.266 . S
In39 O46 2.326 . S
In39 O47 2.266 1_545 S
In39 O48 2.326 . S
In39 O50 2.294 . S
In39 O51 2.326 . S
O40 In39 2.294 . S
O40 C49 1.240 . S
O41 In39 2.326 . S
O41 C49 1.252 . S
C42 O45 1.252 . S
C42 O46 1.260 . S
C43 O50 1.240 . S
C43 O51 1.252 . S
C44 O47 1.252 . S
C44 O48 1.260 1_565 S
O45 In39 2.266 . S
O45 C42 1.252 . S
O46 In39 2.326 . S
O46 C42 1.260 . S
O47 In39 2.266 1_565 S
O47 C44 1.252 . S
O48 In39 2.326 . S
O48 C44 1.260 1_545 S
C49 O40 1.240 . S
C49 O41 1.252 . S
O50 In39 2.294 . S
O50 C43 1.240 . S
O51 In39 2.326 . S
O51 C43 1.252 . S
In52 O53 2.294 . S
In52 O54 2.326 . S
In52 O58 2.266 1_655 S
In52 O59 2.326 . S
In52 O60 2.266 . S
In52 O61 2.326 . S
In52 O63 2.294 . S
In52 O64 2.326 . S
O53 In52 2.294 . S
O53 C62 1.240 . S
O54 In52 2.326 . S
O54 C62 1.252 . S
C55 O58 1.252 . S
C55 O59 1.260 1_455 S
C56 O63 1.240 . S
C56 O64 1.252 . S
C57 O60 1.252 . S
C57 O61 1.260 . S
O58 In52 2.266 1_455 S
O58 C55 1.252 . S
O59 In52 2.326 . S
O59 C55 1.260 1_655 S
O60 In52 2.266 . S
O60 C57 1.252 . S
O61 In52 2.326 . S
O61 C57 1.260 . S
C62 O53 1.240 . S
C62 O54 1.252 . S
O63 In52 2.294 . S
O63 C56 1.240 . S
O64 In52 2.326 . S
O64 C56 1.252 . S
In65 O66 2.294 . S
In65 O67 2.326 . S
In65 O71 2.266 . S
In65 O72 2.326 . S
In65 O73 2.266 1_545 S
In65 O74 2.326 . S
In65 O76 2.294 . S
In65 O77 2.326 . S
O66 In65 2.294 . S
O66 C75 1.240 . S
O67 In65 2.326 . S
O67 C75 1.252 . S
C68 O71 1.252 . S
C68 O72 1.260 . S
C69 O76 1.240 . S
C69 O77 1.252 . S
C70 O73 1.252 . S
C70 O74 1.260 1_565 S
O71 In65 2.266 . S
O71 C68 1.252 . S
O72 In65 2.326 . S
O72 C68 1.260 . S
O73 In65 2.266 1_565 S
O73 C70 1.252 . S
O74 In65 2.326 . S
O74 C70 1.260 1_545 S
C75 O66 1.240 . S
C75 O67 1.252 . S
O76 In65 2.294 . S
O76 C69 1.240 . S
O77 In65 2.326 . S
O77 C69 1.252 . S
In78 O79 2.294 . S
In78 O80 2.326 . S
In78 O84 2.266 . S
In78 O85 2.326 . S
In78 O86 2.266 1_455 S
In78 O87 2.326 . S
In78 O89 2.294 . S
In78 O90 2.326 . S
O79 In78 2.294 . S
O79 C88 1.240 . S
O80 In78 2.326 . S
O80 C88 1.252 . S
C81 O84 1.252 . S
C81 O85 1.260 . S
C82 O89 1.240 . S
C82 O90 1.252 . S
C83 O86 1.252 . S
C83 O87 1.260 1_655 S
O84 In78 2.266 . S
O84 C81 1.252 . S
O85 In78 2.326 . S
O85 C81 1.260 . S
O86 In78 2.266 1_655 S
O86 C83 1.252 . S
O87 In78 2.326 . S
O87 C83 1.260 1_455 S
C88 O79 1.240 . S
C88 O80 1.252 . S
O89 In78 2.294 . S
O89 C82 1.240 . S
O90 In78 2.326 . S
O90 C82 1.252 . S
In91 O92 2.294 . S
In91 O93 2.326 . S
In91 O97 2.266 1_565 S
In91 O98 2.326 . S
In91 O99 2.266 . S
In91 O100 2.326 . S
In91 O102 2.294 . S
In91 O103 2.326 . S
O92 In91 2.294 . S
O92 C101 1.240 . S
O93 In91 2.326 . S
O93 C101 1.252 . S
C94 O97 1.252 . S
C94 O98 1.260 1_545 S
C95 O102 1.240 . S
C95 O103 1.252 . S
C96 O99 1.252 . S
C96 O100 1.260 . S
O97 In91 2.266 1_545 S
O97 C94 1.252 . S
O98 In91 2.326 . S
O98 C94 1.260 1_565 S
O99 In91 2.266 . S
O99 C96 1.252 . S
O100 In91 2.326 . S
O100 C96 1.260 . S
C101 O92 1.240 . S
C101 O93 1.252 . S
O102 In91 2.294 . S
O102 C95 1.240 . S
O103 In91 2.326 . S
O103 C95 1.252 . S
C104 C105 1.369 . S
C104 C106 1.419 1_655 S
C104 H108 0.930 . S
C105 C104 1.369 . S
C105 C114 1.429 . S
C106 C104 1.419 1_455 S
C106 C107 1.363 . S
C106 H109 0.929 . S
C107 C106 1.363 . S
C107 C113 1.428 . S
H108 C104 0.930 . S
H109 C106 0.929 . S
S110 N111 1.613 1_455 S
S110 N112 1.610 . S
N111 S110 1.613 1_655 S
N111 C114 1.350 . S
N112 S110 1.610 . S
N112 C113 1.351 . S
C113 C107 1.428 . S
C113 N112 1.351 . S
C113 C114 1.434 1_455 S
C114 C105 1.429 . S
C114 N111 1.350 . S
C114 C113 1.434 1_655 S
C115 C116 1.369 1_565 S
C115 C117 1.419 . S
C115 H119 0.930 . S
C116 C115 1.369 1_545 S
C116 C125 1.429 . S
C117 C115 1.419 . S
C117 C118 1.363 . S
C117 H120 0.929 . S
C118 C117 1.363 . S
C118 C124 1.428 1_565 S
H119 C115 0.930 . S
H120 C117 0.929 . S
S121 N122 1.613 . S
S121 N123 1.610 . S
N122 S121 1.613 . S
N122 C125 1.350 . S
N123 S121 1.610 . S
N123 C124 1.351 . S
C124 C118 1.428 1_545 S
C124 N123 1.351 . S
C124 C125 1.434 . S
C125 C116 1.429 . S
C125 N122 1.350 . S
C125 C124 1.434 . S
C126 C127 1.369 . S
C126 C128 1.419 . S
C126 H130 0.930 . S
C127 C126 1.369 . S
C127 C136 1.429 1_655 S
C128 C126 1.419 . S
C128 C129 1.363 1_655 S
C128 H131 0.929 . S
C129 C128 1.363 1_455 S
C129 C135 1.428 . S
H130 C126 0.930 . S
H131 C128 0.929 . S
S132 N133 1.613 . S
S132 N134 1.610 . S
N133 S132 1.613 . S
N133 C136 1.350 . S
N134 S132 1.610 . S
N134 C135 1.351 . S
C135 C129 1.428 . S
C135 N134 1.351 . S
C135 C136 1.434 . S
C136 C127 1.429 1_455 S
C136 N133 1.350 . S
C136 C135 1.434 . S
C137 C138 1.369 . S
C137 C139 1.419 1_545 S
C137 H141 0.930 . S
C138 C137 1.369 . S
C138 C147 1.429 . S
C139 C137 1.419 1_565 S
C139 C140 1.363 . S
C139 H142 0.929 . S
C140 C139 1.363 . S
C140 C146 1.428 . S
H141 C137 0.930 . S
H142 C139 0.929 . S
S143 N144 1.613 1_565 S
S143 N145 1.610 . S
N144 S143 1.613 1_545 S
N144 C147 1.350 . S
N145 S143 1.610 . S
N145 C146 1.351 . S
C146 C140 1.428 . S
C146 N145 1.351 . S
C146 C147 1.434 1_565 S
C147 C138 1.429 . S
C147 N144 1.350 . S
C147 C146 1.434 1_545 S
C148 C149 1.369 . S
C148 C150 1.419 . S
C148 H152 0.930 . S
C149 C148 1.369 . S
C149 C158 1.429 . S
C150 C148 1.419 . S
C150 C151 1.363 . S
C150 H153 0.929 . S
C151 C150 1.363 . S
C151 C157 1.428 . S
H152 C148 0.930 . S
H153 C150 0.929 . S
S154 N155 1.613 . S
S154 N156 1.610 . S
N155 S154 1.613 . S
N155 C158 1.350 . S
N156 S154 1.610 . S
N156 C157 1.351 . S
C157 C151 1.428 . S
C157 N156 1.351 . S
C157 C158 1.434 . S
C158 C149 1.429 . S
C158 N155 1.350 . S
C158 C157 1.434 . S
C159 C160 1.369 . S
C159 C161 1.419 . S
C159 H163 0.930 . S
C160 C159 1.369 . S
C160 C169 1.429 . S
C161 C159 1.419 . S
C161 C162 1.363 . S
C161 H164 0.929 . S
C162 C161 1.363 . S
C162 C168 1.428 . S
H163 C159 0.930 . S
H164 C161 0.929 . S
S165 N166 1.613 . S
S165 N167 1.610 . S
N166 S165 1.613 . S
N166 C169 1.350 . S
N167 S165 1.610 . S
N167 C168 1.351 . S
C168 C162 1.428 . S
C168 N167 1.351 . S
C168 C169 1.434 . S
C169 C160 1.429 . S
C169 N166 1.350 . S
C169 C168 1.434 . S
C170 C171 1.369 . S
C170 C172 1.419 . S
C170 H174 0.930 . S
C171 C170 1.369 . S
C171 C180 1.429 . S
C172 C170 1.419 . S
C172 C173 1.363 . S
C172 H175 0.929 . S
C173 C172 1.363 . S
C173 C179 1.428 . S
H174 C170 0.930 . S
H175 C172 0.929 . S
S176 N177 1.613 . S
S176 N178 1.610 . S
N177 S176 1.613 . S
N177 C180 1.350 . S
N178 S176 1.610 . S
N178 C179 1.351 . S
C179 C173 1.428 . S
C179 N178 1.351 . S
C179 C180 1.434 . S
C180 C171 1.429 . S
C180 N177 1.350 . S
C180 C179 1.434 . S
C181 C182 1.369 . S
C181 C183 1.419 . S
C181 H185 0.930 . S
C182 C181 1.369 . S
C182 C191 1.429 . S
C183 C181 1.419 . S
C183 C184 1.363 . S
C183 H186 0.929 1_655 S
C184 C183 1.363 . S
C184 C190 1.428 . S
H185 C181 0.930 . S
H186 C183 0.929 1_455 S
S187 N188 1.613 . S
S187 N189 1.610 . S
N188 S187 1.613 . S
N188 C191 1.350 . S
N189 S187 1.610 . S
N189 C190 1.351 . S
C190 C184 1.428 . S
C190 N189 1.351 . S
C190 C191 1.434 . S
C191 C182 1.429 . S
C191 N188 1.350 . S
C191 C190 1.434 . S
C192 C193 1.369 . S
C192 C194 1.419 . S
C192 H196 0.930 . S
C193 C192 1.369 . S
C193 C202 1.429 1_556 S
C194 C192 1.419 . S
C194 C195 1.363 1_556 S
C194 H197 0.929 . S
C195 C194 1.363 1_554 S
C195 C201 1.428 . S
H196 C192 0.930 . S
H197 C194 0.929 . S
S198 N199 1.613 . S
S198 N200 1.610 1_565 S
N199 S198 1.613 . S
N199 C202 1.350 1_565 S
N200 S198 1.610 1_545 S
N200 C201 1.351 . S
C201 C195 1.428 . S
C201 N200 1.351 . S
C201 C202 1.434 . S
C202 C193 1.429 1_554 S
C202 N199 1.350 1_545 S
C202 C201 1.434 . S
C203 C204 1.369 . S
C203 C205 1.419 . S
C203 H207 0.930 . S
C204 C203 1.369 . S
C204 C213 1.429 1_556 S
C205 C203 1.419 . S
C205 C206 1.363 1_556 S
C205 H208 0.929 . S
C206 C205 1.363 1_554 S
C206 C212 1.428 . S
H207 C203 0.930 . S
H208 C205 0.929 . S
S209 N210 1.613 . S
S209 N211 1.610 . S
N210 S209 1.613 . S
N210 C213 1.350 . S
N211 S209 1.610 . S
N211 C212 1.351 . S
C212 C206 1.428 . S
C212 N211 1.351 . S
C212 C213 1.434 . S
C213 C204 1.429 1_554 S
C213 N210 1.350 . S
C213 C212 1.434 . S
C214 C215 1.369 1_556 S
C214 C216 1.419 . S
C214 H218 0.930 . S
C215 C214 1.369 1_554 S
C215 C224 1.429 . S
C216 C214 1.419 . S
C216 C217 1.363 . S
C216 H219 0.929 . S
C217 C216 1.363 . S
C217 C223 1.428 1_556 S
H218 C214 0.930 . S
H219 C216 0.929 . S
S220 N221 1.613 1_545 S
S220 N222 1.610 . S
N221 S220 1.613 1_565 S
N221 C224 1.350 . S
N222 S220 1.610 . S
N222 C223 1.351 1_545 S
C223 C217 1.428 1_554 S
C223 N222 1.351 1_565 S
C223 C224 1.434 . S
C224 C215 1.429 . S
C224 N221 1.350 . S
C224 C223 1.434 . S
C225 C226 1.369 . S
C225 C227 1.419 . S
C225 H229 0.930 . S
C226 C225 1.369 . S
C226 C235 1.429 1_556 S
C227 C225 1.419 . S
C227 C228 1.363 1_556 S
C227 H230 0.929 . S
C228 C227 1.363 1_554 S
C228 C234 1.428 . S
H229 C225 0.930 . S
H230 C227 0.929 . S
S231 N232 1.613 . S
S231 N233 1.610 . S
N232 S231 1.613 . S
N232 C235 1.350 . S
N233 S231 1.610 . S
N233 C234 1.351 . S
C234 C228 1.428 . S
C234 N233 1.351 . S
C234 C235 1.434 . S
C235 C226 1.429 1_554 S
C235 N232 1.350 . S
C235 C234 1.434 . S
C236 C237 1.369 . S
C236 C238 1.419 . S
C236 H240 0.930 . S
C237 C236 1.369 . S
C237 C246 1.429 . S
C238 C236 1.419 . S
C238 C239 1.363 . S
C238 H241 0.929 . S
C239 C238 1.363 . S
C239 C245 1.428 . S
H240 C236 0.930 . S
H241 C238 0.929 . S
S242 N243 1.613 . S
S242 N244 1.610 . S
N243 S242 1.613 . S
N243 C246 1.350 . S
N244 S242 1.610 . S
N244 C245 1.351 . S
C245 C239 1.428 . S
C245 N244 1.351 . S
C245 C246 1.434 . S
C246 C237 1.429 . S
C246 N243 1.350 . S
C246 C245 1.434 . S
C247 C248 1.369 . S
C247 C249 1.419 . S
C247 H251 0.930 . S
C248 C247 1.369 . S
C248 C257 1.429 . S
C249 C247 1.419 . S
C249 C250 1.363 . S
C249 H252 0.929 . S
C250 C249 1.363 . S
C250 C256 1.428 . S
H251 C247 0.930 . S
H252 C249 0.929 . S
S253 N254 1.613 . S
S253 N255 1.610 . S
N254 S253 1.613 . S
N254 C257 1.350 . S
N255 S253 1.610 . S
N255 C256 1.351 . S
C256 C250 1.428 . S
C256 N255 1.351 . S
C256 C257 1.434 . S
C257 C248 1.429 . S
C257 N254 1.350 . S
C257 C256 1.434 . S
C258 C259 1.369 . S
C258 C260 1.419 . S
C258 H262 0.930 . S
C259 C258 1.369 . S
C259 C268 1.429 . S
C260 C258 1.419 . S
C260 C261 1.363 . S
C260 H263 0.929 . S
C261 C260 1.363 . S
C261 C267 1.428 . S
H262 C258 0.930 . S
H263 C260 0.929 . S
S264 N265 1.613 . S
S264 N266 1.610 . S
N265 S264 1.613 . S
N265 C268 1.350 . S
N266 S264 1.610 . S
N266 C267 1.351 . S
C267 C261 1.428 . S
C267 N266 1.351 . S
C267 C268 1.434 . S
C268 C259 1.429 . S
C268 N265 1.350 . S
C268 C267 1.434 . S
C269 C270 1.369 . S
C269 C271 1.419 . S
C269 H273 0.930 . S
C270 C269 1.369 . S
C270 C279 1.429 . S
C271 C269 1.419 . S
C271 C272 1.363 . S
C271 H274 0.929 . S
C272 C271 1.363 . S
C272 C278 1.428 . S
H273 C269 0.930 . S
H274 C271 0.929 . S
S275 N276 1.613 . S
S275 N277 1.610 . S
N276 S275 1.613 . S
N276 C279 1.350 . S
N277 S275 1.610 . S
N277 C278 1.351 . S
C278 C272 1.428 . S
C278 N277 1.351 . S
C278 C279 1.434 . S
C279 C270 1.429 . S
C279 N276 1.350 . S
C279 C278 1.434 . S
C105 C36 1.644 . S
C107 C10 1.644 . S
C116 C49 1.649 . S
C118 C23 1.642 . S
C127 C56 1.641 . S
C129 C88 1.648 . S
C138 C75 1.643 . S
C140 C95 1.647 . S
C149 C18 1.271 . S
C151 C3 1.235 . S
C160 C16 1.233 . S
C162 C31 1.269 . S
C171 C44 1.270 . S
C173 C29 1.238 . S
C182 C42 1.241 . S
C184 C5 1.269 . S
C193 C94 1.264 . S
C195 C57 1.239 . S
C204 C68 1.234 . S
C206 C55 1.270 . S
C215 C81 1.238 . S
C217 C70 1.265 . S
C226 C96 1.234 . S
C228 C83 1.270 . S
C237 C4 1.697 . S
C239 C69 1.693 . S
C248 C82 1.693 . S
C250 C17 1.695 . S
C259 C30 1.697 . S
C261 C101 1.693 . S
C270 C43 1.692 . S
C272 C62 1.696 . S
