# Generated by pormake.
# Topology uog, (4)-cn, num edge types: 1
# Building blocks:
#     Node 0, Type 0, BuildingBlock: ESEHIV_clean_sbu_0, # of connection points: 4
#     Node 1, Type 0, BuildingBlock: ESEHIV_clean_sbu_0, # of connection points: 4
#     Node 2, Type 0, BuildingBlock: ESEHIV_clean_sbu_0, # of connection points: 4
#     Node 3, Type 0, BuildingBlock: ESEHIV_clean_sbu_0, # of connection points: 4
#     Node 4, Type 0, BuildingBlock: ESEHIV_clean_sbu_0, # of connection points: 4
#     Node 5, Type 0, BuildingBlock: ESEHIV_clean_sbu_0, # of connection points: 4
#     Edge 6, Type (0, 0), BuildingBlock: MIFKUJ_clean_linker_0, # of connection points: 2
#     Edge 7, Type (0, 0), BuildingBlock: MIFKUJ_clean_linker_0, # of connection points: 2
#     Edge 8, Type (0, 0), BuildingBlock: MIFKUJ_clean_linker_0, # of connection points: 2
#     Edge 9, Type (0, 0), BuildingBlock: MIFKUJ_clean_linker_0, # of connection points: 2
#     Edge 10, Type (0, 0), BuildingBlock: MIFKUJ_clean_linker_0, # of connection points: 2
#     Edge 11, Type (0, 0), BuildingBlock: MIFKUJ_clean_linker_0, # of connection points: 2
#     Edge 12, Type (0, 0), BuildingBlock: MIFKUJ_clean_linker_0, # of connection points: 2
#     Edge 13, Type (0, 0), BuildingBlock: MIFKUJ_clean_linker_0, # of connection points: 2
#     Edge 14, Type (0, 0), BuildingBlock: MIFKUJ_clean_linker_0, # of connection points: 2
#     Edge 15, Type (0, 0), BuildingBlock: MIFKUJ_clean_linker_0, # of connection points: 2
#     Edge 16, Type (0, 0), BuildingBlock: MIFKUJ_clean_linker_0, # of connection points: 2
#     Edge 17, Type (0, 0), BuildingBlock: MIFKUJ_clean_linker_0, # of connection points: 2
# Relax obj value: 0.017
# Max RMSD: 0.192
# Mean RMSD: 0.147
data_MOF--net-uog--node1-ESEHIV_clean_sbu_0--edge1-MIFKUJ_clean_linker_0
_symmetry_space_group_name_H-M    P1
_symmetry_Int_Tables_number       1
_symmetry_cell_setting            triclinic
loop_
_symmetry_equiv_pos_as_xyz
'x, y, z'
_cell_length_a     37.427317
_cell_length_b     43.255585
_cell_length_c     57.184513
_cell_angle_alpha  90.488887
_cell_angle_beta   90.056917
_cell_angle_gamma 115.81658
loop_
_atom_site_label
_atom_site_type_symbol
_atom_site_fract_x
_atom_site_fract_y
_atom_site_fract_z
_atom_type_partial_charge
Cu0 Cu 0.57073 0.27976 0.18036 0.0
N1 N 0.53759 0.30183 0.18128 0.0
N2 N 0.51893 0.34439 0.18355 0.0
C3 C 0.54757 0.33429 0.18843 0.0
C4 C 0.48959 0.31689 0.17312 0.0
C5 C 0.50125 0.29079 0.17167 0.0
O6 O 0.60598 0.29437 0.20737 0.0
C7 C 0.62717 0.28673 0.14383 0.0
O8 O 0.64671 0.27754 0.15923 0.0
H9 H 0.5758 0.35049 0.19641 0.0
H10 H 0.48524 0.26609 0.16317 0.0
N11 N 0.54027 0.23243 0.18254 0.0
N12 N 0.52217 0.17585 0.18095 0.0
C13 C 0.55008 0.20745 0.17523 0.0
C14 C 0.5051 0.21625 0.19328 0.0
C15 C 0.4938 0.18142 0.19229 0.0
C16 C 0.63346 0.32435 0.21112 0.0
O17 O 0.64271 0.34763 0.19473 0.0
H18 H 0.57736 0.2125 0.16613 0.0
H19 H 0.48928 0.22899 0.20178 0.0
O20 O 0.59631 0.28984 0.15008 0.0
H21 H 0.46256 0.3162 0.16583 0.0
H22 H 0.46739 0.16188 0.2001 0.0
Cu23 Cu 0.31923 0.58592 0.51248 0.0
N24 N 0.33166 0.61753 0.48827 0.0
N25 N 0.34691 0.64273 0.4533 0.0
C26 C 0.34035 0.61428 0.46576 0.0
C27 C 0.34193 0.66443 0.46865 0.0
C28 C 0.33253 0.64884 0.4901 0.0
O29 O 0.34746 0.55772 0.50643 0.0
C30 C 0.23806 0.54462 0.52911 0.0
O31 O 0.25328 0.53785 0.54799 0.0
H32 H 0.34206 0.59164 0.45876 0.0
H33 H 0.32635 0.65942 0.50596 0.0
N34 N 0.34086 0.61157 0.53981 0.0
N35 N 0.35187 0.63544 0.57557 0.0
C36 C 0.32452 0.61324 0.56057 0.0
C37 C 0.37955 0.63335 0.54187 0.0
C38 C 0.38644 0.64809 0.56379 0.0
C39 C 0.35913 0.54475 0.52302 0.0
O40 O 0.34668 0.54589 0.54435 0.0
H41 H 0.29337 0.599 0.56454 0.0
H42 H 0.40133 0.63794 0.52829 0.0
O43 O 0.26104 0.56219 0.51286 0.0
H44 H 0.34411 0.68959 0.46462 0.0
H45 H 0.4149 0.66621 0.57069 0.0
Cu46 Cu 0.75387 0.28165 0.8588 0.0
N47 N 0.73513 0.23495 0.85205 0.0
N48 N 0.6959 0.17858 0.85024 0.0
C49 C 0.70064 0.20929 0.85892 0.0
C50 C 0.72876 0.18529 0.8375 0.0
C51 C 0.75283 0.22008 0.8386 0.0
O52 O 0.7381 0.2878 0.89016 0.0
C53 C 0.70816 0.28921 0.82107 0.0
O54 O 0.68201 0.25802 0.82632 0.0
H55 H 0.67943 0.21317 0.86994 0.0
H56 H 0.78099 0.23371 0.82992 0.0
N57 N 0.80896 0.30199 0.85916 0.0
N58 N 0.87095 0.34349 0.85788 0.0
C59 C 0.83216 0.33499 0.85409 0.0
C60 C 0.83367 0.28887 0.86636 0.0
C61 C 0.87203 0.31442 0.86551 0.0
C62 C 0.70458 0.28521 0.89693 0.0
O63 O 0.67608 0.27888 0.88155 0.0
H64 H 0.8205 0.35245 0.84808 0.0
H65 H 0.82435 0.26291 0.87246 0.0
O66 O 0.73868 0.30422 0.83402 0.0
H67 H 0.73449 0.16657 0.82751 0.0
H68 H 0.8984 0.31203 0.87096 0.0
Cu69 Cu 0.49202 0.74814 0.17424 0.0
N70 N 0.5252 0.72627 0.17456 0.0
N71 N 0.54356 0.68368 0.17711 0.0
C72 C 0.51429 0.69347 0.18073 0.0
C73 C 0.57414 0.71163 0.1684 0.0
C74 C 0.56263 0.7378 0.16674 0.0
O75 O 0.45512 0.72887 0.20018 0.0
C76 C 0.43835 0.74445 0.13679 0.0
O77 O 0.42037 0.75586 0.15189 0.0
H78 H 0.48511 0.67702 0.18735 0.0
H79 H 0.57983 0.76306 0.15961 0.0
N80 N 0.52219 0.79555 0.17793 0.0
N81 N 0.53969 0.85202 0.17788 0.0
C82 C 0.51189 0.82051 0.17157 0.0
C83 C 0.55772 0.81178 0.18858 0.0
C84 C 0.56867 0.84661 0.1885 0.0
C85 C 0.45146 0.74718 0.21673 0.0
O86 O 0.46912 0.78077 0.21503 0.0
H87 H 0.4843 0.8156 0.16279 0.0
H88 H 0.57405 0.7991 0.19638 0.0
O89 O 0.46738 0.73886 0.1435 0.0
H90 H 0.60222 0.71273 0.1627 0.0
H91 H 0.59519 0.86628 0.19643 0.0
Cu92 Cu 0.74183 0.43266 0.52017 0.0
N93 N 0.73608 0.40775 0.49223 0.0
N94 N 0.72478 0.38818 0.4553 0.0
C95 C 0.72329 0.41143 0.47078 0.0
C96 C 0.73906 0.36936 0.46744 0.0
C97 C 0.74614 0.38156 0.49007 0.0
O98 O 0.7074 0.45625 0.5208 0.0
C99 C 0.82343 0.47264 0.50913 0.0
O100 O 0.80986 0.47002 0.48765 0.0
H101 H 0.71299 0.43049 0.46656 0.0
H102 H 0.75822 0.37222 0.50404 0.0
N103 N 0.72314 0.40063 0.54428 0.0
N104 N 0.70997 0.37664 0.57971 0.0
C105 C 0.73121 0.40547 0.5674 0.0
C106 C 0.69601 0.3678 0.54191 0.0
C107 C 0.68798 0.35293 0.56361 0.0
C108 C 0.70435 0.47685 0.506 0.0
O109 O 0.729 0.48719 0.48832 0.0
H110 H 0.75133 0.42986 0.57505 0.0
H111 H 0.68254 0.35563 0.52551 0.0
O112 O 0.79869 0.46089 0.52583 0.0
H113 H 0.74494 0.34878 0.4603 0.0
H114 H 0.66748 0.3266 0.56719 0.0
Cu115 Cu 0.30667 0.74656 0.8533 0.0
N116 N 0.32324 0.79315 0.84766 0.0
N117 N 0.36058 0.84986 0.84731 0.0
C118 C 0.35762 0.81922 0.85459 0.0
C119 C 0.32665 0.84272 0.83544 0.0
C120 C 0.30373 0.8077 0.83562 0.0
O121 O 0.32461 0.74158 0.88423 0.0
C122 C 0.34923 0.74164 0.81314 0.0
O123 O 0.37158 0.7745 0.81689 0.0
H124 H 0.38 0.8157 0.86472 0.0
H125 H 0.27504 0.79374 0.82737 0.0
N126 N 0.25162 0.72461 0.85435 0.0
N127 N 0.19049 0.68159 0.85406 0.0
C128 C 0.22922 0.69129 0.84927 0.0
C129 C 0.22647 0.73669 0.86259 0.0
C130 C 0.18866 0.71022 0.86235 0.0
C131 C 0.35592 0.73894 0.89008 0.0
O132 O 0.38058 0.73854 0.87388 0.0
H133 H 0.24148 0.67446 0.84266 0.0
H134 H 0.23522 0.76254 0.8691 0.0
O135 O 0.3223 0.72488 0.8278 0.0
H136 H 0.31936 0.86137 0.82672 0.0
H137 H 0.16227 0.71169 0.86879 0.0
H138 H 0.58735 0.16444 0.17345 0.0
H139 H 0.58928 0.10896 0.16954 0.0
H140 H 0.46202 0.05729 0.17659 0.0
H141 H 0.45967 0.1126 0.18013 0.0
H142 H 0.4976 0.03032 0.20515 0.0
H143 H 0.50496 0.05913 0.12447 0.0
H144 H 0.52981 0.09336 0.08879 0.0
H145 H 0.64323 0.09266 0.0984 0.0
H146 H 0.61926 0.05885 0.13438 0.0
H147 H 0.47336 0.86253 0.17678 0.0
H148 H 0.47012 0.91767 0.17455 0.0
H149 H 0.59788 0.97023 0.17182 0.0
H150 H 0.6013 0.91503 0.17366 0.0
H151 H 0.56144 0.99627 0.14031 0.0
H152 H 0.55295 0.96807 0.22196 0.0
H153 H 0.52568 0.93126 0.25632 0.0
H154 H 0.41177 0.92966 0.24369 0.0
H155 H 0.43825 0.96608 0.20903 0.0
C156 C 0.55964 0.14139 0.17377 0.0
C157 C 0.52334 0.14319 0.17726 0.0
C158 C 0.56083 0.10961 0.17156 0.0
C159 C 0.52578 0.07894 0.17271 0.0
C160 C 0.48947 0.08061 0.17577 0.0
C161 C 0.48823 0.11234 0.1779 0.0
C162 C 0.52711 0.0451 0.17195 0.0
C163 C 0.51104 0.02271 0.19078 0.0
C164 C 0.54544 0.03543 0.15347 0.0
C165 C 0.56041 0.05672 0.13227 0.0
C166 C 0.53536 0.06664 0.11916 0.0
C167 C 0.54925 0.08587 0.09884 0.0
C168 C 0.58805 0.09514 0.09133 0.0
C169 C 0.61316 0.08542 0.10423 0.0
C170 C 0.59944 0.06622 0.12459 0.0
C171 C 0.50075 0.88574 0.17538 0.0
C172 C 0.53763 0.88438 0.17548 0.0
C173 C 0.49887 0.91727 0.17428 0.0
C174 C 0.53378 0.94807 0.17326 0.0
C175 C 0.57058 0.94678 0.17267 0.0
C176 C 0.57251 0.91525 0.17391 0.0
C177 C 0.53192 0.98166 0.17347 0.0
C178 C 0.54797 1.00398 0.15461 0.0
C179 C 0.51341 0.99126 0.19186 0.0
C180 C 0.49748 0.96951 0.21276 0.0
C181 C 0.52201 0.95964 0.2264 0.0
C182 C 0.50671 0.93889 0.24595 0.0
C183 C 0.46699 0.92805 0.25215 0.0
C184 C 0.44252 0.93803 0.23885 0.0
C185 C 0.45766 0.95875 0.21926 0.0
H186 H 0.4552 0.91199 0.2673 0.0
H187 H 0.59859 0.1097 0.07546 0.0
H188 H 0.38713 0.51247 0.55392 0.0
H189 H 0.44496 0.5007 0.54975 0.0
H190 H 0.46316 0.54128 0.47987 0.0
H191 H 0.40461 0.55246 0.48374 0.0
H192 H 0.47894 0.48701 0.48123 0.0
H193 H 0.51781 0.58969 0.52695 0.0
H194 H 0.51327 0.62591 0.55926 0.0
H195 H 0.5284 0.55899 0.60925 0.0
H196 H 0.53244 0.52205 0.57723 0.0
H197 H 0.67987 0.51043 0.4737 0.0
H198 H 0.62144 0.52205 0.47551 0.0
H199 H 0.59347 0.47603 0.54369 0.0
H200 H 0.65177 0.46441 0.54207 0.0
H201 H 0.58396 0.53499 0.54212 0.0
H202 H 0.5439 0.43188 0.4956 0.0
H203 H 0.549 0.39659 0.46285 0.0
H204 H 0.53754 0.46629 0.41371 0.0
H205 H 0.53294 0.50229 0.4462 0.0
C206 C 0.40308 0.51854 0.53753 0.0
C207 C 0.39123 0.53363 0.51923 0.0
C208 C 0.43641 0.51199 0.53522 0.0
C209 C 0.45918 0.52082 0.51469 0.0
C210 C 0.44636 0.53441 0.49596 0.0
C211 C 0.41277 0.54076 0.49819 0.0
C212 C 0.49687 0.5168 0.51311 0.0
C213 C 0.50211 0.49794 0.49439 0.0
C214 C 0.52712 0.53061 0.53039 0.0
C215 C 0.52506 0.55293 0.54969 0.0
C216 C 0.5199 0.58257 0.54484 0.0
C217 C 0.51745 0.60324 0.5631 0.0
C218 C 0.52045 0.59471 0.58629 0.0
C219 C 0.52603 0.56554 0.59127 0.0
C220 C 0.52843 0.54474 0.57308 0.0
C221 C 0.66151 0.50302 0.48918 0.0
C222 C 0.67061 0.48637 0.50771 0.0
C223 C 0.62791 0.50951 0.49012 0.0
C224 C 0.60265 0.49956 0.50962 0.0
C225 C 0.61235 0.48389 0.52843 0.0
C226 C 0.64575 0.47721 0.52744 0.0
C227 C 0.56584 0.50497 0.51038 0.0
C228 C 0.56081 0.52416 0.52894 0.0
C229 C 0.53596 0.49166 0.49288 0.0
C230 C 0.53851 0.46997 0.47333 0.0
C231 C 0.54279 0.43983 0.47781 0.0
C232 C 0.54554 0.41968 0.45929 0.0
C233 C 0.54371 0.42925 0.43621 0.0
C234 C 0.53902 0.45895 0.4316 0.0
C235 C 0.53631 0.47922 0.45006 0.0
H236 H 0.54584 0.41361 0.4219 0.0
H237 H 0.51853 0.61075 0.60041 0.0
H238 H 0.86786 0.40513 0.85882 0.0
H239 H 0.92323 0.46179 0.85576 0.0
H240 H 1.00451 0.41579 0.84993 0.0
H241 H 0.949 0.35863 0.85252 0.0
H242 H 1.0293 0.46927 0.88184 0.0
H243 H 0.98255 0.44857 0.80248 0.0
H244 H 0.93246 0.43287 0.771 0.0
H245 H 0.90783 0.51784 0.79011 0.0
H246 H 0.95739 0.53377 0.82194 0.0
H247 H 0.1968 0.62122 0.85276 0.0
H248 H 0.14301 0.56357 0.85123 0.0
H249 H 0.05744 0.60548 0.85157 0.0
H250 H 0.11128 0.66357 0.85196 0.0
H251 H 0.03559 0.55318 0.82144 0.0
H252 H 0.07905 0.57283 0.9014 0.0
H253 H 0.12741 0.58862 0.93385 0.0
H254 H 0.15626 0.50594 0.91483 0.0
H255 H 0.10844 0.48995 0.88205 0.0
C256 C 0.89731 0.40681 0.85649 0.0
C257 C 0.90378 0.37709 0.85578 0.0
C258 C 0.92901 0.43935 0.85483 0.0
C259 C 0.9679 0.44296 0.85238 0.0
C260 C 0.97466 0.4135 0.85179 0.0
C261 C 0.94289 0.38086 0.85337 0.0
C262 C 1.00151 0.4776 0.85111 0.0
C263 C 1.03109 0.48745 0.86841 0.0
C264 C 1.00309 0.50156 0.83397 0.0
C265 C 0.97345 0.49218 0.81473 0.0
C266 C 0.96624 0.46375 0.80009 0.0
C267 C 0.93798 0.45484 0.78216 0.0
C268 C 0.91691 0.47429 0.77859 0.0
C269 C 0.92414 0.50277 0.79291 0.0
C270 C 0.95235 0.51177 0.81088 0.0
C271 C 0.16668 0.61844 0.85214 0.0
C272 C 0.15857 0.64732 0.85257 0.0
C273 C 0.13585 0.58528 0.85154 0.0
C274 C 0.09618 0.58017 0.85169 0.0
C275 C 0.08786 0.60882 0.85159 0.0
C276 C 0.11873 0.64206 0.85203 0.0
C277 C 0.06343 0.54492 0.85222 0.0
C278 C 0.03396 0.53496 0.83481 0.0
C279 C 0.06175 0.52091 0.86939 0.0
C280 C 0.09046 0.53042 0.88912 0.0
C281 C 0.09594 0.55819 0.90402 0.0
C282 C 0.12321 0.56714 0.9225 0.0
C283 C 0.14497 0.54836 0.92636 0.0
C284 C 0.13943 0.52051 0.9118 0.0
C285 C 0.11222 0.51147 0.89328 0.0
H286 H 0.16607 0.55533 0.94068 0.0
H287 H 0.89503 0.46734 0.76471 0.0
H288 H 0.19583 0.54927 0.49119 0.0
H289 H 0.12591 0.53763 0.48938 0.0
H290 H 0.11199 0.50767 0.56178 0.0
H291 H 0.18181 0.51839 0.56353 0.0
H292 H 0.04861 0.46615 0.53813 0.0
H293 H 0.12199 0.58842 0.54378 0.0
H294 H 0.1732 0.64554 0.53275 0.0
H295 H 0.11987 0.63418 0.46477 0.0
H296 H 0.06863 0.57676 0.47528 0.0
H297 H 0.86199 0.47213 0.5501 0.0
H298 H 0.9323 0.48568 0.55527 0.0
H299 H 0.95324 0.51239 0.48244 0.0
H300 H 0.88337 0.49941 0.47723 0.0
H301 H 1.01316 0.55673 0.50853 0.0
H302 H 0.94139 0.43349 0.50265 0.0
H303 H 0.89011 0.37648 0.51388 0.0
H304 H 0.94048 0.39027 0.58287 0.0
H305 H 0.99177 0.44758 0.57213 0.0
C306 C 0.1779 0.53997 0.50672 0.0
C307 C 0.19468 0.53496 0.52755 0.0
C308 C 0.13784 0.53353 0.5057 0.0
C309 C 0.1136 0.52246 0.52559 0.0
C310 C 0.12995 0.51636 0.54621 0.0
C311 C 0.16999 0.52252 0.54718 0.0
C312 C 0.07148 0.51767 0.52491 0.0
C313 C 0.041 0.4862 0.53199 0.0
C314 C 0.06111 0.54351 0.51657 0.0
C315 C 0.09167 0.57816 0.51026 0.0
C316 C 0.12132 0.59801 0.52643 0.0
C317 C 0.15034 0.63045 0.52028 0.0
C318 C 0.14984 0.64345 0.49806 0.0
C319 C 0.12024 0.62406 0.48196 0.0
C320 C 0.09118 0.59158 0.48802 0.0
C321 C 0.88164 0.48133 0.53525 0.0
C322 C 0.86682 0.48451 0.51321 0.0
C323 C 0.92186 0.48883 0.53819 0.0
C324 C 0.94814 0.49954 0.51915 0.0
C325 C 0.93369 0.50407 0.4974 0.0
C326 C 0.89358 0.49657 0.49445 0.0
C327 C 0.99037 0.50515 0.52156 0.0
C328 C 1.02085 0.53678 0.5148 0.0
C329 C 1.00072 0.47951 0.53025 0.0
C330 C 0.97015 0.44495 0.53666 0.0
C331 C 0.94136 0.42445 0.52026 0.0
C332 C 0.91232 0.39208 0.52653 0.0
C333 C 0.91198 0.3798 0.54909 0.0
C334 C 0.94075 0.39983 0.56541 0.0
C335 C 0.96982 0.43225 0.55924 0.0
H336 H 0.88946 0.35473 0.55391 0.0
H337 H 0.17234 0.66856 0.49332 0.0
H338 H 0.43827 0.86369 0.85092 0.0
H339 H 0.49464 0.9202 0.85449 0.0
H340 H 0.41454 0.96787 0.85458 0.0
H341 H 0.3581 0.91134 0.85064 0.0
H342 H 0.47296 1.00063 0.82627 0.0
H343 H 0.46435 0.96196 0.90509 0.0
H344 H 0.46101 0.92276 0.93695 0.0
H345 H 0.57468 0.92926 0.91716 0.0
H346 H 0.5785 0.96817 0.88498 0.0
H347 H 0.61941 0.16692 0.85723 0.0
H348 H 0.56163 0.11115 0.85978 0.0
H349 H 0.63735 0.06005 0.85118 0.0
H350 H 0.69538 0.11578 0.84907 0.0
H351 H 0.58038 0.03017 0.8853 0.0
H352 H 0.5867 0.06727 0.80547 0.0
H353 H 0.59013 0.10774 0.77447 0.0
H354 H 0.47951 0.10482 0.79743 0.0
H355 H 0.47572 0.06469 0.8288 0.0
C356 C 0.43264 0.88617 0.85203 0.0
C357 C 0.39372 0.88305 0.85051 0.0
C358 C 0.46491 0.9185 0.8541 0.0
C359 C 0.45888 0.94836 0.85509 0.0
C360 C 0.41998 0.94525 0.85382 0.0
C361 C 0.38774 0.91295 0.85152 0.0
C362 C 0.4932 0.98288 0.85635 0.0
C363 C 0.49605 1.00722 0.83946 0.0
C364 C 0.52387 0.99136 0.87323 0.0
C365 C 0.52154 0.96777 0.89248 0.0
C366 C 0.48848 0.9548 0.9074 0.0
C367 C 0.48653 0.93267 0.92555 0.0
C368 C 0.51758 0.92347 0.92905 0.0
C369 C 0.55065 0.93639 0.91441 0.0
C370 C 0.55274 0.95852 0.89623 0.0
C371 C 0.62386 0.14386 0.85621 0.0
C372 C 0.66201 0.1458 0.85283 0.0
C373 C 0.59077 0.11199 0.8575 0.0
C374 C 0.59518 0.08147 0.85542 0.0
C375 C 0.6333 0.0833 0.85275 0.0
C376 C 0.66637 0.11515 0.85135 0.0
C377 C 0.55993 0.04764 0.85526 0.0
C378 C 0.55703 0.0235 0.87228 0.0
C379 C 0.52907 0.03937 0.83861 0.0
C380 C 0.53114 0.06326 0.81963 0.0
C381 C 0.56326 0.07546 0.80402 0.0
C382 C 0.56525 0.0983 0.78636 0.0
C383 C 0.53511 0.10892 0.78402 0.0
C384 C 0.50286 0.09662 0.79929 0.0
C385 C 0.50077 0.07381 0.817 0.0
H386 H 0.5367 0.12661 0.77034 0.0
H387 H 0.5161 0.90642 0.94314 0.0
H388 H 0.47732 0.62286 0.1769 0.0
H389 H 0.47403 0.56566 0.18096 0.0
H390 H 0.60146 0.60975 0.18777 0.0
H391 H 0.60504 0.6673 0.18394 0.0
H392 H 0.57385 0.55659 0.15698 0.0
H393 H 0.54243 0.57747 0.2351 0.0
H394 H 0.50614 0.59339 0.26519 0.0
H395 H 0.39707 0.50882 0.24389 0.0
H396 H 0.43263 0.49267 0.21342 0.0
H397 H 0.58576 0.40461 0.18841 0.0
H398 H 0.58987 0.46221 0.1903 0.0
H399 H 0.46239 0.42046 0.18531 0.0
H400 H 0.45774 0.36234 0.18443 0.0
H401 H 0.49091 0.47287 0.21613 0.0
H402 H 0.5206 0.45317 0.13736 0.0
H403 H 0.5555 0.43726 0.1064 0.0
H404 H 0.6662 0.51958 0.12801 0.0
H405 H 0.63202 0.5357 0.15933 0.0
C406 C 0.50467 0.62058 0.17964 0.0
C407 C 0.54149 0.64984 0.18017 0.0
C408 C 0.50271 0.58776 0.18192 0.0
C409 C 0.53746 0.58344 0.18491 0.0
C410 C 0.57426 0.61251 0.18547 0.0
C411 C 0.57626 0.64538 0.1832 0.0
C412 C 0.53545 0.5485 0.18662 0.0
C413 C 0.55625 0.53848 0.17017 0.0
C414 C 0.51156 0.52455 0.2034 0.0
C415 C 0.49016 0.53404 0.22184 0.0
C416 C 0.51066 0.56241 0.23671 0.0
C417 C 0.49023 0.57146 0.25385 0.0
C418 C 0.44931 0.55218 0.25641 0.0
C419 C 0.42876 0.52375 0.24187 0.0
C420 C 0.44904 0.51462 0.22468 0.0
C421 C 0.55841 0.40737 0.18813 0.0
C422 C 0.52134 0.37853 0.18608 0.0
C423 C 0.56091 0.44052 0.18897 0.0
C424 C 0.5265 0.44571 0.1875 0.0
C425 C 0.48937 0.41708 0.1863 0.0
C426 C 0.4868 0.38383 0.18558 0.0
C427 C 0.5294 0.48103 0.18652 0.0
C428 C 0.50869 0.49107 0.20304 0.0
C429 C 0.5532 0.50499 0.16971 0.0
C430 C 0.57381 0.49542 0.15084 0.0
C431 C 0.55243 0.46771 0.13563 0.0
C432 C 0.57207 0.45868 0.118 0.0
C433 C 0.61305 0.47734 0.11528 0.0
C434 C 0.63446 0.50512 0.13016 0.0
C435 C 0.61497 0.51423 0.14784 0.0
H436 H 0.6282 0.47031 0.10162 0.0
H437 H 0.43354 0.55923 0.26969 0.0
H438 H 0.63924 0.28607 0.91832 0.0
H439 H 0.62821 0.28902 0.96039 0.0
H440 H 0.74313 0.29282 0.97492 0.0
H441 H 0.75442 0.28992 0.93312 0.0
H442 H 0.6852 0.24661 1.00269 0.0
H443 H 0.73018 0.36429 0.97963 0.0
H444 H 0.72929 0.41162 0.95628 0.0
H445 H 0.61081 0.38654 0.97943 0.0
H446 H 0.61079 0.33872 1.00267 0.0
H447 H 0.69388 0.28674 0.12373 0.0
H448 H 0.70987 0.2899 0.08203 0.0
H449 H 0.60141 0.29742 0.06558 0.0
H450 H 0.58597 0.29546 0.10707 0.0
H451 H 0.65756 0.33869 0.03862 0.0
H452 H 0.61108 0.22076 0.061 0.0
H453 H 0.61096 0.17347 0.0848 0.0
H454 H 0.72958 0.1973 0.06253 0.0
H455 H 0.73072 0.24528 0.03899 0.0
C456 C 0.66221 0.28766 0.93047 0.0
C457 C 0.69773 0.28783 0.9223 0.0
C458 C 0.65591 0.28943 0.9545 0.0
C459 C 0.68495 0.29131 0.9708 0.0
C460 C 0.72031 0.29136 0.96268 0.0
C461 C 0.72674 0.28983 0.93872 0.0
C462 C 0.67846 0.29279 0.99636 0.0
C463 C 0.67964 0.26697 1.01061 0.0
C464 C 0.67035 0.31893 1.00661 0.0
C465 C 0.67034 0.34771 0.99269 0.0
C466 C 0.70381 0.36868 0.97958 0.0
C467 C 0.7035 0.39563 0.9664 0.0
C468 C 0.66998 0.40202 0.96632 0.0
C469 C 0.63673 0.38152 0.97948 0.0
C470 C 0.63688 0.35451 0.99267 0.0
C471 C 0.67361 0.28934 0.11124 0.0
C472 C 0.63854 0.29064 0.11877 0.0
C473 C 0.68268 0.29097 0.08737 0.0
C474 C 0.6565 0.29329 0.07055 0.0
C475 C 0.62208 0.29559 0.07814 0.0
C476 C 0.61324 0.29435 0.10194 0.0
C477 C 0.66416 0.29241 0.04504 0.0
C478 C 0.66316 0.31832 0.03076 0.0
C479 C 0.67209 0.26616 0.03471 0.0
C480 C 0.67114 0.23684 0.04843 0.0
C481 C 0.63723 0.21605 0.06129 0.0
C482 C 0.63698 0.18912 0.07473 0.0
C483 C 0.67029 0.18243 0.07522 0.0
C484 C 0.70384 0.20257 0.06217 0.0
C485 C 0.70431 0.22964 0.04879 0.0
H486 H 0.6701 0.16163 0.08567 0.0
H487 H 0.66979 0.4229 0.95611 0.0
H488 H 0.44637 0.78 0.25662 0.0
H489 H 0.42553 0.75542 0.29524 0.0
H490 H 0.39484 0.65416 0.26717 0.0
H491 H 0.41608 0.67863 0.22818 0.0
H492 H 0.33898 0.65823 0.30126 0.0
H493 H 0.4772 0.68822 0.29317 0.0
H494 H 0.54675 0.72568 0.2831 0.0
H495 H 0.54996 0.79961 0.33466 0.0
H496 H 0.48017 0.76282 0.34479 0.0
H497 H 0.33049 0.59531 0.41826 0.0
H498 H 0.34594 0.60665 0.37667 0.0
H499 H 0.39998 0.71558 0.39109 0.0
H500 H 0.38599 0.70449 0.43252 0.0
H501 H 0.44468 0.69995 0.36204 0.0
H502 H 0.30501 0.6725 0.36762 0.0
H503 H 0.23501 0.63586 0.37729 0.0
H504 H 0.23428 0.55737 0.33054 0.0
H505 H 0.30448 0.59341 0.32082 0.0
C506 C 0.4347 0.75243 0.25847 0.0
C507 C 0.43323 0.73134 0.23927 0.0
C508 C 0.42287 0.73844 0.28062 0.0
C509 C 0.40913 0.70305 0.28412 0.0
C510 C 0.40547 0.68156 0.26483 0.0
C511 C 0.41764 0.69561 0.24258 0.0
C512 C 0.40105 0.68927 0.30822 0.0
C513 C 0.36216 0.6668 0.3145 0.0
C514 C 0.43126 0.70075 0.3255 0.0
C515 C 0.47334 0.72288 0.3196 0.0
C516 C 0.49262 0.7126 0.30223 0.0
C517 C 0.53211 0.73369 0.29654 0.0
C518 C 0.55273 0.76505 0.3082 0.0
C519 C 0.53393 0.77533 0.32563 0.0
C520 C 0.49442 0.75435 0.33137 0.0
C521 C 0.34603 0.62165 0.41261 0.0
C522 C 0.35672 0.64898 0.42881 0.0
C523 C 0.3545 0.62811 0.38878 0.0
C524 C 0.37371 0.66201 0.38066 0.0
C525 C 0.38502 0.68921 0.39686 0.0
C526 C 0.37664 0.6828 0.4206 0.0
C527 C 0.38228 0.66963 0.35539 0.0
C528 C 0.42146 0.69096 0.34882 0.0
C529 C 0.35228 0.65707 0.33792 0.0
C530 C 0.3101 0.63547 0.34371 0.0
C531 C 0.29001 0.64732 0.35955 0.0
C532 C 0.25028 0.62668 0.36501 0.0
C533 C 0.23025 0.59426 0.3546 0.0
C534 C 0.24986 0.58246 0.33864 0.0
C535 C 0.28961 0.60298 0.33313 0.0
H536 H 0.19949 0.57833 0.35885 0.0
H537 H 0.58331 0.78134 0.30377 0.0
H538 H 0.64701 0.26488 0.78938 0.0
H539 H 0.64717 0.28457 0.74946 0.0
H540 H 0.76447 0.36626 0.76048 0.0
H541 H 0.76422 0.34719 0.80065 0.0
H542 H 0.72111 0.38805 0.73368 0.0
H543 H 0.75207 0.29179 0.73355 0.0
H544 H 0.74216 0.23309 0.74302 0.0
H545 H 0.63165 0.19128 0.70527 0.0
H546 H 0.64063 0.24979 0.69586 0.0
H547 H 0.76896 0.41212 0.61099 0.0
H548 H 0.7688 0.40201 0.65311 0.0
H549 H 0.65029 0.32031 0.64734 0.0
H550 H 0.65007 0.33039 0.60553 0.0
H551 H 0.69763 0.30026 0.67169 0.0
H552 H 0.66823 0.39837 0.67182 0.0
H553 H 0.6803 0.45764 0.66243 0.0
H554 H 0.79116 0.49668 0.69974 0.0
H555 H 0.77999 0.43758 0.70909 0.0
C556 C 0.67261 0.28738 0.78348 0.0
C557 C 0.70576 0.30421 0.79818 0.0
C558 C 0.67274 0.29852 0.76057 0.0
C559 C 0.70621 0.32644 0.75176 0.0
C560 C 0.7384 0.34454 0.76682 0.0
C561 C 0.7382 0.33356 0.78981 0.0
C562 C 0.7085 0.33532 0.72652 0.0
C563 C 0.71641 0.36896 0.72012 0.0
C564 C 0.70218 0.31042 0.70876 0.0
C565 C 0.69685 0.27518 0.71419 0.0
C566 C 0.72553 0.27008 0.7274 0.0
C567 C 0.72009 0.23685 0.73274 0.0
C568 C 0.68625 0.20848 0.7248 0.0
C569 C 0.65782 0.21329 0.71144 0.0
C570 C 0.66309 0.24648 0.70608 0.0
C571 C 0.74269 0.3923 0.61873 0.0
C572 C 0.70965 0.37192 0.60474 0.0
C573 C 0.74265 0.38653 0.64283 0.0
C574 C 0.70947 0.36042 0.65344 0.0
C575 C 0.67633 0.34044 0.63956 0.0
C576 C 0.67635 0.34616 0.61557 0.0
C577 C 0.70945 0.35283 0.67879 0.0
C578 C 0.70225 0.31938 0.68523 0.0
C579 C 0.71678 0.37801 0.69649 0.0
C580 C 0.72346 0.41354 0.69094 0.0
C581 C 0.69533 0.41958 0.67785 0.0
C582 C 0.70198 0.45315 0.67257 0.0
C583 C 0.73652 0.48091 0.68042 0.0
C584 C 0.76444 0.47515 0.69363 0.0
C585 C 0.75795 0.44163 0.69895 0.0
H586 H 0.74162 0.50688 0.67632 0.0
H587 H 0.68208 0.18276 0.72896 0.0
H588 H 0.31461 0.74626 0.92729 0.0
H589 H 0.32901 0.74547 0.96878 0.0
H590 H 0.43079 0.72762 0.95197 0.0
H591 H 0.41659 0.72837 0.91009 0.0
H592 H 0.3843 0.68593 0.9883 0.0
H593 H 0.44518 0.80483 0.96793 0.0
H594 H 0.44738 0.85764 0.95072 0.0
H595 H 0.35782 0.8551 0.99854 0.0
H596 H 0.35431 0.80171 1.01568 0.0
H597 H 0.47314 0.72533 0.10105 0.0
H598 H 0.45832 0.72253 0.05938 0.0
H599 H 0.36396 0.75182 0.07343 0.0
H600 H 0.37922 0.75543 0.11532 0.0
H601 H 0.40778 0.78764 0.03803 0.0
H602 H 0.34506 0.66843 0.05777 0.0
H603 H 0.34063 0.61452 0.07448 0.0
H604 H 0.43201 0.61714 0.02808 0.0
H605 H 0.43736 0.67134 1.01129 0.0
C606 C 0.34007 0.74207 0.93231 0.0
C607 C 0.36457 0.73752 0.91529 0.0
C608 C 0.34828 0.74173 0.95609 0.0
C609 C 0.38117 0.73683 0.96347 0.0
C610 C 0.40529 0.73151 0.94662 0.0
C611 C 0.39721 0.73207 0.92271 0.0
C612 C 0.39038 0.73774 0.98881 0.0
C613 C 0.39005 0.70833 0.99914 0.0
C614 C 0.39683 0.76668 1.00303 0.0
C615 C 0.39922 0.79905 0.99295 0.0
C616 C 0.4257 0.81536 0.97466 0.0
C617 C 0.42723 0.84544 0.96493 0.0
C618 C 0.40277 0.85974 0.97353 0.0
C619 C 0.37674 0.84398 0.99189 0.0
C620 C 0.37495 0.81379 1.00161 0.0
C621 C 0.44899 0.73094 0.09537 0.0
C622 C 0.42731 0.74056 0.11161 0.0
C623 C 0.44045 0.72918 0.07147 0.0
C624 C 0.40973 0.73659 0.06321 0.0
C625 C 0.38779 0.74594 0.07937 0.0
C626 C 0.39644 0.74786 0.10334 0.0
C627 C 0.40148 0.7357 0.03767 0.0
C628 C 0.40205 0.76519 0.02725 0.0
C629 C 0.39509 0.70676 0.02341 0.0
C630 C 0.39187 0.67413 0.03343 0.0
C631 C 0.36443 0.65765 0.05125 0.0
C632 C 0.36171 0.62702 0.06072 0.0
C633 C 0.38609 0.61246 0.05239 0.0
C634 C 0.41317 0.62847 0.03453 0.0
C635 C 0.41604 0.65913 0.02502 0.0
H636 H 0.38394 0.58874 0.05974 0.0
H637 H 0.40401 0.88304 0.96598 0.0
H638 H 0.69313 0.32924 0.43017 0.0
H639 H 0.68173 0.32299 0.38801 0.0
H640 H 0.72379 0.43266 0.38217 0.0
H641 H 0.73439 0.43886 0.4247 0.0
H642 H 0.66267 0.40088 0.35363 0.0
H643 H 0.78368 0.39268 0.36772 0.0
H644 H 0.82814 0.3717 0.38655 0.0
H645 H 0.75471 0.26948 0.36162 0.0
H646 H 0.70947 0.28975 0.34291 0.0
H647 H 0.67742 0.38892 0.22933 0.0
H648 H 0.69802 0.40435 0.27015 0.0
H649 H 0.64765 0.29703 0.28788 0.0
H650 H 0.6271 0.2814 0.24726 0.0
H651 H 0.71986 0.33408 0.3093 0.0
H652 H 0.59657 0.3434 0.29764 0.0
H653 H 0.55392 0.36584 0.27827 0.0
H654 H 0.63526 0.46868 0.29798 0.0
H655 H 0.67872 0.44686 0.31717 0.0
C656 C 0.6999 0.35201 0.41991 0.0
C657 C 0.71508 0.38457 0.4307 0.0
C658 C 0.69349 0.34845 0.39578 0.0
C659 C 0.70288 0.37743 0.38174 0.0
C660 C 0.71659 0.40992 0.39257 0.0
C661 C 0.72255 0.41345 0.41686 0.0
C662 C 0.69885 0.37355 0.3558 0.0
C663 C 0.67578 0.3868 0.3439 0.0
C664 C 0.7157 0.35498 0.343 0.0
C665 C 0.74302 0.34271 0.35405 0.0
C666 C 0.77688 0.36569 0.36637 0.0
C667 C 0.80223 0.35393 0.37701 0.0
C668 C 0.79422 0.31927 0.37532 0.0
C669 C 0.76087 0.29632 0.36292 0.0
C670 C 0.73538 0.30794 0.35228 0.0
C671 C 0.67126 0.36859 0.24185 0.0
C672 C 0.65043 0.33391 0.23503 0.0
C673 C 0.68284 0.37747 0.2652 0.0
C674 C 0.67392 0.35185 0.28214 0.0
C675 C 0.65475 0.31724 0.27515 0.0
C676 C 0.64296 0.30835 0.25189 0.0
C677 C 0.68307 0.36076 0.30731 0.0
C678 C 0.70716 0.34848 0.31904 0.0
C679 C 0.66749 0.38048 0.31987 0.0
C680 C 0.6411 0.39354 0.30861 0.0
C681 C 0.6055 0.37082 0.2977 0.0
C682 C 0.58116 0.38342 0.28677 0.0
C683 C 0.59193 0.41867 0.28683 0.0
C684 C 0.62699 0.44138 0.29791 0.0
C685 C 0.65148 0.42892 0.30882 0.0
H686 H 0.57306 0.42838 0.27835 0.0
H687 H 0.81388 0.31022 0.38357 0.0
H688 H 0.39792 0.77227 0.77631 0.0
H689 H 0.39405 0.74937 0.73676 0.0
H690 H 0.2999 0.65288 0.75793 0.0
H691 H 0.30353 0.67561 0.79773 0.0
H692 H 0.3538 0.64467 0.72733 0.0
H693 H 0.27494 0.70647 0.73071 0.0
H694 H 0.26029 0.75555 0.73986 0.0
H695 H 0.35274 0.81924 0.69348 0.0
H696 H 0.36839 0.77065 0.68433 0.0
H697 H 0.29977 0.59351 0.60739 0.0
H698 H 0.29452 0.60704 0.64871 0.0
H699 H 0.38693 0.70946 0.63892 0.0
H700 H 0.39188 0.69624 0.59781 0.0
H701 H 0.32588 0.70976 0.66454 0.0
H702 H 0.40749 0.64857 0.66356 0.0
H703 H 0.4221 0.59937 0.65468 0.0
H704 H 0.32318 0.53396 0.69649 0.0
H705 H 0.30765 0.58271 0.70536 0.0
C706 C 0.37674 0.746 0.77273 0.0
C707 C 0.35079 0.7259 0.7902 0.0
C708 C 0.37447 0.73299 0.75004 0.0
C709 C 0.34622 0.69962 0.74429 0.0
C710 C 0.32178 0.67876 0.76196 0.0
C711 C 0.32391 0.69182 0.7847 0.0
C712 C 0.34105 0.68748 0.71957 0.0
C713 C 0.34705 0.65854 0.71363 0.0
C714 C 0.33252 0.70572 0.70167 0.0
C715 C 0.32307 0.73498 0.707 0.0
C716 C 0.29237 0.73101 0.7226 0.0
C717 C 0.28385 0.75873 0.72777 0.0
C718 C 0.30563 0.79051 0.71729 0.0
C719 C 0.33592 0.79461 0.70159 0.0
C720 C 0.34461 0.76698 0.6964 0.0
C721 C 0.31855 0.61901 0.61403 0.0
C722 C 0.34644 0.64374 0.59939 0.0
C723 C 0.31577 0.62663 0.63766 0.0
C724 C 0.34066 0.65917 0.64698 0.0
C725 C 0.36754 0.68416 0.63217 0.0
C726 C 0.37052 0.6765 0.6087 0.0
C727 C 0.33954 0.66742 0.67219 0.0
C728 C 0.33225 0.69565 0.67824 0.0
C729 C 0.34675 0.64845 0.69015 0.0
C730 C 0.35612 0.61917 0.68488 0.0
C731 C 0.38864 0.62362 0.67069 0.0
C732 C 0.39713 0.59584 0.66569 0.0
C733 C 0.37351 0.56353 0.67495 0.0
C734 C 0.34141 0.55898 0.68929 0.0
C735 C 0.33276 0.58668 0.69431 0.0
H736 H 0.38013 0.54205 0.67107 0.0
H737 H 0.29898 0.81195 0.72131 0.0
loop_
_geom_bond_atom_site_label_1
_geom_bond_atom_site_label_2
_geom_bond_distance
_geom_bond_site_symmetry_2
_ccdc_geom_bond_type
Cu0 N1 1.999 . S
Cu0 O6 1.974 . S
Cu0 N11 1.985 . S
Cu0 O20 1.959 . S
N1 Cu0 1.999 . S
N1 C3 1.263 . S
N1 C5 1.389 . S
N2 C3 1.358 . S
N2 C4 1.400 . S
C3 N1 1.263 . S
C3 N2 1.358 . S
C3 H9 0.930 . S
C4 N2 1.400 . S
C4 C5 1.351 . S
C4 H21 0.930 . S
C5 N1 1.389 . S
C5 C4 1.351 . S
C5 H10 0.930 . S
O6 Cu0 1.974 . S
O6 C16 1.282 . S
C7 O8 1.261 . S
C7 O20 1.251 . S
O8 C7 1.261 . S
H9 C3 0.930 . S
H10 C5 0.930 . S
N11 Cu0 1.985 . S
N11 C13 1.335 . S
N11 C14 1.390 . S
N12 C13 1.345 . S
N12 C15 1.336 . S
C13 N11 1.335 . S
C13 N12 1.345 . S
C13 H18 0.930 . S
C14 N11 1.390 . S
C14 C15 1.346 . S
C14 H19 0.930 . S
C15 N12 1.336 . S
C15 C14 1.346 . S
C15 H22 0.929 . S
C16 O6 1.282 . S
C16 O17 1.216 . S
O17 C16 1.216 . S
H18 C13 0.930 . S
H19 C14 0.930 . S
O20 Cu0 1.959 . S
O20 C7 1.251 . S
H21 C4 0.930 . S
H22 C15 0.929 . S
Cu23 N24 1.999 . S
Cu23 O29 1.974 . S
Cu23 N34 1.985 . S
Cu23 O43 1.959 . S
N24 Cu23 1.999 . S
N24 C26 1.263 . S
N24 C28 1.389 . S
N25 C26 1.358 . S
N25 C27 1.400 . S
C26 N24 1.263 . S
C26 N25 1.358 . S
C26 H32 0.930 . S
C27 N25 1.400 . S
C27 C28 1.351 . S
C27 H44 0.930 . S
C28 N24 1.389 . S
C28 C27 1.351 . S
C28 H33 0.930 . S
O29 Cu23 1.974 . S
O29 C39 1.282 . S
C30 O31 1.261 . S
C30 O43 1.251 . S
O31 C30 1.261 . S
H32 C26 0.930 . S
H33 C28 0.930 . S
N34 Cu23 1.985 . S
N34 C36 1.335 . S
N34 C37 1.390 . S
N35 C36 1.345 . S
N35 C38 1.336 . S
C36 N34 1.335 . S
C36 N35 1.345 . S
C36 H41 0.930 . S
C37 N34 1.390 . S
C37 C38 1.346 . S
C37 H42 0.930 . S
C38 N35 1.336 . S
C38 C37 1.346 . S
C38 H45 0.929 . S
C39 O29 1.282 . S
C39 O40 1.216 . S
O40 C39 1.216 . S
H41 C36 0.930 . S
H42 C37 0.930 . S
O43 Cu23 1.959 . S
O43 C30 1.251 . S
H44 C27 0.930 . S
H45 C38 0.929 . S
Cu46 N47 1.999 . S
Cu46 O52 1.974 . S
Cu46 N57 1.985 . S
Cu46 O66 1.959 . S
N47 Cu46 1.999 . S
N47 C49 1.263 . S
N47 C51 1.389 . S
N48 C49 1.358 . S
N48 C50 1.400 . S
C49 N47 1.263 . S
C49 N48 1.358 . S
C49 H55 0.930 . S
C50 N48 1.400 . S
C50 C51 1.351 . S
C50 H67 0.930 . S
C51 N47 1.389 . S
C51 C50 1.351 . S
C51 H56 0.930 . S
O52 Cu46 1.974 . S
O52 C62 1.282 . S
C53 O54 1.261 . S
C53 O66 1.251 . S
O54 C53 1.261 . S
H55 C49 0.930 . S
H56 C51 0.930 . S
N57 Cu46 1.985 . S
N57 C59 1.335 . S
N57 C60 1.390 . S
N58 C59 1.345 . S
N58 C61 1.336 . S
C59 N57 1.335 . S
C59 N58 1.345 . S
C59 H64 0.930 . S
C60 N57 1.390 . S
C60 C61 1.346 . S
C60 H65 0.930 . S
C61 N58 1.336 . S
C61 C60 1.346 . S
C61 H68 0.929 . S
C62 O52 1.282 . S
C62 O63 1.216 . S
O63 C62 1.216 . S
H64 C59 0.930 . S
H65 C60 0.930 . S
O66 Cu46 1.959 . S
O66 C53 1.251 . S
H67 C50 0.930 . S
H68 C61 0.929 . S
Cu69 N70 1.999 . S
Cu69 O75 1.974 . S
Cu69 N80 1.985 . S
Cu69 O89 1.959 . S
N70 Cu69 1.999 . S
N70 C72 1.263 . S
N70 C74 1.389 . S
N71 C72 1.358 . S
N71 C73 1.400 . S
C72 N70 1.263 . S
C72 N71 1.358 . S
C72 H78 0.930 . S
C73 N71 1.400 . S
C73 C74 1.351 . S
C73 H90 0.930 . S
C74 N70 1.389 . S
C74 C73 1.351 . S
C74 H79 0.930 . S
O75 Cu69 1.974 . S
O75 C85 1.282 . S
C76 O77 1.261 . S
C76 O89 1.251 . S
O77 C76 1.261 . S
H78 C72 0.930 . S
H79 C74 0.930 . S
N80 Cu69 1.985 . S
N80 C82 1.335 . S
N80 C83 1.390 . S
N81 C82 1.345 . S
N81 C84 1.336 . S
C82 N80 1.335 . S
C82 N81 1.345 . S
C82 H87 0.930 . S
C83 N80 1.390 . S
C83 C84 1.346 . S
C83 H88 0.930 . S
C84 N81 1.336 . S
C84 C83 1.346 . S
C84 H91 0.929 . S
C85 O75 1.282 . S
C85 O86 1.216 . S
O86 C85 1.216 . S
H87 C82 0.930 . S
H88 C83 0.930 . S
O89 Cu69 1.959 . S
O89 C76 1.251 . S
H90 C73 0.930 . S
H91 C84 0.929 . S
Cu92 N93 1.999 . S
Cu92 O98 1.974 . S
Cu92 N103 1.985 . S
Cu92 O112 1.959 . S
N93 Cu92 1.999 . S
N93 C95 1.263 . S
N93 C97 1.389 . S
N94 C95 1.358 . S
N94 C96 1.400 . S
C95 N93 1.263 . S
C95 N94 1.358 . S
C95 H101 0.930 . S
C96 N94 1.400 . S
C96 C97 1.351 . S
C96 H113 0.930 . S
C97 N93 1.389 . S
C97 C96 1.351 . S
C97 H102 0.930 . S
O98 Cu92 1.974 . S
O98 C108 1.282 . S
C99 O100 1.261 . S
C99 O112 1.251 . S
O100 C99 1.261 . S
H101 C95 0.930 . S
H102 C97 0.930 . S
N103 Cu92 1.985 . S
N103 C105 1.335 . S
N103 C106 1.390 . S
N104 C105 1.345 . S
N104 C107 1.336 . S
C105 N103 1.335 . S
C105 N104 1.345 . S
C105 H110 0.930 . S
C106 N103 1.390 . S
C106 C107 1.346 . S
C106 H111 0.930 . S
C107 N104 1.336 . S
C107 C106 1.346 . S
C107 H114 0.929 . S
C108 O98 1.282 . S
C108 O109 1.216 . S
O109 C108 1.216 . S
H110 C105 0.930 . S
H111 C106 0.930 . S
O112 Cu92 1.959 . S
O112 C99 1.251 . S
H113 C96 0.930 . S
H114 C107 0.929 . S
Cu115 N116 1.999 . S
Cu115 O121 1.974 . S
Cu115 N126 1.985 . S
Cu115 O135 1.959 . S
N116 Cu115 1.999 . S
N116 C118 1.263 . S
N116 C120 1.389 . S
N117 C118 1.358 . S
N117 C119 1.400 . S
C118 N116 1.263 . S
C118 N117 1.358 . S
C118 H124 0.930 . S
C119 N117 1.400 . S
C119 C120 1.351 . S
C119 H136 0.930 . S
C120 N116 1.389 . S
C120 C119 1.351 . S
C120 H125 0.930 . S
O121 Cu115 1.974 . S
O121 C131 1.282 . S
C122 O123 1.261 . S
C122 O135 1.251 . S
O123 C122 1.261 . S
H124 C118 0.930 . S
H125 C120 0.930 . S
N126 Cu115 1.985 . S
N126 C128 1.335 . S
N126 C129 1.390 . S
N127 C128 1.345 . S
N127 C130 1.336 . S
C128 N126 1.335 . S
C128 N127 1.345 . S
C128 H133 0.930 . S
C129 N126 1.390 . S
C129 C130 1.346 . S
C129 H134 0.930 . S
C130 N127 1.336 . S
C130 C129 1.346 . S
C130 H137 0.929 . S
C131 O121 1.282 . S
C131 O132 1.216 . S
O132 C131 1.216 . S
H133 C128 0.930 . S
H134 C129 0.930 . S
O135 Cu115 1.959 . S
O135 C122 1.251 . S
H136 C119 0.930 . S
H137 C130 0.929 . S
H138 C156 0.951 . S
H139 C158 0.951 . S
H140 C160 0.950 . S
H141 C161 0.950 . S
H142 C163 0.950 . S
H143 C166 0.950 . S
H144 C167 0.950 . S
H145 C169 0.950 . S
H146 C170 0.950 . S
H147 C171 0.951 . S
H148 C173 0.951 . S
H149 C175 0.950 . S
H150 C176 0.950 . S
H151 C178 0.950 . S
H152 C181 0.950 . S
H153 C182 0.950 . S
H154 C184 0.950 . S
H155 C185 0.950 . S
C156 H138 0.951 . S
C156 C157 1.366 . S
C156 C158 1.388 . S
C157 C156 1.366 . S
C157 C161 1.385 . S
C158 H139 0.951 . S
C158 C156 1.388 . S
C158 C159 1.366 . S
C159 C158 1.366 . S
C159 C160 1.414 . S
C159 C162 1.499 . S
C160 H140 0.950 . S
C160 C159 1.414 . S
C160 C161 1.374 . S
C161 H141 0.950 . S
C161 C157 1.385 . S
C161 C160 1.374 . S
C162 C159 1.499 . S
C162 C163 1.373 . S
C162 C164 1.389 . S
C163 H142 0.950 . S
C163 C162 1.373 . S
C163 C179 1.377 1_545 S
C164 C162 1.389 . S
C164 C165 1.524 . S
C164 C178 1.377 1_545 S
C165 C164 1.524 . S
C165 C166 1.397 . S
C165 C170 1.363 . S
C166 H143 0.950 . S
C166 C165 1.397 . S
C166 C167 1.334 . S
C167 H144 0.950 . S
C167 C166 1.334 . S
C167 C168 1.287 . S
C168 C167 1.287 . S
C168 C169 1.524 . S
C168 H187 0.913 . S
C169 H145 0.950 . S
C169 C168 1.524 . S
C169 C170 1.415 . S
C170 H146 0.950 . S
C170 C165 1.363 . S
C170 C169 1.415 . S
C171 H147 0.951 . S
C171 C172 1.366 . S
C171 C173 1.388 . S
C172 C171 1.366 . S
C172 C176 1.385 . S
C173 H148 0.951 . S
C173 C171 1.388 . S
C173 C174 1.366 . S
C174 C173 1.366 . S
C174 C175 1.414 . S
C174 C177 1.499 . S
C175 H149 0.950 . S
C175 C174 1.414 . S
C175 C176 1.374 . S
C176 H150 0.950 . S
C176 C172 1.385 . S
C176 C175 1.374 . S
C177 C174 1.499 . S
C177 C178 1.373 . S
C177 C179 1.389 . S
C178 H151 0.950 . S
C178 C164 1.377 1_565 S
C178 C177 1.373 . S
C179 C163 1.377 1_565 S
C179 C177 1.389 . S
C179 C180 1.524 . S
C180 C179 1.524 . S
C180 C181 1.397 . S
C180 C185 1.363 . S
C181 H152 0.950 . S
C181 C180 1.397 . S
C181 C182 1.334 . S
C182 H153 0.950 . S
C182 C181 1.334 . S
C182 C183 1.287 . S
C183 C182 1.287 . S
C183 C184 1.524 . S
C183 H186 0.999 . S
C184 H154 0.950 . S
C184 C183 1.524 . S
C184 C185 1.415 . S
C185 H155 0.950 . S
C185 C180 1.363 . S
C185 C184 1.415 . S
H186 C183 0.999 . S
H187 C168 0.913 . S
H188 C206 0.951 . S
H189 C208 0.951 . S
H190 C210 0.950 . S
H191 C211 0.950 . S
H192 C213 0.950 . S
H193 C216 0.950 . S
H194 C217 0.950 . S
H195 C219 0.950 . S
H196 C220 0.950 . S
H197 C221 0.951 . S
H198 C223 0.951 . S
H199 C225 0.950 . S
H200 C226 0.950 . S
H201 C228 0.950 . S
H202 C231 0.950 . S
H203 C232 0.950 . S
H204 C234 0.950 . S
H205 C235 0.950 . S
C206 H188 0.951 . S
C206 C207 1.366 . S
C206 C208 1.388 . S
C207 C206 1.366 . S
C207 C211 1.385 . S
C208 H189 0.951 . S
C208 C206 1.388 . S
C208 C209 1.366 . S
C209 C208 1.366 . S
C209 C210 1.414 . S
C209 C212 1.499 . S
C210 H190 0.950 . S
C210 C209 1.414 . S
C210 C211 1.374 . S
C211 H191 0.950 . S
C211 C207 1.385 . S
C211 C210 1.374 . S
C212 C209 1.499 . S
C212 C213 1.373 . S
C212 C214 1.389 . S
C213 H192 0.950 . S
C213 C212 1.373 . S
C213 C229 1.377 . S
C214 C212 1.389 . S
C214 C215 1.524 . S
C214 C228 1.377 . S
C215 C214 1.524 . S
C215 C216 1.397 . S
C215 C220 1.363 . S
C216 H193 0.950 . S
C216 C215 1.397 . S
C216 C217 1.334 . S
C217 H194 0.950 . S
C217 C216 1.334 . S
C217 C218 1.287 . S
C218 C217 1.287 . S
C218 C219 1.524 . S
C218 H237 0.913 . S
C219 H195 0.950 . S
C219 C218 1.524 . S
C219 C220 1.415 . S
C220 H196 0.950 . S
C220 C215 1.363 . S
C220 C219 1.415 . S
C221 H197 0.951 . S
C221 C222 1.366 . S
C221 C223 1.388 . S
C222 C221 1.366 . S
C222 C226 1.385 . S
C223 H198 0.951 . S
C223 C221 1.388 . S
C223 C224 1.366 . S
C224 C223 1.366 . S
C224 C225 1.414 . S
C224 C227 1.499 . S
C225 H199 0.950 . S
C225 C224 1.414 . S
C225 C226 1.374 . S
C226 H200 0.950 . S
C226 C222 1.385 . S
C226 C225 1.374 . S
C227 C224 1.499 . S
C227 C228 1.373 . S
C227 C229 1.389 . S
C228 H201 0.950 . S
C228 C214 1.377 . S
C228 C227 1.373 . S
C229 C213 1.377 . S
C229 C227 1.389 . S
C229 C230 1.524 . S
C230 C229 1.524 . S
C230 C231 1.397 . S
C230 C235 1.363 . S
C231 H202 0.950 . S
C231 C230 1.397 . S
C231 C232 1.334 . S
C232 H203 0.950 . S
C232 C231 1.334 . S
C232 C233 1.287 . S
C233 C232 1.287 . S
C233 C234 1.524 . S
C233 H236 0.999 . S
C234 H204 0.950 . S
C234 C233 1.524 . S
C234 C235 1.415 . S
C235 H205 0.950 . S
C235 C230 1.363 . S
C235 C234 1.415 . S
H236 C233 0.999 . S
H237 C218 0.913 . S
H238 C256 0.951 . S
H239 C258 0.951 . S
H240 C260 0.950 . S
H241 C261 0.950 . S
H242 C263 0.950 . S
H243 C266 0.950 . S
H244 C267 0.950 . S
H245 C269 0.950 . S
H246 C270 0.950 . S
H247 C271 0.951 . S
H248 C273 0.951 . S
H249 C275 0.950 . S
H250 C276 0.950 . S
H251 C278 0.950 . S
H252 C281 0.950 . S
H253 C282 0.950 . S
H254 C284 0.950 . S
H255 C285 0.950 . S
C256 H238 0.951 . S
C256 C257 1.366 . S
C256 C258 1.388 . S
C257 C256 1.366 . S
C257 C261 1.385 . S
C258 H239 0.951 . S
C258 C256 1.388 . S
C258 C259 1.366 . S
C259 C258 1.366 . S
C259 C260 1.414 . S
C259 C262 1.499 . S
C260 H240 0.950 . S
C260 C259 1.414 . S
C260 C261 1.374 . S
C261 H241 0.950 . S
C261 C257 1.385 . S
C261 C260 1.374 . S
C262 C259 1.499 . S
C262 C263 1.373 . S
C262 C264 1.389 . S
C263 H242 0.950 . S
C263 C262 1.373 . S
C263 C279 1.377 1_655 S
C264 C262 1.389 . S
C264 C265 1.524 . S
C264 C278 1.377 1_655 S
C265 C264 1.524 . S
C265 C266 1.397 . S
C265 C270 1.363 . S
C266 H243 0.950 . S
C266 C265 1.397 . S
C266 C267 1.334 . S
C267 H244 0.950 . S
C267 C266 1.334 . S
C267 C268 1.287 . S
C268 C267 1.287 . S
C268 C269 1.524 . S
C268 H287 0.913 . S
C269 H245 0.950 . S
C269 C268 1.524 . S
C269 C270 1.415 . S
C270 H246 0.950 . S
C270 C265 1.363 . S
C270 C269 1.415 . S
C271 H247 0.951 . S
C271 C272 1.366 . S
C271 C273 1.388 . S
C272 C271 1.366 . S
C272 C276 1.385 . S
C273 H248 0.951 . S
C273 C271 1.388 . S
C273 C274 1.366 . S
C274 C273 1.366 . S
C274 C275 1.414 . S
C274 C277 1.499 . S
C275 H249 0.950 . S
C275 C274 1.414 . S
C275 C276 1.374 . S
C276 H250 0.950 . S
C276 C272 1.385 . S
C276 C275 1.374 . S
C277 C274 1.499 . S
C277 C278 1.373 . S
C277 C279 1.389 . S
C278 H251 0.950 . S
C278 C264 1.377 1_455 S
C278 C277 1.373 . S
C279 C263 1.377 1_455 S
C279 C277 1.389 . S
C279 C280 1.524 . S
C280 C279 1.524 . S
C280 C281 1.397 . S
C280 C285 1.363 . S
C281 H252 0.950 . S
C281 C280 1.397 . S
C281 C282 1.334 . S
C282 H253 0.950 . S
C282 C281 1.334 . S
C282 C283 1.287 . S
C283 C282 1.287 . S
C283 C284 1.524 . S
C283 H286 0.999 . S
C284 H254 0.950 . S
C284 C283 1.524 . S
C284 C285 1.415 . S
C285 H255 0.950 . S
C285 C280 1.363 . S
C285 C284 1.415 . S
H286 C283 0.999 . S
H287 C268 0.913 . S
H288 C306 0.951 . S
H289 C308 0.951 . S
H290 C310 0.950 . S
H291 C311 0.950 . S
H292 C313 0.950 . S
H293 C316 0.950 . S
H294 C317 0.950 . S
H295 C319 0.950 . S
H296 C320 0.950 . S
H297 C321 0.951 . S
H298 C323 0.951 . S
H299 C325 0.950 . S
H300 C326 0.950 . S
H301 C328 0.950 . S
H302 C331 0.950 . S
H303 C332 0.950 . S
H304 C334 0.950 . S
H305 C335 0.950 . S
C306 H288 0.951 . S
C306 C307 1.366 . S
C306 C308 1.388 . S
C307 C306 1.366 . S
C307 C311 1.385 . S
C308 H289 0.951 . S
C308 C306 1.388 . S
C308 C309 1.366 . S
C309 C308 1.366 . S
C309 C310 1.414 . S
C309 C312 1.499 . S
C310 H290 0.950 . S
C310 C309 1.414 . S
C310 C311 1.374 . S
C311 H291 0.950 . S
C311 C307 1.385 . S
C311 C310 1.374 . S
C312 C309 1.499 . S
C312 C313 1.373 . S
C312 C314 1.389 . S
C313 H292 0.950 . S
C313 C312 1.373 . S
C313 C329 1.377 1_455 S
C314 C312 1.389 . S
C314 C315 1.524 . S
C314 C328 1.377 1_455 S
C315 C314 1.524 . S
C315 C316 1.397 . S
C315 C320 1.363 . S
C316 H293 0.950 . S
C316 C315 1.397 . S
C316 C317 1.334 . S
C317 H294 0.950 . S
C317 C316 1.334 . S
C317 C318 1.287 . S
C318 C317 1.287 . S
C318 C319 1.524 . S
C318 H337 0.913 . S
C319 H295 0.950 . S
C319 C318 1.524 . S
C319 C320 1.415 . S
C320 H296 0.950 . S
C320 C315 1.363 . S
C320 C319 1.415 . S
C321 H297 0.951 . S
C321 C322 1.366 . S
C321 C323 1.388 . S
C322 C321 1.366 . S
C322 C326 1.385 . S
C323 H298 0.951 . S
C323 C321 1.388 . S
C323 C324 1.366 . S
C324 C323 1.366 . S
C324 C325 1.414 . S
C324 C327 1.499 . S
C325 H299 0.950 . S
C325 C324 1.414 . S
C325 C326 1.374 . S
C326 H300 0.950 . S
C326 C322 1.385 . S
C326 C325 1.374 . S
C327 C324 1.499 . S
C327 C328 1.373 . S
C327 C329 1.389 . S
C328 H301 0.950 . S
C328 C314 1.377 1_655 S
C328 C327 1.373 . S
C329 C313 1.377 1_655 S
C329 C327 1.389 . S
C329 C330 1.524 . S
C330 C329 1.524 . S
C330 C331 1.397 . S
C330 C335 1.363 . S
C331 H302 0.950 . S
C331 C330 1.397 . S
C331 C332 1.334 . S
C332 H303 0.950 . S
C332 C331 1.334 . S
C332 C333 1.287 . S
C333 C332 1.287 . S
C333 C334 1.524 . S
C333 H336 0.999 . S
C334 H304 0.950 . S
C334 C333 1.524 . S
C334 C335 1.415 . S
C335 H305 0.950 . S
C335 C330 1.363 . S
C335 C334 1.415 . S
H336 C333 0.999 . S
H337 C318 0.913 . S
H338 C356 0.951 . S
H339 C358 0.951 . S
H340 C360 0.950 . S
H341 C361 0.950 . S
H342 C363 0.950 . S
H343 C366 0.950 . S
H344 C367 0.950 . S
H345 C369 0.950 . S
H346 C370 0.950 . S
H347 C371 0.951 . S
H348 C373 0.951 . S
H349 C375 0.950 . S
H350 C376 0.950 . S
H351 C378 0.950 . S
H352 C381 0.950 . S
H353 C382 0.950 . S
H354 C384 0.950 . S
H355 C385 0.950 . S
C356 H338 0.951 . S
C356 C357 1.366 . S
C356 C358 1.388 . S
C357 C356 1.366 . S
C357 C361 1.385 . S
C358 H339 0.951 . S
C358 C356 1.388 . S
C358 C359 1.366 . S
C359 C358 1.366 . S
C359 C360 1.414 . S
C359 C362 1.499 . S
C360 H340 0.950 . S
C360 C359 1.414 . S
C360 C361 1.374 . S
C361 H341 0.950 . S
C361 C357 1.385 . S
C361 C360 1.374 . S
C362 C359 1.499 . S
C362 C363 1.373 . S
C362 C364 1.389 . S
C363 H342 0.950 . S
C363 C362 1.373 . S
C363 C379 1.377 1_565 S
C364 C362 1.389 . S
C364 C365 1.524 . S
C364 C378 1.377 1_565 S
C365 C364 1.524 . S
C365 C366 1.397 . S
C365 C370 1.363 . S
C366 H343 0.950 . S
C366 C365 1.397 . S
C366 C367 1.334 . S
C367 H344 0.950 . S
C367 C366 1.334 . S
C367 C368 1.287 . S
C368 C367 1.287 . S
C368 C369 1.524 . S
C368 H387 0.913 . S
C369 H345 0.950 . S
C369 C368 1.524 . S
C369 C370 1.415 . S
C370 H346 0.950 . S
C370 C365 1.363 . S
C370 C369 1.415 . S
C371 H347 0.951 . S
C371 C372 1.366 . S
C371 C373 1.388 . S
C372 C371 1.366 . S
C372 C376 1.385 . S
C373 H348 0.951 . S
C373 C371 1.388 . S
C373 C374 1.366 . S
C374 C373 1.366 . S
C374 C375 1.414 . S
C374 C377 1.499 . S
C375 H349 0.950 . S
C375 C374 1.414 . S
C375 C376 1.374 . S
C376 H350 0.950 . S
C376 C372 1.385 . S
C376 C375 1.374 . S
C377 C374 1.499 . S
C377 C378 1.373 . S
C377 C379 1.389 . S
C378 H351 0.950 . S
C378 C364 1.377 1_545 S
C378 C377 1.373 . S
C379 C363 1.377 1_545 S
C379 C377 1.389 . S
C379 C380 1.524 . S
C380 C379 1.524 . S
C380 C381 1.397 . S
C380 C385 1.363 . S
C381 H352 0.950 . S
C381 C380 1.397 . S
C381 C382 1.334 . S
C382 H353 0.950 . S
C382 C381 1.334 . S
C382 C383 1.287 . S
C383 C382 1.287 . S
C383 C384 1.524 . S
C383 H386 0.999 . S
C384 H354 0.950 . S
C384 C383 1.524 . S
C384 C385 1.415 . S
C385 H355 0.950 . S
C385 C380 1.363 . S
C385 C384 1.415 . S
H386 C383 0.999 . S
H387 C368 0.913 . S
H388 C406 0.951 . S
H389 C408 0.951 . S
H390 C410 0.950 . S
H391 C411 0.950 . S
H392 C413 0.950 . S
H393 C416 0.950 . S
H394 C417 0.950 . S
H395 C419 0.950 . S
H396 C420 0.950 . S
H397 C421 0.951 . S
H398 C423 0.951 . S
H399 C425 0.950 . S
H400 C426 0.950 . S
H401 C428 0.950 . S
H402 C431 0.950 . S
H403 C432 0.950 . S
H404 C434 0.950 . S
H405 C435 0.950 . S
C406 H388 0.951 . S
C406 C407 1.366 . S
C406 C408 1.388 . S
C407 C406 1.366 . S
C407 C411 1.385 . S
C408 H389 0.951 . S
C408 C406 1.388 . S
C408 C409 1.366 . S
C409 C408 1.366 . S
C409 C410 1.414 . S
C409 C412 1.499 . S
C410 H390 0.950 . S
C410 C409 1.414 . S
C410 C411 1.374 . S
C411 H391 0.950 . S
C411 C407 1.385 . S
C411 C410 1.374 . S
C412 C409 1.499 . S
C412 C413 1.373 . S
C412 C414 1.389 . S
C413 H392 0.950 . S
C413 C412 1.373 . S
C413 C429 1.377 . S
C414 C412 1.389 . S
C414 C415 1.524 . S
C414 C428 1.377 . S
C415 C414 1.524 . S
C415 C416 1.397 . S
C415 C420 1.363 . S
C416 H393 0.950 . S
C416 C415 1.397 . S
C416 C417 1.334 . S
C417 H394 0.950 . S
C417 C416 1.334 . S
C417 C418 1.287 . S
C418 C417 1.287 . S
C418 C419 1.524 . S
C418 H437 0.913 . S
C419 H395 0.950 . S
C419 C418 1.524 . S
C419 C420 1.415 . S
C420 H396 0.950 . S
C420 C415 1.363 . S
C420 C419 1.415 . S
C421 H397 0.951 . S
C421 C422 1.366 . S
C421 C423 1.388 . S
C422 C421 1.366 . S
C422 C426 1.385 . S
C423 H398 0.951 . S
C423 C421 1.388 . S
C423 C424 1.366 . S
C424 C423 1.366 . S
C424 C425 1.414 . S
C424 C427 1.499 . S
C425 H399 0.950 . S
C425 C424 1.414 . S
C425 C426 1.374 . S
C426 H400 0.950 . S
C426 C422 1.385 . S
C426 C425 1.374 . S
C427 C424 1.499 . S
C427 C428 1.373 . S
C427 C429 1.389 . S
C428 H401 0.950 . S
C428 C414 1.377 . S
C428 C427 1.373 . S
C429 C413 1.377 . S
C429 C427 1.389 . S
C429 C430 1.524 . S
C430 C429 1.524 . S
C430 C431 1.397 . S
C430 C435 1.363 . S
C431 H402 0.950 . S
C431 C430 1.397 . S
C431 C432 1.334 . S
C432 H403 0.950 . S
C432 C431 1.334 . S
C432 C433 1.287 . S
C433 C432 1.287 . S
C433 C434 1.524 . S
C433 H436 0.999 . S
C434 H404 0.950 . S
C434 C433 1.524 . S
C434 C435 1.415 . S
C435 H405 0.950 . S
C435 C430 1.363 . S
C435 C434 1.415 . S
H436 C433 0.999 . S
H437 C418 0.913 . S
H438 C456 0.951 . S
H439 C458 0.951 . S
H440 C460 0.950 . S
H441 C461 0.950 . S
H442 C463 0.950 . S
H443 C466 0.950 . S
H444 C467 0.950 . S
H445 C469 0.950 . S
H446 C470 0.950 . S
H447 C471 0.951 . S
H448 C473 0.951 . S
H449 C475 0.950 . S
H450 C476 0.950 . S
H451 C478 0.950 . S
H452 C481 0.950 . S
H453 C482 0.950 . S
H454 C484 0.950 . S
H455 C485 0.950 . S
C456 H438 0.951 . S
C456 C457 1.366 . S
C456 C458 1.388 . S
C457 C456 1.366 . S
C457 C461 1.385 . S
C458 H439 0.951 . S
C458 C456 1.388 . S
C458 C459 1.366 . S
C459 C458 1.366 . S
C459 C460 1.414 . S
C459 C462 1.499 . S
C460 H440 0.950 . S
C460 C459 1.414 . S
C460 C461 1.374 . S
C461 H441 0.950 . S
C461 C457 1.385 . S
C461 C460 1.374 . S
C462 C459 1.499 . S
C462 C463 1.373 . S
C462 C464 1.389 . S
C463 H442 0.950 . S
C463 C462 1.373 . S
C463 C479 1.377 1_556 S
C464 C462 1.389 . S
C464 C465 1.524 . S
C464 C478 1.377 1_556 S
C465 C464 1.524 . S
C465 C466 1.397 . S
C465 C470 1.363 . S
C466 H443 0.950 . S
C466 C465 1.397 . S
C466 C467 1.334 . S
C467 H444 0.950 . S
C467 C466 1.334 . S
C467 C468 1.287 . S
C468 C467 1.287 . S
C468 C469 1.524 . S
C468 H487 0.913 . S
C469 H445 0.950 . S
C469 C468 1.524 . S
C469 C470 1.415 . S
C470 H446 0.950 . S
C470 C465 1.363 . S
C470 C469 1.415 . S
C471 H447 0.951 . S
C471 C472 1.366 . S
C471 C473 1.388 . S
C472 C471 1.366 . S
C472 C476 1.385 . S
C473 H448 0.951 . S
C473 C471 1.388 . S
C473 C474 1.366 . S
C474 C473 1.366 . S
C474 C475 1.414 . S
C474 C477 1.499 . S
C475 H449 0.950 . S
C475 C474 1.414 . S
C475 C476 1.374 . S
C476 H450 0.950 . S
C476 C472 1.385 . S
C476 C475 1.374 . S
C477 C474 1.499 . S
C477 C478 1.373 . S
C477 C479 1.389 . S
C478 H451 0.950 . S
C478 C464 1.377 1_554 S
C478 C477 1.373 . S
C479 C463 1.377 1_554 S
C479 C477 1.389 . S
C479 C480 1.524 . S
C480 C479 1.524 . S
C480 C481 1.397 . S
C480 C485 1.363 . S
C481 H452 0.950 . S
C481 C480 1.397 . S
C481 C482 1.334 . S
C482 H453 0.950 . S
C482 C481 1.334 . S
C482 C483 1.287 . S
C483 C482 1.287 . S
C483 C484 1.524 . S
C483 H486 0.999 . S
C484 H454 0.950 . S
C484 C483 1.524 . S
C484 C485 1.415 . S
C485 H455 0.950 . S
C485 C480 1.363 . S
C485 C484 1.415 . S
H486 C483 0.999 . S
H487 C468 0.913 . S
H488 C506 0.951 . S
H489 C508 0.951 . S
H490 C510 0.950 . S
H491 C511 0.950 . S
H492 C513 0.950 . S
H493 C516 0.950 . S
H494 C517 0.950 . S
H495 C519 0.950 . S
H496 C520 0.950 . S
H497 C521 0.951 . S
H498 C523 0.951 . S
H499 C525 0.950 . S
H500 C526 0.950 . S
H501 C528 0.950 . S
H502 C531 0.950 . S
H503 C532 0.950 . S
H504 C534 0.950 . S
H505 C535 0.950 . S
C506 H488 0.951 . S
C506 C507 1.366 . S
C506 C508 1.388 . S
C507 C506 1.366 . S
C507 C511 1.385 . S
C508 H489 0.951 . S
C508 C506 1.388 . S
C508 C509 1.366 . S
C509 C508 1.366 . S
C509 C510 1.414 . S
C509 C512 1.499 . S
C510 H490 0.950 . S
C510 C509 1.414 . S
C510 C511 1.374 . S
C511 H491 0.950 . S
C511 C507 1.385 . S
C511 C510 1.374 . S
C512 C509 1.499 . S
C512 C513 1.373 . S
C512 C514 1.389 . S
C513 H492 0.950 . S
C513 C512 1.373 . S
C513 C529 1.377 . S
C514 C512 1.389 . S
C514 C515 1.524 . S
C514 C528 1.377 . S
C515 C514 1.524 . S
C515 C516 1.397 . S
C515 C520 1.363 . S
C516 H493 0.950 . S
C516 C515 1.397 . S
C516 C517 1.334 . S
C517 H494 0.950 . S
C517 C516 1.334 . S
C517 C518 1.287 . S
C518 C517 1.287 . S
C518 C519 1.524 . S
C518 H537 0.913 . S
C519 H495 0.950 . S
C519 C518 1.524 . S
C519 C520 1.415 . S
C520 H496 0.950 . S
C520 C515 1.363 . S
C520 C519 1.415 . S
C521 H497 0.951 . S
C521 C522 1.366 . S
C521 C523 1.388 . S
C522 C521 1.366 . S
C522 C526 1.385 . S
C523 H498 0.951 . S
C523 C521 1.388 . S
C523 C524 1.366 . S
C524 C523 1.366 . S
C524 C525 1.414 . S
C524 C527 1.499 . S
C525 H499 0.950 . S
C525 C524 1.414 . S
C525 C526 1.374 . S
C526 H500 0.950 . S
C526 C522 1.385 . S
C526 C525 1.374 . S
C527 C524 1.499 . S
C527 C528 1.373 . S
C527 C529 1.389 . S
C528 H501 0.950 . S
C528 C514 1.377 . S
C528 C527 1.373 . S
C529 C513 1.377 . S
C529 C527 1.389 . S
C529 C530 1.524 . S
C530 C529 1.524 . S
C530 C531 1.397 . S
C530 C535 1.363 . S
C531 H502 0.950 . S
C531 C530 1.397 . S
C531 C532 1.334 . S
C532 H503 0.950 . S
C532 C531 1.334 . S
C532 C533 1.287 . S
C533 C532 1.287 . S
C533 C534 1.524 . S
C533 H536 0.999 . S
C534 H504 0.950 . S
C534 C533 1.524 . S
C534 C535 1.415 . S
C535 H505 0.950 . S
C535 C530 1.363 . S
C535 C534 1.415 . S
H536 C533 0.999 . S
H537 C518 0.913 . S
H538 C556 0.951 . S
H539 C558 0.951 . S
H540 C560 0.950 . S
H541 C561 0.950 . S
H542 C563 0.950 . S
H543 C566 0.950 . S
H544 C567 0.950 . S
H545 C569 0.950 . S
H546 C570 0.950 . S
H547 C571 0.951 . S
H548 C573 0.951 . S
H549 C575 0.950 . S
H550 C576 0.950 . S
H551 C578 0.950 . S
H552 C581 0.950 . S
H553 C582 0.950 . S
H554 C584 0.950 . S
H555 C585 0.950 . S
C556 H538 0.951 . S
C556 C557 1.366 . S
C556 C558 1.388 . S
C557 C556 1.366 . S
C557 C561 1.385 . S
C558 H539 0.951 . S
C558 C556 1.388 . S
C558 C559 1.366 . S
C559 C558 1.366 . S
C559 C560 1.414 . S
C559 C562 1.499 . S
C560 H540 0.950 . S
C560 C559 1.414 . S
C560 C561 1.374 . S
C561 H541 0.950 . S
C561 C557 1.385 . S
C561 C560 1.374 . S
C562 C559 1.499 . S
C562 C563 1.373 . S
C562 C564 1.389 . S
C563 H542 0.950 . S
C563 C562 1.373 . S
C563 C579 1.377 . S
C564 C562 1.389 . S
C564 C565 1.524 . S
C564 C578 1.377 . S
C565 C564 1.524 . S
C565 C566 1.397 . S
C565 C570 1.363 . S
C566 H543 0.950 . S
C566 C565 1.397 . S
C566 C567 1.334 . S
C567 H544 0.950 . S
C567 C566 1.334 . S
C567 C568 1.287 . S
C568 C567 1.287 . S
C568 C569 1.524 . S
C568 H587 0.913 . S
C569 H545 0.950 . S
C569 C568 1.524 . S
C569 C570 1.415 . S
C570 H546 0.950 . S
C570 C565 1.363 . S
C570 C569 1.415 . S
C571 H547 0.951 . S
C571 C572 1.366 . S
C571 C573 1.388 . S
C572 C571 1.366 . S
C572 C576 1.385 . S
C573 H548 0.951 . S
C573 C571 1.388 . S
C573 C574 1.366 . S
C574 C573 1.366 . S
C574 C575 1.414 . S
C574 C577 1.499 . S
C575 H549 0.950 . S
C575 C574 1.414 . S
C575 C576 1.374 . S
C576 H550 0.950 . S
C576 C572 1.385 . S
C576 C575 1.374 . S
C577 C574 1.499 . S
C577 C578 1.373 . S
C577 C579 1.389 . S
C578 H551 0.950 . S
C578 C564 1.377 . S
C578 C577 1.373 . S
C579 C563 1.377 . S
C579 C577 1.389 . S
C579 C580 1.524 . S
C580 C579 1.524 . S
C580 C581 1.397 . S
C580 C585 1.363 . S
C581 H552 0.950 . S
C581 C580 1.397 . S
C581 C582 1.334 . S
C582 H553 0.950 . S
C582 C581 1.334 . S
C582 C583 1.287 . S
C583 C582 1.287 . S
C583 C584 1.524 . S
C583 H586 0.999 . S
C584 H554 0.950 . S
C584 C583 1.524 . S
C584 C585 1.415 . S
C585 H555 0.950 . S
C585 C580 1.363 . S
C585 C584 1.415 . S
H586 C583 0.999 . S
H587 C568 0.913 . S
H588 C606 0.951 . S
H589 C608 0.951 . S
H590 C610 0.950 . S
H591 C611 0.950 . S
H592 C613 0.950 . S
H593 C616 0.950 . S
H594 C617 0.950 . S
H595 C619 0.950 1_554 S
H596 C620 0.950 . S
H597 C621 0.951 . S
H598 C623 0.951 . S
H599 C625 0.950 . S
H600 C626 0.950 . S
H601 C628 0.950 . S
H602 C631 0.950 . S
H603 C632 0.950 . S
H604 C634 0.950 1_556 S
H605 C635 0.968 . S
C606 H588 0.951 . S
C606 C607 1.366 . S
C606 C608 1.388 . S
C607 C606 1.366 . S
C607 C611 1.385 . S
C608 H589 0.951 . S
C608 C606 1.388 . S
C608 C609 1.366 . S
C609 C608 1.366 . S
C609 C610 1.414 . S
C609 C612 1.499 . S
C610 H590 0.950 . S
C610 C609 1.414 . S
C610 C611 1.374 . S
C611 H591 0.950 . S
C611 C607 1.385 . S
C611 C610 1.374 . S
C612 C609 1.499 . S
C612 C613 1.373 . S
C612 C614 1.389 . S
C613 H592 0.950 . S
C613 C612 1.373 . S
C613 C629 1.377 1_556 S
C614 C612 1.389 . S
C614 C615 1.524 . S
C614 C628 1.377 1_556 S
C615 C614 1.524 . S
C615 C616 1.397 . S
C615 C620 1.363 1_556 S
C616 H593 0.950 . S
C616 C615 1.397 . S
C616 C617 1.334 . S
C617 H594 0.950 . S
C617 C616 1.334 . S
C617 C618 1.287 . S
C618 C617 1.287 . S
C618 C619 1.524 . S
C618 H637 0.913 . S
C619 H595 0.950 1_556 S
C619 C618 1.524 . S
C619 C620 1.415 1_556 S
C620 H596 0.950 . S
C620 C615 1.363 1_554 S
C620 C619 1.415 1_554 S
C621 H597 0.951 . S
C621 C622 1.366 . S
C621 C623 1.388 . S
C622 C621 1.366 . S
C622 C626 1.385 . S
C623 H598 0.951 . S
C623 C621 1.388 . S
C623 C624 1.366 . S
C624 C623 1.366 . S
C624 C625 1.414 . S
C624 C627 1.499 . S
C625 H599 0.950 . S
C625 C624 1.414 . S
C625 C626 1.374 . S
C626 H600 0.950 . S
C626 C622 1.385 . S
C626 C625 1.374 . S
C627 C624 1.499 . S
C627 C628 1.373 . S
C627 C629 1.389 . S
C628 H601 0.950 . S
C628 C614 1.377 1_554 S
C628 C627 1.373 . S
C629 C613 1.377 1_554 S
C629 C627 1.389 . S
C629 C630 1.524 . S
C630 C629 1.524 . S
C630 C631 1.397 . S
C630 C635 1.350 1_554 S
C631 H602 0.950 . S
C631 C630 1.397 . S
C631 C632 1.334 . S
C632 H603 0.950 . S
C632 C631 1.334 . S
C632 C633 1.287 . S
C633 C632 1.287 . S
C633 C634 1.524 . S
C633 H636 0.999 . S
C634 H604 0.950 1_554 S
C634 C633 1.524 . S
C634 C635 1.410 1_554 S
C635 H605 0.968 . S
C635 C630 1.350 1_556 S
C635 C634 1.410 1_556 S
H636 C633 0.999 . S
H637 C618 0.913 . S
H638 C656 0.951 . S
H639 C658 0.951 . S
H640 C660 0.950 . S
H641 C661 0.950 . S
H642 C663 0.950 . S
H643 C666 0.950 . S
H644 C667 0.950 . S
H645 C669 0.950 . S
H646 C670 0.950 . S
H647 C671 0.951 . S
H648 C673 0.951 . S
H649 C675 0.950 . S
H650 C676 0.950 . S
H651 C678 0.950 . S
H652 C681 0.950 . S
H653 C682 0.950 . S
H654 C684 0.950 . S
H655 C685 0.950 . S
C656 H638 0.951 . S
C656 C657 1.366 . S
C656 C658 1.388 . S
C657 C656 1.366 . S
C657 C661 1.385 . S
C658 H639 0.951 . S
C658 C656 1.388 . S
C658 C659 1.366 . S
C659 C658 1.366 . S
C659 C660 1.414 . S
C659 C662 1.499 . S
C660 H640 0.950 . S
C660 C659 1.414 . S
C660 C661 1.374 . S
C661 H641 0.950 . S
C661 C657 1.385 . S
C661 C660 1.374 . S
C662 C659 1.499 . S
C662 C663 1.373 . S
C662 C664 1.389 . S
C663 H642 0.950 . S
C663 C662 1.373 . S
C663 C679 1.377 . S
C664 C662 1.389 . S
C664 C665 1.524 . S
C664 C678 1.377 . S
C665 C664 1.524 . S
C665 C666 1.397 . S
C665 C670 1.363 . S
C666 H643 0.950 . S
C666 C665 1.397 . S
C666 C667 1.334 . S
C667 H644 0.950 . S
C667 C666 1.334 . S
C667 C668 1.287 . S
C668 C667 1.287 . S
C668 C669 1.524 . S
C668 H687 0.913 . S
C669 H645 0.950 . S
C669 C668 1.524 . S
C669 C670 1.415 . S
C670 H646 0.950 . S
C670 C665 1.363 . S
C670 C669 1.415 . S
C671 H647 0.951 . S
C671 C672 1.366 . S
C671 C673 1.388 . S
C672 C671 1.366 . S
C672 C676 1.385 . S
C673 H648 0.951 . S
C673 C671 1.388 . S
C673 C674 1.366 . S
C674 C673 1.366 . S
C674 C675 1.414 . S
C674 C677 1.499 . S
C675 H649 0.950 . S
C675 C674 1.414 . S
C675 C676 1.374 . S
C676 H650 0.950 . S
C676 C672 1.385 . S
C676 C675 1.374 . S
C677 C674 1.499 . S
C677 C678 1.373 . S
C677 C679 1.389 . S
C678 H651 0.950 . S
C678 C664 1.377 . S
C678 C677 1.373 . S
C679 C663 1.377 . S
C679 C677 1.389 . S
C679 C680 1.524 . S
C680 C679 1.524 . S
C680 C681 1.397 . S
C680 C685 1.363 . S
C681 H652 0.950 . S
C681 C680 1.397 . S
C681 C682 1.334 . S
C682 H653 0.950 . S
C682 C681 1.334 . S
C682 C683 1.287 . S
C683 C682 1.287 . S
C683 C684 1.524 . S
C683 H686 0.999 . S
C684 H654 0.950 . S
C684 C683 1.524 . S
C684 C685 1.415 . S
C685 H655 0.950 . S
C685 C680 1.363 . S
C685 C684 1.415 . S
H686 C683 0.999 . S
H687 C668 0.913 . S
H688 C706 0.951 . S
H689 C708 0.951 . S
H690 C710 0.950 . S
H691 C711 0.950 . S
H692 C713 0.950 . S
H693 C716 0.950 . S
H694 C717 0.950 . S
H695 C719 0.950 . S
H696 C720 0.950 . S
H697 C721 0.951 . S
H698 C723 0.951 . S
H699 C725 0.950 . S
H700 C726 0.950 . S
H701 C728 0.950 . S
H702 C731 0.950 . S
H703 C732 0.950 . S
H704 C734 0.950 . S
H705 C735 0.950 . S
C706 H688 0.951 . S
C706 C707 1.366 . S
C706 C708 1.388 . S
C707 C706 1.366 . S
C707 C711 1.385 . S
C708 H689 0.951 . S
C708 C706 1.388 . S
C708 C709 1.366 . S
C709 C708 1.366 . S
C709 C710 1.414 . S
C709 C712 1.499 . S
C710 H690 0.950 . S
C710 C709 1.414 . S
C710 C711 1.374 . S
C711 H691 0.950 . S
C711 C707 1.385 . S
C711 C710 1.374 . S
C712 C709 1.499 . S
C712 C713 1.373 . S
C712 C714 1.389 . S
C713 H692 0.950 . S
C713 C712 1.373 . S
C713 C729 1.377 . S
C714 C712 1.389 . S
C714 C715 1.524 . S
C714 C728 1.377 . S
C715 C714 1.524 . S
C715 C716 1.397 . S
C715 C720 1.363 . S
C716 H693 0.950 . S
C716 C715 1.397 . S
C716 C717 1.334 . S
C717 H694 0.950 . S
C717 C716 1.334 . S
C717 C718 1.287 . S
C718 C717 1.287 . S
C718 C719 1.524 . S
C718 H737 0.913 . S
C719 H695 0.950 . S
C719 C718 1.524 . S
C719 C720 1.415 . S
C720 H696 0.950 . S
C720 C715 1.363 . S
C720 C719 1.415 . S
C721 H697 0.951 . S
C721 C722 1.366 . S
C721 C723 1.388 . S
C722 C721 1.366 . S
C722 C726 1.385 . S
C723 H698 0.951 . S
C723 C721 1.388 . S
C723 C724 1.366 . S
C724 C723 1.366 . S
C724 C725 1.414 . S
C724 C727 1.499 . S
C725 H699 0.950 . S
C725 C724 1.414 . S
C725 C726 1.374 . S
C726 H700 0.950 . S
C726 C722 1.385 . S
C726 C725 1.374 . S
C727 C724 1.499 . S
C727 C728 1.373 . S
C727 C729 1.389 . S
C728 H701 0.950 . S
C728 C714 1.377 . S
C728 C727 1.373 . S
C729 C713 1.377 . S
C729 C727 1.389 . S
C729 C730 1.524 . S
C730 C729 1.524 . S
C730 C731 1.397 . S
C730 C735 1.363 . S
C731 H702 0.950 . S
C731 C730 1.397 . S
C731 C732 1.334 . S
C732 H703 0.950 . S
C732 C731 1.334 . S
C732 C733 1.287 . S
C733 C732 1.287 . S
C733 C734 1.524 . S
C733 H736 0.999 . S
C734 H704 0.950 . S
C734 C733 1.524 . S
C734 C735 1.415 . S
C735 H705 0.950 . S
C735 C730 1.363 . S
C735 C734 1.415 . S
H736 C733 0.999 . S
H737 C718 0.913 . S
C157 N12 1.477 . S
C172 N81 1.477 . S
C207 C39 1.688 . S
C222 C108 1.688 . S
C257 N58 1.352 . S
C272 N127 1.353 . S
C307 C30 1.777 . S
C322 C99 1.777 . S
C357 N117 1.498 . S
C372 N48 1.498 . S
C407 N71 1.379 . S
C422 N2 1.380 . S
C457 C62 1.917 . S
C472 C7 1.963 . S
C507 C85 1.953 . S
C522 N25 1.877 . S
C557 C53 2.000 . S
C572 N104 1.978 . S
C607 C131 1.917 . S
C622 C76 1.964 . S
C657 N94 1.877 . S
C672 C16 1.954 . S
C707 C122 2.000 . S
C722 N35 1.978 . S
