# Generated by pormake.
# Topology umo, (4)-cn, num edge types: 1
# Building blocks:
#     Node 0, Type 0, BuildingBlock: QUQFOY_clean_sbu_1, # of connection points: 4
#     Node 1, Type 0, BuildingBlock: QUQFOY_clean_sbu_1, # of connection points: 4
#     Node 2, Type 0, BuildingBlock: QUQFOY_clean_sbu_1, # of connection points: 4
#     Node 3, Type 0, BuildingBlock: QUQFOY_clean_sbu_1, # of connection points: 4
#     Node 4, Type 0, BuildingBlock: QUQFOY_clean_sbu_1, # of connection points: 4
#     Node 5, Type 0, BuildingBlock: QUQFOY_clean_sbu_1, # of connection points: 4
#     Node 6, Type 0, BuildingBlock: QUQFOY_clean_sbu_1, # of connection points: 4
#     Node 7, Type 0, BuildingBlock: QUQFOY_clean_sbu_1, # of connection points: 4
#     Node 8, Type 0, BuildingBlock: QUQFOY_clean_sbu_1, # of connection points: 4
#     Node 9, Type 0, BuildingBlock: QUQFOY_clean_sbu_1, # of connection points: 4
#     Node 10, Type 0, BuildingBlock: QUQFOY_clean_sbu_1, # of connection points: 4
#     Node 11, Type 0, BuildingBlock: QUQFOY_clean_sbu_1, # of connection points: 4
#     Edge 12, Type (0, 0), BuildingBlock: ZUJKAS_clean_linker_0, # of connection points: 2
#     Edge 13, Type (0, 0), BuildingBlock: ZUJKAS_clean_linker_0, # of connection points: 2
#     Edge 14, Type (0, 0), BuildingBlock: ZUJKAS_clean_linker_0, # of connection points: 2
#     Edge 15, Type (0, 0), BuildingBlock: ZUJKAS_clean_linker_0, # of connection points: 2
#     Edge 16, Type (0, 0), BuildingBlock: ZUJKAS_clean_linker_0, # of connection points: 2
#     Edge 17, Type (0, 0), BuildingBlock: ZUJKAS_clean_linker_0, # of connection points: 2
#     Edge 18, Type (0, 0), BuildingBlock: ZUJKAS_clean_linker_0, # of connection points: 2
#     Edge 19, Type (0, 0), BuildingBlock: ZUJKAS_clean_linker_0, # of connection points: 2
#     Edge 20, Type (0, 0), BuildingBlock: ZUJKAS_clean_linker_0, # of connection points: 2
#     Edge 21, Type (0, 0), BuildingBlock: ZUJKAS_clean_linker_0, # of connection points: 2
#     Edge 22, Type (0, 0), BuildingBlock: ZUJKAS_clean_linker_0, # of connection points: 2
#     Edge 23, Type (0, 0), BuildingBlock: ZUJKAS_clean_linker_0, # of connection points: 2
#     Edge 24, Type (0, 0), BuildingBlock: ZUJKAS_clean_linker_0, # of connection points: 2
#     Edge 25, Type (0, 0), BuildingBlock: ZUJKAS_clean_linker_0, # of connection points: 2
#     Edge 26, Type (0, 0), BuildingBlock: ZUJKAS_clean_linker_0, # of connection points: 2
#     Edge 27, Type (0, 0), BuildingBlock: ZUJKAS_clean_linker_0, # of connection points: 2
#     Edge 28, Type (0, 0), BuildingBlock: ZUJKAS_clean_linker_0, # of connection points: 2
#     Edge 29, Type (0, 0), BuildingBlock: ZUJKAS_clean_linker_0, # of connection points: 2
#     Edge 30, Type (0, 0), BuildingBlock: ZUJKAS_clean_linker_0, # of connection points: 2
#     Edge 31, Type (0, 0), BuildingBlock: ZUJKAS_clean_linker_0, # of connection points: 2
#     Edge 32, Type (0, 0), BuildingBlock: ZUJKAS_clean_linker_0, # of connection points: 2
#     Edge 33, Type (0, 0), BuildingBlock: ZUJKAS_clean_linker_0, # of connection points: 2
#     Edge 34, Type (0, 0), BuildingBlock: ZUJKAS_clean_linker_0, # of connection points: 2
#     Edge 35, Type (0, 0), BuildingBlock: ZUJKAS_clean_linker_0, # of connection points: 2
# Relax obj value: 0.084
# Max RMSD: 0.133
# Mean RMSD: 0.133
data_MOF--net-umo--node1-QUQFOY_clean_sbu_1--edge1-ZUJKAS_clean_linker_0
_symmetry_space_group_name_H-M    P1
_symmetry_Int_Tables_number       1
_symmetry_cell_setting            triclinic
loop_
_symmetry_equiv_pos_as_xyz
'x, y, z'
_cell_length_a     67.393184
_cell_length_b     67.364836
_cell_length_c     49.417888
_cell_angle_alpha  90.015149
_cell_angle_beta   89.943596
_cell_angle_gamma 120.00004
loop_
_atom_site_label
_atom_site_type_symbol
_atom_site_fract_x
_atom_site_fract_y
_atom_site_fract_z
_atom_type_partial_charge
O0 O 0.15669 0.56995 0.43294 0.0
Cd1 Cd 0.15375 0.57266 0.39209 0.0
Cd2 Cd 0.19464 0.57316 0.39403 0.0
O3 O 0.18752 0.56649 0.43527 0.0
O4 O 0.12162 0.56598 0.38859 0.0
O5 O 0.13404 0.54469 0.36923 0.0
C6 C 0.11734 0.54836 0.3742 0.0
C7 C 0.21035 0.55617 0.36638 0.0
C8 C 0.17121 0.56763 0.44688 0.0
C9 C 0.19422 0.61644 0.37709 0.0
O10 O 0.20549 0.60654 0.38293 0.0
O11 O 0.17252 0.6057 0.37815 0.0
O12 O 0.22216 0.57051 0.38517 0.0
O13 O 0.18889 0.55 0.36455 0.0
O14 O 0.59714 0.15874 0.60778 0.0
Cd15 Cd 0.58611 0.15448 0.5684 0.0
Cd16 Cd 0.62596 0.19581 0.56345 0.0
O17 O 0.62947 0.19177 0.60444 0.0
O18 O 0.56062 0.12216 0.56821 0.0
O19 O 0.59156 0.13423 0.54288 0.0
C20 C 0.57208 0.11756 0.55098 0.0
C21 C 0.65707 0.21054 0.53339 0.0
C22 C 0.61481 0.17512 0.61869 0.0
C23 C 0.5808 0.19444 0.55412 0.0
O24 O 0.60254 0.20597 0.55489 0.0
O25 O 0.57032 0.17293 0.55808 0.0
O26 O 0.65514 0.22315 0.55161 0.0
O27 O 0.64188 0.18899 0.53308 0.0
O28 O 0.42968 0.58797 0.76056 0.0
Cd29 Cd 0.42813 0.58566 0.71918 0.0
Cd30 Cd 0.43353 0.62739 0.72583 0.0
O31 O 0.44157 0.62472 0.76588 0.0
O32 O 0.43115 0.5582 0.71209 0.0
O33 O 0.4565 0.59281 0.69769 0.0
C34 C 0.45019 0.57136 0.69991 0.0
C35 C 0.45342 0.65872 0.69682 0.0
C36 C 0.43592 0.60519 0.77596 0.0
C37 C 0.38707 0.58889 0.70864 0.0
O38 O 0.39894 0.60907 0.71803 0.0
O39 O 0.3962 0.57663 0.70437 0.0
O40 O 0.44265 0.65994 0.7178 0.0
O41 O 0.45439 0.64019 0.69344 0.0
O42 O 0.84192 0.43684 0.93587 0.0
Cd43 Cd 0.84546 0.43024 0.89614 0.0
Cd44 Cd 0.80448 0.42979 0.89279 0.0
O45 O 0.8098 0.438 0.93359 0.0
O46 O 0.87734 0.43568 0.89562 0.0
O47 O 0.86659 0.45604 0.87113 0.0
C48 C 0.8827 0.45227 0.87895 0.0
C49 C 0.79181 0.44772 0.86228 0.0
C50 C 0.82627 0.43908 0.94733 0.0
C51 C 0.80414 0.38535 0.88272 0.0
O52 O 0.79287 0.39579 0.88478 0.0
O53 O 0.82581 0.39617 0.88531 0.0
O54 O 0.77872 0.43449 0.88122 0.0
O55 O 0.81268 0.45177 0.86142 0.0
O56 O 0.41674 0.8434 0.09474 0.0
Cd57 Cd 0.41936 0.84469 0.05339 0.0
Cd58 Cd 0.37811 0.80716 0.05978 0.0
O59 O 0.38043 0.81715 0.10014 0.0
O60 O 0.44652 0.87563 0.04754 0.0
O61 O 0.41216 0.86592 0.03196 0.0
C62 C 0.4334 0.8814 0.03509 0.0
C63 C 0.34699 0.79628 0.03065 0.0
C64 C 0.39973 0.83169 0.11017 0.0
C65 C 0.41764 0.80112 0.04158 0.0
O66 O 0.39735 0.79198 0.05085 0.0
O67 O 0.42938 0.82267 0.03809 0.0
O68 O 0.34582 0.78358 0.05083 0.0
O69 O 0.36535 0.81608 0.02818 0.0
O70 O 0.5647 0.40796 0.27155 0.0
Cd71 Cd 0.57265 0.41679 0.23169 0.0
Cd72 Cd 0.57068 0.37509 0.23221 0.0
O73 O 0.56025 0.37324 0.27209 0.0
O74 O 0.56904 0.44429 0.23005 0.0
O75 O 0.54836 0.41354 0.20508 0.0
C76 C 0.55288 0.43371 0.2127 0.0
C77 C 0.55318 0.34455 0.20165 0.0
C78 C 0.5603 0.38987 0.28435 0.0
C79 C 0.61667 0.41764 0.22231 0.0
O80 O 0.6053 0.39612 0.22625 0.0
O81 O 0.60667 0.4294 0.22208 0.0
O82 O 0.56462 0.34384 0.22215 0.0
O83 O 0.5506 0.36224 0.19919 0.0
O84 O 0.43979 0.84638 0.40907 0.0
Cd85 Cd 0.43398 0.84694 0.44962 0.0
Cd86 Cd 0.43615 0.80793 0.44715 0.0
O87 O 0.44573 0.81707 0.40688 0.0
O88 O 0.43845 0.87823 0.45425 0.0
O89 O 0.46005 0.86682 0.47489 0.0
C90 C 0.45555 0.88297 0.46981 0.0
C91 C 0.45441 0.79582 0.47786 0.0
C92 C 0.44426 0.83318 0.39529 0.0
C93 C 0.39032 0.80409 0.45919 0.0
O94 O 0.40156 0.79399 0.45408 0.0
O95 O 0.40028 0.82581 0.46019 0.0
O96 O 0.443 0.78328 0.45754 0.0
O97 O 0.45674 0.81603 0.47977 0.0
O98 O 0.58829 0.4334 0.57913 0.0
Cd99 Cd 0.58252 0.42825 0.61997 0.0
Cd100 Cd 0.62436 0.43189 0.61709 0.0
O101 O 0.62417 0.44121 0.57712 0.0
O102 O 0.55516 0.43176 0.62517 0.0
O103 O 0.58866 0.45513 0.64383 0.0
C104 C 0.56765 0.44973 0.63949 0.0
C105 C 0.65567 0.45075 0.64633 0.0
C106 C 0.60626 0.43879 0.56547 0.0
C107 C 0.58365 0.38553 0.63033 0.0
O108 O 0.60473 0.39725 0.62404 0.0
O109 O 0.57149 0.39504 0.63216 0.0
O110 O 0.6563 0.43934 0.62572 0.0
O111 O 0.63764 0.45264 0.64952 0.0
O112 O 0.1581 0.5917 0.7477 0.0
Cd113 Cd 0.15692 0.58748 0.78886 0.0
Cd114 Cd 0.19455 0.6294 0.78387 0.0
O115 O 0.1845 0.62812 0.74373 0.0
O116 O 0.12612 0.55989 0.7938 0.0
O117 O 0.13551 0.59345 0.81175 0.0
C118 C 0.12018 0.5723 0.80755 0.0
C119 C 0.20719 0.6607 0.81329 0.0
C120 C 0.16988 0.60919 0.73297 0.0
C121 C 0.20068 0.58921 0.7991 0.0
O122 O 0.20965 0.60987 0.79111 0.0
O123 O 0.17915 0.57712 0.80242 0.0
O124 O 0.219 0.66148 0.79234 0.0
O125 O 0.18728 0.64266 0.81652 0.0
O126 O 0.56396 0.1594 0.90768 0.0
Cd127 Cd 0.57126 0.1561 0.94717 0.0
Cd128 Cd 0.57175 0.19703 0.9508 0.0
O129 O 0.56287 0.19155 0.91022 0.0
O130 O 0.56591 0.12423 0.94742 0.0
O131 O 0.54598 0.13498 0.97278 0.0
C132 C 0.54962 0.11887 0.96457 0.0
C133 C 0.55411 0.20945 0.98205 0.0
C134 C 0.56154 0.17499 0.8964 0.0
C135 C 0.61637 0.19754 0.95957 0.0
O136 O 0.60589 0.2088 0.95791 0.0
O137 O 0.60551 0.17585 0.95715 0.0
O138 O 0.5669 0.22259 0.96287 0.0
O139 O 0.55036 0.18867 0.98278 0.0
O140 O 0.40904 0.56676 0.07489 0.0
Cd141 Cd 0.41762 0.57243 0.11499 0.0
Cd142 Cd 0.37655 0.57274 0.11397 0.0
O143 O 0.37491 0.56368 0.07335 0.0
O144 O 0.44454 0.5678 0.11439 0.0
O145 O 0.41421 0.54692 0.13986 0.0
C146 C 0.43401 0.55116 0.13116 0.0
C147 C 0.34529 0.55672 0.14387 0.0
C148 C 0.39172 0.56376 0.06143 0.0
C149 C 0.42098 0.61712 0.12609 0.0
O150 O 0.39953 0.60675 0.12168 0.0
O151 O 0.43188 0.60626 0.12604 0.0
O152 O 0.34672 0.57017 0.12448 0.0
O153 O 0.36096 0.55103 0.1453 0.0
O154 O 0.84193 0.40218 0.23613 0.0
Cd155 Cd 0.84634 0.41286 0.27569 0.0
Cd156 Cd 0.80464 0.37333 0.28032 0.0
O157 O 0.80858 0.37017 0.23919 0.0
O158 O 0.87869 0.43819 0.27594 0.0
O159 O 0.86649 0.40709 0.301 0.0
C160 C 0.88319 0.42662 0.2931 0.0
C161 C 0.7895 0.34193 0.30994 0.0
C162 C 0.82536 0.38477 0.22505 0.0
C163 C 0.80691 0.41878 0.29089 0.0
O164 O 0.79506 0.39706 0.2897 0.0
O165 O 0.82837 0.42898 0.28672 0.0
O166 O 0.77705 0.34425 0.29188 0.0
O167 O 0.81113 0.35684 0.31027 0.0
H168 H 0.18966 0.64518 0.41072 0.0
H169 H 0.21948 0.68418 0.42068 0.0
H170 H 0.25739 0.68354 0.35045 0.0
H171 H 0.22841 0.6435 0.34221 0.0
H172 H 0.28233 0.69169 0.3897 0.0
H173 H 0.24709 0.749 0.40341 0.0
H174 H 0.23057 0.72398 0.42361 0.0
H175 H 0.23076 0.72143 0.38723 0.0
C176 C 0.20387 0.65377 0.39673 0.0
C177 C 0.20686 0.64152 0.37571 0.0
C178 C 0.22094 0.67623 0.40234 0.0
C179 C 0.24084 0.68704 0.38635 0.0
C180 C 0.24232 0.67558 0.36326 0.0
H181 H 0.36211 0.81526 0.43267 0.0
H182 H 0.3237 0.78797 0.4163 0.0
C183 C 0.22571 0.65279 0.35834 0.0
C184 C 0.26174 0.7075 0.39692 0.0
H185 H 0.28083 0.75796 0.43111 0.0
C186 C 0.28197 0.70637 0.39813 0.0
C187 C 0.26164 0.72688 0.40796 0.0
C188 C 0.24136 0.73045 0.40517 0.0
C189 C 0.30171 0.72349 0.4107 0.0
C190 C 0.30094 0.74171 0.42397 0.0
C191 C 0.28113 0.74353 0.42181 0.0
C192 C 0.32103 0.75932 0.43914 0.0
C193 C 0.32327 0.72186 0.40922 0.0
C194 C 0.33148 0.75269 0.45901 0.0
C195 C 0.35365 0.76807 0.46779 0.0
C196 C 0.3652 0.79054 0.45774 0.0
C197 C 0.35348 0.79802 0.44082 0.0
C198 C 0.33156 0.78241 0.43136 0.0
H199 H 0.32295 0.71146 0.39159 0.0
H200 H 0.33879 0.73908 0.40758 0.0
H201 H 0.32466 0.71335 0.42775 0.0
H202 H 0.32326 0.73512 0.46603 0.0
H203 H 0.36234 0.76199 0.48096 0.0
H204 H 0.59621 0.2381 0.53691 0.0
H205 H 0.58086 0.2626 0.55008 0.0
H206 H 0.52158 0.20445 0.58483 0.0
H207 H 0.53706 0.17969 0.57202 0.0
H208 H 0.54019 0.26474 0.54522 0.0
H209 H 0.5553 0.24528 0.65043 0.0
H210 H 0.56548 0.23683 0.62134 0.0
H211 H 0.53552 0.22179 0.6296 0.0
C212 C 0.57956 0.23033 0.5466 0.0
C213 C 0.56809 0.20706 0.55394 0.0
C214 C 0.57077 0.24437 0.55409 0.0
C215 C 0.55039 0.23543 0.56905 0.0
C216 C 0.53757 0.21173 0.57374 0.0
H217 H 0.53817 0.35362 0.62401 0.0
H218 H 0.52239 0.3129 0.61334 0.0
C219 C 0.54636 0.19758 0.56618 0.0
C220 C 0.54494 0.25165 0.58284 0.0
H221 H 0.5514 0.27745 0.64425 0.0
C222 C 0.54189 0.26718 0.56697 0.0
C223 C 0.54738 0.2548 0.61124 0.0
C224 C 0.55121 0.23893 0.62927 0.0
C225 C 0.54304 0.28679 0.57844 0.0
C226 C 0.54704 0.29073 0.60657 0.0
C227 C 0.54822 0.27425 0.62274 0.0
C228 C 0.55463 0.31361 0.61837 0.0
C229 C 0.54201 0.30415 0.56006 0.0
C230 C 0.57758 0.32703 0.62631 0.0
C231 C 0.58659 0.35015 0.63249 0.0
C232 C 0.57277 0.36027 0.63094 0.0
C233 C 0.54925 0.34631 0.62537 0.0
C234 C 0.54025 0.3231 0.61904 0.0
H235 H 0.54104 0.29946 0.53835 0.0
H236 H 0.52666 0.30546 0.56509 0.0
H237 H 0.55735 0.32132 0.56308 0.0
H238 H 0.58894 0.31999 0.62605 0.0
H239 H 0.60472 0.36039 0.63692 0.0
H240 H 0.24676 0.61006 0.80626 0.0
H241 H 0.27142 0.59514 0.79183 0.0
H242 H 0.21201 0.52929 0.77568 0.0
H243 H 0.18707 0.54411 0.79025 0.0
H244 H 0.27577 0.55413 0.80332 0.0
H245 H 0.24351 0.55725 0.70033 0.0
H246 H 0.23924 0.57152 0.72876 0.0
H247 H 0.22324 0.54086 0.72647 0.0
C248 C 0.23894 0.59217 0.80058 0.0
C249 C 0.21502 0.57835 0.79904 0.0
C250 C 0.25305 0.58366 0.79233 0.0
C251 C 0.24346 0.56128 0.78225 0.0
C252 C 0.21965 0.54669 0.7832 0.0
H253 H 0.35481 0.54372 0.71506 0.0
H254 H 0.31495 0.52909 0.72903 0.0
C255 C 0.20547 0.55515 0.79172 0.0
C256 C 0.25842 0.55493 0.76722 0.0
H257 H 0.27745 0.55586 0.70291 0.0
C258 C 0.27577 0.55369 0.78138 0.0
C259 C 0.25836 0.5546 0.73858 0.0
C260 C 0.24019 0.55619 0.72246 0.0
C261 C 0.29403 0.55379 0.76761 0.0
C262 C 0.29481 0.55512 0.73901 0.0
C263 C 0.27661 0.55467 0.72481 0.0
C264 C 0.3163 0.56165 0.72429 0.0
C265 C 0.31337 0.55449 0.78377 0.0
C266 C 0.32962 0.58438 0.71545 0.0
C267 C 0.3523 0.59278 0.70756 0.0
C268 C 0.36194 0.57851 0.70821 0.0
C269 C 0.34781 0.5551 0.71427 0.0
C270 C 0.3251 0.54674 0.72245 0.0
H271 H 0.31073 0.55474 0.80594 0.0
H272 H 0.31487 0.5392 0.77893 0.0
H273 H 0.32985 0.56993 0.77827 0.0
H274 H 0.32305 0.59611 0.71666 0.0
H275 H 0.36276 0.61085 0.70287 0.0
H276 H 0.819 0.35604 0.8986 0.0
H277 H 0.79469 0.31536 0.9096 0.0
H278 H 0.73591 0.31711 0.87813 0.0
H279 H 0.75997 0.35749 0.867 0.0
H280 H 0.76089 0.30291 0.94712 0.0
H281 H 0.72283 0.25447 0.85337 0.0
H282 H 0.74872 0.28216 0.8533 0.0
H283 H 0.721 0.28011 0.85376 0.0
C284 C 0.80107 0.34751 0.89302 0.0
C285 C 0.79134 0.36001 0.88214 0.0
C286 C 0.78719 0.32428 0.89944 0.0
C287 C 0.76351 0.31315 0.89457 0.0
C288 C 0.75419 0.32517 0.8816 0.0
H289 H 0.64447 0.24177 0.97499 0.0
H290 H 0.68473 0.26574 0.96328 0.0
C291 C 0.76796 0.34835 0.8754 0.0
C292 C 0.74782 0.29062 0.90705 0.0
H293 H 0.69832 0.2409 0.89378 0.0
C294 C 0.74761 0.28898 0.93541 0.0
C295 C 0.73072 0.27226 0.89187 0.0
C296 C 0.73099 0.27225 0.86136 0.0
C297 C 0.7294 0.27063 0.94901 0.0
C298 C 0.71089 0.2537 0.93385 0.0
C299 C 0.71236 0.25406 0.90547 0.0
C300 C 0.68841 0.23806 0.94647 0.0
C301 C 0.72957 0.27019 0.97951 0.0
C302 C 0.67717 0.21438 0.94155 0.0
C303 C 0.65402 0.20055 0.94831 0.0
C304 C 0.6417 0.21033 0.9596 0.0
C305 C 0.65347 0.23373 0.9663 0.0
C306 C 0.67658 0.24745 0.95976 0.0
H307 H 0.74738 0.27825 0.98735 0.0
H308 H 0.72181 0.28019 0.9874 0.0
H309 H 0.71965 0.25242 0.98743 0.0
H310 H 0.68596 0.20683 0.93114 0.0
H311 H 0.64539 0.1826 0.94274 0.0
H312 H 0.46303 0.81524 0.0479 0.0
H313 H 0.47906 0.79067 0.05906 0.0
H314 H 0.41322 0.73075 0.04449 0.0
H315 H 0.39707 0.75509 0.03364 0.0
H316 H 0.45952 0.76078 0.10412 0.0
H317 H 0.45884 0.71278 0.01305 0.0
H318 H 0.45954 0.73994 0.01121 0.0
H319 H 0.43285 0.71379 0.01662 0.0
C320 C 0.45222 0.79684 0.04599 0.0
C321 C 0.42875 0.78704 0.04006 0.0
C322 C 0.4614 0.78285 0.05251 0.0
C323 C 0.44735 0.75893 0.0525 0.0
C324 C 0.42445 0.74917 0.04421 0.0
H325 H 0.40504 0.64539 0.1413 0.0
H326 H 0.42065 0.68514 0.12728 0.0
C327 C 0.4152 0.7631 0.03811 0.0
C328 C 0.45497 0.74412 0.06551 0.0
H329 H 0.45352 0.69333 0.05618 0.0
C330 C 0.45897 0.74641 0.09353 0.0
C331 C 0.45449 0.72557 0.05165 0.0
C332 C 0.45143 0.72297 0.0214 0.0
C333 C 0.46017 0.72932 0.10844 0.0
C334 C 0.45723 0.70956 0.09493 0.0
C335 C 0.45561 0.70845 0.06657 0.0
C336 C 0.45154 0.68829 0.10973 0.0
C337 C 0.46319 0.7319 0.1387 0.0
C338 C 0.46416 0.67715 0.10545 0.0
C339 C 0.45533 0.65441 0.11374 0.0
C340 C 0.43352 0.6424 0.12579 0.0
C341 C 0.42188 0.65423 0.13207 0.0
C342 C 0.43085 0.677 0.12416 0.0
H343 H 0.47278 0.75026 0.14464 0.0
H344 H 0.44608 0.72399 0.14849 0.0
H345 H 0.47238 0.72324 0.14648 0.0
H346 H 0.48007 0.68554 0.09416 0.0
H347 H 0.4646 0.64566 0.10843 0.0
H348 H 0.76344 0.40364 0.30852 0.0
H349 H 0.73965 0.42026 0.29751 0.0
H350 H 0.79846 0.48005 0.26461 0.0
H351 H 0.82249 0.46325 0.27518 0.0
H352 H 0.73842 0.46092 0.30552 0.0
H353 H 0.75741 0.45002 0.19836 0.0
H354 H 0.76574 0.43841 0.22611 0.0
H355 H 0.78094 0.46873 0.21982 0.0
C356 C 0.7715 0.42062 0.29966 0.0
C357 C 0.79472 0.4319 0.29217 0.0
C358 C 0.75788 0.43015 0.29343 0.0
C359 C 0.76719 0.45111 0.27961 0.0
C360 C 0.79089 0.46364 0.27481 0.0
H361 H 0.64757 0.46312 0.23124 0.0
H362 H 0.68849 0.47966 0.24126 0.0
C363 C 0.80461 0.45408 0.28108 0.0
C364 C 0.75126 0.45751 0.267 0.0
H365 H 0.72508 0.45322 0.20642 0.0
C366 C 0.73586 0.46002 0.28379 0.0
C367 C 0.74799 0.4562 0.2386 0.0
C368 C 0.76376 0.4531 0.21955 0.0
C369 C 0.71612 0.45914 0.27319 0.0
C370 C 0.71196 0.45602 0.245 0.0
C371 C 0.72843 0.45567 0.22798 0.0
C372 C 0.68884 0.44819 0.23385 0.0
C373 C 0.69884 0.45937 0.29245 0.0
C374 C 0.67592 0.42546 0.22485 0.0
C375 C 0.65271 0.41602 0.21904 0.0
C376 C 0.64196 0.42917 0.22204 0.0
C377 C 0.65536 0.45253 0.2288 0.0
C378 C 0.67868 0.46198 0.23473 0.0
H379 H 0.70381 0.45985 0.31397 0.0
H380 H 0.69718 0.47468 0.28845 0.0
H381 H 0.68176 0.44393 0.28932 0.0
H382 H 0.68348 0.41456 0.22392 0.0
H383 H 0.64293 0.39805 0.21363 0.0
H384 H 0.14755 0.56889 0.7057 0.0
H385 H 0.14898 0.56206 0.65787 0.0
H386 H 0.1898 0.63489 0.64381 0.0
H387 H 0.18957 0.64189 0.69259 0.0
H388 H 0.13392 0.57133 0.616 0.0
H389 H 0.22829 0.61465 0.60508 0.0
H390 H 0.21449 0.61001 0.63758 0.0
H391 H 0.21869 0.63368 0.61662 0.0
C392 C 0.1568 0.5836 0.69257 0.0
C393 C 0.16855 0.606 0.70314 0.0
C394 C 0.15763 0.57961 0.66506 0.0
C395 C 0.1699 0.59787 0.64711 0.0
C396 C 0.18083 0.62042 0.6573 0.0
H397 H 0.14547 0.58092 0.47549 0.0
H398 H 0.1459 0.58757 0.52364 0.0
C399 C 0.18041 0.62444 0.68515 0.0
C400 C 0.17064 0.59285 0.61784 0.0
H401 H 0.20653 0.60205 0.5644 0.0
C402 C 0.14987 0.578 0.60484 0.0
C403 C 0.19142 0.60104 0.60326 0.0
C404 C 0.21449 0.61552 0.61641 0.0
C405 C 0.14922 0.57125 0.57786 0.0
C406 C 0.16984 0.5805 0.5628 0.0
C407 C 0.19069 0.59511 0.57581 0.0
C408 C 0.16991 0.57615 0.53326 0.0
C409 C 0.12638 0.55381 0.56608 0.0
C410 C 0.18398 0.56828 0.52217 0.0
C411 C 0.18421 0.56489 0.49413 0.0
C412 C 0.17022 0.56918 0.4768 0.0
C413 C 0.15615 0.57696 0.48813 0.0
C414 C 0.15627 0.58071 0.51585 0.0
H415 H 0.11457 0.54245 0.58209 0.0
H416 H 0.11821 0.56285 0.55655 0.0
H417 H 0.1283 0.54296 0.55058 0.0
H418 H 0.19483 0.56483 0.53517 0.0
H419 H 0.19541 0.55913 0.48604 0.0
H420 H 0.63627 0.2134 0.6505 0.0
H421 H 0.62942 0.21573 0.69886 0.0
H422 H 0.58763 0.14212 0.70239 0.0
H423 H 0.59425 0.13963 0.65423 0.0
H424 H 0.58223 0.19703 0.71877 0.0
H425 H 0.62919 0.15996 0.77096 0.0
H426 H 0.63657 0.17202 0.73732 0.0
H427 H 0.61239 0.14385 0.74236 0.0
C428 C 0.62627 0.19767 0.66179 0.0
C429 C 0.61578 0.17632 0.64857 0.0
C430 C 0.62222 0.19905 0.68934 0.0
C431 C 0.60803 0.1791 0.70412 0.0
C432 C 0.59881 0.1577 0.69138 0.0
H433 H 0.54774 0.13911 0.86166 0.0
H434 H 0.55726 0.14128 0.81367 0.0
C435 C 0.60262 0.15631 0.66386 0.0
C436 C 0.60084 0.18052 0.73203 0.0
H437 H 0.60128 0.16336 0.79679 0.0
C438 C 0.58657 0.18993 0.73596 0.0
C439 C 0.6064 0.17106 0.75423 0.0
C440 C 0.62213 0.1613 0.75118 0.0
C441 C 0.57703 0.18939 0.76145 0.0
C442 C 0.58232 0.17959 0.78363 0.0
C443 C 0.59705 0.17068 0.77973 0.0
C444 C 0.57282 0.17816 0.81114 0.0
C445 C 0.56074 0.19852 0.76413 0.0
C446 C 0.57746 0.19807 0.8254 0.0
C447 C 0.57165 0.19682 0.85281 0.0
C448 C 0.56152 0.17568 0.86648 0.0
C449 C 0.55556 0.15564 0.85169 0.0
C450 C 0.56112 0.15687 0.8243 0.0
H451 H 0.55357 0.1994 0.74422 0.0
H452 H 0.54635 0.18769 0.77799 0.0
H453 H 0.5701 0.21612 0.77259 0.0
H454 H 0.58681 0.21473 0.81584 0.0
H455 H 0.57675 0.2126 0.86372 0.0
H456 H 0.35933 0.55843 0.02328 0.0
H457 H 0.36482 0.56302 0.97398 0.0
H458 H 0.43386 0.57576 0.98322 0.0
H459 H 0.42824 0.57006 0.0315 0.0
H460 H 0.39324 0.59901 0.94509 0.0
H461 H 0.41379 0.53104 0.92357 0.0
H462 H 0.40233 0.53306 0.95576 0.0
H463 H 0.43269 0.54978 0.9491 0.0
C464 C 0.37544 0.56161 0.01465 0.0
C465 C 0.39321 0.56361 0.03143 0.0
C466 C 0.37863 0.5644 0.98651 0.0
C467 C 0.39965 0.56932 0.97473 0.0
C468 C 0.41725 0.57121 0.99153 0.0
H469 H 0.45167 0.63687 0.81766 0.0
H470 H 0.44343 0.62893 0.86616 0.0
C471 C 0.41398 0.56806 0.01935 0.0
C472 C 0.40396 0.57378 0.94519 0.0
H473 H 0.42709 0.56145 0.89076 0.0
C474 C 0.40032 0.59056 0.93307 0.0
C475 C 0.41298 0.56261 0.92933 0.0
C476 C 0.41541 0.54296 0.94009 0.0
C477 C 0.40591 0.59681 0.90576 0.0
C478 C 0.4163 0.58666 0.89042 0.0
C479 C 0.41954 0.56961 0.9025 0.0
C480 C 0.42251 0.5921 0.86131 0.0
C481 C 0.40009 0.61381 0.89359 0.0
C482 C 0.41462 0.57411 0.84256 0.0
C483 C 0.41999 0.57854 0.8152 0.0
C484 C 0.43312 0.60116 0.80561 0.0
C485 C 0.44146 0.61927 0.82437 0.0
C486 C 0.43647 0.61474 0.85205 0.0
H487 H 0.38635 0.61455 0.90521 0.0
H488 H 0.4155 0.63116 0.89407 0.0
H489 H 0.3944 0.60943 0.87226 0.0
H490 H 0.40388 0.55649 0.84901 0.0
H491 H 0.41308 0.56409 0.80144 0.0
H492 H 0.78712 0.36371 0.19315 0.0
H493 H 0.78492 0.37071 0.14483 0.0
H494 H 0.85853 0.41219 0.14142 0.0
H495 H 0.86089 0.40542 0.18955 0.0
H496 H 0.80388 0.41795 0.12489 0.0
H497 H 0.84061 0.37054 0.07285 0.0
H498 H 0.82849 0.36324 0.10648 0.0
H499 H 0.85672 0.38734 0.10146 0.0
C500 C 0.80287 0.37369 0.1819 0.0
C501 C 0.82419 0.38403 0.19515 0.0
C502 C 0.80156 0.37783 0.15437 0.0
C503 C 0.82156 0.39196 0.13962 0.0
C504 C 0.84292 0.40106 0.1524 0.0
H505 H 0.86201 0.45225 0.98211 0.0
H506 H 0.85968 0.44247 0.03001 0.0
C507 C 0.84423 0.39717 0.17991 0.0
C508 C 0.82023 0.39916 0.1117 0.0
H509 H 0.83738 0.3985 0.04696 0.0
C510 C 0.81094 0.41352 0.10772 0.0
C511 C 0.82964 0.39348 0.08951 0.0
C512 C 0.83928 0.37765 0.09262 0.0
C513 C 0.81156 0.42304 0.08221 0.0
C514 C 0.82131 0.41764 0.06005 0.0
C515 C 0.83009 0.40282 0.06399 0.0
C516 C 0.82283 0.42715 0.03252 0.0
C517 C 0.80257 0.43945 0.07949 0.0
C518 C 0.80299 0.42269 0.01826 0.0
C519 C 0.80433 0.42864 0.99089 0.0
C520 C 0.82549 0.43874 0.97726 0.0
C521 C 0.84546 0.44447 0.99204 0.0
C522 C 0.84413 0.43876 0.01939 0.0
H523 H 0.80172 0.44669 0.09938 0.0
H524 H 0.81346 0.4538 0.06562 0.0
H525 H 0.78498 0.43016 0.07103 0.0
H526 H 0.78632 0.4134 0.02779 0.0
H527 H 0.78861 0.42373 0.97998 0.0
H528 H 0.44092 0.85049 0.13529 0.0
H529 H 0.44889 0.84992 0.18292 0.0
H530 H 0.37654 0.81644 0.2007 0.0
H531 H 0.36825 0.81572 0.15215 0.0
H532 H 0.44371 0.86892 0.22406 0.0
H533 H 0.39213 0.77523 0.24116 0.0
H534 H 0.39684 0.78768 0.20784 0.0
H535 H 0.37513 0.78719 0.22959 0.0
C536 C 0.42657 0.84303 0.14921 0.0
C537 C 0.40387 0.83311 0.1398 0.0
C538 C 0.43121 0.84269 0.17659 0.0
C539 C 0.41337 0.83278 0.19556 0.0
C540 C 0.39063 0.82356 0.18645 0.0
H541 H 0.43716 0.86308 0.36568 0.0
H542 H 0.43085 0.86266 0.31744 0.0
C543 C 0.38589 0.82342 0.15873 0.0
C544 C 0.41907 0.83275 0.22471 0.0
H545 H 0.4081 0.79853 0.28025 0.0
C546 C 0.43596 0.85344 0.23622 0.0
C547 C 0.40943 0.81253 0.24061 0.0
C548 C 0.39257 0.78937 0.22911 0.0
C549 C 0.44336 0.85455 0.26299 0.0
C550 C 0.43281 0.83463 0.27934 0.0
C551 C 0.41611 0.81385 0.26783 0.0
C552 C 0.43793 0.83531 0.30874 0.0
C553 C 0.46282 0.87704 0.27313 0.0
C554 C 0.44359 0.81971 0.32035 0.0
C555 C 0.4468 0.81955 0.34841 0.0
C556 C 0.44443 0.83505 0.36531 0.0
C557 C 0.43939 0.85102 0.35341 0.0
C558 C 0.43588 0.85092 0.32562 0.0
H559 H 0.47429 0.88733 0.25628 0.0
H560 H 0.45574 0.88723 0.2823 0.0
H561 H 0.47325 0.8744 0.28855 0.0
H562 H 0.44516 0.8074 0.30775 0.0
H563 H 0.45045 0.8069 0.35689 0.0
H564 H 0.56598 0.36245 0.32099 0.0
H565 H 0.57322 0.36973 0.36963 0.0
H566 H 0.56027 0.4261 0.36371 0.0
H567 H 0.55305 0.41904 0.31535 0.0
H568 H 0.60429 0.43716 0.38585 0.0
H569 H 0.53132 0.3621 0.43596 0.0
H570 H 0.54558 0.35613 0.40903 0.0
H571 H 0.52972 0.37034 0.40159 0.0
C572 C 0.56396 0.37592 0.33021 0.0
C573 C 0.55908 0.39025 0.31426 0.0
C574 C 0.5682 0.38012 0.35798 0.0
C575 C 0.56741 0.39855 0.37016 0.0
C576 C 0.56109 0.41189 0.35462 0.0
H577 H 0.57275 0.43927 0.5352 0.0
H578 H 0.56546 0.43081 0.48708 0.0
C579 C 0.55687 0.40774 0.32699 0.0
C580 C 0.57504 0.40534 0.39844 0.0
H581 H 0.56062 0.38913 0.46421 0.0
C582 C 0.59482 0.42665 0.40302 0.0
C583 C 0.5626 0.39157 0.42068 0.0
C584 C 0.54102 0.3688 0.41677 0.0
C585 C 0.60235 0.43468 0.42936 0.0
C586 C 0.58983 0.42098 0.45161 0.0
C587 C 0.57019 0.39956 0.44703 0.0
C588 C 0.5961 0.4289 0.4799 0.0
C589 C 0.62324 0.458 0.43326 0.0
C590 C 0.61619 0.43137 0.49161 0.0
C591 C 0.62052 0.43632 0.51924 0.0
C592 C 0.60469 0.43869 0.53555 0.0
C593 C 0.58526 0.43745 0.5233 0.0
C594 C 0.58098 0.43252 0.4958 0.0
H595 H 0.62862 0.46805 0.41416 0.0
H596 H 0.61991 0.4679 0.44878 0.0
H597 H 0.63766 0.4559 0.44052 0.0
H598 H 0.628 0.42848 0.47967 0.0
H599 H 0.63554 0.43698 0.52807 0.0
H600 H 0.89995 0.40531 0.32576 0.0
H601 H 0.93988 0.42033 0.33992 0.0
H602 H 0.95975 0.48294 0.29619 0.0
H603 H 0.9203 0.46807 0.28169 0.0
H604 H 0.98852 0.46508 0.28665 0.0
H605 H 0.97436 0.47049 0.3968 0.0
H606 H 0.95723 0.44294 0.38116 0.0
H607 H 0.95322 0.46643 0.3717 0.0
C608 C 0.91284 0.42231 0.31929 0.0
C609 C 0.90695 0.43553 0.30269 0.0
C610 C 0.93561 0.43087 0.32743 0.0
C611 C 0.95273 0.45281 0.31924 0.0
C612 C 0.94682 0.46594 0.30268 0.0
H613 H 0.08062 0.55461 0.37824 0.0
H614 H 0.04124 0.52849 0.36461 0.0
C615 C 0.92421 0.45743 0.2945 0.0
C616 C 0.9769 0.46251 0.32777 0.0
H617 H 0.01222 0.48403 0.3825 0.0
C618 C 0.99375 0.46898 0.30764 0.0
C619 C 0.98358 0.46764 0.35515 0.0
C620 C 0.96624 0.4617 0.37752 0.0
C621 C 0.01718 0.48128 0.31403 0.0
C622 C 0.02386 0.4869 0.34134 0.0
C623 C 0.007 0.4796 0.36158 0.0
C624 C 0.04805 0.50244 0.3491 0.0
C625 C 0.03453 0.48924 0.29139 0.0
C626 C 0.06504 0.49651 0.34478 0.0
C627 C 0.08777 0.51158 0.3524 0.0
C628 C 0.09374 0.53269 0.36465 0.0
C629 C 0.07664 0.5385 0.36885 0.0
C630 C 0.05407 0.52355 0.36117 0.0
H631 H 0.02644 0.48706 0.2712 0.0
H632 H 0.04768 0.50757 0.29405 0.0
H633 H 0.04336 0.47908 0.29169 0.0
H634 H 0.06068 0.48015 0.33584 0.0
H635 H 0.10054 0.50656 0.34911 0.0
H636 H 0.44818 0.91892 0.46413 0.0
H637 H 0.47312 0.95858 0.47782 0.0
H638 H 0.52098 0.94067 0.51188 0.0
H639 H 0.49582 0.90056 0.49843 0.0
H640 H 0.5126 0.96914 0.54519 0.0
H641 H 0.53339 0.00401 0.44119 0.0
H642 H 0.50307 0.987 0.4467 0.0
H643 H 0.52057 0.97377 0.44837 0.0
C644 C 0.46397 0.92332 0.4746 0.0
C645 C 0.47009 0.90659 0.48006 0.0
C646 C 0.4783 0.94607 0.4822 0.0
C647 C 0.49916 0.95267 0.49523 0.0
C648 C 0.50506 0.93594 0.50153 0.0
H649 H 0.59331 0.10071 0.51831 0.0
H650 H 0.57876 0.06058 0.50529 0.0
C651 C 0.49065 0.91306 0.49393 0.0
C652 C 0.51433 0.97701 0.50273 0.0
H653 H 0.53996 0.03117 0.47662 0.0
C654 C 0.5189 0.9827 0.53019 0.0
C655 C 0.52296 0.99468 0.48309 0.0
C656 C 0.51996 0.98957 0.45317 0.0
C657 C 0.53065 0.00567 0.53865 0.0
C658 C 0.53761 0.02332 0.51915 0.0
C659 C 0.53432 0.01763 0.49158 0.0
C660 C 0.54674 0.04758 0.52704 0.0
C661 C 0.53518 0.01079 0.56845 0.0
C662 C 0.53334 0.0536 0.54297 0.0
C663 C 0.54154 0.07637 0.55037 0.0
C664 C 0.56327 0.09369 0.54178 0.0
C665 C 0.57651 0.08775 0.52527 0.0
C666 C 0.56827 0.06485 0.51789 0.0
H667 H 0.53582 0.99666 0.57926 0.0
H668 H 0.55156 0.02698 0.57191 0.0
H669 H 0.52108 0.0126 0.57744 0.0
H670 H 0.51641 0.04067 0.5496 0.0
H671 H 0.5308 0.08035 0.56293 0.0
H672 H 0.49561 0.59502 0.68536 0.0
H673 H 0.5201 0.57875 0.67385 0.0
H674 H 0.46207 0.51057 0.68172 0.0
H675 H 0.43765 0.52651 0.69345 0.0
H676 H 0.52108 0.53987 0.71176 0.0
H677 H 0.49669 0.51875 0.60361 0.0
H678 H 0.49604 0.54219 0.62063 0.0
H679 H 0.47416 0.5132 0.62731 0.0
C680 C 0.48805 0.57657 0.68431 0.0
C681 C 0.46471 0.56204 0.69031 0.0
C682 C 0.50206 0.56734 0.67787 0.0
C683 C 0.49281 0.54351 0.67698 0.0
C684 C 0.46945 0.52902 0.68228 0.0
H685 H 0.52293 0.43851 0.64103 0.0
H686 H 0.50739 0.46347 0.65134 0.0
C687 C 0.45554 0.53817 0.68895 0.0
C688 C 0.5074 0.53336 0.67137 0.0
H689 H 0.5169 0.50231 0.62393 0.0
C690 C 0.52056 0.53195 0.69246 0.0
C691 C 0.50643 0.52299 0.64624 0.0
C692 C 0.4927 0.52438 0.62299 0.0
C693 C 0.53198 0.51941 0.68943 0.0
C694 C 0.53046 0.50842 0.66447 0.0
C695 C 0.518 0.51067 0.64308 0.0
C696 C 0.54025 0.49318 0.66049 0.0
C697 C 0.54455 0.51706 0.71336 0.0
C698 C 0.5639 0.50146 0.66267 0.0
C699 C 0.57285 0.48707 0.65707 0.0
C700 C 0.5583 0.46428 0.64883 0.0
C701 C 0.53461 0.45597 0.64728 0.0
C702 C 0.5257 0.47025 0.65308 0.0
H703 H 0.53977 0.52215 0.73259 0.0
H704 H 0.54098 0.49916 0.71536 0.0
H705 H 0.56326 0.52834 0.71034 0.0
H706 H 0.57551 0.5192 0.66789 0.0
H707 H 0.59121 0.49402 0.65818 0.0
H708 H 0.08525 0.52845 0.80146 0.0
H709 H 0.04503 0.51277 0.81327 0.0
H710 H 0.06 0.57825 0.84567 0.0
H711 H 0.10063 0.59422 0.83401 0.0
H712 H 0.03115 0.54044 0.87888 0.0
H713 H 0.99981 0.52651 0.77318 0.0
H714 H 0.0175 0.51416 0.78014 0.0
H715 H 0.02964 0.54476 0.78181 0.0
C716 C 0.08009 0.53958 0.81118 0.0
C717 C 0.09615 0.56265 0.81667 0.0
C718 C 0.05703 0.5306 0.81772 0.0
C719 C 0.04946 0.54448 0.82976 0.0
C720 C 0.06549 0.56734 0.83609 0.0
H721 H 0.90097 0.49081 0.84691 0.0
H722 H 0.94151 0.51598 0.83524 0.0
C723 C 0.08868 0.5764 0.82949 0.0
C724 C 0.02481 0.53473 0.83611 0.0
H725 H 0.97161 0.50603 0.8075 0.0
C726 C 0.01813 0.5332 0.86326 0.0
C727 C 0.00784 0.52566 0.81567 0.0
C728 C 0.01403 0.52804 0.78604 0.0
C729 C 0.99488 0.52169 0.87064 0.0
C730 C 0.97795 0.51117 0.85033 0.0
C731 C 0.98461 0.51384 0.82307 0.0
C732 C 0.9534 0.49609 0.85711 0.0
C733 C 0.98869 0.52064 0.90015 0.0
C734 C 0.94664 0.4763 0.87264 0.0
C735 C 0.92363 0.46194 0.87924 0.0
C736 C 0.90681 0.46696 0.87029 0.0
C737 C 0.91352 0.4865 0.85413 0.0
C738 C 0.93665 0.50091 0.84752 0.0
H739 H 0.00252 0.53506 0.91172 0.0
H740 H 0.97254 0.52108 0.90277 0.0
H741 H 0.98621 0.50441 0.90899 0.0
H742 H 0.95919 0.47192 0.87965 0.0
H743 H 0.91908 0.44697 0.89156 0.0
H744 H 0.55379 0.08224 0.94965 0.0
H745 H 0.52915 0.04215 0.9619 0.0
H746 H 0.4878 0.0603 0.0112 0.0
H747 H 0.51263 0.10083 0.99912 0.0
H748 H 0.49935 0.02997 0.03646 0.0
H749 H 0.46399 0.9992 0.9341 0.0
H750 H 0.49472 0.0156 0.93433 0.0
H751 H 0.47843 0.02916 0.94329 0.0
C752 C 0.53948 0.07781 0.96313 0.0
C753 C 0.53513 0.09475 0.97333 0.0
C754 C 0.52529 0.05481 0.96992 0.0
C755 C 0.50636 0.04819 0.98695 0.0
C756 C 0.5022 0.06506 0.99776 0.0
H757 H 0.40988 0.90079 0.01227 0.0
H758 H 0.42497 0.94143 1.0013 0.0
C759 C 0.51642 0.08818 0.99091 0.0
C760 C 0.49155 0.02367 0.99401 0.0
H761 H 0.46051 0.9705 0.96574 0.0
C762 C 0.49056 0.01698 0.02108 0.0
C763 C 0.47976 0.00677 0.97399 0.0
C764 C 0.47905 0.01303 0.94484 0.0
C765 C 0.4792 0.99373 0.02841 0.0
C766 C 0.46888 0.97679 0.00807 0.0
C767 C 0.4687 0.9835 0.98125 0.0
C768 C 0.45961 0.95213 0.014 0.0
C769 C 0.47868 0.98751 0.05783 0.0
C770 C 0.47422 0.94464 0.02397 0.0
C771 C 0.46573 0.92157 0.03012 0.0
C772 C 0.44242 0.90542 0.02628 0.0
C773 C 0.4279 0.91282 0.01547 0.0
C774 C 0.43647 0.93601 0.00928 0.0
H775 H 0.48092 0.00168 0.07133 0.0
H776 H 0.46232 0.97183 0.06305 0.0
H777 H 0.49294 0.98417 0.06188 0.0
H778 H 0.49225 0.9567 0.0271 0.0
H779 H 0.47744 0.91648 0.03824 0.0
H780 H 0.46746 0.54787 0.10468 0.0
H781 H 0.48498 0.52511 0.11684 0.0
H782 H 0.44215 0.50046 0.18796 0.0
H783 H 0.42369 0.52259 0.17508 0.0
H784 H 0.50983 0.52919 0.15844 0.0
H785 H 0.43457 0.44146 0.15954 0.0
H786 H 0.43331 0.46564 0.14588 0.0
H787 H 0.43121 0.4606 0.18183 0.0
C788 C 0.46162 0.5375 0.12284 0.0
C789 C 0.44423 0.53705 0.13899 0.0
C790 C 0.47164 0.52444 0.12974 0.0
C791 C 0.46474 0.51081 0.15314 0.0
C792 C 0.44737 0.51035 0.16942 0.0
H793 H 0.55223 0.47043 0.23424 0.0
H794 H 0.53017 0.48801 0.21932 0.0
C795 C 0.43698 0.52315 0.16221 0.0
C796 C 0.47688 0.49839 0.16106 0.0
H797 H 0.46919 0.44589 0.17841 0.0
C798 C 0.50089 0.51094 0.16262 0.0
C799 C 0.46531 0.47449 0.1661 0.0
C800 C 0.4397 0.45971 0.16298 0.0
C801 C 0.51364 0.50041 0.16934 0.0
C802 C 0.50204 0.47677 0.17577 0.0
C803 C 0.47805 0.46406 0.17378 0.0
C804 C 0.51457 0.46519 0.18528 0.0
C805 C 0.53947 0.51472 0.169 0.0
C806 C 0.51242 0.44584 0.17179 0.0
C807 C 0.52479 0.43542 0.18061 0.0
C808 C 0.53957 0.4443 0.20296 0.0
C809 C 0.54132 0.46341 0.21664 0.0
C810 C 0.52877 0.47356 0.20808 0.0
H811 H 0.54545 0.52975 0.15535 0.0
H812 H 0.54567 0.52131 0.18968 0.0
H813 H 0.5474 0.50452 0.16236 0.0
H814 H 0.5014 0.43899 0.15425 0.0
H815 H 0.52298 0.42061 0.16979 0.0
H816 H 0.25596 0.57686 0.3557 0.0
H817 H 0.27483 0.56969 0.3181 0.0
H818 H 0.21016 0.51221 0.29325 0.0
H819 H 0.19085 0.52034 0.33014 0.0
H820 H 0.28212 0.53787 0.30264 0.0
H821 H 0.22773 0.54579 0.22406 0.0
H822 H 0.22594 0.55182 0.25917 0.0
H823 H 0.21192 0.52265 0.2472 0.0
C824 C 0.2457 0.56256 0.34238 0.0
C825 C 0.22184 0.5493 0.34579 0.0
C826 C 0.25657 0.55846 0.32079 0.0
C827 C 0.24394 0.54074 0.30223 0.0
C828 C 0.22025 0.52652 0.30659 0.0
H829 H 0.33039 0.5216 0.18095 0.0
H830 H 0.30336 0.51335 0.21834 0.0
C831 C 0.20924 0.53099 0.3279 0.0
C832 C 0.25579 0.53799 0.27812 0.0
H833 H 0.25588 0.53756 0.20893 0.0
C834 C 0.27633 0.53775 0.28214 0.0
C835 C 0.24841 0.53798 0.25125 0.0
C836 C 0.22743 0.5398 0.24508 0.0
C837 C 0.29012 0.53851 0.26031 0.0
C838 C 0.28266 0.53836 0.23344 0.0
C839 C 0.26163 0.53757 0.22943 0.0
C840 C 0.29734 0.54139 0.20931 0.0
C841 C 0.31314 0.54086 0.26647 0.0
C842 C 0.30195 0.55893 0.19064 0.0
C843 C 0.31669 0.56309 0.16879 0.0
C844 C 0.32755 0.55009 0.16521 0.0
C845 C 0.32245 0.53206 0.18332 0.0
C846 C 0.30719 0.52751 0.2049 0.0
H847 H 0.31878 0.54696 0.28747 0.0
H848 H 0.31191 0.52389 0.26441 0.0
H849 H 0.32651 0.55303 0.25233 0.0
H850 H 0.29463 0.56991 0.19338 0.0
H851 H 0.32028 0.57718 0.1553 0.0
H852 H 0.74431 0.31736 0.32268 0.0
H853 H 0.72652 0.29136 0.36057 0.0
H854 H 0.79189 0.29878 0.38242 0.0
H855 H 0.81015 0.32611 0.34515 0.0
H856 H 0.72024 0.25202 0.37492 0.0
H857 H 0.77556 0.3149 0.45272 0.0
H858 H 0.77642 0.32268 0.41771 0.0
H859 H 0.7909 0.30773 0.42865 0.0
C860 C 0.75495 0.3134 0.33542 0.0
C861 C 0.77871 0.32399 0.33105 0.0
C862 C 0.74472 0.29845 0.35714 0.0
C863 C 0.75787 0.2934 0.37487 0.0
C864 C 0.78144 0.30294 0.36965 0.0
H865 H 0.67231 0.18942 0.49806 0.0
H866 H 0.69966 0.20735 0.46073 0.0
C867 C 0.79184 0.31839 0.34817 0.0
C868 C 0.74664 0.27876 0.39907 0.0
H869 H 0.74718 0.27886 0.46822 0.0
C870 C 0.7262 0.25784 0.39534 0.0
C871 C 0.75434 0.28635 0.42579 0.0
C872 C 0.77537 0.30922 0.43157 0.0
C873 C 0.71264 0.24497 0.41735 0.0
C874 C 0.72026 0.25264 0.44407 0.0
C875 C 0.74133 0.27291 0.4478 0.0
C876 C 0.70555 0.24157 0.46827 0.0
C877 C 0.68964 0.22413 0.41157 0.0
C878 C 0.70074 0.25494 0.486 0.0
C879 C 0.68578 0.24488 0.50776 0.0
C880 C 0.67493 0.22111 0.51216 0.0
C881 C 0.68024 0.20775 0.49501 0.0
C882 C 0.6957 0.21796 0.4735 0.0
H883 H 0.68402 0.22402 0.39041 0.0
H884 H 0.69085 0.20845 0.41448 0.0
H885 H 0.67626 0.2233 0.42541 0.0
H886 H 0.70807 0.27316 0.48256 0.0
H887 H 0.68205 0.25569 0.52051 0.0
H888 H 0.46134 0.70249 0.70201 0.0
H889 H 0.46851 0.73 0.66578 0.0
H890 H 0.47008 0.68313 0.60752 0.0
H891 H 0.46378 0.65588 0.64387 0.0
H892 H 0.50102 0.72703 0.59465 0.0
H893 H 0.41716 0.72041 0.61647 0.0
H894 H 0.43628 0.73043 0.64484 0.0
H895 H 0.42591 0.70186 0.63213 0.0
C896 C 0.46364 0.69821 0.68156 0.0
C897 C 0.46177 0.67689 0.6758 0.0
C898 C 0.46752 0.71388 0.6608 0.0
C899 C 0.4691 0.70837 0.63375 0.0
C900 C 0.46871 0.68772 0.62817 0.0
H901 H 0.4569 0.75655 0.47644 0.0
H902 H 0.46395 0.73756 0.51436 0.0
C903 C 0.46516 0.67215 0.64901 0.0
C904 C 0.46981 0.72345 0.61121 0.0
H905 H 0.44029 0.74751 0.58341 0.0
C906 C 0.48775 0.73152 0.59223 0.0
C907 C 0.45238 0.72919 0.60782 0.0
C908 C 0.43173 0.71985 0.62622 0.0
C909 C 0.4888 0.74528 0.5702 0.0
C910 C 0.47149 0.7511 0.56704 0.0
C911 C 0.4537 0.74324 0.58608 0.0
C912 C 0.47061 0.76424 0.54335 0.0
C913 C 0.50844 0.75358 0.55046 0.0
C914 C 0.47228 0.7857 0.54694 0.0
C915 C 0.4684 0.79671 0.52522 0.0
C916 C 0.46238 0.78624 0.4996 0.0
C917 C 0.46154 0.76512 0.49587 0.0
C918 C 0.46566 0.75426 0.51752 0.0
H919 H 0.52281 0.75183 0.55873 0.0
H920 H 0.50235 0.74329 0.53162 0.0
H921 H 0.51492 0.7718 0.54505 0.0
H922 H 0.47591 0.79362 0.56677 0.0
H923 H 0.46904 0.81288 0.52884 0.0
H924 H 0.75074 0.44658 0.86251 0.0
H925 H 0.73247 0.45477 0.82476 0.0
H926 H 0.79254 0.47529 0.77569 0.0
H927 H 0.81111 0.46727 0.81347 0.0
H928 H 0.7504 0.4982 0.78742 0.0
H929 H 0.73442 0.41666 0.73927 0.0
H930 H 0.73963 0.42174 0.77513 0.0
H931 H 0.76281 0.43614 0.75161 0.0
C932 C 0.76027 0.45324 0.84387 0.0
C933 C 0.78234 0.45612 0.84094 0.0
C934 C 0.7498 0.45797 0.82235 0.0
C935 C 0.7611 0.46549 0.79745 0.0
C936 C 0.78355 0.46946 0.7948 0.0
H937 H 0.69871 0.45701 0.64071 0.0
H938 H 0.72673 0.46476 0.6764 0.0
C939 C 0.79414 0.46491 0.81641 0.0
C940 C 0.74853 0.467 0.77367 0.0
H941 H 0.71998 0.43748 0.71717 0.0
C942 C 0.74387 0.48507 0.77189 0.0
C943 C 0.74008 0.44985 0.75351 0.0
C944 C 0.7443 0.42988 0.75482 0.0
C945 C 0.73093 0.48642 0.75034 0.0
C946 C 0.72188 0.46886 0.73052 0.0
C947 C 0.72691 0.451 0.73223 0.0
C948 C 0.70647 0.46793 0.70833 0.0
C949 C 0.72736 0.50678 0.7489 0.0
C950 C 0.68592 0.46771 0.71412 0.0
C951 C 0.67 0.46364 0.69359 0.0
C952 C 0.67409 0.45922 0.66696 0.0
C953 C 0.69502 0.46031 0.66102 0.0
C954 C 0.71105 0.4647 0.68144 0.0
H955 H 0.74132 0.52188 0.75944 0.0
H956 H 0.72652 0.51159 0.72763 0.0
H957 H 0.71101 0.50244 0.75911 0.0
H958 H 0.68163 0.46955 0.73474 0.0
H959 H 0.65393 0.46265 0.69889 0.0
H960 H 0.34904 0.8134 0.97979 0.0
H961 H 0.32222 0.79446 0.9424 0.0
H962 H 0.27779 0.73925 0.99563 0.0
H963 H 0.30453 0.75792 0.03305 0.0
H964 H 0.31055 0.74778 0.92636 0.0
H965 H 0.23374 0.75456 0.95135 0.0
H966 H 0.26189 0.77427 0.96453 0.0
H967 H 0.24563 0.74597 0.97847 0.0
C968 C 0.33329 0.79752 0.98373 0.0
C969 C 0.32897 0.78716 0.00943 0.0
C970 C 0.31801 0.78669 0.9623 0.0
C971 C 0.29793 0.76552 0.96626 0.0
C972 C 0.293 0.75572 0.9922 0.0
H973 H 0.19421 0.65821 0.86631 0.0
H974 H 0.21575 0.68523 0.90264 0.0
C975 C 0.30837 0.7664 0.01355 0.0
C976 C 0.28358 0.75239 0.94278 0.0
H977 H 0.22996 0.72945 0.91548 0.0
C978 C 0.29301 0.74397 0.92378 0.0
C979 C 0.2606 0.74716 0.93974 0.0
C980 C 0.2498 0.75605 0.95946 0.0
C981 C 0.27996 0.72998 0.90218 0.0
C982 C 0.25697 0.72487 0.89886 0.0
C983 C 0.24758 0.73346 0.91783 0.0
C984 C 0.24233 0.70999 0.87637 0.0
C985 C 0.29073 0.72004 0.88383 0.0
C986 C 0.24945 0.71534 0.84931 0.0
C987 C 0.23734 0.69979 0.82858 0.0
C988 C 0.21751 0.67879 0.83436 0.0
C989 C 0.2094 0.67425 0.86116 0.0
C990 C 0.22174 0.68967 0.88198 0.0
H991 H 0.30562 0.72012 0.89358 0.0
H992 H 0.27815 0.70215 0.87798 0.0
H993 H 0.29699 0.73055 0.86516 0.0
H994 H 0.26486 0.73122 0.8443 0.0
H995 H 0.24393 0.70393 0.80811 0.0
H996 H 0.54661 0.30133 0.20638 0.0
H997 H 0.53964 0.27401 0.17001 0.0
H998 H 0.53645 0.32036 0.1123 0.0
H999 H 0.54251 0.34741 0.14886 0.0
H1000 H 0.50597 0.27625 0.09973 0.0
H1001 H 0.59085 0.28474 0.11976 0.0
H1002 H 0.5721 0.27442 0.14848 0.0
H1003 H 0.58174 0.30288 0.1358 0.0
C1004 C 0.54405 0.30555 0.18601 0.0
C1005 C 0.54536 0.32664 0.18044 0.0
C1006 C 0.54024 0.28998 0.16519 0.0
C1007 C 0.53825 0.29542 0.13826 0.0
C1008 C 0.53815 0.31586 0.13287 0.0
H1009 H 0.55261 0.24919 0.98128 0.0
H1010 H 0.54494 0.26764 0.01933 0.0
C1011 C 0.54159 0.3313 0.1538 0.0
C1012 C 0.53762 0.28049 0.11564 0.0
H1013 H 0.56764 0.25725 0.08711 0.0
C1014 C 0.51944 0.27208 0.097 0.0
C1015 C 0.55533 0.27519 0.11187 0.0
C1016 C 0.57622 0.28496 0.12986 0.0
C1017 C 0.51845 0.25842 0.0749 0.0
C1018 C 0.53602 0.25301 0.07142 0.0
C1019 C 0.55404 0.2612 0.0901 0.0
C1020 C 0.53702 0.24015 0.04758 0.0
C1021 C 0.49868 0.24982 0.05538 0.0
C1022 C 0.53478 0.21841 0.05078 0.0
C1023 C 0.53897 0.2077 0.02898 0.0
C1024 C 0.54591 0.21879 1.00377 0.0
C1025 C 0.5473 0.24019 1.00043 0.0
C1026 C 0.54283 0.25073 0.02211 0.0
H1027 H 0.48444 0.25191 0.06348 0.0
H1028 H 0.50471 0.2596 0.03618 0.0
H1029 H 0.49205 0.23145 0.05064 0.0
H1030 H 0.53049 0.21007 0.07036 0.0
H1031 H 0.53788 0.19129 0.03226 0.0
loop_
_geom_bond_atom_site_label_1
_geom_bond_atom_site_label_2
_geom_bond_distance
_geom_bond_site_symmetry_2
_ccdc_geom_bond_type
O0 Cd1 2.223 . S
O0 C8 1.315 . S
Cd1 O0 2.223 . S
Cd1 O4 2.297 . S
Cd1 O5 2.439 . S
Cd1 O11 2.240 . S
Cd2 O3 2.240 . S
Cd2 O10 2.223 . S
Cd2 O12 2.297 . S
Cd2 O13 2.439 . S
O3 Cd2 2.240 . S
O3 C8 1.279 . S
O4 Cd1 2.297 . S
O4 C6 1.247 . S
O5 Cd1 2.439 . S
O5 C6 1.208 . S
C6 O4 1.247 . S
C6 O5 1.208 . S
C7 O12 1.247 . S
C7 O13 1.208 . S
C8 O0 1.315 . S
C8 O3 1.279 . S
C9 O10 1.315 . S
C9 O11 1.279 . S
O10 Cd2 2.223 . S
O10 C9 1.315 . S
O11 Cd1 2.240 . S
O11 C9 1.279 . S
O12 Cd2 2.297 . S
O12 C7 1.247 . S
O13 Cd2 2.439 . S
O13 C7 1.208 . S
O14 Cd15 2.223 . S
O14 C22 1.315 . S
Cd15 O14 2.223 . S
Cd15 O18 2.297 . S
Cd15 O19 2.439 . S
Cd15 O25 2.240 . S
Cd16 O17 2.240 . S
Cd16 O24 2.223 . S
Cd16 O26 2.297 . S
Cd16 O27 2.439 . S
O17 Cd16 2.240 . S
O17 C22 1.279 . S
O18 Cd15 2.297 . S
O18 C20 1.247 . S
O19 Cd15 2.439 . S
O19 C20 1.208 . S
C20 O18 1.247 . S
C20 O19 1.208 . S
C21 O26 1.247 . S
C21 O27 1.208 . S
C22 O14 1.315 . S
C22 O17 1.279 . S
C23 O24 1.315 . S
C23 O25 1.279 . S
O24 Cd16 2.223 . S
O24 C23 1.315 . S
O25 Cd15 2.240 . S
O25 C23 1.279 . S
O26 Cd16 2.297 . S
O26 C21 1.247 . S
O27 Cd16 2.439 . S
O27 C21 1.208 . S
O28 Cd29 2.223 . S
O28 C36 1.315 . S
Cd29 O28 2.223 . S
Cd29 O32 2.297 . S
Cd29 O33 2.439 . S
Cd29 O39 2.240 . S
Cd30 O31 2.240 . S
Cd30 O38 2.223 . S
Cd30 O40 2.297 . S
Cd30 O41 2.439 . S
O31 Cd30 2.240 . S
O31 C36 1.279 . S
O32 Cd29 2.297 . S
O32 C34 1.247 . S
O33 Cd29 2.439 . S
O33 C34 1.208 . S
C34 O32 1.247 . S
C34 O33 1.208 . S
C35 O40 1.247 . S
C35 O41 1.208 . S
C36 O28 1.315 . S
C36 O31 1.279 . S
C37 O38 1.315 . S
C37 O39 1.279 . S
O38 Cd30 2.223 . S
O38 C37 1.315 . S
O39 Cd29 2.240 . S
O39 C37 1.279 . S
O40 Cd30 2.297 . S
O40 C35 1.247 . S
O41 Cd30 2.439 . S
O41 C35 1.208 . S
O42 Cd43 2.223 . S
O42 C50 1.315 . S
Cd43 O42 2.223 . S
Cd43 O46 2.297 . S
Cd43 O47 2.439 . S
Cd43 O53 2.240 . S
Cd44 O45 2.240 . S
Cd44 O52 2.223 . S
Cd44 O54 2.297 . S
Cd44 O55 2.439 . S
O45 Cd44 2.240 . S
O45 C50 1.279 . S
O46 Cd43 2.297 . S
O46 C48 1.247 . S
O47 Cd43 2.439 . S
O47 C48 1.208 . S
C48 O46 1.247 . S
C48 O47 1.208 . S
C49 O54 1.247 . S
C49 O55 1.208 . S
C50 O42 1.315 . S
C50 O45 1.279 . S
C51 O52 1.315 . S
C51 O53 1.279 . S
O52 Cd44 2.223 . S
O52 C51 1.315 . S
O53 Cd43 2.240 . S
O53 C51 1.279 . S
O54 Cd44 2.297 . S
O54 C49 1.247 . S
O55 Cd44 2.439 . S
O55 C49 1.208 . S
O56 Cd57 2.223 . S
O56 C64 1.315 . S
Cd57 O56 2.223 . S
Cd57 O60 2.297 . S
Cd57 O61 2.439 . S
Cd57 O67 2.240 . S
Cd58 O59 2.240 . S
Cd58 O66 2.223 . S
Cd58 O68 2.297 . S
Cd58 O69 2.439 . S
O59 Cd58 2.240 . S
O59 C64 1.279 . S
O60 Cd57 2.297 . S
O60 C62 1.247 . S
O61 Cd57 2.439 . S
O61 C62 1.208 . S
C62 O60 1.247 . S
C62 O61 1.208 . S
C63 O68 1.247 . S
C63 O69 1.208 . S
C64 O56 1.315 . S
C64 O59 1.279 . S
C65 O66 1.315 . S
C65 O67 1.279 . S
O66 Cd58 2.223 . S
O66 C65 1.315 . S
O67 Cd57 2.240 . S
O67 C65 1.279 . S
O68 Cd58 2.297 . S
O68 C63 1.247 . S
O69 Cd58 2.439 . S
O69 C63 1.208 . S
O70 Cd71 2.223 . S
O70 C78 1.315 . S
Cd71 O70 2.223 . S
Cd71 O74 2.297 . S
Cd71 O75 2.439 . S
Cd71 O81 2.240 . S
Cd72 O73 2.240 . S
Cd72 O80 2.223 . S
Cd72 O82 2.297 . S
Cd72 O83 2.439 . S
O73 Cd72 2.240 . S
O73 C78 1.279 . S
O74 Cd71 2.297 . S
O74 C76 1.247 . S
O75 Cd71 2.439 . S
O75 C76 1.208 . S
C76 O74 1.247 . S
C76 O75 1.208 . S
C77 O82 1.247 . S
C77 O83 1.208 . S
C78 O70 1.315 . S
C78 O73 1.279 . S
C79 O80 1.315 . S
C79 O81 1.279 . S
O80 Cd72 2.223 . S
O80 C79 1.315 . S
O81 Cd71 2.240 . S
O81 C79 1.279 . S
O82 Cd72 2.297 . S
O82 C77 1.247 . S
O83 Cd72 2.439 . S
O83 C77 1.208 . S
O84 Cd85 2.223 . S
O84 C92 1.315 . S
Cd85 O84 2.223 . S
Cd85 O88 2.297 . S
Cd85 O89 2.439 . S
Cd85 O95 2.240 . S
Cd86 O87 2.240 . S
Cd86 O94 2.223 . S
Cd86 O96 2.297 . S
Cd86 O97 2.439 . S
O87 Cd86 2.240 . S
O87 C92 1.279 . S
O88 Cd85 2.297 . S
O88 C90 1.247 . S
O89 Cd85 2.439 . S
O89 C90 1.208 . S
C90 O88 1.247 . S
C90 O89 1.208 . S
C91 O96 1.247 . S
C91 O97 1.208 . S
C92 O84 1.315 . S
C92 O87 1.279 . S
C93 O94 1.315 . S
C93 O95 1.279 . S
O94 Cd86 2.223 . S
O94 C93 1.315 . S
O95 Cd85 2.240 . S
O95 C93 1.279 . S
O96 Cd86 2.297 . S
O96 C91 1.247 . S
O97 Cd86 2.439 . S
O97 C91 1.208 . S
O98 Cd99 2.223 . S
O98 C106 1.315 . S
Cd99 O98 2.223 . S
Cd99 O102 2.297 . S
Cd99 O103 2.439 . S
Cd99 O109 2.240 . S
Cd100 O101 2.240 . S
Cd100 O108 2.223 . S
Cd100 O110 2.297 . S
Cd100 O111 2.439 . S
O101 Cd100 2.240 . S
O101 C106 1.279 . S
O102 Cd99 2.297 . S
O102 C104 1.247 . S
O103 Cd99 2.439 . S
O103 C104 1.208 . S
C104 O102 1.247 . S
C104 O103 1.208 . S
C105 O110 1.247 . S
C105 O111 1.208 . S
C106 O98 1.315 . S
C106 O101 1.279 . S
C107 O108 1.315 . S
C107 O109 1.279 . S
O108 Cd100 2.223 . S
O108 C107 1.315 . S
O109 Cd99 2.240 . S
O109 C107 1.279 . S
O110 Cd100 2.297 . S
O110 C105 1.247 . S
O111 Cd100 2.439 . S
O111 C105 1.208 . S
O112 Cd113 2.223 . S
O112 C120 1.315 . S
Cd113 O112 2.223 . S
Cd113 O116 2.297 . S
Cd113 O117 2.439 . S
Cd113 O123 2.240 . S
Cd114 O115 2.240 . S
Cd114 O122 2.223 . S
Cd114 O124 2.297 . S
Cd114 O125 2.439 . S
O115 Cd114 2.240 . S
O115 C120 1.279 . S
O116 Cd113 2.297 . S
O116 C118 1.247 . S
O117 Cd113 2.439 . S
O117 C118 1.208 . S
C118 O116 1.247 . S
C118 O117 1.208 . S
C119 O124 1.247 . S
C119 O125 1.208 . S
C120 O112 1.315 . S
C120 O115 1.279 . S
C121 O122 1.315 . S
C121 O123 1.279 . S
O122 Cd114 2.223 . S
O122 C121 1.315 . S
O123 Cd113 2.240 . S
O123 C121 1.279 . S
O124 Cd114 2.297 . S
O124 C119 1.247 . S
O125 Cd114 2.439 . S
O125 C119 1.208 . S
O126 Cd127 2.223 . S
O126 C134 1.315 . S
Cd127 O126 2.223 . S
Cd127 O130 2.297 . S
Cd127 O131 2.439 . S
Cd127 O137 2.240 . S
Cd128 O129 2.240 . S
Cd128 O136 2.223 . S
Cd128 O138 2.297 . S
Cd128 O139 2.439 . S
O129 Cd128 2.240 . S
O129 C134 1.279 . S
O130 Cd127 2.297 . S
O130 C132 1.247 . S
O131 Cd127 2.439 . S
O131 C132 1.208 . S
C132 O130 1.247 . S
C132 O131 1.208 . S
C133 O138 1.247 . S
C133 O139 1.208 . S
C134 O126 1.315 . S
C134 O129 1.279 . S
C135 O136 1.315 . S
C135 O137 1.279 . S
O136 Cd128 2.223 . S
O136 C135 1.315 . S
O137 Cd127 2.240 . S
O137 C135 1.279 . S
O138 Cd128 2.297 . S
O138 C133 1.247 . S
O139 Cd128 2.439 . S
O139 C133 1.208 . S
O140 Cd141 2.223 . S
O140 C148 1.315 . S
Cd141 O140 2.223 . S
Cd141 O144 2.297 . S
Cd141 O145 2.439 . S
Cd141 O151 2.240 . S
Cd142 O143 2.240 . S
Cd142 O150 2.223 . S
Cd142 O152 2.297 . S
Cd142 O153 2.439 . S
O143 Cd142 2.240 . S
O143 C148 1.279 . S
O144 Cd141 2.297 . S
O144 C146 1.247 . S
O145 Cd141 2.439 . S
O145 C146 1.208 . S
C146 O144 1.247 . S
C146 O145 1.208 . S
C147 O152 1.247 . S
C147 O153 1.208 . S
C148 O140 1.315 . S
C148 O143 1.279 . S
C149 O150 1.315 . S
C149 O151 1.279 . S
O150 Cd142 2.223 . S
O150 C149 1.315 . S
O151 Cd141 2.240 . S
O151 C149 1.279 . S
O152 Cd142 2.297 . S
O152 C147 1.247 . S
O153 Cd142 2.439 . S
O153 C147 1.208 . S
O154 Cd155 2.223 . S
O154 C162 1.315 . S
Cd155 O154 2.223 . S
Cd155 O158 2.297 . S
Cd155 O159 2.439 . S
Cd155 O165 2.240 . S
Cd156 O157 2.240 . S
Cd156 O164 2.223 . S
Cd156 O166 2.297 . S
Cd156 O167 2.439 . S
O157 Cd156 2.240 . S
O157 C162 1.279 . S
O158 Cd155 2.297 . S
O158 C160 1.247 . S
O159 Cd155 2.439 . S
O159 C160 1.208 . S
C160 O158 1.247 . S
C160 O159 1.208 . S
C161 O166 1.247 . S
C161 O167 1.208 . S
C162 O154 1.315 . S
C162 O157 1.279 . S
C163 O164 1.315 . S
C163 O165 1.279 . S
O164 Cd156 2.223 . S
O164 C163 1.315 . S
O165 Cd155 2.240 . S
O165 C163 1.279 . S
O166 Cd156 2.297 . S
O166 C161 1.247 . S
O167 Cd156 2.439 . S
O167 C161 1.208 . S
H168 C176 0.929 . S
H169 C178 0.930 . S
H170 C180 0.930 . S
H171 C183 0.929 . S
H172 C186 0.930 . S
H173 C188 0.960 . S
H174 C188 0.960 . S
H175 C188 0.960 . S
C176 H168 0.929 . S
C176 C177 1.377 . S
C176 C178 1.384 . S
C177 C176 1.377 . S
C177 C183 1.390 . S
C178 H169 0.930 . S
C178 C176 1.384 . S
C178 C179 1.372 . S
C179 C178 1.372 . S
C179 C180 1.400 . S
C179 C184 1.490 . S
C180 H170 0.930 . S
C180 C179 1.400 . S
C180 C183 1.386 . S
H181 C197 0.930 . S
H182 C198 0.931 . S
C183 H171 0.929 . S
C183 C177 1.390 . S
C183 C180 1.386 . S
C184 C179 1.490 . S
C184 C186 1.395 . S
C184 C187 1.403 . S
H185 C191 0.930 . S
C186 H172 0.930 . S
C186 C184 1.395 . S
C186 C189 1.403 . S
C187 C184 1.403 . S
C187 C188 1.524 . S
C187 C191 1.400 . S
C188 H173 0.960 . S
C188 H174 0.960 . S
C188 H175 0.960 . S
C188 C187 1.524 . S
C189 C186 1.403 . S
C189 C190 1.392 . S
C189 C193 1.495 . S
C190 C189 1.392 . S
C190 C191 1.385 . S
C190 C192 1.478 . S
C191 H185 0.930 . S
C191 C187 1.400 . S
C191 C190 1.385 . S
C192 C190 1.478 . S
C192 C194 1.381 . S
C192 C198 1.383 . S
C193 C189 1.495 . S
C193 H199 0.959 . S
C193 H200 0.961 . S
C193 H201 0.960 . S
C194 C192 1.381 . S
C194 C195 1.394 . S
C194 H202 0.930 . S
C195 C194 1.394 . S
C195 C196 1.383 . S
C195 H203 0.929 . S
C196 C195 1.383 . S
C196 C197 1.377 . S
C197 H181 0.930 . S
C197 C196 1.377 . S
C197 C198 1.379 . S
C198 H182 0.931 . S
C198 C192 1.383 . S
C198 C197 1.379 . S
H199 C193 0.959 . S
H200 C193 0.961 . S
H201 C193 0.960 . S
H202 C194 0.930 . S
H203 C195 0.929 . S
H204 C212 0.929 . S
H205 C214 0.930 . S
H206 C216 0.930 . S
H207 C219 0.929 . S
H208 C222 0.930 . S
H209 C224 0.960 . S
H210 C224 0.960 . S
H211 C224 0.960 . S
C212 H204 0.929 . S
C212 C213 1.377 . S
C212 C214 1.384 . S
C213 C212 1.377 . S
C213 C219 1.390 . S
C214 H205 0.930 . S
C214 C212 1.384 . S
C214 C215 1.372 . S
C215 C214 1.372 . S
C215 C216 1.400 . S
C215 C220 1.490 . S
C216 H206 0.930 . S
C216 C215 1.400 . S
C216 C219 1.386 . S
H217 C233 0.930 . S
H218 C234 0.931 . S
C219 H207 0.929 . S
C219 C213 1.390 . S
C219 C216 1.386 . S
C220 C215 1.490 . S
C220 C222 1.395 . S
C220 C223 1.403 . S
H221 C227 0.930 . S
C222 H208 0.930 . S
C222 C220 1.395 . S
C222 C225 1.403 . S
C223 C220 1.403 . S
C223 C224 1.524 . S
C223 C227 1.400 . S
C224 H209 0.960 . S
C224 H210 0.960 . S
C224 H211 0.960 . S
C224 C223 1.524 . S
C225 C222 1.403 . S
C225 C226 1.392 . S
C225 C229 1.495 . S
C226 C225 1.392 . S
C226 C227 1.385 . S
C226 C228 1.478 . S
C227 H221 0.930 . S
C227 C223 1.400 . S
C227 C226 1.385 . S
C228 C226 1.478 . S
C228 C230 1.381 . S
C228 C234 1.383 . S
C229 C225 1.495 . S
C229 H235 0.959 . S
C229 H236 0.961 . S
C229 H237 0.960 . S
C230 C228 1.381 . S
C230 C231 1.394 . S
C230 H238 0.930 . S
C231 C230 1.394 . S
C231 C232 1.383 . S
C231 H239 0.929 . S
C232 C231 1.383 . S
C232 C233 1.377 . S
C233 H217 0.930 . S
C233 C232 1.377 . S
C233 C234 1.379 . S
C234 H218 0.931 . S
C234 C228 1.383 . S
C234 C233 1.379 . S
H235 C229 0.959 . S
H236 C229 0.961 . S
H237 C229 0.960 . S
H238 C230 0.930 . S
H239 C231 0.929 . S
H240 C248 0.929 . S
H241 C250 0.930 . S
H242 C252 0.930 . S
H243 C255 0.929 . S
H244 C258 0.930 . S
H245 C260 0.960 . S
H246 C260 0.960 . S
H247 C260 0.960 . S
C248 H240 0.929 . S
C248 C249 1.377 . S
C248 C250 1.384 . S
C249 C248 1.377 . S
C249 C255 1.390 . S
C250 H241 0.930 . S
C250 C248 1.384 . S
C250 C251 1.372 . S
C251 C250 1.372 . S
C251 C252 1.400 . S
C251 C256 1.490 . S
C252 H242 0.930 . S
C252 C251 1.400 . S
C252 C255 1.386 . S
H253 C269 0.930 . S
H254 C270 0.931 . S
C255 H243 0.929 . S
C255 C249 1.390 . S
C255 C252 1.386 . S
C256 C251 1.490 . S
C256 C258 1.395 . S
C256 C259 1.403 . S
H257 C263 0.930 . S
C258 H244 0.930 . S
C258 C256 1.395 . S
C258 C261 1.403 . S
C259 C256 1.403 . S
C259 C260 1.524 . S
C259 C263 1.400 . S
C260 H245 0.960 . S
C260 H246 0.960 . S
C260 H247 0.960 . S
C260 C259 1.524 . S
C261 C258 1.403 . S
C261 C262 1.392 . S
C261 C265 1.495 . S
C262 C261 1.392 . S
C262 C263 1.385 . S
C262 C264 1.478 . S
C263 H257 0.930 . S
C263 C259 1.400 . S
C263 C262 1.385 . S
C264 C262 1.478 . S
C264 C266 1.381 . S
C264 C270 1.383 . S
C265 C261 1.495 . S
C265 H271 0.959 . S
C265 H272 0.961 . S
C265 H273 0.960 . S
C266 C264 1.381 . S
C266 C267 1.394 . S
C266 H274 0.930 . S
C267 C266 1.394 . S
C267 C268 1.383 . S
C267 H275 0.929 . S
C268 C267 1.383 . S
C268 C269 1.377 . S
C269 H253 0.930 . S
C269 C268 1.377 . S
C269 C270 1.379 . S
C270 H254 0.931 . S
C270 C264 1.383 . S
C270 C269 1.379 . S
H271 C265 0.959 . S
H272 C265 0.961 . S
H273 C265 0.960 . S
H274 C266 0.930 . S
H275 C267 0.929 . S
H276 C284 0.929 . S
H277 C286 0.930 . S
H278 C288 0.930 . S
H279 C291 0.929 . S
H280 C294 0.930 . S
H281 C296 0.960 . S
H282 C296 0.960 . S
H283 C296 0.960 . S
C284 H276 0.929 . S
C284 C285 1.377 . S
C284 C286 1.384 . S
C285 C284 1.377 . S
C285 C291 1.390 . S
C286 H277 0.930 . S
C286 C284 1.384 . S
C286 C287 1.372 . S
C287 C286 1.372 . S
C287 C288 1.400 . S
C287 C292 1.490 . S
C288 H278 0.930 . S
C288 C287 1.400 . S
C288 C291 1.386 . S
H289 C305 0.930 . S
H290 C306 0.931 . S
C291 H279 0.929 . S
C291 C285 1.390 . S
C291 C288 1.386 . S
C292 C287 1.490 . S
C292 C294 1.395 . S
C292 C295 1.403 . S
H293 C299 0.930 . S
C294 H280 0.930 . S
C294 C292 1.395 . S
C294 C297 1.403 . S
C295 C292 1.403 . S
C295 C296 1.524 . S
C295 C299 1.400 . S
C296 H281 0.960 . S
C296 H282 0.960 . S
C296 H283 0.960 . S
C296 C295 1.524 . S
C297 C294 1.403 . S
C297 C298 1.392 . S
C297 C301 1.495 . S
C298 C297 1.392 . S
C298 C299 1.385 . S
C298 C300 1.478 . S
C299 H293 0.930 . S
C299 C295 1.400 . S
C299 C298 1.385 . S
C300 C298 1.478 . S
C300 C302 1.381 . S
C300 C306 1.383 . S
C301 C297 1.495 . S
C301 H307 0.959 . S
C301 H308 0.961 . S
C301 H309 0.960 . S
C302 C300 1.381 . S
C302 C303 1.394 . S
C302 H310 0.930 . S
C303 C302 1.394 . S
C303 C304 1.383 . S
C303 H311 0.929 . S
C304 C303 1.383 . S
C304 C305 1.377 . S
C305 H289 0.930 . S
C305 C304 1.377 . S
C305 C306 1.379 . S
C306 H290 0.931 . S
C306 C300 1.383 . S
C306 C305 1.379 . S
H307 C301 0.959 . S
H308 C301 0.961 . S
H309 C301 0.960 . S
H310 C302 0.930 . S
H311 C303 0.929 . S
H312 C320 0.929 . S
H313 C322 0.930 . S
H314 C324 0.930 . S
H315 C327 0.929 . S
H316 C330 0.930 . S
H317 C332 0.960 . S
H318 C332 0.960 . S
H319 C332 0.960 . S
C320 H312 0.929 . S
C320 C321 1.377 . S
C320 C322 1.384 . S
C321 C320 1.377 . S
C321 C327 1.390 . S
C322 H313 0.930 . S
C322 C320 1.384 . S
C322 C323 1.372 . S
C323 C322 1.372 . S
C323 C324 1.400 . S
C323 C328 1.490 . S
C324 H314 0.930 . S
C324 C323 1.400 . S
C324 C327 1.386 . S
H325 C341 0.930 . S
H326 C342 0.931 . S
C327 H315 0.929 . S
C327 C321 1.390 . S
C327 C324 1.386 . S
C328 C323 1.490 . S
C328 C330 1.395 . S
C328 C331 1.403 . S
H329 C335 0.930 . S
C330 H316 0.930 . S
C330 C328 1.395 . S
C330 C333 1.403 . S
C331 C328 1.403 . S
C331 C332 1.524 . S
C331 C335 1.400 . S
C332 H317 0.960 . S
C332 H318 0.960 . S
C332 H319 0.960 . S
C332 C331 1.524 . S
C333 C330 1.403 . S
C333 C334 1.392 . S
C333 C337 1.495 . S
C334 C333 1.392 . S
C334 C335 1.385 . S
C334 C336 1.478 . S
C335 H329 0.930 . S
C335 C331 1.400 . S
C335 C334 1.385 . S
C336 C334 1.478 . S
C336 C338 1.381 . S
C336 C342 1.383 . S
C337 C333 1.495 . S
C337 H343 0.959 . S
C337 H344 0.961 . S
C337 H345 0.960 . S
C338 C336 1.381 . S
C338 C339 1.394 . S
C338 H346 0.930 . S
C339 C338 1.394 . S
C339 C340 1.383 . S
C339 H347 0.929 . S
C340 C339 1.383 . S
C340 C341 1.377 . S
C341 H325 0.930 . S
C341 C340 1.377 . S
C341 C342 1.379 . S
C342 H326 0.931 . S
C342 C336 1.383 . S
C342 C341 1.379 . S
H343 C337 0.959 . S
H344 C337 0.961 . S
H345 C337 0.960 . S
H346 C338 0.930 . S
H347 C339 0.929 . S
H348 C356 0.929 . S
H349 C358 0.930 . S
H350 C360 0.930 . S
H351 C363 0.929 . S
H352 C366 0.930 . S
H353 C368 0.960 . S
H354 C368 0.960 . S
H355 C368 0.960 . S
C356 H348 0.929 . S
C356 C357 1.377 . S
C356 C358 1.384 . S
C357 C356 1.377 . S
C357 C363 1.390 . S
C358 H349 0.930 . S
C358 C356 1.384 . S
C358 C359 1.372 . S
C359 C358 1.372 . S
C359 C360 1.400 . S
C359 C364 1.490 . S
C360 H350 0.930 . S
C360 C359 1.400 . S
C360 C363 1.386 . S
H361 C377 0.930 . S
H362 C378 0.931 . S
C363 H351 0.929 . S
C363 C357 1.390 . S
C363 C360 1.386 . S
C364 C359 1.490 . S
C364 C366 1.395 . S
C364 C367 1.403 . S
H365 C371 0.930 . S
C366 H352 0.930 . S
C366 C364 1.395 . S
C366 C369 1.403 . S
C367 C364 1.403 . S
C367 C368 1.524 . S
C367 C371 1.400 . S
C368 H353 0.960 . S
C368 H354 0.960 . S
C368 H355 0.960 . S
C368 C367 1.524 . S
C369 C366 1.403 . S
C369 C370 1.392 . S
C369 C373 1.495 . S
C370 C369 1.392 . S
C370 C371 1.385 . S
C370 C372 1.478 . S
C371 H365 0.930 . S
C371 C367 1.400 . S
C371 C370 1.385 . S
C372 C370 1.478 . S
C372 C374 1.381 . S
C372 C378 1.383 . S
C373 C369 1.495 . S
C373 H379 0.959 . S
C373 H380 0.961 . S
C373 H381 0.960 . S
C374 C372 1.381 . S
C374 C375 1.394 . S
C374 H382 0.930 . S
C375 C374 1.394 . S
C375 C376 1.383 . S
C375 H383 0.929 . S
C376 C375 1.383 . S
C376 C377 1.377 . S
C377 H361 0.930 . S
C377 C376 1.377 . S
C377 C378 1.379 . S
C378 H362 0.931 . S
C378 C372 1.383 . S
C378 C377 1.379 . S
H379 C373 0.959 . S
H380 C373 0.961 . S
H381 C373 0.960 . S
H382 C374 0.930 . S
H383 C375 0.929 . S
H384 C392 0.929 . S
H385 C394 0.930 . S
H386 C396 0.930 . S
H387 C399 0.929 . S
H388 C402 0.930 . S
H389 C404 0.960 . S
H390 C404 0.960 . S
H391 C404 0.960 . S
C392 H384 0.929 . S
C392 C393 1.377 . S
C392 C394 1.384 . S
C393 C392 1.377 . S
C393 C399 1.390 . S
C394 H385 0.930 . S
C394 C392 1.384 . S
C394 C395 1.372 . S
C395 C394 1.372 . S
C395 C396 1.400 . S
C395 C400 1.490 . S
C396 H386 0.930 . S
C396 C395 1.400 . S
C396 C399 1.386 . S
H397 C413 0.930 . S
H398 C414 0.931 . S
C399 H387 0.929 . S
C399 C393 1.390 . S
C399 C396 1.386 . S
C400 C395 1.490 . S
C400 C402 1.395 . S
C400 C403 1.403 . S
H401 C407 0.930 . S
C402 H388 0.930 . S
C402 C400 1.395 . S
C402 C405 1.403 . S
C403 C400 1.403 . S
C403 C404 1.524 . S
C403 C407 1.400 . S
C404 H389 0.960 . S
C404 H390 0.960 . S
C404 H391 0.960 . S
C404 C403 1.524 . S
C405 C402 1.403 . S
C405 C406 1.392 . S
C405 C409 1.495 . S
C406 C405 1.392 . S
C406 C407 1.385 . S
C406 C408 1.478 . S
C407 H401 0.930 . S
C407 C403 1.400 . S
C407 C406 1.385 . S
C408 C406 1.478 . S
C408 C410 1.381 . S
C408 C414 1.383 . S
C409 C405 1.495 . S
C409 H415 0.959 . S
C409 H416 0.961 . S
C409 H417 0.960 . S
C410 C408 1.381 . S
C410 C411 1.394 . S
C410 H418 0.930 . S
C411 C410 1.394 . S
C411 C412 1.383 . S
C411 H419 0.929 . S
C412 C411 1.383 . S
C412 C413 1.377 . S
C413 H397 0.930 . S
C413 C412 1.377 . S
C413 C414 1.379 . S
C414 H398 0.931 . S
C414 C408 1.383 . S
C414 C413 1.379 . S
H415 C409 0.959 . S
H416 C409 0.961 . S
H417 C409 0.960 . S
H418 C410 0.930 . S
H419 C411 0.929 . S
H420 C428 0.929 . S
H421 C430 0.930 . S
H422 C432 0.930 . S
H423 C435 0.929 . S
H424 C438 0.930 . S
H425 C440 0.960 . S
H426 C440 0.960 . S
H427 C440 0.960 . S
C428 H420 0.929 . S
C428 C429 1.377 . S
C428 C430 1.384 . S
C429 C428 1.377 . S
C429 C435 1.390 . S
C430 H421 0.930 . S
C430 C428 1.384 . S
C430 C431 1.372 . S
C431 C430 1.372 . S
C431 C432 1.400 . S
C431 C436 1.490 . S
C432 H422 0.930 . S
C432 C431 1.400 . S
C432 C435 1.386 . S
H433 C449 0.930 . S
H434 C450 0.931 . S
C435 H423 0.929 . S
C435 C429 1.390 . S
C435 C432 1.386 . S
C436 C431 1.490 . S
C436 C438 1.395 . S
C436 C439 1.403 . S
H437 C443 0.930 . S
C438 H424 0.930 . S
C438 C436 1.395 . S
C438 C441 1.403 . S
C439 C436 1.403 . S
C439 C440 1.524 . S
C439 C443 1.400 . S
C440 H425 0.960 . S
C440 H426 0.960 . S
C440 H427 0.960 . S
C440 C439 1.524 . S
C441 C438 1.403 . S
C441 C442 1.392 . S
C441 C445 1.495 . S
C442 C441 1.392 . S
C442 C443 1.385 . S
C442 C444 1.478 . S
C443 H437 0.930 . S
C443 C439 1.400 . S
C443 C442 1.385 . S
C444 C442 1.478 . S
C444 C446 1.381 . S
C444 C450 1.383 . S
C445 C441 1.495 . S
C445 H451 0.959 . S
C445 H452 0.961 . S
C445 H453 0.960 . S
C446 C444 1.381 . S
C446 C447 1.394 . S
C446 H454 0.930 . S
C447 C446 1.394 . S
C447 C448 1.383 . S
C447 H455 0.929 . S
C448 C447 1.383 . S
C448 C449 1.377 . S
C449 H433 0.930 . S
C449 C448 1.377 . S
C449 C450 1.379 . S
C450 H434 0.931 . S
C450 C444 1.383 . S
C450 C449 1.379 . S
H451 C445 0.959 . S
H452 C445 0.961 . S
H453 C445 0.960 . S
H454 C446 0.930 . S
H455 C447 0.929 . S
H456 C464 0.929 . S
H457 C466 0.930 . S
H458 C468 0.930 . S
H459 C471 0.929 . S
H460 C474 0.930 . S
H461 C476 0.960 . S
H462 C476 0.960 . S
H463 C476 0.960 . S
C464 H456 0.929 . S
C464 C465 1.377 . S
C464 C466 1.384 1_554 S
C465 C464 1.377 . S
C465 C471 1.390 . S
C466 H457 0.930 . S
C466 C464 1.384 1_556 S
C466 C467 1.372 . S
C467 C466 1.372 . S
C467 C468 1.400 . S
C467 C472 1.490 . S
C468 H458 0.930 . S
C468 C467 1.400 . S
C468 C471 1.386 1_556 S
H469 C485 0.930 . S
H470 C486 0.931 . S
C471 H459 0.929 . S
C471 C465 1.390 . S
C471 C468 1.386 1_554 S
C472 C467 1.490 . S
C472 C474 1.395 . S
C472 C475 1.403 . S
H473 C479 0.930 . S
C474 H460 0.930 . S
C474 C472 1.395 . S
C474 C477 1.403 . S
C475 C472 1.403 . S
C475 C476 1.524 . S
C475 C479 1.400 . S
C476 H461 0.960 . S
C476 H462 0.960 . S
C476 H463 0.960 . S
C476 C475 1.524 . S
C477 C474 1.403 . S
C477 C478 1.392 . S
C477 C481 1.495 . S
C478 C477 1.392 . S
C478 C479 1.385 . S
C478 C480 1.478 . S
C479 H473 0.930 . S
C479 C475 1.400 . S
C479 C478 1.385 . S
C480 C478 1.478 . S
C480 C482 1.381 . S
C480 C486 1.383 . S
C481 C477 1.495 . S
C481 H487 0.959 . S
C481 H488 0.961 . S
C481 H489 0.960 . S
C482 C480 1.381 . S
C482 C483 1.394 . S
C482 H490 0.930 . S
C483 C482 1.394 . S
C483 C484 1.383 . S
C483 H491 0.929 . S
C484 C483 1.383 . S
C484 C485 1.377 . S
C485 H469 0.930 . S
C485 C484 1.377 . S
C485 C486 1.379 . S
C486 H470 0.931 . S
C486 C480 1.383 . S
C486 C485 1.379 . S
H487 C481 0.959 . S
H488 C481 0.961 . S
H489 C481 0.960 . S
H490 C482 0.930 . S
H491 C483 0.929 . S
H492 C500 0.929 . S
H493 C502 0.930 . S
H494 C504 0.930 . S
H495 C507 0.929 . S
H496 C510 0.930 . S
H497 C512 0.960 . S
H498 C512 0.960 . S
H499 C512 0.960 . S
C500 H492 0.929 . S
C500 C501 1.377 . S
C500 C502 1.384 . S
C501 C500 1.377 . S
C501 C507 1.390 . S
C502 H493 0.930 . S
C502 C500 1.384 . S
C502 C503 1.372 . S
C503 C502 1.372 . S
C503 C504 1.400 . S
C503 C508 1.490 . S
C504 H494 0.930 . S
C504 C503 1.400 . S
C504 C507 1.386 . S
H505 C521 0.930 . S
H506 C522 0.931 . S
C507 H495 0.929 . S
C507 C501 1.390 . S
C507 C504 1.386 . S
C508 C503 1.490 . S
C508 C510 1.395 . S
C508 C511 1.403 . S
H509 C515 0.930 . S
C510 H496 0.930 . S
C510 C508 1.395 . S
C510 C513 1.403 . S
C511 C508 1.403 . S
C511 C512 1.524 . S
C511 C515 1.400 . S
C512 H497 0.960 . S
C512 H498 0.960 . S
C512 H499 0.960 . S
C512 C511 1.524 . S
C513 C510 1.403 . S
C513 C514 1.392 . S
C513 C517 1.495 . S
C514 C513 1.392 . S
C514 C515 1.385 . S
C514 C516 1.478 . S
C515 H509 0.930 . S
C515 C511 1.400 . S
C515 C514 1.385 . S
C516 C514 1.478 . S
C516 C518 1.381 . S
C516 C522 1.383 . S
C517 C513 1.495 . S
C517 H523 0.959 . S
C517 H524 0.961 . S
C517 H525 0.960 . S
C518 C516 1.381 . S
C518 C519 1.394 1_554 S
C518 H526 0.930 . S
C519 C518 1.394 1_556 S
C519 C520 1.383 . S
C519 H527 0.929 . S
C520 C519 1.383 . S
C520 C521 1.377 . S
C521 H505 0.930 . S
C521 C520 1.377 . S
C521 C522 1.379 1_556 S
C522 H506 0.931 . S
C522 C516 1.383 . S
C522 C521 1.379 1_554 S
H523 C517 0.959 . S
H524 C517 0.961 . S
H525 C517 0.960 . S
H526 C518 0.930 . S
H527 C519 0.929 . S
H528 C536 0.929 . S
H529 C538 0.930 . S
H530 C540 0.930 . S
H531 C543 0.929 . S
H532 C546 0.930 . S
H533 C548 0.960 . S
H534 C548 0.960 . S
H535 C548 0.960 . S
C536 H528 0.929 . S
C536 C537 1.377 . S
C536 C538 1.384 . S
C537 C536 1.377 . S
C537 C543 1.390 . S
C538 H529 0.930 . S
C538 C536 1.384 . S
C538 C539 1.372 . S
C539 C538 1.372 . S
C539 C540 1.400 . S
C539 C544 1.490 . S
C540 H530 0.930 . S
C540 C539 1.400 . S
C540 C543 1.386 . S
H541 C557 0.930 . S
H542 C558 0.931 . S
C543 H531 0.929 . S
C543 C537 1.390 . S
C543 C540 1.386 . S
C544 C539 1.490 . S
C544 C546 1.395 . S
C544 C547 1.403 . S
H545 C551 0.930 . S
C546 H532 0.930 . S
C546 C544 1.395 . S
C546 C549 1.403 . S
C547 C544 1.403 . S
C547 C548 1.524 . S
C547 C551 1.400 . S
C548 H533 0.960 . S
C548 H534 0.960 . S
C548 H535 0.960 . S
C548 C547 1.524 . S
C549 C546 1.403 . S
C549 C550 1.392 . S
C549 C553 1.495 . S
C550 C549 1.392 . S
C550 C551 1.385 . S
C550 C552 1.478 . S
C551 H545 0.930 . S
C551 C547 1.400 . S
C551 C550 1.385 . S
C552 C550 1.478 . S
C552 C554 1.381 . S
C552 C558 1.383 . S
C553 C549 1.495 . S
C553 H559 0.959 . S
C553 H560 0.961 . S
C553 H561 0.960 . S
C554 C552 1.381 . S
C554 C555 1.394 . S
C554 H562 0.930 . S
C555 C554 1.394 . S
C555 C556 1.383 . S
C555 H563 0.929 . S
C556 C555 1.383 . S
C556 C557 1.377 . S
C557 H541 0.930 . S
C557 C556 1.377 . S
C557 C558 1.379 . S
C558 H542 0.931 . S
C558 C552 1.383 . S
C558 C557 1.379 . S
H559 C553 0.959 . S
H560 C553 0.961 . S
H561 C553 0.960 . S
H562 C554 0.930 . S
H563 C555 0.929 . S
H564 C572 0.929 . S
H565 C574 0.930 . S
H566 C576 0.930 . S
H567 C579 0.929 . S
H568 C582 0.930 . S
H569 C584 0.960 . S
H570 C584 0.960 . S
H571 C584 0.960 . S
C572 H564 0.929 . S
C572 C573 1.377 . S
C572 C574 1.384 . S
C573 C572 1.377 . S
C573 C579 1.390 . S
C574 H565 0.930 . S
C574 C572 1.384 . S
C574 C575 1.372 . S
C575 C574 1.372 . S
C575 C576 1.400 . S
C575 C580 1.490 . S
C576 H566 0.930 . S
C576 C575 1.400 . S
C576 C579 1.386 . S
H577 C593 0.930 . S
H578 C594 0.931 . S
C579 H567 0.929 . S
C579 C573 1.390 . S
C579 C576 1.386 . S
C580 C575 1.490 . S
C580 C582 1.395 . S
C580 C583 1.403 . S
H581 C587 0.930 . S
C582 H568 0.930 . S
C582 C580 1.395 . S
C582 C585 1.403 . S
C583 C580 1.403 . S
C583 C584 1.524 . S
C583 C587 1.400 . S
C584 H569 0.960 . S
C584 H570 0.960 . S
C584 H571 0.960 . S
C584 C583 1.524 . S
C585 C582 1.403 . S
C585 C586 1.392 . S
C585 C589 1.495 . S
C586 C585 1.392 . S
C586 C587 1.385 . S
C586 C588 1.478 . S
C587 H581 0.930 . S
C587 C583 1.400 . S
C587 C586 1.385 . S
C588 C586 1.478 . S
C588 C590 1.381 . S
C588 C594 1.383 . S
C589 C585 1.495 . S
C589 H595 0.959 . S
C589 H596 0.961 . S
C589 H597 0.960 . S
C590 C588 1.381 . S
C590 C591 1.394 . S
C590 H598 0.930 . S
C591 C590 1.394 . S
C591 C592 1.383 . S
C591 H599 0.929 . S
C592 C591 1.383 . S
C592 C593 1.377 . S
C593 H577 0.930 . S
C593 C592 1.377 . S
C593 C594 1.379 . S
C594 H578 0.931 . S
C594 C588 1.383 . S
C594 C593 1.379 . S
H595 C589 0.959 . S
H596 C589 0.961 . S
H597 C589 0.960 . S
H598 C590 0.930 . S
H599 C591 0.929 . S
H600 C608 0.929 . S
H601 C610 0.930 . S
H602 C612 0.930 . S
H603 C615 0.929 . S
H604 C618 0.930 . S
H605 C620 0.960 . S
H606 C620 0.960 . S
H607 C620 0.960 . S
C608 H600 0.929 . S
C608 C609 1.377 . S
C608 C610 1.384 . S
C609 C608 1.377 . S
C609 C615 1.390 . S
C610 H601 0.930 . S
C610 C608 1.384 . S
C610 C611 1.372 . S
C611 C610 1.372 . S
C611 C612 1.400 . S
C611 C616 1.490 . S
C612 H602 0.930 . S
C612 C611 1.400 . S
C612 C615 1.386 . S
H613 C629 0.930 . S
H614 C630 0.931 . S
C615 H603 0.929 . S
C615 C609 1.390 . S
C615 C612 1.386 . S
C616 C611 1.490 . S
C616 C618 1.395 . S
C616 C619 1.403 . S
H617 C623 0.930 . S
C618 H604 0.930 . S
C618 C616 1.395 . S
C618 C621 1.403 1_655 S
C619 C616 1.403 . S
C619 C620 1.524 . S
C619 C623 1.400 1_655 S
C620 H605 0.960 . S
C620 H606 0.960 . S
C620 H607 0.960 . S
C620 C619 1.524 . S
C621 C618 1.403 1_455 S
C621 C622 1.392 . S
C621 C625 1.495 . S
C622 C621 1.392 . S
C622 C623 1.385 . S
C622 C624 1.478 . S
C623 H617 0.930 . S
C623 C619 1.400 1_455 S
C623 C622 1.385 . S
C624 C622 1.478 . S
C624 C626 1.381 . S
C624 C630 1.383 . S
C625 C621 1.495 . S
C625 H631 0.959 . S
C625 H632 0.961 . S
C625 H633 0.960 . S
C626 C624 1.381 . S
C626 C627 1.394 . S
C626 H634 0.930 . S
C627 C626 1.394 . S
C627 C628 1.383 . S
C627 H635 0.929 . S
C628 C627 1.383 . S
C628 C629 1.377 . S
C629 H613 0.930 . S
C629 C628 1.377 . S
C629 C630 1.379 . S
C630 H614 0.931 . S
C630 C624 1.383 . S
C630 C629 1.379 . S
H631 C625 0.959 . S
H632 C625 0.961 . S
H633 C625 0.960 . S
H634 C626 0.930 . S
H635 C627 0.929 . S
H636 C644 0.929 . S
H637 C646 0.930 . S
H638 C648 0.930 . S
H639 C651 0.929 . S
H640 C654 0.930 . S
H641 C656 0.960 1_545 S
H642 C656 0.960 . S
H643 C656 0.960 . S
C644 H636 0.929 . S
C644 C645 1.377 . S
C644 C646 1.384 . S
C645 C644 1.377 . S
C645 C651 1.390 . S
C646 H637 0.930 . S
C646 C644 1.384 . S
C646 C647 1.372 . S
C647 C646 1.372 . S
C647 C648 1.400 . S
C647 C652 1.490 . S
C648 H638 0.930 . S
C648 C647 1.400 . S
C648 C651 1.386 . S
H649 C665 0.930 . S
H650 C666 0.931 . S
C651 H639 0.929 . S
C651 C645 1.390 . S
C651 C648 1.386 . S
C652 C647 1.490 . S
C652 C654 1.395 . S
C652 C655 1.403 . S
H653 C659 0.930 . S
C654 H640 0.930 . S
C654 C652 1.395 . S
C654 C657 1.403 1_565 S
C655 C652 1.403 . S
C655 C656 1.524 . S
C655 C659 1.400 1_565 S
C656 H641 0.960 1_565 S
C656 H642 0.960 . S
C656 H643 0.960 . S
C656 C655 1.524 . S
C657 C654 1.403 1_545 S
C657 C658 1.392 . S
C657 C661 1.495 . S
C658 C657 1.392 . S
C658 C659 1.385 . S
C658 C660 1.478 . S
C659 H653 0.930 . S
C659 C655 1.400 1_545 S
C659 C658 1.385 . S
C660 C658 1.478 . S
C660 C662 1.381 . S
C660 C666 1.383 . S
C661 C657 1.495 . S
C661 H667 0.959 1_545 S
C661 H668 0.961 . S
C661 H669 0.960 . S
C662 C660 1.381 . S
C662 C663 1.394 . S
C662 H670 0.930 . S
C663 C662 1.394 . S
C663 C664 1.383 . S
C663 H671 0.929 . S
C664 C663 1.383 . S
C664 C665 1.377 . S
C665 H649 0.930 . S
C665 C664 1.377 . S
C665 C666 1.379 . S
C666 H650 0.931 . S
C666 C660 1.383 . S
C666 C665 1.379 . S
H667 C661 0.959 1_565 S
H668 C661 0.961 . S
H669 C661 0.960 . S
H670 C662 0.930 . S
H671 C663 0.929 . S
H672 C680 0.929 . S
H673 C682 0.930 . S
H674 C684 0.930 . S
H675 C687 0.929 . S
H676 C690 0.930 . S
H677 C692 0.960 . S
H678 C692 0.960 . S
H679 C692 0.960 . S
C680 H672 0.929 . S
C680 C681 1.377 . S
C680 C682 1.384 . S
C681 C680 1.377 . S
C681 C687 1.390 . S
C682 H673 0.930 . S
C682 C680 1.384 . S
C682 C683 1.372 . S
C683 C682 1.372 . S
C683 C684 1.400 . S
C683 C688 1.490 . S
C684 H674 0.930 . S
C684 C683 1.400 . S
C684 C687 1.386 . S
H685 C701 0.930 . S
H686 C702 0.931 . S
C687 H675 0.929 . S
C687 C681 1.390 . S
C687 C684 1.386 . S
C688 C683 1.490 . S
C688 C690 1.395 . S
C688 C691 1.403 . S
H689 C695 0.930 . S
C690 H676 0.930 . S
C690 C688 1.395 . S
C690 C693 1.403 . S
C691 C688 1.403 . S
C691 C692 1.524 . S
C691 C695 1.400 . S
C692 H677 0.960 . S
C692 H678 0.960 . S
C692 H679 0.960 . S
C692 C691 1.524 . S
C693 C690 1.403 . S
C693 C694 1.392 . S
C693 C697 1.495 . S
C694 C693 1.392 . S
C694 C695 1.385 . S
C694 C696 1.478 . S
C695 H689 0.930 . S
C695 C691 1.400 . S
C695 C694 1.385 . S
C696 C694 1.478 . S
C696 C698 1.381 . S
C696 C702 1.383 . S
C697 C693 1.495 . S
C697 H703 0.959 . S
C697 H704 0.961 . S
C697 H705 0.960 . S
C698 C696 1.381 . S
C698 C699 1.394 . S
C698 H706 0.930 . S
C699 C698 1.394 . S
C699 C700 1.383 . S
C699 H707 0.929 . S
C700 C699 1.383 . S
C700 C701 1.377 . S
C701 H685 0.930 . S
C701 C700 1.377 . S
C701 C702 1.379 . S
C702 H686 0.931 . S
C702 C696 1.383 . S
C702 C701 1.379 . S
H703 C697 0.959 . S
H704 C697 0.961 . S
H705 C697 0.960 . S
H706 C698 0.930 . S
H707 C699 0.929 . S
H708 C716 0.929 . S
H709 C718 0.930 . S
H710 C720 0.930 . S
H711 C723 0.929 . S
H712 C726 0.930 . S
H713 C728 0.960 1_655 S
H714 C728 0.960 . S
H715 C728 0.960 . S
C716 H708 0.929 . S
C716 C717 1.377 . S
C716 C718 1.384 . S
C717 C716 1.377 . S
C717 C723 1.390 . S
C718 H709 0.930 . S
C718 C716 1.384 . S
C718 C719 1.372 . S
C719 C718 1.372 . S
C719 C720 1.400 . S
C719 C724 1.490 . S
C720 H710 0.930 . S
C720 C719 1.400 . S
C720 C723 1.386 . S
H721 C737 0.930 . S
H722 C738 0.931 . S
C723 H711 0.929 . S
C723 C717 1.390 . S
C723 C720 1.386 . S
C724 C719 1.490 . S
C724 C726 1.395 . S
C724 C727 1.403 . S
H725 C731 0.930 . S
C726 H712 0.930 . S
C726 C724 1.395 . S
C726 C729 1.403 1_455 S
C727 C724 1.403 . S
C727 C728 1.524 . S
C727 C731 1.400 1_455 S
C728 H713 0.960 1_455 S
C728 H714 0.960 . S
C728 H715 0.960 . S
C728 C727 1.524 . S
C729 C726 1.403 1_655 S
C729 C730 1.392 . S
C729 C733 1.495 . S
C730 C729 1.392 . S
C730 C731 1.385 . S
C730 C732 1.478 . S
C731 H725 0.930 . S
C731 C727 1.400 1_655 S
C731 C730 1.385 . S
C732 C730 1.478 . S
C732 C734 1.381 . S
C732 C738 1.383 . S
C733 C729 1.495 . S
C733 H739 0.957 1_655 S
C733 H740 0.961 . S
C733 H741 0.960 . S
C734 C732 1.381 . S
C734 C735 1.394 . S
C734 H742 0.930 . S
C735 C734 1.394 . S
C735 C736 1.383 . S
C735 H743 0.929 . S
C736 C735 1.383 . S
C736 C737 1.377 . S
C737 H721 0.930 . S
C737 C736 1.377 . S
C737 C738 1.379 . S
C738 H722 0.931 . S
C738 C732 1.383 . S
C738 C737 1.379 . S
H739 C733 0.957 1_455 S
H740 C733 0.961 . S
H741 C733 0.960 . S
H742 C734 0.930 . S
H743 C735 0.929 . S
H744 C752 0.929 . S
H745 C754 0.930 . S
H746 C756 0.930 . S
H747 C759 0.929 . S
H748 C762 0.930 . S
H749 C764 0.945 1_565 S
H750 C764 0.960 . S
H751 C764 0.960 . S
C752 H744 0.929 . S
C752 C753 1.377 . S
C752 C754 1.384 . S
C753 C752 1.377 . S
C753 C759 1.390 . S
C754 H745 0.930 . S
C754 C752 1.384 . S
C754 C755 1.372 . S
C755 C754 1.372 . S
C755 C756 1.400 . S
C755 C760 1.490 . S
C756 H746 0.930 . S
C756 C755 1.400 . S
C756 C759 1.386 . S
H757 C773 0.930 . S
H758 C774 0.931 . S
C759 H747 0.929 . S
C759 C753 1.390 . S
C759 C756 1.386 . S
C760 C755 1.490 . S
C760 C762 1.395 1_556 S
C760 C763 1.403 . S
H761 C767 0.930 . S
C762 H748 0.930 . S
C762 C760 1.395 1_554 S
C762 C765 1.403 1_545 S
C763 C760 1.403 . S
C763 C764 1.524 . S
C763 C767 1.400 1_545 S
C764 H749 0.945 1_545 S
C764 H750 0.960 . S
C764 H751 0.960 . S
C764 C763 1.524 . S
C765 C762 1.403 1_565 S
C765 C766 1.392 . S
C765 C769 1.495 . S
C766 C765 1.392 . S
C766 C767 1.385 1_554 S
C766 C768 1.478 . S
C767 H761 0.930 . S
C767 C763 1.400 1_565 S
C767 C766 1.385 1_556 S
C768 C766 1.478 . S
C768 C770 1.381 . S
C768 C774 1.383 . S
C769 C765 1.495 . S
C769 H775 0.965 . S
C769 H776 0.961 . S
C769 H777 0.960 . S
C770 C768 1.381 . S
C770 C771 1.394 . S
C770 H778 0.922 1_554 S
C771 C770 1.394 . S
C771 C772 1.383 . S
C771 H779 0.929 . S
C772 C771 1.383 . S
C772 C773 1.377 . S
C773 H757 0.930 . S
C773 C772 1.377 . S
C773 C774 1.379 . S
C774 H758 0.931 . S
C774 C768 1.383 . S
C774 C773 1.379 . S
H775 C769 0.965 . S
H776 C769 0.961 . S
H777 C769 0.960 . S
H778 C770 0.922 1_556 S
H779 C771 0.929 . S
H780 C788 0.929 . S
H781 C790 0.930 . S
H782 C792 0.930 . S
H783 C795 0.929 . S
H784 C798 0.930 . S
H785 C800 0.960 . S
H786 C800 0.960 . S
H787 C800 0.960 . S
C788 H780 0.929 . S
C788 C789 1.377 . S
C788 C790 1.384 . S
C789 C788 1.377 . S
C789 C795 1.390 . S
C790 H781 0.930 . S
C790 C788 1.384 . S
C790 C791 1.372 . S
C791 C790 1.372 . S
C791 C792 1.400 . S
C791 C796 1.490 . S
C792 H782 0.930 . S
C792 C791 1.400 . S
C792 C795 1.386 . S
H793 C809 0.930 . S
H794 C810 0.931 . S
C795 H783 0.929 . S
C795 C789 1.390 . S
C795 C792 1.386 . S
C796 C791 1.490 . S
C796 C798 1.395 . S
C796 C799 1.403 . S
H797 C803 0.930 . S
C798 H784 0.930 . S
C798 C796 1.395 . S
C798 C801 1.403 . S
C799 C796 1.403 . S
C799 C800 1.524 . S
C799 C803 1.400 . S
C800 H785 0.960 . S
C800 H786 0.960 . S
C800 H787 0.960 . S
C800 C799 1.524 . S
C801 C798 1.403 . S
C801 C802 1.392 . S
C801 C805 1.495 . S
C802 C801 1.392 . S
C802 C803 1.385 . S
C802 C804 1.478 . S
C803 H797 0.930 . S
C803 C799 1.400 . S
C803 C802 1.385 . S
C804 C802 1.478 . S
C804 C806 1.381 . S
C804 C810 1.383 . S
C805 C801 1.495 . S
C805 H811 0.959 . S
C805 H812 0.961 . S
C805 H813 0.960 . S
C806 C804 1.381 . S
C806 C807 1.394 . S
C806 H814 0.930 . S
C807 C806 1.394 . S
C807 C808 1.383 . S
C807 H815 0.929 . S
C808 C807 1.383 . S
C808 C809 1.377 . S
C809 H793 0.930 . S
C809 C808 1.377 . S
C809 C810 1.379 . S
C810 H794 0.931 . S
C810 C804 1.383 . S
C810 C809 1.379 . S
H811 C805 0.959 . S
H812 C805 0.961 . S
H813 C805 0.960 . S
H814 C806 0.930 . S
H815 C807 0.929 . S
H816 C824 0.929 . S
H817 C826 0.930 . S
H818 C828 0.930 . S
H819 C831 0.929 . S
H820 C834 0.930 . S
H821 C836 0.960 . S
H822 C836 0.960 . S
H823 C836 0.960 . S
C824 H816 0.929 . S
C824 C825 1.377 . S
C824 C826 1.384 . S
C825 C824 1.377 . S
C825 C831 1.390 . S
C826 H817 0.930 . S
C826 C824 1.384 . S
C826 C827 1.372 . S
C827 C826 1.372 . S
C827 C828 1.400 . S
C827 C832 1.490 . S
C828 H818 0.930 . S
C828 C827 1.400 . S
C828 C831 1.386 . S
H829 C845 0.930 . S
H830 C846 0.931 . S
C831 H819 0.929 . S
C831 C825 1.390 . S
C831 C828 1.386 . S
C832 C827 1.490 . S
C832 C834 1.395 . S
C832 C835 1.403 . S
H833 C839 0.930 . S
C834 H820 0.930 . S
C834 C832 1.395 . S
C834 C837 1.403 . S
C835 C832 1.403 . S
C835 C836 1.524 . S
C835 C839 1.400 . S
C836 H821 0.960 . S
C836 H822 0.960 . S
C836 H823 0.960 . S
C836 C835 1.524 . S
C837 C834 1.403 . S
C837 C838 1.392 . S
C837 C841 1.495 . S
C838 C837 1.392 . S
C838 C839 1.385 . S
C838 C840 1.478 . S
C839 H833 0.930 . S
C839 C835 1.400 . S
C839 C838 1.385 . S
C840 C838 1.478 . S
C840 C842 1.381 . S
C840 C846 1.383 . S
C841 C837 1.495 . S
C841 H847 0.959 . S
C841 H848 0.961 . S
C841 H849 0.960 . S
C842 C840 1.381 . S
C842 C843 1.394 . S
C842 H850 0.930 . S
C843 C842 1.394 . S
C843 C844 1.383 . S
C843 H851 0.929 . S
C844 C843 1.383 . S
C844 C845 1.377 . S
C845 H829 0.930 . S
C845 C844 1.377 . S
C845 C846 1.379 . S
C846 H830 0.931 . S
C846 C840 1.383 . S
C846 C845 1.379 . S
H847 C841 0.959 . S
H848 C841 0.961 . S
H849 C841 0.960 . S
H850 C842 0.930 . S
H851 C843 0.929 . S
H852 C860 0.929 . S
H853 C862 0.930 . S
H854 C864 0.930 . S
H855 C867 0.929 . S
H856 C870 0.930 . S
H857 C872 0.960 . S
H858 C872 0.960 . S
H859 C872 0.960 . S
C860 H852 0.929 . S
C860 C861 1.377 . S
C860 C862 1.384 . S
C861 C860 1.377 . S
C861 C867 1.390 . S
C862 H853 0.930 . S
C862 C860 1.384 . S
C862 C863 1.372 . S
C863 C862 1.372 . S
C863 C864 1.400 . S
C863 C868 1.490 . S
C864 H854 0.930 . S
C864 C863 1.400 . S
C864 C867 1.386 . S
H865 C881 0.930 . S
H866 C882 0.931 . S
C867 H855 0.929 . S
C867 C861 1.390 . S
C867 C864 1.386 . S
C868 C863 1.490 . S
C868 C870 1.395 . S
C868 C871 1.403 . S
H869 C875 0.930 . S
C870 H856 0.930 . S
C870 C868 1.395 . S
C870 C873 1.403 . S
C871 C868 1.403 . S
C871 C872 1.524 . S
C871 C875 1.400 . S
C872 H857 0.960 . S
C872 H858 0.960 . S
C872 H859 0.960 . S
C872 C871 1.524 . S
C873 C870 1.403 . S
C873 C874 1.392 . S
C873 C877 1.495 . S
C874 C873 1.392 . S
C874 C875 1.385 . S
C874 C876 1.478 . S
C875 H869 0.930 . S
C875 C871 1.400 . S
C875 C874 1.385 . S
C876 C874 1.478 . S
C876 C878 1.381 . S
C876 C882 1.383 . S
C877 C873 1.495 . S
C877 H883 0.959 . S
C877 H884 0.961 . S
C877 H885 0.960 . S
C878 C876 1.381 . S
C878 C879 1.394 . S
C878 H886 0.930 . S
C879 C878 1.394 . S
C879 C880 1.383 . S
C879 H887 0.929 . S
C880 C879 1.383 . S
C880 C881 1.377 . S
C881 H865 0.930 . S
C881 C880 1.377 . S
C881 C882 1.379 . S
C882 H866 0.931 . S
C882 C876 1.383 . S
C882 C881 1.379 . S
H883 C877 0.959 . S
H884 C877 0.961 . S
H885 C877 0.960 . S
H886 C878 0.930 . S
H887 C879 0.929 . S
H888 C896 0.929 . S
H889 C898 0.930 . S
H890 C900 0.930 . S
H891 C903 0.929 . S
H892 C906 0.930 . S
H893 C908 0.960 . S
H894 C908 0.960 . S
H895 C908 0.960 . S
C896 H888 0.929 . S
C896 C897 1.377 . S
C896 C898 1.384 . S
C897 C896 1.377 . S
C897 C903 1.390 . S
C898 H889 0.930 . S
C898 C896 1.384 . S
C898 C899 1.372 . S
C899 C898 1.372 . S
C899 C900 1.400 . S
C899 C904 1.490 . S
C900 H890 0.930 . S
C900 C899 1.400 . S
C900 C903 1.386 . S
H901 C917 0.930 . S
H902 C918 0.931 . S
C903 H891 0.929 . S
C903 C897 1.390 . S
C903 C900 1.386 . S
C904 C899 1.490 . S
C904 C906 1.395 . S
C904 C907 1.403 . S
H905 C911 0.930 . S
C906 H892 0.930 . S
C906 C904 1.395 . S
C906 C909 1.403 . S
C907 C904 1.403 . S
C907 C908 1.524 . S
C907 C911 1.400 . S
C908 H893 0.960 . S
C908 H894 0.960 . S
C908 H895 0.960 . S
C908 C907 1.524 . S
C909 C906 1.403 . S
C909 C910 1.392 . S
C909 C913 1.495 . S
C910 C909 1.392 . S
C910 C911 1.385 . S
C910 C912 1.478 . S
C911 H905 0.930 . S
C911 C907 1.400 . S
C911 C910 1.385 . S
C912 C910 1.478 . S
C912 C914 1.381 . S
C912 C918 1.383 . S
C913 C909 1.495 . S
C913 H919 0.959 . S
C913 H920 0.961 . S
C913 H921 0.960 . S
C914 C912 1.381 . S
C914 C915 1.394 . S
C914 H922 0.930 . S
C915 C914 1.394 . S
C915 C916 1.383 . S
C915 H923 0.929 . S
C916 C915 1.383 . S
C916 C917 1.377 . S
C917 H901 0.930 . S
C917 C916 1.377 . S
C917 C918 1.379 . S
C918 H902 0.931 . S
C918 C912 1.383 . S
C918 C917 1.379 . S
H919 C913 0.959 . S
H920 C913 0.961 . S
H921 C913 0.960 . S
H922 C914 0.930 . S
H923 C915 0.929 . S
H924 C932 0.929 . S
H925 C934 0.930 . S
H926 C936 0.930 . S
H927 C939 0.929 . S
H928 C942 0.930 . S
H929 C944 0.960 . S
H930 C944 0.960 . S
H931 C944 0.960 . S
C932 H924 0.929 . S
C932 C933 1.377 . S
C932 C934 1.384 . S
C933 C932 1.377 . S
C933 C939 1.390 . S
C934 H925 0.930 . S
C934 C932 1.384 . S
C934 C935 1.372 . S
C935 C934 1.372 . S
C935 C936 1.400 . S
C935 C940 1.490 . S
C936 H926 0.930 . S
C936 C935 1.400 . S
C936 C939 1.386 . S
H937 C953 0.930 . S
H938 C954 0.931 . S
C939 H927 0.929 . S
C939 C933 1.390 . S
C939 C936 1.386 . S
C940 C935 1.490 . S
C940 C942 1.395 . S
C940 C943 1.403 . S
H941 C947 0.930 . S
C942 H928 0.930 . S
C942 C940 1.395 . S
C942 C945 1.403 . S
C943 C940 1.403 . S
C943 C944 1.524 . S
C943 C947 1.400 . S
C944 H929 0.960 . S
C944 H930 0.960 . S
C944 H931 0.960 . S
C944 C943 1.524 . S
C945 C942 1.403 . S
C945 C946 1.392 . S
C945 C949 1.495 . S
C946 C945 1.392 . S
C946 C947 1.385 . S
C946 C948 1.478 . S
C947 H941 0.930 . S
C947 C943 1.400 . S
C947 C946 1.385 . S
C948 C946 1.478 . S
C948 C950 1.381 . S
C948 C954 1.383 . S
C949 C945 1.495 . S
C949 H955 0.959 . S
C949 H956 0.961 . S
C949 H957 0.960 . S
C950 C948 1.381 . S
C950 C951 1.394 . S
C950 H958 0.930 . S
C951 C950 1.394 . S
C951 C952 1.383 . S
C951 H959 0.929 . S
C952 C951 1.383 . S
C952 C953 1.377 . S
C953 H937 0.930 . S
C953 C952 1.377 . S
C953 C954 1.379 . S
C954 H938 0.931 . S
C954 C948 1.383 . S
C954 C953 1.379 . S
H955 C949 0.959 . S
H956 C949 0.961 . S
H957 C949 0.960 . S
H958 C950 0.930 . S
H959 C951 0.929 . S
H960 C968 0.929 . S
H961 C970 0.930 . S
H962 C972 0.930 . S
H963 C975 0.936 . S
H964 C978 0.930 . S
H965 C980 0.960 . S
H966 C980 0.960 . S
H967 C980 0.960 . S
C968 H960 0.929 . S
C968 C969 1.377 . S
C968 C970 1.384 . S
C969 C968 1.377 . S
C969 C975 1.388 1_556 S
C970 H961 0.930 . S
C970 C968 1.384 . S
C970 C971 1.372 . S
C971 C970 1.372 . S
C971 C972 1.400 . S
C971 C976 1.490 . S
C972 H962 0.930 . S
C972 C971 1.400 . S
C972 C975 1.381 1_556 S
H973 C989 0.930 . S
H974 C990 0.931 . S
C975 H963 0.936 . S
C975 C969 1.388 1_554 S
C975 C972 1.381 1_554 S
C976 C971 1.490 . S
C976 C978 1.395 . S
C976 C979 1.403 . S
H977 C983 0.930 . S
C978 H964 0.930 . S
C978 C976 1.395 . S
C978 C981 1.403 . S
C979 C976 1.403 . S
C979 C980 1.524 . S
C979 C983 1.400 . S
C980 H965 0.960 . S
C980 H966 0.960 . S
C980 H967 0.960 . S
C980 C979 1.524 . S
C981 C978 1.403 . S
C981 C982 1.392 . S
C981 C985 1.495 . S
C982 C981 1.392 . S
C982 C983 1.385 . S
C982 C984 1.478 . S
C983 H977 0.930 . S
C983 C979 1.400 . S
C983 C982 1.385 . S
C984 C982 1.478 . S
C984 C986 1.381 . S
C984 C990 1.383 . S
C985 C981 1.495 . S
C985 H991 0.959 . S
C985 H992 0.961 . S
C985 H993 0.960 . S
C986 C984 1.381 . S
C986 C987 1.394 . S
C986 H994 0.930 . S
C987 C986 1.394 . S
C987 C988 1.383 . S
C987 H995 0.929 . S
C988 C987 1.383 . S
C988 C989 1.377 . S
C989 H973 0.930 . S
C989 C988 1.377 . S
C989 C990 1.379 . S
C990 H974 0.931 . S
C990 C984 1.383 . S
C990 C989 1.379 . S
H991 C985 0.959 . S
H992 C985 0.961 . S
H993 C985 0.960 . S
H994 C986 0.930 . S
H995 C987 0.929 . S
H996 C1004 0.929 . S
H997 C1006 0.930 . S
H998 C1008 0.930 . S
H999 C1011 0.929 . S
H1000 C1014 0.930 . S
H1001 C1016 0.960 . S
H1002 C1016 0.960 . S
H1003 C1016 0.960 . S
C1004 H996 0.929 . S
C1004 C1005 1.377 . S
C1004 C1006 1.384 . S
C1005 C1004 1.377 . S
C1005 C1011 1.390 . S
C1006 H997 0.930 . S
C1006 C1004 1.384 . S
C1006 C1007 1.372 . S
C1007 C1006 1.372 . S
C1007 C1008 1.400 . S
C1007 C1012 1.490 . S
C1008 H998 0.930 . S
C1008 C1007 1.400 . S
C1008 C1011 1.386 . S
H1009 C1025 0.930 1_556 S
H1010 C1026 0.931 . S
C1011 H999 0.929 . S
C1011 C1005 1.390 . S
C1011 C1008 1.386 . S
C1012 C1007 1.490 . S
C1012 C1014 1.395 . S
C1012 C1015 1.403 . S
H1013 C1019 0.930 . S
C1014 H1000 0.930 . S
C1014 C1012 1.395 . S
C1014 C1017 1.403 . S
C1015 C1012 1.403 . S
C1015 C1016 1.524 . S
C1015 C1019 1.400 . S
C1016 H1001 0.960 . S
C1016 H1002 0.960 . S
C1016 H1003 0.960 . S
C1016 C1015 1.524 . S
C1017 C1014 1.403 . S
C1017 C1018 1.392 . S
C1017 C1021 1.495 . S
C1018 C1017 1.392 . S
C1018 C1019 1.385 . S
C1018 C1020 1.478 . S
C1019 H1013 0.930 . S
C1019 C1015 1.400 . S
C1019 C1018 1.385 . S
C1020 C1018 1.478 . S
C1020 C1022 1.381 . S
C1020 C1026 1.383 . S
C1021 C1017 1.495 . S
C1021 H1027 0.959 . S
C1021 H1028 0.961 . S
C1021 H1029 0.960 . S
C1022 C1020 1.381 . S
C1022 C1023 1.394 . S
C1022 H1030 0.930 . S
C1023 C1022 1.394 . S
C1023 C1024 1.383 . S
C1023 H1031 0.929 . S
C1024 C1023 1.383 . S
C1024 C1025 1.377 . S
C1025 H1009 0.930 1_554 S
C1025 C1024 1.377 . S
C1025 C1026 1.379 . S
C1026 H1010 0.931 . S
C1026 C1020 1.383 . S
C1026 C1025 1.379 . S
H1027 C1021 0.959 . S
H1028 C1021 0.961 . S
H1029 C1021 0.960 . S
H1030 C1022 0.930 . S
H1031 C1023 0.929 . S
C177 C9 0.832 . S
C196 C93 0.777 . S
C213 C23 0.816 . S
C232 C107 0.850 . S
C249 C121 0.822 . S
C268 C37 0.802 . S
C285 C51 0.836 . S
C304 C135 0.806 . S
C321 C65 0.823 . S
C340 C149 0.872 . S
C357 C163 0.825 . S
C376 C79 0.789 . S
C393 C120 1.632 . S
C412 C8 1.622 . S
C429 C22 1.641 . S
C448 C134 1.654 . S
C465 C148 1.639 . S
C484 C36 1.632 . S
C501 C162 1.641 . S
C520 C50 1.653 . S
C537 C64 1.636 . S
C556 C92 1.645 . S
C573 C78 1.639 . S
C592 C106 1.653 . S
C609 C160 1.355 . S
C628 C6 1.366 . S
C645 C90 1.352 . S
C664 C20 1.340 . S
C681 C34 1.355 . S
C700 C104 1.364 . S
C717 C118 1.353 . S
C736 C48 1.337 . S
C753 C132 1.353 . S
C772 C62 1.337 . S
C789 C146 1.357 . S
C808 C76 1.337 . S
C825 C7 1.223 . S
C844 C147 1.236 . S
C861 C161 1.223 . S
C880 C21 1.236 . S
C897 C35 1.217 . S
C916 C91 1.210 . S
C933 C49 1.218 . S
C952 C105 1.245 . S
C969 C63 1.226 1_556 S
C988 C119 1.200 . S
C1005 C77 1.216 . S
C1024 C133 1.215 1_554 S
