# Generated by pormake.
# Topology wlm, (5)-cn, num edge types: 1
# Building blocks:
#     Node 0, Type 0, BuildingBlock: XOMCOT_clean_sbu_0, # of connection points: 5
#     Node 1, Type 0, BuildingBlock: XOMCOT_clean_sbu_0, # of connection points: 5
#     Node 2, Type 0, BuildingBlock: XOMCOT_clean_sbu_0, # of connection points: 5
#     Node 3, Type 0, BuildingBlock: XOMCOT_clean_sbu_0, # of connection points: 5
#     Node 4, Type 0, BuildingBlock: XOMCOT_clean_sbu_0, # of connection points: 5
#     Node 5, Type 0, BuildingBlock: XOMCOT_clean_sbu_0, # of connection points: 5
#     Node 6, Type 0, BuildingBlock: XOMCOT_clean_sbu_0, # of connection points: 5
#     Node 7, Type 0, BuildingBlock: XOMCOT_clean_sbu_0, # of connection points: 5
#     Node 8, Type 0, BuildingBlock: XOMCOT_clean_sbu_0, # of connection points: 5
#     Node 9, Type 0, BuildingBlock: XOMCOT_clean_sbu_0, # of connection points: 5
#     Node 10, Type 0, BuildingBlock: XOMCOT_clean_sbu_0, # of connection points: 5
#     Node 11, Type 0, BuildingBlock: XOMCOT_clean_sbu_0, # of connection points: 5
#     Node 12, Type 0, BuildingBlock: XOMCOT_clean_sbu_0, # of connection points: 5
#     Node 13, Type 0, BuildingBlock: XOMCOT_clean_sbu_0, # of connection points: 5
#     Node 14, Type 0, BuildingBlock: XOMCOT_clean_sbu_0, # of connection points: 5
#     Node 15, Type 0, BuildingBlock: XOMCOT_clean_sbu_0, # of connection points: 5
#     Node 16, Type 0, BuildingBlock: XOMCOT_clean_sbu_0, # of connection points: 5
#     Node 17, Type 0, BuildingBlock: XOMCOT_clean_sbu_0, # of connection points: 5
#     Node 18, Type 0, BuildingBlock: XOMCOT_clean_sbu_0, # of connection points: 5
#     Node 19, Type 0, BuildingBlock: XOMCOT_clean_sbu_0, # of connection points: 5
#     Node 20, Type 0, BuildingBlock: XOMCOT_clean_sbu_0, # of connection points: 5
#     Node 21, Type 0, BuildingBlock: XOMCOT_clean_sbu_0, # of connection points: 5
#     Node 22, Type 0, BuildingBlock: XOMCOT_clean_sbu_0, # of connection points: 5
#     Node 23, Type 0, BuildingBlock: XOMCOT_clean_sbu_0, # of connection points: 5
#     Node 24, Type 0, BuildingBlock: XOMCOT_clean_sbu_0, # of connection points: 5
#     Node 25, Type 0, BuildingBlock: XOMCOT_clean_sbu_0, # of connection points: 5
#     Node 26, Type 0, BuildingBlock: XOMCOT_clean_sbu_0, # of connection points: 5
#     Node 27, Type 0, BuildingBlock: XOMCOT_clean_sbu_0, # of connection points: 5
#     Node 28, Type 0, BuildingBlock: XOMCOT_clean_sbu_0, # of connection points: 5
#     Node 29, Type 0, BuildingBlock: XOMCOT_clean_sbu_0, # of connection points: 5
#     Node 30, Type 0, BuildingBlock: XOMCOT_clean_sbu_0, # of connection points: 5
#     Node 31, Type 0, BuildingBlock: XOMCOT_clean_sbu_0, # of connection points: 5
#     Node 32, Type 0, BuildingBlock: XOMCOT_clean_sbu_0, # of connection points: 5
#     Node 33, Type 0, BuildingBlock: XOMCOT_clean_sbu_0, # of connection points: 5
#     Node 34, Type 0, BuildingBlock: XOMCOT_clean_sbu_0, # of connection points: 5
#     Node 35, Type 0, BuildingBlock: XOMCOT_clean_sbu_0, # of connection points: 5
#     Edge 36, Type (0, 0), None
#     Edge 37, Type (0, 0), None
#     Edge 38, Type (0, 0), None
#     Edge 39, Type (0, 0), None
#     Edge 40, Type (0, 0), None
#     Edge 41, Type (0, 0), None
#     Edge 42, Type (0, 0), None
#     Edge 43, Type (0, 0), None
#     Edge 44, Type (0, 0), None
#     Edge 45, Type (0, 0), None
#     Edge 46, Type (0, 0), None
#     Edge 47, Type (0, 0), None
#     Edge 48, Type (0, 0), None
#     Edge 49, Type (0, 0), None
#     Edge 50, Type (0, 0), None
#     Edge 51, Type (0, 0), None
#     Edge 52, Type (0, 0), None
#     Edge 53, Type (0, 0), None
#     Edge 54, Type (0, 0), None
#     Edge 55, Type (0, 0), None
#     Edge 56, Type (0, 0), None
#     Edge 57, Type (0, 0), None
#     Edge 58, Type (0, 0), None
#     Edge 59, Type (0, 0), None
#     Edge 60, Type (0, 0), None
#     Edge 61, Type (0, 0), None
#     Edge 62, Type (0, 0), None
#     Edge 63, Type (0, 0), None
#     Edge 64, Type (0, 0), None
#     Edge 65, Type (0, 0), None
#     Edge 66, Type (0, 0), None
#     Edge 67, Type (0, 0), None
#     Edge 68, Type (0, 0), None
#     Edge 69, Type (0, 0), None
#     Edge 70, Type (0, 0), None
#     Edge 71, Type (0, 0), None
#     Edge 72, Type (0, 0), None
#     Edge 73, Type (0, 0), None
#     Edge 74, Type (0, 0), None
#     Edge 75, Type (0, 0), None
#     Edge 76, Type (0, 0), None
#     Edge 77, Type (0, 0), None
#     Edge 78, Type (0, 0), None
#     Edge 79, Type (0, 0), None
#     Edge 80, Type (0, 0), None
#     Edge 81, Type (0, 0), None
#     Edge 82, Type (0, 0), None
#     Edge 83, Type (0, 0), None
#     Edge 84, Type (0, 0), None
#     Edge 85, Type (0, 0), None
#     Edge 86, Type (0, 0), None
#     Edge 87, Type (0, 0), None
#     Edge 88, Type (0, 0), None
#     Edge 89, Type (0, 0), None
#     Edge 90, Type (0, 0), None
#     Edge 91, Type (0, 0), None
#     Edge 92, Type (0, 0), None
#     Edge 93, Type (0, 0), None
#     Edge 94, Type (0, 0), None
#     Edge 95, Type (0, 0), None
#     Edge 96, Type (0, 0), None
#     Edge 97, Type (0, 0), None
#     Edge 98, Type (0, 0), None
#     Edge 99, Type (0, 0), None
#     Edge 100, Type (0, 0), None
#     Edge 101, Type (0, 0), None
#     Edge 102, Type (0, 0), None
#     Edge 103, Type (0, 0), None
#     Edge 104, Type (0, 0), None
#     Edge 105, Type (0, 0), None
#     Edge 106, Type (0, 0), None
#     Edge 107, Type (0, 0), None
#     Edge 108, Type (0, 0), None
#     Edge 109, Type (0, 0), None
#     Edge 110, Type (0, 0), None
#     Edge 111, Type (0, 0), None
#     Edge 112, Type (0, 0), None
#     Edge 113, Type (0, 0), None
#     Edge 114, Type (0, 0), None
#     Edge 115, Type (0, 0), None
#     Edge 116, Type (0, 0), None
#     Edge 117, Type (0, 0), None
#     Edge 118, Type (0, 0), None
#     Edge 119, Type (0, 0), None
#     Edge 120, Type (0, 0), None
#     Edge 121, Type (0, 0), None
#     Edge 122, Type (0, 0), None
#     Edge 123, Type (0, 0), None
#     Edge 124, Type (0, 0), None
#     Edge 125, Type (0, 0), None
# Relax obj value: 0.117
# Max RMSD: 0.144
# Mean RMSD: 0.144
data_MOF--net-wlm--node1-XOMCOT_clean_sbu_0--edge1-none
_symmetry_space_group_name_H-M    P1
_symmetry_Int_Tables_number       1
_symmetry_cell_setting            triclinic
loop_
_symmetry_equiv_pos_as_xyz
'x, y, z'
_cell_length_a     64.783151
_cell_length_b     64.743939
_cell_length_c     9.4928165
_cell_angle_alpha  89.982239
_cell_angle_beta   90.013251
_cell_angle_gamma 119.98877
loop_
_atom_site_label
_atom_site_type_symbol
_atom_site_fract_x
_atom_site_fract_y
_atom_site_fract_z
_atom_type_partial_charge
Co0 Co 0.11272 0.39065 0.25466 0.0
C1 C 0.11884 0.3956 0.94712 0.0
C2 C 0.08465 0.366 1.00295 0.0
C3 C 0.08561 0.36853 0.85817 0.0
N4 N 0.10553 0.38281 0.05786 0.0
N5 N 0.1071 0.38713 0.82438 0.0
H6 H 0.13641 0.41112 0.95691 0.0
H7 H 0.06942 0.35363 0.06463 0.0
C8 C 0.10674 0.34588 0.38813 0.0
O9 O 0.12738 0.3587 0.45107 0.0
N10 N 0.11938 0.39879 0.45372 0.0
C11 C 0.13731 0.41876 0.51226 0.0
C12 C 0.13512 0.41712 0.65684 0.0
C13 C 0.10581 0.38586 0.564 0.0
N14 N 0.11541 0.39639 0.68831 0.0
C15 C 0.16466 0.41624 0.23063 0.0
C16 C 0.16794 0.37667 0.15859 0.0
C17 C 0.18926 0.39823 0.18227 0.0
C18 C 0.18723 0.41845 0.21348 0.0
C19 C 0.14598 0.37553 0.17249 0.0
N20 N 0.14438 0.39454 0.22096 0.0
H21 H 0.16355 0.43209 0.24847 0.0
H22 H 0.13014 0.35899 0.14615 0.0
H23 H 0.15078 0.43394 0.45581 0.0
H24 H 0.08945 0.36898 0.55354 0.0
O25 O 0.11862 0.42278 0.21363 0.0
O26 O 0.08375 0.3917 0.2726 0.0
O27 O 0.09866 0.35553 0.30313 0.0
C28 C 0.09581 0.41388 0.23429 0.0
H29 H 0.07135 0.35828 0.7847 0.0
H30 H 0.14689 0.43028 0.73226 0.0
H31 H 0.16778 0.36037 0.13222 0.0
H32 H 0.20283 0.43594 0.22364 0.0
Co33 Co 0.6123 0.72102 0.22585 0.0
C34 C 0.60667 0.72124 0.91854 0.0
C35 C 0.63861 0.72079 0.97396 0.0
C36 C 0.63616 0.71912 0.82925 0.0
N37 N 0.62022 0.72226 0.02905 0.0
N38 N 0.61606 0.71935 0.79574 0.0
H39 H 0.59008 0.72132 0.92857 0.0
H40 H 0.65225 0.71997 0.03525 0.0
C41 C 0.65743 0.75969 0.35793 0.0
O42 O 0.64487 0.76743 0.42477 0.0
N43 N 0.60408 0.71895 0.42507 0.0
C44 C 0.58346 0.7153 0.48313 0.0
C45 C 0.5851 0.71488 0.6277 0.0
C46 C 0.61744 0.71927 0.5356 0.0
N47 N 0.60653 0.71756 0.65961 0.0
C48 C 0.58686 0.7476 0.21306 0.0
C49 C 0.62637 0.79061 0.1436 0.0
C50 C 0.60509 0.79051 0.17542 0.0
C51 C 0.58485 0.76819 0.20434 0.0
C52 C 0.62727 0.76957 0.14887 0.0
N53 N 0.60838 0.74885 0.19678 0.0
H54 H 0.57101 0.73066 0.23063 0.0
H55 H 0.64362 0.77022 0.11809 0.0
H56 H 0.56783 0.71228 0.42612 0.0
H57 H 0.6348 0.72087 0.5257 0.0
O58 O 0.58014 0.69502 0.18392 0.0
O59 O 0.61118 0.69094 0.23971 0.0
O60 O 0.64745 0.74197 0.27322 0.0
C61 C 0.58897 0.681 0.20231 0.0
H62 H 0.64771 0.71707 0.75548 0.0
H63 H 0.57151 0.71244 0.70279 0.0
H64 H 0.64269 0.80677 0.11812 0.0
H65 H 0.56749 0.76639 0.21987 0.0
Co66 Co 0.28412 0.89035 0.19009 0.0
C67 C 0.28393 0.88453 0.88283 0.0
C68 C 0.28485 0.91717 0.93811 0.0
C69 C 0.28639 0.91631 0.79335 0.0
N70 N 0.28316 0.89721 0.99329 0.0
N71 N 0.28585 0.89582 0.75993 0.0
H72 H 0.28359 0.86772 0.89292 0.0
H73 H 0.28584 0.93171 0.99935 0.0
C74 C 0.24522 0.89646 0.32083 0.0
O75 O 0.23749 0.87613 0.38745 0.0
N76 N 0.28589 0.88402 0.38929 0.0
C77 C 0.28937 0.86693 0.44744 0.0
C78 C 0.28982 0.86901 0.59198 0.0
C79 C 0.28568 0.89712 0.49973 0.0
N80 N 0.28734 0.8879 0.62379 0.0
C81 C 0.25772 0.83814 0.17483 0.0
C82 C 0.21478 0.83461 0.1031 0.0
C83 C 0.21485 0.81338 0.1339 0.0
C84 C 0.23715 0.81549 0.16446 0.0
C85 C 0.23577 0.85659 0.11036 0.0
N86 N 0.25646 0.85844 0.15896 0.0
H87 H 0.27464 0.83923 0.1932 0.0
H88 H 0.23508 0.87231 0.08011 0.0
H89 H 0.29229 0.85424 0.39054 0.0
H90 H 0.28422 0.91298 0.48965 0.0
O91 O 0.3107 0.88488 0.15003 0.0
O92 O 0.31384 0.91958 0.20661 0.0
O93 O 0.2629 0.90422 0.23617 0.0
C94 C 0.32431 0.90778 0.17014 0.0
H95 H 0.28853 0.92994 0.71945 0.0
H96 H 0.2922 0.85781 0.66711 0.0
H97 H 0.19865 0.83478 0.07668 0.0
H98 H 0.23896 0.79992 0.17975 0.0
Co99 Co 0.39158 0.11308 0.78939 0.0
C100 C 0.39762 0.11841 0.09694 0.0
C101 C 0.36496 0.08674 0.04111 0.0
C102 C 0.36717 0.08758 0.18592 0.0
N103 N 0.38389 0.10617 0.9863 0.0
N104 N 0.38766 0.10747 0.21949 0.0
H105 H 0.41452 0.13479 0.08756 0.0
H106 H 0.35104 0.07263 0.97949 0.0
C107 C 0.34634 0.10924 0.67482 0.0
O108 O 0.35891 0.13069 0.62096 0.0
N109 N 0.39963 0.11913 0.58983 0.0
C110 C 0.42165 0.13206 0.53287 0.0
C111 C 0.42006 0.13004 0.38836 0.0
C112 C 0.38518 0.10816 0.47858 0.0
N113 N 0.39713 0.11505 0.3556 0.0
C114 C 0.41552 0.16535 0.77118 0.0
C115 C 0.38083 0.16914 0.91854 0.0
C116 C 0.39928 0.18986 0.85617 0.0
C117 C 0.41716 0.18773 0.78477 0.0
C118 C 0.37944 0.14714 0.89814 0.0
N119 N 0.39609 0.14512 0.8201 0.0
H120 H 0.4299 0.16454 0.72074 0.0
H121 H 0.36444 0.13149 0.9429 0.0
H122 H 0.43808 0.14141 0.59161 0.0
H123 H 0.36656 0.09483 0.48669 0.0
O124 O 0.42352 0.11856 0.83026 0.0
O125 O 0.39208 0.08376 0.77381 0.0
O126 O 0.35644 0.09975 0.74425 0.0
C127 C 0.41434 0.09567 0.81096 0.0
H128 H 0.35529 0.07427 0.25992 0.0
H129 H 0.43466 0.13803 0.31409 0.0
H130 H 0.36717 0.16958 0.98164 0.0
H131 H 0.4321 0.20304 0.73646 0.0
Co132 Co 0.88893 0.28285 0.8469 0.0
C133 C 0.88372 0.28374 0.15453 0.0
C134 C 0.91517 0.28237 0.09851 0.0
C135 C 0.91438 0.28377 0.24333 0.0
N136 N 0.89584 0.28208 0.04383 0.0
N137 N 0.89462 0.28459 0.27701 0.0
H138 H 0.86744 0.28445 0.14527 0.0
H139 H 0.9292 0.28241 0.03676 0.0
C140 C 0.89177 0.24088 0.73399 0.0
O141 O 0.87026 0.23226 0.68164 0.0
N142 N 0.88297 0.28495 0.64731 0.0
C143 C 0.87052 0.29458 0.59047 0.0
C144 C 0.87255 0.29502 0.44599 0.0
C145 C 0.89372 0.28117 0.53604 0.0
N146 N 0.88712 0.28658 0.41314 0.0
C147 C 0.83655 0.25404 0.82163 0.0
C148 C 0.83251 0.21619 0.97735 0.0
C149 C 0.81202 0.21323 0.90785 0.0
C150 C 0.81432 0.233 0.83198 0.0
C151 C 0.85443 0.23701 0.95923 0.0
N152 N 0.85664 0.25545 0.87776 0.0
H153 H 0.83734 0.2689 0.76684 0.0
H154 H 0.86993 0.23786 1.00776 0.0
H155 H 0.8614 0.3019 0.6495 0.0
H156 H 0.9067 0.2754 0.54407 0.0
O157 O 0.88421 0.30992 0.88734 0.0
O158 O 0.91855 0.31234 0.83065 0.0
O159 O 0.9017 0.26058 0.80216 0.0
C160 C 0.90715 0.3232 0.8676 0.0
H161 H 0.92765 0.28506 0.31723 0.0
H162 H 0.86486 0.30198 0.37178 0.0
H163 H 0.83208 0.20248 0.04425 0.0
H164 H 0.79932 0.23227 0.77742 0.0
Co165 Co 0.7228 0.61142 0.8315 0.0
C166 C 0.72158 0.60513 0.13907 0.0
C167 C 0.72542 0.63908 0.08324 0.0
C168 C 0.72391 0.6369 0.22794 0.0
N169 N 0.72418 0.61928 0.02845 0.0
N170 N 0.72147 0.61558 0.26148 0.0
H171 H 0.71964 0.58759 0.1298 0.0
H172 H 0.72658 0.65368 1.02185 0.0
C173 C 0.76446 0.65637 0.71829 0.0
O174 O 0.77313 0.64369 0.66346 0.0
N175 N 0.72013 0.60327 0.63176 0.0
C176 C 0.70987 0.58113 0.57494 0.0
C177 C 0.70959 0.58277 0.43046 0.0
C178 C 0.72445 0.61792 0.52041 0.0
N179 N 0.71881 0.6059 0.3976 0.0
C180 C 0.75113 0.58774 0.79918 0.0
C181 C 0.78964 0.62124 0.95149 0.0
C182 C 0.7922 0.60383 0.87748 0.0
C183 C 0.77211 0.58647 0.80393 0.0
C184 C 0.76883 0.62247 0.93858 0.0
N185 N 0.75014 0.60647 0.85808 0.0
H186 H 0.73599 0.57376 0.746 0.0
H187 H 0.76822 0.63707 0.98959 0.0
H188 H 0.70222 0.56466 0.63397 0.0
H189 H 0.73079 0.63678 0.52812 0.0
O190 O 0.69631 0.57965 0.8736 0.0
O191 O 0.69326 0.61141 0.81933 0.0
O192 O 0.7448 0.64641 0.78641 0.0
C193 C 0.68282 0.58912 0.85612 0.0
H194 H 0.72375 0.64948 0.30193 0.0
H195 H 0.70235 0.56813 0.35623 0.0
H196 H 0.80368 0.63437 1.01727 0.0
H197 H 0.77255 0.57227 0.74653 0.0
Co198 Co 0.89235 0.61263 0.79294 0.0
C199 C 0.8863 0.60769 0.1005 0.0
C200 C 0.92054 0.63721 0.04467 0.0
C201 C 0.91955 0.6347 0.18951 0.0
N202 N 0.89964 0.62043 0.98974 0.0
N203 N 0.89802 0.61616 0.22328 0.0
H204 H 0.86871 0.59221 0.09074 0.0
H205 H 0.9358 0.64955 0.98303 0.0
C206 C 0.89761 0.65716 0.66074 0.0
O207 O 0.8769 0.64407 0.5991 0.0
N208 N 0.88561 0.60452 0.59389 0.0
C209 C 0.8678 0.58448 0.53527 0.0
C210 C 0.87002 0.58612 0.39071 0.0
C211 C 0.89914 0.61753 0.48368 0.0
N212 N 0.88965 0.60694 0.35933 0.0
C213 C 0.84044 0.5869 0.81782 0.0
C214 C 0.8372 0.62632 0.89443 0.0
C215 C 0.81589 0.60478 0.87052 0.0
C216 C 0.81788 0.58463 0.83696 0.0
C217 C 0.85914 0.6275 0.87868 0.0
N218 N 0.8607 0.6086 0.82795 0.0
H219 H 0.84155 0.57109 0.79834 0.0
H220 H 0.875 0.64401 0.90534 0.0
H221 H 0.85443 0.56922 0.59166 0.0
H222 H 0.91543 0.63446 0.49422 0.0
O223 O 0.88652 0.58054 0.83345 0.0
O224 O 0.92135 0.61166 0.77396 0.0
O225 O 0.90612 0.64772 0.74446 0.0
C226 C 0.90931 0.58946 0.81216 0.0
H227 H 0.93381 0.64495 0.26305 0.0
H228 H 0.85839 0.57289 0.31523 0.0
H229 H 0.8374 0.64258 0.92237 0.0
H230 H 0.80229 0.56714 0.82648 0.0
Co231 Co 0.39456 0.28408 0.81071 0.0
C232 C 0.40067 0.28448 0.11799 0.0
C233 C 0.36865 0.28488 0.06395 0.0
C234 C 0.37125 0.28663 0.20856 0.0
N235 N 0.38703 0.28344 1.00797 0.0
N236 N 0.39142 0.28648 0.24122 0.0
H237 H 0.41719 0.2843 0.10729 0.0
H238 H 0.35467 0.28526 1.00373 0.0
C239 C 0.34683 0.25022 0.67294 0.0
O240 O 0.35639 0.24295 0.57728 0.0
N241 N 0.40248 0.28542 0.6117 0.0
C242 C 0.42062 0.28373 0.55362 0.0
C243 C 0.41936 0.28464 0.40927 0.0
C244 C 0.3912 0.2887 0.5014 0.0
N245 N 0.4007 0.28747 0.37723 0.0
C246 C 0.41844 0.25627 0.84188 0.0
C247 C 0.37724 0.21274 0.87023 0.0
C248 C 0.39895 0.21292 0.85951 0.0
C249 C 0.41989 0.23533 0.84983 0.0
C250 C 0.37673 0.23397 0.86514 0.0
N251 N 0.39688 0.25527 0.83928 0.0
H252 H 0.4347 0.2733 0.83701 0.0
H253 H 0.35984 0.23293 0.88293 0.0
H254 H 0.4341 0.28206 0.61026 0.0
H255 H 0.37586 0.29103 0.51186 0.0
O256 O 0.42725 0.30949 0.84993 0.0
O257 O 0.39667 0.31443 0.7954 0.0
O258 O 0.35938 0.26491 0.76928 0.0
C259 C 0.41883 0.3239 0.83172 0.0
H260 H 0.35941 0.2881 0.28299 0.0
H261 H 0.43098 0.28292 0.33432 0.0
H262 H 0.36041 0.19632 0.87987 0.0
H263 H 0.43729 0.23683 0.84874 0.0
Co264 Co 0.7198 0.11252 0.85142 0.0
C265 C 0.72008 0.11839 0.15868 0.0
C266 C 0.71887 0.08561 0.10341 0.0
C267 C 0.71732 0.08648 0.24816 0.0
N268 N 0.72075 0.10566 0.04822 0.0
N269 N 0.71805 0.10706 0.28159 0.0
H270 H 0.72056 0.13527 0.14858 0.0
H271 H 0.71775 0.07101 0.04217 0.0
C272 C 0.75841 0.10595 0.71961 0.0
O273 O 0.76619 0.12623 0.65231 0.0
N274 N 0.71805 0.11888 0.65224 0.0
C275 C 0.71503 0.13625 0.59405 0.0
C276 C 0.71456 0.13416 0.44951 0.0
C277 C 0.71801 0.10564 0.54183 0.0
N278 N 0.7166 0.11502 0.41773 0.0
C279 C 0.74624 0.16469 0.86855 0.0
C280 C 0.78929 0.16824 0.93735 0.0
C281 C 0.78911 0.18949 0.90895 0.0
C282 C 0.76677 0.18735 0.87961 0.0
C283 C 0.76834 0.14622 0.92932 0.0
N284 N 0.74756 0.14439 0.88235 0.0
H285 H 0.72927 0.16357 0.85142 0.0
H286 H 0.7691 0.1305 0.95828 0.0
H287 H 0.71249 0.14919 0.65087 0.0
H288 H 0.71916 0.08961 0.55198 0.0
O289 O 0.69334 0.1182 0.89163 0.0
O290 O 0.68993 0.08339 0.8352 0.0
O291 O 0.74086 0.09842 0.8052 0.0
C292 C 0.67959 0.09531 0.87171 0.0
H293 H 0.71504 0.0728 0.32203 0.0
H294 H 0.71254 0.14558 0.37436 0.0
H295 H 0.80548 0.16811 0.96267 0.0
H296 H 0.76492 0.20292 0.866 0.0
Co297 Co 0.61155 0.89 0.25186 0.0
C298 C 0.60554 0.88479 0.94417 0.0
C299 C 0.63781 0.91684 1.00031 0.0
C300 C 0.63561 0.916 0.85543 0.0
N301 N 0.61914 0.89716 0.05494 0.0
N302 N 0.61538 0.89585 0.82172 0.0
H303 H 0.58883 0.86819 0.95337 0.0
H304 H 0.65152 0.93112 0.06216 0.0
C305 C 0.65643 0.89313 0.36427 0.0
O306 O 0.64361 0.87154 0.41575 0.0
N307 N 0.60355 0.88379 0.45148 0.0
C308 C 0.58149 0.87109 0.50832 0.0
C309 C 0.58305 0.87323 0.65276 0.0
C310 C 0.618 0.89478 0.56275 0.0
N311 N 0.60599 0.88811 0.68562 0.0
C312 C 0.5883 0.83772 0.27307 0.0
C313 C 0.62214 0.83423 0.11462 0.0
C314 C 0.60446 0.81348 0.18119 0.0
C315 C 0.58703 0.81552 0.25892 0.0
C316 C 0.62337 0.8561 0.13701 0.0
N317 N 0.60707 0.85798 0.21935 0.0
H318 H 0.57421 0.83834 0.32843 0.0
H319 H 0.63806 0.87179 0.09029 0.0
H320 H 0.56507 0.8618 0.44935 0.0
H321 H 0.63667 0.908 0.55468 0.0
O322 O 0.57965 0.88464 0.21169 0.0
O323 O 0.61118 0.91934 0.2693 0.0
O324 O 0.64661 0.90308 0.29667 0.0
C325 C 0.58893 0.90752 0.23197 0.0
H326 H 0.64728 0.92948 0.78155 0.0
H327 H 0.56841 0.86544 0.72689 0.0
H328 H 0.63541 0.83405 0.04655 0.0
H329 H 0.57269 0.80035 0.31177 0.0
Co330 Co 0.11502 0.72012 0.19995 0.0
C331 C 0.12019 0.71919 0.89234 0.0
C332 C 0.08876 0.72061 0.94832 0.0
C333 C 0.08957 0.71924 0.80348 0.0
N334 N 0.10807 0.72084 1.00303 0.0
N335 N 0.10932 0.71839 0.76984 0.0
H336 H 0.13647 0.71848 0.90163 0.0
H337 H 0.07475 0.72061 1.01001 0.0
C338 C 0.11192 0.76197 0.31261 0.0
O339 O 0.13346 0.7707 0.36471 0.0
N340 N 0.12101 0.71808 0.39956 0.0
C341 C 0.13352 0.70851 0.45644 0.0
C342 C 0.13148 0.70806 0.60091 0.0
C343 C 0.11023 0.72182 0.5108 0.0
N344 N 0.11685 0.71644 0.63372 0.0
C345 C 0.16735 0.749 0.22445 0.0
C346 C 0.17131 0.78672 0.06787 0.0
C347 C 0.19187 0.78969 0.13651 0.0
C348 C 0.18959 0.76999 0.21302 0.0
C349 C 0.14938 0.76598 0.08725 0.0
N350 N 0.14723 0.74759 0.16895 0.0
H351 H 0.16659 0.73416 0.27939 0.0
H352 H 0.13385 0.7651 0.03916 0.0
H353 H 0.14268 0.70123 0.39747 0.0
H354 H 0.0972 0.72752 0.50274 0.0
O355 O 0.11997 0.69321 0.15956 0.0
O356 O 0.08551 0.69053 0.21623 0.0
O357 O 0.10207 0.74225 0.24463 0.0
C358 C 0.09705 0.67981 0.17933 0.0
H359 H 0.07634 0.71802 0.72954 0.0
H360 H 0.1392 0.70114 0.67513 0.0
H361 H 0.17168 0.80035 1.00051 0.0
H362 H 0.20462 0.7707 0.26711 0.0
Co363 Co 0.28269 0.39205 0.22682 0.0
C364 C 0.28401 0.39834 0.91927 0.0
C365 C 0.28032 0.36446 0.97506 0.0
C366 C 0.28164 0.36656 0.83028 0.0
N367 N 0.28157 0.38426 0.02991 0.0
N368 N 0.284 0.38785 0.79677 0.0
H369 H 0.28583 0.41583 0.92858 0.0
H370 H 0.27914 0.34984 0.03633 0.0
C371 C 0.24102 0.34688 0.33896 0.0
O372 O 0.23237 0.35955 0.39435 0.0
N373 N 0.28505 0.40009 0.42652 0.0
C374 C 0.29503 0.42221 0.48344 0.0
C375 C 0.29534 0.42056 0.62787 0.0
C376 C 0.28091 0.38547 0.53776 0.0
N377 N 0.28642 0.39746 0.66065 0.0
C378 C 0.25406 0.4155 0.25661 0.0
C379 C 0.21567 0.38171 0.10476 0.0
C380 C 0.21299 0.39918 0.17721 0.0
C381 C 0.23301 0.41667 0.25063 0.0
C382 C 0.23656 0.38063 0.11855 0.0
N383 N 0.2552 0.39678 0.19887 0.0
H384 H 0.26914 0.42959 0.30962 0.0
H385 H 0.2373 0.36605 0.06821 0.0
H386 H 0.30254 0.43868 0.42454 0.0
H387 H 0.27482 0.36665 0.52981 0.0
O388 O 0.30923 0.42399 0.18583 0.0
O389 O 0.31242 0.39237 0.24049 0.0
O390 O 0.26072 0.35693 0.27103 0.0
C391 C 0.32285 0.4147 0.20452 0.0
H392 H 0.28164 0.3539 0.75622 0.0
H393 H 0.30243 0.4352 0.70211 0.0
H394 H 0.20167 0.36845 0.0393 0.0
H395 H 0.23249 0.43091 0.30691 0.0
Co396 Co 0.78249 0.72693 0.56789 0.0
C397 C 0.78843 0.73207 0.26041 0.0
C398 C 0.75443 0.70215 0.31606 0.0
C399 C 0.75547 0.70457 0.17117 0.0
N400 N 0.77515 0.71925 0.3711 0.0
N401 N 0.77684 0.72336 0.13753 0.0
H402 H 0.80592 0.74769 0.27024 0.0
H403 H 0.7393 0.68955 0.37759 0.0
C404 C 0.77726 0.68225 0.69794 0.0
O405 O 0.79798 0.69521 0.7598 0.0
N406 N 0.7893 0.73491 0.76692 0.0
C407 C 0.80695 0.75507 0.82542 0.0
C408 C 0.80472 0.75344 0.96996 0.0
C409 C 0.77585 0.72183 0.87714 0.0
N410 N 0.78525 0.73251 1.00142 0.0
C411 C 0.83452 0.75276 0.54325 0.0
C412 C 0.8377 0.7134 0.46442 0.0
C413 C 0.85905 0.73486 0.48913 0.0
C414 C 0.85708 0.75499 0.524 0.0
C415 C 0.81578 0.71225 0.48042 0.0
N416 N 0.81422 0.73111 0.53203 0.0
H417 H 0.83346 0.76856 0.56371 0.0
H418 H 0.79991 0.69578 0.45324 0.0
H419 H 0.82015 0.77043 0.76892 0.0
H420 H 0.75963 0.70483 0.86664 0.0
O421 O 0.78798 0.75902 0.52879 0.0
O422 O 0.75339 0.72761 0.58823 0.0
O423 O 0.76882 0.69182 0.61498 0.0
C424 C 0.76517 0.74986 0.55104 0.0
H425 H 0.74136 0.69402 0.09743 0.0
H426 H 0.81623 0.76679 0.04534 0.0
H427 H 0.83745 0.69714 0.43563 0.0
H428 H 0.8727 0.77244 0.53538 0.0
Co429 Co 0.27607 0.05444 0.52991 0.0
C430 C 0.27046 0.05456 0.22241 0.0
C431 C 0.30227 0.05389 0.2785 0.0
C432 C 0.3 0.05247 0.13367 0.0
N433 N 0.28389 0.05542 0.33318 0.0
N434 N 0.28004 0.05291 0.09985 0.0
H435 H 0.25389 0.05471 0.23184 0.0
H436 H 0.31571 0.05282 0.34033 0.0
C437 C 0.32043 0.09594 0.65272 0.0
O438 O 0.30719 0.10361 0.71178 0.0
N439 N 0.26799 0.05256 0.72929 0.0
C440 C 0.24641 0.04568 0.78711 0.0
C441 C 0.24811 0.04536 0.93164 0.0
C442 C 0.28216 0.05488 0.84006 0.0
N443 N 0.27059 0.05121 0.9637 0.0
C444 C 0.24825 0.07874 0.52288 0.0
C445 C 0.28506 0.1214 0.42366 0.0
C446 C 0.26406 0.12056 0.46862 0.0
C447 C 0.24502 0.09859 0.51236 0.0
C448 C 0.28745 0.10124 0.43572 0.0
N449 N 0.26996 0.08081 0.49651 0.0
H450 H 0.23331 0.06185 0.55271 0.0
H451 H 0.30387 0.10239 0.40094 0.0
H452 H 0.23007 0.03986 0.72979 0.0
H453 H 0.30036 0.05872 0.83081 0.0
O454 O 0.24466 0.02711 0.49069 0.0
O455 O 0.27702 0.02542 0.54813 0.0
O456 O 0.31104 0.07722 0.57539 0.0
C457 C 0.25472 0.01424 0.51168 0.0
H458 H 0.31142 0.0502 0.06 0.0
H459 H 0.23379 0.04031 1.00652 0.0
H460 H 0.29995 0.13787 0.38496 0.0
H461 H 0.22825 0.09704 0.54413 0.0
Co462 Co 0.94602 0.22399 0.60013 0.0
C463 C 0.94685 0.21878 0.29252 0.0
C464 C 0.94588 0.25046 0.34851 0.0
C465 C 0.94724 0.24964 0.20367 0.0
N466 N 0.94537 0.23101 0.40321 0.0
N467 N 0.94782 0.22973 0.17005 0.0
H468 H 0.94734 0.20237 0.30178 0.0
H469 H 0.94609 0.26458 0.41021 0.0
C470 C 0.90454 0.22773 0.71228 0.0
O471 O 0.89549 0.20609 0.76365 0.0
N472 N 0.94797 0.21792 0.79982 0.0
C473 C 0.95744 0.20531 0.85679 0.0
C474 C 0.95793 0.20739 1.00123 0.0
C475 C 0.94432 0.22878 0.91106 0.0
N476 N 0.94967 0.22212 0.03398 0.0
C477 C 0.91723 0.17186 0.62198 0.0
C478 C 0.87971 0.16801 0.46398 0.0
C479 C 0.87697 0.14727 0.52939 0.0
C480 C 0.89653 0.14955 0.60722 0.0
C481 C 0.90015 0.19001 0.48709 0.0
N482 N 0.91842 0.19204 0.56907 0.0
H483 H 0.93207 0.17263 0.67674 0.0
H484 H 0.90098 0.20565 0.44065 0.0
H485 H 0.96467 0.19609 0.79796 0.0
H486 H 0.93874 0.2419 0.90303 0.0
O487 O 0.97222 0.21819 0.55931 0.0
O488 O 0.97589 0.25316 0.61592 0.0
O489 O 0.92433 0.23744 0.64509 0.0
C490 C 0.98604 0.24105 0.57864 0.0
H491 H 0.94867 0.26296 0.12971 0.0
H492 H 0.96482 0.19965 0.07546 0.0
H493 H 0.86621 0.16772 0.39595 0.0
H494 H 0.89599 0.13445 0.65947 0.0
Co495 Co 0.06067 0.44457 0.17766 0.0
C496 C 0.06693 0.44972 0.48524 0.0
C497 C 0.03289 0.4198 0.42947 0.0
C498 C 0.03507 0.42043 0.57414 0.0
N499 N 0.05274 0.43826 0.37463 0.0
N500 N 0.05645 0.43917 0.60766 0.0
H501 H 0.08453 0.46521 0.47592 0.0
H502 H 0.01824 0.40642 0.36818 0.0
C503 C 0.01556 0.44092 0.06275 0.0
O504 O 0.02818 0.4622 1.00669 0.0
N505 N 0.06884 0.44988 0.97795 0.0
C506 C 0.09095 0.46186 0.92107 0.0
C507 C 0.08929 0.46002 0.77654 0.0
C508 C 0.0542 0.43955 0.86665 0.0
N509 N 0.06618 0.44605 0.74376 0.0
C510 C 0.08428 0.4966 0.14379 0.0
C511 C 0.05051 0.5017 0.2925 0.0
C512 C 0.06804 0.52167 0.21889 0.0
C513 C 0.08551 0.51887 0.1471 0.0
C514 C 0.04937 0.47965 0.28137 0.0
N515 N 0.0655 0.4769 0.20252 0.0
H516 H 0.09835 0.49542 0.09202 0.0
H517 H 0.03476 0.46448 0.3325 0.0
H518 H 0.10741 0.47074 0.98004 0.0
H519 H 0.03537 0.42698 0.8744 0.0
O520 O 0.09251 0.44986 0.22065 0.0
O521 O 0.06082 0.41505 0.16724 0.0
O522 O 0.02561 0.43142 0.13219 0.0
C523 C 0.08309 0.42688 0.20425 0.0
H524 H 0.02243 0.40773 0.64808 0.0
H525 H 0.10391 0.46757 0.7022 0.0
H526 H 0.03726 0.50265 0.35689 0.0
H527 H 0.0998 0.53347 0.0901 0.0
Co528 Co 0.55802 0.61518 0.14969 0.0
C529 C 0.55279 0.61607 0.45728 0.0
C530 C 0.58405 0.61433 0.40139 0.0
C531 C 0.58327 0.61575 0.54617 0.0
N532 N 0.56484 0.61428 0.34664 0.0
N533 N 0.56364 0.61682 0.57976 0.0
H534 H 0.53661 0.61697 0.44797 0.0
H535 H 0.59799 0.61419 0.33972 0.0
C536 C 0.56161 0.57359 0.03718 0.0
O537 O 0.53999 0.56447 0.98565 0.0
N538 N 0.55215 0.61739 0.95005 0.0
C539 C 0.53977 0.62711 0.89322 0.0
C540 C 0.54176 0.62751 0.74872 0.0
C541 C 0.5628 0.61349 0.83873 0.0
N542 N 0.55621 0.61892 0.71587 0.0
C543 C 0.5058 0.58638 0.12374 0.0
C544 C 0.50163 0.54868 0.28137 0.0
C545 C 0.48109 0.5458 0.21271 0.0
C546 C 0.48352 0.56549 0.1354 0.0
C547 C 0.52362 0.56929 0.26132 0.0
N548 N 0.52586 0.58768 0.17942 0.0
H549 H 0.50666 0.60124 0.06863 0.0
H550 H 0.53912 0.5701 0.30946 0.0
H551 H 0.53069 0.63448 0.95225 0.0
H552 H 0.57571 0.60765 0.84661 0.0
O553 O 0.55283 0.64185 0.19103 0.0
O554 O 0.58745 0.64476 0.13471 0.0
O555 O 0.57123 0.59333 0.10467 0.0
C556 C 0.57577 0.65531 0.1723 0.0
H557 H 0.59645 0.61688 0.62013 0.0
H558 H 0.5341 0.63449 0.6745 0.0
H559 H 0.50123 0.53512 0.34942 0.0
H560 H 0.46858 0.5649 0.08101 0.0
Co561 Co 0.3903 0.94452 0.12757 0.0
C562 C 0.39105 0.93934 0.435 0.0
C563 C 0.38682 0.96919 0.37943 0.0
C564 C 0.38553 0.96681 0.52435 0.0
N565 N 0.39046 0.9521 0.32434 0.0
N566 N 0.3882 0.94806 0.55794 0.0
H567 H 0.39303 0.92378 0.4251 0.0
H568 H 0.3843 0.98183 0.318 0.0
C569 C 0.4291 0.98967 0.99727 0.0
O570 O 0.43714 0.97704 0.93417 0.0
N571 N 0.38937 0.93666 0.92858 0.0
C572 C 0.3878 0.91689 0.87002 0.0
C573 C 0.38715 0.91849 0.72552 0.0
C574 C 0.38846 0.94947 0.81841 0.0
N575 N 0.38768 0.939 0.69408 0.0
C576 C 0.41655 0.91897 0.15639 0.0
C577 C 0.45927 0.95848 0.23038 0.0
C578 C 0.45894 0.9368 0.20972 0.0
C579 C 0.43677 0.91664 0.17721 0.0
C580 C 0.43858 0.95975 0.21284 0.0
N581 N 0.41805 0.94073 0.16372 0.0
H582 H 0.39961 0.90314 0.13781 0.0
H583 H 0.4393 0.97635 0.23773 0.0
H584 H 0.38644 0.90184 0.92639 0.0
H585 H 0.38857 0.96615 0.82907 0.0
O586 O 0.36412 0.9122 0.16598 0.0
O587 O 0.36022 0.94323 0.10695 0.0
O588 O 0.41125 0.97976 0.08118 0.0
C589 C 0.35013 0.92096 0.14354 0.0
H590 H 0.38207 0.97742 0.59818 0.0
H591 H 0.38599 0.90542 0.65014 0.0
H592 H 0.4754 0.97475 0.25745 0.0
H593 H 0.43481 0.89909 0.16902 0.0
Co594 Co 0.55844 0.94286 0.17843 0.0
C595 C 0.55336 0.93658 0.48602 0.0
C596 C 0.58333 0.97059 0.43017 0.0
C597 C 0.58268 0.96842 0.57485 0.0
N598 N 0.56484 0.95075 0.37538 0.0
N599 N 0.56391 0.94706 0.60842 0.0
H600 H 0.53785 0.91899 0.47675 0.0
H601 H 0.59671 0.98523 0.36881 0.0
C602 C 0.56179 0.98788 0.0646 0.0
O603 O 0.54053 0.97516 1.00872 0.0
N604 N 0.55306 0.9347 0.97868 0.0
C605 C 0.5412 0.91256 0.92184 0.0
C606 C 0.54309 0.91421 0.77736 0.0
C607 C 0.56337 0.94936 0.86737 0.0
N608 N 0.55698 0.93735 0.74453 0.0
C609 C 0.50649 0.91929 0.14455 0.0
C610 C 0.50145 0.95304 0.29406 0.0
C611 C 0.48158 0.93569 0.21914 0.0
C612 C 0.4843 0.91818 0.14724 0.0
C613 C 0.52343 0.95406 0.28357 0.0
N614 N 0.52616 0.93798 0.20405 0.0
H615 H 0.50765 0.90523 0.09231 0.0
H616 H 0.53857 0.96861 0.33523 0.0
H617 H 0.53237 0.8961 0.98086 0.0
H618 H 0.57587 0.96822 0.8751 0.0
O619 O 0.55315 0.91103 0.22087 0.0
O620 O 0.58796 0.94273 0.16716 0.0
O621 O 0.57146 0.9779 0.13322 0.0
C622 C 0.57609 0.92043 0.20385 0.0
H623 H 0.59539 0.98105 0.64881 0.0
H624 H 0.53566 0.89958 0.70309 0.0
H625 H 0.50048 0.96628 0.35857 0.0
H626 H 0.46972 0.90401 0.08941 0.0
Co627 Co 0.06012 0.61375 0.13384 0.0
C628 C 0.06523 0.61286 0.44128 0.0
C629 C 0.0354 0.6171 0.3856 0.0
C630 C 0.03785 0.61853 0.53046 0.0
N631 N 0.05243 0.61336 0.3306 0.0
N632 N 0.05659 0.61585 0.56414 0.0
H633 H 0.0808 0.61092 0.43141 0.0
H634 H 0.02283 0.6197 0.32408 0.0
C635 C 0.01514 0.57494 1.00222 0.0
O636 O 0.02788 0.567 0.93953 0.0
N637 N 0.06811 0.61495 0.9348 0.0
C638 C 0.08804 0.6169 0.87628 0.0
C639 C 0.08643 0.61752 0.73174 0.0
C640 C 0.05521 0.61566 0.82456 0.0
N641 N 0.06575 0.61661 0.70025 0.0
C642 C 0.08538 0.58705 0.15919 0.0
C643 C 0.04574 0.54449 0.23419 0.0
C644 C 0.06721 0.54453 0.21116 0.0
C645 C 0.08746 0.56663 0.17826 0.0
C646 C 0.04473 0.56537 0.21843 0.0
N647 N 0.06377 0.58583 0.16873 0.0
H648 H 0.10128 0.60392 0.14022 0.0
H649 H 0.02826 0.56484 0.24463 0.0
H650 H 0.1032 0.61858 0.93277 0.0
H651 H 0.0384 0.61527 0.83507 0.0
O652 O 0.0924 0.63986 0.17357 0.0
O653 O 0.06151 0.64396 0.11477 0.0
O654 O 0.02492 0.5928 0.08627 0.0
C655 C 0.08373 0.65396 0.15206 0.0
H656 H 0.02734 0.62216 0.60415 0.0
H657 H 0.09959 0.61892 0.65636 0.0
H658 H 0.02941 0.52847 0.26169 0.0
H659 H 0.1049 0.5684 0.16839 0.0
Co660 Co 0.38887 0.4453 0.15876 0.0
C661 C 0.38886 0.45099 0.46606 0.0
C662 C 0.38836 0.41855 0.41069 0.0
C663 C 0.38685 0.41941 0.55547 0.0
N664 N 0.38979 0.4384 0.35556 0.0
N665 N 0.38713 0.43977 0.58892 0.0
H666 H 0.38902 0.46772 0.45608 0.0
H667 H 0.38755 0.4041 0.34938 0.0
C668 C 0.4287 0.44049 0.03102 0.0
O669 O 0.43615 0.46094 0.96634 0.0
N670 N 0.38708 0.45161 0.95951 0.0
C671 C 0.38238 0.4679 0.90151 0.0
C672 C 0.38191 0.46579 0.75694 0.0
C673 C 0.38797 0.43887 0.849 0.0
N674 N 0.38556 0.44763 0.72507 0.0
C675 C 0.41529 0.49756 0.16965 0.0
C676 C 0.45777 0.50101 0.2519 0.0
C677 C 0.45799 0.52222 0.216 0.0
C678 C 0.43587 0.52016 0.18046 0.0
C679 C 0.43674 0.4791 0.24433 0.0
N680 N 0.41634 0.47725 0.1906 0.0
H681 H 0.39852 0.49653 0.14679 0.0
H682 H 0.4372 0.46338 0.2774 0.0
H683 H 0.37844 0.47988 0.95866 0.0
H684 H 0.39026 0.4235 0.85886 0.0
O685 O 0.36225 0.4506 0.19866 0.0
O686 O 0.35918 0.41594 0.14186 0.0
O687 O 0.41055 0.43193 0.11266 0.0
C688 C 0.34868 0.42771 0.17831 0.0
H689 H 0.38486 0.40584 0.62939 0.0
H690 H 0.37855 0.47634 0.68189 0.0
H691 H 0.47368 0.50073 0.28227 0.0
H692 H 0.4342 0.53571 0.16123 0.0
Co693 Co 0.2719 0.22016 0.5468 0.0
C694 C 0.26328 0.21591 0.23854 0.0
C695 C 0.29845 0.24429 0.28782 0.0
C696 C 0.29503 0.24436 0.14412 0.0
N697 N 0.27864 0.22623 0.34675 0.0
N698 N 0.27288 0.22655 0.11464 0.0
H699 H 0.24522 0.20142 0.2495 0.0
H700 H 0.31418 0.25687 0.34521 0.0
C701 C 0.321 0.23858 0.68681 0.0
O702 O 0.31203 0.23142 0.81254 0.0
N703 N 0.26396 0.21403 0.74613 0.0
C704 C 0.24913 0.19249 0.8035 0.0
C705 C 0.24894 0.1948 0.94738 0.0
C706 C 0.27122 0.22948 0.85568 0.0
N707 N 0.26322 0.21794 0.9798 0.0
C708 C 0.24853 0.17026 0.45244 0.0
C709 C 0.28189 0.16083 0.57151 0.0
C710 C 0.26392 0.14322 0.48919 0.0
C711 C 0.24653 0.14772 0.43228 0.0
C712 C 0.28299 0.18259 0.59037 0.0
N713 N 0.2673 0.18784 0.52584 0.0
H714 H 0.23484 0.17337 0.41084 0.0
H715 H 0.2963 0.19471 0.66109 0.0
H716 H 0.2397 0.17594 0.74577 0.0
H717 H 0.28373 0.24839 0.84586 0.0
O718 O 0.23971 0.21493 0.51415 0.0
O719 O 0.27196 0.24972 0.55909 0.0
O720 O 0.30772 0.23401 0.57783 0.0
C721 C 0.24946 0.23801 0.52867 0.0
H722 H 0.30792 0.25616 0.0676 0.0
H723 H 0.24038 0.18037 1.02259 0.0
H724 H 0.295 0.15769 0.62326 0.0
H725 H 0.23183 0.13417 0.3716 0.0
Co726 Co 0.77754 0.05399 0.57363 0.0
C727 C 0.78337 0.05426 0.26634 0.0
C728 C 0.75067 0.05317 0.32172 0.0
C729 C 0.75151 0.05157 0.17698 0.0
N730 N 0.77069 0.05501 0.37683 0.0
N731 N 0.77203 0.05221 0.1435 0.0
H732 H 0.80021 0.05468 0.27636 0.0
H733 H 0.7361 0.05207 0.38301 0.0
C734 C 0.77122 0.0928 0.70442 0.0
O735 O 0.7916 0.10054 0.77028 0.0
N736 N 0.78382 0.05211 0.77289 0.0
C737 C 0.80073 0.04836 0.83103 0.0
C738 C 0.79863 0.0479 0.9756 0.0
C739 C 0.77078 0.05243 0.88336 0.0
N740 N 0.77991 0.05063 1.0074 0.0
C741 C 0.82955 0.08112 0.56188 0.0
C742 C 0.83232 0.12367 0.48793 0.0
C743 C 0.85364 0.12404 0.52238 0.0
C744 C 0.85195 0.10192 0.55311 0.0
C745 C 0.8106 0.10242 0.49316 0.0
N746 N 0.8091 0.08197 0.54355 0.0
H747 H 0.82876 0.06436 0.58124 0.0
H748 H 0.79476 0.10272 0.46101 0.0
H749 H 0.81327 0.04523 0.77406 0.0
H750 H 0.75501 0.05403 0.87339 0.0
O751 O 0.78397 0.02815 0.5322 0.0
O752 O 0.74874 0.02376 0.58839 0.0
O753 O 0.76325 0.07489 0.6209 0.0
C754 C 0.76117 0.01396 0.5512 0.0
H755 H 0.73782 0.04928 0.10316 0.0
H756 H 0.8097 0.04532 0.05075 0.0
H757 H 0.83182 0.1396 0.46066 0.0
H758 H 0.86764 0.10042 0.57028 0.0
Co759 Co 0.95204 0.72776 0.52393 0.0
C760 C 0.95323 0.73407 0.21633 0.0
C761 C 0.94903 0.69998 0.27213 0.0
C762 C 0.95067 0.7022 0.1275 0.0
N763 N 0.95041 0.71983 0.32693 0.0
N764 N 0.95335 0.72361 0.09395 0.0
H765 H 0.95539 0.7517 0.22563 0.0
H766 H 0.94773 0.68532 0.33352 0.0
C767 C 0.91035 0.68299 0.6389 0.0
O768 O 0.90182 0.69578 0.69413 0.0
N769 N 0.95497 0.73598 0.72363 0.0
C770 C 0.96535 0.75813 0.78034 0.0
C771 C 0.96559 0.7565 0.92489 0.0
C772 C 0.95056 0.72133 0.83503 0.0
N773 N 0.95622 0.73335 0.95782 0.0
C774 C 0.92391 0.75172 0.55815 0.0
C775 C 0.88521 0.71833 0.40668 0.0
C776 C 0.88274 0.73575 0.48134 0.0
C777 C 0.90294 0.75306 0.55444 0.0
C778 C 0.906 0.71703 0.41853 0.0
N779 N 0.92481 0.73298 0.49849 0.0
H780 H 0.93911 0.76565 0.61117 0.0
H781 H 0.90649 0.7024 0.36711 0.0
H782 H 0.97304 0.77459 0.72119 0.0
H783 H 0.94411 0.70244 0.82743 0.0
O784 O 0.97881 0.75938 0.48101 0.0
O785 O 0.98137 0.72735 0.53503 0.0
O786 O 0.92988 0.69284 0.56957 0.0
C787 C 0.99205 0.74961 0.49766 0.0
H788 H 0.9508 0.68961 0.05355 0.0
H789 H 0.97284 0.77114 0.99912 0.0
H790 H 0.8711 0.70523 0.34111 0.0
H791 H 0.9026 0.76727 0.61225 0.0
Co792 Co 0.44518 0.0606 0.8652 0.0
C793 C 0.45025 0.06691 0.55762 0.0
C794 C 0.42045 0.03277 0.61344 0.0
C795 C 0.42109 0.03493 0.46876 0.0
N796 N 0.43884 0.05269 0.66824 0.0
N797 N 0.43975 0.05638 0.43521 0.0
H798 H 0.46568 0.08455 0.56691 0.0
H799 H 0.40715 0.01807 0.67475 0.0
C800 C 0.44194 0.01561 0.97903 0.0
O801 O 0.46319 0.02834 0.03504 0.0
N802 N 0.4505 0.06876 0.06493 0.0
C803 C 0.46231 0.0909 0.12174 0.0
C804 C 0.46044 0.08925 0.26624 0.0
C805 C 0.44026 0.05409 0.17625 0.0
N806 N 0.44663 0.0661 0.29909 0.0
C807 C 0.49719 0.0842 0.90016 0.0
C808 C 0.50233 0.05053 0.75033 0.0
C809 C 0.52216 0.06783 0.82571 0.0
C810 C 0.51939 0.0853 0.89782 0.0
C811 C 0.48034 0.04953 0.76036 0.0
N812 N 0.47755 0.06557 0.83994 0.0
H813 H 0.496 0.09822 0.95273 0.0
H814 H 0.46523 0.035 0.70832 0.0
H815 H 0.47111 0.10737 0.06268 0.0
H816 H 0.42782 0.03521 0.16853 0.0
O817 O 0.45029 0.09238 0.82263 0.0
O818 O 0.41557 0.06059 0.87618 0.0
O819 O 0.43226 0.02557 0.91042 0.0
C820 C 0.42732 0.08289 0.83945 0.0
H821 H 0.40845 0.02224 0.3948 0.0
H822 H 0.46784 0.10388 0.34052 0.0
H823 H 0.50332 0.03732 0.68571 0.0
H824 H 0.53394 0.09943 0.95604 0.0
Co825 Co 0.94447 0.38926 0.91309 0.0
C826 C 0.93931 0.39007 0.60569 0.0
C827 C 0.96929 0.38607 0.66128 0.0
C828 C 0.96686 0.38468 0.51641 0.0
N829 N 0.95215 0.38963 0.71634 0.0
N830 N 0.94802 0.3872 0.48279 0.0
H831 H 0.92367 0.39191 0.61561 0.0
H832 H 0.98195 0.38363 0.72274 0.0
C833 C 0.98961 0.42795 0.04454 0.0
O834 O 0.97696 0.43597 0.10744 0.0
N835 N 0.93651 0.3881 0.11212 0.0
C836 C 0.91662 0.38623 0.17063 0.0
C837 C 0.91822 0.38561 0.31516 0.0
C838 C 0.94939 0.38736 0.22236 0.0
N839 N 0.93887 0.38646 0.34667 0.0
C840 C 0.91935 0.41606 0.88748 0.0
C841 C 0.95904 0.4586 0.81282 0.0
C842 C 0.93756 0.45858 0.83534 0.0
C843 C 0.9173 0.43649 0.86814 0.0
C844 C 0.96003 0.43771 0.82885 0.0
N845 N 0.94095 0.41726 0.87832 0.0
H846 H 0.90344 0.39921 0.90633 0.0
H847 H 0.9765 0.43823 0.8029 0.0
H848 H 0.90148 0.38462 0.11413 0.0
H849 H 0.96616 0.38768 0.21184 0.0
O850 O 0.91212 0.36327 0.87342 0.0
O851 O 0.94287 0.35894 0.93196 0.0
O852 O 0.97972 0.41009 0.96051 0.0
C853 C 0.92064 0.34905 0.89483 0.0
H854 H 0.97748 0.38123 0.44265 0.0
H855 H 0.90509 0.38428 0.39052 0.0
H856 H 0.97539 0.47462 0.78545 0.0
H857 H 0.89986 0.43473 0.87766 0.0
Co858 Co 0.61707 0.55859 0.90286 0.0
C859 C 0.61798 0.55348 0.59515 0.0
C860 C 0.61745 0.58538 0.65129 0.0
C861 C 0.61881 0.58455 0.50638 0.0
N862 N 0.61663 0.56578 0.70592 0.0
N863 N 0.61908 0.56449 0.47269 0.0
H864 H 0.61824 0.53695 0.60433 0.0
H865 H 0.61789 0.59961 0.71312 0.0
C866 C 0.57496 0.56108 1.01457 0.0
O867 O 0.56648 0.53949 0.0657 0.0
N868 N 0.61888 0.55239 0.10253 0.0
C869 C 0.62847 0.53989 0.15948 0.0
C870 C 0.62907 0.54207 0.30387 0.0
C871 C 0.61527 0.56329 0.21373 0.0
N872 N 0.62077 0.55677 0.33663 0.0
C873 C 0.58869 0.50637 0.92303 0.0
C874 C 0.55126 0.50245 0.76376 0.0
C875 C 0.54847 0.48181 0.83051 0.0
C876 C 0.568 0.48406 0.90842 0.0
C877 C 0.57164 0.52444 0.7869 0.0
N878 N 0.58985 0.52652 0.86978 0.0
H879 H 0.6035 0.50719 0.97845 0.0
H880 H 0.57243 0.54004 0.74035 0.0
H881 H 0.6358 0.53077 0.10064 0.0
H882 H 0.60961 0.57636 0.20557 0.0
O883 O 0.64364 0.55337 0.86303 0.0
O884 O 0.64662 0.58802 0.92074 0.0
O885 O 0.59477 0.57132 0.9475 0.0
C886 C 0.65712 0.57624 0.88356 0.0
H887 H 0.62047 0.59798 0.43248 0.0
H888 H 0.63611 0.53446 0.37804 0.0
H889 H 0.53775 0.50207 0.69533 0.0
H890 H 0.56735 0.46895 0.9612 0.0
Co891 Co 0.72857 0.77925 0.50402 0.0
C892 C 0.73408 0.7851 0.81131 0.0
C893 C 0.70286 0.75204 0.75595 0.0
C894 C 0.70527 0.75296 0.90074 0.0
N895 N 0.72082 0.77223 0.7008 0.0
N896 N 0.72491 0.77372 0.93421 0.0
H897 H 0.7503 0.80212 0.80126 0.0
H898 H 0.68955 0.73733 0.69468 0.0
C899 C 0.68338 0.77268 0.37299 0.0
O900 O 0.69591 0.79305 0.30668 0.0
N901 N 0.73661 0.78573 0.30484 0.0
C902 C 0.75697 0.80312 0.24662 0.0
C903 C 0.75536 0.80099 0.10209 0.0
C904 C 0.72346 0.77244 0.19446 0.0
N905 N 0.73423 0.7818 0.07035 0.0
C906 C 0.75367 0.83137 0.52096 0.0
C907 C 0.71389 0.83419 0.59319 0.0
C908 C 0.73505 0.8556 0.56337 0.0
C909 C 0.75542 0.85385 0.53264 0.0
C910 C 0.71323 0.81238 0.58478 0.0
N911 N 0.73226 0.81089 0.53581 0.0
H912 H 0.76964 0.83052 0.50254 0.0
H913 H 0.69695 0.7965 0.61459 0.0
H914 H 0.77244 0.81607 0.30343 0.0
H915 H 0.70634 0.75637 0.20464 0.0
O916 O 0.76084 0.78536 0.54414 0.0
O917 O 0.72977 0.75035 0.48721 0.0
O918 O 0.69339 0.76496 0.4576 0.0
C919 C 0.75202 0.76254 0.52386 0.0
H920 H 0.69402 0.7392 0.97462 0.0
H921 H 0.76881 0.81239 0.02692 0.0
H922 H 0.69747 0.83375 0.61973 0.0
H923 H 0.7727 0.86957 0.51819 0.0
Co924 Co 0.22627 0.94845 0.46643 0.0
C925 C 0.22046 0.94818 0.77373 0.0
C926 C 0.25344 0.94985 0.71834 0.0
C927 C 0.25253 0.95134 0.86312 0.0
N928 N 0.23329 0.94771 0.66322 0.0
N929 N 0.23182 0.95032 0.89659 0.0
H930 H 0.20347 0.94744 0.76372 0.0
H931 H 0.26811 0.95119 0.65703 0.0
C932 C 0.2324 0.90955 0.33673 0.0
O933 O 0.21197 0.90181 0.27139 0.0
N934 N 0.21981 0.95005 0.26718 0.0
C935 C 0.20271 0.95349 0.20895 0.0
C936 C 0.20485 0.95402 0.06442 0.0
C937 C 0.23297 0.94993 0.15679 0.0
N938 N 0.22378 0.95163 0.03271 0.0
C939 C 0.17433 0.92153 0.4814 0.0
C940 C 0.17148 0.87895 0.5554 0.0
C941 C 0.15016 0.87867 0.52218 0.0
C942 C 0.1519 0.90081 0.49154 0.0
C943 C 0.19323 0.90013 0.54887 0.0
N944 N 0.19474 0.92057 0.49821 0.0
H945 H 0.17517 0.93833 0.46222 0.0
H946 H 0.20907 0.89979 0.5803 0.0
H947 H 0.19001 0.95639 0.26578 0.0
H948 H 0.24887 0.94857 0.16691 0.0
O949 O 0.21986 0.9743 0.50647 0.0
O950 O 0.25507 0.97863 0.44982 0.0
O951 O 0.24048 0.9275 0.41987 0.0
C952 C 0.24262 0.98845 0.48622 0.0
H953 H 0.26627 0.95381 0.937 0.0
H954 H 0.19369 0.95644 0.98924 0.0
H955 H 0.17193 0.863 0.58264 0.0
H956 H 0.13622 0.90238 0.47543 0.0
Co957 Co 0.05179 0.27549 0.52495 0.0
C958 C 0.05064 0.26924 0.83255 0.0
C959 C 0.05427 0.3031 0.77662 0.0
C960 C 0.05264 0.30087 0.92129 0.0
N961 N 0.05325 0.2834 0.72191 0.0
N962 N 0.05034 0.27961 0.95491 0.0
H963 H 0.04878 0.25174 0.82329 0.0
H964 H 0.05529 0.31762 0.71511 0.0
C965 C 0.09361 0.32003 0.40961 0.0
O966 O 0.10181 0.307 0.3539 0.0
N967 N 0.04901 0.26729 0.32523 0.0
C968 C 0.03879 0.24516 0.26845 0.0
C969 C 0.03849 0.24679 0.12393 0.0
C970 C 0.05323 0.28193 0.21388 0.0
N971 N 0.04763 0.26992 0.09105 0.0
C972 C 0.07987 0.25149 0.49306 0.0
C973 C 0.11861 0.28513 0.64338 0.0
C974 C 0.12105 0.26762 0.56976 0.0
C975 C 0.10085 0.25018 0.49727 0.0
C976 C 0.09779 0.28635 0.63129 0.0
N977 N 0.07898 0.27029 0.55165 0.0
H978 H 0.06466 0.23748 0.44052 0.0
H979 H 0.09727 0.30101 0.68206 0.0
H980 H 0.03117 0.2287 0.32752 0.0
H981 H 0.05952 0.30078 0.22163 0.0
O982 O 0.02501 0.24386 0.56735 0.0
O983 O 0.02241 0.27585 0.51275 0.0
O984 O 0.07411 0.31042 0.4794 0.0
C985 C 0.01173 0.25357 0.54996 0.0
H986 H 0.05224 0.31333 0.99519 0.0
H987 H 0.0313 0.23215 0.04968 0.0
H988 H 0.13277 0.29833 0.70823 0.0
H989 H 0.1012 0.23591 0.44023 0.0
Co990 Co 0.22082 0.27539 0.48539 0.0
C991 C 0.21493 0.27008 0.79271 0.0
C992 C 0.2487 0.30037 0.73732 0.0
C993 C 0.24762 0.29802 0.88223 0.0
N994 N 0.22816 0.28298 0.68213 0.0
N995 N 0.2264 0.27898 0.91571 0.0
H996 H 0.19755 0.25433 0.78268 0.0
H997 H 0.2637 0.31325 0.67601 0.0
C998 C 0.22778 0.32088 0.35529 0.0
O999 O 0.20714 0.30851 0.29156 0.0
N1000 N 0.21396 0.26753 0.28635 0.0
C1001 C 0.19587 0.24769 0.22785 0.0
C1002 C 0.19808 0.24928 0.08336 0.0
C1003 C 0.22759 0.28039 0.17615 0.0
N1004 N 0.21794 0.26989 0.05186 0.0
C1005 C 0.16903 0.25028 0.5118 0.0
C1006 C 0.16612 0.29002 0.58454 0.0
C1007 C 0.14471 0.26848 0.56245 0.0
C1008 C 0.14655 0.24819 0.53073 0.0
C1009 C 0.188 0.29104 0.56896 0.0
N1010 N 0.18939 0.27193 0.52032 0.0
H1011 H 0.17 0.23436 0.49357 0.0
H1012 H 0.20393 0.30755 0.59462 0.0
H1013 H 0.1823 0.23257 0.28433 0.0
H1014 H 0.24411 0.29712 0.18672 0.0
O1015 O 0.21432 0.24293 0.52432 0.0
O1016 O 0.2494 0.27371 0.46584 0.0
O1017 O 0.23547 0.31071 0.43905 0.0
C1018 C 0.23703 0.25145 0.50245 0.0
H1019 H 0.26155 0.3089 0.95617 0.0
H1020 H 0.18624 0.23617 1.00803 0.0
H1021 H 0.16641 0.30638 0.61113 0.0
H1022 H 0.13088 0.23072 0.52161 0.0
Co1023 Co 0.72703 0.94804 0.50017 0.0
C1024 C 0.73314 0.94892 0.80781 0.0
C1025 C 0.70012 0.94713 0.75172 0.0
C1026 C 0.70232 0.94858 0.89651 0.0
N1027 N 0.71928 0.94708 0.69709 0.0
N1028 N 0.72303 0.94967 0.93023 0.0
H1029 H 0.75024 0.94986 0.79859 0.0
H1030 H 0.68605 0.94701 0.68992 0.0
C1031 C 0.68228 0.90604 0.38722 0.0
O1032 O 0.69512 0.89732 0.33533 0.0
N1033 N 0.73513 0.9503 0.30056 0.0
C1034 C 0.75723 0.96018 0.24378 0.0
C1035 C 0.75562 0.96057 0.09928 0.0
C1036 C 0.72056 0.94631 0.18921 0.0
N1037 N 0.73257 0.95183 0.06636 0.0
C1038 C 0.75106 0.91976 0.47482 0.0
C1039 C 0.71761 0.88172 0.63064 0.0
C1040 C 0.7354 0.8791 0.56173 0.0
C1041 C 0.75265 0.89896 0.48566 0.0
C1042 C 0.71607 0.90228 0.6117 0.0
N1043 N 0.73214 0.9208 0.53031 0.0
H1044 H 0.76501 0.93474 0.42034 0.0
H1045 H 0.70129 0.90291 0.65988 0.0
H1046 H 0.77367 0.96768 0.30283 0.0
H1047 H 0.70177 0.94032 0.19707 0.0
O1048 O 0.7587 0.97502 0.54131 0.0
O1049 O 0.7267 0.9774 0.48475 0.0
O1050 O 0.69207 0.92575 0.45508 0.0
C1051 C 0.74894 0.98824 0.52221 0.0
H1052 H 0.69029 0.94976 0.97037 0.0
H1053 H 0.77026 0.96767 0.02509 0.0
H1054 H 0.70447 0.86795 0.69776 0.0
H1055 H 0.76709 0.8985 0.43143 0.0
Co1056 Co 0.05768 0.77892 0.4461 0.0
C1057 C 0.05683 0.78412 0.75371 0.0
C1058 C 0.05788 0.75248 0.69774 0.0
C1059 C 0.05653 0.7533 0.84258 0.0
N1060 N 0.05834 0.7719 0.64302 0.0
N1061 N 0.05589 0.77318 0.87618 0.0
H1062 H 0.0563 0.80051 0.74444 0.0
H1063 H 0.05773 0.73838 0.63607 0.0
C1064 C 0.0991 0.77507 0.33385 0.0
O1065 O 0.10816 0.79671 0.28247 0.0
N1066 N 0.05571 0.78498 0.2464 0.0
C1067 C 0.04624 0.79759 0.1894 0.0
C1068 C 0.04575 0.7955 0.04497 0.0
C1069 C 0.05935 0.77412 0.13517 0.0
N1070 N 0.05401 0.78078 1.01225 0.0
C1071 C 0.08652 0.83099 0.42392 0.0
C1072 C 0.12403 0.8348 0.5818 0.0
C1073 C 0.1268 0.85552 0.51602 0.0
C1074 C 0.10724 0.85328 0.43834 0.0
C1075 C 0.10357 0.81282 0.55896 0.0
N1076 N 0.08531 0.81082 0.47694 0.0
H1077 H 0.07168 0.83023 0.36925 0.0
H1078 H 0.10271 0.79718 0.60554 0.0
H1079 H 0.03902 0.80682 0.24822 0.0
H1080 H 0.06493 0.76099 0.1432 0.0
O1081 O 0.0316 0.78488 0.48716 0.0
O1082 O 0.02774 0.74983 0.43061 0.0
O1083 O 0.0793 0.76538 0.401 0.0
C1084 C 0.0177 0.76204 0.46807 0.0
H1085 H 0.05515 0.74 0.91655 0.0
H1086 H 0.03887 0.80326 0.97072 0.0
H1087 H 0.13754 0.8351 0.64979 0.0
H1088 H 0.10782 0.86837 0.38588 0.0
Co1089 Co 0.94426 0.55858 0.86788 0.0
C1090 C 0.938 0.55343 0.56031 0.0
C1091 C 0.97204 0.58336 0.6161 0.0
C1092 C 0.96985 0.58275 0.47144 0.0
N1093 N 0.9522 0.56489 0.67091 0.0
N1094 N 0.94847 0.564 0.4379 0.0
H1095 H 0.9204 0.53795 0.56962 0.0
H1096 H 0.98668 0.59674 0.67743 0.0
C1097 C 0.98923 0.562 0.983 0.0
O1098 O 0.97652 0.54073 0.03907 0.0
N1099 N 0.93608 0.55329 0.06761 0.0
C1100 C 0.91397 0.54136 0.12447 0.0
C1101 C 0.91562 0.5432 0.269 0.0
C1102 C 0.95072 0.5636 0.17892 0.0
N1103 N 0.93874 0.55713 0.30179 0.0
C1104 C 0.92054 0.50654 0.90183 0.0
C1105 C 0.95426 0.50135 0.75329 0.0
C1106 C 0.93674 0.48143 0.82719 0.0
C1107 C 0.91928 0.48426 0.89883 0.0
C1108 C 0.95542 0.52342 0.76408 0.0
N1109 N 0.93932 0.52621 0.84292 0.0
H1110 H 0.90648 0.50776 0.95359 0.0
H1111 H 0.97004 0.53856 0.71283 0.0
H1112 H 0.89751 0.5325 0.06547 0.0
H1113 H 0.96957 0.57615 0.17118 0.0
O1114 O 0.91249 0.55343 0.82497 0.0
O1115 O 0.94427 0.58818 0.87845 0.0
O1116 O 0.97927 0.57158 0.91343 0.0
C1117 C 0.922 0.57642 0.84146 0.0
H1118 H 0.98246 0.59547 0.3975 0.0
H1119 H 0.90101 0.53568 0.34332 0.0
H1120 H 0.9675 0.50036 0.689 0.0
H1121 H 0.90499 0.46969 0.95601 0.0
Co1122 Co 0.44877 0.38943 0.8836 0.0
C1123 C 0.45467 0.38988 0.57628 0.0
C1124 C 0.42151 0.38781 0.63158 0.0
C1125 C 0.42244 0.38631 0.48679 0.0
N1126 N 0.44175 0.39019 0.68677 0.0
N1127 N 0.44327 0.38759 0.45336 0.0
H1128 H 0.47173 0.39078 0.58637 0.0
H1129 H 0.40675 0.38628 0.69286 0.0
C1130 C 0.4421 0.42799 1.01459 0.0
O1131 O 0.46247 0.43597 0.08092 0.0
N1132 N 0.45528 0.38788 0.08276 0.0
C1133 C 0.47279 0.3851 0.14109 0.0
C1134 C 0.47066 0.3846 0.28562 0.0
C1135 C 0.44196 0.38767 0.1931 0.0
N1136 N 0.45137 0.38636 0.31726 0.0
C1137 C 0.50067 0.41595 0.86489 0.0
C1138 C 0.50375 0.45883 0.7963 0.0
C1139 C 0.52502 0.4588 0.82572 0.0
C1140 C 0.52318 0.43656 0.854 0.0
C1141 C 0.48192 0.43778 0.80366 0.0
N1142 N 0.48034 0.41717 0.85151 0.0
H1143 H 0.49967 0.39902 0.88196 0.0
H1144 H 0.46611 0.43835 0.77434 0.0
H1145 H 0.48585 0.38274 0.08441 0.0
H1146 H 0.42583 0.38862 0.18283 0.0
O1147 O 0.4548 0.36325 0.84306 0.0
O1148 O 0.41993 0.35964 0.90102 0.0
O1149 O 0.43451 0.4103 0.92997 0.0
C1150 C 0.43196 0.34947 0.86341 0.0
H1151 H 0.40865 0.38367 0.4129 0.0
H1152 H 0.48215 0.3827 0.36086 0.0
H1153 H 0.50343 0.47494 0.77138 0.0
H1154 H 0.53883 0.43486 0.86759 0.0
Co1155 Co 0.61353 0.0589 0.9155 0.0
C1156 C 0.61276 0.06408 0.60807 0.0
C1157 C 0.6168 0.03411 0.66369 0.0
C1158 C 0.61813 0.03651 0.51879 0.0
N1159 N 0.61324 0.05127 0.71874 0.0
N1160 N 0.61558 0.05534 0.48517 0.0
H1161 H 0.61089 0.07971 0.61796 0.0
H1162 H 0.61925 0.02144 0.72516 0.0
C1163 C 0.57465 0.01382 0.04613 0.0
O1164 O 0.56666 0.02648 0.10928 0.0
N1165 N 0.61459 0.06682 0.11451 0.0
C1166 C 0.6164 0.08669 0.17303 0.0
C1167 C 0.61702 0.08508 0.31754 0.0
C1168 C 0.61533 0.05393 0.22471 0.0
N1169 N 0.61623 0.06445 0.34902 0.0
C1170 C 0.58725 0.08454 0.88814 0.0
C1171 C 0.54453 0.04507 0.81368 0.0
C1172 C 0.54483 0.06672 0.83512 0.0
C1173 C 0.567 0.08686 0.86801 0.0
C1174 C 0.56524 0.04381 0.83066 0.0
N1175 N 0.58579 0.06279 0.87987 0.0
H1176 H 0.60419 0.10036 0.90689 0.0
H1177 H 0.56451 0.02721 0.80533 0.0
H1178 H 0.61797 0.10182 0.11659 0.0
H1179 H 0.61504 0.03715 0.21413 0.0
O1180 O 0.63984 0.09116 0.87667 0.0
O1181 O 0.64355 0.06003 0.9356 0.0
O1182 O 0.59249 0.02369 0.96212 0.0
C1183 C 0.65375 0.08229 0.89878 0.0
H1184 H 0.62157 0.02587 0.44501 0.0
H1185 H 0.61834 0.09822 0.3929 0.0
H1186 H 0.52841 0.02881 0.78638 0.0
H1187 H 0.56894 0.1044 0.87694 0.0
loop_
_geom_bond_atom_site_label_1
_geom_bond_atom_site_label_2
_geom_bond_distance
_geom_bond_site_symmetry_2
_ccdc_geom_bond_type
Co0 N4 2.148 . S
Co0 N10 2.128 . S
Co0 N20 2.194 . S
Co0 O25 2.351 . S
Co0 O26 2.155 . S
Co0 O27 2.096 . S
C1 N4 1.301 1_556 S
C1 N5 1.328 . S
C1 H6 0.930 . S
C2 C3 1.333 . S
C2 N4 1.317 1_556 S
C2 H7 0.930 1_556 S
C3 C2 1.333 . S
C3 N5 1.350 . S
C3 H29 0.931 . S
N4 Co0 2.148 . S
N4 C1 1.301 1_554 S
N4 C2 1.317 1_554 S
N5 C1 1.328 . S
N5 C3 1.350 . S
H6 C1 0.930 . S
H7 C2 0.930 1_554 S
C8 O9 1.224 . S
C8 O27 1.247 . S
O9 C8 1.224 . S
N10 Co0 2.128 . S
N10 C11 1.355 . S
N10 C13 1.311 . S
C11 N10 1.355 . S
C11 C12 1.363 . S
C11 H23 0.929 . S
C12 C11 1.363 . S
C12 N14 1.375 . S
C12 H30 0.931 . S
C13 N10 1.311 . S
C13 N14 1.347 . S
C13 H24 0.929 . S
N14 C12 1.375 . S
N14 C13 1.347 . S
C15 C18 1.365 . S
C15 N20 1.328 . S
C15 H21 0.929 . S
C16 C17 1.362 . S
C16 C19 1.378 . S
C16 H31 0.929 . S
C17 C16 1.362 . S
C17 C18 1.366 . S
C18 C15 1.365 . S
C18 C17 1.366 . S
C18 H32 0.930 . S
C19 C16 1.378 . S
C19 N20 1.315 . S
C19 H22 0.930 . S
N20 Co0 2.194 . S
N20 C15 1.328 . S
N20 C19 1.315 . S
H21 C15 0.929 . S
H22 C19 0.930 . S
H23 C11 0.929 . S
H24 C13 0.929 . S
O25 Co0 2.351 . S
O25 C28 1.244 . S
O26 Co0 2.155 . S
O26 C28 1.240 . S
O27 Co0 2.096 . S
O27 C8 1.247 . S
C28 O25 1.244 . S
C28 O26 1.240 . S
H29 C3 0.931 . S
H30 C12 0.931 . S
H31 C16 0.929 . S
H32 C18 0.930 . S
Co33 N37 2.148 . S
Co33 N43 2.128 . S
Co33 N53 2.194 . S
Co33 O58 2.351 . S
Co33 O59 2.155 . S
Co33 O60 2.096 . S
C34 N37 1.301 1_556 S
C34 N38 1.328 . S
C34 H39 0.930 . S
C35 C36 1.333 . S
C35 N37 1.317 1_556 S
C35 H40 0.930 1_556 S
C36 C35 1.333 . S
C36 N38 1.350 . S
C36 H62 0.931 . S
N37 Co33 2.148 . S
N37 C34 1.301 1_554 S
N37 C35 1.317 1_554 S
N38 C34 1.328 . S
N38 C36 1.350 . S
H39 C34 0.930 . S
H40 C35 0.930 1_554 S
C41 O42 1.224 . S
C41 O60 1.247 . S
O42 C41 1.224 . S
N43 Co33 2.128 . S
N43 C44 1.355 . S
N43 C46 1.311 . S
C44 N43 1.355 . S
C44 C45 1.363 . S
C44 H56 0.929 . S
C45 C44 1.363 . S
C45 N47 1.375 . S
C45 H63 0.931 . S
C46 N43 1.311 . S
C46 N47 1.347 . S
C46 H57 0.929 . S
N47 C45 1.375 . S
N47 C46 1.347 . S
C48 C51 1.365 . S
C48 N53 1.328 . S
C48 H54 0.929 . S
C49 C50 1.362 . S
C49 C52 1.378 . S
C49 H64 0.929 . S
C50 C49 1.362 . S
C50 C51 1.366 . S
C51 C48 1.365 . S
C51 C50 1.366 . S
C51 H65 0.930 . S
C52 C49 1.378 . S
C52 N53 1.315 . S
C52 H55 0.930 . S
N53 Co33 2.194 . S
N53 C48 1.328 . S
N53 C52 1.315 . S
H54 C48 0.929 . S
H55 C52 0.930 . S
H56 C44 0.929 . S
H57 C46 0.929 . S
O58 Co33 2.351 . S
O58 C61 1.244 . S
O59 Co33 2.155 . S
O59 C61 1.240 . S
O60 Co33 2.096 . S
O60 C41 1.247 . S
C61 O58 1.244 . S
C61 O59 1.240 . S
H62 C36 0.931 . S
H63 C45 0.931 . S
H64 C49 0.929 . S
H65 C51 0.930 . S
Co66 N70 2.148 . S
Co66 N76 2.128 . S
Co66 N86 2.194 . S
Co66 O91 2.351 . S
Co66 O92 2.155 . S
Co66 O93 2.096 . S
C67 N70 1.301 1_556 S
C67 N71 1.328 . S
C67 H72 0.930 . S
C68 C69 1.333 . S
C68 N70 1.317 1_556 S
C68 H73 0.930 1_556 S
C69 C68 1.333 . S
C69 N71 1.350 . S
C69 H95 0.931 . S
N70 Co66 2.148 . S
N70 C67 1.301 1_554 S
N70 C68 1.317 1_554 S
N71 C67 1.328 . S
N71 C69 1.350 . S
H72 C67 0.930 . S
H73 C68 0.930 1_554 S
C74 O75 1.224 . S
C74 O93 1.247 . S
O75 C74 1.224 . S
N76 Co66 2.128 . S
N76 C77 1.355 . S
N76 C79 1.311 . S
C77 N76 1.355 . S
C77 C78 1.363 . S
C77 H89 0.929 . S
C78 C77 1.363 . S
C78 N80 1.375 . S
C78 H96 0.931 . S
C79 N76 1.311 . S
C79 N80 1.347 . S
C79 H90 0.929 . S
N80 C78 1.375 . S
N80 C79 1.347 . S
C81 C84 1.365 . S
C81 N86 1.328 . S
C81 H87 0.929 . S
C82 C83 1.362 . S
C82 C85 1.378 . S
C82 H97 0.929 . S
C83 C82 1.362 . S
C83 C84 1.366 . S
C84 C81 1.365 . S
C84 C83 1.366 . S
C84 H98 0.930 . S
C85 C82 1.378 . S
C85 N86 1.315 . S
C85 H88 0.930 . S
N86 Co66 2.194 . S
N86 C81 1.328 . S
N86 C85 1.315 . S
H87 C81 0.929 . S
H88 C85 0.930 . S
H89 C77 0.929 . S
H90 C79 0.929 . S
O91 Co66 2.351 . S
O91 C94 1.244 . S
O92 Co66 2.155 . S
O92 C94 1.240 . S
O93 Co66 2.096 . S
O93 C74 1.247 . S
C94 O91 1.244 . S
C94 O92 1.240 . S
H95 C69 0.931 . S
H96 C78 0.931 . S
H97 C82 0.929 . S
H98 C84 0.930 . S
Co99 N103 2.148 . S
Co99 N109 2.128 . S
Co99 N119 2.194 . S
Co99 O124 2.351 . S
Co99 O125 2.155 . S
Co99 O126 2.096 . S
C100 N103 1.301 1_554 S
C100 N104 1.328 . S
C100 H105 0.930 . S
C101 C102 1.333 . S
C101 N103 1.317 1_554 S
C101 H106 0.930 1_554 S
C102 C101 1.333 . S
C102 N104 1.350 . S
C102 H128 0.931 . S
N103 Co99 2.148 . S
N103 C100 1.301 1_556 S
N103 C101 1.317 1_556 S
N104 C100 1.328 . S
N104 C102 1.350 . S
H105 C100 0.930 . S
H106 C101 0.930 1_556 S
C107 O108 1.224 . S
C107 O126 1.247 . S
O108 C107 1.224 . S
N109 Co99 2.128 . S
N109 C110 1.355 . S
N109 C112 1.311 . S
C110 N109 1.355 . S
C110 C111 1.363 . S
C110 H122 0.929 . S
C111 C110 1.363 . S
C111 N113 1.375 . S
C111 H129 0.931 . S
C112 N109 1.311 . S
C112 N113 1.347 . S
C112 H123 0.929 . S
N113 C111 1.375 . S
N113 C112 1.347 . S
C114 C117 1.365 . S
C114 N119 1.328 . S
C114 H120 0.929 . S
C115 C116 1.362 . S
C115 C118 1.378 . S
C115 H130 0.929 . S
C116 C115 1.362 . S
C116 C117 1.366 . S
C117 C114 1.365 . S
C117 C116 1.366 . S
C117 H131 0.930 . S
C118 C115 1.378 . S
C118 N119 1.315 . S
C118 H121 0.930 . S
N119 Co99 2.194 . S
N119 C114 1.328 . S
N119 C118 1.315 . S
H120 C114 0.929 . S
H121 C118 0.930 . S
H122 C110 0.929 . S
H123 C112 0.929 . S
O124 Co99 2.351 . S
O124 C127 1.244 . S
O125 Co99 2.155 . S
O125 C127 1.240 . S
O126 Co99 2.096 . S
O126 C107 1.247 . S
C127 O124 1.244 . S
C127 O125 1.240 . S
H128 C102 0.931 . S
H129 C111 0.931 . S
H130 C115 0.929 . S
H131 C117 0.930 . S
Co132 N136 2.148 . S
Co132 N142 2.128 . S
Co132 N152 2.194 . S
Co132 O157 2.351 . S
Co132 O158 2.155 . S
Co132 O159 2.096 . S
C133 N136 1.301 1_554 S
C133 N137 1.328 . S
C133 H138 0.930 . S
C134 C135 1.333 . S
C134 N136 1.317 1_554 S
C134 H139 0.930 1_554 S
C135 C134 1.333 . S
C135 N137 1.350 . S
C135 H161 0.931 . S
N136 Co132 2.148 . S
N136 C133 1.301 1_556 S
N136 C134 1.317 1_556 S
N137 C133 1.328 . S
N137 C135 1.350 . S
H138 C133 0.930 . S
H139 C134 0.930 1_556 S
C140 O141 1.224 . S
C140 O159 1.247 . S
O141 C140 1.224 . S
N142 Co132 2.128 . S
N142 C143 1.355 . S
N142 C145 1.311 . S
C143 N142 1.355 . S
C143 C144 1.363 . S
C143 H155 0.929 . S
C144 C143 1.363 . S
C144 N146 1.375 . S
C144 H162 0.931 . S
C145 N142 1.311 . S
C145 N146 1.347 . S
C145 H156 0.929 . S
N146 C144 1.375 . S
N146 C145 1.347 . S
C147 C150 1.365 . S
C147 N152 1.328 . S
C147 H153 0.929 . S
C148 C149 1.362 . S
C148 C151 1.378 . S
C148 H163 0.929 . S
C149 C148 1.362 . S
C149 C150 1.366 . S
C150 C147 1.365 . S
C150 C149 1.366 . S
C150 H164 0.930 . S
C151 C148 1.378 . S
C151 N152 1.315 . S
C151 H154 0.930 . S
N152 Co132 2.194 . S
N152 C147 1.328 . S
N152 C151 1.315 . S
H153 C147 0.929 . S
H154 C151 0.930 . S
H155 C143 0.929 . S
H156 C145 0.929 . S
O157 Co132 2.351 . S
O157 C160 1.244 . S
O158 Co132 2.155 . S
O158 C160 1.240 . S
O159 Co132 2.096 . S
O159 C140 1.247 . S
C160 O157 1.244 . S
C160 O158 1.240 . S
H161 C135 0.931 . S
H162 C144 0.931 . S
H163 C148 0.929 . S
H164 C150 0.930 . S
Co165 N169 2.148 . S
Co165 N175 2.128 . S
Co165 N185 2.194 . S
Co165 O190 2.351 . S
Co165 O191 2.155 . S
Co165 O192 2.096 . S
C166 N169 1.301 1_554 S
C166 N170 1.328 . S
C166 H171 0.930 . S
C167 C168 1.333 . S
C167 N169 1.317 1_554 S
C167 H172 0.930 1_554 S
C168 C167 1.333 . S
C168 N170 1.350 . S
C168 H194 0.931 . S
N169 Co165 2.148 . S
N169 C166 1.301 1_556 S
N169 C167 1.317 1_556 S
N170 C166 1.328 . S
N170 C168 1.350 . S
H171 C166 0.930 . S
H172 C167 0.930 1_556 S
C173 O174 1.224 . S
C173 O192 1.247 . S
O174 C173 1.224 . S
N175 Co165 2.128 . S
N175 C176 1.355 . S
N175 C178 1.311 . S
C176 N175 1.355 . S
C176 C177 1.363 . S
C176 H188 0.929 . S
C177 C176 1.363 . S
C177 N179 1.375 . S
C177 H195 0.931 . S
C178 N175 1.311 . S
C178 N179 1.347 . S
C178 H189 0.929 . S
N179 C177 1.375 . S
N179 C178 1.347 . S
C180 C183 1.365 . S
C180 N185 1.328 . S
C180 H186 0.929 . S
C181 C182 1.362 . S
C181 C184 1.378 . S
C181 H196 0.929 . S
C182 C181 1.362 . S
C182 C183 1.366 . S
C183 C180 1.365 . S
C183 C182 1.366 . S
C183 H197 0.930 . S
C184 C181 1.378 . S
C184 N185 1.315 . S
C184 H187 0.930 . S
N185 Co165 2.194 . S
N185 C180 1.328 . S
N185 C184 1.315 . S
H186 C180 0.929 . S
H187 C184 0.930 . S
H188 C176 0.929 . S
H189 C178 0.929 . S
O190 Co165 2.351 . S
O190 C193 1.244 . S
O191 Co165 2.155 . S
O191 C193 1.240 . S
O192 Co165 2.096 . S
O192 C173 1.247 . S
C193 O190 1.244 . S
C193 O191 1.240 . S
H194 C168 0.931 . S
H195 C177 0.931 . S
H196 C181 0.929 . S
H197 C183 0.930 . S
Co198 N202 2.148 . S
Co198 N208 2.128 . S
Co198 N218 2.194 . S
Co198 O223 2.351 . S
Co198 O224 2.155 . S
Co198 O225 2.096 . S
C199 N202 1.301 1_554 S
C199 N203 1.328 . S
C199 H204 0.930 . S
C200 C201 1.333 . S
C200 N202 1.317 1_554 S
C200 H205 0.930 1_554 S
C201 C200 1.333 . S
C201 N203 1.350 . S
C201 H227 0.931 . S
N202 Co198 2.148 . S
N202 C199 1.301 1_556 S
N202 C200 1.317 1_556 S
N203 C199 1.328 . S
N203 C201 1.350 . S
H204 C199 0.930 . S
H205 C200 0.930 1_556 S
C206 O207 1.224 . S
C206 O225 1.247 . S
O207 C206 1.224 . S
N208 Co198 2.128 . S
N208 C209 1.355 . S
N208 C211 1.311 . S
C209 N208 1.355 . S
C209 C210 1.363 . S
C209 H221 0.929 . S
C210 C209 1.363 . S
C210 N212 1.375 . S
C210 H228 0.931 . S
C211 N208 1.311 . S
C211 N212 1.347 . S
C211 H222 0.929 . S
N212 C210 1.375 . S
N212 C211 1.347 . S
C213 C216 1.365 . S
C213 N218 1.328 . S
C213 H219 0.929 . S
C214 C215 1.362 . S
C214 C217 1.378 . S
C214 H229 0.929 . S
C215 C214 1.362 . S
C215 C216 1.366 . S
C216 C213 1.365 . S
C216 C215 1.366 . S
C216 H230 0.930 . S
C217 C214 1.378 . S
C217 N218 1.315 . S
C217 H220 0.930 . S
N218 Co198 2.194 . S
N218 C213 1.328 . S
N218 C217 1.315 . S
H219 C213 0.929 . S
H220 C217 0.930 . S
H221 C209 0.929 . S
H222 C211 0.929 . S
O223 Co198 2.351 . S
O223 C226 1.244 . S
O224 Co198 2.155 . S
O224 C226 1.240 . S
O225 Co198 2.096 . S
O225 C206 1.247 . S
C226 O223 1.244 . S
C226 O224 1.240 . S
H227 C201 0.931 . S
H228 C210 0.931 . S
H229 C214 0.929 . S
H230 C216 0.930 . S
Co231 N235 2.148 . S
Co231 N241 2.128 . S
Co231 N251 2.194 . S
Co231 O256 2.351 . S
Co231 O257 2.155 . S
Co231 O258 2.096 . S
C232 N235 1.301 1_554 S
C232 N236 1.328 . S
C232 H237 0.930 . S
C233 C234 1.333 . S
C233 N235 1.317 1_554 S
C233 H238 0.930 1_554 S
C234 C233 1.333 . S
C234 N236 1.350 . S
C234 H260 0.931 . S
N235 Co231 2.148 . S
N235 C232 1.301 1_556 S
N235 C233 1.317 1_556 S
N236 C232 1.328 . S
N236 C234 1.350 . S
H237 C232 0.930 . S
H238 C233 0.930 1_556 S
C239 O240 1.224 . S
C239 O258 1.247 . S
O240 C239 1.224 . S
N241 Co231 2.128 . S
N241 C242 1.355 . S
N241 C244 1.311 . S
C242 N241 1.355 . S
C242 C243 1.363 . S
C242 H254 0.929 . S
C243 C242 1.363 . S
C243 N245 1.375 . S
C243 H261 0.931 . S
C244 N241 1.311 . S
C244 N245 1.347 . S
C244 H255 0.929 . S
N245 C243 1.375 . S
N245 C244 1.347 . S
C246 C249 1.365 . S
C246 N251 1.328 . S
C246 H252 0.929 . S
C247 C248 1.362 . S
C247 C250 1.378 . S
C247 H262 0.929 . S
C248 C247 1.362 . S
C248 C249 1.366 . S
C249 C246 1.365 . S
C249 C248 1.366 . S
C249 H263 0.930 . S
C250 C247 1.378 . S
C250 N251 1.315 . S
C250 H253 0.930 . S
N251 Co231 2.194 . S
N251 C246 1.328 . S
N251 C250 1.315 . S
H252 C246 0.929 . S
H253 C250 0.930 . S
H254 C242 0.929 . S
H255 C244 0.929 . S
O256 Co231 2.351 . S
O256 C259 1.244 . S
O257 Co231 2.155 . S
O257 C259 1.240 . S
O258 Co231 2.096 . S
O258 C239 1.247 . S
C259 O256 1.244 . S
C259 O257 1.240 . S
H260 C234 0.931 . S
H261 C243 0.931 . S
H262 C247 0.929 . S
H263 C249 0.930 . S
Co264 N268 2.148 . S
Co264 N274 2.128 . S
Co264 N284 2.194 . S
Co264 O289 2.351 . S
Co264 O290 2.155 . S
Co264 O291 2.096 . S
C265 N268 1.301 1_554 S
C265 N269 1.328 . S
C265 H270 0.930 . S
C266 C267 1.333 . S
C266 N268 1.317 1_554 S
C266 H271 0.930 1_554 S
C267 C266 1.333 . S
C267 N269 1.350 . S
C267 H293 0.931 . S
N268 Co264 2.148 . S
N268 C265 1.301 1_556 S
N268 C266 1.317 1_556 S
N269 C265 1.328 . S
N269 C267 1.350 . S
H270 C265 0.930 . S
H271 C266 0.930 1_556 S
C272 O273 1.224 . S
C272 O291 1.247 . S
O273 C272 1.224 . S
N274 Co264 2.128 . S
N274 C275 1.355 . S
N274 C277 1.311 . S
C275 N274 1.355 . S
C275 C276 1.363 . S
C275 H287 0.929 . S
C276 C275 1.363 . S
C276 N278 1.375 . S
C276 H294 0.931 . S
C277 N274 1.311 . S
C277 N278 1.347 . S
C277 H288 0.929 . S
N278 C276 1.375 . S
N278 C277 1.347 . S
C279 C282 1.365 . S
C279 N284 1.328 . S
C279 H285 0.929 . S
C280 C281 1.362 . S
C280 C283 1.378 . S
C280 H295 0.929 . S
C281 C280 1.362 . S
C281 C282 1.366 . S
C282 C279 1.365 . S
C282 C281 1.366 . S
C282 H296 0.930 . S
C283 C280 1.378 . S
C283 N284 1.315 . S
C283 H286 0.930 . S
N284 Co264 2.194 . S
N284 C279 1.328 . S
N284 C283 1.315 . S
H285 C279 0.929 . S
H286 C283 0.930 . S
H287 C275 0.929 . S
H288 C277 0.929 . S
O289 Co264 2.351 . S
O289 C292 1.244 . S
O290 Co264 2.155 . S
O290 C292 1.240 . S
O291 Co264 2.096 . S
O291 C272 1.247 . S
C292 O289 1.244 . S
C292 O290 1.240 . S
H293 C267 0.931 . S
H294 C276 0.931 . S
H295 C280 0.929 . S
H296 C282 0.930 . S
Co297 N301 2.148 . S
Co297 N307 2.128 . S
Co297 N317 2.194 . S
Co297 O322 2.351 . S
Co297 O323 2.155 . S
Co297 O324 2.096 . S
C298 N301 1.301 1_556 S
C298 N302 1.328 . S
C298 H303 0.930 . S
C299 C300 1.333 . S
C299 N301 1.317 1_556 S
C299 H304 0.930 1_556 S
C300 C299 1.333 . S
C300 N302 1.350 . S
C300 H326 0.931 . S
N301 Co297 2.148 . S
N301 C298 1.301 1_554 S
N301 C299 1.317 1_554 S
N302 C298 1.328 . S
N302 C300 1.350 . S
H303 C298 0.930 . S
H304 C299 0.930 1_554 S
C305 O306 1.224 . S
C305 O324 1.247 . S
O306 C305 1.224 . S
N307 Co297 2.128 . S
N307 C308 1.355 . S
N307 C310 1.311 . S
C308 N307 1.355 . S
C308 C309 1.363 . S
C308 H320 0.929 . S
C309 C308 1.363 . S
C309 N311 1.375 . S
C309 H327 0.931 . S
C310 N307 1.311 . S
C310 N311 1.347 . S
C310 H321 0.929 . S
N311 C309 1.375 . S
N311 C310 1.347 . S
C312 C315 1.365 . S
C312 N317 1.328 . S
C312 H318 0.929 . S
C313 C314 1.362 . S
C313 C316 1.378 . S
C313 H328 0.929 . S
C314 C313 1.362 . S
C314 C315 1.366 . S
C315 C312 1.365 . S
C315 C314 1.366 . S
C315 H329 0.930 . S
C316 C313 1.378 . S
C316 N317 1.315 . S
C316 H319 0.930 . S
N317 Co297 2.194 . S
N317 C312 1.328 . S
N317 C316 1.315 . S
H318 C312 0.929 . S
H319 C316 0.930 . S
H320 C308 0.929 . S
H321 C310 0.929 . S
O322 Co297 2.351 . S
O322 C325 1.244 . S
O323 Co297 2.155 . S
O323 C325 1.240 . S
O324 Co297 2.096 . S
O324 C305 1.247 . S
C325 O322 1.244 . S
C325 O323 1.240 . S
H326 C300 0.931 . S
H327 C309 0.931 . S
H328 C313 0.929 . S
H329 C315 0.930 . S
Co330 N334 2.148 . S
Co330 N340 2.128 . S
Co330 N350 2.194 . S
Co330 O355 2.351 . S
Co330 O356 2.155 . S
Co330 O357 2.096 . S
C331 N334 1.301 1_556 S
C331 N335 1.328 . S
C331 H336 0.930 . S
C332 C333 1.333 . S
C332 N334 1.317 1_556 S
C332 H337 0.930 1_556 S
C333 C332 1.333 . S
C333 N335 1.350 . S
C333 H359 0.931 . S
N334 Co330 2.148 . S
N334 C331 1.301 1_554 S
N334 C332 1.317 1_554 S
N335 C331 1.328 . S
N335 C333 1.350 . S
H336 C331 0.930 . S
H337 C332 0.930 1_554 S
C338 O339 1.224 . S
C338 O357 1.247 . S
O339 C338 1.224 . S
N340 Co330 2.128 . S
N340 C341 1.355 . S
N340 C343 1.311 . S
C341 N340 1.355 . S
C341 C342 1.363 . S
C341 H353 0.929 . S
C342 C341 1.363 . S
C342 N344 1.375 . S
C342 H360 0.931 . S
C343 N340 1.311 . S
C343 N344 1.347 . S
C343 H354 0.929 . S
N344 C342 1.375 . S
N344 C343 1.347 . S
C345 C348 1.365 . S
C345 N350 1.328 . S
C345 H351 0.929 . S
C346 C347 1.362 . S
C346 C349 1.378 . S
C346 H361 0.929 . S
C347 C346 1.362 . S
C347 C348 1.366 . S
C348 C345 1.365 . S
C348 C347 1.366 . S
C348 H362 0.930 . S
C349 C346 1.378 . S
C349 N350 1.315 . S
C349 H352 0.930 . S
N350 Co330 2.194 . S
N350 C345 1.328 . S
N350 C349 1.315 . S
H351 C345 0.929 . S
H352 C349 0.930 . S
H353 C341 0.929 . S
H354 C343 0.929 . S
O355 Co330 2.351 . S
O355 C358 1.244 . S
O356 Co330 2.155 . S
O356 C358 1.240 . S
O357 Co330 2.096 . S
O357 C338 1.247 . S
C358 O355 1.244 . S
C358 O356 1.240 . S
H359 C333 0.931 . S
H360 C342 0.931 . S
H361 C346 0.929 . S
H362 C348 0.930 . S
Co363 N367 2.148 . S
Co363 N373 2.128 . S
Co363 N383 2.194 . S
Co363 O388 2.351 . S
Co363 O389 2.155 . S
Co363 O390 2.096 . S
C364 N367 1.301 1_556 S
C364 N368 1.328 . S
C364 H369 0.930 . S
C365 C366 1.333 . S
C365 N367 1.317 1_556 S
C365 H370 0.930 1_556 S
C366 C365 1.333 . S
C366 N368 1.350 . S
C366 H392 0.931 . S
N367 Co363 2.148 . S
N367 C364 1.301 1_554 S
N367 C365 1.317 1_554 S
N368 C364 1.328 . S
N368 C366 1.350 . S
H369 C364 0.930 . S
H370 C365 0.930 1_554 S
C371 O372 1.224 . S
C371 O390 1.247 . S
O372 C371 1.224 . S
N373 Co363 2.128 . S
N373 C374 1.355 . S
N373 C376 1.311 . S
C374 N373 1.355 . S
C374 C375 1.363 . S
C374 H386 0.929 . S
C375 C374 1.363 . S
C375 N377 1.375 . S
C375 H393 0.931 . S
C376 N373 1.311 . S
C376 N377 1.347 . S
C376 H387 0.929 . S
N377 C375 1.375 . S
N377 C376 1.347 . S
C378 C381 1.365 . S
C378 N383 1.328 . S
C378 H384 0.929 . S
C379 C380 1.362 . S
C379 C382 1.378 . S
C379 H394 0.929 . S
C380 C379 1.362 . S
C380 C381 1.366 . S
C381 C378 1.365 . S
C381 C380 1.366 . S
C381 H395 0.930 . S
C382 C379 1.378 . S
C382 N383 1.315 . S
C382 H385 0.930 . S
N383 Co363 2.194 . S
N383 C378 1.328 . S
N383 C382 1.315 . S
H384 C378 0.929 . S
H385 C382 0.930 . S
H386 C374 0.929 . S
H387 C376 0.929 . S
O388 Co363 2.351 . S
O388 C391 1.244 . S
O389 Co363 2.155 . S
O389 C391 1.240 . S
O390 Co363 2.096 . S
O390 C371 1.247 . S
C391 O388 1.244 . S
C391 O389 1.240 . S
H392 C366 0.931 . S
H393 C375 0.931 . S
H394 C379 0.929 . S
H395 C381 0.930 . S
Co396 N400 2.148 . S
Co396 N406 2.128 . S
Co396 N416 2.194 . S
Co396 O421 2.351 . S
Co396 O422 2.155 . S
Co396 O423 2.096 . S
C397 N400 1.301 . S
C397 N401 1.328 . S
C397 H402 0.930 . S
C398 C399 1.333 . S
C398 N400 1.317 . S
C398 H403 0.930 . S
C399 C398 1.333 . S
C399 N401 1.350 . S
C399 H425 0.931 . S
N400 Co396 2.148 . S
N400 C397 1.301 . S
N400 C398 1.317 . S
N401 C397 1.328 . S
N401 C399 1.350 . S
H402 C397 0.930 . S
H403 C398 0.930 . S
C404 O405 1.224 . S
C404 O423 1.247 . S
O405 C404 1.224 . S
N406 Co396 2.128 . S
N406 C407 1.355 . S
N406 C409 1.311 . S
C407 N406 1.355 . S
C407 C408 1.363 . S
C407 H419 0.929 . S
C408 C407 1.363 . S
C408 N410 1.375 1_556 S
C408 H426 0.931 1_556 S
C409 N406 1.311 . S
C409 N410 1.347 1_556 S
C409 H420 0.929 . S
N410 C408 1.375 1_554 S
N410 C409 1.347 1_554 S
C411 C414 1.365 . S
C411 N416 1.328 . S
C411 H417 0.929 . S
C412 C413 1.362 . S
C412 C415 1.378 . S
C412 H427 0.929 . S
C413 C412 1.362 . S
C413 C414 1.366 . S
C414 C411 1.365 . S
C414 C413 1.366 . S
C414 H428 0.930 . S
C415 C412 1.378 . S
C415 N416 1.315 . S
C415 H418 0.930 . S
N416 Co396 2.194 . S
N416 C411 1.328 . S
N416 C415 1.315 . S
H417 C411 0.929 . S
H418 C415 0.930 . S
H419 C407 0.929 . S
H420 C409 0.929 . S
O421 Co396 2.351 . S
O421 C424 1.244 . S
O422 Co396 2.155 . S
O422 C424 1.240 . S
O423 Co396 2.096 . S
O423 C404 1.247 . S
C424 O421 1.244 . S
C424 O422 1.240 . S
H425 C399 0.931 . S
H426 C408 0.931 1_554 S
H427 C412 0.929 . S
H428 C414 0.930 . S
Co429 N433 2.148 . S
Co429 N439 2.128 . S
Co429 N449 2.194 . S
Co429 O454 2.351 . S
Co429 O455 2.155 . S
Co429 O456 2.096 . S
C430 N433 1.301 . S
C430 N434 1.328 . S
C430 H435 0.930 . S
C431 C432 1.333 . S
C431 N433 1.317 . S
C431 H436 0.930 . S
C432 C431 1.333 . S
C432 N434 1.350 . S
C432 H458 0.931 . S
N433 Co429 2.148 . S
N433 C430 1.301 . S
N433 C431 1.317 . S
N434 C430 1.328 . S
N434 C432 1.350 . S
H435 C430 0.930 . S
H436 C431 0.930 . S
C437 O438 1.224 . S
C437 O456 1.247 . S
O438 C437 1.224 . S
N439 Co429 2.128 . S
N439 C440 1.355 . S
N439 C442 1.311 . S
C440 N439 1.355 . S
C440 C441 1.363 . S
C440 H452 0.929 . S
C441 C440 1.363 . S
C441 N443 1.375 1_556 S
C441 H459 0.931 1_556 S
C442 N439 1.311 . S
C442 N443 1.347 1_556 S
C442 H453 0.929 . S
N443 C441 1.375 1_554 S
N443 C442 1.347 1_554 S
C444 C447 1.365 . S
C444 N449 1.328 . S
C444 H450 0.929 . S
C445 C446 1.362 . S
C445 C448 1.378 . S
C445 H460 0.929 . S
C446 C445 1.362 . S
C446 C447 1.366 . S
C447 C444 1.365 . S
C447 C446 1.366 . S
C447 H461 0.930 . S
C448 C445 1.378 . S
C448 N449 1.315 . S
C448 H451 0.930 . S
N449 Co429 2.194 . S
N449 C444 1.328 . S
N449 C448 1.315 . S
H450 C444 0.929 . S
H451 C448 0.930 . S
H452 C440 0.929 . S
H453 C442 0.929 . S
O454 Co429 2.351 . S
O454 C457 1.244 . S
O455 Co429 2.155 . S
O455 C457 1.240 . S
O456 Co429 2.096 . S
O456 C437 1.247 . S
C457 O454 1.244 . S
C457 O455 1.240 . S
H458 C432 0.931 . S
H459 C441 0.931 1_554 S
H460 C445 0.929 . S
H461 C447 0.930 . S
Co462 N466 2.148 . S
Co462 N472 2.128 . S
Co462 N482 2.194 . S
Co462 O487 2.351 . S
Co462 O488 2.155 . S
Co462 O489 2.096 . S
C463 N466 1.301 . S
C463 N467 1.328 . S
C463 H468 0.930 . S
C464 C465 1.333 . S
C464 N466 1.317 . S
C464 H469 0.930 . S
C465 C464 1.333 . S
C465 N467 1.350 . S
C465 H491 0.931 . S
N466 Co462 2.148 . S
N466 C463 1.301 . S
N466 C464 1.317 . S
N467 C463 1.328 . S
N467 C465 1.350 . S
H468 C463 0.930 . S
H469 C464 0.930 . S
C470 O471 1.224 . S
C470 O489 1.247 . S
O471 C470 1.224 . S
N472 Co462 2.128 . S
N472 C473 1.355 . S
N472 C475 1.311 . S
C473 N472 1.355 . S
C473 C474 1.363 . S
C473 H485 0.929 . S
C474 C473 1.363 . S
C474 N476 1.375 1_556 S
C474 H492 0.931 1_556 S
C475 N472 1.311 . S
C475 N476 1.347 1_556 S
C475 H486 0.929 . S
N476 C474 1.375 1_554 S
N476 C475 1.347 1_554 S
C477 C480 1.365 . S
C477 N482 1.328 . S
C477 H483 0.929 . S
C478 C479 1.362 . S
C478 C481 1.378 . S
C478 H493 0.929 . S
C479 C478 1.362 . S
C479 C480 1.366 . S
C480 C477 1.365 . S
C480 C479 1.366 . S
C480 H494 0.930 . S
C481 C478 1.378 . S
C481 N482 1.315 . S
C481 H484 0.930 . S
N482 Co462 2.194 . S
N482 C477 1.328 . S
N482 C481 1.315 . S
H483 C477 0.929 . S
H484 C481 0.930 . S
H485 C473 0.929 . S
H486 C475 0.929 . S
O487 Co462 2.351 . S
O487 C490 1.244 . S
O488 Co462 2.155 . S
O488 C490 1.240 . S
O489 Co462 2.096 . S
O489 C470 1.247 . S
C490 O487 1.244 . S
C490 O488 1.240 . S
H491 C465 0.931 . S
H492 C474 0.931 1_554 S
H493 C478 0.929 . S
H494 C480 0.930 . S
Co495 N499 2.148 . S
Co495 N505 2.128 1_554 S
Co495 N515 2.194 . S
Co495 O520 2.351 . S
Co495 O521 2.155 . S
Co495 O522 2.096 . S
C496 N499 1.301 . S
C496 N500 1.328 . S
C496 H501 0.930 . S
C497 C498 1.333 . S
C497 N499 1.317 . S
C497 H502 0.930 . S
C498 C497 1.333 . S
C498 N500 1.350 . S
C498 H524 0.931 . S
N499 Co495 2.148 . S
N499 C496 1.301 . S
N499 C497 1.317 . S
N500 C496 1.328 . S
N500 C498 1.350 . S
H501 C496 0.930 . S
H502 C497 0.930 . S
C503 O504 1.224 . S
C503 O522 1.247 . S
O504 C503 1.224 . S
N505 Co495 2.128 1_556 S
N505 C506 1.355 . S
N505 C508 1.311 . S
C506 N505 1.355 . S
C506 C507 1.363 . S
C506 H518 0.929 . S
C507 C506 1.363 . S
C507 N509 1.375 . S
C507 H525 0.931 . S
C508 N505 1.311 . S
C508 N509 1.347 . S
C508 H519 0.929 . S
N509 C507 1.375 . S
N509 C508 1.347 . S
C510 C513 1.365 . S
C510 N515 1.328 . S
C510 H516 0.929 . S
C511 C512 1.362 . S
C511 C514 1.378 . S
C511 H526 0.929 . S
C512 C511 1.362 . S
C512 C513 1.366 . S
C513 C510 1.365 . S
C513 C512 1.366 . S
C513 H527 0.930 . S
C514 C511 1.378 . S
C514 N515 1.315 . S
C514 H517 0.930 . S
N515 Co495 2.194 . S
N515 C510 1.328 . S
N515 C514 1.315 . S
H516 C510 0.929 . S
H517 C514 0.930 . S
H518 C506 0.929 . S
H519 C508 0.929 . S
O520 Co495 2.351 . S
O520 C523 1.244 . S
O521 Co495 2.155 . S
O521 C523 1.240 . S
O522 Co495 2.096 . S
O522 C503 1.247 . S
C523 O520 1.244 . S
C523 O521 1.240 . S
H524 C498 0.931 . S
H525 C507 0.931 . S
H526 C511 0.929 . S
H527 C513 0.930 . S
Co528 N532 2.148 . S
Co528 N538 2.128 1_554 S
Co528 N548 2.194 . S
Co528 O553 2.351 . S
Co528 O554 2.155 . S
Co528 O555 2.096 . S
C529 N532 1.301 . S
C529 N533 1.328 . S
C529 H534 0.930 . S
C530 C531 1.333 . S
C530 N532 1.317 . S
C530 H535 0.930 . S
C531 C530 1.333 . S
C531 N533 1.350 . S
C531 H557 0.931 . S
N532 Co528 2.148 . S
N532 C529 1.301 . S
N532 C530 1.317 . S
N533 C529 1.328 . S
N533 C531 1.350 . S
H534 C529 0.930 . S
H535 C530 0.930 . S
C536 O537 1.224 . S
C536 O555 1.247 . S
O537 C536 1.224 . S
N538 Co528 2.128 1_556 S
N538 C539 1.355 . S
N538 C541 1.311 . S
C539 N538 1.355 . S
C539 C540 1.363 . S
C539 H551 0.929 . S
C540 C539 1.363 . S
C540 N542 1.375 . S
C540 H558 0.931 . S
C541 N538 1.311 . S
C541 N542 1.347 . S
C541 H552 0.929 . S
N542 C540 1.375 . S
N542 C541 1.347 . S
C543 C546 1.365 . S
C543 N548 1.328 . S
C543 H549 0.929 . S
C544 C545 1.362 . S
C544 C547 1.378 . S
C544 H559 0.929 . S
C545 C544 1.362 . S
C545 C546 1.366 . S
C546 C543 1.365 . S
C546 C545 1.366 . S
C546 H560 0.930 . S
C547 C544 1.378 . S
C547 N548 1.315 . S
C547 H550 0.930 . S
N548 Co528 2.194 . S
N548 C543 1.328 . S
N548 C547 1.315 . S
H549 C543 0.929 . S
H550 C547 0.930 . S
H551 C539 0.929 . S
H552 C541 0.929 . S
O553 Co528 2.351 . S
O553 C556 1.244 . S
O554 Co528 2.155 . S
O554 C556 1.240 . S
O555 Co528 2.096 . S
O555 C536 1.247 . S
C556 O553 1.244 . S
C556 O554 1.240 . S
H557 C531 0.931 . S
H558 C540 0.931 . S
H559 C544 0.929 . S
H560 C546 0.930 . S
Co561 N565 2.148 . S
Co561 N571 2.128 1_554 S
Co561 N581 2.194 . S
Co561 O586 2.351 . S
Co561 O587 2.155 . S
Co561 O588 2.096 . S
C562 N565 1.301 . S
C562 N566 1.328 . S
C562 H567 0.930 . S
C563 C564 1.333 . S
C563 N565 1.317 . S
C563 H568 0.930 . S
C564 C563 1.333 . S
C564 N566 1.350 . S
C564 H590 0.931 . S
N565 Co561 2.148 . S
N565 C562 1.301 . S
N565 C563 1.317 . S
N566 C562 1.328 . S
N566 C564 1.350 . S
H567 C562 0.930 . S
H568 C563 0.930 . S
C569 O570 1.224 . S
C569 O588 1.247 . S
O570 C569 1.224 . S
N571 Co561 2.128 1_556 S
N571 C572 1.355 . S
N571 C574 1.311 . S
C572 N571 1.355 . S
C572 C573 1.363 . S
C572 H584 0.929 . S
C573 C572 1.363 . S
C573 N575 1.375 . S
C573 H591 0.931 . S
C574 N571 1.311 . S
C574 N575 1.347 . S
C574 H585 0.929 . S
N575 C573 1.375 . S
N575 C574 1.347 . S
C576 C579 1.365 . S
C576 N581 1.328 . S
C576 H582 0.929 . S
C577 C578 1.362 . S
C577 C580 1.378 . S
C577 H592 0.929 . S
C578 C577 1.362 . S
C578 C579 1.366 . S
C579 C576 1.365 . S
C579 C578 1.366 . S
C579 H593 0.930 . S
C580 C577 1.378 . S
C580 N581 1.315 . S
C580 H583 0.930 . S
N581 Co561 2.194 . S
N581 C576 1.328 . S
N581 C580 1.315 . S
H582 C576 0.929 . S
H583 C580 0.930 . S
H584 C572 0.929 . S
H585 C574 0.929 . S
O586 Co561 2.351 . S
O586 C589 1.244 . S
O587 Co561 2.155 . S
O587 C589 1.240 . S
O588 Co561 2.096 . S
O588 C569 1.247 . S
C589 O586 1.244 . S
C589 O587 1.240 . S
H590 C564 0.931 . S
H591 C573 0.931 . S
H592 C577 0.929 . S
H593 C579 0.930 . S
Co594 N598 2.148 . S
Co594 N604 2.128 1_554 S
Co594 N614 2.194 . S
Co594 O619 2.351 . S
Co594 O620 2.155 . S
Co594 O621 2.096 . S
C595 N598 1.301 . S
C595 N599 1.328 . S
C595 H600 0.930 . S
C596 C597 1.333 . S
C596 N598 1.317 . S
C596 H601 0.930 . S
C597 C596 1.333 . S
C597 N599 1.350 . S
C597 H623 0.931 . S
N598 Co594 2.148 . S
N598 C595 1.301 . S
N598 C596 1.317 . S
N599 C595 1.328 . S
N599 C597 1.350 . S
H600 C595 0.930 . S
H601 C596 0.930 . S
C602 O603 1.224 . S
C602 O621 1.247 . S
O603 C602 1.224 . S
N604 Co594 2.128 1_556 S
N604 C605 1.355 . S
N604 C607 1.311 . S
C605 N604 1.355 . S
C605 C606 1.363 . S
C605 H617 0.929 . S
C606 C605 1.363 . S
C606 N608 1.375 . S
C606 H624 0.931 . S
C607 N604 1.311 . S
C607 N608 1.347 . S
C607 H618 0.929 . S
N608 C606 1.375 . S
N608 C607 1.347 . S
C609 C612 1.365 . S
C609 N614 1.328 . S
C609 H615 0.929 . S
C610 C611 1.362 . S
C610 C613 1.378 . S
C610 H625 0.929 . S
C611 C610 1.362 . S
C611 C612 1.366 . S
C612 C609 1.365 . S
C612 C611 1.366 . S
C612 H626 0.930 . S
C613 C610 1.378 . S
C613 N614 1.315 . S
C613 H616 0.930 . S
N614 Co594 2.194 . S
N614 C609 1.328 . S
N614 C613 1.315 . S
H615 C609 0.929 . S
H616 C613 0.930 . S
H617 C605 0.929 . S
H618 C607 0.929 . S
O619 Co594 2.351 . S
O619 C622 1.244 . S
O620 Co594 2.155 . S
O620 C622 1.240 . S
O621 Co594 2.096 . S
O621 C602 1.247 . S
C622 O619 1.244 . S
C622 O620 1.240 . S
H623 C597 0.931 . S
H624 C606 0.931 . S
H625 C610 0.929 . S
H626 C612 0.930 . S
Co627 N631 2.148 . S
Co627 N637 2.128 1_554 S
Co627 N647 2.194 . S
Co627 O652 2.351 . S
Co627 O653 2.155 . S
Co627 O654 2.096 . S
C628 N631 1.301 . S
C628 N632 1.328 . S
C628 H633 0.930 . S
C629 C630 1.333 . S
C629 N631 1.317 . S
C629 H634 0.930 . S
C630 C629 1.333 . S
C630 N632 1.350 . S
C630 H656 0.931 . S
N631 Co627 2.148 . S
N631 C628 1.301 . S
N631 C629 1.317 . S
N632 C628 1.328 . S
N632 C630 1.350 . S
H633 C628 0.930 . S
H634 C629 0.930 . S
C635 O636 1.224 . S
C635 O654 1.247 . S
O636 C635 1.224 . S
N637 Co627 2.128 1_556 S
N637 C638 1.355 . S
N637 C640 1.311 . S
C638 N637 1.355 . S
C638 C639 1.363 . S
C638 H650 0.929 . S
C639 C638 1.363 . S
C639 N641 1.375 . S
C639 H657 0.931 . S
C640 N637 1.311 . S
C640 N641 1.347 . S
C640 H651 0.929 . S
N641 C639 1.375 . S
N641 C640 1.347 . S
C642 C645 1.365 . S
C642 N647 1.328 . S
C642 H648 0.929 . S
C643 C644 1.362 . S
C643 C646 1.378 . S
C643 H658 0.929 . S
C644 C643 1.362 . S
C644 C645 1.366 . S
C645 C642 1.365 . S
C645 C644 1.366 . S
C645 H659 0.930 . S
C646 C643 1.378 . S
C646 N647 1.315 . S
C646 H649 0.930 . S
N647 Co627 2.194 . S
N647 C642 1.328 . S
N647 C646 1.315 . S
H648 C642 0.929 . S
H649 C646 0.930 . S
H650 C638 0.929 . S
H651 C640 0.929 . S
O652 Co627 2.351 . S
O652 C655 1.244 . S
O653 Co627 2.155 . S
O653 C655 1.240 . S
O654 Co627 2.096 . S
O654 C635 1.247 . S
C655 O652 1.244 . S
C655 O653 1.240 . S
H656 C630 0.931 . S
H657 C639 0.931 . S
H658 C643 0.929 . S
H659 C645 0.930 . S
Co660 N664 2.148 . S
Co660 N670 2.128 1_554 S
Co660 N680 2.194 . S
Co660 O685 2.351 . S
Co660 O686 2.155 . S
Co660 O687 2.096 . S
C661 N664 1.301 . S
C661 N665 1.328 . S
C661 H666 0.930 . S
C662 C663 1.333 . S
C662 N664 1.317 . S
C662 H667 0.930 . S
C663 C662 1.333 . S
C663 N665 1.350 . S
C663 H689 0.931 . S
N664 Co660 2.148 . S
N664 C661 1.301 . S
N664 C662 1.317 . S
N665 C661 1.328 . S
N665 C663 1.350 . S
H666 C661 0.930 . S
H667 C662 0.930 . S
C668 O669 1.224 . S
C668 O687 1.247 . S
O669 C668 1.224 . S
N670 Co660 2.128 1_556 S
N670 C671 1.355 . S
N670 C673 1.311 . S
C671 N670 1.355 . S
C671 C672 1.363 . S
C671 H683 0.929 . S
C672 C671 1.363 . S
C672 N674 1.375 . S
C672 H690 0.931 . S
C673 N670 1.311 . S
C673 N674 1.347 . S
C673 H684 0.929 . S
N674 C672 1.375 . S
N674 C673 1.347 . S
C675 C678 1.365 . S
C675 N680 1.328 . S
C675 H681 0.929 . S
C676 C677 1.362 . S
C676 C679 1.378 . S
C676 H691 0.929 . S
C677 C676 1.362 . S
C677 C678 1.366 . S
C678 C675 1.365 . S
C678 C677 1.366 . S
C678 H692 0.930 . S
C679 C676 1.378 . S
C679 N680 1.315 . S
C679 H682 0.930 . S
N680 Co660 2.194 . S
N680 C675 1.328 . S
N680 C679 1.315 . S
H681 C675 0.929 . S
H682 C679 0.930 . S
H683 C671 0.929 . S
H684 C673 0.929 . S
O685 Co660 2.351 . S
O685 C688 1.244 . S
O686 Co660 2.155 . S
O686 C688 1.240 . S
O687 Co660 2.096 . S
O687 C668 1.247 . S
C688 O685 1.244 . S
C688 O686 1.240 . S
H689 C663 0.931 . S
H690 C672 0.931 . S
H691 C676 0.929 . S
H692 C678 0.930 . S
Co693 N697 2.148 . S
Co693 N703 2.128 . S
Co693 N713 2.194 . S
Co693 O718 2.351 . S
Co693 O719 2.155 . S
Co693 O720 2.096 . S
C694 N697 1.301 . S
C694 N698 1.328 . S
C694 H699 0.930 . S
C695 C696 1.333 . S
C695 N697 1.317 . S
C695 H700 0.930 . S
C696 C695 1.333 . S
C696 N698 1.350 . S
C696 H722 0.931 . S
N697 Co693 2.148 . S
N697 C694 1.301 . S
N697 C695 1.317 . S
N698 C694 1.328 . S
N698 C696 1.350 . S
H699 C694 0.930 . S
H700 C695 0.930 . S
C701 O702 1.224 . S
C701 O720 1.247 . S
O702 C701 1.224 . S
N703 Co693 2.128 . S
N703 C704 1.355 . S
N703 C706 1.311 . S
C704 N703 1.355 . S
C704 C705 1.363 . S
C704 H716 0.929 . S
C705 C704 1.363 . S
C705 N707 1.375 1_556 S
C705 H723 0.931 1_556 S
C706 N703 1.311 . S
C706 N707 1.347 1_556 S
C706 H717 0.929 . S
N707 C705 1.375 1_554 S
N707 C706 1.347 1_554 S
C708 C711 1.365 . S
C708 N713 1.328 . S
C708 H714 0.929 . S
C709 C710 1.362 . S
C709 C712 1.378 . S
C709 H724 0.929 . S
C710 C709 1.362 . S
C710 C711 1.366 . S
C711 C708 1.365 . S
C711 C710 1.366 . S
C711 H725 0.930 . S
C712 C709 1.378 . S
C712 N713 1.315 . S
C712 H715 0.930 . S
N713 Co693 2.194 . S
N713 C708 1.328 . S
N713 C712 1.315 . S
H714 C708 0.929 . S
H715 C712 0.930 . S
H716 C704 0.929 . S
H717 C706 0.929 . S
O718 Co693 2.351 . S
O718 C721 1.244 . S
O719 Co693 2.155 . S
O719 C721 1.240 . S
O720 Co693 2.096 . S
O720 C701 1.247 . S
C721 O718 1.244 . S
C721 O719 1.240 . S
H722 C696 0.931 . S
H723 C705 0.931 1_554 S
H724 C709 0.929 . S
H725 C711 0.930 . S
Co726 N730 2.148 . S
Co726 N736 2.128 . S
Co726 N746 2.194 . S
Co726 O751 2.351 . S
Co726 O752 2.155 . S
Co726 O753 2.096 . S
C727 N730 1.301 . S
C727 N731 1.328 . S
C727 H732 0.930 . S
C728 C729 1.333 . S
C728 N730 1.317 . S
C728 H733 0.930 . S
C729 C728 1.333 . S
C729 N731 1.350 . S
C729 H755 0.931 . S
N730 Co726 2.148 . S
N730 C727 1.301 . S
N730 C728 1.317 . S
N731 C727 1.328 . S
N731 C729 1.350 . S
H732 C727 0.930 . S
H733 C728 0.930 . S
C734 O735 1.224 . S
C734 O753 1.247 . S
O735 C734 1.224 . S
N736 Co726 2.128 . S
N736 C737 1.355 . S
N736 C739 1.311 . S
C737 N736 1.355 . S
C737 C738 1.363 . S
C737 H749 0.929 . S
C738 C737 1.363 . S
C738 N740 1.375 1_556 S
C738 H756 0.931 1_556 S
C739 N736 1.311 . S
C739 N740 1.347 1_556 S
C739 H750 0.929 . S
N740 C738 1.375 1_554 S
N740 C739 1.347 1_554 S
C741 C744 1.365 . S
C741 N746 1.328 . S
C741 H747 0.929 . S
C742 C743 1.362 . S
C742 C745 1.378 . S
C742 H757 0.929 . S
C743 C742 1.362 . S
C743 C744 1.366 . S
C744 C741 1.365 . S
C744 C743 1.366 . S
C744 H758 0.930 . S
C745 C742 1.378 . S
C745 N746 1.315 . S
C745 H748 0.930 . S
N746 Co726 2.194 . S
N746 C741 1.328 . S
N746 C745 1.315 . S
H747 C741 0.929 . S
H748 C745 0.930 . S
H749 C737 0.929 . S
H750 C739 0.929 . S
O751 Co726 2.351 . S
O751 C754 1.244 . S
O752 Co726 2.155 . S
O752 C754 1.240 . S
O753 Co726 2.096 . S
O753 C734 1.247 . S
C754 O751 1.244 . S
C754 O752 1.240 . S
H755 C729 0.931 . S
H756 C738 0.931 1_554 S
H757 C742 0.929 . S
H758 C744 0.930 . S
Co759 N763 2.148 . S
Co759 N769 2.128 . S
Co759 N779 2.194 . S
Co759 O784 2.351 . S
Co759 O785 2.155 . S
Co759 O786 2.096 . S
C760 N763 1.301 . S
C760 N764 1.328 . S
C760 H765 0.930 . S
C761 C762 1.333 . S
C761 N763 1.317 . S
C761 H766 0.930 . S
C762 C761 1.333 . S
C762 N764 1.350 . S
C762 H788 0.931 . S
N763 Co759 2.148 . S
N763 C760 1.301 . S
N763 C761 1.317 . S
N764 C760 1.328 . S
N764 C762 1.350 . S
H765 C760 0.930 . S
H766 C761 0.930 . S
C767 O768 1.224 . S
C767 O786 1.247 . S
O768 C767 1.224 . S
N769 Co759 2.128 . S
N769 C770 1.355 . S
N769 C772 1.311 . S
C770 N769 1.355 . S
C770 C771 1.363 . S
C770 H782 0.929 . S
C771 C770 1.363 . S
C771 N773 1.375 1_556 S
C771 H789 0.931 1_556 S
C772 N769 1.311 . S
C772 N773 1.347 1_556 S
C772 H783 0.929 . S
N773 C771 1.375 1_554 S
N773 C772 1.347 1_554 S
C774 C777 1.365 . S
C774 N779 1.328 . S
C774 H780 0.929 . S
C775 C776 1.362 . S
C775 C778 1.378 . S
C775 H790 0.929 . S
C776 C775 1.362 . S
C776 C777 1.366 . S
C777 C774 1.365 . S
C777 C776 1.366 . S
C777 H791 0.930 . S
C778 C775 1.378 . S
C778 N779 1.315 . S
C778 H781 0.930 . S
N779 Co759 2.194 . S
N779 C774 1.328 . S
N779 C778 1.315 . S
H780 C774 0.929 . S
H781 C778 0.930 . S
H782 C770 0.929 . S
H783 C772 0.929 . S
O784 Co759 2.351 . S
O784 C787 1.244 . S
O785 Co759 2.155 . S
O785 C787 1.240 . S
O786 Co759 2.096 . S
O786 C767 1.247 . S
C787 O784 1.244 . S
C787 O785 1.240 . S
H788 C762 0.931 . S
H789 C771 0.931 1_554 S
H790 C775 0.929 . S
H791 C777 0.930 . S
Co792 N796 2.148 . S
Co792 N802 2.128 1_556 S
Co792 N812 2.194 . S
Co792 O817 2.351 . S
Co792 O818 2.155 . S
Co792 O819 2.096 . S
C793 N796 1.301 . S
C793 N797 1.328 . S
C793 H798 0.930 . S
C794 C795 1.333 . S
C794 N796 1.317 . S
C794 H799 0.930 . S
C795 C794 1.333 . S
C795 N797 1.350 . S
C795 H821 0.931 . S
N796 Co792 2.148 . S
N796 C793 1.301 . S
N796 C794 1.317 . S
N797 C793 1.328 . S
N797 C795 1.350 . S
H798 C793 0.930 . S
H799 C794 0.930 . S
C800 O801 1.224 . S
C800 O819 1.247 . S
O801 C800 1.224 . S
N802 Co792 2.128 1_554 S
N802 C803 1.355 . S
N802 C805 1.311 . S
C803 N802 1.355 . S
C803 C804 1.363 . S
C803 H815 0.929 . S
C804 C803 1.363 . S
C804 N806 1.375 . S
C804 H822 0.931 . S
C805 N802 1.311 . S
C805 N806 1.347 . S
C805 H816 0.929 . S
N806 C804 1.375 . S
N806 C805 1.347 . S
C807 C810 1.365 . S
C807 N812 1.328 . S
C807 H813 0.929 . S
C808 C809 1.362 . S
C808 C811 1.378 . S
C808 H823 0.929 . S
C809 C808 1.362 . S
C809 C810 1.366 . S
C810 C807 1.365 . S
C810 C809 1.366 . S
C810 H824 0.930 . S
C811 C808 1.378 . S
C811 N812 1.315 . S
C811 H814 0.930 . S
N812 Co792 2.194 . S
N812 C807 1.328 . S
N812 C811 1.315 . S
H813 C807 0.929 . S
H814 C811 0.930 . S
H815 C803 0.929 . S
H816 C805 0.929 . S
O817 Co792 2.351 . S
O817 C820 1.244 . S
O818 Co792 2.155 . S
O818 C820 1.240 . S
O819 Co792 2.096 . S
O819 C800 1.247 . S
C820 O817 1.244 . S
C820 O818 1.240 . S
H821 C795 0.931 . S
H822 C804 0.931 . S
H823 C808 0.929 . S
H824 C810 0.930 . S
Co825 N829 2.148 . S
Co825 N835 2.128 1_556 S
Co825 N845 2.194 . S
Co825 O850 2.351 . S
Co825 O851 2.155 . S
Co825 O852 2.096 . S
C826 N829 1.301 . S
C826 N830 1.328 . S
C826 H831 0.930 . S
C827 C828 1.333 . S
C827 N829 1.317 . S
C827 H832 0.930 . S
C828 C827 1.333 . S
C828 N830 1.350 . S
C828 H854 0.931 . S
N829 Co825 2.148 . S
N829 C826 1.301 . S
N829 C827 1.317 . S
N830 C826 1.328 . S
N830 C828 1.350 . S
H831 C826 0.930 . S
H832 C827 0.930 . S
C833 O834 1.224 . S
C833 O852 1.247 . S
O834 C833 1.224 . S
N835 Co825 2.128 1_554 S
N835 C836 1.355 . S
N835 C838 1.311 . S
C836 N835 1.355 . S
C836 C837 1.363 . S
C836 H848 0.929 . S
C837 C836 1.363 . S
C837 N839 1.375 . S
C837 H855 0.931 . S
C838 N835 1.311 . S
C838 N839 1.347 . S
C838 H849 0.929 . S
N839 C837 1.375 . S
N839 C838 1.347 . S
C840 C843 1.365 . S
C840 N845 1.328 . S
C840 H846 0.929 . S
C841 C842 1.362 . S
C841 C844 1.378 . S
C841 H856 0.929 . S
C842 C841 1.362 . S
C842 C843 1.366 . S
C843 C840 1.365 . S
C843 C842 1.366 . S
C843 H857 0.930 . S
C844 C841 1.378 . S
C844 N845 1.315 . S
C844 H847 0.930 . S
N845 Co825 2.194 . S
N845 C840 1.328 . S
N845 C844 1.315 . S
H846 C840 0.929 . S
H847 C844 0.930 . S
H848 C836 0.929 . S
H849 C838 0.929 . S
O850 Co825 2.351 . S
O850 C853 1.244 . S
O851 Co825 2.155 . S
O851 C853 1.240 . S
O852 Co825 2.096 . S
O852 C833 1.247 . S
C853 O850 1.244 . S
C853 O851 1.240 . S
H854 C828 0.931 . S
H855 C837 0.931 . S
H856 C841 0.929 . S
H857 C843 0.930 . S
Co858 N862 2.148 . S
Co858 N868 2.128 1_556 S
Co858 N878 2.194 . S
Co858 O883 2.351 . S
Co858 O884 2.155 . S
Co858 O885 2.096 . S
C859 N862 1.301 . S
C859 N863 1.328 . S
C859 H864 0.930 . S
C860 C861 1.333 . S
C860 N862 1.317 . S
C860 H865 0.930 . S
C861 C860 1.333 . S
C861 N863 1.350 . S
C861 H887 0.931 . S
N862 Co858 2.148 . S
N862 C859 1.301 . S
N862 C860 1.317 . S
N863 C859 1.328 . S
N863 C861 1.350 . S
H864 C859 0.930 . S
H865 C860 0.930 . S
C866 O867 1.224 . S
C866 O885 1.247 . S
O867 C866 1.224 . S
N868 Co858 2.128 1_554 S
N868 C869 1.355 . S
N868 C871 1.311 . S
C869 N868 1.355 . S
C869 C870 1.363 . S
C869 H881 0.929 . S
C870 C869 1.363 . S
C870 N872 1.375 . S
C870 H888 0.931 . S
C871 N868 1.311 . S
C871 N872 1.347 . S
C871 H882 0.929 . S
N872 C870 1.375 . S
N872 C871 1.347 . S
C873 C876 1.365 . S
C873 N878 1.328 . S
C873 H879 0.929 . S
C874 C875 1.362 . S
C874 C877 1.378 . S
C874 H889 0.929 . S
C875 C874 1.362 . S
C875 C876 1.366 . S
C876 C873 1.365 . S
C876 C875 1.366 . S
C876 H890 0.930 . S
C877 C874 1.378 . S
C877 N878 1.315 . S
C877 H880 0.930 . S
N878 Co858 2.194 . S
N878 C873 1.328 . S
N878 C877 1.315 . S
H879 C873 0.929 . S
H880 C877 0.930 . S
H881 C869 0.929 . S
H882 C871 0.929 . S
O883 Co858 2.351 . S
O883 C886 1.244 . S
O884 Co858 2.155 . S
O884 C886 1.240 . S
O885 Co858 2.096 . S
O885 C866 1.247 . S
C886 O883 1.244 . S
C886 O884 1.240 . S
H887 C861 0.931 . S
H888 C870 0.931 . S
H889 C874 0.929 . S
H890 C876 0.930 . S
Co891 N895 2.148 . S
Co891 N901 2.128 . S
Co891 N911 2.194 . S
Co891 O916 2.351 . S
Co891 O917 2.155 . S
Co891 O918 2.096 . S
C892 N895 1.301 . S
C892 N896 1.328 . S
C892 H897 0.930 . S
C893 C894 1.333 . S
C893 N895 1.317 . S
C893 H898 0.930 . S
C894 C893 1.333 . S
C894 N896 1.350 . S
C894 H920 0.931 . S
N895 Co891 2.148 . S
N895 C892 1.301 . S
N895 C893 1.317 . S
N896 C892 1.328 . S
N896 C894 1.350 . S
H897 C892 0.930 . S
H898 C893 0.930 . S
C899 O900 1.224 . S
C899 O918 1.247 . S
O900 C899 1.224 . S
N901 Co891 2.128 . S
N901 C902 1.355 . S
N901 C904 1.311 . S
C902 N901 1.355 . S
C902 C903 1.363 . S
C902 H914 0.929 . S
C903 C902 1.363 . S
C903 N905 1.375 1_554 S
C903 H921 0.931 1_554 S
C904 N901 1.311 . S
C904 N905 1.347 1_554 S
C904 H915 0.929 . S
N905 C903 1.375 1_556 S
N905 C904 1.347 1_556 S
C906 C909 1.365 . S
C906 N911 1.328 . S
C906 H912 0.929 . S
C907 C908 1.362 . S
C907 C910 1.378 . S
C907 H922 0.929 . S
C908 C907 1.362 . S
C908 C909 1.366 . S
C909 C906 1.365 . S
C909 C908 1.366 . S
C909 H923 0.930 . S
C910 C907 1.378 . S
C910 N911 1.315 . S
C910 H913 0.930 . S
N911 Co891 2.194 . S
N911 C906 1.328 . S
N911 C910 1.315 . S
H912 C906 0.929 . S
H913 C910 0.930 . S
H914 C902 0.929 . S
H915 C904 0.929 . S
O916 Co891 2.351 . S
O916 C919 1.244 . S
O917 Co891 2.155 . S
O917 C919 1.240 . S
O918 Co891 2.096 . S
O918 C899 1.247 . S
C919 O916 1.244 . S
C919 O917 1.240 . S
H920 C894 0.931 . S
H921 C903 0.931 1_556 S
H922 C907 0.929 . S
H923 C909 0.930 . S
Co924 N928 2.148 . S
Co924 N934 2.128 . S
Co924 N944 2.194 . S
Co924 O949 2.351 . S
Co924 O950 2.155 . S
Co924 O951 2.096 . S
C925 N928 1.301 . S
C925 N929 1.328 . S
C925 H930 0.930 . S
C926 C927 1.333 . S
C926 N928 1.317 . S
C926 H931 0.930 . S
C927 C926 1.333 . S
C927 N929 1.350 . S
C927 H953 0.931 . S
N928 Co924 2.148 . S
N928 C925 1.301 . S
N928 C926 1.317 . S
N929 C925 1.328 . S
N929 C927 1.350 . S
H930 C925 0.930 . S
H931 C926 0.930 . S
C932 O933 1.224 . S
C932 O951 1.247 . S
O933 C932 1.224 . S
N934 Co924 2.128 . S
N934 C935 1.355 . S
N934 C937 1.311 . S
C935 N934 1.355 . S
C935 C936 1.363 . S
C935 H947 0.929 . S
C936 C935 1.363 . S
C936 N938 1.375 1_554 S
C936 H954 0.931 1_554 S
C937 N934 1.311 . S
C937 N938 1.347 1_554 S
C937 H948 0.929 . S
N938 C936 1.375 1_556 S
N938 C937 1.347 1_556 S
C939 C942 1.365 . S
C939 N944 1.328 . S
C939 H945 0.929 . S
C940 C941 1.362 . S
C940 C943 1.378 . S
C940 H955 0.929 . S
C941 C940 1.362 . S
C941 C942 1.366 . S
C942 C939 1.365 . S
C942 C941 1.366 . S
C942 H956 0.930 . S
C943 C940 1.378 . S
C943 N944 1.315 . S
C943 H946 0.930 . S
N944 Co924 2.194 . S
N944 C939 1.328 . S
N944 C943 1.315 . S
H945 C939 0.929 . S
H946 C943 0.930 . S
H947 C935 0.929 . S
H948 C937 0.929 . S
O949 Co924 2.351 . S
O949 C952 1.244 . S
O950 Co924 2.155 . S
O950 C952 1.240 . S
O951 Co924 2.096 . S
O951 C932 1.247 . S
C952 O949 1.244 . S
C952 O950 1.240 . S
H953 C927 0.931 . S
H954 C936 0.931 1_556 S
H955 C940 0.929 . S
H956 C942 0.930 . S
Co957 N961 2.148 . S
Co957 N967 2.128 . S
Co957 N977 2.194 . S
Co957 O982 2.351 . S
Co957 O983 2.155 . S
Co957 O984 2.096 . S
C958 N961 1.301 . S
C958 N962 1.328 . S
C958 H963 0.930 . S
C959 C960 1.333 . S
C959 N961 1.317 . S
C959 H964 0.930 . S
C960 C959 1.333 . S
C960 N962 1.350 . S
C960 H986 0.931 . S
N961 Co957 2.148 . S
N961 C958 1.301 . S
N961 C959 1.317 . S
N962 C958 1.328 . S
N962 C960 1.350 . S
H963 C958 0.930 . S
H964 C959 0.930 . S
C965 O966 1.224 . S
C965 O984 1.247 . S
O966 C965 1.224 . S
N967 Co957 2.128 . S
N967 C968 1.355 . S
N967 C970 1.311 . S
C968 N967 1.355 . S
C968 C969 1.363 . S
C968 H980 0.929 . S
C969 C968 1.363 . S
C969 N971 1.375 1_554 S
C969 H987 0.931 1_554 S
C970 N967 1.311 . S
C970 N971 1.347 1_554 S
C970 H981 0.929 . S
N971 C969 1.375 1_556 S
N971 C970 1.347 1_556 S
C972 C975 1.365 . S
C972 N977 1.328 . S
C972 H978 0.929 . S
C973 C974 1.362 . S
C973 C976 1.378 . S
C973 H988 0.929 . S
C974 C973 1.362 . S
C974 C975 1.366 . S
C975 C972 1.365 . S
C975 C974 1.366 . S
C975 H989 0.930 . S
C976 C973 1.378 . S
C976 N977 1.315 . S
C976 H979 0.930 . S
N977 Co957 2.194 . S
N977 C972 1.328 . S
N977 C976 1.315 . S
H978 C972 0.929 . S
H979 C976 0.930 . S
H980 C968 0.929 . S
H981 C970 0.929 . S
O982 Co957 2.351 . S
O982 C985 1.244 . S
O983 Co957 2.155 . S
O983 C985 1.240 . S
O984 Co957 2.096 . S
O984 C965 1.247 . S
C985 O982 1.244 . S
C985 O983 1.240 . S
H986 C960 0.931 . S
H987 C969 0.931 1_556 S
H988 C973 0.929 . S
H989 C975 0.930 . S
Co990 N994 2.148 . S
Co990 N1000 2.128 . S
Co990 N1010 2.194 . S
Co990 O1015 2.351 . S
Co990 O1016 2.155 . S
Co990 O1017 2.096 . S
C991 N994 1.301 . S
C991 N995 1.328 . S
C991 H996 0.930 . S
C992 C993 1.333 . S
C992 N994 1.317 . S
C992 H997 0.930 . S
C993 C992 1.333 . S
C993 N995 1.350 . S
C993 H1019 0.931 . S
N994 Co990 2.148 . S
N994 C991 1.301 . S
N994 C992 1.317 . S
N995 C991 1.328 . S
N995 C993 1.350 . S
H996 C991 0.930 . S
H997 C992 0.930 . S
C998 O999 1.224 . S
C998 O1017 1.247 . S
O999 C998 1.224 . S
N1000 Co990 2.128 . S
N1000 C1001 1.355 . S
N1000 C1003 1.311 . S
C1001 N1000 1.355 . S
C1001 C1002 1.363 . S
C1001 H1013 0.929 . S
C1002 C1001 1.363 . S
C1002 N1004 1.375 1_554 S
C1002 H1020 0.931 1_554 S
C1003 N1000 1.311 . S
C1003 N1004 1.347 1_554 S
C1003 H1014 0.929 . S
N1004 C1002 1.375 1_556 S
N1004 C1003 1.347 1_556 S
C1005 C1008 1.365 . S
C1005 N1010 1.328 . S
C1005 H1011 0.929 . S
C1006 C1007 1.362 . S
C1006 C1009 1.378 . S
C1006 H1021 0.929 . S
C1007 C1006 1.362 . S
C1007 C1008 1.366 . S
C1008 C1005 1.365 . S
C1008 C1007 1.366 . S
C1008 H1022 0.930 . S
C1009 C1006 1.378 . S
C1009 N1010 1.315 . S
C1009 H1012 0.930 . S
N1010 Co990 2.194 . S
N1010 C1005 1.328 . S
N1010 C1009 1.315 . S
H1011 C1005 0.929 . S
H1012 C1009 0.930 . S
H1013 C1001 0.929 . S
H1014 C1003 0.929 . S
O1015 Co990 2.351 . S
O1015 C1018 1.244 . S
O1016 Co990 2.155 . S
O1016 C1018 1.240 . S
O1017 Co990 2.096 . S
O1017 C998 1.247 . S
C1018 O1015 1.244 . S
C1018 O1016 1.240 . S
H1019 C993 0.931 . S
H1020 C1002 0.931 1_556 S
H1021 C1006 0.929 . S
H1022 C1008 0.930 . S
Co1023 N1027 2.148 . S
Co1023 N1033 2.128 . S
Co1023 N1043 2.194 . S
Co1023 O1048 2.351 . S
Co1023 O1049 2.155 . S
Co1023 O1050 2.096 . S
C1024 N1027 1.301 . S
C1024 N1028 1.328 . S
C1024 H1029 0.930 . S
C1025 C1026 1.333 . S
C1025 N1027 1.317 . S
C1025 H1030 0.930 . S
C1026 C1025 1.333 . S
C1026 N1028 1.350 . S
C1026 H1052 0.931 . S
N1027 Co1023 2.148 . S
N1027 C1024 1.301 . S
N1027 C1025 1.317 . S
N1028 C1024 1.328 . S
N1028 C1026 1.350 . S
H1029 C1024 0.930 . S
H1030 C1025 0.930 . S
C1031 O1032 1.224 . S
C1031 O1050 1.247 . S
O1032 C1031 1.224 . S
N1033 Co1023 2.128 . S
N1033 C1034 1.355 . S
N1033 C1036 1.311 . S
C1034 N1033 1.355 . S
C1034 C1035 1.363 . S
C1034 H1046 0.929 . S
C1035 C1034 1.363 . S
C1035 N1037 1.375 1_554 S
C1035 H1053 0.931 1_554 S
C1036 N1033 1.311 . S
C1036 N1037 1.347 1_554 S
C1036 H1047 0.929 . S
N1037 C1035 1.375 1_556 S
N1037 C1036 1.347 1_556 S
C1038 C1041 1.365 . S
C1038 N1043 1.328 . S
C1038 H1044 0.929 . S
C1039 C1040 1.362 . S
C1039 C1042 1.378 . S
C1039 H1054 0.929 . S
C1040 C1039 1.362 . S
C1040 C1041 1.366 . S
C1041 C1038 1.365 . S
C1041 C1040 1.366 . S
C1041 H1055 0.930 . S
C1042 C1039 1.378 . S
C1042 N1043 1.315 . S
C1042 H1045 0.930 . S
N1043 Co1023 2.194 . S
N1043 C1038 1.328 . S
N1043 C1042 1.315 . S
H1044 C1038 0.929 . S
H1045 C1042 0.930 . S
H1046 C1034 0.929 . S
H1047 C1036 0.929 . S
O1048 Co1023 2.351 . S
O1048 C1051 1.244 . S
O1049 Co1023 2.155 . S
O1049 C1051 1.240 . S
O1050 Co1023 2.096 . S
O1050 C1031 1.247 . S
C1051 O1048 1.244 . S
C1051 O1049 1.240 . S
H1052 C1026 0.931 . S
H1053 C1035 0.931 1_556 S
H1054 C1039 0.929 . S
H1055 C1041 0.930 . S
Co1056 N1060 2.148 . S
Co1056 N1066 2.128 . S
Co1056 N1076 2.194 . S
Co1056 O1081 2.351 . S
Co1056 O1082 2.155 . S
Co1056 O1083 2.096 . S
C1057 N1060 1.301 . S
C1057 N1061 1.328 . S
C1057 H1062 0.930 . S
C1058 C1059 1.333 . S
C1058 N1060 1.317 . S
C1058 H1063 0.930 . S
C1059 C1058 1.333 . S
C1059 N1061 1.350 . S
C1059 H1085 0.931 . S
N1060 Co1056 2.148 . S
N1060 C1057 1.301 . S
N1060 C1058 1.317 . S
N1061 C1057 1.328 . S
N1061 C1059 1.350 . S
H1062 C1057 0.930 . S
H1063 C1058 0.930 . S
C1064 O1065 1.224 . S
C1064 O1083 1.247 . S
O1065 C1064 1.224 . S
N1066 Co1056 2.128 . S
N1066 C1067 1.355 . S
N1066 C1069 1.311 . S
C1067 N1066 1.355 . S
C1067 C1068 1.363 . S
C1067 H1079 0.929 . S
C1068 C1067 1.363 . S
C1068 N1070 1.375 1_554 S
C1068 H1086 0.931 1_554 S
C1069 N1066 1.311 . S
C1069 N1070 1.347 1_554 S
C1069 H1080 0.929 . S
N1070 C1068 1.375 1_556 S
N1070 C1069 1.347 1_556 S
C1071 C1074 1.365 . S
C1071 N1076 1.328 . S
C1071 H1077 0.929 . S
C1072 C1073 1.362 . S
C1072 C1075 1.378 . S
C1072 H1087 0.929 . S
C1073 C1072 1.362 . S
C1073 C1074 1.366 . S
C1074 C1071 1.365 . S
C1074 C1073 1.366 . S
C1074 H1088 0.930 . S
C1075 C1072 1.378 . S
C1075 N1076 1.315 . S
C1075 H1078 0.930 . S
N1076 Co1056 2.194 . S
N1076 C1071 1.328 . S
N1076 C1075 1.315 . S
H1077 C1071 0.929 . S
H1078 C1075 0.930 . S
H1079 C1067 0.929 . S
H1080 C1069 0.929 . S
O1081 Co1056 2.351 . S
O1081 C1084 1.244 . S
O1082 Co1056 2.155 . S
O1082 C1084 1.240 . S
O1083 Co1056 2.096 . S
O1083 C1064 1.247 . S
C1084 O1081 1.244 . S
C1084 O1082 1.240 . S
H1085 C1059 0.931 . S
H1086 C1068 0.931 1_556 S
H1087 C1072 0.929 . S
H1088 C1074 0.930 . S
Co1089 N1093 2.148 . S
Co1089 N1099 2.128 1_556 S
Co1089 N1109 2.194 . S
Co1089 O1114 2.351 . S
Co1089 O1115 2.155 . S
Co1089 O1116 2.096 . S
C1090 N1093 1.301 . S
C1090 N1094 1.328 . S
C1090 H1095 0.930 . S
C1091 C1092 1.333 . S
C1091 N1093 1.317 . S
C1091 H1096 0.930 . S
C1092 C1091 1.333 . S
C1092 N1094 1.350 . S
C1092 H1118 0.931 . S
N1093 Co1089 2.148 . S
N1093 C1090 1.301 . S
N1093 C1091 1.317 . S
N1094 C1090 1.328 . S
N1094 C1092 1.350 . S
H1095 C1090 0.930 . S
H1096 C1091 0.930 . S
C1097 O1098 1.224 . S
C1097 O1116 1.247 . S
O1098 C1097 1.224 . S
N1099 Co1089 2.128 1_554 S
N1099 C1100 1.355 . S
N1099 C1102 1.311 . S
C1100 N1099 1.355 . S
C1100 C1101 1.363 . S
C1100 H1112 0.929 . S
C1101 C1100 1.363 . S
C1101 N1103 1.375 . S
C1101 H1119 0.931 . S
C1102 N1099 1.311 . S
C1102 N1103 1.347 . S
C1102 H1113 0.929 . S
N1103 C1101 1.375 . S
N1103 C1102 1.347 . S
C1104 C1107 1.365 . S
C1104 N1109 1.328 . S
C1104 H1110 0.929 . S
C1105 C1106 1.362 . S
C1105 C1108 1.378 . S
C1105 H1120 0.929 . S
C1106 C1105 1.362 . S
C1106 C1107 1.366 . S
C1107 C1104 1.365 . S
C1107 C1106 1.366 . S
C1107 H1121 0.930 . S
C1108 C1105 1.378 . S
C1108 N1109 1.315 . S
C1108 H1111 0.930 . S
N1109 Co1089 2.194 . S
N1109 C1104 1.328 . S
N1109 C1108 1.315 . S
H1110 C1104 0.929 . S
H1111 C1108 0.930 . S
H1112 C1100 0.929 . S
H1113 C1102 0.929 . S
O1114 Co1089 2.351 . S
O1114 C1117 1.244 . S
O1115 Co1089 2.155 . S
O1115 C1117 1.240 . S
O1116 Co1089 2.096 . S
O1116 C1097 1.247 . S
C1117 O1114 1.244 . S
C1117 O1115 1.240 . S
H1118 C1092 0.931 . S
H1119 C1101 0.931 . S
H1120 C1105 0.929 . S
H1121 C1107 0.930 . S
Co1122 N1126 2.148 . S
Co1122 N1132 2.128 1_556 S
Co1122 N1142 2.194 . S
Co1122 O1147 2.351 . S
Co1122 O1148 2.155 . S
Co1122 O1149 2.096 . S
C1123 N1126 1.301 . S
C1123 N1127 1.328 . S
C1123 H1128 0.930 . S
C1124 C1125 1.333 . S
C1124 N1126 1.317 . S
C1124 H1129 0.930 . S
C1125 C1124 1.333 . S
C1125 N1127 1.350 . S
C1125 H1151 0.931 . S
N1126 Co1122 2.148 . S
N1126 C1123 1.301 . S
N1126 C1124 1.317 . S
N1127 C1123 1.328 . S
N1127 C1125 1.350 . S
H1128 C1123 0.930 . S
H1129 C1124 0.930 . S
C1130 O1131 1.224 . S
C1130 O1149 1.247 . S
O1131 C1130 1.224 . S
N1132 Co1122 2.128 1_554 S
N1132 C1133 1.355 . S
N1132 C1135 1.311 . S
C1133 N1132 1.355 . S
C1133 C1134 1.363 . S
C1133 H1145 0.929 . S
C1134 C1133 1.363 . S
C1134 N1136 1.375 . S
C1134 H1152 0.931 . S
C1135 N1132 1.311 . S
C1135 N1136 1.347 . S
C1135 H1146 0.929 . S
N1136 C1134 1.375 . S
N1136 C1135 1.347 . S
C1137 C1140 1.365 . S
C1137 N1142 1.328 . S
C1137 H1143 0.929 . S
C1138 C1139 1.362 . S
C1138 C1141 1.378 . S
C1138 H1153 0.929 . S
C1139 C1138 1.362 . S
C1139 C1140 1.366 . S
C1140 C1137 1.365 . S
C1140 C1139 1.366 . S
C1140 H1154 0.930 . S
C1141 C1138 1.378 . S
C1141 N1142 1.315 . S
C1141 H1144 0.930 . S
N1142 Co1122 2.194 . S
N1142 C1137 1.328 . S
N1142 C1141 1.315 . S
H1143 C1137 0.929 . S
H1144 C1141 0.930 . S
H1145 C1133 0.929 . S
H1146 C1135 0.929 . S
O1147 Co1122 2.351 . S
O1147 C1150 1.244 . S
O1148 Co1122 2.155 . S
O1148 C1150 1.240 . S
O1149 Co1122 2.096 . S
O1149 C1130 1.247 . S
C1150 O1147 1.244 . S
C1150 O1148 1.240 . S
H1151 C1125 0.931 . S
H1152 C1134 0.931 . S
H1153 C1138 0.929 . S
H1154 C1140 0.930 . S
Co1155 N1159 2.148 . S
Co1155 N1165 2.128 1_556 S
Co1155 N1175 2.194 . S
Co1155 O1180 2.351 . S
Co1155 O1181 2.155 . S
Co1155 O1182 2.096 . S
C1156 N1159 1.301 . S
C1156 N1160 1.328 . S
C1156 H1161 0.930 . S
C1157 C1158 1.333 . S
C1157 N1159 1.317 . S
C1157 H1162 0.930 . S
C1158 C1157 1.333 . S
C1158 N1160 1.350 . S
C1158 H1184 0.931 . S
N1159 Co1155 2.148 . S
N1159 C1156 1.301 . S
N1159 C1157 1.317 . S
N1160 C1156 1.328 . S
N1160 C1158 1.350 . S
H1161 C1156 0.930 . S
H1162 C1157 0.930 . S
C1163 O1164 1.224 . S
C1163 O1182 1.247 . S
O1164 C1163 1.224 . S
N1165 Co1155 2.128 1_554 S
N1165 C1166 1.355 . S
N1165 C1168 1.311 . S
C1166 N1165 1.355 . S
C1166 C1167 1.363 . S
C1166 H1178 0.929 . S
C1167 C1166 1.363 . S
C1167 N1169 1.375 . S
C1167 H1185 0.931 . S
C1168 N1165 1.311 . S
C1168 N1169 1.347 . S
C1168 H1179 0.929 . S
N1169 C1167 1.375 . S
N1169 C1168 1.347 . S
C1170 C1173 1.365 . S
C1170 N1175 1.328 . S
C1170 H1176 0.929 . S
C1171 C1172 1.362 . S
C1171 C1174 1.378 . S
C1171 H1186 0.929 . S
C1172 C1171 1.362 . S
C1172 C1173 1.366 . S
C1173 C1170 1.365 . S
C1173 C1172 1.366 . S
C1173 H1187 0.930 . S
C1174 C1171 1.378 . S
C1174 N1175 1.315 . S
C1174 H1177 0.930 . S
N1175 Co1155 2.194 . S
N1175 C1170 1.328 . S
N1175 C1174 1.315 . S
H1176 C1170 0.929 . S
H1177 C1174 0.930 . S
H1178 C1166 0.929 . S
H1179 C1168 0.929 . S
O1180 Co1155 2.351 . S
O1180 C1183 1.244 . S
O1181 Co1155 2.155 . S
O1181 C1183 1.240 . S
O1182 Co1155 2.096 . S
O1182 C1163 1.247 . S
C1183 O1180 1.244 . S
C1183 O1181 1.240 . S
H1184 C1158 0.931 . S
H1185 C1167 0.931 . S
H1186 C1171 0.929 . S
H1187 C1173 0.930 . S
C28 C523 0.907 . S
C556 C61 0.907 . S
C589 C94 0.907 . S
C820 C127 0.907 . S
C160 C853 0.907 . S
C886 C193 0.907 . S
C1117 C226 0.907 . S
C259 C1150 0.907 . S
C1183 C292 0.907 . S
C622 C325 0.908 . S
C655 C358 0.907 . S
C688 C391 0.907 . S
C919 C424 0.907 . S
C952 C457 0.907 1_565 S
C490 C985 0.907 1_655 S
C721 C1018 0.907 . S
C1051 C754 0.907 1_565 S
C787 C1084 0.907 1_655 S
C965 C8 1.646 . S
C41 C899 1.645 . S
C932 C74 1.645 . S
C437 C107 1.645 . S
C470 C140 1.645 . S
C404 C173 1.645 . S
C206 C767 1.646 . S
C701 C239 1.645 . S
C272 C734 1.645 . S
C1031 C305 1.645 . S
C338 C1064 1.645 . S
C371 C998 1.645 . S
C833 C503 1.645 1_656 S
C866 C536 1.645 1_556 S
C569 C800 1.646 1_564 S
C602 C1163 1.646 1_564 S
C1097 C635 1.645 1_656 S
C1130 C668 1.645 1_556 S
C17 C380 1.659 . S
C50 C314 1.659 . S
C83 C347 1.659 . S
C116 C248 1.659 . S
C281 C149 1.659 . S
C215 C182 1.659 . S
C776 C413 1.659 . S
C710 C446 1.659 . S
C479 C743 1.659 . S
C644 C512 1.660 . S
C677 C545 1.659 . S
C611 C578 1.659 . S
C1172 C809 1.660 . S
C842 C1106 1.659 . S
C1139 C875 1.659 . S
C1040 C908 1.660 . S
C1073 C941 1.659 . S
C1007 C974 1.659 . S
N5 N14 1.597 . S
N47 N38 1.597 . S
N71 N80 1.597 . S
N113 N104 1.597 . S
N146 N137 1.597 . S
N179 N170 1.597 . S
N212 N203 1.597 . S
N245 N236 1.597 . S
N269 N278 1.597 . S
N302 N311 1.597 . S
N344 N335 1.597 . S
N368 N377 1.597 . S
N410 N401 1.597 . S
N443 N434 1.597 . S
N476 N467 1.597 . S
N509 N500 1.597 . S
N542 N533 1.597 . S
N566 N575 1.597 . S
N608 N599 1.597 . S
N632 N641 1.597 . S
N665 N674 1.597 . S
N698 N707 1.597 . S
N740 N731 1.597 . S
N773 N764 1.597 . S
N797 N806 1.597 . S
N830 N839 1.597 . S
N872 N863 1.597 . S
N905 N896 1.597 . S
N929 N938 1.597 . S
N971 N962 1.597 . S
N995 N1004 1.597 . S
N1028 N1037 1.597 . S
N1061 N1070 1.597 . S
N1103 N1094 1.597 . S
N1127 N1136 1.597 . S
N1169 N1160 1.597 . S
