# Generated by pormake.
# Topology wir, (6)-cn, num edge types: 1
# Building blocks:
#     Node 0, Type 0, BuildingBlock: GEDQOX_clean_sbu_0, # of connection points: 6
#     Node 1, Type 0, BuildingBlock: GEDQOX_clean_sbu_0, # of connection points: 6
#     Node 2, Type 0, BuildingBlock: GEDQOX_clean_sbu_0, # of connection points: 6
#     Node 3, Type 0, BuildingBlock: GEDQOX_clean_sbu_0, # of connection points: 6
#     Node 4, Type 0, BuildingBlock: GEDQOX_clean_sbu_0, # of connection points: 6
#     Node 5, Type 0, BuildingBlock: GEDQOX_clean_sbu_0, # of connection points: 6
#     Node 6, Type 0, BuildingBlock: GEDQOX_clean_sbu_0, # of connection points: 6
#     Node 7, Type 0, BuildingBlock: GEDQOX_clean_sbu_0, # of connection points: 6
#     Node 8, Type 0, BuildingBlock: GEDQOX_clean_sbu_0, # of connection points: 6
#     Node 9, Type 0, BuildingBlock: GEDQOX_clean_sbu_0, # of connection points: 6
#     Node 10, Type 0, BuildingBlock: GEDQOX_clean_sbu_0, # of connection points: 6
#     Node 11, Type 0, BuildingBlock: GEDQOX_clean_sbu_0, # of connection points: 6
#     Node 12, Type 0, BuildingBlock: GEDQOX_clean_sbu_0, # of connection points: 6
#     Node 13, Type 0, BuildingBlock: GEDQOX_clean_sbu_0, # of connection points: 6
#     Node 14, Type 0, BuildingBlock: GEDQOX_clean_sbu_0, # of connection points: 6
#     Node 15, Type 0, BuildingBlock: GEDQOX_clean_sbu_0, # of connection points: 6
#     Node 16, Type 0, BuildingBlock: GEDQOX_clean_sbu_0, # of connection points: 6
#     Node 17, Type 0, BuildingBlock: GEDQOX_clean_sbu_0, # of connection points: 6
#     Node 18, Type 0, BuildingBlock: GEDQOX_clean_sbu_0, # of connection points: 6
#     Node 19, Type 0, BuildingBlock: GEDQOX_clean_sbu_0, # of connection points: 6
#     Node 20, Type 0, BuildingBlock: GEDQOX_clean_sbu_0, # of connection points: 6
#     Node 21, Type 0, BuildingBlock: GEDQOX_clean_sbu_0, # of connection points: 6
#     Node 22, Type 0, BuildingBlock: GEDQOX_clean_sbu_0, # of connection points: 6
#     Node 23, Type 0, BuildingBlock: GEDQOX_clean_sbu_0, # of connection points: 6
#     Node 24, Type 0, BuildingBlock: GEDQOX_clean_sbu_0, # of connection points: 6
#     Node 25, Type 0, BuildingBlock: GEDQOX_clean_sbu_0, # of connection points: 6
#     Node 26, Type 0, BuildingBlock: GEDQOX_clean_sbu_0, # of connection points: 6
#     Node 27, Type 0, BuildingBlock: GEDQOX_clean_sbu_0, # of connection points: 6
#     Node 28, Type 0, BuildingBlock: GEDQOX_clean_sbu_0, # of connection points: 6
#     Node 29, Type 0, BuildingBlock: GEDQOX_clean_sbu_0, # of connection points: 6
#     Node 30, Type 0, BuildingBlock: GEDQOX_clean_sbu_0, # of connection points: 6
#     Node 31, Type 0, BuildingBlock: GEDQOX_clean_sbu_0, # of connection points: 6
#     Edge 32, Type (0, 0), BuildingBlock: XUDNAN_clean_linker_2, # of connection points: 2
#     Edge 33, Type (0, 0), BuildingBlock: XUDNAN_clean_linker_2, # of connection points: 2
#     Edge 34, Type (0, 0), BuildingBlock: XUDNAN_clean_linker_2, # of connection points: 2
#     Edge 35, Type (0, 0), BuildingBlock: XUDNAN_clean_linker_2, # of connection points: 2
#     Edge 36, Type (0, 0), BuildingBlock: XUDNAN_clean_linker_2, # of connection points: 2
#     Edge 37, Type (0, 0), BuildingBlock: XUDNAN_clean_linker_2, # of connection points: 2
#     Edge 38, Type (0, 0), BuildingBlock: XUDNAN_clean_linker_2, # of connection points: 2
#     Edge 39, Type (0, 0), BuildingBlock: XUDNAN_clean_linker_2, # of connection points: 2
#     Edge 40, Type (0, 0), BuildingBlock: XUDNAN_clean_linker_2, # of connection points: 2
#     Edge 41, Type (0, 0), BuildingBlock: XUDNAN_clean_linker_2, # of connection points: 2
#     Edge 42, Type (0, 0), BuildingBlock: XUDNAN_clean_linker_2, # of connection points: 2
#     Edge 43, Type (0, 0), BuildingBlock: XUDNAN_clean_linker_2, # of connection points: 2
#     Edge 44, Type (0, 0), BuildingBlock: XUDNAN_clean_linker_2, # of connection points: 2
#     Edge 45, Type (0, 0), BuildingBlock: XUDNAN_clean_linker_2, # of connection points: 2
#     Edge 46, Type (0, 0), BuildingBlock: XUDNAN_clean_linker_2, # of connection points: 2
#     Edge 47, Type (0, 0), BuildingBlock: XUDNAN_clean_linker_2, # of connection points: 2
#     Edge 48, Type (0, 0), BuildingBlock: XUDNAN_clean_linker_2, # of connection points: 2
#     Edge 49, Type (0, 0), BuildingBlock: XUDNAN_clean_linker_2, # of connection points: 2
#     Edge 50, Type (0, 0), BuildingBlock: XUDNAN_clean_linker_2, # of connection points: 2
#     Edge 51, Type (0, 0), BuildingBlock: XUDNAN_clean_linker_2, # of connection points: 2
#     Edge 52, Type (0, 0), BuildingBlock: XUDNAN_clean_linker_2, # of connection points: 2
#     Edge 53, Type (0, 0), BuildingBlock: XUDNAN_clean_linker_2, # of connection points: 2
#     Edge 54, Type (0, 0), BuildingBlock: XUDNAN_clean_linker_2, # of connection points: 2
#     Edge 55, Type (0, 0), BuildingBlock: XUDNAN_clean_linker_2, # of connection points: 2
#     Edge 56, Type (0, 0), BuildingBlock: XUDNAN_clean_linker_2, # of connection points: 2
#     Edge 57, Type (0, 0), BuildingBlock: XUDNAN_clean_linker_2, # of connection points: 2
#     Edge 58, Type (0, 0), BuildingBlock: XUDNAN_clean_linker_2, # of connection points: 2
#     Edge 59, Type (0, 0), BuildingBlock: XUDNAN_clean_linker_2, # of connection points: 2
#     Edge 60, Type (0, 0), BuildingBlock: XUDNAN_clean_linker_2, # of connection points: 2
#     Edge 61, Type (0, 0), BuildingBlock: XUDNAN_clean_linker_2, # of connection points: 2
#     Edge 62, Type (0, 0), BuildingBlock: XUDNAN_clean_linker_2, # of connection points: 2
#     Edge 63, Type (0, 0), BuildingBlock: XUDNAN_clean_linker_2, # of connection points: 2
#     Edge 64, Type (0, 0), BuildingBlock: XUDNAN_clean_linker_2, # of connection points: 2
#     Edge 65, Type (0, 0), BuildingBlock: XUDNAN_clean_linker_2, # of connection points: 2
#     Edge 66, Type (0, 0), BuildingBlock: XUDNAN_clean_linker_2, # of connection points: 2
#     Edge 67, Type (0, 0), BuildingBlock: XUDNAN_clean_linker_2, # of connection points: 2
#     Edge 68, Type (0, 0), BuildingBlock: XUDNAN_clean_linker_2, # of connection points: 2
#     Edge 69, Type (0, 0), BuildingBlock: XUDNAN_clean_linker_2, # of connection points: 2
#     Edge 70, Type (0, 0), BuildingBlock: XUDNAN_clean_linker_2, # of connection points: 2
#     Edge 71, Type (0, 0), BuildingBlock: XUDNAN_clean_linker_2, # of connection points: 2
#     Edge 72, Type (0, 0), BuildingBlock: XUDNAN_clean_linker_2, # of connection points: 2
#     Edge 73, Type (0, 0), BuildingBlock: XUDNAN_clean_linker_2, # of connection points: 2
#     Edge 74, Type (0, 0), BuildingBlock: XUDNAN_clean_linker_2, # of connection points: 2
#     Edge 75, Type (0, 0), BuildingBlock: XUDNAN_clean_linker_2, # of connection points: 2
#     Edge 76, Type (0, 0), BuildingBlock: XUDNAN_clean_linker_2, # of connection points: 2
#     Edge 77, Type (0, 0), BuildingBlock: XUDNAN_clean_linker_2, # of connection points: 2
#     Edge 78, Type (0, 0), BuildingBlock: XUDNAN_clean_linker_2, # of connection points: 2
#     Edge 79, Type (0, 0), BuildingBlock: XUDNAN_clean_linker_2, # of connection points: 2
#     Edge 80, Type (0, 0), BuildingBlock: XUDNAN_clean_linker_2, # of connection points: 2
#     Edge 81, Type (0, 0), BuildingBlock: XUDNAN_clean_linker_2, # of connection points: 2
#     Edge 82, Type (0, 0), BuildingBlock: XUDNAN_clean_linker_2, # of connection points: 2
#     Edge 83, Type (0, 0), BuildingBlock: XUDNAN_clean_linker_2, # of connection points: 2
#     Edge 84, Type (0, 0), BuildingBlock: XUDNAN_clean_linker_2, # of connection points: 2
#     Edge 85, Type (0, 0), BuildingBlock: XUDNAN_clean_linker_2, # of connection points: 2
#     Edge 86, Type (0, 0), BuildingBlock: XUDNAN_clean_linker_2, # of connection points: 2
#     Edge 87, Type (0, 0), BuildingBlock: XUDNAN_clean_linker_2, # of connection points: 2
#     Edge 88, Type (0, 0), BuildingBlock: XUDNAN_clean_linker_2, # of connection points: 2
#     Edge 89, Type (0, 0), BuildingBlock: XUDNAN_clean_linker_2, # of connection points: 2
#     Edge 90, Type (0, 0), BuildingBlock: XUDNAN_clean_linker_2, # of connection points: 2
#     Edge 91, Type (0, 0), BuildingBlock: XUDNAN_clean_linker_2, # of connection points: 2
#     Edge 92, Type (0, 0), BuildingBlock: XUDNAN_clean_linker_2, # of connection points: 2
#     Edge 93, Type (0, 0), BuildingBlock: XUDNAN_clean_linker_2, # of connection points: 2
#     Edge 94, Type (0, 0), BuildingBlock: XUDNAN_clean_linker_2, # of connection points: 2
#     Edge 95, Type (0, 0), BuildingBlock: XUDNAN_clean_linker_2, # of connection points: 2
#     Edge 96, Type (0, 0), BuildingBlock: XUDNAN_clean_linker_2, # of connection points: 2
#     Edge 97, Type (0, 0), BuildingBlock: XUDNAN_clean_linker_2, # of connection points: 2
#     Edge 98, Type (0, 0), BuildingBlock: XUDNAN_clean_linker_2, # of connection points: 2
#     Edge 99, Type (0, 0), BuildingBlock: XUDNAN_clean_linker_2, # of connection points: 2
#     Edge 100, Type (0, 0), BuildingBlock: XUDNAN_clean_linker_2, # of connection points: 2
#     Edge 101, Type (0, 0), BuildingBlock: XUDNAN_clean_linker_2, # of connection points: 2
#     Edge 102, Type (0, 0), BuildingBlock: XUDNAN_clean_linker_2, # of connection points: 2
#     Edge 103, Type (0, 0), BuildingBlock: XUDNAN_clean_linker_2, # of connection points: 2
#     Edge 104, Type (0, 0), BuildingBlock: XUDNAN_clean_linker_2, # of connection points: 2
#     Edge 105, Type (0, 0), BuildingBlock: XUDNAN_clean_linker_2, # of connection points: 2
#     Edge 106, Type (0, 0), BuildingBlock: XUDNAN_clean_linker_2, # of connection points: 2
#     Edge 107, Type (0, 0), BuildingBlock: XUDNAN_clean_linker_2, # of connection points: 2
#     Edge 108, Type (0, 0), BuildingBlock: XUDNAN_clean_linker_2, # of connection points: 2
#     Edge 109, Type (0, 0), BuildingBlock: XUDNAN_clean_linker_2, # of connection points: 2
#     Edge 110, Type (0, 0), BuildingBlock: XUDNAN_clean_linker_2, # of connection points: 2
#     Edge 111, Type (0, 0), BuildingBlock: XUDNAN_clean_linker_2, # of connection points: 2
#     Edge 112, Type (0, 0), BuildingBlock: XUDNAN_clean_linker_2, # of connection points: 2
#     Edge 113, Type (0, 0), BuildingBlock: XUDNAN_clean_linker_2, # of connection points: 2
#     Edge 114, Type (0, 0), BuildingBlock: XUDNAN_clean_linker_2, # of connection points: 2
#     Edge 115, Type (0, 0), BuildingBlock: XUDNAN_clean_linker_2, # of connection points: 2
#     Edge 116, Type (0, 0), BuildingBlock: XUDNAN_clean_linker_2, # of connection points: 2
#     Edge 117, Type (0, 0), BuildingBlock: XUDNAN_clean_linker_2, # of connection points: 2
#     Edge 118, Type (0, 0), BuildingBlock: XUDNAN_clean_linker_2, # of connection points: 2
#     Edge 119, Type (0, 0), BuildingBlock: XUDNAN_clean_linker_2, # of connection points: 2
#     Edge 120, Type (0, 0), BuildingBlock: XUDNAN_clean_linker_2, # of connection points: 2
#     Edge 121, Type (0, 0), BuildingBlock: XUDNAN_clean_linker_2, # of connection points: 2
#     Edge 122, Type (0, 0), BuildingBlock: XUDNAN_clean_linker_2, # of connection points: 2
#     Edge 123, Type (0, 0), BuildingBlock: XUDNAN_clean_linker_2, # of connection points: 2
#     Edge 124, Type (0, 0), BuildingBlock: XUDNAN_clean_linker_2, # of connection points: 2
#     Edge 125, Type (0, 0), BuildingBlock: XUDNAN_clean_linker_2, # of connection points: 2
#     Edge 126, Type (0, 0), BuildingBlock: XUDNAN_clean_linker_2, # of connection points: 2
#     Edge 127, Type (0, 0), BuildingBlock: XUDNAN_clean_linker_2, # of connection points: 2
# Relax obj value: 0.559
# Max RMSD: 0.219
# Mean RMSD: 0.219
data_MOF--net-wir--node1-GEDQOX_clean_sbu_0--edge1-XUDNAN_clean_linker_2
_symmetry_space_group_name_H-M    P1
_symmetry_Int_Tables_number       1
_symmetry_cell_setting            triclinic
loop_
_symmetry_equiv_pos_as_xyz
'x, y, z'
_cell_length_a     39.182981
_cell_length_b     39.436309
_cell_length_c     104.37663
_cell_angle_alpha  89.898009
_cell_angle_beta   89.787735
_cell_angle_gamma 89.885556
loop_
_atom_site_label
_atom_site_type_symbol
_atom_site_fract_x
_atom_site_fract_y
_atom_site_fract_z
_atom_type_partial_charge
Nd0 Nd 0.13572 0.09355 0.42029 0.0
Nd1 Nd 0.17802 0.12957 0.41541 0.0
C2 C 0.07641 0.06149 0.41867 0.0
C3 C 1.04069 0.07315 0.41842 0.0
C4 C 1.03001 0.09828 0.40973 0.0
C5 C 0.99902 0.11507 0.41161 0.0
C6 C 0.97856 0.10747 0.42233 0.0
C7 C 0.98762 0.07979 0.43015 0.0
C8 C 1.0184 0.06272 0.42818 0.0
C9 C 0.18733 0.06179 0.43565 0.0
C10 C 0.15433 0.13447 0.44365 0.0
C11 C 0.2355 0.15914 0.40788 0.0
C12 C 0.24337 0.18993 0.4007 0.0
C13 C 0.21716 0.20819 0.39472 0.0
C14 C 0.22459 0.23786 0.388 0.0
C15 C 0.25838 0.24961 0.38717 0.0
C16 C 0.28447 0.2314 0.39337 0.0
C17 C 0.27697 0.20174 0.40011 0.0
C18 C 0.12451 0.17936 0.4168 0.0
C19 C 0.16216 0.07922 0.39173 0.0
O20 O 0.09529 0.06895 0.40875 0.0
O21 O 0.09238 0.0665 0.42943 0.0
O22 O 0.15495 0.06299 0.4381 0.0
O23 O 0.19271 0.07696 0.42472 0.0
O24 O 0.12615 0.12789 0.43755 0.0
O25 O 0.1827 0.13092 0.43719 0.0
O26 O 0.2206 0.13506 0.40148 0.0
O27 O 0.22148 0.16403 0.41902 0.0
O28 O 0.15538 0.18201 0.42094 0.0
O29 O 0.1219 0.14889 0.41203 0.0
O30 O 0.16851 0.11147 0.39381 0.0
O31 O 0.15408 0.06275 0.40223 0.0
H32 H 1.04655 0.10667 0.40202 0.0
H33 H 0.99244 0.1359 0.4053 0.0
H34 H 0.9727 0.07333 0.43856 0.0
H35 H 1.02605 1.04325 0.43492 0.0
H36 H 0.19103 0.1993 0.39517 0.0
H37 H 0.20406 0.25107 0.38317 0.0
H38 H 0.31067 0.24007 0.39298 0.0
H39 H 0.29736 0.18799 0.40482 0.0
Nd40 Nd 0.24548 0.88756 0.67151 0.0
Nd41 Nd 0.21018 0.92732 0.66563 0.0
C42 C 0.27809 0.82861 0.67017 0.0
C43 C 0.26657 0.79326 0.66922 0.0
C44 C 0.24018 0.78415 0.66083 0.0
C45 C 0.22392 0.75287 0.66216 0.0
C46 C 0.23329 0.73058 0.67208 0.0
C47 C 0.26199 0.73851 0.6796 0.0
C48 C 0.27852 0.76955 0.67813 0.0
C49 C 0.27696 0.93825 0.68702 0.0
C50 C 0.2037 0.91079 0.69453 0.0
C51 C 0.18747 0.98414 0.65501 0.0
C52 C 0.17677 0.99425 0.64216 0.0
C53 C 0.17849 1.02843 0.63862 0.0
C54 C 0.17099 1.0382 0.6261 0.0
C55 C 0.1617 1.01384 0.61693 0.0
C56 C 0.16022 0.97949 0.62053 0.0
C57 C 0.16777 0.96976 0.63307 0.0
C58 C 0.15968 0.87566 0.66822 0.0
C59 C 0.25957 0.90893 0.6425 0.0
O60 O 0.27265 0.84802 0.66027 0.0
O61 O 0.27063 0.84368 0.68091 0.0
O62 O 0.27682 0.90593 0.68916 0.0
O63 O 0.26097 0.94403 0.6763 0.0
O64 O 0.21216 0.88171 0.68945 0.0
O65 O 0.20502 0.93724 0.68701 0.0
O66 O 0.21963 0.97634 0.65595 0.0
O67 O 0.16785 0.96297 0.66116 0.0
O68 O 0.15738 0.90687 0.67205 0.0
O69 O 0.19039 0.87162 0.66353 0.0
O70 O 0.22668 0.91142 0.6445 0.0
O71 O 0.27647 0.90601 0.65328 0.0
H72 H 0.23053 0.80199 0.65381 0.0
H73 H 0.2023 0.74731 0.65608 0.0
H74 H 0.26982 0.72229 0.68744 0.0
H75 H 0.29887 0.77612 0.68467 0.0
H76 H 0.18605 1.04751 0.64551 0.0
H77 H 0.17272 0.06478 0.62356 0.0
H78 H 0.15267 0.9602 0.61374 0.0
H79 H 0.16676 0.94316 0.63564 0.0
Nd80 Nd 0.46936 0.98728 0.91946 0.0
Nd81 Nd 0.42717 0.95322 0.91591 0.0
C82 C 0.52958 1.01523 0.9147 0.0
C83 C 0.56286 0.9986 0.91348 0.0
C84 C 0.5648 0.96346 0.91523 0.0
C85 C 0.59624 0.94754 0.9165 0.0
C86 C 0.62654 0.96659 0.91618 0.0
C87 C 0.62459 1.00132 0.91296 0.0
C88 C 0.59282 1.01732 0.91174 0.0
C89 C 0.42442 1.02054 0.93708 0.0
C90 C 0.45335 0.94792 0.94375 0.0
C91 C 0.36764 0.9299 0.90775 0.0
C92 C 0.35595 0.91786 0.89529 0.0
C93 C 0.32101 0.91697 0.89259 0.0
C94 C 0.30991 0.90848 0.88031 0.0
C95 C 0.3337 0.90109 0.87059 0.0
C96 C 0.36873 0.90196 0.87338 0.0
C97 C 0.37976 0.91023 0.88566 0.0
C98 C 0.4799 0.90283 0.9169 0.0
C99 C 0.44029 1.00259 0.89201 0.0
O100 O 0.50777 1.00768 0.90578 0.0
O101 O 0.51601 1.01363 0.9261 0.0
O102 O 0.45741 1.01857 0.93762 0.0
O103 O 0.41454 1.00504 0.9267 0.0
O104 O 0.48079 0.95477 0.93712 0.0
O105 O 0.42428 0.95015 0.93772 0.0
O106 O 0.37556 0.96189 0.908 0.0
O107 O 0.39009 0.91112 0.9136 0.0
O108 O 0.44998 0.90084 0.9222 0.0
O109 O 0.48129 0.93219 0.91125 0.0
O110 O 0.43798 0.96987 0.89416 0.0
O111 O 0.446 1.01936 0.90259 0.0
H112 H 0.54194 0.94861 0.9166 0.0
H113 H 0.59628 0.92094 0.9191 0.0
H114 H 0.64747 1.01662 0.91243 0.0
H115 H 0.59169 1.04447 0.91021 0.0
H116 H 0.3024 0.92332 0.89991 0.0
H117 H 0.28277 0.9081 0.87838 0.0
H118 H 0.38758 0.89579 0.86613 0.0
H119 H 0.40689 0.91098 0.8876 0.0
Nd120 Nd 0.35362 0.19782 0.17095 0.0
Nd121 Nd 0.39542 0.15612 0.16855 0.0
C122 C 0.31877 0.25497 0.16825 0.0
C123 C 0.33056 0.29032 0.16769 0.0
C124 C 0.35892 0.29939 0.16013 0.0
C125 C 0.37597 0.32988 0.16235 0.0
C126 C 0.36535 0.35141 0.17232 0.0
C127 C 0.33487 0.34374 0.17893 0.0
C128 C 0.31759 0.31355 0.17658 0.0
C129 C 0.32341 0.14548 0.18655 0.0
C130 C 0.39233 0.18718 0.19566 0.0
C131 C 0.43076 0.09984 0.16411 0.0
C132 C 0.46376 0.09218 0.15823 0.0
C133 C 0.47361 0.05844 0.15637 0.0
C134 C 0.50466 0.051 0.1504 0.0
C135 C 0.52626 0.0773 0.14622 0.0
C136 C 0.5166 0.11114 0.14845 0.0
C137 C 0.48552 0.11852 0.15439 0.0
C138 C 0.4397 0.21347 0.16849 0.0
C139 C 0.35141 0.16973 0.14225 0.0
O140 O 0.32707 0.23551 0.15864 0.0
O141 O 0.32338 0.24005 0.17925 0.0
O142 O 0.32099 0.17785 0.18823 0.0
O143 O 0.34094 0.14042 0.17609 0.0
O144 O 0.3856 0.21311 0.18832 0.0
O145 O 0.39168 0.15734 0.19031 0.0
O146 O 0.40722 0.11128 0.15644 0.0
O147 O 0.4321 0.11673 0.17478 0.0
O148 O 0.44522 0.18471 0.17403 0.0
O149 O 0.40944 0.21232 0.16339 0.0
O150 O 0.38213 0.16179 0.14646 0.0
O151 O 0.33045 0.1803 0.15121 0.0
H152 H 0.36947 0.28193 0.15315 0.0
H153 H 0.39889 0.33535 0.1569 0.0
H154 H 0.32592 0.35934 0.18679 0.0
H155 H 0.29581 0.30701 0.18251 0.0
H156 H 0.45703 1.03788 0.15932 0.0
H157 H 0.51113 1.02471 0.14862 0.0
H158 H 0.53283 0.13189 0.14543 0.0
H159 H 0.47825 0.14476 0.15582 0.0
Nd160 Nd 0.13595 0.97944 0.2717 0.0
Nd161 Nd 0.17795 0.93825 0.27377 0.0
C162 C 0.07811 1.01305 0.27509 0.0
C163 C 1.04353 0.9992 0.27625 0.0
C164 C 1.03915 0.96593 0.28079 0.0
C165 C 1.00899 0.94845 0.27835 0.0
C166 C 0.98281 0.9641 0.27139 0.0
C167 C 0.98577 0.99858 0.26809 0.0
C168 C 1.01613 1.016 0.27044 0.0
C169 C 0.18805 1.00945 0.25576 0.0
C170 C 0.14455 0.9399 0.24693 0.0
C171 C 0.23441 0.90285 0.27819 0.0
C172 C 0.24125 0.87022 0.28432 0.0
C173 C 0.2748 0.85845 0.28541 0.0
C174 C 0.28148 0.82794 0.29174 0.0
C175 C 0.2546 0.80886 0.29705 0.0
C176 C 0.22086 0.82034 0.29556 0.0
C177 C 0.21424 0.85083 0.28925 0.0
C178 C 0.12046 0.89401 0.27413 0.0
C179 C 0.16542 0.98329 0.30003 0.0
O180 O 0.09892 1.00581 0.28442 0.0
O181 O 0.09219 1.0086 0.26389 0.0
O182 O 0.15538 1.01175 0.25428 0.0
O183 O 0.19351 0.99221 0.26619 0.0
O184 O 0.11918 0.9483 0.25437 0.0
O185 O 0.17504 0.94061 0.2519 0.0
O186 O 0.22333 0.92682 0.28571 0.0
O187 O 0.21736 0.90136 0.26756 0.0
O188 O 0.14887 0.889 0.26814 0.0
O189 O 0.12209 0.9238 0.27948 0.0
O190 O 0.17274 0.95241 0.29593 0.0
O191 O 0.15474 1.00377 0.29101 0.0
H192 H 0.06006 0.95251 0.28528 0.0
H193 H 1.00718 0.92192 0.28096 0.0
H194 H 0.96605 1.01107 0.26256 0.0
H195 H 1.01917 1.04154 0.26678 0.0
H196 H 0.29586 0.87319 0.28161 0.0
H197 H 0.30777 0.82002 0.29291 0.0
H198 H 0.19967 0.80604 0.29948 0.0
H199 H 0.18812 0.8596 0.2884 0.0
Nd200 Nd 0.35384 0.87779 0.52125 0.0
Nd201 Nd 0.39406 0.9201 0.52379 0.0
C202 C 0.32048 0.82 0.52455 0.0
C203 C 0.33426 0.78561 0.52615 0.0
C204 C 0.3658 0.78103 0.5323 0.0
C205 C 0.38528 0.75211 0.52988 0.0
C206 C 0.37347 0.72765 0.52128 0.0
C207 C 0.34004 0.73 0.51656 0.0
C208 C 0.32051 0.759 0.51895 0.0
C209 C 0.32352 0.92817 0.50488 0.0
C210 C 0.39467 0.88943 0.49665 0.0
C211 C 0.42219 0.97839 0.53048 0.0
C212 C 0.43733 0.98943 0.54252 0.0
C213 C 0.43735 1.02387 0.5457 0.0
C214 C 0.4472 1.03406 0.55793 0.0
C215 C 0.45688 1.00983 0.56714 0.0
C216 C 0.45732 0.97534 0.5638 0.0
C217 C 0.44757 0.96522 0.55158 0.0
C218 C 0.43996 0.8643 0.52368 0.0
C219 C 0.35056 0.90582 0.54991 0.0
O220 O 0.32641 0.84124 0.53383 0.0
O221 O 0.32635 0.8334 0.51335 0.0
O222 O 0.32172 0.89566 0.50354 0.0
O223 O 0.34019 0.93422 0.51537 0.0
O224 O 0.38685 0.86345 0.50386 0.0
O225 O 0.39398 0.91934 0.502 0.0
O226 O 0.38962 0.97235 0.53126 0.0
O227 O 0.43856 0.95492 0.52418 0.0
O228 O 0.44442 0.89295 0.51779 0.0
O229 O 0.40974 0.86471 0.52903 0.0
O230 O 0.38184 0.91145 0.5458 0.0
O231 O 0.32948 0.8971 0.54076 0.0
H232 H 0.37698 0.80124 0.5379 0.0
H233 H 0.41104 0.75058 0.53356 0.0
H234 H 0.3307 0.71153 0.50975 0.0
H235 H 0.29634 0.76215 0.51407 0.0
H236 H 0.42885 1.04274 0.53885 0.0
H237 H 0.44646 0.06079 0.56029 0.0
H238 H 0.46524 0.95618 0.57063 0.0
H239 H 0.44725 0.93842 0.54931 0.0
Nd240 Nd 0.4635 0.10466 0.77167 0.0
Nd241 Nd 0.41852 0.1441 0.77468 0.0
C242 C 0.52412 0.07594 0.77461 0.0
C243 C 0.55715 0.09318 0.77513 0.0
C244 C 0.55795 0.12833 0.77326 0.0
C245 C 0.58882 0.14506 0.77167 0.0
C246 C 0.61977 0.12692 0.77188 0.0
C247 C 0.61898 0.09208 0.77501 0.0
C248 C 0.58776 0.07523 0.77652 0.0
C249 C 0.4125 0.0735 0.75589 0.0
C250 C 0.44752 0.14441 0.74699 0.0
C251 C 0.35989 0.17205 0.78188 0.0
C252 C 0.34525 0.17901 0.79459 0.0
C253 C 0.34843 0.15529 0.80459 0.0
C254 C 0.33771 0.16346 0.81696 0.0
C255 C 0.32358 0.19546 0.81955 0.0
C256 C 0.31953 0.21879 0.80943 0.0
C257 C 0.33031 0.2106 0.79706 0.0
C258 C 0.47534 0.18935 0.77344 0.0
C259 C 0.43477 0.09796 0.8002 0.0
O260 O 0.50365 0.0825 0.78414 0.0
O261 O 0.50869 0.07814 0.7636 0.0
O262 O 0.44523 0.07206 0.75424 0.0
O263 O 0.40672 0.08974 0.76653 0.0
O264 O 0.47452 0.13658 0.75372 0.0
O265 O 0.418 0.14458 0.75287 0.0
O266 O 0.36318 0.14025 0.77883 0.0
O267 O 0.38668 0.18968 0.77878 0.0
O268 O 0.44649 0.1929 0.76749 0.0
O269 O 0.4738 0.16052 0.77955 0.0
O270 O 0.42704 0.12899 0.79646 0.0
O271 O 0.4453 0.0782 0.79088 0.0
H272 H 0.53454 0.14258 0.77217 0.0
H273 H 0.58792 0.17166 0.76911 0.0
H274 H 0.64234 0.07742 0.77546 0.0
H275 H 0.58752 1.04809 0.77814 0.0
H276 H 0.35987 0.13065 0.80295 0.0
H277 H 0.34086 0.14489 0.82453 0.0
H278 H 0.30923 0.24388 0.81116 0.0
H279 H 0.32789 0.22929 0.78949 0.0
Nd280 Nd 0.25037 0.20441 1.02146 0.0
Nd281 Nd 0.2139 0.1619 1.02579 0.0
C282 C 0.28137 0.26357 1.02375 0.0
C283 C 0.26549 0.29738 1.02406 0.0
C284 C 0.27582 0.32175 1.01509 0.0
C285 C 0.25421 0.34872 1.01205 0.0
C286 C 0.22197 0.35165 1.01797 0.0
C287 C 0.21367 0.32971 1.02808 0.0
C288 C 0.23521 0.30264 1.03109 0.0
C289 C 0.27978 0.15466 1.00447 0.0
C290 C 0.2052 0.19113 0.99854 0.0
C291 C 0.18972 0.10302 1.03407 0.0
C292 C 0.17807 0.09199 1.04671 0.0
C293 C 0.17849 0.05752 1.04993 0.0
C294 C 0.17082 1.0473 1.06243 0.0
C295 C 0.16298 0.07154 1.07187 0.0
C296 C 0.16247 0.10607 1.06855 0.0
C297 C 0.16993 0.1162 1.05606 0.0
C298 C 0.16515 0.2158 1.02579 0.0
C299 C 0.26285 0.17702 1.04973 0.0
O300 O 0.27503 0.24378 1.03348 0.0
O301 O 0.27829 0.24779 1.01286 0.0
O302 O 0.27764 0.18707 1.00261 0.0
O303 O 0.26704 0.14886 1.01581 0.0
O304 O 0.21367 0.21749 1.0053 0.0
O305 O 0.20859 0.16139 1.00396 0.0
O306 O 0.22206 0.11018 1.03347 0.0
O307 O 0.17101 0.12565 1.0283 0.0
O308 O 0.16113 0.18616 1.02064 0.0
O309 O 0.1959 0.21697 1.03052 0.0
O310 O 0.23022 0.17272 1.04743 0.0
O311 O 0.28042 0.18377 1.03932 0.0
H312 H 0.29896 0.31811 1.00954 0.0
H313 H 0.26133 0.36511 1.00415 0.0
H314 H 0.1893 0.33194 1.03293 0.0
H315 H 0.22666 0.28429 1.03812 0.0
H316 H 0.1853 1.03861 1.04284 0.0
H317 H 0.17148 1.02053 1.06477 0.0
H318 H 0.15588 0.12524 1.07556 0.0
H319 H 0.16974 0.14298 1.05375 0.0
Nd320 Nd 0.92245 0.9553 0.77309 0.0
Nd321 Nd 0.96473 0.99523 0.77028 0.0
C322 C 0.86457 0.92654 0.78043 0.0
C323 C 0.85526 0.90991 0.79244 0.0
C324 C 0.82094 0.90734 0.79605 0.0
C325 C 0.81233 0.89587 0.80831 0.0
C326 C 0.83805 0.8872 0.8171 0.0
C327 C 0.8724 0.88917 0.81331 0.0
C328 C 0.88094 0.90043 0.80106 0.0
C329 C 0.97865 0.90968 0.7727 0.0
C330 C 0.93629 0.99969 0.79877 0.0
C331 C 1.02286 1.02819 0.77389 0.0
C332 C 0.05723 1.01421 0.77538 0.0
C333 C 0.06138 0.97902 0.77485 0.0
C334 C 0.09373 0.96485 0.77377 0.0
C335 C 0.12274 0.98574 0.77307 0.0
C336 C 0.11866 1.02093 0.77502 0.0
C337 C 0.08596 1.03514 0.77605 0.0
C338 C 0.91422 1.02545 0.75402 0.0
C339 C 0.95174 0.95546 0.74565 0.0
O340 O 0.87074 0.95879 0.78157 0.0
O341 O 0.88733 0.91114 0.7734 0.0
O342 O 0.94968 0.9053 0.767 0.0
O343 O 0.97834 0.93965 0.77801 0.0
O344 O 0.93175 0.96822 0.79496 0.0
O345 O 0.94415 1.0204 0.78939 0.0
O346 O 1.00169 1.02083 0.78311 0.0
O347 O 1.00939 1.02338 0.76264 0.0
O348 O 0.94698 1.02737 0.75263 0.0
O349 O 0.90802 1.00878 0.76453 0.0
O350 O 0.97827 0.96323 0.75261 0.0
O351 O 0.92197 0.9557 0.75132 0.0
H352 H 0.8009 0.91512 0.78954 0.0
H353 H 0.78566 0.89472 0.81104 0.0
H354 H 0.89269 0.88211 0.81982 0.0
H355 H 0.90763 0.90257 0.79843 0.0
H356 H 1.03939 0.96261 0.77425 0.0
H357 H 0.09539 0.9378 0.77212 0.0
H358 H 0.1405 1.0377 0.77472 0.0
H359 H 0.08311 0.06242 0.7766 0.0
Nd360 Nd 0.89917 0.17046 0.52264 0.0
Nd361 Nd 0.85808 0.21305 0.52017 0.0
C362 C 0.93338 0.1135 0.52706 0.0
C363 C 0.96612 0.10457 0.53279 0.0
C364 C 0.97612 0.07055 0.53342 0.0
C365 C 1.00687 0.06171 0.53925 0.0
C366 C 1.02794 0.08687 0.54452 0.0
C367 C 1.01824 0.1211 0.54347 0.0
C368 C 0.9875 0.1299 0.53764 0.0
C369 C 0.94438 0.2273 0.52224 0.0
C370 C 0.85452 0.18377 0.54883 0.0
C371 C 0.82495 0.27119 0.5231 0.0
C372 C 0.83773 0.30612 0.52429 0.0
C373 C 0.86527 0.31363 0.5324 0.0
C374 C 0.88355 0.34373 0.53081 0.0
C375 C 0.87503 0.36641 0.52092 0.0
C376 C 0.84512 0.36043 0.5138 0.0
C377 C 0.8266 0.3306 0.51552 0.0
C378 C 0.82641 0.16119 0.505 0.0
C379 C 0.89513 0.19878 0.4951 0.0
O380 O 0.91029 0.1256 0.53483 0.0
O381 O 0.93521 0.13045 0.51639 0.0
O382 O 0.9494 0.19831 0.51683 0.0
O383 O 0.91414 0.22668 0.52746 0.0
O384 O 0.88531 0.1756 0.5447 0.0
O385 O 0.83412 0.19515 0.53986 0.0
O386 O 0.8315 0.25058 0.53256 0.0
O387 O 0.83037 0.25714 0.512 0.0
O388 O 0.82435 0.19359 0.50326 0.0
O389 O 0.84412 0.15596 0.51537 0.0
O390 O 0.88896 0.22566 0.50203 0.0
O391 O 0.89471 0.16966 0.501 0.0
H392 H 0.95984 0.0508 0.52964 0.0
H393 H 1.01344 1.03511 0.5401 0.0
H394 H 1.03412 0.14099 0.54738 0.0
H395 H 0.98013 0.15637 0.53709 0.0
H396 H 0.87437 0.29522 0.53931 0.0
H397 H 0.90599 0.34791 0.53662 0.0
H398 H 0.83774 0.37699 0.506 0.0
H399 H 0.80542 0.32532 0.50918 0.0
Nd400 Nd 0.67567 0.14825 0.27305 0.0
Nd401 Nd 0.63491 0.10862 0.27085 0.0
C402 C 0.73452 0.17552 0.27986 0.0
C403 C 0.74484 0.18975 0.29213 0.0
C404 C 0.77909 0.18856 0.29586 0.0
C405 C 0.78815 0.19723 0.30835 0.0
C406 C 0.76293 0.20689 0.31726 0.0
C407 C 0.72867 0.20841 0.31338 0.0
C408 C 0.71972 0.19999 0.30091 0.0
C409 C 0.62068 0.19509 0.27275 0.0
C410 C 0.66262 0.10553 0.29921 0.0
C411 C 0.57878 0.07263 0.27493 0.0
C412 C 0.54271 0.0829 0.27576 0.0
C413 C 0.53263 0.11026 0.28354 0.0
C414 C 0.50128 0.12623 0.28152 0.0
C415 C 0.4799 0.11555 0.27153 0.0
C416 C 0.4884 0.08569 0.26483 0.0
C417 C 0.51949 0.06946 0.26698 0.0
C418 C 0.68531 0.08014 0.25375 0.0
C419 C 0.64066 0.15085 0.24655 0.0
O420 O 0.72845 0.14313 0.28026 0.0
O421 O 0.7111 0.19213 0.27362 0.0
O422 O 0.65011 0.19865 0.26719 0.0
O423 O 0.62012 0.16501 0.27817 0.0
O424 O 0.6657 0.13697 0.29511 0.0
O425 O 0.65629 0.0842 0.28993 0.0
O426 O 0.59874 0.08285 0.28409 0.0
O427 O 0.59273 0.07643 0.26367 0.0
O428 O 0.65255 0.07881 0.25244 0.0
O429 O 0.69136 0.09559 0.26445 0.0
O430 O 0.61617 0.13975 0.25391 0.0
O431 O 0.67152 0.15177 0.25128 0.0
H432 H 0.79864 0.18015 0.28921 0.0
H433 H 0.8148 0.19633 0.31104 0.0
H434 H 0.70865 0.21534 0.32007 0.0
H435 H 0.69302 0.20045 0.29825 0.0
H436 H 0.54994 0.12105 0.29049 0.0
H437 H 0.49516 0.1487 0.28703 0.0
H438 H 0.47284 0.0767 0.25699 0.0
H439 H 0.52672 0.04831 0.26092 0.0
Nd440 Nd 0.70999 0.93009 1.02502 0.0
Nd441 Nd 0.74928 0.88904 1.01984 0.0
C442 C 0.68283 0.98673 1.03425 0.0
C443 C 0.67639 0.99945 1.04727 0.0
C444 C 0.70074 0.99519 1.05701 0.0
C445 C 0.69343 1.00535 1.06952 0.0
C446 C 0.66169 1.01997 1.0725 0.0
C447 C 0.63765 1.02477 1.06267 0.0
C448 C 0.64498 1.0146 1.05016 0.0
C449 C 0.66409 0.87452 1.02343 0.0
C450 C 0.76154 0.91552 1.04836 0.0
C451 C 0.78278 0.83081 1.02177 0.0
C452 C 0.76987 0.79593 1.02271 0.0
C453 C 0.78421 0.77058 1.01498 0.0
C454 C 0.7667 0.74019 1.01306 0.0
C455 C 0.73463 0.73507 1.01879 0.0
C456 C 0.72196 0.75897 1.02749 0.0
C457 C 0.73949 0.78926 1.02946 0.0
C458 C 0.77725 0.94091 1.00388 0.0
C459 C 0.70553 0.90692 0.99661 0.0
O460 O 0.71469 0.98375 1.03089 0.0
O461 O 0.66466 0.96089 1.03067 0.0
O462 O 0.65897 0.90467 1.01881 0.0
O463 O 0.69481 0.87351 1.02822 0.0
O464 O 0.72863 0.91874 1.04635 0.0
O465 O 0.77886 0.90982 1.0378 0.0
O466 O 0.77654 0.85051 1.03152 0.0
O467 O 0.77676 0.84582 1.01088 0.0
O468 O 0.7788 0.90858 1.00187 0.0
O469 O 0.76187 0.94598 1.01482 0.0
O470 O 0.71556 0.87931 1.00242 0.0
O471 O 0.70504 0.93487 1.00334 0.0
H472 H 0.72527 0.98364 1.05503 0.0
H473 H 0.71254 1.00156 1.07686 0.0
H474 H 0.61271 1.03541 1.06471 0.0
H475 H 0.62584 1.01792 1.04279 0.0
H476 H 0.80749 0.77533 1.00965 0.0
H477 H 0.77666 0.72214 1.00617 0.0
H478 H 0.69732 0.75519 1.03199 0.0
H479 H 0.72797 0.80844 1.03551 0.0
Nd480 Nd 0.91885 0.14503 0.91438 0.0
Nd481 Nd 0.96124 0.10864 0.91857 0.0
C482 C 0.86154 0.17631 0.90777 0.0
C483 C 0.85537 0.20963 0.90211 0.0
C484 C 0.82285 0.22429 0.90258 0.0
C485 C 0.81751 0.2566 0.89744 0.0
C486 C 0.84477 0.27465 0.89187 0.0
C487 C 0.87752 0.26003 0.89178 0.0
C488 C 0.88268 0.22769 0.89677 0.0
C489 C 0.97244 0.19453 0.91534 0.0
C490 C 0.93376 0.09476 0.89042 0.0
C491 C 1.02052 0.07716 0.91581 0.0
C492 C 0.05544 0.09051 0.91541 0.0
C493 C 0.06267 0.12074 0.90879 0.0
C494 C 0.09235 0.13881 0.91148 0.0
C495 C 0.11478 0.12726 0.92101 0.0
C496 C 0.10931 0.09503 0.9265 0.0
C497 C 0.07986 0.07678 0.92368 0.0
C498 C 0.91027 0.07673 0.93425 0.0
C499 C 0.94488 0.14866 0.94239 0.0
O500 O 0.87715 0.15444 0.90046 0.0
O501 O 0.8741 0.177 0.91925 0.0
O502 O 0.94191 0.1972 0.9199 0.0
O503 O 0.97479 0.16418 0.91048 0.0
O504 O 0.92727 0.12695 0.89265 0.0
O505 O 0.94214 0.07802 0.90077 0.0
O506 O 1.00091 0.08515 0.9062 0.0
O507 O 1.00506 0.08054 0.92682 0.0
O508 O 0.94276 0.07776 0.93645 0.0
O509 O 0.90454 0.09201 0.92338 0.0
O510 O 0.97255 0.14193 0.93592 0.0
O511 O 0.91607 0.14586 0.93624 0.0
H512 H 0.80161 0.21065 0.9068 0.0
H513 H 0.79189 0.26693 0.89746 0.0
H514 H 0.89909 0.27342 0.88769 0.0
H515 H 0.90797 0.2166 0.89641 0.0
H516 H 1.04422 0.13189 0.90232 0.0
H517 H 0.09615 0.16324 0.90693 0.0
H518 H 0.12578 0.08534 0.93397 0.0
H519 H 0.07469 0.05352 0.92887 0.0
Nd520 Nd 0.71154 0.16756 0.66514 0.0
Nd521 Nd 0.74775 0.2114 0.66941 0.0
C522 C 0.68256 0.10937 0.65861 0.0
C523 C 0.6509 0.10007 0.65226 0.0
C524 C 0.64076 0.06611 0.6519 0.0
C525 C 0.61071 0.05712 0.64564 0.0
C526 C 0.59053 0.08209 0.63971 0.0
C527 C 0.60039 0.11627 0.64046 0.0
C528 C 0.63043 0.12518 0.64668 0.0
C529 C 0.66156 0.22078 0.66648 0.0
C530 C 0.76146 0.1839 0.64107 0.0
C531 C 0.77644 0.27179 0.6666 0.0
C532 C 0.76023 0.30524 0.66609 0.0
C533 C 0.72475 0.30744 0.66749 0.0
C534 C 0.70904 0.33878 0.66909 0.0
C535 C 0.72855 0.36869 0.66936 0.0
C536 C 0.76381 0.36655 0.66669 0.0
C537 C 0.77961 0.33491 0.66516 0.0
C538 C 0.78097 0.16064 0.68461 0.0
C539 C 0.70867 0.19172 0.69346 0.0
O540 O 0.7051 0.12491 0.65153 0.0
O541 O 0.67883 0.12346 0.66976 0.0
O542 O 0.65892 0.19035 0.67094 0.0
O543 O 0.69178 0.22288 0.66135 0.0
O544 O 0.7293 0.17651 0.64342 0.0
O545 O 0.77833 0.19296 0.65133 0.0
O546 O 0.76932 0.25192 0.65703 0.0
O547 O 0.77384 0.25625 0.6776 0.0
O548 O 0.77992 0.19289 0.68694 0.0
O549 O 0.76561 0.15522 0.67376 0.0
O550 O 0.71494 0.21988 0.68731 0.0
O551 O 0.71139 0.16366 0.68691 0.0
H552 H 0.65634 1.04654 0.65626 0.0
H553 H 0.60396 1.03054 0.64505 0.0
H554 H 0.58516 0.13602 0.63604 0.0
H555 H 0.63799 0.15158 0.647 0.0
H556 H 0.70939 0.28474 0.66819 0.0
H557 H 0.68204 0.33903 0.6713 0.0
H558 H 0.77952 0.38911 0.66665 0.0
H559 H 0.80704 0.33357 0.66391 0.0
Nd560 Nd 0.68057 0.96202 0.41466 0.0
Nd561 Nd 0.63846 0.99888 0.42003 0.0
C562 C 0.73791 0.9366 0.40513 0.0
C563 C 0.74686 0.92221 0.39269 0.0
C564 C 0.78109 0.9204 0.38891 0.0
C565 C 0.7896 0.90884 0.37668 0.0
C566 C 0.76389 0.89904 0.36808 0.0
C567 C 0.72954 0.90117 0.37192 0.0
C568 C 0.72109 0.91275 0.38414 0.0
C569 C 0.62549 0.91482 0.41536 0.0
C570 C 0.66308 1.0129 0.39137 0.0
C571 C 0.5781 1.0288 0.41893 0.0
C572 C 0.54416 1.01307 0.41827 0.0
C573 C 0.53892 0.98404 0.41071 0.0
C574 C 0.5106 0.96332 0.41286 0.0
C575 C 0.48733 0.97104 0.4227 0.0
C576 C 0.491 1.00191 0.42936 0.0
C577 C 0.51913 1.02274 0.42713 0.0
C578 C 0.68996 1.0282 0.43594 0.0
C579 C 0.65803 0.95466 0.44281 0.0
O580 O 0.73024 0.9687 0.40484 0.0
O581 O 0.71675 0.91911 0.41216 0.0
O582 O 0.65552 0.91018 0.42024 0.0
O583 O 0.62448 0.9455 0.41074 0.0
O584 O 0.66805 0.98035 0.39335 0.0
O585 O 0.6569 1.02967 0.40198 0.0
O586 O 0.59781 1.02496 0.40894 0.0
O587 O 0.59428 1.02342 0.42963 0.0
O588 O 0.6574 1.0284 0.43806 0.0
O589 O 0.69545 1.01337 0.42498 0.0
O590 O 0.62986 0.96267 0.43689 0.0
O591 O 0.68641 0.9576 0.43631 0.0
H592 H 0.80118 0.92822 0.39537 0.0
H593 H 0.81625 0.90776 0.37393 0.0
H594 H 0.70922 0.89332 0.36558 0.0
H595 H 0.69446 0.91443 0.3869 0.0
H596 H 0.55792 0.97596 0.4038 0.0
H597 H 0.50823 0.94007 0.40743 0.0
H598 H 0.47396 1.00862 0.43715 0.0
H599 H 0.52281 1.04485 0.43311 0.0
Nd600 Nd 0.8949 0.93663 0.16736 0.0
Nd601 Nd 0.85421 0.8942 0.16911 0.0
C602 C 0.92974 0.99338 0.16339 0.0
C603 C 0.9628 1.00017 0.15745 0.0
C604 C 0.97547 1.03326 0.15675 0.0
C605 C 1.00656 1.03953 0.15059 0.0
C606 C 1.02521 1.01268 0.14509 0.0
C607 C 1.01282 0.97941 0.14624 0.0
C608 C 0.98179 0.97326 0.15234 0.0
C609 C 0.9404 0.8795 0.16733 0.0
C610 C 0.8518 0.92342 0.1407 0.0
C611 C 0.82046 0.83673 0.16601 0.0
C612 C 0.83351 0.80181 0.16598 0.0
C613 C 0.86476 0.79443 0.15993 0.0
C614 C 0.8834 0.76589 0.16354 0.0
C615 C 0.8713 0.74468 0.17337 0.0
C616 C 0.8381 0.74974 0.17819 0.0
C617 C 0.8193 0.77818 0.17449 0.0
C618 C 0.82221 0.94584 0.18461 0.0
C619 C 0.89161 0.90362 0.19424 0.0
O620 O 0.90609 0.98246 0.1557 0.0
O621 O 0.93097 0.97603 0.17397 0.0
O622 O 0.94433 0.90777 0.17336 0.0
O623 O 0.91095 0.88149 0.16159 0.0
O624 O 0.88232 0.93155 0.14508 0.0
O625 O 0.83082 0.91225 0.14952 0.0
O626 O 0.82981 0.85602 0.15648 0.0
O627 O 0.82317 0.85208 0.17699 0.0
O628 O 0.82076 0.91341 0.18634 0.0
O629 O 0.83972 0.95116 0.17419 0.0
O630 O 0.88525 0.87814 0.18669 0.0
O631 O 0.89027 0.93383 0.18917 0.0
H632 H 0.96102 0.05425 0.16071 0.0
H633 H 1.01529 0.06547 0.14969 0.0
H634 H 1.02678 0.95822 0.14218 0.0
H635 H 0.9722 0.9476 0.15291 0.0
H636 H 0.87636 0.81225 0.15332 0.0
H637 H 0.90871 0.76224 0.15954 0.0
H638 H 0.82811 0.73393 0.18581 0.0
H639 H 0.7953 0.78351 0.17928 0.0
Nd640 Nd 0.64325 0.5984 0.92105 0.0
Nd641 Nd 0.68629 0.63874 0.91913 0.0
C642 C 0.58507 0.56602 0.91695 0.0
C643 C 0.55125 0.58066 0.9147 0.0
C644 C 0.5482 0.61597 0.91395 0.0
C645 C 0.51644 0.63142 0.91504 0.0
C646 C 0.48694 0.61173 0.91694 0.0
C647 C 0.48971 0.57613 0.91579 0.0
C648 C 0.52183 0.56065 0.91491 0.0
C649 C 0.69452 0.56643 0.93676 0.0
C650 C 0.6538 0.63597 0.94616 0.0
C651 C 0.74412 0.67175 0.91479 0.0
C652 C 0.75346 0.70191 0.9075 0.0
C653 C 0.78758 0.71217 0.90691 0.0
C654 C 0.79674 0.74028 0.89953 0.0
C655 C 0.77181 0.75834 0.89266 0.0
C656 C 0.73745 0.74842 0.89359 0.0
C657 C 0.72834 0.72036 0.90097 0.0
C658 C 0.62922 0.68385 0.91886 0.0
C659 C 0.67262 0.59599 0.89257 0.0
O660 O 0.60751 0.57187 0.908 0.0
O661 O 0.5973 0.57168 0.92834 0.0
O662 O 0.66176 0.56453 0.93821 0.0
O663 O 0.70039 0.58412 0.92647 0.0
O664 O 0.62785 0.62914 0.93881 0.0
O665 O 0.68404 0.63478 0.94092 0.0
O666 O 0.73417 0.64583 0.90805 0.0
O667 O 0.72462 0.67711 0.92469 0.0
O668 O 0.65729 0.68813 0.9251 0.0
O669 O 0.63107 0.65438 0.91328 0.0
O670 O 0.68014 0.62657 0.89688 0.0
O671 O 0.66222 0.57503 0.90151 0.0
H672 H 0.57068 0.63175 0.91367 0.0
H673 H 0.5159 0.65877 0.91586 0.0
H674 H 0.46742 0.56014 0.91678 0.0
H675 H 0.52376 0.53326 0.91527 0.0
H676 H 0.80716 0.69809 0.91195 0.0
H677 H 0.82345 0.74712 0.89884 0.0
H678 H 0.71772 0.76209 0.88848 0.0
H679 H 0.7018 0.71274 0.90144 0.0
Nd680 Nd 0.74369 0.37333 0.17017 0.0
Nd681 Nd 0.70941 0.4158 0.16719 0.0
C682 C 0.77233 0.31422 0.16465 0.0
C683 C 0.75534 0.28201 0.16176 0.0
C684 C 0.72284 0.28255 0.15607 0.0
C685 C 0.70026 0.25582 0.15812 0.0
C686 C 0.71009 0.22853 0.16587 0.0
C687 C 0.74447 0.22521 0.16946 0.0
C688 C 0.767 0.25215 0.16755 0.0
C689 C 0.77815 0.41784 0.18753 0.0
C690 C 0.70492 0.38689 0.19472 0.0
C691 C 0.68189 0.47552 0.16145 0.0
C692 C 0.6522 0.48744 0.15433 0.0
C693 C 0.64444 0.52207 0.1541 0.0
C694 C 0.61575 0.53366 0.14753 0.0
C695 C 0.59448 0.51068 0.14109 0.0
C696 C 0.60222 0.47585 0.14149 0.0
C697 C 0.6309 0.46431 0.14808 0.0
C698 C 0.65785 0.36404 0.16758 0.0
C699 C 0.75813 0.40394 0.14271 0.0
O700 O 0.76811 0.33827 0.15624 0.0
O701 O 0.76787 0.32501 0.17634 0.0
O702 O 0.77555 0.38511 0.18824 0.0
O703 O 0.76268 0.42765 0.1771 0.0
O704 O 0.71113 0.36012 0.18778 0.0
O705 O 0.70841 0.41618 0.18904 0.0
O706 O 0.70622 0.46151 0.15476 0.0
O707 O 0.67503 0.45865 0.17184 0.0
O708 O 0.65614 0.39378 0.1727 0.0
O709 O 0.68779 0.36194 0.16224 0.0
O710 O 0.72549 0.40833 0.14514 0.0
O711 O 0.77521 0.39617 0.15304 0.0
H712 H 0.71336 0.30521 0.1514 0.0
H713 H 0.67382 0.25889 0.15533 0.0
H714 H 0.75238 0.20438 0.17556 0.0
H715 H 0.79197 0.25123 0.17197 0.0
H716 H 0.66065 0.54014 0.15897 0.0
H717 H 0.61068 0.56066 0.14723 0.0
H718 H 0.5861 0.45757 0.13671 0.0
H719 H 0.63651 0.43739 0.1483 0.0
Nd720 Nd 0.96434 0.48581 0.42077 0.0
Nd721 Nd 0.92046 0.44577 0.41899 0.0
C722 C 1.02372 0.51632 0.41701 0.0
C723 C 0.05713 0.49967 0.41632 0.0
C724 C 0.05874 0.46489 0.41891 0.0
C725 C 0.08998 0.44851 0.41987 0.0
C726 C 0.12063 0.46659 0.41833 0.0
C727 C 0.1189 0.50114 0.41481 0.0
C728 C 0.08724 0.51764 0.41386 0.0
C729 C 0.91344 0.51797 0.43666 0.0
C730 C 0.95297 0.44855 0.44587 0.0
C731 C 0.86155 0.41454 0.41512 0.0
C732 C 0.8484 0.38599 0.40755 0.0
C733 C 0.83861 0.39091 0.39476 0.0
C734 C 0.8268 0.3638 0.38753 0.0
C735 C 0.82426 0.33127 0.39296 0.0
C736 C 0.83355 0.32634 0.4058 0.0
C737 C 0.84534 0.35356 0.41306 0.0
C738 C 0.97688 0.39989 0.41843 0.0
C739 C 0.93395 0.48836 0.39242 0.0
O740 O 1.00299 0.50868 0.40773 0.0
O741 O 1.00884 0.51436 0.42817 0.0
O742 O 0.9462 0.51961 0.43803 0.0
O743 O 0.90745 0.50057 0.42635 0.0
O744 O 0.979 0.45407 0.43834 0.0
O745 O 0.92277 0.45003 0.4407 0.0
O746 O 0.87112 0.44156 0.40885 0.0
O747 O 0.88219 0.40705 0.42445 0.0
O748 O 0.94834 0.39545 0.42445 0.0
O749 O 0.97583 0.42977 0.4131 0.0
O750 O 0.92625 0.45784 0.39677 0.0
O751 O 0.94501 0.50921 0.40125 0.0
H752 H 1.03574 0.4507 0.42092 0.0
H753 H 0.08986 0.42226 0.42291 0.0
H754 H 0.14199 0.5158 0.4135 0.0
H755 H 0.08635 0.54452 0.41174 0.0
H756 H 0.8404 0.41561 0.39026 0.0
H757 H 0.82034 0.36821 0.37758 0.0
H758 H 0.8316 0.30153 0.4102 0.0
H759 H 0.85227 0.34916 0.42297 0.0
Nd760 Nd 0.85463 0.7108 0.67179 0.0
Nd761 Nd 0.89536 0.66891 0.66864 0.0
C762 C 0.8212 0.76892 0.66932 0.0
C763 C 0.83389 0.80391 0.66825 0.0
C764 C 0.86162 0.81174 0.66019 0.0
C765 C 0.87979 0.84183 0.66189 0.0
C766 C 0.87095 0.86418 0.67184 0.0
C767 C 0.84094 0.85786 0.67894 0.0
C768 C 0.82254 0.82805 0.67711 0.0
C769 C 0.82432 0.65936 0.68761 0.0
C770 C 0.89467 0.69581 0.69627 0.0
C771 C 0.92457 0.61147 0.66137 0.0
C772 C 0.94085 0.60144 0.64938 0.0
C773 C 0.94283 0.56712 0.6461 0.0
C774 C 0.95402 0.55771 0.6339 0.0
C775 C 0.96308 0.5826 0.62485 0.0
C776 C 0.96157 0.61698 0.6283 0.0
C777 C 0.9505 0.62633 0.64048 0.0
C778 C 0.94039 0.7254 0.66918 0.0
C779 C 0.85117 0.68392 0.64292 0.0
O780 O 0.82759 0.74874 0.65973 0.0
O781 O 0.82693 0.75441 0.68032 0.0
O782 O 0.82195 0.69177 0.68918 0.0
O783 O 0.84155 0.65391 0.67714 0.0
O784 O 0.88699 0.72271 0.68953 0.0
O785 O 0.89463 0.66673 0.69035 0.0
O786 O 0.89204 0.61751 0.66035 0.0
O787 O 0.94024 0.63443 0.6681 0.0
O788 O 0.94545 0.69628 0.67466 0.0
O789 O 0.91014 0.725 0.66398 0.0
O790 O 0.88257 0.67824 0.64681 0.0
O791 O 0.8302 0.69237 0.65223 0.0
H792 H 0.87091 0.79358 0.65322 0.0
H793 H 0.90233 0.84629 0.65609 0.0
H794 H 0.83335 0.87417 0.68679 0.0
H795 H 0.80125 0.82249 0.68343 0.0
H796 H 0.93484 0.54771 0.65282 0.0
H797 H 0.95479 0.53104 0.63145 0.0
H798 H 0.96896 0.63665 0.62159 0.0
H799 H 0.94872 0.65301 0.64286 0.0
Nd800 Nd 0.63664 0.49255 0.77179 0.0
Nd801 Nd 0.6797 0.45452 0.77668 0.0
C802 C 0.57613 0.52201 0.77395 0.0
C803 C 0.54254 0.5058 0.77488 0.0
C804 C 0.54016 0.47266 0.77977 0.0
C805 C 0.51163 0.45285 0.77716 0.0
C806 C 0.48499 0.46609 0.76977 0.0
C807 C 0.48569 0.50042 0.76612 0.0
C808 C 0.5145 0.52015 0.76859 0.0
C809 C 0.68826 0.52316 0.7563 0.0
C810 C 0.65805 0.45174 0.74804 0.0
C811 C 0.73726 0.42768 0.78536 0.0
C812 C 0.75099 0.42309 0.79826 0.0
C813 C 0.78611 0.42633 0.8003 0.0
C814 C 0.79929 0.42374 0.81267 0.0
C815 C 0.77745 0.41787 0.82317 0.0
C816 C 0.74212 0.41548 0.82108 0.0
C817 C 0.72899 0.41815 0.80873 0.0
C818 C 0.62385 0.40845 0.77478 0.0
C819 C 0.66409 0.50574 0.8002 0.0
O820 O 0.59648 0.51722 0.78364 0.0
O821 O 0.59158 0.51749 0.76302 0.0
O822 O 0.6557 0.52403 0.75426 0.0
O823 O 0.69367 0.50727 0.76707 0.0
O824 O 0.62953 0.4606 0.75367 0.0
O825 O 0.68562 0.45123 0.75505 0.0
O826 O 0.73435 0.45908 0.78174 0.0
O827 O 0.71063 0.40973 0.78237 0.0
O828 O 0.65354 0.40469 0.7694 0.0
O829 O 0.62367 0.43801 0.78033 0.0
O830 O 0.66946 0.47331 0.7981 0.0
O831 O 0.65631 0.52269 0.78977 0.0
H832 H 0.5615 0.46112 0.78468 0.0
H833 H 0.51161 0.42639 0.77998 0.0
H834 H 0.46555 0.51097 0.76023 0.0
H835 H 0.51602 0.54556 0.76467 0.0
H836 H 0.80332 0.43089 0.79233 0.0
H837 H 0.82659 0.42598 0.81401 0.0
H838 H 0.72466 0.4104 0.82892 0.0
H839 H 0.70168 0.4161 0.80736 0.0
Nd840 Nd 0.85847 0.37877 1.02207 0.0
Nd841 Nd 0.8989 0.42042 1.02509 0.0
C842 C 0.82285 0.32208 1.02502 0.0
C843 C 0.83255 0.28604 1.02528 0.0
C844 C 0.85929 0.27449 1.0331 0.0
C845 C 0.87496 0.24338 1.03058 0.0
C846 C 0.86468 0.22387 1.02002 0.0
C847 C 0.83509 0.23358 1.01331 0.0
C848 C 0.81909 0.26437 1.01597 0.0
C849 C 0.82898 0.43028 1.006 0.0
C850 C 0.8991 0.39142 0.99747 0.0
C851 C 0.92819 0.47784 1.03229 0.0
C852 C 0.93658 0.49178 1.04493 0.0
C853 C 0.91318 0.48959 1.05515 0.0
C854 C 0.92224 0.50059 1.06735 0.0
C855 C 0.95487 0.51393 1.06958 0.0
C856 C 0.97805 0.51658 1.05928 0.0
C857 C 0.96893 0.50561 1.04706 0.0
C858 C 0.9443 0.36387 1.02376 0.0
C859 C 0.85338 0.40619 1.05073 0.0
O860 O 0.83296 0.34074 1.03456 0.0
O861 O 0.82729 0.33713 1.01403 0.0
O862 O 0.82735 0.39787 1.00432 0.0
O863 O 0.84522 0.4356 1.01667 0.0
O864 O 0.89016 0.36503 1.00429 0.0
O865 O 0.89998 0.42076 1.00328 0.0
O866 O 0.89587 0.47509 1.02971 0.0
O867 O 0.94543 0.45123 1.02877 0.0
O868 O 0.94799 0.39295 1.01806 0.0
O869 O 0.91466 0.3646 1.02959 0.0
O870 O 0.88497 0.41156 1.04694 0.0
O871 O 0.83286 0.39797 1.04135 0.0
H872 H 0.86995 0.29054 1.04048 0.0
H873 H 0.89715 0.2362 1.03613 0.0
H874 H 0.82632 0.21944 1.00508 0.0
H875 H 0.79828 0.2727 1.00992 0.0
H876 H 0.888 0.47897 1.05378 0.0
H877 H 0.90374 0.49852 1.07505 0.0
H878 H 1.00359 0.52624 1.06074 0.0
H879 H 0.98739 0.50724 1.03933 0.0
Nd880 Nd 0.96254 0.59139 0.2712 0.0
Nd881 Nd 0.9173 0.62584 0.27555 0.0
C882 C 1.02395 0.56411 0.27273 0.0
C883 C 0.05636 0.58279 0.27257 0.0
C884 C 0.0584 0.61447 0.27875 0.0
C885 C 0.08297 0.63807 0.275 0.0
C886 C 0.10567 0.63018 0.26508 0.0
C887 C 0.10617 0.5973 0.25994 0.0
C888 C 0.08164 0.57364 0.2637 0.0
C889 C 0.91192 0.55977 0.25516 0.0
C890 C 0.9466 0.63558 0.24827 0.0
C891 C 0.85744 0.6531 0.28166 0.0
C892 C 0.84739 0.68504 0.28763 0.0
C893 C 0.81303 0.6947 0.288 0.0
C894 C 0.80352 0.72514 0.29383 0.0
C895 C 0.82838 0.74618 0.29936 0.0
C896 C 0.86292 0.73669 0.29864 0.0
C897 C 0.87234 0.70631 0.29283 0.0
C898 C 0.97018 0.67653 0.27535 0.0
C899 C 0.9351 0.57721 0.29974 0.0
O900 O 1.00447 0.56884 0.28272 0.0
O901 O 1.0069 0.56593 0.26205 0.0
O902 O 0.94406 0.56374 0.25266 0.0
O903 O 0.9069 0.57166 0.26665 0.0
O904 O 0.97364 0.62883 0.25501 0.0
O905 O 0.91709 0.6298 0.25368 0.0
O906 O 0.8737 0.63181 0.289 0.0
O907 O 0.87154 0.65599 0.27044 0.0
O908 O 0.93952 0.67949 0.27098 0.0
O909 O 0.97241 0.6461 0.28008 0.0
O910 O 0.9255 0.60853 0.29728 0.0
O911 O 0.946 0.56084 0.28957 0.0
H912 H 1.03906 0.62235 0.28557 0.0
H913 H 0.08202 0.66345 0.27894 0.0
H914 H 0.12336 0.59107 0.25213 0.0
H915 H 0.08031 0.54957 0.25873 0.0
H916 H 0.79357 0.67852 0.28393 0.0
H917 H 0.77669 0.73165 0.2944 0.0
H918 H 0.88262 0.75258 0.30271 0.0
H919 H 0.89903 0.69916 0.29252 0.0
Nd920 Nd 0.74777 0.70398 0.52202 0.0
Nd921 Nd 0.71112 0.66472 0.52721 0.0
C922 C 0.78198 0.76163 0.52422 0.0
C923 C 0.77123 0.79735 0.52405 0.0
C924 C 0.78495 0.81897 0.51472 0.0
C925 C 0.7687 0.84947 0.51181 0.0
C926 C 0.73857 0.85895 0.51829 0.0
C927 C 0.72752 0.83926 0.52875 0.0
C928 C 0.74349 0.80848 0.53153 0.0
C929 C 0.77801 0.65333 0.50597 0.0
C930 C 0.70574 0.68657 0.49871 0.0
C931 C 0.68712 0.60763 0.5372 0.0
C932 C 0.67754 0.59715 0.55017 0.0
C933 C 0.68112 0.56312 0.55375 0.0
C934 C 0.6752 0.55325 0.56641 0.0
C935 C 0.66564 0.57736 0.57567 0.0
C936 C 0.6622 0.61153 0.57202 0.0
C937 C 0.66822 0.62136 0.55937 0.0
C938 C 0.66173 0.71748 0.52494 0.0
C939 C 0.76028 0.68065 0.55065 0.0
O940 O 0.77223 0.74348 0.53401 0.0
O941 O 0.77814 0.74563 0.51342 0.0
O942 O 0.77837 0.68574 0.50403 0.0
O943 O 0.76202 0.64745 0.51671 0.0
O944 O 0.71471 0.7144 0.50452 0.0
O945 O 0.70638 0.65872 0.50553 0.0
O946 O 0.71944 0.61398 0.53572 0.0
O947 O 0.66784 0.63021 0.53167 0.0
O948 O 0.65885 0.68655 0.52087 0.0
O949 O 0.69229 0.72046 0.52982 0.0
O950 O 0.72737 0.67944 0.54852 0.0
O951 O 0.77769 0.68319 0.53995 0.0
H952 H 0.80641 0.81088 0.50889 0.0
H953 H 0.77794 0.86373 0.50364 0.0
H954 H 0.70481 0.84622 0.53409 0.0
H955 H 0.7325 0.79239 0.53887 0.0
H956 H 0.68901 0.54427 0.54679 0.0
H957 H 0.67839 0.52681 0.56896 0.0
H958 H 0.65434 0.63062 0.57887 0.0
H959 H 0.66584 0.64789 0.55679 0.0
Nd960 Nd 0.42101 0.46506 0.27366 0.0
Nd961 Nd 0.46399 0.50138 0.26851 0.0
C962 C 0.36212 0.44088 0.2823 0.0
C963 C 0.3502 0.42565 0.29425 0.0
C964 C 0.31514 0.42306 0.29663 0.0
C965 C 0.30348 0.4104 0.30834 0.0
C966 C 0.32682 0.40021 0.31779 0.0
C967 C 0.362 0.40296 0.31534 0.0
C968 C 0.37362 0.41568 0.30365 0.0
C969 C 0.47519 0.41665 0.27316 0.0
C970 C 0.43806 0.51511 0.2971 0.0
C971 C 0.52425 0.53124 0.27013 0.0
C972 C 0.55853 0.51616 0.27116 0.0
C973 C 0.56455 0.48867 0.27947 0.0
C974 C 0.59349 0.46835 0.27787 0.0
C975 C 0.61653 0.47485 0.26783 0.0
C976 C 0.61213 0.50446 0.26042 0.0
C977 C 0.58342 0.52496 0.26211 0.0
C978 C 0.41333 0.53172 0.25245 0.0
C979 C 0.44502 0.45751 0.24563 0.0
O980 O 0.37104 0.47254 0.28318 0.0
O981 O 0.3836 0.4231 0.27552 0.0
O982 O 0.44494 0.41251 0.26844 0.0
O983 O 0.47696 0.44742 0.27764 0.0
O984 O 0.43288 0.48263 0.29507 0.0
O985 O 0.4448 0.53193 0.28653 0.0
O986 O 0.50395 0.52719 0.27993 0.0
O987 O 0.50887 0.52565 0.2593 0.0
O988 O 0.44591 0.53123 0.25038 0.0
O989 O 0.40742 0.51696 0.2634 0.0
O990 O 0.47302 0.46516 0.2517 0.0
O991 O 0.41639 0.46102 0.25194 0.0
H992 H 0.29683 0.43099 0.28946 0.0
H993 H 0.27624 0.40812 0.30992 0.0
H994 H 0.38051 0.39556 0.32252 0.0
H995 H 0.40083 0.41803 0.30198 0.0
H996 H 0.54576 0.48132 0.28658 0.0
H997 H 0.59651 0.44613 0.28388 0.0
H998 H 0.62903 0.51022 0.25249 0.0
H999 H 0.57923 0.54597 0.25559 0.0
Nd1000 Nd 0.39166 0.67433 1.02417 0.0
Nd1001 Nd 0.35969 0.71424 1.01838 0.0
C1002 C 0.4106 0.61653 1.03508 0.0
C1003 C 0.42406 0.60688 1.0476 0.0
C1004 C 0.42442 0.57272 1.05121 0.0
C1005 C 0.436 0.56337 1.06334 0.0
C1006 C 0.44726 0.58816 1.07202 0.0
C1007 C 0.44646 0.62248 1.06837 0.0
C1008 C 0.43495 0.63177 1.05623 0.0
C1009 C 0.44527 0.72349 1.02274 0.0
C1010 C 0.34295 0.69232 1.047 0.0
C1011 C 0.32734 0.77336 1.02013 0.0
C1012 C 0.33862 0.80876 1.02119 0.0
C1013 C 0.36436 0.81812 1.02983 0.0
C1014 C 0.3805 0.8495 1.02861 0.0
C1015 C 0.37173 0.87158 1.01855 0.0
C1016 C 0.34342 0.8635 1.01084 0.0
C1017 C 0.32698 0.8324 1.0122 0.0
C1018 C 0.32836 0.66703 1.00144 0.0
C1019 C 0.40402 0.691 0.99582 0.0
O1020 O 0.3794 0.62793 1.03522 0.0
O1021 O 0.43061 0.63452 1.02777 0.0
O1022 O 0.44666 0.692 1.01921 0.0
O1023 O 0.41422 0.72931 1.02669 0.0
O1024 O 0.37592 0.69097 1.04523 0.0
O1025 O 0.32686 0.69441 1.03603 0.0
O1026 O 0.33325 0.7537 1.02991 0.0
O1027 O 0.33444 0.75859 1.00931 0.0
O1028 O 0.33316 0.69906 0.99946 0.0
O1029 O 0.34068 0.65961 1.01272 0.0
O1030 O 0.39554 0.72008 1.00096 0.0
O1031 O 0.40007 0.66431 1.00305 0.0
H1032 H 0.41564 0.55331 1.04468 0.0
H1033 H 0.43602 0.53678 1.06596 0.0
H1034 H 0.45542 0.64207 1.07479 0.0
H1035 H 0.43462 0.65833 1.05357 0.0
H1036 H 0.37365 0.8004 1.03696 0.0
H1037 H 0.40173 0.8552 1.03486 0.0
H1038 H 0.33596 0.87953 1.0029 0.0
H1039 H 0.30703 0.82571 1.0055 0.0
Nd1040 Nd 0.18287 0.64329 0.77228 0.0
Nd1041 Nd 0.14095 0.60367 0.77005 0.0
C1042 C 0.24036 0.67608 0.77725 0.0
C1043 C 0.24849 0.70688 0.78432 0.0
C1044 C 0.28161 0.72003 0.78397 0.0
C1045 C 0.28933 0.74944 0.79079 0.0
C1046 C 0.26393 0.76605 0.79799 0.0
C1047 C 0.23053 0.75308 0.79803 0.0
C1048 C 0.22292 0.72362 0.79128 0.0
C1049 C 0.12665 0.68977 0.77162 0.0
C1050 C 0.16859 0.60073 0.79869 0.0
C1051 C 0.08361 0.56892 0.77331 0.0
C1052 C 1.04756 0.57922 0.77412 0.0
C1053 C 1.03714 0.60542 0.78238 0.0
C1054 C 1.00574 0.62146 0.78055 0.0
C1055 C 0.9847 0.61204 0.77027 0.0
C1056 C 0.9935 0.58317 0.76304 0.0
C1057 C 1.02463 0.56684 0.765 0.0
C1058 C 0.19252 0.5721 0.75429 0.0
C1059 C 0.15285 0.64057 0.74499 0.0
O1060 O 0.22925 0.65069 0.78408 0.0
O1061 O 0.2225 0.68072 0.76693 0.0
O1062 O 0.156 0.69312 0.7661 0.0
O1063 O 0.12684 0.6601 0.77722 0.0
O1064 O 0.17518 0.63157 0.79447 0.0
O1065 O 0.15944 0.57977 0.78962 0.0
O1066 O 0.10335 0.57791 0.78272 0.0
O1067 O 0.09796 0.57382 0.76219 0.0
O1068 O 0.15986 0.57077 0.75269 0.0
O1069 O 0.19813 0.58918 0.76473 0.0
O1070 O 0.12635 0.63437 0.75222 0.0
O1071 O 0.1826 0.63987 0.75054 0.0
H1072 H 0.30153 0.70733 0.77856 0.0
H1073 H 0.31539 0.75854 0.79073 0.0
H1074 H 0.21036 0.7655 0.80339 0.0
H1075 H 0.19717 0.71368 0.79156 0.0
H1076 H 0.0542 0.61531 0.7896 0.0
H1077 H 0.99935 0.64314 0.78645 0.0
H1078 H 0.97816 0.57519 0.75499 0.0
H1079 H 1.03211 0.54652 0.75859 0.0
Nd1080 Nd 0.21576 0.42857 0.52313 0.0
Nd1081 Nd 0.24994 0.38785 0.51924 0.0
C1082 C 0.18839 0.48723 0.53018 0.0
C1083 C 0.1586 0.49678 0.53774 0.0
C1084 C 0.14873 0.53082 0.53847 0.0
C1085 C 0.11978 0.53993 0.54549 0.0
C1086 C 0.10047 0.515 0.55184 0.0
C1087 C 0.11025 0.48079 0.5509 0.0
C1088 C 0.13913 0.47174 0.54387 0.0
C1089 C 0.16367 0.37734 0.52239 0.0
C1090 C 0.26405 0.41475 0.54733 0.0
C1091 C 0.28184 0.32903 0.52246 0.0
C1092 C 0.27009 0.29361 0.52241 0.0
C1093 C 0.24254 0.28316 0.53013 0.0
C1094 C 0.22632 0.25234 0.52774 0.0
C1095 C 0.23693 0.23183 0.51746 0.0
C1096 C 0.26665 0.24088 0.51064 0.0
C1097 C 0.28315 0.27141 0.51316 0.0
C1098 C 0.28257 0.43435 0.50198 0.0
C1099 C 0.20979 0.40387 0.49518 0.0
O1100 O 0.2131 0.47247 0.5364 0.0
O1101 O 0.18155 0.47214 0.51945 0.0
O1102 O 0.16185 0.408 0.51808 0.0
O1103 O 0.19426 0.37359 0.527 0.0
O1104 O 0.23138 0.41865 0.54502 0.0
O1105 O 0.28127 0.40873 0.53679 0.0
O1106 O 0.27161 0.34804 0.53193 0.0
O1107 O 0.2798 0.34464 0.51149 0.0
O1108 O 0.27936 0.40183 0.5008 0.0
O1109 O 0.26841 0.44285 0.51288 0.0
O1110 O 0.21698 0.37637 0.50161 0.0
O1111 O 0.21255 0.43228 0.50144 0.0
H1112 H 0.16349 0.55032 0.53367 0.0
H1113 H 0.11304 0.56651 0.54622 0.0
H1114 H 0.09563 0.4611 0.55563 0.0
H1115 H 0.14636 0.44525 0.54323 0.0
H1116 H 0.23204 0.29968 0.53743 0.0
H1117 H 0.20395 0.24579 0.53334 0.0
H1118 H 0.27553 0.22607 0.50256 0.0
H1119 H 0.30446 0.27892 0.50715 0.0
Nd1120 Nd 0.42255 0.6495 0.41616 0.0
Nd1121 Nd 0.46349 0.6105 0.41758 0.0
C1122 C 0.3607 0.66927 0.40956 0.0
C1123 C 0.34688 0.67839 0.39699 0.0
C1124 C 0.31259 0.67192 0.39413 0.0
C1125 C 0.30059 0.67641 0.38164 0.0
C1126 C 0.32296 0.68689 0.37185 0.0
C1127 C 0.35716 0.69379 0.37482 0.0
C1128 C 0.36897 0.68971 0.38729 0.0
C1129 C 0.47661 0.69656 0.415 0.0
C1130 C 0.43657 0.60668 0.38927 0.0
C1131 C 0.52413 0.58085 0.41704 0.0
C1132 C 0.55785 0.59657 0.41709 0.0
C1133 C 0.56024 0.63157 0.4191 0.0
C1134 C 0.59194 0.64679 0.42046 0.0
C1135 C 0.62201 0.62726 0.41983 0.0
C1136 C 0.6195 0.59266 0.41656 0.0
C1137 C 0.58751 0.57734 0.41529 0.0
C1138 C 0.40921 0.57541 0.43105 0.0
C1139 C 0.457 0.65254 0.44306 0.0
O1140 O 0.36954 0.63741 0.4106 0.0
O1141 O 0.38342 0.6899 0.41432 0.0
O1142 O 0.44755 0.70095 0.42077 0.0
O1143 O 0.47633 0.66658 0.40958 0.0
O1144 O 0.42901 0.63694 0.39382 0.0
O1145 O 0.44767 0.58596 0.39802 0.0
O1146 O 0.50633 0.58724 0.40682 0.0
O1147 O 0.5063 0.58467 0.42752 0.0
O1148 O 0.42828 0.56323 0.42195 0.0
O1149 O 0.41665 0.60686 0.43178 0.0
O1150 O 0.47958 0.63537 0.4365 0.0
O1151 O 0.42755 0.65881 0.43767 0.0
H1152 H 0.29535 0.66268 0.40149 0.0
H1153 H 0.27408 0.67104 0.37957 0.0
H1154 H 0.37475 0.70257 0.36751 0.0
H1155 H 0.39559 0.69474 0.38929 0.0
H1156 H 0.53748 0.64688 0.42027 0.0
H1157 H 0.59246 0.67331 0.42312 0.0
H1158 H 0.64216 0.57701 0.4158 0.0
H1159 H 0.58595 0.55038 0.41342 0.0
Nd1160 Nd 0.20783 0.67792 0.1659 0.0
Nd1161 Nd 0.2489 0.72053 0.16763 0.0
C1162 C 0.1756 0.61962 0.16218 0.0
C1163 C 0.14395 0.60909 0.15603 0.0
C1164 C 0.13597 0.57461 0.15526 0.0
C1165 C 0.10666 0.56423 0.14882 0.0
C1166 C 0.08501 0.58829 0.14307 0.0
C1167 C 0.09265 0.62297 0.14425 0.0
C1168 C 0.12197 0.6333 0.15068 0.0
C1169 C 0.16216 0.73409 0.16533 0.0
C1170 C 0.25071 0.69092 0.13924 0.0
C1171 C 0.28251 0.77772 0.16388 0.0
C1172 C 0.26702 0.8115 0.16257 0.0
C1173 C 0.2345 0.81435 0.15698 0.0
C1174 C 0.21354 0.84185 0.15991 0.0
C1175 C 0.22492 0.86685 0.16837 0.0
C1176 C 0.25895 0.86634 0.17256 0.0
C1177 C 0.27992 0.83862 0.16971 0.0
C1178 C 0.27808 0.66909 0.18399 0.0
C1179 C 0.20645 0.71551 0.19192 0.0
O1180 O 0.19928 0.63118 0.15456 0.0
O1181 O 0.17205 0.63798 0.17242 0.0
O1182 O 0.15722 0.70549 0.17107 0.0
O1183 O 0.19243 0.73325 0.16006 0.0
O1184 O 0.21991 0.68371 0.14363 0.0
O1185 O 0.27191 0.70143 0.14805 0.0
O1186 O 0.27612 0.75634 0.15469 0.0
O1187 O 0.27847 0.76408 0.17516 0.0
O1188 O 0.27934 0.70154 0.18568 0.0
O1189 O 0.26239 0.66388 0.17326 0.0
O1190 O 0.21592 0.73959 0.18416 0.0
O1191 O 0.20743 0.68442 0.18764 0.0
H1192 H 0.15279 0.5557 0.15937 0.0
H1193 H 0.10171 0.53733 0.1479 0.0
H1194 H 0.07627 0.64204 0.14 0.0
H1195 H 0.12783 0.6601 0.15128 0.0
H1196 H 0.22384 0.79371 0.15147 0.0
H1197 H 0.18731 0.84186 0.15668 0.0
H1198 H 0.26799 0.88525 0.17925 0.0
H1199 H 0.30475 0.83674 0.1742 0.0
Nd1200 Nd 0.17897 0.45943 0.9151 0.0
Nd1201 Nd 0.13535 0.49665 0.91997 0.0
C1202 C 0.2373 0.42889 0.90903 0.0
C1203 C 0.24633 0.39576 0.90374 0.0
C1204 C 0.28066 0.38684 0.90215 0.0
C1205 C 0.28933 0.35599 0.89644 0.0
C1206 C 0.26368 0.33372 0.89226 0.0
C1207 C 0.22928 0.34233 0.89433 0.0
C1208 C 0.22068 0.37318 0.89999 0.0
C1209 C 0.12348 0.41206 0.91459 0.0
C1210 C 0.16289 0.50965 0.89113 0.0
C1211 C 0.07671 0.52998 0.91925 0.0
C1212 C 1.04176 0.51642 0.9188 0.0
C1213 C 1.03373 0.48932 0.9106 0.0
C1214 C 1.00429 0.47016 0.91267 0.0
C1215 C 0.98272 0.47744 0.92308 0.0
C1216 C 0.9891 0.50673 0.93043 0.0
C1217 C 1.01833 0.52607 0.92827 0.0
C1218 C 0.18953 0.52457 0.93535 0.0
C1219 C 0.14755 0.44894 0.94218 0.0
O1220 O 0.22103 0.44924 0.90134 0.0
O1221 O 0.22409 0.42852 0.92047 0.0
O1222 O 0.15367 0.40673 0.91907 0.0
O1223 O 0.12245 0.44326 0.91054 0.0
O1224 O 0.17219 0.47818 0.89348 0.0
O1225 O 0.15189 0.52601 0.90129 0.0
O1226 O 0.09565 0.52481 0.90916 0.0
O1227 O 0.0931 0.52379 0.92984 0.0
O1228 O 0.15808 0.52029 0.93882 0.0
O1229 O 0.19207 0.5135 0.92365 0.0
O1230 O 0.12122 0.45813 0.93545 0.0
O1231 O 0.17759 0.45372 0.93699 0.0
H1232 H 0.30071 0.40407 0.90503 0.0
H1233 H 0.31603 0.35027 0.8948 0.0
H1234 H 0.209 0.32554 0.8913 0.0
H1235 H 0.19401 0.37973 0.90118 0.0
H1236 H 0.05136 0.48129 0.90318 0.0
H1237 H 0.99978 0.44815 0.90672 0.0
H1238 H 0.97339 0.51304 0.93864 0.0
H1239 H 1.02409 0.54678 0.93471 0.0
Nd1240 Nd 0.39809 0.42832 0.66656 0.0
Nd1241 Nd 0.35637 0.38608 0.66844 0.0
C1242 C 0.4332 0.48508 0.66293 0.0
C1243 C 0.46754 0.49297 0.65834 0.0
C1244 C 0.47812 0.52675 0.65747 0.0
C1245 C 0.5102 0.53449 0.65241 0.0
C1246 C 0.53205 0.50847 0.64815 0.0
C1247 C 0.52179 0.47452 0.64956 0.0
C1248 C 0.48971 0.46684 0.65459 0.0
C1249 C 0.44293 0.37128 0.66651 0.0
C1250 C 0.35412 0.41619 0.63996 0.0
C1251 C 0.3222 0.32891 0.66522 0.0
C1252 C 0.3347 0.29368 0.6651 0.0
C1253 C 0.36357 0.28458 0.65781 0.0
C1254 C 0.38138 0.25473 0.66055 0.0
C1255 C 0.371 0.23385 0.67076 0.0
C1256 C 0.34 0.24131 0.67708 0.0
C1257 C 0.32197 0.27086 0.67421 0.0
C1258 C 0.32627 0.43812 0.68423 0.0
C1259 C 0.39562 0.39398 0.69328 0.0
O1260 O 0.41239 0.4725 0.65448 0.0
O1261 O 0.43171 0.46905 0.6738 0.0
O1262 O 0.44803 0.39994 0.67211 0.0
O1263 O 0.41284 0.37233 0.66125 0.0
O1264 O 0.38465 0.42435 0.64433 0.0
O1265 O 0.33329 0.40451 0.64877 0.0
O1266 O 0.33174 0.34825 0.65573 0.0
O1267 O 0.32477 0.34419 0.67623 0.0
O1268 O 0.32416 0.40569 0.6859 0.0
O1269 O 0.3432 0.44321 0.67366 0.0
O1270 O 0.38772 0.36894 0.68574 0.0
O1271 O 0.39489 0.42443 0.68838 0.0
H1272 H 0.46124 0.54714 0.66039 0.0
H1273 H 0.51719 0.56089 0.65126 0.0
H1274 H 0.5382 0.45397 0.64643 0.0
H1275 H 0.48189 0.44057 0.65526 0.0
H1276 H 0.37394 0.30166 0.65066 0.0
H1277 H 0.40467 0.24938 0.65531 0.0
H1278 H 0.33116 0.2262 0.68509 0.0
H1279 H 0.2998 0.27737 0.67995 0.0
H1280 H 0.20608 0.1195 0.45965 0.0
H1281 H 0.1044 0.16268 0.45867 0.0
H1282 H 0.10954 0.17828 0.48154 0.0
H1283 H 0.20257 0.09127 0.49525 0.0
H1284 H 0.2471 0.10159 0.49699 0.0
H1285 H 0.2315 0.08535 0.48197 0.0
H1286 H 0.25646 0.13759 0.47021 0.0
H1287 H 0.27198 0.15394 0.48506 0.0
H1288 H 0.2441 0.17957 0.47531 0.0
H1289 H 0.13136 0.20247 0.5014 0.0
H1290 H 0.1678 0.23515 0.51576 0.0
H1291 H 0.25415 0.17167 0.50581 0.0
C1292 C 0.18456 0.13139 0.46439 0.0
C1293 C 0.15501 0.14032 0.4575 0.0
C1294 C 0.12723 0.15573 0.46388 0.0
C1295 C 0.12985 0.1643 0.47687 0.0
C1296 C 0.15998 0.15626 0.48334 0.0
C1297 C 0.18665 0.13955 0.47734 0.0
C1298 C 0.21814 0.13839 0.48567 0.0
C1299 C 0.22523 0.10199 0.49024 0.0
C1300 C 0.24945 0.1533 0.47864 0.0
C1301 C 0.20641 0.16063 0.49664 0.0
C1302 C 0.17234 0.1695 0.49537 0.0
C1303 C 0.15756 0.19476 0.50285 0.0
C1304 C 0.17847 0.21301 0.51117 0.0
C1305 C 0.21377 0.20568 0.51212 0.0
C1306 C 0.22722 0.17766 0.50537 0.0
H1307 H 0.2006 0.97045 0.70715 0.0
H1308 H 0.20031 0.86169 0.71333 0.0
H1309 H 0.1961 0.87125 0.73676 0.0
H1310 H 0.24736 0.99381 0.73707 0.0
H1311 H 0.22147 1.03117 0.7394 0.0
H1312 H 0.23096 1.01659 0.72343 0.0
H1313 H 0.16701 1.013 0.71772 0.0
H1314 H 0.15709 1.0296 0.73323 0.0
H1315 H 0.13855 0.99 0.72818 0.0
H1316 H 0.18306 0.89277 0.75884 0.0
H1317 H 0.15242 0.9225 0.77616 0.0
H1318 H 0.16188 1.01691 0.75512 0.0
C1319 C 0.20009 0.94855 0.71342 0.0
C1320 C 0.20047 0.91534 0.70847 0.0
C1321 C 0.19984 0.88738 0.71697 0.0
C1322 C 0.19801 0.89261 0.73027 0.0
C1323 C 0.19757 0.92589 0.73485 0.0
C1324 C 0.19851 0.95334 0.7266 0.0
C1325 C 0.19266 0.98638 0.73354 0.0
C1326 C 0.22507 1.00825 0.73336 0.0
C1327 C 0.162 1.00582 0.72784 0.0
C1328 C 0.18531 0.97314 0.74685 0.0
C1329 C 0.18976 0.93835 0.74759 0.0
C1330 C 0.17998 0.92003 0.75842 0.0
C1331 C 0.16254 0.93717 0.76823 0.0
C1332 C 0.154 0.97195 0.76685 0.0
C1333 C 0.16828 0.9905 0.75659 0.0
H1334 H 0.40511 0.97153 0.95979 0.0
H1335 H 0.50308 0.92069 0.95907 0.0
H1336 H 0.50005 0.9133 0.98261 0.0
H1337 H 0.41718 1.00924 0.9947 0.0
H1338 H 0.37191 1.00465 0.99724 0.0
H1339 H 0.38822 1.01588 0.9816 0.0
H1340 H 0.35558 0.9645 0.97193 0.0
H1341 H 0.34 0.95357 0.98749 0.0
H1342 H 0.36356 0.92265 0.97828 0.0
H1343 H 0.47901 0.89694 1.00359 0.0
H1344 H 0.4408 0.86683 1.01818 0.0
H1345 H 0.3577 0.93328 1.00748 0.0
C1346 C 0.42632 0.95969 0.9647 0.0
C1347 C 0.45403 0.94611 0.95777 0.0
C1348 C 0.48157 0.93104 0.96432 0.0
C1349 C 0.48022 0.92726 0.97768 0.0
C1350 C 0.45177 0.93986 0.98428 0.0
C1351 C 0.42556 0.95642 0.97799 0.0
C1352 C 0.39536 0.96258 0.98675 0.0
C1353 C 0.39302 1.00032 0.99029 0.0
C1354 C 0.36171 0.95001 0.98076 0.0
C1355 C 0.40612 0.94162 0.99821 0.0
C1356 C 0.43966 0.93074 0.99694 0.0
C1357 C 0.4532 0.90591 1.00492 0.0
C1358 C 0.43129 0.88922 1.01341 0.0
C1359 C 0.39623 0.89776 1.01403 0.0
C1360 C 0.38441 0.92629 1.00717 0.0
H1361 H 0.41843 0.09957 0.26062 0.0
H1362 H 0.48518 0.18395 0.26895 0.0
H1363 H 0.45468 0.21911 0.25342 0.0
H1364 H 0.42813 0.1034 0.23064 0.0
H1365 H 0.38589 0.09262 0.2252 0.0
H1366 H 0.39964 0.0792 0.24072 0.0
H1367 H 0.34781 0.10914 0.25123 0.0
H1368 H 0.33348 0.12225 0.23558 0.0
H1369 H 0.33979 0.15334 0.24798 0.0
H1370 H 0.43279 0.23828 0.23276 0.0
H1371 H 0.42018 0.2392 0.20952 0.0
H1372 H 0.37141 0.14119 0.21297 0.0
C1373 C 0.42535 0.126 0.25961 0.0
C1374 C 0.45402 0.13901 0.26607 0.0
C1375 C 0.46268 0.17361 0.26445 0.0
C1376 C 0.44554 0.19383 0.25552 0.0
C1377 C 0.41975 0.17918 0.24827 0.0
C1378 C 0.4091 0.14609 0.2504 0.0
C1379 C 0.38711 0.13355 0.23949 0.0
C1380 C 0.40109 0.10029 0.23367 0.0
C1381 C 0.34983 0.12934 0.24383 0.0
C1382 C 0.39065 0.16303 0.23031 0.0
C1383 C 0.408 0.18984 0.23576 0.0
C1384 C 0.41821 0.21795 0.22851 0.0
C1385 C 0.41124 0.21822 0.21533 0.0
C1386 C 0.39522 0.19011 0.2096 0.0
C1387 C 0.38379 0.16292 0.21724 0.0
H1388 H 0.13241 0.88342 0.23289 0.0
H1389 H 0.15141 0.99116 0.23008 0.0
H1390 H 0.16061 0.98583 0.20682 0.0
H1391 H 0.19522 0.85825 0.21476 0.0
H1392 H 0.17476 0.82359 0.20659 0.0
H1393 H 0.15912 0.83701 0.22191 0.0
H1394 H 0.09894 0.84631 0.21232 0.0
H1395 H 0.11456 0.83273 0.19688 0.0
H1396 H 0.09375 0.8733 0.1985 0.0
H1397 H 0.18484 0.96696 0.18639 0.0
H1398 H 0.21768 0.93595 0.1698 0.0
H1399 H 0.17896 0.8409 0.18455 0.0
C1400 C 0.13657 0.90597 0.22716 0.0
C1401 C 0.14057 0.93773 0.23305 0.0
C1402 C 0.1476 0.96676 0.22558 0.0
C1403 C 0.15275 0.96395 0.21236 0.0
C1404 C 0.15029 0.93198 0.20679 0.0
C1405 C 0.1415 0.90351 0.21389 0.0
C1406 C 0.14591 0.87147 0.20608 0.0
C1407 C 0.17021 0.84615 0.21273 0.0
C1408 C 0.11122 0.855 0.20328 0.0
C1409 C 0.16152 0.88613 0.19399 0.0
C1410 C 0.16319 0.92114 0.19445 0.0
C1411 C 0.18232 0.93974 0.18557 0.0
C1412 C 0.20094 0.92207 0.1762 0.0
C1413 C 0.19972 0.88637 0.17576 0.0
C1414 C 0.17884 0.86838 0.18443 0.0
H1415 H 0.42314 0.98006 0.4325 0.0
H1416 H 0.49983 0.90299 0.42532 0.0
H1417 H 0.47103 0.86478 0.44037 0.0
H1418 H 0.42795 0.97645 0.46279 0.0
H1419 H 0.38382 0.98293 0.46713 0.0
H1420 H 0.39922 0.99805 0.45203 0.0
H1421 H 0.35297 0.96351 0.44017 0.0
H1422 H 0.33697 0.94864 0.4554 0.0
H1423 H 0.34892 0.91865 0.44315 0.0
H1424 H 0.44709 0.84285 0.46067 0.0
H1425 H 0.42983 0.84014 0.48354 0.0
H1426 H 0.37199 0.9329 0.47887 0.0
C1427 C 0.43286 0.95454 0.43367 0.0
C1428 C 0.46379 0.94472 0.4278 0.0
C1429 C 0.47588 0.91112 0.42953 0.0
C1430 C 0.45965 0.88911 0.43815 0.0
C1431 C 0.43124 0.90091 0.44488 0.0
C1432 C 0.41743 0.93274 0.44253 0.0
C1433 C 0.39214 0.94272 0.45286 0.0
C1434 C 0.4014 0.977 0.45906 0.0
C1435 C 0.35558 0.94339 0.44757 0.0
C1436 C 0.39688 0.91348 0.46205 0.0
C1437 C 0.41814 0.88873 0.45706 0.0
C1438 C 0.4296 0.86152 0.46453 0.0
C1439 C 0.4199 0.8602 0.4775 0.0
C1440 C 0.39993 0.88649 0.4828 0.0
C1441 C 0.38732 0.91256 0.4749 0.0
H1442 H 0.3559 0.17335 0.68245 0.0
H1443 H 0.44038 0.23998 0.67314 0.0
H1444 H 0.4759 0.21098 0.68898 0.0
H1445 H 0.36053 0.18419 0.7127 0.0
H1446 H 0.34981 0.1422 0.71826 0.0
H1447 H 0.33578 0.15603 0.70281 0.0
H1448 H 0.36542 0.10453 0.69215 0.0
H1449 H 0.37917 0.09012 0.70771 0.0
H1450 H 0.41002 0.09648 0.69508 0.0
H1451 H 0.49608 0.1887 0.70975 0.0
H1452 H 0.49861 0.17394 0.73284 0.0
H1453 H 0.3995 0.12627 0.73003 0.0
C1454 C 0.38234 0.1808 0.68336 0.0
C1455 C 0.3951 0.20908 0.67659 0.0
C1456 C 0.42991 0.21807 0.67801 0.0
C1457 C 0.45042 0.20174 0.68709 0.0
C1458 C 0.4359 0.17635 0.69462 0.0
C1459 C 0.40272 0.16539 0.69268 0.0
C1460 C 0.39046 0.14344 0.70368 0.0
C1461 C 0.35724 0.15735 0.70971 0.0
C1462 C 0.38603 0.10645 0.6994 0.0
C1463 C 0.4204 0.14687 0.71266 0.0
C1464 C 0.44706 0.16451 0.70708 0.0
C1465 C 0.47581 0.174 0.7141 0.0
C1466 C 0.47699 0.1658 0.72719 0.0
C1467 C 0.44909 0.14933 0.73308 0.0
C1468 C 0.42108 0.13895 0.72566 0.0
H1469 H 0.22448 0.14804 0.97992 0.0
H1470 H 0.16943 0.24162 0.98672 0.0
H1471 H 0.1532 0.24381 0.96381 0.0
H1472 H 0.25012 0.17132 0.94442 0.0
H1473 H 0.24836 0.12649 0.94116 0.0
H1474 H 0.26154 0.14168 0.95675 0.0
H1475 H 0.21247 0.10173 0.96647 0.0
H1476 H 0.20055 0.0902 0.95051 0.0
H1477 H 0.16945 0.10897 0.96114 0.0
H1478 H 0.13094 0.22708 0.94307 0.0
H1479 H 0.10232 0.19334 0.92665 0.0
H1480 H 0.17783 0.11395 0.93122 0.0
C1481 C 0.20954 0.16928 0.97646 0.0
C1482 C 0.19759 0.19435 0.98492 0.0
C1483 C 0.17858 0.22214 0.98024 0.0
C1484 C 0.16965 0.22373 0.96727 0.0
C1485 C 0.1811 0.19797 0.95914 0.0
C1486 C 0.20114 0.17159 0.96353 0.0
C1487 C 0.20678 0.14507 0.95333 0.0
C1488 C 0.2439 0.14612 0.94861 0.0
C1489 C 0.19671 0.10943 0.95815 0.0
C1490 C 0.18285 0.15808 0.94312 0.0
C1491 C 0.16951 0.18942 0.94643 0.0
C1492 C 0.14205 0.20346 0.93993 0.0
C1493 C 0.12623 0.18415 0.93046 0.0
C1494 C 0.1383 0.15126 0.92739 0.0
C1495 C 0.16839 0.13921 0.93322 0.0
H1496 H 0.90523 0.97641 0.72861 0.0
H1497 H 1.00231 0.9246 0.7316 0.0
H1498 H 0.99919 0.9096 0.70858 0.0
H1499 H 0.8644 0.92012 0.71265 0.0
H1500 H 0.83993 0.94753 0.70231 0.0
H1501 H 0.85516 0.96325 0.71728 0.0
H1502 H 0.88583 1.01251 0.70563 0.0
H1503 H 0.87053 0.99691 0.69047 0.0
H1504 H 0.91557 1.00353 0.69285 0.0
H1505 H 0.97766 0.8866 0.68828 0.0
H1506 H 0.94013 0.85654 0.67351 0.0
H1507 H 0.85813 0.92676 0.68222 0.0
C1508 C 0.92637 0.96294 0.72425 0.0
C1509 C 0.95384 0.95132 0.73173 0.0
C1510 C 0.98114 0.93375 0.7259 0.0
C1511 C 0.97963 0.92542 0.71284 0.0
C1512 C 0.95119 0.93589 0.70578 0.0
C1513 C 0.92534 0.95498 0.71126 0.0
C1514 C 0.89498 0.95838 0.70245 0.0
C1515 C 0.86173 0.94656 0.70907 0.0
C1516 C 0.89155 0.99501 0.69756 0.0
C1517 C 0.90591 0.93471 0.6918 0.0
C1518 C 0.93899 0.92314 0.69361 0.0
C1519 C 0.9523 0.89638 0.68646 0.0
C1520 C 0.93069 0.87947 0.67796 0.0
C1521 C 0.89603 0.88925 0.67671 0.0
C1522 C 0.88449 0.9188 0.68298 0.0
H1523 H 0.87038 0.1509 0.4796 0.0
H1524 H 0.92276 0.24734 0.47923 0.0
H1525 H 0.93376 0.24067 0.45598 0.0
H1526 H 0.92439 0.10775 0.46402 0.0
H1527 H 0.89627 0.08146 0.45469 0.0
H1528 H 0.88136 0.09943 0.46937 0.0
H1529 H 0.83083 0.12783 0.45756 0.0
H1530 H 0.84551 0.10936 0.44273 0.0
H1531 H 0.83884 0.1545 0.44384 0.0
H1532 H 0.95455 0.21576 0.43617 0.0
H1533 H 0.98565 0.17539 0.42265 0.0
H1534 H 0.91702 0.09531 0.43417 0.0
C1535 C 0.88294 0.17122 0.47446 0.0
C1536 C 0.89602 0.19946 0.48106 0.0
C1537 C 0.91248 0.22562 0.47423 0.0
C1538 C 0.91851 0.22206 0.46102 0.0
C1539 C 0.90702 0.1927 0.45487 0.0
C1540 C 0.88885 0.168 0.46137 0.0
C1541 C 0.88503 0.13606 0.45348 0.0
C1542 C 0.89757 0.10439 0.46083 0.0
C1543 C 0.84785 0.1317 0.44914 0.0
C1544 C 0.908 0.14477 0.44227 0.0
C1545 C 0.91892 0.17817 0.44292 0.0
C1546 C 0.94527 0.19013 0.4352 0.0
C1547 C 0.96254 0.16709 0.42734 0.0
C1548 C 0.9532 0.13249 0.42708 0.0
C1549 C 0.92423 0.12178 0.43403 0.0
H1550 H 0.69147 0.25794 0.18742 0.0
H1551 H 0.67462 0.16793 0.16473 0.0
H1552 H 0.64095 0.14286 0.18264 0.0
H1553 H 0.71443 0.21532 0.21313 0.0
H1554 H 0.69762 0.24399 0.22502 0.0
H1555 H 0.70898 0.25973 0.20947 0.0
H1556 H 0.64617 0.28274 0.2053 0.0
H1557 H 0.63926 0.27087 0.2218 0.0
H1558 H 0.611 0.25556 0.20964 0.0
H1559 H 0.61874 0.12424 0.20422 0.0
H1560 H 0.61599 0.11122 0.22748 0.0
H1561 H 0.65425 0.21136 0.23611 0.0
C1562 C 0.67929 0.23354 0.18608 0.0
C1563 C 0.68464 0.21492 0.17478 0.0
C1564 C 0.66994 0.18258 0.17332 0.0
C1565 C 0.65077 0.1684 0.18341 0.0
C1566 C 0.64727 0.18689 0.19478 0.0
C1567 C 0.66138 0.21883 0.19613 0.0
C1568 C 0.66117 0.23064 0.20988 0.0
C1569 C 0.6977 0.23778 0.21464 0.0
C1570 C 0.63803 0.26179 0.21174 0.0
C1571 C 0.6461 0.19979 0.21622 0.0
C1572 C 0.63695 0.1753 0.20737 0.0
C1573 C 0.62508 0.1435 0.21119 0.0
C1574 C 0.62353 0.13633 0.22435 0.0
C1575 C 0.63464 0.16062 0.23332 0.0
C1576 C 0.64516 0.19283 0.22928 0.0
H1577 H 0.66833 0.99963 0.93255 0.0
H1578 H 0.65209 0.90112 0.9153 0.0
H1579 H 0.68146 0.87409 0.93348 0.0
H1580 H 0.75302 0.97544 0.95091 0.0
H1581 H 0.73878 1.00271 0.96369 0.0
H1582 H 0.72981 1.01379 0.9473 0.0
H1583 H 0.66595 1.01865 0.95369 0.0
H1584 H 0.67451 1.00523 0.96974 0.0
H1585 H 0.64436 0.982 0.96017 0.0
H1586 H 0.69435 0.85754 0.95613 0.0
H1587 H 0.69884 0.85373 0.97978 0.0
H1588 H 0.70566 0.96331 0.98186 0.0
C1589 C 0.67303 0.97263 0.93206 0.0
C1590 C 0.65717 0.95248 0.92265 0.0
C1591 C 0.66346 0.91706 0.92256 0.0
C1592 C 0.68022 0.90146 0.93285 0.0
C1593 C 0.69164 0.92182 0.94286 0.0
C1594 C 0.68956 0.95687 0.94227 0.0
C1595 C 0.69806 0.97291 0.95501 0.0
C1596 C 0.73196 0.99233 0.95417 0.0
C1597 C 0.66897 0.99599 0.95992 0.0
C1598 C 0.70167 0.94152 0.96315 0.0
C1599 C 0.69895 0.91222 0.95598 0.0
C1600 C 0.69766 0.88029 0.96177 0.0
C1601 C 0.69972 0.87836 0.97519 0.0
C1602 C 0.70221 0.90826 0.98259 0.0
C1603 C 0.70356 0.94003 0.97644 0.0
H1604 H 0.89547 0.12793 0.95855 0.0
H1605 H 0.99459 0.17621 0.95753 0.0
H1606 H 0.99104 0.18575 0.98096 0.0
H1607 H 0.85562 0.18078 0.97712 0.0
H1608 H 0.83066 0.1509 0.98628 0.0
H1609 H 0.84544 0.13966 0.97062 0.0
H1610 H 0.87533 0.08631 0.97985 0.0
H1611 H 0.86016 0.09744 0.99563 0.0
H1612 H 0.90509 0.0906 0.99286 0.0
H1613 H 0.97001 0.20354 1.00195 0.0
H1614 H 0.93341 0.23018 1.01808 0.0
H1615 H 0.84967 0.16508 1.00712 0.0
C1616 C 0.9168 0.13969 0.96336 0.0
C1617 C 0.94509 0.15177 0.95637 0.0
C1618 C 0.97269 0.16691 0.96283 0.0
C1619 C 0.971 0.17202 0.97611 0.0
C1620 C 0.9421 0.16068 0.98274 0.0
C1621 C 0.91574 0.14421 0.97658 0.0
C1622 C 0.88543 0.13886 0.98536 0.0
C1623 C 0.8524 0.15347 0.9795 0.0
C1624 C 0.88127 0.10106 0.98863 0.0
C1625 C 0.89707 0.15875 0.99693 0.0
C1626 C 0.93041 0.16986 0.99543 0.0
C1627 C 0.94453 0.19389 1.00357 0.0
C1628 C 0.92353 0.20871 1.01286 0.0
C1629 C 0.88874 0.19945 1.014 0.0
C1630 C 0.87624 0.1724 1.00654 0.0
H1631 H 0.71215 0.13564 0.70822 0.0
H1632 H 0.69756 0.24448 0.71028 0.0
H1633 H 0.68962 0.23993 0.7338 0.0
H1634 H 0.64853 0.11366 0.72744 0.0
H1635 H 0.66963 0.07793 0.73479 0.0
H1636 H 0.68247 0.0917 0.71917 0.0
H1637 H 0.74457 0.09793 0.72735 0.0
H1638 H 0.73152 0.08504 0.74321 0.0
H1639 H 0.75337 0.12477 0.74089 0.0
H1640 H 0.67368 0.2222 0.75607 0.0
H1641 H 0.64193 0.1934 0.77333 0.0
H1642 H 0.66563 0.09621 0.75607 0.0
C1643 C 0.70794 0.15867 0.71363 0.0
C1644 C 0.70518 0.19037 0.70748 0.0
C1645 C 0.69968 0.21992 0.71486 0.0
C1646 C 0.69563 0.21758 0.72822 0.0
C1647 C 0.69792 0.18565 0.73399 0.0
C1648 C 0.70399 0.15673 0.72686 0.0
C1649 C 0.69981 0.12491 0.73476 0.0
C1650 C 0.67353 0.1007 0.72869 0.0
C1651 C 0.73438 0.10713 0.73667 0.0
C1652 C 0.68704 0.14015 0.74716 0.0
C1653 C 0.68783 0.17525 0.74679 0.0
C1654 C 0.67335 0.19478 0.75651 0.0
C1655 C 0.65518 0.17816 0.76626 0.0
C1656 C 0.65044 0.14253 0.76586 0.0
C1657 C 0.66898 0.12335 0.7568 0.0
H1658 H 0.70927 0.96871 0.45909 0.0
H1659 H 0.60829 0.92453 0.45733 0.0
H1660 H 0.61276 0.90797 0.48017 0.0
H1661 H 0.74773 0.90871 0.47537 0.0
H1662 H 0.77436 0.93511 0.48524 0.0
H1663 H 0.75953 0.95073 0.47013 0.0
H1664 H 0.73266 1.0029 0.48136 0.0
H1665 H 0.74757 0.98738 0.49661 0.0
H1666 H 0.70296 0.99685 0.49438 0.0
H1667 H 0.63402 0.88388 0.50033 0.0
H1668 H 0.66998 0.85352 0.51568 0.0
H1669 H 0.75531 0.91848 0.5061 0.0
C1670 C 0.68778 0.95631 0.46364 0.0
C1671 C 0.65861 0.94747 0.45657 0.0
C1672 C 0.63085 0.9314 0.4627 0.0
C1673 C 0.63308 0.92226 0.47566 0.0
C1674 C 0.66275 0.93051 0.48235 0.0
C1675 C 0.68939 0.94777 0.47658 0.0
C1676 C 0.7202 0.94975 0.48522 0.0
C1677 C 0.75229 0.93517 0.4786 0.0
C1678 C 0.72618 0.98639 0.48966 0.0
C1679 C 0.70816 0.92763 0.49619 0.0
C1680 C 0.67452 0.91778 0.49456 0.0
C1681 C 0.65978 0.89254 0.50208 0.0
C1682 C 0.68037 0.8756 0.51094 0.0
C1683 C 0.71528 0.88405 0.51231 0.0
C1684 C 0.7286 0.9118 0.50538 0.0
H1685 H 0.99508 0.90988 0.25648 0.0
H1686 H 0.91363 0.97396 0.27069 0.0
H1687 H 0.87458 0.94977 0.25464 0.0
H1688 H 0.98427 0.92665 0.22687 0.0
H1689 H 0.99341 0.88586 0.21986 0.0
H1690 H 1.0107 0.89633 0.23519 0.0
H1691 H 0.98286 0.84317 0.24529 0.0
H1692 H 0.96584 0.83196 0.22983 0.0
H1693 H 0.93772 0.83605 0.24345 0.0
H1694 H 0.85113 0.93388 0.23408 0.0
H1695 H 0.84478 0.92751 0.21081 0.0
H1696 H 0.94121 0.87423 0.20874 0.0
C1697 C 0.9684 0.91711 0.2567 0.0
C1698 C 0.95697 0.94317 0.26492 0.0
C1699 C 0.92251 0.95355 0.26459 0.0
C1700 C 0.90021 0.93981 0.25553 0.0
C1701 C 0.91289 0.91584 0.24689 0.0
C1702 C 0.94618 0.90416 0.2475 0.0
C1703 C 0.95586 0.8844 0.23556 0.0
C1704 C 0.9879 0.89925 0.229 0.0
C1705 C 0.96085 0.84665 0.23872 0.0
C1706 C 0.92414 0.88984 0.22757 0.0
C1707 C 0.89915 0.90679 0.23452 0.0
C1708 C 0.86986 0.91952 0.2287 0.0
C1709 C 0.86654 0.91599 0.21546 0.0
C1710 C 0.89228 0.89986 0.20818 0.0
C1711 C 0.92078 0.88554 0.2143 0.0
H1712 H 0.67844 0.74813 1.00513 0.0
H1713 H 0.74171 0.66605 1.01897 0.0
H1714 H 0.71126 0.62607 1.00485 0.0
H1715 H 0.59827 0.69469 0.99596 0.0
H1716 H 0.59288 0.7203 0.98178 0.0
H1717 H 0.60904 0.73909 0.99629 0.0
H1718 H 0.66193 0.7606 0.98377 0.0
H1719 H 0.64627 0.74171 0.96937 0.0
H1720 H 0.68814 0.7306 0.97516 0.0
H1721 H 0.68719 0.5996 0.98597 0.0
H1722 H 0.67511 0.58955 0.9632 0.0
H1723 H 0.62939 0.68906 0.96003 0.0
C1724 C 0.68429 0.7213 1.00567 0.0
C1725 C 0.71152 0.70967 1.0133 0.0
C1726 C 0.72025 0.67498 1.01338 0.0
C1727 C 0.70295 0.65221 1.00543 0.0
C1728 C 0.67738 0.66474 0.99739 0.0
C1729 C 0.66796 0.6986 0.99748 0.0
C1730 C 0.646 0.70743 0.98601 0.0
C1731 C 0.60937 0.71586 0.99027 0.0
C1732 C 0.66156 0.73676 0.97812 0.0
C1733 C 0.64729 0.67417 0.9788 0.0
C1734 C 0.6641 0.64945 0.98585 0.0
C1735 C 0.67302 0.61828 0.98054 0.0
C1736 C 0.66616 0.61279 0.96759 0.0
C1737 C 0.65075 0.63836 0.96009 0.0
C1738 C 0.63995 0.66881 0.96582 0.0
H1739 H 0.68059 0.48284 0.25779 0.0
H1740 H 0.60451 0.40666 0.2666 0.0
H1741 H 0.63278 0.36692 0.25204 0.0
H1742 H 0.67487 0.47703 0.22791 0.0
H1743 H 0.71876 0.48239 0.22305 0.0
H1744 H 0.7047 0.49887 0.2381 0.0
H1745 H 0.75121 0.46455 0.2499 0.0
H1746 H 0.76601 0.44807 0.23475 0.0
H1747 H 0.75446 0.41939 0.24751 0.0
H1748 H 0.65487 0.34356 0.23178 0.0
H1749 H 0.67015 0.33925 0.20877 0.0
H1750 H 0.729 0.43157 0.21177 0.0
C1751 C 0.67102 0.45718 0.25711 0.0
C1752 C 0.6403 0.44803 0.26327 0.0
C1753 C 0.62831 0.41428 0.26217 0.0
C1754 C 0.64424 0.3914 0.25382 0.0
C1755 C 0.67229 0.40249 0.24673 0.0
C1756 C 0.68621 0.43446 0.24853 0.0
C1757 C 0.71094 0.44338 0.23786 0.0
C1758 C 0.70169 0.47736 0.23135 0.0
C1759 C 0.74784 0.44385 0.24281 0.0
C1760 C 0.70533 0.41356 0.22906 0.0
C1761 C 0.68442 0.38933 0.23457 0.0
C1762 C 0.67213 0.3618 0.22752 0.0
C1763 C 0.68066 0.35958 0.21447 0.0
C1764 C 0.70033 0.38527 0.20864 0.0
C1765 C 0.7138 0.4117 0.21611 0.0
H1766 H 0.86315 0.42917 0.51053 0.0
H1767 H 0.94407 0.35796 0.51922 0.0
H1768 H 0.98172 0.38663 0.50403 0.0
H1769 H 0.8671 0.42021 0.48082 0.0
H1770 H 0.85905 0.46284 0.4753 0.0
H1771 H 0.84441 0.45008 0.4908 0.0
H1772 H 0.87755 0.49934 0.50132 0.0
H1773 H 0.89189 0.51276 0.48567 0.0
H1774 H 0.92251 0.50439 0.49814 0.0
H1775 H 1.00238 0.40676 0.4832 0.0
H1776 H 1.00395 0.41842 0.45986 0.0
H1777 H 0.90859 0.47331 0.46311 0.0
C1778 C 0.88939 0.42082 0.50967 0.0
C1779 C 0.90049 0.39123 0.51603 0.0
C1780 C 0.93497 0.38091 0.5147 0.0
C1781 C 0.95666 0.39707 0.50596 0.0
C1782 C 0.94363 0.42363 0.49863 0.0
C1783 C 0.91088 0.43612 0.50063 0.0
C1784 C 0.89984 0.45881 0.48967 0.0
C1785 C 0.86565 0.44722 0.48381 0.0
C1786 C 0.89786 0.49603 0.49396 0.0
C1787 C 0.9294 0.45342 0.48056 0.0
C1788 C 0.95527 0.43461 0.4861 0.0
C1789 C 0.98287 0.42248 0.47888 0.0
C1790 C 0.98352 0.42893 0.46565 0.0
C1791 C 0.95621 0.4464 0.45983 0.0
C1792 C 0.92971 0.45984 0.46744 0.0
H1793 H 0.87433 0.64733 0.71261 0.0
H1794 H 0.92314 0.7456 0.71114 0.0
H1795 H 0.93686 0.74075 0.73423 0.0
H1796 H 0.84454 0.65332 0.74827 0.0
H1797 H 0.85261 0.60858 0.75016 0.0
H1798 H 0.83724 0.62484 0.73508 0.0
H1799 H 0.88851 0.5969 0.72349 0.0
H1800 H 0.90409 0.5809 0.7384 0.0
H1801 H 0.9313 0.60701 0.72853 0.0
H1802 H 0.95978 0.71802 0.75415 0.0
H1803 H 0.99077 0.68024 0.7687 0.0
H1804 H 0.92327 0.5977 0.7589 0.0
C1805 C 0.88683 0.66832 0.7173 0.0
C1806 C 0.89803 0.69667 0.71024 0.0
C1807 C 0.91435 0.72375 0.71651 0.0
C1808 C 0.92192 0.72126 0.72962 0.0
C1809 C 0.91194 0.69202 0.73625 0.0
C1810 C 0.89402 0.6663 0.73033 0.0
C1811 C 0.89119 0.63519 0.73878 0.0
C1812 C 0.8542 0.63021 0.74335 0.0
C1813 C 0.90462 0.60318 0.73189 0.0
C1814 C 0.914 0.64575 0.74972 0.0
C1815 C 0.9245 0.67914 0.74835 0.0
C1816 C 0.95066 0.69249 0.75575 0.0
C1817 C 0.96797 0.67085 0.76413 0.0
C1818 C 0.95904 0.63619 0.76514 0.0
C1819 C 0.93028 0.62421 0.75845 0.0
H1820 H 0.75958 0.41056 0.6863 0.0
H1821 H 0.66329 0.39476 0.66702 0.0
H1822 H 0.63345 0.42497 0.68443 0.0
H1823 H 0.73823 0.39021 0.71388 0.0
H1824 H 0.76026 0.4213 0.7234 0.0
H1825 H 0.77588 0.41106 0.70776 0.0
H1826 H 0.77181 0.4738 0.70042 0.0
H1827 H 0.75814 0.48456 0.71641 0.0
H1828 H 0.73264 0.49702 0.70286 0.0
H1829 H 0.61353 0.43894 0.70674 0.0
H1830 H 0.6065 0.44473 0.73028 0.0
H1831 H 0.71633 0.45256 0.73423 0.0
C1832 C 0.73258 0.41545 0.68521 0.0
C1833 C 0.71362 0.3993 0.67553 0.0
C1834 C 0.67816 0.40599 0.67461 0.0
C1835 C 0.66103 0.42339 0.68442 0.0
C1836 C 0.68006 0.43533 0.69472 0.0
C1837 C 0.71536 0.43302 0.69486 0.0
C1838 C 0.72967 0.4429 0.70775 0.0
C1839 C 0.75228 0.41467 0.71352 0.0
C1840 C 0.7492 0.47659 0.7068 0.0
C1841 C 0.69695 0.44725 0.71521 0.0
C1842 C 0.6685 0.44387 0.70754 0.0
C1843 C 0.63561 0.44284 0.71276 0.0
C1844 C 0.63184 0.44567 0.72612 0.0
C1845 C 0.6609 0.4487 0.73403 0.0
C1846 C 0.69362 0.45006 0.72843 0.0
H1847 H 0.92032 0.48796 0.93421 0.0
H1848 H 0.99211 0.40871 0.92401 0.0
H1849 H 0.96404 0.36993 0.939 0.0
H1850 H 0.92978 0.48104 0.96399 0.0
H1851 H 0.88684 0.48846 0.96962 0.0
H1852 H 0.8998 0.50462 0.95436 0.0
H1853 H 0.85027 0.47287 0.94333 0.0
H1854 H 0.83665 0.45689 0.95872 0.0
H1855 H 0.84521 0.42789 0.94576 0.0
H1856 H 0.94336 0.34702 0.95957 0.0
H1857 H 0.93036 0.34256 0.9828 0.0
H1858 H 0.87562 0.43781 0.98096 0.0
C1859 C 0.92893 0.4619 0.9347 0.0
C1860 C 0.95848 0.45156 0.92801 0.0
C1861 C 0.96921 0.41729 0.92886 0.0
C1862 C 0.95339 0.39494 0.93744 0.0
C1863 C 0.92673 0.40709 0.94504 0.0
C1864 C 0.91393 0.43969 0.94352 0.0
C1865 C 0.89099 0.4495 0.95462 0.0
C1866 C 0.90262 0.48281 0.96102 0.0
C1867 C 0.85356 0.4519 0.95035 0.0
C1868 C 0.89637 0.41921 0.96327 0.0
C1869 C 0.91554 0.3942 0.95737 0.0
C1870 C 0.9274 0.3659 0.96415 0.0
C1871 C 0.9202 0.36362 0.97732 0.0
C1872 C 0.90233 0.39003 0.9835 0.0
C1873 C 0.88934 0.41736 0.97633 0.0
H1874 H 0.86038 0.68119 0.1834 0.0
H1875 H 0.9346 0.76212 0.18103 0.0
H1876 H 0.97029 0.73334 0.19699 0.0
H1877 H 0.85769 0.67931 0.2146 0.0
H1878 H 0.85305 0.63436 0.21717 0.0
H1879 H 0.83935 0.65285 0.20236 0.0
H1880 H 0.87743 0.6114 0.18995 0.0
H1881 H 0.89405 0.59278 0.20447 0.0
H1882 H 0.9228 0.61031 0.19277 0.0
H1883 H 0.99191 0.70343 0.21602 0.0
H1884 H 0.99433 0.67753 0.23764 0.0
H1885 H 0.90325 0.61967 0.22925 0.0
C1886 C 0.88497 0.69187 0.18581 0.0
C1887 C 0.89547 0.72312 0.18058 0.0
C1888 C 0.92704 0.73723 0.18436 0.0
C1889 C 0.94741 0.72116 0.19351 0.0
C1890 C 0.93579 0.69103 0.19888 0.0
C1891 C 0.90525 0.67642 0.19515 0.0
C1892 C 0.89503 0.64813 0.20417 0.0
C1893 C 0.85919 0.65405 0.20991 0.0
C1894 C 0.89743 0.61362 0.19742 0.0
C1895 C 0.92265 0.65148 0.21415 0.0
C1896 C 0.94692 0.6751 0.21062 0.0
C1897 C 0.97344 0.68438 0.21879 0.0
C1898 C 0.97458 0.66974 0.23103 0.0
C1899 C 0.94873 0.64708 0.23498 0.0
C1900 C 0.92314 0.63715 0.22635 0.0
H1901 H 0.70699 0.63011 0.48411 0.0
H1902 H 0.6985 0.73957 0.48181 0.0
H1903 H 0.69374 0.73562 0.45821 0.0
H1904 H 0.75286 0.61792 0.4523 0.0
H1905 H 0.72963 0.57932 0.44934 0.0
H1906 H 0.74052 0.59105 0.4655 0.0
H1907 H 0.67709 0.58776 0.47248 0.0
H1908 H 0.66631 0.57462 0.45663 0.0
H1909 H 0.64555 0.61118 0.46353 0.0
H1910 H 0.67973 0.71915 0.43584 0.0
H1911 H 0.64796 0.69229 0.41828 0.0
H1912 H 0.66572 0.59373 0.43546 0.0
C1913 C 0.70462 0.65333 0.47863 0.0
C1914 C 0.70272 0.68509 0.48471 0.0
C1915 C 0.69981 0.71493 0.47726 0.0
C1916 C 0.69766 0.71293 0.46386 0.0
C1917 C 0.69931 0.681 0.45813 0.0
C1918 C 0.70273 0.65174 0.46533 0.0
C1919 C 0.69841 0.6203 0.4573 0.0
C1920 C 0.73239 0.60103 0.45603 0.0
C1921 C 0.67014 0.59718 0.4628 0.0
C1922 C 0.68836 0.63635 0.4447 0.0
C1923 C 0.6908 0.67137 0.44514 0.0
C1924 C 0.67826 0.69179 0.43531 0.0
C1925 C 0.66009 0.6763 0.42538 0.0
C1926 C 0.65352 0.64098 0.42571 0.0
C1927 C 0.67054 0.62068 0.43482 0.0
H1928 H 0.39416 0.46971 0.22891 0.0
H1929 H 0.49531 0.42593 0.23176 0.0
H1930 H 0.49114 0.40613 0.2093 0.0
H1931 H 0.35644 0.40688 0.21402 0.0
H1932 H 0.32945 0.43164 0.20362 0.0
H1933 H 0.34414 0.44946 0.21836 0.0
H1934 H 0.37025 0.5002 0.206 0.0
H1935 H 0.35561 0.4824 0.1911 0.0
H1936 H 0.40009 0.49258 0.19313 0.0
H1937 H 0.47033 0.3796 0.18936 0.0
H1938 H 0.43496 0.34741 0.17443 0.0
H1939 H 0.34867 0.41268 0.18309 0.0
C1940 C 0.41577 0.45673 0.22466 0.0
C1941 C 0.44491 0.44897 0.23196 0.0
C1942 C 0.4728 0.43207 0.22621 0.0
C1943 C 0.47072 0.42104 0.21346 0.0
C1944 C 0.44104 0.42817 0.20658 0.0
C1945 C 0.41427 0.4462 0.21194 0.0
C1946 C 0.38343 0.4467 0.20329 0.0
C1947 C 0.35154 0.43281 0.21023 0.0
C1948 C 0.37699 0.48261 0.19807 0.0
C1949 C 0.39569 0.42315 0.1928 0.0
C1950 C 0.42938 0.41365 0.19464 0.0
C1951 C 0.44439 0.38771 0.18753 0.0
C1952 C 0.42398 0.36959 0.17895 0.0
C1953 C 0.38882 0.37742 0.1776 0.0
C1954 C 0.3754 0.40609 0.18394 0.0
H1955 H 0.40914 0.63157 0.98329 0.0
H1956 H 0.41084 0.74033 0.97709 0.0
H1957 H 0.4178 0.73053 0.95371 0.0
H1958 H 0.4725 0.61063 0.96285 0.0
H1959 H 0.45345 0.5714 0.9577 0.0
H1960 H 0.44306 0.58827 0.97313 0.0
H1961 H 0.37823 0.58752 0.96711 0.0
H1962 H 0.38964 0.57034 0.95167 0.0
H1963 H 0.36455 0.60852 0.95265 0.0
H1964 H 0.43162 0.70799 0.93152 0.0
H1965 H 0.46008 0.6766 0.91408 0.0
H1966 H 0.44797 0.58323 0.93567 0.0
C1967 C 0.41066 0.65349 0.97705 0.0
C1968 C 0.40976 0.68671 0.98197 0.0
C1969 C 0.41172 0.71462 0.97348 0.0
C1970 C 0.4151 0.70926 0.9602 0.0
C1971 C 0.41563 0.67592 0.95567 0.0
C1972 C 0.41346 0.64858 0.96392 0.0
C1973 C 0.41877 0.6153 0.95712 0.0
C1974 C 0.44873 0.59529 0.96304 0.0
C1975 C 0.38583 0.59419 0.95715 0.0
C1976 C 0.42695 0.62812 0.94384 0.0
C1977 C 0.42374 0.66302 0.943 0.0
C1978 C 0.43384 0.68067 0.93205 0.0
C1979 C 0.45011 0.66257 0.92219 0.0
C1980 C 0.4572 0.62744 0.9236 0.0
C1981 C 0.44282 0.60985 0.93409 0.0
H1982 H 0.2004 0.61853 0.72845 0.0
H1983 H 0.10144 0.66714 0.73023 0.0
H1984 H 0.10477 0.67893 0.70695 0.0
H1985 H 0.23989 0.67374 0.71227 0.0
H1986 H 0.26599 0.64689 0.70225 0.0
H1987 H 0.25035 0.63107 0.71719 0.0
H1988 H 0.22208 0.58049 0.70565 0.0
H1989 H 0.23796 0.59616 0.69052 0.0
H1990 H 0.19302 0.58805 0.6926 0.0
H1991 H 0.12651 0.70133 0.68692 0.0
H1992 H 0.16439 0.73487 0.67326 0.0
H1993 H 0.24865 0.66824 0.68233 0.0
C1994 C 0.17891 0.63051 0.72379 0.0
C1995 C 0.15086 0.64233 0.73099 0.0
C1996 C 0.12308 0.65791 0.72476 0.0
C1997 C 0.12471 0.66434 0.71154 0.0
C1998 C 0.15382 0.65407 0.70476 0.0
C1999 C 0.18018 0.63674 0.71066 0.0
C2000 C 0.21132 0.63418 0.70209 0.0
C2001 C 0.24371 0.64731 0.70885 0.0
C2002 C 0.21637 0.59755 0.69743 0.0
C2003 C 0.20028 0.6571 0.69121 0.0
C2004 C 0.16639 0.66677 0.6926 0.0
C2005 C 0.15252 0.69307 0.68539 0.0
C2006 C 0.17421 0.71179 0.67743 0.0
C2007 C 0.20935 0.70384 0.67652 0.0
C2008 C 0.2218 0.6746 0.68277 0.0
H2009 H 0.21627 0.4588 0.48004 0.0
H2010 H 0.19807 0.35052 0.47869 0.0
H2011 H 0.19159 0.35421 0.45509 0.0
H2012 H 0.15476 0.48278 0.46098 0.0
H2013 H 0.17722 0.51716 0.45327 0.0
H2014 H 0.18982 0.50355 0.46888 0.0
H2015 H 0.25146 0.49391 0.46041 0.0
H2016 H 0.23849 0.50684 0.44457 0.0
H2017 H 0.25868 0.46622 0.44696 0.0
H2018 H 0.1761 0.37146 0.43289 0.0
H2019 H 0.1427 0.40027 0.41619 0.0
H2020 H 0.16949 0.49754 0.4325 0.0
C2021 C 0.21153 0.43568 0.47476 0.0
C2022 C 0.20719 0.40444 0.48113 0.0
C2023 C 0.20129 0.37474 0.47393 0.0
C2024 C 0.19812 0.37659 0.46053 0.0
C2025 C 0.20177 0.40815 0.45455 0.0
C2026 C 0.20845 0.43716 0.46151 0.0
C2027 C 0.20532 0.46879 0.45342 0.0
C2028 C 0.18026 0.49449 0.45949 0.0
C2029 C 0.24058 0.48488 0.45121 0.0
C2030 C 0.19164 0.45352 0.4412 0.0
C2031 C 0.19187 0.41838 0.44173 0.0
C2032 C 0.17623 0.39886 0.43232 0.0
C2033 C 0.15716 0.41551 0.42287 0.0
C2034 C 0.15261 0.45117 0.42331 0.0
C2035 C 0.17265 0.47035 0.43183 0.0
H2036 H 0.4194 0.75298 0.50512 0.0
H2037 H 0.38008 0.6583 0.51994 0.0
H2038 H 0.41291 0.62695 0.5034 0.0
H2039 H 0.40232 0.73509 0.47522 0.0
H2040 H 0.43803 0.75629 0.46779 0.0
H2041 H 0.423 0.76999 0.48316 0.0
H2042 H 0.48324 0.76124 0.49275 0.0
H2043 H 0.4987 0.74773 0.47728 0.0
H2044 H 0.50432 0.72081 0.49109 0.0
H2045 H 0.43957 0.60749 0.4832 0.0
H2046 H 0.4508 0.6017 0.46 0.0
H2047 H 0.46625 0.70998 0.45692 0.0
C2048 C 0.41942 0.7255 0.50528 0.0
C2049 C 0.39848 0.70771 0.51397 0.0
C2050 C 0.39699 0.67201 0.51355 0.0
C2051 C 0.41562 0.65416 0.50422 0.0
C2052 C 0.43496 0.67261 0.49535 0.0
C2053 C 0.43677 0.70764 0.49577 0.0
C2054 C 0.45206 0.7222 0.48362 0.0
C2055 C 0.42736 0.74732 0.47707 0.0
C2056 C 0.48664 0.73897 0.48635 0.0
C2057 C 0.45649 0.69011 0.47589 0.0
C2058 C 0.44808 0.66166 0.48305 0.0
C2059 C 0.44702 0.62942 0.47762 0.0
C2060 C 0.45347 0.62634 0.46447 0.0
C2061 C 0.45997 0.6554 0.45694 0.0
C2062 C 0.46231 0.68747 0.4627 0.0
H2063 H 0.08123 0.6573 0.24364 0.0
H2064 H 0.16626 0.6627 0.26981 0.0
H2065 H 0.19615 0.70187 0.2549 0.0
H2066 H 0.12773 0.64422 0.21826 0.0
H2067 H 0.1024 0.66711 0.20673 0.0
H2068 H 0.0827 0.65086 0.22096 0.0
H2069 H 0.06119 0.71151 0.2272 0.0
H2070 H 0.07954 0.72626 0.21234 0.0
H2071 H 0.09126 0.74619 0.22715 0.0
H2072 H 0.22176 0.72774 0.23544 0.0
H2073 H 0.24218 0.73369 0.21306 0.0
H2074 H 0.14149 0.7089 0.19921 0.0
C2075 C 0.10555 0.66806 0.24639 0.0
C2076 C 0.12163 0.65765 0.25776 0.0
C2077 C 0.15371 0.67095 0.26112 0.0
C2078 C 0.17056 0.69337 0.25277 0.0
C2079 C 0.15473 0.70204 0.24122 0.0
C2080 C 0.12267 0.68988 0.23808 0.0
C2081 C 0.11431 0.6961 0.22413 0.0
C2082 C 0.10638 0.66259 0.21712 0.0
C2083 C 0.08481 0.72152 0.22265 0.0
C2084 C 0.14754 0.7114 0.21967 0.0
C2085 C 0.17009 0.71598 0.22972 0.0
C2086 C 0.20399 0.72539 0.22758 0.0
C2087 C 0.2154 0.72878 0.21489 0.0
C2088 C 0.19297 0.7223 0.20466 0.0
C2089 C 0.15855 0.71486 0.20704 0.0
H2090 H 0.18643 0.46947 0.96174 0.0
H2091 H 0.10157 0.40421 0.95241 0.0
H2092 H 0.10194 0.38131 0.97458 0.0
H2093 H 0.23361 0.41701 0.9784 0.0
H2094 H 0.24747 0.44674 0.99041 0.0
H2095 H 0.23415 0.46179 0.97502 0.0
H2096 H 0.18616 0.50055 0.98637 0.0
H2097 H 0.20412 0.48557 1.00129 0.0
H2098 H 0.15917 0.48101 0.99814 0.0
H2099 H 0.12087 0.35688 0.99549 0.0
H2100 H 0.15718 0.33188 1.0122 0.0
H2101 H 0.22746 0.41608 1.00867 0.0
C2102 C 0.16733 0.45109 0.96455 0.0
C2103 C 0.14418 0.43828 0.95555 0.0
C2104 C 0.11941 0.41428 0.95933 0.0
C2105 C 0.1193 0.40142 0.97189 0.0
C2106 C 0.14329 0.41394 0.98056 0.0
C2107 C 0.16635 0.43884 0.97708 0.0
C2108 C 0.19192 0.44549 0.98755 0.0
C2109 C 0.22893 0.44256 0.98254 0.0
C2110 C 0.18503 0.48021 0.99371 0.0
C2111 C 0.18286 0.41725 0.99671 0.0
C2112 C 0.15366 0.40036 0.99286 0.0
C2113 C 0.14306 0.37053 0.99883 0.0
C2114 C 0.16384 0.35657 1.00838 0.0
C2115 C 0.19514 0.3722 1.0117 0.0
C2116 C 0.20351 0.40391 1.00636 0.0
H2117 H 0.45065 0.37313 0.70684 0.0
H2118 H 0.34675 0.40903 0.71052 0.0
H2119 H 0.35486 0.41738 0.73367 0.0
H2120 H 0.45833 0.33532 0.74144 0.0
H2121 H 0.50162 0.3504 0.74244 0.0
H2122 H 0.48493 0.33607 0.72731 0.0
H2123 H 0.50125 0.39348 0.71694 0.0
H2124 H 0.51808 0.40777 0.7319 0.0
H2125 H 0.48553 0.43229 0.72395 0.0
H2126 H 0.37832 0.43828 0.75378 0.0
H2127 H 0.41505 0.46734 0.76954 0.0
H2128 H 0.50345 0.41577 0.75397 0.0
C2129 C 0.42922 0.38078 0.71276 0.0
C2130 C 0.39794 0.3897 0.70714 0.0
C2131 C 0.37067 0.4014 0.71483 0.0
C2132 C 0.37504 0.40609 0.72799 0.0
C2133 C 0.40682 0.3988 0.73327 0.0
C2134 C 0.43336 0.38573 0.72595 0.0
C2135 C 0.46655 0.38602 0.73332 0.0
C2136 C 0.47853 0.34977 0.7363 0.0
C2137 C 0.49443 0.4061 0.7261 0.0
C2138 C 0.45515 0.40401 0.74541 0.0
C2139 C 0.42043 0.41042 0.74536 0.0
C2140 C 0.40522 0.43217 0.75427 0.0
C2141 C 0.42615 0.44864 0.76317 0.0
C2142 C 0.46169 0.44287 0.76311 0.0
C2143 C 0.47605 0.41928 0.7545 0.0
H2144 H 0.0537 0.20097 0.4228 0.0
H2145 H 0.14725 0.23831 0.40573 0.0
H2146 H 0.12179 0.2953 0.4039 0.0
H2147 H 0.99375 0.26103 0.40313 0.0
H2148 H 0.96518 0.26313 0.41668 0.0
H2149 H 0.99123 0.22609 0.414 0.0
H2150 H 1.01342 0.23572 0.43798 0.0
H2151 H 0.98843 0.27412 0.43896 0.0
H2152 H 1.03386 0.27543 0.44156 0.0
H2153 H 0.0841 0.35291 0.40384 0.0
H2154 H 1.04198 0.3995 0.40651 0.0
H2155 H 0.97278 0.32921 0.42497 0.0
C2156 C 0.06871 0.22073 0.41831 0.0
C2157 C 0.10323 0.21304 0.41403 0.0
C2158 C 0.12106 0.24157 0.40883 0.0
C2159 C 0.10656 0.27485 0.4078 0.0
C2160 C 0.07318 0.28151 0.41213 0.0
C2161 C 0.05434 0.25498 0.41724 0.0
C2162 C 1.0192 0.2696 0.42148 0.0
C2163 C 0.9906 0.25402 0.41339 0.0
C2164 C 1.01333 0.26333 0.43585 0.0
C2165 C 1.02164 0.30811 0.41852 0.0
C2166 C 0.05278 0.31433 0.41276 0.0
C2167 C 0.05994 0.34764 0.40848 0.0
C2168 C 1.03548 0.37459 0.41009 0.0
C2169 C 1.00324 0.36977 0.41621 0.0
C2170 C 0.99686 0.33519 0.4204 0.0
H2171 H 1.01235 0.72073 0.67444 0.0
H2172 H 0.93852 0.79247 0.65972 0.0
H2173 H 0.98461 0.83529 0.65747 0.0
H2174 H 0.06622 0.77909 0.69216 0.0
H2175 H 0.10636 0.76027 0.68762 0.0
H2176 H 0.06827 0.73463 0.68825 0.0
H2177 H 0.07825 0.71612 0.66529 0.0
H2178 H 0.11512 0.74278 0.66306 0.0
H2179 H 0.07937 0.74711 0.65258 0.0
H2180 H 1.04142 0.87342 0.65786 0.0
H2181 H 0.09839 0.89934 0.65944 0.0
H2182 H 0.13991 0.8037 0.6727 0.0
C2183 C 1.00551 0.74549 0.67077 0.0
C2184 C 0.97018 0.75228 0.66738 0.0
C2185 C 0.96416 0.78551 0.66249 0.0
C2186 C 0.99074 0.81041 0.6612 0.0
C2187 C 1.02477 0.80286 0.66468 0.0
C2188 C 1.0322 0.77084 0.66926 0.0
C2189 C 0.07129 0.76864 0.67167 0.0
C2190 C 0.07847 0.76009 0.68576 0.0
C2191 C 0.08694 0.74203 0.66265 0.0
C2192 C 0.08485 0.8046 0.66829 0.0
C2193 C 0.05725 0.82382 0.66423 0.0
C2194 C 0.06273 0.85794 0.66092 0.0
C2195 C 0.09597 0.87272 0.66183 0.0
C2196 C 0.12563 0.85451 0.66591 0.0
C2197 C 0.11917 0.81921 0.66916 0.0
H2198 H 0.5425 0.87715 0.92847 0.0
H2199 H 0.46667 0.84978 0.90033 0.0
H2200 H 0.49451 0.79376 0.89769 0.0
H2201 H 0.61584 0.83237 0.91306 0.0
H2202 H 0.63432 0.81845 0.92797 0.0
H2203 H 0.60932 0.85684 0.92744 0.0
H2204 H 0.57016 0.83383 0.94525 0.0
H2205 H 0.59492 0.79528 0.94588 0.0
H2206 H 0.54954 0.79338 0.94321 0.0
H2207 H 0.53163 0.73586 0.8986 0.0
H2208 H 0.57209 0.6884 0.9024 0.0
H2209 H 0.62566 0.75043 0.92993 0.0
C2210 C 0.53206 0.85981 0.92149 0.0
C2211 C 0.50203 0.86984 0.9143 0.0
C2212 C 0.48957 0.84453 0.90577 0.0
C2213 C 0.50541 0.81192 0.90426 0.0
C2214 C 0.53455 0.80298 0.91141 0.0
C2215 C 0.54788 0.82653 0.91985 0.0
C2216 C 0.5792 0.81019 0.92656 0.0
C2217 C 0.6116 0.83068 0.92358 0.0
C2218 C 0.57309 0.80806 0.94109 0.0
C2219 C 0.58154 0.77409 0.92065 0.0
C2220 C 0.55534 0.77041 0.91193 0.0
C2221 C 0.55208 0.73917 0.90542 0.0
C2222 C 0.57552 0.7117 0.90769 0.0
C2223 C 0.6031 0.71409 0.91652 0.0
C2224 C 0.60547 0.74654 0.92305 0.0
H2225 H 0.51156 0.20911 0.1735 0.0
H2226 H 0.43714 0.28052 0.15893 0.0
H2227 H 0.48301 0.32351 0.15654 0.0
H2228 H 0.56312 0.26893 0.1912 0.0
H2229 H 0.60377 0.25056 0.1871 0.0
H2230 H 0.56629 0.22422 0.18767 0.0
H2231 H 0.57719 0.20475 0.16467 0.0
H2232 H 0.61526 0.23028 0.16394 0.0
H2233 H 0.5824 0.23575 0.1521 0.0
H2234 H 0.54004 0.36164 0.15644 0.0
H2235 H 0.59696 0.38787 0.15822 0.0
H2236 H 0.63812 0.29288 0.17219 0.0
C2237 C 0.50462 0.23373 0.16971 0.0
C2238 C 0.46922 0.2404 0.16643 0.0
C2239 C 0.46291 0.27359 0.16155 0.0
C2240 C 0.48938 0.29857 0.16015 0.0
C2241 C 0.52356 0.29106 0.16346 0.0
C2242 C 0.53119 0.25908 0.16806 0.0
C2243 C 0.57008 0.25737 0.17086 0.0
C2244 C 0.57609 0.24976 0.18507 0.0
C2245 C 0.58724 0.2304 0.1624 0.0
C2246 C 0.58341 0.29328 0.16737 0.0
C2247 C 0.55588 0.31225 0.16309 0.0
C2248 C 0.56131 0.34633 0.15966 0.0
C2249 C 0.59448 0.36128 0.16066 0.0
C2250 C 0.62397 0.3432 0.16494 0.0
C2251 C 0.61751 0.30808 0.16837 0.0
H2252 H 1.03639 0.69979 0.26573 0.0
H2253 H 0.9533 0.73167 0.29035 0.0
H2254 H 0.98061 0.78768 0.29291 0.0
H2255 H 0.10578 0.74802 0.28302 0.0
H2256 H 0.12793 0.75812 0.26832 0.0
H2257 H 0.1025 0.7202 0.26944 0.0
H2258 H 0.06854 0.73977 0.24955 0.0
H2259 H 0.09402 0.77778 0.24873 0.0
H2260 H 1.04814 0.78076 0.24964 0.0
H2261 H 1.0186 0.8449 0.29252 0.0
H2262 H 0.06017 0.89156 0.2892 0.0
H2263 H 0.1195 0.82606 0.26442 0.0
C2264 C 1.02428 0.71804 0.27202 0.0
C2265 C 0.9923 0.70924 0.27823 0.0
C2266 C 0.97769 0.73588 0.28572 0.0
C2267 C 0.99324 0.76852 0.28718 0.0
C2268 C 1.02429 0.77625 0.28101 0.0
C2269 C 1.03976 0.75145 0.27358 0.0
C2270 C 0.07272 0.7668 0.26769 0.0
C2271 C 0.10414 0.74713 0.27239 0.0
C2272 C 0.07076 0.76627 0.25302 0.0
C2273 C 0.07335 0.80379 0.27276 0.0
C2274 C 1.04514 0.80869 0.28053 0.0
C2275 C 1.04051 0.84069 0.28638 0.0
C2276 C 0.06457 0.86771 0.28438 0.0
C2277 C 0.09396 0.86418 0.2764 0.0
C2278 C 0.09777 0.83093 0.27057 0.0
H2279 H 0.50985 0.86651 0.51523 0.0
H2280 H 0.44191 0.80199 0.53702 0.0
H2281 H 0.48912 0.76053 0.53987 0.0
H2282 H 0.56058 0.80072 0.49922 0.0
H2283 H 0.6007 0.82259 0.50084 0.0
H2284 H 0.56141 0.84636 0.50014 0.0
H2285 H 0.57656 0.8752 0.52132 0.0
H2286 H 0.61526 0.85084 0.52279 0.0
H2287 H 0.58411 0.84983 0.53543 0.0
H2288 H 0.54699 0.72347 0.54004 0.0
H2289 H 0.60416 0.69762 0.53792 0.0
H2290 H 0.63897 0.78581 0.5169 0.0
C2291 C 0.50455 0.84359 0.52059 0.0
C2292 C 0.47041 0.83822 0.52569 0.0
C2293 C 0.46641 0.80749 0.53273 0.0
C2294 C 0.49374 0.78351 0.53446 0.0
C2295 C 0.5266 0.78967 0.52931 0.0
C2296 C 0.53205 0.8193 0.52254 0.0
C2297 C 0.57021 0.82055 0.51844 0.0
C2298 C 0.57341 0.8227 0.50379 0.0
C2299 C 0.58756 0.85094 0.52486 0.0
C2300 C 0.58547 0.78669 0.52352 0.0
C2301 C 0.55961 0.76941 0.52984 0.0
C2302 C 0.56695 0.73744 0.53517 0.0
C2303 C 0.60028 0.72275 0.53397 0.0
C2304 C 0.62811 0.73906 0.52759 0.0
C2305 C 0.61974 0.77213 0.52227 0.0
H2306 H 0.61857 0.34455 0.76156 0.0
H2307 H 0.56872 0.40043 0.792 0.0
H2308 H 0.52917 0.35214 0.79535 0.0
H2309 H 0.53988 0.30449 0.74885 0.0
H2310 H 0.5607 0.26512 0.7449 0.0
H2311 H 0.58476 0.30405 0.74499 0.0
H2312 H 0.62716 0.27681 0.76093 0.0
H2313 H 0.60251 0.23826 0.76092 0.0
H2314 H 0.61135 0.25951 0.77581 0.0
H2315 H 0.49351 0.29341 0.79586 0.0
H2316 H 0.46566 0.23785 0.79233 0.0
H2317 H 0.53516 0.21813 0.76091 0.0
C2318 C 0.59932 0.34693 0.76896 0.0
C2319 C 0.5978 0.3779 0.77649 0.0
C2320 C 0.57143 0.37835 0.78594 0.0
C2321 C 0.54854 0.35037 0.78797 0.0
C2322 C 0.55097 0.32058 0.7805 0.0
C2323 C 0.5757 0.31894 0.77103 0.0
C2324 C 0.57234 0.28426 0.76407 0.0
C2325 C 0.56394 0.28982 0.74985 0.0
C2326 C 0.60532 0.26349 0.76552 0.0
C2327 C 0.54223 0.26643 0.77105 0.0
C2328 C 0.53047 0.28787 0.7806 0.0
C2329 C 0.50306 0.27697 0.78837 0.0
C2330 C 0.48725 0.24461 0.78635 0.0
C2331 C 0.49787 0.22162 0.77657 0.0
C2332 C 0.52615 0.23364 0.76877 0.0
H2333 H 0.09609 0.21396 1.01655 0.0
H2334 H 0.16235 0.27845 1.0388 0.0
H2335 H 0.11517 0.32023 1.04101 0.0
H2336 H 1.04798 0.28012 0.99969 0.0
H2337 H 1.00744 0.25877 1.00082 0.0
H2338 H 1.04647 0.23449 1.0007 0.0
H2339 H 1.02871 0.20599 1.02171 0.0
H2340 H 0.99018 0.23079 1.02266 0.0
H2341 H 1.01995 0.23149 1.03567 0.0
H2342 H 0.05709 0.35749 1.04065 0.0
H2343 H 1.00021 0.38359 1.03775 0.0
H2344 H 0.96783 0.29581 1.01618 0.0
C2345 C 0.10103 0.23692 1.02189 0.0
C2346 C 0.13468 0.24213 1.02734 0.0
C2347 C 0.13822 0.27301 1.03427 0.0
C2348 C 0.1109 0.29719 1.03564 0.0
C2349 C 0.0785 0.29119 1.03017 0.0
C2350 C 0.07357 0.26152 1.02341 0.0
C2351 C 1.03592 0.26056 1.01881 0.0
C2352 C 1.03437 0.25833 1.00413 0.0
C2353 C 1.01762 0.23038 1.02507 0.0
C2354 C 1.02038 0.29457 1.02361 0.0
C2355 C 1.04557 0.31169 1.03026 0.0
C2356 C 1.03767 0.34364 1.03551 0.0
C2357 C 1.00451 0.35847 1.03388 0.0
C2358 C 0.97744 0.34232 1.0271 0.0
C2359 C 0.98641 0.30934 1.02185 0.0
H2360 H 0.05673 0.71207 0.76542 0.0
H2361 H 0.14856 0.74705 0.78407 0.0
H2362 H 0.12286 0.8038 0.78662 0.0
H2363 H 1.03801 0.78836 0.74782 0.0
H2364 H 0.99238 0.78725 0.75006 0.0
H2365 H 1.01679 0.74848 0.75058 0.0
H2366 H 0.9931 0.73561 0.77374 0.0
H2367 H 0.96756 0.77337 0.7721 0.0
H2368 H 0.99553 0.76814 0.78565 0.0
H2369 H 0.08531 0.86142 0.78706 0.0
H2370 H 1.04334 0.90824 0.78481 0.0
H2371 H 0.97533 0.83998 0.76496 0.0
C2372 C 0.07126 0.73122 0.7704 0.0
C2373 C 0.10532 0.72298 0.77494 0.0
C2374 C 0.12265 0.75074 0.7808 0.0
C2375 C 0.10803 0.78387 0.78222 0.0
C2376 C 0.07505 0.79106 0.77766 0.0
C2377 C 0.05671 0.76522 0.77192 0.0
C2378 C 1.02181 0.7802 0.76766 0.0
C2379 C 1.01694 0.7758 0.75317 0.0
C2380 C 0.99273 0.76333 0.77521 0.0
C2381 C 1.02386 0.81826 0.77133 0.0
C2382 C 0.0546 0.82386 0.7774 0.0
C2383 C 0.06145 0.85666 0.7822 0.0
C2384 C 1.03707 0.88376 0.78082 0.0
C2385 C 1.00518 0.87955 0.77448 0.0
C2386 C 0.99912 0.84547 0.76975 0.0
H2387 H 1.01632 0.22265 0.51673 0.0
H2388 H 0.94272 0.29407 0.53195 0.0
H2389 H 0.98893 0.33672 0.53417 0.0
H2390 H 0.08458 0.24875 0.53831 0.0
H2391 H 0.11959 0.24415 0.52735 0.0
H2392 H 0.08228 0.21788 0.52562 0.0
H2393 H 0.0719 0.23696 0.50267 0.0
H2394 H 0.1101 0.2624 0.50316 0.0
H2395 H 0.06994 0.28154 0.49888 0.0
H2396 H 1.04561 0.37501 0.53348 0.0
H2397 H 0.10255 0.40107 0.53158 0.0
H2398 H 0.14385 0.3057 0.51799 0.0
C2399 C 1.00957 0.24731 0.52051 0.0
C2400 C 0.97425 0.25405 0.52405 0.0
C2401 C 0.96833 0.28714 0.52906 0.0
C2402 C 0.99497 0.31196 0.53032 0.0
C2403 C 1.02894 0.3045 0.52666 0.0
C2404 C 1.03631 0.27259 0.52197 0.0
C2405 C 0.07537 0.27051 0.51932 0.0
C2406 C 0.09142 0.24368 0.52814 0.0
C2407 C 0.08223 0.26232 0.50517 0.0
C2408 C 0.08891 0.30641 0.52271 0.0
C2409 C 0.06139 0.32552 0.52696 0.0
C2410 C 0.06688 0.35961 0.53029 0.0
C2411 C 0.10009 0.37447 0.5292 0.0
C2412 C 0.12966 0.35632 0.52496 0.0
C2413 C 0.12316 0.32109 0.52168 0.0
H2414 H 0.55138 0.21802 0.26592 0.0
H2415 H 0.6422 0.25166 0.28561 0.0
H2416 H 0.61705 0.30882 0.28788 0.0
H2417 H 0.53526 0.2953 0.24835 0.0
H2418 H 0.48944 0.29489 0.24999 0.0
H2419 H 0.5131 0.25567 0.25057 0.0
H2420 H 0.48703 0.2418 0.27292 0.0
H2421 H 0.46244 0.28032 0.27177 0.0
H2422 H 0.48945 0.27284 0.28545 0.0
H2423 H 0.58101 0.36708 0.28755 0.0
H2424 H 0.53992 0.41461 0.28493 0.0
H2425 H 0.47096 0.34685 0.26533 0.0
C2426 C 0.56573 0.23696 0.27109 0.0
C2427 C 0.59933 0.22828 0.27599 0.0
C2428 C 0.61658 0.25577 0.28206 0.0
C2429 C 0.60231 0.28909 0.28332 0.0
C2430 C 0.56978 0.29671 0.27841 0.0
C2431 C 0.55149 0.27111 0.2725 0.0
C2432 C 0.51706 0.28653 0.26792 0.0
C2433 C 0.5135 0.28287 0.25334 0.0
C2434 C 0.48719 0.26936 0.27492 0.0
C2435 C 0.51911 0.32448 0.27184 0.0
C2436 C 0.54975 0.32973 0.27802 0.0
C2437 C 0.5571 0.36255 0.28269 0.0
C2438 C 0.53326 0.39002 0.28113 0.0
C2439 C 0.50128 0.3861 0.27485 0.0
C2440 C 0.49474 0.35203 0.27017 0.0
H2441 H 0.59198 0.87947 1.01818 0.0
H2442 H 0.66616 0.80671 1.03171 0.0
H2443 H 0.62069 0.76308 1.03305 0.0
H2444 H 0.52473 0.851 1.03934 0.0
H2445 H 0.48919 0.8558 1.02876 0.0
H2446 H 0.52596 0.88281 1.02692 0.0
H2447 H 0.53625 0.86582 1.00382 0.0
H2448 H 0.49862 0.8394 1.00408 0.0
H2449 H 0.53921 0.82167 0.99953 0.0
H2450 H 0.56411 0.72478 1.03221 0.0
H2451 H 0.50717 0.69886 1.03051 0.0
H2452 H 0.46483 0.79575 1.01903 0.0
C2453 C 0.59898 0.85435 1.02143 0.0
C2454 C 0.63436 0.84737 1.02468 0.0
C2455 C 0.64058 0.81364 1.02897 0.0
C2456 C 0.61429 0.78837 1.02979 0.0
C2457 C 0.58018 0.79614 1.02653 0.0
C2458 C 0.57249 0.82865 1.02252 0.0
C2459 C 0.53341 0.83077 1.02009 0.0
C2460 C 0.51736 0.8567 1.02929 0.0
C2461 C 0.52645 0.84005 1.00605 0.0
C2462 C 0.52007 0.79451 1.02307 0.0
C2463 C 0.54786 0.77497 1.02671 0.0
C2464 C 0.54264 0.74049 1.02949 0.0
C2465 C 0.50943 0.72571 1.0285 0.0
C2466 C 0.47957 0.74429 1.0249 0.0
C2467 C 0.48578 0.77992 1.02218 0.0
H2468 H 0.1274 0.3412 0.92081 0.0
H2469 H 0.05635 0.41374 0.90477 0.0
H2470 H 1.01338 0.36786 0.90263 0.0
H2471 H 0.10414 0.27062 0.9006 0.0
H2472 H 0.10701 0.23777 0.91244 0.0
H2473 H 0.13292 0.27525 0.91391 0.0
H2474 H 0.11012 0.2871 0.93608 0.0
H2475 H 0.08121 0.25137 0.93595 0.0
H2476 H 0.06504 0.29331 0.93868 0.0
H2477 H 0.97527 0.31089 0.90291 0.0
H2478 H 0.94913 0.25451 0.9052 0.0
H2479 H 1.04387 0.21483 0.92024 0.0
C2480 C 0.10286 0.34774 0.91677 0.0
C2481 C 0.09634 0.38259 0.91295 0.0
C2482 C 0.06317 0.3884 0.90781 0.0
C2483 C 1.03821 0.36191 0.90655 0.0
C2484 C 1.04562 0.32825 0.91035 0.0
C2485 C 0.07742 0.3212 0.91536 0.0
C2486 C 0.07897 0.28287 0.91876 0.0
C2487 C 0.10748 0.26559 0.911 0.0
C2488 C 0.08429 0.27839 0.93322 0.0
C2489 C 1.04347 0.26896 0.91485 0.0
C2490 C 1.02457 0.29592 0.91011 0.0
C2491 C 0.99061 0.29006 0.90646 0.0
C2492 C 0.97571 0.25708 0.90772 0.0
C2493 C 0.99371 0.22805 0.91242 0.0
C2494 C 1.02875 0.23497 0.91607 0.0
H2495 H 0.51356 0.3742 0.67353 0.0
H2496 H 0.44214 0.30596 0.65541 0.0
H2497 H 0.48856 0.26343 0.65299 0.0
H2498 H 0.58744 0.35187 0.65335 0.0
H2499 H 0.61861 0.35434 0.66593 0.0
H2500 H 0.58052 0.38004 0.66671 0.0
H2501 H 0.56517 0.35545 0.68878 0.0
H2502 H 0.60384 0.33063 0.68843 0.0
H2503 H 0.56325 0.31012 0.69092 0.0
H2504 H 0.54573 0.22566 0.65289 0.0
H2505 H 0.60248 0.19915 0.65506 0.0
H2506 H 0.6406 0.29052 0.67284 0.0
C2507 C 0.5074 0.35034 0.66899 0.0
C2508 C 0.47271 0.34446 0.66466 0.0
C2509 C 0.46736 0.31226 0.65884 0.0
C2510 C 0.49415 0.28757 0.65742 0.0
C2511 C 0.52763 0.29433 0.66173 0.0
C2512 C 0.53429 0.32523 0.6674 0.0
C2513 C 0.57265 0.32628 0.67115 0.0
C2514 C 0.59086 0.35488 0.66386 0.0
C2515 C 0.57645 0.3309 0.68568 0.0
C2516 C 0.58673 0.29122 0.66689 0.0
C2517 C 0.56008 0.27328 0.66145 0.0
C2518 C 0.56633 0.24016 0.65704 0.0
C2519 C 0.59942 0.22507 0.65825 0.0
C2520 C 0.62804 0.24213 0.6637 0.0
C2521 C 0.62074 0.27627 0.66812 0.0
H2522 H 0.62338 0.84795 0.4264 0.0
H2523 H 0.56657 0.91089 0.39996 0.0
H2524 H 0.52628 0.86333 0.39641 0.0
H2525 H 0.61294 0.76667 0.40979 0.0
H2526 H 0.60741 0.74193 0.42418 0.0
H2527 H 0.632 0.78049 0.42458 0.0
H2528 H 0.59346 0.80335 0.44271 0.0
H2529 H 0.56896 0.76472 0.44235 0.0
H2530 H 0.54791 0.80508 0.44042 0.0
H2531 H 0.49045 0.80496 0.39532 0.0
H2532 H 0.46316 0.74883 0.3981 0.0
H2533 H 0.54028 0.72144 0.42582 0.0
C2534 C 0.6025 0.852 0.41981 0.0
C2535 C 0.59923 0.88466 0.41346 0.0
C2536 C 0.57071 0.88736 0.40507 0.0
C2537 C 0.54739 0.85985 0.40294 0.0
C2538 C 0.55161 0.82834 0.40923 0.0
C2539 C 0.57849 0.8245 0.41766 0.0
C2540 C 0.57669 0.7883 0.42355 0.0
C2541 C 0.60921 0.76817 0.42033 0.0
C2542 C 0.57146 0.79049 0.43813 0.0
C2543 C 0.54513 0.772 0.41707 0.0
C2544 C 0.53114 0.79567 0.40878 0.0
C2545 C 0.50182 0.78671 0.40179 0.0
C2546 C 0.48638 0.754 0.40334 0.0
C2547 C 0.49937 0.72862 0.41179 0.0
C2548 C 0.52957 0.7387 0.41883 0.0
H2549 H 0.969 0.81795 0.17843 0.0
H2550 H 0.99006 0.89185 0.14879 0.0
H2551 H 1.04695 0.86607 0.14536 0.0
H2552 H 0.05199 0.81073 0.19184 0.0
H2553 H 0.05254 0.76535 0.19393 0.0
H2554 H 1.01249 0.78791 0.19381 0.0
H2555 H 0.99032 0.75123 0.17464 0.0
H2556 H 1.02917 0.72718 0.17616 0.0
H2557 H 1.01731 0.74542 0.16095 0.0
H2558 H 0.10715 0.83073 0.14561 0.0
H2559 H 0.15582 0.79094 0.14871 0.0
H2560 H 0.09717 0.7377 0.17757 0.0
C2561 C 0.98503 0.82833 0.17093 0.0
C2562 C 0.97301 0.8575 0.16373 0.0
C2563 C 0.99679 0.86981 0.15442 0.0
C2564 C 1.02994 0.85508 0.15242 0.0
C2565 C 1.04086 0.82689 0.15966 0.0
C2566 C 1.01852 0.81321 0.16859 0.0
C2567 C 1.03625 0.78221 0.17491 0.0
C2568 C 1.03844 0.78681 0.18949 0.0
C2569 C 1.01716 0.74953 0.17149 0.0
C2570 C 0.0722 0.78142 0.16871 0.0
C2571 C 0.07434 0.80721 0.15977 0.0
C2572 C 0.10495 0.81065 0.15264 0.0
C2573 C 0.13312 0.78765 0.15451 0.0
C2574 C 0.13194 0.76037 0.16348 0.0
C2575 C 0.10023 0.75788 0.17062 0.0
H2576 H 0.311 0.25603 0.37025 0.0
H2577 H 0.22359 0.30999 0.38577 0.0
H2578 H 0.23449 0.35735 0.37074 0.0
H2579 H 0.36513 0.33131 0.36434 0.0
H2580 H 0.38216 0.31365 0.34974 0.0
H2581 H 0.36958 0.28602 0.36268 0.0
H2582 H 0.32953 0.25354 0.34727 0.0
H2583 H 0.34179 0.28113 0.33432 0.0
H2584 H 0.29736 0.27664 0.33853 0.0
H2585 H 0.25179 0.39596 0.35266 0.0
H2586 H 0.27467 0.42325 0.33308 0.0
H2587 H 0.35064 0.34353 0.32974 0.0
C2588 C 0.29475 0.27824 0.37076 0.0
C2589 C 0.2666 0.27951 0.3792 0.0
C2590 C 0.24523 0.30853 0.37931 0.0
C2591 C 0.25135 0.33558 0.37089 0.0
C2592 C 0.27901 0.33319 0.36251 0.0
C2593 C 0.30048 0.30534 0.36245 0.0
C2594 C 0.32691 0.30774 0.35191 0.0
C2595 C 0.36309 0.30982 0.35751 0.0
C2596 C 0.32367 0.27801 0.34245 0.0
C2597 C 0.31644 0.3409 0.34583 0.0
C2598 C 0.28897 0.35539 0.35213 0.0
C2599 C 0.27358 0.3851 0.34775 0.0
C2600 C 0.28656 0.40025 0.3366 0.0
C2601 C 0.3145 0.38554 0.32998 0.0
C2602 C 0.32973 0.35571 0.33477 0.0
H2603 H 1.04524 0.11156 0.56785 0.0
H2604 H 0.07671 1.03881 0.53901 0.0
H2605 H 0.1209 1.01676 0.55373 0.0
H2606 H 0.13179 0.12615 0.58224 0.0
H2607 H 0.11368 0.12892 0.5981 0.0
H2608 H 0.08935 0.14294 0.58445 0.0
H2609 H 1.04015 0.1026 0.59105 0.0
H2610 H 0.06432 0.08824 0.6046 0.0
H2611 H 1.04886 0.058 0.59308 0.0
H2612 H 0.15551 0.99756 0.57263 0.0
H2613 H 0.17772 0.98293 0.59409 0.0
H2614 H 0.12218 0.06796 0.61034 0.0
C2615 C 0.06235 0.09194 0.56443 0.0
C2616 C 0.05788 0.07709 0.55228 0.0
C2617 C 0.07984 0.05052 0.54831 0.0
C2618 C 0.1051 1.03802 0.55656 0.0
C2619 C 0.10809 0.05257 0.56867 0.0
C2620 C 0.08746 0.07916 0.57254 0.0
C2621 C 0.09286 0.08778 0.58647 0.0
C2622 C 0.10782 0.12357 0.58789 0.0
C2623 C 0.05958 0.08389 0.59425 0.0
C2624 C 0.1187 0.06096 0.59002 0.0
C2625 C 0.12768 1.04124 0.57959 0.0
C2626 C 0.14912 1.01319 0.58081 0.0
C2627 C 0.16134 1.00489 0.59304 0.0
C2628 C 0.15177 1.02442 0.60385 0.0
C2629 C 0.13065 0.05307 0.60222 0.0
H2630 H 0.2836 0.85598 0.86494 0.0
H2631 H 0.35876 0.92203 0.84732 0.0
H2632 H 0.34371 0.89937 0.826 0.0
H2633 H 0.30117 0.78609 0.84684 0.0
H2634 H 0.2578 0.77129 0.84565 0.0
H2635 H 0.27042 0.79659 0.85911 0.0
H2636 H 0.22243 0.83992 0.85406 0.0
H2637 H 0.20951 0.81459 0.84056 0.0
H2638 H 0.22006 0.85867 0.83832 0.0
H2639 H 0.32552 0.86444 0.80714 0.0
H2640 H 0.30581 0.81988 0.79226 0.0
H2641 H 0.24323 0.77691 0.82256 0.0
C2642 C 0.29606 0.8665 0.85655 0.0
C2643 C 0.32214 0.89083 0.85772 0.0
C2644 C 0.33874 0.90324 0.84659 0.0
C2645 C 0.33018 0.89074 0.83446 0.0
C2646 C 0.30487 0.86607 0.83367 0.0
C2647 C 0.28791 0.85426 0.84443 0.0
C2648 C 0.26426 0.82532 0.84122 0.0
C2649 C 0.27402 0.79293 0.84864 0.0
C2650 C 0.22684 0.83523 0.84368 0.0
C2651 C 0.2715 0.8218 0.82707 0.0
C2652 C 0.29456 0.84583 0.82282 0.0
C2653 C 0.30702 0.84585 0.8103 0.0
C2654 C 0.29591 0.82034 0.80196 0.0
C2655 C 0.27283 0.79513 0.80625 0.0
C2656 C 0.26016 0.79636 0.8189 0.0
H2657 H 0.54703 0.10891 0.12437 0.0
H2658 H 0.57354 1.02686 0.15023 0.0
H2659 H 0.6188 1.00839 0.13522 0.0
H2660 H 0.55188 0.06434 0.09717 0.0
H2661 H 0.56981 0.09718 1.08719 0.0
H2662 H 0.54486 0.10838 0.10101 0.0
H2663 H 0.59495 0.1441 0.10985 0.0
H2664 H 0.62007 0.13336 1.09592 0.0
H2665 H 0.63641 0.12487 0.11173 0.0
H2666 H 0.65349 0.99321 0.11595 0.0
H2667 H 0.67482 0.98266 1.09407 0.0
H2668 H 0.62709 0.07585 1.0811 0.0
C2669 C 0.56331 0.08795 0.12715 0.0
C2670 C 0.55697 0.06943 0.13848 0.0
C2671 C 0.57797 1.04132 0.14156 0.0
C2672 C 0.60389 1.03085 0.13315 0.0
C2673 C 0.60866 0.049 0.12182 0.0
C2674 C 0.58919 0.07723 0.11888 0.0
C2675 C 0.59639 0.08986 0.10546 0.0
C2676 C 0.56381 0.08991 0.09723 0.0
C2677 C 0.61295 0.12514 0.10576 0.0
C2678 C 0.62149 0.0632 0.10103 0.0
C2679 C 0.62884 1.04026 0.11067 0.0
C2680 C 0.6487 1.01152 0.10843 0.0
C2681 C 0.6608 1.00577 0.09597 0.0
C2682 C 0.65279 1.02855 1.08591 0.0
C2683 C 0.63364 0.05802 1.0886 0.0
H2684 H 0.26657 0.72196 0.36444 0.0
H2685 H 0.35292 0.66527 0.34961 0.0
H2686 H 0.33772 0.68255 0.32759 0.0
H2687 H 0.208 0.7091 0.33582 0.0
H2688 H 0.19182 0.75174 0.33731 0.0
H2689 H 0.20462 0.72851 0.3514 0.0
H2690 H 0.24572 0.7773 0.35749 0.0
H2691 H 0.23326 0.80047 0.34345 0.0
H2692 H 0.27766 0.79082 0.3461 0.0
H2693 H 0.31988 0.71416 0.30807 0.0
H2694 H 0.30089 0.75778 0.29261 0.0
H2695 H 0.22658 0.79414 0.32027 0.0
C2696 C 0.28135 0.71205 0.35649 0.0
C2697 C 0.31069 0.69218 0.35864 0.0
C2698 C 0.33029 0.68057 0.3481 0.0
C2699 C 0.3217 0.69002 0.33557 0.0
C2700 C 0.29331 0.71082 0.33379 0.0
C2701 C 0.27322 0.72144 0.34396 0.0
C2702 C 0.2471 0.7474 0.33975 0.0
C2703 C 0.21073 0.73333 0.34115 0.0
C2704 C 0.25122 0.78096 0.34713 0.0
C2705 C 0.25694 0.75123 0.32581 0.0
C2706 C 0.28309 0.72935 0.32246 0.0
C2707 C 0.29887 0.73085 0.31048 0.0
C2708 C 0.28813 0.75584 0.3018 0.0
C2709 C 0.26211 0.77911 0.30523 0.0
C2710 C 0.24582 0.77606 0.31725 0.0
H2711 H 0.57594 0.10509 0.61584 0.0
H2712 H 0.54058 1.03546 0.64521 0.0
H2713 H 0.49667 1.01381 0.63034 0.0
H2714 H 0.49111 0.12208 0.6008 0.0
H2715 H 0.50984 0.12318 0.58501 0.0
H2716 H 0.53426 0.13687 0.59865 0.0
H2717 H 0.58199 0.09402 0.59268 0.0
H2718 H 0.55771 0.08001 0.57913 0.0
H2719 H 0.57152 0.04976 0.591 0.0
H2720 H 0.46211 0.99506 0.61148 0.0
H2721 H 0.43958 0.98054 0.5901 0.0
H2722 H 0.4987 0.06233 0.57329 0.0
C2723 C 0.55812 0.0862 0.61932 0.0
C2724 C 0.56129 0.07216 0.63168 0.0
C2725 C 0.53842 1.04652 0.63574 0.0
C2726 C 0.51333 1.03428 0.62741 0.0
C2727 C 0.51148 1.04814 0.61514 0.0
C2728 C 0.53315 0.07371 0.61115 0.0
C2729 C 0.52857 0.08181 0.59711 0.0
C2730 C 0.51513 0.11814 0.59529 0.0
C2731 C 0.56192 0.07603 0.58955 0.0
C2732 C 0.50181 0.05595 0.59369 0.0
C2733 C 0.49185 1.03709 0.60424 0.0
C2734 C 0.46929 1.01 0.6032 0.0
C2735 C 0.45689 1.00177 0.59102 0.0
C2736 C 0.46739 1.02043 0.58009 0.0
C2737 C 0.48966 1.04815 0.58152 0.0
H2738 H 0.26774 0.23113 0.82772 0.0
H2739 H 0.36077 0.18343 0.84126 0.0
H2740 H 0.35029 0.20667 0.86285 0.0
H2741 H 0.27977 0.30653 0.84282 0.0
H2742 H 0.23554 0.31432 0.84665 0.0
H2743 H 0.24652 0.28837 0.83312 0.0
H2744 H 0.20994 0.23927 0.84236 0.0
H2745 H 0.19879 0.26521 0.85596 0.0
H2746 H 0.21792 0.2241 0.85838 0.0
H2747 H 0.33492 0.24264 0.88178 0.0
H2748 H 0.31539 0.28785 0.8965 0.0
H2749 H 0.23336 0.31265 0.87029 0.0
C2750 C 0.28552 0.225 0.8353 0.0
C2751 C 0.31496 0.20542 0.83284 0.0
C2752 C 0.33771 0.19793 0.84299 0.0
C2753 C 0.33201 0.21106 0.85528 0.0
C2754 C 0.30328 0.23127 0.85727 0.0
C2755 C 0.28024 0.23792 0.84758 0.0
C2756 C 0.2535 0.26332 0.85174 0.0
C2757 C 0.2539 0.29499 0.84307 0.0
C2758 C 0.21793 0.24698 0.85214 0.0
C2759 C 0.26607 0.27122 0.86507 0.0
C2760 C 0.29443 0.25207 0.8682 0.0
C2761 C 0.31231 0.25728 0.87955 0.0
C2762 C 0.30122 0.28312 0.8878 0.0
C2763 C 0.27269 0.30348 0.88458 0.0
C2764 C 0.25461 0.29685 0.87319 0.0
H2765 H 0.11997 1.02049 1.07871 0.0
H2766 H 0.18359 0.09978 1.09452 0.0
H2767 H 0.16085 0.08746 0.11614 0.0
H2768 H 1.04908 1.03857 1.0959 0.0
H2769 H 1.03516 0.99548 0.0983 0.0
H2770 H 0.06109 1.00598 1.08465 0.0
H2771 H 0.1056 0.96062 1.09135 0.0
H2772 H 0.07959 0.94976 0.10504 0.0
H2773 H 0.12354 0.96178 0.10723 0.0
H2774 H 0.12453 0.0728 0.13516 0.0
H2775 H 0.07827 0.05614 0.15009 0.0
H2776 H 1.03927 0.9863 0.12166 0.0
C2777 C 0.13009 1.03435 1.0868 0.0
C2778 C 0.15356 0.06098 1.085 0.0
C2779 C 0.16542 0.07938 1.09573 0.0
C2780 C 0.15288 0.07237 0.10804 0.0
C2781 C 0.12882 1.04664 0.10943 0.0
C2782 C 0.11784 1.02767 0.0991 0.0
C2783 C 0.0891 1.00412 0.10283 0.0
C2784 C 0.05672 1.01152 1.09496 0.0
C2785 C 0.10013 0.96686 0.10154 0.0
C2786 C 0.08453 1.01393 0.11671 0.0
C2787 C 0.10799 1.03807 0.12043 0.0
C2788 C 0.10652 0.05334 0.13246 0.0
C2789 C 0.08007 1.04395 0.14083 0.0
C2790 C 0.05552 1.01969 0.13706 0.0
C2791 C 0.0583 1.00414 0.12494 0.0
H2792 H 0.75004 0.76715 0.86819 0.0
H2793 H 0.81746 0.80983 0.89679 0.0
H2794 H 0.8384 0.85151 0.88085 0.0
H2795 H 0.80687 0.77091 0.84293 0.0
H2796 H 0.77571 0.78154 0.8309 0.0
H2797 H 0.763 0.75817 0.84493 0.0
H2798 H 0.71715 0.80365 0.85012 0.0
H2799 H 0.72956 0.82714 0.83603 0.0
H2800 H 0.72954 0.8475 0.85148 0.0
H2801 H 0.85558 0.88456 0.86131 0.0
H2802 H 0.86774 0.90674 0.8396 0.0
H2803 H 0.78899 0.8417 0.82402 0.0
C2804 C 0.76843 0.78593 0.87122 0.0
C2805 C 0.78195 0.78558 0.88372 0.0
C2806 C 0.80686 0.80977 0.88722 0.0
C2807 C 0.81871 0.8336 0.87828 0.0
C2808 C 0.80524 0.83283 0.86594 0.0
C2809 C 0.78052 0.80972 0.86244 0.0
C2810 C 0.77216 0.81228 0.84835 0.0
C2811 C 0.77992 0.77874 0.84137 0.0
C2812 C 0.73489 0.82331 0.84638 0.0
C2813 C 0.79666 0.83989 0.84438 0.0
C2814 C 0.81529 0.85168 0.85468 0.0
C2815 C 0.84089 0.87583 0.8532 0.0
C2816 C 0.84777 0.88805 0.84085 0.0
C2817 C 0.82921 0.87591 0.83018 0.0
C2818 C 0.8031 0.85187 0.83204 0.0
H2819 H 0.77115 0.33053 0.37631 0.0
H2820 H 0.85336 0.26827 0.39118 0.0
H2821 H 0.84096 0.22465 0.37487 0.0
H2822 H 0.71371 0.25983 0.36564 0.0
H2823 H 0.70152 0.28325 0.35154 0.0
H2824 H 0.71178 0.30549 0.36609 0.0
H2825 H 0.75704 0.34071 0.35373 0.0
H2826 H 0.74728 0.31841 0.33922 0.0
H2827 H 0.79048 0.31902 0.34508 0.0
H2828 H 0.8263 0.19314 0.35478 0.0
H2829 H 0.80886 0.17508 0.33309 0.0
H2830 H 0.7384 0.25994 0.33115 0.0
C2831 C 0.78594 0.30729 0.37634 0.0
C2832 C 0.81314 0.30263 0.38495 0.0
C2833 C 0.83207 0.27203 0.38474 0.0
C2834 C 0.82526 0.2472 0.37551 0.0
C2835 C 0.79928 0.25338 0.36671 0.0
C2836 C 0.77963 0.28253 0.36718 0.0
C2837 C 0.75612 0.28527 0.3558 0.0
C2838 C 0.71856 0.28333 0.36002 0.0
C2839 C 0.76318 0.31776 0.348 0.0
C2840 C 0.7667 0.25392 0.34854 0.0
C2841 C 0.79116 0.23548 0.35506 0.0
C2842 C 0.80669 0.207 0.3497 0.0
C2843 C 0.79694 0.19719 0.33734 0.0
C2844 C 0.77219 0.21608 0.3305 0.0
C2845 C 0.75677 0.24454 0.33627 0.0
H2846 H 0.83246 0.37859 0.82855 0.0
H2847 H 0.75296 0.43845 0.84664 0.0
H2848 H 0.76945 0.41528 0.86774 0.0
H2849 H 0.81839 0.30779 0.84435 0.0
H2850 H 0.86207 0.29404 0.84596 0.0
H2851 H 0.85039 0.32164 0.83304 0.0
H2852 H 0.89572 0.36541 0.84021 0.0
H2853 H 0.90795 0.33763 0.85315 0.0
H2854 H 0.89544 0.38075 0.85647 0.0
H2855 H 0.78628 0.3768 0.88574 0.0
H2856 H 0.80292 0.32761 0.89907 0.0
H2857 H 0.87111 0.29359 0.86887 0.0
C2858 C 0.81964 0.38818 0.83701 0.0
C2859 C 0.79156 0.41037 0.83599 0.0
C2860 C 0.77449 0.4213 0.84724 0.0
C2861 C 0.78389 0.40851 0.85926 0.0
C2862 C 0.8107 0.38527 0.85985 0.0
C2863 C 0.8287 0.37566 0.84901 0.0
C2864 C 0.85299 0.34681 0.85179 0.0
C2865 C 0.84546 0.31577 0.84329 0.0
C2866 C 0.89024 0.35836 0.85032 0.0
C2867 C 0.8442 0.34012 0.86565 0.0
C2868 C 0.82041 0.36301 0.87026 0.0
C2869 C 0.80557 0.35928 0.88235 0.0
C2870 C 0.8149 0.33111 0.88979 0.0
C2871 C 0.83851 0.30695 0.88503 0.0
C2872 C 0.85384 0.31215 0.87295 0.0
H2873 H 0.81437 0.85365 0.36279 0.0
H2874 H 0.73289 0.91129 0.34495 0.0
H2875 H 0.74434 0.88217 0.3244 0.0
H2876 H 0.87198 0.85106 0.33444 0.0
H2877 H 0.88559 0.80848 0.33814 0.0
H2878 H 0.87365 0.837 0.35087 0.0
H2879 H 0.82942 0.79318 0.35912 0.0
H2880 H 0.84105 0.76468 0.34641 0.0
H2881 H 0.79719 0.77765 0.34834 0.0
H2882 H 0.76051 0.84197 0.30662 0.0
H2883 H 0.78087 0.79469 0.29298 0.0
H2884 H 0.85187 0.76479 0.32275 0.0
C2885 C 0.79964 0.86098 0.35447 0.0
C2886 C 0.77287 0.88477 0.35542 0.0
C2887 C 0.75342 0.8929 0.34441 0.0
C2888 C 0.75989 0.87672 0.3327 0.0
C2889 C 0.78607 0.85279 0.33218 0.0
C2890 C 0.80581 0.8452 0.34276 0.0
C2891 C 0.83054 0.81669 0.34004 0.0
C2892 C 0.86764 0.82906 0.34092 0.0
C2893 C 0.82414 0.78627 0.34901 0.0
C2894 C 0.82093 0.80865 0.3264 0.0
C2895 C 0.7955 0.8299 0.32195 0.0
C2896 C 0.78083 0.82555 0.30991 0.0
C2897 C 0.79235 0.79857 0.30229 0.0
C2898 C 0.81815 0.7764 0.30678 0.0
C2899 C 0.83278 0.78189 0.31892 0.0
H2900 H 0.57679 0.49089 0.11704 0.0
H2901 H 0.54756 0.55954 0.14762 0.0
H2902 H 0.50252 0.58384 0.13379 0.0
H2903 H 0.56875 0.54837 1.09223 0.0
H2904 H 0.55227 0.51851 1.08076 0.0
H2905 H 0.57921 0.50396 1.09355 0.0
H2906 H 0.53248 0.46147 0.10077 0.0
H2907 H 0.50537 0.47582 1.08794 0.0
H2908 H 0.49005 0.47675 0.10424 0.0
H2909 H 0.46437 0.60388 0.11593 0.0
H2910 H 0.43625 0.61812 1.09542 0.0
H2911 H 0.49132 0.53618 1.07681 0.0
C2912 C 0.56029 0.51036 0.12096 0.0
C2913 C 0.56545 0.52322 0.1334 0.0
C2914 C 0.54404 0.54946 0.13807 0.0
C2915 C 0.5183 0.56322 0.13034 0.0
C2916 C 0.51429 0.55031 0.11802 0.0
C2917 C 0.53461 0.52434 0.11339 0.0
C2918 C 0.52697 0.51666 0.09953 0.0
C2919 C 0.55868 0.52223 1.09102 0.0
C2920 C 0.51287 0.48053 0.09804 0.0
C2921 C 0.49979 0.54296 0.09695 0.0
C2922 C 0.4925 0.56191 0.10775 0.0
C2923 C 0.46957 0.58896 0.10745 0.0
C2924 C 0.45394 0.597 1.09576 0.0
C2925 C 0.46152 0.57812 1.08457 0.0
C2926 C 0.48443 0.55057 1.08527 0.0
H2927 H 1.00806 0.53242 0.61874 0.0
H2928 H 0.94528 0.61147 0.60194 0.0
H2929 H 0.96938 0.5984 0.58059 0.0
H2930 H 0.08056 0.54873 0.60123 0.0
H2931 H 0.09354 0.50512 0.59944 0.0
H2932 H 0.06804 0.51757 0.61299 0.0
H2933 H 1.02259 0.47259 0.60706 0.0
H2934 H 1.04808 0.45987 0.59347 0.0
H2935 H 1.00434 0.47275 0.59122 0.0
H2936 H 1.00503 0.58116 0.56171 0.0
H2937 H 1.04941 0.56061 0.54666 0.0
H2938 H 0.08784 0.49269 0.57602 0.0
C2939 C 0.99864 0.54629 0.61051 0.0
C2940 C 0.97483 0.57284 0.61193 0.0
C2941 C 0.96377 0.59115 0.60102 0.0
C2942 C 0.97706 0.58373 0.58886 0.0
C2943 C 1.00107 0.55779 0.58784 0.0
C2944 C 1.01157 0.5392 0.59836 0.0
C2945 C 1.03973 0.51463 0.59492 0.0
C2946 C 0.07238 0.52198 0.6026 0.0
C2947 C 1.02796 0.47777 0.59678 0.0
C2948 C 1.04423 0.52307 0.5809 0.0
C2949 C 1.02147 0.54773 0.57694 0.0
C2950 C 1.02259 0.56142 0.56463 0.0
C2951 C 1.04794 0.5498 0.5562 0.0
C2952 C 0.07172 0.5249 0.56019 0.0
C2953 C 0.06941 0.5111 0.57262 0.0
H2954 H 0.06832 0.61256 0.1195 0.0
H2955 H 1.0387 0.53759 0.14788 0.0
H2956 H 0.99652 0.51412 0.13273 0.0
H2957 H 0.98198 0.62457 0.10497 0.0
H2958 H 1.00007 0.62891 1.08915 0.0
H2959 H 1.02378 0.64286 0.10293 0.0
H2960 H 0.07445 0.60454 0.09607 0.0
H2961 H 1.05086 0.59016 1.08239 0.0
H2962 H 0.06742 0.55981 1.09372 0.0
H2963 H 0.96338 0.49455 0.11362 0.0
H2964 H 0.94173 0.48045 1.0921 0.0
H2965 H 0.99226 0.56939 1.07653 0.0
C2966 C 0.05209 0.59202 0.12271 0.0
C2967 C 0.05651 0.57704 0.13488 0.0
C2968 C 1.03567 0.54937 0.13857 0.0
C2969 C 1.01154 0.53605 0.13007 0.0
C2970 C 1.00849 0.55089 0.118 0.0
C2971 C 1.02801 0.57847 0.11438 0.0
C2972 C 1.02232 0.58776 0.10049 0.0
C2973 C 1.00606 0.62312 0.09932 0.0
C2974 C 0.05574 0.5854 1.09272 0.0
C2975 C 0.99752 0.5603 0.09672 0.0
C2976 C 0.98943 0.53958 0.10698 0.0
C2977 C 0.96894 0.51101 0.10557 0.0
C2978 C 0.9567 0.50327 1.09332 0.0
C2979 C 0.96524 0.52392 1.08266 0.0
C2980 C 0.9854 0.55308 1.08449 0.0
H2981 H 0.55263 0.48025 0.62576 0.0
H2982 H 0.58012 0.55715 0.65347 0.0
H2983 H 0.62548 0.57764 0.63885 0.0
H2984 H 0.64134 0.46574 0.6121 0.0
H2985 H 0.62404 0.46073 0.59624 0.0
H2986 H 0.59962 0.44741 0.61003 0.0
H2987 H 0.54931 0.48539 0.60263 0.0
H2988 H 0.57354 0.49909 0.58896 0.0
H2989 H 0.5565 0.53001 0.59997 0.0
H2990 H 0.66033 0.59566 0.61986 0.0
H2991 H 0.68149 0.60975 0.59817 0.0
H2992 H 0.62965 0.52152 0.583 0.0
C2993 C 0.56922 0.50036 0.62902 0.0
C2994 C 0.5632 0.51689 0.64078 0.0
C2995 C 0.58447 0.54411 0.64449 0.0
C2996 C 0.6104 0.55573 0.63629 0.0
C2997 C 0.61479 0.53965 0.62451 0.0
C2998 C 0.59495 0.51229 0.62095 0.0
C2999 C 0.60126 0.50238 0.60716 0.0
C3000 C 0.61754 0.46696 0.60634 0.0
C3001 C 0.5682 0.50438 0.59923 0.0
C3002 C 0.62632 0.52958 0.60329 0.0
C3003 C 0.63448 0.55038 0.61348 0.0
C3004 C 0.65466 0.57915 0.61188 0.0
C3005 C 0.66627 0.58714 0.59952 0.0
C3006 C 0.65727 0.56666 0.58892 0.0
C3007 C 0.6377 0.53716 0.59095 0.0
H3008 H 0.18246 1.00206 0.45149 0.0
H3009 H 0.25345 0.08247 0.44235 0.0
H3010 H 0.2931 0.06025 0.4589 0.0
H3011 H 0.1984 0.99603 0.48564 0.0
H3012 H 0.19639 0.95041 0.48645 0.0
H3013 H 0.17326 0.97291 0.47418 0.0
H3014 H 0.2036 0.93765 0.4567 0.0
H3015 H 0.22652 0.91478 0.46893 0.0
H3016 H 0.24958 0.93607 0.45631 0.0
H3017 H 0.32554 1.02898 0.4789 0.0
H3018 H 0.34776 0.99078 0.4959 0.0
H3019 H 0.26057 0.92521 0.49067 0.0
C3020 C 0.20655 1.01494 0.45277 0.0
C3021 C 0.214 1.04465 0.44505 0.0
C3022 C 0.24631 0.05982 0.44758 0.0
C3023 C 0.26924 1.04724 0.45723 0.0
C3024 C 0.26105 1.01822 0.46458 0.0
C3025 C 0.23057 1.00179 0.46216 0.0
C3026 C 0.22845 0.97001 0.47091 0.0
C3027 C 0.19726 0.97248 0.47982 0.0
C3028 C 0.22693 0.93771 0.46273 0.0
C3029 C 0.26196 0.97106 0.47875 0.0
C3030 C 0.28019 0.99956 0.47513 0.0
C3031 C 0.31109 1.00664 0.48152 0.0
C3032 C 0.32369 0.98457 0.49143 0.0
C3033 C 0.30662 0.95419 0.49518 0.0
C3034 C 0.27501 0.94783 0.48842 0.0
H3035 H 0.41449 1.01008 0.74205 0.0
H3036 H 0.34999 0.09836 0.74674 0.0
H3037 H 0.31167 0.07652 0.72975 0.0
H3038 H 0.4043 0.9979 0.7078 0.0
H3039 H 0.4019 0.95229 0.70846 0.0
H3040 H 0.42482 0.97512 0.72064 0.0
H3041 H 0.38799 0.94696 0.7382 0.0
H3042 H 0.3652 0.92377 0.72608 0.0
H3043 H 0.34214 0.94992 0.73732 0.0
H3044 H 0.28057 1.04452 0.70962 0.0
H3045 H 0.2576 1.00487 0.69334 0.0
H3046 H 0.33642 0.93249 0.70316 0.0
C3047 C 0.39206 1.02483 0.7397 0.0
C3048 C 0.38611 0.05667 0.7463 0.0
C3049 C 0.35592 0.07412 0.74241 0.0
C3050 C 0.33378 0.06175 0.73249 0.0
C3051 C 0.34049 1.03064 0.72625 0.0
C3052 C 0.36866 1.01198 0.73005 0.0
C3053 C 0.36917 0.97829 0.72238 0.0
C3054 C 0.40201 0.97574 0.71435 0.0
C3055 C 0.36595 0.94793 0.73154 0.0
C3056 C 0.33746 0.98078 0.71356 0.0
C3057 C 0.32162 1.01164 0.71574 0.0
C3058 C 0.29299 1.02029 0.70819 0.0
C3059 C 0.27998 0.99732 0.69869 0.0
C3060 C 0.29443 0.96462 0.69642 0.0
C3061 C 0.32394 0.95682 0.70427 0.0
H3062 H 0.26946 0.09856 0.98622 0.0
H3063 H 0.34913 0.16155 1.00213 0.0
H3064 H 0.39079 0.13541 0.98734 0.0
H3065 H 0.3247 1.0223 0.98123 0.0
H3066 H 0.30677 1.0094 0.96613 0.0
H3067 H 0.28089 1.03193 0.97765 0.0
H3068 H 0.26695 0.07883 0.96134 0.0
H3069 H 0.29044 0.05483 0.94959 0.0
H3070 H 0.30144 0.09839 0.95245 0.0
H3071 H 0.42573 0.10388 0.96981 0.0
H3072 H 0.45028 0.06958 0.95252 0.0
H3073 H 0.35176 1.02267 0.94622 0.0
C3074 C 0.29585 0.10636 0.98688 0.0
C3075 C 0.30527 0.13232 0.99616 0.0
C3076 C 0.34034 0.14172 0.99579 0.0
C3077 C 0.36456 0.1269 0.98718 0.0
C3078 C 0.35462 0.10193 0.97834 0.0
C3079 C 0.32101 0.09139 0.97812 0.0
C3080 C 0.31791 0.06367 0.96747 0.0
C3081 C 0.30693 1.0298 0.97347 0.0
C3082 C 0.29259 0.07463 0.95711 0.0
C3083 C 0.35446 0.06095 0.96161 0.0
C3084 C 0.37497 0.08349 0.96818 0.0
C3085 C 0.40944 0.08638 0.96472 0.0
C3086 C 0.42339 0.06638 0.95461 0.0
C3087 C 0.40398 1.04275 0.94727 0.0
C3088 C 0.36827 1.04038 0.95109 0.0
H3089 H 0.18272 0.06914 0.2399 0.0
H3090 H 0.25472 0.98941 0.24894 0.0
H3091 H 0.29441 1.01232 0.23245 0.0
H3092 H 0.19899 0.07571 0.20577 0.0
H3093 H 0.19637 0.12132 0.20504 0.0
H3094 H 0.17344 0.09847 0.21731 0.0
H3095 H 0.20314 0.13383 0.23479 0.0
H3096 H 0.22586 0.15703 0.22256 0.0
H3097 H 0.2491 0.13583 0.23512 0.0
H3098 H 0.32686 1.04429 0.2124 0.0
H3099 H 0.34869 0.0829 0.19542 0.0
H3100 H 0.26016 0.14711 0.20073 0.0
C3101 C 0.207 0.05648 0.23859 0.0
C3102 C 0.21467 1.0267 0.24626 0.0
C3103 C 0.24728 1.01197 0.24371 0.0
C3104 C 0.27028 1.02498 0.2341 0.0
C3105 C 0.26181 0.05398 0.22677 0.0
C3106 C 0.23101 0.07 0.22921 0.0
C3107 C 0.22856 0.10184 0.2205 0.0
C3108 C 0.19748 0.09919 0.21163 0.0
C3109 C 0.22652 0.13405 0.22873 0.0
C3110 C 0.26218 0.10122 0.21261 0.0
C3111 C 0.28085 0.07296 0.21622 0.0
C3112 C 0.31202 0.0664 0.2098 0.0
C3113 C 0.32439 0.0887 0.19988 0.0
C3114 C 0.3068 0.11883 0.19613 0.0
C3115 C 0.27496 0.12466 0.20294 0.0
H3116 H 0.91812 0.0873 0.73939 0.0
H3117 H 0.85061 1.00212 0.74553 0.0
H3118 H 0.81233 1.02426 0.72852 0.0
H3119 H 0.84828 0.15007 0.73432 0.0
H3120 H 0.87186 0.17422 0.7226 0.0
H3121 H 0.89425 0.15101 0.73487 0.0
H3122 H 0.92901 0.11979 0.71745 0.0
H3123 H 0.90645 0.14263 0.70512 0.0
H3124 H 0.90694 0.09692 0.70506 0.0
H3125 H 0.78136 0.05618 0.70839 0.0
H3126 H 0.75931 0.09552 0.69173 0.0
H3127 H 0.84153 0.16499 0.70008 0.0
C3128 C 0.89506 0.07331 0.73734 0.0
C3129 C 0.88816 1.04229 0.74434 0.0
C3130 C 0.85722 1.02575 0.74086 0.0
C3131 C 0.83512 1.03828 0.73094 0.0
C3132 C 0.84275 0.0686 0.7243 0.0
C3133 C 0.87179 0.08634 0.72768 0.0
C3134 C 0.87337 0.11931 0.71959 0.0
C3135 C 0.87187 0.15051 0.72837 0.0
C3136 C 0.90589 0.11969 0.71132 0.0
C3137 C 0.84118 0.11749 0.71103 0.0
C3138 C 0.82419 0.08756 0.7137 0.0
C3139 C 0.79478 0.07964 0.70652 0.0
C3140 C 0.78231 0.10238 0.69681 0.0
C3141 C 0.79805 0.13416 0.69404 0.0
C3142 C 0.8282 0.1413 0.70157 0.0
H3143 H 0.76565 0.16609 0.48973 0.0
H3144 H 0.84766 0.09566 0.49769 0.0
H3145 H 0.82497 0.05695 0.48101 0.0
H3146 H 0.69958 0.09961 0.48489 0.0
H3147 H 0.67759 0.12308 0.47259 0.0
H3148 H 0.70093 0.1453 0.48481 0.0
H3149 H 0.73564 0.17628 0.46731 0.0
H3150 H 0.7127 0.15385 0.45503 0.0
H3151 H 0.75865 0.15187 0.45551 0.0
H3152 H 0.79301 1.02571 0.46084 0.0
H3153 H 0.75396 1.00435 0.444 0.0
H3154 H 0.68724 0.09008 0.45065 0.0
C3155 C 0.7788 0.14229 0.48817 0.0
C3156 C 0.80911 0.13475 0.4956 0.0
C3157 C 0.82457 0.10285 0.49271 0.0
C3158 C 0.81172 0.08047 0.48297 0.0
C3159 C 0.78214 0.08881 0.4759 0.0
C3160 C 0.76542 0.11885 0.4787 0.0
C3161 C 0.73311 0.1213 0.4702 0.0
C3162 C 0.70088 0.1224 0.47862 0.0
C3163 C 0.73514 0.1527 0.4615 0.0
C3164 C 0.73405 0.0884 0.4621 0.0
C3165 C 0.76309 0.07029 0.46532 0.0
C3166 C 0.77024 1.04005 0.45856 0.0
C3167 C 0.74766 1.02795 0.44874 0.0
C3168 C 0.71663 1.04481 0.44545 0.0
C3169 C 0.71028 0.0758 0.45255 0.0
H3170 H 0.76019 0.94186 0.19946 0.0
H3171 H 0.8443 1.01033 0.19236 0.0
H3172 H 0.82143 0.0491 0.20907 0.0
H3173 H 0.69548 1.01031 0.2042 0.0
H3174 H 0.67199 0.98719 0.21624 0.0
H3175 H 0.6955 0.96459 0.20406 0.0
H3176 H 0.72811 0.93192 0.22162 0.0
H3177 H 0.70494 0.95466 0.23385 0.0
H3178 H 0.75094 0.95515 0.23371 0.0
H3179 H 0.78931 0.08039 0.22915 0.0
H3180 H 0.74996 0.10245 0.2459 0.0
H3181 H 0.68129 1.019 0.23856 0.0
C3182 C 0.77377 0.96524 0.20123 0.0
C3183 C 0.80475 0.97223 0.19403 0.0
C3184 C 0.82075 1.00357 0.19718 0.0
C3185 C 0.80779 1.02598 0.20693 0.0
C3186 C 0.77759 1.01822 0.21377 0.0
C3187 C 0.76031 0.98875 0.21073 0.0
C3188 C 0.72735 0.98705 0.219 0.0
C3189 C 0.69569 0.98729 0.21036 0.0
C3190 C 0.72786 0.9553 0.22755 0.0
C3191 C 0.72867 1.01966 0.22728 0.0
C3192 C 0.75837 1.03698 0.2243 0.0
C3193 C 0.76598 0.06677 0.23122 0.0
C3194 C 0.74321 0.07928 0.24098 0.0
C3195 C 0.71159 0.06329 0.24405 0.0
C3196 C 0.70476 1.03269 0.2368 0.0
H3197 H 0.8389 0.93789 0.98883 0.0
H3198 H 0.75396 1.00533 0.99629 0.0
H3199 H 0.77577 1.04456 0.97951 0.0
H3200 H 0.90196 1.00798 0.98382 0.0
H3201 H 0.92585 0.98501 0.97185 0.0
H3202 H 0.90311 0.96228 0.9842 0.0
H3203 H 0.87113 0.92843 0.96685 0.0
H3204 H 0.89346 0.95139 0.95446 0.0
H3205 H 0.84746 0.95088 0.95471 0.0
H3206 H 0.80648 0.07592 0.959 0.0
H3207 H 0.84501 0.09822 0.94202 0.0
H3208 H 0.91532 1.01587 0.94944 0.0
C3209 C 0.82486 0.9611 0.98711 0.0
C3210 C 0.794 0.96765 0.99442 0.0
C3211 C 0.77746 0.99889 0.99137 0.0
C3212 C 0.78981 1.02155 0.98159 0.0
C3213 C 0.81979 1.01407 0.97456 0.0
C3214 C 0.83765 0.98483 0.97756 0.0
C3215 C 0.87046 0.98361 0.96922 0.0
C3216 C 0.90224 0.98477 0.97778 0.0
C3217 C 0.87065 0.95166 0.96081 0.0
C3218 C 0.86817 1.01598 0.96082 0.0
C3219 C 0.83828 1.03295 0.96386 0.0
C3220 C 0.82993 0.06251 0.95686 0.0
C3221 C 0.85219 0.07512 0.94695 0.0
C3222 C 0.88401 0.05946 0.94382 0.0
C3223 C 0.89158 1.02917 0.95118 0.0
H3224 H 0.69059 0.50464 0.9516 0.0
H3225 H 0.75911 0.58865 0.94475 0.0
H3226 H 0.79804 0.56602 0.96146 0.0
H3227 H 0.70322 0.49501 0.98579 0.0
H3228 H 0.70324 0.4493 0.98581 0.0
H3229 H 0.68048 0.4722 0.97355 0.0
H3230 H 0.71435 0.44042 0.95602 0.0
H3231 H 0.73691 0.41716 0.96824 0.0
H3232 H 0.76036 0.4409 0.95636 0.0
H3233 H 0.82969 0.53389 0.98152 0.0
H3234 H 0.85163 0.49484 0.9983 0.0
H3235 H 0.76783 0.42659 0.99076 0.0
C3236 C 0.71399 0.51829 0.95343 0.0
C3237 C 0.7209 0.54919 0.9463 0.0
C3238 C 0.75234 0.5652 0.94952 0.0
C3239 C 0.77487 0.55236 0.95927 0.0
C3240 C 0.76718 0.52226 0.96605 0.0
C3241 C 0.73764 0.50497 0.96294 0.0
C3242 C 0.73605 0.47213 0.97114 0.0
C3243 C 0.70382 0.47215 0.97957 0.0
C3244 C 0.73695 0.44079 0.96242 0.0
C3245 C 0.7686 0.47367 0.97954 0.0
C3246 C 0.786 0.50321 0.97661 0.0
C3247 C 0.81589 0.51077 0.98359 0.0
C3248 C 0.82832 0.48818 0.99338 0.0
C3249 C 0.81214 0.45679 0.99643 0.0
C3250 C 0.78155 0.44997 0.98907 0.0
H3251 H 0.78119 0.49015 0.19643 0.0
H3252 H 0.8267 0.39142 0.20321 0.0
H3253 H 0.86077 0.4152 0.22064 0.0
H3254 H 0.85852 0.54072 0.20362 0.0
H3255 H 0.83632 0.57416 0.21202 0.0
H3256 H 0.81469 0.5502 0.19983 0.0
H3257 H 0.76738 0.53477 0.21604 0.0
H3258 H 0.78902 0.55884 0.22823 0.0
H3259 H 0.77873 0.51491 0.23099 0.0
H3260 H 0.89226 0.44944 0.23834 0.0
H3261 H 0.91824 0.49052 0.25323 0.0
H3262 H 0.85644 0.57047 0.23674 0.0
C3263 C 0.79866 0.47346 0.20139 0.0
C3264 C 0.80059 0.4379 0.1977 0.0
C3265 C 0.82383 0.41821 0.2052 0.0
C3266 C 0.8437 0.43172 0.21539 0.0
C3267 C 0.84118 0.46603 0.21876 0.0
C3268 C 0.81922 0.48686 0.21197 0.0
C3269 C 0.8218 0.52301 0.21793 0.0
C3270 C 0.83354 0.54857 0.20774 0.0
C3271 C 0.78716 0.53353 0.22363 0.0
C3272 C 0.84899 0.51935 0.22876 0.0
C3273 C 0.8593 0.48583 0.22907 0.0
C3274 C 0.8839 0.4756 0.2381 0.0
C3275 C 0.89862 0.49946 0.24677 0.0
C3276 C 0.88947 0.53444 0.24698 0.0
C3277 C 0.86392 0.54412 0.23753 0.0
H3278 H 0.91657 0.58026 0.45112 0.0
H3279 H 0.84996 0.49432 0.44542 0.0
H3280 H 0.81127 0.51644 0.46237 0.0
H3281 H 0.90471 0.59045 0.48547 0.0
H3282 H 0.90381 0.63615 0.48523 0.0
H3283 H 0.92678 0.61328 0.47298 0.0
H3284 H 0.89204 0.64385 0.45545 0.0
H3285 H 0.86922 0.6671 0.46764 0.0
H3286 H 0.84606 0.6425 0.45603 0.0
H3287 H 0.77969 0.54849 0.48246 0.0
H3288 H 0.75698 0.58792 0.49896 0.0
H3289 H 0.83862 0.65804 0.49026 0.0
C3290 C 0.89363 0.56608 0.45326 0.0
C3291 C 0.88715 0.53483 0.44637 0.0
C3292 C 0.85631 0.5181 0.44998 0.0
C3293 C 0.83396 0.53064 0.45987 0.0
C3294 C 0.84117 0.56117 0.46639 0.0
C3295 C 0.87009 0.57909 0.4629 0.0
C3296 C 0.87119 0.61226 0.47087 0.0
C3297 C 0.90356 0.6131 0.47912 0.0
C3298 C 0.86955 0.64328 0.46197 0.0
C3299 C 0.83886 0.61036 0.47946 0.0
C3300 C 0.82223 0.58019 0.47693 0.0
C3301 C 0.79282 0.57214 0.48419 0.0
C3302 C 0.77993 0.59497 0.49381 0.0
C3303 C 0.79525 0.62699 0.49645 0.0
C3304 C 0.82548 0.63424 0.48886 0.0
H3305 H 0.68326 0.58332 0.74076 0.0
H3306 H 0.75472 0.50289 0.74952 0.0
H3307 H 0.79455 0.52589 0.7331 0.0
H3308 H 0.69947 0.5906 0.70666 0.0
H3309 H 0.69724 0.63623 0.70609 0.0
H3310 H 0.67413 0.61329 0.71829 0.0
H3311 H 0.70417 0.64796 0.73588 0.0
H3312 H 0.72706 0.67127 0.72373 0.0
H3313 H 0.75015 0.64957 0.73621 0.0
H3314 H 0.8267 0.5575 0.713 0.0
H3315 H 0.84876 0.59625 0.69612 0.0
H3316 H 0.76129 0.66161 0.7019 0.0
C3317 C 0.70746 0.57054 0.7394 0.0
C3318 C 0.71499 0.54059 0.74696 0.0
C3319 C 0.74748 0.52565 0.74438 0.0
C3320 C 0.77052 0.53869 0.73481 0.0
C3321 C 0.76215 0.56781 0.72755 0.0
C3322 C 0.73151 0.58405 0.73006 0.0
C3323 C 0.72928 0.61612 0.72148 0.0
C3324 C 0.69817 0.61394 0.71261 0.0
C3325 C 0.72755 0.64814 0.72982 0.0
C3326 C 0.76286 0.61536 0.71358 0.0
C3327 C 0.78123 0.5868 0.71704 0.0
C3328 C 0.81216 0.57991 0.71053 0.0
C3329 C 0.82465 0.60229 0.70068 0.0
C3330 C 0.80748 0.63283 0.69714 0.0
C3331 C 0.77582 0.63892 0.704 0.0
H3332 H 0.41621 0.59492 0.23846 0.0
H3333 H 0.35032 0.50805 0.24363 0.0
H3334 H 0.31185 0.53058 0.22677 0.0
H3335 H 0.34497 0.65662 0.23392 0.0
H3336 H 0.36807 0.68213 0.22248 0.0
H3337 H 0.3909 0.65855 0.23454 0.0
H3338 H 0.4265 0.62939 0.21687 0.0
H3339 H 0.40356 0.65265 0.20475 0.0
H3340 H 0.40508 0.60699 0.2042 0.0
H3341 H 0.28049 0.56314 0.20688 0.0
H3342 H 0.25774 0.60306 0.19056 0.0
H3343 H 0.33822 0.6738 0.19975 0.0
C3344 C 0.39344 0.58064 0.23624 0.0
C3345 C 0.38708 0.549 0.24293 0.0
C3346 C 0.35652 0.53213 0.23921 0.0
C3347 C 0.3343 0.5449 0.22938 0.0
C3348 C 0.34136 0.57582 0.22306 0.0
C3349 C 0.36999 0.59391 0.22667 0.0
C3350 C 0.37087 0.6275 0.21891 0.0
C3351 C 0.36858 0.65802 0.228 0.0
C3352 C 0.40345 0.62924 0.2107 0.0
C3353 C 0.33879 0.62562 0.21027 0.0
C3354 C 0.32246 0.59514 0.21262 0.0
C3355 C 0.29332 0.58706 0.2053 0.0
C3356 C 0.28041 0.61017 0.19579 0.0
C3357 C 0.29538 0.64251 0.19337 0.0
C3358 C 0.32535 0.64977 0.20101 0.0
H3359 H 0.2795 0.60877 1.00132 0.0
H3360 H 0.3369 0.67389 0.9757 0.0
H3361 H 0.31163 0.64523 0.95715 0.0
H3362 H 0.28411 0.53301 0.98059 0.0
H3363 H 0.24155 0.51814 0.98334 0.0
H3364 H 0.26303 0.54196 0.9956 0.0
H3365 H 0.21592 0.5866 0.9966 0.0
H3366 H 0.1917 0.56313 0.98496 0.0
H3367 H 0.20171 0.60705 0.9821 0.0
H3368 H 0.27954 0.60669 0.93991 0.0
H3369 H 0.24148 0.56919 0.92732 0.0
H3370 H 0.19823 0.53098 0.96273 0.0
C3371 C 0.28735 0.61681 0.99185 0.0
C3372 C 0.31193 0.64414 0.99054 0.0
C3373 C 0.31939 0.65326 0.97755 0.0
C3374 C 0.30474 0.63686 0.96669 0.0
C3375 C 0.28103 0.61054 0.96826 0.0
C3376 C 0.27198 0.60083 0.98058 0.0
C3377 C 0.24479 0.57241 0.97941 0.0
C3378 C 0.25918 0.53944 0.9851 0.0
C3379 C 0.21156 0.5829 0.98618 0.0
C3380 C 0.23913 0.56848 0.96471 0.0
C3381 C 0.2612 0.59021 0.95846 0.0
C3382 C 0.26205 0.59005 0.94491 0.0
C3383 C 0.24005 0.56818 0.93767 0.0
C3384 C 0.21572 0.54624 0.94355 0.0
C3385 C 0.21586 0.54698 0.95751 0.0
H3386 H 0.2657 0.43389 0.69983 0.0
H3387 H 0.34818 0.5033 0.69146 0.0
H3388 H 0.32606 0.54233 0.70824 0.0
H3389 H 0.20052 0.5019 0.70505 0.0
H3390 H 0.17827 0.47859 0.71737 0.0
H3391 H 0.20109 0.45617 0.70497 0.0
H3392 H 0.23542 0.42405 0.72222 0.0
H3393 H 0.21298 0.44669 0.73467 0.0
H3394 H 0.25895 0.44771 0.73401 0.0
H3395 H 0.29477 0.57396 0.72859 0.0
H3396 H 0.25641 0.59561 0.74575 0.0
H3397 H 0.189 0.51056 0.73951 0.0
C3398 C 0.2791 0.45751 0.70134 0.0
C3399 C 0.30938 0.46465 0.69377 0.0
C3400 C 0.32515 0.49635 0.69658 0.0
C3401 C 0.31262 0.51892 0.70636 0.0
C3402 C 0.2831 0.51096 0.7136 0.0
C3403 C 0.26607 0.48113 0.71088 0.0
C3404 C 0.23383 0.47914 0.71952 0.0
C3405 C 0.2015 0.47892 0.71124 0.0
C3406 C 0.23538 0.4475 0.72811 0.0
C3407 C 0.2354 0.51187 0.72771 0.0
C3408 C 0.26446 0.52968 0.72431 0.0
C3409 C 0.27201 0.55983 0.73103 0.0
C3410 C 0.24985 0.57208 0.74104 0.0
C3411 C 0.21889 0.55544 0.74457 0.0
C3412 C 0.21208 0.52461 0.73747 0.0
H3413 H 0.30412 0.50778 0.49809 0.0
H3414 H 0.3056 0.40937 0.47946 0.0
H3415 H 0.33488 0.43395 0.46106 0.0
H3416 H 0.29148 0.55713 0.46771 0.0
H3417 H 0.31896 0.59193 0.47195 0.0
H3418 H 0.29759 0.56791 0.48432 0.0
H3419 H 0.35546 0.55535 0.49503 0.0
H3420 H 0.37685 0.57952 0.48271 0.0
H3421 H 0.38923 0.5362 0.48574 0.0
H3422 H 0.36602 0.4677 0.44365 0.0
H3423 H 0.39485 0.50776 0.42916 0.0
H3424 H 0.37726 0.58866 0.45651 0.0
C3425 C 0.31065 0.49118 0.49021 0.0
C3426 C 0.30175 0.45528 0.49098 0.0
C3427 C 0.31142 0.43616 0.4799 0.0
C3428 C 0.32845 0.45016 0.46907 0.0
C3429 C 0.33693 0.48458 0.46867 0.0
C3430 C 0.32839 0.50517 0.47892 0.0
C3431 C 0.34096 0.54173 0.47546 0.0
C3432 C 0.31043 0.56615 0.47483 0.0
C3433 C 0.36717 0.55394 0.48533 0.0
C3434 C 0.35796 0.53807 0.46194 0.0
C3435 C 0.35494 0.50452 0.45835 0.0
C3436 C 0.36828 0.49397 0.44649 0.0
C3437 C 0.38496 0.5174 0.43815 0.0
C3438 C 0.3892 0.55241 0.44111 0.0
C3439 C 0.37496 0.56256 0.45347 0.0
H3440 H 0.15942 0.10444 0.36556 0.0
H3441 H 0.16948 1.01118 0.38728 0.0
H3442 H 0.17248 0.97874 0.36716 0.0
H3443 H 0.10499 0.06777 0.34043 0.0
H3444 H 0.12345 0.09192 0.32747 0.0
H3445 H 0.12341 0.10879 0.34352 0.0
H3446 H 0.18879 0.11609 0.34237 0.0
H3447 H 0.189 0.09922 0.32633 0.0
H3448 H 0.21529 0.08009 0.33851 0.0
H3449 H 0.17564 0.95466 0.34409 0.0
H3450 H 0.17485 0.94166 0.32097 0.0
H3451 H 0.15922 0.04827 0.31259 0.0
C3452 C 0.1625 0.0772 0.36613 0.0
C3453 C 0.16451 0.06093 0.37851 0.0
C3454 C 0.16795 1.02498 0.37832 0.0
C3455 C 0.16974 1.00604 0.36677 0.0
C3456 C 0.16762 1.02257 0.3549 0.0
C3457 C 0.16374 0.05743 0.35445 0.0
C3458 C 0.16086 0.06839 0.34024 0.0
C3459 C 0.12611 0.08523 0.33777 0.0
C3460 C 0.19023 0.09239 0.33665 0.0
C3461 C 0.16392 1.03452 0.33285 0.0
C3462 C 0.16812 1.00851 0.3416 0.0
C3463 C 0.17217 0.97506 0.33727 0.0
C3464 C 0.17176 0.96781 0.32392 0.0
C3465 C 0.16693 0.99341 0.31447 0.0
C3466 C 0.16293 1.02755 0.31926 0.0
H3467 H 0.23277 0.90384 0.61676 0.0
H3468 H 0.32795 0.91556 0.63731 0.0
H3469 H 0.35925 0.91699 0.61679 0.0
H3470 H 0.26788 0.8482 0.5916 0.0
H3471 H 0.24263 0.86596 0.57883 0.0
H3472 H 0.22683 0.86683 0.59507 0.0
H3473 H 0.21932 0.93164 0.59358 0.0
H3474 H 0.23515 0.9311 0.57734 0.0
H3475 H 0.25518 0.95774 0.58913 0.0
H3476 H 0.38184 0.91823 0.5935 0.0
H3477 H 0.39343 0.91594 0.5703 0.0
H3478 H 0.2856 0.90047 0.56316 0.0
C3479 C 0.26021 0.90679 0.61698 0.0
C3480 C 0.27741 0.90974 0.62914 0.0
C3481 C 0.31353 0.91327 0.62853 0.0
C3482 C 0.33179 0.91416 0.61674 0.0
C3483 C 0.31433 0.91116 0.6051 0.0
C3484 C 0.27927 0.90727 0.60508 0.0
C3485 C 0.2672 0.9037 0.59105 0.0
C3486 C 0.25011 0.86911 0.58902 0.0
C3487 C 0.24275 0.93278 0.58757 0.0
C3488 C 0.30076 0.90622 0.58323 0.0
C3489 C 0.32752 0.9108 0.59165 0.0
C3490 C 0.36088 0.9144 0.58694 0.0
C3491 C 0.3673 0.91307 0.57354 0.0
C3492 C 0.34093 0.90781 0.5644 0.0
C3493 C 0.30687 0.90439 0.56957 0.0
H3494 H 0.44417 1.03297 0.81279 0.0
H3495 H 0.42183 0.13848 0.82103 0.0
H3496 H 0.42062 0.12543 0.84411 0.0
H3497 H 0.38866 0.9982 0.83866 0.0
H3498 H 0.41691 0.96366 0.84262 0.0
H3499 H 0.41637 0.98056 0.82656 0.0
H3500 H 0.48124 0.99139 0.82776 0.0
H3501 H 0.48192 0.97454 0.84382 0.0
H3502 H 0.49807 1.01652 0.84068 0.0
H3503 H 0.42433 0.10188 0.86713 0.0
H3504 H 0.4287 0.06994 0.88737 0.0
H3505 H 0.44529 0.97721 0.86596 0.0
C3506 C 0.43895 0.05341 0.81942 0.0
C3507 C 0.43332 0.08731 0.81459 0.0
C3508 C 0.42642 0.11255 0.824 0.0
C3509 C 0.4257 0.10527 0.83734 0.0
C3510 C 0.43153 0.07214 0.84171 0.0
C3511 C 0.43764 1.04638 0.83303 0.0
C3512 C 0.44233 1.01277 0.84053 0.0
C3513 C 0.41442 0.98728 0.83687 0.0
C3514 C 0.47801 0.99791 0.83805 0.0
C3515 C 0.4384 1.02372 0.85469 0.0
C3516 C 0.43235 0.05827 0.85503 0.0
C3517 C 0.42879 0.07481 0.86684 0.0
C3518 C 0.43138 0.05617 0.87845 0.0
C3519 C 0.43714 1.02053 0.87874 0.0
C3520 C 0.44053 1.00422 0.86643 0.0
H3521 H 0.23524 0.18001 1.07551 0.0
H3522 H 0.33071 0.1679 1.05487 0.0
H3523 H 0.36144 0.16367 1.07536 0.0
H3524 H 0.27143 0.23267 0.10127 0.0
H3525 H 0.24542 0.21479 0.11384 0.0
H3526 H 0.22993 0.21567 0.0976 0.0
H3527 H 0.22046 0.15116 0.09845 0.0
H3528 H 0.23616 0.14977 0.11465 0.0
H3529 H 0.25546 0.12347 0.10251 0.0
H3530 H 0.38343 0.15961 0.09856 0.0
H3531 H 0.3946 0.15971 0.12179 0.0
H3532 H 0.28707 0.17776 0.12909 0.0
C3533 C 0.26261 0.17629 1.07526 0.0
C3534 C 0.28008 0.17409 1.0631 0.0
C3535 C 0.3161 0.16966 1.06367 0.0
C3536 C 0.33403 0.16715 1.07543 0.0
C3537 C 0.31635 0.1695 1.08709 0.0
C3538 C 0.28138 0.17431 1.08715 0.0
C3539 C 0.26914 0.1772 0.10122 0.0
C3540 C 0.25301 0.21216 0.10362 0.0
C3541 C 0.2438 0.1487 0.1044 0.0
C3542 C 0.30246 0.17304 0.10898 0.0
C3543 C 0.32927 0.16836 0.10052 0.0
C3544 C 0.36244 0.16344 0.10517 0.0
C3545 C 0.36862 0.16347 0.11858 0.0
C3546 C 0.34219 0.16875 0.12776 0.0
C3547 C 0.30835 0.17364 0.12264 0.0
H3548 H 0.94085 0.06496 0.81128 0.0
H3549 H 0.92683 0.95809 0.81961 0.0
H3550 H 0.92441 0.97098 0.84268 0.0
H3551 H 0.99338 0.08475 0.83934 0.0
H3552 H 0.97428 0.1256 0.84234 0.0
H3553 H 0.97519 0.10869 0.8263 0.0
H3554 H 0.90979 0.11529 0.82483 0.0
H3555 H 0.90868 0.13223 0.84087 0.0
H3556 H 0.88302 0.0959 0.83686 0.0
H3557 H 0.92554 0.99476 0.86564 0.0
H3558 H 0.92699 1.02692 0.88582 0.0
H3559 H 0.93721 0.12059 0.86434 0.0
C3560 C 0.93722 1.04418 0.81793 0.0
C3561 C 0.93421 1.01 0.81315 0.0
C3562 C 0.92935 0.98427 0.82256 0.0
C3563 C 0.92795 0.99145 0.83589 0.0
C3564 C 0.93111 1.02493 0.84022 0.0
C3565 C 0.93537 0.05106 0.83152 0.0
C3566 C 0.93751 0.08489 0.83897 0.0
C3567 C 0.97215 0.10201 0.83659 0.0
C3568 C 0.908 0.10849 0.83515 0.0
C3569 C 0.93399 0.07372 0.85313 0.0
C3570 C 0.93057 1.03883 0.85351 0.0
C3571 C 0.92794 1.02208 0.86531 0.0
C3572 C 0.92882 1.04086 0.8769 0.0
C3573 C 0.93187 0.07682 0.87716 0.0
C3574 C 0.93436 0.09333 0.86484 0.0
H3575 H 0.73489 0.18717 0.61517 0.0
H3576 H 0.82969 0.1768 0.63612 0.0
H3577 H 0.8615 0.1746 0.61573 0.0
H3578 H 0.75851 0.13275 0.58773 0.0
H3579 H 0.73867 0.15927 0.5758 0.0
H3580 H 0.72232 0.15876 0.59197 0.0
H3581 H 0.72942 0.2237 0.59329 0.0
H3582 H 0.74578 0.22439 0.57713 0.0
H3583 H 0.7705 0.24232 0.58997 0.0
H3584 H 0.88471 0.17233 0.59259 0.0
H3585 H 0.89696 0.17397 0.56942 0.0
H3586 H 0.78936 0.18959 0.56178 0.0
C3587 C 0.76233 0.18415 0.6155 0.0
C3588 C 0.77927 0.18181 0.62773 0.0
C3589 C 0.81544 0.17854 0.62727 0.0
C3590 C 0.83401 0.17722 0.61557 0.0
C3591 C 0.81683 0.17968 0.60385 0.0
C3592 C 0.78173 0.18342 0.60368 0.0
C3593 C 0.77011 0.18681 0.58958 0.0
C3594 C 0.74595 0.15767 0.58606 0.0
C3595 C 0.75292 0.22136 0.58736 0.0
C3596 C 0.80392 0.18422 0.58193 0.0
C3597 C 0.83043 0.17978 0.59047 0.0
C3598 C 0.86394 0.17599 0.58592 0.0
C3599 C 0.87074 0.17691 0.57254 0.0
C3600 C 0.84463 0.18201 0.56329 0.0
C3601 C 0.81044 0.18575 0.5683 0.0
H3602 H 0.66225 0.9866 0.36543 0.0
H3603 H 0.66631 0.08114 0.38652 0.0
H3604 H 0.66771 0.11286 0.36618 0.0
H3605 H 0.71752 1.01313 0.33851 0.0
H3606 H 0.69301 0.99193 0.32635 0.0
H3607 H 0.69329 0.97576 0.34252 0.0
H3608 H 0.62753 0.97912 0.34327 0.0
H3609 H 0.62706 0.99531 0.32711 0.0
H3610 H 0.60657 1.0188 0.33979 0.0
H3611 H 0.66952 0.13612 0.34304 0.0
H3612 H 0.66844 0.14822 0.31987 0.0
H3613 H 0.66039 1.04055 0.31208 0.0
C3614 C 0.66358 1.01399 0.36581 0.0
C3615 C 0.66435 1.03087 0.37807 0.0
C3616 C 0.66574 0.06693 0.37766 0.0
C3617 C 0.66659 0.08545 0.36598 0.0
C3618 C 0.66571 0.06832 0.35423 0.0
C3619 C 0.66399 1.0333 0.35401 0.0
C3620 C 0.66237 1.02159 0.33989 0.0
C3621 C 0.69339 0.99926 0.33662 0.0
C3622 C 0.62889 1.00256 0.33737 0.0
C3623 C 0.66348 0.05528 0.33227 0.0
C3624 C 0.66569 0.08184 0.34086 0.0
C3625 C 0.66758 0.11531 0.33634 0.0
C3626 C 0.66697 0.12203 0.32296 0.0
C3627 C 0.66416 0.09583 0.31367 0.0
C3628 C 0.66245 0.06168 0.31863 0.0
H3629 H 0.78771 0.91483 0.12761 0.0
H3630 H 0.8948 0.93432 0.12014 0.0
H3631 H 0.88331 0.93439 0.0969 0.0
H3632 H 0.77268 0.85986 0.10004 0.0
H3633 H 0.73076 0.87621 0.0965 0.0
H3634 H 0.74671 0.87754 0.11268 0.0
H3635 H 0.7364 0.94227 0.1134 0.0
H3636 H 0.72022 0.94073 0.09727 0.0
H3637 H 0.75486 0.96886 0.10114 0.0
H3638 H 0.86076 0.93009 1.07361 0.0
H3639 H 0.82953 0.92547 1.05323 0.0
H3640 H 0.73489 0.91207 1.07426 0.0
C3641 C 0.80883 0.91929 0.12112 0.0
C3642 C 0.84264 0.92458 0.12619 0.0
C3643 C 0.86885 0.93026 0.11696 0.0
C3644 C 0.86247 0.93028 0.10355 0.0
C3645 C 0.82931 0.92494 0.09894 0.0
C3646 C 0.80272 0.91989 0.10747 0.0
C3647 C 0.76934 0.91529 0.0998 0.0
C3648 C 0.75395 0.88013 0.10242 0.0
C3649 C 0.74369 0.94348 0.10311 0.0
C3650 C 0.78124 0.91832 1.08571 0.0
C3651 C 0.81612 0.92362 1.08553 0.0
C3652 C 0.83343 0.92622 1.07379 0.0
C3653 C 0.8152 0.92349 1.06209 0.0
C3654 C 0.77924 0.91855 1.06166 0.0
C3655 C 0.76219 0.91611 1.0739 0.0
H3656 H 0.66598 0.53184 0.87952 0.0
H3657 H 0.68079 0.63893 0.87194 0.0
H3658 H 0.68018 0.62743 0.84871 0.0
H3659 H 0.7205 0.50152 0.85266 0.0
H3660 H 0.69368 0.46582 0.84892 0.0
H3661 H 0.69509 0.48197 0.86506 0.0
H3662 H 0.62957 0.48941 0.8648 0.0
H3663 H 0.62822 0.47347 0.84863 0.0
H3664 H 0.6101 0.51437 0.85231 0.0
H3665 H 0.67551 0.60486 0.82546 0.0
H3666 H 0.67124 0.57367 0.80509 0.0
H3667 H 0.66306 0.47911 0.82611 0.0
C3668 C 0.66926 0.55296 0.87301 0.0
C3669 C 0.67343 0.58678 0.87805 0.0
C3670 C 0.67762 0.61298 0.86879 0.0
C3671 C 0.67722 0.6066 0.85538 0.0
C3672 C 0.673 0.57344 0.8508 0.0
C3673 C 0.66948 0.54686 0.85935 0.0
C3674 C 0.66596 0.51349 0.85168 0.0
C3675 C 0.69557 0.48926 0.85477 0.0
C3676 C 0.63141 0.49668 0.85453 0.0
C3677 C 0.66784 0.5254 0.83757 0.0
C3678 C 0.67161 0.56027 0.83738 0.0
C3679 C 0.67286 0.57756 0.82564 0.0
C3680 C 0.67034 0.55935 0.81394 0.0
C3681 C 0.667 0.52343 0.8135 0.0
C3682 C 0.6659 0.50638 0.82575 0.0
H3683 H 0.78794 0.39834 1.06345 0.0
H3684 H 0.89457 0.4183 1.07144 0.0
H3685 H 0.88158 0.42027 1.09453 0.0
H3686 H 0.75375 0.45425 1.089 0.0
H3687 H 0.71871 0.42679 1.09318 0.0
H3688 H 0.73567 0.42657 1.0771 0.0
H3689 H 0.74595 0.36206 1.07871 0.0
H3690 H 0.72902 0.36209 1.0948 0.0
H3691 H 0.77111 0.3454 1.09171 0.0
H3692 H 0.85792 0.41786 0.11757 0.0
H3693 H 0.82584 0.41458 0.13787 0.0
H3694 H 0.73216 0.39911 0.11671 0.0
C3695 C 0.80864 0.4032 1.07003 0.0
C3696 C 0.84281 0.40799 1.06513 0.0
C3697 C 0.86841 0.41436 1.07447 0.0
C3698 C 0.86117 0.41553 1.08781 0.0
C3699 C 0.82775 0.41055 1.09225 0.0
C3700 C 0.80169 0.40479 1.08364 0.0
C3701 C 0.76786 0.40082 1.09121 0.0
C3702 C 0.74248 0.42877 1.08739 0.0
C3703 C 0.75257 0.36549 1.08897 0.0
C3704 C 0.77897 0.40499 0.10533 0.0
C3705 C 0.81383 0.41037 0.10559 0.0
C3706 C 0.8306 0.41393 0.11734 0.0
C3707 C 0.81188 0.41199 0.129 0.0
C3708 C 0.77592 0.40693 0.12938 0.0
C3709 C 0.75938 0.40352 0.11711 0.0
H3710 H 0.93796 0.55262 0.37913 0.0
H3711 H 0.92647 0.44497 0.37203 0.0
H3712 H 0.92563 0.45608 0.34877 0.0
H3713 H 0.88087 0.58011 0.35284 0.0
H3714 H 0.90578 0.61686 0.3486 0.0
H3715 H 0.90623 0.60105 0.36482 0.0
H3716 H 0.97188 0.59622 0.36387 0.0
H3717 H 0.97162 0.61198 0.34765 0.0
H3718 H 0.99164 0.57191 0.35124 0.0
H3719 H 0.92866 0.4783 0.32546 0.0
H3720 H 0.93078 0.50926 0.30493 0.0
H3721 H 0.93598 0.60447 0.32551 0.0
C3722 C 0.93518 0.53129 0.37271 0.0
C3723 C 0.9324 0.49744 0.37789 0.0
C3724 C 0.92865 0.47096 0.36877 0.0
C3725 C 0.92822 0.47711 0.35534 0.0
C3726 C 0.93107 0.51031 0.35062 0.0
C3727 C 0.93407 0.53714 0.35904 0.0
C3728 C 0.93577 0.57049 0.35123 0.0
C3729 C 0.90536 0.5935 0.35458 0.0
C3730 C 0.96975 0.58874 0.35364 0.0
C3731 C 0.93356 0.55826 0.33718 0.0
C3732 C 0.93121 0.52327 0.33716 0.0
C3733 C 0.93015 0.5057 0.32551 0.0
C3734 C 0.93141 0.52376 0.31372 0.0
C3735 C 0.93317 0.55978 0.31312 0.0
C3736 C 0.93413 0.57711 0.32528 0.0
H3737 H 0.73328 0.68773 0.57642 0.0
H3738 H 0.82809 0.67118 0.55578 0.0
H3739 H 0.8592 0.66946 0.57624 0.0
H3740 H 0.77053 0.74304 0.60114 0.0
H3741 H 0.74461 0.72698 0.6141 0.0
H3742 H 0.72877 0.72603 0.5979 0.0
H3743 H 0.71869 0.66178 0.59989 0.0
H3744 H 0.73468 0.66223 0.61606 0.0
H3745 H 0.75349 0.63427 0.60435 0.0
H3746 H 0.88172 0.66876 0.59935 0.0
H3747 H 0.89352 0.67168 0.62247 0.0
H3748 H 0.78626 0.69117 0.6299 0.0
C3749 C 0.76059 0.68361 0.57617 0.0
C3750 C 0.77775 0.67942 0.56401 0.0
C3751 C 0.8137 0.67444 0.56457 0.0
C3752 C 0.83186 0.67338 0.57631 0.0
C3753 C 0.81448 0.67765 0.58796 0.0
C3754 C 0.77957 0.68291 0.58803 0.0
C3755 C 0.76767 0.68765 0.60207 0.0
C3756 C 0.75195 0.72303 0.60391 0.0
C3757 C 0.74211 0.65982 0.60582 0.0
C3758 C 0.80112 0.68409 0.60981 0.0
C3759 C 0.82768 0.67814 0.60135 0.0
C3760 C 0.86093 0.6736 0.60596 0.0
C3761 C 0.86746 0.67532 0.61931 0.0
C3762 C 0.84131 0.68182 0.6285 0.0
C3763 C 0.80735 0.68623 0.62344 0.0
H3764 H 0.44394 0.54285 0.37621 0.0
H3765 H 0.42463 0.64933 0.36876 0.0
H3766 H 0.42285 0.63749 0.34555 0.0
H3767 H 0.49714 0.52617 0.34808 0.0
H3768 H 0.47973 0.48479 0.34487 0.0
H3769 H 0.47976 0.50109 0.361 0.0
H3770 H 0.41464 0.49211 0.36249 0.0
H3771 H 0.41442 0.47575 0.34636 0.0
H3772 H 0.38727 0.51097 0.35058 0.0
H3773 H 0.42593 0.61449 0.32223 0.0
H3774 H 0.42908 0.5829 0.30189 0.0
H3775 H 0.44266 0.48916 0.32303 0.0
C3776 C 0.43929 0.56378 0.36973 0.0
C3777 C 0.43463 0.59752 0.37478 0.0
C3778 C 0.4284 0.62347 0.36558 0.0
C3779 C 0.4274 0.61687 0.35219 0.0
C3780 C 0.43227 0.58377 0.34759 0.0
C3781 C 0.4377 0.55746 0.35611 0.0
C3782 C 0.4413 0.52402 0.34849 0.0
C3783 C 0.47658 0.50807 0.35075 0.0
C3784 C 0.41271 0.49923 0.35221 0.0
C3785 C 0.43751 0.53557 0.33441 0.0
C3786 C 0.43256 0.57032 0.3342 0.0
C3787 C 0.42949 0.58728 0.32244 0.0
C3788 C 0.43138 0.56884 0.31076 0.0
C3789 C 0.43586 0.53302 0.31038 0.0
C3790 C 0.43882 0.51633 0.32263 0.0
H3791 H 0.36886 0.69661 1.07278 0.0
H3792 H 0.27433 0.68511 1.0518 0.0
H3793 H 0.2425 0.68255 1.07223 0.0
H3794 H 0.34623 0.64118 0.09991 0.0
H3795 H 0.36599 0.66736 0.1119 0.0
H3796 H 0.38206 0.66759 1.09569 0.0
H3797 H 0.37421 0.73254 1.09466 0.0
H3798 H 0.35811 0.73251 0.11087 0.0
H3799 H 0.33299 0.75076 0.09816 0.0
H3800 H 0.21943 0.68009 1.09554 0.0
H3801 H 0.20763 0.68118 0.11878 0.0
H3802 H 0.31524 0.6971 0.1261 0.0
C3803 C 0.34145 0.6935 1.07244 0.0
C3804 C 0.32457 0.69095 1.06022 0.0
C3805 C 0.28848 0.68712 1.06066 0.0
C3806 C 0.26994 0.68558 1.07238 0.0
C3807 C 0.28711 0.68817 1.0841 0.0
C3808 C 0.32215 0.69231 1.08425 0.0
C3809 C 0.33398 0.69524 0.09832 0.0
C3810 C 0.35854 0.66612 0.10165 0.0
C3811 C 0.35084 0.72982 0.10064 0.0
C3812 C 0.30032 0.69213 0.106 0.0
C3813 C 0.2737 0.68775 0.09752 0.0
C3814 C 0.2403 0.68369 0.10216 0.0
C3815 C 0.23374 0.68428 0.11557 0.0
C3816 C 0.26003 0.68928 0.12474 0.0
C3817 C 0.29406 0.69327 0.11964 0.0
H3818 H 0.16523 0.53606 0.81175 0.0
H3819 H 0.17326 0.64381 0.81931 0.0
H3820 H 0.17268 0.63215 0.84253 0.0
H3821 H 0.10992 0.51482 0.839 0.0
H3822 H 0.13064 0.47515 0.84268 0.0
H3823 H 0.13121 0.49129 0.82651 0.0
H3824 H 0.197 0.48806 0.82624 0.0
H3825 H 0.19661 0.47189 0.84241 0.0
H3826 H 0.22091 0.50933 0.83856 0.0
H3827 H 0.16876 0.60927 0.86575 0.0
H3828 H 0.166 0.57782 0.88615 0.0
H3829 H 0.16438 0.48297 0.86523 0.0
C3830 C 0.16695 0.5573 0.81826 0.0
C3831 C 0.16921 0.59134 0.81321 0.0
C3832 C 0.17153 0.61769 0.82246 0.0
C3833 C 0.17115 0.61122 0.83587 0.0
C3834 C 0.16884 0.57784 0.84046 0.0
C3835 C 0.16716 0.55115 0.83192 0.0
C3836 C 0.16569 0.51758 0.83962 0.0
C3837 C 0.13239 0.49857 0.83678 0.0
C3838 C 0.1969 0.49539 0.83652 0.0
C3839 C 0.16654 0.52951 0.85373 0.0
C3840 C 0.16804 0.56455 0.85388 0.0
C3841 C 0.1679 0.58185 0.8656 0.0
C3842 C 0.16627 0.56348 0.87731 0.0
C3843 C 0.16528 0.52742 0.87779 0.0
C3844 C 0.16556 0.51037 0.86557 0.0
H3845 H 0.23718 0.40931 0.57323 0.0
H3846 H 0.3319 0.42456 0.55244 0.0
H3847 H 0.36301 0.42756 0.57289 0.0
H3848 H 0.25724 0.46409 0.60085 0.0
H3849 H 0.23833 0.43649 0.61267 0.0
H3850 H 0.22252 0.43657 0.59647 0.0
H3851 H 0.23288 0.37206 0.59499 0.0
H3852 H 0.2487 0.37179 0.61119 0.0
H3853 H 0.27472 0.35524 0.59836 0.0
H3854 H 0.3855 0.43012 0.59624 0.0
H3855 H 0.39695 0.42842 0.61947 0.0
H3856 H 0.2899 0.40818 0.62672 0.0
C3857 C 0.26445 0.41352 0.57294 0.0
C3858 C 0.28154 0.417 0.56072 0.0
C3859 C 0.31751 0.4219 0.56126 0.0
C3860 C 0.33568 0.42369 0.57301 0.0
C3861 C 0.31835 0.42013 0.58472 0.0
C3862 C 0.28346 0.41482 0.58481 0.0
C3863 C 0.27157 0.41066 0.59889 0.0
C3864 C 0.24587 0.43861 0.60243 0.0
C3865 C 0.25603 0.37534 0.60098 0.0
C3866 C 0.30495 0.41461 0.60663 0.0
C3867 C 0.33152 0.42036 0.59816 0.0
C3868 C 0.36465 0.42544 0.60284 0.0
C3869 C 0.37101 0.4245 0.61626 0.0
C3870 C 0.34483 0.41813 0.62544 0.0
C3871 C 0.31103 0.41309 0.62029 0.0
loop_
_geom_bond_atom_site_label_1
_geom_bond_atom_site_label_2
_geom_bond_distance
_geom_bond_site_symmetry_2
_ccdc_geom_bond_type
Nd0 C2 2.836 . S
Nd0 O20 2.500 . S
Nd0 O21 2.492 . S
Nd0 O22 2.487 . S
Nd0 O23 2.682 . S
Nd0 O24 2.410 . S
Nd0 O29 2.414 . S
Nd0 O31 2.424 . S
Nd1 C11 2.836 . S
Nd1 O23 2.414 . S
Nd1 O25 2.424 . S
Nd1 O26 2.500 . S
Nd1 O27 2.492 . S
Nd1 O28 2.487 . S
Nd1 O29 2.682 . S
Nd1 O30 2.410 . S
C2 Nd0 2.836 . S
C2 C3 1.498 . S
C2 O20 1.258 . S
C2 O21 1.239 . S
C3 C2 1.498 . S
C3 C4 1.366 . S
C3 C8 1.407 . S
C4 C3 1.366 . S
C4 C5 1.392 1_455 S
C4 H32 0.930 . S
C5 C4 1.392 1_655 S
C5 C6 1.398 . S
C5 H33 0.929 . S
C6 C5 1.398 . S
C6 C7 1.352 1_655 S
C7 C6 1.352 1_455 S
C7 C8 1.384 . S
C7 H34 0.930 . S
C8 C3 1.407 . S
C8 C7 1.384 . S
C8 H35 0.929 . S
C9 O22 1.241 . S
C9 O23 1.273 . S
C10 O24 1.251 . S
C10 O25 1.268 . S
C11 Nd1 2.836 . S
C11 C12 1.498 . S
C11 O26 1.258 . S
C11 O27 1.239 . S
C12 C11 1.498 . S
C12 C13 1.366 . S
C12 C17 1.407 . S
C13 C12 1.366 . S
C13 C14 1.392 . S
C13 H36 0.930 . S
C14 C13 1.392 . S
C14 C15 1.398 . S
C14 H37 0.929 . S
C15 C14 1.398 . S
C15 C16 1.352 . S
C16 C15 1.352 . S
C16 C17 1.384 . S
C16 H38 0.930 . S
C17 C12 1.407 . S
C17 C16 1.384 . S
C17 H39 0.929 . S
C18 O28 1.241 . S
C18 O29 1.273 . S
C19 O30 1.251 . S
C19 O31 1.268 . S
O20 Nd0 2.500 . S
O20 C2 1.258 . S
O21 Nd0 2.492 . S
O21 C2 1.239 . S
O22 Nd0 2.487 . S
O22 C9 1.241 . S
O23 Nd0 2.682 . S
O23 Nd1 2.414 . S
O23 C9 1.273 . S
O24 Nd0 2.410 . S
O24 C10 1.251 . S
O25 Nd1 2.424 . S
O25 C10 1.268 . S
O26 Nd1 2.500 . S
O26 C11 1.258 . S
O27 Nd1 2.492 . S
O27 C11 1.239 . S
O28 Nd1 2.487 . S
O28 C18 1.241 . S
O29 Nd0 2.414 . S
O29 Nd1 2.682 . S
O29 C18 1.273 . S
O30 Nd1 2.410 . S
O30 C19 1.251 . S
O31 Nd0 2.424 . S
O31 C19 1.268 . S
H32 C4 0.930 . S
H33 C5 0.929 . S
H34 C7 0.930 . S
H35 C8 0.929 . S
H36 C13 0.930 . S
H37 C14 0.929 . S
H38 C16 0.930 . S
H39 C17 0.929 . S
Nd40 C42 2.836 . S
Nd40 O60 2.500 . S
Nd40 O61 2.492 . S
Nd40 O62 2.487 . S
Nd40 O63 2.682 . S
Nd40 O64 2.410 . S
Nd40 O69 2.414 . S
Nd40 O71 2.424 . S
Nd41 C51 2.836 . S
Nd41 O63 2.414 . S
Nd41 O65 2.424 . S
Nd41 O66 2.500 . S
Nd41 O67 2.492 . S
Nd41 O68 2.487 . S
Nd41 O69 2.682 . S
Nd41 O70 2.410 . S
C42 Nd40 2.836 . S
C42 C43 1.498 . S
C42 O60 1.258 . S
C42 O61 1.239 . S
C43 C42 1.498 . S
C43 C44 1.366 . S
C43 C48 1.407 . S
C44 C43 1.366 . S
C44 C45 1.392 . S
C44 H72 0.930 . S
C45 C44 1.392 . S
C45 C46 1.398 . S
C45 H73 0.929 . S
C46 C45 1.398 . S
C46 C47 1.352 . S
C47 C46 1.352 . S
C47 C48 1.384 . S
C47 H74 0.930 . S
C48 C43 1.407 . S
C48 C47 1.384 . S
C48 H75 0.929 . S
C49 O62 1.241 . S
C49 O63 1.273 . S
C50 O64 1.251 . S
C50 O65 1.268 . S
C51 Nd41 2.836 . S
C51 C52 1.498 . S
C51 O66 1.258 . S
C51 O67 1.239 . S
C52 C51 1.498 . S
C52 C53 1.366 . S
C52 C57 1.407 . S
C53 C52 1.366 . S
C53 C54 1.392 . S
C53 H76 0.930 . S
C54 C53 1.392 . S
C54 C55 1.398 . S
C54 H77 0.929 . S
C55 C54 1.398 . S
C55 C56 1.352 . S
C56 C55 1.352 . S
C56 C57 1.384 . S
C56 H78 0.930 . S
C57 C52 1.407 . S
C57 C56 1.384 . S
C57 H79 0.929 . S
C58 O68 1.241 . S
C58 O69 1.273 . S
C59 O70 1.251 . S
C59 O71 1.268 . S
O60 Nd40 2.500 . S
O60 C42 1.258 . S
O61 Nd40 2.492 . S
O61 C42 1.239 . S
O62 Nd40 2.487 . S
O62 C49 1.241 . S
O63 Nd40 2.682 . S
O63 Nd41 2.414 . S
O63 C49 1.273 . S
O64 Nd40 2.410 . S
O64 C50 1.251 . S
O65 Nd41 2.424 . S
O65 C50 1.268 . S
O66 Nd41 2.500 . S
O66 C51 1.258 . S
O67 Nd41 2.492 . S
O67 C51 1.239 . S
O68 Nd41 2.487 . S
O68 C58 1.241 . S
O69 Nd40 2.414 . S
O69 Nd41 2.682 . S
O69 C58 1.273 . S
O70 Nd41 2.410 . S
O70 C59 1.251 . S
O71 Nd40 2.424 . S
O71 C59 1.268 . S
H72 C44 0.930 . S
H73 C45 0.929 . S
H74 C47 0.930 . S
H75 C48 0.929 . S
H76 C53 0.930 . S
H77 C54 0.929 . S
H78 C56 0.930 . S
H79 C57 0.929 . S
Nd80 C82 2.836 . S
Nd80 O100 2.500 . S
Nd80 O101 2.492 . S
Nd80 O102 2.487 . S
Nd80 O103 2.682 . S
Nd80 O104 2.410 . S
Nd80 O109 2.414 . S
Nd80 O111 2.424 . S
Nd81 C91 2.836 . S
Nd81 O103 2.414 . S
Nd81 O105 2.424 . S
Nd81 O106 2.500 . S
Nd81 O107 2.492 . S
Nd81 O108 2.487 . S
Nd81 O109 2.682 . S
Nd81 O110 2.410 . S
C82 Nd80 2.836 . S
C82 C83 1.498 . S
C82 O100 1.258 . S
C82 O101 1.239 . S
C83 C82 1.498 . S
C83 C84 1.366 . S
C83 C88 1.407 . S
C84 C83 1.366 . S
C84 C85 1.392 . S
C84 H112 0.930 . S
C85 C84 1.392 . S
C85 C86 1.398 . S
C85 H113 0.929 . S
C86 C85 1.398 . S
C86 C87 1.352 . S
C87 C86 1.352 . S
C87 C88 1.384 . S
C87 H114 0.930 . S
C88 C83 1.407 . S
C88 C87 1.384 . S
C88 H115 0.929 . S
C89 O102 1.241 . S
C89 O103 1.273 . S
C90 O104 1.251 . S
C90 O105 1.268 . S
C91 Nd81 2.836 . S
C91 C92 1.498 . S
C91 O106 1.258 . S
C91 O107 1.239 . S
C92 C91 1.498 . S
C92 C93 1.366 . S
C92 C97 1.407 . S
C93 C92 1.366 . S
C93 C94 1.392 . S
C93 H116 0.930 . S
C94 C93 1.392 . S
C94 C95 1.398 . S
C94 H117 0.929 . S
C95 C94 1.398 . S
C95 C96 1.352 . S
C96 C95 1.352 . S
C96 C97 1.384 . S
C96 H118 0.930 . S
C97 C92 1.407 . S
C97 C96 1.384 . S
C97 H119 0.929 . S
C98 O108 1.241 . S
C98 O109 1.273 . S
C99 O110 1.251 . S
C99 O111 1.268 . S
O100 Nd80 2.500 . S
O100 C82 1.258 . S
O101 Nd80 2.492 . S
O101 C82 1.239 . S
O102 Nd80 2.487 . S
O102 C89 1.241 . S
O103 Nd80 2.682 . S
O103 Nd81 2.414 . S
O103 C89 1.273 . S
O104 Nd80 2.410 . S
O104 C90 1.251 . S
O105 Nd81 2.424 . S
O105 C90 1.268 . S
O106 Nd81 2.500 . S
O106 C91 1.258 . S
O107 Nd81 2.492 . S
O107 C91 1.239 . S
O108 Nd81 2.487 . S
O108 C98 1.241 . S
O109 Nd80 2.414 . S
O109 Nd81 2.682 . S
O109 C98 1.273 . S
O110 Nd81 2.410 . S
O110 C99 1.251 . S
O111 Nd80 2.424 . S
O111 C99 1.268 . S
H112 C84 0.930 . S
H113 C85 0.929 . S
H114 C87 0.930 . S
H115 C88 0.929 . S
H116 C93 0.930 . S
H117 C94 0.929 . S
H118 C96 0.930 . S
H119 C97 0.929 . S
Nd120 C122 2.836 . S
Nd120 O140 2.500 . S
Nd120 O141 2.492 . S
Nd120 O142 2.487 . S
Nd120 O143 2.682 . S
Nd120 O144 2.410 . S
Nd120 O149 2.414 . S
Nd120 O151 2.424 . S
Nd121 C131 2.836 . S
Nd121 O143 2.414 . S
Nd121 O145 2.424 . S
Nd121 O146 2.500 . S
Nd121 O147 2.492 . S
Nd121 O148 2.487 . S
Nd121 O149 2.682 . S
Nd121 O150 2.410 . S
C122 Nd120 2.836 . S
C122 C123 1.498 . S
C122 O140 1.258 . S
C122 O141 1.239 . S
C123 C122 1.498 . S
C123 C124 1.366 . S
C123 C128 1.407 . S
C124 C123 1.366 . S
C124 C125 1.392 . S
C124 H152 0.930 . S
C125 C124 1.392 . S
C125 C126 1.398 . S
C125 H153 0.929 . S
C126 C125 1.398 . S
C126 C127 1.352 . S
C127 C126 1.352 . S
C127 C128 1.384 . S
C127 H154 0.930 . S
C128 C123 1.407 . S
C128 C127 1.384 . S
C128 H155 0.929 . S
C129 O142 1.241 . S
C129 O143 1.273 . S
C130 O144 1.251 . S
C130 O145 1.268 . S
C131 Nd121 2.836 . S
C131 C132 1.498 . S
C131 O146 1.258 . S
C131 O147 1.239 . S
C132 C131 1.498 . S
C132 C133 1.366 . S
C132 C137 1.407 . S
C133 C132 1.366 . S
C133 C134 1.392 . S
C133 H156 0.930 . S
C134 C133 1.392 . S
C134 C135 1.398 . S
C134 H157 0.929 . S
C135 C134 1.398 . S
C135 C136 1.352 . S
C136 C135 1.352 . S
C136 C137 1.384 . S
C136 H158 0.930 . S
C137 C132 1.407 . S
C137 C136 1.384 . S
C137 H159 0.929 . S
C138 O148 1.241 . S
C138 O149 1.273 . S
C139 O150 1.251 . S
C139 O151 1.268 . S
O140 Nd120 2.500 . S
O140 C122 1.258 . S
O141 Nd120 2.492 . S
O141 C122 1.239 . S
O142 Nd120 2.487 . S
O142 C129 1.241 . S
O143 Nd120 2.682 . S
O143 Nd121 2.414 . S
O143 C129 1.273 . S
O144 Nd120 2.410 . S
O144 C130 1.251 . S
O145 Nd121 2.424 . S
O145 C130 1.268 . S
O146 Nd121 2.500 . S
O146 C131 1.258 . S
O147 Nd121 2.492 . S
O147 C131 1.239 . S
O148 Nd121 2.487 . S
O148 C138 1.241 . S
O149 Nd120 2.414 . S
O149 Nd121 2.682 . S
O149 C138 1.273 . S
O150 Nd121 2.410 . S
O150 C139 1.251 . S
O151 Nd120 2.424 . S
O151 C139 1.268 . S
H152 C124 0.930 . S
H153 C125 0.929 . S
H154 C127 0.930 . S
H155 C128 0.929 . S
H156 C133 0.930 . S
H157 C134 0.929 . S
H158 C136 0.930 . S
H159 C137 0.929 . S
Nd160 C162 2.836 . S
Nd160 O180 2.500 . S
Nd160 O181 2.492 . S
Nd160 O182 2.487 . S
Nd160 O183 2.682 . S
Nd160 O184 2.410 . S
Nd160 O189 2.414 . S
Nd160 O191 2.424 . S
Nd161 C171 2.836 . S
Nd161 O183 2.414 . S
Nd161 O185 2.424 . S
Nd161 O186 2.500 . S
Nd161 O187 2.492 . S
Nd161 O188 2.487 . S
Nd161 O189 2.682 . S
Nd161 O190 2.410 . S
C162 Nd160 2.836 . S
C162 C163 1.498 . S
C162 O180 1.258 . S
C162 O181 1.239 . S
C163 C162 1.498 . S
C163 C164 1.366 . S
C163 C168 1.407 . S
C164 C163 1.366 . S
C164 C165 1.392 1_455 S
C164 H192 0.930 . S
C165 C164 1.392 1_655 S
C165 C166 1.398 . S
C165 H193 0.929 . S
C166 C165 1.398 . S
C166 C167 1.352 1_655 S
C167 C166 1.352 1_455 S
C167 C168 1.384 . S
C167 H194 0.930 . S
C168 C163 1.407 . S
C168 C167 1.384 . S
C168 H195 0.929 . S
C169 O182 1.241 . S
C169 O183 1.273 . S
C170 O184 1.251 . S
C170 O185 1.268 . S
C171 Nd161 2.836 . S
C171 C172 1.498 . S
C171 O186 1.258 . S
C171 O187 1.239 . S
C172 C171 1.498 . S
C172 C173 1.366 . S
C172 C177 1.407 . S
C173 C172 1.366 . S
C173 C174 1.392 . S
C173 H196 0.930 . S
C174 C173 1.392 . S
C174 C175 1.398 . S
C174 H197 0.929 . S
C175 C174 1.398 . S
C175 C176 1.352 . S
C176 C175 1.352 . S
C176 C177 1.384 . S
C176 H198 0.930 . S
C177 C172 1.407 . S
C177 C176 1.384 . S
C177 H199 0.929 . S
C178 O188 1.241 . S
C178 O189 1.273 . S
C179 O190 1.251 . S
C179 O191 1.268 . S
O180 Nd160 2.500 . S
O180 C162 1.258 . S
O181 Nd160 2.492 . S
O181 C162 1.239 . S
O182 Nd160 2.487 . S
O182 C169 1.241 . S
O183 Nd160 2.682 . S
O183 Nd161 2.414 . S
O183 C169 1.273 . S
O184 Nd160 2.410 . S
O184 C170 1.251 . S
O185 Nd161 2.424 . S
O185 C170 1.268 . S
O186 Nd161 2.500 . S
O186 C171 1.258 . S
O187 Nd161 2.492 . S
O187 C171 1.239 . S
O188 Nd161 2.487 . S
O188 C178 1.241 . S
O189 Nd160 2.414 . S
O189 Nd161 2.682 . S
O189 C178 1.273 . S
O190 Nd161 2.410 . S
O190 C179 1.251 . S
O191 Nd160 2.424 . S
O191 C179 1.268 . S
H192 C164 0.930 . S
H193 C165 0.929 . S
H194 C167 0.930 . S
H195 C168 0.929 . S
H196 C173 0.930 . S
H197 C174 0.929 . S
H198 C176 0.930 . S
H199 C177 0.929 . S
Nd200 C202 2.836 . S
Nd200 O220 2.500 . S
Nd200 O221 2.492 . S
Nd200 O222 2.487 . S
Nd200 O223 2.682 . S
Nd200 O224 2.410 . S
Nd200 O229 2.414 . S
Nd200 O231 2.424 . S
Nd201 C211 2.836 . S
Nd201 O223 2.414 . S
Nd201 O225 2.424 . S
Nd201 O226 2.500 . S
Nd201 O227 2.492 . S
Nd201 O228 2.487 . S
Nd201 O229 2.682 . S
Nd201 O230 2.410 . S
C202 Nd200 2.836 . S
C202 C203 1.498 . S
C202 O220 1.258 . S
C202 O221 1.239 . S
C203 C202 1.498 . S
C203 C204 1.366 . S
C203 C208 1.407 . S
C204 C203 1.366 . S
C204 C205 1.392 . S
C204 H232 0.930 . S
C205 C204 1.392 . S
C205 C206 1.398 . S
C205 H233 0.929 . S
C206 C205 1.398 . S
C206 C207 1.352 . S
C207 C206 1.352 . S
C207 C208 1.384 . S
C207 H234 0.930 . S
C208 C203 1.407 . S
C208 C207 1.384 . S
C208 H235 0.929 . S
C209 O222 1.241 . S
C209 O223 1.273 . S
C210 O224 1.251 . S
C210 O225 1.268 . S
C211 Nd201 2.836 . S
C211 C212 1.498 . S
C211 O226 1.258 . S
C211 O227 1.239 . S
C212 C211 1.498 . S
C212 C213 1.366 . S
C212 C217 1.407 . S
C213 C212 1.366 . S
C213 C214 1.392 . S
C213 H236 0.930 . S
C214 C213 1.392 . S
C214 C215 1.398 . S
C214 H237 0.929 . S
C215 C214 1.398 . S
C215 C216 1.352 . S
C216 C215 1.352 . S
C216 C217 1.384 . S
C216 H238 0.930 . S
C217 C212 1.407 . S
C217 C216 1.384 . S
C217 H239 0.929 . S
C218 O228 1.241 . S
C218 O229 1.273 . S
C219 O230 1.251 . S
C219 O231 1.268 . S
O220 Nd200 2.500 . S
O220 C202 1.258 . S
O221 Nd200 2.492 . S
O221 C202 1.239 . S
O222 Nd200 2.487 . S
O222 C209 1.241 . S
O223 Nd200 2.682 . S
O223 Nd201 2.414 . S
O223 C209 1.273 . S
O224 Nd200 2.410 . S
O224 C210 1.251 . S
O225 Nd201 2.424 . S
O225 C210 1.268 . S
O226 Nd201 2.500 . S
O226 C211 1.258 . S
O227 Nd201 2.492 . S
O227 C211 1.239 . S
O228 Nd201 2.487 . S
O228 C218 1.241 . S
O229 Nd200 2.414 . S
O229 Nd201 2.682 . S
O229 C218 1.273 . S
O230 Nd201 2.410 . S
O230 C219 1.251 . S
O231 Nd200 2.424 . S
O231 C219 1.268 . S
H232 C204 0.930 . S
H233 C205 0.929 . S
H234 C207 0.930 . S
H235 C208 0.929 . S
H236 C213 0.930 . S
H237 C214 0.929 . S
H238 C216 0.930 . S
H239 C217 0.929 . S
Nd240 C242 2.836 . S
Nd240 O260 2.500 . S
Nd240 O261 2.492 . S
Nd240 O262 2.487 . S
Nd240 O263 2.682 . S
Nd240 O264 2.410 . S
Nd240 O269 2.414 . S
Nd240 O271 2.424 . S
Nd241 C251 2.836 . S
Nd241 O263 2.414 . S
Nd241 O265 2.424 . S
Nd241 O266 2.500 . S
Nd241 O267 2.492 . S
Nd241 O268 2.487 . S
Nd241 O269 2.682 . S
Nd241 O270 2.410 . S
C242 Nd240 2.836 . S
C242 C243 1.498 . S
C242 O260 1.258 . S
C242 O261 1.239 . S
C243 C242 1.498 . S
C243 C244 1.366 . S
C243 C248 1.407 . S
C244 C243 1.366 . S
C244 C245 1.392 . S
C244 H272 0.930 . S
C245 C244 1.392 . S
C245 C246 1.398 . S
C245 H273 0.929 . S
C246 C245 1.398 . S
C246 C247 1.352 . S
C247 C246 1.352 . S
C247 C248 1.384 . S
C247 H274 0.930 . S
C248 C243 1.407 . S
C248 C247 1.384 . S
C248 H275 0.929 . S
C249 O262 1.241 . S
C249 O263 1.273 . S
C250 O264 1.251 . S
C250 O265 1.268 . S
C251 Nd241 2.836 . S
C251 C252 1.498 . S
C251 O266 1.258 . S
C251 O267 1.239 . S
C252 C251 1.498 . S
C252 C253 1.366 . S
C252 C257 1.407 . S
C253 C252 1.366 . S
C253 C254 1.392 . S
C253 H276 0.930 . S
C254 C253 1.392 . S
C254 C255 1.398 . S
C254 H277 0.929 . S
C255 C254 1.398 . S
C255 C256 1.352 . S
C256 C255 1.352 . S
C256 C257 1.384 . S
C256 H278 0.930 . S
C257 C252 1.407 . S
C257 C256 1.384 . S
C257 H279 0.929 . S
C258 O268 1.241 . S
C258 O269 1.273 . S
C259 O270 1.251 . S
C259 O271 1.268 . S
O260 Nd240 2.500 . S
O260 C242 1.258 . S
O261 Nd240 2.492 . S
O261 C242 1.239 . S
O262 Nd240 2.487 . S
O262 C249 1.241 . S
O263 Nd240 2.682 . S
O263 Nd241 2.414 . S
O263 C249 1.273 . S
O264 Nd240 2.410 . S
O264 C250 1.251 . S
O265 Nd241 2.424 . S
O265 C250 1.268 . S
O266 Nd241 2.500 . S
O266 C251 1.258 . S
O267 Nd241 2.492 . S
O267 C251 1.239 . S
O268 Nd241 2.487 . S
O268 C258 1.241 . S
O269 Nd240 2.414 . S
O269 Nd241 2.682 . S
O269 C258 1.273 . S
O270 Nd241 2.410 . S
O270 C259 1.251 . S
O271 Nd240 2.424 . S
O271 C259 1.268 . S
H272 C244 0.930 . S
H273 C245 0.929 . S
H274 C247 0.930 . S
H275 C248 0.929 . S
H276 C253 0.930 . S
H277 C254 0.929 . S
H278 C256 0.930 . S
H279 C257 0.929 . S
Nd280 C282 2.836 . S
Nd280 O300 2.500 . S
Nd280 O301 2.492 . S
Nd280 O302 2.487 . S
Nd280 O303 2.682 . S
Nd280 O304 2.410 . S
Nd280 O309 2.414 . S
Nd280 O311 2.424 . S
Nd281 C291 2.836 . S
Nd281 O303 2.414 . S
Nd281 O305 2.424 . S
Nd281 O306 2.500 . S
Nd281 O307 2.492 . S
Nd281 O308 2.487 . S
Nd281 O309 2.682 . S
Nd281 O310 2.410 . S
C282 Nd280 2.836 . S
C282 C283 1.498 . S
C282 O300 1.258 . S
C282 O301 1.239 . S
C283 C282 1.498 . S
C283 C284 1.366 . S
C283 C288 1.407 . S
C284 C283 1.366 . S
C284 C285 1.392 . S
C284 H312 0.930 . S
C285 C284 1.392 . S
C285 C286 1.398 . S
C285 H313 0.929 . S
C286 C285 1.398 . S
C286 C287 1.352 . S
C287 C286 1.352 . S
C287 C288 1.384 . S
C287 H314 0.930 . S
C288 C283 1.407 . S
C288 C287 1.384 . S
C288 H315 0.929 . S
C289 O302 1.241 . S
C289 O303 1.273 . S
C290 O304 1.251 . S
C290 O305 1.268 . S
C291 Nd281 2.836 . S
C291 C292 1.498 . S
C291 O306 1.258 . S
C291 O307 1.239 . S
C292 C291 1.498 . S
C292 C293 1.366 . S
C292 C297 1.407 . S
C293 C292 1.366 . S
C293 C294 1.392 . S
C293 H316 0.930 . S
C294 C293 1.392 . S
C294 C295 1.398 . S
C294 H317 0.929 . S
C295 C294 1.398 . S
C295 C296 1.352 . S
C296 C295 1.352 . S
C296 C297 1.384 . S
C296 H318 0.930 . S
C297 C292 1.407 . S
C297 C296 1.384 . S
C297 H319 0.929 . S
C298 O308 1.241 . S
C298 O309 1.273 . S
C299 O310 1.251 . S
C299 O311 1.268 . S
O300 Nd280 2.500 . S
O300 C282 1.258 . S
O301 Nd280 2.492 . S
O301 C282 1.239 . S
O302 Nd280 2.487 . S
O302 C289 1.241 . S
O303 Nd280 2.682 . S
O303 Nd281 2.414 . S
O303 C289 1.273 . S
O304 Nd280 2.410 . S
O304 C290 1.251 . S
O305 Nd281 2.424 . S
O305 C290 1.268 . S
O306 Nd281 2.500 . S
O306 C291 1.258 . S
O307 Nd281 2.492 . S
O307 C291 1.239 . S
O308 Nd281 2.487 . S
O308 C298 1.241 . S
O309 Nd280 2.414 . S
O309 Nd281 2.682 . S
O309 C298 1.273 . S
O310 Nd281 2.410 . S
O310 C299 1.251 . S
O311 Nd280 2.424 . S
O311 C299 1.268 . S
H312 C284 0.930 . S
H313 C285 0.929 . S
H314 C287 0.930 . S
H315 C288 0.929 . S
H316 C293 0.930 . S
H317 C294 0.929 . S
H318 C296 0.930 . S
H319 C297 0.929 . S
Nd320 C322 2.836 . S
Nd320 O340 2.500 . S
Nd320 O341 2.492 . S
Nd320 O342 2.487 . S
Nd320 O343 2.682 . S
Nd320 O344 2.410 . S
Nd320 O349 2.414 . S
Nd320 O351 2.424 . S
Nd321 C331 2.836 . S
Nd321 O343 2.414 . S
Nd321 O345 2.424 . S
Nd321 O346 2.500 . S
Nd321 O347 2.492 . S
Nd321 O348 2.487 . S
Nd321 O349 2.682 . S
Nd321 O350 2.410 . S
C322 Nd320 2.836 . S
C322 C323 1.498 . S
C322 O340 1.258 . S
C322 O341 1.239 . S
C323 C322 1.498 . S
C323 C324 1.366 . S
C323 C328 1.407 . S
C324 C323 1.366 . S
C324 C325 1.392 . S
C324 H352 0.930 . S
C325 C324 1.392 . S
C325 C326 1.398 . S
C325 H353 0.929 . S
C326 C325 1.398 . S
C326 C327 1.352 . S
C327 C326 1.352 . S
C327 C328 1.384 . S
C327 H354 0.930 . S
C328 C323 1.407 . S
C328 C327 1.384 . S
C328 H355 0.929 . S
C329 O342 1.241 . S
C329 O343 1.273 . S
C330 O344 1.251 . S
C330 O345 1.268 . S
C331 Nd321 2.836 . S
C331 C332 1.498 . S
C331 O346 1.258 . S
C331 O347 1.239 . S
C332 C331 1.498 . S
C332 C333 1.366 . S
C332 C337 1.407 . S
C333 C332 1.366 . S
C333 C334 1.392 1_655 S
C333 H356 0.930 . S
C334 C333 1.392 1_455 S
C334 C335 1.398 . S
C334 H357 0.929 . S
C335 C334 1.398 . S
C335 C336 1.352 1_455 S
C336 C335 1.352 1_655 S
C336 C337 1.384 . S
C336 H358 0.930 . S
C337 C332 1.407 . S
C337 C336 1.384 . S
C337 H359 0.929 . S
C338 O348 1.241 . S
C338 O349 1.273 . S
C339 O350 1.251 . S
C339 O351 1.268 . S
O340 Nd320 2.500 . S
O340 C322 1.258 . S
O341 Nd320 2.492 . S
O341 C322 1.239 . S
O342 Nd320 2.487 . S
O342 C329 1.241 . S
O343 Nd320 2.682 . S
O343 Nd321 2.414 . S
O343 C329 1.273 . S
O344 Nd320 2.410 . S
O344 C330 1.251 . S
O345 Nd321 2.424 . S
O345 C330 1.268 . S
O346 Nd321 2.500 . S
O346 C331 1.258 . S
O347 Nd321 2.492 . S
O347 C331 1.239 . S
O348 Nd321 2.487 . S
O348 C338 1.241 . S
O349 Nd320 2.414 . S
O349 Nd321 2.682 . S
O349 C338 1.273 . S
O350 Nd321 2.410 . S
O350 C339 1.251 . S
O351 Nd320 2.424 . S
O351 C339 1.268 . S
H352 C324 0.930 . S
H353 C325 0.929 . S
H354 C327 0.930 . S
H355 C328 0.929 . S
H356 C333 0.930 . S
H357 C334 0.929 . S
H358 C336 0.930 . S
H359 C337 0.929 . S
Nd360 C362 2.836 . S
Nd360 O380 2.500 . S
Nd360 O381 2.492 . S
Nd360 O382 2.487 . S
Nd360 O383 2.682 . S
Nd360 O384 2.410 . S
Nd360 O389 2.414 . S
Nd360 O391 2.424 . S
Nd361 C371 2.836 . S
Nd361 O383 2.414 . S
Nd361 O385 2.424 . S
Nd361 O386 2.500 . S
Nd361 O387 2.492 . S
Nd361 O388 2.487 . S
Nd361 O389 2.682 . S
Nd361 O390 2.410 . S
C362 Nd360 2.836 . S
C362 C363 1.498 . S
C362 O380 1.258 . S
C362 O381 1.239 . S
C363 C362 1.498 . S
C363 C364 1.366 . S
C363 C368 1.407 . S
C364 C363 1.366 . S
C364 C365 1.392 . S
C364 H392 0.930 . S
C365 C364 1.392 . S
C365 C366 1.398 . S
C365 H393 0.929 . S
C366 C365 1.398 . S
C366 C367 1.352 . S
C367 C366 1.352 . S
C367 C368 1.384 . S
C367 H394 0.930 . S
C368 C363 1.407 . S
C368 C367 1.384 . S
C368 H395 0.929 . S
C369 O382 1.241 . S
C369 O383 1.273 . S
C370 O384 1.251 . S
C370 O385 1.268 . S
C371 Nd361 2.836 . S
C371 C372 1.498 . S
C371 O386 1.258 . S
C371 O387 1.239 . S
C372 C371 1.498 . S
C372 C373 1.366 . S
C372 C377 1.407 . S
C373 C372 1.366 . S
C373 C374 1.392 . S
C373 H396 0.930 . S
C374 C373 1.392 . S
C374 C375 1.398 . S
C374 H397 0.929 . S
C375 C374 1.398 . S
C375 C376 1.352 . S
C376 C375 1.352 . S
C376 C377 1.384 . S
C376 H398 0.930 . S
C377 C372 1.407 . S
C377 C376 1.384 . S
C377 H399 0.929 . S
C378 O388 1.241 . S
C378 O389 1.273 . S
C379 O390 1.251 . S
C379 O391 1.268 . S
O380 Nd360 2.500 . S
O380 C362 1.258 . S
O381 Nd360 2.492 . S
O381 C362 1.239 . S
O382 Nd360 2.487 . S
O382 C369 1.241 . S
O383 Nd360 2.682 . S
O383 Nd361 2.414 . S
O383 C369 1.273 . S
O384 Nd360 2.410 . S
O384 C370 1.251 . S
O385 Nd361 2.424 . S
O385 C370 1.268 . S
O386 Nd361 2.500 . S
O386 C371 1.258 . S
O387 Nd361 2.492 . S
O387 C371 1.239 . S
O388 Nd361 2.487 . S
O388 C378 1.241 . S
O389 Nd360 2.414 . S
O389 Nd361 2.682 . S
O389 C378 1.273 . S
O390 Nd361 2.410 . S
O390 C379 1.251 . S
O391 Nd360 2.424 . S
O391 C379 1.268 . S
H392 C364 0.930 . S
H393 C365 0.929 . S
H394 C367 0.930 . S
H395 C368 0.929 . S
H396 C373 0.930 . S
H397 C374 0.929 . S
H398 C376 0.930 . S
H399 C377 0.929 . S
Nd400 C402 2.836 . S
Nd400 O420 2.500 . S
Nd400 O421 2.492 . S
Nd400 O422 2.487 . S
Nd400 O423 2.682 . S
Nd400 O424 2.410 . S
Nd400 O429 2.414 . S
Nd400 O431 2.424 . S
Nd401 C411 2.836 . S
Nd401 O423 2.414 . S
Nd401 O425 2.424 . S
Nd401 O426 2.500 . S
Nd401 O427 2.492 . S
Nd401 O428 2.487 . S
Nd401 O429 2.682 . S
Nd401 O430 2.410 . S
C402 Nd400 2.836 . S
C402 C403 1.498 . S
C402 O420 1.258 . S
C402 O421 1.239 . S
C403 C402 1.498 . S
C403 C404 1.366 . S
C403 C408 1.407 . S
C404 C403 1.366 . S
C404 C405 1.392 . S
C404 H432 0.930 . S
C405 C404 1.392 . S
C405 C406 1.398 . S
C405 H433 0.929 . S
C406 C405 1.398 . S
C406 C407 1.352 . S
C407 C406 1.352 . S
C407 C408 1.384 . S
C407 H434 0.930 . S
C408 C403 1.407 . S
C408 C407 1.384 . S
C408 H435 0.929 . S
C409 O422 1.241 . S
C409 O423 1.273 . S
C410 O424 1.251 . S
C410 O425 1.268 . S
C411 Nd401 2.836 . S
C411 C412 1.498 . S
C411 O426 1.258 . S
C411 O427 1.239 . S
C412 C411 1.498 . S
C412 C413 1.366 . S
C412 C417 1.407 . S
C413 C412 1.366 . S
C413 C414 1.392 . S
C413 H436 0.930 . S
C414 C413 1.392 . S
C414 C415 1.398 . S
C414 H437 0.929 . S
C415 C414 1.398 . S
C415 C416 1.352 . S
C416 C415 1.352 . S
C416 C417 1.384 . S
C416 H438 0.930 . S
C417 C412 1.407 . S
C417 C416 1.384 . S
C417 H439 0.929 . S
C418 O428 1.241 . S
C418 O429 1.273 . S
C419 O430 1.251 . S
C419 O431 1.268 . S
O420 Nd400 2.500 . S
O420 C402 1.258 . S
O421 Nd400 2.492 . S
O421 C402 1.239 . S
O422 Nd400 2.487 . S
O422 C409 1.241 . S
O423 Nd400 2.682 . S
O423 Nd401 2.414 . S
O423 C409 1.273 . S
O424 Nd400 2.410 . S
O424 C410 1.251 . S
O425 Nd401 2.424 . S
O425 C410 1.268 . S
O426 Nd401 2.500 . S
O426 C411 1.258 . S
O427 Nd401 2.492 . S
O427 C411 1.239 . S
O428 Nd401 2.487 . S
O428 C418 1.241 . S
O429 Nd400 2.414 . S
O429 Nd401 2.682 . S
O429 C418 1.273 . S
O430 Nd401 2.410 . S
O430 C419 1.251 . S
O431 Nd400 2.424 . S
O431 C419 1.268 . S
H432 C404 0.930 . S
H433 C405 0.929 . S
H434 C407 0.930 . S
H435 C408 0.929 . S
H436 C413 0.930 . S
H437 C414 0.929 . S
H438 C416 0.930 . S
H439 C417 0.929 . S
Nd440 C442 2.836 . S
Nd440 O460 2.500 . S
Nd440 O461 2.492 . S
Nd440 O462 2.487 . S
Nd440 O463 2.682 . S
Nd440 O464 2.410 . S
Nd440 O469 2.414 . S
Nd440 O471 2.424 . S
Nd441 C451 2.836 . S
Nd441 O463 2.414 . S
Nd441 O465 2.424 . S
Nd441 O466 2.500 . S
Nd441 O467 2.492 . S
Nd441 O468 2.487 . S
Nd441 O469 2.682 . S
Nd441 O470 2.410 . S
C442 Nd440 2.836 . S
C442 C443 1.498 . S
C442 O460 1.258 . S
C442 O461 1.239 . S
C443 C442 1.498 . S
C443 C444 1.366 . S
C443 C448 1.407 . S
C444 C443 1.366 . S
C444 C445 1.392 . S
C444 H472 0.930 . S
C445 C444 1.392 . S
C445 C446 1.398 . S
C445 H473 0.929 . S
C446 C445 1.398 . S
C446 C447 1.352 . S
C447 C446 1.352 . S
C447 C448 1.384 . S
C447 H474 0.930 . S
C448 C443 1.407 . S
C448 C447 1.384 . S
C448 H475 0.929 . S
C449 O462 1.241 . S
C449 O463 1.273 . S
C450 O464 1.251 . S
C450 O465 1.268 . S
C451 Nd441 2.836 . S
C451 C452 1.498 . S
C451 O466 1.258 . S
C451 O467 1.239 . S
C452 C451 1.498 . S
C452 C453 1.366 . S
C452 C457 1.407 . S
C453 C452 1.366 . S
C453 C454 1.392 . S
C453 H476 0.930 . S
C454 C453 1.392 . S
C454 C455 1.398 . S
C454 H477 0.929 . S
C455 C454 1.398 . S
C455 C456 1.352 . S
C456 C455 1.352 . S
C456 C457 1.384 . S
C456 H478 0.930 . S
C457 C452 1.407 . S
C457 C456 1.384 . S
C457 H479 0.929 . S
C458 O468 1.241 . S
C458 O469 1.273 . S
C459 O470 1.251 . S
C459 O471 1.268 . S
O460 Nd440 2.500 . S
O460 C442 1.258 . S
O461 Nd440 2.492 . S
O461 C442 1.239 . S
O462 Nd440 2.487 . S
O462 C449 1.241 . S
O463 Nd440 2.682 . S
O463 Nd441 2.414 . S
O463 C449 1.273 . S
O464 Nd440 2.410 . S
O464 C450 1.251 . S
O465 Nd441 2.424 . S
O465 C450 1.268 . S
O466 Nd441 2.500 . S
O466 C451 1.258 . S
O467 Nd441 2.492 . S
O467 C451 1.239 . S
O468 Nd441 2.487 . S
O468 C458 1.241 . S
O469 Nd440 2.414 . S
O469 Nd441 2.682 . S
O469 C458 1.273 . S
O470 Nd441 2.410 . S
O470 C459 1.251 . S
O471 Nd440 2.424 . S
O471 C459 1.268 . S
H472 C444 0.930 . S
H473 C445 0.929 . S
H474 C447 0.930 . S
H475 C448 0.929 . S
H476 C453 0.930 . S
H477 C454 0.929 . S
H478 C456 0.930 . S
H479 C457 0.929 . S
Nd480 C482 2.836 . S
Nd480 O500 2.500 . S
Nd480 O501 2.492 . S
Nd480 O502 2.487 . S
Nd480 O503 2.682 . S
Nd480 O504 2.410 . S
Nd480 O509 2.414 . S
Nd480 O511 2.424 . S
Nd481 C491 2.836 . S
Nd481 O503 2.414 . S
Nd481 O505 2.424 . S
Nd481 O506 2.500 . S
Nd481 O507 2.492 . S
Nd481 O508 2.487 . S
Nd481 O509 2.682 . S
Nd481 O510 2.410 . S
C482 Nd480 2.836 . S
C482 C483 1.498 . S
C482 O500 1.258 . S
C482 O501 1.239 . S
C483 C482 1.498 . S
C483 C484 1.366 . S
C483 C488 1.407 . S
C484 C483 1.366 . S
C484 C485 1.392 . S
C484 H512 0.930 . S
C485 C484 1.392 . S
C485 C486 1.398 . S
C485 H513 0.929 . S
C486 C485 1.398 . S
C486 C487 1.352 . S
C487 C486 1.352 . S
C487 C488 1.384 . S
C487 H514 0.930 . S
C488 C483 1.407 . S
C488 C487 1.384 . S
C488 H515 0.929 . S
C489 O502 1.241 . S
C489 O503 1.273 . S
C490 O504 1.251 . S
C490 O505 1.268 . S
C491 Nd481 2.836 . S
C491 C492 1.498 . S
C491 O506 1.258 . S
C491 O507 1.239 . S
C492 C491 1.498 . S
C492 C493 1.366 . S
C492 C497 1.407 . S
C493 C492 1.366 . S
C493 C494 1.392 1_655 S
C493 H516 0.930 . S
C494 C493 1.392 1_455 S
C494 C495 1.398 . S
C494 H517 0.929 . S
C495 C494 1.398 . S
C495 C496 1.352 1_455 S
C496 C495 1.352 1_655 S
C496 C497 1.384 . S
C496 H518 0.930 . S
C497 C492 1.407 . S
C497 C496 1.384 . S
C497 H519 0.929 . S
C498 O508 1.241 . S
C498 O509 1.273 . S
C499 O510 1.251 . S
C499 O511 1.268 . S
O500 Nd480 2.500 . S
O500 C482 1.258 . S
O501 Nd480 2.492 . S
O501 C482 1.239 . S
O502 Nd480 2.487 . S
O502 C489 1.241 . S
O503 Nd480 2.682 . S
O503 Nd481 2.414 . S
O503 C489 1.273 . S
O504 Nd480 2.410 . S
O504 C490 1.251 . S
O505 Nd481 2.424 . S
O505 C490 1.268 . S
O506 Nd481 2.500 . S
O506 C491 1.258 . S
O507 Nd481 2.492 . S
O507 C491 1.239 . S
O508 Nd481 2.487 . S
O508 C498 1.241 . S
O509 Nd480 2.414 . S
O509 Nd481 2.682 . S
O509 C498 1.273 . S
O510 Nd481 2.410 . S
O510 C499 1.251 . S
O511 Nd480 2.424 . S
O511 C499 1.268 . S
H512 C484 0.930 . S
H513 C485 0.929 . S
H514 C487 0.930 . S
H515 C488 0.929 . S
H516 C493 0.930 . S
H517 C494 0.929 . S
H518 C496 0.930 . S
H519 C497 0.929 . S
Nd520 C522 2.836 . S
Nd520 O540 2.500 . S
Nd520 O541 2.492 . S
Nd520 O542 2.487 . S
Nd520 O543 2.682 . S
Nd520 O544 2.410 . S
Nd520 O549 2.414 . S
Nd520 O551 2.424 . S
Nd521 C531 2.836 . S
Nd521 O543 2.414 . S
Nd521 O545 2.424 . S
Nd521 O546 2.500 . S
Nd521 O547 2.492 . S
Nd521 O548 2.487 . S
Nd521 O549 2.682 . S
Nd521 O550 2.410 . S
C522 Nd520 2.836 . S
C522 C523 1.498 . S
C522 O540 1.258 . S
C522 O541 1.239 . S
C523 C522 1.498 . S
C523 C524 1.366 . S
C523 C528 1.407 . S
C524 C523 1.366 . S
C524 C525 1.392 . S
C524 H552 0.930 . S
C525 C524 1.392 . S
C525 C526 1.398 . S
C525 H553 0.929 . S
C526 C525 1.398 . S
C526 C527 1.352 . S
C527 C526 1.352 . S
C527 C528 1.384 . S
C527 H554 0.930 . S
C528 C523 1.407 . S
C528 C527 1.384 . S
C528 H555 0.929 . S
C529 O542 1.241 . S
C529 O543 1.273 . S
C530 O544 1.251 . S
C530 O545 1.268 . S
C531 Nd521 2.836 . S
C531 C532 1.498 . S
C531 O546 1.258 . S
C531 O547 1.239 . S
C532 C531 1.498 . S
C532 C533 1.366 . S
C532 C537 1.407 . S
C533 C532 1.366 . S
C533 C534 1.392 . S
C533 H556 0.930 . S
C534 C533 1.392 . S
C534 C535 1.398 . S
C534 H557 0.929 . S
C535 C534 1.398 . S
C535 C536 1.352 . S
C536 C535 1.352 . S
C536 C537 1.384 . S
C536 H558 0.930 . S
C537 C532 1.407 . S
C537 C536 1.384 . S
C537 H559 0.929 . S
C538 O548 1.241 . S
C538 O549 1.273 . S
C539 O550 1.251 . S
C539 O551 1.268 . S
O540 Nd520 2.500 . S
O540 C522 1.258 . S
O541 Nd520 2.492 . S
O541 C522 1.239 . S
O542 Nd520 2.487 . S
O542 C529 1.241 . S
O543 Nd520 2.682 . S
O543 Nd521 2.414 . S
O543 C529 1.273 . S
O544 Nd520 2.410 . S
O544 C530 1.251 . S
O545 Nd521 2.424 . S
O545 C530 1.268 . S
O546 Nd521 2.500 . S
O546 C531 1.258 . S
O547 Nd521 2.492 . S
O547 C531 1.239 . S
O548 Nd521 2.487 . S
O548 C538 1.241 . S
O549 Nd520 2.414 . S
O549 Nd521 2.682 . S
O549 C538 1.273 . S
O550 Nd521 2.410 . S
O550 C539 1.251 . S
O551 Nd520 2.424 . S
O551 C539 1.268 . S
H552 C524 0.930 . S
H553 C525 0.929 . S
H554 C527 0.930 . S
H555 C528 0.929 . S
H556 C533 0.930 . S
H557 C534 0.929 . S
H558 C536 0.930 . S
H559 C537 0.929 . S
Nd560 C562 2.836 . S
Nd560 O580 2.500 . S
Nd560 O581 2.492 . S
Nd560 O582 2.487 . S
Nd560 O583 2.682 . S
Nd560 O584 2.410 . S
Nd560 O589 2.414 . S
Nd560 O591 2.424 . S
Nd561 C571 2.836 . S
Nd561 O583 2.414 . S
Nd561 O585 2.424 . S
Nd561 O586 2.500 . S
Nd561 O587 2.492 . S
Nd561 O588 2.487 . S
Nd561 O589 2.682 . S
Nd561 O590 2.410 . S
C562 Nd560 2.836 . S
C562 C563 1.498 . S
C562 O580 1.258 . S
C562 O581 1.239 . S
C563 C562 1.498 . S
C563 C564 1.366 . S
C563 C568 1.407 . S
C564 C563 1.366 . S
C564 C565 1.392 . S
C564 H592 0.930 . S
C565 C564 1.392 . S
C565 C566 1.398 . S
C565 H593 0.929 . S
C566 C565 1.398 . S
C566 C567 1.352 . S
C567 C566 1.352 . S
C567 C568 1.384 . S
C567 H594 0.930 . S
C568 C563 1.407 . S
C568 C567 1.384 . S
C568 H595 0.929 . S
C569 O582 1.241 . S
C569 O583 1.273 . S
C570 O584 1.251 . S
C570 O585 1.268 . S
C571 Nd561 2.836 . S
C571 C572 1.498 . S
C571 O586 1.258 . S
C571 O587 1.239 . S
C572 C571 1.498 . S
C572 C573 1.366 . S
C572 C577 1.407 . S
C573 C572 1.366 . S
C573 C574 1.392 . S
C573 H596 0.930 . S
C574 C573 1.392 . S
C574 C575 1.398 . S
C574 H597 0.929 . S
C575 C574 1.398 . S
C575 C576 1.352 . S
C576 C575 1.352 . S
C576 C577 1.384 . S
C576 H598 0.930 . S
C577 C572 1.407 . S
C577 C576 1.384 . S
C577 H599 0.929 . S
C578 O588 1.241 . S
C578 O589 1.273 . S
C579 O590 1.251 . S
C579 O591 1.268 . S
O580 Nd560 2.500 . S
O580 C562 1.258 . S
O581 Nd560 2.492 . S
O581 C562 1.239 . S
O582 Nd560 2.487 . S
O582 C569 1.241 . S
O583 Nd560 2.682 . S
O583 Nd561 2.414 . S
O583 C569 1.273 . S
O584 Nd560 2.410 . S
O584 C570 1.251 . S
O585 Nd561 2.424 . S
O585 C570 1.268 . S
O586 Nd561 2.500 . S
O586 C571 1.258 . S
O587 Nd561 2.492 . S
O587 C571 1.239 . S
O588 Nd561 2.487 . S
O588 C578 1.241 . S
O589 Nd560 2.414 . S
O589 Nd561 2.682 . S
O589 C578 1.273 . S
O590 Nd561 2.410 . S
O590 C579 1.251 . S
O591 Nd560 2.424 . S
O591 C579 1.268 . S
H592 C564 0.930 . S
H593 C565 0.929 . S
H594 C567 0.930 . S
H595 C568 0.929 . S
H596 C573 0.930 . S
H597 C574 0.929 . S
H598 C576 0.930 . S
H599 C577 0.929 . S
Nd600 C602 2.836 . S
Nd600 O620 2.500 . S
Nd600 O621 2.492 . S
Nd600 O622 2.487 . S
Nd600 O623 2.682 . S
Nd600 O624 2.410 . S
Nd600 O629 2.414 . S
Nd600 O631 2.424 . S
Nd601 C611 2.836 . S
Nd601 O623 2.414 . S
Nd601 O625 2.424 . S
Nd601 O626 2.500 . S
Nd601 O627 2.492 . S
Nd601 O628 2.487 . S
Nd601 O629 2.682 . S
Nd601 O630 2.410 . S
C602 Nd600 2.836 . S
C602 C603 1.498 . S
C602 O620 1.258 . S
C602 O621 1.239 . S
C603 C602 1.498 . S
C603 C604 1.366 . S
C603 C608 1.407 . S
C604 C603 1.366 . S
C604 C605 1.392 . S
C604 H632 0.930 . S
C605 C604 1.392 . S
C605 C606 1.398 . S
C605 H633 0.929 . S
C606 C605 1.398 . S
C606 C607 1.352 . S
C607 C606 1.352 . S
C607 C608 1.384 . S
C607 H634 0.930 . S
C608 C603 1.407 . S
C608 C607 1.384 . S
C608 H635 0.929 . S
C609 O622 1.241 . S
C609 O623 1.273 . S
C610 O624 1.251 . S
C610 O625 1.268 . S
C611 Nd601 2.836 . S
C611 C612 1.498 . S
C611 O626 1.258 . S
C611 O627 1.239 . S
C612 C611 1.498 . S
C612 C613 1.366 . S
C612 C617 1.407 . S
C613 C612 1.366 . S
C613 C614 1.392 . S
C613 H636 0.930 . S
C614 C613 1.392 . S
C614 C615 1.398 . S
C614 H637 0.929 . S
C615 C614 1.398 . S
C615 C616 1.352 . S
C616 C615 1.352 . S
C616 C617 1.384 . S
C616 H638 0.930 . S
C617 C612 1.407 . S
C617 C616 1.384 . S
C617 H639 0.929 . S
C618 O628 1.241 . S
C618 O629 1.273 . S
C619 O630 1.251 . S
C619 O631 1.268 . S
O620 Nd600 2.500 . S
O620 C602 1.258 . S
O621 Nd600 2.492 . S
O621 C602 1.239 . S
O622 Nd600 2.487 . S
O622 C609 1.241 . S
O623 Nd600 2.682 . S
O623 Nd601 2.414 . S
O623 C609 1.273 . S
O624 Nd600 2.410 . S
O624 C610 1.251 . S
O625 Nd601 2.424 . S
O625 C610 1.268 . S
O626 Nd601 2.500 . S
O626 C611 1.258 . S
O627 Nd601 2.492 . S
O627 C611 1.239 . S
O628 Nd601 2.487 . S
O628 C618 1.241 . S
O629 Nd600 2.414 . S
O629 Nd601 2.682 . S
O629 C618 1.273 . S
O630 Nd601 2.410 . S
O630 C619 1.251 . S
O631 Nd600 2.424 . S
O631 C619 1.268 . S
H632 C604 0.930 . S
H633 C605 0.929 . S
H634 C607 0.930 . S
H635 C608 0.929 . S
H636 C613 0.930 . S
H637 C614 0.929 . S
H638 C616 0.930 . S
H639 C617 0.929 . S
Nd640 C642 2.836 . S
Nd640 O660 2.500 . S
Nd640 O661 2.492 . S
Nd640 O662 2.487 . S
Nd640 O663 2.682 . S
Nd640 O664 2.410 . S
Nd640 O669 2.414 . S
Nd640 O671 2.424 . S
Nd641 C651 2.836 . S
Nd641 O663 2.414 . S
Nd641 O665 2.424 . S
Nd641 O666 2.500 . S
Nd641 O667 2.492 . S
Nd641 O668 2.487 . S
Nd641 O669 2.682 . S
Nd641 O670 2.410 . S
C642 Nd640 2.836 . S
C642 C643 1.498 . S
C642 O660 1.258 . S
C642 O661 1.239 . S
C643 C642 1.498 . S
C643 C644 1.366 . S
C643 C648 1.407 . S
C644 C643 1.366 . S
C644 C645 1.392 . S
C644 H672 0.930 . S
C645 C644 1.392 . S
C645 C646 1.398 . S
C645 H673 0.929 . S
C646 C645 1.398 . S
C646 C647 1.352 . S
C647 C646 1.352 . S
C647 C648 1.384 . S
C647 H674 0.930 . S
C648 C643 1.407 . S
C648 C647 1.384 . S
C648 H675 0.929 . S
C649 O662 1.241 . S
C649 O663 1.273 . S
C650 O664 1.251 . S
C650 O665 1.268 . S
C651 Nd641 2.836 . S
C651 C652 1.498 . S
C651 O666 1.258 . S
C651 O667 1.239 . S
C652 C651 1.498 . S
C652 C653 1.366 . S
C652 C657 1.407 . S
C653 C652 1.366 . S
C653 C654 1.392 . S
C653 H676 0.930 . S
C654 C653 1.392 . S
C654 C655 1.398 . S
C654 H677 0.929 . S
C655 C654 1.398 . S
C655 C656 1.352 . S
C656 C655 1.352 . S
C656 C657 1.384 . S
C656 H678 0.930 . S
C657 C652 1.407 . S
C657 C656 1.384 . S
C657 H679 0.929 . S
C658 O668 1.241 . S
C658 O669 1.273 . S
C659 O670 1.251 . S
C659 O671 1.268 . S
O660 Nd640 2.500 . S
O660 C642 1.258 . S
O661 Nd640 2.492 . S
O661 C642 1.239 . S
O662 Nd640 2.487 . S
O662 C649 1.241 . S
O663 Nd640 2.682 . S
O663 Nd641 2.414 . S
O663 C649 1.273 . S
O664 Nd640 2.410 . S
O664 C650 1.251 . S
O665 Nd641 2.424 . S
O665 C650 1.268 . S
O666 Nd641 2.500 . S
O666 C651 1.258 . S
O667 Nd641 2.492 . S
O667 C651 1.239 . S
O668 Nd641 2.487 . S
O668 C658 1.241 . S
O669 Nd640 2.414 . S
O669 Nd641 2.682 . S
O669 C658 1.273 . S
O670 Nd641 2.410 . S
O670 C659 1.251 . S
O671 Nd640 2.424 . S
O671 C659 1.268 . S
H672 C644 0.930 . S
H673 C645 0.929 . S
H674 C647 0.930 . S
H675 C648 0.929 . S
H676 C653 0.930 . S
H677 C654 0.929 . S
H678 C656 0.930 . S
H679 C657 0.929 . S
Nd680 C682 2.836 . S
Nd680 O700 2.500 . S
Nd680 O701 2.492 . S
Nd680 O702 2.487 . S
Nd680 O703 2.682 . S
Nd680 O704 2.410 . S
Nd680 O709 2.414 . S
Nd680 O711 2.424 . S
Nd681 C691 2.836 . S
Nd681 O703 2.414 . S
Nd681 O705 2.424 . S
Nd681 O706 2.500 . S
Nd681 O707 2.492 . S
Nd681 O708 2.487 . S
Nd681 O709 2.682 . S
Nd681 O710 2.410 . S
C682 Nd680 2.836 . S
C682 C683 1.498 . S
C682 O700 1.258 . S
C682 O701 1.239 . S
C683 C682 1.498 . S
C683 C684 1.366 . S
C683 C688 1.407 . S
C684 C683 1.366 . S
C684 C685 1.392 . S
C684 H712 0.930 . S
C685 C684 1.392 . S
C685 C686 1.398 . S
C685 H713 0.929 . S
C686 C685 1.398 . S
C686 C687 1.352 . S
C687 C686 1.352 . S
C687 C688 1.384 . S
C687 H714 0.930 . S
C688 C683 1.407 . S
C688 C687 1.384 . S
C688 H715 0.929 . S
C689 O702 1.241 . S
C689 O703 1.273 . S
C690 O704 1.251 . S
C690 O705 1.268 . S
C691 Nd681 2.836 . S
C691 C692 1.498 . S
C691 O706 1.258 . S
C691 O707 1.239 . S
C692 C691 1.498 . S
C692 C693 1.366 . S
C692 C697 1.407 . S
C693 C692 1.366 . S
C693 C694 1.392 . S
C693 H716 0.930 . S
C694 C693 1.392 . S
C694 C695 1.398 . S
C694 H717 0.929 . S
C695 C694 1.398 . S
C695 C696 1.352 . S
C696 C695 1.352 . S
C696 C697 1.384 . S
C696 H718 0.930 . S
C697 C692 1.407 . S
C697 C696 1.384 . S
C697 H719 0.929 . S
C698 O708 1.241 . S
C698 O709 1.273 . S
C699 O710 1.251 . S
C699 O711 1.268 . S
O700 Nd680 2.500 . S
O700 C682 1.258 . S
O701 Nd680 2.492 . S
O701 C682 1.239 . S
O702 Nd680 2.487 . S
O702 C689 1.241 . S
O703 Nd680 2.682 . S
O703 Nd681 2.414 . S
O703 C689 1.273 . S
O704 Nd680 2.410 . S
O704 C690 1.251 . S
O705 Nd681 2.424 . S
O705 C690 1.268 . S
O706 Nd681 2.500 . S
O706 C691 1.258 . S
O707 Nd681 2.492 . S
O707 C691 1.239 . S
O708 Nd681 2.487 . S
O708 C698 1.241 . S
O709 Nd680 2.414 . S
O709 Nd681 2.682 . S
O709 C698 1.273 . S
O710 Nd681 2.410 . S
O710 C699 1.251 . S
O711 Nd680 2.424 . S
O711 C699 1.268 . S
H712 C684 0.930 . S
H713 C685 0.929 . S
H714 C687 0.930 . S
H715 C688 0.929 . S
H716 C693 0.930 . S
H717 C694 0.929 . S
H718 C696 0.930 . S
H719 C697 0.929 . S
Nd720 C722 2.836 . S
Nd720 O740 2.500 . S
Nd720 O741 2.492 . S
Nd720 O742 2.487 . S
Nd720 O743 2.682 . S
Nd720 O744 2.410 . S
Nd720 O749 2.414 . S
Nd720 O751 2.424 . S
Nd721 C731 2.836 . S
Nd721 O743 2.414 . S
Nd721 O745 2.424 . S
Nd721 O746 2.500 . S
Nd721 O747 2.492 . S
Nd721 O748 2.487 . S
Nd721 O749 2.682 . S
Nd721 O750 2.410 . S
C722 Nd720 2.836 . S
C722 C723 1.498 . S
C722 O740 1.258 . S
C722 O741 1.239 . S
C723 C722 1.498 . S
C723 C724 1.366 . S
C723 C728 1.407 . S
C724 C723 1.366 . S
C724 C725 1.392 1_655 S
C724 H752 0.930 . S
C725 C724 1.392 1_455 S
C725 C726 1.398 . S
C725 H753 0.929 . S
C726 C725 1.398 . S
C726 C727 1.352 1_455 S
C727 C726 1.352 1_655 S
C727 C728 1.384 . S
C727 H754 0.930 . S
C728 C723 1.407 . S
C728 C727 1.384 . S
C728 H755 0.929 . S
C729 O742 1.241 . S
C729 O743 1.273 . S
C730 O744 1.251 . S
C730 O745 1.268 . S
C731 Nd721 2.836 . S
C731 C732 1.498 . S
C731 O746 1.258 . S
C731 O747 1.239 . S
C732 C731 1.498 . S
C732 C733 1.366 . S
C732 C737 1.407 . S
C733 C732 1.366 . S
C733 C734 1.392 . S
C733 H756 0.930 . S
C734 C733 1.392 . S
C734 C735 1.398 . S
C734 H757 0.929 . S
C735 C734 1.398 . S
C735 C736 1.352 . S
C736 C735 1.352 . S
C736 C737 1.384 . S
C736 H758 0.930 . S
C737 C732 1.407 . S
C737 C736 1.384 . S
C737 H759 0.929 . S
C738 O748 1.241 . S
C738 O749 1.273 . S
C739 O750 1.251 . S
C739 O751 1.268 . S
O740 Nd720 2.500 . S
O740 C722 1.258 . S
O741 Nd720 2.492 . S
O741 C722 1.239 . S
O742 Nd720 2.487 . S
O742 C729 1.241 . S
O743 Nd720 2.682 . S
O743 Nd721 2.414 . S
O743 C729 1.273 . S
O744 Nd720 2.410 . S
O744 C730 1.251 . S
O745 Nd721 2.424 . S
O745 C730 1.268 . S
O746 Nd721 2.500 . S
O746 C731 1.258 . S
O747 Nd721 2.492 . S
O747 C731 1.239 . S
O748 Nd721 2.487 . S
O748 C738 1.241 . S
O749 Nd720 2.414 . S
O749 Nd721 2.682 . S
O749 C738 1.273 . S
O750 Nd721 2.410 . S
O750 C739 1.251 . S
O751 Nd720 2.424 . S
O751 C739 1.268 . S
H752 C724 0.930 . S
H753 C725 0.929 . S
H754 C727 0.930 . S
H755 C728 0.929 . S
H756 C733 0.930 . S
H757 C734 0.929 . S
H758 C736 0.930 . S
H759 C737 0.929 . S
Nd760 C762 2.836 . S
Nd760 O780 2.500 . S
Nd760 O781 2.492 . S
Nd760 O782 2.487 . S
Nd760 O783 2.682 . S
Nd760 O784 2.410 . S
Nd760 O789 2.414 . S
Nd760 O791 2.424 . S
Nd761 C771 2.836 . S
Nd761 O783 2.414 . S
Nd761 O785 2.424 . S
Nd761 O786 2.500 . S
Nd761 O787 2.492 . S
Nd761 O788 2.487 . S
Nd761 O789 2.682 . S
Nd761 O790 2.410 . S
C762 Nd760 2.836 . S
C762 C763 1.498 . S
C762 O780 1.258 . S
C762 O781 1.239 . S
C763 C762 1.498 . S
C763 C764 1.366 . S
C763 C768 1.407 . S
C764 C763 1.366 . S
C764 C765 1.392 . S
C764 H792 0.930 . S
C765 C764 1.392 . S
C765 C766 1.398 . S
C765 H793 0.929 . S
C766 C765 1.398 . S
C766 C767 1.352 . S
C767 C766 1.352 . S
C767 C768 1.384 . S
C767 H794 0.930 . S
C768 C763 1.407 . S
C768 C767 1.384 . S
C768 H795 0.929 . S
C769 O782 1.241 . S
C769 O783 1.273 . S
C770 O784 1.251 . S
C770 O785 1.268 . S
C771 Nd761 2.836 . S
C771 C772 1.498 . S
C771 O786 1.258 . S
C771 O787 1.239 . S
C772 C771 1.498 . S
C772 C773 1.366 . S
C772 C777 1.407 . S
C773 C772 1.366 . S
C773 C774 1.392 . S
C773 H796 0.930 . S
C774 C773 1.392 . S
C774 C775 1.398 . S
C774 H797 0.929 . S
C775 C774 1.398 . S
C775 C776 1.352 . S
C776 C775 1.352 . S
C776 C777 1.384 . S
C776 H798 0.930 . S
C777 C772 1.407 . S
C777 C776 1.384 . S
C777 H799 0.929 . S
C778 O788 1.241 . S
C778 O789 1.273 . S
C779 O790 1.251 . S
C779 O791 1.268 . S
O780 Nd760 2.500 . S
O780 C762 1.258 . S
O781 Nd760 2.492 . S
O781 C762 1.239 . S
O782 Nd760 2.487 . S
O782 C769 1.241 . S
O783 Nd760 2.682 . S
O783 Nd761 2.414 . S
O783 C769 1.273 . S
O784 Nd760 2.410 . S
O784 C770 1.251 . S
O785 Nd761 2.424 . S
O785 C770 1.268 . S
O786 Nd761 2.500 . S
O786 C771 1.258 . S
O787 Nd761 2.492 . S
O787 C771 1.239 . S
O788 Nd761 2.487 . S
O788 C778 1.241 . S
O789 Nd760 2.414 . S
O789 Nd761 2.682 . S
O789 C778 1.273 . S
O790 Nd761 2.410 . S
O790 C779 1.251 . S
O791 Nd760 2.424 . S
O791 C779 1.268 . S
H792 C764 0.930 . S
H793 C765 0.929 . S
H794 C767 0.930 . S
H795 C768 0.929 . S
H796 C773 0.930 . S
H797 C774 0.929 . S
H798 C776 0.930 . S
H799 C777 0.929 . S
Nd800 C802 2.836 . S
Nd800 O820 2.500 . S
Nd800 O821 2.492 . S
Nd800 O822 2.487 . S
Nd800 O823 2.682 . S
Nd800 O824 2.410 . S
Nd800 O829 2.414 . S
Nd800 O831 2.424 . S
Nd801 C811 2.836 . S
Nd801 O823 2.414 . S
Nd801 O825 2.424 . S
Nd801 O826 2.500 . S
Nd801 O827 2.492 . S
Nd801 O828 2.487 . S
Nd801 O829 2.682 . S
Nd801 O830 2.410 . S
C802 Nd800 2.836 . S
C802 C803 1.498 . S
C802 O820 1.258 . S
C802 O821 1.239 . S
C803 C802 1.498 . S
C803 C804 1.366 . S
C803 C808 1.407 . S
C804 C803 1.366 . S
C804 C805 1.392 . S
C804 H832 0.930 . S
C805 C804 1.392 . S
C805 C806 1.398 . S
C805 H833 0.929 . S
C806 C805 1.398 . S
C806 C807 1.352 . S
C807 C806 1.352 . S
C807 C808 1.384 . S
C807 H834 0.930 . S
C808 C803 1.407 . S
C808 C807 1.384 . S
C808 H835 0.929 . S
C809 O822 1.241 . S
C809 O823 1.273 . S
C810 O824 1.251 . S
C810 O825 1.268 . S
C811 Nd801 2.836 . S
C811 C812 1.498 . S
C811 O826 1.258 . S
C811 O827 1.239 . S
C812 C811 1.498 . S
C812 C813 1.366 . S
C812 C817 1.407 . S
C813 C812 1.366 . S
C813 C814 1.392 . S
C813 H836 0.930 . S
C814 C813 1.392 . S
C814 C815 1.398 . S
C814 H837 0.929 . S
C815 C814 1.398 . S
C815 C816 1.352 . S
C816 C815 1.352 . S
C816 C817 1.384 . S
C816 H838 0.930 . S
C817 C812 1.407 . S
C817 C816 1.384 . S
C817 H839 0.929 . S
C818 O828 1.241 . S
C818 O829 1.273 . S
C819 O830 1.251 . S
C819 O831 1.268 . S
O820 Nd800 2.500 . S
O820 C802 1.258 . S
O821 Nd800 2.492 . S
O821 C802 1.239 . S
O822 Nd800 2.487 . S
O822 C809 1.241 . S
O823 Nd800 2.682 . S
O823 Nd801 2.414 . S
O823 C809 1.273 . S
O824 Nd800 2.410 . S
O824 C810 1.251 . S
O825 Nd801 2.424 . S
O825 C810 1.268 . S
O826 Nd801 2.500 . S
O826 C811 1.258 . S
O827 Nd801 2.492 . S
O827 C811 1.239 . S
O828 Nd801 2.487 . S
O828 C818 1.241 . S
O829 Nd800 2.414 . S
O829 Nd801 2.682 . S
O829 C818 1.273 . S
O830 Nd801 2.410 . S
O830 C819 1.251 . S
O831 Nd800 2.424 . S
O831 C819 1.268 . S
H832 C804 0.930 . S
H833 C805 0.929 . S
H834 C807 0.930 . S
H835 C808 0.929 . S
H836 C813 0.930 . S
H837 C814 0.929 . S
H838 C816 0.930 . S
H839 C817 0.929 . S
Nd840 C842 2.836 . S
Nd840 O860 2.500 . S
Nd840 O861 2.492 . S
Nd840 O862 2.487 . S
Nd840 O863 2.682 . S
Nd840 O864 2.410 . S
Nd840 O869 2.414 . S
Nd840 O871 2.424 . S
Nd841 C851 2.836 . S
Nd841 O863 2.414 . S
Nd841 O865 2.424 . S
Nd841 O866 2.500 . S
Nd841 O867 2.492 . S
Nd841 O868 2.487 . S
Nd841 O869 2.682 . S
Nd841 O870 2.410 . S
C842 Nd840 2.836 . S
C842 C843 1.498 . S
C842 O860 1.258 . S
C842 O861 1.239 . S
C843 C842 1.498 . S
C843 C844 1.366 . S
C843 C848 1.407 . S
C844 C843 1.366 . S
C844 C845 1.392 . S
C844 H872 0.930 . S
C845 C844 1.392 . S
C845 C846 1.398 . S
C845 H873 0.929 . S
C846 C845 1.398 . S
C846 C847 1.352 . S
C847 C846 1.352 . S
C847 C848 1.384 . S
C847 H874 0.930 . S
C848 C843 1.407 . S
C848 C847 1.384 . S
C848 H875 0.929 . S
C849 O862 1.241 . S
C849 O863 1.273 . S
C850 O864 1.251 . S
C850 O865 1.268 . S
C851 Nd841 2.836 . S
C851 C852 1.498 . S
C851 O866 1.258 . S
C851 O867 1.239 . S
C852 C851 1.498 . S
C852 C853 1.366 . S
C852 C857 1.407 . S
C853 C852 1.366 . S
C853 C854 1.392 . S
C853 H876 0.930 . S
C854 C853 1.392 . S
C854 C855 1.398 . S
C854 H877 0.929 . S
C855 C854 1.398 . S
C855 C856 1.352 . S
C856 C855 1.352 . S
C856 C857 1.384 . S
C856 H878 0.930 . S
C857 C852 1.407 . S
C857 C856 1.384 . S
C857 H879 0.929 . S
C858 O868 1.241 . S
C858 O869 1.273 . S
C859 O870 1.251 . S
C859 O871 1.268 . S
O860 Nd840 2.500 . S
O860 C842 1.258 . S
O861 Nd840 2.492 . S
O861 C842 1.239 . S
O862 Nd840 2.487 . S
O862 C849 1.241 . S
O863 Nd840 2.682 . S
O863 Nd841 2.414 . S
O863 C849 1.273 . S
O864 Nd840 2.410 . S
O864 C850 1.251 . S
O865 Nd841 2.424 . S
O865 C850 1.268 . S
O866 Nd841 2.500 . S
O866 C851 1.258 . S
O867 Nd841 2.492 . S
O867 C851 1.239 . S
O868 Nd841 2.487 . S
O868 C858 1.241 . S
O869 Nd840 2.414 . S
O869 Nd841 2.682 . S
O869 C858 1.273 . S
O870 Nd841 2.410 . S
O870 C859 1.251 . S
O871 Nd840 2.424 . S
O871 C859 1.268 . S
H872 C844 0.930 . S
H873 C845 0.929 . S
H874 C847 0.930 . S
H875 C848 0.929 . S
H876 C853 0.930 . S
H877 C854 0.929 . S
H878 C856 0.930 . S
H879 C857 0.929 . S
Nd880 C882 2.836 . S
Nd880 O900 2.500 . S
Nd880 O901 2.492 . S
Nd880 O902 2.487 . S
Nd880 O903 2.682 . S
Nd880 O904 2.410 . S
Nd880 O909 2.414 . S
Nd880 O911 2.424 . S
Nd881 C891 2.836 . S
Nd881 O903 2.414 . S
Nd881 O905 2.424 . S
Nd881 O906 2.500 . S
Nd881 O907 2.492 . S
Nd881 O908 2.487 . S
Nd881 O909 2.682 . S
Nd881 O910 2.410 . S
C882 Nd880 2.836 . S
C882 C883 1.498 . S
C882 O900 1.258 . S
C882 O901 1.239 . S
C883 C882 1.498 . S
C883 C884 1.366 . S
C883 C888 1.407 . S
C884 C883 1.366 . S
C884 C885 1.392 1_655 S
C884 H912 0.930 . S
C885 C884 1.392 1_455 S
C885 C886 1.398 . S
C885 H913 0.929 . S
C886 C885 1.398 . S
C886 C887 1.352 1_455 S
C887 C886 1.352 1_655 S
C887 C888 1.384 . S
C887 H914 0.930 . S
C888 C883 1.407 . S
C888 C887 1.384 . S
C888 H915 0.929 . S
C889 O902 1.241 . S
C889 O903 1.273 . S
C890 O904 1.251 . S
C890 O905 1.268 . S
C891 Nd881 2.836 . S
C891 C892 1.498 . S
C891 O906 1.258 . S
C891 O907 1.239 . S
C892 C891 1.498 . S
C892 C893 1.366 . S
C892 C897 1.407 . S
C893 C892 1.366 . S
C893 C894 1.392 . S
C893 H916 0.930 . S
C894 C893 1.392 . S
C894 C895 1.398 . S
C894 H917 0.929 . S
C895 C894 1.398 . S
C895 C896 1.352 . S
C896 C895 1.352 . S
C896 C897 1.384 . S
C896 H918 0.930 . S
C897 C892 1.407 . S
C897 C896 1.384 . S
C897 H919 0.929 . S
C898 O908 1.241 . S
C898 O909 1.273 . S
C899 O910 1.251 . S
C899 O911 1.268 . S
O900 Nd880 2.500 . S
O900 C882 1.258 . S
O901 Nd880 2.492 . S
O901 C882 1.239 . S
O902 Nd880 2.487 . S
O902 C889 1.241 . S
O903 Nd880 2.682 . S
O903 Nd881 2.414 . S
O903 C889 1.273 . S
O904 Nd880 2.410 . S
O904 C890 1.251 . S
O905 Nd881 2.424 . S
O905 C890 1.268 . S
O906 Nd881 2.500 . S
O906 C891 1.258 . S
O907 Nd881 2.492 . S
O907 C891 1.239 . S
O908 Nd881 2.487 . S
O908 C898 1.241 . S
O909 Nd880 2.414 . S
O909 Nd881 2.682 . S
O909 C898 1.273 . S
O910 Nd881 2.410 . S
O910 C899 1.251 . S
O911 Nd880 2.424 . S
O911 C899 1.268 . S
H912 C884 0.930 . S
H913 C885 0.929 . S
H914 C887 0.930 . S
H915 C888 0.929 . S
H916 C893 0.930 . S
H917 C894 0.929 . S
H918 C896 0.930 . S
H919 C897 0.929 . S
Nd920 C922 2.836 . S
Nd920 O940 2.500 . S
Nd920 O941 2.492 . S
Nd920 O942 2.487 . S
Nd920 O943 2.682 . S
Nd920 O944 2.410 . S
Nd920 O949 2.414 . S
Nd920 O951 2.424 . S
Nd921 C931 2.836 . S
Nd921 O943 2.414 . S
Nd921 O945 2.424 . S
Nd921 O946 2.500 . S
Nd921 O947 2.492 . S
Nd921 O948 2.487 . S
Nd921 O949 2.682 . S
Nd921 O950 2.410 . S
C922 Nd920 2.836 . S
C922 C923 1.498 . S
C922 O940 1.258 . S
C922 O941 1.239 . S
C923 C922 1.498 . S
C923 C924 1.366 . S
C923 C928 1.407 . S
C924 C923 1.366 . S
C924 C925 1.392 . S
C924 H952 0.930 . S
C925 C924 1.392 . S
C925 C926 1.398 . S
C925 H953 0.929 . S
C926 C925 1.398 . S
C926 C927 1.352 . S
C927 C926 1.352 . S
C927 C928 1.384 . S
C927 H954 0.930 . S
C928 C923 1.407 . S
C928 C927 1.384 . S
C928 H955 0.929 . S
C929 O942 1.241 . S
C929 O943 1.273 . S
C930 O944 1.251 . S
C930 O945 1.268 . S
C931 Nd921 2.836 . S
C931 C932 1.498 . S
C931 O946 1.258 . S
C931 O947 1.239 . S
C932 C931 1.498 . S
C932 C933 1.366 . S
C932 C937 1.407 . S
C933 C932 1.366 . S
C933 C934 1.392 . S
C933 H956 0.930 . S
C934 C933 1.392 . S
C934 C935 1.398 . S
C934 H957 0.929 . S
C935 C934 1.398 . S
C935 C936 1.352 . S
C936 C935 1.352 . S
C936 C937 1.384 . S
C936 H958 0.930 . S
C937 C932 1.407 . S
C937 C936 1.384 . S
C937 H959 0.929 . S
C938 O948 1.241 . S
C938 O949 1.273 . S
C939 O950 1.251 . S
C939 O951 1.268 . S
O940 Nd920 2.500 . S
O940 C922 1.258 . S
O941 Nd920 2.492 . S
O941 C922 1.239 . S
O942 Nd920 2.487 . S
O942 C929 1.241 . S
O943 Nd920 2.682 . S
O943 Nd921 2.414 . S
O943 C929 1.273 . S
O944 Nd920 2.410 . S
O944 C930 1.251 . S
O945 Nd921 2.424 . S
O945 C930 1.268 . S
O946 Nd921 2.500 . S
O946 C931 1.258 . S
O947 Nd921 2.492 . S
O947 C931 1.239 . S
O948 Nd921 2.487 . S
O948 C938 1.241 . S
O949 Nd920 2.414 . S
O949 Nd921 2.682 . S
O949 C938 1.273 . S
O950 Nd921 2.410 . S
O950 C939 1.251 . S
O951 Nd920 2.424 . S
O951 C939 1.268 . S
H952 C924 0.930 . S
H953 C925 0.929 . S
H954 C927 0.930 . S
H955 C928 0.929 . S
H956 C933 0.930 . S
H957 C934 0.929 . S
H958 C936 0.930 . S
H959 C937 0.929 . S
Nd960 C962 2.836 . S
Nd960 O980 2.500 . S
Nd960 O981 2.492 . S
Nd960 O982 2.487 . S
Nd960 O983 2.682 . S
Nd960 O984 2.410 . S
Nd960 O989 2.414 . S
Nd960 O991 2.424 . S
Nd961 C971 2.836 . S
Nd961 O983 2.414 . S
Nd961 O985 2.424 . S
Nd961 O986 2.500 . S
Nd961 O987 2.492 . S
Nd961 O988 2.487 . S
Nd961 O989 2.682 . S
Nd961 O990 2.410 . S
C962 Nd960 2.836 . S
C962 C963 1.498 . S
C962 O980 1.258 . S
C962 O981 1.239 . S
C963 C962 1.498 . S
C963 C964 1.366 . S
C963 C968 1.407 . S
C964 C963 1.366 . S
C964 C965 1.392 . S
C964 H992 0.930 . S
C965 C964 1.392 . S
C965 C966 1.398 . S
C965 H993 0.929 . S
C966 C965 1.398 . S
C966 C967 1.352 . S
C967 C966 1.352 . S
C967 C968 1.384 . S
C967 H994 0.930 . S
C968 C963 1.407 . S
C968 C967 1.384 . S
C968 H995 0.929 . S
C969 O982 1.241 . S
C969 O983 1.273 . S
C970 O984 1.251 . S
C970 O985 1.268 . S
C971 Nd961 2.836 . S
C971 C972 1.498 . S
C971 O986 1.258 . S
C971 O987 1.239 . S
C972 C971 1.498 . S
C972 C973 1.366 . S
C972 C977 1.407 . S
C973 C972 1.366 . S
C973 C974 1.392 . S
C973 H996 0.930 . S
C974 C973 1.392 . S
C974 C975 1.398 . S
C974 H997 0.929 . S
C975 C974 1.398 . S
C975 C976 1.352 . S
C976 C975 1.352 . S
C976 C977 1.384 . S
C976 H998 0.930 . S
C977 C972 1.407 . S
C977 C976 1.384 . S
C977 H999 0.929 . S
C978 O988 1.241 . S
C978 O989 1.273 . S
C979 O990 1.251 . S
C979 O991 1.268 . S
O980 Nd960 2.500 . S
O980 C962 1.258 . S
O981 Nd960 2.492 . S
O981 C962 1.239 . S
O982 Nd960 2.487 . S
O982 C969 1.241 . S
O983 Nd960 2.682 . S
O983 Nd961 2.414 . S
O983 C969 1.273 . S
O984 Nd960 2.410 . S
O984 C970 1.251 . S
O985 Nd961 2.424 . S
O985 C970 1.268 . S
O986 Nd961 2.500 . S
O986 C971 1.258 . S
O987 Nd961 2.492 . S
O987 C971 1.239 . S
O988 Nd961 2.487 . S
O988 C978 1.241 . S
O989 Nd960 2.414 . S
O989 Nd961 2.682 . S
O989 C978 1.273 . S
O990 Nd961 2.410 . S
O990 C979 1.251 . S
O991 Nd960 2.424 . S
O991 C979 1.268 . S
H992 C964 0.930 . S
H993 C965 0.929 . S
H994 C967 0.930 . S
H995 C968 0.929 . S
H996 C973 0.930 . S
H997 C974 0.929 . S
H998 C976 0.930 . S
H999 C977 0.929 . S
Nd1000 C1002 2.836 . S
Nd1000 O1020 2.500 . S
Nd1000 O1021 2.492 . S
Nd1000 O1022 2.487 . S
Nd1000 O1023 2.682 . S
Nd1000 O1024 2.410 . S
Nd1000 O1029 2.414 . S
Nd1000 O1031 2.424 . S
Nd1001 C1011 2.836 . S
Nd1001 O1023 2.414 . S
Nd1001 O1025 2.424 . S
Nd1001 O1026 2.500 . S
Nd1001 O1027 2.492 . S
Nd1001 O1028 2.487 . S
Nd1001 O1029 2.682 . S
Nd1001 O1030 2.410 . S
C1002 Nd1000 2.836 . S
C1002 C1003 1.498 . S
C1002 O1020 1.258 . S
C1002 O1021 1.239 . S
C1003 C1002 1.498 . S
C1003 C1004 1.366 . S
C1003 C1008 1.407 . S
C1004 C1003 1.366 . S
C1004 C1005 1.392 . S
C1004 H1032 0.930 . S
C1005 C1004 1.392 . S
C1005 C1006 1.398 . S
C1005 H1033 0.929 . S
C1006 C1005 1.398 . S
C1006 C1007 1.352 . S
C1007 C1006 1.352 . S
C1007 C1008 1.384 . S
C1007 H1034 0.930 . S
C1008 C1003 1.407 . S
C1008 C1007 1.384 . S
C1008 H1035 0.929 . S
C1009 O1022 1.241 . S
C1009 O1023 1.273 . S
C1010 O1024 1.251 . S
C1010 O1025 1.268 . S
C1011 Nd1001 2.836 . S
C1011 C1012 1.498 . S
C1011 O1026 1.258 . S
C1011 O1027 1.239 . S
C1012 C1011 1.498 . S
C1012 C1013 1.366 . S
C1012 C1017 1.407 . S
C1013 C1012 1.366 . S
C1013 C1014 1.392 . S
C1013 H1036 0.930 . S
C1014 C1013 1.392 . S
C1014 C1015 1.398 . S
C1014 H1037 0.929 . S
C1015 C1014 1.398 . S
C1015 C1016 1.352 . S
C1016 C1015 1.352 . S
C1016 C1017 1.384 . S
C1016 H1038 0.930 . S
C1017 C1012 1.407 . S
C1017 C1016 1.384 . S
C1017 H1039 0.929 . S
C1018 O1028 1.241 . S
C1018 O1029 1.273 . S
C1019 O1030 1.251 . S
C1019 O1031 1.268 . S
O1020 Nd1000 2.500 . S
O1020 C1002 1.258 . S
O1021 Nd1000 2.492 . S
O1021 C1002 1.239 . S
O1022 Nd1000 2.487 . S
O1022 C1009 1.241 . S
O1023 Nd1000 2.682 . S
O1023 Nd1001 2.414 . S
O1023 C1009 1.273 . S
O1024 Nd1000 2.410 . S
O1024 C1010 1.251 . S
O1025 Nd1001 2.424 . S
O1025 C1010 1.268 . S
O1026 Nd1001 2.500 . S
O1026 C1011 1.258 . S
O1027 Nd1001 2.492 . S
O1027 C1011 1.239 . S
O1028 Nd1001 2.487 . S
O1028 C1018 1.241 . S
O1029 Nd1000 2.414 . S
O1029 Nd1001 2.682 . S
O1029 C1018 1.273 . S
O1030 Nd1001 2.410 . S
O1030 C1019 1.251 . S
O1031 Nd1000 2.424 . S
O1031 C1019 1.268 . S
H1032 C1004 0.930 . S
H1033 C1005 0.929 . S
H1034 C1007 0.930 . S
H1035 C1008 0.929 . S
H1036 C1013 0.930 . S
H1037 C1014 0.929 . S
H1038 C1016 0.930 . S
H1039 C1017 0.929 . S
Nd1040 C1042 2.836 . S
Nd1040 O1060 2.500 . S
Nd1040 O1061 2.492 . S
Nd1040 O1062 2.487 . S
Nd1040 O1063 2.682 . S
Nd1040 O1064 2.410 . S
Nd1040 O1069 2.414 . S
Nd1040 O1071 2.424 . S
Nd1041 C1051 2.836 . S
Nd1041 O1063 2.414 . S
Nd1041 O1065 2.424 . S
Nd1041 O1066 2.500 . S
Nd1041 O1067 2.492 . S
Nd1041 O1068 2.487 . S
Nd1041 O1069 2.682 . S
Nd1041 O1070 2.410 . S
C1042 Nd1040 2.836 . S
C1042 C1043 1.498 . S
C1042 O1060 1.258 . S
C1042 O1061 1.239 . S
C1043 C1042 1.498 . S
C1043 C1044 1.366 . S
C1043 C1048 1.407 . S
C1044 C1043 1.366 . S
C1044 C1045 1.392 . S
C1044 H1072 0.930 . S
C1045 C1044 1.392 . S
C1045 C1046 1.398 . S
C1045 H1073 0.929 . S
C1046 C1045 1.398 . S
C1046 C1047 1.352 . S
C1047 C1046 1.352 . S
C1047 C1048 1.384 . S
C1047 H1074 0.930 . S
C1048 C1043 1.407 . S
C1048 C1047 1.384 . S
C1048 H1075 0.929 . S
C1049 O1062 1.241 . S
C1049 O1063 1.273 . S
C1050 O1064 1.251 . S
C1050 O1065 1.268 . S
C1051 Nd1041 2.836 . S
C1051 C1052 1.498 . S
C1051 O1066 1.258 . S
C1051 O1067 1.239 . S
C1052 C1051 1.498 . S
C1052 C1053 1.366 . S
C1052 C1057 1.407 . S
C1053 C1052 1.366 . S
C1053 C1054 1.392 1_455 S
C1053 H1076 0.930 . S
C1054 C1053 1.392 1_655 S
C1054 C1055 1.398 . S
C1054 H1077 0.929 . S
C1055 C1054 1.398 . S
C1055 C1056 1.352 1_655 S
C1056 C1055 1.352 1_455 S
C1056 C1057 1.384 . S
C1056 H1078 0.930 . S
C1057 C1052 1.407 . S
C1057 C1056 1.384 . S
C1057 H1079 0.929 . S
C1058 O1068 1.241 . S
C1058 O1069 1.273 . S
C1059 O1070 1.251 . S
C1059 O1071 1.268 . S
O1060 Nd1040 2.500 . S
O1060 C1042 1.258 . S
O1061 Nd1040 2.492 . S
O1061 C1042 1.239 . S
O1062 Nd1040 2.487 . S
O1062 C1049 1.241 . S
O1063 Nd1040 2.682 . S
O1063 Nd1041 2.414 . S
O1063 C1049 1.273 . S
O1064 Nd1040 2.410 . S
O1064 C1050 1.251 . S
O1065 Nd1041 2.424 . S
O1065 C1050 1.268 . S
O1066 Nd1041 2.500 . S
O1066 C1051 1.258 . S
O1067 Nd1041 2.492 . S
O1067 C1051 1.239 . S
O1068 Nd1041 2.487 . S
O1068 C1058 1.241 . S
O1069 Nd1040 2.414 . S
O1069 Nd1041 2.682 . S
O1069 C1058 1.273 . S
O1070 Nd1041 2.410 . S
O1070 C1059 1.251 . S
O1071 Nd1040 2.424 . S
O1071 C1059 1.268 . S
H1072 C1044 0.930 . S
H1073 C1045 0.929 . S
H1074 C1047 0.930 . S
H1075 C1048 0.929 . S
H1076 C1053 0.930 . S
H1077 C1054 0.929 . S
H1078 C1056 0.930 . S
H1079 C1057 0.929 . S
Nd1080 C1082 2.836 . S
Nd1080 O1100 2.500 . S
Nd1080 O1101 2.492 . S
Nd1080 O1102 2.487 . S
Nd1080 O1103 2.682 . S
Nd1080 O1104 2.410 . S
Nd1080 O1109 2.414 . S
Nd1080 O1111 2.424 . S
Nd1081 C1091 2.836 . S
Nd1081 O1103 2.414 . S
Nd1081 O1105 2.424 . S
Nd1081 O1106 2.500 . S
Nd1081 O1107 2.492 . S
Nd1081 O1108 2.487 . S
Nd1081 O1109 2.682 . S
Nd1081 O1110 2.410 . S
C1082 Nd1080 2.836 . S
C1082 C1083 1.498 . S
C1082 O1100 1.258 . S
C1082 O1101 1.239 . S
C1083 C1082 1.498 . S
C1083 C1084 1.366 . S
C1083 C1088 1.407 . S
C1084 C1083 1.366 . S
C1084 C1085 1.392 . S
C1084 H1112 0.930 . S
C1085 C1084 1.392 . S
C1085 C1086 1.398 . S
C1085 H1113 0.929 . S
C1086 C1085 1.398 . S
C1086 C1087 1.352 . S
C1087 C1086 1.352 . S
C1087 C1088 1.384 . S
C1087 H1114 0.930 . S
C1088 C1083 1.407 . S
C1088 C1087 1.384 . S
C1088 H1115 0.929 . S
C1089 O1102 1.241 . S
C1089 O1103 1.273 . S
C1090 O1104 1.251 . S
C1090 O1105 1.268 . S
C1091 Nd1081 2.836 . S
C1091 C1092 1.498 . S
C1091 O1106 1.258 . S
C1091 O1107 1.239 . S
C1092 C1091 1.498 . S
C1092 C1093 1.366 . S
C1092 C1097 1.407 . S
C1093 C1092 1.366 . S
C1093 C1094 1.392 . S
C1093 H1116 0.930 . S
C1094 C1093 1.392 . S
C1094 C1095 1.398 . S
C1094 H1117 0.929 . S
C1095 C1094 1.398 . S
C1095 C1096 1.352 . S
C1096 C1095 1.352 . S
C1096 C1097 1.384 . S
C1096 H1118 0.930 . S
C1097 C1092 1.407 . S
C1097 C1096 1.384 . S
C1097 H1119 0.929 . S
C1098 O1108 1.241 . S
C1098 O1109 1.273 . S
C1099 O1110 1.251 . S
C1099 O1111 1.268 . S
O1100 Nd1080 2.500 . S
O1100 C1082 1.258 . S
O1101 Nd1080 2.492 . S
O1101 C1082 1.239 . S
O1102 Nd1080 2.487 . S
O1102 C1089 1.241 . S
O1103 Nd1080 2.682 . S
O1103 Nd1081 2.414 . S
O1103 C1089 1.273 . S
O1104 Nd1080 2.410 . S
O1104 C1090 1.251 . S
O1105 Nd1081 2.424 . S
O1105 C1090 1.268 . S
O1106 Nd1081 2.500 . S
O1106 C1091 1.258 . S
O1107 Nd1081 2.492 . S
O1107 C1091 1.239 . S
O1108 Nd1081 2.487 . S
O1108 C1098 1.241 . S
O1109 Nd1080 2.414 . S
O1109 Nd1081 2.682 . S
O1109 C1098 1.273 . S
O1110 Nd1081 2.410 . S
O1110 C1099 1.251 . S
O1111 Nd1080 2.424 . S
O1111 C1099 1.268 . S
H1112 C1084 0.930 . S
H1113 C1085 0.929 . S
H1114 C1087 0.930 . S
H1115 C1088 0.929 . S
H1116 C1093 0.930 . S
H1117 C1094 0.929 . S
H1118 C1096 0.930 . S
H1119 C1097 0.929 . S
Nd1120 C1122 2.836 . S
Nd1120 O1140 2.500 . S
Nd1120 O1141 2.492 . S
Nd1120 O1142 2.487 . S
Nd1120 O1143 2.682 . S
Nd1120 O1144 2.410 . S
Nd1120 O1149 2.414 . S
Nd1120 O1151 2.424 . S
Nd1121 C1131 2.836 . S
Nd1121 O1143 2.414 . S
Nd1121 O1145 2.424 . S
Nd1121 O1146 2.500 . S
Nd1121 O1147 2.492 . S
Nd1121 O1148 2.487 . S
Nd1121 O1149 2.682 . S
Nd1121 O1150 2.410 . S
C1122 Nd1120 2.836 . S
C1122 C1123 1.498 . S
C1122 O1140 1.258 . S
C1122 O1141 1.239 . S
C1123 C1122 1.498 . S
C1123 C1124 1.366 . S
C1123 C1128 1.407 . S
C1124 C1123 1.366 . S
C1124 C1125 1.392 . S
C1124 H1152 0.930 . S
C1125 C1124 1.392 . S
C1125 C1126 1.398 . S
C1125 H1153 0.929 . S
C1126 C1125 1.398 . S
C1126 C1127 1.352 . S
C1127 C1126 1.352 . S
C1127 C1128 1.384 . S
C1127 H1154 0.930 . S
C1128 C1123 1.407 . S
C1128 C1127 1.384 . S
C1128 H1155 0.929 . S
C1129 O1142 1.241 . S
C1129 O1143 1.273 . S
C1130 O1144 1.251 . S
C1130 O1145 1.268 . S
C1131 Nd1121 2.836 . S
C1131 C1132 1.498 . S
C1131 O1146 1.258 . S
C1131 O1147 1.239 . S
C1132 C1131 1.498 . S
C1132 C1133 1.366 . S
C1132 C1137 1.407 . S
C1133 C1132 1.366 . S
C1133 C1134 1.392 . S
C1133 H1156 0.930 . S
C1134 C1133 1.392 . S
C1134 C1135 1.398 . S
C1134 H1157 0.929 . S
C1135 C1134 1.398 . S
C1135 C1136 1.352 . S
C1136 C1135 1.352 . S
C1136 C1137 1.384 . S
C1136 H1158 0.930 . S
C1137 C1132 1.407 . S
C1137 C1136 1.384 . S
C1137 H1159 0.929 . S
C1138 O1148 1.241 . S
C1138 O1149 1.273 . S
C1139 O1150 1.251 . S
C1139 O1151 1.268 . S
O1140 Nd1120 2.500 . S
O1140 C1122 1.258 . S
O1141 Nd1120 2.492 . S
O1141 C1122 1.239 . S
O1142 Nd1120 2.487 . S
O1142 C1129 1.241 . S
O1143 Nd1120 2.682 . S
O1143 Nd1121 2.414 . S
O1143 C1129 1.273 . S
O1144 Nd1120 2.410 . S
O1144 C1130 1.251 . S
O1145 Nd1121 2.424 . S
O1145 C1130 1.268 . S
O1146 Nd1121 2.500 . S
O1146 C1131 1.258 . S
O1147 Nd1121 2.492 . S
O1147 C1131 1.239 . S
O1148 Nd1121 2.487 . S
O1148 C1138 1.241 . S
O1149 Nd1120 2.414 . S
O1149 Nd1121 2.682 . S
O1149 C1138 1.273 . S
O1150 Nd1121 2.410 . S
O1150 C1139 1.251 . S
O1151 Nd1120 2.424 . S
O1151 C1139 1.268 . S
H1152 C1124 0.930 . S
H1153 C1125 0.929 . S
H1154 C1127 0.930 . S
H1155 C1128 0.929 . S
H1156 C1133 0.930 . S
H1157 C1134 0.929 . S
H1158 C1136 0.930 . S
H1159 C1137 0.929 . S
Nd1160 C1162 2.836 . S
Nd1160 O1180 2.500 . S
Nd1160 O1181 2.492 . S
Nd1160 O1182 2.487 . S
Nd1160 O1183 2.682 . S
Nd1160 O1184 2.410 . S
Nd1160 O1189 2.414 . S
Nd1160 O1191 2.424 . S
Nd1161 C1171 2.836 . S
Nd1161 O1183 2.414 . S
Nd1161 O1185 2.424 . S
Nd1161 O1186 2.500 . S
Nd1161 O1187 2.492 . S
Nd1161 O1188 2.487 . S
Nd1161 O1189 2.682 . S
Nd1161 O1190 2.410 . S
C1162 Nd1160 2.836 . S
C1162 C1163 1.498 . S
C1162 O1180 1.258 . S
C1162 O1181 1.239 . S
C1163 C1162 1.498 . S
C1163 C1164 1.366 . S
C1163 C1168 1.407 . S
C1164 C1163 1.366 . S
C1164 C1165 1.392 . S
C1164 H1192 0.930 . S
C1165 C1164 1.392 . S
C1165 C1166 1.398 . S
C1165 H1193 0.929 . S
C1166 C1165 1.398 . S
C1166 C1167 1.352 . S
C1167 C1166 1.352 . S
C1167 C1168 1.384 . S
C1167 H1194 0.930 . S
C1168 C1163 1.407 . S
C1168 C1167 1.384 . S
C1168 H1195 0.929 . S
C1169 O1182 1.241 . S
C1169 O1183 1.273 . S
C1170 O1184 1.251 . S
C1170 O1185 1.268 . S
C1171 Nd1161 2.836 . S
C1171 C1172 1.498 . S
C1171 O1186 1.258 . S
C1171 O1187 1.239 . S
C1172 C1171 1.498 . S
C1172 C1173 1.366 . S
C1172 C1177 1.407 . S
C1173 C1172 1.366 . S
C1173 C1174 1.392 . S
C1173 H1196 0.930 . S
C1174 C1173 1.392 . S
C1174 C1175 1.398 . S
C1174 H1197 0.929 . S
C1175 C1174 1.398 . S
C1175 C1176 1.352 . S
C1176 C1175 1.352 . S
C1176 C1177 1.384 . S
C1176 H1198 0.930 . S
C1177 C1172 1.407 . S
C1177 C1176 1.384 . S
C1177 H1199 0.929 . S
C1178 O1188 1.241 . S
C1178 O1189 1.273 . S
C1179 O1190 1.251 . S
C1179 O1191 1.268 . S
O1180 Nd1160 2.500 . S
O1180 C1162 1.258 . S
O1181 Nd1160 2.492 . S
O1181 C1162 1.239 . S
O1182 Nd1160 2.487 . S
O1182 C1169 1.241 . S
O1183 Nd1160 2.682 . S
O1183 Nd1161 2.414 . S
O1183 C1169 1.273 . S
O1184 Nd1160 2.410 . S
O1184 C1170 1.251 . S
O1185 Nd1161 2.424 . S
O1185 C1170 1.268 . S
O1186 Nd1161 2.500 . S
O1186 C1171 1.258 . S
O1187 Nd1161 2.492 . S
O1187 C1171 1.239 . S
O1188 Nd1161 2.487 . S
O1188 C1178 1.241 . S
O1189 Nd1160 2.414 . S
O1189 Nd1161 2.682 . S
O1189 C1178 1.273 . S
O1190 Nd1161 2.410 . S
O1190 C1179 1.251 . S
O1191 Nd1160 2.424 . S
O1191 C1179 1.268 . S
H1192 C1164 0.930 . S
H1193 C1165 0.929 . S
H1194 C1167 0.930 . S
H1195 C1168 0.929 . S
H1196 C1173 0.930 . S
H1197 C1174 0.929 . S
H1198 C1176 0.930 . S
H1199 C1177 0.929 . S
Nd1200 C1202 2.836 . S
Nd1200 O1220 2.500 . S
Nd1200 O1221 2.492 . S
Nd1200 O1222 2.487 . S
Nd1200 O1223 2.682 . S
Nd1200 O1224 2.410 . S
Nd1200 O1229 2.414 . S
Nd1200 O1231 2.424 . S
Nd1201 C1211 2.836 . S
Nd1201 O1223 2.414 . S
Nd1201 O1225 2.424 . S
Nd1201 O1226 2.500 . S
Nd1201 O1227 2.492 . S
Nd1201 O1228 2.487 . S
Nd1201 O1229 2.682 . S
Nd1201 O1230 2.410 . S
C1202 Nd1200 2.836 . S
C1202 C1203 1.498 . S
C1202 O1220 1.258 . S
C1202 O1221 1.239 . S
C1203 C1202 1.498 . S
C1203 C1204 1.366 . S
C1203 C1208 1.407 . S
C1204 C1203 1.366 . S
C1204 C1205 1.392 . S
C1204 H1232 0.930 . S
C1205 C1204 1.392 . S
C1205 C1206 1.398 . S
C1205 H1233 0.929 . S
C1206 C1205 1.398 . S
C1206 C1207 1.352 . S
C1207 C1206 1.352 . S
C1207 C1208 1.384 . S
C1207 H1234 0.930 . S
C1208 C1203 1.407 . S
C1208 C1207 1.384 . S
C1208 H1235 0.929 . S
C1209 O1222 1.241 . S
C1209 O1223 1.273 . S
C1210 O1224 1.251 . S
C1210 O1225 1.268 . S
C1211 Nd1201 2.836 . S
C1211 C1212 1.498 . S
C1211 O1226 1.258 . S
C1211 O1227 1.239 . S
C1212 C1211 1.498 . S
C1212 C1213 1.366 . S
C1212 C1217 1.407 . S
C1213 C1212 1.366 . S
C1213 C1214 1.392 1_455 S
C1213 H1236 0.930 . S
C1214 C1213 1.392 1_655 S
C1214 C1215 1.398 . S
C1214 H1237 0.929 . S
C1215 C1214 1.398 . S
C1215 C1216 1.352 1_655 S
C1216 C1215 1.352 1_455 S
C1216 C1217 1.384 . S
C1216 H1238 0.930 . S
C1217 C1212 1.407 . S
C1217 C1216 1.384 . S
C1217 H1239 0.929 . S
C1218 O1228 1.241 . S
C1218 O1229 1.273 . S
C1219 O1230 1.251 . S
C1219 O1231 1.268 . S
O1220 Nd1200 2.500 . S
O1220 C1202 1.258 . S
O1221 Nd1200 2.492 . S
O1221 C1202 1.239 . S
O1222 Nd1200 2.487 . S
O1222 C1209 1.241 . S
O1223 Nd1200 2.682 . S
O1223 Nd1201 2.414 . S
O1223 C1209 1.273 . S
O1224 Nd1200 2.410 . S
O1224 C1210 1.251 . S
O1225 Nd1201 2.424 . S
O1225 C1210 1.268 . S
O1226 Nd1201 2.500 . S
O1226 C1211 1.258 . S
O1227 Nd1201 2.492 . S
O1227 C1211 1.239 . S
O1228 Nd1201 2.487 . S
O1228 C1218 1.241 . S
O1229 Nd1200 2.414 . S
O1229 Nd1201 2.682 . S
O1229 C1218 1.273 . S
O1230 Nd1201 2.410 . S
O1230 C1219 1.251 . S
O1231 Nd1200 2.424 . S
O1231 C1219 1.268 . S
H1232 C1204 0.930 . S
H1233 C1205 0.929 . S
H1234 C1207 0.930 . S
H1235 C1208 0.929 . S
H1236 C1213 0.930 . S
H1237 C1214 0.929 . S
H1238 C1216 0.930 . S
H1239 C1217 0.929 . S
Nd1240 C1242 2.836 . S
Nd1240 O1260 2.500 . S
Nd1240 O1261 2.492 . S
Nd1240 O1262 2.487 . S
Nd1240 O1263 2.682 . S
Nd1240 O1264 2.410 . S
Nd1240 O1269 2.414 . S
Nd1240 O1271 2.424 . S
Nd1241 C1251 2.836 . S
Nd1241 O1263 2.414 . S
Nd1241 O1265 2.424 . S
Nd1241 O1266 2.500 . S
Nd1241 O1267 2.492 . S
Nd1241 O1268 2.487 . S
Nd1241 O1269 2.682 . S
Nd1241 O1270 2.410 . S
C1242 Nd1240 2.836 . S
C1242 C1243 1.498 . S
C1242 O1260 1.258 . S
C1242 O1261 1.239 . S
C1243 C1242 1.498 . S
C1243 C1244 1.366 . S
C1243 C1248 1.407 . S
C1244 C1243 1.366 . S
C1244 C1245 1.392 . S
C1244 H1272 0.930 . S
C1245 C1244 1.392 . S
C1245 C1246 1.398 . S
C1245 H1273 0.929 . S
C1246 C1245 1.398 . S
C1246 C1247 1.352 . S
C1247 C1246 1.352 . S
C1247 C1248 1.384 . S
C1247 H1274 0.930 . S
C1248 C1243 1.407 . S
C1248 C1247 1.384 . S
C1248 H1275 0.929 . S
C1249 O1262 1.241 . S
C1249 O1263 1.273 . S
C1250 O1264 1.251 . S
C1250 O1265 1.268 . S
C1251 Nd1241 2.836 . S
C1251 C1252 1.498 . S
C1251 O1266 1.258 . S
C1251 O1267 1.239 . S
C1252 C1251 1.498 . S
C1252 C1253 1.366 . S
C1252 C1257 1.407 . S
C1253 C1252 1.366 . S
C1253 C1254 1.392 . S
C1253 H1276 0.930 . S
C1254 C1253 1.392 . S
C1254 C1255 1.398 . S
C1254 H1277 0.929 . S
C1255 C1254 1.398 . S
C1255 C1256 1.352 . S
C1256 C1255 1.352 . S
C1256 C1257 1.384 . S
C1256 H1278 0.930 . S
C1257 C1252 1.407 . S
C1257 C1256 1.384 . S
C1257 H1279 0.929 . S
C1258 O1268 1.241 . S
C1258 O1269 1.273 . S
C1259 O1270 1.251 . S
C1259 O1271 1.268 . S
O1260 Nd1240 2.500 . S
O1260 C1242 1.258 . S
O1261 Nd1240 2.492 . S
O1261 C1242 1.239 . S
O1262 Nd1240 2.487 . S
O1262 C1249 1.241 . S
O1263 Nd1240 2.682 . S
O1263 Nd1241 2.414 . S
O1263 C1249 1.273 . S
O1264 Nd1240 2.410 . S
O1264 C1250 1.251 . S
O1265 Nd1241 2.424 . S
O1265 C1250 1.268 . S
O1266 Nd1241 2.500 . S
O1266 C1251 1.258 . S
O1267 Nd1241 2.492 . S
O1267 C1251 1.239 . S
O1268 Nd1241 2.487 . S
O1268 C1258 1.241 . S
O1269 Nd1240 2.414 . S
O1269 Nd1241 2.682 . S
O1269 C1258 1.273 . S
O1270 Nd1241 2.410 . S
O1270 C1259 1.251 . S
O1271 Nd1240 2.424 . S
O1271 C1259 1.268 . S
H1272 C1244 0.930 . S
H1273 C1245 0.929 . S
H1274 C1247 0.930 . S
H1275 C1248 0.929 . S
H1276 C1253 0.930 . S
H1277 C1254 0.929 . S
H1278 C1256 0.930 . S
H1279 C1257 0.929 . S
H1280 C1292 0.930 . S
H1281 C1294 0.930 . S
H1282 C1295 0.930 . S
H1283 C1299 0.959 . S
H1284 C1299 0.959 . S
H1285 C1299 0.961 . S
H1286 C1300 0.960 . S
H1287 C1300 0.961 . S
H1288 C1300 0.959 . S
H1289 C1303 0.929 . S
H1290 C1304 0.931 . S
H1291 C1306 0.930 . S
C1292 H1280 0.930 . S
C1292 C1293 1.399 . S
C1292 C1297 1.399 . S
C1293 C1292 1.399 . S
C1293 C1294 1.376 . S
C1294 H1281 0.930 . S
C1294 C1293 1.376 . S
C1294 C1295 1.388 . S
C1295 H1282 0.930 . S
C1295 C1294 1.388 . S
C1295 C1296 1.390 . S
C1296 C1295 1.390 . S
C1296 C1297 1.394 . S
C1296 C1302 1.465 . S
C1297 C1292 1.399 . S
C1297 C1296 1.394 . S
C1297 C1298 1.516 . S
C1298 C1297 1.516 . S
C1298 C1299 1.502 . S
C1298 C1300 1.561 . S
C1298 C1301 1.526 . S
C1299 H1283 0.959 . S
C1299 H1284 0.959 . S
C1299 H1285 0.961 . S
C1299 C1298 1.502 . S
C1300 H1286 0.960 . S
C1300 H1287 0.961 . S
C1300 H1288 0.959 . S
C1300 C1298 1.561 . S
C1301 C1298 1.526 . S
C1301 C1302 1.396 . S
C1301 C1306 1.390 . S
C1302 C1296 1.465 . S
C1302 C1301 1.396 . S
C1302 C1303 1.399 . S
C1303 H1289 0.929 . S
C1303 C1302 1.399 . S
C1303 C1304 1.385 . S
C1304 H1290 0.931 . S
C1304 C1303 1.385 . S
C1304 C1305 1.389 . S
C1305 C1304 1.389 . S
C1305 C1306 1.387 . S
C1306 H1291 0.930 . S
C1306 C1301 1.390 . S
C1306 C1305 1.387 . S
H1307 C1319 0.930 . S
H1308 C1321 0.930 . S
H1309 C1322 0.930 . S
H1310 C1326 0.959 . S
H1311 C1326 0.959 . S
H1312 C1326 0.961 . S
H1313 C1327 0.960 . S
H1314 C1327 0.961 . S
H1315 C1327 0.959 . S
H1316 C1330 0.929 . S
H1317 C1331 0.931 . S
H1318 C1333 0.930 . S
C1319 H1307 0.930 . S
C1319 C1320 1.399 . S
C1319 C1324 1.399 . S
C1320 C1319 1.399 . S
C1320 C1321 1.376 . S
C1321 H1308 0.930 . S
C1321 C1320 1.376 . S
C1321 C1322 1.388 . S
C1322 H1309 0.930 . S
C1322 C1321 1.388 . S
C1322 C1323 1.390 . S
C1323 C1322 1.390 . S
C1323 C1324 1.394 . S
C1323 C1329 1.465 . S
C1324 C1319 1.399 . S
C1324 C1323 1.394 . S
C1324 C1325 1.516 . S
C1325 C1324 1.516 . S
C1325 C1326 1.502 . S
C1325 C1327 1.561 . S
C1325 C1328 1.526 . S
C1326 H1310 0.959 . S
C1326 H1311 0.959 . S
C1326 H1312 0.961 . S
C1326 C1325 1.502 . S
C1327 H1313 0.960 . S
C1327 H1314 0.961 . S
C1327 H1315 0.959 . S
C1327 C1325 1.561 . S
C1328 C1325 1.526 . S
C1328 C1329 1.396 . S
C1328 C1333 1.390 . S
C1329 C1323 1.465 . S
C1329 C1328 1.396 . S
C1329 C1330 1.399 . S
C1330 H1316 0.929 . S
C1330 C1329 1.399 . S
C1330 C1331 1.385 . S
C1331 H1317 0.931 . S
C1331 C1330 1.385 . S
C1331 C1332 1.389 . S
C1332 C1331 1.389 . S
C1332 C1333 1.387 . S
C1333 H1318 0.930 . S
C1333 C1328 1.390 . S
C1333 C1332 1.387 . S
H1334 C1346 0.930 . S
H1335 C1348 0.930 . S
H1336 C1349 0.930 . S
H1337 C1353 0.959 . S
H1338 C1353 0.959 . S
H1339 C1353 0.961 . S
H1340 C1354 0.960 . S
H1341 C1354 0.961 . S
H1342 C1354 0.959 . S
H1343 C1357 0.929 . S
H1344 C1358 0.931 . S
H1345 C1360 0.930 . S
C1346 H1334 0.930 . S
C1346 C1347 1.399 . S
C1346 C1351 1.399 . S
C1347 C1346 1.399 . S
C1347 C1348 1.376 . S
C1348 H1335 0.930 . S
C1348 C1347 1.376 . S
C1348 C1349 1.388 . S
C1349 H1336 0.930 . S
C1349 C1348 1.388 . S
C1349 C1350 1.390 . S
C1350 C1349 1.390 . S
C1350 C1351 1.394 . S
C1350 C1356 1.465 . S
C1351 C1346 1.399 . S
C1351 C1350 1.394 . S
C1351 C1352 1.516 . S
C1352 C1351 1.516 . S
C1352 C1353 1.502 . S
C1352 C1354 1.561 . S
C1352 C1355 1.526 . S
C1353 H1337 0.959 . S
C1353 H1338 0.959 . S
C1353 H1339 0.961 . S
C1353 C1352 1.502 . S
C1354 H1340 0.960 . S
C1354 H1341 0.961 . S
C1354 H1342 0.959 . S
C1354 C1352 1.561 . S
C1355 C1352 1.526 . S
C1355 C1356 1.396 . S
C1355 C1360 1.390 . S
C1356 C1350 1.465 . S
C1356 C1355 1.396 . S
C1356 C1357 1.399 . S
C1357 H1343 0.929 . S
C1357 C1356 1.399 . S
C1357 C1358 1.385 . S
C1358 H1344 0.931 . S
C1358 C1357 1.385 . S
C1358 C1359 1.389 . S
C1359 C1358 1.389 . S
C1359 C1360 1.387 . S
C1360 H1345 0.930 . S
C1360 C1355 1.390 . S
C1360 C1359 1.387 . S
H1361 C1373 0.930 . S
H1362 C1375 0.930 . S
H1363 C1376 0.930 . S
H1364 C1380 0.959 . S
H1365 C1380 0.959 . S
H1366 C1380 0.961 . S
H1367 C1381 0.960 . S
H1368 C1381 0.961 . S
H1369 C1381 0.959 . S
H1370 C1384 0.929 . S
H1371 C1385 0.931 . S
H1372 C1387 0.930 . S
C1373 H1361 0.930 . S
C1373 C1374 1.399 . S
C1373 C1378 1.399 . S
C1374 C1373 1.399 . S
C1374 C1375 1.376 . S
C1375 H1362 0.930 . S
C1375 C1374 1.376 . S
C1375 C1376 1.388 . S
C1376 H1363 0.930 . S
C1376 C1375 1.388 . S
C1376 C1377 1.390 . S
C1377 C1376 1.390 . S
C1377 C1378 1.394 . S
C1377 C1383 1.465 . S
C1378 C1373 1.399 . S
C1378 C1377 1.394 . S
C1378 C1379 1.516 . S
C1379 C1378 1.516 . S
C1379 C1380 1.502 . S
C1379 C1381 1.561 . S
C1379 C1382 1.526 . S
C1380 H1364 0.959 . S
C1380 H1365 0.959 . S
C1380 H1366 0.961 . S
C1380 C1379 1.502 . S
C1381 H1367 0.960 . S
C1381 H1368 0.961 . S
C1381 H1369 0.959 . S
C1381 C1379 1.561 . S
C1382 C1379 1.526 . S
C1382 C1383 1.396 . S
C1382 C1387 1.390 . S
C1383 C1377 1.465 . S
C1383 C1382 1.396 . S
C1383 C1384 1.399 . S
C1384 H1370 0.929 . S
C1384 C1383 1.399 . S
C1384 C1385 1.385 . S
C1385 H1371 0.931 . S
C1385 C1384 1.385 . S
C1385 C1386 1.389 . S
C1386 C1385 1.389 . S
C1386 C1387 1.387 . S
C1387 H1372 0.930 . S
C1387 C1382 1.390 . S
C1387 C1386 1.387 . S
H1388 C1400 0.930 . S
H1389 C1402 0.930 . S
H1390 C1403 0.930 . S
H1391 C1407 0.959 . S
H1392 C1407 0.959 . S
H1393 C1407 0.961 . S
H1394 C1408 0.960 . S
H1395 C1408 0.961 . S
H1396 C1408 0.959 . S
H1397 C1411 0.929 . S
H1398 C1412 0.931 . S
H1399 C1414 0.930 . S
C1400 H1388 0.930 . S
C1400 C1401 1.399 . S
C1400 C1405 1.399 . S
C1401 C1400 1.399 . S
C1401 C1402 1.376 . S
C1402 H1389 0.930 . S
C1402 C1401 1.376 . S
C1402 C1403 1.388 . S
C1403 H1390 0.930 . S
C1403 C1402 1.388 . S
C1403 C1404 1.390 . S
C1404 C1403 1.390 . S
C1404 C1405 1.394 . S
C1404 C1410 1.465 . S
C1405 C1400 1.399 . S
C1405 C1404 1.394 . S
C1405 C1406 1.516 . S
C1406 C1405 1.516 . S
C1406 C1407 1.502 . S
C1406 C1408 1.561 . S
C1406 C1409 1.526 . S
C1407 H1391 0.959 . S
C1407 H1392 0.959 . S
C1407 H1393 0.961 . S
C1407 C1406 1.502 . S
C1408 H1394 0.960 . S
C1408 H1395 0.961 . S
C1408 H1396 0.959 . S
C1408 C1406 1.561 . S
C1409 C1406 1.526 . S
C1409 C1410 1.396 . S
C1409 C1414 1.390 . S
C1410 C1404 1.465 . S
C1410 C1409 1.396 . S
C1410 C1411 1.399 . S
C1411 H1397 0.929 . S
C1411 C1410 1.399 . S
C1411 C1412 1.385 . S
C1412 H1398 0.931 . S
C1412 C1411 1.385 . S
C1412 C1413 1.389 . S
C1413 C1412 1.389 . S
C1413 C1414 1.387 . S
C1414 H1399 0.930 . S
C1414 C1409 1.390 . S
C1414 C1413 1.387 . S
H1415 C1427 0.930 . S
H1416 C1429 0.930 . S
H1417 C1430 0.930 . S
H1418 C1434 0.959 . S
H1419 C1434 0.959 . S
H1420 C1434 0.961 . S
H1421 C1435 0.960 . S
H1422 C1435 0.961 . S
H1423 C1435 0.959 . S
H1424 C1438 0.929 . S
H1425 C1439 0.931 . S
H1426 C1441 0.930 . S
C1427 H1415 0.930 . S
C1427 C1428 1.399 . S
C1427 C1432 1.399 . S
C1428 C1427 1.399 . S
C1428 C1429 1.376 . S
C1429 H1416 0.930 . S
C1429 C1428 1.376 . S
C1429 C1430 1.388 . S
C1430 H1417 0.930 . S
C1430 C1429 1.388 . S
C1430 C1431 1.390 . S
C1431 C1430 1.390 . S
C1431 C1432 1.394 . S
C1431 C1437 1.465 . S
C1432 C1427 1.399 . S
C1432 C1431 1.394 . S
C1432 C1433 1.516 . S
C1433 C1432 1.516 . S
C1433 C1434 1.502 . S
C1433 C1435 1.561 . S
C1433 C1436 1.526 . S
C1434 H1418 0.959 . S
C1434 H1419 0.959 . S
C1434 H1420 0.961 . S
C1434 C1433 1.502 . S
C1435 H1421 0.960 . S
C1435 H1422 0.961 . S
C1435 H1423 0.959 . S
C1435 C1433 1.561 . S
C1436 C1433 1.526 . S
C1436 C1437 1.396 . S
C1436 C1441 1.390 . S
C1437 C1431 1.465 . S
C1437 C1436 1.396 . S
C1437 C1438 1.399 . S
C1438 H1424 0.929 . S
C1438 C1437 1.399 . S
C1438 C1439 1.385 . S
C1439 H1425 0.931 . S
C1439 C1438 1.385 . S
C1439 C1440 1.389 . S
C1440 C1439 1.389 . S
C1440 C1441 1.387 . S
C1441 H1426 0.930 . S
C1441 C1436 1.390 . S
C1441 C1440 1.387 . S
H1442 C1454 0.930 . S
H1443 C1456 0.930 . S
H1444 C1457 0.930 . S
H1445 C1461 0.959 . S
H1446 C1461 0.959 . S
H1447 C1461 0.961 . S
H1448 C1462 0.960 . S
H1449 C1462 0.961 . S
H1450 C1462 0.959 . S
H1451 C1465 0.929 . S
H1452 C1466 0.931 . S
H1453 C1468 0.930 . S
C1454 H1442 0.930 . S
C1454 C1455 1.399 . S
C1454 C1459 1.399 . S
C1455 C1454 1.399 . S
C1455 C1456 1.376 . S
C1456 H1443 0.930 . S
C1456 C1455 1.376 . S
C1456 C1457 1.388 . S
C1457 H1444 0.930 . S
C1457 C1456 1.388 . S
C1457 C1458 1.390 . S
C1458 C1457 1.390 . S
C1458 C1459 1.394 . S
C1458 C1464 1.465 . S
C1459 C1454 1.399 . S
C1459 C1458 1.394 . S
C1459 C1460 1.516 . S
C1460 C1459 1.516 . S
C1460 C1461 1.502 . S
C1460 C1462 1.561 . S
C1460 C1463 1.526 . S
C1461 H1445 0.959 . S
C1461 H1446 0.959 . S
C1461 H1447 0.961 . S
C1461 C1460 1.502 . S
C1462 H1448 0.960 . S
C1462 H1449 0.961 . S
C1462 H1450 0.959 . S
C1462 C1460 1.561 . S
C1463 C1460 1.526 . S
C1463 C1464 1.396 . S
C1463 C1468 1.390 . S
C1464 C1458 1.465 . S
C1464 C1463 1.396 . S
C1464 C1465 1.399 . S
C1465 H1451 0.929 . S
C1465 C1464 1.399 . S
C1465 C1466 1.385 . S
C1466 H1452 0.931 . S
C1466 C1465 1.385 . S
C1466 C1467 1.389 . S
C1467 C1466 1.389 . S
C1467 C1468 1.387 . S
C1468 H1453 0.930 . S
C1468 C1463 1.390 . S
C1468 C1467 1.387 . S
H1469 C1481 0.930 . S
H1470 C1483 0.930 . S
H1471 C1484 0.930 . S
H1472 C1488 0.959 . S
H1473 C1488 0.959 . S
H1474 C1488 0.961 . S
H1475 C1489 0.960 . S
H1476 C1489 0.961 . S
H1477 C1489 0.959 . S
H1478 C1492 0.929 1_655 S
H1479 C1493 0.931 . S
H1480 C1495 0.930 . S
C1481 H1469 0.930 . S
C1481 C1482 1.399 . S
C1481 C1486 1.399 . S
C1482 C1481 1.399 . S
C1482 C1483 1.376 . S
C1483 H1470 0.930 . S
C1483 C1482 1.376 . S
C1483 C1484 1.388 . S
C1484 H1471 0.930 . S
C1484 C1483 1.388 . S
C1484 C1485 1.390 . S
C1485 C1484 1.390 . S
C1485 C1486 1.394 . S
C1485 C1491 1.465 . S
C1486 C1481 1.399 . S
C1486 C1485 1.394 . S
C1486 C1487 1.516 . S
C1487 C1486 1.516 . S
C1487 C1488 1.502 . S
C1487 C1489 1.561 . S
C1487 C1490 1.526 . S
C1488 H1472 0.959 . S
C1488 H1473 0.959 . S
C1488 H1474 0.961 . S
C1488 C1487 1.502 . S
C1489 H1475 0.960 . S
C1489 H1476 0.961 . S
C1489 H1477 0.959 . S
C1489 C1487 1.561 . S
C1490 C1487 1.526 . S
C1490 C1491 1.396 . S
C1490 C1495 1.390 . S
C1491 C1485 1.465 . S
C1491 C1490 1.396 . S
C1491 C1492 1.399 . S
C1492 H1478 0.929 1_455 S
C1492 C1491 1.399 . S
C1492 C1493 1.385 1_455 S
C1493 H1479 0.931 . S
C1493 C1492 1.385 1_655 S
C1493 C1494 1.389 1_655 S
C1494 C1493 1.389 1_455 S
C1494 C1495 1.387 . S
C1495 H1480 0.930 . S
C1495 C1490 1.390 . S
C1495 C1494 1.387 . S
H1496 C1508 0.930 . S
H1497 C1510 0.930 . S
H1498 C1511 0.930 . S
H1499 C1515 0.959 . S
H1500 C1515 0.959 . S
H1501 C1515 0.961 . S
H1502 C1516 0.960 . S
H1503 C1516 0.961 . S
H1504 C1516 0.959 . S
H1505 C1519 0.929 . S
H1506 C1520 0.931 . S
H1507 C1522 0.930 . S
C1508 H1496 0.930 . S
C1508 C1509 1.399 . S
C1508 C1513 1.399 . S
C1509 C1508 1.399 . S
C1509 C1510 1.376 . S
C1510 H1497 0.930 . S
C1510 C1509 1.376 . S
C1510 C1511 1.388 . S
C1511 H1498 0.930 . S
C1511 C1510 1.388 . S
C1511 C1512 1.390 . S
C1512 C1511 1.390 . S
C1512 C1513 1.394 . S
C1512 C1518 1.465 . S
C1513 C1508 1.399 . S
C1513 C1512 1.394 . S
C1513 C1514 1.516 . S
C1514 C1513 1.516 . S
C1514 C1515 1.502 . S
C1514 C1516 1.561 . S
C1514 C1517 1.526 . S
C1515 H1499 0.959 . S
C1515 H1500 0.959 . S
C1515 H1501 0.961 . S
C1515 C1514 1.502 . S
C1516 H1502 0.960 . S
C1516 H1503 0.961 . S
C1516 H1504 0.959 . S
C1516 C1514 1.561 . S
C1517 C1514 1.526 . S
C1517 C1518 1.396 . S
C1517 C1522 1.390 . S
C1518 C1512 1.465 . S
C1518 C1517 1.396 . S
C1518 C1519 1.399 . S
C1519 H1505 0.929 . S
C1519 C1518 1.399 . S
C1519 C1520 1.385 . S
C1520 H1506 0.931 . S
C1520 C1519 1.385 . S
C1520 C1521 1.389 . S
C1521 C1520 1.389 . S
C1521 C1522 1.387 . S
C1522 H1507 0.930 . S
C1522 C1517 1.390 . S
C1522 C1521 1.387 . S
H1523 C1535 0.930 . S
H1524 C1537 0.930 . S
H1525 C1538 0.930 . S
H1526 C1542 0.959 . S
H1527 C1542 0.959 . S
H1528 C1542 0.961 . S
H1529 C1543 0.960 . S
H1530 C1543 0.961 . S
H1531 C1543 0.959 . S
H1532 C1546 0.929 . S
H1533 C1547 0.931 . S
H1534 C1549 0.930 . S
C1535 H1523 0.930 . S
C1535 C1536 1.399 . S
C1535 C1540 1.399 . S
C1536 C1535 1.399 . S
C1536 C1537 1.376 . S
C1537 H1524 0.930 . S
C1537 C1536 1.376 . S
C1537 C1538 1.388 . S
C1538 H1525 0.930 . S
C1538 C1537 1.388 . S
C1538 C1539 1.390 . S
C1539 C1538 1.390 . S
C1539 C1540 1.394 . S
C1539 C1545 1.465 . S
C1540 C1535 1.399 . S
C1540 C1539 1.394 . S
C1540 C1541 1.516 . S
C1541 C1540 1.516 . S
C1541 C1542 1.502 . S
C1541 C1543 1.561 . S
C1541 C1544 1.526 . S
C1542 H1526 0.959 . S
C1542 H1527 0.959 . S
C1542 H1528 0.961 . S
C1542 C1541 1.502 . S
C1543 H1529 0.960 . S
C1543 H1530 0.961 . S
C1543 H1531 0.959 . S
C1543 C1541 1.561 . S
C1544 C1541 1.526 . S
C1544 C1545 1.396 . S
C1544 C1549 1.390 . S
C1545 C1539 1.465 . S
C1545 C1544 1.396 . S
C1545 C1546 1.399 . S
C1546 H1532 0.929 . S
C1546 C1545 1.399 . S
C1546 C1547 1.385 . S
C1547 H1533 0.931 . S
C1547 C1546 1.385 . S
C1547 C1548 1.389 . S
C1548 C1547 1.389 . S
C1548 C1549 1.387 . S
C1549 H1534 0.930 . S
C1549 C1544 1.390 . S
C1549 C1548 1.387 . S
H1550 C1562 0.930 . S
H1551 C1564 0.930 . S
H1552 C1565 0.930 . S
H1553 C1569 0.959 . S
H1554 C1569 0.959 . S
H1555 C1569 0.961 . S
H1556 C1570 0.960 . S
H1557 C1570 0.961 . S
H1558 C1570 0.959 . S
H1559 C1573 0.929 . S
H1560 C1574 0.931 . S
H1561 C1576 0.930 . S
C1562 H1550 0.930 . S
C1562 C1563 1.399 . S
C1562 C1567 1.399 . S
C1563 C1562 1.399 . S
C1563 C1564 1.376 . S
C1564 H1551 0.930 . S
C1564 C1563 1.376 . S
C1564 C1565 1.388 . S
C1565 H1552 0.930 . S
C1565 C1564 1.388 . S
C1565 C1566 1.390 . S
C1566 C1565 1.390 . S
C1566 C1567 1.394 . S
C1566 C1572 1.465 . S
C1567 C1562 1.399 . S
C1567 C1566 1.394 . S
C1567 C1568 1.516 . S
C1568 C1567 1.516 . S
C1568 C1569 1.502 . S
C1568 C1570 1.561 . S
C1568 C1571 1.526 . S
C1569 H1553 0.959 . S
C1569 H1554 0.959 . S
C1569 H1555 0.961 . S
C1569 C1568 1.502 . S
C1570 H1556 0.960 . S
C1570 H1557 0.961 . S
C1570 H1558 0.959 . S
C1570 C1568 1.561 . S
C1571 C1568 1.526 . S
C1571 C1572 1.396 . S
C1571 C1576 1.390 . S
C1572 C1566 1.465 . S
C1572 C1571 1.396 . S
C1572 C1573 1.399 . S
C1573 H1559 0.929 . S
C1573 C1572 1.399 . S
C1573 C1574 1.385 . S
C1574 H1560 0.931 . S
C1574 C1573 1.385 . S
C1574 C1575 1.389 . S
C1575 C1574 1.389 . S
C1575 C1576 1.387 . S
C1576 H1561 0.930 . S
C1576 C1571 1.390 . S
C1576 C1575 1.387 . S
H1577 C1589 0.930 . S
H1578 C1591 0.930 . S
H1579 C1592 0.930 . S
H1580 C1596 0.959 . S
H1581 C1596 0.959 . S
H1582 C1596 0.961 . S
H1583 C1597 0.960 . S
H1584 C1597 0.961 . S
H1585 C1597 0.959 . S
H1586 C1600 0.929 . S
H1587 C1601 0.931 . S
H1588 C1603 0.930 . S
C1589 H1577 0.930 . S
C1589 C1590 1.399 . S
C1589 C1594 1.399 . S
C1590 C1589 1.399 . S
C1590 C1591 1.376 . S
C1591 H1578 0.930 . S
C1591 C1590 1.376 . S
C1591 C1592 1.388 . S
C1592 H1579 0.930 . S
C1592 C1591 1.388 . S
C1592 C1593 1.390 . S
C1593 C1592 1.390 . S
C1593 C1594 1.394 . S
C1593 C1599 1.465 . S
C1594 C1589 1.399 . S
C1594 C1593 1.394 . S
C1594 C1595 1.516 . S
C1595 C1594 1.516 . S
C1595 C1596 1.502 . S
C1595 C1597 1.561 . S
C1595 C1598 1.526 . S
C1596 H1580 0.959 . S
C1596 H1581 0.959 . S
C1596 H1582 0.961 . S
C1596 C1595 1.502 . S
C1597 H1583 0.960 . S
C1597 H1584 0.961 . S
C1597 H1585 0.959 . S
C1597 C1595 1.561 . S
C1598 C1595 1.526 . S
C1598 C1599 1.396 . S
C1598 C1603 1.390 . S
C1599 C1593 1.465 . S
C1599 C1598 1.396 . S
C1599 C1600 1.399 . S
C1600 H1586 0.929 . S
C1600 C1599 1.399 . S
C1600 C1601 1.385 . S
C1601 H1587 0.931 . S
C1601 C1600 1.385 . S
C1601 C1602 1.389 . S
C1602 C1601 1.389 . S
C1602 C1603 1.387 . S
C1603 H1588 0.930 . S
C1603 C1598 1.390 . S
C1603 C1602 1.387 . S
H1604 C1616 0.930 . S
H1605 C1618 0.930 . S
H1606 C1619 0.930 . S
H1607 C1623 0.959 . S
H1608 C1623 0.959 . S
H1609 C1623 0.961 . S
H1610 C1624 0.960 . S
H1611 C1624 0.961 . S
H1612 C1624 0.959 . S
H1613 C1627 0.929 . S
H1614 C1628 0.931 . S
H1615 C1630 0.930 . S
C1616 H1604 0.930 . S
C1616 C1617 1.399 . S
C1616 C1621 1.399 . S
C1617 C1616 1.399 . S
C1617 C1618 1.376 . S
C1618 H1605 0.930 . S
C1618 C1617 1.376 . S
C1618 C1619 1.388 . S
C1619 H1606 0.930 . S
C1619 C1618 1.388 . S
C1619 C1620 1.390 . S
C1620 C1619 1.390 . S
C1620 C1621 1.394 . S
C1620 C1626 1.465 . S
C1621 C1616 1.399 . S
C1621 C1620 1.394 . S
C1621 C1622 1.516 . S
C1622 C1621 1.516 . S
C1622 C1623 1.502 . S
C1622 C1624 1.561 . S
C1622 C1625 1.526 . S
C1623 H1607 0.959 . S
C1623 H1608 0.959 . S
C1623 H1609 0.961 . S
C1623 C1622 1.502 . S
C1624 H1610 0.960 . S
C1624 H1611 0.961 . S
C1624 H1612 0.959 . S
C1624 C1622 1.561 . S
C1625 C1622 1.526 . S
C1625 C1626 1.396 . S
C1625 C1630 1.390 . S
C1626 C1620 1.465 . S
C1626 C1625 1.396 . S
C1626 C1627 1.399 . S
C1627 H1613 0.929 . S
C1627 C1626 1.399 . S
C1627 C1628 1.385 . S
C1628 H1614 0.931 . S
C1628 C1627 1.385 . S
C1628 C1629 1.389 . S
C1629 C1628 1.389 . S
C1629 C1630 1.387 . S
C1630 H1615 0.930 . S
C1630 C1625 1.390 . S
C1630 C1629 1.387 . S
H1631 C1643 0.930 . S
H1632 C1645 0.930 . S
H1633 C1646 0.930 . S
H1634 C1650 0.959 . S
H1635 C1650 0.959 . S
H1636 C1650 0.961 . S
H1637 C1651 0.960 . S
H1638 C1651 0.961 . S
H1639 C1651 0.959 . S
H1640 C1654 0.929 . S
H1641 C1655 0.931 . S
H1642 C1657 0.930 . S
C1643 H1631 0.930 . S
C1643 C1644 1.399 . S
C1643 C1648 1.399 . S
C1644 C1643 1.399 . S
C1644 C1645 1.376 . S
C1645 H1632 0.930 . S
C1645 C1644 1.376 . S
C1645 C1646 1.388 . S
C1646 H1633 0.930 . S
C1646 C1645 1.388 . S
C1646 C1647 1.390 . S
C1647 C1646 1.390 . S
C1647 C1648 1.394 . S
C1647 C1653 1.465 . S
C1648 C1643 1.399 . S
C1648 C1647 1.394 . S
C1648 C1649 1.516 . S
C1649 C1648 1.516 . S
C1649 C1650 1.502 . S
C1649 C1651 1.561 . S
C1649 C1652 1.526 . S
C1650 H1634 0.959 . S
C1650 H1635 0.959 . S
C1650 H1636 0.961 . S
C1650 C1649 1.502 . S
C1651 H1637 0.960 . S
C1651 H1638 0.961 . S
C1651 H1639 0.959 . S
C1651 C1649 1.561 . S
C1652 C1649 1.526 . S
C1652 C1653 1.396 . S
C1652 C1657 1.390 . S
C1653 C1647 1.465 . S
C1653 C1652 1.396 . S
C1653 C1654 1.399 . S
C1654 H1640 0.929 . S
C1654 C1653 1.399 . S
C1654 C1655 1.385 . S
C1655 H1641 0.931 . S
C1655 C1654 1.385 . S
C1655 C1656 1.389 . S
C1656 C1655 1.389 . S
C1656 C1657 1.387 . S
C1657 H1642 0.930 . S
C1657 C1652 1.390 . S
C1657 C1656 1.387 . S
H1658 C1670 0.930 . S
H1659 C1672 0.930 . S
H1660 C1673 0.930 . S
H1661 C1677 0.959 . S
H1662 C1677 0.959 . S
H1663 C1677 0.961 . S
H1664 C1678 0.960 . S
H1665 C1678 0.961 . S
H1666 C1678 0.959 . S
H1667 C1681 0.929 . S
H1668 C1682 0.931 . S
H1669 C1684 0.930 . S
C1670 H1658 0.930 . S
C1670 C1671 1.399 . S
C1670 C1675 1.399 . S
C1671 C1670 1.399 . S
C1671 C1672 1.376 . S
C1672 H1659 0.930 . S
C1672 C1671 1.376 . S
C1672 C1673 1.388 . S
C1673 H1660 0.930 . S
C1673 C1672 1.388 . S
C1673 C1674 1.390 . S
C1674 C1673 1.390 . S
C1674 C1675 1.394 . S
C1674 C1680 1.465 . S
C1675 C1670 1.399 . S
C1675 C1674 1.394 . S
C1675 C1676 1.516 . S
C1676 C1675 1.516 . S
C1676 C1677 1.502 . S
C1676 C1678 1.561 . S
C1676 C1679 1.526 . S
C1677 H1661 0.959 . S
C1677 H1662 0.959 . S
C1677 H1663 0.961 . S
C1677 C1676 1.502 . S
C1678 H1664 0.960 . S
C1678 H1665 0.961 . S
C1678 H1666 0.959 . S
C1678 C1676 1.561 . S
C1679 C1676 1.526 . S
C1679 C1680 1.396 . S
C1679 C1684 1.390 . S
C1680 C1674 1.465 . S
C1680 C1679 1.396 . S
C1680 C1681 1.399 . S
C1681 H1667 0.929 . S
C1681 C1680 1.399 . S
C1681 C1682 1.385 . S
C1682 H1668 0.931 . S
C1682 C1681 1.385 . S
C1682 C1683 1.389 . S
C1683 C1682 1.389 . S
C1683 C1684 1.387 . S
C1684 H1669 0.930 . S
C1684 C1679 1.390 . S
C1684 C1683 1.387 . S
H1685 C1697 0.930 . S
H1686 C1699 0.930 . S
H1687 C1700 0.930 . S
H1688 C1704 0.959 . S
H1689 C1704 0.959 . S
H1690 C1704 0.961 . S
H1691 C1705 0.960 . S
H1692 C1705 0.961 . S
H1693 C1705 0.959 . S
H1694 C1708 0.929 . S
H1695 C1709 0.931 . S
H1696 C1711 0.930 . S
C1697 H1685 0.930 . S
C1697 C1698 1.399 . S
C1697 C1702 1.399 . S
C1698 C1697 1.399 . S
C1698 C1699 1.376 . S
C1699 H1686 0.930 . S
C1699 C1698 1.376 . S
C1699 C1700 1.388 . S
C1700 H1687 0.930 . S
C1700 C1699 1.388 . S
C1700 C1701 1.390 . S
C1701 C1700 1.390 . S
C1701 C1702 1.394 . S
C1701 C1707 1.465 . S
C1702 C1697 1.399 . S
C1702 C1701 1.394 . S
C1702 C1703 1.516 . S
C1703 C1702 1.516 . S
C1703 C1704 1.502 . S
C1703 C1705 1.561 . S
C1703 C1706 1.526 . S
C1704 H1688 0.959 . S
C1704 H1689 0.959 . S
C1704 H1690 0.961 . S
C1704 C1703 1.502 . S
C1705 H1691 0.960 . S
C1705 H1692 0.961 . S
C1705 H1693 0.959 . S
C1705 C1703 1.561 . S
C1706 C1703 1.526 . S
C1706 C1707 1.396 . S
C1706 C1711 1.390 . S
C1707 C1701 1.465 . S
C1707 C1706 1.396 . S
C1707 C1708 1.399 . S
C1708 H1694 0.929 . S
C1708 C1707 1.399 . S
C1708 C1709 1.385 . S
C1709 H1695 0.931 . S
C1709 C1708 1.385 . S
C1709 C1710 1.389 . S
C1710 C1709 1.389 . S
C1710 C1711 1.387 . S
C1711 H1696 0.930 . S
C1711 C1706 1.390 . S
C1711 C1710 1.387 . S
H1712 C1724 0.930 . S
H1713 C1726 0.930 . S
H1714 C1727 0.930 . S
H1715 C1731 0.959 . S
H1716 C1731 0.959 . S
H1717 C1731 0.961 . S
H1718 C1732 0.960 . S
H1719 C1732 0.961 . S
H1720 C1732 0.959 . S
H1721 C1735 0.929 . S
H1722 C1736 0.931 . S
H1723 C1738 0.930 . S
C1724 H1712 0.930 . S
C1724 C1725 1.399 . S
C1724 C1729 1.399 . S
C1725 C1724 1.399 . S
C1725 C1726 1.376 . S
C1726 H1713 0.930 . S
C1726 C1725 1.376 . S
C1726 C1727 1.388 . S
C1727 H1714 0.930 . S
C1727 C1726 1.388 . S
C1727 C1728 1.390 . S
C1728 C1727 1.390 . S
C1728 C1729 1.394 . S
C1728 C1734 1.465 . S
C1729 C1724 1.399 . S
C1729 C1728 1.394 . S
C1729 C1730 1.516 . S
C1730 C1729 1.516 . S
C1730 C1731 1.502 . S
C1730 C1732 1.561 . S
C1730 C1733 1.526 . S
C1731 H1715 0.959 . S
C1731 H1716 0.959 . S
C1731 H1717 0.961 . S
C1731 C1730 1.502 . S
C1732 H1718 0.960 . S
C1732 H1719 0.961 . S
C1732 H1720 0.959 . S
C1732 C1730 1.561 . S
C1733 C1730 1.526 . S
C1733 C1734 1.396 . S
C1733 C1738 1.390 . S
C1734 C1728 1.465 . S
C1734 C1733 1.396 . S
C1734 C1735 1.399 . S
C1735 H1721 0.929 . S
C1735 C1734 1.399 . S
C1735 C1736 1.385 . S
C1736 H1722 0.931 . S
C1736 C1735 1.385 . S
C1736 C1737 1.389 . S
C1737 C1736 1.389 . S
C1737 C1738 1.387 . S
C1738 H1723 0.930 . S
C1738 C1733 1.390 . S
C1738 C1737 1.387 . S
H1739 C1751 0.930 . S
H1740 C1753 0.930 . S
H1741 C1754 0.930 . S
H1742 C1758 0.959 . S
H1743 C1758 0.959 . S
H1744 C1758 0.961 . S
H1745 C1759 0.960 . S
H1746 C1759 0.961 . S
H1747 C1759 0.959 . S
H1748 C1762 0.929 . S
H1749 C1763 0.931 . S
H1750 C1765 0.930 . S
C1751 H1739 0.930 . S
C1751 C1752 1.399 . S
C1751 C1756 1.399 . S
C1752 C1751 1.399 . S
C1752 C1753 1.376 . S
C1753 H1740 0.930 . S
C1753 C1752 1.376 . S
C1753 C1754 1.388 . S
C1754 H1741 0.930 . S
C1754 C1753 1.388 . S
C1754 C1755 1.390 . S
C1755 C1754 1.390 . S
C1755 C1756 1.394 . S
C1755 C1761 1.465 . S
C1756 C1751 1.399 . S
C1756 C1755 1.394 . S
C1756 C1757 1.516 . S
C1757 C1756 1.516 . S
C1757 C1758 1.502 . S
C1757 C1759 1.561 . S
C1757 C1760 1.526 . S
C1758 H1742 0.959 . S
C1758 H1743 0.959 . S
C1758 H1744 0.961 . S
C1758 C1757 1.502 . S
C1759 H1745 0.960 . S
C1759 H1746 0.961 . S
C1759 H1747 0.959 . S
C1759 C1757 1.561 . S
C1760 C1757 1.526 . S
C1760 C1761 1.396 . S
C1760 C1765 1.390 . S
C1761 C1755 1.465 . S
C1761 C1760 1.396 . S
C1761 C1762 1.399 . S
C1762 H1748 0.929 . S
C1762 C1761 1.399 . S
C1762 C1763 1.385 . S
C1763 H1749 0.931 . S
C1763 C1762 1.385 . S
C1763 C1764 1.389 . S
C1764 C1763 1.389 . S
C1764 C1765 1.387 . S
C1765 H1750 0.930 . S
C1765 C1760 1.390 . S
C1765 C1764 1.387 . S
H1766 C1778 0.930 . S
H1767 C1780 0.930 . S
H1768 C1781 0.930 . S
H1769 C1785 0.959 . S
H1770 C1785 0.959 . S
H1771 C1785 0.961 . S
H1772 C1786 0.960 . S
H1773 C1786 0.961 . S
H1774 C1786 0.959 . S
H1775 C1789 0.929 . S
H1776 C1790 0.931 . S
H1777 C1792 0.930 . S
C1778 H1766 0.930 . S
C1778 C1779 1.399 . S
C1778 C1783 1.399 . S
C1779 C1778 1.399 . S
C1779 C1780 1.376 . S
C1780 H1767 0.930 . S
C1780 C1779 1.376 . S
C1780 C1781 1.388 . S
C1781 H1768 0.930 . S
C1781 C1780 1.388 . S
C1781 C1782 1.390 . S
C1782 C1781 1.390 . S
C1782 C1783 1.394 . S
C1782 C1788 1.465 . S
C1783 C1778 1.399 . S
C1783 C1782 1.394 . S
C1783 C1784 1.516 . S
C1784 C1783 1.516 . S
C1784 C1785 1.502 . S
C1784 C1786 1.561 . S
C1784 C1787 1.526 . S
C1785 H1769 0.959 . S
C1785 H1770 0.959 . S
C1785 H1771 0.961 . S
C1785 C1784 1.502 . S
C1786 H1772 0.960 . S
C1786 H1773 0.961 . S
C1786 H1774 0.959 . S
C1786 C1784 1.561 . S
C1787 C1784 1.526 . S
C1787 C1788 1.396 . S
C1787 C1792 1.390 . S
C1788 C1782 1.465 . S
C1788 C1787 1.396 . S
C1788 C1789 1.399 . S
C1789 H1775 0.929 . S
C1789 C1788 1.399 . S
C1789 C1790 1.385 . S
C1790 H1776 0.931 . S
C1790 C1789 1.385 . S
C1790 C1791 1.389 . S
C1791 C1790 1.389 . S
C1791 C1792 1.387 . S
C1792 H1777 0.930 . S
C1792 C1787 1.390 . S
C1792 C1791 1.387 . S
H1793 C1805 0.930 . S
H1794 C1807 0.930 . S
H1795 C1808 0.930 . S
H1796 C1812 0.959 . S
H1797 C1812 0.959 . S
H1798 C1812 0.961 . S
H1799 C1813 0.960 . S
H1800 C1813 0.961 . S
H1801 C1813 0.959 . S
H1802 C1816 0.929 . S
H1803 C1817 0.931 . S
H1804 C1819 0.930 . S
C1805 H1793 0.930 . S
C1805 C1806 1.399 . S
C1805 C1810 1.399 . S
C1806 C1805 1.399 . S
C1806 C1807 1.376 . S
C1807 H1794 0.930 . S
C1807 C1806 1.376 . S
C1807 C1808 1.388 . S
C1808 H1795 0.930 . S
C1808 C1807 1.388 . S
C1808 C1809 1.390 . S
C1809 C1808 1.390 . S
C1809 C1810 1.394 . S
C1809 C1815 1.465 . S
C1810 C1805 1.399 . S
C1810 C1809 1.394 . S
C1810 C1811 1.516 . S
C1811 C1810 1.516 . S
C1811 C1812 1.502 . S
C1811 C1813 1.561 . S
C1811 C1814 1.526 . S
C1812 H1796 0.959 . S
C1812 H1797 0.959 . S
C1812 H1798 0.961 . S
C1812 C1811 1.502 . S
C1813 H1799 0.960 . S
C1813 H1800 0.961 . S
C1813 H1801 0.959 . S
C1813 C1811 1.561 . S
C1814 C1811 1.526 . S
C1814 C1815 1.396 . S
C1814 C1819 1.390 . S
C1815 C1809 1.465 . S
C1815 C1814 1.396 . S
C1815 C1816 1.399 . S
C1816 H1802 0.929 . S
C1816 C1815 1.399 . S
C1816 C1817 1.385 1_655 S
C1817 H1803 0.931 . S
C1817 C1816 1.385 1_455 S
C1817 C1818 1.389 1_455 S
C1818 C1817 1.389 1_655 S
C1818 C1819 1.387 . S
C1819 H1804 0.930 . S
C1819 C1814 1.390 . S
C1819 C1818 1.387 . S
H1820 C1832 0.930 . S
H1821 C1834 0.930 . S
H1822 C1835 0.930 . S
H1823 C1839 0.959 . S
H1824 C1839 0.959 . S
H1825 C1839 0.961 . S
H1826 C1840 0.960 . S
H1827 C1840 0.961 . S
H1828 C1840 0.959 . S
H1829 C1843 0.929 . S
H1830 C1844 0.931 . S
H1831 C1846 0.930 . S
C1832 H1820 0.930 . S
C1832 C1833 1.399 . S
C1832 C1837 1.399 . S
C1833 C1832 1.399 . S
C1833 C1834 1.376 . S
C1834 H1821 0.930 . S
C1834 C1833 1.376 . S
C1834 C1835 1.388 . S
C1835 H1822 0.930 . S
C1835 C1834 1.388 . S
C1835 C1836 1.390 . S
C1836 C1835 1.390 . S
C1836 C1837 1.394 . S
C1836 C1842 1.465 . S
C1837 C1832 1.399 . S
C1837 C1836 1.394 . S
C1837 C1838 1.516 . S
C1838 C1837 1.516 . S
C1838 C1839 1.502 . S
C1838 C1840 1.561 . S
C1838 C1841 1.526 . S
C1839 H1823 0.959 . S
C1839 H1824 0.959 . S
C1839 H1825 0.961 . S
C1839 C1838 1.502 . S
C1840 H1826 0.960 . S
C1840 H1827 0.961 . S
C1840 H1828 0.959 . S
C1840 C1838 1.561 . S
C1841 C1838 1.526 . S
C1841 C1842 1.396 . S
C1841 C1846 1.390 . S
C1842 C1836 1.465 . S
C1842 C1841 1.396 . S
C1842 C1843 1.399 . S
C1843 H1829 0.929 . S
C1843 C1842 1.399 . S
C1843 C1844 1.385 . S
C1844 H1830 0.931 . S
C1844 C1843 1.385 . S
C1844 C1845 1.389 . S
C1845 C1844 1.389 . S
C1845 C1846 1.387 . S
C1846 H1831 0.930 . S
C1846 C1841 1.390 . S
C1846 C1845 1.387 . S
H1847 C1859 0.930 . S
H1848 C1861 0.930 . S
H1849 C1862 0.930 . S
H1850 C1866 0.959 . S
H1851 C1866 0.959 . S
H1852 C1866 0.961 . S
H1853 C1867 0.960 . S
H1854 C1867 0.961 . S
H1855 C1867 0.959 . S
H1856 C1870 0.929 . S
H1857 C1871 0.931 . S
H1858 C1873 0.930 . S
C1859 H1847 0.930 . S
C1859 C1860 1.399 . S
C1859 C1864 1.399 . S
C1860 C1859 1.399 . S
C1860 C1861 1.376 1_655 S
C1861 H1848 0.930 . S
C1861 C1860 1.376 1_455 S
C1861 C1862 1.388 1_455 S
C1862 H1849 0.930 . S
C1862 C1861 1.388 1_655 S
C1862 C1863 1.390 . S
C1863 C1862 1.390 . S
C1863 C1864 1.394 . S
C1863 C1869 1.465 . S
C1864 C1859 1.399 . S
C1864 C1863 1.394 . S
C1864 C1865 1.516 . S
C1865 C1864 1.516 . S
C1865 C1866 1.502 . S
C1865 C1867 1.561 . S
C1865 C1868 1.526 . S
C1866 H1850 0.959 . S
C1866 H1851 0.959 . S
C1866 H1852 0.961 . S
C1866 C1865 1.502 . S
C1867 H1853 0.960 . S
C1867 H1854 0.961 . S
C1867 H1855 0.959 . S
C1867 C1865 1.561 . S
C1868 C1865 1.526 . S
C1868 C1869 1.396 . S
C1868 C1873 1.390 . S
C1869 C1863 1.465 . S
C1869 C1868 1.396 . S
C1869 C1870 1.399 . S
C1870 H1856 0.929 . S
C1870 C1869 1.399 . S
C1870 C1871 1.385 . S
C1871 H1857 0.931 . S
C1871 C1870 1.385 . S
C1871 C1872 1.389 . S
C1872 C1871 1.389 . S
C1872 C1873 1.387 . S
C1873 H1858 0.930 . S
C1873 C1868 1.390 . S
C1873 C1872 1.387 . S
H1874 C1886 0.930 . S
H1875 C1888 0.930 . S
H1876 C1889 0.930 . S
H1877 C1893 0.959 . S
H1878 C1893 0.959 . S
H1879 C1893 0.961 . S
H1880 C1894 0.960 . S
H1881 C1894 0.961 . S
H1882 C1894 0.959 . S
H1883 C1897 0.929 . S
H1884 C1898 0.931 . S
H1885 C1900 0.930 . S
C1886 H1874 0.930 . S
C1886 C1887 1.399 . S
C1886 C1891 1.399 . S
C1887 C1886 1.399 . S
C1887 C1888 1.376 . S
C1888 H1875 0.930 . S
C1888 C1887 1.376 . S
C1888 C1889 1.388 . S
C1889 H1876 0.930 . S
C1889 C1888 1.388 . S
C1889 C1890 1.390 . S
C1890 C1889 1.390 . S
C1890 C1891 1.394 . S
C1890 C1896 1.465 . S
C1891 C1886 1.399 . S
C1891 C1890 1.394 . S
C1891 C1892 1.516 . S
C1892 C1891 1.516 . S
C1892 C1893 1.502 . S
C1892 C1894 1.561 . S
C1892 C1895 1.526 . S
C1893 H1877 0.959 . S
C1893 H1878 0.959 . S
C1893 H1879 0.961 . S
C1893 C1892 1.502 . S
C1894 H1880 0.960 . S
C1894 H1881 0.961 . S
C1894 H1882 0.959 . S
C1894 C1892 1.561 . S
C1895 C1892 1.526 . S
C1895 C1896 1.396 . S
C1895 C1900 1.390 . S
C1896 C1890 1.465 . S
C1896 C1895 1.396 . S
C1896 C1897 1.399 . S
C1897 H1883 0.929 . S
C1897 C1896 1.399 . S
C1897 C1898 1.385 . S
C1898 H1884 0.931 . S
C1898 C1897 1.385 . S
C1898 C1899 1.389 . S
C1899 C1898 1.389 . S
C1899 C1900 1.387 . S
C1900 H1885 0.930 . S
C1900 C1895 1.390 . S
C1900 C1899 1.387 . S
H1901 C1913 0.930 . S
H1902 C1915 0.930 . S
H1903 C1916 0.930 . S
H1904 C1920 0.959 . S
H1905 C1920 0.959 . S
H1906 C1920 0.961 . S
H1907 C1921 0.960 . S
H1908 C1921 0.961 . S
H1909 C1921 0.959 . S
H1910 C1924 0.929 . S
H1911 C1925 0.931 . S
H1912 C1927 0.930 . S
C1913 H1901 0.930 . S
C1913 C1914 1.399 . S
C1913 C1918 1.399 . S
C1914 C1913 1.399 . S
C1914 C1915 1.376 . S
C1915 H1902 0.930 . S
C1915 C1914 1.376 . S
C1915 C1916 1.388 . S
C1916 H1903 0.930 . S
C1916 C1915 1.388 . S
C1916 C1917 1.390 . S
C1917 C1916 1.390 . S
C1917 C1918 1.394 . S
C1917 C1923 1.465 . S
C1918 C1913 1.399 . S
C1918 C1917 1.394 . S
C1918 C1919 1.516 . S
C1919 C1918 1.516 . S
C1919 C1920 1.502 . S
C1919 C1921 1.561 . S
C1919 C1922 1.526 . S
C1920 H1904 0.959 . S
C1920 H1905 0.959 . S
C1920 H1906 0.961 . S
C1920 C1919 1.502 . S
C1921 H1907 0.960 . S
C1921 H1908 0.961 . S
C1921 H1909 0.959 . S
C1921 C1919 1.561 . S
C1922 C1919 1.526 . S
C1922 C1923 1.396 . S
C1922 C1927 1.390 . S
C1923 C1917 1.465 . S
C1923 C1922 1.396 . S
C1923 C1924 1.399 . S
C1924 H1910 0.929 . S
C1924 C1923 1.399 . S
C1924 C1925 1.385 . S
C1925 H1911 0.931 . S
C1925 C1924 1.385 . S
C1925 C1926 1.389 . S
C1926 C1925 1.389 . S
C1926 C1927 1.387 . S
C1927 H1912 0.930 . S
C1927 C1922 1.390 . S
C1927 C1926 1.387 . S
H1928 C1940 0.930 . S
H1929 C1942 0.930 . S
H1930 C1943 0.930 . S
H1931 C1947 0.959 . S
H1932 C1947 0.959 . S
H1933 C1947 0.961 . S
H1934 C1948 0.960 . S
H1935 C1948 0.961 . S
H1936 C1948 0.959 . S
H1937 C1951 0.929 . S
H1938 C1952 0.931 . S
H1939 C1954 0.930 . S
C1940 H1928 0.930 . S
C1940 C1941 1.399 . S
C1940 C1945 1.399 . S
C1941 C1940 1.399 . S
C1941 C1942 1.376 . S
C1942 H1929 0.930 . S
C1942 C1941 1.376 . S
C1942 C1943 1.388 . S
C1943 H1930 0.930 . S
C1943 C1942 1.388 . S
C1943 C1944 1.390 . S
C1944 C1943 1.390 . S
C1944 C1945 1.394 . S
C1944 C1950 1.465 . S
C1945 C1940 1.399 . S
C1945 C1944 1.394 . S
C1945 C1946 1.516 . S
C1946 C1945 1.516 . S
C1946 C1947 1.502 . S
C1946 C1948 1.561 . S
C1946 C1949 1.526 . S
C1947 H1931 0.959 . S
C1947 H1932 0.959 . S
C1947 H1933 0.961 . S
C1947 C1946 1.502 . S
C1948 H1934 0.960 . S
C1948 H1935 0.961 . S
C1948 H1936 0.959 . S
C1948 C1946 1.561 . S
C1949 C1946 1.526 . S
C1949 C1950 1.396 . S
C1949 C1954 1.390 . S
C1950 C1944 1.465 . S
C1950 C1949 1.396 . S
C1950 C1951 1.399 . S
C1951 H1937 0.929 . S
C1951 C1950 1.399 . S
C1951 C1952 1.385 . S
C1952 H1938 0.931 . S
C1952 C1951 1.385 . S
C1952 C1953 1.389 . S
C1953 C1952 1.389 . S
C1953 C1954 1.387 . S
C1954 H1939 0.930 . S
C1954 C1949 1.390 . S
C1954 C1953 1.387 . S
H1955 C1967 0.930 . S
H1956 C1969 0.930 . S
H1957 C1970 0.930 . S
H1958 C1974 0.959 . S
H1959 C1974 0.959 . S
H1960 C1974 0.961 . S
H1961 C1975 0.960 . S
H1962 C1975 0.961 . S
H1963 C1975 0.959 . S
H1964 C1978 0.929 . S
H1965 C1979 0.931 . S
H1966 C1981 0.930 . S
C1967 H1955 0.930 . S
C1967 C1968 1.399 . S
C1967 C1972 1.399 . S
C1968 C1967 1.399 . S
C1968 C1969 1.376 . S
C1969 H1956 0.930 . S
C1969 C1968 1.376 . S
C1969 C1970 1.388 . S
C1970 H1957 0.930 . S
C1970 C1969 1.388 . S
C1970 C1971 1.390 . S
C1971 C1970 1.390 . S
C1971 C1972 1.394 . S
C1971 C1977 1.465 . S
C1972 C1967 1.399 . S
C1972 C1971 1.394 . S
C1972 C1973 1.516 . S
C1973 C1972 1.516 . S
C1973 C1974 1.502 . S
C1973 C1975 1.561 . S
C1973 C1976 1.526 . S
C1974 H1958 0.959 . S
C1974 H1959 0.959 . S
C1974 H1960 0.961 . S
C1974 C1973 1.502 . S
C1975 H1961 0.960 . S
C1975 H1962 0.961 . S
C1975 H1963 0.959 . S
C1975 C1973 1.561 . S
C1976 C1973 1.526 . S
C1976 C1977 1.396 . S
C1976 C1981 1.390 . S
C1977 C1971 1.465 . S
C1977 C1976 1.396 . S
C1977 C1978 1.399 . S
C1978 H1964 0.929 . S
C1978 C1977 1.399 . S
C1978 C1979 1.385 . S
C1979 H1965 0.931 . S
C1979 C1978 1.385 . S
C1979 C1980 1.389 . S
C1980 C1979 1.389 . S
C1980 C1981 1.387 . S
C1981 H1966 0.930 . S
C1981 C1976 1.390 . S
C1981 C1980 1.387 . S
H1982 C1994 0.930 . S
H1983 C1996 0.930 . S
H1984 C1997 0.930 . S
H1985 C2001 0.959 . S
H1986 C2001 0.959 . S
H1987 C2001 0.961 . S
H1988 C2002 0.960 . S
H1989 C2002 0.961 . S
H1990 C2002 0.959 . S
H1991 C2005 0.929 . S
H1992 C2006 0.931 . S
H1993 C2008 0.930 . S
C1994 H1982 0.930 . S
C1994 C1995 1.399 . S
C1994 C1999 1.399 . S
C1995 C1994 1.399 . S
C1995 C1996 1.376 . S
C1996 H1983 0.930 . S
C1996 C1995 1.376 . S
C1996 C1997 1.388 . S
C1997 H1984 0.930 . S
C1997 C1996 1.388 . S
C1997 C1998 1.390 . S
C1998 C1997 1.390 . S
C1998 C1999 1.394 . S
C1998 C2004 1.465 . S
C1999 C1994 1.399 . S
C1999 C1998 1.394 . S
C1999 C2000 1.516 . S
C2000 C1999 1.516 . S
C2000 C2001 1.502 . S
C2000 C2002 1.561 . S
C2000 C2003 1.526 . S
C2001 H1985 0.959 . S
C2001 H1986 0.959 . S
C2001 H1987 0.961 . S
C2001 C2000 1.502 . S
C2002 H1988 0.960 . S
C2002 H1989 0.961 . S
C2002 H1990 0.959 . S
C2002 C2000 1.561 . S
C2003 C2000 1.526 . S
C2003 C2004 1.396 . S
C2003 C2008 1.390 . S
C2004 C1998 1.465 . S
C2004 C2003 1.396 . S
C2004 C2005 1.399 . S
C2005 H1991 0.929 . S
C2005 C2004 1.399 . S
C2005 C2006 1.385 . S
C2006 H1992 0.931 . S
C2006 C2005 1.385 . S
C2006 C2007 1.389 . S
C2007 C2006 1.389 . S
C2007 C2008 1.387 . S
C2008 H1993 0.930 . S
C2008 C2003 1.390 . S
C2008 C2007 1.387 . S
H2009 C2021 0.930 . S
H2010 C2023 0.930 . S
H2011 C2024 0.930 . S
H2012 C2028 0.959 . S
H2013 C2028 0.959 . S
H2014 C2028 0.961 . S
H2015 C2029 0.960 . S
H2016 C2029 0.961 . S
H2017 C2029 0.959 . S
H2018 C2032 0.929 . S
H2019 C2033 0.931 . S
H2020 C2035 0.930 . S
C2021 H2009 0.930 . S
C2021 C2022 1.399 . S
C2021 C2026 1.399 . S
C2022 C2021 1.399 . S
C2022 C2023 1.376 . S
C2023 H2010 0.930 . S
C2023 C2022 1.376 . S
C2023 C2024 1.388 . S
C2024 H2011 0.930 . S
C2024 C2023 1.388 . S
C2024 C2025 1.390 . S
C2025 C2024 1.390 . S
C2025 C2026 1.394 . S
C2025 C2031 1.465 . S
C2026 C2021 1.399 . S
C2026 C2025 1.394 . S
C2026 C2027 1.516 . S
C2027 C2026 1.516 . S
C2027 C2028 1.502 . S
C2027 C2029 1.561 . S
C2027 C2030 1.526 . S
C2028 H2012 0.959 . S
C2028 H2013 0.959 . S
C2028 H2014 0.961 . S
C2028 C2027 1.502 . S
C2029 H2015 0.960 . S
C2029 H2016 0.961 . S
C2029 H2017 0.959 . S
C2029 C2027 1.561 . S
C2030 C2027 1.526 . S
C2030 C2031 1.396 . S
C2030 C2035 1.390 . S
C2031 C2025 1.465 . S
C2031 C2030 1.396 . S
C2031 C2032 1.399 . S
C2032 H2018 0.929 . S
C2032 C2031 1.399 . S
C2032 C2033 1.385 . S
C2033 H2019 0.931 . S
C2033 C2032 1.385 . S
C2033 C2034 1.389 . S
C2034 C2033 1.389 . S
C2034 C2035 1.387 . S
C2035 H2020 0.930 . S
C2035 C2030 1.390 . S
C2035 C2034 1.387 . S
H2036 C2048 0.930 . S
H2037 C2050 0.930 . S
H2038 C2051 0.930 . S
H2039 C2055 0.959 . S
H2040 C2055 0.959 . S
H2041 C2055 0.961 . S
H2042 C2056 0.960 . S
H2043 C2056 0.961 . S
H2044 C2056 0.959 . S
H2045 C2059 0.929 . S
H2046 C2060 0.931 . S
H2047 C2062 0.930 . S
C2048 H2036 0.930 . S
C2048 C2049 1.399 . S
C2048 C2053 1.399 . S
C2049 C2048 1.399 . S
C2049 C2050 1.376 . S
C2050 H2037 0.930 . S
C2050 C2049 1.376 . S
C2050 C2051 1.388 . S
C2051 H2038 0.930 . S
C2051 C2050 1.388 . S
C2051 C2052 1.390 . S
C2052 C2051 1.390 . S
C2052 C2053 1.394 . S
C2052 C2058 1.465 . S
C2053 C2048 1.399 . S
C2053 C2052 1.394 . S
C2053 C2054 1.516 . S
C2054 C2053 1.516 . S
C2054 C2055 1.502 . S
C2054 C2056 1.561 . S
C2054 C2057 1.526 . S
C2055 H2039 0.959 . S
C2055 H2040 0.959 . S
C2055 H2041 0.961 . S
C2055 C2054 1.502 . S
C2056 H2042 0.960 . S
C2056 H2043 0.961 . S
C2056 H2044 0.959 . S
C2056 C2054 1.561 . S
C2057 C2054 1.526 . S
C2057 C2058 1.396 . S
C2057 C2062 1.390 . S
C2058 C2052 1.465 . S
C2058 C2057 1.396 . S
C2058 C2059 1.399 . S
C2059 H2045 0.929 . S
C2059 C2058 1.399 . S
C2059 C2060 1.385 . S
C2060 H2046 0.931 . S
C2060 C2059 1.385 . S
C2060 C2061 1.389 . S
C2061 C2060 1.389 . S
C2061 C2062 1.387 . S
C2062 H2047 0.930 . S
C2062 C2057 1.390 . S
C2062 C2061 1.387 . S
H2063 C2075 0.930 . S
H2064 C2077 0.930 1_655 S
H2065 C2078 0.930 . S
H2066 C2082 0.959 . S
H2067 C2082 0.959 . S
H2068 C2082 0.961 . S
H2069 C2083 0.960 . S
H2070 C2083 0.961 . S
H2071 C2083 0.959 . S
H2072 C2086 0.929 . S
H2073 C2087 0.931 . S
H2074 C2089 0.930 . S
C2075 H2063 0.930 . S
C2075 C2076 1.399 . S
C2075 C2080 1.399 . S
C2076 C2075 1.399 . S
C2076 C2077 1.376 . S
C2077 H2064 0.930 1_455 S
C2077 C2076 1.376 . S
C2077 C2078 1.388 . S
C2078 H2065 0.930 . S
C2078 C2077 1.388 . S
C2078 C2079 1.390 . S
C2079 C2078 1.390 . S
C2079 C2080 1.394 . S
C2079 C2085 1.465 . S
C2080 C2075 1.399 . S
C2080 C2079 1.394 . S
C2080 C2081 1.516 . S
C2081 C2080 1.516 . S
C2081 C2082 1.502 . S
C2081 C2083 1.561 . S
C2081 C2084 1.526 . S
C2082 H2066 0.959 . S
C2082 H2067 0.959 . S
C2082 H2068 0.961 . S
C2082 C2081 1.502 . S
C2083 H2069 0.960 . S
C2083 H2070 0.961 . S
C2083 H2071 0.959 . S
C2083 C2081 1.561 . S
C2084 C2081 1.526 . S
C2084 C2085 1.396 . S
C2084 C2089 1.390 . S
C2085 C2079 1.465 . S
C2085 C2084 1.396 . S
C2085 C2086 1.399 . S
C2086 H2072 0.929 . S
C2086 C2085 1.399 . S
C2086 C2087 1.385 . S
C2087 H2073 0.931 . S
C2087 C2086 1.385 . S
C2087 C2088 1.389 . S
C2088 C2087 1.389 . S
C2088 C2089 1.387 . S
C2089 H2074 0.930 . S
C2089 C2084 1.390 . S
C2089 C2088 1.387 . S
H2090 C2102 0.930 . S
H2091 C2104 0.930 . S
H2092 C2105 0.930 . S
H2093 C2109 0.959 . S
H2094 C2109 0.959 . S
H2095 C2109 0.961 . S
H2096 C2110 0.960 . S
H2097 C2110 0.961 . S
H2098 C2110 0.959 . S
H2099 C2113 0.929 . S
H2100 C2114 0.931 . S
H2101 C2116 0.930 . S
C2102 H2090 0.930 . S
C2102 C2103 1.399 . S
C2102 C2107 1.399 . S
C2103 C2102 1.399 . S
C2103 C2104 1.376 . S
C2104 H2091 0.930 . S
C2104 C2103 1.376 . S
C2104 C2105 1.388 . S
C2105 H2092 0.930 . S
C2105 C2104 1.388 . S
C2105 C2106 1.390 . S
C2106 C2105 1.390 . S
C2106 C2107 1.394 . S
C2106 C2112 1.465 . S
C2107 C2102 1.399 . S
C2107 C2106 1.394 . S
C2107 C2108 1.516 . S
C2108 C2107 1.516 . S
C2108 C2109 1.502 . S
C2108 C2110 1.561 . S
C2108 C2111 1.526 . S
C2109 H2093 0.959 . S
C2109 H2094 0.959 . S
C2109 H2095 0.961 . S
C2109 C2108 1.502 . S
C2110 H2096 0.960 . S
C2110 H2097 0.961 . S
C2110 H2098 0.959 . S
C2110 C2108 1.561 . S
C2111 C2108 1.526 . S
C2111 C2112 1.396 . S
C2111 C2116 1.390 . S
C2112 C2106 1.465 . S
C2112 C2111 1.396 . S
C2112 C2113 1.399 . S
C2113 H2099 0.929 . S
C2113 C2112 1.399 . S
C2113 C2114 1.385 . S
C2114 H2100 0.931 . S
C2114 C2113 1.385 . S
C2114 C2115 1.389 . S
C2115 C2114 1.389 . S
C2115 C2116 1.387 . S
C2116 H2101 0.930 . S
C2116 C2111 1.390 . S
C2116 C2115 1.387 . S
H2117 C2129 0.930 . S
H2118 C2131 0.930 . S
H2119 C2132 0.930 . S
H2120 C2136 0.959 . S
H2121 C2136 0.959 . S
H2122 C2136 0.961 . S
H2123 C2137 0.960 . S
H2124 C2137 0.961 . S
H2125 C2137 0.959 . S
H2126 C2140 0.929 . S
H2127 C2141 0.931 . S
H2128 C2143 0.930 . S
C2129 H2117 0.930 . S
C2129 C2130 1.399 . S
C2129 C2134 1.399 . S
C2130 C2129 1.399 . S
C2130 C2131 1.376 . S
C2131 H2118 0.930 . S
C2131 C2130 1.376 . S
C2131 C2132 1.388 . S
C2132 H2119 0.930 . S
C2132 C2131 1.388 . S
C2132 C2133 1.390 . S
C2133 C2132 1.390 . S
C2133 C2134 1.394 . S
C2133 C2139 1.465 . S
C2134 C2129 1.399 . S
C2134 C2133 1.394 . S
C2134 C2135 1.516 . S
C2135 C2134 1.516 . S
C2135 C2136 1.502 . S
C2135 C2137 1.561 . S
C2135 C2138 1.526 . S
C2136 H2120 0.959 . S
C2136 H2121 0.959 . S
C2136 H2122 0.961 . S
C2136 C2135 1.502 . S
C2137 H2123 0.960 . S
C2137 H2124 0.961 . S
C2137 H2125 0.959 . S
C2137 C2135 1.561 . S
C2138 C2135 1.526 . S
C2138 C2139 1.396 . S
C2138 C2143 1.390 . S
C2139 C2133 1.465 . S
C2139 C2138 1.396 . S
C2139 C2140 1.399 . S
C2140 H2126 0.929 . S
C2140 C2139 1.399 . S
C2140 C2141 1.385 . S
C2141 H2127 0.931 . S
C2141 C2140 1.385 . S
C2141 C2142 1.389 . S
C2142 C2141 1.389 . S
C2142 C2143 1.387 . S
C2143 H2128 0.930 . S
C2143 C2138 1.390 . S
C2143 C2142 1.387 . S
H2144 C2156 0.930 . S
H2145 C2158 0.930 . S
H2146 C2159 0.930 . S
H2147 C2163 0.959 . S
H2148 C2163 0.959 . S
H2149 C2163 0.961 . S
H2150 C2164 0.960 . S
H2151 C2164 0.961 1_655 S
H2152 C2164 0.959 . S
H2153 C2167 0.929 1_455 S
H2154 C2168 0.931 . S
H2155 C2170 0.930 . S
C2156 H2144 0.930 . S
C2156 C2157 1.399 . S
C2156 C2161 1.399 . S
C2157 C2156 1.399 . S
C2157 C2158 1.376 . S
C2158 H2145 0.930 . S
C2158 C2157 1.376 . S
C2158 C2159 1.388 . S
C2159 H2146 0.930 . S
C2159 C2158 1.388 . S
C2159 C2160 1.390 . S
C2160 C2159 1.390 . S
C2160 C2161 1.394 . S
C2160 C2166 1.465 1_455 S
C2161 C2156 1.399 . S
C2161 C2160 1.394 . S
C2161 C2162 1.516 1_455 S
C2162 C2161 1.516 1_655 S
C2162 C2163 1.502 . S
C2162 C2164 1.561 1_655 S
C2162 C2165 1.526 . S
C2163 H2147 0.959 . S
C2163 H2148 0.959 . S
C2163 H2149 0.961 . S
C2163 C2162 1.502 . S
C2164 H2150 0.960 . S
C2164 H2151 0.961 1_455 S
C2164 H2152 0.959 . S
C2164 C2162 1.561 1_455 S
C2165 C2162 1.526 . S
C2165 C2166 1.396 . S
C2165 C2170 1.390 . S
C2166 C2160 1.465 1_655 S
C2166 C2165 1.396 . S
C2166 C2167 1.399 . S
C2167 H2153 0.929 1_655 S
C2167 C2166 1.399 . S
C2167 C2168 1.385 . S
C2168 H2154 0.931 . S
C2168 C2167 1.385 . S
C2168 C2169 1.389 . S
C2169 C2168 1.389 . S
C2169 C2170 1.387 . S
C2170 H2155 0.930 . S
C2170 C2165 1.390 . S
C2170 C2169 1.387 . S
H2171 C2183 0.930 . S
H2172 C2185 0.930 . S
H2173 C2186 0.930 . S
H2174 C2190 0.959 . S
H2175 C2190 0.959 1_455 S
H2176 C2190 0.961 . S
H2177 C2191 0.960 . S
H2178 C2191 0.961 . S
H2179 C2191 0.959 . S
H2180 C2194 0.929 . S
H2181 C2195 0.931 . S
H2182 C2197 0.930 . S
C2183 H2171 0.930 . S
C2183 C2184 1.399 . S
C2183 C2188 1.399 . S
C2184 C2183 1.399 . S
C2184 C2185 1.376 . S
C2185 H2172 0.930 . S
C2185 C2184 1.376 . S
C2185 C2186 1.388 . S
C2186 H2173 0.930 . S
C2186 C2185 1.388 . S
C2186 C2187 1.390 . S
C2187 C2186 1.390 . S
C2187 C2188 1.394 . S
C2187 C2193 1.465 1_655 S
C2188 C2183 1.399 . S
C2188 C2187 1.394 . S
C2188 C2189 1.516 1_655 S
C2189 C2188 1.516 1_455 S
C2189 C2190 1.502 1_455 S
C2189 C2191 1.561 . S
C2189 C2192 1.526 . S
C2190 H2174 0.959 . S
C2190 H2175 0.959 1_655 S
C2190 H2176 0.961 . S
C2190 C2189 1.502 1_655 S
C2191 H2177 0.960 . S
C2191 H2178 0.961 . S
C2191 H2179 0.959 . S
C2191 C2189 1.561 . S
C2192 C2189 1.526 . S
C2192 C2193 1.396 . S
C2192 C2197 1.390 . S
C2193 C2187 1.465 1_455 S
C2193 C2192 1.396 . S
C2193 C2194 1.399 . S
C2194 H2180 0.929 . S
C2194 C2193 1.399 . S
C2194 C2195 1.385 . S
C2195 H2181 0.931 . S
C2195 C2194 1.385 . S
C2195 C2196 1.389 . S
C2196 C2195 1.389 . S
C2196 C2197 1.387 . S
C2197 H2182 0.930 . S
C2197 C2192 1.390 . S
C2197 C2196 1.387 . S
H2198 C2210 0.930 . S
H2199 C2212 0.930 . S
H2200 C2213 0.930 . S
H2201 C2217 0.959 . S
H2202 C2217 0.959 . S
H2203 C2217 0.961 . S
H2204 C2218 0.960 . S
H2205 C2218 0.961 . S
H2206 C2218 0.959 . S
H2207 C2221 0.929 . S
H2208 C2222 0.931 . S
H2209 C2224 0.930 . S
C2210 H2198 0.930 . S
C2210 C2211 1.399 . S
C2210 C2215 1.399 . S
C2211 C2210 1.399 . S
C2211 C2212 1.376 . S
C2212 H2199 0.930 . S
C2212 C2211 1.376 . S
C2212 C2213 1.388 . S
C2213 H2200 0.930 . S
C2213 C2212 1.388 . S
C2213 C2214 1.390 . S
C2214 C2213 1.390 . S
C2214 C2215 1.394 . S
C2214 C2220 1.465 . S
C2215 C2210 1.399 . S
C2215 C2214 1.394 . S
C2215 C2216 1.516 . S
C2216 C2215 1.516 . S
C2216 C2217 1.502 . S
C2216 C2218 1.561 . S
C2216 C2219 1.526 . S
C2217 H2201 0.959 . S
C2217 H2202 0.959 . S
C2217 H2203 0.961 . S
C2217 C2216 1.502 . S
C2218 H2204 0.960 . S
C2218 H2205 0.961 . S
C2218 H2206 0.959 . S
C2218 C2216 1.561 . S
C2219 C2216 1.526 . S
C2219 C2220 1.396 . S
C2219 C2224 1.390 . S
C2220 C2214 1.465 . S
C2220 C2219 1.396 . S
C2220 C2221 1.399 . S
C2221 H2207 0.929 . S
C2221 C2220 1.399 . S
C2221 C2222 1.385 . S
C2222 H2208 0.931 . S
C2222 C2221 1.385 . S
C2222 C2223 1.389 . S
C2223 C2222 1.389 . S
C2223 C2224 1.387 . S
C2224 H2209 0.930 . S
C2224 C2219 1.390 . S
C2224 C2223 1.387 . S
H2225 C2237 0.930 . S
H2226 C2239 0.930 . S
H2227 C2240 0.930 . S
H2228 C2244 0.959 . S
H2229 C2244 0.959 . S
H2230 C2244 0.961 . S
H2231 C2245 0.960 . S
H2232 C2245 0.961 . S
H2233 C2245 0.959 . S
H2234 C2248 0.929 . S
H2235 C2249 0.931 . S
H2236 C2251 0.930 . S
C2237 H2225 0.930 . S
C2237 C2238 1.399 . S
C2237 C2242 1.399 . S
C2238 C2237 1.399 . S
C2238 C2239 1.376 . S
C2239 H2226 0.930 . S
C2239 C2238 1.376 . S
C2239 C2240 1.388 . S
C2240 H2227 0.930 . S
C2240 C2239 1.388 . S
C2240 C2241 1.390 . S
C2241 C2240 1.390 . S
C2241 C2242 1.394 . S
C2241 C2247 1.465 . S
C2242 C2237 1.399 . S
C2242 C2241 1.394 . S
C2242 C2243 1.516 . S
C2243 C2242 1.516 . S
C2243 C2244 1.502 . S
C2243 C2245 1.561 . S
C2243 C2246 1.526 . S
C2244 H2228 0.959 . S
C2244 H2229 0.959 . S
C2244 H2230 0.961 . S
C2244 C2243 1.502 . S
C2245 H2231 0.960 . S
C2245 H2232 0.961 . S
C2245 H2233 0.959 . S
C2245 C2243 1.561 . S
C2246 C2243 1.526 . S
C2246 C2247 1.396 . S
C2246 C2251 1.390 . S
C2247 C2241 1.465 . S
C2247 C2246 1.396 . S
C2247 C2248 1.399 . S
C2248 H2234 0.929 . S
C2248 C2247 1.399 . S
C2248 C2249 1.385 . S
C2249 H2235 0.931 . S
C2249 C2248 1.385 . S
C2249 C2250 1.389 . S
C2250 C2249 1.389 . S
C2250 C2251 1.387 . S
C2251 H2236 0.930 . S
C2251 C2246 1.390 . S
C2251 C2250 1.387 . S
H2252 C2264 0.930 . S
H2253 C2266 0.930 . S
H2254 C2267 0.930 . S
H2255 C2271 0.959 . S
H2256 C2271 0.959 . S
H2257 C2271 0.961 . S
H2258 C2272 0.960 . S
H2259 C2272 0.961 . S
H2260 C2272 0.959 . S
H2261 C2275 0.929 1_655 S
H2262 C2276 0.931 . S
H2263 C2278 0.930 . S
C2264 H2252 0.930 . S
C2264 C2265 1.399 . S
C2264 C2269 1.399 . S
C2265 C2264 1.399 . S
C2265 C2266 1.376 . S
C2266 H2253 0.930 . S
C2266 C2265 1.376 . S
C2266 C2267 1.388 . S
C2267 H2254 0.930 . S
C2267 C2266 1.388 . S
C2267 C2268 1.390 . S
C2268 C2267 1.390 . S
C2268 C2269 1.394 . S
C2268 C2274 1.465 1_655 S
C2269 C2264 1.399 . S
C2269 C2268 1.394 . S
C2269 C2270 1.516 1_655 S
C2270 C2269 1.516 1_455 S
C2270 C2271 1.502 . S
C2270 C2272 1.561 . S
C2270 C2273 1.526 . S
C2271 H2255 0.959 . S
C2271 H2256 0.959 . S
C2271 H2257 0.961 . S
C2271 C2270 1.502 . S
C2272 H2258 0.960 . S
C2272 H2259 0.961 . S
C2272 H2260 0.959 . S
C2272 C2270 1.561 . S
C2273 C2270 1.526 . S
C2273 C2274 1.396 . S
C2273 C2278 1.390 . S
C2274 C2268 1.465 1_455 S
C2274 C2273 1.396 . S
C2274 C2275 1.399 . S
C2275 H2261 0.929 1_455 S
C2275 C2274 1.399 . S
C2275 C2276 1.385 . S
C2276 H2262 0.931 . S
C2276 C2275 1.385 . S
C2276 C2277 1.389 . S
C2277 C2276 1.389 . S
C2277 C2278 1.387 . S
C2278 H2263 0.930 . S
C2278 C2273 1.390 . S
C2278 C2277 1.387 . S
H2279 C2291 0.930 . S
H2280 C2293 0.930 . S
H2281 C2294 0.930 . S
H2282 C2298 0.959 . S
H2283 C2298 0.959 . S
H2284 C2298 0.961 . S
H2285 C2299 0.960 . S
H2286 C2299 0.961 . S
H2287 C2299 0.959 . S
H2288 C2302 0.929 . S
H2289 C2303 0.931 . S
H2290 C2305 0.930 . S
C2291 H2279 0.930 . S
C2291 C2292 1.399 . S
C2291 C2296 1.399 . S
C2292 C2291 1.399 . S
C2292 C2293 1.376 . S
C2293 H2280 0.930 . S
C2293 C2292 1.376 . S
C2293 C2294 1.388 . S
C2294 H2281 0.930 . S
C2294 C2293 1.388 . S
C2294 C2295 1.390 . S
C2295 C2294 1.390 . S
C2295 C2296 1.394 . S
C2295 C2301 1.465 . S
C2296 C2291 1.399 . S
C2296 C2295 1.394 . S
C2296 C2297 1.516 . S
C2297 C2296 1.516 . S
C2297 C2298 1.502 . S
C2297 C2299 1.561 . S
C2297 C2300 1.526 . S
C2298 H2282 0.959 . S
C2298 H2283 0.959 . S
C2298 H2284 0.961 . S
C2298 C2297 1.502 . S
C2299 H2285 0.960 . S
C2299 H2286 0.961 . S
C2299 H2287 0.959 . S
C2299 C2297 1.561 . S
C2300 C2297 1.526 . S
C2300 C2301 1.396 . S
C2300 C2305 1.390 . S
C2301 C2295 1.465 . S
C2301 C2300 1.396 . S
C2301 C2302 1.399 . S
C2302 H2288 0.929 . S
C2302 C2301 1.399 . S
C2302 C2303 1.385 . S
C2303 H2289 0.931 . S
C2303 C2302 1.385 . S
C2303 C2304 1.389 . S
C2304 C2303 1.389 . S
C2304 C2305 1.387 . S
C2305 H2290 0.930 . S
C2305 C2300 1.390 . S
C2305 C2304 1.387 . S
H2306 C2318 0.930 . S
H2307 C2320 0.930 . S
H2308 C2321 0.930 . S
H2309 C2325 0.959 . S
H2310 C2325 0.959 . S
H2311 C2325 0.961 . S
H2312 C2326 0.960 . S
H2313 C2326 0.961 . S
H2314 C2326 0.959 . S
H2315 C2329 0.929 . S
H2316 C2330 0.931 . S
H2317 C2332 0.930 . S
C2318 H2306 0.930 . S
C2318 C2319 1.399 . S
C2318 C2323 1.399 . S
C2319 C2318 1.399 . S
C2319 C2320 1.376 . S
C2320 H2307 0.930 . S
C2320 C2319 1.376 . S
C2320 C2321 1.388 . S
C2321 H2308 0.930 . S
C2321 C2320 1.388 . S
C2321 C2322 1.390 . S
C2322 C2321 1.390 . S
C2322 C2323 1.394 . S
C2322 C2328 1.465 . S
C2323 C2318 1.399 . S
C2323 C2322 1.394 . S
C2323 C2324 1.516 . S
C2324 C2323 1.516 . S
C2324 C2325 1.502 . S
C2324 C2326 1.561 . S
C2324 C2327 1.526 . S
C2325 H2309 0.959 . S
C2325 H2310 0.959 . S
C2325 H2311 0.961 . S
C2325 C2324 1.502 . S
C2326 H2312 0.960 . S
C2326 H2313 0.961 . S
C2326 H2314 0.959 . S
C2326 C2324 1.561 . S
C2327 C2324 1.526 . S
C2327 C2328 1.396 . S
C2327 C2332 1.390 . S
C2328 C2322 1.465 . S
C2328 C2327 1.396 . S
C2328 C2329 1.399 . S
C2329 H2315 0.929 . S
C2329 C2328 1.399 . S
C2329 C2330 1.385 . S
C2330 H2316 0.931 . S
C2330 C2329 1.385 . S
C2330 C2331 1.389 . S
C2331 C2330 1.389 . S
C2331 C2332 1.387 . S
C2332 H2317 0.930 . S
C2332 C2327 1.390 . S
C2332 C2331 1.387 . S
H2333 C2345 0.930 . S
H2334 C2347 0.930 . S
H2335 C2348 0.930 . S
H2336 C2352 0.959 . S
H2337 C2352 0.959 . S
H2338 C2352 0.961 . S
H2339 C2353 0.960 . S
H2340 C2353 0.961 1_655 S
H2341 C2353 0.959 . S
H2342 C2356 0.929 . S
H2343 C2357 0.931 . S
H2344 C2359 0.930 . S
C2345 H2333 0.930 . S
C2345 C2346 1.399 . S
C2345 C2350 1.399 . S
C2346 C2345 1.399 . S
C2346 C2347 1.376 . S
C2347 H2334 0.930 . S
C2347 C2346 1.376 . S
C2347 C2348 1.388 . S
C2348 H2335 0.930 . S
C2348 C2347 1.388 . S
C2348 C2349 1.390 . S
C2349 C2348 1.390 . S
C2349 C2350 1.394 . S
C2349 C2355 1.465 1_455 S
C2350 C2345 1.399 . S
C2350 C2349 1.394 . S
C2350 C2351 1.516 1_455 S
C2351 C2350 1.516 1_655 S
C2351 C2352 1.502 . S
C2351 C2353 1.561 1_655 S
C2351 C2354 1.526 . S
C2352 H2336 0.959 . S
C2352 H2337 0.959 . S
C2352 H2338 0.961 . S
C2352 C2351 1.502 . S
C2353 H2339 0.960 . S
C2353 H2340 0.961 1_455 S
C2353 H2341 0.959 . S
C2353 C2351 1.561 1_455 S
C2354 C2351 1.526 . S
C2354 C2355 1.396 . S
C2354 C2359 1.390 . S
C2355 C2349 1.465 1_655 S
C2355 C2354 1.396 . S
C2355 C2356 1.399 . S
C2356 H2342 0.929 . S
C2356 C2355 1.399 . S
C2356 C2357 1.385 . S
C2357 H2343 0.931 . S
C2357 C2356 1.385 . S
C2357 C2358 1.389 . S
C2358 C2357 1.389 . S
C2358 C2359 1.387 . S
C2359 H2344 0.930 . S
C2359 C2354 1.390 . S
C2359 C2358 1.387 . S
H2360 C2372 0.930 . S
H2361 C2374 0.930 . S
H2362 C2375 0.930 . S
H2363 C2379 0.959 . S
H2364 C2379 0.959 . S
H2365 C2379 0.961 . S
H2366 C2380 0.960 1_455 S
H2367 C2380 0.961 . S
H2368 C2380 0.959 1_455 S
H2369 C2383 0.929 . S
H2370 C2384 0.931 . S
H2371 C2386 0.930 . S
C2372 H2360 0.930 . S
C2372 C2373 1.399 . S
C2372 C2377 1.399 . S
C2373 C2372 1.399 . S
C2373 C2374 1.376 . S
C2374 H2361 0.930 . S
C2374 C2373 1.376 . S
C2374 C2375 1.388 . S
C2375 H2362 0.930 . S
C2375 C2374 1.388 . S
C2375 C2376 1.390 . S
C2376 C2375 1.390 . S
C2376 C2377 1.394 . S
C2376 C2382 1.481 . S
C2377 C2372 1.399 . S
C2377 C2376 1.394 . S
C2377 C2378 1.516 1_455 S
C2378 C2377 1.516 1_655 S
C2378 C2379 1.502 . S
C2378 C2380 1.561 . S
C2378 C2381 1.526 . S
C2379 H2363 0.959 . S
C2379 H2364 0.959 . S
C2379 H2365 0.961 . S
C2379 C2378 1.502 . S
C2380 H2366 0.960 1_655 S
C2380 H2367 0.961 . S
C2380 H2368 0.959 1_655 S
C2380 C2378 1.561 . S
C2381 C2378 1.526 . S
C2381 C2382 1.377 1_655 S
C2381 C2386 1.390 . S
C2382 C2376 1.481 . S
C2382 C2381 1.377 1_455 S
C2382 C2383 1.400 . S
C2383 H2369 0.929 . S
C2383 C2382 1.400 . S
C2383 C2384 1.385 1_455 S
C2384 H2370 0.931 . S
C2384 C2383 1.385 1_655 S
C2384 C2385 1.389 . S
C2385 C2384 1.389 . S
C2385 C2386 1.387 . S
C2386 H2371 0.930 . S
C2386 C2381 1.390 . S
C2386 C2385 1.387 . S
H2387 C2399 0.930 . S
H2388 C2401 0.930 . S
H2389 C2402 0.930 . S
H2390 C2406 0.959 . S
H2391 C2406 0.959 . S
H2392 C2406 0.961 . S
H2393 C2407 0.960 . S
H2394 C2407 0.961 1_455 S
H2395 C2407 0.959 . S
H2396 C2410 0.929 . S
H2397 C2411 0.931 . S
H2398 C2413 0.930 . S
C2399 H2387 0.930 . S
C2399 C2400 1.399 . S
C2399 C2404 1.399 . S
C2400 C2399 1.399 . S
C2400 C2401 1.376 . S
C2401 H2388 0.930 . S
C2401 C2400 1.376 . S
C2401 C2402 1.388 . S
C2402 H2389 0.930 . S
C2402 C2401 1.388 . S
C2402 C2403 1.390 . S
C2403 C2402 1.390 . S
C2403 C2404 1.394 . S
C2403 C2409 1.465 1_655 S
C2404 C2399 1.399 . S
C2404 C2403 1.394 . S
C2404 C2405 1.516 1_655 S
C2405 C2404 1.516 1_455 S
C2405 C2406 1.502 . S
C2405 C2407 1.561 1_455 S
C2405 C2408 1.526 . S
C2406 H2390 0.959 . S
C2406 H2391 0.959 . S
C2406 H2392 0.961 . S
C2406 C2405 1.502 . S
C2407 H2393 0.960 . S
C2407 H2394 0.961 1_655 S
C2407 H2395 0.959 . S
C2407 C2405 1.561 1_655 S
C2408 C2405 1.526 . S
C2408 C2409 1.396 . S
C2408 C2413 1.390 . S
C2409 C2403 1.465 1_455 S
C2409 C2408 1.396 . S
C2409 C2410 1.399 . S
C2410 H2396 0.929 . S
C2410 C2409 1.399 . S
C2410 C2411 1.385 . S
C2411 H2397 0.931 . S
C2411 C2410 1.385 . S
C2411 C2412 1.389 . S
C2412 C2411 1.389 . S
C2412 C2413 1.387 . S
C2413 H2398 0.930 . S
C2413 C2408 1.390 . S
C2413 C2412 1.387 . S
H2414 C2426 0.930 . S
H2415 C2428 0.930 . S
H2416 C2429 0.930 . S
H2417 C2433 0.959 . S
H2418 C2433 0.959 . S
H2419 C2433 0.961 . S
H2420 C2434 0.960 . S
H2421 C2434 0.961 . S
H2422 C2434 0.959 . S
H2423 C2437 0.929 . S
H2424 C2438 0.931 . S
H2425 C2440 0.930 . S
C2426 H2414 0.930 . S
C2426 C2427 1.399 . S
C2426 C2431 1.399 . S
C2427 C2426 1.399 . S
C2427 C2428 1.376 . S
C2428 H2415 0.930 . S
C2428 C2427 1.376 . S
C2428 C2429 1.388 . S
C2429 H2416 0.930 . S
C2429 C2428 1.388 . S
C2429 C2430 1.390 . S
C2430 C2429 1.390 . S
C2430 C2431 1.394 . S
C2430 C2436 1.465 . S
C2431 C2426 1.399 . S
C2431 C2430 1.394 . S
C2431 C2432 1.516 . S
C2432 C2431 1.516 . S
C2432 C2433 1.502 . S
C2432 C2434 1.561 . S
C2432 C2435 1.526 . S
C2433 H2417 0.959 . S
C2433 H2418 0.959 . S
C2433 H2419 0.961 . S
C2433 C2432 1.502 . S
C2434 H2420 0.960 . S
C2434 H2421 0.961 . S
C2434 H2422 0.959 . S
C2434 C2432 1.561 . S
C2435 C2432 1.526 . S
C2435 C2436 1.396 . S
C2435 C2440 1.390 . S
C2436 C2430 1.465 . S
C2436 C2435 1.396 . S
C2436 C2437 1.399 . S
C2437 H2423 0.929 . S
C2437 C2436 1.399 . S
C2437 C2438 1.385 . S
C2438 H2424 0.931 . S
C2438 C2437 1.385 . S
C2438 C2439 1.389 . S
C2439 C2438 1.389 . S
C2439 C2440 1.387 . S
C2440 H2425 0.930 . S
C2440 C2435 1.390 . S
C2440 C2439 1.387 . S
H2441 C2453 0.930 . S
H2442 C2455 0.930 . S
H2443 C2456 0.930 . S
H2444 C2460 0.959 . S
H2445 C2460 0.959 . S
H2446 C2460 0.961 . S
H2447 C2461 0.960 . S
H2448 C2461 0.961 . S
H2449 C2461 0.959 . S
H2450 C2464 0.929 . S
H2451 C2465 0.931 . S
H2452 C2467 0.930 . S
C2453 H2441 0.930 . S
C2453 C2454 1.399 . S
C2453 C2458 1.399 . S
C2454 C2453 1.399 . S
C2454 C2455 1.376 . S
C2455 H2442 0.930 . S
C2455 C2454 1.376 . S
C2455 C2456 1.388 . S
C2456 H2443 0.930 . S
C2456 C2455 1.388 . S
C2456 C2457 1.390 . S
C2457 C2456 1.390 . S
C2457 C2458 1.394 . S
C2457 C2463 1.465 . S
C2458 C2453 1.399 . S
C2458 C2457 1.394 . S
C2458 C2459 1.516 . S
C2459 C2458 1.516 . S
C2459 C2460 1.502 . S
C2459 C2461 1.561 . S
C2459 C2462 1.526 . S
C2460 H2444 0.959 . S
C2460 H2445 0.959 . S
C2460 H2446 0.961 . S
C2460 C2459 1.502 . S
C2461 H2447 0.960 . S
C2461 H2448 0.961 . S
C2461 H2449 0.959 . S
C2461 C2459 1.561 . S
C2462 C2459 1.526 . S
C2462 C2463 1.396 . S
C2462 C2467 1.390 . S
C2463 C2457 1.465 . S
C2463 C2462 1.396 . S
C2463 C2464 1.399 . S
C2464 H2450 0.929 . S
C2464 C2463 1.399 . S
C2464 C2465 1.385 . S
C2465 H2451 0.931 . S
C2465 C2464 1.385 . S
C2465 C2466 1.389 . S
C2466 C2465 1.389 . S
C2466 C2467 1.387 . S
C2467 H2452 0.930 . S
C2467 C2462 1.390 . S
C2467 C2466 1.387 . S
H2468 C2480 0.930 . S
H2469 C2482 0.930 . S
H2470 C2483 0.930 . S
H2471 C2487 0.959 . S
H2472 C2487 0.959 . S
H2473 C2487 0.961 . S
H2474 C2488 0.960 . S
H2475 C2488 0.961 . S
H2476 C2488 0.959 . S
H2477 C2491 0.929 . S
H2478 C2492 0.931 . S
H2479 C2494 0.930 . S
C2480 H2468 0.930 . S
C2480 C2481 1.399 . S
C2480 C2485 1.399 . S
C2481 C2480 1.399 . S
C2481 C2482 1.376 . S
C2482 H2469 0.930 . S
C2482 C2481 1.376 . S
C2482 C2483 1.388 . S
C2483 H2470 0.930 . S
C2483 C2482 1.388 . S
C2483 C2484 1.390 . S
C2484 C2483 1.390 . S
C2484 C2485 1.394 . S
C2484 C2490 1.465 1_455 S
C2485 C2480 1.399 . S
C2485 C2484 1.394 . S
C2485 C2486 1.516 . S
C2486 C2485 1.516 . S
C2486 C2487 1.502 . S
C2486 C2488 1.561 1_455 S
C2486 C2489 1.526 1_455 S
C2487 H2471 0.959 . S
C2487 H2472 0.959 . S
C2487 H2473 0.961 . S
C2487 C2486 1.502 . S
C2488 H2474 0.960 . S
C2488 H2475 0.961 . S
C2488 H2476 0.959 . S
C2488 C2486 1.561 1_655 S
C2489 C2486 1.526 1_655 S
C2489 C2490 1.396 . S
C2489 C2494 1.390 . S
C2490 C2484 1.465 1_655 S
C2490 C2489 1.396 . S
C2490 C2491 1.399 . S
C2491 H2477 0.929 . S
C2491 C2490 1.399 . S
C2491 C2492 1.385 . S
C2492 H2478 0.931 . S
C2492 C2491 1.385 . S
C2492 C2493 1.389 . S
C2493 C2492 1.389 . S
C2493 C2494 1.387 . S
C2494 H2479 0.930 . S
C2494 C2489 1.390 . S
C2494 C2493 1.387 . S
H2495 C2507 0.930 . S
H2496 C2509 0.930 . S
H2497 C2510 0.930 . S
H2498 C2514 0.959 . S
H2499 C2514 0.959 . S
H2500 C2514 0.961 . S
H2501 C2515 0.960 . S
H2502 C2515 0.961 . S
H2503 C2515 0.959 . S
H2504 C2518 0.929 . S
H2505 C2519 0.931 . S
H2506 C2521 0.930 . S
C2507 H2495 0.930 . S
C2507 C2508 1.399 . S
C2507 C2512 1.399 . S
C2508 C2507 1.399 . S
C2508 C2509 1.376 . S
C2509 H2496 0.930 . S
C2509 C2508 1.376 . S
C2509 C2510 1.388 . S
C2510 H2497 0.930 . S
C2510 C2509 1.388 . S
C2510 C2511 1.390 . S
C2511 C2510 1.390 . S
C2511 C2512 1.394 . S
C2511 C2517 1.465 . S
C2512 C2507 1.399 . S
C2512 C2511 1.394 . S
C2512 C2513 1.516 . S
C2513 C2512 1.516 . S
C2513 C2514 1.502 . S
C2513 C2515 1.561 . S
C2513 C2516 1.526 . S
C2514 H2498 0.959 . S
C2514 H2499 0.959 . S
C2514 H2500 0.961 . S
C2514 C2513 1.502 . S
C2515 H2501 0.960 . S
C2515 H2502 0.961 . S
C2515 H2503 0.959 . S
C2515 C2513 1.561 . S
C2516 C2513 1.526 . S
C2516 C2517 1.396 . S
C2516 C2521 1.390 . S
C2517 C2511 1.465 . S
C2517 C2516 1.396 . S
C2517 C2518 1.399 . S
C2518 H2504 0.929 . S
C2518 C2517 1.399 . S
C2518 C2519 1.385 . S
C2519 H2505 0.931 . S
C2519 C2518 1.385 . S
C2519 C2520 1.389 . S
C2520 C2519 1.389 . S
C2520 C2521 1.387 . S
C2521 H2506 0.930 . S
C2521 C2516 1.390 . S
C2521 C2520 1.387 . S
H2522 C2534 0.930 . S
H2523 C2536 0.930 . S
H2524 C2537 0.930 . S
H2525 C2541 0.959 . S
H2526 C2541 0.959 . S
H2527 C2541 0.961 . S
H2528 C2542 0.960 . S
H2529 C2542 0.961 . S
H2530 C2542 0.959 . S
H2531 C2545 0.929 . S
H2532 C2546 0.931 . S
H2533 C2548 0.930 . S
C2534 H2522 0.930 . S
C2534 C2535 1.399 . S
C2534 C2539 1.399 . S
C2535 C2534 1.399 . S
C2535 C2536 1.376 . S
C2536 H2523 0.930 . S
C2536 C2535 1.376 . S
C2536 C2537 1.388 . S
C2537 H2524 0.930 . S
C2537 C2536 1.388 . S
C2537 C2538 1.390 . S
C2538 C2537 1.390 . S
C2538 C2539 1.394 . S
C2538 C2544 1.465 . S
C2539 C2534 1.399 . S
C2539 C2538 1.394 . S
C2539 C2540 1.516 . S
C2540 C2539 1.516 . S
C2540 C2541 1.502 . S
C2540 C2542 1.561 . S
C2540 C2543 1.526 . S
C2541 H2525 0.959 . S
C2541 H2526 0.959 . S
C2541 H2527 0.961 . S
C2541 C2540 1.502 . S
C2542 H2528 0.960 . S
C2542 H2529 0.961 . S
C2542 H2530 0.959 . S
C2542 C2540 1.561 . S
C2543 C2540 1.526 . S
C2543 C2544 1.396 . S
C2543 C2548 1.390 . S
C2544 C2538 1.465 . S
C2544 C2543 1.396 . S
C2544 C2545 1.399 . S
C2545 H2531 0.929 . S
C2545 C2544 1.399 . S
C2545 C2546 1.385 . S
C2546 H2532 0.931 . S
C2546 C2545 1.385 . S
C2546 C2547 1.389 . S
C2547 C2546 1.389 . S
C2547 C2548 1.387 . S
C2548 H2533 0.930 . S
C2548 C2543 1.390 . S
C2548 C2547 1.387 . S
H2549 C2561 0.930 . S
H2550 C2563 0.930 . S
H2551 C2564 0.930 . S
H2552 C2568 0.959 . S
H2553 C2568 0.959 . S
H2554 C2568 0.961 . S
H2555 C2569 0.971 . S
H2556 C2569 0.955 1_455 S
H2557 C2569 0.951 1_455 S
H2558 C2572 0.929 . S
H2559 C2573 0.931 . S
H2560 C2575 0.930 . S
C2561 H2549 0.930 . S
C2561 C2562 1.399 . S
C2561 C2566 1.399 . S
C2562 C2561 1.399 . S
C2562 C2563 1.376 . S
C2563 H2550 0.930 . S
C2563 C2562 1.376 . S
C2563 C2564 1.388 . S
C2564 H2551 0.930 . S
C2564 C2563 1.388 . S
C2564 C2565 1.390 . S
C2565 C2564 1.390 . S
C2565 C2566 1.394 . S
C2565 C2571 1.465 1_655 S
C2566 C2561 1.399 . S
C2566 C2565 1.394 . S
C2566 C2567 1.516 . S
C2567 C2566 1.516 . S
C2567 C2568 1.502 . S
C2567 C2569 1.565 . S
C2567 C2570 1.526 1_655 S
C2568 H2552 0.959 . S
C2568 H2553 0.959 . S
C2568 H2554 0.961 . S
C2568 C2567 1.502 . S
C2569 H2555 0.971 . S
C2569 H2556 0.955 1_655 S
C2569 H2557 0.951 1_655 S
C2569 C2567 1.565 . S
C2570 C2567 1.526 1_455 S
C2570 C2571 1.396 . S
C2570 C2575 1.390 . S
C2571 C2565 1.465 1_455 S
C2571 C2570 1.396 . S
C2571 C2572 1.399 . S
C2572 H2558 0.929 . S
C2572 C2571 1.399 . S
C2572 C2573 1.385 . S
C2573 H2559 0.931 . S
C2573 C2572 1.385 . S
C2573 C2574 1.389 . S
C2574 C2573 1.389 . S
C2574 C2575 1.387 . S
C2575 H2560 0.930 . S
C2575 C2570 1.390 . S
C2575 C2574 1.387 . S
H2576 C2588 0.930 . S
H2577 C2590 0.930 . S
H2578 C2591 0.930 . S
H2579 C2595 0.959 . S
H2580 C2595 0.959 . S
H2581 C2595 0.961 . S
H2582 C2596 0.960 . S
H2583 C2596 0.961 . S
H2584 C2596 0.959 . S
H2585 C2599 0.929 . S
H2586 C2600 0.931 . S
H2587 C2602 0.930 . S
C2588 H2576 0.930 . S
C2588 C2589 1.399 . S
C2588 C2593 1.399 . S
C2589 C2588 1.399 . S
C2589 C2590 1.376 . S
C2590 H2577 0.930 . S
C2590 C2589 1.376 . S
C2590 C2591 1.388 . S
C2591 H2578 0.930 . S
C2591 C2590 1.388 . S
C2591 C2592 1.390 . S
C2592 C2591 1.390 . S
C2592 C2593 1.394 . S
C2592 C2598 1.465 . S
C2593 C2588 1.399 . S
C2593 C2592 1.394 . S
C2593 C2594 1.516 . S
C2594 C2593 1.516 . S
C2594 C2595 1.502 . S
C2594 C2596 1.561 . S
C2594 C2597 1.526 . S
C2595 H2579 0.959 . S
C2595 H2580 0.959 . S
C2595 H2581 0.961 . S
C2595 C2594 1.502 . S
C2596 H2582 0.960 . S
C2596 H2583 0.961 . S
C2596 H2584 0.959 . S
C2596 C2594 1.561 . S
C2597 C2594 1.526 . S
C2597 C2598 1.396 . S
C2597 C2602 1.390 . S
C2598 C2592 1.465 . S
C2598 C2597 1.396 . S
C2598 C2599 1.399 . S
C2599 H2585 0.929 . S
C2599 C2598 1.399 . S
C2599 C2600 1.385 . S
C2600 H2586 0.931 . S
C2600 C2599 1.385 . S
C2600 C2601 1.389 . S
C2601 C2600 1.389 . S
C2601 C2602 1.387 . S
C2602 H2587 0.930 . S
C2602 C2597 1.390 . S
C2602 C2601 1.387 . S
H2603 C2615 0.930 . S
H2604 C2617 0.930 . S
H2605 C2618 0.930 . S
H2606 C2622 0.958 1_455 S
H2607 C2622 0.957 1_455 S
H2608 C2622 0.964 . S
H2609 C2623 0.960 . S
H2610 C2623 0.961 . S
H2611 C2623 0.959 . S
H2612 C2626 0.929 . S
H2613 C2627 0.931 . S
H2614 C2629 0.930 . S
C2615 H2603 0.930 . S
C2615 C2616 1.399 . S
C2615 C2620 1.399 . S
C2616 C2615 1.399 . S
C2616 C2617 1.376 1_545 S
C2617 H2604 0.930 . S
C2617 C2616 1.376 1_565 S
C2617 C2618 1.388 . S
C2618 H2605 0.930 . S
C2618 C2617 1.388 . S
C2618 C2619 1.390 . S
C2619 C2618 1.390 . S
C2619 C2620 1.394 1_565 S
C2619 C2625 1.465 1_655 S
C2620 C2615 1.399 . S
C2620 C2619 1.394 1_545 S
C2620 C2621 1.516 . S
C2621 C2620 1.516 . S
C2621 C2622 1.502 . S
C2621 C2623 1.561 . S
C2621 C2624 1.526 1_655 S
C2622 H2606 0.958 1_655 S
C2622 H2607 0.957 1_655 S
C2622 H2608 0.964 . S
C2622 C2621 1.502 . S
C2623 H2609 0.960 . S
C2623 H2610 0.961 . S
C2623 H2611 0.959 . S
C2623 C2621 1.561 . S
C2624 C2621 1.526 1_455 S
C2624 C2625 1.396 1_545 S
C2624 C2629 1.390 . S
C2625 C2619 1.465 1_455 S
C2625 C2624 1.396 1_565 S
C2625 C2626 1.399 . S
C2626 H2612 0.929 . S
C2626 C2625 1.399 . S
C2626 C2627 1.385 . S
C2627 H2613 0.931 . S
C2627 C2626 1.385 . S
C2627 C2628 1.389 . S
C2628 C2627 1.389 . S
C2628 C2629 1.387 1_565 S
C2629 H2614 0.930 . S
C2629 C2624 1.390 . S
C2629 C2628 1.387 1_545 S
H2630 C2642 0.930 . S
H2631 C2644 0.930 . S
H2632 C2645 0.930 . S
H2633 C2649 0.959 . S
H2634 C2649 0.959 . S
H2635 C2649 0.961 . S
H2636 C2650 0.960 . S
H2637 C2650 0.961 . S
H2638 C2650 0.959 . S
H2639 C2653 0.929 . S
H2640 C2654 0.931 . S
H2641 C2656 0.930 . S
C2642 H2630 0.930 . S
C2642 C2643 1.399 . S
C2642 C2647 1.399 . S
C2643 C2642 1.399 . S
C2643 C2644 1.376 . S
C2644 H2631 0.930 . S
C2644 C2643 1.376 . S
C2644 C2645 1.388 . S
C2645 H2632 0.930 . S
C2645 C2644 1.388 . S
C2645 C2646 1.390 . S
C2646 C2645 1.390 . S
C2646 C2647 1.394 . S
C2646 C2652 1.465 . S
C2647 C2642 1.399 . S
C2647 C2646 1.394 . S
C2647 C2648 1.516 . S
C2648 C2647 1.516 . S
C2648 C2649 1.502 . S
C2648 C2650 1.561 . S
C2648 C2651 1.526 . S
C2649 H2633 0.959 . S
C2649 H2634 0.959 . S
C2649 H2635 0.961 . S
C2649 C2648 1.502 . S
C2650 H2636 0.960 . S
C2650 H2637 0.961 . S
C2650 H2638 0.959 . S
C2650 C2648 1.561 . S
C2651 C2648 1.526 . S
C2651 C2652 1.396 . S
C2651 C2656 1.390 . S
C2652 C2646 1.465 . S
C2652 C2651 1.396 . S
C2652 C2653 1.399 . S
C2653 H2639 0.929 . S
C2653 C2652 1.399 . S
C2653 C2654 1.385 . S
C2654 H2640 0.931 . S
C2654 C2653 1.385 . S
C2654 C2655 1.389 . S
C2655 C2654 1.389 . S
C2655 C2656 1.387 . S
C2656 H2641 0.930 . S
C2656 C2651 1.390 . S
C2656 C2655 1.387 . S
H2657 C2669 0.930 . S
H2658 C2671 0.930 . S
H2659 C2672 0.930 . S
H2660 C2676 0.959 . S
H2661 C2676 0.959 . S
H2662 C2676 0.961 . S
H2663 C2677 0.960 . S
H2664 C2677 0.961 . S
H2665 C2677 0.959 . S
H2666 C2680 0.929 . S
H2667 C2681 0.931 . S
H2668 C2683 0.930 . S
C2669 H2657 0.930 . S
C2669 C2670 1.399 . S
C2669 C2674 1.399 . S
C2670 C2669 1.399 . S
C2670 C2671 1.376 1_545 S
C2671 H2658 0.930 . S
C2671 C2670 1.376 1_565 S
C2671 C2672 1.388 . S
C2672 H2659 0.930 . S
C2672 C2671 1.388 . S
C2672 C2673 1.390 . S
C2673 C2672 1.390 . S
C2673 C2674 1.394 1_565 S
C2673 C2679 1.465 1_554 S
C2674 C2669 1.399 . S
C2674 C2673 1.394 1_545 S
C2674 C2675 1.516 . S
C2675 C2674 1.516 . S
C2675 C2676 1.502 1_554 S
C2675 C2677 1.561 . S
C2675 C2678 1.526 1_554 S
C2676 H2660 0.959 . S
C2676 H2661 0.959 . S
C2676 H2662 0.961 . S
C2676 C2675 1.502 1_556 S
C2677 H2663 0.960 . S
C2677 H2664 0.961 . S
C2677 H2665 0.959 . S
C2677 C2675 1.561 . S
C2678 C2675 1.526 1_556 S
C2678 C2679 1.396 1_545 S
C2678 C2683 1.390 . S
C2679 C2673 1.465 1_556 S
C2679 C2678 1.396 1_565 S
C2679 C2680 1.399 . S
C2680 H2666 0.929 . S
C2680 C2679 1.399 . S
C2680 C2681 1.385 . S
C2681 H2667 0.931 . S
C2681 C2680 1.385 . S
C2681 C2682 1.389 . S
C2682 C2681 1.389 . S
C2682 C2683 1.387 1_565 S
C2683 H2668 0.930 . S
C2683 C2678 1.390 . S
C2683 C2682 1.387 1_545 S
H2684 C2696 0.930 . S
H2685 C2698 0.930 . S
H2686 C2699 0.930 . S
H2687 C2703 0.959 . S
H2688 C2703 0.959 . S
H2689 C2703 0.961 . S
H2690 C2704 0.960 . S
H2691 C2704 0.961 . S
H2692 C2704 0.959 . S
H2693 C2707 0.929 . S
H2694 C2708 0.931 . S
H2695 C2710 0.930 . S
C2696 H2684 0.930 . S
C2696 C2697 1.399 . S
C2696 C2701 1.399 . S
C2697 C2696 1.399 . S
C2697 C2698 1.376 . S
C2698 H2685 0.930 . S
C2698 C2697 1.376 . S
C2698 C2699 1.388 . S
C2699 H2686 0.930 . S
C2699 C2698 1.388 . S
C2699 C2700 1.390 . S
C2700 C2699 1.390 . S
C2700 C2701 1.394 . S
C2700 C2706 1.465 . S
C2701 C2696 1.399 . S
C2701 C2700 1.394 . S
C2701 C2702 1.516 . S
C2702 C2701 1.516 . S
C2702 C2703 1.502 . S
C2702 C2704 1.561 . S
C2702 C2705 1.526 . S
C2703 H2687 0.959 . S
C2703 H2688 0.959 . S
C2703 H2689 0.961 . S
C2703 C2702 1.502 . S
C2704 H2690 0.960 . S
C2704 H2691 0.961 . S
C2704 H2692 0.959 . S
C2704 C2702 1.561 . S
C2705 C2702 1.526 . S
C2705 C2706 1.396 . S
C2705 C2710 1.390 . S
C2706 C2700 1.465 . S
C2706 C2705 1.396 . S
C2706 C2707 1.399 . S
C2707 H2693 0.929 . S
C2707 C2706 1.399 . S
C2707 C2708 1.385 . S
C2708 H2694 0.931 . S
C2708 C2707 1.385 . S
C2708 C2709 1.389 . S
C2709 C2708 1.389 . S
C2709 C2710 1.387 . S
C2710 H2695 0.930 . S
C2710 C2705 1.390 . S
C2710 C2709 1.387 . S
H2711 C2723 0.930 . S
H2712 C2725 0.930 . S
H2713 C2726 0.930 . S
H2714 C2730 0.959 . S
H2715 C2730 0.959 . S
H2716 C2730 0.961 . S
H2717 C2731 0.960 . S
H2718 C2731 0.961 . S
H2719 C2731 0.959 . S
H2720 C2734 0.929 . S
H2721 C2735 0.931 . S
H2722 C2737 0.930 . S
C2723 H2711 0.930 . S
C2723 C2724 1.399 . S
C2723 C2728 1.399 . S
C2724 C2723 1.399 . S
C2724 C2725 1.376 1_545 S
C2725 H2712 0.930 . S
C2725 C2724 1.376 1_565 S
C2725 C2726 1.388 . S
C2726 H2713 0.930 . S
C2726 C2725 1.388 . S
C2726 C2727 1.390 . S
C2727 C2726 1.390 . S
C2727 C2728 1.394 1_565 S
C2727 C2733 1.465 . S
C2728 C2723 1.399 . S
C2728 C2727 1.394 1_545 S
C2728 C2729 1.516 . S
C2729 C2728 1.516 . S
C2729 C2730 1.502 . S
C2729 C2731 1.561 . S
C2729 C2732 1.526 . S
C2730 H2714 0.959 . S
C2730 H2715 0.959 . S
C2730 H2716 0.961 . S
C2730 C2729 1.502 . S
C2731 H2717 0.960 . S
C2731 H2718 0.961 . S
C2731 H2719 0.959 . S
C2731 C2729 1.561 . S
C2732 C2729 1.526 . S
C2732 C2733 1.396 1_545 S
C2732 C2737 1.390 . S
C2733 C2727 1.465 . S
C2733 C2732 1.396 1_565 S
C2733 C2734 1.399 . S
C2734 H2720 0.929 . S
C2734 C2733 1.399 . S
C2734 C2735 1.385 . S
C2735 H2721 0.931 . S
C2735 C2734 1.385 . S
C2735 C2736 1.389 . S
C2736 C2735 1.389 . S
C2736 C2737 1.387 1_565 S
C2737 H2722 0.930 . S
C2737 C2732 1.390 . S
C2737 C2736 1.387 1_545 S
H2738 C2750 0.930 . S
H2739 C2752 0.930 . S
H2740 C2753 0.930 . S
H2741 C2757 0.959 . S
H2742 C2757 0.959 . S
H2743 C2757 0.961 . S
H2744 C2758 0.960 . S
H2745 C2758 0.961 . S
H2746 C2758 0.959 . S
H2747 C2761 0.929 . S
H2748 C2762 0.931 . S
H2749 C2764 0.930 . S
C2750 H2738 0.930 . S
C2750 C2751 1.399 . S
C2750 C2755 1.399 . S
C2751 C2750 1.399 . S
C2751 C2752 1.376 . S
C2752 H2739 0.930 . S
C2752 C2751 1.376 . S
C2752 C2753 1.388 . S
C2753 H2740 0.930 . S
C2753 C2752 1.388 . S
C2753 C2754 1.390 . S
C2754 C2753 1.390 . S
C2754 C2755 1.394 . S
C2754 C2760 1.465 . S
C2755 C2750 1.399 . S
C2755 C2754 1.394 . S
C2755 C2756 1.516 . S
C2756 C2755 1.516 . S
C2756 C2757 1.502 . S
C2756 C2758 1.561 . S
C2756 C2759 1.526 . S
C2757 H2741 0.959 . S
C2757 H2742 0.959 . S
C2757 H2743 0.961 . S
C2757 C2756 1.502 . S
C2758 H2744 0.960 . S
C2758 H2745 0.961 . S
C2758 H2746 0.959 . S
C2758 C2756 1.561 . S
C2759 C2756 1.526 . S
C2759 C2760 1.396 . S
C2759 C2764 1.390 . S
C2760 C2754 1.465 . S
C2760 C2759 1.396 . S
C2760 C2761 1.399 . S
C2761 H2747 0.929 . S
C2761 C2760 1.399 . S
C2761 C2762 1.385 . S
C2762 H2748 0.931 . S
C2762 C2761 1.385 . S
C2762 C2763 1.389 . S
C2763 C2762 1.389 . S
C2763 C2764 1.387 . S
C2764 H2749 0.930 . S
C2764 C2759 1.390 . S
C2764 C2763 1.387 . S
H2765 C2777 0.930 . S
H2766 C2779 0.930 . S
H2767 C2780 0.930 . S
H2768 C2784 0.959 . S
H2769 C2784 0.959 1_565 S
H2770 C2784 0.960 1_565 S
H2771 C2785 0.960 1_455 S
H2772 C2785 0.961 . S
H2773 C2785 0.959 . S
H2774 C2788 0.929 . S
H2775 C2789 0.931 . S
H2776 C2791 0.932 1_556 S
C2777 H2765 0.930 . S
C2777 C2778 1.399 1_565 S
C2777 C2782 1.399 . S
C2778 C2777 1.399 1_545 S
C2778 C2779 1.376 1_556 S
C2779 H2766 0.930 . S
C2779 C2778 1.376 1_554 S
C2779 C2780 1.388 . S
C2780 H2767 0.930 . S
C2780 C2779 1.388 . S
C2780 C2781 1.390 . S
C2781 C2780 1.390 . S
C2781 C2782 1.394 1_544 S
C2781 C2787 1.466 1_455 S
C2782 C2777 1.399 . S
C2782 C2781 1.394 1_566 S
C2782 C2783 1.516 1_455 S
C2783 C2782 1.516 1_655 S
C2783 C2784 1.502 1_565 S
C2783 C2785 1.561 . S
C2783 C2786 1.526 . S
C2784 H2768 0.959 . S
C2784 H2769 0.959 1_545 S
C2784 H2770 0.960 1_545 S
C2784 C2783 1.502 1_545 S
C2785 H2771 0.960 1_655 S
C2785 H2772 0.961 . S
C2785 H2773 0.959 . S
C2785 C2783 1.561 . S
C2786 C2783 1.526 . S
C2786 C2787 1.391 1_566 S
C2786 C2791 1.390 1_556 S
C2787 C2781 1.466 1_655 S
C2787 C2786 1.391 1_544 S
C2787 C2788 1.402 . S
C2788 H2774 0.929 . S
C2788 C2787 1.402 . S
C2788 C2789 1.385 . S
C2789 H2775 0.931 . S
C2789 C2788 1.385 . S
C2789 C2790 1.389 1_545 S
C2790 C2789 1.389 1_565 S
C2790 C2791 1.384 . S
C2791 H2776 0.932 1_554 S
C2791 C2786 1.390 1_554 S
C2791 C2790 1.384 . S
H2792 C2804 0.930 . S
H2793 C2806 0.930 . S
H2794 C2807 0.930 . S
H2795 C2811 0.959 . S
H2796 C2811 0.959 . S
H2797 C2811 0.961 . S
H2798 C2812 0.960 . S
H2799 C2812 0.961 . S
H2800 C2812 0.959 . S
H2801 C2815 0.929 . S
H2802 C2816 0.931 . S
H2803 C2818 0.930 . S
C2804 H2792 0.930 . S
C2804 C2805 1.399 . S
C2804 C2809 1.399 . S
C2805 C2804 1.399 . S
C2805 C2806 1.376 . S
C2806 H2793 0.930 . S
C2806 C2805 1.376 . S
C2806 C2807 1.388 . S
C2807 H2794 0.930 . S
C2807 C2806 1.388 . S
C2807 C2808 1.390 . S
C2808 C2807 1.390 . S
C2808 C2809 1.394 . S
C2808 C2814 1.465 . S
C2809 C2804 1.399 . S
C2809 C2808 1.394 . S
C2809 C2810 1.516 . S
C2810 C2809 1.516 . S
C2810 C2811 1.502 . S
C2810 C2812 1.561 . S
C2810 C2813 1.526 . S
C2811 H2795 0.959 . S
C2811 H2796 0.959 . S
C2811 H2797 0.961 . S
C2811 C2810 1.502 . S
C2812 H2798 0.960 . S
C2812 H2799 0.961 . S
C2812 H2800 0.959 . S
C2812 C2810 1.561 . S
C2813 C2810 1.526 . S
C2813 C2814 1.396 . S
C2813 C2818 1.390 . S
C2814 C2808 1.465 . S
C2814 C2813 1.396 . S
C2814 C2815 1.399 . S
C2815 H2801 0.929 . S
C2815 C2814 1.399 . S
C2815 C2816 1.385 . S
C2816 H2802 0.931 . S
C2816 C2815 1.385 . S
C2816 C2817 1.389 . S
C2817 C2816 1.389 . S
C2817 C2818 1.387 . S
C2818 H2803 0.930 . S
C2818 C2813 1.390 . S
C2818 C2817 1.387 . S
H2819 C2831 0.930 . S
H2820 C2833 0.930 . S
H2821 C2834 0.930 . S
H2822 C2838 0.959 . S
H2823 C2838 0.959 . S
H2824 C2838 0.961 . S
H2825 C2839 0.960 . S
H2826 C2839 0.961 . S
H2827 C2839 0.959 . S
H2828 C2842 0.929 . S
H2829 C2843 0.931 . S
H2830 C2845 0.930 . S
C2831 H2819 0.930 . S
C2831 C2832 1.399 . S
C2831 C2836 1.399 . S
C2832 C2831 1.399 . S
C2832 C2833 1.376 . S
C2833 H2820 0.930 . S
C2833 C2832 1.376 . S
C2833 C2834 1.388 . S
C2834 H2821 0.930 . S
C2834 C2833 1.388 . S
C2834 C2835 1.390 . S
C2835 C2834 1.390 . S
C2835 C2836 1.394 . S
C2835 C2841 1.465 . S
C2836 C2831 1.399 . S
C2836 C2835 1.394 . S
C2836 C2837 1.516 . S
C2837 C2836 1.516 . S
C2837 C2838 1.502 . S
C2837 C2839 1.561 . S
C2837 C2840 1.526 . S
C2838 H2822 0.959 . S
C2838 H2823 0.959 . S
C2838 H2824 0.961 . S
C2838 C2837 1.502 . S
C2839 H2825 0.960 . S
C2839 H2826 0.961 . S
C2839 H2827 0.959 . S
C2839 C2837 1.561 . S
C2840 C2837 1.526 . S
C2840 C2841 1.396 . S
C2840 C2845 1.390 . S
C2841 C2835 1.465 . S
C2841 C2840 1.396 . S
C2841 C2842 1.399 . S
C2842 H2828 0.929 . S
C2842 C2841 1.399 . S
C2842 C2843 1.385 . S
C2843 H2829 0.931 . S
C2843 C2842 1.385 . S
C2843 C2844 1.389 . S
C2844 C2843 1.389 . S
C2844 C2845 1.387 . S
C2845 H2830 0.930 . S
C2845 C2840 1.390 . S
C2845 C2844 1.387 . S
H2846 C2858 0.930 . S
H2847 C2860 0.930 . S
H2848 C2861 0.930 . S
H2849 C2865 0.959 . S
H2850 C2865 0.959 . S
H2851 C2865 0.961 . S
H2852 C2866 0.960 . S
H2853 C2866 0.961 . S
H2854 C2866 0.959 . S
H2855 C2869 0.929 . S
H2856 C2870 0.931 . S
H2857 C2872 0.930 . S
C2858 H2846 0.930 . S
C2858 C2859 1.399 . S
C2858 C2863 1.399 . S
C2859 C2858 1.399 . S
C2859 C2860 1.376 . S
C2860 H2847 0.930 . S
C2860 C2859 1.376 . S
C2860 C2861 1.388 . S
C2861 H2848 0.930 . S
C2861 C2860 1.388 . S
C2861 C2862 1.390 . S
C2862 C2861 1.390 . S
C2862 C2863 1.394 . S
C2862 C2868 1.465 . S
C2863 C2858 1.399 . S
C2863 C2862 1.394 . S
C2863 C2864 1.516 . S
C2864 C2863 1.516 . S
C2864 C2865 1.502 . S
C2864 C2866 1.561 . S
C2864 C2867 1.526 . S
C2865 H2849 0.959 . S
C2865 H2850 0.959 . S
C2865 H2851 0.961 . S
C2865 C2864 1.502 . S
C2866 H2852 0.960 . S
C2866 H2853 0.961 . S
C2866 H2854 0.959 . S
C2866 C2864 1.561 . S
C2867 C2864 1.526 . S
C2867 C2868 1.396 . S
C2867 C2872 1.390 . S
C2868 C2862 1.465 . S
C2868 C2867 1.396 . S
C2868 C2869 1.399 . S
C2869 H2855 0.929 . S
C2869 C2868 1.399 . S
C2869 C2870 1.385 . S
C2870 H2856 0.931 . S
C2870 C2869 1.385 . S
C2870 C2871 1.389 . S
C2871 C2870 1.389 . S
C2871 C2872 1.387 . S
C2872 H2857 0.930 . S
C2872 C2867 1.390 . S
C2872 C2871 1.387 . S
H2873 C2885 0.930 . S
H2874 C2887 0.930 . S
H2875 C2888 0.930 . S
H2876 C2892 0.959 . S
H2877 C2892 0.959 . S
H2878 C2892 0.961 . S
H2879 C2893 0.960 . S
H2880 C2893 0.961 . S
H2881 C2893 0.959 . S
H2882 C2896 0.929 . S
H2883 C2897 0.931 . S
H2884 C2899 0.930 . S
C2885 H2873 0.930 . S
C2885 C2886 1.399 . S
C2885 C2890 1.399 . S
C2886 C2885 1.399 . S
C2886 C2887 1.376 . S
C2887 H2874 0.930 . S
C2887 C2886 1.376 . S
C2887 C2888 1.388 . S
C2888 H2875 0.930 . S
C2888 C2887 1.388 . S
C2888 C2889 1.390 . S
C2889 C2888 1.390 . S
C2889 C2890 1.394 . S
C2889 C2895 1.465 . S
C2890 C2885 1.399 . S
C2890 C2889 1.394 . S
C2890 C2891 1.516 . S
C2891 C2890 1.516 . S
C2891 C2892 1.502 . S
C2891 C2893 1.561 . S
C2891 C2894 1.526 . S
C2892 H2876 0.959 . S
C2892 H2877 0.959 . S
C2892 H2878 0.961 . S
C2892 C2891 1.502 . S
C2893 H2879 0.960 . S
C2893 H2880 0.961 . S
C2893 H2881 0.959 . S
C2893 C2891 1.561 . S
C2894 C2891 1.526 . S
C2894 C2895 1.396 . S
C2894 C2899 1.390 . S
C2895 C2889 1.465 . S
C2895 C2894 1.396 . S
C2895 C2896 1.399 . S
C2896 H2882 0.929 . S
C2896 C2895 1.399 . S
C2896 C2897 1.385 . S
C2897 H2883 0.931 . S
C2897 C2896 1.385 . S
C2897 C2898 1.389 . S
C2898 C2897 1.389 . S
C2898 C2899 1.387 . S
C2899 H2884 0.930 . S
C2899 C2894 1.390 . S
C2899 C2898 1.387 . S
H2900 C2912 0.930 . S
H2901 C2914 0.930 . S
H2902 C2915 0.930 . S
H2903 C2919 0.959 . S
H2904 C2919 0.959 . S
H2905 C2919 0.961 . S
H2906 C2920 0.960 . S
H2907 C2920 0.931 1_556 S
H2908 C2920 0.959 . S
H2909 C2923 0.929 . S
H2910 C2924 0.931 . S
H2911 C2926 0.930 . S
C2912 H2900 0.930 . S
C2912 C2913 1.399 . S
C2912 C2917 1.399 . S
C2913 C2912 1.399 . S
C2913 C2914 1.376 . S
C2914 H2901 0.930 . S
C2914 C2913 1.376 . S
C2914 C2915 1.388 . S
C2915 H2902 0.930 . S
C2915 C2914 1.388 . S
C2915 C2916 1.390 . S
C2916 C2915 1.390 . S
C2916 C2917 1.394 . S
C2916 C2922 1.465 . S
C2917 C2912 1.399 . S
C2917 C2916 1.394 . S
C2917 C2918 1.516 1_554 S
C2918 C2917 1.516 1_556 S
C2918 C2919 1.502 . S
C2918 C2920 1.561 1_556 S
C2918 C2921 1.526 . S
C2919 H2903 0.959 . S
C2919 H2904 0.959 . S
C2919 H2905 0.961 . S
C2919 C2918 1.502 . S
C2920 H2906 0.960 . S
C2920 H2907 0.931 1_554 S
C2920 H2908 0.959 . S
C2920 C2918 1.561 1_554 S
C2921 C2918 1.526 . S
C2921 C2922 1.396 1_556 S
C2921 C2926 1.390 . S
C2922 C2916 1.465 . S
C2922 C2921 1.396 1_554 S
C2922 C2923 1.399 . S
C2923 H2909 0.929 . S
C2923 C2922 1.399 . S
C2923 C2924 1.385 1_554 S
C2924 H2910 0.931 . S
C2924 C2923 1.385 1_556 S
C2924 C2925 1.389 . S
C2925 C2924 1.389 . S
C2925 C2926 1.387 . S
C2926 H2911 0.930 . S
C2926 C2921 1.390 . S
C2926 C2925 1.387 . S
H2927 C2939 0.930 . S
H2928 C2941 0.930 . S
H2929 C2942 0.930 . S
H2930 C2946 0.959 . S
H2931 C2946 0.959 . S
H2932 C2946 0.961 . S
H2933 C2947 0.960 1_655 S
H2934 C2947 0.961 . S
H2935 C2947 0.959 1_655 S
H2936 C2950 0.929 . S
H2937 C2951 0.931 . S
H2938 C2953 0.930 . S
C2939 H2927 0.930 . S
C2939 C2940 1.399 . S
C2939 C2944 1.399 . S
C2940 C2939 1.399 . S
C2940 C2941 1.376 . S
C2941 H2928 0.930 . S
C2941 C2940 1.376 . S
C2941 C2942 1.388 . S
C2942 H2929 0.930 . S
C2942 C2941 1.388 . S
C2942 C2943 1.390 . S
C2943 C2942 1.390 . S
C2943 C2944 1.394 . S
C2943 C2949 1.465 1_655 S
C2944 C2939 1.399 . S
C2944 C2943 1.394 . S
C2944 C2945 1.516 1_655 S
C2945 C2944 1.516 1_455 S
C2945 C2946 1.502 . S
C2945 C2947 1.561 . S
C2945 C2948 1.526 . S
C2946 H2930 0.959 . S
C2946 H2931 0.959 . S
C2946 H2932 0.961 . S
C2946 C2945 1.502 . S
C2947 H2933 0.960 1_455 S
C2947 H2934 0.961 . S
C2947 H2935 0.959 1_455 S
C2947 C2945 1.561 . S
C2948 C2945 1.526 . S
C2948 C2949 1.396 . S
C2948 C2953 1.390 . S
C2949 C2943 1.465 1_455 S
C2949 C2948 1.396 . S
C2949 C2950 1.399 . S
C2950 H2936 0.929 . S
C2950 C2949 1.399 . S
C2950 C2951 1.385 . S
C2951 H2937 0.931 . S
C2951 C2950 1.385 . S
C2951 C2952 1.389 . S
C2952 C2951 1.389 . S
C2952 C2953 1.387 . S
C2953 H2938 0.930 . S
C2953 C2948 1.390 . S
C2953 C2952 1.387 . S
H2954 C2966 0.930 . S
H2955 C2968 0.930 . S
H2956 C2969 0.914 1_556 S
H2957 C2973 0.959 . S
H2958 C2973 0.959 . S
H2959 C2973 0.954 1_455 S
H2960 C2974 0.960 . S
H2961 C2974 0.961 1_655 S
H2962 C2974 0.959 . S
H2963 C2977 0.929 . S
H2964 C2978 0.931 . S
H2965 C2980 0.930 . S
C2966 H2954 0.930 . S
C2966 C2967 1.399 . S
C2966 C2971 1.399 . S
C2967 C2966 1.399 . S
C2967 C2968 1.376 . S
C2968 H2955 0.930 . S
C2968 C2967 1.376 . S
C2968 C2969 1.411 . S
C2969 H2956 0.914 1_554 S
C2969 C2968 1.411 . S
C2969 C2970 1.387 1_554 S
C2970 C2969 1.387 1_556 S
C2970 C2971 1.390 1_556 S
C2970 C2976 1.469 1_455 S
C2971 C2966 1.399 . S
C2971 C2970 1.390 1_554 S
C2971 C2972 1.538 1_455 S
C2972 C2971 1.538 1_655 S
C2972 C2973 1.586 . S
C2972 C2974 1.484 1_654 S
C2972 C2975 1.495 1_554 S
C2973 H2957 0.959 . S
C2973 H2958 0.959 . S
C2973 H2959 0.954 1_655 S
C2973 C2972 1.586 . S
C2974 H2960 0.960 . S
C2974 H2961 0.961 1_455 S
C2974 H2962 0.959 . S
C2974 C2972 1.484 1_456 S
C2975 C2972 1.495 1_556 S
C2975 C2976 1.396 . S
C2975 C2980 1.390 . S
C2976 C2970 1.469 1_655 S
C2976 C2975 1.396 . S
C2976 C2977 1.399 . S
C2977 H2963 0.929 . S
C2977 C2976 1.399 . S
C2977 C2978 1.385 . S
C2978 H2964 0.931 . S
C2978 C2977 1.385 . S
C2978 C2979 1.389 . S
C2979 C2978 1.389 . S
C2979 C2980 1.387 . S
C2980 H2965 0.930 . S
C2980 C2975 1.390 . S
C2980 C2979 1.387 . S
H2981 C2993 0.930 . S
H2982 C2995 0.930 . S
H2983 C2996 0.930 . S
H2984 C3000 0.959 . S
H2985 C3000 0.959 . S
H2986 C3000 0.961 . S
H2987 C3001 0.960 . S
H2988 C3001 0.961 . S
H2989 C3001 0.959 . S
H2990 C3004 0.929 . S
H2991 C3005 0.931 . S
H2992 C3007 0.930 . S
C2993 H2981 0.930 . S
C2993 C2994 1.399 . S
C2993 C2998 1.399 . S
C2994 C2993 1.399 . S
C2994 C2995 1.376 . S
C2995 H2982 0.930 . S
C2995 C2994 1.376 . S
C2995 C2996 1.388 . S
C2996 H2983 0.930 . S
C2996 C2995 1.388 . S
C2996 C2997 1.390 . S
C2997 C2996 1.390 . S
C2997 C2998 1.394 . S
C2997 C3003 1.465 . S
C2998 C2993 1.399 . S
C2998 C2997 1.394 . S
C2998 C2999 1.516 . S
C2999 C2998 1.516 . S
C2999 C3000 1.502 . S
C2999 C3001 1.561 . S
C2999 C3002 1.526 . S
C3000 H2984 0.959 . S
C3000 H2985 0.959 . S
C3000 H2986 0.961 . S
C3000 C2999 1.502 . S
C3001 H2987 0.960 . S
C3001 H2988 0.961 . S
C3001 H2989 0.959 . S
C3001 C2999 1.561 . S
C3002 C2999 1.526 . S
C3002 C3003 1.396 . S
C3002 C3007 1.390 . S
C3003 C2997 1.465 . S
C3003 C3002 1.396 . S
C3003 C3004 1.399 . S
C3004 H2990 0.929 . S
C3004 C3003 1.399 . S
C3004 C3005 1.385 . S
C3005 H2991 0.931 . S
C3005 C3004 1.385 . S
C3005 C3006 1.389 . S
C3006 C3005 1.389 . S
C3006 C3007 1.387 . S
C3007 H2992 0.930 . S
C3007 C3002 1.390 . S
C3007 C3006 1.387 . S
H3008 C3020 0.930 . S
H3009 C3022 0.930 . S
H3010 C3023 0.930 . S
H3011 C3027 0.959 . S
H3012 C3027 0.959 . S
H3013 C3027 0.961 . S
H3014 C3028 0.960 . S
H3015 C3028 0.961 . S
H3016 C3028 0.959 . S
H3017 C3031 0.929 . S
H3018 C3032 0.931 . S
H3019 C3034 0.930 . S
C3020 H3008 0.930 . S
C3020 C3021 1.399 1_565 S
C3020 C3025 1.399 . S
C3021 C3020 1.399 1_545 S
C3021 C3022 1.376 . S
C3022 H3009 0.930 . S
C3022 C3021 1.376 . S
C3022 C3023 1.388 . S
C3023 H3010 0.930 . S
C3023 C3022 1.388 . S
C3023 C3024 1.390 . S
C3024 C3023 1.390 . S
C3024 C3025 1.394 1_545 S
C3024 C3030 1.465 1_545 S
C3025 C3020 1.399 . S
C3025 C3024 1.394 1_565 S
C3025 C3026 1.516 . S
C3026 C3025 1.516 . S
C3026 C3027 1.502 . S
C3026 C3028 1.561 . S
C3026 C3029 1.526 . S
C3027 H3011 0.959 . S
C3027 H3012 0.959 . S
C3027 H3013 0.961 . S
C3027 C3026 1.502 . S
C3028 H3014 0.960 . S
C3028 H3015 0.961 . S
C3028 H3016 0.959 . S
C3028 C3026 1.561 . S
C3029 C3026 1.526 . S
C3029 C3030 1.396 . S
C3029 C3034 1.390 . S
C3030 C3024 1.465 1_565 S
C3030 C3029 1.396 . S
C3030 C3031 1.399 1_565 S
C3031 H3017 0.929 . S
C3031 C3030 1.399 1_545 S
C3031 C3032 1.385 1_545 S
C3032 H3018 0.931 . S
C3032 C3031 1.385 1_565 S
C3032 C3033 1.389 . S
C3033 C3032 1.389 . S
C3033 C3034 1.387 . S
C3034 H3019 0.930 . S
C3034 C3029 1.390 . S
C3034 C3033 1.387 . S
H3035 C3047 0.930 . S
H3036 C3049 0.930 . S
H3037 C3050 0.930 . S
H3038 C3054 0.959 . S
H3039 C3054 0.959 . S
H3040 C3054 0.961 . S
H3041 C3055 0.960 . S
H3042 C3055 0.961 . S
H3043 C3055 0.959 . S
H3044 C3058 0.929 . S
H3045 C3059 0.931 . S
H3046 C3061 0.930 . S
C3047 H3035 0.930 . S
C3047 C3048 1.399 1_565 S
C3047 C3052 1.399 . S
C3048 C3047 1.399 1_545 S
C3048 C3049 1.376 . S
C3049 H3036 0.930 . S
C3049 C3048 1.376 . S
C3049 C3050 1.388 . S
C3050 H3037 0.930 . S
C3050 C3049 1.388 . S
C3050 C3051 1.390 . S
C3051 C3050 1.390 . S
C3051 C3052 1.394 1_545 S
C3051 C3057 1.465 1_545 S
C3052 C3047 1.399 . S
C3052 C3051 1.394 1_565 S
C3052 C3053 1.516 . S
C3053 C3052 1.516 . S
C3053 C3054 1.502 . S
C3053 C3055 1.561 . S
C3053 C3056 1.526 . S
C3054 H3038 0.959 . S
C3054 H3039 0.959 . S
C3054 H3040 0.961 . S
C3054 C3053 1.502 . S
C3055 H3041 0.960 . S
C3055 H3042 0.961 . S
C3055 H3043 0.959 . S
C3055 C3053 1.561 . S
C3056 C3053 1.526 . S
C3056 C3057 1.396 . S
C3056 C3061 1.390 . S
C3057 C3051 1.465 1_565 S
C3057 C3056 1.396 . S
C3057 C3058 1.399 1_565 S
C3058 H3044 0.929 . S
C3058 C3057 1.399 1_545 S
C3058 C3059 1.385 1_545 S
C3059 H3045 0.931 . S
C3059 C3058 1.385 1_565 S
C3059 C3060 1.389 . S
C3060 C3059 1.389 . S
C3060 C3061 1.387 . S
C3061 H3046 0.930 . S
C3061 C3056 1.390 . S
C3061 C3060 1.387 . S
H3062 C3074 0.930 . S
H3063 C3076 0.930 . S
H3064 C3077 0.930 . S
H3065 C3081 0.959 . S
H3066 C3081 0.959 . S
H3067 C3081 0.961 . S
H3068 C3082 0.960 . S
H3069 C3082 0.961 . S
H3070 C3082 0.959 . S
H3071 C3085 0.929 . S
H3072 C3086 0.931 . S
H3073 C3088 0.930 . S
C3074 H3062 0.930 . S
C3074 C3075 1.399 . S
C3074 C3079 1.399 . S
C3075 C3074 1.399 . S
C3075 C3076 1.376 . S
C3076 H3063 0.930 . S
C3076 C3075 1.376 . S
C3076 C3077 1.388 . S
C3077 H3064 0.930 . S
C3077 C3076 1.388 . S
C3077 C3078 1.390 . S
C3078 C3077 1.390 . S
C3078 C3079 1.394 . S
C3078 C3084 1.465 . S
C3079 C3074 1.399 . S
C3079 C3078 1.394 . S
C3079 C3080 1.516 1_545 S
C3080 C3079 1.516 1_565 S
C3080 C3081 1.502 . S
C3080 C3082 1.561 . S
C3080 C3083 1.526 . S
C3081 H3065 0.959 . S
C3081 H3066 0.959 . S
C3081 H3067 0.961 . S
C3081 C3080 1.502 . S
C3082 H3068 0.960 . S
C3082 H3069 0.961 . S
C3082 H3070 0.959 . S
C3082 C3080 1.561 . S
C3083 C3080 1.526 . S
C3083 C3084 1.396 1_565 S
C3083 C3088 1.390 . S
C3084 C3078 1.465 . S
C3084 C3083 1.396 1_545 S
C3084 C3085 1.399 . S
C3085 H3071 0.929 . S
C3085 C3084 1.399 . S
C3085 C3086 1.385 . S
C3086 H3072 0.931 . S
C3086 C3085 1.385 . S
C3086 C3087 1.389 1_545 S
C3087 C3086 1.389 1_565 S
C3087 C3088 1.387 . S
C3088 H3073 0.930 . S
C3088 C3083 1.390 . S
C3088 C3087 1.387 . S
H3089 C3101 0.930 . S
H3090 C3103 0.930 . S
H3091 C3104 0.930 . S
H3092 C3108 0.959 . S
H3093 C3108 0.959 . S
H3094 C3108 0.961 . S
H3095 C3109 0.960 . S
H3096 C3109 0.961 . S
H3097 C3109 0.959 . S
H3098 C3112 0.929 . S
H3099 C3113 0.931 . S
H3100 C3115 0.930 . S
C3101 H3089 0.930 . S
C3101 C3102 1.399 1_545 S
C3101 C3106 1.399 . S
C3102 C3101 1.399 1_565 S
C3102 C3103 1.376 . S
C3103 H3090 0.930 . S
C3103 C3102 1.376 . S
C3103 C3104 1.388 . S
C3104 H3091 0.930 . S
C3104 C3103 1.388 . S
C3104 C3105 1.390 . S
C3105 C3104 1.390 . S
C3105 C3106 1.394 1_565 S
C3105 C3111 1.465 1_565 S
C3106 C3101 1.399 . S
C3106 C3105 1.394 1_545 S
C3106 C3107 1.516 . S
C3107 C3106 1.516 . S
C3107 C3108 1.502 . S
C3107 C3109 1.561 . S
C3107 C3110 1.526 . S
C3108 H3092 0.959 . S
C3108 H3093 0.959 . S
C3108 H3094 0.961 . S
C3108 C3107 1.502 . S
C3109 H3095 0.960 . S
C3109 H3096 0.961 . S
C3109 H3097 0.959 . S
C3109 C3107 1.561 . S
C3110 C3107 1.526 . S
C3110 C3111 1.396 . S
C3110 C3115 1.390 . S
C3111 C3105 1.465 1_545 S
C3111 C3110 1.396 . S
C3111 C3112 1.399 1_545 S
C3112 H3098 0.929 . S
C3112 C3111 1.399 1_565 S
C3112 C3113 1.385 1_565 S
C3113 H3099 0.931 . S
C3113 C3112 1.385 1_545 S
C3113 C3114 1.389 . S
C3114 C3113 1.389 . S
C3114 C3115 1.387 . S
C3115 H3100 0.930 . S
C3115 C3110 1.390 . S
C3115 C3114 1.387 . S
H3116 C3128 0.929 1_545 S
H3117 C3130 0.930 . S
H3118 C3131 0.930 . S
H3119 C3135 0.959 . S
H3120 C3135 0.959 . S
H3121 C3135 0.961 . S
H3122 C3136 0.960 1_565 S
H3123 C3136 0.961 . S
H3124 C3136 0.959 1_565 S
H3125 C3139 0.929 . S
H3126 C3140 0.931 . S
H3127 C3142 0.930 . S
C3128 H3116 0.929 1_565 S
C3128 C3129 1.399 . S
C3128 C3133 1.399 1_565 S
C3129 C3128 1.399 . S
C3129 C3130 1.376 . S
C3130 H3117 0.930 . S
C3130 C3129 1.376 . S
C3130 C3131 1.388 . S
C3131 H3118 0.930 . S
C3131 C3130 1.388 . S
C3131 C3132 1.390 . S
C3132 C3131 1.390 . S
C3132 C3133 1.394 1_565 S
C3132 C3138 1.465 1_565 S
C3133 C3128 1.399 1_545 S
C3133 C3132 1.394 1_545 S
C3133 C3134 1.516 . S
C3134 C3133 1.516 . S
C3134 C3135 1.502 . S
C3134 C3136 1.561 . S
C3134 C3137 1.526 . S
C3135 H3119 0.959 . S
C3135 H3120 0.959 . S
C3135 H3121 0.961 . S
C3135 C3134 1.502 . S
C3136 H3122 0.960 1_545 S
C3136 H3123 0.961 . S
C3136 H3124 0.959 1_545 S
C3136 C3134 1.561 . S
C3137 C3134 1.526 . S
C3137 C3138 1.396 . S
C3137 C3142 1.390 . S
C3138 C3132 1.465 1_545 S
C3138 C3137 1.396 . S
C3138 C3139 1.399 . S
C3139 H3125 0.929 . S
C3139 C3138 1.399 . S
C3139 C3140 1.385 . S
C3140 H3126 0.931 . S
C3140 C3139 1.385 . S
C3140 C3141 1.389 . S
C3141 C3140 1.389 . S
C3141 C3142 1.387 . S
C3142 H3127 0.930 . S
C3142 C3137 1.390 . S
C3142 C3141 1.387 . S
H3143 C3155 0.930 . S
H3144 C3157 0.930 . S
H3145 C3158 0.930 . S
H3146 C3162 0.959 . S
H3147 C3162 0.959 . S
H3148 C3162 0.961 1_545 S
H3149 C3163 0.960 . S
H3150 C3163 0.961 . S
H3151 C3163 0.959 . S
H3152 C3166 0.929 1_545 S
H3153 C3167 0.931 . S
H3154 C3169 0.930 . S
C3155 H3143 0.930 . S
C3155 C3156 1.399 . S
C3155 C3160 1.399 . S
C3156 C3155 1.399 . S
C3156 C3157 1.376 . S
C3157 H3144 0.930 . S
C3157 C3156 1.376 . S
C3157 C3158 1.388 . S
C3158 H3145 0.930 . S
C3158 C3157 1.388 . S
C3158 C3159 1.390 . S
C3159 C3158 1.390 . S
C3159 C3160 1.394 . S
C3159 C3165 1.465 . S
C3160 C3155 1.399 . S
C3160 C3159 1.394 . S
C3160 C3161 1.516 . S
C3161 C3160 1.516 . S
C3161 C3162 1.502 1_545 S
C3161 C3163 1.561 . S
C3161 C3164 1.526 . S
C3162 H3146 0.959 . S
C3162 H3147 0.959 . S
C3162 H3148 0.961 1_565 S
C3162 C3161 1.502 1_565 S
C3163 H3149 0.960 . S
C3163 H3150 0.961 . S
C3163 H3151 0.959 . S
C3163 C3161 1.561 . S
C3164 C3161 1.526 . S
C3164 C3165 1.396 . S
C3164 C3169 1.390 1_545 S
C3165 C3159 1.465 . S
C3165 C3164 1.396 . S
C3165 C3166 1.399 1_545 S
C3166 H3152 0.929 1_565 S
C3166 C3165 1.399 1_565 S
C3166 C3167 1.385 . S
C3167 H3153 0.931 . S
C3167 C3166 1.385 . S
C3167 C3168 1.389 . S
C3168 C3167 1.389 . S
C3168 C3169 1.387 . S
C3169 H3154 0.930 . S
C3169 C3164 1.390 1_565 S
C3169 C3168 1.387 . S
H3170 C3182 0.930 . S
H3171 C3184 0.930 . S
H3172 C3185 0.930 1_545 S
H3173 C3189 0.959 . S
H3174 C3189 0.959 . S
H3175 C3189 0.961 . S
H3176 C3190 0.960 . S
H3177 C3190 0.961 . S
H3178 C3190 0.959 . S
H3179 C3193 0.929 . S
H3180 C3194 0.931 . S
H3181 C3196 0.930 . S
C3182 H3170 0.930 . S
C3182 C3183 1.399 . S
C3182 C3187 1.399 . S
C3183 C3182 1.399 . S
C3183 C3184 1.376 . S
C3184 H3171 0.930 . S
C3184 C3183 1.376 . S
C3184 C3185 1.388 . S
C3185 H3172 0.930 1_565 S
C3185 C3184 1.388 . S
C3185 C3186 1.390 . S
C3186 C3185 1.390 . S
C3186 C3187 1.394 . S
C3186 C3192 1.465 1_565 S
C3187 C3182 1.399 . S
C3187 C3186 1.394 . S
C3187 C3188 1.516 . S
C3188 C3187 1.516 . S
C3188 C3189 1.502 . S
C3188 C3190 1.561 . S
C3188 C3191 1.526 . S
C3189 H3173 0.959 . S
C3189 H3174 0.959 . S
C3189 H3175 0.961 . S
C3189 C3188 1.502 . S
C3190 H3176 0.960 . S
C3190 H3177 0.961 . S
C3190 H3178 0.959 . S
C3190 C3188 1.561 . S
C3191 C3188 1.526 . S
C3191 C3192 1.396 1_565 S
C3191 C3196 1.390 . S
C3192 C3186 1.465 1_545 S
C3192 C3191 1.396 1_545 S
C3192 C3193 1.399 . S
C3193 H3179 0.929 . S
C3193 C3192 1.399 . S
C3193 C3194 1.385 . S
C3194 H3180 0.931 . S
C3194 C3193 1.385 . S
C3194 C3195 1.389 . S
C3195 C3194 1.389 . S
C3195 C3196 1.387 1_545 S
C3196 H3181 0.930 . S
C3196 C3191 1.390 . S
C3196 C3195 1.387 1_565 S
H3197 C3209 0.930 . S
H3198 C3211 0.930 . S
H3199 C3212 0.930 . S
H3200 C3216 0.959 . S
H3201 C3216 0.959 . S
H3202 C3216 0.961 . S
H3203 C3217 0.960 . S
H3204 C3217 0.961 . S
H3205 C3217 0.959 . S
H3206 C3220 0.929 . S
H3207 C3221 0.931 . S
H3208 C3223 0.930 . S
C3209 H3197 0.930 . S
C3209 C3210 1.399 . S
C3209 C3214 1.399 . S
C3210 C3209 1.399 . S
C3210 C3211 1.376 . S
C3211 H3198 0.930 . S
C3211 C3210 1.376 . S
C3211 C3212 1.388 1_565 S
C3212 H3199 0.930 . S
C3212 C3211 1.388 1_545 S
C3212 C3213 1.390 1_545 S
C3213 C3212 1.390 1_565 S
C3213 C3214 1.394 . S
C3213 C3219 1.465 1_565 S
C3214 C3209 1.399 . S
C3214 C3213 1.394 . S
C3214 C3215 1.516 . S
C3215 C3214 1.516 . S
C3215 C3216 1.502 . S
C3215 C3217 1.561 . S
C3215 C3218 1.526 . S
C3216 H3200 0.959 . S
C3216 H3201 0.959 . S
C3216 H3202 0.961 . S
C3216 C3215 1.502 . S
C3217 H3203 0.960 . S
C3217 H3204 0.961 . S
C3217 H3205 0.959 . S
C3217 C3215 1.561 . S
C3218 C3215 1.526 . S
C3218 C3219 1.396 1_565 S
C3218 C3223 1.390 . S
C3219 C3213 1.465 1_545 S
C3219 C3218 1.396 1_545 S
C3219 C3220 1.399 . S
C3220 H3206 0.929 . S
C3220 C3219 1.399 . S
C3220 C3221 1.385 . S
C3221 H3207 0.931 . S
C3221 C3220 1.385 . S
C3221 C3222 1.389 . S
C3222 C3221 1.389 . S
C3222 C3223 1.387 1_545 S
C3223 H3208 0.930 . S
C3223 C3218 1.390 . S
C3223 C3222 1.387 1_565 S
H3224 C3236 0.930 . S
H3225 C3238 0.930 . S
H3226 C3239 0.930 . S
H3227 C3243 0.959 . S
H3228 C3243 0.959 . S
H3229 C3243 0.961 . S
H3230 C3244 0.960 . S
H3231 C3244 0.961 . S
H3232 C3244 0.959 . S
H3233 C3247 0.929 . S
H3234 C3248 0.931 . S
H3235 C3250 0.930 . S
C3236 H3224 0.930 . S
C3236 C3237 1.399 . S
C3236 C3241 1.399 . S
C3237 C3236 1.399 . S
C3237 C3238 1.376 . S
C3238 H3225 0.930 . S
C3238 C3237 1.376 . S
C3238 C3239 1.388 . S
C3239 H3226 0.930 . S
C3239 C3238 1.388 . S
C3239 C3240 1.390 . S
C3240 C3239 1.390 . S
C3240 C3241 1.394 . S
C3240 C3246 1.465 . S
C3241 C3236 1.399 . S
C3241 C3240 1.394 . S
C3241 C3242 1.516 . S
C3242 C3241 1.516 . S
C3242 C3243 1.502 . S
C3242 C3244 1.561 . S
C3242 C3245 1.526 . S
C3243 H3227 0.959 . S
C3243 H3228 0.959 . S
C3243 H3229 0.961 . S
C3243 C3242 1.502 . S
C3244 H3230 0.960 . S
C3244 H3231 0.961 . S
C3244 H3232 0.959 . S
C3244 C3242 1.561 . S
C3245 C3242 1.526 . S
C3245 C3246 1.396 . S
C3245 C3250 1.390 . S
C3246 C3240 1.465 . S
C3246 C3245 1.396 . S
C3246 C3247 1.399 . S
C3247 H3233 0.929 . S
C3247 C3246 1.399 . S
C3247 C3248 1.385 . S
C3248 H3234 0.931 . S
C3248 C3247 1.385 . S
C3248 C3249 1.389 . S
C3249 C3248 1.389 . S
C3249 C3250 1.387 . S
C3250 H3235 0.930 . S
C3250 C3245 1.390 . S
C3250 C3249 1.387 . S
H3251 C3263 0.930 . S
H3252 C3265 0.930 . S
H3253 C3266 0.930 . S
H3254 C3270 0.959 . S
H3255 C3270 0.959 . S
H3256 C3270 0.961 . S
H3257 C3271 0.960 . S
H3258 C3271 0.961 . S
H3259 C3271 0.959 . S
H3260 C3274 0.929 . S
H3261 C3275 0.931 . S
H3262 C3277 0.930 . S
C3263 H3251 0.930 . S
C3263 C3264 1.399 . S
C3263 C3268 1.399 . S
C3264 C3263 1.399 . S
C3264 C3265 1.376 . S
C3265 H3252 0.930 . S
C3265 C3264 1.376 . S
C3265 C3266 1.388 . S
C3266 H3253 0.930 . S
C3266 C3265 1.388 . S
C3266 C3267 1.390 . S
C3267 C3266 1.390 . S
C3267 C3268 1.394 . S
C3267 C3273 1.465 . S
C3268 C3263 1.399 . S
C3268 C3267 1.394 . S
C3268 C3269 1.516 . S
C3269 C3268 1.516 . S
C3269 C3270 1.502 . S
C3269 C3271 1.561 . S
C3269 C3272 1.526 . S
C3270 H3254 0.959 . S
C3270 H3255 0.959 . S
C3270 H3256 0.961 . S
C3270 C3269 1.502 . S
C3271 H3257 0.960 . S
C3271 H3258 0.961 . S
C3271 H3259 0.959 . S
C3271 C3269 1.561 . S
C3272 C3269 1.526 . S
C3272 C3273 1.396 . S
C3272 C3277 1.390 . S
C3273 C3267 1.465 . S
C3273 C3272 1.396 . S
C3273 C3274 1.399 . S
C3274 H3260 0.929 . S
C3274 C3273 1.399 . S
C3274 C3275 1.385 . S
C3275 H3261 0.931 . S
C3275 C3274 1.385 . S
C3275 C3276 1.389 . S
C3276 C3275 1.389 . S
C3276 C3277 1.387 . S
C3277 H3262 0.930 . S
C3277 C3272 1.390 . S
C3277 C3276 1.387 . S
H3278 C3290 0.930 . S
H3279 C3292 0.930 . S
H3280 C3293 0.930 . S
H3281 C3297 0.959 . S
H3282 C3297 0.959 . S
H3283 C3297 0.961 . S
H3284 C3298 0.960 . S
H3285 C3298 0.961 . S
H3286 C3298 0.959 . S
H3287 C3301 0.929 . S
H3288 C3302 0.931 . S
H3289 C3304 0.930 . S
C3290 H3278 0.930 . S
C3290 C3291 1.399 . S
C3290 C3295 1.399 . S
C3291 C3290 1.399 . S
C3291 C3292 1.376 . S
C3292 H3279 0.930 . S
C3292 C3291 1.376 . S
C3292 C3293 1.388 . S
C3293 H3280 0.930 . S
C3293 C3292 1.388 . S
C3293 C3294 1.390 . S
C3294 C3293 1.390 . S
C3294 C3295 1.394 . S
C3294 C3300 1.465 . S
C3295 C3290 1.399 . S
C3295 C3294 1.394 . S
C3295 C3296 1.516 . S
C3296 C3295 1.516 . S
C3296 C3297 1.502 . S
C3296 C3298 1.561 . S
C3296 C3299 1.526 . S
C3297 H3281 0.959 . S
C3297 H3282 0.959 . S
C3297 H3283 0.961 . S
C3297 C3296 1.502 . S
C3298 H3284 0.960 . S
C3298 H3285 0.961 . S
C3298 H3286 0.959 . S
C3298 C3296 1.561 . S
C3299 C3296 1.526 . S
C3299 C3300 1.396 . S
C3299 C3304 1.390 . S
C3300 C3294 1.465 . S
C3300 C3299 1.396 . S
C3300 C3301 1.399 . S
C3301 H3287 0.929 . S
C3301 C3300 1.399 . S
C3301 C3302 1.385 . S
C3302 H3288 0.931 . S
C3302 C3301 1.385 . S
C3302 C3303 1.389 . S
C3303 C3302 1.389 . S
C3303 C3304 1.387 . S
C3304 H3289 0.930 . S
C3304 C3299 1.390 . S
C3304 C3303 1.387 . S
H3305 C3317 0.930 . S
H3306 C3319 0.930 . S
H3307 C3320 0.930 . S
H3308 C3324 0.959 . S
H3309 C3324 0.959 . S
H3310 C3324 0.961 . S
H3311 C3325 0.960 . S
H3312 C3325 0.961 . S
H3313 C3325 0.959 . S
H3314 C3328 0.929 . S
H3315 C3329 0.931 . S
H3316 C3331 0.930 . S
C3317 H3305 0.930 . S
C3317 C3318 1.399 . S
C3317 C3322 1.399 . S
C3318 C3317 1.399 . S
C3318 C3319 1.376 . S
C3319 H3306 0.930 . S
C3319 C3318 1.376 . S
C3319 C3320 1.388 . S
C3320 H3307 0.930 . S
C3320 C3319 1.388 . S
C3320 C3321 1.390 . S
C3321 C3320 1.390 . S
C3321 C3322 1.394 . S
C3321 C3327 1.465 . S
C3322 C3317 1.399 . S
C3322 C3321 1.394 . S
C3322 C3323 1.516 . S
C3323 C3322 1.516 . S
C3323 C3324 1.502 . S
C3323 C3325 1.561 . S
C3323 C3326 1.526 . S
C3324 H3308 0.959 . S
C3324 H3309 0.959 . S
C3324 H3310 0.961 . S
C3324 C3323 1.502 . S
C3325 H3311 0.960 . S
C3325 H3312 0.961 . S
C3325 H3313 0.959 . S
C3325 C3323 1.561 . S
C3326 C3323 1.526 . S
C3326 C3327 1.396 . S
C3326 C3331 1.390 . S
C3327 C3321 1.465 . S
C3327 C3326 1.396 . S
C3327 C3328 1.399 . S
C3328 H3314 0.929 . S
C3328 C3327 1.399 . S
C3328 C3329 1.385 . S
C3329 H3315 0.931 . S
C3329 C3328 1.385 . S
C3329 C3330 1.389 . S
C3330 C3329 1.389 . S
C3330 C3331 1.387 . S
C3331 H3316 0.930 . S
C3331 C3326 1.390 . S
C3331 C3330 1.387 . S
H3332 C3344 0.930 . S
H3333 C3346 0.930 . S
H3334 C3347 0.930 . S
H3335 C3351 0.959 . S
H3336 C3351 0.959 . S
H3337 C3351 0.961 . S
H3338 C3352 0.960 . S
H3339 C3352 0.961 . S
H3340 C3352 0.959 . S
H3341 C3355 0.929 . S
H3342 C3356 0.931 . S
H3343 C3358 0.930 . S
C3344 H3332 0.930 . S
C3344 C3345 1.399 . S
C3344 C3349 1.399 . S
C3345 C3344 1.399 . S
C3345 C3346 1.376 . S
C3346 H3333 0.930 . S
C3346 C3345 1.376 . S
C3346 C3347 1.388 . S
C3347 H3334 0.930 . S
C3347 C3346 1.388 . S
C3347 C3348 1.390 . S
C3348 C3347 1.390 . S
C3348 C3349 1.394 . S
C3348 C3354 1.465 . S
C3349 C3344 1.399 . S
C3349 C3348 1.394 . S
C3349 C3350 1.516 . S
C3350 C3349 1.516 . S
C3350 C3351 1.502 . S
C3350 C3352 1.561 . S
C3350 C3353 1.526 . S
C3351 H3335 0.959 . S
C3351 H3336 0.959 . S
C3351 H3337 0.961 . S
C3351 C3350 1.502 . S
C3352 H3338 0.960 . S
C3352 H3339 0.961 . S
C3352 H3340 0.959 . S
C3352 C3350 1.561 . S
C3353 C3350 1.526 . S
C3353 C3354 1.396 . S
C3353 C3358 1.390 . S
C3354 C3348 1.465 . S
C3354 C3353 1.396 . S
C3354 C3355 1.399 . S
C3355 H3341 0.929 . S
C3355 C3354 1.399 . S
C3355 C3356 1.385 . S
C3356 H3342 0.931 . S
C3356 C3355 1.385 . S
C3356 C3357 1.389 . S
C3357 C3356 1.389 . S
C3357 C3358 1.387 . S
C3358 H3343 0.930 . S
C3358 C3353 1.390 . S
C3358 C3357 1.387 . S
H3359 C3371 0.930 . S
H3360 C3373 0.930 . S
H3361 C3374 0.930 . S
H3362 C3378 0.959 . S
H3363 C3378 0.959 . S
H3364 C3378 0.961 . S
H3365 C3379 0.960 . S
H3366 C3379 0.961 . S
H3367 C3379 0.959 . S
H3368 C3382 0.929 . S
H3369 C3383 0.931 . S
H3370 C3385 0.930 . S
C3371 H3359 0.930 . S
C3371 C3372 1.399 . S
C3371 C3376 1.399 . S
C3372 C3371 1.399 . S
C3372 C3373 1.376 . S
C3373 H3360 0.930 . S
C3373 C3372 1.376 . S
C3373 C3374 1.388 . S
C3374 H3361 0.930 . S
C3374 C3373 1.388 . S
C3374 C3375 1.390 . S
C3375 C3374 1.390 . S
C3375 C3376 1.394 . S
C3375 C3381 1.465 . S
C3376 C3371 1.399 . S
C3376 C3375 1.394 . S
C3376 C3377 1.516 . S
C3377 C3376 1.516 . S
C3377 C3378 1.502 . S
C3377 C3379 1.561 . S
C3377 C3380 1.526 . S
C3378 H3362 0.959 . S
C3378 H3363 0.959 . S
C3378 H3364 0.961 . S
C3378 C3377 1.502 . S
C3379 H3365 0.960 . S
C3379 H3366 0.961 . S
C3379 H3367 0.959 . S
C3379 C3377 1.561 . S
C3380 C3377 1.526 . S
C3380 C3381 1.396 . S
C3380 C3385 1.390 . S
C3381 C3375 1.465 . S
C3381 C3380 1.396 . S
C3381 C3382 1.399 . S
C3382 H3368 0.929 . S
C3382 C3381 1.399 . S
C3382 C3383 1.385 . S
C3383 H3369 0.931 . S
C3383 C3382 1.385 . S
C3383 C3384 1.389 . S
C3384 C3383 1.389 . S
C3384 C3385 1.387 . S
C3385 H3370 0.930 . S
C3385 C3380 1.390 . S
C3385 C3384 1.387 . S
H3386 C3398 0.930 . S
H3387 C3400 0.930 . S
H3388 C3401 0.930 . S
H3389 C3405 0.959 . S
H3390 C3405 0.959 . S
H3391 C3405 0.961 . S
H3392 C3406 0.960 . S
H3393 C3406 0.961 . S
H3394 C3406 0.959 . S
H3395 C3409 0.929 . S
H3396 C3410 0.931 . S
H3397 C3412 0.930 . S
C3398 H3386 0.930 . S
C3398 C3399 1.399 . S
C3398 C3403 1.399 . S
C3399 C3398 1.399 . S
C3399 C3400 1.376 . S
C3400 H3387 0.930 . S
C3400 C3399 1.376 . S
C3400 C3401 1.388 . S
C3401 H3388 0.930 . S
C3401 C3400 1.388 . S
C3401 C3402 1.390 . S
C3402 C3401 1.390 . S
C3402 C3403 1.394 . S
C3402 C3408 1.465 . S
C3403 C3398 1.399 . S
C3403 C3402 1.394 . S
C3403 C3404 1.516 . S
C3404 C3403 1.516 . S
C3404 C3405 1.502 . S
C3404 C3406 1.561 . S
C3404 C3407 1.526 . S
C3405 H3389 0.959 . S
C3405 H3390 0.959 . S
C3405 H3391 0.961 . S
C3405 C3404 1.502 . S
C3406 H3392 0.960 . S
C3406 H3393 0.961 . S
C3406 H3394 0.959 . S
C3406 C3404 1.561 . S
C3407 C3404 1.526 . S
C3407 C3408 1.396 . S
C3407 C3412 1.390 . S
C3408 C3402 1.465 . S
C3408 C3407 1.396 . S
C3408 C3409 1.399 . S
C3409 H3395 0.929 . S
C3409 C3408 1.399 . S
C3409 C3410 1.385 . S
C3410 H3396 0.931 . S
C3410 C3409 1.385 . S
C3410 C3411 1.389 . S
C3411 C3410 1.389 . S
C3411 C3412 1.387 . S
C3412 H3397 0.930 . S
C3412 C3407 1.390 . S
C3412 C3411 1.387 . S
H3413 C3425 0.930 . S
H3414 C3427 0.930 . S
H3415 C3428 0.930 . S
H3416 C3432 0.959 . S
H3417 C3432 0.959 . S
H3418 C3432 0.961 . S
H3419 C3433 0.960 . S
H3420 C3433 0.961 . S
H3421 C3433 0.959 . S
H3422 C3436 0.929 . S
H3423 C3437 0.931 . S
H3424 C3439 0.930 . S
C3425 H3413 0.930 . S
C3425 C3426 1.399 . S
C3425 C3430 1.399 . S
C3426 C3425 1.399 . S
C3426 C3427 1.376 . S
C3427 H3414 0.930 . S
C3427 C3426 1.376 . S
C3427 C3428 1.388 . S
C3428 H3415 0.930 . S
C3428 C3427 1.388 . S
C3428 C3429 1.390 . S
C3429 C3428 1.390 . S
C3429 C3430 1.394 . S
C3429 C3435 1.465 . S
C3430 C3425 1.399 . S
C3430 C3429 1.394 . S
C3430 C3431 1.516 . S
C3431 C3430 1.516 . S
C3431 C3432 1.502 . S
C3431 C3433 1.561 . S
C3431 C3434 1.526 . S
C3432 H3416 0.959 . S
C3432 H3417 0.959 . S
C3432 H3418 0.961 . S
C3432 C3431 1.502 . S
C3433 H3419 0.960 . S
C3433 H3420 0.961 . S
C3433 H3421 0.959 . S
C3433 C3431 1.561 . S
C3434 C3431 1.526 . S
C3434 C3435 1.396 . S
C3434 C3439 1.390 . S
C3435 C3429 1.465 . S
C3435 C3434 1.396 . S
C3435 C3436 1.399 . S
C3436 H3422 0.929 . S
C3436 C3435 1.399 . S
C3436 C3437 1.385 . S
C3437 H3423 0.931 . S
C3437 C3436 1.385 . S
C3437 C3438 1.389 . S
C3438 C3437 1.389 . S
C3438 C3439 1.387 . S
C3439 H3424 0.930 . S
C3439 C3434 1.390 . S
C3439 C3438 1.387 . S
H3440 C3452 0.930 . S
H3441 C3454 0.930 . S
H3442 C3455 0.930 . S
H3443 C3459 0.959 . S
H3444 C3459 0.959 . S
H3445 C3459 0.961 . S
H3446 C3460 0.960 . S
H3447 C3460 0.961 . S
H3448 C3460 0.959 . S
H3449 C3463 0.929 . S
H3450 C3464 0.931 . S
H3451 C3466 0.930 . S
C3452 H3440 0.930 . S
C3452 C3453 1.399 . S
C3452 C3457 1.399 . S
C3453 C3452 1.399 . S
C3453 C3454 1.376 . S
C3454 H3441 0.930 . S
C3454 C3453 1.376 . S
C3454 C3455 1.388 . S
C3455 H3442 0.930 . S
C3455 C3454 1.388 . S
C3455 C3456 1.390 . S
C3456 C3455 1.390 . S
C3456 C3457 1.394 . S
C3456 C3462 1.465 1_545 S
C3457 C3452 1.399 . S
C3457 C3456 1.394 . S
C3457 C3458 1.516 . S
C3458 C3457 1.516 . S
C3458 C3459 1.502 . S
C3458 C3460 1.561 1_545 S
C3458 C3461 1.526 1_545 S
C3459 H3443 0.959 . S
C3459 H3444 0.959 . S
C3459 H3445 0.961 . S
C3459 C3458 1.502 . S
C3460 H3446 0.960 . S
C3460 H3447 0.961 . S
C3460 H3448 0.959 . S
C3460 C3458 1.561 1_565 S
C3461 C3458 1.526 1_565 S
C3461 C3462 1.396 . S
C3461 C3466 1.390 . S
C3462 C3456 1.465 1_565 S
C3462 C3461 1.396 . S
C3462 C3463 1.399 . S
C3463 H3449 0.929 . S
C3463 C3462 1.399 . S
C3463 C3464 1.385 . S
C3464 H3450 0.931 . S
C3464 C3463 1.385 . S
C3464 C3465 1.389 . S
C3465 C3464 1.389 . S
C3465 C3466 1.387 . S
C3466 H3451 0.930 . S
C3466 C3461 1.390 . S
C3466 C3465 1.387 . S
H3467 C3479 0.930 . S
H3468 C3481 0.930 . S
H3469 C3482 0.930 . S
H3470 C3486 0.959 . S
H3471 C3486 0.959 . S
H3472 C3486 0.961 . S
H3473 C3487 0.960 . S
H3474 C3487 0.961 . S
H3475 C3487 0.959 . S
H3476 C3490 0.929 . S
H3477 C3491 0.931 . S
H3478 C3493 0.930 . S
C3479 H3467 0.930 . S
C3479 C3480 1.399 . S
C3479 C3484 1.399 . S
C3480 C3479 1.399 . S
C3480 C3481 1.376 . S
C3481 H3468 0.930 . S
C3481 C3480 1.376 . S
C3481 C3482 1.388 . S
C3482 H3469 0.930 . S
C3482 C3481 1.388 . S
C3482 C3483 1.390 . S
C3483 C3482 1.390 . S
C3483 C3484 1.394 . S
C3483 C3489 1.465 . S
C3484 C3479 1.399 . S
C3484 C3483 1.394 . S
C3484 C3485 1.516 . S
C3485 C3484 1.516 . S
C3485 C3486 1.502 . S
C3485 C3487 1.561 . S
C3485 C3488 1.526 . S
C3486 H3470 0.959 . S
C3486 H3471 0.959 . S
C3486 H3472 0.961 . S
C3486 C3485 1.502 . S
C3487 H3473 0.960 . S
C3487 H3474 0.961 . S
C3487 H3475 0.959 . S
C3487 C3485 1.561 . S
C3488 C3485 1.526 . S
C3488 C3489 1.396 . S
C3488 C3493 1.390 . S
C3489 C3483 1.465 . S
C3489 C3488 1.396 . S
C3489 C3490 1.399 . S
C3490 H3476 0.929 . S
C3490 C3489 1.399 . S
C3490 C3491 1.385 . S
C3491 H3477 0.931 . S
C3491 C3490 1.385 . S
C3491 C3492 1.389 . S
C3492 C3491 1.389 . S
C3492 C3493 1.387 . S
C3493 H3478 0.930 . S
C3493 C3488 1.390 . S
C3493 C3492 1.387 . S
H3494 C3506 0.930 . S
H3495 C3508 0.930 . S
H3496 C3509 0.930 . S
H3497 C3513 0.959 . S
H3498 C3513 0.959 . S
H3499 C3513 0.961 . S
H3500 C3514 0.960 . S
H3501 C3514 0.961 . S
H3502 C3514 0.959 . S
H3503 C3517 0.929 . S
H3504 C3518 0.931 . S
H3505 C3520 0.930 . S
C3506 H3494 0.930 . S
C3506 C3507 1.399 . S
C3506 C3511 1.399 . S
C3507 C3506 1.399 . S
C3507 C3508 1.376 . S
C3508 H3495 0.930 . S
C3508 C3507 1.376 . S
C3508 C3509 1.388 . S
C3509 H3496 0.930 . S
C3509 C3508 1.388 . S
C3509 C3510 1.390 . S
C3510 C3509 1.390 . S
C3510 C3511 1.394 . S
C3510 C3516 1.465 . S
C3511 C3506 1.399 . S
C3511 C3510 1.394 . S
C3511 C3512 1.516 1_545 S
C3512 C3511 1.516 1_565 S
C3512 C3513 1.502 . S
C3512 C3514 1.561 . S
C3512 C3515 1.526 . S
C3513 H3497 0.959 . S
C3513 H3498 0.959 . S
C3513 H3499 0.961 . S
C3513 C3512 1.502 . S
C3514 H3500 0.960 . S
C3514 H3501 0.961 . S
C3514 H3502 0.959 . S
C3514 C3512 1.561 . S
C3515 C3512 1.526 . S
C3515 C3516 1.396 1_565 S
C3515 C3520 1.390 . S
C3516 C3510 1.465 . S
C3516 C3515 1.396 1_545 S
C3516 C3517 1.399 . S
C3517 H3503 0.929 . S
C3517 C3516 1.399 . S
C3517 C3518 1.385 1_545 S
C3518 H3504 0.931 . S
C3518 C3517 1.385 1_565 S
C3518 C3519 1.389 . S
C3519 C3518 1.389 . S
C3519 C3520 1.387 . S
C3520 H3505 0.930 . S
C3520 C3515 1.390 . S
C3520 C3519 1.387 . S
H3521 C3533 0.930 . S
H3522 C3535 0.930 . S
H3523 C3536 0.930 . S
H3524 C3540 0.959 . S
H3525 C3540 0.959 . S
H3526 C3540 0.961 . S
H3527 C3541 1.017 . S
H3528 C3541 0.896 1_554 S
H3529 C3541 0.992 . S
H3530 C3544 0.929 . S
H3531 C3545 0.931 . S
H3532 C3547 0.930 . S
C3533 H3521 0.930 . S
C3533 C3534 1.399 . S
C3533 C3538 1.399 . S
C3534 C3533 1.399 . S
C3534 C3535 1.376 . S
C3535 H3522 0.930 . S
C3535 C3534 1.376 . S
C3535 C3536 1.388 . S
C3536 H3523 0.930 . S
C3536 C3535 1.388 . S
C3536 C3537 1.390 . S
C3537 C3536 1.390 . S
C3537 C3538 1.394 . S
C3537 C3543 1.465 1_556 S
C3538 C3533 1.399 . S
C3538 C3537 1.394 . S
C3538 C3539 1.516 1_556 S
C3539 C3538 1.516 1_554 S
C3539 C3540 1.502 . S
C3539 C3541 1.543 1_554 S
C3539 C3542 1.526 . S
C3540 H3524 0.959 . S
C3540 H3525 0.959 . S
C3540 H3526 0.961 . S
C3540 C3539 1.502 . S
C3541 H3527 1.017 . S
C3541 H3528 0.896 1_556 S
C3541 H3529 0.992 . S
C3541 C3539 1.543 1_556 S
C3542 C3539 1.526 . S
C3542 C3543 1.396 . S
C3542 C3547 1.390 . S
C3543 C3537 1.465 1_554 S
C3543 C3542 1.396 . S
C3543 C3544 1.399 . S
C3544 H3530 0.929 . S
C3544 C3543 1.399 . S
C3544 C3545 1.385 . S
C3545 H3531 0.931 . S
C3545 C3544 1.385 . S
C3545 C3546 1.389 . S
C3546 C3545 1.389 . S
C3546 C3547 1.387 . S
C3547 H3532 0.930 . S
C3547 C3542 1.390 . S
C3547 C3546 1.387 . S
H3548 C3560 0.930 . S
H3549 C3562 0.930 . S
H3550 C3563 0.930 . S
H3551 C3567 0.959 . S
H3552 C3567 0.959 . S
H3553 C3567 0.961 . S
H3554 C3568 0.960 . S
H3555 C3568 0.961 . S
H3556 C3568 0.959 . S
H3557 C3571 0.929 . S
H3558 C3572 0.931 . S
H3559 C3574 0.930 . S
C3560 H3548 0.930 . S
C3560 C3561 1.399 . S
C3560 C3565 1.399 . S
C3561 C3560 1.399 . S
C3561 C3562 1.376 . S
C3562 H3549 0.930 . S
C3562 C3561 1.376 . S
C3562 C3563 1.388 . S
C3563 H3550 0.930 . S
C3563 C3562 1.388 . S
C3563 C3564 1.390 . S
C3564 C3563 1.390 . S
C3564 C3565 1.394 . S
C3564 C3570 1.457 1_565 S
C3565 C3560 1.399 . S
C3565 C3564 1.394 . S
C3565 C3566 1.516 1_565 S
C3566 C3565 1.516 1_545 S
C3566 C3567 1.502 . S
C3566 C3568 1.561 . S
C3566 C3569 1.526 . S
C3567 H3551 0.959 . S
C3567 H3552 0.959 . S
C3567 H3553 0.961 . S
C3567 C3566 1.502 . S
C3568 H3554 0.960 . S
C3568 H3555 0.961 . S
C3568 H3556 0.959 . S
C3568 C3566 1.561 . S
C3569 C3566 1.526 . S
C3569 C3570 1.408 . S
C3569 C3574 1.390 . S
C3570 C3564 1.457 1_545 S
C3570 C3569 1.408 . S
C3570 C3571 1.396 1_545 S
C3571 H3557 0.929 . S
C3571 C3570 1.396 1_565 S
C3571 C3572 1.385 1_565 S
C3572 H3558 0.931 . S
C3572 C3571 1.385 1_545 S
C3572 C3573 1.389 . S
C3573 C3572 1.389 . S
C3573 C3574 1.387 . S
C3574 H3559 0.930 . S
C3574 C3569 1.390 . S
C3574 C3573 1.387 . S
H3575 C3587 0.930 . S
H3576 C3589 0.930 . S
H3577 C3590 0.930 . S
H3578 C3594 0.959 . S
H3579 C3594 0.959 . S
H3580 C3594 0.961 . S
H3581 C3595 0.960 . S
H3582 C3595 0.961 . S
H3583 C3595 0.959 . S
H3584 C3598 0.929 . S
H3585 C3599 0.931 . S
H3586 C3601 0.930 . S
C3587 H3575 0.930 . S
C3587 C3588 1.399 . S
C3587 C3592 1.399 . S
C3588 C3587 1.399 . S
C3588 C3589 1.376 . S
C3589 H3576 0.930 . S
C3589 C3588 1.376 . S
C3589 C3590 1.388 . S
C3590 H3577 0.930 . S
C3590 C3589 1.388 . S
C3590 C3591 1.390 . S
C3591 C3590 1.390 . S
C3591 C3592 1.394 . S
C3591 C3597 1.465 . S
C3592 C3587 1.399 . S
C3592 C3591 1.394 . S
C3592 C3593 1.516 . S
C3593 C3592 1.516 . S
C3593 C3594 1.502 . S
C3593 C3595 1.561 . S
C3593 C3596 1.526 . S
C3594 H3578 0.959 . S
C3594 H3579 0.959 . S
C3594 H3580 0.961 . S
C3594 C3593 1.502 . S
C3595 H3581 0.960 . S
C3595 H3582 0.961 . S
C3595 H3583 0.959 . S
C3595 C3593 1.561 . S
C3596 C3593 1.526 . S
C3596 C3597 1.396 . S
C3596 C3601 1.390 . S
C3597 C3591 1.465 . S
C3597 C3596 1.396 . S
C3597 C3598 1.399 . S
C3598 H3584 0.929 . S
C3598 C3597 1.399 . S
C3598 C3599 1.385 . S
C3599 H3585 0.931 . S
C3599 C3598 1.385 . S
C3599 C3600 1.389 . S
C3600 C3599 1.389 . S
C3600 C3601 1.387 . S
C3601 H3586 0.930 . S
C3601 C3596 1.390 . S
C3601 C3600 1.387 . S
H3602 C3614 0.930 . S
H3603 C3616 0.930 1_545 S
H3604 C3617 0.930 . S
H3605 C3621 0.959 . S
H3606 C3621 0.959 . S
H3607 C3621 0.961 . S
H3608 C3622 0.960 . S
H3609 C3622 0.961 . S
H3610 C3622 0.959 . S
H3611 C3625 0.929 . S
H3612 C3626 0.931 . S
H3613 C3628 0.930 1_565 S
C3614 H3602 0.930 . S
C3614 C3615 1.399 . S
C3614 C3619 1.399 . S
C3615 C3614 1.399 . S
C3615 C3616 1.376 . S
C3616 H3603 0.930 1_565 S
C3616 C3615 1.376 . S
C3616 C3617 1.388 1_565 S
C3617 H3604 0.930 . S
C3617 C3616 1.388 1_545 S
C3617 C3618 1.390 . S
C3618 C3617 1.390 . S
C3618 C3619 1.394 1_545 S
C3618 C3624 1.465 . S
C3619 C3614 1.399 . S
C3619 C3618 1.394 1_565 S
C3619 C3620 1.516 . S
C3620 C3619 1.516 . S
C3620 C3621 1.502 . S
C3620 C3622 1.561 . S
C3620 C3623 1.528 1_565 S
C3621 H3605 0.959 . S
C3621 H3606 0.959 . S
C3621 H3607 0.961 . S
C3621 C3620 1.502 . S
C3622 H3608 0.960 . S
C3622 H3609 0.961 . S
C3622 H3610 0.959 . S
C3622 C3620 1.561 . S
C3623 C3620 1.528 1_545 S
C3623 C3624 1.394 . S
C3623 C3628 1.389 . S
C3624 C3618 1.465 . S
C3624 C3623 1.394 . S
C3624 C3625 1.399 . S
C3625 H3611 0.929 . S
C3625 C3624 1.399 . S
C3625 C3626 1.385 . S
C3626 H3612 0.931 . S
C3626 C3625 1.385 . S
C3626 C3627 1.389 . S
C3627 C3626 1.389 . S
C3627 C3628 1.387 . S
C3628 H3613 0.930 1_545 S
C3628 C3623 1.389 . S
C3628 C3627 1.387 . S
H3629 C3641 0.930 . S
H3630 C3643 0.930 . S
H3631 C3644 0.930 . S
H3632 C3648 0.959 . S
H3633 C3648 1.005 . S
H3634 C3648 0.961 . S
H3635 C3649 0.960 1_554 S
H3636 C3649 0.961 . S
H3637 C3649 0.959 . S
H3638 C3652 0.929 . S
H3639 C3653 0.931 . S
H3640 C3655 0.930 . S
C3641 H3629 0.930 . S
C3641 C3642 1.399 . S
C3641 C3646 1.399 . S
C3642 C3641 1.399 . S
C3642 C3643 1.376 . S
C3643 H3630 0.930 . S
C3643 C3642 1.376 . S
C3643 C3644 1.388 . S
C3644 H3631 0.930 . S
C3644 C3643 1.388 . S
C3644 C3645 1.390 . S
C3645 C3644 1.390 . S
C3645 C3646 1.394 . S
C3645 C3651 1.465 1_554 S
C3646 C3641 1.399 . S
C3646 C3645 1.394 . S
C3646 C3647 1.586 . S
C3647 C3646 1.586 . S
C3647 C3648 1.548 . S
C3647 C3649 1.528 1_554 S
C3647 C3650 1.447 1_554 S
C3648 H3632 0.959 . S
C3648 H3633 1.005 . S
C3648 H3634 0.961 . S
C3648 C3647 1.548 . S
C3649 H3635 0.960 1_556 S
C3649 H3636 0.961 . S
C3649 H3637 0.959 . S
C3649 C3647 1.528 1_556 S
C3650 C3647 1.447 1_556 S
C3650 C3651 1.396 . S
C3650 C3655 1.390 . S
C3651 C3645 1.465 1_556 S
C3651 C3650 1.396 . S
C3651 C3652 1.399 . S
C3652 H3638 0.929 . S
C3652 C3651 1.399 . S
C3652 C3653 1.385 . S
C3653 H3639 0.931 . S
C3653 C3652 1.385 . S
C3653 C3654 1.389 . S
C3654 C3653 1.389 . S
C3654 C3655 1.387 . S
C3655 H3640 0.930 . S
C3655 C3650 1.390 . S
C3655 C3654 1.387 . S
H3656 C3668 0.930 . S
H3657 C3670 0.930 . S
H3658 C3671 0.930 . S
H3659 C3675 0.959 . S
H3660 C3675 0.959 . S
H3661 C3675 0.961 . S
H3662 C3676 0.960 . S
H3663 C3676 0.961 . S
H3664 C3676 0.959 . S
H3665 C3679 0.929 . S
H3666 C3680 0.931 . S
H3667 C3682 0.930 . S
C3668 H3656 0.930 . S
C3668 C3669 1.399 . S
C3668 C3673 1.399 . S
C3669 C3668 1.399 . S
C3669 C3670 1.376 . S
C3670 H3657 0.930 . S
C3670 C3669 1.376 . S
C3670 C3671 1.388 . S
C3671 H3658 0.930 . S
C3671 C3670 1.388 . S
C3671 C3672 1.390 . S
C3672 C3671 1.390 . S
C3672 C3673 1.394 . S
C3672 C3678 1.465 . S
C3673 C3668 1.399 . S
C3673 C3672 1.394 . S
C3673 C3674 1.516 . S
C3674 C3673 1.516 . S
C3674 C3675 1.502 . S
C3674 C3676 1.561 . S
C3674 C3677 1.526 . S
C3675 H3659 0.959 . S
C3675 H3660 0.959 . S
C3675 H3661 0.961 . S
C3675 C3674 1.502 . S
C3676 H3662 0.960 . S
C3676 H3663 0.961 . S
C3676 H3664 0.959 . S
C3676 C3674 1.561 . S
C3677 C3674 1.526 . S
C3677 C3678 1.396 . S
C3677 C3682 1.390 . S
C3678 C3672 1.465 . S
C3678 C3677 1.396 . S
C3678 C3679 1.399 . S
C3679 H3665 0.929 . S
C3679 C3678 1.399 . S
C3679 C3680 1.385 . S
C3680 H3666 0.931 . S
C3680 C3679 1.385 . S
C3680 C3681 1.389 . S
C3681 C3680 1.389 . S
C3681 C3682 1.387 . S
C3682 H3667 0.930 . S
C3682 C3677 1.390 . S
C3682 C3681 1.387 . S
H3683 C3695 0.930 . S
H3684 C3697 0.930 . S
H3685 C3698 0.930 . S
H3686 C3702 0.959 . S
H3687 C3702 0.959 1_554 S
H3688 C3702 0.961 . S
H3689 C3703 0.966 . S
H3690 C3703 0.961 . S
H3691 C3703 0.959 . S
H3692 C3706 0.929 . S
H3693 C3707 0.931 . S
H3694 C3709 0.930 . S
C3695 H3683 0.930 . S
C3695 C3696 1.399 . S
C3695 C3700 1.399 . S
C3696 C3695 1.399 . S
C3696 C3697 1.376 . S
C3697 H3684 0.930 . S
C3697 C3696 1.376 . S
C3697 C3698 1.388 . S
C3698 H3685 0.930 . S
C3698 C3697 1.388 . S
C3698 C3699 1.390 . S
C3699 C3698 1.390 . S
C3699 C3700 1.394 . S
C3699 C3705 1.465 1_556 S
C3700 C3695 1.399 . S
C3700 C3699 1.394 . S
C3700 C3701 1.482 1_556 S
C3701 C3700 1.482 1_554 S
C3701 C3702 1.486 1_554 S
C3701 C3703 1.582 . S
C3701 C3704 1.560 . S
C3702 H3686 0.959 . S
C3702 H3687 0.959 1_556 S
C3702 H3688 0.961 . S
C3702 C3701 1.486 1_556 S
C3703 H3689 0.966 . S
C3703 H3690 0.961 . S
C3703 H3691 0.959 . S
C3703 C3701 1.582 . S
C3704 C3701 1.560 . S
C3704 C3705 1.396 . S
C3704 C3709 1.390 . S
C3705 C3699 1.465 1_554 S
C3705 C3704 1.396 . S
C3705 C3706 1.399 . S
C3706 H3692 0.929 . S
C3706 C3705 1.399 . S
C3706 C3707 1.385 . S
C3707 H3693 0.931 . S
C3707 C3706 1.385 . S
C3707 C3708 1.389 . S
C3708 C3707 1.389 . S
C3708 C3709 1.387 . S
C3709 H3694 0.930 . S
C3709 C3704 1.390 . S
C3709 C3708 1.387 . S
H3710 C3722 0.930 . S
H3711 C3724 0.930 . S
H3712 C3725 0.930 . S
H3713 C3729 0.959 . S
H3714 C3729 0.959 . S
H3715 C3729 0.961 . S
H3716 C3730 0.960 . S
H3717 C3730 0.961 . S
H3718 C3730 0.959 . S
H3719 C3733 0.929 . S
H3720 C3734 0.931 . S
H3721 C3736 0.930 . S
C3722 H3710 0.930 . S
C3722 C3723 1.399 . S
C3722 C3727 1.399 . S
C3723 C3722 1.399 . S
C3723 C3724 1.376 . S
C3724 H3711 0.930 . S
C3724 C3723 1.376 . S
C3724 C3725 1.388 . S
C3725 H3712 0.930 . S
C3725 C3724 1.388 . S
C3725 C3726 1.390 . S
C3726 C3725 1.390 . S
C3726 C3727 1.394 . S
C3726 C3732 1.465 . S
C3727 C3722 1.399 . S
C3727 C3726 1.394 . S
C3727 C3728 1.516 . S
C3728 C3727 1.516 . S
C3728 C3729 1.502 . S
C3728 C3730 1.561 . S
C3728 C3731 1.526 . S
C3729 H3713 0.959 . S
C3729 H3714 0.959 . S
C3729 H3715 0.961 . S
C3729 C3728 1.502 . S
C3730 H3716 0.960 . S
C3730 H3717 0.961 . S
C3730 H3718 0.959 . S
C3730 C3728 1.561 . S
C3731 C3728 1.526 . S
C3731 C3732 1.396 . S
C3731 C3736 1.390 . S
C3732 C3726 1.465 . S
C3732 C3731 1.396 . S
C3732 C3733 1.399 . S
C3733 H3719 0.929 . S
C3733 C3732 1.399 . S
C3733 C3734 1.385 . S
C3734 H3720 0.931 . S
C3734 C3733 1.385 . S
C3734 C3735 1.389 . S
C3735 C3734 1.389 . S
C3735 C3736 1.387 . S
C3736 H3721 0.930 . S
C3736 C3731 1.390 . S
C3736 C3735 1.387 . S
H3737 C3749 0.930 . S
H3738 C3751 0.930 . S
H3739 C3752 0.930 . S
H3740 C3756 0.959 . S
H3741 C3756 0.959 . S
H3742 C3756 0.961 . S
H3743 C3757 0.960 . S
H3744 C3757 0.961 . S
H3745 C3757 0.959 . S
H3746 C3760 0.929 . S
H3747 C3761 0.931 . S
H3748 C3763 0.930 . S
C3749 H3737 0.930 . S
C3749 C3750 1.399 . S
C3749 C3754 1.399 . S
C3750 C3749 1.399 . S
C3750 C3751 1.376 . S
C3751 H3738 0.930 . S
C3751 C3750 1.376 . S
C3751 C3752 1.388 . S
C3752 H3739 0.930 . S
C3752 C3751 1.388 . S
C3752 C3753 1.390 . S
C3753 C3752 1.390 . S
C3753 C3754 1.394 . S
C3753 C3759 1.465 . S
C3754 C3749 1.399 . S
C3754 C3753 1.394 . S
C3754 C3755 1.516 . S
C3755 C3754 1.516 . S
C3755 C3756 1.502 . S
C3755 C3757 1.561 . S
C3755 C3758 1.526 . S
C3756 H3740 0.959 . S
C3756 H3741 0.959 . S
C3756 H3742 0.961 . S
C3756 C3755 1.502 . S
C3757 H3743 0.960 . S
C3757 H3744 0.961 . S
C3757 H3745 0.959 . S
C3757 C3755 1.561 . S
C3758 C3755 1.526 . S
C3758 C3759 1.396 . S
C3758 C3763 1.390 . S
C3759 C3753 1.465 . S
C3759 C3758 1.396 . S
C3759 C3760 1.399 . S
C3760 H3746 0.929 . S
C3760 C3759 1.399 . S
C3760 C3761 1.385 . S
C3761 H3747 0.931 . S
C3761 C3760 1.385 . S
C3761 C3762 1.389 . S
C3762 C3761 1.389 . S
C3762 C3763 1.387 . S
C3763 H3748 0.930 . S
C3763 C3758 1.390 . S
C3763 C3762 1.387 . S
H3764 C3776 0.930 . S
H3765 C3778 0.930 . S
H3766 C3779 0.930 . S
H3767 C3783 0.959 . S
H3768 C3783 0.959 . S
H3769 C3783 0.961 . S
H3770 C3784 0.960 . S
H3771 C3784 0.961 . S
H3772 C3784 0.959 . S
H3773 C3787 0.929 . S
H3774 C3788 0.931 . S
H3775 C3790 0.930 . S
C3776 H3764 0.930 . S
C3776 C3777 1.399 . S
C3776 C3781 1.399 . S
C3777 C3776 1.399 . S
C3777 C3778 1.376 . S
C3778 H3765 0.930 . S
C3778 C3777 1.376 . S
C3778 C3779 1.388 . S
C3779 H3766 0.930 . S
C3779 C3778 1.388 . S
C3779 C3780 1.390 . S
C3780 C3779 1.390 . S
C3780 C3781 1.394 . S
C3780 C3786 1.465 . S
C3781 C3776 1.399 . S
C3781 C3780 1.394 . S
C3781 C3782 1.516 . S
C3782 C3781 1.516 . S
C3782 C3783 1.502 . S
C3782 C3784 1.561 . S
C3782 C3785 1.526 . S
C3783 H3767 0.959 . S
C3783 H3768 0.959 . S
C3783 H3769 0.961 . S
C3783 C3782 1.502 . S
C3784 H3770 0.960 . S
C3784 H3771 0.961 . S
C3784 H3772 0.959 . S
C3784 C3782 1.561 . S
C3785 C3782 1.526 . S
C3785 C3786 1.396 . S
C3785 C3790 1.390 . S
C3786 C3780 1.465 . S
C3786 C3785 1.396 . S
C3786 C3787 1.399 . S
C3787 H3773 0.929 . S
C3787 C3786 1.399 . S
C3787 C3788 1.385 . S
C3788 H3774 0.931 . S
C3788 C3787 1.385 . S
C3788 C3789 1.389 . S
C3789 C3788 1.389 . S
C3789 C3790 1.387 . S
C3790 H3775 0.930 . S
C3790 C3785 1.390 . S
C3790 C3789 1.387 . S
H3791 C3803 0.930 . S
H3792 C3805 0.930 . S
H3793 C3806 0.930 . S
H3794 C3810 0.959 . S
H3795 C3810 0.959 . S
H3796 C3810 0.961 . S
H3797 C3811 0.960 1_556 S
H3798 C3811 0.961 . S
H3799 C3811 0.955 . S
H3800 C3814 0.929 . S
H3801 C3815 0.931 . S
H3802 C3817 0.930 . S
C3803 H3791 0.930 . S
C3803 C3804 1.399 . S
C3803 C3808 1.399 . S
C3804 C3803 1.399 . S
C3804 C3805 1.376 . S
C3805 H3792 0.930 . S
C3805 C3804 1.376 . S
C3805 C3806 1.388 . S
C3806 H3793 0.930 . S
C3806 C3805 1.388 . S
C3806 C3807 1.390 . S
C3807 C3806 1.390 . S
C3807 C3808 1.394 . S
C3807 C3813 1.465 1_556 S
C3808 C3803 1.399 . S
C3808 C3807 1.394 . S
C3808 C3809 1.516 1_556 S
C3809 C3808 1.516 1_554 S
C3809 C3810 1.502 . S
C3809 C3811 1.561 . S
C3809 C3812 1.526 . S
C3810 H3794 0.959 . S
C3810 H3795 0.959 . S
C3810 H3796 0.961 . S
C3810 C3809 1.502 . S
C3811 H3797 0.960 1_554 S
C3811 H3798 0.961 . S
C3811 H3799 0.955 . S
C3811 C3809 1.561 . S
C3812 C3809 1.526 . S
C3812 C3813 1.396 . S
C3812 C3817 1.390 . S
C3813 C3807 1.465 1_554 S
C3813 C3812 1.396 . S
C3813 C3814 1.399 . S
C3814 H3800 0.929 . S
C3814 C3813 1.399 . S
C3814 C3815 1.385 . S
C3815 H3801 0.931 . S
C3815 C3814 1.385 . S
C3815 C3816 1.389 . S
C3816 C3815 1.389 . S
C3816 C3817 1.387 . S
C3817 H3802 0.930 . S
C3817 C3812 1.390 . S
C3817 C3816 1.387 . S
H3818 C3830 0.930 . S
H3819 C3832 0.930 . S
H3820 C3833 0.930 . S
H3821 C3837 0.959 . S
H3822 C3837 0.959 . S
H3823 C3837 0.961 . S
H3824 C3838 0.960 . S
H3825 C3838 0.961 . S
H3826 C3838 0.959 . S
H3827 C3841 0.929 . S
H3828 C3842 0.931 . S
H3829 C3844 0.930 . S
C3830 H3818 0.930 . S
C3830 C3831 1.399 . S
C3830 C3835 1.399 . S
C3831 C3830 1.399 . S
C3831 C3832 1.376 . S
C3832 H3819 0.930 . S
C3832 C3831 1.376 . S
C3832 C3833 1.388 . S
C3833 H3820 0.930 . S
C3833 C3832 1.388 . S
C3833 C3834 1.390 . S
C3834 C3833 1.390 . S
C3834 C3835 1.394 . S
C3834 C3840 1.465 . S
C3835 C3830 1.399 . S
C3835 C3834 1.394 . S
C3835 C3836 1.516 . S
C3836 C3835 1.516 . S
C3836 C3837 1.502 . S
C3836 C3838 1.561 . S
C3836 C3839 1.526 . S
C3837 H3821 0.959 . S
C3837 H3822 0.959 . S
C3837 H3823 0.961 . S
C3837 C3836 1.502 . S
C3838 H3824 0.960 . S
C3838 H3825 0.961 . S
C3838 H3826 0.959 . S
C3838 C3836 1.561 . S
C3839 C3836 1.526 . S
C3839 C3840 1.396 . S
C3839 C3844 1.390 . S
C3840 C3834 1.465 . S
C3840 C3839 1.396 . S
C3840 C3841 1.399 . S
C3841 H3827 0.929 . S
C3841 C3840 1.399 . S
C3841 C3842 1.385 . S
C3842 H3828 0.931 . S
C3842 C3841 1.385 . S
C3842 C3843 1.389 . S
C3843 C3842 1.389 . S
C3843 C3844 1.387 . S
C3844 H3829 0.930 . S
C3844 C3839 1.390 . S
C3844 C3843 1.387 . S
H3845 C3857 0.930 . S
H3846 C3859 0.930 . S
H3847 C3860 0.930 . S
H3848 C3864 0.959 . S
H3849 C3864 0.959 . S
H3850 C3864 0.961 . S
H3851 C3865 0.960 . S
H3852 C3865 0.961 . S
H3853 C3865 0.959 . S
H3854 C3868 0.929 . S
H3855 C3869 0.931 . S
H3856 C3871 0.930 . S
C3857 H3845 0.930 . S
C3857 C3858 1.399 . S
C3857 C3862 1.399 . S
C3858 C3857 1.399 . S
C3858 C3859 1.376 . S
C3859 H3846 0.930 . S
C3859 C3858 1.376 . S
C3859 C3860 1.388 . S
C3860 H3847 0.930 . S
C3860 C3859 1.388 . S
C3860 C3861 1.390 . S
C3861 C3860 1.390 . S
C3861 C3862 1.394 . S
C3861 C3867 1.465 . S
C3862 C3857 1.399 . S
C3862 C3861 1.394 . S
C3862 C3863 1.516 . S
C3863 C3862 1.516 . S
C3863 C3864 1.502 . S
C3863 C3865 1.561 . S
C3863 C3866 1.526 . S
C3864 H3848 0.959 . S
C3864 H3849 0.959 . S
C3864 H3850 0.961 . S
C3864 C3863 1.502 . S
C3865 H3851 0.960 . S
C3865 H3852 0.961 . S
C3865 H3853 0.959 . S
C3865 C3863 1.561 . S
C3866 C3863 1.526 . S
C3866 C3867 1.396 . S
C3866 C3871 1.390 . S
C3867 C3861 1.465 . S
C3867 C3866 1.396 . S
C3867 C3868 1.399 . S
C3868 H3854 0.929 . S
C3868 C3867 1.399 . S
C3868 C3869 1.385 . S
C3869 H3855 0.931 . S
C3869 C3868 1.385 . S
C3869 C3870 1.389 . S
C3870 C3869 1.389 . S
C3870 C3871 1.387 . S
C3871 H3856 0.930 . S
C3871 C3866 1.390 . S
C3871 C3870 1.387 . S
C1293 C10 0.768 . S
C1305 C1095 0.426 . S
C1320 C50 0.569 . S
C1332 C335 0.648 . S
C1347 C90 0.565 . S
C1359 C1015 0.619 . S
C1374 C415 0.431 . S
C1386 C130 0.770 . S
C1401 C170 0.703 . S
C1413 C1175 0.546 . S
C1428 C575 0.431 . S
C1440 C210 0.770 . S
C1455 C1255 0.440 . S
C1467 C250 0.768 . S
C1482 C290 0.698 . S
C1494 C495 0.489 . S
C1509 C339 0.765 . S
C1521 C766 0.463 . S
C1536 C379 0.577 . S
C1548 C6 0.647 . S
C1563 C686 0.425 . S
C1575 C419 0.760 . S
C1590 C86 0.642 . S
C1602 C459 0.546 . S
C1617 C499 0.732 . S
C1629 C846 0.519 . S
C1644 C539 0.707 . S
C1656 C246 0.473 . S
C1671 C579 0.653 . S
C1683 C926 0.527 . S
C1698 C166 0.647 . S
C1710 C619 0.543 . S
C1725 C455 0.524 . S
C1737 C650 0.720 . S
C1752 C975 0.522 . S
C1764 C690 0.665 . S
C1779 C375 0.461 . S
C1791 C730 0.722 . S
C1806 C770 0.724 . S
C1818 C1055 0.463 . S
C1833 C535 0.570 . S
C1845 C810 0.680 . S
C1860 C1215 0.427 . S
C1872 C850 0.758 . S
C1887 C615 0.530 . S
C1899 C890 0.657 . S
C1914 C930 0.765 . S
C1926 C1135 0.427 . S
C1941 C979 0.706 . S
C1953 C126 0.550 . S
C1968 C1019 0.748 . S
C1980 C646 0.435 . S
C1995 C1059 0.624 . S
C2007 C46 0.621 . S
C2022 C1099 0.702 . S
C2034 C726 0.479 . S
C2049 C206 0.439 . S
C2061 C1139 0.740 . S
C2076 C886 0.454 . S
C2088 C1179 0.765 . S
C2103 C1219 0.742 . S
C2115 C286 0.440 . S
C2130 C1259 0.614 . S
C2142 C806 0.565 . S
C2157 C18 1.622 . S
C2169 C738 1.670 . S
C2184 C778 1.637 . S
C2196 C58 1.654 . S
C2211 C98 1.668 . S
C2223 C658 1.640 . S
C2238 C138 1.684 . S
C2250 C698 1.612 . S
C2265 C898 1.638 . S
C2277 C178 1.670 . S
C2292 C218 1.676 . S
C2304 C938 1.631 . S
C2319 C818 1.676 . S
C2331 C258 1.631 . S
C2346 C298 1.680 . S
C2358 C858 1.626 . S
C2373 C1049 1.613 . S
C2385 C329 1.677 . S
C2400 C369 1.680 . S
C2412 C1089 1.632 . S
C2427 C409 1.611 . S
C2439 C969 1.680 . S
C2454 C449 1.681 . S
C2466 C1009 1.630 . S
C2481 C1209 1.675 . S
C2493 C489 1.638 . S
C2508 C1249 1.676 . S
C2520 C529 1.637 . S
C2535 C569 1.674 . S
C2547 C1129 1.639 . S
C2562 C609 1.614 . S
C2574 C1169 1.675 . S
C2589 C15 1.720 . S
C2601 C966 1.814 . S
C2616 C366 1.790 . S
C2628 C55 1.754 . S
C2643 C95 1.805 . S
C2655 C1046 1.735 . S
C2670 C135 1.784 . S
C2682 C446 1.728 . S
C2697 C1126 1.776 . S
C2709 C175 1.734 . S
C2724 C526 1.794 . S
C2736 C215 1.749 . S
C2751 C255 1.742 . S
C2763 C1206 1.799 . S
C2778 C295 1.814 . S
C2790 C606 1.724 . S
C2805 C655 1.705 . S
C2817 C326 1.819 . S
C2832 C735 1.727 . S
C2844 C406 1.810 . S
C2859 C815 1.819 . S
C2871 C486 1.713 . S
C2886 C566 1.752 . S
C2898 C895 1.757 . S
C2913 C695 1.751 . S
C2925 C1006 1.758 . S
C2940 C775 1.801 . S
C2952 C1086 1.740 . S
C2967 C1166 1.818 . S
C2979 C855 1.715 . S
C2994 C1246 1.812 . S
C3006 C935 1.727 . S
C3021 C9 4.465 . S
C3033 C209 4.463 . S
C3048 C249 4.453 . S
C3060 C49 4.470 . S
C3075 C289 4.431 . S
C3087 C89 4.454 . S
C3102 C169 4.456 . S
C3114 C129 4.469 . S
C3129 C338 4.462 . S
C3141 C538 4.455 . S
C3156 C378 4.437 . S
C3168 C578 4.471 . S
C3183 C618 4.453 . S
C3195 C418 4.464 . S
C3210 C458 4.462 . S
C3222 C498 4.455 . S
C3237 C649 4.441 . S
C3249 C849 4.469 . S
C3264 C689 4.433 . S
C3276 C889 4.445 . S
C3291 C729 4.469 . S
C3303 C929 4.457 . S
C3318 C809 4.438 . S
C3330 C769 4.468 . S
C3345 C978 4.439 . S
C3357 C1178 4.471 . S
C3372 C1018 4.454 . S
C3384 C1218 4.435 . S
C3399 C1258 4.458 . S
C3411 C1058 4.459 . S
C3426 C1098 4.449 . S
C3438 C1138 4.438 . S
C3453 C19 3.935 . S
C3465 C179 3.932 . S
C3480 C59 3.937 . S
C3492 C219 3.931 . S
C3507 C259 3.931 . S
C3519 C99 3.936 . S
C3534 C299 3.937 . S
C3546 C139 3.932 . S
C3561 C330 3.942 . S
C3573 C490 3.945 . S
C3588 C530 3.944 . S
C3600 C370 3.942 . S
C3615 C570 3.939 . S
C3627 C410 3.934 . S
C3642 C610 3.931 . S
C3654 C450 3.934 . S
C3669 C659 3.931 . S
C3681 C819 3.938 . S
C3696 C859 3.941 . S
C3708 C699 3.944 . S
C3723 C739 3.942 . S
C3735 C899 3.944 . S
C3750 C939 3.936 . S
C3762 C779 3.931 . S
C3777 C1130 3.942 . S
C3789 C970 3.945 . S
C3804 C1010 3.942 . S
C3816 C1170 3.938 . S
C3831 C1050 3.941 . S
C3843 C1210 3.944 . S
C3858 C1090 3.944 . S
C3870 C1250 3.941 . S
