# Generated by pormake.
# Topology umk, (4)-cn, num edge types: 1
# Building blocks:
#     Node 0, Type 0, BuildingBlock: NAHDIM_clean_sbu_0, # of connection points: 4
#     Node 1, Type 0, BuildingBlock: NAHDIM_clean_sbu_0, # of connection points: 4
#     Node 2, Type 0, BuildingBlock: NAHDIM_clean_sbu_0, # of connection points: 4
#     Node 3, Type 0, BuildingBlock: NAHDIM_clean_sbu_0, # of connection points: 4
#     Node 4, Type 0, BuildingBlock: NAHDIM_clean_sbu_0, # of connection points: 4
#     Node 5, Type 0, BuildingBlock: NAHDIM_clean_sbu_0, # of connection points: 4
#     Node 6, Type 0, BuildingBlock: NAHDIM_clean_sbu_0, # of connection points: 4
#     Node 7, Type 0, BuildingBlock: NAHDIM_clean_sbu_0, # of connection points: 4
#     Node 8, Type 0, BuildingBlock: NAHDIM_clean_sbu_0, # of connection points: 4
#     Node 9, Type 0, BuildingBlock: NAHDIM_clean_sbu_0, # of connection points: 4
#     Node 10, Type 0, BuildingBlock: NAHDIM_clean_sbu_0, # of connection points: 4
#     Node 11, Type 0, BuildingBlock: NAHDIM_clean_sbu_0, # of connection points: 4
#     Node 12, Type 0, BuildingBlock: NAHDIM_clean_sbu_0, # of connection points: 4
#     Node 13, Type 0, BuildingBlock: NAHDIM_clean_sbu_0, # of connection points: 4
#     Node 14, Type 0, BuildingBlock: NAHDIM_clean_sbu_0, # of connection points: 4
#     Node 15, Type 0, BuildingBlock: NAHDIM_clean_sbu_0, # of connection points: 4
#     Node 16, Type 0, BuildingBlock: NAHDIM_clean_sbu_0, # of connection points: 4
#     Node 17, Type 0, BuildingBlock: NAHDIM_clean_sbu_0, # of connection points: 4
#     Node 18, Type 0, BuildingBlock: NAHDIM_clean_sbu_0, # of connection points: 4
#     Node 19, Type 0, BuildingBlock: NAHDIM_clean_sbu_0, # of connection points: 4
#     Node 20, Type 0, BuildingBlock: NAHDIM_clean_sbu_0, # of connection points: 4
#     Node 21, Type 0, BuildingBlock: NAHDIM_clean_sbu_0, # of connection points: 4
#     Node 22, Type 0, BuildingBlock: NAHDIM_clean_sbu_0, # of connection points: 4
#     Node 23, Type 0, BuildingBlock: NAHDIM_clean_sbu_0, # of connection points: 4
#     Edge 24, Type (0, 0), BuildingBlock: KIFKEQ_clean_linker_1, # of connection points: 2
#     Edge 25, Type (0, 0), BuildingBlock: KIFKEQ_clean_linker_1, # of connection points: 2
#     Edge 26, Type (0, 0), BuildingBlock: KIFKEQ_clean_linker_1, # of connection points: 2
#     Edge 27, Type (0, 0), BuildingBlock: KIFKEQ_clean_linker_1, # of connection points: 2
#     Edge 28, Type (0, 0), BuildingBlock: KIFKEQ_clean_linker_1, # of connection points: 2
#     Edge 29, Type (0, 0), BuildingBlock: KIFKEQ_clean_linker_1, # of connection points: 2
#     Edge 30, Type (0, 0), BuildingBlock: KIFKEQ_clean_linker_1, # of connection points: 2
#     Edge 31, Type (0, 0), BuildingBlock: KIFKEQ_clean_linker_1, # of connection points: 2
#     Edge 32, Type (0, 0), BuildingBlock: KIFKEQ_clean_linker_1, # of connection points: 2
#     Edge 33, Type (0, 0), BuildingBlock: KIFKEQ_clean_linker_1, # of connection points: 2
#     Edge 34, Type (0, 0), BuildingBlock: KIFKEQ_clean_linker_1, # of connection points: 2
#     Edge 35, Type (0, 0), BuildingBlock: KIFKEQ_clean_linker_1, # of connection points: 2
#     Edge 36, Type (0, 0), BuildingBlock: KIFKEQ_clean_linker_1, # of connection points: 2
#     Edge 37, Type (0, 0), BuildingBlock: KIFKEQ_clean_linker_1, # of connection points: 2
#     Edge 38, Type (0, 0), BuildingBlock: KIFKEQ_clean_linker_1, # of connection points: 2
#     Edge 39, Type (0, 0), BuildingBlock: KIFKEQ_clean_linker_1, # of connection points: 2
#     Edge 40, Type (0, 0), BuildingBlock: KIFKEQ_clean_linker_1, # of connection points: 2
#     Edge 41, Type (0, 0), BuildingBlock: KIFKEQ_clean_linker_1, # of connection points: 2
#     Edge 42, Type (0, 0), BuildingBlock: KIFKEQ_clean_linker_1, # of connection points: 2
#     Edge 43, Type (0, 0), BuildingBlock: KIFKEQ_clean_linker_1, # of connection points: 2
#     Edge 44, Type (0, 0), BuildingBlock: KIFKEQ_clean_linker_1, # of connection points: 2
#     Edge 45, Type (0, 0), BuildingBlock: KIFKEQ_clean_linker_1, # of connection points: 2
#     Edge 46, Type (0, 0), BuildingBlock: KIFKEQ_clean_linker_1, # of connection points: 2
#     Edge 47, Type (0, 0), BuildingBlock: KIFKEQ_clean_linker_1, # of connection points: 2
#     Edge 48, Type (0, 0), BuildingBlock: KIFKEQ_clean_linker_1, # of connection points: 2
#     Edge 49, Type (0, 0), BuildingBlock: KIFKEQ_clean_linker_1, # of connection points: 2
#     Edge 50, Type (0, 0), BuildingBlock: KIFKEQ_clean_linker_1, # of connection points: 2
#     Edge 51, Type (0, 0), BuildingBlock: KIFKEQ_clean_linker_1, # of connection points: 2
#     Edge 52, Type (0, 0), BuildingBlock: KIFKEQ_clean_linker_1, # of connection points: 2
#     Edge 53, Type (0, 0), BuildingBlock: KIFKEQ_clean_linker_1, # of connection points: 2
#     Edge 54, Type (0, 0), BuildingBlock: KIFKEQ_clean_linker_1, # of connection points: 2
#     Edge 55, Type (0, 0), BuildingBlock: KIFKEQ_clean_linker_1, # of connection points: 2
#     Edge 56, Type (0, 0), BuildingBlock: KIFKEQ_clean_linker_1, # of connection points: 2
#     Edge 57, Type (0, 0), BuildingBlock: KIFKEQ_clean_linker_1, # of connection points: 2
#     Edge 58, Type (0, 0), BuildingBlock: KIFKEQ_clean_linker_1, # of connection points: 2
#     Edge 59, Type (0, 0), BuildingBlock: KIFKEQ_clean_linker_1, # of connection points: 2
#     Edge 60, Type (0, 0), BuildingBlock: KIFKEQ_clean_linker_1, # of connection points: 2
#     Edge 61, Type (0, 0), BuildingBlock: KIFKEQ_clean_linker_1, # of connection points: 2
#     Edge 62, Type (0, 0), BuildingBlock: KIFKEQ_clean_linker_1, # of connection points: 2
#     Edge 63, Type (0, 0), BuildingBlock: KIFKEQ_clean_linker_1, # of connection points: 2
#     Edge 64, Type (0, 0), BuildingBlock: KIFKEQ_clean_linker_1, # of connection points: 2
#     Edge 65, Type (0, 0), BuildingBlock: KIFKEQ_clean_linker_1, # of connection points: 2
#     Edge 66, Type (0, 0), BuildingBlock: KIFKEQ_clean_linker_1, # of connection points: 2
#     Edge 67, Type (0, 0), BuildingBlock: KIFKEQ_clean_linker_1, # of connection points: 2
#     Edge 68, Type (0, 0), BuildingBlock: KIFKEQ_clean_linker_1, # of connection points: 2
#     Edge 69, Type (0, 0), BuildingBlock: KIFKEQ_clean_linker_1, # of connection points: 2
#     Edge 70, Type (0, 0), BuildingBlock: KIFKEQ_clean_linker_1, # of connection points: 2
#     Edge 71, Type (0, 0), BuildingBlock: KIFKEQ_clean_linker_1, # of connection points: 2
# Relax obj value: 0.112
# Max RMSD: 0.131
# Mean RMSD: 0.131
data_MOF--net-umk--node1-NAHDIM_clean_sbu_0--edge1-KIFKEQ_clean_linker_1
_symmetry_space_group_name_H-M    P1
_symmetry_Int_Tables_number       1
_symmetry_cell_setting            triclinic
loop_
_symmetry_equiv_pos_as_xyz
'x, y, z'
_cell_length_a     68.043018
_cell_length_b     68.005605
_cell_length_c     42.708072
_cell_angle_alpha  90.038062
_cell_angle_beta   89.967368
_cell_angle_gamma 119.96465
loop_
_atom_site_label
_atom_site_type_symbol
_atom_site_fract_x
_atom_site_fract_y
_atom_site_fract_z
_atom_type_partial_charge
C0 C 0.28962 0.46377 0.05081 0.0
O1 O 0.30453 0.482 0.0659 0.0
O2 O 0.3251 0.45647 0.10803 0.0
Zn3 Zn 0.32439 0.45367 0.06093 0.0
O4 O 0.34912 0.48218 0.04131 0.0
C5 C 0.32326 0.4105 0.06489 0.0
O6 O 0.31029 0.40725 0.08939 0.0
O7 O 0.29425 0.44817 0.04522 0.0
C8 C 0.36965 0.48751 0.04576 0.0
O9 O 0.37411 0.47464 0.06394 0.0
C10 C 0.33461 0.47538 0.1224 0.0
O11 O 0.34486 0.49431 0.10622 0.0
O12 O 0.33023 0.4285 0.04887 0.0
C13 C 0.82671 0.29238 0.55524 0.0
O14 O 0.82041 0.30364 0.57384 0.0
O15 O 0.86262 0.32565 0.61922 0.0
Zn16 Zn 0.87026 0.32807 0.57319 0.0
O17 O 0.86938 0.35452 0.55331 0.0
C18 C 0.91174 0.3282 0.58926 0.0
O19 O 0.90159 0.32053 0.61633 0.0
O20 O 0.84772 0.2996 0.55132 0.0
C21 C 0.88731 0.37372 0.55046 0.0
O22 O 0.90654 0.37643 0.56146 0.0
C23 C 0.86604 0.34258 0.63587 0.0
O24 O 0.87434 0.36262 0.62269 0.0
O25 O 0.90142 0.33215 0.56754 0.0
C26 C 0.52606 0.8283 0.03366 0.0
O27 O 0.50671 0.82821 0.03384 0.0
O28 O 0.5361 0.86703 0.1101 0.0
Zn29 Zn 0.54043 0.87088 0.06342 0.0
O30 O 0.51413 0.87171 0.04316 0.0
C31 C 0.58348 0.91143 0.07529 0.0
O32 O 0.58236 0.90118 0.10185 0.0
O33 O 0.54356 0.8452 0.04526 0.0
C34 C 0.50431 0.88147 0.05565 0.0
O35 O 0.51107 0.89102 0.08327 0.0
C36 C 0.5183 0.8521 0.12384 0.0
O37 O 0.50084 0.83762 0.10705 0.0
O38 O 0.56808 0.90116 0.05488 0.0
C39 C 0.69813 0.53274 0.5611 0.0
O40 O 0.68209 0.51193 0.56749 0.0
O41 O 0.66393 0.53802 0.63173 0.0
Zn42 Zn 0.66444 0.54164 0.5849 0.0
O43 O 0.64029 0.51334 0.56401 0.0
C44 C 0.66917 0.5863 0.58718 0.0
O45 O 0.68636 0.59091 0.60572 0.0
O46 O 0.69473 0.5491 0.5671 0.0
C47 C 0.62092 0.50044 0.57598 0.0
O48 O 0.61619 0.50528 0.60378 0.0
C49 C 0.66227 0.52079 0.64582 0.0
O50 O 0.66093 0.50384 0.62938 0.0
O51 O 0.65789 0.5666 0.57532 0.0
C52 C 0.16506 0.70004 0.03875 0.0
O53 O 0.16547 0.68098 0.04087 0.0
O54 O 0.12588 0.67255 0.11373 0.0
Zn55 Zn 0.12204 0.67212 0.06701 0.0
O56 O 0.12207 0.64486 0.04867 0.0
C57 C 0.081 0.67409 0.07708 0.0
O58 O 0.0908 0.68334 0.10383 0.0
O59 O 0.14773 0.70064 0.04852 0.0
C60 C 0.10531 0.62497 0.05225 0.0
O61 O 0.08778 0.62214 0.06877 0.0
C62 C 0.13776 0.66548 0.12737 0.0
O63 O 0.14836 0.65748 0.11049 0.0
O64 O 0.09169 0.66903 0.05723 0.0
C65 C 0.42889 0.14943 0.55453 0.0
O66 O 0.42734 0.14792 0.58519 0.0
O67 O 0.44634 0.11969 0.60599 0.0
Zn68 Zn 0.44241 0.11507 0.55941 0.0
O69 O 0.47108 0.11955 0.53949 0.0
C70 C 0.39826 0.07452 0.56212 0.0
O71 O 0.39264 0.08742 0.57829 0.0
O72 O 0.43439 0.13681 0.53941 0.0
C73 C 0.48304 0.11217 0.55211 0.0
O74 O 0.47687 0.10193 0.57939 0.0
C75 C 0.46281 0.13699 0.61866 0.0
O76 O 0.47816 0.15304 0.60081 0.0
O77 O 0.41827 0.08301 0.55136 0.0
C78 C 0.52671 0.68928 0.95241 0.0
O79 O 0.50731 0.67011 0.95142 0.0
O80 O 0.5406 0.6589 0.88016 0.0
Zn81 Zn 0.54208 0.6604 0.92728 0.0
O82 O 0.51466 0.63367 0.94642 0.0
C83 C 0.58841 0.66855 0.92865 0.0
O84 O 0.5924 0.68399 0.90726 0.0
O85 O 0.54459 0.6896 0.94294 0.0
C86 C 0.49719 0.61931 0.93148 0.0
O87 O 0.49617 0.62148 0.90106 0.0
C88 C 0.53021 0.66635 0.86359 0.0
O89 O 0.51954 0.67557 0.87745 0.0
O90 O 0.56877 0.65756 0.94073 0.0
C91 C 0.83637 0.5516 0.44808 0.0
O92 O 0.84383 0.56364 0.42229 0.0
O93 O 0.8639 0.53474 0.38753 0.0
Zn94 Zn 0.86901 0.53684 0.4341 0.0
O95 O 0.86846 0.50878 0.44993 0.0
C96 C 0.90946 0.58023 0.42471 0.0
O97 O 0.89882 0.58046 0.39918 0.0
O98 O 0.84478 0.53953 0.45686 0.0
C99 C 0.8845 0.50486 0.44418 0.0
O100 O 0.90158 0.51922 0.42672 0.0
C101 C 0.85151 0.51626 0.37304 0.0
O102 O 0.84069 0.49726 0.38899 0.0
O103 O 0.89966 0.56362 0.44354 0.0
C104 C 0.30482 0.83794 0.95629 0.0
O105 O 0.32348 0.83685 0.95344 0.0
O106 O 0.33341 0.87628 0.88264 0.0
Zn107 Zn 0.33374 0.88105 0.92922 0.0
O108 O 0.36031 0.88094 0.94985 0.0
C109 C 0.33005 0.92088 0.91729 0.0
O110 O 0.32034 0.90999 0.89133 0.0
O111 O 0.30484 0.85579 0.94744 0.0
C112 C 0.3802 0.89033 0.93845 0.0
O113 O 0.38422 0.90082 0.91138 0.0
C114 C 0.3392 0.86338 0.86889 0.0
O115 O 0.34658 0.85214 0.88551 0.0
O116 O 0.33643 0.91144 0.93738 0.0
C117 C 0.45176 0.28919 0.44451 0.0
O118 O 0.46653 0.29673 0.42149 0.0
O119 O 0.46041 0.33342 0.39098 0.0
Zn120 Zn 0.45614 0.33309 0.4377 0.0
O121 O 0.48508 0.35515 0.45931 0.0
C122 C 0.41309 0.33194 0.43754 0.0
O123 O 0.40565 0.31201 0.42431 0.0
O124 O 0.44455 0.30183 0.45533 0.0
C125 C 0.49574 0.37564 0.45007 0.0
O126 O 0.48809 0.38155 0.4257 0.0
C127 C 0.4788 0.33809 0.37717 0.0
O128 O 0.49685 0.3428 0.39385 0.0
O129 O 0.43376 0.3434 0.44573 0.0
C130 C 0.14706 0.45858 0.97459 0.0
O131 O 0.13545 0.46457 0.99298 0.0
O132 O 0.1193 0.46159 0.88172 0.0
Zn133 Zn 0.11722 0.45982 0.92858 0.0
O134 O 0.11991 0.48848 0.9463 0.0
C135 C 0.07928 0.41397 0.92949 0.0
O136 O 0.09246 0.40982 0.9115 0.0
O137 O 0.14202 0.45519 0.94572 0.0
C138 C 0.1029 0.49143 0.94502 0.0
O139 O 0.08428 0.47602 0.93118 0.0
C140 C 0.13784 0.47414 0.86749 0.0
O141 O 0.1563 0.48675 0.88387 0.0
O142 O 0.0867 0.43387 0.94019 0.0
C143 C 0.70599 0.15768 0.43775 0.0
O144 O 0.70727 0.15601 0.40726 0.0
O145 O 0.66022 0.12537 0.3841 0.0
Zn146 Zn 0.65897 0.12127 0.43084 0.0
O147 O 0.6334 0.12413 0.44934 0.0
C148 C 0.66385 0.08148 0.42686 0.0
O149 O 0.68083 0.09429 0.40814 0.0
O150 O 0.6876 0.14442 0.45183 0.0
C151 C 0.61388 0.11532 0.43684 0.0
O152 O 0.61023 0.1044 0.41016 0.0
C153 C 0.65821 0.14079 0.37023 0.0
O154 O 0.65563 0.15558 0.38691 0.0
O155 O 0.65279 0.0898 0.43975 0.0
C156 C 0.70437 0.53135 0.95207 0.0
O157 O 0.69096 0.51443 0.93366 0.0
O158 O 0.66792 0.53683 0.89686 0.0
Zn159 Zn 0.66885 0.54126 0.94371 0.0
O160 O 0.6428 0.5145 0.96501 0.0
C161 C 0.67291 0.58489 0.93259 0.0
O162 O 0.68299 0.58386 0.9069 0.0
O163 O 0.6984 0.54558 0.96023 0.0
C164 C 0.62254 0.50713 0.95582 0.0
O165 O 0.61881 0.51682 0.93172 0.0
C166 C 0.65803 0.51805 0.88221 0.0
O167 O 0.64704 0.49899 0.89799 0.0
O168 O 0.66611 0.56887 0.95243 0.0
C169 C 0.14979 0.70006 0.43751 0.0
O170 O 0.14257 0.70459 0.41147 0.0
O171 O 0.11982 0.65555 0.37795 0.0
Zn172 Zn 0.11631 0.65258 0.42467 0.0
O173 O 0.11751 0.62526 0.43959 0.0
C174 C 0.07768 0.65988 0.42568 0.0
O175 O 0.09024 0.67717 0.4073 0.0
O176 O 0.14092 0.67965 0.44681 0.0
C177 C 0.11475 0.62139 0.46883 0.0
O178 O 0.11154 0.63526 0.48673 0.0
C179 C 0.13804 0.66037 0.36359 0.0
O180 O 0.15594 0.66387 0.37975 0.0
O181 O 0.08569 0.64784 0.43609 0.0
C182 C 0.45039 0.15669 0.9674 0.0
O183 O 0.45474 0.14294 0.98374 0.0
O184 O 0.45399 0.13389 0.87055 0.0
Zn185 Zn 0.45354 0.13072 0.91744 0.0
O186 O 0.48294 0.13405 0.93297 0.0
C187 C 0.40917 0.08979 0.91751 0.0
O188 O 0.40357 0.10121 0.8982 0.0
O189 O 0.44851 0.1544 0.93786 0.0
C190 C 0.48744 0.1184 0.92709 0.0
O191 O 0.47319 0.10102 0.90998 0.0
C192 C 0.47218 0.14409 0.85465 0.0
O193 O 0.49182 0.15348 0.86916 0.0
O194 O 0.42903 0.09936 0.92902 0.0
C195 C 0.28809 0.44954 0.43 0.0
O196 O 0.28474 0.43918 0.40291 0.0
O197 O 0.3348 0.465 0.37405 0.0
Zn198 Zn 0.33635 0.46465 0.421 0.0
O199 O 0.36205 0.49415 0.43674 0.0
C200 C 0.33362 0.4211 0.41838 0.0
O201 O 0.32114 0.41856 0.39358 0.0
O202 O 0.30805 0.4607 0.441 0.0
C203 C 0.38225 0.49783 0.4385 0.0
O204 O 0.38675 0.4822 0.42861 0.0
C205 C 0.33191 0.47934 0.35869 0.0
O206 O 0.3295 0.49482 0.37386 0.0
O207 O 0.34155 0.43932 0.4342 0.0
C208 C 0.82456 0.28458 0.94678 0.0
O209 O 0.8195 0.29863 0.9326 0.0
O210 O 0.86497 0.32077 0.88489 0.0
Zn211 Zn 0.86856 0.32 0.93171 0.0
O212 O 0.86494 0.34438 0.95299 0.0
C213 C 0.91102 0.32103 0.9216 0.0
O214 O 0.90131 0.311 0.89516 0.0
O215 O 0.84524 0.28988 0.94903 0.0
C216 C 0.87849 0.36519 0.94707 0.0
O217 O 0.89454 0.3706 0.92612 0.0
C218 C 0.85518 0.33013 0.87119 0.0
O219 O 0.84614 0.33977 0.88801 0.0
O220 O 0.89994 0.32582 0.94114 0.0
C221 C 0.54612 0.84096 0.43151 0.0
O222 O 0.55944 0.8504 0.40724 0.0
O223 O 0.52755 0.87076 0.37454 0.0
Zn224 Zn 0.53186 0.87444 0.42131 0.0
O225 O 0.50614 0.87618 0.4418 0.0
C226 C 0.57625 0.91371 0.41073 0.0
O227 O 0.5746 0.90411 0.38341 0.0
O228 O 0.53337 0.84847 0.44079 0.0
C229 C 0.48713 0.87031 0.42907 0.0
O230 O 0.48339 0.86263 0.40019 0.0
C231 C 0.51711 0.85185 0.36029 0.0
O232 O 0.50789 0.83292 0.37653 0.0
O233 O 0.5604 0.90375 0.43063 0.0
C234 C 0.46301 0.29699 0.06627 0.0
O235 O 0.4809 0.30956 0.08368 0.0
O236 O 0.46093 0.33203 0.12715 0.0
Zn237 Zn 0.45526 0.33309 0.08103 0.0
O238 O 0.48194 0.359 0.05939 0.0
C239 C 0.41946 0.33828 0.05155 0.0
O240 O 0.42783 0.3356 0.0252 0.0
O241 O 0.44887 0.30366 0.06128 0.0
C242 C 0.49086 0.37923 0.06953 0.0
O243 O 0.48273 0.38336 0.09504 0.0
C244 C 0.48002 0.34136 0.141 0.0
O245 O 0.49873 0.35301 0.12471 0.0
O246 O 0.4283 0.33747 0.07736 0.0
C247 C 0.16412 0.45889 0.54618 0.0
O248 O 0.16885 0.4786 0.55807 0.0
O249 O 0.1268 0.45082 0.61742 0.0
Zn250 Zn 0.1216 0.44825 0.57082 0.0
O251 O 0.12445 0.4771 0.55397 0.0
C252 C 0.08041 0.40493 0.57761 0.0
O253 O 0.09237 0.40094 0.59814 0.0
O254 O 0.14413 0.44218 0.54901 0.0
C255 C 0.11017 0.48297 0.56219 0.0
O256 O 0.09405 0.47016 0.58205 0.0
C257 C 0.13855 0.46969 0.63137 0.0
O258 O 0.14844 0.4885 0.6149 0.0
O259 O 0.08977 0.42353 0.56258 0.0
C260 C 0.69934 0.15167 0.06101 0.0
O261 O 0.70219 0.14753 0.0902 0.0
O262 O 0.65604 0.12574 0.11901 0.0
Zn263 Zn 0.65184 0.11916 0.07272 0.0
O264 O 0.62546 0.12136 0.0557 0.0
C265 C 0.65815 0.07995 0.0752 0.0
O266 O 0.67657 0.09354 0.09104 0.0
O267 O 0.67961 0.14134 0.04909 0.0
C268 C 0.62136 0.11732 0.02666 0.0
O269 O 0.63433 0.11209 0.00997 0.0
C270 C 0.64514 0.13305 0.13472 0.0
O271 O 0.63026 0.13686 0.12045 0.0
O272 O 0.64556 0.08744 0.06513 0.0
C273 C 0.53539 0.70494 0.5422 0.0
O274 O 0.51573 0.68958 0.55369 0.0
O275 O 0.54061 0.67356 0.61132 0.0
Zn276 Zn 0.54734 0.6733 0.56539 0.0
O277 O 0.52164 0.64647 0.54365 0.0
C278 C 0.5903 0.67627 0.58124 0.0
O279 O 0.58913 0.68666 0.60651 0.0
O280 O 0.5523 0.70194 0.54475 0.0
C281 C 0.50131 0.63577 0.55352 0.0
O282 O 0.49601 0.6423 0.57959 0.0
C283 C 0.53709 0.65679 0.62836 0.0
O284 O 0.5373 0.63938 0.61535 0.0
O285 O 0.5749 0.67 0.56054 0.0
C286 C 0.84712 0.53803 0.03059 0.0
O287 O 0.86013 0.53438 0.01152 0.0
O288 O 0.87259 0.5298 0.1229 0.0
Zn289 Zn 0.87511 0.53323 0.07607 0.0
O290 O 0.87219 0.50535 0.05511 0.0
C291 C 0.91298 0.57943 0.07496 0.0
O292 O 0.89946 0.58393 0.0916 0.0
O293 O 0.85067 0.53878 0.05988 0.0
C294 C 0.87322 0.48947 0.06928 0.0
O295 O 0.87584 0.49051 0.09982 0.0
C296 C 0.85377 0.51765 0.13672 0.0
O297 O 0.83521 0.50646 0.11996 0.0
O298 O 0.90587 0.55927 0.06552 0.0
C299 C 0.28719 0.82152 0.54963 0.0
O300 O 0.30435 0.81811 0.55416 0.0
O301 O 0.3227 0.86479 0.61834 0.0
Zn302 Zn 0.31963 0.86565 0.57155 0.0
O303 O 0.34446 0.86296 0.55016 0.0
C304 C 0.31676 0.9062 0.5785 0.0
O305 O 0.30673 0.89647 0.60492 0.0
O306 O 0.28948 0.84077 0.55626 0.0
C307 C 0.36497 0.87872 0.5525 0.0
O308 O 0.36981 0.89655 0.56984 0.0
C309 C 0.32423 0.84951 0.63344 0.0
O310 O 0.32342 0.83233 0.61823 0.0
O311 O 0.32319 0.89585 0.56006 0.0
H312 H 0.31403 0.43944 0.16263 0.0
H313 H 0.35339 0.51272 0.16048 0.0
H314 H 0.3126 0.44044 0.21955 0.0
H315 H 0.35234 0.51367 0.21752 0.0
H316 H 0.32615 0.50724 0.31809 0.0
H317 H 0.3262 0.50619 0.26094 0.0
H318 H 0.3378 0.44928 0.26393 0.0
H319 H 0.33727 0.44999 0.32085 0.0
C320 C 0.32246 0.45577 0.1743 0.0
C321 C 0.33386 0.47601 0.157 0.0
C322 C 0.32173 0.45633 0.20695 0.0
C323 C 0.3324 0.47713 0.2231 0.0
C324 C 0.34371 0.49738 0.20578 0.0
C325 C 0.34444 0.49682 0.1731 0.0
C326 C 0.32864 0.49447 0.30653 0.0
C327 C 0.33169 0.4787 0.32404 0.0
C328 C 0.32881 0.49395 0.27379 0.0
C329 C 0.33201 0.47765 0.25787 0.0
C330 C 0.33497 0.46185 0.27543 0.0
C331 C 0.3348 0.46236 0.3081 0.0
H332 H 0.85156 0.30411 0.67086 0.0
H333 H 0.87154 0.37508 0.67834 0.0
H334 H 0.847 0.30025 0.72752 0.0
H335 H 0.86729 0.37124 0.73508 0.0
H336 H 0.83827 0.35105 0.83407 0.0
H337 H 0.83889 0.3532 0.77696 0.0
H338 H 0.87223 0.31335 0.77303 0.0
H339 H 0.87135 0.31092 0.82991 0.0
C340 C 0.85489 0.31888 0.68456 0.0
C341 C 0.86202 0.33994 0.67008 0.0
C342 C 0.85239 0.31668 0.71705 0.0
C343 C 0.8569 0.33547 0.73581 0.0
C344 C 0.86348 0.35639 0.72126 0.0
C345 C 0.86604 0.35862 0.68875 0.0
C346 C 0.84561 0.34264 0.82101 0.0
C347 C 0.85478 0.33084 0.83656 0.0
C348 C 0.84607 0.34398 0.7883 0.0
C349 C 0.85561 0.33345 0.77048 0.0
C350 C 0.86449 0.32139 0.78605 0.0
C351 C 0.86411 0.32012 0.81869 0.0
H352 H 0.53373 0.88801 0.32047 0.0
H353 H 0.49784 0.81465 0.3217 0.0
H354 H 0.53295 0.88752 0.26356 0.0
H355 H 0.49748 0.81421 0.2645 0.0
H356 H 0.48274 0.82352 0.16157 0.0
H357 H 0.48144 0.8231 0.21878 0.0
H358 H 0.55075 0.87832 0.22143 0.0
H359 H 0.55193 0.87906 0.16458 0.0
C360 C 0.52568 0.87175 0.30861 0.0
C361 C 0.51593 0.85136 0.32566 0.0
C362 C 0.52535 0.87149 0.27594 0.0
C363 C 0.51531 0.85083 0.25946 0.0
C364 C 0.50519 0.8304 0.27649 0.0
C365 C 0.5055 0.83066 0.30926 0.0
C366 C 0.49768 0.83556 0.1744 0.0
C367 C 0.5174 0.85137 0.15849 0.0
C368 C 0.49697 0.83524 0.20717 0.0
C369 C 0.51595 0.85076 0.22467 0.0
C370 C 0.5357 0.8664 0.20869 0.0
C371 C 0.53641 0.86673 0.17604 0.0
H372 H 0.63566 0.48174 0.84266 0.0
H373 H 0.68243 0.55405 0.84341 0.0
H374 H 0.63646 0.48197 0.7855 0.0
H375 H 0.6837 0.55417 0.78655 0.0
H376 H 0.66116 0.5514 0.68605 0.0
H377 H 0.65981 0.55005 0.7429 0.0
H378 H 0.6608 0.48701 0.7411 0.0
H379 H 0.66155 0.48805 0.68395 0.0
C380 C 0.64622 0.49764 0.83066 0.0
C381 C 0.65889 0.51789 0.84759 0.0
C382 C 0.64678 0.49775 0.7979 0.0
C383 C 0.66007 0.5181 0.78142 0.0
C384 C 0.67296 0.53826 0.79845 0.0
C385 C 0.67233 0.53817 0.83111 0.0
C386 C 0.6611 0.53724 0.69772 0.0
C387 C 0.66153 0.51986 0.68044 0.0
C388 C 0.66045 0.53653 0.73038 0.0
C389 C 0.66034 0.51849 0.74661 0.0
C390 C 0.66064 0.50103 0.72933 0.0
C391 C 0.6612 0.50169 0.69658 0.0
H392 H 0.10362 0.65296 0.3239 0.0
H393 H 0.17414 0.67077 0.32493 0.0
H394 H 0.10445 0.65465 0.26705 0.0
H395 H 0.17507 0.67295 0.26781 0.0
H396 H 0.15927 0.64925 0.16461 0.0
H397 H 0.16002 0.64852 0.22174 0.0
H398 H 0.12043 0.68217 0.22535 0.0
H399 H 0.11924 0.68245 0.16845 0.0
C400 C 0.11936 0.65737 0.31201 0.0
C401 C 0.13883 0.66174 0.32899 0.0
C402 C 0.11986 0.65847 0.27938 0.0
C403 C 0.13985 0.66404 0.26287 0.0
C404 C 0.15934 0.66839 0.27982 0.0
C405 C 0.15884 0.66727 0.31255 0.0
C406 C 0.15078 0.65654 0.17762 0.0
C407 C 0.13908 0.66578 0.16197 0.0
C408 C 0.15132 0.65624 0.21035 0.0
C409 C 0.14019 0.66518 0.22811 0.0
C410 C 0.12885 0.67478 0.21239 0.0
C411 C 0.12828 0.67505 0.17974 0.0
H412 H 0.50749 0.16043 0.81306 0.0
H413 H 0.43447 0.12875 0.81797 0.0
H414 H 0.50546 0.15936 0.75601 0.0
H415 H 0.4325 0.12822 0.76107 0.0
H416 H 0.4351 0.10567 0.66158 0.0
H417 H 0.43781 0.10832 0.71832 0.0
H418 H 0.49667 0.17533 0.71094 0.0
H419 H 0.4943 0.17244 0.65392 0.0
C420 C 0.49103 0.15343 0.80199 0.0
C421 C 0.47114 0.14455 0.82006 0.0
C422 C 0.48987 0.15294 0.76927 0.0
C423 C 0.4688 0.1436 0.75395 0.0
C424 C 0.44897 0.13516 0.7721 0.0
C425 C 0.45011 0.13558 0.80475 0.0
C426 C 0.44863 0.121 0.672 0.0
C427 C 0.46448 0.13886 0.6532 0.0
C428 C 0.45009 0.12258 0.70459 0.0
C429 C 0.46738 0.14209 0.71922 0.0
C430 C 0.48328 0.15997 0.70042 0.0
C431 C 0.48185 0.15836 0.66774 0.0
H432 H 0.53779 0.69099 0.66307 0.0
H433 H 0.5297 0.62399 0.67119 0.0
H434 H 0.53517 0.69282 0.71984 0.0
H435 H 0.52662 0.62566 0.72785 0.0
H436 H 0.55112 0.64875 0.82806 0.0
H437 H 0.55149 0.64602 0.7713 0.0
H438 H 0.50913 0.67648 0.76397 0.0
H439 H 0.50911 0.67965 0.82091 0.0
C440 C 0.53524 0.67656 0.67693 0.0
C441 C 0.53409 0.65739 0.66261 0.0
C442 C 0.53361 0.67757 0.70946 0.0
C443 C 0.5308 0.65943 0.72839 0.0
C444 C 0.52915 0.64007 0.71398 0.0
C445 C 0.53078 0.63906 0.68147 0.0
C446 C 0.54185 0.65485 0.81439 0.0
C447 C 0.53011 0.66445 0.82905 0.0
C448 C 0.54194 0.65314 0.78182 0.0
C449 C 0.53028 0.66096 0.76308 0.0
C450 C 0.51848 0.67052 0.77772 0.0
C451 C 0.51838 0.67223 0.81036 0.0
H452 H 0.87279 0.55251 0.33359 0.0
H453 H 0.82782 0.47982 0.3341 0.0
H454 H 0.87249 0.55234 0.27662 0.0
H455 H 0.82783 0.47966 0.2769 0.0
H456 H 0.81658 0.49323 0.1741 0.0
H457 H 0.81509 0.49267 0.23127 0.0
H458 H 0.88737 0.539 0.23468 0.0
H459 H 0.88885 0.53984 0.17775 0.0
C460 C 0.8628 0.53648 0.32156 0.0
C461 C 0.85039 0.51616 0.33842 0.0
C462 C 0.86275 0.53637 0.28889 0.0
C463 C 0.85029 0.51596 0.27224 0.0
C464 C 0.83748 0.49568 0.28906 0.0
C465 C 0.83756 0.49577 0.32182 0.0
C466 C 0.83215 0.50327 0.18706 0.0
C467 C 0.85282 0.51664 0.17135 0.0
C468 C 0.8313 0.50286 0.21981 0.0
C469 C 0.85109 0.51589 0.23749 0.0
C470 C 0.87177 0.52906 0.22174 0.0
C471 C 0.87263 0.52942 0.18908 0.0
H472 H 0.33273 0.88568 0.67025 0.0
H473 H 0.32227 0.81761 0.67449 0.0
H474 H 0.33721 0.88894 0.72675 0.0
H475 H 0.32598 0.82059 0.7314 0.0
H476 H 0.35532 0.84229 0.83045 0.0
H477 H 0.35242 0.83897 0.77347 0.0
H478 H 0.31504 0.87498 0.77282 0.0
H479 H 0.31862 0.87895 0.82933 0.0
C480 C 0.33123 0.87133 0.68328 0.0
C481 C 0.32704 0.85134 0.66787 0.0
C482 C 0.33368 0.87315 0.71576 0.0
C483 C 0.33177 0.85496 0.73374 0.0
C484 C 0.32779 0.83502 0.71828 0.0
C485 C 0.32552 0.83326 0.68567 0.0
C486 C 0.34652 0.84951 0.81808 0.0
C487 C 0.3373 0.86098 0.83441 0.0
C488 C 0.34474 0.8475 0.78544 0.0
C489 C 0.33358 0.85679 0.76848 0.0
C490 C 0.32416 0.86802 0.78497 0.0
C491 C 0.3261 0.87018 0.81747 0.0
H492 H 0.51333 0.3423 0.3395 0.0
H493 H 0.44624 0.33432 0.33653 0.0
H494 H 0.51426 0.34207 0.28232 0.0
H495 H 0.44744 0.3348 0.27972 0.0
H496 H 0.44557 0.3134 0.17992 0.0
H497 H 0.44602 0.31181 0.23672 0.0
H498 H 0.51653 0.3645 0.23715 0.0
H499 H 0.51625 0.36557 0.18001 0.0
C500 C 0.49884 0.34061 0.32666 0.0
C501 C 0.47968 0.33823 0.34256 0.0
C502 C 0.49942 0.34059 0.2939 0.0
C503 C 0.48087 0.33829 0.27639 0.0
C504 C 0.46183 0.33612 0.29241 0.0
C505 C 0.4612 0.336 0.32505 0.0
C506 C 0.46122 0.32458 0.19209 0.0
C507 C 0.48083 0.33973 0.17546 0.0
C508 C 0.46144 0.32377 0.22471 0.0
C509 C 0.48124 0.33822 0.24157 0.0
C510 C 0.50104 0.353 0.2249 0.0
C511 C 0.50086 0.35369 0.19216 0.0
H512 H 0.16106 0.50711 0.66888 0.0
H513 H 0.1191 0.43405 0.67218 0.0
H514 H 0.16147 0.50847 0.72599 0.0
H515 H 0.11985 0.43542 0.72916 0.0
H516 H 0.10293 0.44908 0.82731 0.0
H517 H 0.10409 0.44832 0.77041 0.0
H518 H 0.17565 0.49776 0.77219 0.0
H519 H 0.17445 0.49883 0.8293 0.0
C520 C 0.15209 0.49133 0.68176 0.0
C521 C 0.13995 0.47049 0.66597 0.0
C522 C 0.15242 0.49211 0.71449 0.0
C523 C 0.14058 0.47207 0.73208 0.0
C524 C 0.12883 0.4512 0.71626 0.0
C525 C 0.12853 0.45041 0.68359 0.0
C526 C 0.11893 0.45984 0.81562 0.0
C527 C 0.13861 0.47401 0.83287 0.0
C528 C 0.11961 0.45927 0.78299 0.0
C529 C 0.13999 0.47288 0.7668 0.0
C530 C 0.15965 0.48721 0.78399 0.0
C531 C 0.15898 0.48775 0.81671 0.0
H532 H 0.65334 0.17067 0.33246 0.0
H533 H 0.66214 0.11199 0.32956 0.0
H534 H 0.65165 0.17059 0.27533 0.0
H535 H 0.65996 0.11163 0.27276 0.0
H536 H 0.67608 0.12887 0.17058 0.0
H537 H 0.68075 0.13262 0.22716 0.0
H538 H 0.62636 0.14788 0.23317 0.0
H539 H 0.62202 0.14464 0.1764 0.0
C540 C 0.65493 0.15778 0.31967 0.0
C541 C 0.65786 0.14134 0.33558 0.0
C542 C 0.65384 0.15766 0.28694 0.0
C543 C 0.65568 0.14111 0.26946 0.0
C544 C 0.65883 0.12483 0.28544 0.0
C545 C 0.65993 0.12496 0.31807 0.0
C546 C 0.66518 0.13314 0.18392 0.0
C547 C 0.64858 0.13633 0.16897 0.0
C548 C 0.66779 0.13519 0.2164 0.0
C549 C 0.65383 0.14039 0.23474 0.0
C550 C 0.63756 0.14408 0.21972 0.0
C551 C 0.63498 0.14209 0.18718 0.0
H552 H 0.16459 0.46826 0.03379 0.0
H553 H 0.17382 0.44571 0.94313 0.0
H554 H 0.19813 0.46796 0.05317 0.0
H555 H 0.20752 0.44571 0.96246 0.0
H556 H 0.25562 0.42931 0.017 0.0
H557 H 0.22 0.42634 -0.00025 0.0
H558 H 0.23919 0.49068 0.04374 0.0
H559 H 0.27453 0.49353 0.06129 0.0
C560 C 0.1737 0.46314 0.01804 0.0
C561 C 0.1666 0.45712 0.98688 0.0
C562 C 0.19298 0.46308 0.0291 0.0
C563 C 0.20553 0.45693 0.00928 0.0
C564 C 0.19809 0.45034 0.97837 0.0
C565 C 0.17886 0.45047 0.96726 0.0
C566 C 0.25219 0.44277 0.02306 0.0
C567 C 0.26791 0.46166 0.04049 0.0
C568 C 0.23184 0.44111 0.01307 0.0
C569 C 0.22678 0.45825 0.02046 0.0
C570 C 0.24245 0.47703 0.03807 0.0
C571 C 0.26278 0.47873 0.04794 0.0
H572 H 0.70819 0.16568 0.5006 0.0
H573 H 0.74669 0.19125 0.41502 0.0
H574 H 0.73804 0.19741 0.52941 0.0
H575 H 0.77648 0.22326 0.44394 0.0
H576 H 0.83407 0.26665 0.51268 0.0
H577 H 0.80571 0.23306 0.48478 0.0
H578 H 0.75236 0.2384 0.5319 0.0
H579 H 0.78063 0.27173 0.56009 0.0
C580 C 0.72307 0.17801 0.48793 0.0
C581 C 0.72499 0.17601 0.45545 0.0
C582 C 0.74011 0.19627 0.50444 0.0
C583 C 0.75949 0.21294 0.48889 0.0
C584 C 0.76179 0.21059 0.45659 0.0
C585 C 0.74469 0.19231 0.44001 0.0
C586 C 0.81629 0.26061 0.51717 0.0
C587 C 0.80959 0.27185 0.53862 0.0
C588 C 0.80006 0.24145 0.50106 0.0
C589 C 0.77682 0.23308 0.50619 0.0
C590 C 0.77015 0.24426 0.52776 0.0
C591 C 0.78635 0.26344 0.54378 0.0
H592 H 0.56129 0.81965 0.03698 0.0
H593 H 0.49333 0.79272 0.00075 0.0
H594 H 0.56209 0.78633 0.01729 0.0
H595 H 0.49437 0.75991 0.98033 0.0
H596 H 0.49261 0.69263 0.98052 0.0
H597 H 0.49335 0.72655 -8e-05 0.0
H598 H 0.56309 0.76716 0.97 0.0
H599 H 0.56254 0.73292 0.95133 0.0
C600 C 0.54661 0.80673 0.02458 0.0
C601 C 0.52718 0.80874 0.02063 0.0
C602 C 0.54711 0.78769 0.01316 0.0
C603 C 0.52823 0.77035 0.99743 0.0
C604 C 0.50903 0.77269 0.99291 0.0
C605 C 0.50848 0.79159 0.00448 0.0
C606 C 0.50812 0.70877 0.97806 0.0
C607 C 0.52749 0.71008 0.96428 0.0
C608 C 0.50851 0.72828 0.98902 0.0
C609 C 0.52822 0.74963 0.98629 0.0
C610 C 0.54769 0.75095 0.97274 0.0
C611 C 0.54734 0.73135 0.96189 0.0
H612 H 0.71104 0.5016 0.5483 0.0
H613 H 0.73321 0.57302 0.53957 0.0
H614 H 0.74531 0.50773 0.52191 0.0
H615 H 0.76781 0.57919 0.51339 0.0
H616 H 0.8118 0.57248 0.43439 0.0
H617 H 0.77914 0.56917 0.46301 0.0
H618 H 0.78619 0.52643 0.53158 0.0
H619 H 0.81844 0.52941 0.50296 0.0
C620 C 0.72329 0.51865 0.54092 0.0
C621 C 0.7194 0.53682 0.54604 0.0
C622 C 0.743 0.52218 0.52594 0.0
C623 C 0.75928 0.54396 0.51568 0.0
C624 C 0.75546 0.56219 0.52084 0.0
C625 C 0.73573 0.55867 0.53598 0.0
C626 C 0.80645 0.56251 0.45568 0.0
C627 C 0.81758 0.55104 0.46622 0.0
C628 C 0.78783 0.5607 0.47213 0.0
C629 C 0.78 0.54738 0.49938 0.0
C630 C 0.79158 0.5365 0.51036 0.0
C631 C 0.81013 0.5383 0.49399 0.0
H632 H 0.26148 0.83083 0.95565 0.0
H633 H 0.30131 0.80089 0.98585 0.0
H634 H 0.22715 0.79761 0.97484 0.0
H635 H 0.26729 0.76819 0.00595 0.0
H636 H 0.20092 0.70234 0.00728 0.0
H637 H 0.23405 0.73589 0.98702 0.0
H638 H 0.2075 0.77781 0.02151 0.0
H639 H 0.17383 0.74396 0.04087 0.0
C640 C 0.26293 0.81726 0.96664 0.0
C641 C 0.28407 0.8184 0.96906 0.0
C642 C 0.24328 0.79827 0.97777 0.0
C643 C 0.24442 0.78013 0.99174 0.0
C644 C 0.26569 0.78159 0.99469 0.0
C645 C 0.28525 0.80043 0.98334 0.0
C646 C 0.2021 0.7187 0.01048 0.0
C647 C 0.18481 0.72052 0.02579 0.0
C648 C 0.22119 0.73798 0.99904 0.0
C649 C 0.22358 0.75961 0.00291 0.0
C650 C 0.20611 0.7614 0.01786 0.0
C651 C 0.18687 0.74203 0.02908 0.0
H652 H 0.42807 0.18597 0.57977 0.0
H653 H 0.42561 0.15366 0.49155 0.0
H654 H 0.43038 0.21828 0.5518 0.0
H655 H 0.42723 0.18562 0.4636 0.0
H656 H 0.466 0.25945 0.42896 0.0
H657 H 0.45672 0.22406 0.45481 0.0
H658 H 0.41184 0.23256 0.51792 0.0
H659 H 0.4216 0.26843 0.49247 0.0
C660 C 0.42754 0.18555 0.55442 0.0
C661 C 0.42697 0.16742 0.53786 0.0
C662 C 0.42876 0.20403 0.53837 0.0
C663 C 0.42927 0.20465 0.50544 0.0
C664 C 0.42738 0.18589 0.48896 0.0
C665 C 0.42634 0.16752 0.50498 0.0
C666 C 0.45402 0.25373 0.4482 0.0
C667 C 0.44468 0.26684 0.4588 0.0
C668 C 0.44855 0.23331 0.46288 0.0
C669 C 0.43352 0.22546 0.48845 0.0
C670 C 0.42368 0.23828 0.49854 0.0
C671 C 0.42921 0.25877 0.48386 0.0
H672 H 0.81701 0.54542 0.06371 0.0
H673 H 0.83298 0.53395 0.96987 0.0
H674 H 0.78323 0.54512 0.04404 0.0
H675 H 0.79936 0.53397 0.9502 0.0
H676 H 0.72273 0.5051 0.93616 0.0
H677 H 0.75814 0.50848 0.95453 0.0
H678 H 0.7708 0.56651 0.01067 0.0
H679 H 0.73512 0.56298 0.99259 0.0
C680 C 0.81345 0.54306 0.03884 0.0
C681 C 0.82761 0.53957 0.01837 0.0
C682 C 0.79415 0.54301 0.02756 0.0
C683 C 0.78858 0.5394 0.9956 0.0
C684 C 0.80305 0.53647 0.97503 0.0
C685 C 0.82238 0.53659 0.98628 0.0
C686 C 0.73305 0.51861 0.95238 0.0
C687 C 0.72608 0.53373 0.96298 0.0
C688 C 0.75344 0.52064 0.96273 0.0
C689 C 0.76729 0.5378 0.98397 0.0
C690 C 0.76038 0.553 0.9945 0.0
C691 C 0.74 0.55102 0.98405 0.0
H692 H 0.16918 0.69559 0.49087 0.0
H693 H 0.1733 0.74565 0.42478 0.0
H694 H 0.20136 0.72505 0.51943 0.0
H695 H 0.2058 0.77517 0.45335 0.0
H696 H 0.25037 0.82456 0.53064 0.0
H697 H 0.2162 0.79537 0.50466 0.0
H698 H 0.24228 0.74913 0.50945 0.0
H699 H 0.27625 0.7781 0.53564 0.0
C700 C 0.17692 0.71289 0.48244 0.0
C701 C 0.16875 0.71826 0.45543 0.0
C702 C 0.19543 0.72975 0.49876 0.0
C703 C 0.20618 0.75238 0.48852 0.0
C704 C 0.19773 0.75789 0.46192 0.0
C705 C 0.17921 0.74097 0.44548 0.0
C706 C 0.24874 0.80811 0.52633 0.0
C707 C 0.26602 0.80363 0.5352 0.0
C708 C 0.22924 0.79147 0.51127 0.0
C709 C 0.22658 0.76999 0.50501 0.0
C710 C 0.24373 0.76544 0.51428 0.0
C711 C 0.26324 0.78209 0.52916 0.0
H712 H 0.44194 0.1882 0.94044 0.0
H713 H 0.45691 0.16824 0.02934 0.0
H714 H 0.4435 0.22125 0.96526 0.0
H715 H 0.45815 0.20113 0.05417 0.0
H716 H 0.48899 0.2773 0.07524 0.0
H717 H 0.48399 0.24236 0.05218 0.0
H718 H 0.42411 0.23282 0.00377 0.0
H719 H 0.42927 0.26805 0.02656 0.0
C720 C 0.44532 0.19072 0.96534 0.0
C721 C 0.44946 0.17568 0.98288 0.0
C722 C 0.44609 0.2096 0.97957 0.0
C723 C 0.45109 0.21386 0.01162 0.0
C724 C 0.45459 0.19847 0.02933 0.0
C725 C 0.45375 0.17956 0.01512 0.0
C726 C 0.47472 0.26775 0.05974 0.0
C727 C 0.45956 0.27549 0.05267 0.0
C728 C 0.47176 0.24763 0.0467 0.0
C729 C 0.45361 0.2348 0.02623 0.0
C730 C 0.43837 0.24245 0.01926 0.0
C731 C 0.44127 0.26257 0.03242 0.0
H732 H 0.15987 0.42112 0.51674 0.0
H733 H 0.20824 0.49132 0.53718 0.0
H734 H 0.18931 0.41757 0.48875 0.0
H735 H 0.23738 0.48785 0.50893 0.0
H736 H 0.28978 0.46771 0.48742 0.0
H737 H 0.25928 0.46865 0.51562 0.0
H738 H 0.21285 0.43163 0.44052 0.0
H739 H 0.24347 0.43032 0.41226 0.0
C740 C 0.17675 0.43578 0.51524 0.0
C741 C 0.18176 0.45648 0.52928 0.0
C742 C 0.19354 0.43377 0.49906 0.0
C743 C 0.21566 0.4524 0.49677 0.0
C744 C 0.22058 0.47308 0.51071 0.0
C745 C 0.20384 0.4751 0.52678 0.0
C746 C 0.27307 0.45968 0.47687 0.0
C747 C 0.26909 0.44907 0.44745 0.0
C748 C 0.25562 0.46033 0.49301 0.0
C749 C 0.23374 0.45043 0.48015 0.0
C750 C 0.22953 0.4393 0.45109 0.0
C751 C 0.24708 0.43864 0.43486 0.0
H752 H 0.82929 0.2529 0.98035 0.0
H753 H 0.77902 0.26884 0.94641 0.0
H754 H 0.7995 0.21918 0.00639 0.0
H755 H 0.74942 0.23546 0.97282 0.0
H756 H 0.69893 0.16358 0.00012 0.0
H757 H 0.72966 0.19417 0.97081 0.0
H758 H 0.77373 0.21047 0.05111 0.0
H759 H 0.74307 0.17954 0.08035 0.0
C760 C 0.8119 0.24918 0.97836 0.0
C761 C 0.80652 0.26357 0.96136 0.0
C762 C 0.79487 0.22994 0.99341 0.0
C763 C 0.77212 0.22467 0.99169 0.0
C764 C 0.76674 0.23887 0.97426 0.0
C765 C 0.78374 0.25809 0.95926 0.0
C766 C 0.71521 0.17356 0.01149 0.0
C767 C 0.71851 0.16923 0.04266 0.0
C768 C 0.73279 0.19117 0.99472 0.0
C769 C 0.75406 0.20486 0.00872 0.0
C770 C 0.75758 0.2001 0.03958 0.0
C771 C 0.73998 0.18245 0.05638 0.0
H772 H 0.52286 0.82021 0.48467 0.0
H773 H 0.56805 0.81778 0.41555 0.0
H774 H 0.52115 0.78792 0.51151 0.0
H775 H 0.56588 0.78496 0.44218 0.0
H776 H 0.57371 0.74063 0.51722 0.0
H777 H 0.57702 0.77391 0.49057 0.0
H778 H 0.50515 0.74772 0.50312 0.0
H779 H 0.50193 0.71483 0.5303 0.0
C780 C 0.53238 0.81273 0.47511 0.0
C781 C 0.54553 0.82152 0.44788 0.0
C782 C 0.53129 0.79412 0.49043 0.0
C783 C 0.54324 0.78375 0.47886 0.0
C784 C 0.55664 0.7927 0.45184 0.0
C785 C 0.55779 0.81142 0.4365 0.0
C786 C 0.55864 0.74202 0.51433 0.0
C787 C 0.53757 0.72514 0.52599 0.0
C788 C 0.56051 0.76101 0.49889 0.0
C789 C 0.54136 0.76349 0.49481 0.0
C790 C 0.5203 0.74652 0.50633 0.0
C791 C 0.51844 0.72759 0.52178 0.0
H792 H 0.31462 0.3721 0.09689 0.0
H793 H 0.35291 0.41443 0.01888 0.0
H794 H 0.33394 0.35024 0.09102 0.0
H795 H 0.37253 0.393 0.01355 0.0
H796 H 0.39839 0.3444 0.00083 0.0
H797 H 0.37081 0.35742 0.00105 0.0
H798 H 0.37222 0.35884 0.10221 0.0
H799 H 0.39923 0.3454 0.10203 0.0
C800 C 0.32693 0.37657 0.07825 0.0
C801 C 0.33242 0.39519 0.05862 0.0
C802 C 0.33809 0.36412 0.075 0.0
C803 C 0.35498 0.37003 0.05206 0.0
C804 C 0.3595 0.38783 0.0313 0.0
C805 C 0.34833 0.40024 0.03451 0.0
C806 C 0.39257 0.3472 0.0231 0.0
C807 C 0.40118 0.34407 0.0514 0.0
C808 C 0.37683 0.35475 0.02322 0.0
C809 C 0.36938 0.35928 0.05163 0.0
C810 C 0.37733 0.35524 0.0799 0.0
C811 C 0.39301 0.34771 0.07978 0.0
H812 H 0.05066 0.41065 0.54146 0.0
H813 H 0.05409 0.3645 0.60783 0.0
H814 H 0.00961 0.38836 0.54209 0.0
H815 H 0.01275 0.34164 0.60771 0.0
H816 H 0.94168 0.33108 0.6341 0.0
H817 H 0.98227 0.34605 0.62815 0.0
H818 H 0.97648 0.35367 0.52865 0.0
H819 H 0.936 0.33945 0.53482 0.0
C820 C 0.04266 0.39547 0.55574 0.0
C821 C 0.05566 0.3895 0.57486 0.0
C822 C 0.01905 0.38255 0.55592 0.0
C823 C 0.00782 0.36323 0.57507 0.0
C824 C 0.02086 0.35662 0.59307 0.0
C825 C 0.04455 0.36965 0.593 0.0
C826 C 0.94902 0.33568 0.61089 0.0
C827 C 0.9357 0.33439 0.58501 0.0
C828 C 0.9723 0.34412 0.60743 0.0
C829 C 0.98271 0.35128 0.57795 0.0
C830 C 0.9691 0.34876 0.55179 0.0
C831 C 0.94587 0.34051 0.5553 0.0
H832 H 0.59167 0.93724 0.02269 0.0
H833 H 0.6124 0.941 0.11916 0.0
H834 H 0.61385 0.97845 0.01887 0.0
H835 H 0.63405 0.98221 0.1156 0.0
H836 H 0.67898 0.05708 0.0973 0.0
H837 H 0.66535 0.01641 0.09344 0.0
H838 H 0.60746 0.00753 0.0402 0.0
H839 H 0.62125 0.04796 0.04341 0.0
C840 C 0.6012 0.94684 0.04296 0.0
C841 C 0.59999 0.93587 0.07137 0.0
C842 C 0.61382 0.97047 0.04082 0.0
C843 C 0.6254 0.98366 0.06708 0.0
C844 C 0.62544 0.97259 0.09486 0.0
C845 C 0.61292 0.94893 0.09695 0.0
C846 C 0.6635 0.04646 0.08444 0.0
C847 C 0.65111 0.05573 0.07087 0.0
C848 C 0.65565 0.02315 0.08234 0.0
C849 C 0.6353 0.0087 0.06655 0.0
C850 C 0.62338 0.01817 0.05211 0.0
C851 C 0.6312 0.04138 0.05421 0.0
H852 H 0.63349 0.58108 0.55202 0.0
H853 H 0.68766 0.62931 0.61134 0.0
H854 H 0.61852 0.60669 0.54798 0.0
H855 H 0.67291 0.65539 0.60658 0.0
H856 H 0.61751 0.67534 0.62759 0.0
H857 H 0.64021 0.65678 0.62589 0.0
H858 H 0.62435 0.64197 0.52769 0.0
H859 H 0.60106 0.65988 0.52967 0.0
C860 C 0.64244 0.59734 0.56381 0.0
C861 C 0.66166 0.60306 0.58223 0.0
C862 C 0.63395 0.61215 0.56127 0.0
C863 C 0.64451 0.63314 0.57696 0.0
C864 C 0.66423 0.63924 0.5945 0.0
C865 C 0.67273 0.62434 0.5971 0.0
C866 C 0.6192 0.66849 0.60551 0.0
C867 C 0.6072 0.66874 0.5789 0.0
C868 C 0.63232 0.65793 0.60448 0.0
C869 C 0.63382 0.64758 0.57675 0.0
C870 C 0.62311 0.64931 0.5496 0.0
C871 C 0.60985 0.65967 0.5507 0.0
H872 H 0.94512 0.57496 0.04272 0.0
H873 H 0.93523 0.62349 0.09575 0.0
H874 H 0.98542 0.60187 0.03949 0.0
H875 H 0.97576 0.65084 0.09178 0.0
H876 H 0.05074 0.67363 0.11959 0.0
H877 H 0.00965 0.65407 0.11481 0.0
H878 H 0.01487 0.63707 0.0188 0.0
H879 H 0.05599 0.65606 0.0239 0.0
C880 C 0.95148 0.59155 0.05324 0.0
C881 C 0.93698 0.59697 0.06982 0.0
C882 C 0.97464 0.60711 0.05114 0.0
C883 C 0.98389 0.62854 0.06545 0.0
C884 C 0.96922 0.63436 0.08085 0.0
C885 C 0.94598 0.61873 0.083 0.0
C886 C 0.04317 0.66609 0.09727 0.0
C887 C 0.05661 0.66606 0.0723 0.0
C888 C 0.01956 0.65496 0.09447 0.0
C889 C 0.00891 0.6437 0.06655 0.0
C890 C 0.02251 0.64514 0.04085 0.0
C891 C 0.04609 0.65613 0.04373 0.0
H892 H 0.40586 0.04343 0.53258 0.0
H893 H 0.35502 0.04971 0.5853 0.0
H894 H 0.38218 0.0025 0.53313 0.0
H895 H 0.33083 0.00845 0.58505 0.0
H896 H 0.31543 0.93673 0.61878 0.0
H897 H 0.33164 0.97734 0.61073 0.0
H898 H 0.34829 0.97007 0.51531 0.0
H899 H 0.33278 0.92956 0.52375 0.0
C900 C 0.38942 0.03609 0.54382 0.0
C901 C 0.38244 0.04984 0.55921 0.0
C902 C 0.3757 0.01255 0.5439 0.0
C903 C 0.35459 0.00213 0.55921 0.0
C904 C 0.34714 0.01593 0.57341 0.0
C905 C 0.36094 0.03957 0.57342 0.0
C906 C 0.32222 0.94374 0.59593 0.0
C907 C 0.32318 0.93002 0.57207 0.0
C908 C 0.3314 0.96703 0.59124 0.0
C909 C 0.34154 0.97703 0.56248 0.0
C910 C 0.34107 0.96299 0.53796 0.0
C911 C 0.33209 0.93976 0.54275 0.0
H912 H 0.63159 0.68653 0.90529 0.0
H913 H 0.58335 0.63427 0.9669 0.0
H914 H 0.65703 0.67112 0.91083 0.0
H915 H 0.60814 0.61845 0.97145 0.0
H916 H 0.65768 0.59576 0.9854 0.0
H917 H 0.64209 0.62106 0.9894 0.0
H918 H 0.65718 0.63843 0.89156 0.0
H919 H 0.67362 0.61396 0.88803 0.0
C920 C 0.62652 0.67193 0.92028 0.0
C921 C 0.60532 0.66147 0.93533 0.0
C922 C 0.64103 0.663 0.92331 0.0
C923 C 0.63458 0.64337 0.94132 0.0
C924 C 0.6139 0.63373 0.9577 0.0
C925 C 0.59952 0.64272 0.95486 0.0
C926 C 0.65804 0.60533 0.96493 0.0
C927 C 0.66659 0.60263 0.93629 0.0
C928 C 0.64899 0.61975 0.96715 0.0
C929 C 0.648 0.63153 0.94068 0.0
C930 C 0.65782 0.62984 0.91254 0.0
C931 C 0.66713 0.61565 0.91044 0.0
H932 H 0.93482 0.58814 0.47764 0.0
H933 H 0.93882 0.61056 0.38203 0.0
H934 H 0.97579 0.612 0.48274 0.0
H935 H 0.97982 0.63371 0.38667 0.0
H936 H 0.05377 0.67988 0.4045 0.0
H937 H 0.01297 0.66512 0.40888 0.0
H938 H 0.00639 0.60837 0.46286 0.0
H939 H 0.04693 0.62341 0.45938 0.0
C940 C 0.94443 0.59834 0.45781 0.0
C941 C 0.93365 0.59722 0.42929 0.0
C942 C 0.96793 0.61194 0.46068 0.0
C943 C 0.98118 0.62449 0.43496 0.0
C944 C 0.97018 0.62444 0.40706 0.0
C945 C 0.94664 0.61103 0.40431 0.0
C946 C 0.04362 0.66446 0.41775 0.0
C947 C 0.05356 0.65269 0.4313 0.0
C948 C 0.02023 0.65594 0.42012 0.0
C949 C 0.00633 0.63547 0.43604 0.0
C950 C 0.01652 0.62434 0.4508 0.0
C951 C 0.03984 0.63288 0.44856 0.0
H952 H 0.41749 0.06093 0.95179 0.0
H953 H 0.366 0.06302 0.89503 0.0
H954 H 0.39456 0.01997 0.95499 0.0
H955 H 0.34255 0.02181 0.89908 0.0
H956 H 0.32818 0.94916 0.87352 0.0
H957 H 0.34391 0.98998 0.87756 0.0
H958 H 0.36128 0.9878 0.97435 0.0
H959 H 0.34625 0.94703 0.96993 0.0
C960 C 0.40105 0.05269 0.94049 0.0
C961 C 0.3937 0.06525 0.92285 0.0
C962 C 0.38776 0.02913 0.94254 0.0
C963 C 0.3667 0.01751 0.92718 0.0
C964 C 0.35885 0.03019 0.91079 0.0
C965 C 0.37222 0.05382 0.90861 0.0
C966 C 0.33504 0.95733 0.89581 0.0
C967 C 0.33629 0.94492 0.92126 0.0
C968 C 0.34395 0.98076 0.8982 0.0
C969 C 0.35412 0.99227 0.92619 0.0
C970 C 0.35402 0.97957 0.95224 0.0
C971 C 0.34531 0.95617 0.94976 0.0
H972 H 0.35471 0.41853 0.47126 0.0
H973 H 0.32846 0.38571 0.38214 0.0
H974 H 0.37043 0.39381 0.48068 0.0
H975 H 0.34485 0.36153 0.39104 0.0
H976 H 0.36841 0.31321 0.4206 0.0
H977 H 0.34549 0.33168 0.42055 0.0
H978 H 0.40202 0.39233 0.45924 0.0
H979 H 0.42453 0.37378 0.46016 0.0
C980 C 0.35216 0.40592 0.45378 0.0
C981 C 0.34061 0.40426 0.42578 0.0
C982 C 0.36125 0.39182 0.45911 0.0
C983 C 0.35921 0.37591 0.43642 0.0
C984 C 0.3466 0.37345 0.40915 0.0
C985 C 0.33731 0.38742 0.40394 0.0
C986 C 0.37579 0.33038 0.4295 0.0
C987 C 0.39834 0.34208 0.44017 0.0
C988 C 0.3627 0.34099 0.42932 0.0
C989 C 0.37192 0.36352 0.43977 0.0
C990 C 0.39421 0.37486 0.45147 0.0
C991 C 0.40722 0.36426 0.45176 0.0
H992 H 0.05668 0.37033 0.9072 0.0
H993 H 0.04721 0.4185 0.96181 0.0
H994 H 0.01594 0.34362 0.90956 0.0
H995 H 0.0067 0.39226 0.96338 0.0
H996 H 0.93522 0.33862 0.97543 0.0
H997 H 0.97621 0.35713 0.98197 0.0
H998 H 0.983 0.34168 0.88573 0.0
H999 H 0.94201 0.32253 0.87956 0.0
C1000 C 0.04596 0.37513 0.91998 0.0
C1001 C 0.05516 0.39663 0.93405 0.0
C1002 C 0.02261 0.35988 0.92118 0.0
C1003 C 0.008 0.36583 0.93646 0.0
C1004 C 0.01741 0.38693 0.95176 0.0
C1005 C 0.0407 0.4021 0.95065 0.0
C1006 C 0.94545 0.33885 0.95583 0.0
C1007 C 0.93541 0.32938 0.92685 0.0
C1008 C 0.96895 0.34955 0.95954 0.0
C1009 C 0.98295 0.3512 0.93425 0.0
C1010 C 0.97276 0.34057 0.9058 0.0
C1011 C 0.94923 0.3297 0.90218 0.0
H1012 H 0.60592 0.9442 0.36839 0.0
H1013 H 0.58771 0.93655 0.46636 0.0
H1014 H 0.63116 0.98468 0.37627 0.0
H1015 H 0.61359 0.97694 0.47453 0.0
H1016 H 0.62795 0.05038 0.46114 0.0
H1017 H 0.61111 0.00948 0.46037 0.0
H1018 H 0.66453 0.01574 0.39909 0.0
H1019 H 0.68112 0.05695 0.39912 0.0
C1020 C 0.60774 0.95106 0.39178 0.0
C1021 C 0.59451 0.93727 0.41663 0.0
C1022 C 0.62235 0.97429 0.39637 0.0
C1023 C 0.62417 0.98415 0.42597 0.0
C1024 C 0.61219 0.96999 0.45128 0.0
C1025 C 0.59743 0.94682 0.44663 0.0
C1026 C 0.63633 0.04312 0.44782 0.0
C1027 C 0.65572 0.05693 0.42986 0.0
C1028 C 0.62675 0.01959 0.44759 0.0
C1029 C 0.63639 0.00925 0.42954 0.0
C1030 C 0.65649 0.02314 0.41287 0.0
C1031 C 0.66606 0.04676 0.41302 0.0
H1032 H 0.45684 0.58612 0.90746 0.0
H1033 H 0.49467 0.60956 0.99388 0.0
H1034 H 0.4259 0.55457 0.93553 0.0
H1035 H 0.46366 0.57823 0.02186 0.0
H1036 H 0.41526 0.50463 0.05246 0.0
H1037 H 0.44586 0.53664 0.02482 0.0
H1038 H 0.39675 0.54757 0.97545 0.0
H1039 H 0.36607 0.51538 0.00282 0.0
C1040 C 0.45853 0.5846 0.93243 0.0
C1041 C 0.47824 0.60033 0.9484 0.0
C1042 C 0.44076 0.56661 0.94853 0.0
C1043 C 0.44237 0.56392 0.98089 0.0
C1044 C 0.46204 0.57969 0.99686 0.0
C1045 C 0.47975 0.59771 0.98082 0.0
C1046 C 0.41097 0.51389 0.03578 0.0
C1047 C 0.38823 0.50744 0.02982 0.0
C1048 C 0.42852 0.53229 0.02005 0.0
C1049 C 0.4237 0.5446 0.99793 0.0
C1050 C 0.40097 0.53824 0.9921 0.0
C1051 C 0.38341 0.5199 0.00794 0.0
H1052 H 0.85074 0.3735 0.52347 0.0
H1053 H 0.92238 0.41687 0.54128 0.0
H1054 H 0.84986 0.40461 0.49645 0.0
H1055 H 0.92138 0.44808 0.51484 0.0
H1056 H 0.91647 0.49193 0.43797 0.0
H1057 H 0.91684 0.45983 0.46281 0.0
H1058 H 0.85297 0.44103 0.50786 0.0
H1059 H 0.85234 0.47278 0.48256 0.0
C1060 C 0.86628 0.38969 0.52175 0.0
C1061 C 0.88663 0.39269 0.53453 0.0
C1062 C 0.86575 0.40756 0.50638 0.0
C1063 C 0.88556 0.42883 0.50345 0.0
C1064 C 0.9059 0.43182 0.51628 0.0
C1065 C 0.90643 0.41396 0.53163 0.0
C1066 C 0.90245 0.48088 0.45304 0.0
C1067 C 0.8844 0.48494 0.45831 0.0
C1068 C 0.90274 0.46257 0.46744 0.0
C1069 C 0.88498 0.44792 0.48742 0.0
C1070 C 0.86678 0.45183 0.49233 0.0
C1071 C 0.86649 0.47012 0.47794 0.0
H1072 H 0.4232 0.90359 0.91806 0.0
H1073 H 0.37866 0.87468 0.99778 0.0
H1074 H 0.45327 0.90159 0.9466 0.0
H1075 H 0.40869 0.87266 0.02614 0.0
H1076 H 0.47661 0.89682 0.07762 0.0
H1077 H 0.44678 0.8993 0.04919 0.0
H1078 H 0.46072 0.87131 0.96697 0.0
H1079 H 0.49056 0.86885 0.99524 0.0
C1080 C 0.41983 0.89683 0.94164 0.0
C1081 C 0.39855 0.8893 0.95564 0.0
C1082 C 0.437 0.89558 0.95791 0.0
C1083 C 0.43331 0.88698 0.98859 0.0
C1084 C 0.41209 0.87959 0.00264 0.0
C1085 C 0.39487 0.88064 0.98631 0.0
C1086 C 0.4733 0.89118 0.05349 0.0
C1087 C 0.48596 0.88264 0.0387 0.0
C1088 C 0.45617 0.89251 0.03727 0.0
C1089 C 0.45147 0.88554 0.00585 0.0
C1090 C 0.46414 0.87704 0.99106 0.0
C1091 C 0.48112 0.87551 0.00734 0.0
H1092 H 0.52509 0.41944 0.43308 0.0
H1093 H 0.51099 0.37095 0.50726 0.0
H1094 H 0.55621 0.44867 0.46378 0.0
H1095 H 0.5422 0.40026 0.53791 0.0
H1096 H 0.57901 0.46745 0.59576 0.0
H1097 H 0.54974 0.43632 0.56494 0.0
H1098 H 0.59434 0.45808 0.48472 0.0
H1099 H 0.62358 0.48921 0.51535 0.0
C1100 C 0.52873 0.41498 0.45583 0.0
C1101 C 0.51553 0.39291 0.46778 0.0
C1102 C 0.54662 0.43169 0.47333 0.0
C1103 C 0.55156 0.42674 0.50326 0.0
C1104 C 0.53861 0.40459 0.51503 0.0
C1105 C 0.52084 0.3878 0.49739 0.0
C1106 C 0.58262 0.46552 0.57161 0.0
C1107 C 0.60357 0.48087 0.55797 0.0
C1108 C 0.56591 0.44763 0.55403 0.0
C1109 C 0.56976 0.44485 0.52242 0.0
C1110 C 0.59083 0.45997 0.50894 0.0
C1111 C 0.6076 0.47773 0.52656 0.0
H1112 H 0.13842 0.52609 0.97629 0.0
H1113 H 0.06903 0.50185 0.94815 0.0
H1114 H 0.13912 0.55822 0.00275 0.0
H1115 H 0.06989 0.53416 0.97418 0.0
H1116 H 0.07163 0.58049 0.05312 0.0
H1117 H 0.07137 0.54838 0.02727 0.0
H1118 H 0.13851 0.59308 0.99082 0.0
H1119 H 0.13897 0.62513 0.01707 0.0
C1120 C 0.12337 0.52768 0.97558 0.0
C1121 C 0.10366 0.51139 0.96013 0.0
C1122 C 0.1238 0.54615 0.99064 0.0
C1123 C 0.10454 0.54871 0.99064 0.0
C1124 C 0.0849 0.5325 0.97499 0.0
C1125 C 0.08447 0.51406 0.95989 0.0
C1126 C 0.08637 0.58347 0.03968 0.0
C1127 C 0.1053 0.60538 0.03715 0.0
C1128 C 0.08615 0.56508 0.0247 0.0
C1129 C 0.10489 0.5682 0.00691 0.0
C1130 C 0.12391 0.59008 0.00462 0.0
C1131 C 0.12411 0.60846 0.01955 0.0
H1132 H 0.51424 0.10143 0.57406 0.0
H1133 H 0.49695 0.12723 0.49245 0.0
H1134 H 0.54628 0.10323 0.54579 0.0
H1135 H 0.52906 0.12912 0.46433 0.0
H1136 H 0.57101 0.1012 0.41523 0.0
H1137 H 0.53986 0.1015 0.44323 0.0
H1138 H 0.58348 0.13215 0.52324 0.0
H1139 H 0.61458 0.13177 0.49543 0.0
C1140 C 0.51733 0.10759 0.55017 0.0
C1141 C 0.50302 0.11414 0.5355 0.0
C1142 C 0.53574 0.10872 0.53404 0.0
C1143 C 0.54013 0.11627 0.50284 0.0
C1144 C 0.52594 0.123 0.48825 0.0
C1145 C 0.50764 0.12204 0.50444 0.0
C1146 C 0.57399 0.10809 0.43873 0.0
C1147 C 0.59525 0.1164 0.45312 0.0
C1148 C 0.55618 0.10836 0.4547 0.0
C1149 C 0.55924 0.11678 0.48545 0.0
C1150 C 0.58056 0.12531 0.4997 0.0
C1151 C 0.5984 0.12521 0.48367 0.0
H1152 H 0.52051 0.42165 0.09156 0.0
H1153 H 0.50508 0.37892 0.00982 0.0
H1154 H 0.55262 0.45243 0.06391 0.0
H1155 H 0.53704 0.40982 0.98216 0.0
H1156 H 0.57902 0.48097 0.93511 0.0
H1157 H 0.54722 0.4498 0.96266 0.0
H1158 H 0.59085 0.45923 0.04137 0.0
H1159 H 0.62275 0.49025 0.01378 0.0
C1160 C 0.52394 0.41885 0.0677 0.0
C1161 C 0.51028 0.39787 0.05286 0.0
C1162 C 0.54237 0.43641 0.05196 0.0
C1163 C 0.54726 0.43346 0.02093 0.0
C1164 C 0.53353 0.41256 0.00601 0.0
C1165 C 0.51532 0.39487 0.0219 0.0
C1166 C 0.58184 0.47637 0.95826 0.0
C1167 C 0.60338 0.48806 0.97228 0.0
C1168 C 0.56367 0.45848 0.97394 0.0
C1169 C 0.56661 0.45217 0.00412 0.0
C1170 C 0.58811 0.46388 0.0182 0.0
C1171 C 0.60637 0.48154 0.00233 0.0
H1172 H 0.12113 0.58943 0.43879 0.0
H1173 H 0.10835 0.60824 0.53006 0.0
H1174 H 0.1203 0.55615 0.46165 0.0
H1175 H 0.10789 0.57521 0.5529 0.0
H1176 H 0.08241 0.50026 0.57487 0.0
H1177 H 0.08387 0.53384 0.55218 0.0
H1178 H 0.14233 0.54622 0.49733 0.0
H1179 H 0.14069 0.51244 0.51963 0.0
C1180 C 0.11825 0.58653 0.46373 0.0
C1181 C 0.11475 0.60145 0.48259 0.0
C1182 C 0.1179 0.56753 0.47684 0.0
C1183 C 0.11399 0.56304 0.50907 0.0
C1184 C 0.11064 0.57804 0.52793 0.0
C1185 C 0.11103 0.59704 0.51484 0.0
C1186 C 0.0956 0.51015 0.55801 0.0
C1187 C 0.11141 0.50366 0.54902 0.0
C1188 C 0.09651 0.52946 0.54513 0.0
C1189 C 0.11321 0.54267 0.52296 0.0
C1190 C 0.12909 0.53623 0.51407 0.0
C1191 C 0.12822 0.51695 0.527 0.0
H1192 H 0.59169 0.12839 0.05386 0.0
H1193 H 0.60775 0.10843 0.96569 0.0
H1194 H 0.55977 0.12923 0.02918 0.0
H1195 H 0.57611 0.10961 0.94101 0.0
H1196 H 0.50203 0.08796 0.9185 0.0
H1197 H 0.53463 0.08823 0.94249 0.0
H1198 H 0.55173 0.15086 0.99008 0.0
H1199 H 0.51888 0.15044 0.96644 0.0
C1200 C 0.58848 0.12428 0.0292 0.0
C1201 C 0.60223 0.11828 0.01176 0.0
C1202 C 0.57028 0.12489 0.01503 0.0
C1203 C 0.5654 0.11946 0.98315 0.0
C1204 C 0.57924 0.1136 0.96571 0.0
C1205 C 0.59746 0.11304 0.97984 0.0
C1206 C 0.51277 0.10185 0.93398 0.0
C1207 C 0.50784 0.11917 0.94058 0.0
C1208 C 0.53153 0.10205 0.94762 0.0
C1209 C 0.54575 0.11956 0.96821 0.0
C1210 C 0.54093 0.13699 0.97461 0.0
C1211 C 0.5222 0.13682 0.96089 0.0
H1212 H 0.50688 0.61779 0.49924 0.0
H1213 H 0.45631 0.60907 0.56766 0.0
H1214 H 0.47829 0.58517 0.47018 0.0
H1215 H 0.42781 0.57619 0.53882 0.0
H1216 H 0.37811 0.53284 0.46257 0.0
H1217 H 0.40698 0.56662 0.48935 0.0
H1218 H 0.45545 0.54397 0.47571 0.0
H1219 H 0.4267 0.51034 0.44842 0.0
C1220 C 0.48968 0.6089 0.50813 0.0
C1221 C 0.48388 0.61604 0.5358 0.0
C1222 C 0.47332 0.59012 0.49154 0.0
C1223 C 0.45079 0.57808 0.50219 0.0
C1224 C 0.44496 0.58528 0.52978 0.0
C1225 C 0.46133 0.60405 0.54641 0.0
C1226 C 0.39496 0.53511 0.46511 0.0
C1227 C 0.40009 0.51886 0.45341 0.0
C1228 C 0.41146 0.5544 0.48066 0.0
C1229 C 0.43347 0.55792 0.48481 0.0
C1230 C 0.43871 0.54187 0.47262 0.0
C1231 C 0.4222 0.52254 0.4571 0.0
H1232 H 0.8506 0.35991 0.99637 0.0
H1233 H 0.90219 0.41096 0.93676 0.0
H1234 H 0.84832 0.38953 0.02565 0.0
H1235 H 0.89996 0.44053 0.9662 0.0
H1236 H 0.87255 0.48475 0.00568 0.0
H1237 H 0.87285 0.45435 0.9758 0.0
H1238 H 0.87293 0.42112 0.06189 0.0
H1239 H 0.87248 0.45146 0.09192 0.0
C1240 C 0.86141 0.37743 0.98945 0.0
C1241 C 0.87661 0.38309 0.96425 0.0
C1242 C 0.86018 0.39439 0.00635 0.0
C1243 C 0.87398 0.41734 0.99825 0.0
C1244 C 0.88896 0.42297 0.9728 0.0
C1245 C 0.89031 0.40603 0.95604 0.0
C1246 C 0.87253 0.47092 0.01829 0.0
C1247 C 0.87255 0.47055 0.05121 0.0
C1248 C 0.87283 0.45358 0.00113 0.0
C1249 C 0.87299 0.4354 0.0165 0.0
C1250 C 0.87261 0.43482 0.0494 0.0
C1251 C 0.87247 0.45225 0.06659 0.0
H1252 H 0.44465 0.85954 0.40928 0.0
H1253 H 0.48928 0.88448 0.48947 0.0
H1254 H 0.41527 0.86181 0.43916 0.0
H1255 H 0.45979 0.88632 0.51942 0.0
H1256 H 0.4104 0.90952 0.55186 0.0
H1257 H 0.4399 0.90779 0.52162 0.0
H1258 H 0.38988 0.84303 0.48341 0.0
H1259 H 0.36031 0.84491 0.5132 0.0
C1260 C 0.44818 0.86545 0.43328 0.0
C1261 C 0.4693 0.87182 0.44697 0.0
C1262 C 0.4313 0.86663 0.45046 0.0
C1263 C 0.43519 0.87421 0.48168 0.0
C1264 C 0.45636 0.88067 0.49531 0.0
C1265 C 0.47321 0.8795 0.47816 0.0
C1266 C 0.40569 0.89489 0.53705 0.0
C1267 C 0.383 0.87737 0.53493 0.0
C1268 C 0.42262 0.89386 0.51983 0.0
C1269 C 0.41722 0.87529 0.50007 0.0
C1270 C 0.39454 0.85771 0.49808 0.0
C1271 C 0.37762 0.85873 0.51533 0.0
loop_
_geom_bond_atom_site_label_1
_geom_bond_atom_site_label_2
_geom_bond_distance
_geom_bond_site_symmetry_2
_ccdc_geom_bond_type
C0 O1 1.160 . S
C0 O7 1.185 . S
O1 C0 1.160 . S
O2 Zn3 1.899 . S
O2 C10 1.284 . S
Zn3 O2 1.899 . S
Zn3 O4 2.032 . S
Zn3 O7 2.086 . S
Zn3 O12 1.977 . S
O4 Zn3 2.032 . S
O4 C8 1.278 . S
C5 O6 1.203 . S
C5 O12 1.267 . S
O6 C5 1.203 . S
O7 C0 1.185 . S
O7 Zn3 2.086 . S
C8 O4 1.278 . S
C8 O9 1.211 . S
O9 C8 1.211 . S
C10 O2 1.284 . S
C10 O11 1.273 . S
O11 C10 1.273 . S
O12 Zn3 1.977 . S
O12 C5 1.267 . S
C13 O14 1.160 . S
C13 O20 1.185 . S
O14 C13 1.160 . S
O15 Zn16 1.899 . S
O15 C23 1.284 . S
Zn16 O15 1.899 . S
Zn16 O17 2.032 . S
Zn16 O20 2.086 . S
Zn16 O25 1.977 . S
O17 Zn16 2.032 . S
O17 C21 1.278 . S
C18 O19 1.203 . S
C18 O25 1.267 . S
O19 C18 1.203 . S
O20 C13 1.185 . S
O20 Zn16 2.086 . S
C21 O17 1.278 . S
C21 O22 1.211 . S
O22 C21 1.211 . S
C23 O15 1.284 . S
C23 O24 1.273 . S
O24 C23 1.273 . S
O25 Zn16 1.977 . S
O25 C18 1.267 . S
C26 O27 1.160 . S
C26 O33 1.185 . S
O27 C26 1.160 . S
O28 Zn29 1.899 . S
O28 C36 1.284 . S
Zn29 O28 1.899 . S
Zn29 O30 2.032 . S
Zn29 O33 2.086 . S
Zn29 O38 1.977 . S
O30 Zn29 2.032 . S
O30 C34 1.278 . S
C31 O32 1.203 . S
C31 O38 1.267 . S
O32 C31 1.203 . S
O33 C26 1.185 . S
O33 Zn29 2.086 . S
C34 O30 1.278 . S
C34 O35 1.211 . S
O35 C34 1.211 . S
C36 O28 1.284 . S
C36 O37 1.273 . S
O37 C36 1.273 . S
O38 Zn29 1.977 . S
O38 C31 1.267 . S
C39 O40 1.160 . S
C39 O46 1.185 . S
O40 C39 1.160 . S
O41 Zn42 1.899 . S
O41 C49 1.284 . S
Zn42 O41 1.899 . S
Zn42 O43 2.032 . S
Zn42 O46 2.086 . S
Zn42 O51 1.977 . S
O43 Zn42 2.032 . S
O43 C47 1.278 . S
C44 O45 1.203 . S
C44 O51 1.267 . S
O45 C44 1.203 . S
O46 C39 1.185 . S
O46 Zn42 2.086 . S
C47 O43 1.278 . S
C47 O48 1.211 . S
O48 C47 1.211 . S
C49 O41 1.284 . S
C49 O50 1.273 . S
O50 C49 1.273 . S
O51 Zn42 1.977 . S
O51 C44 1.267 . S
C52 O53 1.160 . S
C52 O59 1.185 . S
O53 C52 1.160 . S
O54 Zn55 1.899 . S
O54 C62 1.284 . S
Zn55 O54 1.899 . S
Zn55 O56 2.032 . S
Zn55 O59 2.086 . S
Zn55 O64 1.977 . S
O56 Zn55 2.032 . S
O56 C60 1.278 . S
C57 O58 1.203 . S
C57 O64 1.267 . S
O58 C57 1.203 . S
O59 C52 1.185 . S
O59 Zn55 2.086 . S
C60 O56 1.278 . S
C60 O61 1.211 . S
O61 C60 1.211 . S
C62 O54 1.284 . S
C62 O63 1.273 . S
O63 C62 1.273 . S
O64 Zn55 1.977 . S
O64 C57 1.267 . S
C65 O66 1.160 . S
C65 O72 1.185 . S
O66 C65 1.160 . S
O67 Zn68 1.899 . S
O67 C75 1.284 . S
Zn68 O67 1.899 . S
Zn68 O69 2.032 . S
Zn68 O72 2.086 . S
Zn68 O77 1.977 . S
O69 Zn68 2.032 . S
O69 C73 1.278 . S
C70 O71 1.203 . S
C70 O77 1.267 . S
O71 C70 1.203 . S
O72 C65 1.185 . S
O72 Zn68 2.086 . S
C73 O69 1.278 . S
C73 O74 1.211 . S
O74 C73 1.211 . S
C75 O67 1.284 . S
C75 O76 1.273 . S
O76 C75 1.273 . S
O77 Zn68 1.977 . S
O77 C70 1.267 . S
C78 O79 1.160 . S
C78 O85 1.185 . S
O79 C78 1.160 . S
O80 Zn81 1.899 . S
O80 C88 1.284 . S
Zn81 O80 1.899 . S
Zn81 O82 2.032 . S
Zn81 O85 2.086 . S
Zn81 O90 1.977 . S
O82 Zn81 2.032 . S
O82 C86 1.278 . S
C83 O84 1.203 . S
C83 O90 1.267 . S
O84 C83 1.203 . S
O85 C78 1.185 . S
O85 Zn81 2.086 . S
C86 O82 1.278 . S
C86 O87 1.211 . S
O87 C86 1.211 . S
C88 O80 1.284 . S
C88 O89 1.273 . S
O89 C88 1.273 . S
O90 Zn81 1.977 . S
O90 C83 1.267 . S
C91 O92 1.160 . S
C91 O98 1.185 . S
O92 C91 1.160 . S
O93 Zn94 1.899 . S
O93 C101 1.284 . S
Zn94 O93 1.899 . S
Zn94 O95 2.032 . S
Zn94 O98 2.086 . S
Zn94 O103 1.977 . S
O95 Zn94 2.032 . S
O95 C99 1.278 . S
C96 O97 1.203 . S
C96 O103 1.267 . S
O97 C96 1.203 . S
O98 C91 1.185 . S
O98 Zn94 2.086 . S
C99 O95 1.278 . S
C99 O100 1.211 . S
O100 C99 1.211 . S
C101 O93 1.284 . S
C101 O102 1.273 . S
O102 C101 1.273 . S
O103 Zn94 1.977 . S
O103 C96 1.267 . S
C104 O105 1.160 . S
C104 O111 1.185 . S
O105 C104 1.160 . S
O106 Zn107 1.899 . S
O106 C114 1.284 . S
Zn107 O106 1.899 . S
Zn107 O108 2.032 . S
Zn107 O111 2.086 . S
Zn107 O116 1.977 . S
O108 Zn107 2.032 . S
O108 C112 1.278 . S
C109 O110 1.203 . S
C109 O116 1.267 . S
O110 C109 1.203 . S
O111 C104 1.185 . S
O111 Zn107 2.086 . S
C112 O108 1.278 . S
C112 O113 1.211 . S
O113 C112 1.211 . S
C114 O106 1.284 . S
C114 O115 1.273 . S
O115 C114 1.273 . S
O116 Zn107 1.977 . S
O116 C109 1.267 . S
C117 O118 1.160 . S
C117 O124 1.185 . S
O118 C117 1.160 . S
O119 Zn120 1.899 . S
O119 C127 1.284 . S
Zn120 O119 1.899 . S
Zn120 O121 2.032 . S
Zn120 O124 2.086 . S
Zn120 O129 1.977 . S
O121 Zn120 2.032 . S
O121 C125 1.278 . S
C122 O123 1.203 . S
C122 O129 1.267 . S
O123 C122 1.203 . S
O124 C117 1.185 . S
O124 Zn120 2.086 . S
C125 O121 1.278 . S
C125 O126 1.211 . S
O126 C125 1.211 . S
C127 O119 1.284 . S
C127 O128 1.273 . S
O128 C127 1.273 . S
O129 Zn120 1.977 . S
O129 C122 1.267 . S
C130 O131 1.160 . S
C130 O137 1.185 . S
O131 C130 1.160 . S
O132 Zn133 1.899 . S
O132 C140 1.284 . S
Zn133 O132 1.899 . S
Zn133 O134 2.032 . S
Zn133 O137 2.086 . S
Zn133 O142 1.977 . S
O134 Zn133 2.032 . S
O134 C138 1.278 . S
C135 O136 1.203 . S
C135 O142 1.267 . S
O136 C135 1.203 . S
O137 C130 1.185 . S
O137 Zn133 2.086 . S
C138 O134 1.278 . S
C138 O139 1.211 . S
O139 C138 1.211 . S
C140 O132 1.284 . S
C140 O141 1.273 . S
O141 C140 1.273 . S
O142 Zn133 1.977 . S
O142 C135 1.267 . S
C143 O144 1.160 . S
C143 O150 1.185 . S
O144 C143 1.160 . S
O145 Zn146 1.899 . S
O145 C153 1.284 . S
Zn146 O145 1.899 . S
Zn146 O147 2.032 . S
Zn146 O150 2.086 . S
Zn146 O155 1.977 . S
O147 Zn146 2.032 . S
O147 C151 1.278 . S
C148 O149 1.203 . S
C148 O155 1.267 . S
O149 C148 1.203 . S
O150 C143 1.185 . S
O150 Zn146 2.086 . S
C151 O147 1.278 . S
C151 O152 1.211 . S
O152 C151 1.211 . S
C153 O145 1.284 . S
C153 O154 1.273 . S
O154 C153 1.273 . S
O155 Zn146 1.977 . S
O155 C148 1.267 . S
C156 O157 1.160 . S
C156 O163 1.185 . S
O157 C156 1.160 . S
O158 Zn159 1.899 . S
O158 C166 1.284 . S
Zn159 O158 1.899 . S
Zn159 O160 2.032 . S
Zn159 O163 2.086 . S
Zn159 O168 1.977 . S
O160 Zn159 2.032 . S
O160 C164 1.278 . S
C161 O162 1.203 . S
C161 O168 1.267 . S
O162 C161 1.203 . S
O163 C156 1.185 . S
O163 Zn159 2.086 . S
C164 O160 1.278 . S
C164 O165 1.211 . S
O165 C164 1.211 . S
C166 O158 1.284 . S
C166 O167 1.273 . S
O167 C166 1.273 . S
O168 Zn159 1.977 . S
O168 C161 1.267 . S
C169 O170 1.160 . S
C169 O176 1.185 . S
O170 C169 1.160 . S
O171 Zn172 1.899 . S
O171 C179 1.284 . S
Zn172 O171 1.899 . S
Zn172 O173 2.032 . S
Zn172 O176 2.086 . S
Zn172 O181 1.977 . S
O173 Zn172 2.032 . S
O173 C177 1.278 . S
C174 O175 1.203 . S
C174 O181 1.267 . S
O175 C174 1.203 . S
O176 C169 1.185 . S
O176 Zn172 2.086 . S
C177 O173 1.278 . S
C177 O178 1.211 . S
O178 C177 1.211 . S
C179 O171 1.284 . S
C179 O180 1.273 . S
O180 C179 1.273 . S
O181 Zn172 1.977 . S
O181 C174 1.267 . S
C182 O183 1.160 . S
C182 O189 1.185 . S
O183 C182 1.160 . S
O184 Zn185 1.899 . S
O184 C192 1.284 . S
Zn185 O184 1.899 . S
Zn185 O186 2.032 . S
Zn185 O189 2.086 . S
Zn185 O194 1.977 . S
O186 Zn185 2.032 . S
O186 C190 1.278 . S
C187 O188 1.203 . S
C187 O194 1.267 . S
O188 C187 1.203 . S
O189 C182 1.185 . S
O189 Zn185 2.086 . S
C190 O186 1.278 . S
C190 O191 1.211 . S
O191 C190 1.211 . S
C192 O184 1.284 . S
C192 O193 1.273 . S
O193 C192 1.273 . S
O194 Zn185 1.977 . S
O194 C187 1.267 . S
C195 O196 1.160 . S
C195 O202 1.185 . S
O196 C195 1.160 . S
O197 Zn198 1.899 . S
O197 C205 1.284 . S
Zn198 O197 1.899 . S
Zn198 O199 2.032 . S
Zn198 O202 2.086 . S
Zn198 O207 1.977 . S
O199 Zn198 2.032 . S
O199 C203 1.278 . S
C200 O201 1.203 . S
C200 O207 1.267 . S
O201 C200 1.203 . S
O202 C195 1.185 . S
O202 Zn198 2.086 . S
C203 O199 1.278 . S
C203 O204 1.211 . S
O204 C203 1.211 . S
C205 O197 1.284 . S
C205 O206 1.273 . S
O206 C205 1.273 . S
O207 Zn198 1.977 . S
O207 C200 1.267 . S
C208 O209 1.160 . S
C208 O215 1.185 . S
O209 C208 1.160 . S
O210 Zn211 1.899 . S
O210 C218 1.284 . S
Zn211 O210 1.899 . S
Zn211 O212 2.032 . S
Zn211 O215 2.086 . S
Zn211 O220 1.977 . S
O212 Zn211 2.032 . S
O212 C216 1.278 . S
C213 O214 1.203 . S
C213 O220 1.267 . S
O214 C213 1.203 . S
O215 C208 1.185 . S
O215 Zn211 2.086 . S
C216 O212 1.278 . S
C216 O217 1.211 . S
O217 C216 1.211 . S
C218 O210 1.284 . S
C218 O219 1.273 . S
O219 C218 1.273 . S
O220 Zn211 1.977 . S
O220 C213 1.267 . S
C221 O222 1.160 . S
C221 O228 1.185 . S
O222 C221 1.160 . S
O223 Zn224 1.899 . S
O223 C231 1.284 . S
Zn224 O223 1.899 . S
Zn224 O225 2.032 . S
Zn224 O228 2.086 . S
Zn224 O233 1.977 . S
O225 Zn224 2.032 . S
O225 C229 1.278 . S
C226 O227 1.203 . S
C226 O233 1.267 . S
O227 C226 1.203 . S
O228 C221 1.185 . S
O228 Zn224 2.086 . S
C229 O225 1.278 . S
C229 O230 1.211 . S
O230 C229 1.211 . S
C231 O223 1.284 . S
C231 O232 1.273 . S
O232 C231 1.273 . S
O233 Zn224 1.977 . S
O233 C226 1.267 . S
C234 O235 1.160 . S
C234 O241 1.185 . S
O235 C234 1.160 . S
O236 Zn237 1.899 . S
O236 C244 1.284 . S
Zn237 O236 1.899 . S
Zn237 O238 2.032 . S
Zn237 O241 2.086 . S
Zn237 O246 1.977 . S
O238 Zn237 2.032 . S
O238 C242 1.278 . S
C239 O240 1.203 . S
C239 O246 1.267 . S
O240 C239 1.203 . S
O241 C234 1.185 . S
O241 Zn237 2.086 . S
C242 O238 1.278 . S
C242 O243 1.211 . S
O243 C242 1.211 . S
C244 O236 1.284 . S
C244 O245 1.273 . S
O245 C244 1.273 . S
O246 Zn237 1.977 . S
O246 C239 1.267 . S
C247 O248 1.160 . S
C247 O254 1.185 . S
O248 C247 1.160 . S
O249 Zn250 1.899 . S
O249 C257 1.284 . S
Zn250 O249 1.899 . S
Zn250 O251 2.032 . S
Zn250 O254 2.086 . S
Zn250 O259 1.977 . S
O251 Zn250 2.032 . S
O251 C255 1.278 . S
C252 O253 1.203 . S
C252 O259 1.267 . S
O253 C252 1.203 . S
O254 C247 1.185 . S
O254 Zn250 2.086 . S
C255 O251 1.278 . S
C255 O256 1.211 . S
O256 C255 1.211 . S
C257 O249 1.284 . S
C257 O258 1.273 . S
O258 C257 1.273 . S
O259 Zn250 1.977 . S
O259 C252 1.267 . S
C260 O261 1.160 . S
C260 O267 1.185 . S
O261 C260 1.160 . S
O262 Zn263 1.899 . S
O262 C270 1.284 . S
Zn263 O262 1.899 . S
Zn263 O264 2.032 . S
Zn263 O267 2.086 . S
Zn263 O272 1.977 . S
O264 Zn263 2.032 . S
O264 C268 1.278 . S
C265 O266 1.203 . S
C265 O272 1.267 . S
O266 C265 1.203 . S
O267 C260 1.185 . S
O267 Zn263 2.086 . S
C268 O264 1.278 . S
C268 O269 1.211 . S
O269 C268 1.211 . S
C270 O262 1.284 . S
C270 O271 1.273 . S
O271 C270 1.273 . S
O272 Zn263 1.977 . S
O272 C265 1.267 . S
C273 O274 1.160 . S
C273 O280 1.185 . S
O274 C273 1.160 . S
O275 Zn276 1.899 . S
O275 C283 1.284 . S
Zn276 O275 1.899 . S
Zn276 O277 2.032 . S
Zn276 O280 2.086 . S
Zn276 O285 1.977 . S
O277 Zn276 2.032 . S
O277 C281 1.278 . S
C278 O279 1.203 . S
C278 O285 1.267 . S
O279 C278 1.203 . S
O280 C273 1.185 . S
O280 Zn276 2.086 . S
C281 O277 1.278 . S
C281 O282 1.211 . S
O282 C281 1.211 . S
C283 O275 1.284 . S
C283 O284 1.273 . S
O284 C283 1.273 . S
O285 Zn276 1.977 . S
O285 C278 1.267 . S
C286 O287 1.160 . S
C286 O293 1.185 . S
O287 C286 1.160 . S
O288 Zn289 1.899 . S
O288 C296 1.284 . S
Zn289 O288 1.899 . S
Zn289 O290 2.032 . S
Zn289 O293 2.086 . S
Zn289 O298 1.977 . S
O290 Zn289 2.032 . S
O290 C294 1.278 . S
C291 O292 1.203 . S
C291 O298 1.267 . S
O292 C291 1.203 . S
O293 C286 1.185 . S
O293 Zn289 2.086 . S
C294 O290 1.278 . S
C294 O295 1.211 . S
O295 C294 1.211 . S
C296 O288 1.284 . S
C296 O297 1.273 . S
O297 C296 1.273 . S
O298 Zn289 1.977 . S
O298 C291 1.267 . S
C299 O300 1.160 . S
C299 O306 1.185 . S
O300 C299 1.160 . S
O301 Zn302 1.899 . S
O301 C309 1.284 . S
Zn302 O301 1.899 . S
Zn302 O303 2.032 . S
Zn302 O306 2.086 . S
Zn302 O311 1.977 . S
O303 Zn302 2.032 . S
O303 C307 1.278 . S
C304 O305 1.203 . S
C304 O311 1.267 . S
O305 C304 1.203 . S
O306 C299 1.185 . S
O306 Zn302 2.086 . S
C307 O303 1.278 . S
C307 O308 1.211 . S
O308 C307 1.211 . S
C309 O301 1.284 . S
C309 O310 1.273 . S
O310 C309 1.273 . S
O311 Zn302 1.977 . S
O311 C304 1.267 . S
H312 C320 0.950 . S
H313 C325 0.950 . S
H314 C322 0.950 . S
H315 C324 0.950 . S
H316 C326 0.950 . S
H317 C328 0.950 . S
H318 C330 0.950 . S
H319 C331 0.950 . S
C320 H312 0.950 . S
C320 C321 1.386 . S
C320 C322 1.391 . S
C321 C320 1.386 . S
C321 C325 1.393 . S
C322 H314 0.950 . S
C322 C320 1.391 . S
C322 C323 1.400 . S
C323 C322 1.400 . S
C323 C324 1.398 . S
C323 C329 1.491 . S
C324 H315 0.950 . S
C324 C323 1.398 . S
C324 C325 1.391 . S
C325 H313 0.950 . S
C325 C321 1.393 . S
C325 C324 1.391 . S
C326 H316 0.950 . S
C326 C327 1.386 . S
C326 C328 1.391 . S
C327 C326 1.386 . S
C327 C331 1.393 . S
C328 H317 0.950 . S
C328 C326 1.391 . S
C328 C329 1.400 . S
C329 C323 1.491 . S
C329 C328 1.400 . S
C329 C330 1.398 . S
C330 H318 0.950 . S
C330 C329 1.398 . S
C330 C331 1.391 . S
C331 H319 0.950 . S
C331 C327 1.393 . S
C331 C330 1.391 . S
H332 C340 0.950 . S
H333 C345 0.950 . S
H334 C342 0.950 . S
H335 C344 0.950 . S
H336 C346 0.950 . S
H337 C348 0.950 . S
H338 C350 0.950 . S
H339 C351 0.950 . S
C340 H332 0.950 . S
C340 C341 1.386 . S
C340 C342 1.391 . S
C341 C340 1.386 . S
C341 C345 1.393 . S
C342 H334 0.950 . S
C342 C340 1.391 . S
C342 C343 1.400 . S
C343 C342 1.400 . S
C343 C344 1.398 . S
C343 C349 1.491 . S
C344 H335 0.950 . S
C344 C343 1.398 . S
C344 C345 1.391 . S
C345 H333 0.950 . S
C345 C341 1.393 . S
C345 C344 1.391 . S
C346 H336 0.950 . S
C346 C347 1.386 . S
C346 C348 1.391 . S
C347 C346 1.386 . S
C347 C351 1.393 . S
C348 H337 0.950 . S
C348 C346 1.391 . S
C348 C349 1.400 . S
C349 C343 1.491 . S
C349 C348 1.400 . S
C349 C350 1.398 . S
C350 H338 0.950 . S
C350 C349 1.398 . S
C350 C351 1.391 . S
C351 H339 0.950 . S
C351 C347 1.393 . S
C351 C350 1.391 . S
H352 C360 0.950 . S
H353 C365 0.950 . S
H354 C362 0.950 . S
H355 C364 0.950 . S
H356 C366 0.950 . S
H357 C368 0.950 . S
H358 C370 0.950 . S
H359 C371 0.950 . S
C360 H352 0.950 . S
C360 C361 1.386 . S
C360 C362 1.391 . S
C361 C360 1.386 . S
C361 C365 1.393 . S
C362 H354 0.950 . S
C362 C360 1.391 . S
C362 C363 1.400 . S
C363 C362 1.400 . S
C363 C364 1.398 . S
C363 C369 1.491 . S
C364 H355 0.950 . S
C364 C363 1.398 . S
C364 C365 1.391 . S
C365 H353 0.950 . S
C365 C361 1.393 . S
C365 C364 1.391 . S
C366 H356 0.950 . S
C366 C367 1.386 . S
C366 C368 1.391 . S
C367 C366 1.386 . S
C367 C371 1.393 . S
C368 H357 0.950 . S
C368 C366 1.391 . S
C368 C369 1.400 . S
C369 C363 1.491 . S
C369 C368 1.400 . S
C369 C370 1.398 . S
C370 H358 0.950 . S
C370 C369 1.398 . S
C370 C371 1.391 . S
C371 H359 0.950 . S
C371 C367 1.393 . S
C371 C370 1.391 . S
H372 C380 0.950 . S
H373 C385 0.950 . S
H374 C382 0.950 . S
H375 C384 0.950 . S
H376 C386 0.950 . S
H377 C388 0.950 . S
H378 C390 0.950 . S
H379 C391 0.950 . S
C380 H372 0.950 . S
C380 C381 1.386 . S
C380 C382 1.391 . S
C381 C380 1.386 . S
C381 C385 1.393 . S
C382 H374 0.950 . S
C382 C380 1.391 . S
C382 C383 1.400 . S
C383 C382 1.400 . S
C383 C384 1.398 . S
C383 C389 1.491 . S
C384 H375 0.950 . S
C384 C383 1.398 . S
C384 C385 1.391 . S
C385 H373 0.950 . S
C385 C381 1.393 . S
C385 C384 1.391 . S
C386 H376 0.950 . S
C386 C387 1.386 . S
C386 C388 1.391 . S
C387 C386 1.386 . S
C387 C391 1.393 . S
C388 H377 0.950 . S
C388 C386 1.391 . S
C388 C389 1.400 . S
C389 C383 1.491 . S
C389 C388 1.400 . S
C389 C390 1.398 . S
C390 H378 0.950 . S
C390 C389 1.398 . S
C390 C391 1.391 . S
C391 H379 0.950 . S
C391 C387 1.393 . S
C391 C390 1.391 . S
H392 C400 0.950 . S
H393 C405 0.950 . S
H394 C402 0.950 . S
H395 C404 0.950 . S
H396 C406 0.950 . S
H397 C408 0.950 . S
H398 C410 0.950 . S
H399 C411 0.950 . S
C400 H392 0.950 . S
C400 C401 1.386 . S
C400 C402 1.391 . S
C401 C400 1.386 . S
C401 C405 1.393 . S
C402 H394 0.950 . S
C402 C400 1.391 . S
C402 C403 1.400 . S
C403 C402 1.400 . S
C403 C404 1.398 . S
C403 C409 1.491 . S
C404 H395 0.950 . S
C404 C403 1.398 . S
C404 C405 1.391 . S
C405 H393 0.950 . S
C405 C401 1.393 . S
C405 C404 1.391 . S
C406 H396 0.950 . S
C406 C407 1.386 . S
C406 C408 1.391 . S
C407 C406 1.386 . S
C407 C411 1.393 . S
C408 H397 0.950 . S
C408 C406 1.391 . S
C408 C409 1.400 . S
C409 C403 1.491 . S
C409 C408 1.400 . S
C409 C410 1.398 . S
C410 H398 0.950 . S
C410 C409 1.398 . S
C410 C411 1.391 . S
C411 H399 0.950 . S
C411 C407 1.393 . S
C411 C410 1.391 . S
H412 C420 0.950 . S
H413 C425 0.950 . S
H414 C422 0.950 . S
H415 C424 0.950 . S
H416 C426 0.950 . S
H417 C428 0.950 . S
H418 C430 0.950 . S
H419 C431 0.950 . S
C420 H412 0.950 . S
C420 C421 1.386 . S
C420 C422 1.391 . S
C421 C420 1.386 . S
C421 C425 1.393 . S
C422 H414 0.950 . S
C422 C420 1.391 . S
C422 C423 1.400 . S
C423 C422 1.400 . S
C423 C424 1.398 . S
C423 C429 1.491 . S
C424 H415 0.950 . S
C424 C423 1.398 . S
C424 C425 1.391 . S
C425 H413 0.950 . S
C425 C421 1.393 . S
C425 C424 1.391 . S
C426 H416 0.950 . S
C426 C427 1.386 . S
C426 C428 1.391 . S
C427 C426 1.386 . S
C427 C431 1.393 . S
C428 H417 0.950 . S
C428 C426 1.391 . S
C428 C429 1.400 . S
C429 C423 1.491 . S
C429 C428 1.400 . S
C429 C430 1.398 . S
C430 H418 0.950 . S
C430 C429 1.398 . S
C430 C431 1.391 . S
C431 H419 0.950 . S
C431 C427 1.393 . S
C431 C430 1.391 . S
H432 C440 0.950 . S
H433 C445 0.950 . S
H434 C442 0.950 . S
H435 C444 0.950 . S
H436 C446 0.950 . S
H437 C448 0.950 . S
H438 C450 0.950 . S
H439 C451 0.950 . S
C440 H432 0.950 . S
C440 C441 1.386 . S
C440 C442 1.391 . S
C441 C440 1.386 . S
C441 C445 1.393 . S
C442 H434 0.950 . S
C442 C440 1.391 . S
C442 C443 1.400 . S
C443 C442 1.400 . S
C443 C444 1.398 . S
C443 C449 1.491 . S
C444 H435 0.950 . S
C444 C443 1.398 . S
C444 C445 1.391 . S
C445 H433 0.950 . S
C445 C441 1.393 . S
C445 C444 1.391 . S
C446 H436 0.950 . S
C446 C447 1.386 . S
C446 C448 1.391 . S
C447 C446 1.386 . S
C447 C451 1.393 . S
C448 H437 0.950 . S
C448 C446 1.391 . S
C448 C449 1.400 . S
C449 C443 1.491 . S
C449 C448 1.400 . S
C449 C450 1.398 . S
C450 H438 0.950 . S
C450 C449 1.398 . S
C450 C451 1.391 . S
C451 H439 0.950 . S
C451 C447 1.393 . S
C451 C450 1.391 . S
H452 C460 0.950 . S
H453 C465 0.950 . S
H454 C462 0.950 . S
H455 C464 0.950 . S
H456 C466 0.950 . S
H457 C468 0.950 . S
H458 C470 0.950 . S
H459 C471 0.950 . S
C460 H452 0.950 . S
C460 C461 1.386 . S
C460 C462 1.391 . S
C461 C460 1.386 . S
C461 C465 1.393 . S
C462 H454 0.950 . S
C462 C460 1.391 . S
C462 C463 1.400 . S
C463 C462 1.400 . S
C463 C464 1.398 . S
C463 C469 1.491 . S
C464 H455 0.950 . S
C464 C463 1.398 . S
C464 C465 1.391 . S
C465 H453 0.950 . S
C465 C461 1.393 . S
C465 C464 1.391 . S
C466 H456 0.950 . S
C466 C467 1.386 . S
C466 C468 1.391 . S
C467 C466 1.386 . S
C467 C471 1.393 . S
C468 H457 0.950 . S
C468 C466 1.391 . S
C468 C469 1.400 . S
C469 C463 1.491 . S
C469 C468 1.400 . S
C469 C470 1.398 . S
C470 H458 0.950 . S
C470 C469 1.398 . S
C470 C471 1.391 . S
C471 H459 0.950 . S
C471 C467 1.393 . S
C471 C470 1.391 . S
H472 C480 0.950 . S
H473 C485 0.950 . S
H474 C482 0.950 . S
H475 C484 0.950 . S
H476 C486 0.950 . S
H477 C488 0.950 . S
H478 C490 0.950 . S
H479 C491 0.950 . S
C480 H472 0.950 . S
C480 C481 1.386 . S
C480 C482 1.391 . S
C481 C480 1.386 . S
C481 C485 1.393 . S
C482 H474 0.950 . S
C482 C480 1.391 . S
C482 C483 1.400 . S
C483 C482 1.400 . S
C483 C484 1.398 . S
C483 C489 1.491 . S
C484 H475 0.950 . S
C484 C483 1.398 . S
C484 C485 1.391 . S
C485 H473 0.950 . S
C485 C481 1.393 . S
C485 C484 1.391 . S
C486 H476 0.950 . S
C486 C487 1.386 . S
C486 C488 1.391 . S
C487 C486 1.386 . S
C487 C491 1.393 . S
C488 H477 0.950 . S
C488 C486 1.391 . S
C488 C489 1.400 . S
C489 C483 1.491 . S
C489 C488 1.400 . S
C489 C490 1.398 . S
C490 H478 0.950 . S
C490 C489 1.398 . S
C490 C491 1.391 . S
C491 H479 0.950 . S
C491 C487 1.393 . S
C491 C490 1.391 . S
H492 C500 0.950 . S
H493 C505 0.950 . S
H494 C502 0.950 . S
H495 C504 0.950 . S
H496 C506 0.950 . S
H497 C508 0.950 . S
H498 C510 0.950 . S
H499 C511 0.950 . S
C500 H492 0.950 . S
C500 C501 1.386 . S
C500 C502 1.391 . S
C501 C500 1.386 . S
C501 C505 1.393 . S
C502 H494 0.950 . S
C502 C500 1.391 . S
C502 C503 1.400 . S
C503 C502 1.400 . S
C503 C504 1.398 . S
C503 C509 1.491 . S
C504 H495 0.950 . S
C504 C503 1.398 . S
C504 C505 1.391 . S
C505 H493 0.950 . S
C505 C501 1.393 . S
C505 C504 1.391 . S
C506 H496 0.950 . S
C506 C507 1.386 . S
C506 C508 1.391 . S
C507 C506 1.386 . S
C507 C511 1.393 . S
C508 H497 0.950 . S
C508 C506 1.391 . S
C508 C509 1.400 . S
C509 C503 1.491 . S
C509 C508 1.400 . S
C509 C510 1.398 . S
C510 H498 0.950 . S
C510 C509 1.398 . S
C510 C511 1.391 . S
C511 H499 0.950 . S
C511 C507 1.393 . S
C511 C510 1.391 . S
H512 C520 0.950 . S
H513 C525 0.950 . S
H514 C522 0.950 . S
H515 C524 0.950 . S
H516 C526 0.950 . S
H517 C528 0.950 . S
H518 C530 0.950 . S
H519 C531 0.950 . S
C520 H512 0.950 . S
C520 C521 1.386 . S
C520 C522 1.391 . S
C521 C520 1.386 . S
C521 C525 1.393 . S
C522 H514 0.950 . S
C522 C520 1.391 . S
C522 C523 1.400 . S
C523 C522 1.400 . S
C523 C524 1.398 . S
C523 C529 1.491 . S
C524 H515 0.950 . S
C524 C523 1.398 . S
C524 C525 1.391 . S
C525 H513 0.950 . S
C525 C521 1.393 . S
C525 C524 1.391 . S
C526 H516 0.950 . S
C526 C527 1.386 . S
C526 C528 1.391 . S
C527 C526 1.386 . S
C527 C531 1.393 . S
C528 H517 0.950 . S
C528 C526 1.391 . S
C528 C529 1.400 . S
C529 C523 1.491 . S
C529 C528 1.400 . S
C529 C530 1.398 . S
C530 H518 0.950 . S
C530 C529 1.398 . S
C530 C531 1.391 . S
C531 H519 0.950 . S
C531 C527 1.393 . S
C531 C530 1.391 . S
H532 C540 0.950 . S
H533 C545 0.950 . S
H534 C542 0.950 . S
H535 C544 0.950 . S
H536 C546 0.950 . S
H537 C548 0.950 . S
H538 C550 0.950 . S
H539 C551 0.950 . S
C540 H532 0.950 . S
C540 C541 1.386 . S
C540 C542 1.391 . S
C541 C540 1.386 . S
C541 C545 1.393 . S
C542 H534 0.950 . S
C542 C540 1.391 . S
C542 C543 1.400 . S
C543 C542 1.400 . S
C543 C544 1.398 . S
C543 C549 1.491 . S
C544 H535 0.950 . S
C544 C543 1.398 . S
C544 C545 1.391 . S
C545 H533 0.950 . S
C545 C541 1.393 . S
C545 C544 1.391 . S
C546 H536 0.950 . S
C546 C547 1.386 . S
C546 C548 1.391 . S
C547 C546 1.386 . S
C547 C551 1.393 . S
C548 H537 0.950 . S
C548 C546 1.391 . S
C548 C549 1.400 . S
C549 C543 1.491 . S
C549 C548 1.400 . S
C549 C550 1.398 . S
C550 H538 0.950 . S
C550 C549 1.398 . S
C550 C551 1.391 . S
C551 H539 0.950 . S
C551 C547 1.393 . S
C551 C550 1.391 . S
H552 C560 0.950 . S
H553 C565 0.950 . S
H554 C562 0.950 . S
H555 C564 0.952 . S
H556 C566 0.950 . S
H557 C568 0.950 . S
H558 C570 0.952 . S
H559 C571 0.950 . S
C560 H552 0.950 . S
C560 C561 1.386 . S
C560 C562 1.391 . S
C561 C560 1.386 . S
C561 C565 1.393 . S
C562 H554 0.950 . S
C562 C560 1.391 . S
C562 C563 1.400 . S
C563 C562 1.400 . S
C563 C564 1.398 . S
C563 C569 1.491 1_556 S
C564 H555 0.952 . S
C564 C563 1.398 . S
C564 C565 1.391 . S
C565 H553 0.950 . S
C565 C561 1.393 . S
C565 C564 1.391 . S
C566 H556 0.950 . S
C566 C567 1.386 . S
C566 C568 1.391 . S
C567 C566 1.386 . S
C567 C571 1.393 . S
C568 H557 0.950 . S
C568 C566 1.391 . S
C568 C569 1.400 . S
C569 C563 1.491 1_554 S
C569 C568 1.400 . S
C569 C570 1.398 . S
C570 H558 0.952 . S
C570 C569 1.398 . S
C570 C571 1.391 . S
C571 H559 0.950 . S
C571 C567 1.393 . S
C571 C570 1.391 . S
H572 C580 0.950 . S
H573 C585 0.950 . S
H574 C582 0.950 . S
H575 C584 0.950 . S
H576 C586 0.950 . S
H577 C588 0.950 . S
H578 C590 0.950 . S
H579 C591 0.950 . S
C580 H572 0.950 . S
C580 C581 1.386 . S
C580 C582 1.391 . S
C581 C580 1.386 . S
C581 C585 1.393 . S
C582 H574 0.950 . S
C582 C580 1.391 . S
C582 C583 1.400 . S
C583 C582 1.400 . S
C583 C584 1.398 . S
C583 C589 1.491 . S
C584 H575 0.950 . S
C584 C583 1.398 . S
C584 C585 1.391 . S
C585 H573 0.950 . S
C585 C581 1.393 . S
C585 C584 1.391 . S
C586 H576 0.950 . S
C586 C587 1.386 . S
C586 C588 1.391 . S
C587 C586 1.386 . S
C587 C591 1.393 . S
C588 H577 0.950 . S
C588 C586 1.391 . S
C588 C589 1.400 . S
C589 C583 1.491 . S
C589 C588 1.400 . S
C589 C590 1.398 . S
C590 H578 0.950 . S
C590 C589 1.398 . S
C590 C591 1.391 . S
C591 H579 0.950 . S
C591 C587 1.393 . S
C591 C590 1.391 . S
H592 C600 0.950 . S
H593 C605 0.950 . S
H594 C602 0.950 1_556 S
H595 C604 0.950 . S
H596 C606 0.950 . S
H597 C608 0.950 1_554 S
H598 C610 0.950 . S
H599 C611 0.950 . S
C600 H592 0.950 . S
C600 C601 1.386 . S
C600 C602 1.391 . S
C601 C600 1.386 . S
C601 C605 1.393 . S
C602 H594 0.950 1_554 S
C602 C600 1.391 . S
C602 C603 1.400 . S
C603 C602 1.400 . S
C603 C604 1.398 . S
C603 C609 1.491 1_554 S
C604 H595 0.950 . S
C604 C603 1.398 . S
C604 C605 1.391 . S
C605 H593 0.950 . S
C605 C601 1.393 . S
C605 C604 1.391 . S
C606 H596 0.950 . S
C606 C607 1.386 . S
C606 C608 1.391 . S
C607 C606 1.386 . S
C607 C611 1.393 . S
C608 H597 0.950 1_556 S
C608 C606 1.391 . S
C608 C609 1.400 . S
C609 C603 1.491 1_556 S
C609 C608 1.400 . S
C609 C610 1.398 . S
C610 H598 0.950 . S
C610 C609 1.398 . S
C610 C611 1.391 . S
C611 H599 0.950 . S
C611 C607 1.393 . S
C611 C610 1.391 . S
H612 C620 0.950 . S
H613 C625 0.950 . S
H614 C622 0.950 . S
H615 C624 0.950 . S
H616 C626 0.950 . S
H617 C628 0.950 . S
H618 C630 0.950 . S
H619 C631 0.950 . S
C620 H612 0.950 . S
C620 C621 1.386 . S
C620 C622 1.391 . S
C621 C620 1.386 . S
C621 C625 1.393 . S
C622 H614 0.950 . S
C622 C620 1.391 . S
C622 C623 1.400 . S
C623 C622 1.400 . S
C623 C624 1.398 . S
C623 C629 1.491 . S
C624 H615 0.950 . S
C624 C623 1.398 . S
C624 C625 1.391 . S
C625 H613 0.950 . S
C625 C621 1.393 . S
C625 C624 1.391 . S
C626 H616 0.950 . S
C626 C627 1.386 . S
C626 C628 1.391 . S
C627 C626 1.386 . S
C627 C631 1.393 . S
C628 H617 0.950 . S
C628 C626 1.391 . S
C628 C629 1.400 . S
C629 C623 1.491 . S
C629 C628 1.400 . S
C629 C630 1.398 . S
C630 H618 0.950 . S
C630 C629 1.398 . S
C630 C631 1.391 . S
C631 H619 0.950 . S
C631 C627 1.393 . S
C631 C630 1.391 . S
H632 C640 0.950 . S
H633 C645 0.950 . S
H634 C642 0.950 . S
H635 C644 0.950 . S
H636 C646 0.950 . S
H637 C648 0.950 . S
H638 C650 0.950 . S
H639 C651 0.950 . S
C640 H632 0.950 . S
C640 C641 1.386 . S
C640 C642 1.391 . S
C641 C640 1.386 . S
C641 C645 1.393 . S
C642 H634 0.950 . S
C642 C640 1.391 . S
C642 C643 1.400 . S
C643 C642 1.400 . S
C643 C644 1.398 . S
C643 C649 1.491 1_556 S
C644 H635 0.950 . S
C644 C643 1.398 . S
C644 C645 1.391 . S
C645 H633 0.950 . S
C645 C641 1.393 . S
C645 C644 1.391 . S
C646 H636 0.950 . S
C646 C647 1.386 . S
C646 C648 1.391 . S
C647 C646 1.386 . S
C647 C651 1.393 . S
C648 H637 0.950 . S
C648 C646 1.391 . S
C648 C649 1.400 . S
C649 C643 1.491 1_554 S
C649 C648 1.400 . S
C649 C650 1.398 . S
C650 H638 0.950 . S
C650 C649 1.398 . S
C650 C651 1.391 . S
C651 H639 0.950 . S
C651 C647 1.393 . S
C651 C650 1.391 . S
H652 C660 0.950 . S
H653 C665 0.950 . S
H654 C662 0.950 . S
H655 C664 0.950 . S
H656 C666 0.950 . S
H657 C668 0.950 . S
H658 C670 0.950 . S
H659 C671 0.950 . S
C660 H652 0.950 . S
C660 C661 1.386 . S
C660 C662 1.391 . S
C661 C660 1.386 . S
C661 C665 1.393 . S
C662 H654 0.950 . S
C662 C660 1.391 . S
C662 C663 1.400 . S
C663 C662 1.400 . S
C663 C664 1.398 . S
C663 C669 1.491 . S
C664 H655 0.950 . S
C664 C663 1.398 . S
C664 C665 1.391 . S
C665 H653 0.950 . S
C665 C661 1.393 . S
C665 C664 1.391 . S
C666 H656 0.950 . S
C666 C667 1.386 . S
C666 C668 1.391 . S
C667 C666 1.386 . S
C667 C671 1.393 . S
C668 H657 0.950 . S
C668 C666 1.391 . S
C668 C669 1.400 . S
C669 C663 1.491 . S
C669 C668 1.400 . S
C669 C670 1.398 . S
C670 H658 0.950 . S
C670 C669 1.398 . S
C670 C671 1.391 . S
C671 H659 0.950 . S
C671 C667 1.393 . S
C671 C670 1.391 . S
H672 C680 0.950 . S
H673 C685 0.950 . S
H674 C682 0.950 . S
H675 C684 0.950 1_556 S
H676 C686 0.950 . S
H677 C688 0.950 . S
H678 C690 0.950 1_554 S
H679 C691 0.950 . S
C680 H672 0.950 . S
C680 C681 1.386 . S
C680 C682 1.391 . S
C681 C680 1.386 . S
C681 C685 1.393 . S
C682 H674 0.950 . S
C682 C680 1.391 . S
C682 C683 1.400 . S
C683 C682 1.400 . S
C683 C684 1.398 . S
C683 C689 1.491 1_554 S
C684 H675 0.950 1_554 S
C684 C683 1.398 . S
C684 C685 1.391 . S
C685 H673 0.950 . S
C685 C681 1.393 . S
C685 C684 1.391 . S
C686 H676 0.950 . S
C686 C687 1.386 . S
C686 C688 1.391 . S
C687 C686 1.386 . S
C687 C691 1.393 . S
C688 H677 0.950 . S
C688 C686 1.391 . S
C688 C689 1.400 . S
C689 C683 1.491 1_556 S
C689 C688 1.400 . S
C689 C690 1.398 . S
C690 H678 0.950 1_556 S
C690 C689 1.398 . S
C690 C691 1.391 . S
C691 H679 0.950 . S
C691 C687 1.393 . S
C691 C690 1.391 . S
H692 C700 0.950 . S
H693 C705 0.950 . S
H694 C702 0.950 . S
H695 C704 0.950 . S
H696 C706 0.950 . S
H697 C708 0.950 . S
H698 C710 0.950 . S
H699 C711 0.950 . S
C700 H692 0.950 . S
C700 C701 1.386 . S
C700 C702 1.391 . S
C701 C700 1.386 . S
C701 C705 1.393 . S
C702 H694 0.950 . S
C702 C700 1.391 . S
C702 C703 1.400 . S
C703 C702 1.400 . S
C703 C704 1.398 . S
C703 C709 1.491 . S
C704 H695 0.950 . S
C704 C703 1.398 . S
C704 C705 1.391 . S
C705 H693 0.950 . S
C705 C701 1.393 . S
C705 C704 1.391 . S
C706 H696 0.950 . S
C706 C707 1.386 . S
C706 C708 1.391 . S
C707 C706 1.386 . S
C707 C711 1.393 . S
C708 H697 0.950 . S
C708 C706 1.391 . S
C708 C709 1.400 . S
C709 C703 1.491 . S
C709 C708 1.400 . S
C709 C710 1.398 . S
C710 H698 0.950 . S
C710 C709 1.398 . S
C710 C711 1.391 . S
C711 H699 0.950 . S
C711 C707 1.393 . S
C711 C710 1.391 . S
H712 C720 0.950 . S
H713 C725 0.950 . S
H714 C722 0.950 . S
H715 C724 0.940 1_554 S
H716 C726 0.950 . S
H717 C728 0.950 . S
H718 C730 0.940 1_556 S
H719 C731 0.950 . S
C720 H712 0.950 . S
C720 C721 1.386 . S
C720 C722 1.391 . S
C721 C720 1.386 . S
C721 C725 1.393 . S
C722 H714 0.950 . S
C722 C720 1.391 . S
C722 C723 1.400 . S
C723 C722 1.400 . S
C723 C724 1.401 . S
C723 C729 1.491 1_556 S
C724 H715 0.940 1_556 S
C724 C723 1.401 . S
C724 C725 1.397 . S
C725 H713 0.950 . S
C725 C721 1.393 . S
C725 C724 1.397 . S
C726 H716 0.950 . S
C726 C727 1.386 . S
C726 C728 1.391 . S
C727 C726 1.386 . S
C727 C731 1.393 . S
C728 H717 0.950 . S
C728 C726 1.391 . S
C728 C729 1.400 . S
C729 C723 1.491 1_554 S
C729 C728 1.400 . S
C729 C730 1.401 . S
C730 H718 0.940 1_554 S
C730 C729 1.401 . S
C730 C731 1.398 . S
C731 H719 0.950 . S
C731 C727 1.393 . S
C731 C730 1.398 . S
H732 C740 0.950 . S
H733 C745 0.950 . S
H734 C742 0.950 . S
H735 C744 0.950 . S
H736 C746 0.950 . S
H737 C748 0.950 . S
H738 C750 0.950 . S
H739 C751 0.950 . S
C740 H732 0.950 . S
C740 C741 1.386 . S
C740 C742 1.391 . S
C741 C740 1.386 . S
C741 C745 1.393 . S
C742 H734 0.950 . S
C742 C740 1.391 . S
C742 C743 1.400 . S
C743 C742 1.400 . S
C743 C744 1.398 . S
C743 C749 1.491 . S
C744 H735 0.950 . S
C744 C743 1.398 . S
C744 C745 1.391 . S
C745 H733 0.950 . S
C745 C741 1.393 . S
C745 C744 1.391 . S
C746 H736 0.950 . S
C746 C747 1.386 . S
C746 C748 1.391 . S
C747 C746 1.386 . S
C747 C751 1.393 . S
C748 H737 0.950 . S
C748 C746 1.391 . S
C748 C749 1.400 . S
C749 C743 1.491 . S
C749 C748 1.400 . S
C749 C750 1.398 . S
C750 H738 0.950 . S
C750 C749 1.398 . S
C750 C751 1.391 . S
C751 H739 0.950 . S
C751 C747 1.393 . S
C751 C750 1.391 . S
H752 C760 0.950 . S
H753 C765 0.950 . S
H754 C762 0.950 . S
H755 C764 0.950 . S
H756 C766 0.950 . S
H757 C768 0.950 . S
H758 C770 0.950 . S
H759 C771 0.950 . S
C760 H752 0.950 . S
C760 C761 1.386 . S
C760 C762 1.391 1_556 S
C761 C760 1.386 . S
C761 C765 1.393 . S
C762 H754 0.950 . S
C762 C760 1.391 1_554 S
C762 C763 1.400 1_554 S
C763 C762 1.400 1_556 S
C763 C764 1.398 . S
C763 C769 1.491 1_556 S
C764 H755 0.950 . S
C764 C763 1.398 . S
C764 C765 1.391 . S
C765 H753 0.950 . S
C765 C761 1.393 . S
C765 C764 1.391 . S
C766 H756 0.950 . S
C766 C767 1.386 . S
C766 C768 1.391 1_554 S
C767 C766 1.386 . S
C767 C771 1.393 . S
C768 H757 0.950 . S
C768 C766 1.391 1_556 S
C768 C769 1.400 1_556 S
C769 C763 1.491 1_554 S
C769 C768 1.400 1_554 S
C769 C770 1.398 . S
C770 H758 0.950 . S
C770 C769 1.398 . S
C770 C771 1.391 . S
C771 H759 0.950 . S
C771 C767 1.393 . S
C771 C770 1.391 . S
H772 C780 0.950 . S
H773 C785 0.950 . S
H774 C782 0.950 . S
H775 C784 0.950 . S
H776 C786 0.950 . S
H777 C788 0.950 . S
H778 C790 0.950 . S
H779 C791 0.950 . S
C780 H772 0.950 . S
C780 C781 1.386 . S
C780 C782 1.391 . S
C781 C780 1.386 . S
C781 C785 1.393 . S
C782 H774 0.950 . S
C782 C780 1.391 . S
C782 C783 1.400 . S
C783 C782 1.400 . S
C783 C784 1.398 . S
C783 C789 1.491 . S
C784 H775 0.950 . S
C784 C783 1.398 . S
C784 C785 1.391 . S
C785 H773 0.950 . S
C785 C781 1.393 . S
C785 C784 1.391 . S
C786 H776 0.950 . S
C786 C787 1.386 . S
C786 C788 1.391 . S
C787 C786 1.386 . S
C787 C791 1.393 . S
C788 H777 0.950 . S
C788 C786 1.391 . S
C788 C789 1.400 . S
C789 C783 1.491 . S
C789 C788 1.400 . S
C789 C790 1.398 . S
C790 H778 0.950 . S
C790 C789 1.398 . S
C790 C791 1.391 . S
C791 H779 0.950 . S
C791 C787 1.393 . S
C791 C790 1.391 . S
H792 C800 0.950 . S
H793 C805 0.950 . S
H794 C802 0.950 . S
H795 C804 0.950 . S
H796 C806 0.950 . S
H797 C808 0.950 . S
H798 C810 0.950 . S
H799 C811 0.950 . S
C800 H792 0.950 . S
C800 C801 1.386 . S
C800 C802 1.391 . S
C801 C800 1.386 . S
C801 C805 1.393 . S
C802 H794 0.950 . S
C802 C800 1.391 . S
C802 C803 1.400 . S
C803 C802 1.400 . S
C803 C804 1.398 . S
C803 C809 1.491 . S
C804 H795 0.950 . S
C804 C803 1.398 . S
C804 C805 1.391 . S
C805 H793 0.950 . S
C805 C801 1.393 . S
C805 C804 1.391 . S
C806 H796 0.950 . S
C806 C807 1.386 . S
C806 C808 1.391 . S
C807 C806 1.386 . S
C807 C811 1.393 . S
C808 H797 0.950 . S
C808 C806 1.391 . S
C808 C809 1.400 . S
C809 C803 1.491 . S
C809 C808 1.400 . S
C809 C810 1.398 . S
C810 H798 0.950 . S
C810 C809 1.398 . S
C810 C811 1.391 . S
C811 H799 0.950 . S
C811 C807 1.393 . S
C811 C810 1.391 . S
H812 C820 0.950 . S
H813 C825 0.950 . S
H814 C822 0.950 . S
H815 C824 0.950 . S
H816 C826 0.950 . S
H817 C828 0.950 . S
H818 C830 0.950 . S
H819 C831 0.950 . S
C820 H812 0.950 . S
C820 C821 1.386 . S
C820 C822 1.391 . S
C821 C820 1.386 . S
C821 C825 1.393 . S
C822 H814 0.950 . S
C822 C820 1.391 . S
C822 C823 1.400 . S
C823 C822 1.400 . S
C823 C824 1.398 . S
C823 C829 1.491 1_455 S
C824 H815 0.950 . S
C824 C823 1.398 . S
C824 C825 1.391 . S
C825 H813 0.950 . S
C825 C821 1.393 . S
C825 C824 1.391 . S
C826 H816 0.950 . S
C826 C827 1.386 . S
C826 C828 1.391 . S
C827 C826 1.386 . S
C827 C831 1.393 . S
C828 H817 0.950 . S
C828 C826 1.391 . S
C828 C829 1.400 . S
C829 C823 1.491 1_655 S
C829 C828 1.400 . S
C829 C830 1.398 . S
C830 H818 0.950 . S
C830 C829 1.398 . S
C830 C831 1.391 . S
C831 H819 0.950 . S
C831 C827 1.393 . S
C831 C830 1.391 . S
H832 C840 0.950 . S
H833 C845 0.950 . S
H834 C842 0.950 . S
H835 C844 0.950 . S
H836 C846 0.950 . S
H837 C848 0.950 . S
H838 C850 0.950 . S
H839 C851 0.950 . S
C840 H832 0.950 . S
C840 C841 1.386 . S
C840 C842 1.391 . S
C841 C840 1.386 . S
C841 C845 1.393 . S
C842 H834 0.950 . S
C842 C840 1.391 . S
C842 C843 1.400 . S
C843 C842 1.400 . S
C843 C844 1.398 . S
C843 C849 1.491 1_565 S
C844 H835 0.950 . S
C844 C843 1.398 . S
C844 C845 1.391 . S
C845 H833 0.950 . S
C845 C841 1.393 . S
C845 C844 1.391 . S
C846 H836 0.950 . S
C846 C847 1.386 . S
C846 C848 1.391 . S
C847 C846 1.386 . S
C847 C851 1.393 . S
C848 H837 0.950 . S
C848 C846 1.391 . S
C848 C849 1.400 . S
C849 C843 1.491 1_545 S
C849 C848 1.400 . S
C849 C850 1.398 . S
C850 H838 0.950 . S
C850 C849 1.398 . S
C850 C851 1.391 . S
C851 H839 0.950 . S
C851 C847 1.393 . S
C851 C850 1.391 . S
H852 C860 0.950 . S
H853 C865 0.950 . S
H854 C862 0.950 . S
H855 C864 0.950 . S
H856 C866 0.950 . S
H857 C868 0.950 . S
H858 C870 0.950 . S
H859 C871 0.950 . S
C860 H852 0.950 . S
C860 C861 1.386 . S
C860 C862 1.391 . S
C861 C860 1.386 . S
C861 C865 1.393 . S
C862 H854 0.950 . S
C862 C860 1.391 . S
C862 C863 1.400 . S
C863 C862 1.400 . S
C863 C864 1.398 . S
C863 C869 1.491 . S
C864 H855 0.950 . S
C864 C863 1.398 . S
C864 C865 1.391 . S
C865 H853 0.950 . S
C865 C861 1.393 . S
C865 C864 1.391 . S
C866 H856 0.950 . S
C866 C867 1.386 . S
C866 C868 1.391 . S
C867 C866 1.386 . S
C867 C871 1.393 . S
C868 H857 0.950 . S
C868 C866 1.391 . S
C868 C869 1.400 . S
C869 C863 1.491 . S
C869 C868 1.400 . S
C869 C870 1.398 . S
C870 H858 0.950 . S
C870 C869 1.398 . S
C870 C871 1.391 . S
C871 H859 0.950 . S
C871 C867 1.393 . S
C871 C870 1.391 . S
H872 C880 0.950 . S
H873 C885 0.950 . S
H874 C882 0.950 . S
H875 C884 0.950 . S
H876 C886 0.950 . S
H877 C888 0.950 . S
H878 C890 0.950 . S
H879 C891 0.950 . S
C880 H872 0.950 . S
C880 C881 1.386 . S
C880 C882 1.391 . S
C881 C880 1.386 . S
C881 C885 1.393 . S
C882 H874 0.950 . S
C882 C880 1.391 . S
C882 C883 1.400 . S
C883 C882 1.400 . S
C883 C884 1.398 . S
C883 C889 1.491 1_655 S
C884 H875 0.950 . S
C884 C883 1.398 . S
C884 C885 1.391 . S
C885 H873 0.950 . S
C885 C881 1.393 . S
C885 C884 1.391 . S
C886 H876 0.950 . S
C886 C887 1.386 . S
C886 C888 1.391 . S
C887 C886 1.386 . S
C887 C891 1.393 . S
C888 H877 0.950 . S
C888 C886 1.391 . S
C888 C889 1.400 . S
C889 C883 1.491 1_455 S
C889 C888 1.400 . S
C889 C890 1.398 . S
C890 H878 0.950 . S
C890 C889 1.398 . S
C890 C891 1.391 . S
C891 H879 0.950 . S
C891 C887 1.393 . S
C891 C890 1.391 . S
H892 C900 0.950 . S
H893 C905 0.950 . S
H894 C902 0.950 . S
H895 C904 0.950 . S
H896 C906 0.950 . S
H897 C908 0.950 . S
H898 C910 0.950 . S
H899 C911 0.950 . S
C900 H892 0.950 . S
C900 C901 1.386 . S
C900 C902 1.391 . S
C901 C900 1.386 . S
C901 C905 1.393 . S
C902 H894 0.950 . S
C902 C900 1.391 . S
C902 C903 1.400 . S
C903 C902 1.400 . S
C903 C904 1.398 . S
C903 C909 1.491 1_545 S
C904 H895 0.950 . S
C904 C903 1.398 . S
C904 C905 1.391 . S
C905 H893 0.950 . S
C905 C901 1.393 . S
C905 C904 1.391 . S
C906 H896 0.950 . S
C906 C907 1.386 . S
C906 C908 1.391 . S
C907 C906 1.386 . S
C907 C911 1.393 . S
C908 H897 0.950 . S
C908 C906 1.391 . S
C908 C909 1.400 . S
C909 C903 1.491 1_565 S
C909 C908 1.400 . S
C909 C910 1.398 . S
C910 H898 0.950 . S
C910 C909 1.398 . S
C910 C911 1.391 . S
C911 H899 0.950 . S
C911 C907 1.393 . S
C911 C910 1.391 . S
H912 C920 0.950 . S
H913 C925 0.950 . S
H914 C922 0.950 . S
H915 C924 0.950 . S
H916 C926 0.950 . S
H917 C928 0.950 . S
H918 C930 0.950 . S
H919 C931 0.950 . S
C920 H912 0.950 . S
C920 C921 1.386 . S
C920 C922 1.391 . S
C921 C920 1.386 . S
C921 C925 1.393 . S
C922 H914 0.950 . S
C922 C920 1.391 . S
C922 C923 1.400 . S
C923 C922 1.400 . S
C923 C924 1.398 . S
C923 C929 1.491 . S
C924 H915 0.950 . S
C924 C923 1.398 . S
C924 C925 1.391 . S
C925 H913 0.950 . S
C925 C921 1.393 . S
C925 C924 1.391 . S
C926 H916 0.950 . S
C926 C927 1.386 . S
C926 C928 1.391 . S
C927 C926 1.386 . S
C927 C931 1.393 . S
C928 H917 0.950 . S
C928 C926 1.391 . S
C928 C929 1.400 . S
C929 C923 1.491 . S
C929 C928 1.400 . S
C929 C930 1.398 . S
C930 H918 0.950 . S
C930 C929 1.398 . S
C930 C931 1.391 . S
C931 H919 0.950 . S
C931 C927 1.393 . S
C931 C930 1.391 . S
H932 C940 0.950 . S
H933 C945 0.950 . S
H934 C942 0.950 . S
H935 C944 0.950 . S
H936 C946 0.950 . S
H937 C948 0.950 . S
H938 C950 0.950 . S
H939 C951 0.950 . S
C940 H932 0.950 . S
C940 C941 1.386 . S
C940 C942 1.391 . S
C941 C940 1.386 . S
C941 C945 1.393 . S
C942 H934 0.950 . S
C942 C940 1.391 . S
C942 C943 1.400 . S
C943 C942 1.400 . S
C943 C944 1.398 . S
C943 C949 1.491 1_655 S
C944 H935 0.950 . S
C944 C943 1.398 . S
C944 C945 1.391 . S
C945 H933 0.950 . S
C945 C941 1.393 . S
C945 C944 1.391 . S
C946 H936 0.950 . S
C946 C947 1.386 . S
C946 C948 1.391 . S
C947 C946 1.386 . S
C947 C951 1.393 . S
C948 H937 0.950 . S
C948 C946 1.391 . S
C948 C949 1.400 . S
C949 C943 1.491 1_455 S
C949 C948 1.400 . S
C949 C950 1.398 . S
C950 H938 0.950 . S
C950 C949 1.398 . S
C950 C951 1.391 . S
C951 H939 0.950 . S
C951 C947 1.393 . S
C951 C950 1.391 . S
H952 C960 0.950 . S
H953 C965 0.950 . S
H954 C962 0.950 . S
H955 C964 0.950 . S
H956 C966 0.950 . S
H957 C968 0.950 . S
H958 C970 0.950 . S
H959 C971 0.950 . S
C960 H952 0.950 . S
C960 C961 1.386 . S
C960 C962 1.391 . S
C961 C960 1.386 . S
C961 C965 1.393 . S
C962 H954 0.950 . S
C962 C960 1.391 . S
C962 C963 1.400 . S
C963 C962 1.400 . S
C963 C964 1.398 . S
C963 C969 1.491 1_545 S
C964 H955 0.950 . S
C964 C963 1.398 . S
C964 C965 1.391 . S
C965 H953 0.950 . S
C965 C961 1.393 . S
C965 C964 1.391 . S
C966 H956 0.950 . S
C966 C967 1.386 . S
C966 C968 1.391 . S
C967 C966 1.386 . S
C967 C971 1.393 . S
C968 H957 0.950 . S
C968 C966 1.391 . S
C968 C969 1.400 . S
C969 C963 1.491 1_565 S
C969 C968 1.400 . S
C969 C970 1.398 . S
C970 H958 0.950 . S
C970 C969 1.398 . S
C970 C971 1.391 . S
C971 H959 0.950 . S
C971 C967 1.393 . S
C971 C970 1.391 . S
H972 C980 0.950 . S
H973 C985 0.950 . S
H974 C982 0.950 . S
H975 C984 0.950 . S
H976 C986 0.950 . S
H977 C988 0.950 . S
H978 C990 0.950 . S
H979 C991 0.950 . S
C980 H972 0.950 . S
C980 C981 1.386 . S
C980 C982 1.391 . S
C981 C980 1.386 . S
C981 C985 1.393 . S
C982 H974 0.950 . S
C982 C980 1.391 . S
C982 C983 1.400 . S
C983 C982 1.400 . S
C983 C984 1.398 . S
C983 C989 1.491 . S
C984 H975 0.950 . S
C984 C983 1.398 . S
C984 C985 1.391 . S
C985 H973 0.950 . S
C985 C981 1.393 . S
C985 C984 1.391 . S
C986 H976 0.950 . S
C986 C987 1.386 . S
C986 C988 1.391 . S
C987 C986 1.386 . S
C987 C991 1.393 . S
C988 H977 0.950 . S
C988 C986 1.391 . S
C988 C989 1.400 . S
C989 C983 1.491 . S
C989 C988 1.400 . S
C989 C990 1.398 . S
C990 H978 0.950 . S
C990 C989 1.398 . S
C990 C991 1.391 . S
C991 H979 0.950 . S
C991 C987 1.393 . S
C991 C990 1.391 . S
H992 C1000 0.950 . S
H993 C1005 0.950 . S
H994 C1002 0.950 . S
H995 C1004 0.950 . S
H996 C1006 0.950 . S
H997 C1008 0.950 . S
H998 C1010 0.950 . S
H999 C1011 0.950 . S
C1000 H992 0.950 . S
C1000 C1001 1.386 . S
C1000 C1002 1.391 . S
C1001 C1000 1.386 . S
C1001 C1005 1.393 . S
C1002 H994 0.950 . S
C1002 C1000 1.391 . S
C1002 C1003 1.400 . S
C1003 C1002 1.400 . S
C1003 C1004 1.398 . S
C1003 C1009 1.491 1_455 S
C1004 H995 0.950 . S
C1004 C1003 1.398 . S
C1004 C1005 1.391 . S
C1005 H993 0.950 . S
C1005 C1001 1.393 . S
C1005 C1004 1.391 . S
C1006 H996 0.950 . S
C1006 C1007 1.386 . S
C1006 C1008 1.391 . S
C1007 C1006 1.386 . S
C1007 C1011 1.393 . S
C1008 H997 0.950 . S
C1008 C1006 1.391 . S
C1008 C1009 1.400 . S
C1009 C1003 1.491 1_655 S
C1009 C1008 1.400 . S
C1009 C1010 1.398 . S
C1010 H998 0.950 . S
C1010 C1009 1.398 . S
C1010 C1011 1.391 . S
C1011 H999 0.950 . S
C1011 C1007 1.393 . S
C1011 C1010 1.391 . S
H1012 C1020 0.950 . S
H1013 C1025 0.950 . S
H1014 C1022 0.950 . S
H1015 C1024 0.950 . S
H1016 C1026 0.950 . S
H1017 C1028 0.950 . S
H1018 C1030 0.950 . S
H1019 C1031 0.950 . S
C1020 H1012 0.950 . S
C1020 C1021 1.386 . S
C1020 C1022 1.391 . S
C1021 C1020 1.386 . S
C1021 C1025 1.393 . S
C1022 H1014 0.950 . S
C1022 C1020 1.391 . S
C1022 C1023 1.400 . S
C1023 C1022 1.400 . S
C1023 C1024 1.398 . S
C1023 C1029 1.491 1_565 S
C1024 H1015 0.950 . S
C1024 C1023 1.398 . S
C1024 C1025 1.391 . S
C1025 H1013 0.950 . S
C1025 C1021 1.393 . S
C1025 C1024 1.391 . S
C1026 H1016 0.950 . S
C1026 C1027 1.386 . S
C1026 C1028 1.391 . S
C1027 C1026 1.386 . S
C1027 C1031 1.393 . S
C1028 H1017 0.950 . S
C1028 C1026 1.391 . S
C1028 C1029 1.400 . S
C1029 C1023 1.491 1_545 S
C1029 C1028 1.400 . S
C1029 C1030 1.398 . S
C1030 H1018 0.950 . S
C1030 C1029 1.398 . S
C1030 C1031 1.391 . S
C1031 H1019 0.950 . S
C1031 C1027 1.393 . S
C1031 C1030 1.391 . S
H1032 C1040 0.950 . S
H1033 C1045 0.950 1_554 S
H1034 C1042 0.950 . S
H1035 C1044 0.950 . S
H1036 C1046 0.950 . S
H1037 C1048 0.950 . S
H1038 C1050 0.950 . S
H1039 C1051 0.950 1_556 S
C1040 H1032 0.950 . S
C1040 C1041 1.386 . S
C1040 C1042 1.391 . S
C1041 C1040 1.386 . S
C1041 C1045 1.393 . S
C1042 H1034 0.950 . S
C1042 C1040 1.391 . S
C1042 C1043 1.400 . S
C1043 C1042 1.400 . S
C1043 C1044 1.398 1_556 S
C1043 C1049 1.491 1_556 S
C1044 H1035 0.950 . S
C1044 C1043 1.398 1_554 S
C1044 C1045 1.391 1_554 S
C1045 H1033 0.950 1_556 S
C1045 C1041 1.393 . S
C1045 C1044 1.391 1_556 S
C1046 H1036 0.950 . S
C1046 C1047 1.386 . S
C1046 C1048 1.391 . S
C1047 C1046 1.386 . S
C1047 C1051 1.393 . S
C1048 H1037 0.950 . S
C1048 C1046 1.391 . S
C1048 C1049 1.400 . S
C1049 C1043 1.491 1_554 S
C1049 C1048 1.400 . S
C1049 C1050 1.398 1_554 S
C1050 H1038 0.950 . S
C1050 C1049 1.398 1_556 S
C1050 C1051 1.391 1_556 S
C1051 H1039 0.950 1_554 S
C1051 C1047 1.393 . S
C1051 C1050 1.391 1_554 S
H1052 C1060 0.950 . S
H1053 C1065 0.950 . S
H1054 C1062 0.950 . S
H1055 C1064 0.950 . S
H1056 C1066 0.950 . S
H1057 C1068 0.950 . S
H1058 C1070 0.950 . S
H1059 C1071 0.950 . S
C1060 H1052 0.950 . S
C1060 C1061 1.386 . S
C1060 C1062 1.391 . S
C1061 C1060 1.386 . S
C1061 C1065 1.393 . S
C1062 H1054 0.950 . S
C1062 C1060 1.391 . S
C1062 C1063 1.400 . S
C1063 C1062 1.400 . S
C1063 C1064 1.398 . S
C1063 C1069 1.491 . S
C1064 H1055 0.950 . S
C1064 C1063 1.398 . S
C1064 C1065 1.391 . S
C1065 H1053 0.950 . S
C1065 C1061 1.393 . S
C1065 C1064 1.391 . S
C1066 H1056 0.950 . S
C1066 C1067 1.386 . S
C1066 C1068 1.391 . S
C1067 C1066 1.386 . S
C1067 C1071 1.393 . S
C1068 H1057 0.950 . S
C1068 C1066 1.391 . S
C1068 C1069 1.400 . S
C1069 C1063 1.491 . S
C1069 C1068 1.400 . S
C1069 C1070 1.398 . S
C1070 H1058 0.950 . S
C1070 C1069 1.398 . S
C1070 C1071 1.391 . S
C1071 H1059 0.950 . S
C1071 C1067 1.393 . S
C1071 C1070 1.391 . S
H1072 C1080 0.950 . S
H1073 C1085 0.950 1_554 S
H1074 C1082 0.950 . S
H1075 C1084 0.950 . S
H1076 C1086 0.950 . S
H1077 C1088 0.950 . S
H1078 C1090 0.950 . S
H1079 C1091 0.950 1_556 S
C1080 H1072 0.950 . S
C1080 C1081 1.386 . S
C1080 C1082 1.391 . S
C1081 C1080 1.386 . S
C1081 C1085 1.393 . S
C1082 H1074 0.950 . S
C1082 C1080 1.391 . S
C1082 C1083 1.400 . S
C1083 C1082 1.400 . S
C1083 C1084 1.398 1_556 S
C1083 C1089 1.491 1_556 S
C1084 H1075 0.950 . S
C1084 C1083 1.398 1_554 S
C1084 C1085 1.391 1_554 S
C1085 H1073 0.950 1_556 S
C1085 C1081 1.393 . S
C1085 C1084 1.391 1_556 S
C1086 H1076 0.950 . S
C1086 C1087 1.386 . S
C1086 C1088 1.391 . S
C1087 C1086 1.386 . S
C1087 C1091 1.393 . S
C1088 H1077 0.950 . S
C1088 C1086 1.391 . S
C1088 C1089 1.400 . S
C1089 C1083 1.491 1_554 S
C1089 C1088 1.400 . S
C1089 C1090 1.398 1_554 S
C1090 H1078 0.950 . S
C1090 C1089 1.398 1_556 S
C1090 C1091 1.391 1_556 S
C1091 H1079 0.950 1_554 S
C1091 C1087 1.393 . S
C1091 C1090 1.391 1_554 S
H1092 C1100 0.950 . S
H1093 C1105 0.950 . S
H1094 C1102 0.950 . S
H1095 C1104 0.950 . S
H1096 C1106 0.950 . S
H1097 C1108 0.950 . S
H1098 C1110 0.950 . S
H1099 C1111 0.950 . S
C1100 H1092 0.950 . S
C1100 C1101 1.386 . S
C1100 C1102 1.391 . S
C1101 C1100 1.386 . S
C1101 C1105 1.393 . S
C1102 H1094 0.950 . S
C1102 C1100 1.391 . S
C1102 C1103 1.400 . S
C1103 C1102 1.400 . S
C1103 C1104 1.398 . S
C1103 C1109 1.491 . S
C1104 H1095 0.950 . S
C1104 C1103 1.398 . S
C1104 C1105 1.391 . S
C1105 H1093 0.950 . S
C1105 C1101 1.393 . S
C1105 C1104 1.391 . S
C1106 H1096 0.950 . S
C1106 C1107 1.386 . S
C1106 C1108 1.391 . S
C1107 C1106 1.386 . S
C1107 C1111 1.393 . S
C1108 H1097 0.950 . S
C1108 C1106 1.391 . S
C1108 C1109 1.400 . S
C1109 C1103 1.491 . S
C1109 C1108 1.400 . S
C1109 C1110 1.398 . S
C1110 H1098 0.950 . S
C1110 C1109 1.398 . S
C1110 C1111 1.391 . S
C1111 H1099 0.950 . S
C1111 C1107 1.393 . S
C1111 C1110 1.391 . S
H1112 C1120 0.950 . S
H1113 C1125 0.950 . S
H1114 C1122 0.950 . S
H1115 C1124 0.950 1_554 S
H1116 C1126 0.950 . S
H1117 C1128 0.950 . S
H1118 C1130 0.950 1_556 S
H1119 C1131 0.950 . S
C1120 H1112 0.950 . S
C1120 C1121 1.386 . S
C1120 C1122 1.391 . S
C1121 C1120 1.386 . S
C1121 C1125 1.393 . S
C1122 H1114 0.950 . S
C1122 C1120 1.391 . S
C1122 C1123 1.400 . S
C1123 C1122 1.400 . S
C1123 C1124 1.398 . S
C1123 C1129 1.491 1_556 S
C1124 H1115 0.950 1_556 S
C1124 C1123 1.398 . S
C1124 C1125 1.391 . S
C1125 H1113 0.950 . S
C1125 C1121 1.393 . S
C1125 C1124 1.391 . S
C1126 H1116 0.950 . S
C1126 C1127 1.386 . S
C1126 C1128 1.391 . S
C1127 C1126 1.386 . S
C1127 C1131 1.393 . S
C1128 H1117 0.950 . S
C1128 C1126 1.391 . S
C1128 C1129 1.400 . S
C1129 C1123 1.491 1_554 S
C1129 C1128 1.400 . S
C1129 C1130 1.398 . S
C1130 H1118 0.950 1_554 S
C1130 C1129 1.398 . S
C1130 C1131 1.391 . S
C1131 H1119 0.950 . S
C1131 C1127 1.393 . S
C1131 C1130 1.391 . S
H1132 C1140 0.950 . S
H1133 C1145 0.950 . S
H1134 C1142 0.950 . S
H1135 C1144 0.950 . S
H1136 C1146 0.950 . S
H1137 C1148 0.950 . S
H1138 C1150 0.950 . S
H1139 C1151 0.950 . S
C1140 H1132 0.950 . S
C1140 C1141 1.386 . S
C1140 C1142 1.391 . S
C1141 C1140 1.386 . S
C1141 C1145 1.393 . S
C1142 H1134 0.950 . S
C1142 C1140 1.391 . S
C1142 C1143 1.400 . S
C1143 C1142 1.400 . S
C1143 C1144 1.398 . S
C1143 C1149 1.491 . S
C1144 H1135 0.950 . S
C1144 C1143 1.398 . S
C1144 C1145 1.391 . S
C1145 H1133 0.950 . S
C1145 C1141 1.393 . S
C1145 C1144 1.391 . S
C1146 H1136 0.950 . S
C1146 C1147 1.386 . S
C1146 C1148 1.391 . S
C1147 C1146 1.386 . S
C1147 C1151 1.393 . S
C1148 H1137 0.950 . S
C1148 C1146 1.391 . S
C1148 C1149 1.400 . S
C1149 C1143 1.491 . S
C1149 C1148 1.400 . S
C1149 C1150 1.398 . S
C1150 H1138 0.950 . S
C1150 C1149 1.398 . S
C1150 C1151 1.391 . S
C1151 H1139 0.950 . S
C1151 C1147 1.393 . S
C1151 C1150 1.391 . S
H1152 C1160 0.950 . S
H1153 C1165 0.950 1_556 S
H1154 C1162 0.950 . S
H1155 C1164 0.950 . S
H1156 C1166 0.950 . S
H1157 C1168 0.950 . S
H1158 C1170 0.950 . S
H1159 C1171 0.950 1_554 S
C1160 H1152 0.950 . S
C1160 C1161 1.386 . S
C1160 C1162 1.391 . S
C1161 C1160 1.386 . S
C1161 C1165 1.393 . S
C1162 H1154 0.950 . S
C1162 C1160 1.391 . S
C1162 C1163 1.400 . S
C1163 C1162 1.400 . S
C1163 C1164 1.398 1_554 S
C1163 C1169 1.491 1_554 S
C1164 H1155 0.950 . S
C1164 C1163 1.398 1_556 S
C1164 C1165 1.391 1_556 S
C1165 H1153 0.950 1_554 S
C1165 C1161 1.393 . S
C1165 C1164 1.391 1_554 S
C1166 H1156 0.950 . S
C1166 C1167 1.386 . S
C1166 C1168 1.391 . S
C1167 C1166 1.386 . S
C1167 C1171 1.393 . S
C1168 H1157 0.950 . S
C1168 C1166 1.391 . S
C1168 C1169 1.400 . S
C1169 C1163 1.491 1_556 S
C1169 C1168 1.400 . S
C1169 C1170 1.398 1_556 S
C1170 H1158 0.950 . S
C1170 C1169 1.398 1_554 S
C1170 C1171 1.391 1_554 S
C1171 H1159 0.950 1_556 S
C1171 C1167 1.393 . S
C1171 C1170 1.391 1_556 S
H1172 C1180 0.950 . S
H1173 C1185 0.950 . S
H1174 C1182 0.950 . S
H1175 C1184 0.950 . S
H1176 C1186 0.950 . S
H1177 C1188 0.950 . S
H1178 C1190 0.950 . S
H1179 C1191 0.950 . S
C1180 H1172 0.950 . S
C1180 C1181 1.386 . S
C1180 C1182 1.391 . S
C1181 C1180 1.386 . S
C1181 C1185 1.393 . S
C1182 H1174 0.950 . S
C1182 C1180 1.391 . S
C1182 C1183 1.400 . S
C1183 C1182 1.400 . S
C1183 C1184 1.398 . S
C1183 C1189 1.491 . S
C1184 H1175 0.950 . S
C1184 C1183 1.398 . S
C1184 C1185 1.391 . S
C1185 H1173 0.950 . S
C1185 C1181 1.393 . S
C1185 C1184 1.391 . S
C1186 H1176 0.950 . S
C1186 C1187 1.386 . S
C1186 C1188 1.391 . S
C1187 C1186 1.386 . S
C1187 C1191 1.393 . S
C1188 H1177 0.950 . S
C1188 C1186 1.391 . S
C1188 C1189 1.400 . S
C1189 C1183 1.491 . S
C1189 C1188 1.400 . S
C1189 C1190 1.398 . S
C1190 H1178 0.950 . S
C1190 C1189 1.398 . S
C1190 C1191 1.391 . S
C1191 H1179 0.950 . S
C1191 C1187 1.393 . S
C1191 C1190 1.391 . S
H1192 C1200 0.950 . S
H1193 C1205 0.950 1_556 S
H1194 C1202 0.950 . S
H1195 C1204 0.950 . S
H1196 C1206 0.950 . S
H1197 C1208 0.950 . S
H1198 C1210 0.950 . S
H1199 C1211 0.950 1_554 S
C1200 H1192 0.950 . S
C1200 C1201 1.386 . S
C1200 C1202 1.391 . S
C1201 C1200 1.386 . S
C1201 C1205 1.393 . S
C1202 H1194 0.950 . S
C1202 C1200 1.391 . S
C1202 C1203 1.400 . S
C1203 C1202 1.400 . S
C1203 C1204 1.398 1_554 S
C1203 C1209 1.491 1_554 S
C1204 H1195 0.950 . S
C1204 C1203 1.398 1_556 S
C1204 C1205 1.391 1_556 S
C1205 H1193 0.950 1_554 S
C1205 C1201 1.393 . S
C1205 C1204 1.391 1_554 S
C1206 H1196 0.950 . S
C1206 C1207 1.386 . S
C1206 C1208 1.391 . S
C1207 C1206 1.386 . S
C1207 C1211 1.393 . S
C1208 H1197 0.950 . S
C1208 C1206 1.391 . S
C1208 C1209 1.400 . S
C1209 C1203 1.491 1_556 S
C1209 C1208 1.400 . S
C1209 C1210 1.398 1_556 S
C1210 H1198 0.950 . S
C1210 C1209 1.398 1_554 S
C1210 C1211 1.391 1_554 S
C1211 H1199 0.950 1_556 S
C1211 C1207 1.393 . S
C1211 C1210 1.391 1_556 S
H1212 C1220 0.950 . S
H1213 C1225 0.950 . S
H1214 C1222 0.950 . S
H1215 C1224 0.950 . S
H1216 C1226 0.950 . S
H1217 C1228 0.950 . S
H1218 C1230 0.950 . S
H1219 C1231 0.950 . S
C1220 H1212 0.950 . S
C1220 C1221 1.386 . S
C1220 C1222 1.391 . S
C1221 C1220 1.386 . S
C1221 C1225 1.393 . S
C1222 H1214 0.950 . S
C1222 C1220 1.391 . S
C1222 C1223 1.400 . S
C1223 C1222 1.400 . S
C1223 C1224 1.398 . S
C1223 C1229 1.491 . S
C1224 H1215 0.950 . S
C1224 C1223 1.398 . S
C1224 C1225 1.391 . S
C1225 H1213 0.950 . S
C1225 C1221 1.393 . S
C1225 C1224 1.391 . S
C1226 H1216 0.950 . S
C1226 C1227 1.386 . S
C1226 C1228 1.391 . S
C1227 C1226 1.386 . S
C1227 C1231 1.393 . S
C1228 H1217 0.950 . S
C1228 C1226 1.391 . S
C1228 C1229 1.400 . S
C1229 C1223 1.491 . S
C1229 C1228 1.400 . S
C1229 C1230 1.398 . S
C1230 H1218 0.950 . S
C1230 C1229 1.398 . S
C1230 C1231 1.391 . S
C1231 H1219 0.950 . S
C1231 C1227 1.393 . S
C1231 C1230 1.391 . S
H1232 C1240 0.950 1_554 S
H1233 C1245 0.950 . S
H1234 C1242 0.950 . S
H1235 C1244 0.950 . S
H1236 C1246 0.950 1_556 S
H1237 C1248 0.950 . S
H1238 C1250 0.950 . S
H1239 C1251 0.950 . S
C1240 H1232 0.950 1_556 S
C1240 C1241 1.386 . S
C1240 C1242 1.391 1_556 S
C1241 C1240 1.386 . S
C1241 C1245 1.393 . S
C1242 H1234 0.950 . S
C1242 C1240 1.391 1_554 S
C1242 C1243 1.400 1_554 S
C1243 C1242 1.400 1_556 S
C1243 C1244 1.398 . S
C1243 C1249 1.491 1_556 S
C1244 H1235 0.950 . S
C1244 C1243 1.398 . S
C1244 C1245 1.391 . S
C1245 H1233 0.950 . S
C1245 C1241 1.393 . S
C1245 C1244 1.391 . S
C1246 H1236 0.950 1_554 S
C1246 C1247 1.386 . S
C1246 C1248 1.391 1_554 S
C1247 C1246 1.386 . S
C1247 C1251 1.393 . S
C1248 H1237 0.950 . S
C1248 C1246 1.391 1_556 S
C1248 C1249 1.400 1_556 S
C1249 C1243 1.491 1_554 S
C1249 C1248 1.400 1_554 S
C1249 C1250 1.398 . S
C1250 H1238 0.950 . S
C1250 C1249 1.398 . S
C1250 C1251 1.391 . S
C1251 H1239 0.950 . S
C1251 C1247 1.393 . S
C1251 C1250 1.391 . S
H1252 C1260 0.950 . S
H1253 C1265 0.950 . S
H1254 C1262 0.950 . S
H1255 C1264 0.950 . S
H1256 C1266 0.950 . S
H1257 C1268 0.950 . S
H1258 C1270 0.950 . S
H1259 C1271 0.950 . S
C1260 H1252 0.950 . S
C1260 C1261 1.386 . S
C1260 C1262 1.391 . S
C1261 C1260 1.386 . S
C1261 C1265 1.393 . S
C1262 H1254 0.950 . S
C1262 C1260 1.391 . S
C1262 C1263 1.400 . S
C1263 C1262 1.400 . S
C1263 C1264 1.398 . S
C1263 C1269 1.491 . S
C1264 H1255 0.950 . S
C1264 C1263 1.398 . S
C1264 C1265 1.391 . S
C1265 H1253 0.950 . S
C1265 C1261 1.393 . S
C1265 C1264 1.391 . S
C1266 H1256 0.950 . S
C1266 C1267 1.386 . S
C1266 C1268 1.391 . S
C1267 C1266 1.386 . S
C1267 C1271 1.393 . S
C1268 H1257 0.950 . S
C1268 C1266 1.391 . S
C1268 C1269 1.400 . S
C1269 C1263 1.491 . S
C1269 C1268 1.400 . S
C1269 C1270 1.398 . S
C1270 H1258 0.950 . S
C1270 C1269 1.398 . S
C1270 C1271 1.391 . S
C1271 H1259 0.950 . S
C1271 C1267 1.393 . S
C1271 C1270 1.391 . S
C321 C10 1.446 . S
C327 C205 1.459 . S
C341 C23 1.446 . S
C347 C218 1.459 . S
C361 C231 1.458 . S
C367 C36 1.448 . S
C381 C166 1.453 . S
C387 C49 1.453 . S
C401 C179 1.457 . S
C407 C62 1.448 . S
C421 C192 1.448 . S
C427 C75 1.457 . S
C441 C283 1.446 . S
C447 C88 1.459 . S
C461 C101 1.446 . S
C467 C296 1.459 . S
C481 C309 1.457 . S
C487 C114 1.448 . S
C501 C127 1.459 . S
C507 C244 1.446 . S
C521 C257 1.449 . S
C527 C140 1.457 . S
C541 C153 1.453 . S
C547 C270 1.453 . S
C561 C130 1.116 . S
C567 C0 1.116 . S
C581 C143 1.114 . S
C587 C13 1.108 . S
C601 C26 1.087 . S
C607 C78 1.085 . S
C621 C39 1.103 . S
C627 C91 1.111 . S
C641 C104 1.085 . S
C647 C52 1.087 . S
C661 C65 1.101 . S
C667 C117 1.110 . S
C681 C286 1.117 . S
C687 C156 1.115 . S
C701 C169 1.086 . S
C707 C299 1.092 . S
C721 C182 1.116 . S
C727 C234 1.114 . S
C741 C247 1.110 . S
C747 C195 1.116 . S
C761 C208 1.110 . S
C767 C260 1.115 . S
C781 C221 1.090 . S
C787 C273 1.098 . S
C801 C5 1.186 . S
C807 C239 1.188 . S
C821 C252 1.205 . S
C827 C18 1.169 . S
C841 C31 1.169 . S
C847 C265 1.204 . S
C861 C44 1.172 . S
C867 C278 1.202 . S
C881 C291 1.205 . S
C887 C57 1.169 . S
C901 C70 1.172 . S
C907 C304 1.202 . S
C921 C83 1.199 . S
C927 C161 1.174 . S
C941 C96 1.170 . S
C947 C174 1.204 . S
C961 C187 1.190 . S
C967 C109 1.184 . S
C981 C200 1.204 . S
C987 C122 1.170 . S
C1001 C135 1.200 . S
C1007 C213 1.174 . S
C1021 C226 1.179 . S
C1027 C148 1.196 . S
C1041 C86 1.486 . S
C1047 C8 1.510 . S
C1061 C21 1.492 . S
C1067 C99 1.506 . S
C1081 C112 1.486 . S
C1087 C34 1.510 . S
C1101 C125 1.487 . S
C1107 C47 1.510 . S
C1121 C138 1.491 . S
C1127 C60 1.507 . S
C1141 C73 1.490 . S
C1147 C151 1.504 . S
C1161 C242 1.510 . S
C1167 C164 1.487 . S
C1181 C177 1.503 . S
C1187 C255 1.490 . S
C1201 C268 1.505 . S
C1207 C190 1.489 . S
C1221 C281 1.487 . S
C1227 C203 1.510 . S
C1241 C216 1.487 . S
C1247 C294 1.510 . S
C1261 C229 1.502 . S
C1267 C307 1.491 . S
