# Generated by pormake.
# Topology wgl, (5)-cn, num edge types: 1
# Building blocks:
#     Node 0, Type 0, BuildingBlock: XOMCOT_clean_sbu_1, # of connection points: 5
#     Node 1, Type 0, BuildingBlock: XOMCOT_clean_sbu_1, # of connection points: 5
#     Node 2, Type 0, BuildingBlock: XOMCOT_clean_sbu_1, # of connection points: 5
#     Node 3, Type 0, BuildingBlock: XOMCOT_clean_sbu_1, # of connection points: 5
#     Node 4, Type 0, BuildingBlock: XOMCOT_clean_sbu_1, # of connection points: 5
#     Node 5, Type 0, BuildingBlock: XOMCOT_clean_sbu_1, # of connection points: 5
#     Node 6, Type 0, BuildingBlock: XOMCOT_clean_sbu_1, # of connection points: 5
#     Node 7, Type 0, BuildingBlock: XOMCOT_clean_sbu_1, # of connection points: 5
#     Node 8, Type 0, BuildingBlock: XOMCOT_clean_sbu_1, # of connection points: 5
#     Node 9, Type 0, BuildingBlock: XOMCOT_clean_sbu_1, # of connection points: 5
#     Node 10, Type 0, BuildingBlock: XOMCOT_clean_sbu_1, # of connection points: 5
#     Node 11, Type 0, BuildingBlock: XOMCOT_clean_sbu_1, # of connection points: 5
#     Node 12, Type 0, BuildingBlock: XOMCOT_clean_sbu_1, # of connection points: 5
#     Node 13, Type 0, BuildingBlock: XOMCOT_clean_sbu_1, # of connection points: 5
#     Node 14, Type 0, BuildingBlock: XOMCOT_clean_sbu_1, # of connection points: 5
#     Node 15, Type 0, BuildingBlock: XOMCOT_clean_sbu_1, # of connection points: 5
#     Node 16, Type 0, BuildingBlock: XOMCOT_clean_sbu_1, # of connection points: 5
#     Node 17, Type 0, BuildingBlock: XOMCOT_clean_sbu_1, # of connection points: 5
#     Node 18, Type 0, BuildingBlock: XOMCOT_clean_sbu_1, # of connection points: 5
#     Node 19, Type 0, BuildingBlock: XOMCOT_clean_sbu_1, # of connection points: 5
#     Node 20, Type 0, BuildingBlock: XOMCOT_clean_sbu_1, # of connection points: 5
#     Node 21, Type 0, BuildingBlock: XOMCOT_clean_sbu_1, # of connection points: 5
#     Node 22, Type 0, BuildingBlock: XOMCOT_clean_sbu_1, # of connection points: 5
#     Node 23, Type 0, BuildingBlock: XOMCOT_clean_sbu_1, # of connection points: 5
#     Node 24, Type 0, BuildingBlock: XOMCOT_clean_sbu_1, # of connection points: 5
#     Node 25, Type 0, BuildingBlock: XOMCOT_clean_sbu_1, # of connection points: 5
#     Node 26, Type 0, BuildingBlock: XOMCOT_clean_sbu_1, # of connection points: 5
#     Node 27, Type 0, BuildingBlock: XOMCOT_clean_sbu_1, # of connection points: 5
#     Node 28, Type 0, BuildingBlock: XOMCOT_clean_sbu_1, # of connection points: 5
#     Node 29, Type 0, BuildingBlock: XOMCOT_clean_sbu_1, # of connection points: 5
#     Node 30, Type 0, BuildingBlock: XOMCOT_clean_sbu_1, # of connection points: 5
#     Node 31, Type 0, BuildingBlock: XOMCOT_clean_sbu_1, # of connection points: 5
#     Edge 32, Type (0, 0), BuildingBlock: XIVTED_clean_linker_0, # of connection points: 2
#     Edge 33, Type (0, 0), BuildingBlock: XIVTED_clean_linker_0, # of connection points: 2
#     Edge 34, Type (0, 0), BuildingBlock: XIVTED_clean_linker_0, # of connection points: 2
#     Edge 35, Type (0, 0), BuildingBlock: XIVTED_clean_linker_0, # of connection points: 2
#     Edge 36, Type (0, 0), BuildingBlock: XIVTED_clean_linker_0, # of connection points: 2
#     Edge 37, Type (0, 0), BuildingBlock: XIVTED_clean_linker_0, # of connection points: 2
#     Edge 38, Type (0, 0), BuildingBlock: XIVTED_clean_linker_0, # of connection points: 2
#     Edge 39, Type (0, 0), BuildingBlock: XIVTED_clean_linker_0, # of connection points: 2
#     Edge 40, Type (0, 0), BuildingBlock: XIVTED_clean_linker_0, # of connection points: 2
#     Edge 41, Type (0, 0), BuildingBlock: XIVTED_clean_linker_0, # of connection points: 2
#     Edge 42, Type (0, 0), BuildingBlock: XIVTED_clean_linker_0, # of connection points: 2
#     Edge 43, Type (0, 0), BuildingBlock: XIVTED_clean_linker_0, # of connection points: 2
#     Edge 44, Type (0, 0), BuildingBlock: XIVTED_clean_linker_0, # of connection points: 2
#     Edge 45, Type (0, 0), BuildingBlock: XIVTED_clean_linker_0, # of connection points: 2
#     Edge 46, Type (0, 0), BuildingBlock: XIVTED_clean_linker_0, # of connection points: 2
#     Edge 47, Type (0, 0), BuildingBlock: XIVTED_clean_linker_0, # of connection points: 2
#     Edge 48, Type (0, 0), BuildingBlock: XIVTED_clean_linker_0, # of connection points: 2
#     Edge 49, Type (0, 0), BuildingBlock: XIVTED_clean_linker_0, # of connection points: 2
#     Edge 50, Type (0, 0), BuildingBlock: XIVTED_clean_linker_0, # of connection points: 2
#     Edge 51, Type (0, 0), BuildingBlock: XIVTED_clean_linker_0, # of connection points: 2
#     Edge 52, Type (0, 0), BuildingBlock: XIVTED_clean_linker_0, # of connection points: 2
#     Edge 53, Type (0, 0), BuildingBlock: XIVTED_clean_linker_0, # of connection points: 2
#     Edge 54, Type (0, 0), BuildingBlock: XIVTED_clean_linker_0, # of connection points: 2
#     Edge 55, Type (0, 0), BuildingBlock: XIVTED_clean_linker_0, # of connection points: 2
#     Edge 56, Type (0, 0), BuildingBlock: XIVTED_clean_linker_0, # of connection points: 2
#     Edge 57, Type (0, 0), BuildingBlock: XIVTED_clean_linker_0, # of connection points: 2
#     Edge 58, Type (0, 0), BuildingBlock: XIVTED_clean_linker_0, # of connection points: 2
#     Edge 59, Type (0, 0), BuildingBlock: XIVTED_clean_linker_0, # of connection points: 2
#     Edge 60, Type (0, 0), BuildingBlock: XIVTED_clean_linker_0, # of connection points: 2
#     Edge 61, Type (0, 0), BuildingBlock: XIVTED_clean_linker_0, # of connection points: 2
#     Edge 62, Type (0, 0), BuildingBlock: XIVTED_clean_linker_0, # of connection points: 2
#     Edge 63, Type (0, 0), BuildingBlock: XIVTED_clean_linker_0, # of connection points: 2
#     Edge 64, Type (0, 0), BuildingBlock: XIVTED_clean_linker_0, # of connection points: 2
#     Edge 65, Type (0, 0), BuildingBlock: XIVTED_clean_linker_0, # of connection points: 2
#     Edge 66, Type (0, 0), BuildingBlock: XIVTED_clean_linker_0, # of connection points: 2
#     Edge 67, Type (0, 0), BuildingBlock: XIVTED_clean_linker_0, # of connection points: 2
#     Edge 68, Type (0, 0), BuildingBlock: XIVTED_clean_linker_0, # of connection points: 2
#     Edge 69, Type (0, 0), BuildingBlock: XIVTED_clean_linker_0, # of connection points: 2
#     Edge 70, Type (0, 0), BuildingBlock: XIVTED_clean_linker_0, # of connection points: 2
#     Edge 71, Type (0, 0), BuildingBlock: XIVTED_clean_linker_0, # of connection points: 2
#     Edge 72, Type (0, 0), BuildingBlock: XIVTED_clean_linker_0, # of connection points: 2
#     Edge 73, Type (0, 0), BuildingBlock: XIVTED_clean_linker_0, # of connection points: 2
#     Edge 74, Type (0, 0), BuildingBlock: XIVTED_clean_linker_0, # of connection points: 2
#     Edge 75, Type (0, 0), BuildingBlock: XIVTED_clean_linker_0, # of connection points: 2
#     Edge 76, Type (0, 0), BuildingBlock: XIVTED_clean_linker_0, # of connection points: 2
#     Edge 77, Type (0, 0), BuildingBlock: XIVTED_clean_linker_0, # of connection points: 2
#     Edge 78, Type (0, 0), BuildingBlock: XIVTED_clean_linker_0, # of connection points: 2
#     Edge 79, Type (0, 0), BuildingBlock: XIVTED_clean_linker_0, # of connection points: 2
#     Edge 80, Type (0, 0), BuildingBlock: XIVTED_clean_linker_0, # of connection points: 2
#     Edge 81, Type (0, 0), BuildingBlock: XIVTED_clean_linker_0, # of connection points: 2
#     Edge 82, Type (0, 0), BuildingBlock: XIVTED_clean_linker_0, # of connection points: 2
#     Edge 83, Type (0, 0), BuildingBlock: XIVTED_clean_linker_0, # of connection points: 2
#     Edge 84, Type (0, 0), BuildingBlock: XIVTED_clean_linker_0, # of connection points: 2
#     Edge 85, Type (0, 0), BuildingBlock: XIVTED_clean_linker_0, # of connection points: 2
#     Edge 86, Type (0, 0), BuildingBlock: XIVTED_clean_linker_0, # of connection points: 2
#     Edge 87, Type (0, 0), BuildingBlock: XIVTED_clean_linker_0, # of connection points: 2
#     Edge 88, Type (0, 0), BuildingBlock: XIVTED_clean_linker_0, # of connection points: 2
#     Edge 89, Type (0, 0), BuildingBlock: XIVTED_clean_linker_0, # of connection points: 2
#     Edge 90, Type (0, 0), BuildingBlock: XIVTED_clean_linker_0, # of connection points: 2
#     Edge 91, Type (0, 0), BuildingBlock: XIVTED_clean_linker_0, # of connection points: 2
#     Edge 92, Type (0, 0), BuildingBlock: XIVTED_clean_linker_0, # of connection points: 2
#     Edge 93, Type (0, 0), BuildingBlock: XIVTED_clean_linker_0, # of connection points: 2
#     Edge 94, Type (0, 0), BuildingBlock: XIVTED_clean_linker_0, # of connection points: 2
#     Edge 95, Type (0, 0), BuildingBlock: XIVTED_clean_linker_0, # of connection points: 2
#     Edge 96, Type (0, 0), BuildingBlock: XIVTED_clean_linker_0, # of connection points: 2
#     Edge 97, Type (0, 0), BuildingBlock: XIVTED_clean_linker_0, # of connection points: 2
#     Edge 98, Type (0, 0), BuildingBlock: XIVTED_clean_linker_0, # of connection points: 2
#     Edge 99, Type (0, 0), BuildingBlock: XIVTED_clean_linker_0, # of connection points: 2
#     Edge 100, Type (0, 0), BuildingBlock: XIVTED_clean_linker_0, # of connection points: 2
#     Edge 101, Type (0, 0), BuildingBlock: XIVTED_clean_linker_0, # of connection points: 2
#     Edge 102, Type (0, 0), BuildingBlock: XIVTED_clean_linker_0, # of connection points: 2
#     Edge 103, Type (0, 0), BuildingBlock: XIVTED_clean_linker_0, # of connection points: 2
#     Edge 104, Type (0, 0), BuildingBlock: XIVTED_clean_linker_0, # of connection points: 2
#     Edge 105, Type (0, 0), BuildingBlock: XIVTED_clean_linker_0, # of connection points: 2
#     Edge 106, Type (0, 0), BuildingBlock: XIVTED_clean_linker_0, # of connection points: 2
#     Edge 107, Type (0, 0), BuildingBlock: XIVTED_clean_linker_0, # of connection points: 2
#     Edge 108, Type (0, 0), BuildingBlock: XIVTED_clean_linker_0, # of connection points: 2
#     Edge 109, Type (0, 0), BuildingBlock: XIVTED_clean_linker_0, # of connection points: 2
#     Edge 110, Type (0, 0), BuildingBlock: XIVTED_clean_linker_0, # of connection points: 2
#     Edge 111, Type (0, 0), BuildingBlock: XIVTED_clean_linker_0, # of connection points: 2
# Relax obj value: 0.053
# Max RMSD: 0.091
# Mean RMSD: 0.091
data_MOF--net-wgl--node1-XOMCOT_clean_sbu_1--edge1-XIVTED_clean_linker_0
_symmetry_space_group_name_H-M    P1
_symmetry_Int_Tables_number       1
_symmetry_cell_setting            triclinic
loop_
_symmetry_equiv_pos_as_xyz
'x, y, z'
_cell_length_a     57.620781
_cell_length_b     57.633423
_cell_length_c     52.508692
_cell_angle_alpha  89.97952
_cell_angle_beta   89.878483
_cell_angle_gamma 90.076941
loop_
_atom_site_label
_atom_site_type_symbol
_atom_site_fract_x
_atom_site_fract_y
_atom_site_fract_z
_atom_type_partial_charge
C0 C 0.26845 0.36037 0.18802 0.0
C1 C 0.24994 0.37516 0.18613 0.0
N2 N 0.24361 0.37641 0.16151 0.0
N3 N 0.27379 0.35204 0.16476 0.0
C4 C 0.25849 0.36238 0.14881 0.0
H5 H 0.27752 0.35603 0.20535 0.0
Co6 Co 0.29754 0.3306 0.16 0.0
C7 C 0.2932 0.31208 0.1064 0.0
O8 O 0.31515 0.30602 0.1068 0.0
N9 N 0.32186 0.30873 0.15654 0.0
C10 C 0.35638 0.29144 0.1569 0.0
C11 C 0.34503 0.31238 0.15695 0.0
C12 C 0.31968 0.28531 0.15633 0.0
N13 N 0.3404 0.27439 0.15664 0.0
O14 O 0.27942 0.30765 0.17841 0.0
H15 H 0.35347 0.32907 0.15783 0.0
H16 H 0.30315 0.2764 0.15665 0.0
O17 O 0.28409 0.32158 0.1262 0.0
C18 C 0.28762 0.30685 0.20107 0.0
O19 O 0.30536 0.32035 0.20646 0.0
N20 N 0.31612 0.35411 0.14575 0.0
C21 C 0.35355 0.38326 0.13514 0.0
C22 C 0.34047 0.37346 0.1153 0.0
C23 C 0.32148 0.35915 0.121 0.0
C24 C 0.32684 0.36573 0.16503 0.0
C25 C 0.34567 0.38028 0.16021 0.0
H26 H 0.31199 0.35166 0.10546 0.0
H27 H 0.32206 0.362 0.18453 0.0
H28 H 0.25806 0.3595 0.12845 0.0
H29 H 0.24198 0.38463 0.20166 0.0
H30 H 0.375 0.28902 0.15726 0.0
H31 H 0.34545 0.37602 0.0956 0.0
H32 H 0.35509 0.38748 0.17619 0.0
C33 C 0.89497 0.03259 0.4396 0.0
C34 C 0.87928 0.01475 0.44012 0.0
N35 N 0.88389 1.00038 0.42054 0.0
N36 N 0.90953 0.02982 0.41973 0.0
C37 C 0.90234 0.00998 0.40832 0.0
H38 H 0.89586 0.04665 0.45317 0.0
Co39 Co 0.93425 0.05033 0.4148 0.0
C40 C 0.95144 0.04453 0.36129 0.0
O41 O 0.9586 0.06616 0.36188 0.0
N42 N 0.95956 0.07155 0.41151 0.0
C43 C 0.98117 0.10369 0.41167 0.0
C44 C 0.95904 0.09504 0.41051 0.0
C45 C 0.98256 0.06652 0.41291 0.0
N46 N 0.99595 0.08578 0.41335 0.0
O47 O 0.95426 0.02949 0.43333 0.0
H48 H 0.94378 0.10571 0.4094 0.0
H49 H 0.98938 0.04911 0.41456 0.0
O50 O 0.94175 0.0357 0.38117 0.0
C51 C 0.95406 0.0364 0.4565 0.0
O52 O 0.94103 0.05435 0.46226 0.0
N53 N 0.91354 0.07169 0.40001 0.0
C54 C 0.88897 0.11124 0.38665 0.0
C55 C 0.89463 0.09473 0.36808 0.0
C56 C 0.90663 0.07461 0.3753 0.0
C57 C 0.90532 0.0861 0.41851 0.0
C58 C 0.89328 0.10616 0.41223 0.0
H59 H 0.91086 0.06207 0.36084 0.0
H60 H 0.91023 0.08323 0.43811 0.0
H61 H 0.91074 1.00245 0.39184 0.0
H62 H 0.86536 0.01269 0.4538 0.0
H63 H 0.98601 0.12185 0.41155 0.0
H64 H 0.89095 0.09793 0.34817 0.0
H65 H 0.88882 0.11842 0.4271 0.0
C66 C 0.22402 0.64226 0.67951 0.0
C67 C 0.23989 0.62461 0.68234 0.0
N68 N 0.2581 0.62887 0.66684 0.0
N69 N 0.23204 0.65754 0.66214 0.0
C70 C 0.25289 0.64903 0.65494 0.0
H71 H 0.2076 0.64385 0.68938 0.0
Co72 Co 0.21793 0.68536 0.65194 0.0
C73 C 0.22839 0.67744 0.59559 0.0
O74 O 0.20732 0.66983 0.59141 0.0
N75 N 0.20461 0.71402 0.64176 0.0
C76 C 0.18968 0.74262 0.61846 0.0
C77 C 0.19565 0.71961 0.61878 0.0
C78 C 0.20329 0.73403 0.65528 0.0
N79 N 0.19456 0.75167 0.6414 0.0
O80 O 0.2429 0.70235 0.66784 0.0
H81 H 0.19329 0.70789 0.60309 0.0
H82 H 0.20917 0.73594 0.6747 0.0
O83 O 0.23453 0.6841 0.618 0.0
C84 C 0.23732 0.70231 0.69149 0.0
O85 O 0.21818 0.69145 0.6982 0.0
N86 N 0.19132 0.66849 0.64068 0.0
C87 C 0.14947 0.64519 0.63205 0.0
C88 C 0.17066 0.63443 0.62646 0.0
C89 C 0.19148 0.64628 0.63127 0.0
C90 C 0.17075 0.67809 0.64817 0.0
C91 C 0.14973 0.66713 0.64336 0.0
H92 H 0.20772 0.63773 0.62697 0.0
H93 H 0.17039 0.69419 0.65865 0.0
H94 H 0.2642 0.65775 0.64154 0.0
H95 H 0.23792 0.60964 0.69459 0.0
H96 H 0.18221 0.75201 0.60261 0.0
H97 H 0.17113 0.61716 0.61833 0.0
H98 H 0.13376 0.67551 0.64919 0.0
C99 C 0.61164 0.99514 0.9253 0.0
C100 C 0.62645 0.01367 0.92372 0.0
N101 N 0.62809 0.02008 0.89916 0.0
N102 N 0.60362 0.98989 0.9019 0.0
C103 C 0.61425 1.00525 0.88615 0.0
H104 H 0.60701 0.98605 0.94257 0.0
Co105 Co 0.58192 0.96627 0.89728 0.0
C106 C 0.56324 0.97042 0.84364 0.0
O107 O 0.55616 0.94878 0.84468 0.0
N108 N 0.55979 0.94206 0.89418 0.0
C109 C 0.54228 0.90763 0.89609 0.0
C110 C 0.56329 0.91887 0.89495 0.0
C111 C 0.53638 0.94432 0.89483 0.0
N112 N 0.52534 0.92369 0.89621 0.0
O113 O 0.55904 0.98481 0.91523 0.0
H114 H 0.57995 0.91039 0.89556 0.0
H115 H 0.52759 0.96088 0.89532 0.0
O116 O 0.57332 0.97946 0.86312 0.0
C117 C 0.55797 0.97687 0.938 0.0
O118 O 0.57126 0.95911 0.9438 0.0
N119 N 0.60529 0.9473 0.8835 0.0
C120 C 0.6338 0.90921 0.87405 0.0
C121 C 0.62382 0.92166 0.85382 0.0
C122 C 0.60979 0.94095 0.85893 0.0
C123 C 0.61703 0.93712 0.90303 0.0
C124 C 0.63129 0.918 0.89878 0.0
H125 H 0.60197 0.94978 0.84313 0.0
H126 H 0.61358 0.94255 0.92238 0.0
H127 H 0.61164 1.00584 0.86575 0.0
H128 H 0.63562 0.02168 0.93942 0.0
H129 H 0.53974 0.88905 0.89724 0.0
H130 H 0.62596 0.91591 0.83432 0.0
H131 H 0.63858 0.90906 0.91504 0.0
C132 C 0.28732 0.63944 0.34165 0.0
C133 C 0.2703 0.62268 0.3416 0.0
N134 N 0.25467 0.62785 0.35989 0.0
N135 N 0.28254 0.65523 0.35983 0.0
C136 C 0.2625 0.64776 0.37055 0.0
H137 H 0.30262 0.63971 0.3297 0.0
Co138 Co 0.30179 0.68014 0.36868 0.0
C139 C 0.27952 0.69954 0.41537 0.0
O140 O 0.28043 0.72062 0.40589 0.0
N141 N 0.32134 0.70504 0.37792 0.0
C142 C 0.3434 0.72777 0.40212 0.0
C143 C 0.33343 0.70628 0.39993 0.0
C144 C 0.32466 0.72605 0.36684 0.0
N145 N 0.3378 0.74021 0.38138 0.0
O146 O 0.28076 0.70144 0.3521 0.0
H147 H 0.33393 0.69291 0.41433 0.0
H148 H 0.31654 0.73146 0.34929 0.0
O149 O 0.28644 0.68241 0.40193 0.0
C150 C 0.28632 0.7007 0.32846 0.0
O151 O 0.30312 0.68662 0.32163 0.0
N152 N 0.32343 0.65919 0.38139 0.0
C153 C 0.36102 0.63119 0.39375 0.0
C154 C 0.34231 0.63356 0.41076 0.0
C155 C 0.32331 0.64742 0.40398 0.0
C156 C 0.34113 0.65651 0.36448 0.0
C157 C 0.36004 0.64253 0.3702 0.0
H158 H 0.30899 0.64913 0.41712 0.0
H159 H 0.34073 0.6658 0.34659 0.0
H160 H 0.25396 0.65661 0.38611 0.0
H161 H 0.27006 0.60737 0.32969 0.0
H162 H 0.35332 0.7341 0.41819 0.0
H163 H 0.34249 0.62496 0.4291 0.0
H164 H 0.37423 0.64136 0.35669 0.0
C165 C 0.62113 0.02831 0.59129 0.0
C166 C 0.63595 0.00978 0.59176 0.0
N167 N 0.63173 0.99741 0.61302 0.0
N168 N 0.60743 0.02783 0.6121 0.0
C169 C 0.61437 0.00881 0.6252 0.0
H170 H 0.62046 0.04146 0.57664 0.0
Co171 Co 0.58463 0.05031 0.6166 0.0
C172 C 0.56783 0.04729 0.67044 0.0
O173 O 0.56434 0.06979 0.66958 0.0
N174 N 0.56135 0.07335 0.61945 0.0
C175 C 0.54121 0.10609 0.61539 0.0
C176 C 0.56299 0.09652 0.61571 0.0
C177 C 0.5382 0.06941 0.6214 0.0
N178 N 0.52562 0.089 0.61881 0.0
O179 O 0.56276 0.03113 0.59829 0.0
H180 H 0.57872 0.10613 0.61231 0.0
H181 H 0.53065 0.05231 0.6235 0.0
O182 O 0.57567 0.03683 0.65055 0.0
C183 C 0.5633 0.03804 0.57512 0.0
O184 O 0.57778 0.05482 0.56916 0.0
N185 N 0.60717 0.06999 0.6311 0.0
C186 C 0.63705 0.10602 0.64443 0.0
C187 C 0.62971 0.0898 0.66275 0.0
C188 C 0.61523 0.07141 0.65551 0.0
C189 C 0.61659 0.08375 0.61267 0.0
C190 C 0.63126 0.10208 0.61891 0.0
H191 H 0.6104 0.0588 0.66969 0.0
H192 H 0.61114 0.08162 0.59312 0.0
H193 H 0.60674 1.00329 0.64305 0.0
H194 H 0.64922 1.00602 0.57774 0.0
H195 H 0.53714 0.12421 0.61231 0.0
H196 H 0.63469 0.09161 0.68253 0.0
H197 H 0.63664 0.11393 0.60401 0.0
C198 C 0.23281 0.36901 0.85335 0.0
C199 C 0.25094 0.38436 0.85301 0.0
N200 N 0.26396 0.38076 0.87389 0.0
N201 N 0.23412 0.35566 0.87435 0.0
C202 C 0.25331 0.36327 0.88669 0.0
H203 H 0.21951 0.36755 0.83896 0.0
Co204 Co 0.21279 0.3318 0.87939 0.0
C205 C 0.217 0.31537 0.93326 0.0
O206 O 0.19486 0.30997 0.93266 0.0
N207 N 0.19082 0.30737 0.88274 0.0
C208 C 0.15838 0.28634 0.88105 0.0
C209 C 0.16737 0.30838 0.88165 0.0
C210 C 0.19549 0.2843 0.88303 0.0
N211 N 0.17608 0.2712 0.88173 0.0
O212 O 0.23328 0.31083 0.86176 0.0
H213 H 0.15707 0.32391 0.88063 0.0
H214 H 0.21286 0.27718 0.88307 0.0
O215 O 0.22665 0.32417 0.91335 0.0
C216 C 0.22674 0.31018 0.83851 0.0
O217 O 0.20898 0.32308 0.83183 0.0
N218 N 0.19191 0.35348 0.89336 0.0
C219 C 0.15444 0.38197 0.90544 0.0
C220 C 0.17008 0.37492 0.92439 0.0
C221 C 0.18919 0.36113 0.91782 0.0
C222 C 0.17831 0.36227 0.87448 0.0
C223 C 0.15939 0.37635 0.88007 0.0
H224 H 0.2013 0.35652 0.93253 0.0
H225 H 0.18113 0.35678 0.85503 0.0
H226 H 0.25961 0.35587 0.9043 0.0
H227 H 0.2541 0.39741 0.83858 0.0
H228 H 0.14018 0.28182 0.87977 0.0
H229 H 0.16732 0.37967 0.94413 0.0
H230 H 0.14789 0.38145 0.86478 0.0
C231 C 0.89607 0.99326 0.10567 0.0
C232 C 0.88026 0.01092 0.10757 0.0
N233 N 0.88011 0.0186 0.13179 0.0
N234 N 0.90609 0.98975 0.12849 0.0
C235 C 0.89585 1.00534 0.14422 0.0
H236 H 0.89985 0.98341 0.08866 0.0
Co237 Co 0.92875 0.96714 0.13299 0.0
C238 C 0.94504 0.97006 0.18725 0.0
O239 O 0.94984 0.94781 0.18644 0.0
N240 N 0.95193 0.94399 0.13631 0.0
C241 C 0.97122 0.91065 0.13976 0.0
C242 C 0.94968 0.92063 0.13761 0.0
C243 C 0.97518 0.94761 0.13721 0.0
N244 N 0.98717 0.92766 0.13937 0.0
O245 O 0.95103 0.98688 0.11576 0.0
H246 H 0.93358 0.91111 0.13734 0.0
H247 H 0.98322 0.96459 0.13696 0.0
O248 O 0.93669 0.9801 0.16739 0.0
C249 C 0.95227 0.97969 0.09273 0.0
O250 O 0.93937 0.96182 0.08626 0.0
N251 N 0.90592 0.94706 0.14608 0.0
C252 C 0.87738 0.90898 0.15572 0.0
C253 C 0.88491 0.9233 0.17574 0.0
C254 C 0.89881 0.9427 0.17045 0.0
C255 C 0.89648 0.935 0.12632 0.0
C256 C 0.88232 0.9158 0.13068 0.0
H257 H 0.90417 0.95352 0.18605 0.0
H258 H 0.90159 0.93918 0.10703 0.0
H259 H 0.89992 1.00706 0.16424 0.0
H260 H 0.86932 0.01728 0.09236 0.0
H261 H 0.97493 0.89229 0.14128 0.0
H262 H 0.88071 0.91912 0.19533 0.0
H263 H 0.87684 0.90543 0.11458 0.0
C264 C 0.73263 0.64912 0.85032 0.0
C265 C 0.74969 0.63266 0.84976 0.0
N266 N 0.76002 0.63203 0.87275 0.0
N267 N 0.73204 0.65918 0.87345 0.0
C268 C 0.74898 0.64842 0.88685 0.0
H269 H 0.72122 0.65341 0.83473 0.0
Co270 Co 0.71032 0.68229 0.88011 0.0
C271 C 0.71585 0.69771 0.93436 0.0
O272 O 0.69384 0.70357 0.93437 0.0
N273 N 0.68774 0.70596 0.88508 0.0
C274 C 0.6544 0.72552 0.88551 0.0
C275 C 0.66435 0.7039 0.88596 0.0
C276 C 0.69142 0.72922 0.88447 0.0
N277 N 0.67144 0.74144 0.88432 0.0
O278 O 0.72988 0.70433 0.86253 0.0
H279 H 0.65472 0.68786 0.88612 0.0
H280 H 0.70841 0.73709 0.88283 0.0
O281 O 0.72493 0.68914 0.91401 0.0
C282 C 0.72207 0.70628 0.83982 0.0
O283 O 0.70345 0.69432 0.83373 0.0
N284 N 0.69042 0.65962 0.89379 0.0
C285 C 0.65397 0.62951 0.90515 0.0
C286 C 0.66915 0.63705 0.92435 0.0
C287 C 0.68771 0.65174 0.91816 0.0
C288 C 0.67733 0.6505 0.87465 0.0
C289 C 0.65892 0.63558 0.87988 0.0
H290 H 0.69935 0.65689 0.93311 0.0
H291 H 0.68019 0.65624 0.85529 0.0
H292 H 0.75286 0.65226 0.90655 0.0
H293 H 0.75426 0.62218 0.83342 0.0
H294 H 0.63599 0.72919 0.88541 0.0
H295 H 0.66637 0.63207 0.94402 0.0
H296 H 0.64775 0.63018 0.86441 0.0
C297 C 0.11773 0.98766 0.60595 0.0
C298 C 0.13264 1.00616 0.6056 0.0
N299 N 0.13046 0.01772 0.62775 0.0
N300 N 0.10605 0.98731 0.62819 0.0
C301 C 0.11426 1.00583 0.64128 0.0
H302 H 0.11559 0.97515 0.59082 0.0
Co303 Co 0.08352 0.96471 0.63405 0.0
C304 C 0.0678 0.96871 0.68832 0.0
O305 O 0.06324 0.94639 0.68796 0.0
N306 N 0.06052 0.9415 0.63822 0.0
C307 C 0.04115 0.90808 0.63634 0.0
C308 C 0.06275 0.91818 0.6367 0.0
C309 C 0.03727 0.94499 0.63902 0.0
N310 N 0.02514 0.92499 0.6376 0.0
O311 O 0.06111 0.98375 0.61633 0.0
H312 H 0.07885 0.90882 0.63496 0.0
H313 H 0.02932 0.96199 0.6393 0.0
O314 O 0.0758 0.97855 0.6681 0.0
C315 C 0.06038 0.97613 0.59343 0.0
O316 O 0.07366 0.9584 0.58755 0.0
N317 N 0.10659 0.94525 0.6477 0.0
C318 C 0.13938 0.91083 0.65746 0.0
C319 C 0.13073 0.92463 0.67734 0.0
C320 C 0.11472 0.9423 0.67194 0.0
C321 C 0.11613 0.93303 0.62811 0.0
C322 C 0.13239 0.91573 0.63253 0.0
H323 H 0.10903 0.95324 0.68732 0.0
H324 H 0.11004 0.93591 0.60892 0.0
H325 H 0.10831 0.01068 0.6601 0.0
H326 H 0.14454 0.01046 0.59034 0.0
H327 H 0.03753 0.88971 0.63465 0.0
H328 H 0.13623 0.92175 0.6968 0.0
H329 H 0.13853 0.9055 0.61658 0.0
C330 C 0.78912 0.37694 0.3673 0.0
C331 C 0.77142 0.39235 0.36302 0.0
N332 N 0.75185 0.38362 0.37326 0.0
N333 N 0.781 0.35854 0.38055 0.0
C334 C 0.75802 0.36291 0.38331 0.0
H335 H 0.80677 0.37919 0.36088 0.0
Co336 Co 0.79808 0.33191 0.39008 0.0
C337 C 0.77339 0.34457 0.43932 0.0
O338 O 0.77412 0.36675 0.43354 0.0
N339 N 0.81488 0.30554 0.39904 0.0
C340 C 0.83539 0.28022 0.42153 0.0
C341 C 0.82353 0.30081 0.42235 0.0
C342 C 0.82147 0.28738 0.3844 0.0
N343 N 0.83401 0.2718 0.39771 0.0
O344 O 0.77549 0.31248 0.37301 0.0
H345 H 0.82136 0.31158 0.43901 0.0
H346 H 0.8175 0.28573 0.36436 0.0
O347 O 0.78172 0.32968 0.42362 0.0
C348 C 0.78018 0.31388 0.34918 0.0
O349 O 0.79677 0.32814 0.34203 0.0
N350 N 0.82234 0.35047 0.40305 0.0
C351 C 0.86383 0.37443 0.41158 0.0
C352 C 0.84808 0.37052 0.4316 0.0
C353 C 0.82738 0.35839 0.42697 0.0
C354 C 0.8379 0.35351 0.38377 0.0
C355 C 0.85846 0.36571 0.38745 0.0
H356 H 0.81628 0.35467 0.44293 0.0
H357 H 0.83429 0.34621 0.36524 0.0
H358 H 0.74611 0.35123 0.39284 0.0
H359 H 0.77303 0.40906 0.35377 0.0
H360 H 0.84409 0.27185 0.43732 0.0
H361 H 0.85187 0.37653 0.45069 0.0
H362 H 0.87043 0.3676 0.37164 0.0
C363 C 0.39814 0.02284 0.08847 0.0
C364 C 0.38205 1.00533 0.08969 0.0
N365 N 0.38068 0.99786 0.11396 0.0
N366 N 0.40707 0.02653 0.1118 0.0
C367 C 0.39595 0.01115 0.12708 0.0
H368 H 0.40286 0.03244 0.07156 0.0
Co369 Co 0.42997 0.04883 0.11768 0.0
C370 C 0.45158 0.02142 0.1618 0.0
O371 O 0.46933 0.0126 0.14943 0.0
N372 N 0.45288 0.07143 0.12255 0.0
C373 C 0.47139 0.10494 0.11741 0.0
C374 C 0.45028 0.09398 0.1162 0.0
C375 C 0.47579 0.06909 0.12751 0.0
N376 N 0.48745 0.08924 0.12434 0.0
O377 O 0.45197 0.03034 0.09867 0.0
H378 H 0.43429 0.10171 0.10967 0.0
H379 H 0.48407 0.05264 0.13139 0.0
O380 O 0.43718 0.03446 0.15025 0.0
C381 C 0.45346 0.03902 0.07628 0.0
O382 O 0.44081 0.05739 0.0711 0.0
N383 N 0.40827 0.06804 0.13386 0.0
C384 C 0.38337 0.10706 0.14934 0.0
C385 C 0.39846 0.09571 0.16623 0.0
C386 C 0.41099 0.07638 0.15803 0.0
C387 C 0.3922 0.07753 0.11798 0.0
C388 C 0.37953 0.09706 0.12533 0.0
H389 H 0.42429 0.06959 0.17038 0.0
H390 H 0.39075 0.07129 0.09864 0.0
H391 H 0.39912 0.00954 0.14731 0.0
H392 H 0.37182 0.9989 0.07393 0.0
H393 H 0.47482 0.12291 0.11266 0.0
H394 H 0.40174 0.10259 0.18507 0.0
H395 H 0.36836 0.1053 0.11148 0.0
C396 C 0.73705 0.36335 0.70268 0.0
C397 C 0.7547 0.3793 0.70335 0.0
N398 N 0.76489 0.38001 0.68023 0.0
N399 N 0.73581 0.35396 0.67924 0.0
C400 C 0.75299 0.36447 0.6659 0.0
H401 H 0.72568 0.359 0.71837 0.0
Co402 Co 0.71425 0.33095 0.67091 0.0
C403 C 0.74259 0.312 0.62577 0.0
O404 O 0.75061 0.29331 0.63701 0.0
N405 N 0.69243 0.30775 0.6636 0.0
C406 C 0.65928 0.28803 0.66491 0.0
C407 C 0.66927 0.30958 0.66695 0.0
C408 C 0.69609 0.28485 0.6596 0.0
N409 N 0.67621 0.27245 0.66054 0.0
O410 O 0.73279 0.30844 0.68905 0.0
H411 H 0.66026 0.32532 0.67215 0.0
H412 H 0.71314 0.27714 0.65828 0.0
O413 O 0.72958 0.32599 0.63808 0.0
C414 C 0.72356 0.30637 0.71115 0.0
O415 O 0.70495 0.31875 0.71615 0.0
N416 N 0.69489 0.3532 0.65584 0.0
C417 C 0.6562 0.37909 0.64134 0.0
C418 C 0.6681 0.3653 0.62354 0.0
C419 C 0.68735 0.35232 0.6312 0.0
C420 C 0.68461 0.3678 0.67286 0.0
C421 C 0.66533 0.38098 0.666 0.0
H422 H 0.69475 0.34014 0.61787 0.0
H423 H 0.69003 0.36767 0.69254 0.0
H424 H 0.75685 0.36062 0.6462 0.0
H425 H 0.75931 0.38984 0.71962 0.0
H426 H 0.64108 0.28402 0.66754 0.0
H427 H 0.66177 0.36344 0.60424 0.0
H428 H 0.65657 0.39098 0.68057 0.0
C429 C 0.38992 0.97217 0.41736 0.0
C430 C 0.37329 0.98861 0.42241 0.0
N431 N 0.38155 0.00948 0.41525 0.0
N432 N 0.40865 0.98245 0.40671 0.0
C433 C 0.40318 1.00531 0.40629 0.0
H434 H 0.38821 0.95387 0.42126 0.0
Co435 Co 0.43685 0.96822 0.3968 0.0
C436 C 0.42212 0.99375 0.34893 0.0
O437 O 0.40008 0.99221 0.35519 0.0
N438 N 0.46484 0.95436 0.38731 0.0
C439 C 0.49335 0.94077 0.36302 0.0
C440 C 0.47055 0.94757 0.3635 0.0
C441 C 0.48437 0.95106 0.40112 0.0
N442 N 0.50202 0.94306 0.38666 0.0
O443 O 0.45393 0.99211 0.41458 0.0
H444 H 0.45911 0.94825 0.34723 0.0
H445 H 0.486 0.95547 0.42106 0.0
O446 O 0.43756 0.98548 0.36394 0.0
C447 C 0.45275 0.987 0.4383 0.0
O448 O 0.4399 0.96916 0.44505 0.0
N449 N 0.42074 0.94282 0.38288 0.0
C450 C 0.39736 0.90113 0.37425 0.0
C451 C 0.39956 0.91763 0.35472 0.0
C452 C 0.41147 0.93847 0.35939 0.0
C453 C 0.41997 0.92626 0.40135 0.0
C454 C 0.40821 0.9055 0.39759 0.0
H455 H 0.41331 0.95061 0.34398 0.0
H456 H 0.42812 0.92956 0.41952 0.0
H457 H 0.41474 0.01858 0.399 0.0
H458 H 0.35611 0.98529 0.42996 0.0
H459 H 0.50298 0.93501 0.34647 0.0
H460 H 0.39185 0.91462 0.33621 0.0
H461 H 0.40761 0.89294 0.41294 0.0
C462 C 0.77574 0.65194 0.19236 0.0
C463 C 0.75872 0.63544 0.19348 0.0
N464 N 0.74965 0.63278 0.17003 0.0
N465 N 0.77755 0.6601 0.1684 0.0
C466 C 0.76138 0.64808 0.15507 0.0
H467 H 0.78633 0.65754 0.20816 0.0
Co468 Co 0.79983 0.68264 0.16099 0.0
C469 C 0.79427 0.69723 0.1065 0.0
O470 O 0.81646 0.70242 0.10624 0.0
N471 N 0.82284 0.70566 0.15531 0.0
C472 C 0.85636 0.72492 0.15573 0.0
C473 C 0.84618 0.70336 0.1561 0.0
C474 C 0.8194 0.72892 0.1542 0.0
N475 N 0.83949 0.74099 0.15474 0.0
O476 O 0.78104 0.7054 0.17865 0.0
H477 H 0.85548 0.68723 0.15795 0.0
H478 H 0.80243 0.73692 0.15443 0.0
O479 O 0.78502 0.68927 0.12709 0.0
C480 C 0.78986 0.70784 0.20088 0.0
O481 O 0.80876 0.69607 0.20623 0.0
N482 N 0.81909 0.65934 0.14751 0.0
C483 C 0.85374 0.62668 0.13819 0.0
C484 C 0.84016 0.63527 0.11813 0.0
C485 C 0.8224 0.65125 0.12329 0.0
C486 C 0.83107 0.64987 0.16727 0.0
C487 C 0.84849 0.63366 0.16307 0.0
H488 H 0.81175 0.65696 0.10774 0.0
H489 H 0.82785 0.65595 0.18643 0.0
H490 H 0.75859 0.65021 0.13483 0.0
H491 H 0.75335 0.62629 0.21049 0.0
H492 H 0.87478 0.72849 0.15684 0.0
H493 H 0.84331 0.62978 0.09871 0.0
H494 H 0.85853 0.62755 0.17915 0.0
C495 C 0.11582 0.02457 0.9436 0.0
C496 C 0.131 1.00634 0.94295 0.0
N497 N 0.1303 0.99675 0.91956 0.0
N498 N 0.10537 0.02668 0.92081 0.0
C499 C 0.11464 0.00955 0.90637 0.0
H500 H 0.11295 0.03595 0.95964 0.0
Co501 Co 0.08405 0.05036 0.91512 0.0
C502 C 0.06548 0.04519 0.86165 0.0
O503 O 0.05867 0.0669 0.86213 0.0
N504 N 0.06237 0.07509 0.91101 0.0
C505 C 0.04662 0.11032 0.90832 0.0
C506 C 0.06685 0.09789 0.90713 0.0
C507 C 0.03898 0.07432 0.91431 0.0
N508 N 0.02908 0.09554 0.91311 0.0
O509 O 0.06082 0.03261 0.93333 0.0
H510 H 0.08368 0.10551 0.9039 0.0
H511 H 0.0294 0.05861 0.91836 0.0
O512 O 0.0753 0.03639 0.88142 0.0
C513 C 0.05997 0.04002 0.9563 0.0
O514 O 0.07361 0.05739 0.96258 0.0
N515 N 0.10792 0.0683 0.90069 0.0
C516 C 0.1382 0.10418 0.88782 0.0
C517 C 0.12895 0.08962 0.86891 0.0
C518 C 0.11403 0.07145 0.87578 0.0
C519 C 0.11891 0.08046 0.91938 0.0
C520 C 0.13399 0.09858 0.9134 0.0
H521 H 0.10694 0.06077 0.86092 0.0
H522 H 0.1143 0.07739 0.93907 0.0
H523 H 0.1101 1.00659 0.88666 0.0
H524 H 0.14226 1.00108 0.95837 0.0
H525 H 0.04506 0.12891 0.90602 0.0
H526 H 0.13243 0.09283 0.84894 0.0
H527 H 0.14068 0.10922 0.92871 0.0
C528 C 0.77871 0.87051 0.68906 0.0
C529 C 0.76036 0.88557 0.68865 0.0
N530 N 0.74817 0.88186 0.66718 0.0
N531 N 0.77834 0.85724 0.66795 0.0
C532 C 0.75953 0.8646 0.65481 0.0
H533 H 0.79152 0.86921 0.70399 0.0
Co534 Co 0.80016 0.8338 0.66347 0.0
C535 C 0.79717 0.81735 0.60947 0.0
O536 O 0.81935 0.81225 0.61056 0.0
N537 N 0.82255 0.80977 0.6606 0.0
C538 C 0.85519 0.78922 0.66319 0.0
C539 C 0.84594 0.81113 0.66235 0.0
C540 C 0.81817 0.78663 0.66016 0.0
N541 N 0.83769 0.77381 0.662 0.0
O542 O 0.77971 0.81247 0.68078 0.0
H543 H 0.856 0.82683 0.66374 0.0
H544 H 0.8009 0.77928 0.65964 0.0
O545 O 0.78705 0.82594 0.62919 0.0
C546 C 0.78626 0.81193 0.70404 0.0
O547 O 0.80389 0.82509 0.71068 0.0
N548 N 0.82095 0.85585 0.64997 0.0
C549 C 0.85829 0.885 0.63905 0.0
C550 C 0.84324 0.87769 0.61962 0.0
C551 C 0.82418 0.86354 0.6256 0.0
C552 C 0.8339 0.86488 0.66926 0.0
C553 C 0.85274 0.8793 0.66426 0.0
H554 H 0.81256 0.85867 0.61051 0.0
H555 H 0.83065 0.85936 0.68862 0.0
H556 H 0.754 0.8572 0.63688 0.0
H557 H 0.75652 0.89852 0.70297 0.0
H558 H 0.8734 0.78496 0.66502 0.0
H559 H 0.84646 0.88246 0.59997 0.0
H560 H 0.86377 0.88455 0.67992 0.0
C561 C 0.39223 0.52969 0.94269 0.0
C562 C 0.3773 0.5112 0.94301 0.0
N563 N 0.3806 0.49877 0.92161 0.0
N564 N 0.40501 0.52917 0.92119 0.0
C565 C 0.39748 0.51012 0.90853 0.0
H566 H 0.39378 0.54271 0.95739 0.0
Co567 Co 0.42815 0.55121 0.9159 0.0
C568 C 0.44515 0.54661 0.86207 0.0
O569 O 0.45026 0.56881 0.86246 0.0
N570 N 0.45181 0.57391 0.91229 0.0
C571 C 0.47175 0.607 0.91416 0.0
C572 C 0.45002 0.5973 0.91357 0.0
C573 C 0.47502 0.57 0.9119 0.0
N574 N 0.48746 0.58981 0.91329 0.0
O575 O 0.44972 0.5317 0.93419 0.0
H576 H 0.43414 0.60705 0.91487 0.0
H577 H 0.48269 0.55287 0.91179 0.0
O578 O 0.43639 0.53707 0.88208 0.0
C579 C 0.45032 0.53926 0.9571 0.0
O580 O 0.43726 0.5572 0.96286 0.0
N581 N 0.40587 0.57118 0.90151 0.0
C582 C 0.37733 0.60846 0.88896 0.0
C583 C 0.38492 0.59292 0.8701 0.0
C584 C 0.39877 0.57393 0.87688 0.0
C585 C 0.39634 0.58446 0.92027 0.0
C586 C 0.38223 0.60331 0.91446 0.0
H587 H 0.40399 0.56205 0.86217 0.0
H588 H 0.4014 0.58162 0.93983 0.0
H589 H 0.40448 0.50443 0.89045 0.0
H590 H 0.36472 0.50742 0.95778 0.0
H591 H 0.4757 0.62532 0.91566 0.0
H592 H 0.38071 0.59577 0.85025 0.0
H593 H 0.37671 0.61468 0.92972 0.0
C594 C 0.72294 0.14154 0.19746 0.0
C595 C 0.73951 0.1244 0.19878 0.0
N596 N 0.75715 0.1301 0.18305 0.0
N597 N 0.73002 0.15802 0.18097 0.0
C598 C 0.75096 0.15065 0.17262 0.0
H599 H 0.70655 0.14177 0.20754 0.0
Co600 Co 0.71341 0.1845 0.17143 0.0
C601 C 0.73934 0.20027 0.12521 0.0
O602 O 0.74193 0.22109 0.13499 0.0
N603 N 0.69677 0.21102 0.16141 0.0
C604 C 0.67843 0.23603 0.13628 0.0
C605 C 0.68614 0.21364 0.13868 0.0
C606 C 0.69484 0.23206 0.17274 0.0
N607 N 0.68398 0.2476 0.15766 0.0
O608 O 0.73633 0.20392 0.18793 0.0
H609 H 0.68507 0.20042 0.12413 0.0
H610 H 0.70232 0.23635 0.191 0.0
O611 O 0.72921 0.18449 0.13826 0.0
C612 C 0.73103 0.20322 0.21164 0.0
O613 O 0.71349 0.19005 0.2186 0.0
N614 N 0.68971 0.16564 0.15894 0.0
C615 C 0.65045 0.1393 0.1479 0.0
C616 C 0.66955 0.13941 0.13121 0.0
C617 C 0.68932 0.1525 0.1373 0.0
C618 C 0.67141 0.16554 0.17534 0.0
C619 C 0.65166 0.15245 0.17027 0.0
H620 H 0.70408 0.15212 0.12466 0.0
H621 H 0.6722 0.17586 0.19252 0.0
H622 H 0.76144 0.16018 0.15907 0.0
H623 H 0.73824 0.1086 0.20984 0.0
H624 H 0.66997 0.24346 0.11979 0.0
H625 H 0.66925 0.12935 0.1138 0.0
H626 H 0.63722 0.15306 0.1835 0.0
C627 C 0.11785 0.49229 0.44834 0.0
C628 C 0.13368 0.50993 0.44581 0.0
N629 N 0.13473 0.51614 0.4211 0.0
N630 N 0.10876 0.48726 0.42538 0.0
C631 C 0.11951 0.50198 0.40903 0.0
H632 H 0.11343 0.48349 0.46586 0.0
Co633 Co 0.08626 0.46426 0.42099 0.0
C634 C 0.06333 0.48941 0.37619 0.0
O635 O 0.04544 0.49791 0.38857 0.0
N636 N 0.06371 0.44096 0.41762 0.0
C637 C 0.04629 0.40702 0.42402 0.0
C638 C 0.06717 0.41846 0.42366 0.0
C639 C 0.04046 0.44279 0.41447 0.0
N640 N 0.02945 0.42237 0.4185 0.0
O641 O 0.06408 0.4831 0.43932 0.0
H642 H 0.08365 0.41103 0.42902 0.0
H643 H 0.03161 0.45907 0.41139 0.0
O644 O 0.07834 0.4772 0.38791 0.0
C645 C 0.06271 0.47551 0.46218 0.0
O646 O 0.07577 0.45774 0.4685 0.0
N647 N 0.10822 0.44485 0.4054 0.0
C648 C 0.13327 0.40541 0.39157 0.0
C649 C 0.11796 0.41597 0.37432 0.0
C650 C 0.10538 0.43555 0.38169 0.0
C651 C 0.12461 0.43622 0.42149 0.0
C652 C 0.13736 0.41648 0.41495 0.0
H653 H 0.09188 0.44169 0.36918 0.0
H654 H 0.12623 0.44328 0.44047 0.0
H655 H 0.11615 0.50244 0.38878 0.0
H656 H 0.14399 0.51727 0.46102 0.0
H657 H 0.04362 0.38898 0.42898 0.0
H658 H 0.1145 0.40827 0.3559 0.0
H659 H 0.14876 0.40891 0.42904 0.0
C660 C 0.79422 0.13721 0.87033 0.0
C661 C 0.77805 0.12071 0.86373 0.0
N662 N 0.75676 0.12905 0.8691 0.0
N663 N 0.78329 0.15584 0.88022 0.0
C664 C 0.76045 0.15059 0.87852 0.0
H665 H 0.81281 0.13551 0.86833 0.0
Co666 Co 0.79715 0.18338 0.89202 0.0
C667 C 0.76869 0.16789 0.93863 0.0
O668 O 0.76636 0.14637 0.93081 0.0
N669 N 0.81091 0.2108 0.90363 0.0
C670 C 0.82827 0.23564 0.92967 0.0
C671 C 0.81808 0.21425 0.92779 0.0
C672 C 0.81693 0.23046 0.89112 0.0
N673 N 0.82761 0.24583 0.90661 0.0
O674 O 0.77377 0.2013 0.87454 0.0
H675 H 0.81637 0.20179 0.94309 0.0
H676 H 0.81412 0.23323 0.87098 0.0
O677 O 0.77943 0.18265 0.92463 0.0
C678 C 0.78084 0.20189 0.85139 0.0
O679 O 0.79985 0.19041 0.84569 0.0
N680 N 0.82218 0.1666 0.90561 0.0
C681 C 0.86492 0.14664 0.91702 0.0
C682 C 0.84531 0.14146 0.93184 0.0
C683 C 0.82394 0.15184 0.92591 0.0
C684 C 0.84104 0.17106 0.89069 0.0
C685 C 0.86256 0.16152 0.89619 0.0
H686 H 0.80921 0.14797 0.93772 0.0
H687 H 0.83933 0.18246 0.87444 0.0
H688 H 0.74683 0.16217 0.88481 0.0
H689 H 0.7818 0.10353 0.8565 0.0
H690 H 0.83558 0.24316 0.94676 0.0
H691 H 0.8466 0.12995 0.94808 0.0
H692 H 0.87728 0.16569 0.88414 0.0
C693 C 0.12489 0.53901 0.12144 0.0
C694 C 0.14141 0.52238 0.11663 0.0
N695 N 0.13265 0.50153 0.12314 0.0
N696 N 0.10575 0.52884 0.1313 0.0
C697 C 0.11083 0.50591 0.13141 0.0
H698 H 0.12702 0.55737 0.11815 0.0
Co699 Co 0.07773 0.54331 0.14128 0.0
C700 C 0.09208 0.51713 0.18897 0.0
O701 O 0.11412 0.51791 0.18257 0.0
N702 N 0.04991 0.55741 0.15097 0.0
C703 C 0.02203 0.5717 0.17564 0.0
C704 C 0.04476 0.5647 0.17475 0.0
C705 C 0.03012 0.56059 0.13758 0.0
N706 N 0.01283 0.56901 0.1523 0.0
O707 O 0.06041 0.51974 0.12324 0.0
H708 H 0.05656 0.56426 0.19072 0.0
H709 H 0.02805 0.55585 0.11778 0.0
O710 O 0.07684 0.52596 0.1741 0.0
C711 C 0.06192 0.52541 0.09968 0.0
O712 O 0.07483 0.54343 0.09367 0.0
N713 N 0.09415 0.56842 0.1552 0.0
C714 C 0.11955 0.60904 0.16236 0.0
C715 C 0.11785 0.59257 0.18197 0.0
C716 C 0.10492 0.5722 0.17802 0.0
C717 C 0.09428 0.58515 0.13691 0.0
C718 C 0.10701 0.60541 0.13994 0.0
H719 H 0.1038 0.55984 0.19329 0.0
H720 H 0.08509 0.58224 0.11927 0.0
H721 H 0.09892 0.49275 0.13823 0.0
H722 H 0.15888 0.52558 0.10988 0.0
H723 H 0.01284 0.57794 0.19228 0.0
H724 H 0.12694 0.5951 0.19979 0.0
H725 H 0.10734 0.61801 0.12462 0.0
C726 C 0.74024 0.86449 0.35425 0.0
C727 C 0.75863 0.87954 0.35419 0.0
N728 N 0.76902 0.87857 0.37711 0.0
N729 N 0.73876 0.85389 0.37706 0.0
C730 C 0.75651 0.86292 0.39079 0.0
H731 H 0.72855 0.86153 0.33852 0.0
Co732 Co 0.71581 0.83159 0.38275 0.0
C733 C 0.72016 0.81456 0.43667 0.0
O734 O 0.6982 0.80852 0.43603 0.0
N735 N 0.69216 0.80885 0.38672 0.0
C736 C 0.65801 0.7907 0.38615 0.0
C737 C 0.66889 0.8119 0.38679 0.0
C738 C 0.69484 0.78546 0.3862 0.0
N739 N 0.67435 0.77406 0.38557 0.0
O740 O 0.73465 0.8091 0.36488 0.0
H741 H 0.66004 0.82837 0.38653 0.0
H742 H 0.71153 0.77693 0.38518 0.0
O743 O 0.72958 0.82367 0.41678 0.0
C744 C 0.72671 0.80798 0.34214 0.0
O745 O 0.70865 0.82087 0.33643 0.0
N746 N 0.69656 0.85475 0.39658 0.0
C747 C 0.66125 0.88662 0.40642 0.0
C748 C 0.67413 0.877 0.42648 0.0
C749 C 0.69217 0.86139 0.42112 0.0
C750 C 0.68528 0.86524 0.37694 0.0
C751 C 0.66759 0.88111 0.38138 0.0
H752 H 0.70203 0.85461 0.43679 0.0
H753 H 0.68907 0.86008 0.35759 0.0
H754 H 0.76035 0.85797 0.4102 0.0
H755 H 0.76364 0.89072 0.33855 0.0
H756 H 0.63946 0.78782 0.38568 0.0
H757 H 0.6701 0.88127 0.44608 0.0
H758 H 0.65808 0.88793 0.36527 0.0
C759 C 0.40154 0.4907 0.60574 0.0
C760 C 0.38596 0.50859 0.60629 0.0
N761 N 0.38451 0.51654 0.63034 0.0
N762 N 0.41018 0.4873 0.62926 0.0
C763 C 0.39926 0.50319 0.64406 0.0
H764 H 0.40609 0.4806 0.58915 0.0
Co765 Co 0.43214 0.46425 0.63511 0.0
C766 C 0.44922 0.46946 0.68908 0.0
O767 O 0.45531 0.44752 0.68892 0.0
N768 N 0.45454 0.44045 0.63948 0.0
C769 C 0.47234 0.40617 0.63982 0.0
C770 C 0.45125 0.41721 0.63991 0.0
C771 C 0.47796 0.44294 0.63926 0.0
N772 N 0.48915 0.42237 0.63921 0.0
O773 O 0.45505 0.48266 0.61696 0.0
H774 H 0.43471 0.40847 0.63963 0.0
H775 H 0.48667 0.45955 0.63816 0.0
O776 O 0.44015 0.47843 0.66897 0.0
C777 C 0.45649 0.47441 0.59435 0.0
O778 O 0.44367 0.45624 0.58875 0.0
N779 N 0.4087 0.44543 0.64913 0.0
C780 C 0.37897 0.40859 0.66027 0.0
C781 C 0.38785 0.42266 0.67984 0.0
C782 C 0.40244 0.44135 0.67383 0.0
C783 C 0.39805 0.43369 0.62988 0.0
C784 C 0.38327 0.41512 0.63498 0.0
H785 H 0.40903 0.45176 0.68917 0.0
H786 H 0.40267 0.43754 0.61036 0.0
H787 H 0.40213 0.50503 0.66432 0.0
H788 H 0.37602 0.51493 0.59026 0.0
H789 H 0.47503 0.38759 0.63982 0.0
H790 H 0.38425 0.41873 0.69963 0.0
H791 H 0.37683 0.4049 0.6192 0.0
C792 C 0.24456 0.15112 0.35422 0.0
C793 C 0.26326 0.13649 0.35528 0.0
N794 N 0.27056 0.13539 0.37957 0.0
N795 N 0.24008 0.15951 0.37767 0.0
C796 C 0.25608 0.14935 0.39292 0.0
H797 H 0.23479 0.15533 0.33731 0.0
Co798 Co 0.21634 0.18085 0.3831 0.0
C799 C 0.22098 0.19865 0.43677 0.0
O800 O 0.19875 0.20362 0.43677 0.0
N801 N 0.19198 0.20269 0.38721 0.0
C802 C 0.1574 0.2199 0.38774 0.0
C803 C 0.1688 0.19899 0.38755 0.0
C804 C 0.19408 0.22614 0.38727 0.0
N805 N 0.17332 0.237 0.3874 0.0
O806 O 0.23409 0.20395 0.36447 0.0
H807 H 0.16035 0.18231 0.38711 0.0
H808 H 0.21056 0.23512 0.38639 0.0
O809 O 0.23028 0.18985 0.41668 0.0
C810 C 0.22563 0.20493 0.34195 0.0
O811 O 0.20775 0.19158 0.3367 0.0
N812 N 0.19817 0.15712 0.39763 0.0
C813 C 0.16225 0.12656 0.4098 0.0
C814 C 0.17655 0.13579 0.42896 0.0
C815 C 0.19479 0.15079 0.42243 0.0
C816 C 0.18633 0.1461 0.37872 0.0
C817 C 0.16817 0.13094 0.38434 0.0
H818 H 0.20545 0.15756 0.43746 0.0
H819 H 0.18974 0.15068 0.35909 0.0
H820 H 0.2573 0.15232 0.41322 0.0
H821 H 0.2707 0.12704 0.33943 0.0
H822 H 0.13878 0.22226 0.38785 0.0
H823 H 0.17318 0.13211 0.44886 0.0
H824 H 0.15779 0.12421 0.36883 0.0
C825 C 0.60977 0.49042 0.10481 0.0
C826 C 0.62536 0.50835 0.10463 0.0
N827 N 0.6267 0.5171 0.12833 0.0
N828 N 0.601 0.48777 0.12844 0.0
C829 C 0.61186 0.50418 0.14258 0.0
H830 H 0.60527 0.47978 0.08862 0.0
Co831 Co 0.57871 0.46498 0.13476 0.0
C832 C 0.56234 0.46985 0.18889 0.0
O833 O 0.55684 0.44774 0.18855 0.0
N834 N 0.55593 0.4415 0.13934 0.0
C835 C 0.53731 0.40761 0.13853 0.0
C836 C 0.55868 0.4182 0.13883 0.0
C837 C 0.53258 0.44449 0.13957 0.0
N838 N 0.5209 0.42418 0.13878 0.0
O839 O 0.55602 0.48363 0.11685 0.0
H840 H 0.57501 0.40915 0.13779 0.0
H841 H 0.52426 0.46129 0.13905 0.0
O842 O 0.57102 0.47925 0.16874 0.0
C843 C 0.55435 0.4753 0.09431 0.0
O844 O 0.56685 0.45693 0.08867 0.0
N845 N 0.60196 0.4459 0.14862 0.0
C846 C 0.63342 0.41041 0.1592 0.0
C847 C 0.62453 0.42433 0.17888 0.0
C848 C 0.60912 0.44241 0.17313 0.0
C849 C 0.61207 0.43393 0.12921 0.0
C850 C 0.62763 0.41603 0.13402 0.0
H851 H 0.60293 0.45306 0.1885 0.0
H852 H 0.60676 0.43731 0.10982 0.0
H853 H 0.60887 0.5067 0.16274 0.0
H854 H 0.63542 0.51413 0.08838 0.0
H855 H 0.53414 0.38912 0.13757 0.0
H856 H 0.62917 0.42107 0.19853 0.0
H857 H 0.63394 0.40584 0.11814 0.0
C858 C 0.27674 0.86686 0.83929 0.0
C859 C 0.25887 0.88252 0.83922 0.0
N860 N 0.24874 0.8824 0.86238 0.0
N861 N 0.27821 0.8568 0.86239 0.0
C862 C 0.26091 0.86665 0.87614 0.0
H863 H 0.28813 0.86323 0.82342 0.0
Co864 Co 0.30029 0.83398 0.86981 0.0
C865 C 0.27315 0.81266 0.91429 0.0
O866 O 0.26621 0.79386 0.90241 0.0
N867 N 0.32263 0.81099 0.87624 0.0
C868 C 0.35613 0.79191 0.87479 0.0
C869 C 0.34581 0.81335 0.8734 0.0
C870 C 0.31932 0.7879 0.8792 0.0
N871 N 0.3394 0.77589 0.87823 0.0
O872 O 0.28214 0.81159 0.85114 0.0
H873 H 0.35466 0.82942 0.86908 0.0
H874 H 0.30242 0.7798 0.87983 0.0
O875 O 0.28528 0.8278 0.90252 0.0
C876 C 0.29122 0.81059 0.8289 0.0
O877 O 0.3093 0.82385 0.82413 0.0
N878 N 0.3193 0.85621 0.88541 0.0
C879 C 0.35798 0.88206 0.90001 0.0
C880 C 0.34624 0.86798 0.91771 0.0
C881 C 0.32693 0.85506 0.91 0.0
C882 C 0.32936 0.87115 0.86858 0.0
C883 C 0.34862 0.88433 0.8755 0.0
H884 H 0.31958 0.84269 0.92321 0.0
H885 H 0.32383 0.87126 0.84894 0.0
H886 H 0.25718 0.86221 0.89573 0.0
H887 H 0.25408 0.89346 0.82334 0.0
H888 H 0.37444 0.78834 0.87244 0.0
H889 H 0.35277 0.86583 0.93689 0.0
H890 H 0.35726 0.89458 0.86101 0.0
C891 C 0.8965 0.52659 0.60691 0.0
C892 C 0.88139 0.50826 0.6073 0.0
N893 N 0.88266 0.49795 0.63028 0.0
N894 N 0.90743 0.52806 0.62949 0.0
C895 C 0.89857 0.51042 0.64352 0.0
H896 H 0.89912 0.53838 0.59116 0.0
Co897 Co 0.92914 0.55138 0.63503 0.0
C898 C 0.94566 0.54791 0.6892 0.0
O899 O 0.95069 0.57012 0.68851 0.0
N900 N 0.95131 0.57561 0.63897 0.0
C901 C 0.96828 0.61036 0.63949 0.0
C902 C 0.94753 0.59875 0.64051 0.0
C903 C 0.97475 0.57378 0.63738 0.0
N904 N 0.98538 0.59467 0.63728 0.0
O905 O 0.95226 0.5328 0.61771 0.0
H906 H 0.93088 0.60713 0.64176 0.0
H907 H 0.98388 0.55752 0.63519 0.0
O908 O 0.9372 0.53805 0.66927 0.0
C909 C 0.95345 0.53994 0.59465 0.0
O910 O 0.94011 0.55739 0.58797 0.0
N911 N 0.90538 0.57014 0.64843 0.0
C912 C 0.87524 0.60655 0.65949 0.0
C913 C 0.88339 0.59194 0.67896 0.0
C914 C 0.89815 0.57343 0.67295 0.0
C915 C 0.89536 0.58233 0.62913 0.0
C916 C 0.88039 0.60072 0.6342 0.0
H917 H 0.90409 0.56247 0.68817 0.0
H918 H 0.90069 0.57908 0.6097 0.0
H919 H 0.90368 0.50677 0.66293 0.0
H920 H 0.86986 0.50336 0.59197 0.0
H921 H 0.97055 0.62901 0.63987 0.0
H922 H 0.87907 0.5953 0.6987 0.0
H923 H 0.87452 0.61136 0.61849 0.0
C924 C 0.22582 0.87071 0.18035 0.0
C925 C 0.24214 0.88813 0.18165 0.0
N926 N 0.25869 0.88395 0.16404 0.0
N927 N 0.23193 0.85561 0.16193 0.0
C928 C 0.25209 0.86402 0.15248 0.0
H929 H 0.21022 0.86937 0.19174 0.0
Co930 Co 0.21531 0.82903 0.15221 0.0
C931 C 0.22472 0.8366 0.09538 0.0
O932 O 0.20464 0.84668 0.09188 0.0
N933 N 0.19922 0.80182 0.1422 0.0
C934 C 0.17964 0.7761 0.11902 0.0
C935 C 0.1878 0.79841 0.12004 0.0
C936 C 0.19724 0.78125 0.15458 0.0
N937 N 0.18562 0.76533 0.14071 0.0
O938 O 0.2394 0.80988 0.16679 0.0
H939 H 0.18513 0.8113 0.10553 0.0
H940 H 0.20456 0.7777 0.17309 0.0
O941 O 0.23061 0.82921 0.11758 0.0
C942 C 0.23435 0.80981 0.19061 0.0
O943 O 0.21619 0.82183 0.19806 0.0
N944 N 0.18972 0.84803 0.14285 0.0
C945 C 0.14986 0.87579 0.14276 0.0
C946 C 0.1707 0.88407 0.13225 0.0
C947 C 0.19067 0.87012 0.13317 0.0
C948 C 0.1696 0.84031 0.15374 0.0
C949 C 0.14952 0.85354 0.15332 0.0
H950 H 0.207 0.87728 0.12666 0.0
H951 H 0.16917 0.82415 0.16412 0.0
H952 H 0.26177 0.85562 0.13743 0.0
H953 H 0.24143 0.90305 0.19412 0.0
H954 H 0.16986 0.76839 0.10358 0.0
H955 H 0.1718 0.90145 0.12451 0.0
H956 H 0.1339 0.84654 0.16194 0.0
C957 C 0.90294 0.4971 0.94635 0.0
C958 C 0.88761 0.51517 0.94506 0.0
N959 N 0.88508 0.5212 0.92049 0.0
N960 N 0.91039 0.49166 0.92273 0.0
C961 C 0.89896 0.50654 0.9072 0.0
H962 H 0.90802 0.48829 0.96359 0.0
Co963 Co 0.93197 0.46791 0.91727 0.0
C964 C 0.95048 0.47325 0.86342 0.0
O965 O 0.95835 0.4519 0.86401 0.0
N966 N 0.95385 0.44376 0.91348 0.0
C967 C 0.97153 0.40953 0.91636 0.0
C968 C 0.95043 0.42066 0.9159 0.0
C969 C 0.97723 0.44616 0.91272 0.0
N970 N 0.98837 0.42564 0.91442 0.0
O971 O 0.95512 0.48579 0.93551 0.0
H972 H 0.9338 0.41231 0.91834 0.0
H973 H 0.98597 0.46277 0.91188 0.0
O974 O 0.94029 0.48169 0.8832 0.0
C975 C 0.95533 0.4772 0.95804 0.0
O976 O 0.9413 0.45975 0.96296 0.0
N977 N 0.90845 0.4492 0.9033 0.0
C978 C 0.88187 0.40951 0.89597 0.0
C979 C 0.89228 0.42064 0.87512 0.0
C980 C 0.90548 0.44078 0.87917 0.0
C981 C 0.89583 0.4403 0.92298 0.0
C982 C 0.88239 0.42048 0.91974 0.0
H983 H 0.91434 0.44826 0.86315 0.0
H984 H 0.89819 0.44713 0.94196 0.0
H985 H 0.90081 0.5067 0.88668 0.0
H986 H 0.87848 0.52285 0.961 0.0
H987 H 0.97425 0.39105 0.91846 0.0
H988 H 0.89194 0.41281 0.85637 0.0
H989 H 0.87423 0.4126 0.93623 0.0
C990 C 0.28395 0.14353 0.68914 0.0
C991 C 0.26559 0.12845 0.68998 0.0
N992 N 0.25168 0.13283 0.66997 0.0
N993 N 0.28191 0.15744 0.66865 0.0
C994 C 0.26205 0.1505 0.65718 0.0
H995 H 0.29791 0.14441 0.70281 0.0
Co996 Co 0.30337 0.18106 0.66308 0.0
C997 C 0.29894 0.1967 0.60904 0.0
O998 O 0.32123 0.20144 0.60931 0.0
N999 N 0.32554 0.20532 0.65912 0.0
C1000 C 0.35824 0.22604 0.65952 0.0
C1001 C 0.34901 0.2041 0.65893 0.0
C1002 C 0.32111 0.22845 0.65943 0.0
N1003 N 0.34068 0.24135 0.66004 0.0
O1004 O 0.28324 0.20231 0.68075 0.0
H1005 H 0.35923 0.18848 0.65898 0.0
H1006 H 0.30385 0.23575 0.66036 0.0
O1007 O 0.28922 0.18852 0.62923 0.0
C1008 C 0.2898 0.20287 0.70399 0.0
O1009 O 0.30734 0.18967 0.71068 0.0
N1010 N 0.32381 0.15902 0.64905 0.0
C1011 C 0.35991 0.12898 0.63637 0.0
C1012 C 0.34355 0.13568 0.61799 0.0
C1013 C 0.32515 0.15027 0.6249 0.0
C1014 C 0.33807 0.15065 0.66757 0.0
C1015 C 0.35636 0.13586 0.66165 0.0
H1016 H 0.3124 0.15454 0.61072 0.0
H1017 H 0.33621 0.15691 0.68688 0.0
H1018 H 0.25509 0.15851 0.64019 0.0
H1019 H 0.26289 0.11506 0.70413 0.0
H1020 H 0.37652 0.23038 0.65998 0.0
H1021 H 0.34519 0.12999 0.59841 0.0
H1022 H 0.36844 0.13109 0.67653 0.0
C1023 C 0.6176 0.52412 0.44138 0.0
C1024 C 0.63203 0.5053 0.43988 0.0
N1025 N 0.62994 0.49593 0.41653 0.0
N1026 N 0.60623 0.52665 0.41917 0.0
C1027 C 0.61429 0.50931 0.40416 0.0
H1028 H 0.61544 0.53525 0.45776 0.0
Co1029 Co 0.58392 0.54963 0.41542 0.0
C1030 C 0.56688 0.54755 0.36154 0.0
O1031 O 0.56343 0.57006 0.36258 0.0
N1032 N 0.56106 0.57306 0.41319 0.0
C1033 C 0.54122 0.6058 0.4188 0.0
C1034 C 0.56291 0.59598 0.41833 0.0
C1035 C 0.53794 0.56948 0.41063 0.0
N1036 N 0.52554 0.58907 0.41408 0.0
O1037 O 0.56175 0.53031 0.4335 0.0
H1038 H 0.5787 0.60514 0.42272 0.0
H1039 H 0.53026 0.55258 0.40749 0.0
O1040 O 0.57475 0.53694 0.38128 0.0
C1041 C 0.5613 0.5376 0.45654 0.0
O1042 O 0.57484 0.55512 0.46253 0.0
N1043 N 0.60671 0.56933 0.40134 0.0
C1044 C 0.63576 0.6065 0.38933 0.0
C1045 C 0.62835 0.59102 0.37031 0.0
C1046 C 0.61421 0.5721 0.37683 0.0
C1047 C 0.61646 0.58215 0.4203 0.0
C1048 C 0.63068 0.60105 0.41476 0.0
H1049 H 0.60907 0.56027 0.36202 0.0
H1050 H 0.61145 0.57892 0.43985 0.0
H1051 H 0.60853 0.50625 0.38484 0.0
H1052 H 0.64346 0.49912 0.45475 0.0
H1053 H 0.53727 0.62378 0.42286 0.0
H1054 H 0.63286 0.59386 0.35052 0.0
H1055 H 0.63611 0.6122 0.43024 0.0
H1056 H 0.30421 0.30208 0.24923 0.0
H1057 H 0.20884 0.20984 0.29387 0.0
H1058 H 0.25009 0.27655 0.19986 0.0
H1059 H 0.26327 0.23507 0.34301 0.0
H1060 H 0.22356 0.23413 0.25963 0.0
H1061 H 0.28947 0.27778 0.28342 0.0
C1062 C 0.28916 0.29134 0.24548 0.0
C1063 C 0.27836 0.29146 0.22146 0.0
C1064 C 0.23234 0.23442 0.27784 0.0
C1065 C 0.2613 0.26335 0.26106 0.0
C1066 C 0.22394 0.22052 0.29755 0.0
C1067 C 0.23484 0.22032 0.32153 0.0
C1068 C 0.25188 0.2484 0.28189 0.0
C1069 C 0.2543 0.23463 0.32492 0.0
C1070 C 0.28076 0.27742 0.26517 0.0
C1071 C 0.25898 0.27705 0.21799 0.0
N1072 N 0.26221 0.24807 0.30531 0.0
N1073 N 0.25106 0.2636 0.23758 0.0
H1074 H 0.06 0.96483 0.54322 0.0
H1075 H 0.95291 0.04625 0.50712 0.0
H1076 H 0.02518 0.00877 0.59775 0.0
H1077 H 0.98927 1.00386 0.45232 0.0
H1078 H 0.97847 0.0321 0.54046 0.0
H1079 H 0.03403 0.97858 0.51015 0.0
C1080 C 0.04688 0.97745 0.54832 0.0
C1081 C 0.04481 0.98563 0.57347 0.0
C1082 C 0.98089 0.02581 0.5212 0.0
C1083 C 0.01474 1.00148 0.53523 0.0
C1084 C 0.96625 0.03385 0.50204 0.0
C1085 C 0.96893 0.02627 0.47673 0.0
C1086 C 0.9985 0.00999 0.51522 0.0
C1087 C 0.9865 0.01013 0.47152 0.0
C1088 C 0.03201 0.98529 0.52929 0.0
C1089 C 0.02747 1.00203 0.57868 0.0
N1090 N 1.00066 1.00258 0.49059 0.0
N1091 N 0.01307 0.00938 0.55972 0.0
H1092 H 0.30155 0.81286 0.77849 0.0
H1093 H 0.23586 0.69531 0.74237 0.0
H1094 H 0.26271 0.77201 0.83274 0.0
H1095 H 0.26503 0.7414 0.686 0.0
H1096 H 0.24899 0.72131 0.77589 0.0
H1097 H 0.29082 0.78575 0.74496 0.0
C1098 C 0.29066 0.79818 0.78339 0.0
C1099 C 0.28301 0.79472 0.80857 0.0
C1100 C 0.25271 0.72573 0.75625 0.0
C1101 C 0.27081 0.76335 0.76998 0.0
C1102 C 0.24534 0.71082 0.73703 0.0
C1103 C 0.24928 0.71622 0.71126 0.0
C1104 C 0.26418 0.74637 0.74984 0.0
C1105 C 0.26176 0.73648 0.70558 0.0
C1106 C 0.28457 0.78269 0.76414 0.0
C1107 C 0.26888 0.77544 0.81361 0.0
N1108 N 0.26864 0.75093 0.72474 0.0
N1109 N 0.26332 0.76041 0.7945 0.0
H1110 H 0.45781 0.05462 0.02757 0.0
H1111 H 0.55341 0.96147 0.9867 0.0
H1112 H 0.48403 1.00193 0.07834 0.0
H1113 H 0.52667 0.01343 0.93534 0.0
H1114 H 0.52819 0.97608 1.0201 0.0
H1115 H 0.48271 0.03985 0.99387 0.0
C1116 C 0.46881 0.03988 0.03171 0.0
C1117 C 0.46876 0.02951 0.05599 0.0
C1118 C 0.52776 0.98434 1.00158 0.0
C1119 C 0.49755 0.01244 1.01703 0.0
C1120 C 0.54221 0.97602 0.98235 0.0
C1121 C 0.54226 0.98624 0.958 0.0
C1122 C 0.51307 1.00315 0.99668 0.0
C1123 C 0.52728 1.00501 0.95375 0.0
C1124 C 0.48306 0.03146 1.01232 0.0
C1125 C 0.48345 0.01047 0.05999 0.0
N1126 N 0.5133 0.01287 0.97292 0.0
N1127 N 0.49725 1.00257 0.04071 0.0
H1128 H 0.25857 0.7687 0.18384 0.0
H1129 H 0.26279 0.74227 0.33463 0.0
H1130 H 0.23506 0.81648 0.24156 0.0
H1131 H 0.28877 0.69543 0.27722 0.0
H1132 H 0.25188 0.76958 0.30069 0.0
H1133 H 0.27076 0.74185 0.21775 0.0
C1134 C 0.2564 0.77373 0.20358 0.0
C1135 C 0.24577 0.79483 0.20985 0.0
C1136 C 0.25989 0.75325 0.29555 0.0
C1137 C 0.2591 0.76411 0.24871 0.0
C1138 C 0.2659 0.7376 0.31494 0.0
C1139 C 0.27672 0.71655 0.30881 0.0
C1140 C 0.26469 0.74776 0.26988 0.0
C1141 C 0.28059 0.71152 0.28291 0.0
C1142 C 0.2631 0.75832 0.22296 0.0
C1143 C 0.24305 0.80032 0.23581 0.0
N1144 N 0.27466 0.72696 0.26449 0.0
N1145 N 0.24951 0.78507 0.25419 0.0
H1146 H 0.4456 0.98626 0.48934 0.0
H1147 H 0.56804 0.04335 0.52404 0.0
H1148 H 0.49361 0.01188 0.43278 0.0
H1149 H 0.52198 0.01373 0.58024 0.0
H1150 H 0.54061 0.03301 0.49074 0.0
H1151 H 0.47225 0.99825 0.5228 0.0
C1152 C 0.46169 0.9947 0.48393 0.0
C1153 C 0.46739 0.99803 0.45813 0.0
C1154 C 0.53646 0.02867 0.51029 0.0
C1155 C 0.49828 0.01158 0.49664 0.0
C1156 C 0.55216 0.03452 0.52942 0.0
C1157 C 0.54733 0.0294 0.55508 0.0
C1158 C 0.51556 0.01766 0.5167 0.0
C1159 C 0.5265 0.01787 0.56074 0.0
C1160 C 0.47696 1.00144 0.50313 0.0
C1161 C 0.48842 0.00913 0.45237 0.0
N1162 N 0.51133 0.01248 0.5417 0.0
N1163 N 0.50319 0.01536 0.47149 0.0
H1164 H 0.25695 0.23734 0.69756 0.0
H1165 H 0.25979 0.27589 0.84496 0.0
H1166 H 0.29941 0.20431 0.75465 0.0
H1167 H 0.21742 0.30893 0.7878 0.0
H1168 H 0.2749 0.2496 0.81204 0.0
H1169 H 0.24203 0.26375 0.73044 0.0
C1170 C 0.26303 0.23556 0.71696 0.0
C1171 C 0.27945 0.21858 0.72329 0.0
C1172 C 0.26232 0.26266 0.80674 0.0
C1173 C 0.26264 0.24876 0.76099 0.0
C1174 C 0.25378 0.27771 0.82553 0.0
C1175 C 0.23731 0.29463 0.8192 0.0
C1176 C 0.25432 0.26459 0.78147 0.0
C1177 C 0.23004 0.29611 0.79367 0.0
C1178 C 0.2546 0.25067 0.73574 0.0
C1179 C 0.28681 0.21715 0.74879 0.0
N1180 N 0.23853 0.28133 0.77584 0.0
N1181 N 0.2784 0.232 0.76662 0.0
H1182 H 0.02623 1.00608 0.95127 0.0
H1183 H 0.98576 0.01399 0.09808 0.0
H1184 H 0.05682 0.05268 1.00613 0.0
H1185 H 0.95481 0.96823 0.04261 0.0
H1186 H 0.01195 0.02871 0.06468 0.0
H1187 H 0.99982 0.9919 0.98464 0.0
C1188 C 0.02743 0.01328 0.97027 0.0
C1189 C 0.04379 0.03058 0.97582 0.0
C1190 C 0.99936 0.01546 0.05988 0.0
C1191 C 0.01364 0.01454 1.01414 0.0
C1192 C 0.9844 1.00712 0.07895 0.0
C1193 C 0.96806 0.98984 0.07324 0.0
C1194 C 0.99795 1.00645 0.03496 0.0
C1195 C 0.96714 0.98151 0.04805 0.0
C1196 C 0.01235 1.00524 0.98934 0.0
C1197 C 0.0445 0.03933 1.00085 0.0
N1198 N 0.98182 0.98984 0.02996 0.0
N1199 N 0.02971 0.03125 1.01899 0.0
H1200 H 0.75782 0.73808 0.84498 0.0
H1201 H 0.75164 0.77896 0.69841 0.0
H1202 H 0.70981 0.70993 0.79003 0.0
H1203 H 0.79743 0.80931 0.75424 0.0
H1204 H 0.7363 0.75304 0.73163 0.0
H1205 H 0.77325 0.7639 0.81172 0.0
C1206 C 0.75059 0.73727 0.82598 0.0
C1207 C 0.73249 0.72184 0.82037 0.0
C1208 C 0.7497 0.76543 0.73656 0.0
C1209 C 0.74993 0.75127 0.78223 0.0
C1210 C 0.7584 0.78024 0.71759 0.0
C1211 C 0.77583 0.79635 0.72347 0.0
C1212 C 0.75854 0.76675 0.76154 0.0
C1213 C 0.78401 0.79717 0.74871 0.0
C1214 C 0.75933 0.75203 0.80699 0.0
C1215 C 0.72373 0.72158 0.79536 0.0
N1216 N 0.77535 0.78262 0.76671 0.0
N1217 N 0.7325 0.73602 0.77731 0.0
H1218 H 0.77781 0.32212 0.29847 0.0
H1219 H 0.7331 0.1949 0.2623 0.0
H1220 H 0.76061 0.27017 0.35457 0.0
H1221 H 0.75182 0.24634 0.20624 0.0
H1222 H 0.74371 0.22186 0.29608 0.0
H1223 H 0.76762 0.29498 0.26473 0.0
C1224 C 0.77158 0.30502 0.30374 0.0
C1225 C 0.77003 0.29844 0.32948 0.0
C1226 C 0.74571 0.22727 0.27645 0.0
C1227 C 0.75865 0.26696 0.2906 0.0
C1228 C 0.73978 0.21183 0.25707 0.0
C1229 C 0.7416 0.21836 0.23133 0.0
C1230 C 0.75343 0.24964 0.27022 0.0
C1231 C 0.75037 0.2405 0.22577 0.0
C1232 C 0.7659 0.28948 0.28437 0.0
C1233 C 0.76183 0.27608 0.33505 0.0
N1234 N 0.75579 0.25542 0.24508 0.0
N1235 N 0.75659 0.26109 0.31575 0.0
H1236 H 0.75794 0.27289 0.70788 0.0
H1237 H 0.74677 0.23574 0.85543 0.0
H1238 H 0.70925 0.30374 0.76044 0.0
H1239 H 0.79061 0.20086 0.80082 0.0
H1240 H 0.73264 0.26101 0.82098 0.0
H1241 H 0.77074 0.2467 0.74205 0.0
C1242 C 0.75001 0.27422 0.72655 0.0
C1243 C 0.7325 0.29054 0.73121 0.0
C1244 C 0.74528 0.24771 0.81659 0.0
C1245 C 0.74694 0.26066 0.7704 0.0
C1246 C 0.75324 0.23324 0.83624 0.0
C1247 C 0.76995 0.2162 0.83111 0.0
C1248 C 0.75417 0.24513 0.79169 0.0
C1249 C 0.77783 0.21384 0.80583 0.0
C1250 C 0.75724 0.25923 0.74605 0.0
C1251 C 0.72277 0.29141 0.75583 0.0
N1252 N 0.76999 0.22814 0.7872 0.0
N1253 N 0.73011 0.27676 0.77441 0.0
H1254 H 0.76508 0.77907 0.3442 0.0
H1255 H 0.75055 0.73553 0.19921 0.0
H1256 H 0.7104 0.80191 0.29405 0.0
H1257 H 0.80663 0.71479 0.2486 0.0
H1258 H 0.73512 0.75971 0.23393 0.0
H1259 H 0.78028 0.75473 0.30955 0.0
C1260 C 0.75627 0.77896 0.326 0.0
C1261 C 0.73648 0.79262 0.3221 0.0
C1262 C 0.75082 0.74984 0.23709 0.0
C1263 C 0.75369 0.76488 0.28235 0.0
C1264 C 0.75961 0.73607 0.21725 0.0
C1265 C 0.77989 0.72308 0.22091 0.0
C1266 C 0.7624 0.75057 0.26072 0.0
C1267 C 0.79092 0.72445 0.24478 0.0
C1268 C 0.76494 0.7651 0.30619 0.0
C1269 C 0.72575 0.79175 0.29804 0.0
N1270 N 0.78206 0.73786 0.26367 0.0
N1271 N 0.73446 0.77819 0.27918 0.0
H1272 H 0.45382 0.55349 1.00634 0.0
H1273 H 0.54974 0.46024 0.04551 0.0
H1274 H 0.48168 0.50286 0.95403 0.0
H1275 H 0.52364 0.5123 0.09722 0.0
H1276 H 0.52473 0.47534 1.01227 0.0
H1277 H 0.47877 0.53839 0.03967 0.0
C1278 C 0.46518 0.53912 1.00178 0.0
C1279 C 0.46557 0.52943 0.97718 0.0
C1280 C 0.52441 0.48352 0.03082 0.0
C1281 C 0.49443 0.51198 1.01573 0.0
C1282 C 0.53873 0.47491 0.04997 0.0
C1283 C 0.53887 0.48501 0.07437 0.0
C1284 C 0.50993 0.50247 0.03589 0.0
C1285 C 0.52416 0.50397 0.07875 0.0
C1286 C 0.47948 0.53052 1.02096 0.0
C1287 C 0.48074 0.51086 0.97265 0.0
N1288 N 0.51027 0.51208 0.0597 0.0
N1289 N 0.49456 0.50274 0.99175 0.0
H1290 H 0.95777 0.55278 0.54501 0.0
H1291 H 0.05855 0.46251 0.51184 0.0
H1292 H 0.9861 0.50491 0.59998 0.0
H1293 H 0.03052 0.51092 0.45726 0.0
H1294 H 0.03235 0.47777 0.54409 0.0
H1295 H 0.98415 0.53762 0.51296 0.0
C1296 C 0.96955 0.53902 0.55043 0.0
C1297 C 0.96964 0.53011 0.57539 0.0
C1298 C 0.03189 0.48512 0.52511 0.0
C1299 C 1.00016 0.51259 0.53832 0.0
C1300 C 0.04689 0.47642 0.50656 0.0
C1301 C 0.0468 0.48544 0.48165 0.0
C1302 C 0.01651 0.50305 0.5189 0.0
C1303 C 0.03125 0.50345 0.47616 0.0
C1304 C 0.98466 0.53037 0.53198 0.0
C1305 C 0.98537 0.51229 0.58104 0.0
N1306 N 0.01672 0.51164 0.49463 0.0
N1307 N 1.0 0.50412 0.56264 0.0
H1308 H 0.07059 0.527 0.04899 0.0
H1309 H 0.94982 0.46973 1.00861 0.0
H1310 H 0.02095 0.50038 0.10325 0.0
H1311 H 0.99629 0.50252 0.95499 0.0
H1312 H 0.97629 0.47933 0.04303 0.0
H1313 H 0.04495 0.51568 1.01435 0.0
C1314 C 0.05435 0.51848 0.05364 0.0
C1315 C 0.04789 0.51469 0.07916 0.0
C1316 C 0.98075 0.48452 0.02381 0.0
C1317 C 0.01817 0.5019 0.03927 0.0
C1318 C 0.96561 0.47908 1.00403 0.0
C1319 C 0.97084 0.4853 0.97875 0.0
C1320 C 1.00151 0.49623 1.01847 0.0
C1321 C 0.99149 0.49751 0.97417 0.0
C1322 C 0.03966 0.51214 0.03377 0.0
C1323 C 0.02671 0.50349 0.08392 0.0
N1324 N 1.00614 0.50247 0.99384 0.0
N1325 N 0.01252 0.49763 0.06414 0.0
H1326 H 0.55829 0.55133 0.50598 0.0
H1327 H 0.46031 0.45982 0.54526 0.0
H1328 H 0.52895 0.5019 0.45331 0.0
H1329 H 0.48809 0.51077 0.59719 0.0
H1330 H 0.48542 0.47472 0.51181 0.0
H1331 H 0.53314 0.53644 0.53936 0.0
C1332 C 0.54655 0.53727 0.50134 0.0
C1333 C 0.54583 0.52786 0.47661 0.0
C1334 C 0.48608 0.4827 0.53046 0.0
C1335 C 0.5167 0.51064 0.51528 0.0
C1336 C 0.47171 0.4742 0.54973 0.0
C1337 C 0.47201 0.48404 0.57426 0.0
C1338 C 0.50108 0.50127 0.53554 0.0
C1339 C 0.48721 0.50265 0.57864 0.0
C1340 C 0.53213 0.52879 0.52057 0.0
C1341 C 0.53017 0.50968 0.47202 0.0
N1342 N 0.50115 0.51063 0.55947 0.0
N1343 N 0.51624 0.50167 0.49118 0.0
H1344 H 0.31275 0.23952 0.13921 0.0
H1345 H 0.40592 0.14208 0.17435 0.0
H1346 H 0.3777 0.25283 0.17729 0.0
H1347 H 0.34114 0.12662 0.13671 0.0
H1348 H 0.39377 0.18215 0.17899 0.0
H1349 H 0.32102 0.19785 0.14084 0.0
C1350 C 0.32866 0.23371 0.14806 0.0
C1351 C 0.34466 0.24976 0.15791 0.0
C1352 C 0.38206 0.17 0.16991 0.0
C1353 C 0.35426 0.20214 0.15975 0.0
C1354 C 0.38889 0.14693 0.16751 0.0
C1355 C 0.37455 0.13077 0.15511 0.0
C1356 C 0.36078 0.17722 0.15968 0.0
C1357 C 0.35292 0.13848 0.1461 0.0
C1358 C 0.3334 0.20992 0.14891 0.0
C1359 C 0.36508 0.2412 0.16898 0.0
N1360 N 0.34677 0.16118 0.14839 0.0
N1361 N 0.3693 0.21805 0.16952 0.0
H1362 H 0.02921 0.05739 0.39392 0.0
H1363 H 0.13119 0.13864 0.44688 0.0
H1364 H 0.01901 0.11793 0.44073 0.0
H1365 H 0.14152 0.08901 0.38637 0.0
H1366 H 0.09143 0.12489 0.45173 0.0
H1367 H 0.07149 0.06306 0.39719 0.0
C1368 C 0.03591 0.07167 0.40512 0.0
C1369 C 0.02068 0.08743 0.41676 0.0
C1370 C 0.10247 0.11678 0.43759 0.0
C1371 C 0.0687 0.09394 0.42076 0.0
C1372 C 0.12532 0.12445 0.435 0.0
C1373 C 0.13974 0.11514 0.41601 0.0
C1374 C 0.09384 0.09966 0.42108 0.0
C1375 C 0.1309 0.09699 0.40096 0.0
C1376 C 0.05995 0.07496 0.40691 0.0
C1377 C 0.03016 0.10568 0.43104 0.0
N1378 N 0.10845 0.09 0.40363 0.0
N1379 N 0.0535 0.10847 0.43256 0.0
H1380 H 0.17892 0.89838 0.63227 0.0
H1381 H 0.17852 0.76853 0.68639 0.0
H1382 H 0.13322 0.87622 0.69272 0.0
H1383 H 0.20446 0.78909 0.61277 0.0
H1384 H 0.17008 0.80957 0.696 0.0
H1385 H 0.19742 0.8603 0.63284 0.0
C1386 C 0.17309 0.8856 0.64602 0.0
C1387 C 0.15425 0.89028 0.66216 0.0
C1388 C 0.1779 0.80506 0.6779 0.0
C1389 C 0.17516 0.84657 0.66274 0.0
C1390 C 0.18276 0.78175 0.67249 0.0
C1391 C 0.19186 0.77556 0.64865 0.0
C1392 C 0.18263 0.82214 0.65947 0.0
C1393 C 0.19706 0.7932 0.63118 0.0
C1394 C 0.18359 0.86385 0.64628 0.0
C1395 C 0.14764 0.87325 0.6799 0.0
N1396 N 0.1923 0.81564 0.6369 0.0
N1397 N 0.15783 0.85194 0.67944 0.0
H1398 H 0.48989 0.9513 0.8805 0.0
H1399 H 0.39306 0.86088 0.92625 0.0
H1400 H 0.50455 0.88712 0.91959 0.0
H1401 H 0.37715 0.92385 0.88532 0.0
H1402 H 0.43348 0.87292 0.9286 0.0
H1403 H 0.44833 0.9438 0.88578 0.0
C1404 C 0.4844 0.93571 0.89032 0.0
C1405 C 0.50078 0.9197 0.89938 0.0
C1406 C 0.42113 0.88426 0.91934 0.0
C1407 C 0.45324 0.91098 0.90545 0.0
C1408 C 0.39791 0.87752 0.91825 0.0
C1409 C 0.38159 0.8913 0.90543 0.0
C1410 C 0.42824 0.90489 0.90739 0.0
C1411 C 0.38917 0.91249 0.89504 0.0
C1412 C 0.46066 0.93141 0.89328 0.0
C1413 C 0.49262 0.89971 0.91181 0.0
N1414 N 0.41198 0.91853 0.89602 0.0
N1415 N 0.46947 0.89591 0.9144 0.0
H1416 H 0.39849 0.86997 0.33438 0.0
H1417 H 0.33455 0.7735 0.41696 0.0
H1418 H 0.3657 0.88272 0.40694 0.0
H1419 H 0.351 0.76223 0.33789 0.0
H1420 H 0.34507 0.8142 0.41235 0.0
H1421 H 0.38014 0.83137 0.33334 0.0
C1422 C 0.38712 0.8648 0.34983 0.0
C1423 C 0.38392 0.87935 0.371 0.0
C1424 C 0.34627 0.803 0.39585 0.0
C1425 C 0.36318 0.83541 0.37007 0.0
C1426 C 0.34038 0.77973 0.39857 0.0
C1427 C 0.34222 0.76455 0.37786 0.0
C1428 C 0.35448 0.81121 0.3723 0.0
C1429 C 0.34944 0.7735 0.35428 0.0
C1430 C 0.37674 0.84279 0.34928 0.0
C1431 C 0.36907 0.87184 0.39053 0.0
N1432 N 0.35567 0.79626 0.35218 0.0
N1433 N 0.3595 0.85036 0.38972 0.0
H1434 H 0.38199 0.09319 0.66102 0.0
H1435 H 0.501 0.11873 0.58968 0.0
H1436 H 0.38819 0.13846 0.5959 0.0
H1437 H 0.49356 0.06418 0.64528 0.0
H1438 H 0.45906 0.12425 0.59004 0.0
H1439 H 0.42176 0.07984 0.65367 0.0
C1440 C 0.3916 0.10004 0.64493 0.0
C1441 C 0.38184 0.11715 0.6292 0.0
C1442 C 0.4665 0.11092 0.60204 0.0
C1443 C 0.4274 0.10215 0.62085 0.0
C1444 C 0.49048 0.10791 0.60199 0.0
C1445 C 0.50076 0.09121 0.61776 0.0
C1446 C 0.45261 0.09734 0.61825 0.0
C1447 C 0.48627 0.07727 0.63289 0.0
C1448 C 0.41429 0.0924 0.64073 0.0
C1449 C 0.39496 0.1252 0.60845 0.0
N1450 N 0.46292 0.08085 0.63302 0.0
N1451 N 0.41716 0.1179 0.60512 0.0
H1452 H 0.20407 0.23863 0.90301 0.0
H1453 H 0.12533 0.13462 0.85054 0.0
H1454 H 0.14441 0.24714 0.8545 0.0
H1455 H 0.17553 0.12576 0.91067 0.0
H1456 H 0.13815 0.17461 0.84536 0.0
H1457 H 0.19912 0.1963 0.90036 0.0
C1458 C 0.19009 0.23157 0.89164 0.0
C1459 C 0.17441 0.24637 0.87928 0.0
C1460 C 0.14659 0.16386 0.85949 0.0
C1461 C 0.16873 0.19821 0.876 0.0
C1462 C 0.13946 0.14087 0.86226 0.0
C1463 C 0.1492 0.12679 0.88125 0.0
C1464 C 0.16357 0.17297 0.87585 0.0
C1465 C 0.16724 0.13611 0.89609 0.0
C1466 C 0.18723 0.20748 0.89018 0.0
C1467 C 0.15657 0.23638 0.86479 0.0
N1468 N 0.17368 0.15869 0.89327 0.0
N1469 N 0.15419 0.21298 0.86363 0.0
H1470 H 0.12213 0.88254 0.18401 0.0
H1471 H 0.02044 0.94904 0.11129 0.0
H1472 H 0.12905 0.90157 0.1049 0.0
H1473 H 0.00982 0.89974 0.17186 0.0
H1474 H 0.06257 0.94132 0.11317 0.0
H1475 H 0.0834 0.89951 0.18461 0.0
C1476 C 0.11555 0.89054 0.1668 0.0
C1477 C 0.12855 0.89015 0.14417 0.0
C1478 C 0.05096 0.93241 0.12615 0.0
C1479 C 0.08426 0.90973 0.14482 0.0
C1480 C 0.02709 0.93686 0.12517 0.0
C1481 C 0.01184 0.92484 0.14136 0.0
C1482 C 0.05947 0.9163 0.1439 0.0
C1483 C 0.02108 0.90912 0.15893 0.0
C1484 C 0.09347 0.90021 0.16717 0.0
C1485 C 0.11947 0.90136 0.12265 0.0
N1486 N 0.04429 0.90535 0.15978 0.0
N1487 N 0.09765 0.91048 0.12337 0.0
H1488 H 0.70003 0.77606 0.90031 0.0
H1489 H 0.61759 0.87487 0.84293 0.0
H1490 H 0.63672 0.76301 0.85907 0.0
H1491 H 0.67198 0.88941 0.89705 0.0
H1492 H 0.6293 0.83428 0.84249 0.0
H1493 H 0.69422 0.81793 0.89405 0.0
C1494 C 0.685 0.782 0.88985 0.0
C1495 C 0.66867 0.76606 0.88049 0.0
C1496 C 0.63887 0.84637 0.85427 0.0
C1497 C 0.66201 0.81373 0.87308 0.0
C1498 C 0.63237 0.86968 0.85428 0.0
C1499 C 0.64372 0.88564 0.87017 0.0
C1500 C 0.65686 0.83885 0.87026 0.0
C1501 C 0.66251 0.87766 0.88479 0.0
C1502 C 0.68166 0.80585 0.88633 0.0
C1503 C 0.64947 0.77467 0.86709 0.0
N1504 N 0.66838 0.85479 0.88466 0.0
N1505 N 0.64668 0.79786 0.86382 0.0
H1506 H 0.99153 0.9519 0.65859 0.0
H1507 H 0.88936 0.87303 0.60202 0.0
H1508 H 1.00227 0.89225 0.61047 0.0
H1509 H 0.87927 0.92153 0.66361 0.0
H1510 H 0.92966 0.88584 0.59839 0.0
H1511 H 0.94943 0.9462 0.65488 0.0
C1512 C 0.98502 0.93772 0.64713 0.0
C1513 C 1.00039 0.92234 0.63511 0.0
C1514 C 0.91855 0.89391 0.61249 0.0
C1515 C 0.95243 0.9158 0.63061 0.0
C1516 C 0.89546 0.88679 0.61436 0.0
C1517 C 0.88099 0.89607 0.6333 0.0
C1518 C 0.92726 0.91047 0.62963 0.0
C1519 C 0.88995 0.91367 0.649 0.0
C1520 C 0.96104 0.93444 0.64505 0.0
C1521 C 0.99106 0.90421 0.6205 0.0
N1522 N 0.91257 0.92015 0.64698 0.0
N1523 N 0.96772 0.90143 0.6187 0.0
H1524 H 0.84757 0.12656 0.36652 0.0
H1525 H 0.87671 0.25591 0.40781 0.0
H1526 H 0.91461 0.14979 0.39229 0.0
H1527 H 0.81346 0.23881 0.36852 0.0
H1528 H 0.89169 0.21732 0.39849 0.0
H1529 H 0.83518 0.16742 0.36301 0.0
C1530 C 0.85976 0.14032 0.37087 0.0
C1531 C 0.88201 0.13505 0.37988 0.0
C1532 C 0.87463 0.22194 0.39155 0.0
C1533 C 0.86811 0.18134 0.37626 0.0
C1534 C 0.86612 0.24397 0.39694 0.0
C1535 C 0.84386 0.25033 0.38906 0.0
C1536 C 0.86055 0.20587 0.37863 0.0
C1537 C 0.83077 0.23441 0.37484 0.0
C1538 C 0.85273 0.16355 0.36895 0.0
C1539 C 0.89723 0.15329 0.38546 0.0
N1540 N 0.83916 0.21267 0.37042 0.0
N1541 N 0.88994 0.17556 0.38381 0.0
H1542 H 0.51287 0.11685 0.09338 0.0
H1543 H 0.62571 0.11026 0.17894 0.0
H1544 H 0.51833 0.06993 0.15699 0.0
H1545 H 0.62564 0.13995 0.10356 0.0
H1546 H 0.58692 0.09442 0.17117 0.0
H1547 H 0.55433 0.1251 0.09665 0.0
C1548 C 0.52286 0.10828 0.10806 0.0
C1549 C 0.51215 0.09292 0.12518 0.0
C1550 C 0.59551 0.10409 0.15618 0.0
C1551 C 0.55967 0.10225 0.12905 0.0
C1552 C 0.61761 0.11316 0.16062 0.0
C1553 C 0.62878 0.12656 0.14191 0.0
C1554 C 0.58433 0.10879 0.13302 0.0
C1555 C 0.61764 0.12966 0.11844 0.0
C1556 C 0.54657 0.11284 0.10979 0.0
C1557 C 0.52598 0.0819 0.14349 0.0
N1558 N 0.59587 0.12115 0.1148 0.0
N1559 N 0.549 0.08702 0.14519 0.0
H1560 H 0.70229 0.24111 0.63462 0.0
H1561 H 0.62597 0.13405 0.68457 0.0
H1562 H 0.64502 0.24695 0.68722 0.0
H1563 H 0.67292 0.12913 0.62066 0.0
H1564 H 0.63879 0.1739 0.69154 0.0
H1565 H 0.69696 0.19879 0.6343 0.0
C1566 C 0.68871 0.23346 0.64619 0.0
C1567 C 0.67385 0.24756 0.66064 0.0
C1568 C 0.64651 0.16402 0.67617 0.0
C1569 C 0.66777 0.19936 0.66059 0.0
C1570 C 0.6394 0.14114 0.67236 0.0
C1571 C 0.64821 0.12828 0.65183 0.0
C1572 C 0.66258 0.17417 0.65934 0.0
C1573 C 0.66537 0.13856 0.63645 0.0
C1574 C 0.68565 0.20938 0.64598 0.0
C1575 C 0.65652 0.23681 0.67533 0.0
N1576 N 0.67183 0.16098 0.64035 0.0
N1577 N 0.65394 0.21341 0.67488 0.0
H1578 H 0.62577 0.87824 0.44016 0.0
H1579 H 0.53979 0.95551 0.35974 0.0
H1580 H 0.64812 0.92655 0.38232 0.0
H1581 H 0.51839 0.92313 0.4299 0.0
H1582 H 0.5801 0.94669 0.3698 0.0
H1583 H 0.58728 0.89637 0.43989 0.0
C1584 C 0.62278 0.89306 0.42792 0.0
C1585 C 0.64005 0.90066 0.41092 0.0
C1586 C 0.56671 0.94168 0.38323 0.0
C1587 C 0.59602 0.9211 0.41012 0.0
C1588 C 0.5437 0.94659 0.37737 0.0
C1589 C 0.52584 0.93974 0.39387 0.0
C1590 C 0.57198 0.92937 0.40557 0.0
C1591 C 0.53177 0.9286 0.4167 0.0
C1592 C 0.60076 0.90329 0.42764 0.0
C1593 C 0.63516 0.91981 0.39534 0.0
N1594 N 0.55437 0.92337 0.42172 0.0
N1595 N 0.61354 0.92911 0.39502 0.0
H1596 H 0.89088 0.87698 0.19106 0.0
H1597 H 0.81216 0.77461 0.13445 0.0
H1598 H 0.84117 0.88759 0.13083 0.0
H1599 H 0.87296 0.76394 0.1807 0.0
H1600 H 0.81785 0.81673 0.1382 0.0
H1601 H 0.87906 0.83635 0.19355 0.0
C1602 C 0.87708 0.87092 0.17876 0.0
C1603 C 0.86712 0.88571 0.16059 0.0
C1604 C 0.82988 0.80512 0.14757 0.0
C1605 C 0.85384 0.839 0.16296 0.0
C1606 C 0.82661 0.78113 0.14548 0.0
C1607 C 0.84228 0.76576 0.15701 0.0
C1608 C 0.84878 0.81376 0.16158 0.0
C1609 C 0.86075 0.77512 0.17106 0.0
C1610 C 0.87053 0.84762 0.17998 0.0
C1611 C 0.84954 0.87672 0.14489 0.0
N1612 N 0.86348 0.79847 0.17294 0.0
N1613 N 0.84359 0.8539 0.14629 0.0
H1614 H 0.01271 0.13647 0.93103 0.0
H1615 H 0.8787 0.10111 0.91898 0.0
H1616 H 0.99062 0.06851 0.90645 0.0
H1617 H 0.90387 0.1711 0.92745 0.0
H1618 H 0.91897 0.08693 0.92166 0.0
H1619 H 0.97237 0.14751 0.93671 0.0
C1620 C 0.99938 0.12386 0.92666 0.0
C1621 C 1.00515 0.10164 0.91775 0.0
C1622 C 0.9156 0.10535 0.92327 0.0
C1623 C 0.95859 0.11415 0.92463 0.0
C1624 C 0.89269 0.11338 0.92196 0.0
C1625 C 0.88814 0.13726 0.92296 0.0
C1626 C 0.93389 0.12138 0.92579 0.0
C1627 C 0.90676 0.15256 0.92652 0.0
C1628 C 0.97628 0.13014 0.93011 0.0
C1629 C 0.987 0.08583 0.91328 0.0
N1630 N 0.92878 0.14438 0.92769 0.0
N1631 N 0.96449 0.09245 0.91658 0.0
H1632 H 0.88732 0.63738 0.69668 0.0
H1633 H 0.81028 0.74089 0.64037 0.0
H1634 H 0.83886 0.62802 0.63494 0.0
H1635 H 0.86915 0.75013 0.6899 0.0
H1636 H 0.81522 0.69863 0.64367 0.0
H1637 H 0.87476 0.67759 0.70065 0.0
C1638 C 0.87362 0.64359 0.68435 0.0
C1639 C 0.86429 0.6293 0.66528 0.0
C1640 C 0.82695 0.70995 0.65391 0.0
C1641 C 0.85022 0.67564 0.66934 0.0
C1642 C 0.8241 0.73401 0.65208 0.0
C1643 C 0.83954 0.749 0.66458 0.0
C1644 C 0.84519 0.70089 0.66861 0.0
C1645 C 0.85718 0.73922 0.6795 0.0
C1646 C 0.86665 0.66668 0.68643 0.0
C1647 C 0.8468 0.63852 0.64963 0.0
N1648 N 0.85954 0.71584 0.68105 0.0
N1649 N 0.8405 0.66118 0.65183 0.0
H1650 H 0.63321 0.59279 0.88065 0.0
H1651 H 0.51041 0.62154 0.9415 0.0
H1652 H 0.62347 0.64045 0.94309 0.0
H1653 H 0.5209 0.56353 0.89103 0.0
H1654 H 0.55229 0.6272 0.94367 0.0
H1655 H 0.59302 0.5797 0.88583 0.0
C1656 C 0.62273 0.60021 0.89572 0.0
C1657 C 0.63164 0.6179 0.91131 0.0
C1658 C 0.54553 0.61309 0.93226 0.0
C1659 C 0.58562 0.60322 0.91714 0.0
C1660 C 0.5216 0.61 0.93084 0.0
C1661 C 0.51221 0.59225 0.91577 0.0
C1662 C 0.56029 0.59853 0.9182 0.0
C1663 C 0.5275 0.57743 0.90282 0.0
C1664 C 0.59981 0.59272 0.89868 0.0
C1665 C 0.61739 0.62672 0.93071 0.0
N1666 N 0.55083 0.58109 0.90405 0.0
N1667 N 0.595 0.61955 0.93281 0.0
H1668 H 0.67134 0.3938 0.1334 0.0
H1669 H 0.67016 0.2692 0.20103 0.0
H1670 H 0.62611 0.37786 0.19667 0.0
H1671 H 0.69162 0.28167 0.12359 0.0
H1672 H 0.66222 0.31106 0.20588 0.0
H1673 H 0.68783 0.3549 0.13643 0.0
C1674 C 0.66507 0.38222 0.14816 0.0
C1675 C 0.64696 0.38897 0.16446 0.0
C1676 C 0.6689 0.30459 0.18794 0.0
C1677 C 0.66587 0.34439 0.16808 0.0
C1678 C 0.67346 0.28083 0.18523 0.0
C1679 C 0.68121 0.2721 0.16178 0.0
C1680 C 0.67262 0.31959 0.1672 0.0
C1681 C 0.68526 0.28774 0.14182 0.0
C1682 C 0.67451 0.36003 0.14987 0.0
C1683 C 0.63999 0.37341 0.18365 0.0
N1684 N 0.6809 0.31068 0.14496 0.0
N1685 N 0.64925 0.35169 0.18473 0.0
H1686 H 1.00719 0.39269 0.4502 0.0
H1687 H 0.88481 0.40755 0.38202 0.0
H1688 H 0.99544 0.44275 0.39059 0.0
H1689 H 0.89484 0.36711 0.45024 0.0
H1690 H 0.92459 0.42206 0.3857 0.0
H1691 H 0.96577 0.38415 0.45117 0.0
C1692 C 0.99586 0.40185 0.43723 0.0
C1693 C 1.00482 0.41822 0.42 0.0
C1694 C 0.91802 0.41025 0.40005 0.0
C1695 C 0.95717 0.40863 0.42113 0.0
C1696 C 0.89533 0.40193 0.39794 0.0
C1697 C 0.88657 0.38596 0.41576 0.0
C1698 C 0.93217 0.40235 0.41997 0.0
C1699 C 0.90084 0.37946 0.43615 0.0
C1700 C 0.97215 0.39711 0.43794 0.0
C1701 C 0.98923 0.42999 0.40411 0.0
N1702 N 0.92302 0.38746 0.43751 0.0
N1703 N 0.96617 0.42478 0.40485 0.0
H1704 H 0.89662 0.37467 0.92594 0.0
H1705 H 0.81108 0.27728 0.87234 0.0
H1706 H 0.85131 0.38831 0.86245 0.0
H1707 H 0.86562 0.26566 0.92692 0.0
H1708 H 0.82531 0.31731 0.86643 0.0
H1709 H 0.88497 0.33428 0.9253 0.0
C1710 C 0.88402 0.3691 0.91192 0.0
C1711 C 0.87456 0.38491 0.89454 0.0
C1712 C 0.83423 0.30587 0.8795 0.0
C1713 C 0.86115 0.33828 0.89345 0.0
C1714 C 0.8262 0.28306 0.88278 0.0
C1715 C 0.83698 0.26832 0.90048 0.0
C1716 C 0.85315 0.31377 0.89401 0.0
C1717 C 0.85645 0.2766 0.91357 0.0
C1718 C 0.87747 0.34594 0.9114 0.0
C1719 C 0.8588 0.37663 0.87631 0.0
N1720 N 0.86376 0.29873 0.9102 0.0
N1721 N 0.85235 0.35382 0.87638 0.0
H1722 H 0.86637 0.58739 0.16369 0.0
H1723 H 0.99595 0.58714 0.10833 0.0
H1724 H 0.88844 0.63278 0.10295 0.0
H1725 H 0.97534 0.55895 0.18094 0.0
H1726 H 0.95501 0.59655 0.09948 0.0
H1727 H 0.90436 0.56873 0.16285 0.0
C1728 C 0.87912 0.59316 0.14986 0.0
C1729 C 0.87441 0.61191 0.13367 0.0
C1730 C 0.95949 0.58807 0.11721 0.0
C1731 C 0.91805 0.5908 0.13277 0.0
C1732 C 0.98275 0.58267 0.12219 0.0
C1733 C 0.98894 0.57263 0.14554 0.0
C1734 C 0.94243 0.58298 0.13558 0.0
C1735 C 0.97129 0.56713 0.16294 0.0
C1736 C 0.90082 0.58255 0.14943 0.0
C1737 C 0.89141 0.61841 0.11581 0.0
N1738 N 0.9489 0.57244 0.15765 0.0
N1739 N 0.91267 0.60812 0.1161 0.0
H1740 H 0.63818 0.75312 0.36199 0.0
H1741 H 0.62477 0.63518 0.34951 0.0
H1742 H 0.70186 0.73875 0.40198 0.0
H1743 H 0.67014 0.63061 0.41465 0.0
H1744 H 0.63633 0.67545 0.34382 0.0
H1745 H 0.63101 0.71176 0.35836 0.0
C1746 C 0.65075 0.74122 0.36991 0.0
C1747 C 0.67059 0.74947 0.38247 0.0
C1748 C 0.64364 0.66577 0.35952 0.0
C1749 C 0.66296 0.70165 0.3775 0.0
C1750 C 0.63741 0.64251 0.36246 0.0
C1751 C 0.64612 0.62949 0.38292 0.0
C1752 C 0.6585 0.67626 0.37735 0.0
C1753 C 0.66245 0.64012 0.39903 0.0
C1754 C 0.64687 0.71746 0.36739 0.0
C1755 C 0.68643 0.73315 0.39201 0.0
N1756 N 0.66791 0.66293 0.39607 0.0
N1757 N 0.68214 0.71001 0.38959 0.0
H1758 H 0.62149 0.35863 0.6138 0.0
H1759 H 0.52431 0.45023 0.65544 0.0
H1760 H 0.63694 0.42066 0.65667 0.0
H1761 H 0.51033 0.38546 0.61726 0.0
H1762 H 0.56602 0.44228 0.65209 0.0
H1763 H 0.58138 0.37119 0.61011 0.0
C1764 C 0.61662 0.37517 0.62198 0.0
C1765 C 0.63273 0.38855 0.63566 0.0
C1766 C 0.55379 0.42987 0.64437 0.0
C1767 C 0.58635 0.40275 0.63213 0.0
C1768 C 0.53 0.43443 0.64622 0.0
C1769 C 0.51377 0.41836 0.63689 0.0
C1770 C 0.56139 0.40915 0.63298 0.0
C1771 C 0.52213 0.39811 0.62523 0.0
C1772 C 0.59356 0.38221 0.62012 0.0
C1773 C 0.62508 0.4096 0.64628 0.0
N1774 N 0.54529 0.39408 0.62367 0.0
N1775 N 0.6024 0.41596 0.64448 0.0
H1776 H 0.17576 0.38642 0.40435 0.0
H1777 H 0.13577 0.25789 0.36658 0.0
H1778 H 0.1103 0.36929 0.36908 0.0
H1779 H 0.20087 0.27243 0.40378 0.0
H1780 H 0.12782 0.29927 0.36472 0.0
H1781 H 0.18705 0.3455 0.40145 0.0
C1782 C 0.16385 0.37417 0.39578 0.0
C1783 C 0.14202 0.38145 0.38695 0.0
C1784 C 0.14389 0.2935 0.37327 0.0
C1785 C 0.15484 0.33459 0.3836 0.0
C1786 C 0.14836 0.26978 0.37452 0.0
C1787 C 0.1689 0.26158 0.38564 0.0
C1788 C 0.16 0.30933 0.38332 0.0
C1789 C 0.18484 0.27796 0.39499 0.0
C1790 C 0.17034 0.35081 0.3941 0.0
C1791 C 0.12745 0.36474 0.37578 0.0
N1792 N 0.18 0.30106 0.39377 0.0
N1793 N 0.13406 0.34218 0.37461 0.0
H1794 H 0.48628 0.45143 0.15728 0.0
H1795 H 0.38701 0.36804 0.10225 0.0
H1796 H 0.49917 0.38956 0.11334 0.0
H1797 H 0.37354 0.42149 0.15789 0.0
H1798 H 0.42741 0.3805 0.10023 0.0
H1799 H 0.44439 0.44481 0.15267 0.0
C1800 C 0.4803 0.43655 0.14656 0.0
C1801 C 0.49624 0.42087 0.13595 0.0
C1802 C 0.41558 0.38969 0.11269 0.0
C1803 C 0.44847 0.41326 0.13045 0.0
C1804 C 0.39239 0.38277 0.11362 0.0
C1805 C 0.37682 0.39363 0.13039 0.0
C1806 C 0.42337 0.40763 0.12864 0.0
C1807 C 0.385 0.41239 0.14496 0.0
C1808 C 0.45643 0.43275 0.14398 0.0
C1809 C 0.48755 0.40182 0.1223 0.0
N1810 N 0.40776 0.41867 0.14392 0.0
N1811 N 0.46431 0.39855 0.11997 0.0
H1812 H 0.31277 0.74356 0.90204 0.0
H1813 H 0.39056 0.63817 0.85106 0.0
H1814 H 0.37197 0.75142 0.85237 0.0
H1815 H 0.34104 0.63109 0.91235 0.0
H1816 H 0.3786 0.67847 0.8456 0.0
H1817 H 0.31829 0.70134 0.90107 0.0
C1818 C 0.32683 0.73639 0.89084 0.0
C1819 C 0.34211 0.75103 0.87754 0.0
C1820 C 0.37014 0.66804 0.86006 0.0
C1821 C 0.34844 0.70288 0.87618 0.0
C1822 C 0.37677 0.64491 0.86298 0.0
C1823 C 0.36693 0.63126 0.88234 0.0
C1824 C 0.35351 0.67763 0.87656 0.0
C1825 C 0.34934 0.6411 0.89744 0.0
C1826 C 0.33001 0.71234 0.89033 0.0
C1827 C 0.36008 0.74085 0.86335 0.0
N1828 N 0.34334 0.66375 0.89439 0.0
N1829 N 0.36276 0.71744 0.86308 0.0
H1830 H 0.13497 0.60162 0.64637 0.0
H1831 H 1.00325 0.63138 0.612 0.0
H1832 H 0.11251 0.66337 0.60723 0.0
H1833 H 0.02267 0.56896 0.65186 0.0
H1834 H 0.04402 0.64083 0.60625 0.0
H1835 H 0.09505 0.5865 0.64424 0.0
C1836 C 0.12173 0.61173 0.63687 0.0
C1837 C 0.12687 0.63384 0.62717 0.0
C1838 C 0.0395 0.625 0.61621 0.0
C1839 C 0.08143 0.61693 0.62492 0.0
C1840 C 0.01616 0.61969 0.61968 0.0
C1841 C 0.00957 0.59957 0.63284 0.0
C1842 C 0.05657 0.61019 0.62616 0.0
C1843 C 0.02707 0.58469 0.64169 0.0
C1844 C 0.09897 0.6032 0.63582 0.0
C1845 C 0.10915 0.64636 0.61522 0.0
N1846 N 0.04984 0.59043 0.63844 0.0
N1847 N 0.08723 0.63783 0.61462 0.0
H1848 H 0.12108 0.64225 0.20009 0.0
H1849 H 0.18885 0.72906 0.10887 0.0
H1850 H 0.15214 0.62291 0.12844 0.0
H1851 H 0.17207 0.74736 0.18625 0.0
H1852 H 0.17742 0.68915 0.11754 0.0
H1853 H 0.14172 0.67968 0.19793 0.0
C1854 C 0.13261 0.64572 0.18422 0.0
C1855 C 0.13468 0.62974 0.1642 0.0
C1856 C 0.17639 0.70173 0.13282 0.0
C1857 C 0.15799 0.67224 0.16144 0.0
C1858 C 0.18283 0.72453 0.12778 0.0
C1859 C 0.18113 0.74144 0.14679 0.0
C1860 C 0.16773 0.69577 0.15699 0.0
C1861 C 0.17358 0.7347 0.17113 0.0
C1862 C 0.14429 0.66705 0.18292 0.0
C1863 C 0.14976 0.63498 0.14402 0.0
N1864 N 0.16677 0.71238 0.17547 0.0
N1865 N 0.16059 0.65584 0.14303 0.0
H1866 H 0.02213 0.45138 0.89195 0.0
H1867 H 0.12411 0.36949 0.94307 0.0
H1868 H 0.01104 0.39162 0.93993 0.0
H1869 H 0.13305 0.41869 0.88188 0.0
H1870 H 0.08404 0.38264 0.94826 0.0
H1871 H 0.06401 0.44424 0.89357 0.0
C1872 C 0.02852 0.43687 0.90297 0.0
C1873 C 0.01307 0.42194 0.91563 0.0
C1874 C 0.09485 0.39076 0.9339 0.0
C1875 C 0.06089 0.4137 0.91763 0.0
C1876 C 0.11781 0.38345 0.93113 0.0
C1877 C 0.13188 0.3929 0.91189 0.0
C1878 C 0.08592 0.40772 0.9174 0.0
C1879 C 0.12269 0.41073 0.89673 0.0
C1880 C 0.0524 0.43276 0.90382 0.0
C1881 C 0.02228 0.4033 0.92951 0.0
N1882 N 0.10024 0.41744 0.89967 0.0
N1883 N 0.04557 0.39969 0.93011 0.0
H1884 H 0.39212 0.37686 0.69607 0.0
H1885 H 0.31235 0.27472 0.64089 0.0
H1886 H 0.34176 0.38768 0.63651 0.0
H1887 H 0.37344 0.26439 0.68674 0.0
H1888 H 0.31764 0.31693 0.64497 0.0
H1889 H 0.37946 0.33662 0.69952 0.0
C1890 C 0.378 0.37096 0.68412 0.0
C1891 C 0.36814 0.38568 0.66581 0.0
C1892 C 0.32978 0.30537 0.65424 0.0
C1893 C 0.35393 0.3393 0.66925 0.0
C1894 C 0.32673 0.28135 0.65196 0.0
C1895 C 0.34269 0.26609 0.66318 0.0
C1896 C 0.34872 0.31409 0.66812 0.0
C1897 C 0.36104 0.27553 0.67733 0.0
C1898 C 0.37096 0.34786 0.6859 0.0
C1899 C 0.35011 0.37685 0.65061 0.0
N1900 N 0.36357 0.29887 0.67934 0.0
N1901 N 0.34373 0.35416 0.65248 0.0
H1902 H 0.38445 0.59861 0.36606 0.0
H1903 H 0.50027 0.61765 0.44409 0.0
H1904 H 0.38677 0.63621 0.43697 0.0
H1905 H 0.49416 0.56584 0.3853 0.0
H1906 H 0.45832 0.62341 0.44281 0.0
H1907 H 0.42378 0.5844 0.37398 0.0
C1908 C 0.39313 0.60349 0.38354 0.0
C1909 C 0.38248 0.6187 0.40083 0.0
C1910 C 0.46607 0.61061 0.43034 0.0
C1911 C 0.42756 0.60293 0.40979 0.0
C1912 C 0.49004 0.60748 0.43091 0.0
C1913 C 0.50069 0.59147 0.41452 0.0
C1914 C 0.45262 0.59788 0.41298 0.0
C1915 C 0.48659 0.57836 0.39821 0.0
C1916 C 0.41556 0.5954 0.38805 0.0
C1917 C 0.39436 0.62444 0.42323 0.0
N1918 N 0.46328 0.58207 0.3976 0.0
N1919 N 0.41644 0.61687 0.42687 0.0
H1920 H 0.24688 0.32058 0.09575 0.0
H1921 H 0.26393 0.31948 0.94394 0.0
H1922 H 0.31203 0.30381 0.05949 0.0
H1923 H 0.19727 0.31023 0.98022 0.0
H1924 H 0.28229 0.31863 0.98624 0.0
H1925 H 0.2285 0.32158 0.05348 0.0
C1926 C 0.25729 0.31703 0.07901 0.0
C1927 C 0.28102 0.31195 0.08134 0.0
C1928 C 0.26363 0.31675 0.98484 0.0
C1929 C 0.26023 0.31351 0.03287 0.0
C1930 C 0.25317 0.31726 0.9607 0.0
C1931 C 0.22903 0.31475 0.95838 0.0
C1932 C 0.24983 0.31414 1.00686 0.0
C1933 C 0.21596 0.31203 0.98091 0.0
C1934 C 0.24682 0.31761 0.05488 0.0
C1935 C 0.29366 0.30764 0.05882 0.0
N1936 N 0.22647 0.31192 1.00408 0.0
N1937 N 0.28319 0.30866 0.03565 0.0
H1938 H 0.94209 0.01697 0.19852 0.0
H1939 H 0.94134 0.99857 0.35019 0.0
H1940 H 0.94956 0.94981 0.23395 0.0
H1941 H 0.95952 0.06361 0.31451 0.0
H1942 H 0.9394 0.98063 0.3077 0.0
H1943 H 0.94347 0.03492 0.24106 0.0
C1944 C 0.94402 1.00602 0.21515 0.0
C1945 C 0.9459 0.98186 0.21252 0.0
C1946 C 0.94387 0.99883 0.30927 0.0
C1947 C 0.9471 1.00219 0.26125 0.0
C1948 C 0.94499 0.00905 0.33353 0.0
C1949 C 0.95077 0.0326 0.33608 0.0
C1950 C 0.94816 0.01234 0.28738 0.0
C1951 C 0.95518 0.04535 0.31366 0.0
C1952 C 0.94483 0.01625 0.23942 0.0
C1953 C 0.94826 0.96853 0.23487 0.0
N1954 N 0.95365 0.03513 0.29038 0.0
N1955 N 0.94868 0.97881 0.25817 0.0
H1956 H 0.25046 0.7166 0.57773 0.0
H1957 H 0.27157 0.65843 0.44036 0.0
H1958 H 0.2381 0.64457 0.56066 0.0
H1959 H 0.2743 0.73234 0.45307 0.0
H1960 H 0.2639 0.65267 0.4857 0.0
H1961 H 0.26501 0.7222 0.53394 0.0
C1962 C 0.25164 0.70181 0.56507 0.0
C1963 C 0.2434 0.68002 0.57287 0.0
C1964 C 0.26619 0.67017 0.47862 0.0
C1965 C 0.25922 0.68636 0.52267 0.0
C1966 C 0.27054 0.67348 0.45265 0.0
C1967 C 0.27353 0.69592 0.44273 0.0
C1968 C 0.26485 0.68941 0.49505 0.0
C1969 C 0.27193 0.71473 0.45975 0.0
C1970 C 0.25956 0.70506 0.53996 0.0
C1971 C 0.24454 0.66159 0.55544 0.0
N1972 N 0.26773 0.71106 0.48501 0.0
N1973 N 0.25213 0.66518 0.53123 0.0
H1974 H 0.5535 0.9511 0.79737 0.0
H1975 H 0.56369 0.06792 0.71702 0.0
H1976 H 0.57331 0.01628 0.83153 0.0
H1977 H 0.5695 1.00031 0.68228 0.0
H1978 H 0.56277 0.04972 0.75888 0.0
H1979 H 0.55483 0.96925 0.75548 0.0
C1980 C 0.55801 0.96932 0.79618 0.0
C1981 C 0.56323 0.98217 0.81827 0.0
C1982 C 0.56425 0.03883 0.74215 0.0
C1983 C 0.56469 1.00313 0.76981 0.0
C1984 C 0.56464 0.04918 0.71809 0.0
C1985 C 0.56659 0.03565 0.69584 0.0
C1986 C 0.56545 0.01463 0.74428 0.0
C1987 C 0.56794 0.01146 0.69877 0.0
C1988 C 0.55888 0.97961 0.7721 0.0
C1989 C 0.56909 1.00567 0.81517 0.0
N1990 N 0.56719 1.00173 0.72251 0.0
N1991 N 0.56953 0.01542 0.79144 0.0
H1992 H 0.74718 0.69193 0.09673 0.0
H1993 H 0.76255 0.6904 0.94441 0.0
H1994 H 0.81312 0.70188 0.05908 0.0
H1995 H 0.69715 0.70421 0.98164 0.0
H1996 H 0.78138 0.68981 0.98646 0.0
H1997 H 0.72823 0.69163 0.0547 0.0
C1998 C 0.75766 0.69407 0.07974 0.0
C1999 C 0.78177 0.69712 0.08161 0.0
C2000 C 0.7629 0.693 0.98533 0.0
C2001 C 0.76031 0.69642 0.03344 0.0
C2002 C 0.75217 0.69334 0.96131 0.0
C2003 C 0.72825 0.69754 0.95931 0.0
C2004 C 0.74957 0.6965 1.00755 0.0
C2005 C 0.71567 0.70109 0.98205 0.0
C2006 C 0.74686 0.69391 0.05575 0.0
C2007 C 0.79446 0.69968 0.05878 0.0
N2008 N 0.72641 0.70038 1.00508 0.0
N2009 N 0.78365 0.69917 0.0358 0.0
H2010 H 0.07472 0.99898 0.85081 0.0
H2011 H 0.07111 0.01577 0.69892 0.0
H2012 H 0.05669 0.06383 0.81483 0.0
H2013 H 0.06377 0.94905 0.73542 0.0
H2014 H 0.07065 0.03419 0.74125 0.0
H2015 H 0.0755 0.98057 0.8085 0.0
C2016 C 0.07087 0.00933 0.83413 0.0
C2017 C 0.06547 0.03297 0.83656 0.0
C2018 C 0.0691 0.01551 0.73989 0.0
C2019 C 0.06676 0.01215 0.78802 0.0
C2020 C 0.06938 1.00501 0.71573 0.0
C2021 C 0.0673 0.98082 0.71345 0.0
C2022 C 0.06715 1.00171 0.76197 0.0
C2023 C 0.06522 0.96776 0.73606 0.0
C2024 C 0.07132 0.99883 0.80997 0.0
C2025 C 0.06077 0.04552 0.81409 0.0
N2026 N 0.06532 0.97831 0.75923 0.0
N2027 N 0.06165 0.03503 0.7909 0.0
H2028 H 0.73358 0.35147 0.59838 0.0
H2029 H 0.78004 0.30262 0.46412 0.0
H2030 H 0.76246 0.28286 0.58999 0.0
H2031 H 0.75238 0.37136 0.47557 0.0
H2032 H 0.7726 0.29404 0.50931 0.0
H2033 H 0.73971 0.35823 0.55304 0.0
C2034 C 0.7412 0.33775 0.58703 0.0
C2035 C 0.74738 0.31648 0.5982 0.0
C2036 C 0.76806 0.31095 0.50186 0.0
C2037 C 0.75458 0.32422 0.54571 0.0
C2038 C 0.77218 0.31582 0.47599 0.0
C2039 C 0.76689 0.33779 0.46588 0.0
C2040 C 0.75853 0.32813 0.5178 0.0
C2041 C 0.75687 0.35421 0.48237 0.0
C2042 C 0.74473 0.34166 0.56101 0.0
C2043 C 0.75743 0.29954 0.58233 0.0
N2044 N 0.75311 0.34908 0.50734 0.0
N2045 N 0.76067 0.30374 0.55695 0.0
H2046 H 0.3944 0.01543 0.31425 0.0
H2047 H 0.48215 1.00175 0.19614 0.0
H2048 H 0.46336 0.98741 0.32261 0.0
H2049 H 0.41366 0.03158 0.19121 0.0
H2050 H 0.47641 0.99656 0.24222 0.0
H2051 H 0.40224 0.02248 0.26933 0.0
C2052 C 0.41131 0.0109 0.30671 0.0
C2053 C 0.42818 1.00067 0.32236 0.0
C2054 C 0.46269 1.00429 0.23102 0.0
C2055 C 0.43727 0.00852 0.27036 0.0
C2056 C 0.46591 1.00717 0.20467 0.0
C2057 C 0.44843 0.01724 0.18965 0.0
C2058 C 0.44179 0.01144 0.24247 0.0
C2059 C 0.42777 0.02396 0.20188 0.0
C2060 C 0.41577 0.01489 0.28092 0.0
C2061 C 0.44981 0.99532 0.31134 0.0
N2062 N 0.42507 0.02094 0.22741 0.0
N2063 N 0.45367 0.99914 0.286 0.0
H2064 H 0.81775 0.81183 0.56297 0.0
H2065 H 0.70049 0.80694 0.48325 0.0
H2066 H 0.75048 0.82168 0.59758 0.0
H2067 H 0.76657 0.82241 0.44823 0.0
H2068 H 0.71879 0.80804 0.52495 0.0
H2069 H 0.79959 0.81151 0.52109 0.0
C2070 C 0.79909 0.81382 0.56186 0.0
C2071 C 0.78563 0.81669 0.58406 0.0
C2072 C 0.72933 0.8112 0.50819 0.0
C2073 C 0.76468 0.81624 0.53567 0.0
C2074 C 0.71894 0.81045 0.48421 0.0
C2075 C 0.732 0.81451 0.46194 0.0
C2076 C 0.75314 0.81572 0.51022 0.0
C2077 C 0.7558 0.81913 0.46475 0.0
C2078 C 0.78878 0.81376 0.5378 0.0
C2079 C 0.76156 0.81937 0.58111 0.0
N2080 N 0.76563 0.81946 0.48842 0.0
N2081 N 0.75186 0.81892 0.5574 0.0
H2082 H 0.44087 0.4996 0.85152 0.0
H2083 H 0.44098 0.51596 0.69949 0.0
H2084 H 0.45075 0.566 0.815 0.0
H2085 H 0.45648 0.45079 0.7362 0.0
H2086 H 0.4398 0.53455 0.7417 0.0
H2087 H 0.44178 0.48105 0.80927 0.0
C2088 C 0.44325 0.51027 0.83473 0.0
C2089 C 0.44591 0.5344 0.83698 0.0
C2090 C 0.44352 0.51618 0.74041 0.0
C2091 C 0.44657 0.51336 0.78854 0.0
C2092 C 0.4442 0.50558 0.71631 0.0
C2093 C 0.449 0.48178 0.71411 0.0
C2094 C 0.44724 0.50283 0.76253 0.0
C2095 C 0.45288 0.4692 0.73675 0.0
C2096 C 0.44379 0.49969 0.81061 0.0
C2097 C 0.44883 0.54733 0.81439 0.0
N2098 N 0.45179 0.4798 0.75987 0.0
N2099 N 0.44895 0.53672 0.79125 0.0
H2100 H 0.75422 0.23157 0.08898 0.0
H2101 H 0.74931 0.13935 0.97458 0.0
H2102 H 0.73771 0.15908 0.09879 0.0
H2103 H 0.77483 0.20922 0.96469 0.0
H2104 H 0.74291 0.14731 1.01963 0.0
H2105 H 0.76073 0.22451 0.04348 0.0
C2106 C 0.75207 0.21414 0.08167 0.0
C2107 C 0.7452 0.19593 0.0979 0.0
C2108 C 0.74987 0.16096 1.00766 0.0
C2109 C 0.75241 0.18779 0.04553 0.0
C2110 C 0.75344 0.15647 0.98178 0.0
C2111 C 0.76272 0.1736 0.96562 0.0
C2112 C 0.7555 0.18283 1.01774 0.0
C2113 C 0.76768 0.19544 0.97632 0.0
C2114 C 0.75572 0.21015 0.05561 0.0
C2115 C 0.74268 0.17374 0.08714 0.0
N2116 N 0.76406 0.1994 1.00166 0.0
N2117 N 0.74617 0.17035 0.06174 0.0
H2118 H 0.03245 0.50887 0.34202 0.0
H2119 H 0.11926 0.49424 0.22321 0.0
H2120 H 0.10093 0.47894 0.3464 0.0
H2121 H 0.05121 0.52461 0.21566 0.0
H2122 H 0.11146 0.48702 0.26808 0.0
H2123 H 0.0379 0.51406 0.2959 0.0
C2124 C 0.04861 0.5034 0.33336 0.0
C2125 C 0.06619 0.49333 0.34825 0.0
C2126 C 0.09812 0.49516 0.25669 0.0
C2127 C 0.0725 0.49913 0.29539 0.0
C2128 C 0.10255 0.49925 0.23092 0.0
C2129 C 0.08594 0.51018 0.21551 0.0
C2130 C 0.0769 0.50212 0.26747 0.0
C2131 C 0.06456 0.51614 0.22674 0.0
C2132 C 0.05167 0.5063 0.30699 0.0
C2133 C 0.08675 0.48656 0.33585 0.0
N2134 N 0.06072 0.51219 0.25207 0.0
N2135 N 0.08929 0.48958 0.31031 0.0
H2136 H 0.25189 0.19281 0.59889 0.0
H2137 H 0.26763 0.19129 0.44686 0.0
H2138 H 0.31823 0.20178 0.56183 0.0
H2139 H 0.20252 0.20683 0.48388 0.0
H2140 H 0.28646 0.19084 0.48889 0.0
H2141 H 0.23315 0.19353 0.5568 0.0
C2142 C 0.2625 0.19496 0.582 0.0
C2143 C 0.28667 0.19739 0.58404 0.0
C2144 C 0.26805 0.19442 0.48771 0.0
C2145 C 0.26542 0.19787 0.53579 0.0
C2146 C 0.25732 0.1947 0.46371 0.0
C2147 C 0.23346 0.19923 0.46166 0.0
C2148 C 0.25478 0.19831 0.50988 0.0
C2149 C 0.22097 0.20338 0.48432 0.0
C2150 C 0.25182 0.19539 0.55797 0.0
C2151 C 0.29954 0.20002 0.56136 0.0
N2152 N 0.2317 0.20268 0.50736 0.0
N2153 N 0.28882 0.20006 0.5383 0.0
H2154 H 0.56156 0.56818 0.31504 0.0
H2155 H 0.55402 0.45067 0.23554 0.0
H2156 H 0.5693 0.50071 0.34965 0.0
H2157 H 0.5706 0.51631 0.20024 0.0
H2158 H 0.55517 0.46918 0.27713 0.0
H2159 H 0.56053 0.54994 0.27316 0.0
C2160 C 0.56291 0.54947 0.31394 0.0
C2161 C 0.56544 0.53598 0.33614 0.0
C2162 C 0.55855 0.47958 0.26034 0.0
C2163 C 0.56419 0.51493 0.28774 0.0
C2164 C 0.55779 0.46907 0.23641 0.0
C2165 C 0.56218 0.48192 0.21408 0.0
C2166 C 0.56343 0.50333 0.26229 0.0
C2167 C 0.56706 0.50568 0.2168 0.0
C2168 C 0.56245 0.5391 0.28987 0.0
C2169 C 0.56727 0.51183 0.33319 0.0
N2170 N 0.56744 0.51563 0.24044 0.0
N2171 N 0.56648 0.50209 0.30949 0.0
H2172 H 0.27753 0.85242 0.94251 0.0
H2173 H 0.23965 0.79497 0.07586 0.0
H2174 H 0.25775 0.78046 0.94945 0.0
H2175 H 0.2396 0.86849 0.06131 0.0
H2176 H 0.25352 0.78834 0.03196 0.0
H2177 H 0.27013 0.85762 0.98798 0.0
C2178 C 0.27165 0.83767 0.95357 0.0
C2179 C 0.26814 0.81598 0.94196 0.0
C2180 C 0.25091 0.80594 0.03857 0.0
C2181 C 0.25983 0.82182 0.99445 0.0
C2182 C 0.24337 0.80972 0.06372 0.0
C2183 C 0.23887 0.83234 0.07229 0.0
C2184 C 0.2541 0.82494 0.02204 0.0
C2185 C 0.24317 0.85082 0.05552 0.0
C2186 C 0.26743 0.84066 0.97961 0.0
C2187 C 0.2605 0.79755 0.95746 0.0
N2188 N 0.25048 0.84674 0.03128 0.0
N2189 N 0.25665 0.80086 0.98287 0.0
H2190 H 0.94248 0.50095 0.70045 0.0
H2191 H 0.93973 0.51908 0.85219 0.0
H2192 H 0.94956 0.56809 0.736 0.0
H2193 H 0.95913 0.45438 0.81669 0.0
H2194 H 0.93806 0.53705 0.80965 0.0
H2195 H 0.94327 0.48297 0.74302 0.0
C2196 C 0.94421 0.5119 0.7171 0.0
C2197 C 0.94617 0.53606 0.71449 0.0
C2198 C 0.94272 0.51892 0.81129 0.0
C2199 C 0.94667 0.51569 0.76327 0.0
C2200 C 0.94368 0.50868 0.83557 0.0
C2201 C 0.94977 0.48522 0.8382 0.0
C2202 C 0.94744 0.50551 0.78943 0.0
C2203 C 0.95455 0.47257 0.81581 0.0
C2204 C 0.94468 0.50165 0.74139 0.0
C2205 C 0.94823 0.54937 0.7369 0.0
N2206 N 0.95317 0.4828 0.79251 0.0
N2207 N 0.94832 0.53907 0.76021 0.0
H2208 H 0.24243 0.39985 0.11655 0.0
H2209 H 0.12506 0.46555 0.15561 0.0
H2210 H 0.20252 0.38525 0.18418 0.0
H2211 H 0.1696 0.48827 0.09431 0.0
H2212 H 0.1497 0.43158 0.16137 0.0
H2213 H 0.21258 0.42788 0.10335 0.0
C2214 C 0.22721 0.40228 0.12836 0.0
C2215 C 0.22505 0.3905 0.15163 0.0
C2216 C 0.15399 0.44388 0.14648 0.0
C2217 C 0.19099 0.42241 0.13685 0.0
C2218 C 0.13977 0.46323 0.14304 0.0
C2219 C 0.14535 0.47997 0.12459 0.0
C2220 C 0.17399 0.44116 0.13138 0.0
C2221 C 0.16488 0.47605 0.10908 0.0
C2222 C 0.21026 0.41834 0.12095 0.0
C2223 C 0.20504 0.39432 0.16634 0.0
N2224 N 0.17859 0.45716 0.11295 0.0
N2225 N 0.1889 0.41 0.15879 0.0
H2226 H 0.87831 0.98023 0.37399 0.0
H2227 H 0.78037 0.89286 0.425 0.0
H2228 H 0.86015 0.97264 0.4533 0.0
H2229 H 0.80305 0.89586 0.34672 0.0
H2230 H 0.81154 0.91993 0.43635 0.0
H2231 H 0.85294 0.94729 0.36396 0.0
C2232 C 0.86923 0.9715 0.38931 0.0
C2233 C 0.8711 0.97952 0.41445 0.0
C2234 C 0.80978 0.91453 0.4167 0.0
C2235 C 0.84181 0.94195 0.40315 0.0
C2236 C 0.79204 0.89896 0.41026 0.0
C2237 C 0.78879 0.89234 0.38481 0.0
C2238 C 0.82436 0.92357 0.39754 0.0
C2239 C 0.80446 0.90092 0.36648 0.0
C2240 C 0.85464 0.95276 0.38359 0.0
C2241 C 0.85881 0.96752 0.43355 0.0
N2242 N 0.82137 0.91619 0.37315 0.0
N2243 N 0.84459 0.94953 0.42749 0.0
H2244 H 0.28735 0.62852 0.62605 0.0
H2245 H 0.36213 0.52055 0.67592 0.0
H2246 H 0.27568 0.59621 0.69918 0.0
H2247 H 0.37246 0.55471 0.60374 0.0
H2248 H 0.33274 0.54987 0.68694 0.0
H2249 H 0.32064 0.60335 0.61949 0.0
C2250 C 0.29185 0.61633 0.64089 0.0
C2251 C 0.27846 0.61455 0.66319 0.0
C2252 C 0.3416 0.55102 0.66878 0.0
C2253 C 0.31669 0.58517 0.65556 0.0
C2254 C 0.35846 0.5344 0.66259 0.0
C2255 C 0.3695 0.53503 0.63875 0.0
C2256 C 0.3359 0.5684 0.65101 0.0
C2257 C 0.36402 0.55328 0.6221 0.0
C2258 C 0.31088 0.60179 0.63706 0.0
C2259 C 0.28516 0.59803 0.68151 0.0
N2260 N 0.34757 0.56908 0.62846 0.0
N2261 N 0.30372 0.58392 0.67724 0.0
H2262 H 0.63314 0.06217 0.92046 0.0
H2263 H 0.74576 0.09246 0.83858 0.0
H2264 H 0.65567 0.02046 0.85708 0.0
H2265 H 0.71837 0.13595 0.89836 0.0
H2266 H 0.71115 0.06795 0.84174 0.0
H2267 H 0.6619 0.09154 0.90916 0.0
C2268 C 0.64404 0.0594 0.90392 0.0
C2269 C 0.64224 0.03884 0.8898 0.0
C2270 C 0.71259 0.08302 0.85393 0.0
C2271 C 0.67557 0.07222 0.87687 0.0
C2272 C 0.73242 0.09699 0.85224 0.0
C2273 C 0.73519 0.11622 0.86843 0.0
C2274 C 0.69542 0.08822 0.87206 0.0
C2275 C 0.71707 0.12144 0.8854 0.0
C2276 C 0.66047 0.07615 0.89744 0.0
C2277 C 0.65655 0.03614 0.86838 0.0
N2278 N 0.69815 0.10739 0.88695 0.0
N2279 N 0.67291 0.05249 0.86277 0.0
H2280 H 0.15179 0.51889 0.37266 0.0
H2281 H 0.23281 0.62783 0.40601 0.0
H2282 H 0.15158 0.5543 0.44503 0.0
H2283 H 0.23154 0.59539 0.33192 0.0
H2284 H 0.20145 0.60228 0.41962 0.0
H2285 H 0.17928 0.54786 0.35633 0.0
C2286 C 0.15732 0.53283 0.38504 0.0
C2287 C 0.14955 0.53393 0.41038 0.0
C2288 C 0.20794 0.6008 0.40033 0.0
C2289 C 0.18116 0.56706 0.39191 0.0
C2290 C 0.22583 0.61556 0.39245 0.0
C2291 C 0.23508 0.61379 0.36775 0.0
C2292 C 0.19914 0.58402 0.38347 0.0
C2293 C 0.22534 0.59718 0.35126 0.0
C2294 C 0.17312 0.54932 0.37575 0.0
C2295 C 0.15746 0.55238 0.42557 0.0
N2296 N 0.20803 0.5829 0.35944 0.0
N2297 N 0.17286 0.56808 0.41617 0.0
H2298 H 0.65191 0.96535 0.58249 0.0
H2299 H 0.71626 0.90222 0.69792 0.0
H2300 H 0.6404 0.98268 0.66139 0.0
H2301 H 0.7332 0.8905 0.61892 0.0
H2302 H 0.68459 0.92758 0.68494 0.0
H2303 H 0.67756 0.93393 0.59558 0.0
C2304 C 0.65472 0.96249 0.60261 0.0
C2305 C 0.6443 0.97698 0.62087 0.0
C2306 C 0.69511 0.91936 0.67041 0.0
C2307 C 0.67365 0.94079 0.63603 0.0
C2308 C 0.7133 0.90494 0.6778 0.0
C2309 C 0.72774 0.89451 0.65948 0.0
C2310 C 0.6912 0.9235 0.64445 0.0
C2311 C 0.72258 0.89817 0.63368 0.0
C2312 C 0.66932 0.94446 0.61007 0.0
C2313 C 0.64808 0.97201 0.64668 0.0
N2314 N 0.70489 0.91256 0.62694 0.0
N2315 N 0.66266 0.95448 0.65349 0.0
H2316 H 0.36166 0.46691 0.95349 0.0
H2317 H 0.29468 0.40109 0.84168 0.0
H2318 H 0.37042 0.48328 0.8739 0.0
H2319 H 0.28036 0.39011 0.92143 0.0
H2320 H 0.32637 0.42714 0.85304 0.0
H2321 H 0.33603 0.43493 0.94196 0.0
C2322 C 0.35824 0.46375 0.93354 0.0
C2323 C 0.3679 0.47812 0.91464 0.0
C2324 C 0.31643 0.41894 0.8681 0.0
C2325 C 0.33858 0.44124 0.90126 0.0
C2326 C 0.29824 0.40411 0.86163 0.0
C2327 C 0.28452 0.3937 0.88064 0.0
C2328 C 0.32106 0.42351 0.89382 0.0
C2329 C 0.29042 0.39777 0.90616 0.0
C2330 C 0.34365 0.44538 0.92697 0.0
C2331 C 0.36335 0.47271 0.88908 0.0
N2332 N 0.3081 0.41255 0.91201 0.0
N2333 N 0.34881 0.45486 0.88315 0.0
H2334 H 0.86194 0.02244 0.17957 0.0
H2335 H 0.78359 0.13153 0.14003 0.0
H2336 H 0.86474 0.0564 0.10646 0.0
H2337 H 0.77708 0.09662 0.21245 0.0
H2338 H 0.81612 0.1064 0.12941 0.0
H2339 H 0.83375 0.05163 0.194 0.0
C2340 C 0.85685 0.03618 0.16669 0.0
C2341 C 0.86547 0.03681 0.14167 0.0
C2342 C 0.80767 0.10428 0.14771 0.0
C2343 C 0.8332 0.07011 0.15789 0.0
C2344 C 0.78911 0.11879 0.15388 0.0
C2345 C 0.77736 0.11621 0.17717 0.0
C2346 C 0.81466 0.08694 0.16488 0.0
C2347 C 0.78529 0.09904 0.19411 0.0
C2348 C 0.84067 0.05275 0.17485 0.0
C2349 C 0.85819 0.05495 0.12571 0.0
N2350 N 0.80334 0.08501 0.18759 0.0
N2351 N 0.84245 0.07074 0.13403 0.0
H2352 H 0.86097 0.5214 0.87604 0.0
H2353 H 0.79141 0.63788 0.91115 0.0
H2354 H 0.87361 0.56133 0.94403 0.0
H2355 H 0.77172 0.59087 0.85091 0.0
H2356 H 0.82383 0.61208 0.92158 0.0
H2357 H 0.83112 0.54953 0.8636 0.0
C2358 C 0.85768 0.53625 0.88814 0.0
C2359 C 0.86958 0.5389 0.91121 0.0
C2360 C 0.8124 0.60751 0.90602 0.0
C2361 C 0.83536 0.57099 0.89736 0.0
C2362 C 0.79379 0.62218 0.90017 0.0
C2363 C 0.77879 0.61675 0.87997 0.0
C2364 C 0.8161 0.5873 0.89155 0.0
C2365 C 0.78297 0.59616 0.86629 0.0
C2366 C 0.84052 0.55219 0.88119 0.0
C2367 C 0.86453 0.55841 0.9263 0.0
N2368 N 0.80118 0.58229 0.87229 0.0
N2369 N 0.84776 0.57363 0.91919 0.0
H2370 H 0.14278 0.03121 0.67558 0.0
H2371 H 0.2325 0.12614 0.62317 0.0
H2372 H 0.14858 0.05052 0.59644 0.0
H2373 H 0.22261 0.11103 0.70293 0.0
H2374 H 0.19933 0.10109 0.61325 0.0
H2375 H 0.16942 0.06287 0.68649 0.0
C2376 C 0.14939 0.04227 0.66055 0.0
C2377 C 0.14374 0.03791 0.63503 0.0
C2378 C 0.20432 0.1034 0.63296 0.0
C2379 C 0.17445 0.074 0.64725 0.0
C2380 C 0.2232 0.11781 0.63861 0.0
C2381 C 0.23064 0.12039 0.66387 0.0
C2382 C 0.19282 0.09147 0.65271 0.0
C2383 C 0.21792 0.10909 0.68312 0.0
C2384 C 0.16471 0.06028 0.66674 0.0
C2385 C 0.15292 0.05282 0.61631 0.0
N2386 N 0.19982 0.09499 0.67713 0.0
N2387 N 0.16795 0.07 0.62275 0.0
H2388 H 0.64093 0.45756 0.44325 0.0
H2389 H 0.73354 0.41527 0.34075 0.0
H2390 H 0.64792 0.48904 0.36921 0.0
H2391 H 0.72047 0.37992 0.41174 0.0
H2392 H 0.69974 0.43991 0.34858 0.0
H2393 H 0.66712 0.42656 0.43002 0.0
C2394 C 0.64787 0.45778 0.42408 0.0
C2395 C 0.64252 0.47601 0.40739 0.0
C2396 C 0.70405 0.42656 0.36229 0.0
C2397 C 0.67275 0.44064 0.39207 0.0
C2398 C 0.72341 0.41254 0.35787 0.0
C2399 C 0.73003 0.39568 0.37577 0.0
C2400 C 0.69129 0.42389 0.38491 0.0
C2401 C 0.71601 0.39263 0.3974 0.0
C2402 C 0.66278 0.44005 0.41648 0.0
C2403 C 0.65164 0.47529 0.38262 0.0
N2404 N 0.69752 0.4068 0.40152 0.0
N2405 N 0.66662 0.45807 0.37581 0.0
H2406 H 0.36203 0.99331 0.1615 0.0
H2407 H 0.28288 0.88548 0.11944 0.0
H2408 H 0.36486 0.96067 0.08766 0.0
H2409 H 0.27973 0.91609 0.1944 0.0
H2410 H 0.31474 0.91149 0.10873 0.0
H2411 H 0.33384 0.96383 0.17526 0.0
C2412 C 0.35692 0.97985 0.14828 0.0
C2413 C 0.36561 0.97968 0.12327 0.0
C2414 C 0.30717 0.91248 0.12758 0.0
C2415 C 0.33327 0.94602 0.13876 0.0
C2416 C 0.28898 0.89746 0.13379 0.0
C2417 C 0.27839 0.89854 0.15788 0.0
C2418 C 0.31492 0.92885 0.1455 0.0
C2419 C 0.28702 0.91481 0.17547 0.0
C2420 C 0.34074 0.96309 0.15608 0.0
C2421 C 0.35827 0.96185 0.10691 0.0
N2422 N 0.30468 0.92937 0.1689 0.0
N2423 N 0.3425 0.94588 0.11488 0.0
H2424 H 0.77817 0.39202 0.63204 0.0
H2425 H 0.87022 0.48643 0.67885 0.0
H2426 H 0.79592 0.40192 0.71119 0.0
H2427 H 0.86328 0.46465 0.6006 0.0
H2428 H 0.84331 0.45548 0.69144 0.0
H2429 H 0.80933 0.41865 0.62023 0.0
C2430 C 0.78865 0.39957 0.64697 0.0
C2431 C 0.78406 0.39477 0.67272 0.0
C2432 C 0.84782 0.45743 0.67153 0.0
C2433 C 0.81974 0.42567 0.65926 0.0
C2434 C 0.86328 0.47504 0.66435 0.0
C2435 C 0.86878 0.47846 0.63856 0.0
C2436 C 0.83772 0.44323 0.65277 0.0
C2437 C 0.85911 0.46315 0.62061 0.0
C2438 C 0.80645 0.41489 0.64019 0.0
C2439 C 0.79829 0.40539 0.69114 0.0
N2440 N 0.84394 0.4464 0.62801 0.0
N2441 N 0.81531 0.42043 0.68407 0.0
H2442 H 0.31115 0.12775 0.35543 0.0
H2443 H 0.34609 0.02269 0.44623 0.0
H2444 H 0.2733 0.11098 0.42384 0.0
H2445 H 0.38707 0.04522 0.38197 0.0
H2446 H 0.32113 0.05665 0.44086 0.0
H2447 H 0.34099 0.09981 0.36731 0.0
C2448 C 0.30927 0.11827 0.37311 0.0
C2449 C 0.28962 0.12146 0.38854 0.0
C2450 C 0.33574 0.05432 0.42812 0.0
C2451 C 0.32368 0.08917 0.40226 0.0
C2452 C 0.34996 0.03487 0.43111 0.0
C2453 C 0.36861 0.03092 0.41436 0.0
C2454 C 0.34005 0.06991 0.4081 0.0
C2455 C 0.37301 0.04754 0.3954 0.0
C2456 C 0.32634 0.10234 0.37994 0.0
C2457 C 0.2882 0.10901 0.41145 0.0
N2458 N 0.3587 0.06611 0.39262 0.0
N2459 N 0.30484 0.09314 0.41746 0.0
H2460 H 0.72021 0.63483 0.12932 0.0
H2461 H 0.64845 0.52217 0.17389 0.0
H2462 H 0.73719 0.59343 0.19524 0.0
H2463 H 0.64002 0.55426 0.10032 0.0
H2464 H 0.67787 0.55144 0.18444 0.0
H2465 H 0.68837 0.60786 0.11987 0.0
C2466 C 0.71737 0.62012 0.14175 0.0
C2467 C 0.73139 0.61666 0.16326 0.0
C2468 C 0.6695 0.55214 0.16601 0.0
C2469 C 0.69474 0.58591 0.1528 0.0
C2470 C 0.65257 0.53555 0.16012 0.0
C2471 C 0.64197 0.53564 0.13612 0.0
C2472 C 0.67572 0.56903 0.14785 0.0
C2473 C 0.64808 0.55332 0.11888 0.0
C2474 C 0.69909 0.60479 0.13644 0.0
C2475 C 0.72666 0.59727 0.17877 0.0
N2476 N 0.66458 0.56923 0.12502 0.0
N2477 N 0.70878 0.58276 0.17329 0.0
H2478 H 0.14982 0.96292 0.94846 0.0
H2479 H 0.217 0.90402 0.83214 0.0
H2480 H 0.14347 0.98663 0.87081 0.0
H2481 H 0.23567 0.8935 0.91092 0.0
H2482 H 0.18629 0.93026 0.84561 0.0
H2483 H 0.17717 0.93338 0.93448 0.0
C2484 C 0.15417 0.96199 0.92844 0.0
C2485 C 0.14456 0.97769 0.91087 0.0
C2486 C 0.19708 0.92217 0.85994 0.0
C2487 C 0.1758 0.94342 0.89466 0.0
C2488 C 0.2148 0.90722 0.85228 0.0
C2489 C 0.22939 0.89666 0.87036 0.0
C2490 C 0.19364 0.92657 0.88592 0.0
C2491 C 0.22498 0.9011 0.89624 0.0
C2492 C 0.16977 0.94499 0.92047 0.0
C2493 C 0.15039 0.975 0.88505 0.0
N2494 N 0.20758 0.91577 0.90321 0.0
N2495 N 0.16574 0.9583 0.87775 0.0
loop_
_geom_bond_atom_site_label_1
_geom_bond_atom_site_label_2
_geom_bond_distance
_geom_bond_site_symmetry_2
_ccdc_geom_bond_type
C0 C1 1.351 . S
C0 N3 1.368 . S
C0 H5 0.931 . S
C1 C0 1.351 . S
C1 N2 1.373 . S
C1 H29 0.930 . S
N2 C1 1.373 . S
N2 C4 1.340 . S
N3 C0 1.368 . S
N3 C4 1.321 . S
N3 Co6 2.135 . S
C4 N2 1.340 . S
C4 N3 1.321 . S
C4 H28 0.930 . S
H5 C0 0.931 . S
Co6 N3 2.135 . S
Co6 N9 2.121 . S
Co6 O14 2.055 . S
Co6 O17 2.039 . S
Co6 N20 2.140 . S
C7 O8 1.227 . S
C7 O17 1.265 . S
O8 C7 1.227 . S
N9 Co6 2.121 . S
N9 C11 1.375 . S
N9 C12 1.313 . S
C10 C11 1.338 . S
C10 N13 1.377 . S
C10 H30 0.930 . S
C11 N9 1.375 . S
C11 C10 1.338 . S
C11 H15 0.931 . S
C12 N9 1.313 . S
C12 N13 1.344 . S
C12 H16 0.930 . S
N13 C10 1.377 . S
N13 C12 1.344 . S
O14 Co6 2.055 . S
O14 C18 1.253 . S
H15 C11 0.931 . S
H16 C12 0.930 . S
O17 Co6 2.039 . S
O17 C7 1.265 . S
C18 O14 1.253 . S
C18 O19 1.227 . S
O19 C18 1.227 . S
N20 Co6 2.140 . S
N20 C23 1.346 . S
N20 C24 1.345 . S
C21 C22 1.387 . S
C21 C25 1.391 . S
C22 C21 1.387 . S
C22 C23 1.369 . S
C22 H31 0.929 . S
C23 N20 1.346 . S
C23 C22 1.369 . S
C23 H26 0.928 . S
C24 N20 1.345 . S
C24 C25 1.371 . S
C24 H27 0.931 . S
C25 C21 1.391 . S
C25 C24 1.371 . S
C25 H32 0.930 . S
H26 C23 0.928 . S
H27 C24 0.931 . S
H28 C4 0.930 . S
H29 C1 0.930 . S
H30 C10 0.930 . S
H31 C22 0.929 . S
H32 C25 0.930 . S
C33 C34 1.351 1_545 S
C33 N36 1.368 . S
C33 H38 0.931 . S
C34 C33 1.351 1_565 S
C34 N35 1.373 . S
C34 H62 0.930 . S
N35 C34 1.373 . S
N35 C37 1.349 . S
N36 C33 1.368 . S
N36 C37 1.309 1_545 S
N36 Co39 2.135 . S
C37 N35 1.349 . S
C37 N36 1.309 1_565 S
C37 H61 0.933 . S
H38 C33 0.931 . S
Co39 N36 2.135 . S
Co39 N42 2.121 . S
Co39 O47 2.055 . S
Co39 O50 2.039 . S
Co39 N53 2.140 . S
C40 O41 1.227 . S
C40 O50 1.265 . S
O41 C40 1.227 . S
N42 Co39 2.121 . S
N42 C44 1.375 . S
N42 C45 1.313 . S
C43 C44 1.338 . S
C43 N46 1.377 1_655 S
C43 H63 0.930 . S
C44 N42 1.375 . S
C44 C43 1.338 . S
C44 H48 0.931 . S
C45 N42 1.313 . S
C45 N46 1.344 1_655 S
C45 H49 0.930 . S
N46 C43 1.377 1_455 S
N46 C45 1.344 1_455 S
O47 Co39 2.055 . S
O47 C51 1.253 . S
H48 C44 0.931 . S
H49 C45 0.930 . S
O50 Co39 2.039 . S
O50 C40 1.265 . S
C51 O47 1.253 . S
C51 O52 1.227 . S
O52 C51 1.227 . S
N53 Co39 2.140 . S
N53 C56 1.346 . S
N53 C57 1.345 . S
C54 C55 1.387 . S
C54 C58 1.391 . S
C55 C54 1.387 . S
C55 C56 1.369 . S
C55 H64 0.929 . S
C56 N53 1.346 . S
C56 C55 1.369 . S
C56 H59 0.928 . S
C57 N53 1.345 . S
C57 C58 1.371 . S
C57 H60 0.931 . S
C58 C54 1.391 . S
C58 C57 1.371 . S
C58 H65 0.930 . S
H59 C56 0.928 . S
H60 C57 0.931 . S
H61 C37 0.933 . S
H62 C34 0.930 . S
H63 C43 0.930 . S
H64 C55 0.929 . S
H65 C58 0.930 . S
C66 C67 1.351 . S
C66 N69 1.368 . S
C66 H71 0.931 . S
C67 C66 1.351 . S
C67 N68 1.373 . S
C67 H95 0.930 . S
N68 C67 1.373 . S
N68 C70 1.340 . S
N69 C66 1.368 . S
N69 C70 1.321 . S
N69 Co72 2.135 . S
C70 N68 1.340 . S
C70 N69 1.321 . S
C70 H94 0.930 . S
H71 C66 0.931 . S
Co72 N69 2.135 . S
Co72 N75 2.121 . S
Co72 O80 2.055 . S
Co72 O83 2.039 . S
Co72 N86 2.140 . S
C73 O74 1.227 . S
C73 O83 1.265 . S
O74 C73 1.227 . S
N75 Co72 2.121 . S
N75 C77 1.375 . S
N75 C78 1.313 . S
C76 C77 1.338 . S
C76 N79 1.377 . S
C76 H96 0.930 . S
C77 N75 1.375 . S
C77 C76 1.338 . S
C77 H81 0.931 . S
C78 N75 1.313 . S
C78 N79 1.344 . S
C78 H82 0.930 . S
N79 C76 1.377 . S
N79 C78 1.344 . S
O80 Co72 2.055 . S
O80 C84 1.253 . S
H81 C77 0.931 . S
H82 C78 0.930 . S
O83 Co72 2.039 . S
O83 C73 1.265 . S
C84 O80 1.253 . S
C84 O85 1.227 . S
O85 C84 1.227 . S
N86 Co72 2.140 . S
N86 C89 1.346 . S
N86 C90 1.345 . S
C87 C88 1.387 . S
C87 C91 1.391 . S
C88 C87 1.387 . S
C88 C89 1.369 . S
C88 H97 0.929 . S
C89 N86 1.346 . S
C89 C88 1.369 . S
C89 H92 0.928 . S
C90 N86 1.345 . S
C90 C91 1.371 . S
C90 H93 0.931 . S
C91 C87 1.391 . S
C91 C90 1.371 . S
C91 H98 0.930 . S
H92 C89 0.928 . S
H93 C90 0.931 . S
H94 C70 0.930 . S
H95 C67 0.930 . S
H96 C76 0.930 . S
H97 C88 0.929 . S
H98 C91 0.930 . S
C99 C100 1.351 1_565 S
C99 N102 1.368 . S
C99 H104 0.931 . S
C100 C99 1.351 1_545 S
C100 N101 1.373 . S
C100 H128 0.930 . S
N101 C100 1.373 . S
N101 C103 1.350 . S
N102 C99 1.368 . S
N102 C103 1.309 1_565 S
N102 Co105 2.135 . S
C103 N101 1.350 . S
C103 N102 1.309 1_545 S
C103 H127 0.933 . S
H104 C99 0.931 . S
Co105 N102 2.135 . S
Co105 N108 2.121 . S
Co105 O113 2.055 . S
Co105 O116 2.039 . S
Co105 N119 2.140 . S
C106 O107 1.227 . S
C106 O116 1.265 . S
O107 C106 1.227 . S
N108 Co105 2.121 . S
N108 C110 1.375 . S
N108 C111 1.313 . S
C109 C110 1.338 . S
C109 N112 1.377 . S
C109 H129 0.930 . S
C110 N108 1.375 . S
C110 C109 1.338 . S
C110 H114 0.931 . S
C111 N108 1.313 . S
C111 N112 1.344 . S
C111 H115 0.930 . S
N112 C109 1.377 . S
N112 C111 1.344 . S
O113 Co105 2.055 . S
O113 C117 1.253 . S
H114 C110 0.931 . S
H115 C111 0.930 . S
O116 Co105 2.039 . S
O116 C106 1.265 . S
C117 O113 1.253 . S
C117 O118 1.227 . S
O118 C117 1.227 . S
N119 Co105 2.140 . S
N119 C122 1.346 . S
N119 C123 1.345 . S
C120 C121 1.387 . S
C120 C124 1.391 . S
C121 C120 1.387 . S
C121 C122 1.369 . S
C121 H130 0.929 . S
C122 N119 1.346 . S
C122 C121 1.369 . S
C122 H125 0.928 . S
C123 N119 1.345 . S
C123 C124 1.371 . S
C123 H126 0.931 . S
C124 C120 1.391 . S
C124 C123 1.371 . S
C124 H131 0.930 . S
H125 C122 0.928 . S
H126 C123 0.931 . S
H127 C103 0.933 . S
H128 C100 0.930 . S
H129 C109 0.930 . S
H130 C121 0.929 . S
H131 C124 0.930 . S
C132 C133 1.351 . S
C132 N135 1.368 . S
C132 H137 0.931 . S
C133 C132 1.351 . S
C133 N134 1.373 . S
C133 H161 0.930 . S
N134 C133 1.373 . S
N134 C136 1.340 . S
N135 C132 1.368 . S
N135 C136 1.321 . S
N135 Co138 2.135 . S
C136 N134 1.340 . S
C136 N135 1.321 . S
C136 H160 0.930 . S
H137 C132 0.931 . S
Co138 N135 2.135 . S
Co138 N141 2.121 . S
Co138 O146 2.055 . S
Co138 O149 2.039 . S
Co138 N152 2.140 . S
C139 O140 1.227 . S
C139 O149 1.265 . S
O140 C139 1.227 . S
N141 Co138 2.121 . S
N141 C143 1.375 . S
N141 C144 1.313 . S
C142 C143 1.338 . S
C142 N145 1.377 . S
C142 H162 0.930 . S
C143 N141 1.375 . S
C143 C142 1.338 . S
C143 H147 0.931 . S
C144 N141 1.313 . S
C144 N145 1.344 . S
C144 H148 0.930 . S
N145 C142 1.377 . S
N145 C144 1.344 . S
O146 Co138 2.055 . S
O146 C150 1.253 . S
H147 C143 0.931 . S
H148 C144 0.930 . S
O149 Co138 2.039 . S
O149 C139 1.265 . S
C150 O146 1.253 . S
C150 O151 1.227 . S
O151 C150 1.227 . S
N152 Co138 2.140 . S
N152 C155 1.346 . S
N152 C156 1.345 . S
C153 C154 1.387 . S
C153 C157 1.391 . S
C154 C153 1.387 . S
C154 C155 1.369 . S
C154 H163 0.929 . S
C155 N152 1.346 . S
C155 C154 1.369 . S
C155 H158 0.928 . S
C156 N152 1.345 . S
C156 C157 1.371 . S
C156 H159 0.931 . S
C157 C153 1.391 . S
C157 C156 1.371 . S
C157 H164 0.930 . S
H158 C155 0.928 . S
H159 C156 0.931 . S
H160 C136 0.930 . S
H161 C133 0.930 . S
H162 C142 0.930 . S
H163 C154 0.929 . S
H164 C157 0.930 . S
C165 C166 1.351 1_545 S
C165 N168 1.368 . S
C165 H170 0.931 . S
C166 C165 1.351 1_565 S
C166 N167 1.373 . S
C166 H194 0.930 . S
N167 C166 1.373 . S
N167 C169 1.350 . S
N168 C165 1.368 . S
N168 C169 1.309 1_545 S
N168 Co171 2.135 . S
C169 N167 1.350 . S
C169 N168 1.309 1_565 S
C169 H193 0.933 . S
H170 C165 0.931 . S
Co171 N168 2.135 . S
Co171 N174 2.121 . S
Co171 O179 2.055 . S
Co171 O182 2.039 . S
Co171 N185 2.140 . S
C172 O173 1.227 . S
C172 O182 1.265 . S
O173 C172 1.227 . S
N174 Co171 2.121 . S
N174 C176 1.375 . S
N174 C177 1.313 . S
C175 C176 1.338 . S
C175 N178 1.377 . S
C175 H195 0.930 . S
C176 N174 1.375 . S
C176 C175 1.338 . S
C176 H180 0.931 . S
C177 N174 1.313 . S
C177 N178 1.344 . S
C177 H181 0.930 . S
N178 C175 1.377 . S
N178 C177 1.344 . S
O179 Co171 2.055 . S
O179 C183 1.253 . S
H180 C176 0.931 . S
H181 C177 0.930 . S
O182 Co171 2.039 . S
O182 C172 1.265 . S
C183 O179 1.253 . S
C183 O184 1.227 . S
O184 C183 1.227 . S
N185 Co171 2.140 . S
N185 C188 1.346 . S
N185 C189 1.345 . S
C186 C187 1.387 . S
C186 C190 1.391 . S
C187 C186 1.387 . S
C187 C188 1.369 . S
C187 H196 0.929 . S
C188 N185 1.346 . S
C188 C187 1.369 . S
C188 H191 0.928 . S
C189 N185 1.345 . S
C189 C190 1.371 . S
C189 H192 0.931 . S
C190 C186 1.391 . S
C190 C189 1.371 . S
C190 H197 0.930 . S
H191 C188 0.928 . S
H192 C189 0.931 . S
H193 C169 0.933 . S
H194 C166 0.930 . S
H195 C175 0.930 . S
H196 C187 0.929 . S
H197 C190 0.930 . S
C198 C199 1.351 . S
C198 N201 1.368 . S
C198 H203 0.931 . S
C199 C198 1.351 . S
C199 N200 1.373 . S
C199 H227 0.930 . S
N200 C199 1.373 . S
N200 C202 1.340 . S
N201 C198 1.368 . S
N201 C202 1.321 . S
N201 Co204 2.135 . S
C202 N200 1.340 . S
C202 N201 1.321 . S
C202 H226 0.930 . S
H203 C198 0.931 . S
Co204 N201 2.135 . S
Co204 N207 2.121 . S
Co204 O212 2.055 . S
Co204 O215 2.039 . S
Co204 N218 2.140 . S
C205 O206 1.227 . S
C205 O215 1.265 . S
O206 C205 1.227 . S
N207 Co204 2.121 . S
N207 C209 1.375 . S
N207 C210 1.313 . S
C208 C209 1.338 . S
C208 N211 1.377 . S
C208 H228 0.930 . S
C209 N207 1.375 . S
C209 C208 1.338 . S
C209 H213 0.931 . S
C210 N207 1.313 . S
C210 N211 1.344 . S
C210 H214 0.930 . S
N211 C208 1.377 . S
N211 C210 1.344 . S
O212 Co204 2.055 . S
O212 C216 1.253 . S
H213 C209 0.931 . S
H214 C210 0.930 . S
O215 Co204 2.039 . S
O215 C205 1.265 . S
C216 O212 1.253 . S
C216 O217 1.227 . S
O217 C216 1.227 . S
N218 Co204 2.140 . S
N218 C221 1.346 . S
N218 C222 1.345 . S
C219 C220 1.387 . S
C219 C223 1.391 . S
C220 C219 1.387 . S
C220 C221 1.369 . S
C220 H229 0.929 . S
C221 N218 1.346 . S
C221 C220 1.369 . S
C221 H224 0.928 . S
C222 N218 1.345 . S
C222 C223 1.371 . S
C222 H225 0.931 . S
C223 C219 1.391 . S
C223 C222 1.371 . S
C223 H230 0.930 . S
H224 C221 0.928 . S
H225 C222 0.931 . S
H226 C202 0.930 . S
H227 C199 0.930 . S
H228 C208 0.930 . S
H229 C220 0.929 . S
H230 C223 0.930 . S
C231 C232 1.351 1_565 S
C231 N234 1.368 . S
C231 H236 0.931 . S
C232 C231 1.351 1_545 S
C232 N233 1.373 . S
C232 H260 0.930 . S
N233 C232 1.373 . S
N233 C235 1.349 . S
N234 C231 1.368 . S
N234 C235 1.309 1_565 S
N234 Co237 2.135 . S
C235 N233 1.349 . S
C235 N234 1.309 1_545 S
C235 H259 0.933 . S
H236 C231 0.931 . S
Co237 N234 2.135 . S
Co237 N240 2.121 . S
Co237 O245 2.055 . S
Co237 O248 2.039 . S
Co237 N251 2.140 . S
C238 O239 1.227 . S
C238 O248 1.265 . S
O239 C238 1.227 . S
N240 Co237 2.121 . S
N240 C242 1.375 . S
N240 C243 1.313 . S
C241 C242 1.338 . S
C241 N244 1.377 1_655 S
C241 H261 0.930 . S
C242 N240 1.375 . S
C242 C241 1.338 . S
C242 H246 0.931 . S
C243 N240 1.313 . S
C243 N244 1.344 1_655 S
C243 H247 0.930 . S
N244 C241 1.377 1_455 S
N244 C243 1.344 1_455 S
O245 Co237 2.055 . S
O245 C249 1.253 . S
H246 C242 0.931 . S
H247 C243 0.930 . S
O248 Co237 2.039 . S
O248 C238 1.265 . S
C249 O245 1.253 . S
C249 O250 1.227 . S
O250 C249 1.227 . S
N251 Co237 2.140 . S
N251 C254 1.346 . S
N251 C255 1.345 . S
C252 C253 1.387 . S
C252 C256 1.391 . S
C253 C252 1.387 . S
C253 C254 1.369 . S
C253 H262 0.929 . S
C254 N251 1.346 . S
C254 C253 1.369 . S
C254 H257 0.928 . S
C255 N251 1.345 . S
C255 C256 1.371 . S
C255 H258 0.931 . S
C256 C252 1.391 . S
C256 C255 1.371 . S
C256 H263 0.930 . S
H257 C254 0.928 . S
H258 C255 0.931 . S
H259 C235 0.933 . S
H260 C232 0.930 . S
H261 C241 0.930 . S
H262 C253 0.929 . S
H263 C256 0.930 . S
C264 C265 1.351 . S
C264 N267 1.368 . S
C264 H269 0.931 . S
C265 C264 1.351 . S
C265 N266 1.373 . S
C265 H293 0.930 . S
N266 C265 1.373 . S
N266 C268 1.340 . S
N267 C264 1.368 . S
N267 C268 1.321 . S
N267 Co270 2.135 . S
C268 N266 1.340 . S
C268 N267 1.321 . S
C268 H292 0.930 . S
H269 C264 0.931 . S
Co270 N267 2.135 . S
Co270 N273 2.121 . S
Co270 O278 2.055 . S
Co270 O281 2.039 . S
Co270 N284 2.140 . S
C271 O272 1.227 . S
C271 O281 1.265 . S
O272 C271 1.227 . S
N273 Co270 2.121 . S
N273 C275 1.375 . S
N273 C276 1.313 . S
C274 C275 1.338 . S
C274 N277 1.377 . S
C274 H294 0.930 . S
C275 N273 1.375 . S
C275 C274 1.338 . S
C275 H279 0.931 . S
C276 N273 1.313 . S
C276 N277 1.344 . S
C276 H280 0.930 . S
N277 C274 1.377 . S
N277 C276 1.344 . S
O278 Co270 2.055 . S
O278 C282 1.253 . S
H279 C275 0.931 . S
H280 C276 0.930 . S
O281 Co270 2.039 . S
O281 C271 1.265 . S
C282 O278 1.253 . S
C282 O283 1.227 . S
O283 C282 1.227 . S
N284 Co270 2.140 . S
N284 C287 1.346 . S
N284 C288 1.345 . S
C285 C286 1.387 . S
C285 C289 1.391 . S
C286 C285 1.387 . S
C286 C287 1.369 . S
C286 H295 0.929 . S
C287 N284 1.346 . S
C287 C286 1.369 . S
C287 H290 0.928 . S
C288 N284 1.345 . S
C288 C289 1.371 . S
C288 H291 0.931 . S
C289 C285 1.391 . S
C289 C288 1.371 . S
C289 H296 0.930 . S
H290 C287 0.928 . S
H291 C288 0.931 . S
H292 C268 0.930 . S
H293 C265 0.930 . S
H294 C274 0.930 . S
H295 C286 0.929 . S
H296 C289 0.930 . S
C297 C298 1.351 1_565 S
C297 N300 1.368 . S
C297 H302 0.931 . S
C298 C297 1.351 1_545 S
C298 N299 1.373 . S
C298 H326 0.930 . S
N299 C298 1.373 . S
N299 C301 1.349 . S
N300 C297 1.368 . S
N300 C301 1.309 1_565 S
N300 Co303 2.135 . S
C301 N299 1.349 . S
C301 N300 1.309 1_545 S
C301 H325 0.933 . S
H302 C297 0.931 . S
Co303 N300 2.135 . S
Co303 N306 2.121 . S
Co303 O311 2.055 . S
Co303 O314 2.039 . S
Co303 N317 2.140 . S
C304 O305 1.227 . S
C304 O314 1.265 . S
O305 C304 1.227 . S
N306 Co303 2.121 . S
N306 C308 1.375 . S
N306 C309 1.313 . S
C307 C308 1.338 . S
C307 N310 1.377 1_455 S
C307 H327 0.930 . S
C308 N306 1.375 . S
C308 C307 1.338 . S
C308 H312 0.931 . S
C309 N306 1.313 . S
C309 N310 1.344 1_455 S
C309 H313 0.930 . S
N310 C307 1.377 1_655 S
N310 C309 1.344 1_655 S
O311 Co303 2.055 . S
O311 C315 1.253 . S
H312 C308 0.931 . S
H313 C309 0.930 . S
O314 Co303 2.039 . S
O314 C304 1.265 . S
C315 O311 1.253 . S
C315 O316 1.227 . S
O316 C315 1.227 . S
N317 Co303 2.140 . S
N317 C320 1.346 . S
N317 C321 1.345 . S
C318 C319 1.387 . S
C318 C322 1.391 . S
C319 C318 1.387 . S
C319 C320 1.369 . S
C319 H328 0.929 . S
C320 N317 1.346 . S
C320 C319 1.369 . S
C320 H323 0.928 . S
C321 N317 1.345 . S
C321 C322 1.371 . S
C321 H324 0.931 . S
C322 C318 1.391 . S
C322 C321 1.371 . S
C322 H329 0.930 . S
H323 C320 0.928 . S
H324 C321 0.931 . S
H325 C301 0.933 . S
H326 C298 0.930 . S
H327 C307 0.930 . S
H328 C319 0.929 . S
H329 C322 0.930 . S
C330 C331 1.351 . S
C330 N333 1.368 . S
C330 H335 0.931 . S
C331 C330 1.351 . S
C331 N332 1.373 . S
C331 H359 0.930 . S
N332 C331 1.373 . S
N332 C334 1.340 . S
N333 C330 1.368 . S
N333 C334 1.321 . S
N333 Co336 2.135 . S
C334 N332 1.340 . S
C334 N333 1.321 . S
C334 H358 0.930 . S
H335 C330 0.931 . S
Co336 N333 2.135 . S
Co336 N339 2.121 . S
Co336 O344 2.055 . S
Co336 O347 2.039 . S
Co336 N350 2.140 . S
C337 O338 1.227 . S
C337 O347 1.265 . S
O338 C337 1.227 . S
N339 Co336 2.121 . S
N339 C341 1.375 . S
N339 C342 1.313 . S
C340 C341 1.338 . S
C340 N343 1.377 . S
C340 H360 0.930 . S
C341 N339 1.375 . S
C341 C340 1.338 . S
C341 H345 0.931 . S
C342 N339 1.313 . S
C342 N343 1.344 . S
C342 H346 0.930 . S
N343 C340 1.377 . S
N343 C342 1.344 . S
O344 Co336 2.055 . S
O344 C348 1.253 . S
H345 C341 0.931 . S
H346 C342 0.930 . S
O347 Co336 2.039 . S
O347 C337 1.265 . S
C348 O344 1.253 . S
C348 O349 1.227 . S
O349 C348 1.227 . S
N350 Co336 2.140 . S
N350 C353 1.346 . S
N350 C354 1.345 . S
C351 C352 1.387 . S
C351 C355 1.391 . S
C352 C351 1.387 . S
C352 C353 1.369 . S
C352 H361 0.929 . S
C353 N350 1.346 . S
C353 C352 1.369 . S
C353 H356 0.928 . S
C354 N350 1.345 . S
C354 C355 1.371 . S
C354 H357 0.931 . S
C355 C351 1.391 . S
C355 C354 1.371 . S
C355 H362 0.930 . S
H356 C353 0.928 . S
H357 C354 0.931 . S
H358 C334 0.930 . S
H359 C331 0.930 . S
H360 C340 0.930 . S
H361 C352 0.929 . S
H362 C355 0.930 . S
C363 C364 1.351 1_545 S
C363 N366 1.368 . S
C363 H368 0.931 . S
C364 C363 1.351 1_565 S
C364 N365 1.373 . S
C364 H392 0.930 . S
N365 C364 1.373 . S
N365 C367 1.350 . S
N366 C363 1.368 . S
N366 C367 1.309 1_545 S
N366 Co369 2.135 . S
C367 N365 1.350 . S
C367 N366 1.309 1_565 S
C367 H391 0.933 . S
H368 C363 0.931 . S
Co369 N366 2.135 . S
Co369 N372 2.121 . S
Co369 O377 2.055 . S
Co369 O380 2.039 . S
Co369 N383 2.140 . S
C370 O371 1.227 . S
C370 O380 1.265 . S
O371 C370 1.227 . S
N372 Co369 2.121 . S
N372 C374 1.375 . S
N372 C375 1.313 . S
C373 C374 1.338 . S
C373 N376 1.377 . S
C373 H393 0.930 . S
C374 N372 1.375 . S
C374 C373 1.338 . S
C374 H378 0.931 . S
C375 N372 1.313 . S
C375 N376 1.344 . S
C375 H379 0.930 . S
N376 C373 1.377 . S
N376 C375 1.344 . S
O377 Co369 2.055 . S
O377 C381 1.253 . S
H378 C374 0.931 . S
H379 C375 0.930 . S
O380 Co369 2.039 . S
O380 C370 1.265 . S
C381 O377 1.253 . S
C381 O382 1.227 . S
O382 C381 1.227 . S
N383 Co369 2.140 . S
N383 C386 1.346 . S
N383 C387 1.345 . S
C384 C385 1.387 . S
C384 C388 1.391 . S
C385 C384 1.387 . S
C385 C386 1.369 . S
C385 H394 0.929 . S
C386 N383 1.346 . S
C386 C385 1.369 . S
C386 H389 0.928 . S
C387 N383 1.345 . S
C387 C388 1.371 . S
C387 H390 0.931 . S
C388 C384 1.391 . S
C388 C387 1.371 . S
C388 H395 0.930 . S
H389 C386 0.928 . S
H390 C387 0.931 . S
H391 C367 0.933 . S
H392 C364 0.930 . S
H393 C373 0.930 . S
H394 C385 0.929 . S
H395 C388 0.930 . S
C396 C397 1.351 . S
C396 N399 1.368 . S
C396 H401 0.931 . S
C397 C396 1.351 . S
C397 N398 1.373 . S
C397 H425 0.930 . S
N398 C397 1.373 . S
N398 C400 1.340 . S
N399 C396 1.368 . S
N399 C400 1.321 . S
N399 Co402 2.135 . S
C400 N398 1.340 . S
C400 N399 1.321 . S
C400 H424 0.930 . S
H401 C396 0.931 . S
Co402 N399 2.135 . S
Co402 N405 2.121 . S
Co402 O410 2.055 . S
Co402 O413 2.039 . S
Co402 N416 2.140 . S
C403 O404 1.227 . S
C403 O413 1.265 . S
O404 C403 1.227 . S
N405 Co402 2.121 . S
N405 C407 1.375 . S
N405 C408 1.313 . S
C406 C407 1.338 . S
C406 N409 1.377 . S
C406 H426 0.930 . S
C407 N405 1.375 . S
C407 C406 1.338 . S
C407 H411 0.931 . S
C408 N405 1.313 . S
C408 N409 1.344 . S
C408 H412 0.930 . S
N409 C406 1.377 . S
N409 C408 1.344 . S
O410 Co402 2.055 . S
O410 C414 1.253 . S
H411 C407 0.931 . S
H412 C408 0.930 . S
O413 Co402 2.039 . S
O413 C403 1.265 . S
C414 O410 1.253 . S
C414 O415 1.227 . S
O415 C414 1.227 . S
N416 Co402 2.140 . S
N416 C419 1.346 . S
N416 C420 1.345 . S
C417 C418 1.387 . S
C417 C421 1.391 . S
C418 C417 1.387 . S
C418 C419 1.369 . S
C418 H427 0.929 . S
C419 N416 1.346 . S
C419 C418 1.369 . S
C419 H422 0.928 . S
C420 N416 1.345 . S
C420 C421 1.371 . S
C420 H423 0.931 . S
C421 C417 1.391 . S
C421 C420 1.371 . S
C421 H428 0.930 . S
H422 C419 0.928 . S
H423 C420 0.931 . S
H424 C400 0.930 . S
H425 C397 0.930 . S
H426 C406 0.930 . S
H427 C418 0.929 . S
H428 C421 0.930 . S
C429 C430 1.351 1_565 S
C429 N432 1.368 . S
C429 H434 0.931 . S
C430 C429 1.351 1_545 S
C430 N431 1.373 . S
C430 H458 0.930 . S
N431 C430 1.373 . S
N431 C433 1.350 . S
N432 C429 1.368 . S
N432 C433 1.309 1_565 S
N432 Co435 2.135 . S
C433 N431 1.350 . S
C433 N432 1.309 1_545 S
C433 H457 0.933 . S
H434 C429 0.931 . S
Co435 N432 2.135 . S
Co435 N438 2.121 . S
Co435 O443 2.055 . S
Co435 O446 2.039 . S
Co435 N449 2.140 . S
C436 O437 1.227 . S
C436 O446 1.265 . S
O437 C436 1.227 . S
N438 Co435 2.121 . S
N438 C440 1.375 . S
N438 C441 1.313 . S
C439 C440 1.338 . S
C439 N442 1.377 . S
C439 H459 0.930 . S
C440 N438 1.375 . S
C440 C439 1.338 . S
C440 H444 0.931 . S
C441 N438 1.313 . S
C441 N442 1.344 . S
C441 H445 0.930 . S
N442 C439 1.377 . S
N442 C441 1.344 . S
O443 Co435 2.055 . S
O443 C447 1.253 . S
H444 C440 0.931 . S
H445 C441 0.930 . S
O446 Co435 2.039 . S
O446 C436 1.265 . S
C447 O443 1.253 . S
C447 O448 1.227 . S
O448 C447 1.227 . S
N449 Co435 2.140 . S
N449 C452 1.346 . S
N449 C453 1.345 . S
C450 C451 1.387 . S
C450 C454 1.391 . S
C451 C450 1.387 . S
C451 C452 1.369 . S
C451 H460 0.929 . S
C452 N449 1.346 . S
C452 C451 1.369 . S
C452 H455 0.928 . S
C453 N449 1.345 . S
C453 C454 1.371 . S
C453 H456 0.931 . S
C454 C450 1.391 . S
C454 C453 1.371 . S
C454 H461 0.930 . S
H455 C452 0.928 . S
H456 C453 0.931 . S
H457 C433 0.933 . S
H458 C430 0.930 . S
H459 C439 0.930 . S
H460 C451 0.929 . S
H461 C454 0.930 . S
C462 C463 1.351 . S
C462 N465 1.368 . S
C462 H467 0.931 . S
C463 C462 1.351 . S
C463 N464 1.373 . S
C463 H491 0.930 . S
N464 C463 1.373 . S
N464 C466 1.340 . S
N465 C462 1.368 . S
N465 C466 1.321 . S
N465 Co468 2.135 . S
C466 N464 1.340 . S
C466 N465 1.321 . S
C466 H490 0.930 . S
H467 C462 0.931 . S
Co468 N465 2.135 . S
Co468 N471 2.121 . S
Co468 O476 2.055 . S
Co468 O479 2.039 . S
Co468 N482 2.140 . S
C469 O470 1.227 . S
C469 O479 1.265 . S
O470 C469 1.227 . S
N471 Co468 2.121 . S
N471 C473 1.375 . S
N471 C474 1.313 . S
C472 C473 1.338 . S
C472 N475 1.377 . S
C472 H492 0.930 . S
C473 N471 1.375 . S
C473 C472 1.338 . S
C473 H477 0.931 . S
C474 N471 1.313 . S
C474 N475 1.344 . S
C474 H478 0.930 . S
N475 C472 1.377 . S
N475 C474 1.344 . S
O476 Co468 2.055 . S
O476 C480 1.253 . S
H477 C473 0.931 . S
H478 C474 0.930 . S
O479 Co468 2.039 . S
O479 C469 1.265 . S
C480 O476 1.253 . S
C480 O481 1.227 . S
O481 C480 1.227 . S
N482 Co468 2.140 . S
N482 C485 1.346 . S
N482 C486 1.345 . S
C483 C484 1.387 . S
C483 C487 1.391 . S
C484 C483 1.387 . S
C484 C485 1.369 . S
C484 H493 0.929 . S
C485 N482 1.346 . S
C485 C484 1.369 . S
C485 H488 0.928 . S
C486 N482 1.345 . S
C486 C487 1.371 . S
C486 H489 0.931 . S
C487 C483 1.391 . S
C487 C486 1.371 . S
C487 H494 0.930 . S
H488 C485 0.928 . S
H489 C486 0.931 . S
H490 C466 0.930 . S
H491 C463 0.930 . S
H492 C472 0.930 . S
H493 C484 0.929 . S
H494 C487 0.930 . S
C495 C496 1.351 1_545 S
C495 N498 1.368 . S
C495 H500 0.931 . S
C496 C495 1.351 1_565 S
C496 N497 1.373 . S
C496 H524 0.930 . S
N497 C496 1.373 . S
N497 C499 1.349 . S
N498 C495 1.368 . S
N498 C499 1.309 1_545 S
N498 Co501 2.135 . S
C499 N497 1.349 . S
C499 N498 1.309 1_565 S
C499 H523 0.933 . S
H500 C495 0.931 . S
Co501 N498 2.135 . S
Co501 N504 2.121 . S
Co501 O509 2.055 . S
Co501 O512 2.039 . S
Co501 N515 2.140 . S
C502 O503 1.227 . S
C502 O512 1.265 . S
O503 C502 1.227 . S
N504 Co501 2.121 . S
N504 C506 1.375 . S
N504 C507 1.313 . S
C505 C506 1.338 . S
C505 N508 1.377 1_455 S
C505 H525 0.930 . S
C506 N504 1.375 . S
C506 C505 1.338 . S
C506 H510 0.931 . S
C507 N504 1.313 . S
C507 N508 1.344 1_455 S
C507 H511 0.930 . S
N508 C505 1.377 1_655 S
N508 C507 1.344 1_655 S
O509 Co501 2.055 . S
O509 C513 1.253 . S
H510 C506 0.931 . S
H511 C507 0.930 . S
O512 Co501 2.039 . S
O512 C502 1.265 . S
C513 O509 1.253 . S
C513 O514 1.227 . S
O514 C513 1.227 . S
N515 Co501 2.140 . S
N515 C518 1.346 . S
N515 C519 1.345 . S
C516 C517 1.387 . S
C516 C520 1.391 . S
C517 C516 1.387 . S
C517 C518 1.369 . S
C517 H526 0.929 . S
C518 N515 1.346 . S
C518 C517 1.369 . S
C518 H521 0.928 . S
C519 N515 1.345 . S
C519 C520 1.371 . S
C519 H522 0.931 . S
C520 C516 1.391 . S
C520 C519 1.371 . S
C520 H527 0.930 . S
H521 C518 0.928 . S
H522 C519 0.931 . S
H523 C499 0.933 . S
H524 C496 0.930 . S
H525 C505 0.930 . S
H526 C517 0.929 . S
H527 C520 0.930 . S
C528 C529 1.351 . S
C528 N531 1.368 . S
C528 H533 0.931 . S
C529 C528 1.351 . S
C529 N530 1.373 . S
C529 H557 0.930 . S
N530 C529 1.373 . S
N530 C532 1.340 . S
N531 C528 1.368 . S
N531 C532 1.321 . S
N531 Co534 2.135 . S
C532 N530 1.340 . S
C532 N531 1.321 . S
C532 H556 0.930 . S
H533 C528 0.931 . S
Co534 N531 2.135 . S
Co534 N537 2.121 . S
Co534 O542 2.055 . S
Co534 O545 2.039 . S
Co534 N548 2.140 . S
C535 O536 1.227 . S
C535 O545 1.265 . S
O536 C535 1.227 . S
N537 Co534 2.121 . S
N537 C539 1.375 . S
N537 C540 1.313 . S
C538 C539 1.338 . S
C538 N541 1.377 . S
C538 H558 0.930 . S
C539 N537 1.375 . S
C539 C538 1.338 . S
C539 H543 0.931 . S
C540 N537 1.313 . S
C540 N541 1.344 . S
C540 H544 0.930 . S
N541 C538 1.377 . S
N541 C540 1.344 . S
O542 Co534 2.055 . S
O542 C546 1.253 . S
H543 C539 0.931 . S
H544 C540 0.930 . S
O545 Co534 2.039 . S
O545 C535 1.265 . S
C546 O542 1.253 . S
C546 O547 1.227 . S
O547 C546 1.227 . S
N548 Co534 2.140 . S
N548 C551 1.346 . S
N548 C552 1.345 . S
C549 C550 1.387 . S
C549 C553 1.391 . S
C550 C549 1.387 . S
C550 C551 1.369 . S
C550 H559 0.929 . S
C551 N548 1.346 . S
C551 C550 1.369 . S
C551 H554 0.928 . S
C552 N548 1.345 . S
C552 C553 1.371 . S
C552 H555 0.931 . S
C553 C549 1.391 . S
C553 C552 1.371 . S
C553 H560 0.930 . S
H554 C551 0.928 . S
H555 C552 0.931 . S
H556 C532 0.930 . S
H557 C529 0.930 . S
H558 C538 0.930 . S
H559 C550 0.929 . S
H560 C553 0.930 . S
C561 C562 1.351 . S
C561 N564 1.368 . S
C561 H566 0.931 . S
C562 C561 1.351 . S
C562 N563 1.373 . S
C562 H590 0.930 . S
N563 C562 1.373 . S
N563 C565 1.340 . S
N564 C561 1.368 . S
N564 C565 1.321 . S
N564 Co567 2.135 . S
C565 N563 1.340 . S
C565 N564 1.321 . S
C565 H589 0.930 . S
H566 C561 0.931 . S
Co567 N564 2.135 . S
Co567 N570 2.121 . S
Co567 O575 2.055 . S
Co567 O578 2.039 . S
Co567 N581 2.140 . S
C568 O569 1.227 . S
C568 O578 1.265 . S
O569 C568 1.227 . S
N570 Co567 2.121 . S
N570 C572 1.375 . S
N570 C573 1.313 . S
C571 C572 1.338 . S
C571 N574 1.377 . S
C571 H591 0.930 . S
C572 N570 1.375 . S
C572 C571 1.338 . S
C572 H576 0.931 . S
C573 N570 1.313 . S
C573 N574 1.344 . S
C573 H577 0.930 . S
N574 C571 1.377 . S
N574 C573 1.344 . S
O575 Co567 2.055 . S
O575 C579 1.253 . S
H576 C572 0.931 . S
H577 C573 0.930 . S
O578 Co567 2.039 . S
O578 C568 1.265 . S
C579 O575 1.253 . S
C579 O580 1.227 . S
O580 C579 1.227 . S
N581 Co567 2.140 . S
N581 C584 1.346 . S
N581 C585 1.345 . S
C582 C583 1.387 . S
C582 C586 1.391 . S
C583 C582 1.387 . S
C583 C584 1.369 . S
C583 H592 0.929 . S
C584 N581 1.346 . S
C584 C583 1.369 . S
C584 H587 0.928 . S
C585 N581 1.345 . S
C585 C586 1.371 . S
C585 H588 0.931 . S
C586 C582 1.391 . S
C586 C585 1.371 . S
C586 H593 0.930 . S
H587 C584 0.928 . S
H588 C585 0.931 . S
H589 C565 0.930 . S
H590 C562 0.930 . S
H591 C571 0.930 . S
H592 C583 0.929 . S
H593 C586 0.930 . S
C594 C595 1.351 . S
C594 N597 1.368 . S
C594 H599 0.931 . S
C595 C594 1.351 . S
C595 N596 1.373 . S
C595 H623 0.930 . S
N596 C595 1.373 . S
N596 C598 1.340 . S
N597 C594 1.368 . S
N597 C598 1.321 . S
N597 Co600 2.135 . S
C598 N596 1.340 . S
C598 N597 1.321 . S
C598 H622 0.930 . S
H599 C594 0.931 . S
Co600 N597 2.135 . S
Co600 N603 2.121 . S
Co600 O608 2.055 . S
Co600 O611 2.039 . S
Co600 N614 2.140 . S
C601 O602 1.227 . S
C601 O611 1.265 . S
O602 C601 1.227 . S
N603 Co600 2.121 . S
N603 C605 1.375 . S
N603 C606 1.313 . S
C604 C605 1.338 . S
C604 N607 1.377 . S
C604 H624 0.930 . S
C605 N603 1.375 . S
C605 C604 1.338 . S
C605 H609 0.931 . S
C606 N603 1.313 . S
C606 N607 1.344 . S
C606 H610 0.930 . S
N607 C604 1.377 . S
N607 C606 1.344 . S
O608 Co600 2.055 . S
O608 C612 1.253 . S
H609 C605 0.931 . S
H610 C606 0.930 . S
O611 Co600 2.039 . S
O611 C601 1.265 . S
C612 O608 1.253 . S
C612 O613 1.227 . S
O613 C612 1.227 . S
N614 Co600 2.140 . S
N614 C617 1.346 . S
N614 C618 1.345 . S
C615 C616 1.387 . S
C615 C619 1.391 . S
C616 C615 1.387 . S
C616 C617 1.369 . S
C616 H625 0.929 . S
C617 N614 1.346 . S
C617 C616 1.369 . S
C617 H620 0.928 . S
C618 N614 1.345 . S
C618 C619 1.371 . S
C618 H621 0.931 . S
C619 C615 1.391 . S
C619 C618 1.371 . S
C619 H626 0.930 . S
H620 C617 0.928 . S
H621 C618 0.931 . S
H622 C598 0.930 . S
H623 C595 0.930 . S
H624 C604 0.930 . S
H625 C616 0.929 . S
H626 C619 0.930 . S
C627 C628 1.351 . S
C627 N630 1.368 . S
C627 H632 0.931 . S
C628 C627 1.351 . S
C628 N629 1.373 . S
C628 H656 0.930 . S
N629 C628 1.373 . S
N629 C631 1.340 . S
N630 C627 1.368 . S
N630 C631 1.321 . S
N630 Co633 2.135 . S
C631 N629 1.340 . S
C631 N630 1.321 . S
C631 H655 0.930 . S
H632 C627 0.931 . S
Co633 N630 2.135 . S
Co633 N636 2.121 . S
Co633 O641 2.055 . S
Co633 O644 2.039 . S
Co633 N647 2.140 . S
C634 O635 1.227 . S
C634 O644 1.265 . S
O635 C634 1.227 . S
N636 Co633 2.121 . S
N636 C638 1.375 . S
N636 C639 1.313 . S
C637 C638 1.338 . S
C637 N640 1.377 1_455 S
C637 H657 0.930 . S
C638 N636 1.375 . S
C638 C637 1.338 . S
C638 H642 0.931 . S
C639 N636 1.313 . S
C639 N640 1.344 1_455 S
C639 H643 0.930 . S
N640 C637 1.377 1_655 S
N640 C639 1.344 1_655 S
O641 Co633 2.055 . S
O641 C645 1.253 . S
H642 C638 0.931 . S
H643 C639 0.930 . S
O644 Co633 2.039 . S
O644 C634 1.265 . S
C645 O641 1.253 . S
C645 O646 1.227 . S
O646 C645 1.227 . S
N647 Co633 2.140 . S
N647 C650 1.346 . S
N647 C651 1.345 . S
C648 C649 1.387 . S
C648 C652 1.391 . S
C649 C648 1.387 . S
C649 C650 1.369 . S
C649 H658 0.929 . S
C650 N647 1.346 . S
C650 C649 1.369 . S
C650 H653 0.928 . S
C651 N647 1.345 . S
C651 C652 1.371 . S
C651 H654 0.931 . S
C652 C648 1.391 . S
C652 C651 1.371 . S
C652 H659 0.930 . S
H653 C650 0.928 . S
H654 C651 0.931 . S
H655 C631 0.930 . S
H656 C628 0.930 . S
H657 C637 0.930 . S
H658 C649 0.929 . S
H659 C652 0.930 . S
C660 C661 1.351 . S
C660 N663 1.368 . S
C660 H665 0.931 . S
C661 C660 1.351 . S
C661 N662 1.373 . S
C661 H689 0.930 . S
N662 C661 1.373 . S
N662 C664 1.340 . S
N663 C660 1.368 . S
N663 C664 1.321 . S
N663 Co666 2.135 . S
C664 N662 1.340 . S
C664 N663 1.321 . S
C664 H688 0.930 . S
H665 C660 0.931 . S
Co666 N663 2.135 . S
Co666 N669 2.121 . S
Co666 O674 2.055 . S
Co666 O677 2.039 . S
Co666 N680 2.140 . S
C667 O668 1.227 . S
C667 O677 1.265 . S
O668 C667 1.227 . S
N669 Co666 2.121 . S
N669 C671 1.375 . S
N669 C672 1.313 . S
C670 C671 1.338 . S
C670 N673 1.377 . S
C670 H690 0.930 . S
C671 N669 1.375 . S
C671 C670 1.338 . S
C671 H675 0.931 . S
C672 N669 1.313 . S
C672 N673 1.344 . S
C672 H676 0.930 . S
N673 C670 1.377 . S
N673 C672 1.344 . S
O674 Co666 2.055 . S
O674 C678 1.253 . S
H675 C671 0.931 . S
H676 C672 0.930 . S
O677 Co666 2.039 . S
O677 C667 1.265 . S
C678 O674 1.253 . S
C678 O679 1.227 . S
O679 C678 1.227 . S
N680 Co666 2.140 . S
N680 C683 1.346 . S
N680 C684 1.345 . S
C681 C682 1.387 . S
C681 C685 1.391 . S
C682 C681 1.387 . S
C682 C683 1.369 . S
C682 H691 0.929 . S
C683 N680 1.346 . S
C683 C682 1.369 . S
C683 H686 0.928 . S
C684 N680 1.345 . S
C684 C685 1.371 . S
C684 H687 0.931 . S
C685 C681 1.391 . S
C685 C684 1.371 . S
C685 H692 0.930 . S
H686 C683 0.928 . S
H687 C684 0.931 . S
H688 C664 0.930 . S
H689 C661 0.930 . S
H690 C670 0.930 . S
H691 C682 0.929 . S
H692 C685 0.930 . S
C693 C694 1.351 . S
C693 N696 1.368 . S
C693 H698 0.931 . S
C694 C693 1.351 . S
C694 N695 1.373 . S
C694 H722 0.930 . S
N695 C694 1.373 . S
N695 C697 1.340 . S
N696 C693 1.368 . S
N696 C697 1.321 . S
N696 Co699 2.135 . S
C697 N695 1.340 . S
C697 N696 1.321 . S
C697 H721 0.930 . S
H698 C693 0.931 . S
Co699 N696 2.135 . S
Co699 N702 2.121 . S
Co699 O707 2.055 . S
Co699 O710 2.039 . S
Co699 N713 2.140 . S
C700 O701 1.227 . S
C700 O710 1.265 . S
O701 C700 1.227 . S
N702 Co699 2.121 . S
N702 C704 1.375 . S
N702 C705 1.313 . S
C703 C704 1.338 . S
C703 N706 1.377 1_455 S
C703 H723 0.930 . S
C704 N702 1.375 . S
C704 C703 1.338 . S
C704 H708 0.931 . S
C705 N702 1.313 . S
C705 N706 1.344 1_455 S
C705 H709 0.930 . S
N706 C703 1.377 1_655 S
N706 C705 1.344 1_655 S
O707 Co699 2.055 . S
O707 C711 1.253 . S
H708 C704 0.931 . S
H709 C705 0.930 . S
O710 Co699 2.039 . S
O710 C700 1.265 . S
C711 O707 1.253 . S
C711 O712 1.227 . S
O712 C711 1.227 . S
N713 Co699 2.140 . S
N713 C716 1.346 . S
N713 C717 1.345 . S
C714 C715 1.387 . S
C714 C718 1.391 . S
C715 C714 1.387 . S
C715 C716 1.369 . S
C715 H724 0.929 . S
C716 N713 1.346 . S
C716 C715 1.369 . S
C716 H719 0.928 . S
C717 N713 1.345 . S
C717 C718 1.371 . S
C717 H720 0.931 . S
C718 C714 1.391 . S
C718 C717 1.371 . S
C718 H725 0.930 . S
H719 C716 0.928 . S
H720 C717 0.931 . S
H721 C697 0.930 . S
H722 C694 0.930 . S
H723 C703 0.930 . S
H724 C715 0.929 . S
H725 C718 0.930 . S
C726 C727 1.351 . S
C726 N729 1.368 . S
C726 H731 0.931 . S
C727 C726 1.351 . S
C727 N728 1.373 . S
C727 H755 0.930 . S
N728 C727 1.373 . S
N728 C730 1.340 . S
N729 C726 1.368 . S
N729 C730 1.321 . S
N729 Co732 2.135 . S
C730 N728 1.340 . S
C730 N729 1.321 . S
C730 H754 0.930 . S
H731 C726 0.931 . S
Co732 N729 2.135 . S
Co732 N735 2.121 . S
Co732 O740 2.055 . S
Co732 O743 2.039 . S
Co732 N746 2.140 . S
C733 O734 1.227 . S
C733 O743 1.265 . S
O734 C733 1.227 . S
N735 Co732 2.121 . S
N735 C737 1.375 . S
N735 C738 1.313 . S
C736 C737 1.338 . S
C736 N739 1.377 . S
C736 H756 0.930 . S
C737 N735 1.375 . S
C737 C736 1.338 . S
C737 H741 0.931 . S
C738 N735 1.313 . S
C738 N739 1.344 . S
C738 H742 0.930 . S
N739 C736 1.377 . S
N739 C738 1.344 . S
O740 Co732 2.055 . S
O740 C744 1.253 . S
H741 C737 0.931 . S
H742 C738 0.930 . S
O743 Co732 2.039 . S
O743 C733 1.265 . S
C744 O740 1.253 . S
C744 O745 1.227 . S
O745 C744 1.227 . S
N746 Co732 2.140 . S
N746 C749 1.346 . S
N746 C750 1.345 . S
C747 C748 1.387 . S
C747 C751 1.391 . S
C748 C747 1.387 . S
C748 C749 1.369 . S
C748 H757 0.929 . S
C749 N746 1.346 . S
C749 C748 1.369 . S
C749 H752 0.928 . S
C750 N746 1.345 . S
C750 C751 1.371 . S
C750 H753 0.931 . S
C751 C747 1.391 . S
C751 C750 1.371 . S
C751 H758 0.930 . S
H752 C749 0.928 . S
H753 C750 0.931 . S
H754 C730 0.930 . S
H755 C727 0.930 . S
H756 C736 0.930 . S
H757 C748 0.929 . S
H758 C751 0.930 . S
C759 C760 1.351 . S
C759 N762 1.368 . S
C759 H764 0.931 . S
C760 C759 1.351 . S
C760 N761 1.373 . S
C760 H788 0.930 . S
N761 C760 1.373 . S
N761 C763 1.340 . S
N762 C759 1.368 . S
N762 C763 1.321 . S
N762 Co765 2.135 . S
C763 N761 1.340 . S
C763 N762 1.321 . S
C763 H787 0.930 . S
H764 C759 0.931 . S
Co765 N762 2.135 . S
Co765 N768 2.121 . S
Co765 O773 2.055 . S
Co765 O776 2.039 . S
Co765 N779 2.140 . S
C766 O767 1.227 . S
C766 O776 1.265 . S
O767 C766 1.227 . S
N768 Co765 2.121 . S
N768 C770 1.375 . S
N768 C771 1.313 . S
C769 C770 1.338 . S
C769 N772 1.377 . S
C769 H789 0.930 . S
C770 N768 1.375 . S
C770 C769 1.338 . S
C770 H774 0.931 . S
C771 N768 1.313 . S
C771 N772 1.344 . S
C771 H775 0.930 . S
N772 C769 1.377 . S
N772 C771 1.344 . S
O773 Co765 2.055 . S
O773 C777 1.253 . S
H774 C770 0.931 . S
H775 C771 0.930 . S
O776 Co765 2.039 . S
O776 C766 1.265 . S
C777 O773 1.253 . S
C777 O778 1.227 . S
O778 C777 1.227 . S
N779 Co765 2.140 . S
N779 C782 1.346 . S
N779 C783 1.345 . S
C780 C781 1.387 . S
C780 C784 1.391 . S
C781 C780 1.387 . S
C781 C782 1.369 . S
C781 H790 0.929 . S
C782 N779 1.346 . S
C782 C781 1.369 . S
C782 H785 0.928 . S
C783 N779 1.345 . S
C783 C784 1.371 . S
C783 H786 0.931 . S
C784 C780 1.391 . S
C784 C783 1.371 . S
C784 H791 0.930 . S
H785 C782 0.928 . S
H786 C783 0.931 . S
H787 C763 0.930 . S
H788 C760 0.930 . S
H789 C769 0.930 . S
H790 C781 0.929 . S
H791 C784 0.930 . S
C792 C793 1.351 . S
C792 N795 1.368 . S
C792 H797 0.931 . S
C793 C792 1.351 . S
C793 N794 1.373 . S
C793 H821 0.930 . S
N794 C793 1.373 . S
N794 C796 1.340 . S
N795 C792 1.368 . S
N795 C796 1.321 . S
N795 Co798 2.135 . S
C796 N794 1.340 . S
C796 N795 1.321 . S
C796 H820 0.930 . S
H797 C792 0.931 . S
Co798 N795 2.135 . S
Co798 N801 2.121 . S
Co798 O806 2.055 . S
Co798 O809 2.039 . S
Co798 N812 2.140 . S
C799 O800 1.227 . S
C799 O809 1.265 . S
O800 C799 1.227 . S
N801 Co798 2.121 . S
N801 C803 1.375 . S
N801 C804 1.313 . S
C802 C803 1.338 . S
C802 N805 1.377 . S
C802 H822 0.930 . S
C803 N801 1.375 . S
C803 C802 1.338 . S
C803 H807 0.931 . S
C804 N801 1.313 . S
C804 N805 1.344 . S
C804 H808 0.930 . S
N805 C802 1.377 . S
N805 C804 1.344 . S
O806 Co798 2.055 . S
O806 C810 1.253 . S
H807 C803 0.931 . S
H808 C804 0.930 . S
O809 Co798 2.039 . S
O809 C799 1.265 . S
C810 O806 1.253 . S
C810 O811 1.227 . S
O811 C810 1.227 . S
N812 Co798 2.140 . S
N812 C815 1.346 . S
N812 C816 1.345 . S
C813 C814 1.387 . S
C813 C817 1.391 . S
C814 C813 1.387 . S
C814 C815 1.369 . S
C814 H823 0.929 . S
C815 N812 1.346 . S
C815 C814 1.369 . S
C815 H818 0.928 . S
C816 N812 1.345 . S
C816 C817 1.371 . S
C816 H819 0.931 . S
C817 C813 1.391 . S
C817 C816 1.371 . S
C817 H824 0.930 . S
H818 C815 0.928 . S
H819 C816 0.931 . S
H820 C796 0.930 . S
H821 C793 0.930 . S
H822 C802 0.930 . S
H823 C814 0.929 . S
H824 C817 0.930 . S
C825 C826 1.351 . S
C825 N828 1.368 . S
C825 H830 0.931 . S
C826 C825 1.351 . S
C826 N827 1.373 . S
C826 H854 0.930 . S
N827 C826 1.373 . S
N827 C829 1.340 . S
N828 C825 1.368 . S
N828 C829 1.321 . S
N828 Co831 2.135 . S
C829 N827 1.340 . S
C829 N828 1.321 . S
C829 H853 0.930 . S
H830 C825 0.931 . S
Co831 N828 2.135 . S
Co831 N834 2.121 . S
Co831 O839 2.055 . S
Co831 O842 2.039 . S
Co831 N845 2.140 . S
C832 O833 1.227 . S
C832 O842 1.265 . S
O833 C832 1.227 . S
N834 Co831 2.121 . S
N834 C836 1.375 . S
N834 C837 1.313 . S
C835 C836 1.338 . S
C835 N838 1.377 . S
C835 H855 0.930 . S
C836 N834 1.375 . S
C836 C835 1.338 . S
C836 H840 0.931 . S
C837 N834 1.313 . S
C837 N838 1.344 . S
C837 H841 0.930 . S
N838 C835 1.377 . S
N838 C837 1.344 . S
O839 Co831 2.055 . S
O839 C843 1.253 . S
H840 C836 0.931 . S
H841 C837 0.930 . S
O842 Co831 2.039 . S
O842 C832 1.265 . S
C843 O839 1.253 . S
C843 O844 1.227 . S
O844 C843 1.227 . S
N845 Co831 2.140 . S
N845 C848 1.346 . S
N845 C849 1.345 . S
C846 C847 1.387 . S
C846 C850 1.391 . S
C847 C846 1.387 . S
C847 C848 1.369 . S
C847 H856 0.929 . S
C848 N845 1.346 . S
C848 C847 1.369 . S
C848 H851 0.928 . S
C849 N845 1.345 . S
C849 C850 1.371 . S
C849 H852 0.931 . S
C850 C846 1.391 . S
C850 C849 1.371 . S
C850 H857 0.930 . S
H851 C848 0.928 . S
H852 C849 0.931 . S
H853 C829 0.930 . S
H854 C826 0.930 . S
H855 C835 0.930 . S
H856 C847 0.929 . S
H857 C850 0.930 . S
C858 C859 1.351 . S
C858 N861 1.368 . S
C858 H863 0.931 . S
C859 C858 1.351 . S
C859 N860 1.373 . S
C859 H887 0.930 . S
N860 C859 1.373 . S
N860 C862 1.340 . S
N861 C858 1.368 . S
N861 C862 1.321 . S
N861 Co864 2.135 . S
C862 N860 1.340 . S
C862 N861 1.321 . S
C862 H886 0.930 . S
H863 C858 0.931 . S
Co864 N861 2.135 . S
Co864 N867 2.121 . S
Co864 O872 2.055 . S
Co864 O875 2.039 . S
Co864 N878 2.140 . S
C865 O866 1.227 . S
C865 O875 1.265 . S
O866 C865 1.227 . S
N867 Co864 2.121 . S
N867 C869 1.375 . S
N867 C870 1.313 . S
C868 C869 1.338 . S
C868 N871 1.377 . S
C868 H888 0.930 . S
C869 N867 1.375 . S
C869 C868 1.338 . S
C869 H873 0.931 . S
C870 N867 1.313 . S
C870 N871 1.344 . S
C870 H874 0.930 . S
N871 C868 1.377 . S
N871 C870 1.344 . S
O872 Co864 2.055 . S
O872 C876 1.253 . S
H873 C869 0.931 . S
H874 C870 0.930 . S
O875 Co864 2.039 . S
O875 C865 1.265 . S
C876 O872 1.253 . S
C876 O877 1.227 . S
O877 C876 1.227 . S
N878 Co864 2.140 . S
N878 C881 1.346 . S
N878 C882 1.345 . S
C879 C880 1.387 . S
C879 C883 1.391 . S
C880 C879 1.387 . S
C880 C881 1.369 . S
C880 H889 0.929 . S
C881 N878 1.346 . S
C881 C880 1.369 . S
C881 H884 0.928 . S
C882 N878 1.345 . S
C882 C883 1.371 . S
C882 H885 0.931 . S
C883 C879 1.391 . S
C883 C882 1.371 . S
C883 H890 0.930 . S
H884 C881 0.928 . S
H885 C882 0.931 . S
H886 C862 0.930 . S
H887 C859 0.930 . S
H888 C868 0.930 . S
H889 C880 0.929 . S
H890 C883 0.930 . S
C891 C892 1.351 . S
C891 N894 1.368 . S
C891 H896 0.931 . S
C892 C891 1.351 . S
C892 N893 1.373 . S
C892 H920 0.930 . S
N893 C892 1.373 . S
N893 C895 1.340 . S
N894 C891 1.368 . S
N894 C895 1.321 . S
N894 Co897 2.135 . S
C895 N893 1.340 . S
C895 N894 1.321 . S
C895 H919 0.930 . S
H896 C891 0.931 . S
Co897 N894 2.135 . S
Co897 N900 2.121 . S
Co897 O905 2.055 . S
Co897 O908 2.039 . S
Co897 N911 2.140 . S
C898 O899 1.227 . S
C898 O908 1.265 . S
O899 C898 1.227 . S
N900 Co897 2.121 . S
N900 C902 1.375 . S
N900 C903 1.313 . S
C901 C902 1.338 . S
C901 N904 1.377 1_655 S
C901 H921 0.930 . S
C902 N900 1.375 . S
C902 C901 1.338 . S
C902 H906 0.931 . S
C903 N900 1.313 . S
C903 N904 1.344 1_655 S
C903 H907 0.930 . S
N904 C901 1.377 1_455 S
N904 C903 1.344 1_455 S
O905 Co897 2.055 . S
O905 C909 1.253 . S
H906 C902 0.931 . S
H907 C903 0.930 . S
O908 Co897 2.039 . S
O908 C898 1.265 . S
C909 O905 1.253 . S
C909 O910 1.227 . S
O910 C909 1.227 . S
N911 Co897 2.140 . S
N911 C914 1.346 . S
N911 C915 1.345 . S
C912 C913 1.387 . S
C912 C916 1.391 . S
C913 C912 1.387 . S
C913 C914 1.369 . S
C913 H922 0.929 . S
C914 N911 1.346 . S
C914 C913 1.369 . S
C914 H917 0.928 . S
C915 N911 1.345 . S
C915 C916 1.371 . S
C915 H918 0.931 . S
C916 C912 1.391 . S
C916 C915 1.371 . S
C916 H923 0.930 . S
H917 C914 0.928 . S
H918 C915 0.931 . S
H919 C895 0.930 . S
H920 C892 0.930 . S
H921 C901 0.930 . S
H922 C913 0.929 . S
H923 C916 0.930 . S
C924 C925 1.351 . S
C924 N927 1.368 . S
C924 H929 0.931 . S
C925 C924 1.351 . S
C925 N926 1.373 . S
C925 H953 0.930 . S
N926 C925 1.373 . S
N926 C928 1.340 . S
N927 C924 1.368 . S
N927 C928 1.321 . S
N927 Co930 2.135 . S
C928 N926 1.340 . S
C928 N927 1.321 . S
C928 H952 0.930 . S
H929 C924 0.931 . S
Co930 N927 2.135 . S
Co930 N933 2.121 . S
Co930 O938 2.055 . S
Co930 O941 2.039 . S
Co930 N944 2.140 . S
C931 O932 1.227 . S
C931 O941 1.265 . S
O932 C931 1.227 . S
N933 Co930 2.121 . S
N933 C935 1.375 . S
N933 C936 1.313 . S
C934 C935 1.338 . S
C934 N937 1.377 . S
C934 H954 0.930 . S
C935 N933 1.375 . S
C935 C934 1.338 . S
C935 H939 0.931 . S
C936 N933 1.313 . S
C936 N937 1.344 . S
C936 H940 0.930 . S
N937 C934 1.377 . S
N937 C936 1.344 . S
O938 Co930 2.055 . S
O938 C942 1.253 . S
H939 C935 0.931 . S
H940 C936 0.930 . S
O941 Co930 2.039 . S
O941 C931 1.265 . S
C942 O938 1.253 . S
C942 O943 1.227 . S
O943 C942 1.227 . S
N944 Co930 2.140 . S
N944 C947 1.346 . S
N944 C948 1.345 . S
C945 C946 1.387 . S
C945 C949 1.391 . S
C946 C945 1.387 . S
C946 C947 1.369 . S
C946 H955 0.929 . S
C947 N944 1.346 . S
C947 C946 1.369 . S
C947 H950 0.928 . S
C948 N944 1.345 . S
C948 C949 1.371 . S
C948 H951 0.931 . S
C949 C945 1.391 . S
C949 C948 1.371 . S
C949 H956 0.930 . S
H950 C947 0.928 . S
H951 C948 0.931 . S
H952 C928 0.930 . S
H953 C925 0.930 . S
H954 C934 0.930 . S
H955 C946 0.929 . S
H956 C949 0.930 . S
C957 C958 1.351 . S
C957 N960 1.368 . S
C957 H962 0.931 . S
C958 C957 1.351 . S
C958 N959 1.373 . S
C958 H986 0.930 . S
N959 C958 1.373 . S
N959 C961 1.340 . S
N960 C957 1.368 . S
N960 C961 1.321 . S
N960 Co963 2.135 . S
C961 N959 1.340 . S
C961 N960 1.321 . S
C961 H985 0.930 . S
H962 C957 0.931 . S
Co963 N960 2.135 . S
Co963 N966 2.121 . S
Co963 O971 2.055 . S
Co963 O974 2.039 . S
Co963 N977 2.140 . S
C964 O965 1.227 . S
C964 O974 1.265 . S
O965 C964 1.227 . S
N966 Co963 2.121 . S
N966 C968 1.375 . S
N966 C969 1.313 . S
C967 C968 1.338 . S
C967 N970 1.377 1_655 S
C967 H987 0.930 . S
C968 N966 1.375 . S
C968 C967 1.338 . S
C968 H972 0.931 . S
C969 N966 1.313 . S
C969 N970 1.344 1_655 S
C969 H973 0.930 . S
N970 C967 1.377 1_455 S
N970 C969 1.344 1_455 S
O971 Co963 2.055 . S
O971 C975 1.253 . S
H972 C968 0.931 . S
H973 C969 0.930 . S
O974 Co963 2.039 . S
O974 C964 1.265 . S
C975 O971 1.253 . S
C975 O976 1.227 . S
O976 C975 1.227 . S
N977 Co963 2.140 . S
N977 C980 1.346 . S
N977 C981 1.345 . S
C978 C979 1.387 . S
C978 C982 1.391 . S
C979 C978 1.387 . S
C979 C980 1.369 . S
C979 H988 0.929 . S
C980 N977 1.346 . S
C980 C979 1.369 . S
C980 H983 0.928 . S
C981 N977 1.345 . S
C981 C982 1.371 . S
C981 H984 0.931 . S
C982 C978 1.391 . S
C982 C981 1.371 . S
C982 H989 0.930 . S
H983 C980 0.928 . S
H984 C981 0.931 . S
H985 C961 0.930 . S
H986 C958 0.930 . S
H987 C967 0.930 . S
H988 C979 0.929 . S
H989 C982 0.930 . S
C990 C991 1.351 . S
C990 N993 1.368 . S
C990 H995 0.931 . S
C991 C990 1.351 . S
C991 N992 1.373 . S
C991 H1019 0.930 . S
N992 C991 1.373 . S
N992 C994 1.340 . S
N993 C990 1.368 . S
N993 C994 1.321 . S
N993 Co996 2.135 . S
C994 N992 1.340 . S
C994 N993 1.321 . S
C994 H1018 0.930 . S
H995 C990 0.931 . S
Co996 N993 2.135 . S
Co996 N999 2.121 . S
Co996 O1004 2.055 . S
Co996 O1007 2.039 . S
Co996 N1010 2.140 . S
C997 O998 1.227 . S
C997 O1007 1.265 . S
O998 C997 1.227 . S
N999 Co996 2.121 . S
N999 C1001 1.375 . S
N999 C1002 1.313 . S
C1000 C1001 1.338 . S
C1000 N1003 1.377 . S
C1000 H1020 0.930 . S
C1001 N999 1.375 . S
C1001 C1000 1.338 . S
C1001 H1005 0.931 . S
C1002 N999 1.313 . S
C1002 N1003 1.344 . S
C1002 H1006 0.930 . S
N1003 C1000 1.377 . S
N1003 C1002 1.344 . S
O1004 Co996 2.055 . S
O1004 C1008 1.253 . S
H1005 C1001 0.931 . S
H1006 C1002 0.930 . S
O1007 Co996 2.039 . S
O1007 C997 1.265 . S
C1008 O1004 1.253 . S
C1008 O1009 1.227 . S
O1009 C1008 1.227 . S
N1010 Co996 2.140 . S
N1010 C1013 1.346 . S
N1010 C1014 1.345 . S
C1011 C1012 1.387 . S
C1011 C1015 1.391 . S
C1012 C1011 1.387 . S
C1012 C1013 1.369 . S
C1012 H1021 0.929 . S
C1013 N1010 1.346 . S
C1013 C1012 1.369 . S
C1013 H1016 0.928 . S
C1014 N1010 1.345 . S
C1014 C1015 1.371 . S
C1014 H1017 0.931 . S
C1015 C1011 1.391 . S
C1015 C1014 1.371 . S
C1015 H1022 0.930 . S
H1016 C1013 0.928 . S
H1017 C1014 0.931 . S
H1018 C994 0.930 . S
H1019 C991 0.930 . S
H1020 C1000 0.930 . S
H1021 C1012 0.929 . S
H1022 C1015 0.930 . S
C1023 C1024 1.351 . S
C1023 N1026 1.368 . S
C1023 H1028 0.931 . S
C1024 C1023 1.351 . S
C1024 N1025 1.373 . S
C1024 H1052 0.930 . S
N1025 C1024 1.373 . S
N1025 C1027 1.340 . S
N1026 C1023 1.368 . S
N1026 C1027 1.321 . S
N1026 Co1029 2.135 . S
C1027 N1025 1.340 . S
C1027 N1026 1.321 . S
C1027 H1051 0.930 . S
H1028 C1023 0.931 . S
Co1029 N1026 2.135 . S
Co1029 N1032 2.121 . S
Co1029 O1037 2.055 . S
Co1029 O1040 2.039 . S
Co1029 N1043 2.140 . S
C1030 O1031 1.227 . S
C1030 O1040 1.265 . S
O1031 C1030 1.227 . S
N1032 Co1029 2.121 . S
N1032 C1034 1.375 . S
N1032 C1035 1.313 . S
C1033 C1034 1.338 . S
C1033 N1036 1.377 . S
C1033 H1053 0.930 . S
C1034 N1032 1.375 . S
C1034 C1033 1.338 . S
C1034 H1038 0.931 . S
C1035 N1032 1.313 . S
C1035 N1036 1.344 . S
C1035 H1039 0.930 . S
N1036 C1033 1.377 . S
N1036 C1035 1.344 . S
O1037 Co1029 2.055 . S
O1037 C1041 1.253 . S
H1038 C1034 0.931 . S
H1039 C1035 0.930 . S
O1040 Co1029 2.039 . S
O1040 C1030 1.265 . S
C1041 O1037 1.253 . S
C1041 O1042 1.227 . S
O1042 C1041 1.227 . S
N1043 Co1029 2.140 . S
N1043 C1046 1.346 . S
N1043 C1047 1.345 . S
C1044 C1045 1.387 . S
C1044 C1048 1.391 . S
C1045 C1044 1.387 . S
C1045 C1046 1.369 . S
C1045 H1054 0.929 . S
C1046 N1043 1.346 . S
C1046 C1045 1.369 . S
C1046 H1049 0.928 . S
C1047 N1043 1.345 . S
C1047 C1048 1.371 . S
C1047 H1050 0.931 . S
C1048 C1044 1.391 . S
C1048 C1047 1.371 . S
C1048 H1055 0.930 . S
H1049 C1046 0.928 . S
H1050 C1047 0.931 . S
H1051 C1027 0.930 . S
H1052 C1024 0.930 . S
H1053 C1033 0.930 . S
H1054 C1045 0.929 . S
H1055 C1048 0.930 . S
H1056 C1062 0.930 . S
H1057 C1066 0.930 . S
H1058 C1071 0.929 . S
H1059 C1069 0.929 . S
H1060 C1064 0.929 . S
H1061 C1070 0.929 . S
C1062 H1056 0.930 . S
C1062 C1063 1.367 . S
C1062 C1070 1.378 . S
C1063 C1062 1.367 . S
C1063 C1071 1.433 . S
C1064 H1060 0.929 . S
C1064 C1066 1.378 . S
C1064 C1068 1.350 . S
C1065 C1068 1.463 . S
C1065 C1070 1.350 . S
C1065 N1073 1.427 . S
C1066 H1057 0.930 . S
C1066 C1064 1.378 . S
C1066 C1067 1.367 . S
C1067 C1066 1.367 . S
C1067 C1069 1.433 . S
C1068 C1064 1.350 . S
C1068 C1065 1.463 . S
C1068 N1072 1.427 . S
C1069 H1059 0.929 . S
C1069 C1067 1.433 . S
C1069 N1072 1.384 . S
C1070 H1061 0.929 . S
C1070 C1062 1.378 . S
C1070 C1065 1.350 . S
C1071 H1058 0.929 . S
C1071 C1063 1.433 . S
C1071 N1073 1.384 . S
N1072 C1068 1.427 . S
N1072 C1069 1.384 . S
N1073 C1065 1.427 . S
N1073 C1071 1.384 . S
H1074 C1080 0.930 . S
H1075 C1084 0.930 . S
H1076 C1089 0.929 1_655 S
H1077 C1087 0.929 1_455 S
H1078 C1082 0.929 . S
H1079 C1088 0.929 . S
C1080 H1074 0.930 . S
C1080 C1081 1.367 . S
C1080 C1088 1.378 . S
C1081 C1080 1.367 . S
C1081 C1089 1.433 . S
C1082 H1078 0.929 . S
C1082 C1084 1.378 . S
C1082 C1086 1.350 . S
C1083 C1086 1.463 1_465 S
C1083 C1088 1.350 . S
C1083 N1091 1.427 1_455 S
C1084 H1075 0.930 . S
C1084 C1082 1.378 . S
C1084 C1085 1.367 . S
C1085 C1084 1.367 . S
C1085 C1087 1.433 . S
C1086 C1082 1.350 . S
C1086 C1083 1.463 1_645 S
C1086 N1090 1.427 1_655 S
C1087 H1077 0.929 1_655 S
C1087 C1085 1.433 . S
C1087 N1090 1.384 1_655 S
C1088 H1079 0.929 . S
C1088 C1080 1.378 . S
C1088 C1083 1.350 . S
C1089 H1076 0.929 1_455 S
C1089 C1081 1.433 . S
C1089 N1091 1.384 1_455 S
N1090 C1086 1.427 1_455 S
N1090 C1087 1.384 1_455 S
N1091 C1083 1.427 1_655 S
N1091 C1089 1.384 1_655 S
H1092 C1098 0.930 . S
H1093 C1102 0.930 . S
H1094 C1107 0.929 . S
H1095 C1105 0.929 . S
H1096 C1100 0.929 . S
H1097 C1106 0.929 . S
C1098 H1092 0.930 . S
C1098 C1099 1.367 . S
C1098 C1106 1.378 . S
C1099 C1098 1.367 . S
C1099 C1107 1.433 . S
C1100 H1096 0.929 . S
C1100 C1102 1.378 . S
C1100 C1104 1.350 . S
C1101 C1104 1.463 . S
C1101 C1106 1.350 . S
C1101 N1109 1.427 . S
C1102 H1093 0.930 . S
C1102 C1100 1.378 . S
C1102 C1103 1.367 . S
C1103 C1102 1.367 . S
C1103 C1105 1.433 . S
C1104 C1100 1.350 . S
C1104 C1101 1.463 . S
C1104 N1108 1.427 . S
C1105 H1095 0.929 . S
C1105 C1103 1.433 . S
C1105 N1108 1.384 . S
C1106 H1097 0.929 . S
C1106 C1098 1.378 . S
C1106 C1101 1.350 . S
C1107 H1094 0.929 . S
C1107 C1099 1.433 . S
C1107 N1109 1.384 . S
N1108 C1104 1.427 . S
N1108 C1105 1.384 . S
N1109 C1101 1.427 . S
N1109 C1107 1.384 . S
H1110 C1116 0.930 . S
H1111 C1120 0.930 . S
H1112 C1125 0.929 . S
H1113 C1123 0.929 . S
H1114 C1118 0.926 1_544 S
H1115 C1124 0.926 1_566 S
C1116 H1110 0.930 . S
C1116 C1117 1.367 . S
C1116 C1124 1.378 . S
C1117 C1116 1.367 . S
C1117 C1125 1.433 . S
C1118 H1114 0.926 1_566 S
C1118 C1120 1.378 . S
C1118 C1122 1.350 . S
C1119 C1122 1.463 1_544 S
C1119 C1124 1.350 . S
C1119 N1127 1.427 . S
C1120 H1111 0.930 . S
C1120 C1118 1.378 . S
C1120 C1121 1.367 . S
C1121 C1120 1.367 . S
C1121 C1123 1.433 . S
C1122 C1118 1.350 . S
C1122 C1119 1.463 1_566 S
C1122 N1126 1.427 . S
C1123 H1113 0.929 . S
C1123 C1121 1.433 . S
C1123 N1126 1.384 . S
C1124 H1115 0.926 1_544 S
C1124 C1116 1.378 . S
C1124 C1119 1.350 . S
C1125 H1112 0.929 . S
C1125 C1117 1.433 . S
C1125 N1127 1.384 . S
N1126 C1122 1.427 . S
N1126 C1123 1.384 . S
N1127 C1119 1.427 . S
N1127 C1125 1.384 . S
H1128 C1134 0.930 . S
H1129 C1138 0.930 . S
H1130 C1143 0.929 . S
H1131 C1141 0.929 . S
H1132 C1136 0.929 . S
H1133 C1142 0.929 . S
C1134 H1128 0.930 . S
C1134 C1135 1.367 . S
C1134 C1142 1.378 . S
C1135 C1134 1.367 . S
C1135 C1143 1.433 . S
C1136 H1132 0.929 . S
C1136 C1138 1.378 . S
C1136 C1140 1.350 . S
C1137 C1140 1.463 . S
C1137 C1142 1.350 . S
C1137 N1145 1.427 . S
C1138 H1129 0.930 . S
C1138 C1136 1.378 . S
C1138 C1139 1.367 . S
C1139 C1138 1.367 . S
C1139 C1141 1.433 . S
C1140 C1136 1.350 . S
C1140 C1137 1.463 . S
C1140 N1144 1.427 . S
C1141 H1131 0.929 . S
C1141 C1139 1.433 . S
C1141 N1144 1.384 . S
C1142 H1133 0.929 . S
C1142 C1134 1.378 . S
C1142 C1137 1.350 . S
C1143 H1130 0.929 . S
C1143 C1135 1.433 . S
C1143 N1145 1.384 . S
N1144 C1140 1.427 . S
N1144 C1141 1.384 . S
N1145 C1137 1.427 . S
N1145 C1143 1.384 . S
H1146 C1152 0.935 . S
H1147 C1156 0.935 . S
H1148 C1161 0.929 . S
H1149 C1159 0.929 . S
H1150 C1154 0.929 . S
H1151 C1160 0.929 . S
C1152 H1146 0.935 . S
C1152 C1153 1.359 1_545 S
C1152 C1160 1.381 . S
C1153 C1152 1.359 1_565 S
C1153 C1161 1.433 . S
C1154 H1150 0.929 . S
C1154 C1156 1.381 . S
C1154 C1158 1.350 1_565 S
C1155 C1158 1.463 1_565 S
C1155 C1160 1.350 1_565 S
C1155 N1163 1.427 . S
C1156 H1147 0.935 . S
C1156 C1154 1.381 . S
C1156 C1157 1.359 1_565 S
C1157 C1156 1.359 1_545 S
C1157 C1159 1.433 . S
C1158 C1154 1.350 1_545 S
C1158 C1155 1.463 1_545 S
C1158 N1162 1.427 . S
C1159 H1149 0.929 . S
C1159 C1157 1.433 . S
C1159 N1162 1.384 . S
C1160 H1151 0.929 . S
C1160 C1152 1.381 . S
C1160 C1155 1.350 1_545 S
C1161 H1148 0.929 . S
C1161 C1153 1.433 . S
C1161 N1163 1.384 . S
N1162 C1158 1.427 . S
N1162 C1159 1.384 . S
N1163 C1155 1.427 . S
N1163 C1161 1.384 . S
H1164 C1170 0.930 . S
H1165 C1174 0.930 . S
H1166 C1179 0.929 . S
H1167 C1177 0.929 . S
H1168 C1172 0.929 . S
H1169 C1178 0.929 . S
C1170 H1164 0.930 . S
C1170 C1171 1.367 . S
C1170 C1178 1.378 . S
C1171 C1170 1.367 . S
C1171 C1179 1.433 . S
C1172 H1168 0.929 . S
C1172 C1174 1.378 . S
C1172 C1176 1.350 . S
C1173 C1176 1.463 . S
C1173 C1178 1.350 . S
C1173 N1181 1.427 . S
C1174 H1165 0.930 . S
C1174 C1172 1.378 . S
C1174 C1175 1.367 . S
C1175 C1174 1.367 . S
C1175 C1177 1.433 . S
C1176 C1172 1.350 . S
C1176 C1173 1.463 . S
C1176 N1180 1.427 . S
C1177 H1167 0.929 . S
C1177 C1175 1.433 . S
C1177 N1180 1.384 . S
C1178 H1169 0.929 . S
C1178 C1170 1.378 . S
C1178 C1173 1.350 . S
C1179 H1166 0.929 . S
C1179 C1171 1.433 . S
C1179 N1181 1.384 . S
N1180 C1176 1.427 . S
N1180 C1177 1.384 . S
N1181 C1173 1.427 . S
N1181 C1179 1.384 . S
H1182 C1188 0.930 1_655 S
H1183 C1192 0.930 1_455 S
H1184 C1197 0.929 . S
H1185 C1195 0.929 . S
H1186 C1190 0.929 . S
H1187 C1196 0.929 . S
C1188 H1182 0.930 1_455 S
C1188 C1189 1.367 . S
C1188 C1196 1.378 1_455 S
C1189 C1188 1.367 . S
C1189 C1197 1.433 . S
C1190 H1186 0.929 . S
C1190 C1192 1.378 1_455 S
C1190 C1194 1.350 1_455 S
C1191 C1194 1.463 1_446 S
C1191 C1196 1.350 1_455 S
C1191 N1199 1.427 . S
C1192 H1183 0.930 1_655 S
C1192 C1190 1.378 1_655 S
C1192 C1193 1.367 . S
C1193 C1192 1.367 . S
C1193 C1195 1.433 . S
C1194 C1190 1.350 1_655 S
C1194 C1191 1.463 1_664 S
C1194 N1198 1.427 . S
C1195 H1185 0.929 . S
C1195 C1193 1.433 . S
C1195 N1198 1.384 . S
C1196 H1187 0.929 . S
C1196 C1188 1.378 1_655 S
C1196 C1191 1.350 1_655 S
C1197 H1184 0.929 . S
C1197 C1189 1.433 . S
C1197 N1199 1.384 . S
N1198 C1194 1.427 . S
N1198 C1195 1.384 . S
N1199 C1191 1.427 . S
N1199 C1197 1.384 . S
H1200 C1206 0.930 . S
H1201 C1210 0.930 . S
H1202 C1215 0.929 . S
H1203 C1213 0.929 . S
H1204 C1208 0.929 . S
H1205 C1214 0.929 . S
C1206 H1200 0.930 . S
C1206 C1207 1.367 . S
C1206 C1214 1.378 . S
C1207 C1206 1.367 . S
C1207 C1215 1.433 . S
C1208 H1204 0.929 . S
C1208 C1210 1.378 . S
C1208 C1212 1.350 . S
C1209 C1212 1.463 . S
C1209 C1214 1.350 . S
C1209 N1217 1.427 . S
C1210 H1201 0.930 . S
C1210 C1208 1.378 . S
C1210 C1211 1.367 . S
C1211 C1210 1.367 . S
C1211 C1213 1.433 . S
C1212 C1208 1.350 . S
C1212 C1209 1.463 . S
C1212 N1216 1.427 . S
C1213 H1203 0.929 . S
C1213 C1211 1.433 . S
C1213 N1216 1.384 . S
C1214 H1205 0.929 . S
C1214 C1206 1.378 . S
C1214 C1209 1.350 . S
C1215 H1202 0.929 . S
C1215 C1207 1.433 . S
C1215 N1217 1.384 . S
N1216 C1212 1.427 . S
N1216 C1213 1.384 . S
N1217 C1209 1.427 . S
N1217 C1215 1.384 . S
H1218 C1224 0.930 . S
H1219 C1228 0.930 . S
H1220 C1233 0.929 . S
H1221 C1231 0.929 . S
H1222 C1226 0.929 . S
H1223 C1232 0.929 . S
C1224 H1218 0.930 . S
C1224 C1225 1.367 . S
C1224 C1232 1.378 . S
C1225 C1224 1.367 . S
C1225 C1233 1.433 . S
C1226 H1222 0.929 . S
C1226 C1228 1.378 . S
C1226 C1230 1.350 . S
C1227 C1230 1.463 . S
C1227 C1232 1.350 . S
C1227 N1235 1.427 . S
C1228 H1219 0.930 . S
C1228 C1226 1.378 . S
C1228 C1229 1.367 . S
C1229 C1228 1.367 . S
C1229 C1231 1.433 . S
C1230 C1226 1.350 . S
C1230 C1227 1.463 . S
C1230 N1234 1.427 . S
C1231 H1221 0.929 . S
C1231 C1229 1.433 . S
C1231 N1234 1.384 . S
C1232 H1223 0.929 . S
C1232 C1224 1.378 . S
C1232 C1227 1.350 . S
C1233 H1220 0.929 . S
C1233 C1225 1.433 . S
C1233 N1235 1.384 . S
N1234 C1230 1.427 . S
N1234 C1231 1.384 . S
N1235 C1227 1.427 . S
N1235 C1233 1.384 . S
H1236 C1242 0.930 . S
H1237 C1246 0.930 . S
H1238 C1251 0.929 . S
H1239 C1249 0.929 . S
H1240 C1244 0.929 . S
H1241 C1250 0.929 . S
C1242 H1236 0.930 . S
C1242 C1243 1.367 . S
C1242 C1250 1.378 . S
C1243 C1242 1.367 . S
C1243 C1251 1.433 . S
C1244 H1240 0.929 . S
C1244 C1246 1.378 . S
C1244 C1248 1.350 . S
C1245 C1248 1.463 . S
C1245 C1250 1.350 . S
C1245 N1253 1.427 . S
C1246 H1237 0.930 . S
C1246 C1244 1.378 . S
C1246 C1247 1.367 . S
C1247 C1246 1.367 . S
C1247 C1249 1.433 . S
C1248 C1244 1.350 . S
C1248 C1245 1.463 . S
C1248 N1252 1.427 . S
C1249 H1239 0.929 . S
C1249 C1247 1.433 . S
C1249 N1252 1.384 . S
C1250 H1241 0.929 . S
C1250 C1242 1.378 . S
C1250 C1245 1.350 . S
C1251 H1238 0.929 . S
C1251 C1243 1.433 . S
C1251 N1253 1.384 . S
N1252 C1248 1.427 . S
N1252 C1249 1.384 . S
N1253 C1245 1.427 . S
N1253 C1251 1.384 . S
H1254 C1260 0.930 . S
H1255 C1264 0.930 . S
H1256 C1269 0.929 . S
H1257 C1267 0.929 . S
H1258 C1262 0.929 . S
H1259 C1268 0.929 . S
C1260 H1254 0.930 . S
C1260 C1261 1.367 . S
C1260 C1268 1.378 . S
C1261 C1260 1.367 . S
C1261 C1269 1.433 . S
C1262 H1258 0.929 . S
C1262 C1264 1.378 . S
C1262 C1266 1.350 . S
C1263 C1266 1.463 . S
C1263 C1268 1.350 . S
C1263 N1271 1.427 . S
C1264 H1255 0.930 . S
C1264 C1262 1.378 . S
C1264 C1265 1.367 . S
C1265 C1264 1.367 . S
C1265 C1267 1.433 . S
C1266 C1262 1.350 . S
C1266 C1263 1.463 . S
C1266 N1270 1.427 . S
C1267 H1257 0.929 . S
C1267 C1265 1.433 . S
C1267 N1270 1.384 . S
C1268 H1259 0.929 . S
C1268 C1260 1.378 . S
C1268 C1263 1.350 . S
C1269 H1256 0.929 . S
C1269 C1261 1.433 . S
C1269 N1271 1.384 . S
N1270 C1266 1.427 . S
N1270 C1267 1.384 . S
N1271 C1263 1.427 . S
N1271 C1269 1.384 . S
H1272 C1278 0.930 . S
H1273 C1282 0.930 . S
H1274 C1287 0.929 . S
H1275 C1285 0.929 . S
H1276 C1280 0.929 . S
H1277 C1286 0.929 . S
C1278 H1272 0.930 . S
C1278 C1279 1.367 . S
C1278 C1286 1.378 . S
C1279 C1278 1.367 . S
C1279 C1287 1.433 . S
C1280 H1276 0.929 . S
C1280 C1282 1.378 . S
C1280 C1284 1.350 . S
C1281 C1284 1.463 1_556 S
C1281 C1286 1.350 . S
C1281 N1289 1.427 . S
C1282 H1273 0.930 . S
C1282 C1280 1.378 . S
C1282 C1283 1.367 . S
C1283 C1282 1.367 . S
C1283 C1285 1.433 . S
C1284 C1280 1.350 . S
C1284 C1281 1.463 1_554 S
C1284 N1288 1.427 . S
C1285 H1275 0.929 . S
C1285 C1283 1.433 . S
C1285 N1288 1.384 . S
C1286 H1277 0.929 . S
C1286 C1278 1.378 . S
C1286 C1281 1.350 . S
C1287 H1274 0.929 . S
C1287 C1279 1.433 . S
C1287 N1289 1.384 . S
N1288 C1284 1.427 . S
N1288 C1285 1.384 . S
N1289 C1281 1.427 . S
N1289 C1287 1.384 . S
H1290 C1296 0.930 . S
H1291 C1300 0.930 . S
H1292 C1305 0.929 . S
H1293 C1303 0.929 . S
H1294 C1298 0.929 . S
H1295 C1304 0.929 . S
C1296 H1290 0.930 . S
C1296 C1297 1.367 . S
C1296 C1304 1.378 . S
C1297 C1296 1.367 . S
C1297 C1305 1.433 . S
C1298 H1294 0.929 . S
C1298 C1300 1.378 . S
C1298 C1302 1.350 . S
C1299 C1302 1.463 1_655 S
C1299 C1304 1.350 . S
C1299 N1307 1.427 1_655 S
C1300 H1291 0.930 . S
C1300 C1298 1.378 . S
C1300 C1301 1.367 . S
C1301 C1300 1.367 . S
C1301 C1303 1.433 . S
C1302 C1298 1.350 . S
C1302 C1299 1.463 1_455 S
C1302 N1306 1.427 1_455 S
C1303 H1293 0.929 . S
C1303 C1301 1.433 . S
C1303 N1306 1.384 1_455 S
C1304 H1295 0.929 . S
C1304 C1296 1.378 . S
C1304 C1299 1.350 . S
C1305 H1292 0.929 . S
C1305 C1297 1.433 . S
C1305 N1307 1.384 1_655 S
N1306 C1302 1.427 1_655 S
N1306 C1303 1.384 1_655 S
N1307 C1299 1.427 1_455 S
N1307 C1305 1.384 1_455 S
H1308 C1314 0.930 . S
H1309 C1318 0.930 . S
H1310 C1323 0.929 . S
H1311 C1321 0.929 . S
H1312 C1316 0.929 1_554 S
H1313 C1322 0.929 1_556 S
C1314 H1308 0.930 . S
C1314 C1315 1.367 . S
C1314 C1322 1.378 . S
C1315 C1314 1.367 . S
C1315 C1323 1.433 . S
C1316 H1312 0.929 1_556 S
C1316 C1318 1.378 . S
C1316 C1320 1.350 . S
C1317 C1320 1.463 1_454 S
C1317 C1322 1.350 . S
C1317 N1325 1.427 . S
C1318 H1309 0.930 . S
C1318 C1316 1.378 . S
C1318 C1319 1.367 . S
C1319 C1318 1.367 . S
C1319 C1321 1.433 . S
C1320 C1316 1.350 . S
C1320 C1317 1.463 1_656 S
C1320 N1324 1.427 . S
C1321 H1311 0.929 . S
C1321 C1319 1.433 . S
C1321 N1324 1.384 . S
C1322 H1313 0.929 1_554 S
C1322 C1314 1.378 . S
C1322 C1317 1.350 . S
C1323 H1310 0.929 . S
C1323 C1315 1.433 . S
C1323 N1325 1.384 . S
N1324 C1320 1.427 . S
N1324 C1321 1.384 . S
N1325 C1317 1.427 . S
N1325 C1323 1.384 . S
H1326 C1332 0.930 . S
H1327 C1336 0.930 . S
H1328 C1341 0.929 . S
H1329 C1339 0.929 . S
H1330 C1334 0.929 . S
H1331 C1340 0.929 . S
C1332 H1326 0.930 . S
C1332 C1333 1.367 . S
C1332 C1340 1.378 . S
C1333 C1332 1.367 . S
C1333 C1341 1.433 . S
C1334 H1330 0.929 . S
C1334 C1336 1.378 . S
C1334 C1338 1.350 . S
C1335 C1338 1.463 . S
C1335 C1340 1.350 . S
C1335 N1343 1.427 . S
C1336 H1327 0.930 . S
C1336 C1334 1.378 . S
C1336 C1337 1.367 . S
C1337 C1336 1.367 . S
C1337 C1339 1.433 . S
C1338 C1334 1.350 . S
C1338 C1335 1.463 . S
C1338 N1342 1.427 . S
C1339 H1329 0.929 . S
C1339 C1337 1.433 . S
C1339 N1342 1.384 . S
C1340 H1331 0.929 . S
C1340 C1332 1.378 . S
C1340 C1335 1.350 . S
C1341 H1328 0.929 . S
C1341 C1333 1.433 . S
C1341 N1343 1.384 . S
N1342 C1338 1.427 . S
N1342 C1339 1.384 . S
N1343 C1335 1.427 . S
N1343 C1341 1.384 . S
H1344 C1350 0.930 . S
H1345 C1354 0.930 . S
H1346 C1359 0.929 . S
H1347 C1357 0.929 . S
H1348 C1352 0.929 . S
H1349 C1358 0.929 . S
C1350 H1344 0.930 . S
C1350 C1351 1.367 . S
C1350 C1358 1.378 . S
C1351 C1350 1.367 . S
C1351 C1359 1.433 . S
C1352 H1348 0.929 . S
C1352 C1354 1.378 . S
C1352 C1356 1.350 . S
C1353 C1356 1.463 . S
C1353 C1358 1.350 . S
C1353 N1361 1.427 . S
C1354 H1345 0.930 . S
C1354 C1352 1.378 . S
C1354 C1355 1.367 . S
C1355 C1354 1.367 . S
C1355 C1357 1.433 . S
C1356 C1352 1.350 . S
C1356 C1353 1.463 . S
C1356 N1360 1.427 . S
C1357 H1347 0.929 . S
C1357 C1355 1.433 . S
C1357 N1360 1.384 . S
C1358 H1349 0.929 . S
C1358 C1350 1.378 . S
C1358 C1353 1.350 . S
C1359 H1346 0.929 . S
C1359 C1351 1.433 . S
C1359 N1361 1.384 . S
N1360 C1356 1.427 . S
N1360 C1357 1.384 . S
N1361 C1353 1.427 . S
N1361 C1359 1.384 . S
H1362 C1368 0.930 . S
H1363 C1372 0.930 . S
H1364 C1377 0.929 . S
H1365 C1375 0.929 . S
H1366 C1370 0.929 . S
H1367 C1376 0.929 . S
C1368 H1362 0.930 . S
C1368 C1369 1.367 . S
C1368 C1376 1.378 . S
C1369 C1368 1.367 . S
C1369 C1377 1.433 . S
C1370 H1366 0.929 . S
C1370 C1372 1.378 . S
C1370 C1374 1.350 . S
C1371 C1374 1.463 . S
C1371 C1376 1.350 . S
C1371 N1379 1.427 . S
C1372 H1363 0.930 . S
C1372 C1370 1.378 . S
C1372 C1373 1.367 . S
C1373 C1372 1.367 . S
C1373 C1375 1.433 . S
C1374 C1370 1.350 . S
C1374 C1371 1.463 . S
C1374 N1378 1.427 . S
C1375 H1365 0.929 . S
C1375 C1373 1.433 . S
C1375 N1378 1.384 . S
C1376 H1367 0.929 . S
C1376 C1368 1.378 . S
C1376 C1371 1.350 . S
C1377 H1364 0.929 . S
C1377 C1369 1.433 . S
C1377 N1379 1.384 . S
N1378 C1374 1.427 . S
N1378 C1375 1.384 . S
N1379 C1371 1.427 . S
N1379 C1377 1.384 . S
H1380 C1386 0.930 . S
H1381 C1390 0.930 . S
H1382 C1395 0.929 . S
H1383 C1393 0.929 . S
H1384 C1388 0.929 . S
H1385 C1394 0.929 . S
C1386 H1380 0.930 . S
C1386 C1387 1.367 . S
C1386 C1394 1.378 . S
C1387 C1386 1.367 . S
C1387 C1395 1.433 . S
C1388 H1384 0.929 . S
C1388 C1390 1.378 . S
C1388 C1392 1.350 . S
C1389 C1392 1.463 . S
C1389 C1394 1.350 . S
C1389 N1397 1.427 . S
C1390 H1381 0.930 . S
C1390 C1388 1.378 . S
C1390 C1391 1.367 . S
C1391 C1390 1.367 . S
C1391 C1393 1.433 . S
C1392 C1388 1.350 . S
C1392 C1389 1.463 . S
C1392 N1396 1.427 . S
C1393 H1383 0.929 . S
C1393 C1391 1.433 . S
C1393 N1396 1.384 . S
C1394 H1385 0.929 . S
C1394 C1386 1.378 . S
C1394 C1389 1.350 . S
C1395 H1382 0.929 . S
C1395 C1387 1.433 . S
C1395 N1397 1.384 . S
N1396 C1392 1.427 . S
N1396 C1393 1.384 . S
N1397 C1389 1.427 . S
N1397 C1395 1.384 . S
H1398 C1404 0.930 . S
H1399 C1408 0.930 . S
H1400 C1413 0.929 . S
H1401 C1411 0.929 . S
H1402 C1406 0.929 . S
H1403 C1412 0.929 . S
C1404 H1398 0.930 . S
C1404 C1405 1.367 . S
C1404 C1412 1.378 . S
C1405 C1404 1.367 . S
C1405 C1413 1.433 . S
C1406 H1402 0.929 . S
C1406 C1408 1.378 . S
C1406 C1410 1.350 . S
C1407 C1410 1.463 . S
C1407 C1412 1.350 . S
C1407 N1415 1.427 . S
C1408 H1399 0.930 . S
C1408 C1406 1.378 . S
C1408 C1409 1.367 . S
C1409 C1408 1.367 . S
C1409 C1411 1.433 . S
C1410 C1406 1.350 . S
C1410 C1407 1.463 . S
C1410 N1414 1.427 . S
C1411 H1401 0.929 . S
C1411 C1409 1.433 . S
C1411 N1414 1.384 . S
C1412 H1403 0.929 . S
C1412 C1404 1.378 . S
C1412 C1407 1.350 . S
C1413 H1400 0.929 . S
C1413 C1405 1.433 . S
C1413 N1415 1.384 . S
N1414 C1410 1.427 . S
N1414 C1411 1.384 . S
N1415 C1407 1.427 . S
N1415 C1413 1.384 . S
H1416 C1422 0.930 . S
H1417 C1426 0.930 . S
H1418 C1431 0.929 . S
H1419 C1429 0.929 . S
H1420 C1424 0.929 . S
H1421 C1430 0.929 . S
C1422 H1416 0.930 . S
C1422 C1423 1.367 . S
C1422 C1430 1.378 . S
C1423 C1422 1.367 . S
C1423 C1431 1.433 . S
C1424 H1420 0.929 . S
C1424 C1426 1.378 . S
C1424 C1428 1.350 . S
C1425 C1428 1.463 . S
C1425 C1430 1.350 . S
C1425 N1433 1.427 . S
C1426 H1417 0.930 . S
C1426 C1424 1.378 . S
C1426 C1427 1.367 . S
C1427 C1426 1.367 . S
C1427 C1429 1.433 . S
C1428 C1424 1.350 . S
C1428 C1425 1.463 . S
C1428 N1432 1.427 . S
C1429 H1419 0.929 . S
C1429 C1427 1.433 . S
C1429 N1432 1.384 . S
C1430 H1421 0.929 . S
C1430 C1422 1.378 . S
C1430 C1425 1.350 . S
C1431 H1418 0.929 . S
C1431 C1423 1.433 . S
C1431 N1433 1.384 . S
N1432 C1428 1.427 . S
N1432 C1429 1.384 . S
N1433 C1425 1.427 . S
N1433 C1431 1.384 . S
H1434 C1440 0.930 . S
H1435 C1444 0.930 . S
H1436 C1449 0.929 . S
H1437 C1447 0.929 . S
H1438 C1442 0.929 . S
H1439 C1448 0.929 . S
C1440 H1434 0.930 . S
C1440 C1441 1.367 . S
C1440 C1448 1.378 . S
C1441 C1440 1.367 . S
C1441 C1449 1.433 . S
C1442 H1438 0.929 . S
C1442 C1444 1.378 . S
C1442 C1446 1.350 . S
C1443 C1446 1.463 . S
C1443 C1448 1.350 . S
C1443 N1451 1.427 . S
C1444 H1435 0.930 . S
C1444 C1442 1.378 . S
C1444 C1445 1.367 . S
C1445 C1444 1.367 . S
C1445 C1447 1.433 . S
C1446 C1442 1.350 . S
C1446 C1443 1.463 . S
C1446 N1450 1.427 . S
C1447 H1437 0.929 . S
C1447 C1445 1.433 . S
C1447 N1450 1.384 . S
C1448 H1439 0.929 . S
C1448 C1440 1.378 . S
C1448 C1443 1.350 . S
C1449 H1436 0.929 . S
C1449 C1441 1.433 . S
C1449 N1451 1.384 . S
N1450 C1446 1.427 . S
N1450 C1447 1.384 . S
N1451 C1443 1.427 . S
N1451 C1449 1.384 . S
H1452 C1458 0.930 . S
H1453 C1462 0.930 . S
H1454 C1467 0.929 . S
H1455 C1465 0.929 . S
H1456 C1460 0.929 . S
H1457 C1466 0.929 . S
C1458 H1452 0.930 . S
C1458 C1459 1.367 . S
C1458 C1466 1.378 . S
C1459 C1458 1.367 . S
C1459 C1467 1.433 . S
C1460 H1456 0.929 . S
C1460 C1462 1.378 . S
C1460 C1464 1.350 . S
C1461 C1464 1.463 . S
C1461 C1466 1.350 . S
C1461 N1469 1.427 . S
C1462 H1453 0.930 . S
C1462 C1460 1.378 . S
C1462 C1463 1.367 . S
C1463 C1462 1.367 . S
C1463 C1465 1.433 . S
C1464 C1460 1.350 . S
C1464 C1461 1.463 . S
C1464 N1468 1.427 . S
C1465 H1455 0.929 . S
C1465 C1463 1.433 . S
C1465 N1468 1.384 . S
C1466 H1457 0.929 . S
C1466 C1458 1.378 . S
C1466 C1461 1.350 . S
C1467 H1454 0.929 . S
C1467 C1459 1.433 . S
C1467 N1469 1.384 . S
N1468 C1464 1.427 . S
N1468 C1465 1.384 . S
N1469 C1461 1.427 . S
N1469 C1467 1.384 . S
H1470 C1476 0.930 . S
H1471 C1480 0.930 . S
H1472 C1485 0.929 . S
H1473 C1483 0.929 . S
H1474 C1478 0.929 . S
H1475 C1484 0.929 . S
C1476 H1470 0.930 . S
C1476 C1477 1.367 . S
C1476 C1484 1.378 . S
C1477 C1476 1.367 . S
C1477 C1485 1.433 . S
C1478 H1474 0.929 . S
C1478 C1480 1.378 . S
C1478 C1482 1.350 . S
C1479 C1482 1.463 . S
C1479 C1484 1.350 . S
C1479 N1487 1.427 . S
C1480 H1471 0.930 . S
C1480 C1478 1.378 . S
C1480 C1481 1.367 . S
C1481 C1480 1.367 . S
C1481 C1483 1.433 . S
C1482 C1478 1.350 . S
C1482 C1479 1.463 . S
C1482 N1486 1.427 . S
C1483 H1473 0.929 . S
C1483 C1481 1.433 . S
C1483 N1486 1.384 . S
C1484 H1475 0.929 . S
C1484 C1476 1.378 . S
C1484 C1479 1.350 . S
C1485 H1472 0.929 . S
C1485 C1477 1.433 . S
C1485 N1487 1.384 . S
N1486 C1482 1.427 . S
N1486 C1483 1.384 . S
N1487 C1479 1.427 . S
N1487 C1485 1.384 . S
H1488 C1494 0.930 . S
H1489 C1498 0.930 . S
H1490 C1503 0.929 . S
H1491 C1501 0.929 . S
H1492 C1496 0.929 . S
H1493 C1502 0.929 . S
C1494 H1488 0.930 . S
C1494 C1495 1.367 . S
C1494 C1502 1.378 . S
C1495 C1494 1.367 . S
C1495 C1503 1.433 . S
C1496 H1492 0.929 . S
C1496 C1498 1.378 . S
C1496 C1500 1.350 . S
C1497 C1500 1.463 . S
C1497 C1502 1.350 . S
C1497 N1505 1.427 . S
C1498 H1489 0.930 . S
C1498 C1496 1.378 . S
C1498 C1499 1.367 . S
C1499 C1498 1.367 . S
C1499 C1501 1.433 . S
C1500 C1496 1.350 . S
C1500 C1497 1.463 . S
C1500 N1504 1.427 . S
C1501 H1491 0.929 . S
C1501 C1499 1.433 . S
C1501 N1504 1.384 . S
C1502 H1493 0.929 . S
C1502 C1494 1.378 . S
C1502 C1497 1.350 . S
C1503 H1490 0.929 . S
C1503 C1495 1.433 . S
C1503 N1505 1.384 . S
N1504 C1500 1.427 . S
N1504 C1501 1.384 . S
N1505 C1497 1.427 . S
N1505 C1503 1.384 . S
H1506 C1512 0.930 . S
H1507 C1516 0.930 . S
H1508 C1521 0.929 . S
H1509 C1519 0.929 . S
H1510 C1514 0.929 . S
H1511 C1520 0.929 . S
C1512 H1506 0.930 . S
C1512 C1513 1.367 . S
C1512 C1520 1.378 . S
C1513 C1512 1.367 . S
C1513 C1521 1.433 . S
C1514 H1510 0.929 . S
C1514 C1516 1.378 . S
C1514 C1518 1.350 . S
C1515 C1518 1.463 . S
C1515 C1520 1.350 . S
C1515 N1523 1.427 . S
C1516 H1507 0.930 . S
C1516 C1514 1.378 . S
C1516 C1517 1.367 . S
C1517 C1516 1.367 . S
C1517 C1519 1.433 . S
C1518 C1514 1.350 . S
C1518 C1515 1.463 . S
C1518 N1522 1.427 . S
C1519 H1509 0.929 . S
C1519 C1517 1.433 . S
C1519 N1522 1.384 . S
C1520 H1511 0.929 . S
C1520 C1512 1.378 . S
C1520 C1515 1.350 . S
C1521 H1508 0.929 . S
C1521 C1513 1.433 . S
C1521 N1523 1.384 . S
N1522 C1518 1.427 . S
N1522 C1519 1.384 . S
N1523 C1515 1.427 . S
N1523 C1521 1.384 . S
H1524 C1530 0.930 . S
H1525 C1534 0.930 . S
H1526 C1539 0.929 . S
H1527 C1537 0.929 . S
H1528 C1532 0.929 . S
H1529 C1538 0.929 . S
C1530 H1524 0.930 . S
C1530 C1531 1.367 . S
C1530 C1538 1.378 . S
C1531 C1530 1.367 . S
C1531 C1539 1.433 . S
C1532 H1528 0.929 . S
C1532 C1534 1.378 . S
C1532 C1536 1.350 . S
C1533 C1536 1.463 . S
C1533 C1538 1.350 . S
C1533 N1541 1.427 . S
C1534 H1525 0.930 . S
C1534 C1532 1.378 . S
C1534 C1535 1.367 . S
C1535 C1534 1.367 . S
C1535 C1537 1.433 . S
C1536 C1532 1.350 . S
C1536 C1533 1.463 . S
C1536 N1540 1.427 . S
C1537 H1527 0.929 . S
C1537 C1535 1.433 . S
C1537 N1540 1.384 . S
C1538 H1529 0.929 . S
C1538 C1530 1.378 . S
C1538 C1533 1.350 . S
C1539 H1526 0.929 . S
C1539 C1531 1.433 . S
C1539 N1541 1.384 . S
N1540 C1536 1.427 . S
N1540 C1537 1.384 . S
N1541 C1533 1.427 . S
N1541 C1539 1.384 . S
H1542 C1548 0.930 . S
H1543 C1552 0.930 . S
H1544 C1557 0.929 . S
H1545 C1555 0.929 . S
H1546 C1550 0.929 . S
H1547 C1556 0.929 . S
C1548 H1542 0.930 . S
C1548 C1549 1.367 . S
C1548 C1556 1.378 . S
C1549 C1548 1.367 . S
C1549 C1557 1.433 . S
C1550 H1546 0.929 . S
C1550 C1552 1.378 . S
C1550 C1554 1.350 . S
C1551 C1554 1.463 . S
C1551 C1556 1.350 . S
C1551 N1559 1.427 . S
C1552 H1543 0.930 . S
C1552 C1550 1.378 . S
C1552 C1553 1.367 . S
C1553 C1552 1.367 . S
C1553 C1555 1.433 . S
C1554 C1550 1.350 . S
C1554 C1551 1.463 . S
C1554 N1558 1.427 . S
C1555 H1545 0.929 . S
C1555 C1553 1.433 . S
C1555 N1558 1.384 . S
C1556 H1547 0.929 . S
C1556 C1548 1.378 . S
C1556 C1551 1.350 . S
C1557 H1544 0.929 . S
C1557 C1549 1.433 . S
C1557 N1559 1.384 . S
N1558 C1554 1.427 . S
N1558 C1555 1.384 . S
N1559 C1551 1.427 . S
N1559 C1557 1.384 . S
H1560 C1566 0.930 . S
H1561 C1570 0.930 . S
H1562 C1575 0.929 . S
H1563 C1573 0.929 . S
H1564 C1568 0.929 . S
H1565 C1574 0.929 . S
C1566 H1560 0.930 . S
C1566 C1567 1.367 . S
C1566 C1574 1.378 . S
C1567 C1566 1.367 . S
C1567 C1575 1.433 . S
C1568 H1564 0.929 . S
C1568 C1570 1.378 . S
C1568 C1572 1.350 . S
C1569 C1572 1.463 . S
C1569 C1574 1.350 . S
C1569 N1577 1.427 . S
C1570 H1561 0.930 . S
C1570 C1568 1.378 . S
C1570 C1571 1.367 . S
C1571 C1570 1.367 . S
C1571 C1573 1.433 . S
C1572 C1568 1.350 . S
C1572 C1569 1.463 . S
C1572 N1576 1.427 . S
C1573 H1563 0.929 . S
C1573 C1571 1.433 . S
C1573 N1576 1.384 . S
C1574 H1565 0.929 . S
C1574 C1566 1.378 . S
C1574 C1569 1.350 . S
C1575 H1562 0.929 . S
C1575 C1567 1.433 . S
C1575 N1577 1.384 . S
N1576 C1572 1.427 . S
N1576 C1573 1.384 . S
N1577 C1569 1.427 . S
N1577 C1575 1.384 . S
H1578 C1584 0.930 . S
H1579 C1588 0.930 . S
H1580 C1593 0.929 . S
H1581 C1591 0.929 . S
H1582 C1586 0.929 . S
H1583 C1592 0.929 . S
C1584 H1578 0.930 . S
C1584 C1585 1.367 . S
C1584 C1592 1.378 . S
C1585 C1584 1.367 . S
C1585 C1593 1.433 . S
C1586 H1582 0.929 . S
C1586 C1588 1.378 . S
C1586 C1590 1.350 . S
C1587 C1590 1.463 . S
C1587 C1592 1.350 . S
C1587 N1595 1.427 . S
C1588 H1579 0.930 . S
C1588 C1586 1.378 . S
C1588 C1589 1.367 . S
C1589 C1588 1.367 . S
C1589 C1591 1.433 . S
C1590 C1586 1.350 . S
C1590 C1587 1.463 . S
C1590 N1594 1.427 . S
C1591 H1581 0.929 . S
C1591 C1589 1.433 . S
C1591 N1594 1.384 . S
C1592 H1583 0.929 . S
C1592 C1584 1.378 . S
C1592 C1587 1.350 . S
C1593 H1580 0.929 . S
C1593 C1585 1.433 . S
C1593 N1595 1.384 . S
N1594 C1590 1.427 . S
N1594 C1591 1.384 . S
N1595 C1587 1.427 . S
N1595 C1593 1.384 . S
H1596 C1602 0.930 . S
H1597 C1606 0.930 . S
H1598 C1611 0.929 . S
H1599 C1609 0.929 . S
H1600 C1604 0.929 . S
H1601 C1610 0.929 . S
C1602 H1596 0.930 . S
C1602 C1603 1.367 . S
C1602 C1610 1.378 . S
C1603 C1602 1.367 . S
C1603 C1611 1.433 . S
C1604 H1600 0.929 . S
C1604 C1606 1.378 . S
C1604 C1608 1.350 . S
C1605 C1608 1.463 . S
C1605 C1610 1.350 . S
C1605 N1613 1.427 . S
C1606 H1597 0.930 . S
C1606 C1604 1.378 . S
C1606 C1607 1.367 . S
C1607 C1606 1.367 . S
C1607 C1609 1.433 . S
C1608 C1604 1.350 . S
C1608 C1605 1.463 . S
C1608 N1612 1.427 . S
C1609 H1599 0.929 . S
C1609 C1607 1.433 . S
C1609 N1612 1.384 . S
C1610 H1601 0.929 . S
C1610 C1602 1.378 . S
C1610 C1605 1.350 . S
C1611 H1598 0.929 . S
C1611 C1603 1.433 . S
C1611 N1613 1.384 . S
N1612 C1608 1.427 . S
N1612 C1609 1.384 . S
N1613 C1605 1.427 . S
N1613 C1611 1.384 . S
H1614 C1620 0.930 . S
H1615 C1624 0.930 . S
H1616 C1629 0.929 . S
H1617 C1627 0.929 . S
H1618 C1622 0.929 . S
H1619 C1628 0.929 . S
C1620 H1614 0.930 . S
C1620 C1621 1.367 . S
C1620 C1628 1.378 . S
C1621 C1620 1.367 . S
C1621 C1629 1.433 . S
C1622 H1618 0.929 . S
C1622 C1624 1.378 . S
C1622 C1626 1.350 . S
C1623 C1626 1.463 . S
C1623 C1628 1.350 . S
C1623 N1631 1.427 . S
C1624 H1615 0.930 . S
C1624 C1622 1.378 . S
C1624 C1625 1.367 . S
C1625 C1624 1.367 . S
C1625 C1627 1.433 . S
C1626 C1622 1.350 . S
C1626 C1623 1.463 . S
C1626 N1630 1.427 . S
C1627 H1617 0.929 . S
C1627 C1625 1.433 . S
C1627 N1630 1.384 . S
C1628 H1619 0.929 . S
C1628 C1620 1.378 . S
C1628 C1623 1.350 . S
C1629 H1616 0.929 . S
C1629 C1621 1.433 . S
C1629 N1631 1.384 . S
N1630 C1626 1.427 . S
N1630 C1627 1.384 . S
N1631 C1623 1.427 . S
N1631 C1629 1.384 . S
H1632 C1638 0.930 . S
H1633 C1642 0.930 . S
H1634 C1647 0.929 . S
H1635 C1645 0.929 . S
H1636 C1640 0.929 . S
H1637 C1646 0.929 . S
C1638 H1632 0.930 . S
C1638 C1639 1.367 . S
C1638 C1646 1.378 . S
C1639 C1638 1.367 . S
C1639 C1647 1.433 . S
C1640 H1636 0.929 . S
C1640 C1642 1.378 . S
C1640 C1644 1.350 . S
C1641 C1644 1.463 . S
C1641 C1646 1.350 . S
C1641 N1649 1.427 . S
C1642 H1633 0.930 . S
C1642 C1640 1.378 . S
C1642 C1643 1.367 . S
C1643 C1642 1.367 . S
C1643 C1645 1.433 . S
C1644 C1640 1.350 . S
C1644 C1641 1.463 . S
C1644 N1648 1.427 . S
C1645 H1635 0.929 . S
C1645 C1643 1.433 . S
C1645 N1648 1.384 . S
C1646 H1637 0.929 . S
C1646 C1638 1.378 . S
C1646 C1641 1.350 . S
C1647 H1634 0.929 . S
C1647 C1639 1.433 . S
C1647 N1649 1.384 . S
N1648 C1644 1.427 . S
N1648 C1645 1.384 . S
N1649 C1641 1.427 . S
N1649 C1647 1.384 . S
H1650 C1656 0.930 . S
H1651 C1660 0.930 . S
H1652 C1665 0.929 . S
H1653 C1663 0.929 . S
H1654 C1658 0.929 . S
H1655 C1664 0.929 . S
C1656 H1650 0.930 . S
C1656 C1657 1.367 . S
C1656 C1664 1.378 . S
C1657 C1656 1.367 . S
C1657 C1665 1.433 . S
C1658 H1654 0.929 . S
C1658 C1660 1.378 . S
C1658 C1662 1.350 . S
C1659 C1662 1.463 . S
C1659 C1664 1.350 . S
C1659 N1667 1.427 . S
C1660 H1651 0.930 . S
C1660 C1658 1.378 . S
C1660 C1661 1.367 . S
C1661 C1660 1.367 . S
C1661 C1663 1.433 . S
C1662 C1658 1.350 . S
C1662 C1659 1.463 . S
C1662 N1666 1.427 . S
C1663 H1653 0.929 . S
C1663 C1661 1.433 . S
C1663 N1666 1.384 . S
C1664 H1655 0.929 . S
C1664 C1656 1.378 . S
C1664 C1659 1.350 . S
C1665 H1652 0.929 . S
C1665 C1657 1.433 . S
C1665 N1667 1.384 . S
N1666 C1662 1.427 . S
N1666 C1663 1.384 . S
N1667 C1659 1.427 . S
N1667 C1665 1.384 . S
H1668 C1674 0.930 . S
H1669 C1678 0.930 . S
H1670 C1683 0.929 . S
H1671 C1681 0.929 . S
H1672 C1676 0.929 . S
H1673 C1682 0.929 . S
C1674 H1668 0.930 . S
C1674 C1675 1.367 . S
C1674 C1682 1.378 . S
C1675 C1674 1.367 . S
C1675 C1683 1.433 . S
C1676 H1672 0.929 . S
C1676 C1678 1.378 . S
C1676 C1680 1.350 . S
C1677 C1680 1.463 . S
C1677 C1682 1.350 . S
C1677 N1685 1.427 . S
C1678 H1669 0.930 . S
C1678 C1676 1.378 . S
C1678 C1679 1.367 . S
C1679 C1678 1.367 . S
C1679 C1681 1.433 . S
C1680 C1676 1.350 . S
C1680 C1677 1.463 . S
C1680 N1684 1.427 . S
C1681 H1671 0.929 . S
C1681 C1679 1.433 . S
C1681 N1684 1.384 . S
C1682 H1673 0.929 . S
C1682 C1674 1.378 . S
C1682 C1677 1.350 . S
C1683 H1670 0.929 . S
C1683 C1675 1.433 . S
C1683 N1685 1.384 . S
N1684 C1680 1.427 . S
N1684 C1681 1.384 . S
N1685 C1677 1.427 . S
N1685 C1683 1.384 . S
H1686 C1692 0.930 . S
H1687 C1696 0.930 . S
H1688 C1701 0.929 . S
H1689 C1699 0.929 . S
H1690 C1694 0.929 . S
H1691 C1700 0.929 . S
C1692 H1686 0.930 . S
C1692 C1693 1.367 . S
C1692 C1700 1.378 . S
C1693 C1692 1.367 . S
C1693 C1701 1.433 . S
C1694 H1690 0.929 . S
C1694 C1696 1.378 . S
C1694 C1698 1.350 . S
C1695 C1698 1.463 . S
C1695 C1700 1.350 . S
C1695 N1703 1.427 . S
C1696 H1687 0.930 . S
C1696 C1694 1.378 . S
C1696 C1697 1.367 . S
C1697 C1696 1.367 . S
C1697 C1699 1.433 . S
C1698 C1694 1.350 . S
C1698 C1695 1.463 . S
C1698 N1702 1.427 . S
C1699 H1689 0.929 . S
C1699 C1697 1.433 . S
C1699 N1702 1.384 . S
C1700 H1691 0.929 . S
C1700 C1692 1.378 . S
C1700 C1695 1.350 . S
C1701 H1688 0.929 . S
C1701 C1693 1.433 . S
C1701 N1703 1.384 . S
N1702 C1698 1.427 . S
N1702 C1699 1.384 . S
N1703 C1695 1.427 . S
N1703 C1701 1.384 . S
H1704 C1710 0.930 . S
H1705 C1714 0.930 . S
H1706 C1719 0.929 . S
H1707 C1717 0.929 . S
H1708 C1712 0.929 . S
H1709 C1718 0.929 . S
C1710 H1704 0.930 . S
C1710 C1711 1.367 . S
C1710 C1718 1.378 . S
C1711 C1710 1.367 . S
C1711 C1719 1.433 . S
C1712 H1708 0.929 . S
C1712 C1714 1.378 . S
C1712 C1716 1.350 . S
C1713 C1716 1.463 . S
C1713 C1718 1.350 . S
C1713 N1721 1.427 . S
C1714 H1705 0.930 . S
C1714 C1712 1.378 . S
C1714 C1715 1.367 . S
C1715 C1714 1.367 . S
C1715 C1717 1.433 . S
C1716 C1712 1.350 . S
C1716 C1713 1.463 . S
C1716 N1720 1.427 . S
C1717 H1707 0.929 . S
C1717 C1715 1.433 . S
C1717 N1720 1.384 . S
C1718 H1709 0.929 . S
C1718 C1710 1.378 . S
C1718 C1713 1.350 . S
C1719 H1706 0.929 . S
C1719 C1711 1.433 . S
C1719 N1721 1.384 . S
N1720 C1716 1.427 . S
N1720 C1717 1.384 . S
N1721 C1713 1.427 . S
N1721 C1719 1.384 . S
H1722 C1728 0.930 . S
H1723 C1732 0.930 . S
H1724 C1737 0.929 . S
H1725 C1735 0.929 . S
H1726 C1730 0.929 . S
H1727 C1736 0.929 . S
C1728 H1722 0.930 . S
C1728 C1729 1.367 . S
C1728 C1736 1.378 . S
C1729 C1728 1.367 . S
C1729 C1737 1.433 . S
C1730 H1726 0.929 . S
C1730 C1732 1.378 . S
C1730 C1734 1.350 . S
C1731 C1734 1.463 . S
C1731 C1736 1.350 . S
C1731 N1739 1.427 . S
C1732 H1723 0.930 . S
C1732 C1730 1.378 . S
C1732 C1733 1.367 . S
C1733 C1732 1.367 . S
C1733 C1735 1.433 . S
C1734 C1730 1.350 . S
C1734 C1731 1.463 . S
C1734 N1738 1.427 . S
C1735 H1725 0.929 . S
C1735 C1733 1.433 . S
C1735 N1738 1.384 . S
C1736 H1727 0.929 . S
C1736 C1728 1.378 . S
C1736 C1731 1.350 . S
C1737 H1724 0.929 . S
C1737 C1729 1.433 . S
C1737 N1739 1.384 . S
N1738 C1734 1.427 . S
N1738 C1735 1.384 . S
N1739 C1731 1.427 . S
N1739 C1737 1.384 . S
H1740 C1746 0.930 . S
H1741 C1750 0.930 . S
H1742 C1755 0.929 . S
H1743 C1753 0.929 . S
H1744 C1748 0.929 . S
H1745 C1754 0.929 . S
C1746 H1740 0.930 . S
C1746 C1747 1.367 . S
C1746 C1754 1.378 . S
C1747 C1746 1.367 . S
C1747 C1755 1.433 . S
C1748 H1744 0.929 . S
C1748 C1750 1.378 . S
C1748 C1752 1.350 . S
C1749 C1752 1.463 . S
C1749 C1754 1.350 . S
C1749 N1757 1.427 . S
C1750 H1741 0.930 . S
C1750 C1748 1.378 . S
C1750 C1751 1.367 . S
C1751 C1750 1.367 . S
C1751 C1753 1.433 . S
C1752 C1748 1.350 . S
C1752 C1749 1.463 . S
C1752 N1756 1.427 . S
C1753 H1743 0.929 . S
C1753 C1751 1.433 . S
C1753 N1756 1.384 . S
C1754 H1745 0.929 . S
C1754 C1746 1.378 . S
C1754 C1749 1.350 . S
C1755 H1742 0.929 . S
C1755 C1747 1.433 . S
C1755 N1757 1.384 . S
N1756 C1752 1.427 . S
N1756 C1753 1.384 . S
N1757 C1749 1.427 . S
N1757 C1755 1.384 . S
H1758 C1764 0.930 . S
H1759 C1768 0.930 . S
H1760 C1773 0.929 . S
H1761 C1771 0.929 . S
H1762 C1766 0.929 . S
H1763 C1772 0.929 . S
C1764 H1758 0.930 . S
C1764 C1765 1.367 . S
C1764 C1772 1.378 . S
C1765 C1764 1.367 . S
C1765 C1773 1.433 . S
C1766 H1762 0.929 . S
C1766 C1768 1.378 . S
C1766 C1770 1.350 . S
C1767 C1770 1.463 . S
C1767 C1772 1.350 . S
C1767 N1775 1.427 . S
C1768 H1759 0.930 . S
C1768 C1766 1.378 . S
C1768 C1769 1.367 . S
C1769 C1768 1.367 . S
C1769 C1771 1.433 . S
C1770 C1766 1.350 . S
C1770 C1767 1.463 . S
C1770 N1774 1.427 . S
C1771 H1761 0.929 . S
C1771 C1769 1.433 . S
C1771 N1774 1.384 . S
C1772 H1763 0.929 . S
C1772 C1764 1.378 . S
C1772 C1767 1.350 . S
C1773 H1760 0.929 . S
C1773 C1765 1.433 . S
C1773 N1775 1.384 . S
N1774 C1770 1.427 . S
N1774 C1771 1.384 . S
N1775 C1767 1.427 . S
N1775 C1773 1.384 . S
H1776 C1782 0.930 . S
H1777 C1786 0.930 . S
H1778 C1791 0.929 . S
H1779 C1789 0.929 . S
H1780 C1784 0.929 . S
H1781 C1790 0.929 . S
C1782 H1776 0.930 . S
C1782 C1783 1.367 . S
C1782 C1790 1.378 . S
C1783 C1782 1.367 . S
C1783 C1791 1.433 . S
C1784 H1780 0.929 . S
C1784 C1786 1.378 . S
C1784 C1788 1.350 . S
C1785 C1788 1.463 . S
C1785 C1790 1.350 . S
C1785 N1793 1.427 . S
C1786 H1777 0.930 . S
C1786 C1784 1.378 . S
C1786 C1787 1.367 . S
C1787 C1786 1.367 . S
C1787 C1789 1.433 . S
C1788 C1784 1.350 . S
C1788 C1785 1.463 . S
C1788 N1792 1.427 . S
C1789 H1779 0.929 . S
C1789 C1787 1.433 . S
C1789 N1792 1.384 . S
C1790 H1781 0.929 . S
C1790 C1782 1.378 . S
C1790 C1785 1.350 . S
C1791 H1778 0.929 . S
C1791 C1783 1.433 . S
C1791 N1793 1.384 . S
N1792 C1788 1.427 . S
N1792 C1789 1.384 . S
N1793 C1785 1.427 . S
N1793 C1791 1.384 . S
H1794 C1800 0.930 . S
H1795 C1804 0.930 . S
H1796 C1809 0.929 . S
H1797 C1807 0.929 . S
H1798 C1802 0.929 . S
H1799 C1808 0.929 . S
C1800 H1794 0.930 . S
C1800 C1801 1.367 . S
C1800 C1808 1.378 . S
C1801 C1800 1.367 . S
C1801 C1809 1.433 . S
C1802 H1798 0.929 . S
C1802 C1804 1.378 . S
C1802 C1806 1.350 . S
C1803 C1806 1.463 . S
C1803 C1808 1.350 . S
C1803 N1811 1.427 . S
C1804 H1795 0.930 . S
C1804 C1802 1.378 . S
C1804 C1805 1.367 . S
C1805 C1804 1.367 . S
C1805 C1807 1.433 . S
C1806 C1802 1.350 . S
C1806 C1803 1.463 . S
C1806 N1810 1.427 . S
C1807 H1797 0.929 . S
C1807 C1805 1.433 . S
C1807 N1810 1.384 . S
C1808 H1799 0.929 . S
C1808 C1800 1.378 . S
C1808 C1803 1.350 . S
C1809 H1796 0.929 . S
C1809 C1801 1.433 . S
C1809 N1811 1.384 . S
N1810 C1806 1.427 . S
N1810 C1807 1.384 . S
N1811 C1803 1.427 . S
N1811 C1809 1.384 . S
H1812 C1818 0.930 . S
H1813 C1822 0.930 . S
H1814 C1827 0.929 . S
H1815 C1825 0.929 . S
H1816 C1820 0.929 . S
H1817 C1826 0.929 . S
C1818 H1812 0.930 . S
C1818 C1819 1.367 . S
C1818 C1826 1.378 . S
C1819 C1818 1.367 . S
C1819 C1827 1.433 . S
C1820 H1816 0.929 . S
C1820 C1822 1.378 . S
C1820 C1824 1.350 . S
C1821 C1824 1.463 . S
C1821 C1826 1.350 . S
C1821 N1829 1.427 . S
C1822 H1813 0.930 . S
C1822 C1820 1.378 . S
C1822 C1823 1.367 . S
C1823 C1822 1.367 . S
C1823 C1825 1.433 . S
C1824 C1820 1.350 . S
C1824 C1821 1.463 . S
C1824 N1828 1.427 . S
C1825 H1815 0.929 . S
C1825 C1823 1.433 . S
C1825 N1828 1.384 . S
C1826 H1817 0.929 . S
C1826 C1818 1.378 . S
C1826 C1821 1.350 . S
C1827 H1814 0.929 . S
C1827 C1819 1.433 . S
C1827 N1829 1.384 . S
N1828 C1824 1.427 . S
N1828 C1825 1.384 . S
N1829 C1821 1.427 . S
N1829 C1827 1.384 . S
H1830 C1836 0.930 . S
H1831 C1840 0.930 . S
H1832 C1845 0.929 . S
H1833 C1843 0.929 . S
H1834 C1838 0.929 . S
H1835 C1844 0.929 . S
C1836 H1830 0.930 . S
C1836 C1837 1.367 . S
C1836 C1844 1.378 . S
C1837 C1836 1.367 . S
C1837 C1845 1.433 . S
C1838 H1834 0.929 . S
C1838 C1840 1.378 . S
C1838 C1842 1.350 . S
C1839 C1842 1.463 . S
C1839 C1844 1.350 . S
C1839 N1847 1.427 . S
C1840 H1831 0.930 . S
C1840 C1838 1.378 . S
C1840 C1841 1.367 . S
C1841 C1840 1.367 . S
C1841 C1843 1.433 . S
C1842 C1838 1.350 . S
C1842 C1839 1.463 . S
C1842 N1846 1.427 . S
C1843 H1833 0.929 . S
C1843 C1841 1.433 . S
C1843 N1846 1.384 . S
C1844 H1835 0.929 . S
C1844 C1836 1.378 . S
C1844 C1839 1.350 . S
C1845 H1832 0.929 . S
C1845 C1837 1.433 . S
C1845 N1847 1.384 . S
N1846 C1842 1.427 . S
N1846 C1843 1.384 . S
N1847 C1839 1.427 . S
N1847 C1845 1.384 . S
H1848 C1854 0.930 . S
H1849 C1858 0.930 . S
H1850 C1863 0.929 . S
H1851 C1861 0.929 . S
H1852 C1856 0.929 . S
H1853 C1862 0.929 . S
C1854 H1848 0.930 . S
C1854 C1855 1.367 . S
C1854 C1862 1.378 . S
C1855 C1854 1.367 . S
C1855 C1863 1.433 . S
C1856 H1852 0.929 . S
C1856 C1858 1.378 . S
C1856 C1860 1.350 . S
C1857 C1860 1.463 . S
C1857 C1862 1.350 . S
C1857 N1865 1.427 . S
C1858 H1849 0.930 . S
C1858 C1856 1.378 . S
C1858 C1859 1.367 . S
C1859 C1858 1.367 . S
C1859 C1861 1.433 . S
C1860 C1856 1.350 . S
C1860 C1857 1.463 . S
C1860 N1864 1.427 . S
C1861 H1851 0.929 . S
C1861 C1859 1.433 . S
C1861 N1864 1.384 . S
C1862 H1853 0.929 . S
C1862 C1854 1.378 . S
C1862 C1857 1.350 . S
C1863 H1850 0.929 . S
C1863 C1855 1.433 . S
C1863 N1865 1.384 . S
N1864 C1860 1.427 . S
N1864 C1861 1.384 . S
N1865 C1857 1.427 . S
N1865 C1863 1.384 . S
H1866 C1872 0.930 . S
H1867 C1876 0.930 . S
H1868 C1881 0.929 . S
H1869 C1879 0.929 . S
H1870 C1874 0.929 . S
H1871 C1880 0.929 . S
C1872 H1866 0.930 . S
C1872 C1873 1.367 . S
C1872 C1880 1.378 . S
C1873 C1872 1.367 . S
C1873 C1881 1.433 . S
C1874 H1870 0.929 . S
C1874 C1876 1.378 . S
C1874 C1878 1.350 . S
C1875 C1878 1.463 . S
C1875 C1880 1.350 . S
C1875 N1883 1.427 . S
C1876 H1867 0.930 . S
C1876 C1874 1.378 . S
C1876 C1877 1.367 . S
C1877 C1876 1.367 . S
C1877 C1879 1.433 . S
C1878 C1874 1.350 . S
C1878 C1875 1.463 . S
C1878 N1882 1.427 . S
C1879 H1869 0.929 . S
C1879 C1877 1.433 . S
C1879 N1882 1.384 . S
C1880 H1871 0.929 . S
C1880 C1872 1.378 . S
C1880 C1875 1.350 . S
C1881 H1868 0.929 . S
C1881 C1873 1.433 . S
C1881 N1883 1.384 . S
N1882 C1878 1.427 . S
N1882 C1879 1.384 . S
N1883 C1875 1.427 . S
N1883 C1881 1.384 . S
H1884 C1890 0.930 . S
H1885 C1894 0.930 . S
H1886 C1899 0.929 . S
H1887 C1897 0.929 . S
H1888 C1892 0.929 . S
H1889 C1898 0.929 . S
C1890 H1884 0.930 . S
C1890 C1891 1.367 . S
C1890 C1898 1.378 . S
C1891 C1890 1.367 . S
C1891 C1899 1.433 . S
C1892 H1888 0.929 . S
C1892 C1894 1.378 . S
C1892 C1896 1.350 . S
C1893 C1896 1.463 . S
C1893 C1898 1.350 . S
C1893 N1901 1.427 . S
C1894 H1885 0.930 . S
C1894 C1892 1.378 . S
C1894 C1895 1.367 . S
C1895 C1894 1.367 . S
C1895 C1897 1.433 . S
C1896 C1892 1.350 . S
C1896 C1893 1.463 . S
C1896 N1900 1.427 . S
C1897 H1887 0.929 . S
C1897 C1895 1.433 . S
C1897 N1900 1.384 . S
C1898 H1889 0.929 . S
C1898 C1890 1.378 . S
C1898 C1893 1.350 . S
C1899 H1886 0.929 . S
C1899 C1891 1.433 . S
C1899 N1901 1.384 . S
N1900 C1896 1.427 . S
N1900 C1897 1.384 . S
N1901 C1893 1.427 . S
N1901 C1899 1.384 . S
H1902 C1908 0.930 . S
H1903 C1912 0.930 . S
H1904 C1917 0.929 . S
H1905 C1915 0.929 . S
H1906 C1910 0.929 . S
H1907 C1916 0.929 . S
C1908 H1902 0.930 . S
C1908 C1909 1.367 . S
C1908 C1916 1.378 . S
C1909 C1908 1.367 . S
C1909 C1917 1.433 . S
C1910 H1906 0.929 . S
C1910 C1912 1.378 . S
C1910 C1914 1.350 . S
C1911 C1914 1.463 . S
C1911 C1916 1.350 . S
C1911 N1919 1.427 . S
C1912 H1903 0.930 . S
C1912 C1910 1.378 . S
C1912 C1913 1.367 . S
C1913 C1912 1.367 . S
C1913 C1915 1.433 . S
C1914 C1910 1.350 . S
C1914 C1911 1.463 . S
C1914 N1918 1.427 . S
C1915 H1905 0.929 . S
C1915 C1913 1.433 . S
C1915 N1918 1.384 . S
C1916 H1907 0.929 . S
C1916 C1908 1.378 . S
C1916 C1911 1.350 . S
C1917 H1904 0.929 . S
C1917 C1909 1.433 . S
C1917 N1919 1.384 . S
N1918 C1914 1.427 . S
N1918 C1915 1.384 . S
N1919 C1911 1.427 . S
N1919 C1917 1.384 . S
H1920 C1926 0.930 . S
H1921 C1930 0.930 . S
H1922 C1935 0.929 . S
H1923 C1933 0.929 . S
H1924 C1928 0.929 . S
H1925 C1934 0.929 . S
C1926 H1920 0.930 . S
C1926 C1927 1.367 . S
C1926 C1934 1.378 . S
C1927 C1926 1.367 . S
C1927 C1935 1.433 . S
C1928 H1924 0.929 . S
C1928 C1930 1.378 . S
C1928 C1932 1.350 . S
C1929 C1932 1.463 1_554 S
C1929 C1934 1.350 . S
C1929 N1937 1.427 . S
C1930 H1921 0.930 . S
C1930 C1928 1.378 . S
C1930 C1931 1.367 . S
C1931 C1930 1.367 . S
C1931 C1933 1.433 . S
C1932 C1928 1.350 . S
C1932 C1929 1.463 1_556 S
C1932 N1936 1.427 . S
C1933 H1923 0.929 . S
C1933 C1931 1.433 . S
C1933 N1936 1.384 . S
C1934 H1925 0.929 . S
C1934 C1926 1.378 . S
C1934 C1929 1.350 . S
C1935 H1922 0.929 . S
C1935 C1927 1.433 . S
C1935 N1937 1.384 . S
N1936 C1932 1.427 . S
N1936 C1933 1.384 . S
N1937 C1929 1.427 . S
N1937 C1935 1.384 . S
H1938 C1944 0.930 . S
H1939 C1948 0.930 . S
H1940 C1953 0.929 . S
H1941 C1951 0.929 . S
H1942 C1946 0.929 . S
H1943 C1952 0.929 . S
C1944 H1938 0.930 . S
C1944 C1945 1.367 . S
C1944 C1952 1.378 1_565 S
C1945 C1944 1.367 . S
C1945 C1953 1.433 . S
C1946 H1942 0.929 . S
C1946 C1948 1.378 1_565 S
C1946 C1950 1.350 1_565 S
C1947 C1950 1.463 1_565 S
C1947 C1952 1.350 1_565 S
C1947 N1955 1.427 . S
C1948 H1939 0.930 . S
C1948 C1946 1.378 1_545 S
C1948 C1949 1.367 . S
C1949 C1948 1.367 . S
C1949 C1951 1.433 . S
C1950 C1946 1.350 1_545 S
C1950 C1947 1.463 1_545 S
C1950 N1954 1.427 . S
C1951 H1941 0.929 . S
C1951 C1949 1.433 . S
C1951 N1954 1.384 . S
C1952 H1943 0.929 . S
C1952 C1944 1.378 1_545 S
C1952 C1947 1.350 1_545 S
C1953 H1940 0.929 . S
C1953 C1945 1.433 . S
C1953 N1955 1.384 . S
N1954 C1950 1.427 . S
N1954 C1951 1.384 . S
N1955 C1947 1.427 . S
N1955 C1953 1.384 . S
H1956 C1962 0.930 . S
H1957 C1966 0.930 . S
H1958 C1971 0.929 . S
H1959 C1969 0.929 . S
H1960 C1964 0.929 . S
H1961 C1970 0.929 . S
C1962 H1956 0.930 . S
C1962 C1963 1.367 . S
C1962 C1970 1.378 . S
C1963 C1962 1.367 . S
C1963 C1971 1.433 . S
C1964 H1960 0.929 . S
C1964 C1966 1.378 . S
C1964 C1968 1.350 . S
C1965 C1968 1.463 . S
C1965 C1970 1.350 . S
C1965 N1973 1.427 . S
C1966 H1957 0.930 . S
C1966 C1964 1.378 . S
C1966 C1967 1.367 . S
C1967 C1966 1.367 . S
C1967 C1969 1.433 . S
C1968 C1964 1.350 . S
C1968 C1965 1.463 . S
C1968 N1972 1.427 . S
C1969 H1959 0.929 . S
C1969 C1967 1.433 . S
C1969 N1972 1.384 . S
C1970 H1961 0.929 . S
C1970 C1962 1.378 . S
C1970 C1965 1.350 . S
C1971 H1958 0.929 . S
C1971 C1963 1.433 . S
C1971 N1973 1.384 . S
N1972 C1968 1.427 . S
N1972 C1969 1.384 . S
N1973 C1965 1.427 . S
N1973 C1971 1.384 . S
H1974 C1980 0.930 . S
H1975 C1984 0.930 . S
H1976 C1989 0.929 . S
H1977 C1987 0.929 . S
H1978 C1982 0.929 . S
H1979 C1988 0.929 . S
C1980 H1974 0.930 . S
C1980 C1981 1.367 . S
C1980 C1988 1.378 . S
C1981 C1980 1.367 . S
C1981 C1989 1.433 1_565 S
C1982 H1978 0.929 . S
C1982 C1984 1.378 . S
C1982 C1986 1.350 . S
C1983 C1986 1.463 1_565 S
C1983 C1988 1.350 . S
C1983 N1991 1.427 1_565 S
C1984 H1975 0.930 . S
C1984 C1982 1.378 . S
C1984 C1985 1.367 . S
C1985 C1984 1.367 . S
C1985 C1987 1.433 1_545 S
C1986 C1982 1.350 . S
C1986 C1983 1.463 1_545 S
C1986 N1990 1.427 1_545 S
C1987 H1977 0.929 . S
C1987 C1985 1.433 1_565 S
C1987 N1990 1.384 . S
C1988 H1979 0.929 . S
C1988 C1980 1.378 . S
C1988 C1983 1.350 . S
C1989 H1976 0.929 . S
C1989 C1981 1.433 1_545 S
C1989 N1991 1.384 . S
N1990 C1986 1.427 1_565 S
N1990 C1987 1.384 . S
N1991 C1983 1.427 1_545 S
N1991 C1989 1.384 . S
H1992 C1998 0.930 . S
H1993 C2002 0.930 . S
H1994 C2007 0.929 . S
H1995 C2005 0.929 . S
H1996 C2000 0.929 . S
H1997 C2006 0.929 . S
C1998 H1992 0.930 . S
C1998 C1999 1.367 . S
C1998 C2006 1.378 . S
C1999 C1998 1.367 . S
C1999 C2007 1.433 . S
C2000 H1996 0.929 . S
C2000 C2002 1.378 . S
C2000 C2004 1.350 . S
C2001 C2004 1.463 1_554 S
C2001 C2006 1.350 . S
C2001 N2009 1.427 . S
C2002 H1993 0.930 . S
C2002 C2000 1.378 . S
C2002 C2003 1.367 . S
C2003 C2002 1.367 . S
C2003 C2005 1.433 . S
C2004 C2000 1.350 . S
C2004 C2001 1.463 1_556 S
C2004 N2008 1.427 . S
C2005 H1995 0.929 . S
C2005 C2003 1.433 . S
C2005 N2008 1.384 . S
C2006 H1997 0.929 . S
C2006 C1998 1.378 . S
C2006 C2001 1.350 . S
C2007 H1994 0.929 . S
C2007 C1999 1.433 . S
C2007 N2009 1.384 . S
N2008 C2004 1.427 . S
N2008 C2005 1.384 . S
N2009 C2001 1.427 . S
N2009 C2007 1.384 . S
H2010 C2016 0.930 . S
H2011 C2020 0.930 . S
H2012 C2025 0.929 . S
H2013 C2023 0.929 . S
H2014 C2018 0.929 . S
H2015 C2024 0.929 . S
C2016 H2010 0.930 . S
C2016 C2017 1.367 1_565 S
C2016 C2024 1.378 . S
C2017 C2016 1.367 1_545 S
C2017 C2025 1.433 . S
C2018 H2014 0.929 . S
C2018 C2020 1.378 . S
C2018 C2022 1.350 1_545 S
C2019 C2022 1.463 1_545 S
C2019 C2024 1.350 1_545 S
C2019 N2027 1.427 . S
C2020 H2011 0.930 . S
C2020 C2018 1.378 . S
C2020 C2021 1.367 1_545 S
C2021 C2020 1.367 1_565 S
C2021 C2023 1.433 . S
C2022 C2018 1.350 1_565 S
C2022 C2019 1.463 1_565 S
C2022 N2026 1.427 . S
C2023 H2013 0.929 . S
C2023 C2021 1.433 . S
C2023 N2026 1.384 . S
C2024 H2015 0.929 . S
C2024 C2016 1.378 . S
C2024 C2019 1.350 1_565 S
C2025 H2012 0.929 . S
C2025 C2017 1.433 . S
C2025 N2027 1.384 . S
N2026 C2022 1.427 . S
N2026 C2023 1.384 . S
N2027 C2019 1.427 . S
N2027 C2025 1.384 . S
H2028 C2034 0.930 . S
H2029 C2038 0.930 . S
H2030 C2043 0.929 . S
H2031 C2041 0.929 . S
H2032 C2036 0.929 . S
H2033 C2042 0.929 . S
C2034 H2028 0.930 . S
C2034 C2035 1.367 . S
C2034 C2042 1.378 . S
C2035 C2034 1.367 . S
C2035 C2043 1.433 . S
C2036 H2032 0.929 . S
C2036 C2038 1.378 . S
C2036 C2040 1.350 . S
C2037 C2040 1.463 . S
C2037 C2042 1.350 . S
C2037 N2045 1.427 . S
C2038 H2029 0.930 . S
C2038 C2036 1.378 . S
C2038 C2039 1.367 . S
C2039 C2038 1.367 . S
C2039 C2041 1.433 . S
C2040 C2036 1.350 . S
C2040 C2037 1.463 . S
C2040 N2044 1.427 . S
C2041 H2031 0.929 . S
C2041 C2039 1.433 . S
C2041 N2044 1.384 . S
C2042 H2033 0.929 . S
C2042 C2034 1.378 . S
C2042 C2037 1.350 . S
C2043 H2030 0.929 . S
C2043 C2035 1.433 . S
C2043 N2045 1.384 . S
N2044 C2040 1.427 . S
N2044 C2041 1.384 . S
N2045 C2037 1.427 . S
N2045 C2043 1.384 . S
H2046 C2052 0.930 . S
H2047 C2056 0.930 . S
H2048 C2061 0.929 . S
H2049 C2059 0.929 . S
H2050 C2054 0.929 . S
H2051 C2060 0.929 . S
C2052 H2046 0.930 . S
C2052 C2053 1.367 . S
C2052 C2060 1.378 . S
C2053 C2052 1.367 . S
C2053 C2061 1.433 1_565 S
C2054 H2050 0.929 . S
C2054 C2056 1.378 . S
C2054 C2058 1.350 . S
C2055 C2058 1.463 1_565 S
C2055 C2060 1.350 . S
C2055 N2063 1.427 1_565 S
C2056 H2047 0.930 . S
C2056 C2054 1.378 . S
C2056 C2057 1.367 . S
C2057 C2056 1.367 . S
C2057 C2059 1.433 1_545 S
C2058 C2054 1.350 . S
C2058 C2055 1.463 1_545 S
C2058 N2062 1.427 1_545 S
C2059 H2049 0.929 . S
C2059 C2057 1.433 1_565 S
C2059 N2062 1.384 . S
C2060 H2051 0.929 . S
C2060 C2052 1.378 . S
C2060 C2055 1.350 . S
C2061 H2048 0.929 . S
C2061 C2053 1.433 1_545 S
C2061 N2063 1.384 . S
N2062 C2058 1.427 1_565 S
N2062 C2059 1.384 . S
N2063 C2055 1.427 1_545 S
N2063 C2061 1.384 . S
H2064 C2070 0.930 . S
H2065 C2074 0.930 . S
H2066 C2079 0.929 . S
H2067 C2077 0.929 . S
H2068 C2072 0.929 . S
H2069 C2078 0.929 . S
C2070 H2064 0.930 . S
C2070 C2071 1.367 . S
C2070 C2078 1.378 . S
C2071 C2070 1.367 . S
C2071 C2079 1.433 . S
C2072 H2068 0.929 . S
C2072 C2074 1.378 . S
C2072 C2076 1.350 . S
C2073 C2076 1.463 . S
C2073 C2078 1.350 . S
C2073 N2081 1.427 . S
C2074 H2065 0.930 . S
C2074 C2072 1.378 . S
C2074 C2075 1.367 . S
C2075 C2074 1.367 . S
C2075 C2077 1.433 . S
C2076 C2072 1.350 . S
C2076 C2073 1.463 . S
C2076 N2080 1.427 . S
C2077 H2067 0.929 . S
C2077 C2075 1.433 . S
C2077 N2080 1.384 . S
C2078 H2069 0.929 . S
C2078 C2070 1.378 . S
C2078 C2073 1.350 . S
C2079 H2066 0.929 . S
C2079 C2071 1.433 . S
C2079 N2081 1.384 . S
N2080 C2076 1.427 . S
N2080 C2077 1.384 . S
N2081 C2073 1.427 . S
N2081 C2079 1.384 . S
H2082 C2088 0.930 . S
H2083 C2092 0.930 . S
H2084 C2097 0.929 . S
H2085 C2095 0.929 . S
H2086 C2090 0.929 . S
H2087 C2096 0.929 . S
C2088 H2082 0.930 . S
C2088 C2089 1.367 . S
C2088 C2096 1.378 . S
C2089 C2088 1.367 . S
C2089 C2097 1.433 . S
C2090 H2086 0.929 . S
C2090 C2092 1.378 . S
C2090 C2094 1.350 . S
C2091 C2094 1.463 . S
C2091 C2096 1.350 . S
C2091 N2099 1.427 . S
C2092 H2083 0.930 . S
C2092 C2090 1.378 . S
C2092 C2093 1.367 . S
C2093 C2092 1.367 . S
C2093 C2095 1.433 . S
C2094 C2090 1.350 . S
C2094 C2091 1.463 . S
C2094 N2098 1.427 . S
C2095 H2085 0.929 . S
C2095 C2093 1.433 . S
C2095 N2098 1.384 . S
C2096 H2087 0.929 . S
C2096 C2088 1.378 . S
C2096 C2091 1.350 . S
C2097 H2084 0.929 . S
C2097 C2089 1.433 . S
C2097 N2099 1.384 . S
N2098 C2094 1.427 . S
N2098 C2095 1.384 . S
N2099 C2091 1.427 . S
N2099 C2097 1.384 . S
H2100 C2106 0.930 . S
H2101 C2110 0.930 . S
H2102 C2115 0.929 . S
H2103 C2113 0.929 . S
H2104 C2108 0.929 . S
H2105 C2114 0.929 . S
C2106 H2100 0.930 . S
C2106 C2107 1.367 . S
C2106 C2114 1.378 . S
C2107 C2106 1.367 . S
C2107 C2115 1.433 . S
C2108 H2104 0.929 . S
C2108 C2110 1.378 . S
C2108 C2112 1.350 . S
C2109 C2112 1.463 1_554 S
C2109 C2114 1.350 . S
C2109 N2117 1.427 . S
C2110 H2101 0.930 . S
C2110 C2108 1.378 . S
C2110 C2111 1.367 . S
C2111 C2110 1.367 . S
C2111 C2113 1.433 . S
C2112 C2108 1.350 . S
C2112 C2109 1.463 1_556 S
C2112 N2116 1.427 . S
C2113 H2103 0.929 . S
C2113 C2111 1.433 . S
C2113 N2116 1.384 . S
C2114 H2105 0.929 . S
C2114 C2106 1.378 . S
C2114 C2109 1.350 . S
C2115 H2102 0.929 . S
C2115 C2107 1.433 . S
C2115 N2117 1.384 . S
N2116 C2112 1.427 . S
N2116 C2113 1.384 . S
N2117 C2109 1.427 . S
N2117 C2115 1.384 . S
H2118 C2124 0.930 . S
H2119 C2128 0.930 . S
H2120 C2133 0.929 . S
H2121 C2131 0.929 . S
H2122 C2126 0.929 . S
H2123 C2132 0.929 . S
C2124 H2118 0.930 . S
C2124 C2125 1.367 . S
C2124 C2132 1.378 . S
C2125 C2124 1.367 . S
C2125 C2133 1.433 . S
C2126 H2122 0.929 . S
C2126 C2128 1.378 . S
C2126 C2130 1.350 . S
C2127 C2130 1.463 . S
C2127 C2132 1.350 . S
C2127 N2135 1.427 . S
C2128 H2119 0.930 . S
C2128 C2126 1.378 . S
C2128 C2129 1.367 . S
C2129 C2128 1.367 . S
C2129 C2131 1.433 . S
C2130 C2126 1.350 . S
C2130 C2127 1.463 . S
C2130 N2134 1.427 . S
C2131 H2121 0.929 . S
C2131 C2129 1.433 . S
C2131 N2134 1.384 . S
C2132 H2123 0.929 . S
C2132 C2124 1.378 . S
C2132 C2127 1.350 . S
C2133 H2120 0.929 . S
C2133 C2125 1.433 . S
C2133 N2135 1.384 . S
N2134 C2130 1.427 . S
N2134 C2131 1.384 . S
N2135 C2127 1.427 . S
N2135 C2133 1.384 . S
H2136 C2142 0.930 . S
H2137 C2146 0.930 . S
H2138 C2151 0.929 . S
H2139 C2149 0.929 . S
H2140 C2144 0.929 . S
H2141 C2150 0.929 . S
C2142 H2136 0.930 . S
C2142 C2143 1.367 . S
C2142 C2150 1.378 . S
C2143 C2142 1.367 . S
C2143 C2151 1.433 . S
C2144 H2140 0.929 . S
C2144 C2146 1.378 . S
C2144 C2148 1.350 . S
C2145 C2148 1.463 . S
C2145 C2150 1.350 . S
C2145 N2153 1.427 . S
C2146 H2137 0.930 . S
C2146 C2144 1.378 . S
C2146 C2147 1.367 . S
C2147 C2146 1.367 . S
C2147 C2149 1.433 . S
C2148 C2144 1.350 . S
C2148 C2145 1.463 . S
C2148 N2152 1.427 . S
C2149 H2139 0.929 . S
C2149 C2147 1.433 . S
C2149 N2152 1.384 . S
C2150 H2141 0.929 . S
C2150 C2142 1.378 . S
C2150 C2145 1.350 . S
C2151 H2138 0.929 . S
C2151 C2143 1.433 . S
C2151 N2153 1.384 . S
N2152 C2148 1.427 . S
N2152 C2149 1.384 . S
N2153 C2145 1.427 . S
N2153 C2151 1.384 . S
H2154 C2160 0.930 . S
H2155 C2164 0.930 . S
H2156 C2169 0.929 . S
H2157 C2167 0.929 . S
H2158 C2162 0.929 . S
H2159 C2168 0.929 . S
C2160 H2154 0.930 . S
C2160 C2161 1.367 . S
C2160 C2168 1.378 . S
C2161 C2160 1.367 . S
C2161 C2169 1.433 . S
C2162 H2158 0.929 . S
C2162 C2164 1.378 . S
C2162 C2166 1.350 . S
C2163 C2166 1.463 . S
C2163 C2168 1.350 . S
C2163 N2171 1.427 . S
C2164 H2155 0.930 . S
C2164 C2162 1.378 . S
C2164 C2165 1.367 . S
C2165 C2164 1.367 . S
C2165 C2167 1.433 . S
C2166 C2162 1.350 . S
C2166 C2163 1.463 . S
C2166 N2170 1.427 . S
C2167 H2157 0.929 . S
C2167 C2165 1.433 . S
C2167 N2170 1.384 . S
C2168 H2159 0.929 . S
C2168 C2160 1.378 . S
C2168 C2163 1.350 . S
C2169 H2156 0.929 . S
C2169 C2161 1.433 . S
C2169 N2171 1.384 . S
N2170 C2166 1.427 . S
N2170 C2167 1.384 . S
N2171 C2163 1.427 . S
N2171 C2169 1.384 . S
H2172 C2178 0.930 . S
H2173 C2182 0.930 . S
H2174 C2187 0.929 . S
H2175 C2185 0.929 . S
H2176 C2180 0.929 . S
H2177 C2186 0.929 . S
C2178 H2172 0.930 . S
C2178 C2179 1.367 . S
C2178 C2186 1.378 . S
C2179 C2178 1.367 . S
C2179 C2187 1.433 . S
C2180 H2176 0.929 . S
C2180 C2182 1.378 . S
C2180 C2184 1.350 . S
C2181 C2184 1.463 1_556 S
C2181 C2186 1.350 . S
C2181 N2189 1.427 . S
C2182 H2173 0.930 . S
C2182 C2180 1.378 . S
C2182 C2183 1.367 . S
C2183 C2182 1.367 . S
C2183 C2185 1.433 . S
C2184 C2180 1.350 . S
C2184 C2181 1.463 1_554 S
C2184 N2188 1.427 . S
C2185 H2175 0.929 . S
C2185 C2183 1.433 . S
C2185 N2188 1.384 . S
C2186 H2177 0.929 . S
C2186 C2178 1.378 . S
C2186 C2181 1.350 . S
C2187 H2174 0.929 . S
C2187 C2179 1.433 . S
C2187 N2189 1.384 . S
N2188 C2184 1.427 . S
N2188 C2185 1.384 . S
N2189 C2181 1.427 . S
N2189 C2187 1.384 . S
H2190 C2196 0.930 . S
H2191 C2200 0.930 . S
H2192 C2205 0.929 . S
H2193 C2203 0.929 . S
H2194 C2198 0.929 . S
H2195 C2204 0.929 . S
C2196 H2190 0.930 . S
C2196 C2197 1.367 . S
C2196 C2204 1.378 . S
C2197 C2196 1.367 . S
C2197 C2205 1.433 . S
C2198 H2194 0.929 . S
C2198 C2200 1.378 . S
C2198 C2202 1.350 . S
C2199 C2202 1.463 . S
C2199 C2204 1.350 . S
C2199 N2207 1.427 . S
C2200 H2191 0.930 . S
C2200 C2198 1.378 . S
C2200 C2201 1.367 . S
C2201 C2200 1.367 . S
C2201 C2203 1.433 . S
C2202 C2198 1.350 . S
C2202 C2199 1.463 . S
C2202 N2206 1.427 . S
C2203 H2193 0.929 . S
C2203 C2201 1.433 . S
C2203 N2206 1.384 . S
C2204 H2195 0.929 . S
C2204 C2196 1.378 . S
C2204 C2199 1.350 . S
C2205 H2192 0.929 . S
C2205 C2197 1.433 . S
C2205 N2207 1.384 . S
N2206 C2202 1.427 . S
N2206 C2203 1.384 . S
N2207 C2199 1.427 . S
N2207 C2205 1.384 . S
H2208 C2214 0.930 . S
H2209 C2218 0.930 . S
H2210 C2223 0.929 . S
H2211 C2221 0.929 . S
H2212 C2216 0.929 . S
H2213 C2222 0.929 . S
C2214 H2208 0.930 . S
C2214 C2215 1.367 . S
C2214 C2222 1.378 . S
C2215 C2214 1.367 . S
C2215 C2223 1.433 . S
C2216 H2212 0.929 . S
C2216 C2218 1.378 . S
C2216 C2220 1.350 . S
C2217 C2220 1.463 . S
C2217 C2222 1.350 . S
C2217 N2225 1.427 . S
C2218 H2209 0.930 . S
C2218 C2216 1.378 . S
C2218 C2219 1.367 . S
C2219 C2218 1.367 . S
C2219 C2221 1.433 . S
C2220 C2216 1.350 . S
C2220 C2217 1.463 . S
C2220 N2224 1.427 . S
C2221 H2211 0.929 . S
C2221 C2219 1.433 . S
C2221 N2224 1.384 . S
C2222 H2213 0.929 . S
C2222 C2214 1.378 . S
C2222 C2217 1.350 . S
C2223 H2210 0.929 . S
C2223 C2215 1.433 . S
C2223 N2225 1.384 . S
N2224 C2220 1.427 . S
N2224 C2221 1.384 . S
N2225 C2217 1.427 . S
N2225 C2223 1.384 . S
H2226 C2232 0.930 . S
H2227 C2236 0.930 . S
H2228 C2241 0.929 . S
H2229 C2239 0.929 . S
H2230 C2234 0.929 . S
H2231 C2240 0.929 . S
C2232 H2226 0.930 . S
C2232 C2233 1.367 . S
C2232 C2240 1.378 . S
C2233 C2232 1.367 . S
C2233 C2241 1.433 . S
C2234 H2230 0.929 . S
C2234 C2236 1.378 . S
C2234 C2238 1.350 . S
C2235 C2238 1.463 . S
C2235 C2240 1.350 . S
C2235 N2243 1.427 . S
C2236 H2227 0.930 . S
C2236 C2234 1.378 . S
C2236 C2237 1.367 . S
C2237 C2236 1.367 . S
C2237 C2239 1.433 . S
C2238 C2234 1.350 . S
C2238 C2235 1.463 . S
C2238 N2242 1.427 . S
C2239 H2229 0.929 . S
C2239 C2237 1.433 . S
C2239 N2242 1.384 . S
C2240 H2231 0.929 . S
C2240 C2232 1.378 . S
C2240 C2235 1.350 . S
C2241 H2228 0.929 . S
C2241 C2233 1.433 . S
C2241 N2243 1.384 . S
N2242 C2238 1.427 . S
N2242 C2239 1.384 . S
N2243 C2235 1.427 . S
N2243 C2241 1.384 . S
H2244 C2250 0.930 . S
H2245 C2254 0.930 . S
H2246 C2259 0.929 . S
H2247 C2257 0.929 . S
H2248 C2252 0.929 . S
H2249 C2258 0.929 . S
C2250 H2244 0.930 . S
C2250 C2251 1.367 . S
C2250 C2258 1.378 . S
C2251 C2250 1.367 . S
C2251 C2259 1.433 . S
C2252 H2248 0.929 . S
C2252 C2254 1.378 . S
C2252 C2256 1.350 . S
C2253 C2256 1.463 . S
C2253 C2258 1.350 . S
C2253 N2261 1.427 . S
C2254 H2245 0.930 . S
C2254 C2252 1.378 . S
C2254 C2255 1.367 . S
C2255 C2254 1.367 . S
C2255 C2257 1.433 . S
C2256 C2252 1.350 . S
C2256 C2253 1.463 . S
C2256 N2260 1.427 . S
C2257 H2247 0.929 . S
C2257 C2255 1.433 . S
C2257 N2260 1.384 . S
C2258 H2249 0.929 . S
C2258 C2250 1.378 . S
C2258 C2253 1.350 . S
C2259 H2246 0.929 . S
C2259 C2251 1.433 . S
C2259 N2261 1.384 . S
N2260 C2256 1.427 . S
N2260 C2257 1.384 . S
N2261 C2253 1.427 . S
N2261 C2259 1.384 . S
H2262 C2268 0.930 . S
H2263 C2272 0.930 . S
H2264 C2277 0.929 . S
H2265 C2275 0.929 . S
H2266 C2270 0.929 . S
H2267 C2276 0.929 . S
C2268 H2262 0.930 . S
C2268 C2269 1.367 . S
C2268 C2276 1.378 . S
C2269 C2268 1.367 . S
C2269 C2277 1.433 . S
C2270 H2266 0.929 . S
C2270 C2272 1.378 . S
C2270 C2274 1.350 . S
C2271 C2274 1.463 . S
C2271 C2276 1.350 . S
C2271 N2279 1.427 . S
C2272 H2263 0.930 . S
C2272 C2270 1.378 . S
C2272 C2273 1.367 . S
C2273 C2272 1.367 . S
C2273 C2275 1.433 . S
C2274 C2270 1.350 . S
C2274 C2271 1.463 . S
C2274 N2278 1.427 . S
C2275 H2265 0.929 . S
C2275 C2273 1.433 . S
C2275 N2278 1.384 . S
C2276 H2267 0.929 . S
C2276 C2268 1.378 . S
C2276 C2271 1.350 . S
C2277 H2264 0.929 . S
C2277 C2269 1.433 . S
C2277 N2279 1.384 . S
N2278 C2274 1.427 . S
N2278 C2275 1.384 . S
N2279 C2271 1.427 . S
N2279 C2277 1.384 . S
H2280 C2286 0.930 . S
H2281 C2290 0.930 . S
H2282 C2295 0.929 . S
H2283 C2293 0.929 . S
H2284 C2288 0.929 . S
H2285 C2294 0.929 . S
C2286 H2280 0.930 . S
C2286 C2287 1.367 . S
C2286 C2294 1.378 . S
C2287 C2286 1.367 . S
C2287 C2295 1.433 . S
C2288 H2284 0.929 . S
C2288 C2290 1.378 . S
C2288 C2292 1.350 . S
C2289 C2292 1.463 . S
C2289 C2294 1.350 . S
C2289 N2297 1.427 . S
C2290 H2281 0.930 . S
C2290 C2288 1.378 . S
C2290 C2291 1.367 . S
C2291 C2290 1.367 . S
C2291 C2293 1.433 . S
C2292 C2288 1.350 . S
C2292 C2289 1.463 . S
C2292 N2296 1.427 . S
C2293 H2283 0.929 . S
C2293 C2291 1.433 . S
C2293 N2296 1.384 . S
C2294 H2285 0.929 . S
C2294 C2286 1.378 . S
C2294 C2289 1.350 . S
C2295 H2282 0.929 . S
C2295 C2287 1.433 . S
C2295 N2297 1.384 . S
N2296 C2292 1.427 . S
N2296 C2293 1.384 . S
N2297 C2289 1.427 . S
N2297 C2295 1.384 . S
H2298 C2304 0.930 . S
H2299 C2308 0.930 . S
H2300 C2313 0.929 . S
H2301 C2311 0.929 . S
H2302 C2306 0.929 . S
H2303 C2312 0.929 . S
C2304 H2298 0.930 . S
C2304 C2305 1.367 . S
C2304 C2312 1.378 . S
C2305 C2304 1.367 . S
C2305 C2313 1.433 . S
C2306 H2302 0.929 . S
C2306 C2308 1.378 . S
C2306 C2310 1.350 . S
C2307 C2310 1.463 . S
C2307 C2312 1.350 . S
C2307 N2315 1.427 . S
C2308 H2299 0.930 . S
C2308 C2306 1.378 . S
C2308 C2309 1.367 . S
C2309 C2308 1.367 . S
C2309 C2311 1.433 . S
C2310 C2306 1.350 . S
C2310 C2307 1.463 . S
C2310 N2314 1.427 . S
C2311 H2301 0.929 . S
C2311 C2309 1.433 . S
C2311 N2314 1.384 . S
C2312 H2303 0.929 . S
C2312 C2304 1.378 . S
C2312 C2307 1.350 . S
C2313 H2300 0.929 . S
C2313 C2305 1.433 . S
C2313 N2315 1.384 . S
N2314 C2310 1.427 . S
N2314 C2311 1.384 . S
N2315 C2307 1.427 . S
N2315 C2313 1.384 . S
H2316 C2322 0.930 . S
H2317 C2326 0.930 . S
H2318 C2331 0.929 . S
H2319 C2329 0.929 . S
H2320 C2324 0.929 . S
H2321 C2330 0.929 . S
C2322 H2316 0.930 . S
C2322 C2323 1.367 . S
C2322 C2330 1.378 . S
C2323 C2322 1.367 . S
C2323 C2331 1.433 . S
C2324 H2320 0.929 . S
C2324 C2326 1.378 . S
C2324 C2328 1.350 . S
C2325 C2328 1.463 . S
C2325 C2330 1.350 . S
C2325 N2333 1.427 . S
C2326 H2317 0.930 . S
C2326 C2324 1.378 . S
C2326 C2327 1.367 . S
C2327 C2326 1.367 . S
C2327 C2329 1.433 . S
C2328 C2324 1.350 . S
C2328 C2325 1.463 . S
C2328 N2332 1.427 . S
C2329 H2319 0.929 . S
C2329 C2327 1.433 . S
C2329 N2332 1.384 . S
C2330 H2321 0.929 . S
C2330 C2322 1.378 . S
C2330 C2325 1.350 . S
C2331 H2318 0.929 . S
C2331 C2323 1.433 . S
C2331 N2333 1.384 . S
N2332 C2328 1.427 . S
N2332 C2329 1.384 . S
N2333 C2325 1.427 . S
N2333 C2331 1.384 . S
H2334 C2340 0.930 . S
H2335 C2344 0.930 . S
H2336 C2349 0.929 . S
H2337 C2347 0.929 . S
H2338 C2342 0.929 . S
H2339 C2348 0.929 . S
C2340 H2334 0.930 . S
C2340 C2341 1.367 . S
C2340 C2348 1.378 . S
C2341 C2340 1.367 . S
C2341 C2349 1.433 . S
C2342 H2338 0.929 . S
C2342 C2344 1.378 . S
C2342 C2346 1.350 . S
C2343 C2346 1.463 . S
C2343 C2348 1.350 . S
C2343 N2351 1.427 . S
C2344 H2335 0.930 . S
C2344 C2342 1.378 . S
C2344 C2345 1.367 . S
C2345 C2344 1.367 . S
C2345 C2347 1.433 . S
C2346 C2342 1.350 . S
C2346 C2343 1.463 . S
C2346 N2350 1.427 . S
C2347 H2337 0.929 . S
C2347 C2345 1.433 . S
C2347 N2350 1.384 . S
C2348 H2339 0.929 . S
C2348 C2340 1.378 . S
C2348 C2343 1.350 . S
C2349 H2336 0.929 . S
C2349 C2341 1.433 . S
C2349 N2351 1.384 . S
N2350 C2346 1.427 . S
N2350 C2347 1.384 . S
N2351 C2343 1.427 . S
N2351 C2349 1.384 . S
H2352 C2358 0.930 . S
H2353 C2362 0.930 . S
H2354 C2367 0.929 . S
H2355 C2365 0.929 . S
H2356 C2360 0.929 . S
H2357 C2366 0.929 . S
C2358 H2352 0.930 . S
C2358 C2359 1.367 . S
C2358 C2366 1.378 . S
C2359 C2358 1.367 . S
C2359 C2367 1.433 . S
C2360 H2356 0.929 . S
C2360 C2362 1.378 . S
C2360 C2364 1.350 . S
C2361 C2364 1.463 . S
C2361 C2366 1.350 . S
C2361 N2369 1.427 . S
C2362 H2353 0.930 . S
C2362 C2360 1.378 . S
C2362 C2363 1.367 . S
C2363 C2362 1.367 . S
C2363 C2365 1.433 . S
C2364 C2360 1.350 . S
C2364 C2361 1.463 . S
C2364 N2368 1.427 . S
C2365 H2355 0.929 . S
C2365 C2363 1.433 . S
C2365 N2368 1.384 . S
C2366 H2357 0.929 . S
C2366 C2358 1.378 . S
C2366 C2361 1.350 . S
C2367 H2354 0.929 . S
C2367 C2359 1.433 . S
C2367 N2369 1.384 . S
N2368 C2364 1.427 . S
N2368 C2365 1.384 . S
N2369 C2361 1.427 . S
N2369 C2367 1.384 . S
H2370 C2376 0.930 . S
H2371 C2380 0.930 . S
H2372 C2385 0.929 . S
H2373 C2383 0.929 . S
H2374 C2378 0.929 . S
H2375 C2384 0.929 . S
C2376 H2370 0.930 . S
C2376 C2377 1.367 . S
C2376 C2384 1.378 . S
C2377 C2376 1.367 . S
C2377 C2385 1.433 . S
C2378 H2374 0.929 . S
C2378 C2380 1.378 . S
C2378 C2382 1.350 . S
C2379 C2382 1.463 . S
C2379 C2384 1.350 . S
C2379 N2387 1.427 . S
C2380 H2371 0.930 . S
C2380 C2378 1.378 . S
C2380 C2381 1.367 . S
C2381 C2380 1.367 . S
C2381 C2383 1.433 . S
C2382 C2378 1.350 . S
C2382 C2379 1.463 . S
C2382 N2386 1.427 . S
C2383 H2373 0.929 . S
C2383 C2381 1.433 . S
C2383 N2386 1.384 . S
C2384 H2375 0.929 . S
C2384 C2376 1.378 . S
C2384 C2379 1.350 . S
C2385 H2372 0.929 . S
C2385 C2377 1.433 . S
C2385 N2387 1.384 . S
N2386 C2382 1.427 . S
N2386 C2383 1.384 . S
N2387 C2379 1.427 . S
N2387 C2385 1.384 . S
H2388 C2394 0.930 . S
H2389 C2398 0.930 . S
H2390 C2403 0.929 . S
H2391 C2401 0.929 . S
H2392 C2396 0.929 . S
H2393 C2402 0.929 . S
C2394 H2388 0.930 . S
C2394 C2395 1.367 . S
C2394 C2402 1.378 . S
C2395 C2394 1.367 . S
C2395 C2403 1.433 . S
C2396 H2392 0.929 . S
C2396 C2398 1.378 . S
C2396 C2400 1.350 . S
C2397 C2400 1.463 . S
C2397 C2402 1.350 . S
C2397 N2405 1.427 . S
C2398 H2389 0.930 . S
C2398 C2396 1.378 . S
C2398 C2399 1.367 . S
C2399 C2398 1.367 . S
C2399 C2401 1.433 . S
C2400 C2396 1.350 . S
C2400 C2397 1.463 . S
C2400 N2404 1.427 . S
C2401 H2391 0.929 . S
C2401 C2399 1.433 . S
C2401 N2404 1.384 . S
C2402 H2393 0.929 . S
C2402 C2394 1.378 . S
C2402 C2397 1.350 . S
C2403 H2390 0.929 . S
C2403 C2395 1.433 . S
C2403 N2405 1.384 . S
N2404 C2400 1.427 . S
N2404 C2401 1.384 . S
N2405 C2397 1.427 . S
N2405 C2403 1.384 . S
H2406 C2412 0.930 . S
H2407 C2416 0.930 . S
H2408 C2421 0.929 . S
H2409 C2419 0.929 . S
H2410 C2414 0.929 . S
H2411 C2420 0.929 . S
C2412 H2406 0.930 . S
C2412 C2413 1.367 . S
C2412 C2420 1.378 . S
C2413 C2412 1.367 . S
C2413 C2421 1.433 . S
C2414 H2410 0.929 . S
C2414 C2416 1.378 . S
C2414 C2418 1.350 . S
C2415 C2418 1.463 . S
C2415 C2420 1.350 . S
C2415 N2423 1.427 . S
C2416 H2407 0.930 . S
C2416 C2414 1.378 . S
C2416 C2417 1.367 . S
C2417 C2416 1.367 . S
C2417 C2419 1.433 . S
C2418 C2414 1.350 . S
C2418 C2415 1.463 . S
C2418 N2422 1.427 . S
C2419 H2409 0.929 . S
C2419 C2417 1.433 . S
C2419 N2422 1.384 . S
C2420 H2411 0.929 . S
C2420 C2412 1.378 . S
C2420 C2415 1.350 . S
C2421 H2408 0.929 . S
C2421 C2413 1.433 . S
C2421 N2423 1.384 . S
N2422 C2418 1.427 . S
N2422 C2419 1.384 . S
N2423 C2415 1.427 . S
N2423 C2421 1.384 . S
H2424 C2430 0.930 . S
H2425 C2434 0.930 . S
H2426 C2439 0.929 . S
H2427 C2437 0.929 . S
H2428 C2432 0.929 . S
H2429 C2438 0.929 . S
C2430 H2424 0.930 . S
C2430 C2431 1.367 . S
C2430 C2438 1.378 . S
C2431 C2430 1.367 . S
C2431 C2439 1.433 . S
C2432 H2428 0.929 . S
C2432 C2434 1.378 . S
C2432 C2436 1.350 . S
C2433 C2436 1.463 . S
C2433 C2438 1.350 . S
C2433 N2441 1.427 . S
C2434 H2425 0.930 . S
C2434 C2432 1.378 . S
C2434 C2435 1.367 . S
C2435 C2434 1.367 . S
C2435 C2437 1.433 . S
C2436 C2432 1.350 . S
C2436 C2433 1.463 . S
C2436 N2440 1.427 . S
C2437 H2427 0.929 . S
C2437 C2435 1.433 . S
C2437 N2440 1.384 . S
C2438 H2429 0.929 . S
C2438 C2430 1.378 . S
C2438 C2433 1.350 . S
C2439 H2426 0.929 . S
C2439 C2431 1.433 . S
C2439 N2441 1.384 . S
N2440 C2436 1.427 . S
N2440 C2437 1.384 . S
N2441 C2433 1.427 . S
N2441 C2439 1.384 . S
H2442 C2448 0.930 . S
H2443 C2452 0.930 . S
H2444 C2457 0.929 . S
H2445 C2455 0.929 . S
H2446 C2450 0.929 . S
H2447 C2456 0.929 . S
C2448 H2442 0.930 . S
C2448 C2449 1.367 . S
C2448 C2456 1.378 . S
C2449 C2448 1.367 . S
C2449 C2457 1.433 . S
C2450 H2446 0.929 . S
C2450 C2452 1.378 . S
C2450 C2454 1.350 . S
C2451 C2454 1.463 . S
C2451 C2456 1.350 . S
C2451 N2459 1.427 . S
C2452 H2443 0.930 . S
C2452 C2450 1.378 . S
C2452 C2453 1.367 . S
C2453 C2452 1.367 . S
C2453 C2455 1.433 . S
C2454 C2450 1.350 . S
C2454 C2451 1.463 . S
C2454 N2458 1.427 . S
C2455 H2445 0.929 . S
C2455 C2453 1.433 . S
C2455 N2458 1.384 . S
C2456 H2447 0.929 . S
C2456 C2448 1.378 . S
C2456 C2451 1.350 . S
C2457 H2444 0.929 . S
C2457 C2449 1.433 . S
C2457 N2459 1.384 . S
N2458 C2454 1.427 . S
N2458 C2455 1.384 . S
N2459 C2451 1.427 . S
N2459 C2457 1.384 . S
H2460 C2466 0.930 . S
H2461 C2470 0.930 . S
H2462 C2475 0.929 . S
H2463 C2473 0.929 . S
H2464 C2468 0.929 . S
H2465 C2474 0.929 . S
C2466 H2460 0.930 . S
C2466 C2467 1.367 . S
C2466 C2474 1.378 . S
C2467 C2466 1.367 . S
C2467 C2475 1.433 . S
C2468 H2464 0.929 . S
C2468 C2470 1.378 . S
C2468 C2472 1.350 . S
C2469 C2472 1.463 . S
C2469 C2474 1.350 . S
C2469 N2477 1.427 . S
C2470 H2461 0.930 . S
C2470 C2468 1.378 . S
C2470 C2471 1.367 . S
C2471 C2470 1.367 . S
C2471 C2473 1.433 . S
C2472 C2468 1.350 . S
C2472 C2469 1.463 . S
C2472 N2476 1.427 . S
C2473 H2463 0.929 . S
C2473 C2471 1.433 . S
C2473 N2476 1.384 . S
C2474 H2465 0.929 . S
C2474 C2466 1.378 . S
C2474 C2469 1.350 . S
C2475 H2462 0.929 . S
C2475 C2467 1.433 . S
C2475 N2477 1.384 . S
N2476 C2472 1.427 . S
N2476 C2473 1.384 . S
N2477 C2469 1.427 . S
N2477 C2475 1.384 . S
H2478 C2484 0.930 . S
H2479 C2488 0.930 . S
H2480 C2493 0.929 . S
H2481 C2491 0.929 . S
H2482 C2486 0.929 . S
H2483 C2492 0.929 . S
C2484 H2478 0.930 . S
C2484 C2485 1.367 . S
C2484 C2492 1.378 . S
C2485 C2484 1.367 . S
C2485 C2493 1.433 . S
C2486 H2482 0.929 . S
C2486 C2488 1.378 . S
C2486 C2490 1.350 . S
C2487 C2490 1.463 . S
C2487 C2492 1.350 . S
C2487 N2495 1.427 . S
C2488 H2479 0.930 . S
C2488 C2486 1.378 . S
C2488 C2489 1.367 . S
C2489 C2488 1.367 . S
C2489 C2491 1.433 . S
C2490 C2486 1.350 . S
C2490 C2487 1.463 . S
C2490 N2494 1.427 . S
C2491 H2481 0.929 . S
C2491 C2489 1.433 . S
C2491 N2494 1.384 . S
C2492 H2483 0.929 . S
C2492 C2484 1.378 . S
C2492 C2487 1.350 . S
C2493 H2480 0.929 . S
C2493 C2485 1.433 . S
C2493 N2495 1.384 . S
N2494 C2490 1.427 . S
N2494 C2491 1.384 . S
N2495 C2487 1.427 . S
N2495 C2493 1.384 . S
C1063 C18 1.533 . S
C1067 C810 1.533 . S
C1081 C315 1.536 . S
C1085 C51 1.536 . S
C1099 C876 1.537 . S
C1103 C84 1.537 . S
C1117 C381 1.536 . S
C1121 C117 1.536 . S
C1135 C942 1.537 . S
C1139 C150 1.537 . S
C1153 C447 1.537 . S
C1157 C183 1.537 . S
C1171 C1008 1.537 . S
C1175 C216 1.537 . S
C1189 C513 1.535 . S
C1193 C249 1.535 . S
C1207 C282 1.536 . S
C1211 C546 1.536 . S
C1225 C348 1.535 . S
C1229 C612 1.535 . S
C1243 C414 1.536 . S
C1247 C678 1.536 . S
C1261 C744 1.534 . S
C1265 C480 1.534 . S
C1279 C579 1.533 . S
C1283 C843 1.533 . S
C1297 C909 1.534 . S
C1301 C645 1.534 . S
C1315 C711 1.533 . S
C1319 C975 1.533 . S
C1333 C1041 1.536 . S
C1337 C777 1.536 . S
C1351 N13 1.345 . S
C1355 C384 1.375 . S
C1369 N46 1.344 . S
C1373 C813 1.375 . S
C1387 C318 1.380 . S
C1391 N79 1.355 . S
C1405 N112 1.346 . S
C1409 C879 1.378 . S
C1423 C450 1.375 . S
C1427 N145 1.343 . S
C1441 C1011 1.380 . S
C1445 N178 1.356 . S
C1459 N211 1.345 . S
C1463 C516 1.378 . S
C1477 C945 1.379 . S
C1481 N244 1.356 . S
C1495 N277 1.344 . S
C1499 C120 1.375 . S
C1513 N310 1.350 . S
C1517 C549 1.375 . S
C1531 C54 1.379 . S
C1535 N343 1.349 . S
C1549 N376 1.350 . S
C1553 C615 1.380 . S
C1567 N409 1.352 . S
C1571 C186 1.376 . S
C1585 C747 1.378 . S
C1589 N442 1.345 . S
C1603 C252 1.374 . S
C1607 N475 1.345 . S
C1621 N508 1.353 . S
C1625 C681 1.380 . S
C1639 C912 1.375 . S
C1643 N541 1.344 . S
C1657 C285 1.380 . S
C1661 N574 1.355 . S
C1675 C846 1.377 . S
C1679 N607 1.355 . S
C1693 N640 1.353 . S
C1697 C351 1.380 . S
C1711 C978 1.376 . S
C1715 N673 1.351 . S
C1729 C483 1.380 . S
C1733 N706 1.356 . S
C1747 N739 1.347 . S
C1751 C1044 1.379 . S
C1765 C417 1.376 . S
C1769 N772 1.343 . S
C1783 C648 1.379 . S
C1787 N805 1.356 . S
C1801 N838 1.345 . S
C1805 C21 1.374 . S
C1819 N871 1.344 . S
C1823 C582 1.375 . S
C1837 C87 1.380 . S
C1841 N904 1.351 . S
C1855 C714 1.377 . S
C1859 N937 1.345 . S
C1873 N970 1.345 . S
C1877 C219 1.374 . S
C1891 C780 1.377 . S
C1895 N1003 1.344 . S
C1909 C153 1.379 . S
C1913 N1036 1.357 . S
C1927 C7 1.065 . S
C1931 C205 1.055 . S
C1945 C238 1.056 . S
C1949 C40 1.065 . S
C1963 C73 1.064 . S
C1967 C139 1.054 . S
C1981 C106 1.057 . S
C1985 C172 1.055 . S
C1999 C469 1.062 . S
C2003 C271 1.063 . S
C2017 C502 1.064 . S
C2021 C304 1.062 . S
C2035 C403 1.059 . S
C2039 C337 1.065 . S
C2053 C436 1.053 . S
C2057 C370 1.060 . S
C2071 C535 1.055 . S
C2075 C733 1.058 . S
C2089 C568 1.062 . S
C2093 C766 1.063 . S
C2107 C601 1.059 . S
C2111 C667 1.054 . S
C2125 C634 1.060 . S
C2129 C700 1.054 . S
C2143 C997 1.065 . S
C2147 C799 1.055 . S
C2161 C1030 1.061 . S
C2165 C832 1.053 . S
C2179 C865 1.056 . S
C2183 C931 1.065 . S
C2197 C898 1.065 . S
C2201 C964 1.058 . S
C2215 N2 1.700 . S
C2219 N695 1.699 . S
C2233 N35 1.700 . S
C2237 N728 1.699 . S
C2251 N68 1.696 . S
C2255 N761 1.701 . S
C2269 N101 1.691 . S
C2273 N662 1.698 . S
C2287 N629 1.700 . S
C2291 N134 1.694 . S
C2305 N167 1.691 . S
C2309 N530 1.692 . S
C2323 N563 1.693 . S
C2327 N200 1.691 . S
C2341 N233 1.701 . S
C2345 N596 1.695 . S
C2359 N959 1.698 . S
C2363 N266 1.691 . S
C2377 N299 1.701 . S
C2381 N992 1.695 . S
C2395 N1025 1.690 . S
C2399 N332 1.694 . S
C2413 N365 1.700 . S
C2417 N926 1.697 . S
C2431 N398 1.700 . S
C2435 N893 1.700 . S
C2449 N794 1.691 . S
C2453 N431 1.692 . S
C2467 N464 1.693 . S
C2471 N827 1.700 . S
C2485 N497 1.691 . S
C2489 N860 1.693 . S
