# Generated by pormake.
# Topology snp, (6)-cn, num edge types: 1
# Building blocks:
#     Node 0, Type 0, BuildingBlock: KUMJIN_clean_sbu_0, # of connection points: 6
#     Node 1, Type 0, BuildingBlock: KUMJIN_clean_sbu_0, # of connection points: 6
#     Node 2, Type 0, BuildingBlock: KUMJIN_clean_sbu_0, # of connection points: 6
#     Node 3, Type 0, BuildingBlock: KUMJIN_clean_sbu_0, # of connection points: 6
#     Edge 4, Type (0, 0), BuildingBlock: MIFKUJ_clean_linker_0, # of connection points: 2
#     Edge 5, Type (0, 0), BuildingBlock: MIFKUJ_clean_linker_0, # of connection points: 2
#     Edge 6, Type (0, 0), BuildingBlock: MIFKUJ_clean_linker_0, # of connection points: 2
#     Edge 7, Type (0, 0), BuildingBlock: MIFKUJ_clean_linker_0, # of connection points: 2
#     Edge 8, Type (0, 0), BuildingBlock: MIFKUJ_clean_linker_0, # of connection points: 2
#     Edge 9, Type (0, 0), BuildingBlock: MIFKUJ_clean_linker_0, # of connection points: 2
#     Edge 10, Type (0, 0), BuildingBlock: MIFKUJ_clean_linker_0, # of connection points: 2
#     Edge 11, Type (0, 0), BuildingBlock: MIFKUJ_clean_linker_0, # of connection points: 2
#     Edge 12, Type (0, 0), BuildingBlock: MIFKUJ_clean_linker_0, # of connection points: 2
#     Edge 13, Type (0, 0), BuildingBlock: MIFKUJ_clean_linker_0, # of connection points: 2
#     Edge 14, Type (0, 0), BuildingBlock: MIFKUJ_clean_linker_0, # of connection points: 2
#     Edge 15, Type (0, 0), BuildingBlock: MIFKUJ_clean_linker_0, # of connection points: 2
# Relax obj value: 0.231
# Max RMSD: 0.214
# Mean RMSD: 0.201
data_MOF--net-snp--node1-KUMJIN_clean_sbu_0--edge1-MIFKUJ_clean_linker_0
_symmetry_space_group_name_H-M    P1
_symmetry_Int_Tables_number       1
_symmetry_cell_setting            triclinic
loop_
_symmetry_equiv_pos_as_xyz
'x, y, z'
_cell_length_a     32.260233
_cell_length_b     33.616424
_cell_length_c     39.085813
_cell_angle_alpha  113.391
_cell_angle_beta   105.83516
_cell_angle_gamma 77.073708
loop_
_atom_site_label
_atom_site_type_symbol
_atom_site_fract_x
_atom_site_fract_y
_atom_site_fract_z
_atom_type_partial_charge
Eu0 Eu 0.27411 0.11278 0.09537 0.0
C1 C 0.45443 1.00453 0.11233 0.0
C2 C 0.45909 0.95196 0.04911 0.0
C3 C 0.52497 0.97581 0.09486 0.0
C4 C 0.43422 0.97966 0.07637 0.0
C5 C 0.50011 1.00245 0.12217 0.0
C6 C 0.5045 0.95058 0.05842 0.0
C7 C 0.49334 0.05211 0.18567 0.0
N8 N 0.42934 0.03044 0.13792 0.0
C9 C 0.44815 0.0533 0.17454 0.0
C10 C 0.51943 0.02683 0.15932 0.0
Eu11 Eu 0.35322 0.02798 0.11769 0.0
N12 N 0.39039 0.98099 0.0686 0.0
C13 C 0.36977 0.95328 1.03503 0.0
C14 C 0.43768 0.9256 1.01368 0.0
C15 C 0.39284 0.92592 1.00677 0.0
H16 H 0.42851 0.07275 0.19529 0.0
H17 H 0.37606 0.90487 0.97983 0.0
H18 H 0.52414 0.92956 0.03785 0.0
H19 H 0.50801 0.07068 0.21458 0.0
H20 H 0.33533 0.95236 1.02977 0.0
H21 H 0.37613 0.22389 0.22086 0.0
H22 H 0.45558 0.90407 0.99189 0.0
H23 H 0.17085 0.10273 0.0907 0.0
H24 H 0.36228 0.15498 0.16898 0.0
H25 H 0.1069 0.14919 0.11431 0.0
H26 H 0.56007 0.97404 0.10177 0.0
H27 H 0.31498 0.28088 0.24011 0.0
H28 H 0.2344 0.30269 0.23308 0.0
H29 H 0.55441 0.02606 0.16802 0.0
H30 H 0.1608 0.28233 0.20362 0.0
N31 N 0.29381 0.17339 0.15386 0.0
C32 C 0.33515 0.17997 0.17458 0.0
C33 C 0.30868 0.2508 0.21623 0.0
C34 C 0.26626 0.24217 0.19787 0.0
C35 C 0.34322 0.21887 0.2053 0.0
C36 C 0.25986 0.20222 0.16713 0.0
H37 H 0.11318 0.22406 0.16113 0.0
N38 N 0.21463 0.14941 0.12574 0.0
C39 C 0.13824 0.16102 0.12541 0.0
C40 C 0.21886 0.18983 0.15239 0.0
C41 C 0.17499 0.1345 0.11247 0.0
C42 C 0.1419 0.20327 0.15182 0.0
C43 C 0.18266 0.21794 0.16616 0.0
O44 O 0.21834 0.10065 0.04828 0.0
O45 O 0.31068 0.04744 0.06944 0.0
O46 O 0.3907 0.07522 0.11267 0.0
O47 O 0.33996 0.13247 0.10006 0.0
O48 O 0.30965 0.09356 0.04721 0.0
O49 O 0.24436 0.16171 0.06875 0.0
O50 O 0.36198 1.0073 0.16599 0.0
O51 O 0.29587 0.07787 0.1359 0.0
O52 O 0.23931 0.0555 0.08646 0.0
O53 O 0.29373 0.99627 0.08031 0.0
O54 O 0.35037 0.07782 0.17769 0.0
O55 O 0.35312 0.95969 0.10886 0.0
C56 C 0.32161 0.05284 0.04283 0.0
C57 C 0.21445 0.13115 1.00227 0.0
C58 C 0.21622 0.16162 0.95571 0.0
C59 C 0.219 0.1665 0.99358 0.0
C60 C 0.2092 0.12131 0.92639 0.0
C61 C 0.20599 0.09125 0.9723 0.0
C62 C 0.20402 0.08628 0.93473 0.0
C63 C 0.38053 0.11219 0.10558 0.0
C64 C 0.21735 0.13621 0.04221 0.0
C65 C 0.18837 0.25953 0.19393 0.0
C66 C 0.23021 0.27137 0.21027 0.0
C67 C 0.31051 0.09491 0.17122 0.0
C68 C 0.39454 0.9351 0.15835 0.0
C69 C 0.38632 0.9199 0.18408 0.0
C70 C 0.4166 0.88889 0.19664 0.0
C71 C 0.45562 0.87347 0.18335 0.0
C72 C 0.43375 0.91976 0.14547 0.0
C73 C 0.4642 0.88913 0.15808 0.0
C74 C 0.25234 0.01277 0.07692 0.0
C75 C 0.36116 0.96622 0.14498 0.0
H76 H 0.22434 0.19783 1.0161 0.0
H77 H 0.20699 0.11724 0.89704 0.0
H78 H 0.20068 0.06386 0.97778 0.0
H79 H 0.19802 0.05532 0.91198 0.0
H80 H 0.35571 0.93142 0.19358 0.0
H81 H 0.47947 0.84954 0.19264 0.0
H82 H 0.44062 0.93103 0.1255 0.0
H83 H 0.49436 0.87724 0.14801 0.0
Eu84 Eu 0.04685 0.28333 0.53924 0.0
C85 C 0.22899 0.27094 0.54413 0.0
C86 C 0.27638 0.2157 0.56685 0.0
C87 C 0.29227 0.23152 0.51673 0.0
C88 C 0.23909 0.2473 0.56796 0.0
C89 C 0.25621 0.26401 0.5189 0.0
C90 C 0.3021 0.20708 0.54037 0.0
C91 C 0.2142 0.32611 0.50391 0.0
N92 N 0.19482 0.30325 0.54786 0.0
C93 C 0.18819 0.33179 0.52927 0.0
C94 C 0.24788 0.29156 0.49815 0.0
Eu95 Eu 0.15403 0.31343 0.59356 0.0
N96 N 0.21514 0.25824 0.59479 0.0
C97 C 0.22964 0.24194 0.62368 0.0
C98 C 0.28842 0.19569 0.59402 0.0
C99 C 0.26537 0.20949 0.62301 0.0
H100 H 0.16257 0.35886 0.53325 0.0
H101 H 0.27557 0.19578 0.64526 0.0
H102 H 0.3309 0.18311 0.53929 0.0
H103 H 0.20812 0.34833 0.48873 0.0
H104 H 0.21324 0.25377 0.64722 0.0
H105 H 0.95228 0.42368 0.62837 0.0
H106 H 0.31673 0.17123 0.59401 0.0
H107 H 0.03669 0.17701 0.50752 0.0
H108 H 0.01537 0.38468 0.59945 0.0
H109 H 0.98458 0.13035 0.50308 0.0
H110 H 0.31383 0.22638 0.49802 0.0
H111 H 0.89261 0.38382 0.6205 0.0
H112 H 0.86334 0.31213 0.59662 0.0
H113 H 0.26806 0.28728 0.47855 0.0
H114 H 0.87287 0.2323 0.56396 0.0
N115 N 0.99164 0.32288 0.57429 0.0
C116 C 0.98954 0.36663 0.59522 0.0
C117 C 0.92032 0.36631 0.60768 0.0
C118 C 0.92335 0.32123 0.58749 0.0
C119 C 0.95388 0.38896 0.61205 0.0
C120 C 0.95972 0.30023 0.57067 0.0
H121 H 0.91837 0.16415 0.52968 0.0
N122 N 1.00123 0.2362 0.5378 0.0
C123 C 0.97868 0.16546 0.51703 0.0
C124 C 0.96498 0.25536 0.55224 0.0
C125 C 1.00823 0.19188 0.51982 0.0
C126 C 0.94131 0.18468 0.53201 0.0
C127 C 0.93405 0.23015 0.5499 0.0
O128 O 1.01263 0.24829 0.48161 0.0
O129 O 0.11491 0.285 0.53389 0.0
O130 O 0.11736 0.36875 0.57473 0.0
O131 O 0.04697 0.35303 0.54411 0.0
O132 O 0.09032 0.22605 0.50619 0.0
O133 O 0.01395 0.31785 0.50052 0.0
O134 O 0.16853 0.38067 0.61576 0.0
O135 O 0.08493 0.31674 0.59712 0.0
O136 O 0.07202 0.23994 0.57412 0.0
O137 O 0.14532 0.24987 0.59754 0.0
O138 O 0.12875 0.33057 0.64749 0.0
O139 O 0.20578 0.33589 0.64332 0.0
C140 C 0.12241 0.24594 0.51098 0.0
C141 C 0.95059 0.29147 0.45866 0.0
C142 C 0.89189 0.32954 0.42384 0.0
C143 C 0.93599 0.32212 0.44059 0.0
C144 C 0.86209 0.30722 0.42742 0.0
C145 C 0.92047 0.26935 0.46172 0.0
C146 C 0.87637 0.27766 0.44652 0.0
C147 C 0.07762 0.37881 0.55747 0.0
C148 C 0.99736 0.28392 0.47417 0.0
C149 C 0.89716 0.25104 0.56567 0.0
C150 C 0.89174 0.29651 0.58429 0.0
C151 C 0.08826 0.32656 0.63299 0.0
C152 C 0.19003 0.40995 0.68282 0.0
C153 C 0.19646 0.39823 0.7148 0.0
C154 C 0.18773 0.42955 0.74942 0.0
C155 C 0.17271 0.47299 0.75237 0.0
C156 C 0.176 0.45388 0.68639 0.0
C157 C 0.16727 0.48513 0.72096 0.0
C158 C 0.1111 0.23171 0.59391 0.0
C159 C 0.19652 0.37649 0.64558 0.0
H160 H 0.95947 0.33967 0.43913 0.0
H161 H 0.82801 0.31122 0.41429 0.0
H162 H 0.93089 0.24554 0.47552 0.0
H163 H 0.85328 0.26033 0.44876 0.0
H164 H 0.20747 0.36459 0.71282 0.0
H165 H 0.16569 0.49742 0.77896 0.0
H166 H 0.17138 0.46398 0.66237 0.0
H167 H 0.15608 0.51879 0.72334 0.0
Eu168 Eu 0.85957 0.18706 1.0211 0.0
C169 C 0.82449 0.02566 1.02235 0.0
C170 C 0.75756 0.02884 0.04071 0.0
C171 C 0.78069 0.96598 0.98834 0.0
C172 C 0.7944 0.04776 0.04507 0.0
C173 C 0.81876 0.98378 0.99463 0.0
C174 C 0.75009 0.98851 1.01134 0.0
C175 C 0.89117 0.97778 0.98518 0.0
N176 N 0.86122 0.04345 1.02963 0.0
C177 C 0.89528 0.01942 1.0131 0.0
C178 C 0.85233 0.96027 0.97533 0.0
Eu179 Eu 0.8646 0.11516 0.07497 0.0
N180 N 0.80323 0.08607 0.07368 0.0
C181 C 0.77918 0.10478 0.10147 0.0
C182 C 0.73047 0.05007 0.06705 0.0
C183 C 0.74181 0.08778 0.09799 0.0
H184 H 0.92525 0.03273 1.02098 0.0
H185 H 0.72183 0.10375 0.11915 0.0
H186 H 0.72166 0.97369 1.00717 0.0
H187 H 0.91781 0.95942 0.97114 0.0
H188 H 0.78777 0.13411 0.12524 0.0
H189 H 1.00078 0.25876 0.12334 0.0
H190 H 0.70171 0.03672 0.06458 0.0
H191 H 0.76338 0.23754 0.98909 0.0
H192 H 0.95993 0.19992 0.07534 0.0
H193 H 0.72259 0.31186 1.00395 0.0
H194 H 0.77541 0.9341 0.96676 0.0
H195 H 0.96471 0.33511 0.14314 0.0
H196 H 0.89751 0.38841 0.13654 0.0
H197 H 0.84912 0.92801 0.9539 0.0
H198 H 0.82154 0.40264 0.10497 0.0
N199 N 0.90069 0.2417 0.06865 0.0
C200 C 0.9435 0.23274 0.08398 0.0
C201 C 0.94654 0.30926 0.12204 0.0
C202 C 0.90301 0.31848 0.10543 0.0
C203 C 0.96695 0.26621 0.11104 0.0
C204 C 0.88081 0.2836 0.07811 0.0
H205 H 0.75608 0.37438 0.05563 0.0
N206 N 0.81805 0.25733 1.03385 0.0
C207 C 0.75483 0.30657 1.02044 0.0
C208 C 0.83796 0.29155 0.06066 0.0
C209 C 0.77787 0.26452 1.01236 0.0
C210 C 0.77387 0.34177 0.04958 0.0
C211 C 0.81625 0.33467 0.0696 0.0
O212 O 0.84274 0.19672 0.96588 0.0
O213 O 0.85978 0.11794 1.01676 0.0
O214 O 0.93127 0.12378 0.07255 0.0
O215 O 0.92011 0.13672 1.01691 0.0
O216 O 0.81221 0.14177 0.97877 0.0
O217 O 0.90943 0.18797 0.99248 0.0
O218 O 0.91696 0.07183 0.09753 0.0
O219 O 0.87403 0.18125 0.07858 0.0
O220 O 0.79067 0.19393 1.03195 0.0
O221 O 0.79381 0.13992 0.05727 0.0
O222 O 0.84174 0.17835 0.11762 0.0
O223 O 0.87996 0.12218 0.13549 0.0
C224 C 0.82833 0.10773 0.98821 0.0
C225 C 0.89177 0.23146 0.9533 0.0
C226 C 0.92039 0.25778 0.91387 0.0
C227 C 0.91038 0.22277 0.92117 0.0
C228 C 0.91079 0.30071 0.93876 0.0
C229 C 0.88288 0.27507 0.97682 0.0
C230 C 0.89216 0.30917 0.96961 0.0
C231 C 0.94468 0.12015 0.04239 0.0
C232 C 0.88255 0.19614 0.96378 0.0
C233 C 0.83782 0.36936 0.09748 0.0
C234 C 0.88112 0.36128 0.11535 0.0
C235 C 0.85437 0.20351 0.10579 0.0
C236 C 0.90713 0.0571 0.14971 0.0
C237 C 0.93298 0.05712 0.18588 0.0
C238 C 0.92787 0.0275 0.202 0.0
C239 C 0.89726 0.99805 0.18101 0.0
C240 C 0.87753 0.02664 0.12999 0.0
C241 C 0.87269 0.99752 0.14547 0.0
C242 C 0.77269 0.17136 0.04433 0.0
C243 C 0.90991 0.08853 0.1321 0.0
H244 H 0.91772 0.18933 0.90263 0.0
H245 H 0.91756 0.32817 0.93418 0.0
H246 H 0.86884 0.28293 1.00111 0.0
H247 H 0.88502 0.34258 0.98828 0.0
H248 H 0.95622 0.08023 0.20146 0.0
H249 H 0.8927 0.97471 0.19198 0.0
H250 H 0.85806 0.02521 0.10233 0.0
H251 H 0.84963 0.97426 0.12974 0.0
Eu252 Eu 0.08324 0.8952 0.57632 0.0
C253 C 0.2568 0.8211 0.64189 0.0
C254 C 0.31669 0.86337 0.662 0.0
C255 C 0.31537 0.81629 0.69529 0.0
C256 C 0.27661 0.85116 0.63794 0.0
C257 C 0.27667 0.80248 0.67003 0.0
C258 C 0.33532 0.84669 0.6913 0.0
C259 C 0.21983 0.75618 0.64501 0.0
N260 N 0.21918 0.80858 0.61725 0.0
C261 C 0.20115 0.77577 0.61779 0.0
C262 C 0.25751 0.76989 0.6715 0.0
Eu263 Eu 0.19298 0.83917 0.56913 0.0
N264 N 0.25828 0.86616 0.60897 0.0
C265 C 0.28019 0.89044 0.6005 0.0
C266 C 0.33782 0.89054 0.65491 0.0
C267 C 0.31964 0.90386 0.62383 0.0
H268 H 0.1722 0.76466 0.59756 0.0
H269 H 0.33625 0.92399 0.61755 0.0
H270 H 0.36579 0.85616 0.71035 0.0
H271 H 0.20489 0.73082 0.64577 0.0
H272 H 0.26651 0.90016 0.57601 0.0
H273 H 0.99864 0.81884 0.43018 0.0
H274 H 0.36878 0.90038 0.6726 0.0
H275 H 0.07573 1.001 0.63257 0.0
H276 H 0.04544 0.82122 0.49249 0.0
H277 H 0.04567 0.07319 0.62716 0.0
H278 H 0.33068 0.80285 0.71743 0.0
H279 H 0.96877 0.88759 0.41793 0.0
H280 H 0.96178 0.96973 0.44203 0.0
H281 H 0.27178 0.7548 0.69266 0.0
H282 H 0.97582 0.03895 0.49527 0.0
N283 N 0.04185 0.89043 0.51516 0.0
C284 C 0.03239 0.85135 0.48746 0.0
C285 C 0.98899 0.8888 0.44538 0.0
C286 C 0.99825 0.9288 0.47421 0.0
C287 C 1.00581 0.84992 0.45219 0.0
C288 C 0.0246 0.92853 0.50946 0.0
H289 H 1.00673 0.07795 0.56459 0.0
N290 N 0.05556 0.96559 0.57344 0.0
C291 C 0.04197 0.04373 0.60216 0.0
C292 C 0.03222 0.96735 0.53941 0.0
C293 C 0.0589 1.00286 0.60513 0.0
C294 C 0.02004 0.04626 0.56679 0.0
C295 C 0.0141 1.00774 0.53499 0.0
O296 O 0.04565 0.92074 0.62112 0.0
O297 O 0.14381 0.86411 0.60733 0.0
O298 O 0.14743 0.78753 0.54184 0.0
O299 O 0.08217 0.82289 0.56023 0.0
O300 O 0.11196 0.92407 0.63829 0.0
O301 O 0.02262 0.8705 0.56766 0.0
O302 O 0.21854 0.77052 0.54367 0.0
O303 O 0.12865 0.86084 0.53615 0.0
O304 O 0.1282 0.94367 0.585 0.0
O305 O 0.19737 0.91011 0.60444 0.0
O306 O 0.18447 0.87352 0.52737 0.0
O307 O 0.23903 0.81995 0.53186 0.0
C308 C 0.14401 0.89391 0.64075 0.0
C309 C 0.97018 0.91783 0.60295 0.0
C310 C 0.91069 0.94057 0.63692 0.0
C311 C 0.95311 0.92015 0.63309 0.0
C312 C 0.8852 0.95814 0.60949 0.0
C313 C 0.94462 0.93583 0.57599 0.0
C314 C 0.90218 0.95576 0.57926 0.0
C315 C 0.10792 0.78728 0.54514 0.0
C316 C 0.01486 0.89662 0.60092 0.0
C317 C 0.98958 0.00828 0.49939 0.0
C318 C 0.98152 0.96886 0.4691 0.0
C319 C 0.1427 0.87687 0.51746 0.0
C320 C 0.2375 0.74954 0.48348 0.0
C321 C 0.25519 0.76054 0.45982 0.0
C322 C 0.25509 0.73284 0.42179 0.0
C323 C 0.23641 0.69389 0.40742 0.0
C324 C 0.21964 0.7101 0.46873 0.0
C325 C 0.21883 0.6827 0.43082 0.0
C326 C 0.17012 0.94466 0.60129 0.0
C327 C 0.24035 0.77824 0.52388 0.0
H328 H 0.97302 0.90574 0.65358 0.0
H329 H 0.85255 0.97446 0.61181 0.0
H330 H 0.95737 0.93446 0.55258 0.0
H331 H 0.88248 0.96969 0.55845 0.0
H332 H 0.26906 0.79088 0.47108 0.0
H333 H 0.23616 0.67166 0.37835 0.0
H334 H 0.20672 0.70017 0.48649 0.0
H335 H 0.205 0.65239 0.41966 0.0
H336 H 0.96409 0.07441 0.97165 0.0
H337 H 0.99504 0.99857 0.9529 0.0
H338 H 0.05296 0.01842 0.07147 0.0
H339 H 1.01155 0.09014 0.08988 0.0
H340 H 0.03937 0.93919 0.9403 0.0
H341 H 0.09493 0.94586 0.10403 0.0
H342 H 0.05524 0.96117 0.15435 0.0
H343 H 0.93398 0.9571 0.07371 0.0
H344 H 0.97295 0.94039 1.02253 0.0
H345 H 0.25512 0.93065 0.07654 0.0
H346 H 0.20043 0.88022 0.04031 0.0
H347 H 0.12636 0.97478 0.98977 0.0
H348 H 0.17882 0.02474 1.02686 0.0
H349 H 0.11682 0.89409 0.04935 0.0
H350 H 0.13003 0.8153 0.93879 0.0
H351 H 0.14908 0.7706 0.87647 0.0
H352 H 0.10666 0.88084 0.84038 0.0
H353 H 0.08825 0.92656 0.90258 0.0
C354 C 0.98192 0.06162 0.99367 0.0
C355 C 0.98169 0.08644 1.03213 0.0
C356 C 1.00039 0.01787 0.98296 0.0
C357 C 0.02342 0.99975 1.01081 0.0
C358 C 0.03109 0.0285 0.04916 0.0
C359 C 1.00916 0.07078 0.05984 0.0
C360 C 0.04387 0.95297 1.00033 0.0
C361 C 0.05629 0.93081 0.96488 0.0
C362 C 0.06013 0.93282 1.0281 0.0
C363 C 0.037 0.94157 0.0591 0.0
C364 C 0.05989 0.94736 0.09668 0.0
C365 C 0.03747 0.95652 0.1255 0.0
C366 C 0.99216 0.95997 0.11722 0.0
C367 C 0.9691 0.95437 0.08011 0.0
C368 C 0.99134 0.94508 0.05118 0.0
C369 C 0.22693 0.94022 0.05751 0.0
C370 C 0.22025 0.98203 0.05528 0.0
C371 C 0.19622 0.91111 1.03636 0.0
C372 C 0.15925 0.92285 1.01168 0.0
C373 C 0.15446 0.96387 1.00797 0.0
C374 C 0.18414 0.99323 1.02992 0.0
C375 C 0.12103 0.89846 0.997 0.0
C376 C 0.0996 0.90467 1.02582 0.0
C377 C 0.09395 0.90021 0.96246 0.0
C378 C 0.10746 0.87442 0.92559 0.0
C379 C 0.12504 0.8302 0.91773 0.0
C380 C 0.13564 0.8046 0.8823 0.0
C381 C 0.12888 0.82281 0.85441 0.0
C382 C 0.11161 0.8667 0.86193 0.0
C383 C 0.10104 0.89251 0.89733 0.0
H384 H 0.1372 0.80298 0.82704 0.0
H385 H 0.97497 0.96691 0.13956 0.0
H386 H 0.1421 0.01991 0.587 0.0
H387 H 0.13837 0.09158 0.63681 0.0
H388 H 0.22123 0.03769 0.71927 0.0
H389 H 0.23003 0.96652 0.66813 0.0
H390 H 0.09909 0.07785 0.6945 0.0
H391 H 0.22778 0.1764 0.80318 0.0
H392 H 0.30663 0.18012 0.82052 0.0
H393 H 0.31454 0.11989 0.70255 0.0
H394 H 0.23573 0.11719 0.68442 0.0
H395 H 0.14849 0.26685 0.66783 0.0
H396 H 0.13673 0.25549 0.72078 0.0
H397 H 0.06758 0.14652 0.64311 0.0
H398 H 0.07208 0.16448 0.58972 0.0
H399 H 0.16556 0.21378 0.75542 0.0
H400 H 0.02114 0.2084 0.69222 0.0
H401 H 0.94326 0.2119 0.68516 0.0
H402 H 0.96411 0.10023 0.71778 0.0
H403 H 0.04262 0.09564 0.72529 0.0
C404 C 0.16179 0.02385 0.61517 0.0
C405 C 0.18412 0.98762 0.62447 0.0
C406 C 0.15943 0.06468 0.64374 0.0
C407 C 0.17792 0.06904 0.68183 0.0
C408 C 0.2064 0.03458 0.69009 0.0
C409 C 0.21093 0.99401 0.66084 0.0
C410 C 0.15873 0.10573 0.7112 0.0
C411 C 0.11376 0.10787 0.70771 0.0
C412 C 0.17837 0.14413 0.73259 0.0
C413 C 0.226 0.1448 0.7426 0.0
C414 C 0.24639 0.1637 0.78095 0.0
C415 C 0.29107 0.16589 0.7909 0.0
C416 C 0.31572 0.14948 0.7627 0.0
C417 C 0.29556 0.13173 0.72443 0.0
C418 C 0.25084 0.12971 0.71431 0.0
C419 C 0.13079 0.24034 0.66176 0.0
C420 C 0.11243 0.21562 0.62425 0.0
C421 C 0.12388 0.23388 0.69255 0.0
C422 C 0.10263 0.19906 0.68711 0.0
C423 C 0.0842 0.1739 0.64922 0.0
C424 C 0.08792 0.18305 0.61825 0.0
C425 C 0.10794 0.18425 0.71984 0.0
C426 C 0.15087 0.18387 0.7413 0.0
C427 C 0.08723 0.14833 0.71358 0.0
C428 C 0.03902 0.15101 0.7084 0.0
C429 C 1.00988 0.18417 0.69773 0.0
C430 C 0.96513 0.1865 0.69376 0.0
C431 C 0.94862 0.15628 0.70091 0.0
C432 C 0.97688 0.12348 0.7119 0.0
C433 C 0.02167 0.12079 0.71567 0.0
H434 H 0.91395 0.15836 0.69804 0.0
H435 H 0.35033 0.15113 0.77047 0.0
H436 H 0.70255 0.15245 0.98508 0.0
H437 H 0.62798 0.15258 0.99014 0.0
H438 H 0.66531 0.2082 0.11251 0.0
H439 H 0.73913 0.20835 0.10725 0.0
H440 H 0.60322 0.10729 1.02186 0.0
H441 H 0.58063 0.26586 0.15274 0.0
H442 H 0.60151 0.34022 0.18049 0.0
H443 H 0.60901 0.33267 0.07004 0.0
H444 H 0.58747 0.25857 0.0415 0.0
H445 H 0.46813 0.09063 0.12667 0.0
H446 H 0.52687 0.10998 0.11096 0.0
H447 H 0.43472 0.19405 0.05838 0.0
H448 H 0.37499 0.17359 0.07334 0.0
H449 H 0.51459 0.23004 0.10357 0.0
H450 H 0.46834 0.10155 1.00139 0.0
H451 H 0.44721 0.02727 0.97285 0.0
H452 H 0.57401 0.9765 1.02116 0.0
H453 H 0.59575 0.05062 0.0505 0.0
C454 C 0.69412 0.16636 1.01287 0.0
C455 C 0.72608 0.18169 0.04579 0.0
C456 C 0.65175 0.16586 1.01584 0.0
C457 C 0.64065 0.18083 0.05178 0.0
C458 C 0.6725 0.1974 0.08449 0.0
C459 C 0.71465 0.19772 0.08149 0.0
C460 C 0.59724 0.17605 0.05571 0.0
C461 C 0.58372 0.13432 0.0394 0.0
C462 C 0.57122 0.21126 0.07833 0.0
C463 C 0.58265 0.25649 0.09502 0.0
C464 C 0.5863 0.28021 0.13429 0.0
C465 C 0.59833 0.3223 0.15018 0.0
C466 C 0.60667 0.34112 0.12706 0.0
C467 C 0.60269 0.318 0.08795 0.0
C468 C 0.59058 0.27594 0.0719 0.0
C469 C 0.46003 0.1131 0.11175 0.0
C470 C 0.41649 0.1297 0.10077 0.0
C471 C 0.49388 0.1244 0.10289 0.0
C472 C 0.48532 0.15302 0.08297 0.0
C473 C 0.44218 0.17176 0.07367 0.0
C474 C 0.40804 0.16007 0.08233 0.0
C475 C 0.52155 0.1612 0.07057 0.0
C476 C 0.53381 0.20334 0.08549 0.0
C477 C 0.54624 0.12652 0.04637 0.0
C478 C 0.53361 0.08172 1.02829 0.0
C479 C 0.49166 0.07459 1.00612 0.0
C480 C 0.47956 0.03252 0.98979 0.0
C481 C 0.50925 0.99721 0.99517 0.0
C482 C 0.55109 1.0039 1.01694 0.0
C483 C 0.56333 0.04593 1.0334 0.0
H484 H 0.49984 0.96465 0.98244 0.0
H485 H 0.61616 0.37363 0.13945 0.0
H486 H 0.11212 0.45279 0.60487 0.0
H487 H 0.10736 0.51956 0.59294 0.0
H488 H 0.01936 0.46802 0.48545 0.0
H489 H 0.02357 0.40075 0.49779 0.0
H490 H 0.13454 0.52615 0.53776 0.0
H491 H 0.95979 0.55651 0.46158 0.0
H492 H 0.88675 0.54028 0.45598 0.0
H493 H 0.92228 0.54158 0.57056 0.0
H494 H 0.99537 0.55816 0.57694 0.0
H495 H 0.13098 0.7092 0.491 0.0
H496 H 0.11482 0.63698 0.48065 0.0
H497 H 0.03789 0.69635 0.56735 0.0
H498 H 0.05237 0.7685 0.57642 0.0
H499 H 1.00272 0.62857 0.51446 0.0
H500 H 0.1526 0.65412 0.58468 0.0
H501 H 0.22633 0.66871 0.5901 0.0
H502 H 0.2415 0.55523 0.49033 0.0
H503 H 0.16787 0.54 0.48409 0.0
C504 C 0.09133 0.45578 0.57887 0.0
C505 C 0.0685 0.42139 0.55216 0.0
C506 C 0.08871 0.49399 0.57201 0.0
C507 C 0.06336 0.49882 0.53814 0.0
C508 C 0.03897 0.46523 0.51192 0.0
C509 C 0.04127 0.42687 0.51903 0.0
C510 C 0.06477 0.53834 0.53027 0.0
C511 C 0.10562 0.54839 0.53246 0.0
C512 C 0.02715 0.56711 0.5227 0.0
C513 C 0.98308 0.55822 0.5196 0.0
C514 C 0.95191 0.55353 0.48562 0.0
C515 C 0.91055 0.54421 0.48229 0.0
C516 C 0.89993 0.5398 0.51285 0.0
C517 C 0.93059 0.54487 0.54687 0.0
C518 C 0.972 0.55418 0.55035 0.0
C519 C 0.11016 0.70679 0.50743 0.0
C520 C 0.09349 0.74441 0.5349 0.0
C521 C 0.10094 0.66551 0.50155 0.0
C522 C 0.07604 0.66093 0.52394 0.0
C523 C 0.0573 0.69881 0.54977 0.0
C524 C 0.0657 0.74013 0.55502 0.0
C525 C 0.07269 0.61709 0.52334 0.0
C526 C 0.03156 0.60605 0.51929 0.0
C527 C 0.11013 0.58727 0.52934 0.0
C528 C 0.15465 0.59616 0.53373 0.0
C529 C 0.17164 0.63237 0.56386 0.0
C530 C 0.21335 0.64078 0.56706 0.0
C531 C 0.23843 0.61309 0.54054 0.0
C532 C 0.22199 0.57672 0.51082 0.0
C533 C 0.18033 0.56814 0.50745 0.0
H534 H 0.27067 0.61975 0.54307 0.0
H535 H 0.86791 0.53253 0.5102 0.0
H536 H 0.16344 0.16489 0.47567 0.0
H537 H 0.18995 0.13772 0.4167 0.0
H538 H 0.15962 0.26761 0.41231 0.0
H539 H 0.12706 0.29252 0.46802 0.0
H540 H 0.14364 0.2249 0.34804 0.0
H541 H 0.28929 0.18651 0.42982 0.0
H542 H 0.33691 0.14668 0.47072 0.0
H543 H 0.28182 0.02918 0.39656 0.0
H544 H 0.23532 0.06779 0.35463 0.0
H545 H 0.34098 0.14313 0.24515 0.0
H546 H 0.30549 0.1696 0.29949 0.0
H547 H 0.18774 0.12167 0.22423 0.0
H548 H 0.22348 0.09506 0.16959 0.0
H549 H 0.275 0.1177 0.32391 0.0
H550 H 0.11961 0.1616 0.2498 0.0
H551 H 0.07139 0.2032 0.21094 0.0
H552 H 0.1455 0.31097 0.27261 0.0
H553 H 0.19483 0.26934 0.3109 0.0
C554 C 0.16324 0.18782 0.46246 0.0
C555 C 0.14544 0.23178 0.47834 0.0
C556 C 0.17926 0.17228 0.42854 0.0
C557 C 0.17925 0.20035 0.40948 0.0
C558 C 0.16098 0.2444 0.42554 0.0
C559 C 0.14331 0.25936 0.45851 0.0
C560 C 0.1953 0.18427 0.37205 0.0
C561 C 0.17278 0.20173 0.34355 0.0
C562 C 0.23225 0.15247 0.36359 0.0
C563 C 0.25829 0.13024 0.38983 0.0
C564 C 0.28706 0.15237 0.42271 0.0
C565 C 0.31394 0.12998 0.44587 0.0
C566 C 0.31177 0.08575 0.43666 0.0
C567 C 0.28322 0.06353 0.40389 0.0
C568 C 0.25687 0.08553 0.38028 0.0
C569 C 0.30716 0.13907 0.23993 0.0
C570 C 0.28512 0.11738 0.20262 0.0
C571 C 0.28678 0.15422 0.27124 0.0
C572 C 0.24341 0.14841 0.26662 0.0
C573 C 0.2207 0.12796 0.2291 0.0
C574 C 0.24125 0.11266 0.19758 0.0
C575 C 0.22441 0.15992 0.30149 0.0
C576 C 0.24622 0.14128 0.32913 0.0
C577 C 0.1866 0.19006 0.30895 0.0
C578 C 0.16134 0.21209 0.28242 0.0
C579 C 0.12616 0.19374 0.25431 0.0
C580 C 0.0985 0.2174 0.2326 0.0
C581 C 0.10533 0.25974 0.23937 0.0
C582 C 0.14029 0.27816 0.26736 0.0
C583 C 0.16839 0.25438 0.28874 0.0
H584 H 0.0836 0.27823 0.22285 0.0
H585 H 0.33253 0.0686 0.45472 0.0
H586 H 0.02355 0.27223 0.61663 0.0
H587 H 0.9904 0.26275 0.66115 0.0
H588 H 0.06415 0.35798 0.75359 0.0
H589 H 0.09362 0.37103 0.70819 0.0
H590 H 0.07436 0.27198 0.76 0.0
H591 H 0.96334 0.38446 0.73769 0.0
H592 H 0.90471 0.42118 0.70076 0.0
H593 H 0.8311 0.31407 0.66202 0.0
H594 H 0.88944 0.27646 0.69842 0.0
H595 H 0.99704 0.28372 0.9189 0.0
H596 H 0.02311 0.2919 0.86917 0.0
H597 H 0.91534 0.23172 0.7854 0.0
H598 H 0.88897 0.22387 0.83569 0.0
H599 H 0.92094 0.29931 0.77245 0.0
H600 H 0.02279 0.18607 0.79289 0.0
H601 H 0.08096 0.13699 0.81714 0.0
H602 H 0.17235 0.22537 0.8442 0.0
H603 H 0.11439 0.27677 0.82275 0.0
C604 C 0.03031 0.29379 0.64553 0.0
C605 C 0.05981 0.32431 0.65744 0.0
C606 C 1.01216 0.28726 0.67174 0.0
C607 C 0.02445 0.30957 0.71127 0.0
C608 C 0.05357 0.34031 0.72345 0.0
C609 C 0.0703 0.34791 0.6971 0.0
C610 C 1.00992 0.29854 0.73994 0.0
C611 C 0.04097 0.27848 0.76328 0.0
C612 C 0.96591 0.3052 0.74306 0.0
C613 C 0.93122 0.32723 0.72032 0.0
C614 C 0.93498 0.36838 0.72086 0.0
C615 C 0.90161 0.38953 0.70024 0.0
C616 C 0.86419 0.36999 0.6791 0.0
C617 C 0.8601 0.32919 0.67845 0.0
C618 C 0.89334 0.30793 0.69906 0.0
C619 C 0.97948 0.27102 0.88971 0.0
C620 C 0.94113 0.2524 0.88153 0.0
C621 C 0.99443 0.2759 0.86105 0.0
C622 C 0.97154 0.26262 0.82288 0.0
C623 C 0.9339 0.24261 0.81436 0.0
C624 C 0.91905 0.23744 0.84316 0.0
C625 C 0.98555 0.27202 0.79284 0.0
C626 C 0.9545 0.29229 0.76942 0.0
C627 C 0.02953 0.26375 0.78851 0.0
C628 C 0.06362 0.23586 0.8065 0.0
C629 C 0.05488 0.19602 0.80524 0.0
C630 C 0.08798 0.16767 0.81854 0.0
C631 C 0.13028 0.17837 0.83275 0.0
C632 C 0.13943 0.21761 0.83399 0.0
C633 C 0.10635 0.24653 0.82147 0.0
H634 H 0.15604 0.15612 0.84253 0.0
H635 H 0.83839 0.38642 0.66314 0.0
H636 H 0.10049 0.83518 0.44445 0.0
H637 H 0.06638 0.86563 0.3943 0.0
H638 H 0.10166 0.99215 0.47181 0.0
H639 H 0.13391 0.96173 0.52218 0.0
H640 H 0.02955 0.00834 0.43349 0.0
H641 H 0.15604 0.91401 0.39148 0.0
H642 H 0.20583 0.84529 0.3721 0.0
H643 H 0.10272 0.78408 0.28332 0.0
H644 H 0.0523 0.85216 0.30234 0.0
H645 H 0.01712 0.01454 0.22773 0.0
H646 H 0.05635 0.99649 0.28443 0.0
H647 H 0.93479 0.01372 0.31774 0.0
H648 H 0.89603 0.03211 0.26175 0.0
H649 H 0.05576 0.93047 0.30238 0.0
H650 H 0.94829 0.03624 0.41372 0.0
H651 H 0.90756 0.11009 0.43515 0.0
H652 H 0.98507 0.15673 0.389 0.0
H653 H 0.02657 0.08325 0.36755 0.0
C654 C 0.09991 0.86975 0.45101 0.0
C655 C 0.118 0.89641 0.48801 0.0
C656 C 0.08121 0.88715 0.42192 0.0
C657 C 0.08148 0.93156 0.42839 0.0
C658 C 0.10025 0.958 0.46545 0.0
C659 C 0.11867 0.94059 0.49454 0.0
C660 C 0.06231 0.95049 0.39699 0.0
C661 C 0.03534 0.991 0.40485 0.0
C662 C 0.07019 0.92921 0.35935 0.0
C663 C 0.10034 0.88806 0.34853 0.0
C664 C 0.14394 0.88577 0.36803 0.0
C665 C 0.17228 0.84697 0.35706 0.0
C666 C 0.15736 0.8104 0.32654 0.0
C667 C 0.11416 0.81246 0.30696 0.0
C668 C 0.08574 0.85112 0.31778 0.0
C669 C 0.99895 0.01583 0.2478 0.0
C670 C 0.9533 0.02536 0.24014 0.0
C671 C 0.02138 1.00493 0.28015 0.0
C672 C 0.99896 1.00371 0.30613 0.0
C673 C 0.9535 0.01492 0.29908 0.0
C674 C 0.93117 0.02546 0.26676 0.0
C675 C 0.02223 0.9877 0.3387 0.0
C676 C 0.04993 0.94773 0.33103 0.0
C677 C 0.01571 0.00995 0.37668 0.0
C678 C 0.99014 0.05399 0.38851 0.0
C679 C 0.95659 0.06219 0.40803 0.0
C680 C 0.93335 0.10399 0.42017 0.0
C681 C 0.94355 0.13798 0.41322 0.0
C682 C 0.97703 0.13027 0.39412 0.0
C683 C 1.00031 0.0885 0.38183 0.0
H684 H 0.92557 0.1703 0.42271 0.0
H685 H 0.17918 0.78045 0.31787 0.0
H686 H 0.16362 0.97035 0.69466 0.0
H687 H 0.20126 0.98725 0.75997 0.0
H688 H 0.22465 0.85005 0.74334 0.0
H689 H 0.1792 0.83533 0.67921 0.0
H690 H 0.22231 0.88086 0.80777 0.0
H691 H 0.30771 0.9275 0.75462 0.0
H692 H 0.33147 0.96399 0.72085 0.0
H693 H 0.28811 0.08919 0.79804 0.0
H694 H 0.26267 0.05402 0.83132 0.0
H695 H 0.37388 0.03233 0.99206 0.0
H696 H 0.35611 0.99343 0.92278 0.0
H697 H 0.23334 0.97337 0.93335 0.0
H698 H 0.25332 1.0077 1.00206 0.0
H699 H 0.30319 0.00923 0.87047 0.0
H700 H 0.19115 0.90619 0.88024 0.0
H701 H 0.1962 0.868 0.92411 0.0
H702 H 0.3335 0.83442 0.93051 0.0
H703 H 0.32991 0.87491 0.88892 0.0
C704 C 0.17907 0.94329 0.70395 0.0
C705 C 0.17434 0.90003 0.67888 0.0
C706 C 0.20079 0.95314 0.74205 0.0
C707 C 0.2199 0.92001 0.7571 0.0
C708 C 0.21273 0.87673 0.73287 0.0
C709 C 0.1887 0.8674 0.69496 0.0
C710 C 0.2441 0.93158 0.79847 0.0
C711 C 0.24013 0.90878 0.82082 0.0
C712 C 0.2699 0.96666 0.81685 0.0
C713 C 0.2831 0.98799 0.79542 0.0
C714 C 0.30268 0.96284 0.76403 0.0
C715 C 0.31637 0.98333 0.74488 0.0
C716 C 0.31114 0.02889 0.75707 0.0
C717 C 0.29193 0.05403 0.78831 0.0
C718 C 0.27776 0.03384 0.80731 0.0
C719 C 0.34406 0.01762 0.9795 0.0
C720 C 0.31569 0.02169 1.0027 0.0
C721 C 0.33349 0.99588 0.93974 0.0
C722 C 0.29354 0.97896 0.922 0.0
C723 C 0.26539 0.98331 0.94559 0.0
C724 C 0.27671 1.00343 0.98528 0.0
C725 C 0.27955 0.95983 0.87907 0.0
C726 C 0.28561 0.9811 0.8567 0.0
C727 C 0.25902 0.92146 0.86018 0.0
C728 C 0.26008 0.89283 0.88103 0.0
C729 C 0.22217 0.88972 0.8903 0.0
C730 C 0.22484 0.86817 0.9151 0.0
C731 C 0.26481 0.84797 0.92935 0.0
C732 C 0.30247 0.84978 0.91925 0.0
C733 C 0.30024 0.87244 0.89545 0.0
H734 H 0.26663 0.83136 0.94853 0.0
H735 H 0.32196 0.04468 0.74233 0.0
H736 H 0.76013 0.0638 0.9411 0.0
H737 H 0.76121 0.00828 0.87699 0.0
H738 H 0.89998 1.00708 0.89815 0.0
H739 H 0.89793 0.06092 0.96099 0.0
H740 H 0.77987 0.02715 0.82604 0.0
H741 H 0.95263 0.92784 0.84377 0.0
H742 H 0.99818 0.8865 0.88355 0.0
H743 H 0.88428 0.86604 0.90771 0.0
H744 H 0.83777 0.90728 0.86798 0.0
H745 H 0.9543 0.96094 0.71079 0.0
H746 H 0.92812 0.96668 0.76559 0.0
H747 H 0.80312 0.93539 0.69389 0.0
H748 H 0.82944 0.92908 0.63839 0.0
H749 H 0.89772 0.90891 0.78225 0.0
H750 H 0.72655 0.99535 0.74983 0.0
H751 H 0.6843 0.04026 0.71182 0.0
H752 H 0.80002 0.09047 0.72175 0.0
H753 H 0.84276 0.04626 0.76014 0.0
C754 C 0.79097 0.04967 0.93247 0.0
C755 C 0.82954 0.0655 0.95635 0.0
C756 C 0.79161 0.01819 0.89586 0.0
C757 C 0.83081 1.00268 0.88262 0.0
C758 C 0.86945 0.01684 0.90762 0.0
C759 C 0.86855 0.04792 0.94379 0.0
C760 C 0.83113 0.97984 0.84134 0.0
C761 C 0.8046 1.00011 0.81615 0.0
C762 C 0.86391 0.9451 0.82833 0.0
C763 C 0.89162 0.92069 0.85278 0.0
C764 C 0.93718 0.91445 0.85744 0.0
C765 C 0.96321 0.89129 0.88022 0.0
C766 C 0.94414 0.87411 0.8985 0.0
C767 C 0.89897 0.87985 0.89387 0.0
C768 C 0.87274 0.90324 0.87131 0.0
C769 C 0.92141 0.95465 0.70645 0.0
C770 C 0.89402 0.94437 0.67015 0.0
C771 C 0.90648 0.95792 0.73786 0.0
C772 C 0.86373 0.95131 0.73385 0.0
C773 C 0.8362 0.94079 0.69765 0.0
C774 C 0.85118 0.93748 0.66605 0.0
C775 C 0.84816 0.95793 0.76836 0.0
C776 C 0.87179 0.93456 0.79191 0.0
C777 C 0.81318 0.99013 0.78013 0.0
C778 C 0.78786 0.01703 0.7573 0.0
C779 C 0.7429 0.01601 0.74387 0.0
C780 C 0.71889 0.04135 0.7223 0.0
C781 C 0.7395 0.06805 0.71422 0.0
C782 C 0.78413 0.06962 0.72786 0.0
C783 C 0.80827 0.0444 0.74948 0.0
H784 H 0.72086 0.08761 0.6975 0.0
H785 H 0.96436 0.85616 0.91611 0.0
H786 H 0.42234 0.80359 0.18849 0.0
H787 H 0.39729 0.77499 0.22696 0.0
H788 H 0.36291 0.90676 0.30129 0.0
H789 H 0.38685 0.93539 0.26227 0.0
H790 H 0.41864 0.77922 0.29795 0.0
H791 H 0.27298 0.91251 0.33259 0.0
H792 H 0.22343 0.96574 0.3064 0.0
H793 H 0.24124 0.88256 0.19367 0.0
H794 H 0.29051 0.82862 0.21915 0.0
H795 H 0.33017 0.76916 0.44186 0.0
H796 H 0.3599 0.79309 0.40315 0.0
H797 H 0.25553 0.74608 0.30773 0.0
H798 H 0.2245 0.72352 0.34674 0.0
H799 H 0.26778 0.8285 0.31927 0.0
H800 H 0.35502 0.68984 0.30847 0.0
H801 H 0.40338 0.63441 0.33254 0.0
H802 H 0.49916 0.72257 0.3919 0.0
H803 H 0.45109 0.77877 0.3686 0.0
C804 C 0.40993 0.82636 0.21333 0.0
C805 C 0.40616 0.87164 0.22229 0.0
C806 C 0.39556 0.81004 0.23523 0.0
C807 C 0.37743 0.83873 0.26657 0.0
C808 C 0.37576 0.884 0.27669 0.0
C809 C 0.38958 0.90032 0.25451 0.0
C810 C 0.35919 0.82122 0.28789 0.0
C811 C 0.38567 0.79003 0.30262 0.0
C812 C 0.31597 0.83498 0.29367 0.0
C813 C 0.28574 0.86674 0.27785 0.0
C814 C 0.26616 0.9055 0.3022 0.0
C815 C 0.23816 0.93581 0.28748 0.0
C816 C 0.22928 0.92758 0.2484 0.0
C817 C 0.24826 0.88895 0.22394 0.0
C818 C 0.27626 0.85852 0.23851 0.0
C819 C 0.31328 0.76419 0.41272 0.0
C820 C 0.27467 0.7448 0.39749 0.0
C821 C 0.33059 0.77749 0.39054 0.0
C822 C 0.3099 0.77128 0.35259 0.0
C823 C 0.27184 0.75127 0.33705 0.0
C824 C 0.2544 0.73805 0.35926 0.0
C825 C 0.32735 0.78677 0.32943 0.0
C826 C 0.30074 0.8177 0.31453 0.0
C827 C 0.37024 0.77245 0.32316 0.0
C828 C 0.39929 0.73864 0.33706 0.0
C829 C 0.38626 0.69752 0.32689 0.0
C830 C 0.41364 0.66594 0.34035 0.0
C831 C 0.45427 0.675 0.3638 0.0
C832 C 0.46766 0.71562 0.37376 0.0
C833 C 0.44038 0.74733 0.36041 0.0
H834 H 0.47543 0.6505 0.3742 0.0
H835 H 0.20764 0.95111 0.23707 0.0
H836 H 0.26429 0.40681 0.79122 0.0
H837 H 0.27538 0.37319 0.83892 0.0
H838 H 0.13643 0.38491 0.82611 0.0
H839 H 0.1255 0.42016 0.77941 0.0
H840 H 0.17973 0.39867 0.90065 0.0
H841 H 0.18937 0.28953 0.7752 0.0
H842 H 0.21815 0.2573 0.71606 0.0
H843 H 0.34787 0.24582 0.78143 0.0
H844 H 0.31971 0.2773 0.8408 0.0
H845 H 0.15015 0.22218 0.94195 0.0
H846 H 0.15227 0.27962 0.91922 0.0
H847 H 0.29048 0.24186 0.92536 0.0
H848 H 0.28778 0.1835 0.94719 0.0
H849 H 0.25571 0.247 0.86058 0.0
H850 H 0.24414 0.3445 0.986 0.0
H851 H 0.21519 0.37716 0.04486 0.0
H852 H 0.0909 0.41406 0.98223 0.0
H853 H 0.11892 0.3811 0.92287 0.0
C854 C 0.2363 0.40315 0.79946 0.0
C855 C 0.19414 0.41591 0.78205 0.0
C856 C 0.24257 0.38386 0.82646 0.0
C857 C 0.20671 0.37603 0.83559 0.0
C858 C 0.16451 0.39083 0.81954 0.0
C859 C 0.15826 0.41079 0.79292 0.0
C860 C 0.21308 0.34865 0.85881 0.0
C861 C 0.19609 0.3654 0.89193 0.0
C862 C 0.23552 0.30575 0.84787 0.0
C863 C 0.25244 0.28567 0.81225 0.0
C864 C 0.22397 0.27985 0.77679 0.0
C865 C 0.24014 0.26175 0.7433 0.0
C866 C 0.28477 0.2496 0.74499 0.0
C867 C 0.31331 0.25535 0.78017 0.0
C868 C 0.29724 0.27302 0.81372 0.0
C869 C 0.181 0.22693 0.93911 0.0
C870 C 0.21883 0.199 0.9463 0.0
C871 C 0.18238 0.25996 0.92652 0.0
C872 C 0.22171 0.26563 0.92108 0.0
C873 C 0.25982 0.23827 0.92943 0.0
C874 C 0.25836 0.20508 0.9419 0.0
C875 C 0.22192 0.29662 0.90264 0.0
C876 C 0.24004 0.28048 0.87007 0.0
C877 C 0.2006 0.34009 0.91428 0.0
C878 C 0.1836 0.36012 0.94993 0.0
C879 C 0.21055 0.35934 0.98473 0.0
C880 C 0.19432 0.37795 1.01819 0.0
C881 C 0.15122 0.39763 1.01728 0.0
C882 C 0.12429 0.39882 0.9829 0.0
C883 C 0.14035 0.38025 0.94934 0.0
H884 H 0.13872 0.41201 0.04322 0.0
H885 H 0.29726 0.23566 0.71905 0.0
H886 H 0.91586 0.24933 0.15865 0.0
H887 H 0.90194 0.31833 0.20992 0.0
H888 H 0.76716 0.33083 0.15357 0.0
H889 H 0.78125 0.26132 0.10232 0.0
H890 H 0.86494 0.40474 0.23288 0.0
H891 H 0.71022 0.33902 0.21483 0.0
H892 H 0.67525 0.27145 0.18389 0.0
H893 H 0.80051 0.19383 0.1888 0.0
H894 H 0.83605 0.26078 0.21996 0.0
H895 H 0.81394 0.38194 0.4123 0.0
H896 H 0.78678 0.4106 0.3605 0.0
H897 H 0.91178 0.36725 0.32862 0.0
H898 H 0.93823 0.33728 0.37823 0.0
H899 H 0.78244 0.35025 0.29168 0.0
H900 H 0.93212 0.41386 0.2798 0.0
H901 H 0.98049 0.4693 0.32122 0.0
H902 H 0.88354 0.53927 0.38802 0.0
H903 H 0.83412 0.48467 0.34669 0.0
C904 C 0.88393 0.26816 0.15615 0.0
C905 C 0.84981 0.25065 0.12638 0.0
C906 C 0.8759 0.3077 0.18541 0.0
C907 C 0.83334 0.32947 0.18581 0.0
C908 C 0.80019 0.31452 0.15383 0.0
C909 C 0.80822 0.27476 0.12464 0.0
C910 C 0.8227 0.3584 0.22318 0.0
C911 C 0.84629 0.39369 0.24588 0.0
C912 C 0.79699 0.34489 0.23973 0.0
C913 C 0.77567 0.30476 0.21913 0.0
C914 C 0.73019 0.30749 0.20902 0.0
C915 C 0.71029 0.26933 0.19156 0.0
C916 C 0.73562 0.2284 0.18435 0.0
C917 C 0.7809 0.2255 0.19429 0.0
C918 C 0.80093 0.26349 0.21179 0.0
C919 C 0.83588 0.37931 0.39468 0.0
C920 C 0.87808 0.35638 0.39914 0.0
C921 C 0.82049 0.39644 0.36553 0.0
C922 C 0.84726 0.39147 0.34079 0.0
C923 C 0.89066 0.37265 0.34779 0.0
C924 C 0.90581 0.35511 0.37639 0.0
C925 C 0.82839 0.39356 0.30236 0.0
C926 C 0.79871 0.36411 0.27889 0.0
C927 C 0.84985 0.41133 0.28565 0.0
C928 C 0.87913 0.44513 0.30983 0.0
C929 C 0.92071 0.44135 0.30293 0.0
C930 C 0.94847 0.47256 0.32656 0.0
C931 C 0.9351 0.50778 0.35723 0.0
C932 C 0.89389 0.51193 0.36429 0.0
C933 C 0.86599 0.48083 0.34076 0.0
H934 H 0.95669 0.53183 0.37556 0.0
H935 H 0.72018 0.19891 0.17102 0.0
loop_
_geom_bond_atom_site_label_1
_geom_bond_atom_site_label_2
_geom_bond_distance
_geom_bond_site_symmetry_2
_ccdc_geom_bond_type
Eu0 N31 2.657 . S
Eu0 N38 2.609 . S
Eu0 O44 2.558 1_554 S
Eu0 O45 2.607 1_545 S
Eu0 O47 2.339 . S
Eu0 O48 2.563 1_554 S
Eu0 O49 2.419 . S
Eu0 O51 2.380 . S
Eu0 O52 2.432 . S
Eu0 C64 2.848 1_554 S
C1 C4 1.429 1_554 S
C1 C5 1.411 1_554 S
C1 N8 1.377 . S
C2 C4 1.420 . S
C2 C6 1.423 . S
C2 C14 1.392 . S
C3 C5 1.420 . S
C3 C6 1.351 . S
C3 H26 0.931 . S
C4 C1 1.429 1_556 S
C4 C2 1.420 . S
C4 N12 1.362 1_556 S
C5 C1 1.411 1_556 S
C5 C3 1.420 . S
C5 C10 1.395 1_556 S
C6 C2 1.423 . S
C6 C3 1.351 . S
C6 H18 0.930 . S
C7 C9 1.400 . S
C7 C10 1.386 . S
C7 H19 0.930 . S
N8 C1 1.377 . S
N8 C9 1.321 . S
N8 Eu11 2.609 . S
C9 C7 1.400 . S
C9 N8 1.321 . S
C9 H16 0.930 . S
C10 C5 1.395 1_554 S
C10 C7 1.386 . S
C10 H29 0.930 . S
Eu11 N8 2.609 . S
Eu11 N12 2.657 . S
Eu11 O45 2.385 . S
Eu11 O46 2.432 1_565 S
Eu11 O50 2.558 . S
Eu11 O51 2.612 1_565 S
Eu11 O53 2.339 . S
Eu11 O54 2.563 1_565 S
Eu11 O55 2.419 . S
Eu11 C75 2.848 . S
N12 C4 1.362 1_554 S
N12 Eu11 2.657 . S
N12 C13 1.334 1_554 S
C13 N12 1.334 1_556 S
C13 C15 1.413 . S
C13 H20 0.929 1_556 S
C14 C2 1.392 . S
C14 C15 1.367 . S
C14 H22 0.930 . S
C15 C13 1.413 . S
C15 C14 1.367 . S
C15 H17 0.930 . S
H16 C9 0.930 . S
H17 C15 0.930 . S
H18 C6 0.930 . S
H19 C7 0.930 . S
H20 C13 0.929 1_554 S
H21 C35 0.930 . S
H22 C14 0.930 . S
H23 C41 0.930 . S
H24 C32 0.929 . S
H25 C39 0.930 . S
H26 C3 0.931 . S
H27 C33 0.930 . S
H28 C66 0.930 . S
H29 C10 0.930 . S
H30 C65 0.931 . S
N31 Eu0 2.657 . S
N31 C32 1.334 . S
N31 C36 1.362 . S
C32 H24 0.929 . S
C32 N31 1.334 . S
C32 C35 1.413 . S
C33 H27 0.930 . S
C33 C34 1.392 . S
C33 C35 1.367 . S
C34 C33 1.392 . S
C34 C36 1.420 . S
C34 C66 1.423 . S
C35 H21 0.930 . S
C35 C32 1.413 . S
C35 C33 1.367 . S
C36 N31 1.362 . S
C36 C34 1.420 . S
C36 C40 1.429 . S
H37 C42 0.930 . S
N38 Eu0 2.609 . S
N38 C40 1.377 . S
N38 C41 1.321 . S
C39 H25 0.930 . S
C39 C41 1.400 . S
C39 C42 1.386 . S
C40 C36 1.429 . S
C40 N38 1.377 . S
C40 C43 1.411 . S
C41 H23 0.930 . S
C41 N38 1.321 . S
C41 C39 1.400 . S
C42 H37 0.930 . S
C42 C39 1.386 . S
C42 C43 1.395 . S
C43 C40 1.411 . S
C43 C42 1.395 . S
C43 C65 1.420 . S
O44 Eu0 2.558 1_556 S
O44 C64 1.257 . S
O45 Eu0 2.607 1_565 S
O45 Eu11 2.385 . S
O45 C56 1.274 1_554 S
O46 Eu11 2.432 1_545 S
O46 C63 1.264 . S
O47 Eu0 2.339 . S
O47 C63 1.254 . S
O48 Eu0 2.563 1_556 S
O48 C56 1.235 1_545 S
O49 Eu0 2.419 . S
O49 C64 1.249 1_554 S
O50 Eu11 2.558 . S
O50 C75 1.257 . S
O51 Eu0 2.380 . S
O51 Eu11 2.612 1_545 S
O51 C67 1.276 . S
O52 Eu0 2.432 . S
O52 C74 1.264 . S
O53 Eu11 2.339 . S
O53 C74 1.252 1_565 S
O54 Eu11 2.563 1_545 S
O54 C67 1.235 . S
O55 Eu11 2.419 . S
O55 C75 1.249 . S
C56 O45 1.274 1_556 S
C56 O48 1.235 1_565 S
C57 C59 1.393 . S
C57 C61 1.395 . S
C57 C64 1.492 . S
C58 C59 1.392 . S
C58 C60 1.386 . S
C59 C57 1.393 . S
C59 C58 1.392 . S
C59 H76 0.930 . S
C60 C58 1.386 . S
C60 C62 1.395 . S
C60 H77 0.930 . S
C61 C57 1.395 . S
C61 C62 1.379 . S
C61 H78 0.930 . S
C62 C60 1.395 . S
C62 C61 1.379 . S
C62 H79 0.930 . S
C63 O46 1.264 . S
C63 O47 1.254 . S
C64 Eu0 2.848 1_556 S
C64 O44 1.257 . S
C64 O49 1.249 1_556 S
C64 C57 1.492 . S
C65 H30 0.931 . S
C65 C43 1.420 . S
C65 C66 1.351 . S
C66 H28 0.930 . S
C66 C34 1.423 . S
C66 C65 1.351 . S
C67 O51 1.276 . S
C67 O54 1.235 . S
C68 C69 1.393 . S
C68 C72 1.395 . S
C68 C75 1.492 . S
C69 C68 1.393 . S
C69 C70 1.392 . S
C69 H80 0.930 . S
C70 C69 1.392 . S
C70 C71 1.386 . S
C71 C70 1.386 . S
C71 C73 1.395 . S
C71 H81 0.930 . S
C72 C68 1.395 . S
C72 C73 1.379 . S
C72 H82 0.930 . S
C73 C71 1.395 . S
C73 C72 1.379 . S
C73 H83 0.930 . S
C74 O52 1.264 . S
C74 O53 1.252 1_545 S
C75 Eu11 2.848 . S
C75 O50 1.257 . S
C75 O55 1.249 . S
C75 C68 1.492 . S
H76 C59 0.930 . S
H77 C60 0.930 . S
H78 C61 0.930 . S
H79 C62 0.930 . S
H80 C69 0.930 . S
H81 C71 0.930 . S
H82 C72 0.930 . S
H83 C73 0.930 . S
Eu84 N115 2.657 1_455 S
Eu84 N122 2.609 1_455 S
Eu84 O128 2.558 . S
Eu84 O129 2.612 . S
Eu84 O131 2.339 . S
Eu84 O132 2.563 . S
Eu84 O133 2.419 . S
Eu84 O135 2.380 . S
Eu84 O136 2.432 . S
Eu84 C148 2.848 1_455 S
C85 C88 1.429 . S
C85 C89 1.411 . S
C85 N92 1.377 . S
C86 C88 1.420 . S
C86 C90 1.423 . S
C86 C98 1.392 . S
C87 C89 1.420 . S
C87 C90 1.351 . S
C87 H110 0.931 . S
C88 C85 1.429 . S
C88 C86 1.420 . S
C88 N96 1.362 . S
C89 C85 1.411 . S
C89 C87 1.420 . S
C89 C94 1.395 . S
C90 C86 1.423 . S
C90 C87 1.351 . S
C90 H102 0.930 . S
C91 C93 1.400 . S
C91 C94 1.386 . S
C91 H103 0.930 . S
N92 C85 1.377 . S
N92 C93 1.321 . S
N92 Eu95 2.609 . S
C93 C91 1.400 . S
C93 N92 1.321 . S
C93 H100 0.930 . S
C94 C89 1.395 . S
C94 C91 1.386 . S
C94 H113 0.930 . S
Eu95 N92 2.609 . S
Eu95 N96 2.657 . S
Eu95 O129 2.380 . S
Eu95 O130 2.432 . S
Eu95 O134 2.558 . S
Eu95 O135 2.612 . S
Eu95 O137 2.339 . S
Eu95 O138 2.563 . S
Eu95 O139 2.419 . S
Eu95 C159 2.848 . S
N96 C88 1.362 . S
N96 Eu95 2.657 . S
N96 C97 1.334 . S
C97 N96 1.334 . S
C97 C99 1.413 . S
C97 H104 0.929 . S
C98 C86 1.392 . S
C98 C99 1.367 . S
C98 H106 0.930 . S
C99 C97 1.413 . S
C99 C98 1.367 . S
C99 H101 0.930 . S
H100 C93 0.930 . S
H101 C99 0.930 . S
H102 C90 0.930 . S
H103 C91 0.930 . S
H104 C97 0.929 . S
H105 C119 0.930 . S
H106 C98 0.930 . S
H107 C125 0.930 1_455 S
H108 C116 0.929 1_455 S
H109 C123 0.930 . S
H110 C87 0.931 . S
H111 C117 0.930 . S
H112 C150 0.930 . S
H113 C94 0.930 . S
H114 C149 0.931 . S
N115 Eu84 2.657 1_655 S
N115 C116 1.334 . S
N115 C120 1.362 . S
C116 H108 0.929 1_655 S
C116 N115 1.334 . S
C116 C119 1.413 . S
C117 H111 0.930 . S
C117 C118 1.392 . S
C117 C119 1.367 . S
C118 C117 1.392 . S
C118 C120 1.420 . S
C118 C150 1.423 . S
C119 H105 0.930 . S
C119 C116 1.413 . S
C119 C117 1.367 . S
C120 N115 1.362 . S
C120 C118 1.420 . S
C120 C124 1.429 . S
H121 C126 0.930 . S
N122 Eu84 2.609 1_655 S
N122 C124 1.377 . S
N122 C125 1.321 . S
C123 H109 0.930 . S
C123 C125 1.400 . S
C123 C126 1.386 . S
C124 C120 1.429 . S
C124 N122 1.377 . S
C124 C127 1.411 . S
C125 H107 0.930 1_655 S
C125 N122 1.321 . S
C125 C123 1.400 . S
C126 H121 0.930 . S
C126 C123 1.386 . S
C126 C127 1.395 . S
C127 C124 1.411 . S
C127 C126 1.395 . S
C127 C149 1.420 . S
O128 Eu84 2.558 . S
O128 C148 1.257 1_455 S
O129 Eu84 2.612 . S
O129 Eu95 2.380 . S
O129 C140 1.276 . S
O130 Eu95 2.432 . S
O130 C147 1.264 . S
O131 Eu84 2.339 . S
O131 C147 1.254 . S
O132 Eu84 2.563 . S
O132 C140 1.235 . S
O133 Eu84 2.419 . S
O133 C148 1.249 1_455 S
O134 Eu95 2.558 . S
O134 C159 1.257 . S
O135 Eu84 2.380 . S
O135 Eu95 2.612 . S
O135 C151 1.276 . S
O136 Eu84 2.432 . S
O136 C158 1.264 . S
O137 Eu95 2.339 . S
O137 C158 1.254 . S
O138 Eu95 2.563 . S
O138 C151 1.235 . S
O139 Eu95 2.419 . S
O139 C159 1.249 . S
C140 O129 1.276 . S
C140 O132 1.235 . S
C141 C143 1.393 . S
C141 C145 1.395 . S
C141 C148 1.492 . S
C142 C143 1.392 . S
C142 C144 1.386 . S
C143 C141 1.393 . S
C143 C142 1.392 . S
C143 H160 0.930 . S
C144 C142 1.386 . S
C144 C146 1.395 . S
C144 H161 0.930 . S
C145 C141 1.395 . S
C145 C146 1.379 . S
C145 H162 0.930 . S
C146 C144 1.395 . S
C146 C145 1.379 . S
C146 H163 0.930 . S
C147 O130 1.264 . S
C147 O131 1.254 . S
C148 Eu84 2.848 1_655 S
C148 O128 1.257 1_655 S
C148 O133 1.249 1_655 S
C148 C141 1.492 . S
C149 H114 0.931 . S
C149 C127 1.420 . S
C149 C150 1.351 . S
C150 H112 0.930 . S
C150 C118 1.423 . S
C150 C149 1.351 . S
C151 O135 1.276 . S
C151 O138 1.235 . S
C152 C153 1.393 . S
C152 C156 1.395 . S
C152 C159 1.492 . S
C153 C152 1.393 . S
C153 C154 1.392 . S
C153 H164 0.930 . S
C154 C153 1.392 . S
C154 C155 1.386 . S
C155 C154 1.386 . S
C155 C157 1.395 . S
C155 H165 0.930 . S
C156 C152 1.395 . S
C156 C157 1.379 . S
C156 H166 0.930 . S
C157 C155 1.395 . S
C157 C156 1.379 . S
C157 H167 0.930 . S
C158 O136 1.264 . S
C158 O137 1.254 . S
C159 Eu95 2.848 . S
C159 O134 1.257 . S
C159 O139 1.249 . S
C159 C152 1.492 . S
H160 C143 0.930 . S
H161 C144 0.930 . S
H162 C145 0.930 . S
H163 C146 0.930 . S
H164 C153 0.930 . S
H165 C155 0.930 . S
H166 C156 0.930 . S
H167 C157 0.930 . S
Eu168 N199 2.657 . S
Eu168 N206 2.609 . S
Eu168 O212 2.558 1_554 S
Eu168 O213 2.612 1_554 S
Eu168 O215 2.339 . S
Eu168 O216 2.563 1_554 S
Eu168 O217 2.419 1_554 S
Eu168 O219 2.380 . S
Eu168 O220 2.432 . S
Eu168 C232 2.848 1_554 S
C169 C172 1.429 . S
C169 C173 1.411 . S
C169 N176 1.377 1_566 S
C170 C172 1.420 . S
C170 C174 1.423 . S
C170 C182 1.392 . S
C171 C173 1.420 . S
C171 C174 1.351 . S
C171 H194 0.931 . S
C172 C169 1.429 . S
C172 C170 1.420 . S
C172 N180 1.362 1_565 S
C173 C169 1.411 . S
C173 C171 1.420 . S
C173 C178 1.395 . S
C174 C170 1.423 . S
C174 C171 1.351 . S
C174 H186 0.930 . S
C175 C177 1.400 1_565 S
C175 C178 1.386 1_554 S
C175 H187 0.930 1_655 S
N176 C169 1.377 1_544 S
N176 C177 1.321 . S
N176 Eu179 2.609 . S
C177 C175 1.400 1_545 S
C177 N176 1.321 . S
C177 H184 0.930 . S
C178 C173 1.395 . S
C178 C175 1.386 1_556 S
C178 H197 0.930 . S
Eu179 N176 2.609 . S
Eu179 N180 2.657 1_554 S
Eu179 O213 2.380 1_554 S
Eu179 O214 2.432 . S
Eu179 O218 2.558 . S
Eu179 O219 2.612 . S
Eu179 O221 2.339 . S
Eu179 O222 2.563 . S
Eu179 O223 2.419 . S
Eu179 C243 2.848 . S
N180 C172 1.362 1_545 S
N180 Eu179 2.657 1_556 S
N180 C181 1.334 . S
C181 N180 1.334 . S
C181 C183 1.413 1_545 S
C181 H188 0.929 . S
C182 C170 1.392 . S
C182 C183 1.367 . S
C182 H190 0.930 . S
C183 C181 1.413 1_565 S
C183 C182 1.367 . S
C183 H185 0.930 . S
H184 C177 0.930 . S
H185 C183 0.930 . S
H186 C174 0.930 . S
H187 C175 0.930 1_455 S
H188 C181 0.929 . S
H189 C203 0.930 . S
H190 C182 0.930 . S
H191 C209 0.931 1_556 S
H192 C200 0.929 . S
H193 C207 0.930 . S
H194 C171 0.931 . S
H195 C201 0.930 . S
H196 C234 0.930 . S
H197 C178 0.930 . S
H198 C233 0.931 . S
N199 Eu168 2.657 . S
N199 C200 1.334 . S
N199 C204 1.362 . S
C200 H192 0.929 . S
C200 N199 1.334 . S
C200 C203 1.413 . S
C201 H195 0.930 . S
C201 C202 1.392 . S
C201 C203 1.367 . S
C202 C201 1.392 . S
C202 C204 1.420 . S
C202 C234 1.423 . S
C203 H189 0.930 . S
C203 C200 1.413 . S
C203 C201 1.367 . S
C204 N199 1.362 . S
C204 C202 1.420 . S
C204 C208 1.429 . S
H205 C210 0.930 . S
N206 Eu168 2.609 . S
N206 C208 1.377 . S
N206 C209 1.321 . S
C207 H193 0.930 . S
C207 C209 1.400 . S
C207 C210 1.386 . S
C208 C204 1.429 . S
C208 N206 1.377 . S
C208 C211 1.411 . S
C209 H191 0.931 1_554 S
C209 N206 1.321 . S
C209 C207 1.400 . S
C210 H205 0.930 . S
C210 C207 1.386 . S
C210 C211 1.395 . S
C211 C208 1.411 . S
C211 C210 1.395 . S
C211 C233 1.420 . S
O212 Eu168 2.558 1_556 S
O212 C232 1.257 . S
O213 Eu168 2.612 1_556 S
O213 Eu179 2.380 1_556 S
O213 C224 1.276 . S
O214 Eu179 2.432 . S
O214 C231 1.264 . S
O215 Eu168 2.339 . S
O215 C231 1.254 . S
O216 Eu168 2.563 1_556 S
O216 C224 1.235 . S
O217 Eu168 2.419 1_556 S
O217 C232 1.249 . S
O218 Eu179 2.558 . S
O218 C243 1.257 . S
O219 Eu168 2.380 . S
O219 Eu179 2.612 . S
O219 C235 1.276 . S
O220 Eu168 2.432 . S
O220 C242 1.264 . S
O221 Eu179 2.339 . S
O221 C242 1.254 . S
O222 Eu179 2.563 . S
O222 C235 1.235 . S
O223 Eu179 2.419 . S
O223 C243 1.249 . S
C224 O213 1.276 . S
C224 O216 1.235 . S
C225 C227 1.393 . S
C225 C229 1.395 . S
C225 C232 1.492 . S
C226 C227 1.392 . S
C226 C228 1.386 . S
C227 C225 1.393 . S
C227 C226 1.392 . S
C227 H244 0.930 . S
C228 C226 1.386 . S
C228 C230 1.395 . S
C228 H245 0.930 . S
C229 C225 1.395 . S
C229 C230 1.379 . S
C229 H246 0.930 . S
C230 C228 1.395 . S
C230 C229 1.379 . S
C230 H247 0.930 . S
C231 O214 1.264 . S
C231 O215 1.254 . S
C232 Eu168 2.848 1_556 S
C232 O212 1.257 . S
C232 O217 1.249 . S
C232 C225 1.492 . S
C233 H198 0.931 . S
C233 C211 1.420 . S
C233 C234 1.351 . S
C234 H196 0.930 . S
C234 C202 1.423 . S
C234 C233 1.351 . S
C235 O219 1.276 . S
C235 O222 1.235 . S
C236 C237 1.393 . S
C236 C240 1.395 1_545 S
C236 C243 1.492 . S
C237 C236 1.393 . S
C237 C238 1.392 . S
C237 H248 0.930 . S
C238 C237 1.392 . S
C238 C239 1.386 1_545 S
C239 C238 1.386 1_565 S
C239 C241 1.395 . S
C239 H249 0.930 . S
C240 C236 1.395 1_565 S
C240 C241 1.379 . S
C240 H250 0.930 . S
C241 C239 1.395 . S
C241 C240 1.379 . S
C241 H251 0.930 . S
C242 O220 1.264 . S
C242 O221 1.254 . S
C243 Eu179 2.848 . S
C243 O218 1.257 . S
C243 O223 1.249 . S
C243 C236 1.492 . S
H244 C227 0.930 . S
H245 C228 0.930 . S
H246 C229 0.930 . S
H247 C230 0.930 . S
H248 C237 0.930 . S
H249 C239 0.930 . S
H250 C240 0.930 . S
H251 C241 0.930 . S
Eu252 N283 2.657 1_455 S
Eu252 N290 2.609 1_455 S
Eu252 O296 2.558 1_455 S
Eu252 O297 2.612 . S
Eu252 O299 2.339 . S
Eu252 O300 2.563 . S
Eu252 O301 2.419 1_455 S
Eu252 O303 2.380 . S
Eu252 O304 2.432 . S
Eu252 C316 2.848 1_455 S
C253 C256 1.429 . S
C253 C257 1.411 . S
C253 N260 1.377 . S
C254 C256 1.420 . S
C254 C258 1.423 . S
C254 C266 1.392 . S
C255 C257 1.420 . S
C255 C258 1.351 . S
C255 H278 0.931 . S
C256 C253 1.429 . S
C256 C254 1.420 . S
C256 N264 1.362 . S
C257 C253 1.411 . S
C257 C255 1.420 . S
C257 C262 1.395 . S
C258 C254 1.423 . S
C258 C255 1.351 . S
C258 H270 0.930 . S
C259 C261 1.400 . S
C259 C262 1.386 . S
C259 H271 0.930 . S
N260 C253 1.377 . S
N260 C261 1.321 . S
N260 Eu263 2.609 . S
C261 C259 1.400 . S
C261 N260 1.321 . S
C261 H268 0.930 . S
C262 C257 1.395 . S
C262 C259 1.386 . S
C262 H281 0.930 . S
Eu263 N260 2.609 . S
Eu263 N264 2.657 . S
Eu263 O297 2.380 . S
Eu263 O298 2.432 . S
Eu263 O302 2.558 . S
Eu263 O303 2.612 . S
Eu263 O305 2.339 . S
Eu263 O306 2.563 . S
Eu263 O307 2.419 . S
Eu263 C327 2.848 . S
N264 C256 1.362 . S
N264 Eu263 2.657 . S
N264 C265 1.334 . S
C265 N264 1.334 . S
C265 C267 1.413 . S
C265 H272 0.929 . S
C266 C254 1.392 . S
C266 C267 1.367 . S
C266 H274 0.930 . S
C267 C265 1.413 . S
C267 C266 1.367 . S
C267 H269 0.930 . S
H268 C261 0.930 . S
H269 C267 0.930 . S
H270 C258 0.930 . S
H271 C259 0.930 . S
H272 C265 0.929 . S
H273 C287 0.930 . S
H274 C266 0.930 . S
H275 C293 0.931 . S
H276 C284 0.929 . S
H277 C291 0.930 . S
H278 C255 0.931 . S
H279 C285 0.930 . S
H280 C318 0.930 . S
H281 C262 0.930 . S
H282 C317 0.931 . S
N283 Eu252 2.657 1_655 S
N283 C284 1.334 . S
N283 C288 1.362 . S
C284 H276 0.929 . S
C284 N283 1.334 . S
C284 C287 1.413 . S
C285 H279 0.930 . S
C285 C286 1.392 . S
C285 C287 1.367 . S
C286 C285 1.392 . S
C286 C288 1.420 . S
C286 C318 1.423 . S
C287 H273 0.930 . S
C287 C284 1.413 . S
C287 C285 1.367 . S
C288 N283 1.362 . S
C288 C286 1.420 . S
C288 C292 1.429 . S
H289 C294 0.930 . S
N290 Eu252 2.609 1_655 S
N290 C292 1.377 . S
N290 C293 1.321 . S
C291 H277 0.930 . S
C291 C293 1.400 1_545 S
C291 C294 1.386 . S
C292 C288 1.429 . S
C292 N290 1.377 . S
C292 C295 1.411 . S
C293 H275 0.931 . S
C293 N290 1.321 . S
C293 C291 1.400 1_565 S
C294 H289 0.930 . S
C294 C291 1.386 . S
C294 C295 1.395 1_545 S
C295 C292 1.411 . S
C295 C294 1.395 1_565 S
C295 C317 1.420 . S
O296 Eu252 2.558 1_655 S
O296 C316 1.257 . S
O297 Eu252 2.612 . S
O297 Eu263 2.380 . S
O297 C308 1.276 . S
O298 Eu263 2.432 . S
O298 C315 1.264 . S
O299 Eu252 2.339 . S
O299 C315 1.254 . S
O300 Eu252 2.563 . S
O300 C308 1.235 . S
O301 Eu252 2.419 1_655 S
O301 C316 1.249 . S
O302 Eu263 2.558 . S
O302 C327 1.257 . S
O303 Eu252 2.380 . S
O303 Eu263 2.612 . S
O303 C319 1.276 . S
O304 Eu252 2.432 . S
O304 C326 1.264 . S
O305 Eu263 2.339 . S
O305 C326 1.254 . S
O306 Eu263 2.563 . S
O306 C319 1.235 . S
O307 Eu263 2.419 . S
O307 C327 1.249 . S
C308 O297 1.276 . S
C308 O300 1.235 . S
C309 C311 1.393 . S
C309 C313 1.395 . S
C309 C316 1.492 . S
C310 C311 1.392 . S
C310 C312 1.386 . S
C311 C309 1.393 . S
C311 C310 1.392 . S
C311 H328 0.930 . S
C312 C310 1.386 . S
C312 C314 1.395 . S
C312 H329 0.930 . S
C313 C309 1.395 . S
C313 C314 1.379 . S
C313 H330 0.930 . S
C314 C312 1.395 . S
C314 C313 1.379 . S
C314 H331 0.930 . S
C315 O298 1.264 . S
C315 O299 1.254 . S
C316 Eu252 2.848 1_655 S
C316 O296 1.257 . S
C316 O301 1.249 . S
C316 C309 1.492 . S
C317 H282 0.931 . S
C317 C295 1.420 . S
C317 C318 1.351 . S
C318 H280 0.930 . S
C318 C286 1.423 . S
C318 C317 1.351 . S
C319 O303 1.276 . S
C319 O306 1.235 . S
C320 C321 1.393 . S
C320 C324 1.395 . S
C320 C327 1.492 . S
C321 C320 1.393 . S
C321 C322 1.392 . S
C321 H332 0.930 . S
C322 C321 1.392 . S
C322 C323 1.386 . S
C323 C322 1.386 . S
C323 C325 1.395 . S
C323 H333 0.930 . S
C324 C320 1.395 . S
C324 C325 1.379 . S
C324 H334 0.930 . S
C325 C323 1.395 . S
C325 C324 1.379 . S
C325 H335 0.930 . S
C326 O304 1.264 . S
C326 O305 1.254 . S
C327 Eu263 2.848 . S
C327 O302 1.257 . S
C327 O307 1.249 . S
C327 C320 1.492 . S
H328 C311 0.930 . S
H329 C312 0.930 . S
H330 C313 0.930 . S
H331 C314 0.930 . S
H332 C321 0.930 . S
H333 C323 0.930 . S
H334 C324 0.930 . S
H335 C325 0.930 . S
H336 C354 0.951 . S
H337 C356 0.951 . S
H338 C358 0.950 . S
H339 C359 0.950 . S
H340 C361 0.950 1_556 S
H341 C364 0.950 . S
H342 C365 0.950 . S
H343 C367 0.950 . S
H344 C368 0.950 . S
H345 C369 0.951 . S
H346 C371 0.951 . S
H347 C373 0.950 1_565 S
H348 C374 0.950 . S
H349 C376 0.950 . S
H350 C379 0.950 . S
H351 C380 0.950 . S
H352 C382 0.950 . S
H353 C383 0.950 . S
C354 H336 0.951 . S
C354 C355 1.366 . S
C354 C356 1.388 . S
C355 C354 1.366 . S
C355 C359 1.385 . S
C356 H337 0.951 . S
C356 C354 1.388 . S
C356 C357 1.366 . S
C357 C356 1.366 . S
C357 C358 1.414 . S
C357 C360 1.499 1_655 S
C358 H338 0.950 . S
C358 C357 1.414 . S
C358 C359 1.374 . S
C359 H339 0.950 . S
C359 C355 1.385 . S
C359 C358 1.374 . S
C360 C357 1.499 1_455 S
C360 C361 1.373 . S
C360 C362 1.389 . S
C361 H340 0.950 1_554 S
C361 C360 1.373 . S
C361 C377 1.377 . S
C362 C360 1.389 . S
C362 C363 1.524 . S
C362 C376 1.377 . S
C363 C362 1.524 . S
C363 C364 1.397 . S
C363 C368 1.363 . S
C364 H341 0.950 . S
C364 C363 1.397 . S
C364 C365 1.334 1_455 S
C365 H342 0.950 . S
C365 C364 1.334 1_655 S
C365 C366 1.287 . S
C366 C365 1.287 . S
C366 C367 1.524 1_655 S
C366 H385 0.913 . S
C367 H343 0.950 . S
C367 C366 1.524 1_455 S
C367 C368 1.415 . S
C368 H344 0.950 . S
C368 C363 1.363 . S
C368 C367 1.415 . S
C369 H345 0.951 . S
C369 C370 1.366 . S
C369 C371 1.388 . S
C370 C369 1.366 . S
C370 C374 1.385 1_545 S
C371 H346 0.951 . S
C371 C369 1.388 . S
C371 C372 1.366 . S
C372 C371 1.366 . S
C372 C373 1.414 . S
C372 C375 1.499 . S
C373 H347 0.950 1_545 S
C373 C372 1.414 . S
C373 C374 1.374 1_545 S
C374 H348 0.950 . S
C374 C370 1.385 1_565 S
C374 C373 1.374 1_565 S
C375 C372 1.499 . S
C375 C376 1.373 . S
C375 C377 1.389 . S
C376 H349 0.950 . S
C376 C362 1.377 . S
C376 C375 1.373 . S
C377 C361 1.377 . S
C377 C375 1.389 . S
C377 C378 1.524 1_554 S
C378 C377 1.524 1_556 S
C378 C379 1.397 . S
C378 C383 1.363 . S
C379 H350 0.950 . S
C379 C378 1.397 . S
C379 C380 1.334 . S
C380 H351 0.950 . S
C380 C379 1.334 . S
C380 C381 1.287 . S
C381 C380 1.287 . S
C381 C382 1.524 . S
C381 H384 0.999 . S
C382 H352 0.950 . S
C382 C381 1.524 . S
C382 C383 1.415 . S
C383 H353 0.950 . S
C383 C378 1.363 . S
C383 C382 1.415 . S
H384 C381 0.999 . S
H385 C366 0.913 . S
H386 C404 0.951 . S
H387 C406 0.951 . S
H388 C408 0.950 . S
H389 C409 0.950 . S
H390 C411 0.950 . S
H391 C414 0.950 . S
H392 C415 0.950 . S
H393 C417 0.950 . S
H394 C418 0.950 . S
H395 C419 0.951 . S
H396 C421 0.951 . S
H397 C423 0.950 . S
H398 C424 0.950 . S
H399 C426 0.950 . S
H400 C429 0.950 1_455 S
H401 C430 0.950 . S
H402 C432 0.950 . S
H403 C433 0.950 . S
C404 H386 0.951 . S
C404 C405 1.366 . S
C404 C406 1.388 . S
C405 C404 1.366 . S
C405 C409 1.385 . S
C406 H387 0.951 . S
C406 C404 1.388 . S
C406 C407 1.366 1_565 S
C407 C406 1.366 1_545 S
C407 C408 1.414 . S
C407 C410 1.499 . S
C408 H388 0.950 . S
C408 C407 1.414 . S
C408 C409 1.374 1_545 S
C409 H389 0.950 . S
C409 C405 1.385 . S
C409 C408 1.374 1_565 S
C410 C407 1.499 . S
C410 C411 1.373 . S
C410 C412 1.389 . S
C411 H390 0.950 . S
C411 C410 1.373 . S
C411 C427 1.377 . S
C412 C410 1.389 . S
C412 C413 1.524 . S
C412 C426 1.377 . S
C413 C412 1.524 . S
C413 C414 1.397 . S
C413 C418 1.363 . S
C414 H391 0.950 . S
C414 C413 1.397 . S
C414 C415 1.334 1_545 S
C415 H392 0.950 . S
C415 C414 1.334 1_565 S
C415 C416 1.287 . S
C416 C415 1.287 . S
C416 C417 1.524 . S
C416 H435 0.913 . S
C417 H393 0.950 . S
C417 C416 1.524 . S
C417 C418 1.415 1_565 S
C418 H394 0.950 . S
C418 C413 1.363 . S
C418 C417 1.415 1_545 S
C419 H395 0.951 . S
C419 C420 1.366 . S
C419 C421 1.388 . S
C420 C419 1.366 . S
C420 C424 1.385 . S
C421 H396 0.951 . S
C421 C419 1.388 . S
C421 C422 1.366 . S
C422 C421 1.366 . S
C422 C423 1.414 . S
C422 C425 1.499 . S
C423 H397 0.950 . S
C423 C422 1.414 . S
C423 C424 1.374 . S
C424 H398 0.950 . S
C424 C420 1.385 . S
C424 C423 1.374 . S
C425 C422 1.499 . S
C425 C426 1.373 . S
C425 C427 1.389 . S
C426 H399 0.950 . S
C426 C412 1.377 . S
C426 C425 1.373 . S
C427 C411 1.377 . S
C427 C425 1.389 . S
C427 C428 1.524 . S
C428 C427 1.524 . S
C428 C429 1.397 1_455 S
C428 C433 1.363 1_455 S
C429 H400 0.950 1_655 S
C429 C428 1.397 1_655 S
C429 C430 1.334 . S
C430 H401 0.950 . S
C430 C429 1.334 . S
C430 C431 1.287 . S
C431 C430 1.287 . S
C431 C432 1.524 . S
C431 H434 0.999 . S
C432 H402 0.950 . S
C432 C431 1.524 . S
C432 C433 1.415 . S
C433 H403 0.950 . S
C433 C428 1.363 1_655 S
C433 C432 1.415 . S
H434 C431 0.999 . S
H435 C416 0.913 . S
H436 C454 0.951 . S
H437 C456 0.951 . S
H438 C458 0.950 . S
H439 C459 0.950 . S
H440 C461 0.950 . S
H441 C464 0.950 . S
H442 C465 0.950 . S
H443 C467 0.950 . S
H444 C468 0.950 . S
H445 C469 0.951 1_565 S
H446 C471 0.951 . S
H447 C473 0.950 . S
H448 C474 0.950 . S
H449 C476 0.950 . S
H450 C479 0.950 1_545 S
H451 C480 0.950 . S
H452 C482 0.950 . S
H453 C483 0.950 1_554 S
C454 H436 0.951 . S
C454 C455 1.366 . S
C454 C456 1.388 . S
C455 C454 1.366 . S
C455 C459 1.385 . S
C456 H437 0.951 . S
C456 C454 1.388 . S
C456 C457 1.366 . S
C457 C456 1.366 . S
C457 C458 1.414 . S
C457 C460 1.499 . S
C458 H438 0.950 . S
C458 C457 1.414 . S
C458 C459 1.374 . S
C459 H439 0.950 . S
C459 C455 1.385 . S
C459 C458 1.374 . S
C460 C457 1.499 . S
C460 C461 1.373 . S
C460 C462 1.389 . S
C461 H440 0.950 . S
C461 C460 1.373 . S
C461 C477 1.377 . S
C462 C460 1.389 . S
C462 C463 1.524 . S
C462 C476 1.377 . S
C463 C462 1.524 . S
C463 C464 1.397 . S
C463 C468 1.363 . S
C464 H441 0.950 . S
C464 C463 1.397 . S
C464 C465 1.334 . S
C465 H442 0.950 . S
C465 C464 1.334 . S
C465 C466 1.287 . S
C466 C465 1.287 . S
C466 C467 1.524 . S
C466 H485 0.913 . S
C467 H443 0.950 . S
C467 C466 1.524 . S
C467 C468 1.415 . S
C468 H444 0.950 . S
C468 C463 1.363 . S
C468 C467 1.415 . S
C469 H445 0.951 1_545 S
C469 C470 1.366 . S
C469 C471 1.388 . S
C470 C469 1.366 . S
C470 C474 1.385 . S
C471 H446 0.951 . S
C471 C469 1.388 . S
C471 C472 1.366 . S
C472 C471 1.366 . S
C472 C473 1.414 . S
C472 C475 1.499 . S
C473 H447 0.950 . S
C473 C472 1.414 . S
C473 C474 1.374 . S
C474 H448 0.950 . S
C474 C470 1.385 . S
C474 C473 1.374 . S
C475 C472 1.499 . S
C475 C476 1.373 . S
C475 C477 1.389 . S
C476 H449 0.950 . S
C476 C462 1.377 . S
C476 C475 1.373 . S
C477 C461 1.377 . S
C477 C475 1.389 . S
C477 C478 1.524 1_544 S
C478 C477 1.524 1_566 S
C478 C479 1.397 . S
C478 C483 1.363 . S
C479 H450 0.950 1_565 S
C479 C478 1.397 . S
C479 C480 1.334 . S
C480 H451 0.950 . S
C480 C479 1.334 . S
C480 C481 1.287 . S
C481 C480 1.287 . S
C481 C482 1.524 . S
C481 H484 0.999 . S
C482 H452 0.950 . S
C482 C481 1.524 . S
C482 C483 1.415 . S
C483 H453 0.950 1_556 S
C483 C478 1.363 . S
C483 C482 1.415 . S
H484 C481 0.999 . S
H485 C466 0.913 . S
H486 C504 0.951 . S
H487 C506 0.951 . S
H488 C508 0.950 . S
H489 C509 0.950 . S
H490 C511 0.950 . S
H491 C514 0.950 . S
H492 C515 0.950 . S
H493 C517 0.950 . S
H494 C518 0.950 . S
H495 C519 0.951 . S
H496 C521 0.951 . S
H497 C523 0.950 . S
H498 C524 0.950 . S
H499 C526 0.950 . S
H500 C529 0.950 . S
H501 C530 0.950 . S
H502 C532 0.950 . S
H503 C533 0.950 . S
C504 H486 0.951 . S
C504 C505 1.366 . S
C504 C506 1.388 . S
C505 C504 1.366 . S
C505 C509 1.385 . S
C506 H487 0.951 . S
C506 C504 1.388 . S
C506 C507 1.366 . S
C507 C506 1.366 . S
C507 C508 1.414 . S
C507 C510 1.499 . S
C508 H488 0.950 . S
C508 C507 1.414 . S
C508 C509 1.374 . S
C509 H489 0.950 . S
C509 C505 1.385 . S
C509 C508 1.374 . S
C510 C507 1.499 . S
C510 C511 1.373 . S
C510 C512 1.389 . S
C511 H490 0.950 . S
C511 C510 1.373 . S
C511 C527 1.377 . S
C512 C510 1.389 . S
C512 C513 1.524 . S
C512 C526 1.377 . S
C513 C512 1.524 . S
C513 C514 1.397 . S
C513 C518 1.363 . S
C514 H491 0.950 . S
C514 C513 1.397 . S
C514 C515 1.334 1_455 S
C515 H492 0.950 . S
C515 C514 1.334 1_655 S
C515 C516 1.286 1_655 S
C516 C515 1.286 1_455 S
C516 C517 1.530 . S
C516 H535 0.908 1_455 S
C517 H493 0.950 . S
C517 C516 1.530 . S
C517 C518 1.415 . S
C518 H494 0.950 . S
C518 C513 1.363 . S
C518 C517 1.415 . S
C519 H495 0.951 . S
C519 C520 1.366 . S
C519 C521 1.388 . S
C520 C519 1.366 . S
C520 C524 1.385 . S
C521 H496 0.951 . S
C521 C519 1.388 . S
C521 C522 1.366 . S
C522 C521 1.366 . S
C522 C523 1.414 . S
C522 C525 1.499 . S
C523 H497 0.950 . S
C523 C522 1.414 . S
C523 C524 1.374 . S
C524 H498 0.950 . S
C524 C520 1.385 . S
C524 C523 1.374 . S
C525 C522 1.499 . S
C525 C526 1.373 . S
C525 C527 1.389 . S
C526 H499 0.950 . S
C526 C512 1.377 . S
C526 C525 1.373 . S
C527 C511 1.377 . S
C527 C525 1.389 . S
C527 C528 1.524 . S
C528 C527 1.524 . S
C528 C529 1.397 . S
C528 C533 1.363 . S
C529 H500 0.950 . S
C529 C528 1.397 . S
C529 C530 1.334 . S
C530 H501 0.950 . S
C530 C529 1.334 . S
C530 C531 1.287 . S
C531 C530 1.287 . S
C531 C532 1.524 . S
C531 H534 0.999 . S
C532 H502 0.950 . S
C532 C531 1.524 . S
C532 C533 1.415 . S
C533 H503 0.950 . S
C533 C528 1.363 . S
C533 C532 1.415 . S
H534 C531 0.999 . S
H535 C516 0.908 1_655 S
H536 C554 0.951 . S
H537 C556 0.951 . S
H538 C558 0.950 . S
H539 C559 0.950 . S
H540 C561 0.950 . S
H541 C564 0.950 . S
H542 C565 0.950 . S
H543 C567 0.950 . S
H544 C568 0.950 . S
H545 C569 0.951 . S
H546 C571 0.951 . S
H547 C573 0.950 . S
H548 C574 0.950 . S
H549 C576 0.950 . S
H550 C579 0.950 . S
H551 C580 0.950 . S
H552 C582 0.950 . S
H553 C583 0.950 . S
C554 H536 0.951 . S
C554 C555 1.366 . S
C554 C556 1.388 . S
C555 C554 1.366 . S
C555 C559 1.385 . S
C556 H537 0.951 . S
C556 C554 1.388 . S
C556 C557 1.366 . S
C557 C556 1.366 . S
C557 C558 1.414 . S
C557 C560 1.499 . S
C558 H538 0.950 . S
C558 C557 1.414 . S
C558 C559 1.374 . S
C559 H539 0.950 . S
C559 C555 1.385 . S
C559 C558 1.374 . S
C560 C557 1.499 . S
C560 C561 1.373 . S
C560 C562 1.389 . S
C561 H540 0.950 . S
C561 C560 1.373 . S
C561 C577 1.377 . S
C562 C560 1.389 . S
C562 C563 1.524 . S
C562 C576 1.377 . S
C563 C562 1.524 . S
C563 C564 1.397 . S
C563 C568 1.363 . S
C564 H541 0.950 . S
C564 C563 1.397 . S
C564 C565 1.334 . S
C565 H542 0.950 . S
C565 C564 1.334 . S
C565 C566 1.287 . S
C566 C565 1.287 . S
C566 C567 1.524 . S
C566 H585 0.913 . S
C567 H543 0.950 . S
C567 C566 1.524 . S
C567 C568 1.415 . S
C568 H544 0.950 . S
C568 C563 1.363 . S
C568 C567 1.415 . S
C569 H545 0.951 . S
C569 C570 1.366 . S
C569 C571 1.388 . S
C570 C569 1.366 . S
C570 C574 1.385 . S
C571 H546 0.951 . S
C571 C569 1.388 . S
C571 C572 1.366 . S
C572 C571 1.366 . S
C572 C573 1.414 . S
C572 C575 1.499 . S
C573 H547 0.950 . S
C573 C572 1.414 . S
C573 C574 1.374 . S
C574 H548 0.950 . S
C574 C570 1.385 . S
C574 C573 1.374 . S
C575 C572 1.499 . S
C575 C576 1.373 . S
C575 C577 1.389 . S
C576 H549 0.950 . S
C576 C562 1.377 . S
C576 C575 1.373 . S
C577 C561 1.377 . S
C577 C575 1.389 . S
C577 C578 1.524 . S
C578 C577 1.524 . S
C578 C579 1.397 . S
C578 C583 1.363 . S
C579 H550 0.950 . S
C579 C578 1.397 . S
C579 C580 1.334 . S
C580 H551 0.950 . S
C580 C579 1.334 . S
C580 C581 1.287 . S
C581 C580 1.287 . S
C581 C582 1.524 . S
C581 H584 0.999 . S
C582 H552 0.950 . S
C582 C581 1.524 . S
C582 C583 1.415 . S
C583 H553 0.950 . S
C583 C578 1.363 . S
C583 C582 1.415 . S
H584 C581 0.999 . S
H585 C566 0.913 . S
H586 C604 0.951 . S
H587 C606 0.951 . S
H588 C608 0.950 . S
H589 C609 0.950 . S
H590 C611 0.950 1_455 S
H591 C614 0.950 . S
H592 C615 0.950 . S
H593 C617 0.950 . S
H594 C618 0.950 . S
H595 C619 0.951 . S
H596 C621 0.951 . S
H597 C623 0.950 . S
H598 C624 0.950 . S
H599 C626 0.950 . S
H600 C629 0.950 . S
H601 C630 0.950 . S
H602 C632 0.950 . S
H603 C633 0.950 . S
C604 H586 0.951 . S
C604 C605 1.366 1_655 S
C604 C606 1.388 . S
C605 C604 1.366 1_455 S
C605 C609 1.385 . S
C606 H587 0.951 . S
C606 C604 1.388 . S
C606 C607 1.366 . S
C607 C606 1.366 . S
C607 C608 1.414 1_655 S
C607 C610 1.499 . S
C608 H588 0.950 . S
C608 C607 1.414 1_455 S
C608 C609 1.374 . S
C609 H589 0.950 . S
C609 C605 1.385 . S
C609 C608 1.374 . S
C610 C607 1.499 . S
C610 C611 1.373 . S
C610 C612 1.389 . S
C611 H590 0.950 1_655 S
C611 C610 1.373 . S
C611 C627 1.377 . S
C612 C610 1.389 . S
C612 C613 1.524 . S
C612 C626 1.377 . S
C613 C612 1.524 . S
C613 C614 1.397 . S
C613 C618 1.363 . S
C614 H591 0.950 . S
C614 C613 1.397 . S
C614 C615 1.334 . S
C615 H592 0.950 . S
C615 C614 1.334 . S
C615 C616 1.287 . S
C616 C615 1.287 . S
C616 C617 1.524 . S
C616 H635 0.913 . S
C617 H593 0.950 . S
C617 C616 1.524 . S
C617 C618 1.415 . S
C618 H594 0.950 . S
C618 C613 1.363 . S
C618 C617 1.415 . S
C619 H595 0.951 . S
C619 C620 1.366 . S
C619 C621 1.388 . S
C620 C619 1.366 . S
C620 C624 1.385 . S
C621 H596 0.951 . S
C621 C619 1.388 . S
C621 C622 1.366 . S
C622 C621 1.366 . S
C622 C623 1.414 . S
C622 C625 1.499 . S
C623 H597 0.950 . S
C623 C622 1.414 . S
C623 C624 1.374 . S
C624 H598 0.950 . S
C624 C620 1.385 . S
C624 C623 1.374 . S
C625 C622 1.499 . S
C625 C626 1.373 . S
C625 C627 1.389 . S
C626 H599 0.950 . S
C626 C612 1.377 . S
C626 C625 1.373 . S
C627 C611 1.377 . S
C627 C625 1.389 . S
C627 C628 1.523 1_655 S
C628 C627 1.523 1_455 S
C628 C629 1.393 1_455 S
C628 C633 1.368 . S
C629 H600 0.950 . S
C629 C628 1.393 1_655 S
C629 C630 1.334 . S
C630 H601 0.950 . S
C630 C629 1.334 . S
C630 C631 1.287 1_655 S
C631 C630 1.287 1_455 S
C631 C632 1.524 . S
C631 H634 0.999 . S
C632 H602 0.950 . S
C632 C631 1.524 . S
C632 C633 1.415 . S
C633 H603 0.950 . S
C633 C628 1.368 . S
C633 C632 1.415 . S
H634 C631 0.999 . S
H635 C616 0.913 . S
H636 C654 0.951 . S
H637 C656 0.951 . S
H638 C658 0.950 . S
H639 C659 0.950 . S
H640 C661 0.950 . S
H641 C664 0.950 . S
H642 C665 0.950 . S
H643 C667 0.950 . S
H644 C668 0.950 . S
H645 C669 0.951 . S
H646 C671 0.951 . S
H647 C673 0.950 . S
H648 C674 0.950 . S
H649 C676 0.950 . S
H650 C679 0.950 1_565 S
H651 C680 0.950 . S
H652 C682 0.950 . S
H653 C683 0.950 . S
C654 H636 0.951 . S
C654 C655 1.366 . S
C654 C656 1.388 . S
C655 C654 1.366 . S
C655 C659 1.385 . S
C656 H637 0.951 . S
C656 C654 1.388 . S
C656 C657 1.366 . S
C657 C656 1.366 . S
C657 C658 1.414 . S
C657 C660 1.499 . S
C658 H638 0.950 . S
C658 C657 1.414 . S
C658 C659 1.374 . S
C659 H639 0.950 . S
C659 C655 1.385 . S
C659 C658 1.374 . S
C660 C657 1.499 . S
C660 C661 1.373 . S
C660 C662 1.389 . S
C661 H640 0.950 . S
C661 C660 1.373 . S
C661 C677 1.377 . S
C662 C660 1.389 . S
C662 C663 1.524 . S
C662 C676 1.377 . S
C663 C662 1.524 . S
C663 C664 1.397 1_655 S
C663 C668 1.363 . S
C664 H641 0.950 . S
C664 C663 1.397 1_455 S
C664 C665 1.334 . S
C665 H642 0.950 . S
C665 C664 1.334 . S
C665 C666 1.287 . S
C666 C665 1.287 . S
C666 C667 1.524 1_455 S
C666 H685 0.913 . S
C667 H643 0.950 . S
C667 C666 1.524 1_655 S
C667 C668 1.415 . S
C668 H644 0.950 . S
C668 C663 1.363 . S
C668 C667 1.415 . S
C669 H645 0.951 . S
C669 C670 1.366 1_545 S
C669 C671 1.388 . S
C670 C669 1.366 1_565 S
C670 C674 1.385 . S
C671 H646 0.951 . S
C671 C669 1.388 . S
C671 C672 1.366 1_545 S
C672 C671 1.366 1_565 S
C672 C673 1.414 . S
C672 C675 1.499 . S
C673 H647 0.950 . S
C673 C672 1.414 . S
C673 C674 1.374 . S
C674 H648 0.950 . S
C674 C670 1.385 . S
C674 C673 1.374 . S
C675 C672 1.499 . S
C675 C676 1.373 . S
C675 C677 1.389 . S
C676 H649 0.950 . S
C676 C662 1.377 . S
C676 C675 1.373 . S
C677 C661 1.377 . S
C677 C675 1.389 . S
C677 C678 1.524 1_565 S
C678 C677 1.524 1_545 S
C678 C679 1.397 . S
C678 C683 1.363 . S
C679 H650 0.950 1_545 S
C679 C678 1.397 . S
C679 C680 1.334 . S
C680 H651 0.950 . S
C680 C679 1.334 . S
C680 C681 1.287 . S
C681 C680 1.287 . S
C681 C682 1.524 . S
C681 H684 0.999 . S
C682 H652 0.950 . S
C682 C681 1.524 . S
C682 C683 1.415 . S
C683 H653 0.950 . S
C683 C678 1.363 . S
C683 C682 1.415 . S
H684 C681 0.999 . S
H685 C666 0.913 . S
H686 C704 0.951 . S
H687 C706 0.951 . S
H688 C708 0.950 . S
H689 C709 0.950 . S
H690 C711 0.950 . S
H691 C714 0.950 . S
H692 C715 0.950 . S
H693 C717 0.950 . S
H694 C718 0.950 . S
H695 C719 0.951 . S
H696 C721 0.951 . S
H697 C723 0.950 . S
H698 C724 0.950 1_545 S
H699 C726 0.950 . S
H700 C729 0.950 . S
H701 C730 0.950 . S
H702 C732 0.950 . S
H703 C733 0.950 . S
C704 H686 0.951 . S
C704 C705 1.366 . S
C704 C706 1.388 . S
C705 C704 1.366 . S
C705 C709 1.385 . S
C706 H687 0.951 . S
C706 C704 1.388 . S
C706 C707 1.366 . S
C707 C706 1.366 . S
C707 C708 1.414 . S
C707 C710 1.499 . S
C708 H688 0.950 . S
C708 C707 1.414 . S
C708 C709 1.374 . S
C709 H689 0.950 . S
C709 C705 1.385 . S
C709 C708 1.374 . S
C710 C707 1.499 . S
C710 C711 1.373 . S
C710 C712 1.389 . S
C711 H690 0.950 . S
C711 C710 1.373 . S
C711 C727 1.377 . S
C712 C710 1.389 . S
C712 C713 1.524 . S
C712 C726 1.377 . S
C713 C712 1.524 . S
C713 C714 1.397 . S
C713 C718 1.363 1_565 S
C714 H691 0.950 . S
C714 C713 1.397 . S
C714 C715 1.334 1_565 S
C715 H692 0.950 . S
C715 C714 1.334 1_545 S
C715 C716 1.287 . S
C716 C715 1.287 . S
C716 C717 1.524 . S
C716 H735 0.913 . S
C717 H693 0.950 . S
C717 C716 1.524 . S
C717 C718 1.415 . S
C718 H694 0.950 . S
C718 C713 1.363 1_545 S
C718 C717 1.415 . S
C719 H695 0.951 . S
C719 C720 1.366 . S
C719 C721 1.388 . S
C720 C719 1.366 . S
C720 C724 1.385 . S
C721 H696 0.951 . S
C721 C719 1.388 . S
C721 C722 1.366 . S
C722 C721 1.366 . S
C722 C723 1.414 . S
C722 C725 1.499 . S
C723 H697 0.950 . S
C723 C722 1.414 . S
C723 C724 1.374 . S
C724 H698 0.950 1_565 S
C724 C720 1.385 . S
C724 C723 1.374 . S
C725 C722 1.499 . S
C725 C726 1.373 . S
C725 C727 1.389 . S
C726 H699 0.950 . S
C726 C712 1.377 . S
C726 C725 1.373 . S
C727 C711 1.377 . S
C727 C725 1.389 . S
C727 C728 1.524 . S
C728 C727 1.524 . S
C728 C729 1.397 . S
C728 C733 1.363 . S
C729 H700 0.950 . S
C729 C728 1.397 . S
C729 C730 1.334 . S
C730 H701 0.950 . S
C730 C729 1.334 . S
C730 C731 1.287 . S
C731 C730 1.287 . S
C731 C732 1.524 . S
C731 H734 0.999 . S
C732 H702 0.950 . S
C732 C731 1.524 . S
C732 C733 1.415 . S
C733 H703 0.950 . S
C733 C728 1.363 . S
C733 C732 1.415 . S
H734 C731 0.999 . S
H735 C716 0.913 . S
H736 C754 0.951 . S
H737 C756 0.951 1_565 S
H738 C758 0.950 . S
H739 C759 0.950 . S
H740 C761 0.950 . S
H741 C764 0.950 . S
H742 C765 0.950 . S
H743 C767 0.950 . S
H744 C768 0.950 . S
H745 C769 0.951 . S
H746 C771 0.951 . S
H747 C773 0.950 . S
H748 C774 0.950 . S
H749 C776 0.950 . S
H750 C779 0.951 . S
H751 C780 0.950 . S
H752 C782 0.950 . S
H753 C783 0.950 . S
C754 H736 0.951 . S
C754 C755 1.366 . S
C754 C756 1.388 . S
C755 C754 1.366 . S
C755 C759 1.385 . S
C756 H737 0.951 1_545 S
C756 C754 1.388 . S
C756 C757 1.366 . S
C757 C756 1.366 . S
C757 C758 1.414 . S
C757 C760 1.499 . S
C758 H738 0.950 . S
C758 C757 1.414 . S
C758 C759 1.374 . S
C759 H739 0.950 . S
C759 C755 1.385 . S
C759 C758 1.374 . S
C760 C757 1.499 . S
C760 C761 1.373 . S
C760 C762 1.389 1_545 S
C761 H740 0.950 . S
C761 C760 1.373 . S
C761 C777 1.377 1_545 S
C762 C760 1.389 1_565 S
C762 C763 1.524 . S
C762 C776 1.377 . S
C763 C762 1.524 . S
C763 C764 1.397 . S
C763 C768 1.363 . S
C764 H741 0.950 . S
C764 C763 1.397 . S
C764 C765 1.334 . S
C765 H742 0.950 . S
C765 C764 1.334 . S
C765 C766 1.287 . S
C766 C765 1.287 . S
C766 C767 1.524 . S
C766 H785 0.913 . S
C767 H743 0.950 . S
C767 C766 1.524 . S
C767 C768 1.415 . S
C768 H744 0.950 . S
C768 C763 1.363 . S
C768 C767 1.415 . S
C769 H745 0.951 . S
C769 C770 1.366 . S
C769 C771 1.388 . S
C770 C769 1.366 . S
C770 C774 1.385 . S
C771 H746 0.951 . S
C771 C769 1.388 . S
C771 C772 1.366 . S
C772 C771 1.366 . S
C772 C773 1.414 . S
C772 C775 1.499 . S
C773 H747 0.950 . S
C773 C772 1.414 . S
C773 C774 1.374 . S
C774 H748 0.950 . S
C774 C770 1.385 . S
C774 C773 1.374 . S
C775 C772 1.499 . S
C775 C776 1.373 . S
C775 C777 1.389 . S
C776 H749 0.950 . S
C776 C762 1.377 . S
C776 C775 1.373 . S
C777 C761 1.377 1_565 S
C777 C775 1.389 . S
C777 C778 1.524 1_565 S
C778 C777 1.524 1_545 S
C778 C779 1.396 1_545 S
C778 C783 1.363 . S
C779 H750 0.951 . S
C779 C778 1.396 1_565 S
C779 C780 1.333 1_565 S
C780 H751 0.950 . S
C780 C779 1.333 1_545 S
C780 C781 1.287 . S
C781 C780 1.287 . S
C781 C782 1.524 . S
C781 H784 0.999 . S
C782 H752 0.950 . S
C782 C781 1.524 . S
C782 C783 1.415 . S
C783 H753 0.950 . S
C783 C778 1.363 . S
C783 C782 1.415 . S
H784 C781 0.999 . S
H785 C766 0.913 . S
H786 C804 0.951 . S
H787 C806 0.951 . S
H788 C808 0.950 . S
H789 C809 0.950 . S
H790 C811 0.950 . S
H791 C814 0.950 . S
H792 C815 0.950 . S
H793 C817 0.950 . S
H794 C818 0.950 . S
H795 C819 0.951 . S
H796 C821 0.951 . S
H797 C823 0.950 . S
H798 C824 0.950 . S
H799 C826 0.950 . S
H800 C829 0.950 . S
H801 C830 0.950 . S
H802 C832 0.950 . S
H803 C833 0.950 . S
C804 H786 0.951 . S
C804 C805 1.366 . S
C804 C806 1.388 . S
C805 C804 1.366 . S
C805 C809 1.385 . S
C806 H787 0.951 . S
C806 C804 1.388 . S
C806 C807 1.366 . S
C807 C806 1.366 . S
C807 C808 1.414 . S
C807 C810 1.499 . S
C808 H788 0.950 . S
C808 C807 1.414 . S
C808 C809 1.374 . S
C809 H789 0.950 . S
C809 C805 1.385 . S
C809 C808 1.374 . S
C810 C807 1.499 . S
C810 C811 1.373 . S
C810 C812 1.389 . S
C811 H790 0.950 . S
C811 C810 1.373 . S
C811 C827 1.377 . S
C812 C810 1.389 . S
C812 C813 1.524 . S
C812 C826 1.377 . S
C813 C812 1.524 . S
C813 C814 1.397 . S
C813 C818 1.363 . S
C814 H791 0.950 . S
C814 C813 1.397 . S
C814 C815 1.334 . S
C815 H792 0.950 . S
C815 C814 1.334 . S
C815 C816 1.287 . S
C816 C815 1.287 . S
C816 C817 1.524 . S
C816 H835 0.913 . S
C817 H793 0.950 . S
C817 C816 1.524 . S
C817 C818 1.415 . S
C818 H794 0.950 . S
C818 C813 1.363 . S
C818 C817 1.415 . S
C819 H795 0.951 . S
C819 C820 1.366 . S
C819 C821 1.388 . S
C820 C819 1.366 . S
C820 C824 1.385 . S
C821 H796 0.951 . S
C821 C819 1.388 . S
C821 C822 1.366 . S
C822 C821 1.366 . S
C822 C823 1.414 . S
C822 C825 1.499 . S
C823 H797 0.950 . S
C823 C822 1.414 . S
C823 C824 1.374 . S
C824 H798 0.950 . S
C824 C820 1.385 . S
C824 C823 1.374 . S
C825 C822 1.499 . S
C825 C826 1.373 . S
C825 C827 1.389 . S
C826 H799 0.950 . S
C826 C812 1.377 . S
C826 C825 1.373 . S
C827 C811 1.377 . S
C827 C825 1.389 . S
C827 C828 1.524 . S
C828 C827 1.524 . S
C828 C829 1.397 . S
C828 C833 1.363 . S
C829 H800 0.950 . S
C829 C828 1.397 . S
C829 C830 1.334 . S
C830 H801 0.950 . S
C830 C829 1.334 . S
C830 C831 1.287 . S
C831 C830 1.287 . S
C831 C832 1.524 . S
C831 H834 0.999 . S
C832 H802 0.950 . S
C832 C831 1.524 . S
C832 C833 1.415 . S
C833 H803 0.950 . S
C833 C828 1.363 . S
C833 C832 1.415 . S
H834 C831 0.999 . S
H835 C816 0.913 . S
H836 C854 0.951 . S
H837 C856 0.951 . S
H838 C858 0.950 . S
H839 C859 0.950 . S
H840 C861 0.950 . S
H841 C864 0.950 . S
H842 C865 0.950 . S
H843 C867 0.950 . S
H844 C868 0.950 . S
H845 C869 0.951 . S
H846 C871 0.951 . S
H847 C873 0.950 . S
H848 C874 0.950 . S
H849 C876 0.950 . S
H850 C879 0.950 . S
H851 C880 0.950 . S
H852 C882 0.950 . S
H853 C883 0.950 . S
C854 H836 0.951 . S
C854 C855 1.366 . S
C854 C856 1.388 . S
C855 C854 1.366 . S
C855 C859 1.385 . S
C856 H837 0.951 . S
C856 C854 1.388 . S
C856 C857 1.366 . S
C857 C856 1.366 . S
C857 C858 1.414 . S
C857 C860 1.499 . S
C858 H838 0.950 . S
C858 C857 1.414 . S
C858 C859 1.374 . S
C859 H839 0.950 . S
C859 C855 1.385 . S
C859 C858 1.374 . S
C860 C857 1.499 . S
C860 C861 1.373 . S
C860 C862 1.389 . S
C861 H840 0.950 . S
C861 C860 1.373 . S
C861 C877 1.377 . S
C862 C860 1.389 . S
C862 C863 1.524 . S
C862 C876 1.377 . S
C863 C862 1.524 . S
C863 C864 1.397 . S
C863 C868 1.363 . S
C864 H841 0.950 . S
C864 C863 1.397 . S
C864 C865 1.334 . S
C865 H842 0.950 . S
C865 C864 1.334 . S
C865 C866 1.287 . S
C866 C865 1.287 . S
C866 C867 1.524 . S
C866 H885 0.913 . S
C867 H843 0.950 . S
C867 C866 1.524 . S
C867 C868 1.415 . S
C868 H844 0.950 . S
C868 C863 1.363 . S
C868 C867 1.415 . S
C869 H845 0.951 . S
C869 C870 1.366 . S
C869 C871 1.388 . S
C870 C869 1.366 . S
C870 C874 1.385 . S
C871 H846 0.951 . S
C871 C869 1.388 . S
C871 C872 1.366 . S
C872 C871 1.366 . S
C872 C873 1.414 . S
C872 C875 1.499 . S
C873 H847 0.950 . S
C873 C872 1.414 . S
C873 C874 1.374 . S
C874 H848 0.950 . S
C874 C870 1.385 . S
C874 C873 1.374 . S
C875 C872 1.499 . S
C875 C876 1.373 . S
C875 C877 1.389 . S
C876 H849 0.950 . S
C876 C862 1.377 . S
C876 C875 1.373 . S
C877 C861 1.377 . S
C877 C875 1.389 . S
C877 C878 1.524 . S
C878 C877 1.524 . S
C878 C879 1.397 . S
C878 C883 1.363 . S
C879 H850 0.950 . S
C879 C878 1.397 . S
C879 C880 1.334 . S
C880 H851 0.950 . S
C880 C879 1.334 . S
C880 C881 1.287 . S
C881 C880 1.287 . S
C881 C882 1.524 . S
C881 H884 0.999 . S
C882 H852 0.950 . S
C882 C881 1.524 . S
C882 C883 1.415 . S
C883 H853 0.950 . S
C883 C878 1.363 . S
C883 C882 1.415 . S
H884 C881 0.999 . S
H885 C866 0.913 . S
H886 C904 0.951 . S
H887 C906 0.951 . S
H888 C908 0.950 . S
H889 C909 0.950 . S
H890 C911 0.950 . S
H891 C914 0.950 . S
H892 C915 0.950 . S
H893 C917 0.950 . S
H894 C918 0.950 . S
H895 C919 0.951 . S
H896 C921 0.951 . S
H897 C923 0.950 . S
H898 C924 0.950 1_455 S
H899 C926 0.950 . S
H900 C929 0.950 . S
H901 C930 0.950 1_455 S
H902 C932 0.950 . S
H903 C933 0.950 . S
C904 H886 0.951 . S
C904 C905 1.366 . S
C904 C906 1.388 . S
C905 C904 1.366 . S
C905 C909 1.385 . S
C906 H887 0.951 . S
C906 C904 1.388 . S
C906 C907 1.366 . S
C907 C906 1.366 . S
C907 C908 1.414 . S
C907 C910 1.499 . S
C908 H888 0.950 . S
C908 C907 1.414 . S
C908 C909 1.374 . S
C909 H889 0.950 . S
C909 C905 1.385 . S
C909 C908 1.374 . S
C910 C907 1.499 . S
C910 C911 1.373 . S
C910 C912 1.389 . S
C911 H890 0.950 . S
C911 C910 1.373 . S
C911 C927 1.377 . S
C912 C910 1.389 . S
C912 C913 1.524 . S
C912 C926 1.377 . S
C913 C912 1.524 . S
C913 C914 1.397 . S
C913 C918 1.363 . S
C914 H891 0.950 . S
C914 C913 1.397 . S
C914 C915 1.334 . S
C915 H892 0.950 . S
C915 C914 1.334 . S
C915 C916 1.287 . S
C916 C915 1.287 . S
C916 C917 1.524 . S
C916 H935 0.913 . S
C917 H893 0.950 . S
C917 C916 1.524 . S
C917 C918 1.415 . S
C918 H894 0.950 . S
C918 C913 1.363 . S
C918 C917 1.415 . S
C919 H895 0.951 . S
C919 C920 1.366 . S
C919 C921 1.388 . S
C920 C919 1.366 . S
C920 C924 1.385 . S
C921 H896 0.951 . S
C921 C919 1.388 . S
C921 C922 1.366 . S
C922 C921 1.366 . S
C922 C923 1.414 . S
C922 C925 1.499 . S
C923 H897 0.950 . S
C923 C922 1.414 . S
C923 C924 1.374 . S
C924 H898 0.950 1_655 S
C924 C920 1.385 . S
C924 C923 1.374 . S
C925 C922 1.499 . S
C925 C926 1.373 . S
C925 C927 1.389 . S
C926 H899 0.950 . S
C926 C912 1.377 . S
C926 C925 1.373 . S
C927 C911 1.377 . S
C927 C925 1.389 . S
C927 C928 1.524 . S
C928 C927 1.524 . S
C928 C929 1.397 . S
C928 C933 1.363 . S
C929 H900 0.950 . S
C929 C928 1.397 . S
C929 C930 1.334 . S
C930 H901 0.950 1_655 S
C930 C929 1.334 . S
C930 C931 1.287 . S
C931 C930 1.287 . S
C931 C932 1.524 . S
C931 H934 0.999 . S
C932 H902 0.950 . S
C932 C931 1.524 . S
C932 C933 1.415 . S
C933 H903 0.950 . S
C933 C928 1.363 . S
C933 C932 1.415 . S
H934 C931 0.999 . S
H935 C916 0.913 . S
C355 C231 0.877 . S
C370 C74 0.878 . S
C405 C326 0.754 . S
C420 C158 0.717 . S
C455 C242 1.002 . S
C470 C63 1.002 . S
C505 C147 0.782 . S
C520 C315 0.783 . S
C555 C140 2.891 . S
C570 C67 2.961 . S
C605 C151 3.289 . S
C620 C226 3.321 . S
C655 C319 2.418 1_655 S
C670 C238 2.116 1_565 S
C705 C308 2.192 . S
C720 C56 2.076 . S
C755 C224 0.760 . S
C770 C310 0.754 . S
C805 C70 0.816 . S
C820 C322 0.811 . S
C855 C154 0.498 . S
C870 C58 0.900 . S
C905 C235 0.588 . S
C920 C142 1.022 . S
