# Generated by pormake.
# Topology zfj, (5)-cn, num edge types: 1
# Building blocks:
#     Node 0, Type 0, BuildingBlock: XOMCOT_clean_sbu_1, # of connection points: 5
#     Node 1, Type 0, BuildingBlock: XOMCOT_clean_sbu_1, # of connection points: 5
#     Node 2, Type 0, BuildingBlock: XOMCOT_clean_sbu_1, # of connection points: 5
#     Node 3, Type 0, BuildingBlock: XOMCOT_clean_sbu_1, # of connection points: 5
#     Node 4, Type 0, BuildingBlock: XOMCOT_clean_sbu_1, # of connection points: 5
#     Node 5, Type 0, BuildingBlock: XOMCOT_clean_sbu_1, # of connection points: 5
#     Node 6, Type 0, BuildingBlock: XOMCOT_clean_sbu_1, # of connection points: 5
#     Node 7, Type 0, BuildingBlock: XOMCOT_clean_sbu_1, # of connection points: 5
#     Node 8, Type 0, BuildingBlock: XOMCOT_clean_sbu_1, # of connection points: 5
#     Node 9, Type 0, BuildingBlock: XOMCOT_clean_sbu_1, # of connection points: 5
#     Node 10, Type 0, BuildingBlock: XOMCOT_clean_sbu_1, # of connection points: 5
#     Node 11, Type 0, BuildingBlock: XOMCOT_clean_sbu_1, # of connection points: 5
#     Node 12, Type 0, BuildingBlock: XOMCOT_clean_sbu_1, # of connection points: 5
#     Node 13, Type 0, BuildingBlock: XOMCOT_clean_sbu_1, # of connection points: 5
#     Node 14, Type 0, BuildingBlock: XOMCOT_clean_sbu_1, # of connection points: 5
#     Node 15, Type 0, BuildingBlock: XOMCOT_clean_sbu_1, # of connection points: 5
#     Edge 16, Type (0, 0), BuildingBlock: MIFKUJ_clean_linker_0, # of connection points: 2
#     Edge 17, Type (0, 0), BuildingBlock: MIFKUJ_clean_linker_0, # of connection points: 2
#     Edge 18, Type (0, 0), BuildingBlock: MIFKUJ_clean_linker_0, # of connection points: 2
#     Edge 19, Type (0, 0), BuildingBlock: MIFKUJ_clean_linker_0, # of connection points: 2
#     Edge 20, Type (0, 0), BuildingBlock: MIFKUJ_clean_linker_0, # of connection points: 2
#     Edge 21, Type (0, 0), BuildingBlock: MIFKUJ_clean_linker_0, # of connection points: 2
#     Edge 22, Type (0, 0), BuildingBlock: MIFKUJ_clean_linker_0, # of connection points: 2
#     Edge 23, Type (0, 0), BuildingBlock: MIFKUJ_clean_linker_0, # of connection points: 2
#     Edge 24, Type (0, 0), BuildingBlock: MIFKUJ_clean_linker_0, # of connection points: 2
#     Edge 25, Type (0, 0), BuildingBlock: MIFKUJ_clean_linker_0, # of connection points: 2
#     Edge 26, Type (0, 0), BuildingBlock: MIFKUJ_clean_linker_0, # of connection points: 2
#     Edge 27, Type (0, 0), BuildingBlock: MIFKUJ_clean_linker_0, # of connection points: 2
#     Edge 28, Type (0, 0), BuildingBlock: MIFKUJ_clean_linker_0, # of connection points: 2
#     Edge 29, Type (0, 0), BuildingBlock: MIFKUJ_clean_linker_0, # of connection points: 2
#     Edge 30, Type (0, 0), BuildingBlock: MIFKUJ_clean_linker_0, # of connection points: 2
#     Edge 31, Type (0, 0), BuildingBlock: MIFKUJ_clean_linker_0, # of connection points: 2
#     Edge 32, Type (0, 0), BuildingBlock: MIFKUJ_clean_linker_0, # of connection points: 2
#     Edge 33, Type (0, 0), BuildingBlock: MIFKUJ_clean_linker_0, # of connection points: 2
#     Edge 34, Type (0, 0), BuildingBlock: MIFKUJ_clean_linker_0, # of connection points: 2
#     Edge 35, Type (0, 0), BuildingBlock: MIFKUJ_clean_linker_0, # of connection points: 2
#     Edge 36, Type (0, 0), BuildingBlock: MIFKUJ_clean_linker_0, # of connection points: 2
#     Edge 37, Type (0, 0), BuildingBlock: MIFKUJ_clean_linker_0, # of connection points: 2
#     Edge 38, Type (0, 0), BuildingBlock: MIFKUJ_clean_linker_0, # of connection points: 2
#     Edge 39, Type (0, 0), BuildingBlock: MIFKUJ_clean_linker_0, # of connection points: 2
#     Edge 40, Type (0, 0), BuildingBlock: MIFKUJ_clean_linker_0, # of connection points: 2
#     Edge 41, Type (0, 0), BuildingBlock: MIFKUJ_clean_linker_0, # of connection points: 2
#     Edge 42, Type (0, 0), BuildingBlock: MIFKUJ_clean_linker_0, # of connection points: 2
#     Edge 43, Type (0, 0), BuildingBlock: MIFKUJ_clean_linker_0, # of connection points: 2
#     Edge 44, Type (0, 0), BuildingBlock: MIFKUJ_clean_linker_0, # of connection points: 2
#     Edge 45, Type (0, 0), BuildingBlock: MIFKUJ_clean_linker_0, # of connection points: 2
#     Edge 46, Type (0, 0), BuildingBlock: MIFKUJ_clean_linker_0, # of connection points: 2
#     Edge 47, Type (0, 0), BuildingBlock: MIFKUJ_clean_linker_0, # of connection points: 2
#     Edge 48, Type (0, 0), BuildingBlock: MIFKUJ_clean_linker_0, # of connection points: 2
#     Edge 49, Type (0, 0), BuildingBlock: MIFKUJ_clean_linker_0, # of connection points: 2
#     Edge 50, Type (0, 0), BuildingBlock: MIFKUJ_clean_linker_0, # of connection points: 2
#     Edge 51, Type (0, 0), BuildingBlock: MIFKUJ_clean_linker_0, # of connection points: 2
#     Edge 52, Type (0, 0), BuildingBlock: MIFKUJ_clean_linker_0, # of connection points: 2
#     Edge 53, Type (0, 0), BuildingBlock: MIFKUJ_clean_linker_0, # of connection points: 2
#     Edge 54, Type (0, 0), BuildingBlock: MIFKUJ_clean_linker_0, # of connection points: 2
#     Edge 55, Type (0, 0), BuildingBlock: MIFKUJ_clean_linker_0, # of connection points: 2
# Relax obj value: 0.170
# Max RMSD: 0.146
# Mean RMSD: 0.146
data_MOF--net-zfj--node1-XOMCOT_clean_sbu_1--edge1-MIFKUJ_clean_linker_0
_symmetry_space_group_name_H-M    P1
_symmetry_Int_Tables_number       1
_symmetry_cell_setting            triclinic
loop_
_symmetry_equiv_pos_as_xyz
'x, y, z'
_cell_length_a     44.121865
_cell_length_b     44.113444
_cell_length_c     65.49089
_cell_angle_alpha  89.980109
_cell_angle_beta   90.023464
_cell_angle_gamma 90.022755
loop_
_atom_site_label
_atom_site_type_symbol
_atom_site_fract_x
_atom_site_fract_y
_atom_site_fract_z
_atom_type_partial_charge
C0 C 0.50539 0.23472 0.17066 0.0
C1 C 0.5008 0.26486 0.17506 0.0
N2 N 0.49068 0.27875 0.15806 0.0
N3 N 0.49795 0.22942 0.15102 0.0
C4 C 0.48909 0.25674 0.14373 0.0
H5 H 0.51463 0.218 0.18099 0.0
Co6 Co 0.50287 0.19226 0.13769 0.0
C7 C 0.45851 0.19428 0.10447 0.0
O8 O 0.44794 0.16781 0.11031 0.0
N9 N 0.50842 0.15459 0.12421 0.0
C10 C 0.52102 0.1207 0.10042 0.0
C11 C 0.5186 0.15108 0.10488 0.0
C12 C 0.50465 0.12585 0.13108 0.0
N13 N 0.51215 0.10488 0.11692 0.0
O14 O 0.46687 0.17768 0.15088 0.0
H15 H 0.52398 0.16949 0.09459 0.0
H16 H 0.4971 0.12006 0.14626 0.0
O17 O 0.47986 0.20682 0.11451 0.0
C18 C 0.47321 0.16502 0.16784 0.0
O19 O 0.50185 0.1622 0.17306 0.0
N20 N 0.53911 0.20638 0.12655 0.0
C21 C 0.5968 0.22605 0.11553 0.0
C22 C 0.57095 0.23921 0.10672 0.0
C23 C 0.54215 0.22896 0.11241 0.0
C24 C 0.56392 0.19337 0.13522 0.0
C25 C 0.59301 0.20266 0.1298 0.0
H26 H 0.52249 0.23965 0.10575 0.0
H27 H 0.561 0.17592 0.14666 0.0
H28 H 0.48222 0.26066 0.12811 0.0
H29 H 0.50592 0.27595 0.18939 0.0
H30 H 0.52837 0.11101 0.08607 0.0
H31 H 0.57299 0.25733 0.09564 0.0
H32 H 0.61233 0.19227 0.13723 0.0
C33 C 0.2601 0.54487 0.66209 0.0
C34 C 0.22913 0.54757 0.66161 0.0
N35 N 0.21751 0.52332 0.6518 0.0
N36 N 0.26832 0.51922 0.65243 0.0
C37 C 0.2419 0.50646 0.64635 0.0
H38 H 0.27568 0.5606 0.66918 0.0
Co39 Co 0.30834 0.50569 0.64989 0.0
C40 C 0.31524 0.48615 0.60729 0.0
O41 O 0.34206 0.49912 0.60755 0.0
N42 N 0.3489 0.4911 0.64789 0.0
C43 C 0.3853 0.45651 0.64404 0.0
C44 C 0.35468 0.46145 0.64439 0.0
C45 C 0.3769 0.50365 0.64978 0.0
N46 N 0.39939 0.48307 0.64743 0.0
O47 O 0.29821 0.46922 0.66429 0.0
H48 H 0.33756 0.44434 0.64176 0.0
H49 H 0.38113 0.52723 0.65296 0.0
O50 O 0.29859 0.4869 0.62333 0.0
C51 C 0.29443 0.47266 0.68345 0.0
O52 O 0.29332 0.50032 0.69083 0.0
N53 N 0.31808 0.543 0.63754 0.0
C54 C 0.32129 0.60481 0.62823 0.0
C55 C 0.30574 0.58465 0.61537 0.0
C56 C 0.30405 0.55392 0.62043 0.0
C57 C 0.33347 0.56224 0.65007 0.0
C58 C 0.33617 0.59295 0.64541 0.0
H59 H 0.2891 0.53972 0.61156 0.0
H60 H 0.34172 0.55419 0.66464 0.0
H61 H 0.24066 0.48493 0.6385 0.0
H62 H 0.21631 0.56622 0.66795 0.0
H63 H 0.39628 0.43505 0.64101 0.0
H64 H 0.29287 0.59281 0.60241 0.0
H65 H 0.34832 0.60753 0.65589 0.0
C66 C 0.99094 0.26046 0.17504 0.0
C67 C 0.98928 0.22946 0.17665 0.0
N68 N 0.99854 0.21732 0.15886 0.0
N69 N 0.00143 0.2679 0.1564 0.0
C70 C 0.00571 0.2411 0.14677 0.0
H71 H 0.98491 0.27664 0.18675 0.0
Co72 Co 0.00784 0.30781 0.14857 0.0
C73 C 0.02843 0.30699 0.10587 0.0
O74 O 0.0112 0.33094 0.10305 0.0
N75 N 0.01503 0.34895 0.1416 0.0
C76 C 0.04265 0.39021 0.13529 0.0
C77 C 0.04299 0.35923 0.13667 0.0
C78 C 0.99812 0.3745 0.14333 0.0
N79 N 0.01445 0.3998 0.13955 0.0
O80 O 0.04476 0.30838 0.16426 0.0
H81 H 0.06278 0.34504 0.13481 0.0
H82 H 0.9749 0.37505 0.14845 0.0
O83 O 0.02955 0.29455 0.12359 0.0
C84 C 0.03977 0.32227 0.18101 0.0
O85 O 0.01216 0.33209 0.18462 0.0
N86 N 0.97 0.30713 0.13522 0.0
C87 C 0.90962 0.30213 0.12268 0.0
C88 C 0.93272 0.28698 0.11211 0.0
C89 C 0.96268 0.28926 0.11886 0.0
C90 C 0.94764 0.32097 0.1461 0.0
C91 C 0.91744 0.31936 0.13988 0.0
H92 H 0.97947 0.27536 0.11144 0.0
H93 H 0.95312 0.33219 0.1603 0.0
H94 H 0.01423 0.23895 0.13136 0.0
H95 H 0.98148 0.2168 0.18981 0.0
H96 H 0.06186 0.40463 0.13192 0.0
H97 H 0.92762 0.27277 0.09907 0.0
H98 H 0.9002 0.33026 0.14908 0.0
C99 C 0.23151 0.0149 0.67175 0.0
C100 C 0.26228 0.01863 0.67393 0.0
N101 N 0.27458 0.02136 0.65521 0.0
N102 N 0.22422 0.01562 0.65174 0.0
C103 C 0.25104 0.01959 0.64207 0.0
H104 H 0.21589 0.0104 0.68405 0.0
Co105 Co 0.18614 0.00742 0.64027 0.0
C106 C 0.18377 0.04867 0.60504 0.0
O107 O 0.15773 0.05952 0.61146 0.0
N108 N 0.14798 0.99859 0.62854 0.0
C109 C 0.11336 0.9832 0.60612 0.0
C110 C 0.14376 0.98684 0.60973 0.0
C111 C 0.11955 0.0019 0.63604 0.0
N112 N 0.09793 0.99278 0.62266 0.0
O113 O 0.17063 0.04391 0.65242 0.0
H114 H 0.16169 0.98139 0.59911 0.0
H115 H 0.11473 0.01121 0.65091 0.0
O116 O 0.19757 0.02869 0.6156 0.0
C117 C 0.16138 0.03821 0.67046 0.0
O118 O 0.16046 0.00976 0.67643 0.0
N119 N 0.20139 0.97081 0.63043 0.0
C120 C 0.22725 0.91409 0.62385 0.0
C121 C 0.23248 0.93795 0.61011 0.0
C122 C 0.21939 0.96632 0.61372 0.0
C123 C 0.19525 0.94766 0.64349 0.0
C124 C 0.20785 0.91909 0.64048 0.0
H125 H 0.22449 0.98464 0.60339 0.0
H126 H 0.18111 0.95176 0.6567 0.0
H127 H 0.25346 0.02012 0.62565 0.0
H128 H 0.2748 0.01754 0.68813 0.0
H129 H 0.10361 0.9739 0.59233 0.0
H130 H 0.24739 0.93503 0.59713 0.0
H131 H 0.20274 0.90115 0.65124 0.0
C132 C 0.51396 0.27464 0.83724 0.0
C133 C 0.51314 0.24433 0.83262 0.0
N134 N 0.49791 0.22981 0.84753 0.0
N135 N 0.49906 0.27952 0.85488 0.0
C136 C 0.48937 0.25172 0.86079 0.0
H137 H 0.52618 0.29178 0.8288 0.0
Co138 Co 0.49993 0.31692 0.86822 0.0
C139 C 0.45578 0.31111 0.90139 0.0
O140 O 0.44346 0.33695 0.89584 0.0
N141 N 0.50188 0.35477 0.88144 0.0
C142 C 0.51215 0.39006 0.90472 0.0
C143 C 0.51059 0.35945 0.90097 0.0
C144 C 0.49816 0.38296 0.87365 0.0
N145 N 0.50432 0.40481 0.88752 0.0
O146 O 0.46292 0.32821 0.85471 0.0
H147 H 0.51608 0.34167 0.91173 0.0
H148 H 0.49214 0.38752 0.85795 0.0
O149 O 0.47787 0.30023 0.89122 0.0
C150 C 0.46826 0.33782 0.83672 0.0
O151 O 0.4966 0.3411 0.83098 0.0
N152 N 0.53696 0.3061 0.87975 0.0
C153 C 0.59577 0.28834 0.88943 0.0
C154 C 0.57079 0.27358 0.89823 0.0
C155 C 0.54142 0.28273 0.8931 0.0
C156 C 0.56089 0.32129 0.87158 0.0
C157 C 0.5905 0.31297 0.87634 0.0
H158 H 0.52247 0.2701 0.89915 0.0
H159 H 0.55687 0.3394 0.86076 0.0
H160 H 0.4781 0.24727 0.87515 0.0
H161 H 0.52387 0.23367 0.81961 0.0
H162 H 0.51864 0.40067 0.91897 0.0
H163 H 0.57385 0.25421 0.90819 0.0
H164 H 0.6091 0.32526 0.86941 0.0
C165 C 0.26628 0.52963 0.34338 0.0
C166 C 0.29715 0.53306 0.34351 0.0
N167 N 0.309 0.51355 0.35719 0.0
N168 N 0.25835 0.50802 0.35688 0.0
C169 C 0.28489 0.49841 0.36504 0.0
H170 H 0.25045 0.54224 0.33406 0.0
Co171 Co 0.21775 0.49799 0.36119 0.0
C172 C 0.21153 0.47868 0.40376 0.0
O173 O 0.18608 0.49413 0.40399 0.0
N174 N 0.17617 0.48725 0.36453 0.0
C175 C 0.13657 0.45651 0.36904 0.0
C176 C 0.16752 0.45824 0.3679 0.0
C177 C 0.14957 0.50264 0.3634 0.0
N178 N 0.12517 0.48447 0.36623 0.0
O179 O 0.22327 0.46092 0.34642 0.0
H180 H 0.18287 0.43932 0.36964 0.0
H181 H 0.14776 0.52669 0.36083 0.0
O182 O 0.22767 0.47803 0.38746 0.0
C183 C 0.22023 0.46506 0.32728 0.0
O184 O 0.21716 0.49298 0.32058 0.0
N185 N 0.21288 0.53598 0.37401 0.0
C186 C 0.21736 0.59745 0.38435 0.0
C187 C 0.23175 0.57514 0.39617 0.0
C188 C 0.22957 0.54468 0.39062 0.0
C189 C 0.19883 0.55732 0.36234 0.0
C190 C 0.19996 0.58798 0.36755 0.0
H191 H 0.24363 0.52866 0.39869 0.0
H192 H 0.18842 0.55081 0.34805 0.0
H193 H 0.28646 0.48108 0.37668 0.0
H194 H 0.30988 0.54853 0.33397 0.0
H195 H 0.12353 0.43606 0.37148 0.0
H196 H 0.24651 0.58119 0.40874 0.0
H197 H 0.18848 0.60419 0.35784 0.0
C198 C 0.96815 0.23358 0.85105 0.0
C199 C 0.96769 0.26459 0.84971 0.0
N200 N 0.9904 0.27562 0.86124 0.0
N201 N 0.9911 0.22492 0.86333 0.0
C202 C 0.00424 0.25111 0.86947 0.0
H203 H 0.95311 0.2182 0.84313 0.0
Co204 Co 0.00129 0.18431 0.86746 0.0
C205 C 0.02047 0.17861 0.91036 0.0
O206 O 0.00528 0.15299 0.91087 0.0
N207 N 0.01217 0.14301 0.87074 0.0
C208 C 0.04224 0.10328 0.87651 0.0
C209 C 0.04071 0.1343 0.87553 0.0
C210 C 0.99702 0.11649 0.8682 0.0
N211 N 0.01476 0.09214 0.87187 0.0
O212 O 0.03844 0.19022 0.85272 0.0
H213 H 0.05936 0.14967 0.87831 0.0
H214 H 0.97354 0.11462 0.86385 0.0
O215 O 0.02097 0.19436 0.89387 0.0
C216 C 0.0339 0.19174 0.83352 0.0
O217 O 0.00592 0.19092 0.82669 0.0
N218 N 0.96329 0.17885 0.87999 0.0
C219 C 0.90161 0.18269 0.88919 0.0
C220 C 0.92326 0.19587 0.90209 0.0
C221 C 0.95394 0.1943 0.89698 0.0
C222 C 0.94247 0.16559 0.86749 0.0
C223 C 0.91161 0.1667 0.87199 0.0
H224 H 0.96956 0.20791 0.90572 0.0
H225 H 0.94957 0.15637 0.85297 0.0
H226 H 0.02409 0.25219 0.87915 0.0
H227 H 0.95189 0.27804 0.84088 0.0
H228 H 0.06216 0.08989 0.87996 0.0
H229 H 0.91642 0.20951 0.91504 0.0
H230 H 0.89561 0.15672 0.86139 0.0
C231 C 0.26787 0.96731 0.34802 0.0
C232 C 0.23711 0.96349 0.34637 0.0
N233 N 0.2234 0.98574 0.35701 0.0
N234 N 0.27361 0.99179 0.35968 0.0
C235 C 0.24608 0.00276 0.36482 0.0
H236 H 0.28507 0.95288 0.34141 0.0
Co237 Co 0.31239 0.00408 0.36679 0.0
C238 C 0.30781 0.03049 0.40781 0.0
O239 O 0.33313 0.01609 0.41205 0.0
N240 N 0.35214 0.01712 0.37296 0.0
C241 C 0.38918 0.05041 0.37836 0.0
C242 C 0.35851 0.04643 0.37717 0.0
C243 C 0.37974 0.00397 0.37095 0.0
N244 N 0.4027 0.02375 0.37428 0.0
O245 O 0.30915 0.03782 0.34856 0.0
H246 H 0.34178 0.06419 0.37871 0.0
H247 H 0.38322 0.981 0.36588 0.0
O248 O 0.29625 0.02815 0.3899 0.0
C249 C 0.31542 0.02942 0.33044 0.0
O250 O 0.32117 1.0006 0.32718 0.0
N251 N 0.31537 0.96886 0.38318 0.0
C252 C 0.30749 0.90934 0.39692 0.0
C253 C 0.29123 0.93319 0.40575 0.0
C254 C 0.29504 0.96263 0.39843 0.0
C255 C 0.33192 0.94591 0.37481 0.0
C256 C 0.32881 0.91609 0.38172 0.0
H257 H 0.27922 0.97951 0.4037 0.0
H258 H 0.34503 0.94998 0.36118 0.0
H259 H 0.2427 0.02226 0.37455 0.0
H260 H 0.22575 0.94566 0.33799 0.0
H261 H 0.40051 0.07164 0.38155 0.0
H262 H 0.27403 0.92883 0.41718 0.0
H263 H 0.34089 0.89814 0.3739 0.0
C264 C 0.46851 0.76761 0.84262 0.0
C265 C 0.46499 0.73676 0.84334 0.0
N266 N 0.48404 0.72551 0.85754 0.0
N267 N 0.48977 0.77608 0.85623 0.0
C268 C 0.49899 0.74991 0.86508 0.0
H269 H 0.45626 0.78305 0.83279 0.0
Co270 Co 0.50043 0.81662 0.86026 0.0
C271 C 0.51405 0.82273 0.90383 0.0
O272 O 0.4989 0.84836 0.90326 0.0
N273 N 0.51187 0.85792 0.86367 0.0
C274 C 0.54317 0.89694 0.86877 0.0
C275 C 0.54055 0.86596 0.86862 0.0
C276 C 0.4975 0.88484 0.8609 0.0
N277 N 0.51607 0.90881 0.86392 0.0
O278 O 0.53898 0.80944 0.84757 0.0
H279 H 0.55865 0.85018 0.87191 0.0
H280 H 0.47423 0.88733 0.85624 0.0
O281 O 0.51709 0.80706 0.88748 0.0
C282 C 0.53731 0.80735 0.8282 0.0
O283 O 0.51052 0.80827 0.81949 0.0
N284 N 0.46125 0.82307 0.87087 0.0
C285 C 0.39876 0.8226 0.87832 0.0
C286 C 0.41886 0.80719 0.8913 0.0
C287 C 0.44987 0.8073 0.88715 0.0
C288 C 0.442 0.83763 0.8579 0.0
C289 C 0.41091 0.83858 0.86168 0.0
H290 H 0.46418 0.79257 0.89609 0.0
H291 H 0.45055 0.8469 0.84375 0.0
H292 H 0.51587 0.74886 0.87705 0.0
H293 H 0.44973 0.72366 0.83388 0.0
H294 H 0.56345 0.90976 0.87224 0.0
H295 H 0.41062 0.79326 0.90373 0.0
H296 H 0.39644 0.85053 0.85103 0.0
C297 C 0.76353 0.53457 0.33288 0.0
C298 C 0.79381 0.54179 0.33286 0.0
N299 N 0.80585 0.53309 0.35082 0.0
N300 N 0.75616 0.52153 0.35085 0.0
C301 C 0.7825 0.52109 0.3615 0.0
H302 H 0.74843 0.53744 0.32006 0.0
Co303 Co 0.71867 0.50379 0.35767 0.0
C304 C 0.7068 0.5456 0.39338 0.0
O305 O 0.68413 0.5605 0.38514 0.0
N306 N 0.68097 0.48565 0.36409 0.0
C307 C 0.64464 0.45079 0.36643 0.0
C308 C 0.67496 0.45566 0.36308 0.0
C309 C 0.65359 0.49854 0.36765 0.0
N310 N 0.63106 0.47779 0.36922 0.0
O311 O 0.69779 0.53657 0.3444 0.0
H312 H 0.69128 0.43832 0.35924 0.0
H313 H 0.64996 0.52271 0.3682 0.0
O314 O 0.7201 0.52459 0.38354 0.0
C315 C 0.68995 0.52841 0.32648 0.0
O316 O 0.6962 0.50057 0.32069 0.0
N317 N 0.73903 0.47073 0.36926 0.0
C318 C 0.76605 0.41699 0.38226 0.0
C319 C 0.75027 0.43546 0.39608 0.0
C320 C 0.73688 0.46232 0.38929 0.0
C321 C 0.7546 0.45334 0.35568 0.0
C322 C 0.76848 0.42649 0.36187 0.0
H323 H 0.72369 0.47552 0.39996 0.0
H324 H 0.75549 0.45999 0.33979 0.0
H325 H 0.78475 0.51107 0.37651 0.0
H326 H 0.80635 0.55101 0.32008 0.0
H327 H 0.63325 0.42908 0.3657 0.0
H328 H 0.74763 0.42882 0.41188 0.0
H329 H 0.77979 0.41263 0.35056 0.0
C330 C 0.00161 0.73041 0.83168 0.0
C331 C 0.99704 0.76084 0.82832 0.0
N332 N 0.98531 0.773 0.84542 0.0
N333 N 0.99244 0.72321 0.85073 0.0
C334 C 0.98257 0.74974 0.8587 0.0
H335 H 0.01253 0.71498 0.82122 0.0
Co336 Co 0.99785 0.68544 0.86333 0.0
C337 C 0.95312 0.68686 0.89675 0.0
O338 O 0.94065 0.66179 0.8899 0.0
N339 N 0.00372 0.64765 0.8761 0.0
C340 C 0.01556 0.61363 0.89982 0.0
C341 C 0.0129 0.64395 0.89559 0.0
C342 C 0.00098 0.61908 0.86878 0.0
N343 N 0.00796 0.5978 0.88297 0.0
O344 O 0.96184 0.6709 0.84999 0.0
H345 H 0.01761 0.66225 0.90612 0.0
H346 H 0.99384 0.61401 0.85338 0.0
O347 O 0.97517 0.69877 0.88704 0.0
C348 C 0.96835 0.66181 0.83205 0.0
O349 O 0.99694 0.66095 0.82649 0.0
N350 N 0.03414 0.6995 0.87457 0.0
C351 C 0.09129 0.72111 0.88513 0.0
C352 C 0.06517 0.73413 0.89355 0.0
C353 C 0.0367 0.7229 0.88812 0.0
C354 C 0.05929 0.68637 0.86642 0.0
C355 C 0.08816 0.69661 0.87167 0.0
H356 H 0.01688 0.73378 0.89427 0.0
H357 H 0.05682 0.6683 0.85538 0.0
H358 H 0.97467 0.75237 0.87422 0.0
H359 H 0.00374 0.77343 0.81487 0.0
H360 H 0.02308 0.60421 0.91419 0.0
H361 H 0.06673 0.75315 0.90396 0.0
H362 H 0.10779 0.6863 0.86457 0.0
C363 C 0.7673 0.04128 0.34305 0.0
C364 C 0.7365 0.04541 0.34253 0.0
N365 N 0.72336 0.02322 0.35358 0.0
N366 N 0.77373 0.01668 0.35444 0.0
C367 C 0.7465 0.00598 0.36057 0.0
H368 H 0.78399 0.0551 0.33533 0.0
Co369 Co 0.81265 0.00194 0.35895 0.0
C370 C 0.81431 0.98213 0.40188 0.0
O371 O 0.84157 0.99402 0.40309 0.0
N372 N 0.85215 0.98629 0.36291 0.0
C373 C 0.8878 0.95165 0.36885 0.0
C374 C 0.85728 0.9567 0.36704 0.0
C375 C 0.88027 0.9986 0.36196 0.0
N376 N 0.90234 0.97804 0.36564 0.0
O377 O 0.80279 0.9657 0.34423 0.0
H378 H 0.83977 0.93978 0.369 0.0
H379 H 0.88484 0.02197 0.35838 0.0
O380 O 0.79957 0.98369 0.38503 0.0
C381 C 0.80207 0.96991 0.32498 0.0
O382 O 0.8054 0.99758 0.31792 0.0
N383 N 0.82227 0.03912 0.37147 0.0
C384 C 0.8271 0.10078 0.38071 0.0
C385 C 0.81074 0.08118 0.39348 0.0
C386 C 0.80807 0.05053 0.38838 0.0
C387 C 0.83827 0.05793 0.35898 0.0
C388 C 0.8416 0.08859 0.36354 0.0
H389 H 0.79249 0.03685 0.3971 0.0
H390 H 0.84673 0.04949 0.34457 0.0
H391 H 0.74375 0.986 0.36997 0.0
H392 H 0.72471 0.06301 0.3342 0.0
H393 H 0.89831 0.93022 0.37262 0.0
H394 H 0.79815 0.08984 0.40642 0.0
H395 H 0.85411 0.10291 0.35308 0.0
C396 C 0.46585 0.74423 0.16316 0.0
C397 C 0.46426 0.77527 0.16254 0.0
N398 N 0.48344 0.78537 0.14803 0.0
N399 N 0.48597 0.73454 0.14916 0.0
C400 C 0.49652 0.76013 0.14021 0.0
H401 H 0.45275 0.72951 0.17299 0.0
Co402 Co 0.49313 0.69344 0.14431 0.0
C403 C 0.50716 0.68833 0.10074 0.0
O404 O 0.4895 0.66432 0.10077 0.0
N405 N 0.50129 0.65156 0.14016 0.0
C406 C 0.52992 0.61143 0.13263 0.0
C407 C 0.52903 0.64237 0.13386 0.0
C408 C 0.48598 0.62522 0.14332 0.0
N409 N 0.50288 0.60061 0.13855 0.0
O410 O 0.53145 0.69641 0.15788 0.0
H411 H 0.54768 0.65738 0.13031 0.0
H412 H 0.46305 0.62373 0.14893 0.0
O413 O 0.51165 0.70285 0.11745 0.0
C414 C 0.52831 0.69491 0.1772 0.0
O415 O 0.50076 0.69428 0.18478 0.0
N416 N 0.45388 0.69113 0.13277 0.0
C417 C 0.39232 0.70022 0.12451 0.0
C418 C 0.41462 0.71372 0.11233 0.0
C419 C 0.44514 0.70949 0.11697 0.0
C420 C 0.43242 0.67757 0.14467 0.0
C421 C 0.40151 0.6813 0.14057 0.0
H422 H 0.46136 0.72323 0.10885 0.0
H423 H 0.43913 0.66606 0.15851 0.0
H424 H 0.51273 0.76023 0.12781 0.0
H425 H 0.45005 0.78928 0.17213 0.0
H426 H 0.54919 0.59781 0.12808 0.0
H427 H 0.40854 0.72891 0.09999 0.0
H428 H 0.38502 0.67138 0.15084 0.0
C429 C 0.7663 0.46302 0.66052 0.0
C430 C 0.73592 0.46306 0.66495 0.0
N431 N 0.72203 0.4829 0.65241 0.0
N432 N 0.77181 0.48288 0.64533 0.0
C433 C 0.74436 0.49484 0.64076 0.0
H434 H 0.78314 0.44829 0.66726 0.0
Co435 Co 0.8096 0.48575 0.63266 0.0
C436 C 0.80096 0.53467 0.60238 0.0
O437 O 0.8248 0.54914 0.60942 0.0
N438 N 0.84781 0.48784 0.62012 0.0
C439 C 0.88472 0.48463 0.5971 0.0
C440 C 0.85388 0.48384 0.60009 0.0
C441 C 0.87534 0.49098 0.62898 0.0
N442 N 0.8982 0.48913 0.6153 0.0
O443 O 0.81881 0.52096 0.64883 0.0
H444 H 0.83693 0.48 0.58843 0.0
H445 H 0.87868 0.49354 0.64524 0.0
O446 O 0.79249 0.51008 0.61086 0.0
C447 C 0.82728 0.51315 0.6667 0.0
O448 O 0.82989 0.48411 0.67079 0.0
N449 N 0.80091 0.45017 0.61837 0.0
C450 C 0.78498 0.3927 0.60445 0.0
C451 C 0.76823 0.41825 0.59853 0.0
C452 C 0.77655 0.44686 0.60568 0.0
C453 C 0.81799 0.42575 0.62378 0.0
C454 C 0.81061 0.39679 0.61682 0.0
H455 H 0.76238 0.46598 0.60189 0.0
H456 H 0.83669 0.42864 0.63429 0.0
H457 H 0.74048 0.51051 0.62831 0.0
H458 H 0.7248 0.44885 0.67615 0.0
H459 H 0.89631 0.48205 0.58264 0.0
H460 H 0.74827 0.41599 0.589 0.0
H461 H 0.82383 0.37759 0.62202 0.0
C462 C 0.01147 0.76207 0.16238 0.0
C463 C 0.01341 0.73138 0.16525 0.0
N464 N 0.99379 0.71767 0.15244 0.0
N465 N 0.99064 0.76798 0.1479 0.0
C466 C 0.98008 0.74049 0.14213 0.0
H467 H 0.02455 0.77915 0.17031 0.0
Co468 Co 0.98211 0.80726 0.13943 0.0
C469 C 0.9613 0.80325 0.09676 0.0
O470 O 0.97699 0.82792 0.09292 0.0
N471 N 0.97304 0.84769 0.13186 0.0
C472 C 0.94468 0.88742 0.123 0.0
C473 C 0.94513 0.8566 0.12573 0.0
C474 C 0.9888 0.87398 0.13352 0.0
N475 N 0.97213 0.89834 0.12796 0.0
O476 O 0.94489 0.80638 0.15439 0.0
H477 H 0.92598 0.84157 0.12371 0.0
H478 H 0.01171 0.87568 0.13912 0.0
O479 O 0.96142 0.79185 0.11477 0.0
C480 C 0.94822 0.81067 0.17349 0.0
O481 O 0.97575 0.81389 0.18082 0.0
N482 N 0.02016 0.80771 0.12621 0.0
C483 C 0.0811 0.79664 0.11711 0.0
C484 C 0.058 0.78241 0.106 0.0
C485 C 0.02775 0.78778 0.11102 0.0
C486 C 0.04242 0.82214 0.1369 0.0
C487 C 0.073 0.81741 0.13236 0.0
H488 H 0.01096 0.77357 0.10389 0.0
H489 H 0.03664 0.83508 0.15034 0.0
H490 H 0.96315 0.73727 0.13039 0.0
H491 H 0.02803 0.72013 0.17614 0.0
H492 H 0.92526 0.90093 0.11861 0.0
H493 H 0.06328 0.76579 0.09436 0.0
H494 H 0.09012 0.82799 0.14184 0.0
C495 C 0.73177 0.02206 0.65916 0.0
C496 C 0.76266 0.02457 0.66066 0.0
N497 N 0.77535 0.00361 0.6484 0.0
N498 N 0.7248 0.99962 0.64602 0.0
C499 C 0.75186 0.98878 0.6396 0.0
H500 H 0.7153 0.0357 0.66721 0.0
Co501 Co 0.68481 0.98878 0.64057 0.0
C502 C 0.68254 0.96751 0.59808 0.0
O503 O 0.65652 0.98182 0.59651 0.0
N504 N 0.64384 0.97736 0.63608 0.0
C505 C 0.60455 0.94676 0.6301 0.0
C506 C 0.63549 0.9485 0.6319 0.0
C507 C 0.61716 0.99254 0.63736 0.0
N508 N 0.59305 0.97448 0.63357 0.0
O509 O 0.68999 0.95226 0.65599 0.0
H510 H 0.65104 0.92974 0.63015 0.0
H511 H 0.61501 0.01627 0.64094 0.0
O512 O 0.69711 0.96812 0.61504 0.0
C513 C 0.68793 0.95648 0.67519 0.0
O514 O 0.6845 0.9843 0.68195 0.0
N515 N 0.68022 0.0262 0.62693 0.0
C516 C 0.68366 0.08696 0.6149 0.0
C517 C 0.69868 0.06432 0.60382 0.0
C518 C 0.69721 0.03425 0.61031 0.0
C519 C 0.66559 0.04796 0.63792 0.0
C520 C 0.66637 0.07832 0.63191 0.0
H521 H 0.71198 0.01821 0.60293 0.0
H522 H 0.6551 0.04212 0.6523 0.0
H523 H 0.75432 0.97011 0.62902 0.0
H524 H 0.77487 0.04085 0.66991 0.0
H525 H 0.59146 0.92654 0.62693 0.0
H526 H 0.71347 0.06999 0.59119 0.0
H527 H 0.6548 0.09504 0.64117 0.0
H528 H 0.43493 0.16394 0.07182 0.0
H529 H 0.42771 0.18337 0.0371 0.0
H530 H 0.45522 0.27239 0.0569 0.0
H531 H 0.46334 0.25299 0.09157 0.0
H532 H 0.3995 0.26532 0.02722 0.0
H533 H 0.50651 0.24069 0.0382 0.0
H534 H 0.54675 0.20549 0.04918 0.0
H535 H 0.51722 0.14045 0.00462 0.0
H536 H 0.47636 0.17507 0.99369 0.0
H537 H 0.43828 0.34087 0.93574 0.0
H538 H 0.43283 0.32009 0.97003 0.0
H539 H 0.45045 0.23025 0.94666 0.0
H540 H 0.45813 0.25153 0.91252 0.0
H541 H 0.48007 0.23497 0.97851 0.0
H542 H 0.37651 0.25789 0.96472 0.0
H543 H 0.33266 0.28879 0.95414 0.0
H544 H 0.35036 0.35152 0.00282 0.0
H545 H 0.39455 0.32121 0.01354 0.0
C546 C 0.43886 0.18779 0.06889 0.0
C547 C 0.44978 0.20695 0.0844 0.0
C548 C 0.43477 0.19881 0.04906 0.0
C549 C 0.44095 0.22926 0.04452 0.0
C550 C 0.4502 0.24885 0.06019 0.0
C551 C 0.45493 0.23771 0.07993 0.0
C552 C 0.44059 0.23993 0.02309 0.0
C553 C 0.41716 0.259 0.01652 0.0
C554 C 0.46312 0.23073 0.00911 0.0
C555 C 0.48818 0.21031 0.01529 0.0
C556 C 0.50844 0.21878 0.03087 0.0
C557 C 0.53138 0.19895 0.03707 0.0
C558 C 0.53449 0.17071 0.02764 0.0
C559 C 0.51474 0.16231 0.01194 0.0
C560 C 0.49169 0.18202 0.00573 0.0
C561 C 0.44047 0.31662 0.93788 0.0
C562 C 0.44837 0.29776 0.92146 0.0
C563 C 0.43719 0.30466 0.95753 0.0
C564 C 0.44061 0.27339 0.96107 0.0
C565 C 0.44768 0.25443 0.94446 0.0
C566 C 0.45188 0.26654 0.92491 0.0
C567 C 0.43886 0.26083 0.98223 0.0
C568 C 0.46205 0.2413 0.98892 0.0
C569 C 0.41565 0.26915 0.99618 0.0
C570 C 0.389 0.28739 0.98983 0.0
C571 C 0.37117 0.27838 0.97309 0.0
C572 C 0.34623 0.29577 0.96708 0.0
C573 C 0.33876 0.32213 0.97777 0.0
C574 C 0.35618 0.33111 0.99454 0.0
C575 C 0.38115 0.31381 1.00061 0.0
H576 H 0.31946 0.33557 0.97309 0.0
H577 H 0.55225 0.15538 0.03246 0.0
H578 H 0.17768 0.46047 0.43588 0.0
H579 H 0.19479 0.45145 0.47076 0.0
H580 H 0.28766 0.46204 0.4515 0.0
H581 H 0.27056 0.47081 0.41624 0.0
H582 H 0.28013 0.41791 0.48255 0.0
H583 H 0.25178 0.52122 0.46899 0.0
H584 H 0.21794 0.56205 0.45712 0.0
H585 H 0.15163 0.53636 0.50189 0.0
H586 H 0.18483 0.49495 0.51376 0.0
H587 H 0.34756 0.47406 0.57298 0.0
H588 H 0.3283 0.46243 0.53907 0.0
H589 H 0.23699 0.46101 0.5626 0.0
H590 H 0.25623 0.47324 0.59681 0.0
H591 H 0.24131 0.4967 0.52989 0.0
H592 H 0.27175 0.39571 0.54547 0.0
H593 H 0.30601 0.35524 0.55734 0.0
H594 H 0.36892 0.37689 0.50951 0.0
H595 H 0.33524 0.4178 0.4975 0.0
C596 C 0.20181 0.4602 0.43895 0.0
C597 C 0.2228 0.4667 0.42341 0.0
C598 C 0.21153 0.45507 0.45891 0.0
C599 C 0.24242 0.45672 0.4638 0.0
C600 C 0.26368 0.46079 0.44804 0.0
C601 C 0.25392 0.46574 0.42791 0.0
C602 C 0.25194 0.45743 0.48554 0.0
C603 C 0.2719 0.43524 0.4929 0.0
C604 C 0.24058 0.47969 0.49912 0.0
C605 C 0.22065 0.50473 0.49209 0.0
C606 C 0.22986 0.52408 0.47618 0.0
C607 C 0.21081 0.54736 0.46946 0.0
C608 C 0.18261 0.55174 0.4787 0.0
C609 C 0.17344 0.53289 0.49471 0.0
C610 C 0.19237 0.50951 0.50143 0.0
C611 C 0.32339 0.47084 0.57106 0.0
C612 C 0.3034 0.47475 0.58758 0.0
C613 C 0.31242 0.46394 0.55164 0.0
C614 C 0.28121 0.46058 0.54826 0.0
C615 C 0.26119 0.46339 0.56487 0.0
C616 C 0.2722 0.47025 0.58442 0.0
C617 C 0.26958 0.45712 0.52707 0.0
C618 C 0.24929 0.47902 0.51971 0.0
C619 C 0.28073 0.43465 0.51355 0.0
C620 C 0.30104 0.40999 0.52068 0.0
C621 C 0.29299 0.39201 0.53757 0.0
C622 C 0.31229 0.36895 0.54431 0.0
C623 C 0.33965 0.36354 0.53421 0.0
C624 C 0.34772 0.38112 0.51732 0.0
C625 C 0.32851 0.40422 0.51052 0.0
H626 H 0.35456 0.34568 0.53945 0.0
H627 H 0.1679 0.56979 0.4735 0.0
H628 H 0.03101 0.23781 0.92143 0.0
H629 H 0.0439 0.25643 0.95562 0.0
H630 H 0.05095 0.16429 0.97729 0.0
H631 H 0.03731 0.14573 0.94344 0.0
H632 H 0.0173 0.19454 0.00221 0.0
H633 H 0.1143 0.21214 0.97216 0.0
H634 H 0.15056 0.2313 0.94658 0.0
H635 H 0.12239 0.32263 0.95893 0.0
H636 H 0.08567 0.304 0.9844 0.0
H637 H 0.04928 0.24835 0.10153 0.0
H638 H 0.0614 0.22275 0.06926 0.0
H639 H 0.04841 0.30687 0.03677 0.0
H640 H 0.03716 0.33248 0.06871 0.0
H641 H 0.09208 0.27475 0.01897 0.0
H642 H 0.98969 0.25596 0.044 0.0
H643 H 0.95402 0.23809 0.0704 0.0
H644 H 0.99296 0.14907 0.06748 0.0
H645 H 0.02937 0.16657 0.04132 0.0
C646 C 0.03596 0.22158 0.93339 0.0
C647 C 0.03306 0.19033 0.92978 0.0
C648 C 0.04336 0.23221 0.95296 0.0
C649 C 0.04852 0.21176 0.96912 0.0
C650 C 0.04693 0.18055 0.96518 0.0
C651 C 0.03921 0.16997 0.94578 0.0
C652 C 0.05326 0.22275 0.99042 0.0
C653 C 0.03415 0.2116 0.00589 0.0
C654 C 0.07491 0.24531 0.99534 0.0
C655 C 0.09708 0.25663 0.9801 0.0
C656 C 0.11569 0.23629 0.96933 0.0
C657 C 0.13635 0.24706 0.95486 0.0
C658 C 0.13874 0.27815 0.95111 0.0
C659 C 0.12051 0.29855 0.96185 0.0
C660 C 0.0998 0.2879 0.97632 0.0
C661 C 0.0498 0.26148 0.08757 0.0
C662 C 0.04168 0.2923 0.08762 0.0
C663 C 0.0566 0.24683 0.06912 0.0
C664 C 0.05517 0.26277 0.05051 0.0
C665 C 0.04953 0.29402 0.05086 0.0
C666 C 0.04287 0.30861 0.06918 0.0
C667 C 0.05585 0.24687 0.03048 0.0
C668 C 0.07578 0.25717 0.01526 0.0
C669 C 0.03495 0.22355 0.02575 0.0
C670 C 0.01237 0.21263 0.04084 0.0
C671 C 0.99069 0.23258 0.04902 0.0
C672 C 0.97042 0.22254 0.06397 0.0
C673 C 0.97135 0.19248 0.07067 0.0
C674 C 0.99243 0.17236 0.06233 0.0
C675 C 0.01287 0.18232 0.04743 0.0
H676 H 0.9557 0.18476 0.08228 0.0
H677 H 0.15474 0.28645 0.93989 0.0
H678 H 0.33017 0.04642 0.44478 0.0
H679 H 0.30155 0.05836 0.47551 0.0
H680 H 0.21843 0.05753 0.44094 0.0
H681 H 0.24704 0.04499 0.40983 0.0
H682 H 0.23605 0.1074 0.48022 0.0
H683 H 0.21251 0.00341 0.4586 0.0
H684 H 0.22813 0.9549 0.44311 0.0
H685 H 0.29721 0.94452 0.48879 0.0
H686 H 0.28233 0.99331 0.5043 0.0
H687 H 0.15341 0.07796 0.57422 0.0
H688 H 0.16896 0.08254 0.53844 0.0
H689 H 0.25376 0.03872 0.55263 0.0
H690 H 0.23849 0.03409 0.58826 0.0
H691 H 0.22645 0.01242 0.52039 0.0
H692 H 0.25012 0.11428 0.54245 0.0
H693 H 0.23881 0.16434 0.55737 0.0
H694 H 0.17159 0.18005 0.51113 0.0
H695 H 0.18224 0.12988 0.49609 0.0
C696 C 0.30587 0.04941 0.44352 0.0
C697 C 0.29081 0.0443 0.42491 0.0
C698 C 0.2896 0.05643 0.46111 0.0
C699 C 0.25797 0.05866 0.46046 0.0
C700 C 0.24291 0.05601 0.44165 0.0
C701 C 0.25927 0.04883 0.42392 0.0
C702 C 0.24121 0.05892 0.47999 0.0
C703 C 0.23304 0.08664 0.48887 0.0
C704 C 0.23814 0.03187 0.49134 0.0
C705 C 0.24648 0.00208 0.48249 0.0
C706 C 0.23116 0.99087 0.46524 0.0
C707 C 0.23986 0.96333 0.45647 0.0
C708 C 0.26369 0.94667 0.46493 0.0
C709 C 0.27878 0.95747 0.48224 0.0
C710 C 0.27021 0.98505 0.49104 0.0
C711 C 0.17558 0.06976 0.56979 0.0
C712 C 0.19459 0.05538 0.58409 0.0
C713 C 0.18441 0.07237 0.54931 0.0
C714 C 0.21245 0.06082 0.54282 0.0
C715 C 0.23189 0.04754 0.55724 0.0
C716 C 0.22313 0.04494 0.57765 0.0
C717 C 0.2212 0.06104 0.52091 0.0
C718 C 0.22834 0.03324 0.51165 0.0
C719 C 0.2231 0.08807 0.50927 0.0
C720 C 0.2167 0.11819 0.51831 0.0
C721 C 0.23273 0.12829 0.53558 0.0
C722 C 0.22648 0.15671 0.54403 0.0
C723 C 0.20442 0.17532 0.53524 0.0
C724 C 0.18862 0.16559 0.51795 0.0
C725 C 0.19477 0.13717 0.50945 0.0
H726 H 0.19962 0.19732 0.5418 0.0
H727 H 0.27042 0.92536 0.45812 0.0
H728 H 0.55688 0.77937 0.91292 0.0
H729 H 0.56777 0.75739 0.94661 0.0
H730 H 0.49837 0.8139 0.97329 0.0
H731 H 0.48901 0.83699 0.9403 0.0
H732 H 0.5398 0.811 0.9989 0.0
H733 H 0.48857 0.73483 0.95799 0.0
H734 H 0.4828 0.70092 0.92825 0.0
H735 H 0.56718 0.6576 0.9429 0.0
H736 H 0.57359 0.69146 0.9726 0.0
H737 H 0.48115 0.6775 0.06408 0.0
H738 H 0.49283 0.70029 0.03139 0.0
H739 H 0.56674 0.74993 0.05885 0.0
H740 H 0.55366 0.72827 0.09231 0.0
H741 H 0.53474 0.69928 0.00621 0.0
H742 H 0.57897 0.81546 0.03245 0.0
H743 H 0.57546 0.85011 0.06194 0.0
H744 H 0.48769 0.81427 0.07674 0.0
H745 H 0.49051 0.77967 0.04716 0.0
C746 C 0.5443 0.78725 0.92608 0.0
C747 C 0.52213 0.80988 0.92397 0.0
C748 C 0.55039 0.7746 0.94532 0.0
C749 C 0.5336 0.78361 0.96258 0.0
C750 C 0.51188 0.80661 0.96038 0.0
C751 C 0.50642 0.81975 0.9414 0.0
C752 C 0.53708 0.76842 0.98281 0.0
C753 C 0.53887 0.78653 1.00046 0.0
C754 C 0.53577 0.7365 0.98503 0.0
C755 C 0.53174 0.7159 0.96734 0.0
C756 C 0.50595 0.71816 0.9548 0.0
C757 C 0.50256 0.69896 0.93796 0.0
C758 C 0.52468 0.67723 0.93365 0.0
C759 C 0.55012 0.67451 0.94623 0.0
C760 C 0.55364 0.69369 0.96307 0.0
C761 C 0.50004 0.69315 0.06324 0.0
C762 C 0.51646 0.70116 0.08083 0.0
C763 C 0.50681 0.70612 0.04442 0.0
C764 C 0.53058 0.72707 0.04249 0.0
C765 C 0.54788 0.7343 0.05992 0.0
C766 C 0.54054 0.72183 0.07902 0.0
C767 C 0.53574 0.74193 0.02232 0.0
C768 C 0.53604 0.72374 0.00467 0.0
C769 C 0.53735 0.77384 0.0201 0.0
C770 C 0.53517 0.79473 0.03777 0.0
C771 C 0.55891 0.81503 0.04198 0.0
C772 C 0.55703 0.83465 0.05869 0.0
C773 C 0.53143 0.83428 0.07124 0.0
C774 C 0.50755 0.81443 0.06704 0.0
C775 C 0.50928 0.79481 0.05031 0.0
H776 H 0.53009 0.84946 0.08416 0.0
H777 H 0.52211 0.66245 0.9206 0.0
H778 H 0.76265 0.53786 0.41004 0.0
H779 H 0.77708 0.54191 0.4459 0.0
H780 H 0.68554 0.56767 0.46135 0.0
H781 H 0.67147 0.5653 0.42513 0.0
H782 H 0.72141 0.59727 0.48489 0.0
H783 H 0.71428 0.49228 0.46692 0.0
H784 H 0.72472 0.44577 0.44726 0.0
H785 H 0.81931 0.4527 0.46199 0.0
H786 H 0.80949 0.49945 0.48156 0.0
H787 H 0.74744 0.51508 0.5859 0.0
H788 H 0.72926 0.52279 0.55096 0.0
H789 H 0.80612 0.58009 0.53839 0.0
H790 H 0.8244 0.5728 0.57336 0.0
H791 H 0.77523 0.5089 0.51466 0.0
H792 H 0.77705 0.62461 0.52538 0.0
H793 H 0.76158 0.66755 0.54721 0.0
H794 H 0.67035 0.63359 0.54858 0.0
H795 H 0.68549 0.59028 0.52695 0.0
C796 C 0.74569 0.54476 0.42106 0.0
C797 C 0.71588 0.55108 0.41482 0.0
C798 C 0.75389 0.54684 0.44161 0.0
C799 C 0.73222 0.55422 0.45653 0.0
C800 C 0.70269 0.56175 0.45021 0.0
C801 C 0.69463 0.5604 0.42951 0.0
C802 C 0.74022 0.55302 0.47867 0.0
C803 C 0.73315 0.57785 0.49128 0.0
C804 C 0.75521 0.52761 0.48736 0.0
C805 C 0.76117 0.4995 0.47558 0.0
C806 C 0.73733 0.48399 0.46586 0.0
C807 C 0.74314 0.45757 0.45475 0.0
C808 C 0.77267 0.44631 0.45336 0.0
C809 C 0.79645 0.46145 0.46308 0.0
C810 C 0.79077 0.48789 0.4742 0.0
C811 C 0.76024 0.52976 0.57584 0.0
C812 C 0.78748 0.54321 0.58242 0.0
C813 C 0.74975 0.53418 0.55589 0.0
C814 C 0.76622 0.55219 0.54218 0.0
C815 C 0.7928 0.56654 0.54887 0.0
C816 C 0.80323 0.5623 0.56887 0.0
C817 C 0.75727 0.55337 0.52038 0.0
C818 C 0.76382 0.52833 0.50801 0.0
C819 C 0.74147 0.57821 0.512 0.0
C820 C 0.73242 0.60422 0.52478 0.0
C821 C 0.75377 0.62625 0.53048 0.0
C822 C 0.74505 0.65065 0.54278 0.0
C823 C 0.71501 0.65326 0.54932 0.0
C824 C 0.69361 0.63151 0.54354 0.0
C825 C 0.70224 0.60706 0.53127 0.0
H826 H 0.7083 0.67216 0.55883 0.0
H827 H 0.77714 0.4258 0.44481 0.0
H828 H 0.95895 0.74193 0.09053 0.0
H829 H 0.94777 0.71642 0.05803 0.0
H830 H 0.92322 0.80228 0.03123 0.0
H831 H 0.9349 0.82782 0.0634 0.0
H832 H 0.8872 0.75107 0.017 0.0
H833 H 0.99194 0.78425 0.02742 0.0
H834 H 0.03933 0.78507 0.04742 0.0
H835 H 0.04649 0.68832 0.04204 0.0
H836 H 0.99876 0.68691 0.02235 0.0
H837 H 0.97428 0.73817 0.91532 0.0
H838 H 0.96782 0.75328 0.95083 0.0
H839 H 0.90812 0.67734 0.96083 0.0
H840 H 0.91501 0.66151 0.92523 0.0
H841 H 0.9836 0.71787 0.985 0.0
H842 H 0.85577 0.70412 0.99838 0.0
H843 H 0.80777 0.7055 0.97903 0.0
H844 H 0.84747 0.76687 0.9357 0.0
H845 H 0.89552 0.76615 0.95494 0.0
C846 C 0.95018 0.75513 0.0779 0.0
C847 C 0.94794 0.78682 0.07935 0.0
C848 C 0.94387 0.74058 0.05936 0.0
C849 C 0.93481 0.75753 0.04223 0.0
C850 C 0.93003 0.78879 0.04428 0.0
C851 C 0.93687 0.80336 0.06262 0.0
C852 C 0.93503 0.74406 0.02151 0.0
C853 C 0.90814 0.74334 0.01007 0.0
C854 C 0.96246 0.73448 0.01241 0.0
C855 C 0.99165 0.73544 0.02362 0.0
C856 C 0.00354 0.76315 0.03061 0.0
C857 C 0.03044 0.76372 0.04189 0.0
C858 C 0.04587 0.73676 0.04605 0.0
C859 C 0.03448 0.70918 0.03885 0.0
C860 C 0.0075 0.70848 0.02764 0.0
C861 C 0.95974 0.72461 0.92497 0.0
C862 C 0.94556 0.69833 0.91744 0.0
C863 C 0.95607 0.73332 0.94531 0.0
C864 C 0.93774 0.71628 0.9585 0.0
C865 C 0.9224 0.69079 0.95088 0.0
C866 C 0.92631 0.68185 0.93052 0.0
C867 C 0.93573 0.72486 0.98036 0.0
C868 C 0.96244 0.72482 0.99202 0.0
C869 C 0.90815 0.73387 0.98956 0.0
C870 C 0.87933 0.73475 0.97796 0.0
C871 C 0.85421 0.71794 0.98474 0.0
C872 C 0.827 0.71862 0.9738 0.0
C873 C 0.82461 0.73616 0.9561 0.0
C874 C 0.84939 0.75317 0.94935 0.0
C875 C 0.87664 0.75259 0.96025 0.0
H876 H 0.80353 0.73665 0.94764 0.0
H877 H 0.06667 0.73724 0.05481 0.0
H878 H 0.84192 0.96929 0.43795 0.0
H879 H 0.81824 0.95707 0.47048 0.0
H880 H 0.73028 0.95747 0.44168 0.0
H881 H 0.75396 0.97023 0.40888 0.0
H882 H 0.73085 0.99191 0.47536 0.0
H883 H 0.76208 0.89123 0.45921 0.0
H884 H 0.79741 0.851 0.44848 0.0
H885 H 0.85398 0.86942 0.50038 0.0
H886 H 0.81921 0.91007 0.51128 0.0
H887 H 0.65372 0.95023 0.5635 0.0
H888 H 0.67598 0.94285 0.5298 0.0
H889 H 0.76544 0.95318 0.55542 0.0
H890 H 0.74317 0.96047 0.58946 0.0
H891 H 0.76214 0.90986 0.5228 0.0
H892 H 0.73365 0.01281 0.53719 0.0
H893 H 0.69876 0.05321 0.54829 0.0
H894 H 0.6379 0.03091 0.49934 0.0
H895 H 0.67218 0.98995 0.48819 0.0
C896 C 0.81755 0.9664 0.43842 0.0
C897 C 0.79981 0.97088 0.42082 0.0
C898 C 0.80405 0.95917 0.45705 0.0
C899 C 0.7725 0.95607 0.45854 0.0
C900 C 0.75471 0.95964 0.44087 0.0
C901 C 0.76826 0.9668 0.42213 0.0
C902 C 0.75816 0.95177 0.47888 0.0
C903 C 0.73723 0.97356 0.48553 0.0
C904 C 0.76719 0.92839 0.49245 0.0
C905 C 0.78813 0.90388 0.48598 0.0
C906 C 0.78217 0.88687 0.46826 0.0
C907 C 0.80208 0.86396 0.46216 0.0
C908 C 0.82795 0.8577 0.47372 0.0
C909 C 0.83394 0.8743 0.49143 0.0
C910 C 0.81411 0.89726 0.49759 0.0
C911 C 0.67818 0.95024 0.56208 0.0
C912 C 0.6967 0.95631 0.57907 0.0
C913 C 0.69085 0.94602 0.5428 0.0
C914 C 0.72229 0.94805 0.54006 0.0
C915 C 0.74109 0.95162 0.55723 0.0
C916 C 0.72836 0.95573 0.57666 0.0
C917 C 0.73492 0.94993 0.51911 0.0
C918 C 0.75558 0.92791 0.51245 0.0
C919 C 0.72579 0.97317 0.5055 0.0
C920 C 0.70532 0.99807 0.512 0.0
C921 C 0.71271 0.01635 0.5289 0.0
C922 C 0.69306 0.03937 0.53519 0.0
C923 C 0.66609 0.04457 0.52456 0.0
C924 C 0.65877 0.02681 0.50758 0.0
C925 C 0.6783 0.00368 0.50127 0.0
H926 H 0.6509 0.06241 0.52944 0.0
H927 H 0.84334 0.83995 0.46897 0.0
H928 H 0.4431 0.83132 0.15163 0.0
H929 H 0.45103 0.88448 0.14361 0.0
H930 H 0.54114 0.8643 0.12204 0.0
H931 H 0.53362 0.81066 0.13071 0.0
H932 H 0.54215 0.91382 0.14501 0.0
H933 H 0.484 0.88207 0.08823 0.0
H934 H 0.44244 0.85657 0.06986 0.0
H935 H 0.37766 0.91478 0.09908 0.0
H936 H 0.41885 0.94034 0.11788 0.0
H937 H 0.55115 0.06403 0.10088 0.0
H938 H 0.54865 0.00862 0.10396 0.0
H939 H 0.46753 0.01666 0.14023 0.0
H940 H 0.47022 0.07211 0.13744 0.0
H941 H 0.46555 0.97267 0.10616 0.0
H942 H 0.52677 0.00156 0.16455 0.0
H943 H 0.57023 0.02655 0.1812 0.0
H944 H 0.63179 0.97297 0.14552 0.0
H945 H 0.58864 0.94796 0.12843 0.0
C946 C 0.46472 0.83804 0.14529 0.0
C947 C 0.48781 0.81661 0.14199 0.0
C948 C 0.46909 0.86853 0.14045 0.0
C949 C 0.49653 0.87846 0.13193 0.0
C950 C 0.51968 0.85717 0.12849 0.0
C951 C 0.51529 0.82648 0.13332 0.0
C952 C 0.50099 0.91127 0.12736 0.0
C953 C 0.5257 0.92653 0.13617 0.0
C954 C 0.47945 0.92807 0.11595 0.0
C955 C 0.45453 0.91295 0.10459 0.0
C956 C 0.46088 0.88927 0.09086 0.0
C957 C 0.43739 0.87483 0.08035 0.0
C958 C 0.40741 0.884 0.08334 0.0
C959 C 0.40089 0.90769 0.0968 0.0
C960 C 0.42432 0.92219 0.10736 0.0
C961 C 0.53278 0.05394 0.10947 0.0
C962 C 0.51088 0.07235 0.11894 0.0
C963 C 0.53144 0.02234 0.11128 0.0
C964 C 0.50791 0.00857 0.12232 0.0
C965 C 0.48586 0.02687 0.13163 0.0
C966 C 0.48751 0.05849 0.13015 0.0
C967 C 0.50624 0.97507 0.12418 0.0
C968 C 0.4821 0.95978 0.1148 0.0
C969 C 0.52857 0.9582 0.13473 0.0
C970 C 0.55449 0.97317 0.14503 0.0
C971 C 0.54957 0.99533 0.1601 0.0
C972 C 0.57415 0.00945 0.16966 0.0
C973 C 0.60376 0.00143 0.16437 0.0
C974 C 0.60885 0.97921 0.14956 0.0
C975 C 0.58434 0.96504 0.13995 0.0
H976 H 0.62276 0.01238 0.17179 0.0
H977 H 0.38924 0.8728 0.07519 0.0
H978 H 0.69236 0.53389 0.64033 0.0
H979 H 0.63717 0.54047 0.63711 0.0
H980 H 0.62378 0.44796 0.65644 0.0
H981 H 0.67835 0.44121 0.65938 0.0
H982 H 0.5898 0.46202 0.62297 0.0
H983 H 0.61297 0.50601 0.68919 0.0
H984 H 0.63842 0.54213 0.71226 0.0
H985 H 0.59883 0.61671 0.67962 0.0
H986 H 0.57344 0.58099 0.65618 0.0
H987 H 0.44252 0.44195 0.65717 0.0
H988 H 0.49718 0.44855 0.65571 0.0
H989 H 0.48532 0.5417 0.63743 0.0
H990 H 0.43009 0.53522 0.63886 0.0
H991 H 0.53186 0.53495 0.66541 0.0
H992 H 0.50347 0.491 0.60192 0.0
H993 H 0.47751 0.45505 0.57901 0.0
H994 H 0.52703 0.38114 0.60561 0.0
H995 H 0.55296 0.4166 0.62892 0.0
C996 C 0.67757 0.51499 0.6438 0.0
C997 C 0.68974 0.48713 0.6503 0.0
C998 C 0.64609 0.51881 0.64207 0.0
C999 C 0.62634 0.49474 0.64667 0.0
C1000 C 0.63854 0.46686 0.65286 0.0
C1001 C 0.6698 0.46313 0.65472 0.0
C1002 C 0.5929 0.49799 0.64507 0.0
C1003 C 0.57714 0.47791 0.63229 0.0
C1004 C 0.5764 0.51943 0.6567 0.0
C1005 C 0.59164 0.54086 0.67078 0.0
C1006 C 0.60992 0.53012 0.68682 0.0
C1007 C 0.62428 0.55051 0.69998 0.0
C1008 C 0.62033 0.5817 0.69736 0.0
C1009 C 0.60193 0.59255 0.6816 0.0
C1010 C 0.58754 0.57224 0.66838 0.0
C1011 C 0.45138 0.46384 0.65274 0.0
C1012 C 0.43178 0.48793 0.64787 0.0
C1013 C 0.48273 0.46761 0.65196 0.0
C1014 C 0.49538 0.49544 0.64606 0.0
C1015 C 0.47603 0.51997 0.64192 0.0
C1016 C 0.44447 0.51624 0.64279 0.0
C1017 C 0.5288 0.49822 0.64384 0.0
C1018 C 0.54453 0.51944 0.65581 0.0
C1019 C 0.54538 0.4779 0.63138 0.0
C1020 C 0.53004 0.45647 0.61726 0.0
C1021 C 0.50869 0.46706 0.60298 0.0
C1022 C 0.49399 0.44677 0.58991 0.0
C1023 C 0.50059 0.41583 0.59087 0.0
C1024 C 0.52194 0.40512 0.60489 0.0
C1025 C 0.53668 0.42531 0.61801 0.0
H1026 H 0.48918 0.40015 0.58074 0.0
H1027 H 0.63146 0.59746 0.70758 0.0
H1028 H 0.96 0.42406 0.12946 0.0
H1029 H 0.94542 0.47788 0.13187 0.0
H1030 H 0.03321 0.49895 0.15719 0.0
H1031 H 0.04769 0.44571 0.15478 0.0
H1032 H 0.98536 0.52636 0.17814 0.0
H1033 H 0.02059 0.51115 0.10828 0.0
H1034 H 0.0185 0.48747 0.0742 0.0
H1035 H 0.92718 0.51907 0.06637 0.0
H1036 H 0.92862 0.54259 0.10057 0.0
H1037 H 0.03369 0.67326 0.16207 0.0
H1038 H 0.02557 0.61892 0.16047 0.0
H1039 H 0.93629 0.63326 0.13553 0.0
H1040 H 0.94394 0.68835 0.13757 0.0
H1041 H 0.97007 0.58738 0.11529 0.0
H1042 H 0.93903 0.61141 0.1826 0.0
H1043 H 0.9416 0.63535 0.21656 0.0
H1044 H 0.0239 0.58718 0.22959 0.0
H1045 H 0.02213 0.5633 0.19557 0.0
C1046 C 0.97597 0.44026 0.13567 0.0
C1047 C 0.00505 0.43086 0.14176 0.0
C1048 C 0.96771 0.4709 0.13697 0.0
C1049 C 0.98832 0.49236 0.14463 0.0
C1050 C 0.01698 0.48276 0.15123 0.0
C1051 C 0.02532 0.45239 0.14969 0.0
C1052 C 0.9809 0.5251 0.14543 0.0
C1053 C 0.98192 0.53973 0.16442 0.0
C1054 C 0.97537 0.54234 0.12758 0.0
C1055 C 0.97455 0.52824 0.10706 0.0
C1056 C 0.99997 0.51279 0.09937 0.0
C1057 C 0.99893 0.49946 0.08002 0.0
C1058 C 0.97268 0.50167 0.06816 0.0
C1059 C 0.94746 0.5173 0.0756 0.0
C1060 C 0.94838 0.53064 0.09496 0.0
C1061 C 0.01211 0.66512 0.15649 0.0
C1062 C 0.98927 0.68539 0.15029 0.0
C1063 C 0.00757 0.63391 0.1555 0.0
C1064 C 0.98013 0.62207 0.14824 0.0
C1065 C 0.95756 0.64201 0.14133 0.0
C1066 C 0.96203 0.67347 0.14243 0.0
C1067 C 0.97577 0.58875 0.14794 0.0
C1068 C 0.97258 0.57399 0.12909 0.0
C1069 C 0.97923 0.57132 0.16595 0.0
C1070 C 0.9805 0.58566 0.18645 0.0
C1071 C 0.95782 0.60609 0.19263 0.0
C1072 C 0.95911 0.61963 0.21191 0.0
C1073 C 0.98291 0.61282 0.22521 0.0
C1074 C 0.00547 0.59243 0.21927 0.0
C1075 C 0.00431 0.57886 0.19999 0.0
H1076 H 0.98386 0.6233 0.24014 0.0
H1077 H 0.97193 0.49134 0.05318 0.0
H1078 H 0.8192 0.01088 0.6767 0.0
H1079 H 0.8738 0.00742 0.67156 0.0
H1080 H 0.85929 0.98224 0.60866 0.0
H1081 H 0.8042 0.98538 0.61388 0.0
H1082 H 0.90472 0.94982 0.62487 0.0
H1083 H 0.87952 0.05466 0.62128 0.0
H1084 H 0.85653 0.10286 0.63232 0.0
H1085 H 0.91095 0.10196 0.68669 0.0
H1086 H 0.93401 0.05351 0.67609 0.0
H1087 H 0.05474 0.98693 0.59304 0.0
H1088 H 1.00008 0.98657 0.59742 0.0
H1089 H 0.01097 1.00054 0.66211 0.0
H1090 H 0.06596 1.0 0.65812 0.0
H1091 H 0.96746 0.03893 0.64377 0.0
H1092 H 0.9924 0.93269 0.64611 0.0
H1093 H 0.0156 0.88552 0.63335 0.0
H1094 H 0.96161 0.89084 0.5789 0.0
H1095 H 0.93839 0.93831 0.59121 0.0
C1096 C 0.8276 0.00462 0.66176 0.0
C1097 C 0.80741 0.99882 0.64561 0.0
C1098 C 0.85885 0.00266 0.65883 0.0
C1099 C 0.87074 0.99527 0.6396 0.0
C1100 C 0.85065 0.98818 0.62361 0.0
C1101 C 0.81921 0.98991 0.6266 0.0
C1102 C 0.90411 0.99561 0.63627 0.0
C1103 C 0.91836 0.96947 0.62872 0.0
C1104 C 0.92206 0.02111 0.64154 0.0
C1105 C 0.9083 0.0503 0.64797 0.0
C1106 C 0.88642 0.06461 0.63567 0.0
C1107 C 0.8734 0.092 0.64183 0.0
C1108 C 0.88221 0.10543 0.66022 0.0
C1109 C 0.90412 0.09151 0.67246 0.0
C1110 C 0.9172 0.0641 0.66637 0.0
C1111 C 0.04585 0.98953 0.60831 0.0
C1112 C 0.06528 0.99326 0.62524 0.0
C1113 C 0.01438 0.98944 0.61073 0.0
C1114 C 0.00145 0.99326 0.63009 0.0
C1115 C 0.02052 0.99753 0.647 0.0
C1116 C 0.05208 0.99733 0.64465 0.0
C1117 C 0.96799 0.99308 0.63261 0.0
C1118 C 0.95376 0.01932 0.63993 0.0
C1119 C 0.95007 0.96784 0.62688 0.0
C1120 C 0.96389 0.93922 0.6195 0.0
C1121 C 0.98566 0.92394 0.63134 0.0
C1122 C 0.99878 0.89712 0.6242 0.0
C1123 C 0.99014 0.88523 0.6053 0.0
C1124 C 0.96831 0.9001 0.59352 0.0
C1125 C 0.95514 0.92695 0.60058 0.0
H1126 H 1.00032 0.86446 0.5998 0.0
H1127 H 0.87213 0.12665 0.66497 0.0
H1128 H 0.44187 0.68125 0.85334 0.0
H1129 H 0.44783 0.62757 0.86026 0.0
H1130 H 0.53854 0.64355 0.88237 0.0
H1131 H 0.53314 0.69769 0.8746 0.0
H1132 H 0.53812 0.5953 0.85853 0.0
H1133 H 0.47997 0.62616 0.91559 0.0
H1134 H 0.43882 0.65208 0.93408 0.0
H1135 H 0.37293 0.59706 0.90313 0.0
H1136 H 0.41373 0.57116 0.88419 0.0
H1137 H 0.54351 0.44568 0.90321 0.0
H1138 H 0.54183 0.50093 0.89926 0.0
H1139 H 0.46201 0.49262 0.86168 0.0
H1140 H 0.46395 0.43715 0.86532 0.0
H1141 H 0.45951 0.53708 0.89596 0.0
H1142 H 0.52112 0.50788 0.83804 0.0
H1143 H 0.56434 0.48238 0.82151 0.0
H1144 H 0.62639 0.53468 0.85773 0.0
H1145 H 0.58348 0.56018 0.87471 0.0
C1146 C 0.46322 0.67352 0.85954 0.0
C1147 C 0.48714 0.69395 0.86319 0.0
C1148 C 0.46646 0.6427 0.86377 0.0
C1149 C 0.4935 0.63142 0.87209 0.0
C1150 C 0.5174 0.6517 0.87599 0.0
C1151 C 0.5142 0.68271 0.8717 0.0
C1152 C 0.4968 0.59828 0.87596 0.0
C1153 C 0.5212 0.58271 0.86705 0.0
C1154 C 0.4746 0.58162 0.88689 0.0
C1155 C 0.44992 0.59693 0.89833 0.0
C1156 C 0.4567 0.61978 0.9126 0.0
C1157 C 0.43343 0.63444 0.92318 0.0
C1158 C 0.40326 0.62627 0.91974 0.0
C1159 C 0.39631 0.60338 0.90576 0.0
C1160 C 0.41951 0.58868 0.89511 0.0
C1161 C 0.52564 0.45566 0.8941 0.0
C1162 C 0.50381 0.43718 0.88459 0.0
C1163 C 0.52477 0.48717 0.8918 0.0
C1164 C 0.50179 0.50082 0.8802 0.0
C1165 C 0.47991 0.48247 0.87071 0.0
C1166 C 0.48113 0.45087 0.87268 0.0
C1167 C 0.50043 0.5343 0.87823 0.0
C1168 C 0.47645 0.54984 0.88757 0.0
C1169 C 0.52329 0.55094 0.86805 0.0
C1170 C 0.54909 0.53568 0.85782 0.0
C1171 C 0.54397 0.51372 0.84263 0.0
C1172 C 0.56841 0.49932 0.83315 0.0
C1173 C 0.59809 0.50683 0.83861 0.0
C1174 C 0.60339 0.52884 0.85354 0.0
C1175 C 0.57902 0.54329 0.86309 0.0
H1176 H 0.61699 0.49566 0.83125 0.0
H1177 H 0.38527 0.63764 0.92795 0.0
H1178 H 0.84871 0.57265 0.33809 0.0
H1179 H 0.9035 0.56831 0.34274 0.0
H1180 H 0.89042 0.48787 0.37914 0.0
H1181 H 0.83551 0.49214 0.37455 0.0
H1182 H 0.93506 0.5233 0.39479 0.0
H1183 H 0.90896 0.48285 0.32881 0.0
H1184 H 0.88626 0.48395 0.29441 0.0
H1185 H 0.94319 0.55912 0.27808 0.0
H1186 H 0.96592 0.55875 0.31251 0.0
H1187 H 0.07921 0.45509 0.38536 0.0
H1188 H 0.02549 0.46751 0.38435 0.0
H1189 H 0.04479 0.54548 0.34679 0.0
H1190 H 0.09876 0.53251 0.34712 0.0
H1191 H 0.99753 0.51459 0.33207 0.0
H1192 H 0.0259 0.55324 0.39744 0.0
H1193 H 0.04889 0.55184 0.43174 0.0
H1194 H 0.98826 0.48025 0.44924 0.0
H1195 H 0.96518 0.48091 0.41493 0.0
C1196 C 0.85749 0.55413 0.34718 0.0
C1197 C 0.83773 0.53258 0.35577 0.0
C1198 C 0.88882 0.55166 0.34982 0.0
C1199 C 0.90115 0.52742 0.36095 0.0
C1200 C 0.88144 0.50672 0.37043 0.0
C1201 C 0.85002 0.50925 0.36786 0.0
C1202 C 0.93455 0.52291 0.36193 0.0
C1203 C 0.94869 0.52109 0.38109 0.0
C1204 C 0.95249 0.52078 0.34404 0.0
C1205 C 0.9389 0.52098 0.32331 0.0
C1206 C 0.91646 0.49977 0.31794 0.0
C1207 C 0.90362 0.50024 0.29843 0.0
C1208 C 0.91321 0.52165 0.28408 0.0
C1209 C 0.93574 0.54259 0.28921 0.0
C1210 C 0.94861 0.54225 0.30872 0.0
C1211 C 0.07215 0.4748 0.37677 0.0
C1212 C 0.09346 0.49275 0.36629 0.0
C1213 C 0.04135 0.48209 0.37641 0.0
C1214 C 0.03106 0.50768 0.36573 0.0
C1215 C 0.05221 0.52571 0.35524 0.0
C1216 C 0.08311 0.5184 0.35558 0.0
C1217 C 0.9981 0.51483 0.36495 0.0
C1218 C 0.984 0.51706 0.3458 0.0
C1219 C 0.98023 0.51735 0.38285 0.0
C1220 C 0.99398 0.51696 0.40354 0.0
C1221 C 0.01761 0.53704 0.40855 0.0
C1222 C 0.03064 0.5364 0.42801 0.0
C1223 C 0.02009 0.51592 0.44265 0.0
C1224 C 0.99643 0.49608 0.43788 0.0
C1225 C 0.98334 0.4966 0.41843 0.0
H1226 H 0.03021 0.51547 0.4577 0.0
H1227 H 0.90325 0.52197 0.26898 0.0
H1228 H 0.0324 0.04786 0.89749 0.0
H1229 H 0.02222 0.9936 0.89427 0.0
H1230 H 0.96975 0.01059 0.8398 0.0
H1231 H 0.97898 0.06522 0.84361 0.0
H1232 H 0.94393 0.96723 0.86026 0.0
H1233 H 0.04526 0.98552 0.83816 0.0
H1234 H 0.0976 0.00487 0.84029 0.0
H1235 H 0.11413 0.94896 0.8928 0.0
H1236 H 0.06172 0.92957 0.89117 0.0
H1237 H 0.9658 0.81627 0.81936 0.0
H1238 H 0.96534 0.87123 0.82534 0.0
H1239 H 0.99795 0.85675 0.88665 0.0
H1240 H 0.99816 0.80188 0.88079 0.0
H1241 H 0.03278 0.89837 0.86219 0.0
H1242 H 0.92929 0.87908 0.88197 0.0
H1243 H 0.87747 0.85949 0.87701 0.0
H1244 H 0.86623 0.91697 0.82463 0.0
H1245 H 0.91818 0.9366 0.82911 0.0
C1246 C 0.01856 0.03995 0.88492 0.0
C1247 C 0.00672 0.06058 0.87068 0.0
C1248 C 0.01282 0.00896 0.88302 0.0
C1249 C 0.99587 0.99782 0.86647 0.0
C1250 C 0.98302 0.01856 0.85264 0.0
C1251 C 0.98827 0.04972 0.8548 0.0
C1252 C 0.99251 0.96455 0.86331 0.0
C1253 C 0.96342 0.95226 0.86044 0.0
C1254 C 0.01787 0.94481 0.86367 0.0
C1255 C 0.04947 0.95631 0.86466 0.0
C1256 C 0.05999 0.97751 0.85025 0.0
C1257 C 0.08968 0.98846 0.85136 0.0
C1258 C 0.10916 0.97821 0.8667 0.0
C1259 C 0.09901 0.95691 0.88094 0.0
C1260 C 0.06932 0.94591 0.87993 0.0
C1261 C 0.97246 0.82488 0.83418 0.0
C1262 C 0.98193 0.80487 0.84962 0.0
C1263 C 0.97209 0.85618 0.8376 0.0
C1264 C 0.98156 0.86799 0.85645 0.0
C1265 C 0.99045 0.84803 0.87203 0.0
C1266 C 0.99036 0.81672 0.86872 0.0
C1267 C 0.98429 0.90119 0.85942 0.0
C1268 C 0.01333 0.91343 0.86211 0.0
C1269 C 0.959 0.92082 0.85844 0.0
C1270 C 0.92775 0.90908 0.85575 0.0
C1271 C 0.91588 0.88733 0.86928 0.0
C1272 C 0.88645 0.87627 0.86658 0.0
C1273 C 0.86859 0.88691 0.85048 0.0
C1274 C 0.8801 0.90871 0.83708 0.0
C1275 C 0.90953 0.91984 0.8397 0.0
H1276 H 0.84582 0.87832 0.84842 0.0
H1277 H 0.13214 0.98672 0.86753 0.0
H1278 H 0.44597 0.06604 0.36686 0.0
H1279 H 0.49989 0.05801 0.36278 0.0
H1280 H 0.48768 0.962 0.37202 0.0
H1281 H 0.43302 0.96995 0.37658 0.0
H1282 H 0.53712 0.98556 0.39357 0.0
H1283 H 0.50101 0.98619 0.32486 0.0
H1284 H 0.47189 0.00491 0.29529 0.0
H1285 H 0.52123 0.08876 0.29685 0.0
H1286 H 0.55047 0.07069 0.32657 0.0
H1287 H 0.69379 0.97033 0.36164 0.0
H1288 H 0.63889 0.96328 0.36502 0.0
H1289 H 0.62538 0.05912 0.35572 0.0
H1290 H 0.67986 0.06638 0.35263 0.0
H1291 H 0.58827 0.0256 0.33171 0.0
H1292 H 0.61918 0.02804 0.40261 0.0
H1293 H 0.64817 0.0107 0.43263 0.0
H1294 H 0.60838 0.92221 0.42728 0.0
H1295 H 0.57945 0.93893 0.39704 0.0
C1296 C 0.45447 0.04317 0.36816 0.0
C1297 C 0.43487 0.01864 0.37196 0.0
C1298 C 0.48545 0.03859 0.36566 0.0
C1299 C 0.49776 0.00936 0.36679 0.0
C1300 C 0.47855 0.98474 0.37094 0.0
C1301 C 0.44731 0.98931 0.37339 0.0
C1302 C 0.53078 0.00517 0.36374 0.0
C1303 C 0.54832 0.99362 0.37986 0.0
C1304 C 0.54535 0.01613 0.34596 0.0
C1305 C 0.52791 0.02707 0.32799 0.0
C1306 C 0.50558 0.00867 0.31896 0.0
C1307 C 0.48911 0.01913 0.30213 0.0
C1308 C 0.49482 0.04794 0.29414 0.0
C1309 C 0.51696 0.06638 0.30299 0.0
C1310 C 0.53353 0.05601 0.3198 0.0
C1311 C 0.67916 0.98994 0.36058 0.0
C1312 C 0.69127 0.0189 0.35668 0.0
C1313 C 0.64778 0.98585 0.36245 0.0
C1314 C 0.62805 0.01068 0.36055 0.0
C1315 C 0.64015 0.0396 0.35702 0.0
C1316 C 0.67136 0.04369 0.35519 0.0
C1317 C 0.59469 0.0069 0.36179 0.0
C1318 C 0.57709 0.01693 0.34527 0.0
C1319 C 0.58016 0.99465 0.3792 0.0
C1320 C 0.59746 0.98461 0.39741 0.0
C1321 C 0.61683 0.0048 0.40772 0.0
C1322 C 0.6332 0.99511 0.4248 0.0
C1323 C 0.63021 0.96534 0.43181 0.0
C1324 C 0.61074 0.94524 0.4218 0.0
C1325 C 0.59434 0.95481 0.4047 0.0
H1326 H 0.64291 0.95788 0.44504 0.0
H1327 H 0.48197 0.05604 0.28115 0.0
H1328 H 0.53764 0.1873 0.83473 0.0
H1329 H 0.5328 0.13258 0.83756 0.0
H1330 H 0.44732 0.14326 0.86868 0.0
H1331 H 0.4523 0.1987 0.86604 0.0
H1332 H 0.48033 0.0997 0.88643 0.0
H1333 H 0.44915 0.12035 0.81862 0.0
H1334 H 0.45133 0.14298 0.78423 0.0
H1335 H 0.53466 0.09601 0.77224 0.0
H1336 H 0.53323 0.07343 0.80668 0.0
H1337 H 0.46326 0.93704 0.87332 0.0
H1338 H 0.45253 0.99165 0.87065 0.0
H1339 H 0.54239 0.00664 0.84679 0.0
H1340 H 0.55313 0.95244 0.84948 0.0
H1341 H 0.49631 0.0365 0.8247 0.0
H1342 H 0.52901 0.02158 0.895 0.0
H1343 H 0.52522 0.99888 0.92932 0.0
H1344 H 0.43525 0.03467 0.93589 0.0
H1345 H 0.43838 0.05724 0.90146 0.0
C1346 C 0.5176 0.17812 0.84198 0.0
C1347 C 0.49507 0.19739 0.84983 0.0
C1348 C 0.51487 0.14674 0.84361 0.0
C1349 C 0.48933 0.13368 0.85288 0.0
C1350 C 0.46711 0.1528 0.8613 0.0
C1351 C 0.46997 0.18443 0.8598 0.0
C1352 C 0.48648 0.10007 0.85379 0.0
C1353 C 0.48314 0.08589 0.87286 0.0
C1354 C 0.49023 0.08192 0.83611 0.0
C1355 C 0.49115 0.09532 0.81531 0.0
C1356 C 0.46805 0.11499 0.80871 0.0
C1357 C 0.46914 0.1278 0.78919 0.0
C1358 C 0.49314 0.12097 0.77607 0.0
C1359 C 0.51608 0.10128 0.78242 0.0
C1360 C 0.51511 0.08843 0.80193 0.0
C1361 C 0.48056 0.95204 0.86737 0.0
C1362 C 0.50908 0.94055 0.8617 0.0
C1363 C 0.47449 0.98317 0.86596 0.0
C1364 C 0.49674 0.00319 0.85861 0.0
C1365 C 0.52493 0.99161 0.85252 0.0
C1366 C 0.53111 0.96068 0.85419 0.0
C1367 C 0.4912 0.03633 0.85735 0.0
C1368 C 0.49291 0.05037 0.83818 0.0
C1369 C 0.48559 0.05424 0.87488 0.0
C1370 C 0.48378 0.04075 0.89557 0.0
C1371 C 0.50832 0.02437 0.90369 0.0
C1372 C 0.50631 0.01158 0.92317 0.0
C1373 C 0.47997 0.01524 0.93475 0.0
C1374 C 0.45562 0.03179 0.92689 0.0
C1375 C 0.45749 0.04459 0.90739 0.0
H1376 H 0.47847 0.00533 0.94984 0.0
H1377 H 0.49394 0.13091 0.76097 0.0
H1378 H 0.35286 0.55618 0.35349 0.0
H1379 H 0.4072 0.54942 0.35793 0.0
H1380 H 0.39267 0.45683 0.37657 0.0
H1381 H 0.33779 0.46328 0.37177 0.0
H1382 H 0.43686 0.48757 0.40028 0.0
H1383 H 0.41499 0.46912 0.32964 0.0
H1384 H 0.3931 0.48037 0.29583 0.0
H1385 H 0.44645 0.56161 0.29204 0.0
H1386 H 0.46832 0.55108 0.32599 0.0
H1387 H 0.58916 0.43909 0.38468 0.0
H1388 H 0.53429 0.44563 0.38511 0.0
H1389 H 0.54437 0.53495 0.35916 0.0
H1390 H 0.59934 0.52807 0.35797 0.0
H1391 H 0.50184 0.50457 0.33951 0.0
H1392 H 0.52392 0.52362 0.40987 0.0
H1393 H 0.54564 0.51327 0.44386 0.0
H1394 H 0.49227 0.43215 0.44851 0.0
H1395 H 0.47053 0.44179 0.41441 0.0
C1396 C 0.36107 0.53426 0.35842 0.0
C1397 C 0.34086 0.51008 0.36187 0.0
C1398 C 0.39223 0.53051 0.36106 0.0
C1399 C 0.40408 0.50249 0.36724 0.0
C1400 C 0.384 0.47863 0.3717 0.0
C1401 C 0.35264 0.48236 0.36899 0.0
C1402 C 0.43749 0.49811 0.36821 0.0
C1403 C 0.45108 0.49082 0.38695 0.0
C1404 C 0.4561 0.50311 0.35091 0.0
C1405 C 0.44308 0.50945 0.33045 0.0
C1406 C 0.42187 0.48951 0.32168 0.0
C1407 C 0.4095 0.49574 0.30247 0.0
C1408 C 0.41832 0.52172 0.29182 0.0
C1409 C 0.4396 0.54151 0.30033 0.0
C1410 C 0.45201 0.53541 0.31954 0.0
C1411 C 0.57978 0.46015 0.37905 0.0
C1412 C 0.59881 0.48298 0.37119 0.0
C1413 C 0.54832 0.46399 0.37951 0.0
C1414 C 0.53507 0.49089 0.37233 0.0
C1415 C 0.55401 0.51399 0.36484 0.0
C1416 C 0.58553 0.51014 0.36433 0.0
C1417 C 0.50145 0.49427 0.37166 0.0
C1418 C 0.48774 0.50131 0.3529 0.0
C1419 C 0.48281 0.48914 0.38897 0.0
C1420 C 0.49583 0.48328 0.40949 0.0
C1421 C 0.517 0.50344 0.41806 0.0
C1422 C 0.52928 0.49773 0.43736 0.0
C1423 C 0.5204 0.47203 0.44831 0.0
C1424 C 0.49916 0.45203 0.44 0.0
C1425 C 0.48683 0.45762 0.42069 0.0
H1426 H 0.52992 0.46765 0.46326 0.0
H1427 H 0.40873 0.5265 0.27695 0.0
H1428 H 0.00942 0.30403 0.89562 0.0
H1429 H 0.01668 0.35897 0.90007 0.0
H1430 H 0.99574 0.3731 0.83644 0.0
H1431 H 0.9884 0.31854 0.83203 0.0
H1432 H 0.04456 0.40878 0.85034 0.0
H1433 H 0.9418 0.38299 0.86957 0.0
H1434 H 0.90315 0.35502 0.8892 0.0
H1435 H 0.94011 0.38966 0.9452 0.0
H1436 H 0.97928 0.4175 0.92588 0.0
H1437 H 0.00639 0.56477 0.84765 0.0
H1438 H 0.00631 0.50973 0.84443 0.0
H1439 H 0.01035 0.50098 0.90997 0.0
H1440 H 0.00859 0.55566 0.91343 0.0
H1441 H 0.97258 0.46179 0.89625 0.0
H1442 H 0.0738 0.48968 0.87791 0.0
H1443 H 0.11348 0.51726 0.85899 0.0
H1444 H 0.08187 0.47864 0.8027 0.0
H1445 H 0.04171 0.45113 0.82126 0.0
C1446 C 0.00688 0.3189 0.88258 0.0
C1447 C 0.99807 0.30716 0.86354 0.0
C1448 C 0.01088 0.3502 0.88512 0.0
C1449 C 0.00648 0.37011 0.8686 0.0
C1450 C 0.99919 0.35818 0.84938 0.0
C1451 C 0.99481 0.32706 0.84692 0.0
C1452 C 0.00757 0.40347 0.87144 0.0
C1453 C 0.02875 0.42046 0.86028 0.0
C1454 C 0.9873 0.41859 0.8847 0.0
C1455 C 0.96366 0.40203 0.8963 0.0
C1456 C 0.94184 0.38443 0.88608 0.0
C1457 C 0.91981 0.36864 0.89714 0.0
C1458 C 0.91923 0.37049 0.91844 0.0
C1459 C 0.94063 0.3882 0.92871 0.0
C1460 C 0.96273 0.404 0.91771 0.0
C1461 C 0.00696 0.55129 0.86143 0.0
C1462 C 0.00775 0.56509 0.88082 0.0
C1463 C 0.0073 0.51966 0.85954 0.0
C1464 C 0.00892 0.50107 0.87695 0.0
C1465 C 0.00929 0.51473 0.89628 0.0
C1466 C 0.0086 0.54625 0.8982 0.0
C1467 C 0.00968 0.4674 0.87515 0.0
C1468 C 0.9887 0.45027 0.88645 0.0
C1469 C 0.03037 0.45217 0.86216 0.0
C1470 C 0.05457 0.46857 0.85096 0.0
C1471 C 0.07517 0.48724 0.86148 0.0
C1472 C 0.09777 0.50283 0.85082 0.0
C1473 C 0.10015 0.49977 0.82965 0.0
C1474 C 0.07998 0.48103 0.8191 0.0
C1475 C 0.05731 0.4654 0.82968 0.0
H1476 H 0.11766 0.51186 0.82143 0.0
H1477 H 0.90216 0.35825 0.92698 0.0
H1478 H 0.93204 0.03138 0.37217 0.0
H1479 H 0.98692 0.03913 0.37345 0.0
H1480 H 0.00103 0.94388 0.36225 0.0
H1481 H 0.94653 0.93601 0.36037 0.0
H1482 H 0.03592 0.96622 0.39441 0.0
H1483 H 0.00985 0.99297 0.32452 0.0
H1484 H 0.98249 0.02232 0.29829 0.0
H1485 H 0.02026 0.10492 0.32189 0.0
H1486 H 0.04753 0.07604 0.34846 0.0
H1487 H 0.18111 0.94142 0.35713 0.0
H1488 H 0.1267 0.94717 0.36171 0.0
H1489 H 0.13791 0.04365 0.36928 0.0
H1490 H 0.19277 0.03811 0.36416 0.0
H1491 H 0.09041 0.02949 0.34361 0.0
H1492 H 0.12277 0.00239 0.4101 0.0
H1493 H 0.15096 0.97333 0.43605 0.0
H1494 H 0.10172 0.89284 0.41992 0.0
H1495 H 0.0736 0.92128 0.3936 0.0
C1496 C 0.94675 0.01212 0.36973 0.0
C1497 C 0.93469 0.98302 0.36619 0.0
C1498 C 0.97813 0.01659 0.37059 0.0
C1499 C 0.99798 0.99206 0.36798 0.0
C1500 C 0.98606 0.96307 0.36449 0.0
C1501 C 0.95481 0.95861 0.36349 0.0
C1502 C 0.03126 0.99624 0.36867 0.0
C1503 C 0.04788 0.97998 0.38328 0.0
C1504 C 0.0467 0.01509 0.35462 0.0
C1505 C 0.03041 0.0324 0.33862 0.0
C1506 C 0.0121 0.01741 0.32422 0.0
C1507 C 0.99666 0.03396 0.30928 0.0
C1508 C 0.99956 0.06548 0.30847 0.0
C1509 C 0.01798 0.08051 0.32257 0.0
C1510 C 0.03345 0.06407 0.33756 0.0
C1511 C 0.17209 0.96392 0.35959 0.0
C1512 C 0.19129 0.98933 0.36019 0.0
C1513 C 0.14097 0.96714 0.36243 0.0
C1514 C 0.12832 0.99579 0.36608 0.0
C1515 C 0.14729 0.02132 0.36659 0.0
C1516 C 0.1786 0.01809 0.3638 0.0
C1517 C 0.09513 0.99863 0.36893 0.0
C1518 C 0.0785 0.01623 0.35503 0.0
C1519 C 0.07963 0.98116 0.38374 0.0
C1520 C 0.09617 0.96398 0.39978 0.0
C1521 C 0.11807 0.97845 0.41199 0.0
C1522 C 0.13404 0.96209 0.42678 0.0
C1523 C 0.12815 0.93125 0.42962 0.0
C1524 C 0.10624 0.91674 0.4177 0.0
C1525 C 0.09025 0.93298 0.40286 0.0
H1526 H 0.14055 0.91862 0.44107 0.0
H1527 H 0.98759 0.07825 0.29688 0.0
H1528 H 0.49919 0.31162 0.1235 0.0
H1529 H 0.49572 0.36673 0.11996 0.0
H1530 H 0.46876 0.37417 0.18304 0.0
H1531 H 0.47184 0.31895 0.18661 0.0
H1532 H 0.43622 0.41351 0.15675 0.0
H1533 H 0.53971 0.38628 0.17192 0.0
H1534 H 0.58709 0.35776 0.16649 0.0
H1535 H 0.59475 0.39491 0.1061 0.0
H1536 H 0.54715 0.42333 0.11107 0.0
H1537 H 0.47245 0.57178 0.16882 0.0
H1538 H 0.4654 0.51671 0.17227 0.0
H1539 H 0.50824 0.50343 0.11368 0.0
H1540 H 0.51613 0.55803 0.11072 0.0
H1541 H 0.53185 0.46645 0.13898 0.0
H1542 H 0.42924 0.4935 0.12271 0.0
H1543 H 0.38093 0.52096 0.12671 0.0
H1544 H 0.37045 0.48412 0.187 0.0
H1545 H 0.41892 0.45673 0.18345 0.0
C1546 C 0.49196 0.32489 0.13651 0.0
C1547 C 0.48598 0.3109 0.15539 0.0
C1548 C 0.49017 0.35642 0.13451 0.0
C1549 C 0.48227 0.37458 0.1513 0.0
C1550 C 0.47495 0.3606 0.1699 0.0
C1551 C 0.47696 0.32909 0.17196 0.0
C1552 C 0.48359 0.40818 0.1498 0.0
C1553 C 0.45715 0.4252 0.15307 0.0
C1554 C 0.5108 0.42333 0.14467 0.0
C1555 C 0.53973 0.40671 0.1418 0.0
C1556 C 0.5514 0.38822 0.15744 0.0
C1557 C 0.57831 0.37209 0.15445 0.0
C1558 C 0.59388 0.37445 0.13594 0.0
C1559 C 0.58264 0.39307 0.12042 0.0
C1560 C 0.55572 0.40921 0.12332 0.0
C1561 C 0.47975 0.557 0.15658 0.0
C1562 C 0.49486 0.56902 0.13953 0.0
C1563 C 0.47577 0.52556 0.15852 0.0
C1564 C 0.48621 0.50573 0.14319 0.0
C1565 C 0.5002 0.51806 0.12581 0.0
C1566 C 0.50462 0.54926 0.12407 0.0
C1567 C 0.48427 0.47213 0.14553 0.0
C1568 C 0.51076 0.45498 0.14258 0.0
C1569 C 0.45703 0.45694 0.15074 0.0
C1570 C 0.42786 0.47332 0.15289 0.0
C1571 C 0.41675 0.49144 0.13688 0.0
C1572 C 0.38932 0.50696 0.13906 0.0
C1573 C 0.37268 0.50436 0.15712 0.0
C1574 C 0.38339 0.48615 0.17302 0.0
C1575 C 0.41082 0.47061 0.17094 0.0
H1576 H 0.35145 0.51639 0.15877 0.0
H1577 H 0.61468 0.36191 0.13365 0.0
H1578 H 0.19272 0.48494 0.62363 0.0
H1579 H 0.13883 0.47559 0.61757 0.0
H1580 H 0.11595 0.53891 0.6653 0.0
H1581 H 0.16934 0.54705 0.6722 0.0
H1582 H 0.08041 0.49277 0.66812 0.0
H1583 H 0.11266 0.55682 0.61254 0.0
H1584 H 0.14408 0.571 0.58289 0.0
H1585 H 0.11528 0.49078 0.55122 0.0
H1586 H 0.08395 0.47593 0.5808 0.0
H1587 H 0.92661 0.52231 0.64439 0.0
H1588 H 0.98123 0.52564 0.65044 0.0
H1589 H 0.99726 0.46226 0.60153 0.0
H1590 H 0.94275 0.45949 0.59507 0.0
H1591 H 0.03662 0.50545 0.59889 0.0
H1592 H 0.00231 0.44295 0.65483 0.0
H1593 H 0.9701 0.43073 0.68449 0.0
H1594 H 0.00226 0.51015 0.7156 0.0
H1595 H 0.03438 0.52305 0.68602 0.0
C1596 C 0.17629 0.49663 0.63301 0.0
C1597 C 0.18569 0.51704 0.64829 0.0
C1598 C 0.14538 0.49149 0.62937 0.0
C1599 C 0.12317 0.50694 0.64073 0.0
C1600 C 0.13252 0.5268 0.65623 0.0
C1601 C 0.16328 0.53171 0.66 0.0
C1602 C 0.09016 0.50277 0.63659 0.0
C1603 C 0.07084 0.4958 0.65299 0.0
C1604 C 0.07757 0.5061 0.61681 0.0
C1605 C 0.09623 0.5151 0.59896 0.0
C1606 C 0.11319 0.5421 0.5993 0.0
C1607 C 0.13096 0.55027 0.5825 0.0
C1608 C 0.13175 0.53175 0.5652 0.0
C1609 C 0.11469 0.50507 0.56464 0.0
C1610 C 0.09691 0.49678 0.58141 0.0
C1611 C 0.94178 0.50893 0.63504 0.0
C1612 C 0.93035 0.49062 0.61926 0.0
C1613 C 0.97302 0.51081 0.63853 0.0
C1614 C 0.99351 0.49389 0.62667 0.0
C1615 C 0.98206 0.47559 0.6109 0.0
C1616 C 0.95086 0.47404 0.6072 0.0
C1617 C 0.02683 0.49564 0.63045 0.0
C1618 C 0.04621 0.50217 0.61399 0.0
C1619 C 0.03948 0.49209 0.65021 0.0
C1620 C 0.02064 0.48402 0.66817 0.0
C1621 C 0.00244 0.45784 0.66797 0.0
C1622 C 0.9842 0.45081 0.68477 0.0
C1623 C 0.98412 0.46966 0.70191 0.0
C1624 C 0.00239 0.49553 0.70233 0.0
C1625 C 0.02064 0.5027 0.68556 0.0
H1626 H 0.96992 0.46421 0.71488 0.0
H1627 H 0.14553 0.53811 0.55221 0.0
H1628 H 0.00614 0.92583 0.15697 0.0
H1629 H 0.01481 0.98056 0.16069 0.0
H1630 H 0.96495 0.99688 0.10512 0.0
H1631 H 0.95599 0.94226 0.1015 0.0
H1632 H 0.01953 0.03269 0.10951 0.0
H1633 H 0.92857 0.00562 0.14619 0.0
H1634 H 0.89844 0.9767 0.17123 0.0
H1635 H 0.95668 0.00725 0.21956 0.0
H1636 H 0.98749 0.03598 0.19474 0.0
H1637 H 0.98614 0.19036 0.12261 0.0
H1638 H 0.98521 0.13574 0.11563 0.0
H1639 H 0.01469 0.118 0.17738 0.0
H1640 H 0.01452 0.17232 0.18447 0.0
H1641 H 0.97119 0.0821 0.16922 0.0
H1642 H 0.0614 0.11102 0.13338 0.0
H1643 H 0.09179 0.14033 0.1087 0.0
H1644 H 0.03738 0.10631 0.05941 0.0
H1645 H 0.00617 0.07735 0.08384 0.0
C1646 C 0.99755 0.94108 0.14539 0.0
C1647 C 0.9803 0.92991 0.129 0.0
C1648 C 0.00237 0.97229 0.14756 0.0
C1649 C 0.99035 0.99273 0.13323 0.0
C1650 C 0.9744 0.98148 0.11633 0.0
C1651 C 0.96917 0.95037 0.11434 0.0
C1652 C 0.99265 0.02591 0.13653 0.0
C1653 C 0.00881 0.04365 0.12246 0.0
C1654 C 0.97904 0.03998 0.15362 0.0
C1655 C 0.96057 0.02265 0.16856 0.0
C1656 C 0.93516 0.00592 0.16212 0.0
C1657 C 0.91791 0.98961 0.17628 0.0
C1658 C 0.92571 0.99005 0.19696 0.0
C1659 C 0.95072 0.00687 0.20353 0.0
C1660 C 0.96807 0.02317 0.18942 0.0
C1661 C 0.99271 0.17472 0.13456 0.0
C1662 C 1.00025 0.1855 0.15411 0.0
C1663 C 0.99226 0.14351 0.13058 0.0
C1664 C 1.00009 0.12258 0.14595 0.0
C1665 C 0.00835 0.13354 0.1653 0.0
C1666 C 0.00827 0.16459 0.16936 0.0
C1667 C 0.99852 0.08925 0.14233 0.0
C1668 C 0.98224 0.07136 0.15632 0.0
C1669 C 0.01227 0.07509 0.12524 0.0
C1670 C 0.03123 0.09225 0.11049 0.0
C1671 C 0.05574 0.10998 0.1173 0.0
C1672 C 0.07311 0.12654 0.10335 0.0
C1673 C 0.06644 0.12528 0.08251 0.0
C1674 C 0.04249 0.1073 0.07557 0.0
C1675 C 0.02491 0.09085 0.08946 0.0
H1676 H 0.07987 0.13816 0.07174 0.0
H1677 H 0.91233 0.97741 0.2079 0.0
H1678 H 0.30188 0.99733 0.62179 0.0
H1679 H 0.3564 0.99327 0.61558 0.0
H1680 H 0.37433 0.04082 0.67182 0.0
H1681 H 0.31978 0.04544 0.67795 0.0
H1682 H 0.41279 0.05856 0.64003 0.0
H1683 H 0.37687 0.96572 0.67137 0.0
H1684 H 0.34322 0.92117 0.67351 0.0
H1685 H 0.37457 0.89066 0.61496 0.0
H1686 H 0.40811 0.9353 0.61234 0.0
H1687 H 0.56526 0.01457 0.65863 0.0
H1688 H 0.51095 0.02573 0.6602 0.0
H1689 H 0.49511 0.9642 0.61006 0.0
H1690 H 0.54922 0.95233 0.60901 0.0
H1691 H 0.45484 0.95436 0.63716 0.0
H1692 H 0.49187 0.04451 0.60535 0.0
H1693 H 0.52425 0.08967 0.60125 0.0
H1694 H 0.49042 0.12584 0.65767 0.0
H1695 H 0.45812 0.08069 0.66225 0.0
C1696 C 0.31738 0.00749 0.63263 0.0
C1697 C 0.3065 0.02157 0.65045 0.0
C1698 C 0.34854 0.00494 0.62913 0.0
C1699 C 0.36941 0.01642 0.64337 0.0
C1700 C 0.35862 0.03172 0.66067 0.0
C1701 C 0.32748 0.03414 0.66423 0.0
C1702 C 0.4024 0.01092 0.64089 0.0
C1703 C 0.4221 0.03582 0.63958 0.0
C1704 C 0.41438 0.98122 0.63978 0.0
C1705 C 0.39478 0.954 0.64157 0.0
C1706 C 0.37647 0.9496 0.6589 0.0
C1707 C 0.35742 0.92433 0.6602 0.0
C1708 C 0.35669 0.90314 0.64435 0.0
C1709 C 0.37513 0.90712 0.62721 0.0
C1710 C 0.39418 0.93238 0.62582 0.0
C1711 C 0.55017 0.00374 0.64782 0.0
C1712 C 0.56142 0.98258 0.63371 0.0
C1713 C 0.51913 0.01017 0.64867 0.0
C1714 C 0.49881 0.9961 0.63507 0.0
C1715 C 0.51019 0.9753 0.62077 0.0
C1716 C 0.54111 0.96852 0.62016 0.0
C1717 C 0.46559 0.00206 0.63626 0.0
C1718 C 0.44573 0.97719 0.63743 0.0
C1719 C 0.45348 0.03181 0.63697 0.0
C1720 C 0.47278 0.05907 0.63423 0.0
C1721 C 0.49149 0.06199 0.61695 0.0
C1722 C 0.50981 0.08761 0.61454 0.0
C1723 C 0.50945 0.11058 0.62922 0.0
C1724 C 0.4907 0.10802 0.64632 0.0
C1725 C 0.47236 0.08243 0.64883 0.0
H1726 H 0.52365 0.13039 0.62732 0.0
H1727 H 0.34188 0.88363 0.64536 0.0
H1728 H 0.86486 0.34506 0.12124 0.0
H1729 H 0.81072 0.33701 0.11507 0.0
H1730 H 0.82715 0.24165 0.10558 0.0
H1731 H 0.88119 0.24954 0.11163 0.0
H1732 H 0.78578 0.26231 0.07894 0.0
H1733 H 0.8028 0.26848 0.15157 0.0
H1734 H 0.82074 0.29231 0.18342 0.0
H1735 H 0.76184 0.36825 0.17305 0.0
H1736 H 0.74386 0.34504 0.14097 0.0
H1737 H 0.64725 0.19266 0.107 0.0
H1738 H 0.69922 0.21093 0.10303 0.0
H1739 H 0.66817 0.30315 0.10951 0.0
H1740 H 0.61603 0.28492 0.11375 0.0
H1741 H 0.71537 0.29002 0.13496 0.0
H1742 H 0.69355 0.27924 0.06404 0.0
H1743 H 0.67536 0.25346 0.03298 0.0
H1744 H 0.74276 0.18422 0.04074 0.0
H1745 H 0.76109 0.20934 0.07204 0.0
C1746 C 0.85693 0.32242 0.11772 0.0
C1747 C 0.87729 0.29792 0.11703 0.0
C1748 C 0.82601 0.31786 0.11418 0.0
C1749 C 0.81483 0.28866 0.11014 0.0
C1750 C 0.83527 0.26439 0.10863 0.0
C1751 C 0.86619 0.26895 0.11206 0.0
C1752 C 0.78175 0.28294 0.10861 0.0
C1753 C 0.77038 0.26822 0.09122 0.0
C1754 C 0.76155 0.29127 0.12445 0.0
C1755 C 0.77227 0.30521 0.14375 0.0
C1756 C 0.79386 0.29038 0.156 0.0
C1757 C 0.80401 0.30375 0.1741 0.0
C1758 C 0.79251 0.33183 0.18022 0.0
C1759 C 0.77078 0.34654 0.16827 0.0
C1760 C 0.76059 0.33328 0.15013 0.0
C1761 C 0.65147 0.21685 0.10737 0.0
C1762 C 0.62763 0.23737 0.11074 0.0
C1763 C 0.68113 0.22728 0.10495 0.0
C1764 C 0.68753 0.25842 0.10584 0.0
C1765 C 0.66367 0.27904 0.10869 0.0
C1766 C 0.63392 0.26862 0.11097 0.0
C1767 C 0.71942 0.26904 0.10539 0.0
C1768 C 0.73062 0.28459 0.12249 0.0
C1769 C 0.73943 0.26124 0.08936 0.0
C1770 C 0.72856 0.24609 0.07049 0.0
C1771 C 0.70435 0.25839 0.05922 0.0
C1772 C 0.69404 0.24391 0.04155 0.0
C1773 C 0.70786 0.21719 0.03491 0.0
C1774 C 0.73207 0.20492 0.04591 0.0
C1775 C 0.74246 0.21929 0.0636 0.0
H1776 H 0.69985 0.20601 0.02122 0.0
H1777 H 0.80039 0.34214 0.19425 0.0
H1778 H 0.31972 0.63745 0.5923 0.0
H1779 H 0.30773 0.69132 0.58821 0.0
H1780 H 0.30459 0.70154 0.65368 0.0
H1781 H 0.31474 0.64789 0.6579 0.0
H1782 H 0.25587 0.72437 0.63721 0.0
H1783 H 0.36313 0.73078 0.62377 0.0
H1784 H 0.41075 0.71818 0.60599 0.0
H1785 H 0.3729 0.74918 0.54929 0.0
H1786 H 0.32489 0.7616 0.5667 0.0
H1787 H 0.25393 0.87996 0.65345 0.0
H1788 H 0.27424 0.82873 0.65038 0.0
H1789 H 0.25609 0.82968 0.58569 0.0
H1790 H 0.23522 0.88112 0.58867 0.0
H1791 H 0.31349 0.80123 0.59775 0.0
H1792 H 0.20677 0.79672 0.6123 0.0
H1793 H 0.16025 0.81054 0.63094 0.0
H1794 H 0.19852 0.77599 0.68657 0.0
H1795 H 0.24549 0.76241 0.6683 0.0
C1796 C 0.3166 0.65122 0.60582 0.0
C1797 C 0.31827 0.63818 0.62543 0.0
C1798 C 0.31004 0.68208 0.60345 0.0
C1799 C 0.30534 0.70051 0.62065 0.0
C1800 C 0.30811 0.68778 0.64018 0.0
C1801 C 0.31435 0.65703 0.64256 0.0
C1802 C 0.29534 0.73248 0.61858 0.0
C1803 C 0.26871 0.74116 0.62873 0.0
C1804 C 0.31147 0.75424 0.60696 0.0
C1805 C 0.3403 0.74679 0.59649 0.0
C1806 C 0.36487 0.73466 0.60747 0.0
C1807 C 0.39195 0.72761 0.59748 0.0
C1808 C 0.39481 0.73279 0.57652 0.0
C1809 C 0.37063 0.74513 0.56552 0.0
C1810 C 0.34349 0.7522 0.57545 0.0
C1811 C 0.25425 0.86932 0.63855 0.0
C1812 C 0.24239 0.8843 0.62137 0.0
C1813 C 0.26609 0.84017 0.6368 0.0
C1814 C 0.26627 0.82538 0.61786 0.0
C1815 C 0.25609 0.84081 0.60043 0.0
C1816 C 0.24417 0.87011 0.60217 0.0
C1817 C 0.27468 0.79296 0.61687 0.0
C1818 C 0.30071 0.78424 0.60608 0.0
C1819 C 0.25814 0.77103 0.62798 0.0
C1820 C 0.22974 0.77877 0.63896 0.0
C1821 C 0.20535 0.79227 0.62853 0.0
C1822 C 0.17889 0.80003 0.63903 0.0
C1823 C 0.17645 0.7942 0.65993 0.0
C1824 C 0.20045 0.78051 0.67037 0.0
C1825 C 0.22698 0.77275 0.65995 0.0
H1826 H 0.15595 0.80023 0.66804 0.0
H1827 H 0.4158 0.72732 0.5688 0.0
H1828 H 0.86819 0.18197 0.9246 0.0
H1829 H 0.81549 0.19882 0.92901 0.0
H1830 H 0.80935 0.21678 0.8644 0.0
H1831 H 0.86167 0.20043 0.85993 0.0
H1832 H 0.79108 0.26517 0.8885 0.0
H1833 H 0.77496 0.15673 0.88352 0.0
H1834 H 0.78217 0.10352 0.89399 0.0
H1835 H 0.74741 0.12412 0.95363 0.0
H1836 H 0.74038 0.1776 0.94358 0.0
H1837 H 0.64003 0.28187 0.86083 0.0
H1838 H 0.69159 0.26363 0.86562 0.0
H1839 H 0.67405 0.24958 0.92972 0.0
H1840 H 0.62202 0.26818 0.92505 0.0
H1841 H 0.70514 0.20175 0.9123 0.0
H1842 H 0.71563 0.30886 0.91612 0.0
H1843 H 0.70806 0.36202 0.90569 0.0
H1844 H 0.75387 0.34466 0.84906 0.0
H1845 H 0.76132 0.29125 0.859 0.0
C1846 C 0.85543 0.18926 0.91135 0.0
C1847 C 0.86897 0.18966 0.89191 0.0
C1848 C 0.82539 0.19877 0.91387 0.0
C1849 C 0.80862 0.20902 0.89701 0.0
C1850 C 0.82195 0.20894 0.87759 0.0
C1851 C 0.85175 0.19927 0.87504 0.0
C1852 C 0.77757 0.22117 0.89944 0.0
C1853 C 0.77224 0.25128 0.89361 0.0
C1854 C 0.75331 0.20333 0.90685 0.0
C1855 C 0.75752 0.17122 0.91288 0.0
C1856 C 0.76913 0.14998 0.89893 0.0
C1857 C 0.77313 0.11976 0.90477 0.0
C1858 C 0.76536 0.11047 0.92449 0.0
C1859 C 0.75349 0.13137 0.93838 0.0
C1860 C 0.74948 0.16162 0.93261 0.0
C1861 C 0.64717 0.27532 0.87603 0.0
C1862 C 0.62706 0.27694 0.89263 0.0
C1863 C 0.67664 0.26476 0.87872 0.0
C1864 C 0.68678 0.25573 0.89809 0.0
C1865 C 0.66665 0.25659 0.91467 0.0
C1866 C 0.63699 0.26718 0.91197 0.0
C1867 C 0.71851 0.24546 0.90068 0.0
C1868 C 0.72403 0.21581 0.90752 0.0
C1869 C 0.74308 0.26377 0.89429 0.0
C1870 C 0.73887 0.29597 0.88827 0.0
C1871 C 0.72392 0.31631 0.90138 0.0
C1872 C 0.71967 0.34651 0.89556 0.0
C1873 C 0.73044 0.3567 0.87671 0.0
C1874 C 0.74553 0.33673 0.86366 0.0
C1875 C 0.74982 0.3065 0.86939 0.0
H1876 H 0.72712 0.38009 0.87223 0.0
H1877 H 0.76845 0.08706 0.92898 0.0
H1878 H 0.34445 0.86044 0.40403 0.0
H1879 H 0.32929 0.80704 0.40637 0.0
H1880 H 0.23549 0.83309 0.39985 0.0
H1881 H 0.25042 0.88619 0.39815 0.0
H1882 H 0.23803 0.78798 0.42471 0.0
H1883 H 0.2798 0.80949 0.35857 0.0
H1884 H 0.31868 0.82706 0.33424 0.0
H1885 H 0.3804 0.75931 0.35633 0.0
H1886 H 0.34199 0.74161 0.381 0.0
H1887 H 0.22313 0.64294 0.35599 0.0
H1888 H 0.23647 0.6956 0.36168 0.0
H1889 H 0.24253 0.67897 0.42648 0.0
H1890 H 0.22661 0.62661 0.42111 0.0
H1891 H 0.2852 0.71891 0.37415 0.0
H1892 H 0.23194 0.74404 0.4532 0.0
H1893 H 0.18749 0.72894 0.47369 0.0
H1894 H 0.13863 0.70711 0.41891 0.0
H1895 H 0.18263 0.72242 0.39811 0.0
C1896 C 0.3206 0.8547 0.40344 0.0
C1897 C 0.29864 0.87745 0.40093 0.0
C1898 C 0.31194 0.82422 0.4047 0.0
C1899 C 0.28125 0.81596 0.40293 0.0
C1900 C 0.25927 0.83882 0.40132 0.0
C1901 C 0.26786 0.86922 0.40038 0.0
C1902 C 0.27199 0.78363 0.40126 0.0
C1903 C 0.24846 0.7728 0.41374 0.0
C1904 C 0.28507 0.76396 0.38664 0.0
C1905 C 0.30816 0.77446 0.37178 0.0
C1906 C 0.30174 0.79848 0.35833 0.0
C1907 C 0.32368 0.80845 0.34447 0.0
C1908 C 0.35202 0.79437 0.34378 0.0
C1909 C 0.35845 0.77024 0.35691 0.0
C1910 C 0.33661 0.76022 0.37083 0.0
C1911 C 0.22626 0.65051 0.37156 0.0
C1912 C 0.22348 0.63028 0.38809 0.0
C1913 C 0.23445 0.68069 0.37476 0.0
C1914 C 0.24052 0.69143 0.39451 0.0
C1915 C 0.23757 0.67145 0.4111 0.0
C1916 C 0.22881 0.64132 0.40796 0.0
C1917 C 0.25095 0.72323 0.39745 0.0
C1918 C 0.27487 0.73393 0.38526 0.0
C1919 C 0.2374 0.74307 0.41178 0.0
C1920 C 0.21071 0.73404 0.42413 0.0
C1921 C 0.21168 0.73609 0.44554 0.0
C1922 C 0.18657 0.72748 0.4572 0.0
C1923 C 0.1603 0.71696 0.44761 0.0
C1924 C 0.15904 0.71514 0.42633 0.0
C1925 C 0.18407 0.72374 0.4146 0.0
H1926 H 0.14089 0.71029 0.45667 0.0
H1927 H 0.36897 0.80211 0.33303 0.0
H1928 H 0.10768 0.78059 0.88311 0.0
H1929 H 0.15899 0.80153 0.88481 0.0
H1930 H 0.19436 0.71242 0.89794 0.0
H1931 H 0.14315 0.69128 0.89567 0.0
H1932 H 0.2042 0.8061 0.91106 0.0
H1933 H 0.25924 0.70157 0.87244 0.0
H1934 H 0.24481 0.65993 0.84923 0.0
H1935 H 0.1737 0.71485 0.82401 0.0
H1936 H 0.18799 0.75694 0.84685 0.0
H1937 H 0.36566 0.81755 0.91383 0.0
H1938 H 0.31225 0.80402 0.91716 0.0
H1939 H 0.3024 0.80679 0.85164 0.0
H1940 H 0.35599 0.81791 0.84807 0.0
H1941 H 0.27869 0.75821 0.86443 0.0
H1942 H 0.27106 0.86185 0.8848 0.0
H1943 H 0.28336 0.90778 0.90459 0.0
H1944 H 0.2566 0.86296 0.95994 0.0
H1945 H 0.24451 0.81661 0.9405 0.0
C1946 C 0.12637 0.76559 0.88672 0.0
C1947 C 0.12158 0.73428 0.88905 0.0
C1948 C 0.15565 0.77757 0.8877 0.0
C1949 C 0.18056 0.75846 0.89113 0.0
C1950 C 0.17553 0.72748 0.89483 0.0
C1951 C 0.14633 0.71544 0.89356 0.0
C1952 C 0.21186 0.77042 0.88922 0.0
C1953 C 0.22057 0.79563 0.90092 0.0
C1954 C 0.23294 0.75727 0.87557 0.0
C1955 C 0.2245 0.73226 0.86151 0.0
C1956 C 0.24061 0.70478 0.86188 0.0
C1957 C 0.23244 0.68111 0.8488 0.0
C1958 C 0.20829 0.68471 0.8352 0.0
C1959 C 0.19233 0.71205 0.8346 0.0
C1960 C 0.20045 0.73581 0.84761 0.0
C1961 C 0.35216 0.81527 0.90011 0.0
C1962 C 0.36538 0.81876 0.88068 0.0
C1963 C 0.32147 0.80792 0.90207 0.0
C1964 C 0.30319 0.80452 0.88465 0.0
C1965 C 0.31602 0.80922 0.86531 0.0
C1966 C 0.34673 0.81605 0.86332 0.0
C1967 C 0.27132 0.79392 0.88636 0.0
C1968 C 0.26247 0.76879 0.87463 0.0
C1969 C 0.24992 0.80783 0.89947 0.0
C1970 C 0.25716 0.83566 0.91121 0.0
C1971 C 0.26803 0.86171 0.90121 0.0
C1972 C 0.27492 0.88783 0.91236 0.0
C1973 C 0.27084 0.88826 0.93352 0.0
C1974 C 0.25978 0.86258 0.94355 0.0
C1975 C 0.25288 0.83639 0.93247 0.0
H1976 H 0.27618 0.90851 0.94212 0.0
H1977 H 0.20197 0.66634 0.82511 0.0
H1978 H 0.81857 0.14398 0.35155 0.0
H1979 H 0.81264 0.19838 0.35622 0.0
H1980 H 0.82443 0.18777 0.42121 0.0
H1981 H 0.83124 0.13294 0.41659 0.0
H1982 H 0.76856 0.22637 0.37706 0.0
H1983 H 0.85692 0.25591 0.43882 0.0
H1984 H 0.90653 0.23784 0.45128 0.0
H1985 H 0.92682 0.20197 0.3919 0.0
H1986 H 0.87755 0.22018 0.37903 0.0
H1987 H 0.73815 0.37531 0.40682 0.0
H1988 H 0.7529 0.32258 0.41228 0.0
H1989 H 0.83365 0.33677 0.37644 0.0
H1990 H 0.81953 0.38988 0.3714 0.0
H1991 H 0.8433 0.29638 0.40847 0.0
H1992 H 0.7722 0.31246 0.35323 0.0
H1993 H 0.72457 0.33136 0.33818 0.0
H1994 H 0.67325 0.27603 0.37961 0.0
H1995 H 0.72064 0.25715 0.39512 0.0
C1996 C 0.82062 0.15319 0.36682 0.0
C1997 C 0.82566 0.13412 0.3837 0.0
C1998 C 0.81688 0.18429 0.36947 0.0
C1999 C 0.81812 0.19711 0.38904 0.0
C2000 C 0.82363 0.17833 0.40596 0.0
C2001 C 0.82733 0.14704 0.40331 0.0
C2002 C 0.81228 0.22998 0.39154 0.0
C2003 C 0.78484 0.2416 0.38407 0.0
C2004 C 0.83358 0.24988 0.40056 0.0
C2005 C 0.86339 0.23908 0.40805 0.0
C2006 C 0.87201 0.24423 0.42842 0.0
C2007 C 0.90007 0.23396 0.43555 0.0
C2008 C 0.91976 0.21866 0.42241 0.0
C2009 C 0.91149 0.2137 0.40209 0.0
C2010 C 0.88348 0.22394 0.39488 0.0
C2011 C 0.75954 0.36753 0.40063 0.0
C2012 C 0.77749 0.38668 0.38843 0.0
C2013 C 0.76784 0.33732 0.40368 0.0
C2014 C 0.79411 0.3257 0.3945 0.0
C2015 C 0.81324 0.34529 0.38361 0.0
C2016 C 0.80497 0.37553 0.38056 0.0
C2017 C 0.79963 0.2926 0.39399 0.0
C2018 C 0.82689 0.28098 0.40179 0.0
C2019 C 0.77841 0.27263 0.38494 0.0
C2020 C 0.74992 0.28366 0.37547 0.0
C2021 C 0.75075 0.30449 0.35922 0.0
C2022 C 0.7238 0.31518 0.3506 0.0
C2023 C 0.69589 0.30496 0.35797 0.0
C2024 C 0.69488 0.28396 0.37394 0.0
C2025 C 0.72177 0.27326 0.38265 0.0
H2026 H 0.67505 0.31326 0.35128 0.0
H2027 H 0.94146 0.21072 0.42796 0.0
H2028 H 0.342 0.66353 0.12533 0.0
H2029 H 0.28872 0.67914 0.12243 0.0
H2030 H 0.31678 0.77226 0.11557 0.0
H2031 H 0.36971 0.75698 0.1187 0.0
H2032 H 0.27113 0.76547 0.14365 0.0
H2033 H 0.29329 0.73333 0.0748 0.0
H2034 H 0.3105 0.69717 0.04855 0.0
H2035 H 0.24076 0.63462 0.06638 0.0
H2036 H 0.22339 0.67026 0.09294 0.0
H2037 H 0.13203 0.83214 0.11531 0.0
H2038 H 0.18491 0.81521 0.11463 0.0
H2039 H 0.1551 0.72202 0.11403 0.0
H2040 H 0.10241 0.73881 0.11429 0.0
H2041 H 0.20166 0.72776 0.08975 0.0
H2042 H 0.17937 0.7576 0.15841 0.0
H2043 H 0.16192 0.79175 0.18579 0.0
H2044 H 0.23141 0.85584 0.17012 0.0
H2045 H 0.24901 0.82224 0.14244 0.0
C2046 C 0.33673 0.68729 0.12316 0.0
C2047 C 0.36004 0.70897 0.12202 0.0
C2048 C 0.30636 0.69616 0.1214 0.0
C2049 C 0.29886 0.72685 0.11863 0.0
C2050 C 0.32209 0.74847 0.11762 0.0
C2051 C 0.35234 0.73964 0.11922 0.0
C2052 C 0.26681 0.73675 0.11724 0.0
C2053 C 0.25601 0.75753 0.13172 0.0
C2054 C 0.24692 0.72569 0.10203 0.0
C2055 C 0.25724 0.70433 0.08599 0.0
C2056 C 0.28178 0.71176 0.07324 0.0
C2057 C 0.29154 0.69138 0.05828 0.0
C2058 C 0.27679 0.66358 0.05584 0.0
C2059 C 0.25219 0.65614 0.06831 0.0
C2060 C 0.24236 0.67644 0.0833 0.0
C2061 C 0.13683 0.80807 0.11486 0.0
C2062 C 0.11309 0.78683 0.11482 0.0
C2063 C 0.16701 0.79839 0.11455 0.0
C2064 C 0.17402 0.76729 0.11463 0.0
C2065 C 0.15031 0.74611 0.11395 0.0
C2066 C 0.12018 0.75576 0.11402 0.0
C2067 C 0.20595 0.75675 0.1161 0.0
C2068 C 0.21673 0.73577 0.10168 0.0
C2069 C 0.22578 0.76733 0.13155 0.0
C2070 C 0.2153 0.78754 0.14822 0.0
C2071 C 0.19079 0.77908 0.16071 0.0
C2072 C 0.18089 0.79832 0.17629 0.0
C2073 C 0.19549 0.82598 0.17966 0.0
C2074 C 0.22008 0.83442 0.16747 0.0
C2075 C 0.23004 0.81529 0.15184 0.0
H2076 H 0.1878 0.84084 0.19174 0.0
H2077 H 0.28437 0.64783 0.04425 0.0
H2078 H 0.6892 0.11452 0.57741 0.0
H2079 H 0.70672 0.16624 0.5705 0.0
H2080 H 0.70862 0.18464 0.63516 0.0
H2081 H 0.69259 0.13294 0.64224 0.0
H2082 H 0.68672 0.2228 0.57841 0.0
H2083 H 0.77057 0.22458 0.64694 0.0
H2084 H 0.80101 0.18827 0.66695 0.0
H2085 H 0.80296 0.12717 0.61596 0.0
H2086 H 0.77294 0.16329 0.59553 0.0
H2087 H 0.72745 0.37098 0.60776 0.0
H2088 H 0.71037 0.31877 0.60367 0.0
H2089 H 0.80083 0.29205 0.5862 0.0
H2090 H 0.81819 0.34438 0.59077 0.0
H2091 H 0.78117 0.25517 0.61335 0.0
H2092 H 0.74019 0.29268 0.55139 0.0
H2093 H 0.71195 0.32741 0.52884 0.0
H2094 H 0.62968 0.30764 0.56122 0.0
H2095 H 0.65749 0.2731 0.58415 0.0
C2096 C 0.69325 0.12964 0.59015 0.0
C2097 C 0.68965 0.11946 0.61039 0.0
C2098 C 0.70306 0.15922 0.58616 0.0
C2099 C 0.7095 0.17906 0.60234 0.0
C2100 C 0.70427 0.16951 0.62246 0.0
C2101 C 0.69468 0.13999 0.62647 0.0
C2102 C 0.72301 0.20927 0.59841 0.0
C2103 C 0.70742 0.22992 0.58596 0.0
C2104 C 0.75056 0.21816 0.60774 0.0
C2105 C 0.76928 0.19658 0.61976 0.0
C2106 C 0.77766 0.20349 0.63995 0.0
C2107 C 0.79481 0.18292 0.65137 0.0
C2108 C 0.80383 0.1554 0.64275 0.0
C2109 C 0.79587 0.14845 0.62264 0.0
C2110 C 0.77877 0.16896 0.61114 0.0
C2111 C 0.74356 0.35411 0.6026 0.0
C2112 C 0.77415 0.36174 0.59952 0.0
C2113 C 0.73375 0.32424 0.60022 0.0
C2114 C 0.75421 0.30145 0.59439 0.0
C2115 C 0.78462 0.30922 0.59071 0.0
C2116 C 0.79452 0.33908 0.59332 0.0
C2117 C 0.74435 0.26926 0.59389 0.0
C2118 C 0.76065 0.24811 0.60555 0.0
C2119 C 0.71789 0.25977 0.5834 0.0
C2120 C 0.70099 0.28042 0.56958 0.0
C2121 C 0.71611 0.29588 0.55379 0.0
C2122 C 0.70017 0.31552 0.54093 0.0
C2123 C 0.66905 0.31977 0.54361 0.0
C2124 C 0.65379 0.30433 0.55915 0.0
C2125 C 0.66962 0.28468 0.57207 0.0
H2126 H 0.65676 0.33498 0.53364 0.0
H2127 H 0.81698 0.13946 0.65166 0.0
H2128 H 0.31196 0.01764 0.29002 0.0
H2129 H 0.33013 0.0492 0.26211 0.0
H2130 H 0.34835 0.12183 0.3045 0.0
H2131 H 0.33033 0.08988 0.33278 0.0
H2132 H 0.31946 0.10226 0.24418 0.0
H2133 H 0.4204 0.15177 0.28948 0.0
H2134 H 0.45102 0.14158 0.32026 0.0
H2135 H 0.42739 0.04728 0.31723 0.0
H2136 H 0.39753 0.05669 0.28601 0.0
H2137 H 0.4163 0.18784 0.17522 0.0
H2138 H 0.38154 0.17206 0.20263 0.0
H2139 H 0.44292 0.09973 0.21884 0.0
H2140 H 0.47782 0.11611 0.19226 0.0
H2141 H 0.42831 0.1281 0.25135 0.0
H2142 H 0.37279 0.08866 0.19347 0.0
H2143 H 0.34603 0.092 0.16047 0.0
H2144 H 0.28265 0.15508 0.1863 0.0
H2145 H 0.30928 0.15238 0.21941 0.0
C2146 C 0.31921 0.04058 0.29338 0.0
C2147 C 0.32011 0.05119 0.3136 0.0
C2148 C 0.32942 0.05869 0.27736 0.0
C2149 C 0.341 0.08772 0.28121 0.0
C2150 C 0.33975 0.09935 0.30121 0.0
C2151 C 0.32934 0.08117 0.31733 0.0
C2152 C 0.35765 0.10368 0.26468 0.0
C2153 C 0.34317 0.10835 0.24581 0.0
C2154 C 0.38874 0.11112 0.26667 0.0
C2155 C 0.40622 0.10509 0.28562 0.0
C2156 C 0.42172 0.12887 0.29539 0.0
C2157 C 0.43905 0.1232 0.31285 0.0
C2158 C 0.44105 0.09383 0.32071 0.0
C2159 C 0.42569 0.07005 0.31115 0.0
C2160 C 0.40863 0.07552 0.29353 0.0
C2161 C 0.42196 0.16829 0.18447 0.0
C2162 C 0.44973 0.15325 0.18176 0.0
C2163 C 0.40217 0.15931 0.20013 0.0
C2164 C 0.40967 0.13478 0.21294 0.0
C2165 C 0.43677 0.11897 0.20942 0.0
C2166 C 0.45665 0.12824 0.19414 0.0
C2167 C 0.3904 0.12594 0.23063 0.0
C2168 C 0.40441 0.12274 0.24978 0.0
C2169 C 0.35922 0.11897 0.22869 0.0
C2170 C 0.34324 0.12061 0.20882 0.0
C2171 C 0.3533 0.10343 0.19206 0.0
C2172 C 0.33813 0.10517 0.17335 0.0
C2173 C 0.31272 0.12382 0.17127 0.0
C2174 C 0.30237 0.1407 0.18792 0.0
C2175 C 0.31748 0.13906 0.20666 0.0
H2176 H 0.301 0.12513 0.15678 0.0
H2177 H 0.45475 0.08951 0.33408 0.0
H2178 H 0.40984 0.35746 0.8437 0.0
H2179 H 0.37251 0.37264 0.81769 0.0
H2180 H 0.43481 0.34582 0.77019 0.0
H2181 H 0.47214 0.332 0.79587 0.0
H2182 H 0.41572 0.39892 0.76226 0.0
H2183 H 0.36721 0.30598 0.7821 0.0
H2184 H 0.34415 0.2694 0.80596 0.0
H2185 H 0.27635 0.33485 0.82228 0.0
H2186 H 0.29926 0.37199 0.7987 0.0
H2187 H 0.32567 0.41997 0.67687 0.0
H2188 H 0.34701 0.38732 0.70343 0.0
H2189 H 0.29647 0.4359 0.74925 0.0
H2190 H 0.27538 0.46891 0.72283 0.0
H2191 H 0.30703 0.37068 0.75806 0.0
H2192 H 0.35865 0.46393 0.73951 0.0
H2193 H 0.38132 0.49959 0.71486 0.0
H2194 H 0.44443 0.43114 0.69584 0.0
H2195 H 0.42151 0.39478 0.71998 0.0
C2196 C 0.41526 0.35454 0.82769 0.0
C2197 C 0.44395 0.34393 0.82177 0.0
C2198 C 0.39392 0.36306 0.81283 0.0
C2199 C 0.4008 0.36039 0.7919 0.0
C2200 C 0.429 0.34842 0.78617 0.0
C2201 C 0.45035 0.34052 0.80089 0.0
C2202 C 0.38005 0.37211 0.77578 0.0
C2203 C 0.39211 0.39221 0.76124 0.0
C2204 C 0.34896 0.36414 0.77461 0.0
C2205 C 0.33514 0.34187 0.78879 0.0
C2206 C 0.34753 0.31266 0.7909 0.0
C2207 C 0.33446 0.29181 0.80435 0.0
C2208 C 0.30885 0.29982 0.81567 0.0
C2209 C 0.29622 0.32869 0.81352 0.0
C2210 C 0.30922 0.34964 0.8001 0.0
C2211 C 0.31814 0.42293 0.69247 0.0
C2212 C 0.29925 0.4473 0.69783 0.0
C2213 C 0.33038 0.40427 0.70765 0.0
C2214 C 0.32361 0.40952 0.72831 0.0
C2215 C 0.30197 0.43149 0.73341 0.0
C2216 C 0.29005 0.45041 0.71829 0.0
C2217 C 0.34314 0.39659 0.74452 0.0
C2218 C 0.33079 0.37682 0.75911 0.0
C2219 C 0.37411 0.4046 0.74575 0.0
C2220 C 0.38811 0.42653 0.73137 0.0
C2221 C 0.37712 0.45638 0.7299 0.0
C2222 C 0.39001 0.47672 0.71602 0.0
C2223 C 0.41422 0.46761 0.70374 0.0
C2224 C 0.42558 0.43813 0.70529 0.0
C2225 C 0.41262 0.41763 0.71906 0.0
H2226 H 0.42429 0.48348 0.69313 0.0
H2227 H 0.29876 0.28364 0.82607 0.0
H2228 H 0.22282 0.46657 0.28596 0.0
H2229 H 0.20056 0.43037 0.26231 0.0
H2230 H 0.18098 0.36989 0.31239 0.0
H2231 H 0.20276 0.40667 0.33638 0.0
H2232 H 0.20422 0.37407 0.24923 0.0
H2233 H 0.10865 0.34285 0.30519 0.0
H2234 H 0.08454 0.36236 0.33657 0.0
H2235 H 0.10979 0.45317 0.32018 0.0
H2236 H 0.13356 0.43425 0.28855 0.0
H2237 H 0.09337 0.29203 0.18891 0.0
H2238 H 0.13114 0.30495 0.21524 0.0
H2239 H 0.07878 0.38407 0.23138 0.0
H2240 H 0.04096 0.37062 0.20608 0.0
H2241 H 0.09508 0.35917 0.26424 0.0
H2242 H 0.14663 0.38515 0.20117 0.0
H2243 H 0.16862 0.37454 0.16728 0.0
H2244 H 0.22818 0.30845 0.1939 0.0
H2245 H 0.20627 0.31846 0.22792 0.0
C2246 C 0.21444 0.44526 0.29194 0.0
C2247 C 0.21404 0.43972 0.31307 0.0
C2248 C 0.20186 0.42443 0.27834 0.0
C2249 C 0.18855 0.39762 0.28557 0.0
C2250 C 0.19074 0.39065 0.30649 0.0
C2251 C 0.20334 0.41161 0.32018 0.0
C2252 C 0.16886 0.37976 0.27157 0.0
C2253 C 0.18044 0.37035 0.25262 0.0
C2254 C 0.13768 0.37539 0.27578 0.0
C2255 C 0.12324 0.38704 0.29468 0.0
C2256 C 0.109 0.36697 0.30829 0.0
C2257 C 0.09537 0.37793 0.32609 0.0
C2258 C 0.09571 0.40897 0.33038 0.0
C2259 C 0.1096 0.42913 0.31685 0.0
C2260 C 0.12315 0.41829 0.29899 0.0
C2261 C 0.09016 0.31219 0.19809 0.0
C2262 C 0.06416 0.3302 0.19556 0.0
C2263 C 0.11171 0.31959 0.21312 0.0
C2264 C 0.10786 0.34551 0.22543 0.0
C2265 C 0.08217 0.36372 0.22241 0.0
C2266 C 0.06056 0.35606 0.20781 0.0
C2267 C 0.13013 0.35439 0.24151 0.0
C2268 C 0.11903 0.36201 0.26097 0.0
C2269 C 0.16142 0.35828 0.23741 0.0
C2270 C 0.17456 0.35225 0.21701 0.0
C2271 C 0.16426 0.3682 0.19975 0.0
C2272 C 0.17673 0.36232 0.18054 0.0
C2273 C 0.19971 0.34076 0.17843 0.0
C2274 C 0.21033 0.32509 0.19555 0.0
C2275 C 0.1979 0.33085 0.21479 0.0
H2276 H 0.20934 0.33625 0.16354 0.0
H2277 H 0.0851 0.4174 0.34415 0.0
H2278 H 0.03974 0.22319 0.79836 0.0
H2279 H 0.07103 0.20914 0.76905 0.0
H2280 H 0.1126 0.13819 0.80475 0.0
H2281 H 0.08227 0.15329 0.83443 0.0
H2282 H 0.15177 0.15831 0.77688 0.0
H2283 H 0.04738 0.12575 0.77663 0.0
H2284 H 0.99198 0.13293 0.77799 0.0
H2285 H 0.99581 0.18872 0.7243 0.0
H2286 H 0.05134 0.18222 0.72281 0.0
H2287 H 0.16334 0.03322 0.71152 0.0
H2288 H 0.15062 0.07114 0.73703 0.0
H2289 H 0.13087 0.13572 0.6894 0.0
H2290 H 0.14418 0.09748 0.6634 0.0
H2291 H 0.08444 0.12822 0.7196 0.0
H2292 H 0.19017 0.14934 0.71711 0.0
H2293 H 0.24463 0.13694 0.71652 0.0
H2294 H 0.23751 0.09694 0.7761 0.0
H2295 H 0.18289 0.10866 0.77693 0.0
C2296 C 0.05647 0.2054 0.80014 0.0
C2297 C 0.05863 0.18924 0.81855 0.0
C2298 C 0.07415 0.19722 0.78335 0.0
C2299 C 0.09348 0.17199 0.78448 0.0
C2300 C 0.09772 0.15762 0.80346 0.0
C2301 C 0.08048 0.1663 0.82045 0.0
C2302 C 0.10597 0.1582 0.76553 0.0
C2303 C 0.13707 0.15174 0.76435 0.0
C2304 C 0.08689 0.15002 0.74896 0.0
C2305 C 0.05352 0.15382 0.74976 0.0
C2306 C 0.03642 0.13972 0.7652 0.0
C2307 C 0.005 0.14365 0.76599 0.0
C2308 C 0.9904 0.16135 0.75128 0.0
C2309 C 0.00717 0.17508 0.73571 0.0
C2310 C 0.03861 0.17129 0.73489 0.0
C2311 C 0.15645 0.05552 0.70637 0.0
C2312 C 0.15452 0.06232 0.68543 0.0
C2313 C 0.14946 0.07727 0.72102 0.0
C2314 C 0.14013 0.10633 0.71513 0.0
C2315 C 0.13829 0.11344 0.69423 0.0
C2316 C 0.14585 0.09166 0.67943 0.0
C2317 C 0.13011 0.12796 0.73109 0.0
C2318 C 0.09933 0.13563 0.73182 0.0
C2319 C 0.1494 0.13666 0.74736 0.0
C2320 C 0.18235 0.12978 0.74703 0.0
C2321 C 0.20016 0.13772 0.73003 0.0
C2322 C 0.23108 0.13083 0.72967 0.0
C2323 C 0.24452 0.11613 0.74626 0.0
C2324 C 0.22707 0.10834 0.76327 0.0
C2325 C 0.19613 0.11515 0.76371 0.0
H2326 H 0.26846 0.11081 0.74594 0.0
H2327 H 0.96607 0.16436 0.7519 0.0
H2328 H 0.69919 0.95761 0.71587 0.0
H2329 H 0.68466 0.91971 0.74114 0.0
H2330 H 0.65439 0.86026 0.69298 0.0
H2331 H 0.66901 0.89836 0.66746 0.0
H2332 H 0.61027 0.8727 0.72072 0.0
H2333 H 0.71265 0.83888 0.72351 0.0
H2334 H 0.76815 0.84398 0.72615 0.0
H2335 H 0.75889 0.88321 0.7858 0.0
H2336 H 0.7033 0.87878 0.78342 0.0
H2337 H 0.54644 0.77786 0.79258 0.0
H2338 H 0.58345 0.79091 0.76625 0.0
H2339 H 0.62435 0.85605 0.80696 0.0
H2340 H 0.58801 0.842 0.8337 0.0
H2341 H 0.66637 0.83321 0.78079 0.0
H2342 H 0.56666 0.87683 0.7758 0.0
H2343 H 0.51083 0.87579 0.77399 0.0
H2344 H 0.51523 0.82301 0.71898 0.0
H2345 H 0.57113 0.82337 0.72065 0.0
C2346 C 0.69017 0.93614 0.71061 0.0
C2347 C 0.68503 0.931 0.68971 0.0
C2348 C 0.68206 0.91439 0.72509 0.0
C2349 C 0.66853 0.88708 0.71898 0.0
C2350 C 0.66495 0.88114 0.69801 0.0
C2351 C 0.67339 0.90284 0.68346 0.0
C2352 C 0.65421 0.8672 0.73454 0.0
C2353 C 0.62271 0.8633 0.73354 0.0
C2354 C 0.67027 0.85599 0.75169 0.0
C2355 C 0.70374 0.85865 0.75322 0.0
C2356 C 0.72241 0.84881 0.73713 0.0
C2357 C 0.75391 0.85155 0.73859 0.0
C2358 C 0.76704 0.86395 0.75612 0.0
C2359 C 0.74869 0.8736 0.77224 0.0
C2360 C 0.71718 0.87094 0.77085 0.0
C2361 C 0.56407 0.79414 0.79614 0.0
C2362 C 0.56433 0.8091 0.81505 0.0
C2363 C 0.5851 0.80169 0.78107 0.0
C2364 C 0.60612 0.82508 0.78442 0.0
C2365 C 0.60824 0.83805 0.80399 0.0
C2366 C 0.58752 0.82998 0.81928 0.0
C2367 C 0.62252 0.83886 0.7669 0.0
C2368 C 0.65418 0.84192 0.76766 0.0
C2369 C 0.60662 0.84988 0.7496 0.0
C2370 C 0.57303 0.84981 0.74849 0.0
C2371 C 0.5557 0.86482 0.7634 0.0
C2372 C 0.52406 0.86437 0.76239 0.0
C2373 C 0.50949 0.84926 0.74641 0.0
C2374 C 0.52655 0.83464 0.73137 0.0
C2375 C 0.55821 0.83496 0.73234 0.0
H2376 H 0.48499 0.84894 0.74565 0.0
H2377 H 0.79143 0.86605 0.75722 0.0
H2378 H 0.58131 0.66547 0.16811 0.0
H2379 H 0.61657 0.64318 0.19293 0.0
H2380 H 0.56754 0.68583 0.2421 0.0
H2381 H 0.53237 0.70802 0.21748 0.0
H2382 H 0.63076 0.68218 0.24941 0.0
H2383 H 0.54651 0.61834 0.22748 0.0
H2384 H 0.51615 0.59265 0.20097 0.0
H2385 H 0.59455 0.54258 0.18181 0.0
H2386 H 0.62552 0.56842 0.20795 0.0
H2387 H 0.659 0.58172 0.33323 0.0
H2388 H 0.63693 0.6154 0.30727 0.0
H2389 H 0.67241 0.55769 0.25971 0.0
H2390 H 0.69307 0.52369 0.28537 0.0
H2391 H 0.61852 0.5704 0.25041 0.0
H2392 H 0.70298 0.63016 0.27238 0.0
H2393 H 0.73593 0.65683 0.29693 0.0
H2394 H 0.66179 0.71436 0.31423 0.0
H2395 H 0.62827 0.68776 0.28997 0.0
C2396 C 0.57876 0.67095 0.18414 0.0
C2397 C 0.55398 0.68821 0.19093 0.0
C2398 C 0.59879 0.6581 0.19831 0.0
C2399 C 0.59434 0.66251 0.21937 0.0
C2400 C 0.57134 0.68209 0.22595 0.0
C2401 C 0.5512 0.69466 0.21186 0.0
C2402 C 0.6105 0.64363 0.23462 0.0
C2403 C 0.6281 0.65774 0.24973 0.0
C2404 C 0.60728 0.61172 0.23482 0.0
C2405 C 0.5884 0.59553 0.21953 0.0
C2406 C 0.55731 0.60197 0.21754 0.0
C2407 C 0.53999 0.5874 0.20258 0.0
C2408 C 0.55344 0.56605 0.18969 0.0
C2409 C 0.58419 0.55916 0.19179 0.0
C2410 C 0.60163 0.57376 0.20667 0.0
C2411 C 0.6621 0.57642 0.31722 0.0
C2412 C 0.67755 0.55 0.31134 0.0
C2413 C 0.64966 0.59573 0.30237 0.0
C2414 C 0.65316 0.58928 0.28143 0.0
C2415 C 0.66914 0.56316 0.27569 0.0
C2416 C 0.68099 0.54369 0.29043 0.0
C2417 C 0.63929 0.60878 0.26533 0.0
C2418 C 0.62171 0.59478 0.2501 0.0
C2419 C 0.64296 0.64071 0.2649 0.0
C2420 C 0.66304 0.65676 0.2795 0.0
C2421 C 0.69364 0.64835 0.28153 0.0
C2422 C 0.71243 0.66348 0.29538 0.0
C2423 C 0.70094 0.68722 0.30717 0.0
C2424 C 0.67065 0.69594 0.30511 0.0
C2425 C 0.65175 0.68086 0.2913 0.0
H2426 H 0.71553 0.69891 0.31788 0.0
H2427 H 0.54004 0.5548 0.1781 0.0
H2428 H 0.84674 0.57227 0.66273 0.0
H2429 H 0.86402 0.60588 0.69045 0.0
H2430 H 0.8412 0.53715 0.73471 0.0
H2431 H 0.82427 0.50377 0.70738 0.0
H2432 H 0.82559 0.59497 0.74784 0.0
H2433 H 0.91115 0.54241 0.71689 0.0
H2434 H 0.94575 0.52899 0.68872 0.0
H2435 H 0.96897 0.62281 0.68092 0.0
H2436 H 0.9339 0.63688 0.70867 0.0
H2437 H 0.92108 0.62159 0.83447 0.0
H2438 H 0.88987 0.60373 0.80578 0.0
H2439 H 0.93256 0.6695 0.76628 0.0
H2440 H 0.96455 0.68605 0.79457 0.0
H2441 H 0.93539 0.61877 0.74889 0.0
H2442 H 0.85461 0.67235 0.78095 0.0
H2443 H 0.82051 0.68774 0.80889 0.0
H2444 H 0.78817 0.59628 0.81434 0.0
H2445 H 0.82238 0.58023 0.7866 0.0
C2446 C 0.845 0.56465 0.67841 0.0
C2447 C 0.83446 0.53534 0.68291 0.0
C2448 C 0.85492 0.58377 0.6942 0.0
C2449 C 0.85406 0.57389 0.71464 0.0
C2450 C 0.84204 0.54526 0.7191 0.0
C2451 C 0.83257 0.52613 0.70342 0.0
C2452 C 0.86773 0.59197 0.73141 0.0
C2453 C 0.8496 0.60025 0.74814 0.0
C2454 C 0.89891 0.59933 0.73158 0.0
C2455 C 0.91959 0.59074 0.71468 0.0
C2456 C 0.92334 0.56021 0.709 0.0
C2457 C 0.9431 0.55248 0.69314 0.0
C2458 C 0.95956 0.57505 0.68307 0.0
C2459 C 0.95618 0.60537 0.68873 0.0
C2460 C 0.93632 0.61324 0.70448 0.0
C2461 C 0.9231 0.63262 0.81976 0.0
C2462 C 0.94507 0.65511 0.81661 0.0
C2463 C 0.90527 0.6225 0.80335 0.0
C2464 C 0.90876 0.63527 0.78375 0.0
C2465 C 0.92953 0.65907 0.78111 0.0
C2466 C 0.94769 0.66864 0.79731 0.0
C2467 C 0.89332 0.622 0.76555 0.0
C2468 C 0.91122 0.61426 0.74857 0.0
C2469 C 0.86189 0.61551 0.7651 0.0
C2470 C 0.84127 0.62504 0.7818 0.0
C2471 C 0.8404 0.65546 0.78821 0.0
C2472 C 0.82102 0.66432 0.80399 0.0
C2473 C 0.80224 0.64299 0.81342 0.0
C2474 C 0.80275 0.61277 0.80704 0.0
C2475 C 0.82211 0.60379 0.79127 0.0
H2476 H 0.78724 0.64989 0.82564 0.0
H2477 H 0.97504 0.56911 0.67092 0.0
H2478 H 0.94554 0.79937 0.21408 0.0
H2479 H 0.90719 0.81716 0.23812 0.0
H2480 H 0.8545 0.85289 0.18812 0.0
H2481 H 0.89282 0.83465 0.16385 0.0
H2482 H 0.87182 0.89572 0.21737 0.0
H2483 H 0.82404 0.79878 0.21618 0.0
H2484 H 0.82161 0.74301 0.2178 0.0
H2485 H 0.8555 0.7449 0.27925 0.0
H2486 H 0.85858 0.80068 0.27792 0.0
H2487 H 0.77845 0.96873 0.28686 0.0
H2488 H 0.79082 0.93295 0.25966 0.0
H2489 H 0.84259 0.87935 0.30236 0.0
H2490 H 0.82919 0.91462 0.32985 0.0
H2491 H 0.81847 0.8434 0.274 0.0
H2492 H 0.87552 0.93586 0.27411 0.0
H2493 H 0.88466 0.99099 0.27325 0.0
H2494 H 0.84075 0.99679 0.21486 0.0
H2495 H 0.83088 0.94173 0.21553 0.0
C2496 C 0.92535 0.81026 0.20816 0.0
C2497 C 0.92216 0.81579 0.18714 0.0
C2498 C 0.90337 0.82025 0.22191 0.0
C2499 C 0.87796 0.83625 0.21491 0.0
C2500 C 0.87387 0.84038 0.1938 0.0
C2501 C 0.89568 0.82989 0.17996 0.0
C2502 C 0.85863 0.85255 0.2298 0.0
C2503 C 0.85937 0.88429 0.22942 0.0
C2504 C 0.8436 0.83754 0.24599 0.0
C2505 C 0.8417 0.80396 0.24689 0.0
C2506 C 0.83121 0.78731 0.22999 0.0
C2507 C 0.82967 0.75568 0.23087 0.0
C2508 C 0.83844 0.74042 0.24861 0.0
C2509 C 0.84871 0.75676 0.26552 0.0
C2510 C 0.85031 0.78839 0.26472 0.0
C2511 C 0.79167 0.94878 0.29056 0.0
C2512 C 0.80308 0.94451 0.31037 0.0
C2513 C 0.79888 0.92845 0.27499 0.0
C2514 C 0.81837 0.90395 0.27882 0.0
C2515 C 0.82766 0.89819 0.299 0.0
C2516 C 0.81995 0.9183 0.31472 0.0
C2517 C 0.83173 0.88662 0.26156 0.0
C2518 C 0.8302 0.85481 0.26164 0.0
C2519 C 0.84676 0.90151 0.24525 0.0
C2520 C 0.85203 0.93475 0.24503 0.0
C2521 C 0.86747 0.94895 0.26121 0.0
C2522 C 0.87285 0.98018 0.26073 0.0
C2523 C 0.86318 0.99741 0.24405 0.0
C2524 C 0.84811 0.98344 0.22781 0.0
C2525 C 0.8426 0.95223 0.22824 0.0
H2526 H 0.86746 0.02156 0.24367 0.0
H2527 H 0.83723 0.71593 0.24926 0.0
loop_
_geom_bond_atom_site_label_1
_geom_bond_atom_site_label_2
_geom_bond_distance
_geom_bond_site_symmetry_2
_ccdc_geom_bond_type
C0 C1 1.351 . S
C0 N3 1.368 . S
C0 H5 0.931 . S
C1 C0 1.351 . S
C1 N2 1.373 . S
C1 H29 0.930 . S
N2 C1 1.373 . S
N2 C4 1.340 . S
N3 C0 1.368 . S
N3 C4 1.321 . S
N3 Co6 2.135 . S
C4 N2 1.340 . S
C4 N3 1.321 . S
C4 H28 0.930 . S
H5 C0 0.931 . S
Co6 N3 2.135 . S
Co6 N9 2.121 . S
Co6 O14 2.055 . S
Co6 O17 2.039 . S
Co6 N20 2.140 . S
C7 O8 1.227 . S
C7 O17 1.265 . S
O8 C7 1.227 . S
N9 Co6 2.121 . S
N9 C11 1.375 . S
N9 C12 1.313 . S
C10 C11 1.338 . S
C10 N13 1.377 . S
C10 H30 0.930 . S
C11 N9 1.375 . S
C11 C10 1.338 . S
C11 H15 0.931 . S
C12 N9 1.313 . S
C12 N13 1.344 . S
C12 H16 0.930 . S
N13 C10 1.377 . S
N13 C12 1.344 . S
O14 Co6 2.055 . S
O14 C18 1.253 . S
H15 C11 0.931 . S
H16 C12 0.930 . S
O17 Co6 2.039 . S
O17 C7 1.265 . S
C18 O14 1.253 . S
C18 O19 1.227 . S
O19 C18 1.227 . S
N20 Co6 2.140 . S
N20 C23 1.346 . S
N20 C24 1.345 . S
C21 C22 1.387 . S
C21 C25 1.391 . S
C22 C21 1.387 . S
C22 C23 1.369 . S
C22 H31 0.929 . S
C23 N20 1.346 . S
C23 C22 1.369 . S
C23 H26 0.928 . S
C24 N20 1.345 . S
C24 C25 1.371 . S
C24 H27 0.931 . S
C25 C21 1.391 . S
C25 C24 1.371 . S
C25 H32 0.930 . S
H26 C23 0.928 . S
H27 C24 0.931 . S
H28 C4 0.930 . S
H29 C1 0.930 . S
H30 C10 0.930 . S
H31 C22 0.929 . S
H32 C25 0.930 . S
C33 C34 1.351 . S
C33 N36 1.368 . S
C33 H38 0.931 . S
C34 C33 1.351 . S
C34 N35 1.373 . S
C34 H62 0.930 . S
N35 C34 1.373 . S
N35 C37 1.340 . S
N36 C33 1.368 . S
N36 C37 1.321 . S
N36 Co39 2.135 . S
C37 N35 1.340 . S
C37 N36 1.321 . S
C37 H61 0.930 . S
H38 C33 0.931 . S
Co39 N36 2.135 . S
Co39 N42 2.121 . S
Co39 O47 2.055 . S
Co39 O50 2.039 . S
Co39 N53 2.140 . S
C40 O41 1.227 . S
C40 O50 1.265 . S
O41 C40 1.227 . S
N42 Co39 2.121 . S
N42 C44 1.375 . S
N42 C45 1.313 . S
C43 C44 1.338 . S
C43 N46 1.377 . S
C43 H63 0.930 . S
C44 N42 1.375 . S
C44 C43 1.338 . S
C44 H48 0.931 . S
C45 N42 1.313 . S
C45 N46 1.344 . S
C45 H49 0.930 . S
N46 C43 1.377 . S
N46 C45 1.344 . S
O47 Co39 2.055 . S
O47 C51 1.253 . S
H48 C44 0.931 . S
H49 C45 0.930 . S
O50 Co39 2.039 . S
O50 C40 1.265 . S
C51 O47 1.253 . S
C51 O52 1.227 . S
O52 C51 1.227 . S
N53 Co39 2.140 . S
N53 C56 1.346 . S
N53 C57 1.345 . S
C54 C55 1.387 . S
C54 C58 1.391 . S
C55 C54 1.387 . S
C55 C56 1.369 . S
C55 H64 0.929 . S
C56 N53 1.346 . S
C56 C55 1.369 . S
C56 H59 0.928 . S
C57 N53 1.345 . S
C57 C58 1.371 . S
C57 H60 0.931 . S
C58 C54 1.391 . S
C58 C57 1.371 . S
C58 H65 0.930 . S
H59 C56 0.928 . S
H60 C57 0.931 . S
H61 C37 0.930 . S
H62 C34 0.930 . S
H63 C43 0.930 . S
H64 C55 0.929 . S
H65 C58 0.930 . S
C66 C67 1.351 . S
C66 N69 1.368 . S
C66 H71 0.931 . S
C67 C66 1.351 . S
C67 N68 1.373 . S
C67 H95 0.930 . S
N68 C67 1.373 . S
N68 C70 1.340 . S
N69 C66 1.368 . S
N69 C70 1.321 . S
N69 Co72 2.135 . S
C70 N68 1.340 . S
C70 N69 1.321 . S
C70 H94 0.930 . S
H71 C66 0.931 . S
Co72 N69 2.135 . S
Co72 N75 2.121 . S
Co72 O80 2.055 . S
Co72 O83 2.039 . S
Co72 N86 2.140 1_455 S
C73 O74 1.227 1_455 S
C73 O83 1.265 . S
O74 C73 1.227 1_655 S
N75 Co72 2.121 . S
N75 C77 1.375 1_455 S
N75 C78 1.313 . S
C76 C77 1.338 . S
C76 N79 1.377 1_655 S
C76 H96 0.930 . S
C77 N75 1.375 1_655 S
C77 C76 1.338 . S
C77 H81 0.931 . S
C78 N75 1.313 . S
C78 N79 1.344 . S
C78 H82 0.930 . S
N79 C76 1.377 1_455 S
N79 C78 1.344 . S
O80 Co72 2.055 . S
O80 C84 1.253 . S
H81 C77 0.931 . S
H82 C78 0.930 . S
O83 Co72 2.039 . S
O83 C73 1.265 . S
C84 O80 1.253 . S
C84 O85 1.227 . S
O85 C84 1.227 . S
N86 Co72 2.140 1_655 S
N86 C89 1.346 . S
N86 C90 1.345 . S
C87 C88 1.387 . S
C87 C91 1.391 . S
C88 C87 1.387 . S
C88 C89 1.369 . S
C88 H97 0.929 . S
C89 N86 1.346 . S
C89 C88 1.369 . S
C89 H92 0.928 . S
C90 N86 1.345 . S
C90 C91 1.371 . S
C90 H93 0.931 . S
C91 C87 1.391 . S
C91 C90 1.371 . S
C91 H98 0.930 . S
H92 C89 0.928 . S
H93 C90 0.931 . S
H94 C70 0.930 . S
H95 C67 0.930 . S
H96 C76 0.930 . S
H97 C88 0.929 . S
H98 C91 0.930 . S
C99 C100 1.351 . S
C99 N102 1.368 . S
C99 H104 0.931 . S
C100 C99 1.351 . S
C100 N101 1.373 . S
C100 H128 0.930 . S
N101 C100 1.373 . S
N101 C103 1.340 . S
N102 C99 1.368 . S
N102 C103 1.321 . S
N102 Co105 2.135 . S
C103 N101 1.340 . S
C103 N102 1.321 . S
C103 H127 0.930 . S
H104 C99 0.931 . S
Co105 N102 2.135 . S
Co105 N108 2.121 . S
Co105 O113 2.055 . S
Co105 O116 2.039 . S
Co105 N119 2.140 1_545 S
C106 O107 1.227 1_545 S
C106 O116 1.265 . S
O107 C106 1.227 1_565 S
N108 Co105 2.121 . S
N108 C110 1.375 1_545 S
N108 C111 1.313 . S
C109 C110 1.338 . S
C109 N112 1.377 1_565 S
C109 H129 0.930 . S
C110 N108 1.375 1_565 S
C110 C109 1.338 . S
C110 H114 0.931 . S
C111 N108 1.313 . S
C111 N112 1.344 . S
C111 H115 0.930 . S
N112 C109 1.377 1_545 S
N112 C111 1.344 . S
O113 Co105 2.055 . S
O113 C117 1.253 . S
H114 C110 0.931 . S
H115 C111 0.930 . S
O116 Co105 2.039 . S
O116 C106 1.265 . S
C117 O113 1.253 . S
C117 O118 1.227 . S
O118 C117 1.227 . S
N119 Co105 2.140 1_565 S
N119 C122 1.346 . S
N119 C123 1.345 . S
C120 C121 1.387 . S
C120 C124 1.391 . S
C121 C120 1.387 . S
C121 C122 1.369 . S
C121 H130 0.929 . S
C122 N119 1.346 . S
C122 C121 1.369 . S
C122 H125 0.928 . S
C123 N119 1.345 . S
C123 C124 1.371 . S
C123 H126 0.931 . S
C124 C120 1.391 . S
C124 C123 1.371 . S
C124 H131 0.930 . S
H125 C122 0.928 . S
H126 C123 0.931 . S
H127 C103 0.930 . S
H128 C100 0.930 . S
H129 C109 0.930 . S
H130 C121 0.929 . S
H131 C124 0.930 . S
C132 C133 1.351 . S
C132 N135 1.368 . S
C132 H137 0.931 . S
C133 C132 1.351 . S
C133 N134 1.373 . S
C133 H161 0.930 . S
N134 C133 1.373 . S
N134 C136 1.340 . S
N135 C132 1.368 . S
N135 C136 1.321 . S
N135 Co138 2.135 . S
C136 N134 1.340 . S
C136 N135 1.321 . S
C136 H160 0.930 . S
H137 C132 0.931 . S
Co138 N135 2.135 . S
Co138 N141 2.121 . S
Co138 O146 2.055 . S
Co138 O149 2.039 . S
Co138 N152 2.140 . S
C139 O140 1.227 . S
C139 O149 1.265 . S
O140 C139 1.227 . S
N141 Co138 2.121 . S
N141 C143 1.375 . S
N141 C144 1.313 . S
C142 C143 1.338 . S
C142 N145 1.377 . S
C142 H162 0.930 . S
C143 N141 1.375 . S
C143 C142 1.338 . S
C143 H147 0.931 . S
C144 N141 1.313 . S
C144 N145 1.344 . S
C144 H148 0.930 . S
N145 C142 1.377 . S
N145 C144 1.344 . S
O146 Co138 2.055 . S
O146 C150 1.253 . S
H147 C143 0.931 . S
H148 C144 0.930 . S
O149 Co138 2.039 . S
O149 C139 1.265 . S
C150 O146 1.253 . S
C150 O151 1.227 . S
O151 C150 1.227 . S
N152 Co138 2.140 . S
N152 C155 1.346 . S
N152 C156 1.345 . S
C153 C154 1.387 . S
C153 C157 1.391 . S
C154 C153 1.387 . S
C154 C155 1.369 . S
C154 H163 0.929 . S
C155 N152 1.346 . S
C155 C154 1.369 . S
C155 H158 0.928 . S
C156 N152 1.345 . S
C156 C157 1.371 . S
C156 H159 0.931 . S
C157 C153 1.391 . S
C157 C156 1.371 . S
C157 H164 0.930 . S
H158 C155 0.928 . S
H159 C156 0.931 . S
H160 C136 0.930 . S
H161 C133 0.930 . S
H162 C142 0.930 . S
H163 C154 0.929 . S
H164 C157 0.930 . S
C165 C166 1.351 . S
C165 N168 1.368 . S
C165 H170 0.931 . S
C166 C165 1.351 . S
C166 N167 1.373 . S
C166 H194 0.930 . S
N167 C166 1.373 . S
N167 C169 1.340 . S
N168 C165 1.368 . S
N168 C169 1.321 . S
N168 Co171 2.135 . S
C169 N167 1.340 . S
C169 N168 1.321 . S
C169 H193 0.930 . S
H170 C165 0.931 . S
Co171 N168 2.135 . S
Co171 N174 2.121 . S
Co171 O179 2.055 . S
Co171 O182 2.039 . S
Co171 N185 2.140 . S
C172 O173 1.227 . S
C172 O182 1.265 . S
O173 C172 1.227 . S
N174 Co171 2.121 . S
N174 C176 1.375 . S
N174 C177 1.313 . S
C175 C176 1.338 . S
C175 N178 1.377 . S
C175 H195 0.930 . S
C176 N174 1.375 . S
C176 C175 1.338 . S
C176 H180 0.931 . S
C177 N174 1.313 . S
C177 N178 1.344 . S
C177 H181 0.930 . S
N178 C175 1.377 . S
N178 C177 1.344 . S
O179 Co171 2.055 . S
O179 C183 1.253 . S
H180 C176 0.931 . S
H181 C177 0.930 . S
O182 Co171 2.039 . S
O182 C172 1.265 . S
C183 O179 1.253 . S
C183 O184 1.227 . S
O184 C183 1.227 . S
N185 Co171 2.140 . S
N185 C188 1.346 . S
N185 C189 1.345 . S
C186 C187 1.387 . S
C186 C190 1.391 . S
C187 C186 1.387 . S
C187 C188 1.369 . S
C187 H196 0.929 . S
C188 N185 1.346 . S
C188 C187 1.369 . S
C188 H191 0.928 . S
C189 N185 1.345 . S
C189 C190 1.371 . S
C189 H192 0.931 . S
C190 C186 1.391 . S
C190 C189 1.371 . S
C190 H197 0.930 . S
H191 C188 0.928 . S
H192 C189 0.931 . S
H193 C169 0.930 . S
H194 C166 0.930 . S
H195 C175 0.930 . S
H196 C187 0.929 . S
H197 C190 0.930 . S
C198 C199 1.351 . S
C198 N201 1.368 . S
C198 H203 0.931 . S
C199 C198 1.351 . S
C199 N200 1.373 . S
C199 H227 0.930 . S
N200 C199 1.373 . S
N200 C202 1.340 . S
N201 C198 1.368 . S
N201 C202 1.321 . S
N201 Co204 2.135 . S
C202 N200 1.340 . S
C202 N201 1.321 . S
C202 H226 0.930 . S
H203 C198 0.931 . S
Co204 N201 2.135 . S
Co204 N207 2.121 . S
Co204 O212 2.055 . S
Co204 O215 2.039 . S
Co204 N218 2.140 1_455 S
C205 O206 1.227 1_455 S
C205 O215 1.265 . S
O206 C205 1.227 1_655 S
N207 Co204 2.121 . S
N207 C209 1.375 1_455 S
N207 C210 1.313 . S
C208 C209 1.338 . S
C208 N211 1.377 1_655 S
C208 H228 0.930 . S
C209 N207 1.375 1_655 S
C209 C208 1.338 . S
C209 H213 0.931 . S
C210 N207 1.313 . S
C210 N211 1.344 . S
C210 H214 0.930 . S
N211 C208 1.377 1_455 S
N211 C210 1.344 . S
O212 Co204 2.055 . S
O212 C216 1.253 . S
H213 C209 0.931 . S
H214 C210 0.930 . S
O215 Co204 2.039 . S
O215 C205 1.265 . S
C216 O212 1.253 . S
C216 O217 1.227 . S
O217 C216 1.227 . S
N218 Co204 2.140 1_655 S
N218 C221 1.346 . S
N218 C222 1.345 . S
C219 C220 1.387 . S
C219 C223 1.391 . S
C220 C219 1.387 . S
C220 C221 1.369 . S
C220 H229 0.929 . S
C221 N218 1.346 . S
C221 C220 1.369 . S
C221 H224 0.928 . S
C222 N218 1.345 . S
C222 C223 1.371 . S
C222 H225 0.931 . S
C223 C219 1.391 . S
C223 C222 1.371 . S
C223 H230 0.930 . S
H224 C221 0.928 . S
H225 C222 0.931 . S
H226 C202 0.930 . S
H227 C199 0.930 . S
H228 C208 0.930 . S
H229 C220 0.929 . S
H230 C223 0.930 . S
C231 C232 1.351 . S
C231 N234 1.368 . S
C231 H236 0.931 . S
C232 C231 1.351 . S
C232 N233 1.373 . S
C232 H260 0.930 . S
N233 C232 1.373 . S
N233 C235 1.340 . S
N234 C231 1.368 . S
N234 C235 1.321 . S
N234 Co237 2.135 . S
C235 N233 1.340 . S
C235 N234 1.321 . S
C235 H259 0.930 . S
H236 C231 0.931 . S
Co237 N234 2.135 . S
Co237 N240 2.121 . S
Co237 O245 2.055 . S
Co237 O248 2.039 . S
Co237 N251 2.140 1_545 S
C238 O239 1.227 1_545 S
C238 O248 1.265 . S
O239 C238 1.227 1_565 S
N240 Co237 2.121 . S
N240 C242 1.375 1_545 S
N240 C243 1.313 . S
C241 C242 1.338 . S
C241 N244 1.377 1_565 S
C241 H261 0.930 . S
C242 N240 1.375 1_565 S
C242 C241 1.338 . S
C242 H246 0.931 . S
C243 N240 1.313 . S
C243 N244 1.344 . S
C243 H247 0.930 . S
N244 C241 1.377 1_545 S
N244 C243 1.344 . S
O245 Co237 2.055 . S
O245 C249 1.253 . S
H246 C242 0.931 . S
H247 C243 0.930 . S
O248 Co237 2.039 . S
O248 C238 1.265 . S
C249 O245 1.253 . S
C249 O250 1.227 . S
O250 C249 1.227 . S
N251 Co237 2.140 1_565 S
N251 C254 1.346 . S
N251 C255 1.345 . S
C252 C253 1.387 . S
C252 C256 1.391 . S
C253 C252 1.387 . S
C253 C254 1.369 . S
C253 H262 0.929 . S
C254 N251 1.346 . S
C254 C253 1.369 . S
C254 H257 0.928 . S
C255 N251 1.345 . S
C255 C256 1.371 . S
C255 H258 0.931 . S
C256 C252 1.391 . S
C256 C255 1.371 . S
C256 H263 0.930 . S
H257 C254 0.928 . S
H258 C255 0.931 . S
H259 C235 0.930 . S
H260 C232 0.930 . S
H261 C241 0.930 . S
H262 C253 0.929 . S
H263 C256 0.930 . S
C264 C265 1.351 . S
C264 N267 1.368 . S
C264 H269 0.931 . S
C265 C264 1.351 . S
C265 N266 1.373 . S
C265 H293 0.930 . S
N266 C265 1.373 . S
N266 C268 1.340 . S
N267 C264 1.368 . S
N267 C268 1.321 . S
N267 Co270 2.135 . S
C268 N266 1.340 . S
C268 N267 1.321 . S
C268 H292 0.930 . S
H269 C264 0.931 . S
Co270 N267 2.135 . S
Co270 N273 2.121 . S
Co270 O278 2.055 . S
Co270 O281 2.039 . S
Co270 N284 2.140 . S
C271 O272 1.227 . S
C271 O281 1.265 . S
O272 C271 1.227 . S
N273 Co270 2.121 . S
N273 C275 1.375 . S
N273 C276 1.313 . S
C274 C275 1.338 . S
C274 N277 1.377 . S
C274 H294 0.930 . S
C275 N273 1.375 . S
C275 C274 1.338 . S
C275 H279 0.931 . S
C276 N273 1.313 . S
C276 N277 1.344 . S
C276 H280 0.930 . S
N277 C274 1.377 . S
N277 C276 1.344 . S
O278 Co270 2.055 . S
O278 C282 1.253 . S
H279 C275 0.931 . S
H280 C276 0.930 . S
O281 Co270 2.039 . S
O281 C271 1.265 . S
C282 O278 1.253 . S
C282 O283 1.227 . S
O283 C282 1.227 . S
N284 Co270 2.140 . S
N284 C287 1.346 . S
N284 C288 1.345 . S
C285 C286 1.387 . S
C285 C289 1.391 . S
C286 C285 1.387 . S
C286 C287 1.369 . S
C286 H295 0.929 . S
C287 N284 1.346 . S
C287 C286 1.369 . S
C287 H290 0.928 . S
C288 N284 1.345 . S
C288 C289 1.371 . S
C288 H291 0.931 . S
C289 C285 1.391 . S
C289 C288 1.371 . S
C289 H296 0.930 . S
H290 C287 0.928 . S
H291 C288 0.931 . S
H292 C268 0.930 . S
H293 C265 0.930 . S
H294 C274 0.930 . S
H295 C286 0.929 . S
H296 C289 0.930 . S
C297 C298 1.351 . S
C297 N300 1.368 . S
C297 H302 0.931 . S
C298 C297 1.351 . S
C298 N299 1.373 . S
C298 H326 0.930 . S
N299 C298 1.373 . S
N299 C301 1.340 . S
N300 C297 1.368 . S
N300 C301 1.321 . S
N300 Co303 2.135 . S
C301 N299 1.340 . S
C301 N300 1.321 . S
C301 H325 0.930 . S
H302 C297 0.931 . S
Co303 N300 2.135 . S
Co303 N306 2.121 . S
Co303 O311 2.055 . S
Co303 O314 2.039 . S
Co303 N317 2.140 . S
C304 O305 1.227 . S
C304 O314 1.265 . S
O305 C304 1.227 . S
N306 Co303 2.121 . S
N306 C308 1.375 . S
N306 C309 1.313 . S
C307 C308 1.338 . S
C307 N310 1.377 . S
C307 H327 0.930 . S
C308 N306 1.375 . S
C308 C307 1.338 . S
C308 H312 0.931 . S
C309 N306 1.313 . S
C309 N310 1.344 . S
C309 H313 0.930 . S
N310 C307 1.377 . S
N310 C309 1.344 . S
O311 Co303 2.055 . S
O311 C315 1.253 . S
H312 C308 0.931 . S
H313 C309 0.930 . S
O314 Co303 2.039 . S
O314 C304 1.265 . S
C315 O311 1.253 . S
C315 O316 1.227 . S
O316 C315 1.227 . S
N317 Co303 2.140 . S
N317 C320 1.346 . S
N317 C321 1.345 . S
C318 C319 1.387 . S
C318 C322 1.391 . S
C319 C318 1.387 . S
C319 C320 1.369 . S
C319 H328 0.929 . S
C320 N317 1.346 . S
C320 C319 1.369 . S
C320 H323 0.928 . S
C321 N317 1.345 . S
C321 C322 1.371 . S
C321 H324 0.931 . S
C322 C318 1.391 . S
C322 C321 1.371 . S
C322 H329 0.930 . S
H323 C320 0.928 . S
H324 C321 0.931 . S
H325 C301 0.930 . S
H326 C298 0.930 . S
H327 C307 0.930 . S
H328 C319 0.929 . S
H329 C322 0.930 . S
C330 C331 1.351 . S
C330 N333 1.368 . S
C330 H335 0.931 . S
C331 C330 1.351 . S
C331 N332 1.373 . S
C331 H359 0.930 . S
N332 C331 1.373 . S
N332 C334 1.340 . S
N333 C330 1.368 . S
N333 C334 1.321 . S
N333 Co336 2.135 . S
C334 N332 1.340 . S
C334 N333 1.321 . S
C334 H358 0.930 . S
H335 C330 0.931 . S
Co336 N333 2.135 . S
Co336 N339 2.121 . S
Co336 O344 2.055 . S
Co336 O347 2.039 . S
Co336 N350 2.140 1_655 S
C337 O338 1.227 1_655 S
C337 O347 1.265 . S
O338 C337 1.227 1_455 S
N339 Co336 2.121 . S
N339 C341 1.375 1_655 S
N339 C342 1.313 . S
C340 C341 1.338 . S
C340 N343 1.377 1_455 S
C340 H360 0.930 . S
C341 N339 1.375 1_455 S
C341 C340 1.338 . S
C341 H345 0.931 . S
C342 N339 1.313 . S
C342 N343 1.344 . S
C342 H346 0.930 . S
N343 C340 1.377 1_655 S
N343 C342 1.344 . S
O344 Co336 2.055 . S
O344 C348 1.253 . S
H345 C341 0.931 . S
H346 C342 0.930 . S
O347 Co336 2.039 . S
O347 C337 1.265 . S
C348 O344 1.253 . S
C348 O349 1.227 . S
O349 C348 1.227 . S
N350 Co336 2.140 1_455 S
N350 C353 1.346 . S
N350 C354 1.345 . S
C351 C352 1.387 . S
C351 C355 1.391 . S
C352 C351 1.387 . S
C352 C353 1.369 . S
C352 H361 0.929 . S
C353 N350 1.346 . S
C353 C352 1.369 . S
C353 H356 0.928 . S
C354 N350 1.345 . S
C354 C355 1.371 . S
C354 H357 0.931 . S
C355 C351 1.391 . S
C355 C354 1.371 . S
C355 H362 0.930 . S
H356 C353 0.928 . S
H357 C354 0.931 . S
H358 C334 0.930 . S
H359 C331 0.930 . S
H360 C340 0.930 . S
H361 C352 0.929 . S
H362 C355 0.930 . S
C363 C364 1.351 . S
C363 N366 1.368 . S
C363 H368 0.931 . S
C364 C363 1.351 . S
C364 N365 1.373 . S
C364 H392 0.930 . S
N365 C364 1.373 . S
N365 C367 1.340 . S
N366 C363 1.368 . S
N366 C367 1.321 . S
N366 Co369 2.135 . S
C367 N365 1.340 . S
C367 N366 1.321 . S
C367 H391 0.930 . S
H368 C363 0.931 . S
Co369 N366 2.135 . S
Co369 N372 2.121 . S
Co369 O377 2.055 . S
Co369 O380 2.039 . S
Co369 N383 2.140 1_565 S
C370 O371 1.227 1_565 S
C370 O380 1.265 . S
O371 C370 1.227 1_545 S
N372 Co369 2.121 . S
N372 C374 1.375 1_565 S
N372 C375 1.313 . S
C373 C374 1.338 . S
C373 N376 1.377 1_545 S
C373 H393 0.930 . S
C374 N372 1.375 1_545 S
C374 C373 1.338 . S
C374 H378 0.931 . S
C375 N372 1.313 . S
C375 N376 1.344 . S
C375 H379 0.930 . S
N376 C373 1.377 1_565 S
N376 C375 1.344 . S
O377 Co369 2.055 . S
O377 C381 1.253 . S
H378 C374 0.931 . S
H379 C375 0.930 . S
O380 Co369 2.039 . S
O380 C370 1.265 . S
C381 O377 1.253 . S
C381 O382 1.227 . S
O382 C381 1.227 . S
N383 Co369 2.140 1_545 S
N383 C386 1.346 . S
N383 C387 1.345 . S
C384 C385 1.387 . S
C384 C388 1.391 . S
C385 C384 1.387 . S
C385 C386 1.369 . S
C385 H394 0.929 . S
C386 N383 1.346 . S
C386 C385 1.369 . S
C386 H389 0.928 . S
C387 N383 1.345 . S
C387 C388 1.371 . S
C387 H390 0.931 . S
C388 C384 1.391 . S
C388 C387 1.371 . S
C388 H395 0.930 . S
H389 C386 0.928 . S
H390 C387 0.931 . S
H391 C367 0.930 . S
H392 C364 0.930 . S
H393 C373 0.930 . S
H394 C385 0.929 . S
H395 C388 0.930 . S
C396 C397 1.351 . S
C396 N399 1.368 . S
C396 H401 0.931 . S
C397 C396 1.351 . S
C397 N398 1.373 . S
C397 H425 0.930 . S
N398 C397 1.373 . S
N398 C400 1.340 . S
N399 C396 1.368 . S
N399 C400 1.321 . S
N399 Co402 2.135 . S
C400 N398 1.340 . S
C400 N399 1.321 . S
C400 H424 0.930 . S
H401 C396 0.931 . S
Co402 N399 2.135 . S
Co402 N405 2.121 . S
Co402 O410 2.055 . S
Co402 O413 2.039 . S
Co402 N416 2.140 . S
C403 O404 1.227 . S
C403 O413 1.265 . S
O404 C403 1.227 . S
N405 Co402 2.121 . S
N405 C407 1.375 . S
N405 C408 1.313 . S
C406 C407 1.338 . S
C406 N409 1.377 . S
C406 H426 0.930 . S
C407 N405 1.375 . S
C407 C406 1.338 . S
C407 H411 0.931 . S
C408 N405 1.313 . S
C408 N409 1.344 . S
C408 H412 0.930 . S
N409 C406 1.377 . S
N409 C408 1.344 . S
O410 Co402 2.055 . S
O410 C414 1.253 . S
H411 C407 0.931 . S
H412 C408 0.930 . S
O413 Co402 2.039 . S
O413 C403 1.265 . S
C414 O410 1.253 . S
C414 O415 1.227 . S
O415 C414 1.227 . S
N416 Co402 2.140 . S
N416 C419 1.346 . S
N416 C420 1.345 . S
C417 C418 1.387 . S
C417 C421 1.391 . S
C418 C417 1.387 . S
C418 C419 1.369 . S
C418 H427 0.929 . S
C419 N416 1.346 . S
C419 C418 1.369 . S
C419 H422 0.928 . S
C420 N416 1.345 . S
C420 C421 1.371 . S
C420 H423 0.931 . S
C421 C417 1.391 . S
C421 C420 1.371 . S
C421 H428 0.930 . S
H422 C419 0.928 . S
H423 C420 0.931 . S
H424 C400 0.930 . S
H425 C397 0.930 . S
H426 C406 0.930 . S
H427 C418 0.929 . S
H428 C421 0.930 . S
C429 C430 1.351 . S
C429 N432 1.368 . S
C429 H434 0.931 . S
C430 C429 1.351 . S
C430 N431 1.373 . S
C430 H458 0.930 . S
N431 C430 1.373 . S
N431 C433 1.340 . S
N432 C429 1.368 . S
N432 C433 1.321 . S
N432 Co435 2.135 . S
C433 N431 1.340 . S
C433 N432 1.321 . S
C433 H457 0.930 . S
H434 C429 0.931 . S
Co435 N432 2.135 . S
Co435 N438 2.121 . S
Co435 O443 2.055 . S
Co435 O446 2.039 . S
Co435 N449 2.140 . S
C436 O437 1.227 . S
C436 O446 1.265 . S
O437 C436 1.227 . S
N438 Co435 2.121 . S
N438 C440 1.375 . S
N438 C441 1.313 . S
C439 C440 1.338 . S
C439 N442 1.377 . S
C439 H459 0.930 . S
C440 N438 1.375 . S
C440 C439 1.338 . S
C440 H444 0.931 . S
C441 N438 1.313 . S
C441 N442 1.344 . S
C441 H445 0.930 . S
N442 C439 1.377 . S
N442 C441 1.344 . S
O443 Co435 2.055 . S
O443 C447 1.253 . S
H444 C440 0.931 . S
H445 C441 0.930 . S
O446 Co435 2.039 . S
O446 C436 1.265 . S
C447 O443 1.253 . S
C447 O448 1.227 . S
O448 C447 1.227 . S
N449 Co435 2.140 . S
N449 C452 1.346 . S
N449 C453 1.345 . S
C450 C451 1.387 . S
C450 C454 1.391 . S
C451 C450 1.387 . S
C451 C452 1.369 . S
C451 H460 0.929 . S
C452 N449 1.346 . S
C452 C451 1.369 . S
C452 H455 0.928 . S
C453 N449 1.345 . S
C453 C454 1.371 . S
C453 H456 0.931 . S
C454 C450 1.391 . S
C454 C453 1.371 . S
C454 H461 0.930 . S
H455 C452 0.928 . S
H456 C453 0.931 . S
H457 C433 0.930 . S
H458 C430 0.930 . S
H459 C439 0.930 . S
H460 C451 0.929 . S
H461 C454 0.930 . S
C462 C463 1.351 . S
C462 N465 1.368 . S
C462 H467 0.931 . S
C463 C462 1.351 . S
C463 N464 1.373 . S
C463 H491 0.930 . S
N464 C463 1.373 . S
N464 C466 1.340 . S
N465 C462 1.368 . S
N465 C466 1.321 . S
N465 Co468 2.135 . S
C466 N464 1.340 . S
C466 N465 1.321 . S
C466 H490 0.930 . S
H467 C462 0.931 . S
Co468 N465 2.135 . S
Co468 N471 2.121 . S
Co468 O476 2.055 . S
Co468 O479 2.039 . S
Co468 N482 2.140 1_655 S
C469 O470 1.227 1_655 S
C469 O479 1.265 . S
O470 C469 1.227 1_455 S
N471 Co468 2.121 . S
N471 C473 1.375 1_655 S
N471 C474 1.313 . S
C472 C473 1.338 . S
C472 N475 1.377 1_455 S
C472 H492 0.930 . S
C473 N471 1.375 1_455 S
C473 C472 1.338 . S
C473 H477 0.931 . S
C474 N471 1.313 . S
C474 N475 1.344 . S
C474 H478 0.930 . S
N475 C472 1.377 1_655 S
N475 C474 1.344 . S
O476 Co468 2.055 . S
O476 C480 1.253 . S
H477 C473 0.931 . S
H478 C474 0.930 . S
O479 Co468 2.039 . S
O479 C469 1.265 . S
C480 O476 1.253 . S
C480 O481 1.227 . S
O481 C480 1.227 . S
N482 Co468 2.140 1_455 S
N482 C485 1.346 . S
N482 C486 1.345 . S
C483 C484 1.387 . S
C483 C487 1.391 . S
C484 C483 1.387 . S
C484 C485 1.369 . S
C484 H493 0.929 . S
C485 N482 1.346 . S
C485 C484 1.369 . S
C485 H488 0.928 . S
C486 N482 1.345 . S
C486 C487 1.371 . S
C486 H489 0.931 . S
C487 C483 1.391 . S
C487 C486 1.371 . S
C487 H494 0.930 . S
H488 C485 0.928 . S
H489 C486 0.931 . S
H490 C466 0.930 . S
H491 C463 0.930 . S
H492 C472 0.930 . S
H493 C484 0.929 . S
H494 C487 0.930 . S
C495 C496 1.351 . S
C495 N498 1.368 . S
C495 H500 0.931 . S
C496 C495 1.351 . S
C496 N497 1.373 . S
C496 H524 0.930 . S
N497 C496 1.373 . S
N497 C499 1.340 . S
N498 C495 1.368 . S
N498 C499 1.321 . S
N498 Co501 2.135 . S
C499 N497 1.340 . S
C499 N498 1.321 . S
C499 H523 0.930 . S
H500 C495 0.931 . S
Co501 N498 2.135 . S
Co501 N504 2.121 . S
Co501 O509 2.055 . S
Co501 O512 2.039 . S
Co501 N515 2.140 1_565 S
C502 O503 1.227 1_565 S
C502 O512 1.265 . S
O503 C502 1.227 1_545 S
N504 Co501 2.121 . S
N504 C506 1.375 1_565 S
N504 C507 1.313 . S
C505 C506 1.338 . S
C505 N508 1.377 1_545 S
C505 H525 0.930 . S
C506 N504 1.375 1_545 S
C506 C505 1.338 . S
C506 H510 0.931 . S
C507 N504 1.313 . S
C507 N508 1.344 . S
C507 H511 0.930 . S
N508 C505 1.377 1_565 S
N508 C507 1.344 . S
O509 Co501 2.055 . S
O509 C513 1.253 . S
H510 C506 0.931 . S
H511 C507 0.930 . S
O512 Co501 2.039 . S
O512 C502 1.265 . S
C513 O509 1.253 . S
C513 O514 1.227 . S
O514 C513 1.227 . S
N515 Co501 2.140 1_545 S
N515 C518 1.346 . S
N515 C519 1.345 . S
C516 C517 1.387 . S
C516 C520 1.391 . S
C517 C516 1.387 . S
C517 C518 1.369 . S
C517 H526 0.929 . S
C518 N515 1.346 . S
C518 C517 1.369 . S
C518 H521 0.928 . S
C519 N515 1.345 . S
C519 C520 1.371 . S
C519 H522 0.931 . S
C520 C516 1.391 . S
C520 C519 1.371 . S
C520 H527 0.930 . S
H521 C518 0.928 . S
H522 C519 0.931 . S
H523 C499 0.930 . S
H524 C496 0.930 . S
H525 C505 0.930 . S
H526 C517 0.929 . S
H527 C520 0.930 . S
H528 C546 0.951 . S
H529 C548 0.951 . S
H530 C550 0.950 . S
H531 C551 0.950 . S
H532 C553 0.950 . S
H533 C556 0.950 . S
H534 C557 0.950 . S
H535 C559 0.950 . S
H536 C560 0.975 . S
H537 C561 0.951 . S
H538 C563 0.951 . S
H539 C565 0.950 . S
H540 C566 0.950 . S
H541 C568 0.950 . S
H542 C571 0.950 . S
H543 C572 0.950 . S
H544 C574 0.950 . S
H545 C575 0.975 . S
C546 H528 0.951 . S
C546 C547 1.366 . S
C546 C548 1.388 . S
C547 C546 1.366 . S
C547 C551 1.385 . S
C548 H529 0.951 . S
C548 C546 1.388 . S
C548 C549 1.366 . S
C549 C548 1.366 . S
C549 C550 1.414 . S
C549 C552 1.499 . S
C550 H530 0.950 . S
C550 C549 1.414 . S
C550 C551 1.374 . S
C551 H531 0.950 . S
C551 C547 1.385 . S
C551 C550 1.374 . S
C552 C549 1.499 . S
C552 C553 1.373 . S
C552 C554 1.389 . S
C553 H532 0.950 . S
C553 C552 1.373 . S
C553 C569 1.377 1_554 S
C554 C552 1.389 . S
C554 C555 1.524 . S
C554 C568 1.377 1_554 S
C555 C554 1.524 . S
C555 C556 1.397 . S
C555 C560 1.363 . S
C556 H533 0.950 . S
C556 C555 1.397 . S
C556 C557 1.334 . S
C557 H534 0.950 . S
C557 C556 1.334 . S
C557 C558 1.287 . S
C558 C557 1.287 . S
C558 C559 1.524 . S
C558 H577 0.913 . S
C559 H535 0.950 . S
C559 C558 1.524 . S
C559 C560 1.415 . S
C560 H536 0.975 . S
C560 C555 1.363 . S
C560 C559 1.415 . S
C561 H537 0.951 . S
C561 C562 1.366 . S
C561 C563 1.388 . S
C562 C561 1.366 . S
C562 C566 1.385 . S
C563 H538 0.951 . S
C563 C561 1.388 . S
C563 C564 1.366 . S
C564 C563 1.366 . S
C564 C565 1.414 . S
C564 C567 1.499 . S
C565 H539 0.950 . S
C565 C564 1.414 . S
C565 C566 1.374 . S
C566 H540 0.950 . S
C566 C562 1.385 . S
C566 C565 1.374 . S
C567 C564 1.499 . S
C567 C568 1.373 . S
C567 C569 1.389 . S
C568 H541 0.950 . S
C568 C554 1.377 1_556 S
C568 C567 1.373 . S
C569 C553 1.377 1_556 S
C569 C567 1.389 . S
C569 C570 1.524 . S
C570 C569 1.524 . S
C570 C571 1.397 . S
C570 C575 1.363 . S
C571 H542 0.950 . S
C571 C570 1.397 . S
C571 C572 1.334 . S
C572 H543 0.950 . S
C572 C571 1.334 . S
C572 C573 1.287 . S
C573 C572 1.287 . S
C573 C574 1.524 . S
C573 H576 0.999 . S
C574 H544 0.950 . S
C574 C573 1.524 . S
C574 C575 1.415 . S
C575 H545 0.975 . S
C575 C570 1.363 . S
C575 C574 1.415 . S
H576 C573 0.999 . S
H577 C558 0.913 . S
H578 C596 0.951 . S
H579 C598 0.951 . S
H580 C600 0.950 . S
H581 C601 0.950 . S
H582 C603 0.950 . S
H583 C606 0.950 . S
H584 C607 0.950 . S
H585 C609 0.950 . S
H586 C610 0.950 . S
H587 C611 0.951 . S
H588 C613 0.951 . S
H589 C615 0.950 . S
H590 C616 0.950 . S
H591 C618 0.950 . S
H592 C621 0.950 . S
H593 C622 0.950 . S
H594 C624 0.950 . S
H595 C625 0.950 . S
C596 H578 0.951 . S
C596 C597 1.366 . S
C596 C598 1.388 . S
C597 C596 1.366 . S
C597 C601 1.385 . S
C598 H579 0.951 . S
C598 C596 1.388 . S
C598 C599 1.366 . S
C599 C598 1.366 . S
C599 C600 1.414 . S
C599 C602 1.499 . S
C600 H580 0.950 . S
C600 C599 1.414 . S
C600 C601 1.374 . S
C601 H581 0.950 . S
C601 C597 1.385 . S
C601 C600 1.374 . S
C602 C599 1.499 . S
C602 C603 1.373 . S
C602 C604 1.389 . S
C603 H582 0.950 . S
C603 C602 1.373 . S
C603 C619 1.377 . S
C604 C602 1.389 . S
C604 C605 1.524 . S
C604 C618 1.377 . S
C605 C604 1.524 . S
C605 C606 1.397 . S
C605 C610 1.363 . S
C606 H583 0.950 . S
C606 C605 1.397 . S
C606 C607 1.334 . S
C607 H584 0.950 . S
C607 C606 1.334 . S
C607 C608 1.287 . S
C608 C607 1.287 . S
C608 C609 1.524 . S
C608 H627 0.913 . S
C609 H585 0.950 . S
C609 C608 1.524 . S
C609 C610 1.415 . S
C610 H586 0.950 . S
C610 C605 1.363 . S
C610 C609 1.415 . S
C611 H587 0.951 . S
C611 C612 1.366 . S
C611 C613 1.388 . S
C612 C611 1.366 . S
C612 C616 1.385 . S
C613 H588 0.951 . S
C613 C611 1.388 . S
C613 C614 1.366 . S
C614 C613 1.366 . S
C614 C615 1.414 . S
C614 C617 1.499 . S
C615 H589 0.950 . S
C615 C614 1.414 . S
C615 C616 1.374 . S
C616 H590 0.950 . S
C616 C612 1.385 . S
C616 C615 1.374 . S
C617 C614 1.499 . S
C617 C618 1.373 . S
C617 C619 1.389 . S
C618 H591 0.950 . S
C618 C604 1.377 . S
C618 C617 1.373 . S
C619 C603 1.377 . S
C619 C617 1.389 . S
C619 C620 1.524 . S
C620 C619 1.524 . S
C620 C621 1.397 . S
C620 C625 1.363 . S
C621 H592 0.950 . S
C621 C620 1.397 . S
C621 C622 1.334 . S
C622 H593 0.950 . S
C622 C621 1.334 . S
C622 C623 1.287 . S
C623 C622 1.287 . S
C623 C624 1.524 . S
C623 H626 0.999 . S
C624 H594 0.950 . S
C624 C623 1.524 . S
C624 C625 1.415 . S
C625 H595 0.950 . S
C625 C620 1.363 . S
C625 C624 1.415 . S
H626 C623 0.999 . S
H627 C608 0.913 . S
H628 C646 0.951 . S
H629 C648 0.951 . S
H630 C650 0.950 . S
H631 C651 0.950 . S
H632 C653 0.950 . S
H633 C656 0.950 . S
H634 C657 0.950 . S
H635 C659 0.950 . S
H636 C660 0.950 . S
H637 C661 0.951 . S
H638 C663 0.951 . S
H639 C665 0.950 . S
H640 C666 0.950 . S
H641 C668 0.950 . S
H642 C671 0.950 1_455 S
H643 C672 0.950 . S
H644 C674 0.950 . S
H645 C675 0.950 . S
C646 H628 0.951 . S
C646 C647 1.366 . S
C646 C648 1.388 . S
C647 C646 1.366 . S
C647 C651 1.385 1_455 S
C648 H629 0.951 . S
C648 C646 1.388 . S
C648 C649 1.366 . S
C649 C648 1.366 . S
C649 C650 1.414 1_455 S
C649 C652 1.499 . S
C650 H630 0.950 . S
C650 C649 1.414 1_655 S
C650 C651 1.374 . S
C651 H631 0.950 . S
C651 C647 1.385 1_655 S
C651 C650 1.374 . S
C652 C649 1.499 . S
C652 C653 1.373 1_455 S
C652 C654 1.389 . S
C653 H632 0.950 . S
C653 C652 1.373 1_655 S
C653 C669 1.377 1_556 S
C654 C652 1.389 . S
C654 C655 1.524 . S
C654 C668 1.377 1_556 S
C655 C654 1.524 . S
C655 C656 1.397 . S
C655 C660 1.363 . S
C656 H633 0.950 . S
C656 C655 1.397 . S
C656 C657 1.334 . S
C657 H634 0.950 . S
C657 C656 1.334 . S
C657 C658 1.287 . S
C658 C657 1.287 . S
C658 C659 1.524 . S
C658 H677 0.913 . S
C659 H635 0.950 . S
C659 C658 1.524 . S
C659 C660 1.415 . S
C660 H636 0.950 . S
C660 C655 1.363 . S
C660 C659 1.415 . S
C661 H637 0.951 . S
C661 C662 1.366 1_655 S
C661 C663 1.388 . S
C662 C661 1.366 1_455 S
C662 C666 1.385 . S
C663 H638 0.951 . S
C663 C661 1.388 . S
C663 C664 1.366 1_655 S
C664 C663 1.366 1_455 S
C664 C665 1.414 . S
C664 C667 1.499 . S
C665 H639 0.950 . S
C665 C664 1.414 . S
C665 C666 1.374 . S
C666 H640 0.950 . S
C666 C662 1.385 . S
C666 C665 1.374 . S
C667 C664 1.499 . S
C667 C668 1.373 . S
C667 C669 1.389 1_455 S
C668 H641 0.950 . S
C668 C654 1.377 1_554 S
C668 C667 1.373 . S
C669 C653 1.377 1_554 S
C669 C667 1.389 1_655 S
C669 C670 1.524 . S
C670 C669 1.524 . S
C670 C671 1.397 . S
C670 C675 1.363 . S
C671 H642 0.950 1_655 S
C671 C670 1.397 . S
C671 C672 1.334 . S
C672 H643 0.950 . S
C672 C671 1.334 . S
C672 C673 1.287 . S
C673 C672 1.287 . S
C673 C674 1.524 . S
C673 H676 0.999 . S
C674 H644 0.950 . S
C674 C673 1.524 . S
C674 C675 1.415 . S
C675 H645 0.950 . S
C675 C670 1.363 . S
C675 C674 1.415 . S
H676 C673 0.999 . S
H677 C658 0.913 . S
H678 C696 0.951 . S
H679 C698 0.951 . S
H680 C700 0.950 . S
H681 C701 0.950 . S
H682 C703 0.950 . S
H683 C706 0.950 . S
H684 C707 0.950 . S
H685 C709 0.950 . S
H686 C710 0.930 1_545 S
H687 C711 0.951 . S
H688 C713 0.951 . S
H689 C715 0.950 . S
H690 C716 0.950 . S
H691 C718 0.950 . S
H692 C721 0.950 . S
H693 C722 0.950 . S
H694 C724 0.950 . S
H695 C725 0.950 . S
C696 H678 0.951 . S
C696 C697 1.366 . S
C696 C698 1.388 . S
C697 C696 1.366 . S
C697 C701 1.385 . S
C698 H679 0.951 . S
C698 C696 1.388 . S
C698 C699 1.366 . S
C699 C698 1.366 . S
C699 C700 1.414 . S
C699 C702 1.499 . S
C700 H680 0.950 . S
C700 C699 1.414 . S
C700 C701 1.374 . S
C701 H681 0.950 . S
C701 C697 1.385 . S
C701 C700 1.374 . S
C702 C699 1.499 . S
C702 C703 1.373 . S
C702 C704 1.389 . S
C703 H682 0.950 . S
C703 C702 1.373 . S
C703 C719 1.377 . S
C704 C702 1.389 . S
C704 C705 1.524 1_545 S
C704 C718 1.377 . S
C705 C704 1.524 1_565 S
C705 C706 1.397 . S
C705 C710 1.369 . S
C706 H683 0.950 . S
C706 C705 1.397 . S
C706 C707 1.334 . S
C707 H684 0.950 . S
C707 C706 1.334 . S
C707 C708 1.287 . S
C708 C707 1.287 . S
C708 C709 1.524 . S
C708 H727 0.913 . S
C709 H685 0.950 . S
C709 C708 1.524 . S
C709 C710 1.429 . S
C710 H686 0.930 1_565 S
C710 C705 1.369 . S
C710 C709 1.429 . S
C711 H687 0.951 . S
C711 C712 1.366 . S
C711 C713 1.388 . S
C712 C711 1.366 . S
C712 C716 1.385 . S
C713 H688 0.951 . S
C713 C711 1.388 . S
C713 C714 1.366 . S
C714 C713 1.366 . S
C714 C715 1.414 . S
C714 C717 1.499 . S
C715 H689 0.950 . S
C715 C714 1.414 . S
C715 C716 1.374 . S
C716 H690 0.950 . S
C716 C712 1.385 . S
C716 C715 1.374 . S
C717 C714 1.499 . S
C717 C718 1.373 . S
C717 C719 1.389 . S
C718 H691 0.950 . S
C718 C704 1.377 . S
C718 C717 1.373 . S
C719 C703 1.377 . S
C719 C717 1.389 . S
C719 C720 1.524 . S
C720 C719 1.524 . S
C720 C721 1.397 . S
C720 C725 1.363 . S
C721 H692 0.950 . S
C721 C720 1.397 . S
C721 C722 1.334 . S
C722 H693 0.950 . S
C722 C721 1.334 . S
C722 C723 1.287 . S
C723 C722 1.287 . S
C723 C724 1.524 . S
C723 H726 0.999 . S
C724 H694 0.950 . S
C724 C723 1.524 . S
C724 C725 1.415 . S
C725 H695 0.950 . S
C725 C720 1.363 . S
C725 C724 1.415 . S
H726 C723 0.999 . S
H727 C708 0.913 . S
H728 C746 0.951 . S
H729 C748 0.951 . S
H730 C750 0.950 . S
H731 C751 0.950 . S
H732 C753 0.950 . S
H733 C756 0.950 . S
H734 C757 0.950 . S
H735 C759 0.950 . S
H736 C760 0.950 . S
H737 C761 0.951 . S
H738 C763 0.951 . S
H739 C765 0.950 . S
H740 C766 0.950 . S
H741 C768 0.950 . S
H742 C771 0.950 . S
H743 C772 0.950 . S
H744 C774 0.950 . S
H745 C775 0.950 . S
C746 H728 0.951 . S
C746 C747 1.366 . S
C746 C748 1.388 . S
C747 C746 1.366 . S
C747 C751 1.385 . S
C748 H729 0.951 . S
C748 C746 1.388 . S
C748 C749 1.366 . S
C749 C748 1.366 . S
C749 C750 1.414 . S
C749 C752 1.499 . S
C750 H730 0.950 . S
C750 C749 1.414 . S
C750 C751 1.374 . S
C751 H731 0.950 . S
C751 C747 1.385 . S
C751 C750 1.374 . S
C752 C749 1.499 . S
C752 C753 1.373 . S
C752 C754 1.389 . S
C753 H732 0.950 . S
C753 C752 1.373 . S
C753 C769 1.377 1_556 S
C754 C752 1.389 . S
C754 C755 1.524 . S
C754 C768 1.377 1_556 S
C755 C754 1.524 . S
C755 C756 1.397 . S
C755 C760 1.363 . S
C756 H733 0.950 . S
C756 C755 1.397 . S
C756 C757 1.334 . S
C757 H734 0.950 . S
C757 C756 1.334 . S
C757 C758 1.287 . S
C758 C757 1.287 . S
C758 C759 1.524 . S
C758 H777 0.913 . S
C759 H735 0.950 . S
C759 C758 1.524 . S
C759 C760 1.415 . S
C760 H736 0.950 . S
C760 C755 1.363 . S
C760 C759 1.415 . S
C761 H737 0.951 . S
C761 C762 1.366 . S
C761 C763 1.388 . S
C762 C761 1.366 . S
C762 C766 1.385 . S
C763 H738 0.951 . S
C763 C761 1.388 . S
C763 C764 1.366 . S
C764 C763 1.366 . S
C764 C765 1.414 . S
C764 C767 1.499 . S
C765 H739 0.950 . S
C765 C764 1.414 . S
C765 C766 1.374 . S
C766 H740 0.950 . S
C766 C762 1.385 . S
C766 C765 1.374 . S
C767 C764 1.499 . S
C767 C768 1.373 . S
C767 C769 1.389 . S
C768 H741 0.950 . S
C768 C754 1.377 1_554 S
C768 C767 1.373 . S
C769 C753 1.377 1_554 S
C769 C767 1.389 . S
C769 C770 1.524 . S
C770 C769 1.524 . S
C770 C771 1.397 . S
C770 C775 1.363 . S
C771 H742 0.950 . S
C771 C770 1.397 . S
C771 C772 1.334 . S
C772 H743 0.950 . S
C772 C771 1.334 . S
C772 C773 1.287 . S
C773 C772 1.287 . S
C773 C774 1.524 . S
C773 H776 0.999 . S
C774 H744 0.950 . S
C774 C773 1.524 . S
C774 C775 1.415 . S
C775 H745 0.950 . S
C775 C770 1.363 . S
C775 C774 1.415 . S
H776 C773 0.999 . S
H777 C758 0.913 . S
H778 C796 0.951 . S
H779 C798 0.951 . S
H780 C800 0.950 . S
H781 C801 0.950 . S
H782 C803 0.950 . S
H783 C806 0.950 . S
H784 C807 0.950 . S
H785 C809 0.950 . S
H786 C810 0.950 . S
H787 C811 0.951 . S
H788 C813 0.951 . S
H789 C815 0.950 . S
H790 C816 0.950 . S
H791 C818 0.950 . S
H792 C821 0.950 . S
H793 C822 0.950 . S
H794 C824 0.950 . S
H795 C825 0.950 . S
C796 H778 0.951 . S
C796 C797 1.366 . S
C796 C798 1.388 . S
C797 C796 1.366 . S
C797 C801 1.385 . S
C798 H779 0.951 . S
C798 C796 1.388 . S
C798 C799 1.366 . S
C799 C798 1.366 . S
C799 C800 1.414 . S
C799 C802 1.499 . S
C800 H780 0.950 . S
C800 C799 1.414 . S
C800 C801 1.374 . S
C801 H781 0.950 . S
C801 C797 1.385 . S
C801 C800 1.374 . S
C802 C799 1.499 . S
C802 C803 1.373 . S
C802 C804 1.389 . S
C803 H782 0.950 . S
C803 C802 1.373 . S
C803 C819 1.377 . S
C804 C802 1.389 . S
C804 C805 1.524 . S
C804 C818 1.377 . S
C805 C804 1.524 . S
C805 C806 1.397 . S
C805 C810 1.363 . S
C806 H783 0.950 . S
C806 C805 1.397 . S
C806 C807 1.334 . S
C807 H784 0.950 . S
C807 C806 1.334 . S
C807 C808 1.287 . S
C808 C807 1.287 . S
C808 C809 1.524 . S
C808 H827 0.913 . S
C809 H785 0.950 . S
C809 C808 1.524 . S
C809 C810 1.415 . S
C810 H786 0.950 . S
C810 C805 1.363 . S
C810 C809 1.415 . S
C811 H787 0.951 . S
C811 C812 1.366 . S
C811 C813 1.388 . S
C812 C811 1.366 . S
C812 C816 1.385 . S
C813 H788 0.951 . S
C813 C811 1.388 . S
C813 C814 1.366 . S
C814 C813 1.366 . S
C814 C815 1.414 . S
C814 C817 1.499 . S
C815 H789 0.950 . S
C815 C814 1.414 . S
C815 C816 1.374 . S
C816 H790 0.950 . S
C816 C812 1.385 . S
C816 C815 1.374 . S
C817 C814 1.499 . S
C817 C818 1.373 . S
C817 C819 1.389 . S
C818 H791 0.950 . S
C818 C804 1.377 . S
C818 C817 1.373 . S
C819 C803 1.377 . S
C819 C817 1.389 . S
C819 C820 1.524 . S
C820 C819 1.524 . S
C820 C821 1.397 . S
C820 C825 1.363 . S
C821 H792 0.950 . S
C821 C820 1.397 . S
C821 C822 1.334 . S
C822 H793 0.950 . S
C822 C821 1.334 . S
C822 C823 1.287 . S
C823 C822 1.287 . S
C823 C824 1.524 . S
C823 H826 0.999 . S
C824 H794 0.950 . S
C824 C823 1.524 . S
C824 C825 1.415 . S
C825 H795 0.950 . S
C825 C820 1.363 . S
C825 C824 1.415 . S
H826 C823 0.999 . S
H827 C808 0.913 . S
H828 C846 0.951 1_455 S
H829 C848 0.951 1_455 S
H830 C850 0.950 . S
H831 C851 0.950 . S
H832 C853 0.950 . S
H833 C856 0.950 . S
H834 C857 0.950 . S
H835 C859 0.950 . S
H836 C860 0.950 . S
H837 C861 0.951 . S
H838 C863 0.951 . S
H839 C865 0.950 1_455 S
H840 C866 0.950 1_455 S
H841 C868 0.950 . S
H842 C871 0.950 . S
H843 C872 0.950 . S
H844 C874 0.950 . S
H845 C875 0.950 . S
C846 H828 0.951 1_655 S
C846 C847 1.366 . S
C846 C848 1.388 . S
C847 C846 1.366 . S
C847 C851 1.385 . S
C848 H829 0.951 1_655 S
C848 C846 1.388 . S
C848 C849 1.366 . S
C849 C848 1.366 . S
C849 C850 1.414 . S
C849 C852 1.499 . S
C850 H830 0.950 . S
C850 C849 1.414 . S
C850 C851 1.374 . S
C851 H831 0.950 . S
C851 C847 1.385 . S
C851 C850 1.374 . S
C852 C849 1.499 . S
C852 C853 1.373 . S
C852 C854 1.389 1_655 S
C853 H832 0.950 . S
C853 C852 1.373 . S
C853 C869 1.377 1_554 S
C854 C852 1.389 1_455 S
C854 C855 1.524 . S
C854 C868 1.377 1_554 S
C855 C854 1.524 . S
C855 C856 1.397 . S
C855 C860 1.363 . S
C856 H833 0.950 . S
C856 C855 1.397 . S
C856 C857 1.334 . S
C857 H834 0.950 . S
C857 C856 1.334 . S
C857 C858 1.287 . S
C858 C857 1.287 . S
C858 C859 1.524 . S
C858 H877 0.913 . S
C859 H835 0.950 . S
C859 C858 1.524 . S
C859 C860 1.415 . S
C860 H836 0.950 . S
C860 C855 1.363 . S
C860 C859 1.415 . S
C861 H837 0.951 . S
C861 C862 1.366 . S
C861 C863 1.388 . S
C862 C861 1.366 . S
C862 C866 1.385 . S
C863 H838 0.951 . S
C863 C861 1.388 . S
C863 C864 1.366 . S
C864 C863 1.366 . S
C864 C865 1.414 . S
C864 C867 1.499 . S
C865 H839 0.950 1_655 S
C865 C864 1.414 . S
C865 C866 1.374 . S
C866 H840 0.950 1_655 S
C866 C862 1.385 . S
C866 C865 1.374 . S
C867 C864 1.499 . S
C867 C868 1.373 1_655 S
C867 C869 1.389 . S
C868 H841 0.950 . S
C868 C854 1.377 1_556 S
C868 C867 1.373 1_455 S
C869 C853 1.377 1_556 S
C869 C867 1.389 . S
C869 C870 1.524 . S
C870 C869 1.524 . S
C870 C871 1.397 . S
C870 C875 1.363 . S
C871 H842 0.950 . S
C871 C870 1.397 . S
C871 C872 1.334 . S
C872 H843 0.950 . S
C872 C871 1.334 . S
C872 C873 1.287 . S
C873 C872 1.287 . S
C873 C874 1.524 . S
C873 H876 0.999 . S
C874 H844 0.950 . S
C874 C873 1.524 . S
C874 C875 1.415 . S
C875 H845 0.950 . S
C875 C870 1.363 . S
C875 C874 1.415 . S
H876 C873 0.999 . S
H877 C858 0.913 . S
H878 C896 0.951 . S
H879 C898 0.951 . S
H880 C900 0.950 . S
H881 C901 0.950 . S
H882 C903 0.950 . S
H883 C906 0.950 . S
H884 C907 0.950 . S
H885 C909 0.950 . S
H886 C910 0.950 . S
H887 C911 0.951 . S
H888 C913 0.951 . S
H889 C915 0.950 . S
H890 C916 0.950 . S
H891 C918 0.950 . S
H892 C921 0.950 . S
H893 C922 0.950 . S
H894 C924 0.950 . S
H895 C925 0.950 1_565 S
C896 H878 0.951 . S
C896 C897 1.366 . S
C896 C898 1.388 . S
C897 C896 1.366 . S
C897 C901 1.385 . S
C898 H879 0.951 . S
C898 C896 1.388 . S
C898 C899 1.366 . S
C899 C898 1.366 . S
C899 C900 1.414 . S
C899 C902 1.499 . S
C900 H880 0.950 . S
C900 C899 1.414 . S
C900 C901 1.374 . S
C901 H881 0.950 . S
C901 C897 1.385 . S
C901 C900 1.374 . S
C902 C899 1.499 . S
C902 C903 1.373 . S
C902 C904 1.389 . S
C903 H882 0.950 . S
C903 C902 1.373 . S
C903 C919 1.377 . S
C904 C902 1.389 . S
C904 C905 1.524 . S
C904 C918 1.377 . S
C905 C904 1.524 . S
C905 C906 1.397 . S
C905 C910 1.363 . S
C906 H883 0.950 . S
C906 C905 1.397 . S
C906 C907 1.334 . S
C907 H884 0.950 . S
C907 C906 1.334 . S
C907 C908 1.287 . S
C908 C907 1.287 . S
C908 C909 1.524 . S
C908 H927 0.913 . S
C909 H885 0.950 . S
C909 C908 1.524 . S
C909 C910 1.415 . S
C910 H886 0.950 . S
C910 C905 1.363 . S
C910 C909 1.415 . S
C911 H887 0.951 . S
C911 C912 1.366 . S
C911 C913 1.388 . S
C912 C911 1.366 . S
C912 C916 1.385 . S
C913 H888 0.951 . S
C913 C911 1.388 . S
C913 C914 1.366 . S
C914 C913 1.366 . S
C914 C915 1.414 . S
C914 C917 1.499 . S
C915 H889 0.950 . S
C915 C914 1.414 . S
C915 C916 1.374 . S
C916 H890 0.950 . S
C916 C912 1.385 . S
C916 C915 1.374 . S
C917 C914 1.499 . S
C917 C918 1.373 . S
C917 C919 1.389 . S
C918 H891 0.950 . S
C918 C904 1.377 . S
C918 C917 1.373 . S
C919 C903 1.377 . S
C919 C917 1.389 . S
C919 C920 1.524 1_565 S
C920 C919 1.524 1_545 S
C920 C921 1.397 . S
C920 C925 1.363 . S
C921 H892 0.950 . S
C921 C920 1.397 . S
C921 C922 1.334 . S
C922 H893 0.950 . S
C922 C921 1.334 . S
C922 C923 1.287 . S
C923 C922 1.287 . S
C923 C924 1.524 . S
C923 H926 0.999 . S
C924 H894 0.950 . S
C924 C923 1.524 . S
C924 C925 1.415 . S
C925 H895 0.950 1_545 S
C925 C920 1.363 . S
C925 C924 1.415 . S
H926 C923 0.999 . S
H927 C908 0.913 . S
H928 C946 0.951 . S
H929 C948 0.951 . S
H930 C950 0.950 . S
H931 C951 0.950 . S
H932 C953 0.950 . S
H933 C956 0.950 . S
H934 C957 0.950 . S
H935 C959 0.950 . S
H936 C960 0.950 . S
H937 C961 0.951 . S
H938 C963 0.951 . S
H939 C965 0.950 . S
H940 C966 0.950 . S
H941 C968 0.950 . S
H942 C971 0.950 . S
H943 C972 0.950 . S
H944 C974 0.950 . S
H945 C975 0.950 1_565 S
C946 H928 0.951 . S
C946 C947 1.366 . S
C946 C948 1.388 . S
C947 C946 1.366 . S
C947 C951 1.385 . S
C948 H929 0.951 . S
C948 C946 1.388 . S
C948 C949 1.366 . S
C949 C948 1.366 . S
C949 C950 1.414 . S
C949 C952 1.499 . S
C950 H930 0.950 . S
C950 C949 1.414 . S
C950 C951 1.374 . S
C951 H931 0.950 . S
C951 C947 1.385 . S
C951 C950 1.374 . S
C952 C949 1.499 . S
C952 C953 1.373 . S
C952 C954 1.389 . S
C953 H932 0.950 . S
C953 C952 1.373 . S
C953 C969 1.377 . S
C954 C952 1.389 . S
C954 C955 1.524 . S
C954 C968 1.377 . S
C955 C954 1.524 . S
C955 C956 1.397 . S
C955 C960 1.363 . S
C956 H933 0.950 . S
C956 C955 1.397 . S
C956 C957 1.334 . S
C957 H934 0.950 . S
C957 C956 1.334 . S
C957 C958 1.287 . S
C958 C957 1.287 . S
C958 C959 1.524 . S
C958 H977 0.913 . S
C959 H935 0.950 . S
C959 C958 1.524 . S
C959 C960 1.415 . S
C960 H936 0.950 . S
C960 C955 1.363 . S
C960 C959 1.415 . S
C961 H937 0.951 . S
C961 C962 1.366 . S
C961 C963 1.388 . S
C962 C961 1.366 . S
C962 C966 1.385 . S
C963 H938 0.951 . S
C963 C961 1.388 . S
C963 C964 1.366 . S
C964 C963 1.366 . S
C964 C965 1.414 . S
C964 C967 1.499 . S
C965 H939 0.950 . S
C965 C964 1.414 . S
C965 C966 1.374 . S
C966 H940 0.950 . S
C966 C962 1.385 . S
C966 C965 1.374 . S
C967 C964 1.499 . S
C967 C968 1.373 1_545 S
C967 C969 1.389 1_545 S
C968 H941 0.950 . S
C968 C954 1.377 . S
C968 C967 1.373 1_565 S
C969 C953 1.377 . S
C969 C967 1.389 1_565 S
C969 C970 1.524 1_565 S
C970 C969 1.524 1_545 S
C970 C971 1.397 . S
C970 C975 1.363 . S
C971 H942 0.950 . S
C971 C970 1.397 . S
C971 C972 1.334 . S
C972 H943 0.950 . S
C972 C971 1.334 . S
C972 C973 1.287 . S
C973 C972 1.287 . S
C973 C974 1.524 . S
C973 H976 0.999 . S
C974 H944 0.950 . S
C974 C973 1.524 . S
C974 C975 1.415 . S
C975 H945 0.950 1_545 S
C975 C970 1.363 . S
C975 C974 1.415 . S
H976 C973 0.999 . S
H977 C958 0.913 . S
H978 C996 0.951 . S
H979 C998 0.951 . S
H980 C1000 0.950 . S
H981 C1001 0.950 . S
H982 C1003 0.950 . S
H983 C1006 0.950 . S
H984 C1007 0.950 . S
H985 C1009 0.950 . S
H986 C1010 0.950 . S
H987 C1011 0.951 . S
H988 C1013 0.951 . S
H989 C1015 0.950 . S
H990 C1016 0.950 . S
H991 C1018 0.950 . S
H992 C1021 0.950 . S
H993 C1022 0.950 . S
H994 C1024 0.950 . S
H995 C1025 0.950 . S
C996 H978 0.951 . S
C996 C997 1.366 . S
C996 C998 1.388 . S
C997 C996 1.366 . S
C997 C1001 1.385 . S
C998 H979 0.951 . S
C998 C996 1.388 . S
C998 C999 1.366 . S
C999 C998 1.366 . S
C999 C1000 1.414 . S
C999 C1002 1.499 . S
C1000 H980 0.950 . S
C1000 C999 1.414 . S
C1000 C1001 1.374 . S
C1001 H981 0.950 . S
C1001 C997 1.385 . S
C1001 C1000 1.374 . S
C1002 C999 1.499 . S
C1002 C1003 1.373 . S
C1002 C1004 1.389 . S
C1003 H982 0.950 . S
C1003 C1002 1.373 . S
C1003 C1019 1.377 . S
C1004 C1002 1.389 . S
C1004 C1005 1.524 . S
C1004 C1018 1.377 . S
C1005 C1004 1.524 . S
C1005 C1006 1.397 . S
C1005 C1010 1.363 . S
C1006 H983 0.950 . S
C1006 C1005 1.397 . S
C1006 C1007 1.334 . S
C1007 H984 0.950 . S
C1007 C1006 1.334 . S
C1007 C1008 1.287 . S
C1008 C1007 1.287 . S
C1008 C1009 1.524 . S
C1008 H1027 0.913 . S
C1009 H985 0.950 . S
C1009 C1008 1.524 . S
C1009 C1010 1.415 . S
C1010 H986 0.950 . S
C1010 C1005 1.363 . S
C1010 C1009 1.415 . S
C1011 H987 0.951 . S
C1011 C1012 1.366 . S
C1011 C1013 1.388 . S
C1012 C1011 1.366 . S
C1012 C1016 1.385 . S
C1013 H988 0.951 . S
C1013 C1011 1.388 . S
C1013 C1014 1.366 . S
C1014 C1013 1.366 . S
C1014 C1015 1.414 . S
C1014 C1017 1.499 . S
C1015 H989 0.950 . S
C1015 C1014 1.414 . S
C1015 C1016 1.374 . S
C1016 H990 0.950 . S
C1016 C1012 1.385 . S
C1016 C1015 1.374 . S
C1017 C1014 1.499 . S
C1017 C1018 1.373 . S
C1017 C1019 1.389 . S
C1018 H991 0.950 . S
C1018 C1004 1.377 . S
C1018 C1017 1.373 . S
C1019 C1003 1.377 . S
C1019 C1017 1.389 . S
C1019 C1020 1.524 . S
C1020 C1019 1.524 . S
C1020 C1021 1.397 . S
C1020 C1025 1.363 . S
C1021 H992 0.950 . S
C1021 C1020 1.397 . S
C1021 C1022 1.334 . S
C1022 H993 0.950 . S
C1022 C1021 1.334 . S
C1022 C1023 1.287 . S
C1023 C1022 1.287 . S
C1023 C1024 1.524 . S
C1023 H1026 0.999 . S
C1024 H994 0.950 . S
C1024 C1023 1.524 . S
C1024 C1025 1.415 . S
C1025 H995 0.950 . S
C1025 C1020 1.363 . S
C1025 C1024 1.415 . S
H1026 C1023 0.999 . S
H1027 C1008 0.913 . S
H1028 C1046 0.951 . S
H1029 C1048 0.951 . S
H1030 C1050 0.950 . S
H1031 C1051 0.950 . S
H1032 C1053 0.963 . S
H1033 C1056 0.950 . S
H1034 C1057 0.950 . S
H1035 C1059 0.950 . S
H1036 C1060 0.950 . S
H1037 C1061 0.951 . S
H1038 C1063 0.951 . S
H1039 C1065 0.950 . S
H1040 C1066 0.950 . S
H1041 C1068 0.950 . S
H1042 C1071 0.950 . S
H1043 C1072 0.950 . S
H1044 C1074 0.950 . S
H1045 C1075 0.950 . S
C1046 H1028 0.951 . S
C1046 C1047 1.366 1_655 S
C1046 C1048 1.388 . S
C1047 C1046 1.366 1_455 S
C1047 C1051 1.385 . S
C1048 H1029 0.951 . S
C1048 C1046 1.388 . S
C1048 C1049 1.366 . S
C1049 C1048 1.366 . S
C1049 C1050 1.414 1_655 S
C1049 C1052 1.499 . S
C1050 H1030 0.950 . S
C1050 C1049 1.414 1_455 S
C1050 C1051 1.374 . S
C1051 H1031 0.950 . S
C1051 C1047 1.385 . S
C1051 C1050 1.374 . S
C1052 C1049 1.499 . S
C1052 C1053 1.368 1_655 S
C1052 C1054 1.389 . S
C1053 H1032 0.963 . S
C1053 C1052 1.368 1_455 S
C1053 C1069 1.371 1_455 S
C1054 C1052 1.389 . S
C1054 C1055 1.524 . S
C1054 C1068 1.377 . S
C1055 C1054 1.524 . S
C1055 C1056 1.397 1_655 S
C1055 C1060 1.363 . S
C1056 H1033 0.950 . S
C1056 C1055 1.397 1_455 S
C1056 C1057 1.334 . S
C1057 H1034 0.950 . S
C1057 C1056 1.334 . S
C1057 C1058 1.287 1_455 S
C1058 C1057 1.287 1_655 S
C1058 C1059 1.524 . S
C1058 H1077 0.913 . S
C1059 H1035 0.950 . S
C1059 C1058 1.524 . S
C1059 C1060 1.415 . S
C1060 H1036 0.950 . S
C1060 C1055 1.363 . S
C1060 C1059 1.415 . S
C1061 H1037 0.951 . S
C1061 C1062 1.366 1_455 S
C1061 C1063 1.388 . S
C1062 C1061 1.366 1_655 S
C1062 C1066 1.385 . S
C1063 H1038 0.951 . S
C1063 C1061 1.388 . S
C1063 C1064 1.366 1_455 S
C1064 C1063 1.366 1_655 S
C1064 C1065 1.414 . S
C1064 C1067 1.499 . S
C1065 H1039 0.950 . S
C1065 C1064 1.414 . S
C1065 C1066 1.374 . S
C1066 H1040 0.950 . S
C1066 C1062 1.385 . S
C1066 C1065 1.374 . S
C1067 C1064 1.499 . S
C1067 C1068 1.373 . S
C1067 C1069 1.389 . S
C1068 H1041 0.950 . S
C1068 C1054 1.377 . S
C1068 C1067 1.373 . S
C1069 C1053 1.371 1_655 S
C1069 C1067 1.389 . S
C1069 C1070 1.526 . S
C1070 C1069 1.526 . S
C1070 C1071 1.408 . S
C1070 C1075 1.351 1_655 S
C1071 H1042 0.950 . S
C1071 C1070 1.408 . S
C1071 C1072 1.334 . S
C1072 H1043 0.950 . S
C1072 C1071 1.334 . S
C1072 C1073 1.287 . S
C1073 C1072 1.287 . S
C1073 C1074 1.524 1_655 S
C1073 H1076 0.999 1_655 S
C1074 H1044 0.950 . S
C1074 C1073 1.524 1_455 S
C1074 C1075 1.415 . S
C1075 H1045 0.950 . S
C1075 C1070 1.351 1_455 S
C1075 C1074 1.415 . S
H1076 C1073 0.999 1_455 S
H1077 C1058 0.913 . S
H1078 C1096 0.951 . S
H1079 C1098 0.951 . S
H1080 C1100 0.950 . S
H1081 C1101 0.950 . S
H1082 C1103 0.950 . S
H1083 C1106 0.950 . S
H1084 C1107 0.950 . S
H1085 C1109 0.950 . S
H1086 C1110 0.950 . S
H1087 C1111 0.951 . S
H1088 C1113 0.951 . S
H1089 C1115 0.950 . S
H1090 C1116 0.950 . S
H1091 C1118 0.950 . S
H1092 C1121 0.950 . S
H1093 C1122 0.950 . S
H1094 C1124 0.950 . S
H1095 C1125 0.950 . S
C1096 H1078 0.951 . S
C1096 C1097 1.366 . S
C1096 C1098 1.388 . S
C1097 C1096 1.366 . S
C1097 C1101 1.385 . S
C1098 H1079 0.951 . S
C1098 C1096 1.388 . S
C1098 C1099 1.366 . S
C1099 C1098 1.366 . S
C1099 C1100 1.414 . S
C1099 C1102 1.499 . S
C1100 H1080 0.950 . S
C1100 C1099 1.414 . S
C1100 C1101 1.374 . S
C1101 H1081 0.950 . S
C1101 C1097 1.385 . S
C1101 C1100 1.374 . S
C1102 C1099 1.499 . S
C1102 C1103 1.373 . S
C1102 C1104 1.389 1_565 S
C1103 H1082 0.950 . S
C1103 C1102 1.373 . S
C1103 C1119 1.377 . S
C1104 C1102 1.389 1_545 S
C1104 C1105 1.524 . S
C1104 C1118 1.377 . S
C1105 C1104 1.524 . S
C1105 C1106 1.397 . S
C1105 C1110 1.363 . S
C1106 H1083 0.950 . S
C1106 C1105 1.397 . S
C1106 C1107 1.334 . S
C1107 H1084 0.950 . S
C1107 C1106 1.334 . S
C1107 C1108 1.287 . S
C1108 C1107 1.287 . S
C1108 C1109 1.524 . S
C1108 H1127 0.913 . S
C1109 H1085 0.950 . S
C1109 C1108 1.524 . S
C1109 C1110 1.415 . S
C1110 H1086 0.950 . S
C1110 C1105 1.363 . S
C1110 C1109 1.415 . S
C1111 H1087 0.951 . S
C1111 C1112 1.366 . S
C1111 C1113 1.388 1_545 S
C1112 C1111 1.366 . S
C1112 C1116 1.387 . S
C1113 H1088 0.951 . S
C1113 C1111 1.388 1_565 S
C1113 C1114 1.366 . S
C1114 C1113 1.366 . S
C1114 C1115 1.414 . S
C1114 C1117 1.499 . S
C1115 H1089 0.950 . S
C1115 C1114 1.414 . S
C1115 C1116 1.371 1_565 S
C1116 H1090 0.950 . S
C1116 C1112 1.387 . S
C1116 C1115 1.371 1_545 S
C1117 C1114 1.499 . S
C1117 C1118 1.373 1_465 S
C1117 C1119 1.389 1_455 S
C1118 H1091 0.950 . S
C1118 C1104 1.377 . S
C1118 C1117 1.373 1_645 S
C1119 C1103 1.377 . S
C1119 C1117 1.389 1_655 S
C1119 C1120 1.524 1_655 S
C1120 C1119 1.524 1_455 S
C1120 C1121 1.397 . S
C1120 C1125 1.363 1_455 S
C1121 H1092 0.950 . S
C1121 C1120 1.397 . S
C1121 C1122 1.334 . S
C1122 H1093 0.950 . S
C1122 C1121 1.334 . S
C1122 C1123 1.287 . S
C1123 C1122 1.287 . S
C1123 C1124 1.524 . S
C1123 H1126 0.999 . S
C1124 H1094 0.950 . S
C1124 C1123 1.524 . S
C1124 C1125 1.415 1_455 S
C1125 H1095 0.950 . S
C1125 C1120 1.363 1_655 S
C1125 C1124 1.415 1_655 S
H1126 C1123 0.999 . S
H1127 C1108 0.913 . S
H1128 C1146 0.951 . S
H1129 C1148 0.951 . S
H1130 C1150 0.950 . S
H1131 C1151 0.950 . S
H1132 C1153 0.950 . S
H1133 C1156 0.950 . S
H1134 C1157 0.950 . S
H1135 C1159 0.950 . S
H1136 C1160 0.950 . S
H1137 C1161 0.951 . S
H1138 C1163 0.951 . S
H1139 C1165 0.950 . S
H1140 C1166 0.950 . S
H1141 C1168 0.950 . S
H1142 C1171 0.950 . S
H1143 C1172 0.950 . S
H1144 C1174 0.950 . S
H1145 C1175 0.950 . S
C1146 H1128 0.951 . S
C1146 C1147 1.366 . S
C1146 C1148 1.388 . S
C1147 C1146 1.366 . S
C1147 C1151 1.385 . S
C1148 H1129 0.951 . S
C1148 C1146 1.388 . S
C1148 C1149 1.366 . S
C1149 C1148 1.366 . S
C1149 C1150 1.414 . S
C1149 C1152 1.499 . S
C1150 H1130 0.950 . S
C1150 C1149 1.414 . S
C1150 C1151 1.374 . S
C1151 H1131 0.950 . S
C1151 C1147 1.385 . S
C1151 C1150 1.374 . S
C1152 C1149 1.499 . S
C1152 C1153 1.373 . S
C1152 C1154 1.389 . S
C1153 H1132 0.950 . S
C1153 C1152 1.373 . S
C1153 C1169 1.377 . S
C1154 C1152 1.389 . S
C1154 C1155 1.524 . S
C1154 C1168 1.377 . S
C1155 C1154 1.524 . S
C1155 C1156 1.397 . S
C1155 C1160 1.363 . S
C1156 H1133 0.950 . S
C1156 C1155 1.397 . S
C1156 C1157 1.334 . S
C1157 H1134 0.950 . S
C1157 C1156 1.334 . S
C1157 C1158 1.287 . S
C1158 C1157 1.287 . S
C1158 C1159 1.524 . S
C1158 H1177 0.913 . S
C1159 H1135 0.950 . S
C1159 C1158 1.524 . S
C1159 C1160 1.415 . S
C1160 H1136 0.950 . S
C1160 C1155 1.363 . S
C1160 C1159 1.415 . S
C1161 H1137 0.951 . S
C1161 C1162 1.366 . S
C1161 C1163 1.388 . S
C1162 C1161 1.366 . S
C1162 C1166 1.385 . S
C1163 H1138 0.951 . S
C1163 C1161 1.388 . S
C1163 C1164 1.366 . S
C1164 C1163 1.366 . S
C1164 C1165 1.414 . S
C1164 C1167 1.499 . S
C1165 H1139 0.950 . S
C1165 C1164 1.414 . S
C1165 C1166 1.374 . S
C1166 H1140 0.950 . S
C1166 C1162 1.385 . S
C1166 C1165 1.374 . S
C1167 C1164 1.499 . S
C1167 C1168 1.373 . S
C1167 C1169 1.389 . S
C1168 H1141 0.950 . S
C1168 C1154 1.377 . S
C1168 C1167 1.373 . S
C1169 C1153 1.377 . S
C1169 C1167 1.389 . S
C1169 C1170 1.524 . S
C1170 C1169 1.524 . S
C1170 C1171 1.397 . S
C1170 C1175 1.363 . S
C1171 H1142 0.950 . S
C1171 C1170 1.397 . S
C1171 C1172 1.334 . S
C1172 H1143 0.950 . S
C1172 C1171 1.334 . S
C1172 C1173 1.287 . S
C1173 C1172 1.287 . S
C1173 C1174 1.524 . S
C1173 H1176 0.999 . S
C1174 H1144 0.950 . S
C1174 C1173 1.524 . S
C1174 C1175 1.415 . S
C1175 H1145 0.950 . S
C1175 C1170 1.363 . S
C1175 C1174 1.415 . S
H1176 C1173 0.999 . S
H1177 C1158 0.913 . S
H1178 C1196 0.951 . S
H1179 C1198 0.951 . S
H1180 C1200 0.950 . S
H1181 C1201 0.950 . S
H1182 C1203 0.950 . S
H1183 C1206 0.950 . S
H1184 C1207 0.950 . S
H1185 C1209 0.950 . S
H1186 C1210 0.950 . S
H1187 C1211 0.951 . S
H1188 C1213 0.951 . S
H1189 C1215 0.950 . S
H1190 C1216 0.950 . S
H1191 C1218 0.950 1_455 S
H1192 C1221 0.950 . S
H1193 C1222 0.950 . S
H1194 C1224 0.950 1_655 S
H1195 C1225 0.950 . S
C1196 H1178 0.951 . S
C1196 C1197 1.366 . S
C1196 C1198 1.388 . S
C1197 C1196 1.366 . S
C1197 C1201 1.385 . S
C1198 H1179 0.951 . S
C1198 C1196 1.388 . S
C1198 C1199 1.366 . S
C1199 C1198 1.366 . S
C1199 C1200 1.414 . S
C1199 C1202 1.499 . S
C1200 H1180 0.950 . S
C1200 C1199 1.414 . S
C1200 C1201 1.374 . S
C1201 H1181 0.950 . S
C1201 C1197 1.385 . S
C1201 C1200 1.374 . S
C1202 C1199 1.499 . S
C1202 C1203 1.373 . S
C1202 C1204 1.389 . S
C1203 H1182 0.950 . S
C1203 C1202 1.373 . S
C1203 C1219 1.377 . S
C1204 C1202 1.389 . S
C1204 C1205 1.524 . S
C1204 C1218 1.377 . S
C1205 C1204 1.524 . S
C1205 C1206 1.397 . S
C1205 C1210 1.363 . S
C1206 H1183 0.950 . S
C1206 C1205 1.397 . S
C1206 C1207 1.334 . S
C1207 H1184 0.950 . S
C1207 C1206 1.334 . S
C1207 C1208 1.287 . S
C1208 C1207 1.287 . S
C1208 C1209 1.524 . S
C1208 H1227 0.913 . S
C1209 H1185 0.950 . S
C1209 C1208 1.524 . S
C1209 C1210 1.415 . S
C1210 H1186 0.950 . S
C1210 C1205 1.363 . S
C1210 C1209 1.415 . S
C1211 H1187 0.951 . S
C1211 C1212 1.366 . S
C1211 C1213 1.388 . S
C1212 C1211 1.366 . S
C1212 C1216 1.385 . S
C1213 H1188 0.951 . S
C1213 C1211 1.388 . S
C1213 C1214 1.366 . S
C1214 C1213 1.366 . S
C1214 C1215 1.414 . S
C1214 C1217 1.499 . S
C1215 H1189 0.950 . S
C1215 C1214 1.414 . S
C1215 C1216 1.374 . S
C1216 H1190 0.950 . S
C1216 C1212 1.385 . S
C1216 C1215 1.374 . S
C1217 C1214 1.499 . S
C1217 C1218 1.373 1_455 S
C1217 C1219 1.389 1_455 S
C1218 H1191 0.950 1_655 S
C1218 C1204 1.377 . S
C1218 C1217 1.373 1_655 S
C1219 C1203 1.377 . S
C1219 C1217 1.389 1_655 S
C1219 C1220 1.522 1_655 S
C1220 C1219 1.522 1_455 S
C1220 C1221 1.401 . S
C1220 C1225 1.361 1_455 S
C1221 H1192 0.950 . S
C1221 C1220 1.401 . S
C1221 C1222 1.334 . S
C1222 H1193 0.950 . S
C1222 C1221 1.334 . S
C1222 C1223 1.287 . S
C1223 C1222 1.287 . S
C1223 C1224 1.524 . S
C1223 H1226 0.999 . S
C1224 H1194 0.950 1_455 S
C1224 C1223 1.524 . S
C1224 C1225 1.415 1_455 S
C1225 H1195 0.950 . S
C1225 C1220 1.361 1_655 S
C1225 C1224 1.415 1_655 S
H1226 C1223 0.999 . S
H1227 C1208 0.913 . S
H1228 C1246 0.951 . S
H1229 C1248 0.951 . S
H1230 C1250 0.950 . S
H1231 C1251 0.950 . S
H1232 C1253 0.950 1_545 S
H1233 C1256 0.950 . S
H1234 C1257 0.950 . S
H1235 C1259 0.950 . S
H1236 C1260 0.950 . S
H1237 C1261 0.951 . S
H1238 C1263 0.951 . S
H1239 C1265 0.950 1_455 S
H1240 C1266 0.947 1_455 S
H1241 C1268 0.950 . S
H1242 C1271 0.950 . S
H1243 C1272 0.950 . S
H1244 C1274 0.950 . S
H1245 C1275 0.950 . S
C1246 H1228 0.951 . S
C1246 C1247 1.366 . S
C1246 C1248 1.388 . S
C1247 C1246 1.366 . S
C1247 C1251 1.385 1_455 S
C1248 H1229 0.951 . S
C1248 C1246 1.388 . S
C1248 C1249 1.354 1_455 S
C1249 C1248 1.354 1_655 S
C1249 C1250 1.424 . S
C1249 C1252 1.502 . S
C1250 H1230 0.950 . S
C1250 C1249 1.424 . S
C1250 C1251 1.374 . S
C1251 H1231 0.950 . S
C1251 C1247 1.385 1_655 S
C1251 C1250 1.374 . S
C1252 C1249 1.502 . S
C1252 C1253 1.373 1_545 S
C1252 C1254 1.389 1_645 S
C1253 H1232 0.950 1_565 S
C1253 C1252 1.373 1_565 S
C1253 C1269 1.377 . S
C1254 C1252 1.389 1_465 S
C1254 C1255 1.524 . S
C1254 C1268 1.377 . S
C1255 C1254 1.524 . S
C1255 C1256 1.397 1_565 S
C1255 C1260 1.363 . S
C1256 H1233 0.950 . S
C1256 C1255 1.397 1_545 S
C1256 C1257 1.334 . S
C1257 H1234 0.950 . S
C1257 C1256 1.334 . S
C1257 C1258 1.287 . S
C1258 C1257 1.287 . S
C1258 C1259 1.524 1_545 S
C1258 H1277 0.913 . S
C1259 H1235 0.950 . S
C1259 C1258 1.524 1_565 S
C1259 C1260 1.415 . S
C1260 H1236 0.950 . S
C1260 C1255 1.363 . S
C1260 C1259 1.415 . S
C1261 H1237 0.951 . S
C1261 C1262 1.366 . S
C1261 C1263 1.388 . S
C1262 C1261 1.366 . S
C1262 C1266 1.385 . S
C1263 H1238 0.951 . S
C1263 C1261 1.388 . S
C1263 C1264 1.366 . S
C1264 C1263 1.366 . S
C1264 C1265 1.414 . S
C1264 C1267 1.499 . S
C1265 H1239 0.950 1_655 S
C1265 C1264 1.414 . S
C1265 C1266 1.374 . S
C1266 H1240 0.947 1_655 S
C1266 C1262 1.385 . S
C1266 C1265 1.374 . S
C1267 C1264 1.499 . S
C1267 C1268 1.373 1_655 S
C1267 C1269 1.389 . S
C1268 H1241 0.950 . S
C1268 C1254 1.377 . S
C1268 C1267 1.373 1_455 S
C1269 C1253 1.377 . S
C1269 C1267 1.389 . S
C1269 C1270 1.524 . S
C1270 C1269 1.524 . S
C1270 C1271 1.397 . S
C1270 C1275 1.363 . S
C1271 H1242 0.950 . S
C1271 C1270 1.397 . S
C1271 C1272 1.334 . S
C1272 H1243 0.950 . S
C1272 C1271 1.334 . S
C1272 C1273 1.287 . S
C1273 C1272 1.287 . S
C1273 C1274 1.524 . S
C1273 H1276 0.999 . S
C1274 H1244 0.950 . S
C1274 C1273 1.524 . S
C1274 C1275 1.415 . S
C1275 H1245 0.950 . S
C1275 C1270 1.363 . S
C1275 C1274 1.415 . S
H1276 C1273 0.999 . S
H1277 C1258 0.913 . S
H1278 C1296 0.951 . S
H1279 C1298 0.951 . S
H1280 C1300 0.950 . S
H1281 C1301 0.950 . S
H1282 C1303 0.950 . S
H1283 C1306 0.950 . S
H1284 C1307 0.965 . S
H1285 C1309 0.950 . S
H1286 C1310 0.950 . S
H1287 C1311 0.951 . S
H1288 C1313 0.951 . S
H1289 C1315 0.950 . S
H1290 C1316 0.950 . S
H1291 C1318 0.950 . S
H1292 C1321 0.950 1_545 S
H1293 C1322 0.950 . S
H1294 C1324 0.950 . S
H1295 C1325 0.950 . S
C1296 H1278 0.951 . S
C1296 C1297 1.366 . S
C1296 C1298 1.388 . S
C1297 C1296 1.366 . S
C1297 C1301 1.385 1_545 S
C1298 H1279 0.951 . S
C1298 C1296 1.388 . S
C1298 C1299 1.366 1_545 S
C1299 C1298 1.366 1_565 S
C1299 C1300 1.414 . S
C1299 C1302 1.499 . S
C1300 H1280 0.950 . S
C1300 C1299 1.414 . S
C1300 C1301 1.374 . S
C1301 H1281 0.950 . S
C1301 C1297 1.385 1_565 S
C1301 C1300 1.374 . S
C1302 C1299 1.499 . S
C1302 C1303 1.373 . S
C1302 C1304 1.389 1_565 S
C1303 H1282 0.950 . S
C1303 C1302 1.373 . S
C1303 C1319 1.377 . S
C1304 C1302 1.389 1_545 S
C1304 C1305 1.524 . S
C1304 C1318 1.377 . S
C1305 C1304 1.524 . S
C1305 C1306 1.397 1_545 S
C1305 C1310 1.363 . S
C1306 H1283 0.950 . S
C1306 C1305 1.397 1_565 S
C1306 C1307 1.340 . S
C1307 H1284 0.965 . S
C1307 C1306 1.340 . S
C1307 C1308 1.267 1_565 S
C1308 C1307 1.267 1_545 S
C1308 C1309 1.524 . S
C1308 H1327 0.913 . S
C1309 H1285 0.950 . S
C1309 C1308 1.524 . S
C1309 C1310 1.415 . S
C1310 H1286 0.950 . S
C1310 C1305 1.363 . S
C1310 C1309 1.415 . S
C1311 H1287 0.951 . S
C1311 C1312 1.366 . S
C1311 C1313 1.388 . S
C1312 C1311 1.366 . S
C1312 C1316 1.385 1_565 S
C1313 H1288 0.951 . S
C1313 C1311 1.388 . S
C1313 C1314 1.366 . S
C1314 C1313 1.366 . S
C1314 C1315 1.414 1_565 S
C1314 C1317 1.499 . S
C1315 H1289 0.950 . S
C1315 C1314 1.414 1_545 S
C1315 C1316 1.374 . S
C1316 H1290 0.950 . S
C1316 C1312 1.385 1_545 S
C1316 C1315 1.374 . S
C1317 C1314 1.499 . S
C1317 C1318 1.373 1_565 S
C1317 C1319 1.389 . S
C1318 H1291 0.950 . S
C1318 C1304 1.377 . S
C1318 C1317 1.373 1_545 S
C1319 C1303 1.377 . S
C1319 C1317 1.389 . S
C1319 C1320 1.524 . S
C1320 C1319 1.524 . S
C1320 C1321 1.397 . S
C1320 C1325 1.363 . S
C1321 H1292 0.950 1_565 S
C1321 C1320 1.397 . S
C1321 C1322 1.334 . S
C1322 H1293 0.950 . S
C1322 C1321 1.334 . S
C1322 C1323 1.287 . S
C1323 C1322 1.287 . S
C1323 C1324 1.524 . S
C1323 H1326 0.999 . S
C1324 H1294 0.950 . S
C1324 C1323 1.524 . S
C1324 C1325 1.415 . S
C1325 H1295 0.950 . S
C1325 C1320 1.363 . S
C1325 C1324 1.415 . S
H1326 C1323 0.999 . S
H1327 C1308 0.913 . S
H1328 C1346 0.951 . S
H1329 C1348 0.951 . S
H1330 C1350 0.950 . S
H1331 C1351 0.950 . S
H1332 C1353 0.950 . S
H1333 C1356 0.950 . S
H1334 C1357 0.950 . S
H1335 C1359 0.950 . S
H1336 C1360 0.950 . S
H1337 C1361 0.951 . S
H1338 C1363 0.951 . S
H1339 C1365 0.950 . S
H1340 C1366 0.950 . S
H1341 C1368 0.950 . S
H1342 C1371 0.950 . S
H1343 C1372 0.950 . S
H1344 C1374 0.950 . S
H1345 C1375 0.972 . S
C1346 H1328 0.951 . S
C1346 C1347 1.366 . S
C1346 C1348 1.388 . S
C1347 C1346 1.366 . S
C1347 C1351 1.385 . S
C1348 H1329 0.951 . S
C1348 C1346 1.388 . S
C1348 C1349 1.366 . S
C1349 C1348 1.366 . S
C1349 C1350 1.414 . S
C1349 C1352 1.499 . S
C1350 H1330 0.950 . S
C1350 C1349 1.414 . S
C1350 C1351 1.374 . S
C1351 H1331 0.950 . S
C1351 C1347 1.385 . S
C1351 C1350 1.374 . S
C1352 C1349 1.499 . S
C1352 C1353 1.373 . S
C1352 C1354 1.389 . S
C1353 H1332 0.950 . S
C1353 C1352 1.373 . S
C1353 C1369 1.377 . S
C1354 C1352 1.389 . S
C1354 C1355 1.524 . S
C1354 C1368 1.377 . S
C1355 C1354 1.524 . S
C1355 C1356 1.397 . S
C1355 C1360 1.363 . S
C1356 H1333 0.950 . S
C1356 C1355 1.397 . S
C1356 C1357 1.334 . S
C1357 H1334 0.950 . S
C1357 C1356 1.334 . S
C1357 C1358 1.287 . S
C1358 C1357 1.287 . S
C1358 C1359 1.524 . S
C1358 H1377 0.913 . S
C1359 H1335 0.950 . S
C1359 C1358 1.524 . S
C1359 C1360 1.415 . S
C1360 H1336 0.950 . S
C1360 C1355 1.363 . S
C1360 C1359 1.415 . S
C1361 H1337 0.951 . S
C1361 C1362 1.366 . S
C1361 C1363 1.388 . S
C1362 C1361 1.366 . S
C1362 C1366 1.385 . S
C1363 H1338 0.951 . S
C1363 C1361 1.388 . S
C1363 C1364 1.366 . S
C1364 C1363 1.366 . S
C1364 C1365 1.414 . S
C1364 C1367 1.499 . S
C1365 H1339 0.950 . S
C1365 C1364 1.414 . S
C1365 C1366 1.374 . S
C1366 H1340 0.950 . S
C1366 C1362 1.385 . S
C1366 C1365 1.374 . S
C1367 C1364 1.499 . S
C1367 C1368 1.373 1_565 S
C1367 C1369 1.389 1_565 S
C1368 H1341 0.950 . S
C1368 C1354 1.377 . S
C1368 C1367 1.373 1_545 S
C1369 C1353 1.377 . S
C1369 C1367 1.389 1_545 S
C1369 C1370 1.524 1_545 S
C1370 C1369 1.524 1_565 S
C1370 C1371 1.397 . S
C1370 C1375 1.358 1_565 S
C1371 H1342 0.950 . S
C1371 C1370 1.397 . S
C1371 C1372 1.334 . S
C1372 H1343 0.950 . S
C1372 C1371 1.334 . S
C1372 C1373 1.287 . S
C1373 C1372 1.287 . S
C1373 C1374 1.524 . S
C1373 H1376 0.999 . S
C1374 H1344 0.950 . S
C1374 C1373 1.524 . S
C1374 C1375 1.400 1_565 S
C1375 H1345 0.972 . S
C1375 C1370 1.358 1_545 S
C1375 C1374 1.400 1_545 S
H1376 C1373 0.999 . S
H1377 C1358 0.913 . S
H1378 C1396 0.951 . S
H1379 C1398 0.951 . S
H1380 C1400 0.950 . S
H1381 C1401 0.950 . S
H1382 C1403 0.950 . S
H1383 C1406 0.950 . S
H1384 C1407 0.950 . S
H1385 C1409 0.950 . S
H1386 C1410 0.950 . S
H1387 C1411 0.951 . S
H1388 C1413 0.951 . S
H1389 C1415 0.950 . S
H1390 C1416 0.950 . S
H1391 C1418 0.950 . S
H1392 C1421 0.950 . S
H1393 C1422 0.950 . S
H1394 C1424 0.950 . S
H1395 C1425 0.950 . S
C1396 H1378 0.951 . S
C1396 C1397 1.366 . S
C1396 C1398 1.388 . S
C1397 C1396 1.366 . S
C1397 C1401 1.385 . S
C1398 H1379 0.951 . S
C1398 C1396 1.388 . S
C1398 C1399 1.366 . S
C1399 C1398 1.366 . S
C1399 C1400 1.414 . S
C1399 C1402 1.499 . S
C1400 H1380 0.950 . S
C1400 C1399 1.414 . S
C1400 C1401 1.374 . S
C1401 H1381 0.950 . S
C1401 C1397 1.385 . S
C1401 C1400 1.374 . S
C1402 C1399 1.499 . S
C1402 C1403 1.373 . S
C1402 C1404 1.389 . S
C1403 H1382 0.950 . S
C1403 C1402 1.373 . S
C1403 C1419 1.377 . S
C1404 C1402 1.389 . S
C1404 C1405 1.524 . S
C1404 C1418 1.377 . S
C1405 C1404 1.524 . S
C1405 C1406 1.397 . S
C1405 C1410 1.363 . S
C1406 H1383 0.950 . S
C1406 C1405 1.397 . S
C1406 C1407 1.334 . S
C1407 H1384 0.950 . S
C1407 C1406 1.334 . S
C1407 C1408 1.287 . S
C1408 C1407 1.287 . S
C1408 C1409 1.524 . S
C1408 H1427 0.913 . S
C1409 H1385 0.950 . S
C1409 C1408 1.524 . S
C1409 C1410 1.415 . S
C1410 H1386 0.950 . S
C1410 C1405 1.363 . S
C1410 C1409 1.415 . S
C1411 H1387 0.951 . S
C1411 C1412 1.366 . S
C1411 C1413 1.388 . S
C1412 C1411 1.366 . S
C1412 C1416 1.385 . S
C1413 H1388 0.951 . S
C1413 C1411 1.388 . S
C1413 C1414 1.366 . S
C1414 C1413 1.366 . S
C1414 C1415 1.414 . S
C1414 C1417 1.499 . S
C1415 H1389 0.950 . S
C1415 C1414 1.414 . S
C1415 C1416 1.374 . S
C1416 H1390 0.950 . S
C1416 C1412 1.385 . S
C1416 C1415 1.374 . S
C1417 C1414 1.499 . S
C1417 C1418 1.373 . S
C1417 C1419 1.389 . S
C1418 H1391 0.950 . S
C1418 C1404 1.377 . S
C1418 C1417 1.373 . S
C1419 C1403 1.377 . S
C1419 C1417 1.389 . S
C1419 C1420 1.524 . S
C1420 C1419 1.524 . S
C1420 C1421 1.397 . S
C1420 C1425 1.363 . S
C1421 H1392 0.950 . S
C1421 C1420 1.397 . S
C1421 C1422 1.334 . S
C1422 H1393 0.950 . S
C1422 C1421 1.334 . S
C1422 C1423 1.287 . S
C1423 C1422 1.287 . S
C1423 C1424 1.524 . S
C1423 H1426 0.999 . S
C1424 H1394 0.950 . S
C1424 C1423 1.524 . S
C1424 C1425 1.415 . S
C1425 H1395 0.950 . S
C1425 C1420 1.363 . S
C1425 C1424 1.415 . S
H1426 C1423 0.999 . S
H1427 C1408 0.913 . S
H1428 C1446 0.951 . S
H1429 C1448 0.951 . S
H1430 C1450 0.950 . S
H1431 C1451 0.950 . S
H1432 C1453 0.950 . S
H1433 C1456 0.950 . S
H1434 C1457 0.950 . S
H1435 C1459 0.950 . S
H1436 C1460 0.950 . S
H1437 C1461 0.951 . S
H1438 C1463 0.951 . S
H1439 C1465 0.950 . S
H1440 C1466 0.950 . S
H1441 C1468 0.950 . S
H1442 C1471 0.950 . S
H1443 C1472 0.950 . S
H1444 C1474 0.950 . S
H1445 C1475 0.950 . S
C1446 H1428 0.951 . S
C1446 C1447 1.366 . S
C1446 C1448 1.388 . S
C1447 C1446 1.366 . S
C1447 C1451 1.385 . S
C1448 H1429 0.951 . S
C1448 C1446 1.388 . S
C1448 C1449 1.366 . S
C1449 C1448 1.366 . S
C1449 C1450 1.414 . S
C1449 C1452 1.499 . S
C1450 H1430 0.950 . S
C1450 C1449 1.414 . S
C1450 C1451 1.374 . S
C1451 H1431 0.950 . S
C1451 C1447 1.385 . S
C1451 C1450 1.374 . S
C1452 C1449 1.499 . S
C1452 C1453 1.373 . S
C1452 C1454 1.389 1_455 S
C1453 H1432 0.950 . S
C1453 C1452 1.373 . S
C1453 C1469 1.377 . S
C1454 C1452 1.389 1_655 S
C1454 C1455 1.524 . S
C1454 C1468 1.377 . S
C1455 C1454 1.524 . S
C1455 C1456 1.397 . S
C1455 C1460 1.363 . S
C1456 H1433 0.950 . S
C1456 C1455 1.397 . S
C1456 C1457 1.334 . S
C1457 H1434 0.950 . S
C1457 C1456 1.334 . S
C1457 C1458 1.287 . S
C1458 C1457 1.287 . S
C1458 C1459 1.524 . S
C1458 H1477 0.913 . S
C1459 H1435 0.950 . S
C1459 C1458 1.524 . S
C1459 C1460 1.415 . S
C1460 H1436 0.950 . S
C1460 C1455 1.363 . S
C1460 C1459 1.415 . S
C1461 H1437 0.951 . S
C1461 C1462 1.366 1_455 S
C1461 C1463 1.388 . S
C1462 C1461 1.366 1_655 S
C1462 C1466 1.385 . S
C1463 H1438 0.951 . S
C1463 C1461 1.388 . S
C1463 C1464 1.366 . S
C1464 C1463 1.366 . S
C1464 C1465 1.414 1_455 S
C1464 C1467 1.499 . S
C1465 H1439 0.950 . S
C1465 C1464 1.414 1_655 S
C1465 C1466 1.374 . S
C1466 H1440 0.950 . S
C1466 C1462 1.385 . S
C1466 C1465 1.374 . S
C1467 C1464 1.499 . S
C1467 C1468 1.373 1_455 S
C1467 C1469 1.389 . S
C1468 H1441 0.950 . S
C1468 C1454 1.377 . S
C1468 C1467 1.373 1_655 S
C1469 C1453 1.377 . S
C1469 C1467 1.389 . S
C1469 C1470 1.524 . S
C1470 C1469 1.524 . S
C1470 C1471 1.397 . S
C1470 C1475 1.363 . S
C1471 H1442 0.950 . S
C1471 C1470 1.397 . S
C1471 C1472 1.334 . S
C1472 H1443 0.950 . S
C1472 C1471 1.334 . S
C1472 C1473 1.287 . S
C1473 C1472 1.287 . S
C1473 C1474 1.524 . S
C1473 H1476 0.999 . S
C1474 H1444 0.950 . S
C1474 C1473 1.524 . S
C1474 C1475 1.415 . S
C1475 H1445 0.950 . S
C1475 C1470 1.363 . S
C1475 C1474 1.415 . S
H1476 C1473 0.999 . S
H1477 C1458 0.913 . S
H1478 C1496 0.951 . S
H1479 C1498 0.951 . S
H1480 C1500 0.950 . S
H1481 C1501 0.950 . S
H1482 C1503 0.950 . S
H1483 C1506 0.932 1_565 S
H1484 C1507 0.950 . S
H1485 C1509 0.950 . S
H1486 C1510 0.950 1_455 S
H1487 C1511 0.951 . S
H1488 C1513 0.951 . S
H1489 C1515 0.950 . S
H1490 C1516 0.950 . S
H1491 C1518 0.950 . S
H1492 C1521 0.950 1_545 S
H1493 C1522 0.950 . S
H1494 C1524 0.950 . S
H1495 C1525 0.950 . S
C1496 H1478 0.951 . S
C1496 C1497 1.366 1_545 S
C1496 C1498 1.388 . S
C1497 C1496 1.366 1_565 S
C1497 C1501 1.385 . S
C1498 H1479 0.951 . S
C1498 C1496 1.388 . S
C1498 C1499 1.366 . S
C1499 C1498 1.366 . S
C1499 C1500 1.414 1_545 S
C1499 C1502 1.499 . S
C1500 H1480 0.950 . S
C1500 C1499 1.414 1_565 S
C1500 C1501 1.374 . S
C1501 H1481 0.950 . S
C1501 C1497 1.385 . S
C1501 C1500 1.374 . S
C1502 C1499 1.499 . S
C1502 C1503 1.373 1_645 S
C1502 C1504 1.389 1_655 S
C1503 H1482 0.950 . S
C1503 C1502 1.373 1_465 S
C1503 C1519 1.377 . S
C1504 C1502 1.389 1_455 S
C1504 C1505 1.524 1_455 S
C1504 C1518 1.377 . S
C1505 C1504 1.524 1_655 S
C1505 C1506 1.397 . S
C1505 C1510 1.363 . S
C1506 H1483 0.932 1_545 S
C1506 C1505 1.397 . S
C1506 C1507 1.334 . S
C1507 H1484 0.950 . S
C1507 C1506 1.334 . S
C1507 C1508 1.287 . S
C1508 C1507 1.287 . S
C1508 C1509 1.524 . S
C1508 H1527 0.913 . S
C1509 H1485 0.950 . S
C1509 C1508 1.524 . S
C1509 C1510 1.415 . S
C1510 H1486 0.950 1_655 S
C1510 C1505 1.363 . S
C1510 C1509 1.415 . S
C1511 H1487 0.951 . S
C1511 C1512 1.366 1_565 S
C1511 C1513 1.388 . S
C1512 C1511 1.366 1_545 S
C1512 C1516 1.385 . S
C1513 H1488 0.951 . S
C1513 C1511 1.388 . S
C1513 C1514 1.366 1_565 S
C1514 C1513 1.366 1_545 S
C1514 C1515 1.414 . S
C1514 C1517 1.499 . S
C1515 H1489 0.950 . S
C1515 C1514 1.414 . S
C1515 C1516 1.374 . S
C1516 H1490 0.950 . S
C1516 C1512 1.385 . S
C1516 C1515 1.374 . S
C1517 C1514 1.499 . S
C1517 C1518 1.373 . S
C1517 C1519 1.389 1_545 S
C1518 H1491 0.950 . S
C1518 C1504 1.377 . S
C1518 C1517 1.373 . S
C1519 C1503 1.377 . S
C1519 C1517 1.389 1_565 S
C1519 C1520 1.524 . S
C1520 C1519 1.524 . S
C1520 C1521 1.397 . S
C1520 C1525 1.363 . S
C1521 H1492 0.950 1_565 S
C1521 C1520 1.397 . S
C1521 C1522 1.334 . S
C1522 H1493 0.950 . S
C1522 C1521 1.334 . S
C1522 C1523 1.287 . S
C1523 C1522 1.287 . S
C1523 C1524 1.524 . S
C1523 H1526 0.999 . S
C1524 H1494 0.950 . S
C1524 C1523 1.524 . S
C1524 C1525 1.415 . S
C1525 H1495 0.950 . S
C1525 C1520 1.363 . S
C1525 C1524 1.415 . S
H1526 C1523 0.999 . S
H1527 C1508 0.913 . S
H1528 C1546 0.951 . S
H1529 C1548 0.951 . S
H1530 C1550 0.950 . S
H1531 C1551 0.950 . S
H1532 C1553 0.950 . S
H1533 C1556 0.950 . S
H1534 C1557 0.950 . S
H1535 C1559 0.950 . S
H1536 C1560 0.950 . S
H1537 C1561 0.951 . S
H1538 C1563 0.951 . S
H1539 C1565 0.950 . S
H1540 C1566 0.950 . S
H1541 C1568 0.950 . S
H1542 C1571 0.950 . S
H1543 C1572 0.950 . S
H1544 C1574 0.950 . S
H1545 C1575 0.950 . S
C1546 H1528 0.951 . S
C1546 C1547 1.366 . S
C1546 C1548 1.388 . S
C1547 C1546 1.366 . S
C1547 C1551 1.385 . S
C1548 H1529 0.951 . S
C1548 C1546 1.388 . S
C1548 C1549 1.366 . S
C1549 C1548 1.366 . S
C1549 C1550 1.414 . S
C1549 C1552 1.499 . S
C1550 H1530 0.950 . S
C1550 C1549 1.414 . S
C1550 C1551 1.374 . S
C1551 H1531 0.950 . S
C1551 C1547 1.385 . S
C1551 C1550 1.374 . S
C1552 C1549 1.499 . S
C1552 C1553 1.373 . S
C1552 C1554 1.389 . S
C1553 H1532 0.950 . S
C1553 C1552 1.373 . S
C1553 C1569 1.377 . S
C1554 C1552 1.389 . S
C1554 C1555 1.524 . S
C1554 C1568 1.377 . S
C1555 C1554 1.524 . S
C1555 C1556 1.397 . S
C1555 C1560 1.363 . S
C1556 H1533 0.950 . S
C1556 C1555 1.397 . S
C1556 C1557 1.334 . S
C1557 H1534 0.950 . S
C1557 C1556 1.334 . S
C1557 C1558 1.287 . S
C1558 C1557 1.287 . S
C1558 C1559 1.524 . S
C1558 H1577 0.913 . S
C1559 H1535 0.950 . S
C1559 C1558 1.524 . S
C1559 C1560 1.415 . S
C1560 H1536 0.950 . S
C1560 C1555 1.363 . S
C1560 C1559 1.415 . S
C1561 H1537 0.951 . S
C1561 C1562 1.366 . S
C1561 C1563 1.388 . S
C1562 C1561 1.366 . S
C1562 C1566 1.385 . S
C1563 H1538 0.951 . S
C1563 C1561 1.388 . S
C1563 C1564 1.366 . S
C1564 C1563 1.366 . S
C1564 C1565 1.414 . S
C1564 C1567 1.499 . S
C1565 H1539 0.950 . S
C1565 C1564 1.414 . S
C1565 C1566 1.374 . S
C1566 H1540 0.950 . S
C1566 C1562 1.385 . S
C1566 C1565 1.374 . S
C1567 C1564 1.499 . S
C1567 C1568 1.373 . S
C1567 C1569 1.389 . S
C1568 H1541 0.950 . S
C1568 C1554 1.377 . S
C1568 C1567 1.373 . S
C1569 C1553 1.377 . S
C1569 C1567 1.389 . S
C1569 C1570 1.524 . S
C1570 C1569 1.524 . S
C1570 C1571 1.397 . S
C1570 C1575 1.363 . S
C1571 H1542 0.950 . S
C1571 C1570 1.397 . S
C1571 C1572 1.334 . S
C1572 H1543 0.950 . S
C1572 C1571 1.334 . S
C1572 C1573 1.287 . S
C1573 C1572 1.287 . S
C1573 C1574 1.524 . S
C1573 H1576 0.999 . S
C1574 H1544 0.950 . S
C1574 C1573 1.524 . S
C1574 C1575 1.415 . S
C1575 H1545 0.950 . S
C1575 C1570 1.363 . S
C1575 C1574 1.415 . S
H1576 C1573 0.999 . S
H1577 C1558 0.913 . S
H1578 C1596 0.951 . S
H1579 C1598 0.951 . S
H1580 C1600 0.950 . S
H1581 C1601 0.950 . S
H1582 C1603 0.950 . S
H1583 C1606 0.950 . S
H1584 C1607 0.950 . S
H1585 C1609 0.950 . S
H1586 C1610 0.950 . S
H1587 C1611 0.951 . S
H1588 C1613 0.951 . S
H1589 C1615 0.950 . S
H1590 C1616 0.950 . S
H1591 C1618 0.950 . S
H1592 C1621 0.950 . S
H1593 C1622 0.950 . S
H1594 C1624 0.950 . S
H1595 C1625 0.950 1_455 S
C1596 H1578 0.951 . S
C1596 C1597 1.366 . S
C1596 C1598 1.388 . S
C1597 C1596 1.366 . S
C1597 C1601 1.385 . S
C1598 H1579 0.951 . S
C1598 C1596 1.388 . S
C1598 C1599 1.366 . S
C1599 C1598 1.366 . S
C1599 C1600 1.414 . S
C1599 C1602 1.499 . S
C1600 H1580 0.950 . S
C1600 C1599 1.414 . S
C1600 C1601 1.374 . S
C1601 H1581 0.950 . S
C1601 C1597 1.385 . S
C1601 C1600 1.374 . S
C1602 C1599 1.499 . S
C1602 C1603 1.373 . S
C1602 C1604 1.389 . S
C1603 H1582 0.950 . S
C1603 C1602 1.373 . S
C1603 C1619 1.377 . S
C1604 C1602 1.389 . S
C1604 C1605 1.524 . S
C1604 C1618 1.377 . S
C1605 C1604 1.524 . S
C1605 C1606 1.397 . S
C1605 C1610 1.363 . S
C1606 H1583 0.950 . S
C1606 C1605 1.397 . S
C1606 C1607 1.334 . S
C1607 H1584 0.950 . S
C1607 C1606 1.334 . S
C1607 C1608 1.287 . S
C1608 C1607 1.287 . S
C1608 C1609 1.524 . S
C1608 H1627 0.913 . S
C1609 H1585 0.950 . S
C1609 C1608 1.524 . S
C1609 C1610 1.415 . S
C1610 H1586 0.950 . S
C1610 C1605 1.363 . S
C1610 C1609 1.415 . S
C1611 H1587 0.951 . S
C1611 C1612 1.366 . S
C1611 C1613 1.388 . S
C1612 C1611 1.366 . S
C1612 C1616 1.385 . S
C1613 H1588 0.951 . S
C1613 C1611 1.388 . S
C1613 C1614 1.366 . S
C1614 C1613 1.366 . S
C1614 C1615 1.414 . S
C1614 C1617 1.499 . S
C1615 H1589 0.950 . S
C1615 C1614 1.414 . S
C1615 C1616 1.374 . S
C1616 H1590 0.950 . S
C1616 C1612 1.385 . S
C1616 C1615 1.374 . S
C1617 C1614 1.499 . S
C1617 C1618 1.373 1_655 S
C1617 C1619 1.389 1_655 S
C1618 H1591 0.950 . S
C1618 C1604 1.377 . S
C1618 C1617 1.373 1_455 S
C1619 C1603 1.377 . S
C1619 C1617 1.389 1_455 S
C1619 C1620 1.524 1_455 S
C1620 C1619 1.524 1_655 S
C1620 C1621 1.397 . S
C1620 C1625 1.363 . S
C1621 H1592 0.950 . S
C1621 C1620 1.397 . S
C1621 C1622 1.334 . S
C1622 H1593 0.950 . S
C1622 C1621 1.334 . S
C1622 C1623 1.287 . S
C1623 C1622 1.287 . S
C1623 C1624 1.524 . S
C1623 H1626 0.999 . S
C1624 H1594 0.950 . S
C1624 C1623 1.524 . S
C1624 C1625 1.415 . S
C1625 H1595 0.950 1_655 S
C1625 C1620 1.363 . S
C1625 C1624 1.415 . S
H1626 C1623 0.999 . S
H1627 C1608 0.913 . S
H1628 C1646 0.951 . S
H1629 C1648 0.951 . S
H1630 C1650 0.950 . S
H1631 C1651 0.950 . S
H1632 C1653 0.950 1_565 S
H1633 C1656 0.950 1_455 S
H1634 C1657 0.950 . S
H1635 C1659 0.950 . S
H1636 C1660 0.950 . S
H1637 C1661 0.951 . S
H1638 C1663 0.951 . S
H1639 C1665 0.950 . S
H1640 C1666 0.950 . S
H1641 C1668 0.950 . S
H1642 C1671 0.950 . S
H1643 C1672 0.950 . S
H1644 C1674 0.950 . S
H1645 C1675 0.950 . S
C1646 H1628 0.951 . S
C1646 C1647 1.366 . S
C1646 C1648 1.388 . S
C1647 C1646 1.366 . S
C1647 C1651 1.385 1_655 S
C1648 H1629 0.951 . S
C1648 C1646 1.388 . S
C1648 C1649 1.366 1_655 S
C1649 C1648 1.366 1_455 S
C1649 C1650 1.414 . S
C1649 C1652 1.499 . S
C1650 H1630 0.950 . S
C1650 C1649 1.414 . S
C1650 C1651 1.374 . S
C1651 H1631 0.950 . S
C1651 C1647 1.385 1_455 S
C1651 C1650 1.374 . S
C1652 C1649 1.499 . S
C1652 C1653 1.373 1_565 S
C1652 C1654 1.389 1_465 S
C1653 H1632 0.950 1_545 S
C1653 C1652 1.373 1_545 S
C1653 C1669 1.377 . S
C1654 C1652 1.389 1_645 S
C1654 C1655 1.524 . S
C1654 C1668 1.377 . S
C1655 C1654 1.524 . S
C1655 C1656 1.397 1_545 S
C1655 C1660 1.363 . S
C1656 H1633 0.950 1_655 S
C1656 C1655 1.397 1_565 S
C1656 C1657 1.334 . S
C1657 H1634 0.950 . S
C1657 C1656 1.334 . S
C1657 C1658 1.287 . S
C1658 C1657 1.287 . S
C1658 C1659 1.524 1_565 S
C1658 H1677 0.913 . S
C1659 H1635 0.950 . S
C1659 C1658 1.524 1_545 S
C1659 C1660 1.415 . S
C1660 H1636 0.950 . S
C1660 C1655 1.363 . S
C1660 C1659 1.415 . S
C1661 H1637 0.951 . S
C1661 C1662 1.366 . S
C1661 C1663 1.388 . S
C1662 C1661 1.366 . S
C1662 C1666 1.385 1_455 S
C1663 H1638 0.951 . S
C1663 C1661 1.388 . S
C1663 C1664 1.366 . S
C1664 C1663 1.366 . S
C1664 C1665 1.414 1_455 S
C1664 C1667 1.499 . S
C1665 H1639 0.950 . S
C1665 C1664 1.414 1_655 S
C1665 C1666 1.374 . S
C1666 H1640 0.950 . S
C1666 C1662 1.385 1_655 S
C1666 C1665 1.374 . S
C1667 C1664 1.499 . S
C1667 C1668 1.373 1_455 S
C1667 C1669 1.389 . S
C1668 H1641 0.950 . S
C1668 C1654 1.377 . S
C1668 C1667 1.373 1_655 S
C1669 C1653 1.377 . S
C1669 C1667 1.389 . S
C1669 C1670 1.524 . S
C1670 C1669 1.524 . S
C1670 C1671 1.397 . S
C1670 C1675 1.363 . S
C1671 H1642 0.950 . S
C1671 C1670 1.397 . S
C1671 C1672 1.334 . S
C1672 H1643 0.950 . S
C1672 C1671 1.334 . S
C1672 C1673 1.287 . S
C1673 C1672 1.287 . S
C1673 C1674 1.524 . S
C1673 H1676 0.999 . S
C1674 H1644 0.950 . S
C1674 C1673 1.524 . S
C1674 C1675 1.415 . S
C1675 H1645 0.950 . S
C1675 C1670 1.363 . S
C1675 C1674 1.415 . S
H1676 C1673 0.999 . S
H1677 C1658 0.913 . S
H1678 C1696 0.935 1_565 S
H1679 C1698 0.951 . S
H1680 C1700 0.950 . S
H1681 C1701 0.950 . S
H1682 C1703 0.950 . S
H1683 C1706 0.950 . S
H1684 C1707 0.950 . S
H1685 C1709 0.950 . S
H1686 C1710 0.950 . S
H1687 C1711 0.951 . S
H1688 C1713 0.951 . S
H1689 C1715 0.950 . S
H1690 C1716 0.950 . S
H1691 C1718 0.950 . S
H1692 C1721 0.950 . S
H1693 C1722 0.950 . S
H1694 C1724 0.950 . S
H1695 C1725 0.950 . S
C1696 H1678 0.935 1_545 S
C1696 C1697 1.385 . S
C1696 C1698 1.385 1_545 S
C1697 C1696 1.385 . S
C1697 C1701 1.385 . S
C1698 H1679 0.951 . S
C1698 C1696 1.385 1_565 S
C1698 C1699 1.366 1_565 S
C1699 C1698 1.366 1_545 S
C1699 C1700 1.414 . S
C1699 C1702 1.499 . S
C1700 H1680 0.950 . S
C1700 C1699 1.414 . S
C1700 C1701 1.374 . S
C1701 H1681 0.950 . S
C1701 C1697 1.385 . S
C1701 C1700 1.374 . S
C1702 C1699 1.499 . S
C1702 C1703 1.373 . S
C1702 C1704 1.389 1_545 S
C1703 H1682 0.950 . S
C1703 C1702 1.373 . S
C1703 C1719 1.377 . S
C1704 C1702 1.389 1_565 S
C1704 C1705 1.524 . S
C1704 C1718 1.377 . S
C1705 C1704 1.524 . S
C1705 C1706 1.397 . S
C1705 C1710 1.363 . S
C1706 H1683 0.950 . S
C1706 C1705 1.397 . S
C1706 C1707 1.334 . S
C1707 H1684 0.950 . S
C1707 C1706 1.334 . S
C1707 C1708 1.287 . S
C1708 C1707 1.287 . S
C1708 C1709 1.524 . S
C1708 H1727 0.913 . S
C1709 H1685 0.950 . S
C1709 C1708 1.524 . S
C1709 C1710 1.415 . S
C1710 H1686 0.950 . S
C1710 C1705 1.363 . S
C1710 C1709 1.415 . S
C1711 H1687 0.951 . S
C1711 C1712 1.366 1_545 S
C1711 C1713 1.388 . S
C1712 C1711 1.366 1_565 S
C1712 C1716 1.385 . S
C1713 H1688 0.951 . S
C1713 C1711 1.388 . S
C1713 C1714 1.366 . S
C1714 C1713 1.366 . S
C1714 C1715 1.414 1_545 S
C1714 C1717 1.499 . S
C1715 H1689 0.950 . S
C1715 C1714 1.414 1_565 S
C1715 C1716 1.374 . S
C1716 H1690 0.950 . S
C1716 C1712 1.385 . S
C1716 C1715 1.374 . S
C1717 C1714 1.499 . S
C1717 C1718 1.373 1_545 S
C1717 C1719 1.389 . S
C1718 H1691 0.950 . S
C1718 C1704 1.377 . S
C1718 C1717 1.373 1_565 S
C1719 C1703 1.377 . S
C1719 C1717 1.389 . S
C1719 C1720 1.524 . S
C1720 C1719 1.524 . S
C1720 C1721 1.397 . S
C1720 C1725 1.363 . S
C1721 H1692 0.950 . S
C1721 C1720 1.397 . S
C1721 C1722 1.334 . S
C1722 H1693 0.950 . S
C1722 C1721 1.334 . S
C1722 C1723 1.287 . S
C1723 C1722 1.287 . S
C1723 C1724 1.524 . S
C1723 H1726 0.999 . S
C1724 H1694 0.950 . S
C1724 C1723 1.524 . S
C1724 C1725 1.415 . S
C1725 H1695 0.950 . S
C1725 C1720 1.363 . S
C1725 C1724 1.415 . S
H1726 C1723 0.999 . S
H1727 C1708 0.913 . S
H1728 C1746 0.951 . S
H1729 C1748 0.951 . S
H1730 C1750 0.950 . S
H1731 C1751 0.950 . S
H1732 C1753 0.950 . S
H1733 C1756 0.950 . S
H1734 C1757 0.950 . S
H1735 C1759 0.950 . S
H1736 C1760 0.950 . S
H1737 C1761 0.951 . S
H1738 C1763 0.951 . S
H1739 C1765 0.950 . S
H1740 C1766 0.950 . S
H1741 C1768 0.950 . S
H1742 C1771 0.950 . S
H1743 C1772 0.950 . S
H1744 C1774 0.950 . S
H1745 C1775 0.950 . S
C1746 H1728 0.951 . S
C1746 C1747 1.366 . S
C1746 C1748 1.388 . S
C1747 C1746 1.366 . S
C1747 C1751 1.385 . S
C1748 H1729 0.951 . S
C1748 C1746 1.388 . S
C1748 C1749 1.366 . S
C1749 C1748 1.366 . S
C1749 C1750 1.414 . S
C1749 C1752 1.499 . S
C1750 H1730 0.950 . S
C1750 C1749 1.414 . S
C1750 C1751 1.374 . S
C1751 H1731 0.950 . S
C1751 C1747 1.385 . S
C1751 C1750 1.374 . S
C1752 C1749 1.499 . S
C1752 C1753 1.373 . S
C1752 C1754 1.389 . S
C1753 H1732 0.950 . S
C1753 C1752 1.373 . S
C1753 C1769 1.377 . S
C1754 C1752 1.389 . S
C1754 C1755 1.524 . S
C1754 C1768 1.377 . S
C1755 C1754 1.524 . S
C1755 C1756 1.397 . S
C1755 C1760 1.363 . S
C1756 H1733 0.950 . S
C1756 C1755 1.397 . S
C1756 C1757 1.334 . S
C1757 H1734 0.950 . S
C1757 C1756 1.334 . S
C1757 C1758 1.287 . S
C1758 C1757 1.287 . S
C1758 C1759 1.524 . S
C1758 H1777 0.913 . S
C1759 H1735 0.950 . S
C1759 C1758 1.524 . S
C1759 C1760 1.415 . S
C1760 H1736 0.950 . S
C1760 C1755 1.363 . S
C1760 C1759 1.415 . S
C1761 H1737 0.951 . S
C1761 C1762 1.366 . S
C1761 C1763 1.388 . S
C1762 C1761 1.366 . S
C1762 C1766 1.385 . S
C1763 H1738 0.951 . S
C1763 C1761 1.388 . S
C1763 C1764 1.366 . S
C1764 C1763 1.366 . S
C1764 C1765 1.414 . S
C1764 C1767 1.499 . S
C1765 H1739 0.950 . S
C1765 C1764 1.414 . S
C1765 C1766 1.374 . S
C1766 H1740 0.950 . S
C1766 C1762 1.385 . S
C1766 C1765 1.374 . S
C1767 C1764 1.499 . S
C1767 C1768 1.373 . S
C1767 C1769 1.389 . S
C1768 H1741 0.950 . S
C1768 C1754 1.377 . S
C1768 C1767 1.373 . S
C1769 C1753 1.377 . S
C1769 C1767 1.389 . S
C1769 C1770 1.524 . S
C1770 C1769 1.524 . S
C1770 C1771 1.397 . S
C1770 C1775 1.363 . S
C1771 H1742 0.950 . S
C1771 C1770 1.397 . S
C1771 C1772 1.334 . S
C1772 H1743 0.950 . S
C1772 C1771 1.334 . S
C1772 C1773 1.287 . S
C1773 C1772 1.287 . S
C1773 C1774 1.524 . S
C1773 H1776 0.999 . S
C1774 H1744 0.950 . S
C1774 C1773 1.524 . S
C1774 C1775 1.415 . S
C1775 H1745 0.950 . S
C1775 C1770 1.363 . S
C1775 C1774 1.415 . S
H1776 C1773 0.999 . S
H1777 C1758 0.913 . S
H1778 C1796 0.951 . S
H1779 C1798 0.951 . S
H1780 C1800 0.950 . S
H1781 C1801 0.950 . S
H1782 C1803 0.950 . S
H1783 C1806 0.950 . S
H1784 C1807 0.950 . S
H1785 C1809 0.950 . S
H1786 C1810 0.950 . S
H1787 C1811 0.951 . S
H1788 C1813 0.951 . S
H1789 C1815 0.950 . S
H1790 C1816 0.950 . S
H1791 C1818 0.950 . S
H1792 C1821 0.950 . S
H1793 C1822 0.950 . S
H1794 C1824 0.950 . S
H1795 C1825 0.950 . S
C1796 H1778 0.951 . S
C1796 C1797 1.366 . S
C1796 C1798 1.388 . S
C1797 C1796 1.366 . S
C1797 C1801 1.385 . S
C1798 H1779 0.951 . S
C1798 C1796 1.388 . S
C1798 C1799 1.366 . S
C1799 C1798 1.366 . S
C1799 C1800 1.414 . S
C1799 C1802 1.499 . S
C1800 H1780 0.950 . S
C1800 C1799 1.414 . S
C1800 C1801 1.374 . S
C1801 H1781 0.950 . S
C1801 C1797 1.385 . S
C1801 C1800 1.374 . S
C1802 C1799 1.499 . S
C1802 C1803 1.373 . S
C1802 C1804 1.389 . S
C1803 H1782 0.950 . S
C1803 C1802 1.373 . S
C1803 C1819 1.377 . S
C1804 C1802 1.389 . S
C1804 C1805 1.524 . S
C1804 C1818 1.377 . S
C1805 C1804 1.524 . S
C1805 C1806 1.397 . S
C1805 C1810 1.363 . S
C1806 H1783 0.950 . S
C1806 C1805 1.397 . S
C1806 C1807 1.334 . S
C1807 H1784 0.950 . S
C1807 C1806 1.334 . S
C1807 C1808 1.287 . S
C1808 C1807 1.287 . S
C1808 C1809 1.524 . S
C1808 H1827 0.913 . S
C1809 H1785 0.950 . S
C1809 C1808 1.524 . S
C1809 C1810 1.415 . S
C1810 H1786 0.950 . S
C1810 C1805 1.363 . S
C1810 C1809 1.415 . S
C1811 H1787 0.951 . S
C1811 C1812 1.366 . S
C1811 C1813 1.388 . S
C1812 C1811 1.366 . S
C1812 C1816 1.385 . S
C1813 H1788 0.951 . S
C1813 C1811 1.388 . S
C1813 C1814 1.366 . S
C1814 C1813 1.366 . S
C1814 C1815 1.414 . S
C1814 C1817 1.499 . S
C1815 H1789 0.950 . S
C1815 C1814 1.414 . S
C1815 C1816 1.374 . S
C1816 H1790 0.950 . S
C1816 C1812 1.385 . S
C1816 C1815 1.374 . S
C1817 C1814 1.499 . S
C1817 C1818 1.373 . S
C1817 C1819 1.389 . S
C1818 H1791 0.950 . S
C1818 C1804 1.377 . S
C1818 C1817 1.373 . S
C1819 C1803 1.377 . S
C1819 C1817 1.389 . S
C1819 C1820 1.524 . S
C1820 C1819 1.524 . S
C1820 C1821 1.397 . S
C1820 C1825 1.363 . S
C1821 H1792 0.950 . S
C1821 C1820 1.397 . S
C1821 C1822 1.334 . S
C1822 H1793 0.950 . S
C1822 C1821 1.334 . S
C1822 C1823 1.287 . S
C1823 C1822 1.287 . S
C1823 C1824 1.524 . S
C1823 H1826 0.999 . S
C1824 H1794 0.950 . S
C1824 C1823 1.524 . S
C1824 C1825 1.415 . S
C1825 H1795 0.950 . S
C1825 C1820 1.363 . S
C1825 C1824 1.415 . S
H1826 C1823 0.999 . S
H1827 C1808 0.913 . S
H1828 C1846 0.951 . S
H1829 C1848 0.951 . S
H1830 C1850 0.950 . S
H1831 C1851 0.950 . S
H1832 C1853 0.950 . S
H1833 C1856 0.950 . S
H1834 C1857 0.950 . S
H1835 C1859 0.950 . S
H1836 C1860 0.950 . S
H1837 C1861 0.951 . S
H1838 C1863 0.951 . S
H1839 C1865 0.950 . S
H1840 C1866 0.950 . S
H1841 C1868 0.950 . S
H1842 C1871 0.950 . S
H1843 C1872 0.950 . S
H1844 C1874 0.950 . S
H1845 C1875 0.950 . S
C1846 H1828 0.951 . S
C1846 C1847 1.366 . S
C1846 C1848 1.388 . S
C1847 C1846 1.366 . S
C1847 C1851 1.385 . S
C1848 H1829 0.951 . S
C1848 C1846 1.388 . S
C1848 C1849 1.366 . S
C1849 C1848 1.366 . S
C1849 C1850 1.414 . S
C1849 C1852 1.499 . S
C1850 H1830 0.950 . S
C1850 C1849 1.414 . S
C1850 C1851 1.374 . S
C1851 H1831 0.950 . S
C1851 C1847 1.385 . S
C1851 C1850 1.374 . S
C1852 C1849 1.499 . S
C1852 C1853 1.373 . S
C1852 C1854 1.389 . S
C1853 H1832 0.950 . S
C1853 C1852 1.373 . S
C1853 C1869 1.377 . S
C1854 C1852 1.389 . S
C1854 C1855 1.524 . S
C1854 C1868 1.377 . S
C1855 C1854 1.524 . S
C1855 C1856 1.397 . S
C1855 C1860 1.363 . S
C1856 H1833 0.950 . S
C1856 C1855 1.397 . S
C1856 C1857 1.334 . S
C1857 H1834 0.950 . S
C1857 C1856 1.334 . S
C1857 C1858 1.287 . S
C1858 C1857 1.287 . S
C1858 C1859 1.524 . S
C1858 H1877 0.913 . S
C1859 H1835 0.950 . S
C1859 C1858 1.524 . S
C1859 C1860 1.415 . S
C1860 H1836 0.950 . S
C1860 C1855 1.363 . S
C1860 C1859 1.415 . S
C1861 H1837 0.951 . S
C1861 C1862 1.366 . S
C1861 C1863 1.388 . S
C1862 C1861 1.366 . S
C1862 C1866 1.385 . S
C1863 H1838 0.951 . S
C1863 C1861 1.388 . S
C1863 C1864 1.366 . S
C1864 C1863 1.366 . S
C1864 C1865 1.414 . S
C1864 C1867 1.499 . S
C1865 H1839 0.950 . S
C1865 C1864 1.414 . S
C1865 C1866 1.374 . S
C1866 H1840 0.950 . S
C1866 C1862 1.385 . S
C1866 C1865 1.374 . S
C1867 C1864 1.499 . S
C1867 C1868 1.373 . S
C1867 C1869 1.389 . S
C1868 H1841 0.950 . S
C1868 C1854 1.377 . S
C1868 C1867 1.373 . S
C1869 C1853 1.377 . S
C1869 C1867 1.389 . S
C1869 C1870 1.524 . S
C1870 C1869 1.524 . S
C1870 C1871 1.397 . S
C1870 C1875 1.363 . S
C1871 H1842 0.950 . S
C1871 C1870 1.397 . S
C1871 C1872 1.334 . S
C1872 H1843 0.950 . S
C1872 C1871 1.334 . S
C1872 C1873 1.287 . S
C1873 C1872 1.287 . S
C1873 C1874 1.524 . S
C1873 H1876 0.999 . S
C1874 H1844 0.950 . S
C1874 C1873 1.524 . S
C1874 C1875 1.415 . S
C1875 H1845 0.950 . S
C1875 C1870 1.363 . S
C1875 C1874 1.415 . S
H1876 C1873 0.999 . S
H1877 C1858 0.913 . S
H1878 C1896 0.951 . S
H1879 C1898 0.951 . S
H1880 C1900 0.950 . S
H1881 C1901 0.950 . S
H1882 C1903 0.950 . S
H1883 C1906 0.950 . S
H1884 C1907 0.950 . S
H1885 C1909 0.950 . S
H1886 C1910 0.950 . S
H1887 C1911 0.951 . S
H1888 C1913 0.951 . S
H1889 C1915 0.950 . S
H1890 C1916 0.950 . S
H1891 C1918 0.950 . S
H1892 C1921 0.950 . S
H1893 C1922 0.950 . S
H1894 C1924 0.950 . S
H1895 C1925 0.950 . S
C1896 H1878 0.951 . S
C1896 C1897 1.366 . S
C1896 C1898 1.388 . S
C1897 C1896 1.366 . S
C1897 C1901 1.385 . S
C1898 H1879 0.951 . S
C1898 C1896 1.388 . S
C1898 C1899 1.366 . S
C1899 C1898 1.366 . S
C1899 C1900 1.414 . S
C1899 C1902 1.499 . S
C1900 H1880 0.950 . S
C1900 C1899 1.414 . S
C1900 C1901 1.374 . S
C1901 H1881 0.950 . S
C1901 C1897 1.385 . S
C1901 C1900 1.374 . S
C1902 C1899 1.499 . S
C1902 C1903 1.373 . S
C1902 C1904 1.389 . S
C1903 H1882 0.950 . S
C1903 C1902 1.373 . S
C1903 C1919 1.377 . S
C1904 C1902 1.389 . S
C1904 C1905 1.524 . S
C1904 C1918 1.377 . S
C1905 C1904 1.524 . S
C1905 C1906 1.397 . S
C1905 C1910 1.363 . S
C1906 H1883 0.950 . S
C1906 C1905 1.397 . S
C1906 C1907 1.334 . S
C1907 H1884 0.950 . S
C1907 C1906 1.334 . S
C1907 C1908 1.287 . S
C1908 C1907 1.287 . S
C1908 C1909 1.524 . S
C1908 H1927 0.913 . S
C1909 H1885 0.950 . S
C1909 C1908 1.524 . S
C1909 C1910 1.415 . S
C1910 H1886 0.950 . S
C1910 C1905 1.363 . S
C1910 C1909 1.415 . S
C1911 H1887 0.951 . S
C1911 C1912 1.366 . S
C1911 C1913 1.388 . S
C1912 C1911 1.366 . S
C1912 C1916 1.385 . S
C1913 H1888 0.951 . S
C1913 C1911 1.388 . S
C1913 C1914 1.366 . S
C1914 C1913 1.366 . S
C1914 C1915 1.414 . S
C1914 C1917 1.499 . S
C1915 H1889 0.950 . S
C1915 C1914 1.414 . S
C1915 C1916 1.374 . S
C1916 H1890 0.950 . S
C1916 C1912 1.385 . S
C1916 C1915 1.374 . S
C1917 C1914 1.499 . S
C1917 C1918 1.373 . S
C1917 C1919 1.389 . S
C1918 H1891 0.950 . S
C1918 C1904 1.377 . S
C1918 C1917 1.373 . S
C1919 C1903 1.377 . S
C1919 C1917 1.389 . S
C1919 C1920 1.524 . S
C1920 C1919 1.524 . S
C1920 C1921 1.397 . S
C1920 C1925 1.363 . S
C1921 H1892 0.950 . S
C1921 C1920 1.397 . S
C1921 C1922 1.334 . S
C1922 H1893 0.950 . S
C1922 C1921 1.334 . S
C1922 C1923 1.287 . S
C1923 C1922 1.287 . S
C1923 C1924 1.524 . S
C1923 H1926 0.999 . S
C1924 H1894 0.950 . S
C1924 C1923 1.524 . S
C1924 C1925 1.415 . S
C1925 H1895 0.950 . S
C1925 C1920 1.363 . S
C1925 C1924 1.415 . S
H1926 C1923 0.999 . S
H1927 C1908 0.913 . S
H1928 C1946 0.951 . S
H1929 C1948 0.951 . S
H1930 C1950 0.950 . S
H1931 C1951 0.950 . S
H1932 C1953 0.950 . S
H1933 C1956 0.950 . S
H1934 C1957 0.950 . S
H1935 C1959 0.950 . S
H1936 C1960 0.950 . S
H1937 C1961 0.951 . S
H1938 C1963 0.951 . S
H1939 C1965 0.950 . S
H1940 C1966 0.950 . S
H1941 C1968 0.950 . S
H1942 C1971 0.950 . S
H1943 C1972 0.950 . S
H1944 C1974 0.950 . S
H1945 C1975 0.950 . S
C1946 H1928 0.951 . S
C1946 C1947 1.366 . S
C1946 C1948 1.388 . S
C1947 C1946 1.366 . S
C1947 C1951 1.385 . S
C1948 H1929 0.951 . S
C1948 C1946 1.388 . S
C1948 C1949 1.366 . S
C1949 C1948 1.366 . S
C1949 C1950 1.414 . S
C1949 C1952 1.499 . S
C1950 H1930 0.950 . S
C1950 C1949 1.414 . S
C1950 C1951 1.374 . S
C1951 H1931 0.950 . S
C1951 C1947 1.385 . S
C1951 C1950 1.374 . S
C1952 C1949 1.499 . S
C1952 C1953 1.373 . S
C1952 C1954 1.389 . S
C1953 H1932 0.950 . S
C1953 C1952 1.373 . S
C1953 C1969 1.377 . S
C1954 C1952 1.389 . S
C1954 C1955 1.524 . S
C1954 C1968 1.377 . S
C1955 C1954 1.524 . S
C1955 C1956 1.397 . S
C1955 C1960 1.363 . S
C1956 H1933 0.950 . S
C1956 C1955 1.397 . S
C1956 C1957 1.334 . S
C1957 H1934 0.950 . S
C1957 C1956 1.334 . S
C1957 C1958 1.287 . S
C1958 C1957 1.287 . S
C1958 C1959 1.524 . S
C1958 H1977 0.913 . S
C1959 H1935 0.950 . S
C1959 C1958 1.524 . S
C1959 C1960 1.415 . S
C1960 H1936 0.950 . S
C1960 C1955 1.363 . S
C1960 C1959 1.415 . S
C1961 H1937 0.951 . S
C1961 C1962 1.366 . S
C1961 C1963 1.388 . S
C1962 C1961 1.366 . S
C1962 C1966 1.385 . S
C1963 H1938 0.951 . S
C1963 C1961 1.388 . S
C1963 C1964 1.366 . S
C1964 C1963 1.366 . S
C1964 C1965 1.414 . S
C1964 C1967 1.499 . S
C1965 H1939 0.950 . S
C1965 C1964 1.414 . S
C1965 C1966 1.374 . S
C1966 H1940 0.950 . S
C1966 C1962 1.385 . S
C1966 C1965 1.374 . S
C1967 C1964 1.499 . S
C1967 C1968 1.373 . S
C1967 C1969 1.389 . S
C1968 H1941 0.950 . S
C1968 C1954 1.377 . S
C1968 C1967 1.373 . S
C1969 C1953 1.377 . S
C1969 C1967 1.389 . S
C1969 C1970 1.524 . S
C1970 C1969 1.524 . S
C1970 C1971 1.397 . S
C1970 C1975 1.363 . S
C1971 H1942 0.950 . S
C1971 C1970 1.397 . S
C1971 C1972 1.334 . S
C1972 H1943 0.950 . S
C1972 C1971 1.334 . S
C1972 C1973 1.287 . S
C1973 C1972 1.287 . S
C1973 C1974 1.524 . S
C1973 H1976 0.999 . S
C1974 H1944 0.950 . S
C1974 C1973 1.524 . S
C1974 C1975 1.415 . S
C1975 H1945 0.950 . S
C1975 C1970 1.363 . S
C1975 C1974 1.415 . S
H1976 C1973 0.999 . S
H1977 C1958 0.913 . S
H1978 C1996 0.951 . S
H1979 C1998 0.951 . S
H1980 C2000 0.950 . S
H1981 C2001 0.950 . S
H1982 C2003 0.950 . S
H1983 C2006 0.950 . S
H1984 C2007 0.950 . S
H1985 C2009 0.950 . S
H1986 C2010 0.950 . S
H1987 C2011 0.951 . S
H1988 C2013 0.951 . S
H1989 C2015 0.950 . S
H1990 C2016 0.950 . S
H1991 C2018 0.950 . S
H1992 C2021 0.950 . S
H1993 C2022 0.950 . S
H1994 C2024 0.950 . S
H1995 C2025 0.950 . S
C1996 H1978 0.951 . S
C1996 C1997 1.366 . S
C1996 C1998 1.388 . S
C1997 C1996 1.366 . S
C1997 C2001 1.385 . S
C1998 H1979 0.951 . S
C1998 C1996 1.388 . S
C1998 C1999 1.366 . S
C1999 C1998 1.366 . S
C1999 C2000 1.414 . S
C1999 C2002 1.499 . S
C2000 H1980 0.950 . S
C2000 C1999 1.414 . S
C2000 C2001 1.374 . S
C2001 H1981 0.950 . S
C2001 C1997 1.385 . S
C2001 C2000 1.374 . S
C2002 C1999 1.499 . S
C2002 C2003 1.373 . S
C2002 C2004 1.389 . S
C2003 H1982 0.950 . S
C2003 C2002 1.373 . S
C2003 C2019 1.377 . S
C2004 C2002 1.389 . S
C2004 C2005 1.524 . S
C2004 C2018 1.377 . S
C2005 C2004 1.524 . S
C2005 C2006 1.397 . S
C2005 C2010 1.363 . S
C2006 H1983 0.950 . S
C2006 C2005 1.397 . S
C2006 C2007 1.334 . S
C2007 H1984 0.950 . S
C2007 C2006 1.334 . S
C2007 C2008 1.287 . S
C2008 C2007 1.287 . S
C2008 C2009 1.524 . S
C2008 H2027 0.913 . S
C2009 H1985 0.950 . S
C2009 C2008 1.524 . S
C2009 C2010 1.415 . S
C2010 H1986 0.950 . S
C2010 C2005 1.363 . S
C2010 C2009 1.415 . S
C2011 H1987 0.951 . S
C2011 C2012 1.366 . S
C2011 C2013 1.388 . S
C2012 C2011 1.366 . S
C2012 C2016 1.385 . S
C2013 H1988 0.951 . S
C2013 C2011 1.388 . S
C2013 C2014 1.366 . S
C2014 C2013 1.366 . S
C2014 C2015 1.414 . S
C2014 C2017 1.499 . S
C2015 H1989 0.950 . S
C2015 C2014 1.414 . S
C2015 C2016 1.374 . S
C2016 H1990 0.950 . S
C2016 C2012 1.385 . S
C2016 C2015 1.374 . S
C2017 C2014 1.499 . S
C2017 C2018 1.373 . S
C2017 C2019 1.389 . S
C2018 H1991 0.950 . S
C2018 C2004 1.377 . S
C2018 C2017 1.373 . S
C2019 C2003 1.377 . S
C2019 C2017 1.389 . S
C2019 C2020 1.524 . S
C2020 C2019 1.524 . S
C2020 C2021 1.397 . S
C2020 C2025 1.363 . S
C2021 H1992 0.950 . S
C2021 C2020 1.397 . S
C2021 C2022 1.334 . S
C2022 H1993 0.950 . S
C2022 C2021 1.334 . S
C2022 C2023 1.287 . S
C2023 C2022 1.287 . S
C2023 C2024 1.524 . S
C2023 H2026 0.999 . S
C2024 H1994 0.950 . S
C2024 C2023 1.524 . S
C2024 C2025 1.415 . S
C2025 H1995 0.950 . S
C2025 C2020 1.363 . S
C2025 C2024 1.415 . S
H2026 C2023 0.999 . S
H2027 C2008 0.913 . S
H2028 C2046 0.951 . S
H2029 C2048 0.951 . S
H2030 C2050 0.950 . S
H2031 C2051 0.950 . S
H2032 C2053 0.950 . S
H2033 C2056 0.950 . S
H2034 C2057 0.950 . S
H2035 C2059 0.950 . S
H2036 C2060 0.950 . S
H2037 C2061 0.951 . S
H2038 C2063 0.951 . S
H2039 C2065 0.950 . S
H2040 C2066 0.950 . S
H2041 C2068 0.950 . S
H2042 C2071 0.950 . S
H2043 C2072 0.950 . S
H2044 C2074 0.950 . S
H2045 C2075 0.950 . S
C2046 H2028 0.951 . S
C2046 C2047 1.366 . S
C2046 C2048 1.388 . S
C2047 C2046 1.366 . S
C2047 C2051 1.385 . S
C2048 H2029 0.951 . S
C2048 C2046 1.388 . S
C2048 C2049 1.366 . S
C2049 C2048 1.366 . S
C2049 C2050 1.414 . S
C2049 C2052 1.499 . S
C2050 H2030 0.950 . S
C2050 C2049 1.414 . S
C2050 C2051 1.374 . S
C2051 H2031 0.950 . S
C2051 C2047 1.385 . S
C2051 C2050 1.374 . S
C2052 C2049 1.499 . S
C2052 C2053 1.373 . S
C2052 C2054 1.389 . S
C2053 H2032 0.950 . S
C2053 C2052 1.373 . S
C2053 C2069 1.377 . S
C2054 C2052 1.389 . S
C2054 C2055 1.524 . S
C2054 C2068 1.377 . S
C2055 C2054 1.524 . S
C2055 C2056 1.397 . S
C2055 C2060 1.363 . S
C2056 H2033 0.950 . S
C2056 C2055 1.397 . S
C2056 C2057 1.334 . S
C2057 H2034 0.950 . S
C2057 C2056 1.334 . S
C2057 C2058 1.287 . S
C2058 C2057 1.287 . S
C2058 C2059 1.524 . S
C2058 H2077 0.913 . S
C2059 H2035 0.950 . S
C2059 C2058 1.524 . S
C2059 C2060 1.415 . S
C2060 H2036 0.950 . S
C2060 C2055 1.363 . S
C2060 C2059 1.415 . S
C2061 H2037 0.951 . S
C2061 C2062 1.366 . S
C2061 C2063 1.388 . S
C2062 C2061 1.366 . S
C2062 C2066 1.385 . S
C2063 H2038 0.951 . S
C2063 C2061 1.388 . S
C2063 C2064 1.366 . S
C2064 C2063 1.366 . S
C2064 C2065 1.414 . S
C2064 C2067 1.499 . S
C2065 H2039 0.950 . S
C2065 C2064 1.414 . S
C2065 C2066 1.374 . S
C2066 H2040 0.950 . S
C2066 C2062 1.385 . S
C2066 C2065 1.374 . S
C2067 C2064 1.499 . S
C2067 C2068 1.373 . S
C2067 C2069 1.389 . S
C2068 H2041 0.950 . S
C2068 C2054 1.377 . S
C2068 C2067 1.373 . S
C2069 C2053 1.377 . S
C2069 C2067 1.389 . S
C2069 C2070 1.524 . S
C2070 C2069 1.524 . S
C2070 C2071 1.397 . S
C2070 C2075 1.363 . S
C2071 H2042 0.950 . S
C2071 C2070 1.397 . S
C2071 C2072 1.334 . S
C2072 H2043 0.950 . S
C2072 C2071 1.334 . S
C2072 C2073 1.287 . S
C2073 C2072 1.287 . S
C2073 C2074 1.524 . S
C2073 H2076 0.999 . S
C2074 H2044 0.950 . S
C2074 C2073 1.524 . S
C2074 C2075 1.415 . S
C2075 H2045 0.950 . S
C2075 C2070 1.363 . S
C2075 C2074 1.415 . S
H2076 C2073 0.999 . S
H2077 C2058 0.913 . S
H2078 C2096 0.951 . S
H2079 C2098 0.951 . S
H2080 C2100 0.950 . S
H2081 C2101 0.950 . S
H2082 C2103 0.950 . S
H2083 C2106 0.950 . S
H2084 C2107 0.950 . S
H2085 C2109 0.950 . S
H2086 C2110 0.950 . S
H2087 C2111 0.951 . S
H2088 C2113 0.951 . S
H2089 C2115 0.950 . S
H2090 C2116 0.950 . S
H2091 C2118 0.950 . S
H2092 C2121 0.950 . S
H2093 C2122 0.950 . S
H2094 C2124 0.950 . S
H2095 C2125 0.950 . S
C2096 H2078 0.951 . S
C2096 C2097 1.366 . S
C2096 C2098 1.388 . S
C2097 C2096 1.366 . S
C2097 C2101 1.385 . S
C2098 H2079 0.951 . S
C2098 C2096 1.388 . S
C2098 C2099 1.366 . S
C2099 C2098 1.366 . S
C2099 C2100 1.414 . S
C2099 C2102 1.499 . S
C2100 H2080 0.950 . S
C2100 C2099 1.414 . S
C2100 C2101 1.374 . S
C2101 H2081 0.950 . S
C2101 C2097 1.385 . S
C2101 C2100 1.374 . S
C2102 C2099 1.499 . S
C2102 C2103 1.373 . S
C2102 C2104 1.389 . S
C2103 H2082 0.950 . S
C2103 C2102 1.373 . S
C2103 C2119 1.377 . S
C2104 C2102 1.389 . S
C2104 C2105 1.524 . S
C2104 C2118 1.377 . S
C2105 C2104 1.524 . S
C2105 C2106 1.397 . S
C2105 C2110 1.363 . S
C2106 H2083 0.950 . S
C2106 C2105 1.397 . S
C2106 C2107 1.334 . S
C2107 H2084 0.950 . S
C2107 C2106 1.334 . S
C2107 C2108 1.287 . S
C2108 C2107 1.287 . S
C2108 C2109 1.524 . S
C2108 H2127 0.913 . S
C2109 H2085 0.950 . S
C2109 C2108 1.524 . S
C2109 C2110 1.415 . S
C2110 H2086 0.950 . S
C2110 C2105 1.363 . S
C2110 C2109 1.415 . S
C2111 H2087 0.951 . S
C2111 C2112 1.366 . S
C2111 C2113 1.388 . S
C2112 C2111 1.366 . S
C2112 C2116 1.385 . S
C2113 H2088 0.951 . S
C2113 C2111 1.388 . S
C2113 C2114 1.366 . S
C2114 C2113 1.366 . S
C2114 C2115 1.414 . S
C2114 C2117 1.499 . S
C2115 H2089 0.950 . S
C2115 C2114 1.414 . S
C2115 C2116 1.374 . S
C2116 H2090 0.950 . S
C2116 C2112 1.385 . S
C2116 C2115 1.374 . S
C2117 C2114 1.499 . S
C2117 C2118 1.373 . S
C2117 C2119 1.389 . S
C2118 H2091 0.950 . S
C2118 C2104 1.377 . S
C2118 C2117 1.373 . S
C2119 C2103 1.377 . S
C2119 C2117 1.389 . S
C2119 C2120 1.524 . S
C2120 C2119 1.524 . S
C2120 C2121 1.397 . S
C2120 C2125 1.363 . S
C2121 H2092 0.950 . S
C2121 C2120 1.397 . S
C2121 C2122 1.334 . S
C2122 H2093 0.950 . S
C2122 C2121 1.334 . S
C2122 C2123 1.287 . S
C2123 C2122 1.287 . S
C2123 C2124 1.524 . S
C2123 H2126 0.999 . S
C2124 H2094 0.950 . S
C2124 C2123 1.524 . S
C2124 C2125 1.415 . S
C2125 H2095 0.950 . S
C2125 C2120 1.363 . S
C2125 C2124 1.415 . S
H2126 C2123 0.999 . S
H2127 C2108 0.913 . S
H2128 C2146 0.951 . S
H2129 C2148 0.951 . S
H2130 C2150 0.950 . S
H2131 C2151 0.950 . S
H2132 C2153 0.950 . S
H2133 C2156 0.950 . S
H2134 C2157 0.950 . S
H2135 C2159 0.950 . S
H2136 C2160 0.950 . S
H2137 C2161 0.951 . S
H2138 C2163 0.951 . S
H2139 C2165 0.950 . S
H2140 C2166 0.950 . S
H2141 C2168 0.950 . S
H2142 C2171 0.950 . S
H2143 C2172 0.950 . S
H2144 C2174 0.950 . S
H2145 C2175 0.950 . S
C2146 H2128 0.951 . S
C2146 C2147 1.366 . S
C2146 C2148 1.388 . S
C2147 C2146 1.366 . S
C2147 C2151 1.385 . S
C2148 H2129 0.951 . S
C2148 C2146 1.388 . S
C2148 C2149 1.366 . S
C2149 C2148 1.366 . S
C2149 C2150 1.414 . S
C2149 C2152 1.499 . S
C2150 H2130 0.950 . S
C2150 C2149 1.414 . S
C2150 C2151 1.374 . S
C2151 H2131 0.950 . S
C2151 C2147 1.385 . S
C2151 C2150 1.374 . S
C2152 C2149 1.499 . S
C2152 C2153 1.373 . S
C2152 C2154 1.389 . S
C2153 H2132 0.950 . S
C2153 C2152 1.373 . S
C2153 C2169 1.377 . S
C2154 C2152 1.389 . S
C2154 C2155 1.524 . S
C2154 C2168 1.377 . S
C2155 C2154 1.524 . S
C2155 C2156 1.397 . S
C2155 C2160 1.363 . S
C2156 H2133 0.950 . S
C2156 C2155 1.397 . S
C2156 C2157 1.334 . S
C2157 H2134 0.950 . S
C2157 C2156 1.334 . S
C2157 C2158 1.287 . S
C2158 C2157 1.287 . S
C2158 C2159 1.524 . S
C2158 H2177 0.913 . S
C2159 H2135 0.950 . S
C2159 C2158 1.524 . S
C2159 C2160 1.415 . S
C2160 H2136 0.950 . S
C2160 C2155 1.363 . S
C2160 C2159 1.415 . S
C2161 H2137 0.951 . S
C2161 C2162 1.366 . S
C2161 C2163 1.388 . S
C2162 C2161 1.366 . S
C2162 C2166 1.385 . S
C2163 H2138 0.951 . S
C2163 C2161 1.388 . S
C2163 C2164 1.366 . S
C2164 C2163 1.366 . S
C2164 C2165 1.414 . S
C2164 C2167 1.499 . S
C2165 H2139 0.950 . S
C2165 C2164 1.414 . S
C2165 C2166 1.374 . S
C2166 H2140 0.950 . S
C2166 C2162 1.385 . S
C2166 C2165 1.374 . S
C2167 C2164 1.499 . S
C2167 C2168 1.373 . S
C2167 C2169 1.389 . S
C2168 H2141 0.950 . S
C2168 C2154 1.377 . S
C2168 C2167 1.373 . S
C2169 C2153 1.377 . S
C2169 C2167 1.389 . S
C2169 C2170 1.524 . S
C2170 C2169 1.524 . S
C2170 C2171 1.397 . S
C2170 C2175 1.363 . S
C2171 H2142 0.950 . S
C2171 C2170 1.397 . S
C2171 C2172 1.334 . S
C2172 H2143 0.950 . S
C2172 C2171 1.334 . S
C2172 C2173 1.287 . S
C2173 C2172 1.287 . S
C2173 C2174 1.524 . S
C2173 H2176 0.999 . S
C2174 H2144 0.950 . S
C2174 C2173 1.524 . S
C2174 C2175 1.415 . S
C2175 H2145 0.950 . S
C2175 C2170 1.363 . S
C2175 C2174 1.415 . S
H2176 C2173 0.999 . S
H2177 C2158 0.913 . S
H2178 C2196 0.951 . S
H2179 C2198 0.951 . S
H2180 C2200 0.950 . S
H2181 C2201 0.950 . S
H2182 C2203 0.950 . S
H2183 C2206 0.950 . S
H2184 C2207 0.950 . S
H2185 C2209 0.950 . S
H2186 C2210 0.950 . S
H2187 C2211 0.951 . S
H2188 C2213 0.951 . S
H2189 C2215 0.950 . S
H2190 C2216 0.950 . S
H2191 C2218 0.950 . S
H2192 C2221 0.950 . S
H2193 C2222 0.950 . S
H2194 C2224 0.950 . S
H2195 C2225 0.950 . S
C2196 H2178 0.951 . S
C2196 C2197 1.366 . S
C2196 C2198 1.388 . S
C2197 C2196 1.366 . S
C2197 C2201 1.385 . S
C2198 H2179 0.951 . S
C2198 C2196 1.388 . S
C2198 C2199 1.366 . S
C2199 C2198 1.366 . S
C2199 C2200 1.414 . S
C2199 C2202 1.499 . S
C2200 H2180 0.950 . S
C2200 C2199 1.414 . S
C2200 C2201 1.374 . S
C2201 H2181 0.950 . S
C2201 C2197 1.385 . S
C2201 C2200 1.374 . S
C2202 C2199 1.499 . S
C2202 C2203 1.373 . S
C2202 C2204 1.389 . S
C2203 H2182 0.950 . S
C2203 C2202 1.373 . S
C2203 C2219 1.377 . S
C2204 C2202 1.389 . S
C2204 C2205 1.524 . S
C2204 C2218 1.377 . S
C2205 C2204 1.524 . S
C2205 C2206 1.397 . S
C2205 C2210 1.363 . S
C2206 H2183 0.950 . S
C2206 C2205 1.397 . S
C2206 C2207 1.334 . S
C2207 H2184 0.950 . S
C2207 C2206 1.334 . S
C2207 C2208 1.287 . S
C2208 C2207 1.287 . S
C2208 C2209 1.524 . S
C2208 H2227 0.913 . S
C2209 H2185 0.950 . S
C2209 C2208 1.524 . S
C2209 C2210 1.415 . S
C2210 H2186 0.950 . S
C2210 C2205 1.363 . S
C2210 C2209 1.415 . S
C2211 H2187 0.951 . S
C2211 C2212 1.366 . S
C2211 C2213 1.388 . S
C2212 C2211 1.366 . S
C2212 C2216 1.385 . S
C2213 H2188 0.951 . S
C2213 C2211 1.388 . S
C2213 C2214 1.366 . S
C2214 C2213 1.366 . S
C2214 C2215 1.414 . S
C2214 C2217 1.499 . S
C2215 H2189 0.950 . S
C2215 C2214 1.414 . S
C2215 C2216 1.374 . S
C2216 H2190 0.950 . S
C2216 C2212 1.385 . S
C2216 C2215 1.374 . S
C2217 C2214 1.499 . S
C2217 C2218 1.373 . S
C2217 C2219 1.389 . S
C2218 H2191 0.950 . S
C2218 C2204 1.377 . S
C2218 C2217 1.373 . S
C2219 C2203 1.377 . S
C2219 C2217 1.389 . S
C2219 C2220 1.524 . S
C2220 C2219 1.524 . S
C2220 C2221 1.397 . S
C2220 C2225 1.363 . S
C2221 H2192 0.950 . S
C2221 C2220 1.397 . S
C2221 C2222 1.334 . S
C2222 H2193 0.950 . S
C2222 C2221 1.334 . S
C2222 C2223 1.287 . S
C2223 C2222 1.287 . S
C2223 C2224 1.524 . S
C2223 H2226 0.999 . S
C2224 H2194 0.950 . S
C2224 C2223 1.524 . S
C2224 C2225 1.415 . S
C2225 H2195 0.950 . S
C2225 C2220 1.363 . S
C2225 C2224 1.415 . S
H2226 C2223 0.999 . S
H2227 C2208 0.913 . S
H2228 C2246 0.951 . S
H2229 C2248 0.951 . S
H2230 C2250 0.950 . S
H2231 C2251 0.950 . S
H2232 C2253 0.950 . S
H2233 C2256 0.950 . S
H2234 C2257 0.950 . S
H2235 C2259 0.950 . S
H2236 C2260 0.950 . S
H2237 C2261 0.951 . S
H2238 C2263 0.951 . S
H2239 C2265 0.950 . S
H2240 C2266 0.950 . S
H2241 C2268 0.950 . S
H2242 C2271 0.950 . S
H2243 C2272 0.950 . S
H2244 C2274 0.950 . S
H2245 C2275 0.950 . S
C2246 H2228 0.951 . S
C2246 C2247 1.366 . S
C2246 C2248 1.388 . S
C2247 C2246 1.366 . S
C2247 C2251 1.385 . S
C2248 H2229 0.951 . S
C2248 C2246 1.388 . S
C2248 C2249 1.366 . S
C2249 C2248 1.366 . S
C2249 C2250 1.414 . S
C2249 C2252 1.499 . S
C2250 H2230 0.950 . S
C2250 C2249 1.414 . S
C2250 C2251 1.374 . S
C2251 H2231 0.950 . S
C2251 C2247 1.385 . S
C2251 C2250 1.374 . S
C2252 C2249 1.499 . S
C2252 C2253 1.373 . S
C2252 C2254 1.389 . S
C2253 H2232 0.950 . S
C2253 C2252 1.373 . S
C2253 C2269 1.377 . S
C2254 C2252 1.389 . S
C2254 C2255 1.524 . S
C2254 C2268 1.377 . S
C2255 C2254 1.524 . S
C2255 C2256 1.397 . S
C2255 C2260 1.363 . S
C2256 H2233 0.950 . S
C2256 C2255 1.397 . S
C2256 C2257 1.334 . S
C2257 H2234 0.950 . S
C2257 C2256 1.334 . S
C2257 C2258 1.287 . S
C2258 C2257 1.287 . S
C2258 C2259 1.524 . S
C2258 H2277 0.913 . S
C2259 H2235 0.950 . S
C2259 C2258 1.524 . S
C2259 C2260 1.415 . S
C2260 H2236 0.950 . S
C2260 C2255 1.363 . S
C2260 C2259 1.415 . S
C2261 H2237 0.951 . S
C2261 C2262 1.366 . S
C2261 C2263 1.388 . S
C2262 C2261 1.366 . S
C2262 C2266 1.385 . S
C2263 H2238 0.951 . S
C2263 C2261 1.388 . S
C2263 C2264 1.366 . S
C2264 C2263 1.366 . S
C2264 C2265 1.414 . S
C2264 C2267 1.499 . S
C2265 H2239 0.950 . S
C2265 C2264 1.414 . S
C2265 C2266 1.374 . S
C2266 H2240 0.950 . S
C2266 C2262 1.385 . S
C2266 C2265 1.374 . S
C2267 C2264 1.499 . S
C2267 C2268 1.373 . S
C2267 C2269 1.389 . S
C2268 H2241 0.950 . S
C2268 C2254 1.377 . S
C2268 C2267 1.373 . S
C2269 C2253 1.377 . S
C2269 C2267 1.389 . S
C2269 C2270 1.524 . S
C2270 C2269 1.524 . S
C2270 C2271 1.397 . S
C2270 C2275 1.363 . S
C2271 H2242 0.950 . S
C2271 C2270 1.397 . S
C2271 C2272 1.334 . S
C2272 H2243 0.950 . S
C2272 C2271 1.334 . S
C2272 C2273 1.287 . S
C2273 C2272 1.287 . S
C2273 C2274 1.524 . S
C2273 H2276 0.999 . S
C2274 H2244 0.950 . S
C2274 C2273 1.524 . S
C2274 C2275 1.415 . S
C2275 H2245 0.950 . S
C2275 C2270 1.363 . S
C2275 C2274 1.415 . S
H2276 C2273 0.999 . S
H2277 C2258 0.913 . S
H2278 C2296 0.951 . S
H2279 C2298 0.951 . S
H2280 C2300 0.950 . S
H2281 C2301 0.950 . S
H2282 C2303 0.950 . S
H2283 C2306 0.950 . S
H2284 C2307 0.963 . S
H2285 C2309 0.950 . S
H2286 C2310 0.950 . S
H2287 C2311 0.951 . S
H2288 C2313 0.951 . S
H2289 C2315 0.950 . S
H2290 C2316 0.950 . S
H2291 C2318 0.950 . S
H2292 C2321 0.950 . S
H2293 C2322 0.950 . S
H2294 C2324 0.950 . S
H2295 C2325 0.950 . S
C2296 H2278 0.951 . S
C2296 C2297 1.366 . S
C2296 C2298 1.388 . S
C2297 C2296 1.366 . S
C2297 C2301 1.385 . S
C2298 H2279 0.951 . S
C2298 C2296 1.388 . S
C2298 C2299 1.366 . S
C2299 C2298 1.366 . S
C2299 C2300 1.414 . S
C2299 C2302 1.499 . S
C2300 H2280 0.950 . S
C2300 C2299 1.414 . S
C2300 C2301 1.374 . S
C2301 H2281 0.950 . S
C2301 C2297 1.385 . S
C2301 C2300 1.374 . S
C2302 C2299 1.499 . S
C2302 C2303 1.373 . S
C2302 C2304 1.389 . S
C2303 H2282 0.950 . S
C2303 C2302 1.373 . S
C2303 C2319 1.377 . S
C2304 C2302 1.389 . S
C2304 C2305 1.524 . S
C2304 C2318 1.377 . S
C2305 C2304 1.524 . S
C2305 C2306 1.397 . S
C2305 C2310 1.363 . S
C2306 H2283 0.950 . S
C2306 C2305 1.397 . S
C2306 C2307 1.334 . S
C2307 H2284 0.963 . S
C2307 C2306 1.334 . S
C2307 C2308 1.287 . S
C2308 C2307 1.287 . S
C2308 C2309 1.524 . S
C2308 H2327 0.913 1_455 S
C2309 H2285 0.950 . S
C2309 C2308 1.524 . S
C2309 C2310 1.415 . S
C2310 H2286 0.950 . S
C2310 C2305 1.363 . S
C2310 C2309 1.415 . S
C2311 H2287 0.951 . S
C2311 C2312 1.366 . S
C2311 C2313 1.388 . S
C2312 C2311 1.366 . S
C2312 C2316 1.385 . S
C2313 H2288 0.951 . S
C2313 C2311 1.388 . S
C2313 C2314 1.366 . S
C2314 C2313 1.366 . S
C2314 C2315 1.414 . S
C2314 C2317 1.499 . S
C2315 H2289 0.950 . S
C2315 C2314 1.414 . S
C2315 C2316 1.374 . S
C2316 H2290 0.950 . S
C2316 C2312 1.385 . S
C2316 C2315 1.374 . S
C2317 C2314 1.499 . S
C2317 C2318 1.373 . S
C2317 C2319 1.389 . S
C2318 H2291 0.950 . S
C2318 C2304 1.377 . S
C2318 C2317 1.373 . S
C2319 C2303 1.377 . S
C2319 C2317 1.389 . S
C2319 C2320 1.524 . S
C2320 C2319 1.524 . S
C2320 C2321 1.397 . S
C2320 C2325 1.363 . S
C2321 H2292 0.950 . S
C2321 C2320 1.397 . S
C2321 C2322 1.334 . S
C2322 H2293 0.950 . S
C2322 C2321 1.334 . S
C2322 C2323 1.287 . S
C2323 C2322 1.287 . S
C2323 C2324 1.524 . S
C2323 H2326 0.999 . S
C2324 H2294 0.950 . S
C2324 C2323 1.524 . S
C2324 C2325 1.415 . S
C2325 H2295 0.950 . S
C2325 C2320 1.363 . S
C2325 C2324 1.415 . S
H2326 C2323 0.999 . S
H2327 C2308 0.913 1_655 S
H2328 C2346 0.951 . S
H2329 C2348 0.951 . S
H2330 C2350 0.950 . S
H2331 C2351 0.950 . S
H2332 C2353 0.950 . S
H2333 C2356 0.950 . S
H2334 C2357 0.950 . S
H2335 C2359 0.950 . S
H2336 C2360 0.950 . S
H2337 C2361 0.951 . S
H2338 C2363 0.951 . S
H2339 C2365 0.950 . S
H2340 C2366 0.950 . S
H2341 C2368 0.950 . S
H2342 C2371 0.950 . S
H2343 C2372 0.950 . S
H2344 C2374 0.950 . S
H2345 C2375 0.950 . S
C2346 H2328 0.951 . S
C2346 C2347 1.366 . S
C2346 C2348 1.388 . S
C2347 C2346 1.366 . S
C2347 C2351 1.385 . S
C2348 H2329 0.951 . S
C2348 C2346 1.388 . S
C2348 C2349 1.366 . S
C2349 C2348 1.366 . S
C2349 C2350 1.414 . S
C2349 C2352 1.499 . S
C2350 H2330 0.950 . S
C2350 C2349 1.414 . S
C2350 C2351 1.374 . S
C2351 H2331 0.950 . S
C2351 C2347 1.385 . S
C2351 C2350 1.374 . S
C2352 C2349 1.499 . S
C2352 C2353 1.373 . S
C2352 C2354 1.389 . S
C2353 H2332 0.950 . S
C2353 C2352 1.373 . S
C2353 C2369 1.377 . S
C2354 C2352 1.389 . S
C2354 C2355 1.524 . S
C2354 C2368 1.377 . S
C2355 C2354 1.524 . S
C2355 C2356 1.397 . S
C2355 C2360 1.363 . S
C2356 H2333 0.950 . S
C2356 C2355 1.397 . S
C2356 C2357 1.334 . S
C2357 H2334 0.950 . S
C2357 C2356 1.334 . S
C2357 C2358 1.287 . S
C2358 C2357 1.287 . S
C2358 C2359 1.524 . S
C2358 H2377 0.913 . S
C2359 H2335 0.950 . S
C2359 C2358 1.524 . S
C2359 C2360 1.415 . S
C2360 H2336 0.950 . S
C2360 C2355 1.363 . S
C2360 C2359 1.415 . S
C2361 H2337 0.951 . S
C2361 C2362 1.366 . S
C2361 C2363 1.388 . S
C2362 C2361 1.366 . S
C2362 C2366 1.385 . S
C2363 H2338 0.951 . S
C2363 C2361 1.388 . S
C2363 C2364 1.366 . S
C2364 C2363 1.366 . S
C2364 C2365 1.414 . S
C2364 C2367 1.499 . S
C2365 H2339 0.950 . S
C2365 C2364 1.414 . S
C2365 C2366 1.374 . S
C2366 H2340 0.950 . S
C2366 C2362 1.385 . S
C2366 C2365 1.374 . S
C2367 C2364 1.499 . S
C2367 C2368 1.373 . S
C2367 C2369 1.389 . S
C2368 H2341 0.950 . S
C2368 C2354 1.377 . S
C2368 C2367 1.373 . S
C2369 C2353 1.377 . S
C2369 C2367 1.389 . S
C2369 C2370 1.524 . S
C2370 C2369 1.524 . S
C2370 C2371 1.397 . S
C2370 C2375 1.363 . S
C2371 H2342 0.950 . S
C2371 C2370 1.397 . S
C2371 C2372 1.334 . S
C2372 H2343 0.950 . S
C2372 C2371 1.334 . S
C2372 C2373 1.287 . S
C2373 C2372 1.287 . S
C2373 C2374 1.524 . S
C2373 H2376 0.999 . S
C2374 H2344 0.950 . S
C2374 C2373 1.524 . S
C2374 C2375 1.415 . S
C2375 H2345 0.950 . S
C2375 C2370 1.363 . S
C2375 C2374 1.415 . S
H2376 C2373 0.999 . S
H2377 C2358 0.913 . S
H2378 C2396 0.951 . S
H2379 C2398 0.951 . S
H2380 C2400 0.950 . S
H2381 C2401 0.950 . S
H2382 C2403 0.950 . S
H2383 C2406 0.950 . S
H2384 C2407 0.950 . S
H2385 C2409 0.950 . S
H2386 C2410 0.950 . S
H2387 C2411 0.951 . S
H2388 C2413 0.951 . S
H2389 C2415 0.950 . S
H2390 C2416 0.950 . S
H2391 C2418 0.950 . S
H2392 C2421 0.950 . S
H2393 C2422 0.950 . S
H2394 C2424 0.950 . S
H2395 C2425 0.950 . S
C2396 H2378 0.951 . S
C2396 C2397 1.366 . S
C2396 C2398 1.388 . S
C2397 C2396 1.366 . S
C2397 C2401 1.385 . S
C2398 H2379 0.951 . S
C2398 C2396 1.388 . S
C2398 C2399 1.366 . S
C2399 C2398 1.366 . S
C2399 C2400 1.414 . S
C2399 C2402 1.499 . S
C2400 H2380 0.950 . S
C2400 C2399 1.414 . S
C2400 C2401 1.374 . S
C2401 H2381 0.950 . S
C2401 C2397 1.385 . S
C2401 C2400 1.374 . S
C2402 C2399 1.499 . S
C2402 C2403 1.373 . S
C2402 C2404 1.389 . S
C2403 H2382 0.950 . S
C2403 C2402 1.373 . S
C2403 C2419 1.377 . S
C2404 C2402 1.389 . S
C2404 C2405 1.524 . S
C2404 C2418 1.377 . S
C2405 C2404 1.524 . S
C2405 C2406 1.397 . S
C2405 C2410 1.363 . S
C2406 H2383 0.950 . S
C2406 C2405 1.397 . S
C2406 C2407 1.334 . S
C2407 H2384 0.950 . S
C2407 C2406 1.334 . S
C2407 C2408 1.287 . S
C2408 C2407 1.287 . S
C2408 C2409 1.524 . S
C2408 H2427 0.913 . S
C2409 H2385 0.950 . S
C2409 C2408 1.524 . S
C2409 C2410 1.415 . S
C2410 H2386 0.950 . S
C2410 C2405 1.363 . S
C2410 C2409 1.415 . S
C2411 H2387 0.951 . S
C2411 C2412 1.366 . S
C2411 C2413 1.388 . S
C2412 C2411 1.366 . S
C2412 C2416 1.385 . S
C2413 H2388 0.951 . S
C2413 C2411 1.388 . S
C2413 C2414 1.366 . S
C2414 C2413 1.366 . S
C2414 C2415 1.414 . S
C2414 C2417 1.499 . S
C2415 H2389 0.950 . S
C2415 C2414 1.414 . S
C2415 C2416 1.374 . S
C2416 H2390 0.950 . S
C2416 C2412 1.385 . S
C2416 C2415 1.374 . S
C2417 C2414 1.499 . S
C2417 C2418 1.373 . S
C2417 C2419 1.389 . S
C2418 H2391 0.950 . S
C2418 C2404 1.377 . S
C2418 C2417 1.373 . S
C2419 C2403 1.377 . S
C2419 C2417 1.389 . S
C2419 C2420 1.524 . S
C2420 C2419 1.524 . S
C2420 C2421 1.397 . S
C2420 C2425 1.363 . S
C2421 H2392 0.950 . S
C2421 C2420 1.397 . S
C2421 C2422 1.334 . S
C2422 H2393 0.950 . S
C2422 C2421 1.334 . S
C2422 C2423 1.287 . S
C2423 C2422 1.287 . S
C2423 C2424 1.524 . S
C2423 H2426 0.999 . S
C2424 H2394 0.950 . S
C2424 C2423 1.524 . S
C2424 C2425 1.415 . S
C2425 H2395 0.950 . S
C2425 C2420 1.363 . S
C2425 C2424 1.415 . S
H2426 C2423 0.999 . S
H2427 C2408 0.913 . S
H2428 C2446 0.951 . S
H2429 C2448 0.951 . S
H2430 C2450 0.950 . S
H2431 C2451 0.950 . S
H2432 C2453 0.950 . S
H2433 C2456 0.950 . S
H2434 C2457 0.950 . S
H2435 C2459 0.950 . S
H2436 C2460 0.950 . S
H2437 C2461 0.951 . S
H2438 C2463 0.951 . S
H2439 C2465 0.950 . S
H2440 C2466 0.950 . S
H2441 C2468 0.950 . S
H2442 C2471 0.950 . S
H2443 C2472 0.950 . S
H2444 C2474 0.950 . S
H2445 C2475 0.950 . S
C2446 H2428 0.951 . S
C2446 C2447 1.366 . S
C2446 C2448 1.388 . S
C2447 C2446 1.366 . S
C2447 C2451 1.385 . S
C2448 H2429 0.951 . S
C2448 C2446 1.388 . S
C2448 C2449 1.366 . S
C2449 C2448 1.366 . S
C2449 C2450 1.414 . S
C2449 C2452 1.499 . S
C2450 H2430 0.950 . S
C2450 C2449 1.414 . S
C2450 C2451 1.374 . S
C2451 H2431 0.950 . S
C2451 C2447 1.385 . S
C2451 C2450 1.374 . S
C2452 C2449 1.499 . S
C2452 C2453 1.373 . S
C2452 C2454 1.389 . S
C2453 H2432 0.950 . S
C2453 C2452 1.373 . S
C2453 C2469 1.377 . S
C2454 C2452 1.389 . S
C2454 C2455 1.524 . S
C2454 C2468 1.377 . S
C2455 C2454 1.524 . S
C2455 C2456 1.397 . S
C2455 C2460 1.363 . S
C2456 H2433 0.950 . S
C2456 C2455 1.397 . S
C2456 C2457 1.334 . S
C2457 H2434 0.950 . S
C2457 C2456 1.334 . S
C2457 C2458 1.287 . S
C2458 C2457 1.287 . S
C2458 C2459 1.524 . S
C2458 H2477 0.913 . S
C2459 H2435 0.950 . S
C2459 C2458 1.524 . S
C2459 C2460 1.415 . S
C2460 H2436 0.950 . S
C2460 C2455 1.363 . S
C2460 C2459 1.415 . S
C2461 H2437 0.951 . S
C2461 C2462 1.366 . S
C2461 C2463 1.388 . S
C2462 C2461 1.366 . S
C2462 C2466 1.385 . S
C2463 H2438 0.951 . S
C2463 C2461 1.388 . S
C2463 C2464 1.366 . S
C2464 C2463 1.366 . S
C2464 C2465 1.414 . S
C2464 C2467 1.499 . S
C2465 H2439 0.950 . S
C2465 C2464 1.414 . S
C2465 C2466 1.374 . S
C2466 H2440 0.950 . S
C2466 C2462 1.385 . S
C2466 C2465 1.374 . S
C2467 C2464 1.499 . S
C2467 C2468 1.373 . S
C2467 C2469 1.389 . S
C2468 H2441 0.950 . S
C2468 C2454 1.377 . S
C2468 C2467 1.373 . S
C2469 C2453 1.377 . S
C2469 C2467 1.389 . S
C2469 C2470 1.524 . S
C2470 C2469 1.524 . S
C2470 C2471 1.397 . S
C2470 C2475 1.363 . S
C2471 H2442 0.950 . S
C2471 C2470 1.397 . S
C2471 C2472 1.334 . S
C2472 H2443 0.950 . S
C2472 C2471 1.334 . S
C2472 C2473 1.287 . S
C2473 C2472 1.287 . S
C2473 C2474 1.524 . S
C2473 H2476 0.999 . S
C2474 H2444 0.950 . S
C2474 C2473 1.524 . S
C2474 C2475 1.415 . S
C2475 H2445 0.950 . S
C2475 C2470 1.363 . S
C2475 C2474 1.415 . S
H2476 C2473 0.999 . S
H2477 C2458 0.913 . S
H2478 C2496 0.951 . S
H2479 C2498 0.951 . S
H2480 C2500 0.950 . S
H2481 C2501 0.950 . S
H2482 C2503 0.950 . S
H2483 C2506 0.950 . S
H2484 C2507 0.950 . S
H2485 C2509 0.950 . S
H2486 C2510 0.950 . S
H2487 C2511 0.951 . S
H2488 C2513 0.951 . S
H2489 C2515 0.950 . S
H2490 C2516 0.950 . S
H2491 C2518 0.950 . S
H2492 C2521 0.950 . S
H2493 C2522 0.950 . S
H2494 C2524 0.950 . S
H2495 C2525 0.950 . S
C2496 H2478 0.951 . S
C2496 C2497 1.366 . S
C2496 C2498 1.388 . S
C2497 C2496 1.366 . S
C2497 C2501 1.385 . S
C2498 H2479 0.951 . S
C2498 C2496 1.388 . S
C2498 C2499 1.366 . S
C2499 C2498 1.366 . S
C2499 C2500 1.414 . S
C2499 C2502 1.499 . S
C2500 H2480 0.950 . S
C2500 C2499 1.414 . S
C2500 C2501 1.374 . S
C2501 H2481 0.950 . S
C2501 C2497 1.385 . S
C2501 C2500 1.374 . S
C2502 C2499 1.499 . S
C2502 C2503 1.373 . S
C2502 C2504 1.389 . S
C2503 H2482 0.950 . S
C2503 C2502 1.373 . S
C2503 C2519 1.377 . S
C2504 C2502 1.389 . S
C2504 C2505 1.524 . S
C2504 C2518 1.377 . S
C2505 C2504 1.524 . S
C2505 C2506 1.397 . S
C2505 C2510 1.363 . S
C2506 H2483 0.950 . S
C2506 C2505 1.397 . S
C2506 C2507 1.334 . S
C2507 H2484 0.950 . S
C2507 C2506 1.334 . S
C2507 C2508 1.287 . S
C2508 C2507 1.287 . S
C2508 C2509 1.524 . S
C2508 H2527 0.913 . S
C2509 H2485 0.950 . S
C2509 C2508 1.524 . S
C2509 C2510 1.415 . S
C2510 H2486 0.950 . S
C2510 C2505 1.363 . S
C2510 C2509 1.415 . S
C2511 H2487 0.951 . S
C2511 C2512 1.366 . S
C2511 C2513 1.388 . S
C2512 C2511 1.366 . S
C2512 C2516 1.385 . S
C2513 H2488 0.951 . S
C2513 C2511 1.388 . S
C2513 C2514 1.366 . S
C2514 C2513 1.366 . S
C2514 C2515 1.414 . S
C2514 C2517 1.499 . S
C2515 H2489 0.950 . S
C2515 C2514 1.414 . S
C2515 C2516 1.374 . S
C2516 H2490 0.950 . S
C2516 C2512 1.385 . S
C2516 C2515 1.374 . S
C2517 C2514 1.499 . S
C2517 C2518 1.373 . S
C2517 C2519 1.389 . S
C2518 H2491 0.950 . S
C2518 C2504 1.377 . S
C2518 C2517 1.373 . S
C2519 C2503 1.377 . S
C2519 C2517 1.389 . S
C2519 C2520 1.524 . S
C2520 C2519 1.524 . S
C2520 C2521 1.397 . S
C2520 C2525 1.363 . S
C2521 H2492 0.950 . S
C2521 C2520 1.397 . S
C2521 C2522 1.334 . S
C2522 H2493 0.950 . S
C2522 C2521 1.334 . S
C2522 C2523 1.287 . S
C2523 C2522 1.287 . S
C2523 C2524 1.524 . S
C2523 H2526 0.999 1_565 S
C2524 H2494 0.950 . S
C2524 C2523 1.524 . S
C2524 C2525 1.415 . S
C2525 H2495 0.950 . S
C2525 C2520 1.363 . S
C2525 C2524 1.415 . S
H2526 C2523 0.999 1_545 S
H2527 C2508 0.913 . S
C547 C7 1.386 . S
C562 C139 1.385 . S
C597 C172 1.386 . S
C612 C40 1.385 . S
C647 C205 1.385 . S
C662 C73 1.386 . S
C697 C238 1.386 . S
C712 C106 1.385 . S
C747 C271 1.386 . S
C762 C403 1.386 . S
C797 C304 1.386 . S
C812 C436 1.385 . S
C847 C469 1.386 . S
C862 C337 1.385 . S
C897 C370 1.385 . S
C912 C502 1.386 . S
C947 N398 1.198 . S
C962 N13 1.195 . S
C997 N431 1.199 . S
C1012 N46 1.196 . S
C1047 N79 1.196 . S
C1062 N464 1.199 . S
C1097 N497 1.199 . S
C1112 N112 1.196 . S
C1147 N266 1.198 . S
C1162 N145 1.195 . S
C1197 N299 1.199 . S
C1212 N178 1.196 . S
C1247 N211 1.195 . S
C1262 N332 1.199 . S
C1297 N244 1.195 . S
C1312 N365 1.198 . S
C1347 N134 1.199 . S
C1362 N277 1.196 . S
C1397 N167 1.199 . S
C1412 N310 1.196 . S
C1447 N200 1.199 . S
C1462 N343 1.196 . S
C1497 N376 1.195 . S
C1512 N233 1.198 . S
C1547 N2 1.199 . S
C1562 N409 1.196 . S
C1597 N35 1.199 . S
C1612 N442 1.196 . S
C1647 N475 1.196 . S
C1662 N68 1.199 . S
C1697 N101 1.199 . S
C1712 N508 1.196 . S
C1747 C87 1.244 . S
C1762 C21 1.245 . S
C1797 C54 1.245 . S
C1812 C120 1.244 . S
C1847 C219 1.244 . S
C1862 C153 1.245 . S
C1897 C252 1.244 . S
C1912 C186 1.245 . S
C1947 C351 1.244 . S
C1962 C285 1.245 . S
C1997 C384 1.245 . S
C2012 C318 1.244 . S
C2047 C417 1.245 . S
C2062 C483 1.244 . S
C2097 C516 1.244 . S
C2112 C450 1.245 . S
C2147 C249 1.094 . S
C2162 C18 1.093 . S
C2197 C150 1.093 . S
C2212 C51 1.094 . S
C2247 C183 1.094 . S
C2262 C84 1.094 . S
C2297 C216 1.094 . S
C2312 C117 1.093 . S
C2347 C513 1.093 . S
C2362 C282 1.094 . S
C2397 C414 1.094 . S
C2412 C315 1.093 . S
C2447 C447 1.094 . S
C2462 C348 1.094 . S
C2497 C480 1.093 . S
C2512 C381 1.094 . S
