# Generated by pormake.
# Topology upc, (4)-cn, num edge types: 1
# Building blocks:
#     Node 0, Type 0, BuildingBlock: ESEHIV_clean_sbu_0, # of connection points: 4
#     Node 1, Type 0, BuildingBlock: ESEHIV_clean_sbu_0, # of connection points: 4
#     Node 2, Type 0, BuildingBlock: ESEHIV_clean_sbu_0, # of connection points: 4
#     Node 3, Type 0, BuildingBlock: ESEHIV_clean_sbu_0, # of connection points: 4
#     Node 4, Type 0, BuildingBlock: ESEHIV_clean_sbu_0, # of connection points: 4
#     Node 5, Type 0, BuildingBlock: ESEHIV_clean_sbu_0, # of connection points: 4
#     Node 6, Type 0, BuildingBlock: ESEHIV_clean_sbu_0, # of connection points: 4
#     Node 7, Type 0, BuildingBlock: ESEHIV_clean_sbu_0, # of connection points: 4
#     Node 8, Type 0, BuildingBlock: ESEHIV_clean_sbu_0, # of connection points: 4
#     Node 9, Type 0, BuildingBlock: ESEHIV_clean_sbu_0, # of connection points: 4
#     Node 10, Type 0, BuildingBlock: ESEHIV_clean_sbu_0, # of connection points: 4
#     Node 11, Type 0, BuildingBlock: ESEHIV_clean_sbu_0, # of connection points: 4
#     Node 12, Type 0, BuildingBlock: ESEHIV_clean_sbu_0, # of connection points: 4
#     Node 13, Type 0, BuildingBlock: ESEHIV_clean_sbu_0, # of connection points: 4
#     Node 14, Type 0, BuildingBlock: ESEHIV_clean_sbu_0, # of connection points: 4
#     Node 15, Type 0, BuildingBlock: ESEHIV_clean_sbu_0, # of connection points: 4
#     Edge 16, Type (0, 0), BuildingBlock: XIVTED_clean_linker_0, # of connection points: 2
#     Edge 17, Type (0, 0), BuildingBlock: XIVTED_clean_linker_0, # of connection points: 2
#     Edge 18, Type (0, 0), BuildingBlock: XIVTED_clean_linker_0, # of connection points: 2
#     Edge 19, Type (0, 0), BuildingBlock: XIVTED_clean_linker_0, # of connection points: 2
#     Edge 20, Type (0, 0), BuildingBlock: XIVTED_clean_linker_0, # of connection points: 2
#     Edge 21, Type (0, 0), BuildingBlock: XIVTED_clean_linker_0, # of connection points: 2
#     Edge 22, Type (0, 0), BuildingBlock: XIVTED_clean_linker_0, # of connection points: 2
#     Edge 23, Type (0, 0), BuildingBlock: XIVTED_clean_linker_0, # of connection points: 2
#     Edge 24, Type (0, 0), BuildingBlock: XIVTED_clean_linker_0, # of connection points: 2
#     Edge 25, Type (0, 0), BuildingBlock: XIVTED_clean_linker_0, # of connection points: 2
#     Edge 26, Type (0, 0), BuildingBlock: XIVTED_clean_linker_0, # of connection points: 2
#     Edge 27, Type (0, 0), BuildingBlock: XIVTED_clean_linker_0, # of connection points: 2
#     Edge 28, Type (0, 0), BuildingBlock: XIVTED_clean_linker_0, # of connection points: 2
#     Edge 29, Type (0, 0), BuildingBlock: XIVTED_clean_linker_0, # of connection points: 2
#     Edge 30, Type (0, 0), BuildingBlock: XIVTED_clean_linker_0, # of connection points: 2
#     Edge 31, Type (0, 0), BuildingBlock: XIVTED_clean_linker_0, # of connection points: 2
#     Edge 32, Type (0, 0), BuildingBlock: XIVTED_clean_linker_0, # of connection points: 2
#     Edge 33, Type (0, 0), BuildingBlock: XIVTED_clean_linker_0, # of connection points: 2
#     Edge 34, Type (0, 0), BuildingBlock: XIVTED_clean_linker_0, # of connection points: 2
#     Edge 35, Type (0, 0), BuildingBlock: XIVTED_clean_linker_0, # of connection points: 2
#     Edge 36, Type (0, 0), BuildingBlock: XIVTED_clean_linker_0, # of connection points: 2
#     Edge 37, Type (0, 0), BuildingBlock: XIVTED_clean_linker_0, # of connection points: 2
#     Edge 38, Type (0, 0), BuildingBlock: XIVTED_clean_linker_0, # of connection points: 2
#     Edge 39, Type (0, 0), BuildingBlock: XIVTED_clean_linker_0, # of connection points: 2
#     Edge 40, Type (0, 0), BuildingBlock: XIVTED_clean_linker_0, # of connection points: 2
#     Edge 41, Type (0, 0), BuildingBlock: XIVTED_clean_linker_0, # of connection points: 2
#     Edge 42, Type (0, 0), BuildingBlock: XIVTED_clean_linker_0, # of connection points: 2
#     Edge 43, Type (0, 0), BuildingBlock: XIVTED_clean_linker_0, # of connection points: 2
#     Edge 44, Type (0, 0), BuildingBlock: XIVTED_clean_linker_0, # of connection points: 2
#     Edge 45, Type (0, 0), BuildingBlock: XIVTED_clean_linker_0, # of connection points: 2
#     Edge 46, Type (0, 0), BuildingBlock: XIVTED_clean_linker_0, # of connection points: 2
#     Edge 47, Type (0, 0), BuildingBlock: XIVTED_clean_linker_0, # of connection points: 2
# Relax obj value: 0.163
# Max RMSD: 0.212
# Mean RMSD: 0.186
data_MOF--net-upc--node1-ESEHIV_clean_sbu_0--edge1-XIVTED_clean_linker_0
_symmetry_space_group_name_H-M    P1
_symmetry_Int_Tables_number       1
_symmetry_cell_setting            triclinic
loop_
_symmetry_equiv_pos_as_xyz
'x, y, z'
_cell_length_a     35.477364
_cell_length_b     41.881228
_cell_length_c     44.684342
_cell_angle_alpha  90.083621
_cell_angle_beta   89.975791
_cell_angle_gamma 90.463681
loop_
_atom_site_label
_atom_site_type_symbol
_atom_site_fract_x
_atom_site_fract_y
_atom_site_fract_z
_atom_type_partial_charge
Cu0 Cu 0.11723 0.62053 0.15733 0.0
N1 N 0.07622 0.64705 0.16166 0.0
N2 N 0.0382 0.68207 0.18325 0.0
C3 C 0.07042 0.66564 0.18557 0.0
C4 C 0.02322 0.67404 0.15654 0.0
C5 C 0.04678 0.65203 0.14326 0.0
O6 O 0.16137 0.64923 0.16523 0.0
C7 C 0.10475 0.58901 0.21382 0.0
O8 O 0.11678 0.616 0.22553 0.0
H9 H 0.08994 0.6677 0.20407 0.0
H10 H 0.04275 0.64052 0.1218 0.0
N11 N 0.11427 0.60465 0.11815 0.0
N12 N 0.09151 0.57521 0.08017 0.0
C13 C 0.09761 0.57689 0.11004 0.0
C14 C 0.11845 0.62124 0.09258 0.0
C15 C 0.10497 0.60305 0.06915 0.0
C16 C 0.18732 0.65593 0.1463 0.0
O17 O 0.1898 0.63869 0.12184 0.0
H18 H 0.08813 0.55921 0.12605 0.0
H19 H 0.12777 0.64585 0.0913 0.0
O20 O 0.10677 0.58528 0.18552 0.0
H21 H 0.99713 0.68316 0.14753 0.0
H22 H 0.10255 0.61084 0.04616 0.0
Cu23 Cu 0.90334 0.1237 0.14163 0.0
N24 N 0.8615 0.10284 0.15745 0.0
N25 N 0.80333 0.10168 0.17661 0.0
C26 C 0.83601 0.11814 0.17428 0.0
C27 C 0.80902 0.07431 0.16123 0.0
C28 C 0.84496 0.07518 0.14928 0.0
O29 O 0.88722 0.16911 0.14432 0.0
C30 C 0.94889 0.10408 0.19204 0.0
O31 O 0.91889 0.11003 0.20831 0.0
H32 H 0.84084 0.14184 0.18311 0.0
H33 H 0.85696 0.05812 0.13385 0.0
N34 N 0.90971 0.109 0.10215 0.0
N35 N 0.93486 0.08591 0.06151 0.0
C36 C 0.94156 0.09821 0.08909 0.0
C37 C 0.882 0.10267 0.08241 0.0
C38 C 0.89738 0.08886 0.05732 0.0
C39 C 0.86788 0.18207 0.12347 0.0
O40 O 0.86717 0.16836 0.09707 0.0
H41 H 0.96887 0.09868 0.09988 0.0
H42 H 0.85236 0.10678 0.08645 0.0
O43 O 0.94841 0.11076 0.16418 0.0
H44 H 0.78792 0.05605 0.15701 0.0
H45 H 0.88182 0.08026 0.03806 0.0
Cu46 Cu 0.40608 0.89964 0.15943 0.0
N47 N 0.44785 0.87355 0.16095 0.0
N48 N 0.48731 0.83727 0.17864 0.0
C49 C 0.45727 0.8556 0.18452 0.0
C50 C 0.49713 0.8436 0.15011 0.0
C51 C 0.4728 0.86638 0.13927 0.0
O52 O 0.36292 0.87013 0.16803 0.0
C53 C 0.42036 0.93041 0.21636 0.0
O54 O 0.40862 0.90341 0.22817 0.0
H55 H 0.44108 0.85454 0.20501 0.0
H56 H 0.47262 0.87624 0.11692 0.0
N57 N 0.40626 0.9167 0.12069 0.0
N58 N 0.42798 0.9466 0.08265 0.0
C59 C 0.42293 0.94444 0.11265 0.0
C60 C 0.40076 0.90062 0.09497 0.0
C61 C 0.41364 0.91903 0.07156 0.0
C62 C 0.33584 0.86396 0.14995 0.0
O63 O 0.33146 0.88222 0.12639 0.0
H64 H 0.43347 0.96155 0.1288 0.0
H65 H 0.39137 0.87604 0.0935 0.0
O66 O 0.41761 0.93424 0.18812 0.0
H67 H 0.51959 0.83207 0.13789 0.0
H68 H 0.41511 0.91134 0.04848 0.0
Cu69 Cu 0.6207 0.39686 0.13507 0.0
N70 N 0.66086 0.42253 0.14735 0.0
N71 N 0.7176 0.43117 0.16749 0.0
C72 C 0.69648 0.41214 0.14977 0.0
C73 C 0.69467 0.45535 0.17548 0.0
C74 C 0.65968 0.45001 0.16288 0.0
O75 O 0.64046 0.35264 0.13636 0.0
C76 C 0.57579 0.41344 0.18716 0.0
O77 O 0.60613 0.40728 0.20287 0.0
H78 H 0.70552 0.38911 0.14162 0.0
H79 H 0.63433 0.46344 0.16722 0.0
N80 N 0.60974 0.40686 0.0952 0.0
N81 N 0.58323 0.42727 0.054 0.0
C82 C 0.58363 0.42711 0.08431 0.0
C83 C 0.62653 0.39408 0.07108 0.0
C84 C 0.61028 0.40653 0.04572 0.0
C85 C 0.65833 0.34105 0.15869 0.0
O86 O 0.65702 0.3562 0.18442 0.0
H87 H 0.56481 0.44084 0.0983 0.0
H88 H 0.64892 0.37673 0.07195 0.0
O89 O 0.5759 0.40783 0.15905 0.0
H90 H 0.70164 0.47401 0.19137 0.0
H91 H 0.61801 0.40086 0.0229 0.0
Cu92 Cu 0.13679 0.90982 0.3417 0.0
N93 N 0.09225 0.88615 0.34047 0.0
N94 N 0.04637 0.85399 0.32401 0.0
C95 C 0.07716 0.87132 0.31664 0.0
C96 C 0.0416 0.85839 0.35367 0.0
C97 C 0.06989 0.8784 0.36374 0.0
O98 O 0.17968 0.87976 0.33811 0.0
C99 C 0.12286 0.94525 0.28612 0.0
O100 O 0.12534 0.91818 0.27144 0.0
H101 H 0.08977 0.87152 0.29467 0.0
H102 H 0.07467 0.88574 0.38665 0.0
N103 N 0.13759 0.92823 0.37967 0.0
N104 N 0.11644 0.95608 0.41889 0.0
C105 C 0.11238 0.9497 0.38943 0.0
C106 C 0.15856 0.92071 0.40367 0.0
C107 C 0.14558 0.9379 0.42795 0.0
C108 C 0.18258 0.85791 0.31819 0.0
O109 O 0.15915 0.85788 0.29549 0.0
H110 H 0.09019 0.95906 0.37542 0.0
H111 H 0.18079 0.90319 0.40373 0.0
O112 O 0.13086 0.94598 0.31396 0.0
H113 H 0.02018 0.84698 0.36731 0.0
H114 H 0.1564 0.93669 0.45055 0.0
Cu115 Cu 0.5954 0.1402 0.37003 0.0
N116 N 0.57638 0.16582 0.33962 0.0
N117 N 0.58602 0.1762 0.29112 0.0
C118 C 0.60104 0.17582 0.31875 0.0
C119 C 0.54969 0.16735 0.29484 0.0
C120 C 0.54368 0.16127 0.32486 0.0
O121 O 0.64615 0.15908 0.37811 0.0
C122 C 0.55766 0.08485 0.35111 0.0
O123 O 0.5308 0.09872 0.36641 0.0
H124 H 0.63117 0.17595 0.32259 0.0
H125 H 0.51923 0.14928 0.33406 0.0
N126 N 0.56598 0.1408 0.40506 0.0
N127 N 0.53546 0.12336 0.44598 0.0
C128 C 0.56178 0.11677 0.42497 0.0
C129 C 0.54182 0.16349 0.4139 0.0
C130 C 0.5231 0.1529 0.43911 0.0
C131 C 0.64601 0.18909 0.38399 0.0
O132 O 0.61317 0.20302 0.38703 0.0
H133 H 0.57693 0.0945 0.42342 0.0
H134 H 0.53714 0.18569 0.40218 0.0
O135 O 0.59074 0.09746 0.35112 0.0
H136 H 0.53053 0.16128 0.27682 0.0
H137 H 0.5009 0.16551 0.45067 0.0
Cu138 Cu 0.38838 0.60723 0.33993 0.0
N139 N 0.43288 0.63046 0.33696 0.0
N140 N 0.47577 0.66381 0.3182 0.0
C141 C 0.44355 0.64758 0.31307 0.0
C142 C 0.48569 0.65701 0.34659 0.0
C143 C 0.45916 0.63613 0.35811 0.0
O144 O 0.34715 0.63791 0.33206 0.0
C145 C 0.40266 0.57055 0.28565 0.0
O146 O 0.39934 0.59749 0.27094 0.0
H147 H 0.42684 0.64966 0.29294 0.0
H148 H 0.45838 0.62671 0.38062 0.0
N149 N 0.38669 0.59146 0.37895 0.0
N150 N 0.40751 0.56598 0.41954 0.0
C151 C 0.41127 0.57008 0.38975 0.0
C152 C 0.36626 0.60105 0.40267 0.0
C153 C 0.37919 0.58541 0.42783 0.0
C154 C 0.34767 0.66366 0.34761 0.0
O155 O 0.37403 0.66698 0.36806 0.0
H156 H 0.43293 0.55911 0.3762 0.0
H157 H 0.34443 0.6189 0.40196 0.0
O158 O 0.39498 0.56992 0.31355 0.0
H159 H 0.50975 0.66701 0.35829 0.0
H160 H 0.36893 0.58844 0.45046 0.0
Cu161 Cu 0.9309 0.37749 0.36694 0.0
N162 N 0.9484 0.35038 0.33664 0.0
N163 N 0.92508 0.34397 0.2903 0.0
C164 C 0.92081 0.33753 0.31971 0.0
C165 C 0.95977 0.35718 0.28823 0.0
C166 C 0.97422 0.36072 0.3167 0.0
O167 O 0.8796 0.36062 0.37651 0.0
C168 C 0.96828 0.43338 0.3478 0.0
O169 O 0.99515 0.42052 0.36382 0.0
H170 H 0.89433 0.32981 0.32915 0.0
H171 H 0.99797 0.37588 0.32231 0.0
N172 N 0.96078 0.37761 0.40171 0.0
N173 N 0.99017 0.39549 0.44298 0.0
C174 C 0.96391 0.4016 0.42185 0.0
C175 C 0.98566 0.35548 0.4105 0.0
C176 C 1.00366 0.36634 0.43595 0.0
C177 C 0.87847 0.33241 0.38767 0.0
O178 O 0.91061 0.31913 0.39491 0.0
H179 H 0.94789 0.42344 0.42051 0.0
H180 H 0.99106 0.33341 0.39872 0.0
O181 O 0.93568 0.41991 0.34737 0.0
H182 H 0.97097 0.36877 0.26845 0.0
H183 H 0.02603 0.35418 0.44768 0.0
Cu184 Cu 0.87568 0.39049 0.88954 0.0
N185 N 0.88763 0.34887 0.87943 0.0
N186 N 0.90192 0.30772 0.84982 0.0
C187 C 0.88481 0.33636 0.85185 0.0
C188 C 0.91567 0.30207 0.87751 0.0
C189 C 0.90701 0.32758 0.89565 0.0
O190 O 0.82155 0.3986 0.8898 0.0
C191 C 0.89209 0.44673 0.85567 0.0
O192 O 0.86696 0.46024 0.87307 0.0
H193 H 0.87186 0.34893 0.83347 0.0
H194 H 0.91596 0.33112 0.91855 0.0
N195 N 0.89545 0.40055 0.92715 0.0
N196 N 0.92762 0.42446 0.96415 0.0
C197 C 0.92036 0.4238 0.9344 0.0
C198 C 0.88664 0.38603 0.95304 0.0
C199 C 0.90642 0.40059 0.97582 0.0
C200 C 0.79038 0.38318 0.88808 0.0
O201 O 0.75922 0.39993 0.8878 0.0
H202 H 0.93232 0.44019 0.91822 0.0
H203 H 0.86714 0.36619 0.95517 0.0
O204 O 0.89972 0.41738 0.85943 0.0
H205 H 0.93276 0.28194 0.88394 0.0
H206 H 0.90542 0.39379 0.99916 0.0
Cu207 Cu 0.09845 0.92652 0.8606 0.0
N208 N 0.05806 0.91999 0.83461 0.0
N209 N 0.01381 0.93304 0.80125 0.0
C210 C 0.03718 0.94363 0.82301 0.0
C211 C 0.02029 0.90138 0.79912 0.0
C212 C 0.04766 0.89339 0.81976 0.0
O213 O 0.08097 0.95636 0.8912 0.0
C214 C 0.17087 0.95138 0.84315 0.0
O215 O 0.18126 0.94801 0.87118 0.0
H216 H 0.04078 0.96845 0.82925 0.0
H217 H 0.06026 0.87019 0.82279 0.0
N218 N 0.11536 0.88774 0.87657 0.0
N219 N 0.15121 0.84523 0.88664 0.0
C220 C 0.14688 0.87148 0.86938 0.0
C221 C 0.09904 0.871 0.89878 0.0
C222 C 0.12109 0.84493 0.90512 0.0
C223 C 0.09035 0.95732 0.91872 0.0
O224 O 0.11608 0.93767 0.92874 0.0
H225 H 0.16677 0.87922 0.85245 0.0
H226 H 0.07318 0.87765 0.90992 0.0
O227 O 0.13727 0.94467 0.83554 0.0
H228 H 1.00689 0.88527 0.78335 0.0
H229 H 0.11538 0.82711 0.92209 0.0
Cu230 Cu 0.64616 0.12441 0.89011 0.0
N231 N 0.61636 0.15794 0.87753 0.0
N232 N 0.59441 0.19656 0.84833 0.0
C233 C 0.62354 0.17713 0.85414 0.0
C234 C 0.56784 0.18942 0.86892 0.0
C235 C 0.58156 0.16553 0.88701 0.0
O236 O 0.69877 0.13835 0.89031 0.0
C237 C 0.63945 0.09044 0.83514 0.0
O238 O 0.65489 0.11617 0.8235 0.0
H239 H 0.64897 0.17588 0.84083 0.0
H240 H 0.56675 0.15374 0.9051 0.0
N241 N 0.63152 0.11284 0.92864 0.0
N242 N 0.5993 0.09029 0.96626 0.0
C243 C 0.60213 0.094 0.93626 0.0
C244 C 0.6479 0.12154 0.95451 0.0
C245 C 0.62818 0.10767 0.97774 0.0
C246 C 0.73312 0.14759 0.89044 0.0
O247 O 0.75971 0.12595 0.89095 0.0
H248 H 0.58316 0.08353 0.91997 0.0
H249 H 0.67259 0.13675 0.95629 0.0
O250 O 0.63578 0.08855 0.86343 0.0
H251 H 0.54031 0.20026 0.87043 0.0
H252 H 0.63517 0.10987 1.00121 0.0
Cu253 Cu 0.41089 0.60304 0.86911 0.0
N254 N 0.449 0.60727 0.84037 0.0
N255 N 0.49199 0.59401 0.80588 0.0
C256 C 0.47167 0.58414 0.8298 0.0
C257 C 0.48211 0.62475 0.80165 0.0
C258 C 0.45564 0.63282 0.82291 0.0
O259 O 0.42964 0.57792 0.90299 0.0
C260 C 0.36686 0.56426 0.82877 0.0
O261 O 0.39839 0.55005 0.82153 0.0
H262 H 0.47148 0.55998 0.83834 0.0
H263 H 0.44105 0.65532 0.82474 0.0
N264 N 0.39615 0.6435 0.88254 0.0
N265 N 0.36134 0.6873 0.88981 0.0
C266 C 0.36582 0.6603 0.87355 0.0
C267 C 0.41151 0.66052 0.90502 0.0
C268 C 0.39013 0.68747 0.90958 0.0
C269 C 0.43255 0.54763 0.90207 0.0
O270 O 0.42061 0.53232 0.87821 0.0
H271 H 0.34657 0.65222 0.85628 0.0
H272 H 0.43599 0.65339 0.9177 0.0
O273 O 0.36663 0.58511 0.84952 0.0
H274 H 0.4925 0.64015 0.784 0.0
H275 H 0.39521 0.70563 0.92639 0.0
Cu276 Cu 0.89173 0.12359 0.61516 0.0
N277 N 0.93065 0.14735 0.63206 0.0
N278 N 0.95385 0.17984 0.66718 0.0
C279 C 0.92501 0.17385 0.64836 0.0
C280 C 0.97921 0.15665 0.66189 0.0
C281 C 0.9648 0.13662 0.64012 0.0
O282 O 0.84953 0.15295 0.60993 0.0
C283 C 0.88691 0.09032 0.66995 0.0
O284 O 0.88827 0.11928 0.68119 0.0
H285 H 0.89814 0.18581 0.64951 0.0
H286 H 0.97635 0.11392 0.63332 0.0
N287 N 0.90635 0.10937 0.57743 0.0
N288 N 0.93794 0.08611 0.54011 0.0
C289 C 0.93592 0.09098 0.57001 0.0
C290 C 0.88902 0.11628 0.55154 0.0
C291 C 0.90836 0.102 0.5285 0.0
C292 C 0.82744 0.16297 0.63031 0.0
O293 O 0.82839 0.14977 0.6569 0.0
H294 H 0.95578 0.08181 0.58616 0.0
H295 H 0.86402 0.13075 0.54959 0.0
O296 O 0.88441 0.08686 0.64165 0.0
H297 H 1.00465 0.15278 0.67471 0.0
H298 H 0.90086 0.10297 0.50505 0.0
Cu299 Cu 0.41071 0.93001 0.64279 0.0
N300 N 0.4516 0.92611 0.66897 0.0
N301 N 0.49684 0.94019 0.70146 0.0
C302 C 0.47571 0.94932 0.67784 0.0
C303 C 0.48628 0.9097 0.70701 0.0
C304 C 0.45843 0.90114 0.68699 0.0
O305 O 0.42585 0.95636 0.60855 0.0
C306 C 0.37197 0.96543 0.68791 0.0
O307 O 0.40545 0.97672 0.69479 0.0
H308 H 0.47537 0.97328 0.66882 0.0
H309 H 0.44269 0.87891 0.68669 0.0
N310 N 0.39602 0.88914 0.62992 0.0
N311 N 0.36247 0.84388 0.62426 0.0
C312 C 0.36298 0.87398 0.63539 0.0
C313 C 0.41712 0.86801 0.61484 0.0
C314 C 0.39659 0.84016 0.6113 0.0
C315 C 0.42668 0.98673 0.61003 0.0
O316 O 0.41533 1.00069 0.63473 0.0
H317 H 0.34017 0.88461 0.64792 0.0
H318 H 0.44565 0.87247 0.60728 0.0
O319 O 0.36821 0.94718 0.66524 0.0
H320 H 0.49676 0.89499 0.72501 0.0
H321 H 0.40607 0.8189 0.59986 0.0
Cu322 Cu 0.62637 0.40457 0.62093 0.0
N323 N 0.59307 0.37656 0.63916 0.0
N324 N 0.57466 0.34028 0.67259 0.0
C325 C 0.6041 0.35462 0.65902 0.0
C326 C 0.54365 0.35331 0.66019 0.0
C327 C 0.55518 0.37591 0.63953 0.0
O328 O 0.67433 0.38207 0.62381 0.0
C329 C 0.62931 0.44248 0.67255 0.0
O330 O 0.64231 0.41595 0.68416 0.0
H331 H 0.63338 0.35027 0.66419 0.0
H332 H 0.53737 0.39174 0.62682 0.0
N333 N 0.6097 0.41086 0.58182 0.0
N334 N 0.57732 0.43034 0.54295 0.0
C335 C 0.58924 0.43543 0.57139 0.0
C336 C 0.61039 0.38931 0.55955 0.0
C337 C 0.59102 0.40134 0.53551 0.0
C338 C 0.69553 0.3728 0.60254 0.0
O339 O 0.69104 0.3847 0.57563 0.0
H340 H 0.5818 0.45578 0.58502 0.0
H341 H 0.62279 0.36587 0.56111 0.0
O342 O 0.62369 0.4437 0.64442 0.0
H343 H 0.51486 0.34821 0.66672 0.0
H344 H 0.58672 0.38902 0.51451 0.0
Cu345 Cu 0.11073 0.59196 0.64036 0.0
N346 N 0.07192 0.59399 0.66869 0.0
N347 N 0.02964 0.57931 0.70341 0.0
C348 C 0.05151 0.56969 0.68033 0.0
C349 C 0.03621 0.61102 0.70593 0.0
C350 C 0.06227 0.61992 0.68461 0.0
O351 O 0.09446 0.56624 0.60583 0.0
C352 C 0.15665 0.55528 0.68086 0.0
O353 O 0.12614 0.53898 0.68772 0.0
H354 H 0.05359 0.54528 0.67261 0.0
H355 H 0.07465 0.64342 0.68179 0.0
N356 N 0.12334 0.63359 0.62833 0.0
N357 N 0.156 0.67941 0.62351 0.0
C358 C 0.15659 0.64871 0.63294 0.0
C359 C 0.10089 0.65537 0.61554 0.0
C360 C 0.1209 0.6836 0.61254 0.0
C361 C 0.09323 0.53584 0.60679 0.0
O362 O 0.1048 0.52138 0.63109 0.0
H363 H 0.18039 0.63762 0.64379 0.0
H364 H 0.07181 0.65115 0.60931 0.0
O365 O 0.15564 0.57633 0.66035 0.0
H366 H 0.02459 0.62646 0.72298 0.0
H367 H 0.11035 0.70547 0.6029 0.0
H368 H 0.22805 0.68571 0.1025 0.0
H369 H 0.32426 0.82427 0.19924 0.0
H370 H 0.20055 0.69468 0.19617 0.0
H371 H 0.29536 0.83415 0.10598 0.0
H372 H 0.28832 0.77341 0.20048 0.0
H373 H 0.26322 0.73585 0.10521 0.0
C374 C 0.22968 0.69797 0.12383 0.0
C375 C 0.21113 0.68561 0.14917 0.0
C376 C 0.28977 0.78693 0.17986 0.0
C377 C 0.25207 0.74373 0.15238 0.0
C378 C 0.31029 0.81594 0.17911 0.0
C379 C 0.31277 0.83386 0.15251 0.0
C380 C 0.27249 0.77526 0.15362 0.0
C381 C 0.29415 0.82158 0.12711 0.0
C382 C 0.24968 0.72686 0.12526 0.0
C383 C 0.21432 0.70315 0.17604 0.0
N384 N 0.27533 0.79313 0.12824 0.0
N385 N 0.23452 0.73119 0.177 0.0
H386 H 0.82945 0.21752 0.0825 0.0
H387 H 0.69975 0.30978 0.20151 0.0
H388 H 0.84235 0.20623 0.17785 0.0
H389 H 0.68422 0.31461 0.10591 0.0
H390 H 0.75202 0.27273 0.19388 0.0
H391 H 0.77818 0.25477 0.09124 0.0
C392 C 0.82186 0.22312 0.10538 0.0
C393 C 0.84061 0.20853 0.12945 0.0
C394 C 0.73707 0.28172 0.17456 0.0
C395 C 0.78072 0.25137 0.13968 0.0
C396 C 0.70697 0.30282 0.17888 0.0
C397 C 0.68709 0.31538 0.15433 0.0
C398 C 0.7479 0.2731 0.14541 0.0
C399 C 0.69823 0.30547 0.12559 0.0
C400 C 0.79225 0.24437 0.11034 0.0
C401 C 0.82911 0.21696 0.15855 0.0
N402 N 0.72783 0.28517 0.12197 0.0
N403 N 0.79986 0.23762 0.16283 0.0
H404 H 0.22899 0.84399 0.3661 0.0
H405 H 0.29871 0.67486 0.30011 0.0
H406 H 0.19552 0.80807 0.27949 0.0
H407 H 0.33587 0.71479 0.3842 0.0
H408 H 0.25917 0.72229 0.29245 0.0
H409 H 0.26758 0.79629 0.37318 0.0
C410 C 0.22999 0.8263 0.34842 0.0
C411 C 0.20891 0.83036 0.32209 0.0
C412 C 0.27593 0.72056 0.31262 0.0
C413 C 0.25299 0.77508 0.33021 0.0
C414 C 0.29837 0.69336 0.31706 0.0
C415 C 0.32088 0.69067 0.3428 0.0
C416 C 0.27577 0.74526 0.33414 0.0
C417 C 0.3193 0.71568 0.36389 0.0
C418 C 0.25194 0.79888 0.35253 0.0
C419 C 0.21123 0.8062 0.30016 0.0
N420 N 0.29735 0.7417 0.3591 0.0
N421 N 0.23267 0.77973 0.30472 0.0
H422 H 0.87197 0.27013 0.40519 0.0
H423 H 0.64979 0.25388 0.37906 0.0
H424 H 0.80485 0.34739 0.37103 0.0
H425 H 0.72177 0.17207 0.38908 0.0
H426 H 0.70509 0.28873 0.37973 0.0
H427 H 0.81683 0.23513 0.40347 0.0
C428 C 0.84558 0.27997 0.39748 0.0
C429 C 0.84337 0.31211 0.38834 0.0
C430 C 0.70895 0.2632 0.38177 0.0
C431 C 0.77936 0.27143 0.38634 0.0
C432 C 0.67725 0.24309 0.38153 0.0
C433 C 0.68081 0.20971 0.38421 0.0
C434 C 0.74498 0.25021 0.38514 0.0
C435 C 0.71745 0.19752 0.387 0.0
C436 C 0.81402 0.25971 0.39637 0.0
C437 C 0.80809 0.32299 0.37848 0.0
N438 N 0.74799 0.21774 0.38761 0.0
N439 N 0.77756 0.30277 0.37785 0.0
H440 H 0.73824 0.35021 0.85646 0.0
H441 H 0.80308 0.17489 0.89833 0.0
H442 H 0.83145 0.336 0.91657 0.0
H443 H 0.6867 0.19937 0.88372 0.0
H444 H 0.81969 0.23189 0.89733 0.0
H445 H 0.72493 0.29296 0.85756 0.0
C446 C 0.75656 0.33491 0.86937 0.0
C447 C 0.78686 0.34788 0.88571 0.0
C448 C 0.79055 0.22467 0.89432 0.0
C449 C 0.77151 0.28204 0.88716 0.0
C450 C 0.78098 0.19216 0.89479 0.0
C451 C 0.74336 0.18215 0.89066 0.0
C452 C 0.76247 0.24736 0.8891 0.0
C453 C 0.71603 0.20576 0.88646 0.0
C454 C 0.74874 0.30225 0.87012 0.0
C455 C 0.8091 0.32688 0.90248 0.0
N456 N 0.72615 0.23716 0.88547 0.0
N457 N 0.80115 0.2949 0.90266 0.0
H458 H 0.3218 0.70538 0.8404 0.0
H459 H 0.17969 0.81385 0.93434 0.0
H460 H 0.33097 0.72107 0.93549 0.0
H461 H 0.19352 0.82555 0.83914 0.0
H462 H 0.23078 0.77517 0.93436 0.0
H463 H 0.27053 0.74464 0.83857 0.0
C464 C 0.31299 0.71699 0.86087 0.0
C465 C 0.33092 0.71004 0.88812 0.0
C466 C 0.22275 0.78618 0.91342 0.0
C467 C 0.27223 0.75475 0.88623 0.0
C468 C 0.19337 0.80815 0.91338 0.0
C469 C 0.18213 0.82291 0.88669 0.0
C470 C 0.24098 0.77838 0.8865 0.0
C471 C 0.20141 0.81489 0.86024 0.0
C472 C 0.28392 0.73951 0.85978 0.0
C473 C 0.31844 0.72596 0.91394 0.0
N474 N 0.22972 0.79299 0.86075 0.0
N475 N 0.28986 0.74733 0.91237 0.0
H476 H 0.73961 0.34168 0.56125 0.0
H477 H 0.78254 0.19448 0.67045 0.0
H478 H 0.70463 0.33752 0.65373 0.0
H479 H 0.82406 0.20034 0.57979 0.0
H480 H 0.75271 0.24636 0.66413 0.0
H481 H 0.77117 0.29036 0.56746 0.0
C482 C 0.73894 0.33025 0.58297 0.0
C483 C 0.71933 0.34409 0.60698 0.0
C484 C 0.76823 0.23629 0.64556 0.0
C485 C 0.75495 0.28488 0.6141 0.0
C486 C 0.78512 0.20649 0.64909 0.0
C487 C 0.80588 0.19286 0.62562 0.0
C488 C 0.77201 0.25277 0.61833 0.0
C489 C 0.80829 0.20979 0.59851 0.0
C490 C 0.7568 0.30079 0.58645 0.0
C491 C 0.71935 0.32791 0.63454 0.0
N492 N 0.79168 0.23883 0.59565 0.0
N493 N 0.73662 0.29918 0.63726 0.0
H494 H 0.23159 0.66855 0.62563 0.0
H495 H 0.28721 0.85473 0.63089 0.0
H496 H 0.14978 0.74421 0.62528 0.0
H497 H 0.3683 0.77913 0.6216 0.0
H498 H 0.23666 0.81462 0.63231 0.0
H499 H 0.28204 0.70863 0.62752 0.0
C500 C 0.22414 0.69354 0.62613 0.0
C501 C 0.18619 0.70287 0.62515 0.0
C502 C 0.26554 0.80682 0.62996 0.0
C503 C 0.24412 0.74913 0.62715 0.0
C504 C 0.2945 0.82975 0.62933 0.0
C505 C 0.33225 0.82046 0.62593 0.0
C506 C 0.27425 0.77423 0.62736 0.0
C507 C 0.33972 0.78759 0.62374 0.0
C508 C 0.25304 0.71648 0.62704 0.0
C509 C 0.1785 0.73577 0.62553 0.0
N510 N 0.31109 0.76577 0.62449 0.0
N511 N 0.20712 0.75763 0.62651 0.0
H512 H 0.95432 0.44069 0.28732 0.0
H513 H 0.10085 0.5879 0.2749 0.0
H514 H 0.01071 0.48496 0.36215 0.0
H515 H 0.06106 0.53668 0.19711 0.0
H516 H 0.06345 0.55255 0.30658 0.0
H517 H 0.98693 0.47847 0.25345 0.0
C518 C 0.97252 0.45903 0.29669 0.0
C519 C 0.9793 0.4601 0.32768 0.0
C520 C 0.06288 0.54884 0.2826 0.0
C521 C 0.01747 0.50269 0.28913 0.0
C522 C 0.08446 0.56905 0.26441 0.0
C523 C 0.08445 0.56532 0.23317 0.0
C524 C 0.04058 0.52455 0.26971 0.0
C525 C 0.06228 0.54037 0.22107 0.0
C526 C 0.99162 0.48024 0.27734 0.0
C527 C 1.00427 0.48356 0.33849 0.0
N528 N 0.04117 0.52103 0.23932 0.0
N529 N 0.02236 0.50374 0.31937 0.0
H530 H 1.00461 0.07082 0.16283 0.0
H531 H 0.0945 0.99902 0.31317 0.0
H532 H 0.96529 0.09447 0.25143 0.0
H533 H 0.1078 0.95518 0.22641 0.0
H534 H 0.05663 0.04098 0.29012 0.0
H535 H 0.05165 0.0354 0.18511 0.0
C536 C 1.00619 0.06899 0.18697 0.0
C537 C 0.9807 0.08564 0.20523 0.0
C538 C 0.06815 0.02236 0.27608 0.0
C539 C 0.0347 0.04498 0.23093 0.0
C540 C 0.09005 0.99844 0.2892 0.0
C541 C 0.1044 0.9733 0.27178 0.0
C542 C 0.06071 0.0215 0.24518 0.0
C543 C 0.09729 0.97392 0.24081 0.0
C544 C 0.03295 0.04858 0.19967 0.0
C545 C 0.98412 0.08204 0.23641 0.0
N546 N 0.07594 0.99749 0.22856 0.0
N547 N 1.01045 0.06214 0.24821 0.0
H548 H 0.51528 0.03385 0.36693 0.0
H549 H 0.46365 0.98245 0.19879 0.0
H550 H 0.57076 0.07592 0.2907 0.0
H551 H 0.42571 0.93202 0.27748 0.0
H552 H 0.50183 0.01783 0.23094 0.0
H553 H 0.48289 0.99631 0.33378 0.0
C554 C 0.52144 0.03455 0.34318 0.0
C555 C 0.5464 0.05759 0.33167 0.0
C556 C 0.48511 0.99903 0.24112 0.0
C557 C 0.50789 0.01533 0.29304 0.0
C558 C 0.463 0.97896 0.2228 0.0
C559 C 0.44116 0.95414 0.23536 0.0
C560 C 0.48527 0.99446 0.27231 0.0
C561 C 0.44191 0.95071 0.26664 0.0
C562 C 0.50259 0.0133 0.32415 0.0
C563 C 0.5525 0.05798 0.30058 0.0
N564 N 0.46341 0.97055 0.28388 0.0
N565 N 0.53306 0.03741 0.28228 0.0
H566 H 0.51868 0.44644 0.15952 0.0
H567 H 0.43409 0.51783 0.31233 0.0
H568 H 0.56136 0.4226 0.24699 0.0
H569 H 0.41527 0.56013 0.22569 0.0
H570 H 0.47201 0.4763 0.28841 0.0
H571 H 0.47217 0.48141 0.18313 0.0
C572 C 0.51795 0.44811 0.1837 0.0
C573 C 0.54421 0.43151 0.20123 0.0
C574 C 0.45927 0.49448 0.2746 0.0
C575 C 0.49084 0.47176 0.22848 0.0
C576 C 0.43734 0.51814 0.28822 0.0
C577 C 0.42138 0.54271 0.27106 0.0
C578 C 0.4651 0.49503 0.24347 0.0
C579 C 0.42703 0.54182 0.2399 0.0
C580 C 0.49149 0.46829 0.19717 0.0
C581 C 0.54188 0.43496 0.23251 0.0
N582 N 0.4484 0.51852 0.22717 0.0
N583 N 0.51584 0.45467 0.24507 0.0
H584 H 0.97118 0.59791 0.73854 0.0
H585 H 0.94459 0.42608 0.81493 0.0
H586 H 0.03719 0.5156 0.71458 0.0
H587 H 0.88382 0.51016 0.84212 0.0
H588 H 0.9766 0.45764 0.77638 0.0
H589 H 0.9368 0.56536 0.77479 0.0
C590 C 0.97851 0.57301 0.74085 0.0
C591 C 1.00739 0.55966 0.72345 0.0
C592 C 0.95625 0.46918 0.79077 0.0
C593 C 0.96771 0.52198 0.765 0.0
C594 C 0.93794 0.45117 0.81283 0.0
C595 C 0.9115 0.46548 0.83194 0.0
C596 C 0.94812 0.5018 0.78771 0.0
C597 C 0.904 0.49808 0.828 0.0
C598 C 0.95871 0.55436 0.76153 0.0
C599 C 0.01502 0.52699 0.72718 0.0
N600 N 0.92223 0.5151 0.8064 0.0
N601 N 0.99544 0.50936 0.7476 0.0
H602 H 0.99313 0.92195 0.74339 0.0
H603 H 0.88595 0.08899 0.73088 0.0
H604 H 0.97994 0.98857 0.81626 0.0
H605 H 0.91032 0.02992 0.65417 0.0
H606 H 0.91207 0.04813 0.76338 0.0
H607 H 0.95571 0.95714 0.71143 0.0
C608 C 0.982 0.94376 0.75279 0.0
C609 C 0.98987 0.95238 0.78257 0.0
C610 C 0.91141 0.04387 0.73948 0.0
C611 C 0.94715 0.99282 0.74606 0.0
C612 C 0.89629 0.06718 0.72086 0.0
C613 C 0.89615 0.06303 0.68969 0.0
C614 C 0.92679 0.01611 0.72695 0.0
C615 C 0.90981 0.03414 0.67808 0.0
C616 C 0.96081 0.96392 0.73448 0.0
C617 C 0.97507 0.98116 0.79339 0.0
N618 N 0.92497 0.01191 0.69669 0.0
N619 N 0.95457 1.0003 0.77517 0.0
H620 H 0.60308 0.03491 0.85126 0.0
H621 H 0.53504 0.99377 0.68453 0.0
H622 H 0.63585 0.09008 0.77384 0.0
H623 H 0.51271 0.93332 0.76072 0.0
H624 H 0.5722 0.02929 0.71674 0.0
H625 H 0.57046 0.99709 0.81833 0.0
C626 C 0.60375 0.03894 0.82732 0.0
C627 C 0.62233 0.06576 0.81535 0.0
C628 C 0.55938 1.00812 0.72636 0.0
C629 C 0.58461 0.02261 0.77745 0.0
C630 C 0.538 0.98788 0.70798 0.0
C631 C 0.5207 0.96038 0.71981 0.0
C632 C 0.56337 1.00099 0.75692 0.0
C633 C 0.52588 0.95389 0.7504 0.0
C634 C 0.58502 0.01734 0.80851 0.0
C635 C 0.62201 0.06975 0.78412 0.0
N636 N 0.54653 0.97409 0.76786 0.0
N637 N 0.6033 0.04855 0.76631 0.0
H638 H 0.63107 0.44428 0.73377 0.0
H639 H 0.50769 0.60303 0.74679 0.0
H640 H 0.59448 0.49868 0.65727 0.0
H641 H 0.53021 0.54036 0.82112 0.0
H642 H 0.54539 0.56867 0.71454 0.0
H643 H 0.60075 0.4829 0.76667 0.0
C644 C 0.61706 0.46455 0.72384 0.0
C645 C 0.61524 0.46809 0.69261 0.0
C646 C 0.54222 0.5625 0.73794 0.0
C647 C 0.58008 0.51244 0.73036 0.0
C648 C 0.52086 0.58227 0.75648 0.0
C649 C 0.51565 0.57466 0.78684 0.0
C650 C 0.55874 0.5349 0.74976 0.0
C651 C 0.53304 0.54704 0.79785 0.0
C652 C 0.59957 0.48655 0.74271 0.0
C653 C 0.59661 0.49491 0.68117 0.0
N654 N 0.55372 0.52819 0.77935 0.0
N655 N 0.5796 0.51594 0.70003 0.0
H656 H 0.04038 0.67548 0.24293 0.0
H657 H 0.01477 0.79768 0.34118 0.0
H658 H 1.00654 0.73952 0.17274 0.0
H659 H 0.03783 0.85626 0.26385 0.0
H660 H 0.99784 0.75355 0.30809 0.0
H661 H 0.02892 0.71711 0.27967 0.0
C662 C 0.02952 0.69821 0.23546 0.0
C663 C 0.02454 0.70433 0.20493 0.0
C664 C 1.00655 0.77606 0.29834 0.0
C665 C 0.01062 0.75208 0.24677 0.0
C666 C 0.01562 0.80146 0.31724 0.0
C667 C 0.02869 0.83041 0.30521 0.0
C668 C 0.01104 0.77964 0.26729 0.0
C669 C 0.02901 0.83397 0.27399 0.0
C670 C 0.0225 0.7219 0.25646 0.0
C671 C 1.01045 0.73401 0.19618 0.0
N672 N 0.02094 0.80868 0.25606 0.0
N673 N 1.00474 0.75714 0.21702 0.0
H674 H 0.74169 0.06688 0.19349 0.0
H675 H 0.64176 0.21404 0.27074 0.0
H676 H 0.78426 0.16361 0.18749 0.0
H677 H 0.58477 0.1245 0.25493 0.0
H678 H 0.69295 0.19699 0.23776 0.0
H679 H 0.68315 0.08754 0.2147 0.0
C680 C 0.7388 0.09239 0.19644 0.0
C681 C 0.76841 0.11335 0.18897 0.0
C682 C 0.66881 0.18134 0.24081 0.0
C683 C 0.70149 0.13717 0.21335 0.0
C684 C 0.63948 0.19128 0.2593 0.0
C685 C 0.60895 0.17083 0.26515 0.0
C686 C 0.66794 0.15037 0.22863 0.0
C687 C 0.60757 0.14115 0.25053 0.0
C688 C 0.70532 0.10419 0.20852 0.0
C689 C 0.76293 0.14625 0.19353 0.0
N690 N 0.63703 0.13153 0.23337 0.0
N691 N 0.73034 0.15705 0.20559 0.0
H692 H 0.50552 0.72121 0.3333 0.0
H693 H 0.50748 0.77751 0.16281 0.0
H694 H 0.482 0.65936 0.25834 0.0
H695 H 0.49707 0.84111 0.23818 0.0
H696 H 0.51787 0.73306 0.19743 0.0
H697 H 0.52205 0.76417 0.29836 0.0
C698 C 0.50486 0.71651 0.30948 0.0
C699 C 0.4921 0.68702 0.2985 0.0
C700 C 0.51413 0.75689 0.20635 0.0
C701 C 0.51053 0.73567 0.25866 0.0
C702 C 0.50852 0.78218 0.18663 0.0
C703 C 0.50113 0.81272 0.19786 0.0
C704 C 0.51254 0.76244 0.23734 0.0
C705 C 0.50226 0.81768 0.22886 0.0
C706 C 0.514 0.74098 0.28959 0.0
C707 C 0.49126 0.68204 0.2675 0.0
N708 N 0.50741 0.7927 0.2476 0.0
N709 N 0.49996 0.70627 0.24858 0.0
H710 H 0.77454 0.39591 0.14433 0.0
H711 H 0.85307 0.35938 0.30619 0.0
H712 H 0.73682 0.44199 0.22525 0.0
H713 H 0.92587 0.34801 0.22932 0.0
H714 H 0.80476 0.38015 0.27427 0.0
H715 H 0.82628 0.37151 0.17275 0.0
C716 C 0.77754 0.4013 0.16792 0.0
C717 C 0.75147 0.42119 0.18241 0.0
C718 C 0.83117 0.37291 0.26425 0.0
C719 C 0.80968 0.39296 0.2149 0.0
C720 C 0.85892 0.36033 0.28248 0.0
C721 C 0.89407 0.35146 0.27054 0.0
C722 C 0.83811 0.37691 0.23367 0.0
C723 C 0.89935 0.35456 0.23948 0.0
C724 C 0.80693 0.38737 0.18403 0.0
C725 C 0.75648 0.42731 0.213 0.0
N726 N 0.87165 0.36716 0.22202 0.0
N727 N 0.78469 0.41297 0.22824 0.0
H728 H 0.97903 0.16722 0.72323 0.0
H729 H 0.89234 0.32658 0.79173 0.0
H730 H 0.92119 0.23768 0.67049 0.0
H731 H 0.92712 0.24647 0.84579 0.0
H732 H 0.90686 0.29619 0.7471 0.0
H733 H 0.9664 0.19867 0.76822 0.0
C734 C 0.96441 0.18968 0.72105 0.0
C735 C 0.9514 0.20008 0.69309 0.0
C736 C 0.91128 0.28528 0.76876 0.0
C737 C 0.93611 0.23575 0.74446 0.0
C738 C 0.90274 0.30259 0.79447 0.0
C739 C 0.90861 0.28933 0.82298 0.0
C740 C 0.92614 0.2545 0.77137 0.0
C741 C 0.92266 0.25807 0.82452 0.0
C742 C 0.95674 0.20738 0.74677 0.0
C743 C 0.93169 0.22892 0.69166 0.0
N744 N 0.9311 0.24181 0.7991 0.0
N745 N 0.92459 0.24575 0.71699 0.0
H746 H 0.37404 0.99375 0.74302 0.0
H747 H 0.16022 0.95036 0.78263 0.0
H748 H 0.29807 0.94657 0.68141 0.0
H749 H 0.24506 0.96968 0.84969 0.0
H750 H 0.20746 0.95846 0.7437 0.0
H751 H 0.32383 0.99477 0.78037 0.0
C752 C 0.34666 0.98399 0.73715 0.0
C753 C 0.34034 0.96985 0.70905 0.0
C754 C 0.21568 0.96113 0.76692 0.0
C755 C 0.28282 0.97093 0.75183 0.0
C756 C 0.18871 0.95663 0.78922 0.0
C757 C 0.19874 0.95915 0.81956 0.0
C758 C 0.25295 0.96849 0.7749 0.0
C759 C 0.23612 0.96733 0.82662 0.0
C760 C 0.31809 0.98444 0.75859 0.0
C761 C 0.30426 0.95758 0.7028 0.0
N762 N 0.26193 0.97163 0.80444 0.0
N763 N 0.27689 0.95829 0.72409 0.0
H764 H 0.65082 0.23048 0.82268 0.0
H765 H 0.52187 0.29694 0.69051 0.0
H766 H 0.53147 0.21102 0.81701 0.0
H767 H 0.63206 0.33483 0.71241 0.0
H768 H 0.52616 0.26128 0.73382 0.0
H769 H 0.64601 0.26489 0.77878 0.0
C770 C 0.6236 0.23351 0.81215 0.0
C771 C 0.59145 0.21805 0.82347 0.0
C772 C 0.54934 0.27745 0.729 0.0
C773 C 0.58567 0.25724 0.77332 0.0
C774 C 0.54686 0.29782 0.70438 0.0
C775 C 0.57667 0.3188 0.69763 0.0
C776 C 0.58189 0.27809 0.74689 0.0
C777 C 0.60865 0.31868 0.71621 0.0
C778 C 0.62082 0.2532 0.7872 0.0
C779 C 0.55678 0.22292 0.80919 0.0
N780 N 0.61038 0.29864 0.73992 0.0
N781 N 0.5548 0.24202 0.78471 0.0
H782 H 0.31244 0.60812 0.81772 0.0
H783 H 0.18088 0.50437 0.7139 0.0
H784 H 0.34645 0.51244 0.79477 0.0
H785 H 0.20683 0.60284 0.69359 0.0
H786 H 0.23221 0.50461 0.75101 0.0
H787 H 0.26202 0.60437 0.78049 0.0
C788 C 0.30886 0.58611 0.80524 0.0
C789 C 0.33359 0.56051 0.80928 0.0
C790 C 0.22669 0.52596 0.73814 0.0
C791 C 0.27606 0.55616 0.76693 0.0
C792 C 0.1976 0.52587 0.71705 0.0
C793 C 0.18984 0.55356 0.7006 0.0
C794 C 0.2471 0.55424 0.74336 0.0
C795 C 0.21213 0.58088 0.70558 0.0
C796 C 0.28039 0.58415 0.78385 0.0
C797 C 0.32796 0.53269 0.79222 0.0
N798 N 0.23941 0.58069 0.72687 0.0
N799 N 0.29955 0.53114 0.77181 0.0
H800 H 0.03789 0.53462 0.10233 0.0
H801 H 0.98606 0.46018 0.94201 0.0
H802 H 0.09484 0.56153 0.02069 0.0
H803 H 0.92577 0.43872 0.0236 0.0
H804 H 0.02746 0.49615 0.97027 0.0
H805 H 0.99895 0.4972 0.07394 0.0
C806 C 0.0426 0.53248 0.07851 0.0
C807 C 0.06981 0.55145 0.06396 0.0
C808 C 1.00519 0.48348 0.98195 0.0
C809 C 0.02459 0.50874 0.03104 0.0
C810 C 0.98133 0.46302 0.96578 0.0
C811 C 0.95227 0.44611 0.98034 0.0
C812 C 1.00004 0.48712 0.01296 0.0
C813 C 0.94801 0.45067 0.01134 0.0
C814 C 0.02004 0.51122 0.0622 0.0
C815 C 0.07395 0.54778 0.03284 0.0
N816 N 0.97156 0.47065 0.02653 0.0
N817 N 0.05158 0.52694 0.01744 0.0
H818 H 0.03448 0.99986 0.90555 0.0
H819 H 0.99895 0.05362 0.07574 0.0
H820 H 0.1 0.96441 0.9796 0.0
H821 H 0.93031 0.08253 1.00107 0.0
H822 H 0.03963 0.0242 0.04101 0.0
H823 H 0.9993 0.03332 0.94023 0.0
C824 C 0.04167 0.99921 0.9291 0.0
C825 C 0.07029 0.97913 0.93959 0.0
C826 C 0.01575 0.03711 0.03225 0.0
C827 C 0.02973 0.01757 0.97971 0.0
C828 C 0.99265 0.0541 0.05205 0.0
C829 C 0.96093 0.07042 0.04137 0.0
C830 C 1.00722 0.0366 1.0015 0.0
C831 C 0.95401 0.06989 0.01042 0.0
C832 C 0.02146 0.01835 0.94896 0.0
C833 C 0.07819 0.97944 0.97044 0.0
N834 N 0.97682 0.05325 0.99168 0.0
N835 N 0.05796 0.99824 0.9894 0.0
H836 H 0.47644 0.99195 0.10518 0.0
H837 H 0.55287 0.04342 0.94431 0.0
H838 H 0.42968 0.95615 0.02225 0.0
H839 H 0.58263 0.09307 0.02589 0.0
H840 H 0.50841 0.01071 0.97254 0.0
H841 H 0.51585 0.02874 0.0767 0.0
C842 C 0.47402 0.99182 0.08108 0.0
C843 C 0.44963 0.97034 0.06629 0.0
C844 C 0.52459 0.02887 0.98422 0.0
C845 C 0.49559 0.01249 0.03337 0.0
C846 C 0.55003 0.04775 0.96805 0.0
C847 C 0.57199 0.0712 0.98257 0.0
C848 C 0.52109 0.03317 0.01527 0.0
C849 C 0.56701 0.07509 0.01361 0.0
C850 C 0.49682 0.01288 0.06477 0.0
C851 C 0.44841 0.97158 0.03482 0.0
N852 N 0.5423 0.05621 0.02888 0.0
N853 N 0.47121 0.99204 0.01948 0.0
H854 H 0.44928 0.48419 0.90328 0.0
H855 H 0.55102 0.48544 0.06359 0.0
H856 H 0.45971 0.57 0.95634 0.0
H857 H 0.55914 0.40922 0.999 0.0
H858 H 0.51172 0.51535 0.02807 0.0
H859 H 0.48341 0.45505 0.94156 0.0
C860 C 0.45855 0.49695 0.92308 0.0
C861 C 0.45163 0.52972 0.92643 0.0
C862 C 0.52215 0.49206 0.02176 0.0
C863 C 0.49115 0.49617 0.97072 0.0
C864 C 0.54438 0.47492 0.04208 0.0
C865 C 0.55873 0.44485 0.03419 0.0
C866 C 0.51383 0.47884 0.99355 0.0
C867 C 0.54934 0.43247 0.00591 0.0
C868 C 0.47822 0.48023 0.94497 0.0
C869 C 0.46448 0.54479 0.95273 0.0
N870 N 0.52757 0.44944 0.98675 0.0
N871 N 0.48366 0.52792 0.97387 0.0
H872 H 0.07511 1.00653 0.40025 0.0
H873 H 0.98156 0.03757 0.56078 0.0
H874 H 0.10291 0.95178 0.47883 0.0
H875 H 0.95807 0.09323 0.48183 0.0
H876 H 0.0271 1.00652 0.53191 0.0
H877 H 0.03262 0.03878 0.43034 0.0
C878 C 0.07227 1.00121 0.42383 0.0
C879 C 0.09261 0.97624 0.43692 0.0
C880 C 0.01198 0.02558 0.52095 0.0
C881 C 0.04398 0.01344 0.47178 0.0
C882 C 0.98608 0.04344 0.53747 0.0
C883 C 0.96566 0.06801 0.52373 0.0
C884 C 0.01756 0.03234 0.49047 0.0
C885 C 0.97253 0.07422 0.49332 0.0
C886 C 0.04808 0.01979 0.44109 0.0
C887 C 0.08814 0.97093 0.46779 0.0
N888 N 0.99777 0.05651 0.47777 0.0
N889 N 0.06421 0.98927 0.48413 0.0
H890 H 0.53635 0.05806 0.44794 0.0
H891 H 0.43004 0.05176 0.60639 0.0
H892 H 0.50161 0.14103 0.49789 0.0
H893 H 0.45854 0.96685 0.55672 0.0
H894 H 0.45703 0.08427 0.56658 0.0
H895 H 0.50987 0.02392 0.48736 0.0
C896 C 0.52346 0.06918 0.46723 0.0
C897 C 0.52123 0.10265 0.46944 0.0
C898 C 0.45739 0.05854 0.56424 0.0
C899 C 0.49042 0.06353 0.51458 0.0
C900 C 0.44188 0.03987 0.58705 0.0
C901 C 0.44194 1.00642 0.58502 0.0
C902 C 0.47334 0.04385 0.539 0.0
C903 C 0.4578 0.99254 0.55928 0.0
C904 C 0.50808 0.0496 0.48965 0.0
C905 C 0.50364 0.11548 0.49488 0.0
N906 N 0.47293 0.0113 0.53731 0.0
N907 N 0.48901 0.09598 0.51632 0.0
H908 H 0.54149 0.41446 0.49077 0.0
H909 H 0.42784 0.57741 0.47728 0.0
H910 H 0.55577 0.49201 0.55388 0.0
H911 H 0.44104 0.51037 0.40477 0.0
H912 H 0.4696 0.54461 0.50817 0.0
H913 H 0.50013 0.44765 0.4614 0.0
C914 C 0.53635 0.43844 0.49858 0.0
C915 C 0.5527 0.45017 0.52513 0.0
C916 C 0.46331 0.53712 0.48549 0.0
C917 C 0.50417 0.4885 0.49125 0.0
C918 C 0.43926 0.55567 0.46796 0.0
C919 C 0.43093 0.54656 0.43842 0.0
C920 C 0.47869 0.50907 0.4735 0.0
C921 C 0.44696 0.51841 0.42731 0.0
C922 C 0.5124 0.45744 0.48166 0.0
C923 C 0.54384 0.48157 0.53386 0.0
N924 N 0.46991 0.50064 0.44487 0.0
N925 N 0.52013 0.49958 0.51702 0.0
H926 H 0.02086 0.37774 0.49585 0.0
H927 H 0.06277 0.55642 0.55317 0.0
H928 H 0.98941 0.46077 0.44494 0.0
H929 H 0.08789 0.47097 0.60296 0.0
H930 H 0.03616 0.52297 0.51295 0.0
H931 H 0.0456 0.41251 0.53501 0.0
C932 C 0.01922 0.40332 0.49284 0.0
C933 C 1.00313 0.41621 0.4669 0.0
C934 C 0.04753 0.51163 0.53271 0.0
C935 C 0.03149 0.4566 0.51206 0.0
C936 C 0.06281 0.5307 0.55565 0.0
C937 C 0.07771 0.51655 0.58156 0.0
C938 C 0.04719 0.47818 0.5357 0.0
C939 C 0.07684 0.48308 0.5835 0.0
C940 C 0.03326 0.42327 0.51534 0.0
C941 C 1.00126 0.4497 0.46462 0.0
N942 N 0.06193 0.46519 0.561 0.0
N943 N 0.01542 0.46873 0.48683 0.0
loop_
_geom_bond_atom_site_label_1
_geom_bond_atom_site_label_2
_geom_bond_distance
_geom_bond_site_symmetry_2
_ccdc_geom_bond_type
Cu0 N1 1.999 . S
Cu0 O6 1.974 . S
Cu0 N11 1.985 . S
Cu0 O20 1.959 . S
N1 Cu0 1.999 . S
N1 C3 1.263 . S
N1 C5 1.389 . S
N2 C3 1.358 . S
N2 C4 1.400 . S
C3 N1 1.263 . S
C3 N2 1.358 . S
C3 H9 0.930 . S
C4 N2 1.400 . S
C4 C5 1.351 . S
C4 H21 0.930 . S
C5 N1 1.389 . S
C5 C4 1.351 . S
C5 H10 0.930 . S
O6 Cu0 1.974 . S
O6 C16 1.282 . S
C7 O8 1.261 . S
C7 O20 1.251 . S
O8 C7 1.261 . S
H9 C3 0.930 . S
H10 C5 0.930 . S
N11 Cu0 1.985 . S
N11 C13 1.335 . S
N11 C14 1.390 . S
N12 C13 1.345 . S
N12 C15 1.336 . S
C13 N11 1.335 . S
C13 N12 1.345 . S
C13 H18 0.930 . S
C14 N11 1.390 . S
C14 C15 1.346 . S
C14 H19 0.930 . S
C15 N12 1.336 . S
C15 C14 1.346 . S
C15 H22 0.929 . S
C16 O6 1.282 . S
C16 O17 1.216 . S
O17 C16 1.216 . S
H18 C13 0.930 . S
H19 C14 0.930 . S
O20 Cu0 1.959 . S
O20 C7 1.251 . S
H21 C4 0.930 . S
H22 C15 0.929 . S
Cu23 N24 1.999 . S
Cu23 O29 1.974 . S
Cu23 N34 1.985 . S
Cu23 O43 1.959 . S
N24 Cu23 1.999 . S
N24 C26 1.263 . S
N24 C28 1.389 . S
N25 C26 1.358 . S
N25 C27 1.400 . S
C26 N24 1.263 . S
C26 N25 1.358 . S
C26 H32 0.930 . S
C27 N25 1.400 . S
C27 C28 1.351 . S
C27 H44 0.930 . S
C28 N24 1.389 . S
C28 C27 1.351 . S
C28 H33 0.930 . S
O29 Cu23 1.974 . S
O29 C39 1.282 . S
C30 O31 1.261 . S
C30 O43 1.251 . S
O31 C30 1.261 . S
H32 C26 0.930 . S
H33 C28 0.930 . S
N34 Cu23 1.985 . S
N34 C36 1.335 . S
N34 C37 1.390 . S
N35 C36 1.345 . S
N35 C38 1.336 . S
C36 N34 1.335 . S
C36 N35 1.345 . S
C36 H41 0.930 . S
C37 N34 1.390 . S
C37 C38 1.346 . S
C37 H42 0.930 . S
C38 N35 1.336 . S
C38 C37 1.346 . S
C38 H45 0.929 . S
C39 O29 1.282 . S
C39 O40 1.216 . S
O40 C39 1.216 . S
H41 C36 0.930 . S
H42 C37 0.930 . S
O43 Cu23 1.959 . S
O43 C30 1.251 . S
H44 C27 0.930 . S
H45 C38 0.929 . S
Cu46 N47 1.999 . S
Cu46 O52 1.974 . S
Cu46 N57 1.985 . S
Cu46 O66 1.959 . S
N47 Cu46 1.999 . S
N47 C49 1.263 . S
N47 C51 1.389 . S
N48 C49 1.358 . S
N48 C50 1.400 . S
C49 N47 1.263 . S
C49 N48 1.358 . S
C49 H55 0.930 . S
C50 N48 1.400 . S
C50 C51 1.351 . S
C50 H67 0.930 . S
C51 N47 1.389 . S
C51 C50 1.351 . S
C51 H56 0.930 . S
O52 Cu46 1.974 . S
O52 C62 1.282 . S
C53 O54 1.261 . S
C53 O66 1.251 . S
O54 C53 1.261 . S
H55 C49 0.930 . S
H56 C51 0.930 . S
N57 Cu46 1.985 . S
N57 C59 1.335 . S
N57 C60 1.390 . S
N58 C59 1.345 . S
N58 C61 1.336 . S
C59 N57 1.335 . S
C59 N58 1.345 . S
C59 H64 0.930 . S
C60 N57 1.390 . S
C60 C61 1.346 . S
C60 H65 0.930 . S
C61 N58 1.336 . S
C61 C60 1.346 . S
C61 H68 0.929 . S
C62 O52 1.282 . S
C62 O63 1.216 . S
O63 C62 1.216 . S
H64 C59 0.930 . S
H65 C60 0.930 . S
O66 Cu46 1.959 . S
O66 C53 1.251 . S
H67 C50 0.930 . S
H68 C61 0.929 . S
Cu69 N70 1.999 . S
Cu69 O75 1.974 . S
Cu69 N80 1.985 . S
Cu69 O89 1.959 . S
N70 Cu69 1.999 . S
N70 C72 1.263 . S
N70 C74 1.389 . S
N71 C72 1.358 . S
N71 C73 1.400 . S
C72 N70 1.263 . S
C72 N71 1.358 . S
C72 H78 0.930 . S
C73 N71 1.400 . S
C73 C74 1.351 . S
C73 H90 0.930 . S
C74 N70 1.389 . S
C74 C73 1.351 . S
C74 H79 0.930 . S
O75 Cu69 1.974 . S
O75 C85 1.282 . S
C76 O77 1.261 . S
C76 O89 1.251 . S
O77 C76 1.261 . S
H78 C72 0.930 . S
H79 C74 0.930 . S
N80 Cu69 1.985 . S
N80 C82 1.335 . S
N80 C83 1.390 . S
N81 C82 1.345 . S
N81 C84 1.336 . S
C82 N80 1.335 . S
C82 N81 1.345 . S
C82 H87 0.930 . S
C83 N80 1.390 . S
C83 C84 1.346 . S
C83 H88 0.930 . S
C84 N81 1.336 . S
C84 C83 1.346 . S
C84 H91 0.929 . S
C85 O75 1.282 . S
C85 O86 1.216 . S
O86 C85 1.216 . S
H87 C82 0.930 . S
H88 C83 0.930 . S
O89 Cu69 1.959 . S
O89 C76 1.251 . S
H90 C73 0.930 . S
H91 C84 0.929 . S
Cu92 N93 1.999 . S
Cu92 O98 1.974 . S
Cu92 N103 1.985 . S
Cu92 O112 1.959 . S
N93 Cu92 1.999 . S
N93 C95 1.263 . S
N93 C97 1.389 . S
N94 C95 1.358 . S
N94 C96 1.400 . S
C95 N93 1.263 . S
C95 N94 1.358 . S
C95 H101 0.930 . S
C96 N94 1.400 . S
C96 C97 1.351 . S
C96 H113 0.930 . S
C97 N93 1.389 . S
C97 C96 1.351 . S
C97 H102 0.930 . S
O98 Cu92 1.974 . S
O98 C108 1.282 . S
C99 O100 1.261 . S
C99 O112 1.251 . S
O100 C99 1.261 . S
H101 C95 0.930 . S
H102 C97 0.930 . S
N103 Cu92 1.985 . S
N103 C105 1.335 . S
N103 C106 1.390 . S
N104 C105 1.345 . S
N104 C107 1.336 . S
C105 N103 1.335 . S
C105 N104 1.345 . S
C105 H110 0.930 . S
C106 N103 1.390 . S
C106 C107 1.346 . S
C106 H111 0.930 . S
C107 N104 1.336 . S
C107 C106 1.346 . S
C107 H114 0.929 . S
C108 O98 1.282 . S
C108 O109 1.216 . S
O109 C108 1.216 . S
H110 C105 0.930 . S
H111 C106 0.930 . S
O112 Cu92 1.959 . S
O112 C99 1.251 . S
H113 C96 0.930 . S
H114 C107 0.929 . S
Cu115 N116 1.999 . S
Cu115 O121 1.974 . S
Cu115 N126 1.985 . S
Cu115 O135 1.959 . S
N116 Cu115 1.999 . S
N116 C118 1.263 . S
N116 C120 1.389 . S
N117 C118 1.358 . S
N117 C119 1.400 . S
C118 N116 1.263 . S
C118 N117 1.358 . S
C118 H124 0.930 . S
C119 N117 1.400 . S
C119 C120 1.351 . S
C119 H136 0.930 . S
C120 N116 1.389 . S
C120 C119 1.351 . S
C120 H125 0.930 . S
O121 Cu115 1.974 . S
O121 C131 1.282 . S
C122 O123 1.261 . S
C122 O135 1.251 . S
O123 C122 1.261 . S
H124 C118 0.930 . S
H125 C120 0.930 . S
N126 Cu115 1.985 . S
N126 C128 1.335 . S
N126 C129 1.390 . S
N127 C128 1.345 . S
N127 C130 1.336 . S
C128 N126 1.335 . S
C128 N127 1.345 . S
C128 H133 0.930 . S
C129 N126 1.390 . S
C129 C130 1.346 . S
C129 H134 0.930 . S
C130 N127 1.336 . S
C130 C129 1.346 . S
C130 H137 0.929 . S
C131 O121 1.282 . S
C131 O132 1.216 . S
O132 C131 1.216 . S
H133 C128 0.930 . S
H134 C129 0.930 . S
O135 Cu115 1.959 . S
O135 C122 1.251 . S
H136 C119 0.930 . S
H137 C130 0.929 . S
Cu138 N139 1.999 . S
Cu138 O144 1.974 . S
Cu138 N149 1.985 . S
Cu138 O158 1.959 . S
N139 Cu138 1.999 . S
N139 C141 1.263 . S
N139 C143 1.389 . S
N140 C141 1.358 . S
N140 C142 1.400 . S
C141 N139 1.263 . S
C141 N140 1.358 . S
C141 H147 0.930 . S
C142 N140 1.400 . S
C142 C143 1.351 . S
C142 H159 0.930 . S
C143 N139 1.389 . S
C143 C142 1.351 . S
C143 H148 0.930 . S
O144 Cu138 1.974 . S
O144 C154 1.282 . S
C145 O146 1.261 . S
C145 O158 1.251 . S
O146 C145 1.261 . S
H147 C141 0.930 . S
H148 C143 0.930 . S
N149 Cu138 1.985 . S
N149 C151 1.335 . S
N149 C152 1.390 . S
N150 C151 1.345 . S
N150 C153 1.336 . S
C151 N149 1.335 . S
C151 N150 1.345 . S
C151 H156 0.930 . S
C152 N149 1.390 . S
C152 C153 1.346 . S
C152 H157 0.930 . S
C153 N150 1.336 . S
C153 C152 1.346 . S
C153 H160 0.929 . S
C154 O144 1.282 . S
C154 O155 1.216 . S
O155 C154 1.216 . S
H156 C151 0.930 . S
H157 C152 0.930 . S
O158 Cu138 1.959 . S
O158 C145 1.251 . S
H159 C142 0.930 . S
H160 C153 0.929 . S
Cu161 N162 1.999 . S
Cu161 O167 1.974 . S
Cu161 N172 1.985 . S
Cu161 O181 1.959 . S
N162 Cu161 1.999 . S
N162 C164 1.263 . S
N162 C166 1.389 . S
N163 C164 1.358 . S
N163 C165 1.400 . S
C164 N162 1.263 . S
C164 N163 1.358 . S
C164 H170 0.930 . S
C165 N163 1.400 . S
C165 C166 1.351 . S
C165 H182 0.930 . S
C166 N162 1.389 . S
C166 C165 1.351 . S
C166 H171 0.930 . S
O167 Cu161 1.974 . S
O167 C177 1.282 . S
C168 O169 1.261 . S
C168 O181 1.251 . S
O169 C168 1.261 . S
H170 C164 0.930 . S
H171 C166 0.930 . S
N172 Cu161 1.985 . S
N172 C174 1.335 . S
N172 C175 1.390 . S
N173 C174 1.345 . S
N173 C176 1.336 . S
C174 N172 1.335 . S
C174 N173 1.345 . S
C174 H179 0.930 . S
C175 N172 1.390 . S
C175 C176 1.346 . S
C175 H180 0.930 . S
C176 N173 1.336 . S
C176 C175 1.346 . S
C176 H183 0.929 . S
C177 O167 1.282 . S
C177 O178 1.216 . S
O178 C177 1.216 . S
H179 C174 0.930 . S
H180 C175 0.930 . S
O181 Cu161 1.959 . S
O181 C168 1.251 . S
H182 C165 0.930 . S
H183 C176 0.929 . S
Cu184 N185 1.999 . S
Cu184 O190 1.974 . S
Cu184 N195 1.985 . S
Cu184 O204 1.959 . S
N185 Cu184 1.999 . S
N185 C187 1.263 . S
N185 C189 1.389 . S
N186 C187 1.358 . S
N186 C188 1.400 . S
C187 N185 1.263 . S
C187 N186 1.358 . S
C187 H193 0.930 . S
C188 N186 1.400 . S
C188 C189 1.351 . S
C188 H205 0.930 . S
C189 N185 1.389 . S
C189 C188 1.351 . S
C189 H194 0.930 . S
O190 Cu184 1.974 . S
O190 C200 1.282 . S
C191 O192 1.261 . S
C191 O204 1.251 . S
O192 C191 1.261 . S
H193 C187 0.930 . S
H194 C189 0.930 . S
N195 Cu184 1.985 . S
N195 C197 1.335 . S
N195 C198 1.390 . S
N196 C197 1.345 . S
N196 C199 1.336 . S
C197 N195 1.335 . S
C197 N196 1.345 . S
C197 H202 0.930 . S
C198 N195 1.390 . S
C198 C199 1.346 . S
C198 H203 0.930 . S
C199 N196 1.336 . S
C199 C198 1.346 . S
C199 H206 0.929 . S
C200 O190 1.282 . S
C200 O201 1.216 . S
O201 C200 1.216 . S
H202 C197 0.930 . S
H203 C198 0.930 . S
O204 Cu184 1.959 . S
O204 C191 1.251 . S
H205 C188 0.930 . S
H206 C199 0.929 . S
Cu207 N208 1.999 . S
Cu207 O213 1.974 . S
Cu207 N218 1.985 . S
Cu207 O227 1.959 . S
N208 Cu207 1.999 . S
N208 C210 1.263 . S
N208 C212 1.389 . S
N209 C210 1.358 . S
N209 C211 1.400 . S
C210 N208 1.263 . S
C210 N209 1.358 . S
C210 H216 0.930 . S
C211 N209 1.400 . S
C211 C212 1.351 . S
C211 H228 0.930 . S
C212 N208 1.389 . S
C212 C211 1.351 . S
C212 H217 0.930 . S
O213 Cu207 1.974 . S
O213 C223 1.282 . S
C214 O215 1.261 . S
C214 O227 1.251 . S
O215 C214 1.261 . S
H216 C210 0.930 . S
H217 C212 0.930 . S
N218 Cu207 1.985 . S
N218 C220 1.335 . S
N218 C221 1.390 . S
N219 C220 1.345 . S
N219 C222 1.336 . S
C220 N218 1.335 . S
C220 N219 1.345 . S
C220 H225 0.930 . S
C221 N218 1.390 . S
C221 C222 1.346 . S
C221 H226 0.930 . S
C222 N219 1.336 . S
C222 C221 1.346 . S
C222 H229 0.929 . S
C223 O213 1.282 . S
C223 O224 1.216 . S
O224 C223 1.216 . S
H225 C220 0.930 . S
H226 C221 0.930 . S
O227 Cu207 1.959 . S
O227 C214 1.251 . S
H228 C211 0.930 . S
H229 C222 0.929 . S
Cu230 N231 1.999 . S
Cu230 O236 1.974 . S
Cu230 N241 1.985 . S
Cu230 O250 1.959 . S
N231 Cu230 1.999 . S
N231 C233 1.263 . S
N231 C235 1.389 . S
N232 C233 1.358 . S
N232 C234 1.400 . S
C233 N231 1.263 . S
C233 N232 1.358 . S
C233 H239 0.930 . S
C234 N232 1.400 . S
C234 C235 1.351 . S
C234 H251 0.930 . S
C235 N231 1.389 . S
C235 C234 1.351 . S
C235 H240 0.930 . S
O236 Cu230 1.974 . S
O236 C246 1.282 . S
C237 O238 1.261 . S
C237 O250 1.251 . S
O238 C237 1.261 . S
H239 C233 0.930 . S
H240 C235 0.930 . S
N241 Cu230 1.985 . S
N241 C243 1.335 . S
N241 C244 1.390 . S
N242 C243 1.345 . S
N242 C245 1.336 . S
C243 N241 1.335 . S
C243 N242 1.345 . S
C243 H248 0.930 . S
C244 N241 1.390 . S
C244 C245 1.346 . S
C244 H249 0.930 . S
C245 N242 1.336 . S
C245 C244 1.346 . S
C245 H252 0.929 . S
C246 O236 1.282 . S
C246 O247 1.216 . S
O247 C246 1.216 . S
H248 C243 0.930 . S
H249 C244 0.930 . S
O250 Cu230 1.959 . S
O250 C237 1.251 . S
H251 C234 0.930 . S
H252 C245 0.929 . S
Cu253 N254 1.999 . S
Cu253 O259 1.974 . S
Cu253 N264 1.985 . S
Cu253 O273 1.959 . S
N254 Cu253 1.999 . S
N254 C256 1.263 . S
N254 C258 1.389 . S
N255 C256 1.358 . S
N255 C257 1.400 . S
C256 N254 1.263 . S
C256 N255 1.358 . S
C256 H262 0.930 . S
C257 N255 1.400 . S
C257 C258 1.351 . S
C257 H274 0.930 . S
C258 N254 1.389 . S
C258 C257 1.351 . S
C258 H263 0.930 . S
O259 Cu253 1.974 . S
O259 C269 1.282 . S
C260 O261 1.261 . S
C260 O273 1.251 . S
O261 C260 1.261 . S
H262 C256 0.930 . S
H263 C258 0.930 . S
N264 Cu253 1.985 . S
N264 C266 1.335 . S
N264 C267 1.390 . S
N265 C266 1.345 . S
N265 C268 1.336 . S
C266 N264 1.335 . S
C266 N265 1.345 . S
C266 H271 0.930 . S
C267 N264 1.390 . S
C267 C268 1.346 . S
C267 H272 0.930 . S
C268 N265 1.336 . S
C268 C267 1.346 . S
C268 H275 0.929 . S
C269 O259 1.282 . S
C269 O270 1.216 . S
O270 C269 1.216 . S
H271 C266 0.930 . S
H272 C267 0.930 . S
O273 Cu253 1.959 . S
O273 C260 1.251 . S
H274 C257 0.930 . S
H275 C268 0.929 . S
Cu276 N277 1.999 . S
Cu276 O282 1.974 . S
Cu276 N287 1.985 . S
Cu276 O296 1.959 . S
N277 Cu276 1.999 . S
N277 C279 1.263 . S
N277 C281 1.389 . S
N278 C279 1.358 . S
N278 C280 1.400 . S
C279 N277 1.263 . S
C279 N278 1.358 . S
C279 H285 0.930 . S
C280 N278 1.400 . S
C280 C281 1.351 . S
C280 H297 0.930 . S
C281 N277 1.389 . S
C281 C280 1.351 . S
C281 H286 0.930 . S
O282 Cu276 1.974 . S
O282 C292 1.282 . S
C283 O284 1.261 . S
C283 O296 1.251 . S
O284 C283 1.261 . S
H285 C279 0.930 . S
H286 C281 0.930 . S
N287 Cu276 1.985 . S
N287 C289 1.335 . S
N287 C290 1.390 . S
N288 C289 1.345 . S
N288 C291 1.336 . S
C289 N287 1.335 . S
C289 N288 1.345 . S
C289 H294 0.930 . S
C290 N287 1.390 . S
C290 C291 1.346 . S
C290 H295 0.930 . S
C291 N288 1.336 . S
C291 C290 1.346 . S
C291 H298 0.929 . S
C292 O282 1.282 . S
C292 O293 1.216 . S
O293 C292 1.216 . S
H294 C289 0.930 . S
H295 C290 0.930 . S
O296 Cu276 1.959 . S
O296 C283 1.251 . S
H297 C280 0.930 . S
H298 C291 0.929 . S
Cu299 N300 1.999 . S
Cu299 O305 1.974 . S
Cu299 N310 1.985 . S
Cu299 O319 1.959 . S
N300 Cu299 1.999 . S
N300 C302 1.263 . S
N300 C304 1.389 . S
N301 C302 1.358 . S
N301 C303 1.400 . S
C302 N300 1.263 . S
C302 N301 1.358 . S
C302 H308 0.930 . S
C303 N301 1.400 . S
C303 C304 1.351 . S
C303 H320 0.930 . S
C304 N300 1.389 . S
C304 C303 1.351 . S
C304 H309 0.930 . S
O305 Cu299 1.974 . S
O305 C315 1.282 . S
C306 O307 1.261 . S
C306 O319 1.251 . S
O307 C306 1.261 . S
H308 C302 0.930 . S
H309 C304 0.930 . S
N310 Cu299 1.985 . S
N310 C312 1.335 . S
N310 C313 1.390 . S
N311 C312 1.345 . S
N311 C314 1.336 . S
C312 N310 1.335 . S
C312 N311 1.345 . S
C312 H317 0.930 . S
C313 N310 1.390 . S
C313 C314 1.346 . S
C313 H318 0.930 . S
C314 N311 1.336 . S
C314 C313 1.346 . S
C314 H321 0.929 . S
C315 O305 1.282 . S
C315 O316 1.216 . S
O316 C315 1.216 . S
H317 C312 0.930 . S
H318 C313 0.930 . S
O319 Cu299 1.959 . S
O319 C306 1.251 . S
H320 C303 0.930 . S
H321 C314 0.929 . S
Cu322 N323 1.999 . S
Cu322 O328 1.974 . S
Cu322 N333 1.985 . S
Cu322 O342 1.959 . S
N323 Cu322 1.999 . S
N323 C325 1.263 . S
N323 C327 1.389 . S
N324 C325 1.358 . S
N324 C326 1.400 . S
C325 N323 1.263 . S
C325 N324 1.358 . S
C325 H331 0.930 . S
C326 N324 1.400 . S
C326 C327 1.351 . S
C326 H343 0.930 . S
C327 N323 1.389 . S
C327 C326 1.351 . S
C327 H332 0.930 . S
O328 Cu322 1.974 . S
O328 C338 1.282 . S
C329 O330 1.261 . S
C329 O342 1.251 . S
O330 C329 1.261 . S
H331 C325 0.930 . S
H332 C327 0.930 . S
N333 Cu322 1.985 . S
N333 C335 1.335 . S
N333 C336 1.390 . S
N334 C335 1.345 . S
N334 C337 1.336 . S
C335 N333 1.335 . S
C335 N334 1.345 . S
C335 H340 0.930 . S
C336 N333 1.390 . S
C336 C337 1.346 . S
C336 H341 0.930 . S
C337 N334 1.336 . S
C337 C336 1.346 . S
C337 H344 0.929 . S
C338 O328 1.282 . S
C338 O339 1.216 . S
O339 C338 1.216 . S
H340 C335 0.930 . S
H341 C336 0.930 . S
O342 Cu322 1.959 . S
O342 C329 1.251 . S
H343 C326 0.930 . S
H344 C337 0.929 . S
Cu345 N346 1.999 . S
Cu345 O351 1.974 . S
Cu345 N356 1.985 . S
Cu345 O365 1.959 . S
N346 Cu345 1.999 . S
N346 C348 1.263 . S
N346 C350 1.389 . S
N347 C348 1.358 . S
N347 C349 1.400 . S
C348 N346 1.263 . S
C348 N347 1.358 . S
C348 H354 0.930 . S
C349 N347 1.400 . S
C349 C350 1.351 . S
C349 H366 0.930 . S
C350 N346 1.389 . S
C350 C349 1.351 . S
C350 H355 0.930 . S
O351 Cu345 1.974 . S
O351 C361 1.282 . S
C352 O353 1.261 . S
C352 O365 1.251 . S
O353 C352 1.261 . S
H354 C348 0.930 . S
H355 C350 0.930 . S
N356 Cu345 1.985 . S
N356 C358 1.335 . S
N356 C359 1.390 . S
N357 C358 1.345 . S
N357 C360 1.336 . S
C358 N356 1.335 . S
C358 N357 1.345 . S
C358 H363 0.930 . S
C359 N356 1.390 . S
C359 C360 1.346 . S
C359 H364 0.930 . S
C360 N357 1.336 . S
C360 C359 1.346 . S
C360 H367 0.929 . S
C361 O351 1.282 . S
C361 O362 1.216 . S
O362 C361 1.216 . S
H363 C358 0.930 . S
H364 C359 0.930 . S
O365 Cu345 1.959 . S
O365 C352 1.251 . S
H366 C349 0.930 . S
H367 C360 0.929 . S
H368 C374 0.930 . S
H369 C378 0.930 . S
H370 C383 0.929 . S
H371 C381 0.929 . S
H372 C376 0.929 . S
H373 C382 0.929 . S
C374 H368 0.930 . S
C374 C375 1.367 . S
C374 C382 1.378 . S
C375 C374 1.367 . S
C375 C383 1.433 . S
C376 H372 0.929 . S
C376 C378 1.378 . S
C376 C380 1.350 . S
C377 C380 1.463 . S
C377 C382 1.350 . S
C377 N385 1.427 . S
C378 H369 0.930 . S
C378 C376 1.378 . S
C378 C379 1.367 . S
C379 C378 1.367 . S
C379 C381 1.433 . S
C380 C376 1.350 . S
C380 C377 1.463 . S
C380 N384 1.427 . S
C381 H371 0.929 . S
C381 C379 1.433 . S
C381 N384 1.384 . S
C382 H373 0.929 . S
C382 C374 1.378 . S
C382 C377 1.350 . S
C383 H370 0.929 . S
C383 C375 1.433 . S
C383 N385 1.384 . S
N384 C380 1.427 . S
N384 C381 1.384 . S
N385 C377 1.427 . S
N385 C383 1.384 . S
H386 C392 0.930 . S
H387 C396 0.930 . S
H388 C401 0.929 . S
H389 C399 0.929 . S
H390 C394 0.929 . S
H391 C400 0.929 . S
C392 H386 0.930 . S
C392 C393 1.367 . S
C392 C400 1.378 . S
C393 C392 1.367 . S
C393 C401 1.433 . S
C394 H390 0.929 . S
C394 C396 1.378 . S
C394 C398 1.350 . S
C395 C398 1.463 . S
C395 C400 1.350 . S
C395 N403 1.427 . S
C396 H387 0.930 . S
C396 C394 1.378 . S
C396 C397 1.367 . S
C397 C396 1.367 . S
C397 C399 1.433 . S
C398 C394 1.350 . S
C398 C395 1.463 . S
C398 N402 1.427 . S
C399 H389 0.929 . S
C399 C397 1.433 . S
C399 N402 1.384 . S
C400 H391 0.929 . S
C400 C392 1.378 . S
C400 C395 1.350 . S
C401 H388 0.929 . S
C401 C393 1.433 . S
C401 N403 1.384 . S
N402 C398 1.427 . S
N402 C399 1.384 . S
N403 C395 1.427 . S
N403 C401 1.384 . S
H404 C410 0.930 . S
H405 C414 0.930 . S
H406 C419 0.929 . S
H407 C417 0.929 . S
H408 C412 0.929 . S
H409 C418 0.929 . S
C410 H404 0.930 . S
C410 C411 1.367 . S
C410 C418 1.378 . S
C411 C410 1.367 . S
C411 C419 1.433 . S
C412 H408 0.929 . S
C412 C414 1.378 . S
C412 C416 1.350 . S
C413 C416 1.463 . S
C413 C418 1.350 . S
C413 N421 1.427 . S
C414 H405 0.930 . S
C414 C412 1.378 . S
C414 C415 1.367 . S
C415 C414 1.367 . S
C415 C417 1.433 . S
C416 C412 1.350 . S
C416 C413 1.463 . S
C416 N420 1.427 . S
C417 H407 0.929 . S
C417 C415 1.433 . S
C417 N420 1.384 . S
C418 H409 0.929 . S
C418 C410 1.378 . S
C418 C413 1.350 . S
C419 H406 0.929 . S
C419 C411 1.433 . S
C419 N421 1.384 . S
N420 C416 1.427 . S
N420 C417 1.384 . S
N421 C413 1.427 . S
N421 C419 1.384 . S
H422 C428 0.930 . S
H423 C432 0.930 . S
H424 C437 0.929 . S
H425 C435 0.929 . S
H426 C430 0.929 . S
H427 C436 0.929 . S
C428 H422 0.930 . S
C428 C429 1.367 . S
C428 C436 1.378 . S
C429 C428 1.367 . S
C429 C437 1.433 . S
C430 H426 0.929 . S
C430 C432 1.378 . S
C430 C434 1.350 . S
C431 C434 1.463 . S
C431 C436 1.350 . S
C431 N439 1.427 . S
C432 H423 0.930 . S
C432 C430 1.378 . S
C432 C433 1.367 . S
C433 C432 1.367 . S
C433 C435 1.433 . S
C434 C430 1.350 . S
C434 C431 1.463 . S
C434 N438 1.427 . S
C435 H425 0.929 . S
C435 C433 1.433 . S
C435 N438 1.384 . S
C436 H427 0.929 . S
C436 C428 1.378 . S
C436 C431 1.350 . S
C437 H424 0.929 . S
C437 C429 1.433 . S
C437 N439 1.384 . S
N438 C434 1.427 . S
N438 C435 1.384 . S
N439 C431 1.427 . S
N439 C437 1.384 . S
H440 C446 0.930 . S
H441 C450 0.930 . S
H442 C455 0.929 . S
H443 C453 0.929 . S
H444 C448 0.929 . S
H445 C454 0.929 . S
C446 H440 0.930 . S
C446 C447 1.367 . S
C446 C454 1.378 . S
C447 C446 1.367 . S
C447 C455 1.433 . S
C448 H444 0.929 . S
C448 C450 1.378 . S
C448 C452 1.350 . S
C449 C452 1.463 . S
C449 C454 1.350 . S
C449 N457 1.427 . S
C450 H441 0.930 . S
C450 C448 1.378 . S
C450 C451 1.367 . S
C451 C450 1.367 . S
C451 C453 1.433 . S
C452 C448 1.350 . S
C452 C449 1.463 . S
C452 N456 1.427 . S
C453 H443 0.929 . S
C453 C451 1.433 . S
C453 N456 1.384 . S
C454 H445 0.929 . S
C454 C446 1.378 . S
C454 C449 1.350 . S
C455 H442 0.929 . S
C455 C447 1.433 . S
C455 N457 1.384 . S
N456 C452 1.427 . S
N456 C453 1.384 . S
N457 C449 1.427 . S
N457 C455 1.384 . S
H458 C464 0.930 . S
H459 C468 0.930 . S
H460 C473 0.929 . S
H461 C471 0.929 . S
H462 C466 0.929 . S
H463 C472 0.929 . S
C464 H458 0.930 . S
C464 C465 1.367 . S
C464 C472 1.378 . S
C465 C464 1.367 . S
C465 C473 1.433 . S
C466 H462 0.929 . S
C466 C468 1.378 . S
C466 C470 1.350 . S
C467 C470 1.463 . S
C467 C472 1.350 . S
C467 N475 1.427 . S
C468 H459 0.930 . S
C468 C466 1.378 . S
C468 C469 1.367 . S
C469 C468 1.367 . S
C469 C471 1.433 . S
C470 C466 1.350 . S
C470 C467 1.463 . S
C470 N474 1.427 . S
C471 H461 0.929 . S
C471 C469 1.433 . S
C471 N474 1.384 . S
C472 H463 0.929 . S
C472 C464 1.378 . S
C472 C467 1.350 . S
C473 H460 0.929 . S
C473 C465 1.433 . S
C473 N475 1.384 . S
N474 C470 1.427 . S
N474 C471 1.384 . S
N475 C467 1.427 . S
N475 C473 1.384 . S
H476 C482 0.930 . S
H477 C486 0.930 . S
H478 C491 0.929 . S
H479 C489 0.929 . S
H480 C484 0.929 . S
H481 C490 0.929 . S
C482 H476 0.930 . S
C482 C483 1.367 . S
C482 C490 1.378 . S
C483 C482 1.367 . S
C483 C491 1.433 . S
C484 H480 0.929 . S
C484 C486 1.378 . S
C484 C488 1.350 . S
C485 C488 1.463 . S
C485 C490 1.350 . S
C485 N493 1.427 . S
C486 H477 0.930 . S
C486 C484 1.378 . S
C486 C487 1.367 . S
C487 C486 1.367 . S
C487 C489 1.433 . S
C488 C484 1.350 . S
C488 C485 1.463 . S
C488 N492 1.427 . S
C489 H479 0.929 . S
C489 C487 1.433 . S
C489 N492 1.384 . S
C490 H481 0.929 . S
C490 C482 1.378 . S
C490 C485 1.350 . S
C491 H478 0.929 . S
C491 C483 1.433 . S
C491 N493 1.384 . S
N492 C488 1.427 . S
N492 C489 1.384 . S
N493 C485 1.427 . S
N493 C491 1.384 . S
H494 C500 0.930 . S
H495 C504 0.930 . S
H496 C509 0.929 . S
H497 C507 0.929 . S
H498 C502 0.929 . S
H499 C508 0.929 . S
C500 H494 0.930 . S
C500 C501 1.367 . S
C500 C508 1.378 . S
C501 C500 1.367 . S
C501 C509 1.433 . S
C502 H498 0.929 . S
C502 C504 1.378 . S
C502 C506 1.350 . S
C503 C506 1.463 . S
C503 C508 1.350 . S
C503 N511 1.427 . S
C504 H495 0.930 . S
C504 C502 1.378 . S
C504 C505 1.367 . S
C505 C504 1.367 . S
C505 C507 1.433 . S
C506 C502 1.350 . S
C506 C503 1.463 . S
C506 N510 1.427 . S
C507 H497 0.929 . S
C507 C505 1.433 . S
C507 N510 1.384 . S
C508 H499 0.929 . S
C508 C500 1.378 . S
C508 C503 1.350 . S
C509 H496 0.929 . S
C509 C501 1.433 . S
C509 N511 1.384 . S
N510 C506 1.427 . S
N510 C507 1.384 . S
N511 C503 1.427 . S
N511 C509 1.384 . S
H512 C518 0.930 . S
H513 C522 0.930 . S
H514 C527 0.929 . S
H515 C525 0.929 . S
H516 C520 0.929 . S
H517 C526 0.929 . S
C518 H512 0.930 . S
C518 C519 1.367 1_455 S
C518 C526 1.378 . S
C519 C518 1.367 1_655 S
C519 C527 1.433 1_655 S
C520 H516 0.929 . S
C520 C522 1.378 . S
C520 C524 1.350 . S
C521 C524 1.463 . S
C521 C526 1.350 . S
C521 N529 1.427 . S
C522 H513 0.930 . S
C522 C520 1.378 . S
C522 C523 1.367 . S
C523 C522 1.367 . S
C523 C525 1.433 . S
C524 C520 1.350 . S
C524 C521 1.463 . S
C524 N528 1.427 . S
C525 H515 0.929 . S
C525 C523 1.433 . S
C525 N528 1.384 . S
C526 H517 0.929 . S
C526 C518 1.378 . S
C526 C521 1.350 . S
C527 H514 0.929 . S
C527 C519 1.433 1_455 S
C527 N529 1.384 . S
N528 C524 1.427 . S
N528 C525 1.384 . S
N529 C521 1.427 . S
N529 C527 1.384 . S
H530 C536 0.930 . S
H531 C540 0.930 . S
H532 C545 0.929 . S
H533 C543 0.929 . S
H534 C538 0.929 . S
H535 C544 0.929 1_565 S
C536 H530 0.930 . S
C536 C537 1.367 . S
C536 C544 1.378 1_655 S
C537 C536 1.367 . S
C537 C545 1.433 1_655 S
C538 H534 0.929 . S
C538 C540 1.378 . S
C538 C542 1.350 . S
C539 C542 1.463 . S
C539 C544 1.350 . S
C539 N547 1.427 . S
C540 H531 0.930 . S
C540 C538 1.378 . S
C540 C541 1.367 1_545 S
C541 C540 1.367 1_565 S
C541 C543 1.433 . S
C542 C538 1.350 . S
C542 C539 1.463 . S
C542 N546 1.427 1_545 S
C543 H533 0.929 . S
C543 C541 1.433 . S
C543 N546 1.384 . S
C544 H535 0.929 1_545 S
C544 C536 1.378 1_455 S
C544 C539 1.350 . S
C545 H532 0.929 . S
C545 C537 1.433 1_455 S
C545 N547 1.384 . S
N546 C542 1.427 1_565 S
N546 C543 1.384 . S
N547 C539 1.427 . S
N547 C545 1.384 . S
H548 C554 0.930 . S
H549 C558 0.930 . S
H550 C563 0.929 . S
H551 C561 0.929 . S
H552 C556 0.929 . S
H553 C562 0.929 . S
C554 H548 0.930 . S
C554 C555 1.367 . S
C554 C562 1.378 . S
C555 C554 1.367 . S
C555 C563 1.433 . S
C556 H552 0.929 . S
C556 C558 1.378 . S
C556 C560 1.350 . S
C557 C560 1.463 . S
C557 C562 1.350 . S
C557 N565 1.427 . S
C558 H549 0.930 . S
C558 C556 1.378 . S
C558 C559 1.367 1_545 S
C559 C558 1.367 1_565 S
C559 C561 1.433 . S
C560 C556 1.350 . S
C560 C557 1.463 . S
C560 N564 1.427 1_545 S
C561 H551 0.929 . S
C561 C559 1.433 . S
C561 N564 1.384 . S
C562 H553 0.929 . S
C562 C554 1.378 . S
C562 C557 1.350 . S
C563 H550 0.929 . S
C563 C555 1.433 . S
C563 N565 1.384 . S
N564 C560 1.427 1_565 S
N564 C561 1.384 . S
N565 C557 1.427 . S
N565 C563 1.384 . S
H566 C572 0.930 . S
H567 C576 0.930 . S
H568 C581 0.929 . S
H569 C579 0.929 . S
H570 C574 0.929 . S
H571 C580 0.929 . S
C572 H566 0.930 . S
C572 C573 1.367 . S
C572 C580 1.378 . S
C573 C572 1.367 . S
C573 C581 1.433 . S
C574 H570 0.929 . S
C574 C576 1.378 . S
C574 C578 1.350 . S
C575 C578 1.463 . S
C575 C580 1.350 . S
C575 N583 1.427 . S
C576 H567 0.930 . S
C576 C574 1.378 . S
C576 C577 1.367 . S
C577 C576 1.367 . S
C577 C579 1.433 . S
C578 C574 1.350 . S
C578 C575 1.463 . S
C578 N582 1.427 . S
C579 H569 0.929 . S
C579 C577 1.433 . S
C579 N582 1.384 . S
C580 H571 0.929 . S
C580 C572 1.378 . S
C580 C575 1.350 . S
C581 H568 0.929 . S
C581 C573 1.433 . S
C581 N583 1.384 . S
N582 C578 1.427 . S
N582 C579 1.384 . S
N583 C575 1.427 . S
N583 C581 1.384 . S
H584 C590 0.930 . S
H585 C594 0.930 . S
H586 C599 0.929 1_455 S
H587 C597 0.929 . S
H588 C592 0.929 . S
H589 C598 0.929 . S
C590 H584 0.930 . S
C590 C591 1.367 . S
C590 C598 1.378 . S
C591 C590 1.367 . S
C591 C599 1.433 . S
C592 H588 0.929 . S
C592 C594 1.378 . S
C592 C596 1.350 . S
C593 C596 1.463 . S
C593 C598 1.350 . S
C593 N601 1.427 . S
C594 H585 0.930 . S
C594 C592 1.378 . S
C594 C595 1.367 . S
C595 C594 1.367 . S
C595 C597 1.433 . S
C596 C592 1.350 . S
C596 C593 1.463 . S
C596 N600 1.427 . S
C597 H587 0.929 . S
C597 C595 1.433 . S
C597 N600 1.384 . S
C598 H589 0.929 . S
C598 C590 1.378 . S
C598 C593 1.350 . S
C599 H586 0.929 1_655 S
C599 C591 1.433 . S
C599 N601 1.384 . S
N600 C596 1.427 . S
N600 C597 1.384 . S
N601 C593 1.427 . S
N601 C599 1.384 . S
H602 C608 0.930 . S
H603 C612 0.930 . S
H604 C617 0.929 . S
H605 C615 0.929 . S
H606 C610 0.929 . S
H607 C616 0.938 . S
C608 H602 0.930 . S
C608 C609 1.367 1_455 S
C608 C616 1.378 1_455 S
C609 C608 1.367 1_655 S
C609 C617 1.433 . S
C610 H606 0.929 . S
C610 C612 1.378 . S
C610 C614 1.350 . S
C611 C614 1.463 . S
C611 C616 1.350 1_545 S
C611 N619 1.427 . S
C612 H603 0.930 . S
C612 C610 1.378 . S
C612 C613 1.367 . S
C613 C612 1.367 . S
C613 C615 1.433 . S
C614 C610 1.350 . S
C614 C611 1.463 . S
C614 N618 1.427 . S
C615 H605 0.929 . S
C615 C613 1.433 . S
C615 N618 1.384 . S
C616 H607 0.938 . S
C616 C608 1.378 1_655 S
C616 C611 1.350 1_565 S
C617 H604 0.929 . S
C617 C609 1.433 . S
C617 N619 1.384 1_565 S
N618 C614 1.427 . S
N618 C615 1.384 . S
N619 C611 1.427 . S
N619 C617 1.384 1_545 S
H620 C626 0.930 . S
H621 C630 0.930 . S
H622 C635 0.929 . S
H623 C633 0.929 . S
H624 C628 0.929 . S
H625 C634 0.932 1_565 S
C626 H620 0.930 . S
C626 C627 1.367 . S
C626 C634 1.376 . S
C627 C626 1.367 . S
C627 C635 1.433 . S
C628 H624 0.929 . S
C628 C630 1.378 . S
C628 C632 1.350 . S
C629 C632 1.463 . S
C629 C634 1.348 . S
C629 N637 1.427 . S
C630 H621 0.930 . S
C630 C628 1.378 . S
C630 C631 1.367 1_545 S
C631 C630 1.367 1_565 S
C631 C633 1.433 . S
C632 C628 1.350 . S
C632 C629 1.463 . S
C632 N636 1.427 1_545 S
C633 H623 0.929 . S
C633 C631 1.433 . S
C633 N636 1.384 . S
C634 H625 0.932 1_545 S
C634 C626 1.376 . S
C634 C629 1.348 . S
C635 H622 0.929 . S
C635 C627 1.433 . S
C635 N637 1.384 . S
N636 C632 1.427 1_565 S
N636 C633 1.384 . S
N637 C629 1.427 . S
N637 C635 1.384 . S
H638 C644 0.930 . S
H639 C648 0.930 . S
H640 C653 0.929 . S
H641 C651 0.929 . S
H642 C646 0.929 . S
H643 C652 0.929 . S
C644 H638 0.930 . S
C644 C645 1.367 . S
C644 C652 1.378 . S
C645 C644 1.367 . S
C645 C653 1.433 . S
C646 H642 0.929 . S
C646 C648 1.378 . S
C646 C650 1.350 . S
C647 C650 1.463 . S
C647 C652 1.350 . S
C647 N655 1.427 . S
C648 H639 0.930 . S
C648 C646 1.378 . S
C648 C649 1.367 . S
C649 C648 1.367 . S
C649 C651 1.433 . S
C650 C646 1.350 . S
C650 C647 1.463 . S
C650 N654 1.427 . S
C651 H641 0.929 . S
C651 C649 1.433 . S
C651 N654 1.384 . S
C652 H643 0.929 . S
C652 C644 1.378 . S
C652 C647 1.350 . S
C653 H640 0.929 . S
C653 C645 1.433 . S
C653 N655 1.384 . S
N654 C650 1.427 . S
N654 C651 1.384 . S
N655 C647 1.427 . S
N655 C653 1.384 . S
H656 C662 0.930 . S
H657 C666 0.930 . S
H658 C671 0.929 . S
H659 C669 0.929 . S
H660 C664 0.929 . S
H661 C670 0.929 . S
C662 H656 0.930 . S
C662 C663 1.367 . S
C662 C670 1.378 . S
C663 C662 1.367 . S
C663 C671 1.433 . S
C664 H660 0.929 . S
C664 C666 1.378 . S
C664 C668 1.350 . S
C665 C668 1.463 . S
C665 C670 1.350 . S
C665 N673 1.427 . S
C666 H657 0.930 . S
C666 C664 1.378 . S
C666 C667 1.367 . S
C667 C666 1.367 . S
C667 C669 1.433 . S
C668 C664 1.350 . S
C668 C665 1.463 . S
C668 N672 1.427 . S
C669 H659 0.929 . S
C669 C667 1.433 . S
C669 N672 1.384 . S
C670 H661 0.929 . S
C670 C662 1.378 . S
C670 C665 1.350 . S
C671 H658 0.929 . S
C671 C663 1.433 . S
C671 N673 1.384 . S
N672 C668 1.427 . S
N672 C669 1.384 . S
N673 C665 1.427 . S
N673 C671 1.384 . S
H674 C680 0.930 . S
H675 C684 0.930 . S
H676 C689 0.929 . S
H677 C687 0.929 . S
H678 C682 0.929 . S
H679 C688 0.929 . S
C680 H674 0.930 . S
C680 C681 1.367 . S
C680 C688 1.378 . S
C681 C680 1.367 . S
C681 C689 1.433 . S
C682 H678 0.929 . S
C682 C684 1.378 . S
C682 C686 1.350 . S
C683 C686 1.463 . S
C683 C688 1.350 . S
C683 N691 1.427 . S
C684 H675 0.930 . S
C684 C682 1.378 . S
C684 C685 1.367 . S
C685 C684 1.367 . S
C685 C687 1.433 . S
C686 C682 1.350 . S
C686 C683 1.463 . S
C686 N690 1.427 . S
C687 H677 0.929 . S
C687 C685 1.433 . S
C687 N690 1.384 . S
C688 H679 0.929 . S
C688 C680 1.378 . S
C688 C683 1.350 . S
C689 H676 0.929 . S
C689 C681 1.433 . S
C689 N691 1.384 . S
N690 C686 1.427 . S
N690 C687 1.384 . S
N691 C683 1.427 . S
N691 C689 1.384 . S
H692 C698 0.930 . S
H693 C702 0.930 . S
H694 C707 0.929 . S
H695 C705 0.929 . S
H696 C700 0.929 . S
H697 C706 0.929 . S
C698 H692 0.930 . S
C698 C699 1.367 . S
C698 C706 1.378 . S
C699 C698 1.367 . S
C699 C707 1.433 . S
C700 H696 0.929 . S
C700 C702 1.378 . S
C700 C704 1.350 . S
C701 C704 1.463 . S
C701 C706 1.350 . S
C701 N709 1.427 . S
C702 H693 0.930 . S
C702 C700 1.378 . S
C702 C703 1.367 . S
C703 C702 1.367 . S
C703 C705 1.433 . S
C704 C700 1.350 . S
C704 C701 1.463 . S
C704 N708 1.427 . S
C705 H695 0.929 . S
C705 C703 1.433 . S
C705 N708 1.384 . S
C706 H697 0.929 . S
C706 C698 1.378 . S
C706 C701 1.350 . S
C707 H694 0.929 . S
C707 C699 1.433 . S
C707 N709 1.384 . S
N708 C704 1.427 . S
N708 C705 1.384 . S
N709 C701 1.427 . S
N709 C707 1.384 . S
H710 C716 0.930 . S
H711 C720 0.930 . S
H712 C725 0.929 . S
H713 C723 0.929 . S
H714 C718 0.929 . S
H715 C724 0.929 . S
C716 H710 0.930 . S
C716 C717 1.367 . S
C716 C724 1.378 . S
C717 C716 1.367 . S
C717 C725 1.433 . S
C718 H714 0.929 . S
C718 C720 1.378 . S
C718 C722 1.350 . S
C719 C722 1.463 . S
C719 C724 1.350 . S
C719 N727 1.427 . S
C720 H711 0.930 . S
C720 C718 1.378 . S
C720 C721 1.367 . S
C721 C720 1.367 . S
C721 C723 1.433 . S
C722 C718 1.350 . S
C722 C719 1.463 . S
C722 N726 1.427 . S
C723 H713 0.929 . S
C723 C721 1.433 . S
C723 N726 1.384 . S
C724 H715 0.929 . S
C724 C716 1.378 . S
C724 C719 1.350 . S
C725 H712 0.929 . S
C725 C717 1.433 . S
C725 N727 1.384 . S
N726 C722 1.427 . S
N726 C723 1.384 . S
N727 C719 1.427 . S
N727 C725 1.384 . S
H728 C734 0.930 . S
H729 C738 0.930 . S
H730 C743 0.929 . S
H731 C741 0.929 . S
H732 C736 0.929 . S
H733 C742 0.929 . S
C734 H728 0.930 . S
C734 C735 1.367 . S
C734 C742 1.378 . S
C735 C734 1.367 . S
C735 C743 1.433 . S
C736 H732 0.929 . S
C736 C738 1.378 . S
C736 C740 1.350 . S
C737 C740 1.463 . S
C737 C742 1.350 . S
C737 N745 1.427 . S
C738 H729 0.930 . S
C738 C736 1.378 . S
C738 C739 1.367 . S
C739 C738 1.367 . S
C739 C741 1.433 . S
C740 C736 1.350 . S
C740 C737 1.463 . S
C740 N744 1.427 . S
C741 H731 0.929 . S
C741 C739 1.433 . S
C741 N744 1.384 . S
C742 H733 0.929 . S
C742 C734 1.378 . S
C742 C737 1.350 . S
C743 H730 0.929 . S
C743 C735 1.433 . S
C743 N745 1.384 . S
N744 C740 1.427 . S
N744 C741 1.384 . S
N745 C737 1.427 . S
N745 C743 1.384 . S
H746 C752 0.930 . S
H747 C756 0.930 . S
H748 C761 0.929 . S
H749 C759 0.929 . S
H750 C754 0.929 . S
H751 C760 0.929 . S
C752 H746 0.930 . S
C752 C753 1.367 . S
C752 C760 1.378 . S
C753 C752 1.367 . S
C753 C761 1.433 . S
C754 H750 0.929 . S
C754 C756 1.378 . S
C754 C758 1.350 . S
C755 C758 1.463 . S
C755 C760 1.350 . S
C755 N763 1.427 . S
C756 H747 0.930 . S
C756 C754 1.378 . S
C756 C757 1.367 . S
C757 C756 1.367 . S
C757 C759 1.433 . S
C758 C754 1.350 . S
C758 C755 1.463 . S
C758 N762 1.427 . S
C759 H749 0.929 . S
C759 C757 1.433 . S
C759 N762 1.384 . S
C760 H751 0.929 . S
C760 C752 1.378 . S
C760 C755 1.350 . S
C761 H748 0.929 . S
C761 C753 1.433 . S
C761 N763 1.384 . S
N762 C758 1.427 . S
N762 C759 1.384 . S
N763 C755 1.427 . S
N763 C761 1.384 . S
H764 C770 0.930 . S
H765 C774 0.930 . S
H766 C779 0.929 . S
H767 C777 0.929 . S
H768 C772 0.929 . S
H769 C778 0.929 . S
C770 H764 0.930 . S
C770 C771 1.367 . S
C770 C778 1.378 . S
C771 C770 1.367 . S
C771 C779 1.433 . S
C772 H768 0.929 . S
C772 C774 1.378 . S
C772 C776 1.350 . S
C773 C776 1.463 . S
C773 C778 1.350 . S
C773 N781 1.427 . S
C774 H765 0.930 . S
C774 C772 1.378 . S
C774 C775 1.367 . S
C775 C774 1.367 . S
C775 C777 1.433 . S
C776 C772 1.350 . S
C776 C773 1.463 . S
C776 N780 1.427 . S
C777 H767 0.929 . S
C777 C775 1.433 . S
C777 N780 1.384 . S
C778 H769 0.929 . S
C778 C770 1.378 . S
C778 C773 1.350 . S
C779 H766 0.929 . S
C779 C771 1.433 . S
C779 N781 1.384 . S
N780 C776 1.427 . S
N780 C777 1.384 . S
N781 C773 1.427 . S
N781 C779 1.384 . S
H782 C788 0.930 . S
H783 C792 0.930 . S
H784 C797 0.929 . S
H785 C795 0.929 . S
H786 C790 0.929 . S
H787 C796 0.929 . S
C788 H782 0.930 . S
C788 C789 1.367 . S
C788 C796 1.378 . S
C789 C788 1.367 . S
C789 C797 1.433 . S
C790 H786 0.929 . S
C790 C792 1.378 . S
C790 C794 1.350 . S
C791 C794 1.463 . S
C791 C796 1.350 . S
C791 N799 1.427 . S
C792 H783 0.930 . S
C792 C790 1.378 . S
C792 C793 1.367 . S
C793 C792 1.367 . S
C793 C795 1.433 . S
C794 C790 1.350 . S
C794 C791 1.463 . S
C794 N798 1.427 . S
C795 H785 0.929 . S
C795 C793 1.433 . S
C795 N798 1.384 . S
C796 H787 0.929 . S
C796 C788 1.378 . S
C796 C791 1.350 . S
C797 H784 0.929 . S
C797 C789 1.433 . S
C797 N799 1.384 . S
N798 C794 1.427 . S
N798 C795 1.384 . S
N799 C791 1.427 . S
N799 C797 1.384 . S
H800 C806 0.930 . S
H801 C810 0.930 . S
H802 C815 0.929 . S
H803 C813 0.929 . S
H804 C808 0.929 1_455 S
H805 C814 0.929 1_655 S
C806 H800 0.930 . S
C806 C807 1.367 . S
C806 C814 1.378 . S
C807 C806 1.367 . S
C807 C815 1.433 . S
C808 H804 0.929 1_655 S
C808 C810 1.378 . S
C808 C812 1.350 1_556 S
C809 C812 1.463 1_455 S
C809 C814 1.350 . S
C809 N817 1.427 . S
C810 H801 0.930 . S
C810 C808 1.378 . S
C810 C811 1.367 . S
C811 C810 1.367 . S
C811 C813 1.433 1_556 S
C812 C808 1.350 1_554 S
C812 C809 1.463 1_655 S
C812 N816 1.427 . S
C813 H803 0.929 . S
C813 C811 1.433 1_554 S
C813 N816 1.384 . S
C814 H805 0.929 1_455 S
C814 C806 1.378 . S
C814 C809 1.350 . S
C815 H802 0.929 . S
C815 C807 1.433 . S
C815 N817 1.384 . S
N816 C812 1.427 . S
N816 C813 1.384 . S
N817 C809 1.427 . S
N817 C815 1.384 . S
H818 C824 0.930 . S
H819 C828 0.930 . S
H820 C833 0.929 . S
H821 C831 0.929 . S
H822 C826 0.902 1_565 S
H823 C832 0.929 . S
C824 H818 0.930 . S
C824 C825 1.367 . S
C824 C832 1.378 1_565 S
C825 C824 1.367 . S
C825 C833 1.433 . S
C826 H822 0.902 1_545 S
C826 C828 1.378 . S
C826 C830 1.350 1_554 S
C827 C830 1.463 1_565 S
C827 C832 1.350 1_565 S
C827 N835 1.427 . S
C828 H819 0.930 . S
C828 C826 1.378 . S
C828 C829 1.367 1_455 S
C829 C828 1.367 1_655 S
C829 C831 1.433 1_554 S
C830 C826 1.350 1_556 S
C830 C827 1.463 1_545 S
C830 N834 1.427 1_455 S
C831 H821 0.929 . S
C831 C829 1.433 1_556 S
C831 N834 1.384 . S
C832 H823 0.929 . S
C832 C824 1.378 1_545 S
C832 C827 1.350 1_545 S
C833 H820 0.929 . S
C833 C825 1.433 . S
C833 N835 1.384 . S
N834 C830 1.427 1_655 S
N834 C831 1.384 . S
N835 C827 1.427 . S
N835 C833 1.384 . S
H836 C842 0.930 . S
H837 C846 0.930 . S
H838 C851 0.929 . S
H839 C849 0.929 . S
H840 C844 0.921 1_565 S
H841 C850 0.929 . S
C842 H836 0.930 . S
C842 C843 1.367 1_545 S
C842 C850 1.378 . S
C843 C842 1.367 1_565 S
C843 C851 1.433 . S
C844 H840 0.921 1_545 S
C844 C846 1.381 . S
C844 C848 1.354 1_556 S
C845 C848 1.463 . S
C845 C850 1.350 . S
C845 N853 1.427 1_545 S
C846 H837 0.930 . S
C846 C844 1.381 . S
C846 C847 1.367 . S
C847 C846 1.367 . S
C847 C849 1.433 1_556 S
C848 C844 1.354 1_554 S
C848 C845 1.463 . S
C848 N852 1.427 . S
C849 H839 0.929 . S
C849 C847 1.433 1_554 S
C849 N852 1.384 . S
C850 H841 0.929 . S
C850 C842 1.378 . S
C850 C845 1.350 . S
C851 H838 0.929 . S
C851 C843 1.433 . S
C851 N853 1.384 . S
N852 C848 1.427 . S
N852 C849 1.384 . S
N853 C845 1.427 1_565 S
N853 C851 1.384 . S
H854 C860 0.930 . S
H855 C864 0.930 . S
H856 C869 0.929 . S
H857 C867 0.929 . S
H858 C862 0.929 . S
H859 C868 0.929 . S
C860 H854 0.930 . S
C860 C861 1.367 . S
C860 C868 1.378 . S
C861 C860 1.367 . S
C861 C869 1.433 . S
C862 H858 0.929 . S
C862 C864 1.378 . S
C862 C866 1.350 1_554 S
C863 C866 1.463 . S
C863 C868 1.350 . S
C863 N871 1.427 . S
C864 H855 0.930 . S
C864 C862 1.378 . S
C864 C865 1.367 . S
C865 C864 1.367 . S
C865 C867 1.433 1_554 S
C866 C862 1.350 1_556 S
C866 C863 1.463 . S
C866 N870 1.427 . S
C867 H857 0.929 . S
C867 C865 1.433 1_556 S
C867 N870 1.384 . S
C868 H859 0.929 . S
C868 C860 1.378 . S
C868 C863 1.350 . S
C869 H856 0.929 . S
C869 C861 1.433 . S
C869 N871 1.384 . S
N870 C866 1.427 . S
N870 C867 1.384 . S
N871 C863 1.427 . S
N871 C869 1.384 . S
H872 C878 0.926 1_545 S
H873 C882 0.930 . S
H874 C887 0.929 . S
H875 C885 0.929 . S
H876 C880 0.929 1_565 S
H877 C886 0.929 1_655 S
C878 H872 0.926 1_565 S
C878 C879 1.367 . S
C878 C886 1.378 1_565 S
C879 C878 1.367 . S
C879 C887 1.433 . S
C880 H876 0.929 1_545 S
C880 C882 1.378 . S
C880 C884 1.350 . S
C881 C884 1.463 1_455 S
C881 C886 1.350 . S
C881 N889 1.427 1_545 S
C882 H873 0.930 . S
C882 C880 1.378 . S
C882 C883 1.367 . S
C883 C882 1.367 . S
C883 C885 1.433 . S
C884 C880 1.350 . S
C884 C881 1.463 1_655 S
C884 N888 1.427 . S
C885 H875 0.929 . S
C885 C883 1.433 . S
C885 N888 1.384 . S
C886 H877 0.929 1_455 S
C886 C878 1.378 1_545 S
C886 C881 1.350 . S
C887 H874 0.929 . S
C887 C879 1.433 . S
C887 N889 1.384 . S
N888 C884 1.427 . S
N888 C885 1.384 . S
N889 C881 1.427 1_565 S
N889 C887 1.384 . S
H890 C896 0.930 . S
H891 C900 0.930 . S
H892 C905 0.929 . S
H893 C903 0.929 . S
H894 C898 0.929 . S
H895 C904 0.929 1_565 S
C896 H890 0.930 . S
C896 C897 1.367 . S
C896 C904 1.378 . S
C897 C896 1.367 . S
C897 C905 1.433 . S
C898 H894 0.929 . S
C898 C900 1.378 1_545 S
C898 C902 1.350 1_545 S
C899 C902 1.463 1_545 S
C899 C904 1.350 . S
C899 N907 1.427 . S
C900 H891 0.930 . S
C900 C898 1.378 1_565 S
C900 C901 1.367 . S
C901 C900 1.367 . S
C901 C903 1.433 . S
C902 C898 1.350 1_565 S
C902 C899 1.463 1_565 S
C902 N906 1.427 . S
C903 H893 0.929 . S
C903 C901 1.433 . S
C903 N906 1.384 . S
C904 H895 0.929 1_545 S
C904 C896 1.378 . S
C904 C899 1.350 . S
C905 H892 0.929 . S
C905 C897 1.433 . S
C905 N907 1.384 . S
N906 C902 1.427 . S
N906 C903 1.384 . S
N907 C899 1.427 . S
N907 C905 1.384 . S
H908 C914 0.930 . S
H909 C918 0.930 . S
H910 C923 0.929 . S
H911 C921 0.929 . S
H912 C916 0.929 . S
H913 C922 0.929 . S
C914 H908 0.930 . S
C914 C915 1.367 . S
C914 C922 1.378 . S
C915 C914 1.367 . S
C915 C923 1.433 . S
C916 H912 0.929 . S
C916 C918 1.378 . S
C916 C920 1.350 . S
C917 C920 1.463 . S
C917 C922 1.350 . S
C917 N925 1.427 . S
C918 H909 0.930 . S
C918 C916 1.378 . S
C918 C919 1.367 . S
C919 C918 1.367 . S
C919 C921 1.433 . S
C920 C916 1.350 . S
C920 C917 1.463 . S
C920 N924 1.427 . S
C921 H911 0.929 . S
C921 C919 1.433 . S
C921 N924 1.384 . S
C922 H913 0.929 . S
C922 C914 1.378 . S
C922 C917 1.350 . S
C923 H910 0.929 . S
C923 C915 1.433 . S
C923 N925 1.384 . S
N924 C920 1.427 . S
N924 C921 1.384 . S
N925 C917 1.427 . S
N925 C923 1.384 . S
H926 C932 0.930 1_655 S
H927 C936 0.930 . S
H928 C941 0.929 . S
H929 C939 0.929 . S
H930 C934 0.929 . S
H931 C940 0.929 . S
C932 H926 0.930 1_455 S
C932 C933 1.366 1_455 S
C932 C940 1.379 . S
C933 C932 1.366 1_655 S
C933 C941 1.433 . S
C934 H930 0.929 . S
C934 C936 1.378 . S
C934 C938 1.350 . S
C935 C938 1.463 . S
C935 C940 1.350 . S
C935 N943 1.427 . S
C936 H927 0.930 . S
C936 C934 1.378 . S
C936 C937 1.367 . S
C937 C936 1.367 . S
C937 C939 1.433 . S
C938 C934 1.350 . S
C938 C935 1.463 . S
C938 N942 1.427 . S
C939 H929 0.929 . S
C939 C937 1.433 . S
C939 N942 1.384 . S
C940 H931 0.929 . S
C940 C932 1.379 . S
C940 C935 1.350 . S
C941 H928 0.929 . S
C941 C933 1.433 . S
C941 N943 1.384 1_655 S
N942 C938 1.427 . S
N942 C939 1.384 . S
N943 C935 1.427 . S
N943 C941 1.384 1_455 S
C375 C16 1.854 . S
C379 C62 1.845 . S
C393 C39 2.058 . S
C397 C85 2.053 . S
C411 C108 1.854 . S
C415 C154 1.845 . S
C429 C177 2.057 . S
C433 C131 2.055 . S
C447 C200 1.296 . S
C451 C246 1.294 . S
C465 N265 1.294 . S
C469 N219 1.293 . S
C483 C338 1.299 . S
C487 C292 1.288 . S
C501 N357 1.292 . S
C505 N311 1.292 . S
C519 C168 2.233 . S
C523 C7 2.249 . S
C537 C30 2.238 . S
C541 C99 2.255 . S
C555 C122 2.241 . S
C559 C53 2.256 . S
C573 C76 2.241 . S
C577 C145 2.256 . S
C591 N347 1.471 1_655 S
C595 C191 1.591 . S
C609 N209 1.472 1_655 S
C613 C283 1.591 . S
C627 C237 1.603 . S
C631 N301 1.492 . S
C645 C329 1.590 . S
C649 N255 1.470 . S
C663 N2 0.876 . S
C667 N94 0.844 . S
C681 N25 0.759 . S
C685 N117 0.789 . S
C699 N140 0.859 . S
C703 N48 0.848 . S
C717 N71 0.786 . S
C721 N163 0.753 . S
C735 N278 0.964 . S
C739 N186 0.987 . S
C753 C306 1.155 . S
C757 C214 1.163 . S
C771 N232 0.987 . S
C775 N324 0.960 . S
C789 C260 1.160 . S
C793 C352 1.150 . S
C807 N12 2.204 . S
C811 N196 2.214 . S
C825 C223 1.962 . S
C829 N35 2.060 . S
C843 N58 2.207 . S
C847 N242 2.217 . S
C861 C269 1.961 . S
C865 N81 2.059 . S
C879 N104 2.206 . S
C883 N288 2.216 . S
C897 N127 2.055 . S
C901 C315 1.956 . S
C915 N334 2.211 . S
C919 N150 2.200 . S
C933 N173 2.058 . S
C937 C361 1.967 . S
