# Generated by pormake.
# Topology sml, (6)-cn, num edge types: 1
# Building blocks:
#     Node 0, Type 0, BuildingBlock: MIFKUJ_clean_sbu_0, # of connection points: 6
#     Node 1, Type 0, BuildingBlock: MIFKUJ_clean_sbu_0, # of connection points: 6
#     Node 2, Type 0, BuildingBlock: MIFKUJ_clean_sbu_0, # of connection points: 6
#     Node 3, Type 0, BuildingBlock: MIFKUJ_clean_sbu_0, # of connection points: 6
#     Node 4, Type 0, BuildingBlock: MIFKUJ_clean_sbu_0, # of connection points: 6
#     Node 5, Type 0, BuildingBlock: MIFKUJ_clean_sbu_0, # of connection points: 6
#     Edge 6, Type (0, 0), BuildingBlock: ZUJKAS_clean_linker_0, # of connection points: 2
#     Edge 7, Type (0, 0), BuildingBlock: ZUJKAS_clean_linker_0, # of connection points: 2
#     Edge 8, Type (0, 0), BuildingBlock: ZUJKAS_clean_linker_0, # of connection points: 2
#     Edge 9, Type (0, 0), BuildingBlock: ZUJKAS_clean_linker_0, # of connection points: 2
#     Edge 10, Type (0, 0), BuildingBlock: ZUJKAS_clean_linker_0, # of connection points: 2
#     Edge 11, Type (0, 0), BuildingBlock: ZUJKAS_clean_linker_0, # of connection points: 2
#     Edge 12, Type (0, 0), BuildingBlock: ZUJKAS_clean_linker_0, # of connection points: 2
#     Edge 13, Type (0, 0), BuildingBlock: ZUJKAS_clean_linker_0, # of connection points: 2
#     Edge 14, Type (0, 0), BuildingBlock: ZUJKAS_clean_linker_0, # of connection points: 2
#     Edge 15, Type (0, 0), BuildingBlock: ZUJKAS_clean_linker_0, # of connection points: 2
#     Edge 16, Type (0, 0), BuildingBlock: ZUJKAS_clean_linker_0, # of connection points: 2
#     Edge 17, Type (0, 0), BuildingBlock: ZUJKAS_clean_linker_0, # of connection points: 2
#     Edge 18, Type (0, 0), BuildingBlock: ZUJKAS_clean_linker_0, # of connection points: 2
#     Edge 19, Type (0, 0), BuildingBlock: ZUJKAS_clean_linker_0, # of connection points: 2
#     Edge 20, Type (0, 0), BuildingBlock: ZUJKAS_clean_linker_0, # of connection points: 2
#     Edge 21, Type (0, 0), BuildingBlock: ZUJKAS_clean_linker_0, # of connection points: 2
#     Edge 22, Type (0, 0), BuildingBlock: ZUJKAS_clean_linker_0, # of connection points: 2
#     Edge 23, Type (0, 0), BuildingBlock: ZUJKAS_clean_linker_0, # of connection points: 2
# Relax obj value: 0.139
# Max RMSD: 0.175
# Mean RMSD: 0.175
data_MOF--net-sml--node1-MIFKUJ_clean_sbu_0--edge1-ZUJKAS_clean_linker_0
_symmetry_space_group_name_H-M    P1
_symmetry_Int_Tables_number       1
_symmetry_cell_setting            triclinic
loop_
_symmetry_equiv_pos_as_xyz
'x, y, z'
_cell_length_a     49.582189
_cell_length_b     49.599001
_cell_length_c     22.639476
_cell_angle_alpha  90.006166
_cell_angle_beta   90.009684
_cell_angle_gamma 120.02592
loop_
_atom_site_label
_atom_site_type_symbol
_atom_site_fract_x
_atom_site_fract_y
_atom_site_fract_z
_atom_type_partial_charge
Zn0 Zn 0.21867 0.42516 0.06529 0.0
Zn1 Zn 0.20183 0.41518 0.9322 0.0
C2 C 0.22597 0.48085 0.10844 0.0
O3 O 0.25151 0.4812 0.12527 0.0
C4 C 0.20555 0.35992 0.9206 0.0
O5 O 0.17753 0.34999 0.89897 0.0
O6 O 0.22874 0.41814 0.14823 0.0
O7 O 0.18079 0.38336 0.04431 0.0
O8 O 0.1612 0.39917 0.97483 0.0
C9 C 0.20525 0.40857 0.18219 0.0
O10 O 0.17868 0.4035 0.15969 0.0
O11 O 0.20632 0.45816 0.07711 0.0
C12 C 0.21916 0.42066 0.81438 0.0
O13 O 0.24526 0.42827 0.84229 0.0
O14 O 0.19492 0.41387 0.84452 0.0
O15 O 0.23435 0.45904 0.94912 0.0
O16 O 0.2581 0.44566 0.01498 0.0
O17 O 0.22015 0.38705 0.94304 0.0
C18 C 0.1572 0.38177 0.01885 0.0
C19 C 0.25932 0.46373 0.97379 0.0
Zn20 Zn 0.79253 0.21638 0.39773 0.0
Zn21 Zn 0.78882 0.19979 0.26614 0.0
C22 C 0.74032 0.22344 0.41772 0.0
O23 O 0.76335 0.25196 0.42633 0.0
C24 C 0.84838 0.20487 0.25611 0.0
O25 O 0.83072 0.17655 0.23548 0.0
O26 O 0.80625 0.22773 0.48198 0.0
O27 O 0.79755 0.17866 0.38326 0.0
O28 O 0.76541 0.15887 0.30829 0.0
C29 C 0.79025 0.20523 0.517 0.0
O30 O 0.76824 0.17879 0.49496 0.0
O31 O 0.74659 0.20261 0.40167 0.0
C32 C 0.8005 0.21767 0.14895 0.0
O33 O 0.8181 0.24381 0.17746 0.0
O34 O 0.78364 0.19302 0.17851 0.0
O35 O 0.77604 0.23145 0.28208 0.0
O36 O 0.81357 0.25545 0.3466 0.0
O37 O 0.83538 0.21924 0.27744 0.0
C38 C 0.77748 0.15503 0.35466 0.0
C39 C 0.79669 0.25663 0.30549 0.0
Zn40 Zn 0.58178 0.79589 0.73679 0.0
Zn41 Zn 0.58615 0.7843 0.60469 0.0
C42 C 0.5262 0.74732 0.7813 0.0
O43 O 0.52605 0.77233 0.79994 0.0
C44 C 0.63976 0.84203 0.57673 0.0
O45 O 0.64636 0.82256 0.54985 0.0
O46 O 0.58903 0.81268 0.82033 0.0
O47 O 0.62281 0.79864 0.71374 0.0
O48 O 0.60412 0.76145 0.64732 0.0
C49 C 0.59865 0.79884 0.85441 0.0
O50 O 0.60463 0.77802 0.83167 0.0
O51 O 0.54856 0.75064 0.74864 0.0
C52 C 0.57348 0.79019 0.48663 0.0
O53 O 0.56489 0.80805 0.51398 0.0
O54 O 0.58317 0.77521 0.51725 0.0
O55 O 0.54341 0.77402 0.62962 0.0
O56 O 0.56163 0.8153 0.68632 0.0
O57 O 0.61529 0.83102 0.60832 0.0
C58 C 0.62314 0.77582 0.6889 0.0
C59 C 0.54104 0.79652 0.65031 0.0
Zn60 Zn 0.78628 0.57741 0.07124 0.0
Zn61 Zn 0.80326 0.58687 0.94232 0.0
C62 C 0.77833 0.51858 0.09638 0.0
O63 O 0.75113 0.5154 0.11012 0.0
C64 C 0.7988 0.64147 0.92404 0.0
O65 O 0.82696 0.6514 0.90316 0.0
O66 O 0.7762 0.58049 0.1561 0.0
O67 O 0.82391 0.61994 0.0557 0.0
O68 O 0.84364 0.60401 0.98682 0.0
C69 C 0.79799 0.58347 0.18999 0.0
O70 O 0.82316 0.58537 0.16673 0.0
O71 O 0.79906 0.54432 0.07442 0.0
C72 C 0.78851 0.57242 0.82239 0.0
O73 O 0.76077 0.55608 0.84613 0.0
O74 O 0.81203 0.58781 0.85556 0.0
O75 O 0.77026 0.543 0.9607 0.0
O76 O 0.74689 0.55928 0.02109 0.0
O77 O 0.78444 0.61475 0.94816 0.0
C78 C 0.84758 0.6217 0.03037 0.0
C79 C 0.74525 0.53972 0.98277 0.0
Zn80 Zn 0.21625 0.78946 0.3985 0.0
Zn81 Zn 0.21831 0.80564 0.26641 0.0
C82 C 0.26924 0.78405 0.41961 0.0
O83 O 0.24651 0.7554 0.4285 0.0
C84 C 0.15821 0.80024 0.26103 0.0
O85 O 0.17524 0.82876 0.24091 0.0
O86 O 0.20267 0.77873 0.48292 0.0
O87 O 0.20966 0.8261 0.38228 0.0
O88 O 0.24282 0.8463 0.30922 0.0
C89 C 0.21788 0.80182 0.51722 0.0
O90 O 0.23916 0.82842 0.49446 0.0
O91 O 0.26248 0.80443 0.40278 0.0
C92 C 0.20465 0.7887 0.14904 0.0
O93 O 0.18645 0.76262 0.17723 0.0
O94 O 0.22251 0.81293 0.17885 0.0
O95 O 0.23096 0.77372 0.27916 0.0
O96 O 0.19613 0.74985 0.34871 0.0
O97 O 0.17187 0.78608 0.28028 0.0
C98 C 0.23036 0.84994 0.35518 0.0
C99 C 0.21176 0.74873 0.30515 0.0
Zn100 Zn 0.42705 0.21087 0.73463 0.0
Zn101 Zn 0.41982 0.21965 0.60352 0.0
C102 C 0.48391 0.26143 0.76956 0.0
O103 O 0.48692 0.23729 0.78301 0.0
C104 C 0.36523 0.16001 0.5881 0.0
O105 O 0.35459 0.1778 0.56817 0.0
O106 O 0.42215 0.19555 0.81866 0.0
O107 O 0.38482 0.20598 0.71445 0.0
O108 O 0.40126 0.24203 0.64601 0.0
C109 C 0.41285 0.20967 0.85271 0.0
O110 O 0.40638 0.2301 0.82969 0.0
O111 O 0.45908 0.25668 0.74386 0.0
C112 C 0.42971 0.21144 0.48559 0.0
O113 O 0.43864 0.19395 0.5133 0.0
O114 O 0.42055 0.22695 0.51593 0.0
O115 O 0.46358 0.23188 0.62507 0.0
O116 O 0.44724 0.19166 0.68404 0.0
O117 O 0.39244 0.17282 0.61028 0.0
C118 C 0.38305 0.2278 0.68869 0.0
C119 C 0.4671 0.21027 0.64686 0.0
H120 H 0.33955 0.20092 0.77637 0.0
H121 H 0.30661 0.21973 0.8186 0.0
H122 H 0.34579 0.29716 0.69733 0.0
H123 H 0.37832 0.27818 0.65397 0.0
H124 H 0.32418 0.27444 0.87446 0.0
H125 H 0.25355 0.26461 0.67741 0.0
H126 H 0.27736 0.24659 0.6812 0.0
H127 H 0.29465 0.28735 0.66399 0.0
C128 C 0.34088 0.22173 0.75808 0.0
C129 C 0.36147 0.23793 0.71147 0.0
C130 C 0.32209 0.2325 0.78246 0.0
C131 C 0.32341 0.25963 0.76069 0.0
C132 C 0.34382 0.27578 0.71399 0.0
H133 H 0.26761 0.37964 0.9342 0.0
H134 H 0.29535 0.35343 0.89995 0.0
C135 C 0.36252 0.26495 0.68937 0.0
C136 C 0.30439 0.27172 0.78843 0.0
H137 H 0.25105 0.29418 0.75815 0.0
C138 C 0.308 0.27854 0.84913 0.0
C139 C 0.28298 0.27669 0.75558 0.0
C140 C 0.27662 0.26814 0.69108 0.0
C141 C 0.29134 0.29087 0.87756 0.0
C142 C 0.27097 0.29711 0.84414 0.0
C143 C 0.26684 0.28962 0.78373 0.0
C144 C 0.25392 0.31176 0.87039 0.0
C145 C 0.29549 0.29673 0.94322 0.0
C146 C 0.22139 0.29715 0.86519 0.0
C147 C 0.20549 0.31221 0.88424 0.0
C148 C 0.22181 0.34225 0.90883 0.0
C149 C 0.25428 0.35639 0.91601 0.0
C150 C 0.27019 0.34137 0.89659 0.0
H151 H 0.304 0.28226 0.96475 0.0
H152 H 0.31302 0.32154 0.95114 0.0
H153 H 0.27331 0.29178 0.96458 0.0
H154 H 0.20835 0.27434 0.84506 0.0
H155 H 0.1805 0.30066 0.87801 0.0
H156 H 0.14066 0.33927 0.10827 0.0
H157 H 0.08909 0.30723 0.15183 0.0
H158 H 0.05077 0.3458 0.02934 0.0
H159 H 0.10218 0.37756 0.98474 0.0
H160 H 0.05221 0.32585 0.20693 0.0
H161 H 0.99094 0.25314 0.01207 0.0
H162 H 0.03282 0.27682 0.01566 0.0
H163 H 0.00951 0.29414 -0.00254 0.0
C164 C 0.12122 0.34072 0.09008 0.0
C165 C 0.12555 0.36089 0.04273 0.0
C166 C 0.09175 0.32243 0.1152 0.0
C167 C 0.06597 0.32381 0.09343 0.0
C168 C 0.07017 0.34383 0.04606 0.0
H169 H 0.88982 0.26731 0.26749 0.0
H170 H 0.94369 0.29561 0.23269 0.0
C171 C 0.09963 0.36207 0.02073 0.0
C172 C 0.03494 0.30508 0.12162 0.0
H173 H 0.95919 0.25078 0.09303 0.0
C174 C 0.03189 0.30928 0.18213 0.0
C175 C 0.00852 0.28317 0.08945 0.0
C176 C 0.01058 0.27627 0.02521 0.0
C177 C 1.00303 0.29265 0.21104 0.0
C178 C 0.97638 0.27166 0.17831 0.0
C179 C 0.97958 0.26703 0.11807 0.0
C180 C 0.94483 0.25439 0.20512 0.0
C181 C 1.00147 0.29743 0.27649 0.0
C182 C 0.92746 0.22179 0.20131 0.0
C183 C 0.89656 0.20556 0.2207 0.0
C184 C 0.88234 0.22162 0.24423 0.0
C185 C 0.90014 0.25419 0.25012 0.0
C186 C 0.93102 0.27043 0.23038 0.0
H187 H 0.02464 0.30668 0.2978 0.0
H188 H 0.99366 0.3146 0.28361 0.0
H189 H 0.98468 0.27535 0.2987 0.0
H190 H 0.93761 0.20892 0.18195 0.0
H191 H 0.88354 0.18049 0.21551 0.0
H192 H 0.79096 0.13897 0.46174 0.0
H193 H 0.76984 0.08688 0.50331 0.0
H194 H 0.71922 0.04693 0.34184 0.0
H195 H 0.73935 0.09913 0.30066 0.0
H196 H 0.68272 0.02145 0.43527 0.0
H197 H 0.79323 0.02168 0.47261 0.0
H198 H 0.79249 0.05351 0.5086 0.0
H199 H 0.7913 0.05115 0.4292 0.0
C200 C 0.77555 0.11913 0.43476 0.0
C201 C 0.76685 0.12327 0.37777 0.0
C202 C 0.76365 0.08928 0.45854 0.0
C203 C 0.7433 0.06288 0.42544 0.0
C204 C 0.73495 0.06693 0.3682 0.0
H205 H 0.68708 0.87091 0.49716 0.0
H206 H 0.71224 0.92491 0.4642 0.0
C207 C 0.74655 0.0968 0.34462 0.0
C208 C 0.72954 0.03114 0.45138 0.0
H209 H 0.74776 0.98014 0.51654 0.0
C210 C 0.69696 0.01238 0.45286 0.0
C211 C 0.7481 0.01917 0.4739 0.0
C212 C 0.78321 0.0373 0.47052 0.0
C213 C 0.68242 0.98209 0.4762 0.0
C214 C 0.70095 0.97049 0.50041 0.0
C215 C 0.73354 0.98919 0.49879 0.0
C216 C 0.68703 0.93831 0.52423 0.0
C217 C 0.64737 0.96251 0.47293 0.0
C218 C 0.66511 0.928 0.57031 0.0
C219 C 0.65039 0.89692 0.58901 0.0
C220 C 0.6577 0.87571 0.56252 0.0
C221 C 0.68082 0.88655 0.51851 0.0
C222 C 0.69526 0.91748 0.49954 0.0
H223 H 0.6375 0.97161 0.43956 0.0
H224 H 0.63993 0.93797 0.46169 0.0
H225 H 0.63728 0.96282 0.51649 0.0
H226 H 0.65897 0.94385 0.59116 0.0
H227 H 0.63285 0.88938 0.62329 0.0
H228 H 0.62409 0.72295 0.65773 0.0
H229 H 0.65495 0.70225 0.70216 0.0
H230 H 0.70001 0.78254 0.81614 0.0
H231 H 0.66878 0.80309 0.7729 0.0
H232 H 0.71717 0.72495 0.70835 0.0
H233 H 0.66884 0.71186 0.93421 0.0
H234 H 0.65186 0.7198 0.87081 0.0
H235 H 0.68584 0.75078 0.90582 0.0
C236 C 0.64066 0.7363 0.69206 0.0
C237 C 0.64379 0.76459 0.71199 0.0
C238 C 0.65825 0.7244 0.71751 0.0
C239 C 0.67932 0.7405 0.76338 0.0
C240 C 0.68331 0.76928 0.78193 0.0
H241 H 0.82325 0.69985 0.87717 0.0
H242 H 0.79489 0.72521 0.84166 0.0
C243 C 0.66561 0.78113 0.75675 0.0
C244 C 0.69723 0.72721 0.79134 0.0
H245 H 0.71171 0.70338 0.92333 0.0
C246 C 0.71597 0.72023 0.75535 0.0
C247 C 0.69527 0.72061 0.85258 0.0
C248 C 0.67414 0.72584 0.89308 0.0
C249 C 0.73302 0.70711 0.77887 0.0
C250 C 0.7319 0.70148 0.8404 0.0
C251 C 0.71289 0.70812 0.87635 0.0
C252 C 0.74951 0.68771 0.86772 0.0
C253 C 0.75144 0.69866 0.73727 0.0
C254 C 0.73364 0.65898 0.89713 0.0
C255 C 0.74985 0.64457 0.91823 0.0
C256 C 0.78226 0.65867 0.91024 0.0
C257 C 0.79827 0.68821 0.88355 0.0
C258 C 0.78207 0.70266 0.86282 0.0
H259 H 0.74333 0.69673 0.69089 0.0
H260 H 0.77633 0.7171 0.73885 0.0
H261 H 0.74972 0.67626 0.75016 0.0
H262 H 0.70854 0.64714 0.90183 0.0
H263 H 0.73679 0.62184 0.93862 0.0
H264 H 0.11802 0.73738 0.26949 0.0
H265 H 0.06403 0.70847 0.23514 0.0
H266 H 0.06721 0.79485 0.19348 0.0
H267 H 0.1214 0.82393 0.2265 0.0
H268 H 0.00954 0.7073 0.26437 0.0
H269 H 0.04494 0.75009 0.03516 0.0
H270 H 0.07274 0.75544 0.09189 0.0
H271 H 0.05637 0.78061 0.08868 0.0
C272 C 0.10711 0.75028 0.25387 0.0
C273 C 0.12416 0.78298 0.25011 0.0
C274 C 0.07624 0.73369 0.23411 0.0
C275 C 0.06183 0.74947 0.21036 0.0
C276 C 0.07813 0.78216 0.21015 0.0
H277 H 0.86397 0.66268 0.12266 0.0
H278 H 0.91557 0.69417 0.16666 0.0
C279 C 0.10905 0.79875 0.22947 0.0
C280 C 0.03032 0.7317 0.1835 0.0
H281 H 0.99075 0.72048 0.05386 0.0
C282 C 0.00539 0.71019 0.21838 0.0
C283 C 0.02506 0.73506 0.12313 0.0
C284 C 0.05122 0.75631 0.0823 0.0
C285 C 0.97529 0.69219 0.19473 0.0
C286 C 0.96985 0.6963 0.13485 0.0
C287 C 0.99485 0.7176 0.09989 0.0
C288 C 0.93862 0.67806 0.10701 0.0
C289 C 0.9498 0.66837 0.23372 0.0
C290 C 0.93459 0.65945 0.05732 0.0
C291 C 0.90519 0.64174 0.03149 0.0
C292 C 0.87918 0.6423 0.0548 0.0
C293 C 0.88345 0.66158 0.1037 0.0
C294 C 0.9129 0.6794 0.12931 0.0
H295 H 0.95944 0.66221 0.27241 0.0
H296 H 0.93543 0.67811 0.25057 0.0
H297 H 0.93437 0.64676 0.20873 0.0
H298 H 0.95415 0.65821 0.03908 0.0
H299 H 0.90277 0.62717 0.99392 0.0
H300 H 0.30494 0.12471 0.55128 0.0
H301 H 0.27847 0.07039 0.519 0.0
H302 H 0.36037 0.0648 0.56129 0.0
H303 H 0.38667 0.11883 0.59517 0.0
H304 H 0.29492 0.0474 0.42868 0.0
H305 H 0.29351 0.98469 0.63192 0.0
H306 H 0.30247 0.02473 0.63287 0.0
H307 H 0.33194 0.01524 0.61324 0.0
C308 C 0.31711 0.11174 0.55484 0.0
C309 C 0.34789 0.12609 0.57595 0.0
C310 C 0.30197 0.08069 0.5362 0.0
C311 C 0.31727 0.06334 0.53817 0.0
C312 C 0.34776 0.0774 0.5606 0.0
H313 H 0.27836 0.90559 0.31584 0.0
H314 H 0.29809 0.95704 0.36008 0.0
C315 C 0.36284 0.10839 0.57977 0.0
C316 C 0.30224 0.03146 0.51249 0.0
H317 H 0.28304 0.95632 0.54126 0.0
C318 C 0.29209 0.02744 0.45352 0.0
C319 C 0.29818 0.0053 0.54497 0.0
C320 C 0.30681 0.00759 0.60943 0.0
C321 C 0.27865 0.99822 0.4258 0.0
C322 C 0.27597 0.97237 0.4574 0.0
C323 C 0.28542 0.9762 0.51679 0.0
C324 C 0.26354 0.9412 0.42966 0.0
C325 C 0.2671 0.99529 0.36314 0.0
C326 C 0.23793 0.915 0.45467 0.0
C327 C 0.22676 0.88547 0.42978 0.0
C328 C 0.24104 0.88151 0.37937 0.0
C329 C 0.2666 0.90783 0.35425 0.0
C330 C 0.27784 0.93732 0.37937 0.0
H331 H 0.26217 0.01421 0.35191 0.0
H332 H 0.28531 0.99703 0.33233 0.0
H333 H 0.24561 0.97254 0.35581 0.0
H334 H 0.22661 0.91739 0.49362 0.0
H335 H 0.20713 0.86571 0.45049 0.0
H336 H 0.16839 0.40085 0.74196 0.0
H337 H 0.16724 0.39687 0.63399 0.0
H338 H 0.26649 0.43308 0.63188 0.0
H339 H 0.26784 0.43673 0.73941 0.0
H340 H 0.19916 0.44431 0.55162 0.0
H341 H 0.2334 0.35379 0.53297 0.0
H342 H 0.22048 0.36216 0.60156 0.0
H343 H 0.25963 0.38714 0.57603 0.0
C344 C 0.18994 0.40791 0.71849 0.0
C345 C 0.21817 0.41895 0.74922 0.0
C346 C 0.18925 0.40558 0.6569 0.0
C347 C 0.2167 0.41413 0.62517 0.0
C348 C 0.24494 0.42564 0.65566 0.0
H349 H 0.25829 0.42797 0.24831 0.0
H350 H 0.26199 0.42876 0.35658 0.0
C351 C 0.24567 0.42791 0.71712 0.0
C352 C 0.21599 0.41203 0.55998 0.0
H353 H 0.23144 0.37795 0.44367 0.0
C354 C 0.20608 0.42971 0.52801 0.0
C355 C 0.22525 0.39308 0.52942 0.0
C356 C 0.23504 0.37273 0.56167 0.0
C357 C 0.20539 0.42916 0.46614 0.0
C358 C 0.21443 0.41007 0.43561 0.0
C359 C 0.22462 0.39258 0.46742 0.0
C360 C 0.21229 0.40725 0.37063 0.0
C361 C 0.19531 0.44926 0.43381 0.0
C362 C 0.1831 0.39398 0.34317 0.0
C363 C 0.18091 0.39348 0.2818 0.0
C364 C 0.20791 0.40612 0.24668 0.0
C365 C 0.23711 0.41811 0.27424 0.0
C366 C 0.23926 0.41862 0.33593 0.0
H367 H 0.19643 0.46795 0.46258 0.0
H368 H 0.21006 0.46014 0.39425 0.0
H369 H 0.17086 0.43458 0.4188 0.0
H370 H 0.16201 0.38458 0.36934 0.0
H371 H 0.15803 0.38376 0.26195 0.0
H372 H 0.76783 0.16791 0.07503 0.0
H373 H 0.7699 0.16781 0.96695 0.0
H374 H 0.83718 0.26604 0.96784 0.0
H375 H 0.835 0.26652 0.07549 0.0
H376 H 0.7886 0.24951 0.8881 0.0
H377 H 0.84085 0.17388 0.8639 0.0
H378 H 0.80641 0.15744 0.90889 0.0
H379 H 0.84089 0.19207 0.93303 0.0
C380 C 0.7831 0.18946 0.0522 0.0
C381 C 0.80129 0.21719 0.08379 0.0
C382 C 0.78441 0.18932 0.99054 0.0
C383 C 0.80407 0.21682 0.95963 0.0
C384 C 0.82201 0.24455 0.991 0.0
H385 H 0.83061 0.25741 0.57988 0.0
H386 H 0.83673 0.26225 0.6876 0.0
C387 C 0.82071 0.24474 0.05251 0.0
C388 C 0.80522 0.21697 0.8944 0.0
H389 H 0.82124 0.18456 0.77633 0.0
C390 C 0.79599 0.23555 0.86354 0.0
C391 C 0.81506 0.19883 0.86277 0.0
C392 C 0.82665 0.17964 0.89375 0.0
C393 C 0.79524 0.23561 0.80163 0.0
C394 C 0.80442 0.21694 0.77002 0.0
C395 C 0.81425 0.19885 0.80087 0.0
C396 C 0.80201 0.21425 0.70503 0.0
C397 C 0.78356 0.25472 0.77056 0.0
C398 C 0.78108 0.18554 0.67946 0.0
C399 C 0.77764 0.18268 0.61834 0.0
C400 C 0.79518 0.20849 0.58151 0.0
C401 C 0.81668 0.23716 0.60714 0.0
C402 C 0.82009 0.23999 0.66856 0.0
H403 H 0.77176 0.26294 0.80141 0.0
H404 H 0.80355 0.27545 0.75026 0.0
H405 H 0.76704 0.24102 0.73474 0.0
H406 H 0.767 0.1654 0.70695 0.0
H407 H 0.76098 0.16022 0.60006 0.0
H408 H 0.59704 0.76238 0.41475 0.0
H409 H 0.60176 0.76586 0.30687 0.0
H410 H 0.55668 0.82098 0.30319 0.0
H411 H 0.55213 0.81794 0.41065 0.0
H412 H 0.55516 0.74753 0.21979 0.0
H413 H 0.63784 0.87498 0.2121 0.0
H414 H 0.62973 0.85254 0.27918 0.0
H415 H 0.60263 0.8638 0.25256 0.0
C416 C 0.58801 0.77512 0.39094 0.0
C417 C 0.57441 0.79006 0.42131 0.0
C418 C 0.59078 0.77714 0.32937 0.0
C419 C 0.58014 0.79421 0.29725 0.0
C420 C 0.56572 0.80832 0.32728 0.0
H421 H 0.57544 0.82919 0.92042 0.0
H422 H 0.57123 0.82919 0.02851 0.0
C423 C 0.56296 0.80637 0.38871 0.0
C424 C 0.58384 0.79701 0.23223 0.0
H425 H 0.61806 0.84963 0.1203 0.0
C426 C 0.56899 0.76982 0.19802 0.0
C427 C 0.60178 0.82618 0.20402 0.0
C428 C 0.61915 0.85605 0.23877 0.0
C429 C 0.57136 0.77102 0.13622 0.0
C430 C 0.58952 0.80014 0.10805 0.0
C431 C 0.60415 0.82738 0.14214 0.0
C432 C 0.59424 0.80248 0.04328 0.0
C433 C 0.55406 0.74113 0.1015 0.0
C434 C 0.60954 0.78845 0.01621 0.0
C435 C 0.612 0.78843 0.95486 0.0
C436 C 0.59937 0.80264 0.91929 0.0
C437 C 0.58539 0.81806 0.94662 0.0
C438 C 0.58289 0.81801 0.00826 0.0
H439 H 0.5351 0.72231 0.12791 0.0
H440 H 0.54385 0.74469 0.06061 0.0
H441 H 0.57054 0.73319 0.08852 0.0
H442 H 0.61905 0.77694 0.04258 0.0
H443 H 0.6232 0.77662 0.93528 0.0
H444 H 0.75417 0.52727 0.74301 0.0
H445 H 0.75682 0.53129 0.63533 0.0
H446 H 0.82999 0.62733 0.64915 0.0
H447 H 0.82874 0.62262 0.75689 0.0
H448 H 0.74479 0.56437 0.56492 0.0
H449 H 0.8685 0.59841 0.53142 0.0
H450 H 0.8496 0.58577 0.60209 0.0
H451 H 0.86436 0.62534 0.57794 0.0
C452 C 0.77118 0.54904 0.72284 0.0
C453 C 0.79156 0.5745 0.75783 0.0
C454 C 0.77258 0.5514 0.66143 0.0
C455 C 0.79393 0.57948 0.63395 0.0
C456 C 0.81404 0.60512 0.66911 0.0
H457 H 0.76959 0.60774 0.25784 0.0
H458 H 0.76823 0.60893 0.36622 0.0
C459 C 0.81325 0.60248 0.73061 0.0
C460 C 0.79428 0.58193 0.56864 0.0
H461 H 0.84152 0.60184 0.44792 0.0
C462 C 0.76593 0.57238 0.53927 0.0
C463 C 0.82182 0.59224 0.53517 0.0
C464 C 0.8527 0.6007 0.56324 0.0
C465 C 0.76419 0.57219 0.47743 0.0
C466 C 0.79187 0.58326 0.44405 0.0
C467 C 0.82031 0.5935 0.47351 0.0
C468 C 0.79189 0.58255 0.37856 0.0
C469 C 0.73256 0.55892 0.44879 0.0
C470 C 0.80634 0.56814 0.3495 0.0
C471 C 0.80804 0.56842 0.28815 0.0
C472 C 0.79476 0.58254 0.2545 0.0
C473 C 0.77967 0.59641 0.28311 0.0
C474 C 0.77873 0.5969 0.34488 0.0
H475 H 0.71359 0.54335 0.47941 0.0
H476 H 0.72853 0.57825 0.43634 0.0
H477 H 0.73093 0.54551 0.40836 0.0
H478 H 0.81653 0.55679 0.37438 0.0
H479 H 0.81963 0.55738 0.26696 0.0
H480 H 0.17738 0.75015 0.58105 0.0
H481 H 0.17063 0.74627 0.68869 0.0
H482 H 0.2406 0.84316 0.7061 0.0
H483 H 0.24718 0.84742 0.59933 0.0
H484 H 0.21645 0.75787 0.77315 0.0
H485 H 0.16887 0.83693 0.80493 0.0
H486 H 0.16989 0.82109 0.73368 0.0
H487 H 0.20431 0.85414 0.76292 0.0
C488 C 0.19109 0.77067 0.60784 0.0
C489 C 0.21273 0.7991 0.58169 0.0
C490 C 0.18722 0.76841 0.6692 0.0
C491 C 0.20474 0.79457 0.70511 0.0
C492 C 0.22632 0.8229 0.67906 0.0
H493 H 0.24018 0.83782 0.07555 0.0
H494 H 0.23904 0.83805 0.96732 0.0
C495 C 0.23019 0.8252 0.61797 0.0
C496 C 0.20191 0.79211 0.77011 0.0
H497 H 0.18774 0.82401 0.89138 0.0
C498 C 0.20981 0.77202 0.79907 0.0
C499 C 0.19337 0.81074 0.80361 0.0
C500 C 0.18333 0.83173 0.77471 0.0
C501 C 0.21041 0.77082 0.86091 0.0
C502 C 0.20244 0.78989 0.89439 0.0
C503 C 0.19402 0.80959 0.86544 0.0
C504 C 0.20281 0.78979 0.95962 0.0
C505 C 0.22051 0.74989 0.88989 0.0
C506 C 0.1825 0.76273 0.9908 0.0
C507 C 0.18315 0.76249 0.05237 0.0
C508 C 0.204 0.78942 0.08388 0.0
C509 C 0.22397 0.8167 0.05252 0.0
C510 C 0.22331 0.81688 0.9908 0.0
H511 H 0.23287 0.74259 0.85849 0.0
H512 H 0.23604 0.76171 0.92812 0.0
H513 H 0.19965 0.7286 0.90638 0.0
H514 H 0.16609 0.74178 0.96749 0.0
H515 H 0.16727 0.74115 0.07519 0.0
H516 H 0.40869 0.24134 0.41309 0.0
H517 H 0.40526 0.23886 0.30501 0.0
H518 H 0.44541 0.17925 0.30273 0.0
H519 H 0.44866 0.1813 0.41033 0.0
H520 H 0.45357 0.25597 0.22157 0.0
H521 H 0.36529 0.13022 0.20544 0.0
H522 H 0.37312 0.1519 0.27346 0.0
H523 H 0.39905 0.13879 0.24864 0.0
C524 C 0.41681 0.22774 0.38956 0.0
C525 C 0.42878 0.21138 0.4203 0.0
C526 C 0.41481 0.22631 0.3279 0.0
C527 C 0.42456 0.2084 0.29609 0.0
C528 C 0.43712 0.19263 0.32656 0.0
H529 H 0.43374 0.17722 0.91863 0.0
H530 H 0.43669 0.17595 0.02682 0.0
C531 C 0.43912 0.19401 0.38808 0.0
C532 C 0.42219 0.2067 0.2309 0.0
H533 H 0.38804 0.15638 0.11564 0.0
C534 C 0.43918 0.23424 0.19838 0.0
C535 C 0.40353 0.17823 0.20089 0.0
C536 C 0.38397 0.14811 0.23379 0.0
C537 C 0.43818 0.23407 0.13648 0.0
C538 C 0.41927 0.20567 0.1065 0.0
C539 C 0.40253 0.17806 0.13891 0.0
C540 C 0.41574 0.20457 0.04156 0.0
C541 C 0.45764 0.26422 0.10359 0.0
C542 C 0.40212 0.22024 0.01447 0.0
C543 C 0.40037 0.22098 0.9531 0.0
C544 C 0.41208 0.2059 0.91756 0.0
C545 C 0.42457 0.18909 0.94484 0.0
C546 C 0.42632 0.18838 0.00651 0.0
H547 H 0.47664 0.28196 0.13164 0.0
H548 H 0.46808 0.26041 0.06331 0.0
H549 H 0.44259 0.27375 0.08973 0.0
H550 H 0.39324 0.23232 0.04087 0.0
H551 H 0.39031 0.23388 0.93357 0.0
H552 H 0.25391 0.52035 0.20004 0.0
H553 H 0.24602 0.56241 0.23408 0.0
H554 H 0.17779 0.54093 0.09684 0.0
H555 H 0.18483 0.49766 0.06368 0.0
H556 H 0.25799 0.61299 0.17696 0.0
H557 H 0.13273 0.54972 0.23686 0.0
H558 H 0.1542 0.52994 0.22182 0.0
H559 H 0.14005 0.54334 0.16197 0.0
C560 C 0.23704 0.52437 0.1772 0.0
C561 C 0.22007 0.50576 0.12896 0.0
C562 C 0.23251 0.54844 0.19686 0.0
C563 C 0.21111 0.55475 0.1685 0.0
C564 C 0.19392 0.5361 0.12037 0.0
H565 H 0.22773 0.73671 0.19764 0.0
H566 H 0.22503 0.68879 0.16376 0.0
C567 C 0.19813 0.51155 0.10112 0.0
C568 C 0.20863 0.58213 0.18759 0.0
H569 H 0.15812 0.60513 0.23715 0.0
C570 C 0.23612 0.61118 0.19025 0.0
C571 C 0.18019 0.57977 0.2057 0.0
C572 C 0.15015 0.54898 0.20707 0.0
C573 C 0.23604 0.63786 0.21038 0.0
C574 C 0.20747 0.63579 0.22643 0.0
C575 C 0.17994 0.60674 0.22426 0.0
C576 C 0.206 0.66369 0.2454 0.0
C577 C 0.26678 0.66786 0.2156 0.0
C578 C 0.19467 0.66503 0.3016 0.0
C579 C 0.19569 0.6924 0.32088 0.0
C580 C 0.20823 0.71884 0.28431 0.0
C581 C 0.21842 0.71693 0.2273 0.0
C582 C 0.217 0.68956 0.20787 0.0
H583 H 0.28663 0.66348 0.21891 0.0
H584 H 0.27045 0.68223 0.1756 0.0
H585 H 0.26718 0.68147 0.25487 0.0
H586 H 0.18588 0.64524 0.33114 0.0
H587 H 0.18756 0.69315 0.36492 0.0
H588 H 0.69037 0.16607 0.44385 0.0
H589 H 0.63882 0.15476 0.47903 0.0
H590 H 0.66644 0.25171 0.46062 0.0
H591 H 0.71786 0.26326 0.42629 0.0
H592 H 0.63143 0.1898 0.58477 0.0
H593 H 0.57829 0.19827 0.37461 0.0
H594 H 0.60887 0.18852 0.37715 0.0
H595 H 0.61807 0.22814 0.38693 0.0
C596 C 0.68524 0.18485 0.44643 0.0
C597 C 0.70813 0.21557 0.43235 0.0
C598 C 0.65589 0.17838 0.46675 0.0
C599 C 0.6489 0.2024 0.47209 0.0
C600 C 0.67137 0.23284 0.45633 0.0
H601 H 0.5172 0.25145 0.5827 0.0
H602 H 0.55894 0.24468 0.5425 0.0
C603 C 0.70074 0.23939 0.43686 0.0
C604 C 0.6189 0.19651 0.49729 0.0
H605 H 0.55425 0.20099 0.4636 0.0
C606 C 0.61416 0.19163 0.55835 0.0
C607 C 0.59666 0.19904 0.46251 0.0
C608 C 0.60046 0.20355 0.39653 0.0
C609 C 0.58854 0.19108 0.58619 0.0
C610 C 0.56686 0.19486 0.55163 0.0
C611 C 0.57091 0.19819 0.49009 0.0
C612 C 0.54154 0.19849 0.57853 0.0
C613 C 0.58593 0.18833 0.65258 0.0
C614 C 0.51787 0.1748 0.61268 0.0
C615 C 0.49394 0.17875 0.63646 0.0
C616 C 0.49315 0.20628 0.62573 0.0
C617 C 0.51701 0.22991 0.59176 0.0
C618 C 0.5409 0.22606 0.56855 0.0
H619 H 0.60782 0.19204 0.67341 0.0
H620 H 0.58006 0.20546 0.6713 0.0
H621 H 0.56701 0.16465 0.66462 0.0
H622 H 0.51759 0.1531 0.6201 0.0
H623 H 0.47574 0.16002 0.66198 0.0
H624 H 0.27092 0.49229 0.86712 0.0
H625 H 0.31902 0.53679 0.83232 0.0
H626 H 0.36345 0.54005 -0.00179 0.0
H627 H 0.31535 0.49423 0.03251 0.0
H628 H 0.3456 0.59277 0.87484 0.0
H629 H 0.43066 0.55144 0.88506 0.0
H630 H 0.38923 0.52539 0.89182 0.0
H631 H 0.41159 0.54789 0.95434 0.0
C632 C 0.29103 0.50215 0.89604 0.0
C633 C 0.28934 0.48975 0.95265 0.0
C634 C 0.31857 0.52764 0.87601 0.0
C635 C 0.34504 0.5417 0.9123 0.0
C636 C 0.34362 0.52918 0.96875 0.0
H637 H 0.48631 0.73453 0.87282 0.0
H638 H 0.44392 0.68407 0.90426 0.0
C639 C 0.31607 0.50316 0.98853 0.0
C640 C 0.37296 0.57089 0.89228 0.0
H641 H 0.45161 0.60609 0.87028 0.0
C642 C 0.36872 0.59551 0.87353 0.0
C643 C 0.40311 0.57445 0.88974 0.0
C644 C 0.40894 0.54828 0.90573 0.0
C645 C 0.39367 0.62359 0.85299 0.0
C646 C 0.42406 0.62773 0.85312 0.0
C647 C 0.42835 0.603 0.87084 0.0
C648 C 0.45155 0.65792 0.83631 0.0
C649 C 0.38704 0.64835 0.83046 0.0
C650 C 0.47096 0.6599 0.78926 0.0
C651 C 0.4957 0.68889 0.77156 0.0
C652 C 0.50122 0.71626 0.80055 0.0
C653 C 0.48233 0.71397 0.84878 0.0
C654 C 0.458 0.68511 0.8668 0.0
H655 H 0.36243 0.63818 0.81595 0.0
H656 H 0.39109 0.66512 0.86653 0.0
H657 H 0.40246 0.66134 0.79281 0.0
H658 H 0.46653 0.63915 0.76541 0.0
H659 H 0.51001 0.68995 0.73451 0.0
H660 H 0.83589 0.31556 0.34847 0.0
H661 H 0.8411 0.36471 0.31276 0.0
H662 H 0.77172 0.31456 0.17921 0.0
H663 H 0.76665 0.26574 0.21375 0.0
H664 H 0.82401 0.36886 0.13673 0.0
H665 H 0.77518 0.3908 0.34069 0.0
H666 H 0.80812 0.38533 0.35045 0.0
H667 H 0.77174 0.35352 0.32514 0.0
C668 C 0.82181 0.31505 0.31145 0.0
C669 C 0.80067 0.28668 0.28432 0.0
C670 C 0.82475 0.34312 0.29122 0.0
C671 C 0.80656 0.34321 0.2437 0.0
C672 C 0.78597 0.31502 0.21594 0.0
H673 H 0.7372 0.46017 0.1345 0.0
H674 H 0.74826 0.42016 0.16891 0.0
C675 C 0.78299 0.28708 0.23604 0.0
C676 C 0.80799 0.37231 0.22327 0.0
H677 H 0.78807 0.42648 0.26287 0.0
C678 C 0.81654 0.38176 0.16444 0.0
C679 C 0.79796 0.38885 0.25946 0.0
C680 C 0.78749 0.37911 0.32233 0.0
C681 C 0.81447 0.40677 0.14032 0.0
C682 C 0.8039 0.42293 0.17624 0.0
C683 C 0.79628 0.41409 0.23555 0.0
C684 C 0.79779 0.44716 0.1521 0.0
C685 C 0.82218 0.41479 0.07595 0.0
C686 C 0.82198 0.47559 0.13047 0.0
C687 C 0.81569 0.49863 0.11037 0.0
C688 C 0.78514 0.49361 0.11202 0.0
C689 C 0.761 0.46487 0.13271 0.0
C690 C 0.76728 0.44196 0.15258 0.0
H691 H 0.82471 0.39665 0.05191 0.0
H692 H 0.80381 0.41777 0.05398 0.0
H693 H 0.84447 0.43713 0.07229 0.0
H694 H 0.84577 0.48022 0.13041 0.0
H695 H 0.83482 0.52061 0.0951 0.0
H696 H 0.29201 0.74481 0.43527 0.0
H697 H 0.34363 0.75766 0.47071 0.0
H698 H 0.37117 0.85496 0.47598 0.0
H699 H 0.31935 0.84234 0.43988 0.0
H700 H 0.40879 0.80951 0.41757 0.0
H701 H 0.38133 0.82235 0.65126 0.0
H702 H 0.35076 0.79799 0.60014 0.0
H703 H 0.37061 0.83946 0.59192 0.0
C704 C 0.3091 0.76901 0.44335 0.0
C705 C 0.30157 0.79256 0.43496 0.0
C706 C 0.33857 0.77628 0.46355 0.0
C707 C 0.36101 0.80717 0.47629 0.0
C708 C 0.35403 0.83095 0.4665 0.0
H709 H 0.53292 0.84712 0.66734 0.0
H710 H 0.49224 0.85549 0.62363 0.0
C711 C 0.32451 0.82372 0.44567 0.0
C712 C 0.39121 0.81385 0.50176 0.0
H713 H 0.42728 0.82072 0.63397 0.0
C714 C 0.41317 0.81254 0.46473 0.0
C715 C 0.39686 0.81803 0.56318 0.0
C716 C 0.37376 0.81956 0.60438 0.0
C717 C 0.44013 0.81401 0.48792 0.0
C718 C 0.44474 0.81597 0.54988 0.0
C719 C 0.42364 0.81908 0.58657 0.0
C720 C 0.46931 0.81137 0.57743 0.0
C721 C 0.46309 0.81276 0.44587 0.0
C722 C 0.46931 0.78349 0.56742 0.0
C723 C 0.49228 0.77867 0.59213 0.0
C724 C 0.51574 0.80151 0.62808 0.0
C725 C 0.51521 0.82911 0.63979 0.0
C726 C 0.49208 0.83396 0.61473 0.0
H727 H 0.46215 0.82202 0.4017 0.0
H728 H 0.48729 0.82623 0.463 0.0
H729 H 0.45713 0.78817 0.44002 0.0
H730 H 0.45145 0.76534 0.54028 0.0
H731 H 0.49171 0.75698 0.5826 0.0
H732 H 0.73562 0.49501 0.9022 0.0
H733 H 0.68629 0.45262 0.86634 0.0
H734 H 0.63647 0.48227 0.98055 0.0
H735 H 0.68619 0.5252 0.01719 0.0
H736 H 0.615 0.41767 0.98456 0.0
H737 H 0.62424 0.45801 0.75367 0.0
H738 H 0.65851 0.45758 0.77777 0.0
H739 H 0.64775 0.48343 0.81273 0.0
C740 C 0.71426 0.49276 0.91968 0.0
C741 C 0.7149 0.5137 0.96237 0.0
C742 C 0.68603 0.46857 0.89871 0.0
C743 C 0.65773 0.4647 0.91978 0.0
C744 C 0.65811 0.48513 0.9632 0.0
H745 H 0.48433 0.31686 0.75677 0.0
H746 H 0.52349 0.36817 0.79491 0.0
C747 C 0.6865 0.50957 0.98415 0.0
C748 C 0.62802 0.43824 0.89805 0.0
H749 H 0.58884 0.4034 0.771 0.0
C750 C 0.60893 0.41479 0.93805 0.0
C751 C 0.61989 0.4347 0.83746 0.0
C752 C 0.6385 0.45993 0.793 0.0
C753 C 0.58305 0.38701 0.91848 0.0
C754 C 0.57637 0.38249 0.85731 0.0
C755 C 0.59423 0.40675 0.81779 0.0
C756 C 0.5527 0.35184 0.83328 0.0
C757 C 0.56351 0.36241 0.96332 0.0
C758 C 0.55664 0.32598 0.84084 0.0
C759 C 0.53457 0.29688 0.81898 0.0
C760 C 0.50804 0.29297 0.78881 0.0
C761 C 0.50447 0.3191 0.7799 0.0
C762 C 0.52674 0.34837 0.80176 0.0
H763 H 0.56561 0.37267 0.00789 0.0
H764 H 0.53857 0.34976 0.95028 0.0
H765 H 0.57166 0.3453 0.96639 0.0
H766 H 0.57687 0.3283 0.8638 0.0
H767 H 0.53822 0.27736 0.82637 0.0
loop_
_geom_bond_atom_site_label_1
_geom_bond_atom_site_label_2
_geom_bond_distance
_geom_bond_site_symmetry_2
_ccdc_geom_bond_type
Zn0 O6 1.969 . S
Zn0 O7 1.965 . S
Zn0 O11 2.024 . S
Zn0 O16 1.969 . S
Zn1 O8 1.969 . S
Zn1 O14 1.969 . S
Zn1 O15 1.965 . S
Zn1 O17 2.024 . S
C2 O3 1.229 . S
C2 O11 1.058 . S
O3 C2 1.229 . S
C4 O5 1.229 . S
C4 O17 1.058 . S
O5 C4 1.229 . S
O6 Zn0 1.969 . S
O6 C9 1.267 . S
O7 Zn0 1.965 . S
O7 C18 1.260 . S
O8 Zn1 1.969 . S
O8 C18 1.258 1_556 S
C9 O6 1.267 . S
C9 O10 1.228 . S
O10 C9 1.228 . S
O11 Zn0 2.024 . S
O11 C2 1.058 . S
C12 O13 1.228 . S
C12 O14 1.267 . S
O13 C12 1.228 . S
O14 Zn1 1.969 . S
O14 C12 1.267 . S
O15 Zn1 1.965 . S
O15 C19 1.260 . S
O16 Zn0 1.969 . S
O16 C19 1.258 1_554 S
O17 Zn1 2.024 . S
O17 C4 1.058 . S
C18 O7 1.260 . S
C18 O8 1.258 1_554 S
C19 O15 1.260 . S
C19 O16 1.258 1_556 S
Zn20 O26 1.969 . S
Zn20 O27 1.965 . S
Zn20 O31 2.024 . S
Zn20 O36 1.969 . S
Zn21 O28 1.969 . S
Zn21 O34 1.969 . S
Zn21 O35 1.965 . S
Zn21 O37 2.024 . S
C22 O23 1.229 . S
C22 O31 1.058 . S
O23 C22 1.229 . S
C24 O25 1.229 . S
C24 O37 1.058 . S
O25 C24 1.229 . S
O26 Zn20 1.969 . S
O26 C29 1.267 . S
O27 Zn20 1.965 . S
O27 C38 1.260 . S
O28 Zn21 1.969 . S
O28 C38 1.258 . S
C29 O26 1.267 . S
C29 O30 1.228 . S
O30 C29 1.228 . S
O31 Zn20 2.024 . S
O31 C22 1.058 . S
C32 O33 1.228 . S
C32 O34 1.267 . S
O33 C32 1.228 . S
O34 Zn21 1.969 . S
O34 C32 1.267 . S
O35 Zn21 1.965 . S
O35 C39 1.260 . S
O36 Zn20 1.969 . S
O36 C39 1.258 . S
O37 Zn21 2.024 . S
O37 C24 1.058 . S
C38 O27 1.260 . S
C38 O28 1.258 . S
C39 O35 1.260 . S
C39 O36 1.258 . S
Zn40 O46 1.969 . S
Zn40 O47 1.965 . S
Zn40 O51 2.024 . S
Zn40 O56 1.969 . S
Zn41 O48 1.969 . S
Zn41 O54 1.969 . S
Zn41 O55 1.965 . S
Zn41 O57 2.024 . S
C42 O43 1.229 . S
C42 O51 1.058 . S
O43 C42 1.229 . S
C44 O45 1.229 . S
C44 O57 1.058 . S
O45 C44 1.229 . S
O46 Zn40 1.969 . S
O46 C49 1.267 . S
O47 Zn40 1.965 . S
O47 C58 1.260 . S
O48 Zn41 1.969 . S
O48 C58 1.258 . S
C49 O46 1.267 . S
C49 O50 1.228 . S
O50 C49 1.228 . S
O51 Zn40 2.024 . S
O51 C42 1.058 . S
C52 O53 1.228 . S
C52 O54 1.267 . S
O53 C52 1.228 . S
O54 Zn41 1.969 . S
O54 C52 1.267 . S
O55 Zn41 1.965 . S
O55 C59 1.260 . S
O56 Zn40 1.969 . S
O56 C59 1.258 . S
O57 Zn41 2.024 . S
O57 C44 1.058 . S
C58 O47 1.260 . S
C58 O48 1.258 . S
C59 O55 1.260 . S
C59 O56 1.258 . S
Zn60 O66 1.969 . S
Zn60 O67 1.965 . S
Zn60 O71 2.024 . S
Zn60 O76 1.969 . S
Zn61 O68 1.969 . S
Zn61 O74 1.969 . S
Zn61 O75 1.965 . S
Zn61 O77 2.024 . S
C62 O63 1.229 . S
C62 O71 1.058 . S
O63 C62 1.229 . S
C64 O65 1.229 . S
C64 O77 1.058 . S
O65 C64 1.229 . S
O66 Zn60 1.969 . S
O66 C69 1.267 . S
O67 Zn60 1.965 . S
O67 C78 1.260 . S
O68 Zn61 1.969 . S
O68 C78 1.258 1_556 S
C69 O66 1.267 . S
C69 O70 1.228 . S
O70 C69 1.228 . S
O71 Zn60 2.024 . S
O71 C62 1.058 . S
C72 O73 1.228 . S
C72 O74 1.267 . S
O73 C72 1.228 . S
O74 Zn61 1.969 . S
O74 C72 1.267 . S
O75 Zn61 1.965 . S
O75 C79 1.260 . S
O76 Zn60 1.969 . S
O76 C79 1.258 1_554 S
O77 Zn61 2.024 . S
O77 C64 1.058 . S
C78 O67 1.260 . S
C78 O68 1.258 1_554 S
C79 O75 1.260 . S
C79 O76 1.258 1_556 S
Zn80 O86 1.969 . S
Zn80 O87 1.965 . S
Zn80 O91 2.024 . S
Zn80 O96 1.969 . S
Zn81 O88 1.969 . S
Zn81 O94 1.969 . S
Zn81 O95 1.965 . S
Zn81 O97 2.024 . S
C82 O83 1.229 . S
C82 O91 1.058 . S
O83 C82 1.229 . S
C84 O85 1.229 . S
C84 O97 1.058 . S
O85 C84 1.229 . S
O86 Zn80 1.969 . S
O86 C89 1.267 . S
O87 Zn80 1.965 . S
O87 C98 1.260 . S
O88 Zn81 1.969 . S
O88 C98 1.258 . S
C89 O86 1.267 . S
C89 O90 1.228 . S
O90 C89 1.228 . S
O91 Zn80 2.024 . S
O91 C82 1.058 . S
C92 O93 1.228 . S
C92 O94 1.267 . S
O93 C92 1.228 . S
O94 Zn81 1.969 . S
O94 C92 1.267 . S
O95 Zn81 1.965 . S
O95 C99 1.260 . S
O96 Zn80 1.969 . S
O96 C99 1.258 . S
O97 Zn81 2.024 . S
O97 C84 1.058 . S
C98 O87 1.260 . S
C98 O88 1.258 . S
C99 O95 1.260 . S
C99 O96 1.258 . S
Zn100 O106 1.969 . S
Zn100 O107 1.965 . S
Zn100 O111 2.024 . S
Zn100 O116 1.969 . S
Zn101 O108 1.969 . S
Zn101 O114 1.969 . S
Zn101 O115 1.965 . S
Zn101 O117 2.024 . S
C102 O103 1.229 . S
C102 O111 1.058 . S
O103 C102 1.229 . S
C104 O105 1.229 . S
C104 O117 1.058 . S
O105 C104 1.229 . S
O106 Zn100 1.969 . S
O106 C109 1.267 . S
O107 Zn100 1.965 . S
O107 C118 1.260 . S
O108 Zn101 1.969 . S
O108 C118 1.258 . S
C109 O106 1.267 . S
C109 O110 1.228 . S
O110 C109 1.228 . S
O111 Zn100 2.024 . S
O111 C102 1.058 . S
C112 O113 1.228 . S
C112 O114 1.267 . S
O113 C112 1.228 . S
O114 Zn101 1.969 . S
O114 C112 1.267 . S
O115 Zn101 1.965 . S
O115 C119 1.260 . S
O116 Zn100 1.969 . S
O116 C119 1.258 . S
O117 Zn101 2.024 . S
O117 C104 1.058 . S
C118 O107 1.260 . S
C118 O108 1.258 . S
C119 O115 1.260 . S
C119 O116 1.258 . S
H120 C128 0.929 . S
H121 C130 0.930 . S
H122 C132 0.930 . S
H123 C135 0.929 . S
H124 C138 0.930 . S
H125 C140 0.960 . S
H126 C140 0.960 . S
H127 C140 0.960 . S
C128 H120 0.929 . S
C128 C129 1.377 . S
C128 C130 1.384 . S
C129 C128 1.377 . S
C129 C135 1.390 . S
C130 H121 0.930 . S
C130 C128 1.384 . S
C130 C131 1.372 . S
C131 C130 1.372 . S
C131 C132 1.400 . S
C131 C136 1.490 . S
C132 H122 0.930 . S
C132 C131 1.400 . S
C132 C135 1.386 . S
H133 C149 0.930 . S
H134 C150 0.931 . S
C135 H123 0.929 . S
C135 C129 1.390 . S
C135 C132 1.386 . S
C136 C131 1.490 . S
C136 C138 1.395 . S
C136 C139 1.403 . S
H137 C143 0.930 . S
C138 H124 0.930 . S
C138 C136 1.395 . S
C138 C141 1.403 . S
C139 C136 1.403 . S
C139 C140 1.524 . S
C139 C143 1.400 . S
C140 H125 0.960 . S
C140 H126 0.960 . S
C140 H127 0.960 . S
C140 C139 1.524 . S
C141 C138 1.403 . S
C141 C142 1.392 . S
C141 C145 1.495 . S
C142 C141 1.392 . S
C142 C143 1.385 . S
C142 C144 1.478 . S
C143 H137 0.930 . S
C143 C139 1.400 . S
C143 C142 1.385 . S
C144 C142 1.478 . S
C144 C146 1.381 . S
C144 C150 1.383 . S
C145 C141 1.495 . S
C145 H151 0.959 . S
C145 H152 0.961 . S
C145 H153 0.960 . S
C146 C144 1.381 . S
C146 C147 1.394 . S
C146 H154 0.930 . S
C147 C146 1.394 . S
C147 C148 1.383 . S
C147 H155 0.929 . S
C148 C147 1.383 . S
C148 C149 1.377 . S
C149 H133 0.930 . S
C149 C148 1.377 . S
C149 C150 1.379 . S
C150 H134 0.931 . S
C150 C144 1.383 . S
C150 C149 1.379 . S
H151 C145 0.959 . S
H152 C145 0.961 . S
H153 C145 0.960 . S
H154 C146 0.930 . S
H155 C147 0.929 . S
H156 C164 0.929 . S
H157 C166 0.930 . S
H158 C168 0.930 . S
H159 C171 0.929 . S
H160 C174 0.930 . S
H161 C176 0.960 . S
H162 C176 0.960 . S
H163 C176 0.960 . S
C164 H156 0.929 . S
C164 C165 1.377 . S
C164 C166 1.384 . S
C165 C164 1.377 . S
C165 C171 1.390 . S
C166 H157 0.930 . S
C166 C164 1.384 . S
C166 C167 1.372 . S
C167 C166 1.372 . S
C167 C168 1.400 . S
C167 C172 1.490 . S
C168 H158 0.930 . S
C168 C167 1.400 . S
C168 C171 1.386 . S
H169 C185 0.930 . S
H170 C186 0.931 . S
C171 H159 0.929 . S
C171 C165 1.390 . S
C171 C168 1.386 . S
C172 C167 1.490 . S
C172 C174 1.395 . S
C172 C175 1.403 . S
H173 C179 0.930 . S
C174 H160 0.930 . S
C174 C172 1.395 . S
C174 C177 1.403 . S
C175 C172 1.403 . S
C175 C176 1.524 . S
C175 C179 1.400 1_455 S
C176 H161 0.960 . S
C176 H162 0.960 . S
C176 H163 0.960 . S
C176 C175 1.524 . S
C177 C174 1.403 . S
C177 C178 1.392 1_455 S
C177 C181 1.495 . S
C178 C177 1.392 1_655 S
C178 C179 1.385 . S
C178 C180 1.478 . S
C179 H173 0.930 . S
C179 C175 1.400 1_655 S
C179 C178 1.385 . S
C180 C178 1.478 . S
C180 C182 1.381 . S
C180 C186 1.383 . S
C181 C177 1.495 . S
C181 H187 0.959 . S
C181 H188 0.961 . S
C181 H189 0.960 1_455 S
C182 C180 1.381 . S
C182 C183 1.394 . S
C182 H190 0.930 . S
C183 C182 1.394 . S
C183 C184 1.383 . S
C183 H191 0.929 . S
C184 C183 1.383 . S
C184 C185 1.377 . S
C185 H169 0.930 . S
C185 C184 1.377 . S
C185 C186 1.379 . S
C186 H170 0.931 . S
C186 C180 1.383 . S
C186 C185 1.379 . S
H187 C181 0.959 . S
H188 C181 0.961 . S
H189 C181 0.960 1_655 S
H190 C182 0.930 . S
H191 C183 0.929 . S
H192 C200 0.929 . S
H193 C202 0.930 . S
H194 C204 0.930 . S
H195 C207 0.929 . S
H196 C210 0.930 . S
H197 C212 0.960 . S
H198 C212 0.960 . S
H199 C212 0.960 . S
C200 H192 0.929 . S
C200 C201 1.377 . S
C200 C202 1.384 . S
C201 C200 1.377 . S
C201 C207 1.390 . S
C202 H193 0.930 . S
C202 C200 1.384 . S
C202 C203 1.372 . S
C203 C202 1.372 . S
C203 C204 1.400 . S
C203 C208 1.490 . S
C204 H194 0.930 . S
C204 C203 1.400 . S
C204 C207 1.386 . S
H205 C221 0.930 . S
H206 C222 0.931 . S
C207 H195 0.929 . S
C207 C201 1.390 . S
C207 C204 1.386 . S
C208 C203 1.490 . S
C208 C210 1.395 . S
C208 C211 1.403 . S
H209 C215 0.930 1_565 S
C210 H196 0.930 . S
C210 C208 1.395 . S
C210 C213 1.403 . S
C211 C208 1.403 . S
C211 C212 1.524 . S
C211 C215 1.400 . S
C212 H197 0.960 . S
C212 H198 0.960 . S
C212 H199 0.960 . S
C212 C211 1.524 . S
C213 C210 1.403 . S
C213 C214 1.392 1_545 S
C213 C217 1.495 1_545 S
C214 C213 1.392 1_565 S
C214 C215 1.385 1_565 S
C214 C216 1.478 . S
C215 H209 0.930 1_545 S
C215 C211 1.400 . S
C215 C214 1.385 1_545 S
C216 C214 1.478 . S
C216 C218 1.381 . S
C216 C222 1.383 . S
C217 C213 1.495 1_565 S
C217 H223 0.959 1_565 S
C217 H224 0.961 . S
C217 H225 0.960 . S
C218 C216 1.381 . S
C218 C219 1.394 . S
C218 H226 0.930 . S
C219 C218 1.394 . S
C219 C220 1.383 . S
C219 H227 0.929 . S
C220 C219 1.383 . S
C220 C221 1.377 . S
C221 H205 0.930 . S
C221 C220 1.377 . S
C221 C222 1.379 . S
C222 H206 0.931 . S
C222 C216 1.383 . S
C222 C221 1.379 . S
H223 C217 0.959 1_545 S
H224 C217 0.961 . S
H225 C217 0.960 . S
H226 C218 0.930 . S
H227 C219 0.929 . S
H228 C236 0.929 . S
H229 C238 0.930 . S
H230 C240 0.930 . S
H231 C243 0.929 . S
H232 C246 0.930 . S
H233 C248 0.960 . S
H234 C248 0.960 . S
H235 C248 0.960 . S
C236 H228 0.929 . S
C236 C237 1.377 . S
C236 C238 1.384 . S
C237 C236 1.377 . S
C237 C243 1.390 . S
C238 H229 0.930 . S
C238 C236 1.384 . S
C238 C239 1.372 . S
C239 C238 1.372 . S
C239 C240 1.400 . S
C239 C244 1.490 . S
C240 H230 0.930 . S
C240 C239 1.400 . S
C240 C243 1.386 . S
H241 C257 0.930 . S
H242 C258 0.931 . S
C243 H231 0.929 . S
C243 C237 1.390 . S
C243 C240 1.386 . S
C244 C239 1.490 . S
C244 C246 1.395 . S
C244 C247 1.403 . S
H245 C251 0.930 . S
C246 H232 0.930 . S
C246 C244 1.395 . S
C246 C249 1.403 . S
C247 C244 1.403 . S
C247 C248 1.524 . S
C247 C251 1.400 . S
C248 H233 0.960 . S
C248 H234 0.960 . S
C248 H235 0.960 . S
C248 C247 1.524 . S
C249 C246 1.403 . S
C249 C250 1.392 . S
C249 C253 1.495 . S
C250 C249 1.392 . S
C250 C251 1.385 . S
C250 C252 1.478 . S
C251 H245 0.930 . S
C251 C247 1.400 . S
C251 C250 1.385 . S
C252 C250 1.478 . S
C252 C254 1.381 . S
C252 C258 1.383 . S
C253 C249 1.495 . S
C253 H259 0.959 . S
C253 H260 0.961 . S
C253 H261 0.960 . S
C254 C252 1.381 . S
C254 C255 1.394 . S
C254 H262 0.930 . S
C255 C254 1.394 . S
C255 C256 1.383 . S
C255 H263 0.929 . S
C256 C255 1.383 . S
C256 C257 1.377 . S
C257 H241 0.930 . S
C257 C256 1.377 . S
C257 C258 1.379 . S
C258 H242 0.931 . S
C258 C252 1.383 . S
C258 C257 1.379 . S
H259 C253 0.959 . S
H260 C253 0.961 . S
H261 C253 0.960 . S
H262 C254 0.930 . S
H263 C255 0.929 . S
H264 C272 0.929 . S
H265 C274 0.930 . S
H266 C276 0.930 . S
H267 C279 0.929 . S
H268 C282 0.930 1_455 S
H269 C284 0.994 . S
H270 C284 0.960 . S
H271 C284 0.960 . S
C272 H264 0.929 . S
C272 C273 1.377 . S
C272 C274 1.384 . S
C273 C272 1.377 . S
C273 C279 1.390 . S
C274 H265 0.930 . S
C274 C272 1.384 . S
C274 C275 1.372 . S
C275 C274 1.372 . S
C275 C276 1.400 . S
C275 C280 1.490 . S
C276 H266 0.930 . S
C276 C275 1.400 . S
C276 C279 1.386 . S
H277 C293 0.930 . S
H278 C294 0.931 . S
C279 H267 0.929 . S
C279 C273 1.390 . S
C279 C276 1.386 . S
C280 C275 1.490 . S
C280 C282 1.395 1_455 S
C280 C283 1.403 1_455 S
H281 C287 0.930 . S
C282 H268 0.930 1_655 S
C282 C280 1.395 1_655 S
C282 C285 1.403 . S
C283 C280 1.403 1_655 S
C283 C284 1.524 1_655 S
C283 C287 1.400 . S
C284 H269 0.994 . S
C284 H270 0.960 . S
C284 H271 0.960 . S
C284 C283 1.524 1_455 S
C285 C282 1.403 . S
C285 C286 1.392 . S
C285 C289 1.495 . S
C286 C285 1.392 . S
C286 C287 1.385 . S
C286 C288 1.478 . S
C287 H281 0.930 . S
C287 C283 1.400 . S
C287 C286 1.385 . S
C288 C286 1.478 . S
C288 C290 1.381 . S
C288 C294 1.383 . S
C289 C285 1.495 . S
C289 H295 0.959 . S
C289 H296 0.961 . S
C289 H297 0.960 . S
C290 C288 1.381 . S
C290 C291 1.394 . S
C290 H298 0.930 . S
C291 C290 1.394 . S
C291 C292 1.383 . S
C291 H299 0.929 1_554 S
C292 C291 1.383 . S
C292 C293 1.377 . S
C293 H277 0.930 . S
C293 C292 1.377 . S
C293 C294 1.379 . S
C294 H278 0.931 . S
C294 C288 1.383 . S
C294 C293 1.379 . S
H295 C289 0.959 . S
H296 C289 0.961 . S
H297 C289 0.960 . S
H298 C290 0.930 . S
H299 C291 0.929 1_556 S
H300 C308 0.929 . S
H301 C310 0.930 . S
H302 C312 0.930 . S
H303 C315 0.929 . S
H304 C318 0.930 . S
H305 C320 0.960 . S
H306 C320 0.960 1_545 S
H307 C320 0.960 1_545 S
C308 H300 0.929 . S
C308 C309 1.377 . S
C308 C310 1.384 . S
C309 C308 1.377 . S
C309 C315 1.390 . S
C310 H301 0.930 . S
C310 C308 1.384 . S
C310 C311 1.372 . S
C311 C310 1.372 . S
C311 C312 1.400 . S
C311 C316 1.490 . S
C312 H302 0.930 . S
C312 C311 1.400 . S
C312 C315 1.386 . S
H313 C329 0.930 . S
H314 C330 0.931 . S
C315 H303 0.929 . S
C315 C309 1.390 . S
C315 C312 1.386 . S
C316 C311 1.490 . S
C316 C318 1.395 . S
C316 C319 1.403 1_545 S
H317 C323 0.930 . S
C318 H304 0.930 . S
C318 C316 1.395 . S
C318 C321 1.403 1_545 S
C319 C316 1.403 1_565 S
C319 C320 1.524 . S
C319 C323 1.400 . S
C320 H305 0.960 . S
C320 H306 0.960 1_565 S
C320 H307 0.960 1_565 S
C320 C319 1.524 . S
C321 C318 1.403 1_565 S
C321 C322 1.392 . S
C321 C325 1.495 . S
C322 C321 1.392 . S
C322 C323 1.385 . S
C322 C324 1.478 . S
C323 H317 0.930 . S
C323 C319 1.400 . S
C323 C322 1.385 . S
C324 C322 1.478 . S
C324 C326 1.381 . S
C324 C330 1.383 . S
C325 C321 1.495 . S
C325 H331 0.959 . S
C325 H332 0.961 . S
C325 H333 0.960 . S
C326 C324 1.381 . S
C326 C327 1.394 . S
C326 H334 0.930 . S
C327 C326 1.394 . S
C327 C328 1.383 . S
C327 H335 0.929 . S
C328 C327 1.383 . S
C328 C329 1.377 . S
C329 H313 0.930 . S
C329 C328 1.377 . S
C329 C330 1.379 . S
C330 H314 0.931 . S
C330 C324 1.383 . S
C330 C329 1.379 . S
H331 C325 0.959 . S
H332 C325 0.961 . S
H333 C325 0.960 . S
H334 C326 0.930 . S
H335 C327 0.929 . S
H336 C344 0.929 . S
H337 C346 0.930 . S
H338 C348 0.930 . S
H339 C351 0.929 . S
H340 C354 0.930 . S
H341 C356 0.960 . S
H342 C356 0.960 . S
H343 C356 0.960 . S
C344 H336 0.929 . S
C344 C345 1.377 . S
C344 C346 1.384 . S
C345 C344 1.377 . S
C345 C351 1.390 . S
C346 H337 0.930 . S
C346 C344 1.384 . S
C346 C347 1.372 . S
C347 C346 1.372 . S
C347 C348 1.400 . S
C347 C352 1.490 . S
C348 H338 0.930 . S
C348 C347 1.400 . S
C348 C351 1.386 . S
H349 C365 0.930 . S
H350 C366 0.931 . S
C351 H339 0.929 . S
C351 C345 1.390 . S
C351 C348 1.386 . S
C352 C347 1.490 . S
C352 C354 1.395 . S
C352 C355 1.403 . S
H353 C359 0.930 . S
C354 H340 0.930 . S
C354 C352 1.395 . S
C354 C357 1.403 . S
C355 C352 1.403 . S
C355 C356 1.524 . S
C355 C359 1.400 . S
C356 H341 0.960 . S
C356 H342 0.960 . S
C356 H343 0.960 . S
C356 C355 1.524 . S
C357 C354 1.403 . S
C357 C358 1.392 . S
C357 C361 1.495 . S
C358 C357 1.392 . S
C358 C359 1.385 . S
C358 C360 1.478 . S
C359 H353 0.930 . S
C359 C355 1.400 . S
C359 C358 1.385 . S
C360 C358 1.478 . S
C360 C362 1.381 . S
C360 C366 1.383 . S
C361 C357 1.495 . S
C361 H367 0.959 . S
C361 H368 0.961 . S
C361 H369 0.960 . S
C362 C360 1.381 . S
C362 C363 1.394 . S
C362 H370 0.930 . S
C363 C362 1.394 . S
C363 C364 1.383 . S
C363 H371 0.929 . S
C364 C363 1.383 . S
C364 C365 1.377 . S
C365 H349 0.930 . S
C365 C364 1.377 . S
C365 C366 1.379 . S
C366 H350 0.931 . S
C366 C360 1.383 . S
C366 C365 1.379 . S
H367 C361 0.959 . S
H368 C361 0.961 . S
H369 C361 0.960 . S
H370 C362 0.930 . S
H371 C363 0.929 . S
H372 C380 0.929 . S
H373 C382 0.930 1_556 S
H374 C384 0.930 . S
H375 C387 0.929 . S
H376 C390 0.930 . S
H377 C392 0.960 . S
H378 C392 0.960 . S
H379 C392 0.960 . S
C380 H372 0.929 . S
C380 C381 1.377 . S
C380 C382 1.384 . S
C381 C380 1.377 . S
C381 C387 1.390 . S
C382 H373 0.930 1_554 S
C382 C380 1.384 . S
C382 C383 1.372 1_554 S
C383 C382 1.372 1_556 S
C383 C384 1.400 . S
C383 C388 1.490 . S
C384 H374 0.930 . S
C384 C383 1.400 . S
C384 C387 1.386 1_556 S
H385 C401 0.930 . S
H386 C402 0.931 . S
C387 H375 0.929 . S
C387 C381 1.390 . S
C387 C384 1.386 1_554 S
C388 C383 1.490 . S
C388 C390 1.395 . S
C388 C391 1.403 . S
H389 C395 0.930 . S
C390 H376 0.930 . S
C390 C388 1.395 . S
C390 C393 1.403 . S
C391 C388 1.403 . S
C391 C392 1.524 . S
C391 C395 1.400 . S
C392 H377 0.960 . S
C392 H378 0.960 . S
C392 H379 0.960 . S
C392 C391 1.524 . S
C393 C390 1.403 . S
C393 C394 1.392 . S
C393 C397 1.495 . S
C394 C393 1.392 . S
C394 C395 1.385 . S
C394 C396 1.478 . S
C395 H389 0.930 . S
C395 C391 1.400 . S
C395 C394 1.385 . S
C396 C394 1.478 . S
C396 C398 1.381 . S
C396 C402 1.383 . S
C397 C393 1.495 . S
C397 H403 0.959 . S
C397 H404 0.961 . S
C397 H405 0.960 . S
C398 C396 1.381 . S
C398 C399 1.394 . S
C398 H406 0.930 . S
C399 C398 1.394 . S
C399 C400 1.383 . S
C399 H407 0.929 . S
C400 C399 1.383 . S
C400 C401 1.377 . S
C401 H385 0.930 . S
C401 C400 1.377 . S
C401 C402 1.379 . S
C402 H386 0.931 . S
C402 C396 1.383 . S
C402 C401 1.379 . S
H403 C397 0.959 . S
H404 C397 0.961 . S
H405 C397 0.960 . S
H406 C398 0.930 . S
H407 C399 0.929 . S
H408 C416 0.929 . S
H409 C418 0.930 . S
H410 C420 0.930 . S
H411 C423 0.929 . S
H412 C426 0.930 . S
H413 C428 0.960 . S
H414 C428 0.960 . S
H415 C428 0.960 . S
C416 H408 0.929 . S
C416 C417 1.377 . S
C416 C418 1.384 . S
C417 C416 1.377 . S
C417 C423 1.390 . S
C418 H409 0.930 . S
C418 C416 1.384 . S
C418 C419 1.372 . S
C419 C418 1.372 . S
C419 C420 1.400 . S
C419 C424 1.490 . S
C420 H410 0.930 . S
C420 C419 1.400 . S
C420 C423 1.386 . S
H421 C437 0.930 . S
H422 C438 0.931 . S
C423 H411 0.929 . S
C423 C417 1.390 . S
C423 C420 1.386 . S
C424 C419 1.490 . S
C424 C426 1.395 . S
C424 C427 1.403 . S
H425 C431 0.930 . S
C426 H412 0.930 . S
C426 C424 1.395 . S
C426 C429 1.403 . S
C427 C424 1.403 . S
C427 C428 1.524 . S
C427 C431 1.400 . S
C428 H413 0.960 . S
C428 H414 0.960 . S
C428 H415 0.960 . S
C428 C427 1.524 . S
C429 C426 1.403 . S
C429 C430 1.392 . S
C429 C433 1.495 . S
C430 C429 1.392 . S
C430 C431 1.385 . S
C430 C432 1.478 . S
C431 H425 0.930 . S
C431 C427 1.400 . S
C431 C430 1.385 . S
C432 C430 1.478 . S
C432 C434 1.381 . S
C432 C438 1.383 . S
C433 C429 1.495 . S
C433 H439 0.959 . S
C433 H440 0.961 . S
C433 H441 0.960 . S
C434 C432 1.381 . S
C434 C435 1.394 1_554 S
C434 H442 0.930 . S
C435 C434 1.394 1_556 S
C435 C436 1.383 . S
C435 H443 0.929 . S
C436 C435 1.383 . S
C436 C437 1.377 . S
C437 H421 0.930 . S
C437 C436 1.377 . S
C437 C438 1.379 1_556 S
C438 H422 0.931 . S
C438 C432 1.383 . S
C438 C437 1.379 1_554 S
H439 C433 0.959 . S
H440 C433 0.961 . S
H441 C433 0.960 . S
H442 C434 0.930 . S
H443 C435 0.929 . S
H444 C452 0.929 . S
H445 C454 0.930 . S
H446 C456 0.930 . S
H447 C459 0.929 . S
H448 C462 0.930 . S
H449 C464 0.960 . S
H450 C464 0.960 . S
H451 C464 0.960 . S
C452 H444 0.929 . S
C452 C453 1.377 . S
C452 C454 1.384 . S
C453 C452 1.377 . S
C453 C459 1.390 . S
C454 H445 0.930 . S
C454 C452 1.384 . S
C454 C455 1.372 . S
C455 C454 1.372 . S
C455 C456 1.400 . S
C455 C460 1.490 . S
C456 H446 0.930 . S
C456 C455 1.400 . S
C456 C459 1.386 . S
H457 C473 0.930 . S
H458 C474 0.931 . S
C459 H447 0.929 . S
C459 C453 1.390 . S
C459 C456 1.386 . S
C460 C455 1.490 . S
C460 C462 1.395 . S
C460 C463 1.403 . S
H461 C467 0.930 . S
C462 H448 0.930 . S
C462 C460 1.395 . S
C462 C465 1.403 . S
C463 C460 1.403 . S
C463 C464 1.524 . S
C463 C467 1.400 . S
C464 H449 0.960 . S
C464 H450 0.960 . S
C464 H451 0.960 . S
C464 C463 1.524 . S
C465 C462 1.403 . S
C465 C466 1.392 . S
C465 C469 1.495 . S
C466 C465 1.392 . S
C466 C467 1.385 . S
C466 C468 1.478 . S
C467 H461 0.930 . S
C467 C463 1.400 . S
C467 C466 1.385 . S
C468 C466 1.478 . S
C468 C470 1.381 . S
C468 C474 1.383 . S
C469 C465 1.495 . S
C469 H475 0.959 . S
C469 H476 0.961 . S
C469 H477 0.960 . S
C470 C468 1.381 . S
C470 C471 1.394 . S
C470 H478 0.930 . S
C471 C470 1.394 . S
C471 C472 1.383 . S
C471 H479 0.929 . S
C472 C471 1.383 . S
C472 C473 1.377 . S
C473 H457 0.930 . S
C473 C472 1.377 . S
C473 C474 1.379 . S
C474 H458 0.931 . S
C474 C468 1.383 . S
C474 C473 1.379 . S
H475 C469 0.959 . S
H476 C469 0.961 . S
H477 C469 0.960 . S
H478 C470 0.930 . S
H479 C471 0.929 . S
H480 C488 0.929 . S
H481 C490 0.930 . S
H482 C492 0.930 . S
H483 C495 0.929 . S
H484 C498 0.930 . S
H485 C500 0.960 . S
H486 C500 0.960 . S
H487 C500 0.960 . S
C488 H480 0.929 . S
C488 C489 1.377 . S
C488 C490 1.384 . S
C489 C488 1.377 . S
C489 C495 1.390 . S
C490 H481 0.930 . S
C490 C488 1.384 . S
C490 C491 1.372 . S
C491 C490 1.372 . S
C491 C492 1.400 . S
C491 C496 1.490 . S
C492 H482 0.930 . S
C492 C491 1.400 . S
C492 C495 1.386 . S
H493 C509 0.930 . S
H494 C510 0.931 1_556 S
C495 H483 0.929 . S
C495 C489 1.390 . S
C495 C492 1.386 . S
C496 C491 1.490 . S
C496 C498 1.395 . S
C496 C499 1.403 . S
H497 C503 0.930 . S
C498 H484 0.930 . S
C498 C496 1.395 . S
C498 C501 1.403 . S
C499 C496 1.403 . S
C499 C500 1.524 . S
C499 C503 1.400 . S
C500 H485 0.960 . S
C500 H486 0.960 . S
C500 H487 0.960 . S
C500 C499 1.524 . S
C501 C498 1.403 . S
C501 C502 1.392 . S
C501 C505 1.495 . S
C502 C501 1.392 . S
C502 C503 1.385 . S
C502 C504 1.478 . S
C503 H497 0.930 . S
C503 C499 1.400 . S
C503 C502 1.385 . S
C504 C502 1.478 . S
C504 C506 1.372 1_556 S
C504 C510 1.383 1_556 S
C505 C501 1.495 . S
C505 H511 0.959 . S
C505 H512 0.961 . S
C505 H513 0.960 . S
C506 C504 1.372 1_554 S
C506 C507 1.413 . S
C506 H514 0.921 1_554 S
C507 C506 1.413 . S
C507 C508 1.383 . S
C507 H515 0.929 . S
C508 C507 1.383 . S
C508 C509 1.377 . S
C509 H493 0.930 . S
C509 C508 1.377 . S
C509 C510 1.379 . S
C510 H494 0.931 1_554 S
C510 C504 1.383 1_554 S
C510 C509 1.379 . S
H511 C505 0.959 . S
H512 C505 0.961 . S
H513 C505 0.960 . S
H514 C506 0.921 1_556 S
H515 C507 0.929 . S
H516 C524 0.929 . S
H517 C526 0.930 . S
H518 C528 0.930 . S
H519 C531 0.929 . S
H520 C534 0.930 . S
H521 C536 0.960 . S
H522 C536 0.960 . S
H523 C536 0.960 . S
C524 H516 0.929 . S
C524 C525 1.377 . S
C524 C526 1.384 . S
C525 C524 1.377 . S
C525 C531 1.390 . S
C526 H517 0.930 . S
C526 C524 1.384 . S
C526 C527 1.372 . S
C527 C526 1.372 . S
C527 C528 1.400 . S
C527 C532 1.490 . S
C528 H518 0.930 . S
C528 C527 1.400 . S
C528 C531 1.386 . S
H529 C545 0.930 . S
H530 C546 0.931 . S
C531 H519 0.929 . S
C531 C525 1.390 . S
C531 C528 1.386 . S
C532 C527 1.490 . S
C532 C534 1.395 . S
C532 C535 1.403 . S
H533 C539 0.930 . S
C534 H520 0.930 . S
C534 C532 1.395 . S
C534 C537 1.403 . S
C535 C532 1.403 . S
C535 C536 1.524 . S
C535 C539 1.400 . S
C536 H521 0.960 . S
C536 H522 0.960 . S
C536 H523 0.960 . S
C536 C535 1.524 . S
C537 C534 1.403 . S
C537 C538 1.392 . S
C537 C541 1.495 . S
C538 C537 1.392 . S
C538 C539 1.385 . S
C538 C540 1.478 . S
C539 H533 0.930 . S
C539 C535 1.400 . S
C539 C538 1.385 . S
C540 C538 1.478 . S
C540 C542 1.381 . S
C540 C546 1.383 . S
C541 C537 1.495 . S
C541 H547 0.959 . S
C541 H548 0.961 . S
C541 H549 0.960 . S
C542 C540 1.381 . S
C542 C543 1.394 1_554 S
C542 H550 0.930 . S
C543 C542 1.394 1_556 S
C543 C544 1.383 . S
C543 H551 0.929 . S
C544 C543 1.383 . S
C544 C545 1.377 . S
C545 H529 0.930 . S
C545 C544 1.377 . S
C545 C546 1.379 1_556 S
C546 H530 0.931 . S
C546 C540 1.383 . S
C546 C545 1.379 1_554 S
H547 C541 0.959 . S
H548 C541 0.961 . S
H549 C541 0.960 . S
H550 C542 0.930 . S
H551 C543 0.929 . S
H552 C560 0.929 . S
H553 C562 0.930 . S
H554 C564 0.930 . S
H555 C567 0.929 . S
H556 C570 0.930 . S
H557 C572 0.960 . S
H558 C572 0.960 . S
H559 C572 0.960 . S
C560 H552 0.929 . S
C560 C561 1.377 . S
C560 C562 1.384 . S
C561 C560 1.377 . S
C561 C567 1.390 . S
C562 H553 0.930 . S
C562 C560 1.384 . S
C562 C563 1.372 . S
C563 C562 1.372 . S
C563 C564 1.400 . S
C563 C568 1.490 . S
C564 H554 0.930 . S
C564 C563 1.400 . S
C564 C567 1.386 . S
H565 C581 0.930 . S
H566 C582 0.931 . S
C567 H555 0.929 . S
C567 C561 1.390 . S
C567 C564 1.386 . S
C568 C563 1.490 . S
C568 C570 1.395 . S
C568 C571 1.403 . S
H569 C575 0.930 . S
C570 H556 0.930 . S
C570 C568 1.395 . S
C570 C573 1.403 . S
C571 C568 1.403 . S
C571 C572 1.524 . S
C571 C575 1.400 . S
C572 H557 0.960 . S
C572 H558 0.960 . S
C572 H559 0.960 . S
C572 C571 1.524 . S
C573 C570 1.403 . S
C573 C574 1.392 . S
C573 C577 1.495 . S
C574 C573 1.392 . S
C574 C575 1.385 . S
C574 C576 1.478 . S
C575 H569 0.930 . S
C575 C571 1.400 . S
C575 C574 1.385 . S
C576 C574 1.478 . S
C576 C578 1.381 . S
C576 C582 1.383 . S
C577 C573 1.495 . S
C577 H583 0.959 . S
C577 H584 0.961 . S
C577 H585 0.960 . S
C578 C576 1.381 . S
C578 C579 1.394 . S
C578 H586 0.930 . S
C579 C578 1.394 . S
C579 C580 1.383 . S
C579 H587 0.929 . S
C580 C579 1.383 . S
C580 C581 1.377 . S
C581 H565 0.930 . S
C581 C580 1.377 . S
C581 C582 1.379 . S
C582 H566 0.931 . S
C582 C576 1.383 . S
C582 C581 1.379 . S
H583 C577 0.959 . S
H584 C577 0.961 . S
H585 C577 0.960 . S
H586 C578 0.930 . S
H587 C579 0.929 . S
H588 C596 0.929 . S
H589 C598 0.930 . S
H590 C600 0.930 . S
H591 C603 0.929 . S
H592 C606 0.930 . S
H593 C608 0.960 . S
H594 C608 0.960 . S
H595 C608 0.960 . S
C596 H588 0.929 . S
C596 C597 1.377 . S
C596 C598 1.384 . S
C597 C596 1.377 . S
C597 C603 1.390 . S
C598 H589 0.930 . S
C598 C596 1.384 . S
C598 C599 1.372 . S
C599 C598 1.372 . S
C599 C600 1.400 . S
C599 C604 1.490 . S
C600 H590 0.930 . S
C600 C599 1.400 . S
C600 C603 1.386 . S
H601 C617 0.930 . S
H602 C618 0.931 . S
C603 H591 0.929 . S
C603 C597 1.390 . S
C603 C600 1.386 . S
C604 C599 1.490 . S
C604 C606 1.395 . S
C604 C607 1.403 . S
H605 C611 0.930 . S
C606 H592 0.930 . S
C606 C604 1.395 . S
C606 C609 1.403 . S
C607 C604 1.403 . S
C607 C608 1.524 . S
C607 C611 1.400 . S
C608 H593 0.960 . S
C608 H594 0.960 . S
C608 H595 0.960 . S
C608 C607 1.524 . S
C609 C606 1.403 . S
C609 C610 1.392 . S
C609 C613 1.495 . S
C610 C609 1.392 . S
C610 C611 1.385 . S
C610 C612 1.478 . S
C611 H605 0.930 . S
C611 C607 1.400 . S
C611 C610 1.385 . S
C612 C610 1.478 . S
C612 C614 1.381 . S
C612 C618 1.383 . S
C613 C609 1.495 . S
C613 H619 0.959 . S
C613 H620 0.961 . S
C613 H621 0.960 . S
C614 C612 1.381 . S
C614 C615 1.394 . S
C614 H622 0.930 . S
C615 C614 1.394 . S
C615 C616 1.383 . S
C615 H623 0.929 . S
C616 C615 1.383 . S
C616 C617 1.377 . S
C617 H601 0.930 . S
C617 C616 1.377 . S
C617 C618 1.379 . S
C618 H602 0.931 . S
C618 C612 1.383 . S
C618 C617 1.379 . S
H619 C613 0.959 . S
H620 C613 0.961 . S
H621 C613 0.960 . S
H622 C614 0.930 . S
H623 C615 0.929 . S
H624 C632 0.929 . S
H625 C634 0.930 . S
H626 C636 0.930 . S
H627 C639 0.929 1_554 S
H628 C642 0.930 . S
H629 C644 0.960 . S
H630 C644 0.960 . S
H631 C644 0.960 . S
C632 H624 0.929 . S
C632 C633 1.377 . S
C632 C634 1.384 . S
C633 C632 1.377 . S
C633 C639 1.390 . S
C634 H625 0.930 . S
C634 C632 1.384 . S
C634 C635 1.372 . S
C635 C634 1.372 . S
C635 C636 1.400 . S
C635 C640 1.490 . S
C636 H626 0.930 . S
C636 C635 1.400 . S
C636 C639 1.386 . S
H637 C653 0.930 . S
H638 C654 0.931 . S
C639 H627 0.929 1_556 S
C639 C633 1.390 . S
C639 C636 1.386 . S
C640 C635 1.490 . S
C640 C642 1.395 . S
C640 C643 1.403 . S
H641 C647 0.930 . S
C642 H628 0.930 . S
C642 C640 1.395 . S
C642 C645 1.403 . S
C643 C640 1.403 . S
C643 C644 1.524 . S
C643 C647 1.400 . S
C644 H629 0.960 . S
C644 H630 0.960 . S
C644 H631 0.960 . S
C644 C643 1.524 . S
C645 C642 1.403 . S
C645 C646 1.392 . S
C645 C649 1.495 . S
C646 C645 1.392 . S
C646 C647 1.385 . S
C646 C648 1.478 . S
C647 H641 0.930 . S
C647 C643 1.400 . S
C647 C646 1.385 . S
C648 C646 1.478 . S
C648 C650 1.381 . S
C648 C654 1.383 . S
C649 C645 1.495 . S
C649 H655 0.959 . S
C649 H656 0.961 . S
C649 H657 0.960 . S
C650 C648 1.381 . S
C650 C651 1.394 . S
C650 H658 0.930 . S
C651 C650 1.394 . S
C651 C652 1.383 . S
C651 H659 0.929 . S
C652 C651 1.383 . S
C652 C653 1.377 . S
C653 H637 0.930 . S
C653 C652 1.377 . S
C653 C654 1.379 . S
C654 H638 0.931 . S
C654 C648 1.383 . S
C654 C653 1.379 . S
H655 C649 0.959 . S
H656 C649 0.961 . S
H657 C649 0.960 . S
H658 C650 0.930 . S
H659 C651 0.929 . S
H660 C668 0.929 . S
H661 C670 0.930 . S
H662 C672 0.930 . S
H663 C675 0.929 . S
H664 C678 0.930 . S
H665 C680 0.960 . S
H666 C680 0.960 . S
H667 C680 0.960 . S
C668 H660 0.929 . S
C668 C669 1.377 . S
C668 C670 1.384 . S
C669 C668 1.377 . S
C669 C675 1.390 . S
C670 H661 0.930 . S
C670 C668 1.384 . S
C670 C671 1.372 . S
C671 C670 1.372 . S
C671 C672 1.400 . S
C671 C676 1.490 . S
C672 H662 0.930 . S
C672 C671 1.400 . S
C672 C675 1.386 . S
H673 C689 0.930 . S
H674 C690 0.931 . S
C675 H663 0.929 . S
C675 C669 1.390 . S
C675 C672 1.386 . S
C676 C671 1.490 . S
C676 C678 1.395 . S
C676 C679 1.403 . S
H677 C683 0.930 . S
C678 H664 0.930 . S
C678 C676 1.395 . S
C678 C681 1.403 . S
C679 C676 1.403 . S
C679 C680 1.524 . S
C679 C683 1.400 . S
C680 H665 0.960 . S
C680 H666 0.960 . S
C680 H667 0.960 . S
C680 C679 1.524 . S
C681 C678 1.403 . S
C681 C682 1.392 . S
C681 C685 1.495 . S
C682 C681 1.392 . S
C682 C683 1.385 . S
C682 C684 1.478 . S
C683 H677 0.930 . S
C683 C679 1.400 . S
C683 C682 1.385 . S
C684 C682 1.478 . S
C684 C686 1.381 . S
C684 C690 1.383 . S
C685 C681 1.495 . S
C685 H691 0.959 . S
C685 H692 0.961 . S
C685 H693 0.960 . S
C686 C684 1.381 . S
C686 C687 1.394 . S
C686 H694 0.930 . S
C687 C686 1.394 . S
C687 C688 1.383 . S
C687 H695 0.929 . S
C688 C687 1.383 . S
C688 C689 1.377 . S
C689 H673 0.930 . S
C689 C688 1.377 . S
C689 C690 1.379 . S
C690 H674 0.931 . S
C690 C684 1.383 . S
C690 C689 1.379 . S
H691 C685 0.959 . S
H692 C685 0.961 . S
H693 C685 0.960 . S
H694 C686 0.930 . S
H695 C687 0.929 . S
H696 C704 0.929 . S
H697 C706 0.930 . S
H698 C708 0.930 . S
H699 C711 0.929 . S
H700 C714 0.930 . S
H701 C716 0.960 . S
H702 C716 0.960 . S
H703 C716 0.960 . S
C704 H696 0.929 . S
C704 C705 1.377 . S
C704 C706 1.384 . S
C705 C704 1.377 . S
C705 C711 1.390 . S
C706 H697 0.930 . S
C706 C704 1.384 . S
C706 C707 1.372 . S
C707 C706 1.372 . S
C707 C708 1.400 . S
C707 C712 1.490 . S
C708 H698 0.930 . S
C708 C707 1.400 . S
C708 C711 1.386 . S
H709 C725 0.930 . S
H710 C726 0.931 . S
C711 H699 0.929 . S
C711 C705 1.390 . S
C711 C708 1.386 . S
C712 C707 1.490 . S
C712 C714 1.395 . S
C712 C715 1.403 . S
H713 C719 0.930 . S
C714 H700 0.930 . S
C714 C712 1.395 . S
C714 C717 1.403 . S
C715 C712 1.403 . S
C715 C716 1.524 . S
C715 C719 1.400 . S
C716 H701 0.960 . S
C716 H702 0.960 . S
C716 H703 0.960 . S
C716 C715 1.524 . S
C717 C714 1.403 . S
C717 C718 1.392 . S
C717 C721 1.495 . S
C718 C717 1.392 . S
C718 C719 1.385 . S
C718 C720 1.478 . S
C719 H713 0.930 . S
C719 C715 1.400 . S
C719 C718 1.385 . S
C720 C718 1.478 . S
C720 C722 1.381 . S
C720 C726 1.383 . S
C721 C717 1.495 . S
C721 H727 0.959 . S
C721 H728 0.961 . S
C721 H729 0.960 . S
C722 C720 1.381 . S
C722 C723 1.394 . S
C722 H730 0.930 . S
C723 C722 1.394 . S
C723 C724 1.383 . S
C723 H731 0.929 . S
C724 C723 1.383 . S
C724 C725 1.377 . S
C725 H709 0.930 . S
C725 C724 1.377 . S
C725 C726 1.379 . S
C726 H710 0.931 . S
C726 C720 1.383 . S
C726 C725 1.379 . S
H727 C721 0.959 . S
H728 C721 0.961 . S
H729 C721 0.960 . S
H730 C722 0.930 . S
H731 C723 0.929 . S
H732 C740 0.929 . S
H733 C742 0.930 . S
H734 C744 0.930 . S
H735 C747 0.929 . S
H736 C750 0.930 . S
H737 C752 0.960 . S
H738 C752 0.960 . S
H739 C752 0.960 . S
C740 H732 0.929 . S
C740 C741 1.377 . S
C740 C742 1.384 . S
C741 C740 1.377 . S
C741 C747 1.390 . S
C742 H733 0.930 . S
C742 C740 1.384 . S
C742 C743 1.372 . S
C743 C742 1.372 . S
C743 C744 1.400 . S
C743 C748 1.490 . S
C744 H734 0.930 . S
C744 C743 1.400 . S
C744 C747 1.386 . S
H745 C761 0.930 . S
H746 C762 0.931 . S
C747 H735 0.929 . S
C747 C741 1.390 . S
C747 C744 1.386 . S
C748 C743 1.490 . S
C748 C750 1.395 . S
C748 C751 1.403 . S
H749 C755 0.930 . S
C750 H736 0.930 . S
C750 C748 1.395 . S
C750 C753 1.403 . S
C751 C748 1.403 . S
C751 C752 1.524 . S
C751 C755 1.400 . S
C752 H737 0.960 . S
C752 H738 0.960 . S
C752 H739 0.960 . S
C752 C751 1.524 . S
C753 C750 1.403 . S
C753 C754 1.392 . S
C753 C757 1.495 . S
C754 C753 1.392 . S
C754 C755 1.385 . S
C754 C756 1.478 . S
C755 H749 0.930 . S
C755 C751 1.400 . S
C755 C754 1.385 . S
C756 C754 1.478 . S
C756 C758 1.381 . S
C756 C762 1.383 . S
C757 C753 1.495 . S
C757 H763 0.959 . S
C757 H764 0.961 . S
C757 H765 0.960 . S
C758 C756 1.381 . S
C758 C759 1.394 . S
C758 H766 0.930 . S
C759 C758 1.394 . S
C759 C760 1.383 . S
C759 H767 0.929 . S
C760 C759 1.383 . S
C760 C761 1.377 . S
C761 H745 0.930 . S
C761 C760 1.377 . S
C761 C762 1.379 . S
C762 H746 0.931 . S
C762 C756 1.383 . S
C762 C761 1.379 . S
H763 C757 0.959 . S
H764 C757 0.961 . S
H765 C757 0.960 . S
H766 C758 0.930 . S
H767 C759 0.929 . S
C129 C118 1.334 . S
C148 C4 1.294 . S
C165 C18 1.334 . S
C184 C24 1.298 . S
C201 C38 1.334 . S
C220 C44 1.257 . S
C237 C58 1.334 . S
C256 C64 1.235 . S
C273 C84 1.262 . S
C292 C78 1.334 . S
C309 C104 1.276 . S
C328 C98 1.330 . S
C345 C12 1.207 . S
C364 C9 1.178 . S
C381 C32 1.218 . S
C400 C29 1.221 . S
C417 C52 1.209 . S
C436 C49 1.177 . S
C453 C72 1.218 . S
C472 C69 1.233 . S
C489 C89 1.210 . S
C508 C92 1.178 . S
C525 C112 1.210 . S
C544 C109 1.178 . S
C561 C2 1.410 . S
C580 C99 1.457 . S
C597 C22 1.420 . S
C616 C119 1.479 . S
C633 C19 1.488 . S
C652 C42 1.406 . S
C669 C39 1.487 . S
C688 C62 1.442 . S
C705 C82 1.404 . S
C724 C59 1.479 . S
C741 C79 1.482 . S
C760 C102 1.371 . S
