# Generated by pormake.
# Topology mdf, (4)-cn, num edge types: 1
# Building blocks:
#     Node 0, Type 0, BuildingBlock: QUQFOY_clean_sbu_3, # of connection points: 4
#     Node 1, Type 0, BuildingBlock: QUQFOY_clean_sbu_3, # of connection points: 4
#     Node 2, Type 0, BuildingBlock: QUQFOY_clean_sbu_3, # of connection points: 4
#     Node 3, Type 0, BuildingBlock: QUQFOY_clean_sbu_3, # of connection points: 4
#     Node 4, Type 0, BuildingBlock: QUQFOY_clean_sbu_3, # of connection points: 4
#     Node 5, Type 0, BuildingBlock: QUQFOY_clean_sbu_3, # of connection points: 4
#     Node 6, Type 0, BuildingBlock: QUQFOY_clean_sbu_3, # of connection points: 4
#     Node 7, Type 0, BuildingBlock: QUQFOY_clean_sbu_3, # of connection points: 4
#     Edge 8, Type (0, 0), BuildingBlock: XUDNAN_clean_linker_2, # of connection points: 2
#     Edge 9, Type (0, 0), BuildingBlock: XUDNAN_clean_linker_2, # of connection points: 2
#     Edge 10, Type (0, 0), BuildingBlock: XUDNAN_clean_linker_2, # of connection points: 2
#     Edge 11, Type (0, 0), BuildingBlock: XUDNAN_clean_linker_2, # of connection points: 2
#     Edge 12, Type (0, 0), BuildingBlock: XUDNAN_clean_linker_2, # of connection points: 2
#     Edge 13, Type (0, 0), BuildingBlock: XUDNAN_clean_linker_2, # of connection points: 2
#     Edge 14, Type (0, 0), BuildingBlock: XUDNAN_clean_linker_2, # of connection points: 2
#     Edge 15, Type (0, 0), BuildingBlock: XUDNAN_clean_linker_2, # of connection points: 2
#     Edge 16, Type (0, 0), BuildingBlock: XUDNAN_clean_linker_2, # of connection points: 2
#     Edge 17, Type (0, 0), BuildingBlock: XUDNAN_clean_linker_2, # of connection points: 2
#     Edge 18, Type (0, 0), BuildingBlock: XUDNAN_clean_linker_2, # of connection points: 2
#     Edge 19, Type (0, 0), BuildingBlock: XUDNAN_clean_linker_2, # of connection points: 2
#     Edge 20, Type (0, 0), BuildingBlock: XUDNAN_clean_linker_2, # of connection points: 2
#     Edge 21, Type (0, 0), BuildingBlock: XUDNAN_clean_linker_2, # of connection points: 2
#     Edge 22, Type (0, 0), BuildingBlock: XUDNAN_clean_linker_2, # of connection points: 2
#     Edge 23, Type (0, 0), BuildingBlock: XUDNAN_clean_linker_2, # of connection points: 2
# Relax obj value: 0.015
# Max RMSD: 0.038
# Mean RMSD: 0.038
data_MOF--net-mdf--node1-QUQFOY_clean_sbu_3--edge1-XUDNAN_clean_linker_2
_symmetry_space_group_name_H-M    P1
_symmetry_Int_Tables_number       1
_symmetry_cell_setting            triclinic
loop_
_symmetry_equiv_pos_as_xyz
'x, y, z'
_cell_length_a     39.681911
_cell_length_b     39.489388
_cell_length_c     12.030732
_cell_angle_alpha  90.060935
_cell_angle_beta   90.06326
_cell_angle_gamma 92.193416
loop_
_atom_site_label
_atom_site_type_symbol
_atom_site_fract_x
_atom_site_fract_y
_atom_site_fract_z
_atom_type_partial_charge
C0 C 0.28173 0.55974 0.15957 0.0
O1 O 0.27851 0.53548 0.09056 0.0
Cd2 Cd 0.24897 0.48363 0.1389 0.0
O3 O 0.2669 0.55827 0.25329 0.0
Cd4 Cd 0.22668 0.52354 0.36415 0.0
C5 C 0.288 0.46631 0.39047 0.0
O6 O 0.19559 0.49985 0.20725 0.0
O7 O 0.18366 0.47754 0.36666 0.0
O8 O 0.19864 0.5765 0.38161 0.0
C9 C 0.17802 0.47848 0.26293 0.0
O10 O 0.28303 0.46017 0.2876 0.0
C11 C 0.19436 0.57548 0.486 0.0
O12 O 0.27162 0.48895 0.44075 0.0
O13 O 0.20571 0.55003 0.53675 0.0
C14 C 0.45023 0.72211 0.86947 0.0
O15 O 0.47746 0.72856 0.92233 0.0
Cd16 Cd 0.52698 0.75465 0.84559 0.0
O17 O 0.44683 0.7307 0.76791 0.0
Cd18 Cd 0.4794 0.7626 0.62229 0.0
C19 C 0.53878 0.70119 0.62337 0.0
O20 O 0.50173 0.80107 0.75648 0.0
O21 O 0.5223 0.81037 0.59389 0.0
O22 O 0.42755 0.79023 0.56811 0.0
C23 C 0.52049 0.8194 0.69491 0.0
O24 O 0.5484 0.71169 0.71886 0.0
C25 C 0.4288 0.78154 0.46667 0.0
O26 O 0.51452 0.71494 0.57308 0.0
O27 O 0.45342 0.76387 0.43769 0.0
C28 C 0.20195 0.90619 0.6225 0.0
O29 O 0.21093 0.92529 0.54215 0.0
Cd30 Cd 0.23786 0.97922 0.58248 0.0
O31 O 0.2116 0.91307 0.72116 0.0
Cd32 Cd 0.24847 0.95076 0.83461 0.0
C33 C 0.18522 0.0043 0.79871 0.0
O34 O 0.28711 0.96951 0.68905 0.0
O35 O 0.2896 -0.00208 0.84271 0.0
O36 O 0.27422 0.89805 0.87294 0.0
C37 C 0.30079 -0.00649 0.7452 0.0
O38 O 0.19537 0.00505 0.69824 0.0
C39 C 0.27657 0.90136 0.97751 0.0
O40 O 0.19967 0.98639 0.87177 0.0
O41 O 0.26479 0.92809 0.0195 0.0
C42 C 0.0233 0.75016 0.35705 0.0
O43 O -0.00181 0.73794 0.41104 0.0
Cd44 Cd 0.94769 0.71793 0.32157 0.0
O45 O 0.0239 0.74869 0.25132 0.0
Cd46 Cd -0.00923 0.72511 0.09327 0.0
C47 C 0.937 0.78757 0.15029 0.0
O48 O 0.96454 0.67737 0.18851 0.0
O49 O 0.94426 0.68771 0.02585 0.0
O50 O 0.04171 0.69646 0.04265 0.0
C51 C 0.94429 0.66881 0.11108 0.0
O52 O 0.92958 0.77002 0.23618 0.0
C53 C 0.04297 0.70718 0.9434 0.0
O54 O 0.95871 0.77774 0.08019 0.0
O55 O 0.02036 0.72738 0.91393 0.0
C56 C 0.7866 0.07058 0.72278 0.0
O57 O 0.77647 0.04661 0.65916 0.0
Cd58 Cd 0.74574 -0.00219 0.73402 0.0
O59 O 0.77768 0.071 0.82407 0.0
Cd60 Cd 0.74195 0.04135 0.95932 0.0
C61 C 0.79765 0.97791 0.95371 0.0
O62 O 0.69821 0.01539 0.83928 0.0
O63 O 0.70044 -0.00142 0.01075 0.0
O64 O 0.71355 0.09383 0.9893 0.0
C65 C 0.68586 -0.00306 0.91691 0.0
O66 O 0.78574 0.97115 0.85746 0.0
C67 C 0.72122 0.09705 0.09125 0.0
O68 O 0.78729 0.00299 0.00966 0.0
O69 O 0.73921 0.07429 0.13327 0.0
C70 C 0.95797 0.20866 0.33263 0.0
O71 O 0.98704 0.21782 0.36826 0.0
Cd72 Cd 0.03078 0.23903 0.24767 0.0
O73 O 0.95003 0.21257 0.23098 0.0
Cd74 Cd 0.97211 0.23711 0.0562 0.0
C75 C 0.03043 0.17592 0.04716 0.0
O76 O 0.00464 0.28204 0.14347 0.0
O77 O 0.013 0.27722 0.9671 0.0
O78 O 0.92044 0.26755 0.04394 0.0
C79 C 0.01924 0.29323 0.05678 0.0
O80 O 0.04449 0.19106 0.12958 0.0
C81 C 0.91108 0.25587 0.95024 0.0
O82 O 0.00325 0.18659 0.00511 0.0
O83 O 0.92996 0.23454 0.90458 0.0
C84 C 0.68508 0.40895 0.21958 0.0
O85 O 0.69567 0.4281 0.1412 0.0
Cd86 Cd 0.72717 0.47996 0.17493 0.0
O87 O 0.69391 0.41471 0.31981 0.0
Cd88 Cd 0.73148 0.45001 0.43992 0.0
C89 C 0.67687 0.51224 0.38926 0.0
O90 O 0.77053 0.46328 0.29398 0.0
O91 O 0.78112 0.48948 0.44769 0.0
O92 O 0.74563 0.39277 0.47521 0.0
C93 C 0.78867 0.48495 0.34644 0.0
O94 O 0.6882 0.51089 0.29023 0.0
C95 C 0.75048 0.39548 0.57896 0.0
O96 O 0.6875 0.4927 0.46544 0.0
O97 O 0.74561 0.42433 0.62263 0.0
C98 C 0.51989 0.25259 0.88575 0.0
O99 O 0.4932 0.23867 0.92582 0.0
Cd100 Cd 0.44895 0.2197 0.80257 0.0
O101 O 0.52422 0.25445 0.78093 0.0
Cd102 Cd 0.50328 0.23955 0.59329 0.0
C103 C 0.44089 0.29386 0.6445 0.0
O104 O 0.47809 0.18863 0.66604 0.0
O105 O 0.4683 0.19634 0.49205 0.0
O106 O 0.56247 0.22857 0.58924 0.0
C107 C 0.46378 0.17813 0.57789 0.0
O108 O 0.43161 0.27308 0.72062 0.0
C109 C 0.56723 0.23432 0.48678 0.0
O110 O 0.46642 0.2885 0.58317 0.0
O111 O 0.54204 0.24404 0.43123 0.0
H112 H 0.40463 0.67538 0.78409 0.0
H113 H 0.43386 0.72847 0.08685 0.0
H114 H 0.38933 0.69638 0.19003 0.0
H115 H 0.31298 0.66549 0.84195 0.0
H116 H 0.31021 0.62326 0.78484 0.0
H117 H 0.34082 0.6539 0.73104 0.0
H118 H 0.38853 0.61253 0.77085 0.0
H119 H 0.35815 0.58188 0.82508 0.0
H120 H 0.3935 0.59611 0.90944 0.0
H121 H 0.34485 0.65665 0.26224 0.0
H122 H 0.30548 0.60856 0.30325 0.0
H123 H 0.30747 0.57841 0.95597 0.0
C124 C 0.40101 0.68074 0.8715 0.0
C125 C 0.42219 0.70457 0.92781 0.0
C126 C 0.41762 0.71034 0.04274 0.0
C127 C 0.39236 0.69243 0.10165 0.0
C128 C 0.37222 0.66864 0.04437 0.0
C129 C 0.37636 0.66253 0.93209 0.0
C130 C 0.35382 0.63302 0.89341 0.0
C131 C 0.32792 0.64463 0.80775 0.0
C132 C 0.37476 0.60419 0.84701 0.0
C133 C 0.33701 0.62307 0.00205 0.0
C134 C 0.34748 0.64441 0.08742 0.0
C135 C 0.33624 0.63986 0.19607 0.0
C136 C 0.31391 0.61246 0.21846 0.0
C137 C 0.30352 0.5897 0.13284 0.0
C138 C 0.31501 0.59535 0.02311 0.0
H139 H 0.38558 0.83402 0.4846 0.0
H140 H 0.41488 0.75317 0.26492 0.0
H141 H 0.37416 0.77181 0.12431 0.0
H142 H 0.2954 0.8339 0.40454 0.0
H143 H 0.29391 0.87942 0.41135 0.0
H144 H 0.32233 0.85739 0.50037 0.0
H145 H 0.37261 0.89426 0.42471 0.0
H146 H 0.34436 0.91637 0.3358 0.0
H147 H 0.38008 0.89593 0.27697 0.0
H148 H 0.33362 0.80093 0.00412 0.0
H149 H 0.2982 0.84073 0.90489 0.0
H150 H 0.2959 0.90468 0.19854 0.0
C151 C 0.38293 0.8199 0.40767 0.0
C152 C 0.40316 0.79194 0.38559 0.0
C153 C 0.39956 0.77456 0.28319 0.0
C154 C 0.37638 0.78486 0.20328 0.0
C155 C 0.3571 0.81273 0.22694 0.0
C156 C 0.36016 0.83016 0.3263 0.0
C157 C 0.33846 0.86102 0.3266 0.0
C158 C 0.31088 0.85772 0.41603 0.0
C159 C 0.36018 0.89383 0.34188 0.0
C160 C 0.32342 0.85867 0.21074 0.0
C161 C 0.33411 0.83024 0.15578 0.0
C162 C 0.32487 0.82313 0.04646 0.0
C163 C 0.30475 0.84599 0.99078 0.0
C164 C 0.29423 0.87587 0.04386 0.0
C165 C 0.30324 0.88192 0.15613 0.0
H166 H 0.07793 0.78534 0.26822 0.0
H167 H 0.03087 0.75649 0.58131 0.0
H168 H 0.07593 0.7883 0.68277 0.0
H169 H 0.16669 0.78605 0.36147 0.0
H170 H 0.178 0.82342 0.28191 0.0
H171 H 0.14494 0.79449 0.2334 0.0
H172 H 0.1037 0.84376 0.225 0.0
H173 H 0.13656 0.87279 0.27332 0.0
H174 H 0.09718 0.86895 0.34765 0.0
H175 H 0.12386 0.82442 0.75024 0.0
H176 H 0.168 0.86894 0.78004 0.0
H177 H 0.18195 0.87785 0.4229 0.0
C178 C 0.07754 0.78498 0.35822 0.0
C179 C 0.05138 0.76762 0.4172 0.0
C180 C 0.05115 0.76883 0.53471 0.0
C181 C 0.07663 0.78676 0.59301 0.0
C182 C 0.10204 0.80347 0.53252 0.0
C183 C 0.10253 0.80314 0.41774 0.0
C184 C 0.13047 0.8265 0.37287 0.0
C185 C 0.15657 0.8064 0.30863 0.0
C186 C 0.11611 0.85466 0.30049 0.0
C187 C 0.14507 0.84051 0.48054 0.0
C188 C 0.12875 0.82625 0.57149 0.0
C189 C 0.13698 0.83571 0.67983 0.0
C190 C 0.16213 0.86102 0.69577 0.0
C191 C 0.17835 0.87696 0.60373 0.0
C192 C 0.17002 0.86612 0.49484 0.0
H193 H 0.08696 0.65589 0.97384 0.0
H194 H 0.05576 0.7303 0.73478 0.0
H195 H 0.09554 0.70803 0.5968 0.0
H196 H 0.17648 0.65408 0.88868 0.0
H197 H 0.17812 0.60895 0.90905 0.0
H198 H 0.15032 0.63344 0.99278 0.0
H199 H 0.09963 0.59446 0.93166 0.0
H200 H 0.12721 0.56996 0.84767 0.0
H201 H 0.09098 0.58865 0.78558 0.0
H202 H 0.13504 0.67511 0.482 0.0
H203 H 0.17043 0.63283 0.39393 0.0
H204 H 0.17517 0.57816 0.70624 0.0
C205 C 0.08901 0.66794 0.89319 0.0
C206 C 0.06859 0.69524 0.86471 0.0
C207 C 0.07149 0.70975 0.75777 0.0
C208 C 0.094 0.69725 0.67939 0.0
C209 C 0.1134 0.67003 0.70946 0.0
C210 C 0.11116 0.6555 0.81373 0.0
C211 C 0.13291 0.62481 0.8219 0.0
C212 C 0.16113 0.63069 0.90822 0.0
C213 C 0.11139 0.59257 0.84821 0.0
C214 C 0.14703 0.62386 0.70498 0.0
C215 C 0.1358 0.65049 0.64217 0.0
C216 C 0.14424 0.65433 0.53056 0.0
C217 C 0.16433 0.63009 0.48127 0.0
C218 C 0.17563 0.60216 0.54317 0.0
C219 C 0.16717 0.59935 0.657 0.0
H220 H 0.80338 0.08609 0.50651 0.0
H221 H 0.82449 0.11499 0.84884 0.0
H222 H 0.86852 0.15602 0.78518 0.0
H223 H 0.88642 0.08897 0.41179 0.0
H224 H 0.87747 0.1069 0.27772 0.0
H225 H 0.84553 0.08169 0.34881 0.0
H226 H 0.80459 0.13103 0.33642 0.0
H227 H 0.83631 0.15651 0.2648 0.0
H228 H 0.81742 0.17218 0.39001 0.0
H229 H 0.91488 0.18809 0.68763 0.0
H230 H 0.95645 0.21467 0.55896 0.0
H231 H 0.90338 0.16759 0.27966 0.0
C232 C 0.81696 0.10138 0.56786 0.0
C233 C 0.81062 0.09722 0.68252 0.0
C234 C 0.82886 0.11776 0.76041 0.0
C235 C 0.85396 0.14114 0.72522 0.0
C236 C 0.86012 0.14407 0.61186 0.0
C237 C 0.8418 0.12524 0.5341 0.0
C238 C 0.85407 0.1328 0.4174 0.0
C239 C 0.86662 0.10068 0.36066 0.0
C240 C 0.82645 0.14911 0.3481 0.0
C241 C 0.88288 0.1579 0.44232 0.0
C242 C 0.88595 0.16402 0.55501 0.0
C243 C 0.91225 0.18425 0.59895 0.0
C244 C 0.93588 0.19897 0.52543 0.0
C245 C 0.93289 0.19341 0.40955 0.0
C246 C 0.90592 0.17276 0.36777 0.0
H247 H 0.87923 0.31436 0.99411 0.0
H248 H 0.87466 0.22568 0.78085 0.0
H249 H 0.82601 0.2487 0.68144 0.0
H250 H 0.78686 0.32909 0.00274 0.0
H251 H 0.79376 0.37444 -0.00252 0.0
H252 H 0.82438 0.34852 0.06358 0.0
H253 H 0.87114 0.37432 0.93547 0.0
H254 H 0.84075 0.40029 0.86954 0.0
H255 H 0.86554 0.37245 0.7868 0.0
H256 H 0.78225 0.28366 0.59413 0.0
H257 H 0.74984 0.32958 0.51385 0.0
H258 H 0.7837 0.39682 0.78027 0.0
C259 C 0.86744 0.29938 0.92828 0.0
C260 C 0.88049 0.26809 0.8955 0.0
C261 C 0.86501 0.24966 0.80715 0.0
C262 C 0.83721 0.26243 0.75098 0.0
C263 C 0.82528 0.29366 0.78428 0.0
C264 C 0.83998 0.31197 0.87067 0.0
C265 C 0.82498 0.34658 0.88169 0.0
C266 C 0.80639 0.34983 0.99299 0.0
C267 C 0.85222 0.37507 0.86746 0.0
C268 C 0.80044 0.34544 0.78514 0.0
C269 C 0.80046 0.31435 0.7319 0.0
C270 C 0.78171 0.30791 0.63591 0.0
C271 C 0.76342 0.33423 0.59087 0.0
C272 C 0.76421 0.36677 0.64101 0.0
C273 C 0.78213 0.37207 0.74136 0.0
H274 H 0.67298 0.37954 0.01706 0.0
H275 H 0.64581 0.3719 0.3658 0.0
H276 H 0.6048 0.3252 0.32146 0.0
H277 H 0.59366 0.36875 0.90825 0.0
H278 H 0.60536 0.34349 0.79054 0.0
H279 H 0.63572 0.37281 0.85193 0.0
H280 H 0.67686 0.32413 0.88118 0.0
H281 H 0.64653 0.29452 0.81971 0.0
H282 H 0.66293 0.28676 0.9567 0.0
H283 H 0.56136 0.28535 0.23526 0.0
H284 H 0.52045 0.25398 0.11463 0.0
H285 H 0.57784 0.28678 0.8243 0.0
C286 C 0.65876 0.36774 0.08437 0.0
C287 C 0.66237 0.37947 0.19462 0.0
C288 C 0.64342 0.36328 0.28056 0.0
C289 C 0.62016 0.33667 0.25633 0.0
C290 C 0.61669 0.32621 0.1462 0.0
C291 C 0.63583 0.34093 0.06188 0.0
C292 C 0.62588 0.32657 0.94963 0.0
C293 C 0.61446 0.35457 0.87053 0.0
C294 C 0.65477 0.30682 0.89885 0.0
C295 C 0.59679 0.30299 0.98321 0.0
C296 C 0.59218 0.30264 0.097 0.0
C297 C 0.56511 0.28484 0.14621 0.0
C298 C 0.54193 0.26724 0.07703 0.0
C299 C 0.54591 0.26797 0.96002 0.0
C300 C 0.57417 0.28548 0.9134 0.0
H301 H 0.67063 0.13889 0.03558 0.0
H302 H 0.74113 0.11746 0.29984 0.0
H303 H 0.71518 0.16055 0.41783 0.0
H304 H 0.66147 0.23246 0.09986 0.0
H305 H 0.61717 0.22942 0.0668 0.0
H306 H 0.64618 0.20304 -0.00501 0.0
H307 H 0.6101 0.14976 0.0539 0.0
H308 H 0.58148 0.17625 0.12578 0.0
H309 H 0.60144 0.14265 0.19932 0.0
H310 H 0.67701 0.19898 0.51552 0.0
H311 H 0.62711 0.22601 0.59148 0.0
H312 H 0.57966 0.22127 0.26667 0.0
C313 C 0.68128 0.14403 0.11705 0.0
C314 C 0.70814 0.12509 0.1583 0.0
C315 C 0.72075 0.13184 0.2664 0.0
C316 C 0.70631 0.15645 0.33361 0.0
C317 C 0.67932 0.17413 0.2914 0.0
C318 C 0.66691 0.16826 0.18546 0.0
C319 C 0.6348 0.18707 0.16559 0.0
C320 C 0.64025 0.21463 0.07654 0.0
C321 C 0.60523 0.16245 0.13442 0.0
C322 C 0.62993 0.20271 0.27919 0.0
C323 C 0.65652 0.19587 0.34923 0.0
C324 C 0.65638 0.205 0.461 0.0
C325 C 0.62785 0.2203 0.50344 0.0
C326 C 0.5996 0.22592 0.4347 0.0
C327 C 0.60121 0.2181 0.32033 0.0
H328 H 0.33624 0.42643 0.30214 0.0
H329 H 0.29543 0.46001 0.61651 0.0
H330 H 0.33382 0.42266 0.71649 0.0
H331 H 0.34353 0.34124 0.37207 0.0
H332 H 0.38262 0.33582 0.29917 0.0
H333 H 0.35408 0.36722 0.253 0.0
H334 H 0.40171 0.4137 0.26954 0.0
H335 H 0.43048 0.38238 0.31563 0.0
H336 H 0.42388 0.41939 0.39951 0.0
H337 H 0.37183 0.37718 0.78028 0.0
H338 H 0.40897 0.32901 0.8047 0.0
H339 H 0.42735 0.32699 0.44949 0.0
C340 C 0.3356 0.42628 0.39212 0.0
C341 C 0.31271 0.4461 0.45156 0.0
C342 C 0.31279 0.44517 0.56922 0.0
C343 C 0.33451 0.42403 0.62668 0.0
C344 C 0.35634 0.40442 0.5653 0.0
C345 C 0.35735 0.40568 0.45067 0.0
C346 C 0.38229 0.3812 0.40418 0.0
C347 C 0.36456 0.35481 0.32762 0.0
C348 C 0.41131 0.40032 0.34365 0.0
C349 C 0.39443 0.36515 0.51047 0.0
C350 C 0.37918 0.37899 0.60245 0.0
C351 C 0.38436 0.36659 0.70913 0.0
C352 C 0.40539 0.33915 0.72208 0.0
C353 C 0.42125 0.32456 0.62908 0.0
C354 C 0.41611 0.33815 0.52219 0.0
H355 H 0.66288 0.96858 0.72071 0.0
H356 H 0.64327 0.97213 0.0754 0.0
H357 H 0.59645 0.92996 0.05259 0.0
H358 H 0.57424 0.95531 0.63009 0.0
H359 H 0.58486 0.92622 0.52118 0.0
H360 H 0.61471 0.95945 0.56244 0.0
H361 H 0.65949 0.91475 0.5995 0.0
H362 H 0.62977 0.88141 0.55895 0.0
H363 H 0.64974 0.88021 0.69345 0.0
H364 H 0.55481 0.88579 -0.00375 0.0
H365 H 0.52024 0.84017 0.90964 0.0
H366 H 0.56683 0.86271 0.59005 0.0
C367 C 0.64822 0.96092 0.79293 0.0
C368 C 0.65642 0.97371 0.89973 0.0
C369 C 0.6373 0.96262 0.99292 0.0
C370 C 0.61062 0.9388 0.98077 0.0
C371 C 0.60351 0.9262 0.87495 0.0
C372 C 0.62165 0.93672 0.78246 0.0
C373 C 0.61006 0.91717 0.67975 0.0
C374 C 0.59507 0.94096 0.59326 0.0
C375 C 0.63899 0.8972 0.63004 0.0
C376 C 0.58304 0.89365 0.72978 0.0
C377 C 0.57955 0.89973 0.84226 0.0
C378 C 0.55707 0.88089 0.9081 0.0
C379 C 0.53761 0.85495 0.85794 0.0
C380 C 0.54086 0.84784 0.74301 0.0
C381 C 0.56375 0.86765 0.67793 0.0
H382 H 0.08335 0.1414 0.13257 0.0
H383 H 0.0145 0.143 0.85186 0.0
H384 H 0.04402 0.09565 0.76615 0.0
H385 H 0.15654 0.12622 0.9816 0.0
H386 H 0.17431 0.09836 0.08275 0.0
H387 H 0.14608 0.13033 0.12667 0.0
H388 H 0.10743 0.08433 0.22014 0.0
H389 H 0.13561 0.05214 0.17657 0.0
H390 H 0.0916 0.04868 0.13933 0.0
H391 H 0.08426 0.05266 0.70235 0.0
H392 H 0.13138 0.0152 0.66687 0.0
H393 H 0.17306 0.03933 0.99213 0.0
C394 C 0.07417 0.13156 0.05365 0.0
C395 C 0.04657 0.14601 -0.00117 0.0
C396 C 0.03547 0.13235 0.89564 0.0
C397 C 0.05206 0.10542 0.84636 0.0
C398 C 0.07943 0.09214 0.90196 0.0
C399 C 0.09024 0.10451 0.00382 0.0
C400 C 0.12116 0.08663 0.04396 0.0
C401 C 0.1513 0.1119 0.05961 0.0
C402 C 0.11348 0.06676 0.15137 0.0
C403 C 0.1267 0.06293 0.9471 0.0
C404 C 0.10221 0.06649 0.8664 0.0
C405 C 0.10322 0.04924 0.76565 0.0
C406 C 0.13014 0.02812 0.74616 0.0
C407 C 0.15562 0.02417 0.82723 0.0
C408 C 0.15352 0.04135 0.92982 0.0
H409 H 0.92569 0.63641 0.30234 0.0
H410 H 0.91033 0.63443 0.9452 0.0
H411 H 0.87151 0.58424 0.96542 0.0
H412 H 0.9224 0.54563 0.34826 0.0
H413 H 0.89964 0.54875 0.47724 0.0
H414 H 0.92784 0.58301 0.43355 0.0
H415 H 0.87929 0.62489 0.44818 0.0
H416 H 0.85101 0.59083 0.49234 0.0
H417 H 0.84058 0.61603 0.3732 0.0
H418 H 0.83405 0.5347 0.02569 0.0
H419 H 0.79688 0.49263 0.12214 0.0
H420 H 0.83514 0.52914 0.44032 0.0
C421 C 0.9144 0.62521 0.22826 0.0
C422 C 0.92111 0.63901 0.12211 0.0
C423 C 0.90546 0.62412 0.02726 0.0
C424 C 0.88356 0.59556 0.0379 0.0
C425 C 0.87749 0.58255 0.14398 0.0
C426 C 0.89221 0.5971 0.23755 0.0
C427 C 0.87997 0.57962 0.34259 0.0
C428 C 0.90921 0.56328 0.40399 0.0
C429 C 0.86161 0.60431 0.4185 0.0
C430 C 0.85581 0.55308 0.29366 0.0
C431 C 0.85509 0.55485 0.17893 0.0
C432 C 0.83441 0.53306 0.11547 0.0
C433 C 0.81347 0.50922 0.17097 0.0
C434 C 0.81311 0.50776 0.28863 0.0
C435 C 0.83487 0.52973 0.35032 0.0
H436 H 0.34159 0.03909 0.85626 0.0
H437 H 0.31781 0.00105 0.5257 0.0
H438 H 0.35862 0.04319 0.44533 0.0
H439 H 0.34938 0.12566 0.78725 0.0
H440 H 0.38414 0.1349 0.8804 0.0
H441 H 0.35427 0.1008 0.91144 0.0
H442 H 0.40286 0.05887 0.92318 0.0
H443 H 0.43294 0.0929 0.89262 0.0
H444 H 0.43135 0.05529 0.80748 0.0
H445 H 0.39903 0.09255 0.40128 0.0
H446 H 0.43851 0.14269 0.39822 0.0
H447 H 0.43687 0.14594 0.75873 0.0
C448 C 0.34514 0.03944 0.767 0.0
C449 C 0.32655 0.01697 0.69702 0.0
C450 C 0.33195 0.01806 0.58071 0.0
C451 C 0.35498 0.0419 0.53438 0.0
C452 C 0.37262 0.06404 0.60582 0.0
C453 C 0.36822 0.06271 0.71973 0.0
C454 C 0.3899 0.08944 0.77851 0.0
C455 C 0.36811 0.11416 0.84316 0.0
C456 C 0.4158 0.07314 0.85493 0.0
C457 C 0.40678 0.10647 0.6798 0.0
C458 C 0.39649 0.09159 0.58079 0.0
C459 C 0.40759 0.10414 0.47835 0.0
C460 C 0.42987 0.13263 0.47737 0.0
C461 C 0.44085 0.14793 0.57821 0.0
C462 C 0.42923 0.13448 0.68035 0.0
H463 H 0.8321 0.92865 0.84603 0.0
H464 H 0.81985 0.97536 0.16971 0.0
H465 H 0.85803 0.93415 0.25156 0.0
H466 H 0.83131 0.84461 0.93632 0.0
H467 H 0.86281 0.83095 0.84004 0.0
H468 H 0.83704 0.86588 0.80477 0.0
H469 H 0.89063 0.90411 0.77251 0.0
H470 H 0.91664 0.86921 0.80732 0.0
H471 H 0.92171 0.90878 0.88144 0.0
H472 H 0.8919 0.88433 0.30148 0.0
H473 H 0.92212 0.83108 0.31538 0.0
H474 H 0.91505 0.81787 0.95807 0.0
C475 C 0.83778 0.93057 0.93392 0.0
C476 C 0.82288 0.95527 0.00157 0.0
C477 C 0.831 0.95681 0.11614 0.0
C478 C 0.85267 0.93349 0.16335 0.0
C479 C 0.86637 0.90911 0.09461 0.0
C480 C 0.8596 0.90773 0.98211 0.0
C481 C 0.87657 0.87821 0.92747 0.0
C482 C 0.85037 0.85345 0.87404 0.0
C483 C 0.90296 0.89084 0.84214 0.0
C484 C 0.89317 0.86254 0.02751 0.0
C485 C 0.88696 0.88087 0.12298 0.0
C486 C 0.89742 0.87013 0.22713 0.0
C487 C 0.91441 0.83979 0.23418 0.0
C488 C 0.92113 0.8206 0.13767 0.0
C489 C 0.91082 0.83243 0.03277 0.0
H490 H 0.04295 0.32503 0.24338 0.0
H491 H 0.05029 0.32713 0.88347 0.0
H492 H 0.09082 0.37628 0.89605 0.0
H493 H 0.04761 0.4151 0.28772 0.0
H494 H 0.07257 0.41217 0.41238 0.0
H495 H 0.04366 0.37786 0.37401 0.0
H496 H 0.09242 0.33603 0.37996 0.0
H497 H 0.12146 0.37017 0.41856 0.0
H498 H 0.12974 0.34472 0.29788 0.0
H499 H 0.1307 0.42519 0.94967 0.0
H500 H 0.16837 0.46841 0.03964 0.0
H501 H 0.1349 0.43268 0.36382 0.0
C502 C 0.05293 0.33587 0.167 0.0
C503 C 0.04345 0.32241 0.06237 0.0
C504 C 0.05728 0.33713 0.96448 0.0
C505 C 0.08021 0.36504 0.97083 0.0
C506 C 0.08899 0.37769 0.07562 0.0
C507 C 0.07585 0.36345 0.17187 0.0
C508 C 0.08988 0.38108 0.2744 0.0
C509 C 0.06175 0.39753 0.34101 0.0
C510 C 0.10955 0.35654 0.34692 0.0
C511 C 0.11312 0.40749 0.22101 0.0
C512 C 0.11215 0.40532 0.10634 0.0
C513 C 0.13165 0.42712 0.03936 0.0
C514 C 0.1529 0.45158 0.09117 0.0
C515 C 0.15454 0.45381 0.20863 0.0
C516 C 0.13421 0.43156 0.27388 0.0
H517 H 0.58622 0.66029 0.71568 0.0
H518 H 0.52882 0.67591 0.41346 0.0
H519 H 0.55566 0.62722 0.32689 0.0
H520 H 0.66266 0.63725 0.58387 0.0
H521 H 0.67254 0.6055 0.68514 0.0
H522 H 0.64815 0.64104 0.72514 0.0
H523 H 0.60066 0.5999 0.79698 0.0
H524 H 0.62484 0.56419 0.7566 0.0
H525 H 0.58254 0.56811 0.70473 0.0
H526 H 0.58991 0.57895 0.26986 0.0
H527 H 0.63021 0.53379 0.24399 0.0
H528 H 0.66497 0.54739 0.58392 0.0
C529 C 0.57925 0.65348 0.6313 0.0
C530 C 0.55537 0.67207 0.57138 0.0
C531 C 0.54696 0.66217 0.46124 0.0
C532 C 0.56203 0.63447 0.41134 0.0
C533 C 0.58531 0.6167 0.47276 0.0
C534 C 0.59391 0.6257 0.58029 0.0
C535 C 0.62018 0.60256 0.62684 0.0
C536 C 0.65282 0.6228 0.65699 0.0
C537 C 0.60621 0.5825 0.72724 0.0
C538 C 0.62537 0.57948 0.52788 0.0
C539 C 0.60484 0.58815 0.44022 0.0
C540 C 0.60591 0.57174 0.33808 0.0
C541 C 0.62895 0.54614 0.32425 0.0
C542 C 0.65061 0.53695 0.41211 0.0
C543 C 0.64835 0.55349 0.51598 0.0
loop_
_geom_bond_atom_site_label_1
_geom_bond_atom_site_label_2
_geom_bond_distance
_geom_bond_site_symmetry_2
_ccdc_geom_bond_type
C0 O1 1.306 . S
C0 O3 1.160 . S
O1 C0 1.306 . S
O1 Cd2 2.228 . S
Cd2 O1 2.228 . S
Cd2 O6 2.273 . S
Cd2 O10 2.277 . S
O3 C0 1.160 . S
O3 Cd4 2.203 . S
Cd4 O3 2.203 . S
Cd4 O6 2.411 . S
Cd4 O7 2.333 . S
Cd4 O8 2.352 . S
Cd4 O12 2.277 . S
Cd4 O13 2.356 . S
C5 O10 1.209 . S
C5 O12 1.226 . S
O6 Cd2 2.273 . S
O6 Cd4 2.411 . S
O6 C9 1.320 . S
O7 Cd4 2.333 . S
O7 C9 1.214 . S
O8 Cd4 2.352 . S
O8 C11 1.258 . S
C9 O6 1.320 . S
C9 O7 1.214 . S
O10 Cd2 2.277 . S
O10 C5 1.209 . S
C11 O8 1.258 . S
C11 O13 1.282 . S
O12 Cd4 2.277 . S
O12 C5 1.226 . S
O13 Cd4 2.356 . S
O13 C11 1.282 . S
C14 O15 1.306 . S
C14 O17 1.160 . S
O15 C14 1.306 . S
O15 Cd16 2.228 . S
Cd16 O15 2.228 . S
Cd16 O20 2.273 . S
Cd16 O24 2.277 . S
O17 C14 1.160 . S
O17 Cd18 2.203 . S
Cd18 O17 2.203 . S
Cd18 O20 2.411 . S
Cd18 O21 2.333 . S
Cd18 O22 2.352 . S
Cd18 O26 2.277 . S
Cd18 O27 2.356 . S
C19 O24 1.209 . S
C19 O26 1.226 . S
O20 Cd16 2.273 . S
O20 Cd18 2.411 . S
O20 C23 1.320 . S
O21 Cd18 2.333 . S
O21 C23 1.214 . S
O22 Cd18 2.352 . S
O22 C25 1.258 . S
C23 O20 1.320 . S
C23 O21 1.214 . S
O24 Cd16 2.277 . S
O24 C19 1.209 . S
C25 O22 1.258 . S
C25 O27 1.282 . S
O26 Cd18 2.277 . S
O26 C19 1.226 . S
O27 Cd18 2.356 . S
O27 C25 1.282 . S
C28 O29 1.306 . S
C28 O31 1.160 . S
O29 C28 1.306 . S
O29 Cd30 2.228 1_565 S
Cd30 O29 2.228 1_545 S
Cd30 O34 2.273 . S
Cd30 O38 2.277 . S
O31 C28 1.160 . S
O31 Cd32 2.203 . S
Cd32 O31 2.203 . S
Cd32 O34 2.411 1_565 S
Cd32 O35 2.333 1_565 S
Cd32 O36 2.352 . S
Cd32 O40 2.277 1_566 S
Cd32 O41 2.356 1_556 S
C33 O38 1.209 . S
C33 O40 1.226 1_556 S
O34 Cd30 2.273 . S
O34 Cd32 2.411 1_545 S
O34 C37 1.320 . S
O35 Cd32 2.333 1_545 S
O35 C37 1.214 . S
O36 Cd32 2.352 . S
O36 C39 1.258 1_556 S
C37 O34 1.320 . S
C37 O35 1.214 . S
O38 Cd30 2.277 . S
O38 C33 1.209 . S
C39 O36 1.258 1_554 S
C39 O41 1.282 . S
O40 Cd32 2.277 1_544 S
O40 C33 1.226 1_554 S
O41 Cd32 2.356 1_554 S
O41 C39 1.282 . S
C42 O43 1.306 . S
C42 O45 1.160 . S
O43 C42 1.306 . S
O43 Cd44 2.228 1_455 S
Cd44 O43 2.228 1_655 S
Cd44 O48 2.273 . S
Cd44 O52 2.277 . S
O45 C42 1.160 . S
O45 Cd46 2.203 . S
Cd46 O45 2.203 . S
Cd46 O48 2.411 1_455 S
Cd46 O49 2.333 1_455 S
Cd46 O50 2.352 . S
Cd46 O54 2.277 1_454 S
Cd46 O55 2.356 1_554 S
C47 O52 1.209 . S
C47 O54 1.226 1_554 S
O48 Cd44 2.273 . S
O48 Cd46 2.411 1_655 S
O48 C51 1.320 . S
O49 Cd46 2.333 1_655 S
O49 C51 1.214 . S
O50 Cd46 2.352 . S
O50 C53 1.258 1_554 S
C51 O48 1.320 . S
C51 O49 1.214 . S
O52 Cd44 2.277 . S
O52 C47 1.209 . S
C53 O50 1.258 1_556 S
C53 O55 1.282 . S
O54 Cd46 2.277 1_656 S
O54 C47 1.226 1_556 S
O55 Cd46 2.356 1_556 S
O55 C53 1.282 . S
C56 O57 1.306 . S
C56 O59 1.160 . S
O57 C56 1.306 . S
O57 Cd58 2.228 1_545 S
Cd58 O57 2.228 1_565 S
Cd58 O62 2.273 . S
Cd58 O66 2.277 . S
O59 C56 1.160 . S
O59 Cd60 2.203 . S
Cd60 O59 2.203 . S
Cd60 O62 2.411 1_545 S
Cd60 O63 2.333 1_545 S
Cd60 O64 2.352 . S
Cd60 O68 2.277 1_546 S
Cd60 O69 2.356 1_556 S
C61 O66 1.209 . S
C61 O68 1.226 1_556 S
O62 Cd58 2.273 . S
O62 Cd60 2.411 1_565 S
O62 C65 1.320 . S
O63 Cd60 2.333 1_565 S
O63 C65 1.214 . S
O64 Cd60 2.352 . S
O64 C67 1.258 1_556 S
C65 O62 1.320 . S
C65 O63 1.214 . S
O66 Cd58 2.277 . S
O66 C61 1.209 . S
C67 O64 1.258 1_554 S
C67 O69 1.282 . S
O68 Cd60 2.277 1_564 S
O68 C61 1.226 1_554 S
O69 Cd60 2.356 1_554 S
O69 C67 1.282 . S
C70 O71 1.306 . S
C70 O73 1.160 . S
O71 C70 1.306 . S
O71 Cd72 2.228 1_655 S
Cd72 O71 2.228 1_455 S
Cd72 O76 2.273 . S
Cd72 O80 2.277 . S
O73 C70 1.160 . S
O73 Cd74 2.203 . S
Cd74 O73 2.203 . S
Cd74 O76 2.411 1_655 S
Cd74 O77 2.333 1_655 S
Cd74 O78 2.352 . S
Cd74 O82 2.277 1_654 S
Cd74 O83 2.356 1_554 S
C75 O80 1.209 . S
C75 O82 1.226 1_554 S
O76 Cd72 2.273 . S
O76 Cd74 2.411 1_455 S
O76 C79 1.320 . S
O77 Cd74 2.333 1_455 S
O77 C79 1.214 . S
O78 Cd74 2.352 . S
O78 C81 1.258 1_554 S
C79 O76 1.320 . S
C79 O77 1.214 . S
O80 Cd72 2.277 . S
O80 C75 1.209 . S
C81 O78 1.258 1_556 S
C81 O83 1.282 . S
O82 Cd74 2.277 1_456 S
O82 C75 1.226 1_556 S
O83 Cd74 2.356 1_556 S
O83 C81 1.282 . S
C84 O85 1.306 . S
C84 O87 1.160 . S
O85 C84 1.306 . S
O85 Cd86 2.228 . S
Cd86 O85 2.228 . S
Cd86 O90 2.273 . S
Cd86 O94 2.277 . S
O87 C84 1.160 . S
O87 Cd88 2.203 . S
Cd88 O87 2.203 . S
Cd88 O90 2.411 . S
Cd88 O91 2.333 . S
Cd88 O92 2.352 . S
Cd88 O96 2.277 . S
Cd88 O97 2.356 . S
C89 O94 1.209 . S
C89 O96 1.226 . S
O90 Cd86 2.273 . S
O90 Cd88 2.411 . S
O90 C93 1.320 . S
O91 Cd88 2.333 . S
O91 C93 1.214 . S
O92 Cd88 2.352 . S
O92 C95 1.258 . S
C93 O90 1.320 . S
C93 O91 1.214 . S
O94 Cd86 2.277 . S
O94 C89 1.209 . S
C95 O92 1.258 . S
C95 O97 1.282 . S
O96 Cd88 2.277 . S
O96 C89 1.226 . S
O97 Cd88 2.356 . S
O97 C95 1.282 . S
C98 O99 1.306 . S
C98 O101 1.160 . S
O99 C98 1.306 . S
O99 Cd100 2.228 . S
Cd100 O99 2.228 . S
Cd100 O104 2.273 . S
Cd100 O108 2.277 . S
O101 C98 1.160 . S
O101 Cd102 2.203 . S
Cd102 O101 2.203 . S
Cd102 O104 2.411 . S
Cd102 O105 2.333 . S
Cd102 O106 2.352 . S
Cd102 O110 2.277 . S
Cd102 O111 2.356 . S
C103 O108 1.209 . S
C103 O110 1.226 . S
O104 Cd100 2.273 . S
O104 Cd102 2.411 . S
O104 C107 1.320 . S
O105 Cd102 2.333 . S
O105 C107 1.214 . S
O106 Cd102 2.352 . S
O106 C109 1.258 . S
C107 O104 1.320 . S
C107 O105 1.214 . S
O108 Cd100 2.277 . S
O108 C103 1.209 . S
C109 O106 1.258 . S
C109 O111 1.282 . S
O110 Cd102 2.277 . S
O110 C103 1.226 . S
O111 Cd102 2.356 . S
O111 C109 1.282 . S
H112 C124 0.930 . S
H113 C126 0.930 . S
H114 C127 0.930 1_554 S
H115 C131 0.959 . S
H116 C131 0.959 . S
H117 C131 0.961 . S
H118 C132 0.960 1_556 S
H119 C132 0.961 . S
H120 C132 0.959 . S
H121 C135 0.929 . S
H122 C136 0.931 . S
H123 C138 0.930 . S
C124 H112 0.930 . S
C124 C125 1.399 . S
C124 C129 1.399 . S
C125 C124 1.399 . S
C125 C126 1.376 . S
C126 H113 0.930 . S
C126 C125 1.376 . S
C126 C127 1.388 . S
C127 H114 0.930 1_556 S
C127 C126 1.388 . S
C127 C128 1.390 . S
C128 C127 1.390 . S
C128 C129 1.394 . S
C128 C134 1.465 1_556 S
C129 C124 1.399 . S
C129 C128 1.394 . S
C129 C130 1.516 . S
C130 C129 1.516 . S
C130 C131 1.502 . S
C130 C132 1.561 1_556 S
C130 C133 1.526 1_556 S
C131 H115 0.959 . S
C131 H116 0.959 . S
C131 H117 0.961 . S
C131 C130 1.502 . S
C132 H118 0.960 1_554 S
C132 H119 0.961 . S
C132 H120 0.959 . S
C132 C130 1.561 1_554 S
C133 C130 1.526 1_554 S
C133 C134 1.396 . S
C133 C138 1.390 . S
C134 C128 1.465 1_554 S
C134 C133 1.396 . S
C134 C135 1.399 . S
C135 H121 0.929 . S
C135 C134 1.399 . S
C135 C136 1.385 . S
C136 H122 0.931 . S
C136 C135 1.385 . S
C136 C137 1.389 . S
C137 C136 1.389 . S
C137 C138 1.387 . S
C138 H123 0.930 . S
C138 C133 1.390 . S
C138 C137 1.387 . S
H139 C151 0.930 . S
H140 C153 0.930 . S
H141 C154 0.930 . S
H142 C158 0.959 . S
H143 C158 0.959 . S
H144 C158 0.961 . S
H145 C159 0.960 . S
H146 C159 0.961 . S
H147 C159 0.959 . S
H148 C162 0.929 . S
H149 C163 0.931 . S
H150 C165 0.930 . S
C151 H139 0.930 . S
C151 C152 1.399 . S
C151 C156 1.399 . S
C152 C151 1.399 . S
C152 C153 1.376 . S
C153 H140 0.930 . S
C153 C152 1.376 . S
C153 C154 1.388 . S
C154 H141 0.930 . S
C154 C153 1.388 . S
C154 C155 1.390 . S
C155 C154 1.390 . S
C155 C156 1.394 . S
C155 C161 1.465 . S
C156 C151 1.399 . S
C156 C155 1.394 . S
C156 C157 1.516 . S
C157 C156 1.516 . S
C157 C158 1.502 . S
C157 C159 1.561 . S
C157 C160 1.526 . S
C158 H142 0.959 . S
C158 H143 0.959 . S
C158 H144 0.961 . S
C158 C157 1.502 . S
C159 H145 0.960 . S
C159 H146 0.961 . S
C159 H147 0.959 . S
C159 C157 1.561 . S
C160 C157 1.526 . S
C160 C161 1.396 . S
C160 C165 1.390 . S
C161 C155 1.465 . S
C161 C160 1.396 . S
C161 C162 1.399 . S
C162 H148 0.929 . S
C162 C161 1.399 . S
C162 C163 1.385 . S
C163 H149 0.931 . S
C163 C162 1.385 . S
C163 C164 1.389 . S
C164 C163 1.389 . S
C164 C165 1.387 . S
C165 H150 0.930 . S
C165 C160 1.390 . S
C165 C164 1.387 . S
H166 C178 0.930 . S
H167 C180 0.930 . S
H168 C181 0.930 . S
H169 C185 0.959 . S
H170 C185 0.959 . S
H171 C185 0.961 . S
H172 C186 0.960 . S
H173 C186 0.961 . S
H174 C186 0.959 . S
H175 C189 0.929 . S
H176 C190 0.931 . S
H177 C192 0.930 . S
C178 H166 0.930 . S
C178 C179 1.399 . S
C178 C183 1.399 . S
C179 C178 1.399 . S
C179 C180 1.376 . S
C180 H167 0.930 . S
C180 C179 1.376 . S
C180 C181 1.388 . S
C181 H168 0.930 . S
C181 C180 1.388 . S
C181 C182 1.390 . S
C182 C181 1.390 . S
C182 C183 1.394 . S
C182 C188 1.465 . S
C183 C178 1.399 . S
C183 C182 1.394 . S
C183 C184 1.516 . S
C184 C183 1.516 . S
C184 C185 1.502 . S
C184 C186 1.561 . S
C184 C187 1.526 . S
C185 H169 0.959 . S
C185 H170 0.959 . S
C185 H171 0.961 . S
C185 C184 1.502 . S
C186 H172 0.960 . S
C186 H173 0.961 . S
C186 H174 0.959 . S
C186 C184 1.561 . S
C187 C184 1.526 . S
C187 C188 1.396 . S
C187 C192 1.390 . S
C188 C182 1.465 . S
C188 C187 1.396 . S
C188 C189 1.399 . S
C189 H175 0.929 . S
C189 C188 1.399 . S
C189 C190 1.385 . S
C190 H176 0.931 . S
C190 C189 1.385 . S
C190 C191 1.389 . S
C191 C190 1.389 . S
C191 C192 1.387 . S
C192 H177 0.930 . S
C192 C187 1.390 . S
C192 C191 1.387 . S
H193 C205 0.930 . S
H194 C207 0.930 . S
H195 C208 0.930 . S
H196 C212 0.959 . S
H197 C212 0.959 . S
H198 C212 0.961 . S
H199 C213 0.960 . S
H200 C213 0.961 . S
H201 C213 0.959 . S
H202 C216 0.929 . S
H203 C217 0.931 . S
H204 C219 0.930 . S
C205 H193 0.930 . S
C205 C206 1.399 . S
C205 C210 1.399 . S
C206 C205 1.399 . S
C206 C207 1.376 . S
C207 H194 0.930 . S
C207 C206 1.376 . S
C207 C208 1.388 . S
C208 H195 0.930 . S
C208 C207 1.388 . S
C208 C209 1.390 . S
C209 C208 1.390 . S
C209 C210 1.394 . S
C209 C215 1.465 . S
C210 C205 1.399 . S
C210 C209 1.394 . S
C210 C211 1.516 . S
C211 C210 1.516 . S
C211 C212 1.502 . S
C211 C213 1.561 . S
C211 C214 1.526 . S
C212 H196 0.959 . S
C212 H197 0.959 . S
C212 H198 0.961 . S
C212 C211 1.502 . S
C213 H199 0.960 . S
C213 H200 0.961 . S
C213 H201 0.959 . S
C213 C211 1.561 . S
C214 C211 1.526 . S
C214 C215 1.396 . S
C214 C219 1.390 . S
C215 C209 1.465 . S
C215 C214 1.396 . S
C215 C216 1.399 . S
C216 H202 0.929 . S
C216 C215 1.399 . S
C216 C217 1.385 . S
C217 H203 0.931 . S
C217 C216 1.385 . S
C217 C218 1.389 . S
C218 C217 1.389 . S
C218 C219 1.387 . S
C219 H204 0.930 . S
C219 C214 1.390 . S
C219 C218 1.387 . S
H220 C232 0.930 . S
H221 C234 0.930 . S
H222 C235 0.930 . S
H223 C239 0.959 . S
H224 C239 0.959 . S
H225 C239 0.961 . S
H226 C240 0.960 . S
H227 C240 0.961 . S
H228 C240 0.959 . S
H229 C243 0.929 . S
H230 C244 0.931 . S
H231 C246 0.930 . S
C232 H220 0.930 . S
C232 C233 1.399 . S
C232 C237 1.399 . S
C233 C232 1.399 . S
C233 C234 1.376 . S
C234 H221 0.930 . S
C234 C233 1.376 . S
C234 C235 1.388 . S
C235 H222 0.930 . S
C235 C234 1.388 . S
C235 C236 1.390 . S
C236 C235 1.390 . S
C236 C237 1.394 . S
C236 C242 1.465 . S
C237 C232 1.399 . S
C237 C236 1.394 . S
C237 C238 1.516 . S
C238 C237 1.516 . S
C238 C239 1.502 . S
C238 C240 1.561 . S
C238 C241 1.526 . S
C239 H223 0.959 . S
C239 H224 0.959 . S
C239 H225 0.961 . S
C239 C238 1.502 . S
C240 H226 0.960 . S
C240 H227 0.961 . S
C240 H228 0.959 . S
C240 C238 1.561 . S
C241 C238 1.526 . S
C241 C242 1.396 . S
C241 C246 1.390 . S
C242 C236 1.465 . S
C242 C241 1.396 . S
C242 C243 1.399 . S
C243 H229 0.929 . S
C243 C242 1.399 . S
C243 C244 1.385 . S
C244 H230 0.931 . S
C244 C243 1.385 . S
C244 C245 1.389 . S
C245 C244 1.389 . S
C245 C246 1.387 . S
C246 H231 0.930 . S
C246 C241 1.390 . S
C246 C245 1.387 . S
H247 C259 0.930 1_554 S
H248 C261 0.930 . S
H249 C262 0.930 . S
H250 C266 0.959 . S
H251 C266 0.959 . S
H252 C266 0.961 1_554 S
H253 C267 0.960 . S
H254 C267 0.961 . S
H255 C267 0.959 . S
H256 C270 0.929 . S
H257 C271 0.931 . S
H258 C273 0.930 . S
C259 H247 0.930 1_556 S
C259 C260 1.399 . S
C259 C264 1.399 . S
C260 C259 1.399 . S
C260 C261 1.376 . S
C261 H248 0.930 . S
C261 C260 1.376 . S
C261 C262 1.388 . S
C262 H249 0.930 . S
C262 C261 1.388 . S
C262 C263 1.390 . S
C263 C262 1.390 . S
C263 C264 1.394 . S
C263 C269 1.465 . S
C264 C259 1.399 . S
C264 C263 1.394 . S
C264 C265 1.516 . S
C265 C264 1.516 . S
C265 C266 1.502 . S
C265 C267 1.561 . S
C265 C268 1.526 . S
C266 H250 0.959 . S
C266 H251 0.959 . S
C266 H252 0.961 1_556 S
C266 C265 1.502 . S
C267 H253 0.960 . S
C267 H254 0.961 . S
C267 H255 0.959 . S
C267 C265 1.561 . S
C268 C265 1.526 . S
C268 C269 1.396 . S
C268 C273 1.390 . S
C269 C263 1.465 . S
C269 C268 1.396 . S
C269 C270 1.399 . S
C270 H256 0.929 . S
C270 C269 1.399 . S
C270 C271 1.385 . S
C271 H257 0.931 . S
C271 C270 1.385 . S
C271 C272 1.389 . S
C272 C271 1.389 . S
C272 C273 1.387 . S
C273 H258 0.930 . S
C273 C268 1.390 . S
C273 C272 1.387 . S
H274 C286 0.930 . S
H275 C288 0.930 . S
H276 C289 0.930 . S
H277 C293 0.959 . S
H278 C293 0.959 . S
H279 C293 0.961 . S
H280 C294 0.960 . S
H281 C294 0.961 . S
H282 C294 0.959 . S
H283 C297 0.926 1_554 S
H284 C298 0.931 . S
H285 C300 0.930 . S
C286 H274 0.930 . S
C286 C287 1.399 . S
C286 C291 1.399 . S
C287 C286 1.399 . S
C287 C288 1.376 . S
C288 H275 0.930 . S
C288 C287 1.376 . S
C288 C289 1.388 . S
C289 H276 0.930 . S
C289 C288 1.388 . S
C289 C290 1.390 . S
C290 C289 1.390 . S
C290 C291 1.394 . S
C290 C296 1.465 1_554 S
C291 C286 1.399 . S
C291 C290 1.394 . S
C291 C292 1.516 1_554 S
C292 C291 1.516 1_556 S
C292 C293 1.502 . S
C292 C294 1.561 . S
C292 C295 1.526 . S
C293 H277 0.959 . S
C293 H278 0.959 . S
C293 H279 0.961 . S
C293 C292 1.502 . S
C294 H280 0.960 . S
C294 H281 0.961 . S
C294 H282 0.959 . S
C294 C292 1.561 . S
C295 C292 1.526 . S
C295 C296 1.396 . S
C295 C300 1.390 . S
C296 C290 1.465 1_556 S
C296 C295 1.396 . S
C296 C297 1.399 . S
C297 H283 0.926 1_556 S
C297 C296 1.399 . S
C297 C298 1.388 . S
C298 H284 0.931 . S
C298 C297 1.388 . S
C298 C299 1.389 . S
C299 C298 1.389 . S
C299 C300 1.387 . S
C300 H285 0.930 . S
C300 C295 1.390 . S
C300 C299 1.387 . S
H301 C313 0.930 . S
H302 C315 0.930 . S
H303 C316 0.930 . S
H304 C320 0.959 . S
H305 C320 0.959 . S
H306 C320 0.961 . S
H307 C321 0.960 1_556 S
H308 C321 0.961 . S
H309 C321 0.959 . S
H310 C324 0.929 . S
H311 C325 0.931 . S
H312 C327 0.930 . S
C313 H301 0.930 . S
C313 C314 1.399 . S
C313 C318 1.399 . S
C314 C313 1.399 . S
C314 C315 1.376 . S
C315 H302 0.930 . S
C315 C314 1.376 . S
C315 C316 1.388 . S
C316 H303 0.930 . S
C316 C315 1.388 . S
C316 C317 1.390 . S
C317 C316 1.390 . S
C317 C318 1.394 . S
C317 C323 1.465 . S
C318 C313 1.399 . S
C318 C317 1.394 . S
C318 C319 1.516 . S
C319 C318 1.516 . S
C319 C320 1.502 . S
C319 C321 1.561 . S
C319 C322 1.526 . S
C320 H304 0.959 . S
C320 H305 0.959 . S
C320 H306 0.961 . S
C320 C319 1.502 . S
C321 H307 0.960 1_554 S
C321 H308 0.961 . S
C321 H309 0.959 . S
C321 C319 1.561 . S
C322 C319 1.526 . S
C322 C323 1.396 . S
C322 C327 1.390 . S
C323 C317 1.465 . S
C323 C322 1.396 . S
C323 C324 1.399 . S
C324 H310 0.929 . S
C324 C323 1.399 . S
C324 C325 1.385 . S
C325 H311 0.931 . S
C325 C324 1.385 . S
C325 C326 1.389 . S
C326 C325 1.389 . S
C326 C327 1.387 . S
C327 H312 0.930 . S
C327 C322 1.390 . S
C327 C326 1.387 . S
H328 C340 0.930 . S
H329 C342 0.930 . S
H330 C343 0.930 . S
H331 C347 0.959 . S
H332 C347 0.959 . S
H333 C347 0.961 . S
H334 C348 0.960 . S
H335 C348 0.961 . S
H336 C348 0.959 . S
H337 C351 0.929 . S
H338 C352 0.931 . S
H339 C354 0.930 . S
C340 H328 0.930 . S
C340 C341 1.399 . S
C340 C345 1.399 . S
C341 C340 1.399 . S
C341 C342 1.376 . S
C342 H329 0.930 . S
C342 C341 1.376 . S
C342 C343 1.388 . S
C343 H330 0.930 . S
C343 C342 1.388 . S
C343 C344 1.390 . S
C344 C343 1.390 . S
C344 C345 1.394 . S
C344 C350 1.465 . S
C345 C340 1.399 . S
C345 C344 1.394 . S
C345 C346 1.516 . S
C346 C345 1.516 . S
C346 C347 1.502 . S
C346 C348 1.561 . S
C346 C349 1.526 . S
C347 H331 0.959 . S
C347 H332 0.959 . S
C347 H333 0.961 . S
C347 C346 1.502 . S
C348 H334 0.960 . S
C348 H335 0.961 . S
C348 H336 0.959 . S
C348 C346 1.561 . S
C349 C346 1.526 . S
C349 C350 1.396 . S
C349 C354 1.390 . S
C350 C344 1.465 . S
C350 C349 1.396 . S
C350 C351 1.399 . S
C351 H337 0.929 . S
C351 C350 1.399 . S
C351 C352 1.385 . S
C352 H338 0.931 . S
C352 C351 1.385 . S
C352 C353 1.389 . S
C353 C352 1.389 . S
C353 C354 1.387 . S
C354 H339 0.930 . S
C354 C349 1.390 . S
C354 C353 1.387 . S
H355 C367 0.930 . S
H356 C369 0.930 . S
H357 C370 0.930 . S
H358 C374 0.959 . S
H359 C374 0.959 . S
H360 C374 0.961 . S
H361 C375 0.960 . S
H362 C375 0.961 . S
H363 C375 0.959 . S
H364 C378 0.929 . S
H365 C379 0.931 . S
H366 C381 0.930 . S
C367 H355 0.930 . S
C367 C368 1.399 . S
C367 C372 1.399 . S
C368 C367 1.399 . S
C368 C369 1.376 . S
C369 H356 0.930 . S
C369 C368 1.376 . S
C369 C370 1.388 . S
C370 H357 0.930 . S
C370 C369 1.388 . S
C370 C371 1.390 . S
C371 C370 1.390 . S
C371 C372 1.394 . S
C371 C377 1.465 . S
C372 C367 1.399 . S
C372 C371 1.394 . S
C372 C373 1.516 . S
C373 C372 1.516 . S
C373 C374 1.502 . S
C373 C375 1.561 . S
C373 C376 1.526 . S
C374 H358 0.959 . S
C374 H359 0.959 . S
C374 H360 0.961 . S
C374 C373 1.502 . S
C375 H361 0.960 . S
C375 H362 0.961 . S
C375 H363 0.959 . S
C375 C373 1.561 . S
C376 C373 1.526 . S
C376 C377 1.396 . S
C376 C381 1.390 . S
C377 C371 1.465 . S
C377 C376 1.396 . S
C377 C378 1.399 . S
C378 H364 0.929 . S
C378 C377 1.399 . S
C378 C379 1.385 . S
C379 H365 0.931 . S
C379 C378 1.385 . S
C379 C380 1.389 . S
C380 C379 1.389 . S
C380 C381 1.387 . S
C381 H366 0.930 . S
C381 C376 1.390 . S
C381 C380 1.387 . S
H382 C394 0.930 . S
H383 C396 0.930 . S
H384 C397 0.930 . S
H385 C401 0.959 1_556 S
H386 C401 0.959 . S
H387 C401 0.961 . S
H388 C402 0.960 . S
H389 C402 0.961 . S
H390 C402 0.959 . S
H391 C405 0.929 . S
H392 C406 0.931 . S
H393 C408 0.930 . S
C394 H382 0.930 . S
C394 C395 1.399 . S
C394 C399 1.399 . S
C395 C394 1.399 . S
C395 C396 1.376 1_554 S
C396 H383 0.930 . S
C396 C395 1.376 1_556 S
C396 C397 1.388 . S
C397 H384 0.930 . S
C397 C396 1.388 . S
C397 C398 1.390 . S
C398 C397 1.390 . S
C398 C399 1.394 1_556 S
C398 C404 1.465 . S
C399 C394 1.399 . S
C399 C398 1.394 1_554 S
C399 C400 1.516 . S
C400 C399 1.516 . S
C400 C401 1.502 . S
C400 C402 1.561 . S
C400 C403 1.526 . S
C401 H385 0.959 1_554 S
C401 H386 0.959 . S
C401 H387 0.961 . S
C401 C400 1.502 . S
C402 H388 0.960 . S
C402 H389 0.961 . S
C402 H390 0.959 . S
C402 C400 1.561 . S
C403 C400 1.526 . S
C403 C404 1.396 1_554 S
C403 C408 1.390 . S
C404 C398 1.465 . S
C404 C403 1.396 1_556 S
C404 C405 1.399 . S
C405 H391 0.929 . S
C405 C404 1.399 . S
C405 C406 1.385 . S
C406 H392 0.931 . S
C406 C405 1.385 . S
C406 C407 1.389 . S
C407 C406 1.389 . S
C407 C408 1.387 1_556 S
C408 H393 0.930 . S
C408 C403 1.390 . S
C408 C407 1.387 1_554 S
H409 C421 0.930 . S
H410 C423 0.930 . S
H411 C424 0.930 . S
H412 C428 0.959 . S
H413 C428 0.959 . S
H414 C428 0.961 . S
H415 C429 0.960 . S
H416 C429 0.961 . S
H417 C429 0.959 . S
H418 C432 0.929 . S
H419 C433 0.931 . S
H420 C435 0.930 . S
C421 H409 0.930 . S
C421 C422 1.399 . S
C421 C426 1.399 . S
C422 C421 1.399 . S
C422 C423 1.376 . S
C423 H410 0.930 . S
C423 C422 1.376 . S
C423 C424 1.388 . S
C424 H411 0.930 . S
C424 C423 1.388 . S
C424 C425 1.390 . S
C425 C424 1.390 . S
C425 C426 1.394 . S
C425 C431 1.465 . S
C426 C421 1.399 . S
C426 C425 1.394 . S
C426 C427 1.516 . S
C427 C426 1.516 . S
C427 C428 1.502 . S
C427 C429 1.561 . S
C427 C430 1.526 . S
C428 H412 0.959 . S
C428 H413 0.959 . S
C428 H414 0.961 . S
C428 C427 1.502 . S
C429 H415 0.960 . S
C429 H416 0.961 . S
C429 H417 0.959 . S
C429 C427 1.561 . S
C430 C427 1.526 . S
C430 C431 1.396 . S
C430 C435 1.390 . S
C431 C425 1.465 . S
C431 C430 1.396 . S
C431 C432 1.399 . S
C432 H418 0.929 . S
C432 C431 1.399 . S
C432 C433 1.385 . S
C433 H419 0.931 . S
C433 C432 1.385 . S
C433 C434 1.389 . S
C434 C433 1.389 . S
C434 C435 1.387 . S
C435 H420 0.930 . S
C435 C430 1.390 . S
C435 C434 1.387 . S
H436 C448 0.930 . S
H437 C450 0.930 . S
H438 C451 0.930 . S
H439 C455 0.959 . S
H440 C455 0.959 1_554 S
H441 C455 0.961 1_554 S
H442 C456 0.960 . S
H443 C456 0.961 . S
H444 C456 0.959 . S
H445 C459 0.929 . S
H446 C460 0.931 . S
H447 C462 0.930 . S
C448 H436 0.930 . S
C448 C449 1.399 . S
C448 C453 1.399 . S
C449 C448 1.399 . S
C449 C450 1.376 . S
C450 H437 0.930 . S
C450 C449 1.376 . S
C450 C451 1.388 . S
C451 H438 0.930 . S
C451 C450 1.388 . S
C451 C452 1.390 . S
C452 C451 1.390 . S
C452 C453 1.394 . S
C452 C458 1.465 . S
C453 C448 1.399 . S
C453 C452 1.394 . S
C453 C454 1.516 . S
C454 C453 1.516 . S
C454 C455 1.502 . S
C454 C456 1.561 . S
C454 C457 1.526 . S
C455 H439 0.959 . S
C455 H440 0.959 1_556 S
C455 H441 0.961 1_556 S
C455 C454 1.502 . S
C456 H442 0.960 . S
C456 H443 0.961 . S
C456 H444 0.959 . S
C456 C454 1.561 . S
C457 C454 1.526 . S
C457 C458 1.396 . S
C457 C462 1.390 . S
C458 C452 1.465 . S
C458 C457 1.396 . S
C458 C459 1.399 . S
C459 H445 0.929 . S
C459 C458 1.399 . S
C459 C460 1.385 . S
C460 H446 0.931 . S
C460 C459 1.385 . S
C460 C461 1.389 . S
C461 C460 1.389 . S
C461 C462 1.387 . S
C462 H447 0.930 . S
C462 C457 1.390 . S
C462 C461 1.387 . S
H463 C475 0.930 . S
H464 C477 0.930 . S
H465 C478 0.930 . S
H466 C482 0.959 . S
H467 C482 0.959 . S
H468 C482 0.961 . S
H469 C483 0.960 . S
H470 C483 0.961 . S
H471 C483 0.959 . S
H472 C486 0.929 . S
H473 C487 0.931 . S
H474 C489 0.930 . S
C475 H463 0.930 . S
C475 C476 1.399 . S
C475 C480 1.399 . S
C476 C475 1.399 . S
C476 C477 1.376 1_556 S
C477 H464 0.930 . S
C477 C476 1.376 1_554 S
C477 C478 1.388 . S
C478 H465 0.930 . S
C478 C477 1.388 . S
C478 C479 1.390 . S
C479 C478 1.390 . S
C479 C480 1.394 1_554 S
C479 C485 1.465 . S
C480 C475 1.399 . S
C480 C479 1.394 1_556 S
C480 C481 1.516 . S
C481 C480 1.516 . S
C481 C482 1.502 . S
C481 C483 1.561 . S
C481 C484 1.526 . S
C482 H466 0.959 . S
C482 H467 0.959 . S
C482 H468 0.961 . S
C482 C481 1.502 . S
C483 H469 0.960 . S
C483 H470 0.961 . S
C483 H471 0.959 . S
C483 C481 1.561 . S
C484 C481 1.526 . S
C484 C485 1.396 1_556 S
C484 C489 1.390 . S
C485 C479 1.465 . S
C485 C484 1.396 1_554 S
C485 C486 1.399 . S
C486 H472 0.929 . S
C486 C485 1.399 . S
C486 C487 1.385 . S
C487 H473 0.931 . S
C487 C486 1.385 . S
C487 C488 1.389 . S
C488 C487 1.389 . S
C488 C489 1.387 1_554 S
C489 H474 0.930 . S
C489 C484 1.390 . S
C489 C488 1.387 1_556 S
H490 C502 0.930 . S
H491 C504 0.930 . S
H492 C505 0.930 . S
H493 C509 0.959 . S
H494 C509 0.959 . S
H495 C509 0.961 . S
H496 C510 0.960 . S
H497 C510 0.961 . S
H498 C510 0.959 . S
H499 C513 0.929 . S
H500 C514 0.931 . S
H501 C516 0.930 . S
C502 H490 0.930 . S
C502 C503 1.399 . S
C502 C507 1.399 . S
C503 C502 1.399 . S
C503 C504 1.376 . S
C504 H491 0.930 . S
C504 C503 1.376 . S
C504 C505 1.388 . S
C505 H492 0.930 . S
C505 C504 1.388 . S
C505 C506 1.390 . S
C506 C505 1.390 . S
C506 C507 1.394 . S
C506 C512 1.465 . S
C507 C502 1.399 . S
C507 C506 1.394 . S
C507 C508 1.516 . S
C508 C507 1.516 . S
C508 C509 1.502 . S
C508 C510 1.561 . S
C508 C511 1.526 . S
C509 H493 0.959 . S
C509 H494 0.959 . S
C509 H495 0.961 . S
C509 C508 1.502 . S
C510 H496 0.960 . S
C510 H497 0.961 . S
C510 H498 0.959 . S
C510 C508 1.561 . S
C511 C508 1.526 . S
C511 C512 1.396 . S
C511 C516 1.390 . S
C512 C506 1.465 . S
C512 C511 1.396 . S
C512 C513 1.399 . S
C513 H499 0.929 . S
C513 C512 1.399 . S
C513 C514 1.385 . S
C514 H500 0.931 . S
C514 C513 1.385 . S
C514 C515 1.389 . S
C515 C514 1.389 . S
C515 C516 1.387 . S
C516 H501 0.930 . S
C516 C511 1.390 . S
C516 C515 1.387 . S
H517 C529 0.930 . S
H518 C531 0.930 . S
H519 C532 0.930 . S
H520 C536 0.959 . S
H521 C536 0.959 . S
H522 C536 0.961 . S
H523 C537 0.960 . S
H524 C537 0.961 . S
H525 C537 0.959 . S
H526 C540 0.929 . S
H527 C541 0.931 . S
H528 C543 0.930 . S
C529 H517 0.930 . S
C529 C530 1.399 . S
C529 C534 1.399 . S
C530 C529 1.399 . S
C530 C531 1.376 . S
C531 H518 0.930 . S
C531 C530 1.376 . S
C531 C532 1.388 . S
C532 H519 0.930 . S
C532 C531 1.388 . S
C532 C533 1.390 . S
C533 C532 1.390 . S
C533 C534 1.394 . S
C533 C539 1.465 . S
C534 C529 1.399 . S
C534 C533 1.394 . S
C534 C535 1.516 . S
C535 C534 1.516 . S
C535 C536 1.502 . S
C535 C537 1.561 . S
C535 C538 1.526 . S
C536 H520 0.959 . S
C536 H521 0.959 . S
C536 H522 0.961 . S
C536 C535 1.502 . S
C537 H523 0.960 . S
C537 H524 0.961 . S
C537 H525 0.959 . S
C537 C535 1.561 . S
C538 C535 1.526 . S
C538 C539 1.396 . S
C538 C543 1.390 . S
C539 C533 1.465 . S
C539 C538 1.396 . S
C539 C540 1.399 . S
C540 H526 0.929 . S
C540 C539 1.399 . S
C540 C541 1.385 . S
C541 H527 0.931 . S
C541 C540 1.385 . S
C541 C542 1.389 . S
C542 C541 1.389 . S
C542 C543 1.387 . S
C543 H528 0.930 . S
C543 C538 1.390 . S
C543 C542 1.387 . S
C125 C14 1.435 . S
C137 C0 1.450 . S
C152 C25 1.420 . S
C164 C39 1.419 . S
C179 C42 1.435 . S
C191 C28 1.450 . S
C206 C53 1.418 . S
C218 C11 1.421 . S
C233 C56 1.442 . S
C245 C70 1.448 . S
C260 C81 1.418 . S
C272 C95 1.433 . S
C287 C84 1.450 . S
C299 C98 1.437 . S
C314 C67 1.417 . S
C326 C109 1.424 . S
C341 C5 1.454 . S
C353 C103 1.435 . S
C368 C65 1.440 . S
C380 C23 1.471 . S
C395 C75 1.452 . S
C407 C33 1.446 . S
C422 C51 1.446 . S
C434 C93 1.470 . S
C449 C37 1.471 . S
C461 C107 1.440 . S
C476 C61 1.454 . S
C488 C47 1.442 . S
C503 C79 1.443 . S
C515 C9 1.471 . S
C530 C19 1.448 . S
C542 C89 1.436 . S
