# Generated by pormake.
# Topology uoq, (4)-cn, num edge types: 1
# Building blocks:
#     Node 0, Type 0, BuildingBlock: CEKHIL_clean_sbu_0, # of connection points: 4
#     Node 1, Type 0, BuildingBlock: CEKHIL_clean_sbu_0, # of connection points: 4
#     Node 2, Type 0, BuildingBlock: CEKHIL_clean_sbu_0, # of connection points: 4
#     Node 3, Type 0, BuildingBlock: CEKHIL_clean_sbu_0, # of connection points: 4
#     Node 4, Type 0, BuildingBlock: CEKHIL_clean_sbu_0, # of connection points: 4
#     Node 5, Type 0, BuildingBlock: CEKHIL_clean_sbu_0, # of connection points: 4
#     Node 6, Type 0, BuildingBlock: CEKHIL_clean_sbu_0, # of connection points: 4
#     Node 7, Type 0, BuildingBlock: CEKHIL_clean_sbu_0, # of connection points: 4
#     Node 8, Type 0, BuildingBlock: CEKHIL_clean_sbu_0, # of connection points: 4
#     Node 9, Type 0, BuildingBlock: CEKHIL_clean_sbu_0, # of connection points: 4
#     Node 10, Type 0, BuildingBlock: CEKHIL_clean_sbu_0, # of connection points: 4
#     Node 11, Type 0, BuildingBlock: CEKHIL_clean_sbu_0, # of connection points: 4
#     Edge 12, Type (0, 0), BuildingBlock: OJICUG_clean_linker_0, # of connection points: 2
#     Edge 13, Type (0, 0), BuildingBlock: OJICUG_clean_linker_0, # of connection points: 2
#     Edge 14, Type (0, 0), BuildingBlock: OJICUG_clean_linker_0, # of connection points: 2
#     Edge 15, Type (0, 0), BuildingBlock: OJICUG_clean_linker_0, # of connection points: 2
#     Edge 16, Type (0, 0), BuildingBlock: OJICUG_clean_linker_0, # of connection points: 2
#     Edge 17, Type (0, 0), BuildingBlock: OJICUG_clean_linker_0, # of connection points: 2
#     Edge 18, Type (0, 0), BuildingBlock: OJICUG_clean_linker_0, # of connection points: 2
#     Edge 19, Type (0, 0), BuildingBlock: OJICUG_clean_linker_0, # of connection points: 2
#     Edge 20, Type (0, 0), BuildingBlock: OJICUG_clean_linker_0, # of connection points: 2
#     Edge 21, Type (0, 0), BuildingBlock: OJICUG_clean_linker_0, # of connection points: 2
#     Edge 22, Type (0, 0), BuildingBlock: OJICUG_clean_linker_0, # of connection points: 2
#     Edge 23, Type (0, 0), BuildingBlock: OJICUG_clean_linker_0, # of connection points: 2
#     Edge 24, Type (0, 0), BuildingBlock: OJICUG_clean_linker_0, # of connection points: 2
#     Edge 25, Type (0, 0), BuildingBlock: OJICUG_clean_linker_0, # of connection points: 2
#     Edge 26, Type (0, 0), BuildingBlock: OJICUG_clean_linker_0, # of connection points: 2
#     Edge 27, Type (0, 0), BuildingBlock: OJICUG_clean_linker_0, # of connection points: 2
#     Edge 28, Type (0, 0), BuildingBlock: OJICUG_clean_linker_0, # of connection points: 2
#     Edge 29, Type (0, 0), BuildingBlock: OJICUG_clean_linker_0, # of connection points: 2
#     Edge 30, Type (0, 0), BuildingBlock: OJICUG_clean_linker_0, # of connection points: 2
#     Edge 31, Type (0, 0), BuildingBlock: OJICUG_clean_linker_0, # of connection points: 2
#     Edge 32, Type (0, 0), BuildingBlock: OJICUG_clean_linker_0, # of connection points: 2
#     Edge 33, Type (0, 0), BuildingBlock: OJICUG_clean_linker_0, # of connection points: 2
#     Edge 34, Type (0, 0), BuildingBlock: OJICUG_clean_linker_0, # of connection points: 2
#     Edge 35, Type (0, 0), BuildingBlock: OJICUG_clean_linker_0, # of connection points: 2
# Relax obj value: 0.168
# Max RMSD: 0.159
# Mean RMSD: 0.159
data_MOF--net-uoq--node1-CEKHIL_clean_sbu_0--edge1-OJICUG_clean_linker_0
_symmetry_space_group_name_H-M    P1
_symmetry_Int_Tables_number       1
_symmetry_cell_setting            triclinic
loop_
_symmetry_equiv_pos_as_xyz
'x, y, z'
_cell_length_a     42.61417
_cell_length_b     42.68565
_cell_length_c     15.093165
_cell_angle_alpha  89.991434
_cell_angle_beta   89.908874
_cell_angle_gamma 119.95165
loop_
_atom_site_label
_atom_site_type_symbol
_atom_site_fract_x
_atom_site_fract_y
_atom_site_fract_z
_atom_type_partial_charge
Co0 Co 0.31233 0.44204 0.29344 0.0
O1 O 0.26401 0.41346 0.2408 0.0
O2 O 0.30623 0.46603 0.18986 0.0
C3 C 0.32428 0.3962 0.31741 0.0
O4 O 0.36499 0.47954 0.32446 0.0
Co5 Co 0.33292 0.42957 0.48535 0.0
O6 O 0.38243 0.46725 0.45466 0.0
C7 C 0.2934 0.46945 0.45882 0.0
C8 C 0.27331 0.43916 0.18273 0.0
C9 C 0.38892 0.48646 0.3853 0.0
O10 O 0.29453 0.46763 0.37367 0.0
O11 O 0.30519 0.45435 0.51182 0.0
O12 O 0.32863 0.41045 0.23869 0.0
O13 O 0.31004 0.40757 0.37465 0.0
Co14 Co 0.87696 0.3113 0.61636 0.0
O15 O 0.85868 0.26412 0.55924 0.0
O16 O 0.84569 0.30544 0.51537 0.0
C17 C 0.93533 0.32475 0.63499 0.0
O18 O 0.89048 0.3628 0.65377 0.0
Co19 Co 0.91151 0.3294 0.8073 0.0
O20 O 0.91923 0.37828 0.78548 0.0
C21 C 0.83175 0.28922 0.7837 0.0
C22 C 0.84097 0.27313 0.50454 0.0
C23 C 0.90636 0.38552 0.71751 0.0
O24 O 0.83406 0.29108 0.69852 0.0
O25 O 0.85905 0.30088 0.83539 0.0
O26 O 0.92479 0.33062 0.55881 0.0
O27 O 0.9103 0.30875 0.69291 0.0
Co28 Co 0.56955 0.87521 0.94741 0.0
O29 O 0.59855 0.85657 0.89127 0.0
O30 O 0.54399 0.84305 0.84815 0.0
C31 C 0.61462 0.93379 0.96282 0.0
O32 O 0.53105 0.88825 0.98308 0.0
Co33 Co 0.58555 0.91277 0.13455 0.0
O34 O 0.54677 0.92347 0.10479 0.0
C35 C 0.54582 0.83254 0.11811 0.0
C36 C 0.5717 0.83848 0.83719 0.0
C37 C 0.52555 0.90744 1.04032 0.0
O38 O 0.5472 0.83345 1.03269 0.0
O39 O 0.56081 0.86068 0.16727 0.0
O40 O 0.59788 0.9225 0.88728 0.0
O41 O 0.60544 0.90945 1.02251 0.0
Co42 Co 0.69898 0.56418 0.2928 0.0
O43 O 0.74746 0.59231 0.24008 0.0
O44 O 0.70488 0.54003 0.18914 0.0
C45 C 0.68778 0.61055 0.31636 0.0
O46 O 0.6461 0.52719 0.32357 0.0
Co47 Co 0.67816 0.57708 0.48425 0.0
O48 O 0.62854 0.53982 0.45328 0.0
C49 C 0.71582 0.53523 0.45882 0.0
C50 C 0.7379 0.56673 0.18168 0.0
C51 C 0.62206 0.52054 0.38412 0.0
O52 O 0.71583 0.53785 0.37359 0.0
O53 O 0.70404 0.55051 0.51138 0.0
O54 O 0.68342 0.59629 0.23773 0.0
O55 O 0.70161 0.59887 0.37377 0.0
Co56 Co 0.13869 0.69758 0.62865 0.0
O57 O 0.15834 0.74584 0.57574 0.0
O58 O 0.16853 0.70357 0.52439 0.0
C59 C 0.08092 0.68575 0.65402 0.0
O60 O 0.12353 0.64494 0.65975 0.0
Co61 Co 0.10625 0.67734 0.82139 0.0
O62 O 0.09336 0.6277 0.78959 0.0
C63 C 0.18556 0.71641 0.79298 0.0
C64 C 0.17459 0.73648 0.51726 0.0
C65 C 0.10611 0.62104 0.72044 0.0
O66 O 0.18233 0.71527 0.70789 0.0
O67 O 0.15884 0.70473 0.84667 0.0
O68 O 0.09065 0.68142 0.57503 0.0
O69 O 0.1067 0.7 0.71063 0.0
Co70 Co 0.4437 0.13217 0.94722 0.0
O71 O 0.41444 0.15055 0.89146 0.0
O72 O 0.46892 0.16409 0.84709 0.0
C73 C 0.39878 0.07356 0.9643 0.0
O74 O 0.48242 0.11939 0.98208 0.0
Co75 Co 0.42842 0.09514 0.13511 0.0
O76 O 0.46733 0.08467 0.10477 0.0
C77 C 0.46772 0.17531 0.11695 0.0
C78 C 0.44114 0.16857 0.83667 0.0
C79 C 0.48824 0.10049 1.03949 0.0
O80 O 0.46617 0.17417 1.03156 0.0
O81 O 0.45296 0.1473 0.16671 0.0
O82 O 0.41527 0.08468 0.88825 0.0
O83 O 0.4081 0.09806 1.02352 0.0
Co84 Co 0.56824 0.69848 0.46038 0.0
O85 O 0.59701 0.74663 0.5135 0.0
O86 O 0.54432 0.70452 0.56441 0.0
C87 C 0.61388 0.68623 0.43559 0.0
O88 O 0.53059 0.64597 0.42886 0.0
Co89 Co 0.58057 0.67841 0.26768 0.0
O90 O 0.54304 0.62888 0.29823 0.0
C91 C 0.54076 0.71789 0.29594 0.0
C92 C 0.57131 0.73734 0.57174 0.0
C93 C 0.52378 0.6222 0.3677 0.0
O94 O 0.54265 0.71654 0.381 0.0
O95 O 0.55579 0.70621 0.24228 0.0
O96 O 0.5997 0.68194 0.51444 0.0
O97 O 0.60268 0.70075 0.37875 0.0
Co98 Co 0.87389 0.56466 0.79942 0.0
O99 O 0.85359 0.59272 0.85262 0.0
O100 O 0.84393 0.54038 0.90324 0.0
C101 C 0.93149 0.61105 0.77536 0.0
O102 O 0.8897 0.52767 0.7681 0.0
Co103 Co 0.90735 0.57788 0.60754 0.0
O104 O 0.92017 0.54095 0.63866 0.0
C105 C 0.82788 0.53572 0.63381 0.0
C106 C 0.83759 0.56705 0.91095 0.0
C107 C 0.90726 0.52135 0.70742 0.0
O108 O 0.83059 0.53839 0.71901 0.0
O109 O 0.85486 0.55106 0.58095 0.0
O110 O 0.92166 0.5967 0.85402 0.0
O111 O 0.90587 0.59947 0.71832 0.0
Co112 Co 0.31406 0.87396 0.13997 0.0
O113 O 0.26646 0.85532 0.1964 0.0
O114 O 0.30763 0.84203 0.23986 0.0
C115 C 0.32744 0.93248 0.12349 0.0
O116 O 0.36563 0.88714 0.10414 0.0
Co117 Co 0.33535 0.91114 0.95224 0.0
O118 O 0.38501 0.9226 0.98265 0.0
C119 C 0.29517 0.83095 0.97002 0.0
C120 C 0.27531 0.83739 0.25084 0.0
C121 C 0.39033 0.9066 0.04704 0.0
O122 O 0.29468 0.83202 0.05543 0.0
O123 O 0.30825 0.85898 0.92039 0.0
O124 O 0.33299 0.92137 0.19923 0.0
O125 O 0.3122 0.90799 0.06429 0.0
Co126 Co 0.44362 0.30816 0.45983 0.0
O127 O 0.41512 0.25993 0.51304 0.0
O128 O 0.46774 0.30221 0.56336 0.0
C129 C 0.39775 0.32011 0.43603 0.0
O130 O 0.48096 0.36078 0.42816 0.0
Co131 Co 0.43091 0.32826 0.26759 0.0
O132 O 0.46817 0.37788 0.29807 0.0
C133 C 0.47124 0.28926 0.29456 0.0
C134 C 0.44087 0.26932 0.57094 0.0
C135 C 0.48751 0.3846 0.36722 0.0
O136 O 0.46937 0.29045 0.37969 0.0
O137 O 0.45602 0.30085 0.24136 0.0
O138 O 0.41199 0.32439 0.51468 0.0
O139 O 0.409 0.30573 0.37887 0.0
Co140 Co 0.13509 0.44048 0.80741 0.0
O141 O 0.15416 0.41199 0.86366 0.0
O142 O 0.16711 0.4663 0.90687 0.0
C143 C 0.07666 0.39535 0.79208 0.0
O144 O 0.12098 0.47814 0.77119 0.0
Co145 Co 0.09846 0.42318 0.61877 0.0
O146 O 0.09161 0.46496 0.64036 0.0
C147 C 0.17849 0.4639 0.63699 0.0
C148 C 0.172 0.43881 0.91784 0.0
C149 C 0.10492 0.4851 0.70805 0.0
O150 O 0.17715 0.46317 0.72242 0.0
O151 O 0.15063 0.44799 0.58717 0.0
O152 O 0.08785 0.41205 0.86767 0.0
O153 O 0.10114 0.40427 0.73269 0.0
Co154 Co 0.69983 0.13387 0.13426 0.0
O155 O 0.74747 0.15244 0.18974 0.0
O156 O 0.70661 0.16624 0.23322 0.0
C157 C 0.68602 0.07521 0.11901 0.0
O158 O 0.64831 0.12093 0.09905 0.0
Co159 Co 0.67819 0.09632 0.94724 0.0
O160 O 0.62866 0.08526 0.97815 0.0
C161 C 0.71966 0.17648 0.96356 0.0
C162 C 0.73892 0.17082 0.24356 0.0
C163 C 0.62352 0.10145 1.04242 0.0
O164 O 0.71951 0.17553 0.04895 0.0
O165 O 0.70649 0.14835 0.91434 0.0
O166 O 0.68067 0.08662 0.19461 0.0
O167 O 0.70131 0.09951 0.05921 0.0
C168 C 0.34417 0.36936 0.4381 0.0
C169 C 0.34092 0.37451 0.34677 0.0
H170 H 0.36535 0.34917 0.53813 0.0
C171 C 0.3544 0.35948 0.2857 0.0
H172 H 0.33321 0.37952 0.48761 0.0
C173 C 0.37137 0.34052 0.31524 0.0
C174 C 0.37659 0.33732 0.40655 0.0
H175 H 0.35183 0.36234 0.21518 0.0
H176 H 0.3809 0.32893 0.26579 0.0
C177 C 0.36239 0.35163 0.46761 0.0
C178 C 0.98923 0.32338 0.69254 0.0
C179 C 0.97316 0.34364 0.66583 0.0
H180 H 0.03496 0.32411 0.75457 0.0
C181 C 0.98986 0.38034 0.68915 0.0
H182 H 0.97621 0.29474 0.67795 0.0
C183 C 0.02206 0.39646 0.73829 0.0
C184 C 0.03856 0.37639 0.76319 0.0
H185 H 0.97751 0.39632 0.6715 0.0
H186 H 0.03463 0.42491 0.75445 0.0
C187 C 0.02213 0.33984 0.73871 0.0
C188 C 0.67047 0.98811 1.01644 0.0
C189 C 0.63392 0.97194 0.99153 0.0
H190 H 0.71583 0.03393 0.0769 0.0
C191 C 0.61404 0.98863 1.01673 0.0
H192 H 0.68612 0.97519 1.00038 0.0
C193 C 0.63011 0.02032 0.06767 0.0
C194 C 0.66692 0.03706 0.09033 0.0
H195 H 0.58574 0.97662 0.99935 0.0
H196 H 0.61399 0.03234 0.08683 0.0
C197 C 0.6871 0.02096 0.06284 0.0
C198 C 0.66838 0.63792 0.43699 0.0
C199 C 0.67118 0.63232 0.34569 0.0
H200 H 0.64738 0.65829 0.53722 0.0
C201 C 0.65708 0.64673 0.28472 0.0
H202 H 0.67985 0.62827 0.48636 0.0
C203 C 0.6399 0.6655 0.31437 0.0
C204 C 0.63511 0.66912 0.40576 0.0
H205 H 0.65925 0.64349 0.2142 0.0
H206 H 0.62985 0.67658 0.26497 0.0
C207 C 0.64997 0.65545 0.46667 0.0
C208 C 0.97809 0.63825 0.65405 0.0
C209 C 0.96983 0.63263 0.74547 0.0
H210 H 0.01927 0.65833 0.55323 0.0
C211 C 0.99847 0.64682 0.80601 0.0
H212 H 0.95689 0.62882 0.60499 0.0
C213 C 0.03438 0.66535 0.77584 0.0
C214 C 0.04262 0.66892 0.68433 0.0
H215 H 0.99318 0.64358 0.87661 0.0
H216 H 0.05559 0.67628 0.82497 0.0
C217 C 0.01398 0.6555 0.62384 0.0
C218 C 0.38336 0.98741 0.07161 0.0
C219 C 0.34646 0.97055 0.09384 0.0
H220 H 0.42781 0.03104 1.00293 0.0
C221 C 0.32622 0.98643 0.06524 0.0
H222 H 0.39952 0.97556 0.09156 0.0
C223 C 0.34287 0.01918 1.0182 0.0
C224 C 0.37953 0.03546 0.99376 0.0
H225 H 0.29745 0.97337 0.07896 0.0
H226 H 0.32717 0.03193 1.00129 0.0
C227 C 0.39946 0.01898 1.02005 0.0
C228 C 0.19347 0.40605 1.02051 0.0
C229 C 0.19761 0.43865 0.98628 0.0
H230 H 0.21326 0.38052 0.11012 0.0
C231 C 0.22703 0.47126 1.01713 0.0
H232 H 0.17121 0.38039 0.99853 0.0
C233 C 0.25178 0.47129 0.07913 0.0
C234 C 0.24736 0.43875 0.11443 0.0
H235 H 0.23133 0.4969 0.99216 0.0
H236 H 0.27415 0.49697 0.10057 0.0
C237 C 0.21762 0.40611 0.08466 0.0
C238 C 0.81872 0.21788 0.40547 0.0
C239 C 0.81535 0.24724 0.43644 0.0
H240 H 0.79805 0.17142 0.31973 0.0
C241 C 0.78648 0.25098 0.4034 0.0
H242 H 0.84051 0.21401 0.42928 0.0
C243 C 0.7615 0.22592 0.34245 0.0
C244 C 0.7651 0.19682 0.31063 0.0
H245 H 0.78277 0.27301 0.42589 0.0
H246 H 0.73956 0.22968 0.31924 0.0
C247 C 0.79431 0.19339 0.34253 0.0
C248 C 0.53928 0.78346 0.73817 0.0
C249 C 0.57196 0.81287 0.76887 0.0
H250 H 0.51349 0.73643 0.65465 0.0
C251 C 0.6046 0.81704 0.73434 0.0
H252 H 0.5136 0.77914 0.76332 0.0
C253 C 0.6045 0.79294 0.67 0.0
C254 C 0.5718 0.76322 0.64036 0.0
H255 H 0.6303 0.8393 0.75617 0.0
H256 H 0.63013 0.79732 0.64426 0.0
C257 C 0.53923 0.75877 0.676 0.0
C258 C 0.7595 0.53464 0.07804 0.0
C259 C 0.76353 0.56719 0.1121 0.0
H260 H 0.7799 0.50907 0.99066 0.0
C261 C 0.79242 0.59987 0.07939 0.0
H262 H 0.73777 0.50893 0.10167 0.0
C263 C 0.81609 0.59995 1.01353 0.0
C264 C 0.81237 0.56734 0.98061 0.0
H265 H 0.79643 0.62547 0.10378 0.0
H266 H 0.83769 0.62561 0.98929 0.0
C267 C 0.78384 0.53472 1.01447 0.0
C268 C 0.1971 0.79209 0.41871 0.0
C269 C 0.20003 0.76234 0.44855 0.0
H270 H 0.21769 0.8384 0.33212 0.0
C271 C 0.22812 0.75784 0.41292 0.0
H272 H 0.1759 0.79652 0.44445 0.0
C273 C 0.25275 0.78247 0.35052 0.0
C274 C 0.24952 0.81188 0.31955 0.0
H275 H 0.23147 0.73547 0.43443 0.0
H276 H 0.27407 0.7781 0.32535 0.0
C277 C 0.2211 0.81613 0.35413 0.0
C278 C 0.47329 0.22346 0.73684 0.0
C279 C 0.4407 0.19405 0.76822 0.0
H280 H 0.49888 0.27041 0.65274 0.0
C281 C 0.40797 0.18976 0.73426 0.0
H282 H 0.49903 0.22786 0.76154 0.0
C283 C 0.40792 0.21377 0.66983 0.0
C284 C 0.44055 0.24351 0.63953 0.0
H285 H 0.38233 0.1675 0.75662 0.0
H286 H 0.38224 0.20931 0.64455 0.0
C287 C 0.4732 0.24805 0.67459 0.0
C288 C 0.21504 0.48251 0.4986 0.0
C289 C 0.21373 0.4801 0.59183 0.0
H290 H 0.24259 0.48158 0.38125 0.0
C291 C 0.24487 0.48693 0.63845 0.0
H292 H 0.1919 0.47896 0.46078 0.0
C293 C 0.2743 0.48933 0.59247 0.0
C294 C 0.2724 0.48428 0.49996 0.0
H295 H 0.24511 0.48648 0.71022 0.0
H296 H 0.29656 0.49075 0.6303 0.0
C297 C 0.24427 0.48444 0.4527 0.0
C298 C 0.76723 0.24101 0.77879 0.0
C299 C 0.79616 0.2684 0.82596 0.0
H300 H 0.71884 0.18993 0.78705 0.0
C301 C 0.79333 0.27051 0.91847 0.0
H302 H 0.76824 0.23928 0.7073 0.0
C303 C 0.7654 0.24198 0.96447 0.0
C304 C 0.74 0.2114 0.91796 0.0
H305 H 0.81473 0.29226 0.95618 0.0
H306 H 0.76607 0.24231 1.03624 0.0
C307 C 0.73911 0.21262 0.82475 0.0
C308 C 0.52838 0.7966 0.25747 0.0
C309 C 0.53003 0.79757 0.16414 0.0
H310 H 0.52989 0.7693 0.37452 0.0
C311 C 0.52255 0.76622 0.11768 0.0
H312 H 0.53245 0.8199 0.29532 0.0
C313 C 0.5202 0.73686 0.16353 0.0
C314 C 0.52592 0.73901 0.25575 0.0
H315 H 0.52234 0.76567 0.0459 0.0
H316 H 0.51825 0.7144 0.12564 0.0
C317 C 0.52647 0.76742 0.30323 0.0
C318 C 0.73353 0.51476 0.59403 0.0
C319 C 0.73509 0.51869 0.50108 0.0
H320 H 0.76271 0.51712 0.71112 0.0
C321 C 0.76126 0.51498 0.45359 0.0
H322 H 0.71256 0.51584 0.63232 0.0
C323 C 0.78953 0.51479 0.49904 0.0
C324 C 0.79202 0.51898 0.5919 0.0
H325 H 0.76245 0.51666 0.38191 0.0
H326 H 0.81158 0.51589 0.46071 0.0
C327 C 0.76214 0.51524 0.63948 0.0
C328 C 0.24956 0.76561 0.7856 0.0
C329 C 0.22153 0.73735 0.83323 0.0
H330 H 0.29624 0.81799 0.79314 0.0
C331 C 0.22498 0.73528 0.92554 0.0
H332 H 0.24812 0.7674 0.71431 0.0
C333 C 0.25202 0.76463 0.97125 0.0
C334 C 0.27605 0.79589 0.92449 0.0
H335 H 0.20433 0.7129 0.96361 0.0
H336 H 0.25156 0.76418 1.04296 0.0
C337 C 0.27687 0.79477 0.83122 0.0
C338 C 0.48991 0.24142 0.11558 0.0
C339 C 0.48329 0.21038 0.16231 0.0
H340 H 0.49306 0.29273 0.12334 0.0
C341 C 0.48535 0.21158 0.25557 0.0
H342 H 0.48977 0.2418 1.04379 0.0
C343 C 0.48675 0.24054 0.30126 0.0
C344 C 0.48641 0.26852 0.25375 0.0
H345 H 0.48195 0.18855 0.29356 0.0
H346 H 0.48366 0.23877 0.37267 0.0
C347 C 0.49177 0.27058 0.16133 0.0
C348 C 0.4399 0.53563 0.29808 0.0
C349 C 0.42448 0.52006 0.37999 0.0
H350 H 0.48382 0.57978 0.23029 0.0
C351 C 0.44259 0.53781 0.45837 0.0
H352 H 0.42657 0.52263 0.23679 0.0
C353 C 0.47496 0.57092 0.45491 0.0
C354 C 0.49038 0.58648 0.37299 0.0
H355 H 0.43117 0.52664 0.52269 0.0
H356 H 0.48788 0.58432 0.51621 0.0
C357 C 0.47275 0.56827 0.29462 0.0
C358 C 0.90795 0.47108 0.79249 0.0
C359 C 0.90929 0.48775 0.71141 0.0
H360 H 0.90669 0.42593 0.8578 0.0
C361 C 0.91061 0.47096 0.6322 0.0
H362 H 0.90682 0.48332 0.85441 0.0
C363 C 0.90969 0.43777 0.63389 0.0
C364 C 0.90834 0.4211 0.71488 0.0
H365 H 0.91128 0.48293 0.56845 0.0
H366 H 0.91009 0.42521 0.57186 0.0
C367 C 0.90797 0.43831 0.79424 0.0
C368 C 0.45838 0.87488 1.04176 0.0
C369 C 0.49123 0.90771 1.03804 0.0
H370 H 0.40052 0.84904 0.05139 0.0
C371 C 0.49091 0.94043 1.04052 0.0
H372 H 0.45816 0.84937 1.04143 0.0
C373 C 0.45798 0.94023 0.04418 0.0
C374 C 0.42516 0.90734 0.0495 0.0
H375 H 0.51606 0.96604 1.03876 0.0
H376 H 0.45811 0.96569 1.04368 0.0
C377 C 0.4256 0.8747 0.04881 0.0
C378 C 0.5712 0.47137 0.29714 0.0
C379 C 0.58643 0.48703 0.37898 0.0
H380 H 0.52753 0.42704 0.22958 0.0
C381 C 0.56819 0.46932 0.45744 0.0
H382 H 0.58465 0.48434 0.23578 0.0
C383 C 0.53592 0.43612 0.45415 0.0
C384 C 0.52073 0.42044 0.37231 0.0
H385 H 0.57947 0.48057 0.52171 0.0
H386 H 0.52292 0.42273 0.51551 0.0
C387 C 0.53844 0.43865 0.29384 0.0
C388 C 0.1025 0.56703 0.79469 0.0
C389 C 0.10379 0.5853 0.71577 0.0
H390 H 0.1024 0.52138 0.85424 0.0
C391 C 0.10444 0.56981 0.63437 0.0
H392 H 0.10233 0.57845 0.85867 0.0
C393 C 0.10374 0.53667 0.63205 0.0
C394 C 0.10338 0.51893 0.71113 0.0
H395 H 0.10549 0.58326 0.57266 0.0
H396 H 0.10451 0.52543 0.56828 0.0
C397 C 0.10274 0.53444 0.79241 0.0
C398 C 0.58823 0.13334 0.04527 0.0
C399 C 0.5887 0.10072 0.04562 0.0
H400 H 0.55561 0.15862 1.03915 0.0
C401 C 0.55588 0.0678 1.04094 0.0
H402 H 0.61331 0.15901 0.0474 0.0
C403 C 0.52293 0.06757 1.03826 0.0
C404 C 0.52258 0.10028 1.03616 0.0
H405 H 0.55577 0.04236 1.04022 0.0
H406 H 0.49779 0.04195 1.03701 0.0
C407 C 0.55541 0.13313 1.03921 0.0
loop_
_geom_bond_atom_site_label_1
_geom_bond_atom_site_label_2
_geom_bond_distance
_geom_bond_site_symmetry_2
_ccdc_geom_bond_type
Co0 O1 2.216 . S
Co0 O2 2.091 . S
Co0 O4 2.004 . S
Co0 O10 2.021 . S
Co0 O12 2.137 . S
Co0 O13 2.244 . S
O1 Co0 2.216 . S
O1 C8 1.247 . S
O2 Co0 2.091 . S
O2 C8 1.261 . S
C3 O12 1.247 . S
C3 O13 1.272 . S
O4 Co0 2.004 . S
O4 C9 1.259 . S
Co5 O6 2.061 . S
Co5 O11 2.052 . S
Co5 O13 2.135 . S
O6 Co5 2.061 . S
O6 C9 1.235 . S
C7 O10 1.238 . S
C7 O11 1.241 . S
C8 O1 1.247 . S
C8 O2 1.261 . S
C9 O4 1.259 . S
C9 O6 1.235 . S
O10 Co0 2.021 . S
O10 C7 1.238 . S
O11 Co5 2.052 . S
O11 C7 1.241 . S
O12 Co0 2.137 . S
O12 C3 1.247 . S
O13 Co0 2.244 . S
O13 C3 1.272 . S
O13 Co5 2.135 . S
Co14 O15 2.216 . S
Co14 O16 2.091 . S
Co14 O18 2.004 . S
Co14 O24 2.021 . S
Co14 O26 2.137 . S
Co14 O27 2.244 . S
O15 Co14 2.216 . S
O15 C22 1.247 . S
O16 Co14 2.091 . S
O16 C22 1.261 . S
C17 O26 1.247 . S
C17 O27 1.272 . S
O18 Co14 2.004 . S
O18 C23 1.259 . S
Co19 O20 2.061 . S
Co19 O25 2.052 . S
Co19 O27 2.135 . S
O20 Co19 2.061 . S
O20 C23 1.235 . S
C21 O24 1.238 . S
C21 O25 1.241 . S
C22 O15 1.247 . S
C22 O16 1.261 . S
C23 O18 1.259 . S
C23 O20 1.235 . S
O24 Co14 2.021 . S
O24 C21 1.238 . S
O25 Co19 2.052 . S
O25 C21 1.241 . S
O26 Co14 2.137 . S
O26 C17 1.247 . S
O27 Co14 2.244 . S
O27 C17 1.272 . S
O27 Co19 2.135 . S
Co28 O29 2.216 . S
Co28 O30 2.091 . S
Co28 O32 2.004 . S
Co28 O38 2.021 . S
Co28 O40 2.137 . S
Co28 O41 2.244 . S
O29 Co28 2.216 . S
O29 C36 1.247 . S
O30 Co28 2.091 . S
O30 C36 1.261 . S
C31 O40 1.247 . S
C31 O41 1.272 . S
O32 Co28 2.004 . S
O32 C37 1.259 1_556 S
Co33 O34 2.061 . S
Co33 O39 2.052 . S
Co33 O41 2.135 1_554 S
O34 Co33 2.061 . S
O34 C37 1.235 . S
C35 O38 1.238 1_554 S
C35 O39 1.241 . S
C36 O29 1.247 . S
C36 O30 1.261 . S
C37 O32 1.259 1_554 S
C37 O34 1.235 . S
O38 Co28 2.021 . S
O38 C35 1.238 1_556 S
O39 Co33 2.052 . S
O39 C35 1.241 . S
O40 Co28 2.137 . S
O40 C31 1.247 . S
O41 Co28 2.244 . S
O41 C31 1.272 . S
O41 Co33 2.135 1_556 S
Co42 O43 2.216 . S
Co42 O44 2.091 . S
Co42 O46 2.004 . S
Co42 O52 2.021 . S
Co42 O54 2.137 . S
Co42 O55 2.244 . S
O43 Co42 2.216 . S
O43 C50 1.247 . S
O44 Co42 2.091 . S
O44 C50 1.261 . S
C45 O54 1.247 . S
C45 O55 1.272 . S
O46 Co42 2.004 . S
O46 C51 1.259 . S
Co47 O48 2.061 . S
Co47 O53 2.052 . S
Co47 O55 2.135 . S
O48 Co47 2.061 . S
O48 C51 1.235 . S
C49 O52 1.238 . S
C49 O53 1.241 . S
C50 O43 1.247 . S
C50 O44 1.261 . S
C51 O46 1.259 . S
C51 O48 1.235 . S
O52 Co42 2.021 . S
O52 C49 1.238 . S
O53 Co47 2.052 . S
O53 C49 1.241 . S
O54 Co42 2.137 . S
O54 C45 1.247 . S
O55 Co42 2.244 . S
O55 C45 1.272 . S
O55 Co47 2.135 . S
Co56 O57 2.216 . S
Co56 O58 2.091 . S
Co56 O60 2.004 . S
Co56 O66 2.021 . S
Co56 O68 2.137 . S
Co56 O69 2.244 . S
O57 Co56 2.216 . S
O57 C64 1.247 . S
O58 Co56 2.091 . S
O58 C64 1.261 . S
C59 O68 1.247 . S
C59 O69 1.272 . S
O60 Co56 2.004 . S
O60 C65 1.259 . S
Co61 O62 2.061 . S
Co61 O67 2.052 . S
Co61 O69 2.135 . S
O62 Co61 2.061 . S
O62 C65 1.235 . S
C63 O66 1.238 . S
C63 O67 1.241 . S
C64 O57 1.247 . S
C64 O58 1.261 . S
C65 O60 1.259 . S
C65 O62 1.235 . S
O66 Co56 2.021 . S
O66 C63 1.238 . S
O67 Co61 2.052 . S
O67 C63 1.241 . S
O68 Co56 2.137 . S
O68 C59 1.247 . S
O69 Co56 2.244 . S
O69 C59 1.272 . S
O69 Co61 2.135 . S
Co70 O71 2.216 . S
Co70 O72 2.091 . S
Co70 O74 2.004 . S
Co70 O80 2.021 . S
Co70 O82 2.137 . S
Co70 O83 2.244 . S
O71 Co70 2.216 . S
O71 C78 1.247 . S
O72 Co70 2.091 . S
O72 C78 1.261 . S
C73 O82 1.247 . S
C73 O83 1.272 . S
O74 Co70 2.004 . S
O74 C79 1.259 1_556 S
Co75 O76 2.061 . S
Co75 O81 2.052 . S
Co75 O83 2.135 1_554 S
O76 Co75 2.061 . S
O76 C79 1.235 . S
C77 O80 1.238 1_554 S
C77 O81 1.241 . S
C78 O71 1.247 . S
C78 O72 1.261 . S
C79 O74 1.259 1_554 S
C79 O76 1.235 . S
O80 Co70 2.021 . S
O80 C77 1.238 1_556 S
O81 Co75 2.052 . S
O81 C77 1.241 . S
O82 Co70 2.137 . S
O82 C73 1.247 . S
O83 Co70 2.244 . S
O83 C73 1.272 . S
O83 Co75 2.135 1_556 S
Co84 O85 2.216 . S
Co84 O86 2.091 . S
Co84 O88 2.004 . S
Co84 O94 2.021 . S
Co84 O96 2.137 . S
Co84 O97 2.244 . S
O85 Co84 2.216 . S
O85 C92 1.247 . S
O86 Co84 2.091 . S
O86 C92 1.261 . S
C87 O96 1.247 . S
C87 O97 1.272 . S
O88 Co84 2.004 . S
O88 C93 1.259 . S
Co89 O90 2.061 . S
Co89 O95 2.052 . S
Co89 O97 2.135 . S
O90 Co89 2.061 . S
O90 C93 1.235 . S
C91 O94 1.238 . S
C91 O95 1.241 . S
C92 O85 1.247 . S
C92 O86 1.261 . S
C93 O88 1.259 . S
C93 O90 1.235 . S
O94 Co84 2.021 . S
O94 C91 1.238 . S
O95 Co89 2.052 . S
O95 C91 1.241 . S
O96 Co84 2.137 . S
O96 C87 1.247 . S
O97 Co84 2.244 . S
O97 C87 1.272 . S
O97 Co89 2.135 . S
Co98 O99 2.216 . S
Co98 O100 2.091 . S
Co98 O102 2.004 . S
Co98 O108 2.021 . S
Co98 O110 2.137 . S
Co98 O111 2.244 . S
O99 Co98 2.216 . S
O99 C106 1.247 . S
O100 Co98 2.091 . S
O100 C106 1.261 . S
C101 O110 1.247 . S
C101 O111 1.272 . S
O102 Co98 2.004 . S
O102 C107 1.259 . S
Co103 O104 2.061 . S
Co103 O109 2.052 . S
Co103 O111 2.135 . S
O104 Co103 2.061 . S
O104 C107 1.235 . S
C105 O108 1.238 . S
C105 O109 1.241 . S
C106 O99 1.247 . S
C106 O100 1.261 . S
C107 O102 1.259 . S
C107 O104 1.235 . S
O108 Co98 2.021 . S
O108 C105 1.238 . S
O109 Co103 2.052 . S
O109 C105 1.241 . S
O110 Co98 2.137 . S
O110 C101 1.247 . S
O111 Co98 2.244 . S
O111 C101 1.272 . S
O111 Co103 2.135 . S
Co112 O113 2.216 . S
Co112 O114 2.091 . S
Co112 O116 2.004 . S
Co112 O122 2.021 . S
Co112 O124 2.137 . S
Co112 O125 2.244 . S
O113 Co112 2.216 . S
O113 C120 1.247 . S
O114 Co112 2.091 . S
O114 C120 1.261 . S
C115 O124 1.247 . S
C115 O125 1.272 . S
O116 Co112 2.004 . S
O116 C121 1.259 1_554 S
Co117 O118 2.061 . S
Co117 O123 2.052 . S
Co117 O125 2.135 1_556 S
O118 Co117 2.061 . S
O118 C121 1.235 . S
C119 O122 1.238 1_556 S
C119 O123 1.241 . S
C120 O113 1.247 . S
C120 O114 1.261 . S
C121 O116 1.259 1_556 S
C121 O118 1.235 . S
O122 Co112 2.021 . S
O122 C119 1.238 1_554 S
O123 Co117 2.052 . S
O123 C119 1.241 . S
O124 Co112 2.137 . S
O124 C115 1.247 . S
O125 Co112 2.244 . S
O125 C115 1.272 . S
O125 Co117 2.135 1_554 S
Co126 O127 2.216 . S
Co126 O128 2.091 . S
Co126 O130 2.004 . S
Co126 O136 2.021 . S
Co126 O138 2.137 . S
Co126 O139 2.244 . S
O127 Co126 2.216 . S
O127 C134 1.247 . S
O128 Co126 2.091 . S
O128 C134 1.261 . S
C129 O138 1.247 . S
C129 O139 1.272 . S
O130 Co126 2.004 . S
O130 C135 1.259 . S
Co131 O132 2.061 . S
Co131 O137 2.052 . S
Co131 O139 2.135 . S
O132 Co131 2.061 . S
O132 C135 1.235 . S
C133 O136 1.238 . S
C133 O137 1.241 . S
C134 O127 1.247 . S
C134 O128 1.261 . S
C135 O130 1.259 . S
C135 O132 1.235 . S
O136 Co126 2.021 . S
O136 C133 1.238 . S
O137 Co131 2.052 . S
O137 C133 1.241 . S
O138 Co126 2.137 . S
O138 C129 1.247 . S
O139 Co126 2.244 . S
O139 C129 1.272 . S
O139 Co131 2.135 . S
Co140 O141 2.216 . S
Co140 O142 2.091 . S
Co140 O144 2.004 . S
Co140 O150 2.021 . S
Co140 O152 2.137 . S
Co140 O153 2.244 . S
O141 Co140 2.216 . S
O141 C148 1.247 . S
O142 Co140 2.091 . S
O142 C148 1.261 . S
C143 O152 1.247 . S
C143 O153 1.272 . S
O144 Co140 2.004 . S
O144 C149 1.259 . S
Co145 O146 2.061 . S
Co145 O151 2.052 . S
Co145 O153 2.135 . S
O146 Co145 2.061 . S
O146 C149 1.235 . S
C147 O150 1.238 . S
C147 O151 1.241 . S
C148 O141 1.247 . S
C148 O142 1.261 . S
C149 O144 1.259 . S
C149 O146 1.235 . S
O150 Co140 2.021 . S
O150 C147 1.238 . S
O151 Co145 2.052 . S
O151 C147 1.241 . S
O152 Co140 2.137 . S
O152 C143 1.247 . S
O153 Co140 2.244 . S
O153 C143 1.272 . S
O153 Co145 2.135 . S
Co154 O155 2.216 . S
Co154 O156 2.091 . S
Co154 O158 2.004 . S
Co154 O164 2.021 . S
Co154 O166 2.137 . S
Co154 O167 2.244 . S
O155 Co154 2.216 . S
O155 C162 1.247 . S
O156 Co154 2.091 . S
O156 C162 1.261 . S
C157 O166 1.247 . S
C157 O167 1.272 . S
O158 Co154 2.004 . S
O158 C163 1.259 1_554 S
Co159 O160 2.061 . S
Co159 O165 2.052 . S
Co159 O167 2.135 1_556 S
O160 Co159 2.061 . S
O160 C163 1.235 . S
C161 O164 1.238 1_556 S
C161 O165 1.241 . S
C162 O155 1.247 . S
C162 O156 1.261 . S
C163 O158 1.259 1_556 S
C163 O160 1.235 . S
O164 Co154 2.021 . S
O164 C161 1.238 1_554 S
O165 Co159 2.052 . S
O165 C161 1.241 . S
O166 Co154 2.137 . S
O166 C157 1.247 . S
O167 Co154 2.244 . S
O167 C157 1.272 . S
O167 Co159 2.135 1_554 S
C168 C169 1.387 . S
C168 H172 0.950 . S
C168 C177 1.390 . S
C169 C168 1.387 . S
C169 C171 1.387 . S
H170 C177 0.950 . S
C171 C169 1.387 . S
C171 C173 1.390 . S
C171 H175 0.950 . S
H172 C168 0.950 . S
C173 C171 1.390 . S
C173 C174 1.387 . S
C173 H176 0.950 . S
C174 C173 1.387 . S
C174 C177 1.387 . S
H175 C171 0.950 . S
H176 C173 0.950 . S
C177 C168 1.390 . S
C177 H170 0.950 . S
C177 C174 1.387 . S
C178 C179 1.387 . S
C178 H182 0.950 . S
C178 C187 1.390 1_655 S
C179 C178 1.387 . S
C179 C181 1.387 . S
H180 C187 0.950 . S
C181 C179 1.387 . S
C181 C183 1.390 1_655 S
C181 H185 0.950 . S
H182 C178 0.950 . S
C183 C181 1.390 1_455 S
C183 C184 1.387 . S
C183 H186 0.950 . S
C184 C183 1.387 . S
C184 C187 1.387 . S
H185 C181 0.950 . S
H186 C183 0.950 . S
C187 C178 1.390 1_455 S
C187 H180 0.950 . S
C187 C184 1.387 . S
C188 C189 1.387 . S
C188 H192 0.950 . S
C188 C197 1.390 1_566 S
C189 C188 1.387 . S
C189 C191 1.387 . S
H190 C197 0.950 . S
C191 C189 1.387 . S
C191 C193 1.390 1_566 S
C191 H195 0.950 . S
H192 C188 0.950 . S
C193 C191 1.390 1_544 S
C193 C194 1.387 . S
C193 H196 0.950 . S
C194 C193 1.387 . S
C194 C197 1.387 . S
H195 C191 0.950 . S
H196 C193 0.950 . S
C197 C188 1.390 1_544 S
C197 H190 0.950 . S
C197 C194 1.387 . S
C198 C199 1.387 . S
C198 H202 0.950 . S
C198 C207 1.390 . S
C199 C198 1.387 . S
C199 C201 1.387 . S
H200 C207 0.950 . S
C201 C199 1.387 . S
C201 C203 1.390 . S
C201 H205 0.950 . S
H202 C198 0.950 . S
C203 C201 1.390 . S
C203 C204 1.387 . S
C203 H206 0.950 . S
C204 C203 1.387 . S
C204 C207 1.387 . S
H205 C201 0.950 . S
H206 C203 0.950 . S
C207 C198 1.390 . S
C207 H200 0.950 . S
C207 C204 1.387 . S
C208 C209 1.387 . S
C208 H212 0.950 . S
C208 C217 1.390 1_655 S
C209 C208 1.387 . S
C209 C211 1.387 . S
H210 C217 0.950 . S
C211 C209 1.387 . S
C211 C213 1.390 1_655 S
C211 H215 0.950 . S
H212 C208 0.950 . S
C213 C211 1.390 1_455 S
C213 C214 1.387 . S
C213 H216 0.950 . S
C214 C213 1.387 . S
C214 C217 1.387 . S
H215 C211 0.950 . S
H216 C213 0.950 . S
C217 C208 1.390 1_455 S
C217 H210 0.950 . S
C217 C214 1.387 . S
C218 C219 1.387 . S
C218 H222 0.950 . S
C218 C227 1.390 1_564 S
C219 C218 1.387 . S
C219 C221 1.387 . S
H220 C227 0.950 . S
C221 C219 1.387 . S
C221 C223 1.390 1_564 S
C221 H225 0.950 . S
H222 C218 0.950 . S
C223 C221 1.390 1_546 S
C223 C224 1.387 . S
C223 H226 0.950 . S
C224 C223 1.387 . S
C224 C227 1.387 . S
H225 C221 0.950 . S
H226 C223 0.950 . S
C227 C218 1.390 1_546 S
C227 H220 0.950 . S
C227 C224 1.387 . S
C228 C229 1.387 . S
C228 H232 0.950 . S
C228 C237 1.390 1_556 S
C229 C228 1.387 . S
C229 C231 1.387 . S
H230 C237 0.950 . S
C231 C229 1.387 . S
C231 C233 1.390 1_556 S
C231 H235 0.950 . S
H232 C228 0.950 . S
C233 C231 1.390 1_554 S
C233 C234 1.387 . S
C233 H236 0.950 . S
C234 C233 1.387 . S
C234 C237 1.387 . S
H235 C231 0.950 . S
H236 C233 0.950 . S
C237 C228 1.390 1_554 S
C237 H230 0.950 . S
C237 C234 1.387 . S
C238 C239 1.387 . S
C238 H242 0.950 . S
C238 C247 1.390 . S
C239 C238 1.387 . S
C239 C241 1.387 . S
H240 C247 0.950 . S
C241 C239 1.387 . S
C241 C243 1.390 . S
C241 H245 0.950 . S
H242 C238 0.950 . S
C243 C241 1.390 . S
C243 C244 1.387 . S
C243 H246 0.950 . S
C244 C243 1.387 . S
C244 C247 1.387 . S
H245 C241 0.950 . S
H246 C243 0.950 . S
C247 C238 1.390 . S
C247 H240 0.950 . S
C247 C244 1.387 . S
C248 C249 1.387 . S
C248 H252 0.950 . S
C248 C257 1.390 . S
C249 C248 1.387 . S
C249 C251 1.387 . S
H250 C257 0.950 . S
C251 C249 1.387 . S
C251 C253 1.390 . S
C251 H255 0.950 . S
H252 C248 0.950 . S
C253 C251 1.390 . S
C253 C254 1.387 . S
C253 H256 0.950 . S
C254 C253 1.387 . S
C254 C257 1.387 . S
H255 C251 0.950 . S
H256 C253 0.950 . S
C257 C248 1.390 . S
C257 H250 0.950 . S
C257 C254 1.387 . S
C258 C259 1.387 . S
C258 H262 0.950 . S
C258 C267 1.390 1_554 S
C259 C258 1.387 . S
C259 C261 1.387 . S
H260 C267 0.950 . S
C261 C259 1.387 . S
C261 C263 1.390 1_554 S
C261 H265 0.950 . S
H262 C258 0.950 . S
C263 C261 1.390 1_556 S
C263 C264 1.387 . S
C263 H266 0.950 . S
C264 C263 1.387 . S
C264 C267 1.387 . S
H265 C261 0.950 . S
H266 C263 0.950 . S
C267 C258 1.390 1_556 S
C267 H260 0.950 . S
C267 C264 1.387 . S
C268 C269 1.387 . S
C268 H272 0.950 . S
C268 C277 1.390 . S
C269 C268 1.387 . S
C269 C271 1.387 . S
H270 C277 0.950 . S
C271 C269 1.387 . S
C271 C273 1.390 . S
C271 H275 0.950 . S
H272 C268 0.950 . S
C273 C271 1.390 . S
C273 C274 1.387 . S
C273 H276 0.950 . S
C274 C273 1.387 . S
C274 C277 1.387 . S
H275 C271 0.950 . S
H276 C273 0.950 . S
C277 C268 1.390 . S
C277 H270 0.950 . S
C277 C274 1.387 . S
C278 C279 1.387 . S
C278 H282 0.950 . S
C278 C287 1.390 . S
C279 C278 1.387 . S
C279 C281 1.387 . S
H280 C287 0.950 . S
C281 C279 1.387 . S
C281 C283 1.390 . S
C281 H285 0.950 . S
H282 C278 0.950 . S
C283 C281 1.390 . S
C283 C284 1.387 . S
C283 H286 0.950 . S
C284 C283 1.387 . S
C284 C287 1.387 . S
H285 C281 0.950 . S
H286 C283 0.950 . S
C287 C278 1.390 . S
C287 H280 0.950 . S
C287 C284 1.387 . S
C288 C289 1.387 . S
C288 H292 0.950 . S
C288 C297 1.390 . S
C289 C288 1.387 . S
C289 C291 1.387 . S
H290 C297 0.950 . S
C291 C289 1.387 . S
C291 C293 1.390 . S
C291 H295 0.950 . S
H292 C288 0.950 . S
C293 C291 1.390 . S
C293 C294 1.387 . S
C293 H296 0.950 . S
C294 C293 1.387 . S
C294 C297 1.387 . S
H295 C291 0.950 . S
H296 C293 0.950 . S
C297 C288 1.390 . S
C297 H290 0.950 . S
C297 C294 1.387 . S
C298 C299 1.387 . S
C298 H302 0.950 . S
C298 C307 1.390 . S
C299 C298 1.387 . S
C299 C301 1.387 . S
H300 C307 0.950 . S
C301 C299 1.387 . S
C301 C303 1.390 . S
C301 H305 0.950 . S
H302 C298 0.950 . S
C303 C301 1.390 . S
C303 C304 1.387 . S
C303 H306 0.950 . S
C304 C303 1.387 . S
C304 C307 1.387 . S
H305 C301 0.950 . S
H306 C303 0.950 . S
C307 C298 1.390 . S
C307 H300 0.950 . S
C307 C304 1.387 . S
C308 C309 1.387 . S
C308 H312 0.950 . S
C308 C317 1.390 . S
C309 C308 1.387 . S
C309 C311 1.387 . S
H310 C317 0.950 . S
C311 C309 1.387 . S
C311 C313 1.390 . S
C311 H315 0.950 . S
H312 C308 0.950 . S
C313 C311 1.390 . S
C313 C314 1.387 . S
C313 H316 0.950 . S
C314 C313 1.387 . S
C314 C317 1.387 . S
H315 C311 0.950 . S
H316 C313 0.950 . S
C317 C308 1.390 . S
C317 H310 0.950 . S
C317 C314 1.387 . S
C318 C319 1.387 . S
C318 H322 0.950 . S
C318 C327 1.390 . S
C319 C318 1.387 . S
C319 C321 1.387 . S
H320 C327 0.950 . S
C321 C319 1.387 . S
C321 C323 1.390 . S
C321 H325 0.950 . S
H322 C318 0.950 . S
C323 C321 1.390 . S
C323 C324 1.387 . S
C323 H326 0.950 . S
C324 C323 1.387 . S
C324 C327 1.387 . S
H325 C321 0.950 . S
H326 C323 0.950 . S
C327 C318 1.390 . S
C327 H320 0.950 . S
C327 C324 1.387 . S
C328 C329 1.387 . S
C328 H332 0.950 . S
C328 C337 1.390 . S
C329 C328 1.387 . S
C329 C331 1.387 . S
H330 C337 0.950 . S
C331 C329 1.387 . S
C331 C333 1.390 . S
C331 H335 0.950 . S
H332 C328 0.950 . S
C333 C331 1.390 . S
C333 C334 1.387 . S
C333 H336 0.950 . S
C334 C333 1.387 . S
C334 C337 1.387 . S
H335 C331 0.950 . S
H336 C333 0.950 . S
C337 C328 1.390 . S
C337 H330 0.950 . S
C337 C334 1.387 . S
C338 C339 1.387 . S
C338 H342 0.950 . S
C338 C347 1.390 . S
C339 C338 1.387 . S
C339 C341 1.387 . S
H340 C347 0.950 . S
C341 C339 1.387 . S
C341 C343 1.390 . S
C341 H345 0.950 . S
H342 C338 0.950 . S
C343 C341 1.390 . S
C343 C344 1.387 . S
C343 H346 0.950 . S
C344 C343 1.387 . S
C344 C347 1.387 . S
H345 C341 0.950 . S
H346 C343 0.950 . S
C347 C338 1.390 . S
C347 H340 0.950 . S
C347 C344 1.387 . S
C348 C349 1.387 . S
C348 H352 0.950 . S
C348 C357 1.390 . S
C349 C348 1.387 . S
C349 C351 1.387 . S
H350 C357 0.950 . S
C351 C349 1.387 . S
C351 C353 1.390 . S
C351 H355 0.950 . S
H352 C348 0.950 . S
C353 C351 1.390 . S
C353 C354 1.387 . S
C353 H356 0.950 . S
C354 C353 1.387 . S
C354 C357 1.387 . S
H355 C351 0.950 . S
H356 C353 0.950 . S
C357 C348 1.390 . S
C357 H350 0.950 . S
C357 C354 1.387 . S
C358 C359 1.387 . S
C358 H362 0.950 . S
C358 C367 1.390 . S
C359 C358 1.387 . S
C359 C361 1.387 . S
H360 C367 0.950 . S
C361 C359 1.387 . S
C361 C363 1.390 . S
C361 H365 0.950 . S
H362 C358 0.950 . S
C363 C361 1.390 . S
C363 C364 1.387 . S
C363 H366 0.950 . S
C364 C363 1.387 . S
C364 C367 1.387 . S
H365 C361 0.950 . S
H366 C363 0.950 . S
C367 C358 1.390 . S
C367 H360 0.950 . S
C367 C364 1.387 . S
C368 C369 1.387 . S
C368 H372 0.950 . S
C368 C377 1.390 1_554 S
C369 C368 1.387 . S
C369 C371 1.387 . S
H370 C377 0.950 . S
C371 C369 1.387 . S
C371 C373 1.390 1_554 S
C371 H375 0.950 . S
H372 C368 0.950 . S
C373 C371 1.390 1_556 S
C373 C374 1.387 . S
C373 H376 0.950 . S
C374 C373 1.387 . S
C374 C377 1.387 . S
H375 C371 0.950 . S
H376 C373 0.950 . S
C377 C368 1.390 1_556 S
C377 H370 0.950 . S
C377 C374 1.387 . S
C378 C379 1.387 . S
C378 H382 0.950 . S
C378 C387 1.390 . S
C379 C378 1.387 . S
C379 C381 1.387 . S
H380 C387 0.950 . S
C381 C379 1.387 . S
C381 C383 1.390 . S
C381 H385 0.950 . S
H382 C378 0.950 . S
C383 C381 1.390 . S
C383 C384 1.387 . S
C383 H386 0.950 . S
C384 C383 1.387 . S
C384 C387 1.387 . S
H385 C381 0.950 . S
H386 C383 0.950 . S
C387 C378 1.390 . S
C387 H380 0.950 . S
C387 C384 1.387 . S
C388 C389 1.387 . S
C388 H392 0.950 . S
C388 C397 1.390 . S
C389 C388 1.387 . S
C389 C391 1.387 . S
H390 C397 0.950 . S
C391 C389 1.387 . S
C391 C393 1.390 . S
C391 H395 0.950 . S
H392 C388 0.950 . S
C393 C391 1.390 . S
C393 C394 1.387 . S
C393 H396 0.950 . S
C394 C393 1.387 . S
C394 C397 1.387 . S
H395 C391 0.950 . S
H396 C393 0.950 . S
C397 C388 1.390 . S
C397 H390 0.950 . S
C397 C394 1.387 . S
C398 C399 1.387 . S
C398 H402 0.950 . S
C398 C407 1.390 1_556 S
C399 C398 1.387 . S
C399 C401 1.387 . S
H400 C407 0.950 . S
C401 C399 1.387 . S
C401 C403 1.390 1_556 S
C401 H405 0.950 . S
H402 C398 0.950 . S
C403 C401 1.390 1_554 S
C403 C404 1.387 . S
C403 H406 0.950 . S
C404 C403 1.387 . S
C404 C407 1.387 . S
H405 C401 0.950 . S
H406 C403 0.950 . S
C407 C398 1.390 1_554 S
C407 H400 0.950 . S
C407 C404 1.387 . S
C169 C3 1.477 . S
C174 C129 1.478 . S
C179 C17 1.475 . S
C184 C143 1.475 . S
C189 C31 1.475 . S
C194 C157 1.475 . S
C199 C45 1.477 . S
C204 C87 1.478 . S
C209 C101 1.477 . S
C214 C59 1.478 . S
C219 C115 1.478 . S
C224 C73 1.478 . S
C229 C148 1.733 . S
C234 C8 1.733 . S
C239 C22 1.733 . S
C244 C162 1.733 . S
C249 C36 1.732 . S
C254 C92 1.733 . S
C259 C50 1.733 . S
C264 C106 1.733 . S
C269 C64 1.732 . S
C274 C120 1.733 . S
C279 C78 1.733 . S
C284 C134 1.732 . S
C289 C147 1.104 . S
C294 C7 1.104 . S
C299 C21 1.104 . S
C304 C161 1.103 . S
C309 C35 1.103 . S
C314 C91 1.103 . S
C319 C49 1.100 . S
C324 C105 1.100 . S
C329 C63 1.103 . S
C334 C119 1.103 . S
C339 C77 1.103 . S
C344 C133 1.103 . S
C349 C9 1.645 . S
C354 C93 1.646 . S
C359 C107 1.645 . S
C364 C23 1.646 . S
C369 C37 1.646 . S
C374 C121 1.646 . S
C379 C51 1.645 . S
C384 C135 1.646 . S
C389 C65 1.646 . S
C394 C149 1.645 . S
C399 C163 1.646 . S
C404 C79 1.646 . S
