# Generated by pormake.
# Topology sgn, (3)-cn, num edge types: 1
# Building blocks:
#     Node 0, Type 0, BuildingBlock: OLANEW_clean_sbu_2, # of connection points: 3
#     Node 1, Type 0, BuildingBlock: OLANEW_clean_sbu_2, # of connection points: 3
#     Node 2, Type 0, BuildingBlock: OLANEW_clean_sbu_2, # of connection points: 3
#     Node 3, Type 0, BuildingBlock: OLANEW_clean_sbu_2, # of connection points: 3
#     Node 4, Type 0, BuildingBlock: OLANEW_clean_sbu_2, # of connection points: 3
#     Node 5, Type 0, BuildingBlock: OLANEW_clean_sbu_2, # of connection points: 3
#     Node 6, Type 0, BuildingBlock: OLANEW_clean_sbu_2, # of connection points: 3
#     Node 7, Type 0, BuildingBlock: OLANEW_clean_sbu_2, # of connection points: 3
#     Node 8, Type 0, BuildingBlock: OLANEW_clean_sbu_2, # of connection points: 3
#     Node 9, Type 0, BuildingBlock: OLANEW_clean_sbu_2, # of connection points: 3
#     Node 10, Type 0, BuildingBlock: OLANEW_clean_sbu_2, # of connection points: 3
#     Node 11, Type 0, BuildingBlock: OLANEW_clean_sbu_2, # of connection points: 3
#     Node 12, Type 0, BuildingBlock: OLANEW_clean_sbu_2, # of connection points: 3
#     Node 13, Type 0, BuildingBlock: OLANEW_clean_sbu_2, # of connection points: 3
#     Node 14, Type 0, BuildingBlock: OLANEW_clean_sbu_2, # of connection points: 3
#     Node 15, Type 0, BuildingBlock: OLANEW_clean_sbu_2, # of connection points: 3
#     Node 16, Type 0, BuildingBlock: OLANEW_clean_sbu_2, # of connection points: 3
#     Node 17, Type 0, BuildingBlock: OLANEW_clean_sbu_2, # of connection points: 3
#     Node 18, Type 0, BuildingBlock: OLANEW_clean_sbu_2, # of connection points: 3
#     Node 19, Type 0, BuildingBlock: OLANEW_clean_sbu_2, # of connection points: 3
#     Node 20, Type 0, BuildingBlock: OLANEW_clean_sbu_2, # of connection points: 3
#     Node 21, Type 0, BuildingBlock: OLANEW_clean_sbu_2, # of connection points: 3
#     Node 22, Type 0, BuildingBlock: OLANEW_clean_sbu_2, # of connection points: 3
#     Node 23, Type 0, BuildingBlock: OLANEW_clean_sbu_2, # of connection points: 3
#     Edge 24, Type (0, 0), BuildingBlock: CIFDUS_clean_linker_0, # of connection points: 2
#     Edge 25, Type (0, 0), BuildingBlock: CIFDUS_clean_linker_0, # of connection points: 2
#     Edge 26, Type (0, 0), BuildingBlock: CIFDUS_clean_linker_0, # of connection points: 2
#     Edge 27, Type (0, 0), BuildingBlock: CIFDUS_clean_linker_0, # of connection points: 2
#     Edge 28, Type (0, 0), BuildingBlock: CIFDUS_clean_linker_0, # of connection points: 2
#     Edge 29, Type (0, 0), BuildingBlock: CIFDUS_clean_linker_0, # of connection points: 2
#     Edge 30, Type (0, 0), BuildingBlock: CIFDUS_clean_linker_0, # of connection points: 2
#     Edge 31, Type (0, 0), BuildingBlock: CIFDUS_clean_linker_0, # of connection points: 2
#     Edge 32, Type (0, 0), BuildingBlock: CIFDUS_clean_linker_0, # of connection points: 2
#     Edge 33, Type (0, 0), BuildingBlock: CIFDUS_clean_linker_0, # of connection points: 2
#     Edge 34, Type (0, 0), BuildingBlock: CIFDUS_clean_linker_0, # of connection points: 2
#     Edge 35, Type (0, 0), BuildingBlock: CIFDUS_clean_linker_0, # of connection points: 2
#     Edge 36, Type (0, 0), BuildingBlock: CIFDUS_clean_linker_0, # of connection points: 2
#     Edge 37, Type (0, 0), BuildingBlock: CIFDUS_clean_linker_0, # of connection points: 2
#     Edge 38, Type (0, 0), BuildingBlock: CIFDUS_clean_linker_0, # of connection points: 2
#     Edge 39, Type (0, 0), BuildingBlock: CIFDUS_clean_linker_0, # of connection points: 2
#     Edge 40, Type (0, 0), BuildingBlock: CIFDUS_clean_linker_0, # of connection points: 2
#     Edge 41, Type (0, 0), BuildingBlock: CIFDUS_clean_linker_0, # of connection points: 2
#     Edge 42, Type (0, 0), BuildingBlock: CIFDUS_clean_linker_0, # of connection points: 2
#     Edge 43, Type (0, 0), BuildingBlock: CIFDUS_clean_linker_0, # of connection points: 2
#     Edge 44, Type (0, 0), BuildingBlock: CIFDUS_clean_linker_0, # of connection points: 2
#     Edge 45, Type (0, 0), BuildingBlock: CIFDUS_clean_linker_0, # of connection points: 2
#     Edge 46, Type (0, 0), BuildingBlock: CIFDUS_clean_linker_0, # of connection points: 2
#     Edge 47, Type (0, 0), BuildingBlock: CIFDUS_clean_linker_0, # of connection points: 2
#     Edge 48, Type (0, 0), BuildingBlock: CIFDUS_clean_linker_0, # of connection points: 2
#     Edge 49, Type (0, 0), BuildingBlock: CIFDUS_clean_linker_0, # of connection points: 2
#     Edge 50, Type (0, 0), BuildingBlock: CIFDUS_clean_linker_0, # of connection points: 2
#     Edge 51, Type (0, 0), BuildingBlock: CIFDUS_clean_linker_0, # of connection points: 2
#     Edge 52, Type (0, 0), BuildingBlock: CIFDUS_clean_linker_0, # of connection points: 2
#     Edge 53, Type (0, 0), BuildingBlock: CIFDUS_clean_linker_0, # of connection points: 2
#     Edge 54, Type (0, 0), BuildingBlock: CIFDUS_clean_linker_0, # of connection points: 2
#     Edge 55, Type (0, 0), BuildingBlock: CIFDUS_clean_linker_0, # of connection points: 2
#     Edge 56, Type (0, 0), BuildingBlock: CIFDUS_clean_linker_0, # of connection points: 2
#     Edge 57, Type (0, 0), BuildingBlock: CIFDUS_clean_linker_0, # of connection points: 2
#     Edge 58, Type (0, 0), BuildingBlock: CIFDUS_clean_linker_0, # of connection points: 2
#     Edge 59, Type (0, 0), BuildingBlock: CIFDUS_clean_linker_0, # of connection points: 2
# Relax obj value: 0.085
# Max RMSD: 0.295
# Mean RMSD: 0.072
data_MOF--net-sgn--node1-OLANEW_clean_sbu_2--edge1-CIFDUS_clean_linker_0
_symmetry_space_group_name_H-M    P1
_symmetry_Int_Tables_number       1
_symmetry_cell_setting            triclinic
loop_
_symmetry_equiv_pos_as_xyz
'x, y, z'
_cell_length_a     66.2719
_cell_length_b     32.478419
_cell_length_c     37.304948
_cell_angle_alpha  89.521762
_cell_angle_beta   90.317196
_cell_angle_gamma 88.151582
loop_
_atom_site_label
_atom_site_type_symbol
_atom_site_fract_x
_atom_site_fract_y
_atom_site_fract_z
_atom_type_partial_charge
O0 O 0.99923 0.33897 0.94391 0.0
Cd1 Cd 0.99235 0.37354 0.88655 0.0
O2 O 0.97954 0.38473 0.97011 0.0
Cd3 Cd 0.96388 0.41765 0.01327 0.0
O4 O 0.94442 0.45742 0.04613 0.0
C5 C 0.95168 0.48363 0.06733 0.0
O6 O 0.97138 0.48612 0.07017 0.0
C7 C 0.99096 0.35253 0.9723 0.0
C8 C 0.0276 0.3953 0.85173 0.0
O9 O 0.01837 0.42053 0.87274 0.0
O10 O 0.02017 0.35974 0.84729 0.0
O11 O 0.00478 0.87054 0.41977 0.0
Cd12 Cd 0.99408 0.9344 0.38867 0.0
O13 O 0.97416 0.8466 0.42327 0.0
Cd14 Cd 0.95818 0.90108 0.40145 0.0
O15 O 0.93091 0.94037 0.40509 0.0
C16 C 0.91627 0.92325 0.42048 0.0
O17 O 0.91871 0.88477 0.43124 0.0
C18 C 0.99302 0.84224 0.42913 0.0
C19 C 0.02665 0.969 0.35348 0.0
O20 O 0.02329 0.97582 0.38674 0.0
O21 O 0.01446 0.94612 0.33658 0.0
O22 O 0.54065 0.43481 0.46023 0.0
Cd23 Cd 0.54992 0.37263 0.49436 0.0
O24 O 0.51007 0.43419 0.48222 0.0
Cd25 Cd 0.47985 0.45962 0.49431 0.0
O26 O 0.4495 0.48108 0.50961 0.0
C27 C 0.44717 0.51157 0.5305 0.0
O28 O 0.46321 0.53017 0.54221 0.0
C29 C 0.52308 0.45134 0.46259 0.0
C30 C 0.57936 0.39081 0.54503 0.0
O31 O 0.5842 0.37894 0.51346 0.0
O32 O 0.56055 0.3935 0.55283 0.0
O33 O 0.46713 0.20961 0.05776 0.0
Cd34 Cd 0.46936 0.13486 0.05015 0.0
O35 O 0.49869 0.21434 0.04068 0.0
Cd36 Cd 0.5072 0.14955 0.04953 0.0
O37 O 0.52843 0.11115 0.08118 0.0
C38 C 0.5471 0.11594 0.07535 0.0
O39 O 0.55228 0.14043 0.04897 0.0
C40 C 0.48185 0.23159 0.04879 0.0
C41 C 0.43762 0.109 0.00722 0.0
O42 O 0.43713 0.1044 0.04135 0.0
O43 O 0.45313 0.12535 0.99339 0.0
O44 O 0.00269 0.61586 0.56171 0.0
Cd45 Cd 0.0081 0.55695 0.6022 0.0
O46 O 0.03238 0.64394 0.56667 0.0
Cd47 Cd 0.04421 0.60157 0.60815 0.0
O48 O 0.06353 0.58097 0.65303 0.0
C49 C 0.05704 0.58154 0.68504 0.0
O50 O 0.0381 0.59265 0.6908 0.0
C51 C 0.01482 0.64366 0.55278 0.0
C52 C 0.97855 0.50022 0.58629 0.0
O53 O 0.97541 0.52833 0.6097 0.0
O54 O 0.99589 0.49816 0.57124 0.0
O55 O 0.49458 0.69029 0.37808 0.0
Cd56 Cd 0.48937 0.76414 0.3663 0.0
O57 O 0.46275 0.67459 0.37142 0.0
Cd58 Cd 0.45286 0.73851 0.36273 0.0
O59 O 0.43722 0.79702 0.37377 0.0
C60 C 0.41821 0.79649 0.37797 0.0
O61 O 0.40904 0.76157 0.37376 0.0
C62 C 0.48097 0.66355 0.37809 0.0
C63 C 0.52426 0.79968 0.34035 0.0
O64 O 0.522 0.79252 0.37389 0.0
O65 O 0.51002 0.79013 0.31889 0.0
O66 O 0.48653 0.49516 0.06798 0.0
Cd67 Cd 0.48893 0.56994 0.06447 0.0
O68 O 0.49537 0.49556 0.01138 0.0
Cd69 Cd 0.50149 0.46189 0.96188 0.0
O70 O 0.50552 0.41851 0.91769 0.0
C71 C 0.49157 0.39846 0.90292 0.0
O72 O 0.49606 0.37537 0.87515 0.0
C73 C 0.49111 0.47564 0.03967 0.0
C74 C 0.52215 0.58933 0.02253 0.0
O75 O 0.52399 0.58346 0.05643 0.0
O76 O 0.50452 0.58679 0.00858 0.0
O77 O 0.04066 0.18942 0.14389 0.0
Cd78 Cd 0.04502 0.13239 0.18685 0.0
O79 O 0.00789 0.18329 0.14643 0.0
Cd80 Cd 0.97642 0.19308 0.1292 0.0
O81 O 0.94434 0.20358 0.11721 0.0
C82 C 0.93373 0.17403 0.10673 0.0
O83 O 0.94242 0.13743 0.10272 0.0
C84 C 0.0231 0.20068 0.13307 0.0
C85 C 0.07896 0.13705 0.231 0.0
O86 O 0.08051 0.12464 0.19859 0.0
O87 O 0.0614 0.14779 0.24252 0.0
O88 O 0.2539 0.04881 0.42533 0.0
Cd89 Cd 0.26893 0.04924 0.48498 0.0
O90 O 0.22425 0.06385 0.44893 0.0
Cd91 Cd 0.1923 0.08046 0.43986 0.0
O92 O 0.16404 0.09372 0.41081 0.0
C93 C 0.16499 0.11172 0.38049 0.0
O94 O 0.18264 0.12318 0.36883 0.0
C95 C 0.23502 0.05543 0.42167 0.0
C96 C 0.27026 0.96995 0.5143 0.0
O97 O 0.25504 0.9945 0.51944 0.0
O98 O 0.28489 0.98308 0.49555 0.0
O99 O 0.24238 0.59138 0.91202 0.0
Cd100 Cd 0.2352 0.61104 0.97373 0.0
O101 O 0.21186 0.57015 0.90083 0.0
Cd102 Cd 0.18753 0.54869 0.86619 0.0
O103 O 0.16564 0.54589 0.82224 0.0
C104 C 0.14683 0.55115 0.82774 0.0
O105 O 0.14046 0.55665 0.8607 0.0
C106 C 0.22941 0.57869 0.88982 0.0
C107 C 0.24044 0.69592 0.97368 0.0
O108 O 0.2551 0.67066 0.98145 0.0
O109 O 0.22303 0.68109 0.96798 0.0
O110 O 0.31739 0.02046 0.55455 0.0
Cd111 Cd 0.32236 0.03404 0.4907 0.0
O112 O 0.28941 0.05749 0.54884 0.0
Cd113 Cd 0.26268 0.09217 0.56718 0.0
O114 O 0.24127 0.14182 0.58111 0.0
C115 C 0.23786 0.17055 0.55831 0.0
O116 O 0.24668 0.16825 0.52689 0.0
C117 C 0.30149 0.03601 0.56853 0.0
C118 C 0.3431 0.96918 0.45734 0.0
O119 O 0.35256 0.99947 0.47039 0.0
O120 O 0.32382 0.96969 0.45998 0.0
O121 O 0.27602 0.43436 0.93317 0.0
Cd122 Cd 0.29811 0.40378 0.97939 0.0
O123 O 0.29887 0.44837 0.89246 0.0
Cd124 Cd 0.32631 0.42765 0.92102 0.0
O125 O 0.35848 0.41358 0.9129 0.0
C126 C 0.37257 0.41782 0.93572 0.0
O127 O 0.36808 0.43037 0.96819 0.0
C128 C 0.28055 0.44826 0.90239 0.0
C129 C 0.27472 0.3515 0.02079 0.0
O130 O 0.2765 0.38943 0.02907 0.0
O131 O 0.28448 0.33796 0.99352 0.0
O132 O 0.19501 0.11333 0.20125 0.0
Cd133 Cd 0.17802 0.1324 0.14512 0.0
O134 O 0.17356 0.06859 0.22234 0.0
Cd135 Cd 0.14885 0.07041 0.18356 0.0
O136 O 0.11877 0.05054 0.19849 0.0
C137 C 0.11792 0.0403 0.23143 0.0
O138 O 0.13438 0.04213 0.25108 0.0
C139 C 0.18987 0.08784 0.22529 0.0
C140 C 0.20366 0.1824 0.10598 0.0
O141 O 0.19125 0.19785 0.12882 0.0
O142 O 0.20363 0.14339 0.10103 0.0
O143 O 0.29574 0.61044 0.68836 0.0
Cd144 Cd 0.30689 0.63941 0.63123 0.0
O145 O 0.26412 0.62976 0.67783 0.0
Cd146 Cd 0.27057 0.66629 0.63016 0.0
O147 O 0.27103 0.72456 0.60056 0.0
C148 C 0.25607 0.74931 0.60553 0.0
O149 O 0.2414 0.73769 0.6265 0.0
C150 C 0.2773 0.61146 0.69773 0.0
C151 C 0.34542 0.61156 0.61087 0.0
O152 O 0.34293 0.64344 0.63059 0.0
O153 O 0.32968 0.59257 0.60107 0.0
O154 O 0.3131 0.00336 0.80347 0.0
Cd155 Cd 0.30766 0.00011 0.86827 0.0
O156 O 0.28102 0.99446 0.79136 0.0
Cd157 Cd 0.27402 0.97453 0.8459 0.0
O158 O 0.26653 0.92894 0.88677 0.0
C159 C 0.28054 0.90868 0.90314 0.0
O160 O 0.29939 0.91766 0.89685 0.0
C161 C 0.29873 0.00214 0.78078 0.0
C162 C 0.34185 0.01927 0.90798 0.0
O163 O 0.33694 0.98174 0.90397 0.0
O164 O 0.33072 0.04762 0.89315 0.0
O165 O 0.18943 0.46244 0.74452 0.0
Cd166 Cd 0.16232 0.44879 0.70201 0.0
O167 O 0.21073 0.48071 0.70279 0.0
Cd168 Cd 0.19174 0.45729 0.66022 0.0
O169 O 0.19021 0.40013 0.63028 0.0
C170 C 0.19709 0.39762 0.59863 0.0
O171 O 0.20318 0.43118 0.58264 0.0
C172 C 0.2065 0.47608 0.73575 0.0
C173 C 0.12787 0.42454 0.73786 0.0
O174 O 0.14058 0.39757 0.72577 0.0
O175 O 0.13142 0.46262 0.73266 0.0
O176 O 0.75767 0.16596 0.1319 0.0
Cd177 Cd 0.77241 0.17906 0.07305 0.0
O178 O 0.73699 0.11856 0.11396 0.0
Cd179 Cd 0.74478 0.13081 0.05819 0.0
O180 O 0.74942 0.16341 0.0076 0.0
C181 C 0.73459 0.17025 0.98641 0.0
O182 O 0.71691 0.15577 0.99473 0.0
C183 C 0.74445 0.13958 0.13911 0.0
C184 C 0.81439 0.16944 0.07589 0.0
O185 O 0.80562 0.20449 0.08168 0.0
O186 O 0.80329 0.13902 0.06843 0.0
O187 O 0.83828 0.40585 0.43942 0.0
Cd188 Cd 0.84491 0.35981 0.49068 0.0
O189 O 0.82648 0.45471 0.47474 0.0
Cd190 Cd 0.81742 0.40745 0.51275 0.0
O191 O 0.79528 0.35907 0.51478 0.0
C192 C 0.77757 0.37002 0.50447 0.0
O193 O 0.77384 0.40896 0.49626 0.0
C194 C 0.83276 0.44327 0.44414 0.0
C195 C 0.87735 0.39144 0.5287 0.0
O196 O 0.88026 0.36545 0.50345 0.0
O197 O 0.85908 0.40145 0.53675 0.0
O198 O 0.67506 0.9754 0.33526 0.0
Cd199 Cd 0.66652 0.93491 0.28276 0.0
O200 O 0.70671 0.98561 0.32116 0.0
Cd201 Cd 0.70535 0.95035 0.27174 0.0
O202 O 0.71558 0.89937 0.23794 0.0
C203 C 0.73331 0.90008 0.22519 0.0
O204 O 0.74408 0.93275 0.23062 0.0
C205 C 0.69207 0.99031 0.34276 0.0
C206 C 0.63199 0.89156 0.29888 0.0
O207 O 0.64959 0.87784 0.3083 0.0
O208 O 0.63067 0.92536 0.28093 0.0
O209 O 0.83392 0.60891 0.26497 0.0
Cd210 Cd 0.83791 0.6543 0.21306 0.0
O211 O 0.81698 0.56438 0.23355 0.0
Cd212 Cd 0.80826 0.61256 0.19484 0.0
O213 O 0.79272 0.67141 0.18294 0.0
C214 C 0.77355 0.67289 0.18411 0.0
O215 O 0.76402 0.63855 0.18958 0.0
C216 C 0.82627 0.57365 0.26216 0.0
C217 C 0.86419 0.61336 0.16598 0.0
O218 O 0.87094 0.63675 0.19049 0.0
O219 O 0.84502 0.61048 0.163 0.0
O220 O 0.7537 0.45435 0.78831 0.0
Cd221 Cd 0.76428 0.38389 0.77279 0.0
O222 O 0.72541 0.44479 0.75968 0.0
Cd223 Cd 0.69658 0.4594 0.73297 0.0
O224 O 0.6716 0.4521 0.69535 0.0
C225 C 0.67617 0.44042 0.6639 0.0
O226 O 0.69533 0.43493 0.65574 0.0
C227 C 0.73658 0.46839 0.77752 0.0
C228 C 0.76126 0.3285 0.82988 0.0
O229 O 0.77751 0.34798 0.82455 0.0
O230 O 0.7464 0.33543 0.80829 0.0
O231 O 0.70096 0.11272 0.35266 0.0
Cd232 Cd 0.68837 0.1221 0.4135 0.0
O233 O 0.6727 0.08854 0.33182 0.0
Cd234 Cd 0.65182 0.07187 0.28897 0.0
O235 O 0.6315 0.06829 0.24285 0.0
C236 C 0.61444 0.05169 0.24509 0.0
O237 O 0.60912 0.0351 0.27571 0.0
C238 C 0.69077 0.09919 0.32657 0.0
C239 C 0.71204 0.17931 0.44827 0.0
O240 O 0.7169 0.14087 0.44847 0.0
O241 O 0.6957 0.19084 0.43202 0.0
O242 O 0.71372 0.09459 0.54819 0.0
Cd243 Cd 0.71793 0.11326 0.61095 0.0
O244 O 0.7448 0.06961 0.54762 0.0
Cd245 Cd 0.77081 0.03507 0.52596 0.0
O246 O 0.79719 0.00048 0.50623 0.0
C247 C 0.81022 0.01754 0.48666 0.0
O248 O 0.80757 0.05663 0.47796 0.0
C249 C 0.72809 0.07669 0.53139 0.0
C250 C 0.71705 0.04365 0.65521 0.0
O251 O 0.70075 0.06336 0.64603 0.0
O252 O 0.73382 0.05698 0.64358 0.0
O253 O 0.70118 0.71961 0.81346 0.0
Cd254 Cd 0.69375 0.78942 0.83498 0.0
O255 O 0.67379 0.70111 0.84074 0.0
Cd256 Cd 0.65132 0.66128 0.86448 0.0
O257 O 0.62569 0.6398 0.89535 0.0
C258 C 0.62752 0.63472 0.92905 0.0
O259 O 0.64508 0.64095 0.94424 0.0
C260 C 0.68931 0.69134 0.82236 0.0
C261 C 0.69565 0.85148 0.78305 0.0
O262 O 0.71146 0.83917 0.80053 0.0
O263 O 0.67903 0.83386 0.78966 0.0
H264 H 0.99199 0.25649 0.1203 0.0
H265 H 0.04956 0.21349 0.07929 0.0
H266 H 0.04521 0.25868 0.02705 0.0
H267 H 0.02411 0.30676 0.99103 0.0
H268 H 0.96565 0.34689 0.03002 0.0
H269 H 0.97112 0.30619 0.08476 0.0
C270 C 0.00338 0.2564 0.09961 0.0
C271 C 0.02078 0.2307 0.10316 0.0
C272 C 0.00064 0.28208 0.06932 0.0
C273 C 0.03594 0.23274 0.07707 0.0
C274 C 0.03344 0.25843 0.0471 0.0
C275 C 0.01262 0.30683 0.01163 0.0
C276 C 0.99464 0.33041 0.00668 0.0
C277 C 0.0157 0.28267 0.04265 0.0
C278 C 0.97989 0.33016 0.03359 0.0
C279 C 0.98291 0.3064 0.06473 0.0
H280 H 0.03717 0.70533 0.52497 0.0
H281 H 0.9775 0.65568 0.52238 0.0
H282 H 0.96591 0.71135 0.48239 0.0
H283 H 0.97217 0.77572 0.45046 0.0
H284 H 0.03169 0.82598 0.45294 0.0
H285 H 0.04388 0.76821 0.49038 0.0
C286 C 0.02165 0.70655 0.51555 0.0
C287 C 0.00822 0.67642 0.52695 0.0
C288 C 0.01503 0.73876 0.49253 0.0
C289 C 0.98819 0.67843 0.51422 0.0
C290 C 0.98152 0.71032 0.49132 0.0
C291 C 0.98786 0.77398 0.45893 0.0
C292 C 0.00094 0.80537 0.44903 0.0
C293 C 0.99474 0.74088 0.48065 0.0
C294 C 0.02125 0.80235 0.46016 0.0
C295 C 0.02823 0.76936 0.48169 0.0
H296 H 0.51776 0.6308 0.39736 0.0
H297 H 0.45541 0.59928 0.38349 0.0
H298 H 0.46304 0.53022 0.4072 0.0
H299 H 0.48718 0.47962 0.43414 0.0
H300 H 0.54923 0.512 0.44928 0.0
H301 H 0.54204 0.57955 0.42207 0.0
C302 C 0.50585 0.60877 0.39919 0.0
C303 C 0.48602 0.62039 0.38883 0.0
C304 C 0.51027 0.56925 0.41321 0.0
C305 C 0.47081 0.59127 0.39132 0.0
C306 C 0.47514 0.55176 0.40499 0.0
C307 C 0.49901 0.50174 0.43208 0.0
C308 C 0.51856 0.49129 0.44461 0.0
C309 C 0.49474 0.54066 0.4166 0.0
C310 C 0.534 0.51949 0.44008 0.0
C311 C 0.5299 0.55814 0.42461 0.0
H312 H 0.46327 0.42312 0.0649 0.0
H313 H 0.52152 0.42725 0.01438 0.0
H314 H 0.52354 0.35211 0.0119 0.0
H315 H 0.50892 0.28558 0.02415 0.0
H316 H 0.45031 0.28015 0.07355 0.0
H317 H 0.44812 0.35544 0.07606 0.0
C318 C 0.4764 0.40734 0.05358 0.0
C319 C 0.49219 0.43036 0.03967 0.0
C320 C 0.47733 0.36407 0.05182 0.0
C321 C 0.50912 0.40994 0.02486 0.0
C322 C 0.51029 0.36707 0.02348 0.0
C323 C 0.49562 0.30075 0.03546 0.0
C324 C 0.47986 0.27718 0.04881 0.0
C325 C 0.49447 0.34386 0.03679 0.0
C326 C 0.46268 0.29751 0.06308 0.0
C327 C 0.46145 0.34057 0.06465 0.0
H328 H 0.24775 0.0913 0.36038 0.0
H329 H 0.20137 0.01542 0.40336 0.0
H330 H 0.18403 0.01627 0.34532 0.0
H331 H 0.18088 0.04247 0.28405 0.0
H332 H 0.22649 0.12065 0.24092 0.0
H333 H 0.24535 0.11507 0.29735 0.0
C334 C 0.23394 0.07474 0.35676 0.0
C335 C 0.22559 0.05389 0.38596 0.0
C336 C 0.22389 0.07602 0.32349 0.0
C337 C 0.20779 0.03229 0.38124 0.0
C338 C 0.19795 0.03262 0.3481 0.0
C339 C 0.19506 0.05797 0.28672 0.0
C340 C 0.20221 0.08205 0.25826 0.0
C341 C 0.20566 0.05507 0.31928 0.0
C342 C 0.22059 0.10202 0.26241 0.0
C343 C 0.23138 0.09887 0.29468 0.0
H344 H 0.23931 0.60648 0.72398 0.0
H345 H 0.30182 0.58089 0.75179 0.0
H346 H 0.29217 0.56509 0.8134 0.0
H347 H 0.2663 0.56496 0.86057 0.0
H348 H 0.20437 0.5957 0.8327 0.0
H349 H 0.21338 0.60182 0.76994 0.0
C350 C 0.25085 0.59701 0.74336 0.0
C351 C 0.27129 0.59549 0.73333 0.0
C352 C 0.24526 0.58872 0.77883 0.0
C353 C 0.28597 0.58264 0.75877 0.0
C354 C 0.28049 0.57387 0.7941 0.0
C355 C 0.25476 0.57252 0.84064 0.0
C356 C 0.23452 0.57816 0.85127 0.0
C357 C 0.26024 0.57792 0.80463 0.0
C358 C 0.21978 0.58851 0.82522 0.0
C359 C 0.22504 0.59308 0.78928 0.0
H360 H 0.32907 0.02944 0.62219 0.0
H361 H 0.26509 0.02742 0.601 0.0
H362 H 0.25855 0.0175 0.66486 0.0
H363 H 0.27106 0.00886 0.72662 0.0
H364 H 0.33514 0.01104 0.74791 0.0
H365 H 0.34159 0.02129 0.68414 0.0
C366 C 0.31371 0.02685 0.63164 0.0
C367 C 0.29755 0.02997 0.60709 0.0
C368 C 0.31009 0.02108 0.66837 0.0
C369 C 0.27772 0.02642 0.61954 0.0
C370 C 0.274 0.02032 0.65601 0.0
C371 C 0.28645 0.0116 0.71737 0.0
C372 C 0.30258 0.00911 0.74211 0.0
C373 C 0.29006 0.0177 0.68067 0.0
C374 C 0.32242 0.01289 0.72955 0.0
C375 C 0.32614 0.01869 0.69305 0.0
H376 H 0.202 0.47628 0.80831 0.0
H377 H 0.24675 0.48622 0.72522 0.0
H378 H 0.27362 0.48116 0.76998 0.0
H379 H 0.28452 0.46782 0.83185 0.0
H380 H 0.23998 0.45717 0.91518 0.0
H381 H 0.21297 0.46949 0.87121 0.0
C382 C 0.21763 0.47789 0.80004 0.0
C383 C 0.22234 0.48092 0.76339 0.0
C384 C 0.23307 0.47458 0.82591 0.0
C385 C 0.24265 0.48357 0.75319 0.0
C386 C 0.25807 0.48035 0.77876 0.0
C387 C 0.26893 0.4685 0.84054 0.0
C388 C 0.26432 0.46094 0.87672 0.0
C389 C 0.25347 0.47485 0.81507 0.0
C390 C 0.24399 0.46243 0.88745 0.0
C391 C 0.22851 0.46936 0.8623 0.0
H392 H 0.71853 0.08302 0.16535 0.0
H393 H 0.75425 0.18574 0.19695 0.0
H394 H 0.74116 0.18128 0.25766 0.0
H395 H 0.71861 0.1504 0.30121 0.0
H396 H 0.68386 0.04602 0.27117 0.0
H397 H 0.69738 0.04918 0.21039 0.0
C398 C 0.72351 0.10433 0.18554 0.0
C399 C 0.73726 0.13485 0.17643 0.0
C400 C 0.71592 0.10164 0.22058 0.0
C401 C 0.74366 0.16199 0.20307 0.0
C402 C 0.73616 0.15955 0.23785 0.0
C403 C 0.71404 0.12822 0.28139 0.0
C404 C 0.69966 0.09902 0.29029 0.0
C405 C 0.72214 0.12981 0.24679 0.0
C406 C 0.69412 0.07013 0.26451 0.0
C407 C 0.70209 0.07155 0.22988 0.0
H408 H 0.83018 0.42616 0.37335 0.0
H409 H 0.83525 0.5268 0.44726 0.0
H410 H 0.83459 0.57598 0.39722 0.0
H411 H 0.83179 0.59039 0.33257 0.0
H412 H 0.82421 0.49007 0.25911 0.0
H413 H 0.82663 0.44067 0.30887 0.0
C414 C 0.83128 0.45885 0.37846 0.0
C415 C 0.83289 0.47287 0.41388 0.0
C416 C 0.83036 0.48695 0.34967 0.0
C417 C 0.83399 0.51532 0.42019 0.0
C418 C 0.83363 0.54341 0.39161 0.0
C419 C 0.83077 0.55769 0.32746 0.0
C420 C 0.82791 0.54385 0.29224 0.0
C421 C 0.8317 0.52959 0.35626 0.0
C422 C 0.82635 0.50146 0.28603 0.0
C423 C 0.82777 0.47321 0.31444 0.0
H424 H 0.72722 0.01818 0.37039 0.0
H425 H 0.66401 0.0062 0.3946 0.0
H426 H 0.66969 0.03206 0.45486 0.0
H427 H 0.69277 0.05525 0.50156 0.0
H428 H 0.75568 0.06959 0.477 0.0
H429 H 0.75002 0.04487 0.41627 0.0
C430 C 0.71465 0.02146 0.38874 0.0
C431 C 0.69524 0.00991 0.37799 0.0
C432 C 0.71803 0.03603 0.42354 0.0
C433 C 0.67913 0.01461 0.40214 0.0
C434 C 0.68236 0.02928 0.43669 0.0
C435 C 0.70525 0.05293 0.48291 0.0
C436 C 0.72478 0.06276 0.49424 0.0
C437 C 0.70179 0.03951 0.44783 0.0
C438 C 0.74074 0.06014 0.46964 0.0
C439 C 0.73742 0.04673 0.43465 0.0
H440 H 0.72649 0.65767 0.81153 0.0
H441 H 0.66354 0.62799 0.81128 0.0
H442 H 0.6725 0.5563 0.79723 0.0
H443 H 0.69846 0.5017 0.78602 0.0
H444 H 0.76133 0.53234 0.78619 0.0
H445 H 0.75217 0.60393 0.79936 0.0
C446 C 0.71471 0.63555 0.80828 0.0
C447 C 0.6944 0.64801 0.81308 0.0
C448 C 0.71997 0.59453 0.80011 0.0
C449 C 0.67932 0.61898 0.80881 0.0
C450 C 0.68443 0.57804 0.8004 0.0
C451 C 0.7101 0.5242 0.78823 0.0
C452 C 0.73053 0.51181 0.78457 0.0
C453 C 0.70473 0.56541 0.79612 0.0
C454 C 0.74549 0.54109 0.78883 0.0
C455 C 0.74028 0.58206 0.79631 0.0
H456 H 0.05219 0.34651 0.81079 0.0
H457 H 0.04487 0.4705 0.85063 0.0
H458 H 0.07525 0.49024 0.81902 0.0
H459 H 0.10352 0.47278 0.77915 0.0
H460 H 0.1115 0.34848 0.74068 0.0
H461 H 0.08113 0.32848 0.77247 0.0
C462 C 0.0572 0.3779 0.81249 0.0
C463 C 0.04619 0.40701 0.8329 0.0
C464 C 0.07472 0.38908 0.79429 0.0
C465 C 0.05301 0.44747 0.83504 0.0
C466 C 0.07035 0.45887 0.81687 0.0
C467 C 0.09857 0.44137 0.77763 0.0
C468 C 0.10965 0.41225 0.7574 0.0
C469 C 0.08125 0.43002 0.79625 0.0
C470 C 0.10322 0.37149 0.75607 0.0
C471 C 0.08584 0.36005 0.77419 0.0
H472 H 0.0333 0.97699 0.28169 0.0
H473 H 0.06006 0.9992 0.38523 0.0
H474 H 0.09049 0.0234 0.35641 0.0
H475 H 0.11001 0.03541 0.30223 0.0
H476 H 0.08299 0.0176 0.19827 0.0
H477 H 0.05211 0.99434 0.22685 0.0
C478 C 0.04578 0.98722 0.2979 0.0
C479 C 0.04449 0.98589 0.33556 0.0
C480 C 0.06319 0.00161 0.28113 0.0
C481 C 0.06067 0.99981 0.35622 0.0
C482 C 0.07811 0.01354 0.33978 0.0
C483 C 0.09736 0.02654 0.28575 0.0
C484 C 0.09887 0.02777 0.24817 0.0
C485 C 0.07962 0.01408 0.30232 0.0
C486 C 0.08224 0.01671 0.22726 0.0
C487 C 0.0646 0.00342 0.24359 0.0
H488 H 0.35527 0.5479 0.56655 0.0
H489 H 0.38154 0.64379 0.6293 0.0
H490 H 0.41522 0.62147 0.60987 0.0
H491 H 0.43725 0.57493 0.575 0.0
H492 H 0.41101 0.47919 0.512 0.0
H493 H 0.37732 0.50136 0.53156 0.0
C494 C 0.36836 0.56388 0.57605 0.0
C495 C 0.36585 0.59746 0.59939 0.0
C496 C 0.38771 0.55098 0.56467 0.0
C497 C 0.383 0.61786 0.61134 0.0
C498 C 0.40229 0.60513 0.60022 0.0
C499 C 0.42418 0.55889 0.5655 0.0
C500 C 0.4267 0.52542 0.54205 0.0
C501 C 0.40483 0.57178 0.57686 0.0
C502 C 0.40955 0.50506 0.53004 0.0
C503 C 0.39025 0.51769 0.54124 0.0
H504 H 0.36639 0.08328 0.89763 0.0
H505 H 0.35721 0.97837 0.96649 0.0
H506 H 0.38581 0.99738 0.00404 0.0
H507 H 0.41314 0.04471 0.01776 0.0
H508 H 0.4242 0.14575 0.94556 0.0
H509 H 0.39521 0.12748 0.90875 0.0
C510 C 0.3707 0.06463 0.92086 0.0
C511 C 0.35967 0.02975 0.92956 0.0
C512 C 0.38747 0.0751 0.94167 0.0
C513 C 0.36554 0.00536 0.95932 0.0
C514 C 0.38183 0.01629 0.98083 0.0
C515 C 0.40916 0.06263 0.99394 0.0
C516 C 0.4206 0.0967 0.98448 0.0
C517 C 0.39285 0.05121 0.97236 0.0
C518 C 0.41557 0.11936 0.95329 0.0
C519 C 0.39899 0.109 0.93231 0.0
H520 H 0.09767 0.56655 0.68252 0.0
H521 H 0.04793 0.57834 0.75637 0.0
H522 H 0.07123 0.56925 0.80692 0.0
H523 H 0.10581 0.55954 0.83029 0.0
H524 H 0.15555 0.54881 0.75629 0.0
H525 H 0.13213 0.55598 0.70579 0.0
C526 C 0.09188 0.56683 0.70965 0.0
C527 C 0.07106 0.57321 0.71556 0.0
C528 C 0.10537 0.56193 0.73865 0.0
C529 C 0.06387 0.57356 0.75096 0.0
C530 C 0.0772 0.56843 0.77994 0.0
C531 C 0.11155 0.55863 0.80313 0.0
C532 C 0.13244 0.55366 0.79717 0.0
C533 C 0.09799 0.56286 0.77411 0.0
C534 C 0.13956 0.55256 0.76174 0.0
C535 C 0.12618 0.55674 0.73279 0.0
H536 H 0.37782 0.80487 0.38909 0.0
H537 H 0.43305 0.87157 0.39478 0.0
H538 H 0.41458 0.93118 0.41913 0.0
H539 H 0.383 0.96339 0.44096 0.0
H540 H 0.32781 0.8966 0.43516 0.0
H541 H 0.34606 0.838 0.40868 0.0
C542 C 0.38583 0.8325 0.39546 0.0
C543 C 0.40681 0.83362 0.39028 0.0
C544 C 0.37515 0.8666 0.4096 0.0
C545 C 0.41691 0.8698 0.39854 0.0
C546 C 0.40637 0.9039 0.41255 0.0
C547 C 0.37496 0.93605 0.43383 0.0
C548 C 0.3541 0.93432 0.44019 0.0
C549 C 0.38553 0.90246 0.41857 0.0
C550 C 0.34387 0.89876 0.43057 0.0
C551 C 0.3543 0.8652 0.41546 0.0
H552 H 0.40651 0.42047 0.97753 0.0
H553 H 0.3866 0.4 0.86887 0.0
H554 H 0.42151 0.39192 0.84948 0.0
H555 H 0.45776 0.39238 0.86275 0.0
H556 H 0.47791 0.40991 0.97122 0.0
H557 H 0.44299 0.41783 0.99132 0.0
C558 C 0.4098 0.41413 0.94964 0.0
C559 C 0.39389 0.41105 0.92473 0.0
C560 C 0.42999 0.40946 0.93854 0.0
C561 C 0.39848 0.40258 0.88869 0.0
C562 C 0.41848 0.39801 0.87749 0.0
C563 C 0.45449 0.39793 0.89079 0.0
C564 C 0.47043 0.40209 0.91534 0.0
C565 C 0.43434 0.40167 0.9021 0.0
C566 C 0.46596 0.40867 0.95162 0.0
C567 C 0.44595 0.41255 0.96315 0.0
H568 H 0.08001 0.12623 0.30305 0.0
H569 H 0.11802 0.14765 0.21177 0.0
H570 H 0.148 0.14365 0.25038 0.0
H571 H 0.16344 0.131 0.30955 0.0
H572 H 0.12557 0.10524 0.40026 0.0
H573 H 0.09549 0.11358 0.36235 0.0
C574 C 0.09484 0.13062 0.29177 0.0
C575 C 0.09685 0.13744 0.25473 0.0
C576 C 0.11202 0.12711 0.31395 0.0
C577 C 0.11615 0.14238 0.24026 0.0
C578 C 0.13327 0.14005 0.26229 0.0
C579 C 0.1486 0.12761 0.32113 0.0
C580 C 0.14675 0.11781 0.35776 0.0
C581 C 0.1314 0.13191 0.2991 0.0
C582 C 0.12741 0.11286 0.37218 0.0
C583 C 0.11021 0.11773 0.35054 0.0
H584 H 0.26797 0.27024 0.00986 0.0
H585 H 0.25082 0.37251 0.07761 0.0
H586 H 0.22722 0.32944 0.10955 0.0
H587 H 0.21105 0.26308 0.11776 0.0
H588 H 0.22847 0.16052 0.05058 0.0
H589 H 0.25227 0.20344 0.01887 0.0
C590 C 0.25913 0.28309 0.0317 0.0
C591 C 0.26117 0.3246 0.04125 0.0
C592 C 0.24554 0.25816 0.04997 0.0
C593 C 0.2496 0.34068 0.06967 0.0
C594 C 0.23604 0.31609 0.08793 0.0
C595 C 0.22001 0.25012 0.09611 0.0
C596 C 0.21789 0.20868 0.08647 0.0
C597 C 0.2338 0.27487 0.07817 0.0
C598 C 0.22975 0.19233 0.05854 0.0
C599 C 0.2434 0.21685 0.04039 0.0
H600 H 0.72898 0.2831 0.84788 0.0
H601 H 0.79014 0.3074 0.87983 0.0
H602 H 0.78755 0.25942 0.93017 0.0
H603 H 0.7677 0.21182 0.96596 0.0
H604 H 0.70639 0.18817 0.93446 0.0
H605 H 0.70935 0.23445 0.88301 0.0
C606 C 0.74177 0.27787 0.86581 0.0
C607 C 0.7597 0.29895 0.86011 0.0
C608 C 0.74017 0.25031 0.89479 0.0
C609 C 0.77613 0.2917 0.8836 0.0
C610 C 0.77467 0.26423 0.91241 0.0
C611 C 0.75501 0.21657 0.94774 0.0
C612 C 0.73684 0.19656 0.95414 0.0
C613 C 0.75674 0.24352 0.91836 0.0
C614 C 0.72055 0.20319 0.93026 0.0
C615 C 0.72221 0.22972 0.90082 0.0
H616 H 0.78142 0.28635 0.5113 0.0
H617 H 0.73881 0.38434 0.48172 0.0
H618 H 0.71433 0.33395 0.46377 0.0
H619 H 0.70585 0.26232 0.45233 0.0
H620 H 0.74843 0.16409 0.48131 0.0
H621 H 0.77196 0.21429 0.50376 0.0
C622 C 0.7667 0.29669 0.50131 0.0
C623 C 0.76207 0.33911 0.49759 0.0
C624 C 0.75269 0.2675 0.49065 0.0
C625 C 0.74287 0.35192 0.48469 0.0
C626 C 0.72883 0.32311 0.47432 0.0
C627 C 0.72021 0.25184 0.46383 0.0
C628 C 0.72544 0.20955 0.46478 0.0
C629 C 0.73373 0.28086 0.47651 0.0
C630 C 0.74405 0.1965 0.48001 0.0
C631 C 0.75755 0.22519 0.49285 0.0
H632 H 0.71599 0.82639 0.21366 0.0
H633 H 0.77203 0.88915 0.20157 0.0
H634 H 0.78906 0.82477 0.18409 0.0
H635 H 0.78886 0.74954 0.17851 0.0
H636 H 0.73295 0.68662 0.19183 0.0
H637 H 0.71508 0.75223 0.20212 0.0
C638 C 0.73187 0.82615 0.20674 0.0
C639 C 0.74276 0.86248 0.20945 0.0
C640 C 0.74166 0.78889 0.19717 0.0
C641 C 0.76329 0.86161 0.20004 0.0
C642 C 0.77308 0.82475 0.19011 0.0
C643 C 0.77272 0.75018 0.18317 0.0
C644 C 0.76234 0.7131 0.18489 0.0
C645 C 0.76255 0.788 0.18957 0.0
C646 C 0.74138 0.71462 0.19066 0.0
C647 C 0.73113 0.75215 0.19665 0.0
H648 H 0.24351 0.87826 0.91698 0.0
H649 H 0.3071 0.85561 0.9376 0.0
H650 H 0.29994 0.78944 0.96537 0.0
H651 H 0.27613 0.7348 0.97753 0.0
H652 H 0.21268 0.75654 0.95518 0.0
H653 H 0.21929 0.82642 0.93488 0.0
C654 C 0.2558 0.85914 0.92799 0.0
C655 C 0.27584 0.87169 0.9247 0.0
C656 C 0.25162 0.82078 0.94345 0.0
C657 C 0.29153 0.84662 0.93943 0.0
C658 C 0.28747 0.80868 0.95528 0.0
C659 C 0.26369 0.75503 0.96881 0.0
C660 C 0.24397 0.74023 0.96751 0.0
C661 C 0.26764 0.79494 0.95649 0.0
C662 C 0.22803 0.76699 0.95627 0.0
C663 C 0.2318 0.80695 0.9445 0.0
H664 H 0.56157 0.79429 0.37017 0.0
H665 H 0.5284 0.84705 0.28029 0.0
H666 H 0.55881 0.8805 0.25938 0.0
H667 H 0.59478 0.89583 0.26751 0.0
H668 H 0.62831 0.83873 0.35515 0.0
H669 H 0.59788 0.80573 0.37598 0.0
C670 C 0.56103 0.81313 0.346 0.0
C671 C 0.54278 0.81857 0.32697 0.0
C672 C 0.57865 0.83141 0.33373 0.0
C673 C 0.54231 0.84245 0.29538 0.0
C674 C 0.55967 0.86164 0.28347 0.0
C675 C 0.5954 0.87605 0.29109 0.0
C676 C 0.61372 0.86991 0.30989 0.0
C677 C 0.57791 0.8565 0.30254 0.0
C678 C 0.61439 0.84385 0.34016 0.0
C679 C 0.59699 0.82508 0.35217 0.0
H680 H 0.58851 0.62761 0.9071 0.0
H681 H 0.62687 0.61845 0.00096 0.0
H682 H 0.59772 0.60369 0.03806 0.0
H683 H 0.56129 0.5943 0.0441 0.0
H684 H 0.52289 0.60385 0.95033 0.0
H685 H 0.55211 0.61765 0.91307 0.0
C686 C 0.59053 0.62222 0.93565 0.0
C687 C 0.60988 0.62416 0.95117 0.0
C688 C 0.57368 0.614 0.95692 0.0
C689 C 0.61217 0.61719 0.98825 0.0
C690 C 0.59549 0.60878 0.00954 0.0
C691 C 0.55929 0.59945 0.01552 0.0
C692 C 0.5399 0.59815 9e-05 0.0
C693 C 0.57617 0.60733 0.9942 0.0
C694 C 0.53763 0.60476 0.96297 0.0
C695 C 0.55434 0.61262 0.94159 0.0
H696 H 0.90681 0.11695 0.08653 0.0
H697 H 0.91117 0.24555 0.11298 0.0
H698 H 0.87478 0.25563 0.10487 0.0
H699 H 0.84159 0.22764 0.09185 0.0
H700 H 0.83719 0.09895 0.06582 0.0
H701 H 0.87373 0.08933 0.07212 0.0
C702 C 0.89984 0.14724 0.09041 0.0
C703 C 0.91174 0.18038 0.10048 0.0
C704 C 0.87887 0.15282 0.08585 0.0
C705 C 0.9024 0.21943 0.10532 0.0
C706 C 0.88157 0.22525 0.1007 0.0
C707 C 0.84861 0.1975 0.08743 0.0
C708 C 0.83663 0.16406 0.07848 0.0
C709 C 0.86963 0.19211 0.09122 0.0
C710 C 0.84602 0.12524 0.07279 0.0
C711 C 0.86693 0.11968 0.07641 0.0
H712 H 0.91736 0.381 0.51391 0.0
H713 H 0.8759 0.44675 0.58348 0.0
H714 H 0.9038 0.48415 0.6092 0.0
H715 H 0.93959 0.50153 0.60915 0.0
H716 H 0.98089 0.437 0.5385 0.0
H717 H 0.95346 0.39566 0.51625 0.0
C718 C 0.91443 0.4032 0.53495 0.0
C719 C 0.89453 0.41117 0.54658 0.0
C720 C 0.93052 0.42501 0.54935 0.0
C721 C 0.89105 0.44007 0.5739 0.0
C722 C 0.907 0.46156 0.58861 0.0
C723 C 0.94265 0.47814 0.58915 0.0
C724 C 0.96227 0.47258 0.5754 0.0
C725 C 0.92674 0.45479 0.57612 0.0
C726 C 0.96594 0.44208 0.54948 0.0
C727 C 0.95023 0.41844 0.53667 0.0
H728 H 0.62145 0.08049 0.1778 0.0
H729 H 0.57495 0.02967 0.24384 0.0
H730 H 0.55026 0.04159 0.19572 0.0
H731 H 0.54129 0.07196 0.13691 0.0
H732 H 0.58788 0.1235 0.07144 0.0
H733 H 0.6131 0.10531 0.11717 0.0
C734 C 0.60596 0.07167 0.18161 0.0
C735 C 0.60003 0.05472 0.21459 0.0
C736 C 0.59181 0.07887 0.15394 0.0
C737 C 0.57993 0.04304 0.21884 0.0
C738 C 0.56577 0.04991 0.19134 0.0
C739 C 0.557 0.07873 0.13241 0.0
C740 C 0.56261 0.09952 0.10092 0.0
C741 C 0.57145 0.06864 0.15906 0.0
C742 C 0.58307 0.10782 0.09551 0.0
C743 C 0.59753 0.09752 0.12171 0.0
H744 H 0.91078 0.49128 0.06243 0.0
H745 H 0.96202 0.53868 0.11883 0.0
H746 H 0.93956 0.58414 0.15336 0.0
H747 H 0.9053 0.60935 0.16846 0.0
H748 H 0.85417 0.5617 0.1119 0.0
H749 H 0.87671 0.51769 0.07637 0.0
C750 C 0.91707 0.51153 0.08228 0.0
C751 C 0.93807 0.51138 0.08812 0.0
C752 C 0.90409 0.53767 0.10196 0.0
C753 C 0.94592 0.53806 0.1138 0.0
C754 C 0.93309 0.56411 0.13357 0.0
C755 C 0.89909 0.58955 0.1482 0.0
C756 C 0.87806 0.58882 0.14293 0.0
C757 C 0.91214 0.56406 0.12797 0.0
C758 C 0.87028 0.56291 0.11657 0.0
C759 C 0.88316 0.53762 0.09626 0.0
H760 H 0.88325 0.89473 0.45389 0.0
H761 H 0.90635 0.00391 0.40415 0.0
H762 H 0.87529 0.04247 0.4193 0.0
H763 H 0.84201 0.04559 0.4484 0.0
H764 H 0.81944 0.93612 0.49866 0.0
H765 H 0.8499 0.89731 0.48146 0.0
C766 C 0.88151 0.92693 0.44619 0.0
C767 C 0.89715 0.9464 0.428 0.0
C768 C 0.86372 0.94892 0.45518 0.0
C769 C 0.89457 0.98814 0.41821 0.0
C770 C 0.87682 0.01024 0.42691 0.0
C771 C 0.84371 0.01321 0.45548 0.0
C772 C 0.82846 0.99389 0.47493 0.0
C773 C 0.86136 0.99101 0.44566 0.0
C774 C 0.83093 0.95187 0.48382 0.0
C775 C 0.84836 0.92959 0.474 0.0
H776 H 0.63538 0.44237 0.67361 0.0
H777 H 0.68132 0.41746 0.59433 0.0
H778 H 0.65549 0.3999 0.55079 0.0
H779 H 0.61996 0.39078 0.53527 0.0
H780 H 0.5739 0.41537 0.61433 0.0
H781 H 0.5997 0.43376 0.65784 0.0
C782 C 0.63975 0.43325 0.64677 0.0
C783 C 0.66028 0.43124 0.63732 0.0
C784 C 0.6248 0.42296 0.62182 0.0
C785 C 0.66565 0.41927 0.60241 0.0
C786 C 0.65088 0.40916 0.57745 0.0
C787 C 0.61554 0.40011 0.56203 0.0
C788 C 0.59502 0.40158 0.57151 0.0
C789 C 0.63043 0.41071 0.5869 0.0
C790 C 0.58958 0.41388 0.6063 0.0
C791 C 0.60433 0.42445 0.63122 0.0
H792 H 0.68408 0.00206 0.67598 0.0
H793 H 0.74894 0.00217 0.68713 0.0
H794 H 0.7481 0.94223 0.72699 0.0
H795 H 0.72888 0.89069 0.75974 0.0
H796 H 0.66406 0.88997 0.74774 0.0
H797 H 0.665 0.94908 0.70703 0.0
C798 C 0.69804 0.98898 0.68712 0.0
C799 C 0.71653 0.00675 0.67873 0.0
C800 C 0.69746 0.95435 0.70985 0.0
C801 C 0.73449 0.98916 0.69316 0.0
C802 C 0.73403 0.95488 0.71599 0.0
C803 C 0.71496 0.90336 0.74813 0.0
C804 C 0.69643 0.88598 0.75692 0.0
C805 C 0.71559 0.93735 0.72467 0.0
C806 C 0.67854 0.90269 0.74147 0.0
C807 C 0.67905 0.93659 0.71822 0.0
H808 H 0.24103 0.93274 0.55233 0.0
H809 H 0.30084 0.91176 0.50953 0.0
H810 H 0.30161 0.84142 0.53327 0.0
H811 H 0.28533 0.78585 0.56641 0.0
H812 H 0.22552 0.80729 0.60913 0.0
H813 H 0.22473 0.87729 0.58501 0.0
C814 C 0.25425 0.91282 0.54821 0.0
C815 C 0.27084 0.92754 0.52918 0.0
C816 C 0.25459 0.87238 0.56182 0.0
C817 C 0.28784 0.90125 0.52407 0.0
C818 C 0.2883 0.86098 0.53761 0.0
C819 C 0.27209 0.80577 0.57032 0.0
C820 C 0.25552 0.79125 0.58958 0.0
C821 C 0.27175 0.84618 0.5565 0.0
C822 C 0.2385 0.81758 0.59446 0.0
C823 C 0.23803 0.8577 0.5807 0.0
H824 H 0.19378 0.32261 0.63062 0.0
H825 H 0.21096 0.38065 0.53131 0.0
H826 H 0.22337 0.31426 0.50867 0.0
H827 H 0.23248 0.24136 0.51951 0.0
H828 H 0.21672 0.18421 0.62001 0.0
H829 H 0.20051 0.24864 0.6396 0.0
C830 C 0.19994 0.32071 0.60379 0.0
C831 C 0.20161 0.35668 0.58284 0.0
C832 C 0.20751 0.28264 0.59128 0.0
C833 C 0.20962 0.35353 0.54812 0.0
C834 C 0.21678 0.31558 0.53518 0.0
C835 C 0.22529 0.2428 0.54553 0.0
C836 C 0.22602 0.20809 0.5684 0.0
C837 C 0.21632 0.28017 0.55692 0.0
C838 C 0.21654 0.21053 0.60197 0.0
C839 C 0.20727 0.24739 0.61323 0.0
loop_
_geom_bond_atom_site_label_1
_geom_bond_atom_site_label_2
_geom_bond_distance
_geom_bond_site_symmetry_2
_ccdc_geom_bond_type
O0 Cd1 2.300 1_554 S
O0 C7 1.275 . S
Cd1 O0 2.300 1_556 S
Cd1 O9 2.381 . S
Cd1 O10 2.378 . S
O2 Cd3 2.385 1_454 S
O2 C7 1.255 . S
Cd3 O2 2.385 1_656 S
Cd3 O4 2.317 . S
O4 Cd3 2.317 . S
O4 C5 1.232 1_556 S
C5 O4 1.232 1_554 S
C5 O6 1.218 . S
O6 C5 1.218 . S
C7 O0 1.275 . S
C7 O2 1.255 . S
C8 O9 1.258 . S
C8 O10 1.256 . S
O9 Cd1 2.381 . S
O9 C8 1.258 . S
O10 Cd1 2.378 . S
O10 C8 1.256 . S
O11 Cd12 2.300 . S
O11 C18 1.275 . S
Cd12 O11 2.300 . S
Cd12 O20 2.381 . S
Cd12 O21 2.378 . S
O13 Cd14 2.385 . S
O13 C18 1.255 1_655 S
Cd14 O13 2.385 . S
Cd14 O15 2.317 . S
O15 Cd14 2.317 . S
O15 C16 1.232 . S
C16 O15 1.232 . S
C16 O17 1.218 . S
O17 C16 1.218 . S
C18 O11 1.275 . S
C18 O13 1.255 1_455 S
C19 O20 1.258 . S
C19 O21 1.256 . S
O20 Cd12 2.381 . S
O20 C19 1.258 . S
O21 Cd12 2.378 . S
O21 C19 1.256 . S
O22 Cd23 2.300 . S
O22 C29 1.275 . S
Cd23 O22 2.300 . S
Cd23 O31 2.381 . S
Cd23 O32 2.378 . S
O24 Cd25 2.385 . S
O24 C29 1.255 . S
Cd25 O24 2.385 . S
Cd25 O26 2.317 . S
O26 Cd25 2.317 . S
O26 C27 1.232 . S
C27 O26 1.232 . S
C27 O28 1.218 . S
O28 C27 1.218 . S
C29 O22 1.275 . S
C29 O24 1.255 . S
C30 O31 1.258 . S
C30 O32 1.256 . S
O31 Cd23 2.381 . S
O31 C30 1.258 . S
O32 Cd23 2.378 . S
O32 C30 1.256 . S
O33 Cd34 2.300 . S
O33 C40 1.275 . S
Cd34 O33 2.300 . S
Cd34 O42 2.381 . S
Cd34 O43 2.378 . S
O35 Cd36 2.385 . S
O35 C40 1.255 . S
Cd36 O35 2.385 . S
Cd36 O37 2.317 1_556 S
O37 Cd36 2.317 1_554 S
O37 C38 1.232 . S
C38 O37 1.232 . S
C38 O39 1.218 . S
O39 C38 1.218 . S
C40 O33 1.275 . S
C40 O35 1.255 . S
C41 O42 1.258 . S
C41 O43 1.256 . S
O42 Cd34 2.381 . S
O42 C41 1.258 . S
O43 Cd34 2.378 . S
O43 C41 1.256 . S
O44 Cd45 2.300 . S
O44 C51 1.275 1_655 S
Cd45 O44 2.300 . S
Cd45 O53 2.381 . S
Cd45 O54 2.378 . S
O46 Cd47 2.385 . S
O46 C51 1.255 . S
Cd47 O46 2.385 . S
Cd47 O48 2.317 . S
O48 Cd47 2.317 . S
O48 C49 1.232 . S
C49 O48 1.232 . S
C49 O50 1.218 . S
O50 C49 1.218 . S
C51 O44 1.275 1_455 S
C51 O46 1.255 . S
C52 O53 1.258 . S
C52 O54 1.256 . S
O53 Cd45 2.381 . S
O53 C52 1.258 . S
O54 Cd45 2.378 . S
O54 C52 1.256 . S
O55 Cd56 2.300 . S
O55 C62 1.275 . S
Cd56 O55 2.300 . S
Cd56 O64 2.381 . S
Cd56 O65 2.378 . S
O57 Cd58 2.385 . S
O57 C62 1.255 . S
Cd58 O57 2.385 . S
Cd58 O59 2.317 . S
O59 Cd58 2.317 . S
O59 C60 1.232 . S
C60 O59 1.232 . S
C60 O61 1.218 . S
O61 C60 1.218 . S
C62 O55 1.275 . S
C62 O57 1.255 . S
C63 O64 1.258 . S
C63 O65 1.256 . S
O64 Cd56 2.381 . S
O64 C63 1.258 . S
O65 Cd56 2.378 . S
O65 C63 1.256 . S
O66 Cd67 2.300 1_554 S
O66 C73 1.275 . S
Cd67 O66 2.300 1_556 S
Cd67 O75 2.381 . S
Cd67 O76 2.378 . S
O68 Cd69 2.385 . S
O68 C73 1.255 1_556 S
Cd69 O68 2.385 . S
Cd69 O70 2.317 . S
O70 Cd69 2.317 . S
O70 C71 1.232 . S
C71 O70 1.232 . S
C71 O72 1.218 . S
O72 C71 1.218 . S
C73 O66 1.275 . S
C73 O68 1.255 1_554 S
C74 O75 1.258 . S
C74 O76 1.256 . S
O75 Cd67 2.381 . S
O75 C74 1.258 . S
O76 Cd67 2.378 . S
O76 C74 1.256 . S
O77 Cd78 2.300 . S
O77 C84 1.275 . S
Cd78 O77 2.300 . S
Cd78 O86 2.381 . S
Cd78 O87 2.378 . S
O79 Cd80 2.385 . S
O79 C84 1.255 1_655 S
Cd80 O79 2.385 . S
Cd80 O81 2.317 . S
O81 Cd80 2.317 . S
O81 C82 1.232 . S
C82 O81 1.232 . S
C82 O83 1.218 . S
O83 C82 1.218 . S
C84 O77 1.275 . S
C84 O79 1.255 1_455 S
C85 O86 1.258 . S
C85 O87 1.256 . S
O86 Cd78 2.381 . S
O86 C85 1.258 . S
O87 Cd78 2.378 . S
O87 C85 1.256 . S
O88 Cd89 2.303 . S
O88 C95 1.251 1_565 S
Cd89 O88 2.303 . S
Cd89 O97 2.381 . S
Cd89 O98 2.378 . S
O90 Cd91 2.385 . S
O90 C95 1.255 . S
Cd91 O90 2.385 . S
Cd91 O92 2.317 . S
O92 Cd91 2.317 . S
O92 C93 1.232 . S
C93 O92 1.232 . S
C93 O94 1.218 . S
O94 C93 1.218 . S
C95 O88 1.251 1_545 S
C95 O90 1.255 . S
C96 O97 1.258 . S
C96 O98 1.256 . S
O97 Cd89 2.381 . S
O97 C96 1.258 . S
O98 Cd89 2.378 . S
O98 C96 1.256 . S
O99 Cd100 2.300 . S
O99 C106 1.275 . S
Cd100 O99 2.300 . S
Cd100 O108 2.381 . S
Cd100 O109 2.378 . S
O101 Cd102 2.385 . S
O101 C106 1.255 . S
Cd102 O101 2.385 . S
Cd102 O103 2.317 . S
O103 Cd102 2.317 . S
O103 C104 1.232 . S
C104 O103 1.232 . S
C104 O105 1.218 . S
O105 C104 1.218 . S
C106 O99 1.275 . S
C106 O101 1.255 . S
C107 O108 1.258 . S
C107 O109 1.256 . S
O108 Cd100 2.381 . S
O108 C107 1.258 . S
O109 Cd100 2.378 . S
O109 C107 1.256 . S
O110 Cd111 2.300 . S
O110 C117 1.275 . S
Cd111 O110 2.300 . S
Cd111 O119 2.381 . S
Cd111 O120 2.378 . S
O112 Cd113 2.385 . S
O112 C117 1.255 . S
Cd113 O112 2.385 . S
Cd113 O114 2.317 1_565 S
O114 Cd113 2.317 1_545 S
O114 C115 1.232 . S
C115 O114 1.232 . S
C115 O116 1.218 . S
O116 C115 1.218 . S
C117 O110 1.275 . S
C117 O112 1.255 . S
C118 O119 1.258 . S
C118 O120 1.256 . S
O119 Cd111 2.381 . S
O119 C118 1.258 . S
O120 Cd111 2.378 . S
O120 C118 1.256 . S
O121 Cd122 2.300 1_556 S
O121 C128 1.275 . S
Cd122 O121 2.300 1_554 S
Cd122 O130 2.381 . S
Cd122 O131 2.378 . S
O123 Cd124 2.385 . S
O123 C128 1.255 . S
Cd124 O123 2.385 . S
Cd124 O125 2.317 . S
O125 Cd124 2.317 . S
O125 C126 1.232 . S
C126 O125 1.232 . S
C126 O127 1.218 . S
O127 C126 1.218 . S
C128 O121 1.275 . S
C128 O123 1.255 . S
C129 O130 1.258 . S
C129 O131 1.256 . S
O130 Cd122 2.381 . S
O130 C129 1.258 . S
O131 Cd122 2.378 . S
O131 C129 1.256 . S
O132 Cd133 2.300 . S
O132 C139 1.275 . S
Cd133 O132 2.300 . S
Cd133 O141 2.381 1_565 S
Cd133 O142 2.378 1_565 S
O134 Cd135 2.385 . S
O134 C139 1.255 . S
Cd135 O134 2.385 . S
Cd135 O136 2.317 . S
O136 Cd135 2.317 . S
O136 C137 1.232 . S
C137 O136 1.232 . S
C137 O138 1.218 . S
O138 C137 1.218 . S
C139 O132 1.275 . S
C139 O134 1.255 . S
C140 O141 1.258 . S
C140 O142 1.256 . S
O141 Cd133 2.381 1_545 S
O141 C140 1.258 . S
O142 Cd133 2.378 1_545 S
O142 C140 1.256 . S
O143 Cd144 2.300 . S
O143 C150 1.275 . S
Cd144 O143 2.300 . S
Cd144 O152 2.381 . S
Cd144 O153 2.378 . S
O145 Cd146 2.385 . S
O145 C150 1.255 . S
Cd146 O145 2.385 . S
Cd146 O147 2.317 . S
O147 Cd146 2.317 . S
O147 C148 1.232 . S
C148 O147 1.232 . S
C148 O149 1.218 . S
O149 C148 1.218 . S
C150 O143 1.275 . S
C150 O145 1.255 . S
C151 O152 1.258 . S
C151 O153 1.256 . S
O152 Cd144 2.381 . S
O152 C151 1.258 . S
O153 Cd144 2.378 . S
O153 C151 1.256 . S
O154 Cd155 2.300 . S
O154 C161 1.275 . S
Cd155 O154 2.300 . S
Cd155 O163 2.381 . S
Cd155 O164 2.378 . S
O156 Cd157 2.385 . S
O156 C161 1.255 . S
Cd157 O156 2.385 . S
Cd157 O158 2.317 1_545 S
O158 Cd157 2.317 1_565 S
O158 C159 1.232 . S
C159 O158 1.232 . S
C159 O160 1.218 . S
O160 C159 1.218 . S
C161 O154 1.275 . S
C161 O156 1.255 . S
C162 O163 1.258 . S
C162 O164 1.256 . S
O163 Cd155 2.381 . S
O163 C162 1.258 . S
O164 Cd155 2.378 . S
O164 C162 1.256 . S
O165 Cd166 2.300 . S
O165 C172 1.275 . S
Cd166 O165 2.300 . S
Cd166 O174 2.381 . S
Cd166 O175 2.378 . S
O167 Cd168 2.385 . S
O167 C172 1.255 . S
Cd168 O167 2.385 . S
Cd168 O169 2.317 . S
O169 Cd168 2.317 . S
O169 C170 1.232 . S
C170 O169 1.232 . S
C170 O171 1.218 . S
O171 C170 1.218 . S
C172 O165 1.275 . S
C172 O167 1.255 . S
C173 O174 1.258 . S
C173 O175 1.256 . S
O174 Cd166 2.381 . S
O174 C173 1.258 . S
O175 Cd166 2.378 . S
O175 C173 1.256 . S
O176 Cd177 2.300 . S
O176 C183 1.275 . S
Cd177 O176 2.300 . S
Cd177 O185 2.381 . S
Cd177 O186 2.378 1_554 S
O178 Cd179 2.385 1_554 S
O178 C183 1.255 . S
Cd179 O178 2.385 1_556 S
Cd179 O180 2.317 . S
O180 Cd179 2.317 . S
O180 C181 1.232 . S
C181 O180 1.232 . S
C181 O182 1.218 . S
O182 C181 1.218 . S
C183 O176 1.275 . S
C183 O178 1.255 . S
C184 O185 1.258 . S
C184 O186 1.256 1_554 S
O185 Cd177 2.381 . S
O185 C184 1.258 . S
O186 Cd177 2.378 1_556 S
O186 C184 1.256 1_556 S
O187 Cd188 2.300 . S
O187 C194 1.275 . S
Cd188 O187 2.300 . S
Cd188 O196 2.381 . S
Cd188 O197 2.378 . S
O189 Cd190 2.385 . S
O189 C194 1.255 . S
Cd190 O189 2.385 . S
Cd190 O191 2.317 . S
O191 Cd190 2.317 . S
O191 C192 1.232 . S
C192 O191 1.232 . S
C192 O193 1.218 . S
O193 C192 1.218 . S
C194 O187 1.275 . S
C194 O189 1.255 . S
C195 O196 1.258 . S
C195 O197 1.256 . S
O196 Cd188 2.381 . S
O196 C195 1.258 . S
O197 Cd188 2.378 . S
O197 C195 1.256 . S
O198 Cd199 2.300 . S
O198 C205 1.275 . S
Cd199 O198 2.300 . S
Cd199 O207 2.381 . S
Cd199 O208 2.378 . S
O200 Cd201 2.385 . S
O200 C205 1.255 . S
Cd201 O200 2.385 . S
Cd201 O202 2.317 . S
O202 Cd201 2.317 . S
O202 C203 1.232 . S
C203 O202 1.232 . S
C203 O204 1.218 . S
O204 C203 1.218 . S
C205 O198 1.275 . S
C205 O200 1.255 . S
C206 O207 1.258 . S
C206 O208 1.256 . S
O207 Cd199 2.381 . S
O207 C206 1.258 . S
O208 Cd199 2.378 . S
O208 C206 1.256 . S
O209 Cd210 2.300 . S
O209 C216 1.275 . S
Cd210 O209 2.300 . S
Cd210 O218 2.381 . S
Cd210 O219 2.378 . S
O211 Cd212 2.385 . S
O211 C216 1.255 . S
Cd212 O211 2.385 . S
Cd212 O213 2.317 . S
O213 Cd212 2.317 . S
O213 C214 1.232 . S
C214 O213 1.232 . S
C214 O215 1.218 . S
O215 C214 1.218 . S
C216 O209 1.275 . S
C216 O211 1.255 . S
C217 O218 1.258 . S
C217 O219 1.256 . S
O218 Cd210 2.381 . S
O218 C217 1.258 . S
O219 Cd210 2.378 . S
O219 C217 1.256 . S
O220 Cd221 2.300 . S
O220 C227 1.275 . S
Cd221 O220 2.300 . S
Cd221 O229 2.381 . S
Cd221 O230 2.378 . S
O222 Cd223 2.385 . S
O222 C227 1.255 . S
Cd223 O222 2.385 . S
Cd223 O224 2.317 . S
O224 Cd223 2.317 . S
O224 C225 1.232 . S
C225 O224 1.232 . S
C225 O226 1.218 . S
O226 C225 1.218 . S
C227 O220 1.275 . S
C227 O222 1.255 . S
C228 O229 1.258 . S
C228 O230 1.256 . S
O229 Cd221 2.381 . S
O229 C228 1.258 . S
O230 Cd221 2.378 . S
O230 C228 1.256 . S
O231 Cd232 2.300 . S
O231 C238 1.275 . S
Cd232 O231 2.300 . S
Cd232 O240 2.381 . S
Cd232 O241 2.378 . S
O233 Cd234 2.385 . S
O233 C238 1.255 . S
Cd234 O233 2.385 . S
Cd234 O235 2.317 . S
O235 Cd234 2.317 . S
O235 C236 1.232 . S
C236 O235 1.232 . S
C236 O237 1.218 . S
O237 C236 1.218 . S
C238 O231 1.275 . S
C238 O233 1.255 . S
C239 O240 1.258 . S
C239 O241 1.256 . S
O240 Cd232 2.381 . S
O240 C239 1.258 . S
O241 Cd232 2.378 . S
O241 C239 1.256 . S
O242 Cd243 2.300 1_545 S
O242 C249 1.275 . S
Cd243 O242 2.300 1_565 S
Cd243 O251 2.381 . S
Cd243 O252 2.378 . S
O244 Cd245 2.385 . S
O244 C249 1.255 1_565 S
Cd245 O244 2.385 . S
Cd245 O246 2.317 . S
O246 Cd245 2.317 . S
O246 C247 1.232 1_565 S
C247 O246 1.232 1_545 S
C247 O248 1.218 1_545 S
O248 C247 1.218 1_565 S
C249 O242 1.275 . S
C249 O244 1.255 1_545 S
C250 O251 1.258 . S
C250 O252 1.256 . S
O251 Cd243 2.381 . S
O251 C250 1.258 . S
O252 Cd243 2.378 . S
O252 C250 1.256 . S
O253 Cd254 2.300 . S
O253 C260 1.275 . S
Cd254 O253 2.300 . S
Cd254 O262 2.381 . S
Cd254 O263 2.378 . S
O255 Cd256 2.385 . S
O255 C260 1.255 . S
Cd256 O255 2.385 . S
Cd256 O257 2.317 . S
O257 Cd256 2.317 . S
O257 C258 1.232 . S
C258 O257 1.232 . S
C258 O259 1.218 . S
O259 C258 1.218 . S
C260 O253 1.275 . S
C260 O255 1.255 . S
C261 O262 1.258 . S
C261 O263 1.256 . S
O262 Cd254 2.381 . S
O262 C261 1.258 . S
O263 Cd254 2.378 . S
O263 C261 1.256 . S
H264 C270 0.930 1_655 S
H265 C273 0.930 . S
H266 C274 0.930 . S
H267 C275 0.930 . S
H268 C278 0.930 1_655 S
H269 C279 0.963 . S
C270 H264 0.930 1_455 S
C270 C271 1.355 . S
C270 C272 1.415 . S
C271 C270 1.355 . S
C271 C273 1.419 . S
C272 C270 1.415 . S
C272 C277 1.425 . S
C272 C279 1.392 1_455 S
C273 H265 0.930 . S
C273 C271 1.419 . S
C273 C274 1.362 . S
C274 H266 0.930 . S
C274 C273 1.362 . S
C274 C277 1.409 . S
C275 H267 0.930 . S
C275 C276 1.355 . S
C275 C277 1.415 . S
C276 C275 1.355 . S
C276 C278 1.419 . S
C277 C272 1.425 . S
C277 C274 1.409 . S
C277 C275 1.415 . S
C278 H268 0.930 1_455 S
C278 C276 1.419 . S
C278 C279 1.350 1_455 S
C279 H269 0.963 . S
C279 C272 1.392 1_655 S
C279 C278 1.350 1_655 S
H280 C286 0.930 . S
H281 C289 0.930 . S
H282 C290 0.930 . S
H283 C291 0.930 . S
H284 C294 0.930 . S
H285 C295 0.930 . S
C286 H280 0.930 . S
C286 C287 1.355 . S
C286 C288 1.415 . S
C287 C286 1.355 . S
C287 C289 1.419 1_455 S
C288 C286 1.415 . S
C288 C293 1.425 1_455 S
C288 C295 1.409 . S
C289 H281 0.930 . S
C289 C287 1.419 1_655 S
C289 C290 1.362 . S
C290 H282 0.930 . S
C290 C289 1.362 . S
C290 C293 1.409 . S
C291 H283 0.930 . S
C291 C292 1.355 1_655 S
C291 C293 1.415 . S
C292 C291 1.355 1_455 S
C292 C294 1.419 . S
C293 C288 1.425 1_655 S
C293 C290 1.409 . S
C293 C291 1.415 . S
C294 H284 0.930 . S
C294 C292 1.419 . S
C294 C295 1.362 . S
C295 H285 0.930 . S
C295 C288 1.409 . S
C295 C294 1.362 . S
H296 C302 0.930 . S
H297 C305 0.930 . S
H298 C306 0.930 . S
H299 C307 0.930 . S
H300 C310 0.930 . S
H301 C311 0.930 . S
C302 H296 0.930 . S
C302 C303 1.355 . S
C302 C304 1.415 . S
C303 C302 1.355 . S
C303 C305 1.419 . S
C304 C302 1.415 . S
C304 C309 1.425 . S
C304 C311 1.409 . S
C305 H297 0.930 . S
C305 C303 1.419 . S
C305 C306 1.362 . S
C306 H298 0.930 . S
C306 C305 1.362 . S
C306 C309 1.409 . S
C307 H299 0.930 . S
C307 C308 1.355 . S
C307 C309 1.415 . S
C308 C307 1.355 . S
C308 C310 1.419 . S
C309 C304 1.425 . S
C309 C306 1.409 . S
C309 C307 1.415 . S
C310 H300 0.930 . S
C310 C308 1.419 . S
C310 C311 1.362 . S
C311 H301 0.930 . S
C311 C304 1.409 . S
C311 C310 1.362 . S
H312 C318 0.930 . S
H313 C321 0.930 . S
H314 C322 0.930 . S
H315 C323 0.930 . S
H316 C326 0.930 . S
H317 C327 0.930 . S
C318 H312 0.930 . S
C318 C319 1.355 . S
C318 C320 1.415 . S
C319 C318 1.355 . S
C319 C321 1.419 1_554 S
C320 C318 1.415 . S
C320 C325 1.425 1_554 S
C320 C327 1.409 . S
C321 H313 0.930 . S
C321 C319 1.419 1_556 S
C321 C322 1.362 . S
C322 H314 0.930 . S
C322 C321 1.362 . S
C322 C325 1.409 . S
C323 H315 0.930 . S
C323 C324 1.355 . S
C323 C325 1.415 . S
C324 C323 1.355 . S
C324 C326 1.419 1_556 S
C325 C320 1.425 1_556 S
C325 C322 1.409 . S
C325 C323 1.415 . S
C326 H316 0.930 . S
C326 C324 1.419 1_554 S
C326 C327 1.362 . S
C327 H317 0.930 . S
C327 C320 1.409 . S
C327 C326 1.362 . S
H328 C334 0.930 . S
H329 C337 0.930 . S
H330 C338 0.930 . S
H331 C339 0.930 . S
H332 C342 0.930 . S
H333 C343 0.930 . S
C334 H328 0.930 . S
C334 C335 1.355 . S
C334 C336 1.415 . S
C335 C334 1.355 . S
C335 C337 1.419 . S
C336 C334 1.415 . S
C336 C341 1.425 1_545 S
C336 C343 1.409 . S
C337 H329 0.930 . S
C337 C335 1.419 . S
C337 C338 1.362 1_545 S
C338 H330 0.930 . S
C338 C337 1.362 1_565 S
C338 C341 1.409 . S
C339 H331 0.930 . S
C339 C340 1.355 . S
C339 C341 1.415 . S
C340 C339 1.355 . S
C340 C342 1.419 . S
C341 C336 1.425 1_565 S
C341 C338 1.409 . S
C341 C339 1.415 . S
C342 H332 0.930 . S
C342 C340 1.419 . S
C342 C343 1.362 1_565 S
C343 H333 0.930 . S
C343 C336 1.409 . S
C343 C342 1.362 1_545 S
H344 C350 0.930 . S
H345 C353 0.930 . S
H346 C354 0.930 . S
H347 C355 0.930 . S
H348 C358 0.930 . S
H349 C359 0.930 . S
C350 H344 0.930 . S
C350 C351 1.355 . S
C350 C352 1.415 . S
C351 C350 1.355 . S
C351 C353 1.419 . S
C352 C350 1.415 . S
C352 C357 1.425 . S
C352 C359 1.409 . S
C353 H345 0.930 . S
C353 C351 1.419 . S
C353 C354 1.362 . S
C354 H346 0.930 . S
C354 C353 1.362 . S
C354 C357 1.409 . S
C355 H347 0.930 . S
C355 C356 1.355 . S
C355 C357 1.415 . S
C356 C355 1.355 . S
C356 C358 1.419 . S
C357 C352 1.425 . S
C357 C354 1.409 . S
C357 C355 1.415 . S
C358 H348 0.930 . S
C358 C356 1.419 . S
C358 C359 1.362 . S
C359 H349 0.930 . S
C359 C352 1.409 . S
C359 C358 1.362 . S
H360 C366 0.930 1_545 S
H361 C369 0.930 . S
H362 C370 0.930 . S
H363 C371 0.930 . S
H364 C374 0.930 . S
H365 C375 0.930 . S
C366 H360 0.930 1_565 S
C366 C367 1.355 . S
C366 C368 1.415 1_565 S
C367 C366 1.355 . S
C367 C369 1.419 . S
C368 C366 1.415 1_545 S
C368 C373 1.425 1_545 S
C368 C375 1.409 . S
C369 H361 0.930 . S
C369 C367 1.419 . S
C369 C370 1.362 . S
C370 H362 0.930 . S
C370 C369 1.362 . S
C370 C373 1.409 . S
C371 H363 0.930 . S
C371 C372 1.355 1_565 S
C371 C373 1.415 . S
C372 C371 1.355 1_545 S
C372 C374 1.419 . S
C373 C368 1.425 1_565 S
C373 C370 1.409 . S
C373 C371 1.415 . S
C374 H364 0.930 . S
C374 C372 1.419 . S
C374 C375 1.362 . S
C375 H365 0.930 . S
C375 C368 1.409 . S
C375 C374 1.362 . S
H376 C382 0.930 . S
H377 C385 0.930 . S
H378 C386 0.930 . S
H379 C387 0.930 . S
H380 C390 0.930 . S
H381 C391 0.930 . S
C382 H376 0.930 . S
C382 C383 1.355 . S
C382 C384 1.415 . S
C383 C382 1.355 . S
C383 C385 1.419 . S
C384 C382 1.415 . S
C384 C389 1.425 . S
C384 C391 1.409 . S
C385 H377 0.930 . S
C385 C383 1.419 . S
C385 C386 1.362 . S
C386 H378 0.930 . S
C386 C385 1.362 . S
C386 C389 1.409 . S
C387 H379 0.930 . S
C387 C388 1.355 . S
C387 C389 1.415 . S
C388 C387 1.355 . S
C388 C390 1.419 . S
C389 C384 1.425 . S
C389 C386 1.409 . S
C389 C387 1.415 . S
C390 H380 0.930 . S
C390 C388 1.419 . S
C390 C391 1.362 . S
C391 H381 0.930 . S
C391 C384 1.409 . S
C391 C390 1.362 . S
H392 C398 0.930 . S
H393 C401 0.930 . S
H394 C402 0.930 . S
H395 C403 0.930 . S
H396 C406 0.930 . S
H397 C407 0.930 . S
C398 H392 0.930 . S
C398 C399 1.355 . S
C398 C400 1.415 . S
C399 C398 1.355 . S
C399 C401 1.419 . S
C400 C398 1.415 . S
C400 C405 1.425 . S
C400 C407 1.409 . S
C401 H393 0.930 . S
C401 C399 1.419 . S
C401 C402 1.362 . S
C402 H394 0.930 . S
C402 C401 1.362 . S
C402 C405 1.409 . S
C403 H395 0.930 . S
C403 C404 1.355 . S
C403 C405 1.415 . S
C404 C403 1.355 . S
C404 C406 1.419 . S
C405 C400 1.425 . S
C405 C402 1.409 . S
C405 C403 1.415 . S
C406 H396 0.930 . S
C406 C404 1.419 . S
C406 C407 1.362 . S
C407 H397 0.930 . S
C407 C400 1.409 . S
C407 C406 1.362 . S
H408 C414 0.930 . S
H409 C417 0.930 . S
H410 C418 0.930 . S
H411 C419 0.930 . S
H412 C422 0.930 . S
H413 C423 0.930 . S
C414 H408 0.930 . S
C414 C415 1.355 . S
C414 C416 1.415 . S
C415 C414 1.355 . S
C415 C417 1.419 . S
C416 C414 1.415 . S
C416 C421 1.425 . S
C416 C423 1.409 . S
C417 H409 0.930 . S
C417 C415 1.419 . S
C417 C418 1.362 . S
C418 H410 0.930 . S
C418 C417 1.362 . S
C418 C421 1.409 . S
C419 H411 0.930 . S
C419 C420 1.355 . S
C419 C421 1.415 . S
C420 C419 1.355 . S
C420 C422 1.419 . S
C421 C416 1.425 . S
C421 C418 1.409 . S
C421 C419 1.415 . S
C422 H412 0.930 . S
C422 C420 1.419 . S
C422 C423 1.362 . S
C423 H413 0.930 . S
C423 C416 1.409 . S
C423 C422 1.362 . S
H424 C430 0.930 . S
H425 C433 0.930 . S
H426 C434 0.930 . S
H427 C435 0.930 . S
H428 C438 0.930 . S
H429 C439 0.930 . S
C430 H424 0.930 . S
C430 C431 1.355 . S
C430 C432 1.415 . S
C431 C430 1.355 . S
C431 C433 1.419 1_565 S
C432 C430 1.415 . S
C432 C437 1.425 1_565 S
C432 C439 1.409 . S
C433 H425 0.930 . S
C433 C431 1.419 1_545 S
C433 C434 1.362 . S
C434 H426 0.930 . S
C434 C433 1.362 . S
C434 C437 1.409 . S
C435 H427 0.930 . S
C435 C436 1.355 . S
C435 C437 1.415 . S
C436 C435 1.355 . S
C436 C438 1.419 1_545 S
C437 C432 1.425 1_545 S
C437 C434 1.409 . S
C437 C435 1.415 . S
C438 H428 0.930 . S
C438 C436 1.419 1_565 S
C438 C439 1.362 . S
C439 H429 0.930 . S
C439 C432 1.409 . S
C439 C438 1.362 . S
H440 C446 0.930 . S
H441 C449 0.930 . S
H442 C450 0.930 . S
H443 C451 0.930 . S
H444 C454 0.930 . S
H445 C455 0.930 . S
C446 H440 0.930 . S
C446 C447 1.355 . S
C446 C448 1.415 . S
C447 C446 1.355 . S
C447 C449 1.419 . S
C448 C446 1.415 . S
C448 C453 1.425 . S
C448 C455 1.409 . S
C449 H441 0.930 . S
C449 C447 1.419 . S
C449 C450 1.362 . S
C450 H442 0.930 . S
C450 C449 1.362 . S
C450 C453 1.409 . S
C451 H443 0.930 . S
C451 C452 1.355 . S
C451 C453 1.415 . S
C452 C451 1.355 . S
C452 C454 1.419 . S
C453 C448 1.425 . S
C453 C450 1.409 . S
C453 C451 1.415 . S
C454 H444 0.930 . S
C454 C452 1.419 . S
C454 C455 1.362 . S
C455 H445 0.930 . S
C455 C448 1.409 . S
C455 C454 1.362 . S
H456 C462 0.930 . S
H457 C465 0.930 . S
H458 C466 0.930 . S
H459 C467 0.930 . S
H460 C470 0.930 . S
H461 C471 0.930 . S
C462 H456 0.930 . S
C462 C463 1.355 . S
C462 C464 1.415 . S
C463 C462 1.355 . S
C463 C465 1.419 . S
C464 C462 1.415 . S
C464 C469 1.425 . S
C464 C471 1.409 . S
C465 H457 0.930 . S
C465 C463 1.419 . S
C465 C466 1.362 . S
C466 H458 0.930 . S
C466 C465 1.362 . S
C466 C469 1.409 . S
C467 H459 0.930 . S
C467 C468 1.355 . S
C467 C469 1.415 . S
C468 C467 1.355 . S
C468 C470 1.419 . S
C469 C464 1.425 . S
C469 C466 1.409 . S
C469 C467 1.415 . S
C470 H460 0.930 . S
C470 C468 1.419 . S
C470 C471 1.362 . S
C471 H461 0.930 . S
C471 C464 1.409 . S
C471 C470 1.362 . S
H472 C478 0.930 . S
H473 C481 0.930 . S
H474 C482 0.930 . S
H475 C483 0.930 1_545 S
H476 C486 0.930 . S
H477 C487 0.930 . S
C478 H472 0.930 . S
C478 C479 1.355 . S
C478 C480 1.415 . S
C479 C478 1.355 . S
C479 C481 1.419 1_565 S
C480 C478 1.415 . S
C480 C485 1.425 . S
C480 C487 1.409 . S
C481 H473 0.930 . S
C481 C479 1.419 1_545 S
C481 C482 1.362 . S
C482 H474 0.930 . S
C482 C481 1.362 . S
C482 C485 1.409 1_545 S
C483 H475 0.930 1_565 S
C483 C484 1.355 . S
C483 C485 1.415 . S
C484 C483 1.355 . S
C484 C486 1.419 . S
C485 C480 1.425 . S
C485 C482 1.409 1_565 S
C485 C483 1.415 . S
C486 H476 0.930 . S
C486 C484 1.419 . S
C486 C487 1.362 . S
C487 H477 0.930 . S
C487 C480 1.409 . S
C487 C486 1.362 . S
H488 C494 0.930 . S
H489 C497 0.930 . S
H490 C498 0.930 . S
H491 C499 0.930 . S
H492 C502 0.930 . S
H493 C503 0.930 . S
C494 H488 0.930 . S
C494 C495 1.355 . S
C494 C496 1.415 . S
C495 C494 1.355 . S
C495 C497 1.419 . S
C496 C494 1.415 . S
C496 C501 1.425 . S
C496 C503 1.409 . S
C497 H489 0.930 . S
C497 C495 1.419 . S
C497 C498 1.362 . S
C498 H490 0.930 . S
C498 C497 1.362 . S
C498 C501 1.409 . S
C499 H491 0.930 . S
C499 C500 1.355 . S
C499 C501 1.415 . S
C500 C499 1.355 . S
C500 C502 1.419 . S
C501 C496 1.425 . S
C501 C498 1.409 . S
C501 C499 1.415 . S
C502 H492 0.930 . S
C502 C500 1.419 . S
C502 C503 1.362 . S
C503 H493 0.930 . S
C503 C496 1.409 . S
C503 C502 1.362 . S
H504 C510 0.930 . S
H505 C513 0.930 . S
H506 C514 0.930 . S
H507 C515 0.930 . S
H508 C518 0.930 . S
H509 C519 0.930 . S
C510 H504 0.930 . S
C510 C511 1.355 . S
C510 C512 1.415 . S
C511 C510 1.355 . S
C511 C513 1.419 . S
C512 C510 1.415 . S
C512 C517 1.425 . S
C512 C519 1.409 . S
C513 H505 0.930 . S
C513 C511 1.419 . S
C513 C514 1.362 . S
C514 H506 0.930 . S
C514 C513 1.362 . S
C514 C517 1.409 . S
C515 H507 0.930 . S
C515 C516 1.355 . S
C515 C517 1.415 . S
C516 C515 1.355 . S
C516 C518 1.419 . S
C517 C512 1.425 . S
C517 C514 1.409 . S
C517 C515 1.415 . S
C518 H508 0.930 . S
C518 C516 1.419 . S
C518 C519 1.362 . S
C519 H509 0.930 . S
C519 C512 1.409 . S
C519 C518 1.362 . S
H520 C526 0.930 . S
H521 C529 0.930 . S
H522 C530 0.930 . S
H523 C531 0.930 . S
H524 C534 0.930 . S
H525 C535 0.930 . S
C526 H520 0.930 . S
C526 C527 1.355 . S
C526 C528 1.415 . S
C527 C526 1.355 . S
C527 C529 1.419 . S
C528 C526 1.415 . S
C528 C533 1.425 . S
C528 C535 1.409 . S
C529 H521 0.930 . S
C529 C527 1.419 . S
C529 C530 1.362 . S
C530 H522 0.930 . S
C530 C529 1.362 . S
C530 C533 1.409 . S
C531 H523 0.930 . S
C531 C532 1.355 . S
C531 C533 1.415 . S
C532 C531 1.355 . S
C532 C534 1.419 . S
C533 C528 1.425 . S
C533 C530 1.409 . S
C533 C531 1.415 . S
C534 H524 0.930 . S
C534 C532 1.419 . S
C534 C535 1.362 . S
C535 H525 0.930 . S
C535 C528 1.409 . S
C535 C534 1.362 . S
H536 C542 0.930 . S
H537 C545 0.930 . S
H538 C546 0.930 . S
H539 C547 0.930 . S
H540 C550 0.930 . S
H541 C551 0.930 . S
C542 H536 0.930 . S
C542 C543 1.355 . S
C542 C544 1.415 . S
C543 C542 1.355 . S
C543 C545 1.419 . S
C544 C542 1.415 . S
C544 C549 1.425 . S
C544 C551 1.409 . S
C545 H537 0.930 . S
C545 C543 1.419 . S
C545 C546 1.362 . S
C546 H538 0.930 . S
C546 C545 1.362 . S
C546 C549 1.409 . S
C547 H539 0.930 . S
C547 C548 1.355 . S
C547 C549 1.415 . S
C548 C547 1.355 . S
C548 C550 1.419 . S
C549 C544 1.425 . S
C549 C546 1.409 . S
C549 C547 1.415 . S
C550 H540 0.930 . S
C550 C548 1.419 . S
C550 C551 1.362 . S
C551 H541 0.930 . S
C551 C544 1.409 . S
C551 C550 1.362 . S
H552 C558 0.930 . S
H553 C561 0.930 . S
H554 C562 0.930 . S
H555 C563 0.930 . S
H556 C566 0.930 . S
H557 C567 0.930 . S
C558 H552 0.930 . S
C558 C559 1.355 1_556 S
C558 C560 1.415 . S
C559 C558 1.355 1_554 S
C559 C561 1.419 . S
C560 C558 1.415 . S
C560 C565 1.425 1_556 S
C560 C567 1.409 . S
C561 H553 0.930 . S
C561 C559 1.419 . S
C561 C562 1.362 . S
C562 H554 0.930 . S
C562 C561 1.362 . S
C562 C565 1.409 . S
C563 H555 0.930 . S
C563 C564 1.355 . S
C563 C565 1.415 . S
C564 C563 1.355 . S
C564 C566 1.419 1_554 S
C565 C560 1.425 1_554 S
C565 C562 1.409 . S
C565 C563 1.415 . S
C566 H556 0.930 . S
C566 C564 1.419 1_556 S
C566 C567 1.362 . S
C567 H557 0.930 . S
C567 C560 1.409 . S
C567 C566 1.362 . S
H568 C574 0.930 . S
H569 C577 0.930 . S
H570 C578 0.930 . S
H571 C579 0.930 . S
H572 C582 0.930 . S
H573 C583 0.930 . S
C574 H568 0.930 . S
C574 C575 1.355 . S
C574 C576 1.415 . S
C575 C574 1.355 . S
C575 C577 1.419 . S
C576 C574 1.415 . S
C576 C581 1.425 . S
C576 C583 1.409 . S
C577 H569 0.930 . S
C577 C575 1.419 . S
C577 C578 1.362 . S
C578 H570 0.930 . S
C578 C577 1.362 . S
C578 C581 1.409 . S
C579 H571 0.930 . S
C579 C580 1.355 . S
C579 C581 1.415 . S
C580 C579 1.355 . S
C580 C582 1.419 . S
C581 C576 1.425 . S
C581 C578 1.409 . S
C581 C579 1.415 . S
C582 H572 0.930 . S
C582 C580 1.419 . S
C582 C583 1.362 . S
C583 H573 0.930 . S
C583 C576 1.409 . S
C583 C582 1.362 . S
H584 C590 0.930 . S
H585 C593 0.930 . S
H586 C594 0.930 . S
H587 C595 0.930 . S
H588 C598 0.930 . S
H589 C599 0.930 . S
C590 H584 0.930 . S
C590 C591 1.355 . S
C590 C592 1.415 . S
C591 C590 1.355 . S
C591 C593 1.419 . S
C592 C590 1.415 . S
C592 C597 1.425 . S
C592 C599 1.409 . S
C593 H585 0.930 . S
C593 C591 1.419 . S
C593 C594 1.362 . S
C594 H586 0.930 . S
C594 C593 1.362 . S
C594 C597 1.409 . S
C595 H587 0.930 . S
C595 C596 1.355 . S
C595 C597 1.415 . S
C596 C595 1.355 . S
C596 C598 1.419 . S
C597 C592 1.425 . S
C597 C594 1.409 . S
C597 C595 1.415 . S
C598 H588 0.930 . S
C598 C596 1.419 . S
C598 C599 1.362 . S
C599 H589 0.930 . S
C599 C592 1.409 . S
C599 C598 1.362 . S
H600 C606 0.930 . S
H601 C609 0.930 . S
H602 C610 0.930 . S
H603 C611 0.930 . S
H604 C614 0.930 . S
H605 C615 0.930 . S
C606 H600 0.930 . S
C606 C607 1.355 . S
C606 C608 1.415 . S
C607 C606 1.355 . S
C607 C609 1.419 . S
C608 C606 1.415 . S
C608 C613 1.425 . S
C608 C615 1.409 . S
C609 H601 0.930 . S
C609 C607 1.419 . S
C609 C610 1.362 . S
C610 H602 0.930 . S
C610 C609 1.362 . S
C610 C613 1.409 . S
C611 H603 0.930 . S
C611 C612 1.355 . S
C611 C613 1.415 . S
C612 C611 1.355 . S
C612 C614 1.419 . S
C613 C608 1.425 . S
C613 C610 1.409 . S
C613 C611 1.415 . S
C614 H604 0.930 . S
C614 C612 1.419 . S
C614 C615 1.362 . S
C615 H605 0.930 . S
C615 C608 1.409 . S
C615 C614 1.362 . S
H616 C622 0.930 . S
H617 C625 0.930 . S
H618 C626 0.930 . S
H619 C627 0.930 . S
H620 C630 0.930 . S
H621 C631 0.930 . S
C622 H616 0.930 . S
C622 C623 1.355 . S
C622 C624 1.415 . S
C623 C622 1.355 . S
C623 C625 1.419 . S
C624 C622 1.415 . S
C624 C629 1.425 . S
C624 C631 1.409 . S
C625 H617 0.930 . S
C625 C623 1.419 . S
C625 C626 1.362 . S
C626 H618 0.930 . S
C626 C625 1.362 . S
C626 C629 1.409 . S
C627 H619 0.930 . S
C627 C628 1.355 . S
C627 C629 1.415 . S
C628 C627 1.355 . S
C628 C630 1.419 . S
C629 C624 1.425 . S
C629 C626 1.409 . S
C629 C627 1.415 . S
C630 H620 0.930 . S
C630 C628 1.419 . S
C630 C631 1.362 . S
C631 H621 0.930 . S
C631 C624 1.409 . S
C631 C630 1.362 . S
H632 C638 0.930 . S
H633 C641 0.930 . S
H634 C642 0.930 . S
H635 C643 0.930 . S
H636 C646 0.930 . S
H637 C647 0.930 . S
C638 H632 0.930 . S
C638 C639 1.355 . S
C638 C640 1.415 . S
C639 C638 1.355 . S
C639 C641 1.419 . S
C640 C638 1.415 . S
C640 C645 1.425 . S
C640 C647 1.409 . S
C641 H633 0.930 . S
C641 C639 1.419 . S
C641 C642 1.362 . S
C642 H634 0.930 . S
C642 C641 1.362 . S
C642 C645 1.409 . S
C643 H635 0.930 . S
C643 C644 1.355 . S
C643 C645 1.415 . S
C644 C643 1.355 . S
C644 C646 1.419 . S
C645 C640 1.425 . S
C645 C642 1.409 . S
C645 C643 1.415 . S
C646 H636 0.930 . S
C646 C644 1.419 . S
C646 C647 1.362 . S
C647 H637 0.930 . S
C647 C640 1.409 . S
C647 C646 1.362 . S
H648 C654 0.930 . S
H649 C657 0.930 . S
H650 C658 0.930 . S
H651 C659 0.930 . S
H652 C662 0.930 . S
H653 C663 0.930 . S
C654 H648 0.930 . S
C654 C655 1.355 . S
C654 C656 1.415 . S
C655 C654 1.355 . S
C655 C657 1.419 . S
C656 C654 1.415 . S
C656 C661 1.425 . S
C656 C663 1.409 . S
C657 H649 0.930 . S
C657 C655 1.419 . S
C657 C658 1.362 . S
C658 H650 0.930 . S
C658 C657 1.362 . S
C658 C661 1.409 . S
C659 H651 0.930 . S
C659 C660 1.355 . S
C659 C661 1.415 . S
C660 C659 1.355 . S
C660 C662 1.419 . S
C661 C656 1.425 . S
C661 C658 1.409 . S
C661 C659 1.415 . S
C662 H652 0.930 . S
C662 C660 1.419 . S
C662 C663 1.362 . S
C663 H653 0.930 . S
C663 C656 1.409 . S
C663 C662 1.362 . S
H664 C670 0.930 . S
H665 C673 0.930 . S
H666 C674 0.930 . S
H667 C675 0.930 . S
H668 C678 0.930 . S
H669 C679 0.930 . S
C670 H664 0.930 . S
C670 C671 1.355 . S
C670 C672 1.415 . S
C671 C670 1.355 . S
C671 C673 1.419 . S
C672 C670 1.415 . S
C672 C677 1.425 . S
C672 C679 1.409 . S
C673 H665 0.930 . S
C673 C671 1.419 . S
C673 C674 1.362 . S
C674 H666 0.930 . S
C674 C673 1.362 . S
C674 C677 1.409 . S
C675 H667 0.930 . S
C675 C676 1.355 . S
C675 C677 1.415 . S
C676 C675 1.355 . S
C676 C678 1.419 . S
C677 C672 1.425 . S
C677 C674 1.409 . S
C677 C675 1.415 . S
C678 H668 0.930 . S
C678 C676 1.419 . S
C678 C679 1.362 . S
C679 H669 0.930 . S
C679 C672 1.409 . S
C679 C678 1.362 . S
H680 C686 0.930 . S
H681 C689 0.930 . S
H682 C690 0.930 . S
H683 C691 0.930 . S
H684 C694 0.930 . S
H685 C695 0.930 . S
C686 H680 0.930 . S
C686 C687 1.355 . S
C686 C688 1.415 . S
C687 C686 1.355 . S
C687 C689 1.419 . S
C688 C686 1.415 . S
C688 C693 1.425 . S
C688 C695 1.409 . S
C689 H681 0.930 . S
C689 C687 1.419 . S
C689 C690 1.362 . S
C690 H682 0.930 . S
C690 C689 1.362 . S
C690 C693 1.409 . S
C691 H683 0.930 . S
C691 C692 1.355 . S
C691 C693 1.415 . S
C692 C691 1.355 . S
C692 C694 1.419 . S
C693 C688 1.425 . S
C693 C690 1.409 . S
C693 C691 1.415 . S
C694 H684 0.930 . S
C694 C692 1.419 . S
C694 C695 1.362 . S
C695 H685 0.930 . S
C695 C688 1.409 . S
C695 C694 1.362 . S
H696 C702 0.930 . S
H697 C705 0.930 . S
H698 C706 0.930 . S
H699 C707 0.930 . S
H700 C710 0.930 1_556 S
H701 C711 0.930 . S
C702 H696 0.930 . S
C702 C703 1.355 . S
C702 C704 1.415 . S
C703 C702 1.355 . S
C703 C705 1.419 . S
C704 C702 1.415 . S
C704 C709 1.425 . S
C704 C711 1.409 . S
C705 H697 0.930 . S
C705 C703 1.419 . S
C705 C706 1.362 . S
C706 H698 0.930 . S
C706 C705 1.362 . S
C706 C709 1.409 . S
C707 H699 0.930 . S
C707 C708 1.355 . S
C707 C709 1.415 . S
C708 C707 1.355 . S
C708 C710 1.419 . S
C709 C704 1.425 . S
C709 C706 1.409 . S
C709 C707 1.415 . S
C710 H700 0.930 1_554 S
C710 C708 1.419 . S
C710 C711 1.362 . S
C711 H701 0.930 . S
C711 C704 1.409 . S
C711 C710 1.362 . S
H712 C718 0.930 . S
H713 C721 0.930 . S
H714 C722 0.930 . S
H715 C723 0.930 . S
H716 C726 0.930 . S
H717 C727 0.930 . S
C718 H712 0.930 . S
C718 C719 1.355 . S
C718 C720 1.415 . S
C719 C718 1.355 . S
C719 C721 1.419 . S
C720 C718 1.415 . S
C720 C725 1.425 . S
C720 C727 1.409 . S
C721 H713 0.930 . S
C721 C719 1.419 . S
C721 C722 1.362 . S
C722 H714 0.930 . S
C722 C721 1.362 . S
C722 C725 1.409 . S
C723 H715 0.930 . S
C723 C724 1.355 . S
C723 C725 1.415 . S
C724 C723 1.355 . S
C724 C726 1.419 . S
C725 C720 1.425 . S
C725 C722 1.409 . S
C725 C723 1.415 . S
C726 H716 0.930 . S
C726 C724 1.419 . S
C726 C727 1.362 . S
C727 H717 0.930 . S
C727 C720 1.409 . S
C727 C726 1.362 . S
H728 C734 0.930 . S
H729 C737 0.930 . S
H730 C738 0.930 . S
H731 C739 0.930 . S
H732 C742 0.930 . S
H733 C743 0.930 . S
C734 H728 0.930 . S
C734 C735 1.355 . S
C734 C736 1.415 . S
C735 C734 1.355 . S
C735 C737 1.419 . S
C736 C734 1.415 . S
C736 C741 1.425 . S
C736 C743 1.409 . S
C737 H729 0.930 . S
C737 C735 1.419 . S
C737 C738 1.362 . S
C738 H730 0.930 . S
C738 C737 1.362 . S
C738 C741 1.409 . S
C739 H731 0.930 . S
C739 C740 1.355 . S
C739 C741 1.415 . S
C740 C739 1.355 . S
C740 C742 1.419 . S
C741 C736 1.425 . S
C741 C738 1.409 . S
C741 C739 1.415 . S
C742 H732 0.930 . S
C742 C740 1.419 . S
C742 C743 1.362 . S
C743 H733 0.930 . S
C743 C736 1.409 . S
C743 C742 1.362 . S
H744 C750 0.930 . S
H745 C753 0.930 . S
H746 C754 0.930 . S
H747 C755 0.930 . S
H748 C758 0.930 . S
H749 C759 0.930 . S
C750 H744 0.930 . S
C750 C751 1.355 . S
C750 C752 1.415 . S
C751 C750 1.355 . S
C751 C753 1.419 . S
C752 C750 1.415 . S
C752 C757 1.425 . S
C752 C759 1.409 . S
C753 H745 0.930 . S
C753 C751 1.419 . S
C753 C754 1.362 . S
C754 H746 0.930 . S
C754 C753 1.362 . S
C754 C757 1.409 . S
C755 H747 0.930 . S
C755 C756 1.355 . S
C755 C757 1.415 . S
C756 C755 1.355 . S
C756 C758 1.419 . S
C757 C752 1.425 . S
C757 C754 1.409 . S
C757 C755 1.415 . S
C758 H748 0.930 . S
C758 C756 1.419 . S
C758 C759 1.362 . S
C759 H749 0.930 . S
C759 C752 1.409 . S
C759 C758 1.362 . S
H760 C766 0.930 . S
H761 C769 0.930 . S
H762 C770 0.930 . S
H763 C771 0.930 . S
H764 C774 0.930 . S
H765 C775 0.930 . S
C766 H760 0.930 . S
C766 C767 1.355 1_565 S
C766 C768 1.415 . S
C767 C766 1.355 1_545 S
C767 C769 1.419 . S
C768 C766 1.415 . S
C768 C773 1.425 1_565 S
C768 C775 1.409 . S
C769 H761 0.930 . S
C769 C767 1.419 . S
C769 C770 1.362 . S
C770 H762 0.930 . S
C770 C769 1.362 . S
C770 C773 1.409 . S
C771 H763 0.930 . S
C771 C772 1.355 . S
C771 C773 1.415 . S
C772 C771 1.355 . S
C772 C774 1.419 1_545 S
C773 C768 1.425 1_545 S
C773 C770 1.409 . S
C773 C771 1.415 . S
C774 H764 0.930 . S
C774 C772 1.419 1_565 S
C774 C775 1.362 . S
C775 H765 0.930 . S
C775 C768 1.409 . S
C775 C774 1.362 . S
H776 C782 0.930 . S
H777 C785 0.930 . S
H778 C786 0.930 . S
H779 C787 0.930 . S
H780 C790 0.930 . S
H781 C791 0.930 . S
C782 H776 0.930 . S
C782 C783 1.355 . S
C782 C784 1.415 . S
C783 C782 1.355 . S
C783 C785 1.419 . S
C784 C782 1.415 . S
C784 C789 1.425 . S
C784 C791 1.409 . S
C785 H777 0.930 . S
C785 C783 1.419 . S
C785 C786 1.362 . S
C786 H778 0.930 . S
C786 C785 1.362 . S
C786 C789 1.409 . S
C787 H779 0.930 . S
C787 C788 1.355 . S
C787 C789 1.415 . S
C788 C787 1.355 . S
C788 C790 1.419 . S
C789 C784 1.425 . S
C789 C786 1.409 . S
C789 C787 1.415 . S
C790 H780 0.930 . S
C790 C788 1.419 . S
C790 C791 1.362 . S
C791 H781 0.930 . S
C791 C784 1.409 . S
C791 C790 1.362 . S
H792 C798 0.930 . S
H793 C801 0.930 . S
H794 C802 0.930 . S
H795 C803 0.930 . S
H796 C806 0.930 . S
H797 C807 0.930 . S
C798 H792 0.930 . S
C798 C799 1.355 . S
C798 C800 1.415 . S
C799 C798 1.355 . S
C799 C801 1.419 . S
C800 C798 1.415 . S
C800 C805 1.425 . S
C800 C807 1.409 . S
C801 H793 0.930 . S
C801 C799 1.419 . S
C801 C802 1.362 . S
C802 H794 0.930 . S
C802 C801 1.362 . S
C802 C805 1.409 . S
C803 H795 0.930 . S
C803 C804 1.355 . S
C803 C805 1.415 . S
C804 C803 1.355 . S
C804 C806 1.419 . S
C805 C800 1.425 . S
C805 C802 1.409 . S
C805 C803 1.415 . S
C806 H796 0.930 . S
C806 C804 1.419 . S
C806 C807 1.362 . S
C807 H797 0.930 . S
C807 C800 1.409 . S
C807 C806 1.362 . S
H808 C814 0.930 . S
H809 C817 0.930 . S
H810 C818 0.930 . S
H811 C819 0.930 . S
H812 C822 0.930 . S
H813 C823 0.930 . S
C814 H808 0.930 . S
C814 C815 1.355 . S
C814 C816 1.415 . S
C815 C814 1.355 . S
C815 C817 1.419 . S
C816 C814 1.415 . S
C816 C821 1.425 . S
C816 C823 1.409 . S
C817 H809 0.930 . S
C817 C815 1.419 . S
C817 C818 1.362 . S
C818 H810 0.930 . S
C818 C817 1.362 . S
C818 C821 1.409 . S
C819 H811 0.930 . S
C819 C820 1.355 . S
C819 C821 1.415 . S
C820 C819 1.355 . S
C820 C822 1.419 . S
C821 C816 1.425 . S
C821 C818 1.409 . S
C821 C819 1.415 . S
C822 H812 0.930 . S
C822 C820 1.419 . S
C822 C823 1.362 . S
C823 H813 0.930 . S
C823 C816 1.409 . S
C823 C822 1.362 . S
H824 C830 0.930 . S
H825 C833 0.930 . S
H826 C834 0.930 . S
H827 C835 0.930 . S
H828 C838 0.930 . S
H829 C839 0.930 . S
C830 H824 0.930 . S
C830 C831 1.355 . S
C830 C832 1.415 . S
C831 C830 1.355 . S
C831 C833 1.419 . S
C832 C830 1.415 . S
C832 C837 1.425 . S
C832 C839 1.409 . S
C833 H825 0.930 . S
C833 C831 1.419 . S
C833 C834 1.362 . S
C834 H826 0.930 . S
C834 C833 1.362 . S
C834 C837 1.409 . S
C835 H827 0.930 . S
C835 C836 1.355 . S
C835 C837 1.415 . S
C836 C835 1.355 . S
C836 C838 1.419 . S
C837 C832 1.425 . S
C837 C834 1.409 . S
C837 C835 1.415 . S
C838 H828 0.930 . S
C838 C836 1.419 . S
C838 C839 1.362 . S
C839 H829 0.930 . S
C839 C832 1.409 . S
C839 C838 1.362 . S
C271 C84 1.455 . S
C276 C7 1.451 . S
C287 C51 1.592 . S
C292 C18 1.585 . S
C303 C62 1.810 . S
C308 C29 1.726 . S
C319 C73 1.144 . S
C324 C40 1.301 . S
C335 C95 0.677 . S
C340 C139 0.695 . S
C351 C150 1.342 . S
C356 C106 1.200 . S
C367 C117 1.433 . S
C372 C161 1.420 . S
C383 C172 1.418 . S
C388 C128 1.383 . S
C399 C183 1.485 . S
C404 C238 1.485 . S
C415 C194 1.555 . S
C420 C216 1.568 . S
C431 C205 1.764 . S
C436 C249 1.709 . S
C447 C260 1.343 . S
C452 C227 1.355 . S
C463 C8 1.809 . S
C468 C173 1.800 . S
C479 C19 1.803 . S
C484 C137 1.727 . S
C495 C151 1.677 . S
C500 C27 1.360 . S
C511 C162 1.554 . S
C516 C41 1.567 . S
C527 C49 1.506 . S
C532 C104 1.086 . S
C543 C60 1.651 . S
C548 C118 1.786 . S
C559 C126 1.657 1_554 S
C564 C71 1.129 1_554 S
C575 C85 1.733 . S
C580 C93 1.691 . S
C591 C129 1.710 . S
C596 C140 1.749 . S
C607 C228 1.793 . S
C612 C181 1.737 . S
C623 C192 1.416 . S
C628 C239 1.604 . S
C639 C203 1.524 . S
C644 C214 1.410 . S
C655 C159 1.465 . S
C660 C107 1.516 . S
C671 C63 1.823 . S
C676 C206 1.801 . S
C687 C258 1.259 . S
C692 C74 1.522 . S
C703 C82 1.536 . S
C708 C184 1.724 . S
C719 C195 1.504 . S
C724 C52 1.473 . S
C735 C236 1.297 . S
C740 C38 1.609 . S
C751 C5 1.150 . S
C756 C217 1.286 . S
C767 C16 1.444 1_545 S
C772 C247 1.367 . S
C783 C225 1.440 . S
C788 C30 1.694 . S
C799 C250 1.723 . S
C804 C261 1.664 . S
C815 C96 2.059 . S
C820 C148 2.045 . S
C831 C170 1.982 . S
C836 C115 1.923 . S
