# Generated by pormake.
# Topology umo, (4)-cn, num edge types: 1
# Building blocks:
#     Node 0, Type 0, BuildingBlock: KOZSID_clean_sbu_0, # of connection points: 4
#     Node 1, Type 0, BuildingBlock: KOZSID_clean_sbu_0, # of connection points: 4
#     Node 2, Type 0, BuildingBlock: KOZSID_clean_sbu_0, # of connection points: 4
#     Node 3, Type 0, BuildingBlock: KOZSID_clean_sbu_0, # of connection points: 4
#     Node 4, Type 0, BuildingBlock: KOZSID_clean_sbu_0, # of connection points: 4
#     Node 5, Type 0, BuildingBlock: KOZSID_clean_sbu_0, # of connection points: 4
#     Node 6, Type 0, BuildingBlock: KOZSID_clean_sbu_0, # of connection points: 4
#     Node 7, Type 0, BuildingBlock: KOZSID_clean_sbu_0, # of connection points: 4
#     Node 8, Type 0, BuildingBlock: KOZSID_clean_sbu_0, # of connection points: 4
#     Node 9, Type 0, BuildingBlock: KOZSID_clean_sbu_0, # of connection points: 4
#     Node 10, Type 0, BuildingBlock: KOZSID_clean_sbu_0, # of connection points: 4
#     Node 11, Type 0, BuildingBlock: KOZSID_clean_sbu_0, # of connection points: 4
#     Edge 12, Type (0, 0), BuildingBlock: XUDNAN_clean_linker_2, # of connection points: 2
#     Edge 13, Type (0, 0), BuildingBlock: XUDNAN_clean_linker_2, # of connection points: 2
#     Edge 14, Type (0, 0), BuildingBlock: XUDNAN_clean_linker_2, # of connection points: 2
#     Edge 15, Type (0, 0), BuildingBlock: XUDNAN_clean_linker_2, # of connection points: 2
#     Edge 16, Type (0, 0), BuildingBlock: XUDNAN_clean_linker_2, # of connection points: 2
#     Edge 17, Type (0, 0), BuildingBlock: XUDNAN_clean_linker_2, # of connection points: 2
#     Edge 18, Type (0, 0), BuildingBlock: XUDNAN_clean_linker_2, # of connection points: 2
#     Edge 19, Type (0, 0), BuildingBlock: XUDNAN_clean_linker_2, # of connection points: 2
#     Edge 20, Type (0, 0), BuildingBlock: XUDNAN_clean_linker_2, # of connection points: 2
#     Edge 21, Type (0, 0), BuildingBlock: XUDNAN_clean_linker_2, # of connection points: 2
#     Edge 22, Type (0, 0), BuildingBlock: XUDNAN_clean_linker_2, # of connection points: 2
#     Edge 23, Type (0, 0), BuildingBlock: XUDNAN_clean_linker_2, # of connection points: 2
#     Edge 24, Type (0, 0), BuildingBlock: XUDNAN_clean_linker_2, # of connection points: 2
#     Edge 25, Type (0, 0), BuildingBlock: XUDNAN_clean_linker_2, # of connection points: 2
#     Edge 26, Type (0, 0), BuildingBlock: XUDNAN_clean_linker_2, # of connection points: 2
#     Edge 27, Type (0, 0), BuildingBlock: XUDNAN_clean_linker_2, # of connection points: 2
#     Edge 28, Type (0, 0), BuildingBlock: XUDNAN_clean_linker_2, # of connection points: 2
#     Edge 29, Type (0, 0), BuildingBlock: XUDNAN_clean_linker_2, # of connection points: 2
#     Edge 30, Type (0, 0), BuildingBlock: XUDNAN_clean_linker_2, # of connection points: 2
#     Edge 31, Type (0, 0), BuildingBlock: XUDNAN_clean_linker_2, # of connection points: 2
#     Edge 32, Type (0, 0), BuildingBlock: XUDNAN_clean_linker_2, # of connection points: 2
#     Edge 33, Type (0, 0), BuildingBlock: XUDNAN_clean_linker_2, # of connection points: 2
#     Edge 34, Type (0, 0), BuildingBlock: XUDNAN_clean_linker_2, # of connection points: 2
#     Edge 35, Type (0, 0), BuildingBlock: XUDNAN_clean_linker_2, # of connection points: 2
# Relax obj value: 0.199
# Max RMSD: 0.248
# Mean RMSD: 0.248
data_MOF--net-umo--node1-KOZSID_clean_sbu_0--edge1-XUDNAN_clean_linker_2
_symmetry_space_group_name_H-M    P1
_symmetry_Int_Tables_number       1
_symmetry_cell_setting            triclinic
loop_
_symmetry_equiv_pos_as_xyz
'x, y, z'
_cell_length_a     64.319131
_cell_length_b     64.573242
_cell_length_c     38.930548
_cell_angle_alpha  89.972559
_cell_angle_beta   90.102542
_cell_angle_gamma 119.93063
loop_
_atom_site_label
_atom_site_type_symbol
_atom_site_fract_x
_atom_site_fract_y
_atom_site_fract_z
_atom_type_partial_charge
C0 C 0.21003 0.51459 0.36748 0.0
C1 C 0.2161 0.49704 0.37387 0.0
C2 C 0.20393 0.48505 0.40273 0.0
C3 C 0.1917 0.49624 0.41319 0.0
N4 N 0.19555 0.51464 0.39271 0.0
Co5 Co 0.18504 0.53819 0.40199 0.0
N6 N 0.17979 0.52951 0.45127 0.0
C7 C 0.17666 0.50903 0.46501 0.0
C8 C 0.17293 0.50765 0.49981 0.0
C9 C 0.17357 0.5285 0.50848 0.0
C10 C 0.17771 0.54152 0.47829 0.0
N11 N 0.1746 0.56178 0.41146 0.0
C12 C 0.1728 0.57112 0.44184 0.0
C13 C 0.16431 0.58685 0.43665 0.0
C14 C 0.16049 0.58708 0.40188 0.0
C15 C 0.16685 0.57153 0.38773 0.0
N16 N 0.1904 0.5466 0.35264 0.0
C17 C 0.18088 0.55778 0.33498 0.0
C18 C 0.18789 0.56133 0.30113 0.0
C19 C 0.20267 0.55176 0.29746 0.0
C20 C 0.20402 0.54296 0.32941 0.0
N21 N 0.15123 0.51382 0.39198 0.0
C22 C 0.10263 0.48268 0.37401 0.0
C23 C 0.12142 0.48287 0.35535 0.0
C24 C 0.1455 0.4987 0.36446 0.0
C25 C 0.10878 0.498 0.40236 0.0
C26 C 0.13299 0.51302 0.41121 0.0
N27 N 0.21843 0.56288 0.41145 0.0
C28 C 0.25078 0.60316 0.40239 0.0
C29 C 0.26653 0.59842 0.42093 0.0
C30 C 0.25774 0.5756 0.43514 0.0
C31 C 0.23351 0.55812 0.43043 0.0
C32 C 0.22698 0.5852 0.39776 0.0
H33 H 0.22705 0.54069 0.44168 0.0
H34 H 0.21558 0.58939 0.38255 0.0
H35 H 0.1595 0.49898 0.34887 0.0
H36 H 0.13688 0.52431 0.43345 0.0
C37 C 0.18184 0.4939 0.44587 0.0
C38 C 0.21696 0.52984 0.33637 0.0
C39 C 0.17725 0.56398 0.47585 0.0
C40 C 0.16952 0.56848 0.3525 0.0
H41 H 0.2284 0.49339 0.35989 0.0
H42 H 0.20539 0.47108 0.41597 0.0
H43 H 0.17093 0.49362 0.51705 0.0
H44 H 0.17103 0.5334 0.53406 0.0
H45 H 0.16104 0.59694 0.45596 0.0
H46 H 0.15456 0.5979 0.38849 0.0
H47 H 0.18366 0.57071 0.28177 0.0
H48 H 0.21146 0.55133 0.27401 0.0
H49 H 0.11755 0.47124 0.33335 0.0
H50 H 0.09493 0.49817 0.41794 0.0
H51 H 0.25698 0.62055 0.39088 0.0
H52 H 0.26948 0.57132 0.44966 0.0
C53 C 0.68499 0.20229 0.50435 0.0
C54 C 0.70769 0.20498 0.50074 0.0
C55 C 0.71068 0.19289 0.5276 0.0
C56 C 0.68965 0.18334 0.54589 0.0
N57 N 0.67372 0.18866 0.53205 0.0
Co58 Co 0.64107 0.17792 0.54943 0.0
N59 N 0.6498 0.17271 0.59601 0.0
C60 C 0.66848 0.16964 0.60386 0.0
C61 C 0.66985 0.16592 0.63832 0.0
C62 C 0.65072 0.16649 0.65289 0.0
C63 C 0.63869 0.17055 0.62639 0.0
N64 N 0.6083 0.1669 0.56686 0.0
C65 C 0.60046 0.165 0.59963 0.0
C66 C 0.57589 0.15632 0.60023 0.0
C67 C 0.56824 0.15244 0.56663 0.0
C68 C 0.58847 0.15897 0.54738 0.0
N69 N 0.63283 0.1835 0.50266 0.0
C70 C 0.61051 0.17458 0.48999 0.0
C71 C 0.61038 0.18419 0.45857 0.0
C72 C 0.63402 0.20003 0.45122 0.0
C73 C 0.64755 0.19894 0.47831 0.0
N74 N 0.63116 0.14444 0.53708 0.0
C75 C 0.61301 0.09615 0.51608 0.0
C76 C 0.6298 0.11565 0.49614 0.0
C77 C 0.63816 0.13934 0.50663 0.0
C78 C 0.60658 0.1019 0.54777 0.0
C79 C 0.61609 0.12587 0.55793 0.0
N80 N 0.65033 0.21106 0.5613 0.0
C81 C 0.64086 0.24282 0.55988 0.0
C82 C 0.66388 0.2593 0.57134 0.0
C83 C 0.67992 0.25107 0.57853 0.0
C84 C 0.67263 0.22676 0.57397 0.0
C85 C 0.63459 0.21902 0.55462 0.0
H86 H 0.6852 0.22078 0.57983 0.0
H87 H 0.6171 0.20724 0.54411 0.0
H88 H 0.6501 0.15359 0.48973 0.0
H89 H 0.61063 0.12932 0.58245 0.0
C90 C 0.68609 0.1739 0.57921 0.0
C91 C 0.67417 0.2119 0.48041 0.0
C92 C 0.61558 0.16975 0.63037 0.0
C93 C 0.5905 0.16247 0.51164 0.0
H94 H 0.72076 0.21474 0.48094 0.0
H95 H 0.72672 0.19221 0.53394 0.0
H96 H 0.68347 0.16372 0.65145 0.0
H97 H 0.64595 0.16381 0.67983 0.0
H98 H 0.56468 0.15312 0.62254 0.0
H99 H 0.55028 0.14659 0.55737 0.0
H100 H 0.59488 0.18153 0.44401 0.0
H101 H 0.64015 0.21153 0.42898 0.0
H102 H 0.63663 0.11301 0.47221 0.0
H103 H 0.59381 0.08817 0.56464 0.0
H104 H 0.62805 0.2485 0.55363 0.0
H105 H 0.69793 0.26332 0.58746 0.0
C106 C 0.5033 0.69025 0.67601 0.0
C107 C 0.52263 0.71332 0.6745 0.0
C108 C 0.5363 0.71625 0.70329 0.0
C109 C 0.52453 0.69485 0.72061 0.0
N110 N 0.50451 0.67882 0.70422 0.0
Co111 Co 0.48184 0.64616 0.71939 0.0
N112 N 0.49219 0.65451 0.76759 0.0
C113 C 0.51315 0.67306 0.77829 0.0
C114 C 0.51531 0.67405 0.81346 0.0
C115 C 0.49447 0.65487 0.82537 0.0
C116 C 0.48073 0.64324 0.79667 0.0
N117 N 0.45934 0.61335 0.73469 0.0
C118 C 0.45065 0.60536 0.76662 0.0
C119 C 0.43508 0.58088 0.76616 0.0
C120 C 0.43424 0.57353 0.73264 0.0
C121 C 0.44933 0.59387 0.71446 0.0
N122 N 0.47179 0.63859 0.67089 0.0
C123 C 0.46048 0.61669 0.65676 0.0
C124 C 0.45354 0.61736 0.62343 0.0
C125 C 0.4609 0.64107 0.61672 0.0
C126 C 0.47197 0.65362 0.64636 0.0
N127 N 0.50652 0.63655 0.71242 0.0
C128 C 0.53433 0.61409 0.70045 0.0
C129 C 0.53133 0.62783 0.67481 0.0
C130 C 0.51772 0.63915 0.68144 0.0
C131 C 0.52448 0.61367 0.73287 0.0
C132 C 0.51044 0.62437 0.73803 0.0
N133 N 0.45633 0.65433 0.72627 0.0
C134 C 0.41458 0.64187 0.71816 0.0
C135 C 0.41602 0.65901 0.74136 0.0
C136 C 0.43867 0.67511 0.75521 0.0
C137 C 0.45876 0.67257 0.74703 0.0
C138 C 0.43448 0.63951 0.71165 0.0
H139 H 0.47592 0.68465 0.75853 0.0
H140 H 0.43159 0.62468 0.69588 0.0
H141 H 0.51539 0.64912 0.66097 0.0
H142 H 0.50191 0.62178 0.76266 0.0
C143 C 0.52816 0.69106 0.75512 0.0
C144 C 0.48353 0.67974 0.65122 0.0
C145 C 0.45791 0.62062 0.79752 0.0
C146 C 0.45101 0.59633 0.67827 0.0
H147 H 0.52599 0.7267 0.65519 0.0
H148 H 0.55196 0.73256 0.71171 0.0
H149 H 0.52985 0.68753 0.82871 0.0
H150 H 0.49002 0.64987 0.85203 0.0
H151 H 0.42535 0.5696 0.78769 0.0
H152 H 0.42311 0.55568 0.72256 0.0
H153 H 0.44277 0.60227 0.60685 0.0
H154 H 0.45804 0.64809 0.59309 0.0
H155 H 0.53862 0.62918 0.64935 0.0
H156 H 0.52697 0.60457 0.75445 0.0
H157 H 0.39759 0.62917 0.70655 0.0
H158 H 0.44062 0.68867 0.77335 0.0
C159 C 0.81805 0.49698 0.85795 0.0
C160 C 0.81181 0.51471 0.86019 0.0
C161 C 0.82417 0.52896 0.88753 0.0
C162 C 0.83678 0.51899 0.90128 0.0
N163 N 0.83302 0.49931 0.88413 0.0
Co164 Co 0.84435 0.47722 0.89855 0.0
N165 N 0.84912 0.48885 0.94638 0.0
C166 C 0.85203 0.50997 0.95679 0.0
C167 C 0.85523 0.51314 0.9917 0.0
C168 C 0.85435 0.49274 0.0038 0.0
C169 C 0.85063 0.47826 0.97545 0.0
N170 N 0.85561 0.45513 0.91314 0.0
C171 C 0.85614 0.447 0.94507 0.0
C172 C 0.86502 0.43139 0.94398 0.0
C173 C 0.87021 0.42987 0.91001 0.0
C174 C 0.86427 0.44465 0.89226 0.0
N175 N 0.83952 0.46582 0.85072 0.0
C176 C 0.84987 0.45442 0.8359 0.0
C177 C 0.84247 0.44822 0.80242 0.0
C178 C 0.82653 0.4562 0.79618 0.0
C179 C 0.82492 0.46675 0.82633 0.0
N180 N 0.87794 0.50167 0.88766 0.0
C181 C 0.92629 0.5332 0.86925 0.0
C182 C 0.90727 0.53112 0.84895 0.0
C183 C 0.88332 0.51511 0.85831 0.0
C184 C 0.92052 0.51953 0.89933 0.0
C185 C 0.89639 0.50427 0.90833 0.0
N186 N 0.81117 0.45237 0.90887 0.0
C187 C 0.78018 0.41105 0.90443 0.0
C188 C 0.76322 0.41582 0.91955 0.0
C189 C 0.77125 0.43957 0.92993 0.0
C190 C 0.79528 0.45746 0.92473 0.0
C191 C 0.80363 0.4294 0.89888 0.0
H192 H 0.80094 0.47545 0.93304 0.0
H193 H 0.81566 0.42486 0.88617 0.0
H194 H 0.86914 0.51334 0.84153 0.0
H195 H 0.89271 0.49426 0.9319 0.0
C196 C 0.84667 0.52366 0.93442 0.0
C197 C 0.81036 0.4785 0.83074 0.0
C198 C 0.84976 0.45518 0.97653 0.0
C199 C 0.86184 0.44551 0.85631 0.0
H200 H 0.79903 0.51697 0.84507 0.0
H201 H 0.82245 0.54359 0.89789 0.0
H202 H 0.85681 0.52794 0.00678 0.0
H203 H 0.85618 0.48893 0.03036 0.0
H204 H 0.8675 0.42216 0.96543 0.0
H205 H 0.8765 0.41849 0.89942 0.0
H206 H 0.84704 0.43796 0.78517 0.0
H207 H 0.81704 0.45429 0.77236 0.0
H208 H 0.91088 0.54149 0.8256 0.0
H209 H 0.93459 0.52087 0.91612 0.0
H210 H 0.77564 0.39315 0.89692 0.0
H211 H 0.75909 0.44454 0.94151 0.0
C212 C 0.34379 0.81698 0.00344 0.0
C213 C 0.32132 0.8148 1.00032 0.0
C214 C 0.31857 0.82615 0.02844 0.0
C215 C 0.33945 0.83453 0.04708 0.0
N216 N 0.35501 0.82922 0.03212 0.0
Co217 Co 0.38647 0.83627 0.05032 0.0
N218 N 0.37695 0.83875 0.09753 0.0
C219 C 0.35923 0.84303 0.10642 0.0
C220 C 0.35713 0.84406 0.14142 0.0
C221 C 0.3747 0.8403 0.15513 0.0
C222 C 0.38653 0.83715 0.12761 0.0
N223 N 0.41806 0.84349 0.06848 0.0
C224 C 0.42428 0.84153 0.10105 0.0
C225 C 0.44839 0.84831 0.10279 0.0
C226 C 0.45738 0.85482 0.06997 0.0
C227 C 0.43832 0.85167 0.05002 0.0
N228 N 0.39541 0.83343 0.00292 0.0
C229 C 0.41776 0.84226 0.9907 0.0
C230 C 0.41767 0.83495 0.9574 0.0
C231 C 0.39381 0.82061 0.94867 0.0
C232 C 0.38068 0.81994 0.97718 0.0
N233 N 0.39911 0.87105 0.04389 0.0
C234 C 0.4194 0.92132 0.03646 0.0
C235 C 0.40509 0.90537 0.01038 0.0
C236 C 0.39517 0.88039 0.01457 0.0
C237 C 0.42342 0.91117 0.0659 0.0
C238 C 0.41305 0.88642 0.06924 0.0
N239 N 0.37467 0.80193 0.05696 0.0
C240 C 0.38203 0.76885 0.05268 0.0
C241 C 0.35956 0.75307 0.06692 0.0
C242 C 0.34477 0.76256 0.07602 0.0
C243 C 0.35269 0.78698 0.07102 0.0
C244 C 0.38905 0.79287 0.04766 0.0
H245 H 0.34109 0.79381 0.07851 0.0
H246 H 0.4064 0.80418 0.03642 0.0
H247 H 0.38431 0.8686 0.99413 0.0
H248 H 0.41662 0.87976 0.09257 0.0
C249 C 0.34261 0.8417 0.0817 0.0
C250 C 0.35434 0.80739 0.97937 0.0
C251 C 0.40783 0.83449 0.13053 0.0
C252 C 0.43735 0.8514 0.01374 0.0
H253 H 0.30816 0.80558 0.98035 0.0
H254 H 0.30258 0.82667 0.0356 0.0
H255 H 0.34386 0.84633 0.15537 0.0
H256 H 0.37848 0.8401 0.18219 0.0
H257 H 0.45838 0.8485 0.12529 0.0
H258 H 0.47536 0.8601 0.06148 0.0
H259 H 0.43304 0.83818 0.94212 0.0
H260 H 0.38687 0.81142 0.9245 0.0
H261 H 0.40125 0.91203 0.98711 0.0
H262 H 0.43482 0.92227 0.08653 0.0
H263 H 0.39457 0.76297 0.04592 0.0
H264 H 0.3271 0.75126 0.0867 0.0
C265 C 0.53248 0.32929 0.16523 0.0
C266 C 0.51603 0.30519 0.16139 0.0
C267 C 0.50136 0.2987 0.18966 0.0
C268 C 0.50972 0.3192 0.20891 0.0
N269 N 0.5285 0.33807 0.19431 0.0
Co270 Co 0.54603 0.37101 0.21248 0.0
N271 N 0.53471 0.35992 0.25973 0.0
C272 C 0.51762 0.33764 0.26866 0.0
C273 C 0.51827 0.33308 0.30287 0.0
C274 C 0.53647 0.35382 0.31625 0.0
C275 C 0.54518 0.37058 0.28982 0.0
N276 N 0.56308 0.4041 0.23054 0.0
C277 C 0.56715 0.41223 0.26354 0.0
C278 C 0.57637 0.43682 0.26396 0.0
C279 C 0.57845 0.44413 0.23033 0.0
C280 C 0.57008 0.42372 0.21101 0.0
N281 N 0.55759 0.38137 0.16497 0.0
C282 C 0.56614 0.40346 0.15228 0.0
C283 C 0.57503 0.40542 0.1195 0.0
C284 C 0.5718 0.38315 0.11148 0.0
C285 C 0.56115 0.36885 0.13987 0.0
N286 N 0.51782 0.37496 0.20329 0.0
C287 C 0.48505 0.39056 0.18481 0.0
C288 C 0.49145 0.37793 0.16161 0.0
C289 C 0.50751 0.37014 0.17136 0.0
C290 C 0.49457 0.39386 0.21822 0.0
C291 C 0.51068 0.38588 0.22692 0.0
N292 N 0.57486 0.36833 0.22101 0.0
C293 C 0.61746 0.38621 0.21284 0.0
C294 C 0.61821 0.36785 0.23102 0.0
C295 C 0.5962 0.34898 0.2431 0.0
C296 C 0.57466 0.34946 0.23751 0.0
C297 C 0.59618 0.38651 0.20923 0.0
H298 H 0.55797 0.33473 0.24665 0.0
H299 H 0.59715 0.40173 0.19654 0.0
H300 H 0.51248 0.3612 0.1524 0.0
H301 H 0.51812 0.38948 0.25251 0.0
C302 C 0.50537 0.31995 0.24384 0.0
C303 C 0.55267 0.34307 0.14225 0.0
C304 C 0.5605 0.39684 0.29465 0.0
C305 C 0.57071 0.42239 0.17479 0.0
H306 H 0.51545 0.29345 0.1411 0.0
H307 H 0.48767 0.2808 0.19669 0.0
H308 H 0.50795 0.31619 0.31606 0.0
H309 H 0.54243 0.35609 0.34266 0.0
H310 H 0.58055 0.44834 0.28609 0.0
H311 H 0.58537 0.46221 0.22114 0.0
H312 H 0.58414 0.42145 0.10405 0.0
H313 H 0.57676 0.37806 0.08773 0.0
H314 H 0.48492 0.3748 0.13542 0.0
H315 H 0.48987 0.40281 0.23762 0.0
H316 H 0.6334 0.40075 0.2014 0.0
H317 H 0.59562 0.33422 0.2571 0.0
C318 C 0.49525 0.81653 0.50477 0.0
C319 C 0.51568 0.81492 0.51065 0.0
C320 C 0.53062 0.82563 0.48306 0.0
C321 C 0.51857 0.83329 0.46208 0.0
N322 N 0.49717 0.82813 0.47508 0.0
Co323 Co 0.47382 0.83543 0.45381 0.0
N324 N 0.48716 0.83697 0.40769 0.0
C325 C 0.50927 0.84069 0.40086 0.0
C326 C 0.51352 0.84113 0.36621 0.0
C327 C 0.49285 0.83763 0.35049 0.0
C328 C 0.47711 0.8353 0.37656 0.0
N329 N 0.45056 0.84304 0.43245 0.0
C330 C 0.44355 0.84093 0.39923 0.0
C331 C 0.42694 0.84847 0.39506 0.0
C332 C 0.42364 0.85555 0.42702 0.0
C333 C 0.43843 0.85202 0.44885 0.0
N334 N 0.46064 0.83347 0.50018 0.0
C335 C 0.44691 0.84271 0.50989 0.0
C336 C 0.43777 0.83542 0.54235 0.0
C337 C 0.44625 0.8207 0.55333 0.0
C338 C 0.46053 0.82003 0.52712 0.0
N339 N 0.49628 0.87015 0.45989 0.0
C340 C 0.52608 0.92039 0.46747 0.0
C341 C 0.52328 0.90457 0.49437 0.0
C342 C 0.50833 0.8796 0.49009 0.0
C343 C 0.5133 0.91013 0.43699 0.0
C344 C 0.49898 0.88536 0.43361 0.0
N345 N 0.45092 0.80114 0.4477 0.0
C346 C 0.41004 0.76877 0.45072 0.0
C347 C 0.41675 0.75212 0.44047 0.0
C348 C 0.44128 0.76086 0.43368 0.0
C349 C 0.45799 0.7854 0.43712 0.0
C350 C 0.42722 0.79282 0.45462 0.0
H351 H 0.47663 0.79165 0.43147 0.0
H352 H 0.42114 0.80471 0.46326 0.0
H353 H 0.50641 0.86794 0.51124 0.0
H354 H 0.48972 0.87858 0.40958 0.0
C355 C 0.52369 0.83975 0.42734 0.0
C356 C 0.47436 0.80724 0.52767 0.0
C357 C 0.45363 0.8334 0.37124 0.0
C358 C 0.43783 0.85206 0.48504 0.0
H359 H 0.51916 0.80647 0.53218 0.0
H360 H 0.54747 0.8263 0.47792 0.0
H361 H 0.52939 0.84293 0.35381 0.0
H362 H 0.48982 0.83711 0.32308 0.0
H363 H 0.4182 0.84885 0.37147 0.0
H364 H 0.41113 0.86149 0.4337 0.0
H365 H 0.4248 0.83864 0.55535 0.0
H366 H 0.44151 0.81106 0.57732 0.0
H367 H 0.53273 0.91132 0.51843 0.0
H368 H 0.51394 0.92113 0.41559 0.0
H369 H 0.39148 0.76354 0.45537 0.0
H370 H 0.44768 0.74891 0.42604 0.0
C371 C 0.7005 0.49717 0.64736 0.0
C372 C 0.72497 0.51342 0.64526 0.0
C373 C 0.72832 0.5274 0.61706 0.0
C374 C 0.70602 0.51869 0.60272 0.0
N375 N 0.68883 0.50013 0.62036 0.0
Co376 Co 0.65494 0.48009 0.60558 0.0
N377 N 0.66249 0.49043 0.55697 0.0
C378 C 0.68341 0.50862 0.54557 0.0
C379 C 0.68639 0.50742 0.51096 0.0
C380 C 0.66597 0.48756 0.49992 0.0
C381 C 0.65078 0.47833 0.5281 0.0
N382 N 0.62103 0.46074 0.59141 0.0
C383 C 0.61118 0.4555 0.55949 0.0
C384 C 0.58652 0.44652 0.56165 0.0
C385 C 0.58091 0.44517 0.5959 0.0
C386 C 0.60236 0.45399 0.6129 0.0
N387 N 0.64764 0.46908 0.65371 0.0
C388 C 0.62602 0.45976 0.66867 0.0
C389 C 0.62639 0.45345 0.70231 0.0
C390 C 0.64976 0.45921 0.70865 0.0
C391 C 0.66237 0.46869 0.67842 0.0
N392 N 0.64876 0.5067 0.61567 0.0
C393 C 0.6284 0.53462 0.63676 0.0
C394 C 0.64329 0.5305 0.65879 0.0
C395 C 0.65366 0.51699 0.64758 0.0
C396 C 0.62579 0.52628 0.6029 0.0
C397 C 0.63606 0.51239 0.5929 0.0
N398 N 0.66031 0.45318 0.59604 0.0
C399 C 0.64652 0.41092 0.5993 0.0
C400 C 0.66833 0.41429 0.58604 0.0
C401 C 0.68589 0.43787 0.57759 0.0
C402 C 0.68139 0.45683 0.58217 0.0
C403 C 0.64306 0.43046 0.60455 0.0
H404 H 0.69519 0.47453 0.57497 0.0
H405 H 0.62636 0.42712 0.6158 0.0
H406 H 0.66435 0.51354 0.66561 0.0
H407 H 0.63228 0.50491 0.56736 0.0
C408 C 0.70223 0.52192 0.56835 0.0
C409 C 0.68858 0.47913 0.67477 0.0
C410 C 0.62483 0.45994 0.5269 0.0
C411 C 0.60561 0.45411 0.6487 0.0
H412 H 0.7394 0.51461 0.66082 0.0
H413 H 0.74536 0.54057 0.60627 0.0
H414 H 0.70248 0.51817 0.49611 0.0
H415 H 0.66365 0.48029 0.47437 0.0
H416 H 0.57383 0.44176 0.54079 0.0
H417 H 0.56327 0.43843 0.60699 0.0
H418 H 0.61138 0.44495 0.71982 0.0
H419 H 0.65677 0.45697 0.73279 0.0
H420 H 0.6461 0.53685 0.68507 0.0
H421 H 0.6145 0.529 0.58494 0.0
H422 H 0.63191 0.39333 0.60558 0.0
H423 H 0.70329 0.44202 0.56794 0.0
C424 C 0.20629 0.69027 0.83129 0.0
C425 C 0.20663 0.71192 0.83338 0.0
C426 C 0.19683 0.71438 0.80326 0.0
C427 C 0.19012 0.69369 0.78524 0.0
N428 N 0.19499 0.67856 0.80229 0.0
Co429 Co 0.18267 0.64486 0.79004 0.0
N430 N 0.18104 0.65164 0.74106 0.0
C431 C 0.17965 0.67044 0.72885 0.0
C432 C 0.17789 0.67024 0.69371 0.0
C433 C 0.17787 0.64991 0.68336 0.0
C434 C 0.17952 0.63869 0.71294 0.0
N435 N 0.17027 0.61108 0.77768 0.0
C436 C 0.16924 0.60117 0.74653 0.0
C437 C 0.15822 0.57649 0.74941 0.0
C438 C 0.1519 0.571 0.78342 0.0
C439 C 0.15942 0.59254 0.79954 0.0
N440 N 0.18415 0.63872 0.83934 0.0
C441 C 0.17076 0.61765 0.85507 0.0
C442 C 0.17465 0.61938 0.88998 0.0
C443 C 0.19163 0.64298 0.89604 0.0
C444 C 0.19784 0.65424 0.86428 0.0
N445 N 0.14911 0.63791 0.7964 0.0
C446 C 0.10023 0.62153 0.81149 0.0
C447 C 0.11871 0.63862 0.83227 0.0
C448 C 0.14288 0.64637 0.82453 0.0
C449 C 0.10689 0.61361 0.78221 0.0
C450 C 0.13127 0.62229 0.77482 0.0
N451 N 0.2156 0.65054 0.78446 0.0
C452 C 0.24358 0.63743 0.79897 0.0
C453 C 0.26055 0.65335 0.77558 0.0
C454 C 0.25499 0.66911 0.75808 0.0
C455 C 0.23242 0.66755 0.76317 0.0
C456 C 0.22135 0.63578 0.80212 0.0
H457 H 0.22831 0.67957 0.74929 0.0
H458 H 0.20855 0.62191 0.81855 0.0
H459 H 0.15649 0.65865 0.84202 0.0
H460 H 0.13559 0.61569 0.75208 0.0
C461 C 0.18266 0.68905 0.75081 0.0
C462 C 0.2148 0.67996 0.85786 0.0
C463 C 0.17636 0.61449 0.71369 0.0
C464 C 0.15918 0.59652 0.83526 0.0
H465 H 0.21316 0.72455 0.85442 0.0
H466 H 0.19525 0.72959 0.79528 0.0
H467 H 0.17704 0.68341 0.67748 0.0
H468 H 0.17604 0.6437 0.65712 0.0
H469 H 0.15468 0.56378 0.72898 0.0
H470 H 0.14324 0.55343 0.79501 0.0
H471 H 0.16683 0.6051 0.90867 0.0
H472 H 0.1984 0.6509 0.92097 0.0
H473 H 0.1145 0.6454 0.85508 0.0
H474 H 0.09332 0.6008 0.76498 0.0
H475 H 0.24703 0.62548 0.81435 0.0
H476 H 0.26754 0.68193 0.7399 0.0
C477 C 0.53902 0.20397 0.00308 0.0
C478 C 0.51914 0.20648 0.00929 0.0
C479 C 0.5026 0.19365 0.98416 0.0
C480 C 0.51317 0.18389 0.96426 0.0
N481 N 0.53517 0.18971 0.9756 0.0
Co482 Co 0.55668 0.1796 0.95502 0.0
N483 N 0.54057 0.17392 0.90999 0.0
C484 C 0.51835 0.17041 0.90464 0.0
C485 C 0.51172 0.1665 0.87067 0.0
C486 C 0.53087 0.16738 0.85379 0.0
C487 C 0.54819 0.17174 0.87852 0.0
N488 N 0.57807 0.16919 0.93451 0.0
C489 C 0.58253 0.16717 0.90105 0.0
C490 C 0.59842 0.15861 0.89814 0.0
C491 C 0.60383 0.15505 0.93104 0.0
C492 C 0.59097 0.16157 0.95218 0.0
N493 N 0.57267 0.18575 1.00025 0.0
C494 C 0.58685 0.17724 0.01099 0.0
C495 C 0.59836 0.18765 0.04121 0.0
C496 C 0.59098 0.20365 0.04972 0.0
C497 C 0.57481 0.20184 0.02453 0.0
N498 N 0.53418 0.14596 0.96825 0.0
C499 C 0.50533 0.09747 0.98959 0.0
C500 C 0.50877 0.11684 0.01051 0.0
C501 C 0.52344 0.14063 0.99978 0.0
C502 C 0.51616 0.10346 0.95692 0.0
C503 C 0.52998 0.1275 0.94666 0.0
N504 N 0.5795 0.21292 0.94226 0.0
C505 C 0.62039 0.24548 0.94209 0.0
C506 C 0.61283 0.26171 0.93369 0.0
C507 C 0.58824 0.25296 0.92848 0.0
C508 C 0.5719 0.22838 0.93218 0.0
C509 C 0.60354 0.22138 0.94664 0.0
H510 H 0.55306 0.222 0.92804 0.0
H511 H 0.61007 0.20979 0.95506 0.0
H512 H 0.52631 0.1548 0.01728 0.0
H513 H 0.5378 0.13108 0.92135 0.0
C514 C 0.5059 0.17434 0.93115 0.0
C515 C 0.56112 0.21483 0.02382 0.0
C516 C 0.5705 0.17134 0.87185 0.0
C517 C 0.59397 0.1652 0.98788 0.0
H518 H 0.517 0.21681 0.02943 0.0
H519 H 0.48559 0.19284 0.97974 0.0
H520 H 0.49522 0.16396 0.85935 0.0
H521 H 0.53181 0.16472 0.82651 0.0
H522 H 0.60525 0.15516 0.87475 0.0
H523 H 0.61638 0.14932 0.93857 0.0
H524 H 0.61217 0.18555 0.05394 0.0
H525 H 0.59779 0.21578 0.07121 0.0
H526 H 0.50035 0.11405 0.03536 0.0
H527 H 0.5146 0.08986 0.93924 0.0
H528 H 0.6392 0.25157 0.9466 0.0
H529 H 0.58173 0.26501 0.92184 0.0
C530 C 0.32709 0.51403 0.14487 0.0
C531 C 0.30342 0.49604 0.13985 0.0
C532 C 0.30295 0.48401 0.11064 0.0
C533 C 0.32604 0.49556 0.09867 0.0
N534 N 0.34096 0.51421 0.11859 0.0
Co535 Co 0.37459 0.53799 0.10766 0.0
N536 N 0.36977 0.52924 0.05844 0.0
C537 C 0.35238 0.50859 0.04516 0.0
C538 C 0.35371 0.50763 0.01004 0.0
C539 C 0.37323 0.52901 1.00078 0.0
C540 C 0.3827 0.54179 0.03095 0.0
N541 N 0.40819 0.56171 0.09644 0.0
C542 C 0.41787 0.57181 0.06573 0.0
C543 C 0.44215 0.58798 0.06917 0.0
C544 C 0.44767 0.58784 0.1034 0.0
C545 C 0.4265 0.57159 0.1189 0.0
N546 N 0.37907 0.54661 0.15691 0.0
C547 C 0.40028 0.55796 0.17336 0.0
C548 C 0.39772 0.56175 0.20748 0.0
C549 C 0.37342 0.55213 0.21255 0.0
C550 C 0.36241 0.54306 0.18113 0.0
N551 N 0.38456 0.51385 0.11607 0.0
C552 C 0.40214 0.48224 0.12968 0.0
C553 C 0.3866 0.48448 0.1527 0.0
C554 C 0.37783 0.50015 0.14528 0.0
C555 C 0.40837 0.49591 0.09957 0.0
C556 C 0.39967 0.51167 0.09344 0.0
N557 N 0.36546 0.56251 0.09965 0.0
C558 C 0.37373 0.60285 0.1092 0.0
C559 C 0.35326 0.59834 0.09079 0.0
C560 C 0.33898 0.57555 0.07652 0.0
C561 C 0.34548 0.55788 0.08109 0.0
C562 C 0.37945 0.58481 0.1134 0.0
H563 H 0.3343 0.54044 0.06992 0.0
H564 H 0.39522 0.58895 0.12815 0.0
H565 H 0.36576 0.50134 0.16337 0.0
H566 H 0.40545 0.52232 0.07038 0.0
C567 C 0.3327 0.4932 0.06531 0.0
C568 C 0.33616 0.52972 0.17551 0.0
C569 C 0.40457 0.56514 0.03305 0.0
C570 C 0.42189 0.56867 0.15451 0.0
H571 H 0.28781 0.49212 0.15496 0.0
H572 H 0.28725 0.46975 0.09824 0.0
H573 H 0.3413 0.49364 0.99302 0.0
H574 H 0.37965 0.53453 0.97486 0.0
H575 H 0.45448 0.59868 0.04911 0.0
H576 H 0.46481 0.59909 0.11568 0.0
H577 H 0.41184 0.57132 0.22612 0.0
H578 H 0.36482 0.55185 0.23654 0.0
H579 H 0.38098 0.47395 0.17602 0.0
H580 H 0.42014 0.49459 0.08092 0.0
H581 H 0.38511 0.62021 0.12074 0.0
H582 H 0.32293 0.57142 0.06217 0.0
C583 C 0.82101 0.32821 0.32805 0.0
C584 C 0.81685 0.30498 0.32756 0.0
C585 C 0.82853 0.30319 0.29909 0.0
C586 C 0.83916 0.3254 0.28396 0.0
N587 N 0.83486 0.34084 0.30134 0.0
Co588 Co 0.8465 0.37444 0.28947 0.0
N589 N 0.85085 0.36861 0.24104 0.0
C590 C 0.85348 0.35047 0.22917 0.0
C591 C 0.85647 0.35136 0.19414 0.0
C592 C 0.85574 0.37131 0.18359 0.0
C593 C 0.85236 0.3815 0.21292 0.0
N594 N 0.85799 0.40808 0.27727 0.0
C595 C 0.85832 0.41756 0.24606 0.0
C596 C 0.86731 0.44196 0.24874 0.0
C597 C 0.87277 0.44771 0.283 0.0
C598 C 0.86685 0.42654 0.29932 0.0
N599 N 0.84229 0.37975 0.33834 0.0
C600 C 0.85287 0.40097 0.35453 0.0
C601 C 0.8443 0.399 0.38748 0.0
C602 C 0.82739 0.37518 0.39182 0.0
C603 C 0.82654 0.36379 0.36125 0.0
N604 N 0.88003 0.38258 0.29931 0.0
C605 C 0.92847 0.39842 0.31671 0.0
C606 C 0.92254 0.40709 0.28749 0.0
C607 C 0.89839 0.39873 0.27899 0.0
C608 C 0.90949 0.38116 0.3366 0.0
C609 C 0.88552 0.37372 0.32775 0.0
N610 N 0.81343 0.36743 0.28006 0.0
C611 C 0.78415 0.37978 0.28846 0.0
C612 C 0.76909 0.36386 0.2634 0.0
C613 C 0.77596 0.34839 0.24829 0.0
C614 C 0.79825 0.35035 0.25724 0.0
C615 C 0.80611 0.38164 0.29573 0.0
H616 H 0.80359 0.33876 0.24488 0.0
H617 H 0.81757 0.39552 0.31323 0.0
H618 H 0.89462 0.40574 0.25614 0.0
H619 H 0.87141 0.3611 0.3443 0.0
C620 C 0.84861 0.331 0.25055 0.0
C621 C 0.81162 0.33794 0.35391 0.0
C622 C 0.8517 0.40384 0.21373 0.0
C623 C 0.86477 0.4223 0.33514 0.0
H624 H 0.80615 0.29081 0.34551 0.0
H625 H 0.8281 0.28724 0.28955 0.0
H626 H 0.85793 0.3385 0.178 0.0
H627 H 0.85749 0.37761 0.15741 0.0
H628 H 0.86971 0.45423 0.22816 0.0
H629 H 0.87924 0.46506 0.29471 0.0
H630 H 0.84839 0.41339 0.40532 0.0
H631 H 0.8167 0.36748 0.41458 0.0
H632 H 0.93652 0.4201 0.27101 0.0
H633 H 0.91316 0.37387 0.35936 0.0
H634 H 0.77956 0.39185 0.30129 0.0
H635 H 0.76483 0.33574 0.22877 0.0
H636 H 0.28589 0.63763 0.46289 0.0
H637 H 0.30426 0.60225 0.38411 0.0
H638 H 0.34589 0.63657 0.38284 0.0
H639 H 0.31875 0.6956 0.43052 0.0
H640 H 0.32847 0.71024 0.47159 0.0
H641 H 0.30096 0.68212 0.46838 0.0
H642 H 0.31625 0.66385 0.51435 0.0
H643 H 0.34377 0.69202 0.51795 0.0
H644 H 0.34469 0.6652 0.50825 0.0
H645 H 0.38431 0.67715 0.38593 0.0
H646 H 0.41642 0.71878 0.39518 0.0
H647 H 0.37387 0.72608 0.47586 0.0
C648 C 0.29892 0.63693 0.44606 0.0
C649 C 0.29211 0.61724 0.42393 0.0
C650 C 0.30936 0.61705 0.40164 0.0
C651 C 0.33297 0.6365 0.40068 0.0
C652 C 0.33911 0.65588 0.42251 0.0
C653 C 0.32264 0.65604 0.44518 0.0
C654 C 0.3335 0.6793 0.46514 0.0
C655 C 0.31959 0.69259 0.4585 0.0
C656 C 0.33462 0.67482 0.50371 0.0
C657 C 0.35839 0.69249 0.44954 0.0
C658 C 0.36134 0.67875 0.42499 0.0
C659 C 0.38233 0.68786 0.40562 0.0
C660 C 0.40064 0.71162 0.41127 0.0
C661 C 0.39805 0.72617 0.43631 0.0
C662 C 0.37664 0.71598 0.45605 0.0
H663 H 0.64344 0.27995 0.60998 0.0
H664 H 0.69984 0.29634 0.53605 0.0
H665 H 0.70813 0.33815 0.53276 0.0
H666 H 0.62086 0.31447 0.57386 0.0
H667 H 0.61538 0.32479 0.61402 0.0
H668 H 0.61486 0.29668 0.61217 0.0
H669 H 0.64713 0.31077 0.66003 0.0
H670 H 0.64751 0.33883 0.66237 0.0
H671 H 0.67497 0.33846 0.65483 0.0
H672 H 0.70657 0.37673 0.5325 0.0
H673 H 0.69919 0.4102 0.54009 0.0
H674 H 0.64694 0.37014 0.61973 0.0
C675 C 0.65785 0.29253 0.59365 0.0
C676 C 0.67113 0.28504 0.57339 0.0
C677 C 0.68971 0.30186 0.55208 0.0
C678 C 0.69441 0.32557 0.54992 0.0
C679 C 0.68067 0.3323 0.56973 0.0
C680 C 0.66313 0.3164 0.59179 0.0
C681 C 0.65092 0.32813 0.61026 0.0
C682 C 0.62391 0.31525 0.60208 0.0
C683 C 0.65541 0.32911 0.64918 0.0
C684 C 0.66383 0.35292 0.59447 0.0
C685 C 0.68079 0.35491 0.571 0.0
C686 C 0.69378 0.37556 0.55152 0.0
C687 C 0.68953 0.39471 0.55635 0.0
C688 C 0.67266 0.39353 0.58101 0.0
C689 C 0.65982 0.37211 0.60035 0.0
H690 H 0.30825 0.68942 0.76106 0.0
H691 H 0.26301 0.61253 0.77296 0.0
H692 H 0.29835 0.6079 0.77197 0.0
H693 H 0.34835 0.6832 0.69873 0.0
H694 H 0.37504 0.70951 0.71347 0.0
H695 H 0.34626 0.70775 0.717 0.0
H696 H 0.35341 0.71626 0.78217 0.0
H697 H 0.38203 0.71763 0.77892 0.0
H698 H 0.35979 0.69718 0.80865 0.0
H699 H 0.33734 0.61077 0.77554 0.0
H700 H 0.37859 0.6193 0.76679 0.0
H701 H 0.40093 0.69322 0.74305 0.0
C702 C 0.3058 0.67163 0.76317 0.0
C703 C 0.28263 0.6515 0.76899 0.0
C704 C 0.28041 0.62849 0.77056 0.0
C705 C 0.30046 0.62556 0.76981 0.0
C706 C 0.32293 0.64566 0.76606 0.0
C707 C 0.32588 0.66816 0.76133 0.0
C708 C 0.35235 0.68615 0.75472 0.0
C709 C 0.3557 0.69731 0.71884 0.0
C710 C 0.36249 0.70545 0.78279 0.0
C711 C 0.36349 0.67008 0.75686 0.0
C712 C 0.34597 0.64695 0.76435 0.0
C713 C 0.35119 0.62868 0.76892 0.0
C714 C 0.37475 0.63376 0.764 0.0
C715 C 0.39296 0.65677 0.75359 0.0
C716 C 0.38742 0.67546 0.75096 0.0
H717 H 0.73735 0.37452 0.88077 0.0
H718 H 0.73049 0.41137 0.96971 0.0
H719 H 0.68944 0.37791 0.97879 0.0
H720 H 0.67569 0.34506 0.85167 0.0
H721 H 0.67541 0.31779 0.84078 0.0
H722 H 0.703 0.34598 0.8385 0.0
H723 H 0.72345 0.32986 0.87947 0.0
H724 H 0.69602 0.30161 0.88165 0.0
H725 H 0.70999 0.31772 0.92057 0.0
H726 H 0.64909 0.33876 0.97984 0.0
H727 H 0.61567 0.29684 0.97575 0.0
H728 H 0.65112 0.28453 0.89028 0.0
C729 C 0.72754 0.37576 0.90244 0.0
C730 C 0.73767 0.39603 0.92443 0.0
C731 C 0.72338 0.39656 0.95185 0.0
C732 C 0.69994 0.37746 0.95741 0.0
C733 C 0.69089 0.35768 0.9356 0.0
C734 C 0.70442 0.35667 0.90886 0.0
C735 C 0.69155 0.33266 0.89081 0.0
C736 C 0.68609 0.33556 0.85321 0.0
C737 C 0.70612 0.3197 0.89329 0.0
C738 C 0.66875 0.32011 0.91183 0.0
C739 C 0.66841 0.33497 0.93714 0.0
C740 C 0.6492 0.32708 0.96 0.0
C741 C 0.63022 0.30333 0.95738 0.0
C742 C 0.63076 0.28764 0.93248 0.0
C743 C 0.65018 0.29628 0.90928 0.0
H744 H 0.37196 0.72428 0.02925 0.0
H745 H 0.3309 0.72291 0.11863 0.0
H746 H 0.32123 0.68155 0.13048 0.0
H747 H 0.33546 0.66175 0.00435 0.0
H748 H 0.36111 0.65901 0.99287 0.0
H749 H 0.3624 0.68743 0.98889 0.0
H750 H 0.40022 0.70707 0.02763 0.0
H751 H 0.39912 0.67877 0.03158 0.0
H752 H 0.39916 0.69474 0.06958 0.0
H753 H 0.31837 0.64091 0.1352 0.0
H754 H 0.32428 0.60578 0.1336 0.0
H755 H 0.36926 0.63467 0.04372 0.0
C756 C 0.36095 0.71548 0.05143 0.0
C757 C 0.35222 0.72726 0.07288 0.0
C758 C 0.33751 0.71446 0.10121 0.0
C759 C 0.33201 0.69088 0.10834 0.0
C760 C 0.34135 0.68014 0.08706 0.0
C761 C 0.3556 0.6921 0.05923 0.0
C762 C 0.36489 0.67728 0.04178 0.0
C763 C 0.35539 0.671 0.00478 0.0
C764 C 0.39248 0.69024 0.04272 0.0
C765 C 0.354 0.65524 0.06446 0.0
C766 C 0.34017 0.65706 0.09017 0.0
C767 C 0.32895 0.63923 0.11496 0.0
C768 C 0.33229 0.6193 0.1138 0.0
C769 C 0.3468 0.61738 0.08818 0.0
C770 C 0.35763 0.63551 0.06309 0.0
H771 H 0.72026 0.32907 0.25504 0.0
H772 H 0.77113 0.40494 0.24488 0.0
H773 H 0.738 0.41301 0.23779 0.0
H774 H 0.6776 0.33 0.18866 0.0
H775 H 0.65127 0.30801 0.21105 0.0
H776 H 0.67892 0.30737 0.21416 0.0
H777 H 0.67694 0.30903 0.28039 0.0
H778 H 0.64954 0.31014 0.27748 0.0
H779 H 0.67498 0.3332 0.30031 0.0
H780 H 0.70115 0.41438 0.24322 0.0
H781 H 0.66084 0.40877 0.24229 0.0
H782 H 0.63073 0.33169 0.23741 0.0
C783 C 0.72432 0.34724 0.25041 0.0
C784 C 0.7484 0.36649 0.25145 0.0
C785 C 0.75293 0.39 0.24511 0.0
C786 C 0.73421 0.39481 0.24109 0.0
C787 C 0.7108 0.37585 0.24223 0.0
C788 C 0.70557 0.35243 0.24526 0.0
C789 C 0.67837 0.33572 0.24425 0.0
C790 C 0.67111 0.3193 0.21265 0.0
C791 C 0.66944 0.32116 0.2776 0.0
C792 C 0.66947 0.35364 0.24122 0.0
C793 C 0.68876 0.37661 0.24092 0.0
C794 C 0.68586 0.39649 0.24168 0.0
C795 C 0.66266 0.39301 0.24081 0.0
C796 C 0.64224 0.36982 0.23756 0.0
C797 C 0.64578 0.34972 0.23892 0.0
H798 H 0.20942 0.61711 0.66674 0.0
H799 H 0.13306 0.58533 0.6841 0.0
H800 H 0.12513 0.57126 0.62376 0.0
H801 H 0.2105 0.63772 0.58234 0.0
H802 H 0.23251 0.63078 0.56594 0.0
H803 H 0.23239 0.63732 0.6109 0.0
H804 H 0.22885 0.59681 0.62745 0.0
H805 H 0.22964 0.59047 0.58257 0.0
H806 H 0.20512 0.5696 0.60904 0.0
H807 H 0.12571 0.56303 0.56044 0.0
H808 H 0.13436 0.55567 0.50111 0.0
H809 H 0.21024 0.59152 0.52484 0.0
C810 C 0.19105 0.60655 0.65798 0.0
C811 C 0.17177 0.60177 0.68014 0.0
C812 C 0.14796 0.58857 0.66767 0.0
C813 C 0.14335 0.58081 0.63336 0.0
C814 C 0.16275 0.58631 0.61184 0.0
C815 C 0.18611 0.59841 0.62382 0.0
C816 C 0.20368 0.60182 0.59537 0.0
C817 C 0.22078 0.6285 0.58823 0.0
C818 C 0.21764 0.5889 0.60413 0.0
C819 C 0.18659 0.5899 0.56548 0.0
C820 C 0.16307 0.58135 0.57545 0.0
C821 C 0.14406 0.56965 0.55238 0.0
C822 C 0.14912 0.56582 0.51864 0.0
C823 C 0.17297 0.57357 0.50828 0.0
C824 C 0.19193 0.58601 0.53193 0.0
H825 H 0.6247 0.20291 0.68091 0.0
H826 H 0.58342 0.12716 0.65872 0.0
H827 H 0.56784 0.11932 0.71828 0.0
H828 H 0.64127 0.1974 0.76691 0.0
H829 H 0.63864 0.22197 0.78383 0.0
H830 H 0.64606 0.2218 0.73927 0.0
H831 H 0.60981 0.22637 0.721 0.0
H832 H 0.6024 0.22677 0.76551 0.0
H833 H 0.58027 0.20528 0.73653 0.0
H834 H 0.55772 0.11958 0.78046 0.0
H835 H 0.55209 0.12814 0.84071 0.0
H836 H 0.59934 0.20378 0.82308 0.0
C837 C 0.61212 0.18476 0.68864 0.0
C838 C 0.60483 0.16562 0.6653 0.0
C839 C 0.58876 0.14202 0.67622 0.0
C840 C 0.57998 0.13743 0.70997 0.0
C841 C 0.5875 0.15665 0.73251 0.0
C842 C 0.60307 0.17988 0.7223 0.0
C843 C 0.60834 0.19724 0.75175 0.0
C844 C 0.63517 0.21038 0.76098 0.0
C845 C 0.59968 0.21496 0.74318 0.0
C846 C 0.59336 0.18016 0.7801 0.0
C847 C 0.58158 0.15681 0.76843 0.0
C848 C 0.56681 0.13778 0.78985 0.0
C849 C 0.56377 0.14275 0.82395 0.0
C850 C 0.57538 0.16652 0.83627 0.0
C851 C 0.59041 0.18545 0.81414 0.0
H852 H 0.43328 0.5612 0.98455 0.0
H853 H 0.39531 0.59898 0.00837 0.0
H854 H 0.40381 0.6165 0.94986 0.0
H855 H 0.47989 0.60781 0.92911 0.0
H856 H 0.47993 0.58613 0.89999 0.0
H857 H 0.47272 0.57867 0.94463 0.0
H858 H 0.43256 0.54165 0.92662 0.0
H859 H 0.43935 0.54933 0.88196 0.0
H860 H 0.41186 0.54557 0.89991 0.0
H861 H 0.41462 0.62809 0.88761 0.0
H862 H 0.42971 0.63546 0.82773 0.0
H863 H 0.4597 0.58924 0.84353 0.0
C864 C 0.42752 0.5738 0.97765 0.0
C865 C 0.41418 0.57931 1.00102 0.0
C866 C 0.40606 0.5951 0.99095 0.0
C867 C 0.41061 0.6049 0.95772 0.0
C868 C 0.42319 0.59859 0.93482 0.0
C869 C 0.4318 0.58363 0.94446 0.0
C870 C 0.44407 0.579 0.91456 0.0
C871 C 0.47074 0.58848 0.92255 0.0
C872 C 0.43118 0.5523 0.90522 0.0
C873 C 0.44093 0.59357 0.88653 0.0
C874 C 0.42881 0.6047 0.89876 0.0
C875 C 0.42405 0.61939 0.87778 0.0
C876 C 0.43246 0.6233 0.84378 0.0
C877 C 0.44524 0.61241 0.83096 0.0
C878 C 0.44934 0.59719 0.85253 0.0
H879 H 0.88445 0.43331 0.16579 0.0
H880 H 0.80836 0.39246 0.1872 0.0
H881 H 0.79946 0.40002 0.12802 0.0
H882 H 0.88221 0.47833 0.10915 0.0
H883 H 0.90509 0.47972 0.08099 0.0
H884 H 0.90514 0.47274 0.1258 0.0
H885 H 0.90489 0.43387 0.10861 0.0
H886 H 0.90423 0.44041 0.06378 0.0
H887 H 0.88127 0.41244 0.08131 0.0
H888 H 0.7989 0.4103 0.06547 0.0
H889 H 0.80679 0.42538 0.00559 0.0
H890 H 0.88322 0.45885 0.02392 0.0
C891 C 0.86598 0.42669 0.1582 0.0
C892 C 0.84702 0.41285 0.18113 0.0
C893 C 0.82304 0.40361 0.17014 0.0
C894 C 0.81786 0.40763 0.13652 0.0
C895 C 0.83691 0.42082 0.11412 0.0
C896 C 0.86051 0.43049 0.12461 0.0
C897 C 0.87761 0.44338 0.09514 0.0
C898 C 0.89345 0.47013 0.10326 0.0
C899 C 0.8929 0.43183 0.08672 0.0
C900 C 0.85998 0.43932 0.06639 0.0
C901 C 0.83658 0.42623 0.0779 0.0
C902 C 0.81715 0.42049 0.0562 0.0
C903 C 0.82174 0.4289 0.0222 0.0
C904 C 0.84552 0.44268 0.01009 0.0
C905 C 0.86487 0.44776 0.03239 0.0
H906 H 0.44001 0.86609 0.17713 0.0
H907 H 0.38848 0.79122 0.1615 0.0
H908 H 0.39445 0.78255 0.22165 0.0
H909 H 0.48075 0.85765 0.23441 0.0
H910 H 0.48678 0.88298 0.26081 0.0
H911 H 0.47962 0.88269 0.21598 0.0
H912 H 0.44488 0.89013 0.23251 0.0
H913 H 0.45168 0.89007 0.27739 0.0
H914 H 0.42193 0.86984 0.26158 0.0
H915 H 0.40489 0.78248 0.28431 0.0
H916 H 0.42021 0.79084 0.34423 0.0
H917 H 0.46429 0.86587 0.31947 0.0
C918 C 0.43054 0.84782 0.18627 0.0
C919 C 0.41425 0.82913 0.16473 0.0
C920 C 0.40141 0.80557 0.17762 0.0
C921 C 0.4046 0.80056 0.21171 0.0
C922 C 0.42056 0.8194 0.23259 0.0
C923 C 0.43344 0.84255 0.22031 0.0
C924 C 0.44879 0.85968 0.24839 0.0
C925 C 0.47557 0.87144 0.23935 0.0
C926 C 0.44137 0.87854 0.25537 0.0
C927 C 0.44248 0.84261 0.2784 0.0
C928 C 0.42618 0.81944 0.26876 0.0
C929 C 0.41767 0.80054 0.29211 0.0
C930 C 0.42632 0.80541 0.32602 0.0
C931 C 0.44317 0.82893 0.33618 0.0
C932 C 0.45122 0.84777 0.31217 0.0
H933 H 0.60178 0.436 0.32315 0.0
H934 H 0.52803 0.38413 0.34812 0.0
H935 H 0.53759 0.39122 0.4097 0.0
H936 H 0.63476 0.43725 0.39322 0.0
H937 H 0.6508 0.46898 0.40112 0.0
H938 H 0.64022 0.45782 0.35848 0.0
H939 H 0.61658 0.48058 0.35606 0.0
H940 H 0.62785 0.49253 0.39818 0.0
H941 H 0.59598 0.4766 0.39016 0.0
H942 H 0.56175 0.39612 0.46718 0.0
H943 H 0.58703 0.41418 0.51832 0.0
H944 H 0.63117 0.47847 0.45863 0.0
C945 C 0.58738 0.42646 0.34132 0.0
C946 C 0.56482 0.40722 0.33063 0.0
C947 C 0.54628 0.39673 0.35559 0.0
C948 C 0.55139 0.40087 0.39074 0.0
C949 C 0.57438 0.41815 0.40048 0.0
C950 C 0.59111 0.43262 0.37648 0.0
C951 C 0.61209 0.45372 0.39418 0.0
C952 C 0.63587 0.45447 0.38625 0.0
C953 C 0.61318 0.47726 0.38405 0.0
C954 C 0.60513 0.4476 0.43175 0.0
C955 C 0.58413 0.42614 0.43462 0.0
C956 C 0.57722 0.4139 0.46572 0.0
C957 C 0.59169 0.42447 0.4948 0.0
C958 C 0.6115 0.44818 0.49381 0.0
C959 C 0.61761 0.45998 0.46139 0.0
H960 H 0.96595 0.44487 0.32508 0.0
H961 H 0.94928 0.37109 0.32916 0.0
H962 H 0.99177 0.38448 0.34276 0.0
H963 H 0.02522 0.47009 0.28815 0.0
H964 H 0.03797 0.49686 0.31389 0.0
H965 H 1.00648 0.48158 0.30338 0.0
H966 H 0.99592 0.47841 0.368 0.0
H967 H 0.02738 0.49373 0.3787 0.0
H968 H 1.0075 0.46483 0.39705 0.0
H969 H 0.03694 0.40622 0.35345 0.0
H970 H 0.0798 0.4341 0.36647 0.0
H971 H 0.06698 0.49382 0.36055 0.0
C972 C 0.9713 0.43156 0.32875 0.0
C973 C 0.9542 0.40685 0.32581 0.0
C974 C 0.96193 0.39004 0.33132 0.0
C975 C 0.9861 0.39752 0.33892 0.0
C976 C 1.00249 0.42196 0.34157 0.0
C977 C 0.99534 0.43874 0.33717 0.0
C978 C 0.01636 0.46387 0.34293 0.0
C979 C 0.02183 0.47899 0.31013 0.0
C980 C 1.0115 0.47592 0.37349 0.0
C981 C 0.03647 0.45865 0.35105 0.0
C982 C 0.02814 0.43436 0.34962 0.0
C983 C 0.04354 0.42523 0.35493 0.0
C984 C 0.06791 0.44121 0.36219 0.0
C985 C 0.0768 0.46613 0.36476 0.0
C986 C 0.06072 0.47485 0.3591 0.0
H987 H 0.53737 0.95072 0.52497 0.0
H988 H 0.55235 0.9517 0.41593 0.0
H989 H 0.57514 0.99543 0.41707 0.0
H990 H 0.53157 1.00284 0.52717 0.0
H991 H 0.54719 0.01417 0.56731 0.0
H992 H 0.53173 0.98252 0.55882 0.0
H993 H 0.57087 0.98148 0.56996 0.0
H994 H 0.5864 0.0131 0.57878 0.0
H995 H 0.59759 1.0013 0.54629 0.0
H996 H 0.59326 0.03912 0.42797 0.0
H997 H 0.60992 0.07984 0.44902 0.0
H998 H 0.58925 0.05256 0.55322 0.0
C999 C 0.54568 0.96004 0.50138 0.0
C1000 C 0.54215 0.94724 0.47008 0.0
C1001 C 0.55364 0.9606 0.44004 0.0
C1002 C 0.56696 0.98566 0.44042 0.0
C1003 C 0.56941 0.9976 0.47121 0.0
C1004 C 0.55958 0.98533 0.50137 0.0
C1005 C 0.56562 1.00293 0.53101 0.0
C1006 C 0.54266 1.00046 0.54702 0.0
C1007 C 0.58104 0.9995 0.55812 0.0
C1008 C 0.57997 0.02686 0.51254 0.0
C1009 C 0.58166 0.02319 0.47803 0.0
C1010 C 0.59265 0.04223 0.45518 0.0
C1011 C 0.60246 0.06564 0.46777 0.0
C1012 C 0.602 0.07044 0.50339 0.0
C1013 C 0.59034 0.05033 0.52591 0.0
H1014 H 0.57033 0.62089 0.65248 0.0
H1015 H 0.52485 0.57203 0.73211 0.0
H1016 H 0.54492 0.54869 0.72553 0.0
H1017 H 0.56828 0.57329 0.5985 0.0
H1018 H 0.59876 0.59107 0.58375 0.0
H1019 H 0.58177 0.60529 0.59538 0.0
H1020 H 0.61497 0.63227 0.63851 0.0
H1021 H 0.632 0.61804 0.62715 0.0
H1022 H 0.62409 0.61874 0.67136 0.0
H1023 H 0.57074 0.53098 0.71315 0.0
H1024 H 0.59768 0.51735 0.69045 0.0
H1025 H 0.62424 0.57365 0.61398 0.0
C1026 C 0.56442 0.60526 0.66849 0.0
C1027 C 0.54633 0.59925 0.69393 0.0
C1028 C 0.53931 0.57823 0.7137 0.0
C1029 C 0.55047 0.56445 0.70988 0.0
C1030 C 0.56844 0.57118 0.68543 0.0
C1031 C 0.57512 0.59077 0.6645 0.0
C1032 C 0.59432 0.59315 0.63915 0.0
C1033 C 0.58524 0.59054 0.60199 0.0
C1034 C 0.61773 0.61697 0.64436 0.0
C1035 C 0.59742 0.572 0.64948 0.0
C1036 C 0.58243 0.55984 0.67658 0.0
C1037 C 0.58241 0.54025 0.69173 0.0
C1038 C 0.59791 0.5327 0.67876 0.0
C1039 C 0.61314 0.54435 0.65048 0.0
C1040 C 0.61276 0.56428 0.63554 0.0
H1041 H 0.06338 0.57456 0.81786 0.0
H1042 H 0.07836 0.64772 0.82503 0.0
H1043 H 0.03573 0.6332 0.83898 0.0
H1044 H 1.00361 0.54874 0.78128 0.0
H1045 H 0.99157 0.5216 0.80606 0.0
H1046 H 0.02298 0.53763 0.79522 0.0
H1047 H 0.03407 0.53999 0.8596 0.0
H1048 H 1.0027 0.52393 0.87062 0.0
H1049 H 0.02226 0.55267 0.88975 0.0
H1050 H 0.9907 0.61048 0.85019 0.0
H1051 H 0.94811 0.58171 0.86337 0.0
H1052 H 0.96246 0.52315 0.85408 0.0
C1053 C 0.05761 0.5875 0.82218 0.0
C1054 C 0.07429 0.61237 0.82004 0.0
C1055 C 0.06604 0.62866 0.82649 0.0
C1056 C 0.04178 0.62054 0.83432 0.0
C1057 C 0.02583 0.59596 0.83625 0.0
C1058 C 0.03347 0.57966 0.83081 0.0
C1059 C 1.01285 0.55424 0.83603 0.0
C1060 C 1.00743 0.53969 0.80266 0.0
C1061 C 0.0183 0.54199 0.86577 0.0
C1062 C 0.99242 0.55876 0.84514 0.0
C1063 C 1.00024 0.58296 0.84459 0.0
C1064 C 0.9845 0.59153 0.85095 0.0
C1065 C 0.9603 0.57506 0.85833 0.0
C1066 C 0.95194 0.55022 0.85997 0.0
C1067 C 0.96834 0.54205 0.85329 0.0
H1068 H 0.48444 0.05399 0.95184 0.0
H1069 H 0.4946 0.08073 0.05687 0.0
H1070 H 0.47162 0.03987 0.0778 0.0
H1071 H 0.42536 1.00242 0.96177 0.0
H1072 H 0.43156 0.98296 0.93599 0.0
H1073 H 0.44721 0.01465 0.92776 0.0
H1074 H 0.48793 0.01615 0.93491 0.0
H1075 H 0.47242 0.98445 0.94293 0.0
H1076 H 0.49389 1.00474 0.9737 0.0
H1077 H 0.4468 0.99608 0.08862 0.0
H1078 H 0.4262 0.95236 0.08922 0.0
H1079 H 0.43604 0.95192 0.97883 0.0
C1080 C 0.48213 0.05162 0.9793 0.0
C1081 C 0.49127 0.07164 1.00216 0.0
C1082 C 0.48731 0.06663 0.03795 0.0
C1083 C 0.47433 0.04312 0.05046 0.0
C1084 C 0.46561 0.02419 0.02729 0.0
C1085 C 0.46966 0.02805 0.99251 0.0
C1086 C 0.45954 1.00419 0.97359 0.0
C1087 C 0.43974 1.00087 0.94827 0.0
C1088 C 0.47965 1.00227 0.95519 0.0
C1089 C 0.44921 0.98643 0.00327 0.0
C1090 C 0.45268 0.99854 0.03388 0.0
C1091 C 0.4444 0.98643 0.06486 0.0
C1092 C 0.43284 0.96138 0.0649 0.0
C1093 C 0.42991 0.94817 0.03429 0.0
C1094 C 0.43792 0.96113 0.00285 0.0
H1095 H 0.43608 0.48467 0.17637 0.0
H1096 H 0.38817 0.44073 0.09529 0.0
H1097 H 0.40285 0.41205 0.10207 0.0
H1098 H 0.48554 0.4765 0.15157 0.0
H1099 H 0.49522 0.47596 0.19487 0.0
H1100 H 0.48 0.49231 0.18522 0.0
H1101 H 0.44826 0.46836 0.23173 0.0
H1102 H 0.46339 0.45191 0.24149 0.0
H1103 H 0.43206 0.43617 0.22992 0.0
H1104 H 0.42283 0.38802 0.11751 0.0
H1105 H 0.4477 0.37144 0.13797 0.0
H1106 H 0.48519 0.43195 0.20697 0.0
C1107 C 0.42853 0.46883 0.16039 0.0
C1108 C 0.41069 0.46474 0.13553 0.0
C1109 C 0.40163 0.44409 0.11462 0.0
C1110 C 0.40989 0.42771 0.11833 0.0
C1111 C 0.42752 0.43223 0.14288 0.0
C1112 C 0.43689 0.45237 0.16345 0.0
C1113 C 0.45652 0.45344 0.18671 0.0
C1114 C 0.48075 0.47588 0.17913 0.0
C1115 C 0.44964 0.45241 0.22472 0.0
C1116 C 0.4567 0.4308 0.17604 0.0
C1117 C 0.43969 0.41879 0.1509 0.0
C1118 C 0.43634 0.39743 0.137 0.0
C1119 C 0.45083 0.38821 0.1487 0.0
C1120 C 0.4689 0.40029 0.17399 0.0
C1121 C 0.47156 0.42191 0.18791 0.0
H1122 H 0.25849 0.5643 0.30329 0.0
H1123 H 0.20734 0.4883 0.30442 0.0
H1124 H 0.23483 0.4808 0.26957 0.0
H1125 H 0.27257 0.56191 0.21029 0.0
H1126 H 0.30329 0.5855 0.21464 0.0
H1127 H 0.28044 0.5851 0.24184 0.0
H1128 H 0.30507 0.58657 0.29537 0.0
H1129 H 0.32772 0.58641 0.26834 0.0
H1130 H 0.31335 0.5639 0.30104 0.0
H1131 H 0.27125 0.48109 0.24578 0.0
H1132 H 0.30589 0.48872 0.2099 0.0
H1133 H 0.32875 0.56425 0.20751 0.0
C1134 C 0.25305 0.54614 0.29585 0.0
C1135 C 0.23152 0.52664 0.30879 0.0
C1136 C 0.22442 0.50332 0.29679 0.0
C1137 C 0.2399 0.49887 0.27695 0.0
C1138 C 0.26179 0.51815 0.26695 0.0
C1139 C 0.26773 0.54143 0.27394 0.0
C1140 C 0.29103 0.55878 0.25569 0.0
C1141 C 0.28656 0.57371 0.22902 0.0
C1142 C 0.31044 0.57487 0.28167 0.0
C1143 C 0.29742 0.54148 0.23838 0.0
C1144 C 0.28069 0.51821 0.24668 0.0
C1145 C 0.28379 0.4991 0.2375 0.0
C1146 C 0.30353 0.50362 0.21713 0.0
C1147 C 0.31903 0.52676 0.20389 0.0
C1148 C 0.31659 0.54619 0.21604 0.0
H1149 H 0.79673 0.32732 0.42261 0.0
H1150 H 0.77132 0.31039 0.31748 0.0
H1151 H 0.73253 0.27775 0.33815 0.0
H1152 H 0.76986 0.27013 0.45509 0.0
H1153 H 0.76084 0.27624 0.49589 0.0
H1154 H 0.78621 0.29962 0.47362 0.0
H1155 H 0.76666 0.32628 0.47506 0.0
H1156 H 0.74135 0.30308 0.49784 0.0
H1157 H 0.73674 0.31483 0.45836 0.0
H1158 H 0.70021 0.2423 0.36925 0.0
H1159 H 0.67291 0.2111 0.40936 0.0
H1160 H 0.71428 0.25492 0.49541 0.0
C1161 C 0.78266 0.31764 0.40402 0.0
C1162 C 0.78709 0.32178 0.36829 0.0
C1163 C 0.76839 0.30764 0.34491 0.0
C1164 C 0.74626 0.28901 0.3564 0.0
C1165 C 0.74265 0.285 0.39159 0.0
C1166 C 0.75999 0.29935 0.41518 0.0
C1167 C 0.75134 0.29082 0.4516 0.0
C1168 C 0.76806 0.28379 0.47013 0.0
C1169 C 0.74887 0.30989 0.47192 0.0
C1170 C 0.72691 0.26904 0.44459 0.0
C1171 C 0.72245 0.26585 0.40973 0.0
C1172 C 0.70277 0.24529 0.39666 0.0
C1173 C 0.687 0.22777 0.41976 0.0
C1174 C 0.6902 0.23125 0.45573 0.0
C1175 C 0.71064 0.25222 0.46811 0.0
H1176 H 0.4787 0.6901 0.58292 0.0
H1177 H 0.4696 0.70604 0.68811 0.0
H1178 H 0.46284 0.73837 0.66796 0.0
H1179 H 0.50993 0.748 0.55312 0.0
H1180 H 0.49579 0.7428 0.51156 0.0
H1181 H 0.49713 0.71891 0.53337 0.0
H1182 H 0.45094 0.69244 0.52926 0.0
H1183 H 0.44947 0.71619 0.50703 0.0
H1184 H 0.43214 0.70357 0.5455 0.0
H1185 H 0.46551 0.77382 0.63774 0.0
H1186 H 0.47075 0.80603 0.59863 0.0
H1187 H 0.47136 0.76453 0.51163 0.0
C1188 C 0.47416 0.69963 0.60153 0.0
C1189 C 0.47432 0.69523 0.63717 0.0
C1190 C 0.46936 0.70893 0.66074 0.0
C1191 C 0.46555 0.7274 0.64953 0.0
C1192 C 0.46626 0.73184 0.61443 0.0
C1193 C 0.46979 0.71798 0.59063 0.0
C1194 C 0.47061 0.72733 0.55446 0.0
C1195 C 0.4948 0.73469 0.53712 0.0
C1196 C 0.44953 0.70877 0.53278 0.0
C1197 C 0.46789 0.749 0.5619 0.0
C1198 C 0.46559 0.75134 0.59671 0.0
C1199 C 0.46598 0.77153 0.61027 0.0
C1200 C 0.46846 0.78964 0.58771 0.0
C1201 C 0.46965 0.78718 0.55175 0.0
C1202 C 0.46941 0.76649 0.53888 0.0
H1203 H 0.80316 0.51009 0.79061 0.0
H1204 H 0.77208 0.43479 0.81391 0.0
H1205 H 0.73739 0.42588 0.77624 0.0
H1206 H 0.74603 0.50857 0.80089 0.0
H1207 H 0.75325 0.53145 0.76906 0.0
H1208 H 0.77682 0.5312 0.79377 0.0
H1209 H 0.79797 0.53054 0.7375 0.0
H1210 H 0.77441 0.5307 0.71265 0.0
H1211 H 0.78165 0.50737 0.70625 0.0
H1212 H 0.7065 0.42597 0.73277 0.0
H1213 H 0.68148 0.43515 0.69388 0.0
H1214 H 0.72713 0.51057 0.71538 0.0
C1215 C 0.78868 0.49179 0.78908 0.0
C1216 C 0.79004 0.47324 0.80645 0.0
C1217 C 0.77142 0.44936 0.80115 0.0
C1218 C 0.75158 0.44416 0.77992 0.0
C1219 C 0.75023 0.46309 0.7648 0.0
C1220 C 0.76812 0.48648 0.7699 0.0
C1221 C 0.76164 0.50384 0.75355 0.0
C1222 C 0.75929 0.5197 0.78095 0.0
C1223 C 0.78001 0.519 0.72585 0.0
C1224 C 0.73753 0.48663 0.73774 0.0
C1225 C 0.73147 0.46317 0.74356 0.0
C1226 C 0.71099 0.44431 0.72858 0.0
C1227 C 0.69679 0.44967 0.70665 0.0
C1228 C 0.70272 0.47364 0.70046 0.0
C1229 C 0.72271 0.49213 0.71788 0.0
H1230 H 0.32955 0.80245 0.9196 0.0
H1231 H 0.34221 0.76209 0.99729 0.0
H1232 H 0.31013 0.72429 0.97206 0.0
H1233 H 0.26768 0.76836 0.91868 0.0
H1234 H 0.26382 0.76986 0.87305 0.0
H1235 H 0.28975 0.7934 0.89421 0.0
H1236 H 0.31784 0.78736 0.85291 0.0
H1237 H 0.29196 0.7641 0.83112 0.0
H1238 H 0.31444 0.75804 0.84826 0.0
H1239 H 0.27376 0.69089 0.94044 0.0
H1240 H 0.23768 0.66569 0.90652 0.0
H1241 H 0.2502 0.7282 0.84805 0.0
C1242 C 0.32604 0.78557 0.93048 0.0
C1243 C 0.33852 0.78503 0.96003 0.0
C1244 C 0.33306 0.76274 0.97432 0.0
C1245 C 0.31481 0.74122 0.9602 0.0
C1246 C 0.3023 0.74229 0.93152 0.0
C1247 C 0.30797 0.76392 0.91651 0.0
C1248 C 0.291 0.76033 0.88709 0.0
C1249 C 0.27726 0.77378 0.89367 0.0
C1250 C 0.30463 0.7679 0.85281 0.0
C1251 C 0.2744 0.73348 0.88864 0.0
C1252 C 0.28121 0.72334 0.91422 0.0
C1253 C 0.26807 0.69886 0.92078 0.0
C1254 C 0.24703 0.68463 0.9016 0.0
C1255 C 0.23865 0.69481 0.87649 0.0
C1256 C 0.25382 0.71949 0.86887 0.0
H1257 H 0.55555 0.33225 0.07371 0.0
H1258 H 0.57442 0.32331 0.1773 0.0
H1259 H 0.58241 0.2918 0.15743 0.0
H1260 H 0.52531 0.27371 0.05067 0.0
H1261 H 0.53601 0.27661 0.0072 0.0
H1262 H 0.53548 0.30134 0.02761 0.0
H1263 H 0.58099 0.32875 0.0163 0.0
H1264 H 0.58128 0.30419 0.99476 0.0
H1265 H 0.60168 0.31916 0.02983 0.0
H1266 H 0.57706 0.25459 0.13012 0.0
H1267 H 0.56885 0.22009 0.09413 0.0
H1268 H 0.56177 0.25621 0.00489 0.0
C1269 C 0.56267 0.32458 0.09171 0.0
C1270 C 0.56481 0.3306 0.12706 0.0
C1271 C 0.57313 0.31936 0.15012 0.0
C1272 C 0.57751 0.30125 0.13908 0.0
C1273 C 0.57411 0.29483 0.10453 0.0
C1274 C 0.5678 0.30671 0.08082 0.0
C1275 C 0.56441 0.29532 0.04546 0.0
C1276 C 0.53878 0.28621 0.03196 0.0
C1277 C 0.58322 0.31291 0.02009 0.0
C1278 C 0.56867 0.27464 0.05352 0.0
C1279 C 0.57392 0.27458 0.08789 0.0
C1280 C 0.57462 0.25526 0.10272 0.0
C1281 C 0.57044 0.23582 0.08182 0.0
C1282 C 0.5668 0.23614 0.04598 0.0
C1283 C 0.56576 0.25591 0.03187 0.0
loop_
_geom_bond_atom_site_label_1
_geom_bond_atom_site_label_2
_geom_bond_distance
_geom_bond_site_symmetry_2
_ccdc_geom_bond_type
C0 C1 1.443 . S
C0 N4 1.376 . S
C0 C38 1.389 . S
C1 C0 1.443 . S
C1 C2 1.340 . S
C1 H41 0.951 . S
C2 C1 1.340 . S
C2 C3 1.439 . S
C2 H42 0.950 . S
C3 C2 1.439 . S
C3 N4 1.374 . S
C3 C37 1.395 . S
N4 C0 1.376 . S
N4 C3 1.374 . S
N4 Co5 2.008 . S
Co5 N4 2.008 . S
Co5 N6 1.995 . S
Co5 N11 2.008 . S
Co5 N16 1.995 . S
Co5 N21 2.282 . S
Co5 N27 2.282 . S
N6 Co5 1.995 . S
N6 C7 1.376 . S
N6 C10 1.383 . S
C7 N6 1.376 . S
C7 C8 1.446 . S
C7 C37 1.391 . S
C8 C7 1.446 . S
C8 C9 1.339 . S
C8 H43 0.949 . S
C9 C8 1.339 . S
C9 C10 1.439 . S
C9 H44 0.950 . S
C10 N6 1.383 . S
C10 C9 1.439 . S
C10 C39 1.392 . S
N11 Co5 2.008 . S
N11 C12 1.376 . S
N11 C15 1.374 . S
C12 N11 1.376 . S
C12 C13 1.443 . S
C12 C39 1.389 . S
C13 C12 1.443 . S
C13 C14 1.340 . S
C13 H45 0.951 . S
C14 C13 1.340 . S
C14 C15 1.439 . S
C14 H46 0.950 . S
C15 N11 1.374 . S
C15 C14 1.439 . S
C15 C40 1.395 . S
N16 Co5 1.995 . S
N16 C17 1.376 . S
N16 C20 1.383 . S
C17 N16 1.376 . S
C17 C18 1.446 . S
C17 C40 1.391 . S
C18 C17 1.446 . S
C18 C19 1.339 . S
C18 H47 0.949 . S
C19 C18 1.339 . S
C19 C20 1.439 . S
C19 H48 0.950 . S
C20 N16 1.383 . S
C20 C19 1.439 . S
C20 C38 1.392 . S
N21 Co5 2.282 . S
N21 C24 1.332 . S
N21 C26 1.332 . S
C22 C23 1.386 . S
C22 C25 1.388 . S
C23 C22 1.386 . S
C23 C24 1.382 . S
C23 H49 0.950 . S
C24 N21 1.332 . S
C24 C23 1.382 . S
C24 H35 0.952 . S
C25 C22 1.388 . S
C25 C26 1.382 . S
C25 H50 0.950 . S
C26 N21 1.332 . S
C26 C25 1.382 . S
C26 H36 0.948 . S
N27 Co5 2.282 . S
N27 C31 1.332 . S
N27 C32 1.332 . S
C28 C29 1.388 . S
C28 C32 1.382 . S
C28 H51 0.950 . S
C29 C28 1.388 . S
C29 C30 1.386 . S
C30 C29 1.386 . S
C30 C31 1.382 . S
C30 H52 0.950 . S
C31 N27 1.332 . S
C31 C30 1.382 . S
C31 H33 0.952 . S
C32 N27 1.332 . S
C32 C28 1.382 . S
C32 H34 0.948 . S
H33 C31 0.952 . S
H34 C32 0.948 . S
H35 C24 0.952 . S
H36 C26 0.948 . S
C37 C3 1.395 . S
C37 C7 1.391 . S
C38 C0 1.389 . S
C38 C20 1.392 . S
C39 C10 1.392 . S
C39 C12 1.389 . S
C40 C15 1.395 . S
C40 C17 1.391 . S
H41 C1 0.951 . S
H42 C2 0.950 . S
H43 C8 0.949 . S
H44 C9 0.950 . S
H45 C13 0.951 . S
H46 C14 0.950 . S
H47 C18 0.949 . S
H48 C19 0.950 . S
H49 C23 0.950 . S
H50 C25 0.950 . S
H51 C28 0.950 . S
H52 C30 0.950 . S
C53 C54 1.443 . S
C53 N57 1.376 . S
C53 C91 1.389 . S
C54 C53 1.443 . S
C54 C55 1.340 . S
C54 H94 0.951 . S
C55 C54 1.340 . S
C55 C56 1.439 . S
C55 H95 0.950 . S
C56 C55 1.439 . S
C56 N57 1.374 . S
C56 C90 1.395 . S
N57 C53 1.376 . S
N57 C56 1.374 . S
N57 Co58 2.008 . S
Co58 N57 2.008 . S
Co58 N59 1.995 . S
Co58 N64 2.008 . S
Co58 N69 1.995 . S
Co58 N74 2.282 . S
Co58 N80 2.282 . S
N59 Co58 1.995 . S
N59 C60 1.376 . S
N59 C63 1.383 . S
C60 N59 1.376 . S
C60 C61 1.446 . S
C60 C90 1.391 . S
C61 C60 1.446 . S
C61 C62 1.339 . S
C61 H96 0.949 . S
C62 C61 1.339 . S
C62 C63 1.439 . S
C62 H97 0.950 . S
C63 N59 1.383 . S
C63 C62 1.439 . S
C63 C92 1.392 . S
N64 Co58 2.008 . S
N64 C65 1.376 . S
N64 C68 1.374 . S
C65 N64 1.376 . S
C65 C66 1.443 . S
C65 C92 1.389 . S
C66 C65 1.443 . S
C66 C67 1.340 . S
C66 H98 0.951 . S
C67 C66 1.340 . S
C67 C68 1.439 . S
C67 H99 0.950 . S
C68 N64 1.374 . S
C68 C67 1.439 . S
C68 C93 1.395 . S
N69 Co58 1.995 . S
N69 C70 1.376 . S
N69 C73 1.383 . S
C70 N69 1.376 . S
C70 C71 1.446 . S
C70 C93 1.391 . S
C71 C70 1.446 . S
C71 C72 1.339 . S
C71 H100 0.949 . S
C72 C71 1.339 . S
C72 C73 1.439 . S
C72 H101 0.950 . S
C73 N69 1.383 . S
C73 C72 1.439 . S
C73 C91 1.392 . S
N74 Co58 2.282 . S
N74 C77 1.332 . S
N74 C79 1.332 . S
C75 C76 1.386 . S
C75 C78 1.388 . S
C76 C75 1.386 . S
C76 C77 1.382 . S
C76 H102 0.950 . S
C77 N74 1.332 . S
C77 C76 1.382 . S
C77 H88 0.952 . S
C78 C75 1.388 . S
C78 C79 1.382 . S
C78 H103 0.950 . S
C79 N74 1.332 . S
C79 C78 1.382 . S
C79 H89 0.948 . S
N80 Co58 2.282 . S
N80 C84 1.332 . S
N80 C85 1.332 . S
C81 C82 1.388 . S
C81 C85 1.382 . S
C81 H104 0.950 . S
C82 C81 1.388 . S
C82 C83 1.386 . S
C83 C82 1.386 . S
C83 C84 1.382 . S
C83 H105 0.950 . S
C84 N80 1.332 . S
C84 C83 1.382 . S
C84 H86 0.952 . S
C85 N80 1.332 . S
C85 C81 1.382 . S
C85 H87 0.948 . S
H86 C84 0.952 . S
H87 C85 0.948 . S
H88 C77 0.952 . S
H89 C79 0.948 . S
C90 C56 1.395 . S
C90 C60 1.391 . S
C91 C53 1.389 . S
C91 C73 1.392 . S
C92 C63 1.392 . S
C92 C65 1.389 . S
C93 C68 1.395 . S
C93 C70 1.391 . S
H94 C54 0.951 . S
H95 C55 0.950 . S
H96 C61 0.949 . S
H97 C62 0.950 . S
H98 C66 0.951 . S
H99 C67 0.950 . S
H100 C71 0.949 . S
H101 C72 0.950 . S
H102 C76 0.950 . S
H103 C78 0.950 . S
H104 C81 0.950 . S
H105 C83 0.950 . S
C106 C107 1.443 . S
C106 N110 1.376 . S
C106 C144 1.389 . S
C107 C106 1.443 . S
C107 C108 1.340 . S
C107 H147 0.951 . S
C108 C107 1.340 . S
C108 C109 1.439 . S
C108 H148 0.950 . S
C109 C108 1.439 . S
C109 N110 1.374 . S
C109 C143 1.395 . S
N110 C106 1.376 . S
N110 C109 1.374 . S
N110 Co111 2.008 . S
Co111 N110 2.008 . S
Co111 N112 1.995 . S
Co111 N117 2.008 . S
Co111 N122 1.995 . S
Co111 N127 2.282 . S
Co111 N133 2.282 . S
N112 Co111 1.995 . S
N112 C113 1.376 . S
N112 C116 1.383 . S
C113 N112 1.376 . S
C113 C114 1.446 . S
C113 C143 1.391 . S
C114 C113 1.446 . S
C114 C115 1.339 . S
C114 H149 0.949 . S
C115 C114 1.339 . S
C115 C116 1.439 . S
C115 H150 0.950 . S
C116 N112 1.383 . S
C116 C115 1.439 . S
C116 C145 1.392 . S
N117 Co111 2.008 . S
N117 C118 1.376 . S
N117 C121 1.374 . S
C118 N117 1.376 . S
C118 C119 1.443 . S
C118 C145 1.389 . S
C119 C118 1.443 . S
C119 C120 1.340 . S
C119 H151 0.951 . S
C120 C119 1.340 . S
C120 C121 1.439 . S
C120 H152 0.950 . S
C121 N117 1.374 . S
C121 C120 1.439 . S
C121 C146 1.395 . S
N122 Co111 1.995 . S
N122 C123 1.376 . S
N122 C126 1.383 . S
C123 N122 1.376 . S
C123 C124 1.446 . S
C123 C146 1.391 . S
C124 C123 1.446 . S
C124 C125 1.339 . S
C124 H153 0.949 . S
C125 C124 1.339 . S
C125 C126 1.439 . S
C125 H154 0.950 . S
C126 N122 1.383 . S
C126 C125 1.439 . S
C126 C144 1.392 . S
N127 Co111 2.282 . S
N127 C130 1.332 . S
N127 C132 1.332 . S
C128 C129 1.386 . S
C128 C131 1.388 . S
C129 C128 1.386 . S
C129 C130 1.382 . S
C129 H155 0.950 . S
C130 N127 1.332 . S
C130 C129 1.382 . S
C130 H141 0.952 . S
C131 C128 1.388 . S
C131 C132 1.382 . S
C131 H156 0.950 . S
C132 N127 1.332 . S
C132 C131 1.382 . S
C132 H142 0.948 . S
N133 Co111 2.282 . S
N133 C137 1.332 . S
N133 C138 1.332 . S
C134 C135 1.388 . S
C134 C138 1.382 . S
C134 H157 0.950 . S
C135 C134 1.388 . S
C135 C136 1.386 . S
C136 C135 1.386 . S
C136 C137 1.382 . S
C136 H158 0.950 . S
C137 N133 1.332 . S
C137 C136 1.382 . S
C137 H139 0.952 . S
C138 N133 1.332 . S
C138 C134 1.382 . S
C138 H140 0.948 . S
H139 C137 0.952 . S
H140 C138 0.948 . S
H141 C130 0.952 . S
H142 C132 0.948 . S
C143 C109 1.395 . S
C143 C113 1.391 . S
C144 C106 1.389 . S
C144 C126 1.392 . S
C145 C116 1.392 . S
C145 C118 1.389 . S
C146 C121 1.395 . S
C146 C123 1.391 . S
H147 C107 0.951 . S
H148 C108 0.950 . S
H149 C114 0.949 . S
H150 C115 0.950 . S
H151 C119 0.951 . S
H152 C120 0.950 . S
H153 C124 0.949 . S
H154 C125 0.950 . S
H155 C129 0.950 . S
H156 C131 0.950 . S
H157 C134 0.950 . S
H158 C136 0.950 . S
C159 C160 1.443 . S
C159 N163 1.376 . S
C159 C197 1.389 . S
C160 C159 1.443 . S
C160 C161 1.340 . S
C160 H200 0.951 . S
C161 C160 1.340 . S
C161 C162 1.439 . S
C161 H201 0.950 . S
C162 C161 1.439 . S
C162 N163 1.374 . S
C162 C196 1.395 . S
N163 C159 1.376 . S
N163 C162 1.374 . S
N163 Co164 2.008 . S
Co164 N163 2.008 . S
Co164 N165 1.995 . S
Co164 N170 2.008 . S
Co164 N175 1.995 . S
Co164 N180 2.282 . S
Co164 N186 2.282 . S
N165 Co164 1.995 . S
N165 C166 1.376 . S
N165 C169 1.383 . S
C166 N165 1.376 . S
C166 C167 1.446 1_556 S
C166 C196 1.391 . S
C167 C166 1.446 1_554 S
C167 C168 1.339 . S
C167 H202 0.949 . S
C168 C167 1.339 . S
C168 C169 1.439 1_554 S
C168 H203 0.950 . S
C169 N165 1.383 . S
C169 C168 1.439 1_556 S
C169 C198 1.392 . S
N170 Co164 2.008 . S
N170 C171 1.376 . S
N170 C174 1.374 . S
C171 N170 1.376 . S
C171 C172 1.443 . S
C171 C198 1.389 . S
C172 C171 1.443 . S
C172 C173 1.340 . S
C172 H204 0.951 . S
C173 C172 1.340 . S
C173 C174 1.439 . S
C173 H205 0.950 . S
C174 N170 1.374 . S
C174 C173 1.439 . S
C174 C199 1.395 . S
N175 Co164 1.995 . S
N175 C176 1.376 . S
N175 C179 1.383 . S
C176 N175 1.376 . S
C176 C177 1.446 . S
C176 C199 1.391 . S
C177 C176 1.446 . S
C177 C178 1.339 . S
C177 H206 0.949 . S
C178 C177 1.339 . S
C178 C179 1.439 . S
C178 H207 0.950 . S
C179 N175 1.383 . S
C179 C178 1.439 . S
C179 C197 1.392 . S
N180 Co164 2.282 . S
N180 C183 1.332 . S
N180 C185 1.332 . S
C181 C182 1.386 . S
C181 C184 1.388 . S
C182 C181 1.386 . S
C182 C183 1.382 . S
C182 H208 0.950 . S
C183 N180 1.332 . S
C183 C182 1.382 . S
C183 H194 0.952 . S
C184 C181 1.388 . S
C184 C185 1.382 . S
C184 H209 0.950 . S
C185 N180 1.332 . S
C185 C184 1.382 . S
C185 H195 0.948 . S
N186 Co164 2.282 . S
N186 C190 1.332 . S
N186 C191 1.332 . S
C187 C188 1.388 . S
C187 C191 1.382 . S
C187 H210 0.950 . S
C188 C187 1.388 . S
C188 C189 1.386 . S
C189 C188 1.386 . S
C189 C190 1.382 . S
C189 H211 0.950 . S
C190 N186 1.332 . S
C190 C189 1.382 . S
C190 H192 0.952 . S
C191 N186 1.332 . S
C191 C187 1.382 . S
C191 H193 0.948 . S
H192 C190 0.952 . S
H193 C191 0.948 . S
H194 C183 0.952 . S
H195 C185 0.948 . S
C196 C162 1.395 . S
C196 C166 1.391 . S
C197 C159 1.389 . S
C197 C179 1.392 . S
C198 C169 1.392 . S
C198 C171 1.389 . S
C199 C174 1.395 . S
C199 C176 1.391 . S
H200 C160 0.951 . S
H201 C161 0.950 . S
H202 C167 0.949 . S
H203 C168 0.950 . S
H204 C172 0.951 . S
H205 C173 0.950 . S
H206 C177 0.949 . S
H207 C178 0.950 . S
H208 C182 0.950 . S
H209 C184 0.950 . S
H210 C187 0.950 . S
H211 C189 0.950 . S
C212 C213 1.443 . S
C212 N216 1.376 . S
C212 C250 1.389 . S
C213 C212 1.443 . S
C213 C214 1.340 . S
C213 H253 0.951 . S
C214 C213 1.340 . S
C214 C215 1.439 . S
C214 H254 0.950 . S
C215 C214 1.439 . S
C215 N216 1.374 . S
C215 C249 1.395 . S
N216 C212 1.376 . S
N216 C215 1.374 . S
N216 Co217 2.008 . S
Co217 N216 2.008 . S
Co217 N218 1.995 . S
Co217 N223 2.008 . S
Co217 N228 1.995 . S
Co217 N233 2.282 . S
Co217 N239 2.282 . S
N218 Co217 1.995 . S
N218 C219 1.376 . S
N218 C222 1.383 . S
C219 N218 1.376 . S
C219 C220 1.446 . S
C219 C249 1.391 . S
C220 C219 1.446 . S
C220 C221 1.339 . S
C220 H255 0.949 . S
C221 C220 1.339 . S
C221 C222 1.439 . S
C221 H256 0.950 . S
C222 N218 1.383 . S
C222 C221 1.439 . S
C222 C251 1.392 . S
N223 Co217 2.008 . S
N223 C224 1.376 . S
N223 C227 1.374 . S
C224 N223 1.376 . S
C224 C225 1.443 . S
C224 C251 1.389 . S
C225 C224 1.443 . S
C225 C226 1.340 . S
C225 H257 0.951 . S
C226 C225 1.340 . S
C226 C227 1.439 . S
C226 H258 0.950 . S
C227 N223 1.374 . S
C227 C226 1.439 . S
C227 C252 1.395 . S
N228 Co217 1.995 . S
N228 C229 1.376 . S
N228 C232 1.368 1_554 S
C229 N228 1.376 . S
C229 C230 1.446 1_554 S
C229 C252 1.391 . S
C230 C229 1.446 1_556 S
C230 C231 1.339 . S
C230 H259 0.949 . S
C231 C230 1.339 . S
C231 C232 1.456 . S
C231 H260 0.950 . S
C232 N228 1.368 1_556 S
C232 C231 1.456 . S
C232 C250 1.390 1_556 S
N233 Co217 2.282 . S
N233 C236 1.332 . S
N233 C238 1.332 . S
C234 C235 1.386 . S
C234 C237 1.388 . S
C235 C234 1.386 . S
C235 C236 1.382 . S
C235 H261 0.950 . S
C236 N233 1.332 . S
C236 C235 1.382 . S
C236 H247 0.952 . S
C237 C234 1.388 . S
C237 C238 1.382 . S
C237 H262 0.950 . S
C238 N233 1.332 . S
C238 C237 1.382 . S
C238 H248 0.948 . S
N239 Co217 2.282 . S
N239 C243 1.332 . S
N239 C244 1.332 . S
C240 C241 1.388 . S
C240 C244 1.382 . S
C240 H263 0.950 . S
C241 C240 1.388 . S
C241 C242 1.386 . S
C242 C241 1.386 . S
C242 C243 1.382 . S
C242 H264 0.950 . S
C243 N239 1.332 . S
C243 C242 1.382 . S
C243 H245 0.952 . S
C244 N239 1.332 . S
C244 C240 1.382 . S
C244 H246 0.948 . S
H245 C243 0.952 . S
H246 C244 0.948 . S
H247 C236 0.952 . S
H248 C238 0.948 . S
C249 C215 1.395 . S
C249 C219 1.391 . S
C250 C212 1.389 . S
C250 C232 1.390 1_554 S
C251 C222 1.392 . S
C251 C224 1.389 . S
C252 C227 1.395 . S
C252 C229 1.391 . S
H253 C213 0.951 . S
H254 C214 0.950 . S
H255 C220 0.949 . S
H256 C221 0.950 . S
H257 C225 0.951 . S
H258 C226 0.950 . S
H259 C230 0.949 . S
H260 C231 0.950 . S
H261 C235 0.950 . S
H262 C237 0.950 . S
H263 C240 0.950 . S
H264 C242 0.950 . S
C265 C266 1.443 . S
C265 N269 1.376 . S
C265 C303 1.389 . S
C266 C265 1.443 . S
C266 C267 1.340 . S
C266 H306 0.951 . S
C267 C266 1.340 . S
C267 C268 1.439 . S
C267 H307 0.950 . S
C268 C267 1.439 . S
C268 N269 1.374 . S
C268 C302 1.395 . S
N269 C265 1.376 . S
N269 C268 1.374 . S
N269 Co270 2.008 . S
Co270 N269 2.008 . S
Co270 N271 1.995 . S
Co270 N276 2.008 . S
Co270 N281 1.995 . S
Co270 N286 2.282 . S
Co270 N292 2.282 . S
N271 Co270 1.995 . S
N271 C272 1.376 . S
N271 C275 1.383 . S
C272 N271 1.376 . S
C272 C273 1.446 . S
C272 C302 1.391 . S
C273 C272 1.446 . S
C273 C274 1.339 . S
C273 H308 0.949 . S
C274 C273 1.339 . S
C274 C275 1.439 . S
C274 H309 0.950 . S
C275 N271 1.383 . S
C275 C274 1.439 . S
C275 C304 1.392 . S
N276 Co270 2.008 . S
N276 C277 1.376 . S
N276 C280 1.374 . S
C277 N276 1.376 . S
C277 C278 1.443 . S
C277 C304 1.389 . S
C278 C277 1.443 . S
C278 C279 1.340 . S
C278 H310 0.951 . S
C279 C278 1.340 . S
C279 C280 1.439 . S
C279 H311 0.950 . S
C280 N276 1.374 . S
C280 C279 1.439 . S
C280 C305 1.395 . S
N281 Co270 1.995 . S
N281 C282 1.376 . S
N281 C285 1.383 . S
C282 N281 1.376 . S
C282 C283 1.446 . S
C282 C305 1.391 . S
C283 C282 1.446 . S
C283 C284 1.339 . S
C283 H312 0.949 . S
C284 C283 1.339 . S
C284 C285 1.439 . S
C284 H313 0.950 . S
C285 N281 1.383 . S
C285 C284 1.439 . S
C285 C303 1.392 . S
N286 Co270 2.282 . S
N286 C289 1.332 . S
N286 C291 1.332 . S
C287 C288 1.386 . S
C287 C290 1.388 . S
C288 C287 1.386 . S
C288 C289 1.382 . S
C288 H314 0.950 . S
C289 N286 1.332 . S
C289 C288 1.382 . S
C289 H300 0.952 . S
C290 C287 1.388 . S
C290 C291 1.382 . S
C290 H315 0.950 . S
C291 N286 1.332 . S
C291 C290 1.382 . S
C291 H301 0.948 . S
N292 Co270 2.282 . S
N292 C296 1.332 . S
N292 C297 1.332 . S
C293 C294 1.388 . S
C293 C297 1.382 . S
C293 H316 0.950 . S
C294 C293 1.388 . S
C294 C295 1.386 . S
C295 C294 1.386 . S
C295 C296 1.382 . S
C295 H317 0.950 . S
C296 N292 1.332 . S
C296 C295 1.382 . S
C296 H298 0.952 . S
C297 N292 1.332 . S
C297 C293 1.382 . S
C297 H299 0.948 . S
H298 C296 0.952 . S
H299 C297 0.948 . S
H300 C289 0.952 . S
H301 C291 0.948 . S
C302 C268 1.395 . S
C302 C272 1.391 . S
C303 C265 1.389 . S
C303 C285 1.392 . S
C304 C275 1.392 . S
C304 C277 1.389 . S
C305 C280 1.395 . S
C305 C282 1.391 . S
H306 C266 0.951 . S
H307 C267 0.950 . S
H308 C273 0.949 . S
H309 C274 0.950 . S
H310 C278 0.951 . S
H311 C279 0.950 . S
H312 C283 0.949 . S
H313 C284 0.950 . S
H314 C288 0.950 . S
H315 C290 0.950 . S
H316 C293 0.950 . S
H317 C295 0.950 . S
C318 C319 1.443 . S
C318 N322 1.376 . S
C318 C356 1.389 . S
C319 C318 1.443 . S
C319 C320 1.340 . S
C319 H359 0.951 . S
C320 C319 1.340 . S
C320 C321 1.439 . S
C320 H360 0.950 . S
C321 C320 1.439 . S
C321 N322 1.374 . S
C321 C355 1.395 . S
N322 C318 1.376 . S
N322 C321 1.374 . S
N322 Co323 2.008 . S
Co323 N322 2.008 . S
Co323 N324 1.995 . S
Co323 N329 2.008 . S
Co323 N334 1.995 . S
Co323 N339 2.282 . S
Co323 N345 2.282 . S
N324 Co323 1.995 . S
N324 C325 1.376 . S
N324 C328 1.383 . S
C325 N324 1.376 . S
C325 C326 1.446 . S
C325 C355 1.391 . S
C326 C325 1.446 . S
C326 C327 1.339 . S
C326 H361 0.949 . S
C327 C326 1.339 . S
C327 C328 1.439 . S
C327 H362 0.950 . S
C328 N324 1.383 . S
C328 C327 1.439 . S
C328 C357 1.392 . S
N329 Co323 2.008 . S
N329 C330 1.376 . S
N329 C333 1.374 . S
C330 N329 1.376 . S
C330 C331 1.443 . S
C330 C357 1.389 . S
C331 C330 1.443 . S
C331 C332 1.340 . S
C331 H363 0.951 . S
C332 C331 1.340 . S
C332 C333 1.439 . S
C332 H364 0.950 . S
C333 N329 1.374 . S
C333 C332 1.439 . S
C333 C358 1.395 . S
N334 Co323 1.995 . S
N334 C335 1.376 . S
N334 C338 1.383 . S
C335 N334 1.376 . S
C335 C336 1.446 . S
C335 C358 1.391 . S
C336 C335 1.446 . S
C336 C337 1.339 . S
C336 H365 0.949 . S
C337 C336 1.339 . S
C337 C338 1.439 . S
C337 H366 0.950 . S
C338 N334 1.383 . S
C338 C337 1.439 . S
C338 C356 1.392 . S
N339 Co323 2.282 . S
N339 C342 1.332 . S
N339 C344 1.332 . S
C340 C341 1.386 . S
C340 C343 1.388 . S
C341 C340 1.386 . S
C341 C342 1.382 . S
C341 H367 0.950 . S
C342 N339 1.332 . S
C342 C341 1.382 . S
C342 H353 0.952 . S
C343 C340 1.388 . S
C343 C344 1.382 . S
C343 H368 0.950 . S
C344 N339 1.332 . S
C344 C343 1.382 . S
C344 H354 0.948 . S
N345 Co323 2.282 . S
N345 C349 1.332 . S
N345 C350 1.332 . S
C346 C347 1.388 . S
C346 C350 1.382 . S
C346 H369 0.950 . S
C347 C346 1.388 . S
C347 C348 1.386 . S
C348 C347 1.386 . S
C348 C349 1.382 . S
C348 H370 0.950 . S
C349 N345 1.332 . S
C349 C348 1.382 . S
C349 H351 0.952 . S
C350 N345 1.332 . S
C350 C346 1.382 . S
C350 H352 0.948 . S
H351 C349 0.952 . S
H352 C350 0.948 . S
H353 C342 0.952 . S
H354 C344 0.948 . S
C355 C321 1.395 . S
C355 C325 1.391 . S
C356 C318 1.389 . S
C356 C338 1.392 . S
C357 C328 1.392 . S
C357 C330 1.389 . S
C358 C333 1.395 . S
C358 C335 1.391 . S
H359 C319 0.951 . S
H360 C320 0.950 . S
H361 C326 0.949 . S
H362 C327 0.950 . S
H363 C331 0.951 . S
H364 C332 0.950 . S
H365 C336 0.949 . S
H366 C337 0.950 . S
H367 C341 0.950 . S
H368 C343 0.950 . S
H369 C346 0.950 . S
H370 C348 0.950 . S
C371 C372 1.443 . S
C371 N375 1.376 . S
C371 C409 1.389 . S
C372 C371 1.443 . S
C372 C373 1.340 . S
C372 H412 0.951 . S
C373 C372 1.340 . S
C373 C374 1.439 . S
C373 H413 0.950 . S
C374 C373 1.439 . S
C374 N375 1.374 . S
C374 C408 1.395 . S
N375 C371 1.376 . S
N375 C374 1.374 . S
N375 Co376 2.008 . S
Co376 N375 2.008 . S
Co376 N377 1.995 . S
Co376 N382 2.008 . S
Co376 N387 1.995 . S
Co376 N392 2.282 . S
Co376 N398 2.282 . S
N377 Co376 1.995 . S
N377 C378 1.376 . S
N377 C381 1.383 . S
C378 N377 1.376 . S
C378 C379 1.446 . S
C378 C408 1.391 . S
C379 C378 1.446 . S
C379 C380 1.339 . S
C379 H414 0.949 . S
C380 C379 1.339 . S
C380 C381 1.439 . S
C380 H415 0.950 . S
C381 N377 1.383 . S
C381 C380 1.439 . S
C381 C410 1.392 . S
N382 Co376 2.008 . S
N382 C383 1.376 . S
N382 C386 1.374 . S
C383 N382 1.376 . S
C383 C384 1.443 . S
C383 C410 1.389 . S
C384 C383 1.443 . S
C384 C385 1.340 . S
C384 H416 0.951 . S
C385 C384 1.340 . S
C385 C386 1.439 . S
C385 H417 0.950 . S
C386 N382 1.374 . S
C386 C385 1.439 . S
C386 C411 1.395 . S
N387 Co376 1.995 . S
N387 C388 1.376 . S
N387 C391 1.383 . S
C388 N387 1.376 . S
C388 C389 1.446 . S
C388 C411 1.391 . S
C389 C388 1.446 . S
C389 C390 1.339 . S
C389 H418 0.949 . S
C390 C389 1.339 . S
C390 C391 1.439 . S
C390 H419 0.950 . S
C391 N387 1.383 . S
C391 C390 1.439 . S
C391 C409 1.392 . S
N392 Co376 2.282 . S
N392 C395 1.332 . S
N392 C397 1.332 . S
C393 C394 1.386 . S
C393 C396 1.388 . S
C394 C393 1.386 . S
C394 C395 1.382 . S
C394 H420 0.950 . S
C395 N392 1.332 . S
C395 C394 1.382 . S
C395 H406 0.952 . S
C396 C393 1.388 . S
C396 C397 1.382 . S
C396 H421 0.950 . S
C397 N392 1.332 . S
C397 C396 1.382 . S
C397 H407 0.948 . S
N398 Co376 2.282 . S
N398 C402 1.332 . S
N398 C403 1.332 . S
C399 C400 1.388 . S
C399 C403 1.382 . S
C399 H422 0.950 . S
C400 C399 1.388 . S
C400 C401 1.386 . S
C401 C400 1.386 . S
C401 C402 1.382 . S
C401 H423 0.950 . S
C402 N398 1.332 . S
C402 C401 1.382 . S
C402 H404 0.952 . S
C403 N398 1.332 . S
C403 C399 1.382 . S
C403 H405 0.948 . S
H404 C402 0.952 . S
H405 C403 0.948 . S
H406 C395 0.952 . S
H407 C397 0.948 . S
C408 C374 1.395 . S
C408 C378 1.391 . S
C409 C371 1.389 . S
C409 C391 1.392 . S
C410 C381 1.392 . S
C410 C383 1.389 . S
C411 C386 1.395 . S
C411 C388 1.391 . S
H412 C372 0.951 . S
H413 C373 0.950 . S
H414 C379 0.949 . S
H415 C380 0.950 . S
H416 C384 0.951 . S
H417 C385 0.950 . S
H418 C389 0.949 . S
H419 C390 0.950 . S
H420 C394 0.950 . S
H421 C396 0.950 . S
H422 C399 0.950 . S
H423 C401 0.950 . S
C424 C425 1.443 . S
C424 N428 1.376 . S
C424 C462 1.389 . S
C425 C424 1.443 . S
C425 C426 1.340 . S
C425 H465 0.951 . S
C426 C425 1.340 . S
C426 C427 1.439 . S
C426 H466 0.950 . S
C427 C426 1.439 . S
C427 N428 1.374 . S
C427 C461 1.395 . S
N428 C424 1.376 . S
N428 C427 1.374 . S
N428 Co429 2.008 . S
Co429 N428 2.008 . S
Co429 N430 1.995 . S
Co429 N435 2.008 . S
Co429 N440 1.995 . S
Co429 N445 2.282 . S
Co429 N451 2.282 . S
N430 Co429 1.995 . S
N430 C431 1.376 . S
N430 C434 1.383 . S
C431 N430 1.376 . S
C431 C432 1.446 . S
C431 C461 1.391 . S
C432 C431 1.446 . S
C432 C433 1.339 . S
C432 H467 0.949 . S
C433 C432 1.339 . S
C433 C434 1.439 . S
C433 H468 0.950 . S
C434 N430 1.383 . S
C434 C433 1.439 . S
C434 C463 1.392 . S
N435 Co429 2.008 . S
N435 C436 1.376 . S
N435 C439 1.374 . S
C436 N435 1.376 . S
C436 C437 1.443 . S
C436 C463 1.389 . S
C437 C436 1.443 . S
C437 C438 1.340 . S
C437 H469 0.951 . S
C438 C437 1.340 . S
C438 C439 1.439 . S
C438 H470 0.950 . S
C439 N435 1.374 . S
C439 C438 1.439 . S
C439 C464 1.395 . S
N440 Co429 1.995 . S
N440 C441 1.376 . S
N440 C444 1.383 . S
C441 N440 1.376 . S
C441 C442 1.446 . S
C441 C464 1.391 . S
C442 C441 1.446 . S
C442 C443 1.339 . S
C442 H471 0.949 . S
C443 C442 1.339 . S
C443 C444 1.439 . S
C443 H472 0.950 . S
C444 N440 1.383 . S
C444 C443 1.439 . S
C444 C462 1.392 . S
N445 Co429 2.282 . S
N445 C448 1.332 . S
N445 C450 1.332 . S
C446 C447 1.386 . S
C446 C449 1.388 . S
C447 C446 1.386 . S
C447 C448 1.382 . S
C447 H473 0.950 . S
C448 N445 1.332 . S
C448 C447 1.382 . S
C448 H459 0.952 . S
C449 C446 1.388 . S
C449 C450 1.382 . S
C449 H474 0.950 . S
C450 N445 1.332 . S
C450 C449 1.382 . S
C450 H460 0.948 . S
N451 Co429 2.282 . S
N451 C455 1.332 . S
N451 C456 1.332 . S
C452 C453 1.388 . S
C452 C456 1.382 . S
C452 H475 0.950 . S
C453 C452 1.388 . S
C453 C454 1.386 . S
C454 C453 1.386 . S
C454 C455 1.382 . S
C454 H476 0.950 . S
C455 N451 1.332 . S
C455 C454 1.382 . S
C455 H457 0.952 . S
C456 N451 1.332 . S
C456 C452 1.382 . S
C456 H458 0.948 . S
H457 C455 0.952 . S
H458 C456 0.948 . S
H459 C448 0.952 . S
H460 C450 0.948 . S
C461 C427 1.395 . S
C461 C431 1.391 . S
C462 C424 1.389 . S
C462 C444 1.392 . S
C463 C434 1.392 . S
C463 C436 1.389 . S
C464 C439 1.395 . S
C464 C441 1.391 . S
H465 C425 0.951 . S
H466 C426 0.950 . S
H467 C432 0.949 . S
H468 C433 0.950 . S
H469 C437 0.951 . S
H470 C438 0.950 . S
H471 C442 0.949 . S
H472 C443 0.950 . S
H473 C447 0.950 . S
H474 C449 0.950 . S
H475 C452 0.950 . S
H476 C454 0.950 . S
C477 C478 1.443 . S
C477 N481 1.376 . S
C477 C515 1.389 . S
C478 C477 1.443 . S
C478 C479 1.340 . S
C478 H518 0.951 . S
C479 C478 1.340 . S
C479 C480 1.439 . S
C479 H519 0.950 . S
C480 C479 1.439 . S
C480 N481 1.374 . S
C480 C514 1.395 . S
N481 C477 1.376 . S
N481 C480 1.374 . S
N481 Co482 2.008 . S
Co482 N481 2.008 . S
Co482 N483 1.995 . S
Co482 N488 2.008 . S
Co482 N493 1.995 . S
Co482 N498 2.282 . S
Co482 N504 2.282 . S
N483 Co482 1.995 . S
N483 C484 1.376 . S
N483 C487 1.383 . S
C484 N483 1.376 . S
C484 C485 1.446 . S
C484 C514 1.391 . S
C485 C484 1.446 . S
C485 C486 1.339 . S
C485 H520 0.949 . S
C486 C485 1.339 . S
C486 C487 1.439 . S
C486 H521 0.950 . S
C487 N483 1.383 . S
C487 C486 1.439 . S
C487 C516 1.392 . S
N488 Co482 2.008 . S
N488 C489 1.376 . S
N488 C492 1.374 . S
C489 N488 1.376 . S
C489 C490 1.443 . S
C489 C516 1.389 . S
C490 C489 1.443 . S
C490 C491 1.340 . S
C490 H522 0.951 . S
C491 C490 1.340 . S
C491 C492 1.439 . S
C491 H523 0.950 . S
C492 N488 1.374 . S
C492 C491 1.439 . S
C492 C517 1.395 . S
N493 Co482 1.995 . S
N493 C494 1.376 . S
N493 C497 1.368 1_556 S
C494 N493 1.376 . S
C494 C495 1.446 1_556 S
C494 C517 1.391 . S
C495 C494 1.446 1_554 S
C495 C496 1.339 . S
C495 H524 0.949 . S
C496 C495 1.339 . S
C496 C497 1.456 . S
C496 H525 0.950 . S
C497 N493 1.368 1_554 S
C497 C496 1.456 . S
C497 C515 1.390 1_554 S
N498 Co482 2.282 . S
N498 C501 1.332 . S
N498 C503 1.332 . S
C499 C500 1.386 . S
C499 C502 1.388 . S
C500 C499 1.386 . S
C500 C501 1.382 . S
C500 H526 0.950 . S
C501 N498 1.332 . S
C501 C500 1.382 . S
C501 H512 0.952 . S
C502 C499 1.388 . S
C502 C503 1.382 . S
C502 H527 0.950 . S
C503 N498 1.332 . S
C503 C502 1.382 . S
C503 H513 0.948 . S
N504 Co482 2.282 . S
N504 C508 1.332 . S
N504 C509 1.332 . S
C505 C506 1.388 . S
C505 C509 1.382 . S
C505 H528 0.950 . S
C506 C505 1.388 . S
C506 C507 1.386 . S
C507 C506 1.386 . S
C507 C508 1.382 . S
C507 H529 0.950 . S
C508 N504 1.332 . S
C508 C507 1.382 . S
C508 H510 0.952 . S
C509 N504 1.332 . S
C509 C505 1.382 . S
C509 H511 0.948 . S
H510 C508 0.952 . S
H511 C509 0.948 . S
H512 C501 0.952 . S
H513 C503 0.948 . S
C514 C480 1.395 . S
C514 C484 1.391 . S
C515 C477 1.389 . S
C515 C497 1.390 1_556 S
C516 C487 1.392 . S
C516 C489 1.389 . S
C517 C492 1.395 . S
C517 C494 1.391 . S
H518 C478 0.951 . S
H519 C479 0.950 . S
H520 C485 0.949 . S
H521 C486 0.950 . S
H522 C490 0.951 . S
H523 C491 0.950 . S
H524 C495 0.949 . S
H525 C496 0.950 . S
H526 C500 0.950 . S
H527 C502 0.950 . S
H528 C505 0.950 . S
H529 C507 0.950 . S
C530 C531 1.443 . S
C530 N534 1.376 . S
C530 C568 1.389 . S
C531 C530 1.443 . S
C531 C532 1.340 . S
C531 H571 0.951 . S
C532 C531 1.340 . S
C532 C533 1.439 . S
C532 H572 0.950 . S
C533 C532 1.439 . S
C533 N534 1.374 . S
C533 C567 1.395 . S
N534 C530 1.376 . S
N534 C533 1.374 . S
N534 Co535 2.008 . S
Co535 N534 2.008 . S
Co535 N536 1.995 . S
Co535 N541 2.008 . S
Co535 N546 1.995 . S
Co535 N551 2.282 . S
Co535 N557 2.282 . S
N536 Co535 1.995 . S
N536 C537 1.376 . S
N536 C540 1.383 . S
C537 N536 1.376 . S
C537 C538 1.446 1_554 S
C537 C567 1.391 . S
C538 C537 1.446 1_556 S
C538 C539 1.339 . S
C538 H573 0.949 . S
C539 C538 1.339 . S
C539 C540 1.439 1_556 S
C539 H574 0.950 . S
C540 N536 1.383 . S
C540 C539 1.439 1_554 S
C540 C569 1.392 . S
N541 Co535 2.008 . S
N541 C542 1.376 . S
N541 C545 1.374 . S
C542 N541 1.376 . S
C542 C543 1.443 . S
C542 C569 1.389 . S
C543 C542 1.443 . S
C543 C544 1.340 . S
C543 H575 0.951 . S
C544 C543 1.340 . S
C544 C545 1.439 . S
C544 H576 0.950 . S
C545 N541 1.374 . S
C545 C544 1.439 . S
C545 C570 1.395 . S
N546 Co535 1.995 . S
N546 C547 1.376 . S
N546 C550 1.383 . S
C547 N546 1.376 . S
C547 C548 1.446 . S
C547 C570 1.391 . S
C548 C547 1.446 . S
C548 C549 1.339 . S
C548 H577 0.949 . S
C549 C548 1.339 . S
C549 C550 1.439 . S
C549 H578 0.950 . S
C550 N546 1.383 . S
C550 C549 1.439 . S
C550 C568 1.392 . S
N551 Co535 2.282 . S
N551 C554 1.332 . S
N551 C556 1.332 . S
C552 C553 1.386 . S
C552 C555 1.388 . S
C553 C552 1.386 . S
C553 C554 1.382 . S
C553 H579 0.950 . S
C554 N551 1.332 . S
C554 C553 1.382 . S
C554 H565 0.952 . S
C555 C552 1.388 . S
C555 C556 1.382 . S
C555 H580 0.950 . S
C556 N551 1.332 . S
C556 C555 1.382 . S
C556 H566 0.948 . S
N557 Co535 2.282 . S
N557 C561 1.332 . S
N557 C562 1.332 . S
C558 C559 1.388 . S
C558 C562 1.382 . S
C558 H581 0.950 . S
C559 C558 1.388 . S
C559 C560 1.386 . S
C560 C559 1.386 . S
C560 C561 1.382 . S
C560 H582 0.950 . S
C561 N557 1.332 . S
C561 C560 1.382 . S
C561 H563 0.952 . S
C562 N557 1.332 . S
C562 C558 1.382 . S
C562 H564 0.948 . S
H563 C561 0.952 . S
H564 C562 0.948 . S
H565 C554 0.952 . S
H566 C556 0.948 . S
C567 C533 1.395 . S
C567 C537 1.391 . S
C568 C530 1.389 . S
C568 C550 1.392 . S
C569 C540 1.392 . S
C569 C542 1.389 . S
C570 C545 1.395 . S
C570 C547 1.391 . S
H571 C531 0.951 . S
H572 C532 0.950 . S
H573 C538 0.949 . S
H574 C539 0.950 . S
H575 C543 0.951 . S
H576 C544 0.950 . S
H577 C548 0.949 . S
H578 C549 0.950 . S
H579 C553 0.950 . S
H580 C555 0.950 . S
H581 C558 0.950 . S
H582 C560 0.950 . S
C583 C584 1.443 . S
C583 N587 1.376 . S
C583 C621 1.389 . S
C584 C583 1.443 . S
C584 C585 1.340 . S
C584 H624 0.951 . S
C585 C584 1.340 . S
C585 C586 1.439 . S
C585 H625 0.950 . S
C586 C585 1.439 . S
C586 N587 1.374 . S
C586 C620 1.395 . S
N587 C583 1.376 . S
N587 C586 1.374 . S
N587 Co588 2.008 . S
Co588 N587 2.008 . S
Co588 N589 1.995 . S
Co588 N594 2.008 . S
Co588 N599 1.995 . S
Co588 N604 2.282 . S
Co588 N610 2.282 . S
N589 Co588 1.995 . S
N589 C590 1.376 . S
N589 C593 1.383 . S
C590 N589 1.376 . S
C590 C591 1.446 . S
C590 C620 1.391 . S
C591 C590 1.446 . S
C591 C592 1.339 . S
C591 H626 0.949 . S
C592 C591 1.339 . S
C592 C593 1.439 . S
C592 H627 0.950 . S
C593 N589 1.383 . S
C593 C592 1.439 . S
C593 C622 1.392 . S
N594 Co588 2.008 . S
N594 C595 1.376 . S
N594 C598 1.374 . S
C595 N594 1.376 . S
C595 C596 1.443 . S
C595 C622 1.389 . S
C596 C595 1.443 . S
C596 C597 1.340 . S
C596 H628 0.951 . S
C597 C596 1.340 . S
C597 C598 1.439 . S
C597 H629 0.950 . S
C598 N594 1.374 . S
C598 C597 1.439 . S
C598 C623 1.395 . S
N599 Co588 1.995 . S
N599 C600 1.376 . S
N599 C603 1.383 . S
C600 N599 1.376 . S
C600 C601 1.446 . S
C600 C623 1.391 . S
C601 C600 1.446 . S
C601 C602 1.339 . S
C601 H630 0.949 . S
C602 C601 1.339 . S
C602 C603 1.439 . S
C602 H631 0.950 . S
C603 N599 1.383 . S
C603 C602 1.439 . S
C603 C621 1.392 . S
N604 Co588 2.282 . S
N604 C607 1.332 . S
N604 C609 1.332 . S
C605 C606 1.386 . S
C605 C608 1.388 . S
C606 C605 1.386 . S
C606 C607 1.382 . S
C606 H632 0.950 . S
C607 N604 1.332 . S
C607 C606 1.382 . S
C607 H618 0.952 . S
C608 C605 1.388 . S
C608 C609 1.382 . S
C608 H633 0.950 . S
C609 N604 1.332 . S
C609 C608 1.382 . S
C609 H619 0.948 . S
N610 Co588 2.282 . S
N610 C614 1.332 . S
N610 C615 1.332 . S
C611 C612 1.388 . S
C611 C615 1.382 . S
C611 H634 0.950 . S
C612 C611 1.388 . S
C612 C613 1.386 . S
C613 C612 1.386 . S
C613 C614 1.382 . S
C613 H635 0.950 . S
C614 N610 1.332 . S
C614 C613 1.382 . S
C614 H616 0.952 . S
C615 N610 1.332 . S
C615 C611 1.382 . S
C615 H617 0.948 . S
H616 C614 0.952 . S
H617 C615 0.948 . S
H618 C607 0.952 . S
H619 C609 0.948 . S
C620 C586 1.395 . S
C620 C590 1.391 . S
C621 C583 1.389 . S
C621 C603 1.392 . S
C622 C593 1.392 . S
C622 C595 1.389 . S
C623 C598 1.395 . S
C623 C600 1.391 . S
H624 C584 0.951 . S
H625 C585 0.950 . S
H626 C591 0.949 . S
H627 C592 0.950 . S
H628 C596 0.951 . S
H629 C597 0.950 . S
H630 C601 0.949 . S
H631 C602 0.950 . S
H632 C606 0.950 . S
H633 C608 0.950 . S
H634 C611 0.950 . S
H635 C613 0.950 . S
H636 C648 0.930 . S
H637 C650 0.930 . S
H638 C651 0.930 . S
H639 C655 0.959 . S
H640 C655 0.959 . S
H641 C655 0.961 . S
H642 C656 0.960 . S
H643 C656 0.961 . S
H644 C656 0.959 . S
H645 C659 0.929 . S
H646 C660 0.931 . S
H647 C662 0.930 . S
C648 H636 0.930 . S
C648 C649 1.399 . S
C648 C653 1.399 . S
C649 C648 1.399 . S
C649 C650 1.376 . S
C650 H637 0.930 . S
C650 C649 1.376 . S
C650 C651 1.388 . S
C651 H638 0.930 . S
C651 C650 1.388 . S
C651 C652 1.390 . S
C652 C651 1.390 . S
C652 C653 1.394 . S
C652 C658 1.465 . S
C653 C648 1.399 . S
C653 C652 1.394 . S
C653 C654 1.516 . S
C654 C653 1.516 . S
C654 C655 1.502 . S
C654 C656 1.561 . S
C654 C657 1.526 . S
C655 H639 0.959 . S
C655 H640 0.959 . S
C655 H641 0.961 . S
C655 C654 1.502 . S
C656 H642 0.960 . S
C656 H643 0.961 . S
C656 H644 0.959 . S
C656 C654 1.561 . S
C657 C654 1.526 . S
C657 C658 1.396 . S
C657 C662 1.390 . S
C658 C652 1.465 . S
C658 C657 1.396 . S
C658 C659 1.399 . S
C659 H645 0.929 . S
C659 C658 1.399 . S
C659 C660 1.385 . S
C660 H646 0.931 . S
C660 C659 1.385 . S
C660 C661 1.389 . S
C661 C660 1.389 . S
C661 C662 1.387 . S
C662 H647 0.930 . S
C662 C657 1.390 . S
C662 C661 1.387 . S
H663 C675 0.930 . S
H664 C677 0.930 . S
H665 C678 0.930 . S
H666 C682 0.959 . S
H667 C682 0.959 . S
H668 C682 0.961 . S
H669 C683 0.960 . S
H670 C683 0.961 . S
H671 C683 0.959 . S
H672 C686 0.929 . S
H673 C687 0.931 . S
H674 C689 0.930 . S
C675 H663 0.930 . S
C675 C676 1.399 . S
C675 C680 1.399 . S
C676 C675 1.399 . S
C676 C677 1.376 . S
C677 H664 0.930 . S
C677 C676 1.376 . S
C677 C678 1.388 . S
C678 H665 0.930 . S
C678 C677 1.388 . S
C678 C679 1.390 . S
C679 C678 1.390 . S
C679 C680 1.394 . S
C679 C685 1.465 . S
C680 C675 1.399 . S
C680 C679 1.394 . S
C680 C681 1.516 . S
C681 C680 1.516 . S
C681 C682 1.502 . S
C681 C683 1.561 . S
C681 C684 1.526 . S
C682 H666 0.959 . S
C682 H667 0.959 . S
C682 H668 0.961 . S
C682 C681 1.502 . S
C683 H669 0.960 . S
C683 H670 0.961 . S
C683 H671 0.959 . S
C683 C681 1.561 . S
C684 C681 1.526 . S
C684 C685 1.396 . S
C684 C689 1.390 . S
C685 C679 1.465 . S
C685 C684 1.396 . S
C685 C686 1.399 . S
C686 H672 0.929 . S
C686 C685 1.399 . S
C686 C687 1.385 . S
C687 H673 0.931 . S
C687 C686 1.385 . S
C687 C688 1.389 . S
C688 C687 1.389 . S
C688 C689 1.387 . S
C689 H674 0.930 . S
C689 C684 1.390 . S
C689 C688 1.387 . S
H690 C702 0.930 . S
H691 C704 0.930 . S
H692 C705 0.930 . S
H693 C709 0.959 . S
H694 C709 0.959 . S
H695 C709 0.961 . S
H696 C710 0.960 . S
H697 C710 0.961 . S
H698 C710 0.959 . S
H699 C713 0.929 . S
H700 C714 0.931 . S
H701 C716 0.930 . S
C702 H690 0.930 . S
C702 C703 1.399 . S
C702 C707 1.399 . S
C703 C702 1.399 . S
C703 C704 1.376 . S
C704 H691 0.930 . S
C704 C703 1.376 . S
C704 C705 1.388 . S
C705 H692 0.930 . S
C705 C704 1.388 . S
C705 C706 1.390 . S
C706 C705 1.390 . S
C706 C707 1.394 . S
C706 C712 1.465 . S
C707 C702 1.399 . S
C707 C706 1.394 . S
C707 C708 1.516 . S
C708 C707 1.516 . S
C708 C709 1.502 . S
C708 C710 1.561 . S
C708 C711 1.526 . S
C709 H693 0.959 . S
C709 H694 0.959 . S
C709 H695 0.961 . S
C709 C708 1.502 . S
C710 H696 0.960 . S
C710 H697 0.961 . S
C710 H698 0.959 . S
C710 C708 1.561 . S
C711 C708 1.526 . S
C711 C712 1.396 . S
C711 C716 1.390 . S
C712 C706 1.465 . S
C712 C711 1.396 . S
C712 C713 1.399 . S
C713 H699 0.929 . S
C713 C712 1.399 . S
C713 C714 1.385 . S
C714 H700 0.931 . S
C714 C713 1.385 . S
C714 C715 1.389 . S
C715 C714 1.389 . S
C715 C716 1.387 . S
C716 H701 0.930 . S
C716 C711 1.390 . S
C716 C715 1.387 . S
H717 C729 0.930 . S
H718 C731 0.930 . S
H719 C732 0.930 . S
H720 C736 0.959 . S
H721 C736 0.959 . S
H722 C736 0.961 . S
H723 C737 0.960 . S
H724 C737 0.961 . S
H725 C737 0.959 . S
H726 C740 0.929 . S
H727 C741 0.931 . S
H728 C743 0.930 . S
C729 H717 0.930 . S
C729 C730 1.399 . S
C729 C734 1.399 . S
C730 C729 1.399 . S
C730 C731 1.376 . S
C731 H718 0.930 . S
C731 C730 1.376 . S
C731 C732 1.388 . S
C732 H719 0.930 . S
C732 C731 1.388 . S
C732 C733 1.390 . S
C733 C732 1.390 . S
C733 C734 1.394 . S
C733 C739 1.465 . S
C734 C729 1.399 . S
C734 C733 1.394 . S
C734 C735 1.516 . S
C735 C734 1.516 . S
C735 C736 1.502 . S
C735 C737 1.561 . S
C735 C738 1.526 . S
C736 H720 0.959 . S
C736 H721 0.959 . S
C736 H722 0.961 . S
C736 C735 1.502 . S
C737 H723 0.960 . S
C737 H724 0.961 . S
C737 H725 0.959 . S
C737 C735 1.561 . S
C738 C735 1.526 . S
C738 C739 1.396 . S
C738 C743 1.390 . S
C739 C733 1.465 . S
C739 C738 1.396 . S
C739 C740 1.399 . S
C740 H726 0.929 . S
C740 C739 1.399 . S
C740 C741 1.385 . S
C741 H727 0.931 . S
C741 C740 1.385 . S
C741 C742 1.389 . S
C742 C741 1.389 . S
C742 C743 1.387 . S
C743 H728 0.930 . S
C743 C738 1.390 . S
C743 C742 1.387 . S
H744 C756 0.930 . S
H745 C758 0.930 . S
H746 C759 0.930 . S
H747 C763 0.959 . S
H748 C763 0.959 . S
H749 C763 0.961 . S
H750 C764 0.960 . S
H751 C764 0.961 . S
H752 C764 0.959 . S
H753 C767 0.929 . S
H754 C768 0.931 . S
H755 C770 0.930 . S
C756 H744 0.930 . S
C756 C757 1.399 . S
C756 C761 1.399 . S
C757 C756 1.399 . S
C757 C758 1.376 . S
C758 H745 0.930 . S
C758 C757 1.376 . S
C758 C759 1.388 . S
C759 H746 0.930 . S
C759 C758 1.388 . S
C759 C760 1.390 . S
C760 C759 1.390 . S
C760 C761 1.394 . S
C760 C766 1.465 . S
C761 C756 1.399 . S
C761 C760 1.394 . S
C761 C762 1.516 . S
C762 C761 1.516 . S
C762 C763 1.502 . S
C762 C764 1.561 . S
C762 C765 1.526 . S
C763 H747 0.959 . S
C763 H748 0.959 . S
C763 H749 0.961 . S
C763 C762 1.502 . S
C764 H750 0.960 . S
C764 H751 0.961 . S
C764 H752 0.959 . S
C764 C762 1.561 . S
C765 C762 1.526 . S
C765 C766 1.396 . S
C765 C770 1.390 . S
C766 C760 1.465 . S
C766 C765 1.396 . S
C766 C767 1.399 . S
C767 H753 0.929 . S
C767 C766 1.399 . S
C767 C768 1.385 . S
C768 H754 0.931 . S
C768 C767 1.385 . S
C768 C769 1.389 . S
C769 C768 1.389 . S
C769 C770 1.387 . S
C770 H755 0.930 . S
C770 C765 1.390 . S
C770 C769 1.387 . S
H771 C783 0.930 . S
H772 C785 0.930 . S
H773 C786 0.930 . S
H774 C790 0.959 . S
H775 C790 0.959 . S
H776 C790 0.961 . S
H777 C791 0.960 . S
H778 C791 0.961 . S
H779 C791 0.959 . S
H780 C794 0.929 . S
H781 C795 0.931 . S
H782 C797 0.930 . S
C783 H771 0.930 . S
C783 C784 1.399 . S
C783 C788 1.399 . S
C784 C783 1.399 . S
C784 C785 1.376 . S
C785 H772 0.930 . S
C785 C784 1.376 . S
C785 C786 1.388 . S
C786 H773 0.930 . S
C786 C785 1.388 . S
C786 C787 1.390 . S
C787 C786 1.390 . S
C787 C788 1.394 . S
C787 C793 1.465 . S
C788 C783 1.399 . S
C788 C787 1.394 . S
C788 C789 1.516 . S
C789 C788 1.516 . S
C789 C790 1.502 . S
C789 C791 1.561 . S
C789 C792 1.526 . S
C790 H774 0.959 . S
C790 H775 0.959 . S
C790 H776 0.961 . S
C790 C789 1.502 . S
C791 H777 0.960 . S
C791 H778 0.961 . S
C791 H779 0.959 . S
C791 C789 1.561 . S
C792 C789 1.526 . S
C792 C793 1.396 . S
C792 C797 1.390 . S
C793 C787 1.465 . S
C793 C792 1.396 . S
C793 C794 1.399 . S
C794 H780 0.929 . S
C794 C793 1.399 . S
C794 C795 1.385 . S
C795 H781 0.931 . S
C795 C794 1.385 . S
C795 C796 1.389 . S
C796 C795 1.389 . S
C796 C797 1.387 . S
C797 H782 0.930 . S
C797 C792 1.390 . S
C797 C796 1.387 . S
H798 C810 0.930 . S
H799 C812 0.930 . S
H800 C813 0.930 . S
H801 C817 0.959 . S
H802 C817 0.959 . S
H803 C817 0.961 . S
H804 C818 0.960 . S
H805 C818 0.961 . S
H806 C818 0.959 . S
H807 C821 0.929 . S
H808 C822 0.931 . S
H809 C824 0.930 . S
C810 H798 0.930 . S
C810 C811 1.399 . S
C810 C815 1.399 . S
C811 C810 1.399 . S
C811 C812 1.376 . S
C812 H799 0.930 . S
C812 C811 1.376 . S
C812 C813 1.388 . S
C813 H800 0.930 . S
C813 C812 1.388 . S
C813 C814 1.390 . S
C814 C813 1.390 . S
C814 C815 1.394 . S
C814 C820 1.465 . S
C815 C810 1.399 . S
C815 C814 1.394 . S
C815 C816 1.516 . S
C816 C815 1.516 . S
C816 C817 1.502 . S
C816 C818 1.561 . S
C816 C819 1.526 . S
C817 H801 0.959 . S
C817 H802 0.959 . S
C817 H803 0.961 . S
C817 C816 1.502 . S
C818 H804 0.960 . S
C818 H805 0.961 . S
C818 H806 0.959 . S
C818 C816 1.561 . S
C819 C816 1.526 . S
C819 C820 1.396 . S
C819 C824 1.390 . S
C820 C814 1.465 . S
C820 C819 1.396 . S
C820 C821 1.399 . S
C821 H807 0.929 . S
C821 C820 1.399 . S
C821 C822 1.385 . S
C822 H808 0.931 . S
C822 C821 1.385 . S
C822 C823 1.389 . S
C823 C822 1.389 . S
C823 C824 1.387 . S
C824 H809 0.930 . S
C824 C819 1.390 . S
C824 C823 1.387 . S
H825 C837 0.930 . S
H826 C839 0.930 . S
H827 C840 0.930 . S
H828 C844 0.959 . S
H829 C844 0.959 . S
H830 C844 0.961 . S
H831 C845 0.960 . S
H832 C845 0.961 . S
H833 C845 0.959 . S
H834 C848 0.929 . S
H835 C849 0.931 . S
H836 C851 0.930 . S
C837 H825 0.930 . S
C837 C838 1.399 . S
C837 C842 1.399 . S
C838 C837 1.399 . S
C838 C839 1.376 . S
C839 H826 0.930 . S
C839 C838 1.376 . S
C839 C840 1.388 . S
C840 H827 0.930 . S
C840 C839 1.388 . S
C840 C841 1.390 . S
C841 C840 1.390 . S
C841 C842 1.394 . S
C841 C847 1.465 . S
C842 C837 1.399 . S
C842 C841 1.394 . S
C842 C843 1.516 . S
C843 C842 1.516 . S
C843 C844 1.502 . S
C843 C845 1.561 . S
C843 C846 1.526 . S
C844 H828 0.959 . S
C844 H829 0.959 . S
C844 H830 0.961 . S
C844 C843 1.502 . S
C845 H831 0.960 . S
C845 H832 0.961 . S
C845 H833 0.959 . S
C845 C843 1.561 . S
C846 C843 1.526 . S
C846 C847 1.396 . S
C846 C851 1.390 . S
C847 C841 1.465 . S
C847 C846 1.396 . S
C847 C848 1.399 . S
C848 H834 0.929 . S
C848 C847 1.399 . S
C848 C849 1.385 . S
C849 H835 0.931 . S
C849 C848 1.385 . S
C849 C850 1.389 . S
C850 C849 1.389 . S
C850 C851 1.387 . S
C851 H836 0.930 . S
C851 C846 1.390 . S
C851 C850 1.387 . S
H852 C864 0.930 . S
H853 C866 0.930 . S
H854 C867 0.930 . S
H855 C871 0.959 . S
H856 C871 0.959 . S
H857 C871 0.961 . S
H858 C872 0.960 . S
H859 C872 0.961 . S
H860 C872 0.959 . S
H861 C875 0.929 . S
H862 C876 0.931 . S
H863 C878 0.930 . S
C864 H852 0.930 . S
C864 C865 1.399 . S
C864 C869 1.399 . S
C865 C864 1.399 . S
C865 C866 1.376 . S
C866 H853 0.930 . S
C866 C865 1.376 . S
C866 C867 1.388 . S
C867 H854 0.930 . S
C867 C866 1.388 . S
C867 C868 1.390 . S
C868 C867 1.390 . S
C868 C869 1.394 . S
C868 C874 1.465 . S
C869 C864 1.399 . S
C869 C868 1.394 . S
C869 C870 1.516 . S
C870 C869 1.516 . S
C870 C871 1.502 . S
C870 C872 1.561 . S
C870 C873 1.526 . S
C871 H855 0.959 . S
C871 H856 0.959 . S
C871 H857 0.961 . S
C871 C870 1.502 . S
C872 H858 0.960 . S
C872 H859 0.961 . S
C872 H860 0.959 . S
C872 C870 1.561 . S
C873 C870 1.526 . S
C873 C874 1.396 . S
C873 C878 1.390 . S
C874 C868 1.465 . S
C874 C873 1.396 . S
C874 C875 1.399 . S
C875 H861 0.929 . S
C875 C874 1.399 . S
C875 C876 1.385 . S
C876 H862 0.931 . S
C876 C875 1.385 . S
C876 C877 1.389 . S
C877 C876 1.389 . S
C877 C878 1.387 . S
C878 H863 0.930 . S
C878 C873 1.390 . S
C878 C877 1.387 . S
H879 C891 0.930 . S
H880 C893 0.930 . S
H881 C894 0.930 . S
H882 C898 0.959 . S
H883 C898 0.959 . S
H884 C898 0.961 . S
H885 C899 0.960 . S
H886 C899 0.961 . S
H887 C899 0.959 . S
H888 C902 0.929 . S
H889 C903 0.939 . S
H890 C905 0.930 . S
C891 H879 0.930 . S
C891 C892 1.399 . S
C891 C896 1.399 . S
C892 C891 1.399 . S
C892 C893 1.376 . S
C893 H880 0.930 . S
C893 C892 1.376 . S
C893 C894 1.388 . S
C894 H881 0.930 . S
C894 C893 1.388 . S
C894 C895 1.390 . S
C895 C894 1.390 . S
C895 C896 1.394 . S
C895 C901 1.465 . S
C896 C891 1.399 . S
C896 C895 1.394 . S
C896 C897 1.516 . S
C897 C896 1.516 . S
C897 C898 1.502 . S
C897 C899 1.561 . S
C897 C900 1.526 . S
C898 H882 0.959 . S
C898 H883 0.959 . S
C898 H884 0.961 . S
C898 C897 1.502 . S
C899 H885 0.960 . S
C899 H886 0.961 . S
C899 H887 0.959 . S
C899 C897 1.561 . S
C900 C897 1.526 . S
C900 C901 1.396 . S
C900 C905 1.390 . S
C901 C895 1.465 . S
C901 C900 1.396 . S
C901 C902 1.399 . S
C902 H888 0.929 . S
C902 C901 1.399 . S
C902 C903 1.379 1_554 S
C903 H889 0.939 . S
C903 C902 1.379 1_556 S
C903 C904 1.388 1_556 S
C904 C903 1.388 1_554 S
C904 C905 1.387 . S
C905 H890 0.930 . S
C905 C900 1.390 . S
C905 C904 1.387 . S
H906 C918 0.930 . S
H907 C920 0.930 . S
H908 C921 0.930 . S
H909 C925 0.959 . S
H910 C925 0.959 . S
H911 C925 0.961 . S
H912 C926 0.960 . S
H913 C926 0.961 . S
H914 C926 0.959 . S
H915 C929 0.929 . S
H916 C930 0.931 . S
H917 C932 0.930 . S
C918 H906 0.930 . S
C918 C919 1.399 . S
C918 C923 1.399 . S
C919 C918 1.399 . S
C919 C920 1.376 . S
C920 H907 0.930 . S
C920 C919 1.376 . S
C920 C921 1.388 . S
C921 H908 0.930 . S
C921 C920 1.388 . S
C921 C922 1.390 . S
C922 C921 1.390 . S
C922 C923 1.394 . S
C922 C928 1.465 . S
C923 C918 1.399 . S
C923 C922 1.394 . S
C923 C924 1.516 . S
C924 C923 1.516 . S
C924 C925 1.502 . S
C924 C926 1.561 . S
C924 C927 1.526 . S
C925 H909 0.959 . S
C925 H910 0.959 . S
C925 H911 0.961 . S
C925 C924 1.502 . S
C926 H912 0.960 . S
C926 H913 0.961 . S
C926 H914 0.959 . S
C926 C924 1.561 . S
C927 C924 1.526 . S
C927 C928 1.396 . S
C927 C932 1.390 . S
C928 C922 1.465 . S
C928 C927 1.396 . S
C928 C929 1.399 . S
C929 H915 0.929 . S
C929 C928 1.399 . S
C929 C930 1.385 . S
C930 H916 0.931 . S
C930 C929 1.385 . S
C930 C931 1.389 . S
C931 C930 1.389 . S
C931 C932 1.387 . S
C932 H917 0.930 . S
C932 C927 1.390 . S
C932 C931 1.387 . S
H933 C945 0.930 . S
H934 C947 0.930 . S
H935 C948 0.930 . S
H936 C952 0.959 . S
H937 C952 0.959 . S
H938 C952 0.961 . S
H939 C953 0.960 . S
H940 C953 0.961 . S
H941 C953 0.959 . S
H942 C956 0.929 . S
H943 C957 0.931 . S
H944 C959 0.930 . S
C945 H933 0.930 . S
C945 C946 1.399 . S
C945 C950 1.399 . S
C946 C945 1.399 . S
C946 C947 1.376 . S
C947 H934 0.930 . S
C947 C946 1.376 . S
C947 C948 1.388 . S
C948 H935 0.930 . S
C948 C947 1.388 . S
C948 C949 1.390 . S
C949 C948 1.390 . S
C949 C950 1.394 . S
C949 C955 1.465 . S
C950 C945 1.399 . S
C950 C949 1.394 . S
C950 C951 1.516 . S
C951 C950 1.516 . S
C951 C952 1.502 . S
C951 C953 1.561 . S
C951 C954 1.526 . S
C952 H936 0.959 . S
C952 H937 0.959 . S
C952 H938 0.961 . S
C952 C951 1.502 . S
C953 H939 0.960 . S
C953 H940 0.961 . S
C953 H941 0.959 . S
C953 C951 1.561 . S
C954 C951 1.526 . S
C954 C955 1.396 . S
C954 C959 1.390 . S
C955 C949 1.465 . S
C955 C954 1.396 . S
C955 C956 1.399 . S
C956 H942 0.929 . S
C956 C955 1.399 . S
C956 C957 1.385 . S
C957 H943 0.931 . S
C957 C956 1.385 . S
C957 C958 1.389 . S
C958 C957 1.389 . S
C958 C959 1.387 . S
C959 H944 0.930 . S
C959 C954 1.390 . S
C959 C958 1.387 . S
H960 C972 0.930 . S
H961 C974 0.930 . S
H962 C975 0.930 . S
H963 C979 0.959 . S
H964 C979 0.959 . S
H965 C979 0.961 . S
H966 C980 0.960 . S
H967 C980 0.961 1_455 S
H968 C980 0.959 . S
H969 C983 0.929 . S
H970 C984 0.931 . S
H971 C986 0.930 . S
C972 H960 0.930 . S
C972 C973 1.399 . S
C972 C977 1.399 . S
C973 C972 1.399 . S
C973 C974 1.376 . S
C974 H961 0.930 . S
C974 C973 1.376 . S
C974 C975 1.388 . S
C975 H962 0.930 . S
C975 C974 1.388 . S
C975 C976 1.390 . S
C976 C975 1.390 . S
C976 C977 1.394 . S
C976 C982 1.465 1_655 S
C977 C972 1.399 . S
C977 C976 1.394 . S
C977 C978 1.516 1_655 S
C978 C977 1.516 1_455 S
C978 C979 1.502 . S
C978 C980 1.561 1_455 S
C978 C981 1.526 . S
C979 H963 0.959 . S
C979 H964 0.959 . S
C979 H965 0.961 . S
C979 C978 1.502 . S
C980 H966 0.960 . S
C980 H967 0.961 1_655 S
C980 H968 0.959 . S
C980 C978 1.561 1_655 S
C981 C978 1.526 . S
C981 C982 1.396 . S
C981 C986 1.390 . S
C982 C976 1.465 1_455 S
C982 C981 1.396 . S
C982 C983 1.399 . S
C983 H969 0.929 . S
C983 C982 1.399 . S
C983 C984 1.385 . S
C984 H970 0.931 . S
C984 C983 1.385 . S
C984 C985 1.389 . S
C985 C984 1.389 . S
C985 C986 1.387 . S
C986 H971 0.930 . S
C986 C981 1.390 . S
C986 C985 1.387 . S
H987 C999 0.930 . S
H988 C1001 0.930 . S
H989 C1002 0.930 1_545 S
H990 C1006 0.959 . S
H991 C1006 0.959 . S
H992 C1006 0.961 . S
H993 C1007 0.960 . S
H994 C1007 0.961 . S
H995 C1007 0.959 . S
H996 C1010 0.929 . S
H997 C1011 0.931 . S
H998 C1013 0.930 . S
C999 H987 0.930 . S
C999 C1000 1.399 . S
C999 C1004 1.399 . S
C1000 C999 1.399 . S
C1000 C1001 1.376 . S
C1001 H988 0.930 . S
C1001 C1000 1.376 . S
C1001 C1002 1.388 . S
C1002 H989 0.930 1_565 S
C1002 C1001 1.388 . S
C1002 C1003 1.390 . S
C1003 C1002 1.390 . S
C1003 C1004 1.394 . S
C1003 C1009 1.465 1_565 S
C1004 C999 1.399 . S
C1004 C1003 1.394 . S
C1004 C1005 1.516 . S
C1005 C1004 1.516 . S
C1005 C1006 1.502 . S
C1005 C1007 1.561 . S
C1005 C1008 1.526 1_565 S
C1006 H990 0.959 . S
C1006 H991 0.959 . S
C1006 H992 0.961 . S
C1006 C1005 1.502 . S
C1007 H993 0.960 . S
C1007 H994 0.961 . S
C1007 H995 0.959 . S
C1007 C1005 1.561 . S
C1008 C1005 1.526 1_545 S
C1008 C1009 1.396 . S
C1008 C1013 1.390 . S
C1009 C1003 1.465 1_545 S
C1009 C1008 1.396 . S
C1009 C1010 1.399 . S
C1010 H996 0.929 . S
C1010 C1009 1.399 . S
C1010 C1011 1.385 . S
C1011 H997 0.931 . S
C1011 C1010 1.385 . S
C1011 C1012 1.389 . S
C1012 C1011 1.389 . S
C1012 C1013 1.387 . S
C1013 H998 0.930 . S
C1013 C1008 1.390 . S
C1013 C1012 1.387 . S
H1014 C1026 0.930 . S
H1015 C1028 0.930 . S
H1016 C1029 0.930 . S
H1017 C1033 0.959 . S
H1018 C1033 0.959 . S
H1019 C1033 0.961 . S
H1020 C1034 0.960 . S
H1021 C1034 0.961 . S
H1022 C1034 0.959 . S
H1023 C1037 0.929 . S
H1024 C1038 0.931 . S
H1025 C1040 0.930 . S
C1026 H1014 0.930 . S
C1026 C1027 1.399 . S
C1026 C1031 1.399 . S
C1027 C1026 1.399 . S
C1027 C1028 1.376 . S
C1028 H1015 0.930 . S
C1028 C1027 1.376 . S
C1028 C1029 1.388 . S
C1029 H1016 0.930 . S
C1029 C1028 1.388 . S
C1029 C1030 1.390 . S
C1030 C1029 1.390 . S
C1030 C1031 1.394 . S
C1030 C1036 1.465 . S
C1031 C1026 1.399 . S
C1031 C1030 1.394 . S
C1031 C1032 1.516 . S
C1032 C1031 1.516 . S
C1032 C1033 1.502 . S
C1032 C1034 1.561 . S
C1032 C1035 1.526 . S
C1033 H1017 0.959 . S
C1033 H1018 0.959 . S
C1033 H1019 0.961 . S
C1033 C1032 1.502 . S
C1034 H1020 0.960 . S
C1034 H1021 0.961 . S
C1034 H1022 0.959 . S
C1034 C1032 1.561 . S
C1035 C1032 1.526 . S
C1035 C1036 1.396 . S
C1035 C1040 1.390 . S
C1036 C1030 1.465 . S
C1036 C1035 1.396 . S
C1036 C1037 1.399 . S
C1037 H1023 0.929 . S
C1037 C1036 1.399 . S
C1037 C1038 1.385 . S
C1038 H1024 0.931 . S
C1038 C1037 1.385 . S
C1038 C1039 1.389 . S
C1039 C1038 1.389 . S
C1039 C1040 1.387 . S
C1040 H1025 0.930 . S
C1040 C1035 1.390 . S
C1040 C1039 1.387 . S
H1041 C1053 0.930 . S
H1042 C1055 0.930 . S
H1043 C1056 0.930 . S
H1044 C1060 0.959 . S
H1045 C1060 0.959 . S
H1046 C1060 0.961 . S
H1047 C1061 0.960 . S
H1048 C1061 0.961 1_655 S
H1049 C1061 0.959 . S
H1050 C1064 0.929 . S
H1051 C1065 0.931 . S
H1052 C1067 0.930 . S
C1053 H1041 0.930 . S
C1053 C1054 1.399 . S
C1053 C1058 1.399 . S
C1054 C1053 1.399 . S
C1054 C1055 1.376 . S
C1055 H1042 0.930 . S
C1055 C1054 1.376 . S
C1055 C1056 1.388 . S
C1056 H1043 0.930 . S
C1056 C1055 1.388 . S
C1056 C1057 1.390 . S
C1057 C1056 1.390 . S
C1057 C1058 1.394 . S
C1057 C1063 1.465 1_455 S
C1058 C1053 1.399 . S
C1058 C1057 1.394 . S
C1058 C1059 1.516 1_455 S
C1059 C1058 1.516 1_655 S
C1059 C1060 1.502 . S
C1059 C1061 1.561 1_655 S
C1059 C1062 1.526 . S
C1060 H1044 0.959 . S
C1060 H1045 0.959 . S
C1060 H1046 0.961 . S
C1060 C1059 1.502 . S
C1061 H1047 0.960 . S
C1061 H1048 0.961 1_455 S
C1061 H1049 0.959 . S
C1061 C1059 1.561 1_455 S
C1062 C1059 1.526 . S
C1062 C1063 1.396 . S
C1062 C1067 1.390 . S
C1063 C1057 1.465 1_655 S
C1063 C1062 1.396 . S
C1063 C1064 1.399 . S
C1064 H1050 0.929 . S
C1064 C1063 1.399 . S
C1064 C1065 1.385 . S
C1065 H1051 0.931 . S
C1065 C1064 1.385 . S
C1065 C1066 1.389 . S
C1066 C1065 1.389 . S
C1066 C1067 1.387 . S
C1067 H1052 0.930 . S
C1067 C1062 1.390 . S
C1067 C1066 1.387 . S
H1068 C1080 0.930 . S
H1069 C1082 0.930 . S
H1070 C1083 0.930 . S
H1071 C1087 0.959 . S
H1072 C1087 0.959 . S
H1073 C1087 0.961 . S
H1074 C1088 0.960 . S
H1075 C1088 0.961 . S
H1076 C1088 0.959 . S
H1077 C1091 0.915 1_545 S
H1078 C1092 0.931 . S
H1079 C1094 0.930 . S
C1080 H1068 0.930 . S
C1080 C1081 1.399 . S
C1080 C1085 1.399 . S
C1081 C1080 1.399 . S
C1081 C1082 1.376 . S
C1082 H1069 0.930 . S
C1082 C1081 1.376 . S
C1082 C1083 1.388 1_556 S
C1083 H1070 0.930 . S
C1083 C1082 1.388 1_554 S
C1083 C1084 1.390 . S
C1084 C1083 1.390 . S
C1084 C1085 1.394 1_554 S
C1084 C1090 1.465 1_545 S
C1085 C1080 1.399 . S
C1085 C1084 1.394 1_556 S
C1085 C1086 1.516 1_545 S
C1086 C1085 1.516 1_565 S
C1086 C1087 1.502 . S
C1086 C1088 1.561 . S
C1086 C1089 1.526 1_556 S
C1087 H1071 0.959 . S
C1087 H1072 0.959 . S
C1087 H1073 0.961 . S
C1087 C1086 1.502 . S
C1088 H1074 0.960 . S
C1088 H1075 0.961 . S
C1088 H1076 0.959 . S
C1088 C1086 1.561 . S
C1089 C1086 1.526 1_554 S
C1089 C1090 1.396 . S
C1089 C1094 1.390 . S
C1090 C1084 1.465 1_565 S
C1090 C1089 1.396 . S
C1090 C1091 1.399 . S
C1091 H1077 0.915 1_565 S
C1091 C1090 1.399 . S
C1091 C1092 1.385 . S
C1092 H1078 0.931 . S
C1092 C1091 1.385 . S
C1092 C1093 1.389 . S
C1093 C1092 1.389 . S
C1093 C1094 1.387 . S
C1094 H1079 0.930 . S
C1094 C1089 1.390 . S
C1094 C1093 1.387 . S
H1095 C1107 0.930 . S
H1096 C1109 0.930 . S
H1097 C1110 0.930 . S
H1098 C1114 0.959 . S
H1099 C1114 0.959 . S
H1100 C1114 0.961 . S
H1101 C1115 0.960 . S
H1102 C1115 0.961 . S
H1103 C1115 0.959 . S
H1104 C1118 0.929 . S
H1105 C1119 0.931 . S
H1106 C1121 0.930 . S
C1107 H1095 0.930 . S
C1107 C1108 1.399 . S
C1107 C1112 1.399 . S
C1108 C1107 1.399 . S
C1108 C1109 1.376 . S
C1109 H1096 0.930 . S
C1109 C1108 1.376 . S
C1109 C1110 1.388 . S
C1110 H1097 0.930 . S
C1110 C1109 1.388 . S
C1110 C1111 1.390 . S
C1111 C1110 1.390 . S
C1111 C1112 1.394 . S
C1111 C1117 1.465 . S
C1112 C1107 1.399 . S
C1112 C1111 1.394 . S
C1112 C1113 1.516 . S
C1113 C1112 1.516 . S
C1113 C1114 1.502 . S
C1113 C1115 1.561 . S
C1113 C1116 1.526 . S
C1114 H1098 0.959 . S
C1114 H1099 0.959 . S
C1114 H1100 0.961 . S
C1114 C1113 1.502 . S
C1115 H1101 0.960 . S
C1115 H1102 0.961 . S
C1115 H1103 0.959 . S
C1115 C1113 1.561 . S
C1116 C1113 1.526 . S
C1116 C1117 1.396 . S
C1116 C1121 1.390 . S
C1117 C1111 1.465 . S
C1117 C1116 1.396 . S
C1117 C1118 1.399 . S
C1118 H1104 0.929 . S
C1118 C1117 1.399 . S
C1118 C1119 1.385 . S
C1119 H1105 0.931 . S
C1119 C1118 1.385 . S
C1119 C1120 1.389 . S
C1120 C1119 1.389 . S
C1120 C1121 1.387 . S
C1121 H1106 0.930 . S
C1121 C1116 1.390 . S
C1121 C1120 1.387 . S
H1122 C1134 0.930 . S
H1123 C1136 0.930 . S
H1124 C1137 0.930 . S
H1125 C1141 0.959 . S
H1126 C1141 0.959 . S
H1127 C1141 0.961 . S
H1128 C1142 0.960 . S
H1129 C1142 0.961 . S
H1130 C1142 0.959 . S
H1131 C1145 0.929 . S
H1132 C1146 0.931 . S
H1133 C1148 0.930 . S
C1134 H1122 0.930 . S
C1134 C1135 1.399 . S
C1134 C1139 1.399 . S
C1135 C1134 1.399 . S
C1135 C1136 1.376 . S
C1136 H1123 0.930 . S
C1136 C1135 1.376 . S
C1136 C1137 1.388 . S
C1137 H1124 0.930 . S
C1137 C1136 1.388 . S
C1137 C1138 1.390 . S
C1138 C1137 1.390 . S
C1138 C1139 1.394 . S
C1138 C1144 1.465 . S
C1139 C1134 1.399 . S
C1139 C1138 1.394 . S
C1139 C1140 1.516 . S
C1140 C1139 1.516 . S
C1140 C1141 1.502 . S
C1140 C1142 1.561 . S
C1140 C1143 1.526 . S
C1141 H1125 0.959 . S
C1141 H1126 0.959 . S
C1141 H1127 0.961 . S
C1141 C1140 1.502 . S
C1142 H1128 0.960 . S
C1142 H1129 0.961 . S
C1142 H1130 0.959 . S
C1142 C1140 1.561 . S
C1143 C1140 1.526 . S
C1143 C1144 1.396 . S
C1143 C1148 1.390 . S
C1144 C1138 1.465 . S
C1144 C1143 1.396 . S
C1144 C1145 1.399 . S
C1145 H1131 0.929 . S
C1145 C1144 1.399 . S
C1145 C1146 1.385 . S
C1146 H1132 0.931 . S
C1146 C1145 1.385 . S
C1146 C1147 1.389 . S
C1147 C1146 1.389 . S
C1147 C1148 1.387 . S
C1148 H1133 0.930 . S
C1148 C1143 1.390 . S
C1148 C1147 1.387 . S
H1149 C1161 0.930 . S
H1150 C1163 0.930 . S
H1151 C1164 0.930 . S
H1152 C1168 0.959 . S
H1153 C1168 0.959 . S
H1154 C1168 0.961 . S
H1155 C1169 0.960 . S
H1156 C1169 0.961 . S
H1157 C1169 0.959 . S
H1158 C1172 0.929 . S
H1159 C1173 0.931 . S
H1160 C1175 0.930 . S
C1161 H1149 0.930 . S
C1161 C1162 1.399 . S
C1161 C1166 1.399 . S
C1162 C1161 1.399 . S
C1162 C1163 1.376 . S
C1163 H1150 0.930 . S
C1163 C1162 1.376 . S
C1163 C1164 1.388 . S
C1164 H1151 0.930 . S
C1164 C1163 1.388 . S
C1164 C1165 1.390 . S
C1165 C1164 1.390 . S
C1165 C1166 1.394 . S
C1165 C1171 1.465 . S
C1166 C1161 1.399 . S
C1166 C1165 1.394 . S
C1166 C1167 1.516 . S
C1167 C1166 1.516 . S
C1167 C1168 1.502 . S
C1167 C1169 1.561 . S
C1167 C1170 1.526 . S
C1168 H1152 0.959 . S
C1168 H1153 0.959 . S
C1168 H1154 0.961 . S
C1168 C1167 1.502 . S
C1169 H1155 0.960 . S
C1169 H1156 0.961 . S
C1169 H1157 0.959 . S
C1169 C1167 1.561 . S
C1170 C1167 1.526 . S
C1170 C1171 1.396 . S
C1170 C1175 1.390 . S
C1171 C1165 1.465 . S
C1171 C1170 1.396 . S
C1171 C1172 1.399 . S
C1172 H1158 0.929 . S
C1172 C1171 1.399 . S
C1172 C1173 1.385 . S
C1173 H1159 0.931 . S
C1173 C1172 1.385 . S
C1173 C1174 1.389 . S
C1174 C1173 1.389 . S
C1174 C1175 1.387 . S
C1175 H1160 0.930 . S
C1175 C1170 1.390 . S
C1175 C1174 1.387 . S
H1176 C1188 0.930 . S
H1177 C1190 0.930 . S
H1178 C1191 0.930 . S
H1179 C1195 0.959 . S
H1180 C1195 0.959 . S
H1181 C1195 0.961 . S
H1182 C1196 0.960 . S
H1183 C1196 0.961 . S
H1184 C1196 0.959 . S
H1185 C1199 0.929 . S
H1186 C1200 0.931 . S
H1187 C1202 0.930 . S
C1188 H1176 0.930 . S
C1188 C1189 1.399 . S
C1188 C1193 1.399 . S
C1189 C1188 1.399 . S
C1189 C1190 1.376 . S
C1190 H1177 0.930 . S
C1190 C1189 1.376 . S
C1190 C1191 1.388 . S
C1191 H1178 0.930 . S
C1191 C1190 1.388 . S
C1191 C1192 1.390 . S
C1192 C1191 1.390 . S
C1192 C1193 1.394 . S
C1192 C1198 1.465 . S
C1193 C1188 1.399 . S
C1193 C1192 1.394 . S
C1193 C1194 1.516 . S
C1194 C1193 1.516 . S
C1194 C1195 1.502 . S
C1194 C1196 1.561 . S
C1194 C1197 1.526 . S
C1195 H1179 0.959 . S
C1195 H1180 0.959 . S
C1195 H1181 0.961 . S
C1195 C1194 1.502 . S
C1196 H1182 0.960 . S
C1196 H1183 0.961 . S
C1196 H1184 0.959 . S
C1196 C1194 1.561 . S
C1197 C1194 1.526 . S
C1197 C1198 1.396 . S
C1197 C1202 1.390 . S
C1198 C1192 1.465 . S
C1198 C1197 1.396 . S
C1198 C1199 1.399 . S
C1199 H1185 0.929 . S
C1199 C1198 1.399 . S
C1199 C1200 1.385 . S
C1200 H1186 0.931 . S
C1200 C1199 1.385 . S
C1200 C1201 1.389 . S
C1201 C1200 1.389 . S
C1201 C1202 1.387 . S
C1202 H1187 0.930 . S
C1202 C1197 1.390 . S
C1202 C1201 1.387 . S
H1203 C1215 0.930 . S
H1204 C1217 0.930 . S
H1205 C1218 0.930 . S
H1206 C1222 0.959 . S
H1207 C1222 0.959 . S
H1208 C1222 0.961 . S
H1209 C1223 0.960 . S
H1210 C1223 0.961 . S
H1211 C1223 0.959 . S
H1212 C1226 0.929 . S
H1213 C1227 0.931 . S
H1214 C1229 0.930 . S
C1215 H1203 0.930 . S
C1215 C1216 1.399 . S
C1215 C1220 1.399 . S
C1216 C1215 1.399 . S
C1216 C1217 1.376 . S
C1217 H1204 0.930 . S
C1217 C1216 1.376 . S
C1217 C1218 1.388 . S
C1218 H1205 0.930 . S
C1218 C1217 1.388 . S
C1218 C1219 1.390 . S
C1219 C1218 1.390 . S
C1219 C1220 1.394 . S
C1219 C1225 1.465 . S
C1220 C1215 1.399 . S
C1220 C1219 1.394 . S
C1220 C1221 1.516 . S
C1221 C1220 1.516 . S
C1221 C1222 1.502 . S
C1221 C1223 1.561 . S
C1221 C1224 1.526 . S
C1222 H1206 0.959 . S
C1222 H1207 0.959 . S
C1222 H1208 0.961 . S
C1222 C1221 1.502 . S
C1223 H1209 0.960 . S
C1223 H1210 0.961 . S
C1223 H1211 0.959 . S
C1223 C1221 1.561 . S
C1224 C1221 1.526 . S
C1224 C1225 1.396 . S
C1224 C1229 1.390 . S
C1225 C1219 1.465 . S
C1225 C1224 1.396 . S
C1225 C1226 1.399 . S
C1226 H1212 0.929 . S
C1226 C1225 1.399 . S
C1226 C1227 1.385 . S
C1227 H1213 0.931 . S
C1227 C1226 1.385 . S
C1227 C1228 1.389 . S
C1228 C1227 1.389 . S
C1228 C1229 1.387 . S
C1229 H1214 0.930 . S
C1229 C1224 1.390 . S
C1229 C1228 1.387 . S
H1230 C1242 0.930 . S
H1231 C1244 0.930 1_554 S
H1232 C1245 0.930 . S
H1233 C1249 0.959 . S
H1234 C1249 0.959 . S
H1235 C1249 0.961 . S
H1236 C1250 0.960 . S
H1237 C1250 0.961 . S
H1238 C1250 0.959 . S
H1239 C1253 0.929 . S
H1240 C1254 0.931 . S
H1241 C1256 0.930 . S
C1242 H1230 0.930 . S
C1242 C1243 1.399 . S
C1242 C1247 1.399 . S
C1243 C1242 1.399 . S
C1243 C1244 1.376 . S
C1244 H1231 0.930 1_556 S
C1244 C1243 1.376 . S
C1244 C1245 1.388 . S
C1245 H1232 0.930 . S
C1245 C1244 1.388 . S
C1245 C1246 1.390 . S
C1246 C1245 1.390 . S
C1246 C1247 1.394 . S
C1246 C1252 1.465 . S
C1247 C1242 1.399 . S
C1247 C1246 1.394 . S
C1247 C1248 1.516 . S
C1248 C1247 1.516 . S
C1248 C1249 1.502 . S
C1248 C1250 1.561 . S
C1248 C1251 1.526 . S
C1249 H1233 0.959 . S
C1249 H1234 0.959 . S
C1249 H1235 0.961 . S
C1249 C1248 1.502 . S
C1250 H1236 0.960 . S
C1250 H1237 0.961 . S
C1250 H1238 0.959 . S
C1250 C1248 1.561 . S
C1251 C1248 1.526 . S
C1251 C1252 1.396 . S
C1251 C1256 1.390 . S
C1252 C1246 1.465 . S
C1252 C1251 1.396 . S
C1252 C1253 1.399 . S
C1253 H1239 0.929 . S
C1253 C1252 1.399 . S
C1253 C1254 1.385 . S
C1254 H1240 0.931 . S
C1254 C1253 1.385 . S
C1254 C1255 1.389 . S
C1255 C1254 1.389 . S
C1255 C1256 1.387 . S
C1256 H1241 0.930 . S
C1256 C1251 1.390 . S
C1256 C1255 1.387 . S
H1257 C1269 0.930 . S
H1258 C1271 0.930 . S
H1259 C1272 0.930 . S
H1260 C1276 0.959 . S
H1261 C1276 0.959 . S
H1262 C1276 0.961 . S
H1263 C1277 0.960 . S
H1264 C1277 0.961 . S
H1265 C1277 0.959 . S
H1266 C1280 0.929 . S
H1267 C1281 0.931 . S
H1268 C1283 0.930 . S
C1269 H1257 0.930 . S
C1269 C1270 1.399 . S
C1269 C1274 1.399 . S
C1270 C1269 1.399 . S
C1270 C1271 1.376 . S
C1271 H1258 0.930 . S
C1271 C1270 1.376 . S
C1271 C1272 1.388 . S
C1272 H1259 0.930 . S
C1272 C1271 1.388 . S
C1272 C1273 1.390 . S
C1273 C1272 1.390 . S
C1273 C1274 1.394 . S
C1273 C1279 1.465 . S
C1274 C1269 1.399 . S
C1274 C1273 1.394 . S
C1274 C1275 1.516 . S
C1275 C1274 1.516 . S
C1275 C1276 1.502 . S
C1275 C1277 1.561 . S
C1275 C1278 1.526 . S
C1276 H1260 0.959 . S
C1276 H1261 0.959 . S
C1276 H1262 0.961 . S
C1276 C1275 1.502 . S
C1277 H1263 0.960 . S
C1277 H1264 0.961 . S
C1277 H1265 0.959 . S
C1277 C1275 1.561 . S
C1278 C1275 1.526 . S
C1278 C1279 1.396 . S
C1278 C1283 1.390 . S
C1279 C1273 1.465 . S
C1279 C1278 1.396 . S
C1279 C1280 1.399 . S
C1280 H1266 0.929 . S
C1280 C1279 1.399 . S
C1280 C1281 1.385 . S
C1281 H1267 0.931 . S
C1281 C1280 1.385 . S
C1281 C1282 1.389 . S
C1282 C1281 1.389 . S
C1282 C1283 1.387 . S
C1283 H1268 0.930 . S
C1283 C1278 1.390 . S
C1283 C1282 1.387 . S
C649 C29 1.548 . S
C661 C347 1.544 . S
C676 C82 1.547 . S
C688 C400 1.543 . S
C703 C453 1.509 . S
C715 C135 1.509 . S
C730 C188 1.514 . S
C742 C506 1.519 . S
C757 C241 1.520 . S
C769 C559 1.525 . S
C784 C612 1.516 . S
C796 C294 1.514 . S
C811 C463 1.383 . S
C823 C39 1.412 . S
C838 C92 1.424 . S
C850 C516 1.437 . S
C865 C569 1.373 1_556 S
C877 C145 1.361 . S
C892 C622 1.410 . S
C904 C198 1.382 1_554 S
C919 C251 1.375 . S
C931 C357 1.361 . S
C946 C304 1.423 . S
C958 C410 1.396 . S
C973 C605 2.079 . S
C985 C22 2.113 . S
C1000 C340 2.116 . S
C1012 C75 2.074 . S
C1027 C128 2.098 . S
C1039 C393 2.076 . S
C1054 C446 2.085 . S
C1066 C181 2.109 . S
C1081 C499 2.068 . S
C1093 C234 2.107 . S
C1108 C552 2.107 . S
C1120 C287 2.087 . S
C1135 C38 1.872 . S
C1147 C568 1.893 . S
C1162 C621 1.867 . S
C1174 C91 1.896 . S
C1189 C144 1.865 . S
C1201 C356 1.897 . S
C1216 C197 1.889 . S
C1228 C409 1.873 . S
C1243 C250 1.870 1_556 S
C1255 C462 1.892 . S
C1270 C303 1.865 . S
C1282 C515 1.898 1_554 S
