# Generated by pormake.
# Topology zfo, (5)-cn, num edge types: 1
# Building blocks:
#     Node 0, Type 0, BuildingBlock: BEQFEK_clean_sbu_0, # of connection points: 5
#     Node 1, Type 0, BuildingBlock: BEQFEK_clean_sbu_0, # of connection points: 5
#     Node 2, Type 0, BuildingBlock: BEQFEK_clean_sbu_0, # of connection points: 5
#     Node 3, Type 0, BuildingBlock: BEQFEK_clean_sbu_0, # of connection points: 5
#     Node 4, Type 0, BuildingBlock: BEQFEK_clean_sbu_0, # of connection points: 5
#     Node 5, Type 0, BuildingBlock: BEQFEK_clean_sbu_0, # of connection points: 5
#     Node 6, Type 0, BuildingBlock: BEQFEK_clean_sbu_0, # of connection points: 5
#     Node 7, Type 0, BuildingBlock: BEQFEK_clean_sbu_0, # of connection points: 5
#     Node 8, Type 0, BuildingBlock: BEQFEK_clean_sbu_0, # of connection points: 5
#     Node 9, Type 0, BuildingBlock: BEQFEK_clean_sbu_0, # of connection points: 5
#     Node 10, Type 0, BuildingBlock: BEQFEK_clean_sbu_0, # of connection points: 5
#     Node 11, Type 0, BuildingBlock: BEQFEK_clean_sbu_0, # of connection points: 5
#     Node 12, Type 0, BuildingBlock: BEQFEK_clean_sbu_0, # of connection points: 5
#     Node 13, Type 0, BuildingBlock: BEQFEK_clean_sbu_0, # of connection points: 5
#     Node 14, Type 0, BuildingBlock: BEQFEK_clean_sbu_0, # of connection points: 5
#     Node 15, Type 0, BuildingBlock: BEQFEK_clean_sbu_0, # of connection points: 5
#     Edge 16, Type (0, 0), None
#     Edge 17, Type (0, 0), None
#     Edge 18, Type (0, 0), None
#     Edge 19, Type (0, 0), None
#     Edge 20, Type (0, 0), None
#     Edge 21, Type (0, 0), None
#     Edge 22, Type (0, 0), None
#     Edge 23, Type (0, 0), None
#     Edge 24, Type (0, 0), None
#     Edge 25, Type (0, 0), None
#     Edge 26, Type (0, 0), None
#     Edge 27, Type (0, 0), None
#     Edge 28, Type (0, 0), None
#     Edge 29, Type (0, 0), None
#     Edge 30, Type (0, 0), None
#     Edge 31, Type (0, 0), None
#     Edge 32, Type (0, 0), None
#     Edge 33, Type (0, 0), None
#     Edge 34, Type (0, 0), None
#     Edge 35, Type (0, 0), None
#     Edge 36, Type (0, 0), None
#     Edge 37, Type (0, 0), None
#     Edge 38, Type (0, 0), None
#     Edge 39, Type (0, 0), None
#     Edge 40, Type (0, 0), None
#     Edge 41, Type (0, 0), None
#     Edge 42, Type (0, 0), None
#     Edge 43, Type (0, 0), None
#     Edge 44, Type (0, 0), None
#     Edge 45, Type (0, 0), None
#     Edge 46, Type (0, 0), None
#     Edge 47, Type (0, 0), None
#     Edge 48, Type (0, 0), None
#     Edge 49, Type (0, 0), None
#     Edge 50, Type (0, 0), None
#     Edge 51, Type (0, 0), None
#     Edge 52, Type (0, 0), None
#     Edge 53, Type (0, 0), None
#     Edge 54, Type (0, 0), None
#     Edge 55, Type (0, 0), None
# Relax obj value: 0.230
# Max RMSD: 0.174
# Mean RMSD: 0.168
data_MOF--net-zfo--node1-BEQFEK_clean_sbu_0--edge1-none
_symmetry_space_group_name_H-M    P1
_symmetry_Int_Tables_number       1
_symmetry_cell_setting            triclinic
loop_
_symmetry_equiv_pos_as_xyz
'x, y, z'
_cell_length_a     16.804314
_cell_length_b     16.804684
_cell_length_c     33.745315
_cell_angle_alpha  90.0
_cell_angle_beta   89.999995
_cell_angle_gamma 89.999996
loop_
_atom_site_label
_atom_site_type_symbol
_atom_site_fract_x
_atom_site_fract_y
_atom_site_fract_z
_atom_type_partial_charge
Co0 Co 0.07082 0.19071 0.08656 0.0
Co1 Co 0.06486 0.18855 0.17848 0.0
C2 C 0.96366 0.29882 0.12872 0.0
O3 O 0.98981 0.2761 0.09529 0.0
O4 O 0.98637 0.26613 0.16046 0.0
C5 C 0.07294 0.2371 1.0039 0.0
O6 O 0.03456 0.30032 1.01641 0.0
C7 C 0.12238 0.29753 0.23372 0.0
C8 C 0.11962 0.23709 0.29151 0.0
C9 C 0.1459 0.30547 0.27231 0.0
N10 N 0.08578 0.227 0.2295 0.0
N11 N 0.08233 0.19147 0.26435 0.0
C12 C 0.13978 0.35486 0.20078 0.0
H13 H 0.20485 0.3579 0.1955 0.0
H14 H 0.11945 0.41511 0.20961 0.0
H15 H 0.1105 0.33772 0.17279 0.0
C16 C 0.24165 0.23175 0.1066 0.0
N17 N 0.16602 0.21127 0.11517 0.0
N18 N 0.16268 0.19279 0.15288 0.0
C19 C 0.23598 0.1938 0.16874 0.0
C20 C 0.28782 0.22243 0.14067 0.0
C21 C 0.26926 0.2605 0.06696 0.0
H22 H 0.22233 0.25332 0.04433 0.0
H23 H 0.28485 0.32454 0.06903 0.0
H24 H 0.32357 0.22758 0.05787 0.0
O25 O 0.03029 0.08229 0.10541 0.0
O26 O 0.02603 0.08103 0.17184 0.0
H27 H 0.20703 0.13057 0.22256 0.0
H28 H 0.31009 0.12702 0.20849 0.0
C29 C 0.2565 0.16556 0.20963 0.0
H30 H 0.27097 0.21714 0.22881 0.0
H31 H 0.05924 0.1346 0.26907 0.0
O32 O 0.09377 0.18358 1.02852 0.0
C33 C 0.0172 0.04654 0.13842 0.0
Co34 Co 0.81869 0.07083 0.58656 0.0
Co35 Co 0.82085 0.06487 0.67848 0.0
C36 C 0.71058 0.96368 0.62873 0.0
O37 O 0.73329 0.98983 0.59529 0.0
O38 O 0.74327 0.98639 0.66046 0.0
C39 C 0.7723 0.07295 0.5039 0.0
O40 O 0.70907 0.03458 0.51641 0.0
C41 C 0.71186 0.1224 0.73372 0.0
C42 C 0.77231 0.11964 0.79152 0.0
C43 C 0.70393 0.14592 0.77232 0.0
N44 N 0.7824 0.0858 0.7295 0.0
N45 N 0.81794 0.08235 0.76436 0.0
C46 C 0.65453 0.13979 0.70078 0.0
H47 H 0.6515 0.20487 0.6955 0.0
H48 H 0.59428 0.11947 0.70962 0.0
H49 H 0.67167 0.11051 0.67279 0.0
C50 C 0.77765 0.24166 0.6066 0.0
N51 N 0.79812 0.16604 0.61518 0.0
N52 N 0.8166 0.1627 0.65288 0.0
C53 C 0.8156 0.236 0.66874 0.0
C54 C 0.78697 0.28783 0.64067 0.0
C55 C 0.7489 0.26928 0.56696 0.0
H56 H 0.75608 0.22235 0.54434 0.0
H57 H 0.68486 0.28487 0.56903 0.0
H58 H 0.78183 0.32358 0.55787 0.0
O59 O 0.92711 0.03031 0.60541 0.0
O60 O 0.92837 0.02605 0.67184 0.0
H61 H 0.87883 0.20705 0.72256 0.0
H62 H 0.88238 0.31011 0.70849 0.0
C63 C 0.84384 0.25651 0.70963 0.0
H64 H 0.79225 0.27099 0.72881 0.0
H65 H 0.8748 0.05926 0.76907 0.0
O66 O 0.82582 0.09379 0.52852 0.0
C67 C 0.96286 0.01722 0.63842 0.0
Co68 Co 0.93857 0.81871 0.08656 0.0
Co69 Co 0.94453 0.82087 0.17848 0.0
C70 C 0.04572 0.7106 0.12872 0.0
O71 O 0.01957 0.73331 0.09529 0.0
O72 O 0.02301 0.74329 0.16046 0.0
C73 C 0.93645 0.77232 1.0039 0.0
O74 O 0.97482 0.7091 1.01641 0.0
C75 C 0.887 0.71189 0.23372 0.0
C76 C 0.88976 0.77233 0.29151 0.0
C77 C 0.86348 0.70395 0.27231 0.0
N78 N 0.9236 0.78242 0.2295 0.0
N79 N 0.92705 0.81795 0.26435 0.0
C80 C 0.86961 0.65456 0.20078 0.0
H81 H 0.80453 0.65152 0.1955 0.0
H82 H 0.88993 0.59431 0.20961 0.0
H83 H 0.89889 0.6717 0.17279 0.0
C84 C 0.76774 0.77767 0.1066 0.0
N85 N 0.84336 0.79815 0.11518 0.0
N86 N 0.8467 0.81663 0.15288 0.0
C87 C 0.7734 0.81562 0.16874 0.0
C88 C 0.72157 0.78699 0.14067 0.0
C89 C 0.74012 0.74892 0.06696 0.0
H90 H 0.78705 0.7561 0.04433 0.0
H91 H 0.72454 0.68488 0.06903 0.0
H92 H 0.68581 0.78184 0.05787 0.0
O93 O 0.97909 0.92713 0.10541 0.0
O94 O 0.98335 0.92839 0.17184 0.0
H95 H 0.80235 0.87885 0.22256 0.0
H96 H 0.69929 0.8824 0.20849 0.0
C97 C 0.75289 0.84386 0.20963 0.0
H98 H 0.73841 0.79228 0.22881 0.0
H99 H 0.95015 0.87482 0.26907 0.0
O100 O 0.91562 0.82584 1.02852 0.0
C101 C 0.99219 0.96288 0.13842 0.0
Co102 Co 0.1907 0.93859 0.58656 0.0
Co103 Co 0.18854 0.94455 0.67848 0.0
C104 C 0.29881 0.04574 0.62873 0.0
O105 O 0.27609 0.01959 0.59529 0.0
O106 O 0.26611 0.02303 0.66046 0.0
C107 C 0.23708 0.93647 0.5039 0.0
O108 O 0.30031 0.97484 0.51641 0.0
C109 C 0.29752 0.88702 0.73372 0.0
C110 C 0.23707 0.88978 0.79152 0.0
C111 C 0.30545 0.8635 0.77232 0.0
N112 N 0.22698 0.92362 0.7295 0.0
N113 N 0.19145 0.92707 0.76436 0.0
C114 C 0.35485 0.86963 0.70078 0.0
H115 H 0.35789 0.80456 0.6955 0.0
H116 H 0.4151 0.88995 0.70962 0.0
H117 H 0.33771 0.89891 0.67279 0.0
C118 C 0.23173 0.76776 0.6066 0.0
N119 N 0.21126 0.84338 0.61518 0.0
N120 N 0.19278 0.84672 0.65288 0.0
C121 C 0.19379 0.77342 0.66874 0.0
C122 C 0.22242 0.72159 0.64067 0.0
C123 C 0.26048 0.74014 0.56696 0.0
H124 H 0.25331 0.78707 0.54434 0.0
H125 H 0.32452 0.72455 0.56903 0.0
H126 H 0.22755 0.68584 0.55787 0.0
O127 O 0.08228 0.97911 0.60541 0.0
O128 O 0.08101 0.98337 0.67184 0.0
H129 H 0.13055 0.80237 0.72256 0.0
H130 H 0.127 0.69932 0.70849 0.0
C131 C 0.16554 0.75291 0.70963 0.0
H132 H 0.21713 0.73843 0.72881 0.0
H133 H 0.13458 0.95016 0.76907 0.0
O134 O 0.18356 0.91564 0.52852 0.0
C135 C 0.04653 0.99221 0.63842 0.0
Co136 Co 0.57082 0.31872 0.97311 0.0
Co137 Co 0.56491 0.32088 0.88118 0.0
C138 C 0.4637 0.2106 0.93092 0.0
O139 O 0.48983 0.23331 0.96436 0.0
O140 O 0.48642 0.24329 0.89919 0.0
C141 C 0.57291 0.27233 0.05576 0.0
O142 O 0.53454 0.2091 0.04325 0.0
C143 C 0.62256 0.21188 0.82599 0.0
C144 C 0.6198 0.27223 0.76816 0.0
C145 C 0.64618 0.20395 0.78742 0.0
N146 N 0.58591 0.2824 0.83017 0.0
N147 N 0.58247 0.31787 0.7953 0.0
C148 C 0.63987 0.15457 0.85895 0.0
H149 H 0.70495 0.15141 0.86421 0.0
H150 H 0.61942 0.09435 0.85014 0.0
H151 H 0.61065 0.1718 0.88694 0.0
C152 C 0.74166 0.27769 0.95308 0.0
N153 N 0.66604 0.29818 0.9445 0.0
N154 N 0.66272 0.31668 0.9068 0.0
C155 C 0.73603 0.31568 0.89094 0.0
C156 C 0.78785 0.28703 0.91901 0.0
C157 C 0.76926 0.2489 0.99271 0.0
H158 H 0.72232 0.25608 1.01534 0.0
H159 H 0.78484 0.18487 0.99064 0.0
H160 H 0.82357 0.28181 1.00181 0.0
O161 O 0.53029 0.42713 0.95424 0.0
O162 O 0.52605 0.4284 0.88781 0.0
H163 H 0.70708 0.37892 0.83713 0.0
H164 H 0.81013 0.38252 0.85122 0.0
C165 C 0.75655 0.34396 0.85006 0.0
H166 H 0.77108 0.29238 0.83088 0.0
H167 H 0.5593 0.3747 0.79055 0.0
O168 O 0.59375 0.32585 0.03115 0.0
C169 C 0.5172 0.46288 0.92123 0.0
Co170 Co 0.69069 0.57084 0.4731 0.0
Co171 Co 0.68853 0.56492 0.38118 0.0
C172 C 0.79881 0.46372 0.43092 0.0
O173 O 0.77609 0.48985 0.46436 0.0
O174 O 0.76612 0.48644 0.39919 0.0
C175 C 0.73708 0.57292 0.55576 0.0
O176 O 0.80031 0.53455 0.54325 0.0
C177 C 0.79752 0.62257 0.32599 0.0
C178 C 0.73718 0.61982 0.26816 0.0
C179 C 0.80545 0.6462 0.28741 0.0
N180 N 0.727 0.58593 0.33017 0.0
N181 N 0.69153 0.58249 0.2953 0.0
C182 C 0.85484 0.63989 0.35895 0.0
H183 H 0.858 0.70496 0.3642 0.0
H184 H 0.91506 0.61944 0.35013 0.0
H185 H 0.83762 0.61066 0.38694 0.0
C186 C 0.73171 0.74168 0.45308 0.0
N187 N 0.71123 0.66606 0.4445 0.0
N188 N 0.69273 0.66274 0.40679 0.0
C189 C 0.69372 0.73604 0.39094 0.0
C190 C 0.72238 0.78786 0.41901 0.0
C191 C 0.7605 0.76928 0.49271 0.0
H192 H 0.75333 0.72234 0.51534 0.0
H193 H 0.82454 0.78486 0.49064 0.0
H194 H 0.72758 0.82358 0.50181 0.0
O195 O 0.58227 0.53031 0.45424 0.0
O196 O 0.58101 0.52607 0.38781 0.0
H197 H 0.63048 0.7071 0.33712 0.0
H198 H 0.62688 0.81015 0.35122 0.0
C199 C 0.66545 0.75657 0.35006 0.0
H200 H 0.71702 0.77109 0.33088 0.0
H201 H 0.6347 0.55932 0.29055 0.0
O202 O 0.68356 0.59376 0.53114 0.0
C203 C 0.54652 0.51722 0.42123 0.0
Co204 Co 0.43857 0.6907 0.97311 0.0
Co205 Co 0.44448 0.68854 0.88118 0.0
C206 C 0.54568 0.79882 0.93092 0.0
O207 O 0.51955 0.77611 0.96436 0.0
O208 O 0.52296 0.76613 0.89919 0.0
C209 C 0.43648 0.73709 0.05576 0.0
O210 O 0.47485 0.80032 0.04325 0.0
C211 C 0.38683 0.79754 0.82599 0.0
C212 C 0.38959 0.7372 0.76816 0.0
C213 C 0.3632 0.80547 0.78742 0.0
N214 N 0.42347 0.72702 0.83017 0.0
N215 N 0.42692 0.69155 0.7953 0.0
C216 C 0.36951 0.85485 0.85895 0.0
H217 H 0.30444 0.85801 0.86421 0.0
H218 H 0.38997 0.91507 0.85014 0.0
H219 H 0.39873 0.83763 0.88694 0.0
C220 C 0.26772 0.73173 0.95308 0.0
N221 N 0.34334 0.71124 0.9445 0.0
N222 N 0.34666 0.69274 0.9068 0.0
C223 C 0.27336 0.69374 0.89094 0.0
C224 C 0.22154 0.72239 0.91901 0.0
C225 C 0.24012 0.76052 0.99271 0.0
H226 H 0.28706 0.75335 1.01534 0.0
H227 H 0.22454 0.82456 0.99064 0.0
H228 H 0.18582 0.72761 1.00181 0.0
O229 O 0.47909 0.58229 0.95424 0.0
O230 O 0.48333 0.58103 0.88781 0.0
H231 H 0.3023 0.6305 0.83713 0.0
H232 H 0.19925 0.6269 0.85122 0.0
C233 C 0.25283 0.66547 0.85006 0.0
H234 H 0.23831 0.71704 0.83088 0.0
H235 H 0.45009 0.63472 0.79055 0.0
O236 O 0.41564 0.68357 0.03115 0.0
C237 C 0.49218 0.54654 0.92123 0.0
Co238 Co 0.3187 0.43858 0.4731 0.0
Co239 Co 0.32086 0.4445 0.38118 0.0
C240 C 0.21057 0.5457 0.43092 0.0
O241 O 0.23329 0.51957 0.46436 0.0
O242 O 0.24326 0.52298 0.39919 0.0
C243 C 0.2723 0.4365 0.55576 0.0
O244 O 0.20907 0.47487 0.54325 0.0
C245 C 0.21186 0.38685 0.32599 0.0
C246 C 0.27221 0.3896 0.26816 0.0
C247 C 0.20393 0.36322 0.28741 0.0
N248 N 0.28238 0.42349 0.33017 0.0
N249 N 0.31785 0.42694 0.2953 0.0
C250 C 0.15454 0.36953 0.35895 0.0
H251 H 0.15138 0.30446 0.3642 0.0
H252 H 0.09432 0.38998 0.35013 0.0
H253 H 0.17177 0.39876 0.38694 0.0
C254 C 0.27767 0.26774 0.45308 0.0
N255 N 0.29815 0.34336 0.4445 0.0
N256 N 0.31666 0.34668 0.40679 0.0
C257 C 0.31566 0.27338 0.39094 0.0
C258 C 0.287 0.22156 0.41901 0.0
C259 C 0.24888 0.24014 0.49271 0.0
H260 H 0.25605 0.28709 0.51533 0.0
H261 H 0.18485 0.22456 0.49064 0.0
H262 H 0.2818 0.18584 0.50181 0.0
O263 O 0.42711 0.47911 0.45424 0.0
O264 O 0.42837 0.48335 0.38781 0.0
H265 H 0.3789 0.30232 0.33712 0.0
H266 H 0.3825 0.19928 0.35122 0.0
C267 C 0.34393 0.25285 0.35006 0.0
H268 H 0.29236 0.23833 0.33088 0.0
H269 H 0.37468 0.4501 0.29055 0.0
O270 O 0.32582 0.41566 0.53114 0.0
C271 C 0.46286 0.4922 0.42123 0.0
Co272 Co 0.99767 0.78342 0.88359 0.0
Co273 Co 0.84188 0.86846 0.89534 0.0
C274 C 0.9254 0.78529 0.96125 0.0
O275 O 0.9654 0.74501 0.93682 0.0
O276 O 0.88085 0.84073 0.94924 0.0
C277 C 0.14037 0.75055 0.91192 0.0
O278 O 0.10932 0.80163 0.93693 0.0
C279 C 0.69023 0.83346 0.92829 0.0
C280 C 0.60908 0.92446 0.9048 0.0
C281 C 0.61124 0.85574 0.92776 0.0
N282 N 0.73291 0.88645 0.90734 0.0
N283 N 0.68449 0.94235 0.89423 0.0
C284 C 0.72243 0.75506 0.94229 0.0
H285 H 0.77295 0.73587 0.92344 0.0
H286 H 0.67603 0.70808 0.94221 0.0
H287 H 0.74405 0.76197 0.97313 0.0
C288 C 0.91161 0.709 0.81263 0.0
N289 N 0.91788 0.75474 0.84563 0.0
N290 N 0.84836 0.78715 0.85335 0.0
C291 C 0.79505 0.76107 0.82613 0.0
C292 C 0.83302 0.71145 0.79858 0.0
C293 C 0.9808 0.66779 0.79378 0.0
H294 H 0.03682 0.70012 0.80052 0.0
H295 H 0.98588 0.60688 0.80622 0.0
H296 H 0.9725 0.66317 0.76123 0.0
O297 O 0.0219 0.9015 0.88215 0.0
O298 O 0.90633 0.96579 0.88151 0.0
H299 H 0.69884 0.84478 0.82517 0.0
H300 H 0.67364 0.74801 0.80473 0.0
C301 C 0.70792 0.77963 0.82792 0.0
H302 H 0.68411 0.76042 0.85692 0.0
H303 H 0.70211 0.98906 0.87588 0.0
O304 O 0.10208 0.73247 0.88046 0.0
C305 C 0.98256 0.9663 0.88012 0.0
Co306 Co 0.22599 0.99768 0.38359 0.0
Co307 Co 0.14094 0.8419 0.39534 0.0
C308 C 0.22412 0.92542 0.46125 0.0
O309 O 0.26439 0.96542 0.43682 0.0
O310 O 0.16868 0.88087 0.44924 0.0
C311 C 0.25885 0.14039 0.41192 0.0
O312 O 0.20777 0.10934 0.43693 0.0
C313 C 0.17594 0.69025 0.42829 0.0
C314 C 0.08493 0.60911 0.40479 0.0
C315 C 0.15366 0.61126 0.42775 0.0
N316 N 0.12295 0.73293 0.40734 0.0
N317 N 0.06705 0.68451 0.39423 0.0
C318 C 0.25434 0.72244 0.4423 0.0
H319 H 0.27353 0.77296 0.42344 0.0
H320 H 0.30132 0.67604 0.44221 0.0
H321 H 0.24743 0.74407 0.47314 0.0
C322 C 0.3004 0.91163 0.31263 0.0
N323 N 0.25467 0.9179 0.34563 0.0
N324 N 0.22226 0.84838 0.35336 0.0
C325 C 0.24834 0.79507 0.32613 0.0
C326 C 0.29795 0.83304 0.29858 0.0
C327 C 0.34161 0.98082 0.29379 0.0
H328 H 0.30928 0.03684 0.30052 0.0
H329 H 0.40252 0.98589 0.30622 0.0
H330 H 0.34623 0.97252 0.26123 0.0
O331 O 0.10791 0.02192 0.38215 0.0
O332 O 0.04362 0.90635 0.38151 0.0
H333 H 0.16463 0.69886 0.32517 0.0
H334 H 0.2614 0.67366 0.30474 0.0
C335 C 0.22977 0.70794 0.32793 0.0
H336 H 0.24898 0.68413 0.35693 0.0
H337 H 0.02034 0.70214 0.37588 0.0
O338 O 0.27694 0.1021 0.38046 0.0
C339 C 0.0431 0.98258 0.38012 0.0
Co340 Co 0.01172 0.226 0.88359 0.0
Co341 Co 0.1675 0.14096 0.89533 0.0
C342 C 0.08398 0.22413 0.96125 0.0
O343 O 0.04399 0.26441 0.93682 0.0
O344 O 0.12853 0.16869 0.94924 0.0
C345 C 0.86902 0.25887 0.91192 0.0
O346 O 0.90006 0.20779 0.93693 0.0
C347 C 0.31915 0.17596 0.92829 0.0
C348 C 0.4003 0.08496 0.9048 0.0
C349 C 0.39815 0.15368 0.92776 0.0
N350 N 0.27648 0.12297 0.90734 0.0
N351 N 0.3249 0.06707 0.89423 0.0
C352 C 0.28696 0.25436 0.94229 0.0
H353 H 0.23643 0.27355 0.92344 0.0
H354 H 0.33335 0.30134 0.94221 0.0
H355 H 0.26533 0.24745 0.97313 0.0
C356 C 0.09777 0.30042 0.81263 0.0
N357 N 0.0915 0.25468 0.84563 0.0
N358 N 0.16103 0.22227 0.85335 0.0
C359 C 0.21433 0.24835 0.82613 0.0
C360 C 0.17636 0.29797 0.79858 0.0
C361 C 0.02858 0.34163 0.79378 0.0
H362 H 0.97256 0.3093 0.80052 0.0
H363 H 0.02351 0.40254 0.80622 0.0
H364 H 0.03688 0.34625 0.76123 0.0
O365 O 0.98748 0.10792 0.88215 0.0
O366 O 0.10305 0.04363 0.88151 0.0
H367 H 0.31055 0.16464 0.82517 0.0
H368 H 0.33575 0.26141 0.80473 0.0
C369 C 0.30147 0.22979 0.82792 0.0
H370 H 0.32528 0.249 0.85692 0.0
H371 H 0.30728 0.02036 0.87588 0.0
O372 O 0.9073 0.27696 0.88046 0.0
C373 C 0.02682 0.04312 0.88011 0.0
Co374 Co 0.78339 0.01174 0.38359 0.0
Co375 Co 0.86844 0.16752 0.39534 0.0
C376 C 0.78527 0.084 0.46125 0.0
O377 O 0.74499 0.044 0.43682 0.0
O378 O 0.84071 0.12855 0.44924 0.0
C379 C 0.75053 0.86903 0.41192 0.0
O380 O 0.80161 0.90008 0.43693 0.0
C381 C 0.83344 0.31917 0.42829 0.0
C382 C 0.92445 0.40031 0.40479 0.0
C383 C 0.85572 0.39816 0.42775 0.0
N384 N 0.88643 0.27649 0.40734 0.0
N385 N 0.94233 0.32491 0.39423 0.0
C386 C 0.75505 0.28698 0.4423 0.0
H387 H 0.73585 0.23646 0.42344 0.0
H388 H 0.70806 0.33338 0.44221 0.0
H389 H 0.76195 0.26535 0.47314 0.0
C390 C 0.70898 0.09779 0.31263 0.0
N391 N 0.75472 0.09152 0.34563 0.0
N392 N 0.78713 0.16104 0.35336 0.0
C393 C 0.76105 0.21435 0.32613 0.0
C394 C 0.71143 0.17638 0.29858 0.0
C395 C 0.66777 0.0286 0.29379 0.0
H396 H 0.7001 0.97258 0.30052 0.0
H397 H 0.60686 0.02353 0.30622 0.0
H398 H 0.66315 0.0369 0.26123 0.0
O399 O 0.90148 0.9875 0.38215 0.0
O400 O 0.96577 0.10307 0.38151 0.0
H401 H 0.84476 0.31056 0.32517 0.0
H402 H 0.74799 0.33576 0.30474 0.0
C403 C 0.77961 0.30148 0.32793 0.0
H404 H 0.7604 0.32529 0.35693 0.0
H405 H 0.98905 0.30728 0.37588 0.0
O406 O 0.73244 0.90732 0.38046 0.0
C407 C 0.96628 0.02684 0.38012 0.0
Co408 Co 0.49768 0.726 0.17608 0.0
Co409 Co 0.3419 0.64097 0.16433 0.0
C410 C 0.42543 0.72413 0.09841 0.0
O411 O 0.46543 0.76441 0.12285 0.0
O412 O 0.38088 0.6687 0.11043 0.0
C413 C 0.64039 0.75884 0.14776 0.0
O414 O 0.60935 0.70777 0.12275 0.0
C415 C 0.19026 0.67599 0.13138 0.0
C416 C 0.10912 0.58494 0.15482 0.0
C417 C 0.11127 0.65369 0.13188 0.0
N418 N 0.23293 0.62299 0.15232 0.0
N419 N 0.18451 0.56706 0.16541 0.0
C420 C 0.22246 0.7544 0.11739 0.0
H421 H 0.273 0.77356 0.13625 0.0
H422 H 0.17606 0.80139 0.1175 0.0
H423 H 0.24406 0.74754 0.08655 0.0
C424 C 0.41165 0.80039 0.24705 0.0
N425 N 0.41791 0.75468 0.21403 0.0
N426 N 0.34838 0.72227 0.20632 0.0
C427 C 0.29509 0.74833 0.23356 0.0
C428 C 0.33308 0.7979 0.26111 0.0
C429 C 0.48085 0.84159 0.26589 0.0
H430 H 0.53687 0.80925 0.25915 0.0
H431 H 0.48594 0.9025 0.25345 0.0
H432 H 0.47256 0.84621 0.29845 0.0
O433 O 0.52191 0.60792 0.17751 0.0
O434 O 0.40633 0.54364 0.17816 0.0
H435 H 0.19887 0.66462 0.23452 0.0
H436 H 0.17368 0.76139 0.25495 0.0
C437 C 0.20795 0.72977 0.23176 0.0
H438 H 0.18413 0.74897 0.20276 0.0
H439 H 0.20213 0.52032 0.18374 0.0
O440 O 0.6021 0.77694 0.17921 0.0
C441 C 0.48256 0.54312 0.17955 0.0
Co442 Co 0.28339 0.4977 0.67607 0.0
Co443 Co 0.36843 0.34192 0.66433 0.0
C444 C 0.28526 0.42545 0.59841 0.0
O445 O 0.24498 0.46545 0.62284 0.0
O446 O 0.3407 0.38089 0.61042 0.0
C447 C 0.25056 0.64041 0.64776 0.0
O448 O 0.30163 0.60937 0.62275 0.0
C449 C 0.33341 0.19028 0.63138 0.0
C450 C 0.42446 0.10914 0.65483 0.0
C451 C 0.35571 0.11129 0.63189 0.0
N452 N 0.38642 0.23295 0.65232 0.0
N453 N 0.44235 0.18454 0.66541 0.0
C454 C 0.255 0.22247 0.61739 0.0
H455 H 0.23583 0.27301 0.63624 0.0
H456 H 0.20802 0.17608 0.6175 0.0
H457 H 0.26187 0.24408 0.58654 0.0
C458 C 0.20901 0.41167 0.74705 0.0
N459 N 0.25472 0.41793 0.71403 0.0
N460 N 0.28713 0.3484 0.70631 0.0
C461 C 0.26107 0.29511 0.73355 0.0
C462 C 0.21151 0.3331 0.76111 0.0
C463 C 0.16781 0.48087 0.76589 0.0
H464 H 0.20015 0.53688 0.75915 0.0
H465 H 0.1069 0.48595 0.75345 0.0
H466 H 0.16319 0.47258 0.79844 0.0
O467 O 0.40148 0.52193 0.67751 0.0
O468 O 0.46576 0.40635 0.67815 0.0
H469 H 0.34478 0.1989 0.73451 0.0
H470 H 0.24801 0.1737 0.75495 0.0
C471 C 0.27963 0.20797 0.73176 0.0
H472 H 0.26043 0.18416 0.70276 0.0
H473 H 0.48908 0.20216 0.68374 0.0
O474 O 0.23246 0.60212 0.67921 0.0
C475 C 0.46628 0.48258 0.67954 0.0
Co476 Co 0.5117 0.28342 0.17608 0.0
Co477 Co 0.66748 0.36845 0.16433 0.0
C478 C 0.58395 0.28529 0.09841 0.0
O479 O 0.54395 0.24501 0.12285 0.0
O480 O 0.62851 0.34072 0.11043 0.0
C481 C 0.36899 0.25058 0.14776 0.0
O482 O 0.40004 0.30165 0.12275 0.0
C483 C 0.81912 0.33343 0.13138 0.0
C484 C 0.90027 0.42448 0.15482 0.0
C485 C 0.89811 0.35573 0.13188 0.0
N486 N 0.77645 0.38643 0.15232 0.0
N487 N 0.82487 0.44236 0.16541 0.0
C488 C 0.78693 0.25502 0.11739 0.0
H489 H 0.73639 0.23586 0.13625 0.0
H490 H 0.83332 0.20803 0.1175 0.0
H491 H 0.76532 0.26188 0.08655 0.0
C492 C 0.59773 0.20903 0.24705 0.0
N493 N 0.59148 0.25474 0.21403 0.0
N494 N 0.661 0.28715 0.20632 0.0
C495 C 0.7143 0.26109 0.23356 0.0
C496 C 0.67631 0.21153 0.26111 0.0
C497 C 0.52853 0.16783 0.26589 0.0
H498 H 0.47252 0.20017 0.25915 0.0
H499 H 0.52345 0.10692 0.25345 0.0
H500 H 0.53682 0.16321 0.29845 0.0
O501 O 0.48748 0.4015 0.17751 0.0
O502 O 0.60305 0.46578 0.17816 0.0
H503 H 0.81051 0.3448 0.23452 0.0
H504 H 0.83571 0.24803 0.25495 0.0
C505 C 0.80143 0.27965 0.23176 0.0
H506 H 0.82525 0.26045 0.20276 0.0
H507 H 0.80726 0.4891 0.18374 0.0
O508 O 0.40728 0.23248 0.17921 0.0
C509 C 0.52682 0.4663 0.17955 0.0
Co510 Co 0.72599 0.51172 0.67607 0.0
Co511 Co 0.64095 0.6675 0.66433 0.0
C512 C 0.72412 0.58397 0.59841 0.0
O513 O 0.7644 0.54397 0.62284 0.0
O514 O 0.66869 0.62853 0.61043 0.0
C515 C 0.75883 0.36901 0.64776 0.0
O516 O 0.70775 0.40006 0.62275 0.0
C517 C 0.67597 0.81914 0.63138 0.0
C518 C 0.58492 0.90028 0.65483 0.0
C519 C 0.65367 0.89813 0.63189 0.0
N520 N 0.62297 0.77647 0.65232 0.0
N521 N 0.56704 0.82489 0.66541 0.0
C522 C 0.75438 0.78695 0.61739 0.0
H523 H 0.77355 0.73641 0.63624 0.0
H524 H 0.80137 0.83334 0.6175 0.0
H525 H 0.74751 0.76534 0.58655 0.0
C526 C 0.80037 0.59775 0.74705 0.0
N527 N 0.75466 0.5915 0.71403 0.0
N528 N 0.72226 0.66102 0.70631 0.0
C529 C 0.74831 0.71431 0.73355 0.0
C530 C 0.79788 0.67632 0.76111 0.0
C531 C 0.84157 0.52855 0.76589 0.0
H532 H 0.80924 0.47254 0.75915 0.0
H533 H 0.90248 0.52347 0.75345 0.0
H534 H 0.84619 0.53685 0.79844 0.0
O535 O 0.6079 0.4875 0.67751 0.0
O536 O 0.54362 0.60307 0.67815 0.0
H537 H 0.6646 0.81053 0.73451 0.0
H538 H 0.76137 0.83572 0.75495 0.0
C539 C 0.72975 0.80145 0.73176 0.0
H540 H 0.74895 0.82526 0.70276 0.0
H541 H 0.5203 0.80726 0.68374 0.0
O542 O 0.77692 0.4073 0.67921 0.0
C543 C 0.54311 0.52684 0.67955 0.0
loop_
_geom_bond_atom_site_label_1
_geom_bond_atom_site_label_2
_geom_bond_distance
_geom_bond_site_symmetry_2
_ccdc_geom_bond_type
Co0 O3 1.970 1_455 S
Co0 N17 1.989 . S
Co0 O25 1.967 . S
Co0 O32 1.938 . S
Co1 O4 1.966 1_455 S
Co1 N10 2.022 . S
Co1 N18 1.993 . S
Co1 O26 1.941 . S
C2 O3 1.258 . S
C2 O4 1.263 . S
O3 Co0 1.970 1_655 S
O3 C2 1.258 . S
O4 Co1 1.966 1_655 S
O4 C2 1.263 . S
C5 O6 1.235 . S
C5 O32 1.278 1_556 S
O6 C5 1.235 . S
C7 C9 1.400 . S
C7 N10 1.351 . S
C7 C12 1.501 . S
C8 C9 1.387 . S
C8 N11 1.341 . S
C9 C7 1.400 . S
C9 C8 1.387 . S
N10 Co1 2.022 . S
N10 C7 1.351 . S
N10 N11 1.365 . S
N11 C8 1.341 . S
N11 N10 1.365 . S
N11 H31 0.862 . S
C12 C7 1.501 . S
C12 H13 0.961 1_455 S
C12 H14 0.961 . S
C12 H15 0.960 1_455 S
H13 C12 0.961 1_655 S
H14 C12 0.961 . S
H15 C12 0.960 1_655 S
C16 N17 1.342 . S
C16 C20 1.401 . S
C16 C21 1.499 . S
N17 Co0 1.989 . S
N17 C16 1.342 . S
N17 N18 1.388 . S
N18 Co1 1.993 . S
N18 N17 1.388 . S
N18 C19 1.346 . S
C19 N18 1.346 . S
C19 C20 1.396 . S
C19 C29 1.510 . S
C20 C16 1.401 . S
C20 C19 1.396 . S
C21 C16 1.499 . S
C21 H22 0.959 . S
C21 H23 0.960 . S
C21 H24 0.961 . S
H22 C21 0.959 . S
H23 C21 0.960 . S
H24 C21 0.961 . S
O25 Co0 1.967 . S
O25 C33 1.258 . S
O26 Co1 1.941 . S
O26 C33 1.266 . S
H27 C29 0.959 . S
H28 C29 0.961 . S
C29 C19 1.510 . S
C29 H27 0.959 . S
C29 H28 0.961 . S
C29 H30 0.960 . S
H30 C29 0.960 . S
H31 N11 0.862 . S
O32 Co0 1.938 . S
O32 C5 1.278 1_554 S
C33 O25 1.258 . S
C33 O26 1.266 . S
Co34 O37 1.970 1_545 S
Co34 N51 1.989 . S
Co34 O59 1.967 . S
Co34 O66 1.920 . S
Co35 O38 1.966 1_545 S
Co35 N44 2.022 . S
Co35 N52 1.993 . S
Co35 O60 1.941 . S
C36 O37 1.258 . S
C36 O38 1.263 . S
O37 Co34 1.970 1_565 S
O37 C36 1.258 . S
O38 Co35 1.966 1_565 S
O38 C36 1.263 . S
C39 O40 1.235 . S
C39 O66 1.289 . S
O40 C39 1.235 . S
C41 C43 1.400 . S
C41 N44 1.351 . S
C41 C46 1.501 . S
C42 C43 1.387 . S
C42 N45 1.341 . S
C43 C41 1.400 . S
C43 C42 1.387 . S
N44 Co35 2.022 . S
N44 C41 1.351 . S
N44 N45 1.365 . S
N45 C42 1.341 . S
N45 N44 1.365 . S
N45 H65 0.862 . S
C46 C41 1.501 . S
C46 H47 0.961 1_545 S
C46 H48 0.961 . S
C46 H49 0.960 1_545 S
H47 C46 0.961 1_565 S
H48 C46 0.961 . S
H49 C46 0.960 1_565 S
C50 N51 1.342 . S
C50 C54 1.401 . S
C50 C55 1.499 . S
N51 Co34 1.989 . S
N51 C50 1.342 . S
N51 N52 1.388 . S
N52 Co35 1.993 . S
N52 N51 1.388 . S
N52 C53 1.346 . S
C53 N52 1.346 . S
C53 C54 1.396 . S
C53 C63 1.510 . S
C54 C50 1.401 . S
C54 C53 1.396 . S
C55 C50 1.499 . S
C55 H56 0.959 . S
C55 H57 0.960 . S
C55 H58 0.961 . S
H56 C55 0.959 . S
H57 C55 0.960 . S
H58 C55 0.961 . S
O59 Co34 1.967 . S
O59 C67 1.258 . S
O60 Co35 1.941 . S
O60 C67 1.266 . S
H61 C63 0.959 . S
H62 C63 0.961 . S
C63 C53 1.510 . S
C63 H61 0.959 . S
C63 H62 0.961 . S
C63 H64 0.960 . S
H64 C63 0.960 . S
H65 N45 0.862 . S
O66 Co34 1.920 . S
O66 C39 1.289 . S
C67 O59 1.258 . S
C67 O60 1.266 . S
Co68 O71 1.970 1_655 S
Co68 N85 1.989 . S
Co68 O93 1.967 . S
Co68 O100 1.938 . S
Co69 O72 1.966 1_655 S
Co69 N78 2.022 . S
Co69 N86 1.993 . S
Co69 O94 1.941 . S
C70 O71 1.258 . S
C70 O72 1.263 . S
O71 Co68 1.970 1_455 S
O71 C70 1.258 . S
O72 Co69 1.966 1_455 S
O72 C70 1.263 . S
C73 O74 1.235 . S
C73 O100 1.278 1_556 S
O74 C73 1.235 . S
C75 C77 1.400 . S
C75 N78 1.351 . S
C75 C80 1.501 . S
C76 C77 1.387 . S
C76 N79 1.341 . S
C77 C75 1.400 . S
C77 C76 1.387 . S
N78 Co69 2.022 . S
N78 C75 1.351 . S
N78 N79 1.365 . S
N79 C76 1.341 . S
N79 N78 1.365 . S
N79 H99 0.862 . S
C80 C75 1.501 . S
C80 H81 0.961 1_655 S
C80 H82 0.961 . S
C80 H83 0.960 1_655 S
H81 C80 0.961 1_455 S
H82 C80 0.961 . S
H83 C80 0.960 1_455 S
C84 N85 1.342 . S
C84 C88 1.401 . S
C84 C89 1.499 . S
N85 Co68 1.989 . S
N85 C84 1.342 . S
N85 N86 1.388 . S
N86 Co69 1.993 . S
N86 N85 1.388 . S
N86 C87 1.346 . S
C87 N86 1.346 . S
C87 C88 1.396 . S
C87 C97 1.510 . S
C88 C84 1.401 . S
C88 C87 1.396 . S
C89 C84 1.499 . S
C89 H90 0.959 . S
C89 H91 0.960 . S
C89 H92 0.961 . S
H90 C89 0.959 . S
H91 C89 0.960 . S
H92 C89 0.961 . S
O93 Co68 1.967 . S
O93 C101 1.258 . S
O94 Co69 1.941 . S
O94 C101 1.266 . S
H95 C97 0.959 . S
H96 C97 0.961 . S
C97 C87 1.510 . S
C97 H95 0.959 . S
C97 H96 0.961 . S
C97 H98 0.960 . S
H98 C97 0.960 . S
H99 N79 0.862 . S
O100 Co68 1.938 . S
O100 C73 1.278 1_554 S
C101 O93 1.258 . S
C101 O94 1.266 . S
Co102 O105 1.970 1_565 S
Co102 N119 1.989 . S
Co102 O127 1.967 . S
Co102 O134 1.920 . S
Co103 O106 1.966 1_565 S
Co103 N112 2.022 . S
Co103 N120 1.993 . S
Co103 O128 1.941 . S
C104 O105 1.258 . S
C104 O106 1.263 . S
O105 Co102 1.970 1_545 S
O105 C104 1.258 . S
O106 Co103 1.966 1_545 S
O106 C104 1.263 . S
C107 O108 1.235 . S
C107 O134 1.289 . S
O108 C107 1.235 . S
C109 C111 1.400 . S
C109 N112 1.351 . S
C109 C114 1.501 . S
C110 C111 1.387 . S
C110 N113 1.341 . S
C111 C109 1.400 . S
C111 C110 1.387 . S
N112 Co103 2.022 . S
N112 C109 1.351 . S
N112 N113 1.365 . S
N113 C110 1.341 . S
N113 N112 1.365 . S
N113 H133 0.862 . S
C114 C109 1.501 . S
C114 H115 0.961 1_565 S
C114 H116 0.961 . S
C114 H117 0.960 1_565 S
H115 C114 0.961 1_545 S
H116 C114 0.961 . S
H117 C114 0.960 1_545 S
C118 N119 1.342 . S
C118 C122 1.401 . S
C118 C123 1.499 . S
N119 Co102 1.989 . S
N119 C118 1.342 . S
N119 N120 1.388 . S
N120 Co103 1.993 . S
N120 N119 1.388 . S
N120 C121 1.346 . S
C121 N120 1.346 . S
C121 C122 1.396 . S
C121 C131 1.510 . S
C122 C118 1.401 . S
C122 C121 1.396 . S
C123 C118 1.499 . S
C123 H124 0.959 . S
C123 H125 0.960 . S
C123 H126 0.961 . S
H124 C123 0.959 . S
H125 C123 0.960 . S
H126 C123 0.961 . S
O127 Co102 1.967 . S
O127 C135 1.258 . S
O128 Co103 1.941 . S
O128 C135 1.266 . S
H129 C131 0.959 . S
H130 C131 0.961 . S
C131 C121 1.510 . S
C131 H129 0.959 . S
C131 H130 0.961 . S
C131 H132 0.960 . S
H132 C131 0.960 . S
H133 N113 0.862 . S
O134 Co102 1.920 . S
O134 C107 1.289 . S
C135 O127 1.258 . S
C135 O128 1.266 . S
Co136 O139 1.970 . S
Co136 N153 1.989 . S
Co136 O161 1.967 . S
Co136 O168 1.938 . S
Co137 O140 1.966 . S
Co137 N146 2.022 . S
Co137 N154 1.993 . S
Co137 O162 1.941 . S
C138 O139 1.258 . S
C138 O140 1.263 . S
O139 Co136 1.970 . S
O139 C138 1.258 . S
O140 Co137 1.966 . S
O140 C138 1.263 . S
C141 O142 1.235 . S
C141 O168 1.278 1_554 S
O142 C141 1.235 . S
C143 C145 1.400 . S
C143 N146 1.351 . S
C143 C148 1.501 . S
C144 C145 1.387 . S
C144 N147 1.341 . S
C145 C143 1.400 . S
C145 C144 1.387 . S
N146 Co137 2.022 . S
N146 C143 1.351 . S
N146 N147 1.365 . S
N147 C144 1.341 . S
N147 N146 1.365 . S
N147 H167 0.862 . S
C148 C143 1.501 . S
C148 H149 0.961 . S
C148 H150 0.961 . S
C148 H151 0.960 . S
H149 C148 0.961 . S
H150 C148 0.961 . S
H151 C148 0.960 . S
C152 N153 1.342 . S
C152 C156 1.401 . S
C152 C157 1.499 . S
N153 Co136 1.989 . S
N153 C152 1.342 . S
N153 N154 1.388 . S
N154 Co137 1.993 . S
N154 N153 1.388 . S
N154 C155 1.346 . S
C155 N154 1.346 . S
C155 C156 1.396 . S
C155 C165 1.510 . S
C156 C152 1.401 . S
C156 C155 1.396 . S
C157 C152 1.499 . S
C157 H158 0.959 . S
C157 H159 0.960 . S
C157 H160 0.961 . S
H158 C157 0.959 . S
H159 C157 0.960 . S
H160 C157 0.961 . S
O161 Co136 1.967 . S
O161 C169 1.258 . S
O162 Co137 1.941 . S
O162 C169 1.266 . S
H163 C165 0.959 . S
H164 C165 0.961 . S
C165 C155 1.510 . S
C165 H163 0.959 . S
C165 H164 0.961 . S
C165 H166 0.960 . S
H166 C165 0.960 . S
H167 N147 0.862 . S
O168 Co136 1.938 . S
O168 C141 1.278 1_556 S
C169 O161 1.258 . S
C169 O162 1.266 . S
Co170 O173 1.970 . S
Co170 N187 1.989 . S
Co170 O195 1.967 . S
Co170 O202 1.920 . S
Co171 O174 1.966 . S
Co171 N180 2.022 . S
Co171 N188 1.993 . S
Co171 O196 1.941 . S
C172 O173 1.258 . S
C172 O174 1.263 . S
O173 Co170 1.970 . S
O173 C172 1.258 . S
O174 Co171 1.966 . S
O174 C172 1.263 . S
C175 O176 1.235 . S
C175 O202 1.289 . S
O176 C175 1.235 . S
C177 C179 1.400 . S
C177 N180 1.351 . S
C177 C182 1.501 . S
C178 C179 1.387 . S
C178 N181 1.341 . S
C179 C177 1.400 . S
C179 C178 1.387 . S
N180 Co171 2.022 . S
N180 C177 1.351 . S
N180 N181 1.365 . S
N181 C178 1.341 . S
N181 N180 1.365 . S
N181 H201 0.862 . S
C182 C177 1.501 . S
C182 H183 0.961 . S
C182 H184 0.961 . S
C182 H185 0.960 . S
H183 C182 0.961 . S
H184 C182 0.961 . S
H185 C182 0.960 . S
C186 N187 1.342 . S
C186 C190 1.401 . S
C186 C191 1.499 . S
N187 Co170 1.989 . S
N187 C186 1.342 . S
N187 N188 1.388 . S
N188 Co171 1.993 . S
N188 N187 1.388 . S
N188 C189 1.346 . S
C189 N188 1.346 . S
C189 C190 1.396 . S
C189 C199 1.510 . S
C190 C186 1.401 . S
C190 C189 1.396 . S
C191 C186 1.499 . S
C191 H192 0.959 . S
C191 H193 0.960 . S
C191 H194 0.961 . S
H192 C191 0.959 . S
H193 C191 0.960 . S
H194 C191 0.961 . S
O195 Co170 1.967 . S
O195 C203 1.258 . S
O196 Co171 1.941 . S
O196 C203 1.266 . S
H197 C199 0.959 . S
H198 C199 0.961 . S
C199 C189 1.510 . S
C199 H197 0.959 . S
C199 H198 0.961 . S
C199 H200 0.960 . S
H200 C199 0.960 . S
H201 N181 0.862 . S
O202 Co170 1.920 . S
O202 C175 1.289 . S
C203 O195 1.258 . S
C203 O196 1.266 . S
Co204 O207 1.970 . S
Co204 N221 1.989 . S
Co204 O229 1.967 . S
Co204 O236 1.938 . S
Co205 O208 1.966 . S
Co205 N214 2.022 . S
Co205 N222 1.993 . S
Co205 O230 1.941 . S
C206 O207 1.258 . S
C206 O208 1.263 . S
O207 Co204 1.970 . S
O207 C206 1.258 . S
O208 Co205 1.966 . S
O208 C206 1.263 . S
C209 O210 1.235 . S
C209 O236 1.278 1_554 S
O210 C209 1.235 . S
C211 C213 1.400 . S
C211 N214 1.351 . S
C211 C216 1.501 . S
C212 C213 1.387 . S
C212 N215 1.341 . S
C213 C211 1.400 . S
C213 C212 1.387 . S
N214 Co205 2.022 . S
N214 C211 1.351 . S
N214 N215 1.365 . S
N215 C212 1.341 . S
N215 N214 1.365 . S
N215 H235 0.862 . S
C216 C211 1.501 . S
C216 H217 0.961 . S
C216 H218 0.961 . S
C216 H219 0.960 . S
H217 C216 0.961 . S
H218 C216 0.961 . S
H219 C216 0.960 . S
C220 N221 1.342 . S
C220 C224 1.401 . S
C220 C225 1.499 . S
N221 Co204 1.989 . S
N221 C220 1.342 . S
N221 N222 1.388 . S
N222 Co205 1.993 . S
N222 N221 1.388 . S
N222 C223 1.346 . S
C223 N222 1.346 . S
C223 C224 1.396 . S
C223 C233 1.510 . S
C224 C220 1.401 . S
C224 C223 1.396 . S
C225 C220 1.499 . S
C225 H226 0.959 . S
C225 H227 0.960 . S
C225 H228 0.961 . S
H226 C225 0.959 . S
H227 C225 0.960 . S
H228 C225 0.961 . S
O229 Co204 1.967 . S
O229 C237 1.258 . S
O230 Co205 1.941 . S
O230 C237 1.266 . S
H231 C233 0.959 . S
H232 C233 0.961 . S
C233 C223 1.510 . S
C233 H231 0.959 . S
C233 H232 0.961 . S
C233 H234 0.960 . S
H234 C233 0.960 . S
H235 N215 0.862 . S
O236 Co204 1.938 . S
O236 C209 1.278 1_556 S
C237 O229 1.258 . S
C237 O230 1.266 . S
Co238 O241 1.970 . S
Co238 N255 1.989 . S
Co238 O263 1.967 . S
Co238 O270 1.920 . S
Co239 O242 1.966 . S
Co239 N248 2.022 . S
Co239 N256 1.993 . S
Co239 O264 1.941 . S
C240 O241 1.258 . S
C240 O242 1.263 . S
O241 Co238 1.970 . S
O241 C240 1.258 . S
O242 Co239 1.966 . S
O242 C240 1.263 . S
C243 O244 1.235 . S
C243 O270 1.289 . S
O244 C243 1.235 . S
C245 C247 1.400 . S
C245 N248 1.351 . S
C245 C250 1.501 . S
C246 C247 1.387 . S
C246 N249 1.341 . S
C247 C245 1.400 . S
C247 C246 1.387 . S
N248 Co239 2.022 . S
N248 C245 1.351 . S
N248 N249 1.365 . S
N249 C246 1.341 . S
N249 N248 1.365 . S
N249 H269 0.862 . S
C250 C245 1.501 . S
C250 H251 0.961 . S
C250 H252 0.961 . S
C250 H253 0.960 . S
H251 C250 0.961 . S
H252 C250 0.961 . S
H253 C250 0.960 . S
C254 N255 1.342 . S
C254 C258 1.401 . S
C254 C259 1.499 . S
N255 Co238 1.989 . S
N255 C254 1.342 . S
N255 N256 1.388 . S
N256 Co239 1.993 . S
N256 N255 1.388 . S
N256 C257 1.346 . S
C257 N256 1.346 . S
C257 C258 1.396 . S
C257 C267 1.510 . S
C258 C254 1.401 . S
C258 C257 1.396 . S
C259 C254 1.499 . S
C259 H260 0.959 . S
C259 H261 0.960 . S
C259 H262 0.961 . S
H260 C259 0.959 . S
H261 C259 0.960 . S
H262 C259 0.961 . S
O263 Co238 1.967 . S
O263 C271 1.258 . S
O264 Co239 1.941 . S
O264 C271 1.266 . S
H265 C267 0.959 . S
H266 C267 0.961 . S
C267 C257 1.510 . S
C267 H265 0.959 . S
C267 H266 0.961 . S
C267 H268 0.960 . S
H268 C267 0.960 . S
H269 N249 0.862 . S
O270 Co238 1.920 . S
O270 C243 1.289 . S
C271 O263 1.258 . S
C271 O264 1.266 . S
Co272 O275 1.973 . S
Co272 N289 1.989 1_455 S
Co272 O297 1.967 . S
Co272 O304 1.920 . S
Co273 O276 1.966 . S
Co273 N282 2.022 . S
Co273 N290 1.993 . S
Co273 O298 1.941 . S
C274 O275 1.250 1_655 S
C274 O276 1.263 . S
O275 Co272 1.973 . S
O275 C274 1.250 1_455 S
O276 Co273 1.966 . S
O276 C274 1.263 . S
C277 O278 1.235 . S
C277 O304 1.289 . S
O278 C277 1.235 . S
C279 C281 1.400 . S
C279 N282 1.351 . S
C279 C284 1.501 . S
C280 C281 1.387 . S
C280 N283 1.341 . S
C281 C279 1.400 . S
C281 C280 1.387 . S
N282 Co273 2.022 . S
N282 C279 1.351 . S
N282 N283 1.365 . S
N283 C280 1.341 . S
N283 N282 1.365 . S
N283 H303 0.862 . S
C284 C279 1.501 . S
C284 H285 0.961 . S
C284 H286 0.961 . S
C284 H287 0.960 . S
H285 C284 0.961 . S
H286 C284 0.961 . S
H287 C284 0.960 . S
C288 N289 1.342 . S
C288 C292 1.401 . S
C288 C293 1.499 1_655 S
N289 Co272 1.989 1_655 S
N289 C288 1.342 . S
N289 N290 1.388 . S
N290 Co273 1.993 . S
N290 N289 1.388 . S
N290 C291 1.346 . S
C291 N290 1.346 . S
C291 C292 1.396 . S
C291 C301 1.510 . S
C292 C288 1.401 . S
C292 C291 1.396 . S
C293 C288 1.499 1_455 S
C293 H294 0.959 . S
C293 H295 0.960 . S
C293 H296 0.961 . S
H294 C293 0.959 . S
H295 C293 0.960 . S
H296 C293 0.961 . S
O297 Co272 1.967 . S
O297 C305 1.258 1_455 S
O298 Co273 1.941 . S
O298 C305 1.266 . S
H299 C301 0.959 . S
H300 C301 0.961 . S
C301 C291 1.510 . S
C301 H299 0.959 . S
C301 H300 0.961 . S
C301 H302 0.960 . S
H302 C301 0.960 . S
H303 N283 0.862 . S
O304 Co272 1.920 . S
O304 C277 1.289 . S
C305 O297 1.258 1_655 S
C305 O298 1.266 . S
Co306 O309 1.973 . S
Co306 N323 1.989 1_545 S
Co306 O331 1.967 . S
Co306 O338 1.920 . S
Co307 O310 1.966 . S
Co307 N316 2.022 . S
Co307 N324 1.993 . S
Co307 O332 1.941 . S
C308 O309 1.250 1_565 S
C308 O310 1.263 . S
O309 Co306 1.973 . S
O309 C308 1.250 1_545 S
O310 Co307 1.966 . S
O310 C308 1.263 . S
C311 O312 1.235 . S
C311 O338 1.289 . S
O312 C311 1.235 . S
C313 C315 1.400 . S
C313 N316 1.351 . S
C313 C318 1.501 . S
C314 C315 1.387 . S
C314 N317 1.341 . S
C315 C313 1.400 . S
C315 C314 1.387 . S
N316 Co307 2.022 . S
N316 C313 1.351 . S
N316 N317 1.365 . S
N317 C314 1.341 . S
N317 N316 1.365 . S
N317 H337 0.862 . S
C318 C313 1.501 . S
C318 H319 0.961 . S
C318 H320 0.961 . S
C318 H321 0.960 . S
H319 C318 0.961 . S
H320 C318 0.961 . S
H321 C318 0.960 . S
C322 N323 1.342 . S
C322 C326 1.401 . S
C322 C327 1.499 1_565 S
N323 Co306 1.989 1_565 S
N323 C322 1.342 . S
N323 N324 1.388 . S
N324 Co307 1.993 . S
N324 N323 1.388 . S
N324 C325 1.346 . S
C325 N324 1.346 . S
C325 C326 1.396 . S
C325 C335 1.510 . S
C326 C322 1.401 . S
C326 C325 1.396 . S
C327 C322 1.499 1_545 S
C327 H328 0.959 . S
C327 H329 0.960 . S
C327 H330 0.961 . S
H328 C327 0.959 . S
H329 C327 0.960 . S
H330 C327 0.961 . S
O331 Co306 1.967 . S
O331 C339 1.258 1_545 S
O332 Co307 1.941 . S
O332 C339 1.266 . S
H333 C335 0.959 . S
H334 C335 0.961 . S
C335 C325 1.510 . S
C335 H333 0.959 . S
C335 H334 0.961 . S
C335 H336 0.960 . S
H336 C335 0.960 . S
H337 N317 0.862 . S
O338 Co306 1.920 . S
O338 C311 1.289 . S
C339 O331 1.258 1_565 S
C339 O332 1.266 . S
Co340 O343 1.973 . S
Co340 N357 1.989 1_655 S
Co340 O365 1.967 . S
Co340 O372 1.920 . S
Co341 O344 1.966 . S
Co341 N350 2.022 . S
Co341 N358 1.993 . S
Co341 O366 1.941 . S
C342 O343 1.250 1_455 S
C342 O344 1.263 . S
O343 Co340 1.973 . S
O343 C342 1.250 1_655 S
O344 Co341 1.966 . S
O344 C342 1.263 . S
C345 O346 1.235 . S
C345 O372 1.289 . S
O346 C345 1.235 . S
C347 C349 1.400 . S
C347 N350 1.351 . S
C347 C352 1.501 . S
C348 C349 1.387 . S
C348 N351 1.341 . S
C349 C347 1.400 . S
C349 C348 1.387 . S
N350 Co341 2.022 . S
N350 C347 1.351 . S
N350 N351 1.365 . S
N351 C348 1.341 . S
N351 N350 1.365 . S
N351 H371 0.862 . S
C352 C347 1.501 . S
C352 H353 0.961 . S
C352 H354 0.961 . S
C352 H355 0.960 . S
H353 C352 0.961 . S
H354 C352 0.961 . S
H355 C352 0.960 . S
C356 N357 1.342 . S
C356 C360 1.401 . S
C356 C361 1.499 1_455 S
N357 Co340 1.989 1_455 S
N357 C356 1.342 . S
N357 N358 1.388 . S
N358 Co341 1.993 . S
N358 N357 1.388 . S
N358 C359 1.346 . S
C359 N358 1.346 . S
C359 C360 1.396 . S
C359 C369 1.510 . S
C360 C356 1.401 . S
C360 C359 1.396 . S
C361 C356 1.499 1_655 S
C361 H362 0.959 . S
C361 H363 0.960 . S
C361 H364 0.961 . S
H362 C361 0.959 . S
H363 C361 0.960 . S
H364 C361 0.961 . S
O365 Co340 1.967 . S
O365 C373 1.258 1_655 S
O366 Co341 1.941 . S
O366 C373 1.266 . S
H367 C369 0.959 . S
H368 C369 0.961 . S
C369 C359 1.510 . S
C369 H367 0.959 . S
C369 H368 0.961 . S
C369 H370 0.960 . S
H370 C369 0.960 . S
H371 N351 0.862 . S
O372 Co340 1.920 . S
O372 C345 1.289 . S
C373 O365 1.258 1_455 S
C373 O366 1.266 . S
Co374 O377 1.973 . S
Co374 N391 1.989 1_565 S
Co374 O399 1.967 . S
Co374 O406 1.920 . S
Co375 O378 1.966 . S
Co375 N384 2.022 . S
Co375 N392 1.993 . S
Co375 O400 1.941 . S
C376 O377 1.250 1_545 S
C376 O378 1.263 . S
O377 Co374 1.973 . S
O377 C376 1.250 1_565 S
O378 Co375 1.966 . S
O378 C376 1.263 . S
C379 O380 1.235 . S
C379 O406 1.289 . S
O380 C379 1.235 . S
C381 C383 1.400 . S
C381 N384 1.351 . S
C381 C386 1.501 . S
C382 C383 1.387 . S
C382 N385 1.341 . S
C383 C381 1.400 . S
C383 C382 1.387 . S
N384 Co375 2.022 . S
N384 C381 1.351 . S
N384 N385 1.365 . S
N385 C382 1.341 . S
N385 N384 1.365 . S
N385 H405 0.862 . S
C386 C381 1.501 . S
C386 H387 0.961 . S
C386 H388 0.961 . S
C386 H389 0.960 . S
H387 C386 0.961 . S
H388 C386 0.961 . S
H389 C386 0.960 . S
C390 N391 1.342 . S
C390 C394 1.401 . S
C390 C395 1.499 1_545 S
N391 Co374 1.989 1_545 S
N391 C390 1.342 . S
N391 N392 1.388 . S
N392 Co375 1.993 . S
N392 N391 1.388 . S
N392 C393 1.346 . S
C393 N392 1.346 . S
C393 C394 1.396 . S
C393 C403 1.510 . S
C394 C390 1.401 . S
C394 C393 1.396 . S
C395 C390 1.499 1_565 S
C395 H396 0.959 . S
C395 H397 0.960 . S
C395 H398 0.961 . S
H396 C395 0.959 . S
H397 C395 0.960 . S
H398 C395 0.961 . S
O399 Co374 1.967 . S
O399 C407 1.258 1_565 S
O400 Co375 1.941 . S
O400 C407 1.266 . S
H401 C403 0.959 . S
H402 C403 0.961 . S
C403 C393 1.510 . S
C403 H401 0.959 . S
C403 H402 0.961 . S
C403 H404 0.960 . S
H404 C403 0.960 . S
H405 N385 0.862 . S
O406 Co374 1.920 . S
O406 C379 1.289 . S
C407 O399 1.258 1_545 S
C407 O400 1.266 . S
Co408 O411 1.970 . S
Co408 N425 1.989 . S
Co408 O433 1.967 . S
Co408 O440 1.920 . S
Co409 O412 1.966 . S
Co409 N418 2.022 . S
Co409 N426 1.993 . S
Co409 O434 1.941 . S
C410 O411 1.258 . S
C410 O412 1.263 . S
O411 Co408 1.970 . S
O411 C410 1.258 . S
O412 Co409 1.966 . S
O412 C410 1.263 . S
C413 O414 1.235 . S
C413 O440 1.289 . S
O414 C413 1.235 . S
C415 C417 1.400 . S
C415 N418 1.351 . S
C415 C420 1.501 . S
C416 C417 1.387 . S
C416 N419 1.341 . S
C417 C415 1.400 . S
C417 C416 1.387 . S
N418 Co409 2.022 . S
N418 C415 1.351 . S
N418 N419 1.365 . S
N419 C416 1.341 . S
N419 N418 1.365 . S
N419 H439 0.862 . S
C420 C415 1.501 . S
C420 H421 0.961 . S
C420 H422 0.961 . S
C420 H423 0.960 . S
H421 C420 0.961 . S
H422 C420 0.961 . S
H423 C420 0.960 . S
C424 N425 1.342 . S
C424 C428 1.401 . S
C424 C429 1.499 . S
N425 Co408 1.989 . S
N425 C424 1.342 . S
N425 N426 1.388 . S
N426 Co409 1.993 . S
N426 N425 1.388 . S
N426 C427 1.346 . S
C427 N426 1.346 . S
C427 C428 1.396 . S
C427 C437 1.510 . S
C428 C424 1.401 . S
C428 C427 1.396 . S
C429 C424 1.499 . S
C429 H430 0.959 . S
C429 H431 0.960 . S
C429 H432 0.961 . S
H430 C429 0.959 . S
H431 C429 0.960 . S
H432 C429 0.961 . S
O433 Co408 1.967 . S
O433 C441 1.258 . S
O434 Co409 1.941 . S
O434 C441 1.266 . S
H435 C437 0.959 . S
H436 C437 0.961 . S
C437 C427 1.510 . S
C437 H435 0.959 . S
C437 H436 0.961 . S
C437 H438 0.960 . S
H438 C437 0.960 . S
H439 N419 0.862 . S
O440 Co408 1.920 . S
O440 C413 1.289 . S
C441 O433 1.258 . S
C441 O434 1.266 . S
Co442 O445 1.970 . S
Co442 N459 1.989 . S
Co442 O467 1.967 . S
Co442 O474 1.920 . S
Co443 O446 1.966 . S
Co443 N452 2.022 . S
Co443 N460 1.993 . S
Co443 O468 1.941 . S
C444 O445 1.258 . S
C444 O446 1.263 . S
O445 Co442 1.970 . S
O445 C444 1.258 . S
O446 Co443 1.966 . S
O446 C444 1.263 . S
C447 O448 1.235 . S
C447 O474 1.289 . S
O448 C447 1.235 . S
C449 C451 1.400 . S
C449 N452 1.351 . S
C449 C454 1.501 . S
C450 C451 1.387 . S
C450 N453 1.341 . S
C451 C449 1.400 . S
C451 C450 1.387 . S
N452 Co443 2.022 . S
N452 C449 1.351 . S
N452 N453 1.365 . S
N453 C450 1.341 . S
N453 N452 1.365 . S
N453 H473 0.862 . S
C454 C449 1.501 . S
C454 H455 0.961 . S
C454 H456 0.961 . S
C454 H457 0.960 . S
H455 C454 0.961 . S
H456 C454 0.961 . S
H457 C454 0.960 . S
C458 N459 1.342 . S
C458 C462 1.401 . S
C458 C463 1.499 . S
N459 Co442 1.989 . S
N459 C458 1.342 . S
N459 N460 1.388 . S
N460 Co443 1.993 . S
N460 N459 1.388 . S
N460 C461 1.346 . S
C461 N460 1.346 . S
C461 C462 1.396 . S
C461 C471 1.510 . S
C462 C458 1.401 . S
C462 C461 1.396 . S
C463 C458 1.499 . S
C463 H464 0.959 . S
C463 H465 0.960 . S
C463 H466 0.961 . S
H464 C463 0.959 . S
H465 C463 0.960 . S
H466 C463 0.961 . S
O467 Co442 1.967 . S
O467 C475 1.258 . S
O468 Co443 1.941 . S
O468 C475 1.266 . S
H469 C471 0.959 . S
H470 C471 0.961 . S
C471 C461 1.510 . S
C471 H469 0.959 . S
C471 H470 0.961 . S
C471 H472 0.960 . S
H472 C471 0.960 . S
H473 N453 0.862 . S
O474 Co442 1.920 . S
O474 C447 1.289 . S
C475 O467 1.258 . S
C475 O468 1.266 . S
Co476 O479 1.970 . S
Co476 N493 1.989 . S
Co476 O501 1.967 . S
Co476 O508 1.920 . S
Co477 O480 1.966 . S
Co477 N486 2.022 . S
Co477 N494 1.993 . S
Co477 O502 1.941 . S
C478 O479 1.258 . S
C478 O480 1.263 . S
O479 Co476 1.970 . S
O479 C478 1.258 . S
O480 Co477 1.966 . S
O480 C478 1.263 . S
C481 O482 1.235 . S
C481 O508 1.289 . S
O482 C481 1.235 . S
C483 C485 1.400 . S
C483 N486 1.351 . S
C483 C488 1.501 . S
C484 C485 1.387 . S
C484 N487 1.341 . S
C485 C483 1.400 . S
C485 C484 1.387 . S
N486 Co477 2.022 . S
N486 C483 1.351 . S
N486 N487 1.365 . S
N487 C484 1.341 . S
N487 N486 1.365 . S
N487 H507 0.862 . S
C488 C483 1.501 . S
C488 H489 0.961 . S
C488 H490 0.961 . S
C488 H491 0.960 . S
H489 C488 0.961 . S
H490 C488 0.961 . S
H491 C488 0.960 . S
C492 N493 1.342 . S
C492 C496 1.401 . S
C492 C497 1.499 . S
N493 Co476 1.989 . S
N493 C492 1.342 . S
N493 N494 1.388 . S
N494 Co477 1.993 . S
N494 N493 1.388 . S
N494 C495 1.346 . S
C495 N494 1.346 . S
C495 C496 1.396 . S
C495 C505 1.510 . S
C496 C492 1.401 . S
C496 C495 1.396 . S
C497 C492 1.499 . S
C497 H498 0.959 . S
C497 H499 0.960 . S
C497 H500 0.961 . S
H498 C497 0.959 . S
H499 C497 0.960 . S
H500 C497 0.961 . S
O501 Co476 1.967 . S
O501 C509 1.258 . S
O502 Co477 1.941 . S
O502 C509 1.266 . S
H503 C505 0.959 . S
H504 C505 0.961 . S
C505 C495 1.510 . S
C505 H503 0.959 . S
C505 H504 0.961 . S
C505 H506 0.960 . S
H506 C505 0.960 . S
H507 N487 0.862 . S
O508 Co476 1.920 . S
O508 C481 1.289 . S
C509 O501 1.258 . S
C509 O502 1.266 . S
Co510 O513 1.970 . S
Co510 N527 1.989 . S
Co510 O535 1.967 . S
Co510 O542 1.920 . S
Co511 O514 1.966 . S
Co511 N520 2.022 . S
Co511 N528 1.993 . S
Co511 O536 1.941 . S
C512 O513 1.258 . S
C512 O514 1.263 . S
O513 Co510 1.970 . S
O513 C512 1.258 . S
O514 Co511 1.966 . S
O514 C512 1.263 . S
C515 O516 1.235 . S
C515 O542 1.289 . S
O516 C515 1.235 . S
C517 C519 1.400 . S
C517 N520 1.351 . S
C517 C522 1.501 . S
C518 C519 1.387 . S
C518 N521 1.341 . S
C519 C517 1.400 . S
C519 C518 1.387 . S
N520 Co511 2.022 . S
N520 C517 1.351 . S
N520 N521 1.365 . S
N521 C518 1.341 . S
N521 N520 1.365 . S
N521 H541 0.862 . S
C522 C517 1.501 . S
C522 H523 0.961 . S
C522 H524 0.961 . S
C522 H525 0.960 . S
H523 C522 0.961 . S
H524 C522 0.961 . S
H525 C522 0.960 . S
C526 N527 1.342 . S
C526 C530 1.401 . S
C526 C531 1.499 . S
N527 Co510 1.989 . S
N527 C526 1.342 . S
N527 N528 1.388 . S
N528 Co511 1.993 . S
N528 N527 1.388 . S
N528 C529 1.346 . S
C529 N528 1.346 . S
C529 C530 1.396 . S
C529 C539 1.510 . S
C530 C526 1.401 . S
C530 C529 1.396 . S
C531 C526 1.499 . S
C531 H532 0.959 . S
C531 H533 0.960 . S
C531 H534 0.961 . S
H532 C531 0.959 . S
H533 C531 0.960 . S
H534 C531 0.961 . S
O535 Co510 1.967 . S
O535 C543 1.258 . S
O536 Co511 1.941 . S
O536 C543 1.266 . S
H537 C539 0.959 . S
H538 C539 0.961 . S
C539 C529 1.510 . S
C539 H537 0.959 . S
C539 H538 0.961 . S
C539 H540 0.960 . S
H540 C539 0.960 . S
H541 N521 0.862 . S
O542 Co510 1.920 . S
O542 C515 1.289 . S
C543 O535 1.258 . S
C543 O536 1.266 . S
C33 C101 2.019 1_445 S
C135 C67 2.019 1_465 S
C237 C169 2.019 . S
C203 C271 2.019 . S
C373 C305 2.404 1_445 S
C339 C407 2.404 1_465 S
C509 C441 2.404 . S
C475 C543 2.404 . S
C5 C342 1.515 . S
C376 C39 1.515 . S
C274 C73 1.515 . S
C308 C107 1.515 . S
C478 C141 1.515 . S
C512 C175 1.515 . S
C410 C209 1.515 . S
C444 C243 1.515 . S
C9 C247 2.779 . S
C43 C145 2.779 . S
C179 C77 2.779 . S
C213 C111 2.779 . S
C292 C530 2.744 . S
C326 C428 2.744 . S
C360 C462 2.744 . S
C394 C496 2.744 . S
C481 C20 2.070 . S
C54 C515 2.070 . S
C413 C88 2.070 . S
C447 C122 2.070 . S
C345 C156 2.070 . S
C190 C379 2.070 . S
C277 C224 2.070 . S
C258 C311 2.070 . S
C206 C281 1.210 . S
C240 C315 1.210 . S
C138 C349 1.210 . S
C383 C172 1.209 . S
C70 C417 1.210 . S
C451 C104 1.210 . S
C485 C2 1.210 . S
C36 C519 1.209 . S
