# Generated by pormake.
# Topology wjd, (6)-cn, num edge types: 1
# Building blocks:
#     Node 0, Type 0, BuildingBlock: KUMBUR_clean_sbu_1, # of connection points: 6
#     Node 1, Type 0, BuildingBlock: KUMBUR_clean_sbu_1, # of connection points: 6
#     Node 2, Type 0, BuildingBlock: KUMBUR_clean_sbu_1, # of connection points: 6
#     Node 3, Type 0, BuildingBlock: KUMBUR_clean_sbu_1, # of connection points: 6
#     Node 4, Type 0, BuildingBlock: KUMBUR_clean_sbu_1, # of connection points: 6
#     Node 5, Type 0, BuildingBlock: KUMBUR_clean_sbu_1, # of connection points: 6
#     Node 6, Type 0, BuildingBlock: KUMBUR_clean_sbu_1, # of connection points: 6
#     Node 7, Type 0, BuildingBlock: KUMBUR_clean_sbu_1, # of connection points: 6
#     Node 8, Type 0, BuildingBlock: KUMBUR_clean_sbu_1, # of connection points: 6
#     Node 9, Type 0, BuildingBlock: KUMBUR_clean_sbu_1, # of connection points: 6
#     Node 10, Type 0, BuildingBlock: KUMBUR_clean_sbu_1, # of connection points: 6
#     Node 11, Type 0, BuildingBlock: KUMBUR_clean_sbu_1, # of connection points: 6
#     Edge 12, Type (0, 0), BuildingBlock: KIFKEQ_clean_linker_1, # of connection points: 2
#     Edge 13, Type (0, 0), BuildingBlock: KIFKEQ_clean_linker_1, # of connection points: 2
#     Edge 14, Type (0, 0), BuildingBlock: KIFKEQ_clean_linker_1, # of connection points: 2
#     Edge 15, Type (0, 0), BuildingBlock: KIFKEQ_clean_linker_1, # of connection points: 2
#     Edge 16, Type (0, 0), BuildingBlock: KIFKEQ_clean_linker_1, # of connection points: 2
#     Edge 17, Type (0, 0), BuildingBlock: KIFKEQ_clean_linker_1, # of connection points: 2
#     Edge 18, Type (0, 0), BuildingBlock: KIFKEQ_clean_linker_1, # of connection points: 2
#     Edge 19, Type (0, 0), BuildingBlock: KIFKEQ_clean_linker_1, # of connection points: 2
#     Edge 20, Type (0, 0), BuildingBlock: KIFKEQ_clean_linker_1, # of connection points: 2
#     Edge 21, Type (0, 0), BuildingBlock: KIFKEQ_clean_linker_1, # of connection points: 2
#     Edge 22, Type (0, 0), BuildingBlock: KIFKEQ_clean_linker_1, # of connection points: 2
#     Edge 23, Type (0, 0), BuildingBlock: KIFKEQ_clean_linker_1, # of connection points: 2
#     Edge 24, Type (0, 0), BuildingBlock: KIFKEQ_clean_linker_1, # of connection points: 2
#     Edge 25, Type (0, 0), BuildingBlock: KIFKEQ_clean_linker_1, # of connection points: 2
#     Edge 26, Type (0, 0), BuildingBlock: KIFKEQ_clean_linker_1, # of connection points: 2
#     Edge 27, Type (0, 0), BuildingBlock: KIFKEQ_clean_linker_1, # of connection points: 2
#     Edge 28, Type (0, 0), BuildingBlock: KIFKEQ_clean_linker_1, # of connection points: 2
#     Edge 29, Type (0, 0), BuildingBlock: KIFKEQ_clean_linker_1, # of connection points: 2
#     Edge 30, Type (0, 0), BuildingBlock: KIFKEQ_clean_linker_1, # of connection points: 2
#     Edge 31, Type (0, 0), BuildingBlock: KIFKEQ_clean_linker_1, # of connection points: 2
#     Edge 32, Type (0, 0), BuildingBlock: KIFKEQ_clean_linker_1, # of connection points: 2
#     Edge 33, Type (0, 0), BuildingBlock: KIFKEQ_clean_linker_1, # of connection points: 2
#     Edge 34, Type (0, 0), BuildingBlock: KIFKEQ_clean_linker_1, # of connection points: 2
#     Edge 35, Type (0, 0), BuildingBlock: KIFKEQ_clean_linker_1, # of connection points: 2
#     Edge 36, Type (0, 0), BuildingBlock: KIFKEQ_clean_linker_1, # of connection points: 2
#     Edge 37, Type (0, 0), BuildingBlock: KIFKEQ_clean_linker_1, # of connection points: 2
#     Edge 38, Type (0, 0), BuildingBlock: KIFKEQ_clean_linker_1, # of connection points: 2
#     Edge 39, Type (0, 0), BuildingBlock: KIFKEQ_clean_linker_1, # of connection points: 2
#     Edge 40, Type (0, 0), BuildingBlock: KIFKEQ_clean_linker_1, # of connection points: 2
#     Edge 41, Type (0, 0), BuildingBlock: KIFKEQ_clean_linker_1, # of connection points: 2
#     Edge 42, Type (0, 0), BuildingBlock: KIFKEQ_clean_linker_1, # of connection points: 2
#     Edge 43, Type (0, 0), BuildingBlock: KIFKEQ_clean_linker_1, # of connection points: 2
#     Edge 44, Type (0, 0), BuildingBlock: KIFKEQ_clean_linker_1, # of connection points: 2
#     Edge 45, Type (0, 0), BuildingBlock: KIFKEQ_clean_linker_1, # of connection points: 2
#     Edge 46, Type (0, 0), BuildingBlock: KIFKEQ_clean_linker_1, # of connection points: 2
#     Edge 47, Type (0, 0), BuildingBlock: KIFKEQ_clean_linker_1, # of connection points: 2
# Relax obj value: 0.072
# Max RMSD: 0.185
# Mean RMSD: 0.185
data_MOF--net-wjd--node1-KUMBUR_clean_sbu_1--edge1-KIFKEQ_clean_linker_1
_symmetry_space_group_name_H-M    P1
_symmetry_Int_Tables_number       1
_symmetry_cell_setting            triclinic
loop_
_symmetry_equiv_pos_as_xyz
'x, y, z'
_cell_length_a     39.339778
_cell_length_b     39.317117
_cell_length_c     54.774698
_cell_angle_alpha  89.966059
_cell_angle_beta   89.934837
_cell_angle_gamma 119.99022
loop_
_atom_site_label
_atom_site_type_symbol
_atom_site_fract_x
_atom_site_fract_y
_atom_site_fract_z
_atom_type_partial_charge
Tb0 Tb 0.31815 0.08394 0.14162 0.0
C1 C 0.33714 0.22953 0.09081 0.0
N2 N 0.35224 0.20657 0.08382 0.0
C3 C 0.33158 0.20617 0.04265 0.0
C4 C 0.31728 0.24055 0.07398 0.0
C5 C 0.35089 0.19583 0.06 0.0
C6 C 0.31443 0.22836 0.04969 0.0
C7 C 0.32434 0.26389 0.12309 0.0
C8 C 0.34068 0.24101 0.11513 0.0
C9 C 0.30407 0.27449 0.10644 0.0
C10 C 0.30066 0.26297 0.08195 0.0
Tb11 Tb 0.38421 0.19301 0.11338 0.0
N12 N 0.36034 0.23001 0.13086 0.0
C13 C 0.32927 0.27589 0.14747 0.0
C14 C 0.36782 0.24444 0.15415 0.0
C15 C 0.3516 0.26662 0.16294 0.0
H16 H 0.36492 0.17959 0.05424 0.0
H17 H 0.35706 0.27726 0.18155 0.0
H18 H 0.30969 0.09439 0.20142 0.0
H19 H 0.35777 0.98889 0.09372 0.0
H20 H 0.38735 0.24047 0.16596 0.0
H21 H 0.31702 0.29334 0.15431 0.0
H22 H 0.32645 0.02971 0.09848 0.0
H23 H 0.33012 0.19722 0.02381 0.0
H24 H 0.29114 0.29185 0.1123 0.0
H25 H 0.28502 0.27148 0.06934 0.0
H26 H 0.33683 0.08408 0.23933 0.0
H27 H 0.29938 0.23619 0.0362 0.0
H28 H 0.39188 0.9794 0.12879 0.0
N29 N 0.33805 0.07245 0.17838 0.0
C30 C 0.358 0.05258 0.17743 0.0
C31 C 0.34334 0.07532 0.22205 0.0
C32 C 0.37298 0.04475 0.19873 0.0
C33 C 0.32856 0.08177 0.20042 0.0
C34 C 0.36632 0.05741 0.22118 0.0
N35 N 0.3445 0.04446 0.1354 0.0
C36 C 0.34165 0.02594 0.11373 0.0
C37 C 0.37885 1.01441 0.15347 0.0
C38 C 0.36085 0.03754 0.15521 0.0
C39 C 0.37843 0.99747 0.1309 0.0
C40 C 0.3592 1.00276 0.11104 0.0
H41 H 0.3775 0.0522 0.23798 0.0
H42 H 0.4048 0.01733 0.21313 0.0
H43 H 0.40995 0.99074 0.17344 0.0
O44 O 0.26402 0.0487 0.12391 0.0
O45 O 0.37741 0.10172 0.12665 0.0
O46 O 0.41407 0.16814 0.13388 0.0
O47 O 0.27219 0.03706 0.16093 0.0
O48 O 0.31489 0.09133 0.10232 0.0
O49 O 0.37383 0.14399 0.0881 0.0
O50 O 0.42317 0.25388 0.11267 0.0
O51 O 0.32002 0.15789 0.10871 0.0
O52 O 0.29895 0.12727 0.1454 0.0
O53 O 0.43385 0.21571 0.09015 0.0
O54 O 0.39284 0.18643 0.15287 0.0
O55 O 0.33257 0.135 0.16482 0.0
C56 C 0.41137 0.13405 0.12995 0.0
C57 C 0.22514 0.98325 0.1377 0.0
C58 C 0.16158 0.92437 0.1298 0.0
C59 C 0.18089 0.90252 0.1278 0.0
C60 C 0.2435 0.96061 0.13606 0.0
C61 C 0.22147 0.92053 0.131 0.0
C62 C 0.1841 0.96495 0.13477 0.0
C63 C 0.34204 0.10868 0.08535 0.0
C64 C 0.24808 0.02581 0.14262 0.0
C65 C 0.39273 0.02333 0.197 0.0
C66 C 0.39561 1.00813 0.1744 0.0
C67 C 0.29466 0.14575 0.12676 0.0
C68 C 0.48928 0.27378 0.10617 0.0
C69 C 0.54691 0.33685 0.11752 0.0
C70 C 0.56614 0.3163 0.12451 0.0
C71 C 0.5092 0.25425 0.11351 0.0
C72 C 0.50837 0.31516 0.10812 0.0
C73 C 0.54744 0.27545 0.12246 0.0
C74 C 0.36762 0.16446 0.17003 0.0
C75 C 0.44781 0.25155 0.09808 0.0
H76 H 0.16447 0.87124 0.12427 0.0
H77 H 0.27474 0.97376 0.13887 0.0
H78 H 0.23587 0.90326 0.12973 0.0
H79 H 0.16979 0.98235 0.13616 0.0
H80 H 0.59594 0.33186 0.13134 0.0
H81 H 0.49511 0.2226 0.11259 0.0
H82 H 0.49279 0.33027 0.10291 0.0
H83 H 0.56261 0.26009 0.12799 0.0
Tb84 Tb 0.83061 0.64416 0.40371 0.0
C85 C 0.71408 0.66917 0.34071 0.0
N86 N 0.75386 0.69056 0.34004 0.0
C87 C 0.75252 0.68792 0.29629 0.0
C88 C 0.69189 0.65487 0.31915 0.0
C89 C 0.7731 0.70208 0.31817 0.0
C90 C 0.71176 0.6636 0.29678 0.0
C91 C 0.6543 0.6443 0.36448 0.0
C92 C 0.69553 0.664 0.36297 0.0
C93 C 0.63193 0.62833 0.34322 0.0
C94 C 0.6507 0.63356 0.32059 0.0
Tb95 Tb 0.78427 0.70814 0.37714 0.0
N96 N 0.71815 0.67975 0.38308 0.0
C97 C 0.63692 0.64221 0.38719 0.0
C98 C 0.70152 0.67998 0.40499 0.0
C99 C 0.66066 0.66064 0.40745 0.0
H100 H 0.80446 0.72182 0.31751 0.0
H101 H 0.64752 0.66003 0.42493 0.0
H102 H 0.83918 0.66516 0.46264 0.0
H103 H 0.93955 0.67135 0.3337 0.0
H104 H 0.71984 0.69439 0.42061 0.0
H105 H 0.60529 0.62735 0.38913 0.0
H106 H 0.8733 0.63916 0.35092 0.0
H107 H 0.76824 0.6958 0.27912 0.0
H108 H 0.60015 0.61274 0.344 0.0
H109 H 0.6331 0.622 0.30425 0.0
H110 H 0.89271 0.70376 0.49172 0.0
H111 H 0.69583 0.65284 0.27979 0.0
H112 H 0.99642 0.71594 0.35913 0.0
N113 N 0.87745 0.67869 0.43217 0.0
C114 C 0.91525 0.69543 0.42432 0.0
C115 C 0.89941 0.70195 0.47275 0.0
C116 C 0.94674 0.71768 0.44029 0.0
C117 C 0.86911 0.68041 0.45618 0.0
C118 C 0.93837 0.72099 0.46474 0.0
N119 N 0.89087 0.66913 0.38512 0.0
C120 C 0.89706 0.6604 0.36195 0.0
C121 C 0.96097 0.70892 0.39104 0.0
C122 C 0.92215 0.6911 0.39995 0.0
C123 C 0.96706 0.70271 0.3667 0.0
C124 C 0.93501 0.67778 0.35224 0.0
H125 H 0.96175 0.73784 0.47761 0.0
H126 H 1.00995 0.75367 0.44327 0.0
H127 H 0.02243 0.74606 0.40015 0.0
O128 O 0.85386 0.60623 0.40433 0.0
O129 O 0.85668 0.70788 0.40909 0.0
O130 O 0.84656 0.72799 0.37241 0.0
O131 O 0.80516 0.59481 0.42718 0.0
O132 O 0.81508 0.63597 0.36418 0.0
O133 O 0.82093 0.69534 0.3527 0.0
O134 O 0.80732 0.76254 0.39516 0.0
O135 O 0.74466 0.64793 0.39175 0.0
O136 O 0.77627 0.61355 0.38295 0.0
O137 O 0.77923 0.75398 0.36052 0.0
O138 O 0.79272 0.70956 0.41656 0.0
O139 O 0.7913 0.65214 0.42983 0.0
C140 C 0.86945 0.73312 0.39104 0.0
C141 C 0.8084 0.53979 0.41113 0.0
C142 C 0.81367 0.48182 0.4002 0.0
C143 C 0.774 0.46269 0.39307 0.0
C144 C 0.76898 0.51982 0.40377 0.0
C145 C 0.75199 0.48153 0.39491 0.0
C146 C 0.8306 0.52052 0.40945 0.0
C147 C 0.81707 0.661 0.34724 0.0
C148 C 0.82739 0.58136 0.4191 0.0
C149 C 0.98536 0.73611 0.43134 0.0
C150 C 0.99245 0.73185 0.40676 0.0
C151 C 0.74407 0.6148 0.38683 0.0
C152 C 0.78078 0.8034 0.38639 0.0
C153 C 0.79068 0.86892 0.3954 0.0
C154 C 0.7518 0.8511 0.404 0.0
C155 C 0.74202 0.78654 0.39475 0.0
C156 C 0.80495 0.84467 0.38651 0.0
C157 C 0.7277 0.8103 0.40354 0.0
C158 C 0.78612 0.68284 0.43331 0.0
C159 C 0.79702 0.7786 0.37818 0.0
H160 H 0.75972 0.43283 0.38632 0.0
H161 H 0.75135 0.53388 0.40467 0.0
H162 H 0.72158 0.46639 0.38933 0.0
H163 H 0.86122 0.53601 0.41478 0.0
H164 H 0.73974 0.86881 0.41069 0.0
H165 H 0.72286 0.75511 0.39449 0.0
H166 H 0.83497 0.85784 0.38007 0.0
H167 H 0.69773 0.79703 0.41001 0.0
Tb168 Tb 0.95667 0.25738 0.14016 0.0
C169 C 0.8132 0.12829 0.09023 0.0
N170 N 0.83416 0.16643 0.08289 0.0
C171 C 0.83494 0.14602 0.04179 0.0
C172 C 0.80373 0.09742 0.07367 0.0
C173 C 0.84402 0.1757 0.05894 0.0
C174 C 0.81501 0.10674 0.04921 0.0
C175 C 0.78218 0.08121 0.1231 0.0
C176 C 0.80267 0.1204 0.11473 0.0
C177 C 0.77317 0.05037 0.1067 0.0
C178 C 0.7838 0.05844 0.08206 0.0
Tb179 Tb 0.84654 0.21194 0.11228 0.0
N180 N 0.81265 0.15108 0.13028 0.0
C181 C 0.77107 0.07415 0.14765 0.0
C182 C 0.79896 0.14396 0.15376 0.0
C183 C 0.77893 0.10562 0.16293 0.0
H184 H 0.85868 0.2059 0.05294 0.0
H185 H 0.7689 0.10032 0.18169 0.0
H186 H 0.9451 0.23933 0.20003 0.0
H187 H 0.0515 0.391 0.0912 0.0
H188 H 0.80187 0.16722 0.16543 0.0
H189 H 0.7554 0.04449 0.15481 0.0
H190 H 1.00996 0.31902 0.09642 0.0
H191 H 0.84321 0.15345 0.02285 0.0
H192 H 0.75774 0.02013 0.11288 0.0
H193 H 0.77653 0.03432 0.06964 0.0
H194 H 0.95629 0.27758 0.23782 0.0
H195 H 0.80826 0.08385 0.0359 0.0
H196 H 0.06245 0.43526 0.12616 0.0
N197 N 0.96809 0.28938 0.17671 0.0
C198 C 0.98872 0.32919 0.17554 0.0
C199 C 0.96513 0.29249 0.22038 0.0
C200 C 0.99702 0.35237 0.1967 0.0
C201 C 0.95819 0.27085 0.19886 0.0
C202 C 0.98402 0.33344 0.21927 0.0
N203 N 0.99619 0.32306 0.13348 0.0
C204 C 1.01431 0.33828 0.11161 0.0
C205 C 0.02745 0.38772 0.1512 0.0
C206 C 1.00382 0.34666 0.1532 0.0
C207 C 0.04407 0.4038 0.12847 0.0
C208 C 0.03792 0.37892 0.10867 0.0
H209 H 0.98972 0.35015 0.23598 0.0
H210 H 0.02553 0.41185 0.21076 0.0
H211 H 0.05215 0.44283 0.17087 0.0
O212 O 0.9933 0.24011 0.12243 0.0
O213 O 0.93873 0.2987 0.1255 0.0
O214 O 0.87143 0.2688 0.13054 0.0
O215 O 1.00251 0.25729 0.15996 0.0
O216 O 0.94889 0.24645 0.10087 0.0
O217 O 0.89507 0.25082 0.0866 0.0
O218 O 0.78535 0.1883 0.11374 0.0
O219 O 0.88303 0.18419 0.10754 0.0
O220 O 0.91382 0.19481 0.14417 0.0
O221 O 0.81992 0.23423 0.08847 0.0
O222 O 0.85339 0.22865 0.15153 0.0
O223 O 0.90522 0.22046 0.16285 0.0
C224 C 0.90597 0.30006 0.127 0.0
C225 C 0.05803 0.26677 0.13754 0.0
C226 C 0.1185 0.26425 0.13136 0.0
C227 C 0.13952 0.30552 0.13001 0.0
C228 C 0.07985 0.30788 0.13659 0.0
C229 C 0.1203 0.32706 0.13268 0.0
C230 C 0.07751 0.24504 0.13511 0.0
C231 C 0.93088 0.25542 0.08387 0.0
C232 C 1.01517 0.24606 0.14151 0.0
C233 C 1.01913 0.3935 0.19474 0.0
C234 C 0.03436 0.41114 0.17202 0.0
C235 C 0.89618 0.17184 0.12549 0.0
C236 C 0.76228 0.23165 0.1053 0.0
C237 C 0.69908 0.22733 0.1152 0.0
C238 C 0.71987 0.26712 0.12216 0.0
C239 C 0.78181 0.2708 0.11314 0.0
C240 C 0.72069 0.2099 0.10633 0.0
C241 C 0.76075 0.28851 0.12116 0.0
C242 C 0.87628 0.22663 0.16848 0.0
C243 C 0.78503 0.21249 0.09785 0.0
H244 H 0.17105 0.32125 0.12744 0.0
H245 H 0.0658 0.3252 0.1391 0.0
H246 H 0.13692 0.35881 0.13195 0.0
H247 H 0.06075 0.21325 0.136 0.0
H248 H 0.70447 0.28185 0.12849 0.0
H249 H 0.8134 0.28757 0.11342 0.0
H250 H 0.7054 0.17926 0.10102 0.0
H251 H 0.77626 0.3189 0.12694 0.0
Tb252 Tb 0.37566 0.18094 0.40882 0.0
C253 C 0.35778 0.03968 0.34315 0.0
N254 N 0.33712 0.05885 0.34202 0.0
C255 C 0.34005 0.05906 0.2983 0.0
C256 C 0.37118 0.03012 0.3218 0.0
C257 C 0.3273 0.0678 0.32 0.0
C258 C 0.36235 0.04041 0.29918 0.0
C259 C 0.38628 1.00919 0.36795 0.0
C260 C 0.36517 0.02929 0.36589 0.0
C261 C 0.40017 1.00001 0.34674 0.0
C262 C 0.39264 1.01045 0.32372 0.0
Tb263 Tb 0.31968 0.07316 0.37864 0.0
N264 N 0.35238 0.03986 0.38604 0.0
C265 C 0.39269 0.99892 0.39126 0.0
C266 C 0.35681 0.02819 0.4087 0.0
C267 C 0.37749 1.00808 0.41169 0.0
H268 H 0.3088 0.08079 0.31919 0.0
H269 H 0.38148 0.99943 0.42975 0.0
H270 H 0.36388 0.16778 0.46891 0.0
H271 H 0.32339 0.24795 0.34342 0.0
H272 H 0.34428 0.034 0.42446 0.0
H273 H 0.40877 0.98342 0.39366 0.0
H274 H 0.36145 0.21751 0.35663 0.0
H275 H 0.33231 0.06636 0.28094 0.0
H276 H 0.41661 0.98469 0.34794 0.0
H277 H 0.40334 1.00297 0.30752 0.0
H278 H 0.32932 0.18164 0.50153 0.0
H279 H 0.37207 0.03354 0.28234 0.0
H280 H 0.28561 0.26249 0.3736 0.0
N281 N 0.34511 0.19193 0.44069 0.0
C282 C 0.32535 0.21106 0.43503 0.0
C283 C 0.32779 0.18985 0.48287 0.0
C284 C 0.3053 0.21966 0.45314 0.0
C285 C 0.34701 0.18167 0.46426 0.0
C286 C 0.30676 0.20882 0.4773 0.0
N287 N 0.34222 0.21016 0.3936 0.0
C288 C 0.34353 0.22135 0.36985 0.0
C289 C 0.30257 0.23916 0.40407 0.0
C290 C 0.32386 0.22047 0.41073 0.0
C291 C 0.30174 0.24828 0.37948 0.0
C292 C 0.32273 0.23978 0.36236 0.0
H293 H 0.29177 0.21494 0.49176 0.0
H294 H 0.26838 0.245 0.4602 0.0
H295 H 0.26604 0.26211 0.41727 0.0
O296 O 0.41951 0.23602 0.39564 0.0
O297 O 0.31108 0.14359 0.41147 0.0
O298 O 0.295 0.11195 0.3749 0.0
O299 O 0.41614 0.22233 0.43368 0.0
O300 O 0.3879 0.17497 0.36965 0.0
O301 O 0.32914 0.12328 0.35693 0.0
O302 O 0.26944 0.02982 0.39708 0.0
O303 O 0.38464 0.10214 0.38054 0.0
O304 O 0.40901 0.15043 0.41069 0.0
O305 O 0.27524 0.02684 0.35837 0.0
O306 O 0.31463 0.07893 0.41804 0.0
O307 O 0.37019 0.13347 0.43355 0.0
C308 C 0.2864 0.12766 0.3933 0.0
C309 C 0.4787 0.26914 0.41784 0.0
C310 C 0.5424 0.32965 0.41275 0.0
C311 C 0.56101 0.30826 0.41932 0.0
C312 C 0.49821 0.24877 0.42407 0.0
C313 C 0.53909 0.26827 0.42484 0.0
C314 C 0.50089 0.30966 0.41223 0.0
C315 C 0.36377 0.15344 0.35201 0.0
C316 C 0.43534 0.24851 0.41694 0.0
C317 C 0.28406 0.23823 0.44654 0.0
C318 C 0.28269 0.24794 0.42208 0.0
C319 C 0.41283 0.12697 0.3952 0.0
C320 C 0.2119 1.00656 0.37346 0.0
C321 C 0.14062 0.96691 0.37814 0.0
C322 C 0.13701 0.99799 0.36831 0.0
C323 C 0.20723 0.03649 0.36286 0.0
C324 C 0.17835 0.97139 0.38077 0.0
C325 C 0.1701 0.0324 0.36059 0.0
C326 C 0.33989 0.09724 0.43575 0.0
C327 C 0.25172 1.01239 0.37694 0.0
H328 H 0.59268 0.32253 0.42043 0.0
H329 H 0.48178 0.21782 0.42844 0.0
H330 H 0.5539 0.25231 0.42979 0.0
H331 H 0.48582 0.32532 0.4071 0.0
H332 H 0.10838 0.99521 0.36594 0.0
H333 H 0.23225 0.06297 0.35609 0.0
H334 H 0.18156 0.94781 0.38857 0.0
H335 H 0.16691 0.05583 0.35258 0.0
Tb336 Tb 0.78242 0.7187 0.14088 0.0
C337 C 0.91621 0.71161 0.08947 0.0
N338 N 0.87896 0.69536 0.08089 0.0
C339 C 0.90339 0.72039 0.04082 0.0
C340 C 0.94871 0.73325 0.07397 0.0
C341 C 0.87209 0.69906 0.05686 0.0
C342 C 0.94189 0.73762 0.04941 0.0
C343 C 0.95993 0.72311 0.12347 0.0
C344 C 0.92159 0.70675 0.11394 0.0
C345 C 0.99243 0.74509 0.10821 0.0
C346 C 0.98683 0.74997 0.08349 0.0
Tb347 Tb 0.83011 0.65981 0.10821 0.0
N348 N 0.88937 0.68518 0.12819 0.0
C349 C 0.96451 0.71594 0.14789 0.0
C350 C 0.8942 0.67457 0.15116 0.0
C351 C 0.9315 0.69088 0.16163 0.0
H352 H 0.84252 0.68515 0.0499 0.0
H353 H 0.93483 0.68306 0.18007 0.0
H354 H 0.82374 0.7519 0.1945 0.0
H355 H 0.63074 0.64632 0.1121 0.0
H356 H 0.86997 0.6521 0.16129 0.0
H357 H 0.99342 0.72805 0.15593 0.0
H358 H 0.70249 0.68216 0.10596 0.0
H359 H 0.89782 0.72332 0.02181 0.0
H360 H 1.02204 0.75801 0.11527 0.0
H361 H 1.01217 0.76672 0.07187 0.0
H362 H 0.80233 0.74471 0.2377 0.0
H363 H 0.96608 0.7541 0.03694 0.0
H364 H 0.60322 0.63116 0.15394 0.0
N365 N 0.76608 0.71514 0.181 0.0
C366 C 0.72718 0.6944 0.1862 0.0
C367 C 0.78093 0.73011 0.2234 0.0
C368 C 0.71351 0.68998 0.2104 0.0
C369 C 0.79301 0.73379 0.19903 0.0
C370 C 0.741 0.70797 0.2291 0.0
N371 N 0.71553 0.68622 0.14391 0.0
C372 C 0.69089 0.67583 0.12427 0.0
C373 C 0.66021 0.6595 0.17139 0.0
C374 C 0.70095 0.67963 0.16699 0.0
C375 C 0.63476 0.64682 0.15135 0.0
C376 C 0.65018 0.65539 0.1277 0.0
H377 H 0.73155 0.70595 0.24785 0.0
H378 H 0.66184 0.66486 0.23355 0.0
H379 H 0.61511 0.63795 0.19936 0.0
O380 O 0.79739 0.76807 0.11865 0.0
O381 O 0.74369 0.65367 0.1384 0.0
O382 O 0.76643 0.6296 0.10715 0.0
O383 O 0.7789 0.76631 0.15569 0.0
O384 O 0.77505 0.71219 0.10151 0.0
O385 O 0.793 0.67033 0.08197 0.0
O386 O 0.83286 0.60906 0.11766 0.0
O387 O 0.85548 0.72394 0.10414 0.0
O388 O 0.84581 0.74124 0.14188 0.0
O389 O 0.82851 0.62185 0.08037 0.0
O390 O 0.8103 0.64663 0.14712 0.0
O391 O 0.82395 0.70731 0.15978 0.0
C392 C 0.73936 0.62608 0.12271 0.0
C393 C 0.82719 0.82786 0.14054 0.0
C394 C 0.85843 0.89947 0.13742 0.0
C395 C 0.89291 0.90278 0.1473 0.0
C396 C 0.86158 0.83224 0.1512 0.0
C397 C 0.89432 0.8694 0.15428 0.0
C398 C 0.82544 0.8617 0.13401 0.0
C399 C 0.77792 0.69415 0.08201 0.0
C400 C 0.79348 0.78803 0.13635 0.0
C401 C 0.67294 0.66886 0.21503 0.0
C402 C 0.64633 0.65357 0.19556 0.0
C403 C 0.86762 0.74906 0.12225 0.0
C404 C 0.86577 0.59042 0.08906 0.0
C405 C 0.89561 0.54847 0.09299 0.0
C406 C 0.92697 0.5753 0.0783 0.0
C407 C 0.89731 0.61603 0.0741 0.0
C408 C 0.86485 0.55625 0.09829 0.0
C409 C 0.92768 0.60861 0.06893 0.0
C410 C 0.81577 0.67157 0.1649 0.0
C411 C 0.83415 0.59935 0.09521 0.0
H412 H 0.91856 0.93138 0.15021 0.0
H413 H 0.86312 0.80698 0.15734 0.0
H414 H 0.9208 0.87235 0.1623 0.0
H415 H 0.79878 0.85869 0.12619 0.0
H416 H 0.95072 0.57008 0.07355 0.0
H417 H 0.89855 0.64177 0.06619 0.0
H418 H 0.84055 0.53609 0.10972 0.0
H419 H 0.95181 0.6287 0.0574 0.0
Tb420 Tb 0.85131 0.19832 0.40611 0.0
C421 C 1.01118 0.34104 0.37752 0.0
N422 N 0.98683 0.30888 0.36424 0.0
C423 C 0.99224 0.34984 0.33028 0.0
C424 C 0.02569 0.37917 0.36815 0.0
C425 C 0.97869 0.31256 0.34044 0.0
C426 C 1.01531 0.38332 0.34433 0.0
C427 C 0.04998 0.36751 0.41407 0.0
C428 C 0.02281 0.33522 0.40012 0.0
C429 C 0.06308 0.40582 0.40551 0.0
C430 C 0.05094 0.41165 0.38256 0.0
Tb431 Tb 0.96455 0.24939 0.38276 0.0
N432 N 1.01005 0.29776 0.40739 0.0
C433 C 0.06451 0.36021 0.43556 0.0
C434 C 0.02699 0.29064 0.427 0.0
C435 C 0.05367 0.3216 0.44173 0.0
H436 H 0.96082 0.28668 0.32961 0.0
H437 H 0.06619 0.31569 0.45765 0.0
H438 H 0.86586 0.19641 0.46689 0.0
H439 H 0.76256 0.07979 0.34484 0.0
H440 H 1.02011 0.26103 0.43122 0.0
H441 H 0.08546 0.38416 0.44684 0.0
H442 H 0.80058 0.14916 0.35826 0.0
H443 H 0.98488 0.35273 0.31165 0.0
H444 H 0.08363 0.43107 0.41609 0.0
H445 H 0.06216 0.4413 0.37583 0.0
H446 H 0.86189 0.1485 0.49697 0.0
H447 H 0.02585 0.41215 0.33641 0.0
H448 H 0.75644 0.02673 0.37212 0.0
N449 N 0.84611 0.15601 0.43702 0.0
C450 C 0.82791 0.11728 0.43097 0.0
C451 C 0.85291 0.1394 0.47832 0.0
C452 C 0.82315 0.08834 0.44804 0.0
C453 C 0.85614 0.16685 0.46085 0.0
C454 C 0.83705 0.10007 0.47177 0.0
N455 N 0.81639 0.13517 0.39233 0.0
C456 C 0.79799 0.12606 0.37018 0.0
C457 C 0.79044 0.06654 0.40119 0.0
C458 C 0.81171 0.10637 0.40798 0.0
C459 C 0.77302 0.05702 0.37806 0.0
C460 C 0.77646 0.0869 0.36259 0.0
H461 H 0.83406 0.0788 0.48544 0.0
H462 H 0.79985 0.02601 0.45391 0.0
H463 H 0.77126 1.00691 0.41279 0.0
O464 O 0.80399 0.20423 0.39248 0.0
O465 O 0.87453 0.16655 0.38531 0.0
O466 O 0.93661 0.19064 0.39971 0.0
O467 O 0.807 0.19249 0.43013 0.0
O468 O 0.8618 0.22089 0.36785 0.0
O469 O 0.91844 0.22031 0.35547 0.0
O470 O 1.02021 0.25358 0.3799 0.0
O471 O 0.93334 0.28377 0.38078 0.0
O472 O 0.88974 0.26081 0.41287 0.0
O473 O 0.97832 0.22866 0.35106 0.0
O474 O 0.94881 0.22522 0.41971 0.0
O475 O 0.89877 0.23487 0.43281 0.0
C476 C 0.90323 0.161 0.39218 0.0
C477 C 0.74369 0.16135 0.41264 0.0
C478 C 0.67334 0.13493 0.40475 0.0
C479 C 0.66624 0.09783 0.41256 0.0
C480 C 0.73501 0.12403 0.42098 0.0
C481 C 0.6968 0.09255 0.42061 0.0
C482 C 0.71249 0.16683 0.40475 0.0
C483 C 0.88574 0.22074 0.3507 0.0
C484 C 0.78506 0.19424 0.41308 0.0
C485 C 0.80343 0.0486 0.44112 0.0
C486 C 0.78701 0.0377 0.41774 0.0
C487 C 0.91044 0.28798 0.39669 0.0
C488 C 1.01465 0.19715 0.36057 0.0
C489 C 0.0529 0.16479 0.3692 0.0
C490 C 1.01924 0.12826 0.36468 0.0
C491 C 0.98173 0.16011 0.3558 0.0
C492 C 0.05049 0.19935 0.36697 0.0
C493 C 0.98407 0.12604 0.35794 0.0
C494 C 0.9328 0.23639 0.43656 0.0
C495 C 1.0108 0.23288 0.36004 0.0
H496 H 0.63668 0.07294 0.41325 0.0
H497 H 0.75764 0.11918 0.42829 0.0
H498 H 0.69074 0.06401 0.42705 0.0
H499 H 0.71861 0.19562 0.39877 0.0
H500 H 1.02029 0.1013 0.36599 0.0
H501 H 0.95389 0.15727 0.35063 0.0
H502 H 0.07607 0.22766 0.37072 0.0
H503 H 0.95842 0.09773 0.3544 0.0
Tb504 Tb 0.19318 0.37164 0.61296 0.0
C505 C 0.04949 0.34307 0.68184 0.0
N506 N 0.07038 0.32412 0.68171 0.0
C507 C 0.06936 0.32209 0.72544 0.0
C508 C 0.03807 0.35282 0.70392 0.0
C509 C 0.07985 0.31292 0.70304 0.0
C510 C 0.04858 0.34235 0.72592 0.0
C511 C 1.01646 0.37082 0.65888 0.0
C512 C 0.03886 0.35196 0.65967 0.0
C513 C 1.00539 0.38113 0.68083 0.0
C514 C 1.01619 0.37218 0.70331 0.0
Tb515 Tb 0.08655 0.31162 0.64421 0.0
N516 N 0.05077 0.34219 0.63883 0.0
C517 C 1.00565 0.37843 0.63607 0.0
C518 C 0.03899 0.34806 0.61655 0.0
C519 C 1.01668 0.36669 0.61483 0.0
H520 H 0.09459 0.29599 0.7027 0.0
H521 H 1.00789 0.37184 0.59713 0.0
H522 H 0.17948 0.34712 0.55449 0.0
H523 H 0.2743 0.34677 0.6842 0.0
H524 H 0.04686 0.33867 0.60009 0.0
H525 H 0.98838 0.39285 0.63465 0.0
H526 H 0.23885 0.37686 0.66625 0.0
H527 H 0.07688 0.31304 0.74227 0.0
H528 H 0.98825 0.39577 0.68064 0.0
H529 H 1.0072 0.38003 0.72008 0.0
H530 H 0.19725 0.31015 0.52582 0.0
H531 H 0.04021 0.34914 0.74329 0.0
H532 H 0.2903 0.30448 0.65903 0.0
N533 N 0.20695 0.33731 0.58502 0.0
C534 C 0.22881 0.32166 0.59317 0.0
C535 C 0.20616 0.31303 0.54475 0.0
C536 C 0.23997 0.30068 0.57735 0.0
C537 C 0.19583 0.33367 0.56111 0.0
C538 C 0.22828 0.29642 0.5529 0.0
N539 N 0.22766 0.34646 0.63232 0.0
C540 C 0.24208 0.35578 0.65555 0.0
C541 C 0.26174 0.3101 0.62678 0.0
C542 C 0.23923 0.32612 0.61763 0.0
C543 C 0.27309 0.31637 0.65128 0.0
C544 C 0.26378 0.33989 0.6656 0.0
H545 H 0.23622 0.28045 0.54017 0.0
H546 H 0.27089 0.26815 0.57461 0.0
H547 H 0.29004 0.27645 0.61789 0.0
O548 O 0.2454 0.4231 0.62324 0.0
O549 O 0.15753 0.30708 0.61036 0.0
O550 O 0.1275 0.28928 0.64748 0.0
O551 O 0.23044 0.4101 0.58565 0.0
O552 O 0.18581 0.38489 0.6517 0.0
O553 O 0.13842 0.32434 0.66487 0.0
O554 O 0.04772 0.26092 0.6246 0.0
O555 O 0.11241 0.37661 0.64148 0.0
O556 O 0.15689 0.39858 0.60928 0.0
O557 O 0.04149 0.26377 0.66339 0.0
O558 O 0.08944 0.30765 0.60464 0.0
O559 O 0.14489 0.36084 0.58726 0.0
C560 C 0.14379 0.28228 0.62865 0.0
C561 C 0.29845 0.44124 0.59576 0.0
C562 C 0.37001 0.48205 0.6014 0.0
C563 C 0.37497 0.4558 0.5864 0.0
C564 C 0.3049 0.41637 0.58043 0.0
C565 C 0.34274 0.4234 0.57604 0.0
C566 C 0.33132 0.47443 0.60607 0.0
C567 C 0.16619 0.36019 0.66961 0.0
C568 C 0.2577 0.43263 0.60093 0.0
C569 C 0.26208 0.28443 0.58647 0.0
C570 C 0.27287 0.28906 0.61113 0.0
C571 C 0.13502 0.40364 0.62534 0.0
C572 C 0.98415 0.22204 0.641 0.0
C573 C 0.92232 0.1602 0.6359 0.0
C574 C 0.90254 0.18166 0.63434 0.0
C575 C 0.9638 0.24277 0.63951 0.0
C576 C 0.96332 0.1808 0.63932 0.0
C577 C 0.92318 0.22259 0.63621 0.0
C578 C 0.10878 0.32998 0.58589 0.0
C579 C 0.02709 0.24273 0.64383 0.0
H580 H 0.40401 0.46095 0.58198 0.0
H581 H 0.28081 0.39159 0.57153 0.0
H582 H 0.34717 0.40389 0.56422 0.0
H583 H 0.32677 0.4941 0.61769 0.0
H584 H 0.871 0.16674 0.63197 0.0
H585 H 0.97923 0.27442 0.64085 0.0
H586 H 0.97916 0.16484 0.64026 0.0
H587 H 0.90761 0.23875 0.63509 0.0
Tb588 Tb 0.25361 0.95179 0.87965 0.0
C589 C 0.12354 0.80873 0.93127 0.0
N590 N 0.16117 0.83171 0.93895 0.0
C591 C 0.13846 0.83363 0.97928 0.0
C592 C 0.09172 0.79767 0.94736 0.0
C593 C 0.16911 0.84393 0.96264 0.0
C594 C 0.09961 0.81046 0.97161 0.0
C595 C 0.07845 0.77397 0.89825 0.0
C596 C 0.11711 0.7973 0.90696 0.0
C597 C 0.04659 0.76291 0.91418 0.0
C598 C 0.05321 0.77469 0.93868 0.0
Tb599 Tb 0.20863 0.84505 0.9106 0.0
N600 N 0.14871 0.80907 0.89192 0.0
C601 C 0.07294 0.762 0.87385 0.0
C602 C 0.1433 0.79443 0.86873 0.0
C603 C 0.10553 0.77177 0.85916 0.0
H604 H 0.19904 0.86118 0.96886 0.0
H605 H 0.10159 0.761 0.8406 0.0
H606 H 0.22983 0.94395 0.82112 0.0
H607 H 0.3923 0.03173 0.92651 0.0
H608 H 0.16759 0.79841 0.85769 0.0
H609 H 0.04372 0.74415 0.86643 0.0
H610 H 0.32015 0.9924 0.92353 0.0
H611 H 0.14483 0.84342 0.99804 0.0
H612 H 1.01671 0.74515 0.90775 0.0
H613 H 0.02833 0.76601 0.95073 0.0
H614 H 0.26456 0.96164 0.7815 0.0
H615 H 0.07595 0.80262 0.98454 0.0
H616 H 0.43282 0.05128 0.88895 0.0
N617 N 0.28217 0.96841 0.84207 0.0
C618 C 0.32198 0.98949 0.84188 0.0
C619 C 0.28112 0.96936 0.79832 0.0
C620 C 0.34312 1.00102 0.81977 0.0
C621 C 0.26149 0.95887 0.82076 0.0
C622 C 0.32214 0.99033 0.7978 0.0
N623 N 0.3199 0.98799 0.8849 0.0
C624 C 0.33749 1.0001 0.90713 0.0
C625 C 0.38275 0.02283 0.86477 0.0
C626 C 0.34153 1.00016 0.86403 0.0
C627 C 0.40116 0.03379 0.88757 0.0
C628 C 0.37839 0.0227 0.90883 0.0
H629 H 0.33726 0.99866 0.7804 0.0
H630 H 0.40114 0.03218 0.80354 0.0
H631 H 0.43585 0.05137 0.84295 0.0
O632 O 0.24451 0.99211 0.89978 0.0
O633 O 0.29365 0.9268 0.88186 0.0
O634 O 0.27205 0.88114 0.91346 0.0
O635 O 0.24872 0.99589 0.86069 0.0
O636 O 0.24238 0.94559 0.91895 0.0
O637 O 0.24753 0.89401 0.93552 0.0
O638 O 0.20814 0.79283 0.90055 0.0
O639 O 0.1778 0.87913 0.91258 0.0
O640 O 0.19032 0.91062 0.87581 0.0
O641 O 0.21057 0.80848 0.93808 0.0
O642 O 0.22839 0.85246 0.87168 0.0
O643 O 0.21528 0.90007 0.85853 0.0
C644 C 0.29858 0.90372 0.89737 0.0
C645 C 0.26689 0.05472 0.88227 0.0
C646 C 0.2674 0.11709 0.88613 0.0
C647 C 0.30863 0.13672 0.88731 0.0
C648 C 0.30798 0.075 0.88335 0.0
C649 C 0.32867 0.11579 0.88583 0.0
C650 C 0.2467 0.07588 0.88347 0.0
C651 C 0.25199 0.92978 0.93687 0.0
C652 C 0.24449 1.01154 0.88052 0.0
C653 C 0.38433 0.02311 0.82034 0.0
C654 C 0.4041 0.03404 0.84279 0.0
C655 C 0.16634 0.89223 0.89411 0.0
C656 C 0.17461 0.7402 0.92855 0.0
C657 C 0.1452 0.6687 0.92364 0.0
C658 C 0.11356 0.66336 0.93834 0.0
C659 C 0.14304 0.73347 0.94376 0.0
C660 C 0.17583 0.70747 0.91876 0.0
C661 C 0.11267 0.69545 0.94836 0.0
C662 C 0.22304 0.87201 0.85384 0.0
C663 C 0.20607 0.78109 0.92295 0.0
H664 H 0.32546 0.16837 0.88909 0.0
H665 H 0.32405 0.05939 0.88237 0.0
H666 H 0.36041 0.13127 0.88666 0.0
H667 H 0.2149 0.06017 0.88283 0.0
H668 H 0.08988 0.63413 0.94267 0.0
H669 H 0.14182 0.7575 0.95237 0.0
H670 H 0.20029 0.71214 0.90732 0.0
H671 H 0.08846 0.69081 0.96001 0.0
Tb672 Tb 0.66158 0.82237 0.60786 0.0
C673 C 0.69748 0.70935 0.67506 0.0
N674 N 0.71503 0.74912 0.67499 0.0
C675 C 0.71942 0.75005 0.71866 0.0
C676 C 0.68964 0.68817 0.69709 0.0
C677 C 0.72665 0.76974 0.69632 0.0
C678 C 0.7006 0.70907 0.71908 0.0
C679 C 0.6708 0.64872 0.65203 0.0
C680 C 0.68817 0.68989 0.65288 0.0
C681 C 0.66232 0.62735 0.67393 0.0
C682 C 0.6717 0.64703 0.69641 0.0
Tb683 Tb 0.72516 0.77778 0.6375 0.0
N684 N 0.69611 0.71152 0.63209 0.0
C685 C 0.66281 0.6304 0.62918 0.0
C686 C 0.69022 0.69404 0.60979 0.0
C687 C 0.67295 0.65322 0.60797 0.0
H688 H 0.74255 0.80143 0.69605 0.0
H689 H 0.66774 0.63942 0.59022 0.0
H690 H 0.68612 0.83057 0.54931 0.0
H691 H 0.68554 0.93089 0.67702 0.0
H692 H 0.6989 0.71141 0.59344 0.0
H693 H 0.64948 0.5988 0.62771 0.0
H694 H 0.65759 0.86439 0.66067 0.0
H695 H 0.72893 0.76654 0.73548 0.0
H696 H 0.64881 0.59565 0.67367 0.0
H697 H 0.66532 0.6302 0.71315 0.0
H698 H 0.72122 0.88411 0.51952 0.0
H699 H 0.69535 0.6939 0.73639 0.0
H700 H 0.72458 0.98823 0.65032 0.0
N701 N 0.69472 0.8691 0.57891 0.0
C702 C 0.70895 0.9069 0.5862 0.0
C703 C 0.71814 0.8909 0.53825 0.0
C704 C 0.72887 0.93835 0.56972 0.0
C705 C 0.69858 0.86063 0.55525 0.0
C706 C 0.7334 0.92992 0.54551 0.0
N707 N 0.68545 0.88271 0.62592 0.0
C708 C 0.67703 0.88857 0.64923 0.0
C709 C 0.71928 0.95277 0.61879 0.0
C710 C 0.70436 0.91392 0.61049 0.0
C711 C 0.71347 0.95884 0.64321 0.0
C712 C 0.69178 0.92656 0.65839 0.0
H713 H 0.74856 0.95327 0.53229 0.0
H714 H 0.75936 1.00165 0.56561 0.0
H715 H 0.75076 1.01425 0.60852 0.0
O716 O 0.61045 0.82354 0.61859 0.0
O717 O 0.72635 0.85411 0.60578 0.0
O718 O 0.74669 0.84095 0.64192 0.0
O719 O 0.62193 0.81939 0.58093 0.0
O720 O 0.65092 0.80327 0.64695 0.0
O721 O 0.71161 0.81511 0.65967 0.0
O722 O 0.77327 0.78568 0.61636 0.0
O723 O 0.66037 0.73665 0.63571 0.0
O724 O 0.63384 0.75891 0.60597 0.0
O725 O 0.77575 0.78498 0.65548 0.0
O726 O 0.72888 0.79178 0.59865 0.0
O727 O 0.67088 0.78302 0.58273 0.0
C728 C 0.75106 0.86538 0.62413 0.0
C729 C 0.59029 0.85604 0.59046 0.0
C730 C 0.54886 0.88619 0.59562 0.0
C731 C 0.57427 0.91673 0.57991 0.0
C732 C 0.61421 0.88653 0.5743 0.0
C733 C 0.60647 0.91674 0.56932 0.0
C734 C 0.55712 0.85573 0.60087 0.0
C735 C 0.67623 0.80865 0.66452 0.0
C736 C 0.59982 0.82469 0.59631 0.0
C737 C 0.74387 0.97706 0.57797 0.0
C738 C 0.73908 0.98424 0.60243 0.0
C739 C 0.63116 0.73211 0.62144 0.0
C740 C 0.81579 0.76611 0.63384 0.0
C741 C 0.87844 0.76701 0.63112 0.0
C742 C 0.85755 0.72577 0.62949 0.0
C743 C 0.7957 0.72504 0.6323 0.0
C744 C 0.85717 0.78699 0.63344 0.0
C745 C 0.81654 0.70504 0.63018 0.0
C746 C 0.70222 0.77864 0.58141 0.0
C747 C 0.79429 0.78782 0.63527 0.0
H748 H 0.5686 0.94022 0.57524 0.0
H749 H 0.6388 0.88701 0.56522 0.0
H750 H 0.62533 0.9401 0.55692 0.0
H751 H 0.53802 0.83208 0.61306 0.0
H752 H 0.87296 0.70947 0.62794 0.0
H753 H 0.76402 0.70846 0.63264 0.0
H754 H 0.87273 0.81878 0.63444 0.0
H755 H 0.80084 0.67332 0.629 0.0
Tb756 Tb 0.08781 0.31812 0.87858 0.0
C757 C 0.23144 0.33645 0.93218 0.0
N758 N 0.20796 0.35126 0.93863 0.0
C759 C 0.20581 0.33006 0.97991 0.0
C760 C 0.24186 0.31652 0.94934 0.0
C761 C 0.1961 0.34949 0.96225 0.0
C762 C 0.22853 0.31326 0.97341 0.0
C763 C 0.26742 0.32423 0.90064 0.0
C764 C 0.24402 0.34028 0.90803 0.0
C765 C 0.27761 0.3041 0.91765 0.0
C766 C 0.26492 0.3003 0.94193 0.0
Tb767 Tb 0.19605 0.38376 0.90857 0.0
N768 N 0.23336 0.35974 0.89189 0.0
C769 C 0.28024 0.32921 0.8764 0.0
C770 C 0.24837 0.36712 0.86873 0.0
C771 C 0.27112 0.35119 0.86049 0.0
H772 H 0.17956 0.36336 0.96767 0.0
H773 H 0.2823 0.35661 0.84199 0.0
H774 H 0.10118 0.31497 0.81853 0.0
H775 H 0.9898 0.35221 0.92785 0.0
H776 H 0.24445 0.38641 0.85665 0.0
H777 H 0.29811 0.31716 0.86999 0.0
H778 H 0.03187 0.32253 0.92207 0.0
H779 H 0.196 0.32831 0.99858 0.0
H780 H 0.29545 0.29149 0.91224 0.0
H781 H 0.27304 0.28468 0.95482 0.0
H782 H 0.09105 0.34418 0.7814 0.0
H783 H 0.2359 0.29816 0.98713 0.0
H784 H 0.97996 0.38763 0.89365 0.0
N785 N 0.07692 0.34017 0.84237 0.0
C786 C 0.05598 0.35902 0.84388 0.0
C787 C 0.08125 0.34881 0.79888 0.0
C788 C 0.04827 0.37504 0.82302 0.0
C789 C 0.0876 0.33292 0.82008 0.0
C790 C 0.06216 0.37063 0.8004 0.0
N791 N 0.04733 0.3431 0.88561 0.0
C792 C 0.02819 0.33853 0.90728 0.0
C793 C 1.01617 0.37704 0.86848 0.0
C794 C 0.04011 0.36001 0.8662 0.0
C795 C 0.99864 0.37495 0.89113 0.0
C796 C 1.00418 0.35503 0.9105 0.0
H797 H 0.05713 0.38278 0.78395 0.0
H798 H 1.01998 0.40658 0.80953 0.0
H799 H 0.99183 0.40832 0.8494 0.0
O800 O 0.05075 0.26352 0.89545 0.0
O801 O 0.10429 0.37659 0.89387 0.0
O802 O 0.17147 0.41509 0.88923 0.0
O803 O 0.04312 0.27268 0.85784 0.0
O804 O 0.09556 0.3132 0.91772 0.0
O805 O 0.14574 0.37221 0.93316 0.0
O806 O 0.257 0.42227 0.90885 0.0
O807 O 0.16165 0.31914 0.91152 0.0
O808 O 0.1315 0.29937 0.87455 0.0
O809 O 0.21985 0.43266 0.93247 0.0
O810 O 0.19109 0.39408 0.86911 0.0
O811 O 0.13983 0.33456 0.85593 0.0
C812 C 0.13649 0.41105 0.89194 0.0
C813 C 0.98669 0.22612 0.87935 0.0
C814 C 0.92607 0.16327 0.8853 0.0
C815 C 0.90504 0.18352 0.8862 0.0
C816 C 0.96488 0.24545 0.87974 0.0
C817 C 0.92434 0.22425 0.88334 0.0
C818 C 0.96711 0.18494 0.8819 0.0
C819 C 0.11043 0.34007 0.93501 0.0
C820 C 0.02967 0.24823 0.87601 0.0
C821 C 0.02591 0.39374 0.82531 0.0
C822 C 1.00983 0.39468 0.84801 0.0
C823 C 0.1502 0.29476 0.89297 0.0
C824 C 0.27832 0.48833 0.91666 0.0
C825 C 0.34119 0.54549 0.90457 0.0
C826 C 0.32099 0.5652 0.89807 0.0
C827 C 0.25912 0.50881 0.90984 0.0
C828 C 0.31968 0.50709 0.91424 0.0
C829 C 0.28035 0.54707 0.90086 0.0
C830 C 0.16936 0.36997 0.85148 0.0
C831 C 0.25551 0.44648 0.92418 0.0
H832 H 0.87347 0.16772 0.88856 0.0
H833 H 0.97899 0.2768 0.87705 0.0
H834 H 0.90775 0.23942 0.88368 0.0
H835 H 0.98382 0.16984 0.88138 0.0
H836 H 0.33673 0.59473 0.89071 0.0
H837 H 0.22763 0.49501 0.91099 0.0
H838 H 0.33484 0.49134 0.91896 0.0
H839 H 0.26514 0.56251 0.89563 0.0
Tb840 Tb 0.21565 0.83907 0.61507 0.0
C841 C 0.33144 0.98083 0.67862 0.0
N842 N 0.29168 0.95959 0.68018 0.0
C843 C 0.29606 0.95654 0.72376 0.0
C844 C 0.3552 0.98935 0.69951 0.0
C845 C 0.27378 0.94934 0.70251 0.0
C846 C 0.33696 0.97598 0.72222 0.0
C847 C 0.38914 0.02051 0.65383 0.0
C848 C 0.34822 0.99629 0.65619 0.0
C849 C 0.41316 0.02764 0.67436 0.0
C850 C 0.39622 1.01204 0.69716 0.0
Tb851 Tb 0.2587 0.94794 0.64398 0.0
N852 N 0.32407 0.98842 0.63674 0.0
C853 C 0.40448 0.0375 0.63105 0.0
C854 C 0.33854 1.00695 0.61488 0.0
C855 C 0.379 0.03117 0.61159 0.0
H856 H 0.24225 0.93562 0.70406 0.0
H857 H 0.39049 0.04507 0.59411 0.0
H858 H 0.21163 0.85293 0.55564 0.0
H859 H 0.10233 0.75571 0.68241 0.0
H860 H 0.31884 1.00257 0.59997 0.0
H861 H 0.4358 0.05636 0.62848 0.0
H862 H 0.16988 0.79233 0.66745 0.0
H863 H 0.28165 0.94724 0.7413 0.0
H864 H 0.44475 0.04587 0.67292 0.0
H865 H 0.41502 0.0186 0.71297 0.0
H866 H 0.16009 0.83582 0.52472 0.0
H867 H 0.35415 0.98173 0.73871 0.0
H868 H 0.04709 0.73968 0.65444 0.0
N869 N 0.1712 0.82623 0.58495 0.0
C870 C 0.13292 0.80346 0.59162 0.0
C871 C 0.15208 0.82687 0.54352 0.0
C872 C 0.10255 0.79262 0.57447 0.0
C873 C 0.18124 0.83697 0.56118 0.0
C874 C 0.11257 0.80487 0.55021 0.0
N875 N 0.15438 0.80282 0.63206 0.0
C876 C 0.14673 0.78845 0.65538 0.0
C877 C 0.08479 0.76907 0.62351 0.0
C878 C 0.12423 0.79191 0.61595 0.0
C879 C 0.07698 0.75708 0.64789 0.0
C880 C 0.10809 0.76635 0.66378 0.0
H881 H 0.09008 0.79716 0.53649 0.0
H882 H 0.03953 0.76176 0.56916 0.0
H883 H 0.02402 0.7411 0.61204 0.0
O884 O 0.19232 0.778 0.61503 0.0
O885 O 0.18648 0.87423 0.61093 0.0
O886 O 0.19618 0.90443 0.64774 0.0
O887 O 0.24122 0.81455 0.5921 0.0
O888 O 0.23106 0.8449 0.65449 0.0
O889 O 0.22262 0.89634 0.66684 0.0
O890 O 0.24071 0.98448 0.62696 0.0
O891 O 0.30064 0.9311 0.62893 0.0
O892 O 0.27154 0.86409 0.63433 0.0
O893 O 0.25829 0.99305 0.66445 0.0
O894 O 0.2475 0.94084 0.60466 0.0
O895 O 0.25405 0.88858 0.5899 0.0
C896 C 0.17337 0.88626 0.62907 0.0
C897 C 0.2368 0.75602 0.60899 0.0
C898 C 0.22974 0.69224 0.6204 0.0
C899 C 0.26854 0.7122 0.62919 0.0
C900 C 0.275 0.7749 0.61845 0.0
C901 C 0.29087 0.7531 0.62818 0.0
C902 C 0.21426 0.71455 0.60995 0.0
C903 C 0.2287 0.86711 0.67181 0.0
C904 C 0.21863 0.77903 0.60041 0.0
C905 C 0.06329 0.77019 0.58205 0.0
C906 C 0.05445 0.75851 0.60649 0.0
C907 C 0.30259 0.8987 0.63077 0.0
C908 C 0.26735 0.04883 0.64259 0.0
C909 C 0.26423 0.10888 0.63643 0.0
C910 C 0.30547 0.13037 0.63535 0.0
C911 C 0.30845 0.07101 0.64196 0.0
C912 C 0.24534 0.06792 0.64002 0.0
C913 C 0.32733 0.11152 0.6382 0.0
C914 C 0.25736 0.9239 0.58742 0.0
C915 C 0.24682 1.00596 0.64626 0.0
H916 H 0.28179 0.69616 0.63681 0.0
H917 H 0.29231 0.80649 0.61879 0.0
H918 H 0.32051 0.76803 0.63527 0.0
H919 H 0.18429 0.69986 0.60335 0.0
H920 H 0.32088 0.16192 0.63283 0.0
H921 H 0.32598 0.05721 0.6446 0.0
H922 H 0.21356 0.05087 0.64066 0.0
H923 H 0.35907 0.12844 0.63768 0.0
Tb924 Tb 0.71892 0.78412 0.87169 0.0
C925 C 0.70814 0.9128 0.9269 0.0
N926 N 0.69223 0.87434 0.93313 0.0
C927 C 0.71481 0.89237 0.97425 0.0
C928 C 0.72928 0.94275 0.94406 0.0
C929 C 0.69418 0.86368 0.95657 0.0
C930 C 0.73268 0.93208 0.96794 0.0
C931 C 0.72095 0.96169 0.89578 0.0
C932 C 0.70396 0.92203 0.903 0.0
C933 C 0.74244 0.99165 0.91274 0.0
C934 C 0.74649 0.98222 0.93683 0.0
Tb935 Tb 0.65787 0.83034 0.90331 0.0
N936 N 0.68293 0.89221 0.887 0.0
C937 C 0.71538 0.97009 0.87181 0.0
C938 C 0.67493 0.90054 0.86418 0.0
C939 C 0.69182 0.93939 0.85607 0.0
H940 H 0.67962 0.83313 0.96178 0.0
H941 H 0.68591 0.94565 0.83782 0.0
H942 H 0.73315 0.81136 0.81317 0.0
H943 H 0.66854 0.64112 0.91165 0.0
H944 H 0.65452 0.87786 0.85222 0.0
H945 H 0.72811 1.00016 0.86552 0.0
H946 H 0.70427 0.71386 0.91086 0.0
H947 H 0.71671 0.88385 0.99277 0.0
H948 H 0.75581 0.02224 0.90745 0.0
H949 H 0.76307 1.00567 0.94972 0.0
H950 H 0.70702 0.78017 0.77332 0.0
H951 H 0.74871 0.95423 0.98166 0.0
H952 H 0.63404 0.60381 0.87459 0.0
N953 N 0.70016 0.75839 0.83338 0.0
C954 C 0.67764 0.71871 0.83219 0.0
C955 C 0.6983 0.76249 0.78973 0.0
C956 C 0.66302 0.69938 0.80975 0.0
C957 C 0.71255 0.78017 0.81243 0.0
C958 C 0.6727 0.722 0.78842 0.0
N959 N 0.68849 0.71722 0.87424 0.0
C960 C 0.68909 0.69765 0.89476 0.0
C961 C 0.6515 0.65597 0.85279 0.0
C962 C 0.67199 0.69731 0.85333 0.0
C963 C 0.64948 0.63561 0.87423 0.0
C964 C 0.66896 0.65657 0.89519 0.0
H965 H 0.66176 0.70836 0.77082 0.0
H966 H 0.62878 0.64276 0.79221 0.0
H967 H 0.61869 0.60469 0.82995 0.0
O968 O 0.77231 0.79969 0.88947 0.0
O969 O 0.65893 0.74369 0.88645 0.0
O970 O 0.62621 0.77785 0.8811 0.0
O971 O 0.76382 0.78147 0.85219 0.0
O972 O 0.72303 0.79188 0.91124 0.0
O973 O 0.66638 0.78863 0.92698 0.0
O974 O 0.61956 0.85307 0.90563 0.0
O975 O 0.72186 0.85628 0.90728 0.0
O976 O 0.74096 0.84744 0.86971 0.0
O977 O 0.60961 0.80386 0.92757 0.0
O978 O 0.64795 0.81739 0.86352 0.0
O979 O 0.7069 0.82434 0.85035 0.0
C980 C 0.62613 0.74472 0.88373 0.0
C981 C 0.80939 0.77155 0.87494 0.0
C982 C 0.87183 0.77334 0.88225 0.0
C983 C 0.85116 0.73206 0.88356 0.0
C984 C 0.78969 0.73044 0.87596 0.0
C985 C 0.81049 0.71089 0.88037 0.0
C986 C 0.85052 0.7929 0.87792 0.0
C987 C 0.69653 0.78213 0.92861 0.0
C988 C 0.78778 0.79272 0.87056 0.0
C989 C 0.64064 0.65816 0.80924 0.0
C990 C 0.63494 0.63648 0.83073 0.0
C991 C 0.74672 0.86955 0.88897 0.0
C992 C 0.55341 0.80698 0.91353 0.0
C993 C 0.49536 0.8123 0.90293 0.0
C994 C 0.47476 0.77168 0.89823 0.0
C995 C 0.53179 0.7665 0.90883 0.0
C996 C 0.53484 0.82973 0.91078 0.0
C997 C 0.4928 0.74908 0.90126 0.0
C998 C 0.67243 0.82071 0.84583 0.0
C999 C 0.59552 0.82605 0.92047 0.0
H1000 H 0.86655 0.71602 0.88656 0.0
H1001 H 0.75837 0.71343 0.87315 0.0
H1002 H 0.79506 0.67912 0.88113 0.0
H1003 H 0.86583 0.8247 0.87706 0.0
H1004 H 0.44432 0.75712 0.89259 0.0
H1005 H 0.54503 0.74827 0.91094 0.0
H1006 H 0.55134 0.86102 0.91431 0.0
H1007 H 0.47639 0.71782 0.89773 0.0
H1008 H 0.17564 0.27528 0.09854 0.0
H1009 H 0.1101 0.20296 0.1598 0.0
H1010 H 0.21461 0.24281 0.09726 0.0
H1011 H 0.14885 0.16992 0.15832 0.0
H1012 H 0.25689 0.15531 0.08796 0.0
H1013 H 0.21099 0.18013 0.08828 0.0
H1014 H 0.21703 0.18639 0.167 0.0
H1015 H 0.26289 0.16144 0.16657 0.0
C1016 C 0.16941 0.25225 0.11167 0.0
C1017 C 0.13984 0.24187 0.12935 0.0
C1018 C 0.19158 0.2334 0.11082 0.0
C1019 C 0.18504 0.2038 0.12776 0.0
C1020 C 0.15495 0.19285 0.14516 0.0
C1021 C 0.13246 0.2115 0.14585 0.0
C1022 C 0.24816 0.16177 0.10532 0.0
C1023 C 0.26375 0.15683 0.12721 0.0
C1024 C 0.22194 0.17607 0.10552 0.0
C1025 C 0.21046 0.18556 0.12766 0.0
C1026 C 0.22491 0.17907 0.14963 0.0
C1027 C 0.25119 0.16478 0.14941 0.0
H1028 H 0.08053 0.95756 0.4074 0.0
H1029 H 0.11857 0.89278 0.36241 0.0
H1030 H 1.01627 0.8986 0.41238 0.0
H1031 H 0.054 0.83358 0.36727 0.0
H1032 H 0.91799 0.76395 0.35184 0.0
H1033 H 0.98628 0.81745 0.35153 0.0
H1034 H 0.98173 0.82907 0.42967 0.0
H1035 H 0.91339 0.77535 0.42994 0.0
C1036 C 0.0753 0.93044 0.39896 0.0
C1037 C 0.10444 0.92969 0.3845 0.0
C1038 C 0.03858 0.89669 0.40186 0.0
C1039 C 0.03 0.86157 0.39005 0.0
C1040 C 0.05971 0.86037 0.37639 0.0
C1041 C 0.09672 0.89406 0.3738 0.0
C1042 C 0.93161 0.77808 0.36891 0.0
C1043 C 0.91048 0.76579 0.39089 0.0
C1044 C 0.9708 0.80832 0.36879 0.0
C1045 C 0.9894 0.82739 0.39059 0.0
C1046 C 0.96813 0.81505 0.41259 0.0
C1047 C 0.92911 0.78437 0.41274 0.0
H1048 H 0.88047 0.12384 0.1649 0.0
H1049 H 0.89255 0.12688 0.08653 0.0
H1050 H 0.86579 0.05553 0.16531 0.0
H1051 H 0.87818 0.05857 0.08691 0.0
H1052 H 0.90857 0.95972 0.10801 0.0
H1053 H 0.91414 0.02422 0.10351 0.0
H1054 H 0.81322 0.98713 0.15025 0.0
H1055 H 0.80744 0.92221 0.15451 0.0
C1056 C 0.88017 0.10991 0.14779 0.0
C1057 C 0.8879 0.13069 0.1257 0.0
C1058 C 0.8713 0.07068 0.14798 0.0
C1059 C 0.87075 0.05161 0.12613 0.0
C1060 C 0.87855 0.0725 0.10404 0.0
C1061 C 0.88676 0.11153 0.10381 0.0
C1062 C 0.88711 0.96513 0.11691 0.0
C1063 C 0.85753 0.93597 0.13157 0.0
C1064 C 0.89024 1.00201 0.1143 0.0
C1065 C 0.86429 1.01087 0.12666 0.0
C1066 C 0.83383 0.98124 0.14067 0.0
C1067 C 0.83028 0.94402 0.14292 0.0
H1068 H 0.25482 0.13788 0.35155 0.0
H1069 H 0.24368 0.13548 0.43 0.0
H1070 H 0.20126 0.15195 0.3477 0.0
H1071 H 0.19017 0.15001 0.4262 0.0
H1072 H 0.06333 0.12104 0.40385 0.0
H1073 H 0.12141 0.11512 0.41086 0.0
H1074 H 0.18469 0.20446 0.35646 0.0
H1075 H 0.12614 0.2101 0.3493 0.0
C1076 C 0.24075 0.14017 0.36798 0.0
C1077 C 0.25318 0.1352 0.39108 0.0
C1078 C 0.21042 0.14878 0.36578 0.0
C1079 C 0.19148 0.15225 0.38663 0.0
C1080 C 0.20394 0.14725 0.40977 0.0
C1081 C 0.23457 0.13898 0.41196 0.0
C1082 C 0.08981 0.13977 0.3936 0.0
C1083 C 0.0901 0.16585 0.3759 0.0
C1084 C 0.12317 0.13653 0.39772 0.0
C1085 C 0.15761 0.15906 0.38408 0.0
C1086 C 0.15844 0.18634 0.36705 0.0
C1087 C 0.12509 0.18988 0.36311 0.0
H1088 H 0.11601 0.87146 0.0949 0.0
H1089 H 0.10853 0.93146 0.15885 0.0
H1090 H 0.04465 0.83403 0.09254 0.0
H1091 H 0.0368 0.89408 0.15641 0.0
H1092 H 0.91464 0.77944 0.16226 0.0
H1093 H 0.985 0.82607 0.16317 0.0
H1094 H 0.9854 0.83719 0.08469 0.0
H1095 H 0.91488 0.79019 0.08387 0.0
C1096 C 0.09906 0.87681 0.10839 0.0
C1097 C 0.11801 0.90429 0.12716 0.0
C1098 C 0.05806 0.85551 0.10694 0.0
C1099 C 0.03478 0.86071 0.12439 0.0
C1100 C 0.05375 0.88895 0.14282 0.0
C1101 C 0.09487 0.91065 0.1441 0.0
C1102 C 0.92962 0.7924 0.14525 0.0
C1103 C 0.90932 0.78085 0.12295 0.0
C1104 C 0.97001 0.81922 0.14576 0.0
C1105 C 0.99108 0.8353 0.12399 0.0
C1106 C 0.9703 0.82502 0.10178 0.0
C1107 C 0.92988 0.7982 0.10129 0.0
H1108 H 0.80068 0.91979 0.43247 0.0
H1109 H 0.83634 0.91711 0.3583 0.0
H1110 H 0.8354 0.99152 0.43121 0.0
H1111 H 0.8711 0.98906 0.357 0.0
H1112 H 0.92301 0.12311 0.42647 0.0
H1113 H 0.90214 0.0528 0.42751 0.0
H1114 H 0.84739 0.03776 0.35702 0.0
H1115 H 0.86778 0.10747 0.35625 0.0
C1116 C 0.81628 0.93457 0.41596 0.0
C1117 C 0.81552 0.91268 0.39542 0.0
C1118 C 0.83645 0.97571 0.41531 0.0
C1119 C 0.85593 0.9961 0.39398 0.0
C1120 C 0.85618 0.97426 0.37367 0.0
C1121 C 0.83649 0.93306 0.37445 0.0
C1122 C 0.90736 0.10482 0.411 0.0
C1123 C 0.89695 0.12059 0.3913 0.0
C1124 C 0.8951 0.06457 0.41166 0.0
C1125 C 0.87301 0.03959 0.39235 0.0
C1126 C 0.86468 0.0561 0.37206 0.0
C1127 C 0.87621 0.09601 0.37165 0.0
H1128 H 0.20325 0.10036 0.66506 0.0
H1129 H 0.27385 0.16447 0.6029 0.0
H1130 H 0.16882 0.13774 0.66294 0.0
H1131 H 0.23978 0.20184 0.60083 0.0
H1132 H 0.15155 0.24207 0.5907 0.0
H1133 H 0.17641 0.19626 0.5919 0.0
H1134 H 0.18417 0.20591 0.67049 0.0
H1135 H 0.15901 0.25157 0.66921 0.0
C1136 C 0.21111 0.12214 0.65079 0.0
C1137 C 0.24137 0.12958 0.6342 0.0
C1138 C 0.19165 0.1438 0.64971 0.0
C1139 C 0.20166 0.17299 0.63181 0.0
C1140 C 0.23116 0.17953 0.6148 0.0
C1141 C 0.2509 0.15828 0.61607 0.0
C1142 C 0.15811 0.23396 0.60824 0.0
C1143 C 0.15364 0.25057 0.62983 0.0
C1144 C 0.17251 0.20787 0.60893 0.0
C1145 C 0.18263 0.19763 0.63128 0.0
C1146 C 0.17635 0.21287 0.65299 0.0
C1147 C 0.16191 0.239 0.65228 0.0
H1148 H 0.11613 0.88159 0.93152 0.0
H1149 H 0.12172 0.8776 0.853 0.0
H1150 H 0.04543 0.85621 0.92928 0.0
H1151 H 0.05094 0.8522 0.85065 0.0
H1152 H 0.92655 0.83496 0.8547 0.0
H1153 H 0.99818 0.86786 0.85779 0.0
H1154 H 0.98729 0.79363 0.9189 0.0
H1155 H 0.91601 0.76128 0.91602 0.0
C1156 C 0.10222 0.87551 0.91376 0.0
C1157 C 0.12439 0.88122 0.89246 0.0
C1158 C 0.06169 0.86086 0.91246 0.0
C1159 C 0.04231 0.85183 0.88979 0.0
C1160 C 0.06487 0.85912 0.86841 0.0
C1161 C 0.10546 0.87371 0.86973 0.0
C1162 C 0.93949 0.82605 0.86899 0.0
C1163 C 0.91547 0.79538 0.88506 0.0
C1164 C 0.98055 0.84463 0.87061 0.0
C1165 C 0.99863 0.83334 0.88854 0.0
C1166 C 0.97452 0.80334 0.90497 0.0
C1167 C 0.93357 0.78454 0.9032 0.0
H1168 H 0.77997 0.90942 0.66552 0.0
H1169 H 0.78985 0.91634 0.58702 0.0
H1170 H 0.82363 0.98054 0.66823 0.0
H1171 H 0.8335 0.9873 0.58961 0.0
H1172 H 0.86485 0.11535 0.60308 0.0
H1173 H 0.82674 0.04397 0.60037 0.0
H1174 H 0.89144 0.03455 0.66112 0.0
H1175 H 0.92937 0.10624 0.66401 0.0
C1176 C 0.7921 0.92607 0.64888 0.0
C1177 C 0.78126 0.90745 0.62605 0.0
C1178 C 0.81706 0.96682 0.65041 0.0
C1179 C 0.83183 0.98974 0.62912 0.0
C1180 C 0.82218 0.9707 0.60635 0.0
C1181 C 0.79729 0.93004 0.60485 0.0
C1182 C 0.87088 0.09807 0.61592 0.0
C1183 C 0.90008 0.11654 0.63382 0.0
C1184 C 0.84923 0.0571 0.61424 0.0
C1185 C 0.85593 0.03343 0.63056 0.0
C1186 C 0.88528 0.05187 0.6484 0.0
C1187 C 0.90726 0.09295 0.64992 0.0
H1188 H 0.16025 0.25601 0.93107 0.0
H1189 H 0.16631 0.26454 0.8525 0.0
H1190 H 0.18577 0.21071 0.92982 0.0
H1191 H 0.19175 0.21906 0.85115 0.0
H1192 H 0.28068 0.1756 0.91831 0.0
H1193 H 0.24901 0.21534 0.91996 0.0
H1194 H 0.17483 0.15007 0.85942 0.0
H1195 H 0.20685 0.11032 0.85769 0.0
C1196 C 0.16688 0.24801 0.91352 0.0
C1197 C 0.16171 0.26415 0.89191 0.0
C1198 C 0.18156 0.22211 0.91279 0.0
C1199 C 0.19113 0.21142 0.8904 0.0
C1200 C 0.18443 0.22639 0.8687 0.0
C1201 C 0.16983 0.25243 0.86945 0.0
C1202 C 0.25761 0.16971 0.90534 0.0
C1203 C 0.24642 0.13986 0.88781 0.0
C1204 C 0.23923 0.19233 0.90639 0.0
C1205 C 0.20941 0.18603 0.88977 0.0
C1206 C 0.19792 0.15593 0.87236 0.0
C1207 C 0.21602 0.13293 0.8715 0.0
H1208 H 0.12552 0.87005 0.66886 0.0
H1209 H 0.12639 0.87728 0.59026 0.0
H1210 H 0.05457 0.8445 0.66906 0.0
H1211 H 0.05563 0.8519 0.59037 0.0
H1212 H 0.93023 0.82713 0.66064 0.0
H1213 H 1.00209 0.86023 0.66012 0.0
H1214 H 0.99717 0.78856 0.59902 0.0
H1215 H 0.92574 0.75583 0.5995 0.0
C1216 C 0.11063 0.86687 0.65166 0.0
C1217 C 0.13139 0.87527 0.62952 0.0
C1218 C 0.06998 0.85221 0.65176 0.0
C1219 C 0.04924 0.84578 0.62971 0.0
C1220 C 0.07047 0.85585 0.60766 0.0
C1221 C 0.11104 0.87051 0.60758 0.0
C1222 C 0.94459 0.81875 0.64698 0.0
C1223 C 0.92223 0.78872 0.63018 0.0
C1224 C 0.98574 0.83746 0.64681 0.0
C1225 C 1.00552 0.82699 0.62959 0.0
C1226 C 0.98307 0.79757 0.61246 0.0
C1227 C 0.94204 0.77857 0.61284 0.0
H1228 H 0.86992 0.11747 0.91865 0.0
H1229 H 0.9334 0.11041 0.85638 0.0
H1230 H 0.83057 0.04599 0.91994 0.0
H1231 H 0.894 0.03861 0.85767 0.0
H1232 H 0.77764 0.91788 0.84946 0.0
H1233 H 0.82467 0.98837 0.8494 0.0
H1234 H 0.83376 0.98597 0.92788 0.0
H1235 H 0.78674 0.91544 0.92784 0.0
C1236 C 0.87561 0.10058 0.90532 0.0
C1237 C 0.90467 0.11962 0.88735 0.0
C1238 C 0.8532 0.05956 0.90613 0.0
C1239 C 0.8589 0.03649 0.8888 0.0
C1240 C 0.88857 0.05551 0.87114 0.0
C1241 C 0.91139 0.09661 0.87053 0.0
C1242 C 0.79025 0.93232 0.86663 0.0
C1243 C 0.77824 0.91129 0.88869 0.0
C1244 C 0.81721 0.97271 0.86661 0.0
C1245 C 0.83286 0.99294 0.88865 0.0
C1246 C 0.82191 0.97146 0.91061 0.0
C1247 C 0.79504 0.93107 0.91061 0.0
H1248 H 0.43346 0.18882 0.32582 0.0
H1249 H 0.30967 0.14794 0.31967 0.0
H1250 H 0.44091 0.20145 0.28158 0.0
H1251 H 0.31604 0.15761 0.2762 0.0
H1252 H 0.32898 0.189 0.19948 0.0
H1253 H 0.33503 0.19794 0.2435 0.0
H1254 H 0.42847 0.17011 0.24344 0.0
H1255 H 0.4243 0.16478 0.19886 0.0
C1256 C 0.40803 0.18306 0.31509 0.0
C1257 C 0.37096 0.16711 0.3262 0.0
C1258 C 0.41207 0.18973 0.28966 0.0
C1259 C 0.37911 0.1806 0.27491 0.0
C1260 C 0.3425 0.16607 0.28654 0.0
C1261 C 0.33866 0.15997 0.31169 0.0
C1262 C 0.35157 0.18601 0.2089 0.0
C1263 C 0.37626 0.1764 0.19589 0.0
C1264 C 0.35474 0.19047 0.23426 0.0
C1265 C 0.38152 0.18363 0.2475 0.0
C1266 C 0.40768 0.17598 0.23415 0.0
C1267 C 0.40533 0.17282 0.20855 0.0
H1268 H 0.75956 0.60779 0.31752 0.0
H1269 H 0.88123 0.69804 0.31832 0.0
H1270 H 0.7613 0.60524 0.27293 0.0
H1271 H 0.88469 0.69319 0.27426 0.0
H1272 H 0.86668 0.72245 0.19776 0.0
H1273 H 0.86785 0.71478 0.24124 0.0
H1274 H 0.77816 0.59247 0.23478 0.0
H1275 H 0.77496 0.60176 0.19063 0.0
C1276 C 0.78712 0.62588 0.30811 0.0
C1277 C 0.82031 0.653 0.32123 0.0
C1278 C 0.78826 0.62446 0.28249 0.0
C1279 C 0.82296 0.64959 0.2695 0.0
C1280 C 0.85689 0.67441 0.28317 0.0
C1281 C 0.85529 0.67677 0.30858 0.0
C1282 C 0.84713 0.69382 0.20556 0.0
C1283 C 0.82015 0.66295 0.19078 0.0
C1284 C 0.84822 0.68911 0.23071 0.0
C1285 C 0.82319 0.65284 0.24207 0.0
C1286 C 0.79751 0.6211 0.227 0.0
C1287 C 0.79598 0.62614 0.2016 0.0
H1288 H 0.85949 0.1639 0.19669 0.0
H1289 H 0.86667 0.27687 0.19875 0.0
H1290 H 0.8524 0.15869 0.24088 0.0
H1291 H 0.86138 0.27272 0.24358 0.0
H1292 H 0.83657 0.24199 0.32691 0.0
H1293 H 0.82509 0.24045 0.28252 0.0
H1294 H 0.90121 0.19212 0.27112 0.0
H1295 H 0.91156 0.19261 0.31442 0.0
C1296 C 0.85876 0.18732 0.20667 0.0
C1297 C 0.86358 0.22074 0.19436 0.0
C1298 C 0.85509 0.18458 0.23205 0.0
C1299 C 0.85722 0.21569 0.24598 0.0
C1300 C 0.85943 0.24813 0.2335 0.0
C1301 C 0.86242 0.25054 0.20784 0.0
C1302 C 0.85021 0.23048 0.31484 0.0
C1303 C 0.875 0.21749 0.32435 0.0
C1304 C 0.84394 0.2299 0.28941 0.0
C1305 C 0.86191 0.21579 0.27313 0.0
C1306 C 0.8861 0.20238 0.28292 0.0
C1307 C 0.89239 0.20308 0.30796 0.0
H1308 H 0.19484 0.43048 0.69472 0.0
H1309 H 0.16558 0.30983 0.70317 0.0
H1310 H 0.20594 0.44026 0.73897 0.0
H1311 H 0.17323 0.31803 0.74663 0.0
H1312 H 0.19906 0.33408 0.82378 0.0
H1313 H 0.21042 0.33985 0.78004 0.0
H1314 H 0.17499 0.42778 0.7768 0.0
H1315 H 0.16787 0.42453 0.82129 0.0
C1316 C 0.19125 0.40625 0.70598 0.0
C1317 C 0.17895 0.36931 0.6955 0.0
C1318 C 0.19702 0.41157 0.73143 0.0
C1319 C 0.19049 0.37999 0.74687 0.0
C1320 C 0.17966 0.34361 0.73585 0.0
C1321 C 0.17464 0.33862 0.71068 0.0
C1322 C 0.19516 0.35566 0.81376 0.0
C1323 C 0.18302 0.37913 0.82588 0.0
C1324 C 0.20083 0.3585 0.78848 0.0
C1325 C 0.1924 0.38338 0.77431 0.0
C1326 C 0.18215 0.40843 0.78678 0.0
C1327 C 0.17798 0.40662 0.81234 0.0
H1328 H 0.17347 0.87312 0.8204 0.0
H1329 H 0.26384 0.84247 0.82863 0.0
H1330 H 0.1738 0.86537 0.77695 0.0
H1331 H 0.26218 0.83115 0.78439 0.0
H1332 H 0.28449 0.86832 0.70201 0.0
H1333 H 0.28078 0.86176 0.74653 0.0
H1334 H 0.15796 0.82822 0.74354 0.0
H1335 H 0.16348 0.83912 0.69977 0.0
C1336 C 0.19291 0.86373 0.81285 0.0
C1337 C 0.2191 0.85908 0.82797 0.0
C1338 C 0.19275 0.85863 0.78768 0.0
C1339 C 0.21792 0.84735 0.77659 0.0
C1340 C 0.24274 0.84045 0.79197 0.0
C1341 C 0.24335 0.84632 0.81742 0.0
C1342 C 0.25663 0.85881 0.71103 0.0
C1343 C 0.22425 0.85414 0.69755 0.0
C1344 C 0.25435 0.85494 0.73661 0.0
C1345 C 0.21927 0.84532 0.74915 0.0
C1346 C 0.18607 0.83734 0.73505 0.0
C1347 C 0.18885 0.84275 0.70975 0.0
H1348 H 0.7299 0.85761 0.69699 0.0
H1349 H 0.60611 0.77475 0.69045 0.0
H1350 H 0.72285 0.86228 0.74019 0.0
H1351 H 0.59797 0.78155 0.73443 0.0
H1352 H 0.6145 0.76417 0.81788 0.0
H1353 H 0.6097 0.76411 0.77331 0.0
H1354 H 0.70351 0.88521 0.77188 0.0
H1355 H 0.7101 0.88354 0.81595 0.0
C1356 C 0.70079 0.84074 0.70482 0.0
C1357 C 0.66871 0.81516 0.69028 0.0
C1358 C 0.69654 0.84395 0.7298 0.0
C1359 C 0.6597 0.82255 0.74126 0.0
C1360 C 0.62696 0.79821 0.72648 0.0
C1361 C 0.63144 0.79459 0.70121 0.0
C1362 C 0.63332 0.79094 0.8079 0.0
C1363 C 0.66277 0.82382 0.82018 0.0
C1364 C 0.63061 0.79103 0.78231 0.0
C1365 C 0.65691 0.82432 0.76858 0.0
C1366 C 0.68378 0.85837 0.78145 0.0
C1367 C 0.68725 0.8578 0.80682 0.0
H1368 H 0.30266 0.93205 0.97317 0.0
H1369 H 0.23142 0.98239 0.95228 0.0
H1370 H 0.32802 0.97774 1.00815 0.0
H1371 H 0.25694 0.0277 0.98608 0.0
H1372 H 0.27119 0.07009 0.06385 0.0
H1373 H 0.25063 0.02518 0.02963 0.0
H1374 H 0.37005 0.05124 0.01898 0.0
H1375 H 0.39075 0.09647 0.05422 0.0
C1376 C 0.29202 0.95235 0.97619 0.0
C1377 C 0.2647 0.95318 0.95996 0.0
C1378 C 0.307 0.97897 0.99597 0.0
C1379 C 0.29459 1.00658 1.00004 0.0
C1380 C 0.26698 1.00676 0.98387 0.0
C1381 C 0.25232 0.98061 0.96431 0.0
C1382 C 0.29334 0.06685 0.05404 0.0
C1383 C 0.33275 0.08741 0.0616 0.0
C1384 C 0.28149 0.04093 0.03433 0.0
C1385 C 0.30857 0.0344 0.02135 0.0
C1386 C 0.34831 0.05531 0.02863 0.0
C1387 C 0.36034 0.08176 0.04851 0.0
H1388 H 0.72209 0.63594 0.46273 0.0
H1389 H 0.82422 0.7512 0.45731 0.0
H1390 H 0.6991 0.65797 0.49811 0.0
H1391 H 0.80137 0.77345 0.49152 0.0
H1392 H 0.77484 0.79506 0.56695 0.0
H1393 H 0.79346 0.76741 0.53394 0.0
H1394 H 0.67293 0.70241 0.50995 0.0
H1395 H 0.65355 0.72937 0.54455 0.0
C1396 C 0.74013 0.66555 0.46955 0.0
C1397 C 0.77549 0.69156 0.45765 0.0
C1398 C 0.7266 0.67848 0.48945 0.0
C1399 C 0.74829 0.71762 0.49788 0.0
C1400 C 0.78402 0.74299 0.48609 0.0
C1401 C 0.79731 0.73019 0.46641 0.0
C1402 C 0.75193 0.77492 0.55478 0.0
C1403 C 0.71251 0.76466 0.5586 0.0
C1404 C 0.76283 0.75911 0.53555 0.0
C1405 C 0.73492 0.73267 0.51896 0.0
C1406 C 0.6953 0.72244 0.52245 0.0
C1407 C 0.68422 0.73837 0.54203 0.0
H1408 H 0.0571 0.26741 0.95103 0.0
H1409 H 0.10766 0.38957 0.97059 0.0
H1410 H 1.01149 0.24865 0.9846 0.0
H1411 H 0.06173 0.37023 1.00548 0.0
H1412 H 0.94428 0.31665 0.05258 0.0
H1413 H 0.98936 0.34014 0.01716 0.0
H1414 H 1.0124 0.24468 0.02773 0.0
H1415 H 0.96753 0.22132 0.06205 0.0
C1416 C 0.05892 0.29048 0.96272 0.0
C1417 C 0.08654 0.33016 0.958 0.0
C1418 C 0.03256 0.27955 0.9822 0.0
C1419 C 0.03271 0.30773 0.99804 0.0
C1420 C 0.06047 0.34764 0.99359 0.0
C1421 C 0.08724 0.35874 0.97383 0.0
C1422 C 0.95822 0.30023 0.04677 0.0
C1423 C 0.95171 0.26667 0.05987 0.0
C1424 C 0.98465 0.31407 0.02679 0.0
C1425 C 1.00474 0.29439 0.0194 0.0
C1426 C 0.9973 0.26047 0.03241 0.0
C1427 C 0.97138 0.24694 0.0522 0.0
H1428 H 0.38998 0.096 0.4712 0.0
H1429 H 0.26752 0.0474 0.4535 0.0
H1430 H 0.37121 0.05208 0.5071 0.0
H1431 H 0.2491 1.00397 0.48845 0.0
H1432 H 0.2261 0.9647 0.56727 0.0
H1433 H 0.2489 1.00853 0.53238 0.0
H1434 H 0.33869 0.97835 0.51872 0.0
H1435 H 0.31567 0.93405 0.55452 0.0
C1436 C 0.35918 0.07655 0.47517 0.0
C1437 C 0.33031 0.0756 0.45954 0.0
C1438 C 0.3484 0.05091 0.49548 0.0
C1439 C 0.30853 0.02425 0.50077 0.0
C1440 C 0.28001 0.02416 0.48528 0.0
C1441 C 0.29067 0.04922 0.46511 0.0
C1442 C 0.25043 0.96687 0.55672 0.0
C1443 C 0.26869 0.94536 0.5636 0.0
C1444 C 0.26359 0.99217 0.53661 0.0
C1445 C 0.29573 0.99722 0.52255 0.0
C1446 C 0.31403 0.97547 0.5292 0.0
C1447 C 0.30046 0.94957 0.54944 0.0
H1448 H 0.77691 0.66819 0.03445 0.0
H1449 H 0.74066 0.73694 0.07727 0.0
H1450 H 0.75287 0.68485 0.99757 0.0
H1451 H 0.71692 0.75297 0.04099 0.0
H1452 H 0.65319 0.75663 0.97186 0.0
H1453 H 0.66823 0.72995 1.00829 0.0
H1454 H 0.77233 0.74338 0.97293 0.0
H1455 H 0.75786 0.76965 0.93724 0.0
C1456 C 0.76373 0.68653 0.03616 0.0
C1457 C 0.76123 0.70119 0.05911 0.0
C1458 C 0.74991 0.69617 0.01498 0.0
C1459 C 0.73281 0.72037 0.01619 0.0
C1460 C 0.72925 0.73388 0.0392 0.0
C1461 C 0.74332 0.72468 0.06017 0.0
C1462 C 0.67922 0.75385 0.97189 0.0
C1463 C 0.70411 0.76558 0.95138 0.0
C1464 C 0.6879 0.7385 0.99278 0.0
C1465 C 0.72146 0.7341 0.99359 0.0
C1466 C 0.74589 0.74545 0.97298 0.0
C1467 C 0.73756 0.76104 0.95242 0.0
H1468 H 0.10979 0.37588 0.54671 0.0
H1469 H 0.05576 0.25619 0.57236 0.0
H1470 H 0.0649 0.3535 0.51135 0.0
H1471 H 1.01087 0.23445 0.53835 0.0
H1472 H 0.96376 0.19936 0.46173 0.0
H1473 H 1.00876 0.22405 0.49604 0.0
H1474 H 0.9945 0.32598 0.49983 0.0
H1475 H 0.94973 0.30118 0.46457 0.0
C1476 C 0.08885 0.34489 0.54466 0.0
C1477 C 0.08659 0.3179 0.56238 0.0
C1478 C 0.06266 0.33209 0.52465 0.0
C1479 C 0.03394 0.29204 0.5219 0.0
C1480 C 0.03264 0.26534 0.53945 0.0
C1481 C 0.05849 0.27797 0.55917 0.0
C1482 C 0.96955 0.22663 0.47022 0.0
C1483 C 0.95291 0.2481 0.46061 0.0
C1484 C 0.99553 0.24097 0.48992 0.0
C1485 C 1.00562 0.27723 0.50086 0.0
C1486 C 0.98787 0.29822 0.49175 0.0
C1487 C 0.9616 0.28368 0.47188 0.0
H1488 H 0.64313 0.17388 0.08348 0.0
H1489 H 0.65529 0.22982 0.15322 0.0
H1490 H 0.57153 0.14245 0.08694 0.0
H1491 H 0.58464 0.20017 0.15623 0.0
H1492 H 0.45573 0.12821 0.16581 0.0
H1493 H 0.52383 0.14294 0.16252 0.0
H1494 H 0.52049 0.15878 0.08463 0.0
H1495 H 0.45196 0.14252 0.08812 0.0
C1496 C 0.63061 0.1792 0.09964 0.0
C1497 C 0.65521 0.2048 0.11792 0.0
C1498 C 0.58949 0.16149 0.10154 0.0
C1499 C 0.57186 0.16868 0.12186 0.0
C1500 C 0.59664 0.19326 0.14044 0.0
C1501 C 0.63748 0.21083 0.13855 0.0
C1502 C 0.46935 0.13364 0.14794 0.0
C1503 C 0.44863 0.13382 0.12719 0.0
C1504 C 0.50857 0.14266 0.14602 0.0
C1505 C 0.52828 0.15279 0.12332 0.0
C1506 C 0.50653 0.1508 0.10238 0.0
C1507 C 0.46716 0.14141 0.10432 0.0
H1508 H 0.72013 0.55658 0.35366 0.0
H1509 H 0.68542 0.58616 0.42137 0.0
H1510 H 0.66662 0.48928 0.35722 0.0
H1511 H 0.63287 0.51774 0.42606 0.0
H1512 H 0.53025 0.3913 0.42456 0.0
H1513 H 0.57313 0.46126 0.41584 0.0
H1514 H 0.65354 0.43423 0.37841 0.0
H1515 H 0.61028 0.36521 0.38608 0.0
C1516 C 0.70058 0.54861 0.36924 0.0
C1517 C 0.70694 0.57655 0.38723 0.0
C1518 C 0.67012 0.50973 0.37154 0.0
C1519 C 0.64566 0.49718 0.39233 0.0
C1520 C 0.65075 0.5259 0.40973 0.0
C1521 C 0.6809 0.56525 0.40709 0.0
C1522 C 0.55684 0.40038 0.41414 0.0
C1523 C 0.56684 0.37238 0.40628 0.0
C1524 C 0.58178 0.44068 0.40937 0.0
C1525 C 0.61735 0.4541 0.39649 0.0
C1526 C 0.62655 0.42573 0.38816 0.0
C1527 C 0.60176 0.38574 0.39288 0.0
H1528 H 0.94065 0.36678 0.15495 0.0
H1529 H 0.87357 0.31827 0.08927 0.0
H1530 H 0.93716 0.42688 0.14909 0.0
H1531 H 0.86921 0.37765 0.08349 0.0
H1532 H 0.83501 0.47186 0.09226 0.0
H1533 H 0.83805 0.41247 0.10159 0.0
H1534 H 0.95968 0.48401 0.12218 0.0
H1535 H 0.95637 0.5431 0.11328 0.0
C1536 C 0.92554 0.36922 0.13913 0.0
C1537 C 0.90711 0.33784 0.12266 0.0
C1538 C 0.9233 0.40352 0.1358 0.0
C1539 C 0.90233 0.40704 0.11599 0.0
C1540 C 0.88478 0.37577 0.09926 0.0
C1541 C 0.88742 0.3418 0.10247 0.0
C1542 C 0.86214 0.47489 0.09923 0.0
C1543 C 0.89547 0.51232 0.10186 0.0
C1544 C 0.86408 0.44082 0.1043 0.0
C1545 C 0.8993 0.44329 0.11238 0.0
C1546 C 0.93205 0.48081 0.11608 0.0
C1547 C 0.93019 0.51476 0.11083 0.0
H1548 H 0.46717 0.15078 0.43166 0.0
H1549 H 0.44564 0.10594 0.358 0.0
H1550 H 0.5318 0.15703 0.43071 0.0
H1551 H 0.51072 0.11233 0.35691 0.0
H1552 H 0.61009 0.08616 0.37662 0.0
H1553 H 0.54804 0.08525 0.37297 0.0
H1554 H 0.59625 0.19339 0.41395 0.0
H1555 H 0.658 0.1932 0.4185 0.0
C1556 C 0.47643 0.14266 0.41511 0.0
C1557 C 0.45131 0.1283 0.39481 0.0
C1558 C 0.51371 0.14641 0.41452 0.0
C1559 C 0.52705 0.13576 0.39361 0.0
C1560 C 0.50157 0.12069 0.3734 0.0
C1561 C 0.46414 0.11693 0.37402 0.0
C1562 C 0.6076 0.10999 0.38467 0.0
C1563 C 0.63894 0.13947 0.39817 0.0
C1564 C 0.57198 0.10962 0.38241 0.0
C1565 C 0.56663 0.13888 0.39348 0.0
C1566 C 0.59887 0.16981 0.40565 0.0
C1567 C 0.63458 0.17011 0.40795 0.0
H1568 H 0.59336 0.38239 0.15522 0.0
H1569 H 0.5473 0.39099 0.08544 0.0
H1570 H 0.63287 0.45376 0.15723 0.0
H1571 H 0.58596 0.46256 0.08779 0.0
H1572 H 0.70701 0.57763 0.08388 0.0
H1573 H 0.65494 0.50954 0.08389 0.0
H1574 H 0.63567 0.51743 0.16082 0.0
H1575 H 0.68876 0.58636 0.1608 0.0
C1576 C 0.59136 0.3995 0.14037 0.0
C1577 C 0.56749 0.3807 0.11997 0.0
C1578 C 0.61369 0.44058 0.1417 0.0
C1579 C 0.61295 0.46418 0.12262 0.0
C1580 C 0.58773 0.44542 0.10271 0.0
C1581 C 0.56525 0.40429 0.10144 0.0
C1582 C 0.69128 0.56516 0.10077 0.0
C1583 C 0.70239 0.5874 0.12241 0.0
C1584 C 0.6611 0.52599 0.10074 0.0
C1585 C 0.64111 0.5076 0.12239 0.0
C1586 C 0.65076 0.53045 0.14386 0.0
C1587 C 0.6809 0.57006 0.14383 0.0
H1588 H 0.81358 0.43591 0.36243 0.0
H1589 H 0.8654 0.47958 0.43312 0.0
H1590 H 0.84395 0.39498 0.36093 0.0
H1591 H 0.89668 0.43928 0.43137 0.0
H1592 H 0.88965 0.31776 0.43489 0.0
H1593 H 0.87313 0.36956 0.43464 0.0
H1594 H 0.90427 0.39107 0.3583 0.0
H1595 H 0.92043 0.33826 0.35853 0.0
C1596 C 0.8318 0.4371 0.37758 0.0
C1597 C 0.83652 0.46075 0.39807 0.0
C1598 C 0.84964 0.41389 0.37658 0.0
C1599 C 0.87265 0.41344 0.39609 0.0
C1600 C 0.87878 0.43841 0.41612 0.0
C1601 C 0.8611 0.46185 0.41705 0.0
C1602 C 0.8935 0.3338 0.41805 0.0
C1603 C 0.90621 0.32362 0.39667 0.0
C1604 C 0.88427 0.36385 0.41797 0.0
C1605 C 0.88716 0.38464 0.39645 0.0
C1606 C 0.9013 0.37549 0.37518 0.0
C1607 C 0.91097 0.34547 0.37534 0.0
H1608 H 0.22575 0.64583 0.65896 0.0
H1609 H 0.17996 0.63906 0.58644 0.0
H1610 H 0.19425 0.57452 0.66049 0.0
H1611 H 0.14721 0.5674 0.58828 0.0
H1612 H 0.15507 0.45335 0.58664 0.0
H1613 H 0.16996 0.52104 0.58637 0.0
H1614 H 0.13435 0.51058 0.66191 0.0
H1615 H 0.11984 0.4421 0.66225 0.0
C1616 C 0.20861 0.6291 0.64339 0.0
C1617 C 0.20607 0.6484 0.62237 0.0
C1618 C 0.19003 0.58804 0.64442 0.0
C1619 C 0.16833 0.56495 0.62445 0.0
C1620 C 0.16412 0.58416 0.6039 0.0
C1621 C 0.18265 0.62531 0.6029 0.0
C1622 C 0.14982 0.46516 0.60318 0.0
C1623 C 0.13677 0.44235 0.6246 0.0
C1624 C 0.1581 0.5041 0.60294 0.0
C1625 C 0.15374 0.52167 0.62415 0.0
C1626 C 0.1386 0.49822 0.6453 0.0
C1627 C 0.12995 0.45887 0.64548 0.0
H1628 H 0.34867 0.91451 0.85902 0.0
H1629 H 0.33233 0.88905 0.93617 0.0
H1630 H 0.40278 0.90014 0.85887 0.0
H1631 H 0.38569 0.87477 0.93606 0.0
H1632 H 0.49619 0.86804 0.93373 0.0
H1633 H 0.45584 0.8993 0.9313 0.0
H1634 H 0.40665 0.83942 0.8633 0.0
H1635 H 0.44736 0.80882 0.86555 0.0
C1636 C 0.35716 0.90672 0.87601 0.0
C1637 C 0.33591 0.90259 0.89754 0.0
C1638 C 0.38792 0.89813 0.87592 0.0
C1639 C 0.39856 0.88595 0.89744 0.0
C1640 C 0.37875 0.8843 0.91917 0.0
C1641 C 0.34785 0.8923 0.91919 0.0
C1642 C 0.47738 0.86219 0.91801 0.0
C1643 C 0.47479 0.83553 0.89999 0.0
C1644 C 0.45396 0.87988 0.91669 0.0
C1645 C 0.4276 0.87172 0.89718 0.0
C1646 C 0.42667 0.84671 0.87851 0.0
C1647 C 0.44978 0.82879 0.87994 0.0
H1648 H 0.57023 0.71019 0.58981 0.0
H1649 H 0.60464 0.66763 0.65248 0.0
H1650 H 0.5071 0.65093 0.58935 0.0
H1651 H 0.54029 0.60729 0.65192 0.0
H1652 H 0.43761 0.48812 0.62017 0.0
H1653 H 0.5001 0.5478 0.62763 0.0
H1654 H 0.44614 0.61757 0.61144 0.0
H1655 H 0.38397 0.55786 0.60312 0.0
C1656 C 0.56448 0.68825 0.60364 0.0
C1657 C 0.59307 0.69407 0.62121 0.0
C1658 C 0.52776 0.65413 0.60346 0.0
C1659 C 0.51803 0.62434 0.6208 0.0
C1660 C 0.54669 0.62959 0.63824 0.0
C1661 C 0.58372 0.66415 0.63851 0.0
C1662 C 0.43896 0.5162 0.61839 0.0
C1663 C 0.40574 0.51807 0.61061 0.0
C1664 C 0.47483 0.55049 0.6229 0.0
C1665 C 0.47857 0.5877 0.61975 0.0
C1666 C 0.44467 0.58948 0.61355 0.0
C1667 C 0.40877 0.55517 0.60907 0.0
H1668 H 0.20531 0.65245 0.92641 0.0
H1669 H 0.08614 0.60403 0.90118 0.0
H1670 H 0.2024 0.58992 0.91756 0.0
H1671 H 0.08305 0.54158 0.89251 0.0
H1672 H 0.10619 0.44438 0.86144 0.0
H1673 H 0.10939 0.50803 0.86652 0.0
H1674 H 0.16692 0.5231 0.93604 0.0
H1675 H 0.16276 0.45929 0.93104 0.0
C1676 C 0.17878 0.62873 0.91853 0.0
C1677 C 0.14594 0.63321 0.91459 0.0
C1678 C 0.1769 0.59272 0.91373 0.0
C1679 C 0.14228 0.56047 0.9046 0.0
C1680 C 0.11018 0.5657 0.89947 0.0
C1681 C 0.11192 0.60149 0.90452 0.0
C1682 C 0.11886 0.46113 0.87794 0.0
C1683 C 0.13444 0.4472 0.89581 0.0
C1684 C 0.12096 0.49766 0.88082 0.0
C1685 C 0.13905 0.52111 0.90152 0.0
C1686 C 0.15362 0.50636 0.91963 0.0
C1687 C 0.15103 0.46973 0.91687 0.0
H1688 H 0.32093 0.8669 0.59279 0.0
H1689 H 0.36913 0.93311 0.65883 0.0
H1690 H 0.38001 0.86209 0.58708 0.0
H1691 H 0.42898 0.92913 0.65304 0.0
H1692 H 0.54487 0.94741 0.61639 0.0
H1693 H 0.48632 0.95146 0.62581 0.0
H1694 H 0.41351 0.82968 0.60575 0.0
H1695 H 0.47233 0.82587 0.596 0.0
C1696 C 0.34437 0.88056 0.60605 0.0
C1697 C 0.3404 0.90009 0.62632 0.0
C1698 C 0.37814 0.8776 0.60289 0.0
C1699 C 0.40917 0.89466 0.61979 0.0
C1700 C 0.40574 0.91561 0.63965 0.0
C1701 C 0.37161 0.91815 0.64292 0.0
C1702 C 0.51636 0.92133 0.61427 0.0
C1703 C 0.51333 0.88634 0.60529 0.0
C1704 C 0.48274 0.92363 0.61978 0.0
C1705 C 0.44506 0.89108 0.61627 0.0
C1706 C 0.44204 0.85555 0.60829 0.0
C1707 C 0.47576 0.85316 0.60299 0.0
H1708 H 0.60161 0.67507 0.90881 0.0
H1709 H 0.56188 0.73264 0.85881 0.0
H1710 H 0.53379 0.62016 0.91268 0.0
H1711 H 0.49509 0.67932 0.86299 0.0
H1712 H 0.37915 0.57285 0.86141 0.0
H1713 H 0.4494 0.61376 0.85425 0.0
H1714 H 0.47133 0.60615 0.93078 0.0
H1715 H 0.40054 0.56352 0.93758 0.0
C1716 C 0.57859 0.67563 0.89831 0.0
C1717 C 0.58711 0.70825 0.88357 0.0
C1718 C 0.53964 0.64444 0.90074 0.0
C1719 C 0.50858 0.64508 0.88822 0.0
C1720 C 0.51787 0.67708 0.87266 0.0
C1721 C 0.55639 0.70801 0.87037 0.0
C1722 C 0.39908 0.57935 0.87661 0.0
C1723 C 0.38434 0.56523 0.90008 0.0
C1724 C 0.43943 0.6031 0.87258 0.0
C1725 C 0.46636 0.61418 0.892 0.0
C1726 C 0.45171 0.59821 0.91532 0.0
C1727 C 0.41112 0.57385 0.91928 0.0
loop_
_geom_bond_atom_site_label_1
_geom_bond_atom_site_label_2
_geom_bond_distance
_geom_bond_site_symmetry_2
_ccdc_geom_bond_type
Tb0 N29 2.617 . S
Tb0 N35 2.572 . S
Tb0 O44 2.465 . S
Tb0 O45 2.387 . S
Tb0 O47 2.428 . S
Tb0 O48 2.308 . S
Tb0 O52 2.349 . S
Tb0 O55 2.393 . S
Tb0 C64 2.802 . S
C1 N2 1.379 . S
C1 C4 1.416 . S
C1 C8 1.424 . S
N2 C1 1.379 . S
N2 C5 1.334 . S
N2 Tb11 2.617 . S
C3 C5 1.390 . S
C3 C6 1.339 . S
C3 H23 0.930 1_554 S
C4 C1 1.416 . S
C4 C6 1.416 . S
C4 C10 1.448 . S
C5 N2 1.334 . S
C5 C3 1.390 . S
C5 H16 0.930 . S
C6 C3 1.339 . S
C6 C4 1.416 . S
C6 H27 0.930 . S
C7 C8 1.413 . S
C7 C9 1.427 . S
C7 C13 1.416 . S
C8 C1 1.424 . S
C8 C7 1.413 . S
C8 N12 1.361 . S
C9 C7 1.427 . S
C9 C10 1.328 . S
C9 H24 0.929 . S
C10 C4 1.448 . S
C10 C9 1.328 . S
C10 H25 0.930 . S
Tb11 N2 2.617 . S
Tb11 N12 2.572 . S
Tb11 O46 2.349 . S
Tb11 O49 2.393 . S
Tb11 O50 2.465 . S
Tb11 O51 2.387 . S
Tb11 O53 2.428 . S
Tb11 O54 2.308 . S
Tb11 C75 2.802 . S
N12 C8 1.361 . S
N12 Tb11 2.572 . S
N12 C14 1.340 . S
C13 C7 1.416 . S
C13 C15 1.332 . S
C13 H21 0.931 . S
C14 N12 1.340 . S
C14 C15 1.407 . S
C14 H20 0.930 . S
C15 C13 1.332 . S
C15 C14 1.407 . S
C15 H17 0.929 . S
H16 C5 0.930 . S
H17 C15 0.929 . S
H18 C33 0.930 . S
H19 C40 0.929 . S
H20 C14 0.930 . S
H21 C13 0.931 . S
H22 C36 0.930 . S
H23 C3 0.930 1_556 S
H24 C9 0.929 . S
H25 C10 0.930 . S
H26 C31 0.930 . S
H27 C6 0.930 . S
H28 C39 0.931 . S
N29 Tb0 2.617 . S
N29 C30 1.379 . S
N29 C33 1.334 . S
C30 N29 1.379 . S
C30 C32 1.416 . S
C30 C38 1.424 . S
C31 H26 0.930 . S
C31 C33 1.390 . S
C31 C34 1.339 . S
C32 C30 1.416 . S
C32 C34 1.416 . S
C32 C65 1.448 . S
C33 H18 0.930 . S
C33 N29 1.334 . S
C33 C31 1.390 . S
C34 C31 1.339 . S
C34 C32 1.416 . S
C34 H41 0.930 . S
N35 Tb0 2.572 . S
N35 C36 1.340 . S
N35 C38 1.361 . S
C36 H22 0.930 . S
C36 N35 1.340 . S
C36 C40 1.407 . S
C37 C38 1.413 . S
C37 C39 1.416 1_545 S
C37 C66 1.427 1_545 S
C38 C30 1.424 . S
C38 N35 1.361 . S
C38 C37 1.413 . S
C39 H28 0.931 . S
C39 C37 1.416 1_565 S
C39 C40 1.332 1_565 S
C40 H19 0.929 . S
C40 C36 1.407 . S
C40 C39 1.332 1_545 S
H41 C34 0.930 . S
H42 C65 0.930 . S
H43 C66 0.929 . S
O44 Tb0 2.465 . S
O44 C64 1.264 . S
O45 Tb0 2.387 . S
O45 C56 1.264 . S
O46 Tb11 2.349 . S
O46 C56 1.243 . S
O47 Tb0 2.428 . S
O47 C64 1.256 . S
O48 Tb0 2.308 . S
O48 C63 1.266 . S
O49 Tb11 2.393 . S
O49 C63 1.248 . S
O50 Tb11 2.465 . S
O50 C75 1.264 . S
O51 Tb11 2.387 . S
O51 C67 1.264 . S
O52 Tb0 2.349 . S
O52 C67 1.243 . S
O53 Tb11 2.428 . S
O53 C75 1.256 . S
O54 Tb11 2.308 . S
O54 C74 1.266 . S
O55 Tb0 2.393 . S
O55 C74 1.248 . S
C56 O45 1.264 . S
C56 O46 1.243 . S
C57 C60 1.400 . S
C57 C62 1.385 . S
C57 C64 1.494 1_565 S
C58 C59 1.399 . S
C58 C62 1.389 . S
C59 C58 1.399 . S
C59 C61 1.380 . S
C59 H76 0.929 . S
C60 C57 1.400 . S
C60 C61 1.392 . S
C60 H77 0.923 1_565 S
C61 C59 1.380 . S
C61 C60 1.392 . S
C61 H78 0.929 . S
C62 C57 1.385 . S
C62 C58 1.389 . S
C62 H79 0.931 . S
C63 O48 1.266 . S
C63 O49 1.248 . S
C64 Tb0 2.802 . S
C64 O44 1.264 . S
C64 O47 1.256 . S
C64 C57 1.494 1_545 S
C65 C32 1.448 . S
C65 H42 0.930 . S
C65 C66 1.328 1_545 S
C66 C37 1.427 1_565 S
C66 H43 0.929 . S
C66 C65 1.328 1_565 S
C67 O51 1.264 . S
C67 O52 1.243 . S
C68 C71 1.399 . S
C68 C72 1.383 . S
C68 C75 1.496 . S
C69 C70 1.399 . S
C69 C72 1.389 . S
C70 C69 1.399 . S
C70 C73 1.380 . S
C70 H80 0.929 . S
C71 C68 1.399 . S
C71 C73 1.392 . S
C71 H81 0.929 . S
C72 C68 1.383 . S
C72 C69 1.389 . S
C72 H82 0.931 . S
C73 C70 1.380 . S
C73 C71 1.392 . S
C73 H83 0.929 . S
C74 O54 1.266 . S
C74 O55 1.248 . S
C75 Tb11 2.802 . S
C75 O50 1.264 . S
C75 O53 1.256 . S
C75 C68 1.496 . S
H76 C59 0.929 . S
H77 C60 0.923 1_545 S
H78 C61 0.929 . S
H79 C62 0.931 . S
H80 C70 0.929 . S
H81 C71 0.929 . S
H82 C72 0.931 . S
H83 C73 0.929 . S
Tb84 N113 2.617 . S
Tb84 N119 2.572 . S
Tb84 O128 2.465 . S
Tb84 O129 2.387 . S
Tb84 O131 2.428 . S
Tb84 O132 2.308 . S
Tb84 O136 2.349 . S
Tb84 O139 2.393 . S
Tb84 C148 2.802 . S
C85 N86 1.379 . S
C85 C88 1.416 . S
C85 C92 1.424 . S
N86 C85 1.379 . S
N86 C89 1.334 . S
N86 Tb95 2.617 . S
C87 C89 1.390 . S
C87 C90 1.339 . S
C87 H107 0.930 . S
C88 C85 1.416 . S
C88 C90 1.416 . S
C88 C94 1.448 . S
C89 N86 1.334 . S
C89 C87 1.390 . S
C89 H100 0.930 . S
C90 C87 1.339 . S
C90 C88 1.416 . S
C90 H111 0.930 . S
C91 C92 1.413 . S
C91 C93 1.427 . S
C91 C97 1.416 . S
C92 C85 1.424 . S
C92 C91 1.413 . S
C92 N96 1.361 . S
C93 C91 1.427 . S
C93 C94 1.328 . S
C93 H108 0.929 . S
C94 C88 1.448 . S
C94 C93 1.328 . S
C94 H109 0.930 . S
Tb95 N86 2.617 . S
Tb95 N96 2.572 . S
Tb95 O130 2.349 . S
Tb95 O133 2.393 . S
Tb95 O134 2.465 . S
Tb95 O135 2.387 . S
Tb95 O137 2.428 . S
Tb95 O138 2.308 . S
Tb95 C159 2.802 . S
N96 C92 1.361 . S
N96 Tb95 2.572 . S
N96 C98 1.340 . S
C97 C91 1.416 . S
C97 C99 1.332 . S
C97 H105 0.931 . S
C98 N96 1.340 . S
C98 C99 1.407 . S
C98 H104 0.930 . S
C99 C97 1.332 . S
C99 C98 1.407 . S
C99 H101 0.929 . S
H100 C89 0.930 . S
H101 C99 0.929 . S
H102 C117 0.930 . S
H103 C124 0.929 . S
H104 C98 0.930 . S
H105 C97 0.931 . S
H106 C120 0.930 . S
H107 C87 0.930 . S
H108 C93 0.929 . S
H109 C94 0.930 . S
H110 C115 0.930 . S
H111 C90 0.930 . S
H112 C123 0.931 1_455 S
N113 Tb84 2.617 . S
N113 C114 1.379 . S
N113 C117 1.334 . S
C114 N113 1.379 . S
C114 C116 1.416 . S
C114 C122 1.424 . S
C115 H110 0.930 . S
C115 C117 1.390 . S
C115 C118 1.339 . S
C116 C114 1.416 . S
C116 C118 1.416 . S
C116 C149 1.448 . S
C117 H102 0.930 . S
C117 N113 1.334 . S
C117 C115 1.390 . S
C118 C115 1.339 . S
C118 C116 1.416 . S
C118 H125 0.930 . S
N119 Tb84 2.572 . S
N119 C120 1.340 . S
N119 C122 1.361 . S
C120 H106 0.930 . S
C120 N119 1.340 . S
C120 C124 1.407 . S
C121 C122 1.413 . S
C121 C123 1.416 . S
C121 C150 1.427 1_655 S
C122 C114 1.424 . S
C122 N119 1.361 . S
C122 C121 1.413 . S
C123 H112 0.931 1_655 S
C123 C121 1.416 . S
C123 C124 1.332 . S
C124 H103 0.929 . S
C124 C120 1.407 . S
C124 C123 1.332 . S
H125 C118 0.930 . S
H126 C149 0.930 1_455 S
H127 C150 0.929 . S
O128 Tb84 2.465 . S
O128 C148 1.264 . S
O129 Tb84 2.387 . S
O129 C140 1.264 . S
O130 Tb95 2.349 . S
O130 C140 1.243 . S
O131 Tb84 2.428 . S
O131 C148 1.256 . S
O132 Tb84 2.308 . S
O132 C147 1.266 . S
O133 Tb95 2.393 . S
O133 C147 1.248 . S
O134 Tb95 2.465 . S
O134 C159 1.264 . S
O135 Tb95 2.387 . S
O135 C151 1.264 . S
O136 Tb84 2.349 . S
O136 C151 1.243 . S
O137 Tb95 2.428 . S
O137 C159 1.256 . S
O138 Tb95 2.308 . S
O138 C158 1.266 . S
O139 Tb84 2.393 . S
O139 C158 1.248 . S
C140 O129 1.264 . S
C140 O130 1.243 . S
C141 C144 1.399 . S
C141 C146 1.383 . S
C141 C148 1.496 . S
C142 C143 1.399 . S
C142 C146 1.389 . S
C143 C142 1.399 . S
C143 C145 1.380 . S
C143 H160 0.929 . S
C144 C141 1.399 . S
C144 C145 1.392 . S
C144 H161 0.929 . S
C145 C143 1.380 . S
C145 C144 1.392 . S
C145 H162 0.929 . S
C146 C141 1.383 . S
C146 C142 1.389 . S
C146 H163 0.931 . S
C147 O132 1.266 . S
C147 O133 1.248 . S
C148 Tb84 2.802 . S
C148 O128 1.264 . S
C148 O131 1.256 . S
C148 C141 1.496 . S
C149 C116 1.448 . S
C149 H126 0.930 1_655 S
C149 C150 1.328 1_655 S
C150 C121 1.427 1_455 S
C150 H127 0.929 . S
C150 C149 1.328 1_455 S
C151 O135 1.264 . S
C151 O136 1.243 . S
C152 C155 1.399 . S
C152 C156 1.383 . S
C152 C159 1.496 . S
C153 C154 1.399 . S
C153 C156 1.389 . S
C154 C153 1.399 . S
C154 C157 1.380 . S
C154 H164 0.929 . S
C155 C152 1.399 . S
C155 C157 1.392 . S
C155 H165 0.929 . S
C156 C152 1.383 . S
C156 C153 1.389 . S
C156 H166 0.931 . S
C157 C154 1.380 . S
C157 C155 1.392 . S
C157 H167 0.929 . S
C158 O138 1.266 . S
C158 O139 1.248 . S
C159 Tb95 2.802 . S
C159 O134 1.264 . S
C159 O137 1.256 . S
C159 C152 1.496 . S
H160 C143 0.929 . S
H161 C144 0.929 . S
H162 C145 0.929 . S
H163 C146 0.931 . S
H164 C154 0.929 . S
H165 C155 0.929 . S
H166 C156 0.931 . S
H167 C157 0.929 . S
Tb168 N197 2.617 . S
Tb168 N203 2.572 . S
Tb168 O212 2.465 . S
Tb168 O213 2.387 . S
Tb168 O215 2.428 . S
Tb168 O216 2.308 . S
Tb168 O220 2.349 . S
Tb168 O223 2.393 . S
Tb168 C232 2.802 . S
C169 N170 1.379 . S
C169 C172 1.416 . S
C169 C176 1.424 . S
N170 C169 1.379 . S
N170 C173 1.334 . S
N170 Tb179 2.617 . S
C171 C173 1.390 . S
C171 C174 1.339 . S
C171 H191 0.930 1_554 S
C172 C169 1.416 . S
C172 C174 1.416 . S
C172 C178 1.448 . S
C173 N170 1.334 . S
C173 C171 1.390 . S
C173 H184 0.930 . S
C174 C171 1.339 . S
C174 C172 1.416 . S
C174 H195 0.930 . S
C175 C176 1.413 . S
C175 C177 1.427 1_545 S
C175 C181 1.416 . S
C176 C169 1.424 . S
C176 C175 1.413 . S
C176 N180 1.361 . S
C177 C175 1.427 1_565 S
C177 C178 1.328 1_565 S
C177 H192 0.929 . S
C178 C172 1.448 . S
C178 C177 1.328 1_545 S
C178 H193 0.930 1_545 S
Tb179 N170 2.617 . S
Tb179 N180 2.572 . S
Tb179 O214 2.349 . S
Tb179 O217 2.393 . S
Tb179 O218 2.465 . S
Tb179 O219 2.387 . S
Tb179 O221 2.428 . S
Tb179 O222 2.308 . S
Tb179 C243 2.802 . S
N180 C176 1.361 . S
N180 Tb179 2.572 . S
N180 C182 1.340 . S
C181 C175 1.416 . S
C181 C183 1.332 . S
C181 H189 0.931 1_545 S
C182 N180 1.340 . S
C182 C183 1.407 . S
C182 H188 0.930 . S
C183 C181 1.332 . S
C183 C182 1.407 . S
C183 H185 0.929 . S
H184 C173 0.930 . S
H185 C183 0.929 . S
H186 C201 0.930 . S
H187 C208 0.929 . S
H188 C182 0.930 . S
H189 C181 0.931 1_565 S
H190 C204 0.930 . S
H191 C171 0.930 1_556 S
H192 C177 0.929 . S
H193 C178 0.930 1_565 S
H194 C199 0.930 . S
H195 C174 0.930 . S
H196 C207 0.931 . S
N197 Tb168 2.617 . S
N197 C198 1.379 . S
N197 C201 1.334 . S
C198 N197 1.379 . S
C198 C200 1.416 . S
C198 C206 1.424 . S
C199 H194 0.930 . S
C199 C201 1.390 . S
C199 C202 1.339 . S
C200 C198 1.416 . S
C200 C202 1.416 . S
C200 C233 1.448 . S
C201 H186 0.930 . S
C201 N197 1.334 . S
C201 C199 1.390 . S
C202 C199 1.339 . S
C202 C200 1.416 . S
C202 H209 0.930 . S
N203 Tb168 2.572 . S
N203 C204 1.340 . S
N203 C206 1.361 . S
C204 H190 0.930 . S
C204 N203 1.340 . S
C204 C208 1.407 . S
C205 C206 1.413 . S
C205 C207 1.416 1_655 S
C205 C234 1.427 1_655 S
C206 C198 1.424 . S
C206 N203 1.361 . S
C206 C205 1.413 . S
C207 H196 0.931 . S
C207 C205 1.416 1_455 S
C207 C208 1.332 1_455 S
C208 H187 0.929 . S
C208 C204 1.407 . S
C208 C207 1.332 1_655 S
H209 C202 0.930 . S
H210 C233 0.930 . S
H211 C234 0.929 . S
O212 Tb168 2.465 . S
O212 C232 1.264 . S
O213 Tb168 2.387 . S
O213 C224 1.264 . S
O214 Tb179 2.349 . S
O214 C224 1.243 . S
O215 Tb168 2.428 . S
O215 C232 1.256 . S
O216 Tb168 2.308 . S
O216 C231 1.266 . S
O217 Tb179 2.393 . S
O217 C231 1.248 . S
O218 Tb179 2.465 . S
O218 C243 1.264 . S
O219 Tb179 2.387 . S
O219 C235 1.264 . S
O220 Tb168 2.349 . S
O220 C235 1.243 . S
O221 Tb179 2.428 . S
O221 C243 1.256 . S
O222 Tb179 2.308 . S
O222 C242 1.266 . S
O223 Tb168 2.393 . S
O223 C242 1.248 . S
C224 O213 1.264 . S
C224 O214 1.243 . S
C225 C228 1.401 . S
C225 C230 1.386 . S
C225 C232 1.492 1_455 S
C226 C227 1.399 . S
C226 C230 1.389 . S
C227 C226 1.399 . S
C227 C229 1.380 . S
C227 H244 0.929 . S
C228 C225 1.401 . S
C228 C229 1.392 . S
C228 H245 0.918 1_455 S
C229 C227 1.380 . S
C229 C228 1.392 . S
C229 H246 0.929 . S
C230 C225 1.386 . S
C230 C226 1.389 . S
C230 H247 0.931 . S
C231 O216 1.266 . S
C231 O217 1.248 . S
C232 Tb168 2.802 . S
C232 O212 1.264 . S
C232 O215 1.256 . S
C232 C225 1.492 1_655 S
C233 C200 1.448 . S
C233 H210 0.930 . S
C233 C234 1.328 1_655 S
C234 C205 1.427 1_455 S
C234 H211 0.929 . S
C234 C233 1.328 1_455 S
C235 O219 1.264 . S
C235 O220 1.243 . S
C236 C239 1.399 . S
C236 C240 1.383 . S
C236 C243 1.496 . S
C237 C238 1.399 . S
C237 C240 1.389 . S
C238 C237 1.399 . S
C238 C241 1.380 . S
C238 H248 0.929 . S
C239 C236 1.399 . S
C239 C241 1.392 . S
C239 H249 0.929 . S
C240 C236 1.383 . S
C240 C237 1.389 . S
C240 H250 0.931 . S
C241 C238 1.380 . S
C241 C239 1.392 . S
C241 H251 0.929 . S
C242 O222 1.266 . S
C242 O223 1.248 . S
C243 Tb179 2.802 . S
C243 O218 1.264 . S
C243 O221 1.256 . S
C243 C236 1.496 . S
H244 C227 0.929 . S
H245 C228 0.918 1_655 S
H246 C229 0.929 . S
H247 C230 0.931 . S
H248 C238 0.929 . S
H249 C239 0.929 . S
H250 C240 0.931 . S
H251 C241 0.929 . S
Tb252 N281 2.617 . S
Tb252 N287 2.572 . S
Tb252 O296 2.465 . S
Tb252 O297 2.387 . S
Tb252 O299 2.428 . S
Tb252 O300 2.308 . S
Tb252 O304 2.349 . S
Tb252 O307 2.393 . S
Tb252 C316 2.802 . S
C253 N254 1.379 . S
C253 C256 1.416 . S
C253 C260 1.424 . S
N254 C253 1.379 . S
N254 C257 1.334 . S
N254 Tb263 2.617 . S
C255 C257 1.390 . S
C255 C258 1.339 . S
C255 H275 0.930 . S
C256 C253 1.416 . S
C256 C258 1.416 . S
C256 C262 1.448 . S
C257 N254 1.334 . S
C257 C255 1.390 . S
C257 H268 0.930 . S
C258 C255 1.339 . S
C258 C256 1.416 . S
C258 H279 0.930 . S
C259 C260 1.413 . S
C259 C261 1.427 1_545 S
C259 C265 1.416 1_545 S
C260 C253 1.424 . S
C260 C259 1.413 . S
C260 N264 1.361 . S
C261 C259 1.427 1_565 S
C261 C262 1.328 1_565 S
C261 H276 0.929 . S
C262 C256 1.448 . S
C262 C261 1.328 1_545 S
C262 H277 0.930 . S
Tb263 N254 2.617 . S
Tb263 N264 2.572 . S
Tb263 O298 2.349 . S
Tb263 O301 2.393 . S
Tb263 O302 2.465 . S
Tb263 O303 2.387 . S
Tb263 O305 2.428 . S
Tb263 O306 2.308 . S
Tb263 C327 2.802 . S
N264 C260 1.361 . S
N264 Tb263 2.572 . S
N264 C266 1.340 . S
C265 C259 1.416 1_565 S
C265 C267 1.332 1_565 S
C265 H273 0.931 . S
C266 N264 1.340 . S
C266 C267 1.407 . S
C266 H272 0.930 . S
C267 C265 1.332 1_545 S
C267 C266 1.407 . S
C267 H269 0.929 . S
H268 C257 0.930 . S
H269 C267 0.929 . S
H270 C285 0.930 . S
H271 C292 0.929 . S
H272 C266 0.930 . S
H273 C265 0.931 . S
H274 C288 0.930 . S
H275 C255 0.930 . S
H276 C261 0.929 . S
H277 C262 0.930 . S
H278 C283 0.930 . S
H279 C258 0.930 . S
H280 C291 0.931 . S
N281 Tb252 2.617 . S
N281 C282 1.379 . S
N281 C285 1.334 . S
C282 N281 1.379 . S
C282 C284 1.416 . S
C282 C290 1.424 . S
C283 H278 0.930 . S
C283 C285 1.390 . S
C283 C286 1.339 . S
C284 C282 1.416 . S
C284 C286 1.416 . S
C284 C317 1.448 . S
C285 H270 0.930 . S
C285 N281 1.334 . S
C285 C283 1.390 . S
C286 C283 1.339 . S
C286 C284 1.416 . S
C286 H293 0.930 . S
N287 Tb252 2.572 . S
N287 C288 1.340 . S
N287 C290 1.361 . S
C288 H274 0.930 . S
C288 N287 1.340 . S
C288 C292 1.407 . S
C289 C290 1.413 . S
C289 C291 1.416 . S
C289 C318 1.427 . S
C290 C282 1.424 . S
C290 N287 1.361 . S
C290 C289 1.413 . S
C291 H280 0.931 . S
C291 C289 1.416 . S
C291 C292 1.332 . S
C292 H271 0.929 . S
C292 C288 1.407 . S
C292 C291 1.332 . S
H293 C286 0.930 . S
H294 C317 0.930 . S
H295 C318 0.929 . S
O296 Tb252 2.465 . S
O296 C316 1.264 . S
O297 Tb252 2.387 . S
O297 C308 1.264 . S
O298 Tb263 2.349 . S
O298 C308 1.243 . S
O299 Tb252 2.428 . S
O299 C316 1.256 . S
O300 Tb252 2.308 . S
O300 C315 1.266 . S
O301 Tb263 2.393 . S
O301 C315 1.248 . S
O302 Tb263 2.465 . S
O302 C327 1.264 . S
O303 Tb263 2.387 . S
O303 C319 1.264 . S
O304 Tb252 2.349 . S
O304 C319 1.243 . S
O305 Tb263 2.428 . S
O305 C327 1.256 . S
O306 Tb263 2.308 . S
O306 C326 1.266 . S
O307 Tb252 2.393 . S
O307 C326 1.248 . S
C308 O297 1.264 . S
C308 O298 1.243 . S
C309 C312 1.399 . S
C309 C314 1.383 . S
C309 C316 1.496 . S
C310 C311 1.399 . S
C310 C314 1.389 . S
C311 C310 1.399 . S
C311 C313 1.380 . S
C311 H328 0.929 . S
C312 C309 1.399 . S
C312 C313 1.392 . S
C312 H329 0.929 . S
C313 C311 1.380 . S
C313 C312 1.392 . S
C313 H330 0.929 . S
C314 C309 1.383 . S
C314 C310 1.389 . S
C314 H331 0.931 . S
C315 O300 1.266 . S
C315 O301 1.248 . S
C316 Tb252 2.802 . S
C316 O296 1.264 . S
C316 O299 1.256 . S
C316 C309 1.496 . S
C317 C284 1.448 . S
C317 H294 0.930 . S
C317 C318 1.328 . S
C318 C289 1.427 . S
C318 H295 0.929 . S
C318 C317 1.328 . S
C319 O303 1.264 . S
C319 O304 1.243 . S
C320 C323 1.400 . S
C320 C324 1.385 . S
C320 C327 1.494 1_565 S
C321 C322 1.399 . S
C321 C324 1.389 . S
C322 C321 1.399 . S
C322 C325 1.380 . S
C322 H332 0.929 . S
C323 C320 1.400 . S
C323 C325 1.392 . S
C323 H333 0.923 1_565 S
C324 C320 1.385 . S
C324 C321 1.389 . S
C324 H334 0.931 . S
C325 C322 1.380 . S
C325 C323 1.392 . S
C325 H335 0.929 . S
C326 O306 1.266 . S
C326 O307 1.248 . S
C327 Tb263 2.802 . S
C327 O302 1.264 . S
C327 O305 1.256 . S
C327 C320 1.494 1_545 S
H328 C311 0.929 . S
H329 C312 0.929 . S
H330 C313 0.929 . S
H331 C314 0.931 . S
H332 C322 0.929 . S
H333 C323 0.923 1_545 S
H334 C324 0.931 . S
H335 C325 0.929 . S
Tb336 N365 2.617 . S
Tb336 N371 2.572 . S
Tb336 O380 2.465 . S
Tb336 O381 2.387 . S
Tb336 O383 2.428 . S
Tb336 O384 2.308 . S
Tb336 O388 2.349 . S
Tb336 O391 2.393 . S
Tb336 C400 2.802 . S
C337 N338 1.379 . S
C337 C340 1.416 . S
C337 C344 1.424 . S
N338 C337 1.379 . S
N338 C341 1.334 . S
N338 Tb347 2.617 . S
C339 C341 1.390 . S
C339 C342 1.339 . S
C339 H359 0.930 1_554 S
C340 C337 1.416 . S
C340 C342 1.416 . S
C340 C346 1.448 . S
C341 N338 1.334 . S
C341 C339 1.390 . S
C341 H352 0.930 . S
C342 C339 1.339 . S
C342 C340 1.416 . S
C342 H363 0.930 . S
C343 C344 1.413 . S
C343 C345 1.427 1_655 S
C343 C349 1.416 . S
C344 C337 1.424 . S
C344 C343 1.413 . S
C344 N348 1.361 . S
C345 C343 1.427 1_455 S
C345 C346 1.328 1_455 S
C345 H360 0.929 . S
C346 C340 1.448 . S
C346 C345 1.328 1_655 S
C346 H361 0.930 1_655 S
Tb347 N338 2.617 . S
Tb347 N348 2.572 . S
Tb347 O382 2.349 . S
Tb347 O385 2.393 . S
Tb347 O386 2.465 . S
Tb347 O387 2.387 . S
Tb347 O389 2.428 . S
Tb347 O390 2.308 . S
Tb347 C411 2.802 . S
N348 C344 1.361 . S
N348 Tb347 2.572 . S
N348 C350 1.340 . S
C349 C343 1.416 . S
C349 C351 1.332 . S
C349 H357 0.931 1_655 S
C350 N348 1.340 . S
C350 C351 1.407 . S
C350 H356 0.930 . S
C351 C349 1.332 . S
C351 C350 1.407 . S
C351 H353 0.929 . S
H352 C341 0.930 . S
H353 C351 0.929 . S
H354 C369 0.930 . S
H355 C376 0.929 . S
H356 C350 0.930 . S
H357 C349 0.931 1_455 S
H358 C372 0.930 . S
H359 C339 0.930 1_556 S
H360 C345 0.929 . S
H361 C346 0.930 1_455 S
H362 C367 0.930 . S
H363 C342 0.930 . S
H364 C375 0.931 . S
N365 Tb336 2.617 . S
N365 C366 1.379 . S
N365 C369 1.334 . S
C366 N365 1.379 . S
C366 C368 1.416 . S
C366 C374 1.424 . S
C367 H362 0.930 . S
C367 C369 1.390 . S
C367 C370 1.339 . S
C368 C366 1.416 . S
C368 C370 1.416 . S
C368 C401 1.448 . S
C369 H354 0.930 . S
C369 N365 1.334 . S
C369 C367 1.390 . S
C370 C367 1.339 . S
C370 C368 1.416 . S
C370 H377 0.930 . S
N371 Tb336 2.572 . S
N371 C372 1.340 . S
N371 C374 1.361 . S
C372 H358 0.930 . S
C372 N371 1.340 . S
C372 C376 1.407 . S
C373 C374 1.413 . S
C373 C375 1.416 . S
C373 C402 1.427 . S
C374 C366 1.424 . S
C374 N371 1.361 . S
C374 C373 1.413 . S
C375 H364 0.931 . S
C375 C373 1.416 . S
C375 C376 1.332 . S
C376 H355 0.929 . S
C376 C372 1.407 . S
C376 C375 1.332 . S
H377 C370 0.930 . S
H378 C401 0.930 . S
H379 C402 0.929 . S
O380 Tb336 2.465 . S
O380 C400 1.264 . S
O381 Tb336 2.387 . S
O381 C392 1.264 . S
O382 Tb347 2.349 . S
O382 C392 1.243 . S
O383 Tb336 2.428 . S
O383 C400 1.256 . S
O384 Tb336 2.308 . S
O384 C399 1.266 . S
O385 Tb347 2.393 . S
O385 C399 1.248 . S
O386 Tb347 2.465 . S
O386 C411 1.264 . S
O387 Tb347 2.387 . S
O387 C403 1.264 . S
O388 Tb336 2.349 . S
O388 C403 1.243 . S
O389 Tb347 2.428 . S
O389 C411 1.256 . S
O390 Tb347 2.308 . S
O390 C410 1.266 . S
O391 Tb336 2.393 . S
O391 C410 1.248 . S
C392 O381 1.264 . S
C392 O382 1.243 . S
C393 C396 1.399 . S
C393 C398 1.383 . S
C393 C400 1.496 . S
C394 C395 1.399 . S
C394 C398 1.389 . S
C395 C394 1.399 . S
C395 C397 1.380 . S
C395 H412 0.929 . S
C396 C393 1.399 . S
C396 C397 1.392 . S
C396 H413 0.929 . S
C397 C395 1.380 . S
C397 C396 1.392 . S
C397 H414 0.929 . S
C398 C393 1.383 . S
C398 C394 1.389 . S
C398 H415 0.931 . S
C399 O384 1.266 . S
C399 O385 1.248 . S
C400 Tb336 2.802 . S
C400 O380 1.264 . S
C400 O383 1.256 . S
C400 C393 1.496 . S
C401 C368 1.448 . S
C401 H378 0.930 . S
C401 C402 1.328 . S
C402 C373 1.427 . S
C402 H379 0.929 . S
C402 C401 1.328 . S
C403 O387 1.264 . S
C403 O388 1.243 . S
C404 C407 1.399 . S
C404 C408 1.383 . S
C404 C411 1.496 . S
C405 C406 1.399 . S
C405 C408 1.389 . S
C406 C405 1.399 . S
C406 C409 1.380 . S
C406 H416 0.929 . S
C407 C404 1.399 . S
C407 C409 1.392 . S
C407 H417 0.929 . S
C408 C404 1.383 . S
C408 C405 1.389 . S
C408 H418 0.931 . S
C409 C406 1.380 . S
C409 C407 1.392 . S
C409 H419 0.929 . S
C410 O390 1.266 . S
C410 O391 1.248 . S
C411 Tb347 2.802 . S
C411 O386 1.264 . S
C411 O389 1.256 . S
C411 C404 1.496 . S
H412 C395 0.929 . S
H413 C396 0.929 . S
H414 C397 0.929 . S
H415 C398 0.931 . S
H416 C406 0.929 . S
H417 C407 0.929 . S
H418 C408 0.931 . S
H419 C409 0.929 . S
Tb420 N449 2.617 . S
Tb420 N455 2.572 . S
Tb420 O464 2.465 . S
Tb420 O465 2.387 . S
Tb420 O467 2.428 . S
Tb420 O468 2.308 . S
Tb420 O472 2.349 . S
Tb420 O475 2.393 . S
Tb420 C484 2.802 . S
C421 N422 1.379 . S
C421 C424 1.416 . S
C421 C428 1.424 . S
N422 C421 1.379 . S
N422 C425 1.334 . S
N422 Tb431 2.617 . S
C423 C425 1.390 . S
C423 C426 1.339 . S
C423 H443 0.930 . S
C424 C421 1.416 . S
C424 C426 1.416 . S
C424 C430 1.448 . S
C425 N422 1.334 . S
C425 C423 1.390 . S
C425 H436 0.930 . S
C426 C423 1.339 . S
C426 C424 1.416 . S
C426 H447 0.930 . S
C427 C428 1.413 . S
C427 C429 1.427 1_655 S
C427 C433 1.416 1_655 S
C428 C421 1.424 . S
C428 C427 1.413 . S
C428 N432 1.361 . S
C429 C427 1.427 1_455 S
C429 C430 1.328 1_455 S
C429 H444 0.929 . S
C430 C424 1.448 . S
C430 C429 1.328 1_655 S
C430 H445 0.930 . S
Tb431 N422 2.617 . S
Tb431 N432 2.572 . S
Tb431 O466 2.349 . S
Tb431 O469 2.393 . S
Tb431 O470 2.465 . S
Tb431 O471 2.387 . S
Tb431 O473 2.428 . S
Tb431 O474 2.308 . S
Tb431 C495 2.802 . S
N432 C428 1.361 . S
N432 Tb431 2.572 . S
N432 C434 1.340 . S
C433 C427 1.416 1_455 S
C433 C435 1.332 1_455 S
C433 H441 0.931 . S
C434 N432 1.340 . S
C434 C435 1.407 . S
C434 H440 0.930 . S
C435 C433 1.332 1_655 S
C435 C434 1.407 . S
C435 H437 0.929 . S
H436 C425 0.930 . S
H437 C435 0.929 . S
H438 C453 0.930 . S
H439 C460 0.929 . S
H440 C434 0.930 . S
H441 C433 0.931 . S
H442 C456 0.930 . S
H443 C423 0.930 . S
H444 C429 0.929 . S
H445 C430 0.930 . S
H446 C451 0.930 . S
H447 C426 0.930 . S
H448 C459 0.931 1_565 S
N449 Tb420 2.617 . S
N449 C450 1.379 . S
N449 C453 1.334 . S
C450 N449 1.379 . S
C450 C452 1.416 . S
C450 C458 1.424 . S
C451 H446 0.930 . S
C451 C453 1.390 . S
C451 C454 1.339 . S
C452 C450 1.416 . S
C452 C454 1.416 . S
C452 C485 1.448 . S
C453 H438 0.930 . S
C453 N449 1.334 . S
C453 C451 1.390 . S
C454 C451 1.339 . S
C454 C452 1.416 . S
C454 H461 0.930 . S
N455 Tb420 2.572 . S
N455 C456 1.340 . S
N455 C458 1.361 . S
C456 H442 0.930 . S
C456 N455 1.340 . S
C456 C460 1.407 . S
C457 C458 1.413 . S
C457 C459 1.416 . S
C457 C486 1.427 1_545 S
C458 C450 1.424 . S
C458 N455 1.361 . S
C458 C457 1.413 . S
C459 H448 0.931 1_545 S
C459 C457 1.416 . S
C459 C460 1.332 . S
C460 H439 0.929 . S
C460 C456 1.407 . S
C460 C459 1.332 . S
H461 C454 0.930 . S
H462 C485 0.930 1_565 S
H463 C486 0.929 . S
O464 Tb420 2.465 . S
O464 C484 1.264 . S
O465 Tb420 2.387 . S
O465 C476 1.264 . S
O466 Tb431 2.349 . S
O466 C476 1.243 . S
O467 Tb420 2.428 . S
O467 C484 1.256 . S
O468 Tb420 2.308 . S
O468 C483 1.266 . S
O469 Tb431 2.393 . S
O469 C483 1.248 . S
O470 Tb431 2.465 . S
O470 C495 1.264 . S
O471 Tb431 2.387 . S
O471 C487 1.264 . S
O472 Tb420 2.349 . S
O472 C487 1.243 . S
O473 Tb431 2.428 . S
O473 C495 1.256 . S
O474 Tb431 2.308 . S
O474 C494 1.266 . S
O475 Tb420 2.393 . S
O475 C494 1.248 . S
C476 O465 1.264 . S
C476 O466 1.243 . S
C477 C480 1.399 . S
C477 C482 1.383 . S
C477 C484 1.496 . S
C478 C479 1.399 . S
C478 C482 1.389 . S
C479 C478 1.399 . S
C479 C481 1.380 . S
C479 H496 0.929 . S
C480 C477 1.399 . S
C480 C481 1.392 . S
C480 H497 0.929 . S
C481 C479 1.380 . S
C481 C480 1.392 . S
C481 H498 0.929 . S
C482 C477 1.383 . S
C482 C478 1.389 . S
C482 H499 0.931 . S
C483 O468 1.266 . S
C483 O469 1.248 . S
C484 Tb420 2.802 . S
C484 O464 1.264 . S
C484 O467 1.256 . S
C484 C477 1.496 . S
C485 C452 1.448 . S
C485 H462 0.930 1_545 S
C485 C486 1.328 1_545 S
C486 C457 1.427 1_565 S
C486 H463 0.929 . S
C486 C485 1.328 1_565 S
C487 O471 1.264 . S
C487 O472 1.243 . S
C488 C491 1.401 . S
C488 C492 1.386 . S
C488 C495 1.492 1_455 S
C489 C490 1.399 . S
C489 C492 1.389 . S
C490 C489 1.399 . S
C490 C493 1.380 . S
C490 H500 0.929 . S
C491 C488 1.401 . S
C491 C493 1.392 . S
C491 H501 0.918 1_455 S
C492 C488 1.386 . S
C492 C489 1.389 . S
C492 H502 0.931 . S
C493 C490 1.380 . S
C493 C491 1.392 . S
C493 H503 0.929 . S
C494 O474 1.266 . S
C494 O475 1.248 . S
C495 Tb431 2.802 . S
C495 O470 1.264 . S
C495 O473 1.256 . S
C495 C488 1.492 1_655 S
H496 C479 0.929 . S
H497 C480 0.929 . S
H498 C481 0.929 . S
H499 C482 0.931 . S
H500 C490 0.929 . S
H501 C491 0.918 1_655 S
H502 C492 0.931 . S
H503 C493 0.929 . S
Tb504 N533 2.617 . S
Tb504 N539 2.572 . S
Tb504 O548 2.465 . S
Tb504 O549 2.387 . S
Tb504 O551 2.428 . S
Tb504 O552 2.308 . S
Tb504 O556 2.349 . S
Tb504 O559 2.393 . S
Tb504 C568 2.802 . S
C505 N506 1.379 . S
C505 C508 1.416 . S
C505 C512 1.424 . S
N506 C505 1.379 . S
N506 C509 1.334 . S
N506 Tb515 2.617 . S
C507 C509 1.390 . S
C507 C510 1.339 . S
C507 H527 0.930 . S
C508 C505 1.416 . S
C508 C510 1.416 . S
C508 C514 1.448 . S
C509 N506 1.334 . S
C509 C507 1.390 . S
C509 H520 0.930 . S
C510 C507 1.339 . S
C510 C508 1.416 . S
C510 H531 0.930 . S
C511 C512 1.413 . S
C511 C513 1.427 1_455 S
C511 C517 1.416 1_455 S
C512 C505 1.424 . S
C512 C511 1.413 . S
C512 N516 1.361 . S
C513 C511 1.427 1_655 S
C513 C514 1.328 1_655 S
C513 H528 0.929 . S
C514 C508 1.448 . S
C514 C513 1.328 1_455 S
C514 H529 0.930 . S
Tb515 N506 2.617 . S
Tb515 N516 2.572 . S
Tb515 O550 2.349 . S
Tb515 O553 2.393 . S
Tb515 O554 2.465 . S
Tb515 O555 2.387 . S
Tb515 O557 2.428 . S
Tb515 O558 2.308 . S
Tb515 C579 2.802 . S
N516 C512 1.361 . S
N516 Tb515 2.572 . S
N516 C518 1.340 . S
C517 C511 1.416 1_655 S
C517 C519 1.332 1_655 S
C517 H525 0.931 . S
C518 N516 1.340 . S
C518 C519 1.407 . S
C518 H524 0.930 . S
C519 C517 1.332 1_455 S
C519 C518 1.407 . S
C519 H521 0.929 . S
H520 C509 0.930 . S
H521 C519 0.929 . S
H522 C537 0.930 . S
H523 C544 0.929 . S
H524 C518 0.930 . S
H525 C517 0.931 . S
H526 C540 0.930 . S
H527 C507 0.930 . S
H528 C513 0.929 . S
H529 C514 0.930 . S
H530 C535 0.930 . S
H531 C510 0.930 . S
H532 C543 0.931 . S
N533 Tb504 2.617 . S
N533 C534 1.379 . S
N533 C537 1.334 . S
C534 N533 1.379 . S
C534 C536 1.416 . S
C534 C542 1.424 . S
C535 H530 0.930 . S
C535 C537 1.390 . S
C535 C538 1.339 . S
C536 C534 1.416 . S
C536 C538 1.416 . S
C536 C569 1.448 . S
C537 H522 0.930 . S
C537 N533 1.334 . S
C537 C535 1.390 . S
C538 C535 1.339 . S
C538 C536 1.416 . S
C538 H545 0.930 . S
N539 Tb504 2.572 . S
N539 C540 1.340 . S
N539 C542 1.361 . S
C540 H526 0.930 . S
C540 N539 1.340 . S
C540 C544 1.407 . S
C541 C542 1.413 . S
C541 C543 1.416 . S
C541 C570 1.427 . S
C542 C534 1.424 . S
C542 N539 1.361 . S
C542 C541 1.413 . S
C543 H532 0.931 . S
C543 C541 1.416 . S
C543 C544 1.332 . S
C544 H523 0.929 . S
C544 C540 1.407 . S
C544 C543 1.332 . S
H545 C538 0.930 . S
H546 C569 0.930 . S
H547 C570 0.929 . S
O548 Tb504 2.465 . S
O548 C568 1.264 . S
O549 Tb504 2.387 . S
O549 C560 1.264 . S
O550 Tb515 2.349 . S
O550 C560 1.243 . S
O551 Tb504 2.428 . S
O551 C568 1.256 . S
O552 Tb504 2.308 . S
O552 C567 1.266 . S
O553 Tb515 2.393 . S
O553 C567 1.248 . S
O554 Tb515 2.465 . S
O554 C579 1.264 . S
O555 Tb515 2.387 . S
O555 C571 1.264 . S
O556 Tb504 2.349 . S
O556 C571 1.243 . S
O557 Tb515 2.428 . S
O557 C579 1.256 . S
O558 Tb515 2.308 . S
O558 C578 1.266 . S
O559 Tb504 2.393 . S
O559 C578 1.248 . S
C560 O549 1.264 . S
C560 O550 1.243 . S
C561 C564 1.399 . S
C561 C566 1.383 . S
C561 C568 1.496 . S
C562 C563 1.399 . S
C562 C566 1.389 . S
C563 C562 1.399 . S
C563 C565 1.380 . S
C563 H580 0.929 . S
C564 C561 1.399 . S
C564 C565 1.392 . S
C564 H581 0.929 . S
C565 C563 1.380 . S
C565 C564 1.392 . S
C565 H582 0.929 . S
C566 C561 1.383 . S
C566 C562 1.389 . S
C566 H583 0.931 . S
C567 O552 1.266 . S
C567 O553 1.248 . S
C568 Tb504 2.802 . S
C568 O548 1.264 . S
C568 O551 1.256 . S
C568 C561 1.496 . S
C569 C536 1.448 . S
C569 H546 0.930 . S
C569 C570 1.328 . S
C570 C541 1.427 . S
C570 H547 0.929 . S
C570 C569 1.328 . S
C571 O555 1.264 . S
C571 O556 1.243 . S
C572 C575 1.400 . S
C572 C576 1.385 . S
C572 C579 1.494 1_655 S
C573 C574 1.399 . S
C573 C576 1.389 . S
C574 C573 1.399 . S
C574 C577 1.380 . S
C574 H584 0.929 . S
C575 C572 1.400 . S
C575 C577 1.392 . S
C575 H585 0.923 1_655 S
C576 C572 1.385 . S
C576 C573 1.389 . S
C576 H586 0.931 . S
C577 C574 1.380 . S
C577 C575 1.392 . S
C577 H587 0.929 . S
C578 O558 1.266 . S
C578 O559 1.248 . S
C579 Tb515 2.802 . S
C579 O554 1.264 . S
C579 O557 1.256 . S
C579 C572 1.494 1_455 S
H580 C563 0.929 . S
H581 C564 0.929 . S
H582 C565 0.929 . S
H583 C566 0.931 . S
H584 C574 0.929 . S
H585 C575 0.923 1_455 S
H586 C576 0.931 . S
H587 C577 0.929 . S
Tb588 N617 2.617 . S
Tb588 N623 2.572 . S
Tb588 O632 2.465 . S
Tb588 O633 2.387 . S
Tb588 O635 2.428 . S
Tb588 O636 2.308 . S
Tb588 O640 2.349 . S
Tb588 O643 2.393 . S
Tb588 C652 2.802 . S
C589 N590 1.379 . S
C589 C592 1.416 . S
C589 C596 1.424 . S
N590 C589 1.379 . S
N590 C593 1.334 . S
N590 Tb599 2.617 . S
C591 C593 1.390 . S
C591 C594 1.339 . S
C591 H611 0.930 1_556 S
C592 C589 1.416 . S
C592 C594 1.416 . S
C592 C598 1.448 . S
C593 N590 1.334 . S
C593 C591 1.390 . S
C593 H604 0.930 . S
C594 C591 1.339 . S
C594 C592 1.416 . S
C594 H615 0.930 . S
C595 C596 1.413 . S
C595 C597 1.427 1_455 S
C595 C601 1.416 . S
C596 C589 1.424 . S
C596 C595 1.413 . S
C596 N600 1.361 . S
C597 C595 1.427 1_655 S
C597 C598 1.328 1_655 S
C597 H612 0.929 . S
C598 C592 1.448 . S
C598 C597 1.328 1_455 S
C598 H613 0.930 1_455 S
Tb599 N590 2.617 . S
Tb599 N600 2.572 . S
Tb599 O634 2.349 . S
Tb599 O637 2.393 . S
Tb599 O638 2.465 . S
Tb599 O639 2.387 . S
Tb599 O641 2.428 . S
Tb599 O642 2.308 . S
Tb599 C663 2.802 . S
N600 C596 1.361 . S
N600 Tb599 2.572 . S
N600 C602 1.340 . S
C601 C595 1.416 . S
C601 C603 1.332 . S
C601 H609 0.931 1_455 S
C602 N600 1.340 . S
C602 C603 1.407 . S
C602 H608 0.930 . S
C603 C601 1.332 . S
C603 C602 1.407 . S
C603 H605 0.929 . S
H604 C593 0.930 . S
H605 C603 0.929 . S
H606 C621 0.930 . S
H607 C628 0.929 . S
H608 C602 0.930 . S
H609 C601 0.931 1_655 S
H610 C624 0.930 . S
H611 C591 0.930 1_554 S
H612 C597 0.929 . S
H613 C598 0.930 1_655 S
H614 C619 0.930 . S
H615 C594 0.930 . S
H616 C627 0.931 . S
N617 Tb588 2.617 . S
N617 C618 1.379 . S
N617 C621 1.334 . S
C618 N617 1.379 . S
C618 C620 1.416 . S
C618 C626 1.424 . S
C619 H614 0.930 . S
C619 C621 1.390 . S
C619 C622 1.339 . S
C620 C618 1.416 . S
C620 C622 1.416 . S
C620 C653 1.448 . S
C621 H606 0.930 . S
C621 N617 1.334 . S
C621 C619 1.390 . S
C622 C619 1.339 . S
C622 C620 1.416 . S
C622 H629 0.930 . S
N623 Tb588 2.572 . S
N623 C624 1.340 . S
N623 C626 1.361 . S
C624 H610 0.930 . S
C624 N623 1.340 . S
C624 C628 1.407 . S
C625 C626 1.413 . S
C625 C627 1.416 1_565 S
C625 C654 1.427 1_565 S
C626 C618 1.424 . S
C626 N623 1.361 . S
C626 C625 1.413 . S
C627 H616 0.931 . S
C627 C625 1.416 1_545 S
C627 C628 1.332 1_545 S
C628 H607 0.929 . S
C628 C624 1.407 . S
C628 C627 1.332 1_565 S
H629 C622 0.930 . S
H630 C653 0.930 . S
H631 C654 0.929 . S
O632 Tb588 2.465 . S
O632 C652 1.264 . S
O633 Tb588 2.387 . S
O633 C644 1.264 . S
O634 Tb599 2.349 . S
O634 C644 1.243 . S
O635 Tb588 2.428 . S
O635 C652 1.256 . S
O636 Tb588 2.308 . S
O636 C651 1.266 . S
O637 Tb599 2.393 . S
O637 C651 1.248 . S
O638 Tb599 2.465 . S
O638 C663 1.264 . S
O639 Tb599 2.387 . S
O639 C655 1.264 . S
O640 Tb588 2.349 . S
O640 C655 1.243 . S
O641 Tb599 2.428 . S
O641 C663 1.256 . S
O642 Tb599 2.308 . S
O642 C662 1.266 . S
O643 Tb588 2.393 . S
O643 C662 1.248 . S
C644 O633 1.264 . S
C644 O634 1.243 . S
C645 C648 1.401 . S
C645 C650 1.386 . S
C645 C652 1.492 1_545 S
C646 C647 1.399 . S
C646 C650 1.389 . S
C647 C646 1.399 . S
C647 C649 1.380 . S
C647 H664 0.929 . S
C648 C645 1.401 . S
C648 C649 1.392 . S
C648 H665 0.918 1_545 S
C649 C647 1.380 . S
C649 C648 1.392 . S
C649 H666 0.929 . S
C650 C645 1.386 . S
C650 C646 1.389 . S
C650 H667 0.931 . S
C651 O636 1.266 . S
C651 O637 1.248 . S
C652 Tb588 2.802 . S
C652 O632 1.264 . S
C652 O635 1.256 . S
C652 C645 1.492 1_565 S
C653 C620 1.448 . S
C653 H630 0.930 . S
C653 C654 1.328 1_565 S
C654 C625 1.427 1_545 S
C654 H631 0.929 . S
C654 C653 1.328 1_545 S
C655 O639 1.264 . S
C655 O640 1.243 . S
C656 C659 1.399 . S
C656 C660 1.383 . S
C656 C663 1.496 . S
C657 C658 1.399 . S
C657 C660 1.389 . S
C658 C657 1.399 . S
C658 C661 1.380 . S
C658 H668 0.929 . S
C659 C656 1.399 . S
C659 C661 1.392 . S
C659 H669 0.929 . S
C660 C656 1.383 . S
C660 C657 1.389 . S
C660 H670 0.931 . S
C661 C658 1.380 . S
C661 C659 1.392 . S
C661 H671 0.929 . S
C662 O642 1.266 . S
C662 O643 1.248 . S
C663 Tb599 2.802 . S
C663 O638 1.264 . S
C663 O641 1.256 . S
C663 C656 1.496 . S
H664 C647 0.929 . S
H665 C648 0.918 1_565 S
H666 C649 0.929 . S
H667 C650 0.931 . S
H668 C658 0.929 . S
H669 C659 0.929 . S
H670 C660 0.931 . S
H671 C661 0.929 . S
Tb672 N701 2.617 . S
Tb672 N707 2.572 . S
Tb672 O716 2.465 . S
Tb672 O717 2.387 . S
Tb672 O719 2.428 . S
Tb672 O720 2.308 . S
Tb672 O724 2.349 . S
Tb672 O727 2.393 . S
Tb672 C736 2.802 . S
C673 N674 1.379 . S
C673 C676 1.416 . S
C673 C680 1.424 . S
N674 C673 1.379 . S
N674 C677 1.334 . S
N674 Tb683 2.617 . S
C675 C677 1.390 . S
C675 C678 1.339 . S
C675 H695 0.930 . S
C676 C673 1.416 . S
C676 C678 1.416 . S
C676 C682 1.448 . S
C677 N674 1.334 . S
C677 C675 1.390 . S
C677 H688 0.930 . S
C678 C675 1.339 . S
C678 C676 1.416 . S
C678 H699 0.930 . S
C679 C680 1.413 . S
C679 C681 1.427 . S
C679 C685 1.416 . S
C680 C673 1.424 . S
C680 C679 1.413 . S
C680 N684 1.361 . S
C681 C679 1.427 . S
C681 C682 1.328 . S
C681 H696 0.929 . S
C682 C676 1.448 . S
C682 C681 1.328 . S
C682 H697 0.930 . S
Tb683 N674 2.617 . S
Tb683 N684 2.572 . S
Tb683 O718 2.349 . S
Tb683 O721 2.393 . S
Tb683 O722 2.465 . S
Tb683 O723 2.387 . S
Tb683 O725 2.428 . S
Tb683 O726 2.308 . S
Tb683 C747 2.802 . S
N684 C680 1.361 . S
N684 Tb683 2.572 . S
N684 C686 1.340 . S
C685 C679 1.416 . S
C685 C687 1.332 . S
C685 H693 0.931 . S
C686 N684 1.340 . S
C686 C687 1.407 . S
C686 H692 0.930 . S
C687 C685 1.332 . S
C687 C686 1.407 . S
C687 H689 0.929 . S
H688 C677 0.930 . S
H689 C687 0.929 . S
H690 C705 0.930 . S
H691 C712 0.929 . S
H692 C686 0.930 . S
H693 C685 0.931 . S
H694 C708 0.930 . S
H695 C675 0.930 . S
H696 C681 0.929 . S
H697 C682 0.930 . S
H698 C703 0.930 . S
H699 C678 0.930 . S
H700 C711 0.931 1_545 S
N701 Tb672 2.617 . S
N701 C702 1.379 . S
N701 C705 1.334 . S
C702 N701 1.379 . S
C702 C704 1.416 . S
C702 C710 1.424 . S
C703 H698 0.930 . S
C703 C705 1.390 . S
C703 C706 1.339 . S
C704 C702 1.416 . S
C704 C706 1.416 . S
C704 C737 1.448 . S
C705 H690 0.930 . S
C705 N701 1.334 . S
C705 C703 1.390 . S
C706 C703 1.339 . S
C706 C704 1.416 . S
C706 H713 0.930 . S
N707 Tb672 2.572 . S
N707 C708 1.340 . S
N707 C710 1.361 . S
C708 H694 0.930 . S
C708 N707 1.340 . S
C708 C712 1.407 . S
C709 C710 1.413 . S
C709 C711 1.416 . S
C709 C738 1.427 1_565 S
C710 C702 1.424 . S
C710 N707 1.361 . S
C710 C709 1.413 . S
C711 H700 0.931 1_565 S
C711 C709 1.416 . S
C711 C712 1.332 . S
C712 H691 0.929 . S
C712 C708 1.407 . S
C712 C711 1.332 . S
H713 C706 0.930 . S
H714 C737 0.930 1_545 S
H715 C738 0.929 . S
O716 Tb672 2.465 . S
O716 C736 1.264 . S
O717 Tb672 2.387 . S
O717 C728 1.264 . S
O718 Tb683 2.349 . S
O718 C728 1.243 . S
O719 Tb672 2.428 . S
O719 C736 1.256 . S
O720 Tb672 2.308 . S
O720 C735 1.266 . S
O721 Tb683 2.393 . S
O721 C735 1.248 . S
O722 Tb683 2.465 . S
O722 C747 1.264 . S
O723 Tb683 2.387 . S
O723 C739 1.264 . S
O724 Tb672 2.349 . S
O724 C739 1.243 . S
O725 Tb683 2.428 . S
O725 C747 1.256 . S
O726 Tb683 2.308 . S
O726 C746 1.266 . S
O727 Tb672 2.393 . S
O727 C746 1.248 . S
C728 O717 1.264 . S
C728 O718 1.243 . S
C729 C732 1.399 . S
C729 C734 1.383 . S
C729 C736 1.496 . S
C730 C731 1.399 . S
C730 C734 1.389 . S
C731 C730 1.399 . S
C731 C733 1.380 . S
C731 H748 0.929 . S
C732 C729 1.399 . S
C732 C733 1.392 . S
C732 H749 0.929 . S
C733 C731 1.380 . S
C733 C732 1.392 . S
C733 H750 0.929 . S
C734 C729 1.383 . S
C734 C730 1.389 . S
C734 H751 0.931 . S
C735 O720 1.266 . S
C735 O721 1.248 . S
C736 Tb672 2.802 . S
C736 O716 1.264 . S
C736 O719 1.256 . S
C736 C729 1.496 . S
C737 C704 1.448 . S
C737 H714 0.930 1_565 S
C737 C738 1.328 1_565 S
C738 C709 1.427 1_545 S
C738 H715 0.929 . S
C738 C737 1.328 1_545 S
C739 O723 1.264 . S
C739 O724 1.243 . S
C740 C743 1.399 . S
C740 C744 1.383 . S
C740 C747 1.496 . S
C741 C742 1.399 . S
C741 C744 1.389 . S
C742 C741 1.399 . S
C742 C745 1.380 . S
C742 H752 0.929 . S
C743 C740 1.399 . S
C743 C745 1.392 . S
C743 H753 0.929 . S
C744 C740 1.383 . S
C744 C741 1.389 . S
C744 H754 0.931 . S
C745 C742 1.380 . S
C745 C743 1.392 . S
C745 H755 0.929 . S
C746 O726 1.266 . S
C746 O727 1.248 . S
C747 Tb683 2.802 . S
C747 O722 1.264 . S
C747 O725 1.256 . S
C747 C740 1.496 . S
H748 C731 0.929 . S
H749 C732 0.929 . S
H750 C733 0.929 . S
H751 C734 0.931 . S
H752 C742 0.929 . S
H753 C743 0.929 . S
H754 C744 0.931 . S
H755 C745 0.929 . S
Tb756 N785 2.617 . S
Tb756 N791 2.572 . S
Tb756 O800 2.465 . S
Tb756 O801 2.387 . S
Tb756 O803 2.428 . S
Tb756 O804 2.308 . S
Tb756 O808 2.349 . S
Tb756 O811 2.393 . S
Tb756 C820 2.802 . S
C757 N758 1.379 . S
C757 C760 1.416 . S
C757 C764 1.424 . S
N758 C757 1.379 . S
N758 C761 1.334 . S
N758 Tb767 2.617 . S
C759 C761 1.390 . S
C759 C762 1.339 . S
C759 H779 0.930 1_556 S
C760 C757 1.416 . S
C760 C762 1.416 . S
C760 C766 1.448 . S
C761 N758 1.334 . S
C761 C759 1.390 . S
C761 H772 0.930 . S
C762 C759 1.339 . S
C762 C760 1.416 . S
C762 H783 0.930 . S
C763 C764 1.413 . S
C763 C765 1.427 . S
C763 C769 1.416 . S
C764 C757 1.424 . S
C764 C763 1.413 . S
C764 N768 1.361 . S
C765 C763 1.427 . S
C765 C766 1.328 . S
C765 H780 0.929 . S
C766 C760 1.448 . S
C766 C765 1.328 . S
C766 H781 0.930 . S
Tb767 N758 2.617 . S
Tb767 N768 2.572 . S
Tb767 O802 2.349 . S
Tb767 O805 2.393 . S
Tb767 O806 2.465 . S
Tb767 O807 2.387 . S
Tb767 O809 2.428 . S
Tb767 O810 2.308 . S
Tb767 C831 2.802 . S
N768 C764 1.361 . S
N768 Tb767 2.572 . S
N768 C770 1.340 . S
C769 C763 1.416 . S
C769 C771 1.332 . S
C769 H777 0.931 . S
C770 N768 1.340 . S
C770 C771 1.407 . S
C770 H776 0.930 . S
C771 C769 1.332 . S
C771 C770 1.407 . S
C771 H773 0.929 . S
H772 C761 0.930 . S
H773 C771 0.929 . S
H774 C789 0.930 . S
H775 C796 0.929 . S
H776 C770 0.930 . S
H777 C769 0.931 . S
H778 C792 0.930 . S
H779 C759 0.930 1_554 S
H780 C765 0.929 . S
H781 C766 0.930 . S
H782 C787 0.930 . S
H783 C762 0.930 . S
H784 C795 0.931 . S
N785 Tb756 2.617 . S
N785 C786 1.379 . S
N785 C789 1.334 . S
C786 N785 1.379 . S
C786 C788 1.416 . S
C786 C794 1.424 . S
C787 H782 0.930 . S
C787 C789 1.390 . S
C787 C790 1.339 . S
C788 C786 1.416 . S
C788 C790 1.416 . S
C788 C821 1.448 . S
C789 H774 0.930 . S
C789 N785 1.334 . S
C789 C787 1.390 . S
C790 C787 1.339 . S
C790 C788 1.416 . S
C790 H797 0.930 . S
N791 Tb756 2.572 . S
N791 C792 1.340 . S
N791 C794 1.361 . S
C792 H778 0.930 . S
C792 N791 1.340 . S
C792 C796 1.407 . S
C793 C794 1.413 . S
C793 C795 1.416 1_455 S
C793 C822 1.427 1_455 S
C794 C786 1.424 . S
C794 N791 1.361 . S
C794 C793 1.413 . S
C795 H784 0.931 . S
C795 C793 1.416 1_655 S
C795 C796 1.332 1_655 S
C796 H775 0.929 . S
C796 C792 1.407 . S
C796 C795 1.332 1_455 S
H797 C790 0.930 . S
H798 C821 0.930 . S
H799 C822 0.929 . S
O800 Tb756 2.465 . S
O800 C820 1.264 . S
O801 Tb756 2.387 . S
O801 C812 1.264 . S
O802 Tb767 2.349 . S
O802 C812 1.243 . S
O803 Tb756 2.428 . S
O803 C820 1.256 . S
O804 Tb756 2.308 . S
O804 C819 1.266 . S
O805 Tb767 2.393 . S
O805 C819 1.248 . S
O806 Tb767 2.465 . S
O806 C831 1.264 . S
O807 Tb767 2.387 . S
O807 C823 1.264 . S
O808 Tb756 2.349 . S
O808 C823 1.243 . S
O809 Tb767 2.428 . S
O809 C831 1.256 . S
O810 Tb767 2.308 . S
O810 C830 1.266 . S
O811 Tb756 2.393 . S
O811 C830 1.248 . S
C812 O801 1.264 . S
C812 O802 1.243 . S
C813 C816 1.400 . S
C813 C818 1.385 . S
C813 C820 1.494 1_655 S
C814 C815 1.399 . S
C814 C818 1.389 . S
C815 C814 1.399 . S
C815 C817 1.380 . S
C815 H832 0.929 . S
C816 C813 1.400 . S
C816 C817 1.392 . S
C816 H833 0.923 1_655 S
C817 C815 1.380 . S
C817 C816 1.392 . S
C817 H834 0.929 . S
C818 C813 1.385 . S
C818 C814 1.389 . S
C818 H835 0.931 . S
C819 O804 1.266 . S
C819 O805 1.248 . S
C820 Tb756 2.802 . S
C820 O800 1.264 . S
C820 O803 1.256 . S
C820 C813 1.494 1_455 S
C821 C788 1.448 . S
C821 H798 0.930 . S
C821 C822 1.328 1_455 S
C822 C793 1.427 1_655 S
C822 H799 0.929 . S
C822 C821 1.328 1_655 S
C823 O807 1.264 . S
C823 O808 1.243 . S
C824 C827 1.399 . S
C824 C828 1.383 . S
C824 C831 1.496 . S
C825 C826 1.399 . S
C825 C828 1.389 . S
C826 C825 1.399 . S
C826 C829 1.380 . S
C826 H836 0.929 . S
C827 C824 1.399 . S
C827 C829 1.392 . S
C827 H837 0.929 . S
C828 C824 1.383 . S
C828 C825 1.389 . S
C828 H838 0.931 . S
C829 C826 1.380 . S
C829 C827 1.392 . S
C829 H839 0.929 . S
C830 O810 1.266 . S
C830 O811 1.248 . S
C831 Tb767 2.802 . S
C831 O806 1.264 . S
C831 O809 1.256 . S
C831 C824 1.496 . S
H832 C815 0.929 . S
H833 C816 0.923 1_455 S
H834 C817 0.929 . S
H835 C818 0.931 . S
H836 C826 0.929 . S
H837 C827 0.929 . S
H838 C828 0.931 . S
H839 C829 0.929 . S
Tb840 N869 2.617 . S
Tb840 N875 2.572 . S
Tb840 O884 2.465 . S
Tb840 O885 2.387 . S
Tb840 O887 2.428 . S
Tb840 O888 2.308 . S
Tb840 O892 2.349 . S
Tb840 O895 2.393 . S
Tb840 C904 2.802 . S
C841 N842 1.379 . S
C841 C844 1.416 . S
C841 C848 1.424 . S
N842 C841 1.379 . S
N842 C845 1.334 . S
N842 Tb851 2.617 . S
C843 C845 1.390 . S
C843 C846 1.339 . S
C843 H863 0.930 . S
C844 C841 1.416 . S
C844 C846 1.416 . S
C844 C850 1.448 . S
C845 N842 1.334 . S
C845 C843 1.390 . S
C845 H856 0.930 . S
C846 C843 1.339 . S
C846 C844 1.416 . S
C846 H867 0.930 . S
C847 C848 1.413 . S
C847 C849 1.427 1_565 S
C847 C853 1.416 1_565 S
C848 C841 1.424 . S
C848 C847 1.413 . S
C848 N852 1.361 . S
C849 C847 1.427 1_545 S
C849 C850 1.328 1_545 S
C849 H864 0.929 . S
C850 C844 1.448 . S
C850 C849 1.328 1_565 S
C850 H865 0.930 . S
Tb851 N842 2.617 . S
Tb851 N852 2.572 . S
Tb851 O886 2.349 . S
Tb851 O889 2.393 . S
Tb851 O890 2.465 . S
Tb851 O891 2.387 . S
Tb851 O893 2.428 . S
Tb851 O894 2.308 . S
Tb851 C915 2.802 . S
N852 C848 1.361 . S
N852 Tb851 2.572 . S
N852 C854 1.340 . S
C853 C847 1.416 1_545 S
C853 C855 1.332 1_545 S
C853 H861 0.931 . S
C854 N852 1.340 . S
C854 C855 1.407 . S
C854 H860 0.930 . S
C855 C853 1.332 1_565 S
C855 C854 1.407 . S
C855 H857 0.929 . S
H856 C845 0.930 . S
H857 C855 0.929 . S
H858 C873 0.930 . S
H859 C880 0.929 . S
H860 C854 0.930 . S
H861 C853 0.931 . S
H862 C876 0.930 . S
H863 C843 0.930 . S
H864 C849 0.929 . S
H865 C850 0.930 . S
H866 C871 0.930 . S
H867 C846 0.930 . S
H868 C879 0.931 1_655 S
N869 Tb840 2.617 . S
N869 C870 1.379 . S
N869 C873 1.334 . S
C870 N869 1.379 . S
C870 C872 1.416 . S
C870 C878 1.424 . S
C871 H866 0.930 . S
C871 C873 1.390 . S
C871 C874 1.339 . S
C872 C870 1.416 . S
C872 C874 1.416 . S
C872 C905 1.448 . S
C873 H858 0.930 . S
C873 N869 1.334 . S
C873 C871 1.390 . S
C874 C871 1.339 . S
C874 C872 1.416 . S
C874 H881 0.930 . S
N875 Tb840 2.572 . S
N875 C876 1.340 . S
N875 C878 1.361 . S
C876 H862 0.930 . S
C876 N875 1.340 . S
C876 C880 1.407 . S
C877 C878 1.413 . S
C877 C879 1.416 . S
C877 C906 1.427 1_455 S
C878 C870 1.424 . S
C878 N875 1.361 . S
C878 C877 1.413 . S
C879 H868 0.931 1_455 S
C879 C877 1.416 . S
C879 C880 1.332 . S
C880 H859 0.929 . S
C880 C876 1.407 . S
C880 C879 1.332 . S
H881 C874 0.930 . S
H882 C905 0.930 1_655 S
H883 C906 0.929 . S
O884 Tb840 2.465 . S
O884 C904 1.264 . S
O885 Tb840 2.387 . S
O885 C896 1.264 . S
O886 Tb851 2.349 . S
O886 C896 1.243 . S
O887 Tb840 2.428 . S
O887 C904 1.256 . S
O888 Tb840 2.308 . S
O888 C903 1.266 . S
O889 Tb851 2.393 . S
O889 C903 1.248 . S
O890 Tb851 2.465 . S
O890 C915 1.264 . S
O891 Tb851 2.387 . S
O891 C907 1.264 . S
O892 Tb840 2.349 . S
O892 C907 1.243 . S
O893 Tb851 2.428 . S
O893 C915 1.256 . S
O894 Tb851 2.308 . S
O894 C914 1.266 . S
O895 Tb840 2.393 . S
O895 C914 1.248 . S
C896 O885 1.264 . S
C896 O886 1.243 . S
C897 C900 1.399 . S
C897 C902 1.383 . S
C897 C904 1.496 . S
C898 C899 1.399 . S
C898 C902 1.389 . S
C899 C898 1.399 . S
C899 C901 1.380 . S
C899 H916 0.929 . S
C900 C897 1.399 . S
C900 C901 1.392 . S
C900 H917 0.929 . S
C901 C899 1.380 . S
C901 C900 1.392 . S
C901 H918 0.929 . S
C902 C897 1.383 . S
C902 C898 1.389 . S
C902 H919 0.931 . S
C903 O888 1.266 . S
C903 O889 1.248 . S
C904 Tb840 2.802 . S
C904 O884 1.264 . S
C904 O887 1.256 . S
C904 C897 1.496 . S
C905 C872 1.448 . S
C905 H882 0.930 1_455 S
C905 C906 1.328 1_455 S
C906 C877 1.427 1_655 S
C906 H883 0.929 . S
C906 C905 1.328 1_655 S
C907 O891 1.264 . S
C907 O892 1.243 . S
C908 C911 1.401 . S
C908 C912 1.386 . S
C908 C915 1.492 1_545 S
C909 C910 1.399 . S
C909 C912 1.389 . S
C910 C909 1.399 . S
C910 C913 1.380 . S
C910 H920 0.929 . S
C911 C908 1.401 . S
C911 C913 1.392 . S
C911 H921 0.918 1_545 S
C912 C908 1.386 . S
C912 C909 1.389 . S
C912 H922 0.931 . S
C913 C910 1.380 . S
C913 C911 1.392 . S
C913 H923 0.929 . S
C914 O894 1.266 . S
C914 O895 1.248 . S
C915 Tb851 2.802 . S
C915 O890 1.264 . S
C915 O893 1.256 . S
C915 C908 1.492 1_565 S
H916 C899 0.929 . S
H917 C900 0.929 . S
H918 C901 0.929 . S
H919 C902 0.931 . S
H920 C910 0.929 . S
H921 C911 0.918 1_565 S
H922 C912 0.931 . S
H923 C913 0.929 . S
Tb924 N953 2.617 . S
Tb924 N959 2.572 . S
Tb924 O968 2.465 . S
Tb924 O969 2.387 . S
Tb924 O971 2.428 . S
Tb924 O972 2.308 . S
Tb924 O976 2.349 . S
Tb924 O979 2.393 . S
Tb924 C988 2.802 . S
C925 N926 1.379 . S
C925 C928 1.416 . S
C925 C932 1.424 . S
N926 C925 1.379 . S
N926 C929 1.334 . S
N926 Tb935 2.617 . S
C927 C929 1.390 . S
C927 C930 1.339 . S
C927 H947 0.930 1_556 S
C928 C925 1.416 . S
C928 C930 1.416 . S
C928 C934 1.448 . S
C929 N926 1.334 . S
C929 C927 1.390 . S
C929 H940 0.930 . S
C930 C927 1.339 . S
C930 C928 1.416 . S
C930 H951 0.930 . S
C931 C932 1.413 . S
C931 C933 1.427 1_565 S
C931 C937 1.416 . S
C932 C925 1.424 . S
C932 C931 1.413 . S
C932 N936 1.361 . S
C933 C931 1.427 1_545 S
C933 C934 1.328 1_545 S
C933 H948 0.929 . S
C934 C928 1.448 . S
C934 C933 1.328 1_565 S
C934 H949 0.930 1_565 S
Tb935 N926 2.617 . S
Tb935 N936 2.572 . S
Tb935 O970 2.349 . S
Tb935 O973 2.393 . S
Tb935 O974 2.465 . S
Tb935 O975 2.387 . S
Tb935 O977 2.428 . S
Tb935 O978 2.308 . S
Tb935 C999 2.802 . S
N936 C932 1.361 . S
N936 Tb935 2.572 . S
N936 C938 1.340 . S
C937 C931 1.416 . S
C937 C939 1.332 . S
C937 H945 0.931 1_565 S
C938 N936 1.340 . S
C938 C939 1.407 . S
C938 H944 0.930 . S
C939 C937 1.332 . S
C939 C938 1.407 . S
C939 H941 0.929 . S
H940 C929 0.930 . S
H941 C939 0.929 . S
H942 C957 0.930 . S
H943 C964 0.929 . S
H944 C938 0.930 . S
H945 C937 0.931 1_545 S
H946 C960 0.930 . S
H947 C927 0.930 1_554 S
H948 C933 0.929 . S
H949 C934 0.930 1_545 S
H950 C955 0.930 . S
H951 C930 0.930 . S
H952 C963 0.931 . S
N953 Tb924 2.617 . S
N953 C954 1.379 . S
N953 C957 1.334 . S
C954 N953 1.379 . S
C954 C956 1.416 . S
C954 C962 1.424 . S
C955 H950 0.930 . S
C955 C957 1.390 . S
C955 C958 1.339 . S
C956 C954 1.416 . S
C956 C958 1.416 . S
C956 C989 1.448 . S
C957 H942 0.930 . S
C957 N953 1.334 . S
C957 C955 1.390 . S
C958 C955 1.339 . S
C958 C956 1.416 . S
C958 H965 0.930 . S
N959 Tb924 2.572 . S
N959 C960 1.340 . S
N959 C962 1.361 . S
C960 H946 0.930 . S
C960 N959 1.340 . S
C960 C964 1.407 . S
C961 C962 1.413 . S
C961 C963 1.416 . S
C961 C990 1.427 . S
C962 C954 1.424 . S
C962 N959 1.361 . S
C962 C961 1.413 . S
C963 H952 0.931 . S
C963 C961 1.416 . S
C963 C964 1.332 . S
C964 H943 0.929 . S
C964 C960 1.407 . S
C964 C963 1.332 . S
H965 C958 0.930 . S
H966 C989 0.930 . S
H967 C990 0.929 . S
O968 Tb924 2.465 . S
O968 C988 1.264 . S
O969 Tb924 2.387 . S
O969 C980 1.264 . S
O970 Tb935 2.349 . S
O970 C980 1.243 . S
O971 Tb924 2.428 . S
O971 C988 1.256 . S
O972 Tb924 2.308 . S
O972 C987 1.266 . S
O973 Tb935 2.393 . S
O973 C987 1.248 . S
O974 Tb935 2.465 . S
O974 C999 1.264 . S
O975 Tb935 2.387 . S
O975 C991 1.264 . S
O976 Tb924 2.349 . S
O976 C991 1.243 . S
O977 Tb935 2.428 . S
O977 C999 1.256 . S
O978 Tb935 2.308 . S
O978 C998 1.266 . S
O979 Tb924 2.393 . S
O979 C998 1.248 . S
C980 O969 1.264 . S
C980 O970 1.243 . S
C981 C984 1.399 . S
C981 C986 1.383 . S
C981 C988 1.496 . S
C982 C983 1.399 . S
C982 C986 1.389 . S
C983 C982 1.399 . S
C983 C985 1.380 . S
C983 H1000 0.929 . S
C984 C981 1.399 . S
C984 C985 1.392 . S
C984 H1001 0.929 . S
C985 C983 1.380 . S
C985 C984 1.392 . S
C985 H1002 0.929 . S
C986 C981 1.383 . S
C986 C982 1.389 . S
C986 H1003 0.931 . S
C987 O972 1.266 . S
C987 O973 1.248 . S
C988 Tb924 2.802 . S
C988 O968 1.264 . S
C988 O971 1.256 . S
C988 C981 1.496 . S
C989 C956 1.448 . S
C989 H966 0.930 . S
C989 C990 1.328 . S
C990 C961 1.427 . S
C990 H967 0.929 . S
C990 C989 1.328 . S
C991 O975 1.264 . S
C991 O976 1.243 . S
C992 C995 1.399 . S
C992 C996 1.383 . S
C992 C999 1.496 . S
C993 C994 1.399 . S
C993 C996 1.389 . S
C994 C993 1.399 . S
C994 C997 1.380 . S
C994 H1004 0.929 . S
C995 C992 1.399 . S
C995 C997 1.392 . S
C995 H1005 0.929 . S
C996 C992 1.383 . S
C996 C993 1.389 . S
C996 H1006 0.931 . S
C997 C994 1.380 . S
C997 C995 1.392 . S
C997 H1007 0.929 . S
C998 O978 1.266 . S
C998 O979 1.248 . S
C999 Tb935 2.802 . S
C999 O974 1.264 . S
C999 O977 1.256 . S
C999 C992 1.496 . S
H1000 C983 0.929 . S
H1001 C984 0.929 . S
H1002 C985 0.929 . S
H1003 C986 0.931 . S
H1004 C994 0.929 . S
H1005 C995 0.929 . S
H1006 C996 0.931 . S
H1007 C997 0.929 . S
H1008 C1016 0.950 . S
H1009 C1021 0.950 . S
H1010 C1018 0.950 . S
H1011 C1020 0.950 . S
H1012 C1022 0.950 . S
H1013 C1024 0.950 . S
H1014 C1026 0.950 . S
H1015 C1027 0.950 . S
C1016 H1008 0.950 . S
C1016 C1017 1.386 . S
C1016 C1018 1.391 . S
C1017 C1016 1.386 . S
C1017 C1021 1.393 . S
C1018 H1010 0.950 . S
C1018 C1016 1.391 . S
C1018 C1019 1.400 . S
C1019 C1018 1.400 . S
C1019 C1020 1.398 . S
C1019 C1025 1.491 . S
C1020 H1011 0.950 . S
C1020 C1019 1.398 . S
C1020 C1021 1.391 . S
C1021 H1009 0.950 . S
C1021 C1017 1.393 . S
C1021 C1020 1.391 . S
C1022 H1012 0.950 . S
C1022 C1023 1.386 . S
C1022 C1024 1.391 . S
C1023 C1022 1.386 . S
C1023 C1027 1.393 . S
C1024 H1013 0.950 . S
C1024 C1022 1.391 . S
C1024 C1025 1.400 . S
C1025 C1019 1.491 . S
C1025 C1024 1.400 . S
C1025 C1026 1.398 . S
C1026 H1014 0.950 . S
C1026 C1025 1.398 . S
C1026 C1027 1.391 . S
C1027 H1015 0.950 . S
C1027 C1023 1.393 . S
C1027 C1026 1.391 . S
H1028 C1036 0.950 . S
H1029 C1041 0.950 . S
H1030 C1038 0.950 . S
H1031 C1040 0.950 . S
H1032 C1042 0.950 . S
H1033 C1044 0.950 1_455 S
H1034 C1046 0.950 . S
H1035 C1047 0.950 . S
C1036 H1028 0.950 . S
C1036 C1037 1.386 . S
C1036 C1038 1.391 . S
C1037 C1036 1.386 . S
C1037 C1041 1.393 . S
C1038 H1030 0.950 . S
C1038 C1036 1.391 . S
C1038 C1039 1.400 . S
C1039 C1038 1.400 . S
C1039 C1040 1.398 . S
C1039 C1045 1.491 1_455 S
C1040 H1031 0.950 . S
C1040 C1039 1.398 . S
C1040 C1041 1.391 . S
C1041 H1029 0.950 . S
C1041 C1037 1.393 . S
C1041 C1040 1.391 . S
C1042 H1032 0.950 . S
C1042 C1043 1.386 . S
C1042 C1044 1.391 . S
C1043 C1042 1.386 . S
C1043 C1047 1.393 . S
C1044 H1033 0.950 1_655 S
C1044 C1042 1.391 . S
C1044 C1045 1.400 . S
C1045 C1039 1.491 1_655 S
C1045 C1044 1.400 . S
C1045 C1046 1.398 . S
C1046 H1034 0.950 . S
C1046 C1045 1.398 . S
C1046 C1047 1.391 . S
C1047 H1035 0.950 . S
C1047 C1043 1.393 . S
C1047 C1046 1.391 . S
H1048 C1056 0.950 . S
H1049 C1061 0.950 . S
H1050 C1058 0.950 . S
H1051 C1060 0.950 . S
H1052 C1062 0.950 . S
H1053 C1064 0.950 . S
H1054 C1066 0.950 . S
H1055 C1067 0.950 . S
C1056 H1048 0.950 . S
C1056 C1057 1.386 . S
C1056 C1058 1.391 . S
C1057 C1056 1.386 . S
C1057 C1061 1.393 . S
C1058 H1050 0.950 . S
C1058 C1056 1.391 . S
C1058 C1059 1.400 . S
C1059 C1058 1.400 . S
C1059 C1060 1.398 . S
C1059 C1065 1.491 1_545 S
C1060 H1051 0.950 . S
C1060 C1059 1.398 . S
C1060 C1061 1.391 . S
C1061 H1049 0.950 . S
C1061 C1057 1.393 . S
C1061 C1060 1.391 . S
C1062 H1052 0.950 . S
C1062 C1063 1.386 . S
C1062 C1064 1.391 . S
C1063 C1062 1.386 . S
C1063 C1067 1.393 . S
C1064 H1053 0.950 . S
C1064 C1062 1.391 . S
C1064 C1065 1.400 . S
C1065 C1059 1.491 1_565 S
C1065 C1064 1.400 . S
C1065 C1066 1.398 . S
C1066 H1054 0.950 . S
C1066 C1065 1.398 . S
C1066 C1067 1.391 . S
C1067 H1055 0.950 . S
C1067 C1063 1.393 . S
C1067 C1066 1.391 . S
H1068 C1076 0.950 . S
H1069 C1081 0.950 . S
H1070 C1078 0.950 . S
H1071 C1080 0.950 . S
H1072 C1082 0.950 . S
H1073 C1084 0.950 . S
H1074 C1086 0.950 . S
H1075 C1087 0.950 . S
C1076 H1068 0.950 . S
C1076 C1077 1.386 . S
C1076 C1078 1.391 . S
C1077 C1076 1.386 . S
C1077 C1081 1.393 . S
C1078 H1070 0.950 . S
C1078 C1076 1.391 . S
C1078 C1079 1.400 . S
C1079 C1078 1.400 . S
C1079 C1080 1.398 . S
C1079 C1085 1.491 . S
C1080 H1071 0.950 . S
C1080 C1079 1.398 . S
C1080 C1081 1.391 . S
C1081 H1069 0.950 . S
C1081 C1077 1.393 . S
C1081 C1080 1.391 . S
C1082 H1072 0.950 . S
C1082 C1083 1.386 . S
C1082 C1084 1.391 . S
C1083 C1082 1.386 . S
C1083 C1087 1.393 . S
C1084 H1073 0.950 . S
C1084 C1082 1.391 . S
C1084 C1085 1.400 . S
C1085 C1079 1.491 . S
C1085 C1084 1.400 . S
C1085 C1086 1.398 . S
C1086 H1074 0.950 . S
C1086 C1085 1.398 . S
C1086 C1087 1.391 . S
C1087 H1075 0.950 . S
C1087 C1083 1.393 . S
C1087 C1086 1.391 . S
H1088 C1096 0.950 . S
H1089 C1101 0.950 . S
H1090 C1098 0.950 . S
H1091 C1100 0.950 . S
H1092 C1102 0.950 . S
H1093 C1104 0.950 . S
H1094 C1106 0.950 . S
H1095 C1107 0.950 . S
C1096 H1088 0.950 . S
C1096 C1097 1.386 . S
C1096 C1098 1.391 . S
C1097 C1096 1.386 . S
C1097 C1101 1.393 . S
C1098 H1090 0.950 . S
C1098 C1096 1.391 . S
C1098 C1099 1.400 . S
C1099 C1098 1.400 . S
C1099 C1100 1.398 . S
C1099 C1105 1.491 1_455 S
C1100 H1091 0.950 . S
C1100 C1099 1.398 . S
C1100 C1101 1.391 . S
C1101 H1089 0.950 . S
C1101 C1097 1.393 . S
C1101 C1100 1.391 . S
C1102 H1092 0.950 . S
C1102 C1103 1.386 . S
C1102 C1104 1.391 . S
C1103 C1102 1.386 . S
C1103 C1107 1.393 . S
C1104 H1093 0.950 . S
C1104 C1102 1.391 . S
C1104 C1105 1.400 . S
C1105 C1099 1.491 1_655 S
C1105 C1104 1.400 . S
C1105 C1106 1.398 . S
C1106 H1094 0.950 . S
C1106 C1105 1.398 . S
C1106 C1107 1.391 . S
C1107 H1095 0.950 . S
C1107 C1103 1.393 . S
C1107 C1106 1.391 . S
H1108 C1116 0.950 . S
H1109 C1121 0.950 . S
H1110 C1118 0.950 . S
H1111 C1120 0.950 . S
H1112 C1122 0.950 . S
H1113 C1124 0.950 . S
H1114 C1126 0.950 1_565 S
H1115 C1127 0.950 . S
C1116 H1108 0.950 . S
C1116 C1117 1.386 . S
C1116 C1118 1.391 . S
C1117 C1116 1.386 . S
C1117 C1121 1.393 . S
C1118 H1110 0.950 . S
C1118 C1116 1.391 . S
C1118 C1119 1.400 . S
C1119 C1118 1.400 . S
C1119 C1120 1.398 . S
C1119 C1125 1.491 1_565 S
C1120 H1111 0.950 . S
C1120 C1119 1.398 . S
C1120 C1121 1.391 . S
C1121 H1109 0.950 . S
C1121 C1117 1.393 . S
C1121 C1120 1.391 . S
C1122 H1112 0.950 . S
C1122 C1123 1.386 . S
C1122 C1124 1.391 . S
C1123 C1122 1.386 . S
C1123 C1127 1.393 . S
C1124 H1113 0.950 . S
C1124 C1122 1.391 . S
C1124 C1125 1.400 . S
C1125 C1119 1.491 1_545 S
C1125 C1124 1.400 . S
C1125 C1126 1.398 . S
C1126 H1114 0.950 1_545 S
C1126 C1125 1.398 . S
C1126 C1127 1.391 . S
C1127 H1115 0.950 . S
C1127 C1123 1.393 . S
C1127 C1126 1.391 . S
H1128 C1136 0.950 . S
H1129 C1141 0.950 . S
H1130 C1138 0.950 . S
H1131 C1140 0.950 . S
H1132 C1142 0.950 . S
H1133 C1144 0.950 . S
H1134 C1146 0.950 . S
H1135 C1147 0.950 . S
C1136 H1128 0.950 . S
C1136 C1137 1.386 . S
C1136 C1138 1.391 . S
C1137 C1136 1.386 . S
C1137 C1141 1.393 . S
C1138 H1130 0.950 . S
C1138 C1136 1.391 . S
C1138 C1139 1.400 . S
C1139 C1138 1.400 . S
C1139 C1140 1.398 . S
C1139 C1145 1.491 . S
C1140 H1131 0.950 . S
C1140 C1139 1.398 . S
C1140 C1141 1.391 . S
C1141 H1129 0.950 . S
C1141 C1137 1.393 . S
C1141 C1140 1.391 . S
C1142 H1132 0.950 . S
C1142 C1143 1.386 . S
C1142 C1144 1.391 . S
C1143 C1142 1.386 . S
C1143 C1147 1.393 . S
C1144 H1133 0.950 . S
C1144 C1142 1.391 . S
C1144 C1145 1.400 . S
C1145 C1139 1.491 . S
C1145 C1144 1.400 . S
C1145 C1146 1.398 . S
C1146 H1134 0.950 . S
C1146 C1145 1.398 . S
C1146 C1147 1.391 . S
C1147 H1135 0.950 . S
C1147 C1143 1.393 . S
C1147 C1146 1.391 . S
H1148 C1156 0.950 . S
H1149 C1161 0.950 . S
H1150 C1158 0.950 . S
H1151 C1160 0.950 . S
H1152 C1162 0.950 . S
H1153 C1164 0.950 . S
H1154 C1166 0.950 . S
H1155 C1167 0.950 . S
C1156 H1148 0.950 . S
C1156 C1157 1.386 . S
C1156 C1158 1.391 . S
C1157 C1156 1.386 . S
C1157 C1161 1.393 . S
C1158 H1150 0.950 . S
C1158 C1156 1.391 . S
C1158 C1159 1.400 . S
C1159 C1158 1.400 . S
C1159 C1160 1.398 . S
C1159 C1165 1.491 1_455 S
C1160 H1151 0.950 . S
C1160 C1159 1.398 . S
C1160 C1161 1.391 . S
C1161 H1149 0.950 . S
C1161 C1157 1.393 . S
C1161 C1160 1.391 . S
C1162 H1152 0.950 . S
C1162 C1163 1.386 . S
C1162 C1164 1.391 . S
C1163 C1162 1.386 . S
C1163 C1167 1.393 . S
C1164 H1153 0.950 . S
C1164 C1162 1.391 . S
C1164 C1165 1.400 . S
C1165 C1159 1.491 1_655 S
C1165 C1164 1.400 . S
C1165 C1166 1.398 . S
C1166 H1154 0.950 . S
C1166 C1165 1.398 . S
C1166 C1167 1.391 . S
C1167 H1155 0.950 . S
C1167 C1163 1.393 . S
C1167 C1166 1.391 . S
H1168 C1176 0.950 . S
H1169 C1181 0.950 . S
H1170 C1178 0.950 . S
H1171 C1180 0.951 1_545 S
H1172 C1182 0.950 . S
H1173 C1184 0.950 . S
H1174 C1186 0.950 . S
H1175 C1187 0.950 . S
C1176 H1168 0.950 . S
C1176 C1177 1.386 . S
C1176 C1178 1.391 . S
C1177 C1176 1.386 . S
C1177 C1181 1.393 . S
C1178 H1170 0.950 . S
C1178 C1176 1.391 . S
C1178 C1179 1.400 . S
C1179 C1178 1.400 . S
C1179 C1180 1.398 . S
C1179 C1185 1.491 1_565 S
C1180 H1171 0.951 1_565 S
C1180 C1179 1.398 . S
C1180 C1181 1.391 . S
C1181 H1169 0.950 . S
C1181 C1177 1.393 . S
C1181 C1180 1.391 . S
C1182 H1172 0.950 . S
C1182 C1183 1.386 . S
C1182 C1184 1.391 . S
C1183 C1182 1.386 . S
C1183 C1187 1.393 . S
C1184 H1173 0.950 . S
C1184 C1182 1.391 . S
C1184 C1185 1.400 . S
C1185 C1179 1.491 1_545 S
C1185 C1184 1.400 . S
C1185 C1186 1.398 . S
C1186 H1174 0.950 . S
C1186 C1185 1.398 . S
C1186 C1187 1.391 . S
C1187 H1175 0.950 . S
C1187 C1183 1.393 . S
C1187 C1186 1.391 . S
H1188 C1196 0.950 . S
H1189 C1201 0.950 . S
H1190 C1198 0.950 . S
H1191 C1200 0.950 . S
H1192 C1202 0.950 . S
H1193 C1204 0.950 . S
H1194 C1206 0.950 . S
H1195 C1207 0.950 . S
C1196 H1188 0.950 . S
C1196 C1197 1.386 . S
C1196 C1198 1.391 . S
C1197 C1196 1.386 . S
C1197 C1201 1.393 . S
C1198 H1190 0.950 . S
C1198 C1196 1.391 . S
C1198 C1199 1.400 . S
C1199 C1198 1.400 . S
C1199 C1200 1.398 . S
C1199 C1205 1.491 . S
C1200 H1191 0.950 . S
C1200 C1199 1.398 . S
C1200 C1201 1.391 . S
C1201 H1189 0.950 . S
C1201 C1197 1.393 . S
C1201 C1200 1.391 . S
C1202 H1192 0.950 . S
C1202 C1203 1.386 . S
C1202 C1204 1.391 . S
C1203 C1202 1.386 . S
C1203 C1207 1.393 . S
C1204 H1193 0.950 . S
C1204 C1202 1.391 . S
C1204 C1205 1.400 . S
C1205 C1199 1.491 . S
C1205 C1204 1.400 . S
C1205 C1206 1.398 . S
C1206 H1194 0.950 . S
C1206 C1205 1.398 . S
C1206 C1207 1.391 . S
C1207 H1195 0.950 . S
C1207 C1203 1.393 . S
C1207 C1206 1.391 . S
H1208 C1216 0.950 . S
H1209 C1221 0.950 . S
H1210 C1218 0.950 1_655 S
H1211 C1220 0.950 . S
H1212 C1222 0.950 . S
H1213 C1224 0.950 . S
H1214 C1226 0.950 . S
H1215 C1227 0.950 . S
C1216 H1208 0.950 . S
C1216 C1217 1.386 . S
C1216 C1218 1.391 . S
C1217 C1216 1.386 . S
C1217 C1221 1.393 . S
C1218 H1210 0.950 1_455 S
C1218 C1216 1.391 . S
C1218 C1219 1.400 . S
C1219 C1218 1.400 . S
C1219 C1220 1.398 . S
C1219 C1225 1.491 1_455 S
C1220 H1211 0.950 . S
C1220 C1219 1.398 . S
C1220 C1221 1.391 . S
C1221 H1209 0.950 . S
C1221 C1217 1.393 . S
C1221 C1220 1.391 . S
C1222 H1212 0.950 . S
C1222 C1223 1.386 . S
C1222 C1224 1.391 . S
C1223 C1222 1.386 . S
C1223 C1227 1.393 . S
C1224 H1213 0.950 . S
C1224 C1222 1.391 . S
C1224 C1225 1.400 . S
C1225 C1219 1.491 1_655 S
C1225 C1224 1.400 . S
C1225 C1226 1.398 . S
C1226 H1214 0.950 . S
C1226 C1225 1.398 . S
C1226 C1227 1.391 . S
C1227 H1215 0.950 . S
C1227 C1223 1.393 . S
C1227 C1226 1.391 . S
H1228 C1236 0.950 . S
H1229 C1241 0.950 . S
H1230 C1238 0.950 . S
H1231 C1240 0.950 . S
H1232 C1242 0.950 . S
H1233 C1244 0.950 . S
H1234 C1246 0.950 1_545 S
H1235 C1247 0.950 . S
C1236 H1228 0.950 . S
C1236 C1237 1.386 . S
C1236 C1238 1.391 . S
C1237 C1236 1.386 . S
C1237 C1241 1.393 . S
C1238 H1230 0.950 . S
C1238 C1236 1.391 . S
C1238 C1239 1.400 . S
C1239 C1238 1.400 . S
C1239 C1240 1.398 . S
C1239 C1245 1.491 1_545 S
C1240 H1231 0.950 . S
C1240 C1239 1.398 . S
C1240 C1241 1.391 . S
C1241 H1229 0.950 . S
C1241 C1237 1.393 . S
C1241 C1240 1.391 . S
C1242 H1232 0.950 . S
C1242 C1243 1.386 . S
C1242 C1244 1.391 . S
C1243 C1242 1.386 . S
C1243 C1247 1.393 . S
C1244 H1233 0.950 . S
C1244 C1242 1.391 . S
C1244 C1245 1.400 . S
C1245 C1239 1.491 1_565 S
C1245 C1244 1.400 . S
C1245 C1246 1.398 . S
C1246 H1234 0.950 1_565 S
C1246 C1245 1.398 . S
C1246 C1247 1.391 . S
C1247 H1235 0.950 . S
C1247 C1243 1.393 . S
C1247 C1246 1.391 . S
H1248 C1256 0.950 . S
H1249 C1261 0.950 . S
H1250 C1258 0.950 . S
H1251 C1260 0.950 . S
H1252 C1262 0.950 . S
H1253 C1264 0.950 . S
H1254 C1266 0.950 . S
H1255 C1267 0.950 . S
C1256 H1248 0.950 . S
C1256 C1257 1.386 . S
C1256 C1258 1.391 . S
C1257 C1256 1.386 . S
C1257 C1261 1.393 . S
C1258 H1250 0.950 . S
C1258 C1256 1.391 . S
C1258 C1259 1.400 . S
C1259 C1258 1.400 . S
C1259 C1260 1.398 . S
C1259 C1265 1.491 . S
C1260 H1251 0.950 . S
C1260 C1259 1.398 . S
C1260 C1261 1.391 . S
C1261 H1249 0.950 . S
C1261 C1257 1.393 . S
C1261 C1260 1.391 . S
C1262 H1252 0.950 . S
C1262 C1263 1.386 . S
C1262 C1264 1.391 . S
C1263 C1262 1.386 . S
C1263 C1267 1.393 . S
C1264 H1253 0.950 . S
C1264 C1262 1.391 . S
C1264 C1265 1.400 . S
C1265 C1259 1.491 . S
C1265 C1264 1.400 . S
C1265 C1266 1.398 . S
C1266 H1254 0.950 . S
C1266 C1265 1.398 . S
C1266 C1267 1.391 . S
C1267 H1255 0.950 . S
C1267 C1263 1.393 . S
C1267 C1266 1.391 . S
H1268 C1276 0.950 . S
H1269 C1281 0.950 . S
H1270 C1278 0.950 . S
H1271 C1280 0.950 . S
H1272 C1282 0.950 . S
H1273 C1284 0.950 . S
H1274 C1286 0.950 . S
H1275 C1287 0.950 . S
C1276 H1268 0.950 . S
C1276 C1277 1.386 . S
C1276 C1278 1.391 . S
C1277 C1276 1.386 . S
C1277 C1281 1.393 . S
C1278 H1270 0.950 . S
C1278 C1276 1.391 . S
C1278 C1279 1.400 . S
C1279 C1278 1.400 . S
C1279 C1280 1.398 . S
C1279 C1285 1.491 . S
C1280 H1271 0.950 . S
C1280 C1279 1.398 . S
C1280 C1281 1.391 . S
C1281 H1269 0.950 . S
C1281 C1277 1.393 . S
C1281 C1280 1.391 . S
C1282 H1272 0.950 . S
C1282 C1283 1.386 . S
C1282 C1284 1.391 . S
C1283 C1282 1.386 . S
C1283 C1287 1.393 . S
C1284 H1273 0.950 . S
C1284 C1282 1.391 . S
C1284 C1285 1.400 . S
C1285 C1279 1.491 . S
C1285 C1284 1.400 . S
C1285 C1286 1.398 . S
C1286 H1274 0.950 . S
C1286 C1285 1.398 . S
C1286 C1287 1.391 . S
C1287 H1275 0.950 . S
C1287 C1283 1.393 . S
C1287 C1286 1.391 . S
H1288 C1296 0.950 . S
H1289 C1301 0.950 . S
H1290 C1298 0.950 . S
H1291 C1300 0.950 . S
H1292 C1302 0.950 . S
H1293 C1304 0.950 . S
H1294 C1306 0.950 . S
H1295 C1307 0.950 . S
C1296 H1288 0.950 . S
C1296 C1297 1.386 . S
C1296 C1298 1.391 . S
C1297 C1296 1.386 . S
C1297 C1301 1.393 . S
C1298 H1290 0.950 . S
C1298 C1296 1.391 . S
C1298 C1299 1.400 . S
C1299 C1298 1.400 . S
C1299 C1300 1.398 . S
C1299 C1305 1.491 . S
C1300 H1291 0.950 . S
C1300 C1299 1.398 . S
C1300 C1301 1.391 . S
C1301 H1289 0.950 . S
C1301 C1297 1.393 . S
C1301 C1300 1.391 . S
C1302 H1292 0.950 . S
C1302 C1303 1.386 . S
C1302 C1304 1.391 . S
C1303 C1302 1.386 . S
C1303 C1307 1.393 . S
C1304 H1293 0.950 . S
C1304 C1302 1.391 . S
C1304 C1305 1.400 . S
C1305 C1299 1.491 . S
C1305 C1304 1.400 . S
C1305 C1306 1.398 . S
C1306 H1294 0.950 . S
C1306 C1305 1.398 . S
C1306 C1307 1.391 . S
C1307 H1295 0.950 . S
C1307 C1303 1.393 . S
C1307 C1306 1.391 . S
H1308 C1316 0.950 . S
H1309 C1321 0.950 . S
H1310 C1318 0.950 . S
H1311 C1320 0.950 . S
H1312 C1322 0.950 . S
H1313 C1324 0.950 . S
H1314 C1326 0.950 . S
H1315 C1327 0.950 . S
C1316 H1308 0.950 . S
C1316 C1317 1.386 . S
C1316 C1318 1.391 . S
C1317 C1316 1.386 . S
C1317 C1321 1.393 . S
C1318 H1310 0.950 . S
C1318 C1316 1.391 . S
C1318 C1319 1.400 . S
C1319 C1318 1.400 . S
C1319 C1320 1.398 . S
C1319 C1325 1.491 . S
C1320 H1311 0.950 . S
C1320 C1319 1.398 . S
C1320 C1321 1.391 . S
C1321 H1309 0.950 . S
C1321 C1317 1.393 . S
C1321 C1320 1.391 . S
C1322 H1312 0.950 . S
C1322 C1323 1.386 . S
C1322 C1324 1.391 . S
C1323 C1322 1.386 . S
C1323 C1327 1.393 . S
C1324 H1313 0.950 . S
C1324 C1322 1.391 . S
C1324 C1325 1.400 . S
C1325 C1319 1.491 . S
C1325 C1324 1.400 . S
C1325 C1326 1.398 . S
C1326 H1314 0.950 . S
C1326 C1325 1.398 . S
C1326 C1327 1.391 . S
C1327 H1315 0.950 . S
C1327 C1323 1.393 . S
C1327 C1326 1.391 . S
H1328 C1336 0.950 . S
H1329 C1341 0.950 . S
H1330 C1338 0.950 . S
H1331 C1340 0.950 . S
H1332 C1342 0.950 . S
H1333 C1344 0.950 . S
H1334 C1346 0.950 . S
H1335 C1347 0.950 . S
C1336 H1328 0.950 . S
C1336 C1337 1.386 . S
C1336 C1338 1.391 . S
C1337 C1336 1.386 . S
C1337 C1341 1.393 . S
C1338 H1330 0.950 . S
C1338 C1336 1.391 . S
C1338 C1339 1.400 . S
C1339 C1338 1.400 . S
C1339 C1340 1.398 . S
C1339 C1345 1.491 . S
C1340 H1331 0.950 . S
C1340 C1339 1.398 . S
C1340 C1341 1.391 . S
C1341 H1329 0.950 . S
C1341 C1337 1.393 . S
C1341 C1340 1.391 . S
C1342 H1332 0.950 . S
C1342 C1343 1.386 . S
C1342 C1344 1.391 . S
C1343 C1342 1.386 . S
C1343 C1347 1.393 . S
C1344 H1333 0.950 . S
C1344 C1342 1.391 . S
C1344 C1345 1.400 . S
C1345 C1339 1.491 . S
C1345 C1344 1.400 . S
C1345 C1346 1.398 . S
C1346 H1334 0.950 . S
C1346 C1345 1.398 . S
C1346 C1347 1.391 . S
C1347 H1335 0.950 . S
C1347 C1343 1.393 . S
C1347 C1346 1.391 . S
H1348 C1356 0.950 . S
H1349 C1361 0.950 . S
H1350 C1358 0.950 . S
H1351 C1360 0.950 . S
H1352 C1362 0.950 . S
H1353 C1364 0.950 . S
H1354 C1366 0.950 . S
H1355 C1367 0.950 . S
C1356 H1348 0.950 . S
C1356 C1357 1.386 . S
C1356 C1358 1.391 . S
C1357 C1356 1.386 . S
C1357 C1361 1.393 . S
C1358 H1350 0.950 . S
C1358 C1356 1.391 . S
C1358 C1359 1.400 . S
C1359 C1358 1.400 . S
C1359 C1360 1.398 . S
C1359 C1365 1.491 . S
C1360 H1351 0.950 . S
C1360 C1359 1.398 . S
C1360 C1361 1.391 . S
C1361 H1349 0.950 . S
C1361 C1357 1.393 . S
C1361 C1360 1.391 . S
C1362 H1352 0.950 . S
C1362 C1363 1.386 . S
C1362 C1364 1.391 . S
C1363 C1362 1.386 . S
C1363 C1367 1.393 . S
C1364 H1353 0.950 . S
C1364 C1362 1.391 . S
C1364 C1365 1.400 . S
C1365 C1359 1.491 . S
C1365 C1364 1.400 . S
C1365 C1366 1.398 . S
C1366 H1354 0.950 . S
C1366 C1365 1.398 . S
C1366 C1367 1.391 . S
C1367 H1355 0.950 . S
C1367 C1363 1.393 . S
C1367 C1366 1.391 . S
H1368 C1376 0.950 . S
H1369 C1381 0.950 . S
H1370 C1378 0.950 1_545 S
H1371 C1380 0.950 1_554 S
H1372 C1382 0.950 . S
H1373 C1384 0.950 1_565 S
H1374 C1386 0.950 1_556 S
H1375 C1387 0.950 . S
C1376 H1368 0.950 . S
C1376 C1377 1.386 . S
C1376 C1378 1.391 . S
C1377 C1376 1.386 . S
C1377 C1381 1.393 . S
C1378 H1370 0.950 1_565 S
C1378 C1376 1.391 . S
C1378 C1379 1.400 . S
C1379 C1378 1.400 . S
C1379 C1380 1.398 . S
C1379 C1385 1.491 1_566 S
C1380 H1371 0.950 1_556 S
C1380 C1379 1.398 . S
C1380 C1381 1.391 . S
C1381 H1369 0.950 . S
C1381 C1377 1.393 . S
C1381 C1380 1.391 . S
C1382 H1372 0.950 . S
C1382 C1383 1.386 . S
C1382 C1384 1.391 . S
C1383 C1382 1.386 . S
C1383 C1387 1.393 . S
C1384 H1373 0.950 1_545 S
C1384 C1382 1.391 . S
C1384 C1385 1.400 . S
C1385 C1379 1.491 1_544 S
C1385 C1384 1.400 . S
C1385 C1386 1.398 . S
C1386 H1374 0.950 1_554 S
C1386 C1385 1.398 . S
C1386 C1387 1.391 . S
C1387 H1375 0.950 . S
C1387 C1383 1.393 . S
C1387 C1386 1.391 . S
H1388 C1396 0.950 . S
H1389 C1401 0.950 . S
H1390 C1398 0.950 . S
H1391 C1400 0.950 . S
H1392 C1402 0.950 . S
H1393 C1404 0.950 . S
H1394 C1406 0.950 . S
H1395 C1407 0.950 . S
C1396 H1388 0.950 . S
C1396 C1397 1.386 . S
C1396 C1398 1.391 . S
C1397 C1396 1.386 . S
C1397 C1401 1.393 . S
C1398 H1390 0.950 . S
C1398 C1396 1.391 . S
C1398 C1399 1.400 . S
C1399 C1398 1.400 . S
C1399 C1400 1.398 . S
C1399 C1405 1.491 . S
C1400 H1391 0.950 . S
C1400 C1399 1.398 . S
C1400 C1401 1.391 . S
C1401 H1389 0.950 . S
C1401 C1397 1.393 . S
C1401 C1400 1.391 . S
C1402 H1392 0.950 . S
C1402 C1403 1.386 . S
C1402 C1404 1.391 . S
C1403 C1402 1.386 . S
C1403 C1407 1.393 . S
C1404 H1393 0.950 . S
C1404 C1402 1.391 . S
C1404 C1405 1.400 . S
C1405 C1399 1.491 . S
C1405 C1404 1.400 . S
C1405 C1406 1.398 . S
C1406 H1394 0.950 . S
C1406 C1405 1.398 . S
C1406 C1407 1.391 . S
C1407 H1395 0.950 . S
C1407 C1403 1.393 . S
C1407 C1406 1.391 . S
H1408 C1416 0.950 . S
H1409 C1421 0.950 . S
H1410 C1418 0.950 1_554 S
H1411 C1420 0.950 1_655 S
H1412 C1422 0.950 . S
H1413 C1424 0.950 1_556 S
H1414 C1426 0.950 1_455 S
H1415 C1427 0.950 . S
C1416 H1408 0.950 . S
C1416 C1417 1.386 . S
C1416 C1418 1.391 . S
C1417 C1416 1.386 . S
C1417 C1421 1.393 . S
C1418 H1410 0.950 1_556 S
C1418 C1416 1.391 . S
C1418 C1419 1.400 . S
C1419 C1418 1.400 . S
C1419 C1420 1.398 . S
C1419 C1425 1.491 1_456 S
C1420 H1411 0.950 1_455 S
C1420 C1419 1.398 . S
C1420 C1421 1.391 . S
C1421 H1409 0.950 . S
C1421 C1417 1.393 . S
C1421 C1420 1.391 . S
C1422 H1412 0.950 . S
C1422 C1423 1.386 . S
C1422 C1424 1.391 . S
C1423 C1422 1.386 . S
C1423 C1427 1.393 . S
C1424 H1413 0.950 1_554 S
C1424 C1422 1.391 . S
C1424 C1425 1.400 . S
C1425 C1419 1.491 1_654 S
C1425 C1424 1.400 . S
C1425 C1426 1.398 . S
C1426 H1414 0.950 1_655 S
C1426 C1425 1.398 . S
C1426 C1427 1.391 . S
C1427 H1415 0.950 . S
C1427 C1423 1.393 . S
C1427 C1426 1.391 . S
H1428 C1436 0.950 . S
H1429 C1441 0.950 . S
H1430 C1438 0.950 1_565 S
H1431 C1440 0.950 . S
H1432 C1442 0.950 . S
H1433 C1444 0.950 1_545 S
H1434 C1446 0.950 . S
H1435 C1447 0.950 . S
C1436 H1428 0.950 . S
C1436 C1437 1.386 . S
C1436 C1438 1.391 . S
C1437 C1436 1.386 . S
C1437 C1441 1.393 . S
C1438 H1430 0.950 1_545 S
C1438 C1436 1.391 . S
C1438 C1439 1.400 . S
C1439 C1438 1.400 . S
C1439 C1440 1.398 . S
C1439 C1445 1.491 1_545 S
C1440 H1431 0.950 . S
C1440 C1439 1.398 . S
C1440 C1441 1.391 . S
C1441 H1429 0.950 . S
C1441 C1437 1.393 . S
C1441 C1440 1.391 . S
C1442 H1432 0.950 . S
C1442 C1443 1.386 . S
C1442 C1444 1.391 . S
C1443 C1442 1.386 . S
C1443 C1447 1.393 . S
C1444 H1433 0.950 1_565 S
C1444 C1442 1.391 . S
C1444 C1445 1.400 . S
C1445 C1439 1.491 1_565 S
C1445 C1444 1.400 . S
C1445 C1446 1.398 . S
C1446 H1434 0.950 . S
C1446 C1445 1.398 . S
C1446 C1447 1.391 . S
C1447 H1435 0.950 . S
C1447 C1443 1.393 . S
C1447 C1446 1.391 . S
H1448 C1456 0.950 . S
H1449 C1461 0.950 . S
H1450 C1458 0.998 . S
H1451 C1460 0.950 . S
H1452 C1462 0.950 . S
H1453 C1464 0.998 . S
H1454 C1466 0.950 . S
H1455 C1467 0.950 . S
C1456 H1448 0.950 . S
C1456 C1457 1.386 . S
C1456 C1458 1.363 1_554 S
C1457 C1456 1.386 . S
C1457 C1461 1.393 . S
C1458 H1450 0.998 . S
C1458 C1456 1.363 1_556 S
C1458 C1459 1.383 1_556 S
C1459 C1458 1.383 1_554 S
C1459 C1460 1.398 . S
C1459 C1465 1.491 1_554 S
C1460 H1451 0.950 . S
C1460 C1459 1.398 . S
C1460 C1461 1.391 . S
C1461 H1449 0.950 . S
C1461 C1457 1.393 . S
C1461 C1460 1.391 . S
C1462 H1452 0.950 . S
C1462 C1463 1.386 . S
C1462 C1464 1.363 1_556 S
C1463 C1462 1.386 . S
C1463 C1467 1.393 . S
C1464 H1453 0.998 . S
C1464 C1462 1.363 1_554 S
C1464 C1465 1.383 1_554 S
C1465 C1459 1.491 1_556 S
C1465 C1464 1.383 1_556 S
C1465 C1466 1.398 . S
C1466 H1454 0.950 . S
C1466 C1465 1.398 . S
C1466 C1467 1.391 . S
C1467 H1455 0.950 . S
C1467 C1463 1.393 . S
C1467 C1466 1.391 . S
H1468 C1476 0.950 . S
H1469 C1481 0.950 . S
H1470 C1478 0.950 . S
H1471 C1480 0.959 . S
H1472 C1482 0.950 . S
H1473 C1484 0.950 . S
H1474 C1486 0.959 . S
H1475 C1487 0.950 . S
C1476 H1468 0.950 . S
C1476 C1477 1.386 . S
C1476 C1478 1.391 . S
C1477 C1476 1.386 . S
C1477 C1481 1.393 . S
C1478 H1470 0.950 . S
C1478 C1476 1.391 . S
C1478 C1479 1.400 . S
C1479 C1478 1.400 . S
C1479 C1480 1.398 . S
C1479 C1485 1.491 1_455 S
C1480 H1471 0.959 . S
C1480 C1479 1.398 . S
C1480 C1481 1.391 . S
C1481 H1469 0.950 . S
C1481 C1477 1.393 . S
C1481 C1480 1.391 . S
C1482 H1472 0.950 . S
C1482 C1483 1.386 . S
C1482 C1484 1.391 . S
C1483 C1482 1.386 . S
C1483 C1487 1.393 . S
C1484 H1473 0.950 . S
C1484 C1482 1.391 . S
C1484 C1485 1.400 . S
C1485 C1479 1.491 1_655 S
C1485 C1484 1.400 . S
C1485 C1486 1.398 . S
C1486 H1474 0.959 . S
C1486 C1485 1.398 . S
C1486 C1487 1.391 . S
C1487 H1475 0.950 . S
C1487 C1483 1.393 . S
C1487 C1486 1.391 . S
H1488 C1496 0.950 . S
H1489 C1501 0.950 . S
H1490 C1498 0.950 . S
H1491 C1500 0.950 . S
H1492 C1502 0.950 . S
H1493 C1504 0.950 . S
H1494 C1506 0.950 . S
H1495 C1507 0.950 . S
C1496 H1488 0.950 . S
C1496 C1497 1.386 . S
C1496 C1498 1.391 . S
C1497 C1496 1.386 . S
C1497 C1501 1.393 . S
C1498 H1490 0.950 . S
C1498 C1496 1.391 . S
C1498 C1499 1.400 . S
C1499 C1498 1.400 . S
C1499 C1500 1.398 . S
C1499 C1505 1.491 . S
C1500 H1491 0.950 . S
C1500 C1499 1.398 . S
C1500 C1501 1.391 . S
C1501 H1489 0.950 . S
C1501 C1497 1.393 . S
C1501 C1500 1.391 . S
C1502 H1492 0.950 . S
C1502 C1503 1.386 . S
C1502 C1504 1.391 . S
C1503 C1502 1.386 . S
C1503 C1507 1.393 . S
C1504 H1493 0.950 . S
C1504 C1502 1.391 . S
C1504 C1505 1.400 . S
C1505 C1499 1.491 . S
C1505 C1504 1.400 . S
C1505 C1506 1.398 . S
C1506 H1494 0.950 . S
C1506 C1505 1.398 . S
C1506 C1507 1.391 . S
C1507 H1495 0.950 . S
C1507 C1503 1.393 . S
C1507 C1506 1.391 . S
H1508 C1516 0.950 . S
H1509 C1521 0.950 . S
H1510 C1518 0.950 . S
H1511 C1520 0.950 . S
H1512 C1522 0.950 . S
H1513 C1524 0.950 . S
H1514 C1526 0.950 . S
H1515 C1527 0.950 . S
C1516 H1508 0.950 . S
C1516 C1517 1.386 . S
C1516 C1518 1.391 . S
C1517 C1516 1.386 . S
C1517 C1521 1.393 . S
C1518 H1510 0.950 . S
C1518 C1516 1.391 . S
C1518 C1519 1.400 . S
C1519 C1518 1.400 . S
C1519 C1520 1.398 . S
C1519 C1525 1.491 . S
C1520 H1511 0.950 . S
C1520 C1519 1.398 . S
C1520 C1521 1.391 . S
C1521 H1509 0.950 . S
C1521 C1517 1.393 . S
C1521 C1520 1.391 . S
C1522 H1512 0.950 . S
C1522 C1523 1.386 . S
C1522 C1524 1.391 . S
C1523 C1522 1.386 . S
C1523 C1527 1.393 . S
C1524 H1513 0.950 . S
C1524 C1522 1.391 . S
C1524 C1525 1.400 . S
C1525 C1519 1.491 . S
C1525 C1524 1.400 . S
C1525 C1526 1.398 . S
C1526 H1514 0.950 . S
C1526 C1525 1.398 . S
C1526 C1527 1.391 . S
C1527 H1515 0.950 . S
C1527 C1523 1.393 . S
C1527 C1526 1.391 . S
H1528 C1536 0.950 . S
H1529 C1541 0.950 . S
H1530 C1538 0.950 . S
H1531 C1540 0.950 . S
H1532 C1542 0.950 . S
H1533 C1544 0.950 . S
H1534 C1546 0.950 . S
H1535 C1547 0.950 . S
C1536 H1528 0.950 . S
C1536 C1537 1.386 . S
C1536 C1538 1.391 . S
C1537 C1536 1.386 . S
C1537 C1541 1.393 . S
C1538 H1530 0.950 . S
C1538 C1536 1.391 . S
C1538 C1539 1.400 . S
C1539 C1538 1.400 . S
C1539 C1540 1.398 . S
C1539 C1545 1.491 . S
C1540 H1531 0.950 . S
C1540 C1539 1.398 . S
C1540 C1541 1.391 . S
C1541 H1529 0.950 . S
C1541 C1537 1.393 . S
C1541 C1540 1.391 . S
C1542 H1532 0.950 . S
C1542 C1543 1.386 . S
C1542 C1544 1.391 . S
C1543 C1542 1.386 . S
C1543 C1547 1.393 . S
C1544 H1533 0.950 . S
C1544 C1542 1.391 . S
C1544 C1545 1.400 . S
C1545 C1539 1.491 . S
C1545 C1544 1.400 . S
C1545 C1546 1.398 . S
C1546 H1534 0.950 . S
C1546 C1545 1.398 . S
C1546 C1547 1.391 . S
C1547 H1535 0.950 . S
C1547 C1543 1.393 . S
C1547 C1546 1.391 . S
H1548 C1556 0.950 . S
H1549 C1561 0.950 . S
H1550 C1558 0.950 . S
H1551 C1560 0.950 . S
H1552 C1562 0.950 . S
H1553 C1564 0.950 . S
H1554 C1566 0.950 . S
H1555 C1567 0.950 . S
C1556 H1548 0.950 . S
C1556 C1557 1.386 . S
C1556 C1558 1.391 . S
C1557 C1556 1.386 . S
C1557 C1561 1.393 . S
C1558 H1550 0.950 . S
C1558 C1556 1.391 . S
C1558 C1559 1.400 . S
C1559 C1558 1.400 . S
C1559 C1560 1.398 . S
C1559 C1565 1.491 . S
C1560 H1551 0.950 . S
C1560 C1559 1.398 . S
C1560 C1561 1.391 . S
C1561 H1549 0.950 . S
C1561 C1557 1.393 . S
C1561 C1560 1.391 . S
C1562 H1552 0.950 . S
C1562 C1563 1.386 . S
C1562 C1564 1.391 . S
C1563 C1562 1.386 . S
C1563 C1567 1.393 . S
C1564 H1553 0.950 . S
C1564 C1562 1.391 . S
C1564 C1565 1.400 . S
C1565 C1559 1.491 . S
C1565 C1564 1.400 . S
C1565 C1566 1.398 . S
C1566 H1554 0.950 . S
C1566 C1565 1.398 . S
C1566 C1567 1.391 . S
C1567 H1555 0.950 . S
C1567 C1563 1.393 . S
C1567 C1566 1.391 . S
H1568 C1576 0.950 . S
H1569 C1581 0.950 . S
H1570 C1578 0.950 . S
H1571 C1580 0.950 . S
H1572 C1582 0.950 . S
H1573 C1584 0.950 . S
H1574 C1586 0.950 . S
H1575 C1587 0.950 . S
C1576 H1568 0.950 . S
C1576 C1577 1.386 . S
C1576 C1578 1.391 . S
C1577 C1576 1.386 . S
C1577 C1581 1.393 . S
C1578 H1570 0.950 . S
C1578 C1576 1.391 . S
C1578 C1579 1.400 . S
C1579 C1578 1.400 . S
C1579 C1580 1.398 . S
C1579 C1585 1.491 . S
C1580 H1571 0.950 . S
C1580 C1579 1.398 . S
C1580 C1581 1.391 . S
C1581 H1569 0.950 . S
C1581 C1577 1.393 . S
C1581 C1580 1.391 . S
C1582 H1572 0.950 . S
C1582 C1583 1.386 . S
C1582 C1584 1.391 . S
C1583 C1582 1.386 . S
C1583 C1587 1.393 . S
C1584 H1573 0.950 . S
C1584 C1582 1.391 . S
C1584 C1585 1.400 . S
C1585 C1579 1.491 . S
C1585 C1584 1.400 . S
C1585 C1586 1.398 . S
C1586 H1574 0.950 . S
C1586 C1585 1.398 . S
C1586 C1587 1.391 . S
C1587 H1575 0.950 . S
C1587 C1583 1.393 . S
C1587 C1586 1.391 . S
H1588 C1596 0.950 . S
H1589 C1601 0.950 . S
H1590 C1598 0.950 . S
H1591 C1600 0.950 . S
H1592 C1602 0.950 . S
H1593 C1604 0.950 . S
H1594 C1606 0.950 . S
H1595 C1607 0.950 . S
C1596 H1588 0.950 . S
C1596 C1597 1.386 . S
C1596 C1598 1.391 . S
C1597 C1596 1.386 . S
C1597 C1601 1.393 . S
C1598 H1590 0.950 . S
C1598 C1596 1.391 . S
C1598 C1599 1.400 . S
C1599 C1598 1.400 . S
C1599 C1600 1.398 . S
C1599 C1605 1.491 . S
C1600 H1591 0.950 . S
C1600 C1599 1.398 . S
C1600 C1601 1.391 . S
C1601 H1589 0.950 . S
C1601 C1597 1.393 . S
C1601 C1600 1.391 . S
C1602 H1592 0.950 . S
C1602 C1603 1.386 . S
C1602 C1604 1.391 . S
C1603 C1602 1.386 . S
C1603 C1607 1.393 . S
C1604 H1593 0.950 . S
C1604 C1602 1.391 . S
C1604 C1605 1.400 . S
C1605 C1599 1.491 . S
C1605 C1604 1.400 . S
C1605 C1606 1.398 . S
C1606 H1594 0.950 . S
C1606 C1605 1.398 . S
C1606 C1607 1.391 . S
C1607 H1595 0.950 . S
C1607 C1603 1.393 . S
C1607 C1606 1.391 . S
H1608 C1616 0.950 . S
H1609 C1621 0.950 . S
H1610 C1618 0.950 . S
H1611 C1620 0.950 . S
H1612 C1622 0.950 . S
H1613 C1624 0.950 . S
H1614 C1626 0.950 . S
H1615 C1627 0.950 . S
C1616 H1608 0.950 . S
C1616 C1617 1.386 . S
C1616 C1618 1.391 . S
C1617 C1616 1.386 . S
C1617 C1621 1.393 . S
C1618 H1610 0.950 . S
C1618 C1616 1.391 . S
C1618 C1619 1.400 . S
C1619 C1618 1.400 . S
C1619 C1620 1.398 . S
C1619 C1625 1.491 . S
C1620 H1611 0.950 . S
C1620 C1619 1.398 . S
C1620 C1621 1.391 . S
C1621 H1609 0.950 . S
C1621 C1617 1.393 . S
C1621 C1620 1.391 . S
C1622 H1612 0.950 . S
C1622 C1623 1.386 . S
C1622 C1624 1.391 . S
C1623 C1622 1.386 . S
C1623 C1627 1.393 . S
C1624 H1613 0.950 . S
C1624 C1622 1.391 . S
C1624 C1625 1.400 . S
C1625 C1619 1.491 . S
C1625 C1624 1.400 . S
C1625 C1626 1.398 . S
C1626 H1614 0.950 . S
C1626 C1625 1.398 . S
C1626 C1627 1.391 . S
C1627 H1615 0.950 . S
C1627 C1623 1.393 . S
C1627 C1626 1.391 . S
H1628 C1636 0.950 . S
H1629 C1641 0.950 . S
H1630 C1638 0.950 . S
H1631 C1640 0.950 . S
H1632 C1642 0.950 . S
H1633 C1644 0.950 . S
H1634 C1646 0.950 . S
H1635 C1647 0.950 . S
C1636 H1628 0.950 . S
C1636 C1637 1.386 . S
C1636 C1638 1.391 . S
C1637 C1636 1.386 . S
C1637 C1641 1.393 . S
C1638 H1630 0.950 . S
C1638 C1636 1.391 . S
C1638 C1639 1.400 . S
C1639 C1638 1.400 . S
C1639 C1640 1.398 . S
C1639 C1645 1.491 . S
C1640 H1631 0.950 . S
C1640 C1639 1.398 . S
C1640 C1641 1.391 . S
C1641 H1629 0.950 . S
C1641 C1637 1.393 . S
C1641 C1640 1.391 . S
C1642 H1632 0.950 . S
C1642 C1643 1.386 . S
C1642 C1644 1.391 . S
C1643 C1642 1.386 . S
C1643 C1647 1.393 . S
C1644 H1633 0.950 . S
C1644 C1642 1.391 . S
C1644 C1645 1.400 . S
C1645 C1639 1.491 . S
C1645 C1644 1.400 . S
C1645 C1646 1.398 . S
C1646 H1634 0.950 . S
C1646 C1645 1.398 . S
C1646 C1647 1.391 . S
C1647 H1635 0.950 . S
C1647 C1643 1.393 . S
C1647 C1646 1.391 . S
H1648 C1656 0.950 . S
H1649 C1661 0.950 . S
H1650 C1658 0.950 . S
H1651 C1660 0.950 . S
H1652 C1662 0.950 . S
H1653 C1664 0.950 . S
H1654 C1666 0.950 . S
H1655 C1667 0.950 . S
C1656 H1648 0.950 . S
C1656 C1657 1.386 . S
C1656 C1658 1.391 . S
C1657 C1656 1.386 . S
C1657 C1661 1.393 . S
C1658 H1650 0.950 . S
C1658 C1656 1.391 . S
C1658 C1659 1.400 . S
C1659 C1658 1.400 . S
C1659 C1660 1.398 . S
C1659 C1665 1.491 . S
C1660 H1651 0.950 . S
C1660 C1659 1.398 . S
C1660 C1661 1.391 . S
C1661 H1649 0.950 . S
C1661 C1657 1.393 . S
C1661 C1660 1.391 . S
C1662 H1652 0.950 . S
C1662 C1663 1.386 . S
C1662 C1664 1.391 . S
C1663 C1662 1.386 . S
C1663 C1667 1.393 . S
C1664 H1653 0.950 . S
C1664 C1662 1.391 . S
C1664 C1665 1.400 . S
C1665 C1659 1.491 . S
C1665 C1664 1.400 . S
C1665 C1666 1.398 . S
C1666 H1654 0.950 . S
C1666 C1665 1.398 . S
C1666 C1667 1.391 . S
C1667 H1655 0.950 . S
C1667 C1663 1.393 . S
C1667 C1666 1.391 . S
H1668 C1676 0.950 . S
H1669 C1681 0.950 . S
H1670 C1678 0.950 . S
H1671 C1680 0.950 . S
H1672 C1682 0.950 . S
H1673 C1684 0.950 . S
H1674 C1686 0.950 . S
H1675 C1687 0.950 . S
C1676 H1668 0.950 . S
C1676 C1677 1.386 . S
C1676 C1678 1.391 . S
C1677 C1676 1.386 . S
C1677 C1681 1.393 . S
C1678 H1670 0.950 . S
C1678 C1676 1.391 . S
C1678 C1679 1.400 . S
C1679 C1678 1.400 . S
C1679 C1680 1.398 . S
C1679 C1685 1.491 . S
C1680 H1671 0.950 . S
C1680 C1679 1.398 . S
C1680 C1681 1.391 . S
C1681 H1669 0.950 . S
C1681 C1677 1.393 . S
C1681 C1680 1.391 . S
C1682 H1672 0.950 . S
C1682 C1683 1.386 . S
C1682 C1684 1.391 . S
C1683 C1682 1.386 . S
C1683 C1687 1.393 . S
C1684 H1673 0.950 . S
C1684 C1682 1.391 . S
C1684 C1685 1.400 . S
C1685 C1679 1.491 . S
C1685 C1684 1.400 . S
C1685 C1686 1.398 . S
C1686 H1674 0.950 . S
C1686 C1685 1.398 . S
C1686 C1687 1.391 . S
C1687 H1675 0.950 . S
C1687 C1683 1.393 . S
C1687 C1686 1.391 . S
H1688 C1696 0.950 . S
H1689 C1701 0.950 . S
H1690 C1698 0.950 . S
H1691 C1700 0.950 . S
H1692 C1702 0.950 . S
H1693 C1704 0.950 . S
H1694 C1706 0.950 . S
H1695 C1707 0.950 . S
C1696 H1688 0.950 . S
C1696 C1697 1.386 . S
C1696 C1698 1.391 . S
C1697 C1696 1.386 . S
C1697 C1701 1.393 . S
C1698 H1690 0.950 . S
C1698 C1696 1.391 . S
C1698 C1699 1.400 . S
C1699 C1698 1.400 . S
C1699 C1700 1.398 . S
C1699 C1705 1.491 . S
C1700 H1691 0.950 . S
C1700 C1699 1.398 . S
C1700 C1701 1.391 . S
C1701 H1689 0.950 . S
C1701 C1697 1.393 . S
C1701 C1700 1.391 . S
C1702 H1692 0.950 . S
C1702 C1703 1.386 . S
C1702 C1704 1.391 . S
C1703 C1702 1.386 . S
C1703 C1707 1.393 . S
C1704 H1693 0.950 . S
C1704 C1702 1.391 . S
C1704 C1705 1.400 . S
C1705 C1699 1.491 . S
C1705 C1704 1.400 . S
C1705 C1706 1.398 . S
C1706 H1694 0.950 . S
C1706 C1705 1.398 . S
C1706 C1707 1.391 . S
C1707 H1695 0.950 . S
C1707 C1703 1.393 . S
C1707 C1706 1.391 . S
H1708 C1716 0.950 . S
H1709 C1721 0.950 . S
H1710 C1718 0.950 . S
H1711 C1720 0.950 . S
H1712 C1722 0.950 . S
H1713 C1724 0.950 . S
H1714 C1726 0.950 . S
H1715 C1727 0.950 . S
C1716 H1708 0.950 . S
C1716 C1717 1.386 . S
C1716 C1718 1.391 . S
C1717 C1716 1.386 . S
C1717 C1721 1.393 . S
C1718 H1710 0.950 . S
C1718 C1716 1.391 . S
C1718 C1719 1.400 . S
C1719 C1718 1.400 . S
C1719 C1720 1.398 . S
C1719 C1725 1.491 . S
C1720 H1711 0.950 . S
C1720 C1719 1.398 . S
C1720 C1721 1.391 . S
C1721 H1709 0.950 . S
C1721 C1717 1.393 . S
C1721 C1720 1.391 . S
C1722 H1712 0.950 . S
C1722 C1723 1.386 . S
C1722 C1724 1.391 . S
C1723 C1722 1.386 . S
C1723 C1727 1.393 . S
C1724 H1713 0.950 . S
C1724 C1722 1.391 . S
C1724 C1725 1.400 . S
C1725 C1719 1.491 . S
C1725 C1724 1.400 . S
C1725 C1726 1.398 . S
C1726 H1714 0.950 . S
C1726 C1725 1.398 . S
C1726 C1727 1.391 . S
C1727 H1715 0.950 . S
C1727 C1723 1.393 . S
C1727 C1726 1.391 . S
C1017 C226 1.088 . S
C1023 C67 1.256 . S
C1037 C321 1.092 . S
C1043 C140 1.257 . S
C1057 C235 1.259 . S
C1063 C394 1.101 . S
C1077 C308 1.266 . S
C1083 C489 1.132 . S
C1097 C58 1.111 . S
C1103 C403 1.261 . S
C1117 C153 1.142 . S
C1123 C476 1.268 . S
C1137 C909 1.115 . S
C1143 C560 1.262 . S
C1157 C655 1.261 . S
C1163 C982 1.107 . S
C1177 C728 1.258 . S
C1183 C573 1.097 . S
C1197 C823 1.268 . S
C1203 C646 1.142 . S
C1217 C896 1.268 . S
C1223 C741 1.144 . S
C1237 C814 1.091 . S
C1243 C991 1.257 . S
C1257 C315 1.918 . S
C1263 C74 1.928 . S
C1277 C147 1.911 . S
C1283 C410 1.935 . S
C1297 C242 1.919 . S
C1303 C483 1.927 . S
C1317 C567 1.913 . S
C1323 C830 1.933 . S
C1337 C662 1.911 . S
C1343 C903 1.935 . S
C1357 C735 1.935 . S
C1363 C998 1.911 . S
C1377 C651 2.164 . S
C1383 C63 2.155 . S
C1397 C158 2.160 . S
C1403 C746 2.168 . S
C1417 C819 2.160 . S
C1423 C231 2.168 . S
C1437 C326 2.161 . S
C1443 C914 2.168 . S
C1457 C399 2.156 . S
C1463 C987 2.164 . S
C1477 C578 2.168 . S
C1483 C494 2.161 . S
C1497 C237 1.275 . S
C1503 C56 1.417 . S
C1517 C151 1.420 . S
C1523 C310 1.280 . S
C1537 C224 1.423 . S
C1543 C405 1.280 . S
C1557 C319 1.423 . S
C1563 C478 1.270 . S
C1577 C69 1.252 . S
C1583 C392 1.419 . S
C1597 C142 1.270 . S
C1603 C487 1.415 . S
C1617 C898 1.273 . S
C1623 C571 1.416 . S
C1637 C644 1.418 . S
C1643 C993 1.245 . S
C1657 C739 1.423 . S
C1663 C562 1.277 . S
C1677 C657 1.251 . S
C1683 C812 1.410 . S
C1697 C907 1.423 . S
C1703 C730 1.278 . S
C1717 C980 1.420 . S
C1723 C825 1.280 . S
