# Generated by pormake.
# Topology ukt, (4)-cn, num edge types: 1
# Building blocks:
#     Node 0, Type 0, BuildingBlock: ICAMEG_clean_sbu_1, # of connection points: 4
#     Node 1, Type 0, BuildingBlock: ICAMEG_clean_sbu_1, # of connection points: 4
#     Node 2, Type 0, BuildingBlock: ICAMEG_clean_sbu_1, # of connection points: 4
#     Node 3, Type 0, BuildingBlock: ICAMEG_clean_sbu_1, # of connection points: 4
#     Node 4, Type 0, BuildingBlock: ICAMEG_clean_sbu_1, # of connection points: 4
#     Node 5, Type 0, BuildingBlock: ICAMEG_clean_sbu_1, # of connection points: 4
#     Node 6, Type 0, BuildingBlock: ICAMEG_clean_sbu_1, # of connection points: 4
#     Node 7, Type 0, BuildingBlock: ICAMEG_clean_sbu_1, # of connection points: 4
#     Node 8, Type 0, BuildingBlock: ICAMEG_clean_sbu_1, # of connection points: 4
#     Node 9, Type 0, BuildingBlock: ICAMEG_clean_sbu_1, # of connection points: 4
#     Node 10, Type 0, BuildingBlock: ICAMEG_clean_sbu_1, # of connection points: 4
#     Node 11, Type 0, BuildingBlock: ICAMEG_clean_sbu_1, # of connection points: 4
#     Node 12, Type 0, BuildingBlock: ICAMEG_clean_sbu_1, # of connection points: 4
#     Node 13, Type 0, BuildingBlock: ICAMEG_clean_sbu_1, # of connection points: 4
#     Node 14, Type 0, BuildingBlock: ICAMEG_clean_sbu_1, # of connection points: 4
#     Node 15, Type 0, BuildingBlock: ICAMEG_clean_sbu_1, # of connection points: 4
#     Edge 16, Type (0, 0), BuildingBlock: KIFKEQ_clean_linker_1, # of connection points: 2
#     Edge 17, Type (0, 0), BuildingBlock: KIFKEQ_clean_linker_1, # of connection points: 2
#     Edge 18, Type (0, 0), BuildingBlock: KIFKEQ_clean_linker_1, # of connection points: 2
#     Edge 19, Type (0, 0), BuildingBlock: KIFKEQ_clean_linker_1, # of connection points: 2
#     Edge 20, Type (0, 0), BuildingBlock: KIFKEQ_clean_linker_1, # of connection points: 2
#     Edge 21, Type (0, 0), BuildingBlock: KIFKEQ_clean_linker_1, # of connection points: 2
#     Edge 22, Type (0, 0), BuildingBlock: KIFKEQ_clean_linker_1, # of connection points: 2
#     Edge 23, Type (0, 0), BuildingBlock: KIFKEQ_clean_linker_1, # of connection points: 2
#     Edge 24, Type (0, 0), BuildingBlock: KIFKEQ_clean_linker_1, # of connection points: 2
#     Edge 25, Type (0, 0), BuildingBlock: KIFKEQ_clean_linker_1, # of connection points: 2
#     Edge 26, Type (0, 0), BuildingBlock: KIFKEQ_clean_linker_1, # of connection points: 2
#     Edge 27, Type (0, 0), BuildingBlock: KIFKEQ_clean_linker_1, # of connection points: 2
#     Edge 28, Type (0, 0), BuildingBlock: KIFKEQ_clean_linker_1, # of connection points: 2
#     Edge 29, Type (0, 0), BuildingBlock: KIFKEQ_clean_linker_1, # of connection points: 2
#     Edge 30, Type (0, 0), BuildingBlock: KIFKEQ_clean_linker_1, # of connection points: 2
#     Edge 31, Type (0, 0), BuildingBlock: KIFKEQ_clean_linker_1, # of connection points: 2
#     Edge 32, Type (0, 0), BuildingBlock: KIFKEQ_clean_linker_1, # of connection points: 2
#     Edge 33, Type (0, 0), BuildingBlock: KIFKEQ_clean_linker_1, # of connection points: 2
#     Edge 34, Type (0, 0), BuildingBlock: KIFKEQ_clean_linker_1, # of connection points: 2
#     Edge 35, Type (0, 0), BuildingBlock: KIFKEQ_clean_linker_1, # of connection points: 2
#     Edge 36, Type (0, 0), BuildingBlock: KIFKEQ_clean_linker_1, # of connection points: 2
#     Edge 37, Type (0, 0), BuildingBlock: KIFKEQ_clean_linker_1, # of connection points: 2
#     Edge 38, Type (0, 0), BuildingBlock: KIFKEQ_clean_linker_1, # of connection points: 2
#     Edge 39, Type (0, 0), BuildingBlock: KIFKEQ_clean_linker_1, # of connection points: 2
#     Edge 40, Type (0, 0), BuildingBlock: KIFKEQ_clean_linker_1, # of connection points: 2
#     Edge 41, Type (0, 0), BuildingBlock: KIFKEQ_clean_linker_1, # of connection points: 2
#     Edge 42, Type (0, 0), BuildingBlock: KIFKEQ_clean_linker_1, # of connection points: 2
#     Edge 43, Type (0, 0), BuildingBlock: KIFKEQ_clean_linker_1, # of connection points: 2
#     Edge 44, Type (0, 0), BuildingBlock: KIFKEQ_clean_linker_1, # of connection points: 2
#     Edge 45, Type (0, 0), BuildingBlock: KIFKEQ_clean_linker_1, # of connection points: 2
#     Edge 46, Type (0, 0), BuildingBlock: KIFKEQ_clean_linker_1, # of connection points: 2
#     Edge 47, Type (0, 0), BuildingBlock: KIFKEQ_clean_linker_1, # of connection points: 2
# Relax obj value: 0.226
# Max RMSD: 0.138
# Mean RMSD: 0.138
data_MOF--net-ukt--node1-ICAMEG_clean_sbu_1--edge1-KIFKEQ_clean_linker_1
_symmetry_space_group_name_H-M    P1
_symmetry_Int_Tables_number       1
_symmetry_cell_setting            triclinic
loop_
_symmetry_equiv_pos_as_xyz
'x, y, z'
_cell_length_a     45.319276
_cell_length_b     45.331839
_cell_length_c     40.951731
_cell_angle_alpha  89.983391
_cell_angle_beta   89.987339
_cell_angle_gamma 89.994368
loop_
_atom_site_label
_atom_site_type_symbol
_atom_site_fract_x
_atom_site_fract_y
_atom_site_fract_z
_atom_type_partial_charge
Co0 Co 0.57129 0.16402 0.10465 0.0
Co1 Co 0.52799 0.16305 0.035 0.0
O2 O 0.53445 0.15575 0.08159 0.0
C3 C 0.52825 0.2018 0.14002 0.0
O4 O 0.51849 0.21145 0.11179 0.0
C5 C 0.52188 0.09879 0.0418 0.0
O6 O 0.54373 0.10012 0.06274 0.0
O7 O 0.56769 0.14741 0.02285 0.0
O8 O 0.59441 0.1452 0.06907 0.0
H9 H 0.55411 0.20149 0.92357 0.0
H10 H 0.52282 0.13276 0.13882 0.0
O11 O 0.54882 0.1827 0.14122 0.0
H12 H 0.6073 0.06422 0.1411 0.0
H13 H 0.63616 0.17103 0.20417 0.0
H14 H 0.63032 0.18586 0.08504 0.0
H15 H 0.61208 0.1133 0.11566 0.0
H16 H 0.59017 0.16008 0.17433 0.0
O17 O 0.51156 0.12235 0.02923 0.0
H18 H 0.56231 0.19182 0.98215 0.0
H19 H 0.4788 0.14974 0.98901 0.0
H20 H 0.67682 0.19688 0.11389 0.0
H21 H 0.51716 0.08398 0.16483 0.0
H22 H 0.67993 0.18948 0.17389 0.0
H23 H 0.55958 0.0493 0.16596 0.0
O24 O 0.57533 0.2034 0.08287 0.0
H25 H 0.42962 0.16037 0.09144 0.0
H26 H 0.49447 0.21765 0.01841 0.0
H27 H 0.44573 0.23768 0.03352 0.0
H28 H 0.41291 0.20893 0.07024 0.0
H29 H 0.47866 0.1413 0.0759 0.0
H30 H 0.46981 0.15869 0.93041 0.0
H31 H 0.50758 0.18486 0.89733 0.0
O32 O 0.54487 0.20319 0.03953 0.0
C33 C 0.59103 0.14088 0.03859 0.0
C34 C 0.53744 0.19015 0.93775 0.0
C35 C 0.49015 0.16609 0.94158 0.0
N36 N 0.52096 0.17044 0.98901 0.0
C37 C 0.54193 0.18469 0.97095 0.0
C38 C 0.49539 0.16103 0.97472 0.0
C39 C 0.51135 0.18078 0.92303 0.0
C40 C 0.54145 0.11789 0.13951 0.0
N41 N 0.56776 0.12591 0.12585 0.0
C42 C 0.53809 0.09026 0.15415 0.0
C43 C 0.56189 0.07079 0.15474 0.0
C44 C 0.58866 0.07914 0.14078 0.0
C45 C 0.59121 0.10694 0.12634 0.0
C46 C 0.63509 0.17429 0.17802 0.0
C47 C 0.63158 0.1824 0.11112 0.0
C48 C 0.6091 0.16819 0.16099 0.0
N49 N 0.60765 0.17213 0.12794 0.0
C50 C 0.65793 0.18876 0.12734 0.0
C51 C 0.65965 0.18463 0.16101 0.0
C52 C 0.56363 0.21581 0.05802 0.0
C53 C 0.44369 0.17307 0.07536 0.0
C54 C 0.48035 0.20507 0.03449 0.0
C55 C 0.45275 0.21649 0.0429 0.0
C56 C 0.43435 0.20033 0.06349 0.0
N57 N 0.48931 0.17828 0.04616 0.0
C58 C 0.47142 0.16234 0.0664 0.0
Co59 Co 0.33288 0.57409 0.10768 0.0
Co60 Co 0.33448 0.53083 0.03811 0.0
O61 O 0.34225 0.53771 0.08444 0.0
C62 C 0.29829 0.52902 0.1436 0.0
O63 O 0.28893 0.51891 0.11541 0.0
C64 C 0.39891 0.52834 0.04331 0.0
O65 O 0.39646 0.55142 0.06242 0.0
O66 O 0.34845 0.57109 0.02558 0.0
O67 O 0.34932 0.59817 0.07144 0.0
H68 H 0.29392 0.55494 0.92707 0.0
H69 H 0.3673 0.52721 0.14082 0.0
O70 O 0.31618 0.55066 0.1447 0.0
H71 H 0.43171 0.61489 0.14104 0.0
H72 H 0.32517 0.63832 0.20761 0.0
H73 H 0.30821 0.63228 0.08886 0.0
H74 H 0.38186 0.61723 0.11703 0.0
H75 H 0.33739 0.59293 0.17728 0.0
O76 O 0.37583 0.51585 0.03211 0.0
H77 H 0.30378 0.56374 0.98551 0.0
H78 H 0.34932 0.48207 0.99219 0.0
H79 H 0.2959 0.67817 0.11818 0.0
H80 H 0.4169 0.52396 0.16539 0.0
H81 H 0.30436 0.68139 0.178 0.0
H82 H 0.4495 0.568 0.1655 0.0
O83 O 0.29306 0.57627 0.08706 0.0
H84 H 0.34143 0.43287 0.09497 0.0
H85 H 0.28105 0.49523 0.02236 0.0
H86 H 0.26298 0.44587 0.03798 0.0
H87 H 0.2933 0.4143 0.07449 0.0
H88 H 0.35851 0.4825 0.07894 0.0
H89 H 0.34016 0.47249 0.93375 0.0
H90 H 0.31218 0.50904 0.90083 0.0
O91 O 0.29356 0.54631 0.04317 0.0
C92 C 0.35354 0.59506 0.04088 0.0
C93 C 0.30605 0.53881 0.94119 0.0
C94 C 0.33205 0.49255 0.94493 0.0
N95 N 0.32689 0.52333 0.99227 0.0
C96 C 0.31162 0.54362 0.9743 0.0
C97 C 0.33721 0.49812 0.97798 0.0
C98 C 0.31633 0.51306 0.92647 0.0
C99 C 0.38127 0.54653 0.14104 0.0
N100 N 0.37165 0.57241 0.12764 0.0
C101 C 0.40937 0.54453 0.15487 0.0
C102 C 0.42766 0.56924 0.15489 0.0
C103 C 0.4177 0.59555 0.14116 0.0
C104 C 0.38948 0.59673 0.12753 0.0
C105 C 0.32141 0.6372 0.18154 0.0
C106 C 0.3121 0.63356 0.11486 0.0
C107 C 0.32822 0.61153 0.16425 0.0
N108 N 0.32364 0.61001 0.1313 0.0
C109 C 0.30502 0.65958 0.13134 0.0
C110 C 0.30975 0.66136 0.16491 0.0
C111 C 0.28068 0.56444 0.06229 0.0
C112 C 0.32805 0.44639 0.07899 0.0
C113 C 0.29429 0.48167 0.03836 0.0
C114 C 0.28399 0.45371 0.04705 0.0
C115 C 0.30102 0.436 0.06752 0.0
N116 N 0.32084 0.49167 0.04966 0.0
C117 C 0.33765 0.47446 0.06976 0.0
Co118 Co 0.92544 0.33016 0.10582 0.0
Co119 Co 0.96859 0.33493 0.0363 0.0
O120 O 0.96146 0.34148 0.08284 0.0
C121 C 0.97073 0.29605 0.14204 0.0
O122 O 0.98078 0.28625 0.114 0.0
C123 C 0.9697 0.39932 0.04229 0.0
O124 O 0.94634 0.39638 0.06092 0.0
O125 O 0.92813 0.34848 0.02411 0.0
O126 O 0.90071 0.34573 0.06965 0.0
H127 H 0.9453 0.29671 0.92405 0.0
H128 H 0.97048 0.36644 0.13955 0.0
O129 O 0.94938 0.31429 0.14287 0.0
H130 H 0.87987 0.42669 0.13987 0.0
H131 H 0.86103 0.31883 0.20525 0.0
H132 H 0.86881 0.30239 0.08652 0.0
H133 H 0.87997 0.37699 0.11539 0.0
H134 H 0.90592 0.33352 0.1753 0.0
O135 O 0.98292 0.37654 0.0314 0.0
H136 H 0.93619 0.30513 0.98269 0.0
H137 H 0.01731 0.35143 0.99096 0.0
H138 H 0.82343 0.28758 0.11547 0.0
H139 H 0.9713 0.41593 0.1646 0.0
H140 H 0.81935 0.29577 0.17528 0.0
H141 H 0.92577 0.44644 0.16477 0.0
O142 O 0.92524 0.29042 0.08485 0.0
H143 H 0.06642 0.34223 0.09335 0.0
H144 H 0.00499 0.28232 0.01935 0.0
H145 H 0.05466 0.26475 0.0345 0.0
H146 H 0.08576 0.29484 0.0717 0.0
H147 H 0.01651 0.35884 0.07775 0.0
H148 H 0.02719 0.34374 0.93233 0.0
H149 H 0.99108 0.31609 0.89849 0.0
O150 O 0.95377 0.29379 0.04005 0.0
C151 C 0.9038 0.35152 0.0394 0.0
C152 C 0.96124 0.3087 0.93855 0.0
C153 C 0.00719 0.33513 0.94319 0.0
N154 N 0.97632 0.32853 0.99027 0.0
C155 C 0.95625 0.31346 0.97179 0.0
C156 C 0.00145 0.33947 0.97636 0.0
C157 C 0.98692 0.31961 0.92423 0.0
C158 C 0.95052 0.3795 0.13978 0.0
N159 N 0.92519 0.36881 0.12614 0.0
C160 C 0.95114 0.40754 0.15389 0.0
C161 C 0.9256 0.42466 0.15394 0.0
C162 C 0.89984 0.4136 0.13996 0.0
C163 C 0.90005 0.38547 0.12606 0.0
C164 C 0.86253 0.31519 0.17918 0.0
C165 C 0.86712 0.30621 0.11251 0.0
C166 C 0.88791 0.32342 0.1621 0.0
N167 N 0.88988 0.31902 0.12915 0.0
C168 C 0.84141 0.29769 0.12879 0.0
C169 C 0.83914 0.30227 0.16235 0.0
C170 C 0.93686 0.27941 0.05919 0.0
C171 C 0.05311 0.32896 0.07706 0.0
C172 C 0.01836 0.29547 0.03564 0.0
C173 C 0.04648 0.28545 0.04407 0.0
C174 C 0.06393 0.30235 0.06493 0.0
N175 N 0.00795 0.32164 0.04756 0.0
C176 C 0.02488 0.3383 0.06807 0.0
Co177 Co 0.16572 0.92643 0.10723 0.0
Co178 Co 0.1654 0.96997 0.03775 0.0
O179 O 0.15741 0.96325 0.08415 0.0
C180 C 0.20197 0.97019 0.14336 0.0
O181 O 0.21155 0.98045 0.11531 0.0
C182 C 0.10099 0.97508 0.04336 0.0
O183 O 0.10241 0.95335 0.06445 0.0
O184 O 0.15052 0.93012 0.02514 0.0
O185 O 0.14765 0.90328 0.07123 0.0
H186 H 0.20608 0.94479 0.92704 0.0
H187 H 0.13343 0.97449 0.14096 0.0
O188 O 0.18361 0.94896 0.14418 0.0
H189 H 0.06577 0.8893 0.14183 0.0
H190 H 0.17193 0.8613 0.20664 0.0
H191 H 0.1884 0.86769 0.0878 0.0
H192 H 0.11528 0.88511 0.11726 0.0
H193 H 0.16097 0.90728 0.17677 0.0
O194 O 0.12454 0.98579 0.03118 0.0
H195 H 0.19553 0.93624 0.98537 0.0
H196 H 0.15216 0.01911 0.99166 0.0
H197 H 0.19945 0.82121 0.11667 0.0
H198 H 0.08422 0.97956 0.1661 0.0
H199 H 0.19122 0.81782 0.17653 0.0
H200 H 0.04997 0.93679 0.16652 0.0
O201 O 0.20545 0.92283 0.08613 0.0
H202 H 0.16037 0.06808 0.09443 0.0
H203 H 0.21983 0.00425 0.02246 0.0
H204 H 0.23893 0.05319 0.03817 0.0
H205 H 0.20908 0.08549 0.07436 0.0
H206 H 0.14224 0.01886 0.0783 0.0
H207 H 0.16198 0.02844 0.9333 0.0
H208 H 0.18924 0.99117 0.90063 0.0
O209 O 0.20569 0.95361 0.04305 0.0
C210 C 0.14389 0.90669 0.04066 0.0
C211 C 0.19426 0.96124 0.94104 0.0
C212 C 0.16948 0.00817 0.94455 0.0
N213 N 0.17346 0.97726 0.99194 0.0
C214 C 0.1883 0.95656 0.9741 0.0
C215 C 0.16393 0.00274 0.97755 0.0
C216 C 0.18478 0.98725 0.92623 0.0
C217 C 0.11875 0.9557 0.14134 0.0
N218 N 0.12726 0.92951 0.12777 0.0
C219 C 0.09088 0.95874 0.15549 0.0
C220 C 0.07165 0.93474 0.15568 0.0
C221 C 0.0805 0.90809 0.14181 0.0
C222 C 0.10853 0.90587 0.12787 0.0
C223 C 0.17556 0.86249 0.18055 0.0
C224 C 0.18459 0.86631 0.11382 0.0
C225 C 0.16945 0.88848 0.16351 0.0
N226 N 0.17385 0.89008 0.13053 0.0
C227 C 0.19096 0.83997 0.13005 0.0
C228 C 0.18637 0.8381 0.16364 0.0
C229 C 0.21815 0.93478 0.0616 0.0
C230 C 0.17355 0.05424 0.07858 0.0
C231 C 0.20677 0.01815 0.0383 0.0
C232 C 0.21766 0.04586 0.04705 0.0
C233 C 0.2009 0.06398 0.06735 0.0
N234 N 0.17989 0.0088 0.04935 0.0
C235 C 0.16335 0.0264 0.06929 0.0
Co236 Co 0.57791 0.33029 0.39216 0.0
Co237 Co 0.53331 0.3353 0.46053 0.0
O238 O 0.54174 0.34235 0.41436 0.0
C239 C 0.53163 0.29923 0.3543 0.0
O240 O 0.52031 0.29009 0.38203 0.0
C241 C 0.53375 0.39979 0.45548 0.0
O242 O 0.5576 0.39659 0.43766 0.0
O243 O 0.57378 0.34769 0.4741 0.0
O244 O 0.60224 0.34449 0.42937 0.0
H245 H 0.55287 0.29485 0.57272 0.0
H246 H 0.53476 0.36856 0.35801 0.0
O247 O 0.55429 0.31582 0.35417 0.0
H248 H 0.62713 0.42596 0.36154 0.0
H249 H 0.64419 0.31871 0.29431 0.0
H250 H 0.63326 0.30057 0.41244 0.0
H251 H 0.62497 0.37585 0.38486 0.0
H252 H 0.59907 0.3342 0.32332 0.0
O253 O 0.51984 0.37715 0.46566 0.0
H254 H 0.56363 0.3039 0.51453 0.0
H255 H 0.48393 0.3524 0.5047 0.0
H256 H 0.67884 0.28493 0.38444 0.0
H257 H 0.53602 0.4185 0.33408 0.0
H258 H 0.68451 0.29398 0.32494 0.0
H259 H 0.58243 0.44758 0.33586 0.0
O260 O 0.57643 0.29021 0.41228 0.0
H261 H 0.43717 0.34571 0.4006 0.0
H262 H 0.4952 0.28342 0.47559 0.0
H263 H 0.44555 0.26724 0.45861 0.0
H264 H 0.41616 0.29853 0.42089 0.0
H265 H 0.48703 0.36091 0.41801 0.0
H266 H 0.47243 0.3441 0.56288 0.0
H267 H 0.50698 0.31503 0.59726 0.0
O268 O 0.54721 0.29386 0.45651 0.0
C269 C 0.59857 0.3501 0.45958 0.0
C270 C 0.53759 0.30747 0.55797 0.0
C271 C 0.49247 0.33514 0.55245 0.0
N272 N 0.52431 0.32844 0.5062 0.0
C273 C 0.54353 0.31259 0.52498 0.0
C274 C 0.49912 0.33982 0.51955 0.0
C275 C 0.51186 0.31882 0.57173 0.0
C276 C 0.55511 0.38099 0.35861 0.0
N277 N 0.57979 0.36926 0.3727 0.0
C278 C 0.55566 0.40929 0.34514 0.0
C279 C 0.5817 0.42561 0.34618 0.0
C280 C 0.60678 0.4135 0.3606 0.0
C281 C 0.60541 0.38514 0.37384 0.0
C282 C 0.642 0.31469 0.32025 0.0
C283 C 0.63564 0.30475 0.38658 0.0
C284 C 0.61648 0.32335 0.3368 0.0
N285 N 0.61363 0.31847 0.36959 0.0
C286 C 0.66147 0.29577 0.37085 0.0
C287 C 0.66462 0.30082 0.33746 0.0
C288 C 0.56405 0.27923 0.43752 0.0
C289 C 0.44974 0.33192 0.4171 0.0
C290 C 0.48259 0.29709 0.45908 0.0
C291 C 0.45446 0.28786 0.44961 0.0
C292 C 0.43797 0.30543 0.42846 0.0
N293 N 0.49393 0.32313 0.44789 0.0
C294 C 0.47793 0.34046 0.42712 0.0
Co295 Co 0.16922 0.57218 0.3944 0.0
Co296 Co 0.16368 0.52867 0.46355 0.0
O297 O 0.15716 0.53629 0.41711 0.0
C298 C 0.20125 0.52588 0.35752 0.0
O299 O 0.21069 0.51519 0.38542 0.0
C300 C 0.09926 0.52838 0.45743 0.0
O301 O 0.10247 0.55202 0.43928 0.0
O302 O 0.15069 0.5692 0.47614 0.0
O303 O 0.15459 0.59699 0.43098 0.0
H304 H 0.20221 0.55043 0.57605 0.0
H305 H 0.13144 0.52839 0.36064 0.0
O306 O 0.18411 0.54812 0.35698 0.0
H307 H 0.07363 0.62056 0.36179 0.0
H308 H 0.18137 0.63712 0.29553 0.0
H309 H 0.19861 0.62788 0.41399 0.0
H310 H 0.12353 0.61894 0.38572 0.0
H311 H 0.16582 0.59236 0.32515 0.0
O312 O 0.12189 0.51485 0.46824 0.0
H313 H 0.19394 0.56017 0.5175 0.0
H314 H 0.14649 0.4798 0.50834 0.0
H315 H 0.2143 0.67312 0.38538 0.0
H316 H 0.08172 0.5291 0.33612 0.0
H317 H 0.20571 0.67795 0.32571 0.0
H318 H 0.05243 0.57541 0.3367 0.0
O319 O 0.20913 0.57113 0.41496 0.0
H320 H 0.15512 0.43154 0.40532 0.0
H321 H 0.21578 0.4914 0.48013 0.0
H322 H 0.23273 0.44169 0.46437 0.0
H323 H 0.20226 0.41138 0.42675 0.0
H324 H 0.13914 0.48148 0.42153 0.0
H325 H 0.15402 0.46931 0.56688 0.0
H326 H 0.18216 0.50472 0.60111 0.0
O327 O 0.20505 0.54295 0.45995 0.0
C328 C 0.14846 0.59375 0.46113 0.0
C329 C 0.18999 0.53479 0.56137 0.0
C330 C 0.16292 0.48927 0.55623 0.0
N331 N 0.16998 0.52045 0.50949 0.0
C332 C 0.18532 0.54014 0.52818 0.0
C333 C 0.15867 0.49536 0.52312 0.0
C334 C 0.17871 0.50915 0.57542 0.0
C335 C 0.11892 0.54869 0.36073 0.0
N336 N 0.13041 0.57362 0.37449 0.0
C337 C 0.09074 0.54893 0.34692 0.0
C338 C 0.07431 0.57491 0.34729 0.0
C339 C 0.08618 0.60025 0.36138 0.0
C340 C 0.11442 0.59918 0.37497 0.0
C341 C 0.18519 0.63531 0.32154 0.0
C342 C 0.19462 0.6299 0.38806 0.0
C343 C 0.17648 0.60999 0.33844 0.0
N344 N 0.18111 0.60761 0.37132 0.0
C345 C 0.20363 0.65553 0.37198 0.0
C346 C 0.19883 0.65821 0.33849 0.0
C347 C 0.21986 0.55939 0.4407 0.0
C348 C 0.16855 0.44451 0.42179 0.0
C349 C 0.20246 0.47838 0.46367 0.0
C350 C 0.21213 0.45022 0.45489 0.0
C351 C 0.19502 0.43322 0.43379 0.0
N352 N 0.17644 0.48925 0.45186 0.0
C353 C 0.15956 0.47274 0.43113 0.0
Co354 Co 0.91846 0.16869 0.39617 0.0
Co355 Co 0.96589 0.16099 0.46175 0.0
O356 O 0.95537 0.15544 0.41594 0.0
C357 C 0.96384 0.19902 0.35668 0.0
O358 O 0.9761 0.20749 0.38417 0.0
C359 C 0.9666 0.09671 0.45404 0.0
O360 O 0.94158 0.09988 0.43829 0.0
O361 O 0.92651 0.14689 0.47667 0.0
O362 O 0.89539 0.1549 0.43478 0.0
H363 H 0.95059 0.19615 0.57688 0.0
H364 H 0.95859 0.12966 0.35868 0.0
O365 O 0.9408 0.18293 0.35706 0.0
H366 H 0.8651 0.07465 0.36813 0.0
H367 H 0.84798 0.18281 0.30246 0.0
H368 H 0.86531 0.20041 0.41972 0.0
H369 H 0.86993 0.12443 0.39184 0.0
H370 H 0.8939 0.16573 0.32873 0.0
O371 O 0.98063 0.11936 0.46398 0.0
H372 H 0.93732 0.18919 0.51897 0.0
H373 H 0.01773 0.14353 0.50211 0.0
H374 H 0.81898 0.21765 0.39452 0.0
H375 H 0.95462 0.08005 0.33434 0.0
H376 H 0.81009 0.20887 0.33547 0.0
H377 H 0.90764 0.05217 0.33908 0.0
O378 O 0.92208 0.20839 0.41652 0.0
H379 H 0.05925 0.15574 0.3959 0.0
H380 H 0.00332 0.21327 0.47723 0.0
H381 H 0.05163 0.23153 0.4582 0.0
H382 H 0.07996 0.20265 0.41727 0.0
H383 H 0.01073 0.13843 0.41543 0.0
H384 H 0.03176 0.14976 0.55991 0.0
H385 H 0.99812 0.17635 0.59769 0.0
O386 O 0.9508 0.20233 0.46077 0.0
C387 C 0.90084 0.14669 0.46395 0.0
C388 C 0.96548 0.18461 0.56064 0.0
C389 C 0.01102 0.15854 0.55112 0.0
N390 N 0.97685 0.1662 0.50715 0.0
C391 C 0.95813 0.18068 0.52781 0.0
C392 C 0.00294 0.15503 0.51844 0.0
C393 C 0.99214 0.17347 0.5723 0.0
C394 C 0.93799 0.11777 0.36057 0.0
N395 N 0.91448 0.12998 0.3765 0.0
C396 C 0.93591 0.08964 0.34686 0.0
C397 C 0.90955 0.074 0.34957 0.0
C398 C 0.88568 0.08659 0.36588 0.0
C399 C 0.88857 0.11476 0.37931 0.0
C400 C 0.85156 0.18668 0.32824 0.0
C401 C 0.86148 0.19628 0.39408 0.0
C402 C 0.87752 0.1771 0.34323 0.0
N403 N 0.88211 0.18178 0.37581 0.0
C404 C 0.83526 0.2062 0.37992 0.0
C405 C 0.8303 0.2013 0.34677 0.0
C406 C 0.93441 0.21808 0.44238 0.0
C407 C 0.04715 0.16848 0.41379 0.0
C408 C 0.01548 0.20064 0.45935 0.0
C409 C 0.04285 0.21105 0.44872 0.0
C410 C 0.05874 0.19482 0.42577 0.0
N411 N 0.00431 0.17475 0.44753 0.0
C412 C 0.01973 0.15874 0.42502 0.0
Co413 Co 0.33422 0.92746 0.39433 0.0
Co414 Co 0.33501 0.97075 0.46396 0.0
O415 O 0.34289 0.9641 0.41753 0.0
C416 C 0.29837 0.97155 0.35812 0.0
O417 O 0.28865 0.98177 0.38612 0.0
C418 C 0.39949 0.97525 0.45813 0.0
O419 O 0.39784 0.95343 0.43719 0.0
O420 O 0.34947 0.93072 0.47647 0.0
O421 O 0.35189 0.90397 0.43031 0.0
H422 H 0.29413 0.94576 0.57464 0.0
H423 H 0.36715 0.97521 0.36084 0.0
O424 O 0.3167 0.95029 0.35737 0.0
H425 H 0.43385 0.88925 0.36002 0.0
H426 H 0.32752 0.8627 0.29472 0.0
H427 H 0.31072 0.86896 0.4135 0.0
H428 H 0.3842 0.88556 0.38436 0.0
H429 H 0.33895 0.90844 0.32476 0.0
O430 O 0.37606 0.98613 0.47044 0.0
H431 H 0.3045 0.93726 0.51626 0.0
H432 H 0.34891 0.01958 0.51017 0.0
H433 H 0.29919 0.82271 0.38445 0.0
H434 H 0.41651 0.97979 0.33593 0.0
H435 H 0.30758 0.81939 0.32462 0.0
H436 H 0.45027 0.93663 0.33554 0.0
O437 O 0.2944 0.92433 0.41531 0.0
H438 H 0.34102 0.06901 0.40762 0.0
H439 H 0.28098 0.00558 0.47945 0.0
H440 H 0.2624 0.05479 0.46399 0.0
H441 H 0.29255 0.0869 0.42788 0.0
H442 H 0.35863 0.01952 0.4235 0.0
H443 H 0.33928 0.02885 0.56857 0.0
H444 H 0.31159 0.99184 0.60117 0.0
O445 O 0.29452 0.95483 0.45864 0.0
C446 C 0.35572 0.90723 0.46088 0.0
C447 C 0.30614 0.9621 0.56067 0.0
C448 C 0.33151 0.00872 0.55728 0.0
N449 N 0.32709 0.978 0.50979 0.0
C450 C 0.31199 0.95745 0.52759 0.0
C451 C 0.33695 0.00332 0.52424 0.0
C452 C 0.31596 0.98794 0.57555 0.0
C453 C 0.38161 0.95625 0.36046 0.0
N454 N 0.37277 0.93013 0.37392 0.0
C455 C 0.40958 0.95901 0.34645 0.0
C456 C 0.42853 0.93479 0.34628 0.0
C457 C 0.41933 0.90821 0.36002 0.0
C458 C 0.39122 0.90627 0.37383 0.0
C459 C 0.32382 0.86386 0.3208 0.0
C460 C 0.31461 0.86761 0.3875 0.0
C461 C 0.33019 0.88972 0.33793 0.0
N462 N 0.3257 0.89128 0.3709 0.0
C463 C 0.30796 0.8414 0.37117 0.0
C464 C 0.31264 0.83956 0.33759 0.0
C465 C 0.28183 0.9363 0.4399 0.0
C466 C 0.32772 0.05525 0.42344 0.0
C467 C 0.29416 0.01938 0.46364 0.0
C468 C 0.28357 0.04725 0.45503 0.0
C469 C 0.3005 0.06526 0.43478 0.0
N470 N 0.32092 0.00977 0.45248 0.0
C471 C 0.33762 0.02727 0.43258 0.0
Co472 Co 0.42083 0.82921 0.89168 0.0
Co473 Co 0.4652 0.83427 0.96018 0.0
O474 O 0.45692 0.84125 0.91399 0.0
C475 C 0.46733 0.79833 0.85389 0.0
O476 O 0.47854 0.78901 0.88159 0.0
C477 C 0.46489 0.89874 0.95471 0.0
O478 O 0.44104 0.89547 0.93692 0.0
O479 O 0.42471 0.84672 0.97359 0.0
O480 O 0.39633 0.84339 0.92882 0.0
H481 H 0.44526 0.79408 0.07242 0.0
H482 H 0.4641 0.86756 0.85782 0.0
O483 O 0.4446 0.81483 0.85376 0.0
H484 H 0.37164 0.92486 0.86084 0.0
H485 H 0.3549 0.81764 0.79357 0.0
H486 H 0.36544 0.79944 0.91173 0.0
H487 H 0.37373 0.87472 0.88408 0.0
H488 H 0.39991 0.83314 0.82276 0.0
O489 O 0.47869 0.87614 0.9652 0.0
H490 H 0.4347 0.80298 0.01415 0.0
H491 H 0.51442 0.85146 0.00448 0.0
H492 H 0.31997 0.78378 0.88355 0.0
H493 H 0.46292 0.91753 0.83398 0.0
H494 H 0.3145 0.79286 0.82403 0.0
H495 H 0.41646 0.94657 0.83551 0.0
O496 O 0.4223 0.78911 0.91178 0.0
H497 H 0.56155 0.84444 0.90058 0.0
H498 H 0.5032 0.78239 0.97552 0.0
H499 H 0.5529 0.76613 0.9588 0.0
H500 H 0.58245 0.79729 0.92111 0.0
H501 H 0.51164 0.85972 0.91774 0.0
H502 H 0.52573 0.8433 0.06272 0.0
H503 H 0.49106 0.81432 0.09707 0.0
O504 O 0.45126 0.79282 0.95621 0.0
C505 C 0.39995 0.84908 0.95903 0.0
C506 C 0.46059 0.80666 0.05768 0.0
C507 C 0.50573 0.83432 0.05225 0.0
N508 N 0.47405 0.82751 0.0059 0.0
C509 C 0.45477 0.8117 0.02466 0.0
C510 C 0.49919 0.83892 0.01931 0.0
C511 C 0.48628 0.81805 0.0715 0.0
C512 C 0.44373 0.87997 0.85831 0.0
N513 N 0.41899 0.8682 0.87223 0.0
C514 C 0.44323 0.90829 0.84489 0.0
C515 C 0.41717 0.92458 0.84579 0.0
C516 C 0.39201 0.91242 0.86002 0.0
C517 C 0.39335 0.88405 0.87322 0.0
C518 C 0.35701 0.8136 0.81951 0.0
C519 C 0.36314 0.80363 0.88587 0.0
C520 C 0.38246 0.82228 0.83616 0.0
N521 N 0.3852 0.81738 0.86896 0.0
C522 C 0.33738 0.79464 0.87002 0.0
C523 C 0.33434 0.79971 0.83662 0.0
C524 C 0.43455 0.77815 0.9371 0.0
C525 C 0.54892 0.8307 0.91707 0.0
C526 C 0.51589 0.796 0.95902 0.0
C527 C 0.54404 0.78672 0.9497 0.0
C528 C 0.56062 0.80423 0.92857 0.0
N529 N 0.50461 0.82203 0.94771 0.0
C530 C 0.5207 0.83929 0.92695 0.0
Co531 Co 0.66775 0.42454 0.89441 0.0
Co532 Co 0.66407 0.46592 0.96531 0.0
O533 O 0.65696 0.46005 0.91866 0.0
C534 C 0.70064 0.4712 0.85895 0.0
O535 O 0.71048 0.48089 0.88713 0.0
C536 C 0.59959 0.46936 0.95907 0.0
O537 O 0.60162 0.44722 0.93856 0.0
O538 O 0.64994 0.42545 0.97636 0.0
O539 O 0.6526 0.39898 0.93015 0.0
H540 H 0.70315 0.43903 0.07622 0.0
H541 H 0.63113 0.47056 0.86272 0.0
O542 O 0.68307 0.44933 0.85779 0.0
H543 H 0.57034 0.38035 0.86109 0.0
H544 H 0.67709 0.36256 0.79292 0.0
H545 H 0.69552 0.36735 0.91148 0.0
H546 H 0.62051 0.37956 0.8844 0.0
H547 H 0.66315 0.40676 0.82446 0.0
O548 O 0.6228 0.48071 0.97132 0.0
H549 H 0.69398 0.43166 0.01741 0.0
H550 H 0.64884 0.51366 0.01242 0.0
H551 H 0.70959 0.32262 0.88093 0.0
H552 H 0.58118 0.47228 0.83887 0.0
H553 H 0.70039 0.32004 0.8212 0.0
H554 H 0.55038 0.42697 0.83808 0.0
O555 O 0.7079 0.42368 0.91454 0.0
H556 H 0.65778 0.56514 0.91113 0.0
H557 H 0.7173 0.50118 0.9829 0.0
H558 H 0.7355 0.5509 0.96896 0.0
H559 H 0.70561 0.58327 0.93288 0.0
H560 H 0.64055 0.51514 0.92549 0.0
H561 H 0.65729 0.5218 0.07125 0.0
H562 H 0.68473 0.48437 0.10352 0.0
O563 O 0.70494 0.45067 0.96051 0.0
C564 C 0.6468 0.40148 0.96046 0.0
C565 C 0.69125 0.45555 0.06241 0.0
C566 C 0.66547 0.50198 0.05962 0.0
N567 N 0.6711 0.47231 0.01147 0.0
C568 C 0.68607 0.45154 0.02908 0.0
C569 C 0.66071 0.49722 0.02634 0.0
C570 C 0.68088 0.48098 0.07771 0.0
C571 C 0.61797 0.45069 0.86218 0.0
N572 N 0.62876 0.42497 0.87486 0.0
C573 C 0.58966 0.45182 0.84877 0.0
C574 C 0.57237 0.4264 0.84837 0.0
C575 C 0.58355 0.40024 0.8613 0.0
C576 C 0.61194 0.39994 0.87455 0.0
C577 C 0.68116 0.36339 0.81894 0.0
C578 C 0.69128 0.36631 0.88553 0.0
C579 C 0.67338 0.38839 0.83692 0.0
N580 N 0.67833 0.38954 0.86982 0.0
C581 C 0.69937 0.34096 0.86834 0.0
C582 C 0.69423 0.33954 0.83483 0.0
C583 C 0.71916 0.43445 0.94052 0.0
C584 C 0.67097 0.55126 0.92693 0.0
C585 C 0.70424 0.5151 0.96709 0.0
C586 C 0.71461 0.54325 0.95935 0.0
C587 C 0.69782 0.56141 0.93912 0.0
N588 N 0.67784 0.50534 0.95511 0.0
C589 C 0.66127 0.52299 0.93523 0.0
Co590 Co 0.07755 0.67022 0.8958 0.0
Co591 Co 0.03277 0.66259 0.96356 0.0
O592 O 0.04088 0.65792 0.91697 0.0
C593 C 0.0324 0.70254 0.85762 0.0
O594 O 0.02147 0.71226 0.8853 0.0
C595 C 0.02654 0.59883 0.95342 0.0
O596 O 0.05016 0.60052 0.93496 0.0
O597 O 0.07154 0.64518 0.9755 0.0
O598 O 0.10158 0.65556 0.93335 0.0
H599 H 0.0564 0.69117 0.07919 0.0
H600 H 0.03527 0.63256 0.85957 0.0
O601 O 0.05448 0.68516 0.85759 0.0
H602 H 0.12738 0.57485 0.8652 0.0
H603 H 0.14546 0.68279 0.79948 0.0
H604 H 0.13223 0.7004 0.91741 0.0
H605 H 0.12469 0.62461 0.88936 0.0
H606 H 0.09994 0.66687 0.82742 0.0
O607 O 0.01522 0.62216 0.96539 0.0
H608 H 0.06636 0.6855 0.02029 0.0
H609 H 0.98133 0.64831 0.00609 0.0
H610 H 0.17822 0.71646 0.89051 0.0
H611 H 0.03709 0.583 0.83479 0.0
H612 H 0.18505 0.70767 0.83112 0.0
H613 H 0.08336 0.55376 0.83763 0.0
O614 O 0.07556 0.70997 0.91648 0.0
H615 H 0.93646 0.66624 0.90309 0.0
H616 H 5e-05 0.71692 0.98308 0.0
H617 H 0.95242 0.7392 0.96754 0.0
H618 H 0.92024 0.71378 0.92732 0.0
H619 H 0.98441 0.64486 0.91915 0.0
H620 H 0.97054 0.6533 0.06488 0.0
H621 H 0.00818 0.675 0.10183 0.0
O622 O 0.05075 0.70271 0.96334 0.0
C623 C 0.09684 0.64548 0.96195 0.0
C624 C 0.03976 0.68182 0.06331 0.0
C625 C 0.99158 0.66053 0.05529 0.0
N626 N 0.0243 0.66697 0.00973 0.0
C627 C 0.04523 0.67867 0.02993 0.0
C628 C 0.99783 0.65774 0.02203 0.0
C629 C 0.01272 0.67271 0.07601 0.0
C630 C 0.05557 0.62009 0.86061 0.0
N631 N 0.07987 0.63152 0.87577 0.0
C632 C 0.05643 0.59199 0.84666 0.0
C633 C 0.08239 0.57557 0.84831 0.0
C634 C 0.10709 0.58739 0.86379 0.0
C635 C 0.10541 0.61555 0.8775 0.0
C636 C 0.14279 0.68666 0.82539 0.0
C637 C 0.13515 0.69629 0.89161 0.0
C638 C 0.11704 0.67774 0.84134 0.0
N639 N 0.11358 0.68242 0.87409 0.0
C640 C 0.16118 0.70553 0.87649 0.0
C641 C 0.16499 0.70062 0.84316 0.0
C642 C 0.06584 0.71883 0.94403 0.0
C643 C 0.95025 0.67749 0.92071 0.0
C644 C 0.98621 0.70578 0.96548 0.0
C645 C 0.95923 0.71847 0.95684 0.0
C646 C 0.94118 0.70418 0.93428 0.0
N647 N 0.99489 0.67955 0.95212 0.0
C648 C 0.97735 0.66543 0.92997 0.0
Co649 Co 0.82833 0.07336 0.89603 0.0
Co650 Co 0.83647 0.03033 0.96518 0.0
O651 O 0.84092 0.0375 0.91838 0.0
C652 C 0.79503 0.02709 0.86053 0.0
O653 O 0.78575 0.01689 0.88873 0.0
C654 C 0.90039 0.02839 0.95522 0.0
O655 O 0.89678 0.05201 0.93713 0.0
O656 O 0.85122 0.07043 0.97649 0.0
O657 O 0.84419 0.09838 0.93192 0.0
H658 H 0.80559 0.05433 0.08001 0.0
H659 H 0.86502 0.02936 0.86111 0.0
O660 O 0.81237 0.04915 0.85935 0.0
H661 H 0.92292 0.12145 0.85947 0.0
H662 H 0.81327 0.1379 0.79734 0.0
H663 H 0.79963 0.12918 0.91644 0.0
H664 H 0.87378 0.12003 0.88528 0.0
H665 H 0.82964 0.09324 0.8266 0.0
O666 O 0.87803 0.01535 0.96739 0.0
H667 H 0.81099 0.06347 0.02092 0.0
H668 H 0.8539 0.98089 0.00905 0.0
H669 H 0.78316 0.17435 0.8882 0.0
H670 H 0.91395 0.02987 0.83471 0.0
H671 H 0.78994 0.1789 0.82822 0.0
H672 H 0.94329 0.07614 0.83389 0.0
O673 O 0.78906 0.07235 0.91807 0.0
H674 H 0.83922 0.9326 0.90748 0.0
H675 H 0.78407 0.99487 0.98512 0.0
H676 H 0.76485 0.94562 0.97084 0.0
H677 H 0.79254 0.9141 0.9318 0.0
H678 H 0.85751 0.98211 0.92225 0.0
H679 H 0.8492 0.97094 0.06807 0.0
H680 H 0.82477 0.00776 0.10394 0.0
O681 O 0.79537 0.04591 0.9641 0.0
C682 C 0.8524 0.09502 0.96145 0.0
C683 C 0.81613 0.03804 0.06461 0.0
C684 C 0.84065 0.99126 0.05791 0.0
N685 N 0.83234 0.02255 0.01152 0.0
C686 C 0.81913 0.04304 0.03112 0.0
C687 C 0.84326 0.99702 0.02453 0.0
C688 C 0.82693 0.01193 0.07802 0.0
C689 C 0.87755 0.04965 0.86059 0.0
N690 N 0.86652 0.07466 0.87465 0.0
C691 C 0.90529 0.04977 0.84572 0.0
C692 C 0.92176 0.07573 0.8453 0.0
C693 C 0.91035 0.10116 0.85967 0.0
C694 C 0.88254 0.1002 0.87434 0.0
C695 C 0.81024 0.1362 0.8235 0.0
C696 C 0.80283 0.13109 0.89036 0.0
C697 C 0.81941 0.11094 0.84018 0.0
N698 N 0.81579 0.10871 0.87323 0.0
C699 C 0.79338 0.15667 0.87449 0.0
C700 C 0.79717 0.1592 0.84083 0.0
C701 C 0.77965 0.06166 0.94499 0.0
C702 C 0.827 0.9461 0.92458 0.0
C703 C 0.79618 0.98131 0.96803 0.0
C704 C 0.78523 0.95342 0.9601 0.0
C705 C 0.80079 0.93575 0.93821 0.0
N706 N 0.82196 0.99126 0.95464 0.0
C707 C 0.8373 0.97409 0.93312 0.0
Co708 Co 0.42609 0.66858 0.60326 0.0
Co709 Co 0.46807 0.66305 0.53296 0.0
O710 O 0.46227 0.65813 0.57998 0.0
C711 C 0.47078 0.70448 0.63835 0.0
O712 O 0.47981 0.71483 0.61012 0.0
C713 C 0.47594 0.59945 0.54289 0.0
O714 O 0.45331 0.60086 0.56283 0.0
O715 O 0.42901 0.64521 0.52286 0.0
O716 O 0.40133 0.65154 0.56777 0.0
H717 H 0.43879 0.69173 0.41894 0.0
H718 H 0.47268 0.63426 0.63702 0.0
O719 O 0.45 0.68562 0.63964 0.0
H720 H 0.38408 0.57118 0.63991 0.0
H721 H 0.36253 0.6793 0.70343 0.0
H722 H 0.36838 0.69419 0.58431 0.0
H723 H 0.38226 0.62047 0.61453 0.0
H724 H 0.40753 0.66566 0.6731 0.0
O725 O 0.48612 0.62288 0.52994 0.0
H726 H 0.43162 0.68571 0.47828 0.0
H727 H 0.51773 0.64974 0.48756 0.0
H728 H 0.32285 0.70791 0.61364 0.0
H729 H 0.47541 0.58523 0.66298 0.0
H730 H 0.31974 0.70048 0.67365 0.0
H731 H 0.43091 0.55327 0.66442 0.0
O732 O 0.42448 0.70805 0.5816 0.0
H733 H 0.56696 0.66782 0.58803 0.0
H734 H 0.49904 0.71796 0.51204 0.0
H735 H 0.54699 0.74088 0.52505 0.0
H736 H 0.58134 0.71573 0.56325 0.0
H737 H 0.51867 0.6458 0.57453 0.0
H738 H 0.52576 0.65512 0.42827 0.0
H739 H 0.48615 0.67637 0.39356 0.0
O740 O 0.44956 0.70278 0.53454 0.0
C741 C 0.40474 0.64298 0.53836 0.0
C742 C 0.45627 0.68258 0.43382 0.0
C743 C 0.50507 0.662 0.43905 0.0
N744 N 0.47438 0.66779 0.48641 0.0
C745 C 0.45238 0.67924 0.46745 0.0
C746 C 0.50039 0.659 0.4726 0.0
C747 C 0.48284 0.67393 0.41959 0.0
C748 C 0.45316 0.62059 0.63782 0.0
N749 N 0.42733 0.63025 0.62432 0.0
C750 C 0.45486 0.5928 0.65243 0.0
C751 C 0.4299 0.57487 0.6532 0.0
C752 C 0.40362 0.58489 0.63943 0.0
C753 C 0.40275 0.61279 0.62499 0.0
C754 C 0.3636 0.68259 0.67728 0.0
C755 C 0.36711 0.69073 0.61039 0.0
C756 C 0.38904 0.67497 0.65998 0.0
N757 N 0.39049 0.67893 0.62692 0.0
C758 C 0.34131 0.69861 0.62688 0.0
C759 C 0.33959 0.69447 0.66055 0.0
C760 C 0.4337 0.7178 0.55417 0.0
C761 C 0.55222 0.67895 0.57128 0.0
C762 C 0.51384 0.70693 0.52876 0.0
C763 C 0.54098 0.71998 0.53598 0.0
C764 C 0.56025 0.70585 0.5574 0.0
N765 N 0.50617 0.6805 0.5424 0.0
C766 C 0.52491 0.66654 0.56347 0.0
Co767 Co 0.83198 0.42485 0.61028 0.0
Co768 Co 0.83547 0.46692 0.53983 0.0
O769 O 0.84204 0.46092 0.58656 0.0
C770 C 0.79726 0.47037 0.6454 0.0
O771 O 0.78757 0.47992 0.61709 0.0
C772 C 0.89968 0.47261 0.54699 0.0
O773 O 0.8982 0.45041 0.56749 0.0
O774 O 0.85137 0.42713 0.52882 0.0
O775 O 0.84856 0.40009 0.57463 0.0
H776 H 0.79936 0.43928 0.42794 0.0
H777 H 0.86661 0.47172 0.64315 0.0
O778 O 0.81531 0.44889 0.64678 0.0
H779 H 0.93016 0.38342 0.64514 0.0
H780 H 0.82297 0.36179 0.71103 0.0
H781 H 0.80635 0.36694 0.59215 0.0
H782 H 0.88046 0.3813 0.62075 0.0
H783 H 0.83598 0.40668 0.68016 0.0
O784 O 0.8762 0.48331 0.53467 0.0
H785 H 0.80787 0.43187 0.48687 0.0
H786 H 0.84948 0.51561 0.49339 0.0
H787 H 0.79324 0.32154 0.62203 0.0
H788 H 0.91606 0.47475 0.66808 0.0
H789 H 0.80154 0.31877 0.68191 0.0
H790 H 0.94824 0.43041 0.66906 0.0
O791 O 0.79215 0.42287 0.58937 0.0
H792 H 0.83708 0.56583 0.59502 0.0
H793 H 0.78123 0.50032 0.52144 0.0
H794 H 0.76092 0.54918 0.53547 0.0
H795 H 0.78895 0.58233 0.57247 0.0
H796 H 0.85645 0.51665 0.58053 0.0
H797 H 0.84167 0.52382 0.43446 0.0
H798 H 0.81633 0.48553 0.40136 0.0
O799 O 0.79515 0.45014 0.54364 0.0
C800 C 0.85507 0.40314 0.54456 0.0
C801 C 0.81034 0.45617 0.44212 0.0
C802 C 0.83412 0.5036 0.44577 0.0
N803 N 0.82894 0.47338 0.49358 0.0
C804 C 0.81514 0.45214 0.47552 0.0
C805 C 0.83854 0.4988 0.47911 0.0
C806 C 0.81989 0.48211 0.42722 0.0
C807 C 0.88038 0.45226 0.64377 0.0
N808 N 0.87062 0.42634 0.63061 0.0
C809 C 0.9084 0.45414 0.6578 0.0
C810 C 0.92646 0.42926 0.6583 0.0
C811 C 0.91634 0.4029 0.64486 0.0
C812 C 0.8882 0.40185 0.63101 0.0
C813 C 0.8193 0.36271 0.68493 0.0
C814 C 0.8102 0.36583 0.61818 0.0
C815 C 0.82657 0.38808 0.66734 0.0
N816 N 0.82212 0.38934 0.63435 0.0
C817 C 0.80265 0.3401 0.63497 0.0
C818 C 0.80728 0.33857 0.66858 0.0
C819 C 0.78106 0.4334 0.56318 0.0
C820 C 0.8247 0.55161 0.57881 0.0
C821 C 0.79349 0.51458 0.53764 0.0
C822 C 0.78192 0.54225 0.54544 0.0
C823 C 0.79767 0.56084 0.56618 0.0
N824 N 0.82004 0.50572 0.55007 0.0
C825 C 0.8356 0.5238 0.57045 0.0
Co826 Co 0.0755 0.83073 0.60498 0.0
Co827 Co 0.03332 0.83309 0.53454 0.0
O828 O 0.0395 0.84067 0.58107 0.0
C829 C 0.03023 0.79674 0.64146 0.0
O830 O 0.02059 0.78628 0.61353 0.0
C831 C 0.02859 0.89756 0.53983 0.0
O832 O 0.05104 0.89624 0.56001 0.0
O833 O 0.07339 0.848 0.52286 0.0
O834 O 0.10036 0.84615 0.56878 0.0
H835 H 0.06 0.79371 0.4237 0.0
H836 H 0.02907 0.86663 0.63692 0.0
O837 O 0.05143 0.81514 0.64209 0.0
H838 H 0.1181 0.92917 0.63696 0.0
H839 H 0.13879 0.82334 0.7057 0.0
H840 H 0.13306 0.80399 0.58736 0.0
H841 H 0.11964 0.87889 0.61405 0.0
H842 H 0.09396 0.83616 0.67465 0.0
O843 O 0.01753 0.87395 0.52825 0.0
H844 H 0.06774 0.80356 0.48232 0.0
H845 H 0.98475 0.84681 0.48786 0.0
H846 H 0.17841 0.79104 0.61742 0.0
H847 H 0.0266 0.91668 0.66039 0.0
H848 H 0.18147 0.8007 0.67703 0.0
H849 H 0.07132 0.94836 0.66038 0.0
O850 O 0.07696 0.79045 0.58517 0.0
H851 H 0.93454 0.83771 0.58992 0.0
H852 H 0.999 0.77899 0.51791 0.0
H853 H 0.94981 0.75987 0.53266 0.0
H854 H 0.91718 0.78935 0.56887 0.0
H855 H 0.98402 0.85587 0.57475 0.0
H856 H 0.97622 0.83768 0.42922 0.0
H857 H 0.01397 0.81084 0.39678 0.0
O858 O 0.04947 0.79262 0.53954 0.0
C859 C 0.09744 0.85175 0.53846 0.0
C860 C 0.04335 0.80535 0.4376 0.0
C861 C 0.99635 0.83006 0.44069 0.0
N862 N 0.02662 0.82553 0.48852 0.0
C863 C 0.04757 0.81091 0.47082 0.0
C864 C 0.00132 0.83522 0.47386 0.0
C865 C 0.01753 0.81499 0.4225 0.0
C866 C 0.04869 0.88019 0.6371 0.0
N867 N 0.07449 0.86982 0.6242 0.0
C868 C 0.04713 0.90855 0.65031 0.0
C869 C 0.07222 0.92633 0.65026 0.0
C870 C 0.09846 0.91558 0.6371 0.0
C871 C 0.09919 0.88712 0.62408 0.0
C872 C 0.13775 0.81907 0.67972 0.0
C873 C 0.1343 0.80844 0.61326 0.0
C874 C 0.1124 0.82622 0.66202 0.0
N875 N 0.11098 0.82102 0.62918 0.0
C876 C 0.16 0.80098 0.63017 0.0
C877 C 0.16169 0.80638 0.66362 0.0
C878 C 0.06614 0.77882 0.55943 0.0
C879 C 0.94852 0.8247 0.57407 0.0
C880 C 0.98497 0.79188 0.53377 0.0
C881 C 0.95711 0.78098 0.54197 0.0
C882 C 0.93881 0.79754 0.56228 0.0
N883 N 0.99429 0.81857 0.54537 0.0
C884 C 0.9765 0.83491 0.56532 0.0
Co885 Co 0.66496 0.0766 0.61073 0.0
Co886 Co 0.66425 0.03316 0.54131 0.0
O887 O 0.65585 0.04019 0.58745 0.0
C888 C 0.69868 0.03118 0.647 0.0
O889 O 0.70798 0.02085 0.61888 0.0
C890 C 0.59977 0.0312 0.54565 0.0
O891 O 0.60227 0.05413 0.56496 0.0
O892 O 0.65076 0.07347 0.52843 0.0
O893 O 0.64894 0.10062 0.57421 0.0
H894 H 0.70663 0.05672 0.43093 0.0
H895 H 0.63013 0.02979 0.64351 0.0
O896 O 0.68123 0.05318 0.64797 0.0
H897 H 0.56579 0.11753 0.64267 0.0
H898 H 0.67162 0.14093 0.71066 0.0
H899 H 0.68978 0.13478 0.59212 0.0
H900 H 0.61591 0.11978 0.61933 0.0
H901 H 0.65974 0.0955 0.68024 0.0
O902 O 0.62285 0.01853 0.53463 0.0
H903 H 0.69598 0.06572 0.48917 0.0
H904 H 0.6497 0.98444 0.49525 0.0
H905 H 0.70177 0.18071 0.62154 0.0
H906 H 0.58026 0.02663 0.66741 0.0
H907 H 0.6927 0.18398 0.68125 0.0
H908 H 0.54769 0.0707 0.66699 0.0
O909 O 0.70501 0.07871 0.59064 0.0
H910 H 0.65573 0.93534 0.59819 0.0
H911 H 0.71769 0.99717 0.52664 0.0
H912 H 0.73517 0.94771 0.54269 0.0
H913 H 0.70405 0.91641 0.57867 0.0
H914 H 0.63924 0.98506 0.58175 0.0
H915 H 0.65964 0.97466 0.437 0.0
H916 H 0.6884 0.01091 0.40448 0.0
O917 O 0.70522 0.04838 0.54706 0.0
C918 C 0.64534 0.09745 0.54356 0.0
C919 C 0.69417 0.04071 0.44487 0.0
C920 C 0.66775 0.99467 0.44827 0.0
N921 N 0.67246 0.0255 0.49562 0.0
C922 C 0.68815 0.04564 0.47787 0.0
C923 C 0.66215 0.00035 0.48121 0.0
C924 C 0.6839 0.01501 0.43004 0.0
C925 C 0.61618 0.04913 0.64351 0.0
N926 N 0.62597 0.07497 0.63018 0.0
C927 C 0.58793 0.04718 0.65696 0.0
C928 C 0.56965 0.0719 0.65668 0.0
C929 C 0.57978 0.09818 0.64302 0.0
C930 C 0.60816 0.09931 0.62978 0.0
C931 C 0.67564 0.13978 0.68464 0.0
C932 C 0.68563 0.13609 0.61807 0.0
C933 C 0.66904 0.11409 0.6673 0.0
N934 N 0.67394 0.11254 0.63441 0.0
C935 C 0.69253 0.16213 0.63461 0.0
C936 C 0.68746 0.16394 0.66812 0.0
C937 C 0.71778 0.06669 0.56623 0.0
C938 C 0.66945 0.94874 0.58245 0.0
C939 C 0.70409 0.98372 0.54241 0.0
C940 C 0.71406 0.95571 0.55134 0.0
C941 C 0.69659 0.93815 0.57151 0.0
N942 N 0.67743 0.99392 0.55318 0.0
C943 C 0.66019 0.97686 0.57298 0.0
H944 H 0.6074 0.24987 0.08562 0.0
H945 H 0.54202 0.24989 0.0086 0.0
H946 H 0.62716 0.29647 0.06458 0.0
H947 H 0.56173 0.29599 0.98803 0.0
H948 H 0.63199 0.34841 0.9337 0.0
H949 H 0.61079 0.30581 0.96069 0.0
H950 H 0.61344 0.35152 0.05308 0.0
H951 H 0.63477 0.3948 0.02599 0.0
C952 C 0.59694 0.25995 0.06462 0.0
C953 C 0.57335 0.24586 0.04859 0.0
C954 C 0.60823 0.28664 0.05266 0.0
C955 C 0.59622 0.29952 0.02442 0.0
C956 C 0.57173 0.28624 0.0095 0.0
C957 C 0.5604 0.25981 0.02144 0.0
C958 C 0.62809 0.34962 0.95975 0.0
C959 C 0.63485 0.37525 0.97757 0.0
C960 C 0.61581 0.32516 0.97518 0.0
C961 C 0.61017 0.32552 0.00888 0.0
C962 C 0.61758 0.35073 0.02704 0.0
C963 C 0.62966 0.37548 0.01149 0.0
H964 H 0.15473 0.66042 0.95565 0.0
H965 H 0.09609 0.6027 0.00906 0.0
H966 H 0.19689 0.63958 0.9849 0.0
H967 H 0.1387 0.58132 0.03764 0.0
H968 H 0.24022 0.53512 0.02483 0.0
H969 H 0.19323 0.55426 0.00424 0.0
H970 H 0.2066 0.6349 0.058 0.0
H971 H 0.25318 0.61572 0.07943 0.0
C972 C 0.15086 0.64329 0.97359 0.0
C973 C 0.12214 0.6332 0.98012 0.0
C974 C 0.17492 0.63152 0.99035 0.0
C975 C 0.17077 0.60905 0.01341 0.0
C976 C 0.14221 0.59875 0.01996 0.0
C977 C 0.11798 0.61101 0.0037 0.0
C978 C 0.23287 0.55667 0.03282 0.0
C979 C 0.25047 0.57396 0.05366 0.0
C980 C 0.206 0.56751 0.02112 0.0
C981 C 0.19661 0.59594 0.02963 0.0
C982 C 0.21354 0.61284 0.0513 0.0
C983 C 0.2401 0.6018 0.06355 0.0
H984 H 0.86397 0.14937 0.93579 0.0
H985 H 0.86998 0.09934 0.02556 0.0
H986 H 0.88696 0.19123 0.96245 0.0
H987 H 0.89302 0.1418 0.05232 0.0
H988 H 0.89788 0.24177 0.08942 0.0
H989 H 0.87875 0.19522 0.06798 0.0
H990 H 0.93758 0.20205 0.98542 0.0
H991 H 0.95673 0.24831 0.00647 0.0
C992 C 0.8702 0.14721 0.9612 0.0
C993 C 0.86531 0.12081 0.97841 0.0
C994 C 0.88353 0.17121 0.97642 0.0
C995 C 0.89208 0.16959 0.00931 0.0
C996 C 0.88664 0.14355 0.0269 0.0
C997 C 0.87352 0.11929 0.01153 0.0
C998 C 0.90713 0.2331 0.067 0.0
C999 C 0.92856 0.24906 0.04945 0.0
C1000 C 0.8962 0.20641 0.05481 0.0
C1001 C 0.90639 0.19536 0.02482 0.0
C1002 C 0.92898 0.21039 0.00832 0.0
C1003 C 0.94001 0.23687 0.02051 0.0
H1004 H 0.34558 0.86295 0.93494 0.0
H1005 H 0.39584 0.8614 0.02477 0.0
H1006 H 0.30427 0.88489 0.96367 0.0
H1007 H 0.35375 0.8833 0.05366 0.0
H1008 H 0.25165 0.89035 0.08881 0.0
H1009 H 0.29757 0.86962 0.06697 0.0
H1010 H 0.29798 0.93573 0.99116 0.0
H1011 H 0.25266 0.95654 0.01264 0.0
C1012 C 0.34789 0.86719 0.96083 0.0
C1013 C 0.37427 0.86069 0.97741 0.0
C1014 C 0.32417 0.87987 0.97725 0.0
C1015 C 0.32602 0.8861 0.01074 0.0
C1016 C 0.35188 0.87873 0.02778 0.0
C1017 C 0.37591 0.8663 0.0112 0.0
C1018 C 0.26185 0.90081 0.06788 0.0
C1019 C 0.24817 0.92488 0.05224 0.0
C1020 C 0.28812 0.88895 0.05545 0.0
C1021 C 0.30094 0.90084 0.02713 0.0
C1022 C 0.28823 0.92587 0.01273 0.0
C1023 C 0.26226 0.93782 0.02517 0.0
H1024 H 0.53937 0.24667 0.48654 0.0
H1025 H 0.60624 0.24269 0.41124 0.0
H1026 H 0.55747 0.20059 0.5092 0.0
H1027 H 0.62446 0.19646 0.43438 0.0
H1028 H 0.63502 0.10164 0.47748 0.0
H1029 H 0.61246 0.14294 0.44808 0.0
H1030 H 0.60461 0.19109 0.53861 0.0
H1031 H 0.62688 0.15034 0.56791 0.0
C1032 C 0.55764 0.2358 0.47447 0.0
C1033 C 0.57162 0.24869 0.44732 0.0
C1034 C 0.56808 0.20943 0.4876 0.0
C1035 C 0.5927 0.19527 0.47391 0.0
C1036 C 0.60543 0.20693 0.44541 0.0
C1037 C 0.595 0.23344 0.43222 0.0
C1038 C 0.62848 0.12106 0.49109 0.0
C1039 C 0.63264 0.12255 0.52513 0.0
C1040 C 0.61563 0.14467 0.47422 0.0
C1041 C 0.60644 0.17002 0.49114 0.0
C1042 C 0.6109 0.17158 0.52502 0.0
C1043 C 0.62389 0.14822 0.54178 0.0
H1044 H 0.35127 0.62902 0.56494 0.0
H1045 H 0.40009 0.62573 0.4742 0.0
H1046 H 0.30941 0.60586 0.53843 0.0
H1047 H 0.3577 0.60243 0.44762 0.0
H1048 H 0.25801 0.59818 0.41102 0.0
H1049 H 0.3048 0.61644 0.43267 0.0
H1050 H 0.2974 0.55658 0.51427 0.0
H1051 H 0.25081 0.53837 0.49302 0.0
C1052 C 0.3532 0.62326 0.53937 0.0
C1053 C 0.3792 0.62912 0.5218 0.0
C1054 C 0.32919 0.60982 0.52422 0.0
C1055 C 0.33044 0.60207 0.49106 0.0
C1056 C 0.3562 0.6082 0.47323 0.0
C1057 C 0.38045 0.62145 0.4885 0.0
C1058 C 0.2666 0.58851 0.43326 0.0
C1059 C 0.25038 0.56708 0.45049 0.0
C1060 C 0.29344 0.59894 0.44559 0.0
C1061 C 0.30444 0.58823 0.47539 0.0
C1062 C 0.28913 0.56561 0.49154 0.0
C1063 C 0.26246 0.5551 0.47923 0.0
H1064 H 0.8707 0.39847 0.47984 0.0
H1065 H 0.86958 0.34962 0.57061 0.0
H1066 H 0.89325 0.35609 0.45254 0.0
H1067 H 0.89179 0.30767 0.54335 0.0
H1068 H 0.95626 0.24726 0.49562 0.0
H1069 H 0.93933 0.2939 0.51812 0.0
H1070 H 0.87926 0.30438 0.43711 0.0
H1071 H 0.89635 0.25775 0.41418 0.0
C1072 C 0.87526 0.3788 0.49399 0.0
C1073 C 0.8684 0.37756 0.52749 0.0
C1074 C 0.8881 0.35454 0.47831 0.0
C1075 C 0.89455 0.32869 0.49589 0.0
C1076 C 0.88763 0.32748 0.52928 0.0
C1077 C 0.87467 0.35154 0.54487 0.0
C1078 C 0.93976 0.25963 0.48225 0.0
C1079 C 0.92742 0.24848 0.45325 0.0
C1080 C 0.92996 0.28631 0.49528 0.0
C1081 C 0.90766 0.30255 0.47964 0.0
C1082 C 0.89654 0.29238 0.44966 0.0
C1083 C 0.9063 0.26559 0.4366 0.0
H1084 H 0.10343 0.86342 0.47274 0.0
H1085 H 0.15029 0.86812 0.56465 0.0
H1086 H 0.14607 0.8855 0.4451 0.0
H1087 H 0.19222 0.8901 0.53714 0.0
H1088 H 0.2471 0.95882 0.48828 0.0
H1089 H 0.201 0.93907 0.50895 0.0
H1090 H 0.20141 0.87252 0.43362 0.0
H1091 H 0.24798 0.89229 0.41253 0.0
C1092 C 0.1227 0.86912 0.48705 0.0
C1093 C 0.12326 0.86422 0.52101 0.0
C1094 C 0.14708 0.88165 0.47119 0.0
C1095 C 0.17222 0.88982 0.48908 0.0
C1096 C 0.1729 0.88451 0.52284 0.0
C1097 C 0.14883 0.87178 0.53857 0.0
C1098 C 0.23733 0.94022 0.4757 0.0
C1099 C 0.25157 0.9269 0.44895 0.0
C1100 C 0.21091 0.92886 0.48768 0.0
C1101 C 0.19793 0.90401 0.47319 0.0
C1102 C 0.21101 0.89173 0.44522 0.0
C1103 C 0.23768 0.90303 0.43322 0.0
H1104 H 0.39298 0.74133 0.91012 0.0
H1105 H 0.4588 0.74571 0.98649 0.0
H1106 H 0.37498 0.6948 0.93271 0.0
H1107 H 0.44093 0.69932 0.0086 0.0
H1108 H 0.37136 0.64791 0.06586 0.0
H1109 H 0.39361 0.68902 0.03721 0.0
H1110 H 0.38739 0.64133 0.94622 0.0
H1111 H 0.36483 0.59965 0.975 0.0
C1112 C 0.40404 0.73213 0.93124 0.0
C1113 C 0.42706 0.74755 0.94677 0.0
C1114 C 0.39374 0.70543 0.94411 0.0
C1115 C 0.40623 0.69376 0.97273 0.0
C1116 C 0.43049 0.70815 0.98689 0.0
C1117 C 0.4408 0.7347 0.97408 0.0
C1118 C 0.37472 0.64595 0.03977 0.0
C1119 C 0.36641 0.6203 0.02281 0.0
C1120 C 0.3877 0.66953 0.02338 0.0
C1121 C 0.39259 0.66822 0.98956 0.0
C1122 C 0.38388 0.64288 0.97233 0.0
C1123 C 0.37103 0.61904 0.98884 0.0
H1124 H 0.7519 0.45596 0.99108 0.0
H1125 H 0.75547 0.39359 0.91119 0.0
H1126 H 0.79828 0.43692 0.01184 0.0
H1127 H 0.80222 0.37448 0.93242 0.0
H1128 H 0.89901 0.36572 0.97419 0.0
H1129 H 0.85651 0.38801 0.94654 0.0
H1130 H 0.80806 0.38724 0.0373 0.0
H1131 H 0.84988 0.36512 0.06481 0.0
C1132 C 0.76272 0.43846 0.97763 0.0
C1133 C 0.74965 0.42603 0.94968 0.0
C1134 C 0.78928 0.4275 0.98966 0.0
C1135 C 0.80352 0.40391 0.97405 0.0
C1136 C 0.79164 0.39269 0.94491 0.0
C1137 C 0.76486 0.40363 0.93283 0.0
C1138 C 0.87925 0.37027 0.9882 0.0
C1139 C 0.87801 0.36385 0.02183 0.0
C1140 C 0.85496 0.38294 0.97233 0.0
C1141 C 0.82922 0.3897 0.98991 0.0
C1142 C 0.82785 0.38281 0.02328 0.0
C1143 C 0.85186 0.36997 0.03901 0.0
H1144 H 0.06316 0.73979 0.00614 0.0
H1145 H 0.08733 0.76541 0.90806 0.0
H1146 H 0.08041 0.78648 0.02662 0.0
H1147 H 0.10306 0.81356 0.92842 0.0
H1148 H 0.1614 0.88125 0.98352 0.0
H1149 H 0.14032 0.83735 0.95777 0.0
H1150 H 0.07155 0.8359 0.03118 0.0
H1151 H 0.0941 0.87813 0.05785 0.0
C1152 C 0.07162 0.75567 0.98876 0.0
C1153 C 0.07391 0.74874 0.95543 0.0
C1154 C 0.08134 0.78278 0.00053 0.0
C1155 C 0.09302 0.80417 0.97925 0.0
C1156 C 0.09462 0.79756 0.94567 0.0
C1157 C 0.08538 0.77003 0.93393 0.0
C1158 C 0.14171 0.87142 0.99386 0.0
C1159 C 0.12959 0.88251 0.02286 0.0
C1160 C 0.12945 0.84641 0.97905 0.0
C1161 C 0.10442 0.83258 0.99263 0.0
C1162 C 0.09139 0.84514 0.02059 0.0
C1163 C 0.10413 0.86949 0.03581 0.0
H1164 H 0.61859 0.09064 0.05621 0.0
H1165 H 0.61753 0.15803 0.98194 0.0
H1166 H 0.66089 0.06749 0.03023 0.0
H1167 H 0.66151 0.13641 0.95698 0.0
H1168 H 0.73376 0.08364 0.90842 0.0
H1169 H 0.68535 0.09936 0.92796 0.0
H1170 H 0.71044 0.07502 0.02632 0.0
H1171 H 0.75738 0.05767 0.00652 0.0
C1172 C 0.62769 0.10054 0.03433 0.0
C1173 C 0.61521 0.12617 0.02116 0.0
C1174 C 0.6521 0.08747 0.01951 0.0
C1175 C 0.66527 0.10034 0.99179 0.0
C1176 C 0.65198 0.1256 0.97804 0.0
C1177 C 0.62691 0.13818 0.99241 0.0
C1178 C 0.72864 0.08129 0.93413 0.0
C1179 C 0.74948 0.06939 0.95588 0.0
C1180 C 0.70096 0.09054 0.94543 0.0
C1181 C 0.69373 0.08858 0.97883 0.0
C1182 C 0.71461 0.0763 0.00034 0.0
C1183 C 0.74187 0.06652 0.98897 0.0
H1184 H 0.41121 0.76332 0.59115 0.0
H1185 H 0.43506 0.73958 0.49242 0.0
H1186 H 0.39509 0.81179 0.57183 0.0
H1187 H 0.41751 0.78651 0.47301 0.0
H1188 H 0.40559 0.87879 0.444 0.0
H1189 H 0.42751 0.83593 0.47008 0.0
H1190 H 0.35795 0.83657 0.54256 0.0
H1191 H 0.33744 0.8811 0.5174 0.0
C1192 C 0.41294 0.7684 0.56537 0.0
C1193 C 0.42456 0.7476 0.54339 0.0
C1194 C 0.40352 0.7961 0.55423 0.0
C1195 C 0.40513 0.80335 0.52081 0.0
C1196 C 0.41666 0.78232 0.49902 0.0
C1197 C 0.42654 0.75508 0.51018 0.0
C1198 C 0.39526 0.86985 0.46572 0.0
C1199 C 0.36973 0.8828 0.47856 0.0
C1200 C 0.40763 0.84514 0.48059 0.0
C1201 C 0.39415 0.83215 0.50805 0.0
C1202 C 0.3691 0.84595 0.52162 0.0
C1203 C 0.35719 0.87131 0.50716 0.0
H1204 H 0.74897 0.45403 0.51169 0.0
H1205 H 0.745 0.39173 0.59167 0.0
H1206 H 0.70339 0.43417 0.4899 0.0
H1207 H 0.69891 0.37183 0.5694 0.0
H1208 H 0.60206 0.36416 0.52495 0.0
H1209 H 0.64425 0.38581 0.55381 0.0
H1210 H 0.69503 0.38358 0.46468 0.0
H1211 H 0.65356 0.36202 0.43598 0.0
C1212 C 0.73823 0.43636 0.52495 0.0
C1213 C 0.75097 0.42422 0.55325 0.0
C1214 C 0.71211 0.42493 0.51232 0.0
C1215 C 0.69795 0.40117 0.52768 0.0
C1216 C 0.70948 0.39016 0.55711 0.0
C1217 C 0.73585 0.40155 0.56978 0.0
C1218 C 0.62228 0.36818 0.51157 0.0
C1219 C 0.62425 0.36161 0.47802 0.0
C1220 C 0.64639 0.38048 0.52813 0.0
C1221 C 0.67267 0.38673 0.51132 0.0
C1222 C 0.67481 0.37951 0.47808 0.0
C1223 C 0.651 0.36702 0.46168 0.0
H1224 H 0.13397 0.59844 0.5263 0.0
H1225 H 0.13638 0.64816 0.4361 0.0
H1226 H 0.1122 0.6412 0.55404 0.0
H1227 H 0.11468 0.69015 0.46367 0.0
H1228 H 0.10742 0.74302 0.58892 0.0
H1229 H 0.1267 0.69617 0.56807 0.0
H1230 H 0.06405 0.69924 0.4888 0.0
H1231 H 0.0448 0.74561 0.50919 0.0
C1232 C 0.12995 0.61838 0.51241 0.0
C1233 C 0.13667 0.6197 0.47886 0.0
C1234 C 0.11758 0.6428 0.52833 0.0
C1235 C 0.11141 0.66874 0.51085 0.0
C1236 C 0.1187 0.67021 0.47759 0.0
C1237 C 0.13126 0.64609 0.46183 0.0
C1238 C 0.09738 0.73342 0.5674 0.0
C1239 C 0.07484 0.74837 0.55048 0.0
C1240 C 0.10841 0.70659 0.55555 0.0
C1241 C 0.09715 0.69444 0.52657 0.0
C1242 C 0.07346 0.70844 0.51089 0.0
C1243 C 0.0624 0.73502 0.5227 0.0
H1244 H 0.74444 0.11855 0.58264 0.0
H1245 H 0.75922 0.03701 0.53039 0.0
H1246 H 0.79104 0.1379 0.56153 0.0
H1247 H 0.80628 0.05631 0.51015 0.0
H1248 H 0.90201 0.10282 0.50966 0.0
H1249 H 0.85973 0.08188 0.53931 0.0
H1250 H 0.80186 0.1443 0.49221 0.0
H1251 H 0.84366 0.16461 0.46186 0.0
C1252 C 0.75793 0.10447 0.56737 0.0
C1253 C 0.74805 0.0763 0.558 0.0
C1254 C 0.78451 0.11561 0.55528 0.0
C1255 C 0.802 0.09851 0.53433 0.0
C1256 C 0.79311 0.06974 0.52647 0.0
C1257 C 0.7662 0.05881 0.53796 0.0
C1258 C 0.88027 0.11219 0.50592 0.0
C1259 C 0.87602 0.13531 0.48351 0.0
C1260 C 0.85622 0.10018 0.52274 0.0
C1261 C 0.8278 0.1117 0.51802 0.0
C1262 C 0.82369 0.13528 0.49632 0.0
C1263 C 0.84753 0.14677 0.47892 0.0
H1264 H 0.5163 0.91492 0.98466 0.0
H1265 H 0.43333 0.94972 0.94973 0.0
H1266 H 0.52948 0.9635 0.0055 0.0
H1267 H 0.44584 0.99787 0.97177 0.0
H1268 H 0.48947 0.08722 0.98716 0.0
H1269 H 0.47655 0.03922 0.96489 0.0
H1270 H 0.51746 0.99679 0.04796 0.0
H1271 H 0.53149 0.04489 0.06947 0.0
C1272 C 0.50088 0.93295 0.98145 0.0
C1273 C 0.47381 0.9285 0.96552 0.0
C1274 C 0.50829 0.96075 0.99368 0.0
C1275 C 0.48863 0.98464 0.99059 0.0
C1276 C 0.46172 0.98017 0.97423 0.0
C1277 C 0.45448 0.95248 0.96166 0.0
C1278 C 0.49549 0.06764 0.0008 0.0
C1279 C 0.51154 0.06981 0.03004 0.0
C1280 C 0.48802 0.04007 0.98807 0.0
C1281 C 0.49608 0.01403 0.0045 0.0
C1282 C 0.51145 0.01632 0.03425 0.0
C1283 C 0.51925 0.04389 0.04677 0.0
H1284 H 0.45045 0.55862 0.04894 0.0
H1285 H 0.41398 0.47709 0.01212 0.0
H1286 H 0.49848 0.54527 0.02743 0.0
H1287 H 0.46259 0.4629 0.99188 0.0
H1288 H 0.54609 0.45943 0.93044 0.0
H1289 H 0.4976 0.47367 0.9509 0.0
H1290 H 0.53871 0.51394 0.03514 0.0
H1291 H 0.58701 0.50097 0.01386 0.0
C1292 C 0.45282 0.53757 0.03669 0.0
C1293 C 0.42843 0.51888 0.03225 0.0
C1294 C 0.48046 0.52983 0.02444 0.0
C1295 C 0.48456 0.50296 0.00788 0.0
C1296 C 0.46019 0.48401 0.00396 0.0
C1297 C 0.43237 0.49198 0.01582 0.0
C1298 C 0.54468 0.47155 0.95319 0.0
C1299 C 0.57032 0.47921 0.97047 0.0
C1300 C 0.51689 0.47948 0.96511 0.0
C1301 C 0.51412 0.49488 0.9948 0.0
C1302 C 0.5399 0.50258 0.01193 0.0
C1303 C 0.56766 0.49505 0.99978 0.0
H1304 H 0.038 0.54487 0.9265 0.0
H1305 H 0.99147 0.5871 0.00583 0.0
H1306 H 0.02369 0.49668 0.94775 0.0
H1307 H 0.97845 0.53922 0.02797 0.0
H1308 H 0.93719 0.44975 0.04466 0.0
H1309 H 0.94922 0.49744 0.02123 0.0
H1310 H 0.03418 0.46376 0.99071 0.0
H1311 H 0.02135 0.41548 0.01278 0.0
C1312 C 0.02467 0.54383 0.94844 0.0
C1313 C 0.01579 0.56974 0.96442 0.0
C1314 C 0.01672 0.51621 0.96085 0.0
C1315 C 8e-05 0.51393 0.98979 0.0
C1316 C 0.99084 0.53999 0.00538 0.0
C1317 C 0.99839 0.56754 0.99271 0.0
C1318 C 0.95853 0.45258 0.03314 0.0
C1319 C 0.97836 0.42889 0.03061 0.0
C1320 C 0.96549 0.48001 0.01974 0.0
C1321 C 0.99269 0.48459 0.00395 0.0
C1322 C 0.01278 0.46095 0.00205 0.0
C1323 C 0.0056 0.43334 0.01502 0.0
H1324 H 0.08948 0.00578 0.9875 0.0
H1325 H 0.04702 0.96549 0.0708 0.0
H1326 H 0.04146 0.01734 0.96427 0.0
H1327 H 0.99893 0.97822 0.04835 0.0
H1328 H 0.91709 0.97741 0.98572 0.0
H1329 H 0.96594 0.96481 0.00629 0.0
H1330 H -0.00023 0.04766 0.96964 0.0
H1331 H 0.95138 0.05952 0.94782 0.0
C1332 C 0.06986 -0.00013 0.00113 0.0
C1333 C 0.07199 0.9847 0.03095 0.0
C1334 C 0.04228 0.00654 0.98784 0.0
C1335 C 0.01622 0.99857 0.00429 0.0
C1336 C 0.01847 0.98409 0.0346 0.0
C1337 C 0.04605 0.97706 0.04766 0.0
C1338 C 0.93509 0.99273 0.98174 0.0
C1339 C 0.93039 0.01944 0.96516 0.0
C1340 C 0.96303 0.98567 0.99382 0.0
C1341 C 0.98681 0.00535 0.98998 0.0
C1342 C 0.98215 0.03178 0.97274 0.0
C1343 C 0.95432 0.03864 0.96029 0.0
H1344 H 0.4659 0.54557 0.57065 0.0
H1345 H 0.51019 0.5878 0.48972 0.0
H1346 H 0.48047 0.49742 0.54958 0.0
H1347 H 0.52361 0.53986 0.46789 0.0
H1348 H 0.48214 0.41602 0.48499 0.0
H1349 H 0.46919 0.4644 0.5066 0.0
H1350 H 0.55375 0.49831 0.47513 0.0
H1351 H 0.56602 0.45041 0.45228 0.0
C1352 C 0.4788 0.54455 0.5484 0.0
C1353 C 0.48692 0.57045 0.53188 0.0
C1354 C 0.48691 0.51695 0.53612 0.0
C1355 C 0.50301 0.51466 0.50683 0.0
C1356 C 0.51159 0.54069 0.49072 0.0
C1357 C 0.50382 0.56825 0.50322 0.0
C1358 C 0.49781 0.43392 0.48245 0.0
C1359 C 0.52503 0.42944 0.46683 0.0
C1360 C 0.49054 0.46159 0.49514 0.0
C1361 C 0.5105 0.4853 0.49286 0.0
C1362 C 0.53763 0.48076 0.47695 0.0
C1363 C 0.54472 0.45322 0.46389 0.0
H1364 H 0.04841 0.56021 0.4531 0.0
H1365 H 0.08311 0.47704 0.48752 0.0
H1366 H 0.00046 0.54804 0.47593 0.0
H1367 H 0.03468 0.46416 0.50911 0.0
H1368 H 0.9538 0.46237 0.57402 0.0
H1369 H 0.00183 0.47612 0.55197 0.0
H1370 H 0.95889 0.51779 0.46968 0.0
H1371 H 0.91105 0.50522 0.4925 0.0
C1372 C 0.04565 0.53907 0.46506 0.0
C1373 C 0.06954 0.51959 0.46855 0.0
C1374 C 0.01808 0.53203 0.4781 0.0
C1375 C 0.01363 0.50515 0.49455 0.0
C1376 C 0.03742 0.48533 0.49725 0.0
C1377 C 0.06512 0.49256 0.48458 0.0
C1378 C 0.95469 0.47473 0.55139 0.0
C1379 C 0.92868 0.48277 0.53504 0.0
C1380 C 0.98222 0.48237 0.53855 0.0
C1381 C 0.98434 0.49788 0.50885 0.0
C1382 C 0.9582 0.50624 0.49281 0.0
C1383 C 0.9307 0.49896 0.50587 0.0
H1384 H 0.04 0.95195 0.56555 0.0
H1385 H 0.994 0.90846 0.48668 0.0
H1386 H 0.02507 -0.00026 0.54388 0.0
H1387 H 0.98013 0.95613 0.46423 0.0
H1388 H 0.93541 0.04537 0.45109 0.0
H1389 H 0.94955 0.99741 0.47249 0.0
H1390 H 0.03465 0.03259 0.50015 0.0
H1391 H 0.01991 0.08096 0.47995 0.0
C1392 C 0.02673 0.95262 0.54356 0.0
C1393 C 0.01812 0.92646 0.52788 0.0
C1394 C 0.0184 0.98002 0.53093 0.0
C1395 C 0.00156 0.98188 0.50212 0.0
C1396 C 0.99273 0.95561 0.48669 0.0
C1397 C 0.00076 0.92823 0.49953 0.0
C1398 C 0.95724 0.04281 0.46148 0.0
C1399 C 0.97652 0.06697 0.46389 0.0
C1400 C 0.96541 0.01524 0.4737 0.0
C1401 C 0.99321 0.01107 0.48826 0.0
C1402 C 0.01282 0.03511 0.48976 0.0
C1403 C 0.00451 0.06278 0.47788 0.0
H1404 H 0.54847 0.06184 0.55158 0.0
H1405 H 0.58445 0.98065 0.51323 0.0
H1406 H 0.50048 0.04936 0.52938 0.0
H1407 H 0.53585 0.96733 0.49226 0.0
H1408 H 0.45315 0.96595 0.42974 0.0
H1409 H 0.50148 0.97948 0.45107 0.0
H1410 H 0.4598 0.01827 0.53584 0.0
H1411 H 0.4116 0.006 0.5137 0.0
C1412 C 0.546 0.04104 0.53883 0.0
C1413 C 0.57025 0.0222 0.53416 0.0
C1414 C 0.51838 0.03381 0.52619 0.0
C1415 C 0.51416 0.00732 0.50896 0.0
C1416 C 0.53836 0.98818 0.50484 0.0
C1417 C 0.56617 0.99565 0.51712 0.0
C1418 C 0.45438 0.97762 0.45279 0.0
C1419 C 0.42862 0.98503 0.46999 0.0
C1420 C 0.48209 0.98512 0.4652 0.0
C1421 C 0.48466 -0.00017 0.49533 0.0
C1422 C 0.45875 0.0074 0.51234 0.0
C1423 C 0.43106 0.00029 0.49969 0.0
H1424 H 0.54136 0.3219 0.29374 0.0
H1425 H 0.4977 0.25014 0.34366 0.0
H1426 H 0.53125 0.29851 0.24146 0.0
H1427 H 0.48755 0.22665 0.29103 0.0
H1428 H 0.50175 0.25553 0.14902 0.0
H1429 H 0.49334 0.28063 0.20118 0.0
H1430 H 0.52399 0.20334 0.25269 0.0
H1431 H 0.53238 0.1784 0.20092 0.0
C1432 C 0.52905 0.3014 0.29349 0.0
C1433 C 0.52069 0.28763 0.32283 0.0
C1434 C 0.52303 0.28813 0.26349 0.0
C1435 C 0.50877 0.26065 0.26216 0.0
C1436 C 0.49877 0.24774 0.29138 0.0
C1437 C 0.5045 0.26123 0.32147 0.0
C1438 C 0.50599 0.24371 0.17152 0.0
C1439 C 0.51807 0.21517 0.17092 0.0
C1440 C 0.50129 0.2581 0.20133 0.0
C1441 C 0.50816 0.244 0.23098 0.0
C1442 C 0.51823 0.2147 0.23031 0.0
C1443 C 0.52327 0.2005 0.20061 0.0
H1444 H 0.25245 0.49513 0.34727 0.0
H1445 H 0.17765 0.53295 0.29703 0.0
H1446 H 0.27665 0.48633 0.2947 0.0
H1447 H 0.20171 0.52417 0.24481 0.0
H1448 H 0.32124 0.53511 0.20455 0.0
H1449 H 0.29706 0.5246 0.2563 0.0
H1450 H 0.22263 0.48762 0.20475 0.0
H1451 H 0.24695 0.49816 0.15263 0.0
C1452 C 0.24086 0.50083 0.32502 0.0
C1453 C 0.21336 0.51509 0.32624 0.0
C1454 C 0.25475 0.49591 0.29497 0.0
C1455 C 0.24115 0.50475 0.26569 0.0
C1456 C 0.21266 0.51688 0.2669 0.0
C1457 C 0.19897 0.52213 0.29685 0.0
C1458 C 0.29998 0.52418 0.20423 0.0
C1459 C 0.2858 0.51783 0.17454 0.0
C1460 C 0.28624 0.51791 0.23391 0.0
C1461 C 0.25789 0.50542 0.23457 0.0
C1462 C 0.24443 0.49743 0.20491 0.0
C1463 C 0.25838 0.50338 0.17513 0.0
H1464 H 0.96677 0.32008 0.20265 0.0
H1465 H 0.99643 0.24211 0.15167 0.0
H1466 H 0.97389 0.29511 0.25472 0.0
H1467 H 0.00338 0.21695 0.20406 0.0
H1468 H 0.99928 0.24697 0.34601 0.0
H1469 H 0.01012 0.27036 0.29347 0.0
H1470 H 0.96314 0.20077 0.24372 0.0
H1471 H 0.95216 0.17754 0.29597 0.0
C1472 C 0.97547 0.29781 0.20263 0.0
C1473 C 0.98076 0.28292 0.17312 0.0
C1474 C 0.97973 0.28358 0.23247 0.0
C1475 C 0.98901 0.25403 0.23341 0.0
C1476 C 0.99604 0.2397 0.20397 0.0
C1477 C 0.9922 0.25413 0.17404 0.0
C1478 C 0.99181 0.23636 0.3238 0.0
C1479 C 0.97455 0.21064 0.32511 0.0
C1480 C 0.99797 0.24978 0.29378 0.0
C1481 C 0.98739 0.23743 0.26456 0.0
C1482 C 0.97183 0.21066 0.26579 0.0
C1483 C 0.96533 0.19749 0.29576 0.0
H1484 H 0.2464 0.00116 0.34801 0.0
H1485 H 0.32212 0.96537 0.2976 0.0
H1486 H 0.22237 0.01034 0.29541 0.0
H1487 H 0.29821 0.9744 0.24541 0.0
H1488 H 0.25347 0.00067 0.15321 0.0
H1489 H 0.27739 0.01061 0.2057 0.0
H1490 H 0.20242 0.97333 0.25609 0.0
H1491 H 0.17861 0.96355 0.20403 0.0
C1492 C 0.25818 0.99591 0.32573 0.0
C1493 C 0.28593 0.98215 0.3269 0.0
C1494 C 0.2444 0.00106 0.29567 0.0
C1495 C 0.25833 0.9929 0.26631 0.0
C1496 C 0.28699 0.98118 0.26753 0.0
C1497 C 0.30058 0.97575 0.29749 0.0
C1498 C 0.24186 0.99525 0.17554 0.0
C1499 C 0.21439 0.98093 0.17453 0.0
C1500 C 0.25558 0.00085 0.20555 0.0
C1501 C 0.24185 0.99258 0.23499 0.0
C1502 C 0.21346 0.98022 0.2339 0.0
C1503 C 0.19994 0.97435 0.20402 0.0
H1504 H 0.50158 0.74951 0.84277 0.0
H1505 H 0.45809 0.82181 0.79365 0.0
H1506 H 0.51232 0.72683 0.78982 0.0
H1507 H 0.46873 0.79923 0.74109 0.0
H1508 H 0.4977 0.75789 0.64811 0.0
H1509 H 0.50654 0.78208 0.70069 0.0
H1510 H 0.47652 0.70383 0.75088 0.0
H1511 H 0.46778 0.67978 0.6987 0.0
C1512 C 0.49494 0.76089 0.8207 0.0
C1513 C 0.47861 0.7872 0.82235 0.0
C1514 C 0.501 0.74787 0.79043 0.0
C1515 C 0.49121 0.76116 0.76133 0.0
C1516 C 0.47682 0.78856 0.76301 0.0
C1517 C 0.47048 0.80137 0.79318 0.0
C1518 C 0.49375 0.74564 0.6704 0.0
C1519 C 0.48167 0.71712 0.66933 0.0
C1520 C 0.49868 0.75952 0.70046 0.0
C1521 C 0.49202 0.74492 0.72988 0.0
C1522 C 0.48212 0.71559 0.72869 0.0
C1523 C 0.47687 0.70189 0.69876 0.0
H1524 H 0.82064 0.46508 0.70621 0.0
H1525 H 0.74578 0.50107 0.65445 0.0
H1526 H 0.79654 0.47539 0.75799 0.0
H1527 H 0.72155 0.51154 0.70663 0.0
H1528 H 0.75178 0.50229 0.84933 0.0
H1529 H 0.77582 0.51226 0.79693 0.0
H1530 H 0.70082 0.47531 0.74634 0.0
H1531 H 0.67689 0.46551 0.79835 0.0
C1532 C 0.79927 0.4758 0.70593 0.0
C1533 C 0.78489 0.48185 0.67627 0.0
C1534 C 0.78556 0.48197 0.73565 0.0
C1535 C 0.75706 0.4941 0.73639 0.0
C1536 C 0.74345 0.50196 0.70675 0.0
C1537 C 0.75735 0.49606 0.67692 0.0
C1538 C 0.74015 0.49704 0.82698 0.0
C1539 C 0.71268 0.48271 0.82792 0.0
C1540 C 0.75394 0.50264 0.79701 0.0
C1541 C 0.74031 0.49434 0.76754 0.0
C1542 C 0.71182 0.48219 0.76855 0.0
C1543 C 0.69821 0.47633 0.7984 0.0
H1544 H 0.00182 0.74424 0.65203 0.0
H1545 H 0.03532 0.82133 0.70174 0.0
H1546 H 0.99318 0.72039 0.70483 0.0
H1547 H 0.02672 0.79759 0.75418 0.0
H1548 H 0.04102 0.67899 0.79729 0.0
H1549 H 0.03114 0.70206 0.74476 0.0
H1550 H 0.99023 0.77587 0.79368 0.0
H1551 H 0.00014 0.75269 0.84657 0.0
C1552 C 0.00663 0.75637 0.67419 0.0
C1553 C 0.0196 0.78448 0.67277 0.0
C1554 C 0.0018 0.74267 0.70438 0.0
C1555 C 0.00946 0.75705 0.73361 0.0
C1556 C 0.02035 0.78602 0.73214 0.0
C1557 C 0.0255 0.79953 0.70205 0.0
C1558 C 0.02938 0.69987 0.79686 0.0
C1559 C 0.02171 0.71422 0.82607 0.0
C1560 C 0.02349 0.71297 0.76672 0.0
C1561 C 0.01005 0.74085 0.76511 0.0
C1562 C 0.00081 0.75445 0.79424 0.0
C1563 C 0.00639 0.74114 0.82447 0.0
H1564 H 0.67579 0.03833 0.70785 0.0
H1565 H 0.74874 0.99834 0.65629 0.0
H1566 H 0.69942 0.02711 0.7597 0.0
H1567 H 0.77248 0.98704 0.70852 0.0
H1568 H 0.7429 0.99773 0.85105 0.0
H1569 H 0.71846 0.98874 0.79864 0.0
H1570 H 0.79472 0.02303 0.748 0.0
H1571 H 0.819 0.03195 0.80002 0.0
C1572 C 0.69662 0.02659 0.70763 0.0
C1573 C 0.71066 0.01963 0.67801 0.0
C1574 C 0.71003 0.0199 0.73738 0.0
C1575 C 0.73788 0.00633 0.73816 0.0
C1576 C 0.75108 0.99768 0.70858 0.0
C1577 C 0.73747 0.00409 0.67873 0.0
C1578 C 0.7547 0.00256 0.82867 0.0
C1579 C 0.78265 0.01593 0.82957 0.0
C1580 C 0.74069 0.99754 0.79873 0.0
C1581 C 0.7546 0.00539 0.76926 0.0
C1582 C 0.78351 0.01651 0.77023 0.0
C1583 C 0.79732 0.02185 0.80006 0.0
loop_
_geom_bond_atom_site_label_1
_geom_bond_atom_site_label_2
_geom_bond_distance
_geom_bond_site_symmetry_2
_ccdc_geom_bond_type
Co0 O2 2.143 . S
Co0 O8 2.074 . S
Co0 O11 2.093 . S
Co0 O24 2.097 . S
Co0 N41 2.151 . S
Co0 N49 2.214 . S
Co1 O2 2.160 . S
Co1 O7 2.058 . S
Co1 O17 2.057 . S
Co1 O32 2.037 . S
Co1 N36 2.145 1_554 S
Co1 N57 2.257 . S
O2 Co0 2.143 . S
O2 Co1 2.160 . S
C3 O4 1.278 . S
C3 O11 1.224 . S
O4 C3 1.278 . S
C5 O6 1.245 . S
C5 O17 1.232 . S
O6 C5 1.245 . S
O7 Co1 2.058 . S
O7 C33 1.269 . S
O8 Co0 2.074 . S
O8 C33 1.257 . S
H9 C34 0.930 . S
H10 C40 0.930 . S
O11 Co0 2.093 . S
O11 C3 1.224 . S
H12 C44 0.929 . S
H13 C46 0.930 . S
H14 C47 0.930 . S
H15 C45 0.929 . S
H16 C48 0.928 . S
O17 Co1 2.057 . S
O17 C5 1.232 . S
H18 C37 0.929 . S
H19 C38 0.929 . S
H20 C50 0.931 . S
H21 C42 0.929 . S
H22 C51 0.930 . S
H23 C43 0.931 . S
O24 Co0 2.097 . S
O24 C52 1.214 . S
H25 C53 0.929 . S
H26 C54 0.929 1_556 S
H27 C55 0.930 . S
H28 C56 0.929 . S
H29 C58 0.930 . S
H30 C35 0.930 . S
H31 C39 0.930 . S
O32 Co1 2.037 . S
O32 C52 1.234 . S
C33 O7 1.269 . S
C33 O8 1.257 . S
C34 H9 0.930 . S
C34 C37 1.388 . S
C34 C39 1.418 . S
C35 H30 0.930 . S
C35 C38 1.404 . S
C35 C39 1.353 . S
N36 Co1 2.145 1_556 S
N36 C37 1.397 . S
N36 C38 1.334 . S
C37 H18 0.929 . S
C37 C34 1.388 . S
C37 N36 1.397 . S
C38 H19 0.929 . S
C38 C35 1.404 . S
C38 N36 1.334 . S
C39 H31 0.930 . S
C39 C34 1.418 . S
C39 C35 1.353 . S
C40 H10 0.930 . S
C40 N41 1.330 . S
C40 C42 1.446 . S
N41 Co0 2.151 . S
N41 C40 1.330 . S
N41 C45 1.418 . S
C42 H21 0.929 . S
C42 C40 1.446 . S
C42 C43 1.332 . S
C43 H23 0.931 . S
C43 C42 1.332 . S
C43 C44 1.267 . S
C44 H12 0.929 . S
C44 C43 1.267 . S
C44 C45 1.251 . S
C45 H15 0.929 . S
C45 N41 1.418 . S
C45 C44 1.251 . S
C46 H13 0.930 . S
C46 C48 1.406 . S
C46 C51 1.261 . S
C47 H14 0.930 . S
C47 N49 1.325 . S
C47 C50 1.357 . S
C48 H16 0.928 . S
C48 C46 1.406 . S
C48 N49 1.261 . S
N49 Co0 2.214 . S
N49 C47 1.325 . S
N49 C48 1.261 . S
C50 H20 0.931 . S
C50 C47 1.357 . S
C50 C51 1.312 . S
C51 H22 0.930 . S
C51 C46 1.261 . S
C51 C50 1.312 . S
C52 O24 1.214 . S
C52 O32 1.234 . S
C53 H25 0.929 . S
C53 C56 1.391 . S
C53 C58 1.391 . S
C54 H26 0.929 1_554 S
C54 C55 1.390 . S
C54 N57 1.391 . S
C55 H27 0.930 . S
C55 C54 1.390 . S
C55 C56 1.392 . S
C56 H28 0.929 . S
C56 C53 1.391 . S
C56 C55 1.392 . S
N57 Co1 2.257 . S
N57 C54 1.391 . S
N57 C58 1.388 . S
C58 H29 0.930 . S
C58 C53 1.391 . S
C58 N57 1.388 . S
Co59 O61 2.143 . S
Co59 O67 2.074 . S
Co59 O70 2.093 . S
Co59 O83 2.097 . S
Co59 N100 2.151 . S
Co59 N108 2.214 . S
Co60 O61 2.160 . S
Co60 O66 2.058 . S
Co60 O76 2.057 . S
Co60 O91 2.037 . S
Co60 N95 2.145 1_554 S
Co60 N116 2.257 . S
O61 Co59 2.143 . S
O61 Co60 2.160 . S
C62 O63 1.278 . S
C62 O70 1.224 . S
O63 C62 1.278 . S
C64 O65 1.245 . S
C64 O76 1.232 . S
O65 C64 1.245 . S
O66 Co60 2.058 . S
O66 C92 1.269 . S
O67 Co59 2.074 . S
O67 C92 1.257 . S
H68 C93 0.930 . S
H69 C99 0.930 . S
O70 Co59 2.093 . S
O70 C62 1.224 . S
H71 C103 0.929 . S
H72 C105 0.930 . S
H73 C106 0.930 . S
H74 C104 0.929 . S
H75 C107 0.928 . S
O76 Co60 2.057 . S
O76 C64 1.232 . S
H77 C96 0.929 . S
H78 C97 0.929 . S
H79 C109 0.931 . S
H80 C101 0.929 . S
H81 C110 0.930 . S
H82 C102 0.931 . S
O83 Co59 2.097 . S
O83 C111 1.214 . S
H84 C112 0.929 . S
H85 C113 0.929 1_556 S
H86 C114 0.930 . S
H87 C115 0.929 . S
H88 C117 0.930 . S
H89 C94 0.930 . S
H90 C98 0.930 . S
O91 Co60 2.037 . S
O91 C111 1.234 . S
C92 O66 1.269 . S
C92 O67 1.257 . S
C93 H68 0.930 . S
C93 C96 1.388 . S
C93 C98 1.418 . S
C94 H89 0.930 . S
C94 C97 1.404 . S
C94 C98 1.353 . S
N95 Co60 2.145 1_556 S
N95 C96 1.397 . S
N95 C97 1.334 . S
C96 H77 0.929 . S
C96 C93 1.388 . S
C96 N95 1.397 . S
C97 H78 0.929 . S
C97 C94 1.404 . S
C97 N95 1.334 . S
C98 H90 0.930 . S
C98 C93 1.418 . S
C98 C94 1.353 . S
C99 H69 0.930 . S
C99 N100 1.330 . S
C99 C101 1.446 . S
N100 Co59 2.151 . S
N100 C99 1.330 . S
N100 C104 1.418 . S
C101 H80 0.929 . S
C101 C99 1.446 . S
C101 C102 1.332 . S
C102 H82 0.931 . S
C102 C101 1.332 . S
C102 C103 1.267 . S
C103 H71 0.929 . S
C103 C102 1.267 . S
C103 C104 1.251 . S
C104 H74 0.929 . S
C104 N100 1.418 . S
C104 C103 1.251 . S
C105 H72 0.930 . S
C105 C107 1.406 . S
C105 C110 1.261 . S
C106 H73 0.930 . S
C106 N108 1.325 . S
C106 C109 1.357 . S
C107 H75 0.928 . S
C107 C105 1.406 . S
C107 N108 1.261 . S
N108 Co59 2.214 . S
N108 C106 1.325 . S
N108 C107 1.261 . S
C109 H79 0.931 . S
C109 C106 1.357 . S
C109 C110 1.312 . S
C110 H81 0.930 . S
C110 C105 1.261 . S
C110 C109 1.312 . S
C111 O83 1.214 . S
C111 O91 1.234 . S
C112 H84 0.929 . S
C112 C115 1.391 . S
C112 C117 1.391 . S
C113 H85 0.929 1_554 S
C113 C114 1.390 . S
C113 N116 1.391 . S
C114 H86 0.930 . S
C114 C113 1.390 . S
C114 C115 1.392 . S
C115 H87 0.929 . S
C115 C112 1.391 . S
C115 C114 1.392 . S
N116 Co60 2.257 . S
N116 C113 1.391 . S
N116 C117 1.388 . S
C117 H88 0.930 . S
C117 C112 1.391 . S
C117 N116 1.388 . S
Co118 O120 2.143 . S
Co118 O126 2.074 . S
Co118 O129 2.093 . S
Co118 O142 2.097 . S
Co118 N159 2.151 . S
Co118 N167 2.214 . S
Co119 O120 2.160 . S
Co119 O125 2.058 . S
Co119 O135 2.057 . S
Co119 O150 2.037 . S
Co119 N154 2.145 1_554 S
Co119 N175 2.257 1_655 S
O120 Co118 2.143 . S
O120 Co119 2.160 . S
C121 O122 1.278 . S
C121 O129 1.224 . S
O122 C121 1.278 . S
C123 O124 1.245 . S
C123 O135 1.232 . S
O124 C123 1.245 . S
O125 Co119 2.058 . S
O125 C151 1.269 . S
O126 Co118 2.074 . S
O126 C151 1.257 . S
H127 C152 0.930 . S
H128 C158 0.930 . S
O129 Co118 2.093 . S
O129 C121 1.224 . S
H130 C162 0.929 . S
H131 C164 0.930 . S
H132 C165 0.930 . S
H133 C163 0.929 . S
H134 C166 0.928 . S
O135 Co119 2.057 . S
O135 C123 1.232 . S
H136 C155 0.929 . S
H137 C156 0.929 1_455 S
H138 C168 0.931 . S
H139 C160 0.929 . S
H140 C169 0.930 . S
H141 C161 0.931 . S
O142 Co118 2.097 . S
O142 C170 1.214 . S
H143 C171 0.929 . S
H144 C172 0.929 1_656 S
H145 C173 0.930 . S
H146 C174 0.929 . S
H147 C176 0.930 . S
H148 C153 0.930 1_455 S
H149 C157 0.930 . S
O150 Co119 2.037 . S
O150 C170 1.234 . S
C151 O125 1.269 . S
C151 O126 1.257 . S
C152 H127 0.930 . S
C152 C155 1.388 . S
C152 C157 1.418 . S
C153 H148 0.930 1_655 S
C153 C156 1.404 . S
C153 C157 1.353 . S
N154 Co119 2.145 1_556 S
N154 C155 1.397 . S
N154 C156 1.334 . S
C155 H136 0.929 . S
C155 C152 1.388 . S
C155 N154 1.397 . S
C156 H137 0.929 1_655 S
C156 C153 1.404 . S
C156 N154 1.334 . S
C157 H149 0.930 . S
C157 C152 1.418 . S
C157 C153 1.353 . S
C158 H128 0.930 . S
C158 N159 1.330 . S
C158 C160 1.446 . S
N159 Co118 2.151 . S
N159 C158 1.330 . S
N159 C163 1.418 . S
C160 H139 0.929 . S
C160 C158 1.446 . S
C160 C161 1.332 . S
C161 H141 0.931 . S
C161 C160 1.332 . S
C161 C162 1.267 . S
C162 H130 0.929 . S
C162 C161 1.267 . S
C162 C163 1.251 . S
C163 H133 0.929 . S
C163 N159 1.418 . S
C163 C162 1.251 . S
C164 H131 0.930 . S
C164 C166 1.406 . S
C164 C169 1.261 . S
C165 H132 0.930 . S
C165 N167 1.325 . S
C165 C168 1.357 . S
C166 H134 0.928 . S
C166 C164 1.406 . S
C166 N167 1.261 . S
N167 Co118 2.214 . S
N167 C165 1.325 . S
N167 C166 1.261 . S
C168 H138 0.931 . S
C168 C165 1.357 . S
C168 C169 1.312 . S
C169 H140 0.930 . S
C169 C164 1.261 . S
C169 C168 1.312 . S
C170 O142 1.214 . S
C170 O150 1.234 . S
C171 H143 0.929 . S
C171 C174 1.391 . S
C171 C176 1.391 . S
C172 H144 0.929 1_454 S
C172 C173 1.390 . S
C172 N175 1.391 . S
C173 H145 0.930 . S
C173 C172 1.390 . S
C173 C174 1.392 . S
C174 H146 0.929 . S
C174 C171 1.391 . S
C174 C173 1.392 . S
N175 Co119 2.257 1_455 S
N175 C172 1.391 . S
N175 C176 1.388 . S
C176 H147 0.930 . S
C176 C171 1.391 . S
C176 N175 1.388 . S
Co177 O179 2.143 . S
Co177 O185 2.074 . S
Co177 O188 2.093 . S
Co177 O201 2.097 . S
Co177 N218 2.151 . S
Co177 N226 2.214 . S
Co178 O179 2.160 . S
Co178 O184 2.058 . S
Co178 O194 2.057 . S
Co178 O209 2.037 . S
Co178 N213 2.145 1_554 S
Co178 N234 2.257 1_565 S
O179 Co177 2.143 . S
O179 Co178 2.160 . S
C180 O181 1.278 . S
C180 O188 1.224 . S
O181 C180 1.278 . S
C182 O183 1.245 . S
C182 O194 1.232 . S
O183 C182 1.245 . S
O184 Co178 2.058 . S
O184 C210 1.269 . S
O185 Co177 2.074 . S
O185 C210 1.257 . S
H186 C211 0.930 . S
H187 C217 0.930 . S
O188 Co177 2.093 . S
O188 C180 1.224 . S
H189 C221 0.929 . S
H190 C223 0.930 . S
H191 C224 0.930 . S
H192 C222 0.929 . S
H193 C225 0.928 . S
O194 Co178 2.057 . S
O194 C182 1.232 . S
H195 C214 0.929 . S
H196 C215 0.929 1_545 S
H197 C227 0.931 . S
H198 C219 0.929 . S
H199 C228 0.930 . S
H200 C220 0.931 . S
O201 Co177 2.097 . S
O201 C229 1.214 . S
H202 C230 0.929 . S
H203 C231 0.929 1_566 S
H204 C232 0.930 . S
H205 C233 0.929 . S
H206 C235 0.930 . S
H207 C212 0.930 1_545 S
H208 C216 0.930 . S
O209 Co178 2.037 . S
O209 C229 1.234 . S
C210 O184 1.269 . S
C210 O185 1.257 . S
C211 H186 0.930 . S
C211 C214 1.388 . S
C211 C216 1.418 . S
C212 H207 0.930 1_565 S
C212 C215 1.404 . S
C212 C216 1.353 . S
N213 Co178 2.145 1_556 S
N213 C214 1.397 . S
N213 C215 1.334 . S
C214 H195 0.929 . S
C214 C211 1.388 . S
C214 N213 1.397 . S
C215 H196 0.929 1_565 S
C215 C212 1.404 . S
C215 N213 1.334 . S
C216 H208 0.930 . S
C216 C211 1.418 . S
C216 C212 1.353 . S
C217 H187 0.930 . S
C217 N218 1.330 . S
C217 C219 1.446 . S
N218 Co177 2.151 . S
N218 C217 1.330 . S
N218 C222 1.418 . S
C219 H198 0.929 . S
C219 C217 1.446 . S
C219 C220 1.332 . S
C220 H200 0.931 . S
C220 C219 1.332 . S
C220 C221 1.267 . S
C221 H189 0.929 . S
C221 C220 1.267 . S
C221 C222 1.251 . S
C222 H192 0.929 . S
C222 N218 1.418 . S
C222 C221 1.251 . S
C223 H190 0.930 . S
C223 C225 1.406 . S
C223 C228 1.261 . S
C224 H191 0.930 . S
C224 N226 1.325 . S
C224 C227 1.357 . S
C225 H193 0.928 . S
C225 C223 1.406 . S
C225 N226 1.261 . S
N226 Co177 2.214 . S
N226 C224 1.325 . S
N226 C225 1.261 . S
C227 H197 0.931 . S
C227 C224 1.357 . S
C227 C228 1.312 . S
C228 H199 0.930 . S
C228 C223 1.261 . S
C228 C227 1.312 . S
C229 O201 1.214 . S
C229 O209 1.234 . S
C230 H202 0.929 . S
C230 C233 1.391 . S
C230 C235 1.391 . S
C231 H203 0.929 1_544 S
C231 C232 1.390 . S
C231 N234 1.391 . S
C232 H204 0.930 . S
C232 C231 1.390 . S
C232 C233 1.392 . S
C233 H205 0.929 . S
C233 C230 1.391 . S
C233 C232 1.392 . S
N234 Co178 2.257 1_545 S
N234 C231 1.391 . S
N234 C235 1.388 . S
C235 H206 0.930 . S
C235 C230 1.391 . S
C235 N234 1.388 . S
Co236 O238 2.143 . S
Co236 O244 2.074 . S
Co236 O247 2.093 . S
Co236 O260 2.097 . S
Co236 N277 2.151 . S
Co236 N285 2.214 . S
Co237 O238 2.160 . S
Co237 O243 2.058 . S
Co237 O253 2.057 . S
Co237 O268 2.037 . S
Co237 N272 2.145 . S
Co237 N293 2.257 . S
O238 Co236 2.143 . S
O238 Co237 2.160 . S
C239 O240 1.278 . S
C239 O247 1.224 . S
O240 C239 1.278 . S
C241 O242 1.245 . S
C241 O253 1.232 . S
O242 C241 1.245 . S
O243 Co237 2.058 . S
O243 C269 1.269 . S
O244 Co236 2.074 . S
O244 C269 1.257 . S
H245 C270 0.930 . S
H246 C276 0.930 . S
O247 Co236 2.093 . S
O247 C239 1.224 . S
H248 C280 0.929 . S
H249 C282 0.930 . S
H250 C283 0.930 . S
H251 C281 0.929 . S
H252 C284 0.928 . S
O253 Co237 2.057 . S
O253 C241 1.232 . S
H254 C273 0.929 . S
H255 C274 0.929 . S
H256 C286 0.931 . S
H257 C278 0.929 . S
H258 C287 0.930 . S
H259 C279 0.931 . S
O260 Co236 2.097 . S
O260 C288 1.214 . S
H261 C289 0.929 . S
H262 C290 0.929 . S
H263 C291 0.930 . S
H264 C292 0.929 . S
H265 C294 0.930 . S
H266 C271 0.930 . S
H267 C275 0.930 . S
O268 Co237 2.037 . S
O268 C288 1.234 . S
C269 O243 1.269 . S
C269 O244 1.257 . S
C270 H245 0.930 . S
C270 C273 1.388 . S
C270 C275 1.418 . S
C271 H266 0.930 . S
C271 C274 1.404 . S
C271 C275 1.353 . S
N272 Co237 2.145 . S
N272 C273 1.397 . S
N272 C274 1.334 . S
C273 H254 0.929 . S
C273 C270 1.388 . S
C273 N272 1.397 . S
C274 H255 0.929 . S
C274 C271 1.404 . S
C274 N272 1.334 . S
C275 H267 0.930 . S
C275 C270 1.418 . S
C275 C271 1.353 . S
C276 H246 0.930 . S
C276 N277 1.330 . S
C276 C278 1.446 . S
N277 Co236 2.151 . S
N277 C276 1.330 . S
N277 C281 1.418 . S
C278 H257 0.929 . S
C278 C276 1.446 . S
C278 C279 1.332 . S
C279 H259 0.931 . S
C279 C278 1.332 . S
C279 C280 1.267 . S
C280 H248 0.929 . S
C280 C279 1.267 . S
C280 C281 1.251 . S
C281 H251 0.929 . S
C281 N277 1.418 . S
C281 C280 1.251 . S
C282 H249 0.930 . S
C282 C284 1.406 . S
C282 C287 1.261 . S
C283 H250 0.930 . S
C283 N285 1.325 . S
C283 C286 1.357 . S
C284 H252 0.928 . S
C284 C282 1.406 . S
C284 N285 1.261 . S
N285 Co236 2.214 . S
N285 C283 1.325 . S
N285 C284 1.261 . S
C286 H256 0.931 . S
C286 C283 1.357 . S
C286 C287 1.312 . S
C287 H258 0.930 . S
C287 C282 1.261 . S
C287 C286 1.312 . S
C288 O260 1.214 . S
C288 O268 1.234 . S
C289 H261 0.929 . S
C289 C292 1.391 . S
C289 C294 1.391 . S
C290 H262 0.929 . S
C290 C291 1.390 . S
C290 N293 1.391 . S
C291 H263 0.930 . S
C291 C290 1.390 . S
C291 C292 1.392 . S
C292 H264 0.929 . S
C292 C289 1.391 . S
C292 C291 1.392 . S
N293 Co237 2.257 . S
N293 C290 1.391 . S
N293 C294 1.388 . S
C294 H265 0.930 . S
C294 C289 1.391 . S
C294 N293 1.388 . S
Co295 O297 2.143 . S
Co295 O303 2.074 . S
Co295 O306 2.093 . S
Co295 O319 2.097 . S
Co295 N336 2.151 . S
Co295 N344 2.214 . S
Co296 O297 2.160 . S
Co296 O302 2.058 . S
Co296 O312 2.057 . S
Co296 O327 2.037 . S
Co296 N331 2.145 . S
Co296 N352 2.257 . S
O297 Co295 2.143 . S
O297 Co296 2.160 . S
C298 O299 1.278 . S
C298 O306 1.224 . S
O299 C298 1.278 . S
C300 O301 1.245 . S
C300 O312 1.232 . S
O301 C300 1.245 . S
O302 Co296 2.058 . S
O302 C328 1.269 . S
O303 Co295 2.074 . S
O303 C328 1.257 . S
H304 C329 0.930 . S
H305 C335 0.930 . S
O306 Co295 2.093 . S
O306 C298 1.224 . S
H307 C339 0.929 . S
H308 C341 0.930 . S
H309 C342 0.930 . S
H310 C340 0.929 . S
H311 C343 0.928 . S
O312 Co296 2.057 . S
O312 C300 1.232 . S
H313 C332 0.929 . S
H314 C333 0.929 . S
H315 C345 0.931 . S
H316 C337 0.929 . S
H317 C346 0.930 . S
H318 C338 0.931 . S
O319 Co295 2.097 . S
O319 C347 1.214 . S
H320 C348 0.929 . S
H321 C349 0.929 . S
H322 C350 0.930 . S
H323 C351 0.929 . S
H324 C353 0.930 . S
H325 C330 0.930 . S
H326 C334 0.930 . S
O327 Co296 2.037 . S
O327 C347 1.234 . S
C328 O302 1.269 . S
C328 O303 1.257 . S
C329 H304 0.930 . S
C329 C332 1.388 . S
C329 C334 1.418 . S
C330 H325 0.930 . S
C330 C333 1.404 . S
C330 C334 1.353 . S
N331 Co296 2.145 . S
N331 C332 1.397 . S
N331 C333 1.334 . S
C332 H313 0.929 . S
C332 C329 1.388 . S
C332 N331 1.397 . S
C333 H314 0.929 . S
C333 C330 1.404 . S
C333 N331 1.334 . S
C334 H326 0.930 . S
C334 C329 1.418 . S
C334 C330 1.353 . S
C335 H305 0.930 . S
C335 N336 1.330 . S
C335 C337 1.446 . S
N336 Co295 2.151 . S
N336 C335 1.330 . S
N336 C340 1.418 . S
C337 H316 0.929 . S
C337 C335 1.446 . S
C337 C338 1.332 . S
C338 H318 0.931 . S
C338 C337 1.332 . S
C338 C339 1.267 . S
C339 H307 0.929 . S
C339 C338 1.267 . S
C339 C340 1.251 . S
C340 H310 0.929 . S
C340 N336 1.418 . S
C340 C339 1.251 . S
C341 H308 0.930 . S
C341 C343 1.406 . S
C341 C346 1.261 . S
C342 H309 0.930 . S
C342 N344 1.325 . S
C342 C345 1.357 . S
C343 H311 0.928 . S
C343 C341 1.406 . S
C343 N344 1.261 . S
N344 Co295 2.214 . S
N344 C342 1.325 . S
N344 C343 1.261 . S
C345 H315 0.931 . S
C345 C342 1.357 . S
C345 C346 1.312 . S
C346 H317 0.930 . S
C346 C341 1.261 . S
C346 C345 1.312 . S
C347 O319 1.214 . S
C347 O327 1.234 . S
C348 H320 0.929 . S
C348 C351 1.391 . S
C348 C353 1.391 . S
C349 H321 0.929 . S
C349 C350 1.390 . S
C349 N352 1.391 . S
C350 H322 0.930 . S
C350 C349 1.390 . S
C350 C351 1.392 . S
C351 H323 0.929 . S
C351 C348 1.391 . S
C351 C350 1.392 . S
N352 Co296 2.257 . S
N352 C349 1.391 . S
N352 C353 1.388 . S
C353 H324 0.930 . S
C353 C348 1.391 . S
C353 N352 1.388 . S
Co354 O356 2.143 . S
Co354 O362 2.074 . S
Co354 O365 2.093 . S
Co354 O378 2.097 . S
Co354 N395 2.151 . S
Co354 N403 2.214 . S
Co355 O356 2.160 . S
Co355 O361 2.058 . S
Co355 O371 2.057 . S
Co355 O386 2.037 . S
Co355 N390 2.145 . S
Co355 N411 2.257 1_655 S
O356 Co354 2.143 . S
O356 Co355 2.160 . S
C357 O358 1.278 . S
C357 O365 1.224 . S
O358 C357 1.278 . S
C359 O360 1.245 . S
C359 O371 1.232 . S
O360 C359 1.245 . S
O361 Co355 2.058 . S
O361 C387 1.269 . S
O362 Co354 2.074 . S
O362 C387 1.257 . S
H363 C388 0.930 . S
H364 C394 0.930 . S
O365 Co354 2.093 . S
O365 C357 1.224 . S
H366 C398 0.929 . S
H367 C400 0.930 . S
H368 C401 0.930 . S
H369 C399 0.929 . S
H370 C402 0.928 . S
O371 Co355 2.057 . S
O371 C359 1.232 . S
H372 C391 0.929 . S
H373 C392 0.929 1_455 S
H374 C404 0.931 . S
H375 C396 0.929 . S
H376 C405 0.930 . S
H377 C397 0.931 . S
O378 Co354 2.097 . S
O378 C406 1.214 . S
H379 C407 0.929 . S
H380 C408 0.929 1_655 S
H381 C409 0.930 . S
H382 C410 0.929 . S
H383 C412 0.930 . S
H384 C389 0.930 1_455 S
H385 C393 0.930 . S
O386 Co355 2.037 . S
O386 C406 1.234 . S
C387 O361 1.269 . S
C387 O362 1.257 . S
C388 H363 0.930 . S
C388 C391 1.388 . S
C388 C393 1.418 . S
C389 H384 0.930 1_655 S
C389 C392 1.404 . S
C389 C393 1.353 . S
N390 Co355 2.145 . S
N390 C391 1.397 . S
N390 C392 1.334 . S
C391 H372 0.929 . S
C391 C388 1.388 . S
C391 N390 1.397 . S
C392 H373 0.929 1_655 S
C392 C389 1.404 . S
C392 N390 1.334 . S
C393 H385 0.930 . S
C393 C388 1.418 . S
C393 C389 1.353 . S
C394 H364 0.930 . S
C394 N395 1.330 . S
C394 C396 1.446 . S
N395 Co354 2.151 . S
N395 C394 1.330 . S
N395 C399 1.418 . S
C396 H375 0.929 . S
C396 C394 1.446 . S
C396 C397 1.332 . S
C397 H377 0.931 . S
C397 C396 1.332 . S
C397 C398 1.267 . S
C398 H366 0.929 . S
C398 C397 1.267 . S
C398 C399 1.251 . S
C399 H369 0.929 . S
C399 N395 1.418 . S
C399 C398 1.251 . S
C400 H367 0.930 . S
C400 C402 1.406 . S
C400 C405 1.261 . S
C401 H368 0.930 . S
C401 N403 1.325 . S
C401 C404 1.357 . S
C402 H370 0.928 . S
C402 C400 1.406 . S
C402 N403 1.261 . S
N403 Co354 2.214 . S
N403 C401 1.325 . S
N403 C402 1.261 . S
C404 H374 0.931 . S
C404 C401 1.357 . S
C404 C405 1.312 . S
C405 H376 0.930 . S
C405 C400 1.261 . S
C405 C404 1.312 . S
C406 O378 1.214 . S
C406 O386 1.234 . S
C407 H379 0.929 . S
C407 C410 1.391 . S
C407 C412 1.391 . S
C408 H380 0.929 1_455 S
C408 C409 1.390 . S
C408 N411 1.391 . S
C409 H381 0.930 . S
C409 C408 1.390 . S
C409 C410 1.392 . S
C410 H382 0.929 . S
C410 C407 1.391 . S
C410 C409 1.392 . S
N411 Co355 2.257 1_455 S
N411 C408 1.391 . S
N411 C412 1.388 . S
C412 H383 0.930 . S
C412 C407 1.391 . S
C412 N411 1.388 . S
Co413 O415 2.143 . S
Co413 O421 2.074 . S
Co413 O424 2.093 . S
Co413 O437 2.097 . S
Co413 N454 2.151 . S
Co413 N462 2.214 . S
Co414 O415 2.160 . S
Co414 O420 2.058 . S
Co414 O430 2.057 . S
Co414 O445 2.037 . S
Co414 N449 2.145 . S
Co414 N470 2.257 1_565 S
O415 Co413 2.143 . S
O415 Co414 2.160 . S
C416 O417 1.278 . S
C416 O424 1.224 . S
O417 C416 1.278 . S
C418 O419 1.245 . S
C418 O430 1.232 . S
O419 C418 1.245 . S
O420 Co414 2.058 . S
O420 C446 1.269 . S
O421 Co413 2.074 . S
O421 C446 1.257 . S
H422 C447 0.930 . S
H423 C453 0.930 . S
O424 Co413 2.093 . S
O424 C416 1.224 . S
H425 C457 0.929 . S
H426 C459 0.930 . S
H427 C460 0.930 . S
H428 C458 0.929 . S
H429 C461 0.928 . S
O430 Co414 2.057 . S
O430 C418 1.232 . S
H431 C450 0.929 . S
H432 C451 0.929 1_545 S
H433 C463 0.931 . S
H434 C455 0.929 . S
H435 C464 0.930 . S
H436 C456 0.931 . S
O437 Co413 2.097 . S
O437 C465 1.214 . S
H438 C466 0.929 . S
H439 C467 0.929 1_565 S
H440 C468 0.930 . S
H441 C469 0.929 . S
H442 C471 0.930 . S
H443 C448 0.930 1_545 S
H444 C452 0.930 . S
O445 Co414 2.037 . S
O445 C465 1.234 . S
C446 O420 1.269 . S
C446 O421 1.257 . S
C447 H422 0.930 . S
C447 C450 1.388 . S
C447 C452 1.418 . S
C448 H443 0.930 1_565 S
C448 C451 1.404 . S
C448 C452 1.353 . S
N449 Co414 2.145 . S
N449 C450 1.397 . S
N449 C451 1.334 . S
C450 H431 0.929 . S
C450 C447 1.388 . S
C450 N449 1.397 . S
C451 H432 0.929 1_565 S
C451 C448 1.404 . S
C451 N449 1.334 . S
C452 H444 0.930 . S
C452 C447 1.418 . S
C452 C448 1.353 . S
C453 H423 0.930 . S
C453 N454 1.330 . S
C453 C455 1.446 . S
N454 Co413 2.151 . S
N454 C453 1.330 . S
N454 C458 1.418 . S
C455 H434 0.929 . S
C455 C453 1.446 . S
C455 C456 1.332 . S
C456 H436 0.931 . S
C456 C455 1.332 . S
C456 C457 1.267 . S
C457 H425 0.929 . S
C457 C456 1.267 . S
C457 C458 1.251 . S
C458 H428 0.929 . S
C458 N454 1.418 . S
C458 C457 1.251 . S
C459 H426 0.930 . S
C459 C461 1.406 . S
C459 C464 1.261 . S
C460 H427 0.930 . S
C460 N462 1.325 . S
C460 C463 1.357 . S
C461 H429 0.928 . S
C461 C459 1.406 . S
C461 N462 1.261 . S
N462 Co413 2.214 . S
N462 C460 1.325 . S
N462 C461 1.261 . S
C463 H433 0.931 . S
C463 C460 1.357 . S
C463 C464 1.312 . S
C464 H435 0.930 . S
C464 C459 1.261 . S
C464 C463 1.312 . S
C465 O437 1.214 . S
C465 O445 1.234 . S
C466 H438 0.929 . S
C466 C469 1.391 . S
C466 C471 1.391 . S
C467 H439 0.929 1_545 S
C467 C468 1.390 . S
C467 N470 1.391 . S
C468 H440 0.930 . S
C468 C467 1.390 . S
C468 C469 1.392 . S
C469 H441 0.929 . S
C469 C466 1.391 . S
C469 C468 1.392 . S
N470 Co414 2.257 1_545 S
N470 C467 1.391 . S
N470 C471 1.388 . S
C471 H442 0.930 . S
C471 C466 1.391 . S
C471 N470 1.388 . S
Co472 O474 2.143 . S
Co472 O480 2.074 . S
Co472 O483 2.093 . S
Co472 O496 2.097 . S
Co472 N513 2.151 . S
Co472 N521 2.214 . S
Co473 O474 2.160 . S
Co473 O479 2.058 . S
Co473 O489 2.057 . S
Co473 O504 2.037 . S
Co473 N508 2.145 1_556 S
Co473 N529 2.257 . S
O474 Co472 2.143 . S
O474 Co473 2.160 . S
C475 O476 1.278 . S
C475 O483 1.224 . S
O476 C475 1.278 . S
C477 O478 1.245 . S
C477 O489 1.232 . S
O478 C477 1.245 . S
O479 Co473 2.058 . S
O479 C505 1.269 . S
O480 Co472 2.074 . S
O480 C505 1.257 . S
H481 C506 0.930 . S
H482 C512 0.930 . S
O483 Co472 2.093 . S
O483 C475 1.224 . S
H484 C516 0.929 . S
H485 C518 0.930 . S
H486 C519 0.930 . S
H487 C517 0.929 . S
H488 C520 0.928 . S
O489 Co473 2.057 . S
O489 C477 1.232 . S
H490 C509 0.929 . S
H491 C510 0.929 . S
H492 C522 0.931 . S
H493 C514 0.929 . S
H494 C523 0.930 . S
H495 C515 0.931 . S
O496 Co472 2.097 . S
O496 C524 1.214 . S
H497 C525 0.929 . S
H498 C526 0.929 1_554 S
H499 C527 0.930 . S
H500 C528 0.929 . S
H501 C530 0.930 . S
H502 C507 0.930 . S
H503 C511 0.930 . S
O504 Co473 2.037 . S
O504 C524 1.234 . S
C505 O479 1.269 . S
C505 O480 1.257 . S
C506 H481 0.930 . S
C506 C509 1.388 . S
C506 C511 1.418 . S
C507 H502 0.930 . S
C507 C510 1.404 . S
C507 C511 1.353 . S
N508 Co473 2.145 1_554 S
N508 C509 1.397 . S
N508 C510 1.334 . S
C509 H490 0.929 . S
C509 C506 1.388 . S
C509 N508 1.397 . S
C510 H491 0.929 . S
C510 C507 1.404 . S
C510 N508 1.334 . S
C511 H503 0.930 . S
C511 C506 1.418 . S
C511 C507 1.353 . S
C512 H482 0.930 . S
C512 N513 1.330 . S
C512 C514 1.446 . S
N513 Co472 2.151 . S
N513 C512 1.330 . S
N513 C517 1.418 . S
C514 H493 0.929 . S
C514 C512 1.446 . S
C514 C515 1.332 . S
C515 H495 0.931 . S
C515 C514 1.332 . S
C515 C516 1.267 . S
C516 H484 0.929 . S
C516 C515 1.267 . S
C516 C517 1.251 . S
C517 H487 0.929 . S
C517 N513 1.418 . S
C517 C516 1.251 . S
C518 H485 0.930 . S
C518 C520 1.406 . S
C518 C523 1.261 . S
C519 H486 0.930 . S
C519 N521 1.325 . S
C519 C522 1.357 . S
C520 H488 0.928 . S
C520 C518 1.406 . S
C520 N521 1.261 . S
N521 Co472 2.214 . S
N521 C519 1.325 . S
N521 C520 1.261 . S
C522 H492 0.931 . S
C522 C519 1.357 . S
C522 C523 1.312 . S
C523 H494 0.930 . S
C523 C518 1.261 . S
C523 C522 1.312 . S
C524 O496 1.214 . S
C524 O504 1.234 . S
C525 H497 0.929 . S
C525 C528 1.391 . S
C525 C530 1.391 . S
C526 H498 0.929 1_556 S
C526 C527 1.390 . S
C526 N529 1.391 . S
C527 H499 0.930 . S
C527 C526 1.390 . S
C527 C528 1.392 . S
C528 H500 0.929 . S
C528 C525 1.391 . S
C528 C527 1.392 . S
N529 Co473 2.257 . S
N529 C526 1.391 . S
N529 C530 1.388 . S
C530 H501 0.930 . S
C530 C525 1.391 . S
C530 N529 1.388 . S
Co531 O533 2.143 . S
Co531 O539 2.074 . S
Co531 O542 2.093 . S
Co531 O555 2.097 . S
Co531 N572 2.151 . S
Co531 N580 2.214 . S
Co532 O533 2.160 . S
Co532 O538 2.058 . S
Co532 O548 2.057 . S
Co532 O563 2.037 . S
Co532 N567 2.145 1_556 S
Co532 N588 2.257 . S
O533 Co531 2.143 . S
O533 Co532 2.160 . S
C534 O535 1.278 . S
C534 O542 1.224 . S
O535 C534 1.278 . S
C536 O537 1.245 . S
C536 O548 1.232 . S
O537 C536 1.245 . S
O538 Co532 2.058 . S
O538 C564 1.269 . S
O539 Co531 2.074 . S
O539 C564 1.257 . S
H540 C565 0.930 . S
H541 C571 0.930 . S
O542 Co531 2.093 . S
O542 C534 1.224 . S
H543 C575 0.929 . S
H544 C577 0.930 . S
H545 C578 0.930 . S
H546 C576 0.929 . S
H547 C579 0.928 . S
O548 Co532 2.057 . S
O548 C536 1.232 . S
H549 C568 0.929 . S
H550 C569 0.929 . S
H551 C581 0.931 . S
H552 C573 0.929 . S
H553 C582 0.930 . S
H554 C574 0.931 . S
O555 Co531 2.097 . S
O555 C583 1.214 . S
H556 C584 0.929 . S
H557 C585 0.929 1_554 S
H558 C586 0.930 . S
H559 C587 0.929 . S
H560 C589 0.930 . S
H561 C566 0.930 . S
H562 C570 0.930 . S
O563 Co532 2.037 . S
O563 C583 1.234 . S
C564 O538 1.269 . S
C564 O539 1.257 . S
C565 H540 0.930 . S
C565 C568 1.388 . S
C565 C570 1.418 . S
C566 H561 0.930 . S
C566 C569 1.404 . S
C566 C570 1.353 . S
N567 Co532 2.145 1_554 S
N567 C568 1.397 . S
N567 C569 1.334 . S
C568 H549 0.929 . S
C568 C565 1.388 . S
C568 N567 1.397 . S
C569 H550 0.929 . S
C569 C566 1.404 . S
C569 N567 1.334 . S
C570 H562 0.930 . S
C570 C565 1.418 . S
C570 C566 1.353 . S
C571 H541 0.930 . S
C571 N572 1.330 . S
C571 C573 1.446 . S
N572 Co531 2.151 . S
N572 C571 1.330 . S
N572 C576 1.418 . S
C573 H552 0.929 . S
C573 C571 1.446 . S
C573 C574 1.332 . S
C574 H554 0.931 . S
C574 C573 1.332 . S
C574 C575 1.267 . S
C575 H543 0.929 . S
C575 C574 1.267 . S
C575 C576 1.251 . S
C576 H546 0.929 . S
C576 N572 1.418 . S
C576 C575 1.251 . S
C577 H544 0.930 . S
C577 C579 1.406 . S
C577 C582 1.261 . S
C578 H545 0.930 . S
C578 N580 1.325 . S
C578 C581 1.357 . S
C579 H547 0.928 . S
C579 C577 1.406 . S
C579 N580 1.261 . S
N580 Co531 2.214 . S
N580 C578 1.325 . S
N580 C579 1.261 . S
C581 H551 0.931 . S
C581 C578 1.357 . S
C581 C582 1.312 . S
C582 H553 0.930 . S
C582 C577 1.261 . S
C582 C581 1.312 . S
C583 O555 1.214 . S
C583 O563 1.234 . S
C584 H556 0.929 . S
C584 C587 1.391 . S
C584 C589 1.391 . S
C585 H557 0.929 1_556 S
C585 C586 1.390 . S
C585 N588 1.391 . S
C586 H558 0.930 . S
C586 C585 1.390 . S
C586 C587 1.392 . S
C587 H559 0.929 . S
C587 C584 1.391 . S
C587 C586 1.392 . S
N588 Co532 2.257 . S
N588 C585 1.391 . S
N588 C589 1.388 . S
C589 H560 0.930 . S
C589 C584 1.391 . S
C589 N588 1.388 . S
Co590 O592 2.143 . S
Co590 O598 2.074 . S
Co590 O601 2.093 . S
Co590 O614 2.097 . S
Co590 N631 2.151 . S
Co590 N639 2.214 . S
Co591 O592 2.160 . S
Co591 O597 2.058 . S
Co591 O607 2.057 . S
Co591 O622 2.037 . S
Co591 N626 2.145 1_556 S
Co591 N647 2.257 1_455 S
O592 Co590 2.143 . S
O592 Co591 2.160 . S
C593 O594 1.278 . S
C593 O601 1.224 . S
O594 C593 1.278 . S
C595 O596 1.245 . S
C595 O607 1.232 . S
O596 C595 1.245 . S
O597 Co591 2.058 . S
O597 C623 1.269 . S
O598 Co590 2.074 . S
O598 C623 1.257 . S
H599 C624 0.930 . S
H600 C630 0.930 . S
O601 Co590 2.093 . S
O601 C593 1.224 . S
H602 C634 0.929 . S
H603 C636 0.930 . S
H604 C637 0.930 . S
H605 C635 0.929 . S
H606 C638 0.928 . S
O607 Co591 2.057 . S
O607 C595 1.232 . S
H608 C627 0.929 . S
H609 C628 0.929 1_655 S
H610 C640 0.931 . S
H611 C632 0.929 . S
H612 C641 0.930 . S
H613 C633 0.931 . S
O614 Co590 2.097 . S
O614 C642 1.214 . S
H615 C643 0.929 . S
H616 C644 0.929 1_454 S
H617 C645 0.930 . S
H618 C646 0.929 . S
H619 C648 0.930 . S
H620 C625 0.930 1_655 S
H621 C629 0.930 . S
O622 Co591 2.037 . S
O622 C642 1.234 . S
C623 O597 1.269 . S
C623 O598 1.257 . S
C624 H599 0.930 . S
C624 C627 1.388 . S
C624 C629 1.418 . S
C625 H620 0.930 1_455 S
C625 C628 1.404 . S
C625 C629 1.353 . S
N626 Co591 2.145 1_554 S
N626 C627 1.397 . S
N626 C628 1.334 . S
C627 H608 0.929 . S
C627 C624 1.388 . S
C627 N626 1.397 . S
C628 H609 0.929 1_455 S
C628 C625 1.404 . S
C628 N626 1.334 . S
C629 H621 0.930 . S
C629 C624 1.418 . S
C629 C625 1.353 . S
C630 H600 0.930 . S
C630 N631 1.330 . S
C630 C632 1.446 . S
N631 Co590 2.151 . S
N631 C630 1.330 . S
N631 C635 1.418 . S
C632 H611 0.929 . S
C632 C630 1.446 . S
C632 C633 1.332 . S
C633 H613 0.931 . S
C633 C632 1.332 . S
C633 C634 1.267 . S
C634 H602 0.929 . S
C634 C633 1.267 . S
C634 C635 1.251 . S
C635 H605 0.929 . S
C635 N631 1.418 . S
C635 C634 1.251 . S
C636 H603 0.930 . S
C636 C638 1.406 . S
C636 C641 1.261 . S
C637 H604 0.930 . S
C637 N639 1.325 . S
C637 C640 1.357 . S
C638 H606 0.928 . S
C638 C636 1.406 . S
C638 N639 1.261 . S
N639 Co590 2.214 . S
N639 C637 1.325 . S
N639 C638 1.261 . S
C640 H610 0.931 . S
C640 C637 1.357 . S
C640 C641 1.312 . S
C641 H612 0.930 . S
C641 C636 1.261 . S
C641 C640 1.312 . S
C642 O614 1.214 . S
C642 O622 1.234 . S
C643 H615 0.929 . S
C643 C646 1.391 . S
C643 C648 1.391 . S
C644 H616 0.929 1_656 S
C644 C645 1.390 . S
C644 N647 1.391 . S
C645 H617 0.930 . S
C645 C644 1.390 . S
C645 C646 1.392 . S
C646 H618 0.929 . S
C646 C643 1.391 . S
C646 C645 1.392 . S
N647 Co591 2.257 1_655 S
N647 C644 1.391 . S
N647 C648 1.388 . S
C648 H619 0.930 . S
C648 C643 1.391 . S
C648 N647 1.388 . S
Co649 O651 2.143 . S
Co649 O657 2.074 . S
Co649 O660 2.093 . S
Co649 O673 2.097 . S
Co649 N690 2.151 . S
Co649 N698 2.214 . S
Co650 O651 2.160 . S
Co650 O656 2.058 . S
Co650 O666 2.057 . S
Co650 O681 2.037 . S
Co650 N685 2.145 1_556 S
Co650 N706 2.257 1_545 S
O651 Co649 2.143 . S
O651 Co650 2.160 . S
C652 O653 1.278 . S
C652 O660 1.224 . S
O653 C652 1.278 . S
C654 O655 1.245 . S
C654 O666 1.232 . S
O655 C654 1.245 . S
O656 Co650 2.058 . S
O656 C682 1.269 . S
O657 Co649 2.074 . S
O657 C682 1.257 . S
H658 C683 0.930 . S
H659 C689 0.930 . S
O660 Co649 2.093 . S
O660 C652 1.224 . S
H661 C693 0.929 . S
H662 C695 0.930 . S
H663 C696 0.930 . S
H664 C694 0.929 . S
H665 C697 0.928 . S
O666 Co650 2.057 . S
O666 C654 1.232 . S
H667 C686 0.929 . S
H668 C687 0.929 1_565 S
H669 C699 0.931 . S
H670 C691 0.929 . S
H671 C700 0.930 . S
H672 C692 0.931 . S
O673 Co649 2.097 . S
O673 C701 1.214 . S
H674 C702 0.929 . S
H675 C703 0.929 1_544 S
H676 C704 0.930 . S
H677 C705 0.929 . S
H678 C707 0.930 . S
H679 C684 0.930 1_565 S
H680 C688 0.930 . S
O681 Co650 2.037 . S
O681 C701 1.234 . S
C682 O656 1.269 . S
C682 O657 1.257 . S
C683 H658 0.930 . S
C683 C686 1.388 . S
C683 C688 1.418 . S
C684 H679 0.930 1_545 S
C684 C687 1.404 . S
C684 C688 1.353 . S
N685 Co650 2.145 1_554 S
N685 C686 1.397 . S
N685 C687 1.334 . S
C686 H667 0.929 . S
C686 C683 1.388 . S
C686 N685 1.397 . S
C687 H668 0.929 1_545 S
C687 C684 1.404 . S
C687 N685 1.334 . S
C688 H680 0.930 . S
C688 C683 1.418 . S
C688 C684 1.353 . S
C689 H659 0.930 . S
C689 N690 1.330 . S
C689 C691 1.446 . S
N690 Co649 2.151 . S
N690 C689 1.330 . S
N690 C694 1.418 . S
C691 H670 0.929 . S
C691 C689 1.446 . S
C691 C692 1.332 . S
C692 H672 0.931 . S
C692 C691 1.332 . S
C692 C693 1.267 . S
C693 H661 0.929 . S
C693 C692 1.267 . S
C693 C694 1.251 . S
C694 H664 0.929 . S
C694 N690 1.418 . S
C694 C693 1.251 . S
C695 H662 0.930 . S
C695 C697 1.406 . S
C695 C700 1.261 . S
C696 H663 0.930 . S
C696 N698 1.325 . S
C696 C699 1.357 . S
C697 H665 0.928 . S
C697 C695 1.406 . S
C697 N698 1.261 . S
N698 Co649 2.214 . S
N698 C696 1.325 . S
N698 C697 1.261 . S
C699 H669 0.931 . S
C699 C696 1.357 . S
C699 C700 1.312 . S
C700 H671 0.930 . S
C700 C695 1.261 . S
C700 C699 1.312 . S
C701 O673 1.214 . S
C701 O681 1.234 . S
C702 H674 0.929 . S
C702 C705 1.391 . S
C702 C707 1.391 . S
C703 H675 0.929 1_566 S
C703 C704 1.390 . S
C703 N706 1.391 . S
C704 H676 0.930 . S
C704 C703 1.390 . S
C704 C705 1.392 . S
C705 H677 0.929 . S
C705 C702 1.391 . S
C705 C704 1.392 . S
N706 Co650 2.257 1_565 S
N706 C703 1.391 . S
N706 C707 1.388 . S
C707 H678 0.930 . S
C707 C702 1.391 . S
C707 N706 1.388 . S
Co708 O710 2.143 . S
Co708 O716 2.074 . S
Co708 O719 2.093 . S
Co708 O732 2.097 . S
Co708 N749 2.151 . S
Co708 N757 2.214 . S
Co709 O710 2.160 . S
Co709 O715 2.058 . S
Co709 O725 2.057 . S
Co709 O740 2.037 . S
Co709 N744 2.145 . S
Co709 N765 2.257 . S
O710 Co708 2.143 . S
O710 Co709 2.160 . S
C711 O712 1.278 . S
C711 O719 1.224 . S
O712 C711 1.278 . S
C713 O714 1.245 . S
C713 O725 1.232 . S
O714 C713 1.245 . S
O715 Co709 2.058 . S
O715 C741 1.269 . S
O716 Co708 2.074 . S
O716 C741 1.257 . S
H717 C742 0.930 . S
H718 C748 0.930 . S
O719 Co708 2.093 . S
O719 C711 1.224 . S
H720 C752 0.929 . S
H721 C754 0.930 . S
H722 C755 0.930 . S
H723 C753 0.929 . S
H724 C756 0.928 . S
O725 Co709 2.057 . S
O725 C713 1.232 . S
H726 C745 0.929 . S
H727 C746 0.929 . S
H728 C758 0.931 . S
H729 C750 0.929 . S
H730 C759 0.930 . S
H731 C751 0.931 . S
O732 Co708 2.097 . S
O732 C760 1.214 . S
H733 C761 0.929 . S
H734 C762 0.929 . S
H735 C763 0.930 . S
H736 C764 0.929 . S
H737 C766 0.930 . S
H738 C743 0.930 . S
H739 C747 0.930 . S
O740 Co709 2.037 . S
O740 C760 1.234 . S
C741 O715 1.269 . S
C741 O716 1.257 . S
C742 H717 0.930 . S
C742 C745 1.388 . S
C742 C747 1.418 . S
C743 H738 0.930 . S
C743 C746 1.404 . S
C743 C747 1.353 . S
N744 Co709 2.145 . S
N744 C745 1.397 . S
N744 C746 1.334 . S
C745 H726 0.929 . S
C745 C742 1.388 . S
C745 N744 1.397 . S
C746 H727 0.929 . S
C746 C743 1.404 . S
C746 N744 1.334 . S
C747 H739 0.930 . S
C747 C742 1.418 . S
C747 C743 1.353 . S
C748 H718 0.930 . S
C748 N749 1.330 . S
C748 C750 1.446 . S
N749 Co708 2.151 . S
N749 C748 1.330 . S
N749 C753 1.418 . S
C750 H729 0.929 . S
C750 C748 1.446 . S
C750 C751 1.332 . S
C751 H731 0.931 . S
C751 C750 1.332 . S
C751 C752 1.267 . S
C752 H720 0.929 . S
C752 C751 1.267 . S
C752 C753 1.251 . S
C753 H723 0.929 . S
C753 N749 1.418 . S
C753 C752 1.251 . S
C754 H721 0.930 . S
C754 C756 1.406 . S
C754 C759 1.261 . S
C755 H722 0.930 . S
C755 N757 1.325 . S
C755 C758 1.357 . S
C756 H724 0.928 . S
C756 C754 1.406 . S
C756 N757 1.261 . S
N757 Co708 2.214 . S
N757 C755 1.325 . S
N757 C756 1.261 . S
C758 H728 0.931 . S
C758 C755 1.357 . S
C758 C759 1.312 . S
C759 H730 0.930 . S
C759 C754 1.261 . S
C759 C758 1.312 . S
C760 O732 1.214 . S
C760 O740 1.234 . S
C761 H733 0.929 . S
C761 C764 1.391 . S
C761 C766 1.391 . S
C762 H734 0.929 . S
C762 C763 1.390 . S
C762 N765 1.391 . S
C763 H735 0.930 . S
C763 C762 1.390 . S
C763 C764 1.392 . S
C764 H736 0.929 . S
C764 C761 1.391 . S
C764 C763 1.392 . S
N765 Co709 2.257 . S
N765 C762 1.391 . S
N765 C766 1.388 . S
C766 H737 0.930 . S
C766 C761 1.391 . S
C766 N765 1.388 . S
Co767 O769 2.143 . S
Co767 O775 2.074 . S
Co767 O778 2.093 . S
Co767 O791 2.097 . S
Co767 N808 2.151 . S
Co767 N816 2.214 . S
Co768 O769 2.160 . S
Co768 O774 2.058 . S
Co768 O784 2.057 . S
Co768 O799 2.037 . S
Co768 N803 2.145 . S
Co768 N824 2.257 . S
O769 Co767 2.143 . S
O769 Co768 2.160 . S
C770 O771 1.278 . S
C770 O778 1.224 . S
O771 C770 1.278 . S
C772 O773 1.245 . S
C772 O784 1.232 . S
O773 C772 1.245 . S
O774 Co768 2.058 . S
O774 C800 1.269 . S
O775 Co767 2.074 . S
O775 C800 1.257 . S
H776 C801 0.930 . S
H777 C807 0.930 . S
O778 Co767 2.093 . S
O778 C770 1.224 . S
H779 C811 0.929 . S
H780 C813 0.930 . S
H781 C814 0.930 . S
H782 C812 0.929 . S
H783 C815 0.928 . S
O784 Co768 2.057 . S
O784 C772 1.232 . S
H785 C804 0.929 . S
H786 C805 0.929 . S
H787 C817 0.931 . S
H788 C809 0.929 . S
H789 C818 0.930 . S
H790 C810 0.931 . S
O791 Co767 2.097 . S
O791 C819 1.214 . S
H792 C820 0.929 . S
H793 C821 0.929 . S
H794 C822 0.930 . S
H795 C823 0.929 . S
H796 C825 0.930 . S
H797 C802 0.930 . S
H798 C806 0.930 . S
O799 Co768 2.037 . S
O799 C819 1.234 . S
C800 O774 1.269 . S
C800 O775 1.257 . S
C801 H776 0.930 . S
C801 C804 1.388 . S
C801 C806 1.418 . S
C802 H797 0.930 . S
C802 C805 1.404 . S
C802 C806 1.353 . S
N803 Co768 2.145 . S
N803 C804 1.397 . S
N803 C805 1.334 . S
C804 H785 0.929 . S
C804 C801 1.388 . S
C804 N803 1.397 . S
C805 H786 0.929 . S
C805 C802 1.404 . S
C805 N803 1.334 . S
C806 H798 0.930 . S
C806 C801 1.418 . S
C806 C802 1.353 . S
C807 H777 0.930 . S
C807 N808 1.330 . S
C807 C809 1.446 . S
N808 Co767 2.151 . S
N808 C807 1.330 . S
N808 C812 1.418 . S
C809 H788 0.929 . S
C809 C807 1.446 . S
C809 C810 1.332 . S
C810 H790 0.931 . S
C810 C809 1.332 . S
C810 C811 1.267 . S
C811 H779 0.929 . S
C811 C810 1.267 . S
C811 C812 1.251 . S
C812 H782 0.929 . S
C812 N808 1.418 . S
C812 C811 1.251 . S
C813 H780 0.930 . S
C813 C815 1.406 . S
C813 C818 1.261 . S
C814 H781 0.930 . S
C814 N816 1.325 . S
C814 C817 1.357 . S
C815 H783 0.928 . S
C815 C813 1.406 . S
C815 N816 1.261 . S
N816 Co767 2.214 . S
N816 C814 1.325 . S
N816 C815 1.261 . S
C817 H787 0.931 . S
C817 C814 1.357 . S
C817 C818 1.312 . S
C818 H789 0.930 . S
C818 C813 1.261 . S
C818 C817 1.312 . S
C819 O791 1.214 . S
C819 O799 1.234 . S
C820 H792 0.929 . S
C820 C823 1.391 . S
C820 C825 1.391 . S
C821 H793 0.929 . S
C821 C822 1.390 . S
C821 N824 1.391 . S
C822 H794 0.930 . S
C822 C821 1.390 . S
C822 C823 1.392 . S
C823 H795 0.929 . S
C823 C820 1.391 . S
C823 C822 1.392 . S
N824 Co768 2.257 . S
N824 C821 1.391 . S
N824 C825 1.388 . S
C825 H796 0.930 . S
C825 C820 1.391 . S
C825 N824 1.388 . S
Co826 O828 2.143 . S
Co826 O834 2.074 . S
Co826 O837 2.093 . S
Co826 O850 2.097 . S
Co826 N867 2.151 . S
Co826 N875 2.214 . S
Co827 O828 2.160 . S
Co827 O833 2.058 . S
Co827 O843 2.057 . S
Co827 O858 2.037 . S
Co827 N862 2.145 . S
Co827 N883 2.257 1_455 S
O828 Co826 2.143 . S
O828 Co827 2.160 . S
C829 O830 1.278 . S
C829 O837 1.224 . S
O830 C829 1.278 . S
C831 O832 1.245 . S
C831 O843 1.232 . S
O832 C831 1.245 . S
O833 Co827 2.058 . S
O833 C859 1.269 . S
O834 Co826 2.074 . S
O834 C859 1.257 . S
H835 C860 0.930 . S
H836 C866 0.930 . S
O837 Co826 2.093 . S
O837 C829 1.224 . S
H838 C870 0.929 . S
H839 C872 0.930 . S
H840 C873 0.930 . S
H841 C871 0.929 . S
H842 C874 0.928 . S
O843 Co827 2.057 . S
O843 C831 1.232 . S
H844 C863 0.929 . S
H845 C864 0.929 1_655 S
H846 C876 0.931 . S
H847 C868 0.929 . S
H848 C877 0.930 . S
H849 C869 0.931 . S
O850 Co826 2.097 . S
O850 C878 1.214 . S
H851 C879 0.929 . S
H852 C880 0.929 1_455 S
H853 C881 0.930 . S
H854 C882 0.929 . S
H855 C884 0.930 . S
H856 C861 0.930 1_655 S
H857 C865 0.930 . S
O858 Co827 2.037 . S
O858 C878 1.234 . S
C859 O833 1.269 . S
C859 O834 1.257 . S
C860 H835 0.930 . S
C860 C863 1.388 . S
C860 C865 1.418 . S
C861 H856 0.930 1_455 S
C861 C864 1.404 . S
C861 C865 1.353 . S
N862 Co827 2.145 . S
N862 C863 1.397 . S
N862 C864 1.334 . S
C863 H844 0.929 . S
C863 C860 1.388 . S
C863 N862 1.397 . S
C864 H845 0.929 1_455 S
C864 C861 1.404 . S
C864 N862 1.334 . S
C865 H857 0.930 . S
C865 C860 1.418 . S
C865 C861 1.353 . S
C866 H836 0.930 . S
C866 N867 1.330 . S
C866 C868 1.446 . S
N867 Co826 2.151 . S
N867 C866 1.330 . S
N867 C871 1.418 . S
C868 H847 0.929 . S
C868 C866 1.446 . S
C868 C869 1.332 . S
C869 H849 0.931 . S
C869 C868 1.332 . S
C869 C870 1.267 . S
C870 H838 0.929 . S
C870 C869 1.267 . S
C870 C871 1.251 . S
C871 H841 0.929 . S
C871 N867 1.418 . S
C871 C870 1.251 . S
C872 H839 0.930 . S
C872 C874 1.406 . S
C872 C877 1.261 . S
C873 H840 0.930 . S
C873 N875 1.325 . S
C873 C876 1.357 . S
C874 H842 0.928 . S
C874 C872 1.406 . S
C874 N875 1.261 . S
N875 Co826 2.214 . S
N875 C873 1.325 . S
N875 C874 1.261 . S
C876 H846 0.931 . S
C876 C873 1.357 . S
C876 C877 1.312 . S
C877 H848 0.930 . S
C877 C872 1.261 . S
C877 C876 1.312 . S
C878 O850 1.214 . S
C878 O858 1.234 . S
C879 H851 0.929 . S
C879 C882 1.391 . S
C879 C884 1.391 . S
C880 H852 0.929 1_655 S
C880 C881 1.390 . S
C880 N883 1.391 . S
C881 H853 0.930 . S
C881 C880 1.390 . S
C881 C882 1.392 . S
C882 H854 0.929 . S
C882 C879 1.391 . S
C882 C881 1.392 . S
N883 Co827 2.257 1_655 S
N883 C880 1.391 . S
N883 C884 1.388 . S
C884 H855 0.930 . S
C884 C879 1.391 . S
C884 N883 1.388 . S
Co885 O887 2.143 . S
Co885 O893 2.074 . S
Co885 O896 2.093 . S
Co885 O909 2.097 . S
Co885 N926 2.151 . S
Co885 N934 2.214 . S
Co886 O887 2.160 . S
Co886 O892 2.058 . S
Co886 O902 2.057 . S
Co886 O917 2.037 . S
Co886 N921 2.145 . S
Co886 N942 2.257 1_545 S
O887 Co885 2.143 . S
O887 Co886 2.160 . S
C888 O889 1.278 . S
C888 O896 1.224 . S
O889 C888 1.278 . S
C890 O891 1.245 . S
C890 O902 1.232 . S
O891 C890 1.245 . S
O892 Co886 2.058 . S
O892 C918 1.269 . S
O893 Co885 2.074 . S
O893 C918 1.257 . S
H894 C919 0.930 . S
H895 C925 0.930 . S
O896 Co885 2.093 . S
O896 C888 1.224 . S
H897 C929 0.929 . S
H898 C931 0.930 . S
H899 C932 0.930 . S
H900 C930 0.929 . S
H901 C933 0.928 . S
O902 Co886 2.057 . S
O902 C890 1.232 . S
H903 C922 0.929 . S
H904 C923 0.929 1_565 S
H905 C935 0.931 . S
H906 C927 0.929 . S
H907 C936 0.930 . S
H908 C928 0.931 . S
O909 Co885 2.097 . S
O909 C937 1.214 . S
H910 C938 0.929 . S
H911 C939 0.929 1_545 S
H912 C940 0.930 . S
H913 C941 0.929 . S
H914 C943 0.930 . S
H915 C920 0.930 1_565 S
H916 C924 0.930 . S
O917 Co886 2.037 . S
O917 C937 1.234 . S
C918 O892 1.269 . S
C918 O893 1.257 . S
C919 H894 0.930 . S
C919 C922 1.388 . S
C919 C924 1.418 . S
C920 H915 0.930 1_545 S
C920 C923 1.404 . S
C920 C924 1.353 . S
N921 Co886 2.145 . S
N921 C922 1.397 . S
N921 C923 1.334 . S
C922 H903 0.929 . S
C922 C919 1.388 . S
C922 N921 1.397 . S
C923 H904 0.929 1_545 S
C923 C920 1.404 . S
C923 N921 1.334 . S
C924 H916 0.930 . S
C924 C919 1.418 . S
C924 C920 1.353 . S
C925 H895 0.930 . S
C925 N926 1.330 . S
C925 C927 1.446 . S
N926 Co885 2.151 . S
N926 C925 1.330 . S
N926 C930 1.418 . S
C927 H906 0.929 . S
C927 C925 1.446 . S
C927 C928 1.332 . S
C928 H908 0.931 . S
C928 C927 1.332 . S
C928 C929 1.267 . S
C929 H897 0.929 . S
C929 C928 1.267 . S
C929 C930 1.251 . S
C930 H900 0.929 . S
C930 N926 1.418 . S
C930 C929 1.251 . S
C931 H898 0.930 . S
C931 C933 1.406 . S
C931 C936 1.261 . S
C932 H899 0.930 . S
C932 N934 1.325 . S
C932 C935 1.357 . S
C933 H901 0.928 . S
C933 C931 1.406 . S
C933 N934 1.261 . S
N934 Co885 2.214 . S
N934 C932 1.325 . S
N934 C933 1.261 . S
C935 H905 0.931 . S
C935 C932 1.357 . S
C935 C936 1.312 . S
C936 H907 0.930 . S
C936 C931 1.261 . S
C936 C935 1.312 . S
C937 O909 1.214 . S
C937 O917 1.234 . S
C938 H910 0.929 . S
C938 C941 1.391 . S
C938 C943 1.391 . S
C939 H911 0.929 1_565 S
C939 C940 1.390 . S
C939 N942 1.391 . S
C940 H912 0.930 . S
C940 C939 1.390 . S
C940 C941 1.392 . S
C941 H913 0.929 . S
C941 C938 1.391 . S
C941 C940 1.392 . S
N942 Co886 2.257 1_565 S
N942 C939 1.391 . S
N942 C943 1.388 . S
C943 H914 0.930 . S
C943 C938 1.391 . S
C943 N942 1.388 . S
H944 C952 0.950 . S
H945 C957 0.950 . S
H946 C954 0.950 . S
H947 C956 0.951 . S
H948 C958 0.950 . S
H949 C960 0.950 . S
H950 C962 0.950 . S
H951 C963 0.950 1_554 S
C952 H944 0.950 . S
C952 C953 1.386 . S
C952 C954 1.391 . S
C953 C952 1.386 . S
C953 C957 1.393 . S
C954 H946 0.950 . S
C954 C952 1.391 . S
C954 C955 1.400 . S
C955 C954 1.400 . S
C955 C956 1.398 1_554 S
C955 C961 1.491 1_554 S
C956 H947 0.951 . S
C956 C955 1.398 1_556 S
C956 C957 1.390 1_556 S
C957 H945 0.950 . S
C957 C953 1.393 . S
C957 C956 1.390 1_554 S
C958 H948 0.950 . S
C958 C959 1.386 . S
C958 C960 1.391 . S
C959 C958 1.386 . S
C959 C963 1.393 . S
C960 H949 0.950 . S
C960 C958 1.391 . S
C960 C961 1.400 . S
C961 C955 1.491 1_556 S
C961 C960 1.400 . S
C961 C962 1.398 1_556 S
C962 H950 0.950 . S
C962 C961 1.398 1_554 S
C962 C963 1.391 1_554 S
C963 H951 0.950 1_556 S
C963 C959 1.393 . S
C963 C962 1.391 1_556 S
H964 C972 0.950 . S
H965 C977 0.950 . S
H966 C974 0.950 . S
H967 C976 0.950 . S
H968 C978 0.950 . S
H969 C980 0.950 . S
H970 C982 0.950 . S
H971 C983 0.950 . S
C972 H964 0.950 . S
C972 C973 1.386 1_554 S
C972 C974 1.391 . S
C973 C972 1.386 1_556 S
C973 C977 1.393 . S
C974 H966 0.950 . S
C974 C972 1.391 . S
C974 C975 1.400 1_554 S
C975 C974 1.400 1_556 S
C975 C976 1.398 . S
C975 C981 1.491 1_556 S
C976 H967 0.950 . S
C976 C975 1.398 . S
C976 C977 1.391 . S
C977 H965 0.950 . S
C977 C973 1.393 . S
C977 C976 1.391 . S
C978 H968 0.950 . S
C978 C979 1.386 1_556 S
C978 C980 1.391 . S
C979 C978 1.386 1_554 S
C979 C983 1.393 . S
C980 H969 0.950 . S
C980 C978 1.391 . S
C980 C981 1.400 1_556 S
C981 C975 1.491 1_554 S
C981 C980 1.400 1_554 S
C981 C982 1.398 . S
C982 H970 0.950 . S
C982 C981 1.398 . S
C982 C983 1.391 . S
C983 H971 0.950 . S
C983 C979 1.393 . S
C983 C982 1.391 . S
H984 C992 0.944 1_554 S
H985 C997 0.950 . S
H986 C994 0.950 . S
H987 C996 0.950 . S
H988 C998 0.950 1_556 S
H989 C1000 0.950 . S
H990 C1002 0.950 . S
H991 C1003 0.950 . S
C992 H984 0.944 1_556 S
C992 C993 1.396 . S
C992 C994 1.387 1_556 S
C993 C992 1.396 . S
C993 C997 1.393 . S
C994 H986 0.950 . S
C994 C992 1.387 1_554 S
C994 C995 1.400 1_554 S
C995 C994 1.400 1_556 S
C995 C996 1.398 . S
C995 C1001 1.491 1_556 S
C996 H987 0.950 . S
C996 C995 1.398 . S
C996 C997 1.391 . S
C997 H985 0.950 . S
C997 C993 1.393 . S
C997 C996 1.391 . S
C998 H988 0.950 1_554 S
C998 C999 1.386 . S
C998 C1000 1.391 1_554 S
C999 C998 1.386 . S
C999 C1003 1.393 . S
C1000 H989 0.950 . S
C1000 C998 1.391 1_556 S
C1000 C1001 1.400 1_556 S
C1001 C995 1.491 1_554 S
C1001 C1000 1.400 1_554 S
C1001 C1002 1.398 . S
C1002 H990 0.950 . S
C1002 C1001 1.398 . S
C1002 C1003 1.391 . S
C1003 H991 0.950 . S
C1003 C999 1.393 . S
C1003 C1002 1.391 . S
H1004 C1012 0.950 . S
H1005 C1017 0.950 . S
H1006 C1014 0.950 . S
H1007 C1016 0.950 . S
H1008 C1018 0.950 . S
H1009 C1020 0.950 . S
H1010 C1022 0.938 1_556 S
H1011 C1023 0.950 . S
C1012 H1004 0.950 . S
C1012 C1013 1.386 . S
C1012 C1014 1.391 . S
C1013 C1012 1.386 . S
C1013 C1017 1.393 . S
C1014 H1006 0.950 . S
C1014 C1012 1.391 . S
C1014 C1015 1.400 . S
C1015 C1014 1.400 . S
C1015 C1016 1.398 1_556 S
C1015 C1021 1.491 1_556 S
C1016 H1007 0.950 . S
C1016 C1015 1.398 1_554 S
C1016 C1017 1.391 1_554 S
C1017 H1005 0.950 . S
C1017 C1013 1.393 . S
C1017 C1016 1.391 1_556 S
C1018 H1008 0.950 . S
C1018 C1019 1.386 . S
C1018 C1020 1.391 . S
C1019 C1018 1.386 . S
C1019 C1023 1.393 . S
C1020 H1009 0.950 . S
C1020 C1018 1.391 . S
C1020 C1021 1.400 . S
C1021 C1015 1.491 1_554 S
C1021 C1020 1.400 . S
C1021 C1022 1.403 . S
C1022 H1010 0.938 1_554 S
C1022 C1021 1.403 . S
C1022 C1023 1.398 . S
C1023 H1011 0.950 . S
C1023 C1019 1.393 . S
C1023 C1022 1.398 . S
H1024 C1032 0.950 . S
H1025 C1037 0.950 . S
H1026 C1034 0.950 . S
H1027 C1036 0.950 . S
H1028 C1038 0.950 . S
H1029 C1040 0.950 . S
H1030 C1042 0.950 . S
H1031 C1043 0.950 . S
C1032 H1024 0.950 . S
C1032 C1033 1.386 . S
C1032 C1034 1.391 . S
C1033 C1032 1.386 . S
C1033 C1037 1.393 . S
C1034 H1026 0.950 . S
C1034 C1032 1.391 . S
C1034 C1035 1.400 . S
C1035 C1034 1.400 . S
C1035 C1036 1.398 . S
C1035 C1041 1.491 . S
C1036 H1027 0.950 . S
C1036 C1035 1.398 . S
C1036 C1037 1.391 . S
C1037 H1025 0.950 . S
C1037 C1033 1.393 . S
C1037 C1036 1.391 . S
C1038 H1028 0.950 . S
C1038 C1039 1.386 . S
C1038 C1040 1.391 . S
C1039 C1038 1.386 . S
C1039 C1043 1.393 . S
C1040 H1029 0.950 . S
C1040 C1038 1.391 . S
C1040 C1041 1.400 . S
C1041 C1035 1.491 . S
C1041 C1040 1.400 . S
C1041 C1042 1.398 . S
C1042 H1030 0.950 . S
C1042 C1041 1.398 . S
C1042 C1043 1.391 . S
C1043 H1031 0.950 . S
C1043 C1039 1.393 . S
C1043 C1042 1.391 . S
H1044 C1052 0.950 . S
H1045 C1057 0.950 . S
H1046 C1054 0.950 . S
H1047 C1056 0.950 . S
H1048 C1058 0.950 . S
H1049 C1060 0.950 . S
H1050 C1062 0.950 . S
H1051 C1063 0.950 . S
C1052 H1044 0.950 . S
C1052 C1053 1.386 . S
C1052 C1054 1.391 . S
C1053 C1052 1.386 . S
C1053 C1057 1.393 . S
C1054 H1046 0.950 . S
C1054 C1052 1.391 . S
C1054 C1055 1.400 . S
C1055 C1054 1.400 . S
C1055 C1056 1.398 . S
C1055 C1061 1.491 . S
C1056 H1047 0.950 . S
C1056 C1055 1.398 . S
C1056 C1057 1.391 . S
C1057 H1045 0.950 . S
C1057 C1053 1.393 . S
C1057 C1056 1.391 . S
C1058 H1048 0.950 . S
C1058 C1059 1.386 . S
C1058 C1060 1.391 . S
C1059 C1058 1.386 . S
C1059 C1063 1.393 . S
C1060 H1049 0.950 . S
C1060 C1058 1.391 . S
C1060 C1061 1.400 . S
C1061 C1055 1.491 . S
C1061 C1060 1.400 . S
C1061 C1062 1.398 . S
C1062 H1050 0.950 . S
C1062 C1061 1.398 . S
C1062 C1063 1.391 . S
C1063 H1051 0.950 . S
C1063 C1059 1.393 . S
C1063 C1062 1.391 . S
H1064 C1072 0.950 . S
H1065 C1077 0.950 . S
H1066 C1074 0.950 . S
H1067 C1076 0.950 . S
H1068 C1078 0.950 . S
H1069 C1080 0.950 . S
H1070 C1082 0.950 . S
H1071 C1083 0.950 . S
C1072 H1064 0.950 . S
C1072 C1073 1.386 . S
C1072 C1074 1.391 . S
C1073 C1072 1.386 . S
C1073 C1077 1.393 . S
C1074 H1066 0.950 . S
C1074 C1072 1.391 . S
C1074 C1075 1.400 . S
C1075 C1074 1.400 . S
C1075 C1076 1.398 . S
C1075 C1081 1.491 . S
C1076 H1067 0.950 . S
C1076 C1075 1.398 . S
C1076 C1077 1.391 . S
C1077 H1065 0.950 . S
C1077 C1073 1.393 . S
C1077 C1076 1.391 . S
C1078 H1068 0.950 . S
C1078 C1079 1.386 . S
C1078 C1080 1.391 . S
C1079 C1078 1.386 . S
C1079 C1083 1.393 . S
C1080 H1069 0.950 . S
C1080 C1078 1.391 . S
C1080 C1081 1.400 . S
C1081 C1075 1.491 . S
C1081 C1080 1.400 . S
C1081 C1082 1.398 . S
C1082 H1070 0.950 . S
C1082 C1081 1.398 . S
C1082 C1083 1.391 . S
C1083 H1071 0.950 . S
C1083 C1079 1.393 . S
C1083 C1082 1.391 . S
H1084 C1092 0.950 . S
H1085 C1097 0.950 . S
H1086 C1094 0.950 . S
H1087 C1096 0.950 . S
H1088 C1098 0.950 . S
H1089 C1100 0.950 . S
H1090 C1102 0.950 . S
H1091 C1103 0.950 . S
C1092 H1084 0.950 . S
C1092 C1093 1.386 . S
C1092 C1094 1.391 . S
C1093 C1092 1.386 . S
C1093 C1097 1.393 . S
C1094 H1086 0.950 . S
C1094 C1092 1.391 . S
C1094 C1095 1.400 . S
C1095 C1094 1.400 . S
C1095 C1096 1.398 . S
C1095 C1101 1.491 . S
C1096 H1087 0.950 . S
C1096 C1095 1.398 . S
C1096 C1097 1.391 . S
C1097 H1085 0.950 . S
C1097 C1093 1.393 . S
C1097 C1096 1.391 . S
C1098 H1088 0.950 . S
C1098 C1099 1.386 . S
C1098 C1100 1.391 . S
C1099 C1098 1.386 . S
C1099 C1103 1.393 . S
C1100 H1089 0.950 . S
C1100 C1098 1.391 . S
C1100 C1101 1.400 . S
C1101 C1095 1.491 . S
C1101 C1100 1.400 . S
C1101 C1102 1.398 . S
C1102 H1090 0.950 . S
C1102 C1101 1.398 . S
C1102 C1103 1.391 . S
C1103 H1091 0.950 . S
C1103 C1099 1.393 . S
C1103 C1102 1.391 . S
H1104 C1112 0.950 . S
H1105 C1117 0.950 . S
H1106 C1114 0.950 . S
H1107 C1116 0.950 . S
H1108 C1118 0.950 . S
H1109 C1120 0.950 . S
H1110 C1122 0.950 . S
H1111 C1123 0.950 . S
C1112 H1104 0.950 . S
C1112 C1113 1.386 . S
C1112 C1114 1.391 . S
C1113 C1112 1.386 . S
C1113 C1117 1.393 1_556 S
C1114 H1106 0.950 . S
C1114 C1112 1.391 . S
C1114 C1115 1.400 . S
C1115 C1114 1.400 . S
C1115 C1116 1.398 1_556 S
C1115 C1121 1.491 1_556 S
C1116 H1107 0.950 . S
C1116 C1115 1.398 1_554 S
C1116 C1117 1.391 . S
C1117 H1105 0.950 . S
C1117 C1113 1.393 1_554 S
C1117 C1116 1.391 . S
C1118 H1108 0.950 . S
C1118 C1119 1.386 . S
C1118 C1120 1.391 . S
C1119 C1118 1.386 . S
C1119 C1123 1.393 1_554 S
C1120 H1109 0.950 . S
C1120 C1118 1.391 . S
C1120 C1121 1.400 . S
C1121 C1115 1.491 1_554 S
C1121 C1120 1.400 . S
C1121 C1122 1.398 1_554 S
C1122 H1110 0.950 . S
C1122 C1121 1.398 1_556 S
C1122 C1123 1.391 . S
C1123 H1111 0.950 . S
C1123 C1119 1.393 1_556 S
C1123 C1122 1.391 . S
H1124 C1132 0.950 . S
H1125 C1137 0.950 . S
H1126 C1134 0.950 . S
H1127 C1136 0.950 . S
H1128 C1138 0.950 . S
H1129 C1140 0.950 . S
H1130 C1142 0.950 1_556 S
H1131 C1143 0.950 . S
C1132 H1124 0.950 . S
C1132 C1133 1.386 . S
C1132 C1134 1.391 . S
C1133 C1132 1.386 . S
C1133 C1137 1.393 . S
C1134 H1126 0.950 . S
C1134 C1132 1.391 . S
C1134 C1135 1.400 . S
C1135 C1134 1.400 . S
C1135 C1136 1.398 . S
C1135 C1141 1.491 1_556 S
C1136 H1127 0.950 . S
C1136 C1135 1.398 . S
C1136 C1137 1.391 . S
C1137 H1125 0.950 . S
C1137 C1133 1.393 . S
C1137 C1136 1.391 . S
C1138 H1128 0.950 . S
C1138 C1139 1.386 . S
C1138 C1140 1.391 . S
C1139 C1138 1.386 . S
C1139 C1143 1.393 . S
C1140 H1129 0.950 . S
C1140 C1138 1.391 . S
C1140 C1141 1.400 . S
C1141 C1135 1.491 1_554 S
C1141 C1140 1.400 . S
C1141 C1142 1.398 . S
C1142 H1130 0.950 1_554 S
C1142 C1141 1.398 . S
C1142 C1143 1.391 . S
C1143 H1131 0.950 . S
C1143 C1139 1.393 . S
C1143 C1142 1.391 . S
H1144 C1152 0.950 . S
H1145 C1157 0.950 . S
H1146 C1154 0.950 . S
H1147 C1156 0.950 . S
H1148 C1158 0.950 . S
H1149 C1160 0.950 . S
H1150 C1162 0.950 . S
H1151 C1163 0.950 . S
C1152 H1144 0.950 . S
C1152 C1153 1.386 1_554 S
C1152 C1154 1.391 . S
C1153 C1152 1.386 1_556 S
C1153 C1157 1.393 . S
C1154 H1146 0.950 . S
C1154 C1152 1.391 . S
C1154 C1155 1.400 1_554 S
C1155 C1154 1.400 1_556 S
C1155 C1156 1.398 . S
C1155 C1161 1.491 1_556 S
C1156 H1147 0.950 . S
C1156 C1155 1.398 . S
C1156 C1157 1.391 . S
C1157 H1145 0.950 . S
C1157 C1153 1.393 . S
C1157 C1156 1.391 . S
C1158 H1148 0.950 . S
C1158 C1159 1.386 1_556 S
C1158 C1160 1.391 . S
C1159 C1158 1.386 1_554 S
C1159 C1163 1.393 . S
C1160 H1149 0.950 . S
C1160 C1158 1.391 . S
C1160 C1161 1.400 1_556 S
C1161 C1155 1.491 1_554 S
C1161 C1160 1.400 1_554 S
C1161 C1162 1.398 . S
C1162 H1150 0.950 . S
C1162 C1161 1.398 . S
C1162 C1163 1.391 . S
C1163 H1151 0.950 . S
C1163 C1159 1.393 . S
C1163 C1162 1.391 . S
H1164 C1172 0.950 . S
H1165 C1177 0.950 . S
H1166 C1174 0.950 . S
H1167 C1176 0.950 . S
H1168 C1178 0.950 . S
H1169 C1180 0.950 . S
H1170 C1182 0.950 . S
H1171 C1183 0.950 . S
C1172 H1164 0.950 . S
C1172 C1173 1.386 . S
C1172 C1174 1.391 . S
C1173 C1172 1.386 . S
C1173 C1177 1.393 1_554 S
C1174 H1166 0.950 . S
C1174 C1172 1.391 . S
C1174 C1175 1.400 . S
C1175 C1174 1.400 . S
C1175 C1176 1.398 1_554 S
C1175 C1181 1.491 1_554 S
C1176 H1167 0.950 . S
C1176 C1175 1.398 1_556 S
C1176 C1177 1.391 . S
C1177 H1165 0.950 . S
C1177 C1173 1.393 1_556 S
C1177 C1176 1.391 . S
C1178 H1168 0.950 . S
C1178 C1179 1.386 . S
C1178 C1180 1.391 . S
C1179 C1178 1.386 . S
C1179 C1183 1.393 1_556 S
C1180 H1169 0.950 . S
C1180 C1178 1.391 . S
C1180 C1181 1.400 . S
C1181 C1175 1.491 1_556 S
C1181 C1180 1.400 . S
C1181 C1182 1.398 1_556 S
C1182 H1170 0.950 . S
C1182 C1181 1.398 1_554 S
C1182 C1183 1.391 . S
C1183 H1171 0.950 . S
C1183 C1179 1.393 1_554 S
C1183 C1182 1.391 . S
H1184 C1192 0.950 . S
H1185 C1197 0.950 . S
H1186 C1194 0.950 . S
H1187 C1196 0.950 . S
H1188 C1198 0.950 . S
H1189 C1200 0.950 . S
H1190 C1202 0.950 . S
H1191 C1203 0.950 . S
C1192 H1184 0.950 . S
C1192 C1193 1.386 . S
C1192 C1194 1.391 . S
C1193 C1192 1.386 . S
C1193 C1197 1.393 . S
C1194 H1186 0.950 . S
C1194 C1192 1.391 . S
C1194 C1195 1.400 . S
C1195 C1194 1.400 . S
C1195 C1196 1.398 . S
C1195 C1201 1.491 . S
C1196 H1187 0.950 . S
C1196 C1195 1.398 . S
C1196 C1197 1.391 . S
C1197 H1185 0.950 . S
C1197 C1193 1.393 . S
C1197 C1196 1.391 . S
C1198 H1188 0.950 . S
C1198 C1199 1.386 . S
C1198 C1200 1.391 . S
C1199 C1198 1.386 . S
C1199 C1203 1.393 . S
C1200 H1189 0.950 . S
C1200 C1198 1.391 . S
C1200 C1201 1.400 . S
C1201 C1195 1.491 . S
C1201 C1200 1.400 . S
C1201 C1202 1.398 . S
C1202 H1190 0.950 . S
C1202 C1201 1.398 . S
C1202 C1203 1.391 . S
C1203 H1191 0.950 . S
C1203 C1199 1.393 . S
C1203 C1202 1.391 . S
H1204 C1212 0.950 . S
H1205 C1217 0.950 . S
H1206 C1214 0.950 . S
H1207 C1216 0.950 . S
H1208 C1218 0.950 . S
H1209 C1220 0.950 . S
H1210 C1222 0.950 . S
H1211 C1223 0.950 . S
C1212 H1204 0.950 . S
C1212 C1213 1.386 . S
C1212 C1214 1.391 . S
C1213 C1212 1.386 . S
C1213 C1217 1.393 . S
C1214 H1206 0.950 . S
C1214 C1212 1.391 . S
C1214 C1215 1.400 . S
C1215 C1214 1.400 . S
C1215 C1216 1.398 . S
C1215 C1221 1.491 . S
C1216 H1207 0.950 . S
C1216 C1215 1.398 . S
C1216 C1217 1.391 . S
C1217 H1205 0.950 . S
C1217 C1213 1.393 . S
C1217 C1216 1.391 . S
C1218 H1208 0.950 . S
C1218 C1219 1.386 . S
C1218 C1220 1.391 . S
C1219 C1218 1.386 . S
C1219 C1223 1.393 . S
C1220 H1209 0.950 . S
C1220 C1218 1.391 . S
C1220 C1221 1.400 . S
C1221 C1215 1.491 . S
C1221 C1220 1.400 . S
C1221 C1222 1.398 . S
C1222 H1210 0.950 . S
C1222 C1221 1.398 . S
C1222 C1223 1.391 . S
C1223 H1211 0.950 . S
C1223 C1219 1.393 . S
C1223 C1222 1.391 . S
H1224 C1232 0.950 . S
H1225 C1237 0.950 . S
H1226 C1234 0.950 . S
H1227 C1236 0.950 . S
H1228 C1238 0.950 . S
H1229 C1240 0.950 . S
H1230 C1242 0.950 . S
H1231 C1243 0.950 . S
C1232 H1224 0.950 . S
C1232 C1233 1.386 . S
C1232 C1234 1.391 . S
C1233 C1232 1.386 . S
C1233 C1237 1.393 . S
C1234 H1226 0.950 . S
C1234 C1232 1.391 . S
C1234 C1235 1.400 . S
C1235 C1234 1.400 . S
C1235 C1236 1.398 . S
C1235 C1241 1.491 . S
C1236 H1227 0.950 . S
C1236 C1235 1.398 . S
C1236 C1237 1.391 . S
C1237 H1225 0.950 . S
C1237 C1233 1.393 . S
C1237 C1236 1.391 . S
C1238 H1228 0.950 . S
C1238 C1239 1.386 . S
C1238 C1240 1.391 . S
C1239 C1238 1.386 . S
C1239 C1243 1.393 . S
C1240 H1229 0.950 . S
C1240 C1238 1.391 . S
C1240 C1241 1.400 . S
C1241 C1235 1.491 . S
C1241 C1240 1.400 . S
C1241 C1242 1.398 . S
C1242 H1230 0.950 . S
C1242 C1241 1.398 . S
C1242 C1243 1.391 . S
C1243 H1231 0.950 . S
C1243 C1239 1.393 . S
C1243 C1242 1.391 . S
H1244 C1252 0.950 . S
H1245 C1257 0.950 . S
H1246 C1254 0.950 . S
H1247 C1256 0.950 . S
H1248 C1258 0.950 . S
H1249 C1260 0.950 . S
H1250 C1262 0.950 . S
H1251 C1263 0.950 . S
C1252 H1244 0.950 . S
C1252 C1253 1.386 . S
C1252 C1254 1.391 . S
C1253 C1252 1.386 . S
C1253 C1257 1.393 . S
C1254 H1246 0.950 . S
C1254 C1252 1.391 . S
C1254 C1255 1.400 . S
C1255 C1254 1.400 . S
C1255 C1256 1.398 . S
C1255 C1261 1.491 . S
C1256 H1247 0.950 . S
C1256 C1255 1.398 . S
C1256 C1257 1.391 . S
C1257 H1245 0.950 . S
C1257 C1253 1.393 . S
C1257 C1256 1.391 . S
C1258 H1248 0.950 . S
C1258 C1259 1.386 . S
C1258 C1260 1.391 . S
C1259 C1258 1.386 . S
C1259 C1263 1.393 . S
C1260 H1249 0.950 . S
C1260 C1258 1.391 . S
C1260 C1261 1.400 . S
C1261 C1255 1.491 . S
C1261 C1260 1.400 . S
C1261 C1262 1.398 . S
C1262 H1250 0.950 . S
C1262 C1261 1.398 . S
C1262 C1263 1.391 . S
C1263 H1251 0.950 . S
C1263 C1259 1.393 . S
C1263 C1262 1.391 . S
H1264 C1272 0.950 . S
H1265 C1277 0.950 . S
H1266 C1274 0.950 . S
H1267 C1276 0.950 1_554 S
H1268 C1278 0.950 . S
H1269 C1280 0.950 . S
H1270 C1282 0.950 1_556 S
H1271 C1283 0.950 . S
C1272 H1264 0.950 . S
C1272 C1273 1.386 . S
C1272 C1274 1.391 . S
C1273 C1272 1.386 . S
C1273 C1277 1.393 . S
C1274 H1266 0.950 . S
C1274 C1272 1.391 . S
C1274 C1275 1.400 . S
C1275 C1274 1.400 . S
C1275 C1276 1.398 . S
C1275 C1281 1.491 1_566 S
C1276 H1267 0.950 1_556 S
C1276 C1275 1.398 . S
C1276 C1277 1.391 . S
C1277 H1265 0.950 . S
C1277 C1273 1.393 . S
C1277 C1276 1.391 . S
C1278 H1268 0.950 . S
C1278 C1279 1.386 . S
C1278 C1280 1.391 . S
C1279 C1278 1.386 . S
C1279 C1283 1.393 . S
C1280 H1269 0.950 . S
C1280 C1278 1.391 . S
C1280 C1281 1.400 . S
C1281 C1275 1.491 1_544 S
C1281 C1280 1.400 . S
C1281 C1282 1.398 . S
C1282 H1270 0.950 1_554 S
C1282 C1281 1.398 . S
C1282 C1283 1.391 . S
C1283 H1271 0.950 . S
C1283 C1279 1.393 . S
C1283 C1282 1.391 . S
H1284 C1292 0.950 . S
H1285 C1297 0.950 1_556 S
H1286 C1294 0.950 . S
H1287 C1296 0.950 . S
H1288 C1298 0.950 . S
H1289 C1300 0.950 . S
H1290 C1302 0.950 . S
H1291 C1303 0.950 1_554 S
C1292 H1284 0.950 . S
C1292 C1293 1.386 . S
C1292 C1294 1.391 . S
C1293 C1292 1.386 . S
C1293 C1297 1.393 . S
C1294 H1286 0.950 . S
C1294 C1292 1.391 . S
C1294 C1295 1.400 . S
C1295 C1294 1.400 . S
C1295 C1296 1.398 1_554 S
C1295 C1301 1.491 1_554 S
C1296 H1287 0.950 . S
C1296 C1295 1.398 1_556 S
C1296 C1297 1.391 1_556 S
C1297 H1285 0.950 1_554 S
C1297 C1293 1.393 . S
C1297 C1296 1.391 1_554 S
C1298 H1288 0.950 . S
C1298 C1299 1.386 . S
C1298 C1300 1.391 . S
C1299 C1298 1.386 . S
C1299 C1303 1.393 . S
C1300 H1289 0.950 . S
C1300 C1298 1.391 . S
C1300 C1301 1.400 . S
C1301 C1295 1.491 1_556 S
C1301 C1300 1.400 . S
C1301 C1302 1.398 1_556 S
C1302 H1290 0.950 . S
C1302 C1301 1.398 1_554 S
C1302 C1303 1.391 1_554 S
C1303 H1291 0.950 1_556 S
C1303 C1299 1.393 . S
C1303 C1302 1.391 1_556 S
H1304 C1312 0.950 . S
H1305 C1317 0.950 1_554 S
H1306 C1314 0.950 . S
H1307 C1316 0.950 . S
H1308 C1318 0.950 . S
H1309 C1320 0.950 . S
H1310 C1322 0.950 . S
H1311 C1323 0.950 1_556 S
C1312 H1304 0.950 . S
C1312 C1313 1.386 . S
C1312 C1314 1.391 . S
C1313 C1312 1.386 . S
C1313 C1317 1.393 1_455 S
C1314 H1306 0.950 . S
C1314 C1312 1.391 . S
C1314 C1315 1.413 . S
C1315 C1314 1.413 . S
C1315 C1316 1.388 1_456 S
C1315 C1321 1.489 1_456 S
C1316 H1307 0.950 . S
C1316 C1315 1.388 1_654 S
C1316 C1317 1.391 1_554 S
C1317 H1305 0.950 1_556 S
C1317 C1313 1.393 1_655 S
C1317 C1316 1.391 1_556 S
C1318 H1308 0.950 . S
C1318 C1319 1.386 . S
C1318 C1320 1.391 . S
C1319 C1318 1.386 . S
C1319 C1323 1.393 1_655 S
C1320 H1309 0.950 . S
C1320 C1318 1.391 . S
C1320 C1321 1.413 . S
C1321 C1315 1.489 1_654 S
C1321 C1320 1.413 . S
C1321 C1322 1.388 1_654 S
C1322 H1310 0.950 . S
C1322 C1321 1.388 1_456 S
C1322 C1323 1.391 1_556 S
C1323 H1311 0.950 1_554 S
C1323 C1319 1.393 1_455 S
C1323 C1322 1.391 1_554 S
H1324 C1332 0.950 1_556 S
H1325 C1337 0.954 . S
H1326 C1334 0.950 . S
H1327 C1336 0.950 . S
H1328 C1338 0.950 1_554 S
H1329 C1340 0.950 . S
H1330 C1342 0.950 . S
H1331 C1343 0.954 . S
C1332 H1324 0.950 1_554 S
C1332 C1333 1.386 . S
C1332 C1334 1.391 1_554 S
C1333 C1332 1.386 . S
C1333 C1337 1.390 1_565 S
C1334 H1326 0.950 . S
C1334 C1332 1.391 1_556 S
C1334 C1335 1.405 1_556 S
C1335 C1334 1.405 1_554 S
C1335 C1336 1.396 1_565 S
C1335 C1341 1.489 1_464 S
C1336 H1327 0.950 . S
C1336 C1335 1.396 1_545 S
C1336 C1337 1.391 . S
C1337 H1325 0.954 . S
C1337 C1333 1.390 1_545 S
C1337 C1336 1.391 . S
C1338 H1328 0.950 1_556 S
C1338 C1339 1.386 . S
C1338 C1340 1.391 1_556 S
C1339 C1338 1.386 . S
C1339 C1343 1.390 1_545 S
C1340 H1329 0.950 . S
C1340 C1338 1.391 1_554 S
C1340 C1341 1.405 1_554 S
C1341 C1335 1.489 1_646 S
C1341 C1340 1.405 1_556 S
C1341 C1342 1.396 1_545 S
C1342 H1330 0.950 . S
C1342 C1341 1.396 1_565 S
C1342 C1343 1.391 . S
C1343 H1331 0.954 . S
C1343 C1339 1.390 1_565 S
C1343 C1342 1.391 . S
H1344 C1352 0.950 . S
H1345 C1357 0.950 . S
H1346 C1354 0.950 . S
H1347 C1356 0.950 . S
H1348 C1358 0.950 . S
H1349 C1360 0.950 . S
H1350 C1362 0.950 . S
H1351 C1363 0.950 . S
C1352 H1344 0.950 . S
C1352 C1353 1.386 . S
C1352 C1354 1.391 . S
C1353 C1352 1.386 . S
C1353 C1357 1.393 . S
C1354 H1346 0.950 . S
C1354 C1352 1.391 . S
C1354 C1355 1.400 . S
C1355 C1354 1.400 . S
C1355 C1356 1.398 . S
C1355 C1361 1.491 . S
C1356 H1347 0.950 . S
C1356 C1355 1.398 . S
C1356 C1357 1.391 . S
C1357 H1345 0.950 . S
C1357 C1353 1.393 . S
C1357 C1356 1.391 . S
C1358 H1348 0.950 . S
C1358 C1359 1.386 . S
C1358 C1360 1.391 . S
C1359 C1358 1.386 . S
C1359 C1363 1.393 . S
C1360 H1349 0.950 . S
C1360 C1358 1.391 . S
C1360 C1361 1.400 . S
C1361 C1355 1.491 . S
C1361 C1360 1.400 . S
C1361 C1362 1.398 . S
C1362 H1350 0.950 . S
C1362 C1361 1.398 . S
C1362 C1363 1.391 . S
C1363 H1351 0.950 . S
C1363 C1359 1.393 . S
C1363 C1362 1.391 . S
H1364 C1372 0.950 . S
H1365 C1377 0.950 . S
H1366 C1374 0.950 . S
H1367 C1376 0.950 . S
H1368 C1378 0.950 . S
H1369 C1380 0.950 . S
H1370 C1382 0.950 . S
H1371 C1383 0.950 . S
C1372 H1364 0.950 . S
C1372 C1373 1.386 . S
C1372 C1374 1.391 . S
C1373 C1372 1.386 . S
C1373 C1377 1.393 . S
C1374 H1366 0.950 . S
C1374 C1372 1.391 . S
C1374 C1375 1.400 . S
C1375 C1374 1.400 . S
C1375 C1376 1.398 . S
C1375 C1381 1.491 1_455 S
C1376 H1367 0.950 . S
C1376 C1375 1.398 . S
C1376 C1377 1.391 . S
C1377 H1365 0.950 . S
C1377 C1373 1.393 . S
C1377 C1376 1.391 . S
C1378 H1368 0.950 . S
C1378 C1379 1.386 . S
C1378 C1380 1.391 . S
C1379 C1378 1.386 . S
C1379 C1383 1.393 . S
C1380 H1369 0.950 . S
C1380 C1378 1.391 . S
C1380 C1381 1.400 . S
C1381 C1375 1.491 1_655 S
C1381 C1380 1.400 . S
C1381 C1382 1.398 . S
C1382 H1370 0.950 . S
C1382 C1381 1.398 . S
C1382 C1383 1.391 . S
C1383 H1371 0.950 . S
C1383 C1379 1.393 . S
C1383 C1382 1.391 . S
H1384 C1392 0.950 . S
H1385 C1397 0.950 . S
H1386 C1394 0.950 . S
H1387 C1396 0.950 . S
H1388 C1398 0.950 . S
H1389 C1400 0.950 . S
H1390 C1402 0.950 . S
H1391 C1403 0.950 . S
C1392 H1384 0.950 . S
C1392 C1393 1.386 . S
C1392 C1394 1.391 . S
C1393 C1392 1.386 . S
C1393 C1397 1.393 1_455 S
C1394 H1386 0.950 . S
C1394 C1392 1.391 . S
C1394 C1395 1.406 . S
C1395 C1394 1.406 . S
C1395 C1396 1.393 1_455 S
C1395 C1401 1.490 1_465 S
C1396 H1387 0.950 . S
C1396 C1395 1.393 1_655 S
C1396 C1397 1.391 . S
C1397 H1385 0.950 . S
C1397 C1393 1.393 1_655 S
C1397 C1396 1.391 . S
C1398 H1388 0.950 . S
C1398 C1399 1.386 . S
C1398 C1400 1.391 . S
C1399 C1398 1.386 . S
C1399 C1403 1.393 1_655 S
C1400 H1389 0.950 . S
C1400 C1398 1.391 . S
C1400 C1401 1.406 . S
C1401 C1395 1.490 1_645 S
C1401 C1400 1.406 . S
C1401 C1402 1.393 1_655 S
C1402 H1390 0.950 . S
C1402 C1401 1.393 1_455 S
C1402 C1403 1.391 . S
C1403 H1391 0.950 . S
C1403 C1399 1.393 1_455 S
C1403 C1402 1.391 . S
H1404 C1412 0.950 . S
H1405 C1417 0.950 . S
H1406 C1414 0.950 . S
H1407 C1416 0.950 . S
H1408 C1418 0.950 . S
H1409 C1420 0.950 . S
H1410 C1422 0.950 . S
H1411 C1423 0.950 . S
C1412 H1404 0.950 . S
C1412 C1413 1.386 1_565 S
C1412 C1414 1.391 . S
C1413 C1412 1.386 1_545 S
C1413 C1417 1.393 . S
C1414 H1406 0.950 . S
C1414 C1412 1.391 . S
C1414 C1415 1.392 1_565 S
C1415 C1414 1.392 1_545 S
C1415 C1416 1.409 . S
C1415 C1421 1.489 1_545 S
C1416 H1407 0.950 . S
C1416 C1415 1.409 . S
C1416 C1417 1.391 . S
C1417 H1405 0.950 . S
C1417 C1413 1.393 . S
C1417 C1416 1.391 . S
C1418 H1408 0.950 . S
C1418 C1419 1.386 1_545 S
C1418 C1420 1.391 . S
C1419 C1418 1.386 1_565 S
C1419 C1423 1.393 . S
C1420 H1409 0.950 . S
C1420 C1418 1.391 . S
C1420 C1421 1.392 1_545 S
C1421 C1415 1.489 1_565 S
C1421 C1420 1.392 1_565 S
C1421 C1422 1.409 . S
C1422 H1410 0.950 . S
C1422 C1421 1.409 . S
C1422 C1423 1.391 . S
C1423 H1411 0.950 . S
C1423 C1419 1.393 . S
C1423 C1422 1.391 . S
H1424 C1432 0.950 . S
H1425 C1437 0.950 . S
H1426 C1434 0.950 . S
H1427 C1436 0.950 . S
H1428 C1438 0.950 . S
H1429 C1440 0.950 . S
H1430 C1442 0.950 . S
H1431 C1443 0.950 . S
C1432 H1424 0.950 . S
C1432 C1433 1.386 . S
C1432 C1434 1.391 . S
C1433 C1432 1.386 . S
C1433 C1437 1.393 . S
C1434 H1426 0.950 . S
C1434 C1432 1.391 . S
C1434 C1435 1.400 . S
C1435 C1434 1.400 . S
C1435 C1436 1.398 . S
C1435 C1441 1.491 . S
C1436 H1427 0.950 . S
C1436 C1435 1.398 . S
C1436 C1437 1.391 . S
C1437 H1425 0.950 . S
C1437 C1433 1.393 . S
C1437 C1436 1.391 . S
C1438 H1428 0.950 . S
C1438 C1439 1.386 . S
C1438 C1440 1.391 . S
C1439 C1438 1.386 . S
C1439 C1443 1.393 . S
C1440 H1429 0.950 . S
C1440 C1438 1.391 . S
C1440 C1441 1.400 . S
C1441 C1435 1.491 . S
C1441 C1440 1.400 . S
C1441 C1442 1.398 . S
C1442 H1430 0.950 . S
C1442 C1441 1.398 . S
C1442 C1443 1.391 . S
C1443 H1431 0.950 . S
C1443 C1439 1.393 . S
C1443 C1442 1.391 . S
H1444 C1452 0.950 . S
H1445 C1457 0.950 . S
H1446 C1454 0.950 . S
H1447 C1456 0.950 . S
H1448 C1458 0.950 . S
H1449 C1460 0.950 . S
H1450 C1462 0.950 . S
H1451 C1463 0.950 . S
C1452 H1444 0.950 . S
C1452 C1453 1.386 . S
C1452 C1454 1.391 . S
C1453 C1452 1.386 . S
C1453 C1457 1.393 . S
C1454 H1446 0.950 . S
C1454 C1452 1.391 . S
C1454 C1455 1.400 . S
C1455 C1454 1.400 . S
C1455 C1456 1.398 . S
C1455 C1461 1.491 . S
C1456 H1447 0.950 . S
C1456 C1455 1.398 . S
C1456 C1457 1.391 . S
C1457 H1445 0.950 . S
C1457 C1453 1.393 . S
C1457 C1456 1.391 . S
C1458 H1448 0.950 . S
C1458 C1459 1.386 . S
C1458 C1460 1.391 . S
C1459 C1458 1.386 . S
C1459 C1463 1.393 . S
C1460 H1449 0.950 . S
C1460 C1458 1.391 . S
C1460 C1461 1.400 . S
C1461 C1455 1.491 . S
C1461 C1460 1.400 . S
C1461 C1462 1.398 . S
C1462 H1450 0.950 . S
C1462 C1461 1.398 . S
C1462 C1463 1.391 . S
C1463 H1451 0.950 . S
C1463 C1459 1.393 . S
C1463 C1462 1.391 . S
H1464 C1472 0.950 . S
H1465 C1477 0.950 1_455 S
H1466 C1474 0.950 . S
H1467 C1476 0.950 1_455 S
H1468 C1478 0.950 1_455 S
H1469 C1480 0.950 1_455 S
H1470 C1482 0.950 . S
H1471 C1483 0.950 . S
C1472 H1464 0.950 . S
C1472 C1473 1.386 . S
C1472 C1474 1.391 . S
C1473 C1472 1.386 . S
C1473 C1477 1.393 . S
C1474 H1466 0.950 . S
C1474 C1472 1.391 . S
C1474 C1475 1.400 . S
C1475 C1474 1.400 . S
C1475 C1476 1.398 . S
C1475 C1481 1.491 . S
C1476 H1467 0.950 1_655 S
C1476 C1475 1.398 . S
C1476 C1477 1.391 . S
C1477 H1465 0.950 1_655 S
C1477 C1473 1.393 . S
C1477 C1476 1.391 . S
C1478 H1468 0.950 1_655 S
C1478 C1479 1.386 . S
C1478 C1480 1.391 . S
C1479 C1478 1.386 . S
C1479 C1483 1.393 . S
C1480 H1469 0.950 1_655 S
C1480 C1478 1.391 . S
C1480 C1481 1.400 . S
C1481 C1475 1.491 . S
C1481 C1480 1.400 . S
C1481 C1482 1.398 . S
C1482 H1470 0.950 . S
C1482 C1481 1.398 . S
C1482 C1483 1.391 . S
C1483 H1471 0.950 . S
C1483 C1479 1.393 . S
C1483 C1482 1.391 . S
H1484 C1492 0.950 . S
H1485 C1497 0.950 . S
H1486 C1494 0.950 . S
H1487 C1496 0.950 . S
H1488 C1498 0.950 . S
H1489 C1500 0.950 . S
H1490 C1502 0.950 . S
H1491 C1503 0.950 . S
C1492 H1484 0.950 . S
C1492 C1493 1.386 . S
C1492 C1494 1.391 . S
C1493 C1492 1.386 . S
C1493 C1497 1.393 . S
C1494 H1486 0.950 . S
C1494 C1492 1.391 . S
C1494 C1495 1.400 . S
C1495 C1494 1.400 . S
C1495 C1496 1.398 . S
C1495 C1501 1.491 . S
C1496 H1487 0.950 . S
C1496 C1495 1.398 . S
C1496 C1497 1.391 . S
C1497 H1485 0.950 . S
C1497 C1493 1.393 . S
C1497 C1496 1.391 . S
C1498 H1488 0.950 . S
C1498 C1499 1.386 . S
C1498 C1500 1.391 . S
C1499 C1498 1.386 . S
C1499 C1503 1.393 . S
C1500 H1489 0.950 . S
C1500 C1498 1.391 . S
C1500 C1501 1.400 . S
C1501 C1495 1.491 . S
C1501 C1500 1.400 . S
C1501 C1502 1.398 . S
C1502 H1490 0.950 . S
C1502 C1501 1.398 . S
C1502 C1503 1.391 . S
C1503 H1491 0.950 . S
C1503 C1499 1.393 . S
C1503 C1502 1.391 . S
H1504 C1512 0.950 . S
H1505 C1517 0.950 . S
H1506 C1514 0.950 . S
H1507 C1516 0.950 . S
H1508 C1518 0.950 . S
H1509 C1520 0.950 . S
H1510 C1522 0.950 . S
H1511 C1523 0.950 . S
C1512 H1504 0.950 . S
C1512 C1513 1.386 . S
C1512 C1514 1.391 . S
C1513 C1512 1.386 . S
C1513 C1517 1.393 . S
C1514 H1506 0.950 . S
C1514 C1512 1.391 . S
C1514 C1515 1.400 . S
C1515 C1514 1.400 . S
C1515 C1516 1.398 . S
C1515 C1521 1.491 . S
C1516 H1507 0.950 . S
C1516 C1515 1.398 . S
C1516 C1517 1.391 . S
C1517 H1505 0.950 . S
C1517 C1513 1.393 . S
C1517 C1516 1.391 . S
C1518 H1508 0.950 . S
C1518 C1519 1.386 . S
C1518 C1520 1.391 . S
C1519 C1518 1.386 . S
C1519 C1523 1.393 . S
C1520 H1509 0.950 . S
C1520 C1518 1.391 . S
C1520 C1521 1.400 . S
C1521 C1515 1.491 . S
C1521 C1520 1.400 . S
C1521 C1522 1.398 . S
C1522 H1510 0.950 . S
C1522 C1521 1.398 . S
C1522 C1523 1.391 . S
C1523 H1511 0.950 . S
C1523 C1519 1.393 . S
C1523 C1522 1.391 . S
H1524 C1532 0.950 . S
H1525 C1537 0.950 . S
H1526 C1534 0.950 . S
H1527 C1536 0.950 . S
H1528 C1538 0.950 . S
H1529 C1540 0.950 . S
H1530 C1542 0.950 . S
H1531 C1543 0.950 . S
C1532 H1524 0.950 . S
C1532 C1533 1.386 . S
C1532 C1534 1.391 . S
C1533 C1532 1.386 . S
C1533 C1537 1.393 . S
C1534 H1526 0.950 . S
C1534 C1532 1.391 . S
C1534 C1535 1.400 . S
C1535 C1534 1.400 . S
C1535 C1536 1.398 . S
C1535 C1541 1.491 . S
C1536 H1527 0.950 . S
C1536 C1535 1.398 . S
C1536 C1537 1.391 . S
C1537 H1525 0.950 . S
C1537 C1533 1.393 . S
C1537 C1536 1.391 . S
C1538 H1528 0.950 . S
C1538 C1539 1.386 . S
C1538 C1540 1.391 . S
C1539 C1538 1.386 . S
C1539 C1543 1.393 . S
C1540 H1529 0.950 . S
C1540 C1538 1.391 . S
C1540 C1541 1.400 . S
C1541 C1535 1.491 . S
C1541 C1540 1.400 . S
C1541 C1542 1.398 . S
C1542 H1530 0.950 . S
C1542 C1541 1.398 . S
C1542 C1543 1.391 . S
C1543 H1531 0.950 . S
C1543 C1539 1.393 . S
C1543 C1542 1.391 . S
H1544 C1552 0.950 1_655 S
H1545 C1557 0.950 . S
H1546 C1554 0.950 1_655 S
H1547 C1556 0.950 . S
H1548 C1558 0.950 . S
H1549 C1560 0.950 . S
H1550 C1562 0.950 1_655 S
H1551 C1563 0.950 1_655 S
C1552 H1544 0.950 1_455 S
C1552 C1553 1.386 . S
C1552 C1554 1.391 . S
C1553 C1552 1.386 . S
C1553 C1557 1.393 . S
C1554 H1546 0.950 1_455 S
C1554 C1552 1.391 . S
C1554 C1555 1.400 . S
C1555 C1554 1.400 . S
C1555 C1556 1.398 . S
C1555 C1561 1.491 . S
C1556 H1547 0.950 . S
C1556 C1555 1.398 . S
C1556 C1557 1.391 . S
C1557 H1545 0.950 . S
C1557 C1553 1.393 . S
C1557 C1556 1.391 . S
C1558 H1548 0.950 . S
C1558 C1559 1.386 . S
C1558 C1560 1.391 . S
C1559 C1558 1.386 . S
C1559 C1563 1.393 . S
C1560 H1549 0.950 . S
C1560 C1558 1.391 . S
C1560 C1561 1.400 . S
C1561 C1555 1.491 . S
C1561 C1560 1.400 . S
C1561 C1562 1.398 . S
C1562 H1550 0.950 1_455 S
C1562 C1561 1.398 . S
C1562 C1563 1.391 . S
C1563 H1551 0.950 1_455 S
C1563 C1559 1.393 . S
C1563 C1562 1.391 . S
H1564 C1572 0.950 . S
H1565 C1577 0.950 1_565 S
H1566 C1574 0.950 . S
H1567 C1576 0.950 1_565 S
H1568 C1578 0.950 1_565 S
H1569 C1580 0.950 1_565 S
H1570 C1582 0.950 . S
H1571 C1583 0.950 . S
C1572 H1564 0.950 . S
C1572 C1573 1.386 . S
C1572 C1574 1.391 . S
C1573 C1572 1.386 . S
C1573 C1577 1.393 . S
C1574 H1566 0.950 . S
C1574 C1572 1.391 . S
C1574 C1575 1.400 . S
C1575 C1574 1.400 . S
C1575 C1576 1.398 . S
C1575 C1581 1.491 . S
C1576 H1567 0.950 1_545 S
C1576 C1575 1.398 . S
C1576 C1577 1.391 . S
C1577 H1565 0.950 1_545 S
C1577 C1573 1.393 . S
C1577 C1576 1.391 . S
C1578 H1568 0.950 1_545 S
C1578 C1579 1.386 . S
C1578 C1580 1.391 . S
C1579 C1578 1.386 . S
C1579 C1583 1.393 . S
C1580 H1569 0.950 1_545 S
C1580 C1578 1.391 . S
C1580 C1581 1.400 . S
C1581 C1575 1.491 . S
C1581 C1580 1.400 . S
C1581 C1582 1.398 . S
C1582 H1570 0.950 . S
C1582 C1581 1.398 . S
C1582 C1583 1.391 . S
C1583 H1571 0.950 . S
C1583 C1579 1.393 . S
C1583 C1582 1.391 . S
C953 C52 0.950 . S
C959 C564 0.959 . S
C973 C623 0.966 . S
C979 C111 0.958 . S
C993 C682 0.969 . S
C999 C170 0.963 . S
C1013 C505 0.973 . S
C1019 C229 0.971 . S
C1033 C288 0.972 . S
C1039 C918 0.973 . S
C1053 C741 0.973 . S
C1059 C347 0.972 . S
C1073 C800 0.962 . S
C1079 C406 0.958 . S
C1093 C859 0.960 . S
C1099 C465 0.954 . S
C1113 C524 0.972 . S
C1119 C92 0.972 . S
C1133 C583 0.956 . S
C1139 C151 0.961 . S
C1153 C642 0.952 . S
C1159 C210 0.962 . S
C1173 C33 0.965 . S
C1179 C701 0.957 . S
C1193 C760 0.970 . S
C1199 C446 0.970 . S
C1213 C819 0.950 . S
C1219 C269 0.959 . S
C1233 C328 0.969 . S
C1239 C878 0.963 . S
C1253 C937 0.962 . S
C1259 C387 0.964 . S
C1273 C477 1.789 . S
C1279 C5 1.789 . S
C1293 C64 1.804 . S
C1299 C536 1.804 . S
C1313 C595 1.779 . S
C1319 C123 1.779 . S
C1333 C182 1.780 . S
C1339 C654 1.780 . S
C1353 C713 1.784 . S
C1359 C241 1.784 . S
C1373 C300 1.801 . S
C1379 C772 1.801 . S
C1393 C831 1.789 . S
C1399 C359 1.789 . S
C1413 C890 1.780 . S
C1419 C418 1.780 . S
C1433 C239 1.685 . S
C1439 C3 1.675 . S
C1453 C298 1.691 . S
C1459 C62 1.696 . S
C1473 C121 1.675 . S
C1479 C357 1.684 . S
C1493 C416 1.692 . S
C1499 C180 1.676 . S
C1513 C475 1.681 . S
C1519 C711 1.696 . S
C1533 C770 1.694 . S
C1539 C534 1.694 . S
C1553 C829 1.680 . S
C1559 C593 1.676 . S
C1573 C888 1.690 . S
C1579 C652 1.696 . S
