# Generated by pormake.
# Topology kag, (6)-cn, num edge types: 1
# Building blocks:
#     Node 0, Type 0, BuildingBlock: KUMBOL_clean_sbu_0, # of connection points: 6
#     Node 1, Type 0, BuildingBlock: KUMBOL_clean_sbu_0, # of connection points: 6
#     Node 2, Type 0, BuildingBlock: KUMBOL_clean_sbu_0, # of connection points: 6
#     Edge 3, Type (0, 0), BuildingBlock: UVAHIK_clean_linker_0, # of connection points: 2
#     Edge 4, Type (0, 0), BuildingBlock: UVAHIK_clean_linker_0, # of connection points: 2
#     Edge 5, Type (0, 0), BuildingBlock: UVAHIK_clean_linker_0, # of connection points: 2
#     Edge 6, Type (0, 0), BuildingBlock: UVAHIK_clean_linker_0, # of connection points: 2
#     Edge 7, Type (0, 0), BuildingBlock: UVAHIK_clean_linker_0, # of connection points: 2
#     Edge 8, Type (0, 0), BuildingBlock: UVAHIK_clean_linker_0, # of connection points: 2
#     Edge 9, Type (0, 0), BuildingBlock: UVAHIK_clean_linker_0, # of connection points: 2
#     Edge 10, Type (0, 0), BuildingBlock: UVAHIK_clean_linker_0, # of connection points: 2
#     Edge 11, Type (0, 0), BuildingBlock: UVAHIK_clean_linker_0, # of connection points: 2
# Relax obj value: 0.055
# Max RMSD: 0.170
# Mean RMSD: 0.129
data_MOF--net-kag--node1-KUMBOL_clean_sbu_0--edge1-UVAHIK_clean_linker_0
_symmetry_space_group_name_H-M    P1
_symmetry_Int_Tables_number       1
_symmetry_cell_setting            triclinic
loop_
_symmetry_equiv_pos_as_xyz
'x, y, z'
_cell_length_a     47.86874
_cell_length_b     37.467421
_cell_length_c     19.803181
_cell_angle_alpha  94.041403
_cell_angle_beta   114.64469
_cell_angle_gamma 99.574061
loop_
_atom_site_label
_atom_site_type_symbol
_atom_site_fract_x
_atom_site_fract_y
_atom_site_fract_z
_atom_type_partial_charge
Gd0 Gd 0.02319 0.59699 -0.00199 0.0
Gd1 Gd 1.01228 0.49643 0.98097 0.0
C2 C 0.09002 0.4399 0.98376 0.0
C3 C 0.0666 0.40625 0.85667 0.0
C4 C 0.03722 0.44294 0.89659 0.0
C5 C 0.06245 0.45345 0.96681 0.0
C6 C 0.03872 0.41858 0.84122 0.0
C7 C 0.09223 0.41694 0.92779 0.0
C8 C 0.11416 0.449 0.05704 0.0
C9 C 0.10995 0.46993 0.11185 0.0
N10 N 0.0594 0.47537 0.01975 0.0
C11 C 0.08208 0.48254 0.09238 0.0
H12 H 0.07922 0.49887 0.13519 0.0
C13 C 0.98386 0.44228 0.8185 0.0
N14 N 1.01064 0.45528 0.8836 0.0
C15 C 0.9842 0.41819 0.76172 0.0
C16 C 1.01187 0.40664 0.77274 0.0
H17 H 0.96248 0.45132 0.80973 0.0
H18 H 0.11334 0.40656 0.93953 0.0
H19 H 0.95592 0.59355 0.84398 0.0
H20 H 0.13577 0.43928 0.07228 0.0
H21 H 0.12821 0.47652 0.16905 0.0
H22 H 0.06834 0.3878 0.81461 0.0
H23 H 0.07298 0.64293 0.16849 0.0
H24 H 0.89901 0.65266 0.90653 0.0
H25 H 0.90664 0.61525 0.81009 0.0
H26 H 0.96661 0.70537 0.16344 0.0
H27 H 0.96316 0.40859 0.70952 0.0
H28 H 1.01206 0.38791 0.72874 0.0
H29 H 0.92148 0.68592 0.03887 0.0
H30 H 0.07218 0.68582 0.26826 0.0
N31 N 0.97583 0.61755 0.95914 0.0
C32 C 0.92074 0.64321 0.92179 0.0
C33 C 0.92499 0.62218 0.86716 0.0
C34 C 0.94498 0.65275 -0.00512 0.0
C35 C 0.97271 0.63954 0.01187 0.0
C36 C 0.95302 0.60994 0.88665 0.0
N37 N 0.02469 0.63834 0.09491 0.0
C38 C 0.99799 0.6504 0.0819 0.0
C39 C 0.0511 0.67592 0.21627 0.0
C40 C 0.02332 0.68717 0.20528 0.0
C41 C 0.05151 0.65173 0.15973 0.0
C42 C 0.99642 0.67485 0.13703 0.0
H43 H 0.02307 0.70597 0.24908 0.0
O44 O 0.0642 0.63792 0.01469 0.0
O45 O 0.04423 0.54908 -0.00591 0.0
O46 O 0.03176 0.52358 0.10353 0.0
O47 O 0.01895 0.58113 0.10105 0.0
O48 O 0.07377 0.59402 0.07102 0.0
O49 O 0.02044 0.63213 0.91391 0.0
O50 O 0.97117 0.45549 0.96362 0.0
O51 O 0.99133 0.54433 0.98524 0.0
O52 O 1.00377 0.56969 0.87558 0.0
O53 O 1.0172 0.5125 0.87877 0.0
O54 O 0.96167 0.4996 0.90828 0.0
O55 O 1.01479 0.46121 0.06483 0.0
C56 C 0.07226 0.5614 0.04223 0.0
C57 C 0.9684 0.68687 0.12156 0.0
C58 C 0.94271 0.67579 0.05063 0.0
C59 C 0.04903 0.65125 0.95404 0.0
C60 C 0.05354 0.69134 0.96312 0.0
C61 C 0.03153 0.70914 0.97243 0.0
C62 C 0.08115 0.71213 0.96526 0.0
C63 C 0.0872 0.75066 0.97726 0.0
C64 C 0.03721 0.74738 0.98389 0.0
C65 C 0.06486 0.7681 0.98639 0.0
C66 C 0.02668 0.55275 0.13531 0.0
C67 C 0.96321 0.53213 0.93755 0.0
C68 C 0.98619 0.44216 0.0244 0.0
C69 C 0.98156 0.40207 0.01542 0.0
C70 C 1.0034 0.38409 0.00567 0.0
C71 C 0.954 0.38145 0.01379 0.0
C72 C 0.94779 0.34291 0.00182 0.0
C73 C 0.99757 0.34585 -0.00575 0.0
C74 C 0.96995 0.3253 -0.00778 0.0
C75 C 1.00926 0.54073 0.84419 0.0
H76 H 1.01009 0.69361 0.97109 0.0
H77 H 0.09785 0.69812 0.95711 0.0
H78 H 0.02022 0.76102 -0.00867 0.0
H79 H 0.06894 0.7977 -0.00349 0.0
H80 H 0.0248 0.3995 0.00663 0.0
H81 H 0.93745 0.3956 0.02231 0.0
H82 H 1.01442 0.33207 0.98646 0.0
H83 H 0.96575 0.29568 0.98209 0.0
Gd84 Gd 0.47488 1.04062 0.94626 0.0
Gd85 Gd 0.56036 0.05426 0.03478 0.0
C86 C 0.5865 0.94421 -0.00352 0.0
C87 C 0.60219 0.92499 0.11906 0.0
C88 C 0.58661 0.98352 0.09897 0.0
C89 C 0.58097 0.97675 0.0246 0.0
C90 C 0.59819 0.95814 0.14764 0.0
C91 C 0.59636 0.91804 0.04356 0.0
C92 C 0.58241 0.93913 0.92215 0.0
C93 C 0.57431 0.96672 0.87883 0.0
N94 N 0.57086 1.00233 0.98015 0.0
C95 C 0.56924 0.99847 0.90922 0.0
H96 H 0.56493 1.01987 0.87551 0.0
C97 C 0.59373 1.02624 0.20085 0.0
N98 N 0.58253 1.01581 0.12482 0.0
C99 C 0.60488 1.00191 0.25109 0.0
C100 C 0.60643 0.96732 0.22413 0.0
H101 H 0.59441 0.05357 0.22367 0.0
H102 H 0.60017 0.89269 0.0225 0.0
H103 H 0.47087 0.07591 0.10559 0.0
H104 H 0.58636 0.91455 0.89848 0.0
H105 H 0.57234 0.9638 0.82215 0.0
H106 H 0.61058 0.90499 0.15534 0.0
H107 H 0.44012 1.04006 0.75717 0.0
H108 H 0.44867 0.18079 0.08035 0.0
H109 H 0.4633 0.13213 0.158 0.0
H110 H 0.42336 0.18874 0.82238 0.0
H111 H 0.61272 1.01012 0.31075 0.0
H112 H 0.61535 0.94859 0.26322 0.0
H113 H 0.43425 0.20185 0.95542 0.0
H114 H 0.42113 0.08281 0.66879 0.0
N115 N 0.46431 0.09274 7e-05 0.0
C116 C 0.45265 0.15613 0.05707 0.0
C117 C 0.4611 0.12887 0.10113 0.0
C118 C 0.4483 0.15062 0.98257 0.0
C119 C 0.45389 0.11799 0.95499 0.0
C120 C 0.46624 0.09703 0.07124 0.0
N121 N 0.45209 0.07838 0.85527 0.0
C122 C 0.44797 0.11077 0.88052 0.0
C123 C 0.42916 0.09139 0.7284 0.0
C124 C 0.42753 0.12609 0.75466 0.0
C125 C 0.44066 0.06746 0.77932 0.0
C126 C 0.43606 0.13577 0.83118 0.0
H127 H 0.41834 0.14451 0.71506 0.0
O128 O 0.42839 1.01042 0.86606 0.0
O129 O 0.51527 1.01256 -0.00279 0.0
O130 O 0.54311 0.06376 0.91326 0.0
O131 O 0.48958 1.03704 0.85305 0.0
O132 O 0.47991 0.98895 0.89183 0.0
O133 O 0.44167 1.01325 0.98488 0.0
O134 O 0.607 0.0836 0.11581 0.0
O135 O 0.51998 0.08224 0.9838 0.0
O136 O 0.49226 1.03133 0.06793 0.0
O137 O 0.54572 0.05834 0.12799 0.0
O138 O 0.55542 0.10621 0.08865 0.0
O139 O 0.59383 0.08194 -0.00279 0.0
C140 C 0.50526 0.98476 0.94653 0.0
C141 C 0.43201 0.16902 0.85918 0.0
C142 C 0.43811 0.17643 0.9348 0.0
C143 C 0.42052 0.99888 0.91735 0.0
C144 C 0.40621 0.95957 0.90567 0.0
C145 C 0.41679 0.93261 0.87533 0.0
C146 C 0.38122 0.94888 0.92463 0.0
C147 C 0.36696 0.9116 0.91395 0.0
C148 C 0.40308 0.89561 0.8657 0.0
C149 C 0.37834 0.88508 0.88489 0.0
C150 C 0.51645 0.05103 0.85195 0.0
C151 C 0.52995 0.1102 0.03406 0.0
C152 C 0.61502 0.09564 0.06508 0.0
C153 C 0.62969 0.13491 0.07837 0.0
C154 C 0.61971 0.16169 0.11092 0.0
C155 C 0.65447 0.14575 0.05873 0.0
C156 C 0.66906 0.18299 0.07084 0.0
C157 C 0.63373 0.19868 0.12192 0.0
C158 C 0.65823 0.20936 0.10196 0.0
C159 C 0.5189 1.04425 0.12919 0.0
H160 H 0.43529 0.93978 0.85812 0.0
H161 H 0.37291 0.9696 0.94782 0.0
H162 H 0.41142 0.87505 0.84238 0.0
H163 H 0.36761 0.85623 0.87529 0.0
H164 H 0.60143 0.15435 0.12884 0.0
H165 H 0.66235 0.12517 0.03393 0.0
H166 H 0.62583 0.21911 0.14689 0.0
H167 H 0.66922 0.23818 0.11264 0.0
Gd168 Gd 0.56009 0.5704 0.0375 0.0
Gd169 Gd 0.47475 0.5243 0.94173 0.0
C170 C 0.43841 0.40155 0.85295 0.0
C171 C 0.41699 0.40035 0.71768 0.0
C172 C 0.44043 0.45839 0.80252 0.0
C173 C 0.44762 0.44009 0.86365 0.0
C174 C 0.42435 0.43883 0.72874 0.0
C175 C 0.42395 0.38173 0.77974 0.0
C176 C 0.44278 0.38428 0.91588 0.0
C177 C 0.45501 0.40549 0.98677 0.0
N178 N 0.46116 0.46019 0.93342 0.0
C179 C 0.46377 0.44363 -0.00559 0.0
H180 H 0.47325 0.4596 0.04955 0.0
C181 C 0.43638 0.51487 0.75705 0.0
N182 N 0.44704 0.49552 0.81542 0.0
C183 C 0.42073 0.49675 0.68278 0.0
C184 C 0.41506 0.45856 0.66847 0.0
H185 H 0.44088 0.54441 0.76772 0.0
H186 H 0.41712 0.35209 0.77044 0.0
H187 H 0.56158 0.6353 0.93014 0.0
H188 H 0.43605 0.35475 0.91013 0.0
H189 H 0.45788 0.39249 0.03566 0.0
H190 H 0.40493 0.38479 0.66143 0.0
H191 H 0.59417 0.5502 0.21141 0.0
H192 H 0.59809 0.74007 0.0699 0.0
H193 H 0.57669 0.70248 0.94436 0.0
H194 H 0.62902 0.70971 0.31831 0.0
H195 H 0.41309 0.51224 0.63667 0.0
H196 H 0.40272 0.44456 0.61093 0.0
H197 H 0.61674 0.74256 0.20949 0.0
H198 H 0.62174 0.58226 0.34255 0.0
N199 N 0.5734 0.63456 0.04612 0.0
C200 C 0.59146 0.71053 0.06401 0.0
C201 C 0.57949 0.68939 -0.00689 0.0
C202 C 0.59576 0.69315 0.1268 0.0
C203 C 0.58671 0.6546 0.11592 0.0
C204 C 0.57088 0.65123 0.98529 0.0
N205 N 0.58764 0.59909 0.16391 0.0
C206 C 0.594 0.63622 0.17696 0.0
C207 C 0.61398 0.59778 0.29651 0.0
C208 C 0.61937 0.63594 0.31097 0.0
C209 C 0.59845 0.57972 0.22219 0.0
C210 C 0.60995 0.65572 0.2508 0.0
H211 H 0.63163 0.64989 0.36856 0.0
O212 O 0.60343 0.55031 0.07261 0.0
O213 O 0.52441 0.51782 0.98737 0.0
O214 O 0.49673 0.52515 0.06856 0.0
O215 O 0.53834 0.57633 0.11835 0.0
O216 O 0.56533 0.51578 0.07901 0.0
O217 O 0.58936 0.57965 0.97802 0.0
O218 O 0.43092 0.54336 0.9057 0.0
O219 O 0.51041 0.57681 -0.00882 0.0
O220 O 0.53825 0.56946 0.91066 0.0
O221 O 0.4965 0.51839 0.86084 0.0
O222 O 0.46932 0.57893 0.90029 0.0
O223 O 0.44638 0.51631 0.00359 0.0
C224 C 0.53875 0.49658 0.02945 0.0
C225 C 0.61707 0.69421 0.26201 0.0
C226 C 0.61005 0.71291 0.20006 0.0
C227 C 0.61139 0.56496 0.02363 0.0
C228 C 0.64399 0.5867 0.0531 0.0
C229 C 0.6529 0.61978 0.10188 0.0
C230 C 0.66646 0.57463 0.03347 0.0
C231 C 0.69769 0.59557 0.06327 0.0
C232 C 0.68338 0.64081 0.13032 0.0
C233 C 0.70559 0.62892 0.11123 0.0
C234 C 0.51686 0.55128 0.12471 0.0
C235 C 0.496 0.59811 0.94943 0.0
C236 C 0.42378 0.52988 0.95685 0.0
C237 C 0.39152 0.50765 0.93045 0.0
C238 C 0.38173 0.47528 0.87911 0.0
C239 C 0.37052 0.5181 0.95737 0.0
C240 C 0.34024 0.49572 0.93409 0.0
C241 C 0.3519 0.45319 0.85584 0.0
C242 C 0.33134 0.46317 0.88328 0.0
C243 C 0.51801 0.5434 0.85447 0.0
H244 H 0.63633 0.62939 0.11817 0.0
H245 H 0.65985 0.54886 -0.0035 0.0
H246 H 0.68985 0.66644 0.16752 0.0
H247 H 0.72903 0.64608 0.13382 0.0
H248 H 0.39713 0.46702 0.85693 0.0
H249 H 0.37786 0.54312 -0.00303 0.0
H250 H 0.34467 0.42823 0.81625 0.0
H251 H 0.30818 0.44566 0.86373 0.0
C252 C 0.9991 0.569 0.72675 0.0
C253 C 1.0086 0.54082 0.76858 0.0
C254 C 1.00079 0.57018 0.65796 0.0
C255 C 0.04152 0.53661 0.55121 0.0
H256 H 0.97594 0.56434 0.38136 0.0
C257 C 0.03689 0.52446 0.25275 0.0
C258 C 0.02748 0.55272 0.21107 0.0
C259 C 0.03525 0.5233 0.3216 0.0
C260 C 0.99466 0.55695 0.42853 0.0
H261 H 0.02726 0.49167 0.77015 0.0
H262 H 0.02943 0.49329 0.65021 0.0
H263 H 0.97094 0.56156 0.49857 0.0
H264 H 1.00906 0.60203 0.20987 0.0
H265 H 1.00696 0.60041 0.32987 0.0
H266 H 0.06522 0.53197 0.48114 0.0
C267 C 0.02105 0.51477 0.67082 0.0
C268 C 0.99177 0.55535 0.49575 0.0
C269 C 0.01939 0.5136 0.73939 0.0
C270 C 1.01686 0.58004 0.2405 0.0
C271 C 1.01524 0.57887 0.3091 0.0
C272 C 0.0444 0.53819 0.48398 0.0
C273 C 1.01211 0.54327 0.62957 0.0
C274 C 1.01515 0.54513 0.55795 0.0
C275 C 0.02407 0.55029 0.35018 0.0
C276 C 0.02103 0.54842 0.4218 0.0
H277 H 0.99082 0.59052 0.7476 0.0
H278 H 0.99398 0.59272 0.62798 0.0
H279 H 0.06024 0.52923 0.59837 0.0
H280 H 0.04504 0.50287 0.23172 0.0
H281 H 0.04198 0.5007 0.35147 0.0
C282 C 0.54275 0.06732 0.26658 0.0
C283 C 0.51865 1.04391 0.20329 0.0
C284 C 0.54242 0.06799 0.3366 0.0
C285 C 0.51009 1.01401 0.44501 0.0
H286 H 0.53087 0.10787 0.57032 0.0
C287 C 0.49261 1.02811 0.71452 0.0
C288 C 0.51671 0.05147 0.77788 0.0
C289 C 0.49297 1.02748 0.64453 0.0
C290 C 0.52538 0.08147 0.53629 0.0
H291 H 0.47517 1.003 0.16345 0.0
H292 H 0.47445 1.0044 0.28631 0.0
H293 H 0.53068 0.10587 0.44673 0.0
H294 H 0.56021 0.09236 0.81789 0.0
H295 H 0.56097 0.09104 0.69507 0.0
H296 H 0.50479 0.98961 0.53456 0.0
C297 C 0.49381 1.02186 0.28164 0.0
C298 C 0.52522 0.08031 0.46559 0.0
C299 C 0.49412 1.02121 0.21135 0.0
C300 C 0.54126 0.07418 0.76992 0.0
C301 C 0.5416 0.07358 0.69966 0.0
C302 C 0.51024 1.01517 0.51571 0.0
C303 C 0.51792 1.04538 0.34485 0.0
C304 C 0.5176 1.04657 0.4193 0.0
C305 C 0.51749 0.05009 0.63639 0.0
C306 C 0.51785 0.04891 0.56198 0.0
H307 H 0.5617 0.08564 0.26202 0.0
H308 H 0.56147 0.08612 0.38444 0.0
H309 H 0.50459 0.98761 0.41098 0.0
H310 H 0.47365 1.00977 0.719 0.0
H311 H 0.47392 1.00937 0.59664 0.0
C312 C 0.53537 0.57417 0.7657 0.0
C313 C 0.51848 0.54356 0.78002 0.0
C314 C 0.53517 0.57492 0.69502 0.0
C315 C 0.5196 0.51502 0.5208 0.0
H316 H 0.51295 0.60485 0.43477 0.0
C317 C 0.4995 0.5205 0.21347 0.0
C318 C 0.51636 0.55112 0.19914 0.0
C319 C 0.49968 0.51975 0.28413 0.0
C320 C 0.51519 0.57966 0.45831 0.0
H321 H 0.48889 0.48922 0.73149 0.0
H322 H 0.48801 0.49082 0.60773 0.0
H323 H 0.51344 0.60285 0.55805 0.0
H324 H 0.54586 0.60551 0.2476 0.0
H325 H 0.54672 0.60391 0.37133 0.0
H326 H 0.52136 0.49184 0.42108 0.0
C327 C 0.50157 0.51422 0.65138 0.0
C328 C 0.51546 0.57851 0.52905 0.0
C329 C 0.5018 0.51345 0.72218 0.0
C330 C 0.53298 0.58126 0.25693 0.0
C331 C 0.5332 0.5805 0.32772 0.0
C332 C 0.51933 0.51618 0.45007 0.0
C333 C 0.51814 0.54506 0.63679 0.0
C334 C 0.51769 0.54618 0.56124 0.0
C335 C 0.51667 0.54963 0.34233 0.0
C336 C 0.51711 0.54851 0.41787 0.0
H337 H 0.5486 0.59781 0.80885 0.0
H338 H 0.54861 0.59887 0.68622 0.0
H339 H 0.52184 0.48984 0.54434 0.0
H340 H 0.4863 0.49684 0.17035 0.0
H341 H 0.48626 0.49579 0.29294 0.0
C342 C 0.09856 0.53656 0.96832 0.0
C343 C 0.10027 0.5518 0.03722 0.0
C344 C 0.12569 0.53083 0.96246 0.0
C345 C 0.20715 0.52057 0.07194 0.0
H346 H 0.21978 0.55121 0.9018 0.0
C347 C 0.30088 0.47939 0.98603 0.0
C348 C 0.31729 0.50574 0.96082 0.0
C349 C 0.27643 0.48682 0.00221 0.0
C350 C 0.21677 0.5428 0.95 0.0
H351 H 0.1318 0.57345 0.15366 0.0
H352 H 0.17929 0.56295 0.14388 0.0
H353 H 0.17256 0.55908 0.91506 0.0
H354 H 0.32142 0.56098 0.93487 0.0
H355 H 0.27843 0.57402 0.96278 0.0
H356 H 0.25126 0.50395 0.10644 0.0
C357 C 0.15687 0.55507 0.09454 0.0
C358 C 0.18952 0.54691 0.95713 0.0
C359 C 0.12974 0.56118 0.10014 0.0
C360 C 0.30935 0.54022 0.95461 0.0
C361 C 0.28454 0.54752 0.96987 0.0
C362 C 0.23426 0.51603 0.06431 0.0
C363 C 0.15524 0.54027 0.02534 0.0
C364 C 0.18432 0.53579 0.01808 0.0
C365 C 0.26746 0.52068 -0.00721 0.0
C366 C 0.2394 0.52706 0.00317 0.0
H367 H 0.07642 0.52982 0.91836 0.0
H368 H 0.12355 0.51911 0.90849 0.0
H369 H 0.20379 0.51156 0.11934 0.0
H370 H 0.30654 0.4526 -0.00837 0.0
H371 H 0.26371 0.46545 0.01926 0.0
C372 C 0.69825 0.22512 0.01761 0.0
C373 C 0.6962 0.19439 0.05343 0.0
C374 C 0.7247 0.23718 0.00524 0.0
C375 C 0.80846 0.23625 0.08004 0.0
H376 H 0.80151 0.26936 0.89362 0.0
C377 C 0.91841 0.28993 0.03412 0.0
C378 C 0.91826 0.32145 -0.00046 0.0
C379 C 0.89088 0.27097 0.0352 0.0
C380 C 0.80387 0.26051 0.94627 0.0
H381 H 0.72005 0.15196 0.10369 0.0
H382 H 0.76627 0.17298 0.0818 0.0
H383 H 0.75396 0.24269 0.90543 0.0
H384 H 0.88869 0.35684 0.93629 0.0
H385 H 0.84111 0.32463 0.9404 0.0
H386 H 0.85823 0.25496 0.12186 0.0
C387 C 0.74744 0.18777 0.06352 0.0
C388 C 0.77663 0.24517 0.95291 0.0
C389 C 0.72087 0.17555 0.0754 0.0
C390 C 0.88979 0.33303 0.96454 0.0
C391 C 0.86235 0.31421 0.96594 0.0
C392 C 0.8357 0.25181 0.07361 0.0
C393 C 0.74973 0.21889 0.02889 0.0
C394 C 0.77864 0.23319 0.0201 0.0
C395 C 0.8626 0.28314 0.00188 0.0
C396 C 0.83373 0.26446 0.0069 0.0
H397 H 0.67947 0.24 -0.00043 0.0
H398 H 0.72592 0.26143 0.979 0.0
H399 H 0.81073 0.22771 0.13289 0.0
H400 H 0.93996 0.28039 0.06201 0.0
H401 H 0.89182 0.24686 0.06251 0.0
C402 C 0.50527 0.92188 0.89636 0.0
C403 C 0.51027 0.94715 0.95819 0.0
C404 C 0.50754 0.88545 0.90387 0.0
C405 C 0.50326 0.81398 0.0225 0.0
H406 H 0.53768 0.76316 0.90801 0.0
C407 C 0.51239 0.65986 0.03051 0.0
C408 C 0.50324 0.63872 0.96024 0.0
C409 C 0.51588 0.69821 0.03745 0.0
C410 C 0.52781 0.77683 0.94006 0.0
H411 H 0.51979 0.95352 0.07574 0.0
H412 H 0.52421 0.88978 0.08957 0.0
H413 H 0.53954 0.82857 0.90795 0.0
H414 H 0.48899 0.64073 0.84186 0.0
H415 H 0.49576 0.70729 0.85387 0.0
H416 H 0.49144 0.76194 0.05423 0.0
C417 C 0.51883 0.89822 0.03513 0.0
C418 C 0.52882 0.81445 0.93993 0.0
C419 C 0.51669 0.93487 0.02756 0.0
C420 C 0.49693 0.65648 0.89702 0.0
C421 C 0.50086 0.69466 0.90404 0.0
C422 C 0.50238 0.77627 0.02287 0.0
C423 C 0.51437 0.87295 0.97332 0.0
C424 C 0.51594 0.83351 0.97975 0.0
C425 C 0.51041 0.71618 0.97428 0.0
C426 C 0.51402 0.75699 0.98028 0.0
H427 H 0.49954 0.93037 0.8418 0.0
H428 H 0.5032 0.86686 0.85447 0.0
H429 H 0.49292 0.8275 0.05351 0.0
H430 H 0.51643 0.64671 0.07976 0.0
H431 H 0.52325 0.71382 0.09241 0.0
C432 C 0.93801 0.55685 0.01428 0.0
C433 C 0.93542 0.54122 0.94474 0.0
C434 C 0.91126 0.56184 0.02279 0.0
C435 C 0.82768 0.56702 0.92002 0.0
H436 H 0.8226 0.539 0.09999 0.0
C437 C 0.71672 0.56953 0.97251 0.0
C438 C 0.72255 0.58336 0.04616 0.0
C439 C 0.74132 0.56184 0.95658 0.0
C440 C 0.82367 0.54736 0.04973 0.0
H441 H 0.90266 0.51827 0.82976 0.0
H442 H 0.85573 0.52716 0.84436 0.0
H443 H 0.86834 0.53309 0.07914 0.0
H444 H 0.75859 0.59814 0.16125 0.0
H445 H 0.80114 0.5856 0.13366 0.0
H446 H 0.78317 0.58192 0.8913 0.0
C447 C 0.87857 0.53604 0.89209 0.0
C448 C 0.84999 0.54395 0.0378 0.0
C449 C 0.9054 0.53084 0.88375 0.0
C450 C 0.75326 0.588 0.10368 0.0
C451 C 0.77771 0.58038 0.08789 0.0
C452 C 0.80134 0.57069 0.93223 0.0
C453 C 0.88113 0.55105 0.96214 0.0
C454 C 0.85254 0.55407 0.97321 0.0
C455 C 0.77227 0.56757 0.01403 0.0
C456 C 0.79913 0.56129 -0.00224 0.0
H457 H 0.96056 0.56444 0.06287 0.0
H458 H 0.91417 0.57386 0.07732 0.0
H459 H 0.82895 0.57524 0.86984 0.0
H460 H 0.69338 0.56576 0.92682 0.0
H461 H 0.73609 0.55157 0.89917 0.0
C462 C 0.14531 0.76097 0.01573 0.0
C463 C 0.11676 0.77231 0.98005 0.0
C464 C 0.1728 0.77999 0.0149 0.0
C465 C 0.19971 0.84234 0.90767 0.0
H466 H 0.28112 0.85247 0.07756 0.0
C467 C 0.31476 0.9188 0.90728 0.0
C468 C 0.33965 0.90029 0.93078 0.0
C469 C 0.28806 0.9066 0.91864 0.0
C470 C 0.25855 0.84971 0.0296 0.0
H471 H 0.09496 0.81314 0.91691 0.0
H472 H 0.14319 0.84699 0.91729 0.0
H473 H 0.23339 0.82552 0.08829 0.0
H474 H 0.35658 0.8553 0.98686 0.0
H475 H 0.30989 0.83386 0.00635 0.0
H476 H 0.22495 0.86637 0.84893 0.0
C477 C 0.14415 0.82293 0.94476 0.0
C478 C 0.2312 0.83421 0.03564 0.0
C479 C 0.11658 0.80378 0.94531 0.0
C480 C 0.33764 0.86992 0.96759 0.0
C481 C 0.31105 0.85787 0.97937 0.0
C482 C 0.22704 0.85803 0.90181 0.0
C483 C 0.17252 0.81101 0.97881 0.0
C484 C 0.20147 0.82989 0.97439 0.0
C485 C 0.28581 0.87581 0.9542 0.0
C486 C 0.25677 0.86146 0.96238 0.0
H487 H 0.14642 0.73719 0.04408 0.0
H488 H 0.19411 0.76977 0.041 0.0
H489 H 0.17727 0.83892 0.85898 0.0
H490 H 0.31553 0.94211 0.87821 0.0
H491 H 0.26907 0.92114 0.89919 0.0
C492 C 0.52203 0.43475 0.94836 0.0
C493 C 0.53145 0.45596 0.01873 0.0
C494 C 0.51843 0.3964 0.94143 0.0
C495 C 0.50682 0.31789 0.03942 0.0
H496 H 0.54126 0.26704 0.92509 0.0
C497 C 0.52983 0.1731 0.08379 0.0
C498 C 0.5247 0.14771 0.02203 0.0
C499 C 0.5274 0.20946 0.07598 0.0
C500 C 0.53103 0.2806 0.95634 0.0
H501 H 0.54599 0.45402 0.13722 0.0
H502 H 0.53906 0.38745 0.12525 0.0
H503 H 0.54267 0.33258 0.92414 0.0
H504 H 0.51477 0.14104 0.90422 0.0
H505 H 0.51005 0.20467 0.88986 0.0
H506 H 0.49528 0.26622 0.07204 0.0
C507 C 0.53384 0.40004 0.07502 0.0
C508 C 0.53188 0.3183 0.95584 0.0
C509 C 0.53788 0.43823 0.08202 0.0
C510 C 0.51798 0.15979 0.95237 0.0
C511 C 0.51566 0.19638 0.94449 0.0
C512 C 0.50584 0.28029 0.03968 0.0
C513 C 0.52406 0.37847 0.00471 0.0
C514 C 0.52042 0.33765 -0.00124 0.0
C515 C 0.52026 0.22177 0.00626 0.0
C516 C 0.51858 0.26116 -0.00043 0.0
H517 H 0.51786 0.44787 0.89902 0.0
H518 H 0.51088 0.38074 0.88642 0.0
H519 H 0.49709 0.33162 0.07174 0.0
H520 H 0.53581 0.16477 0.13856 0.0
H521 H 0.53185 0.22815 0.12535 0.0
loop_
_geom_bond_atom_site_label_1
_geom_bond_atom_site_label_2
_geom_bond_distance
_geom_bond_site_symmetry_2
_ccdc_geom_bond_type
Gd0 N31 2.661 1_454 S
Gd0 N37 2.601 . S
Gd0 O44 2.545 . S
Gd0 O45 2.606 . S
Gd0 O47 2.429 . S
Gd0 O48 2.545 . S
Gd0 O49 2.412 1_554 S
Gd0 O51 2.362 1_454 S
Gd0 O52 2.324 1_554 S
Gd0 C59 2.828 . S
Gd1 N10 2.661 1_656 S
Gd1 N14 2.601 . S
Gd1 O45 2.362 1_656 S
Gd1 O46 2.324 1_556 S
Gd1 O50 2.545 . S
Gd1 O51 2.606 . S
Gd1 O53 2.429 . S
Gd1 O54 2.545 . S
Gd1 O55 2.412 1_556 S
Gd1 C68 2.828 . S
C2 C5 1.417 1_554 S
C2 C7 1.431 1_554 S
C2 C8 1.412 . S
C3 C6 1.437 . S
C3 C7 1.317 . S
C3 H22 0.929 . S
C4 C5 1.426 . S
C4 C6 1.413 . S
C4 N14 1.359 1_455 S
C5 C2 1.417 1_556 S
C5 C4 1.426 . S
C5 N10 1.350 1_556 S
C6 C3 1.437 . S
C6 C4 1.413 . S
C6 C16 1.391 1_455 S
C7 C2 1.431 1_556 S
C7 C3 1.317 . S
C7 H18 0.930 1_556 S
C8 C2 1.412 . S
C8 C9 1.355 . S
C8 H20 0.930 . S
C9 C8 1.355 . S
C9 C11 1.402 . S
C9 H21 0.930 . S
N10 Gd1 2.661 1_454 S
N10 C5 1.350 1_554 S
N10 C11 1.307 . S
C11 C9 1.402 . S
C11 N10 1.307 . S
C11 H12 0.930 . S
H12 C11 0.930 . S
C13 N14 1.334 . S
C13 C15 1.394 . S
C13 H17 0.930 . S
N14 Gd1 2.601 . S
N14 C4 1.359 1_655 S
N14 C13 1.334 . S
C15 C13 1.394 . S
C15 C16 1.359 . S
C15 H27 0.930 . S
C16 C6 1.391 1_655 S
C16 C15 1.359 . S
C16 H28 0.929 . S
H17 C13 0.930 . S
H18 C7 0.930 1_554 S
H19 C36 0.930 . S
H20 C8 0.930 . S
H21 C9 0.930 . S
H22 C3 0.929 . S
H23 C41 0.930 . S
H24 C32 0.930 . S
H25 C33 0.930 . S
H26 C57 0.929 . S
H27 C15 0.930 . S
H28 C16 0.929 . S
H29 C58 0.930 1_556 S
H30 C39 0.930 . S
N31 Gd0 2.661 1_656 S
N31 C35 1.350 1_556 S
N31 C36 1.307 . S
C32 H24 0.930 . S
C32 C33 1.355 . S
C32 C34 1.412 . S
C33 H25 0.930 . S
C33 C32 1.355 . S
C33 C36 1.402 . S
C34 C32 1.412 . S
C34 C35 1.417 1_556 S
C34 C58 1.431 1_556 S
C35 N31 1.350 1_554 S
C35 C34 1.417 1_554 S
C35 C38 1.426 . S
C36 H19 0.930 . S
C36 N31 1.307 . S
C36 C33 1.402 . S
N37 Gd0 2.601 . S
N37 C38 1.359 1_455 S
N37 C41 1.334 . S
C38 C35 1.426 . S
C38 N37 1.359 1_655 S
C38 C42 1.413 . S
C39 H30 0.930 . S
C39 C40 1.359 . S
C39 C41 1.394 . S
C40 C39 1.359 . S
C40 C42 1.391 1_455 S
C40 H43 0.929 . S
C41 H23 0.930 . S
C41 N37 1.334 . S
C41 C39 1.394 . S
C42 C38 1.413 . S
C42 C40 1.391 1_655 S
C42 C57 1.437 . S
H43 C40 0.929 . S
O44 Gd0 2.545 . S
O44 C59 1.258 . S
O45 Gd0 2.606 . S
O45 Gd1 2.362 1_454 S
O45 C56 1.284 . S
O46 Gd1 2.324 1_554 S
O46 C66 1.254 1_655 S
O47 Gd0 2.429 . S
O47 C66 1.268 . S
O48 Gd0 2.545 . S
O48 C56 1.250 . S
O49 Gd0 2.412 1_556 S
O49 C59 1.252 1_556 S
O50 Gd1 2.545 . S
O50 C68 1.258 . S
O51 Gd0 2.362 1_656 S
O51 Gd1 2.606 . S
O51 C67 1.284 . S
O52 Gd0 2.324 1_556 S
O52 C75 1.254 1_455 S
O53 Gd1 2.429 . S
O53 C75 1.268 . S
O54 Gd1 2.545 . S
O54 C67 1.250 . S
O55 Gd1 2.412 1_554 S
O55 C68 1.252 1_554 S
C56 O45 1.284 . S
C56 O48 1.250 . S
C57 H26 0.929 . S
C57 C42 1.437 . S
C57 C58 1.317 . S
C58 H29 0.930 1_554 S
C58 C34 1.431 1_554 S
C58 C57 1.317 . S
C59 Gd0 2.828 . S
C59 O44 1.258 . S
C59 O49 1.252 1_554 S
C59 C60 1.497 . S
C60 C59 1.497 . S
C60 C61 1.395 . S
C60 C62 1.380 . S
C61 C60 1.395 . S
C61 C64 1.398 . S
C61 H76 0.930 . S
C62 C60 1.380 . S
C62 C63 1.391 . S
C62 H77 0.930 1_554 S
C63 C62 1.391 . S
C63 C65 1.387 . S
C64 C61 1.398 . S
C64 C65 1.380 . S
C64 H78 0.930 . S
C65 C63 1.387 . S
C65 C64 1.380 . S
C65 H79 0.930 . S
C66 O46 1.254 1_455 S
C66 O47 1.268 . S
C67 O51 1.284 . S
C67 O54 1.250 . S
C68 Gd1 2.828 . S
C68 O50 1.258 . S
C68 O55 1.252 1_556 S
C68 C69 1.497 . S
C69 C68 1.497 . S
C69 C70 1.395 . S
C69 C71 1.380 . S
C70 C69 1.395 . S
C70 C73 1.398 . S
C70 H80 0.930 . S
C71 C69 1.380 . S
C71 C72 1.391 . S
C71 H81 0.930 1_556 S
C72 C71 1.391 . S
C72 C74 1.387 . S
C73 C70 1.398 . S
C73 C74 1.380 . S
C73 H82 0.930 . S
C74 C72 1.387 . S
C74 C73 1.380 . S
C74 H83 0.930 . S
C75 O52 1.254 1_655 S
C75 O53 1.268 . S
H76 C61 0.930 . S
H77 C62 0.930 1_556 S
H78 C64 0.930 . S
H79 C65 0.930 . S
H80 C70 0.930 . S
H81 C71 0.930 1_554 S
H82 C73 0.930 . S
H83 C74 0.930 . S
Gd84 N115 2.661 1_565 S
Gd84 N121 2.601 1_565 S
Gd84 O128 2.545 . S
Gd84 O129 2.606 1_556 S
Gd84 O131 2.429 . S
Gd84 O132 2.545 . S
Gd84 O133 2.412 . S
Gd84 O135 2.362 1_565 S
Gd84 O136 2.324 1_556 S
Gd84 C143 2.828 . S
Gd85 N94 2.661 1_545 S
Gd85 N98 2.601 1_545 S
Gd85 O129 2.362 1_545 S
Gd85 O130 2.324 1_554 S
Gd85 O134 2.545 . S
Gd85 O135 2.606 1_554 S
Gd85 O137 2.429 . S
Gd85 O138 2.545 . S
Gd85 O139 2.412 . S
Gd85 C152 2.828 . S
C86 C89 1.417 . S
C86 C91 1.431 . S
C86 C92 1.412 1_554 S
C87 C90 1.437 . S
C87 C91 1.317 . S
C87 H106 0.929 . S
C88 C89 1.426 . S
C88 C90 1.413 . S
C88 N98 1.359 . S
C89 C86 1.417 . S
C89 C88 1.426 . S
C89 N94 1.350 . S
C90 C87 1.437 . S
C90 C88 1.413 . S
C90 C100 1.391 . S
C91 C86 1.431 . S
C91 C87 1.317 . S
C91 H102 0.930 . S
C92 C86 1.412 1_556 S
C92 C93 1.355 . S
C92 H104 0.930 . S
C93 C92 1.355 . S
C93 C95 1.402 . S
C93 H105 0.930 . S
N94 Gd85 2.661 1_565 S
N94 C89 1.350 . S
N94 C95 1.307 1_554 S
C95 C93 1.402 . S
C95 N94 1.307 1_556 S
C95 H96 0.930 . S
H96 C95 0.930 . S
C97 N98 1.334 1_545 S
C97 C99 1.394 . S
C97 H101 0.930 . S
N98 Gd85 2.601 1_565 S
N98 C88 1.359 . S
N98 C97 1.334 1_565 S
C99 C97 1.394 . S
C99 C100 1.359 1_545 S
C99 H111 0.930 . S
C100 C90 1.391 . S
C100 C99 1.359 1_565 S
C100 H112 0.929 . S
H101 C97 0.930 . S
H102 C91 0.930 . S
H103 C120 0.930 . S
H104 C92 0.930 . S
H105 C93 0.930 . S
H106 C87 0.929 . S
H107 C125 0.930 . S
H108 C116 0.930 . S
H109 C117 0.930 . S
H110 C141 0.929 . S
H111 C99 0.930 . S
H112 C100 0.929 . S
H113 C142 0.930 . S
H114 C123 0.930 . S
N115 Gd84 2.661 1_545 S
N115 C119 1.350 . S
N115 C120 1.307 1_556 S
C116 H108 0.930 . S
C116 C117 1.355 . S
C116 C118 1.412 1_554 S
C117 H109 0.930 . S
C117 C116 1.355 . S
C117 C120 1.402 . S
C118 C116 1.412 1_556 S
C118 C119 1.417 . S
C118 C142 1.431 . S
C119 N115 1.350 . S
C119 C118 1.417 . S
C119 C122 1.426 . S
C120 H103 0.930 . S
C120 N115 1.307 1_554 S
C120 C117 1.402 . S
N121 Gd84 2.601 1_545 S
N121 C122 1.359 . S
N121 C125 1.334 1_545 S
C122 C119 1.426 . S
C122 N121 1.359 . S
C122 C126 1.413 . S
C123 H114 0.930 . S
C123 C124 1.359 1_565 S
C123 C125 1.394 . S
C124 C123 1.359 1_545 S
C124 C126 1.391 . S
C124 H127 0.929 . S
C125 H107 0.930 . S
C125 N121 1.334 1_565 S
C125 C123 1.394 . S
C126 C122 1.413 . S
C126 C124 1.391 . S
C126 C141 1.437 . S
H127 C124 0.929 . S
O128 Gd84 2.545 . S
O128 C143 1.258 . S
O129 Gd84 2.606 1_554 S
O129 Gd85 2.362 1_565 S
O129 C140 1.284 . S
O130 Gd85 2.324 1_556 S
O130 C150 1.252 . S
O131 Gd84 2.429 . S
O131 C150 1.264 1_565 S
O132 Gd84 2.545 . S
O132 C140 1.250 1_556 S
O133 Gd84 2.412 . S
O133 C143 1.252 . S
O134 Gd85 2.545 . S
O134 C152 1.258 . S
O135 Gd84 2.362 1_545 S
O135 Gd85 2.606 1_556 S
O135 C151 1.284 . S
O136 Gd84 2.324 1_554 S
O136 C159 1.253 . S
O137 Gd85 2.429 . S
O137 C159 1.267 1_545 S
O138 Gd85 2.545 . S
O138 C151 1.250 1_554 S
O139 Gd85 2.412 . S
O139 C152 1.252 . S
C140 O129 1.284 . S
C140 O132 1.250 1_554 S
C141 H110 0.929 . S
C141 C126 1.437 . S
C141 C142 1.317 . S
C142 H113 0.930 . S
C142 C118 1.431 . S
C142 C141 1.317 . S
C143 Gd84 2.828 . S
C143 O128 1.258 . S
C143 O133 1.252 . S
C143 C144 1.497 . S
C144 C143 1.497 . S
C144 C145 1.395 . S
C144 C146 1.380 . S
C145 C144 1.395 . S
C145 C148 1.398 . S
C145 H160 0.930 . S
C146 C144 1.380 . S
C146 C147 1.391 . S
C146 H161 0.930 1_556 S
C147 C146 1.391 . S
C147 C149 1.387 . S
C148 C145 1.398 . S
C148 C149 1.380 . S
C148 H162 0.930 . S
C149 C147 1.387 . S
C149 C148 1.380 . S
C149 H163 0.930 . S
C150 O130 1.252 . S
C150 O131 1.264 1_545 S
C151 O135 1.284 . S
C151 O138 1.250 1_556 S
C152 Gd85 2.828 . S
C152 O134 1.258 . S
C152 O139 1.252 . S
C152 C153 1.497 . S
C153 C152 1.497 . S
C153 C154 1.395 . S
C153 C155 1.380 . S
C154 C153 1.395 . S
C154 C157 1.398 . S
C154 H164 0.930 . S
C155 C153 1.380 . S
C155 C156 1.391 . S
C155 H165 0.930 1_554 S
C156 C155 1.391 . S
C156 C158 1.387 . S
C157 C154 1.398 . S
C157 C158 1.380 . S
C157 H166 0.930 . S
C158 C156 1.387 . S
C158 C157 1.380 . S
C158 H167 0.930 . S
C159 O136 1.253 . S
C159 O137 1.267 1_565 S
H160 C145 0.930 . S
H161 C146 0.930 1_554 S
H162 C148 0.930 . S
H163 C149 0.930 . S
H164 C154 0.930 . S
H165 C155 0.930 1_556 S
H166 C157 0.930 . S
H167 C158 0.930 . S
Gd168 N199 2.661 . S
Gd168 N205 2.601 . S
Gd168 O212 2.545 . S
Gd168 O213 2.606 1_554 S
Gd168 O215 2.429 . S
Gd168 O216 2.545 . S
Gd168 O217 2.412 . S
Gd168 O219 2.362 . S
Gd168 O220 2.324 1_554 S
Gd168 C227 2.828 . S
Gd169 N178 2.661 . S
Gd169 N182 2.601 . S
Gd169 O213 2.362 . S
Gd169 O214 2.324 1_556 S
Gd169 O218 2.545 . S
Gd169 O219 2.606 1_556 S
Gd169 O221 2.429 . S
Gd169 O222 2.545 . S
Gd169 O223 2.412 . S
Gd169 C236 2.828 . S
C170 C173 1.417 . S
C170 C175 1.431 . S
C170 C176 1.412 1_556 S
C171 C174 1.437 . S
C171 C175 1.317 . S
C171 H190 0.929 . S
C172 C173 1.426 . S
C172 C174 1.413 . S
C172 N182 1.359 . S
C173 C170 1.417 . S
C173 C172 1.426 . S
C173 N178 1.350 . S
C174 C171 1.437 . S
C174 C172 1.413 . S
C174 C184 1.391 . S
C175 C170 1.431 . S
C175 C171 1.317 . S
C175 H186 0.930 . S
C176 C170 1.412 1_554 S
C176 C177 1.355 . S
C176 H188 0.930 . S
C177 C176 1.355 . S
C177 C179 1.402 . S
C177 H189 0.930 . S
N178 Gd169 2.661 . S
N178 C173 1.350 . S
N178 C179 1.307 1_556 S
C179 C177 1.402 . S
C179 N178 1.307 1_554 S
C179 H180 0.930 . S
H180 C179 0.930 . S
C181 N182 1.334 . S
C181 C183 1.394 . S
C181 H185 0.930 . S
N182 Gd169 2.601 . S
N182 C172 1.359 . S
N182 C181 1.334 . S
C183 C181 1.394 . S
C183 C184 1.359 . S
C183 H195 0.930 . S
C184 C174 1.391 . S
C184 C183 1.359 . S
C184 H196 0.929 . S
H185 C181 0.930 . S
H186 C175 0.930 . S
H187 C204 0.930 . S
H188 C176 0.930 . S
H189 C177 0.930 . S
H190 C171 0.929 . S
H191 C209 0.930 . S
H192 C200 0.930 . S
H193 C201 0.930 . S
H194 C225 0.929 . S
H195 C183 0.930 . S
H196 C184 0.929 . S
H197 C226 0.930 . S
H198 C207 0.930 . S
N199 Gd168 2.661 . S
N199 C203 1.350 . S
N199 C204 1.307 1_554 S
C200 H192 0.930 . S
C200 C201 1.355 . S
C200 C202 1.412 1_556 S
C201 H193 0.930 . S
C201 C200 1.355 . S
C201 C204 1.402 . S
C202 C200 1.412 1_554 S
C202 C203 1.417 . S
C202 C226 1.431 . S
C203 N199 1.350 . S
C203 C202 1.417 . S
C203 C206 1.426 . S
C204 H187 0.930 . S
C204 N199 1.307 1_556 S
C204 C201 1.402 . S
N205 Gd168 2.601 . S
N205 C206 1.359 . S
N205 C209 1.334 . S
C206 C203 1.426 . S
C206 N205 1.359 . S
C206 C210 1.413 . S
C207 H198 0.930 . S
C207 C208 1.359 . S
C207 C209 1.394 . S
C208 C207 1.359 . S
C208 C210 1.391 . S
C208 H211 0.929 . S
C209 H191 0.930 . S
C209 N205 1.334 . S
C209 C207 1.394 . S
C210 C206 1.413 . S
C210 C208 1.391 . S
C210 C225 1.437 . S
H211 C208 0.929 . S
O212 Gd168 2.545 . S
O212 C227 1.258 . S
O213 Gd168 2.606 1_556 S
O213 Gd169 2.362 . S
O213 C224 1.284 . S
O214 Gd169 2.324 1_554 S
O214 C234 1.254 . S
O215 Gd168 2.429 . S
O215 C234 1.268 . S
O216 Gd168 2.545 . S
O216 C224 1.250 1_554 S
O217 Gd168 2.412 . S
O217 C227 1.252 . S
O218 Gd169 2.545 . S
O218 C236 1.258 . S
O219 Gd168 2.362 . S
O219 Gd169 2.606 1_554 S
O219 C235 1.284 . S
O220 Gd168 2.324 1_556 S
O220 C243 1.254 . S
O221 Gd169 2.429 . S
O221 C243 1.268 . S
O222 Gd169 2.545 . S
O222 C235 1.250 1_556 S
O223 Gd169 2.412 . S
O223 C236 1.252 . S
C224 O213 1.284 . S
C224 O216 1.250 1_556 S
C225 H194 0.929 . S
C225 C210 1.437 . S
C225 C226 1.317 . S
C226 H197 0.930 . S
C226 C202 1.431 . S
C226 C225 1.317 . S
C227 Gd168 2.828 . S
C227 O212 1.258 . S
C227 O217 1.252 . S
C227 C228 1.497 . S
C228 C227 1.497 . S
C228 C229 1.395 . S
C228 C230 1.380 . S
C229 C228 1.395 . S
C229 C232 1.398 . S
C229 H244 0.930 . S
C230 C228 1.380 . S
C230 C231 1.391 . S
C230 H245 0.930 1_554 S
C231 C230 1.391 . S
C231 C233 1.387 . S
C232 C229 1.398 . S
C232 C233 1.380 . S
C232 H246 0.930 . S
C233 C231 1.387 . S
C233 C232 1.380 . S
C233 H247 0.930 . S
C234 O214 1.254 . S
C234 O215 1.268 . S
C235 O219 1.284 . S
C235 O222 1.250 1_554 S
C236 Gd169 2.828 . S
C236 O218 1.258 . S
C236 O223 1.252 . S
C236 C237 1.497 . S
C237 C236 1.497 . S
C237 C238 1.395 . S
C237 C239 1.380 . S
C238 C237 1.395 . S
C238 C241 1.398 . S
C238 H248 0.930 . S
C239 C237 1.380 . S
C239 C240 1.391 . S
C239 H249 0.930 1_556 S
C240 C239 1.391 . S
C240 C242 1.387 . S
C241 C238 1.398 . S
C241 C242 1.380 . S
C241 H250 0.930 . S
C242 C240 1.387 . S
C242 C241 1.380 . S
C242 H251 0.930 . S
C243 O220 1.254 . S
C243 O221 1.268 . S
H244 C229 0.930 . S
H245 C230 0.930 1_556 S
H246 C232 0.930 . S
H247 C233 0.930 . S
H248 C238 0.930 . S
H249 C239 0.930 1_554 S
H250 C241 0.930 . S
H251 C242 0.930 . S
C252 C253 1.349 1_455 S
C252 C254 1.327 . S
C252 H277 0.950 . S
C253 C252 1.349 1_655 S
C253 C269 1.349 . S
C254 C252 1.327 . S
C254 C273 1.433 1_455 S
C254 H278 0.950 . S
C255 C272 1.574 . S
C255 C274 1.368 . S
C255 H279 0.949 . S
H256 C260 0.949 . S
C257 C258 1.349 1_655 S
C257 C259 1.327 . S
C257 H280 0.950 . S
C258 C257 1.349 1_455 S
C258 C270 1.349 . S
C259 C257 1.327 . S
C259 C275 1.429 1_655 S
C259 H281 0.950 . S
C260 H256 0.949 . S
C260 C268 1.574 . S
C260 C276 1.368 . S
H261 C269 0.950 . S
H262 C267 0.950 . S
H263 C268 0.949 . S
H264 C270 0.950 . S
H265 C271 0.950 . S
H266 C272 0.949 . S
C267 H262 0.950 . S
C267 C269 1.327 . S
C267 C273 1.442 . S
C268 C260 1.574 . S
C268 H263 0.949 . S
C268 C274 1.365 1_455 S
C269 C253 1.349 . S
C269 H261 0.950 . S
C269 C267 1.327 . S
C270 C258 1.349 . S
C270 H264 0.950 . S
C270 C271 1.327 . S
C271 H265 0.950 . S
C271 C270 1.327 . S
C271 C275 1.429 . S
C272 C255 1.574 . S
C272 H266 0.949 . S
C272 C276 1.362 1_655 S
C273 C254 1.433 1_655 S
C273 C267 1.442 . S
C273 C274 1.512 . S
C274 C255 1.368 . S
C274 C268 1.365 1_655 S
C274 C273 1.512 . S
C275 C259 1.429 1_455 S
C275 C271 1.429 . S
C275 C276 1.532 . S
C276 C260 1.368 . S
C276 C272 1.362 1_455 S
C276 C275 1.532 . S
H277 C252 0.950 . S
H278 C254 0.950 . S
H279 C255 0.949 . S
H280 C257 0.950 . S
H281 C259 0.950 . S
C282 C283 1.349 1_545 S
C282 C284 1.327 . S
C282 H307 0.950 . S
C283 C282 1.349 1_565 S
C283 C299 1.349 . S
C284 C282 1.327 . S
C284 C303 1.429 1_545 S
C284 H308 0.950 . S
C285 C302 1.574 . S
C285 C304 1.368 . S
C285 H309 0.949 . S
H286 C290 0.949 . S
C287 C288 1.349 1_565 S
C287 C289 1.327 . S
C287 H310 0.950 . S
C288 C287 1.349 1_545 S
C288 C300 1.349 . S
C289 C287 1.327 . S
C289 C305 1.429 1_565 S
C289 H311 0.950 . S
C290 H286 0.949 . S
C290 C298 1.574 . S
C290 C306 1.368 . S
H291 C299 0.950 . S
H292 C297 0.950 . S
H293 C298 0.949 . S
H294 C300 0.950 . S
H295 C301 0.950 . S
H296 C302 0.949 . S
C297 H292 0.950 . S
C297 C299 1.327 . S
C297 C303 1.429 . S
C298 C290 1.574 . S
C298 H293 0.949 . S
C298 C304 1.368 1_545 S
C299 C283 1.349 . S
C299 H291 0.950 . S
C299 C297 1.327 . S
C300 C288 1.349 . S
C300 H294 0.950 . S
C300 C301 1.327 . S
C301 H295 0.950 . S
C301 C300 1.327 . S
C301 C305 1.429 . S
C302 C285 1.574 . S
C302 H296 0.949 . S
C302 C306 1.368 1_565 S
C303 C284 1.429 1_565 S
C303 C297 1.429 . S
C303 C304 1.523 . S
C304 C285 1.368 . S
C304 C298 1.368 1_565 S
C304 C303 1.523 . S
C305 C289 1.429 1_545 S
C305 C301 1.429 . S
C305 C306 1.523 . S
C306 C290 1.368 . S
C306 C302 1.368 1_545 S
C306 C305 1.523 . S
H307 C282 0.950 . S
H308 C284 0.950 . S
H309 C285 0.949 . S
H310 C287 0.950 . S
H311 C289 0.950 . S
C312 C313 1.349 . S
C312 C314 1.327 . S
C312 H337 0.950 . S
C313 C312 1.349 . S
C313 C329 1.349 . S
C314 C312 1.327 . S
C314 C333 1.429 . S
C314 H338 0.950 . S
C315 C332 1.574 . S
C315 C334 1.368 . S
C315 H339 0.949 . S
H316 C320 0.949 . S
C317 C318 1.349 . S
C317 C319 1.327 . S
C317 H340 0.950 . S
C318 C317 1.349 . S
C318 C330 1.349 . S
C319 C317 1.327 . S
C319 C335 1.429 . S
C319 H341 0.950 . S
C320 H316 0.949 . S
C320 C328 1.574 . S
C320 C336 1.368 . S
H321 C329 0.950 . S
H322 C327 0.950 . S
H323 C328 0.949 . S
H324 C330 0.950 . S
H325 C331 0.950 . S
H326 C332 0.949 . S
C327 H322 0.950 . S
C327 C329 1.327 . S
C327 C333 1.429 . S
C328 C320 1.574 . S
C328 H323 0.949 . S
C328 C334 1.368 . S
C329 C313 1.349 . S
C329 H321 0.950 . S
C329 C327 1.327 . S
C330 C318 1.349 . S
C330 H324 0.950 . S
C330 C331 1.327 . S
C331 H325 0.950 . S
C331 C330 1.327 . S
C331 C335 1.429 . S
C332 C315 1.574 . S
C332 H326 0.949 . S
C332 C336 1.368 . S
C333 C314 1.429 . S
C333 C327 1.429 . S
C333 C334 1.523 . S
C334 C315 1.368 . S
C334 C328 1.368 . S
C334 C333 1.523 . S
C335 C319 1.429 . S
C335 C331 1.429 . S
C335 C336 1.523 . S
C336 C320 1.368 . S
C336 C332 1.368 . S
C336 C335 1.523 . S
H337 C312 0.950 . S
H338 C314 0.950 . S
H339 C315 0.949 . S
H340 C317 0.950 . S
H341 C319 0.950 . S
C342 C343 1.349 1_556 S
C342 C344 1.327 . S
C342 H367 0.950 . S
C343 C342 1.349 1_554 S
C343 C359 1.349 . S
C344 C342 1.327 . S
C344 C363 1.429 1_556 S
C344 H368 0.950 . S
C345 C362 1.574 . S
C345 C364 1.368 . S
C345 H369 0.949 . S
H346 C350 0.949 . S
C347 C348 1.349 1_554 S
C347 C349 1.327 . S
C347 H370 0.950 . S
C348 C347 1.349 1_556 S
C348 C360 1.349 . S
C349 C347 1.327 . S
C349 C365 1.429 . S
C349 H371 0.950 . S
C350 H346 0.949 . S
C350 C358 1.574 . S
C350 C366 1.368 1_556 S
H351 C359 0.950 . S
H352 C357 0.950 . S
H353 C358 0.949 . S
H354 C360 0.950 . S
H355 C361 0.950 . S
H356 C362 0.949 . S
C357 H352 0.950 . S
C357 C359 1.327 . S
C357 C363 1.429 . S
C358 C350 1.574 . S
C358 H353 0.949 . S
C358 C364 1.368 1_556 S
C359 C343 1.349 . S
C359 H351 0.950 . S
C359 C357 1.327 . S
C360 C348 1.349 . S
C360 H354 0.950 . S
C360 C361 1.327 . S
C361 H355 0.950 . S
C361 C360 1.327 . S
C361 C365 1.429 1_556 S
C362 C345 1.574 . S
C362 H356 0.949 . S
C362 C366 1.368 . S
C363 C344 1.429 1_554 S
C363 C357 1.429 . S
C363 C364 1.523 . S
C364 C345 1.368 . S
C364 C358 1.368 1_554 S
C364 C363 1.523 . S
C365 C349 1.429 . S
C365 C361 1.429 1_554 S
C365 C366 1.523 . S
C366 C350 1.368 1_554 S
C366 C362 1.368 . S
C366 C365 1.523 . S
H367 C342 0.950 . S
H368 C344 0.950 . S
H369 C345 0.949 . S
H370 C347 0.950 . S
H371 C349 0.950 . S
C372 C373 1.349 1_556 S
C372 C374 1.327 . S
C372 H397 0.950 . S
C373 C372 1.349 1_554 S
C373 C389 1.349 . S
C374 C372 1.327 . S
C374 C393 1.429 1_556 S
C374 H398 0.950 . S
C375 C392 1.574 . S
C375 C394 1.368 . S
C375 H399 0.949 . S
H376 C380 0.949 . S
C377 C378 1.349 . S
C377 C379 1.327 . S
C377 H400 0.950 . S
C378 C377 1.349 . S
C378 C390 1.349 1_554 S
C379 C377 1.327 . S
C379 C395 1.429 . S
C379 H401 0.950 . S
C380 H376 0.949 . S
C380 C388 1.574 . S
C380 C396 1.368 1_556 S
H381 C389 0.950 . S
H382 C387 0.950 . S
H383 C388 0.949 . S
H384 C390 0.950 . S
H385 C391 0.950 . S
H386 C392 0.949 . S
C387 H382 0.950 . S
C387 C389 1.327 . S
C387 C393 1.429 . S
C388 C380 1.574 . S
C388 H383 0.949 . S
C388 C394 1.368 1_556 S
C389 C373 1.349 . S
C389 H381 0.950 . S
C389 C387 1.327 . S
C390 C378 1.349 1_556 S
C390 H384 0.950 . S
C390 C391 1.327 . S
C391 H385 0.950 . S
C391 C390 1.327 . S
C391 C395 1.429 1_556 S
C392 C375 1.574 . S
C392 H386 0.949 . S
C392 C396 1.368 . S
C393 C374 1.429 1_554 S
C393 C387 1.429 . S
C393 C394 1.523 . S
C394 C375 1.368 . S
C394 C388 1.368 1_554 S
C394 C393 1.523 . S
C395 C379 1.429 . S
C395 C391 1.429 1_554 S
C395 C396 1.523 . S
C396 C380 1.368 1_554 S
C396 C392 1.368 . S
C396 C395 1.523 . S
H397 C372 0.950 . S
H398 C374 0.950 . S
H399 C375 0.949 . S
H400 C377 0.950 . S
H401 C379 0.950 . S
C402 C403 1.349 1_556 S
C402 C404 1.327 . S
C402 H427 0.950 . S
C403 C402 1.349 1_554 S
C403 C419 1.349 . S
C404 C402 1.327 . S
C404 C423 1.429 1_556 S
C404 H428 0.950 . S
C405 C422 1.574 . S
C405 C424 1.368 . S
C405 H429 0.949 . S
H406 C410 0.949 . S
C407 C408 1.349 . S
C407 C409 1.327 . S
C407 H430 0.950 . S
C408 C407 1.349 . S
C408 C420 1.349 1_554 S
C409 C407 1.327 . S
C409 C425 1.429 . S
C409 H431 0.950 . S
C410 H406 0.949 . S
C410 C418 1.574 . S
C410 C426 1.368 1_556 S
H411 C419 0.950 . S
H412 C417 0.950 . S
H413 C418 0.949 . S
H414 C420 0.950 . S
H415 C421 0.950 . S
H416 C422 0.949 . S
C417 H412 0.950 . S
C417 C419 1.327 . S
C417 C423 1.429 . S
C418 C410 1.574 . S
C418 H413 0.949 . S
C418 C424 1.368 1_556 S
C419 C403 1.349 . S
C419 H411 0.950 . S
C419 C417 1.327 . S
C420 C408 1.349 1_556 S
C420 H414 0.950 . S
C420 C421 1.327 . S
C421 H415 0.950 . S
C421 C420 1.327 . S
C421 C425 1.429 1_556 S
C422 C405 1.574 . S
C422 H416 0.949 . S
C422 C426 1.368 . S
C423 C404 1.429 1_554 S
C423 C417 1.429 . S
C423 C424 1.523 . S
C424 C405 1.368 . S
C424 C418 1.368 1_554 S
C424 C423 1.523 . S
C425 C409 1.429 . S
C425 C421 1.429 1_554 S
C425 C426 1.523 . S
C426 C410 1.368 1_554 S
C426 C422 1.368 . S
C426 C425 1.523 . S
H427 C402 0.950 . S
H428 C404 0.950 . S
H429 C405 0.949 . S
H430 C407 0.950 . S
H431 C409 0.950 . S
C432 C433 1.349 . S
C432 C434 1.327 . S
C432 H457 0.950 . S
C433 C432 1.349 . S
C433 C449 1.349 . S
C434 C432 1.327 . S
C434 C453 1.429 . S
C434 H458 0.950 . S
C435 C452 1.574 . S
C435 C454 1.368 1_554 S
C435 H459 0.949 . S
H436 C440 0.949 . S
C437 C438 1.349 . S
C437 C439 1.327 . S
C437 H460 0.950 . S
C438 C437 1.349 . S
C438 C450 1.349 1_554 S
C439 C437 1.327 . S
C439 C455 1.425 1_554 S
C439 H461 0.950 . S
C440 H436 0.949 . S
C440 C448 1.574 . S
C440 C456 1.368 . S
H441 C449 0.950 1_554 S
H442 C447 0.948 1_554 S
H443 C448 0.949 . S
H444 C450 0.950 . S
H445 C451 0.950 . S
H446 C452 0.949 . S
C447 H442 0.948 1_556 S
C447 C449 1.331 . S
C447 C453 1.426 . S
C448 C440 1.574 . S
C448 H443 0.949 . S
C448 C454 1.368 . S
C449 C433 1.349 . S
C449 H441 0.950 1_556 S
C449 C447 1.331 . S
C450 C438 1.349 1_556 S
C450 H444 0.950 . S
C450 C451 1.327 . S
C451 H445 0.950 . S
C451 C450 1.327 . S
C451 C455 1.424 . S
C452 C435 1.574 . S
C452 H446 0.949 . S
C452 C456 1.368 1_554 S
C453 C434 1.429 . S
C453 C447 1.426 . S
C453 C454 1.523 . S
C454 C435 1.368 1_556 S
C454 C448 1.368 . S
C454 C453 1.523 . S
C455 C439 1.425 1_556 S
C455 C451 1.424 . S
C455 C456 1.530 . S
C456 C440 1.368 . S
C456 C452 1.368 1_556 S
C456 C455 1.530 . S
H457 C432 0.950 . S
H458 C434 0.950 . S
H459 C435 0.949 . S
H460 C437 0.950 . S
H461 C439 0.950 . S
C462 C463 1.349 1_554 S
C462 C464 1.327 . S
C462 H487 0.950 . S
C463 C462 1.349 1_556 S
C463 C479 1.349 . S
C464 C462 1.327 . S
C464 C483 1.429 1_554 S
C464 H488 0.950 . S
C465 C482 1.574 . S
C465 C484 1.368 . S
C465 H489 0.949 . S
H466 C470 0.949 . S
C467 C468 1.349 . S
C467 C469 1.327 . S
C467 H490 0.950 . S
C468 C467 1.349 . S
C468 C480 1.349 1_556 S
C469 C467 1.327 . S
C469 C485 1.429 . S
C469 H491 0.950 . S
C470 H466 0.949 . S
C470 C478 1.574 . S
C470 C486 1.368 1_554 S
H471 C479 0.950 . S
H472 C477 0.950 . S
H473 C478 0.949 . S
H474 C480 0.950 . S
H475 C481 0.950 . S
H476 C482 0.949 . S
C477 H472 0.950 . S
C477 C479 1.327 . S
C477 C483 1.429 . S
C478 C470 1.574 . S
C478 H473 0.949 . S
C478 C484 1.368 1_554 S
C479 C463 1.349 . S
C479 H471 0.950 . S
C479 C477 1.327 . S
C480 C468 1.349 1_554 S
C480 H474 0.950 . S
C480 C481 1.327 . S
C481 H475 0.950 . S
C481 C480 1.327 . S
C481 C485 1.429 1_554 S
C482 C465 1.574 . S
C482 H476 0.949 . S
C482 C486 1.368 . S
C483 C464 1.429 1_556 S
C483 C477 1.429 . S
C483 C484 1.523 . S
C484 C465 1.368 . S
C484 C478 1.368 1_556 S
C484 C483 1.523 . S
C485 C469 1.429 . S
C485 C481 1.429 1_556 S
C485 C486 1.523 . S
C486 C470 1.368 1_556 S
C486 C482 1.368 . S
C486 C485 1.523 . S
H487 C462 0.950 . S
H488 C464 0.950 . S
H489 C465 0.949 . S
H490 C467 0.950 . S
H491 C469 0.950 . S
C492 C493 1.349 . S
C492 C494 1.327 . S
C492 H517 0.950 . S
C493 C492 1.349 . S
C493 C509 1.349 1_556 S
C494 C492 1.327 . S
C494 C513 1.429 . S
C494 H518 0.950 . S
C495 C512 1.574 . S
C495 C514 1.368 1_554 S
C495 H519 0.949 . S
H496 C500 0.949 . S
C497 C498 1.349 1_554 S
C497 C499 1.327 . S
C497 H520 0.950 . S
C498 C497 1.349 1_556 S
C498 C510 1.349 . S
C499 C497 1.327 . S
C499 C515 1.429 1_554 S
C499 H521 0.950 . S
C500 H496 0.949 . S
C500 C508 1.574 . S
C500 C516 1.368 . S
H501 C509 0.950 . S
H502 C507 0.950 . S
H503 C508 0.949 . S
H504 C510 0.950 . S
H505 C511 0.950 . S
H506 C512 0.949 . S
C507 H502 0.950 . S
C507 C509 1.327 . S
C507 C513 1.429 1_554 S
C508 C500 1.574 . S
C508 H503 0.949 . S
C508 C514 1.368 . S
C509 C493 1.349 1_554 S
C509 H501 0.950 . S
C509 C507 1.327 . S
C510 C498 1.349 . S
C510 H504 0.950 . S
C510 C511 1.327 . S
C511 H505 0.950 . S
C511 C510 1.327 . S
C511 C515 1.429 . S
C512 C495 1.574 . S
C512 H506 0.949 . S
C512 C516 1.368 1_554 S
C513 C494 1.429 . S
C513 C507 1.429 1_556 S
C513 C514 1.523 . S
C514 C495 1.368 1_556 S
C514 C508 1.368 . S
C514 C513 1.523 . S
C515 C499 1.429 1_556 S
C515 C511 1.429 . S
C515 C516 1.523 . S
C516 C500 1.368 . S
C516 C512 1.368 1_556 S
C516 C515 1.523 . S
H517 C492 0.950 . S
H518 C494 0.950 . S
H519 C495 0.949 . S
H520 C497 0.950 . S
H521 C499 0.950 . S
C253 C75 1.486 . S
C258 C66 1.486 . S
C283 C159 1.478 . S
C288 C150 1.480 . S
C313 C243 1.489 . S
C318 C234 1.489 . S
C343 C56 1.521 . S
C348 C240 1.427 . S
C373 C156 0.768 . S
C378 C72 0.772 1_554 S
C403 C140 2.286 . S
C408 C235 2.332 . S
C433 C67 1.521 . S
C438 C231 1.436 . S
C463 C63 0.769 1_556 S
C468 C147 0.769 . S
C493 C224 2.328 . S
C498 C151 2.282 . S
