# Generated by pormake.
# Topology smi, (6)-cn, num edge types: 1
# Building blocks:
#     Node 0, Type 0, BuildingBlock: IZENUY_clean_sbu_0, # of connection points: 6
#     Node 1, Type 0, BuildingBlock: IZENUY_clean_sbu_0, # of connection points: 6
#     Node 2, Type 0, BuildingBlock: IZENUY_clean_sbu_0, # of connection points: 6
#     Node 3, Type 0, BuildingBlock: IZENUY_clean_sbu_0, # of connection points: 6
#     Node 4, Type 0, BuildingBlock: IZENUY_clean_sbu_0, # of connection points: 6
#     Node 5, Type 0, BuildingBlock: IZENUY_clean_sbu_0, # of connection points: 6
#     Edge 6, Type (0, 0), BuildingBlock: KIFKEQ_clean_linker_1, # of connection points: 2
#     Edge 7, Type (0, 0), BuildingBlock: KIFKEQ_clean_linker_1, # of connection points: 2
#     Edge 8, Type (0, 0), BuildingBlock: KIFKEQ_clean_linker_1, # of connection points: 2
#     Edge 9, Type (0, 0), BuildingBlock: KIFKEQ_clean_linker_1, # of connection points: 2
#     Edge 10, Type (0, 0), BuildingBlock: KIFKEQ_clean_linker_1, # of connection points: 2
#     Edge 11, Type (0, 0), BuildingBlock: KIFKEQ_clean_linker_1, # of connection points: 2
#     Edge 12, Type (0, 0), BuildingBlock: KIFKEQ_clean_linker_1, # of connection points: 2
#     Edge 13, Type (0, 0), BuildingBlock: KIFKEQ_clean_linker_1, # of connection points: 2
#     Edge 14, Type (0, 0), BuildingBlock: KIFKEQ_clean_linker_1, # of connection points: 2
#     Edge 15, Type (0, 0), BuildingBlock: KIFKEQ_clean_linker_1, # of connection points: 2
#     Edge 16, Type (0, 0), BuildingBlock: KIFKEQ_clean_linker_1, # of connection points: 2
#     Edge 17, Type (0, 0), BuildingBlock: KIFKEQ_clean_linker_1, # of connection points: 2
#     Edge 18, Type (0, 0), BuildingBlock: KIFKEQ_clean_linker_1, # of connection points: 2
#     Edge 19, Type (0, 0), BuildingBlock: KIFKEQ_clean_linker_1, # of connection points: 2
#     Edge 20, Type (0, 0), BuildingBlock: KIFKEQ_clean_linker_1, # of connection points: 2
#     Edge 21, Type (0, 0), BuildingBlock: KIFKEQ_clean_linker_1, # of connection points: 2
#     Edge 22, Type (0, 0), BuildingBlock: KIFKEQ_clean_linker_1, # of connection points: 2
#     Edge 23, Type (0, 0), BuildingBlock: KIFKEQ_clean_linker_1, # of connection points: 2
# Relax obj value: 0.337
# Max RMSD: 0.277
# Mean RMSD: 0.276
data_MOF--net-smi--node1-IZENUY_clean_sbu_0--edge1-KIFKEQ_clean_linker_1
_symmetry_space_group_name_H-M    P1
_symmetry_Int_Tables_number       1
_symmetry_cell_setting            triclinic
loop_
_symmetry_equiv_pos_as_xyz
'x, y, z'
_cell_length_a     27.291644
_cell_length_b     27.247702
_cell_length_c     40.715262
_cell_angle_alpha  90.036559
_cell_angle_beta   90.019116
_cell_angle_gamma 120.2034
loop_
_atom_site_label
_atom_site_type_symbol
_atom_site_fract_x
_atom_site_fract_y
_atom_site_fract_z
_atom_type_partial_charge
Fe0 Fe 0.09828 0.57433 0.11876 0.0
Fe1 Fe 0.20991 0.60862 0.08309 0.0
O2 O 0.13497 0.56936 0.08404 0.0
Fe3 Fe 0.09766 0.52545 0.05012 0.0
O4 O 0.0604 0.56347 0.04358 0.0
O5 O 0.03774 0.56848 0.09488 0.0
O6 O 0.13121 0.65125 0.11554 0.0
C7 C 0.18414 0.68436 0.11617 0.0
C8 C 0.03405 0.46015 0.10534 0.0
O9 O 0.2175 0.66652 0.10922 0.0
C10 C 0.18635 0.50709 0.05011 0.0
O11 O 0.1522 0.58025 0.14818 0.0
O12 O 0.21384 0.56993 0.11822 0.0
O13 O 0.03906 0.47022 0.07475 0.0
O14 O 0.06311 0.49872 0.12571 0.0
C15 C 0.18549 0.62617 0.02098 0.0
O16 O 0.21809 0.55915 0.05647 0.0
O17 O 0.13338 0.48416 0.05352 0.0
C18 C 0.19086 0.56746 0.14561 0.0
O19 O 0.20906 0.64895 0.04792 0.0
O20 O 0.14893 0.5736 0.01949 0.0
C21 C 0.03219 0.57333 0.06427 0.0
Fe22 Fe 0.5763 0.09416 0.21858 0.0
Fe23 Fe 0.60771 0.20597 0.25298 0.0
O24 O 0.57079 0.13083 0.25309 0.0
Fe25 Fe 0.52892 0.09356 0.28757 0.0
O26 O 0.56804 0.05734 0.29365 0.0
O27 O 0.5727 0.03457 0.24241 0.0
O28 O 0.65346 0.12954 0.22171 0.0
C29 C 0.68411 0.1826 0.21867 0.0
C30 C 0.46257 0.0288 0.23282 0.0
O31 O 0.66427 0.21444 0.22534 0.0
C32 C 0.50796 0.18085 0.28798 0.0
O33 O 0.57942 0.1467 0.18884 0.0
O34 O 0.56571 0.20643 0.2186 0.0
O35 O 0.47297 0.03394 0.26343 0.0
O36 O 0.50082 0.05716 0.21221 0.0
C37 C 0.63046 0.18472 0.31466 0.0
O38 O 0.55927 0.2135 0.28067 0.0
O39 O 0.48623 0.12789 0.28501 0.0
C40 C 0.56404 0.18355 0.19125 0.0
O41 O 0.6509 0.20835 0.28735 0.0
O42 O 0.57861 0.14624 0.31733 0.0
C43 C 0.57795 0.02921 0.27295 0.0
Fe44 Fe 0.40026 0.6023 0.41584 0.0
Fe45 Fe 0.43273 0.52463 0.45274 0.0
O46 O 0.43851 0.56575 0.41756 0.0
Fe47 Fe 0.48232 0.57057 0.3839 0.0
O48 O 0.52506 0.64764 0.38678 0.0
O49 O 0.45206 0.6606 0.39038 0.0
O50 O 0.43726 0.64474 0.45134 0.0
C51 C 0.4398 0.62472 0.47882 0.0
C52 C 0.3839 0.56032 0.35361 0.0
O53 O 0.42726 0.57333 0.48178 0.0
C54 C 0.43327 0.45739 0.39908 0.0
O55 O 0.34102 0.55171 0.44109 0.0
O56 O 0.35588 0.48071 0.4494 0.0
O57 O 0.43596 0.57492 0.35263 0.0
O58 O 0.36099 0.56168 0.38025 0.0
C59 C 0.54657 0.57354 0.43978 0.0
O60 O 0.43822 0.46914 0.42953 0.0
O61 O 0.44273 0.49471 0.37786 0.0
C62 C 0.323 0.50065 0.44897 0.0
O63 O 0.50811 0.56532 0.45978 0.0
O64 O 0.53648 0.56636 0.4092 0.0
C65 C 0.50418 0.6797 0.38508 0.0
Fe66 Fe 0.80189 0.40482 0.58676 0.0
Fe67 Fe 0.91244 0.48269 0.55015 0.0
O68 O 0.87693 0.44217 0.58548 0.0
Fe69 Fe 0.91564 0.43835 0.61951 0.0
O70 O 0.88063 0.36098 0.61753 0.0
O71 O 0.79511 0.34853 0.61403 0.0
O72 O 0.79777 0.3612 0.55211 0.0
C73 C 0.82024 0.38102 0.52453 0.0
C74 C 0.82638 0.44931 0.64836 0.0
O75 O 0.85825 0.43285 0.52132 0.0
C76 C 0.98061 0.55127 0.60345 0.0
O77 O 0.79316 0.4538 0.56015 0.0
O78 O 0.87897 0.52601 0.55301 0.0
O79 O 0.86483 0.43608 0.65027 0.0
O80 O 0.80226 0.44649 0.62138 0.0
C81 C 0.97732 0.43416 0.56404 0.0
O82 O 0.97351 0.53908 0.57306 0.0
O83 O 0.95266 0.51431 0.62481 0.0
C84 C 0.82594 0.50528 0.55294 0.0
O85 O 0.9476 0.44254 0.54373 0.0
O86 O 0.97389 0.44121 0.5946 0.0
C87 C 0.82777 0.32984 0.621 0.0
Fe88 Fe 0.44102 0.91249 0.71745 0.0
Fe89 Fe 0.40701 0.7989 0.75073 0.0
O90 O 0.44518 0.87402 0.75148 0.0
Fe91 Fe 0.48673 0.90979 0.7865 0.0
O92 O 0.44711 0.94542 0.79329 0.0
O93 O 0.44447 0.97109 0.74239 0.0
O94 O 0.36379 0.87789 0.71964 0.0
C95 C 0.33231 0.82496 0.71636 0.0
C96 C 0.55412 0.97738 0.73291 0.0
O97 O 0.35054 0.79204 0.72366 0.0
C98 C 0.50806 0.82253 0.78361 0.0
O99 O 0.43808 0.86106 0.68688 0.0
O100 O 0.44745 0.79781 0.71591 0.0
O101 O 0.54252 0.97062 0.76333 0.0
O102 O 0.51678 0.94925 0.71176 0.0
C103 C 0.38562 0.81897 0.81307 0.0
O104 O 0.4562 0.79006 0.77714 0.0
O105 O 0.52941 0.87575 0.78306 0.0
C106 C 0.45063 0.82208 0.68891 0.0
O107 O 0.36456 0.79664 0.7856 0.0
O108 O 0.43784 0.85591 0.81567 0.0
C109 C 0.43808 0.97478 0.77302 0.0
Fe110 Fe 0.60564 0.3972 0.92129 0.0
Fe111 Fe 0.57458 0.47968 0.9535 0.0
O112 O 0.56945 0.43582 0.91973 0.0
Fe113 Fe 0.52836 0.4303 0.88459 0.0
O114 O 0.48422 0.35339 0.88785 0.0
O115 O 0.55491 0.33811 0.89593 0.0
O116 O 0.565 0.35783 0.95678 0.0
C117 C 0.56367 0.38063 0.98349 0.0
C118 C 0.62805 0.43692 0.85838 0.0
O119 O 0.57864 0.43288 0.98467 0.0
C120 C 0.57764 0.5443 0.89772 0.0
O121 O 0.66398 0.44878 0.94685 0.0
O122 O 0.65152 0.52218 0.95064 0.0
O123 O 0.57678 0.42461 0.85545 0.0
O124 O 0.64804 0.43428 0.88585 0.0
C125 C 0.46158 0.43108 0.93836 0.0
O126 O 0.57062 0.53421 0.9283 0.0
O127 O 0.56927 0.50576 0.87767 0.0
C128 C 0.68331 0.50101 0.95223 0.0
O129 O 0.49887 0.44033 0.95953 0.0
O130 O 0.4732 0.43608 0.9079 0.0
C131 C 0.5039 0.32026 0.8882 0.0
H132 H 0.16817 0.58143 0.20905 0.0
H133 H 0.26643 0.5295 0.15053 0.0
H134 H 0.21165 0.57137 0.25859 0.0
H135 H 0.3087 0.51744 0.20046 0.0
H136 H 0.26971 0.51538 0.34578 0.0
H137 H 0.21878 0.50716 0.29502 0.0
H138 H 0.37594 0.57674 0.2408 0.0
H139 H 0.42632 0.58296 0.29125 0.0
C140 C 0.19845 0.56701 0.20677 0.0
C141 C 0.21424 0.55681 0.17579 0.0
C142 C 0.22312 0.56078 0.23529 0.0
C143 C 0.26379 0.54365 0.23358 0.0
C144 C 0.2782 0.5316 0.20263 0.0
C145 C 0.25382 0.53829 0.17402 0.0
C146 C 0.29323 0.52831 0.32294 0.0
C147 C 0.35212 0.55034 0.32258 0.0
C148 C 0.2641 0.52386 0.29387 0.0
C149 C 0.29332 0.54187 0.26384 0.0
C150 C 0.3519 0.56184 0.26337 0.0
C151 C 0.38091 0.56575 0.29238 0.0
H152 H 0.72177 0.29075 0.32348 0.0
H153 H 0.61543 0.13261 0.37396 0.0
H154 H 0.77053 0.33361 0.37456 0.0
H155 H 0.6662 0.17447 0.42499 0.0
H156 H 0.71402 0.28986 0.51577 0.0
H157 H 0.67235 0.23886 0.46493 0.0
H158 H 0.83303 0.34011 0.41556 0.0
H159 H 0.87354 0.39304 0.46613 0.0
C160 C 0.70969 0.26475 0.3454 0.0
C161 C 0.66447 0.20848 0.3448 0.0
C162 C 0.73791 0.28923 0.37477 0.0
C163 C 0.72226 0.25771 0.40414 0.0
C164 C 0.67863 0.20051 0.4031 0.0
C165 C 0.64974 0.17634 0.37381 0.0
C166 C 0.7405 0.30079 0.4941 0.0
C167 C 0.79679 0.34582 0.49477 0.0
C168 C 0.71675 0.27129 0.46492 0.0
C169 C 0.74909 0.28551 0.43588 0.0
C170 C 0.80633 0.32885 0.43713 0.0
C171 C 0.82973 0.35901 0.46616 0.0
H172 H 0.48445 0.87344 0.62905 0.0
H173 H 0.43651 0.71663 0.67999 0.0
H174 H 0.49179 0.83116 0.57783 0.0
H175 H 0.44072 0.67338 0.62883 0.0
H176 H 0.48271 0.61398 0.53692 0.0
H177 H 0.49599 0.66744 0.58733 0.0
H178 H 0.43247 0.7654 0.53861 0.0
H179 H 0.42241 0.71401 0.48787 0.0
C180 C 0.47556 0.82995 0.62927 0.0
C181 C 0.45975 0.79831 0.65848 0.0
C182 C 0.47935 0.80553 0.59989 0.0
C183 C 0.46643 0.74859 0.59899 0.0
C184 C 0.45202 0.71757 0.62851 0.0
C185 C 0.44923 0.74229 0.65792 0.0
C186 C 0.47213 0.64735 0.53702 0.0
C187 C 0.45111 0.65957 0.50862 0.0
C188 C 0.47941 0.67783 0.56594 0.0
C189 C 0.46471 0.72045 0.5673 0.0
C190 C 0.4451 0.73358 0.5385 0.0
C191 C 0.4389 0.70382 0.5094 0.0
H192 H 0.61782 0.4804 0.80032 0.0
H193 H 0.71667 0.41872 0.84927 0.0
H194 H 0.67151 0.49402 0.75004 0.0
H195 H 0.76823 0.42901 0.79865 0.0
H196 H 0.87695 0.48141 0.70861 0.0
H197 H 0.83436 0.48816 0.75983 0.0
H198 H 0.67794 0.43989 0.70814 0.0
H199 H 0.72154 0.43637 0.65705 0.0
C200 C 0.65095 0.46955 0.80022 0.0
C201 C 0.66281 0.44811 0.82857 0.0
C202 C 0.68157 0.47702 0.77136 0.0
C203 C 0.72397 0.46205 0.76999 0.0
C204 C 0.73663 0.4419 0.79875 0.0
C205 C 0.70676 0.43554 0.82778 0.0
C206 C 0.83371 0.47304 0.70825 0.0
C207 C 0.80257 0.45823 0.67886 0.0
C208 C 0.80908 0.47646 0.73764 0.0
C209 C 0.7524 0.46414 0.73835 0.0
C210 C 0.72192 0.45073 0.70865 0.0
C211 C 0.74686 0.44833 0.67925 0.0
H212 H 0.25533 0.74087 0.01364 0.0
H213 H 0.16548 0.58447 0.95848 0.0
H214 H 0.29781 0.79244 0.96292 0.0
H215 H 0.20926 0.63543 0.90818 0.0
H216 H 0.27135 0.74441 0.81815 0.0
H217 H 0.21692 0.7029 0.86822 0.0
H218 H 0.36889 0.79984 0.92608 0.0
H219 H 0.42253 0.84256 0.87644 0.0
C220 C 0.24449 0.71755 0.9907 0.0
C221 C 0.20745 0.65853 0.99014 0.0
C222 C 0.26899 0.74703 0.96165 0.0
C223 C 0.25736 0.71803 0.93147 0.0
C224 C 0.21865 0.65932 0.93085 0.0
C225 C 0.19379 0.62998 0.9598 0.0
C226 C 0.29294 0.7572 0.84161 0.0
C227 C 0.35137 0.79637 0.84327 0.0
C228 C 0.26181 0.73327 0.8703 0.0
C229 C 0.28856 0.74775 0.9012 0.0
C230 C 0.34664 0.78827 0.90281 0.0
C231 C 0.37758 0.81246 0.87423 0.0
H232 H 0.57964 0.16158 0.12795 0.0
H233 H 0.52465 0.25804 0.1859 0.0
H234 H 0.5712 0.206 0.07835 0.0
H235 H 0.51441 0.30137 0.13588 0.0
H236 H 0.58427 0.42178 0.04627 0.0
H237 H 0.5759 0.37003 0.09654 0.0
H238 H 0.50829 0.21391 0.04107 0.0
H239 H 0.51851 0.26612 0.99056 0.0
C240 C 0.56478 0.19158 0.13008 0.0
C241 C 0.5533 0.20662 0.16095 0.0
C242 C 0.55956 0.21683 0.10153 0.0
C243 C 0.54225 0.25742 0.10307 0.0
C244 C 0.52874 0.27095 0.13386 0.0
C245 C 0.53434 0.24592 0.16251 0.0
C246 C 0.56707 0.37632 0.04482 0.0
C247 C 0.55275 0.34818 0.01436 0.0
C248 C 0.56191 0.34652 0.07372 0.0
C249 C 0.54182 0.28782 0.07286 0.0
C250 C 0.52502 0.25929 0.04254 0.0
C251 C 0.53064 0.28917 0.0136 0.0
H252 H 0.38213 0.44478 0.90439 0.0
H253 H 0.4165 0.39904 0.99967 0.0
H254 H 0.30098 0.44786 0.9275 0.0
H255 H 0.33644 0.40304 0.02272 0.0
H256 H 0.17957 0.40311 0.05731 0.0
H257 H 0.23355 0.36867 0.02589 0.0
H258 H 0.30187 0.51845 0.9648 0.0
H259 H 0.24856 0.55201 0.99581 0.0
C260 C 0.37171 0.43419 0.93004 0.0
C261 C 0.40644 0.4227 0.95028 0.0
C262 C 0.32537 0.43619 0.94335 0.0
C263 C 0.31261 0.4264 0.97709 0.0
C264 C 0.3447 0.41048 0.99665 0.0
C265 C 0.39107 0.40877 0.98344 0.0
C266 C 0.20524 0.42769 0.03669 0.0
C267 C 0.2105 0.48034 0.02912 0.0
C268 C 0.23629 0.40828 0.01881 0.0
C269 C 0.27214 0.44086 0.99281 0.0
C270 C 0.27427 0.49181 0.98426 0.0
C271 C 0.24412 0.51137 0.00227 0.0
H272 H 0.94222 0.37629 0.07219 0.0
H273 H 0.02115 0.41969 0.16796 0.0
H274 H 0.85882 0.29486 0.09612 0.0
H275 H 0.93778 0.33919 0.1918 0.0
H276 H 0.78302 0.18036 0.22776 0.0
H277 H 0.87171 0.2354 0.19655 0.0
H278 H 0.78707 0.2951 0.13196 0.0
H279 H 0.69987 0.24074 0.16286 0.0
C280 C 0.94234 0.36787 0.09818 0.0
C281 C 0.98798 0.40515 0.11822 0.0
C282 C 0.89445 0.32133 0.11193 0.0
C283 C 0.89131 0.31089 0.14597 0.0
C284 C 0.93879 0.34566 0.16551 0.0
C285 C 0.98646 0.39224 0.15183 0.0
C286 C 0.78349 0.20428 0.2064 0.0
C287 C 0.73506 0.20678 0.19774 0.0
C288 C 0.8341 0.23596 0.18866 0.0
C289 C 0.83652 0.26974 0.16175 0.0
C290 C 0.78676 0.2691 0.15217 0.0
C291 C 0.73685 0.23831 0.17005 0.0
H292 H 0.57193 0.71396 0.3304 0.0
H293 H 0.50561 0.77357 0.40701 0.0
H294 H 0.60578 0.80401 0.30071 0.0
H295 H 0.53951 0.86291 0.37797 0.0
H296 H 0.62559 0.02962 0.33142 0.0
H297 H 0.6251 0.94991 0.35861 0.0
H298 H 0.55255 0.84716 0.27187 0.0
H299 H 0.55369 0.92777 0.24427 0.0
C300 C 0.56647 0.74711 0.3414 0.0
C301 C 0.53672 0.73729 0.3711 0.0
C302 C 0.58517 0.79824 0.32427 0.0
C303 C 0.57532 0.84058 0.33697 0.0
C304 C 0.54851 0.83162 0.36767 0.0
C305 C 0.52906 0.78046 0.38435 0.0
C306 C 0.61064 0.99042 0.31782 0.0
C307 C 0.58873 0.98465 0.28588 0.0
C308 C 0.61034 0.94474 0.33345 0.0
C309 C 0.58787 0.89196 0.31763 0.0
C310 C 0.57033 0.8874 0.28467 0.0
C311 C 0.57086 0.93348 0.26887 0.0
H312 H 0.85791 0.57293 0.49803 0.0
H313 H 0.73265 0.50453 0.57507 0.0
H314 H 0.80018 0.60487 0.4686 0.0
H315 H 0.67558 0.53622 0.54621 0.0
H316 H 0.59108 0.61819 0.4995 0.0
H317 H 0.6705 0.61883 0.52704 0.0
H318 H 0.70498 0.55149 0.43966 0.0
H319 H 0.62549 0.55164 0.4117 0.0
C320 C 0.81907 0.5665 0.50916 0.0
C321 C 0.79979 0.53664 0.5389 0.0
C322 C 0.78573 0.58411 0.49217 0.0
C323 C 0.73322 0.57301 0.50501 0.0
C324 C 0.71604 0.54618 0.53576 0.0
C325 C 0.7487 0.52792 0.55233 0.0
C326 C 0.6162 0.60449 0.48587 0.0
C327 C 0.60133 0.5839 0.45357 0.0
C328 C 0.66172 0.60483 0.50172 0.0
C329 C 0.69348 0.58431 0.48577 0.0
C330 C 0.68148 0.5678 0.4526 0.0
C331 C 0.63583 0.5677 0.43659 0.0
H332 H 0.23625 0.83373 0.72249 0.0
H333 H 0.31487 0.76244 0.66216 0.0
H334 H 0.14806 0.7806 0.69048 0.0
H335 H 0.22822 0.70997 0.63055 0.0
H336 H 0.0748 0.62985 0.56948 0.0
H337 H 0.15963 0.71111 0.59263 0.0
H338 H 0.0779 0.67806 0.68736 0.0
H339 H 0.99329 0.59796 0.66426 0.0
C340 C 0.23497 0.80778 0.70197 0.0
C341 C 0.2819 0.80163 0.6949 0.0
C342 C 0.18463 0.77721 0.68375 0.0
C343 C 0.181 0.74091 0.65792 0.0
C344 C 0.22946 0.73794 0.64986 0.0
C345 C 0.27904 0.76762 0.6682 0.0
C346 C 0.07444 0.64088 0.59501 0.0
C347 C 0.02765 0.60677 0.61513 0.0
C348 C 0.12314 0.68727 0.60834 0.0
C349 C 0.12588 0.70068 0.64199 0.0
C350 C 0.07731 0.66931 0.66137 0.0
C351 C 0.02889 0.62291 0.64813 0.0
H352 H 0.50118 0.22579 0.91036 0.0
H353 H 0.43897 0.2868 0.83226 0.0
H354 H 0.4699 0.13751 0.88064 0.0
H355 H 0.40748 0.19769 0.80198 0.0
H356 H 0.46205 0.07695 0.74557 0.0
H357 H 0.46133 0.1561 0.77384 0.0
H358 H 0.38823 0.05066 0.85948 0.0
H359 H 0.3898 0.97245 0.83164 0.0
C360 C 0.47913 0.21942 0.88721 0.0
C361 C 0.47207 0.26283 0.87374 0.0
C362 C 0.46114 0.1688 0.87012 0.0
C363 C 0.4363 0.16053 0.83883 0.0
C364 C 0.42671 0.20293 0.82595 0.0
C365 C 0.44402 0.25354 0.84343 0.0
C366 C 0.4445 0.07036 0.7701 0.0
C367 C 0.42698 0.01883 0.78658 0.0
C368 C 0.44393 0.11562 0.78629 0.0
C369 C 0.42558 0.10993 0.81914 0.0
C370 C 0.40369 0.05681 0.83445 0.0
C371 C 0.40453 0.01195 0.81844 0.0
H372 H 0.57658 0.8555 0.83815 0.0
H373 H 0.50568 0.72782 0.76226 0.0
H374 H 0.60851 0.798 0.86792 0.0
H375 H 0.53754 0.67105 0.79142 0.0
H376 H 0.62196 0.58862 0.838 0.0
H377 H 0.62167 0.66746 0.81022 0.0
H378 H 0.55473 0.70247 0.89752 0.0
H379 H 0.5556 0.62338 0.92571 0.0
C380 C 0.56959 0.81615 0.82734 0.0
C381 C 0.53911 0.79618 0.79781 0.0
C382 C 0.5872 0.78297 0.84452 0.0
C383 C 0.57552 0.72994 0.83207 0.0
C384 C 0.54793 0.71194 0.80155 0.0
C385 C 0.52961 0.74443 0.7848 0.0
C386 C 0.60816 0.61374 0.85157 0.0
C387 C 0.58785 0.59908 0.88391 0.0
C388 C 0.60797 0.65892 0.83558 0.0
C389 C 0.58729 0.69063 0.85144 0.0
C390 C 0.57113 0.67896 0.88466 0.0
C391 C 0.57149 0.63358 0.9008 0.0
H392 H 0.93087 0.54889 0.0929 0.0
H393 H 0.03242 0.62077 0.00579 0.0
H394 H 0.85048 0.5481 0.06535 0.0
H395 H 0.95295 0.62066 0.97867 0.0
H396 H 0.71794 0.56869 0.00704 0.0
H397 H 0.80784 0.602 0.03672 0.0
H398 H 0.86582 0.5353 0.95919 0.0
H399 H 0.77666 0.50195 0.93017 0.0
C400 C 0.93655 0.56608 0.06831 0.0
C401 C 0.98755 0.58385 0.05129 0.0
C402 C 0.8906 0.56578 0.05255 0.0
C403 C 0.89516 0.58347 0.01963 0.0
C404 C 0.94778 0.60578 0.00379 0.0
C405 C 0.99331 0.60584 0.01938 0.0
C406 C 0.75087 0.56304 0.99599 0.0
C407 C 0.74085 0.53331 0.96621 0.0
C408 C 0.8019 0.58141 0.01311 0.0
C409 C 0.84391 0.57126 1.00033 0.0
C410 C 0.83478 0.54451 0.96956 0.0
C411 C 0.78372 0.52538 0.95288 0.0
H412 H 0.41466 0.03173 0.17516 0.0
H413 H 0.38557 0.92573 0.2601 0.0
H414 H 0.33485 0.9533 0.14723 0.0
H415 H 0.30558 0.84631 0.23172 0.0
H416 H 0.152 0.71533 0.17268 0.0
H417 H 0.20902 0.80382 0.20376 0.0
H418 H 0.33189 0.86781 0.12515 0.0
H419 H 0.27556 0.78007 0.09469 0.0
C420 C 0.39049 0.99184 0.18812 0.0
C421 C 0.40698 0.98462 0.21964 0.0
C422 C 0.34479 0.94686 0.17206 0.0
C423 C 0.31451 0.89327 0.18698 0.0
C424 C 0.32796 0.88717 0.21959 0.0
C425 C 0.37381 0.93258 0.23585 0.0
C426 C 0.19022 0.7493 0.16171 0.0
C427 C 0.20924 0.7413 0.13117 0.0
C428 C 0.22318 0.79953 0.17964 0.0
C429 C 0.27503 0.84284 0.16697 0.0
C430 C 0.29189 0.83578 0.13551 0.0
C431 C 0.25965 0.78551 0.11798 0.0
H432 H 0.55292 0.24296 0.34237 0.0
H433 H 0.40396 0.17349 0.28099 0.0
H434 H 0.51953 0.29654 0.37336 0.0
H435 H 0.36973 0.22776 0.31234 0.0
H436 H 0.40136 0.41188 0.33778 0.0
H437 H 0.40484 0.33116 0.31506 0.0
H438 H 0.44895 0.29605 0.41058 0.0
H439 H 0.44632 0.37778 0.43337 0.0
C440 C 0.51224 0.23837 0.33599 0.0
C441 C 0.48111 0.20453 0.3092 0.0
C442 C 0.49281 0.26871 0.35396 0.0
C443 C 0.44194 0.26658 0.34537 0.0
C444 C 0.40925 0.23046 0.31945 0.0
C445 C 0.42853 0.19923 0.30163 0.0
C446 C 0.4108 0.38637 0.35415 0.0
C447 C 0.42466 0.40199 0.3873 0.0
C448 C 0.41222 0.33964 0.34113 0.0
C449 C 0.42777 0.30744 0.36088 0.0
C450 C 0.43752 0.32049 0.39461 0.0
C451 C 0.43579 0.36718 0.40772 0.0
H452 H 0.07947 0.45858 0.59163 0.0
H453 H 0.97551 0.38619 0.5053 0.0
H454 H 0.15881 0.45844 0.56342 0.0
H455 H 0.05394 0.38532 0.47752 0.0
H456 H 0.22886 0.49862 0.42694 0.0
H457 H 0.14078 0.46754 0.45663 0.0
H458 H 0.20054 0.40451 0.53518 0.0
H459 H 0.28942 0.43574 0.50492 0.0
C460 C 0.07303 0.44113 0.56705 0.0
C461 C 0.02155 0.42335 0.55051 0.0
C462 C 0.11843 0.44092 0.55089 0.0
C463 C 0.11296 0.42273 0.518 0.0
C464 C 0.05993 0.40065 0.50259 0.0
C465 C 0.01493 0.40108 0.51858 0.0
C466 C 0.22246 0.47651 0.45007 0.0
C467 C 0.26568 0.46915 0.46349 0.0
C468 C 0.17195 0.45864 0.46714 0.0
C469 C 0.1636 0.43364 0.49838 0.0
C470 C 0.20584 0.42387 0.51124 0.0
C471 C 0.25632 0.44102 0.49377 0.0
H472 H 0.63395 0.07074 0.76701 0.0
H473 H 0.59916 0.99056 0.6716 0.0
H474 H 0.7152 0.15551 0.74395 0.0
H475 H 0.67936 0.07517 0.64861 0.0
H476 H 0.83569 0.23336 0.61395 0.0
H477 H 0.78243 0.14463 0.6455 0.0
H478 H 0.71353 0.22501 0.70668 0.0
H479 H 0.76607 0.31218 0.67549 0.0
C480 C 0.64432 0.07065 0.74134 0.0
C481 C 0.60942 0.02429 0.72104 0.0
C482 C 0.69072 0.1193 0.72808 0.0
C483 C 0.70337 0.12242 0.69432 0.0
C484 C 0.67117 0.07423 0.6747 0.0
C485 C 0.62473 0.02584 0.68787 0.0
C486 C 0.8101 0.23199 0.63464 0.0
C487 C 0.80443 0.27912 0.64219 0.0
C488 C 0.77947 0.18136 0.65259 0.0
C489 C 0.74364 0.17769 0.67863 0.0
C490 C 0.74116 0.22632 0.68718 0.0
C491 C 0.77088 0.27619 0.66909 0.0
loop_
_geom_bond_atom_site_label_1
_geom_bond_atom_site_label_2
_geom_bond_distance
_geom_bond_site_symmetry_2
_ccdc_geom_bond_type
Fe0 O2 1.918 . S
Fe0 O5 1.997 . S
Fe0 O6 2.002 . S
Fe0 O11 1.976 . S
Fe0 O14 1.996 . S
Fe1 O2 1.918 . S
Fe1 O9 1.997 . S
Fe1 O12 1.996 . S
Fe1 O16 1.976 . S
Fe1 O19 2.002 . S
O2 Fe0 1.918 . S
O2 Fe1 1.918 . S
O2 Fe3 1.918 . S
Fe3 O2 1.918 . S
Fe3 O4 2.002 . S
Fe3 O13 1.976 . S
Fe3 O17 1.996 . S
Fe3 O20 1.997 . S
O4 Fe3 2.002 . S
O4 C21 1.295 . S
O5 Fe0 1.997 . S
O5 C21 1.235 . S
O6 Fe0 2.002 . S
O6 C7 1.295 . S
C7 O6 1.295 . S
C7 O9 1.235 . S
C8 O13 1.287 . S
C8 O14 1.255 . S
O9 Fe1 1.997 . S
O9 C7 1.235 . S
C10 O16 1.287 . S
C10 O17 1.255 . S
O11 Fe0 1.976 . S
O11 C18 1.287 . S
O12 Fe1 1.996 . S
O12 C18 1.255 . S
O13 Fe3 1.976 . S
O13 C8 1.287 . S
O14 Fe0 1.996 . S
O14 C8 1.255 . S
C15 O19 1.295 . S
C15 O20 1.235 . S
O16 Fe1 1.976 . S
O16 C10 1.287 . S
O17 Fe3 1.996 . S
O17 C10 1.255 . S
C18 O11 1.287 . S
C18 O12 1.255 . S
O19 Fe1 2.002 . S
O19 C15 1.295 . S
O20 Fe3 1.997 . S
O20 C15 1.235 . S
C21 O4 1.295 . S
C21 O5 1.235 . S
Fe22 O24 1.918 . S
Fe22 O27 1.997 . S
Fe22 O28 2.002 . S
Fe22 O33 1.976 . S
Fe22 O36 1.996 . S
Fe23 O24 1.918 . S
Fe23 O31 1.997 . S
Fe23 O34 1.996 . S
Fe23 O38 1.976 . S
Fe23 O41 2.002 . S
O24 Fe22 1.918 . S
O24 Fe23 1.918 . S
O24 Fe25 1.918 . S
Fe25 O24 1.918 . S
Fe25 O26 2.002 . S
Fe25 O35 1.976 . S
Fe25 O39 1.996 . S
Fe25 O42 1.997 . S
O26 Fe25 2.002 . S
O26 C43 1.295 . S
O27 Fe22 1.997 . S
O27 C43 1.235 . S
O28 Fe22 2.002 . S
O28 C29 1.295 . S
C29 O28 1.295 . S
C29 O31 1.235 . S
C30 O35 1.287 . S
C30 O36 1.255 . S
O31 Fe23 1.997 . S
O31 C29 1.235 . S
C32 O38 1.287 . S
C32 O39 1.255 . S
O33 Fe22 1.976 . S
O33 C40 1.287 . S
O34 Fe23 1.996 . S
O34 C40 1.255 . S
O35 Fe25 1.976 . S
O35 C30 1.287 . S
O36 Fe22 1.996 . S
O36 C30 1.255 . S
C37 O41 1.295 . S
C37 O42 1.235 . S
O38 Fe23 1.976 . S
O38 C32 1.287 . S
O39 Fe25 1.996 . S
O39 C32 1.255 . S
C40 O33 1.287 . S
C40 O34 1.255 . S
O41 Fe23 2.002 . S
O41 C37 1.295 . S
O42 Fe25 1.997 . S
O42 C37 1.235 . S
C43 O26 1.295 . S
C43 O27 1.235 . S
Fe44 O46 1.918 . S
Fe44 O49 1.997 . S
Fe44 O50 2.002 . S
Fe44 O55 1.976 . S
Fe44 O58 1.996 . S
Fe45 O46 1.918 . S
Fe45 O53 1.997 . S
Fe45 O56 1.996 . S
Fe45 O60 1.976 . S
Fe45 O63 2.002 . S
O46 Fe44 1.918 . S
O46 Fe45 1.918 . S
O46 Fe47 1.918 . S
Fe47 O46 1.918 . S
Fe47 O48 2.002 . S
Fe47 O57 1.976 . S
Fe47 O61 1.996 . S
Fe47 O64 1.997 . S
O48 Fe47 2.002 . S
O48 C65 1.295 . S
O49 Fe44 1.997 . S
O49 C65 1.235 . S
O50 Fe44 2.002 . S
O50 C51 1.295 . S
C51 O50 1.295 . S
C51 O53 1.235 . S
C52 O57 1.287 . S
C52 O58 1.255 . S
O53 Fe45 1.997 . S
O53 C51 1.235 . S
C54 O60 1.287 . S
C54 O61 1.255 . S
O55 Fe44 1.976 . S
O55 C62 1.287 . S
O56 Fe45 1.996 . S
O56 C62 1.255 . S
O57 Fe47 1.976 . S
O57 C52 1.287 . S
O58 Fe44 1.996 . S
O58 C52 1.255 . S
C59 O63 1.295 . S
C59 O64 1.235 . S
O60 Fe45 1.976 . S
O60 C54 1.287 . S
O61 Fe47 1.996 . S
O61 C54 1.255 . S
C62 O55 1.287 . S
C62 O56 1.255 . S
O63 Fe45 2.002 . S
O63 C59 1.295 . S
O64 Fe47 1.997 . S
O64 C59 1.235 . S
C65 O48 1.295 . S
C65 O49 1.235 . S
Fe66 O68 1.918 . S
Fe66 O71 1.997 . S
Fe66 O72 2.002 . S
Fe66 O77 1.976 . S
Fe66 O80 1.996 . S
Fe67 O68 1.918 . S
Fe67 O75 1.997 . S
Fe67 O78 1.996 . S
Fe67 O82 1.976 . S
Fe67 O85 2.002 . S
O68 Fe66 1.918 . S
O68 Fe67 1.918 . S
O68 Fe69 1.918 . S
Fe69 O68 1.918 . S
Fe69 O70 2.002 . S
Fe69 O79 1.976 . S
Fe69 O83 1.996 . S
Fe69 O86 1.997 . S
O70 Fe69 2.002 . S
O70 C87 1.295 . S
O71 Fe66 1.997 . S
O71 C87 1.235 . S
O72 Fe66 2.002 . S
O72 C73 1.295 . S
C73 O72 1.295 . S
C73 O75 1.235 . S
C74 O79 1.287 . S
C74 O80 1.255 . S
O75 Fe67 1.997 . S
O75 C73 1.235 . S
C76 O82 1.287 . S
C76 O83 1.255 . S
O77 Fe66 1.976 . S
O77 C84 1.287 . S
O78 Fe67 1.996 . S
O78 C84 1.255 . S
O79 Fe69 1.976 . S
O79 C74 1.287 . S
O80 Fe66 1.996 . S
O80 C74 1.255 . S
C81 O85 1.295 . S
C81 O86 1.235 . S
O82 Fe67 1.976 . S
O82 C76 1.287 . S
O83 Fe69 1.996 . S
O83 C76 1.255 . S
C84 O77 1.287 . S
C84 O78 1.255 . S
O85 Fe67 2.002 . S
O85 C81 1.295 . S
O86 Fe69 1.997 . S
O86 C81 1.235 . S
C87 O70 1.295 . S
C87 O71 1.235 . S
Fe88 O90 1.918 . S
Fe88 O93 1.997 . S
Fe88 O94 2.002 . S
Fe88 O99 1.976 . S
Fe88 O102 1.996 . S
Fe89 O90 1.918 . S
Fe89 O97 1.997 . S
Fe89 O100 1.996 . S
Fe89 O104 1.976 . S
Fe89 O107 2.002 . S
O90 Fe88 1.918 . S
O90 Fe89 1.918 . S
O90 Fe91 1.918 . S
Fe91 O90 1.918 . S
Fe91 O92 2.002 . S
Fe91 O101 1.976 . S
Fe91 O105 1.996 . S
Fe91 O108 1.997 . S
O92 Fe91 2.002 . S
O92 C109 1.295 . S
O93 Fe88 1.997 . S
O93 C109 1.235 . S
O94 Fe88 2.002 . S
O94 C95 1.295 . S
C95 O94 1.295 . S
C95 O97 1.235 . S
C96 O101 1.287 . S
C96 O102 1.255 . S
O97 Fe89 1.997 . S
O97 C95 1.235 . S
C98 O104 1.287 . S
C98 O105 1.255 . S
O99 Fe88 1.976 . S
O99 C106 1.287 . S
O100 Fe89 1.996 . S
O100 C106 1.255 . S
O101 Fe91 1.976 . S
O101 C96 1.287 . S
O102 Fe88 1.996 . S
O102 C96 1.255 . S
C103 O107 1.295 . S
C103 O108 1.235 . S
O104 Fe89 1.976 . S
O104 C98 1.287 . S
O105 Fe91 1.996 . S
O105 C98 1.255 . S
C106 O99 1.287 . S
C106 O100 1.255 . S
O107 Fe89 2.002 . S
O107 C103 1.295 . S
O108 Fe91 1.997 . S
O108 C103 1.235 . S
C109 O92 1.295 . S
C109 O93 1.235 . S
Fe110 O112 1.918 . S
Fe110 O115 1.997 . S
Fe110 O116 2.002 . S
Fe110 O121 1.976 . S
Fe110 O124 1.996 . S
Fe111 O112 1.918 . S
Fe111 O119 1.997 . S
Fe111 O122 1.996 . S
Fe111 O126 1.976 . S
Fe111 O129 2.002 . S
O112 Fe110 1.918 . S
O112 Fe111 1.918 . S
O112 Fe113 1.918 . S
Fe113 O112 1.918 . S
Fe113 O114 2.002 . S
Fe113 O123 1.976 . S
Fe113 O127 1.996 . S
Fe113 O130 1.997 . S
O114 Fe113 2.002 . S
O114 C131 1.295 . S
O115 Fe110 1.997 . S
O115 C131 1.235 . S
O116 Fe110 2.002 . S
O116 C117 1.295 . S
C117 O116 1.295 . S
C117 O119 1.235 . S
C118 O123 1.287 . S
C118 O124 1.255 . S
O119 Fe111 1.997 . S
O119 C117 1.235 . S
C120 O126 1.287 . S
C120 O127 1.255 . S
O121 Fe110 1.976 . S
O121 C128 1.287 . S
O122 Fe111 1.996 . S
O122 C128 1.255 . S
O123 Fe113 1.976 . S
O123 C118 1.287 . S
O124 Fe110 1.996 . S
O124 C118 1.255 . S
C125 O129 1.295 . S
C125 O130 1.235 . S
O126 Fe111 1.976 . S
O126 C120 1.287 . S
O127 Fe113 1.996 . S
O127 C120 1.255 . S
C128 O121 1.287 . S
C128 O122 1.255 . S
O129 Fe111 2.002 . S
O129 C125 1.295 . S
O130 Fe113 1.997 . S
O130 C125 1.235 . S
C131 O114 1.295 . S
C131 O115 1.235 . S
H132 C140 0.950 . S
H133 C145 0.950 . S
H134 C142 0.950 . S
H135 C144 0.950 . S
H136 C146 0.950 . S
H137 C148 0.950 . S
H138 C150 0.950 . S
H139 C151 0.950 . S
C140 H132 0.950 . S
C140 C141 1.386 . S
C140 C142 1.391 . S
C141 C140 1.386 . S
C141 C145 1.393 . S
C142 H134 0.950 . S
C142 C140 1.391 . S
C142 C143 1.400 . S
C143 C142 1.400 . S
C143 C144 1.398 . S
C143 C149 1.491 . S
C144 H135 0.950 . S
C144 C143 1.398 . S
C144 C145 1.391 . S
C145 H133 0.950 . S
C145 C141 1.393 . S
C145 C144 1.391 . S
C146 H136 0.950 . S
C146 C147 1.386 . S
C146 C148 1.391 . S
C147 C146 1.386 . S
C147 C151 1.393 . S
C148 H137 0.950 . S
C148 C146 1.391 . S
C148 C149 1.400 . S
C149 C143 1.491 . S
C149 C148 1.400 . S
C149 C150 1.398 . S
C150 H138 0.950 . S
C150 C149 1.398 . S
C150 C151 1.391 . S
C151 H139 0.950 . S
C151 C147 1.393 . S
C151 C150 1.391 . S
H152 C160 0.950 . S
H153 C165 0.950 . S
H154 C162 0.950 . S
H155 C164 0.950 . S
H156 C166 0.950 . S
H157 C168 0.950 . S
H158 C170 0.950 . S
H159 C171 0.950 . S
C160 H152 0.950 . S
C160 C161 1.386 . S
C160 C162 1.391 . S
C161 C160 1.386 . S
C161 C165 1.393 . S
C162 H154 0.950 . S
C162 C160 1.391 . S
C162 C163 1.400 . S
C163 C162 1.400 . S
C163 C164 1.398 . S
C163 C169 1.491 . S
C164 H155 0.950 . S
C164 C163 1.398 . S
C164 C165 1.391 . S
C165 H153 0.950 . S
C165 C161 1.393 . S
C165 C164 1.391 . S
C166 H156 0.950 . S
C166 C167 1.386 . S
C166 C168 1.391 . S
C167 C166 1.386 . S
C167 C171 1.393 . S
C168 H157 0.950 . S
C168 C166 1.391 . S
C168 C169 1.400 . S
C169 C163 1.491 . S
C169 C168 1.400 . S
C169 C170 1.398 . S
C170 H158 0.950 . S
C170 C169 1.398 . S
C170 C171 1.391 . S
C171 H159 0.950 . S
C171 C167 1.393 . S
C171 C170 1.391 . S
H172 C180 0.950 . S
H173 C185 0.950 . S
H174 C182 0.950 . S
H175 C184 0.950 . S
H176 C186 0.950 . S
H177 C188 0.950 . S
H178 C190 0.950 . S
H179 C191 0.950 . S
C180 H172 0.950 . S
C180 C181 1.386 . S
C180 C182 1.391 . S
C181 C180 1.386 . S
C181 C185 1.393 . S
C182 H174 0.950 . S
C182 C180 1.391 . S
C182 C183 1.400 . S
C183 C182 1.400 . S
C183 C184 1.398 . S
C183 C189 1.491 . S
C184 H175 0.950 . S
C184 C183 1.398 . S
C184 C185 1.391 . S
C185 H173 0.950 . S
C185 C181 1.393 . S
C185 C184 1.391 . S
C186 H176 0.950 . S
C186 C187 1.386 . S
C186 C188 1.391 . S
C187 C186 1.386 . S
C187 C191 1.393 . S
C188 H177 0.950 . S
C188 C186 1.391 . S
C188 C189 1.400 . S
C189 C183 1.491 . S
C189 C188 1.400 . S
C189 C190 1.398 . S
C190 H178 0.950 . S
C190 C189 1.398 . S
C190 C191 1.391 . S
C191 H179 0.950 . S
C191 C187 1.393 . S
C191 C190 1.391 . S
H192 C200 0.950 . S
H193 C205 0.950 . S
H194 C202 0.950 . S
H195 C204 0.950 . S
H196 C206 0.950 . S
H197 C208 0.950 . S
H198 C210 0.950 . S
H199 C211 0.950 . S
C200 H192 0.950 . S
C200 C201 1.386 . S
C200 C202 1.391 . S
C201 C200 1.386 . S
C201 C205 1.393 . S
C202 H194 0.950 . S
C202 C200 1.391 . S
C202 C203 1.400 . S
C203 C202 1.400 . S
C203 C204 1.398 . S
C203 C209 1.491 . S
C204 H195 0.950 . S
C204 C203 1.398 . S
C204 C205 1.391 . S
C205 H193 0.950 . S
C205 C201 1.393 . S
C205 C204 1.391 . S
C206 H196 0.950 . S
C206 C207 1.386 . S
C206 C208 1.391 . S
C207 C206 1.386 . S
C207 C211 1.393 . S
C208 H197 0.950 . S
C208 C206 1.391 . S
C208 C209 1.400 . S
C209 C203 1.491 . S
C209 C208 1.400 . S
C209 C210 1.398 . S
C210 H198 0.950 . S
C210 C209 1.398 . S
C210 C211 1.391 . S
C211 H199 0.950 . S
C211 C207 1.393 . S
C211 C210 1.391 . S
H212 C220 0.950 1_554 S
H213 C225 0.950 . S
H214 C222 0.950 . S
H215 C224 0.950 . S
H216 C226 0.950 . S
H217 C228 0.950 . S
H218 C230 0.950 . S
H219 C231 0.950 . S
C220 H212 0.950 1_556 S
C220 C221 1.386 . S
C220 C222 1.391 . S
C221 C220 1.386 . S
C221 C225 1.393 . S
C222 H214 0.950 . S
C222 C220 1.391 . S
C222 C223 1.400 . S
C223 C222 1.400 . S
C223 C224 1.398 . S
C223 C229 1.491 . S
C224 H215 0.950 . S
C224 C223 1.398 . S
C224 C225 1.391 . S
C225 H213 0.950 . S
C225 C221 1.393 . S
C225 C224 1.391 . S
C226 H216 0.950 . S
C226 C227 1.386 . S
C226 C228 1.391 . S
C227 C226 1.386 . S
C227 C231 1.393 . S
C228 H217 0.950 . S
C228 C226 1.391 . S
C228 C229 1.400 . S
C229 C223 1.491 . S
C229 C228 1.400 . S
C229 C230 1.398 . S
C230 H218 0.950 . S
C230 C229 1.398 . S
C230 C231 1.391 . S
C231 H219 0.950 . S
C231 C227 1.393 . S
C231 C230 1.391 . S
H232 C240 0.950 . S
H233 C245 0.950 . S
H234 C242 0.950 . S
H235 C244 0.950 . S
H236 C246 0.950 . S
H237 C248 0.950 . S
H238 C250 0.950 . S
H239 C251 0.950 1_556 S
C240 H232 0.950 . S
C240 C241 1.386 . S
C240 C242 1.391 . S
C241 C240 1.386 . S
C241 C245 1.393 . S
C242 H234 0.950 . S
C242 C240 1.391 . S
C242 C243 1.400 . S
C243 C242 1.400 . S
C243 C244 1.398 . S
C243 C249 1.491 . S
C244 H235 0.950 . S
C244 C243 1.398 . S
C244 C245 1.391 . S
C245 H233 0.950 . S
C245 C241 1.393 . S
C245 C244 1.391 . S
C246 H236 0.950 . S
C246 C247 1.386 . S
C246 C248 1.391 . S
C247 C246 1.386 . S
C247 C251 1.393 . S
C248 H237 0.950 . S
C248 C246 1.391 . S
C248 C249 1.400 . S
C249 C243 1.491 . S
C249 C248 1.400 . S
C249 C250 1.398 . S
C250 H238 0.950 . S
C250 C249 1.398 . S
C250 C251 1.391 . S
C251 H239 0.950 1_554 S
C251 C247 1.393 . S
C251 C250 1.391 . S
H252 C260 0.950 . S
H253 C265 0.950 . S
H254 C262 0.950 . S
H255 C264 0.950 1_554 S
H256 C266 0.950 . S
H257 C268 0.950 . S
H258 C270 0.967 . S
H259 C271 0.950 . S
C260 H252 0.950 . S
C260 C261 1.386 . S
C260 C262 1.391 . S
C261 C260 1.386 . S
C261 C265 1.393 . S
C262 H254 0.950 . S
C262 C260 1.391 . S
C262 C263 1.400 . S
C263 C262 1.400 . S
C263 C264 1.398 . S
C263 C269 1.491 1_556 S
C264 H255 0.950 1_556 S
C264 C263 1.398 . S
C264 C265 1.391 . S
C265 H253 0.950 . S
C265 C261 1.393 . S
C265 C264 1.391 . S
C266 H256 0.950 . S
C266 C267 1.386 . S
C266 C268 1.391 . S
C267 C266 1.386 . S
C267 C271 1.393 . S
C268 H257 0.950 . S
C268 C266 1.391 . S
C268 C269 1.400 . S
C269 C263 1.491 1_554 S
C269 C268 1.400 . S
C269 C270 1.393 1_554 S
C270 H258 0.967 . S
C270 C269 1.393 1_556 S
C270 C271 1.379 1_556 S
C271 H259 0.950 . S
C271 C267 1.393 . S
C271 C270 1.379 1_554 S
H272 C280 0.950 . S
H273 C285 0.950 . S
H274 C282 0.950 . S
H275 C284 0.950 . S
H276 C286 0.950 . S
H277 C288 0.950 . S
H278 C290 0.950 . S
H279 C291 0.950 . S
C280 H272 0.950 . S
C280 C281 1.386 1_655 S
C280 C282 1.391 . S
C281 C280 1.386 1_455 S
C281 C285 1.393 . S
C282 H274 0.950 . S
C282 C280 1.391 . S
C282 C283 1.400 . S
C283 C282 1.400 . S
C283 C284 1.398 . S
C283 C289 1.491 . S
C284 H275 0.950 . S
C284 C283 1.398 . S
C284 C285 1.391 1_655 S
C285 H273 0.950 . S
C285 C281 1.393 . S
C285 C284 1.391 1_455 S
C286 H276 0.950 . S
C286 C287 1.386 . S
C286 C288 1.391 . S
C287 C286 1.386 . S
C287 C291 1.393 . S
C288 H277 0.950 . S
C288 C286 1.391 . S
C288 C289 1.400 . S
C289 C283 1.491 . S
C289 C288 1.400 . S
C289 C290 1.398 . S
C290 H278 0.950 . S
C290 C289 1.398 . S
C290 C291 1.391 . S
C291 H279 0.950 . S
C291 C287 1.393 . S
C291 C290 1.391 . S
H292 C300 0.950 . S
H293 C305 0.950 . S
H294 C302 0.950 . S
H295 C304 0.950 . S
H296 C306 0.950 1_545 S
H297 C308 0.950 . S
H298 C310 0.950 . S
H299 C311 0.950 . S
C300 H292 0.950 . S
C300 C301 1.386 . S
C300 C302 1.391 . S
C301 C300 1.386 . S
C301 C305 1.393 . S
C302 H294 0.950 . S
C302 C300 1.391 . S
C302 C303 1.400 . S
C303 C302 1.400 . S
C303 C304 1.398 . S
C303 C309 1.491 . S
C304 H295 0.950 . S
C304 C303 1.398 . S
C304 C305 1.391 . S
C305 H293 0.950 . S
C305 C301 1.393 . S
C305 C304 1.391 . S
C306 H296 0.950 1_565 S
C306 C307 1.386 1_565 S
C306 C308 1.391 . S
C307 C306 1.386 1_545 S
C307 C311 1.393 1_545 S
C308 H297 0.950 . S
C308 C306 1.391 . S
C308 C309 1.400 . S
C309 C303 1.491 . S
C309 C308 1.400 . S
C309 C310 1.398 . S
C310 H298 0.950 . S
C310 C309 1.398 . S
C310 C311 1.391 . S
C311 H299 0.950 . S
C311 C307 1.393 1_565 S
C311 C310 1.391 . S
H312 C320 0.950 . S
H313 C325 0.950 . S
H314 C322 0.950 . S
H315 C324 0.950 . S
H316 C326 0.950 . S
H317 C328 0.950 . S
H318 C330 0.950 . S
H319 C331 0.950 . S
C320 H312 0.950 . S
C320 C321 1.386 . S
C320 C322 1.391 . S
C321 C320 1.386 . S
C321 C325 1.393 . S
C322 H314 0.950 . S
C322 C320 1.391 . S
C322 C323 1.400 . S
C323 C322 1.400 . S
C323 C324 1.398 . S
C323 C329 1.491 . S
C324 H315 0.950 . S
C324 C323 1.398 . S
C324 C325 1.391 . S
C325 H313 0.950 . S
C325 C321 1.393 . S
C325 C324 1.391 . S
C326 H316 0.950 . S
C326 C327 1.386 . S
C326 C328 1.391 . S
C327 C326 1.386 . S
C327 C331 1.393 . S
C328 H317 0.950 . S
C328 C326 1.391 . S
C328 C329 1.400 . S
C329 C323 1.491 . S
C329 C328 1.400 . S
C329 C330 1.398 . S
C330 H318 0.950 . S
C330 C329 1.398 . S
C330 C331 1.391 . S
C331 H319 0.950 . S
C331 C327 1.393 . S
C331 C330 1.391 . S
H332 C340 0.950 . S
H333 C345 0.950 . S
H334 C342 0.950 . S
H335 C344 0.950 . S
H336 C346 0.950 . S
H337 C348 0.950 . S
H338 C350 0.950 . S
H339 C351 0.950 1_655 S
C340 H332 0.950 . S
C340 C341 1.386 . S
C340 C342 1.391 . S
C341 C340 1.386 . S
C341 C345 1.393 . S
C342 H334 0.950 . S
C342 C340 1.391 . S
C342 C343 1.400 . S
C343 C342 1.400 . S
C343 C344 1.398 . S
C343 C349 1.491 . S
C344 H335 0.950 . S
C344 C343 1.398 . S
C344 C345 1.391 . S
C345 H333 0.950 . S
C345 C341 1.393 . S
C345 C344 1.391 . S
C346 H336 0.950 . S
C346 C347 1.386 1_455 S
C346 C348 1.391 . S
C347 C346 1.386 1_655 S
C347 C351 1.393 1_655 S
C348 H337 0.950 . S
C348 C346 1.391 . S
C348 C349 1.400 . S
C349 C343 1.491 . S
C349 C348 1.400 . S
C349 C350 1.398 . S
C350 H338 0.950 . S
C350 C349 1.398 . S
C350 C351 1.391 . S
C351 H339 0.950 1_455 S
C351 C347 1.393 1_455 S
C351 C350 1.391 . S
H352 C360 0.950 . S
H353 C365 0.950 . S
H354 C362 0.950 . S
H355 C364 0.950 . S
H356 C366 0.950 . S
H357 C368 0.950 . S
H358 C370 0.950 . S
H359 C371 0.950 1_565 S
C360 H352 0.950 . S
C360 C361 1.386 . S
C360 C362 1.391 . S
C361 C360 1.386 . S
C361 C365 1.393 . S
C362 H354 0.950 . S
C362 C360 1.391 . S
C362 C363 1.400 . S
C363 C362 1.400 . S
C363 C364 1.398 . S
C363 C369 1.491 . S
C364 H355 0.950 . S
C364 C363 1.398 . S
C364 C365 1.391 . S
C365 H353 0.950 . S
C365 C361 1.393 . S
C365 C364 1.391 . S
C366 H356 0.950 . S
C366 C367 1.386 1_545 S
C366 C368 1.391 . S
C367 C366 1.386 1_565 S
C367 C371 1.393 1_565 S
C368 H357 0.950 . S
C368 C366 1.391 . S
C368 C369 1.400 . S
C369 C363 1.491 . S
C369 C368 1.400 . S
C369 C370 1.398 . S
C370 H358 0.950 . S
C370 C369 1.398 . S
C370 C371 1.391 . S
C371 H359 0.950 1_545 S
C371 C367 1.393 1_545 S
C371 C370 1.391 . S
H372 C380 0.950 . S
H373 C385 0.950 . S
H374 C382 0.950 . S
H375 C384 0.950 . S
H376 C386 0.950 . S
H377 C388 0.950 . S
H378 C390 0.950 . S
H379 C391 0.950 . S
C380 H372 0.950 . S
C380 C381 1.386 . S
C380 C382 1.391 . S
C381 C380 1.386 . S
C381 C385 1.393 . S
C382 H374 0.950 . S
C382 C380 1.391 . S
C382 C383 1.400 . S
C383 C382 1.400 . S
C383 C384 1.398 . S
C383 C389 1.491 . S
C384 H375 0.950 . S
C384 C383 1.398 . S
C384 C385 1.391 . S
C385 H373 0.950 . S
C385 C381 1.393 . S
C385 C384 1.391 . S
C386 H376 0.950 . S
C386 C387 1.386 . S
C386 C388 1.391 . S
C387 C386 1.386 . S
C387 C391 1.393 . S
C388 H377 0.950 . S
C388 C386 1.391 . S
C388 C389 1.400 . S
C389 C383 1.491 . S
C389 C388 1.400 . S
C389 C390 1.398 . S
C390 H378 0.950 . S
C390 C389 1.398 . S
C390 C391 1.391 . S
C391 H379 0.950 . S
C391 C387 1.393 . S
C391 C390 1.391 . S
H392 C400 0.950 . S
H393 C405 0.950 . S
H394 C402 0.950 . S
H395 C404 0.950 . S
H396 C406 0.950 . S
H397 C408 0.950 . S
H398 C410 0.950 1_554 S
H399 C411 0.950 . S
C400 H392 0.950 . S
C400 C401 1.386 1_655 S
C400 C402 1.391 . S
C401 C400 1.386 1_455 S
C401 C405 1.393 . S
C402 H394 0.950 . S
C402 C400 1.391 . S
C402 C403 1.400 . S
C403 C402 1.400 . S
C403 C404 1.398 . S
C403 C409 1.491 1_554 S
C404 H395 0.950 . S
C404 C403 1.398 . S
C404 C405 1.391 1_655 S
C405 H393 0.950 . S
C405 C401 1.393 . S
C405 C404 1.391 1_455 S
C406 H396 0.950 . S
C406 C407 1.386 . S
C406 C408 1.391 . S
C407 C406 1.386 . S
C407 C411 1.393 . S
C408 H397 0.950 . S
C408 C406 1.391 . S
C408 C409 1.400 . S
C409 C403 1.491 1_556 S
C409 C408 1.400 . S
C409 C410 1.398 . S
C410 H398 0.950 1_556 S
C410 C409 1.398 . S
C410 C411 1.391 . S
C411 H399 0.950 . S
C411 C407 1.393 . S
C411 C410 1.391 . S
H412 C420 0.950 . S
H413 C425 0.950 . S
H414 C422 0.950 . S
H415 C424 0.950 . S
H416 C426 0.950 . S
H417 C428 0.950 . S
H418 C430 0.950 . S
H419 C431 0.950 . S
C420 H412 0.950 . S
C420 C421 1.386 . S
C420 C422 1.391 1_545 S
C421 C420 1.386 . S
C421 C425 1.393 1_545 S
C422 H414 0.950 . S
C422 C420 1.391 1_565 S
C422 C423 1.400 . S
C423 C422 1.400 . S
C423 C424 1.398 . S
C423 C429 1.491 . S
C424 H415 0.950 . S
C424 C423 1.398 . S
C424 C425 1.391 . S
C425 H413 0.950 . S
C425 C421 1.393 1_565 S
C425 C424 1.391 . S
C426 H416 0.950 . S
C426 C427 1.386 . S
C426 C428 1.391 . S
C427 C426 1.386 . S
C427 C431 1.393 . S
C428 H417 0.950 . S
C428 C426 1.391 . S
C428 C429 1.400 . S
C429 C423 1.491 . S
C429 C428 1.400 . S
C429 C430 1.398 . S
C430 H418 0.950 . S
C430 C429 1.398 . S
C430 C431 1.391 . S
C431 H419 0.950 . S
C431 C427 1.393 . S
C431 C430 1.391 . S
H432 C440 0.950 . S
H433 C445 0.950 . S
H434 C442 0.950 . S
H435 C444 0.950 . S
H436 C446 0.950 . S
H437 C448 0.950 . S
H438 C450 0.950 . S
H439 C451 0.950 . S
C440 H432 0.950 . S
C440 C441 1.386 . S
C440 C442 1.391 . S
C441 C440 1.386 . S
C441 C445 1.393 . S
C442 H434 0.950 . S
C442 C440 1.391 . S
C442 C443 1.400 . S
C443 C442 1.400 . S
C443 C444 1.398 . S
C443 C449 1.491 . S
C444 H435 0.950 . S
C444 C443 1.398 . S
C444 C445 1.391 . S
C445 H433 0.950 . S
C445 C441 1.393 . S
C445 C444 1.391 . S
C446 H436 0.950 . S
C446 C447 1.386 . S
C446 C448 1.391 . S
C447 C446 1.386 . S
C447 C451 1.393 . S
C448 H437 0.950 . S
C448 C446 1.391 . S
C448 C449 1.400 . S
C449 C443 1.491 . S
C449 C448 1.400 . S
C449 C450 1.398 . S
C450 H438 0.950 . S
C450 C449 1.398 . S
C450 C451 1.391 . S
C451 H439 0.950 . S
C451 C447 1.393 . S
C451 C450 1.391 . S
H452 C460 0.950 . S
H453 C465 0.950 1_655 S
H454 C462 0.950 . S
H455 C464 0.950 . S
H456 C466 0.950 . S
H457 C468 0.950 . S
H458 C470 0.950 . S
H459 C471 0.950 . S
C460 H452 0.950 . S
C460 C461 1.386 1_455 S
C460 C462 1.391 . S
C461 C460 1.386 1_655 S
C461 C465 1.393 1_655 S
C462 H454 0.950 . S
C462 C460 1.391 . S
C462 C463 1.400 . S
C463 C462 1.400 . S
C463 C464 1.398 . S
C463 C469 1.491 . S
C464 H455 0.950 . S
C464 C463 1.398 . S
C464 C465 1.391 . S
C465 H453 0.950 1_455 S
C465 C461 1.393 1_455 S
C465 C464 1.391 . S
C466 H456 0.950 . S
C466 C467 1.386 . S
C466 C468 1.391 . S
C467 C466 1.386 . S
C467 C471 1.393 . S
C468 H457 0.950 . S
C468 C466 1.391 . S
C468 C469 1.400 . S
C469 C463 1.491 . S
C469 C468 1.400 . S
C469 C470 1.398 . S
C470 H458 0.950 . S
C470 C469 1.398 . S
C470 C471 1.391 . S
C471 H459 0.950 . S
C471 C467 1.393 . S
C471 C470 1.391 . S
H472 C480 0.950 . S
H473 C485 0.950 . S
H474 C482 0.950 . S
H475 C484 0.950 . S
H476 C486 0.950 . S
H477 C488 0.950 . S
H478 C490 0.950 . S
H479 C491 0.950 . S
C480 H472 0.950 . S
C480 C481 1.386 1_545 S
C480 C482 1.391 . S
C481 C480 1.386 1_565 S
C481 C485 1.393 . S
C482 H474 0.950 . S
C482 C480 1.391 . S
C482 C483 1.400 . S
C483 C482 1.400 . S
C483 C484 1.398 . S
C483 C489 1.491 . S
C484 H475 0.950 . S
C484 C483 1.398 . S
C484 C485 1.391 1_545 S
C485 H473 0.950 . S
C485 C481 1.393 . S
C485 C484 1.391 1_565 S
C486 H476 0.950 . S
C486 C487 1.386 . S
C486 C488 1.391 . S
C487 C486 1.386 . S
C487 C491 1.393 . S
C488 H477 0.950 . S
C488 C486 1.391 . S
C488 C489 1.400 . S
C489 C483 1.491 . S
C489 C488 1.400 . S
C489 C490 1.398 . S
C490 H478 0.950 . S
C490 C489 1.398 . S
C490 C491 1.391 . S
C491 H479 0.950 . S
C491 C487 1.393 . S
C491 C490 1.391 . S
C141 C18 0.821 . S
C147 C52 0.820 . S
C161 C37 0.951 . S
C167 C73 0.966 . S
C181 C106 0.895 . S
C187 C51 0.881 . S
C201 C118 0.823 . S
C207 C74 0.817 . S
C221 C15 0.953 1_556 S
C227 C103 0.968 . S
C241 C40 0.895 . S
C247 C117 0.880 1_554 S
C261 C125 1.351 . S
C267 C10 1.359 . S
C281 C8 1.363 . S
C287 C29 1.325 . S
C301 C65 1.343 . S
C307 C43 1.370 . S
C321 C84 1.353 . S
C327 C59 1.352 . S
C341 C95 1.348 . S
C347 C76 1.344 . S
C361 C131 1.373 . S
C367 C109 1.350 . S
C381 C98 1.318 . S
C387 C120 1.331 . S
C401 C21 1.340 . S
C407 C128 1.355 . S
C421 C30 1.331 . S
C427 C7 1.335 . S
C441 C32 1.330 . S
C447 C54 1.329 . S
C461 C81 1.335 . S
C467 C62 1.341 . S
C481 C96 1.356 . S
C487 C87 1.316 . S
