# Generated by pormake.
# Topology pcl, (4)-cn, num edge types: 1
# Building blocks:
#     Node 0, Type 0, BuildingBlock: CEKHIL_clean_sbu_0, # of connection points: 4
#     Node 1, Type 0, BuildingBlock: CEKHIL_clean_sbu_0, # of connection points: 4
#     Node 2, Type 0, BuildingBlock: CEKHIL_clean_sbu_0, # of connection points: 4
#     Node 3, Type 0, BuildingBlock: CEKHIL_clean_sbu_0, # of connection points: 4
#     Node 4, Type 0, BuildingBlock: CEKHIL_clean_sbu_0, # of connection points: 4
#     Node 5, Type 0, BuildingBlock: CEKHIL_clean_sbu_0, # of connection points: 4
#     Node 6, Type 0, BuildingBlock: CEKHIL_clean_sbu_0, # of connection points: 4
#     Node 7, Type 0, BuildingBlock: CEKHIL_clean_sbu_0, # of connection points: 4
#     Node 8, Type 0, BuildingBlock: CEKHIL_clean_sbu_0, # of connection points: 4
#     Node 9, Type 0, BuildingBlock: CEKHIL_clean_sbu_0, # of connection points: 4
#     Node 10, Type 0, BuildingBlock: CEKHIL_clean_sbu_0, # of connection points: 4
#     Node 11, Type 0, BuildingBlock: CEKHIL_clean_sbu_0, # of connection points: 4
#     Node 12, Type 0, BuildingBlock: CEKHIL_clean_sbu_0, # of connection points: 4
#     Node 13, Type 0, BuildingBlock: CEKHIL_clean_sbu_0, # of connection points: 4
#     Node 14, Type 0, BuildingBlock: CEKHIL_clean_sbu_0, # of connection points: 4
#     Node 15, Type 0, BuildingBlock: CEKHIL_clean_sbu_0, # of connection points: 4
#     Edge 16, Type (0, 0), BuildingBlock: CIFDUS_clean_linker_0, # of connection points: 2
#     Edge 17, Type (0, 0), BuildingBlock: CIFDUS_clean_linker_0, # of connection points: 2
#     Edge 18, Type (0, 0), BuildingBlock: CIFDUS_clean_linker_0, # of connection points: 2
#     Edge 19, Type (0, 0), BuildingBlock: CIFDUS_clean_linker_0, # of connection points: 2
#     Edge 20, Type (0, 0), BuildingBlock: CIFDUS_clean_linker_0, # of connection points: 2
#     Edge 21, Type (0, 0), BuildingBlock: CIFDUS_clean_linker_0, # of connection points: 2
#     Edge 22, Type (0, 0), BuildingBlock: CIFDUS_clean_linker_0, # of connection points: 2
#     Edge 23, Type (0, 0), BuildingBlock: CIFDUS_clean_linker_0, # of connection points: 2
#     Edge 24, Type (0, 0), BuildingBlock: CIFDUS_clean_linker_0, # of connection points: 2
#     Edge 25, Type (0, 0), BuildingBlock: CIFDUS_clean_linker_0, # of connection points: 2
#     Edge 26, Type (0, 0), BuildingBlock: CIFDUS_clean_linker_0, # of connection points: 2
#     Edge 27, Type (0, 0), BuildingBlock: CIFDUS_clean_linker_0, # of connection points: 2
#     Edge 28, Type (0, 0), BuildingBlock: CIFDUS_clean_linker_0, # of connection points: 2
#     Edge 29, Type (0, 0), BuildingBlock: CIFDUS_clean_linker_0, # of connection points: 2
#     Edge 30, Type (0, 0), BuildingBlock: CIFDUS_clean_linker_0, # of connection points: 2
#     Edge 31, Type (0, 0), BuildingBlock: CIFDUS_clean_linker_0, # of connection points: 2
#     Edge 32, Type (0, 0), BuildingBlock: CIFDUS_clean_linker_0, # of connection points: 2
#     Edge 33, Type (0, 0), BuildingBlock: CIFDUS_clean_linker_0, # of connection points: 2
#     Edge 34, Type (0, 0), BuildingBlock: CIFDUS_clean_linker_0, # of connection points: 2
#     Edge 35, Type (0, 0), BuildingBlock: CIFDUS_clean_linker_0, # of connection points: 2
#     Edge 36, Type (0, 0), BuildingBlock: CIFDUS_clean_linker_0, # of connection points: 2
#     Edge 37, Type (0, 0), BuildingBlock: CIFDUS_clean_linker_0, # of connection points: 2
#     Edge 38, Type (0, 0), BuildingBlock: CIFDUS_clean_linker_0, # of connection points: 2
#     Edge 39, Type (0, 0), BuildingBlock: CIFDUS_clean_linker_0, # of connection points: 2
#     Edge 40, Type (0, 0), BuildingBlock: CIFDUS_clean_linker_0, # of connection points: 2
#     Edge 41, Type (0, 0), BuildingBlock: CIFDUS_clean_linker_0, # of connection points: 2
#     Edge 42, Type (0, 0), BuildingBlock: CIFDUS_clean_linker_0, # of connection points: 2
#     Edge 43, Type (0, 0), BuildingBlock: CIFDUS_clean_linker_0, # of connection points: 2
#     Edge 44, Type (0, 0), BuildingBlock: CIFDUS_clean_linker_0, # of connection points: 2
#     Edge 45, Type (0, 0), BuildingBlock: CIFDUS_clean_linker_0, # of connection points: 2
#     Edge 46, Type (0, 0), BuildingBlock: CIFDUS_clean_linker_0, # of connection points: 2
#     Edge 47, Type (0, 0), BuildingBlock: CIFDUS_clean_linker_0, # of connection points: 2
# Relax obj value: 0.072
# Max RMSD: 0.055
# Mean RMSD: 0.054
data_MOF--net-pcl--node1-CEKHIL_clean_sbu_0--edge1-CIFDUS_clean_linker_0
_symmetry_space_group_name_H-M    P1
_symmetry_Int_Tables_number       1
_symmetry_cell_setting            triclinic
loop_
_symmetry_equiv_pos_as_xyz
'x, y, z'
_cell_length_a     45.792762
_cell_length_b     35.717546
_cell_length_c     37.340549
_cell_angle_alpha  89.937169
_cell_angle_beta   89.898279
_cell_angle_gamma 89.951464
loop_
_atom_site_label
_atom_site_type_symbol
_atom_site_fract_x
_atom_site_fract_y
_atom_site_fract_z
_atom_type_partial_charge
Co0 Co 0.14423 0.34313 0.07106 0.0
O1 O 0.18542 0.34102 0.05988 0.0
O2 O 0.15582 0.29256 0.05656 0.0
C3 C 0.13565 0.39647 0.03927 0.0
O4 O 0.10011 0.33535 0.08003 0.0
Co5 Co 0.1194 0.41183 0.11295 0.0
O6 O 0.08108 0.38882 0.10234 0.0
C7 C 0.15423 0.35402 0.15059 0.0
C8 C 0.18208 0.30591 0.05236 0.0
C9 C 0.07827 0.35552 0.09065 0.0
O10 O 0.15295 0.33198 0.1233 0.0
O11 O 0.14493 0.38786 0.15008 0.0
O12 O 0.13604 0.36415 0.02334 0.0
O13 O 0.14238 0.3956 0.07271 0.0
Co14 Co 0.88582 0.66065 0.57478 0.0
O15 O 0.84437 0.6605 0.56532 0.0
O16 O 0.87334 0.70854 0.5546 0.0
C17 C 0.89405 0.60349 0.55004 0.0
O18 O 0.92995 0.67044 0.58057 0.0
Co19 Co 0.91355 0.59919 0.62359 0.0
O20 O 0.95097 0.61953 0.6054 0.0
C21 C 0.87777 0.66004 0.65503 0.0
C22 C 0.84716 0.69437 0.55335 0.0
C23 C 0.95264 0.65155 0.59051 0.0
O24 O 0.87814 0.6786 0.62542 0.0
O25 O 0.88795 0.62681 0.65834 0.0
O26 O 0.89297 0.63316 0.52989 0.0
O27 O 0.88848 0.60915 0.58338 0.0
Co28 Co 0.13352 0.66141 0.93662 0.0
O29 O 0.17425 0.6687 0.94916 0.0
O30 O 0.14051 0.71268 0.95205 0.0
C31 C 0.12814 0.60675 0.96725 0.0
O32 O 0.08905 0.66439 0.92782 0.0
Co33 Co 0.11347 0.59208 0.89277 0.0
O34 O 0.07359 0.6117 0.90062 0.0
C35 C 0.1477 0.65196 0.85812 0.0
C36 C 0.16758 0.70298 0.95721 0.0
C37 C 0.06862 0.64348 0.91483 0.0
O38 O 0.14285 0.67421 0.88469 0.0
O39 O 0.14063 0.61731 0.85832 0.0
O40 O 0.12605 0.63872 0.98367 0.0
O41 O 0.13533 0.60885 0.93393 0.0
Co42 Co 0.88684 0.34746 0.42828 0.0
O43 O 0.8452 0.34552 0.43627 0.0
O44 O 0.87555 0.30026 0.45125 0.0
C45 C 0.89261 0.4064 0.45006 0.0
O46 O 0.93162 0.34095 0.42491 0.0
Co47 Co 0.91124 0.40751 0.37526 0.0
O48 O 0.9496 0.38782 0.39065 0.0
C49 C 0.87961 0.34181 0.34779 0.0
C50 C 0.84884 0.31288 0.45068 0.0
C51 C 0.95311 0.3589 0.41023 0.0
O52 O 0.88125 0.32547 0.37854 0.0
O53 O 0.88722 0.37581 0.34241 0.0
O54 O 0.8919 0.37787 0.47164 0.0
O55 O 0.88745 0.39865 0.41699 0.0
Co56 Co 0.83538 0.66736 0.91448 0.0
O57 O 0.79518 0.67681 0.92775 0.0
O58 O 0.83316 0.7009 0.95566 0.0
C59 C 0.82847 0.67596 0.85495 0.0
O60 O 0.88013 0.66464 0.90746 0.0
Co61 Co 0.85042 0.60114 0.86301 0.0
O62 O 0.88878 0.62666 0.8605 0.0
C63 C 0.83461 0.58595 0.93847 0.0
C64 C 0.80486 0.69817 0.95309 0.0
C65 C 0.8975 0.65013 0.88388 0.0
O66 O 0.83592 0.62118 0.94623 0.0
O67 O 0.8371 0.57337 0.90651 0.0
O68 O 0.83303 0.70478 0.87544 0.0
O69 O 0.82642 0.64441 0.87124 0.0
Co70 Co 0.18753 0.3406 0.41688 0.0
O71 O 0.22826 0.33157 0.42769 0.0
O72 O 0.19149 0.30317 0.45456 0.0
C73 C 0.19315 0.33887 0.35646 0.0
O74 O 0.14261 0.34158 0.41197 0.0
Co75 Co 0.16875 0.41093 0.37273 0.0
O76 O 0.13132 0.3834 0.36892 0.0
C77 C 0.18823 0.41899 0.44783 0.0
C78 C 0.21962 0.30733 0.45129 0.0
C79 C 0.12419 0.35712 0.39036 0.0
O80 O 0.18676 0.38323 0.45289 0.0
O81 O 0.1846 0.4344 0.41719 0.0
O82 O 0.19004 0.30776 0.37422 0.0
O83 O 0.19451 0.36854 0.37577 0.0
Co84 Co 0.8413 0.32493 0.08735 0.0
O85 O 0.79988 0.31682 0.0795 0.0
O86 O 0.83498 0.29247 0.04631 0.0
C87 C 0.83902 0.31577 0.14735 0.0
O88 O 0.88629 0.32574 0.08677 0.0
Co89 Co 0.8654 0.38756 0.13682 0.0
O90 O 0.90327 0.36098 0.13198 0.0
C91 C 0.84136 0.40654 0.06526 0.0
C92 C 0.80713 0.29582 0.05257 0.0
C93 C 0.90743 0.33829 0.10618 0.0
O94 O 0.83988 0.37158 0.05662 0.0
O95 O 0.84863 0.41784 0.09654 0.0
O96 O 0.84142 0.28709 0.12609 0.0
O97 O 0.83721 0.34785 0.13193 0.0
Co98 Co 0.18946 0.67701 0.59745 0.0
O99 O 0.23134 0.68409 0.59559 0.0
O100 O 0.20064 0.70584 0.55515 0.0
C101 C 0.18463 0.69128 0.65629 0.0
O102 O 0.1449 0.67601 0.59047 0.0
Co103 Co 0.16119 0.61705 0.64693 0.0
O104 O 0.12443 0.64444 0.63624 0.0
C105 C 0.1897 0.59373 0.5793 0.0
C106 C 0.22754 0.70243 0.56596 0.0
C107 C 0.12239 0.6652 0.6086 0.0
O108 O 0.19344 0.62831 0.57031 0.0
O109 O 0.17919 0.58369 0.60964 0.0
O110 O 0.18531 0.71794 0.63254 0.0
O111 O 0.18859 0.65797 0.6441 0.0
Co112 Co 0.63715 0.84289 0.07203 0.0
O113 O 0.67766 0.8358 0.05844 0.0
O114 O 0.64451 0.79108 0.05822 0.0
C115 C 0.63072 0.89614 0.0395 0.0
O116 O 0.59303 0.84013 0.08338 0.0
Co117 Co 0.61839 0.91494 0.11348 0.0
O118 O 0.57838 0.89549 0.1064 0.0
C119 C 0.65053 0.85443 0.15083 0.0
C120 C 0.67137 0.80114 0.05182 0.0
C121 C 0.573 0.86251 0.09524 0.0
O122 O 0.64704 0.832 0.1241 0.0
O123 O 0.6434 0.88911 0.14988 0.0
O124 O 0.62854 0.86357 0.02428 0.0
O125 O 0.63873 0.89535 0.07251 0.0
Co126 Co 0.3886 0.16337 0.56984 0.0
O127 O 0.34821 0.16954 0.55564 0.0
O128 O 0.38225 0.21263 0.54883 0.0
C129 C 0.39393 0.10511 0.54602 0.0
O130 O 0.4327 0.16683 0.58055 0.0
Co131 Co 0.40614 0.09853 0.62188 0.0
O132 O 0.44641 0.11642 0.61295 0.0
C133 C 0.37456 0.16485 0.64903 0.0
C134 C 0.3551 0.20277 0.54451 0.0
C135 C 0.45229 0.14677 0.59647 0.0
O136 O 0.37902 0.1828 0.61956 0.0
O137 O 0.38075 0.1302 0.65341 0.0
O138 O 0.39668 0.13458 0.52582 0.0
O139 O 0.3861 0.11183 0.57847 0.0
Co140 Co 0.63202 0.16171 0.93847 0.0
O141 O 0.67311 0.16651 0.95014 0.0
O142 O 0.64083 0.21202 0.95539 0.0
C143 C 0.62561 0.10651 0.96766 0.0
O144 O 0.5875 0.16699 0.93097 0.0
Co145 Co 0.60921 0.09531 0.89289 0.0
O146 O 0.57 0.11425 0.90577 0.0
C147 C 0.6423 0.15625 0.85822 0.0
C148 C 0.66766 0.20075 0.95953 0.0
C149 C 0.56619 0.14624 0.92001 0.0
O150 O 0.6408 0.1762 0.88692 0.0
O151 O 0.63338 0.12238 0.85632 0.0
O152 O 0.62467 0.13808 0.98487 0.0
O153 O 0.63235 0.10909 0.93416 0.0
Co154 Co 0.38514 0.84785 0.42604 0.0
O155 O 0.34378 0.84669 0.4362 0.0
O156 O 0.374 0.80047 0.44874 0.0
C157 C 0.39228 0.90644 0.44833 0.0
O158 O 0.42956 0.83996 0.41975 0.0
Co159 Co 0.40927 0.90852 0.37332 0.0
O160 O 0.44773 0.88882 0.38838 0.0
C161 C 0.37688 0.84319 0.34552 0.0
C162 C 0.34746 0.81363 0.44971 0.0
C163 C 0.45109 0.85848 0.40591 0.0
O164 O 0.37767 0.82689 0.37634 0.0
O165 O 0.38555 0.87677 0.34006 0.0
O166 O 0.39204 0.8776 0.46957 0.0
O167 O 0.38615 0.89919 0.41543 0.0
Co168 Co 0.33307 0.15913 0.90552 0.0
O169 O 0.29168 0.16229 0.91524 0.0
O170 O 0.3256 0.18617 0.9502 0.0
C171 C 0.32868 0.17581 0.84728 0.0
O172 O 0.37814 0.16235 0.90335 0.0
Co173 Co 0.35699 0.10416 0.84767 0.0
O174 O 0.39279 0.13485 0.85213 0.0
C175 C 0.33708 0.07513 0.91802 0.0
C176 C 0.29792 0.18105 0.94387 0.0
C177 C 0.39799 0.15464 0.87978 0.0
O178 O 0.33481 0.1087 0.93075 0.0
O179 O 0.34322 0.06829 0.8852 0.0
O180 O 0.33024 0.20163 0.8717 0.0
O181 O 0.32848 0.14194 0.85882 0.0
Co182 Co 0.68859 0.84264 0.41798 0.0
O183 O 0.73049 0.83844 0.42209 0.0
O184 O 0.69917 0.80659 0.45513 0.0
C185 C 0.6885 0.84067 0.35715 0.0
O186 O 0.6437 0.83923 0.42091 0.0
Co187 Co 0.66016 0.90943 0.37696 0.0
O188 O 0.62413 0.87884 0.38052 0.0
C189 C 0.68702 0.92104 0.44828 0.0
C190 C 0.72629 0.81419 0.44742 0.0
C191 C 0.62165 0.85264 0.40351 0.0
O192 O 0.68883 0.88539 0.45352 0.0
O193 O 0.67886 0.93555 0.41853 0.0
O194 O 0.68893 0.80956 0.37532 0.0
O195 O 0.68933 0.87067 0.37603 0.0
Co196 Co 0.33531 0.83647 0.08752 0.0
O197 O 0.29422 0.82762 0.07783 0.0
O198 O 0.33046 0.80672 0.04436 0.0
C199 C 0.33205 0.82273 0.14666 0.0
O200 O 0.38026 0.83822 0.08859 0.0
Co201 Co 0.3573 0.89563 0.14221 0.0
O202 O 0.39573 0.87059 0.13648 0.0
C203 C 0.33393 0.91962 0.07169 0.0
C204 C 0.30246 0.80836 0.05014 0.0
C205 C 0.4008 0.84977 0.10949 0.0
O206 O 0.33375 0.88552 0.06005 0.0
O207 O 0.33999 0.92828 0.10411 0.0
O208 O 0.33538 0.79582 0.12356 0.0
O209 O 0.3299 0.85582 0.13344 0.0
Co210 Co 0.68987 0.1783 0.59877 0.0
O211 O 0.73157 0.18622 0.59692 0.0
O212 O 0.70076 0.20716 0.55625 0.0
C213 C 0.68428 0.19292 0.65734 0.0
O214 O 0.6452 0.17608 0.59253 0.0
Co215 Co 0.66444 0.11641 0.64863 0.0
O216 O 0.62707 0.14269 0.63869 0.0
C217 C 0.69203 0.09495 0.58019 0.0
C218 C 0.72769 0.20417 0.56713 0.0
C219 C 0.62357 0.16391 0.61154 0.0
O220 O 0.69451 0.12977 0.57154 0.0
O221 O 0.68265 0.08402 0.6108 0.0
O222 O 0.68489 0.21937 0.6334 0.0
O223 O 0.68948 0.1597 0.64562 0.0
H224 H 0.03457 0.34435 0.04144 0.0
H225 H 0.05623 0.33201 0.15304 0.0
H226 H 1.00493 0.32142 0.16778 0.0
H227 H 0.95332 0.32505 0.15025 0.0
H228 H 0.93072 0.33563 0.03878 0.0
H229 H 0.98263 0.33697 0.02254 0.0
C230 C 0.02807 0.33793 0.0687 0.0
C231 C 0.04914 0.33857 0.09613 0.0
C232 C 0.99825 0.33221 0.07709 0.0
C233 C 0.04041 0.33112 0.13149 0.0
C234 C 1.01103 0.32544 0.13998 0.0
C235 C 0.95979 0.32674 0.12233 0.0
C236 C 0.93821 0.33052 0.09581 0.0
C237 C 0.98965 0.32733 0.11323 0.0
C238 C 0.94689 0.33248 0.05971 0.0
C239 C 0.97662 0.33355 0.05044 0.0
H240 H 0.99775 0.64177 0.54365 0.0
H241 H 0.97309 0.69808 0.64101 0.0
H242 H 0.02438 0.71142 0.65404 0.0
H243 H 0.07648 0.69789 0.64244 0.0
H244 H 0.10151 0.64459 0.54367 0.0
H245 H 0.05011 0.63969 0.52607 0.0
C246 C 1.00364 0.65827 0.5669 0.0
C247 C 0.98175 0.66931 0.5912 0.0
C248 C 0.0333 0.66582 0.57422 0.0
C249 C 0.98959 0.68993 0.62167 0.0
C250 C 0.01894 0.69717 0.62933 0.0
C251 C 0.07064 0.68632 0.61657 0.0
C252 C 0.09264 0.67158 0.59436 0.0
C253 C 0.04104 0.68395 0.60652 0.0
C254 C 0.08492 0.65646 0.561 0.0
C255 C 0.0555 0.65335 0.55109 0.0
H256 H 0.93356 0.66866 0.94085 0.0
H257 H 0.93362 0.64943 0.82669 0.0
H258 H 0.98664 0.64966 0.82591 0.0
H259 H 0.03293 0.64709 0.85814 0.0
H260 H 0.03501 0.66691 0.97174 0.0
H261 H 0.98161 0.67507 0.97232 0.0
C262 C 0.94521 0.66544 0.91574 0.0
C263 C 0.92945 0.6584 0.88395 0.0
C264 C 0.97619 0.66524 0.91542 0.0
C265 C 0.94504 0.65426 0.85166 0.0
C266 C 0.97546 0.65434 0.85113 0.0
C267 C 0.02172 0.65402 0.8829 0.0
C268 C 0.03778 0.65628 0.91484 0.0
C269 C 0.99123 0.65849 0.88294 0.0
C270 C 0.0231 0.66532 0.94676 0.0
C271 C 0.99253 0.66967 0.94708 0.0
H272 H 0.08684 0.3438 0.44722 0.0
H273 H 0.09131 0.34603 0.33183 0.0
H274 H 0.0384 0.34091 0.32811 0.0
H275 H 0.99078 0.34537 0.35707 0.0
H276 H 0.98425 0.34534 0.47203 0.0
H277 H 0.0377 0.33946 0.47671 0.0
C278 C 0.0762 0.34208 0.42136 0.0
C279 C 0.09302 0.34554 0.38979 0.0
C280 C 0.04532 0.34002 0.41937 0.0
C281 C 0.07889 0.34369 0.35646 0.0
C282 C 0.04859 0.34087 0.3543 0.0
C283 C 1.00103 0.34307 0.38316 0.0
C284 C 0.98369 0.34579 0.41414 0.0
C285 C 0.03157 0.34046 0.38549 0.0
C286 C 0.99715 0.34289 0.4478 0.0
C287 C 0.02775 0.33994 0.45041 0.0
H288 H 0.44641 0.84344 0.15531 0.0
H289 H 0.42528 0.83983 0.04296 0.0
H290 H 0.47742 0.83866 0.02781 0.0
H291 H 0.52937 0.84674 0.0468 0.0
H292 H 0.54914 0.85031 0.15951 0.0
H293 H 0.49754 0.84283 0.1742 0.0
C294 C 0.45319 0.84178 0.1275 0.0
C295 C 0.43193 0.84215 0.10033 0.0
C296 C 0.48314 0.8412 0.11903 0.0
C297 C 0.44114 0.83953 0.06444 0.0
C298 C 0.47101 0.8391 0.05575 0.0
C299 C 0.52234 0.84466 0.07447 0.0
C300 C 0.54301 0.84879 0.1021 0.0
C301 C 0.49229 0.84098 0.08281 0.0
C302 C 0.53362 0.84687 0.13788 0.0
C303 C 0.50408 0.84288 0.14629 0.0
H304 H 0.57774 0.17686 0.65509 0.0
H305 H 0.60052 0.16646 0.5436 0.0
H306 H 0.5485 0.16477 0.52757 0.0
H307 H 0.49634 0.15745 0.54681 0.0
H308 H 0.47534 0.16717 0.65899 0.0
H309 H 0.52652 0.17841 0.67316 0.0
C310 C 0.57131 0.17501 0.62718 0.0
C311 C 0.59293 0.17148 0.60062 0.0
C312 C 0.54152 0.17364 0.61834 0.0
C313 C 0.58429 0.16941 0.56456 0.0
C314 C 0.55452 0.16809 0.55544 0.0
C315 C 0.50301 0.16312 0.57411 0.0
C316 C 0.48215 0.16154 0.60189 0.0
C317 C 0.53287 0.16896 0.58225 0.0
C318 C 0.49104 0.16834 0.63725 0.0
C319 C 0.52032 0.17458 0.6454 0.0
H320 H 0.53363 0.17149 0.86537 0.0
H321 H 0.53003 0.14772 0.97822 0.0
H322 H 0.47655 0.15358 0.97733 0.0
H323 H 0.43039 0.15619 0.94197 0.0
H324 H 0.4354 0.17779 0.82846 0.0
H325 H 0.48836 0.18292 0.8321 0.0
C326 C 0.52113 0.16889 0.88996 0.0
C327 C 0.53565 0.15973 0.92188 0.0
C328 C 0.49047 0.17149 0.88897 0.0
C329 C 0.5193 0.15553 0.95348 0.0
C330 C 0.48869 0.15848 0.95284 0.0
C331 C 0.44305 0.16314 0.91833 0.0
C332 C 0.4289 0.16634 0.88491 0.0
C333 C 0.4739 0.16518 0.92044 0.0
C334 C 0.44572 0.1749 0.85442 0.0
C335 C 0.47607 0.17772 0.85644 0.0
H336 H 0.49233 0.85336 0.45928 0.0
H337 H 0.47678 0.83005 0.34776 0.0
H338 H 0.52894 0.82081 0.33772 0.0
H339 H 0.5793 0.83003 0.35825 0.0
H340 H 0.5961 0.85218 0.46958 0.0
H341 H 0.5435 0.85067 0.48236 0.0
C342 C 0.50037 0.84481 0.43321 0.0
C343 C 0.48077 0.84216 0.40429 0.0
C344 C 0.53072 0.83999 0.42747 0.0
C345 C 0.49147 0.83188 0.37043 0.0
C346 C 0.52133 0.82693 0.36459 0.0
C347 C 0.57144 0.83329 0.3855 0.0
C348 C 0.59147 0.84123 0.41291 0.0
C349 C 0.54124 0.83246 0.39253 0.0
C350 C 0.58109 0.84562 0.4481 0.0
C351 C 0.55097 0.84515 0.45532 0.0
H352 H 0.18646 0.39292 0.1972 0.0
H353 H 0.14683 0.28483 0.18197 0.0
H354 H 0.15761 0.26827 0.24455 0.0
H355 H 0.17343 0.28826 0.3058 0.0
H356 H 0.2123 0.39761 0.31831 0.0
H357 H 0.20681 0.40977 0.25483 0.0
C358 C 0.1806 0.36546 0.20741 0.0
C359 C 0.16566 0.34029 0.18524 0.0
C360 C 0.18646 0.35653 0.24318 0.0
C361 C 0.15848 0.30465 0.19859 0.0
C362 C 0.1644 0.29535 0.23444 0.0
C363 C 0.1811 0.31439 0.2944 0.0
C364 C 0.19285 0.34219 0.31693 0.0
C365 C 0.17764 0.32156 0.25738 0.0
C366 C 0.20276 0.37593 0.30176 0.0
C367 C 0.1997 0.38299 0.26537 0.0
H368 H 0.83421 0.63174 0.69384 0.0
H369 H 0.89421 0.72426 0.68957 0.0
H370 H 0.88129 0.74153 0.75138 0.0
H371 H 0.85816 0.72358 0.80958 0.0
H372 H 0.79934 0.62927 0.81189 0.0
H373 H 0.80605 0.6198 0.74798 0.0
C374 C 0.84378 0.65634 0.70618 0.0
C375 C 0.86504 0.67673 0.68753 0.0
C376 C 0.83665 0.66548 0.74158 0.0
C377 C 0.87752 0.70844 0.70353 0.0
C378 C 0.87035 0.71802 0.73895 0.0
C379 C 0.84626 0.70171 0.79576 0.0
C380 C 0.82854 0.67687 0.81542 0.0
C381 C 0.8507 0.69584 0.75873 0.0
C382 C 0.81336 0.64845 0.79735 0.0
C383 C 0.8172 0.64294 0.7608 0.0
H384 H 0.1315 0.70766 0.81141 0.0
H385 H 0.19724 0.62378 0.83144 0.0
H386 H 0.21668 0.63196 0.77116 0.0
H387 H 0.21052 0.65573 0.71048 0.0
H388 H 0.14505 0.739 0.68797 0.0
H389 H 0.12998 0.73868 0.7513 0.0
C390 C 0.15067 0.69223 0.80281 0.0
C391 C 0.16305 0.66521 0.82574 0.0
C392 C 0.16135 0.69643 0.76748 0.0
C393 C 0.18751 0.64479 0.81421 0.0
C394 C 0.19848 0.64924 0.77968 0.0
C395 C 0.19331 0.67435 0.71963 0.0
C396 C 0.17872 0.69709 0.69478 0.0
C397 C 0.18487 0.67383 0.75571 0.0
C398 C 0.15664 0.72135 0.7068 0.0
C399 C 0.14794 0.72095 0.74292 0.0
H400 H 0.87232 0.27382 0.19402 0.0
H401 H 0.80242 0.35462 0.18875 0.0
H402 H 0.80525 0.3646 0.25305 0.0
H403 H 0.83301 0.35894 0.30836 0.0
H404 H 0.9044 0.28097 0.3153 0.0
H405 H 0.89546 0.26069 0.25336 0.0
C406 C 0.8572 0.29264 0.2073 0.0
C407 C 0.83733 0.3137 0.18677 0.0
C408 C 0.85948 0.29908 0.24455 0.0
C409 C 0.81803 0.33837 0.20406 0.0
C410 C 0.81967 0.34418 0.24082 0.0
C411 C 0.8459 0.33655 0.29663 0.0
C412 C 0.86916 0.3213 0.31611 0.0
C413 C 0.84109 0.32595 0.26101 0.0
C414 C 0.88606 0.29266 0.30078 0.0
C415 C 0.88117 0.28146 0.26524 0.0
H416 H 0.66796 0.78976 0.30699 0.0
H417 H 0.70817 0.89845 0.3184 0.0
H418 H 0.70358 0.90963 0.25469 0.0
H419 H 0.6838 0.89232 0.19708 0.0
H420 H 0.64164 0.78565 0.1829 0.0
H421 H 0.6519 0.76949 0.24574 0.0
C422 C 0.67605 0.81555 0.29529 0.0
C423 C 0.688 0.84345 0.31757 0.0
C424 C 0.67294 0.82226 0.25811 0.0
C425 C 0.69844 0.87674 0.30206 0.0
C426 C 0.69592 0.88321 0.26552 0.0
C427 C 0.67722 0.86524 0.20755 0.0
C428 C 0.66176 0.84041 0.18555 0.0
C429 C 0.68253 0.85671 0.24353 0.0
C430 C 0.65371 0.80523 0.19932 0.0
C431 C 0.65931 0.79618 0.23535 0.0
H432 H 0.36407 0.22044 0.80609 0.0
H433 H 0.29076 0.14497 0.80188 0.0
H434 H 0.29484 0.14127 0.73695 0.0
H435 H 0.32501 0.14926 0.68364 0.0
H436 H 0.40006 0.22151 0.68653 0.0
H437 H 0.38946 0.23746 0.74921 0.0
C438 C 0.34842 0.20441 0.79065 0.0
C439 C 0.32718 0.18291 0.8085 0.0
C440 C 0.35152 0.20143 0.75313 0.0
C441 C 0.30729 0.16163 0.78851 0.0
C442 C 0.30969 0.15936 0.75144 0.0
C443 C 0.3383 0.16966 0.69766 0.0
C444 C 0.36311 0.18435 0.68077 0.0
C445 C 0.33254 0.17765 0.73372 0.0
C446 C 0.38056 0.21034 0.69905 0.0
C447 C 0.37471 0.21902 0.735 0.0
H448 H 0.61861 0.19887 0.80518 0.0
H449 H 0.69792 0.14434 0.83872 0.0
H450 H 0.71946 0.1545 0.77953 0.0
H451 H 0.71307 0.17091 0.71616 0.0
H452 H 0.63443 0.22622 0.68168 0.0
H453 H 0.61514 0.22404 0.7431 0.0
C454 C 0.64093 0.19042 0.79969 0.0
C455 C 0.65689 0.17123 0.82613 0.0
C456 C 0.65301 0.19595 0.76531 0.0
C457 C 0.68551 0.15957 0.81875 0.0
C458 C 0.6977 0.16508 0.78487 0.0
C459 C 0.69203 0.18332 0.72241 0.0
C460 C 0.67515 0.19876 0.69477 0.0
C461 C 0.68129 0.18204 0.75763 0.0
C462 C 0.64789 0.21465 0.70282 0.0
C463 C 0.63681 0.21311 0.73784 0.0
H464 H 0.36841 0.78137 0.18991 0.0
H465 H 0.29386 0.85515 0.19095 0.0
H466 H 0.29787 0.86232 0.25556 0.0
H467 H 0.32781 0.85727 0.30938 0.0
H468 H 0.4038 0.78644 0.30962 0.0
H469 H 0.39397 0.76786 0.24746 0.0
C470 C 0.35253 0.79786 0.20462 0.0
C471 C 0.33093 0.81784 0.18585 0.0
C472 C 0.35551 0.8028 0.24198 0.0
C473 C 0.31071 0.83966 0.20496 0.0
C474 C 0.31305 0.84392 0.24188 0.0
C475 C 0.3415 0.83664 0.29616 0.0
C476 C 0.36626 0.82294 0.31383 0.0
C477 C 0.33611 0.82703 0.26037 0.0
C478 C 0.3843 0.79679 0.29651 0.0
C479 C 0.37886 0.78657 0.26086 0.0
H480 H 0.3007 0.23972 0.99123 0.0
H481 H 0.24119 0.15887 0.94655 0.0
H482 H 0.20044 0.18809 0.97815 0.0
H483 H 0.18077 0.23945 0.01541 0.0
H484 H 0.23991 0.32239 0.05729 0.0
H485 H 0.28127 0.28972 0.03035 0.0
C486 C 0.27889 0.22821 0.98884 0.0
C487 C 0.27412 0.19709 0.96648 0.0
C488 C 0.25523 0.2458 0.0065 0.0
C489 C 0.24557 0.18284 0.96344 0.0
C490 C 0.22216 0.1996 0.98151 0.0
C491 C 0.20274 0.25008 0.019 0.0
C492 C 0.20709 0.28342 0.03837 0.0
C493 C 0.22657 0.23152 0.00266 0.0
C494 C 0.23579 0.29691 0.04243 0.0
C495 C 0.25956 0.27822 0.02698 0.0
H496 H 0.84681 0.75723 0.51112 0.0
H497 H 0.78971 0.67669 0.56127 0.0
H498 H 0.7473 0.70691 0.53429 0.0
H499 H 0.72614 0.75518 0.49462 0.0
H500 H 0.78351 0.83415 0.4426 0.0
H501 H 0.82563 0.80581 0.4719 0.0
C502 C 0.82507 0.74651 0.51637 0.0
C503 C 0.82156 0.71473 0.53826 0.0
C504 C 0.80063 0.76368 0.50017 0.0
C505 C 0.79317 0.70105 0.54447 0.0
C506 C 0.76881 0.71832 0.52901 0.0
C507 C 0.74784 0.76626 0.48982 0.0
C508 C 0.75152 0.79677 0.46633 0.0
C509 C 0.77223 0.74947 0.50651 0.0
C510 C 0.7799 0.81062 0.46039 0.0
C511 C 0.80411 0.79444 0.4772 0.0
H512 H 0.24342 0.81898 0.04565 0.0
H513 H 0.31334 0.75046 0.0043 0.0
H514 H 0.27808 0.71247 0.9713 0.0
H515 H 0.22703 0.6967 0.95635 0.0
H516 H 0.15728 0.76706 0.99517 0.0
H517 H 0.19268 0.80631 0.02665 0.0
C518 C 0.25096 0.79589 0.02922 0.0
C519 C 0.28105 0.78748 0.02772 0.0
C520 C 0.23052 0.77436 0.00987 0.0
C521 C 0.29039 0.75765 0.00598 0.0
C522 C 0.27019 0.73578 0.98717 0.0
C523 C 0.21958 0.72079 0.97149 0.0
C524 C 0.18944 0.72871 0.97355 0.0
C525 C 0.24015 0.74357 0.98923 0.0
C526 C 0.18028 0.76028 0.99304 0.0
C527 C 0.20054 0.78269 0.0112 0.0
H528 H 0.72766 0.25296 0.51009 0.0
H529 H 0.7853 0.19002 0.57881 0.0
H530 H 0.82769 0.21553 0.54765 0.0
H531 H 0.84897 0.25784 0.50212 0.0
H532 H 0.7914 0.32311 0.43542 0.0
H533 H 0.74892 0.2946 0.46404 0.0
C534 C 0.74949 0.24471 0.51813 0.0
C535 C 0.75312 0.21962 0.5469 0.0
C536 C 0.77402 0.25998 0.50032 0.0
C537 C 0.78169 0.20941 0.55694 0.0
C538 C 0.80606 0.22396 0.53905 0.0
C539 C 0.82713 0.26546 0.4936 0.0
C540 C 0.82349 0.29255 0.46655 0.0
C541 C 0.80258 0.24952 0.51085 0.0
C542 C 0.79495 0.30241 0.45619 0.0
C543 C 0.77055 0.28613 0.47261 0.0
H544 H 0.73048 0.8107 0.04776 0.0
H545 H 0.6618 0.73397 0.01874 0.0
H546 H 0.69712 0.69491 0.9867 0.0
H547 H 0.74707 0.6843 0.96408 0.0
H548 H 0.81621 0.75951 0.99488 0.0
H549 H 0.78128 0.79721 0.02918 0.0
C550 C 0.72325 0.78526 0.03468 0.0
C551 C 0.69338 0.77548 0.03551 0.0
C552 C 0.7438 0.76272 0.01646 0.0
C553 C 0.68455 0.74222 0.01862 0.0
C554 C 0.70477 0.71992 1.00014 0.0
C555 C 0.75457 0.70882 0.97849 0.0
C556 C 0.78426 0.71921 0.97661 0.0
C557 C 0.73437 0.73016 0.99844 0.0
C558 C 0.79356 0.75083 0.99581 0.0
C559 C 0.77354 0.77249 0.01534 0.0
H560 H 0.29596 0.19349 0.5421 0.0
H561 H 0.3647 0.26778 0.50746 0.0
H562 H 0.32893 0.30676 0.47618 0.0
H563 H 0.27827 0.31886 0.45714 0.0
H564 H 0.20928 0.24573 0.49321 0.0
H565 H 0.24491 0.20737 0.5255 0.0
C566 C 0.30314 0.21828 0.5278 0.0
C567 C 0.3331 0.22752 0.52702 0.0
C568 C 0.28236 0.24079 0.51005 0.0
C569 C 0.34187 0.25994 0.50856 0.0
C570 C 0.32139 0.28223 0.49058 0.0
C571 C 0.27097 0.29459 0.47216 0.0
C572 C 0.24106 0.28512 0.47252 0.0
C573 C 0.29161 0.27279 0.4909 0.0
C574 C 0.23208 0.25372 0.4924 0.0
C575 C 0.2525 0.2317 0.51083 0.0
H576 H 0.74863 0.31033 0.04863 0.0
H577 H 0.81523 0.23641 0.00759 0.0
H578 H 0.77827 0.20118 0.97457 0.0
H579 H 0.72666 0.18976 0.95909 0.0
H580 H 0.66027 0.26532 0.99788 0.0
H581 H 0.69739 0.30154 0.02969 0.0
C582 C 0.75507 0.28659 0.03235 0.0
C583 C 0.78472 0.27589 0.03087 0.0
C584 C 0.73367 0.26669 0.01298 0.0
C585 C 0.79265 0.2453 0.00928 0.0
C586 C 0.77147 0.22505 0.99042 0.0
C587 C 0.72031 0.21431 0.97431 0.0
C588 C 0.6906 0.22462 0.9762 0.0
C589 C 0.74187 0.23526 0.99232 0.0
C590 C 0.6829 0.25672 0.99585 0.0
C591 C 0.70415 0.27739 0.0142 0.0
H592 H 0.22707 0.75274 0.5104 0.0
H593 H 0.28533 0.68762 0.57638 0.0
H594 H 0.32744 0.71388 0.54504 0.0
H595 H 0.34823 0.75735 0.50002 0.0
H596 H 0.28985 0.8248 0.43639 0.0
H597 H 0.24774 0.79568 0.46522 0.0
C598 C 0.24896 0.74417 0.5178 0.0
C599 C 0.25288 0.71821 0.54581 0.0
C600 C 0.27328 0.7599 0.49997 0.0
C601 C 0.28153 0.70764 0.55508 0.0
C602 C 0.30572 0.72263 0.53709 0.0
C603 C 0.32629 0.76534 0.49223 0.0
C604 C 0.32232 0.7932 0.46596 0.0
C605 C 0.30195 0.74902 0.50963 0.0
C606 C 0.29365 0.80352 0.45655 0.0
C607 C 0.26947 0.78688 0.47308 0.0
H608 H 0.12708 0.53729 0.93732 0.0
H609 H 0.12294 0.59411 0.03912 0.0
H610 H 0.12321 0.53387 0.07029 0.0
H611 H 0.12794 0.4653 0.06876 0.0
H612 H 0.13163 0.40827 0.96707 0.0
H613 H 0.12799 0.46831 0.93573 0.0
C614 C 0.12597 0.5365 0.96633 0.0
C615 C 0.12522 0.57022 0.98588 0.0
C616 C 0.12617 0.50171 0.98409 0.0
C617 C 0.12357 0.56864 0.02342 0.0
C618 C 0.12382 0.53418 0.04127 0.0
C619 C 0.12768 0.46595 0.03972 0.0
C620 C 0.13028 0.43233 0.02028 0.0
C621 C 0.12562 0.50057 0.02191 0.0
C622 C 0.12968 0.43369 0.98268 0.0
C623 C 0.1277 0.46805 0.96475 0.0
H624 H 0.89579 0.58046 0.48022 0.0
H625 H 0.90249 0.5401 0.58887 0.0
H626 H 0.90463 0.47575 0.56749 0.0
H627 H 0.90093 0.43041 0.51839 0.0
H628 H 0.89319 0.47012 0.40968 0.0
H629 H 0.89531 0.53488 0.43052 0.0
C630 C 0.89812 0.55759 0.49913 0.0
C631 C 0.89881 0.56514 0.53608 0.0
C632 C 0.89893 0.52037 0.48667 0.0
C633 C 0.90176 0.53515 0.56027 0.0
C634 C 0.90294 0.49824 0.54809 0.0
C635 C 0.9 0.45323 0.49923 0.0
C636 C 0.8967 0.4454 0.46259 0.0
C637 C 0.90095 0.49045 0.51142 0.0
C638 C 0.89561 0.47533 0.43809 0.0
C639 C 0.89678 0.51242 0.44998 0.0
H640 H 0.84027 0.48213 0.0748 0.0
H641 H 0.82961 0.39686 0.99381 0.0
H642 H 0.82418 0.44536 0.94815 0.0
H643 H 0.82572 0.51123 0.93083 0.0
H644 H 0.83782 0.59665 0.0113 0.0
H645 H 0.83903 0.54839 0.05783 0.0
C646 C 0.83661 0.47397 0.04721 0.0
C647 C 0.83568 0.43571 0.03778 0.0
C648 C 0.8338 0.50196 0.02106 0.0
C649 C 0.8306 0.42595 1.00189 0.0
C650 C 0.82752 0.45369 0.97574 0.0
C651 C 0.82846 0.51953 0.95855 0.0
C652 C 0.83201 0.55766 0.96744 0.0
C653 C 0.8296 0.4917 0.98498 0.0
C654 C 0.83513 0.56763 0.00361 0.0
C655 C 0.83595 0.54001 0.03021 0.0
H656 H 0.20761 0.49033 0.44484 0.0
H657 H 0.17861 0.40585 0.51958 0.0
H658 H 0.17898 0.45228 0.5679 0.0
H659 H 0.18283 0.51807 0.58711 0.0
H660 H 0.21051 0.60225 0.51103 0.0
H661 H 0.21536 0.55442 0.46495 0.0
C662 C 0.20155 0.48186 0.47176 0.0
C663 C 0.19264 0.44474 0.47847 0.0
C664 C 0.20134 0.50871 0.49905 0.0
C665 C 0.18547 0.4342 0.51365 0.0
C666 C 0.18551 0.46082 0.5412 0.0
C667 C 0.19022 0.52602 0.56057 0.0
C668 C 0.19592 0.56398 0.55255 0.0
C669 C 0.19266 0.49837 0.53396 0.0
C670 C 0.20572 0.57346 0.51802 0.0
C671 C 0.20848 0.54609 0.49158 0.0
H672 H 0.62352 0.03707 0.93731 0.0
H673 H 0.62084 0.09369 0.03932 0.0
H674 H 0.62068 0.03353 0.07036 0.0
H675 H 0.62453 0.96509 0.06878 0.0
H676 H 0.6264 0.90776 0.96721 0.0
H677 H 0.62344 0.96787 0.93576 0.0
C678 C 0.62262 0.03621 0.96633 0.0
C679 C 0.62243 0.06988 0.98597 0.0
C680 C 0.62253 1.00139 0.98409 0.0
C681 C 0.62107 0.06827 0.02353 0.0
C682 C 0.62106 0.03384 0.04134 0.0
C683 C 0.62404 0.96568 0.03975 0.0
C684 C 0.62592 0.932 0.02036 0.0
C685 C 0.62229 1.00027 0.02192 0.0
C686 C 0.62499 0.93327 0.98277 0.0
C687 C 0.62341 0.96766 0.96478 0.0
H688 H 0.39681 0.93103 0.51716 0.0
H689 H 0.39765 0.96947 0.40762 0.0
H690 H 0.40051 0.03434 0.42787 0.0
H691 H 0.39934 0.08068 0.47689 0.0
H692 H 0.39671 0.04182 0.58629 0.0
H693 H 0.39821 0.97705 0.566 0.0
C694 C 0.39796 0.95358 0.49774 0.0
C695 C 0.3969 0.94535 0.46096 0.0
C696 C 0.39914 0.99096 0.50957 0.0
C697 C 0.39832 0.97496 0.43613 0.0
C698 C 0.39992 0.01215 0.44768 0.0
C699 C 0.39947 0.05802 0.49624 0.0
C700 C 0.39781 0.06618 0.53303 0.0
C701 C 0.39983 0.02057 0.48435 0.0
C702 C 0.39785 0.03644 0.55779 0.0
C703 C 0.39867 0.99928 0.54622 0.0
H704 H 0.33613 0.91936 0.99848 0.0
H705 H 0.32058 0.99174 0.08907 0.0
H706 H 0.31877 0.04601 0.04975 0.0
H707 H 0.3252 0.07394 0.99008 0.0
H708 H 0.34112 1.00132 0.89962 0.0
H709 H 0.33903 0.9468 0.9383 0.0
C710 C 0.3319 0.9469 0.00955 0.0
C711 C 0.32884 0.95132 0.04673 0.0
C712 C 0.33123 0.97833 0.98681 0.0
C713 C 0.32339 0.98739 0.06057 0.0
C714 C 0.32236 0.0186 0.0381 0.0
C715 C 0.32801 0.04621 0.97877 0.0
C716 C 0.33362 0.04212 0.94197 0.0
C717 C 0.32691 0.01457 1.00124 0.0
C718 C 0.33699 0.00572 0.92787 0.0
C719 C 0.33579 0.97427 0.94998 0.0
H720 H 0.69091 0.01889 0.58825 0.0
H721 H 0.70598 0.10572 0.50965 0.0
H722 H 0.7085 0.05872 0.46252 0.0
H723 H 0.70162 0.99417 0.44283 0.0
H724 H 0.68579 0.90701 0.5206 0.0
H725 H 0.6888 0.95308 0.56899 0.0
C726 C 0.69508 0.02761 0.56089 0.0
C727 C 0.6978 0.066 0.55256 0.0
C728 C 0.6962 1.00043 0.53375 0.0
C729 C 0.70357 0.07653 0.51694 0.0
C730 C 0.70494 0.04965 0.48989 0.0
C731 C 0.69905 0.98511 0.47039 0.0
C732 C 0.69301 0.94728 0.47806 0.0
C733 C 0.70049 0.01171 0.49788 0.0
C734 C 0.69035 0.93595 0.51395 0.0
C735 C 0.69191 0.96233 0.54159 0.0
loop_
_geom_bond_atom_site_label_1
_geom_bond_atom_site_label_2
_geom_bond_distance
_geom_bond_site_symmetry_2
_ccdc_geom_bond_type
Co0 O1 2.216 . S
Co0 O2 2.091 . S
Co0 O4 2.004 . S
Co0 O10 2.021 . S
Co0 O12 2.137 . S
Co0 O13 2.244 . S
O1 Co0 2.216 . S
O1 C8 1.247 . S
O2 Co0 2.091 . S
O2 C8 1.261 . S
C3 O12 1.247 . S
C3 O13 1.272 . S
O4 Co0 2.004 . S
O4 C9 1.259 . S
Co5 O6 2.061 . S
Co5 O11 2.052 . S
Co5 O13 2.135 . S
O6 Co5 2.061 . S
O6 C9 1.235 . S
C7 O10 1.238 . S
C7 O11 1.241 . S
C8 O1 1.247 . S
C8 O2 1.261 . S
C9 O4 1.259 . S
C9 O6 1.235 . S
O10 Co0 2.021 . S
O10 C7 1.238 . S
O11 Co5 2.052 . S
O11 C7 1.241 . S
O12 Co0 2.137 . S
O12 C3 1.247 . S
O13 Co0 2.244 . S
O13 C3 1.272 . S
O13 Co5 2.135 . S
Co14 O15 2.216 . S
Co14 O16 2.091 . S
Co14 O18 2.004 . S
Co14 O24 2.021 . S
Co14 O26 2.137 . S
Co14 O27 2.244 . S
O15 Co14 2.216 . S
O15 C22 1.247 . S
O16 Co14 2.091 . S
O16 C22 1.261 . S
C17 O26 1.247 . S
C17 O27 1.272 . S
O18 Co14 2.004 . S
O18 C23 1.259 . S
Co19 O20 2.061 . S
Co19 O25 2.052 . S
Co19 O27 2.135 . S
O20 Co19 2.061 . S
O20 C23 1.235 . S
C21 O24 1.238 . S
C21 O25 1.241 . S
C22 O15 1.247 . S
C22 O16 1.261 . S
C23 O18 1.259 . S
C23 O20 1.235 . S
O24 Co14 2.021 . S
O24 C21 1.238 . S
O25 Co19 2.052 . S
O25 C21 1.241 . S
O26 Co14 2.137 . S
O26 C17 1.247 . S
O27 Co14 2.244 . S
O27 C17 1.272 . S
O27 Co19 2.135 . S
Co28 O29 2.216 . S
Co28 O30 2.091 . S
Co28 O32 2.004 . S
Co28 O38 2.021 . S
Co28 O40 2.137 . S
Co28 O41 2.244 . S
O29 Co28 2.216 . S
O29 C36 1.247 . S
O30 Co28 2.091 . S
O30 C36 1.261 . S
C31 O40 1.247 . S
C31 O41 1.272 . S
O32 Co28 2.004 . S
O32 C37 1.259 . S
Co33 O34 2.061 . S
Co33 O39 2.052 . S
Co33 O41 2.135 . S
O34 Co33 2.061 . S
O34 C37 1.235 . S
C35 O38 1.238 . S
C35 O39 1.241 . S
C36 O29 1.247 . S
C36 O30 1.261 . S
C37 O32 1.259 . S
C37 O34 1.235 . S
O38 Co28 2.021 . S
O38 C35 1.238 . S
O39 Co33 2.052 . S
O39 C35 1.241 . S
O40 Co28 2.137 . S
O40 C31 1.247 . S
O41 Co28 2.244 . S
O41 C31 1.272 . S
O41 Co33 2.135 . S
Co42 O43 2.216 . S
Co42 O44 2.091 . S
Co42 O46 2.004 . S
Co42 O52 2.021 . S
Co42 O54 2.137 . S
Co42 O55 2.244 . S
O43 Co42 2.216 . S
O43 C50 1.247 . S
O44 Co42 2.091 . S
O44 C50 1.261 . S
C45 O54 1.247 . S
C45 O55 1.272 . S
O46 Co42 2.004 . S
O46 C51 1.259 . S
Co47 O48 2.061 . S
Co47 O53 2.052 . S
Co47 O55 2.135 . S
O48 Co47 2.061 . S
O48 C51 1.235 . S
C49 O52 1.238 . S
C49 O53 1.241 . S
C50 O43 1.247 . S
C50 O44 1.261 . S
C51 O46 1.259 . S
C51 O48 1.235 . S
O52 Co42 2.021 . S
O52 C49 1.238 . S
O53 Co47 2.052 . S
O53 C49 1.241 . S
O54 Co42 2.137 . S
O54 C45 1.247 . S
O55 Co42 2.244 . S
O55 C45 1.272 . S
O55 Co47 2.135 . S
Co56 O57 2.216 . S
Co56 O58 2.091 . S
Co56 O60 2.004 . S
Co56 O66 2.021 . S
Co56 O68 2.137 . S
Co56 O69 2.244 . S
O57 Co56 2.216 . S
O57 C64 1.247 . S
O58 Co56 2.091 . S
O58 C64 1.261 . S
C59 O68 1.247 . S
C59 O69 1.272 . S
O60 Co56 2.004 . S
O60 C65 1.259 . S
Co61 O62 2.061 . S
Co61 O67 2.052 . S
Co61 O69 2.135 . S
O62 Co61 2.061 . S
O62 C65 1.235 . S
C63 O66 1.238 . S
C63 O67 1.241 . S
C64 O57 1.247 . S
C64 O58 1.261 . S
C65 O60 1.259 . S
C65 O62 1.235 . S
O66 Co56 2.021 . S
O66 C63 1.238 . S
O67 Co61 2.052 . S
O67 C63 1.241 . S
O68 Co56 2.137 . S
O68 C59 1.247 . S
O69 Co56 2.244 . S
O69 C59 1.272 . S
O69 Co61 2.135 . S
Co70 O71 2.216 . S
Co70 O72 2.091 . S
Co70 O74 2.004 . S
Co70 O80 2.021 . S
Co70 O82 2.137 . S
Co70 O83 2.244 . S
O71 Co70 2.216 . S
O71 C78 1.247 . S
O72 Co70 2.091 . S
O72 C78 1.261 . S
C73 O82 1.247 . S
C73 O83 1.272 . S
O74 Co70 2.004 . S
O74 C79 1.259 . S
Co75 O76 2.061 . S
Co75 O81 2.052 . S
Co75 O83 2.135 . S
O76 Co75 2.061 . S
O76 C79 1.235 . S
C77 O80 1.238 . S
C77 O81 1.241 . S
C78 O71 1.247 . S
C78 O72 1.261 . S
C79 O74 1.259 . S
C79 O76 1.235 . S
O80 Co70 2.021 . S
O80 C77 1.238 . S
O81 Co75 2.052 . S
O81 C77 1.241 . S
O82 Co70 2.137 . S
O82 C73 1.247 . S
O83 Co70 2.244 . S
O83 C73 1.272 . S
O83 Co75 2.135 . S
Co84 O85 2.216 . S
Co84 O86 2.091 . S
Co84 O88 2.004 . S
Co84 O94 2.021 . S
Co84 O96 2.137 . S
Co84 O97 2.244 . S
O85 Co84 2.216 . S
O85 C92 1.247 . S
O86 Co84 2.091 . S
O86 C92 1.261 . S
C87 O96 1.247 . S
C87 O97 1.272 . S
O88 Co84 2.004 . S
O88 C93 1.259 . S
Co89 O90 2.061 . S
Co89 O95 2.052 . S
Co89 O97 2.135 . S
O90 Co89 2.061 . S
O90 C93 1.235 . S
C91 O94 1.238 . S
C91 O95 1.241 . S
C92 O85 1.247 . S
C92 O86 1.261 . S
C93 O88 1.259 . S
C93 O90 1.235 . S
O94 Co84 2.021 . S
O94 C91 1.238 . S
O95 Co89 2.052 . S
O95 C91 1.241 . S
O96 Co84 2.137 . S
O96 C87 1.247 . S
O97 Co84 2.244 . S
O97 C87 1.272 . S
O97 Co89 2.135 . S
Co98 O99 2.216 . S
Co98 O100 2.091 . S
Co98 O102 2.004 . S
Co98 O108 2.021 . S
Co98 O110 2.137 . S
Co98 O111 2.244 . S
O99 Co98 2.216 . S
O99 C106 1.247 . S
O100 Co98 2.091 . S
O100 C106 1.261 . S
C101 O110 1.247 . S
C101 O111 1.272 . S
O102 Co98 2.004 . S
O102 C107 1.259 . S
Co103 O104 2.061 . S
Co103 O109 2.052 . S
Co103 O111 2.135 . S
O104 Co103 2.061 . S
O104 C107 1.235 . S
C105 O108 1.238 . S
C105 O109 1.241 . S
C106 O99 1.247 . S
C106 O100 1.261 . S
C107 O102 1.259 . S
C107 O104 1.235 . S
O108 Co98 2.021 . S
O108 C105 1.238 . S
O109 Co103 2.052 . S
O109 C105 1.241 . S
O110 Co98 2.137 . S
O110 C101 1.247 . S
O111 Co98 2.244 . S
O111 C101 1.272 . S
O111 Co103 2.135 . S
Co112 O113 2.216 . S
Co112 O114 2.091 . S
Co112 O116 2.004 . S
Co112 O122 2.021 . S
Co112 O124 2.137 . S
Co112 O125 2.244 . S
O113 Co112 2.216 . S
O113 C120 1.247 . S
O114 Co112 2.091 . S
O114 C120 1.261 . S
C115 O124 1.247 . S
C115 O125 1.272 . S
O116 Co112 2.004 . S
O116 C121 1.259 . S
Co117 O118 2.061 . S
Co117 O123 2.052 . S
Co117 O125 2.135 . S
O118 Co117 2.061 . S
O118 C121 1.235 . S
C119 O122 1.238 . S
C119 O123 1.241 . S
C120 O113 1.247 . S
C120 O114 1.261 . S
C121 O116 1.259 . S
C121 O118 1.235 . S
O122 Co112 2.021 . S
O122 C119 1.238 . S
O123 Co117 2.052 . S
O123 C119 1.241 . S
O124 Co112 2.137 . S
O124 C115 1.247 . S
O125 Co112 2.244 . S
O125 C115 1.272 . S
O125 Co117 2.135 . S
Co126 O127 2.216 . S
Co126 O128 2.091 . S
Co126 O130 2.004 . S
Co126 O136 2.021 . S
Co126 O138 2.137 . S
Co126 O139 2.244 . S
O127 Co126 2.216 . S
O127 C134 1.247 . S
O128 Co126 2.091 . S
O128 C134 1.261 . S
C129 O138 1.247 . S
C129 O139 1.272 . S
O130 Co126 2.004 . S
O130 C135 1.259 . S
Co131 O132 2.061 . S
Co131 O137 2.052 . S
Co131 O139 2.135 . S
O132 Co131 2.061 . S
O132 C135 1.235 . S
C133 O136 1.238 . S
C133 O137 1.241 . S
C134 O127 1.247 . S
C134 O128 1.261 . S
C135 O130 1.259 . S
C135 O132 1.235 . S
O136 Co126 2.021 . S
O136 C133 1.238 . S
O137 Co131 2.052 . S
O137 C133 1.241 . S
O138 Co126 2.137 . S
O138 C129 1.247 . S
O139 Co126 2.244 . S
O139 C129 1.272 . S
O139 Co131 2.135 . S
Co140 O141 2.216 . S
Co140 O142 2.091 . S
Co140 O144 2.004 . S
Co140 O150 2.021 . S
Co140 O152 2.137 . S
Co140 O153 2.244 . S
O141 Co140 2.216 . S
O141 C148 1.247 . S
O142 Co140 2.091 . S
O142 C148 1.261 . S
C143 O152 1.247 . S
C143 O153 1.272 . S
O144 Co140 2.004 . S
O144 C149 1.259 . S
Co145 O146 2.061 . S
Co145 O151 2.052 . S
Co145 O153 2.135 . S
O146 Co145 2.061 . S
O146 C149 1.235 . S
C147 O150 1.238 . S
C147 O151 1.241 . S
C148 O141 1.247 . S
C148 O142 1.261 . S
C149 O144 1.259 . S
C149 O146 1.235 . S
O150 Co140 2.021 . S
O150 C147 1.238 . S
O151 Co145 2.052 . S
O151 C147 1.241 . S
O152 Co140 2.137 . S
O152 C143 1.247 . S
O153 Co140 2.244 . S
O153 C143 1.272 . S
O153 Co145 2.135 . S
Co154 O155 2.216 . S
Co154 O156 2.091 . S
Co154 O158 2.004 . S
Co154 O164 2.021 . S
Co154 O166 2.137 . S
Co154 O167 2.244 . S
O155 Co154 2.216 . S
O155 C162 1.247 . S
O156 Co154 2.091 . S
O156 C162 1.261 . S
C157 O166 1.247 . S
C157 O167 1.272 . S
O158 Co154 2.004 . S
O158 C163 1.259 . S
Co159 O160 2.061 . S
Co159 O165 2.052 . S
Co159 O167 2.135 . S
O160 Co159 2.061 . S
O160 C163 1.235 . S
C161 O164 1.238 . S
C161 O165 1.241 . S
C162 O155 1.247 . S
C162 O156 1.261 . S
C163 O158 1.259 . S
C163 O160 1.235 . S
O164 Co154 2.021 . S
O164 C161 1.238 . S
O165 Co159 2.052 . S
O165 C161 1.241 . S
O166 Co154 2.137 . S
O166 C157 1.247 . S
O167 Co154 2.244 . S
O167 C157 1.272 . S
O167 Co159 2.135 . S
Co168 O169 2.216 . S
Co168 O170 2.091 . S
Co168 O172 2.004 . S
Co168 O178 2.021 . S
Co168 O180 2.137 . S
Co168 O181 2.244 . S
O169 Co168 2.216 . S
O169 C176 1.247 . S
O170 Co168 2.091 . S
O170 C176 1.261 . S
C171 O180 1.247 . S
C171 O181 1.272 . S
O172 Co168 2.004 . S
O172 C177 1.259 . S
Co173 O174 2.061 . S
Co173 O179 2.052 . S
Co173 O181 2.135 . S
O174 Co173 2.061 . S
O174 C177 1.235 . S
C175 O178 1.238 . S
C175 O179 1.241 . S
C176 O169 1.247 . S
C176 O170 1.261 . S
C177 O172 1.259 . S
C177 O174 1.235 . S
O178 Co168 2.021 . S
O178 C175 1.238 . S
O179 Co173 2.052 . S
O179 C175 1.241 . S
O180 Co168 2.137 . S
O180 C171 1.247 . S
O181 Co168 2.244 . S
O181 C171 1.272 . S
O181 Co173 2.135 . S
Co182 O183 2.216 . S
Co182 O184 2.091 . S
Co182 O186 2.004 . S
Co182 O192 2.021 . S
Co182 O194 2.137 . S
Co182 O195 2.244 . S
O183 Co182 2.216 . S
O183 C190 1.247 . S
O184 Co182 2.091 . S
O184 C190 1.261 . S
C185 O194 1.247 . S
C185 O195 1.272 . S
O186 Co182 2.004 . S
O186 C191 1.259 . S
Co187 O188 2.061 . S
Co187 O193 2.052 . S
Co187 O195 2.135 . S
O188 Co187 2.061 . S
O188 C191 1.235 . S
C189 O192 1.238 . S
C189 O193 1.241 . S
C190 O183 1.247 . S
C190 O184 1.261 . S
C191 O186 1.259 . S
C191 O188 1.235 . S
O192 Co182 2.021 . S
O192 C189 1.238 . S
O193 Co187 2.052 . S
O193 C189 1.241 . S
O194 Co182 2.137 . S
O194 C185 1.247 . S
O195 Co182 2.244 . S
O195 C185 1.272 . S
O195 Co187 2.135 . S
Co196 O197 2.216 . S
Co196 O198 2.091 . S
Co196 O200 2.004 . S
Co196 O206 2.021 . S
Co196 O208 2.137 . S
Co196 O209 2.244 . S
O197 Co196 2.216 . S
O197 C204 1.247 . S
O198 Co196 2.091 . S
O198 C204 1.261 . S
C199 O208 1.247 . S
C199 O209 1.272 . S
O200 Co196 2.004 . S
O200 C205 1.259 . S
Co201 O202 2.061 . S
Co201 O207 2.052 . S
Co201 O209 2.135 . S
O202 Co201 2.061 . S
O202 C205 1.235 . S
C203 O206 1.238 . S
C203 O207 1.241 . S
C204 O197 1.247 . S
C204 O198 1.261 . S
C205 O200 1.259 . S
C205 O202 1.235 . S
O206 Co196 2.021 . S
O206 C203 1.238 . S
O207 Co201 2.052 . S
O207 C203 1.241 . S
O208 Co196 2.137 . S
O208 C199 1.247 . S
O209 Co196 2.244 . S
O209 C199 1.272 . S
O209 Co201 2.135 . S
Co210 O211 2.216 . S
Co210 O212 2.091 . S
Co210 O214 2.004 . S
Co210 O220 2.021 . S
Co210 O222 2.137 . S
Co210 O223 2.244 . S
O211 Co210 2.216 . S
O211 C218 1.247 . S
O212 Co210 2.091 . S
O212 C218 1.261 . S
C213 O222 1.247 . S
C213 O223 1.272 . S
O214 Co210 2.004 . S
O214 C219 1.259 . S
Co215 O216 2.061 . S
Co215 O221 2.052 . S
Co215 O223 2.135 . S
O216 Co215 2.061 . S
O216 C219 1.235 . S
C217 O220 1.238 . S
C217 O221 1.241 . S
C218 O211 1.247 . S
C218 O212 1.261 . S
C219 O214 1.259 . S
C219 O216 1.235 . S
O220 Co210 2.021 . S
O220 C217 1.238 . S
O221 Co215 2.052 . S
O221 C217 1.241 . S
O222 Co210 2.137 . S
O222 C213 1.247 . S
O223 Co210 2.244 . S
O223 C213 1.272 . S
O223 Co215 2.135 . S
H224 C230 0.930 . S
H225 C233 0.930 . S
H226 C234 0.930 . S
H227 C235 0.930 . S
H228 C238 0.930 . S
H229 C239 0.930 . S
C230 H224 0.930 . S
C230 C231 1.355 . S
C230 C232 1.446 . S
C231 C230 1.355 . S
C231 C233 1.419 . S
C232 C230 1.446 . S
C232 C237 1.415 1_455 S
C232 C239 1.388 1_455 S
C233 H225 0.930 . S
C233 C231 1.419 . S
C233 C234 1.362 . S
C234 H226 0.930 . S
C234 C233 1.362 . S
C234 C237 1.409 1_455 S
C235 H227 0.930 . S
C235 C236 1.355 . S
C235 C237 1.415 . S
C236 C235 1.355 . S
C236 C238 1.419 . S
C237 C232 1.415 1_655 S
C237 C234 1.409 1_655 S
C237 C235 1.415 . S
C238 H228 0.930 . S
C238 C236 1.419 . S
C238 C239 1.362 . S
C239 H229 0.930 . S
C239 C232 1.388 1_655 S
C239 C238 1.362 . S
H240 C246 0.930 . S
H241 C249 0.930 . S
H242 C250 0.930 . S
H243 C251 0.930 . S
H244 C254 0.930 . S
H245 C255 0.930 . S
C246 H240 0.930 . S
C246 C247 1.355 . S
C246 C248 1.454 . S
C247 C246 1.355 . S
C247 C249 1.419 . S
C248 C246 1.454 . S
C248 C253 1.412 1_655 S
C248 C255 1.383 1_655 S
C249 H241 0.930 . S
C249 C247 1.419 . S
C249 C250 1.362 . S
C250 H242 0.930 . S
C250 C249 1.362 . S
C250 C253 1.409 1_655 S
C251 H243 0.930 . S
C251 C252 1.355 . S
C251 C253 1.415 . S
C252 C251 1.355 . S
C252 C254 1.419 . S
C253 C248 1.412 1_455 S
C253 C250 1.409 1_455 S
C253 C251 1.415 . S
C254 H244 0.930 . S
C254 C252 1.419 . S
C254 C255 1.362 . S
C255 H245 0.930 . S
C255 C248 1.383 1_455 S
C255 C254 1.362 . S
H256 C262 0.930 . S
H257 C265 0.930 . S
H258 C266 0.930 . S
H259 C267 0.930 . S
H260 C270 0.930 . S
H261 C271 0.930 . S
C262 H256 0.930 . S
C262 C263 1.355 . S
C262 C264 1.415 . S
C263 C262 1.355 . S
C263 C265 1.419 . S
C264 C262 1.415 . S
C264 C269 1.414 1_655 S
C264 C271 1.409 1_655 S
C265 H257 0.930 . S
C265 C263 1.419 . S
C265 C266 1.362 . S
C266 H258 0.930 . S
C266 C265 1.362 . S
C266 C269 1.385 1_655 S
C267 H259 0.930 . S
C267 C268 1.355 . S
C267 C269 1.450 . S
C268 C267 1.355 . S
C268 C270 1.419 . S
C269 C264 1.414 1_455 S
C269 C266 1.385 1_455 S
C269 C267 1.450 . S
C270 H260 0.930 . S
C270 C268 1.419 . S
C270 C271 1.362 . S
C271 H261 0.930 . S
C271 C264 1.409 1_455 S
C271 C270 1.362 . S
H272 C278 0.930 . S
H273 C281 0.930 . S
H274 C282 0.930 . S
H275 C283 0.930 . S
H276 C286 0.930 . S
H277 C287 0.930 . S
C278 H272 0.930 . S
C278 C279 1.355 . S
C278 C280 1.415 . S
C279 C278 1.355 . S
C279 C281 1.419 . S
C280 C278 1.415 . S
C280 C285 1.414 1_455 S
C280 C287 1.409 1_455 S
C281 H273 0.930 . S
C281 C279 1.419 . S
C281 C282 1.362 . S
C282 H274 0.930 . S
C282 C281 1.362 . S
C282 C285 1.386 1_455 S
C283 H275 0.930 . S
C283 C284 1.355 . S
C283 C285 1.449 . S
C284 C283 1.355 . S
C284 C286 1.419 . S
C285 C280 1.414 1_655 S
C285 C282 1.386 1_655 S
C285 C283 1.449 . S
C286 H276 0.930 . S
C286 C284 1.419 . S
C286 C287 1.362 . S
C287 H277 0.930 . S
C287 C280 1.409 1_655 S
C287 C286 1.362 . S
H288 C294 0.930 . S
H289 C297 0.930 . S
H290 C298 0.930 . S
H291 C299 0.930 . S
H292 C302 0.930 . S
H293 C303 0.930 . S
C294 H288 0.930 . S
C294 C295 1.355 . S
C294 C296 1.415 . S
C295 C294 1.355 . S
C295 C297 1.419 . S
C296 C294 1.415 . S
C296 C301 1.425 . S
C296 C303 1.409 . S
C297 H289 0.930 . S
C297 C295 1.419 . S
C297 C298 1.362 . S
C298 H290 0.930 . S
C298 C297 1.362 . S
C298 C301 1.409 . S
C299 H291 0.930 . S
C299 C300 1.355 . S
C299 C301 1.415 . S
C300 C299 1.355 . S
C300 C302 1.419 . S
C301 C296 1.425 . S
C301 C298 1.409 . S
C301 C299 1.415 . S
C302 H292 0.930 . S
C302 C300 1.419 . S
C302 C303 1.362 . S
C303 H293 0.930 . S
C303 C296 1.409 . S
C303 C302 1.362 . S
H304 C310 0.930 . S
H305 C313 0.930 . S
H306 C314 0.930 . S
H307 C315 0.930 . S
H308 C318 0.930 . S
H309 C319 0.930 . S
C310 H304 0.930 . S
C310 C311 1.355 . S
C310 C312 1.415 . S
C311 C310 1.355 . S
C311 C313 1.419 . S
C312 C310 1.415 . S
C312 C317 1.425 . S
C312 C319 1.409 . S
C313 H305 0.930 . S
C313 C311 1.419 . S
C313 C314 1.362 . S
C314 H306 0.930 . S
C314 C313 1.362 . S
C314 C317 1.409 . S
C315 H307 0.930 . S
C315 C316 1.355 . S
C315 C317 1.415 . S
C316 C315 1.355 . S
C316 C318 1.419 . S
C317 C312 1.425 . S
C317 C314 1.409 . S
C317 C315 1.415 . S
C318 H308 0.930 . S
C318 C316 1.419 . S
C318 C319 1.362 . S
C319 H309 0.930 . S
C319 C312 1.409 . S
C319 C318 1.362 . S
H320 C326 0.930 . S
H321 C329 0.930 . S
H322 C330 0.930 . S
H323 C331 0.930 . S
H324 C334 0.930 . S
H325 C335 0.930 . S
C326 H320 0.930 . S
C326 C327 1.355 . S
C326 C328 1.415 . S
C327 C326 1.355 . S
C327 C329 1.419 . S
C328 C326 1.415 . S
C328 C333 1.425 . S
C328 C335 1.409 . S
C329 H321 0.930 . S
C329 C327 1.419 . S
C329 C330 1.362 . S
C330 H322 0.930 . S
C330 C329 1.362 . S
C330 C333 1.409 . S
C331 H323 0.930 . S
C331 C332 1.355 . S
C331 C333 1.415 . S
C332 C331 1.355 . S
C332 C334 1.419 . S
C333 C328 1.425 . S
C333 C330 1.409 . S
C333 C331 1.415 . S
C334 H324 0.930 . S
C334 C332 1.419 . S
C334 C335 1.362 . S
C335 H325 0.930 . S
C335 C328 1.409 . S
C335 C334 1.362 . S
H336 C342 0.930 . S
H337 C345 0.930 . S
H338 C346 0.930 . S
H339 C347 0.930 . S
H340 C350 0.930 . S
H341 C351 0.930 . S
C342 H336 0.930 . S
C342 C343 1.355 . S
C342 C344 1.415 . S
C343 C342 1.355 . S
C343 C345 1.419 . S
C344 C342 1.415 . S
C344 C349 1.425 . S
C344 C351 1.409 . S
C345 H337 0.930 . S
C345 C343 1.419 . S
C345 C346 1.362 . S
C346 H338 0.930 . S
C346 C345 1.362 . S
C346 C349 1.409 . S
C347 H339 0.930 . S
C347 C348 1.355 . S
C347 C349 1.415 . S
C348 C347 1.355 . S
C348 C350 1.419 . S
C349 C344 1.425 . S
C349 C346 1.409 . S
C349 C347 1.415 . S
C350 H340 0.930 . S
C350 C348 1.419 . S
C350 C351 1.362 . S
C351 H341 0.930 . S
C351 C344 1.409 . S
C351 C350 1.362 . S
H352 C358 0.930 . S
H353 C361 0.930 . S
H354 C362 0.930 . S
H355 C363 0.930 . S
H356 C366 0.930 . S
H357 C367 0.930 . S
C358 H352 0.930 . S
C358 C359 1.355 . S
C358 C360 1.415 . S
C359 C358 1.355 . S
C359 C361 1.419 . S
C360 C358 1.415 . S
C360 C365 1.425 . S
C360 C367 1.409 . S
C361 H353 0.930 . S
C361 C359 1.419 . S
C361 C362 1.362 . S
C362 H354 0.930 . S
C362 C361 1.362 . S
C362 C365 1.409 . S
C363 H355 0.930 . S
C363 C364 1.355 . S
C363 C365 1.415 . S
C364 C363 1.355 . S
C364 C366 1.419 . S
C365 C360 1.425 . S
C365 C362 1.409 . S
C365 C363 1.415 . S
C366 H356 0.930 . S
C366 C364 1.419 . S
C366 C367 1.362 . S
C367 H357 0.930 . S
C367 C360 1.409 . S
C367 C366 1.362 . S
H368 C374 0.930 . S
H369 C377 0.930 . S
H370 C378 0.930 . S
H371 C379 0.930 . S
H372 C382 0.930 . S
H373 C383 0.930 . S
C374 H368 0.930 . S
C374 C375 1.355 . S
C374 C376 1.415 . S
C375 C374 1.355 . S
C375 C377 1.419 . S
C376 C374 1.415 . S
C376 C381 1.425 . S
C376 C383 1.409 . S
C377 H369 0.930 . S
C377 C375 1.419 . S
C377 C378 1.362 . S
C378 H370 0.930 . S
C378 C377 1.362 . S
C378 C381 1.409 . S
C379 H371 0.930 . S
C379 C380 1.355 . S
C379 C381 1.415 . S
C380 C379 1.355 . S
C380 C382 1.419 . S
C381 C376 1.425 . S
C381 C378 1.409 . S
C381 C379 1.415 . S
C382 H372 0.930 . S
C382 C380 1.419 . S
C382 C383 1.362 . S
C383 H373 0.930 . S
C383 C376 1.409 . S
C383 C382 1.362 . S
H384 C390 0.930 . S
H385 C393 0.930 . S
H386 C394 0.930 . S
H387 C395 0.930 . S
H388 C398 0.930 . S
H389 C399 0.930 . S
C390 H384 0.930 . S
C390 C391 1.355 . S
C390 C392 1.415 . S
C391 C390 1.355 . S
C391 C393 1.419 . S
C392 C390 1.415 . S
C392 C397 1.425 . S
C392 C399 1.409 . S
C393 H385 0.930 . S
C393 C391 1.419 . S
C393 C394 1.362 . S
C394 H386 0.930 . S
C394 C393 1.362 . S
C394 C397 1.409 . S
C395 H387 0.930 . S
C395 C396 1.355 . S
C395 C397 1.415 . S
C396 C395 1.355 . S
C396 C398 1.419 . S
C397 C392 1.425 . S
C397 C394 1.409 . S
C397 C395 1.415 . S
C398 H388 0.930 . S
C398 C396 1.419 . S
C398 C399 1.362 . S
C399 H389 0.930 . S
C399 C392 1.409 . S
C399 C398 1.362 . S
H400 C406 0.930 . S
H401 C409 0.930 . S
H402 C410 0.930 . S
H403 C411 0.930 . S
H404 C414 0.930 . S
H405 C415 0.930 . S
C406 H400 0.930 . S
C406 C407 1.355 . S
C406 C408 1.415 . S
C407 C406 1.355 . S
C407 C409 1.419 . S
C408 C406 1.415 . S
C408 C413 1.425 . S
C408 C415 1.409 . S
C409 H401 0.930 . S
C409 C407 1.419 . S
C409 C410 1.362 . S
C410 H402 0.930 . S
C410 C409 1.362 . S
C410 C413 1.409 . S
C411 H403 0.930 . S
C411 C412 1.355 . S
C411 C413 1.415 . S
C412 C411 1.355 . S
C412 C414 1.419 . S
C413 C408 1.425 . S
C413 C410 1.409 . S
C413 C411 1.415 . S
C414 H404 0.930 . S
C414 C412 1.419 . S
C414 C415 1.362 . S
C415 H405 0.930 . S
C415 C408 1.409 . S
C415 C414 1.362 . S
H416 C422 0.930 . S
H417 C425 0.930 . S
H418 C426 0.930 . S
H419 C427 0.930 . S
H420 C430 0.930 . S
H421 C431 0.930 . S
C422 H416 0.930 . S
C422 C423 1.355 . S
C422 C424 1.415 . S
C423 C422 1.355 . S
C423 C425 1.419 . S
C424 C422 1.415 . S
C424 C429 1.425 . S
C424 C431 1.409 . S
C425 H417 0.930 . S
C425 C423 1.419 . S
C425 C426 1.362 . S
C426 H418 0.930 . S
C426 C425 1.362 . S
C426 C429 1.409 . S
C427 H419 0.930 . S
C427 C428 1.355 . S
C427 C429 1.415 . S
C428 C427 1.355 . S
C428 C430 1.419 . S
C429 C424 1.425 . S
C429 C426 1.409 . S
C429 C427 1.415 . S
C430 H420 0.930 . S
C430 C428 1.419 . S
C430 C431 1.362 . S
C431 H421 0.930 . S
C431 C424 1.409 . S
C431 C430 1.362 . S
H432 C438 0.930 . S
H433 C441 0.930 . S
H434 C442 0.930 . S
H435 C443 0.930 . S
H436 C446 0.930 . S
H437 C447 0.930 . S
C438 H432 0.930 . S
C438 C439 1.355 . S
C438 C440 1.415 . S
C439 C438 1.355 . S
C439 C441 1.419 . S
C440 C438 1.415 . S
C440 C445 1.425 . S
C440 C447 1.409 . S
C441 H433 0.930 . S
C441 C439 1.419 . S
C441 C442 1.362 . S
C442 H434 0.930 . S
C442 C441 1.362 . S
C442 C445 1.409 . S
C443 H435 0.930 . S
C443 C444 1.355 . S
C443 C445 1.415 . S
C444 C443 1.355 . S
C444 C446 1.419 . S
C445 C440 1.425 . S
C445 C442 1.409 . S
C445 C443 1.415 . S
C446 H436 0.930 . S
C446 C444 1.419 . S
C446 C447 1.362 . S
C447 H437 0.930 . S
C447 C440 1.409 . S
C447 C446 1.362 . S
H448 C454 0.930 . S
H449 C457 0.930 . S
H450 C458 0.930 . S
H451 C459 0.930 . S
H452 C462 0.930 . S
H453 C463 0.930 . S
C454 H448 0.930 . S
C454 C455 1.355 . S
C454 C456 1.415 . S
C455 C454 1.355 . S
C455 C457 1.419 . S
C456 C454 1.415 . S
C456 C461 1.425 . S
C456 C463 1.409 . S
C457 H449 0.930 . S
C457 C455 1.419 . S
C457 C458 1.362 . S
C458 H450 0.930 . S
C458 C457 1.362 . S
C458 C461 1.409 . S
C459 H451 0.930 . S
C459 C460 1.355 . S
C459 C461 1.415 . S
C460 C459 1.355 . S
C460 C462 1.419 . S
C461 C456 1.425 . S
C461 C458 1.409 . S
C461 C459 1.415 . S
C462 H452 0.930 . S
C462 C460 1.419 . S
C462 C463 1.362 . S
C463 H453 0.930 . S
C463 C456 1.409 . S
C463 C462 1.362 . S
H464 C470 0.930 . S
H465 C473 0.930 . S
H466 C474 0.930 . S
H467 C475 0.930 . S
H468 C478 0.930 . S
H469 C479 0.930 . S
C470 H464 0.930 . S
C470 C471 1.355 . S
C470 C472 1.415 . S
C471 C470 1.355 . S
C471 C473 1.419 . S
C472 C470 1.415 . S
C472 C477 1.425 . S
C472 C479 1.409 . S
C473 H465 0.930 . S
C473 C471 1.419 . S
C473 C474 1.362 . S
C474 H466 0.930 . S
C474 C473 1.362 . S
C474 C477 1.409 . S
C475 H467 0.930 . S
C475 C476 1.355 . S
C475 C477 1.415 . S
C476 C475 1.355 . S
C476 C478 1.419 . S
C477 C472 1.425 . S
C477 C474 1.409 . S
C477 C475 1.415 . S
C478 H468 0.930 . S
C478 C476 1.419 . S
C478 C479 1.362 . S
C479 H469 0.930 . S
C479 C472 1.409 . S
C479 C478 1.362 . S
H480 C486 0.930 . S
H481 C489 0.930 . S
H482 C490 0.930 . S
H483 C491 0.930 . S
H484 C494 0.930 . S
H485 C495 0.930 . S
C486 H480 0.930 . S
C486 C487 1.355 . S
C486 C488 1.428 . S
C487 C486 1.355 . S
C487 C489 1.419 . S
C488 C486 1.428 . S
C488 C493 1.424 1_556 S
C488 C495 1.397 1_556 S
C489 H481 0.930 . S
C489 C487 1.419 . S
C489 C490 1.362 . S
C490 H482 0.930 . S
C490 C489 1.362 . S
C490 C493 1.401 1_556 S
C491 H483 0.930 . S
C491 C492 1.355 . S
C491 C493 1.424 . S
C492 C491 1.355 . S
C492 C494 1.419 . S
C493 C488 1.424 1_554 S
C493 C490 1.401 1_554 S
C493 C491 1.424 . S
C494 H484 0.930 . S
C494 C492 1.419 . S
C494 C495 1.362 . S
C495 H485 0.930 . S
C495 C488 1.397 1_554 S
C495 C494 1.362 . S
H496 C502 0.930 . S
H497 C505 0.930 . S
H498 C506 0.930 . S
H499 C507 0.930 . S
H500 C510 0.930 . S
H501 C511 0.930 . S
C502 H496 0.930 . S
C502 C503 1.355 . S
C502 C504 1.415 . S
C503 C502 1.355 . S
C503 C505 1.419 . S
C504 C502 1.415 . S
C504 C509 1.425 . S
C504 C511 1.409 . S
C505 H497 0.930 . S
C505 C503 1.419 . S
C505 C506 1.362 . S
C506 H498 0.930 . S
C506 C505 1.362 . S
C506 C509 1.409 . S
C507 H499 0.930 . S
C507 C508 1.355 . S
C507 C509 1.415 . S
C508 C507 1.355 . S
C508 C510 1.419 . S
C509 C504 1.425 . S
C509 C506 1.409 . S
C509 C507 1.415 . S
C510 H500 0.930 . S
C510 C508 1.419 . S
C510 C511 1.362 . S
C511 H501 0.930 . S
C511 C504 1.409 . S
C511 C510 1.362 . S
H512 C518 0.930 . S
H513 C521 0.930 . S
H514 C522 0.930 . S
H515 C523 0.930 . S
H516 C526 0.930 . S
H517 C527 0.930 . S
C518 H512 0.930 . S
C518 C519 1.355 . S
C518 C520 1.415 . S
C519 C518 1.355 . S
C519 C521 1.419 . S
C520 C518 1.415 . S
C520 C525 1.425 1_554 S
C520 C527 1.409 . S
C521 H513 0.930 . S
C521 C519 1.419 . S
C521 C522 1.362 1_554 S
C522 H514 0.930 . S
C522 C521 1.362 1_556 S
C522 C525 1.409 . S
C523 H515 0.930 . S
C523 C524 1.355 . S
C523 C525 1.415 . S
C524 C523 1.355 . S
C524 C526 1.419 . S
C525 C520 1.425 1_556 S
C525 C522 1.409 . S
C525 C523 1.415 . S
C526 H516 0.930 . S
C526 C524 1.419 . S
C526 C527 1.362 1_556 S
C527 H517 0.930 . S
C527 C520 1.409 . S
C527 C526 1.362 1_554 S
H528 C534 0.930 . S
H529 C537 0.930 . S
H530 C538 0.930 . S
H531 C539 0.930 . S
H532 C542 0.930 . S
H533 C543 0.930 . S
C534 H528 0.930 . S
C534 C535 1.355 . S
C534 C536 1.415 . S
C535 C534 1.355 . S
C535 C537 1.419 . S
C536 C534 1.415 . S
C536 C541 1.425 . S
C536 C543 1.409 . S
C537 H529 0.930 . S
C537 C535 1.419 . S
C537 C538 1.362 . S
C538 H530 0.930 . S
C538 C537 1.362 . S
C538 C541 1.409 . S
C539 H531 0.930 . S
C539 C540 1.355 . S
C539 C541 1.415 . S
C540 C539 1.355 . S
C540 C542 1.419 . S
C541 C536 1.425 . S
C541 C538 1.409 . S
C541 C539 1.415 . S
C542 H532 0.930 . S
C542 C540 1.419 . S
C542 C543 1.362 . S
C543 H533 0.930 . S
C543 C536 1.409 . S
C543 C542 1.362 . S
H544 C550 0.929 1_556 S
H545 C553 0.930 . S
H546 C554 0.930 . S
H547 C555 0.929 . S
H548 C558 0.930 . S
H549 C559 0.930 . S
C550 H544 0.929 1_554 S
C550 C551 1.355 . S
C550 C552 1.415 1_554 S
C551 C550 1.355 . S
C551 C553 1.419 . S
C552 C550 1.415 1_556 S
C552 C557 1.425 1_556 S
C552 C559 1.409 . S
C553 H545 0.930 . S
C553 C551 1.419 . S
C553 C554 1.362 . S
C554 H546 0.930 . S
C554 C553 1.362 . S
C554 C557 1.409 . S
C555 H547 0.929 . S
C555 C556 1.355 . S
C555 C557 1.415 1_556 S
C556 C555 1.355 . S
C556 C558 1.419 . S
C557 C552 1.425 1_554 S
C557 C554 1.409 . S
C557 C555 1.415 1_554 S
C558 H548 0.930 . S
C558 C556 1.419 . S
C558 C559 1.362 . S
C559 H549 0.930 . S
C559 C552 1.409 . S
C559 C558 1.362 . S
H560 C566 0.930 . S
H561 C569 0.930 . S
H562 C570 0.930 . S
H563 C571 0.930 . S
H564 C574 0.930 . S
H565 C575 0.930 . S
C566 H560 0.930 . S
C566 C567 1.355 . S
C566 C568 1.415 . S
C567 C566 1.355 . S
C567 C569 1.419 . S
C568 C566 1.415 . S
C568 C573 1.425 . S
C568 C575 1.409 . S
C569 H561 0.930 . S
C569 C567 1.419 . S
C569 C570 1.362 . S
C570 H562 0.930 . S
C570 C569 1.362 . S
C570 C573 1.409 . S
C571 H563 0.930 . S
C571 C572 1.355 . S
C571 C573 1.415 . S
C572 C571 1.355 . S
C572 C574 1.419 . S
C573 C568 1.425 . S
C573 C570 1.409 . S
C573 C571 1.415 . S
C574 H564 0.930 . S
C574 C572 1.419 . S
C574 C575 1.362 . S
C575 H565 0.930 . S
C575 C568 1.409 . S
C575 C574 1.362 . S
H576 C582 0.930 . S
H577 C585 0.930 . S
H578 C586 0.930 . S
H579 C587 0.930 . S
H580 C590 0.930 . S
H581 C591 0.930 . S
C582 H576 0.930 . S
C582 C583 1.355 . S
C582 C584 1.415 . S
C583 C582 1.355 . S
C583 C585 1.419 . S
C584 C582 1.415 . S
C584 C589 1.425 1_554 S
C584 C591 1.409 1_554 S
C585 H577 0.930 . S
C585 C583 1.419 . S
C585 C586 1.362 . S
C586 H578 0.930 . S
C586 C585 1.362 . S
C586 C589 1.409 1_554 S
C587 H579 0.930 . S
C587 C588 1.355 . S
C587 C589 1.415 . S
C588 C587 1.355 . S
C588 C590 1.419 . S
C589 C584 1.425 1_556 S
C589 C586 1.409 1_556 S
C589 C587 1.415 . S
C590 H580 0.930 . S
C590 C588 1.419 . S
C590 C591 1.362 . S
C591 H581 0.930 . S
C591 C584 1.409 1_556 S
C591 C590 1.362 . S
H592 C598 0.930 . S
H593 C601 0.930 . S
H594 C602 0.930 . S
H595 C603 0.930 . S
H596 C606 0.930 . S
H597 C607 0.930 . S
C598 H592 0.930 . S
C598 C599 1.355 . S
C598 C600 1.415 . S
C599 C598 1.355 . S
C599 C601 1.419 . S
C600 C598 1.415 . S
C600 C605 1.425 . S
C600 C607 1.409 . S
C601 H593 0.930 . S
C601 C599 1.419 . S
C601 C602 1.362 . S
C602 H594 0.930 . S
C602 C601 1.362 . S
C602 C605 1.409 . S
C603 H595 0.930 . S
C603 C604 1.355 . S
C603 C605 1.415 . S
C604 C603 1.355 . S
C604 C606 1.419 . S
C605 C600 1.425 . S
C605 C602 1.409 . S
C605 C603 1.415 . S
C606 H596 0.930 . S
C606 C604 1.419 . S
C606 C607 1.362 . S
C607 H597 0.930 . S
C607 C600 1.409 . S
C607 C606 1.362 . S
H608 C614 0.930 . S
H609 C617 0.930 . S
H610 C618 0.930 . S
H611 C619 0.930 . S
H612 C622 0.930 . S
H613 C623 0.930 . S
C614 H608 0.930 . S
C614 C615 1.355 . S
C614 C616 1.415 . S
C615 C614 1.355 . S
C615 C617 1.419 . S
C616 C614 1.415 . S
C616 C621 1.425 1_556 S
C616 C623 1.409 . S
C617 H609 0.930 . S
C617 C615 1.419 . S
C617 C618 1.362 1_556 S
C618 H610 0.930 . S
C618 C617 1.362 1_554 S
C618 C621 1.409 . S
C619 H611 0.930 . S
C619 C620 1.355 . S
C619 C621 1.415 . S
C620 C619 1.355 . S
C620 C622 1.419 . S
C621 C616 1.425 1_554 S
C621 C618 1.409 . S
C621 C619 1.415 . S
C622 H612 0.930 . S
C622 C620 1.419 . S
C622 C623 1.362 1_554 S
C623 H613 0.930 . S
C623 C616 1.409 . S
C623 C622 1.362 1_556 S
H624 C630 0.930 . S
H625 C633 0.930 . S
H626 C634 0.930 . S
H627 C635 0.930 . S
H628 C638 0.930 . S
H629 C639 0.930 . S
C630 H624 0.930 . S
C630 C631 1.355 . S
C630 C632 1.415 . S
C631 C630 1.355 . S
C631 C633 1.419 . S
C632 C630 1.415 . S
C632 C637 1.425 . S
C632 C639 1.409 . S
C633 H625 0.930 . S
C633 C631 1.419 . S
C633 C634 1.362 . S
C634 H626 0.930 . S
C634 C633 1.362 . S
C634 C637 1.409 . S
C635 H627 0.930 . S
C635 C636 1.355 . S
C635 C637 1.415 . S
C636 C635 1.355 . S
C636 C638 1.419 . S
C637 C632 1.425 . S
C637 C634 1.409 . S
C637 C635 1.415 . S
C638 H628 0.930 . S
C638 C636 1.419 . S
C638 C639 1.362 . S
C639 H629 0.930 . S
C639 C632 1.409 . S
C639 C638 1.362 . S
H640 C646 0.930 . S
H641 C649 0.930 . S
H642 C650 0.930 . S
H643 C651 0.930 . S
H644 C654 0.930 . S
H645 C655 0.930 . S
C646 H640 0.930 . S
C646 C647 1.355 . S
C646 C648 1.415 . S
C647 C646 1.355 . S
C647 C649 1.419 . S
C648 C646 1.415 . S
C648 C653 1.425 1_554 S
C648 C655 1.409 . S
C649 H641 0.930 . S
C649 C647 1.419 . S
C649 C650 1.362 1_554 S
C650 H642 0.930 . S
C650 C649 1.362 1_556 S
C650 C653 1.409 . S
C651 H643 0.930 . S
C651 C652 1.355 . S
C651 C653 1.415 . S
C652 C651 1.355 . S
C652 C654 1.419 . S
C653 C648 1.425 1_556 S
C653 C650 1.409 . S
C653 C651 1.415 . S
C654 H644 0.930 . S
C654 C652 1.419 . S
C654 C655 1.362 1_556 S
C655 H645 0.930 . S
C655 C648 1.409 . S
C655 C654 1.362 1_554 S
H656 C662 0.930 . S
H657 C665 0.930 . S
H658 C666 0.930 . S
H659 C667 0.930 . S
H660 C670 0.930 . S
H661 C671 0.930 . S
C662 H656 0.930 . S
C662 C663 1.355 . S
C662 C664 1.415 . S
C663 C662 1.355 . S
C663 C665 1.419 . S
C664 C662 1.415 . S
C664 C669 1.425 . S
C664 C671 1.409 . S
C665 H657 0.930 . S
C665 C663 1.419 . S
C665 C666 1.362 . S
C666 H658 0.930 . S
C666 C665 1.362 . S
C666 C669 1.409 . S
C667 H659 0.930 . S
C667 C668 1.355 . S
C667 C669 1.415 . S
C668 C667 1.355 . S
C668 C670 1.419 . S
C669 C664 1.425 . S
C669 C666 1.409 . S
C669 C667 1.415 . S
C670 H660 0.930 . S
C670 C668 1.419 . S
C670 C671 1.362 . S
C671 H661 0.930 . S
C671 C664 1.409 . S
C671 C670 1.362 . S
H672 C678 0.930 . S
H673 C681 0.930 . S
H674 C682 0.930 . S
H675 C683 0.930 . S
H676 C686 0.930 . S
H677 C687 0.930 . S
C678 H672 0.930 . S
C678 C679 1.355 . S
C678 C680 1.415 . S
C679 C678 1.355 . S
C679 C681 1.419 . S
C680 C678 1.415 . S
C680 C685 1.425 1_546 S
C680 C687 1.409 1_545 S
C681 H673 0.930 . S
C681 C679 1.419 . S
C681 C682 1.362 1_556 S
C682 H674 0.930 . S
C682 C681 1.362 1_554 S
C682 C685 1.409 1_545 S
C683 H675 0.930 . S
C683 C684 1.355 . S
C683 C685 1.415 . S
C684 C683 1.355 . S
C684 C686 1.419 . S
C685 C680 1.425 1_564 S
C685 C682 1.409 1_565 S
C685 C683 1.415 . S
C686 H676 0.930 . S
C686 C684 1.419 . S
C686 C687 1.362 1_554 S
C687 H677 0.930 . S
C687 C680 1.409 1_565 S
C687 C686 1.362 1_556 S
H688 C694 0.930 . S
H689 C697 0.930 . S
H690 C698 0.930 1_545 S
H691 C699 0.930 . S
H692 C702 0.930 . S
H693 C703 0.930 1_565 S
C694 H688 0.930 . S
C694 C695 1.355 . S
C694 C696 1.415 . S
C695 C694 1.355 . S
C695 C697 1.419 . S
C696 C694 1.415 . S
C696 C701 1.425 1_565 S
C696 C703 1.409 1_565 S
C697 H689 0.930 . S
C697 C695 1.419 . S
C697 C698 1.362 . S
C698 H690 0.930 1_565 S
C698 C697 1.362 . S
C698 C701 1.409 1_565 S
C699 H691 0.930 . S
C699 C700 1.355 . S
C699 C701 1.415 . S
C700 C699 1.355 . S
C700 C702 1.419 . S
C701 C696 1.425 1_545 S
C701 C698 1.409 1_545 S
C701 C699 1.415 . S
C702 H692 0.930 . S
C702 C700 1.419 . S
C702 C703 1.362 . S
C703 H693 0.930 1_545 S
C703 C696 1.409 1_545 S
C703 C702 1.362 . S
H704 C710 0.928 . S
H705 C713 0.930 . S
H706 C714 0.930 1_545 S
H707 C715 0.928 . S
H708 C718 0.930 . S
H709 C719 0.930 1_565 S
C710 H704 0.928 . S
C710 C711 1.357 1_556 S
C710 C712 1.414 . S
C711 C710 1.357 1_554 S
C711 C713 1.419 . S
C712 C710 1.414 . S
C712 C717 1.425 1_566 S
C712 C719 1.409 1_565 S
C713 H705 0.930 . S
C713 C711 1.419 . S
C713 C714 1.362 . S
C714 H706 0.930 1_565 S
C714 C713 1.362 . S
C714 C717 1.409 1_565 S
C715 H707 0.928 . S
C715 C716 1.357 1_554 S
C715 C717 1.414 . S
C716 C715 1.357 1_556 S
C716 C718 1.419 . S
C717 C712 1.425 1_544 S
C717 C714 1.409 1_545 S
C717 C715 1.414 . S
C718 H708 0.930 . S
C718 C716 1.419 . S
C718 C719 1.362 . S
C719 H709 0.930 1_545 S
C719 C712 1.409 1_545 S
C719 C718 1.362 . S
H720 C726 0.930 . S
H721 C729 0.930 . S
H722 C730 0.930 . S
H723 C731 0.930 . S
H724 C734 0.930 . S
H725 C735 0.930 . S
C726 H720 0.930 . S
C726 C727 1.355 . S
C726 C728 1.415 . S
C727 C726 1.355 . S
C727 C729 1.419 . S
C728 C726 1.415 . S
C728 C733 1.425 1_545 S
C728 C735 1.409 1_545 S
C729 H721 0.930 . S
C729 C727 1.419 . S
C729 C730 1.362 . S
C730 H722 0.930 . S
C730 C729 1.362 . S
C730 C733 1.409 1_545 S
C731 H723 0.930 . S
C731 C732 1.355 . S
C731 C733 1.415 . S
C732 C731 1.355 . S
C732 C734 1.419 . S
C733 C728 1.425 1_565 S
C733 C730 1.409 1_565 S
C733 C731 1.415 . S
C734 H724 0.930 . S
C734 C732 1.419 . S
C734 C735 1.362 . S
C735 H725 0.930 . S
C735 C728 1.409 1_565 S
C735 C734 1.362 . S
C231 C9 1.396 . S
C236 C93 1.450 . S
C247 C23 1.448 . S
C252 C107 1.399 . S
C263 C65 1.428 . S
C268 C37 1.411 . S
C279 C79 1.435 . S
C284 C51 1.404 . S
C295 C205 1.446 . S
C300 C121 1.402 . S
C311 C219 1.449 . S
C316 C135 1.399 . S
C327 C149 1.432 . S
C332 C177 1.407 . S
C343 C163 1.395 . S
C348 C191 1.450 . S
C359 C7 1.420 . S
C364 C73 1.501 . S
C375 C21 1.462 . S
C380 C59 1.492 . S
C391 C35 1.399 . S
C396 C101 1.494 . S
C407 C87 1.498 . S
C412 C49 1.394 . S
C423 C185 1.500 . S
C428 C119 1.430 . S
C439 C171 1.501 . S
C444 C133 1.421 . S
C455 C147 1.459 . S
C460 C213 1.482 . S
C471 C199 1.501 . S
C476 C161 1.399 . S
C487 C176 1.407 . S
C492 C8 1.391 . S
C503 C22 1.417 . S
C508 C190 1.415 . S
C519 C204 1.404 . S
C524 C36 1.399 . S
C535 C218 1.403 . S
C540 C50 1.386 . S
C551 C120 1.410 . S
C556 C64 1.410 . S
C567 C134 1.391 . S
C572 C78 1.401 . S
C583 C92 1.410 . S
C588 C148 1.409 . S
C599 C106 1.416 . S
C604 C162 1.412 . S
C615 C31 1.498 . S
C620 C3 1.507 . S
C631 C17 1.505 . S
C636 C45 1.496 . S
C647 C91 1.426 . S
C652 C63 1.458 . S
C663 C77 1.389 . S
C668 C105 1.434 . S
C679 C143 1.508 . S
C684 C115 1.500 . S
C695 C157 1.505 . S
C700 C129 1.496 . S
C711 C203 1.397 . S
C716 C175 1.383 . S
C727 C217 1.424 . S
C732 C189 1.458 . S
