# Generated by pormake.
# Topology sml, (6)-cn, num edge types: 1
# Building blocks:
#     Node 0, Type 0, BuildingBlock: BETDIP_clean_sbu_0, # of connection points: 6
#     Node 1, Type 0, BuildingBlock: BETDIP_clean_sbu_0, # of connection points: 6
#     Node 2, Type 0, BuildingBlock: BETDIP_clean_sbu_0, # of connection points: 6
#     Node 3, Type 0, BuildingBlock: BETDIP_clean_sbu_0, # of connection points: 6
#     Node 4, Type 0, BuildingBlock: BETDIP_clean_sbu_0, # of connection points: 6
#     Node 5, Type 0, BuildingBlock: BETDIP_clean_sbu_0, # of connection points: 6
#     Edge 6, Type (0, 0), BuildingBlock: MIFKUJ_clean_linker_0, # of connection points: 2
#     Edge 7, Type (0, 0), BuildingBlock: MIFKUJ_clean_linker_0, # of connection points: 2
#     Edge 8, Type (0, 0), BuildingBlock: MIFKUJ_clean_linker_0, # of connection points: 2
#     Edge 9, Type (0, 0), BuildingBlock: MIFKUJ_clean_linker_0, # of connection points: 2
#     Edge 10, Type (0, 0), BuildingBlock: MIFKUJ_clean_linker_0, # of connection points: 2
#     Edge 11, Type (0, 0), BuildingBlock: MIFKUJ_clean_linker_0, # of connection points: 2
#     Edge 12, Type (0, 0), BuildingBlock: MIFKUJ_clean_linker_0, # of connection points: 2
#     Edge 13, Type (0, 0), BuildingBlock: MIFKUJ_clean_linker_0, # of connection points: 2
#     Edge 14, Type (0, 0), BuildingBlock: MIFKUJ_clean_linker_0, # of connection points: 2
#     Edge 15, Type (0, 0), BuildingBlock: MIFKUJ_clean_linker_0, # of connection points: 2
#     Edge 16, Type (0, 0), BuildingBlock: MIFKUJ_clean_linker_0, # of connection points: 2
#     Edge 17, Type (0, 0), BuildingBlock: MIFKUJ_clean_linker_0, # of connection points: 2
#     Edge 18, Type (0, 0), BuildingBlock: MIFKUJ_clean_linker_0, # of connection points: 2
#     Edge 19, Type (0, 0), BuildingBlock: MIFKUJ_clean_linker_0, # of connection points: 2
#     Edge 20, Type (0, 0), BuildingBlock: MIFKUJ_clean_linker_0, # of connection points: 2
#     Edge 21, Type (0, 0), BuildingBlock: MIFKUJ_clean_linker_0, # of connection points: 2
#     Edge 22, Type (0, 0), BuildingBlock: MIFKUJ_clean_linker_0, # of connection points: 2
#     Edge 23, Type (0, 0), BuildingBlock: MIFKUJ_clean_linker_0, # of connection points: 2
# Relax obj value: 0.224
# Max RMSD: 0.234
# Mean RMSD: 0.234
data_MOF--net-sml--node1-BETDIP_clean_sbu_0--edge1-MIFKUJ_clean_linker_0
_symmetry_space_group_name_H-M    P1
_symmetry_Int_Tables_number       1
_symmetry_cell_setting            triclinic
loop_
_symmetry_equiv_pos_as_xyz
'x, y, z'
_cell_length_a     44.09368
_cell_length_b     44.079623
_cell_length_c     29.742822
_cell_angle_alpha  89.980552
_cell_angle_beta   90.152037
_cell_angle_gamma 120.00417
loop_
_atom_site_label
_atom_site_type_symbol
_atom_site_fract_x
_atom_site_fract_y
_atom_site_fract_z
_atom_type_partial_charge
Tb0 Tb 0.19166 0.42894 0.96048 0.0
Tb1 Tb 0.21766 0.40774 0.04323 0.0
C2 C 0.18549 0.44884 0.88344 0.0
C3 C 0.18652 0.43989 0.83583 0.0
C4 C 0.21262 0.43355 0.81906 0.0
C5 C 0.21413 0.42768 0.77297 0.0
C6 C 0.18937 0.42769 0.74285 0.0
C7 C 0.16263 0.43284 0.76034 0.0
C8 C 0.16139 0.43906 0.80616 0.0
C9 C 0.14275 0.38661 0.01565 0.0
C10 C 0.21229 0.36853 0.95452 0.0
C11 C 0.22659 0.38899 0.11978 0.0
C12 C 0.2223 0.39364 0.1681 0.0
C13 C 0.19175 0.39174 0.1854 0.0
C14 C 0.18797 0.39404 0.23191 0.0
C15 C 0.21461 0.39824 0.26192 0.0
C16 C 0.24541 0.40096 0.24411 0.0
C17 C 0.24912 0.3986 0.19782 0.0
C18 C 0.2656 0.45263 0.98794 0.0
C19 C 0.1973 0.46795 0.04975 0.0
O20 O 0.21502 0.46299 0.90604 0.0
O21 O 0.15897 0.42568 0.90705 0.0
O22 O 0.17 0.38543 1.00587 0.0
O23 O 0.14096 0.41017 0.99154 0.0
O24 O 0.20582 0.39127 0.93354 0.0
O25 O 0.21442 0.36749 0.99875 0.0
O26 O 0.19816 0.37106 0.0956 0.0
O27 O 0.25081 0.41635 0.09843 0.0
O28 O 0.23787 0.45162 0.99958 0.0
O29 O 0.26866 0.42866 0.0093 0.0
O30 O 0.20055 0.44307 0.07059 0.0
O31 O 0.198 0.47055 1.00534 0.0
H32 H 0.23234 0.434 0.84131 0.0
H33 H 0.23529 0.42414 0.76087 0.0
H34 H 0.14256 0.43216 0.73861 0.0
H35 H 0.14089 0.44364 0.81841 0.0
H36 H 0.17065 0.38796 0.16313 0.0
H37 H 0.16382 0.39165 0.24442 0.0
H38 H 0.26677 0.40493 0.26598 0.0
H39 H 0.27294 0.40025 0.18522 0.0
Tb40 Tb 0.76746 0.19465 0.30394 0.0
Tb41 Tb 0.8127 0.2183 0.38948 0.0
C42 C 0.74242 0.18908 0.22639 0.0
C43 C 0.75492 0.19702 0.1796 0.0
C44 C 0.73955 0.2103 0.15012 0.0
C45 C 0.74834 0.21477 0.10452 0.0
C46 C 0.77262 0.20589 0.08749 0.0
C47 C 0.78896 0.19378 0.11747 0.0
C48 C 0.78025 0.18945 0.16313 0.0
C49 C 0.75801 0.1447 0.35951 0.0
C50 C 0.84828 0.21518 0.30123 0.0
C51 C 0.83783 0.22207 0.46657 0.0
C52 C 0.82605 0.21435 0.51361 0.0
C53 C 0.84155 0.2007 0.54228 0.0
C54 C 0.83348 0.1963 0.58809 0.0
C55 C 0.80982 0.20564 0.6061 0.0
C56 C 0.79332 0.2181 0.57691 0.0
C57 C 0.80132 0.22237 0.53105 0.0
C58 C 0.82155 0.26838 0.33396 0.0
C59 C 0.73287 0.20066 0.39212 0.0
O60 O 0.75052 0.21583 0.25288 0.0
O61 O 0.74532 0.16417 0.24645 0.0
O62 O 0.78684 0.17164 0.35083 0.0
O63 O 0.73385 0.14307 0.33313 0.0
O64 O 0.82034 0.21125 0.27917 0.0
O65 O 0.84945 0.21418 0.34557 0.0
O66 O 0.82802 0.19514 0.43978 0.0
O67 O 0.83612 0.2479 0.44727 0.0
O68 O 0.79318 0.24103 0.34271 0.0
O69 O 0.84576 0.27069 0.36093 0.0
O70 O 0.7604 0.20378 0.41444 0.0
O71 O 0.73153 0.20064 0.34764 0.0
H72 H 0.71994 0.21628 0.16215 0.0
H73 H 0.73507 0.22389 0.0823 0.0
H74 H 0.80817 0.18722 0.10552 0.0
H75 H 0.79268 0.17936 0.18526 0.0
H76 H 0.86077 0.19447 0.52945 0.0
H77 H 0.84687 0.18692 0.60966 0.0
H78 H 0.77458 0.22502 0.58965 0.0
H79 H 0.78887 0.23279 0.5095 0.0
Tb80 Tb 0.57027 0.76264 0.63333 0.0
Tb81 Tb 0.58535 0.80829 0.7168 0.0
C82 C 0.55746 0.73535 0.55624 0.0
C83 C 0.55898 0.74474 0.50849 0.0
C84 C 0.57471 0.7797 0.49407 0.0
C85 C 0.57576 0.78739 0.44812 0.0
C86 C 0.56104 0.76024 0.41597 0.0
C87 C 0.54541 0.72534 0.43094 0.0
C88 C 0.54437 0.71774 0.47666 0.0
C89 C 0.60328 0.75081 0.69855 0.0
C90 C 0.63153 0.84257 0.63329 0.0
C91 C 0.60082 0.83546 0.79396 0.0
C92 C 0.59537 0.82673 0.84205 0.0
C93 C 0.57468 0.7922 0.85732 0.0
C94 C 0.57023 0.78518 0.9036 0.0
C95 C 0.58672 0.81257 0.93527 0.0
C96 C 0.60699 0.8471 0.91935 0.0
C97 C 0.61129 0.85402 0.87332 0.0
C98 C 0.55092 0.81931 0.65209 0.0
C99 C 0.52173 0.72957 0.71598 0.0
O100 O 0.53426 0.73784 0.58092 0.0
O101 O 0.58744 0.74676 0.57711 0.0
O102 O 0.60802 0.78035 0.68688 0.0
O103 O 0.58182 0.72718 0.67085 0.0
O104 O 0.60817 0.81529 0.60973 0.0
O105 O 0.63052 0.84368 0.67758 0.0
O106 O 0.61989 0.82538 0.77178 0.0
O107 O 0.57354 0.83098 0.77096 0.0
O108 O 0.54768 0.79031 0.66334 0.0
O109 O 0.57106 0.84288 0.68094 0.0
O110 O 0.5445 0.75685 0.74003 0.0
O111 O 0.52425 0.72778 0.67189 0.0
H112 H 0.58614 0.80095 0.5182 0.0
H113 H 0.58783 0.81452 0.43781 0.0
H114 H 0.53446 0.70379 0.40724 0.0
H115 H 0.53228 0.69062 0.48718 0.0
H116 H 0.56219 0.77076 0.83358 0.0
H117 H 0.55469 0.75824 0.91451 0.0
H118 H 0.61936 0.86898 0.94244 0.0
H119 H 0.62711 0.88088 0.86208 0.0
Tb120 Tb 0.80159 0.56852 0.98011 0.0
Tb121 Tb 0.77341 0.58195 0.06748 0.0
C122 C 0.80958 0.54496 0.90687 0.0
C123 C 0.81661 0.55692 0.85975 0.0
C124 C 0.80882 0.58221 0.84365 0.0
C125 C 0.81158 0.59019 0.79773 0.0
C126 C 0.82215 0.57299 0.76693 0.0
C127 C 0.83158 0.54894 0.78376 0.0
C128 C 0.82865 0.54089 0.82964 0.0
C129 C 0.84605 0.6261 0.0242 0.0
C130 C 0.77519 0.62281 0.98112 0.0
C131 C 0.76159 0.59461 0.14596 0.0
C132 C 0.77273 0.59517 0.19304 0.0
C133 C 0.78072 0.57013 0.20966 0.0
C134 C 0.78798 0.56946 0.2555 0.0
C135 C 0.78701 0.5936 0.28563 0.0
C136 C 0.78007 0.61928 0.26845 0.0
C137 C 0.77305 0.62004 0.2227 0.0
C138 C 0.72628 0.53937 0.00867 0.0
C139 C 0.80401 0.52995 0.06849 0.0
O140 O 0.77913 0.53848 0.92245 0.0
O141 O 0.83503 0.56174 0.936 0.0
O142 O 0.82388 0.59724 0.04102 0.0
O143 O 0.84561 0.6223 0.98093 0.0
O144 O 0.77838 0.59928 0.95716 0.0
O145 O 0.77804 0.62451 0.0255 0.0
O146 O 0.78429 0.61876 0.1189 0.0
O147 O 0.74394 0.56387 0.12648 0.0
O148 O 0.75497 0.54146 0.0182 0.0
O149 O 0.72199 0.56058 0.03435 0.0
O150 O 0.79366 0.54875 0.0918 0.0
O151 O 0.80725 0.53201 0.02414 0.0
H152 H 0.79959 0.59502 0.86637 0.0
H153 H 0.80476 0.60934 0.7863 0.0
H154 H 0.83941 0.53482 0.76123 0.0
H155 H 0.83462 0.52118 0.84137 0.0
H156 H 0.78037 0.55051 0.18751 0.0
H157 H 0.79305 0.54923 0.26758 0.0
H158 H 0.77971 0.63864 0.29051 0.0
H159 H 0.76701 0.63963 0.21063 0.0
Tb160 Tb 0.24108 0.80673 0.28787 0.0
Tb161 Tb 0.19693 0.78551 0.3723 0.0
C162 C 0.26441 0.81071 0.20985 0.0
C163 C 0.25017 0.80266 0.16349 0.0
C164 C 0.24379 0.77154 0.14225 0.0
C165 C 0.2339 0.76553 0.09696 0.0
C166 C 0.22965 0.79034 0.07225 0.0
C167 C 0.2346 0.82078 0.09395 0.0
C168 C 0.24501 0.82702 0.13897 0.0
C169 C 0.25062 0.859 0.33943 0.0
C170 C 0.16031 0.7858 0.28371 0.0
C171 C 0.17128 0.78088 0.44922 0.0
C172 C 0.18133 0.78592 0.49714 0.0
C173 C 0.17142 0.80558 0.52406 0.0
C174 C 0.17692 0.80763 0.57048 0.0
C175 C 0.19244 0.78996 0.59112 0.0
C176 C 0.20339 0.77116 0.56374 0.0
C177 C 0.19797 0.76923 0.51722 0.0
C178 C 0.18925 0.73388 0.32017 0.0
C179 C 0.27698 0.80411 0.37639 0.0
O180 O 0.25613 0.78414 0.23675 0.0
O181 O 0.26382 0.83671 0.23028 0.0
O182 O 0.22151 0.83169 0.33185 0.0
O183 O 0.27487 0.85846 0.3156 0.0
O184 O 0.18798 0.78857 0.26256 0.0
O185 O 0.15973 0.78883 0.32784 0.0
O186 O 0.18361 0.80899 0.42426 0.0
O187 O 0.17128 0.75475 0.42838 0.0
O188 O 0.21725 0.76163 0.32869 0.0
O189 O 0.16437 0.73247 0.34468 0.0
O190 O 0.24976 0.80211 0.39805 0.0
O191 O 0.27751 0.80181 0.33207 0.0
H192 H 0.24708 0.75213 0.16046 0.0
H193 H 0.22992 0.74168 0.08111 0.0
H194 H 0.23181 0.84048 0.07559 0.0
H195 H 0.2498 0.85136 0.15415 0.0
H196 H 0.15864 0.81876 0.50926 0.0
H197 H 0.16888 0.82302 0.59017 0.0
H198 H 0.21508 0.7569 0.57831 0.0
H199 H 0.20594 0.75389 0.49724 0.0
Tb200 Tb 0.43541 0.24348 0.62362 0.0
Tb201 Tb 0.40963 0.19704 0.70658 0.0
C202 C 0.45605 0.26887 0.54628 0.0
C203 C 0.44745 0.25785 0.49888 0.0
C204 C 0.43177 0.22254 0.48584 0.0
C205 C 0.42388 0.21304 0.44045 0.0
C206 C 0.43138 0.23875 0.40747 0.0
C207 C 0.44657 0.27396 0.42089 0.0
C208 C 0.45457 0.28338 0.46608 0.0
C209 C 0.38966 0.2497 0.67282 0.0
C210 C 0.37665 0.16216 0.61605 0.0
C211 C 0.38624 0.17155 0.78316 0.0
C212 C 0.39339 0.18005 0.8316 0.0
C213 C 0.39968 0.21218 0.84968 0.0
C214 C 0.40416 0.21823 0.89623 0.0
C215 C 0.40264 0.19236 0.92555 0.0
C216 C 0.39687 0.16053 0.90705 0.0
C217 C 0.39225 0.15447 0.86072 0.0
C218 C 0.45741 0.19298 0.6582 0.0
C219 C 0.4719 0.27732 0.71406 0.0
O220 O 0.47042 0.25432 0.57011 0.0
O221 O 0.4321 0.2716 0.56877 0.0
O222 O 0.38902 0.22135 0.66417 0.0
O223 O 0.41515 0.27529 0.65146 0.0
O224 O 0.40211 0.19057 0.59678 0.0
O225 O 0.37066 0.16052 0.65975 0.0
O226 O 0.37504 0.1891 0.7595 0.0
O227 O 0.40881 0.16627 0.76108 0.0
O228 O 0.45599 0.22008 0.66693 0.0
O229 O 0.43243 0.16652 0.67921 0.0
O230 O 0.44672 0.24903 0.73423 0.0
O231 O 0.47548 0.27945 0.66975 0.0
H232 H 0.42604 0.20245 0.51059 0.0
H233 H 0.41213 0.1857 0.4311 0.0
H234 H 0.45294 0.29437 0.39624 0.0
H235 H 0.46654 0.31076 0.47543 0.0
H236 H 0.40081 0.23247 0.82799 0.0
H237 H 0.40895 0.24319 0.90925 0.0
H238 H 0.39504 0.13983 0.92852 0.0
H239 H 0.38721 0.12942 0.84764 0.0
H240 H 0.32562 0.19964 0.70542 0.0
H241 H 0.28539 0.20983 0.75189 0.0
H242 H 0.36125 0.32033 0.7558 0.0
H243 H 0.40067 0.31042 0.70893 0.0
H244 H 0.2876 0.23529 0.83348 0.0
H245 H 0.323 0.36905 0.74914 0.0
H246 H 0.33934 0.39662 0.67428 0.0
H247 H 0.29172 0.29517 0.61201 0.0
H248 H 0.27445 0.26696 0.68635 0.0
H249 H 0.25476 0.34254 0.97676 0.0
H250 H 0.27484 0.31185 0.92789 0.0
H251 H 0.20718 0.31079 0.82184 0.0
H252 H 0.18886 0.34369 0.86992 0.0
H253 H 0.26435 0.32996 0.78745 0.0
H254 H 0.19523 0.23324 0.88171 0.0
H255 H 0.17186 0.20038 0.95226 0.0
H256 H 0.27395 0.21793 0.98721 0.0
H257 H 0.29807 0.25134 0.91721 0.0
C258 C 0.33357 0.226 0.71648 0.0
C259 C 0.36597 0.25431 0.70325 0.0
C260 C 0.31067 0.23181 0.74295 0.0
C261 C 0.31998 0.26598 0.75645 0.0
C262 C 0.35304 0.2939 0.74477 0.0
C263 C 0.37562 0.28818 0.71812 0.0
C264 C 0.29546 0.2731 0.78238 0.0
C265 C 0.28222 0.25579 0.82339 0.0
C266 C 0.28744 0.29902 0.76842 0.0
C267 C 0.29769 0.31587 0.72346 0.0
C268 C 0.31585 0.3526 0.71948 0.0
C269 C 0.32529 0.36835 0.67712 0.0
C270 C 0.31668 0.34765 0.63845 0.0
C271 C 0.29849 0.31117 0.64202 0.0
C272 C 0.28889 0.29528 0.68427 0.0
C273 C 0.24368 0.33517 0.9433 0.0
C274 C 0.22023 0.34546 0.92712 0.0
C275 C 0.255 0.31734 0.91537 0.0
C276 C 0.24224 0.30839 0.87114 0.0
C277 C 0.21756 0.31738 0.85571 0.0
C278 C 0.20698 0.33608 0.88323 0.0
C279 C 0.25736 0.29311 0.83973 0.0
C280 C 0.26902 0.309 0.79753 0.0
C281 C 0.26287 0.26512 0.85205 0.0
C282 C 0.24849 0.24499 0.89426 0.0
C283 C 0.21275 0.2303 0.90457 0.0
C284 C 0.19936 0.21155 0.94446 0.0
C285 C 0.22141 0.20712 0.97423 0.0
C286 C 0.25689 0.22138 0.96413 0.0
C287 C 0.27043 0.24019 0.9243 0.0
H288 H 0.21099 0.19259 1.00509 0.0
H289 H 0.32407 0.35986 0.60569 0.0
H290 H 0.13337 0.32764 0.05962 0.0
H291 H 0.08841 0.2936 0.11629 0.0
H292 H 0.04985 0.36614 0.10632 0.0
H293 H 0.09467 0.40018 0.051 0.0
H294 H 0.05127 0.34976 0.19098 0.0
H295 H 0.00983 0.28835 0.04946 0.0
H296 H 0.01263 0.25737 0.98193 0.0
H297 H 0.01827 0.18072 0.06521 0.0
H298 H 0.01576 0.21147 0.13326 0.0
H299 H 0.85644 0.21874 0.20992 0.0
H300 H 0.91108 0.24221 0.16815 0.0
H301 H 0.96797 0.25707 0.29202 0.0
H302 H 0.91336 0.23365 0.3343 0.0
H303 H 0.96234 0.22631 0.15759 0.0
H304 H 0.04639 0.3408 0.28089 0.0
H305 H 0.03912 0.37704 0.33835 0.0
H306 H 0.94067 0.35345 0.27957 0.0
H307 H 0.94793 0.31821 0.22084 0.0
C308 C 0.11552 0.33642 0.07015 0.0
C309 C 0.11733 0.36639 0.05101 0.0
C310 C 0.08981 0.31693 0.10223 0.0
C311 C 0.06567 0.32725 0.11531 0.0
C312 C 0.06823 0.35773 0.09689 0.0
C313 C 0.09372 0.37703 0.06502 0.0
C314 C 0.03654 0.30596 0.14657 0.0
C315 C 0.03213 0.32255 0.18419 0.0
C316 C 0.01125 0.27073 0.13713 0.0
C317 C 0.0131 0.25244 0.09636 0.0
C318 C 0.01198 0.26506 0.05333 0.0
C319 C 0.01343 0.24751 0.01498 0.0
C320 C 0.01577 0.21717 0.01927 0.0
C321 C 0.01655 0.20427 0.06194 0.0
C322 C 0.01509 0.22173 0.1004 0.0
C323 C 0.88042 0.22639 0.22834 0.0
C324 C 0.88049 0.22455 0.27552 0.0
C325 C 0.91166 0.23972 0.20434 0.0
C326 C 0.9436 0.25171 0.22704 0.0
C327 C 0.94361 0.24825 0.27393 0.0
C328 C 0.91232 0.23477 0.29799 0.0
C329 C 0.97687 0.27026 0.20172 0.0
C330 C 0.98205 0.25314 0.16529 0.0
C331 C 0.0023 0.30547 0.21137 0.0
C332 C 0.99735 0.32615 0.24704 0.0
C333 C 0.02316 0.34329 0.28028 0.0
C334 C 0.0191 0.36376 0.31299 0.0
C335 C 0.98929 0.36723 0.3129 0.0
C336 C 0.96362 0.35052 0.27983 0.0
C337 C 0.96771 0.3303 0.24679 0.0
H338 H 0.98619 0.38303 0.3383 0.0
H339 H 0.01687 0.20361 0.98955 0.0
H340 H 0.76096 0.14542 0.45075 0.0
H341 H 0.74621 0.09551 0.50029 0.0
H342 H 0.72827 0.02979 0.38409 0.0
H343 H 0.74171 0.07949 0.33479 0.0
H344 H 0.67696 0.9979 0.44031 0.0
H345 H 0.80399 0.06183 0.45647 0.0
H346 H 0.86063 0.11441 0.47413 0.0
H347 H 0.82482 0.11667 0.60753 0.0
H348 H 0.76786 0.06431 0.59052 0.0
H349 H 0.65285 0.84791 0.54616 0.0
H350 H 0.68451 0.90163 0.50216 0.0
H351 H 0.69621 0.9632 0.62051 0.0
H352 H 0.66577 0.90968 0.66507 0.0
H353 H 0.75158 0.99802 0.56564 0.0
H354 H 0.62677 0.937 0.55316 0.0
H355 H 0.56961 0.8839 0.54061 0.0
H356 H 0.5982 0.8783 0.40425 0.0
H357 H 0.65613 0.93079 0.41648 0.0
C358 C 0.75466 0.12047 0.43604 0.0
C359 C 0.75314 0.11617 0.38925 0.0
C360 C 0.74617 0.09195 0.46426 0.0
C361 C 0.73666 0.05894 0.44596 0.0
C362 C 0.73561 0.05497 0.39902 0.0
C363 C 0.74347 0.0833 0.3709 0.0
C364 C 0.7261 0.028 0.47535 0.0
C365 C 0.6936 0.99781 0.46718 0.0
C366 C 0.7471 0.02825 0.51166 0.0
C367 C 0.78163 0.05926 0.52214 0.0
C368 C 0.80818 0.07361 0.48952 0.0
C369 C 0.84033 0.10336 0.49942 0.0
C370 C 0.84632 0.11885 0.54193 0.0
C371 C 0.82017 0.10461 0.57465 0.0
C372 C 0.78798 0.07486 0.56493 0.0
C373 C 0.66294 0.87292 0.56303 0.0
C374 C 0.65634 0.87459 0.60886 0.0
C375 C 0.68101 0.90359 0.53788 0.0
C376 C 0.69188 0.93633 0.55788 0.0
C377 C 0.68789 0.9382 0.60438 0.0
C378 C 0.67037 0.90754 0.62976 0.0
C379 C 0.70308 0.96783 0.52955 0.0
C380 C 0.73526 0.99812 0.53833 0.0
C381 C 0.68156 0.96798 0.49423 0.0
C382 C 0.64595 0.93768 0.48586 0.0
C383 C 0.62095 0.92439 0.52053 0.0
C384 C 0.58846 0.89429 0.51354 0.0
C385 C 0.58027 0.8777 0.47167 0.0
C386 C 0.60458 0.89121 0.43668 0.0
C387 C 0.6373 0.92108 0.44365 0.0
H388 H 0.55509 0.8544 0.46633 0.0
H389 H 0.87122 0.14188 0.54952 0.0
H390 H 0.58117 0.68846 0.7387 0.0
H391 H 0.61235 0.67314 0.79377 0.0
H392 H 0.69651 0.78065 0.79633 0.0
H393 H 0.66452 0.79627 0.74191 0.0
H394 H 0.67045 0.67441 0.78036 0.0
H395 H 0.74066 0.79865 0.88873 0.0
H396 H 0.72935 0.84307 0.92309 0.0
H397 H 0.61965 0.76748 0.93051 0.0
H398 H 0.63015 0.72316 0.89487 0.0
H399 H 0.79382 0.64987 0.89693 0.0
H400 H 0.76996 0.68047 0.85383 0.0
H401 H 0.70695 0.67496 0.96781 0.0
H402 H 0.73249 0.64632 0.01181 0.0
H403 H 0.72379 0.73197 0.92556 0.0
H404 H 0.67581 0.61163 0.87972 0.0
H405 H 0.67785 0.55994 0.85206 0.0
H406 H 0.7279 0.61494 0.73079 0.0
H407 H 0.72649 0.66712 0.75799 0.0
C408 C 0.60611 0.70893 0.75151 0.0
C409 C 0.62072 0.74345 0.73579 0.0
C410 C 0.62393 0.70015 0.78295 0.0
C411 C 0.65695 0.72563 0.79902 0.0
C412 C 0.67093 0.76057 0.78482 0.0
C413 C 0.65277 0.76949 0.75364 0.0
C414 C 0.67766 0.71472 0.82736 0.0
C415 C 0.68214 0.68708 0.81208 0.0
C416 C 0.69268 0.73087 0.86892 0.0
C417 C 0.68616 0.75781 0.88883 0.0
C418 C 0.71411 0.7917 0.89739 0.0
C419 C 0.70779 0.8169 0.91683 0.0
C420 C 0.67371 0.80827 0.92845 0.0
C421 C 0.6459 0.77443 0.92065 0.0
C422 C 0.65198 0.74932 0.90061 0.0
C423 C 0.77541 0.65588 0.91298 0.0
C424 C 0.76474 0.64554 0.95749 0.0
C425 C 0.76163 0.67318 0.8883 0.0
C426 C 0.73585 0.67914 0.90709 0.0
C427 C 0.72668 0.67057 0.95245 0.0
C428 C 0.74124 0.65415 0.97757 0.0
C429 C 0.71637 0.69149 0.87864 0.0
C430 C 0.71231 0.71948 0.89369 0.0
C431 C 0.70055 0.67476 0.8375 0.0
C432 C 0.70128 0.64335 0.82103 0.0
C433 C 0.6874 0.61275 0.84726 0.0
C434 C 0.68844 0.58336 0.83165 0.0
C435 C 0.703 0.58418 0.78967 0.0
C436 C 0.71662 0.61438 0.76327 0.0
C437 C 0.71568 0.64384 0.77875 0.0
H438 H 0.70358 0.56139 0.77742 0.0
H439 H 0.66889 0.82773 0.94373 0.0
H440 H 0.14895 0.76892 0.19454 0.0
H441 H 0.09485 0.74853 0.15217 0.0
H442 H 0.04468 0.76044 0.26978 0.0
H443 H 0.0987 0.78018 0.31299 0.0
H444 H 0.00382 0.69853 0.22968 0.0
H445 H 0.06893 0.81863 0.17981 0.0
H446 H 0.12099 0.87061 0.14942 0.0
H447 H 0.11403 0.81401 0.02873 0.0
H448 H 0.06209 0.76159 0.05855 0.0
H449 H 0.84939 0.65045 0.10916 0.0
H450 H 0.90187 0.68659 0.15386 0.0
H451 H 0.96618 0.69225 0.04131 0.0
H452 H 0.91362 0.65857 0.99561 0.0
H453 H 0.99867 0.74965 0.08315 0.0
H454 H 0.94072 0.6289 0.13318 0.0
H455 H 0.88978 0.5745 0.16073 0.0
H456 H 0.88485 0.62877 0.27789 0.0
H457 H 0.93572 0.68355 0.2509 0.0
C458 C 0.1266 0.76764 0.21142 0.0
C459 C 0.12826 0.77634 0.25722 0.0
C460 C 0.09564 0.75604 0.18701 0.0
C461 C 0.06579 0.75338 0.2076 0.0
C462 C 0.06742 0.76239 0.25317 0.0
C463 C 0.09838 0.7738 0.27777 0.0
C464 C 0.03256 0.73984 0.18186 0.0
C465 C 0.00251 0.71009 0.19804 0.0
C466 C 0.03105 0.75434 0.14 0.0
C467 C 0.06171 0.78615 0.12152 0.0
C468 C 0.07855 0.81725 0.14683 0.0
C469 C 0.10803 0.84679 0.1297 0.0
C470 C 0.12082 0.8456 0.08719 0.0
C471 C 0.10407 0.81491 0.06163 0.0
C472 C 0.07456 0.78531 0.07858 0.0
C473 C 0.87471 0.66012 0.09376 0.0
C474 C 0.87744 0.65166 0.0491 0.0
C475 C 0.90477 0.68046 0.11945 0.0
C476 C 0.93812 0.69122 0.10156 0.0
C477 C 0.94085 0.68417 0.05612 0.0
C478 C 0.91077 0.66487 0.02998 0.0
C479 C 0.96998 0.70796 0.13055 0.0
C480 C -0.0002 0.73828 0.11502 0.0
C481 C 0.97148 0.69359 0.17265 0.0
C482 C 0.94184 0.66036 0.18986 0.0
C483 C 0.92876 0.6292 0.16482 0.0
C484 C 0.89989 0.59832 0.18032 0.0
C485 C 0.88402 0.59819 0.22098 0.0
C486 C 0.89716 0.6289 0.2464 0.0
C487 C 0.92607 0.65986 0.23108 0.0
H488 H 0.86158 0.57429 0.23282 0.0
H489 H 0.1437 0.86847 0.07404 0.0
H490 H 0.39991 0.14548 0.54124 0.0
H491 H 0.36956 0.09337 0.49483 0.0
H492 H 0.27907 0.05403 0.58098 0.0
H493 H 0.31004 0.10656 0.62858 0.0
H494 H 0.294 0.00384 0.56128 0.0
H495 H 0.28012 0.08761 0.47331 0.0
H496 H 0.30068 0.14468 0.43629 0.0
H497 H 0.36932 0.12677 0.35251 0.0
H498 H 0.34951 0.06975 0.38935 0.0
H499 H 0.20326 0.8683 0.38958 0.0
H500 H 0.21634 0.91831 0.43885 0.0
H501 H 0.32455 0.96902 0.39825 0.0
H502 H 0.31226 0.91862 0.35167 0.0
H503 H 0.28953 0.01167 0.39519 0.0
H504 H 0.31355 0.93679 0.48753 0.0
H505 H 0.3013 0.8828 0.52721 0.0
H506 H 0.22098 0.88663 0.60402 0.0
H507 H 0.23195 0.94011 0.5636 0.0
C508 C 0.37326 0.1262 0.54984 0.0
C509 C 0.35701 0.13055 0.5879 0.0
C510 C 0.35591 0.09629 0.52326 0.0
C511 C 0.32161 0.07017 0.53357 0.0
C512 C 0.30538 0.07407 0.57204 0.0
C513 C 0.32301 0.10403 0.59915 0.0
C514 C 0.30375 0.03829 0.50496 0.0
C515 C 0.29205 0.00545 0.52508 0.0
C516 C 0.30216 0.04051 0.45751 0.0
C517 C 0.31335 0.07437 0.43426 0.0
C518 C 0.29966 0.09585 0.44707 0.0
C519 C 0.3112 0.12821 0.42612 0.0
C520 C 0.33634 0.13936 0.39214 0.0
C521 C 0.34986 0.11809 0.37886 0.0
C522 C 0.33839 0.08569 0.39967 0.0
C523 C 0.2299 0.88977 0.39201 0.0
C524 C 0.25687 0.88915 0.36769 0.0
C525 C 0.23726 0.91844 0.41968 0.0
C526 C 0.27143 0.94721 0.42214 0.0
C527 C 0.29803 0.94705 0.39672 0.0
C528 C 0.29092 0.91817 0.37021 0.0
C529 C 0.28018 0.97755 0.4516 0.0
C530 C 0.29035 0.01004 0.43153 0.0
C531 C 0.28088 0.97513 0.49895 0.0
C532 C 0.27308 0.94209 0.52185 0.0
C533 C 0.29271 0.92571 0.51211 0.0
C534 C 0.28611 0.89527 0.53488 0.0
C535 C 0.26031 0.88125 0.56801 0.0
C536 C 0.24084 0.89745 0.57818 0.0
C537 C 0.24716 0.92777 0.55524 0.0
H538 H 0.25565 0.858 0.58605 0.0
H539 H 0.3453 0.16444 0.37602 0.0
H540 H 0.20957 0.38554 0.69893 0.0
H541 H 0.21338 0.37888 0.61777 0.0
H542 H 0.17728 0.452 0.59327 0.0
H543 H 0.17457 0.45986 0.67401 0.0
H544 H 0.143 0.39109 0.53995 0.0
H545 H 0.26103 0.47886 0.5818 0.0
H546 H 0.31541 0.50129 0.62617 0.0
H547 H 0.32909 0.41703 0.57832 0.0
H548 H 0.27441 0.39371 0.53425 0.0
H549 H 0.1853 0.43082 0.30911 0.0
H550 H 0.17981 0.43326 0.3907 0.0
H551 H 0.22906 0.37068 0.40889 0.0
H552 H 0.23438 0.36788 0.32753 0.0
H553 H 0.25607 0.42365 0.46626 0.0
H554 H 0.14158 0.33543 0.42438 0.0
H555 H 0.08579 0.30795 0.3825 0.0
H556 H 0.06369 0.38642 0.43161 0.0
H557 H 0.11966 0.41472 0.47337 0.0
C558 C 0.20281 0.40054 0.67639 0.0
C559 C 0.19164 0.42318 0.69335 0.0
C560 C 0.2048 0.39652 0.62993 0.0
C561 C 0.19559 0.41494 0.59945 0.0
C562 C 0.18423 0.43731 0.61616 0.0
C563 C 0.18255 0.44161 0.66248 0.0
C564 C 0.1982 0.4114 0.55008 0.0
C565 C 0.16777 0.39861 0.52371 0.0
C566 C 0.23032 0.4201 0.52913 0.0
C567 C 0.26345 0.43436 0.55507 0.0
C568 C 0.27549 0.46496 0.58101 0.0
C569 C 0.30637 0.47783 0.60609 0.0
C570 C 0.32561 0.4605 0.60521 0.0
C571 C 0.31408 0.43033 0.57909 0.0
C572 C 0.28317 0.4173 0.55402 0.0
C573 C 0.19461 0.41724 0.33042 0.0
C574 C 0.21038 0.39924 0.3116 0.0
C575 C 0.19151 0.41871 0.37713 0.0
C576 C 0.20386 0.40199 0.40608 0.0
C577 C 0.21952 0.38396 0.38737 0.0
C578 C 0.22263 0.38249 0.34075 0.0
C579 C 0.20086 0.40366 0.45582 0.0
C580 C 0.23123 0.41608 0.48235 0.0
C581 C 0.16855 0.39404 0.47701 0.0
C582 C 0.135 0.3774 0.45166 0.0
C583 C 0.125 0.34705 0.42592 0.0
C584 C 0.09331 0.33128 0.40228 0.0
C585 C 0.07123 0.34545 0.40437 0.0
C586 C 0.08084 0.37548 0.43004 0.0
C587 C 0.11254 0.39139 0.45373 0.0
H588 H 0.04662 0.33305 0.38625 0.0
H589 H 0.3495 0.47049 0.62467 0.0
H590 H 0.77746 0.15732 0.03564 0.0
H591 H 0.78481 0.15786 0.95424 0.0
H592 H 0.78969 0.25794 0.94641 0.0
H593 H 0.78214 0.25745 0.02799 0.0
H594 H 0.74695 0.21484 0.88377 0.0
H595 H 0.86347 0.25018 0.9337 0.0
H596 H 0.90888 0.24596 0.97728 0.0
H597 H 0.87946 0.14719 0.91481 0.0
H598 H 0.83355 0.15059 0.87127 0.0
H599 H 0.80679 0.25485 0.65864 0.0
H600 H 0.80052 0.25454 0.74018 0.0
H601 H 0.79426 0.15379 0.74716 0.0
H602 H 0.80072 0.15404 0.66534 0.0
H603 H 0.83775 0.19711 0.81016 0.0
H604 H 0.72121 0.16226 0.75992 0.0
H605 H 0.67661 0.1674 0.71568 0.0
H606 H 0.7067 0.26616 0.77868 0.0
H607 H 0.75185 0.26186 0.82283 0.0
C608 C 0.78069 0.17973 0.01671 0.0
C609 C 0.77934 0.20742 0.03833 0.0
C610 C 0.78483 0.17998 0.97012 0.0
C611 C 0.78814 0.2081 0.94417 0.0
C612 C 0.78713 0.23593 0.9657 0.0
C613 C 0.78279 0.23561 0.01231 0.0
C614 C 0.79144 0.20788 0.89444 0.0
C615 C 0.76713 0.21148 0.86768 0.0
C616 C 0.81721 0.20259 0.87339 0.0
C617 C 0.84484 0.2005 0.89952 0.0
C618 C 0.86649 0.22743 0.92951 0.0
C619 C 0.89236 0.22521 0.95416 0.0
C620 C 0.897 0.19629 0.9489 0.0
C621 C 0.87582 0.16956 0.91889 0.0
C622 C 0.84989 0.17164 0.89418 0.0
C623 C 0.80352 0.23236 0.67741 0.0
C624 C 0.80404 0.20436 0.65546 0.0
C625 C 0.80002 0.23225 0.72409 0.0
C626 C 0.79655 0.20397 0.74982 0.0
C627 C 0.79694 0.17592 0.72801 0.0
C628 C 0.80063 0.17608 0.68129 0.0
C629 C 0.79327 0.20409 0.79955 0.0
C630 C 0.81756 0.20046 0.82628 0.0
C631 C 0.76753 0.20942 0.82059 0.0
C632 C 0.74013 0.21187 0.79441 0.0
C633 C 0.71848 0.18518 0.76413 0.0
C634 C 0.69308 0.18793 0.73909 0.0
C635 C 0.68888 0.21712 0.7443 0.0
C636 C 0.71001 0.24358 0.77465 0.0
C637 C 0.73549 0.24098 0.79972 0.0
H638 H 0.66921 0.21921 0.72487 0.0
H639 H 0.91706 0.19464 0.96799 0.0
H640 H 0.50974 0.72537 0.35285 0.0
H641 H 0.51349 0.73438 0.27163 0.0
H642 H 0.61857 0.82146 0.28629 0.0
H643 H 0.6152 0.81236 0.36778 0.0
H644 H 0.5811 0.83576 0.22578 0.0
H645 H 0.60537 0.74289 0.25208 0.0
H646 H 0.59482 0.68633 0.28222 0.0
H647 H 0.4992 0.6325 0.20643 0.0
H648 H 0.50891 0.68884 0.17632 0.0
H649 H 0.63691 0.84522 1.00055 0.0
H650 H 0.63069 0.83645 0.08162 0.0
H651 H 0.5235 0.75452 0.06391 0.0
H652 H 0.52906 0.76378 0.98243 0.0
H653 H 0.56105 0.73736 0.12556 0.0
H654 H 0.53814 0.83122 0.09825 0.0
H655 H 0.5501 0.88816 0.06775 0.0
H656 H 0.64497 0.94052 0.14526 0.0
H657 H 0.63385 0.88379 0.17572 0.0
C658 C 0.53375 0.74637 0.33888 0.0
C659 C 0.56236 0.76783 0.36691 0.0
C660 C 0.53581 0.75153 0.29237 0.0
C661 C 0.56653 0.7782 0.27273 0.0
C662 C 0.59464 0.80061 0.30068 0.0
C663 C 0.59262 0.79545 0.34731 0.0
C664 C 0.56947 0.78218 0.22298 0.0
C665 C 0.57715 0.81438 0.20393 0.0
C666 C 0.56361 0.75406 0.19432 0.0
C667 C 0.55768 0.72013 0.21232 0.0
C668 C 0.58193 0.71902 0.24214 0.0
C669 C 0.57613 0.687 0.25917 0.0
C670 C 0.5463 0.65585 0.24635 0.0
C671 C 0.52226 0.65666 0.21639 0.0
C672 C 0.52791 0.68863 0.19931 0.0
C673 C 0.61182 0.82554 0.01369 0.0
C674 C 0.58334 0.80553 0.98468 0.0
C675 C 0.6084 0.82047 0.06016 0.0
C676 C 0.57651 0.79516 0.07887 0.0
C677 C 0.54834 0.77427 0.05015 0.0
C678 C 0.55164 0.77951 1.00352 0.0
C679 C 0.57268 0.7909 0.12846 0.0
C680 C 0.56488 0.75868 0.14746 0.0
C681 C 0.57861 0.81904 0.15707 0.0
C682 C 0.58534 0.85321 0.13892 0.0
C683 C 0.56172 0.85484 0.10849 0.0
C684 C 0.56831 0.88708 0.09126 0.0
C685 C 0.59832 0.91793 0.10446 0.0
C686 C 0.62176 0.9166 0.13501 0.0
C687 C 0.61531 0.88441 0.1523 0.0
H688 H 0.60337 0.94287 0.0911 0.0
H689 H 0.54187 0.63107 0.25955 0.0
H690 H 0.77413 0.58247 0.7191 0.0
H691 H 0.77048 0.58769 0.63794 0.0
H692 H 0.86249 0.57824 0.62045 0.0
H693 H 0.86757 0.57508 0.70195 0.0
H694 H 0.86455 0.62484 0.56348 0.0
H695 H 0.7782 0.50811 0.60444 0.0
H696 H 0.72815 0.4634 0.6478 0.0
H697 H 0.66303 0.50241 0.59657 0.0
H698 H 0.71289 0.54781 0.55354 0.0
H699 H 0.83502 0.58146 0.32933 0.0
H700 H 0.84221 0.57796 0.41065 0.0
H701 H 0.75665 0.59684 0.43478 0.0
H702 H 0.74901 0.59985 0.35382 0.0
H703 H 0.75214 0.54403 0.48772 0.0
H704 H 0.84003 0.66181 0.44826 0.0
H705 H 0.89068 0.70624 0.40548 0.0
H706 H 0.95328 0.66332 0.45349 0.0
H707 H 0.90281 0.61828 0.49607 0.0
C708 C 0.7941 0.58226 0.69822 0.0
C709 C 0.82113 0.57823 0.71738 0.0
C710 C 0.79167 0.58475 0.65158 0.0
C711 C 0.81577 0.58262 0.62279 0.0
C712 C 0.84339 0.5797 0.64181 0.0
C713 C 0.84606 0.57755 0.68851 0.0
C714 C 0.81168 0.58259 0.57293 0.0
C715 C 0.8401 0.60682 0.54692 0.0
C716 C 0.77967 0.5594 0.5511 0.0
C717 C 0.74938 0.53156 0.57605 0.0
C718 C 0.75325 0.50727 0.60259 0.0
C719 C 0.72492 0.48181 0.62712 0.0
C720 C 0.69245 0.48011 0.62501 0.0
C721 C 0.68821 0.50379 0.59821 0.0
C722 C 0.7165 0.52938 0.57372 0.0
C723 C 0.81765 0.5847 0.35196 0.0
C724 C 0.79165 0.59127 0.335 0.0
C725 C 0.8219 0.58289 0.39845 0.0
C726 C 0.80016 0.58745 0.42893 0.0
C727 C 0.77381 0.59334 0.41202 0.0
C728 C 0.7697 0.59538 0.36567 0.0
C729 C 0.80491 0.58641 0.47845 0.0
C730 C 0.7766 0.56194 0.50434 0.0
C731 C 0.83708 0.60916 0.50011 0.0
C732 C 0.86755 0.63646 0.47497 0.0
C733 C 0.86452 0.66169 0.44943 0.0
C734 C 0.89321 0.687 0.42526 0.0
C735 C 0.92515 0.68754 0.42666 0.0
C736 C 0.9285 0.66283 0.45238 0.0
C737 C 0.89988 0.63743 0.47656 0.0
H738 H 0.94732 0.70715 0.40791 0.0
H739 H 0.67055 0.46041 0.64407 0.0
H740 H 0.24608 0.79141 0.64048 0.0
H741 H 0.25051 0.78921 0.72226 0.0
H742 H 0.15308 0.78878 0.73681 0.0
H743 H 0.14741 0.78927 0.65523 0.0
H744 H 0.20909 0.83737 0.79435 0.0
H745 H 0.15003 0.71572 0.75003 0.0
H746 H 0.14314 0.66492 0.70681 0.0
H747 H 0.23935 0.67902 0.76236 0.0
H748 H 0.2471 0.73029 0.80539 0.0
H749 H 0.18051 0.79808 0.02544 0.0
H750 H 0.17229 0.79581 0.94383 0.0
H751 H 0.25534 0.7719 0.9271 0.0
H752 H 0.26276 0.77299 0.00873 0.0
H753 H 0.20638 0.73556 0.86965 0.0
H754 H 0.26786 0.85655 0.91212 0.0
H755 H 0.27825 0.90901 0.95445 0.0
H756 H 0.18299 0.89908 0.90155 0.0
H757 H 0.17178 0.84625 0.85936 0.0
C758 C 0.22532 0.79041 0.66093 0.0
C759 C 0.19629 0.79037 0.64098 0.0
C760 C 0.22805 0.78939 0.7077 0.0
C761 C 0.20203 0.78868 0.73545 0.0
C762 C 0.17348 0.78945 0.71589 0.0
C763 C 0.17046 0.78997 0.66917 0.0
C764 C 0.20437 0.78679 0.78495 0.0
C765 C 0.20807 0.81496 0.81097 0.0
C766 C 0.204 0.75795 0.8063 0.0
C767 C 0.19933 0.72708 0.78054 0.0
C768 C 0.16989 0.7082 0.7527 0.0
C769 C 0.16579 0.67928 0.7283 0.0
C770 C 0.19084 0.66881 0.73173 0.0
C771 C 0.22 0.6872 0.75967 0.0
C772 C 0.22424 0.71618 0.78409 0.0
C773 C 0.19678 0.79206 1.00427 0.0
C774 C 0.22237 0.78585 0.0233 0.0
C775 C 0.19222 0.79095 0.95766 0.0
C776 C 0.21374 0.78446 0.92916 0.0
C777 C 0.23847 0.77705 0.9483 0.0
C778 C 0.24267 0.77762 0.99494 0.0
C779 C 0.21113 0.78623 0.87945 0.0
C780 C 0.20741 0.75804 0.85325 0.0
C781 C 0.21205 0.81536 0.85784 0.0
C782 C 0.21881 0.84725 0.88294 0.0
C783 C 0.24901 0.86542 0.90976 0.0
C784 C 0.25506 0.89523 0.93369 0.0
C785 C 0.23124 0.90731 0.93079 0.0
C786 C 0.20138 0.88966 0.90382 0.0
C787 C 0.19518 0.85979 0.87986 0.0
H788 H 0.23597 0.9304 0.94934 0.0
H789 H 0.18761 0.6464 0.71284 0.0
H790 H 0.398 0.2588 0.34711 0.0
H791 H 0.39135 0.24785 0.26591 0.0
H792 H 0.44373 0.18769 0.27669 0.0
H793 H 0.4501 0.19828 0.35821 0.0
H794 H 0.47087 0.24047 0.20811 0.0
H795 H 0.36115 0.14448 0.2566 0.0
H796 H 0.30513 0.11619 0.29761 0.0
H797 H 0.27152 0.17837 0.22488 0.0
H798 H 0.32744 0.20719 0.18352 0.0
H799 H 0.43881 0.17436 0.98475 0.0
H800 H 0.44213 0.18046 0.06653 0.0
H801 H 0.37854 0.22942 0.06122 0.0
H802 H 0.37438 0.22261 0.97927 0.0
H803 H 0.35684 0.18114 0.12776 0.0
H804 H 0.46592 0.27779 0.08013 0.0
H805 H 0.52204 0.30748 0.03942 0.0
H806 H 0.55756 0.24658 0.11151 0.0
H807 H 0.5014 0.21612 0.1522 0.0
C808 C 0.40783 0.243 0.3322 0.0
C809 C 0.42463 0.22945 0.35896 0.0
C810 C 0.40393 0.23667 0.28585 0.0
C811 C 0.41709 0.21699 0.2652 0.0
C812 C 0.43343 0.20298 0.29192 0.0
C813 C 0.43684 0.20884 0.33847 0.0
C814 C 0.41483 0.21226 0.2155 0.0
C815 C 0.44596 0.22698 0.19055 0.0
C816 C 0.38233 0.19558 0.19254 0.0
C817 C 0.34863 0.17823 0.21724 0.0
C818 C 0.34194 0.15234 0.24958 0.0
C819 C 0.31018 0.13616 0.27285 0.0
C820 C 0.28487 0.14561 0.26404 0.0
C821 C 0.29119 0.17113 0.23174 0.0
C822 C 0.32287 0.18733 0.20828 0.0
C823 C 0.4254 0.18633 1.00092 0.0
C824 C 0.4063 0.19797 0.97529 0.0
C825 C 0.42755 0.19004 0.04775 0.0
C826 C 0.41079 0.20562 0.07019 0.0
C827 C 0.39173 0.21734 0.04475 0.0
C828 C 0.38966 0.21374 0.99781 0.0
C829 C 0.41295 0.20934 0.12016 0.0
C830 C 0.3818 0.19452 0.14522 0.0
C831 C 0.44547 0.22612 0.14325 0.0
C832 C 0.47929 0.2444 0.11888 0.0
C833 C 0.48557 0.2705 0.08703 0.0
C834 C 0.51741 0.28752 0.06401 0.0
C835 C 0.54331 0.27886 0.07279 0.0
C836 C 0.53745 0.25322 0.10469 0.0
C837 C 0.50562 0.23608 0.12777 0.0
H838 H 0.56796 0.29207 0.05495 0.0
H839 H 0.26032 0.13308 0.28213 0.0
H840 H 0.19327 0.47034 0.14142 0.0
H841 H 0.18892 0.51426 0.18657 0.0
H842 H 0.18839 0.56818 0.06578 0.0
H843 H 0.19322 0.52466 0.02026 0.0
H844 H 0.23357 0.61268 0.12809 0.0
H845 H 0.11354 0.51871 0.1256 0.0
H846 H 0.06648 0.45756 0.13629 0.0
H847 H 0.0918 0.46408 0.27674 0.0
H848 H 0.13941 0.52514 0.26676 0.0
H849 H 0.19075 0.73167 0.22912 0.0
H850 H 0.18954 0.68534 0.18232 0.0
H851 H 0.18049 0.62554 0.30165 0.0
H852 H 0.18107 0.6718 0.34828 0.0
H853 H 0.13938 0.58332 0.23952 0.0
H854 H 0.25853 0.67524 0.24454 0.0
H855 H 0.30961 0.73443 0.23577 0.0
H856 H 0.29035 0.73045 0.09372 0.0
H857 H 0.23848 0.67167 0.1018 0.0
C858 C 0.19212 0.49146 0.12435 0.0
C859 C 0.19363 0.49398 0.07715 0.0
C860 C 0.18945 0.51646 0.15027 0.0
C861 C 0.18798 0.54431 0.12953 0.0
C862 C 0.18942 0.54686 0.08246 0.0
C863 C 0.1921 0.52189 0.05649 0.0
C864 C 0.18608 0.57144 0.15692 0.0
C865 C 0.21265 0.60643 0.15191 0.0
C866 C 0.15942 0.56294 0.1891 0.0
C867 C 0.13025 0.52645 0.19534 0.0
C868 C 0.10922 0.50706 0.15872 0.0
C869 C 0.08242 0.47241 0.16466 0.0
C870 C 0.0762 0.45692 0.20715 0.0
C871 C 0.09667 0.47611 0.24383 0.0
C872 C 0.12354 0.51076 0.23806 0.0
C873 C 0.18868 0.70867 0.24518 0.0
C874 C 0.18658 0.70529 0.29209 0.0
C875 C 0.18796 0.68221 0.21851 0.0
C876 C 0.1856 0.65217 0.23847 0.0
C877 C 0.18245 0.64847 0.28546 0.0
C878 C 0.18283 0.67482 0.31207 0.0
C879 C 0.18683 0.62484 0.2105 0.0
C880 C 0.16019 0.58975 0.21548 0.0
C881 C 0.21373 0.6332 0.17861 0.0
C882 C 0.24431 0.66911 0.17389 0.0
C883 C 0.26486 0.68715 0.21152 0.0
C884 C 0.29403 0.72062 0.20664 0.0
C885 C 0.30327 0.73616 0.1642 0.0
C886 C 0.28325 0.71833 0.12655 0.0
C887 C 0.25385 0.685 0.1313 0.0
H888 H 0.32587 0.76206 0.1605 0.0
H889 H 0.05549 0.43006 0.21167 0.0
H890 H 0.72603 0.20083 0.48362 0.0
H891 H 0.67675 0.1964 0.52612 0.0
H892 H 0.62154 0.18715 0.4023 0.0
H893 H 0.67112 0.19253 0.35942 0.0
H894 H 0.61648 0.23123 0.45552 0.0
H895 H 0.5984 0.11549 0.47168 0.0
H896 H 0.61425 0.07058 0.4899 0.0
H897 H 0.63482 0.10634 0.62679 0.0
H898 H 0.61945 0.15174 0.60927 0.0
H899 H 0.45373 0.13585 0.6173 0.0
H900 H 0.49742 0.13453 0.56767 0.0
H901 H 0.56413 0.24616 0.58485 0.0
H902 H 0.51994 0.24765 0.63257 0.0
H903 H 0.55994 0.14704 0.58059 0.0
H904 H 0.61333 0.28429 0.5073 0.0
H905 H 0.59324 0.3241 0.47936 0.0
H906 H 0.49475 0.23567 0.441 0.0
H907 H 0.51351 0.19544 0.47074 0.0
C908 C 0.70345 0.19787 0.46533 0.0
C909 C 0.70264 0.19718 0.41803 0.0
C910 C 0.67513 0.19506 0.48976 0.0
C911 C 0.64525 0.19105 0.46745 0.0
C912 C 0.64432 0.19022 0.42026 0.0
C913 C 0.6727 0.19324 0.39578 0.0
C914 C 0.61546 0.18897 0.4932 0.0
C915 C 0.6041 0.21272 0.48278 0.0
C916 C 0.59883 0.1645 0.52834 0.0
C917 C 0.60804 0.1372 0.53906 0.0
C918 C 0.60653 0.11393 0.5056 0.0
C919 C 0.61538 0.08835 0.51581 0.0
C920 C 0.62559 0.08564 0.55945 0.0
C921 C 0.62691 0.10847 0.59299 0.0
C922 C 0.61809 0.1341 0.58296 0.0
C923 C 0.47768 0.16006 0.61013 0.0
C924 C 0.48352 0.19186 0.62851 0.0
C925 C 0.50262 0.15932 0.58181 0.0
C926 C 0.53394 0.19034 0.57177 0.0
C927 C 0.53983 0.22203 0.59078 0.0
C928 C 0.51469 0.22284 0.61842 0.0
C929 C 0.56108 0.18946 0.54303 0.0
C930 C 0.57218 0.16537 0.55313 0.0
C931 C 0.57692 0.21297 0.50678 0.0
C932 C 0.56467 0.23698 0.49158 0.0
C933 C 0.58719 0.27343 0.49343 0.0
C934 C 0.57592 0.29604 0.47761 0.0
C935 C 0.54245 0.28242 0.45904 0.0
C936 C 0.5202 0.24619 0.45646 0.0
C937 C 0.53102 0.22348 0.47312 0.0
H938 H 0.53387 0.2999 0.4463 0.0
H939 H 0.63242 0.06582 0.56729 0.0
H940 H 0.27747 0.51799 0.97325 0.0
H941 H 0.31944 0.56178 0.92193 0.0
H942 H 0.35095 0.48835 0.87741 0.0
H943 H 0.31044 0.44519 0.9318 0.0
H944 H 0.40542 0.5465 0.88356 0.0
H945 H 0.29828 0.51561 0.80483 0.0
H946 H 0.23806 0.50417 0.79246 0.0
H947 H 0.26724 0.60639 0.84272 0.0
H948 H 0.32796 0.61904 0.85387 0.0
H949 H 0.48812 0.66096 0.6904 0.0
H950 H 0.44309 0.61066 0.73238 0.0
H951 H 0.44595 0.68013 0.8364 0.0
H952 H 0.49172 0.73044 0.79548 0.0
H953 H 0.37356 0.62048 0.79166 0.0
H954 H 0.48304 0.64805 0.8693 0.0
H955 H 0.54368 0.65914 0.86724 0.0
H956 H 0.50757 0.55764 0.8088 0.0
H957 H 0.44678 0.54629 0.80961 0.0
C958 C 0.29339 0.51125 0.95246 0.0
C959 C 0.29091 0.47839 0.95632 0.0
C960 C 0.31707 0.53613 0.9226 0.0
C961 C 0.33778 0.5282 0.89454 0.0
C962 C 0.33521 0.49515 0.89843 0.0
C963 C 0.31216 0.47053 0.92944 0.0
C964 C 0.36327 0.55519 0.86316 0.0
C965 C 0.39809 0.56212 0.86294 0.0
C966 C 0.35419 0.57598 0.83606 0.0
C967 C 0.31753 0.56812 0.83059 0.0
C968 C 0.29178 0.53554 0.81354 0.0
C969 C 0.25759 0.52886 0.80665 0.0
C970 C 0.2487 0.55426 0.81743 0.0
C971 C 0.27411 0.58666 0.83456 0.0
C972 C 0.30848 0.59373 0.8408 0.0
C973 C 0.47896 0.6655 0.72208 0.0
C974 C 0.4933 0.69953 0.73974 0.0
C975 C 0.45341 0.63681 0.74596 0.0
C976 C 0.44145 0.64191 0.78731 0.0
C977 C 0.45502 0.67588 0.80447 0.0
C978 C 0.48113 0.70447 0.78116 0.0
C979 C 0.41511 0.61173 0.81318 0.0
C980 C 0.38037 0.60435 0.8121 0.0
C981 C 0.42408 0.59011 0.83813 0.0
C982 C 0.46045 0.5965 0.83901 0.0
C983 C 0.48808 0.62823 0.85563 0.0
C984 C 0.52247 0.63455 0.85474 0.0
C985 C 0.52949 0.60915 0.83777 0.0
C986 C 0.50211 0.57732 0.82185 0.0
C987 C 0.46768 0.57093 0.82252 0.0
H988 H 0.55613 0.6141 0.83706 0.0
H989 H 0.22217 0.54893 0.8122 0.0
H990 H 0.83758 0.33377 0.35867 0.0
H991 H 0.8389 0.37964 0.31036 0.0
H992 H 0.81524 0.31222 0.1948 0.0
H993 H 0.81412 0.26648 0.24315 0.0
H994 H 0.86805 0.38425 0.17974 0.0
H995 H 0.75134 0.31562 0.237 0.0
H996 H 0.70694 0.28656 0.29615 0.0
H997 H 0.73981 0.38603 0.35887 0.0
H998 H 0.78489 0.41564 0.30049 0.0
H999 H 0.80806 0.47406 0.0353 0.0
H1000 H 0.81578 0.43096 0.07823 0.0
H1001 H 0.82529 0.48763 0.20062 0.0
H1002 H 0.81751 0.53055 0.1581 0.0
H1003 H 0.77941 0.41952 0.21049 0.0
H1004 H 0.89601 0.48852 0.15311 0.0
H1005 H 0.94117 0.5176 0.09482 0.0
H1006 H 0.90912 0.41817 0.03251 0.0
H1007 H 0.8634 0.38852 0.0901 0.0
C1008 C 0.83293 0.329 0.3229 0.0
C1009 C 0.82489 0.29656 0.30452 0.0
C1010 C 0.83366 0.35507 0.29542 0.0
C1011 C 0.82677 0.3491 0.24915 0.0
C1012 C 0.82041 0.31721 0.23046 0.0
C1013 C 0.8193 0.291 0.25808 0.0
C1014 C 0.82434 0.37547 0.22092 0.0
C1015 C 0.84845 0.39174 0.18598 0.0
C1016 C 0.79906 0.38548 0.22971 0.0
C1017 C 0.77175 0.36781 0.26463 0.0
C1018 C 0.74932 0.33127 0.26362 0.0
C1019 C 0.724 0.3147 0.29698 0.0
C1020 C 0.72062 0.33443 0.33131 0.0
C1021 C 0.7425 0.37078 0.33229 0.0
C1022 C 0.76794 0.38747 0.29907 0.0
C1023 C 0.81219 0.47753 0.07128 0.0
C1024 C 0.81168 0.50547 0.09339 0.0
C1025 C 0.81666 0.45291 0.09577 0.0
C1026 C 0.82109 0.45605 0.14267 0.0
C1027 C 0.82161 0.4845 0.16453 0.0
C1028 C 0.81703 0.50897 0.14016 0.0
C1029 C 0.82346 0.42886 0.16942 0.0
C1030 C 0.79913 0.41221 0.2041 0.0
C1031 C 0.84856 0.41859 0.16033 0.0
C1032 C 0.87603 0.43634 0.12566 0.0
C1033 C 0.89838 0.47288 0.12676 0.0
C1034 C 0.92412 0.48947 0.09389 0.0
C1035 C 0.92795 0.46976 0.05991 0.0
C1036 C 0.90609 0.43341 0.05881 0.0
C1037 C 0.88027 0.4167 0.09157 0.0
H1038 H 0.94791 0.48264 0.0345 0.0
H1039 H 0.70099 0.32155 0.3571 0.0
H1040 H 0.3297 0.79308 0.34854 0.0
H1041 H 0.37975 0.79996 0.39246 0.0
H1042 H 0.34417 0.83341 0.50702 0.0
H1043 H 0.29374 0.82627 0.46353 0.0
H1044 H 0.41878 0.87538 0.48782 0.0
H1045 H 0.32793 0.75448 0.50804 0.0
H1046 H 0.2836 0.69585 0.48114 0.0
H1047 H 0.36307 0.68601 0.41052 0.0
H1048 H 0.40782 0.74485 0.43648 0.0
H1049 H 0.5165 0.85539 0.66374 0.0
H1050 H 0.47419 0.85777 0.6126 0.0
H1051 H 0.49382 0.79725 0.51477 0.0
H1052 H 0.53511 0.79399 0.56688 0.0
H1053 H 0.42827 0.77027 0.522 0.0
H1054 H 0.51892 0.88844 0.49721 0.0
H1055 H 0.56529 0.94837 0.51716 0.0
H1056 H 0.49024 0.96498 0.58833 0.0
H1057 H 0.44355 0.90511 0.56902 0.0
C1058 C 0.33255 0.80202 0.38302 0.0
C1059 C 0.30764 0.80894 0.40263 0.0
C1060 C 0.36115 0.80591 0.40804 0.0
C1061 C 0.36554 0.81708 0.45296 0.0
C1062 C 0.34121 0.8248 0.47236 0.0
C1063 C 0.31232 0.82048 0.44755 0.0
C1064 C 0.39489 0.81954 0.48009 0.0
C1065 C 0.42078 0.85243 0.4958 0.0
C1066 C 0.39798 0.78971 0.48906 0.0
C1067 C 0.37115 0.7542 0.47382 0.0
C1068 C 0.3359 0.73993 0.48648 0.0
C1069 C 0.31071 0.70664 0.47145 0.0
C1070 C 0.32049 0.68726 0.44404 0.0
C1071 C 0.35552 0.70108 0.43171 0.0
C1072 C 0.38081 0.73438 0.44659 0.0
C1073 C 0.51191 0.8429 0.63112 0.0
C1074 C 0.52825 0.82369 0.61948 0.0
C1075 C 0.48795 0.8445 0.60169 0.0
C1076 C 0.48074 0.8278 0.55953 0.0
C1077 C 0.49848 0.80999 0.54723 0.0
C1078 C 0.52186 0.80783 0.57707 0.0
C1079 C 0.45266 0.82632 0.53004 0.0
C1080 C 0.42673 0.79347 0.51391 0.0
C1081 C 0.44995 0.85633 0.52001 0.0
C1082 C 0.47792 0.89218 0.53219 0.0
C1083 C 0.51246 0.90478 0.51755 0.0
C1084 C 0.53875 0.93874 0.52861 0.0
C1085 C 0.53075 0.96038 0.55421 0.0
C1086 C 0.49642 0.94816 0.56861 0.0
C1087 C 0.47003 0.91424 0.55754 0.0
H1088 H 0.55113 0.98667 0.56271 0.0
H1089 H 0.30095 0.66149 0.43243 0.0
H1090 H 0.72471 0.4831 0.9686 0.0
H1091 H 0.68205 0.44297 0.91374 0.0
H1092 H 0.62872 0.50261 0.91684 0.0
H1093 H 0.67122 0.54257 0.97225 0.0
H1094 H 0.58301 0.43576 0.92321 0.0
H1095 H 0.67931 0.50506 0.82604 0.0
H1096 H 0.73848 0.53303 0.79301 0.0
H1097 H 0.72998 0.43239 0.77628 0.0
H1098 H 0.67106 0.40382 0.80987 0.0
H1099 H 0.51928 0.34396 0.68746 0.0
H1100 H 0.56139 0.39236 0.73444 0.0
H1101 H 0.52533 0.32516 0.85098 0.0
H1102 H 0.48239 0.27716 0.80463 0.0
H1103 H 0.61475 0.40097 0.78018 0.0
H1104 H 0.53516 0.37046 0.94486 0.0
H1105 H 0.4734 0.34351 0.96831 0.0
H1106 H 0.44703 0.37206 0.84221 0.0
H1107 H 0.50869 0.39954 0.81822 0.0
C1108 C 0.70408 0.48781 0.95717 0.0
C1109 C 0.70123 0.51591 0.97449 0.0
C1110 C 0.67978 0.46496 0.92571 0.0
C1111 C 0.65232 0.46992 0.91075 0.0
C1112 C 0.64965 0.49821 0.92788 0.0
C1113 C 0.67388 0.521 0.95951 0.0
C1114 C 0.62539 0.44454 0.87915 0.0
C1115 C 0.59 0.42831 0.89183 0.0
C1116 C 0.63433 0.43495 0.83793 0.0
C1117 C 0.67079 0.45233 0.82074 0.0
C1118 C 0.69027 0.48895 0.81598 0.0
C1119 C 0.72372 0.5049 0.797 0.0
C1120 C 0.73788 0.48448 0.78244 0.0
C1121 C 0.71892 0.44815 0.7875 0.0
C1122 C 0.68552 0.43208 0.80652 0.0
C1123 C 0.5202 0.33956 0.72314 0.0
C1124 C 0.49742 0.30674 0.7423 0.0
C1125 C 0.54431 0.36724 0.74996 0.0
C1126 C 0.54628 0.36262 0.7964 0.0
C1127 C 0.5238 0.32971 0.81547 0.0
C1128 C 0.49937 0.30217 0.78881 0.0
C1129 C 0.5726 0.39184 0.82463 0.0
C1130 C 0.60782 0.40864 0.81143 0.0
C1131 C 0.56348 0.40232 0.86499 0.0
C1132 C 0.52652 0.38686 0.87966 0.0
C1133 C 0.51623 0.37121 0.92227 0.0
C1134 C 0.48122 0.35578 0.93562 0.0
C1135 C 0.4563 0.35601 0.90673 0.0
C1136 C 0.46635 0.37182 0.86451 0.0
C1137 C 0.50131 0.3873 0.851 0.0
H1138 H 0.4292 0.34398 0.91708 0.0
H1139 H 0.76338 0.49669 0.76687 0.0
loop_
_geom_bond_atom_site_label_1
_geom_bond_atom_site_label_2
_geom_bond_distance
_geom_bond_site_symmetry_2
_ccdc_geom_bond_type
Tb0 C2 2.809 . S
Tb0 O20 2.484 . S
Tb0 O21 2.440 . S
Tb0 O22 2.658 1_556 S
Tb0 O23 2.409 . S
Tb0 O24 2.378 . S
Tb0 O28 2.325 . S
Tb0 O31 2.341 1_556 S
Tb1 C11 2.809 . S
Tb1 O22 2.325 . S
Tb1 O25 2.341 1_554 S
Tb1 O26 2.484 . S
Tb1 O27 2.440 . S
Tb1 O28 2.658 1_554 S
Tb1 O29 2.409 . S
Tb1 O30 2.378 . S
C2 Tb0 2.809 . S
C2 C3 1.514 . S
C2 O20 1.248 . S
C2 O21 1.266 . S
C3 C2 1.514 . S
C3 C4 1.359 . S
C3 C8 1.348 . S
C4 C3 1.359 . S
C4 C5 1.380 . S
C4 H32 0.929 . S
C5 C4 1.380 . S
C5 C6 1.347 . S
C5 H33 0.931 . S
C6 C5 1.347 . S
C6 C7 1.369 . S
C7 C6 1.369 . S
C7 C8 1.408 . S
C7 H34 0.930 . S
C8 C3 1.348 . S
C8 C7 1.408 . S
C8 H35 0.930 . S
C9 O22 1.281 . S
C9 O23 1.254 1_554 S
C10 O24 1.236 . S
C10 O25 1.266 . S
C11 Tb1 2.809 . S
C11 C12 1.514 . S
C11 O26 1.248 . S
C11 O27 1.266 . S
C12 C11 1.514 . S
C12 C13 1.359 . S
C12 C17 1.348 . S
C13 C12 1.359 . S
C13 C14 1.380 . S
C13 H36 0.929 . S
C14 C13 1.380 . S
C14 C15 1.347 . S
C14 H37 0.931 . S
C15 C14 1.347 . S
C15 C16 1.369 . S
C16 C15 1.369 . S
C16 C17 1.408 . S
C16 H38 0.930 . S
C17 C12 1.348 . S
C17 C16 1.408 . S
C17 H39 0.930 . S
C18 O28 1.281 . S
C18 O29 1.254 1_556 S
C19 O30 1.236 . S
C19 O31 1.266 . S
O20 Tb0 2.484 . S
O20 C2 1.248 . S
O21 Tb0 2.440 . S
O21 C2 1.266 . S
O22 Tb0 2.658 1_554 S
O22 Tb1 2.325 . S
O22 C9 1.281 . S
O23 Tb0 2.409 . S
O23 C9 1.254 1_556 S
O24 Tb0 2.378 . S
O24 C10 1.236 . S
O25 Tb1 2.341 1_556 S
O25 C10 1.266 . S
O26 Tb1 2.484 . S
O26 C11 1.248 . S
O27 Tb1 2.440 . S
O27 C11 1.266 . S
O28 Tb0 2.325 . S
O28 Tb1 2.658 1_556 S
O28 C18 1.281 . S
O29 Tb1 2.409 . S
O29 C18 1.254 1_554 S
O30 Tb1 2.378 . S
O30 C19 1.236 . S
O31 Tb0 2.341 1_554 S
O31 C19 1.266 . S
H32 C4 0.929 . S
H33 C5 0.931 . S
H34 C7 0.930 . S
H35 C8 0.930 . S
H36 C13 0.929 . S
H37 C14 0.931 . S
H38 C16 0.930 . S
H39 C17 0.930 . S
Tb40 C42 2.809 . S
Tb40 O60 2.484 . S
Tb40 O61 2.440 . S
Tb40 O62 2.658 . S
Tb40 O63 2.409 . S
Tb40 O64 2.378 . S
Tb40 O68 2.325 . S
Tb40 O71 2.341 . S
Tb41 C51 2.809 . S
Tb41 O62 2.325 . S
Tb41 O65 2.341 . S
Tb41 O66 2.484 . S
Tb41 O67 2.440 . S
Tb41 O68 2.658 . S
Tb41 O69 2.409 . S
Tb41 O70 2.378 . S
C42 Tb40 2.809 . S
C42 C43 1.514 . S
C42 O60 1.248 . S
C42 O61 1.266 . S
C43 C42 1.514 . S
C43 C44 1.359 . S
C43 C48 1.348 . S
C44 C43 1.359 . S
C44 C45 1.380 . S
C44 H72 0.929 . S
C45 C44 1.380 . S
C45 C46 1.347 . S
C45 H73 0.931 . S
C46 C45 1.347 . S
C46 C47 1.369 . S
C47 C46 1.369 . S
C47 C48 1.408 . S
C47 H74 0.930 . S
C48 C43 1.348 . S
C48 C47 1.408 . S
C48 H75 0.930 . S
C49 O62 1.281 . S
C49 O63 1.254 . S
C50 O64 1.236 . S
C50 O65 1.266 . S
C51 Tb41 2.809 . S
C51 C52 1.514 . S
C51 O66 1.248 . S
C51 O67 1.266 . S
C52 C51 1.514 . S
C52 C53 1.359 . S
C52 C57 1.348 . S
C53 C52 1.359 . S
C53 C54 1.380 . S
C53 H76 0.929 . S
C54 C53 1.380 . S
C54 C55 1.347 . S
C54 H77 0.931 . S
C55 C54 1.347 . S
C55 C56 1.369 . S
C56 C55 1.369 . S
C56 C57 1.408 . S
C56 H78 0.930 . S
C57 C52 1.348 . S
C57 C56 1.408 . S
C57 H79 0.930 . S
C58 O68 1.281 . S
C58 O69 1.254 . S
C59 O70 1.236 . S
C59 O71 1.266 . S
O60 Tb40 2.484 . S
O60 C42 1.248 . S
O61 Tb40 2.440 . S
O61 C42 1.266 . S
O62 Tb40 2.658 . S
O62 Tb41 2.325 . S
O62 C49 1.281 . S
O63 Tb40 2.409 . S
O63 C49 1.254 . S
O64 Tb40 2.378 . S
O64 C50 1.236 . S
O65 Tb41 2.341 . S
O65 C50 1.266 . S
O66 Tb41 2.484 . S
O66 C51 1.248 . S
O67 Tb41 2.440 . S
O67 C51 1.266 . S
O68 Tb40 2.325 . S
O68 Tb41 2.658 . S
O68 C58 1.281 . S
O69 Tb41 2.409 . S
O69 C58 1.254 . S
O70 Tb41 2.378 . S
O70 C59 1.236 . S
O71 Tb40 2.341 . S
O71 C59 1.266 . S
H72 C44 0.929 . S
H73 C45 0.931 . S
H74 C47 0.930 . S
H75 C48 0.930 . S
H76 C53 0.929 . S
H77 C54 0.931 . S
H78 C56 0.930 . S
H79 C57 0.930 . S
Tb80 C82 2.809 . S
Tb80 O100 2.484 . S
Tb80 O101 2.440 . S
Tb80 O102 2.658 . S
Tb80 O103 2.409 . S
Tb80 O104 2.378 . S
Tb80 O108 2.325 . S
Tb80 O111 2.341 . S
Tb81 C91 2.809 . S
Tb81 O102 2.325 . S
Tb81 O105 2.341 . S
Tb81 O106 2.484 . S
Tb81 O107 2.440 . S
Tb81 O108 2.658 . S
Tb81 O109 2.409 . S
Tb81 O110 2.378 . S
C82 Tb80 2.809 . S
C82 C83 1.514 . S
C82 O100 1.248 . S
C82 O101 1.266 . S
C83 C82 1.514 . S
C83 C84 1.359 . S
C83 C88 1.348 . S
C84 C83 1.359 . S
C84 C85 1.380 . S
C84 H112 0.929 . S
C85 C84 1.380 . S
C85 C86 1.347 . S
C85 H113 0.931 . S
C86 C85 1.347 . S
C86 C87 1.369 . S
C87 C86 1.369 . S
C87 C88 1.408 . S
C87 H114 0.930 . S
C88 C83 1.348 . S
C88 C87 1.408 . S
C88 H115 0.930 . S
C89 O102 1.281 . S
C89 O103 1.254 . S
C90 O104 1.236 . S
C90 O105 1.266 . S
C91 Tb81 2.809 . S
C91 C92 1.514 . S
C91 O106 1.248 . S
C91 O107 1.266 . S
C92 C91 1.514 . S
C92 C93 1.359 . S
C92 C97 1.348 . S
C93 C92 1.359 . S
C93 C94 1.380 . S
C93 H116 0.929 . S
C94 C93 1.380 . S
C94 C95 1.347 . S
C94 H117 0.931 . S
C95 C94 1.347 . S
C95 C96 1.369 . S
C96 C95 1.369 . S
C96 C97 1.408 . S
C96 H118 0.930 . S
C97 C92 1.348 . S
C97 C96 1.408 . S
C97 H119 0.930 . S
C98 O108 1.281 . S
C98 O109 1.254 . S
C99 O110 1.236 . S
C99 O111 1.266 . S
O100 Tb80 2.484 . S
O100 C82 1.248 . S
O101 Tb80 2.440 . S
O101 C82 1.266 . S
O102 Tb80 2.658 . S
O102 Tb81 2.325 . S
O102 C89 1.281 . S
O103 Tb80 2.409 . S
O103 C89 1.254 . S
O104 Tb80 2.378 . S
O104 C90 1.236 . S
O105 Tb81 2.341 . S
O105 C90 1.266 . S
O106 Tb81 2.484 . S
O106 C91 1.248 . S
O107 Tb81 2.440 . S
O107 C91 1.266 . S
O108 Tb80 2.325 . S
O108 Tb81 2.658 . S
O108 C98 1.281 . S
O109 Tb81 2.409 . S
O109 C98 1.254 . S
O110 Tb81 2.378 . S
O110 C99 1.236 . S
O111 Tb80 2.341 . S
O111 C99 1.266 . S
H112 C84 0.929 . S
H113 C85 0.931 . S
H114 C87 0.930 . S
H115 C88 0.930 . S
H116 C93 0.929 . S
H117 C94 0.931 . S
H118 C96 0.930 . S
H119 C97 0.930 . S
Tb120 C122 2.809 . S
Tb120 O140 2.484 . S
Tb120 O141 2.440 . S
Tb120 O142 2.658 1_556 S
Tb120 O143 2.409 . S
Tb120 O144 2.378 . S
Tb120 O148 2.325 . S
Tb120 O151 2.341 1_556 S
Tb121 C131 2.809 . S
Tb121 O142 2.325 . S
Tb121 O145 2.341 1_554 S
Tb121 O146 2.484 . S
Tb121 O147 2.440 . S
Tb121 O148 2.658 1_554 S
Tb121 O149 2.409 . S
Tb121 O150 2.378 . S
C122 Tb120 2.809 . S
C122 C123 1.514 . S
C122 O140 1.248 . S
C122 O141 1.266 . S
C123 C122 1.514 . S
C123 C124 1.359 . S
C123 C128 1.348 . S
C124 C123 1.359 . S
C124 C125 1.380 . S
C124 H152 0.929 . S
C125 C124 1.380 . S
C125 C126 1.347 . S
C125 H153 0.931 . S
C126 C125 1.347 . S
C126 C127 1.369 . S
C127 C126 1.369 . S
C127 C128 1.408 . S
C127 H154 0.930 . S
C128 C123 1.348 . S
C128 C127 1.408 . S
C128 H155 0.930 . S
C129 O142 1.281 . S
C129 O143 1.254 1_554 S
C130 O144 1.236 . S
C130 O145 1.266 . S
C131 Tb121 2.809 . S
C131 C132 1.514 . S
C131 O146 1.248 . S
C131 O147 1.266 . S
C132 C131 1.514 . S
C132 C133 1.359 . S
C132 C137 1.348 . S
C133 C132 1.359 . S
C133 C134 1.380 . S
C133 H156 0.929 . S
C134 C133 1.380 . S
C134 C135 1.347 . S
C134 H157 0.931 . S
C135 C134 1.347 . S
C135 C136 1.369 . S
C136 C135 1.369 . S
C136 C137 1.408 . S
C136 H158 0.930 . S
C137 C132 1.348 . S
C137 C136 1.408 . S
C137 H159 0.930 . S
C138 O148 1.281 . S
C138 O149 1.254 1_556 S
C139 O150 1.236 . S
C139 O151 1.266 . S
O140 Tb120 2.484 . S
O140 C122 1.248 . S
O141 Tb120 2.440 . S
O141 C122 1.266 . S
O142 Tb120 2.658 1_554 S
O142 Tb121 2.325 . S
O142 C129 1.281 . S
O143 Tb120 2.409 . S
O143 C129 1.254 1_556 S
O144 Tb120 2.378 . S
O144 C130 1.236 . S
O145 Tb121 2.341 1_556 S
O145 C130 1.266 . S
O146 Tb121 2.484 . S
O146 C131 1.248 . S
O147 Tb121 2.440 . S
O147 C131 1.266 . S
O148 Tb120 2.325 . S
O148 Tb121 2.658 1_556 S
O148 C138 1.281 . S
O149 Tb121 2.409 . S
O149 C138 1.254 1_554 S
O150 Tb121 2.378 . S
O150 C139 1.236 . S
O151 Tb120 2.341 1_554 S
O151 C139 1.266 . S
H152 C124 0.929 . S
H153 C125 0.931 . S
H154 C127 0.930 . S
H155 C128 0.930 . S
H156 C133 0.929 . S
H157 C134 0.931 . S
H158 C136 0.930 . S
H159 C137 0.930 . S
Tb160 C162 2.809 . S
Tb160 O180 2.484 . S
Tb160 O181 2.440 . S
Tb160 O182 2.658 . S
Tb160 O183 2.409 . S
Tb160 O184 2.378 . S
Tb160 O188 2.325 . S
Tb160 O191 2.341 . S
Tb161 C171 2.809 . S
Tb161 O182 2.325 . S
Tb161 O185 2.341 . S
Tb161 O186 2.484 . S
Tb161 O187 2.440 . S
Tb161 O188 2.658 . S
Tb161 O189 2.409 . S
Tb161 O190 2.378 . S
C162 Tb160 2.809 . S
C162 C163 1.514 . S
C162 O180 1.248 . S
C162 O181 1.266 . S
C163 C162 1.514 . S
C163 C164 1.359 . S
C163 C168 1.348 . S
C164 C163 1.359 . S
C164 C165 1.380 . S
C164 H192 0.929 . S
C165 C164 1.380 . S
C165 C166 1.347 . S
C165 H193 0.931 . S
C166 C165 1.347 . S
C166 C167 1.369 . S
C167 C166 1.369 . S
C167 C168 1.408 . S
C167 H194 0.930 . S
C168 C163 1.348 . S
C168 C167 1.408 . S
C168 H195 0.930 . S
C169 O182 1.281 . S
C169 O183 1.254 . S
C170 O184 1.236 . S
C170 O185 1.266 . S
C171 Tb161 2.809 . S
C171 C172 1.514 . S
C171 O186 1.248 . S
C171 O187 1.266 . S
C172 C171 1.514 . S
C172 C173 1.359 . S
C172 C177 1.348 . S
C173 C172 1.359 . S
C173 C174 1.380 . S
C173 H196 0.929 . S
C174 C173 1.380 . S
C174 C175 1.347 . S
C174 H197 0.931 . S
C175 C174 1.347 . S
C175 C176 1.369 . S
C176 C175 1.369 . S
C176 C177 1.408 . S
C176 H198 0.930 . S
C177 C172 1.348 . S
C177 C176 1.408 . S
C177 H199 0.930 . S
C178 O188 1.281 . S
C178 O189 1.254 . S
C179 O190 1.236 . S
C179 O191 1.266 . S
O180 Tb160 2.484 . S
O180 C162 1.248 . S
O181 Tb160 2.440 . S
O181 C162 1.266 . S
O182 Tb160 2.658 . S
O182 Tb161 2.325 . S
O182 C169 1.281 . S
O183 Tb160 2.409 . S
O183 C169 1.254 . S
O184 Tb160 2.378 . S
O184 C170 1.236 . S
O185 Tb161 2.341 . S
O185 C170 1.266 . S
O186 Tb161 2.484 . S
O186 C171 1.248 . S
O187 Tb161 2.440 . S
O187 C171 1.266 . S
O188 Tb160 2.325 . S
O188 Tb161 2.658 . S
O188 C178 1.281 . S
O189 Tb161 2.409 . S
O189 C178 1.254 . S
O190 Tb161 2.378 . S
O190 C179 1.236 . S
O191 Tb160 2.341 . S
O191 C179 1.266 . S
H192 C164 0.929 . S
H193 C165 0.931 . S
H194 C167 0.930 . S
H195 C168 0.930 . S
H196 C173 0.929 . S
H197 C174 0.931 . S
H198 C176 0.930 . S
H199 C177 0.930 . S
Tb200 C202 2.809 . S
Tb200 O220 2.484 . S
Tb200 O221 2.440 . S
Tb200 O222 2.658 . S
Tb200 O223 2.409 . S
Tb200 O224 2.378 . S
Tb200 O228 2.325 . S
Tb200 O231 2.341 . S
Tb201 C211 2.809 . S
Tb201 O222 2.325 . S
Tb201 O225 2.341 . S
Tb201 O226 2.484 . S
Tb201 O227 2.440 . S
Tb201 O228 2.658 . S
Tb201 O229 2.409 . S
Tb201 O230 2.378 . S
C202 Tb200 2.809 . S
C202 C203 1.514 . S
C202 O220 1.248 . S
C202 O221 1.266 . S
C203 C202 1.514 . S
C203 C204 1.359 . S
C203 C208 1.348 . S
C204 C203 1.359 . S
C204 C205 1.380 . S
C204 H232 0.929 . S
C205 C204 1.380 . S
C205 C206 1.347 . S
C205 H233 0.931 . S
C206 C205 1.347 . S
C206 C207 1.369 . S
C207 C206 1.369 . S
C207 C208 1.408 . S
C207 H234 0.930 . S
C208 C203 1.348 . S
C208 C207 1.408 . S
C208 H235 0.930 . S
C209 O222 1.281 . S
C209 O223 1.254 . S
C210 O224 1.236 . S
C210 O225 1.266 . S
C211 Tb201 2.809 . S
C211 C212 1.514 . S
C211 O226 1.248 . S
C211 O227 1.266 . S
C212 C211 1.514 . S
C212 C213 1.359 . S
C212 C217 1.348 . S
C213 C212 1.359 . S
C213 C214 1.380 . S
C213 H236 0.929 . S
C214 C213 1.380 . S
C214 C215 1.347 . S
C214 H237 0.931 . S
C215 C214 1.347 . S
C215 C216 1.369 . S
C216 C215 1.369 . S
C216 C217 1.408 . S
C216 H238 0.930 . S
C217 C212 1.348 . S
C217 C216 1.408 . S
C217 H239 0.930 . S
C218 O228 1.281 . S
C218 O229 1.254 . S
C219 O230 1.236 . S
C219 O231 1.266 . S
O220 Tb200 2.484 . S
O220 C202 1.248 . S
O221 Tb200 2.440 . S
O221 C202 1.266 . S
O222 Tb200 2.658 . S
O222 Tb201 2.325 . S
O222 C209 1.281 . S
O223 Tb200 2.409 . S
O223 C209 1.254 . S
O224 Tb200 2.378 . S
O224 C210 1.236 . S
O225 Tb201 2.341 . S
O225 C210 1.266 . S
O226 Tb201 2.484 . S
O226 C211 1.248 . S
O227 Tb201 2.440 . S
O227 C211 1.266 . S
O228 Tb200 2.325 . S
O228 Tb201 2.658 . S
O228 C218 1.281 . S
O229 Tb201 2.409 . S
O229 C218 1.254 . S
O230 Tb201 2.378 . S
O230 C219 1.236 . S
O231 Tb200 2.341 . S
O231 C219 1.266 . S
H232 C204 0.929 . S
H233 C205 0.931 . S
H234 C207 0.930 . S
H235 C208 0.930 . S
H236 C213 0.929 . S
H237 C214 0.931 . S
H238 C216 0.930 . S
H239 C217 0.930 . S
H240 C258 0.951 . S
H241 C260 0.951 . S
H242 C262 0.950 . S
H243 C263 0.950 . S
H244 C265 0.950 . S
H245 C268 0.950 . S
H246 C269 0.950 . S
H247 C271 0.950 . S
H248 C272 0.950 . S
H249 C273 0.951 . S
H250 C275 0.951 . S
H251 C277 0.950 . S
H252 C278 0.950 . S
H253 C280 0.950 . S
H254 C283 0.950 . S
H255 C284 0.950 . S
H256 C286 0.950 . S
H257 C287 0.950 . S
C258 H240 0.951 . S
C258 C259 1.366 . S
C258 C260 1.388 . S
C259 C258 1.366 . S
C259 C263 1.385 . S
C260 H241 0.951 . S
C260 C258 1.388 . S
C260 C261 1.366 . S
C261 C260 1.366 . S
C261 C262 1.414 . S
C261 C264 1.499 . S
C262 H242 0.950 . S
C262 C261 1.414 . S
C262 C263 1.374 . S
C263 H243 0.950 . S
C263 C259 1.385 . S
C263 C262 1.374 . S
C264 C261 1.499 . S
C264 C265 1.373 . S
C264 C266 1.389 . S
C265 H244 0.950 . S
C265 C264 1.373 . S
C265 C281 1.377 . S
C266 C264 1.389 . S
C266 C267 1.524 . S
C266 C280 1.377 . S
C267 C266 1.524 . S
C267 C268 1.397 . S
C267 C272 1.363 . S
C268 H245 0.950 . S
C268 C267 1.397 . S
C268 C269 1.334 . S
C269 H246 0.950 . S
C269 C268 1.334 . S
C269 C270 1.287 . S
C270 C269 1.287 . S
C270 C271 1.524 . S
C270 H289 0.913 . S
C271 H247 0.950 . S
C271 C270 1.524 . S
C271 C272 1.415 . S
C272 H248 0.950 . S
C272 C267 1.363 . S
C272 C271 1.415 . S
C273 H249 0.951 . S
C273 C274 1.366 . S
C273 C275 1.388 . S
C274 C273 1.366 . S
C274 C278 1.385 . S
C275 H250 0.951 . S
C275 C273 1.388 . S
C275 C276 1.366 . S
C276 C275 1.366 . S
C276 C277 1.414 . S
C276 C279 1.499 . S
C277 H251 0.950 . S
C277 C276 1.414 . S
C277 C278 1.374 . S
C278 H252 0.950 . S
C278 C274 1.385 . S
C278 C277 1.374 . S
C279 C276 1.499 . S
C279 C280 1.373 . S
C279 C281 1.389 . S
C280 H253 0.950 . S
C280 C266 1.377 . S
C280 C279 1.373 . S
C281 C265 1.377 . S
C281 C279 1.389 . S
C281 C282 1.524 . S
C282 C281 1.524 . S
C282 C283 1.397 . S
C282 C287 1.363 . S
C283 H254 0.950 . S
C283 C282 1.397 . S
C283 C284 1.334 . S
C284 H255 0.950 . S
C284 C283 1.334 . S
C284 C285 1.287 . S
C285 C284 1.287 . S
C285 C286 1.524 . S
C285 H288 0.999 1_556 S
C286 H256 0.950 . S
C286 C285 1.524 . S
C286 C287 1.415 . S
C287 H257 0.950 . S
C287 C282 1.363 . S
C287 C286 1.415 . S
H288 C285 0.999 1_554 S
H289 C270 0.913 . S
H290 C308 0.951 . S
H291 C310 0.951 . S
H292 C312 0.950 . S
H293 C313 0.950 . S
H294 C315 0.950 . S
H295 C318 0.950 1_455 S
H296 C319 0.950 . S
H297 C321 0.950 1_556 S
H298 C322 0.950 . S
H299 C323 0.951 . S
H300 C325 0.951 . S
H301 C327 0.950 . S
H302 C328 0.950 . S
H303 C330 0.950 . S
H304 C333 0.949 . S
H305 C334 0.950 1_655 S
H306 C336 0.950 . S
H307 C337 0.950 . S
C308 H290 0.951 . S
C308 C309 1.366 . S
C308 C310 1.388 . S
C309 C308 1.366 . S
C309 C313 1.385 . S
C310 H291 0.951 . S
C310 C308 1.388 . S
C310 C311 1.366 . S
C311 C310 1.366 . S
C311 C312 1.414 . S
C311 C314 1.499 . S
C312 H292 0.950 . S
C312 C311 1.414 . S
C312 C313 1.374 . S
C313 H293 0.950 . S
C313 C309 1.385 . S
C313 C312 1.374 . S
C314 C311 1.499 . S
C314 C315 1.373 . S
C314 C316 1.389 1_455 S
C315 H294 0.950 . S
C315 C314 1.373 . S
C315 C331 1.377 . S
C316 C314 1.389 1_655 S
C316 C317 1.524 . S
C316 C330 1.377 . S
C317 C316 1.524 . S
C317 C318 1.397 . S
C317 C322 1.363 . S
C318 H295 0.950 1_655 S
C318 C317 1.397 . S
C318 C319 1.334 1_554 S
C319 H296 0.950 . S
C319 C318 1.334 1_556 S
C319 C320 1.287 . S
C320 C319 1.287 . S
C320 C321 1.524 1_556 S
C320 H339 0.913 . S
C321 H297 0.950 1_554 S
C321 C320 1.524 1_554 S
C321 C322 1.415 . S
C322 H298 0.950 . S
C322 C317 1.363 . S
C322 C321 1.415 . S
C323 H299 0.951 . S
C323 C324 1.366 . S
C323 C325 1.388 . S
C324 C323 1.366 . S
C324 C328 1.385 . S
C325 H300 0.951 . S
C325 C323 1.388 . S
C325 C326 1.366 . S
C326 C325 1.366 . S
C326 C327 1.414 . S
C326 C329 1.499 . S
C327 H301 0.950 . S
C327 C326 1.414 . S
C327 C328 1.374 . S
C328 H302 0.950 . S
C328 C324 1.385 . S
C328 C327 1.374 . S
C329 C326 1.499 . S
C329 C330 1.373 . S
C329 C331 1.389 1_655 S
C330 H303 0.950 . S
C330 C316 1.377 . S
C330 C329 1.373 . S
C331 C315 1.377 . S
C331 C329 1.389 1_455 S
C331 C332 1.524 . S
C332 C331 1.524 . S
C332 C333 1.397 1_455 S
C332 C337 1.363 . S
C333 H304 0.949 . S
C333 C332 1.397 1_655 S
C333 C334 1.334 1_655 S
C334 H305 0.950 1_455 S
C334 C333 1.334 1_455 S
C334 C335 1.287 . S
C335 C334 1.287 . S
C335 C336 1.524 . S
C335 H338 0.999 . S
C336 H306 0.950 . S
C336 C335 1.524 . S
C336 C337 1.415 . S
C337 H307 0.950 . S
C337 C332 1.363 . S
C337 C336 1.415 . S
H338 C335 0.999 . S
H339 C320 0.913 . S
H340 C358 0.951 . S
H341 C360 0.951 . S
H342 C362 0.950 . S
H343 C363 0.950 . S
H344 C365 0.950 . S
H345 C368 0.950 . S
H346 C369 0.950 . S
H347 C371 0.950 . S
H348 C372 0.950 . S
H349 C373 0.951 . S
H350 C375 0.951 . S
H351 C377 0.950 . S
H352 C378 0.950 . S
H353 C380 0.950 . S
H354 C383 0.950 . S
H355 C384 0.950 . S
H356 C386 0.950 . S
H357 C387 0.950 . S
C358 H340 0.951 . S
C358 C359 1.366 . S
C358 C360 1.388 . S
C359 C358 1.366 . S
C359 C363 1.385 . S
C360 H341 0.951 . S
C360 C358 1.388 . S
C360 C361 1.366 . S
C361 C360 1.366 . S
C361 C362 1.414 . S
C361 C364 1.499 . S
C362 H342 0.950 . S
C362 C361 1.414 . S
C362 C363 1.374 . S
C363 H343 0.950 . S
C363 C359 1.385 . S
C363 C362 1.374 . S
C364 C361 1.499 . S
C364 C365 1.373 . S
C364 C366 1.389 . S
C365 H344 0.950 . S
C365 C364 1.373 . S
C365 C381 1.377 1_545 S
C366 C364 1.389 . S
C366 C367 1.524 . S
C366 C380 1.377 1_545 S
C367 C366 1.524 . S
C367 C368 1.397 . S
C367 C372 1.363 . S
C368 H345 0.950 . S
C368 C367 1.397 . S
C368 C369 1.334 . S
C369 H346 0.950 . S
C369 C368 1.334 . S
C369 C370 1.287 . S
C370 C369 1.287 . S
C370 C371 1.524 . S
C370 H389 0.913 . S
C371 H347 0.950 . S
C371 C370 1.524 . S
C371 C372 1.415 . S
C372 H348 0.950 . S
C372 C367 1.363 . S
C372 C371 1.415 . S
C373 H349 0.951 . S
C373 C374 1.366 . S
C373 C375 1.388 . S
C374 C373 1.366 . S
C374 C378 1.385 . S
C375 H350 0.951 . S
C375 C373 1.388 . S
C375 C376 1.366 . S
C376 C375 1.366 . S
C376 C377 1.414 . S
C376 C379 1.499 . S
C377 H351 0.950 . S
C377 C376 1.414 . S
C377 C378 1.374 . S
C378 H352 0.950 . S
C378 C374 1.385 . S
C378 C377 1.374 . S
C379 C376 1.499 . S
C379 C380 1.373 . S
C379 C381 1.389 . S
C380 H353 0.950 . S
C380 C366 1.377 1_565 S
C380 C379 1.373 . S
C381 C365 1.377 1_565 S
C381 C379 1.389 . S
C381 C382 1.524 . S
C382 C381 1.524 . S
C382 C383 1.397 . S
C382 C387 1.363 . S
C383 H354 0.950 . S
C383 C382 1.397 . S
C383 C384 1.334 . S
C384 H355 0.950 . S
C384 C383 1.334 . S
C384 C385 1.287 . S
C385 C384 1.287 . S
C385 C386 1.524 . S
C385 H388 0.999 . S
C386 H356 0.950 . S
C386 C385 1.524 . S
C386 C387 1.415 . S
C387 H357 0.950 . S
C387 C382 1.363 . S
C387 C386 1.415 . S
H388 C385 0.999 . S
H389 C370 0.913 . S
H390 C408 0.951 . S
H391 C410 0.951 . S
H392 C412 0.950 . S
H393 C413 0.950 . S
H394 C415 0.950 . S
H395 C418 0.950 . S
H396 C419 0.950 . S
H397 C421 0.950 . S
H398 C422 0.950 . S
H399 C423 0.951 . S
H400 C425 0.951 . S
H401 C427 0.950 . S
H402 C428 0.950 . S
H403 C430 0.950 . S
H404 C433 0.950 . S
H405 C434 0.950 . S
H406 C436 0.950 . S
H407 C437 0.950 . S
C408 H390 0.951 . S
C408 C409 1.366 . S
C408 C410 1.388 . S
C409 C408 1.366 . S
C409 C413 1.385 . S
C410 H391 0.951 . S
C410 C408 1.388 . S
C410 C411 1.366 . S
C411 C410 1.366 . S
C411 C412 1.414 . S
C411 C414 1.499 . S
C412 H392 0.950 . S
C412 C411 1.414 . S
C412 C413 1.374 . S
C413 H393 0.950 . S
C413 C409 1.385 . S
C413 C412 1.374 . S
C414 C411 1.499 . S
C414 C415 1.373 . S
C414 C416 1.389 . S
C415 H394 0.950 . S
C415 C414 1.373 . S
C415 C431 1.377 . S
C416 C414 1.389 . S
C416 C417 1.524 . S
C416 C430 1.377 . S
C417 C416 1.524 . S
C417 C418 1.397 . S
C417 C422 1.363 . S
C418 H395 0.950 . S
C418 C417 1.397 . S
C418 C419 1.334 . S
C419 H396 0.950 . S
C419 C418 1.334 . S
C419 C420 1.287 . S
C420 C419 1.287 . S
C420 C421 1.524 . S
C420 H439 0.913 . S
C421 H397 0.950 . S
C421 C420 1.524 . S
C421 C422 1.415 . S
C422 H398 0.950 . S
C422 C417 1.363 . S
C422 C421 1.415 . S
C423 H399 0.951 . S
C423 C424 1.366 . S
C423 C425 1.388 . S
C424 C423 1.366 . S
C424 C428 1.385 . S
C425 H400 0.951 . S
C425 C423 1.388 . S
C425 C426 1.366 . S
C426 C425 1.366 . S
C426 C427 1.414 . S
C426 C429 1.499 . S
C427 H401 0.950 . S
C427 C426 1.414 . S
C427 C428 1.374 . S
C428 H402 0.950 . S
C428 C424 1.385 . S
C428 C427 1.374 . S
C429 C426 1.499 . S
C429 C430 1.373 . S
C429 C431 1.389 . S
C430 H403 0.950 . S
C430 C416 1.377 . S
C430 C429 1.373 . S
C431 C415 1.377 . S
C431 C429 1.389 . S
C431 C432 1.524 . S
C432 C431 1.524 . S
C432 C433 1.397 . S
C432 C437 1.363 . S
C433 H404 0.950 . S
C433 C432 1.397 . S
C433 C434 1.334 . S
C434 H405 0.950 . S
C434 C433 1.334 . S
C434 C435 1.287 . S
C435 C434 1.287 . S
C435 C436 1.524 . S
C435 H438 0.999 . S
C436 H406 0.950 . S
C436 C435 1.524 . S
C436 C437 1.415 . S
C437 H407 0.950 . S
C437 C432 1.363 . S
C437 C436 1.415 . S
H438 C435 0.999 . S
H439 C420 0.913 . S
H440 C458 0.951 . S
H441 C460 0.951 . S
H442 C462 0.950 . S
H443 C463 0.950 . S
H444 C465 0.951 . S
H445 C468 0.950 . S
H446 C469 0.950 . S
H447 C471 0.950 . S
H448 C472 0.950 . S
H449 C473 0.951 . S
H450 C475 0.951 . S
H451 C477 0.950 . S
H452 C478 0.950 . S
H453 C480 0.950 . S
H454 C483 0.950 . S
H455 C484 0.950 . S
H456 C486 0.950 . S
H457 C487 0.950 . S
C458 H440 0.951 . S
C458 C459 1.366 . S
C458 C460 1.388 . S
C459 C458 1.366 . S
C459 C463 1.385 . S
C460 H441 0.951 . S
C460 C458 1.388 . S
C460 C461 1.366 . S
C461 C460 1.366 . S
C461 C462 1.414 . S
C461 C464 1.499 . S
C462 H442 0.950 . S
C462 C461 1.414 . S
C462 C463 1.374 . S
C463 H443 0.950 . S
C463 C459 1.385 . S
C463 C462 1.374 . S
C464 C461 1.499 . S
C464 C465 1.371 1_455 S
C464 C466 1.389 . S
C465 H444 0.951 . S
C465 C464 1.371 1_655 S
C465 C481 1.378 . S
C466 C464 1.389 . S
C466 C467 1.524 . S
C466 C480 1.377 . S
C467 C466 1.524 . S
C467 C468 1.397 . S
C467 C472 1.363 . S
C468 H445 0.950 . S
C468 C467 1.397 . S
C468 C469 1.334 . S
C469 H446 0.950 . S
C469 C468 1.334 . S
C469 C470 1.287 . S
C470 C469 1.287 . S
C470 C471 1.524 . S
C470 H489 0.913 . S
C471 H447 0.950 . S
C471 C470 1.524 . S
C471 C472 1.415 . S
C472 H448 0.950 . S
C472 C467 1.363 . S
C472 C471 1.415 . S
C473 H449 0.951 . S
C473 C474 1.366 . S
C473 C475 1.388 . S
C474 C473 1.366 . S
C474 C478 1.385 . S
C475 H450 0.951 . S
C475 C473 1.388 . S
C475 C476 1.366 . S
C476 C475 1.366 . S
C476 C477 1.414 . S
C476 C479 1.499 . S
C477 H451 0.950 . S
C477 C476 1.414 . S
C477 C478 1.374 . S
C478 H452 0.950 . S
C478 C474 1.385 . S
C478 C477 1.374 . S
C479 C476 1.499 . S
C479 C480 1.373 1_655 S
C479 C481 1.389 . S
C480 H453 0.950 . S
C480 C466 1.377 . S
C480 C479 1.373 1_455 S
C481 C465 1.378 . S
C481 C479 1.389 . S
C481 C482 1.524 . S
C482 C481 1.524 . S
C482 C483 1.397 . S
C482 C487 1.363 . S
C483 H454 0.950 . S
C483 C482 1.397 . S
C483 C484 1.334 . S
C484 H455 0.950 . S
C484 C483 1.334 . S
C484 C485 1.287 . S
C485 C484 1.287 . S
C485 C486 1.524 . S
C485 H488 0.999 . S
C486 H456 0.950 . S
C486 C485 1.524 . S
C486 C487 1.415 . S
C487 H457 0.950 . S
C487 C482 1.363 . S
C487 C486 1.415 . S
H488 C485 0.999 . S
H489 C470 0.913 . S
H490 C508 0.951 . S
H491 C510 0.951 . S
H492 C512 0.950 . S
H493 C513 0.950 . S
H494 C515 0.948 1_565 S
H495 C518 0.950 . S
H496 C519 0.950 . S
H497 C521 0.950 . S
H498 C522 0.950 . S
H499 C523 0.951 . S
H500 C525 0.951 . S
H501 C527 0.950 . S
H502 C528 0.950 . S
H503 C530 0.950 . S
H504 C533 0.950 . S
H505 C534 0.950 . S
H506 C536 0.950 . S
H507 C537 0.950 . S
C508 H490 0.951 . S
C508 C509 1.366 . S
C508 C510 1.388 . S
C509 C508 1.366 . S
C509 C513 1.385 . S
C510 H491 0.951 . S
C510 C508 1.388 . S
C510 C511 1.366 . S
C511 C510 1.366 . S
C511 C512 1.414 . S
C511 C514 1.499 . S
C512 H492 0.950 . S
C512 C511 1.414 . S
C512 C513 1.374 . S
C513 H493 0.950 . S
C513 C509 1.385 . S
C513 C512 1.374 . S
C514 C511 1.499 . S
C514 C515 1.384 . S
C514 C516 1.389 . S
C515 H494 0.948 1_545 S
C515 C514 1.384 . S
C515 C531 1.368 1_545 S
C516 C514 1.389 . S
C516 C517 1.524 . S
C516 C530 1.377 . S
C517 C516 1.524 . S
C517 C518 1.397 . S
C517 C522 1.363 . S
C518 H495 0.950 . S
C518 C517 1.397 . S
C518 C519 1.334 . S
C519 H496 0.950 . S
C519 C518 1.334 . S
C519 C520 1.287 . S
C520 C519 1.287 . S
C520 C521 1.524 . S
C520 H539 0.913 . S
C521 H497 0.950 . S
C521 C520 1.524 . S
C521 C522 1.415 . S
C522 H498 0.950 . S
C522 C517 1.363 . S
C522 C521 1.415 . S
C523 H499 0.951 . S
C523 C524 1.366 . S
C523 C525 1.388 . S
C524 C523 1.366 . S
C524 C528 1.385 . S
C525 H500 0.951 . S
C525 C523 1.388 . S
C525 C526 1.366 . S
C526 C525 1.366 . S
C526 C527 1.414 . S
C526 C529 1.499 . S
C527 H501 0.950 . S
C527 C526 1.414 . S
C527 C528 1.374 . S
C528 H502 0.950 . S
C528 C524 1.385 . S
C528 C527 1.374 . S
C529 C526 1.499 . S
C529 C530 1.373 1_565 S
C529 C531 1.389 . S
C530 H503 0.950 . S
C530 C516 1.377 . S
C530 C529 1.373 1_545 S
C531 C515 1.368 1_565 S
C531 C529 1.389 . S
C531 C532 1.524 . S
C532 C531 1.524 . S
C532 C533 1.397 . S
C532 C537 1.363 . S
C533 H504 0.950 . S
C533 C532 1.397 . S
C533 C534 1.334 . S
C534 H505 0.950 . S
C534 C533 1.334 . S
C534 C535 1.287 . S
C535 C534 1.287 . S
C535 C536 1.524 . S
C535 H538 0.999 . S
C536 H506 0.950 . S
C536 C535 1.524 . S
C536 C537 1.415 . S
C537 H507 0.950 . S
C537 C532 1.363 . S
C537 C536 1.415 . S
H538 C535 0.999 . S
H539 C520 0.913 . S
H540 C558 0.951 . S
H541 C560 0.951 . S
H542 C562 0.950 . S
H543 C563 0.950 . S
H544 C565 0.950 . S
H545 C568 0.950 . S
H546 C569 0.950 . S
H547 C571 0.950 . S
H548 C572 0.950 . S
H549 C573 0.951 . S
H550 C575 0.951 . S
H551 C577 0.950 . S
H552 C578 0.950 . S
H553 C580 0.950 . S
H554 C583 0.950 . S
H555 C584 0.950 . S
H556 C586 0.950 . S
H557 C587 0.950 . S
C558 H540 0.951 . S
C558 C559 1.366 . S
C558 C560 1.388 . S
C559 C558 1.366 . S
C559 C563 1.385 . S
C560 H541 0.951 . S
C560 C558 1.388 . S
C560 C561 1.366 . S
C561 C560 1.366 . S
C561 C562 1.414 . S
C561 C564 1.499 . S
C562 H542 0.950 . S
C562 C561 1.414 . S
C562 C563 1.374 . S
C563 H543 0.950 . S
C563 C559 1.385 . S
C563 C562 1.374 . S
C564 C561 1.499 . S
C564 C565 1.373 . S
C564 C566 1.389 . S
C565 H544 0.950 . S
C565 C564 1.373 . S
C565 C581 1.377 . S
C566 C564 1.389 . S
C566 C567 1.524 . S
C566 C580 1.377 . S
C567 C566 1.524 . S
C567 C568 1.397 . S
C567 C572 1.363 . S
C568 H545 0.950 . S
C568 C567 1.397 . S
C568 C569 1.334 . S
C569 H546 0.950 . S
C569 C568 1.334 . S
C569 C570 1.287 . S
C570 C569 1.287 . S
C570 C571 1.524 . S
C570 H589 0.913 . S
C571 H547 0.950 . S
C571 C570 1.524 . S
C571 C572 1.415 . S
C572 H548 0.950 . S
C572 C567 1.363 . S
C572 C571 1.415 . S
C573 H549 0.951 . S
C573 C574 1.366 . S
C573 C575 1.388 . S
C574 C573 1.366 . S
C574 C578 1.385 . S
C575 H550 0.951 . S
C575 C573 1.388 . S
C575 C576 1.366 . S
C576 C575 1.366 . S
C576 C577 1.414 . S
C576 C579 1.499 . S
C577 H551 0.950 . S
C577 C576 1.414 . S
C577 C578 1.374 . S
C578 H552 0.950 . S
C578 C574 1.385 . S
C578 C577 1.374 . S
C579 C576 1.499 . S
C579 C580 1.373 . S
C579 C581 1.389 . S
C580 H553 0.950 . S
C580 C566 1.377 . S
C580 C579 1.373 . S
C581 C565 1.377 . S
C581 C579 1.389 . S
C581 C582 1.524 . S
C582 C581 1.524 . S
C582 C583 1.397 . S
C582 C587 1.363 . S
C583 H554 0.950 . S
C583 C582 1.397 . S
C583 C584 1.334 . S
C584 H555 0.950 . S
C584 C583 1.334 . S
C584 C585 1.287 . S
C585 C584 1.287 . S
C585 C586 1.524 . S
C585 H588 0.999 . S
C586 H556 0.950 . S
C586 C585 1.524 . S
C586 C587 1.415 . S
C587 H557 0.950 . S
C587 C582 1.363 . S
C587 C586 1.415 . S
H588 C585 0.999 . S
H589 C570 0.913 . S
H590 C608 0.951 . S
H591 C610 0.951 . S
H592 C612 0.950 . S
H593 C613 0.950 . S
H594 C615 0.950 . S
H595 C618 0.950 . S
H596 C619 0.950 . S
H597 C621 0.950 . S
H598 C622 0.950 . S
H599 C623 0.951 . S
H600 C625 0.951 . S
H601 C627 0.950 . S
H602 C628 0.950 . S
H603 C630 0.950 . S
H604 C633 0.950 . S
H605 C634 0.950 . S
H606 C636 0.950 . S
H607 C637 0.950 . S
C608 H590 0.951 . S
C608 C609 1.366 1_556 S
C608 C610 1.388 . S
C609 C608 1.366 1_554 S
C609 C613 1.385 . S
C610 H591 0.951 . S
C610 C608 1.388 . S
C610 C611 1.366 . S
C611 C610 1.366 . S
C611 C612 1.414 . S
C611 C614 1.499 . S
C612 H592 0.950 . S
C612 C611 1.414 . S
C612 C613 1.374 1_556 S
C613 H593 0.950 . S
C613 C609 1.385 . S
C613 C612 1.374 1_554 S
C614 C611 1.499 . S
C614 C615 1.373 . S
C614 C616 1.389 . S
C615 H594 0.950 . S
C615 C614 1.373 . S
C615 C631 1.377 . S
C616 C614 1.389 . S
C616 C617 1.524 . S
C616 C630 1.377 . S
C617 C616 1.524 . S
C617 C618 1.397 . S
C617 C622 1.363 . S
C618 H595 0.950 . S
C618 C617 1.397 . S
C618 C619 1.334 . S
C619 H596 0.950 . S
C619 C618 1.334 . S
C619 C620 1.287 . S
C620 C619 1.287 . S
C620 C621 1.524 . S
C620 H639 0.913 . S
C621 H597 0.950 . S
C621 C620 1.524 . S
C621 C622 1.415 . S
C622 H598 0.950 . S
C622 C617 1.363 . S
C622 C621 1.415 . S
C623 H599 0.951 . S
C623 C624 1.366 . S
C623 C625 1.388 . S
C624 C623 1.366 . S
C624 C628 1.385 . S
C625 H600 0.951 . S
C625 C623 1.388 . S
C625 C626 1.366 . S
C626 C625 1.366 . S
C626 C627 1.414 . S
C626 C629 1.499 . S
C627 H601 0.950 . S
C627 C626 1.414 . S
C627 C628 1.374 . S
C628 H602 0.950 . S
C628 C624 1.385 . S
C628 C627 1.374 . S
C629 C626 1.499 . S
C629 C630 1.373 . S
C629 C631 1.389 . S
C630 H603 0.950 . S
C630 C616 1.377 . S
C630 C629 1.373 . S
C631 C615 1.377 . S
C631 C629 1.389 . S
C631 C632 1.524 . S
C632 C631 1.524 . S
C632 C633 1.397 . S
C632 C637 1.363 . S
C633 H604 0.950 . S
C633 C632 1.397 . S
C633 C634 1.334 . S
C634 H605 0.950 . S
C634 C633 1.334 . S
C634 C635 1.287 . S
C635 C634 1.287 . S
C635 C636 1.524 . S
C635 H638 0.999 . S
C636 H606 0.950 . S
C636 C635 1.524 . S
C636 C637 1.415 . S
C637 H607 0.950 . S
C637 C632 1.363 . S
C637 C636 1.415 . S
H638 C635 0.999 . S
H639 C620 0.913 . S
H640 C658 0.951 . S
H641 C660 0.951 . S
H642 C662 0.950 . S
H643 C663 0.950 . S
H644 C665 0.950 . S
H645 C668 0.950 . S
H646 C669 0.950 . S
H647 C671 0.950 . S
H648 C672 0.950 . S
H649 C673 0.951 1_556 S
H650 C675 0.951 . S
H651 C677 0.950 . S
H652 C678 0.950 1_556 S
H653 C680 0.950 . S
H654 C683 0.950 . S
H655 C684 0.950 . S
H656 C686 0.950 . S
H657 C687 0.950 . S
C658 H640 0.951 . S
C658 C659 1.366 . S
C658 C660 1.388 . S
C659 C658 1.366 . S
C659 C663 1.385 . S
C660 H641 0.951 . S
C660 C658 1.388 . S
C660 C661 1.366 . S
C661 C660 1.366 . S
C661 C662 1.414 . S
C661 C664 1.499 . S
C662 H642 0.950 . S
C662 C661 1.414 . S
C662 C663 1.374 . S
C663 H643 0.950 . S
C663 C659 1.385 . S
C663 C662 1.374 . S
C664 C661 1.499 . S
C664 C665 1.373 . S
C664 C666 1.389 . S
C665 H644 0.950 . S
C665 C664 1.373 . S
C665 C681 1.377 . S
C666 C664 1.389 . S
C666 C667 1.524 . S
C666 C680 1.377 . S
C667 C666 1.524 . S
C667 C668 1.397 . S
C667 C672 1.363 . S
C668 H645 0.950 . S
C668 C667 1.397 . S
C668 C669 1.334 . S
C669 H646 0.950 . S
C669 C668 1.334 . S
C669 C670 1.287 . S
C670 C669 1.287 . S
C670 C671 1.524 . S
C670 H689 0.913 . S
C671 H647 0.950 . S
C671 C670 1.524 . S
C671 C672 1.415 . S
C672 H648 0.950 . S
C672 C667 1.363 . S
C672 C671 1.415 . S
C673 H649 0.951 1_554 S
C673 C674 1.366 1_554 S
C673 C675 1.388 . S
C674 C673 1.366 1_556 S
C674 C678 1.385 1_556 S
C675 H650 0.951 . S
C675 C673 1.388 . S
C675 C676 1.366 . S
C676 C675 1.366 . S
C676 C677 1.414 . S
C676 C679 1.499 . S
C677 H651 0.950 . S
C677 C676 1.414 . S
C677 C678 1.374 . S
C678 H652 0.950 1_554 S
C678 C674 1.385 1_554 S
C678 C677 1.374 . S
C679 C676 1.499 . S
C679 C680 1.373 . S
C679 C681 1.389 . S
C680 H653 0.950 . S
C680 C666 1.377 . S
C680 C679 1.373 . S
C681 C665 1.377 . S
C681 C679 1.389 . S
C681 C682 1.524 . S
C682 C681 1.524 . S
C682 C683 1.397 . S
C682 C687 1.363 . S
C683 H654 0.950 . S
C683 C682 1.397 . S
C683 C684 1.334 . S
C684 H655 0.950 . S
C684 C683 1.334 . S
C684 C685 1.287 . S
C685 C684 1.287 . S
C685 C686 1.524 . S
C685 H688 0.999 . S
C686 H656 0.950 . S
C686 C685 1.524 . S
C686 C687 1.415 . S
C687 H657 0.950 . S
C687 C682 1.363 . S
C687 C686 1.415 . S
H688 C685 0.999 . S
H689 C670 0.913 . S
H690 C708 0.951 . S
H691 C710 0.951 . S
H692 C712 0.950 . S
H693 C713 0.950 . S
H694 C715 0.950 . S
H695 C718 0.950 . S
H696 C719 0.950 . S
H697 C721 0.950 . S
H698 C722 0.950 . S
H699 C723 0.951 . S
H700 C725 0.951 . S
H701 C727 0.950 . S
H702 C728 0.950 . S
H703 C730 0.950 . S
H704 C733 0.950 . S
H705 C734 0.950 . S
H706 C736 0.950 . S
H707 C737 0.950 . S
C708 H690 0.951 . S
C708 C709 1.366 . S
C708 C710 1.388 . S
C709 C708 1.366 . S
C709 C713 1.385 . S
C710 H691 0.951 . S
C710 C708 1.388 . S
C710 C711 1.366 . S
C711 C710 1.366 . S
C711 C712 1.414 . S
C711 C714 1.499 . S
C712 H692 0.950 . S
C712 C711 1.414 . S
C712 C713 1.374 . S
C713 H693 0.950 . S
C713 C709 1.385 . S
C713 C712 1.374 . S
C714 C711 1.499 . S
C714 C715 1.373 . S
C714 C716 1.389 . S
C715 H694 0.950 . S
C715 C714 1.373 . S
C715 C731 1.377 . S
C716 C714 1.389 . S
C716 C717 1.524 . S
C716 C730 1.377 . S
C717 C716 1.524 . S
C717 C718 1.397 . S
C717 C722 1.363 . S
C718 H695 0.950 . S
C718 C717 1.397 . S
C718 C719 1.334 . S
C719 H696 0.950 . S
C719 C718 1.334 . S
C719 C720 1.287 . S
C720 C719 1.287 . S
C720 C721 1.524 . S
C720 H739 0.913 . S
C721 H697 0.950 . S
C721 C720 1.524 . S
C721 C722 1.415 . S
C722 H698 0.950 . S
C722 C717 1.363 . S
C722 C721 1.415 . S
C723 H699 0.951 . S
C723 C724 1.366 . S
C723 C725 1.388 . S
C724 C723 1.366 . S
C724 C728 1.385 . S
C725 H700 0.951 . S
C725 C723 1.388 . S
C725 C726 1.366 . S
C726 C725 1.366 . S
C726 C727 1.414 . S
C726 C729 1.499 . S
C727 H701 0.950 . S
C727 C726 1.414 . S
C727 C728 1.374 . S
C728 H702 0.950 . S
C728 C724 1.385 . S
C728 C727 1.374 . S
C729 C726 1.499 . S
C729 C730 1.373 . S
C729 C731 1.389 . S
C730 H703 0.950 . S
C730 C716 1.377 . S
C730 C729 1.373 . S
C731 C715 1.377 . S
C731 C729 1.389 . S
C731 C732 1.524 . S
C732 C731 1.524 . S
C732 C733 1.397 . S
C732 C737 1.363 . S
C733 H704 0.950 . S
C733 C732 1.397 . S
C733 C734 1.334 . S
C734 H705 0.950 . S
C734 C733 1.334 . S
C734 C735 1.287 . S
C735 C734 1.287 . S
C735 C736 1.524 . S
C735 H738 0.999 . S
C736 H706 0.950 . S
C736 C735 1.524 . S
C736 C737 1.415 . S
C737 H707 0.950 . S
C737 C732 1.363 . S
C737 C736 1.415 . S
H738 C735 0.999 . S
H739 C720 0.913 . S
H740 C758 0.951 . S
H741 C760 0.951 . S
H742 C762 0.950 . S
H743 C763 0.950 . S
H744 C765 0.950 . S
H745 C768 0.950 . S
H746 C769 0.950 . S
H747 C771 0.950 . S
H748 C772 0.950 . S
H749 C773 0.951 . S
H750 C775 0.951 . S
H751 C777 0.950 . S
H752 C778 0.950 . S
H753 C780 0.950 . S
H754 C783 0.950 . S
H755 C784 0.950 . S
H756 C786 0.950 . S
H757 C787 0.950 . S
C758 H740 0.951 . S
C758 C759 1.366 . S
C758 C760 1.388 . S
C759 C758 1.366 . S
C759 C763 1.385 . S
C760 H741 0.951 . S
C760 C758 1.388 . S
C760 C761 1.366 . S
C761 C760 1.366 . S
C761 C762 1.414 . S
C761 C764 1.499 . S
C762 H742 0.950 . S
C762 C761 1.414 . S
C762 C763 1.374 . S
C763 H743 0.950 . S
C763 C759 1.385 . S
C763 C762 1.374 . S
C764 C761 1.499 . S
C764 C765 1.373 . S
C764 C766 1.389 . S
C765 H744 0.950 . S
C765 C764 1.373 . S
C765 C781 1.377 . S
C766 C764 1.389 . S
C766 C767 1.524 . S
C766 C780 1.377 . S
C767 C766 1.524 . S
C767 C768 1.397 . S
C767 C772 1.363 . S
C768 H745 0.950 . S
C768 C767 1.397 . S
C768 C769 1.334 . S
C769 H746 0.950 . S
C769 C768 1.334 . S
C769 C770 1.287 . S
C770 C769 1.287 . S
C770 C771 1.524 . S
C770 H789 0.913 . S
C771 H747 0.950 . S
C771 C770 1.524 . S
C771 C772 1.415 . S
C772 H748 0.950 . S
C772 C767 1.363 . S
C772 C771 1.415 . S
C773 H749 0.951 . S
C773 C774 1.366 1_556 S
C773 C775 1.388 . S
C774 C773 1.366 1_554 S
C774 C778 1.385 . S
C775 H750 0.951 . S
C775 C773 1.388 . S
C775 C776 1.366 . S
C776 C775 1.366 . S
C776 C777 1.414 . S
C776 C779 1.499 . S
C777 H751 0.950 . S
C777 C776 1.414 . S
C777 C778 1.374 1_556 S
C778 H752 0.950 . S
C778 C774 1.385 . S
C778 C777 1.374 1_554 S
C779 C776 1.499 . S
C779 C780 1.373 . S
C779 C781 1.389 . S
C780 H753 0.950 . S
C780 C766 1.377 . S
C780 C779 1.373 . S
C781 C765 1.377 . S
C781 C779 1.389 . S
C781 C782 1.524 . S
C782 C781 1.524 . S
C782 C783 1.397 . S
C782 C787 1.363 . S
C783 H754 0.950 . S
C783 C782 1.397 . S
C783 C784 1.334 . S
C784 H755 0.950 . S
C784 C783 1.334 . S
C784 C785 1.287 . S
C785 C784 1.287 . S
C785 C786 1.524 . S
C785 H788 0.999 . S
C786 H756 0.950 . S
C786 C785 1.524 . S
C786 C787 1.415 . S
C787 H757 0.950 . S
C787 C782 1.363 . S
C787 C786 1.415 . S
H788 C785 0.999 . S
H789 C770 0.913 . S
H790 C808 0.951 . S
H791 C810 0.951 . S
H792 C812 0.950 . S
H793 C813 0.950 . S
H794 C815 0.950 . S
H795 C818 0.950 . S
H796 C819 0.950 . S
H797 C821 0.950 . S
H798 C822 0.950 . S
H799 C823 0.951 . S
H800 C825 0.951 . S
H801 C827 0.950 . S
H802 C828 0.950 . S
H803 C830 0.950 . S
H804 C833 0.950 . S
H805 C834 0.950 . S
H806 C836 0.950 . S
H807 C837 0.950 . S
C808 H790 0.951 . S
C808 C809 1.366 . S
C808 C810 1.388 . S
C809 C808 1.366 . S
C809 C813 1.385 . S
C810 H791 0.951 . S
C810 C808 1.388 . S
C810 C811 1.366 . S
C811 C810 1.366 . S
C811 C812 1.414 . S
C811 C814 1.499 . S
C812 H792 0.950 . S
C812 C811 1.414 . S
C812 C813 1.374 . S
C813 H793 0.950 . S
C813 C809 1.385 . S
C813 C812 1.374 . S
C814 C811 1.499 . S
C814 C815 1.373 . S
C814 C816 1.389 . S
C815 H794 0.950 . S
C815 C814 1.373 . S
C815 C831 1.377 . S
C816 C814 1.389 . S
C816 C817 1.524 . S
C816 C830 1.377 . S
C817 C816 1.524 . S
C817 C818 1.397 . S
C817 C822 1.363 . S
C818 H795 0.950 . S
C818 C817 1.397 . S
C818 C819 1.334 . S
C819 H796 0.950 . S
C819 C818 1.334 . S
C819 C820 1.287 . S
C820 C819 1.287 . S
C820 C821 1.524 . S
C820 H839 0.913 . S
C821 H797 0.950 . S
C821 C820 1.524 . S
C821 C822 1.415 . S
C822 H798 0.950 . S
C822 C817 1.363 . S
C822 C821 1.415 . S
C823 H799 0.951 . S
C823 C824 1.366 1_554 S
C823 C825 1.388 . S
C824 C823 1.366 1_556 S
C824 C828 1.385 . S
C825 H800 0.951 . S
C825 C823 1.388 . S
C825 C826 1.366 . S
C826 C825 1.366 . S
C826 C827 1.414 . S
C826 C829 1.499 . S
C827 H801 0.950 . S
C827 C826 1.414 . S
C827 C828 1.374 1_554 S
C828 H802 0.950 . S
C828 C824 1.385 . S
C828 C827 1.374 1_556 S
C829 C826 1.499 . S
C829 C830 1.373 . S
C829 C831 1.389 . S
C830 H803 0.950 . S
C830 C816 1.377 . S
C830 C829 1.373 . S
C831 C815 1.377 . S
C831 C829 1.389 . S
C831 C832 1.524 . S
C832 C831 1.524 . S
C832 C833 1.397 . S
C832 C837 1.363 . S
C833 H804 0.950 . S
C833 C832 1.397 . S
C833 C834 1.334 . S
C834 H805 0.950 . S
C834 C833 1.334 . S
C834 C835 1.287 . S
C835 C834 1.287 . S
C835 C836 1.524 . S
C835 H838 0.999 . S
C836 H806 0.950 . S
C836 C835 1.524 . S
C836 C837 1.415 . S
C837 H807 0.950 . S
C837 C832 1.363 . S
C837 C836 1.415 . S
H838 C835 0.999 . S
H839 C820 0.913 . S
H840 C858 0.951 . S
H841 C860 0.951 . S
H842 C862 0.950 . S
H843 C863 0.950 . S
H844 C865 0.950 . S
H845 C868 0.950 . S
H846 C869 0.950 . S
H847 C871 0.950 . S
H848 C872 0.950 . S
H849 C873 0.951 . S
H850 C875 0.951 . S
H851 C877 0.950 . S
H852 C878 0.950 . S
H853 C880 0.950 . S
H854 C883 0.950 . S
H855 C884 0.950 . S
H856 C886 0.950 . S
H857 C887 0.950 . S
C858 H840 0.951 . S
C858 C859 1.366 . S
C858 C860 1.388 . S
C859 C858 1.366 . S
C859 C863 1.385 . S
C860 H841 0.951 . S
C860 C858 1.388 . S
C860 C861 1.366 . S
C861 C860 1.366 . S
C861 C862 1.414 . S
C861 C864 1.499 . S
C862 H842 0.950 . S
C862 C861 1.414 . S
C862 C863 1.374 . S
C863 H843 0.950 . S
C863 C859 1.385 . S
C863 C862 1.374 . S
C864 C861 1.499 . S
C864 C865 1.373 . S
C864 C866 1.389 . S
C865 H844 0.950 . S
C865 C864 1.373 . S
C865 C881 1.377 . S
C866 C864 1.389 . S
C866 C867 1.524 . S
C866 C880 1.377 . S
C867 C866 1.524 . S
C867 C868 1.397 . S
C867 C872 1.363 . S
C868 H845 0.950 . S
C868 C867 1.397 . S
C868 C869 1.334 . S
C869 H846 0.950 . S
C869 C868 1.334 . S
C869 C870 1.287 . S
C870 C869 1.287 . S
C870 C871 1.524 . S
C870 H889 0.913 . S
C871 H847 0.950 . S
C871 C870 1.524 . S
C871 C872 1.415 . S
C872 H848 0.950 . S
C872 C867 1.363 . S
C872 C871 1.415 . S
C873 H849 0.951 . S
C873 C874 1.366 . S
C873 C875 1.388 . S
C874 C873 1.366 . S
C874 C878 1.385 . S
C875 H850 0.951 . S
C875 C873 1.388 . S
C875 C876 1.366 . S
C876 C875 1.366 . S
C876 C877 1.414 . S
C876 C879 1.499 . S
C877 H851 0.950 . S
C877 C876 1.414 . S
C877 C878 1.374 . S
C878 H852 0.950 . S
C878 C874 1.385 . S
C878 C877 1.374 . S
C879 C876 1.499 . S
C879 C880 1.373 . S
C879 C881 1.389 . S
C880 H853 0.950 . S
C880 C866 1.377 . S
C880 C879 1.373 . S
C881 C865 1.377 . S
C881 C879 1.389 . S
C881 C882 1.524 . S
C882 C881 1.524 . S
C882 C883 1.397 . S
C882 C887 1.363 . S
C883 H854 0.950 . S
C883 C882 1.397 . S
C883 C884 1.334 . S
C884 H855 0.950 . S
C884 C883 1.334 . S
C884 C885 1.287 . S
C885 C884 1.287 . S
C885 C886 1.524 . S
C885 H888 0.999 . S
C886 H856 0.950 . S
C886 C885 1.524 . S
C886 C887 1.415 . S
C887 H857 0.950 . S
C887 C882 1.363 . S
C887 C886 1.415 . S
H888 C885 0.999 . S
H889 C870 0.913 . S
H890 C908 0.951 . S
H891 C910 0.951 . S
H892 C912 0.950 . S
H893 C913 0.950 . S
H894 C915 0.950 . S
H895 C918 0.950 . S
H896 C919 0.950 . S
H897 C921 0.950 . S
H898 C922 0.950 . S
H899 C923 0.951 . S
H900 C925 0.951 . S
H901 C927 0.950 . S
H902 C928 0.950 . S
H903 C930 0.950 . S
H904 C933 0.950 . S
H905 C934 0.950 . S
H906 C936 0.950 . S
H907 C937 0.950 . S
C908 H890 0.951 . S
C908 C909 1.366 . S
C908 C910 1.388 . S
C909 C908 1.366 . S
C909 C913 1.385 . S
C910 H891 0.951 . S
C910 C908 1.388 . S
C910 C911 1.366 . S
C911 C910 1.366 . S
C911 C912 1.414 . S
C911 C914 1.499 . S
C912 H892 0.950 . S
C912 C911 1.414 . S
C912 C913 1.374 . S
C913 H893 0.950 . S
C913 C909 1.385 . S
C913 C912 1.374 . S
C914 C911 1.499 . S
C914 C915 1.373 . S
C914 C916 1.389 . S
C915 H894 0.950 . S
C915 C914 1.373 . S
C915 C931 1.377 . S
C916 C914 1.389 . S
C916 C917 1.524 . S
C916 C930 1.377 . S
C917 C916 1.524 . S
C917 C918 1.397 . S
C917 C922 1.363 . S
C918 H895 0.950 . S
C918 C917 1.397 . S
C918 C919 1.334 . S
C919 H896 0.950 . S
C919 C918 1.334 . S
C919 C920 1.287 . S
C920 C919 1.287 . S
C920 C921 1.524 . S
C920 H939 0.913 . S
C921 H897 0.950 . S
C921 C920 1.524 . S
C921 C922 1.415 . S
C922 H898 0.950 . S
C922 C917 1.363 . S
C922 C921 1.415 . S
C923 H899 0.951 . S
C923 C924 1.366 . S
C923 C925 1.388 . S
C924 C923 1.366 . S
C924 C928 1.385 . S
C925 H900 0.951 . S
C925 C923 1.388 . S
C925 C926 1.366 . S
C926 C925 1.366 . S
C926 C927 1.414 . S
C926 C929 1.499 . S
C927 H901 0.950 . S
C927 C926 1.414 . S
C927 C928 1.374 . S
C928 H902 0.950 . S
C928 C924 1.385 . S
C928 C927 1.374 . S
C929 C926 1.499 . S
C929 C930 1.373 . S
C929 C931 1.389 . S
C930 H903 0.950 . S
C930 C916 1.377 . S
C930 C929 1.373 . S
C931 C915 1.377 . S
C931 C929 1.389 . S
C931 C932 1.524 . S
C932 C931 1.524 . S
C932 C933 1.397 . S
C932 C937 1.363 . S
C933 H904 0.950 . S
C933 C932 1.397 . S
C933 C934 1.334 . S
C934 H905 0.950 . S
C934 C933 1.334 . S
C934 C935 1.287 . S
C935 C934 1.287 . S
C935 C936 1.524 . S
C935 H938 0.999 . S
C936 H906 0.950 . S
C936 C935 1.524 . S
C936 C937 1.415 . S
C937 H907 0.950 . S
C937 C932 1.363 . S
C937 C936 1.415 . S
H938 C935 0.999 . S
H939 C920 0.913 . S
H940 C958 0.951 . S
H941 C960 0.951 . S
H942 C962 0.950 . S
H943 C963 0.950 . S
H944 C965 0.950 . S
H945 C968 0.950 . S
H946 C969 0.950 . S
H947 C971 0.950 . S
H948 C972 0.950 . S
H949 C973 0.951 . S
H950 C975 0.951 . S
H951 C977 0.950 . S
H952 C978 0.950 . S
H953 C980 0.950 . S
H954 C983 0.950 . S
H955 C984 0.950 . S
H956 C986 0.950 . S
H957 C987 0.950 . S
C958 H940 0.951 . S
C958 C959 1.366 . S
C958 C960 1.388 . S
C959 C958 1.366 . S
C959 C963 1.385 . S
C960 H941 0.951 . S
C960 C958 1.388 . S
C960 C961 1.366 . S
C961 C960 1.366 . S
C961 C962 1.414 . S
C961 C964 1.499 . S
C962 H942 0.950 . S
C962 C961 1.414 . S
C962 C963 1.374 . S
C963 H943 0.950 . S
C963 C959 1.385 . S
C963 C962 1.374 . S
C964 C961 1.499 . S
C964 C965 1.373 . S
C964 C966 1.389 . S
C965 H944 0.950 . S
C965 C964 1.373 . S
C965 C981 1.377 . S
C966 C964 1.389 . S
C966 C967 1.524 . S
C966 C980 1.377 . S
C967 C966 1.524 . S
C967 C968 1.397 . S
C967 C972 1.363 . S
C968 H945 0.950 . S
C968 C967 1.397 . S
C968 C969 1.334 . S
C969 H946 0.950 . S
C969 C968 1.334 . S
C969 C970 1.287 . S
C970 C969 1.287 . S
C970 C971 1.524 . S
C970 H989 0.913 . S
C971 H947 0.950 . S
C971 C970 1.524 . S
C971 C972 1.415 . S
C972 H948 0.950 . S
C972 C967 1.363 . S
C972 C971 1.415 . S
C973 H949 0.951 . S
C973 C974 1.366 . S
C973 C975 1.388 . S
C974 C973 1.366 . S
C974 C978 1.385 . S
C975 H950 0.951 . S
C975 C973 1.388 . S
C975 C976 1.366 . S
C976 C975 1.366 . S
C976 C977 1.414 . S
C976 C979 1.499 . S
C977 H951 0.950 . S
C977 C976 1.414 . S
C977 C978 1.374 . S
C978 H952 0.950 . S
C978 C974 1.385 . S
C978 C977 1.374 . S
C979 C976 1.499 . S
C979 C980 1.373 . S
C979 C981 1.389 . S
C980 H953 0.950 . S
C980 C966 1.377 . S
C980 C979 1.373 . S
C981 C965 1.377 . S
C981 C979 1.389 . S
C981 C982 1.524 . S
C982 C981 1.524 . S
C982 C983 1.397 . S
C982 C987 1.363 . S
C983 H954 0.950 . S
C983 C982 1.397 . S
C983 C984 1.334 . S
C984 H955 0.950 . S
C984 C983 1.334 . S
C984 C985 1.287 . S
C985 C984 1.287 . S
C985 C986 1.524 . S
C985 H988 0.999 . S
C986 H956 0.950 . S
C986 C985 1.524 . S
C986 C987 1.415 . S
C987 H957 0.950 . S
C987 C982 1.363 . S
C987 C986 1.415 . S
H988 C985 0.999 . S
H989 C970 0.913 . S
H990 C1008 0.951 . S
H991 C1010 0.951 . S
H992 C1012 0.950 . S
H993 C1013 0.950 . S
H994 C1015 0.950 . S
H995 C1018 0.950 . S
H996 C1019 0.950 . S
H997 C1021 0.950 . S
H998 C1022 0.950 . S
H999 C1023 0.951 . S
H1000 C1025 0.951 . S
H1001 C1027 0.950 . S
H1002 C1028 0.950 . S
H1003 C1030 0.950 . S
H1004 C1033 0.950 . S
H1005 C1034 0.950 . S
H1006 C1036 0.950 . S
H1007 C1037 0.950 . S
C1008 H990 0.951 . S
C1008 C1009 1.366 . S
C1008 C1010 1.388 . S
C1009 C1008 1.366 . S
C1009 C1013 1.385 . S
C1010 H991 0.951 . S
C1010 C1008 1.388 . S
C1010 C1011 1.366 . S
C1011 C1010 1.366 . S
C1011 C1012 1.414 . S
C1011 C1014 1.499 . S
C1012 H992 0.950 . S
C1012 C1011 1.414 . S
C1012 C1013 1.374 . S
C1013 H993 0.950 . S
C1013 C1009 1.385 . S
C1013 C1012 1.374 . S
C1014 C1011 1.499 . S
C1014 C1015 1.373 . S
C1014 C1016 1.389 . S
C1015 H994 0.950 . S
C1015 C1014 1.373 . S
C1015 C1031 1.377 . S
C1016 C1014 1.389 . S
C1016 C1017 1.524 . S
C1016 C1030 1.377 . S
C1017 C1016 1.524 . S
C1017 C1018 1.397 . S
C1017 C1022 1.363 . S
C1018 H995 0.950 . S
C1018 C1017 1.397 . S
C1018 C1019 1.334 . S
C1019 H996 0.950 . S
C1019 C1018 1.334 . S
C1019 C1020 1.287 . S
C1020 C1019 1.287 . S
C1020 C1021 1.524 . S
C1020 H1039 0.913 . S
C1021 H997 0.950 . S
C1021 C1020 1.524 . S
C1021 C1022 1.415 . S
C1022 H998 0.950 . S
C1022 C1017 1.363 . S
C1022 C1021 1.415 . S
C1023 H999 0.951 . S
C1023 C1024 1.366 . S
C1023 C1025 1.388 . S
C1024 C1023 1.366 . S
C1024 C1028 1.385 . S
C1025 H1000 0.951 . S
C1025 C1023 1.388 . S
C1025 C1026 1.366 . S
C1026 C1025 1.366 . S
C1026 C1027 1.414 . S
C1026 C1029 1.499 . S
C1027 H1001 0.950 . S
C1027 C1026 1.414 . S
C1027 C1028 1.374 . S
C1028 H1002 0.950 . S
C1028 C1024 1.385 . S
C1028 C1027 1.374 . S
C1029 C1026 1.499 . S
C1029 C1030 1.373 . S
C1029 C1031 1.389 . S
C1030 H1003 0.950 . S
C1030 C1016 1.377 . S
C1030 C1029 1.373 . S
C1031 C1015 1.377 . S
C1031 C1029 1.389 . S
C1031 C1032 1.524 . S
C1032 C1031 1.524 . S
C1032 C1033 1.397 . S
C1032 C1037 1.363 . S
C1033 H1004 0.950 . S
C1033 C1032 1.397 . S
C1033 C1034 1.334 . S
C1034 H1005 0.950 . S
C1034 C1033 1.334 . S
C1034 C1035 1.287 . S
C1035 C1034 1.287 . S
C1035 C1036 1.524 . S
C1035 H1038 0.999 . S
C1036 H1006 0.950 . S
C1036 C1035 1.524 . S
C1036 C1037 1.415 . S
C1037 H1007 0.950 . S
C1037 C1032 1.363 . S
C1037 C1036 1.415 . S
H1038 C1035 0.999 . S
H1039 C1020 0.913 . S
H1040 C1058 0.951 . S
H1041 C1060 0.951 . S
H1042 C1062 0.950 . S
H1043 C1063 0.950 . S
H1044 C1065 0.950 . S
H1045 C1068 0.950 . S
H1046 C1069 0.950 . S
H1047 C1071 0.950 . S
H1048 C1072 0.950 . S
H1049 C1073 0.951 . S
H1050 C1075 0.951 . S
H1051 C1077 0.950 . S
H1052 C1078 0.950 . S
H1053 C1080 0.950 . S
H1054 C1083 0.950 . S
H1055 C1084 0.950 . S
H1056 C1086 0.950 . S
H1057 C1087 0.950 . S
C1058 H1040 0.951 . S
C1058 C1059 1.366 . S
C1058 C1060 1.388 . S
C1059 C1058 1.366 . S
C1059 C1063 1.385 . S
C1060 H1041 0.951 . S
C1060 C1058 1.388 . S
C1060 C1061 1.366 . S
C1061 C1060 1.366 . S
C1061 C1062 1.414 . S
C1061 C1064 1.499 . S
C1062 H1042 0.950 . S
C1062 C1061 1.414 . S
C1062 C1063 1.374 . S
C1063 H1043 0.950 . S
C1063 C1059 1.385 . S
C1063 C1062 1.374 . S
C1064 C1061 1.499 . S
C1064 C1065 1.373 . S
C1064 C1066 1.389 . S
C1065 H1044 0.950 . S
C1065 C1064 1.373 . S
C1065 C1081 1.377 . S
C1066 C1064 1.389 . S
C1066 C1067 1.524 . S
C1066 C1080 1.377 . S
C1067 C1066 1.524 . S
C1067 C1068 1.397 . S
C1067 C1072 1.363 . S
C1068 H1045 0.950 . S
C1068 C1067 1.397 . S
C1068 C1069 1.334 . S
C1069 H1046 0.950 . S
C1069 C1068 1.334 . S
C1069 C1070 1.287 . S
C1070 C1069 1.287 . S
C1070 C1071 1.524 . S
C1070 H1089 0.913 . S
C1071 H1047 0.950 . S
C1071 C1070 1.524 . S
C1071 C1072 1.415 . S
C1072 H1048 0.950 . S
C1072 C1067 1.363 . S
C1072 C1071 1.415 . S
C1073 H1049 0.951 . S
C1073 C1074 1.366 . S
C1073 C1075 1.388 . S
C1074 C1073 1.366 . S
C1074 C1078 1.385 . S
C1075 H1050 0.951 . S
C1075 C1073 1.388 . S
C1075 C1076 1.366 . S
C1076 C1075 1.366 . S
C1076 C1077 1.414 . S
C1076 C1079 1.499 . S
C1077 H1051 0.950 . S
C1077 C1076 1.414 . S
C1077 C1078 1.374 . S
C1078 H1052 0.950 . S
C1078 C1074 1.385 . S
C1078 C1077 1.374 . S
C1079 C1076 1.499 . S
C1079 C1080 1.373 . S
C1079 C1081 1.389 . S
C1080 H1053 0.950 . S
C1080 C1066 1.377 . S
C1080 C1079 1.373 . S
C1081 C1065 1.377 . S
C1081 C1079 1.389 . S
C1081 C1082 1.524 . S
C1082 C1081 1.524 . S
C1082 C1083 1.397 . S
C1082 C1087 1.363 . S
C1083 H1054 0.950 . S
C1083 C1082 1.397 . S
C1083 C1084 1.334 . S
C1084 H1055 0.950 . S
C1084 C1083 1.334 . S
C1084 C1085 1.287 . S
C1085 C1084 1.287 . S
C1085 C1086 1.524 . S
C1085 H1088 0.999 . S
C1086 H1056 0.950 . S
C1086 C1085 1.524 . S
C1086 C1087 1.415 . S
C1087 H1057 0.950 . S
C1087 C1082 1.363 . S
C1087 C1086 1.415 . S
H1088 C1085 0.999 . S
H1089 C1070 0.913 . S
H1090 C1108 0.951 . S
H1091 C1110 0.951 . S
H1092 C1112 0.950 . S
H1093 C1113 0.950 . S
H1094 C1115 0.950 . S
H1095 C1118 0.950 . S
H1096 C1119 0.950 . S
H1097 C1121 0.950 . S
H1098 C1122 0.950 . S
H1099 C1123 0.951 . S
H1100 C1125 0.951 . S
H1101 C1127 0.950 . S
H1102 C1128 0.950 . S
H1103 C1130 0.950 . S
H1104 C1133 0.950 . S
H1105 C1134 0.950 . S
H1106 C1136 0.950 . S
H1107 C1137 0.950 . S
C1108 H1090 0.951 . S
C1108 C1109 1.366 . S
C1108 C1110 1.388 . S
C1109 C1108 1.366 . S
C1109 C1113 1.385 . S
C1110 H1091 0.951 . S
C1110 C1108 1.388 . S
C1110 C1111 1.366 . S
C1111 C1110 1.366 . S
C1111 C1112 1.414 . S
C1111 C1114 1.499 . S
C1112 H1092 0.950 . S
C1112 C1111 1.414 . S
C1112 C1113 1.374 . S
C1113 H1093 0.950 . S
C1113 C1109 1.385 . S
C1113 C1112 1.374 . S
C1114 C1111 1.499 . S
C1114 C1115 1.373 . S
C1114 C1116 1.389 . S
C1115 H1094 0.950 . S
C1115 C1114 1.373 . S
C1115 C1131 1.377 . S
C1116 C1114 1.389 . S
C1116 C1117 1.524 . S
C1116 C1130 1.377 . S
C1117 C1116 1.524 . S
C1117 C1118 1.397 . S
C1117 C1122 1.363 . S
C1118 H1095 0.950 . S
C1118 C1117 1.397 . S
C1118 C1119 1.334 . S
C1119 H1096 0.950 . S
C1119 C1118 1.334 . S
C1119 C1120 1.287 . S
C1120 C1119 1.287 . S
C1120 C1121 1.524 . S
C1120 H1139 0.913 . S
C1121 H1097 0.950 . S
C1121 C1120 1.524 . S
C1121 C1122 1.415 . S
C1122 H1098 0.950 . S
C1122 C1117 1.363 . S
C1122 C1121 1.415 . S
C1123 H1099 0.951 . S
C1123 C1124 1.366 . S
C1123 C1125 1.388 . S
C1124 C1123 1.366 . S
C1124 C1128 1.385 . S
C1125 H1100 0.951 . S
C1125 C1123 1.388 . S
C1125 C1126 1.366 . S
C1126 C1125 1.366 . S
C1126 C1127 1.414 . S
C1126 C1129 1.499 . S
C1127 H1101 0.950 . S
C1127 C1126 1.414 . S
C1127 C1128 1.374 . S
C1128 H1102 0.950 . S
C1128 C1124 1.385 . S
C1128 C1127 1.374 . S
C1129 C1126 1.499 . S
C1129 C1130 1.373 . S
C1129 C1131 1.389 . S
C1130 H1103 0.950 . S
C1130 C1116 1.377 . S
C1130 C1129 1.373 . S
C1131 C1115 1.377 . S
C1131 C1129 1.389 . S
C1131 C1132 1.524 . S
C1132 C1131 1.524 . S
C1132 C1133 1.397 . S
C1132 C1137 1.363 . S
C1133 H1104 0.950 . S
C1133 C1132 1.397 . S
C1133 C1134 1.334 . S
C1134 H1105 0.950 . S
C1134 C1133 1.334 . S
C1134 C1135 1.287 . S
C1135 C1134 1.287 . S
C1135 C1136 1.524 . S
C1135 H1138 0.999 . S
C1136 H1106 0.950 . S
C1136 C1135 1.524 . S
C1136 C1137 1.415 . S
C1137 H1107 0.950 . S
C1137 C1132 1.363 . S
C1137 C1136 1.415 . S
H1138 C1135 0.999 . S
H1139 C1120 0.913 . S
C259 C209 1.230 . S
C274 C10 1.287 . S
C309 C9 1.229 . S
C324 C50 1.287 . S
C359 C49 1.228 . S
C374 C90 1.287 . S
C409 C89 1.229 . S
C424 C130 1.287 . S
C459 C170 1.286 . S
C474 C129 1.229 . S
C509 C210 1.287 . S
C524 C169 1.229 . S
C559 C6 1.280 . S
C574 C15 1.280 . S
C609 C46 1.279 . S
C624 C55 1.279 . S
C659 C86 1.279 . S
C674 C95 1.279 . S
C709 C126 1.280 . S
C724 C135 1.280 . S
C759 C175 1.279 . S
C774 C166 1.279 . S
C809 C206 1.279 . S
C824 C215 1.279 . S
C859 C19 1.663 . S
C874 C178 1.676 . S
C909 C59 1.663 . S
C924 C218 1.676 . S
C959 C18 1.675 . S
C974 C99 1.663 . S
C1009 C58 1.676 . S
C1024 C139 1.663 . S
C1059 C179 1.664 . S
C1074 C98 1.676 . S
C1109 C138 1.675 . S
C1124 C219 1.663 . S
