# Generated by pormake.
# Topology cha, (4)-cn, num edge types: 1
# Building blocks:
#     Node 0, Type 0, BuildingBlock: GALJAG_clean_sbu_0, # of connection points: 4
#     Node 1, Type 0, BuildingBlock: GALJAG_clean_sbu_0, # of connection points: 4
#     Node 2, Type 0, BuildingBlock: GALJAG_clean_sbu_0, # of connection points: 4
#     Node 3, Type 0, BuildingBlock: GALJAG_clean_sbu_0, # of connection points: 4
#     Node 4, Type 0, BuildingBlock: GALJAG_clean_sbu_0, # of connection points: 4
#     Node 5, Type 0, BuildingBlock: GALJAG_clean_sbu_0, # of connection points: 4
#     Node 6, Type 0, BuildingBlock: GALJAG_clean_sbu_0, # of connection points: 4
#     Node 7, Type 0, BuildingBlock: GALJAG_clean_sbu_0, # of connection points: 4
#     Node 8, Type 0, BuildingBlock: GALJAG_clean_sbu_0, # of connection points: 4
#     Node 9, Type 0, BuildingBlock: GALJAG_clean_sbu_0, # of connection points: 4
#     Node 10, Type 0, BuildingBlock: GALJAG_clean_sbu_0, # of connection points: 4
#     Node 11, Type 0, BuildingBlock: GALJAG_clean_sbu_0, # of connection points: 4
#     Node 12, Type 0, BuildingBlock: GALJAG_clean_sbu_0, # of connection points: 4
#     Node 13, Type 0, BuildingBlock: GALJAG_clean_sbu_0, # of connection points: 4
#     Node 14, Type 0, BuildingBlock: GALJAG_clean_sbu_0, # of connection points: 4
#     Node 15, Type 0, BuildingBlock: GALJAG_clean_sbu_0, # of connection points: 4
#     Node 16, Type 0, BuildingBlock: GALJAG_clean_sbu_0, # of connection points: 4
#     Node 17, Type 0, BuildingBlock: GALJAG_clean_sbu_0, # of connection points: 4
#     Node 18, Type 0, BuildingBlock: GALJAG_clean_sbu_0, # of connection points: 4
#     Node 19, Type 0, BuildingBlock: GALJAG_clean_sbu_0, # of connection points: 4
#     Node 20, Type 0, BuildingBlock: GALJAG_clean_sbu_0, # of connection points: 4
#     Node 21, Type 0, BuildingBlock: GALJAG_clean_sbu_0, # of connection points: 4
#     Node 22, Type 0, BuildingBlock: GALJAG_clean_sbu_0, # of connection points: 4
#     Node 23, Type 0, BuildingBlock: GALJAG_clean_sbu_0, # of connection points: 4
#     Node 24, Type 0, BuildingBlock: GALJAG_clean_sbu_0, # of connection points: 4
#     Node 25, Type 0, BuildingBlock: GALJAG_clean_sbu_0, # of connection points: 4
#     Node 26, Type 0, BuildingBlock: GALJAG_clean_sbu_0, # of connection points: 4
#     Node 27, Type 0, BuildingBlock: GALJAG_clean_sbu_0, # of connection points: 4
#     Node 28, Type 0, BuildingBlock: GALJAG_clean_sbu_0, # of connection points: 4
#     Node 29, Type 0, BuildingBlock: GALJAG_clean_sbu_0, # of connection points: 4
#     Node 30, Type 0, BuildingBlock: GALJAG_clean_sbu_0, # of connection points: 4
#     Node 31, Type 0, BuildingBlock: GALJAG_clean_sbu_0, # of connection points: 4
#     Node 32, Type 0, BuildingBlock: GALJAG_clean_sbu_0, # of connection points: 4
#     Node 33, Type 0, BuildingBlock: GALJAG_clean_sbu_0, # of connection points: 4
#     Node 34, Type 0, BuildingBlock: GALJAG_clean_sbu_0, # of connection points: 4
#     Node 35, Type 0, BuildingBlock: GALJAG_clean_sbu_0, # of connection points: 4
#     Edge 36, Type (0, 0), BuildingBlock: XUDNAN_clean_linker_2, # of connection points: 2
#     Edge 37, Type (0, 0), BuildingBlock: XUDNAN_clean_linker_2, # of connection points: 2
#     Edge 38, Type (0, 0), BuildingBlock: XUDNAN_clean_linker_2, # of connection points: 2
#     Edge 39, Type (0, 0), BuildingBlock: XUDNAN_clean_linker_2, # of connection points: 2
#     Edge 40, Type (0, 0), BuildingBlock: XUDNAN_clean_linker_2, # of connection points: 2
#     Edge 41, Type (0, 0), BuildingBlock: XUDNAN_clean_linker_2, # of connection points: 2
#     Edge 42, Type (0, 0), BuildingBlock: XUDNAN_clean_linker_2, # of connection points: 2
#     Edge 43, Type (0, 0), BuildingBlock: XUDNAN_clean_linker_2, # of connection points: 2
#     Edge 44, Type (0, 0), BuildingBlock: XUDNAN_clean_linker_2, # of connection points: 2
#     Edge 45, Type (0, 0), BuildingBlock: XUDNAN_clean_linker_2, # of connection points: 2
#     Edge 46, Type (0, 0), BuildingBlock: XUDNAN_clean_linker_2, # of connection points: 2
#     Edge 47, Type (0, 0), BuildingBlock: XUDNAN_clean_linker_2, # of connection points: 2
#     Edge 48, Type (0, 0), BuildingBlock: XUDNAN_clean_linker_2, # of connection points: 2
#     Edge 49, Type (0, 0), BuildingBlock: XUDNAN_clean_linker_2, # of connection points: 2
#     Edge 50, Type (0, 0), BuildingBlock: XUDNAN_clean_linker_2, # of connection points: 2
#     Edge 51, Type (0, 0), BuildingBlock: XUDNAN_clean_linker_2, # of connection points: 2
#     Edge 52, Type (0, 0), BuildingBlock: XUDNAN_clean_linker_2, # of connection points: 2
#     Edge 53, Type (0, 0), BuildingBlock: XUDNAN_clean_linker_2, # of connection points: 2
#     Edge 54, Type (0, 0), BuildingBlock: XUDNAN_clean_linker_2, # of connection points: 2
#     Edge 55, Type (0, 0), BuildingBlock: XUDNAN_clean_linker_2, # of connection points: 2
#     Edge 56, Type (0, 0), BuildingBlock: XUDNAN_clean_linker_2, # of connection points: 2
#     Edge 57, Type (0, 0), BuildingBlock: XUDNAN_clean_linker_2, # of connection points: 2
#     Edge 58, Type (0, 0), BuildingBlock: XUDNAN_clean_linker_2, # of connection points: 2
#     Edge 59, Type (0, 0), BuildingBlock: XUDNAN_clean_linker_2, # of connection points: 2
#     Edge 60, Type (0, 0), BuildingBlock: XUDNAN_clean_linker_2, # of connection points: 2
#     Edge 61, Type (0, 0), BuildingBlock: XUDNAN_clean_linker_2, # of connection points: 2
#     Edge 62, Type (0, 0), BuildingBlock: XUDNAN_clean_linker_2, # of connection points: 2
#     Edge 63, Type (0, 0), BuildingBlock: XUDNAN_clean_linker_2, # of connection points: 2
#     Edge 64, Type (0, 0), BuildingBlock: XUDNAN_clean_linker_2, # of connection points: 2
#     Edge 65, Type (0, 0), BuildingBlock: XUDNAN_clean_linker_2, # of connection points: 2
#     Edge 66, Type (0, 0), BuildingBlock: XUDNAN_clean_linker_2, # of connection points: 2
#     Edge 67, Type (0, 0), BuildingBlock: XUDNAN_clean_linker_2, # of connection points: 2
#     Edge 68, Type (0, 0), BuildingBlock: XUDNAN_clean_linker_2, # of connection points: 2
#     Edge 69, Type (0, 0), BuildingBlock: XUDNAN_clean_linker_2, # of connection points: 2
#     Edge 70, Type (0, 0), BuildingBlock: XUDNAN_clean_linker_2, # of connection points: 2
#     Edge 71, Type (0, 0), BuildingBlock: XUDNAN_clean_linker_2, # of connection points: 2
#     Edge 72, Type (0, 0), BuildingBlock: XUDNAN_clean_linker_2, # of connection points: 2
#     Edge 73, Type (0, 0), BuildingBlock: XUDNAN_clean_linker_2, # of connection points: 2
#     Edge 74, Type (0, 0), BuildingBlock: XUDNAN_clean_linker_2, # of connection points: 2
#     Edge 75, Type (0, 0), BuildingBlock: XUDNAN_clean_linker_2, # of connection points: 2
#     Edge 76, Type (0, 0), BuildingBlock: XUDNAN_clean_linker_2, # of connection points: 2
#     Edge 77, Type (0, 0), BuildingBlock: XUDNAN_clean_linker_2, # of connection points: 2
#     Edge 78, Type (0, 0), BuildingBlock: XUDNAN_clean_linker_2, # of connection points: 2
#     Edge 79, Type (0, 0), BuildingBlock: XUDNAN_clean_linker_2, # of connection points: 2
#     Edge 80, Type (0, 0), BuildingBlock: XUDNAN_clean_linker_2, # of connection points: 2
#     Edge 81, Type (0, 0), BuildingBlock: XUDNAN_clean_linker_2, # of connection points: 2
#     Edge 82, Type (0, 0), BuildingBlock: XUDNAN_clean_linker_2, # of connection points: 2
#     Edge 83, Type (0, 0), BuildingBlock: XUDNAN_clean_linker_2, # of connection points: 2
#     Edge 84, Type (0, 0), BuildingBlock: XUDNAN_clean_linker_2, # of connection points: 2
#     Edge 85, Type (0, 0), BuildingBlock: XUDNAN_clean_linker_2, # of connection points: 2
#     Edge 86, Type (0, 0), BuildingBlock: XUDNAN_clean_linker_2, # of connection points: 2
#     Edge 87, Type (0, 0), BuildingBlock: XUDNAN_clean_linker_2, # of connection points: 2
#     Edge 88, Type (0, 0), BuildingBlock: XUDNAN_clean_linker_2, # of connection points: 2
#     Edge 89, Type (0, 0), BuildingBlock: XUDNAN_clean_linker_2, # of connection points: 2
#     Edge 90, Type (0, 0), BuildingBlock: XUDNAN_clean_linker_2, # of connection points: 2
#     Edge 91, Type (0, 0), BuildingBlock: XUDNAN_clean_linker_2, # of connection points: 2
#     Edge 92, Type (0, 0), BuildingBlock: XUDNAN_clean_linker_2, # of connection points: 2
#     Edge 93, Type (0, 0), BuildingBlock: XUDNAN_clean_linker_2, # of connection points: 2
#     Edge 94, Type (0, 0), BuildingBlock: XUDNAN_clean_linker_2, # of connection points: 2
#     Edge 95, Type (0, 0), BuildingBlock: XUDNAN_clean_linker_2, # of connection points: 2
#     Edge 96, Type (0, 0), BuildingBlock: XUDNAN_clean_linker_2, # of connection points: 2
#     Edge 97, Type (0, 0), BuildingBlock: XUDNAN_clean_linker_2, # of connection points: 2
#     Edge 98, Type (0, 0), BuildingBlock: XUDNAN_clean_linker_2, # of connection points: 2
#     Edge 99, Type (0, 0), BuildingBlock: XUDNAN_clean_linker_2, # of connection points: 2
#     Edge 100, Type (0, 0), BuildingBlock: XUDNAN_clean_linker_2, # of connection points: 2
#     Edge 101, Type (0, 0), BuildingBlock: XUDNAN_clean_linker_2, # of connection points: 2
#     Edge 102, Type (0, 0), BuildingBlock: XUDNAN_clean_linker_2, # of connection points: 2
#     Edge 103, Type (0, 0), BuildingBlock: XUDNAN_clean_linker_2, # of connection points: 2
#     Edge 104, Type (0, 0), BuildingBlock: XUDNAN_clean_linker_2, # of connection points: 2
#     Edge 105, Type (0, 0), BuildingBlock: XUDNAN_clean_linker_2, # of connection points: 2
#     Edge 106, Type (0, 0), BuildingBlock: XUDNAN_clean_linker_2, # of connection points: 2
#     Edge 107, Type (0, 0), BuildingBlock: XUDNAN_clean_linker_2, # of connection points: 2
# Relax obj value: 0.076
# Max RMSD: 0.060
# Mean RMSD: 0.060
data_MOF--net-cha--node1-GALJAG_clean_sbu_0--edge1-XUDNAN_clean_linker_2
_symmetry_space_group_name_H-M    P1
_symmetry_Int_Tables_number       1
_symmetry_cell_setting            triclinic
loop_
_symmetry_equiv_pos_as_xyz
'x, y, z'
_cell_length_a     58.001959
_cell_length_b     58.005938
_cell_length_c     83.381399
_cell_angle_alpha  90.004563
_cell_angle_beta   89.99427
_cell_angle_gamma 119.9931
loop_
_atom_site_label
_atom_site_type_symbol
_atom_site_fract_x
_atom_site_fract_y
_atom_site_fract_z
_atom_type_partial_charge
In0 In 0.01809 0.27534 0.09365 0.0
O1 O 0.02608 0.30073 0.07056 0.0
O2 O 0.00068 0.25889 0.06933 0.0
C3 C 0.02475 0.30771 0.11866 0.0
C4 C 0.06065 0.26822 0.09417 0.0
C5 C 0.96843 0.2366 0.10072 0.0
O6 O 0.02275 0.3139 0.10439 0.0
O7 O 0.02403 0.28575 0.12013 0.0
O8 O 0.98784 0.23249 0.09989 0.0
O9 O 0.9742 0.2604 0.09828 0.0
C10 C 0.01129 0.28073 0.06198 0.0
O11 O 0.03726 0.24982 0.09699 0.0
O12 O 0.06276 0.29048 0.09106 0.0
In13 In 0.77485 0.77322 0.0891 0.0
O14 O 0.75076 0.74528 0.06844 0.0
O15 O 0.78322 0.78346 0.06267 0.0
C16 C 0.74983 0.74107 0.11433 0.0
C17 C 0.76157 0.81157 0.09114 0.0
C18 C 0.82429 0.78023 0.09251 0.0
O19 O 0.74426 0.73332 0.09998 0.0
O20 O 0.76793 0.76499 0.11594 0.0
O21 O 0.81847 0.79769 0.09649 0.0
O22 O 0.80517 0.75919 0.0868 0.0
C23 C 0.76434 0.76169 0.05759 0.0
O24 O 0.78538 0.81659 0.09159 0.0
O25 O 0.74448 0.78721 0.08992 0.0
In26 In 0.2908 0.02426 0.09087 0.0
O27 O 0.31676 0.02456 0.06991 0.0
O28 O 0.28243 0.02737 0.06462 0.0
C29 C 0.3233 0.03052 0.11571 0.0
C30 C 0.24976 0.97383 0.09271 0.0
C31 C 0.28574 0.06716 0.09695 0.0
O32 O 0.33113 0.03361 0.10132 0.0
O33 O 0.2992 0.02393 0.11744 0.0
O34 O 0.26862 0.04389 0.10115 0.0
O35 O 0.30544 0.06888 0.08944 0.0
C36 C 0.30226 0.02641 0.05927 0.0
O37 O 0.24653 0.99363 0.09104 0.0
O38 O 0.27373 0.97941 0.09338 0.0
In39 In 0.28576 0.02886 0.91073 0.0
O40 O 0.27107 0.05887 0.90988 0.0
O41 O 0.31277 0.07318 0.91216 0.0
C42 C 0.24364 0.9795 0.90789 0.0
C43 C 0.29842 0.02727 0.94162 0.0
C44 C 0.30707 0.03179 0.88166 0.0
O45 O 0.24079 -0.00024 0.90862 0.0
O46 O 0.2674 0.98442 0.90865 0.0
O47 O 0.31678 0.02756 0.8942 0.0
O48 O 0.28701 0.03445 0.88396 0.0
C49 C 0.29438 0.07876 0.91108 0.0
O50 O 0.31333 0.02798 0.93028 0.0
O51 O 0.27752 0.02711 0.93722 0.0
In52 In 0.03433 0.29285 0.91422 0.0
O53 O 0.03124 0.3133 0.93729 0.0
O54 O 0.01996 0.27231 0.93811 0.0
C55 C 0.03572 0.32364 0.88952 0.0
C56 C 0.99052 0.24799 0.90511 0.0
C57 C 0.08448 0.30124 0.91583 0.0
O58 O 0.03256 0.32877 0.90383 0.0
O59 O 0.03816 0.30339 0.8879 0.0
O60 O 0.06475 0.27873 0.91263 0.0
O61 O 0.07883 0.31927 0.91833 0.0
C62 C 0.02235 0.29228 0.94555 0.0
O63 O 0.01367 0.25129 0.90354 0.0
O64 O 0.98951 0.26748 0.91114 0.0
In65 In 0.7751 0.77704 0.90911 0.0
O66 O 0.74645 0.7499 0.92889 0.0
O67 O 0.78089 0.78612 0.93553 0.0
C68 C 0.75044 0.75553 0.88101 0.0
C69 C 0.81402 0.76469 0.90934 0.0
C70 C 0.78298 0.82683 0.90721 0.0
O71 O 0.73751 0.75135 0.89393 0.0
O72 O 0.77524 0.77032 0.88242 0.0
O73 O 0.80168 0.8217 0.90649 0.0
O74 O 0.76001 0.80669 0.90849 0.0
C75 C 0.7604 0.76526 0.94011 0.0
O76 O 0.81845 0.78803 0.90689 0.0
O77 O 0.78986 0.74747 0.91154 0.0
In78 In 0.02854 0.76404 0.90918 0.0
O79 O -0.00011 0.78019 0.90806 0.0
O80 O 0.98399 0.73863 0.91212 0.0
C81 C 0.07702 0.8075 0.90587 0.0
C82 C 0.03115 0.75136 0.93993 0.0
C83 C 0.02496 0.74099 0.88059 0.0
O84 O 0.05615 0.80917 0.90695 0.0
O85 O 0.07321 0.7841 0.90634 0.0
O86 O 0.03162 0.73348 0.89315 0.0
O87 O 0.02019 0.75976 0.88261 0.0
C88 C 0.97947 0.75763 0.91039 0.0
O89 O 0.02731 0.73521 0.92864 0.0
O90 O 0.03392 0.77341 0.93553 0.0
In91 In 0.29662 0.29492 0.91649 0.0
O92 O 0.3212 0.32055 0.93782 0.0
O93 O 0.28766 0.28239 0.94247 0.0
C94 C 0.32359 0.32179 0.89013 0.0
C95 C 0.302 0.25175 0.91331 0.0
C96 C 0.25442 0.3024 0.91515 0.0
O97 O 0.33245 0.32951 0.90415 0.0
O98 O 0.30127 0.30067 0.88951 0.0
O99 O 0.25209 0.27979 0.91275 0.0
O100 O 0.27782 0.32082 0.91797 0.0
C101 C 0.30672 0.30345 0.94817 0.0
O102 O 0.27954 0.2503 0.91218 0.0
O103 O 0.32133 0.27481 0.91589 0.0
In104 In 0.77464 0.03751 0.91285 0.0
O105 O 0.7422 0.02815 0.93184 0.0
O106 O 0.78251 0.04739 0.93934 0.0
C107 C 0.74444 0.0341 0.88725 0.0
C108 C 0.81993 0.08211 0.90444 0.0
C109 C 0.78234 0.99542 0.9147 0.0
O110 O 0.74812 0.04963 0.89881 0.0
O111 O 0.75516 0.02 0.88896 0.0
O112 O 0.80102 0.01923 0.91543 0.0
O113 O 0.75937 0.99262 0.91342 0.0
C114 C 0.75848 0.03772 0.94333 0.0
O115 O 0.8139 0.05924 0.89955 0.0
O116 O 0.80285 0.08276 0.91354 0.0
In117 In 0.75469 0.02295 0.09144 0.0
O118 O 0.77185 0.99516 0.09206 0.0
O119 O 0.73006 0.97831 0.08833 0.0
C120 C 0.79702 0.07128 0.097 0.0
C121 C 0.74498 0.02797 0.06039 0.0
C122 C 0.73081 0.01854 0.11983 0.0
O123 O 0.79923 0.05073 0.09561 0.0
O124 O 0.77364 0.06727 0.09553 0.0
O125 O 0.72403 0.02619 0.10736 0.0
O126 O 0.74883 0.01274 0.11772 0.0
C127 C 0.74951 0.97438 0.08987 0.0
O128 O 0.72713 0.02146 0.071 0.0
O129 O 0.76709 0.03197 0.06558 0.0
In130 In 0.03047 0.76387 0.0885 0.0
O131 O 0.02331 0.73332 0.06846 0.0
O132 O 0.03548 0.7731 0.062 0.0
C133 C 0.02497 0.73228 0.11395 0.0
C134 C 0.07993 0.80558 0.0924 0.0
C135 C 0.99067 0.77456 0.09241 0.0
O136 O 0.04633 0.74505 0.10624 0.0
O137 O 0.00589 0.7343 0.10839 0.0
O138 O 0.01378 0.78953 0.09797 0.0
O139 O 0.98776 0.75428 0.08499 0.0
C140 C 0.02922 0.7501 0.05732 0.0
O141 O 0.07508 0.78195 0.09081 0.0
O142 O 0.05968 0.80839 0.0921 0.0
In143 In 0.28143 0.27902 0.0964 0.0
O144 O 0.23672 0.25293 0.09501 0.0
O145 O 0.25178 0.29453 0.09676 0.0
C146 C 0.28372 0.2347 0.10314 0.0
C147 C 0.29521 0.29343 0.0655 0.0
C148 C 0.31197 0.31028 0.12074 0.0
O149 O 0.26697 0.2398 0.10932 0.0
O150 O 0.29999 0.25233 0.09368 0.0
O151 O 0.32091 0.31166 0.10677 0.0
O152 O 0.28757 0.29366 0.12233 0.0
C153 C 0.23158 0.27155 0.09575 0.0
O154 O 0.30238 0.31035 0.07667 0.0
O155 O 0.28135 0.26956 0.06996 0.0
In156 In 0.69155 0.6271 0.42417 0.0
O157 O 0.69313 0.65407 0.40351 0.0
O158 O 0.69604 0.61981 0.39799 0.0
C159 C 0.6875 0.65182 0.45047 0.0
C160 C 0.74064 0.63406 0.42855 0.0
C161 C 0.64246 0.5838 0.42449 0.0
O162 O 0.6897 0.66122 0.43651 0.0
O163 O 0.68752 0.63008 0.45112 0.0
O164 O 0.66303 0.58225 0.42748 0.0
O165 O 0.64687 0.60693 0.42136 0.0
C166 C 0.69569 0.64006 0.39281 0.0
O167 O 0.72021 0.6111 0.4282 0.0
O168 O 0.73605 0.65301 0.42692 0.0
In169 In 0.43046 0.09818 0.42544 0.0
O170 O 0.40098 0.07898 0.40451 0.0
O171 O 0.44074 0.10869 0.39923 0.0
C172 C 0.40114 0.06769 0.45037 0.0
C173 C 0.43622 0.14644 0.4317 0.0
C174 C 0.47165 0.08878 0.42536 0.0
O175 O 0.39433 0.06117 0.43596 0.0
O176 O 0.42225 0.08967 0.45212 0.0
O177 O 0.47446 0.11144 0.42797 0.0
O178 O 0.44798 0.07067 0.42287 0.0
C179 C 0.41796 0.09244 0.39388 0.0
O180 O 0.45438 0.1409 0.43399 0.0
O181 O 0.41471 0.12744 0.42634 0.0
In182 In 0.95339 0.36864 0.4269 0.0
O183 O 0.98046 0.36753 0.40707 0.0
O184 O 0.943 0.36262 0.40033 0.0
C185 C 0.9782 0.36512 0.45351 0.0
C186 C 0.90469 0.32635 0.43232 0.0
C187 C 0.96313 0.41933 0.42684 0.0
O188 O 0.98234 0.35865 0.4398 0.0
O189 O 0.96189 0.37346 0.45368 0.0
O190 O 0.93993 0.39946 0.42693 0.0
O191 O 0.98151 0.41368 0.42665 0.0
C192 C 0.96439 0.36395 0.39585 0.0
O193 O 0.90984 0.35007 0.43395 0.0
O194 O 0.92413 0.32386 0.42785 0.0
In195 In 0.96147 0.36539 0.24691 0.0
O196 O 0.94849 0.39631 0.24565 0.0
O197 O 0.98941 0.40984 0.25044 0.0
C198 C 0.91284 0.32415 0.23976 0.0
C199 C 0.96948 0.35973 0.27832 0.0
C200 C 0.98847 0.36558 0.22036 0.0
O201 O 0.91836 0.34809 0.23894 0.0
O202 O 0.93189 0.32097 0.24417 0.0
O203 O 0.97753 0.37949 0.22189 0.0
O204 O 0.98638 0.35155 0.23247 0.0
C205 C 0.97144 0.41581 0.24834 0.0
O206 O 0.98672 0.36356 0.26777 0.0
O207 O 0.94852 0.35827 0.27291 0.0
In208 In 0.69717 0.62218 0.24499 0.0
O209 O 0.66519 0.57862 0.2451 0.0
O210 O 0.65293 0.60731 0.24848 0.0
C211 C 0.73864 0.61391 0.24133 0.0
C212 C 0.70275 0.63957 0.27554 0.0
C213 C 0.69837 0.64509 0.21655 0.0
O214 O 0.71474 0.59535 0.24069 0.0
O215 O 0.74167 0.63679 0.24362 0.0
O216 O 0.70985 0.65888 0.22883 0.0
O217 O 0.68634 0.62032 0.21881 0.0
C218 C 0.64622 0.58302 0.24744 0.0
O219 O 0.69942 0.65201 0.26413 0.0
O220 O 0.70372 0.61921 0.27135 0.0
In221 In 0.44159 0.10825 0.24567 0.0
O222 O 0.44615 0.11785 0.27209 0.0
O223 O 0.41093 0.08265 0.26501 0.0
C224 C 0.4193 0.08386 0.21763 0.0
C225 C 0.4817 0.09798 0.24852 0.0
C226 C 0.44799 0.15705 0.24058 0.0
O227 O 0.40528 0.08141 0.22982 0.0
O228 O 0.44399 0.09813 0.21977 0.0
O229 O 0.42556 0.13698 0.24348 0.0
O230 O 0.46704 0.15243 0.24015 0.0
C231 C 0.42462 0.0978 0.27637 0.0
O232 O 0.4854 0.12097 0.24566 0.0
O233 O 0.45761 0.08 0.24997 0.0
In234 In 0.70207 0.10988 0.24677 0.0
O235 O 0.67022 0.1217 0.24455 0.0
O236 O 0.65806 0.08239 0.25233 0.0
C237 C 0.74363 0.15656 0.23734 0.0
C238 C 0.71445 0.11139 0.27814 0.0
C239 C 0.70181 0.07858 0.22272 0.0
O240 O 0.71991 0.15198 0.23699 0.0
O241 O 0.74627 0.13731 0.24209 0.0
O242 O 0.70907 0.07702 0.23678 0.0
O243 O 0.69465 0.09565 0.22095 0.0
C244 C 0.65136 0.09943 0.249 0.0
O245 O 0.70493 0.09002 0.27018 0.0
O246 O 0.71741 0.13126 0.27033 0.0
In247 In 0.95789 0.62323 0.24766 0.0
O248 O 0.94641 0.5798 0.24445 0.0
O249 O 0.98728 0.60791 0.24811 0.0
C250 C 0.90786 0.61428 0.24519 0.0
C251 C 0.96762 0.63864 0.27867 0.0
C252 C 0.98091 0.65104 0.22066 0.0
O253 O 0.9137 0.59619 0.24334 0.0
O254 O 0.92735 0.63705 0.24837 0.0
O255 O 0.99345 0.65596 0.23375 0.0
O256 O 0.95706 0.63258 0.22132 0.0
C257 C 0.96979 0.58389 0.24598 0.0
O258 O 0.95258 0.61497 0.27424 0.0
O259 O 0.97813 0.65517 0.26735 0.0
In260 In 0.43602 0.36497 0.24857 0.0
O261 O 0.44106 0.35817 0.27469 0.0
O262 O 0.40721 0.3615 0.26879 0.0
C263 C 0.41093 0.36521 0.22127 0.0
C264 C 0.47611 0.41552 0.25071 0.0
C265 C 0.44416 0.32393 0.24242 0.0
O266 O 0.3981 0.35261 0.23359 0.0
O267 O 0.43582 0.37766 0.22297 0.0
O268 O 0.42154 0.32053 0.24604 0.0
O269 O 0.46247 0.34791 0.24181 0.0
C270 C 0.42063 0.35834 0.27964 0.0
O271 O 0.47976 0.39613 0.24812 0.0
O272 O 0.45205 0.40943 0.25232 0.0
In273 In 0.43549 0.36089 0.42847 0.0
O274 O 0.40653 0.3563 0.40824 0.0
O275 O 0.44273 0.35772 0.40202 0.0
C276 C 0.40778 0.36029 0.45474 0.0
C277 C 0.4403 0.31751 0.43354 0.0
C278 C 0.47582 0.41184 0.42771 0.0
O279 O 0.3975 0.3547 0.44092 0.0
O280 O 0.43173 0.36587 0.45525 0.0
O281 O 0.47964 0.39243 0.42965 0.0
O282 O 0.45173 0.40553 0.42622 0.0
C283 C 0.42127 0.35591 0.39721 0.0
O284 O 0.45917 0.34095 0.43569 0.0
O285 O 0.4188 0.31585 0.42891 0.0
In286 In 0.69614 0.10916 0.42581 0.0
O287 O 0.70132 0.08977 0.40286 0.0
O288 O 0.70945 0.12977 0.40188 0.0
C289 C 0.69811 0.07995 0.45042 0.0
C290 C 0.73729 0.15665 0.43426 0.0
C291 C 0.6446 0.09669 0.42444 0.0
O292 O 0.7019 0.07559 0.43608 0.0
O293 O 0.69334 0.09872 0.45217 0.0
O294 O 0.66315 0.11947 0.42835 0.0
O295 O 0.65201 0.08019 0.42114 0.0
C296 C 0.70887 0.11054 0.39454 0.0
O297 O 0.7134 0.15154 0.43488 0.0
O298 O 0.74034 0.13756 0.42969 0.0
In299 In 0.95386 0.62986 0.42721 0.0
O300 O 0.97944 0.65878 0.40721 0.0
O301 O 0.94708 0.62067 0.40087 0.0
C302 C 0.97535 0.6526 0.45552 0.0
C303 C 0.91084 0.63578 0.42837 0.0
C304 C 0.96183 0.58803 0.42908 0.0
O305 O 0.98828 0.6609 0.44253 0.0
O306 O 0.95201 0.63317 0.45408 0.0
O307 O 0.93868 0.5851 0.42945 0.0
O308 O 0.98049 0.61183 0.42796 0.0
C309 C 0.96607 0.64264 0.39613 0.0
O310 O 0.90883 0.61304 0.42931 0.0
O311 O 0.93429 0.655 0.42674 0.0
In312 In 0.35871 0.95411 0.7577 0.0
O313 O 0.36424 0.98182 0.7365 0.0
O314 O 0.35704 0.94285 0.73149 0.0
C315 C 0.35735 0.98723 0.78007 0.0
C316 C 0.4027 0.94982 0.76031 0.0
C317 C 0.3127 0.90911 0.76481 0.0
O318 O 0.34569 0.98315 0.76673 0.0
O319 O 0.3705 0.97549 0.78184 0.0
O320 O 0.33389 0.9169 0.77261 0.0
O321 O 0.31447 0.92418 0.7534 0.0
C322 C 0.36122 0.96485 0.72598 0.0
O323 O 0.37938 0.93026 0.76114 0.0
O324 O 0.40413 0.97205 0.75808 0.0
In325 In 0.09921 0.42991 0.75703 0.0
O326 O 0.06401 0.41049 0.73927 0.0
O327 O 0.10147 0.41672 0.73164 0.0
C328 C 0.0748 0.41205 0.78568 0.0
C329 C 0.10941 0.48051 0.75462 0.0
C330 C 0.14114 0.42253 0.76141 0.0
O331 O 0.07015 0.39679 0.77382 0.0
O332 O 0.09117 0.43622 0.78295 0.0
O333 O 0.14357 0.44375 0.75563 0.0
O334 O 0.1176 0.40509 0.76496 0.0
C335 C 0.07756 0.40856 0.72807 0.0
O336 O 0.12757 0.4747 0.75606 0.0
O337 O 0.08608 0.46078 0.75435 0.0
In338 In 0.60861 0.69597 0.76026 0.0
O339 O 0.62892 0.68563 0.7401 0.0
O340 O 0.60307 0.70023 0.73371 0.0
C341 C 0.64319 0.69918 0.78315 0.0
C342 C 0.55979 0.65222 0.76221 0.0
C343 C 0.61133 0.7431 0.7661 0.0
O344 O 0.65022 0.70665 0.76889 0.0
O345 O 0.61863 0.68923 0.78573 0.0
O346 O 0.59689 0.72234 0.77408 0.0
O347 O 0.62459 0.74023 0.75508 0.0
C348 C 0.61825 0.69187 0.72898 0.0
O349 O 0.56354 0.67553 0.76142 0.0
O350 O 0.5808 0.65077 0.76218 0.0
In351 In 0.61052 0.69346 0.58013 0.0
O352 O 0.60008 0.7264 0.57935 0.0
O353 O 0.64036 0.73711 0.58416 0.0
C354 C 0.56216 0.65088 0.57435 0.0
C355 C 0.61866 0.68775 0.61137 0.0
C356 C 0.63646 0.69484 0.55294 0.0
O357 O 0.56669 0.67448 0.57312 0.0
O358 O 0.582 0.64883 0.57842 0.0
O359 O 0.63765 0.68293 0.56536 0.0
O360 O 0.62254 0.70578 0.55442 0.0
C361 C 0.62358 0.74474 0.5823 0.0
O362 O 0.63395 0.68768 0.60055 0.0
O363 O 0.59953 0.69021 0.6063 0.0
In364 In 0.36785 0.94784 0.57741 0.0
O365 O 0.35963 0.97081 0.59708 0.0
O366 O 0.3729 0.94422 0.60408 0.0
C367 C 0.35993 0.96888 0.55042 0.0
C368 C 0.32629 0.89793 0.57683 0.0
C369 C 0.41871 0.95936 0.57307 0.0
O370 O 0.36936 0.9824 0.56305 0.0
O371 O 0.35416 0.94493 0.55154 0.0
O372 O 0.39954 0.93581 0.5739 0.0
O373 O 0.41222 0.97702 0.57435 0.0
C374 C 0.36576 0.96047 0.60844 0.0
O375 O 0.34996 0.90329 0.57437 0.0
O376 O 0.32351 0.91786 0.57955 0.0
In377 In 0.09107 0.42222 0.58334 0.0
O378 O 0.0894 0.40071 0.60662 0.0
O379 O 0.05916 0.41036 0.603 0.0
C380 C 0.06225 0.39134 0.55833 0.0
C381 C 0.14184 0.4328 0.5851 0.0
C382 C 0.09753 0.4707 0.57674 0.0
O383 O 0.05282 0.40056 0.56845 0.0
O384 O 0.0856 0.39643 0.56133 0.0
O385 O 0.09347 0.4613 0.59076 0.0
O386 O 0.09876 0.45586 0.56613 0.0
C387 C 0.06932 0.40072 0.61228 0.0
O388 O 0.13529 0.4502 0.58774 0.0
O389 O 0.12278 0.41007 0.58145 0.0
In390 In 0.35576 0.43072 0.58321 0.0
O391 O 0.33647 0.45513 0.59014 0.0
O392 O 0.31092 0.41511 0.58284 0.0
C393 C 0.39716 0.47862 0.57505 0.0
C394 C 0.35801 0.41213 0.61274 0.0
C395 C 0.35499 0.40289 0.55685 0.0
O396 O 0.37339 0.47152 0.57146 0.0
O397 O 0.40014 0.46135 0.58251 0.0
O398 O 0.37221 0.40935 0.56776 0.0
O399 O 0.33788 0.40973 0.5595 0.0
C400 C 0.31297 0.43678 0.58746 0.0
O401 O 0.34297 0.39705 0.60183 0.0
O402 O 0.37216 0.43607 0.60859 0.0
In403 In 0.63606 0.9656 0.57967 0.0
O404 O 0.61846 0.92067 0.57808 0.0
O405 O 0.65958 0.94466 0.58403 0.0
C406 C 0.59271 0.97006 0.57402 0.0
C407 C 0.64602 0.98037 0.61072 0.0
C408 C 0.66287 0.98749 0.55231 0.0
O409 O 0.59131 0.94767 0.57532 0.0
O410 O 0.61582 0.98984 0.57545 0.0
O411 O 0.66679 0.00109 0.56492 0.0
O412 O 0.64603 0.96309 0.55369 0.0
C413 C 0.64014 0.92158 0.58158 0.0
O414 O 0.66357 0.99196 0.60001 0.0
O415 O 0.62399 0.962 0.60564 0.0
In416 In 0.10511 0.68957 0.57788 0.0
O417 O 0.10955 0.70829 0.6025 0.0
O418 O 0.07409 0.67172 0.59792 0.0
C419 C 0.07426 0.6941 0.55514 0.0
C420 C 0.15571 0.73021 0.5765 0.0
C421 C 0.10467 0.64319 0.573 0.0
O422 O 0.06628 0.68681 0.56929 0.0
O423 O 0.09793 0.6998 0.55262 0.0
O424 O 0.1065 0.65294 0.58675 0.0
O425 O 0.10307 0.65677 0.56173 0.0
C426 C 0.08765 0.68999 0.60785 0.0
O427 O 0.14986 0.70614 0.57696 0.0
O428 O 0.13599 0.73385 0.57671 0.0
In429 In 0.10249 0.69211 0.75527 0.0
O430 O 0.07111 0.67589 0.73529 0.0
O431 O 0.11028 0.70643 0.72944 0.0
C432 C 0.07057 0.69223 0.77888 0.0
C433 C 0.11106 0.65046 0.75394 0.0
C434 C 0.14663 0.73804 0.76313 0.0
O435 O 0.07084 0.70099 0.765 0.0
O436 O 0.08574 0.68273 0.78067 0.0
O437 O 0.14071 0.71603 0.76949 0.0
O438 O 0.13022 0.73696 0.7528 0.0
C439 C 0.08696 0.6908 0.72459 0.0
O440 O 0.12922 0.67419 0.75178 0.0
O441 O 0.08842 0.64761 0.75679 0.0
In442 In 0.35833 0.42613 0.75876 0.0
O443 O 0.3721 0.4703 0.76032 0.0
O444 O 0.40172 0.45879 0.75874 0.0
C445 C 0.3096 0.42095 0.7626 0.0
C446 C 0.36011 0.40726 0.72909 0.0
C447 C 0.36858 0.40596 0.78539 0.0
O448 O 0.32665 0.43762 0.75305 0.0
O449 O 0.31721 0.40719 0.7702 0.0
O450 O 0.35833 0.39199 0.77301 0.0
O451 O 0.37418 0.4298 0.7841 0.0
C452 C 0.39662 0.47754 0.75982 0.0
O453 O 0.37816 0.42906 0.73454 0.0
O454 O 0.34152 0.39413 0.73886 0.0
In455 In 0.62493 0.96427 0.75902 0.0
O456 O 0.58077 0.93816 0.76352 0.0
O457 O 0.59485 0.97906 0.75873 0.0
C458 C 0.62257 0.9175 0.76534 0.0
C459 C 0.63866 0.97876 0.72805 0.0
C460 C 0.65674 0.99616 0.78273 0.0
O461 O 0.61252 0.92759 0.77437 0.0
O462 O 0.6341 0.93111 0.75304 0.0
O463 O 0.63643 0.99684 0.77803 0.0
O464 O 0.66175 0.98063 0.77488 0.0
C465 C 0.57518 0.9564 0.76182 0.0
O466 O 0.65399 0.99164 0.73949 0.0
O467 O 0.6169 0.95907 0.73232 0.0
H468 H 0.11385 0.30566 0.09232 0.0
H469 H 0.05908 0.22074 0.09687 0.0
H470 H 0.09698 0.21272 0.09756 0.0
H471 H 0.16185 0.30102 0.06698 0.0
H472 H 0.19031 0.32836 0.07647 0.0
H473 H 0.15888 0.3276 0.07609 0.0
H474 H 0.16002 0.33179 0.10706 0.0
H475 H 0.19144 0.33256 0.10754 0.0
H476 H 0.16375 0.30806 0.11912 0.0
H477 H 0.14012 0.21358 0.09752 0.0
H478 H 0.18657 0.2233 0.09753 0.0
H479 H 0.21415 0.30784 0.09373 0.0
C480 C 0.10989 0.28539 0.09342 0.0
C481 C 0.08356 0.26379 0.0945 0.0
C482 C 0.07911 0.23756 0.09602 0.0
C483 C 0.10049 0.2328 0.09641 0.0
C484 C 0.12618 0.25449 0.09534 0.0
C485 C 0.13105 0.28028 0.09394 0.0
C486 C 0.1607 0.29997 0.09327 0.0
C487 C 0.16838 0.31513 0.07725 0.0
C488 C 0.16949 0.31923 0.1076 0.0
C489 C 0.17166 0.28117 0.0945 0.0
C490 C 0.15132 0.25503 0.09561 0.0
C491 C 0.15624 0.23395 0.0967 0.0
C492 C 0.1827 0.2397 0.09667 0.0
C493 C 0.20394 0.26632 0.09566 0.0
C494 C 0.1983 0.28732 0.09458 0.0
H495 H 0.78821 0.96053 0.09229 0.0
H496 H 0.70293 0.9273 0.08701 0.0
H497 H 0.69668 0.88197 0.08726 0.0
H498 H 0.79334 0.91303 0.06691 0.0
H499 H 0.81828 0.91174 0.07914 0.0
H500 H 0.81601 0.94158 0.07864 0.0
H501 H 0.81118 0.93998 0.10958 0.0
H502 H 0.81333 0.91007 0.11018 0.0
H503 H 0.78513 0.91041 0.11899 0.0
H504 H 0.69959 0.84035 0.08826 0.0
H505 H 0.71171 0.80515 0.08906 0.0
H506 H 0.79508 0.86543 0.0935 0.0
C507 C 0.76824 0.94371 0.09116 0.0
C508 C 0.74605 0.94739 0.08964 0.0
C509 C 0.72022 0.92491 0.08817 0.0
C510 C 0.71645 0.8991 0.08833 0.0
C511 C 0.73872 0.89613 0.08994 0.0
C512 C 0.76412 0.91779 0.09126 0.0
C513 C 0.78468 0.90909 0.0927 0.0
C514 C 0.80422 0.91947 0.0785 0.0
C515 C 0.79944 0.91791 0.10882 0.0
C516 C 0.76686 0.87916 0.09196 0.0
C517 C 0.74042 0.87211 0.09042 0.0
C518 C 0.72023 0.84561 0.08946 0.0
C519 C 0.7273 0.82577 0.08995 0.0
C520 C 0.75431 0.83258 0.09136 0.0
C521 C 0.77427 0.85964 0.09245 0.0
H522 H 0.09733 0.85897 0.08973 0.0
H523 H 0.12444 0.80267 0.09872 0.0
H524 H 0.17076 0.83973 0.10048 0.0
H525 H 0.15179 0.90217 0.0646 0.0
H526 H 0.15359 0.9323 0.07185 0.0
H527 H 0.12232 0.90149 0.07214 0.0
H528 H 0.11786 0.90697 0.10264 0.0
H529 H 0.14907 0.93786 0.10243 0.0
H530 H 0.14435 0.91158 0.11593 0.0
H531 H 0.21417 0.88255 0.10037 0.0
H532 H 0.25193 0.92861 0.09854 0.0
H533 H 0.19673 0.95706 0.08937 0.0
C534 C 0.113 0.85451 0.09224 0.0
C535 C 0.10735 0.82801 0.09414 0.0
C536 C 0.12838 0.82287 0.09721 0.0
C537 C 0.15474 0.84377 0.09825 0.0
C538 C 0.15972 0.86966 0.09613 0.0
C539 C 0.13948 0.87514 0.09319 0.0
C540 C 0.15039 0.90469 0.09081 0.0
C541 C 0.14415 0.91049 0.07384 0.0
C542 C 0.13979 0.91593 0.10373 0.0
C543 C 0.17987 0.91492 0.09291 0.0
C544 C 0.18482 0.89438 0.09597 0.0
C545 C 0.21057 0.89883 0.09804 0.0
C546 C 0.23187 0.92502 0.09695 0.0
C547 C 0.22723 0.94634 0.09384 0.0
C548 C 0.20087 0.94115 0.09183 0.0
H549 H 0.25889 0.09731 0.90997 0.0
H550 H 0.34321 0.12318 0.91217 0.0
H551 H 0.35394 0.16992 0.9122 0.0
H552 H 0.26511 0.1502 0.88388 0.0
H553 H 0.23951 0.15368 0.89394 0.0
H554 H 0.23813 0.12196 0.89377 0.0
H555 H 0.23607 0.12053 0.92482 0.0
H556 H 0.23739 0.15222 0.92508 0.0
H557 H 0.26162 0.14783 0.93615 0.0
H558 H 0.35591 0.21349 0.91248 0.0
H559 H 0.34897 0.25201 0.91331 0.0
H560 H 0.26345 0.19883 0.91092 0.0
C561 C 0.27958 0.11285 0.91041 0.0
C562 C 0.30022 0.10662 0.91105 0.0
C563 C 0.32706 0.12747 0.91167 0.0
C564 C 0.33339 0.1541 0.91168 0.0
C565 C 0.31266 0.1596 0.91105 0.0
C566 C 0.2863 0.13967 0.91045 0.0
C567 C 0.26794 0.15126 0.91012 0.0
C568 C 0.25172 0.14383 0.8945 0.0
C569 C 0.24968 0.14243 0.92493 0.0
C570 C 0.28816 0.18077 0.91072 0.0
C571 C 0.31382 0.18503 0.91121 0.0
C572 C 0.33594 0.21046 0.91206 0.0
C573 C 0.33177 0.23221 0.91253 0.0
C574 C 0.30569 0.22841 0.91215 0.0
C575 C 0.28361 0.20232 0.91114 0.0
H576 H 0.93962 0.23068 0.91523 0.0
H577 H 0.98729 0.20802 0.88629 0.0
H578 H 0.94742 0.16432 0.88097 0.0
H579 H 0.90208 0.16881 0.93407 0.0
H580 H 0.87146 0.16969 0.93465 0.0
H581 H 0.90289 0.20028 0.93459 0.0
H582 H 0.88841 0.21611 0.90945 0.0
H583 H 0.85687 0.18554 0.90943 0.0
H584 H 0.87757 0.19544 0.89178 0.0
H585 H 0.9035 0.12238 0.88031 0.0
H586 H 0.85873 0.08406 0.88514 0.0
H587 H 0.83967 0.13337 0.91521 0.0
C588 C 0.94152 0.2167 0.90751 0.0
C589 C 0.96641 0.22272 0.90103 0.0
C590 C 0.96832 0.20376 0.8913 0.0
C591 C 0.9458 0.17898 0.88817 0.0
C592 C 0.9216 0.17348 0.89493 0.0
C593 C 0.9193 0.19176 0.90442 0.0
C594 C 0.89149 0.18008 0.91129 0.0
C595 C 0.89203 0.17969 0.92974 0.0
C596 C 0.87778 0.1952 0.90511 0.0
C597 C 0.87865 0.15222 0.90441 0.0
C598 C 0.89629 0.14898 0.89484 0.0
C599 C 0.88943 0.12472 0.88766 0.0
C600 C 0.86396 0.10308 0.89049 0.0
C601 C 0.84573 0.10579 0.90052 0.0
C602 C 0.85311 0.13079 0.90738 0.0
H603 H 0.86744 0.79885 0.90569 0.0
H604 H 0.80913 0.71582 0.91414 0.0
H605 H 0.84527 0.70503 0.91535 0.0
H606 H 0.91113 0.78732 0.88054 0.0
H607 H 0.94105 0.81495 0.88857 0.0
H608 H 0.91057 0.81606 0.88828 0.0
H609 H 0.91446 0.82468 0.91893 0.0
H610 H 0.94492 0.82355 0.91932 0.0
H611 H 0.91759 0.80179 0.93214 0.0
H612 H 0.8876 0.70338 0.91579 0.0
H613 H 0.93335 0.71081 0.91525 0.0
H614 H 0.96409 0.79501 0.90657 0.0
C615 C 0.86226 0.77839 0.90776 0.0
C616 C 0.83552 0.75814 0.90981 0.0
C617 C 0.82952 0.73162 0.91253 0.0
C618 C 0.84988 0.72531 0.91324 0.0
C619 C 0.87607 0.74576 0.91121 0.0
C620 C 0.88232 0.77176 0.90851 0.0
C621 C 0.91207 0.79003 0.9068 0.0
C622 C 0.91911 0.80283 0.89005 0.0
C623 C 0.92289 0.81126 0.92009 0.0
C624 C 0.92159 0.77023 0.90895 0.0
C625 C 0.9005 0.74482 0.91149 0.0
C626 C 0.90428 0.72318 0.91381 0.0
C627 C 0.93033 0.72761 0.91349 0.0
C628 C 0.95223 0.75348 0.91087 0.0
C629 C 0.94773 0.77502 0.9086 0.0
H630 H 0.75741 0.59713 0.42888 0.0
H631 H 0.78586 0.68195 0.43144 0.0
H632 H 0.83208 0.69107 0.43245 0.0
H633 H 0.80771 0.59752 0.45563 0.0
H634 H 0.81089 0.57293 0.44414 0.0
H635 H 0.77972 0.57272 0.44438 0.0
H636 H 0.78045 0.57525 0.41335 0.0
H637 H 0.81166 0.57559 0.41301 0.0
H638 H 0.80888 0.60191 0.40338 0.0
H639 H 0.87489 0.69156 0.43184 0.0
H640 H 0.91253 0.68331 0.43038 0.0
H641 H 0.85733 0.59816 0.42847 0.0
C642 C 0.77338 0.61757 0.42984 0.0
C643 C 0.76805 0.63884 0.43011 0.0
C644 C 0.78947 0.66535 0.43123 0.0
C645 C 0.8158 0.67075 0.43182 0.0
C646 C 0.82043 0.64944 0.43132 0.0
C647 C 0.79992 0.62336 0.43043 0.0
C648 C 0.81066 0.6043 0.42965 0.0
C649 C 0.80171 0.58577 0.44433 0.0
C650 C 0.80242 0.58833 0.41391 0.0
C651 C 0.84037 0.62381 0.43007 0.0
C652 C 0.84545 0.64971 0.43105 0.0
C653 C 0.87122 0.67136 0.43118 0.0
C654 C 0.89246 0.66646 0.4303 0.0
C655 C 0.88786 0.6401 0.42935 0.0
C656 C 0.86143 0.6185 0.42928 0.0
H657 H 0.40467 0.26546 0.42607 0.0
H658 H 0.48334 0.31666 0.44597 0.0
H659 H 0.48974 0.27789 0.44888 0.0
H660 H 0.38763 0.20731 0.45104 0.0
H661 H 0.37066 0.18401 0.43502 0.0
H662 H 0.37155 0.21551 0.43535 0.0
H663 H 0.39197 0.22596 0.40681 0.0
H664 H 0.39116 0.19453 0.4064 0.0
H665 H 0.42207 0.22499 0.403 0.0
H666 H 0.48854 0.23433 0.44856 0.0
H667 H 0.48002 0.18857 0.4448 0.0
H668 H 0.40218 0.1653 0.42497 0.0
C669 C 0.42311 0.26843 0.43121 0.0
C670 C 0.44349 0.29403 0.43586 0.0
C671 C 0.46746 0.29721 0.44236 0.0
C672 C 0.47126 0.27531 0.44408 0.0
C673 C 0.4509 0.25039 0.43926 0.0
C674 C 0.42729 0.24678 0.43296 0.0
C675 C 0.40906 0.21804 0.42812 0.0
C676 C 0.3832 0.20548 0.43797 0.0
C677 C 0.40324 0.21576 0.41 0.0
C678 C 0.42627 0.20613 0.43252 0.0
C679 C 0.45025 0.22515 0.43901 0.0
C680 C 0.46977 0.21922 0.44359 0.0
C681 C 0.46475 0.19317 0.44139 0.0
C682 C 0.44042 0.17339 0.43464 0.0
C683 C 0.42087 0.17997 0.43027 0.0
H684 H 0.8878 0.27353 0.4275 0.0
H685 H 0.86108 0.32749 0.44355 0.0
H686 H 0.81582 0.28935 0.44768 0.0
H687 H 0.8299 0.23061 0.40548 0.0
H688 H 0.83024 0.20062 0.41068 0.0
H689 H 0.86092 0.23195 0.41008 0.0
H690 H 0.87091 0.22497 0.43943 0.0
H691 H 0.84019 0.1936 0.44012 0.0
H692 H 0.84675 0.21888 0.45487 0.0
H693 H 0.77306 0.24581 0.4486 0.0
H694 H 0.7355 0.19983 0.44577 0.0
H695 H 0.79013 0.17425 0.42925 0.0
C696 C 0.87248 0.27728 0.43204 0.0
C697 C 0.87791 0.30342 0.43525 0.0
C698 C 0.85732 0.30758 0.44104 0.0
C699 C 0.83159 0.28606 0.44347 0.0
C700 C 0.82684 0.26053 0.44009 0.0
C701 C 0.84669 0.25603 0.43451 0.0
C702 C 0.83603 0.22679 0.43109 0.0
C703 C 0.83947 0.22224 0.41328 0.0
C704 C 0.84926 0.21539 0.44203 0.0
C705 C 0.80701 0.21562 0.43537 0.0
C706 C 0.80215 0.23539 0.44065 0.0
C707 C 0.77664 0.2301 0.44463 0.0
C708 C 0.75545 0.20396 0.44299 0.0
C709 C 0.75996 0.18351 0.43738 0.0
C710 C 0.78614 0.18942 0.43375 0.0
H711 H 0.93569 0.43291 0.24433 0.0
H712 H 0.01949 0.4612 0.25272 0.0
H713 H 0.02856 0.50765 0.25245 0.0
H714 H 0.94456 0.48505 0.21746 0.0
H715 H 0.91641 0.48679 0.22513 0.0
H716 H 0.91664 0.45588 0.22597 0.0
H717 H 0.90872 0.45343 0.25668 0.0
H718 H 0.90836 0.48426 0.25592 0.0
H719 H 0.93116 0.481 0.26914 0.0
H720 H 0.02828 0.551 0.25126 0.0
H721 H 0.01849 0.58785 0.24994 0.0
H722 H 0.93486 0.53073 0.24234 0.0
C723 C 0.95595 0.44886 0.24613 0.0
C724 C 0.97691 0.44352 0.24854 0.0
C725 C 0.00315 0.46491 0.25086 0.0
C726 C 0.00849 0.49132 0.2507 0.0
C727 C 0.98736 0.49591 0.24821 0.0
C728 C 0.96161 0.47526 0.24602 0.0
C729 C 0.94239 0.48545 0.24372 0.0
C730 C 0.92924 0.47784 0.22708 0.0
C731 C 0.92143 0.47544 0.25717 0.0
C732 C 0.96133 0.51509 0.245 0.0
C733 C 0.98719 0.52075 0.24755 0.0
C734 C 0.00811 0.5468 0.24925 0.0
C735 C 0.00237 0.56758 0.24846 0.0
C736 C 0.97595 0.56211 0.24601 0.0
C737 C 0.95527 0.53552 0.24417 0.0
H738 H 0.62771 0.52969 0.24521 0.0
H739 H 0.60191 0.58737 0.25274 0.0
H740 H 0.55525 0.55069 0.25491 0.0
H741 H 0.57267 0.48471 0.22099 0.0
H742 H 0.57119 0.45535 0.22936 0.0
H743 H 0.60241 0.48616 0.22871 0.0
H744 H 0.6078 0.48346 0.25941 0.0
H745 H 0.57658 0.45264 0.26016 0.0
H746 H 0.58176 0.48018 0.27266 0.0
H747 H 0.51126 0.50735 0.25595 0.0
H748 H 0.47359 0.46099 0.25553 0.0
H749 H 0.52894 0.43243 0.24731 0.0
C750 C 0.61227 0.53464 0.24735 0.0
C751 C 0.61836 0.56133 0.24882 0.0
C752 C 0.59762 0.567 0.25158 0.0
C753 C 0.5711 0.54633 0.25284 0.0
C754 C 0.56577 0.52018 0.25132 0.0
C755 C 0.58581 0.51432 0.24863 0.0
C756 C 0.57491 0.48467 0.24726 0.0
C757 C 0.58063 0.4773 0.23059 0.0
C758 C 0.58592 0.47465 0.26067 0.0
C759 C 0.54557 0.4747 0.24954 0.0
C760 C 0.54063 0.49542 0.2519 0.0
C761 C 0.5149 0.49097 0.25414 0.0
C762 C 0.49366 0.46462 0.25389 0.0
C763 C 0.49839 0.44318 0.25141 0.0
C764 C 0.5247 0.4484 0.24927 0.0
H765 H 0.53443 0.13314 0.24376 0.0
H766 H 0.47919 0.0508 0.25607 0.0
H767 H 0.51677 0.04211 0.25791 0.0
H768 H 0.57717 0.12042 0.21905 0.0
H769 H 0.60715 0.14977 0.22547 0.0
H770 H 0.57596 0.14946 0.22551 0.0
H771 H 0.58221 0.16223 0.25564 0.0
H772 H 0.61344 0.16259 0.25569 0.0
H773 H 0.58773 0.14193 0.26976 0.0
H774 H 0.5606 0.04262 0.25824 0.0
H775 H 0.60713 0.05208 0.25669 0.0
H776 H 0.63307 0.13398 0.24382 0.0
C777 C 0.53022 0.11329 0.2469 0.0
C778 C 0.50395 0.09263 0.24981 0.0
C779 C 0.49922 0.0669 0.25381 0.0
C780 C 0.52041 0.0618 0.25489 0.0
C781 C 0.5461 0.08264 0.2519 0.0
C782 C 0.55105 0.10786 0.24797 0.0
C783 C 0.58037 0.12673 0.24509 0.0
C784 C 0.58545 0.1372 0.22775 0.0
C785 C 0.59159 0.14972 0.25728 0.0
C786 C 0.5912 0.1082 0.24799 0.0
C787 C 0.57117 0.08288 0.25195 0.0
C788 C 0.57644 0.06237 0.25515 0.0
C789 C 0.60289 0.06793 0.25424 0.0
C790 C 0.62363 0.09374 0.25012 0.0
C791 C 0.61761 0.11406 0.24698 0.0
H792 H 0.45559 0.9876 0.75626 0.0
H793 H 0.40277 0.90429 0.76779 0.0
H794 H 0.44133 0.89761 0.77011 0.0
H795 H 0.50088 0.97743 0.7321 0.0
H796 H 0.53022 0.00709 0.73889 0.0
H797 H 0.49856 0.00582 0.73864 0.0
H798 H 0.50364 0.01791 0.76885 0.0
H799 H 0.53533 0.01921 0.76918 0.0
H800 H 0.50945 0.9978 0.78295 0.0
H801 H 0.48477 0.89933 0.77071 0.0
H802 H 0.53125 0.90928 0.76923 0.0
H803 H 0.55674 0.99143 0.75715 0.0
C804 C 0.45222 0.96803 0.75935 0.0
C805 C 0.4262 0.94647 0.76187 0.0
C806 C 0.42252 0.92109 0.7658 0.0
C807 C 0.44429 0.91708 0.76718 0.0
C808 C 0.46963 0.93865 0.76457 0.0
C809 C 0.4738 0.96362 0.76072 0.0
C810 C 0.50317 0.98316 0.75818 0.0
C811 C 0.50851 0.99401 0.74093 0.0
C812 C 0.5135 0.00586 0.77053 0.0
C813 C 0.51474 0.96517 0.76112 0.0
C814 C 0.49497 0.93962 0.76484 0.0
C815 C 0.50048 0.91927 0.76785 0.0
C816 C 0.52694 0.92514 0.76697 0.0
C817 C 0.54758 0.95112 0.7631 0.0
C818 C 0.54137 0.97142 0.7602 0.0
H819 H 0.07352 0.49804 0.75569 0.0
H820 H 0.15795 0.52551 0.75158 0.0
H821 H 0.16748 0.57204 0.75046 0.0
H822 H 0.07232 0.54676 0.72921 0.0
H823 H 0.04854 0.55051 0.7412 0.0
H824 H 0.04833 0.51935 0.7412 0.0
H825 H 0.05309 0.52163 0.77215 0.0
H826 H 0.05334 0.5528 0.77225 0.0
H827 H 0.08037 0.55057 0.78132 0.0
H828 H 0.16781 0.61543 0.74994 0.0
H829 H 0.15906 0.65294 0.75068 0.0
H830 H 0.07448 0.5972 0.75578 0.0
C831 C 0.09399 0.51385 0.75446 0.0
C832 C 0.11502 0.50823 0.75366 0.0
C833 C 0.14156 0.52942 0.7522 0.0
C834 C 0.14716 0.55588 0.75153 0.0
C835 C 0.12599 0.56075 0.75242 0.0
C836 C 0.09994 0.54036 0.7539 0.0
C837 C 0.08091 0.55103 0.75501 0.0
C838 C 0.06138 0.54133 0.7408 0.0
C839 C 0.06606 0.54356 0.77114 0.0
C840 C 0.10033 0.58063 0.75395 0.0
C841 C 0.12622 0.5858 0.75238 0.0
C842 C 0.14763 0.61164 0.75116 0.0
C843 C 0.14246 0.63279 0.75159 0.0
C844 C 0.11611 0.62794 0.75331 0.0
C845 C 0.09483 0.6015 0.75449 0.0
H846 H 0.45056 0.49763 0.75949 0.0
H847 H 0.39036 0.52112 0.7619 0.0
H848 H 0.4257 0.56835 0.76326 0.0
H849 H 0.49698 0.54723 0.78689 0.0
H850 H 0.52597 0.55262 0.77583 0.0
H851 H 0.49596 0.52065 0.77514 0.0
H852 H 0.49572 0.52325 0.74411 0.0
H853 H 0.52574 0.5552 0.74471 0.0
H854 H 0.49662 0.55165 0.73466 0.0
H855 H 0.46737 0.61283 0.76403 0.0
H856 H 0.5127 0.65184 0.76403 0.0
H857 H 0.54593 0.59947 0.76132 0.0
C858 C 0.44482 0.51272 0.76032 0.0
C859 C 0.41774 0.50576 0.76059 0.0
C860 C 0.411 0.52604 0.76168 0.0
C861 C 0.43091 0.55289 0.76247 0.0
C862 C 0.45742 0.55907 0.76218 0.0
C863 C 0.46443 0.5396 0.76113 0.0
C864 C 0.49439 0.55161 0.76093 0.0
C865 C 0.50388 0.54248 0.77557 0.0
C866 C 0.50365 0.54504 0.74516 0.0
C867 C 0.50315 0.58092 0.76197 0.0
C868 C 0.48149 0.58476 0.7627 0.0
C869 C 0.48448 0.61008 0.76351 0.0
C870 C 0.51031 0.6321 0.76351 0.0
C871 C 0.5328 0.62866 0.76271 0.0
C872 C 0.52911 0.6027 0.76201 0.0
H873 H 0.59154 0.76637 0.57757 0.0
H874 H 0.67256 0.78697 0.58923 0.0
H875 H 0.68545 0.83444 0.59056 0.0
H876 H 0.60846 0.82267 0.55237 0.0
H877 H 0.5811 0.82668 0.55902 0.0
H878 H 0.57809 0.79424 0.55928 0.0
H879 H 0.56638 0.78967 0.58955 0.0
H880 H 0.56933 0.82209 0.58937 0.0
H881 H 0.58873 0.81499 0.60331 0.0
H882 H 0.68966 0.87952 0.59037 0.0
H883 H 0.68496 0.91945 0.58863 0.0
H884 H 0.60122 0.8696 0.57699 0.0
C885 C 0.61197 0.78087 0.58045 0.0
C886 C 0.63107 0.77304 0.58331 0.0
C887 C 0.65762 0.79257 0.587 0.0
C888 C 0.66513 0.81955 0.58779 0.0
C889 C 0.64584 0.82664 0.58486 0.0
C890 C 0.61981 0.8079 0.58127 0.0
C891 C 0.60305 0.82085 0.57847 0.0
C892 C 0.59204 0.81581 0.56126 0.0
C893 C 0.58055 0.81133 0.59092 0.0
C894 C 0.62376 0.84981 0.581 0.0
C895 C 0.64829 0.85269 0.5847 0.0
C896 C 0.67056 0.87754 0.5875 0.0
C897 C 0.66768 0.90008 0.58648 0.0
C898 C 0.64274 0.89759 0.58267 0.0
C899 C 0.62053 0.8721 0.57992 0.0
H900 H 0.17352 0.78368 0.5786 0.0
H901 H 0.20059 0.72653 0.57338 0.0
H902 H 0.2472 0.76332 0.57279 0.0
H903 H 0.22247 0.83413 0.55269 0.0
H904 H 0.22642 0.86142 0.56501 0.0
H905 H 0.19515 0.8306 0.56482 0.0
H906 H 0.19742 0.82728 0.59572 0.0
H907 H 0.22871 0.85807 0.596 0.0
H908 H 0.22627 0.82849 0.60471 0.0
H909 H 0.29068 0.80612 0.57266 0.0
H910 H 0.32839 0.85224 0.57343 0.0
H911 H 0.27312 0.88155 0.57923 0.0
C912 C 0.18926 0.77893 0.57728 0.0
C913 C 0.1835 0.75229 0.57599 0.0
C914 C 0.2046 0.74683 0.57437 0.0
C915 C 0.23111 0.76757 0.57402 0.0
C916 C 0.23614 0.79361 0.57535 0.0
C917 C 0.21585 0.79938 0.57699 0.0
C918 C 0.22671 0.82909 0.5784 0.0
C919 C 0.21712 0.83941 0.56439 0.0
C920 C 0.21934 0.83614 0.59468 0.0
C921 C 0.25628 0.8391 0.57728 0.0
C922 C 0.26127 0.81831 0.57549 0.0
C923 C 0.28704 0.82258 0.57409 0.0
C924 C 0.30831 0.84882 0.57453 0.0
C925 C 0.30365 0.87042 0.57642 0.0
C926 C 0.27728 0.86542 0.57782 0.0
H927 H 0.26051 0.40072 0.58146 0.0
H928 H 0.31344 0.48221 0.59656 0.0
H929 H 0.27529 0.48992 0.59784 0.0
H930 H 0.21909 0.41437 0.5563 0.0
H931 H 0.18872 0.38448 0.56159 0.0
H932 H 0.22001 0.38502 0.56238 0.0
H933 H 0.21141 0.37017 0.59214 0.0
H934 H 0.18002 0.36947 0.59142 0.0
H935 H 0.20439 0.38926 0.60637 0.0
H936 H 0.23175 0.48921 0.5967 0.0
H937 H 0.18542 0.47974 0.59389 0.0
H938 H 0.16082 0.39869 0.57962 0.0
C939 C 0.26402 0.42012 0.58515 0.0
C940 C 0.2899 0.44087 0.58894 0.0
C941 C 0.29375 0.46602 0.59365 0.0
C942 C 0.27223 0.4706 0.59439 0.0
C943 C 0.24701 0.44981 0.59043 0.0
C944 C 0.24276 0.42504 0.58597 0.0
C945 C 0.21372 0.4062 0.58213 0.0
C946 C 0.21019 0.39699 0.56456 0.0
C947 C 0.20168 0.38237 0.59371 0.0
C948 C 0.20234 0.42433 0.58503 0.0
C949 C 0.22188 0.44938 0.58981 0.0
C950 C 0.21625 0.46963 0.59302 0.0
C951 C 0.18991 0.46408 0.59136 0.0
C952 C 0.16957 0.4385 0.58655 0.0
C953 C 0.17595 0.41843 0.58334 0.0
H954 H 0.02093 0.29365 0.15021 0.0
H955 H 0.02948 0.35715 0.11885 0.0
H956 H 0.02649 0.38154 0.14236 0.0
H957 H 0.97224 0.29301 0.17466 0.0
H958 H 0.98393 0.28598 0.19303 0.0
H959 H 0.99051 0.27539 0.17416 0.0
H960 H 0.04106 0.30088 0.18034 0.0
H961 H 0.03463 0.31154 0.1993 0.0
H962 H 0.05733 0.33583 0.18518 0.0
H963 H 0.01775 0.3965 0.16864 0.0
H964 H 0.00314 0.4008 0.1957 0.0
H965 H 9e-05 0.32747 0.21012 0.0
C966 C 0.02282 0.31299 0.14832 0.0
C967 C 0.02566 0.32366 0.13273 0.0
C968 C 0.02747 0.34873 0.13071 0.0
C969 C 0.02587 0.36273 0.14399 0.0
C970 C 0.02254 0.3514 0.15918 0.0
C971 C 0.02111 0.32713 0.16142 0.0
C972 C 0.01518 0.31823 0.17877 0.0
C973 C 0.98891 0.29158 0.18023 0.0
C974 C 0.03844 0.31653 0.18634 0.0
C975 C 0.01273 0.34093 0.18588 0.0
C976 C 0.01738 0.36001 0.1744 0.0
C977 C 0.01447 0.38192 0.17778 0.0
C978 C 0.00612 0.38415 0.19318 0.0
C979 C 0.0007 0.36457 0.20502 0.0
C980 C 0.00459 0.34299 0.20139 0.0
H981 H 0.76199 0.75219 0.14619 0.0
H982 H 0.70807 0.69006 0.1137 0.0
H983 H 0.68692 0.65996 0.13673 0.0
H984 H 0.77257 0.71026 0.17219 0.0
H985 H 0.77386 0.72794 0.19025 0.0
H986 H 0.78341 0.74529 0.17138 0.0
H987 H 0.74894 0.76076 0.17552 0.0
H988 H 0.73925 0.74341 0.19442 0.0
H989 H 0.71456 0.73634 0.17917 0.0
H990 H 0.67346 0.63592 0.16285 0.0
H991 H 0.66892 0.61891 0.19042 0.0
H992 H 0.73149 0.69651 0.20625 0.0
C993 C 0.74552 0.73235 0.14395 0.0
C994 C 0.73657 0.72345 0.12817 0.0
C995 C 0.71519 0.69728 0.12569 0.0
C996 C 0.70301 0.68008 0.13869 0.0
C997 C 0.71244 0.68939 0.15408 0.0
C998 C 0.73319 0.7149 0.15679 0.0
C999 C 0.74034 0.71947 0.17445 0.0
C1000 C 0.76926 0.72613 0.17722 0.0
C1001 C 0.73547 0.74129 0.18129 0.0
C1002 C 0.72067 0.69239 0.18121 0.0
C1003 C 0.70464 0.67544 0.16924 0.0
C1004 C 0.68572 0.64905 0.17234 0.0
C1005 C 0.68332 0.63958 0.18805 0.0
C1006 C 0.69977 0.65643 0.20048 0.0
C1007 C 0.71842 0.68329 0.19703 0.0
H1008 H 0.31179 0.0314 0.14741 0.0
H1009 H 0.37502 0.0415 0.11525 0.0
H1010 H 0.4054 0.05251 0.13841 0.0
H1011 H 0.35173 0.08564 0.17239 0.0
H1012 H 0.33457 0.06979 0.19068 0.0
H1013 H 0.31712 0.06014 0.17185 0.0
H1014 H 0.30411 0.01108 0.17713 0.0
H1015 H 0.32152 0.02058 0.19602 0.0
H1016 H 0.32976 0.00303 0.18134 0.0
H1017 H 0.42959 0.06558 0.1646 0.0
H1018 H 0.44642 0.08055 0.19198 0.0
H1019 H 0.36748 0.06211 0.20727 0.0
C1020 C 0.33191 0.03549 0.14526 0.0
C1021 C 0.34106 0.03545 0.12955 0.0
C1022 C 0.36761 0.04132 0.1272 0.0
C1023 C 0.38496 0.04753 0.14027 0.0
C1024 C 0.37539 0.04771 0.15559 0.0
C1025 C 0.34948 0.04183 0.15816 0.0
C1026 C 0.34465 0.04507 0.17567 0.0
C1027 C 0.33655 0.06643 0.17776 0.0
C1028 C 0.32377 0.01834 0.18297 0.0
C1029 C 0.37206 0.05419 0.18253 0.0
C1030 C 0.3894 0.05536 0.17075 0.0
C1031 C 0.41614 0.06448 0.17395 0.0
C1032 C 0.4255 0.07298 0.18954 0.0
C1033 C 0.40821 0.07236 0.20176 0.0
C1034 C 0.38105 0.06245 0.19823 0.0
H1035 H 0.34045 0.01374 0.87158 0.0
H1036 H 0.296 0.05093 0.8548 0.0
H1037 H 0.30898 0.04859 0.82697 0.0
H1038 H 0.39496 0.0441 0.84116 0.0
H1039 H 0.39653 0.01397 0.83918 0.0
H1040 H 0.38699 0.02197 0.85804 0.0
H1041 H 0.34328 0.97639 0.85782 0.0
H1042 H 0.35266 0.96829 0.83901 0.0
H1043 H 0.32127 0.96744 0.8408 0.0
H1044 H 0.32203 0.03757 0.80091 0.0
H1045 H 0.33412 0.01814 0.77831 0.0
H1046 H 0.37042 0.98825 0.81168 0.0
C1047 C 0.33406 0.02199 0.86207 0.0
C1048 C 0.31737 0.03267 0.86533 0.0
C1049 C 0.30885 0.04272 0.85256 0.0
C1050 C 0.31622 0.04159 0.83672 0.0
C1051 C 0.33219 0.03042 0.83382 0.0
C1052 C 0.34112 0.02087 0.84612 0.0
C1053 C 0.35605 0.00766 0.83957 0.0
C1054 C 0.38537 0.02284 0.8448 0.0
C1055 C 0.34249 0.9782 0.8446 0.0
C1056 C 0.35333 0.01054 0.8217 0.0
C1057 C 0.3398 0.02404 0.81865 0.0
C1058 C 0.33308 0.0274 0.80311 0.0
C1059 C 0.33999 0.01627 0.79036 0.0
C1060 C 0.35342 0.00195 0.79324 0.0
C1061 C 0.36061 0.99956 0.80909 0.0
H1062 H 0.05445 0.3615 0.79715 0.0
H1063 H 0.07273 0.44094 0.81095 0.0
H1064 H 0.06008 0.42574 0.83896 0.0
H1065 H 0.99849 0.32387 0.82542 0.0
H1066 H 0.00862 0.29965 0.82929 0.0
H1067 H 0.01516 0.31583 0.81003 0.0
H1068 H 0.06531 0.33134 0.81314 0.0
H1069 H 0.05896 0.31539 0.83241 0.0
H1070 H 0.083 0.35032 0.83058 0.0
H1071 H 0.049 0.40259 0.86595 0.0
H1072 H 0.04227 0.37397 0.8896 0.0
H1073 H 0.03339 0.31063 0.858 0.0
C1074 C 0.05504 0.37548 0.80598 0.0
C1075 C 0.06419 0.40227 0.80189 0.0
C1076 C 0.06553 0.42024 0.81385 0.0
C1077 C 0.05833 0.41177 0.82977 0.0
C1078 C 0.04999 0.38532 0.83352 0.0
C1079 C 0.04833 0.36745 0.82194 0.0
C1080 C 0.04138 0.34091 0.82929 0.0
C1081 C 0.0143 0.31876 0.82314 0.0
C1082 C 0.06348 0.33411 0.82617 0.0
C1083 C 0.03998 0.34679 0.84682 0.0
C1084 C 0.04454 0.37234 0.84904 0.0
C1085 C 0.04516 0.38246 0.86433 0.0
C1086 C 0.04133 0.36611 0.87768 0.0
C1087 C 0.03735 0.34016 0.87561 0.0
C1088 C 0.03636 0.33039 0.85996 0.0
H1089 H 0.63436 0.69581 0.81557 0.0
H1090 H 0.69581 0.71466 0.77993 0.0
H1091 H 0.72921 0.72755 0.8015 0.0
H1092 H 0.67259 0.75018 0.84047 0.0
H1093 H 0.65909 0.73287 0.8591 0.0
H1094 H 0.63934 0.7219 0.84112 0.0
H1095 H 0.6328 0.67465 0.84482 0.0
H1096 H 0.65242 0.68543 0.8629 0.0
H1097 H 0.66153 0.67062 0.84691 0.0
H1098 H 0.75639 0.74215 0.82645 0.0
H1099 H 0.77591 0.75742 0.85327 0.0
H1100 H 0.69711 0.72969 0.87305 0.0
C1101 C 0.65474 0.70204 0.81234 0.0
C1102 C 0.66251 0.70402 0.79609 0.0
C1103 C 0.68944 0.71284 0.79231 0.0
C1104 C 0.70852 0.72017 0.80447 0.0
C1105 C 0.70034 0.71855 0.82036 0.0
C1106 C 0.67409 0.70961 0.82435 0.0
C1107 C 0.67093 0.71164 0.84227 0.0
C1108 C 0.65984 0.73026 0.84595 0.0
C1109 C 0.65338 0.68393 0.84966 0.0
C1110 C 0.6996 0.72367 0.84769 0.0
C1111 C 0.71615 0.72724 0.83484 0.0
C1112 C 0.74361 0.73917 0.83663 0.0
C1113 C 0.75451 0.74786 0.85192 0.0
C1114 C 0.73802 0.74467 0.86526 0.0
C1115 C 0.71016 0.73213 0.86311 0.0
H1116 H 0.04796 0.71198 0.87061 0.0
H1117 H 0.00046 0.74604 0.85416 0.0
H1118 H 0.00244 0.73209 0.8265 0.0
H1119 H 0.09179 0.73394 0.83852 0.0
H1120 H 0.09549 0.70494 0.83719 0.0
H1121 H 0.08699 0.71381 0.85605 0.0
H1122 H 0.04502 0.66701 0.85802 0.0
H1123 H 0.05345 0.65794 0.83914 0.0
H1124 H 0.02126 0.65503 0.84182 0.0
H1125 H 0.01379 0.7194 0.8004 0.0
H1126 H 0.03425 0.70911 0.77755 0.0
H1127 H 0.07453 0.68333 0.81069 0.0
C1128 C 0.03739 0.71581 0.86124 0.0
C1129 C 0.02389 0.72988 0.86451 0.0
C1130 C 0.01085 0.73519 0.8519 0.0
C1131 C 0.01176 0.72725 0.83616 0.0
C1132 C 0.02576 0.71398 0.83323 0.0
C1133 C 0.03828 0.70819 0.8454 0.0
C1134 C 0.05408 0.69598 0.83877 0.0
C1135 C 0.08384 0.7132 0.84287 0.0
C1136 C 0.04277 0.66728 0.8448 0.0
C1137 C 0.04914 0.6966 0.82097 0.0
C1138 C 0.03246 0.70672 0.81805 0.0
C1139 C 0.02651 0.71101 0.80252 0.0
C1140 C 0.03824 0.70516 0.78962 0.0
C1141 C 0.05577 0.69524 0.79236 0.0
C1142 C 0.06084 0.69046 0.80824 0.0
H1143 H 0.3368 0.35565 0.79699 0.0
H1144 H 0.40421 0.43259 0.80911 0.0
H1145 H 0.40324 0.4173 0.83688 0.0
H1146 H 0.30184 0.34916 0.83152 0.0
H1147 H 0.28774 0.31373 0.83384 0.0
H1148 H 0.29683 0.32849 0.81423 0.0
H1149 H 0.32722 0.30809 0.81008 0.0
H1150 H 0.31797 0.29295 0.82965 0.0
H1151 H 0.35259 0.31426 0.82469 0.0
H1152 H 0.3916 0.39581 0.86395 0.0
H1153 H 0.36986 0.36975 0.88837 0.0
H1154 H 0.3088 0.30746 0.85893 0.0
C1155 C 0.35198 0.36884 0.80535 0.0
C1156 C 0.37091 0.3951 0.8009 0.0
C1157 C 0.38978 0.41227 0.81229 0.0
C1158 C 0.38939 0.40376 0.82807 0.0
C1159 C 0.36987 0.37805 0.83229 0.0
C1160 C 0.35155 0.36078 0.82125 0.0
C1161 C 0.33074 0.3354 0.82929 0.0
C1162 C 0.30264 0.33149 0.82709 0.0
C1163 C 0.33223 0.31125 0.82306 0.0
C1164 C 0.33976 0.34145 0.84659 0.0
C1165 C 0.36262 0.36594 0.84804 0.0
C1166 C 0.3739 0.37642 0.86295 0.0
C1167 C 0.36139 0.36153 0.87675 0.0
C1168 C 0.3377 0.3366 0.87554 0.0
C1169 C 0.327 0.32639 0.86023 0.0
H1170 H 0.74104 0.00712 0.85989 0.0
H1171 H 0.71598 0.05941 0.881 0.0
H1172 H 0.69302 0.05817 0.85563 0.0
H1173 H 0.75365 0.0354 0.8201 0.0
H1174 H 0.74162 0.00368 0.81036 0.0
H1175 H 0.75628 0.00921 0.83003 0.0
H1176 H 0.71366 0.96807 0.84088 0.0
H1177 H 0.699 0.96227 0.82122 0.0
H1178 H 0.68185 0.96603 0.83816 0.0
H1179 H 0.67099 0.04905 0.82807 0.0
H1180 H 0.65151 0.03251 0.80118 0.0
H1181 H 0.6932 0.98799 0.79836 0.0
C1182 C 0.73073 0.01833 0.85921 0.0
C1183 C 0.73015 0.03328 0.87241 0.0
C1184 C 0.71657 0.04778 0.87101 0.0
C1185 C 0.70359 0.04725 0.85665 0.0
C1186 C 0.70467 0.03236 0.84382 0.0
C1187 C 0.71797 0.01822 0.84501 0.0
C1188 C 0.71593 0.00338 0.82969 0.0
C1189 C 0.74351 0.01354 0.8221 0.0
C1190 C 0.70176 0.97315 0.83267 0.0
C1191 C 0.69904 0.01099 0.81971 0.0
C1192 C 0.69274 0.02776 0.82799 0.0
C1193 C 0.67607 0.03618 0.82142 0.0
C1194 C 0.66516 0.02676 0.80614 0.0
C1195 C 0.6711 0.00923 0.79763 0.0
C1196 C 0.68867 0.00176 0.80443 0.0
H1197 H 0.70786 0.04717 0.1305 0.0
H1198 H 0.73283 0.99161 0.14592 0.0
H1199 H 0.72349 0.99741 0.17402 0.0
H1200 H 0.73852 0.09214 0.16112 0.0
H1201 H 0.71313 0.10109 0.1637 0.0
H1202 H 0.71723 0.08927 0.14457 0.0
H1203 H 0.66776 0.0519 0.1449 0.0
H1204 H 0.66341 0.0638 0.164 0.0
H1205 H 0.65507 0.02957 0.16179 0.0
H1206 H 0.71733 0.0136 0.20055 0.0
H1207 H 0.71338 0.03823 0.22362 0.0
H1208 H 0.69265 0.08346 0.19111 0.0
C1209 C 0.71044 0.03555 0.13976 0.0
C1210 C 0.72078 0.01874 0.13606 0.0
C1211 C 0.72474 0.00447 0.14851 0.0
C1212 C 0.71946 0.0076 0.16451 0.0
C1213 C 0.71018 0.02505 0.16786 0.0
C1214 C 0.70546 0.03863 0.15584 0.0
C1215 C 0.69792 0.05808 0.16281 0.0
C1216 C 0.7179 0.08684 0.15775 0.0
C1217 C 0.66933 0.05036 0.15809 0.0
C1218 C 0.69995 0.05388 0.18057 0.0
C1219 C 0.70677 0.03454 0.18324 0.0
C1220 C 0.71153 0.02846 0.19864 0.0
C1221 C 0.70935 0.04259 0.21165 0.0
C1222 C 0.70256 0.06259 0.20915 0.0
C1223 C 0.69754 0.06802 0.19342 0.0
H1224 H 0.98039 0.70052 0.13167 0.0
H1225 H 0.06619 0.7348 0.13117 0.0
H1226 H 0.06444 0.71751 0.15848 0.0
H1227 H 0.9744 0.71455 0.17198 0.0
H1228 H 0.94388 0.68386 0.17569 0.0
H1229 H 0.95159 0.69755 0.15575 0.0
H1230 H 0.94671 0.65347 0.14486 0.0
H1231 H 0.93862 0.6395 0.16474 0.0
H1232 H 0.96574 0.64004 0.15387 0.0
H1233 H 0.05366 0.70002 0.18685 0.0
H1234 H 0.03389 0.67895 0.21296 0.0
H1235 H 0.95516 0.6544 0.19426 0.0
C1236 C 0.99875 0.70399 0.13721 0.0
C1237 C 0.02342 0.71896 0.12933 0.0
C1238 C 0.04705 0.72323 0.13697 0.0
C1239 C 0.04627 0.7136 0.15251 0.0
C1240 C 0.02169 0.69949 0.16013 0.0
C1241 C 0.9983 0.69428 0.15263 0.0
C1242 C 0.97451 0.6788 0.16347 0.0
C1243 C 0.96027 0.69465 0.16692 0.0
C1244 C 0.95527 0.65132 0.15631 0.0
C1245 C 0.98819 0.67644 0.17831 0.0
C1246 C 0.01543 0.68868 0.17622 0.0
C1247 C 0.03232 0.69007 0.18856 0.0
C1248 C 0.02098 0.67823 0.20335 0.0
C1249 C 0.99307 0.66497 0.20553 0.0
C1250 C 0.97657 0.66419 0.19285 0.0
H1251 H 0.30108 0.30022 0.15272 0.0
H1252 H 0.3618 0.35384 0.11945 0.0
H1253 H 0.39197 0.37689 0.1422 0.0
H1254 H 0.31683 0.3484 0.1859 0.0
H1255 H 0.31089 0.32387 0.20105 0.0
H1256 H 0.29281 0.31385 0.18239 0.0
H1257 H 0.30908 0.28014 0.17769 0.0
H1258 H 0.32722 0.29006 0.19629 0.0
H1259 H 0.34429 0.2917 0.17789 0.0
H1260 H 0.41669 0.39146 0.16801 0.0
H1261 H 0.43522 0.39579 0.19514 0.0
H1262 H 0.35896 0.33204 0.21191 0.0
C1263 C 0.3205 0.31722 0.15027 0.0
C1264 C 0.32907 0.32549 0.13436 0.0
C1265 C 0.35484 0.34734 0.13157 0.0
C1266 C 0.37205 0.36059 0.14441 0.0
C1267 C 0.36318 0.35166 0.15994 0.0
C1268 C 0.33803 0.33047 0.16294 0.0
C1269 C 0.33431 0.32333 0.18062 0.0
C1270 C 0.31241 0.32763 0.18792 0.0
C1271 C 0.32839 0.29461 0.18327 0.0
C1272 C 0.36151 0.34344 0.18704 0.0
C1273 C 0.37769 0.3598 0.17491 0.0
C1274 C 0.40413 0.37899 0.17764 0.0
C1275 C 0.41448 0.38125 0.1931 0.0
C1276 C 0.39849 0.36433 0.20564 0.0
C1277 C 0.37152 0.34549 0.20261 0.0
H1278 H 0.65149 0.65956 0.54195 0.0
H1279 H 0.64904 0.73072 0.52896 0.0
H1280 H 0.66572 0.72957 0.50194 0.0
H1281 H 0.71112 0.67374 0.51784 0.0
H1282 H 0.69741 0.63936 0.51215 0.0
H1283 H 0.68863 0.64767 0.53116 0.0
H1284 H 0.63866 0.61964 0.52375 0.0
H1285 H 0.64727 0.61139 0.50471 0.0
H1286 H 0.62692 0.62679 0.50544 0.0
H1287 H 0.6787 0.71875 0.47577 0.0
H1288 H 0.68692 0.69857 0.45196 0.0
H1289 H 0.6801 0.63381 0.48148 0.0
C1290 C 0.65515 0.67524 0.53352 0.0
C1291 C 0.64924 0.69537 0.53754 0.0
C1292 C 0.65356 0.71518 0.52611 0.0
C1293 C 0.66309 0.71475 0.51075 0.0
C1294 C 0.66814 0.69431 0.50699 0.0
C1295 C 0.6644 0.67493 0.51803 0.0
C1296 C 0.66924 0.65396 0.51044 0.0
C1297 C 0.69302 0.65368 0.51837 0.0
C1298 C 0.64402 0.62632 0.51113 0.0
C1299 C 0.67568 0.66432 0.49339 0.0
C1300 C 0.67524 0.68778 0.49172 0.0
C1301 C 0.67941 0.70054 0.47695 0.0
C1302 C 0.684 0.68891 0.46349 0.0
C1303 C 0.68422 0.6647 0.46488 0.0
C1304 C 0.68025 0.65245 0.48007 0.0
H1305 H 0.41222 0.07869 0.48223 0.0
H1306 H 0.35869 0.01688 0.44948 0.0
H1307 H 0.33859 0.98595 0.47232 0.0
H1308 H 0.42586 0.03864 0.50642 0.0
H1309 H 0.42699 0.05497 0.52503 0.0
H1310 H 0.43467 0.07318 0.50649 0.0
H1311 H 0.39827 0.08552 0.5123 0.0
H1312 H 0.39052 0.0674 0.53094 0.0
H1313 H 0.36467 0.05951 0.51636 0.0
H1314 H 0.32873 0.96029 0.49804 0.0
H1315 H 0.32859 0.94221 0.52489 0.0
H1316 H 0.3874 0.0211 0.54112 0.0
C1317 C 0.39585 0.05883 0.4799 0.0
C1318 C 0.38693 0.05017 0.4641 0.0
C1319 C 0.36571 0.02395 0.46151 0.0
C1320 C 0.35417 0.00627 0.47441 0.0
C1321 C 0.36387 0.01525 0.48981 0.0
C1322 C 0.38404 0.04102 0.49264 0.0
C1323 C 0.39211 0.0452 0.51015 0.0
C1324 C 0.42165 0.05347 0.51213 0.0
C1325 C 0.38602 0.06562 0.51789 0.0
C1326 C 0.37399 0.0175 0.51665 0.0
C1327 C 0.35772 0.00057 0.50475 0.0
C1328 C 0.34094 0.97348 0.50753 0.0
C1329 C 0.34106 0.96338 0.52279 0.0
C1330 C 0.35772 0.98035 0.53509 0.0
C1331 C 0.37399 0.00782 0.53204 0.0
H1332 H 0.97144 0.37798 0.48397 0.0
H1333 H 0.015 0.34878 0.45638 0.0
H1334 H 0.03811 0.34767 0.48109 0.0
H1335 H 0.02444 0.42117 0.50872 0.0
H1336 H 0.0043 0.41514 0.52638 0.0
H1337 H 0.98975 0.41132 0.50682 0.0
H1338 H 0.95377 0.36296 0.51393 0.0
H1339 H 0.96835 0.3666 0.53352 0.0
H1340 H 0.96384 0.33974 0.5206 0.0
H1341 H 0.05904 0.35341 0.50846 0.0
H1342 H 0.07678 0.36646 0.53597 0.0
H1343 H 0.01865 0.39093 0.5456 0.0
C1344 C 0.9856 0.37103 0.48314 0.0
C1345 C 0.99141 0.3634 0.46827 0.0
C1346 C 0.01022 0.35465 0.46767 0.0
C1347 C 0.02336 0.35388 0.48164 0.0
C1348 C 0.01728 0.36172 0.49611 0.0
C1349 C 0.99879 0.37008 0.49694 0.0
C1350 C 0.99689 0.37892 0.51373 0.0
C1351 C 0.0043 0.40838 0.51392 0.0
C1352 C 0.96906 0.36098 0.52086 0.0
C1353 C 0.01766 0.37484 0.52219 0.0
C1354 C 0.02906 0.36469 0.51187 0.0
C1355 C 0.04998 0.36098 0.5167 0.0
C1356 C 0.0599 0.36841 0.53235 0.0
C1357 C 0.04888 0.3794 0.54296 0.0
C1358 C 0.0271 0.38205 0.53788 0.0
H1359 H 0.396 0.39709 0.54522 0.0
H1360 H 0.31667 0.38188 0.53369 0.0
H1361 H 0.3201 0.36579 0.50685 0.0
H1362 H 0.42402 0.42301 0.50785 0.0
H1363 H 0.44543 0.40879 0.50733 0.0
H1364 H 0.43555 0.41595 0.52628 0.0
H1365 H 0.41664 0.36692 0.53512 0.0
H1366 H 0.42663 0.35963 0.5162 0.0
H1367 H 0.39247 0.34046 0.52266 0.0
H1368 H 0.33366 0.355 0.48048 0.0
H1369 H 0.35642 0.35036 0.45663 0.0
H1370 H 0.42707 0.37326 0.48531 0.0
C1371 C 0.37911 0.38977 0.53719 0.0
C1372 C 0.35597 0.3905 0.54157 0.0
C1373 C 0.33452 0.38133 0.53059 0.0
C1374 C 0.33627 0.37213 0.51533 0.0
C1375 C 0.35961 0.37222 0.51124 0.0
C1376 C 0.38062 0.3807 0.52187 0.0
C1377 C 0.40419 0.38061 0.51411 0.0
C1378 C 0.42874 0.40876 0.51388 0.0
C1379 C 0.41034 0.36071 0.52253 0.0
C1380 C 0.39336 0.3713 0.49738 0.0
C1381 C 0.36753 0.36631 0.49599 0.0
C1382 C 0.35379 0.35857 0.48147 0.0
C1383 C 0.36687 0.35602 0.46799 0.0
C1384 C 0.39345 0.36136 0.46913 0.0
C1385 C 0.40667 0.36885 0.48408 0.0
H1386 H 0.67986 0.03821 0.54216 0.0
H1387 H 0.67074 0.96263 0.52697 0.0
H1388 H 0.68423 0.98017 0.49946 0.0
H1389 H 0.65023 0.04698 0.50874 0.0
H1390 H 0.67125 0.08261 0.50752 0.0
H1391 H 0.66592 0.0661 0.52654 0.0
H1392 H 0.71684 0.08671 0.53024 0.0
H1393 H 0.72237 0.10351 0.51124 0.0
H1394 H 0.73604 0.08209 0.51488 0.0
H1395 H 0.69411 0.00431 0.47306 0.0
H1396 H 0.69789 0.03254 0.44979 0.0
H1397 H 0.69816 0.09127 0.48212 0.0
C1398 C 0.68164 0.02572 0.53315 0.0
C1399 C 0.67474 0.99927 0.53667 0.0
C1400 C 0.67626 0.98309 0.52448 0.0
C1401 C 0.68395 0.99289 0.50886 0.0
C1402 C 0.68986 0.01885 0.50561 0.0
C1403 C 0.6888 0.03505 0.51743 0.0
C1404 C 0.693 0.06097 0.51047 0.0
C1405 C 0.66865 0.06434 0.5135 0.0
C1406 C 0.71859 0.08473 0.51711 0.0
C1407 C 0.69586 0.05652 0.49287 0.0
C1408 C 0.69451 0.03234 0.49032 0.0
C1409 C 0.69549 0.02343 0.47493 0.0
C1410 C 0.69761 0.03954 0.46179 0.0
C1411 C 0.69829 0.06402 0.46418 0.0
C1412 C 0.69775 0.07267 0.47994 0.0
H1413 H 0.02791 0.67926 0.4644 0.0
H1414 H 0.94791 0.64952 0.48257 0.0
H1415 H 0.9657 0.66297 0.50996 0.0
H1416 H 0.04868 0.65451 0.49536 0.0
H1417 H 0.08238 0.68194 0.49631 0.0
H1418 H 0.06412 0.67449 0.4778 0.0
H1419 H 0.07245 0.72272 0.4766 0.0
H1420 H 0.09084 0.73035 0.49514 0.0
H1421 H 0.06295 0.7358 0.49337 0.0
H1422 H 0.99112 0.67444 0.53556 0.0
H1423 H 0.02237 0.68185 0.5577 0.0
H1424 H 0.08592 0.70332 0.52318 0.0
C1425 C 0.01431 0.67637 0.47409 0.0
C1426 C 0.98661 0.66365 0.4714 0.0
C1427 C 0.96923 0.65938 0.48441 0.0
C1428 C 0.97916 0.66706 0.49999 0.0
C1429 C 0.00651 0.67894 0.50236 0.0
C1430 C 0.02389 0.68362 0.48979 0.0
C1431 C 0.05199 0.6939 0.49584 0.0
C1432 C 0.06238 0.67508 0.49105 0.0
C1433 C 0.07066 0.72239 0.48988 0.0
C1434 C 0.0475 0.69339 0.51378 0.0
C1435 C 0.02122 0.68516 0.51726 0.0
C1436 C 0.01186 0.68133 0.53299 0.0
C1437 C 0.02972 0.68555 0.54549 0.0
C1438 C 0.05656 0.6933 0.54215 0.0
C1439 C 0.0656 0.69778 0.5261 0.0
H1440 H 0.04192 0.31981 0.03978 0.0
H1441 H 0.96955 0.24347 0.04515 0.0
H1442 H 0.96218 0.24142 0.01606 0.0
H1443 H 0.01796 0.34417 0.00532 0.0
H1444 H 0.04994 0.3596 0.99553 0.0
H1445 H 0.04797 0.3573 0.0171 0.0
H1446 H 0.07541 0.33321 0.0169 0.0
H1447 H 0.07739 0.33537 0.99537 0.0
H1448 H 0.06401 0.30344 0.00507 0.0
H1449 H 0.96527 0.24391 0.98686 0.0
H1450 H 0.97826 0.25165 0.95839 0.0
H1451 H 0.04791 0.32699 0.97059 0.0
C1452 C 0.02421 0.30308 0.03481 0.0
C1453 C 0.00623 0.28184 0.04471 0.0
C1454 C 0.98358 0.25994 0.03779 0.0
C1455 C 0.97913 0.25864 0.02128 0.0
C1456 C 0.99745 0.27944 0.01177 0.0
C1457 C 0.01948 0.30137 0.01818 0.0
C1458 C 0.03709 0.31977 0.00494 0.0
C1459 C 0.03831 0.34682 0.00577 0.0
C1460 C 0.06513 0.32313 0.00561 0.0
C1461 C 0.02195 0.3042 0.99016 0.0
C1462 C 0.99901 0.28113 0.9945 0.0
C1463 C 0.98282 0.26217 0.98326 0.0
C1464 C 0.9904 0.26668 0.96714 0.0
C1465 C 0.01378 0.29005 0.96237 0.0
C1466 C 0.02954 0.30933 0.97396 0.0
H1467 H 0.78816 0.7972 0.965 0.0
H1468 H 0.71983 0.72003 0.95421 0.0
H1469 H 0.71261 0.71029 0.98338 0.0
H1470 H 0.81286 0.77631 0.99728 0.0
H1471 H 0.82371 0.80636 0.00873 0.0
H1472 H 0.82246 0.8073 0.98718 0.0
H1473 H 0.79179 0.82785 0.98894 0.0
H1474 H 0.79307 0.82712 0.0105 0.0
H1475 H 0.76138 0.81103 1.00036 0.0
H1476 H 0.71429 0.70908 0.01418 0.0
H1477 H 0.724 0.71685 0.04329 0.0
H1478 H 0.79141 0.79479 0.03283 0.0
C1479 C 0.77151 0.77828 0.96872 0.0
C1480 C 0.7545 0.75936 0.95736 0.0
C1481 C 0.73303 0.73483 0.96274 0.0
C1482 C 0.72883 0.72915 0.97926 0.0
C1483 C 0.74628 0.74823 0.99014 0.0
C1484 C 0.76711 0.77235 0.98501 0.0
C1485 C 0.78342 0.78946 0.9989 0.0
C1486 C 0.81232 0.79518 0.99796 0.0
C1487 C 0.78233 0.81539 0.99972 0.0
C1488 C 0.76868 0.77123 0.01274 0.0
C1489 C 0.74728 0.74753 0.00755 0.0
C1490 C 0.73096 0.72761 0.01834 0.0
C1491 C 0.73664 0.73216 0.03483 0.0
C1492 C 0.75846 0.7564 0.0403 0.0
C1493 C 0.77459 0.77605 0.02904 0.0
H1494 H 0.27034 0.0297 0.96699 0.0
H1495 H 0.34043 0.02453 0.95511 0.0
H1496 H 0.34987 0.02422 0.98413 0.0
H1497 H 0.2984 0.0734 1.00073 0.0
H1498 H 0.26772 0.05769 0.01194 0.0
H1499 H 0.26692 0.05751 0.99035 0.0
H1500 H 0.23813 0.00601 0.99048 0.0
H1501 H 0.23882 0.00602 0.01206 0.0
H1502 H 0.24994 0.98672 1.00095 0.0
H1503 H 0.35081 0.02399 0.01496 0.0
H1504 H 0.3433 0.02401 0.04425 0.0
H1505 H 0.27278 0.0298 0.03496 0.0
C1506 C 0.28771 0.02848 0.97044 0.0
C1507 C 0.30464 0.02706 0.95881 0.0
C1508 C 0.32719 0.02561 0.96385 0.0
C1509 C 0.33269 0.02543 0.98028 0.0
C1510 C 0.31548 0.02684 0.99145 0.0
C1511 C 0.29348 0.02839 0.98667 0.0
C1512 C 0.27798 0.02975 1.00085 0.0
C1513 C 0.27776 0.05616 1.00097 0.0
C1514 C 0.24954 0.00569 1.00109 0.0
C1515 C 0.29452 0.02852 0.01446 0.0
C1516 C 0.31611 0.02689 0.00889 0.0
C1517 C 0.33399 0.02532 0.01941 0.0
C1518 C 0.32959 0.02536 0.03601 0.0
C1519 C 0.30749 0.02694 0.04186 0.0
C1520 C 0.28989 0.02862 0.03088 0.0
H1521 H 0.04201 0.78516 0.96488 0.0
H1522 H 0.02039 0.70373 0.95381 0.0
H1523 H 0.01838 0.69396 0.98296 0.0
H1524 H 0.08332 0.79356 0.99924 0.0
H1525 H 0.07245 0.81354 0.00983 0.0
H1526 H 0.07318 0.81377 0.98824 0.0
H1527 H 0.02327 0.80027 0.9876 0.0
H1528 H 0.02235 0.79986 0.00917 0.0
H1529 H 0.99929 0.7707 0.99805 0.0
H1530 H 0.01702 0.69338 0.01397 0.0
H1531 H 0.01752 0.70236 0.04315 0.0
H1532 H 0.04011 0.78419 0.03254 0.0
C1533 C 0.03706 0.76527 0.96852 0.0
C1534 C 0.03138 0.74519 0.9571 0.0
C1535 C 0.02492 0.71944 0.96239 0.0
C1536 C 0.02369 0.71373 0.9789 0.0
C1537 C 0.02909 0.73404 0.98986 0.0
C1538 C 0.03578 0.75933 0.98479 0.0
C1539 C 0.04014 0.77769 0.99871 0.0
C1540 C 0.06899 0.80101 0.99902 0.0
C1541 C 0.02007 0.7877 0.99835 0.0
C1542 C 0.03472 0.75885 0.01251 0.0
C1543 C 0.02838 0.73373 0.0073 0.0
C1544 C 0.02211 0.71304 0.01813 0.0
C1545 C 0.0224 0.71827 0.03466 0.0
C1546 C 0.0289 0.74396 0.04009 0.0
C1547 C 0.03514 0.76435 0.0288 0.0
H1548 H 0.27562 0.26058 0.03962 0.0
H1549 H 0.32984 0.34266 0.05291 0.0
H1550 H 0.34051 0.35429 0.02421 0.0
H1551 H 0.31389 0.25688 0.00661 0.0
H1552 H 0.28487 0.23639 0.99459 0.0
H1553 H 0.28261 0.23463 0.01615 0.0
H1554 H 0.24426 0.24535 0.01519 0.0
H1555 H 0.24637 0.24709 0.99365 0.0
H1556 H 0.24934 0.27493 0.00497 0.0
H1557 H 0.34469 0.3566 0.99365 0.0
H1558 H 0.34025 0.34981 0.96419 0.0
H1559 H 0.28229 0.26645 0.97162 0.0
C1560 C 0.28989 0.28099 0.03653 0.0
C1561 C 0.30203 0.30071 0.04847 0.0
C1562 C 0.32036 0.32724 0.04392 0.0
C1563 C 0.32657 0.33399 0.02767 0.0
C1564 C 0.31417 0.314 0.01617 0.0
C1565 C 0.29611 0.28806 0.02044 0.0
C1566 C 0.28469 0.2704 0.00587 0.0
C1567 C 0.29196 0.24827 0.00581 0.0
C1568 C 0.25437 0.25877 0.00487 0.0
C1569 C 0.29901 0.29042 0.99269 0.0
C1570 C 0.31612 0.31543 0.99879 0.0
C1571 C 0.33135 0.33708 0.98876 0.0
C1572 C 0.32876 0.33305 0.97206 0.0
C1573 C 0.31091 0.30764 0.96565 0.0
C1574 C 0.29607 0.28613 0.97616 0.0
H1575 H 0.79079 0.05365 0.96949 0.0
H1576 H 0.70798 0.01876 0.9555 0.0
H1577 H 0.69507 0.01491 0.98417 0.0
H1578 H 0.77987 0.01195 0.00254 0.0
H1579 H 0.80587 0.03748 0.01462 0.0
H1580 H 0.80834 0.03937 0.99311 0.0
H1581 H 0.8135 0.08642 0.99389 0.0
H1582 H 0.81106 0.08468 0.01544 0.0
H1583 H 0.78864 0.09118 0.0039 0.0
H1584 H 0.69153 0.01308 0.01496 0.0
H1585 H 0.69773 0.01237 0.0444 0.0
H1586 H 0.78284 0.04781 0.0372 0.0
C1587 C 0.76994 0.04552 0.9724 0.0
C1588 C 0.75039 0.03664 0.96028 0.0
C1589 C 0.7233 0.02581 0.96462 0.0
C1590 C 0.71581 0.02358 0.98086 0.0
C1591 C 0.73566 0.03229 0.99255 0.0
C1592 C 0.76218 0.04305 0.98845 0.0
C1593 C 0.77968 0.04969 0.00311 0.0
C1594 C 0.79428 0.03366 0.00335 0.0
C1595 C 0.79938 0.07978 0.00414 0.0
C1596 C 0.75891 0.04069 0.01617 0.0
C1597 C 0.73362 0.03091 0.00996 0.0
C1598 C 0.71129 0.02085 0.01992 0.0
C1599 C 0.71497 0.02055 0.03661 0.0
C1600 C 0.74073 0.03002 0.04307 0.0
C1601 C 0.76287 0.04044 0.03265 0.0
H1602 H 0.70936 0.61422 0.30091 0.0
H1603 H 0.69811 0.68067 0.28883 0.0
H1604 H 0.69694 0.68978 0.31784 0.0
H1605 H 0.66506 0.59074 0.33342 0.0
H1606 H 0.68486 0.58095 0.34515 0.0
H1607 H 0.6868 0.58128 0.32361 0.0
H1608 H 0.7379 0.61282 0.32504 0.0
H1609 H 0.73615 0.61249 0.34661 0.0
H1610 H 0.7511 0.64369 0.33595 0.0
H1611 H 0.69485 0.6897 0.34865 0.0
H1612 H 0.69216 0.68055 0.37787 0.0
H1613 H 0.70421 0.61371 0.36867 0.0
C1614 C 0.70698 0.63093 0.3043 0.0
C1615 C 0.70392 0.64682 0.29264 0.0
C1616 C 0.70063 0.66834 0.29761 0.0
C1617 C 0.69992 0.67362 0.31403 0.0
C1618 C 0.7026 0.65721 0.32524 0.0
C1619 C 0.70616 0.63636 0.32051 0.0
C1620 C 0.70748 0.62087 0.33469 0.0
C1621 C 0.68469 0.59175 0.33418 0.0
C1622 C 0.73478 0.62259 0.33562 0.0
C1623 C 0.7038 0.63599 0.34823 0.0
C1624 C 0.70116 0.657 0.34265 0.0
C1625 C 0.69704 0.67338 0.35312 0.0
C1626 C 0.69552 0.66804 0.36967 0.0
C1627 C 0.69797 0.64643 0.37551 0.0
C1628 C 0.70228 0.6304 0.36459 0.0
H1629 H 0.45142 0.12181 0.36982 0.0
H1630 H 0.37194 0.05576 0.37863 0.0
H1631 H 0.364 0.04989 0.34928 0.0
H1632 H 0.43491 0.14902 0.33576 0.0
H1633 H 0.46575 0.15827 0.32558 0.0
H1634 H 0.46447 0.15726 0.34716 0.0
H1635 H 0.48288 0.12469 0.34724 0.0
H1636 H 0.48416 0.12554 0.32567 0.0
H1637 H 0.46582 0.09414 0.33596 0.0
H1638 H 0.36602 0.05062 0.31843 0.0
H1639 H 0.37736 0.05884 0.28948 0.0
H1640 H 0.4551 0.12486 0.30194 0.0
C1641 C 0.43225 0.10618 0.36562 0.0
C1642 C 0.41228 0.08923 0.37648 0.0
C1643 C 0.38749 0.06901 0.37048 0.0
C1644 C 0.38284 0.06552 0.35385 0.0
C1645 C 0.40314 0.08251 0.34345 0.0
C1646 C 0.42729 0.10252 0.34917 0.0
C1647 C 0.44607 0.11803 0.33569 0.0
C1648 C 0.45321 0.14738 0.33607 0.0
C1649 C 0.47121 0.11543 0.33617 0.0
C1650 C 0.42883 0.10364 0.32141 0.0
C1651 C 0.40415 0.08314 0.32602 0.0
C1652 C 0.38525 0.06674 0.31472 0.0
C1653 C 0.39183 0.07151 0.29833 0.0
C1654 C 0.41702 0.09256 0.29348 0.0
C1655 C 0.43558 0.10875 0.30524 0.0
H1656 H 0.93189 0.35588 0.37028 0.0
H1657 H 0.00979 0.36798 0.38273 0.0
H1658 H 0.01933 0.36623 0.35391 0.0
H1659 H 0.91868 0.31017 0.3373 0.0
H1660 H 0.90212 0.32366 0.32554 0.0
H1661 H 0.90133 0.32477 0.34711 0.0
H1662 H 0.921 0.3759 0.34605 0.0
H1663 H 0.92184 0.37495 0.32449 0.0
H1664 H 0.95183 0.39624 0.33552 0.0
H1665 H 0.02066 0.36494 0.32319 0.0
H1666 H 0.0136 0.36437 0.29381 0.0
H1667 H 0.93472 0.35284 0.30226 0.0
C1668 C 0.9509 0.35797 0.36699 0.0
C1669 C 0.97009 0.36202 0.37874 0.0
C1670 C 0.99477 0.36479 0.37391 0.0
C1671 C 0.00035 0.36381 0.35757 0.0
C1672 C 0.98099 0.35994 0.34627 0.0
C1673 C 0.95674 0.35701 0.35082 0.0
C1674 C 0.9395 0.35381 0.33645 0.0
C1675 C 0.9139 0.32647 0.33661 0.0
C1676 C 0.93318 0.37658 0.33558 0.0
C1677 C 0.95789 0.35569 0.32302 0.0
C1678 C 0.98171 0.35912 0.32885 0.0
C1679 C 0.00199 0.36207 0.31853 0.0
C1680 C 0.99783 0.36171 0.30188 0.0
C1681 C 0.9736 0.35846 0.29575 0.0
C1682 C 0.95341 0.3552 0.30654 0.0
H1683 H 0.68954 0.07219 0.3708 0.0
H1684 H 0.74638 0.15525 0.38021 0.0
H1685 H 0.75809 0.16236 0.35156 0.0
H1686 H 0.72715 0.06275 0.33708 0.0
H1687 H 0.69721 0.04218 0.32582 0.0
H1688 H 0.69623 0.04212 0.34744 0.0
H1689 H 0.65902 0.0544 0.34655 0.0
H1690 H 0.65994 0.05457 0.32498 0.0
H1691 H 0.66462 0.08362 0.33567 0.0
H1692 H 0.75987 0.16247 0.3223 0.0
H1693 H 0.75111 0.15576 0.29332 0.0
H1694 H 0.69284 0.07272 0.30164 0.0
C1695 C 0.70499 0.09161 0.36681 0.0
C1696 C 0.71731 0.11315 0.37766 0.0
C1697 C 0.73682 0.13852 0.37205 0.0
C1698 C 0.74371 0.14271 0.35583 0.0
C1699 C 0.73082 0.12135 0.34532 0.0
C1700 C 0.71187 0.09626 0.35049 0.0
C1701 C 0.69909 0.07765 0.33633 0.0
C1702 C 0.7053 0.05482 0.33669 0.0
C1703 C 0.66888 0.06695 0.33586 0.0
C1704 C 0.71319 0.09649 0.32246 0.0
C1705 C 0.73169 0.12147 0.32803 0.0
C1706 C 0.74581 0.14291 0.31774 0.0
C1707 C 0.74061 0.13893 0.30132 0.0
C1708 C 0.72149 0.1137 0.29529 0.0
C1709 C 0.70798 0.09205 0.30595 0.0
H1710 H 0.94202 0.60828 0.37156 0.0
H1711 H 0.00241 0.6899 0.38165 0.0
H1712 H 0.00993 0.6986 0.3524 0.0
H1713 H 0.97506 0.59835 0.33827 0.0
H1714 H 0.94451 0.57792 0.32751 0.0
H1715 H 0.94439 0.57873 0.34909 0.0
H1716 H 0.90812 0.59242 0.34845 0.0
H1717 H 0.90818 0.59173 0.32687 0.0
H1718 H 0.91407 0.62146 0.33724 0.0
H1719 H 0.00961 0.69781 0.3214 0.0
H1720 H 0.0025 0.68724 0.29231 0.0
H1721 H 0.94275 0.60601 0.30385 0.0
C1722 C 0.95689 0.62803 0.36768 0.0
C1723 C 0.97161 0.64845 0.37885 0.0
C1724 C 0.99093 0.67397 0.37325 0.0
C1725 C 0.99528 0.67907 0.35668 0.0
C1726 C 0.98021 0.65839 0.34597 0.0
C1727 C 0.9615 0.63336 0.35134 0.0
C1728 C 0.94784 0.61434 0.33764 0.0
C1729 C 0.95329 0.59096 0.33816 0.0
C1730 C 0.91778 0.60442 0.33755 0.0
C1731 C 0.96167 0.63249 0.32361 0.0
C1732 C 0.98024 0.65787 0.32853 0.0
C1733 C 0.99516 0.67796 0.31746 0.0
C1734 C 0.99099 0.67182 0.30099 0.0
C1735 C 0.97214 0.64581 0.29585 0.0
C1736 C 0.95739 0.62607 0.30738 0.0
H1737 H 0.45026 0.35385 0.37215 0.0
H1738 H 0.37762 0.35464 0.38329 0.0
H1739 H 0.36818 0.35385 0.35422 0.0
H1740 H 0.46893 0.39674 0.33852 0.0
H1741 H 0.48212 0.37925 0.32741 0.0
H1742 H 0.48221 0.37874 0.34899 0.0
H1743 H 0.45608 0.32713 0.34865 0.0
H1744 H 0.45594 0.32748 0.32705 0.0
H1745 H 0.425 0.30986 0.3379 0.0
H1746 H 0.36813 0.35487 0.32342 0.0
H1747 H 0.37724 0.357 0.2942 0.0
H1748 H 0.44963 0.35501 0.30417 0.0
C1749 C 0.43224 0.35366 0.36852 0.0
C1750 C 0.41464 0.35427 0.37996 0.0
C1751 C 0.39134 0.35411 0.3747 0.0
C1752 C 0.38583 0.35367 0.35822 0.0
C1753 C 0.40379 0.35329 0.34723 0.0
C1754 C 0.42647 0.35318 0.35222 0.0
C1755 C 0.44299 0.35333 0.33817 0.0
C1756 C 0.47069 0.37851 0.33829 0.0
C1757 C 0.44511 0.32793 0.33793 0.0
C1758 C 0.42622 0.35371 0.32443 0.0
C1759 C 0.40366 0.35368 0.3298 0.0
C1760 C 0.38565 0.35473 0.31911 0.0
C1761 C 0.39097 0.35594 0.30256 0.0
C1762 C 0.41405 0.35605 0.29692 0.0
C1763 C 0.4317 0.35477 0.30807 0.0
H1764 H 0.36491 0.93491 0.7021 0.0
H1765 H 0.35987 0.00604 0.71052 0.0
H1766 H 0.36015 0.01301 0.68114 0.0
H1767 H 0.40974 0.96056 0.66853 0.0
H1768 H 0.39445 0.92904 0.65821 0.0
H1769 H 0.39363 0.92992 0.67978 0.0
H1770 H 0.34216 0.9009 0.67919 0.0
H1771 H 0.34281 0.9 0.65762 0.0
H1772 H 0.3231 0.91179 0.66761 0.0
H1773 H 0.35939 0.01081 0.65041 0.0
H1774 H 0.36056 0.00125 0.62149 0.0
H1775 H 0.36793 0.93267 0.63405 0.0
C1776 C 0.36387 0.95199 0.69779 0.0
C1777 C 0.36224 0.96989 0.70855 0.0
C1778 C 0.36114 0.9921 0.70244 0.0
C1779 C 0.36122 0.99616 0.6858 0.0
C1780 C 0.36268 0.97796 0.67549 0.0
C1781 C 0.36424 0.95646 0.68131 0.0
C1782 C 0.3661 0.93997 0.66788 0.0
C1783 C 0.39255 0.93988 0.66865 0.0
C1784 C 0.34211 0.91149 0.66809 0.0
C1785 C 0.36519 0.9554 0.65353 0.0
C1786 C 0.36304 0.97716 0.65808 0.0
C1787 C 0.36125 0.99392 0.64674 0.0
C1788 C 0.36187 0.98833 0.63037 0.0
C1789 C 0.3645 0.96635 0.62556 0.0
C1790 C 0.36614 0.94977 0.63735 0.0
H1791 H 0.10211 0.39807 0.70367 0.0
H1792 H 0.03059 0.40073 0.71521 0.0
H1793 H 0.01715 0.39278 0.68664 0.0
H1794 H 0.11683 0.43353 0.6687 0.0
H1795 H 0.12903 0.41473 0.65805 0.0
H1796 H 0.13071 0.41643 0.67956 0.0
H1797 H 0.10417 0.36491 0.6812 0.0
H1798 H 0.10248 0.36304 0.65961 0.0
H1799 H 0.07235 0.34676 0.67133 0.0
H1800 H 0.0154 0.39163 0.65624 0.0
H1801 H 0.02475 0.3958 0.62707 0.0
H1802 H 0.09651 0.39211 0.63588 0.0
C1803 C 0.08326 0.39628 0.70026 0.0
C1804 C 0.06732 0.39992 0.71163 0.0
C1805 C 0.04297 0.39777 0.7067 0.0
C1806 C 0.0352 0.39326 0.6905 0.0
C1807 C 0.0518 0.39052 0.67949 0.0
C1808 C 0.07516 0.39159 0.68424 0.0
C1809 C 0.09061 0.39019 0.67001 0.0
C1810 C 0.11842 0.41521 0.66903 0.0
C1811 C 0.0925 0.3647 0.67057 0.0
C1812 C 0.07288 0.38925 0.65643 0.0
C1813 C 0.05045 0.38921 0.66209 0.0
C1814 C 0.03256 0.39101 0.65169 0.0
C1815 C 0.03802 0.39339 0.63515 0.0
C1816 C 0.06114 0.3939 0.62921 0.0
C1817 C 0.07834 0.39114 0.64001 0.0
H1818 H 0.59213 0.69815 0.70377 0.0
H1819 H 0.65429 0.68005 0.7153 0.0
H1820 H 0.66146 0.67653 0.68628 0.0
H1821 H 0.56465 0.65306 0.67056 0.0
H1822 H 0.55735 0.67506 0.65918 0.0
H1823 H 0.55755 0.67622 0.68076 0.0
H1824 H 0.5922 0.72667 0.67993 0.0
H1825 H 0.59209 0.72566 0.65835 0.0
H1826 H 0.62295 0.73796 0.66915 0.0
H1827 H 0.66214 0.67617 0.65547 0.0
H1828 H 0.6553 0.67772 0.62617 0.0
H1829 H 0.59182 0.69475 0.6358 0.0
C1830 C 0.60729 0.69347 0.70022 0.0
C1831 C 0.62273 0.68947 0.71176 0.0
C1832 C 0.64225 0.6832 0.70663 0.0
C1833 C 0.64645 0.68119 0.69019 0.0
C1834 C 0.63084 0.68531 0.6791 0.0
C1835 C 0.61157 0.69119 0.68397 0.0
C1836 C 0.59721 0.69453 0.66984 0.0
C1837 C 0.56743 0.67346 0.67011 0.0
C1838 C 0.60138 0.72289 0.66929 0.0
C1839 C 0.61144 0.68976 0.65619 0.0
C1840 C 0.63086 0.68455 0.66167 0.0
C1841 C 0.64688 0.68009 0.65107 0.0
C1842 C 0.64289 0.68101 0.63448 0.0
C1843 C 0.62295 0.6862 0.62873 0.0
C1844 C 0.60709 0.69052 0.6398 0.0
H1845 H 0.393 0.43784 0.70507 0.0
H1846 H 0.32447 0.36023 0.71455 0.0
H1847 H 0.31967 0.35054 0.68542 0.0
H1848 H 0.36637 0.45212 0.6723 0.0
H1849 H 0.39705 0.46963 0.6612 0.0
H1850 H 0.39781 0.46853 0.68273 0.0
H1851 H 0.42899 0.44857 0.68131 0.0
H1852 H 0.42846 0.44976 0.65972 0.0
H1853 H 0.41909 0.41878 0.66977 0.0
H1854 H 0.31956 0.35157 0.65497 0.0
H1855 H 0.32337 0.36371 0.62622 0.0
H1856 H 0.39118 0.44114 0.63711 0.0
C1857 C 0.37745 0.41848 0.70108 0.0
C1858 C 0.35928 0.39965 0.71207 0.0
C1859 C 0.33877 0.37483 0.70633 0.0
C1860 C 0.33593 0.36916 0.68981 0.0
C1861 C 0.35378 0.38851 0.67923 0.0
C1862 C 0.37421 0.41265 0.68468 0.0
C1863 C 0.38907 0.43119 0.67092 0.0
C1864 C 0.38746 0.45687 0.67185 0.0
C1865 C 0.41813 0.43743 0.6704 0.0
C1866 C 0.37337 0.41407 0.65685 0.0
C1867 C 0.35336 0.38934 0.66182 0.0
C1868 C 0.33539 0.37074 0.65095 0.0
C1869 C 0.3377 0.37778 0.63464 0.0
C1870 C 0.35762 0.40331 0.62944 0.0
C1871 C 0.37589 0.42139 0.6407 0.0
H1872 H 0.60624 0.95509 0.70255 0.0
H1873 H 0.68614 0.0171 0.7149 0.0
H1874 H 0.69695 0.02607 0.68594 0.0
H1875 H 0.62366 0.92943 0.66931 0.0
H1876 H 0.59459 0.92254 0.6578 0.0
H1877 H 0.59326 0.92227 0.67936 0.0
H1878 H 0.57781 0.9572 0.67873 0.0
H1879 H 0.57906 0.95755 0.65715 0.0
H1880 H 0.59757 0.98815 0.66821 0.0
H1881 H 0.69902 0.02632 0.65506 0.0
H1882 H 0.69191 0.01814 0.62576 0.0
H1883 H 0.61044 0.95631 0.63479 0.0
C1884 C 0.62599 0.97072 0.69921 0.0
C1885 C 0.64538 0.98542 0.71094 0.0
C1886 C 0.67098 0.00565 0.70607 0.0
C1887 C 0.67727 0.01086 0.68967 0.0
C1888 C 0.65766 0.99574 0.67839 0.0
C1889 C 0.6325 0.97617 0.68303 0.0
C1890 C 0.615 0.96219 0.66877 0.0
C1891 C 0.60612 0.93235 0.66882 0.0
C1892 C 0.59094 0.96655 0.66819 0.0
C1893 C 0.63425 0.97666 0.65529 0.0
C1894 C 0.65877 0.99602 0.66096 0.0
C1895 C 0.67982 0.01133 0.65053 0.0
C1896 C 0.67563 0.00657 0.63393 0.0
C1897 C 0.65063 0.98667 0.62801 0.0
C1898 C 0.62977 0.97177 0.63891 0.0
H1899 H 0.11767 0.72268 0.70022 0.0
H1900 H 0.03981 0.65489 0.71037 0.0
H1901 H 0.02943 0.64987 0.68134 0.0
H1902 H 0.09701 0.74915 0.66619 0.0
H1903 H 0.1275 0.75898 0.65542 0.0
H1904 H 0.1274 0.75888 0.67704 0.0
H1905 H 0.14758 0.72784 0.67704 0.0
H1906 H 0.14768 0.72779 0.65548 0.0
H1907 H 0.13082 0.69674 0.66627 0.0
H1908 H 0.02976 0.64942 0.65098 0.0
H1909 H 0.04048 0.65404 0.622 0.0
H1910 H 0.11775 0.72272 0.63211 0.0
C1911 C 0.09823 0.70708 0.69638 0.0
C1912 C 0.0795 0.6892 0.70752 0.0
C1913 C 0.05439 0.66889 0.70201 0.0
C1914 C 0.04832 0.66592 0.68556 0.0
C1915 C 0.06749 0.6836 0.67485 0.0
C1916 C 0.09185 0.70394 0.68007 0.0
C1917 C 0.10967 0.71928 0.66615 0.0
C1918 C 0.11574 0.74829 0.66621 0.0
C1919 C 0.13545 0.7178 0.66625 0.0
C1920 C 0.09188 0.70392 0.65223 0.0
C1921 C 0.06753 0.68355 0.65745 0.0
C1922 C 0.04858 0.66558 0.64675 0.0
C1923 C 0.05484 0.66833 0.63033 0.0
C1924 C 0.07984 0.68886 0.62482 0.0
C1925 C 0.09831 0.70709 0.63593 0.0
H1926 H 0.85002 0.08629 0.09811 0.0
H1927 H 0.79563 0.117 0.10194 0.0
H1928 H 0.83369 0.16241 0.10541 0.0
H1929 H 0.8992 0.13197 0.12722 0.0
H1930 H 0.92706 0.13533 0.11575 0.0
H1931 H 0.89546 0.10489 0.11477 0.0
H1932 H 0.89522 0.10925 0.08384 0.0
H1933 H 0.92679 0.13964 0.08473 0.0
H1934 H 0.89877 0.13933 0.07516 0.0
H1935 H 0.87746 0.2047 0.10659 0.0
H1936 H 0.92422 0.24113 0.10521 0.0
H1937 H 0.95022 0.18305 0.10089 0.0
C1938 C 0.84614 0.10254 0.09989 0.0
C1939 C 0.8199 0.09815 0.0998 0.0
C1940 C 0.8156 0.11993 0.10199 0.0
C1941 C 0.83707 0.14578 0.10402 0.0
C1942 C 0.86271 0.1495 0.10389 0.0
C1943 C 0.86737 0.12851 0.10192 0.0
C1944 C 0.89691 0.13814 0.10145 0.0
C1945 C 0.90513 0.12691 0.11565 0.0
C1946 C 0.90488 0.13118 0.08533 0.0
C1947 C 0.90809 0.16785 0.10315 0.0
C1948 C 0.88803 0.17396 0.10465 0.0
C1949 C 0.89338 0.20017 0.1056 0.0
C1950 C 0.91996 0.22071 0.1048 0.0
C1951 C 0.94079 0.21488 0.10305 0.0
C1952 C 0.93472 0.18809 0.10244 0.0
H1953 H 0.939 0.74359 0.08278 0.0
H1954 H 0.99262 0.81826 0.10637 0.0
H1955 H 0.95573 0.8278 0.1092 0.0
H1956 H 0.90211 0.76706 0.06052 0.0
H1957 H 0.8707 0.73672 0.06285 0.0
H1958 H 0.90124 0.73574 0.06288 0.0
H1959 H 0.88893 0.71213 0.09052 0.0
H1960 H 0.85833 0.71302 0.09057 0.0
H1961 H 0.88135 0.72729 0.10704 0.0
H1962 H 0.91302 0.82943 0.10897 0.0
H1963 H 0.86764 0.82271 0.10609 0.0
H1964 H 0.84209 0.74668 0.08294 0.0
C1965 C 0.94299 0.76194 0.08857 0.0
C1966 C 0.96866 0.78023 0.09435 0.0
C1967 C 0.97308 0.80399 0.10187 0.0
C1968 C 0.95227 0.80957 0.10352 0.0
C1969 C 0.9272 0.79113 0.09764 0.0
C1970 C 0.92247 0.76777 0.09036 0.0
C1971 C 0.89376 0.75126 0.08505 0.0
C1972 C 0.89186 0.74749 0.06674 0.0
C1973 C 0.87977 0.72433 0.09382 0.0
C1974 C 0.88306 0.76904 0.0904 0.0
C1975 C 0.90264 0.79196 0.09763 0.0
C1976 C 0.89752 0.81152 0.10337 0.0
C1977 C 0.87171 0.80755 0.10167 0.0
C1978 C 0.85137 0.78417 0.09432 0.0
C1979 C 0.85721 0.76471 0.08866 0.0
H1980 H 0.31511 0.11798 0.08518 0.0
H1981 H 0.24988 0.06875 0.11731 0.0
H1982 H 0.2446 0.10735 0.12377 0.0
H1983 H 0.34288 0.17919 0.10872 0.0
H1984 H 0.35077 0.20029 0.09133 0.0
H1985 H 0.35068 0.16924 0.08994 0.0
H1986 H 0.3169 0.15446 0.06649 0.0
H1987 H 0.31698 0.18548 0.06777 0.0
H1988 H 0.28604 0.15441 0.06923 0.0
H1989 H 0.24528 0.1504 0.12612 0.0
H1990 H 0.25024 0.19493 0.12316 0.0
H1991 H 0.31447 0.21644 0.0891 0.0
C1992 C 0.29989 0.11544 0.09368 0.0
C1993 C 0.28296 0.09045 0.10081 0.0
C1994 C 0.26305 0.08774 0.11172 0.0
C1995 C 0.25998 0.10956 0.11552 0.0
C1996 C 0.27692 0.1339 0.10826 0.0
C1997 C 0.2964 0.13699 0.09751 0.0
C1998 C 0.311 0.16501 0.09079 0.0
C1999 C 0.34059 0.17927 0.09548 0.0
C2000 C 0.30751 0.16481 0.07248 0.0
C2001 C 0.29642 0.17705 0.09929 0.0
C2002 C 0.27705 0.15881 0.10944 0.0
C2003 C 0.26046 0.16493 0.11828 0.0
C2004 C 0.26345 0.19027 0.11652 0.0
C2005 C 0.28277 0.20913 0.10593 0.0
C2006 C 0.29968 0.2025 0.09737 0.0
H2007 H 0.18967 0.96162 0.90911 0.0
H2008 H 0.24714 0.93507 0.90316 0.0
H2009 H 0.21064 0.88872 0.90103 0.0
H2010 H 0.14408 0.90689 0.93351 0.0
H2011 H 0.11457 0.90458 0.92478 0.0
H2012 H 0.14514 0.93607 0.92517 0.0
H2013 H 0.1426 0.94011 0.89435 0.0
H2014 H 0.11201 0.90861 0.89387 0.0
H2015 H 0.13978 0.9137 0.88163 0.0
H2016 H 0.16876 0.84547 0.90032 0.0
H2017 H 0.12321 0.8071 0.90133 0.0
H2018 H 0.09193 0.86065 0.9078 0.0
C2019 C 0.1945 0.94603 0.90724 0.0
C2020 C 0.22125 0.95195 0.90627 0.0
C2021 C 0.22681 0.93102 0.90395 0.0
C2022 C 0.20622 0.90462 0.90269 0.0
C2023 C 0.18012 0.89939 0.90378 0.0
C2024 C 0.17409 0.91941 0.90601 0.0
C2025 C 0.14422 0.90803 0.90721 0.0
C2026 C 0.13656 0.91426 0.92364 0.0
C2027 C 0.13406 0.91822 0.89344 0.0
C2028 C 0.13454 0.87854 0.90543 0.0
C2029 C 0.15566 0.87412 0.9034 0.0
C2030 C 0.15201 0.84863 0.90182 0.0
C2031 C 0.12605 0.82697 0.90243 0.0
C2032 C 0.10404 0.83089 0.9046 0.0
C2033 C 0.10837 0.85707 0.90602 0.0
H2034 H 0.20128 0.26607 0.91054 0.0
H2035 H 0.25635 0.34968 0.92001 0.0
H2036 H 0.21886 0.35825 0.92109 0.0
H2037 H 0.15616 0.27625 0.88526 0.0
H2038 H 0.12671 0.24759 0.89291 0.0
H2039 H 0.15794 0.24794 0.89259 0.0
H2040 H 0.1538 0.23813 0.92309 0.0
H2041 H 0.12261 0.23784 0.92352 0.0
H2042 H 0.14934 0.25982 0.93664 0.0
H2043 H 0.17584 0.35789 0.92176 0.0
H2044 H 0.12948 0.34869 0.92135 0.0
H2045 H 0.10183 0.26543 0.91131 0.0
C2046 C 0.20541 0.28618 0.91275 0.0
C2047 C 0.23172 0.30722 0.91518 0.0
C2048 C 0.23635 0.33326 0.9181 0.0
C2049 C 0.2152 0.33835 0.91875 0.0
C2050 C 0.18951 0.3172 0.91642 0.0
C2051 C 0.18447 0.29165 0.91343 0.0
C2052 C 0.15488 0.27254 0.91147 0.0
C2053 C 0.14856 0.26037 0.89455 0.0
C2054 C 0.14455 0.2508 0.92446 0.0
C2055 C 0.14416 0.29136 0.91392 0.0
C2056 C 0.16452 0.31701 0.91676 0.0
C2057 C 0.15969 0.3379 0.91951 0.0
C2058 C 0.1333 0.33247 0.91927 0.0
C2059 C 0.11209 0.30637 0.9163 0.0
C2060 C 0.11765 0.28558 0.91361 0.0
H2061 H 0.7461 0.84335 0.90834 0.0
H2062 H 0.83112 0.87249 0.90714 0.0
H2063 H 0.83995 0.9186 0.90939 0.0
H2064 H 0.74817 0.89703 0.88486 0.0
H2065 H 0.72238 0.89807 0.89634 0.0
H2066 H 0.7227 0.8673 0.89446 0.0
H2067 H 0.72256 0.86337 0.92542 0.0
H2068 H 0.72245 0.89424 0.9274 0.0
H2069 H 0.74813 0.89029 0.93698 0.0
H2070 H 0.83975 0.96116 0.91258 0.0
H2071 H 0.83058 0.99819 0.91483 0.0
H2072 H 0.74566 0.9419 0.9135 0.0
C2073 C 0.76655 0.85947 0.90845 0.0
C2074 C 0.78794 0.85438 0.90756 0.0
C2075 C 0.81444 0.87595 0.90776 0.0
C2076 C 0.81966 0.9022 0.90909 0.0
C2077 C 0.79817 0.90653 0.91013 0.0
C2078 C 0.77214 0.88584 0.90969 0.0
C2079 C 0.75274 0.89608 0.91093 0.0
C2080 C 0.73548 0.88922 0.89574 0.0
C2081 C 0.73546 0.88535 0.92609 0.0
C2082 C 0.77196 0.92574 0.91218 0.0
C2083 C 0.79806 0.93126 0.91178 0.0
C2084 C 0.81942 0.95713 0.91285 0.0
C2085 C 0.81399 0.97801 0.91417 0.0
C2086 C 0.78742 0.97291 0.91434 0.0
C2087 C 0.76616 0.94638 0.91342 0.0
H2088 H 0.52941 0.43049 0.43104 0.0
H2089 H 0.47174 0.45614 0.42281 0.0
H2090 H 0.5082 0.5028 0.42128 0.0
H2091 H 0.57406 0.48623 0.45586 0.0
H2092 H 0.60375 0.48812 0.44774 0.0
H2093 H 0.57314 0.45667 0.44828 0.0
H2094 H 0.57647 0.45129 0.41766 0.0
H2095 H 0.60708 0.48273 0.41701 0.0
H2096 H 0.57963 0.47715 0.4043 0.0
H2097 H 0.55051 0.5463 0.42025 0.0
H2098 H 0.5963 0.5844 0.4201 0.0
H2099 H 0.62696 0.53098 0.42923 0.0
C2100 C 0.52448 0.44595 0.42895 0.0
C2101 C 0.49776 0.43973 0.42704 0.0
C2102 C 0.49207 0.46047 0.42432 0.0
C2103 C 0.51263 0.48702 0.42343 0.0
C2104 C 0.53874 0.49248 0.42532 0.0
C2105 C 0.54478 0.47259 0.42806 0.0
C2106 C 0.57458 0.48395 0.42962 0.0
C2107 C 0.5818 0.47842 0.44637 0.0
C2108 C 0.58505 0.47314 0.41636 0.0
C2109 C 0.58433 0.51332 0.42728 0.0
C2110 C 0.56329 0.51773 0.42481 0.0
C2111 C 0.56716 0.54312 0.4222 0.0
C2112 C 0.59326 0.56463 0.42213 0.0
C2113 C 0.61518 0.56065 0.42467 0.0
C2114 C 0.61059 0.53462 0.42729 0.0
H2115 H 0.6246 0.12975 0.43015 0.0
H2116 H 0.60109 0.04834 0.4175 0.0
H2117 H 0.55395 0.03704 0.41676 0.0
H2118 H 0.56883 0.1144 0.45577 0.0
H2119 H 0.5663 0.14273 0.44938 0.0
H2120 H 0.59806 0.14422 0.44903 0.0
H2121 H 0.60324 0.1566 0.41886 0.0
H2122 H 0.57152 0.15519 0.41911 0.0
H2123 H 0.57752 0.13526 0.40498 0.0
H2124 H 0.50931 0.03483 0.41735 0.0
H2125 H 0.4708 0.0421 0.41876 0.0
H2126 H 0.52397 0.12503 0.43085 0.0
C2127 C 0.60954 0.10953 0.42724 0.0
C2128 C 0.61645 0.08989 0.4239 0.0
C2129 C 0.59619 0.06368 0.4201 0.0
C2130 C 0.56939 0.05708 0.41967 0.0
C2131 C 0.56325 0.07694 0.42304 0.0
C2132 C 0.58276 0.10264 0.42673 0.0
C2133 C 0.57099 0.12037 0.42971 0.0
C2134 C 0.57636 0.13105 0.447 0.0
C2135 C 0.58144 0.1432 0.41743 0.0
C2136 C 0.54179 0.10066 0.4271 0.0
C2137 C 0.53768 0.07569 0.42331 0.0
C2138 C 0.51229 0.05429 0.42032 0.0
C2139 C 0.49056 0.0586 0.42115 0.0
C2140 C 0.49443 0.0841 0.42491 0.0
C2141 C 0.52039 0.1053 0.42796 0.0
H2142 H 0.92646 0.43597 0.42741 0.0
H2143 H 0.01148 0.46508 0.42716 0.0
H2144 H 0.02021 0.51134 0.42815 0.0
H2145 H 0.92841 0.48742 0.40237 0.0
H2146 H 0.9025 0.48926 0.41324 0.0
H2147 H 0.90295 0.45845 0.4126 0.0
H2148 H 0.90278 0.457 0.44367 0.0
H2149 H 0.90241 0.48785 0.4444 0.0
H2150 H 0.92817 0.48493 0.45468 0.0
H2151 H 0.01972 0.55419 0.4291 0.0
H2152 H 0.01023 0.59112 0.42952 0.0
H2153 H 0.92541 0.53433 0.42921 0.0
C2154 C 0.94692 0.45209 0.42755 0.0
C2155 C 0.96833 0.44699 0.42721 0.0
C2156 C 0.9948 0.46857 0.42741 0.0
C2157 C -5e-05 0.49489 0.42799 0.0
C2158 C 0.9784 0.49923 0.42837 0.0
C2159 C 0.95241 0.47847 0.42813 0.0
C2160 C 0.93287 0.48862 0.42854 0.0
C2161 C 0.91568 0.48046 0.41328 0.0
C2162 C 0.91554 0.47903 0.44373 0.0
C2163 C 0.95196 0.51837 0.42901 0.0
C2164 C 0.97811 0.52401 0.42893 0.0
C2165 C 0.99934 0.55002 0.42918 0.0
C2166 C 0.99372 0.57086 0.42943 0.0
C2167 C 0.96708 0.56559 0.42942 0.0
C2168 C 0.94596 0.53896 0.42929 0.0
H2169 H 0.79637 0.17295 0.24161 0.0
H2170 H 0.74275 0.20032 0.22597 0.0
H2171 H 0.78094 0.24592 0.223 0.0
H2172 H 0.83693 0.22816 0.26536 0.0
H2173 H 0.86762 0.22896 0.26055 0.0
H2174 H 0.83661 0.19799 0.25971 0.0
H2175 H 0.84598 0.19137 0.23017 0.0
H2176 H 0.87716 0.22229 0.23094 0.0
H2177 H 0.85306 0.21713 0.21567 0.0
H2178 H 0.8243 0.28908 0.22402 0.0
H2179 H 0.86985 0.32657 0.22852 0.0
H2180 H 0.89509 0.27098 0.24355 0.0
C2181 C 0.79273 0.18842 0.23723 0.0
C2182 C 0.76664 0.18311 0.23392 0.0
C2183 C 0.76261 0.20396 0.22849 0.0
C2184 C 0.78417 0.2299 0.22676 0.0
C2185 C 0.80959 0.23459 0.23046 0.0
C2186 C 0.81399 0.21441 0.23549 0.0
C2187 C 0.84299 0.225 0.23965 0.0
C2188 C 0.84621 0.21972 0.25737 0.0
C2189 C 0.85553 0.21325 0.22844 0.0
C2190 C 0.85412 0.25438 0.23649 0.0
C2191 C 0.83458 0.25948 0.23108 0.0
C2192 C 0.83984 0.28529 0.22806 0.0
C2193 C 0.86573 0.30645 0.23069 0.0
C2194 C 0.88599 0.30165 0.23632 0.0
C2195 C 0.88007 0.27523 0.2391 0.0
H2196 H 0.89032 0.65009 0.24807 0.0
H2197 H 0.86332 0.56682 0.2386 0.0
H2198 H 0.81722 0.55795 0.23579 0.0
H2199 H 0.8341 0.63942 0.27149 0.0
H2200 H 0.83344 0.66804 0.26365 0.0
H2201 H 0.8644 0.66794 0.26459 0.0
H2202 H 0.87143 0.67801 0.23413 0.0
H2203 H 0.84044 0.67808 0.23309 0.0
H2204 H 0.84597 0.65635 0.22022 0.0
H2205 H 0.77405 0.55791 0.23454 0.0
H2206 H 0.73654 0.56668 0.23517 0.0
H2207 H 0.79165 0.65002 0.24524 0.0
C2208 C 0.8747 0.63001 0.24538 0.0
C2209 C 0.88035 0.60913 0.24355 0.0
C2210 C 0.85941 0.58311 0.24004 0.0
C2211 C 0.83318 0.57788 0.23841 0.0
C2212 C 0.82827 0.5989 0.24027 0.0
C2213 C 0.84841 0.62444 0.24368 0.0
C2214 C 0.83771 0.64338 0.24531 0.0
C2215 C 0.84271 0.65539 0.26227 0.0
C2216 C 0.84959 0.66524 0.23242 0.0
C2217 C 0.80837 0.62445 0.2424 0.0
C2218 C 0.80337 0.5989 0.23948 0.0
C2219 C 0.77772 0.57785 0.23675 0.0
C2220 C 0.75656 0.58302 0.23713 0.0
C2221 C 0.76123 0.60902 0.2402 0.0
C2222 C 0.78751 0.62998 0.24276 0.0
H2223 H 0.40895 0.27055 0.24582 0.0
H2224 H 0.49078 0.32713 0.23316 0.0
H2225 H 0.50001 0.2902 0.22992 0.0
H2226 H 0.42315 0.22817 0.26908 0.0
H2227 H 0.39418 0.19778 0.26273 0.0
H2228 H 0.39347 0.22845 0.26299 0.0
H2229 H 0.38013 0.22221 0.23296 0.0
H2230 H 0.38075 0.19146 0.23262 0.0
H2231 H 0.4006 0.21753 0.21854 0.0
H2232 H 0.50104 0.2476 0.22954 0.0
H2233 H 0.49374 0.20199 0.23191 0.0
H2234 H 0.41119 0.17303 0.24471 0.0
C2235 C 0.42871 0.27512 0.24217 0.0
C2236 C 0.44915 0.30166 0.23968 0.0
C2237 C 0.47483 0.30691 0.23509 0.0
C2238 C 0.48025 0.28608 0.2332 0.0
C2239 C 0.45975 0.26015 0.23592 0.0
C2240 C 0.43448 0.25457 0.24026 0.0
C2241 C 0.41631 0.22504 0.24309 0.0
C2242 C 0.40619 0.21955 0.26051 0.0
C2243 C 0.39307 0.21338 0.23108 0.0
C2244 C 0.43542 0.21496 0.23985 0.0
C2245 C 0.46034 0.23552 0.23567 0.0
C2246 C 0.48156 0.23129 0.23267 0.0
C2247 C 0.47723 0.20535 0.23407 0.0
C2248 C 0.45189 0.18402 0.23842 0.0
C2249 C 0.43072 0.18893 0.24122 0.0
H2250 H 0.26541 0.886 0.74832 0.0
H2251 H 0.30517 0.87466 0.78913 0.0
H2252 H 0.26569 0.83069 0.79413 0.0
H2253 H 0.19804 0.85233 0.76568 0.0
H2254 H 0.18244 0.83771 0.7468 0.0
H2255 H 0.21304 0.86921 0.74715 0.0
H2256 H 0.23493 0.85006 0.72834 0.0
H2257 H 0.20447 0.81851 0.72797 0.0
H2258 H 0.23507 0.82016 0.73408 0.0
H2259 H 0.22362 0.7868 0.7935 0.0
H2260 H 0.18106 0.74601 0.78758 0.0
H2261 H 0.16818 0.78588 0.74743 0.0
C2262 C 0.26563 0.87441 0.75845 0.0
C2263 C 0.28829 0.88372 0.76837 0.0
C2264 C 0.28797 0.86791 0.7814 0.0
C2265 C 0.26564 0.84293 0.78436 0.0
C2266 C 0.24376 0.83414 0.77422 0.0
C2267 C 0.24347 0.84942 0.76158 0.0
C2268 C 0.21785 0.83477 0.75209 0.0
C2269 C 0.2019 0.84938 0.75299 0.0
C2270 C 0.22343 0.83063 0.73459 0.0
C2271 C 0.20405 0.80868 0.76117 0.0
C2272 C 0.21929 0.8088 0.77394 0.0
C2273 C 0.21134 0.78655 0.78365 0.0
C2274 C 0.1872 0.76347 0.78017 0.0
C2275 C 0.17132 0.76288 0.76711 0.0
C2276 C 0.17979 0.78588 0.75761 0.0
H2277 H 0.29028 0.45196 0.75042 0.0
H2278 H 0.2682 0.38167 0.7793 0.0
H2279 H 0.22281 0.37469 0.78232 0.0
H2280 H 0.25243 0.47496 0.77316 0.0
H2281 H 0.24309 0.48682 0.75574 0.0
H2282 H 0.27391 0.48634 0.75585 0.0
H2283 H 0.2596 0.45783 0.72994 0.0
H2284 H 0.22874 0.4582 0.72976 0.0
H2285 H 0.22835 0.42693 0.72956 0.0
H2286 H 0.17955 0.37446 0.78151 0.0
H2287 H 0.1416 0.38202 0.77776 0.0
H2288 H 0.19206 0.45324 0.75016 0.0
C2289 C 0.27588 0.43513 0.75739 0.0
C2290 C 0.28269 0.41731 0.7646 0.0
C2291 C 0.26338 0.39558 0.77369 0.0
C2292 C 0.23756 0.39143 0.77546 0.0
C2293 C 0.23143 0.40931 0.76817 0.0
C2294 C 0.25005 0.43082 0.7594 0.0
C2295 C 0.23832 0.44713 0.75289 0.0
C2296 C 0.2528 0.47549 0.75983 0.0
C2297 C 0.23878 0.44753 0.73445 0.0
C2298 C 0.21016 0.43127 0.75926 0.0
C2299 C 0.2066 0.40949 0.768 0.0
C2300 C 0.18212 0.39153 0.77477 0.0
C2301 C 0.16069 0.39596 0.77255 0.0
C2302 C 0.16395 0.41825 0.76373 0.0
C2303 C 0.18905 0.43614 0.75706 0.0
H2304 H 0.63502 0.78869 0.74795 0.0
H2305 H 0.58905 0.75464 0.79135 0.0
H2306 H 0.58879 0.79641 0.79644 0.0
H2307 H 0.67532 0.85652 0.763 0.0
H2308 H 0.67471 0.87155 0.7442 0.0
H2309 H 0.67261 0.83949 0.7444 0.0
H2310 H 0.62869 0.81948 0.72816 0.0
H2311 H 0.63064 0.85144 0.72792 0.0
H2312 H 0.60133 0.82276 0.73569 0.0
H2313 H 0.5921 0.84093 0.7964 0.0
H2314 H 0.59804 0.88538 0.79099 0.0
H2315 H 0.64136 0.89063 0.74739 0.0
C2316 C 0.62515 0.79016 0.7586 0.0
C2317 C 0.61213 0.7685 0.7693 0.0
C2318 C 0.59916 0.77102 0.78302 0.0
C2319 C 0.59895 0.79467 0.78603 0.0
C2320 C 0.61178 0.81558 0.77519 0.0
C2321 C 0.62462 0.8136 0.76175 0.0
C2322 C 0.63594 0.8387 0.7517 0.0
C2323 C 0.66646 0.85237 0.75078 0.0
C2324 C 0.62339 0.83273 0.73487 0.0
C2325 C 0.62719 0.85496 0.76153 0.0
C2326 C 0.61345 0.84128 0.77508 0.0
C2327 C 0.60293 0.8519 0.78587 0.0
C2328 C 0.6064 0.87715 0.78269 0.0
C2329 C 0.62018 0.89143 0.76879 0.0
C2330 C 0.63083 0.88021 0.75814 0.0
H2331 H 0.54622 0.59895 0.58112 0.0
H2332 H 0.51813 0.64997 0.56181 0.0
H2333 H 0.47328 0.61072 0.55818 0.0
H2334 H 0.50656 0.54138 0.55553 0.0
H2335 H 0.50036 0.51784 0.57139 0.0
H2336 H 0.53063 0.54965 0.57136 0.0
H2337 H 0.51985 0.5592 0.59993 0.0
H2338 H 0.4896 0.52746 0.60005 0.0
H2339 H 0.4884 0.55749 0.60362 0.0
H2340 H 0.43119 0.56619 0.55766 0.0
H2341 H 0.39448 0.51999 0.56132 0.0
H2342 H 0.45005 0.49839 0.58154 0.0
C2343 C 0.53071 0.60182 0.57594 0.0
C2344 C 0.53562 0.62743 0.57165 0.0
C2345 C 0.51475 0.63047 0.56513 0.0
C2346 C 0.48928 0.60831 0.56299 0.0
C2347 C 0.48505 0.58333 0.56745 0.0
C2348 C 0.50517 0.57999 0.57384 0.0
C2349 C 0.49511 0.55128 0.57848 0.0
C2350 C 0.50899 0.53934 0.5686 0.0
C2351 C 0.49843 0.54872 0.59659 0.0
C2352 C 0.46608 0.53902 0.5739 0.0
C2353 C 0.46074 0.55778 0.56741 0.0
C2354 C 0.43517 0.5513 0.56265 0.0
C2355 C 0.41447 0.52502 0.56476 0.0
C2356 C 0.41945 0.50563 0.57168 0.0
C2357 C 0.44567 0.51275 0.57614 0.0
H2358 H 0.43823 0.92499 0.5738 0.0
H2359 H 0.46221 0.00845 0.56845 0.0
H2360 H 0.5092 0.0198 0.56652 0.0
H2361 H 0.49194 0.93508 0.59867 0.0
H2362 H 0.49551 0.90855 0.59002 0.0
H2363 H 0.46359 0.90669 0.58983 0.0
H2364 H 0.46119 0.90083 0.55895 0.0
H2365 H 0.49313 0.90265 0.55905 0.0
H2366 H 0.48791 0.92513 0.54669 0.0
H2367 H 0.55346 0.02241 0.56655 0.0
H2368 H 0.59245 0.01627 0.56883 0.0
H2369 H 0.53997 0.93109 0.57427 0.0
C2370 C 0.45336 0.9456 0.57202 0.0
C2371 C 0.44663 0.96586 0.57121 0.0
C2372 C 0.46696 0.99264 0.56908 0.0
C2373 C 0.49368 0.99926 0.56793 0.0
C2374 C 0.49969 0.97887 0.56893 0.0
C2375 C 0.48015 0.95258 0.57092 0.0
C2376 C 0.49211 0.93466 0.57236 0.0
C2377 C 0.48539 0.92042 0.58869 0.0
C2378 C 0.48305 0.91464 0.55843 0.0
C2379 C 0.52145 0.95505 0.57109 0.0
C2380 C 0.52534 0.98039 0.56901 0.0
C2381 C 0.55069 0.00265 0.56805 0.0
C2382 C 0.5727 0.99896 0.56938 0.0
C2383 C 0.56921 0.97321 0.57168 0.0
C2384 C 0.54322 0.95097 0.57238 0.0
H2385 H 0.10264 0.60801 0.59562 0.0
H2386 H 0.1062 0.62145 0.54424 0.0
H2387 H 0.10589 0.57922 0.53963 0.0
H2388 H 0.14464 0.57853 0.59653 0.0
H2389 H 0.1253 0.55461 0.6118 0.0
H2390 H 0.12643 0.58619 0.61107 0.0
H2391 H 0.07492 0.56191 0.60957 0.0
H2392 H 0.07362 0.53026 0.61032 0.0
H2393 H 0.05792 0.53762 0.59402 0.0
H2394 H 0.10504 0.53555 0.54062 0.0
H2395 H 0.10225 0.49267 0.54711 0.0
H2396 H 0.09839 0.50736 0.59781 0.0
C2397 C 0.10346 0.6021 0.5834 0.0
C2398 C 0.10453 0.61799 0.57028 0.0
C2399 C 0.10539 0.60954 0.55446 0.0
C2400 C 0.10526 0.58564 0.55173 0.0
C2401 C 0.10418 0.57041 0.56493 0.0
C2402 C 0.10319 0.57824 0.58045 0.0
C2403 C 0.10149 0.55793 0.59252 0.0
C2404 C 0.12592 0.57005 0.60363 0.0
C2405 C 0.07544 0.54624 0.60217 0.0
C2406 C 0.10162 0.53743 0.58135 0.0
C2407 C 0.10333 0.54507 0.5655 0.0
C2408 C 0.10371 0.52934 0.55299 0.0
C2409 C 0.10215 0.50506 0.55679 0.0
C2410 C 0.1001 0.49673 0.57295 0.0
C2411 C 0.09994 0.51322 0.58535 0.0
loop_
_geom_bond_atom_site_label_1
_geom_bond_atom_site_label_2
_geom_bond_distance
_geom_bond_site_symmetry_2
_ccdc_geom_bond_type
In0 O1 2.294 . S
In0 O2 2.326 . S
In0 O6 2.266 . S
In0 O7 2.326 . S
In0 O8 2.266 1_455 S
In0 O9 2.326 1_455 S
In0 O11 2.294 . S
In0 O12 2.326 . S
O1 In0 2.294 . S
O1 C10 1.240 . S
O2 In0 2.326 . S
O2 C10 1.252 . S
C3 O6 1.252 . S
C3 O7 1.260 . S
C4 O11 1.240 . S
C4 O12 1.252 . S
C5 O8 1.252 . S
C5 O9 1.260 . S
O6 In0 2.266 . S
O6 C3 1.252 . S
O7 In0 2.326 . S
O7 C3 1.260 . S
O8 In0 2.266 1_655 S
O8 C5 1.252 . S
O9 In0 2.326 1_655 S
O9 C5 1.260 . S
C10 O1 1.240 . S
C10 O2 1.252 . S
O11 In0 2.294 . S
O11 C4 1.240 . S
O12 In0 2.326 . S
O12 C4 1.252 . S
In13 O14 2.294 . S
In13 O15 2.326 . S
In13 O19 2.266 . S
In13 O20 2.326 . S
In13 O21 2.266 . S
In13 O22 2.326 . S
In13 O24 2.294 . S
In13 O25 2.326 . S
O14 In13 2.294 . S
O14 C23 1.240 . S
O15 In13 2.326 . S
O15 C23 1.252 . S
C16 O19 1.252 . S
C16 O20 1.260 . S
C17 O24 1.240 . S
C17 O25 1.252 . S
C18 O21 1.252 . S
C18 O22 1.260 . S
O19 In13 2.266 . S
O19 C16 1.252 . S
O20 In13 2.326 . S
O20 C16 1.260 . S
O21 In13 2.266 . S
O21 C18 1.252 . S
O22 In13 2.326 . S
O22 C18 1.260 . S
C23 O14 1.240 . S
C23 O15 1.252 . S
O24 In13 2.294 . S
O24 C17 1.240 . S
O25 In13 2.326 . S
O25 C17 1.252 . S
In26 O27 2.294 . S
In26 O28 2.326 . S
In26 O32 2.266 . S
In26 O33 2.326 . S
In26 O34 2.266 . S
In26 O35 2.326 . S
In26 O37 2.294 . S
In26 O38 2.326 1_545 S
O27 In26 2.294 . S
O27 C36 1.240 . S
O28 In26 2.326 . S
O28 C36 1.252 . S
C29 O32 1.252 . S
C29 O33 1.260 . S
C30 O37 1.240 1_565 S
C30 O38 1.252 . S
C31 O34 1.252 . S
C31 O35 1.260 . S
O32 In26 2.266 . S
O32 C29 1.252 . S
O33 In26 2.326 . S
O33 C29 1.260 . S
O34 In26 2.266 . S
O34 C31 1.252 . S
O35 In26 2.326 . S
O35 C31 1.260 . S
C36 O27 1.240 . S
C36 O28 1.252 . S
O37 In26 2.294 . S
O37 C30 1.240 1_545 S
O38 In26 2.326 1_565 S
O38 C30 1.252 . S
In39 O40 2.294 . S
In39 O41 2.326 . S
In39 O45 2.266 1_545 S
In39 O46 2.326 1_545 S
In39 O47 2.266 . S
In39 O48 2.326 . S
In39 O50 2.294 . S
In39 O51 2.326 . S
O40 In39 2.294 . S
O40 C49 1.240 . S
O41 In39 2.326 . S
O41 C49 1.252 . S
C42 O45 1.252 . S
C42 O46 1.260 . S
C43 O50 1.240 . S
C43 O51 1.252 . S
C44 O47 1.252 . S
C44 O48 1.260 . S
O45 In39 2.266 1_565 S
O45 C42 1.252 . S
O46 In39 2.326 1_565 S
O46 C42 1.260 . S
O47 In39 2.266 . S
O47 C44 1.252 . S
O48 In39 2.326 . S
O48 C44 1.260 . S
C49 O40 1.240 . S
C49 O41 1.252 . S
O50 In39 2.294 . S
O50 C43 1.240 . S
O51 In39 2.326 . S
O51 C43 1.252 . S
In52 O53 2.294 . S
In52 O54 2.326 . S
In52 O58 2.266 . S
In52 O59 2.326 . S
In52 O60 2.266 . S
In52 O61 2.326 . S
In52 O63 2.294 . S
In52 O64 2.326 1_455 S
O53 In52 2.294 . S
O53 C62 1.240 . S
O54 In52 2.326 . S
O54 C62 1.252 . S
C55 O58 1.252 . S
C55 O59 1.260 . S
C56 O63 1.240 1_655 S
C56 O64 1.252 . S
C57 O60 1.252 . S
C57 O61 1.260 . S
O58 In52 2.266 . S
O58 C55 1.252 . S
O59 In52 2.326 . S
O59 C55 1.260 . S
O60 In52 2.266 . S
O60 C57 1.252 . S
O61 In52 2.326 . S
O61 C57 1.260 . S
C62 O53 1.240 . S
C62 O54 1.252 . S
O63 In52 2.294 . S
O63 C56 1.240 1_455 S
O64 In52 2.326 1_655 S
O64 C56 1.252 . S
In65 O66 2.294 . S
In65 O67 2.326 . S
In65 O71 2.266 . S
In65 O72 2.326 . S
In65 O73 2.266 . S
In65 O74 2.326 . S
In65 O76 2.294 . S
In65 O77 2.326 . S
O66 In65 2.294 . S
O66 C75 1.240 . S
O67 In65 2.326 . S
O67 C75 1.252 . S
C68 O71 1.252 . S
C68 O72 1.260 . S
C69 O76 1.240 . S
C69 O77 1.252 . S
C70 O73 1.252 . S
C70 O74 1.260 . S
O71 In65 2.266 . S
O71 C68 1.252 . S
O72 In65 2.326 . S
O72 C68 1.260 . S
O73 In65 2.266 . S
O73 C70 1.252 . S
O74 In65 2.326 . S
O74 C70 1.260 . S
C75 O66 1.240 . S
C75 O67 1.252 . S
O76 In65 2.294 . S
O76 C69 1.240 . S
O77 In65 2.326 . S
O77 C69 1.252 . S
In78 O79 2.294 . S
In78 O80 2.326 1_455 S
In78 O84 2.266 . S
In78 O85 2.326 . S
In78 O86 2.266 . S
In78 O87 2.326 . S
In78 O89 2.294 . S
In78 O90 2.326 . S
O79 In78 2.294 . S
O79 C88 1.240 1_455 S
O80 In78 2.326 1_655 S
O80 C88 1.252 . S
C81 O84 1.252 . S
C81 O85 1.260 . S
C82 O89 1.240 . S
C82 O90 1.252 . S
C83 O86 1.252 . S
C83 O87 1.260 . S
O84 In78 2.266 . S
O84 C81 1.252 . S
O85 In78 2.326 . S
O85 C81 1.260 . S
O86 In78 2.266 . S
O86 C83 1.252 . S
O87 In78 2.326 . S
O87 C83 1.260 . S
C88 O79 1.240 1_655 S
C88 O80 1.252 . S
O89 In78 2.294 . S
O89 C82 1.240 . S
O90 In78 2.326 . S
O90 C82 1.252 . S
In91 O92 2.294 . S
In91 O93 2.326 . S
In91 O97 2.266 . S
In91 O98 2.326 . S
In91 O99 2.266 . S
In91 O100 2.326 . S
In91 O102 2.294 . S
In91 O103 2.326 . S
O92 In91 2.294 . S
O92 C101 1.240 . S
O93 In91 2.326 . S
O93 C101 1.252 . S
C94 O97 1.252 . S
C94 O98 1.260 . S
C95 O102 1.240 . S
C95 O103 1.252 . S
C96 O99 1.252 . S
C96 O100 1.260 . S
O97 In91 2.266 . S
O97 C94 1.252 . S
O98 In91 2.326 . S
O98 C94 1.260 . S
O99 In91 2.266 . S
O99 C96 1.252 . S
O100 In91 2.326 . S
O100 C96 1.260 . S
C101 O92 1.240 . S
C101 O93 1.252 . S
O102 In91 2.294 . S
O102 C95 1.240 . S
O103 In91 2.326 . S
O103 C95 1.252 . S
In104 O105 2.294 . S
In104 O106 2.326 . S
In104 O110 2.266 . S
In104 O111 2.326 . S
In104 O112 2.266 1_545 S
In104 O113 2.326 1_545 S
In104 O115 2.294 . S
In104 O116 2.326 . S
O105 In104 2.294 . S
O105 C114 1.240 . S
O106 In104 2.326 . S
O106 C114 1.252 . S
C107 O110 1.252 . S
C107 O111 1.260 . S
C108 O115 1.240 . S
C108 O116 1.252 . S
C109 O112 1.252 . S
C109 O113 1.260 . S
O110 In104 2.266 . S
O110 C107 1.252 . S
O111 In104 2.326 . S
O111 C107 1.260 . S
O112 In104 2.266 1_565 S
O112 C109 1.252 . S
O113 In104 2.326 1_565 S
O113 C109 1.260 . S
C114 O105 1.240 . S
C114 O106 1.252 . S
O115 In104 2.294 . S
O115 C108 1.240 . S
O116 In104 2.326 . S
O116 C108 1.252 . S
In117 O118 2.294 . S
In117 O119 2.326 1_545 S
In117 O123 2.266 . S
In117 O124 2.326 . S
In117 O125 2.266 . S
In117 O126 2.326 . S
In117 O128 2.294 . S
In117 O129 2.326 . S
O118 In117 2.294 . S
O118 C127 1.240 1_545 S
O119 In117 2.326 1_565 S
O119 C127 1.252 . S
C120 O123 1.252 . S
C120 O124 1.260 . S
C121 O128 1.240 . S
C121 O129 1.252 . S
C122 O125 1.252 . S
C122 O126 1.260 . S
O123 In117 2.266 . S
O123 C120 1.252 . S
O124 In117 2.326 . S
O124 C120 1.260 . S
O125 In117 2.266 . S
O125 C122 1.252 . S
O126 In117 2.326 . S
O126 C122 1.260 . S
C127 O118 1.240 1_565 S
C127 O119 1.252 . S
O128 In117 2.294 . S
O128 C121 1.240 . S
O129 In117 2.326 . S
O129 C121 1.252 . S
In130 O131 2.294 . S
In130 O132 2.326 . S
In130 O136 2.266 . S
In130 O137 2.326 . S
In130 O138 2.266 1_455 S
In130 O139 2.326 1_455 S
In130 O141 2.294 . S
In130 O142 2.326 . S
O131 In130 2.294 . S
O131 C140 1.240 . S
O132 In130 2.326 . S
O132 C140 1.252 . S
C133 O136 1.252 . S
C133 O137 1.260 . S
C134 O141 1.240 . S
C134 O142 1.252 . S
C135 O138 1.252 . S
C135 O139 1.260 . S
O136 In130 2.266 . S
O136 C133 1.252 . S
O137 In130 2.326 . S
O137 C133 1.260 . S
O138 In130 2.266 1_655 S
O138 C135 1.252 . S
O139 In130 2.326 1_655 S
O139 C135 1.260 . S
C140 O131 1.240 . S
C140 O132 1.252 . S
O141 In130 2.294 . S
O141 C134 1.240 . S
O142 In130 2.326 . S
O142 C134 1.252 . S
In143 O144 2.294 . S
In143 O145 2.326 . S
In143 O149 2.266 . S
In143 O150 2.326 . S
In143 O151 2.266 . S
In143 O152 2.326 . S
In143 O154 2.294 . S
In143 O155 2.326 . S
O144 In143 2.294 . S
O144 C153 1.240 . S
O145 In143 2.326 . S
O145 C153 1.252 . S
C146 O149 1.252 . S
C146 O150 1.260 . S
C147 O154 1.240 . S
C147 O155 1.252 . S
C148 O151 1.252 . S
C148 O152 1.260 . S
O149 In143 2.266 . S
O149 C146 1.252 . S
O150 In143 2.326 . S
O150 C146 1.260 . S
O151 In143 2.266 . S
O151 C148 1.252 . S
O152 In143 2.326 . S
O152 C148 1.260 . S
C153 O144 1.240 . S
C153 O145 1.252 . S
O154 In143 2.294 . S
O154 C147 1.240 . S
O155 In143 2.326 . S
O155 C147 1.252 . S
In156 O157 2.294 . S
In156 O158 2.326 . S
In156 O162 2.266 . S
In156 O163 2.326 . S
In156 O164 2.266 . S
In156 O165 2.326 . S
In156 O167 2.294 . S
In156 O168 2.326 . S
O157 In156 2.294 . S
O157 C166 1.240 . S
O158 In156 2.326 . S
O158 C166 1.252 . S
C159 O162 1.252 . S
C159 O163 1.260 . S
C160 O167 1.240 . S
C160 O168 1.252 . S
C161 O164 1.252 . S
C161 O165 1.260 . S
O162 In156 2.266 . S
O162 C159 1.252 . S
O163 In156 2.326 . S
O163 C159 1.260 . S
O164 In156 2.266 . S
O164 C161 1.252 . S
O165 In156 2.326 . S
O165 C161 1.260 . S
C166 O157 1.240 . S
C166 O158 1.252 . S
O167 In156 2.294 . S
O167 C160 1.240 . S
O168 In156 2.326 . S
O168 C160 1.252 . S
In169 O170 2.294 . S
In169 O171 2.326 . S
In169 O175 2.266 . S
In169 O176 2.326 . S
In169 O177 2.266 . S
In169 O178 2.326 . S
In169 O180 2.294 . S
In169 O181 2.326 . S
O170 In169 2.294 . S
O170 C179 1.240 . S
O171 In169 2.326 . S
O171 C179 1.252 . S
C172 O175 1.252 . S
C172 O176 1.260 . S
C173 O180 1.240 . S
C173 O181 1.252 . S
C174 O177 1.252 . S
C174 O178 1.260 . S
O175 In169 2.266 . S
O175 C172 1.252 . S
O176 In169 2.326 . S
O176 C172 1.260 . S
O177 In169 2.266 . S
O177 C174 1.252 . S
O178 In169 2.326 . S
O178 C174 1.260 . S
C179 O170 1.240 . S
C179 O171 1.252 . S
O180 In169 2.294 . S
O180 C173 1.240 . S
O181 In169 2.326 . S
O181 C173 1.252 . S
In182 O183 2.294 . S
In182 O184 2.326 . S
In182 O188 2.266 1_655 S
In182 O189 2.326 . S
In182 O190 2.266 . S
In182 O191 2.326 . S
In182 O193 2.294 . S
In182 O194 2.326 . S
O183 In182 2.294 . S
O183 C192 1.240 . S
O184 In182 2.326 . S
O184 C192 1.252 . S
C185 O188 1.252 1_655 S
C185 O189 1.260 . S
C186 O193 1.240 . S
C186 O194 1.252 . S
C187 O190 1.252 . S
C187 O191 1.260 . S
O188 In182 2.266 1_455 S
O188 C185 1.252 1_455 S
O189 In182 2.326 . S
O189 C185 1.260 . S
O190 In182 2.266 . S
O190 C187 1.252 . S
O191 In182 2.326 . S
O191 C187 1.260 . S
C192 O183 1.240 . S
C192 O184 1.252 . S
O193 In182 2.294 . S
O193 C186 1.240 . S
O194 In182 2.326 . S
O194 C186 1.252 . S
In195 O196 2.294 . S
In195 O197 2.326 . S
In195 O201 2.266 . S
In195 O202 2.326 . S
In195 O203 2.266 . S
In195 O204 2.326 . S
In195 O206 2.294 . S
In195 O207 2.326 . S
O196 In195 2.294 . S
O196 C205 1.240 . S
O197 In195 2.326 . S
O197 C205 1.252 . S
C198 O201 1.252 . S
C198 O202 1.260 . S
C199 O206 1.240 . S
C199 O207 1.252 . S
C200 O203 1.252 . S
C200 O204 1.260 . S
O201 In195 2.266 . S
O201 C198 1.252 . S
O202 In195 2.326 . S
O202 C198 1.260 . S
O203 In195 2.266 . S
O203 C200 1.252 . S
O204 In195 2.326 . S
O204 C200 1.260 . S
C205 O196 1.240 . S
C205 O197 1.252 . S
O206 In195 2.294 . S
O206 C199 1.240 . S
O207 In195 2.326 . S
O207 C199 1.252 . S
In208 O209 2.294 . S
In208 O210 2.326 . S
In208 O214 2.266 . S
In208 O215 2.326 . S
In208 O216 2.266 . S
In208 O217 2.326 . S
In208 O219 2.294 . S
In208 O220 2.326 . S
O209 In208 2.294 . S
O209 C218 1.240 . S
O210 In208 2.326 . S
O210 C218 1.252 . S
C211 O214 1.252 . S
C211 O215 1.260 . S
C212 O219 1.240 . S
C212 O220 1.252 . S
C213 O216 1.252 . S
C213 O217 1.260 . S
O214 In208 2.266 . S
O214 C211 1.252 . S
O215 In208 2.326 . S
O215 C211 1.260 . S
O216 In208 2.266 . S
O216 C213 1.252 . S
O217 In208 2.326 . S
O217 C213 1.260 . S
C218 O209 1.240 . S
C218 O210 1.252 . S
O219 In208 2.294 . S
O219 C212 1.240 . S
O220 In208 2.326 . S
O220 C212 1.252 . S
In221 O222 2.294 . S
In221 O223 2.326 . S
In221 O227 2.266 . S
In221 O228 2.326 . S
In221 O229 2.266 . S
In221 O230 2.326 . S
In221 O232 2.294 . S
In221 O233 2.326 . S
O222 In221 2.294 . S
O222 C231 1.240 . S
O223 In221 2.326 . S
O223 C231 1.252 . S
C224 O227 1.252 . S
C224 O228 1.260 . S
C225 O232 1.240 . S
C225 O233 1.252 . S
C226 O229 1.252 . S
C226 O230 1.260 . S
O227 In221 2.266 . S
O227 C224 1.252 . S
O228 In221 2.326 . S
O228 C224 1.260 . S
O229 In221 2.266 . S
O229 C226 1.252 . S
O230 In221 2.326 . S
O230 C226 1.260 . S
C231 O222 1.240 . S
C231 O223 1.252 . S
O232 In221 2.294 . S
O232 C225 1.240 . S
O233 In221 2.326 . S
O233 C225 1.252 . S
In234 O235 2.294 . S
In234 O236 2.326 . S
In234 O240 2.266 . S
In234 O241 2.326 . S
In234 O242 2.266 . S
In234 O243 2.326 . S
In234 O245 2.294 . S
In234 O246 2.326 . S
O235 In234 2.294 . S
O235 C244 1.240 . S
O236 In234 2.326 . S
O236 C244 1.252 . S
C237 O240 1.252 . S
C237 O241 1.260 . S
C238 O245 1.240 . S
C238 O246 1.252 . S
C239 O242 1.252 . S
C239 O243 1.260 . S
O240 In234 2.266 . S
O240 C237 1.252 . S
O241 In234 2.326 . S
O241 C237 1.260 . S
O242 In234 2.266 . S
O242 C239 1.252 . S
O243 In234 2.326 . S
O243 C239 1.260 . S
C244 O235 1.240 . S
C244 O236 1.252 . S
O245 In234 2.294 . S
O245 C238 1.240 . S
O246 In234 2.326 . S
O246 C238 1.252 . S
In247 O248 2.294 . S
In247 O249 2.326 . S
In247 O253 2.266 . S
In247 O254 2.326 . S
In247 O255 2.266 . S
In247 O256 2.326 . S
In247 O258 2.294 . S
In247 O259 2.326 . S
O248 In247 2.294 . S
O248 C257 1.240 . S
O249 In247 2.326 . S
O249 C257 1.252 . S
C250 O253 1.252 . S
C250 O254 1.260 . S
C251 O258 1.240 . S
C251 O259 1.252 . S
C252 O255 1.252 . S
C252 O256 1.260 . S
O253 In247 2.266 . S
O253 C250 1.252 . S
O254 In247 2.326 . S
O254 C250 1.260 . S
O255 In247 2.266 . S
O255 C252 1.252 . S
O256 In247 2.326 . S
O256 C252 1.260 . S
C257 O248 1.240 . S
C257 O249 1.252 . S
O258 In247 2.294 . S
O258 C251 1.240 . S
O259 In247 2.326 . S
O259 C251 1.252 . S
In260 O261 2.294 . S
In260 O262 2.326 . S
In260 O266 2.266 . S
In260 O267 2.326 . S
In260 O268 2.266 . S
In260 O269 2.326 . S
In260 O271 2.294 . S
In260 O272 2.326 . S
O261 In260 2.294 . S
O261 C270 1.240 . S
O262 In260 2.326 . S
O262 C270 1.252 . S
C263 O266 1.252 . S
C263 O267 1.260 . S
C264 O271 1.240 . S
C264 O272 1.252 . S
C265 O268 1.252 . S
C265 O269 1.260 . S
O266 In260 2.266 . S
O266 C263 1.252 . S
O267 In260 2.326 . S
O267 C263 1.260 . S
O268 In260 2.266 . S
O268 C265 1.252 . S
O269 In260 2.326 . S
O269 C265 1.260 . S
C270 O261 1.240 . S
C270 O262 1.252 . S
O271 In260 2.294 . S
O271 C264 1.240 . S
O272 In260 2.326 . S
O272 C264 1.252 . S
In273 O274 2.294 . S
In273 O275 2.326 . S
In273 O279 2.266 . S
In273 O280 2.326 . S
In273 O281 2.266 . S
In273 O282 2.326 . S
In273 O284 2.294 . S
In273 O285 2.326 . S
O274 In273 2.294 . S
O274 C283 1.240 . S
O275 In273 2.326 . S
O275 C283 1.252 . S
C276 O279 1.252 . S
C276 O280 1.260 . S
C277 O284 1.240 . S
C277 O285 1.252 . S
C278 O281 1.252 . S
C278 O282 1.260 . S
O279 In273 2.266 . S
O279 C276 1.252 . S
O280 In273 2.326 . S
O280 C276 1.260 . S
O281 In273 2.266 . S
O281 C278 1.252 . S
O282 In273 2.326 . S
O282 C278 1.260 . S
C283 O274 1.240 . S
C283 O275 1.252 . S
O284 In273 2.294 . S
O284 C277 1.240 . S
O285 In273 2.326 . S
O285 C277 1.252 . S
In286 O287 2.294 . S
In286 O288 2.326 . S
In286 O292 2.266 . S
In286 O293 2.326 . S
In286 O294 2.266 . S
In286 O295 2.326 . S
In286 O297 2.294 . S
In286 O298 2.326 . S
O287 In286 2.294 . S
O287 C296 1.240 . S
O288 In286 2.326 . S
O288 C296 1.252 . S
C289 O292 1.252 . S
C289 O293 1.260 . S
C290 O297 1.240 . S
C290 O298 1.252 . S
C291 O294 1.252 . S
C291 O295 1.260 . S
O292 In286 2.266 . S
O292 C289 1.252 . S
O293 In286 2.326 . S
O293 C289 1.260 . S
O294 In286 2.266 . S
O294 C291 1.252 . S
O295 In286 2.326 . S
O295 C291 1.260 . S
C296 O287 1.240 . S
C296 O288 1.252 . S
O297 In286 2.294 . S
O297 C290 1.240 . S
O298 In286 2.326 . S
O298 C290 1.252 . S
In299 O300 2.294 . S
In299 O301 2.326 . S
In299 O305 2.266 1_655 S
In299 O306 2.326 . S
In299 O307 2.266 . S
In299 O308 2.326 . S
In299 O310 2.294 . S
In299 O311 2.326 . S
O300 In299 2.294 . S
O300 C309 1.240 . S
O301 In299 2.326 . S
O301 C309 1.252 . S
C302 O305 1.252 1_655 S
C302 O306 1.260 . S
C303 O310 1.240 . S
C303 O311 1.252 . S
C304 O307 1.252 . S
C304 O308 1.260 . S
O305 In299 2.266 1_455 S
O305 C302 1.252 1_455 S
O306 In299 2.326 . S
O306 C302 1.260 . S
O307 In299 2.266 . S
O307 C304 1.252 . S
O308 In299 2.326 . S
O308 C304 1.260 . S
C309 O300 1.240 . S
C309 O301 1.252 . S
O310 In299 2.294 . S
O310 C303 1.240 . S
O311 In299 2.326 . S
O311 C303 1.252 . S
In312 O313 2.294 . S
In312 O314 2.326 . S
In312 O318 2.266 . S
In312 O319 2.326 . S
In312 O320 2.266 . S
In312 O321 2.326 . S
In312 O323 2.294 . S
In312 O324 2.326 . S
O313 In312 2.294 . S
O313 C322 1.240 . S
O314 In312 2.326 . S
O314 C322 1.252 . S
C315 O318 1.252 . S
C315 O319 1.260 . S
C316 O323 1.240 . S
C316 O324 1.252 . S
C317 O320 1.252 . S
C317 O321 1.260 . S
O318 In312 2.266 . S
O318 C315 1.252 . S
O319 In312 2.326 . S
O319 C315 1.260 . S
O320 In312 2.266 . S
O320 C317 1.252 . S
O321 In312 2.326 . S
O321 C317 1.260 . S
C322 O313 1.240 . S
C322 O314 1.252 . S
O323 In312 2.294 . S
O323 C316 1.240 . S
O324 In312 2.326 . S
O324 C316 1.252 . S
In325 O326 2.294 . S
In325 O327 2.326 . S
In325 O331 2.266 . S
In325 O332 2.326 . S
In325 O333 2.266 . S
In325 O334 2.326 . S
In325 O336 2.294 . S
In325 O337 2.326 . S
O326 In325 2.294 . S
O326 C335 1.240 . S
O327 In325 2.326 . S
O327 C335 1.252 . S
C328 O331 1.252 . S
C328 O332 1.260 . S
C329 O336 1.240 . S
C329 O337 1.252 . S
C330 O333 1.252 . S
C330 O334 1.260 . S
O331 In325 2.266 . S
O331 C328 1.252 . S
O332 In325 2.326 . S
O332 C328 1.260 . S
O333 In325 2.266 . S
O333 C330 1.252 . S
O334 In325 2.326 . S
O334 C330 1.260 . S
C335 O326 1.240 . S
C335 O327 1.252 . S
O336 In325 2.294 . S
O336 C329 1.240 . S
O337 In325 2.326 . S
O337 C329 1.252 . S
In338 O339 2.294 . S
In338 O340 2.326 . S
In338 O344 2.266 . S
In338 O345 2.326 . S
In338 O346 2.266 . S
In338 O347 2.326 . S
In338 O349 2.294 . S
In338 O350 2.326 . S
O339 In338 2.294 . S
O339 C348 1.240 . S
O340 In338 2.326 . S
O340 C348 1.252 . S
C341 O344 1.252 . S
C341 O345 1.260 . S
C342 O349 1.240 . S
C342 O350 1.252 . S
C343 O346 1.252 . S
C343 O347 1.260 . S
O344 In338 2.266 . S
O344 C341 1.252 . S
O345 In338 2.326 . S
O345 C341 1.260 . S
O346 In338 2.266 . S
O346 C343 1.252 . S
O347 In338 2.326 . S
O347 C343 1.260 . S
C348 O339 1.240 . S
C348 O340 1.252 . S
O349 In338 2.294 . S
O349 C342 1.240 . S
O350 In338 2.326 . S
O350 C342 1.252 . S
In351 O352 2.294 . S
In351 O353 2.326 . S
In351 O357 2.266 . S
In351 O358 2.326 . S
In351 O359 2.266 . S
In351 O360 2.326 . S
In351 O362 2.294 . S
In351 O363 2.326 . S
O352 In351 2.294 . S
O352 C361 1.240 . S
O353 In351 2.326 . S
O353 C361 1.252 . S
C354 O357 1.252 . S
C354 O358 1.260 . S
C355 O362 1.240 . S
C355 O363 1.252 . S
C356 O359 1.252 . S
C356 O360 1.260 . S
O357 In351 2.266 . S
O357 C354 1.252 . S
O358 In351 2.326 . S
O358 C354 1.260 . S
O359 In351 2.266 . S
O359 C356 1.252 . S
O360 In351 2.326 . S
O360 C356 1.260 . S
C361 O352 1.240 . S
C361 O353 1.252 . S
O362 In351 2.294 . S
O362 C355 1.240 . S
O363 In351 2.326 . S
O363 C355 1.252 . S
In364 O365 2.294 . S
In364 O366 2.326 . S
In364 O370 2.266 1_565 S
In364 O371 2.326 . S
In364 O372 2.266 . S
In364 O373 2.326 . S
In364 O375 2.294 . S
In364 O376 2.326 . S
O365 In364 2.294 . S
O365 C374 1.240 . S
O366 In364 2.326 . S
O366 C374 1.252 . S
C367 O370 1.252 1_565 S
C367 O371 1.260 . S
C368 O375 1.240 . S
C368 O376 1.252 . S
C369 O372 1.252 . S
C369 O373 1.260 . S
O370 In364 2.266 1_545 S
O370 C367 1.252 1_545 S
O371 In364 2.326 . S
O371 C367 1.260 . S
O372 In364 2.266 . S
O372 C369 1.252 . S
O373 In364 2.326 . S
O373 C369 1.260 . S
C374 O365 1.240 . S
C374 O366 1.252 . S
O375 In364 2.294 . S
O375 C368 1.240 . S
O376 In364 2.326 . S
O376 C368 1.252 . S
In377 O378 2.294 . S
In377 O379 2.326 . S
In377 O383 2.266 . S
In377 O384 2.326 . S
In377 O385 2.266 . S
In377 O386 2.326 . S
In377 O388 2.294 . S
In377 O389 2.326 . S
O378 In377 2.294 . S
O378 C387 1.240 . S
O379 In377 2.326 . S
O379 C387 1.252 . S
C380 O383 1.252 . S
C380 O384 1.260 . S
C381 O388 1.240 . S
C381 O389 1.252 . S
C382 O385 1.252 . S
C382 O386 1.260 . S
O383 In377 2.266 . S
O383 C380 1.252 . S
O384 In377 2.326 . S
O384 C380 1.260 . S
O385 In377 2.266 . S
O385 C382 1.252 . S
O386 In377 2.326 . S
O386 C382 1.260 . S
C387 O378 1.240 . S
C387 O379 1.252 . S
O388 In377 2.294 . S
O388 C381 1.240 . S
O389 In377 2.326 . S
O389 C381 1.252 . S
In390 O391 2.294 . S
In390 O392 2.326 . S
In390 O396 2.266 . S
In390 O397 2.326 . S
In390 O398 2.266 . S
In390 O399 2.326 . S
In390 O401 2.294 . S
In390 O402 2.326 . S
O391 In390 2.294 . S
O391 C400 1.240 . S
O392 In390 2.326 . S
O392 C400 1.252 . S
C393 O396 1.252 . S
C393 O397 1.260 . S
C394 O401 1.240 . S
C394 O402 1.252 . S
C395 O398 1.252 . S
C395 O399 1.260 . S
O396 In390 2.266 . S
O396 C393 1.252 . S
O397 In390 2.326 . S
O397 C393 1.260 . S
O398 In390 2.266 . S
O398 C395 1.252 . S
O399 In390 2.326 . S
O399 C395 1.260 . S
C400 O391 1.240 . S
C400 O392 1.252 . S
O401 In390 2.294 . S
O401 C394 1.240 . S
O402 In390 2.326 . S
O402 C394 1.252 . S
In403 O404 2.294 . S
In403 O405 2.326 . S
In403 O409 2.266 . S
In403 O410 2.326 . S
In403 O411 2.266 1_565 S
In403 O412 2.326 . S
In403 O414 2.294 . S
In403 O415 2.326 . S
O404 In403 2.294 . S
O404 C413 1.240 . S
O405 In403 2.326 . S
O405 C413 1.252 . S
C406 O409 1.252 . S
C406 O410 1.260 . S
C407 O414 1.240 . S
C407 O415 1.252 . S
C408 O411 1.252 1_565 S
C408 O412 1.260 . S
O409 In403 2.266 . S
O409 C406 1.252 . S
O410 In403 2.326 . S
O410 C406 1.260 . S
O411 In403 2.266 1_545 S
O411 C408 1.252 1_545 S
O412 In403 2.326 . S
O412 C408 1.260 . S
C413 O404 1.240 . S
C413 O405 1.252 . S
O414 In403 2.294 . S
O414 C407 1.240 . S
O415 In403 2.326 . S
O415 C407 1.252 . S
In416 O417 2.294 . S
In416 O418 2.326 . S
In416 O422 2.266 . S
In416 O423 2.326 . S
In416 O424 2.266 . S
In416 O425 2.326 . S
In416 O427 2.294 . S
In416 O428 2.326 . S
O417 In416 2.294 . S
O417 C426 1.240 . S
O418 In416 2.326 . S
O418 C426 1.252 . S
C419 O422 1.252 . S
C419 O423 1.260 . S
C420 O427 1.240 . S
C420 O428 1.252 . S
C421 O424 1.252 . S
C421 O425 1.260 . S
O422 In416 2.266 . S
O422 C419 1.252 . S
O423 In416 2.326 . S
O423 C419 1.260 . S
O424 In416 2.266 . S
O424 C421 1.252 . S
O425 In416 2.326 . S
O425 C421 1.260 . S
C426 O417 1.240 . S
C426 O418 1.252 . S
O427 In416 2.294 . S
O427 C420 1.240 . S
O428 In416 2.326 . S
O428 C420 1.252 . S
In429 O430 2.294 . S
In429 O431 2.326 . S
In429 O435 2.266 . S
In429 O436 2.326 . S
In429 O437 2.266 . S
In429 O438 2.326 . S
In429 O440 2.294 . S
In429 O441 2.326 . S
O430 In429 2.294 . S
O430 C439 1.240 . S
O431 In429 2.326 . S
O431 C439 1.252 . S
C432 O435 1.252 . S
C432 O436 1.260 . S
C433 O440 1.240 . S
C433 O441 1.252 . S
C434 O437 1.252 . S
C434 O438 1.260 . S
O435 In429 2.266 . S
O435 C432 1.252 . S
O436 In429 2.326 . S
O436 C432 1.260 . S
O437 In429 2.266 . S
O437 C434 1.252 . S
O438 In429 2.326 . S
O438 C434 1.260 . S
C439 O430 1.240 . S
C439 O431 1.252 . S
O440 In429 2.294 . S
O440 C433 1.240 . S
O441 In429 2.326 . S
O441 C433 1.252 . S
In442 O443 2.294 . S
In442 O444 2.326 . S
In442 O448 2.266 . S
In442 O449 2.326 . S
In442 O450 2.266 . S
In442 O451 2.326 . S
In442 O453 2.294 . S
In442 O454 2.326 . S
O443 In442 2.294 . S
O443 C452 1.240 . S
O444 In442 2.326 . S
O444 C452 1.252 . S
C445 O448 1.252 . S
C445 O449 1.260 . S
C446 O453 1.240 . S
C446 O454 1.252 . S
C447 O450 1.252 . S
C447 O451 1.260 . S
O448 In442 2.266 . S
O448 C445 1.252 . S
O449 In442 2.326 . S
O449 C445 1.260 . S
O450 In442 2.266 . S
O450 C447 1.252 . S
O451 In442 2.326 . S
O451 C447 1.260 . S
C452 O443 1.240 . S
C452 O444 1.252 . S
O453 In442 2.294 . S
O453 C446 1.240 . S
O454 In442 2.326 . S
O454 C446 1.252 . S
In455 O456 2.294 . S
In455 O457 2.326 . S
In455 O461 2.266 . S
In455 O462 2.326 . S
In455 O463 2.266 . S
In455 O464 2.326 . S
In455 O466 2.294 . S
In455 O467 2.326 . S
O456 In455 2.294 . S
O456 C465 1.240 . S
O457 In455 2.326 . S
O457 C465 1.252 . S
C458 O461 1.252 . S
C458 O462 1.260 . S
C459 O466 1.240 . S
C459 O467 1.252 . S
C460 O463 1.252 . S
C460 O464 1.260 . S
O461 In455 2.266 . S
O461 C458 1.252 . S
O462 In455 2.326 . S
O462 C458 1.260 . S
O463 In455 2.266 . S
O463 C460 1.252 . S
O464 In455 2.326 . S
O464 C460 1.260 . S
C465 O456 1.240 . S
C465 O457 1.252 . S
O466 In455 2.294 . S
O466 C459 1.240 . S
O467 In455 2.326 . S
O467 C459 1.252 . S
H468 C480 0.930 . S
H469 C482 0.930 . S
H470 C483 0.930 . S
H471 C487 0.959 . S
H472 C487 0.959 . S
H473 C487 0.961 . S
H474 C488 0.960 . S
H475 C488 0.961 . S
H476 C488 0.959 . S
H477 C491 0.929 . S
H478 C492 0.931 . S
H479 C494 0.930 . S
C480 H468 0.930 . S
C480 C481 1.399 . S
C480 C485 1.399 . S
C481 C480 1.399 . S
C481 C482 1.376 . S
C482 H469 0.930 . S
C482 C481 1.376 . S
C482 C483 1.388 . S
C483 H470 0.930 . S
C483 C482 1.388 . S
C483 C484 1.390 . S
C484 C483 1.390 . S
C484 C485 1.394 . S
C484 C490 1.465 . S
C485 C480 1.399 . S
C485 C484 1.394 . S
C485 C486 1.516 . S
C486 C485 1.516 . S
C486 C487 1.502 . S
C486 C488 1.561 . S
C486 C489 1.526 . S
C487 H471 0.959 . S
C487 H472 0.959 . S
C487 H473 0.961 . S
C487 C486 1.502 . S
C488 H474 0.960 . S
C488 H475 0.961 . S
C488 H476 0.959 . S
C488 C486 1.561 . S
C489 C486 1.526 . S
C489 C490 1.396 . S
C489 C494 1.390 . S
C490 C484 1.465 . S
C490 C489 1.396 . S
C490 C491 1.399 . S
C491 H477 0.929 . S
C491 C490 1.399 . S
C491 C492 1.385 . S
C492 H478 0.931 . S
C492 C491 1.385 . S
C492 C493 1.389 . S
C493 C492 1.389 . S
C493 C494 1.387 . S
C494 H479 0.930 . S
C494 C489 1.390 . S
C494 C493 1.387 . S
H495 C507 0.930 . S
H496 C509 0.930 . S
H497 C510 0.930 . S
H498 C514 0.959 . S
H499 C514 0.959 . S
H500 C514 0.961 . S
H501 C515 0.960 . S
H502 C515 0.961 . S
H503 C515 0.959 . S
H504 C518 0.929 . S
H505 C519 0.931 . S
H506 C521 0.930 . S
C507 H495 0.930 . S
C507 C508 1.399 . S
C507 C512 1.399 . S
C508 C507 1.399 . S
C508 C509 1.376 . S
C509 H496 0.930 . S
C509 C508 1.376 . S
C509 C510 1.388 . S
C510 H497 0.930 . S
C510 C509 1.388 . S
C510 C511 1.390 . S
C511 C510 1.390 . S
C511 C512 1.394 . S
C511 C517 1.465 . S
C512 C507 1.399 . S
C512 C511 1.394 . S
C512 C513 1.516 . S
C513 C512 1.516 . S
C513 C514 1.502 . S
C513 C515 1.561 . S
C513 C516 1.526 . S
C514 H498 0.959 . S
C514 H499 0.959 . S
C514 H500 0.961 . S
C514 C513 1.502 . S
C515 H501 0.960 . S
C515 H502 0.961 . S
C515 H503 0.959 . S
C515 C513 1.561 . S
C516 C513 1.526 . S
C516 C517 1.396 . S
C516 C521 1.390 . S
C517 C511 1.465 . S
C517 C516 1.396 . S
C517 C518 1.399 . S
C518 H504 0.929 . S
C518 C517 1.399 . S
C518 C519 1.385 . S
C519 H505 0.931 . S
C519 C518 1.385 . S
C519 C520 1.389 . S
C520 C519 1.389 . S
C520 C521 1.387 . S
C521 H506 0.930 . S
C521 C516 1.390 . S
C521 C520 1.387 . S
H522 C534 0.930 . S
H523 C536 0.930 . S
H524 C537 0.930 . S
H525 C541 0.959 . S
H526 C541 0.959 . S
H527 C541 0.961 . S
H528 C542 0.960 . S
H529 C542 0.961 . S
H530 C542 0.959 . S
H531 C545 0.929 . S
H532 C546 0.931 . S
H533 C548 0.930 . S
C534 H522 0.930 . S
C534 C535 1.399 . S
C534 C539 1.399 . S
C535 C534 1.399 . S
C535 C536 1.376 . S
C536 H523 0.930 . S
C536 C535 1.376 . S
C536 C537 1.388 . S
C537 H524 0.930 . S
C537 C536 1.388 . S
C537 C538 1.390 . S
C538 C537 1.390 . S
C538 C539 1.394 . S
C538 C544 1.465 . S
C539 C534 1.399 . S
C539 C538 1.394 . S
C539 C540 1.516 . S
C540 C539 1.516 . S
C540 C541 1.502 . S
C540 C542 1.561 . S
C540 C543 1.526 . S
C541 H525 0.959 . S
C541 H526 0.959 . S
C541 H527 0.961 . S
C541 C540 1.502 . S
C542 H528 0.960 . S
C542 H529 0.961 . S
C542 H530 0.959 . S
C542 C540 1.561 . S
C543 C540 1.526 . S
C543 C544 1.396 . S
C543 C548 1.390 . S
C544 C538 1.465 . S
C544 C543 1.396 . S
C544 C545 1.399 . S
C545 H531 0.929 . S
C545 C544 1.399 . S
C545 C546 1.385 . S
C546 H532 0.931 . S
C546 C545 1.385 . S
C546 C547 1.389 . S
C547 C546 1.389 . S
C547 C548 1.387 . S
C548 H533 0.930 . S
C548 C543 1.390 . S
C548 C547 1.387 . S
H549 C561 0.930 . S
H550 C563 0.930 . S
H551 C564 0.930 . S
H552 C568 0.959 . S
H553 C568 0.959 . S
H554 C568 0.961 . S
H555 C569 0.960 . S
H556 C569 0.961 . S
H557 C569 0.959 . S
H558 C572 0.929 . S
H559 C573 0.931 . S
H560 C575 0.930 . S
C561 H549 0.930 . S
C561 C562 1.399 . S
C561 C566 1.399 . S
C562 C561 1.399 . S
C562 C563 1.376 . S
C563 H550 0.930 . S
C563 C562 1.376 . S
C563 C564 1.388 . S
C564 H551 0.930 . S
C564 C563 1.388 . S
C564 C565 1.390 . S
C565 C564 1.390 . S
C565 C566 1.394 . S
C565 C571 1.465 . S
C566 C561 1.399 . S
C566 C565 1.394 . S
C566 C567 1.516 . S
C567 C566 1.516 . S
C567 C568 1.502 . S
C567 C569 1.561 . S
C567 C570 1.526 . S
C568 H552 0.959 . S
C568 H553 0.959 . S
C568 H554 0.961 . S
C568 C567 1.502 . S
C569 H555 0.960 . S
C569 H556 0.961 . S
C569 H557 0.959 . S
C569 C567 1.561 . S
C570 C567 1.526 . S
C570 C571 1.396 . S
C570 C575 1.390 . S
C571 C565 1.465 . S
C571 C570 1.396 . S
C571 C572 1.399 . S
C572 H558 0.929 . S
C572 C571 1.399 . S
C572 C573 1.385 . S
C573 H559 0.931 . S
C573 C572 1.385 . S
C573 C574 1.389 . S
C574 C573 1.389 . S
C574 C575 1.387 . S
C575 H560 0.930 . S
C575 C570 1.390 . S
C575 C574 1.387 . S
H576 C588 0.930 . S
H577 C590 0.930 . S
H578 C591 0.930 . S
H579 C595 0.959 . S
H580 C595 0.959 . S
H581 C595 0.961 . S
H582 C596 0.960 . S
H583 C596 0.961 . S
H584 C596 0.959 . S
H585 C599 0.929 . S
H586 C600 0.931 . S
H587 C602 0.930 . S
C588 H576 0.930 . S
C588 C589 1.399 . S
C588 C593 1.399 . S
C589 C588 1.399 . S
C589 C590 1.376 . S
C590 H577 0.930 . S
C590 C589 1.376 . S
C590 C591 1.388 . S
C591 H578 0.930 . S
C591 C590 1.388 . S
C591 C592 1.390 . S
C592 C591 1.390 . S
C592 C593 1.394 . S
C592 C598 1.465 . S
C593 C588 1.399 . S
C593 C592 1.394 . S
C593 C594 1.516 . S
C594 C593 1.516 . S
C594 C595 1.502 . S
C594 C596 1.561 . S
C594 C597 1.526 . S
C595 H579 0.959 . S
C595 H580 0.959 . S
C595 H581 0.961 . S
C595 C594 1.502 . S
C596 H582 0.960 . S
C596 H583 0.961 . S
C596 H584 0.959 . S
C596 C594 1.561 . S
C597 C594 1.526 . S
C597 C598 1.396 . S
C597 C602 1.390 . S
C598 C592 1.465 . S
C598 C597 1.396 . S
C598 C599 1.399 . S
C599 H585 0.929 . S
C599 C598 1.399 . S
C599 C600 1.385 . S
C600 H586 0.931 . S
C600 C599 1.385 . S
C600 C601 1.389 . S
C601 C600 1.389 . S
C601 C602 1.387 . S
C602 H587 0.930 . S
C602 C597 1.390 . S
C602 C601 1.387 . S
H603 C615 0.930 . S
H604 C617 0.930 . S
H605 C618 0.930 . S
H606 C622 0.959 . S
H607 C622 0.959 . S
H608 C622 0.961 . S
H609 C623 0.960 . S
H610 C623 0.961 . S
H611 C623 0.959 . S
H612 C626 0.929 . S
H613 C627 0.931 . S
H614 C629 0.930 . S
C615 H603 0.930 . S
C615 C616 1.399 . S
C615 C620 1.399 . S
C616 C615 1.399 . S
C616 C617 1.376 . S
C617 H604 0.930 . S
C617 C616 1.376 . S
C617 C618 1.388 . S
C618 H605 0.930 . S
C618 C617 1.388 . S
C618 C619 1.390 . S
C619 C618 1.390 . S
C619 C620 1.394 . S
C619 C625 1.465 . S
C620 C615 1.399 . S
C620 C619 1.394 . S
C620 C621 1.516 . S
C621 C620 1.516 . S
C621 C622 1.502 . S
C621 C623 1.561 . S
C621 C624 1.526 . S
C622 H606 0.959 . S
C622 H607 0.959 . S
C622 H608 0.961 . S
C622 C621 1.502 . S
C623 H609 0.960 . S
C623 H610 0.961 . S
C623 H611 0.959 . S
C623 C621 1.561 . S
C624 C621 1.526 . S
C624 C625 1.396 . S
C624 C629 1.390 . S
C625 C619 1.465 . S
C625 C624 1.396 . S
C625 C626 1.399 . S
C626 H612 0.929 . S
C626 C625 1.399 . S
C626 C627 1.385 . S
C627 H613 0.931 . S
C627 C626 1.385 . S
C627 C628 1.389 . S
C628 C627 1.389 . S
C628 C629 1.387 . S
C629 H614 0.930 . S
C629 C624 1.390 . S
C629 C628 1.387 . S
H630 C642 0.930 . S
H631 C644 0.930 . S
H632 C645 0.930 . S
H633 C649 0.959 . S
H634 C649 0.959 . S
H635 C649 0.961 . S
H636 C650 0.960 . S
H637 C650 0.961 . S
H638 C650 0.959 . S
H639 C653 0.929 . S
H640 C654 0.931 . S
H641 C656 0.930 . S
C642 H630 0.930 . S
C642 C643 1.399 . S
C642 C647 1.399 . S
C643 C642 1.399 . S
C643 C644 1.376 . S
C644 H631 0.930 . S
C644 C643 1.376 . S
C644 C645 1.388 . S
C645 H632 0.930 . S
C645 C644 1.388 . S
C645 C646 1.390 . S
C646 C645 1.390 . S
C646 C647 1.394 . S
C646 C652 1.465 . S
C647 C642 1.399 . S
C647 C646 1.394 . S
C647 C648 1.516 . S
C648 C647 1.516 . S
C648 C649 1.502 . S
C648 C650 1.561 . S
C648 C651 1.526 . S
C649 H633 0.959 . S
C649 H634 0.959 . S
C649 H635 0.961 . S
C649 C648 1.502 . S
C650 H636 0.960 . S
C650 H637 0.961 . S
C650 H638 0.959 . S
C650 C648 1.561 . S
C651 C648 1.526 . S
C651 C652 1.396 . S
C651 C656 1.390 . S
C652 C646 1.465 . S
C652 C651 1.396 . S
C652 C653 1.399 . S
C653 H639 0.929 . S
C653 C652 1.399 . S
C653 C654 1.385 . S
C654 H640 0.931 . S
C654 C653 1.385 . S
C654 C655 1.389 . S
C655 C654 1.389 . S
C655 C656 1.387 . S
C656 H641 0.930 . S
C656 C651 1.390 . S
C656 C655 1.387 . S
H657 C669 0.930 . S
H658 C671 0.930 . S
H659 C672 0.930 . S
H660 C676 0.959 . S
H661 C676 0.959 . S
H662 C676 0.961 . S
H663 C677 0.960 . S
H664 C677 0.961 . S
H665 C677 0.959 . S
H666 C680 0.929 . S
H667 C681 0.931 . S
H668 C683 0.930 . S
C669 H657 0.930 . S
C669 C670 1.399 . S
C669 C674 1.399 . S
C670 C669 1.399 . S
C670 C671 1.376 . S
C671 H658 0.930 . S
C671 C670 1.376 . S
C671 C672 1.388 . S
C672 H659 0.930 . S
C672 C671 1.388 . S
C672 C673 1.390 . S
C673 C672 1.390 . S
C673 C674 1.394 . S
C673 C679 1.465 . S
C674 C669 1.399 . S
C674 C673 1.394 . S
C674 C675 1.516 . S
C675 C674 1.516 . S
C675 C676 1.502 . S
C675 C677 1.561 . S
C675 C678 1.526 . S
C676 H660 0.959 . S
C676 H661 0.959 . S
C676 H662 0.961 . S
C676 C675 1.502 . S
C677 H663 0.960 . S
C677 H664 0.961 . S
C677 H665 0.959 . S
C677 C675 1.561 . S
C678 C675 1.526 . S
C678 C679 1.396 . S
C678 C683 1.390 . S
C679 C673 1.465 . S
C679 C678 1.396 . S
C679 C680 1.399 . S
C680 H666 0.929 . S
C680 C679 1.399 . S
C680 C681 1.385 . S
C681 H667 0.931 . S
C681 C680 1.385 . S
C681 C682 1.389 . S
C682 C681 1.389 . S
C682 C683 1.387 . S
C683 H668 0.930 . S
C683 C678 1.390 . S
C683 C682 1.387 . S
H684 C696 0.930 . S
H685 C698 0.930 . S
H686 C699 0.930 . S
H687 C703 0.959 . S
H688 C703 0.959 . S
H689 C703 0.961 . S
H690 C704 0.960 . S
H691 C704 0.961 . S
H692 C704 0.959 . S
H693 C707 0.929 . S
H694 C708 0.931 . S
H695 C710 0.930 . S
C696 H684 0.930 . S
C696 C697 1.399 . S
C696 C701 1.399 . S
C697 C696 1.399 . S
C697 C698 1.376 . S
C698 H685 0.930 . S
C698 C697 1.376 . S
C698 C699 1.388 . S
C699 H686 0.930 . S
C699 C698 1.388 . S
C699 C700 1.390 . S
C700 C699 1.390 . S
C700 C701 1.394 . S
C700 C706 1.465 . S
C701 C696 1.399 . S
C701 C700 1.394 . S
C701 C702 1.516 . S
C702 C701 1.516 . S
C702 C703 1.502 . S
C702 C704 1.561 . S
C702 C705 1.526 . S
C703 H687 0.959 . S
C703 H688 0.959 . S
C703 H689 0.961 . S
C703 C702 1.502 . S
C704 H690 0.960 . S
C704 H691 0.961 . S
C704 H692 0.959 . S
C704 C702 1.561 . S
C705 C702 1.526 . S
C705 C706 1.396 . S
C705 C710 1.390 . S
C706 C700 1.465 . S
C706 C705 1.396 . S
C706 C707 1.399 . S
C707 H693 0.929 . S
C707 C706 1.399 . S
C707 C708 1.385 . S
C708 H694 0.931 . S
C708 C707 1.385 . S
C708 C709 1.389 . S
C709 C708 1.389 . S
C709 C710 1.387 . S
C710 H695 0.930 . S
C710 C705 1.390 . S
C710 C709 1.387 . S
H711 C723 0.930 . S
H712 C725 0.930 . S
H713 C726 0.930 . S
H714 C730 0.959 . S
H715 C730 0.959 . S
H716 C730 0.961 . S
H717 C731 0.960 . S
H718 C731 0.961 . S
H719 C731 0.959 1_455 S
H720 C734 0.929 . S
H721 C735 0.931 . S
H722 C737 0.930 . S
C723 H711 0.930 . S
C723 C724 1.399 . S
C723 C728 1.399 . S
C724 C723 1.399 . S
C724 C725 1.376 . S
C725 H712 0.930 . S
C725 C724 1.376 . S
C725 C726 1.388 . S
C726 H713 0.930 . S
C726 C725 1.388 . S
C726 C727 1.390 . S
C727 C726 1.390 . S
C727 C728 1.394 . S
C727 C733 1.465 . S
C728 C723 1.399 . S
C728 C727 1.394 . S
C728 C729 1.516 . S
C729 C728 1.516 . S
C729 C730 1.502 . S
C729 C731 1.561 . S
C729 C732 1.526 . S
C730 H714 0.959 . S
C730 H715 0.959 . S
C730 H716 0.961 . S
C730 C729 1.502 . S
C731 H717 0.960 . S
C731 H718 0.961 . S
C731 H719 0.959 1_655 S
C731 C729 1.561 . S
C732 C729 1.526 . S
C732 C733 1.396 . S
C732 C737 1.390 . S
C733 C727 1.465 . S
C733 C732 1.396 . S
C733 C734 1.399 . S
C734 H720 0.929 . S
C734 C733 1.399 . S
C734 C735 1.385 . S
C735 H721 0.931 . S
C735 C734 1.385 . S
C735 C736 1.389 . S
C736 C735 1.389 . S
C736 C737 1.387 . S
C737 H722 0.930 . S
C737 C732 1.390 . S
C737 C736 1.387 . S
H738 C750 0.930 . S
H739 C752 0.930 . S
H740 C753 0.930 . S
H741 C757 0.959 . S
H742 C757 0.959 . S
H743 C757 0.961 . S
H744 C758 0.960 . S
H745 C758 0.961 . S
H746 C758 0.959 . S
H747 C761 0.929 . S
H748 C762 0.931 . S
H749 C764 0.930 . S
C750 H738 0.930 . S
C750 C751 1.399 . S
C750 C755 1.399 . S
C751 C750 1.399 . S
C751 C752 1.376 . S
C752 H739 0.930 . S
C752 C751 1.376 . S
C752 C753 1.388 . S
C753 H740 0.930 . S
C753 C752 1.388 . S
C753 C754 1.390 . S
C754 C753 1.390 . S
C754 C755 1.394 . S
C754 C760 1.465 . S
C755 C750 1.399 . S
C755 C754 1.394 . S
C755 C756 1.516 . S
C756 C755 1.516 . S
C756 C757 1.502 . S
C756 C758 1.561 . S
C756 C759 1.526 . S
C757 H741 0.959 . S
C757 H742 0.959 . S
C757 H743 0.961 . S
C757 C756 1.502 . S
C758 H744 0.960 . S
C758 H745 0.961 . S
C758 H746 0.959 . S
C758 C756 1.561 . S
C759 C756 1.526 . S
C759 C760 1.396 . S
C759 C764 1.390 . S
C760 C754 1.465 . S
C760 C759 1.396 . S
C760 C761 1.399 . S
C761 H747 0.929 . S
C761 C760 1.399 . S
C761 C762 1.385 . S
C762 H748 0.931 . S
C762 C761 1.385 . S
C762 C763 1.389 . S
C763 C762 1.389 . S
C763 C764 1.387 . S
C764 H749 0.930 . S
C764 C759 1.390 . S
C764 C763 1.387 . S
H765 C777 0.930 . S
H766 C779 0.930 . S
H767 C780 0.930 . S
H768 C784 0.959 . S
H769 C784 0.959 . S
H770 C784 0.961 . S
H771 C785 0.960 . S
H772 C785 0.961 . S
H773 C785 0.959 . S
H774 C788 0.929 . S
H775 C789 0.931 . S
H776 C791 0.930 . S
C777 H765 0.930 . S
C777 C778 1.399 . S
C777 C782 1.399 . S
C778 C777 1.399 . S
C778 C779 1.376 . S
C779 H766 0.930 . S
C779 C778 1.376 . S
C779 C780 1.388 . S
C780 H767 0.930 . S
C780 C779 1.388 . S
C780 C781 1.390 . S
C781 C780 1.390 . S
C781 C782 1.394 . S
C781 C787 1.465 . S
C782 C777 1.399 . S
C782 C781 1.394 . S
C782 C783 1.516 . S
C783 C782 1.516 . S
C783 C784 1.502 . S
C783 C785 1.561 . S
C783 C786 1.526 . S
C784 H768 0.959 . S
C784 H769 0.959 . S
C784 H770 0.961 . S
C784 C783 1.502 . S
C785 H771 0.960 . S
C785 H772 0.961 . S
C785 H773 0.959 . S
C785 C783 1.561 . S
C786 C783 1.526 . S
C786 C787 1.396 . S
C786 C791 1.390 . S
C787 C781 1.465 . S
C787 C786 1.396 . S
C787 C788 1.399 . S
C788 H774 0.929 . S
C788 C787 1.399 . S
C788 C789 1.385 . S
C789 H775 0.931 . S
C789 C788 1.385 . S
C789 C790 1.389 . S
C790 C789 1.389 . S
C790 C791 1.387 . S
C791 H776 0.930 . S
C791 C786 1.390 . S
C791 C790 1.387 . S
H792 C804 0.925 . S
H793 C806 0.930 . S
H794 C807 0.930 . S
H795 C811 0.959 1_565 S
H796 C811 0.959 . S
H797 C811 0.961 . S
H798 C812 0.960 . S
H799 C812 0.961 . S
H800 C812 0.959 . S
H801 C815 0.929 . S
H802 C816 0.931 . S
H803 C818 0.925 1_545 S
C804 H792 0.925 . S
C804 C805 1.399 . S
C804 C809 1.399 . S
C805 C804 1.399 . S
C805 C806 1.376 . S
C806 H793 0.930 . S
C806 C805 1.376 . S
C806 C807 1.388 . S
C807 H794 0.930 . S
C807 C806 1.388 . S
C807 C808 1.390 . S
C808 C807 1.390 . S
C808 C809 1.394 . S
C808 C814 1.465 . S
C809 C804 1.399 . S
C809 C808 1.394 . S
C809 C810 1.520 . S
C810 C809 1.520 . S
C810 C811 1.499 1_565 S
C810 C812 1.521 1_565 S
C810 C813 1.568 . S
C811 H795 0.959 1_545 S
C811 H796 0.959 . S
C811 H797 0.961 . S
C811 C810 1.499 1_545 S
C812 H798 0.960 . S
C812 H799 0.961 . S
C812 H800 0.959 . S
C812 C810 1.521 1_545 S
C813 C810 1.568 . S
C813 C814 1.396 . S
C813 C818 1.390 . S
C814 C808 1.465 . S
C814 C813 1.396 . S
C814 C815 1.399 . S
C815 H801 0.929 . S
C815 C814 1.399 . S
C815 C816 1.385 . S
C816 H802 0.931 . S
C816 C815 1.385 . S
C816 C817 1.389 . S
C817 C816 1.389 . S
C817 C818 1.387 . S
C818 H803 0.925 1_565 S
C818 C813 1.390 . S
C818 C817 1.387 . S
H819 C831 0.930 . S
H820 C833 0.930 . S
H821 C834 0.930 . S
H822 C838 0.959 . S
H823 C838 0.959 . S
H824 C838 0.961 . S
H825 C839 0.960 . S
H826 C839 0.961 . S
H827 C839 0.959 . S
H828 C842 0.929 . S
H829 C843 0.931 . S
H830 C845 0.930 . S
C831 H819 0.930 . S
C831 C832 1.399 . S
C831 C836 1.399 . S
C832 C831 1.399 . S
C832 C833 1.376 . S
C833 H820 0.930 . S
C833 C832 1.376 . S
C833 C834 1.388 . S
C834 H821 0.930 . S
C834 C833 1.388 . S
C834 C835 1.390 . S
C835 C834 1.390 . S
C835 C836 1.394 . S
C835 C841 1.465 . S
C836 C831 1.399 . S
C836 C835 1.394 . S
C836 C837 1.516 . S
C837 C836 1.516 . S
C837 C838 1.502 . S
C837 C839 1.561 . S
C837 C840 1.526 . S
C838 H822 0.959 . S
C838 H823 0.959 . S
C838 H824 0.961 . S
C838 C837 1.502 . S
C839 H825 0.960 . S
C839 H826 0.961 . S
C839 H827 0.959 . S
C839 C837 1.561 . S
C840 C837 1.526 . S
C840 C841 1.396 . S
C840 C845 1.390 . S
C841 C835 1.465 . S
C841 C840 1.396 . S
C841 C842 1.399 . S
C842 H828 0.929 . S
C842 C841 1.399 . S
C842 C843 1.385 . S
C843 H829 0.931 . S
C843 C842 1.385 . S
C843 C844 1.389 . S
C844 C843 1.389 . S
C844 C845 1.387 . S
C845 H830 0.930 . S
C845 C840 1.390 . S
C845 C844 1.387 . S
H846 C858 0.930 . S
H847 C860 0.930 . S
H848 C861 0.930 . S
H849 C865 0.959 . S
H850 C865 0.959 . S
H851 C865 0.961 . S
H852 C866 0.960 . S
H853 C866 0.961 . S
H854 C866 0.959 . S
H855 C869 0.929 . S
H856 C870 0.931 . S
H857 C872 0.930 . S
C858 H846 0.930 . S
C858 C859 1.399 . S
C858 C863 1.399 . S
C859 C858 1.399 . S
C859 C860 1.376 . S
C860 H847 0.930 . S
C860 C859 1.376 . S
C860 C861 1.388 . S
C861 H848 0.930 . S
C861 C860 1.388 . S
C861 C862 1.390 . S
C862 C861 1.390 . S
C862 C863 1.394 . S
C862 C868 1.465 . S
C863 C858 1.399 . S
C863 C862 1.394 . S
C863 C864 1.516 . S
C864 C863 1.516 . S
C864 C865 1.502 . S
C864 C866 1.561 . S
C864 C867 1.526 . S
C865 H849 0.959 . S
C865 H850 0.959 . S
C865 H851 0.961 . S
C865 C864 1.502 . S
C866 H852 0.960 . S
C866 H853 0.961 . S
C866 H854 0.959 . S
C866 C864 1.561 . S
C867 C864 1.526 . S
C867 C868 1.396 . S
C867 C872 1.390 . S
C868 C862 1.465 . S
C868 C867 1.396 . S
C868 C869 1.399 . S
C869 H855 0.929 . S
C869 C868 1.399 . S
C869 C870 1.385 . S
C870 H856 0.931 . S
C870 C869 1.385 . S
C870 C871 1.389 . S
C871 C870 1.389 . S
C871 C872 1.387 . S
C872 H857 0.930 . S
C872 C867 1.390 . S
C872 C871 1.387 . S
H873 C885 0.930 . S
H874 C887 0.930 . S
H875 C888 0.930 . S
H876 C892 0.959 . S
H877 C892 0.959 . S
H878 C892 0.961 . S
H879 C893 0.960 . S
H880 C893 0.961 . S
H881 C893 0.959 . S
H882 C896 0.929 . S
H883 C897 0.931 . S
H884 C899 0.930 . S
C885 H873 0.930 . S
C885 C886 1.399 . S
C885 C890 1.399 . S
C886 C885 1.399 . S
C886 C887 1.376 . S
C887 H874 0.930 . S
C887 C886 1.376 . S
C887 C888 1.388 . S
C888 H875 0.930 . S
C888 C887 1.388 . S
C888 C889 1.390 . S
C889 C888 1.390 . S
C889 C890 1.394 . S
C889 C895 1.465 . S
C890 C885 1.399 . S
C890 C889 1.394 . S
C890 C891 1.516 . S
C891 C890 1.516 . S
C891 C892 1.502 . S
C891 C893 1.561 . S
C891 C894 1.526 . S
C892 H876 0.959 . S
C892 H877 0.959 . S
C892 H878 0.961 . S
C892 C891 1.502 . S
C893 H879 0.960 . S
C893 H880 0.961 . S
C893 H881 0.959 . S
C893 C891 1.561 . S
C894 C891 1.526 . S
C894 C895 1.396 . S
C894 C899 1.390 . S
C895 C889 1.465 . S
C895 C894 1.396 . S
C895 C896 1.399 . S
C896 H882 0.929 . S
C896 C895 1.399 . S
C896 C897 1.385 . S
C897 H883 0.931 . S
C897 C896 1.385 . S
C897 C898 1.389 . S
C898 C897 1.389 . S
C898 C899 1.387 . S
C899 H884 0.930 . S
C899 C894 1.390 . S
C899 C898 1.387 . S
H900 C912 0.930 . S
H901 C914 0.930 . S
H902 C915 0.930 . S
H903 C919 0.959 . S
H904 C919 0.959 . S
H905 C919 0.961 . S
H906 C920 0.960 . S
H907 C920 0.961 . S
H908 C920 0.959 . S
H909 C923 0.929 . S
H910 C924 0.931 . S
H911 C926 0.930 . S
C912 H900 0.930 . S
C912 C913 1.399 . S
C912 C917 1.399 . S
C913 C912 1.399 . S
C913 C914 1.376 . S
C914 H901 0.930 . S
C914 C913 1.376 . S
C914 C915 1.388 . S
C915 H902 0.930 . S
C915 C914 1.388 . S
C915 C916 1.390 . S
C916 C915 1.390 . S
C916 C917 1.394 . S
C916 C922 1.465 . S
C917 C912 1.399 . S
C917 C916 1.394 . S
C917 C918 1.516 . S
C918 C917 1.516 . S
C918 C919 1.502 . S
C918 C920 1.561 . S
C918 C921 1.526 . S
C919 H903 0.959 . S
C919 H904 0.959 . S
C919 H905 0.961 . S
C919 C918 1.502 . S
C920 H906 0.960 . S
C920 H907 0.961 . S
C920 H908 0.959 . S
C920 C918 1.561 . S
C921 C918 1.526 . S
C921 C922 1.396 . S
C921 C926 1.390 . S
C922 C916 1.465 . S
C922 C921 1.396 . S
C922 C923 1.399 . S
C923 H909 0.929 . S
C923 C922 1.399 . S
C923 C924 1.385 . S
C924 H910 0.931 . S
C924 C923 1.385 . S
C924 C925 1.389 . S
C925 C924 1.389 . S
C925 C926 1.387 . S
C926 H911 0.930 . S
C926 C921 1.390 . S
C926 C925 1.387 . S
H927 C939 0.930 . S
H928 C941 0.930 . S
H929 C942 0.930 . S
H930 C946 0.959 . S
H931 C946 0.959 . S
H932 C946 0.961 . S
H933 C947 0.960 . S
H934 C947 0.961 . S
H935 C947 0.959 . S
H936 C950 0.929 . S
H937 C951 0.931 . S
H938 C953 0.930 . S
C939 H927 0.930 . S
C939 C940 1.399 . S
C939 C944 1.399 . S
C940 C939 1.399 . S
C940 C941 1.376 . S
C941 H928 0.930 . S
C941 C940 1.376 . S
C941 C942 1.388 . S
C942 H929 0.930 . S
C942 C941 1.388 . S
C942 C943 1.390 . S
C943 C942 1.390 . S
C943 C944 1.394 . S
C943 C949 1.465 . S
C944 C939 1.399 . S
C944 C943 1.394 . S
C944 C945 1.516 . S
C945 C944 1.516 . S
C945 C946 1.502 . S
C945 C947 1.561 . S
C945 C948 1.526 . S
C946 H930 0.959 . S
C946 H931 0.959 . S
C946 H932 0.961 . S
C946 C945 1.502 . S
C947 H933 0.960 . S
C947 H934 0.961 . S
C947 H935 0.959 . S
C947 C945 1.561 . S
C948 C945 1.526 . S
C948 C949 1.396 . S
C948 C953 1.390 . S
C949 C943 1.465 . S
C949 C948 1.396 . S
C949 C950 1.399 . S
C950 H936 0.929 . S
C950 C949 1.399 . S
C950 C951 1.385 . S
C951 H937 0.931 . S
C951 C950 1.385 . S
C951 C952 1.389 . S
C952 C951 1.389 . S
C952 C953 1.387 . S
C953 H938 0.930 . S
C953 C948 1.390 . S
C953 C952 1.387 . S
H954 C966 0.930 . S
H955 C968 0.930 . S
H956 C969 0.930 . S
H957 C973 0.959 . S
H958 C973 0.959 . S
H959 C973 0.961 . S
H960 C974 0.960 . S
H961 C974 0.961 . S
H962 C974 0.959 1_455 S
H963 C977 0.929 . S
H964 C978 0.931 . S
H965 C980 0.930 . S
C966 H954 0.930 . S
C966 C967 1.399 1_655 S
C966 C971 1.399 . S
C967 C966 1.399 1_455 S
C967 C968 1.376 . S
C968 H955 0.930 . S
C968 C967 1.376 . S
C968 C969 1.388 . S
C969 H956 0.930 . S
C969 C968 1.388 . S
C969 C970 1.390 . S
C970 C969 1.390 . S
C970 C971 1.394 1_455 S
C970 C976 1.465 . S
C971 C966 1.399 . S
C971 C970 1.394 1_655 S
C971 C972 1.516 . S
C972 C971 1.516 . S
C972 C973 1.502 . S
C972 C974 1.561 . S
C972 C975 1.526 . S
C973 H957 0.959 . S
C973 H958 0.959 . S
C973 H959 0.961 . S
C973 C972 1.502 . S
C974 H960 0.960 . S
C974 H961 0.961 . S
C974 H962 0.959 1_655 S
C974 C972 1.561 . S
C975 C972 1.526 . S
C975 C976 1.396 1_655 S
C975 C980 1.390 . S
C976 C970 1.465 . S
C976 C975 1.396 1_455 S
C976 C977 1.399 . S
C977 H963 0.929 . S
C977 C976 1.399 . S
C977 C978 1.385 . S
C978 H964 0.931 . S
C978 C977 1.385 . S
C978 C979 1.389 1_455 S
C979 C978 1.389 1_655 S
C979 C980 1.387 . S
C980 H965 0.930 . S
C980 C975 1.390 . S
C980 C979 1.387 . S
H981 C993 0.930 . S
H982 C995 0.930 . S
H983 C996 0.930 . S
H984 C1000 0.959 . S
H985 C1000 0.959 . S
H986 C1000 0.961 . S
H987 C1001 0.960 . S
H988 C1001 0.961 . S
H989 C1001 0.959 . S
H990 C1004 0.929 . S
H991 C1005 0.931 . S
H992 C1007 0.930 . S
C993 H981 0.930 . S
C993 C994 1.399 . S
C993 C998 1.399 . S
C994 C993 1.399 . S
C994 C995 1.376 . S
C995 H982 0.930 . S
C995 C994 1.376 . S
C995 C996 1.388 . S
C996 H983 0.930 . S
C996 C995 1.388 . S
C996 C997 1.390 . S
C997 C996 1.390 . S
C997 C998 1.394 . S
C997 C1003 1.465 . S
C998 C993 1.399 . S
C998 C997 1.394 . S
C998 C999 1.516 . S
C999 C998 1.516 . S
C999 C1000 1.502 . S
C999 C1001 1.561 . S
C999 C1002 1.526 . S
C1000 H984 0.959 . S
C1000 H985 0.959 . S
C1000 H986 0.961 . S
C1000 C999 1.502 . S
C1001 H987 0.960 . S
C1001 H988 0.961 . S
C1001 H989 0.959 . S
C1001 C999 1.561 . S
C1002 C999 1.526 . S
C1002 C1003 1.396 . S
C1002 C1007 1.390 . S
C1003 C997 1.465 . S
C1003 C1002 1.396 . S
C1003 C1004 1.399 . S
C1004 H990 0.929 . S
C1004 C1003 1.399 . S
C1004 C1005 1.385 . S
C1005 H991 0.931 . S
C1005 C1004 1.385 . S
C1005 C1006 1.389 . S
C1006 C1005 1.389 . S
C1006 C1007 1.387 . S
C1007 H992 0.930 . S
C1007 C1002 1.390 . S
C1007 C1006 1.387 . S
H1008 C1020 0.930 . S
H1009 C1022 0.930 . S
H1010 C1023 0.930 . S
H1011 C1027 0.959 . S
H1012 C1027 0.959 . S
H1013 C1027 0.961 . S
H1014 C1028 0.960 1_565 S
H1015 C1028 0.961 . S
H1016 C1028 0.959 . S
H1017 C1031 0.929 . S
H1018 C1032 0.931 . S
H1019 C1034 0.930 . S
C1020 H1008 0.930 . S
C1020 C1021 1.399 . S
C1020 C1025 1.399 . S
C1021 C1020 1.399 . S
C1021 C1022 1.376 . S
C1022 H1009 0.930 . S
C1022 C1021 1.376 . S
C1022 C1023 1.388 . S
C1023 H1010 0.930 . S
C1023 C1022 1.388 . S
C1023 C1024 1.390 . S
C1024 C1023 1.390 . S
C1024 C1025 1.394 . S
C1024 C1030 1.465 . S
C1025 C1020 1.399 . S
C1025 C1024 1.394 . S
C1025 C1026 1.516 . S
C1026 C1025 1.516 . S
C1026 C1027 1.502 . S
C1026 C1028 1.561 . S
C1026 C1029 1.526 . S
C1027 H1011 0.959 . S
C1027 H1012 0.959 . S
C1027 H1013 0.961 . S
C1027 C1026 1.502 . S
C1028 H1014 0.960 1_545 S
C1028 H1015 0.961 . S
C1028 H1016 0.959 . S
C1028 C1026 1.561 . S
C1029 C1026 1.526 . S
C1029 C1030 1.396 . S
C1029 C1034 1.390 . S
C1030 C1024 1.465 . S
C1030 C1029 1.396 . S
C1030 C1031 1.399 . S
C1031 H1017 0.929 . S
C1031 C1030 1.399 . S
C1031 C1032 1.385 . S
C1032 H1018 0.931 . S
C1032 C1031 1.385 . S
C1032 C1033 1.389 . S
C1033 C1032 1.389 . S
C1033 C1034 1.387 . S
C1034 H1019 0.930 . S
C1034 C1029 1.390 . S
C1034 C1033 1.387 . S
H1035 C1047 0.930 . S
H1036 C1049 0.930 . S
H1037 C1050 0.930 . S
H1038 C1054 0.959 . S
H1039 C1054 0.959 . S
H1040 C1054 0.961 . S
H1041 C1055 0.960 . S
H1042 C1055 0.961 . S
H1043 C1055 0.959 . S
H1044 C1058 0.929 . S
H1045 C1059 0.931 . S
H1046 C1061 0.930 . S
C1047 H1035 0.930 . S
C1047 C1048 1.399 1_565 S
C1047 C1052 1.399 . S
C1048 C1047 1.399 1_545 S
C1048 C1049 1.376 . S
C1049 H1036 0.930 . S
C1049 C1048 1.376 . S
C1049 C1050 1.388 . S
C1050 H1037 0.930 . S
C1050 C1049 1.388 . S
C1050 C1051 1.390 . S
C1051 C1050 1.390 . S
C1051 C1052 1.394 1_545 S
C1051 C1057 1.465 . S
C1052 C1047 1.399 . S
C1052 C1051 1.394 1_565 S
C1052 C1053 1.516 . S
C1053 C1052 1.516 . S
C1053 C1054 1.502 . S
C1053 C1055 1.561 . S
C1053 C1056 1.526 . S
C1054 H1038 0.959 . S
C1054 H1039 0.959 . S
C1054 H1040 0.961 . S
C1054 C1053 1.502 . S
C1055 H1041 0.960 . S
C1055 H1042 0.961 . S
C1055 H1043 0.959 . S
C1055 C1053 1.561 . S
C1056 C1053 1.526 . S
C1056 C1057 1.396 1_565 S
C1056 C1061 1.390 . S
C1057 C1051 1.465 . S
C1057 C1056 1.396 1_545 S
C1057 C1058 1.399 . S
C1058 H1044 0.929 . S
C1058 C1057 1.399 . S
C1058 C1059 1.385 . S
C1059 H1045 0.931 . S
C1059 C1058 1.385 . S
C1059 C1060 1.389 1_545 S
C1060 C1059 1.389 1_565 S
C1060 C1061 1.387 . S
C1061 H1046 0.930 . S
C1061 C1056 1.390 . S
C1061 C1060 1.387 . S
H1062 C1074 0.930 . S
H1063 C1076 0.930 . S
H1064 C1077 0.930 . S
H1065 C1081 0.959 . S
H1066 C1081 0.959 . S
H1067 C1081 0.961 . S
H1068 C1082 0.960 1_655 S
H1069 C1082 0.961 1_655 S
H1070 C1082 0.959 . S
H1071 C1085 0.929 . S
H1072 C1086 0.931 . S
H1073 C1088 0.930 . S
C1074 H1062 0.930 . S
C1074 C1075 1.399 . S
C1074 C1079 1.399 . S
C1075 C1074 1.399 . S
C1075 C1076 1.376 . S
C1076 H1063 0.930 . S
C1076 C1075 1.376 . S
C1076 C1077 1.388 . S
C1077 H1064 0.930 . S
C1077 C1076 1.388 . S
C1077 C1078 1.390 . S
C1078 C1077 1.390 . S
C1078 C1079 1.394 . S
C1078 C1084 1.465 . S
C1079 C1074 1.399 . S
C1079 C1078 1.394 . S
C1079 C1080 1.516 . S
C1080 C1079 1.516 . S
C1080 C1081 1.502 . S
C1080 C1082 1.561 . S
C1080 C1083 1.526 . S
C1081 H1065 0.959 . S
C1081 H1066 0.959 . S
C1081 H1067 0.961 . S
C1081 C1080 1.502 . S
C1082 H1068 0.960 1_455 S
C1082 H1069 0.961 1_455 S
C1082 H1070 0.959 . S
C1082 C1080 1.561 . S
C1083 C1080 1.526 . S
C1083 C1084 1.396 . S
C1083 C1088 1.390 . S
C1084 C1078 1.465 . S
C1084 C1083 1.396 . S
C1084 C1085 1.399 . S
C1085 H1071 0.929 . S
C1085 C1084 1.399 . S
C1085 C1086 1.385 . S
C1086 H1072 0.931 . S
C1086 C1085 1.385 . S
C1086 C1087 1.389 . S
C1087 C1086 1.389 . S
C1087 C1088 1.387 . S
C1088 H1073 0.930 . S
C1088 C1083 1.390 . S
C1088 C1087 1.387 . S
H1089 C1101 0.930 . S
H1090 C1103 0.930 . S
H1091 C1104 0.930 . S
H1092 C1108 0.959 . S
H1093 C1108 0.959 . S
H1094 C1108 0.961 . S
H1095 C1109 0.960 . S
H1096 C1109 0.961 . S
H1097 C1109 0.959 . S
H1098 C1112 0.929 . S
H1099 C1113 0.931 . S
H1100 C1115 0.930 . S
C1101 H1089 0.930 . S
C1101 C1102 1.399 . S
C1101 C1106 1.399 . S
C1102 C1101 1.399 . S
C1102 C1103 1.376 . S
C1103 H1090 0.930 . S
C1103 C1102 1.376 . S
C1103 C1104 1.388 . S
C1104 H1091 0.930 . S
C1104 C1103 1.388 . S
C1104 C1105 1.390 . S
C1105 C1104 1.390 . S
C1105 C1106 1.394 . S
C1105 C1111 1.465 . S
C1106 C1101 1.399 . S
C1106 C1105 1.394 . S
C1106 C1107 1.516 . S
C1107 C1106 1.516 . S
C1107 C1108 1.502 . S
C1107 C1109 1.561 . S
C1107 C1110 1.526 . S
C1108 H1092 0.959 . S
C1108 H1093 0.959 . S
C1108 H1094 0.961 . S
C1108 C1107 1.502 . S
C1109 H1095 0.960 . S
C1109 H1096 0.961 . S
C1109 H1097 0.959 . S
C1109 C1107 1.561 . S
C1110 C1107 1.526 . S
C1110 C1111 1.396 . S
C1110 C1115 1.390 . S
C1111 C1105 1.465 . S
C1111 C1110 1.396 . S
C1111 C1112 1.399 . S
C1112 H1098 0.929 . S
C1112 C1111 1.399 . S
C1112 C1113 1.385 . S
C1113 H1099 0.931 . S
C1113 C1112 1.385 . S
C1113 C1114 1.389 . S
C1114 C1113 1.389 . S
C1114 C1115 1.387 . S
C1115 H1100 0.930 . S
C1115 C1110 1.390 . S
C1115 C1114 1.387 . S
H1116 C1128 0.930 . S
H1117 C1130 0.930 . S
H1118 C1131 0.930 . S
H1119 C1135 0.959 . S
H1120 C1135 0.959 . S
H1121 C1135 0.961 . S
H1122 C1136 0.960 . S
H1123 C1136 0.961 . S
H1124 C1136 0.959 . S
H1125 C1139 0.929 . S
H1126 C1140 0.931 . S
H1127 C1142 0.930 . S
C1128 H1116 0.930 . S
C1128 C1129 1.399 . S
C1128 C1133 1.399 . S
C1129 C1128 1.399 . S
C1129 C1130 1.376 . S
C1130 H1117 0.930 . S
C1130 C1129 1.376 . S
C1130 C1131 1.388 . S
C1131 H1118 0.930 . S
C1131 C1130 1.388 . S
C1131 C1132 1.390 . S
C1132 C1131 1.390 . S
C1132 C1133 1.394 . S
C1132 C1138 1.465 . S
C1133 C1128 1.399 . S
C1133 C1132 1.394 . S
C1133 C1134 1.516 . S
C1134 C1133 1.516 . S
C1134 C1135 1.502 . S
C1134 C1136 1.561 . S
C1134 C1137 1.526 . S
C1135 H1119 0.959 . S
C1135 H1120 0.959 . S
C1135 H1121 0.961 . S
C1135 C1134 1.502 . S
C1136 H1122 0.960 . S
C1136 H1123 0.961 . S
C1136 H1124 0.959 . S
C1136 C1134 1.561 . S
C1137 C1134 1.526 . S
C1137 C1138 1.396 . S
C1137 C1142 1.390 . S
C1138 C1132 1.465 . S
C1138 C1137 1.396 . S
C1138 C1139 1.399 . S
C1139 H1125 0.929 . S
C1139 C1138 1.399 . S
C1139 C1140 1.385 . S
C1140 H1126 0.931 . S
C1140 C1139 1.385 . S
C1140 C1141 1.389 . S
C1141 C1140 1.389 . S
C1141 C1142 1.387 . S
C1142 H1127 0.930 . S
C1142 C1137 1.390 . S
C1142 C1141 1.387 . S
H1143 C1155 0.930 . S
H1144 C1157 0.930 . S
H1145 C1158 0.930 . S
H1146 C1162 0.959 . S
H1147 C1162 0.959 . S
H1148 C1162 0.961 . S
H1149 C1163 0.960 . S
H1150 C1163 0.961 . S
H1151 C1163 0.959 . S
H1152 C1166 0.929 . S
H1153 C1167 0.931 . S
H1154 C1169 0.930 . S
C1155 H1143 0.930 . S
C1155 C1156 1.399 . S
C1155 C1160 1.399 . S
C1156 C1155 1.399 . S
C1156 C1157 1.376 . S
C1157 H1144 0.930 . S
C1157 C1156 1.376 . S
C1157 C1158 1.388 . S
C1158 H1145 0.930 . S
C1158 C1157 1.388 . S
C1158 C1159 1.390 . S
C1159 C1158 1.390 . S
C1159 C1160 1.394 . S
C1159 C1165 1.465 . S
C1160 C1155 1.399 . S
C1160 C1159 1.394 . S
C1160 C1161 1.516 . S
C1161 C1160 1.516 . S
C1161 C1162 1.502 . S
C1161 C1163 1.561 . S
C1161 C1164 1.526 . S
C1162 H1146 0.959 . S
C1162 H1147 0.959 . S
C1162 H1148 0.961 . S
C1162 C1161 1.502 . S
C1163 H1149 0.960 . S
C1163 H1150 0.961 . S
C1163 H1151 0.959 . S
C1163 C1161 1.561 . S
C1164 C1161 1.526 . S
C1164 C1165 1.396 . S
C1164 C1169 1.390 . S
C1165 C1159 1.465 . S
C1165 C1164 1.396 . S
C1165 C1166 1.399 . S
C1166 H1152 0.929 . S
C1166 C1165 1.399 . S
C1166 C1167 1.385 . S
C1167 H1153 0.931 . S
C1167 C1166 1.385 . S
C1167 C1168 1.389 . S
C1168 C1167 1.389 . S
C1168 C1169 1.387 . S
C1169 H1154 0.930 . S
C1169 C1164 1.390 . S
C1169 C1168 1.387 . S
H1170 C1182 0.930 . S
H1171 C1184 0.930 . S
H1172 C1185 0.930 . S
H1173 C1189 0.959 . S
H1174 C1189 0.959 . S
H1175 C1189 0.961 . S
H1176 C1190 0.960 . S
H1177 C1190 0.961 . S
H1178 C1190 0.959 . S
H1179 C1193 0.929 . S
H1180 C1194 0.931 . S
H1181 C1196 0.930 . S
C1182 H1170 0.930 . S
C1182 C1183 1.399 1_565 S
C1182 C1187 1.399 . S
C1183 C1182 1.399 1_545 S
C1183 C1184 1.376 . S
C1184 H1171 0.930 . S
C1184 C1183 1.376 . S
C1184 C1185 1.388 . S
C1185 H1172 0.930 . S
C1185 C1184 1.388 . S
C1185 C1186 1.390 . S
C1186 C1185 1.390 . S
C1186 C1187 1.394 1_545 S
C1186 C1192 1.465 . S
C1187 C1182 1.399 . S
C1187 C1186 1.394 1_565 S
C1187 C1188 1.516 . S
C1188 C1187 1.516 . S
C1188 C1189 1.502 . S
C1188 C1190 1.561 . S
C1188 C1191 1.526 . S
C1189 H1173 0.959 . S
C1189 H1174 0.959 . S
C1189 H1175 0.961 . S
C1189 C1188 1.502 . S
C1190 H1176 0.960 . S
C1190 H1177 0.961 . S
C1190 H1178 0.959 . S
C1190 C1188 1.561 . S
C1191 C1188 1.526 . S
C1191 C1192 1.396 1_565 S
C1191 C1196 1.390 . S
C1192 C1186 1.465 . S
C1192 C1191 1.396 1_545 S
C1192 C1193 1.399 . S
C1193 H1179 0.929 . S
C1193 C1192 1.399 . S
C1193 C1194 1.385 . S
C1194 H1180 0.931 . S
C1194 C1193 1.385 . S
C1194 C1195 1.389 1_545 S
C1195 C1194 1.389 1_565 S
C1195 C1196 1.387 . S
C1196 H1181 0.930 . S
C1196 C1191 1.390 . S
C1196 C1195 1.387 . S
H1197 C1209 0.930 . S
H1198 C1211 0.930 . S
H1199 C1212 0.930 . S
H1200 C1216 0.959 . S
H1201 C1216 0.959 . S
H1202 C1216 0.961 . S
H1203 C1217 0.960 . S
H1204 C1217 0.961 . S
H1205 C1217 0.959 . S
H1206 C1220 0.929 . S
H1207 C1221 0.931 . S
H1208 C1223 0.930 . S
C1209 H1197 0.930 . S
C1209 C1210 1.399 . S
C1209 C1214 1.399 . S
C1210 C1209 1.399 . S
C1210 C1211 1.376 . S
C1211 H1198 0.930 . S
C1211 C1210 1.376 . S
C1211 C1212 1.388 . S
C1212 H1199 0.930 . S
C1212 C1211 1.388 . S
C1212 C1213 1.390 . S
C1213 C1212 1.390 . S
C1213 C1214 1.394 . S
C1213 C1219 1.465 . S
C1214 C1209 1.399 . S
C1214 C1213 1.394 . S
C1214 C1215 1.516 . S
C1215 C1214 1.516 . S
C1215 C1216 1.502 . S
C1215 C1217 1.561 . S
C1215 C1218 1.526 . S
C1216 H1200 0.959 . S
C1216 H1201 0.959 . S
C1216 H1202 0.961 . S
C1216 C1215 1.502 . S
C1217 H1203 0.960 . S
C1217 H1204 0.961 . S
C1217 H1205 0.959 . S
C1217 C1215 1.561 . S
C1218 C1215 1.526 . S
C1218 C1219 1.396 . S
C1218 C1223 1.390 . S
C1219 C1213 1.465 . S
C1219 C1218 1.396 . S
C1219 C1220 1.399 . S
C1220 H1206 0.929 . S
C1220 C1219 1.399 . S
C1220 C1221 1.385 . S
C1221 H1207 0.931 . S
C1221 C1220 1.385 . S
C1221 C1222 1.389 . S
C1222 C1221 1.389 . S
C1222 C1223 1.387 . S
C1223 H1208 0.930 . S
C1223 C1218 1.390 . S
C1223 C1222 1.387 . S
H1224 C1236 0.930 . S
H1225 C1238 0.930 . S
H1226 C1239 0.930 . S
H1227 C1243 0.959 . S
H1228 C1243 0.959 . S
H1229 C1243 0.961 . S
H1230 C1244 0.960 . S
H1231 C1244 0.961 . S
H1232 C1244 0.959 . S
H1233 C1247 0.929 . S
H1234 C1248 0.931 . S
H1235 C1250 0.930 . S
C1236 H1224 0.930 . S
C1236 C1237 1.399 1_655 S
C1236 C1241 1.399 . S
C1237 C1236 1.399 1_455 S
C1237 C1238 1.376 . S
C1238 H1225 0.930 . S
C1238 C1237 1.376 . S
C1238 C1239 1.388 . S
C1239 H1226 0.930 . S
C1239 C1238 1.388 . S
C1239 C1240 1.390 . S
C1240 C1239 1.390 . S
C1240 C1241 1.394 1_455 S
C1240 C1246 1.465 . S
C1241 C1236 1.399 . S
C1241 C1240 1.394 1_655 S
C1241 C1242 1.516 . S
C1242 C1241 1.516 . S
C1242 C1243 1.502 . S
C1242 C1244 1.561 . S
C1242 C1245 1.526 . S
C1243 H1227 0.959 . S
C1243 H1228 0.959 . S
C1243 H1229 0.961 . S
C1243 C1242 1.502 . S
C1244 H1230 0.960 . S
C1244 H1231 0.961 . S
C1244 H1232 0.959 . S
C1244 C1242 1.561 . S
C1245 C1242 1.526 . S
C1245 C1246 1.396 1_655 S
C1245 C1250 1.390 . S
C1246 C1240 1.465 . S
C1246 C1245 1.396 1_455 S
C1246 C1247 1.399 . S
C1247 H1233 0.929 . S
C1247 C1246 1.399 . S
C1247 C1248 1.385 . S
C1248 H1234 0.931 . S
C1248 C1247 1.385 . S
C1248 C1249 1.389 1_455 S
C1249 C1248 1.389 1_655 S
C1249 C1250 1.387 . S
C1250 H1235 0.930 . S
C1250 C1245 1.390 . S
C1250 C1249 1.387 . S
H1251 C1263 0.930 . S
H1252 C1265 0.930 . S
H1253 C1266 0.930 . S
H1254 C1270 0.959 . S
H1255 C1270 0.959 . S
H1256 C1270 0.961 . S
H1257 C1271 0.960 . S
H1258 C1271 0.961 . S
H1259 C1271 0.959 . S
H1260 C1274 0.929 . S
H1261 C1275 0.931 . S
H1262 C1277 0.930 . S
C1263 H1251 0.930 . S
C1263 C1264 1.399 . S
C1263 C1268 1.399 . S
C1264 C1263 1.399 . S
C1264 C1265 1.376 . S
C1265 H1252 0.930 . S
C1265 C1264 1.376 . S
C1265 C1266 1.388 . S
C1266 H1253 0.930 . S
C1266 C1265 1.388 . S
C1266 C1267 1.390 . S
C1267 C1266 1.390 . S
C1267 C1268 1.394 . S
C1267 C1273 1.465 . S
C1268 C1263 1.399 . S
C1268 C1267 1.394 . S
C1268 C1269 1.516 . S
C1269 C1268 1.516 . S
C1269 C1270 1.502 . S
C1269 C1271 1.561 . S
C1269 C1272 1.526 . S
C1270 H1254 0.959 . S
C1270 H1255 0.959 . S
C1270 H1256 0.961 . S
C1270 C1269 1.502 . S
C1271 H1257 0.960 . S
C1271 H1258 0.961 . S
C1271 H1259 0.959 . S
C1271 C1269 1.561 . S
C1272 C1269 1.526 . S
C1272 C1273 1.396 . S
C1272 C1277 1.390 . S
C1273 C1267 1.465 . S
C1273 C1272 1.396 . S
C1273 C1274 1.399 . S
C1274 H1260 0.929 . S
C1274 C1273 1.399 . S
C1274 C1275 1.385 . S
C1275 H1261 0.931 . S
C1275 C1274 1.385 . S
C1275 C1276 1.389 . S
C1276 C1275 1.389 . S
C1276 C1277 1.387 . S
C1277 H1262 0.930 . S
C1277 C1272 1.390 . S
C1277 C1276 1.387 . S
H1278 C1290 0.930 . S
H1279 C1292 0.930 . S
H1280 C1293 0.930 . S
H1281 C1297 0.959 . S
H1282 C1297 0.959 . S
H1283 C1297 0.961 . S
H1284 C1298 0.960 . S
H1285 C1298 0.961 . S
H1286 C1298 0.959 . S
H1287 C1301 0.929 . S
H1288 C1302 0.931 . S
H1289 C1304 0.930 . S
C1290 H1278 0.930 . S
C1290 C1291 1.399 . S
C1290 C1295 1.399 . S
C1291 C1290 1.399 . S
C1291 C1292 1.376 . S
C1292 H1279 0.930 . S
C1292 C1291 1.376 . S
C1292 C1293 1.388 . S
C1293 H1280 0.930 . S
C1293 C1292 1.388 . S
C1293 C1294 1.390 . S
C1294 C1293 1.390 . S
C1294 C1295 1.394 . S
C1294 C1300 1.465 . S
C1295 C1290 1.399 . S
C1295 C1294 1.394 . S
C1295 C1296 1.516 . S
C1296 C1295 1.516 . S
C1296 C1297 1.502 . S
C1296 C1298 1.561 . S
C1296 C1299 1.526 . S
C1297 H1281 0.959 . S
C1297 H1282 0.959 . S
C1297 H1283 0.961 . S
C1297 C1296 1.502 . S
C1298 H1284 0.960 . S
C1298 H1285 0.961 . S
C1298 H1286 0.959 . S
C1298 C1296 1.561 . S
C1299 C1296 1.526 . S
C1299 C1300 1.396 . S
C1299 C1304 1.390 . S
C1300 C1294 1.465 . S
C1300 C1299 1.396 . S
C1300 C1301 1.399 . S
C1301 H1287 0.929 . S
C1301 C1300 1.399 . S
C1301 C1302 1.385 . S
C1302 H1288 0.931 . S
C1302 C1301 1.385 . S
C1302 C1303 1.389 . S
C1303 C1302 1.389 . S
C1303 C1304 1.387 . S
C1304 H1289 0.930 . S
C1304 C1299 1.390 . S
C1304 C1303 1.387 . S
H1305 C1317 0.930 . S
H1306 C1319 0.930 . S
H1307 C1320 0.930 1_565 S
H1308 C1324 0.959 . S
H1309 C1324 0.959 . S
H1310 C1324 0.961 . S
H1311 C1325 0.960 . S
H1312 C1325 0.961 . S
H1313 C1325 0.959 . S
H1314 C1328 0.929 . S
H1315 C1329 0.931 . S
H1316 C1331 0.930 . S
C1317 H1305 0.930 . S
C1317 C1318 1.399 . S
C1317 C1322 1.399 . S
C1318 C1317 1.399 . S
C1318 C1319 1.376 . S
C1319 H1306 0.930 . S
C1319 C1318 1.376 . S
C1319 C1320 1.388 . S
C1320 H1307 0.930 1_545 S
C1320 C1319 1.388 . S
C1320 C1321 1.390 . S
C1321 C1320 1.390 . S
C1321 C1322 1.394 . S
C1321 C1327 1.465 . S
C1322 C1317 1.399 . S
C1322 C1321 1.394 . S
C1322 C1323 1.516 . S
C1323 C1322 1.516 . S
C1323 C1324 1.502 . S
C1323 C1325 1.561 . S
C1323 C1326 1.526 . S
C1324 H1308 0.959 . S
C1324 H1309 0.959 . S
C1324 H1310 0.961 . S
C1324 C1323 1.502 . S
C1325 H1311 0.960 . S
C1325 H1312 0.961 . S
C1325 H1313 0.959 . S
C1325 C1323 1.561 . S
C1326 C1323 1.526 . S
C1326 C1327 1.396 . S
C1326 C1331 1.390 . S
C1327 C1321 1.465 . S
C1327 C1326 1.396 . S
C1327 C1328 1.399 1_545 S
C1328 H1314 0.929 . S
C1328 C1327 1.399 1_565 S
C1328 C1329 1.385 . S
C1329 H1315 0.931 . S
C1329 C1328 1.385 . S
C1329 C1330 1.389 1_565 S
C1330 C1329 1.389 1_545 S
C1330 C1331 1.387 . S
C1331 H1316 0.930 . S
C1331 C1326 1.390 . S
C1331 C1330 1.387 . S
H1332 C1344 0.930 1_655 S
H1333 C1346 0.930 . S
H1334 C1347 0.930 . S
H1335 C1351 0.959 . S
H1336 C1351 0.959 . S
H1337 C1351 0.961 . S
H1338 C1352 0.960 . S
H1339 C1352 0.961 . S
H1340 C1352 0.959 . S
H1341 C1355 0.929 . S
H1342 C1356 0.931 . S
H1343 C1358 0.930 . S
C1344 H1332 0.930 1_455 S
C1344 C1345 1.399 . S
C1344 C1349 1.399 . S
C1345 C1344 1.399 . S
C1345 C1346 1.376 . S
C1346 H1333 0.930 . S
C1346 C1345 1.376 . S
C1346 C1347 1.388 . S
C1347 H1334 0.930 . S
C1347 C1346 1.388 . S
C1347 C1348 1.390 . S
C1348 C1347 1.390 . S
C1348 C1349 1.394 . S
C1348 C1354 1.465 . S
C1349 C1344 1.399 . S
C1349 C1348 1.394 . S
C1349 C1350 1.516 . S
C1350 C1349 1.516 . S
C1350 C1351 1.502 1_455 S
C1350 C1352 1.561 . S
C1350 C1353 1.526 . S
C1351 H1335 0.959 . S
C1351 H1336 0.959 . S
C1351 H1337 0.961 . S
C1351 C1350 1.502 1_655 S
C1352 H1338 0.960 . S
C1352 H1339 0.961 . S
C1352 H1340 0.959 . S
C1352 C1350 1.561 . S
C1353 C1350 1.526 . S
C1353 C1354 1.396 . S
C1353 C1358 1.390 . S
C1354 C1348 1.465 . S
C1354 C1353 1.396 . S
C1354 C1355 1.399 . S
C1355 H1341 0.929 . S
C1355 C1354 1.399 . S
C1355 C1356 1.385 . S
C1356 H1342 0.931 . S
C1356 C1355 1.385 . S
C1356 C1357 1.389 . S
C1357 C1356 1.389 . S
C1357 C1358 1.387 . S
C1358 H1343 0.930 . S
C1358 C1353 1.390 . S
C1358 C1357 1.387 . S
H1359 C1371 0.930 . S
H1360 C1373 0.930 . S
H1361 C1374 0.930 . S
H1362 C1378 0.959 . S
H1363 C1378 0.959 . S
H1364 C1378 0.961 . S
H1365 C1379 0.960 . S
H1366 C1379 0.961 . S
H1367 C1379 0.959 . S
H1368 C1382 0.929 . S
H1369 C1383 0.931 . S
H1370 C1385 0.930 . S
C1371 H1359 0.930 . S
C1371 C1372 1.399 . S
C1371 C1376 1.399 . S
C1372 C1371 1.399 . S
C1372 C1373 1.376 . S
C1373 H1360 0.930 . S
C1373 C1372 1.376 . S
C1373 C1374 1.388 . S
C1374 H1361 0.930 . S
C1374 C1373 1.388 . S
C1374 C1375 1.390 . S
C1375 C1374 1.390 . S
C1375 C1376 1.394 . S
C1375 C1381 1.465 . S
C1376 C1371 1.399 . S
C1376 C1375 1.394 . S
C1376 C1377 1.516 . S
C1377 C1376 1.516 . S
C1377 C1378 1.502 . S
C1377 C1379 1.561 . S
C1377 C1380 1.526 . S
C1378 H1362 0.959 . S
C1378 H1363 0.959 . S
C1378 H1364 0.961 . S
C1378 C1377 1.502 . S
C1379 H1365 0.960 . S
C1379 H1366 0.961 . S
C1379 H1367 0.959 . S
C1379 C1377 1.561 . S
C1380 C1377 1.526 . S
C1380 C1381 1.396 . S
C1380 C1385 1.390 . S
C1381 C1375 1.465 . S
C1381 C1380 1.396 . S
C1381 C1382 1.399 . S
C1382 H1368 0.929 . S
C1382 C1381 1.399 . S
C1382 C1383 1.385 . S
C1383 H1369 0.931 . S
C1383 C1382 1.385 . S
C1383 C1384 1.389 . S
C1384 C1383 1.389 . S
C1384 C1385 1.387 . S
C1385 H1370 0.930 . S
C1385 C1380 1.390 . S
C1385 C1384 1.387 . S
H1386 C1398 0.930 . S
H1387 C1400 0.930 . S
H1388 C1401 0.930 . S
H1389 C1405 0.959 . S
H1390 C1405 0.959 . S
H1391 C1405 0.961 . S
H1392 C1406 0.960 . S
H1393 C1406 0.961 . S
H1394 C1406 0.959 . S
H1395 C1409 0.929 1_565 S
H1396 C1410 0.931 . S
H1397 C1412 0.930 . S
C1398 H1386 0.930 . S
C1398 C1399 1.399 . S
C1398 C1403 1.399 . S
C1399 C1398 1.399 . S
C1399 C1400 1.376 1_545 S
C1400 H1387 0.930 . S
C1400 C1399 1.376 1_565 S
C1400 C1401 1.388 . S
C1401 H1388 0.930 . S
C1401 C1400 1.388 . S
C1401 C1402 1.390 1_565 S
C1402 C1401 1.390 1_545 S
C1402 C1403 1.394 . S
C1402 C1408 1.465 . S
C1403 C1398 1.399 . S
C1403 C1402 1.394 . S
C1403 C1404 1.516 . S
C1404 C1403 1.516 . S
C1404 C1405 1.502 . S
C1404 C1406 1.561 . S
C1404 C1407 1.526 . S
C1405 H1389 0.959 . S
C1405 H1390 0.959 . S
C1405 H1391 0.961 . S
C1405 C1404 1.502 . S
C1406 H1392 0.960 . S
C1406 H1393 0.961 . S
C1406 H1394 0.959 . S
C1406 C1404 1.561 . S
C1407 C1404 1.526 . S
C1407 C1408 1.396 . S
C1407 C1412 1.390 . S
C1408 C1402 1.465 . S
C1408 C1407 1.396 . S
C1408 C1409 1.399 . S
C1409 H1395 0.929 1_545 S
C1409 C1408 1.399 . S
C1409 C1410 1.385 . S
C1410 H1396 0.931 . S
C1410 C1409 1.385 . S
C1410 C1411 1.389 . S
C1411 C1410 1.389 . S
C1411 C1412 1.387 . S
C1412 H1397 0.930 . S
C1412 C1407 1.390 . S
C1412 C1411 1.387 . S
H1413 C1425 0.930 . S
H1414 C1427 0.930 1_655 S
H1415 C1428 0.930 . S
H1416 C1432 0.959 . S
H1417 C1432 0.959 . S
H1418 C1432 0.961 . S
H1419 C1433 0.960 . S
H1420 C1433 0.961 . S
H1421 C1433 0.959 1_655 S
H1422 C1436 0.929 . S
H1423 C1437 0.931 . S
H1424 C1439 0.930 . S
C1425 H1413 0.930 . S
C1425 C1426 1.399 . S
C1425 C1430 1.399 . S
C1426 C1425 1.399 . S
C1426 C1427 1.376 . S
C1427 H1414 0.930 1_455 S
C1427 C1426 1.376 . S
C1427 C1428 1.388 . S
C1428 H1415 0.930 . S
C1428 C1427 1.388 . S
C1428 C1429 1.390 . S
C1429 C1428 1.390 . S
C1429 C1430 1.394 . S
C1429 C1435 1.465 . S
C1430 C1425 1.399 . S
C1430 C1429 1.394 . S
C1430 C1431 1.516 . S
C1431 C1430 1.516 . S
C1431 C1432 1.502 . S
C1431 C1433 1.561 . S
C1431 C1434 1.526 . S
C1432 H1416 0.959 . S
C1432 H1417 0.959 . S
C1432 H1418 0.961 . S
C1432 C1431 1.502 . S
C1433 H1419 0.960 . S
C1433 H1420 0.961 . S
C1433 H1421 0.959 1_455 S
C1433 C1431 1.561 . S
C1434 C1431 1.526 . S
C1434 C1435 1.396 . S
C1434 C1439 1.390 . S
C1435 C1429 1.465 . S
C1435 C1434 1.396 . S
C1435 C1436 1.399 . S
C1436 H1422 0.929 . S
C1436 C1435 1.399 . S
C1436 C1437 1.385 . S
C1437 H1423 0.931 . S
C1437 C1436 1.385 . S
C1437 C1438 1.389 . S
C1438 C1437 1.389 . S
C1438 C1439 1.387 . S
C1439 H1424 0.930 . S
C1439 C1434 1.390 . S
C1439 C1438 1.387 . S
H1440 C1452 0.930 . S
H1441 C1454 0.930 . S
H1442 C1455 0.930 . S
H1443 C1459 0.938 1_656 S
H1444 C1459 0.962 1_556 S
H1445 C1459 0.958 . S
H1446 C1460 0.960 1_554 S
H1447 C1460 0.961 . S
H1448 C1460 0.959 . S
H1449 C1463 0.929 . S
H1450 C1464 0.931 . S
H1451 C1466 0.930 . S
C1452 H1440 0.930 . S
C1452 C1453 1.399 . S
C1452 C1457 1.399 . S
C1453 C1452 1.399 . S
C1453 C1454 1.376 . S
C1454 H1441 0.930 . S
C1454 C1453 1.376 . S
C1454 C1455 1.388 . S
C1455 H1442 0.930 . S
C1455 C1454 1.388 . S
C1455 C1456 1.390 . S
C1456 C1455 1.390 . S
C1456 C1457 1.394 . S
C1456 C1462 1.465 1_554 S
C1457 C1452 1.399 . S
C1457 C1456 1.394 . S
C1457 C1458 1.503 1_554 S
C1458 C1457 1.503 1_556 S
C1458 C1459 1.502 1_556 S
C1458 C1460 1.562 . S
C1458 C1461 1.539 . S
C1459 H1443 0.938 1_454 S
C1459 H1444 0.962 1_554 S
C1459 H1445 0.958 . S
C1459 C1458 1.502 1_554 S
C1460 H1446 0.960 1_556 S
C1460 H1447 0.961 . S
C1460 H1448 0.959 . S
C1460 C1458 1.562 . S
C1461 C1458 1.539 . S
C1461 C1462 1.396 . S
C1461 C1466 1.390 . S
C1462 C1456 1.465 1_556 S
C1462 C1461 1.396 . S
C1462 C1463 1.399 . S
C1463 H1449 0.929 . S
C1463 C1462 1.399 . S
C1463 C1464 1.385 . S
C1464 H1450 0.931 . S
C1464 C1463 1.385 . S
C1464 C1465 1.389 . S
C1465 C1464 1.389 . S
C1465 C1466 1.387 . S
C1466 H1451 0.930 . S
C1466 C1461 1.390 . S
C1466 C1465 1.387 . S
H1467 C1479 0.930 . S
H1468 C1481 0.930 . S
H1469 C1482 0.930 . S
H1470 C1486 0.959 . S
H1471 C1486 0.959 . S
H1472 C1486 0.961 1_556 S
H1473 C1487 1.016 . S
H1474 C1487 0.912 1_554 S
H1475 C1487 0.958 . S
H1476 C1490 0.929 . S
H1477 C1491 0.931 . S
H1478 C1493 0.930 . S
C1479 H1467 0.930 . S
C1479 C1480 1.399 . S
C1479 C1484 1.399 . S
C1480 C1479 1.399 . S
C1480 C1481 1.376 . S
C1481 H1468 0.930 . S
C1481 C1480 1.376 . S
C1481 C1482 1.388 . S
C1482 H1469 0.930 . S
C1482 C1481 1.388 . S
C1482 C1483 1.390 . S
C1483 C1482 1.390 . S
C1483 C1484 1.394 . S
C1483 C1489 1.465 1_556 S
C1484 C1479 1.399 . S
C1484 C1483 1.394 . S
C1484 C1485 1.522 1_556 S
C1485 C1484 1.522 1_554 S
C1485 C1486 1.501 . S
C1485 C1487 1.560 1_554 S
C1485 C1488 1.520 . S
C1486 H1470 0.959 . S
C1486 H1471 0.959 . S
C1486 H1472 0.961 1_554 S
C1486 C1485 1.501 . S
C1487 H1473 1.016 . S
C1487 H1474 0.912 1_556 S
C1487 H1475 0.958 . S
C1487 C1485 1.560 1_556 S
C1488 C1485 1.520 . S
C1488 C1489 1.396 . S
C1488 C1493 1.390 . S
C1489 C1483 1.465 1_554 S
C1489 C1488 1.396 . S
C1489 C1490 1.399 . S
C1490 H1476 0.929 . S
C1490 C1489 1.399 . S
C1490 C1491 1.385 . S
C1491 H1477 0.931 . S
C1491 C1490 1.385 . S
C1491 C1492 1.389 . S
C1492 C1491 1.389 . S
C1492 C1493 1.387 . S
C1493 H1478 0.930 . S
C1493 C1488 1.390 . S
C1493 C1492 1.387 . S
H1494 C1506 0.930 . S
H1495 C1508 0.930 1_565 S
H1496 C1509 0.959 . S
H1497 C1513 0.959 . S
H1498 C1513 0.959 . S
H1499 C1513 0.961 1_556 S
H1500 C1514 0.960 1_556 S
H1501 C1514 0.961 . S
H1502 C1514 0.959 . S
H1503 C1517 0.929 . S
H1504 C1518 0.931 . S
H1505 C1520 0.930 . S
C1506 H1494 0.930 . S
C1506 C1507 1.399 . S
C1506 C1511 1.399 . S
C1507 C1506 1.399 . S
C1507 C1508 1.376 . S
C1508 H1495 0.930 1_545 S
C1508 C1507 1.376 . S
C1508 C1509 1.381 1_545 S
C1509 H1496 0.959 . S
C1509 C1508 1.381 1_565 S
C1509 C1510 1.369 1_565 S
C1510 C1509 1.369 1_545 S
C1510 C1511 1.394 . S
C1510 C1516 1.465 1_556 S
C1511 C1506 1.399 . S
C1511 C1510 1.394 . S
C1511 C1512 1.516 1_556 S
C1512 C1511 1.516 1_554 S
C1512 C1513 1.502 . S
C1512 C1514 1.561 . S
C1512 C1515 1.526 . S
C1513 H1497 0.959 . S
C1513 H1498 0.959 . S
C1513 H1499 0.961 1_554 S
C1513 C1512 1.502 . S
C1514 H1500 0.960 1_554 S
C1514 H1501 0.961 . S
C1514 H1502 0.959 . S
C1514 C1512 1.561 . S
C1515 C1512 1.526 . S
C1515 C1516 1.396 . S
C1515 C1520 1.390 . S
C1516 C1510 1.465 1_554 S
C1516 C1515 1.396 . S
C1516 C1517 1.399 1_545 S
C1517 H1503 0.929 . S
C1517 C1516 1.399 1_565 S
C1517 C1518 1.385 . S
C1518 H1504 0.931 . S
C1518 C1517 1.385 . S
C1518 C1519 1.389 1_565 S
C1519 C1518 1.389 1_545 S
C1519 C1520 1.387 . S
C1520 H1505 0.930 . S
C1520 C1515 1.390 . S
C1520 C1519 1.387 . S
H1521 C1533 0.930 . S
H1522 C1535 0.930 1_655 S
H1523 C1536 0.930 . S
H1524 C1540 0.964 . S
H1525 C1540 0.959 1_554 S
H1526 C1540 0.961 . S
H1527 C1541 0.985 . S
H1528 C1541 0.939 1_554 S
H1529 C1541 0.955 1_554 S
H1530 C1544 0.929 1_655 S
H1531 C1545 0.931 . S
H1532 C1547 0.930 . S
C1533 H1521 0.930 . S
C1533 C1534 1.399 . S
C1533 C1538 1.399 . S
C1534 C1533 1.399 . S
C1534 C1535 1.376 . S
C1535 H1522 0.930 1_455 S
C1535 C1534 1.376 . S
C1535 C1536 1.388 1_455 S
C1536 H1523 0.930 . S
C1536 C1535 1.388 1_655 S
C1536 C1537 1.390 1_655 S
C1537 C1536 1.390 1_455 S
C1537 C1538 1.394 . S
C1537 C1543 1.465 1_556 S
C1538 C1533 1.399 . S
C1538 C1537 1.394 . S
C1538 C1539 1.556 . S
C1539 C1538 1.556 . S
C1539 C1540 1.505 . S
C1539 C1541 1.561 . S
C1539 C1542 1.484 1_556 S
C1540 H1524 0.964 . S
C1540 H1525 0.959 1_556 S
C1540 H1526 0.961 . S
C1540 C1539 1.505 . S
C1541 H1527 0.985 . S
C1541 H1528 0.939 1_556 S
C1541 H1529 0.955 1_556 S
C1541 C1539 1.561 . S
C1542 C1539 1.484 1_554 S
C1542 C1543 1.396 . S
C1542 C1547 1.390 . S
C1543 C1537 1.465 1_554 S
C1543 C1542 1.396 . S
C1543 C1544 1.399 . S
C1544 H1530 0.929 1_455 S
C1544 C1543 1.399 . S
C1544 C1545 1.385 . S
C1545 H1531 0.931 . S
C1545 C1544 1.385 . S
C1545 C1546 1.389 . S
C1546 C1545 1.389 . S
C1546 C1547 1.387 . S
C1547 H1532 0.930 . S
C1547 C1542 1.390 . S
C1547 C1546 1.387 . S
H1548 C1560 0.930 . S
H1549 C1562 0.930 . S
H1550 C1563 0.930 . S
H1551 C1567 0.964 . S
H1552 C1567 0.959 1_556 S
H1553 C1567 0.961 . S
H1554 C1568 0.990 . S
H1555 C1568 0.936 1_556 S
H1556 C1568 0.955 1_556 S
H1557 C1571 0.929 . S
H1558 C1572 0.931 . S
H1559 C1574 0.930 . S
C1560 H1548 0.930 . S
C1560 C1561 1.399 . S
C1560 C1565 1.399 . S
C1561 C1560 1.399 . S
C1561 C1562 1.376 . S
C1562 H1549 0.930 . S
C1562 C1561 1.376 . S
C1562 C1563 1.388 . S
C1563 H1550 0.930 . S
C1563 C1562 1.388 . S
C1563 C1564 1.390 . S
C1564 C1563 1.390 . S
C1564 C1565 1.394 . S
C1564 C1570 1.465 1_554 S
C1565 C1560 1.399 . S
C1565 C1564 1.394 . S
C1565 C1566 1.557 . S
C1566 C1565 1.557 . S
C1566 C1567 1.505 . S
C1566 C1568 1.561 . S
C1566 C1569 1.483 1_554 S
C1567 H1551 0.964 . S
C1567 H1552 0.959 1_554 S
C1567 H1553 0.961 . S
C1567 C1566 1.505 . S
C1568 H1554 0.990 . S
C1568 H1555 0.936 1_554 S
C1568 H1556 0.955 1_554 S
C1568 C1566 1.561 . S
C1569 C1566 1.483 1_556 S
C1569 C1570 1.396 . S
C1569 C1574 1.390 . S
C1570 C1564 1.465 1_556 S
C1570 C1569 1.396 . S
C1570 C1571 1.399 . S
C1571 H1557 0.929 . S
C1571 C1570 1.399 . S
C1571 C1572 1.385 . S
C1572 H1558 0.931 . S
C1572 C1571 1.385 . S
C1572 C1573 1.389 . S
C1573 C1572 1.389 . S
C1573 C1574 1.387 . S
C1574 H1559 0.930 . S
C1574 C1569 1.390 . S
C1574 C1573 1.387 . S
H1575 C1587 0.930 . S
H1576 C1589 0.928 1_565 S
H1577 C1590 0.930 1_565 S
H1578 C1594 0.959 . S
H1579 C1594 0.959 . S
H1580 C1594 0.961 1_556 S
H1581 C1595 0.960 1_556 S
H1582 C1595 0.961 . S
H1583 C1595 0.959 . S
H1584 C1598 0.941 . S
H1585 C1599 0.931 1_565 S
H1586 C1601 0.930 . S
C1587 H1575 0.930 . S
C1587 C1588 1.399 . S
C1587 C1592 1.399 . S
C1588 C1587 1.399 . S
C1588 C1589 1.376 . S
C1589 H1576 0.928 1_545 S
C1589 C1588 1.376 . S
C1589 C1590 1.388 . S
C1590 H1577 0.930 1_545 S
C1590 C1589 1.388 . S
C1590 C1591 1.390 . S
C1591 C1590 1.390 . S
C1591 C1592 1.394 . S
C1591 C1597 1.465 1_556 S
C1592 C1587 1.399 . S
C1592 C1591 1.394 . S
C1592 C1593 1.516 1_556 S
C1593 C1592 1.516 1_554 S
C1593 C1594 1.502 . S
C1593 C1595 1.561 . S
C1593 C1596 1.526 . S
C1594 H1578 0.959 . S
C1594 H1579 0.959 . S
C1594 H1580 0.961 1_554 S
C1594 C1593 1.502 . S
C1595 H1581 0.960 1_554 S
C1595 H1582 0.961 . S
C1595 H1583 0.959 . S
C1595 C1593 1.561 . S
C1596 C1593 1.526 . S
C1596 C1597 1.396 . S
C1596 C1601 1.390 . S
C1597 C1591 1.465 1_554 S
C1597 C1596 1.396 . S
C1597 C1598 1.388 1_545 S
C1598 H1584 0.941 . S
C1598 C1597 1.388 1_565 S
C1598 C1599 1.385 1_565 S
C1599 H1585 0.931 1_545 S
C1599 C1598 1.385 1_545 S
C1599 C1600 1.389 . S
C1600 C1599 1.389 . S
C1600 C1601 1.387 . S
C1601 H1586 0.930 . S
C1601 C1596 1.390 . S
C1601 C1600 1.387 . S
H1602 C1614 0.930 . S
H1603 C1616 0.930 . S
H1604 C1617 0.930 . S
H1605 C1621 0.959 . S
H1606 C1621 0.959 . S
H1607 C1621 0.961 . S
H1608 C1622 0.960 . S
H1609 C1622 0.961 . S
H1610 C1622 0.959 . S
H1611 C1625 0.929 . S
H1612 C1626 0.931 . S
H1613 C1628 0.930 . S
C1614 H1602 0.930 . S
C1614 C1615 1.399 . S
C1614 C1619 1.399 . S
C1615 C1614 1.399 . S
C1615 C1616 1.376 . S
C1616 H1603 0.930 . S
C1616 C1615 1.376 . S
C1616 C1617 1.388 . S
C1617 H1604 0.930 . S
C1617 C1616 1.388 . S
C1617 C1618 1.390 . S
C1618 C1617 1.390 . S
C1618 C1619 1.394 . S
C1618 C1624 1.465 . S
C1619 C1614 1.399 . S
C1619 C1618 1.394 . S
C1619 C1620 1.516 . S
C1620 C1619 1.516 . S
C1620 C1621 1.502 . S
C1620 C1622 1.561 . S
C1620 C1623 1.526 . S
C1621 H1605 0.959 . S
C1621 H1606 0.959 . S
C1621 H1607 0.961 . S
C1621 C1620 1.502 . S
C1622 H1608 0.960 . S
C1622 H1609 0.961 . S
C1622 H1610 0.959 . S
C1622 C1620 1.561 . S
C1623 C1620 1.526 . S
C1623 C1624 1.396 . S
C1623 C1628 1.390 . S
C1624 C1618 1.465 . S
C1624 C1623 1.396 . S
C1624 C1625 1.399 . S
C1625 H1611 0.929 . S
C1625 C1624 1.399 . S
C1625 C1626 1.385 . S
C1626 H1612 0.931 . S
C1626 C1625 1.385 . S
C1626 C1627 1.389 . S
C1627 C1626 1.389 . S
C1627 C1628 1.387 . S
C1628 H1613 0.930 . S
C1628 C1623 1.390 . S
C1628 C1627 1.387 . S
H1629 C1641 0.930 . S
H1630 C1643 0.930 . S
H1631 C1644 0.930 . S
H1632 C1648 0.959 . S
H1633 C1648 0.959 . S
H1634 C1648 0.961 . S
H1635 C1649 0.960 . S
H1636 C1649 0.961 . S
H1637 C1649 0.959 . S
H1638 C1652 0.929 . S
H1639 C1653 0.931 . S
H1640 C1655 0.930 . S
C1641 H1629 0.930 . S
C1641 C1642 1.399 . S
C1641 C1646 1.399 . S
C1642 C1641 1.399 . S
C1642 C1643 1.376 . S
C1643 H1630 0.930 . S
C1643 C1642 1.376 . S
C1643 C1644 1.388 . S
C1644 H1631 0.930 . S
C1644 C1643 1.388 . S
C1644 C1645 1.390 . S
C1645 C1644 1.390 . S
C1645 C1646 1.394 . S
C1645 C1651 1.465 . S
C1646 C1641 1.399 . S
C1646 C1645 1.394 . S
C1646 C1647 1.516 . S
C1647 C1646 1.516 . S
C1647 C1648 1.502 . S
C1647 C1649 1.561 . S
C1647 C1650 1.526 . S
C1648 H1632 0.959 . S
C1648 H1633 0.959 . S
C1648 H1634 0.961 . S
C1648 C1647 1.502 . S
C1649 H1635 0.960 . S
C1649 H1636 0.961 . S
C1649 H1637 0.959 . S
C1649 C1647 1.561 . S
C1650 C1647 1.526 . S
C1650 C1651 1.396 . S
C1650 C1655 1.390 . S
C1651 C1645 1.465 . S
C1651 C1650 1.396 . S
C1651 C1652 1.399 . S
C1652 H1638 0.929 . S
C1652 C1651 1.399 . S
C1652 C1653 1.385 . S
C1653 H1639 0.931 . S
C1653 C1652 1.385 . S
C1653 C1654 1.389 . S
C1654 C1653 1.389 . S
C1654 C1655 1.387 . S
C1655 H1640 0.930 . S
C1655 C1650 1.390 . S
C1655 C1654 1.387 . S
H1656 C1668 0.930 . S
H1657 C1670 0.930 1_455 S
H1658 C1671 0.930 . S
H1659 C1675 0.959 . S
H1660 C1675 0.959 . S
H1661 C1675 0.961 . S
H1662 C1676 0.960 . S
H1663 C1676 0.961 . S
H1664 C1676 0.959 . S
H1665 C1679 0.929 . S
H1666 C1680 0.931 1_455 S
H1667 C1682 0.930 . S
C1668 H1656 0.930 . S
C1668 C1669 1.399 . S
C1668 C1673 1.399 . S
C1669 C1668 1.399 . S
C1669 C1670 1.376 . S
C1670 H1657 0.930 1_655 S
C1670 C1669 1.376 . S
C1670 C1671 1.388 1_655 S
C1671 H1658 0.930 . S
C1671 C1670 1.388 1_455 S
C1671 C1672 1.390 1_455 S
C1672 C1671 1.390 1_655 S
C1672 C1673 1.394 . S
C1672 C1678 1.465 . S
C1673 C1668 1.399 . S
C1673 C1672 1.394 . S
C1673 C1674 1.516 . S
C1674 C1673 1.516 . S
C1674 C1675 1.502 . S
C1674 C1676 1.561 . S
C1674 C1677 1.526 . S
C1675 H1659 0.959 . S
C1675 H1660 0.959 . S
C1675 H1661 0.961 . S
C1675 C1674 1.502 . S
C1676 H1662 0.960 . S
C1676 H1663 0.961 . S
C1676 H1664 0.959 . S
C1676 C1674 1.561 . S
C1677 C1674 1.526 . S
C1677 C1678 1.396 . S
C1677 C1682 1.390 . S
C1678 C1672 1.465 . S
C1678 C1677 1.396 . S
C1678 C1679 1.399 1_655 S
C1679 H1665 0.929 . S
C1679 C1678 1.399 1_455 S
C1679 C1680 1.385 1_455 S
C1680 H1666 0.931 1_655 S
C1680 C1679 1.385 1_655 S
C1680 C1681 1.389 . S
C1681 C1680 1.389 . S
C1681 C1682 1.387 . S
C1682 H1667 0.930 . S
C1682 C1677 1.390 . S
C1682 C1681 1.387 . S
H1683 C1695 0.930 . S
H1684 C1697 0.930 . S
H1685 C1698 0.930 . S
H1686 C1702 0.959 . S
H1687 C1702 0.959 . S
H1688 C1702 0.961 . S
H1689 C1703 0.960 . S
H1690 C1703 0.961 . S
H1691 C1703 0.959 . S
H1692 C1706 0.929 . S
H1693 C1707 0.931 . S
H1694 C1709 0.930 . S
C1695 H1683 0.930 . S
C1695 C1696 1.399 . S
C1695 C1700 1.399 . S
C1696 C1695 1.399 . S
C1696 C1697 1.376 . S
C1697 H1684 0.930 . S
C1697 C1696 1.376 . S
C1697 C1698 1.388 . S
C1698 H1685 0.930 . S
C1698 C1697 1.388 . S
C1698 C1699 1.390 . S
C1699 C1698 1.390 . S
C1699 C1700 1.394 . S
C1699 C1705 1.465 . S
C1700 C1695 1.399 . S
C1700 C1699 1.394 . S
C1700 C1701 1.516 . S
C1701 C1700 1.516 . S
C1701 C1702 1.502 . S
C1701 C1703 1.561 . S
C1701 C1704 1.526 . S
C1702 H1686 0.959 . S
C1702 H1687 0.959 . S
C1702 H1688 0.961 . S
C1702 C1701 1.502 . S
C1703 H1689 0.960 . S
C1703 H1690 0.961 . S
C1703 H1691 0.959 . S
C1703 C1701 1.561 . S
C1704 C1701 1.526 . S
C1704 C1705 1.396 . S
C1704 C1709 1.390 . S
C1705 C1699 1.465 . S
C1705 C1704 1.396 . S
C1705 C1706 1.399 . S
C1706 H1692 0.929 . S
C1706 C1705 1.399 . S
C1706 C1707 1.385 . S
C1707 H1693 0.931 . S
C1707 C1706 1.385 . S
C1707 C1708 1.389 . S
C1708 C1707 1.389 . S
C1708 C1709 1.387 . S
C1709 H1694 0.930 . S
C1709 C1704 1.390 . S
C1709 C1708 1.387 . S
H1710 C1722 0.930 . S
H1711 C1724 0.930 . S
H1712 C1725 0.930 . S
H1713 C1729 0.959 . S
H1714 C1729 0.959 . S
H1715 C1729 0.961 . S
H1716 C1730 0.960 . S
H1717 C1730 0.961 . S
H1718 C1730 0.959 . S
H1719 C1733 0.929 . S
H1720 C1734 0.931 . S
H1721 C1736 0.930 . S
C1722 H1710 0.930 . S
C1722 C1723 1.399 . S
C1722 C1727 1.399 . S
C1723 C1722 1.399 . S
C1723 C1724 1.376 . S
C1724 H1711 0.930 . S
C1724 C1723 1.376 . S
C1724 C1725 1.388 . S
C1725 H1712 0.930 . S
C1725 C1724 1.388 . S
C1725 C1726 1.390 . S
C1726 C1725 1.390 . S
C1726 C1727 1.394 . S
C1726 C1732 1.465 . S
C1727 C1722 1.399 . S
C1727 C1726 1.394 . S
C1727 C1728 1.516 . S
C1728 C1727 1.516 . S
C1728 C1729 1.502 . S
C1728 C1730 1.561 1_655 S
C1728 C1731 1.526 . S
C1729 H1713 0.959 . S
C1729 H1714 0.959 . S
C1729 H1715 0.961 . S
C1729 C1728 1.502 . S
C1730 H1716 0.960 . S
C1730 H1717 0.961 . S
C1730 H1718 0.959 . S
C1730 C1728 1.561 1_455 S
C1731 C1728 1.526 . S
C1731 C1732 1.396 . S
C1731 C1736 1.390 . S
C1732 C1726 1.465 . S
C1732 C1731 1.396 . S
C1732 C1733 1.399 . S
C1733 H1719 0.929 . S
C1733 C1732 1.399 . S
C1733 C1734 1.385 . S
C1734 H1720 0.931 . S
C1734 C1733 1.385 . S
C1734 C1735 1.389 . S
C1735 C1734 1.389 . S
C1735 C1736 1.387 . S
C1736 H1721 0.930 . S
C1736 C1731 1.390 . S
C1736 C1735 1.387 . S
H1737 C1749 0.930 . S
H1738 C1751 0.930 . S
H1739 C1752 0.930 . S
H1740 C1756 0.959 . S
H1741 C1756 0.959 . S
H1742 C1756 0.961 . S
H1743 C1757 0.960 . S
H1744 C1757 0.961 . S
H1745 C1757 0.959 . S
H1746 C1760 0.929 . S
H1747 C1761 0.931 . S
H1748 C1763 0.930 . S
C1749 H1737 0.930 . S
C1749 C1750 1.399 . S
C1749 C1754 1.399 . S
C1750 C1749 1.399 . S
C1750 C1751 1.376 . S
C1751 H1738 0.930 . S
C1751 C1750 1.376 . S
C1751 C1752 1.388 . S
C1752 H1739 0.930 . S
C1752 C1751 1.388 . S
C1752 C1753 1.390 . S
C1753 C1752 1.390 . S
C1753 C1754 1.394 . S
C1753 C1759 1.465 . S
C1754 C1749 1.399 . S
C1754 C1753 1.394 . S
C1754 C1755 1.516 . S
C1755 C1754 1.516 . S
C1755 C1756 1.502 . S
C1755 C1757 1.561 . S
C1755 C1758 1.526 . S
C1756 H1740 0.959 . S
C1756 H1741 0.959 . S
C1756 H1742 0.961 . S
C1756 C1755 1.502 . S
C1757 H1743 0.960 . S
C1757 H1744 0.961 . S
C1757 H1745 0.959 . S
C1757 C1755 1.561 . S
C1758 C1755 1.526 . S
C1758 C1759 1.396 . S
C1758 C1763 1.390 . S
C1759 C1753 1.465 . S
C1759 C1758 1.396 . S
C1759 C1760 1.399 . S
C1760 H1746 0.929 . S
C1760 C1759 1.399 . S
C1760 C1761 1.385 . S
C1761 H1747 0.931 . S
C1761 C1760 1.385 . S
C1761 C1762 1.389 . S
C1762 C1761 1.389 . S
C1762 C1763 1.387 . S
C1763 H1748 0.930 . S
C1763 C1758 1.390 . S
C1763 C1762 1.387 . S
H1764 C1776 0.930 . S
H1765 C1778 0.930 . S
H1766 C1779 0.930 . S
H1767 C1783 0.959 . S
H1768 C1783 0.959 . S
H1769 C1783 0.961 . S
H1770 C1784 0.960 . S
H1771 C1784 0.961 . S
H1772 C1784 0.959 . S
H1773 C1787 0.929 . S
H1774 C1788 0.931 . S
H1775 C1790 0.930 . S
C1776 H1764 0.930 . S
C1776 C1777 1.399 . S
C1776 C1781 1.399 . S
C1777 C1776 1.399 . S
C1777 C1778 1.376 1_565 S
C1778 H1765 0.930 . S
C1778 C1777 1.376 1_545 S
C1778 C1779 1.388 . S
C1779 H1766 0.930 . S
C1779 C1778 1.388 . S
C1779 C1780 1.390 1_545 S
C1780 C1779 1.390 1_565 S
C1780 C1781 1.394 . S
C1780 C1786 1.465 . S
C1781 C1776 1.399 . S
C1781 C1780 1.394 . S
C1781 C1782 1.516 . S
C1782 C1781 1.516 . S
C1782 C1783 1.502 . S
C1782 C1784 1.561 . S
C1782 C1785 1.526 . S
C1783 H1767 0.959 . S
C1783 H1768 0.959 . S
C1783 H1769 0.961 . S
C1783 C1782 1.502 . S
C1784 H1770 0.960 . S
C1784 H1771 0.961 . S
C1784 H1772 0.959 . S
C1784 C1782 1.561 . S
C1785 C1782 1.526 . S
C1785 C1786 1.396 . S
C1785 C1790 1.390 . S
C1786 C1780 1.465 . S
C1786 C1785 1.396 . S
C1786 C1787 1.399 1_565 S
C1787 H1773 0.929 . S
C1787 C1786 1.399 1_545 S
C1787 C1788 1.385 . S
C1788 H1774 0.931 . S
C1788 C1787 1.385 . S
C1788 C1789 1.389 1_545 S
C1789 C1788 1.389 1_565 S
C1789 C1790 1.387 . S
C1790 H1775 0.930 . S
C1790 C1785 1.390 . S
C1790 C1789 1.387 . S
H1791 C1803 0.930 . S
H1792 C1805 0.930 . S
H1793 C1806 0.930 . S
H1794 C1810 0.959 . S
H1795 C1810 0.959 . S
H1796 C1810 0.961 . S
H1797 C1811 0.960 . S
H1798 C1811 0.961 . S
H1799 C1811 0.959 . S
H1800 C1814 0.929 . S
H1801 C1815 0.931 . S
H1802 C1817 0.930 . S
C1803 H1791 0.930 . S
C1803 C1804 1.399 . S
C1803 C1808 1.399 . S
C1804 C1803 1.399 . S
C1804 C1805 1.376 . S
C1805 H1792 0.930 . S
C1805 C1804 1.376 . S
C1805 C1806 1.388 . S
C1806 H1793 0.930 . S
C1806 C1805 1.388 . S
C1806 C1807 1.390 . S
C1807 C1806 1.390 . S
C1807 C1808 1.394 . S
C1807 C1813 1.465 . S
C1808 C1803 1.399 . S
C1808 C1807 1.394 . S
C1808 C1809 1.516 . S
C1809 C1808 1.516 . S
C1809 C1810 1.502 . S
C1809 C1811 1.561 . S
C1809 C1812 1.526 . S
C1810 H1794 0.959 . S
C1810 H1795 0.959 . S
C1810 H1796 0.961 . S
C1810 C1809 1.502 . S
C1811 H1797 0.960 . S
C1811 H1798 0.961 . S
C1811 H1799 0.959 . S
C1811 C1809 1.561 . S
C1812 C1809 1.526 . S
C1812 C1813 1.396 . S
C1812 C1817 1.390 . S
C1813 C1807 1.465 . S
C1813 C1812 1.396 . S
C1813 C1814 1.399 . S
C1814 H1800 0.929 . S
C1814 C1813 1.399 . S
C1814 C1815 1.385 . S
C1815 H1801 0.931 . S
C1815 C1814 1.385 . S
C1815 C1816 1.389 . S
C1816 C1815 1.389 . S
C1816 C1817 1.387 . S
C1817 H1802 0.930 . S
C1817 C1812 1.390 . S
C1817 C1816 1.387 . S
H1818 C1830 0.930 . S
H1819 C1832 0.930 . S
H1820 C1833 0.930 . S
H1821 C1837 0.959 . S
H1822 C1837 0.959 . S
H1823 C1837 0.961 . S
H1824 C1838 0.960 . S
H1825 C1838 0.961 . S
H1826 C1838 0.959 . S
H1827 C1841 0.929 . S
H1828 C1842 0.931 . S
H1829 C1844 0.930 . S
C1830 H1818 0.930 . S
C1830 C1831 1.399 . S
C1830 C1835 1.399 . S
C1831 C1830 1.399 . S
C1831 C1832 1.376 . S
C1832 H1819 0.930 . S
C1832 C1831 1.376 . S
C1832 C1833 1.388 . S
C1833 H1820 0.930 . S
C1833 C1832 1.388 . S
C1833 C1834 1.390 . S
C1834 C1833 1.390 . S
C1834 C1835 1.394 . S
C1834 C1840 1.465 . S
C1835 C1830 1.399 . S
C1835 C1834 1.394 . S
C1835 C1836 1.516 . S
C1836 C1835 1.516 . S
C1836 C1837 1.502 . S
C1836 C1838 1.561 . S
C1836 C1839 1.526 . S
C1837 H1821 0.959 . S
C1837 H1822 0.959 . S
C1837 H1823 0.961 . S
C1837 C1836 1.502 . S
C1838 H1824 0.960 . S
C1838 H1825 0.961 . S
C1838 H1826 0.959 . S
C1838 C1836 1.561 . S
C1839 C1836 1.526 . S
C1839 C1840 1.396 . S
C1839 C1844 1.390 . S
C1840 C1834 1.465 . S
C1840 C1839 1.396 . S
C1840 C1841 1.399 . S
C1841 H1827 0.929 . S
C1841 C1840 1.399 . S
C1841 C1842 1.385 . S
C1842 H1828 0.931 . S
C1842 C1841 1.385 . S
C1842 C1843 1.389 . S
C1843 C1842 1.389 . S
C1843 C1844 1.387 . S
C1844 H1829 0.930 . S
C1844 C1839 1.390 . S
C1844 C1843 1.387 . S
H1845 C1857 0.930 . S
H1846 C1859 0.930 . S
H1847 C1860 0.930 . S
H1848 C1864 0.959 . S
H1849 C1864 0.959 . S
H1850 C1864 0.961 . S
H1851 C1865 0.960 . S
H1852 C1865 0.961 . S
H1853 C1865 0.959 . S
H1854 C1868 0.929 . S
H1855 C1869 0.931 . S
H1856 C1871 0.930 . S
C1857 H1845 0.930 . S
C1857 C1858 1.399 . S
C1857 C1862 1.399 . S
C1858 C1857 1.399 . S
C1858 C1859 1.376 . S
C1859 H1846 0.930 . S
C1859 C1858 1.376 . S
C1859 C1860 1.388 . S
C1860 H1847 0.930 . S
C1860 C1859 1.388 . S
C1860 C1861 1.390 . S
C1861 C1860 1.390 . S
C1861 C1862 1.394 . S
C1861 C1867 1.465 . S
C1862 C1857 1.399 . S
C1862 C1861 1.394 . S
C1862 C1863 1.516 . S
C1863 C1862 1.516 . S
C1863 C1864 1.502 . S
C1863 C1865 1.561 . S
C1863 C1866 1.526 . S
C1864 H1848 0.959 . S
C1864 H1849 0.959 . S
C1864 H1850 0.961 . S
C1864 C1863 1.502 . S
C1865 H1851 0.960 . S
C1865 H1852 0.961 . S
C1865 H1853 0.959 . S
C1865 C1863 1.561 . S
C1866 C1863 1.526 . S
C1866 C1867 1.396 . S
C1866 C1871 1.390 . S
C1867 C1861 1.465 . S
C1867 C1866 1.396 . S
C1867 C1868 1.399 . S
C1868 H1854 0.929 . S
C1868 C1867 1.399 . S
C1868 C1869 1.385 . S
C1869 H1855 0.931 . S
C1869 C1868 1.385 . S
C1869 C1870 1.389 . S
C1870 C1869 1.389 . S
C1870 C1871 1.387 . S
C1871 H1856 0.930 . S
C1871 C1866 1.390 . S
C1871 C1870 1.387 . S
H1872 C1884 0.930 1_545 S
H1873 C1886 0.930 . S
H1874 C1887 0.930 . S
H1875 C1891 0.959 1_565 S
H1876 C1891 0.959 . S
H1877 C1891 0.961 . S
H1878 C1892 0.960 . S
H1879 C1892 0.961 . S
H1880 C1892 0.959 . S
H1881 C1895 0.929 . S
H1882 C1896 0.931 . S
H1883 C1898 0.930 1_545 S
C1884 H1872 0.930 1_565 S
C1884 C1885 1.399 . S
C1884 C1889 1.399 . S
C1885 C1884 1.399 . S
C1885 C1886 1.376 . S
C1886 H1873 0.930 . S
C1886 C1885 1.376 . S
C1886 C1887 1.388 . S
C1887 H1874 0.930 . S
C1887 C1886 1.388 . S
C1887 C1888 1.390 . S
C1888 C1887 1.390 . S
C1888 C1889 1.394 . S
C1888 C1894 1.465 . S
C1889 C1884 1.399 . S
C1889 C1888 1.394 . S
C1889 C1890 1.516 1_565 S
C1890 C1889 1.516 1_545 S
C1890 C1891 1.502 . S
C1890 C1892 1.561 . S
C1890 C1893 1.526 1_545 S
C1891 H1875 0.959 1_545 S
C1891 H1876 0.959 . S
C1891 H1877 0.961 . S
C1891 C1890 1.502 . S
C1892 H1878 0.960 . S
C1892 H1879 0.961 . S
C1892 H1880 0.959 . S
C1892 C1890 1.561 . S
C1893 C1890 1.526 1_565 S
C1893 C1894 1.396 . S
C1893 C1898 1.390 . S
C1894 C1888 1.465 . S
C1894 C1893 1.396 . S
C1894 C1895 1.399 . S
C1895 H1881 0.929 . S
C1895 C1894 1.399 . S
C1895 C1896 1.385 . S
C1896 H1882 0.931 . S
C1896 C1895 1.385 . S
C1896 C1897 1.389 . S
C1897 C1896 1.389 . S
C1897 C1898 1.387 . S
C1898 H1883 0.930 1_565 S
C1898 C1893 1.390 . S
C1898 C1897 1.387 . S
H1899 C1911 0.930 . S
H1900 C1913 0.930 . S
H1901 C1914 0.930 . S
H1902 C1918 0.959 . S
H1903 C1918 0.959 . S
H1904 C1918 0.961 . S
H1905 C1919 0.960 . S
H1906 C1919 0.961 . S
H1907 C1919 0.959 . S
H1908 C1922 0.929 . S
H1909 C1923 0.931 . S
H1910 C1925 0.930 . S
C1911 H1899 0.930 . S
C1911 C1912 1.399 . S
C1911 C1916 1.399 . S
C1912 C1911 1.399 . S
C1912 C1913 1.376 . S
C1913 H1900 0.930 . S
C1913 C1912 1.376 . S
C1913 C1914 1.388 . S
C1914 H1901 0.930 . S
C1914 C1913 1.388 . S
C1914 C1915 1.390 . S
C1915 C1914 1.390 . S
C1915 C1916 1.394 . S
C1915 C1921 1.465 . S
C1916 C1911 1.399 . S
C1916 C1915 1.394 . S
C1916 C1917 1.516 . S
C1917 C1916 1.516 . S
C1917 C1918 1.502 . S
C1917 C1919 1.561 . S
C1917 C1920 1.526 . S
C1918 H1902 0.959 . S
C1918 H1903 0.959 . S
C1918 H1904 0.961 . S
C1918 C1917 1.502 . S
C1919 H1905 0.960 . S
C1919 H1906 0.961 . S
C1919 H1907 0.959 . S
C1919 C1917 1.561 . S
C1920 C1917 1.526 . S
C1920 C1921 1.396 . S
C1920 C1925 1.390 . S
C1921 C1915 1.465 . S
C1921 C1920 1.396 . S
C1921 C1922 1.399 . S
C1922 H1908 0.929 . S
C1922 C1921 1.399 . S
C1922 C1923 1.385 . S
C1923 H1909 0.931 . S
C1923 C1922 1.385 . S
C1923 C1924 1.389 . S
C1924 C1923 1.389 . S
C1924 C1925 1.387 . S
C1925 H1910 0.930 . S
C1925 C1920 1.390 . S
C1925 C1924 1.387 . S
H1926 C1938 0.930 . S
H1927 C1940 0.930 . S
H1928 C1941 0.930 . S
H1929 C1945 0.959 . S
H1930 C1945 0.959 . S
H1931 C1945 0.961 . S
H1932 C1946 0.960 . S
H1933 C1946 0.961 . S
H1934 C1946 0.959 . S
H1935 C1949 0.929 . S
H1936 C1950 0.931 . S
H1937 C1952 0.930 . S
C1938 H1926 0.930 . S
C1938 C1939 1.399 . S
C1938 C1943 1.399 . S
C1939 C1938 1.399 . S
C1939 C1940 1.376 . S
C1940 H1927 0.930 . S
C1940 C1939 1.376 . S
C1940 C1941 1.388 . S
C1941 H1928 0.930 . S
C1941 C1940 1.388 . S
C1941 C1942 1.390 . S
C1942 C1941 1.390 . S
C1942 C1943 1.394 . S
C1942 C1948 1.465 . S
C1943 C1938 1.399 . S
C1943 C1942 1.394 . S
C1943 C1944 1.516 . S
C1944 C1943 1.516 . S
C1944 C1945 1.502 . S
C1944 C1946 1.561 . S
C1944 C1947 1.526 . S
C1945 H1929 0.959 . S
C1945 H1930 0.959 . S
C1945 H1931 0.961 . S
C1945 C1944 1.502 . S
C1946 H1932 0.960 . S
C1946 H1933 0.961 . S
C1946 H1934 0.959 . S
C1946 C1944 1.561 . S
C1947 C1944 1.526 . S
C1947 C1948 1.396 . S
C1947 C1952 1.390 . S
C1948 C1942 1.465 . S
C1948 C1947 1.396 . S
C1948 C1949 1.399 . S
C1949 H1935 0.929 . S
C1949 C1948 1.399 . S
C1949 C1950 1.385 . S
C1950 H1936 0.931 . S
C1950 C1949 1.385 . S
C1950 C1951 1.389 . S
C1951 C1950 1.389 . S
C1951 C1952 1.387 . S
C1952 H1937 0.930 . S
C1952 C1947 1.390 . S
C1952 C1951 1.387 . S
H1953 C1965 0.930 . S
H1954 C1967 0.930 . S
H1955 C1968 0.930 . S
H1956 C1972 0.959 . S
H1957 C1972 0.959 . S
H1958 C1972 0.961 . S
H1959 C1973 0.960 . S
H1960 C1973 0.961 . S
H1961 C1973 0.959 . S
H1962 C1976 0.929 . S
H1963 C1977 0.931 . S
H1964 C1979 0.930 . S
C1965 H1953 0.930 . S
C1965 C1966 1.399 . S
C1965 C1970 1.399 . S
C1966 C1965 1.399 . S
C1966 C1967 1.376 . S
C1967 H1954 0.930 . S
C1967 C1966 1.376 . S
C1967 C1968 1.388 . S
C1968 H1955 0.930 . S
C1968 C1967 1.388 . S
C1968 C1969 1.390 . S
C1969 C1968 1.390 . S
C1969 C1970 1.394 . S
C1969 C1975 1.465 . S
C1970 C1965 1.399 . S
C1970 C1969 1.394 . S
C1970 C1971 1.516 . S
C1971 C1970 1.516 . S
C1971 C1972 1.502 . S
C1971 C1973 1.561 . S
C1971 C1974 1.526 . S
C1972 H1956 0.959 . S
C1972 H1957 0.959 . S
C1972 H1958 0.961 . S
C1972 C1971 1.502 . S
C1973 H1959 0.960 . S
C1973 H1960 0.961 . S
C1973 H1961 0.959 . S
C1973 C1971 1.561 . S
C1974 C1971 1.526 . S
C1974 C1975 1.396 . S
C1974 C1979 1.390 . S
C1975 C1969 1.465 . S
C1975 C1974 1.396 . S
C1975 C1976 1.399 . S
C1976 H1962 0.929 . S
C1976 C1975 1.399 . S
C1976 C1977 1.385 . S
C1977 H1963 0.931 . S
C1977 C1976 1.385 . S
C1977 C1978 1.389 . S
C1978 C1977 1.389 . S
C1978 C1979 1.387 . S
C1979 H1964 0.930 . S
C1979 C1974 1.390 . S
C1979 C1978 1.387 . S
H1980 C1992 0.930 . S
H1981 C1994 0.930 . S
H1982 C1995 0.930 . S
H1983 C1999 0.959 . S
H1984 C1999 0.959 . S
H1985 C1999 0.961 . S
H1986 C2000 0.960 . S
H1987 C2000 0.961 . S
H1988 C2000 0.959 . S
H1989 C2003 0.929 . S
H1990 C2004 0.931 . S
H1991 C2006 0.930 . S
C1992 H1980 0.930 . S
C1992 C1993 1.399 . S
C1992 C1997 1.399 . S
C1993 C1992 1.399 . S
C1993 C1994 1.376 . S
C1994 H1981 0.930 . S
C1994 C1993 1.376 . S
C1994 C1995 1.388 . S
C1995 H1982 0.930 . S
C1995 C1994 1.388 . S
C1995 C1996 1.390 . S
C1996 C1995 1.390 . S
C1996 C1997 1.394 . S
C1996 C2002 1.465 . S
C1997 C1992 1.399 . S
C1997 C1996 1.394 . S
C1997 C1998 1.516 . S
C1998 C1997 1.516 . S
C1998 C1999 1.502 . S
C1998 C2000 1.561 . S
C1998 C2001 1.526 . S
C1999 H1983 0.959 . S
C1999 H1984 0.959 . S
C1999 H1985 0.961 . S
C1999 C1998 1.502 . S
C2000 H1986 0.960 . S
C2000 H1987 0.961 . S
C2000 H1988 0.959 . S
C2000 C1998 1.561 . S
C2001 C1998 1.526 . S
C2001 C2002 1.396 . S
C2001 C2006 1.390 . S
C2002 C1996 1.465 . S
C2002 C2001 1.396 . S
C2002 C2003 1.399 . S
C2003 H1989 0.929 . S
C2003 C2002 1.399 . S
C2003 C2004 1.385 . S
C2004 H1990 0.931 . S
C2004 C2003 1.385 . S
C2004 C2005 1.389 . S
C2005 C2004 1.389 . S
C2005 C2006 1.387 . S
C2006 H1991 0.930 . S
C2006 C2001 1.390 . S
C2006 C2005 1.387 . S
H2007 C2019 0.930 . S
H2008 C2021 0.930 . S
H2009 C2022 0.930 . S
H2010 C2026 0.959 . S
H2011 C2026 0.959 . S
H2012 C2026 0.961 . S
H2013 C2027 0.960 . S
H2014 C2027 0.961 . S
H2015 C2027 0.959 . S
H2016 C2030 0.929 . S
H2017 C2031 0.931 . S
H2018 C2033 0.930 . S
C2019 H2007 0.930 . S
C2019 C2020 1.399 . S
C2019 C2024 1.399 . S
C2020 C2019 1.399 . S
C2020 C2021 1.376 . S
C2021 H2008 0.930 . S
C2021 C2020 1.376 . S
C2021 C2022 1.388 . S
C2022 H2009 0.930 . S
C2022 C2021 1.388 . S
C2022 C2023 1.390 . S
C2023 C2022 1.390 . S
C2023 C2024 1.394 . S
C2023 C2029 1.465 . S
C2024 C2019 1.399 . S
C2024 C2023 1.394 . S
C2024 C2025 1.516 . S
C2025 C2024 1.516 . S
C2025 C2026 1.502 . S
C2025 C2027 1.561 . S
C2025 C2028 1.526 . S
C2026 H2010 0.959 . S
C2026 H2011 0.959 . S
C2026 H2012 0.961 . S
C2026 C2025 1.502 . S
C2027 H2013 0.960 . S
C2027 H2014 0.961 . S
C2027 H2015 0.959 . S
C2027 C2025 1.561 . S
C2028 C2025 1.526 . S
C2028 C2029 1.396 . S
C2028 C2033 1.390 . S
C2029 C2023 1.465 . S
C2029 C2028 1.396 . S
C2029 C2030 1.399 . S
C2030 H2016 0.929 . S
C2030 C2029 1.399 . S
C2030 C2031 1.385 . S
C2031 H2017 0.931 . S
C2031 C2030 1.385 . S
C2031 C2032 1.389 . S
C2032 C2031 1.389 . S
C2032 C2033 1.387 . S
C2033 H2018 0.930 . S
C2033 C2028 1.390 . S
C2033 C2032 1.387 . S
H2034 C2046 0.930 . S
H2035 C2048 0.930 . S
H2036 C2049 0.930 . S
H2037 C2053 0.959 . S
H2038 C2053 0.959 . S
H2039 C2053 0.961 . S
H2040 C2054 0.960 . S
H2041 C2054 0.961 . S
H2042 C2054 0.959 . S
H2043 C2057 0.929 . S
H2044 C2058 0.931 . S
H2045 C2060 0.930 . S
C2046 H2034 0.930 . S
C2046 C2047 1.399 . S
C2046 C2051 1.399 . S
C2047 C2046 1.399 . S
C2047 C2048 1.376 . S
C2048 H2035 0.930 . S
C2048 C2047 1.376 . S
C2048 C2049 1.388 . S
C2049 H2036 0.930 . S
C2049 C2048 1.388 . S
C2049 C2050 1.390 . S
C2050 C2049 1.390 . S
C2050 C2051 1.394 . S
C2050 C2056 1.465 . S
C2051 C2046 1.399 . S
C2051 C2050 1.394 . S
C2051 C2052 1.516 . S
C2052 C2051 1.516 . S
C2052 C2053 1.502 . S
C2052 C2054 1.561 . S
C2052 C2055 1.526 . S
C2053 H2037 0.959 . S
C2053 H2038 0.959 . S
C2053 H2039 0.961 . S
C2053 C2052 1.502 . S
C2054 H2040 0.960 . S
C2054 H2041 0.961 . S
C2054 H2042 0.959 . S
C2054 C2052 1.561 . S
C2055 C2052 1.526 . S
C2055 C2056 1.396 . S
C2055 C2060 1.390 . S
C2056 C2050 1.465 . S
C2056 C2055 1.396 . S
C2056 C2057 1.399 . S
C2057 H2043 0.929 . S
C2057 C2056 1.399 . S
C2057 C2058 1.385 . S
C2058 H2044 0.931 . S
C2058 C2057 1.385 . S
C2058 C2059 1.389 . S
C2059 C2058 1.389 . S
C2059 C2060 1.387 . S
C2060 H2045 0.930 . S
C2060 C2055 1.390 . S
C2060 C2059 1.387 . S
H2061 C2073 0.930 . S
H2062 C2075 0.930 . S
H2063 C2076 0.930 . S
H2064 C2080 0.959 . S
H2065 C2080 0.959 . S
H2066 C2080 0.961 . S
H2067 C2081 0.960 . S
H2068 C2081 0.961 . S
H2069 C2081 0.959 . S
H2070 C2084 0.929 . S
H2071 C2085 0.931 . S
H2072 C2087 0.930 . S
C2073 H2061 0.930 . S
C2073 C2074 1.399 . S
C2073 C2078 1.399 . S
C2074 C2073 1.399 . S
C2074 C2075 1.376 . S
C2075 H2062 0.930 . S
C2075 C2074 1.376 . S
C2075 C2076 1.388 . S
C2076 H2063 0.930 . S
C2076 C2075 1.388 . S
C2076 C2077 1.390 . S
C2077 C2076 1.390 . S
C2077 C2078 1.394 . S
C2077 C2083 1.465 . S
C2078 C2073 1.399 . S
C2078 C2077 1.394 . S
C2078 C2079 1.516 . S
C2079 C2078 1.516 . S
C2079 C2080 1.502 . S
C2079 C2081 1.561 . S
C2079 C2082 1.526 . S
C2080 H2064 0.959 . S
C2080 H2065 0.959 . S
C2080 H2066 0.961 . S
C2080 C2079 1.502 . S
C2081 H2067 0.960 . S
C2081 H2068 0.961 . S
C2081 H2069 0.959 . S
C2081 C2079 1.561 . S
C2082 C2079 1.526 . S
C2082 C2083 1.396 . S
C2082 C2087 1.390 . S
C2083 C2077 1.465 . S
C2083 C2082 1.396 . S
C2083 C2084 1.399 . S
C2084 H2070 0.929 . S
C2084 C2083 1.399 . S
C2084 C2085 1.385 . S
C2085 H2071 0.931 . S
C2085 C2084 1.385 . S
C2085 C2086 1.389 . S
C2086 C2085 1.389 . S
C2086 C2087 1.387 . S
C2087 H2072 0.930 . S
C2087 C2082 1.390 . S
C2087 C2086 1.387 . S
H2088 C2100 0.930 . S
H2089 C2102 0.930 . S
H2090 C2103 0.930 . S
H2091 C2107 0.959 . S
H2092 C2107 0.959 . S
H2093 C2107 0.961 . S
H2094 C2108 0.960 . S
H2095 C2108 0.961 . S
H2096 C2108 0.959 . S
H2097 C2111 0.929 . S
H2098 C2112 0.931 . S
H2099 C2114 0.930 . S
C2100 H2088 0.930 . S
C2100 C2101 1.399 . S
C2100 C2105 1.399 . S
C2101 C2100 1.399 . S
C2101 C2102 1.376 . S
C2102 H2089 0.930 . S
C2102 C2101 1.376 . S
C2102 C2103 1.388 . S
C2103 H2090 0.930 . S
C2103 C2102 1.388 . S
C2103 C2104 1.390 . S
C2104 C2103 1.390 . S
C2104 C2105 1.394 . S
C2104 C2110 1.465 . S
C2105 C2100 1.399 . S
C2105 C2104 1.394 . S
C2105 C2106 1.516 . S
C2106 C2105 1.516 . S
C2106 C2107 1.502 . S
C2106 C2108 1.561 . S
C2106 C2109 1.526 . S
C2107 H2091 0.959 . S
C2107 H2092 0.959 . S
C2107 H2093 0.961 . S
C2107 C2106 1.502 . S
C2108 H2094 0.960 . S
C2108 H2095 0.961 . S
C2108 H2096 0.959 . S
C2108 C2106 1.561 . S
C2109 C2106 1.526 . S
C2109 C2110 1.396 . S
C2109 C2114 1.390 . S
C2110 C2104 1.465 . S
C2110 C2109 1.396 . S
C2110 C2111 1.399 . S
C2111 H2097 0.929 . S
C2111 C2110 1.399 . S
C2111 C2112 1.385 . S
C2112 H2098 0.931 . S
C2112 C2111 1.385 . S
C2112 C2113 1.389 . S
C2113 C2112 1.389 . S
C2113 C2114 1.387 . S
C2114 H2099 0.930 . S
C2114 C2109 1.390 . S
C2114 C2113 1.387 . S
H2115 C2127 0.930 . S
H2116 C2129 0.930 . S
H2117 C2130 0.930 . S
H2118 C2134 0.959 . S
H2119 C2134 0.959 . S
H2120 C2134 0.961 . S
H2121 C2135 0.960 . S
H2122 C2135 0.961 . S
H2123 C2135 0.959 . S
H2124 C2138 0.929 . S
H2125 C2139 0.931 . S
H2126 C2141 0.930 . S
C2127 H2115 0.930 . S
C2127 C2128 1.399 . S
C2127 C2132 1.399 . S
C2128 C2127 1.399 . S
C2128 C2129 1.376 . S
C2129 H2116 0.930 . S
C2129 C2128 1.376 . S
C2129 C2130 1.388 . S
C2130 H2117 0.930 . S
C2130 C2129 1.388 . S
C2130 C2131 1.390 . S
C2131 C2130 1.390 . S
C2131 C2132 1.394 . S
C2131 C2137 1.465 . S
C2132 C2127 1.399 . S
C2132 C2131 1.394 . S
C2132 C2133 1.516 . S
C2133 C2132 1.516 . S
C2133 C2134 1.502 . S
C2133 C2135 1.561 . S
C2133 C2136 1.526 . S
C2134 H2118 0.959 . S
C2134 H2119 0.959 . S
C2134 H2120 0.961 . S
C2134 C2133 1.502 . S
C2135 H2121 0.960 . S
C2135 H2122 0.961 . S
C2135 H2123 0.959 . S
C2135 C2133 1.561 . S
C2136 C2133 1.526 . S
C2136 C2137 1.396 . S
C2136 C2141 1.390 . S
C2137 C2131 1.465 . S
C2137 C2136 1.396 . S
C2137 C2138 1.399 . S
C2138 H2124 0.929 . S
C2138 C2137 1.399 . S
C2138 C2139 1.385 . S
C2139 H2125 0.931 . S
C2139 C2138 1.385 . S
C2139 C2140 1.389 . S
C2140 C2139 1.389 . S
C2140 C2141 1.387 . S
C2141 H2126 0.930 . S
C2141 C2136 1.390 . S
C2141 C2140 1.387 . S
H2142 C2154 0.930 . S
H2143 C2156 0.930 . S
H2144 C2157 0.930 . S
H2145 C2161 0.959 . S
H2146 C2161 0.959 . S
H2147 C2161 0.961 . S
H2148 C2162 0.960 . S
H2149 C2162 0.961 . S
H2150 C2162 0.959 1_455 S
H2151 C2165 0.929 . S
H2152 C2166 0.931 . S
H2153 C2168 0.930 . S
C2154 H2142 0.930 . S
C2154 C2155 1.399 . S
C2154 C2159 1.399 . S
C2155 C2154 1.399 . S
C2155 C2156 1.376 . S
C2156 H2143 0.930 . S
C2156 C2155 1.376 . S
C2156 C2157 1.388 . S
C2157 H2144 0.930 . S
C2157 C2156 1.388 . S
C2157 C2158 1.390 . S
C2158 C2157 1.390 . S
C2158 C2159 1.394 . S
C2158 C2164 1.465 . S
C2159 C2154 1.399 . S
C2159 C2158 1.394 . S
C2159 C2160 1.516 . S
C2160 C2159 1.516 . S
C2160 C2161 1.502 . S
C2160 C2162 1.561 . S
C2160 C2163 1.526 . S
C2161 H2145 0.959 . S
C2161 H2146 0.959 . S
C2161 H2147 0.961 . S
C2161 C2160 1.502 . S
C2162 H2148 0.960 . S
C2162 H2149 0.961 . S
C2162 H2150 0.959 1_655 S
C2162 C2160 1.561 . S
C2163 C2160 1.526 . S
C2163 C2164 1.396 . S
C2163 C2168 1.390 . S
C2164 C2158 1.465 . S
C2164 C2163 1.396 . S
C2164 C2165 1.399 . S
C2165 H2151 0.929 . S
C2165 C2164 1.399 . S
C2165 C2166 1.385 . S
C2166 H2152 0.931 . S
C2166 C2165 1.385 . S
C2166 C2167 1.389 . S
C2167 C2166 1.389 . S
C2167 C2168 1.387 . S
C2168 H2153 0.930 . S
C2168 C2163 1.390 . S
C2168 C2167 1.387 . S
H2169 C2181 0.930 . S
H2170 C2183 0.930 . S
H2171 C2184 0.930 . S
H2172 C2188 0.959 . S
H2173 C2188 0.959 . S
H2174 C2188 0.961 . S
H2175 C2189 0.960 . S
H2176 C2189 0.961 . S
H2177 C2189 0.959 . S
H2178 C2192 0.929 . S
H2179 C2193 0.931 . S
H2180 C2195 0.930 . S
C2181 H2169 0.930 . S
C2181 C2182 1.399 . S
C2181 C2186 1.399 . S
C2182 C2181 1.399 . S
C2182 C2183 1.376 . S
C2183 H2170 0.930 . S
C2183 C2182 1.376 . S
C2183 C2184 1.388 . S
C2184 H2171 0.930 . S
C2184 C2183 1.388 . S
C2184 C2185 1.390 . S
C2185 C2184 1.390 . S
C2185 C2186 1.394 . S
C2185 C2191 1.465 . S
C2186 C2181 1.399 . S
C2186 C2185 1.394 . S
C2186 C2187 1.516 . S
C2187 C2186 1.516 . S
C2187 C2188 1.502 . S
C2187 C2189 1.561 . S
C2187 C2190 1.526 . S
C2188 H2172 0.959 . S
C2188 H2173 0.959 . S
C2188 H2174 0.961 . S
C2188 C2187 1.502 . S
C2189 H2175 0.960 . S
C2189 H2176 0.961 . S
C2189 H2177 0.959 . S
C2189 C2187 1.561 . S
C2190 C2187 1.526 . S
C2190 C2191 1.396 . S
C2190 C2195 1.390 . S
C2191 C2185 1.465 . S
C2191 C2190 1.396 . S
C2191 C2192 1.399 . S
C2192 H2178 0.929 . S
C2192 C2191 1.399 . S
C2192 C2193 1.385 . S
C2193 H2179 0.931 . S
C2193 C2192 1.385 . S
C2193 C2194 1.389 . S
C2194 C2193 1.389 . S
C2194 C2195 1.387 . S
C2195 H2180 0.930 . S
C2195 C2190 1.390 . S
C2195 C2194 1.387 . S
H2196 C2208 0.930 . S
H2197 C2210 0.930 . S
H2198 C2211 0.930 . S
H2199 C2215 0.959 . S
H2200 C2215 0.959 . S
H2201 C2215 0.961 . S
H2202 C2216 0.960 . S
H2203 C2216 0.961 . S
H2204 C2216 0.959 . S
H2205 C2219 0.929 . S
H2206 C2220 0.931 . S
H2207 C2222 0.930 . S
C2208 H2196 0.930 . S
C2208 C2209 1.399 . S
C2208 C2213 1.399 . S
C2209 C2208 1.399 . S
C2209 C2210 1.376 . S
C2210 H2197 0.930 . S
C2210 C2209 1.376 . S
C2210 C2211 1.388 . S
C2211 H2198 0.930 . S
C2211 C2210 1.388 . S
C2211 C2212 1.390 . S
C2212 C2211 1.390 . S
C2212 C2213 1.394 . S
C2212 C2218 1.465 . S
C2213 C2208 1.399 . S
C2213 C2212 1.394 . S
C2213 C2214 1.516 . S
C2214 C2213 1.516 . S
C2214 C2215 1.502 . S
C2214 C2216 1.561 . S
C2214 C2217 1.526 . S
C2215 H2199 0.959 . S
C2215 H2200 0.959 . S
C2215 H2201 0.961 . S
C2215 C2214 1.502 . S
C2216 H2202 0.960 . S
C2216 H2203 0.961 . S
C2216 H2204 0.959 . S
C2216 C2214 1.561 . S
C2217 C2214 1.526 . S
C2217 C2218 1.396 . S
C2217 C2222 1.390 . S
C2218 C2212 1.465 . S
C2218 C2217 1.396 . S
C2218 C2219 1.399 . S
C2219 H2205 0.929 . S
C2219 C2218 1.399 . S
C2219 C2220 1.385 . S
C2220 H2206 0.931 . S
C2220 C2219 1.385 . S
C2220 C2221 1.389 . S
C2221 C2220 1.389 . S
C2221 C2222 1.387 . S
C2222 H2207 0.930 . S
C2222 C2217 1.390 . S
C2222 C2221 1.387 . S
H2223 C2235 0.930 . S
H2224 C2237 0.930 . S
H2225 C2238 0.930 . S
H2226 C2242 0.959 . S
H2227 C2242 0.959 . S
H2228 C2242 0.961 . S
H2229 C2243 0.960 . S
H2230 C2243 0.961 . S
H2231 C2243 0.959 . S
H2232 C2246 0.929 . S
H2233 C2247 0.931 . S
H2234 C2249 0.930 . S
C2235 H2223 0.930 . S
C2235 C2236 1.399 . S
C2235 C2240 1.399 . S
C2236 C2235 1.399 . S
C2236 C2237 1.376 . S
C2237 H2224 0.930 . S
C2237 C2236 1.376 . S
C2237 C2238 1.388 . S
C2238 H2225 0.930 . S
C2238 C2237 1.388 . S
C2238 C2239 1.390 . S
C2239 C2238 1.390 . S
C2239 C2240 1.394 . S
C2239 C2245 1.465 . S
C2240 C2235 1.399 . S
C2240 C2239 1.394 . S
C2240 C2241 1.516 . S
C2241 C2240 1.516 . S
C2241 C2242 1.502 . S
C2241 C2243 1.561 . S
C2241 C2244 1.526 . S
C2242 H2226 0.959 . S
C2242 H2227 0.959 . S
C2242 H2228 0.961 . S
C2242 C2241 1.502 . S
C2243 H2229 0.960 . S
C2243 H2230 0.961 . S
C2243 H2231 0.959 . S
C2243 C2241 1.561 . S
C2244 C2241 1.526 . S
C2244 C2245 1.396 . S
C2244 C2249 1.390 . S
C2245 C2239 1.465 . S
C2245 C2244 1.396 . S
C2245 C2246 1.399 . S
C2246 H2232 0.929 . S
C2246 C2245 1.399 . S
C2246 C2247 1.385 . S
C2247 H2233 0.931 . S
C2247 C2246 1.385 . S
C2247 C2248 1.389 . S
C2248 C2247 1.389 . S
C2248 C2249 1.387 . S
C2249 H2234 0.930 . S
C2249 C2244 1.390 . S
C2249 C2248 1.387 . S
H2250 C2262 0.930 . S
H2251 C2264 0.930 . S
H2252 C2265 0.930 . S
H2253 C2269 0.959 . S
H2254 C2269 0.959 . S
H2255 C2269 0.961 . S
H2256 C2270 0.960 . S
H2257 C2270 0.961 . S
H2258 C2270 0.959 . S
H2259 C2273 0.929 . S
H2260 C2274 0.931 . S
H2261 C2276 0.930 . S
C2262 H2250 0.930 . S
C2262 C2263 1.399 . S
C2262 C2267 1.399 . S
C2263 C2262 1.399 . S
C2263 C2264 1.376 . S
C2264 H2251 0.930 . S
C2264 C2263 1.376 . S
C2264 C2265 1.388 . S
C2265 H2252 0.930 . S
C2265 C2264 1.388 . S
C2265 C2266 1.390 . S
C2266 C2265 1.390 . S
C2266 C2267 1.394 . S
C2266 C2272 1.465 . S
C2267 C2262 1.399 . S
C2267 C2266 1.394 . S
C2267 C2268 1.516 . S
C2268 C2267 1.516 . S
C2268 C2269 1.502 . S
C2268 C2270 1.561 . S
C2268 C2271 1.526 . S
C2269 H2253 0.959 . S
C2269 H2254 0.959 . S
C2269 H2255 0.961 . S
C2269 C2268 1.502 . S
C2270 H2256 0.960 . S
C2270 H2257 0.961 . S
C2270 H2258 0.959 . S
C2270 C2268 1.561 . S
C2271 C2268 1.526 . S
C2271 C2272 1.396 . S
C2271 C2276 1.390 . S
C2272 C2266 1.465 . S
C2272 C2271 1.396 . S
C2272 C2273 1.399 . S
C2273 H2259 0.929 . S
C2273 C2272 1.399 . S
C2273 C2274 1.385 . S
C2274 H2260 0.931 . S
C2274 C2273 1.385 . S
C2274 C2275 1.389 . S
C2275 C2274 1.389 . S
C2275 C2276 1.387 . S
C2276 H2261 0.930 . S
C2276 C2271 1.390 . S
C2276 C2275 1.387 . S
H2277 C2289 0.930 . S
H2278 C2291 0.930 . S
H2279 C2292 0.930 . S
H2280 C2296 0.959 . S
H2281 C2296 0.959 . S
H2282 C2296 0.961 . S
H2283 C2297 0.960 . S
H2284 C2297 0.961 . S
H2285 C2297 0.959 . S
H2286 C2300 0.929 . S
H2287 C2301 0.931 . S
H2288 C2303 0.930 . S
C2289 H2277 0.930 . S
C2289 C2290 1.399 . S
C2289 C2294 1.399 . S
C2290 C2289 1.399 . S
C2290 C2291 1.376 . S
C2291 H2278 0.930 . S
C2291 C2290 1.376 . S
C2291 C2292 1.388 . S
C2292 H2279 0.930 . S
C2292 C2291 1.388 . S
C2292 C2293 1.390 . S
C2293 C2292 1.390 . S
C2293 C2294 1.394 . S
C2293 C2299 1.465 . S
C2294 C2289 1.399 . S
C2294 C2293 1.394 . S
C2294 C2295 1.516 . S
C2295 C2294 1.516 . S
C2295 C2296 1.502 . S
C2295 C2297 1.561 . S
C2295 C2298 1.526 . S
C2296 H2280 0.959 . S
C2296 H2281 0.959 . S
C2296 H2282 0.961 . S
C2296 C2295 1.502 . S
C2297 H2283 0.960 . S
C2297 H2284 0.961 . S
C2297 H2285 0.959 . S
C2297 C2295 1.561 . S
C2298 C2295 1.526 . S
C2298 C2299 1.396 . S
C2298 C2303 1.390 . S
C2299 C2293 1.465 . S
C2299 C2298 1.396 . S
C2299 C2300 1.399 . S
C2300 H2286 0.929 . S
C2300 C2299 1.399 . S
C2300 C2301 1.385 . S
C2301 H2287 0.931 . S
C2301 C2300 1.385 . S
C2301 C2302 1.389 . S
C2302 C2301 1.389 . S
C2302 C2303 1.387 . S
C2303 H2288 0.930 . S
C2303 C2298 1.390 . S
C2303 C2302 1.387 . S
H2304 C2316 0.930 . S
H2305 C2318 0.930 . S
H2306 C2319 0.930 . S
H2307 C2323 0.959 . S
H2308 C2323 0.959 . S
H2309 C2323 0.961 . S
H2310 C2324 0.960 . S
H2311 C2324 0.961 . S
H2312 C2324 0.959 . S
H2313 C2327 0.929 . S
H2314 C2328 0.931 . S
H2315 C2330 0.930 . S
C2316 H2304 0.930 . S
C2316 C2317 1.399 . S
C2316 C2321 1.399 . S
C2317 C2316 1.399 . S
C2317 C2318 1.376 . S
C2318 H2305 0.930 . S
C2318 C2317 1.376 . S
C2318 C2319 1.388 . S
C2319 H2306 0.930 . S
C2319 C2318 1.388 . S
C2319 C2320 1.390 . S
C2320 C2319 1.390 . S
C2320 C2321 1.394 . S
C2320 C2326 1.465 . S
C2321 C2316 1.399 . S
C2321 C2320 1.394 . S
C2321 C2322 1.516 . S
C2322 C2321 1.516 . S
C2322 C2323 1.502 . S
C2322 C2324 1.561 . S
C2322 C2325 1.526 . S
C2323 H2307 0.959 . S
C2323 H2308 0.959 . S
C2323 H2309 0.961 . S
C2323 C2322 1.502 . S
C2324 H2310 0.960 . S
C2324 H2311 0.961 . S
C2324 H2312 0.959 . S
C2324 C2322 1.561 . S
C2325 C2322 1.526 . S
C2325 C2326 1.396 . S
C2325 C2330 1.390 . S
C2326 C2320 1.465 . S
C2326 C2325 1.396 . S
C2326 C2327 1.399 . S
C2327 H2313 0.929 . S
C2327 C2326 1.399 . S
C2327 C2328 1.385 . S
C2328 H2314 0.931 . S
C2328 C2327 1.385 . S
C2328 C2329 1.389 . S
C2329 C2328 1.389 . S
C2329 C2330 1.387 . S
C2330 H2315 0.930 . S
C2330 C2325 1.390 . S
C2330 C2329 1.387 . S
H2331 C2343 0.930 . S
H2332 C2345 0.930 . S
H2333 C2346 0.930 . S
H2334 C2350 0.959 . S
H2335 C2350 0.959 . S
H2336 C2350 0.961 . S
H2337 C2351 0.960 . S
H2338 C2351 0.961 . S
H2339 C2351 0.959 . S
H2340 C2354 0.929 . S
H2341 C2355 0.931 . S
H2342 C2357 0.930 . S
C2343 H2331 0.930 . S
C2343 C2344 1.399 . S
C2343 C2348 1.399 . S
C2344 C2343 1.399 . S
C2344 C2345 1.376 . S
C2345 H2332 0.930 . S
C2345 C2344 1.376 . S
C2345 C2346 1.388 . S
C2346 H2333 0.930 . S
C2346 C2345 1.388 . S
C2346 C2347 1.390 . S
C2347 C2346 1.390 . S
C2347 C2348 1.394 . S
C2347 C2353 1.465 . S
C2348 C2343 1.399 . S
C2348 C2347 1.394 . S
C2348 C2349 1.516 . S
C2349 C2348 1.516 . S
C2349 C2350 1.502 . S
C2349 C2351 1.561 . S
C2349 C2352 1.526 . S
C2350 H2334 0.959 . S
C2350 H2335 0.959 . S
C2350 H2336 0.961 . S
C2350 C2349 1.502 . S
C2351 H2337 0.960 . S
C2351 H2338 0.961 . S
C2351 H2339 0.959 . S
C2351 C2349 1.561 . S
C2352 C2349 1.526 . S
C2352 C2353 1.396 . S
C2352 C2357 1.390 . S
C2353 C2347 1.465 . S
C2353 C2352 1.396 . S
C2353 C2354 1.399 . S
C2354 H2340 0.929 . S
C2354 C2353 1.399 . S
C2354 C2355 1.385 . S
C2355 H2341 0.931 . S
C2355 C2354 1.385 . S
C2355 C2356 1.389 . S
C2356 C2355 1.389 . S
C2356 C2357 1.387 . S
C2357 H2342 0.930 . S
C2357 C2352 1.390 . S
C2357 C2356 1.387 . S
H2358 C2370 0.930 . S
H2359 C2372 0.930 . S
H2360 C2373 0.930 1_545 S
H2361 C2377 0.959 . S
H2362 C2377 0.959 . S
H2363 C2377 0.961 . S
H2364 C2378 0.960 . S
H2365 C2378 0.961 . S
H2366 C2378 0.959 . S
H2367 C2381 0.929 1_545 S
H2368 C2382 0.928 1_545 S
H2369 C2384 0.930 . S
C2370 H2358 0.930 . S
C2370 C2371 1.399 . S
C2370 C2375 1.399 . S
C2371 C2370 1.399 . S
C2371 C2372 1.376 . S
C2372 H2359 0.930 . S
C2372 C2371 1.376 . S
C2372 C2373 1.388 . S
C2373 H2360 0.930 1_565 S
C2373 C2372 1.388 . S
C2373 C2374 1.390 . S
C2374 C2373 1.390 . S
C2374 C2375 1.394 . S
C2374 C2380 1.465 . S
C2375 C2370 1.399 . S
C2375 C2374 1.394 . S
C2375 C2376 1.516 . S
C2376 C2375 1.516 . S
C2376 C2377 1.502 . S
C2376 C2378 1.561 . S
C2376 C2379 1.526 . S
C2377 H2361 0.959 . S
C2377 H2362 0.959 . S
C2377 H2363 0.961 . S
C2377 C2376 1.502 . S
C2378 H2364 0.960 . S
C2378 H2365 0.961 . S
C2378 H2366 0.959 . S
C2378 C2376 1.561 . S
C2379 C2376 1.526 . S
C2379 C2380 1.396 . S
C2379 C2384 1.390 . S
C2380 C2374 1.465 . S
C2380 C2379 1.396 . S
C2380 C2381 1.399 . S
C2381 H2367 0.929 1_565 S
C2381 C2380 1.399 . S
C2381 C2382 1.385 . S
C2382 H2368 0.928 1_565 S
C2382 C2381 1.385 . S
C2382 C2383 1.389 . S
C2383 C2382 1.389 . S
C2383 C2384 1.387 . S
C2384 H2369 0.930 . S
C2384 C2379 1.390 . S
C2384 C2383 1.387 . S
H2385 C2397 0.930 . S
H2386 C2399 0.930 . S
H2387 C2400 0.930 . S
H2388 C2404 0.959 . S
H2389 C2404 0.959 . S
H2390 C2404 0.961 . S
H2391 C2405 0.960 . S
H2392 C2405 0.961 . S
H2393 C2405 0.959 . S
H2394 C2408 0.929 . S
H2395 C2409 0.931 . S
H2396 C2411 0.930 . S
C2397 H2385 0.930 . S
C2397 C2398 1.399 . S
C2397 C2402 1.399 . S
C2398 C2397 1.399 . S
C2398 C2399 1.376 . S
C2399 H2386 0.930 . S
C2399 C2398 1.376 . S
C2399 C2400 1.388 . S
C2400 H2387 0.930 . S
C2400 C2399 1.388 . S
C2400 C2401 1.390 . S
C2401 C2400 1.390 . S
C2401 C2402 1.394 . S
C2401 C2407 1.465 . S
C2402 C2397 1.399 . S
C2402 C2401 1.394 . S
C2402 C2403 1.516 . S
C2403 C2402 1.516 . S
C2403 C2404 1.502 . S
C2403 C2405 1.561 . S
C2403 C2406 1.526 . S
C2404 H2388 0.959 . S
C2404 H2389 0.959 . S
C2404 H2390 0.961 . S
C2404 C2403 1.502 . S
C2405 H2391 0.960 . S
C2405 H2392 0.961 . S
C2405 H2393 0.959 . S
C2405 C2403 1.561 . S
C2406 C2403 1.526 . S
C2406 C2407 1.396 . S
C2406 C2411 1.390 . S
C2407 C2401 1.465 . S
C2407 C2406 1.396 . S
C2407 C2408 1.399 . S
C2408 H2394 0.929 . S
C2408 C2407 1.399 . S
C2408 C2409 1.385 . S
C2409 H2395 0.931 . S
C2409 C2408 1.385 . S
C2409 C2410 1.389 . S
C2410 C2409 1.389 . S
C2410 C2411 1.387 . S
C2411 H2396 0.930 . S
C2411 C2406 1.390 . S
C2411 C2410 1.387 . S
C481 C4 1.893 . S
C493 C153 1.891 . S
C508 C127 1.902 . S
C520 C17 1.900 . S
C535 C134 1.894 . S
C547 C30 1.898 . S
C562 C49 1.904 . S
C574 C95 1.902 . S
C589 C56 1.902 . S
C601 C108 1.900 . S
C616 C69 1.897 . S
C628 C88 1.900 . S
C643 C160 1.895 . S
C655 C303 1.898 . S
C670 C277 1.891 . S
C682 C173 1.894 . S
C697 C186 1.885 . S
C709 C290 1.887 . S
C724 C205 1.904 . S
C736 C257 1.903 . S
C751 C218 1.887 . S
C763 C264 1.890 . S
C778 C225 1.897 . S
C790 C244 1.900 . S
C805 C316 1.895 . S
C817 C465 1.892 . S
C832 C329 1.885 . S
C844 C433 1.885 . S
C859 C452 1.889 . S
C871 C342 1.892 . S
C886 C361 1.904 . S
C898 C413 1.903 . S
C913 C420 1.895 . S
C925 C368 1.899 . S
C940 C400 1.885 . S
C952 C381 1.886 . S
C967 C3 1.277 . S
C979 C200 1.278 . S
C994 C16 1.292 . S
C1006 C213 1.251 . S
C1021 C29 1.292 . S
C1033 C224 1.249 . S
C1048 C44 1.249 . S
C1060 C315 1.292 . S
C1075 C328 1.268 . S
C1087 C55 1.251 . S
C1102 C341 1.277 . S
C1114 C68 1.247 . S
C1129 C83 1.248 . S
C1141 C432 1.284 . S
C1156 C447 1.265 . S
C1168 C94 1.292 . S
C1183 C107 1.287 . S
C1195 C460 1.282 . S
C1210 C122 1.287 . S
C1222 C239 1.282 . S
C1237 C133 1.287 . S
C1249 C252 1.281 . S
C1264 C148 1.292 . S
C1276 C263 1.259 . S
C1291 C356 1.254 . S
C1303 C159 1.293 . S
C1318 C172 1.292 . S
C1330 C367 1.250 1_545 S
C1345 C185 1.279 1_455 S
C1357 C380 1.245 . S
C1372 C395 1.255 . S
C1384 C276 1.290 . S
C1399 C408 1.260 1_545 S
C1411 C289 1.292 . S
C1426 C302 1.246 1_455 S
C1438 C419 1.263 . S
C1453 C10 1.367 . S
C1465 C62 1.363 . S
C1480 C75 1.391 . S
C1492 C23 1.401 . S
C1507 C43 1.360 . S
C1519 C36 1.384 . S
C1534 C82 1.396 . S
C1546 C140 1.381 . S
C1561 C147 1.395 . S
C1573 C101 1.380 . S
C1588 C114 1.390 . S
C1600 C121 1.401 . S
C1615 C212 1.389 . S
C1627 C166 1.363 . S
C1642 C179 1.388 . S
C1654 C231 1.362 . S
C1669 C192 1.398 . S
C1681 C199 1.398 . S
C1696 C296 1.360 . S
C1708 C238 1.361 . S
C1723 C309 1.368 . S
C1735 C251 1.385 . S
C1750 C283 1.378 . S
C1762 C270 1.364 . S
C1777 C322 1.397 . S
C1789 C374 1.398 . S
C1804 C335 1.387 . S
C1816 C387 1.362 . S
C1831 C348 1.402 . S
C1843 C355 1.382 . S
C1858 C446 1.359 . S
C1870 C394 1.365 . S
C1885 C459 1.367 . S
C1897 C407 1.383 . S
C1912 C439 1.373 . S
C1924 C426 1.361 . S
C1939 C120 1.512 . S
C1951 C5 1.512 . S
C1966 C135 1.499 . S
C1978 C18 1.497 . S
C1993 C31 1.501 . S
C2005 C146 1.504 . S
C2020 C42 1.502 . S
C2032 C81 1.500 . S
C2047 C96 1.507 . S
C2059 C57 1.509 . S
C2074 C70 1.503 . S
C2086 C109 1.506 . S
C2101 C278 1.512 . S
C2113 C161 1.513 . S
C2128 C291 1.512 . S
C2140 C174 1.513 . S
C2155 C187 1.503 . S
C2167 C304 1.501 . S
C2182 C237 1.512 . S
C2194 C198 1.511 . S
C2209 C250 1.505 . S
C2221 C211 1.502 . S
C2236 C265 1.512 . S
C2248 C226 1.512 . S
C2263 C317 1.508 . S
C2275 C434 1.510 . S
C2290 C445 1.510 . S
C2302 C330 1.511 . S
C2317 C343 1.502 . S
C2329 C458 1.506 . S
C2344 C354 1.495 . S
C2356 C393 1.498 . S
C2371 C369 1.511 . S
C2383 C406 1.512 . S
C2398 C421 1.512 . S
C2410 C382 1.512 . S
