# Generated by pormake.
# Topology acs-a, (4)-cn, num edge types: 1
# Building blocks:
#     Node 0, Type 0, BuildingBlock: NAHDIM_clean_sbu_0, # of connection points: 4
#     Node 1, Type 0, BuildingBlock: NAHDIM_clean_sbu_0, # of connection points: 4
#     Node 2, Type 0, BuildingBlock: NAHDIM_clean_sbu_0, # of connection points: 4
#     Node 3, Type 0, BuildingBlock: NAHDIM_clean_sbu_0, # of connection points: 4
#     Node 4, Type 0, BuildingBlock: NAHDIM_clean_sbu_0, # of connection points: 4
#     Node 5, Type 0, BuildingBlock: NAHDIM_clean_sbu_0, # of connection points: 4
#     Node 6, Type 0, BuildingBlock: NAHDIM_clean_sbu_0, # of connection points: 4
#     Node 7, Type 0, BuildingBlock: NAHDIM_clean_sbu_0, # of connection points: 4
#     Node 8, Type 0, BuildingBlock: NAHDIM_clean_sbu_0, # of connection points: 4
#     Node 9, Type 0, BuildingBlock: NAHDIM_clean_sbu_0, # of connection points: 4
#     Node 10, Type 0, BuildingBlock: NAHDIM_clean_sbu_0, # of connection points: 4
#     Node 11, Type 0, BuildingBlock: NAHDIM_clean_sbu_0, # of connection points: 4
#     Edge 12, Type (0, 0), BuildingBlock: TEMPAE_clean_linker_10, # of connection points: 2
#     Edge 13, Type (0, 0), BuildingBlock: TEMPAE_clean_linker_10, # of connection points: 2
#     Edge 14, Type (0, 0), BuildingBlock: TEMPAE_clean_linker_10, # of connection points: 2
#     Edge 15, Type (0, 0), BuildingBlock: TEMPAE_clean_linker_10, # of connection points: 2
#     Edge 16, Type (0, 0), BuildingBlock: TEMPAE_clean_linker_10, # of connection points: 2
#     Edge 17, Type (0, 0), BuildingBlock: TEMPAE_clean_linker_10, # of connection points: 2
#     Edge 18, Type (0, 0), BuildingBlock: TEMPAE_clean_linker_10, # of connection points: 2
#     Edge 19, Type (0, 0), BuildingBlock: TEMPAE_clean_linker_10, # of connection points: 2
#     Edge 20, Type (0, 0), BuildingBlock: TEMPAE_clean_linker_10, # of connection points: 2
#     Edge 21, Type (0, 0), BuildingBlock: TEMPAE_clean_linker_10, # of connection points: 2
#     Edge 22, Type (0, 0), BuildingBlock: TEMPAE_clean_linker_10, # of connection points: 2
#     Edge 23, Type (0, 0), BuildingBlock: TEMPAE_clean_linker_10, # of connection points: 2
#     Edge 24, Type (0, 0), BuildingBlock: TEMPAE_clean_linker_10, # of connection points: 2
#     Edge 25, Type (0, 0), BuildingBlock: TEMPAE_clean_linker_10, # of connection points: 2
#     Edge 26, Type (0, 0), BuildingBlock: TEMPAE_clean_linker_10, # of connection points: 2
#     Edge 27, Type (0, 0), BuildingBlock: TEMPAE_clean_linker_10, # of connection points: 2
#     Edge 28, Type (0, 0), BuildingBlock: TEMPAE_clean_linker_10, # of connection points: 2
#     Edge 29, Type (0, 0), BuildingBlock: TEMPAE_clean_linker_10, # of connection points: 2
#     Edge 30, Type (0, 0), BuildingBlock: TEMPAE_clean_linker_10, # of connection points: 2
#     Edge 31, Type (0, 0), BuildingBlock: TEMPAE_clean_linker_10, # of connection points: 2
#     Edge 32, Type (0, 0), BuildingBlock: TEMPAE_clean_linker_10, # of connection points: 2
#     Edge 33, Type (0, 0), BuildingBlock: TEMPAE_clean_linker_10, # of connection points: 2
#     Edge 34, Type (0, 0), BuildingBlock: TEMPAE_clean_linker_10, # of connection points: 2
#     Edge 35, Type (0, 0), BuildingBlock: TEMPAE_clean_linker_10, # of connection points: 2
# Relax obj value: 0.412
# Max RMSD: 0.207
# Mean RMSD: 0.202
data_MOF--net-acs-a--node1-NAHDIM_clean_sbu_0--edge1-TEMPAE_clean_linker_10
_symmetry_space_group_name_H-M    P1
_symmetry_Int_Tables_number       1
_symmetry_cell_setting            triclinic
loop_
_symmetry_equiv_pos_as_xyz
'x, y, z'
_cell_length_a     48.442284
_cell_length_b     48.224383
_cell_length_c     43.45591
_cell_angle_alpha  90.024411
_cell_angle_beta   89.92873
_cell_angle_gamma 114.48156
loop_
_atom_site_label
_atom_site_type_symbol
_atom_site_fract_x
_atom_site_fract_y
_atom_site_fract_z
_atom_type_partial_charge
C0 C 0.63344 0.09303 0.03804 0.0
O1 O 0.64394 0.1216 0.02909 0.0
O2 O 0.62211 0.14653 0.08446 0.0
Zn3 Zn 0.64488 0.12147 0.0965 0.0
O4 O 0.63161 0.10579 0.1392 0.0
C5 C 0.70926 0.1446 0.07917 0.0
O6 O 0.70173 0.11917 0.06356 0.0
O7 O 0.63352 0.08721 0.06654 0.0
C8 C 0.63517 0.12566 0.15981 0.0
O9 O 0.64861 0.15464 0.15236 0.0
C10 C 0.59466 0.13454 0.07548 0.0
O11 O 0.58032 0.10471 0.07422 0.0
O12 O 0.68922 0.1489 0.09485 0.0
C13 C 0.47509 0.60571 0.5263 0.0
O14 O 0.45021 0.60709 0.51598 0.0
O15 O 0.41296 0.60026 0.57017 0.0
Zn16 Zn 0.45637 0.62505 0.58137 0.0
O17 O 0.46088 0.61567 0.62554 0.0
C18 C 0.44828 0.67563 0.55672 0.0
O19 O 0.43308 0.65477 0.53635 0.0
O20 O 0.48325 0.61361 0.55389 0.0
C21 C 0.44352 0.62108 0.64423 0.0
O22 O 0.4255 0.63303 0.63356 0.0
C23 C 0.39854 0.57156 0.57246 0.0
O24 O 0.41257 0.55519 0.58262 0.0
O25 O 0.46289 0.66897 0.57759 0.0
C26 C 0.91821 0.44428 0.02795 0.0
O27 O 0.92493 0.42995 0.05043 0.0
O28 O 0.84797 0.36417 0.03106 0.0
Zn29 Zn 0.85725 0.40641 0.04605 0.0
O30 O 0.86765 0.40797 0.09093 0.0
C31 C 0.80718 0.41214 0.01583 0.0
O32 O 0.82014 0.40713 0.99115 0.0
O33 O 0.89059 0.43773 0.0219 0.0
C34 C 0.8486 0.38697 0.10742 0.0
O35 O 0.82399 0.36685 0.09436 0.0
C36 C 0.86288 0.34935 0.04012 0.0
O37 O 0.88717 0.36324 0.05709 0.0
O38 O 0.81946 0.4134 0.04191 0.0
C39 C 0.37466 0.91077 0.61315 0.0
O40 O 0.38392 0.9023 0.63842 0.0
O41 O 0.35316 0.83079 0.61885 0.0
Zn42 Zn 0.32751 0.85436 0.62458 0.0
O43 O 0.32493 0.86101 0.66979 0.0
C44 C 0.28583 0.82407 0.57718 0.0
O45 O 0.30859 0.8421 0.5601 0.0
O46 O 0.34842 0.89415 0.60286 0.0
C47 C 0.31006 0.83927 0.68794 0.0
O48 O 0.29401 0.81208 0.67649 0.0
C49 C 0.37121 0.83533 0.59622 0.0
O50 O 0.37417 0.85671 0.57612 0.0
O51 O 0.2874 0.82782 0.60618 0.0
C52 C 0.51697 0.3986 0.04817 0.0
O53 O 0.53528 0.40808 0.07188 0.0
O54 O 0.57507 0.36205 0.03986 0.0
Zn55 Zn 0.53299 0.34919 0.05698 0.0
O56 O 0.53626 0.35685 0.10284 0.0
C57 C 0.51958 0.29225 0.02756 0.0
O58 O 0.53373 0.31034 0.00463 0.0
O59 O 0.51152 0.37251 0.03682 0.0
C60 C 0.56083 0.37524 0.1152 0.0
O61 O 0.58455 0.38998 0.09771 0.0
C62 C 0.59178 0.38674 0.02643 0.0
O63 O 0.58168 0.40784 0.02204 0.0
O64 O 0.513 0.30379 0.05124 0.0
C65 C 0.08319 0.5316 0.54604 0.0
O66 O 0.08567 0.55693 0.55952 0.0
O67 O 0.15956 0.59226 0.54377 0.0
Zn68 Zn 0.14264 0.55318 0.56805 0.0
O69 O 0.13265 0.56418 0.61004 0.0
C70 C 0.1805 0.52148 0.55202 0.0
O71 O 0.16552 0.51549 0.5259 0.0
O72 O 0.1054 0.52413 0.54714 0.0
C73 C 0.15128 0.58925 0.62145 0.0
O74 O 0.17598 0.60571 0.60598 0.0
C75 C 0.18733 0.60567 0.53622 0.0
O76 O 0.20542 0.59207 0.54139 0.0
O77 O 0.17371 0.53614 0.57278 0.0
C78 C 0.90146 0.41576 0.41373 0.0
O79 O 0.89862 0.42734 0.38719 0.0
O80 O 0.81144 0.38561 0.41078 0.0
Zn81 Zn 0.84273 0.37074 0.39808 0.0
O82 O 0.85073 0.37957 0.35305 0.0
C83 C 0.80221 0.31015 0.38819 0.0
O84 O 0.79476 0.32412 0.36587 0.0
O85 O 0.88032 0.39115 0.42299 0.0
C86 C 0.86534 0.36859 0.33642 0.0
O87 O 0.87678 0.35094 0.34908 0.0
C88 C 0.81588 0.40978 0.42567 0.0
O89 O 0.84349 0.42787 0.43433 0.0
O90 O 0.82432 0.32569 0.40551 0.0
C91 C 0.45128 0.92663 0.95649 0.0
O92 O 0.4489 0.90538 0.93642 0.0
O93 O 0.35719 0.88089 0.99549 0.0
Zn94 Zn 0.39224 0.88362 0.96949 0.0
O95 O 0.37684 0.8788 0.92597 0.0
C96 C 0.38246 0.82189 0.98155 0.0
O97 O 0.35398 0.81787 0.97948 0.0
O98 O 0.42887 0.92275 0.9739 0.0
C99 C 0.3817 0.86191 0.90624 0.0
O100 O 0.39891 0.84785 0.91358 0.0
C101 C 0.34061 0.89298 0.98421 0.0
O102 O 0.35305 0.91553 0.9646 0.0
O103 O 0.4032 0.84869 0.97913 0.0
C104 C 0.56291 0.47767 0.41646 0.0
O105 O 0.58558 0.48828 0.39684 0.0
O106 O 0.55392 0.38119 0.42032 0.0
Zn107 Zn 0.57115 0.42425 0.40463 0.0
O108 O 0.56672 0.42273 0.35873 0.0
C109 C 0.62488 0.43814 0.44027 0.0
O110 O 0.60493 0.42483 0.46206 0.0
O111 O 0.55202 0.44963 0.42364 0.0
C112 C 0.57842 0.40705 0.34476 0.0
O113 O 0.59255 0.39387 0.36091 0.0
C114 C 0.53283 0.35962 0.40633 0.0
O115 O 0.51894 0.36615 0.38335 0.0
O116 O 0.61554 0.44187 0.41396 0.0
C117 C 0.08879 0.60155 0.90805 0.0
O118 O 0.09756 0.59409 0.8819 0.0
O119 O 0.1781 0.63892 0.92086 0.0
Zn120 Zn 0.14673 0.65182 0.90337 0.0
O121 O 0.14683 0.64545 0.85788 0.0
C122 C 0.18291 0.71454 0.89971 0.0
O123 O 0.19562 0.70404 0.87868 0.0
O124 O 0.10599 0.6261 0.92136 0.0
C125 C 0.13164 0.65241 0.83795 0.0
O126 O 0.11409 0.66565 0.84678 0.0
C127 C 0.17229 0.61165 0.9287 0.0
O128 O 0.14433 0.59083 0.92671 0.0
O129 O 0.15944 0.69592 0.9135 0.0
C130 C 0.52788 0.05205 0.46504 0.0
O131 O 0.5388 0.04041 0.44336 0.0
O132 O 0.60439 0.13196 0.44982 0.0
Zn133 Zn 0.56163 0.11055 0.43495 0.0
O134 O 0.56349 0.09249 0.39378 0.0
C135 C 0.56102 0.16592 0.41333 0.0
O136 O 0.58569 0.16738 0.3994 0.0
O137 O 0.5352 0.08052 0.46552 0.0
C138 C 0.54634 0.09169 0.37141 0.0
O139 O 0.52388 0.09978 0.37605 0.0
C140 C 0.62496 0.12357 0.44166 0.0
O141 O 0.61722 0.09777 0.42666 0.0
O142 O 0.54596 0.14278 0.42976 0.0
C143 C 0.4501 0.54897 0.94805 0.0
O144 O 0.4671 0.5666 0.92613 0.0
O145 O 0.42611 0.62094 0.94952 0.0
Zn146 Zn 0.41242 0.57892 0.93131 0.0
O147 O 0.42738 0.58301 0.88767 0.0
C148 C 0.35453 0.56633 0.95568 0.0
O149 O 0.37099 0.57506 0.98079 0.0
O150 O 0.42553 0.55089 0.95525 0.0
C151 C 0.41395 0.56284 0.86753 0.0
O152 O 0.39056 0.53793 0.87579 0.0
C153 C 0.41965 0.63845 0.93189 0.0
O154 O 0.40832 0.62836 0.90457 0.0
O155 O 0.36715 0.56348 0.93096 0.0
C156 C 0.58229 0.08387 0.33474 0.0
C157 C 0.55554 0.08791 0.33973 0.0
C158 C 0.59446 0.08596 0.30509 0.0
C159 C 0.57946 0.09211 0.27984 0.0
C160 C 0.55133 0.09398 0.28441 0.0
C161 C 0.53969 0.09186 0.31434 0.0
C162 C 0.62442 0.08367 0.30115 0.0
C163 C 0.53451 0.10023 0.25799 0.0
C164 C 0.62733 0.13875 0.21371 0.0
C165 C 0.62234 0.11653 0.19102 0.0
C166 C 0.61385 0.13094 0.24282 0.0
C167 C 0.59481 0.10012 0.24942 0.0
C168 C 0.59013 0.07744 0.22687 0.0
C169 C 0.604 0.08591 0.1979 0.0
C170 C 0.6196 0.15579 0.26637 0.0
C171 C 0.57001 0.04437 0.23315 0.0
H172 H 0.5946 0.08058 0.35419 0.0
H173 H 0.51891 0.09478 0.31793 0.0
H174 H 0.6234 0.0685 0.28158 0.0
H175 H 0.64239 0.10654 0.29585 0.0
H176 H 0.63113 0.07494 0.3222 0.0
H177 H 0.51136 0.09742 0.26472 0.0
H178 H 0.54734 0.12394 0.24976 0.0
H179 H 0.53264 0.0848 0.2384 0.0
H180 H 0.64155 0.16243 0.20865 0.0
H181 H 0.6 0.06859 0.18047 0.0
H182 H 0.6291 0.15057 0.28769 0.0
H183 H 0.5979 0.15698 0.27264 0.0
H184 H 0.63556 0.17852 0.25783 0.0
H185 H 0.57777 0.03659 0.25413 0.0
H186 H 0.56974 0.02935 0.21365 0.0
H187 H 0.54646 0.04165 0.23754 0.0
C188 C 0.45903 0.59705 0.68822 0.0
C189 C 0.4423 0.61271 0.67711 0.0
C190 C 0.45683 0.5879 0.71915 0.0
C191 C 0.43751 0.59466 0.73935 0.0
C192 C 0.42093 0.61085 0.72835 0.0
C193 C 0.42351 0.61965 0.69739 0.0
C194 C 0.47486 0.57071 0.73013 0.0
C195 C 0.40018 0.6186 0.74923 0.0
C196 C 0.40503 0.54894 0.81181 0.0
C197 C 0.42238 0.56912 0.8347 0.0
C198 C 0.41061 0.55637 0.78052 0.0
C199 C 0.43413 0.58461 0.77198 0.0
C200 C 0.4527 0.60438 0.79491 0.0
C201 C 0.44659 0.59641 0.826 0.0
C202 C 0.39039 0.53465 0.75669 0.0
C203 C 0.47809 0.63463 0.78668 0.0
H204 H 0.47357 0.59158 0.67267 0.0
H205 H 0.41057 0.6318 0.68903 0.0
H206 H 0.48944 0.5828 0.74982 0.0
H207 H 0.45923 0.5478 0.73844 0.0
H208 H 0.48945 0.56794 0.71172 0.0
H209 H 0.38923 0.63171 0.73717 0.0
H210 H 0.38216 0.59739 0.75853 0.0
H211 H 0.41313 0.6322 0.76912 0.0
H212 H 0.38638 0.52774 0.81831 0.0
H213 H 0.46027 0.61206 0.84353 0.0
H214 H 0.40426 0.53034 0.73854 0.0
H215 H 0.37642 0.545 0.74535 0.0
H216 H 0.37496 0.51249 0.76688 0.0
H217 H 0.49289 0.63155 0.76874 0.0
H218 H 0.49225 0.64598 0.80693 0.0
H219 H 0.46843 0.64999 0.77702 0.0
C220 C 0.88003 0.40626 0.15496 0.0
C221 C 0.85388 0.38493 0.1407 0.0
C222 C 0.88478 0.40472 0.18667 0.0
C223 C 0.86282 0.38135 0.20445 0.0
C224 C 0.83666 0.35947 0.19007 0.0
C225 C 0.83253 0.36151 0.15838 0.0
C226 C 0.91299 0.42837 0.20124 0.0
C227 C 0.8127 0.33421 0.20827 0.0
C228 C 0.88075 0.35968 0.28354 0.0
C229 C 0.86727 0.37392 0.30279 0.0
C230 C 0.88044 0.36275 0.25142 0.0
C231 C 0.86629 0.38042 0.23834 0.0
C232 C 0.85361 0.3957 0.2577 0.0
C233 C 0.85428 0.39229 0.28966 0.0
C234 C 0.89432 0.34625 0.23145 0.0
C235 C 0.83834 0.41478 0.24462 0.0
H236 H 0.89671 0.42433 0.14141 0.0
H237 H 0.81233 0.34483 0.14753 0.0
H238 H 0.90661 0.44199 0.21811 0.0
H239 H 0.92532 0.41713 0.21406 0.0
H240 H 0.9286 0.44411 0.18398 0.0
H241 H 0.79424 0.31837 0.19341 0.0
H242 H 0.82306 0.32093 0.22089 0.0
H243 H 0.80257 0.34409 0.22565 0.0
H244 H 0.89093 0.34556 0.29349 0.0
H245 H 0.84396 0.40354 0.30435 0.0
H246 H 0.91037 0.36224 0.2147 0.0
H247 H 0.87626 0.32825 0.21802 0.0
H248 H 0.90656 0.33548 0.24518 0.0
H249 H 0.85382 0.43205 0.22846 0.0
H250 H 0.83125 0.42667 0.26282 0.0
H251 H 0.81795 0.40004 0.23137 0.0
C252 C 0.37798 0.84487 0.85161 0.0
C253 C 0.36777 0.85785 0.87541 0.0
C254 C 0.36548 0.8415 0.82204 0.0
C255 C 0.34186 0.8509 0.81631 0.0
C256 C 0.33082 0.86319 0.84049 0.0
C257 C 0.34415 0.86683 0.86971 0.0
C258 C 0.37806 0.82855 0.79676 0.0
C259 C 0.30518 0.87274 0.83542 0.0
C260 C 0.33655 0.87113 0.73311 0.0
C261 C 0.31469 0.84363 0.72157 0.0
C262 C 0.34458 0.87425 0.76429 0.0
C263 C 0.33016 0.84939 0.7845 0.0
C264 C 0.30667 0.82226 0.77346 0.0
C265 C 0.29931 0.81963 0.74202 0.0
C266 C 0.36977 0.90356 0.77519 0.0
C267 C 0.29041 0.79548 0.79449 0.0
H268 H 0.3962 0.83787 0.85589 0.0
H269 H 0.33594 0.87657 0.88816 0.0
H270 H 0.35962 0.80838 0.78632 0.0
H271 H 0.38785 0.84574 0.77827 0.0
H272 H 0.39595 0.82168 0.8052 0.0
H273 H 0.29845 0.88074 0.85695 0.0
H274 H 0.31197 0.89134 0.81816 0.0
H275 H 0.2851 0.85336 0.82609 0.0
H276 H 0.34844 0.88987 0.71754 0.0
H277 H 0.2822 0.79839 0.73334 0.0
H278 H 0.38967 0.89916 0.782 0.0
H279 H 0.36244 0.91236 0.79577 0.0
H280 H 0.37706 0.92149 0.75715 0.0
H281 H 0.306 0.78485 0.80086 0.0
H282 H 0.27 0.77787 0.78344 0.0
H283 H 0.28345 0.80305 0.81611 0.0
C284 C 0.56256 0.41867 0.29332 0.0
C285 C 0.57537 0.40274 0.31107 0.0
C286 C 0.55954 0.41461 0.26133 0.0
C287 C 0.56942 0.39401 0.24686 0.0
C288 C 0.58219 0.37773 0.26467 0.0
C289 C 0.58509 0.38237 0.29656 0.0
C290 C 0.54595 0.43245 0.243 0.0
C291 C 0.59282 0.35545 0.25004 0.0
C292 C 0.5385 0.36262 0.16803 0.0
C293 C 0.56267 0.38036 0.14882 0.0
C294 C 0.54029 0.36696 0.20002 0.0
C295 C 0.56678 0.3897 0.213 0.0
C296 C 0.59109 0.40791 0.19372 0.0
C297 C 0.58878 0.40295 0.16185 0.0
C298 C 0.51399 0.347 0.21994 0.0
C299 C 0.61965 0.43247 0.20677 0.0
H300 H 0.55501 0.43446 0.3044 0.0
H301 H 0.59488 0.36985 0.31013 0.0
H302 H 0.5625 0.44672 0.22558 0.0
H303 H 0.52564 0.41662 0.23037 0.0
H304 H 0.53927 0.44747 0.25776 0.0
H305 H 0.6018 0.34425 0.26723 0.0
H306 H 0.57381 0.33756 0.23751 0.0
H307 H 0.61089 0.36738 0.23295 0.0
H308 H 0.51826 0.34508 0.15813 0.0
H309 H 0.60751 0.41684 0.14716 0.0
H310 H 0.50566 0.36129 0.23381 0.0
H311 H 0.52157 0.33392 0.2363 0.0
H312 H 0.49481 0.33067 0.2062 0.0
H313 H 0.61397 0.44888 0.22037 0.0
H314 H 0.63615 0.44519 0.18854 0.0
H315 H 0.63075 0.42221 0.22262 0.0
C316 C 0.12186 0.58073 0.6706 0.0
C317 C 0.14574 0.59979 0.65183 0.0
C318 C 0.11761 0.59005 0.70016 0.0
C319 C 0.13763 0.61914 0.71104 0.0
C320 C 0.16105 0.63891 0.69174 0.0
C321 C 0.16486 0.62896 0.66239 0.0
C322 C 0.09241 0.56835 0.72016 0.0
C323 C 0.18277 0.67016 0.70247 0.0
C324 C 0.11663 0.6516 0.78259 0.0
C325 C 0.13314 0.64441 0.80531 0.0
C326 C 0.11778 0.64351 0.7517 0.0
C327 C 0.13581 0.62785 0.7435 0.0
C328 C 0.15253 0.6206 0.76633 0.0
C329 C 0.15102 0.629 0.7969 0.0
C330 C 0.09978 0.65169 0.72785 0.0
C331 C 0.17204 0.60393 0.75849 0.0
H332 H 0.10691 0.55822 0.66252 0.0
H333 H 0.18317 0.64398 0.64788 0.0
H334 H 0.10226 0.56131 0.74012 0.0
H335 H 0.07846 0.57978 0.72941 0.0
H336 H 0.07738 0.54757 0.70746 0.0
H337 H 0.19793 0.68376 0.6837 0.0
H338 H 0.17008 0.68292 0.71172 0.0
H339 H 0.19703 0.66786 0.7214 0.0
H340 H 0.10277 0.6635 0.78891 0.0
H341 H 0.16386 0.6233 0.81428 0.0
H342 H 0.08359 0.63076 0.71628 0.0
H343 H 0.11521 0.66634 0.70985 0.0
H344 H 0.08687 0.66388 0.73798 0.0
H345 H 0.15798 0.58166 0.74771 0.0
H346 H 0.18344 0.59981 0.77904 0.0
H347 H 0.18968 0.61729 0.74153 0.0
C348 C 0.604 0.07518 0.98944 0.0
C349 C 0.61494 0.06835 0.01697 0.0
C350 C 0.58025 0.05248 0.97338 0.0
C351 C 0.56742 0.02246 0.9852 0.0
C352 C 0.58067 0.01487 0.01104 0.0
C353 C 0.60432 0.03797 0.02665 0.0
C354 C 0.56708 0.0613 0.94555 0.0
C355 C 0.56795 0.98296 0.02405 0.0
C356 C 0.48281 0.97585 0.98213 0.0
C357 C 0.4805 0.95322 0.96079 0.0
C358 C 0.51093 -0.00056 0.98905 0.0
C359 C 0.53738 0.00038 0.97428 0.0
C360 C 0.53504 0.97862 0.95145 0.0
C361 C 0.50654 0.9552 0.94498 0.0
C362 C 0.51249 0.0225 0.01333 0.0
C363 C 0.56271 0.97915 0.93499 0.0
H364 H 0.61234 0.09859 0.98163 0.0
H365 H 0.61311 0.0325 0.04762 0.0
H366 H 0.5608 0.04344 0.92753 0.0
H367 H 0.54613 0.06378 0.95237 0.0
H368 H 0.58318 0.08329 0.93557 0.0
H369 H 0.5833 0.97994 0.04141 0.0
H370 H 0.5458 0.97805 0.03524 0.0
H371 H 0.56391 0.96596 0.00546 0.0
H372 H 0.46273 0.97466 0.99415 0.0
H373 H 0.50489 0.93789 0.92827 0.0
H374 H 0.52484 0.04598 0.00435 0.0
H375 H 0.52521 0.02005 0.0336 0.0
H376 H 0.48964 0.01975 0.02111 0.0
H377 H 0.57777 0.00264 0.92772 0.0
H378 H 0.55658 0.9641 0.91444 0.0
H379 H 0.57588 0.97128 0.9509 0.0
C380 C 0.47978 0.57939 0.47838 0.0
C381 C 0.49113 0.59155 0.50738 0.0
C382 C 0.49255 0.56271 0.46171 0.0
C383 C 0.51727 0.55819 0.47434 0.0
C384 C 0.52975 0.57163 0.50291 0.0
C385 C 0.51651 0.58816 0.51911 0.0
C386 C 0.47871 0.54878 0.43125 0.0
C387 C 0.55626 0.56743 0.51699 0.0
C388 C 0.52693 0.48684 0.45189 0.0
C389 C 0.5508 0.49822 0.43061 0.0
C390 C 0.51569 0.50614 0.46609 0.0
C391 C 0.52865 0.53757 0.45883 0.0
C392 C 0.55254 0.5492 0.43716 0.0
C393 C 0.56335 0.52936 0.42328 0.0
C394 C 0.4901 0.49291 0.48907 0.0
C395 C 0.56682 0.58261 0.42886 0.0
H396 H 0.46026 0.58202 0.46908 0.0
H397 H 0.52553 0.59764 0.54142 0.0
H398 H 0.49653 0.55454 0.4133 0.0
H399 H 0.46792 0.52358 0.43338 0.0
H400 H 0.46128 0.55658 0.42342 0.0
H401 H 0.5648 0.58137 0.5381 0.0
H402 H 0.54929 0.54311 0.52304 0.0
H403 H 0.57513 0.57366 0.50018 0.0
H404 H 0.51708 0.4628 0.45764 0.0
H405 H 0.58179 0.53832 0.40683 0.0
H406 H 0.47057 0.49767 0.4817 0.0
H407 H 0.49755 0.50386 0.51184 0.0
H408 H 0.48226 0.4679 0.49182 0.0
H409 H 0.54927 0.58977 0.42012 0.0
H410 H 0.58482 0.58791 0.41111 0.0
H411 H 0.57689 0.59643 0.44966 0.0
C412 C 0.05183 0.58777 0.95161 0.0
C413 C 0.06135 0.57979 0.92379 0.0
C414 C 0.02753 0.56639 0.96823 0.0
C415 C 0.01257 0.53635 0.9568 0.0
C416 C 0.02145 0.5284 0.9283 0.0
C417 C 0.0457 0.55028 0.91206 0.0
C418 C 0.0184 0.57572 -0.00158 0.0
C419 C 0.00599 0.49652 0.91545 0.0
C420 C 0.97281 0.4731 0.01416 0.0
C421 C 0.94239 0.46791 0.00988 0.0
C422 C -0.00409 0.49536 -0.00302 0.0
C423 C 0.98834 0.5129 0.9752 0.0
C424 C 0.95772 0.5079 0.97089 0.0
C425 C 0.93507 0.48538 0.98823 0.0
C426 C 0.02838 0.5 0.00203 0.0
C427 C 0.9489 0.52635 0.94799 0.0
H428 H 0.06374 0.61059 0.96073 0.0
H429 H 0.05292 0.54395 0.89057 0.0
H430 H -0.00619 0.57033 -0.00165 0.0
H431 H 0.02247 0.56261 0.01752 0.0
H432 H 0.03122 0.60041 0.00321 0.0
H433 H 0.01478 0.49441 0.89236 0.0
H434 H 0.00942 0.48017 0.93127 0.0
H435 H 0.98119 0.48975 0.9137 0.0
H436 H 0.9786 0.45965 0.0308 0.0
H437 H 0.91159 0.48155 0.98487 0.0
H438 H 0.04225 0.52384 0.00924 0.0
H439 H 0.03816 0.49619 0.98017 0.0
H440 H 0.03042 0.48441 0.01981 0.0
H441 H 0.96061 0.55096 0.95357 0.0
H442 H 0.92405 0.51984 0.94767 0.0
H443 H 0.95622 0.52322 0.92453 0.0
C444 C 0.49294 0.04515 0.50944 0.0
C445 C 0.50606 0.03235 0.48805 0.0
C446 C 0.47145 0.02692 0.53081 0.0
C447 C 0.46296 -0.00487 0.5309 0.0
C448 C 0.47633 0.98205 0.50967 0.0
C449 C 0.49773 0.00084 0.4884 0.0
C450 C 0.45759 0.04163 0.55309 0.0
C451 C 0.46788 0.94818 0.50929 0.0
C452 C 0.42713 0.94932 0.60234 0.0
C453 C 0.3965 0.9352 0.59378 0.0
C454 C 0.44897 0.96933 0.58228 0.0
C455 C 0.43989 0.97549 0.5531 0.0
C456 C 0.40886 0.96235 0.54482 0.0
C457 C 0.3875 0.94229 0.56527 0.0
C458 C 0.48189 0.98302 0.59188 0.0
C459 C 0.39834 0.96871 0.51398 0.0
H460 H 0.49923 0.0695 0.50934 0.0
H461 H 0.5078 0.99082 0.47199 0.0
H462 H 0.43266 0.03208 0.54975 0.0
H463 H 0.46169 0.03651 0.5771 0.0
H464 H 0.46693 0.06675 0.55021 0.0
H465 H 0.48075 0.94168 0.49166 0.0
H466 H 0.47224 0.94064 0.53218 0.0
H467 H 0.44328 0.93565 0.50455 0.0
H468 H 0.43427 0.94396 0.62432 0.0
H469 H 0.36386 0.9315 0.55852 0.0
H470 H 0.49155 0.0082 0.58981 0.0
H471 H 0.49512 0.97483 0.57634 0.0
H472 H 0.48501 0.97704 0.61592 0.0
H473 H 0.40639 0.99362 0.51048 0.0
H474 H 0.37325 0.95792 0.51173 0.0
H475 H 0.40823 0.95999 0.4953 0.0
C476 C 0.43951 0.50574 0.98478 0.0
C477 C 0.45877 0.52621 0.96307 0.0
C478 C 0.44724 0.48366 -0.00133 0.0
C479 C 0.4749 0.48212 0.99074 0.0
C480 C 0.49439 0.50264 0.96881 0.0
C481 C 0.48608 0.52442 0.95522 0.0
C482 C 0.42591 0.46214 0.02198 0.0
C483 C 0.52418 0.50178 0.9599 0.0
C484 C 0.51144 0.44773 0.04717 0.0
C485 C 0.50462 0.41901 0.03412 0.0
C486 C 0.50144 0.46823 0.03355 0.0
C487 C 0.48413 0.45983 0.00621 0.0
C488 C 0.47656 0.43064 0.99323 0.0
C489 C 0.48693 0.41054 0.00735 0.0
C490 C 0.50996 0.49916 0.04809 0.0
C491 C 0.45803 0.42091 0.96412 0.0
H492 H 0.41831 0.50688 0.99088 0.0
H493 H 0.50106 0.54011 0.93844 0.0
H494 H 0.41958 0.43819 0.0148 0.0
H495 H 0.4374 0.46523 0.0446 0.0
H496 H 0.40486 0.46576 0.02495 0.0
H497 H 0.53643 0.51889 0.94197 0.0
H498 H 0.53899 0.50616 0.98043 0.0
H499 H 0.52021 0.47882 0.95115 0.0
H500 H 0.52501 0.45446 0.06792 0.0
H501 H 0.48153 0.38837 -0.00283 0.0
H502 H 0.48928 0.50293 0.05288 0.0
H503 H 0.52417 0.51726 0.03193 0.0
H504 H 0.52269 0.50176 0.06994 0.0
H505 H 0.4363 0.42319 0.96695 0.0
H506 H 0.45298 0.39699 0.95772 0.0
H507 H 0.47046 0.43602 0.94484 0.0
C508 C 0.95273 0.45766 0.42232 0.0
C509 C 0.92821 0.43184 0.43336 0.0
C510 C 0.97796 0.47349 0.441 0.0
C511 C 0.97851 0.4633 0.47143 0.0
C512 C 0.95388 0.43723 0.4827 0.0
C513 C 0.92905 0.42173 0.46346 0.0
C514 C 0.00397 0.50115 0.42822 0.0
C515 C 0.95368 0.42587 0.51512 0.0
C516 C 0.05491 0.48851 0.51045 0.0
C517 C 0.0558 0.51317 0.52819 0.0
C518 C 0.02973 0.47189 0.49204 0.0
C519 C 0.00486 0.48005 0.49154 0.0
C520 C 0.00534 0.5045 0.50986 0.0
C521 C 0.03088 0.52085 0.52794 0.0
C522 C 0.02997 0.44594 0.47271 0.0
C523 C 0.97905 0.51365 0.51004 0.0
H524 H 0.95224 0.46554 0.39906 0.0
H525 H 0.91011 0.40184 0.47219 0.0
H526 H 0.00728 0.52148 0.4423 0.0
H527 H 0.0253 0.49787 0.42945 0.0
H528 H 0.00015 0.50585 0.40394 0.0
H529 H 0.93276 0.40519 0.52031 0.0
H530 H 0.97358 0.42047 0.51872 0.0
H531 H 0.95553 0.44393 0.53186 0.0
H532 H 0.07412 0.48248 0.51052 0.0
H533 H 0.03139 0.53982 0.54168 0.0
H534 H 0.02827 0.45074 0.44798 0.0
H535 H 0.01001 0.42458 0.47837 0.0
H536 H 0.05085 0.44214 0.47619 0.0
H537 H 0.97569 0.52087 0.48663 0.0
H538 H 0.98262 0.5326 0.52632 0.0
H539 H 0.95783 0.49388 0.51648 0.0
C540 C 0.54995 0.14138 0.0536 0.0
C541 C 0.57922 0.15411 0.06631 0.0
C542 C 0.53527 0.1599 0.04482 0.0
C543 C 0.55016 0.19181 0.04902 0.0
C544 C 0.57971 0.20475 0.06178 0.0
C545 C 0.59387 0.18576 0.07019 0.0
C546 C 0.50387 0.14536 0.0311 0.0
C547 C 0.59641 0.23872 0.06669 0.0
C548 C 0.53315 0.25127 0.00644 0.0
C549 C 0.51979 0.26165 0.02983 0.0
C550 C 0.54092 0.22665 0.01145 0.0
C551 C 0.53517 0.21211 0.04053 0.0
C552 C 0.51894 0.2205 0.06309 0.0
C553 C 0.51134 0.24512 0.05743 0.0
C554 C 0.55775 0.21808 0.98659 0.0
C555 C 0.5121 0.2054 0.09431 0.0
H556 H 0.53853 0.11693 0.05039 0.0
H557 H 0.61646 0.19581 0.08 0.0
H558 H 0.48767 0.15034 0.0457 0.0
H559 H 0.50376 0.15517 0.00804 0.0
H560 H 0.49563 0.12026 0.02881 0.0
H561 H 0.61925 0.24511 0.07688 0.0
H562 H 0.59907 0.25085 0.04444 0.0
H563 H 0.5831 0.24685 0.08218 0.0
H564 H 0.53943 0.26363 0.98487 0.0
H565 H 0.50067 0.25269 0.07554 0.0
H566 H 0.54914 0.19296 0.98451 0.0
H567 H 0.58214 0.227 0.99272 0.0
H568 H 0.55578 0.22764 0.96386 0.0
H569 H 0.50319 0.18028 0.09204 0.0
H570 H 0.49541 0.21111 0.10734 0.0
H571 H 0.53336 0.21311 0.10791 0.0
C572 C 0.34805 0.5264 0.57124 0.0
C573 C 0.36563 0.5575 0.56588 0.0
C574 C 0.31636 0.51386 0.5676 0.0
C575 C 0.30212 0.53298 0.55868 0.0
C576 C 0.31994 0.56406 0.55198 0.0
C577 C 0.35141 0.57586 0.55555 0.0
C578 C 0.2981 0.48054 0.57454 0.0
C579 C 0.30568 0.58528 0.54237 0.0
C580 C 0.2222 0.50988 0.5296 0.0
C581 C 0.20874 0.51694 0.55527 0.0
C582 C 0.25203 0.51216 0.53107 0.0
C583 C 0.26859 0.52178 0.5588 0.0
C584 C 0.25403 0.52595 0.58552 0.0
C585 C 0.22424 0.52343 0.58344 0.0
C586 C 0.26662 0.50691 0.50226 0.0
C587 C 0.27078 0.53596 0.61563 0.0
H588 H 0.35889 0.51203 0.57904 0.0
H589 H 0.36482 0.59986 0.55104 0.0
H590 H 0.28615 0.47822 0.59683 0.0
H591 H 0.28058 0.46982 0.55664 0.0
H592 H 0.31264 0.46783 0.57608 0.0
H593 H 0.32287 0.60846 0.53656 0.0
H594 H 0.29086 0.57594 0.52207 0.0
H595 H 0.29124 0.58734 0.5613 0.0
H596 H 0.21023 0.50446 0.50783 0.0
H597 H 0.21378 0.52835 0.60354 0.0
H598 H 0.28089 0.49452 0.50758 0.0
H599 H 0.28159 0.52921 0.4921 0.0
H600 H 0.24944 0.49381 0.48477 0.0
H601 H 0.28367 0.5222 0.62102 0.0
H602 H 0.25519 0.53404 0.63509 0.0
H603 H 0.28736 0.56011 0.61374 0.0
C604 C 0.85978 0.29822 0.05585 0.0
C605 C 0.84864 0.31571 0.03819 0.0
C606 C 0.84227 0.26697 0.06047 0.0
C607 C 0.813 0.25317 0.04728 0.0
C608 C 0.80316 0.27 0.02675 0.0
C609 C 0.82118 0.30107 0.02235 0.0
C610 C 0.85394 0.24953 0.08172 0.0
C611 C 0.77222 0.25606 0.01188 0.0
C612 C 0.75883 0.16965 0.05119 0.0
C613 C 0.73921 0.17029 0.0747 0.0
C614 C 0.78456 0.19605 0.04329 0.0
C615 C 0.79047 0.22357 0.05915 0.0
C616 C 0.77206 0.22364 0.08446 0.0
C617 C 0.74676 0.19698 0.09198 0.0
C618 C 0.8041 0.19489 0.0167 0.0
C619 C 0.77772 0.25245 0.10225 0.0
H620 H 0.88123 0.30925 0.0678 0.0
H621 H 0.81268 0.3143 0.00816 0.0
H622 H 0.84378 0.24812 0.10488 0.0
H623 H 0.84744 0.22591 0.07336 0.0
H624 H 0.87901 0.26091 0.08409 0.0
H625 H 0.76957 0.27095 0.99368 0.0
H626 H 0.76808 0.23364 0.00158 0.0
H627 H 0.75453 0.2522 0.02965 0.0
H628 H 0.75333 0.14902 0.0379 0.0
H629 H 0.73201 0.19753 0.11054 0.0
H630 H 0.82844 0.20915 0.0213 0.0
H631 H 0.7977 0.20399 -0.00424 0.0
H632 H 0.80112 0.1712 0.0118 0.0
H633 H 0.80163 0.26337 0.11006 0.0
H634 H 0.76271 0.24811 0.12269 0.0
H635 H 0.77373 0.26893 0.08707 0.0
C636 C 0.37748 0.78741 0.60686 0.0
C637 C 0.38703 0.81527 0.59125 0.0
C638 C 0.3906 0.76701 0.60058 0.0
C639 C 0.41414 0.77487 0.57847 0.0
C640 C 0.42465 0.80344 0.56346 0.0
C641 C 0.4108 0.82324 0.56987 0.0
C642 C 0.37851 0.73657 0.61681 0.0
C643 C 0.44997 0.81275 0.54007 0.0
C644 C 0.4584 0.72589 0.5814 0.0
C645 C 0.44333 0.70386 0.55899 0.0
C646 C 0.45026 0.75022 0.58693 0.0
C647 C 0.42629 0.75226 0.56988 0.0
C648 C 0.4121 0.731 0.54617 0.0
C649 C 0.42096 0.7072 0.54086 0.0
C650 C 0.46624 0.7728 0.61204 0.0
C651 C 0.3863 0.73229 0.52761 0.0
H652 H 0.35905 0.78107 0.62333 0.0
H653 H 0.41842 0.84486 0.55789 0.0
H654 H 0.36845 0.71797 0.59973 0.0
H655 H 0.39725 0.73317 0.62843 0.0
H656 H 0.36093 0.73446 0.63422 0.0
H657 H 0.45722 0.83672 0.53241 0.0
H658 H 0.46987 0.81005 0.54982 0.0
H659 H 0.44242 0.79768 0.51964 0.0
H660 H 0.47584 0.72357 0.59538 0.0
H661 H 0.40921 0.69033 0.52345 0.0
H662 H 0.45051 0.76941 0.63168 0.0
H663 H 0.47309 0.79646 0.60365 0.0
H664 H 0.48669 0.77027 0.62055 0.0
H665 H 0.36644 0.72757 0.54283 0.0
H666 H 0.37923 0.71547 0.50851 0.0
H667 H 0.39286 0.75539 0.5178 0.0
C668 C 0.64491 0.42178 0.01156 0.0
C669 C 0.62344 0.39241 0.01884 0.0
C670 C 0.67567 0.42772 0.00778 0.0
C671 C 0.68499 0.40368 0.0113 0.0
C672 C 0.66316 0.37374 0.01715 0.0
C673 C 0.63268 0.36849 0.02086 0.0
C674 C 0.69833 0.4599 0.00141 0.0
C675 C 0.67213 0.34742 0.02086 0.0
C676 C 0.76185 0.40877 0.98565 0.0
C677 C 0.77726 0.4135 0.01382 0.0
C678 C 0.73219 0.40696 0.98414 0.0
C679 C 0.71769 0.40992 0.01145 0.0
C680 C 0.73366 0.41612 0.03968 0.0
C681 C 0.76324 0.41785 0.04052 0.0
C682 C 0.7159 0.40048 0.9536 0.0
C683 C 0.71899 0.4195 0.06931 0.0
H684 H 0.6379 0.44036 0.0099 0.0
H685 H 0.61617 0.34563 0.02612 0.0
H686 H 0.713 0.46901 0.02188 0.0
H687 H 0.71332 0.46031 0.98193 0.0
H688 H 0.68712 0.47528 -0.00403 0.0
H689 H 0.65215 0.32522 0.02322 0.0
H690 H 0.68575 0.34614 0.00081 0.0
H691 H 0.68651 0.35104 0.04164 0.0
H692 H 0.77258 0.40555 0.96488 0.0
H693 H 0.77505 0.42175 0.06236 0.0
H694 H 0.70518 0.41651 0.94961 0.0
H695 H 0.69751 0.37713 0.95383 0.0
H696 H 0.73138 0.40226 0.93408 0.0
H697 H 0.70927 0.43651 0.06648 0.0
H698 H 0.73525 0.42665 0.08882 0.0
H699 H 0.70005 0.39745 0.07531 0.0
C700 C 0.23118 0.65644 0.53471 0.0
C701 C 0.2002 0.63875 0.5299 0.0
C702 C 0.24257 0.68824 0.53662 0.0
C703 C 0.22254 0.70265 0.53302 0.0
C704 C 0.19193 0.68515 0.52488 0.0
C705 C 0.18101 0.6533 0.5237 0.0
C706 C 0.27545 0.7061 0.54528 0.0
C707 C 0.17015 0.69978 0.51976 0.0
C708 C 0.24518 0.77178 0.58415 0.0
C709 C 0.26357 0.79501 0.56427 0.0
C710 C 0.22997 0.74177 0.57369 0.0
C711 C 0.23274 0.73498 0.54243 0.0
C712 C 0.2486 0.75882 0.52158 0.0
C713 C 0.26406 0.78862 0.5328 0.0
C714 C 0.21317 0.71698 0.59672 0.0
C715 C 0.25118 0.75261 0.4879 0.0
H716 H 0.24621 0.6454 0.5393 0.0
H717 H 0.15709 0.63974 0.5195 0.0
H718 H 0.28635 0.72584 0.52966 0.0
H719 H 0.27681 0.71517 0.56899 0.0
H720 H 0.28859 0.69193 0.54446 0.0
H721 H 0.14953 0.68437 0.50719 0.0
H722 H 0.16298 0.70534 0.54233 0.0
H723 H 0.18115 0.72136 0.50667 0.0
H724 H 0.24437 0.77654 0.60844 0.0
H725 H 0.27788 0.80652 0.51717 0.0
H726 H 0.22535 0.7021 0.59975 0.0
H727 H 0.19007 0.70248 0.58823 0.0
H728 H 0.21114 0.72632 0.61957 0.0
H729 H 0.26854 0.7434 0.4849 0.0
H730 H 0.25808 0.77368 0.47387 0.0
H731 H 0.22938 0.73538 0.47894 0.0
C732 C 0.7942 0.44495 0.44696 0.0
C733 C 0.78995 0.41756 0.43227 0.0
C734 C 0.76964 0.45275 0.45209 0.0
C735 C 0.74029 0.43267 0.44221 0.0
C736 C 0.73582 0.40473 0.42796 0.0
C737 C 0.76066 0.39753 0.42319 0.0
C738 C 0.77514 0.48263 0.46749 0.0
C739 C 0.70484 0.38261 0.41714 0.0
C740 C 0.66595 0.43163 0.47002 0.0
C741 C 0.65692 0.4431 0.44411 0.0
C742 C 0.69437 0.4304 0.47093 0.0
C743 C 0.71411 0.44093 0.44535 0.0
C744 C 0.70623 0.45508 0.42042 0.0
C745 C 0.6777 0.456 0.4201 0.0
C746 C 0.70211 0.41544 0.49809 0.0
C747 C 0.72677 0.46684 0.39282 0.0
H748 H 0.81677 0.46051 0.45413 0.0
H749 H 0.75709 0.37624 0.41198 0.0
H750 H 0.77032 0.49766 0.45106 0.0
H751 H 0.75953 0.47879 0.48732 0.0
H752 H 0.79886 0.49469 0.47574 0.0
H753 H 0.70512 0.36149 0.40725 0.0
H754 H 0.68851 0.37621 0.43659 0.0
H755 H 0.69628 0.39358 0.39936 0.0
H756 H 0.65015 0.4219 0.48883 0.0
H757 H 0.67108 0.46532 0.40018 0.0
H758 H 0.72606 0.4284 0.50513 0.0
H759 H 0.69934 0.3922 0.49149 0.0
H760 H 0.68718 0.41347 0.51816 0.0
H761 H 0.75051 0.48044 0.40013 0.0
H762 H 0.7195 0.48114 0.37767 0.0
H763 H 0.72649 0.44728 0.37915 0.0
C764 C 0.28992 0.88091 0.96052 0.0
C765 C 0.30767 0.87365 0.98184 0.0
C766 C 0.26285 0.85826 0.94917 0.0
C767 C 0.25383 0.82783 0.95912 0.0
C768 C 0.26926 0.82141 0.98386 0.0
C769 C 0.29579 0.8446 0.9953 0.0
C770 C 0.24593 0.86631 0.92411 0.0
C771 C 0.26024 0.78932 0.9955 0.0
C772 C 0.18552 0.75778 0.93342 0.0
C773 C 0.1987 0.74621 0.91088 0.0
C774 C 0.20241 0.78587 0.94774 0.0
C775 C 0.2333 0.80221 0.9398 0.0
C776 C 0.24599 0.79167 0.91547 0.0
C777 C 0.22842 0.76395 0.90113 0.0
C778 C 0.18762 0.79697 0.97252 0.0
C779 C 0.2788 0.80856 0.90595 0.0
H780 H 0.29844 0.90355 0.95058 0.0
H781 H 0.30888 0.83899 0.01246 0.0
H782 H 0.25353 0.86171 0.90133 0.0
H783 H 0.22114 0.85235 0.92594 0.0
H784 H 0.25036 0.89082 0.92498 0.0
H785 H 0.27213 0.78876 0.01718 0.0
H786 H 0.23545 0.77797 -0.00041 0.0
H787 H 0.26595 0.77589 0.97784 0.0
H788 H 0.16235 0.74442 0.94071 0.0
H789 H 0.23865 0.75539 0.88345 0.0
H790 H 0.19689 0.82222 0.97295 0.0
H791 H 0.19199 0.78921 0.99529 0.0
H792 H 0.16265 0.78766 0.96926 0.0
H793 H 0.28364 0.83252 0.90024 0.0
H794 H 0.28472 0.79806 0.88567 0.0
H795 H 0.29386 0.80891 0.92533 0.0
C796 C 0.56969 0.21785 0.39465 0.0
C797 C 0.55212 0.19177 0.41165 0.0
C798 C 0.56285 0.2434 0.39452 0.0
C799 C 0.53782 0.24284 0.41179 0.0
C800 C 0.51945 0.21628 0.42829 0.0
C801 C 0.52683 0.19103 0.42803 0.0
C802 C 0.58295 0.27131 0.37653 0.0
C803 C 0.49253 0.21484 0.44687 0.0
C804 C 0.54547 0.3214 0.43474 0.0
C805 C 0.52918 0.32792 0.41128 0.0
C806 C 0.54707 0.29307 0.43617 0.0
C807 C 0.53201 0.27072 0.41362 0.0
C808 C 0.51383 0.27638 0.39117 0.0
C809 C 0.51258 0.30494 0.39029 0.0
C810 C 0.56649 0.28781 0.46066 0.0
C811 C 0.49729 0.25303 0.36686 0.0
H812 H 0.58919 0.21859 0.38184 0.0
H813 H 0.51307 0.17091 0.44117 0.0
H814 H 0.56913 0.27801 0.36031 0.0
H815 H 0.59422 0.2907 0.3925 0.0
H816 H 0.60073 0.26758 0.36324 0.0
H817 H 0.47935 0.19183 0.4567 0.0
H818 H 0.50041 0.23152 0.46603 0.0
H819 H 0.47723 0.22119 0.43235 0.0
H820 H 0.55816 0.33894 0.45121 0.0
H821 H 0.49986 0.30972 0.37214 0.0
H822 H 0.58683 0.28686 0.44981 0.0
H823 H 0.55385 0.26566 0.47231 0.0
H824 H 0.57413 0.30615 0.47828 0.0
H825 H 0.51399 0.25094 0.35056 0.0
H826 H 0.48114 0.25932 0.3536 0.0
H827 H 0.48466 0.2303 0.37743 0.0
C828 C 0.2274 0.62476 0.93679 0.0
C829 C 0.19722 0.60298 0.93726 0.0
C830 C 0.25145 0.6164 0.94217 0.0
C831 C 0.24518 0.58552 0.94826 0.0
C832 C 0.21477 0.56362 0.94995 0.0
C833 C 0.19112 0.57261 0.94437 0.0
C834 C 0.28364 0.64047 0.94032 0.0
C835 C 0.20724 0.53056 0.95672 0.0
C836 C 0.30885 0.56305 0.92654 0.0
C837 C 0.32391 0.56612 0.95473 0.0
C838 C 0.2824 0.56805 0.92438 0.0
C839 C 0.27062 0.57608 0.95108 0.0
C840 C 0.28463 0.57737 0.97992 0.0
C841 C 0.31118 0.57243 0.98139 0.0
C842 C 0.26806 0.56642 0.8932 0.0
C843 C 0.27253 0.58555 0.00895 0.0
H844 H 0.23233 0.6483 0.93146 0.0
H845 H 0.16786 0.55565 0.94496 0.0
H846 H 0.2961 0.64056 0.96174 0.0
H847 H 0.29571 0.63521 0.92103 0.0
H848 H 0.28461 0.66367 0.93673 0.0
H849 H 0.18248 0.51687 0.95969 0.0
H850 H 0.21536 0.52063 0.93758 0.0
H851 H 0.21905 0.52855 0.9779 0.0
H852 H 0.31847 0.5581 0.90583 0.0
H853 H 0.32258 0.57469 0.0033 0.0
H854 H 0.27053 0.58949 0.8863 0.0
H855 H 0.24343 0.55155 0.89418 0.0
H856 H 0.27858 0.5576 0.87514 0.0
H857 H 0.27641 0.60988 0.00807 0.0
H858 H 0.28369 0.58189 0.02991 0.0
H859 H 0.24771 0.57187 0.01093 0.0
C860 C 0.67913 0.14081 0.42537 0.0
C861 C 0.65696 0.14614 0.44201 0.0
C862 C 0.70743 0.16468 0.41902 0.0
C863 C 0.71342 0.19444 0.42941 0.0
C864 C 0.69233 0.19922 0.44884 0.0
C865 C 0.6644 0.17496 0.45504 0.0
C866 C 0.72971 0.15853 0.39895 0.0
C867 C 0.69794 0.23058 0.46066 0.0
C868 C 0.78813 0.26388 0.4216 0.0
C869 C 0.78219 0.27821 0.39592 0.0
C870 C 0.76678 0.23539 0.43175 0.0
C871 C 0.73883 0.22125 0.41604 0.0
C872 C 0.73362 0.2347 0.38897 0.0
C873 C 0.75545 0.26293 0.37915 0.0
C874 C 0.77343 0.22139 0.46026 0.0
C875 C 0.70412 0.2203 0.37142 0.0
H876 H 0.67375 0.1185 0.41555 0.0
H877 H 0.64759 0.17917 0.46837 0.0
H878 H 0.72824 0.1659 0.37506 0.0
H879 H 0.75331 0.17159 0.40703 0.0
H880 H 0.72487 0.1339 0.39848 0.0
H881 H 0.68107 0.22982 0.47835 0.0
H882 H 0.72097 0.24186 0.4707 0.0
H883 H 0.69661 0.2449 0.44122 0.0
H884 H 0.80892 0.27541 0.4345 0.0
H885 H 0.75081 0.27366 0.35911 0.0
H886 H 0.76589 0.19645 0.45737 0.0
H887 H 0.76076 0.22495 0.48003 0.0
H888 H 0.79798 0.23176 0.46601 0.0
H889 H 0.69913 0.19627 0.36573 0.0
H890 H 0.7045 0.23262 0.34973 0.0
H891 H 0.68523 0.2202 0.38598 0.0
C892 C 0.4213 0.67431 0.97441 0.0
C893 C 0.42041 0.66777 0.94288 0.0
C894 C 0.41742 0.70008 0.98487 0.0
C895 C 0.41271 0.71964 0.96323 0.0
C896 C 0.4133 0.71388 0.93136 0.0
C897 C 0.41711 0.68802 0.92161 0.0
C898 C 0.41699 0.70558 0.01902 0.0
C899 C 0.40861 0.73431 0.90751 0.0
C900 C 0.36749 0.76566 0.9808 0.0
C901 C 0.39039 0.79535 0.98189 0.0
C902 C 0.37459 0.7405 0.9766 0.0
C903 C 0.40532 0.74519 0.97348 0.0
C904 C 0.4286 0.77488 0.97651 0.0
C905 C 0.42085 0.79964 0.98067 0.0
C906 C 0.34909 0.70913 0.97358 0.0
C907 C 0.46161 0.78077 0.97344 0.0
H908 H 0.4237 0.65865 0.99097 0.0
H909 H 0.41663 0.6832 0.8972 0.0
H910 H 0.43207 0.72956 0.02466 0.0
H911 H 0.39369 0.70173 0.0262 0.0
H912 H 0.4242 0.69025 0.03265 0.0
H913 H 0.41149 0.72763 0.88365 0.0
H914 H 0.38542 0.73337 0.90977 0.0
H915 H 0.42487 0.75831 0.91123 0.0
H916 H 0.34391 0.7621 0.98195 0.0
H917 H 0.43872 0.82249 0.98171 0.0
H918 H 0.35331 0.69262 0.98848 0.0
H919 H 0.34794 0.70111 0.94948 0.0
H920 H 0.32673 0.70889 0.97977 0.0
H921 H 0.46678 0.76438 0.9876 0.0
H922 H 0.47695 0.8043 0.98046 0.0
H923 H 0.46659 0.77745 0.94913 0.0
loop_
_geom_bond_atom_site_label_1
_geom_bond_atom_site_label_2
_geom_bond_distance
_geom_bond_site_symmetry_2
_ccdc_geom_bond_type
C0 O1 1.160 . S
C0 O7 1.185 . S
O1 C0 1.160 . S
O2 Zn3 1.899 . S
O2 C10 1.284 . S
Zn3 O2 1.899 . S
Zn3 O4 2.032 . S
Zn3 O7 2.086 . S
Zn3 O12 1.977 . S
O4 Zn3 2.032 . S
O4 C8 1.278 . S
C5 O6 1.203 . S
C5 O12 1.267 . S
O6 C5 1.203 . S
O7 C0 1.185 . S
O7 Zn3 2.086 . S
C8 O4 1.278 . S
C8 O9 1.211 . S
O9 C8 1.211 . S
C10 O2 1.284 . S
C10 O11 1.273 . S
O11 C10 1.273 . S
O12 Zn3 1.977 . S
O12 C5 1.267 . S
C13 O14 1.160 . S
C13 O20 1.185 . S
O14 C13 1.160 . S
O15 Zn16 1.899 . S
O15 C23 1.284 . S
Zn16 O15 1.899 . S
Zn16 O17 2.032 . S
Zn16 O20 2.086 . S
Zn16 O25 1.977 . S
O17 Zn16 2.032 . S
O17 C21 1.278 . S
C18 O19 1.203 . S
C18 O25 1.267 . S
O19 C18 1.203 . S
O20 C13 1.185 . S
O20 Zn16 2.086 . S
C21 O17 1.278 . S
C21 O22 1.211 . S
O22 C21 1.211 . S
C23 O15 1.284 . S
C23 O24 1.273 . S
O24 C23 1.273 . S
O25 Zn16 1.977 . S
O25 C18 1.267 . S
C26 O27 1.160 . S
C26 O33 1.185 . S
O27 C26 1.160 . S
O28 Zn29 1.899 . S
O28 C36 1.284 . S
Zn29 O28 1.899 . S
Zn29 O30 2.032 . S
Zn29 O33 2.086 . S
Zn29 O38 1.977 . S
O30 Zn29 2.032 . S
O30 C34 1.278 . S
C31 O32 1.203 . S
C31 O38 1.267 . S
O32 C31 1.203 . S
O33 C26 1.185 . S
O33 Zn29 2.086 . S
C34 O30 1.278 . S
C34 O35 1.211 . S
O35 C34 1.211 . S
C36 O28 1.284 . S
C36 O37 1.273 . S
O37 C36 1.273 . S
O38 Zn29 1.977 . S
O38 C31 1.267 . S
C39 O40 1.160 . S
C39 O46 1.185 . S
O40 C39 1.160 . S
O41 Zn42 1.899 . S
O41 C49 1.284 . S
Zn42 O41 1.899 . S
Zn42 O43 2.032 . S
Zn42 O46 2.086 . S
Zn42 O51 1.977 . S
O43 Zn42 2.032 . S
O43 C47 1.278 . S
C44 O45 1.203 . S
C44 O51 1.267 . S
O45 C44 1.203 . S
O46 C39 1.185 . S
O46 Zn42 2.086 . S
C47 O43 1.278 . S
C47 O48 1.211 . S
O48 C47 1.211 . S
C49 O41 1.284 . S
C49 O50 1.273 . S
O50 C49 1.273 . S
O51 Zn42 1.977 . S
O51 C44 1.267 . S
C52 O53 1.160 . S
C52 O59 1.185 . S
O53 C52 1.160 . S
O54 Zn55 1.899 . S
O54 C62 1.284 . S
Zn55 O54 1.899 . S
Zn55 O56 2.032 . S
Zn55 O59 2.086 . S
Zn55 O64 1.977 . S
O56 Zn55 2.032 . S
O56 C60 1.278 . S
C57 O58 1.203 . S
C57 O64 1.267 . S
O58 C57 1.203 . S
O59 C52 1.185 . S
O59 Zn55 2.086 . S
C60 O56 1.278 . S
C60 O61 1.211 . S
O61 C60 1.211 . S
C62 O54 1.284 . S
C62 O63 1.273 . S
O63 C62 1.273 . S
O64 Zn55 1.977 . S
O64 C57 1.267 . S
C65 O66 1.160 . S
C65 O72 1.185 . S
O66 C65 1.160 . S
O67 Zn68 1.899 . S
O67 C75 1.284 . S
Zn68 O67 1.899 . S
Zn68 O69 2.032 . S
Zn68 O72 2.086 . S
Zn68 O77 1.977 . S
O69 Zn68 2.032 . S
O69 C73 1.278 . S
C70 O71 1.203 . S
C70 O77 1.267 . S
O71 C70 1.203 . S
O72 C65 1.185 . S
O72 Zn68 2.086 . S
C73 O69 1.278 . S
C73 O74 1.211 . S
O74 C73 1.211 . S
C75 O67 1.284 . S
C75 O76 1.273 . S
O76 C75 1.273 . S
O77 Zn68 1.977 . S
O77 C70 1.267 . S
C78 O79 1.160 . S
C78 O85 1.185 . S
O79 C78 1.160 . S
O80 Zn81 1.899 . S
O80 C88 1.284 . S
Zn81 O80 1.899 . S
Zn81 O82 2.032 . S
Zn81 O85 2.086 . S
Zn81 O90 1.977 . S
O82 Zn81 2.032 . S
O82 C86 1.278 . S
C83 O84 1.203 . S
C83 O90 1.267 . S
O84 C83 1.203 . S
O85 C78 1.185 . S
O85 Zn81 2.086 . S
C86 O82 1.278 . S
C86 O87 1.211 . S
O87 C86 1.211 . S
C88 O80 1.284 . S
C88 O89 1.273 . S
O89 C88 1.273 . S
O90 Zn81 1.977 . S
O90 C83 1.267 . S
C91 O92 1.160 . S
C91 O98 1.185 . S
O92 C91 1.160 . S
O93 Zn94 1.899 . S
O93 C101 1.284 . S
Zn94 O93 1.899 . S
Zn94 O95 2.032 . S
Zn94 O98 2.086 . S
Zn94 O103 1.977 . S
O95 Zn94 2.032 . S
O95 C99 1.278 . S
C96 O97 1.203 . S
C96 O103 1.267 . S
O97 C96 1.203 . S
O98 C91 1.185 . S
O98 Zn94 2.086 . S
C99 O95 1.278 . S
C99 O100 1.211 . S
O100 C99 1.211 . S
C101 O93 1.284 . S
C101 O102 1.273 . S
O102 C101 1.273 . S
O103 Zn94 1.977 . S
O103 C96 1.267 . S
C104 O105 1.160 . S
C104 O111 1.185 . S
O105 C104 1.160 . S
O106 Zn107 1.899 . S
O106 C114 1.284 . S
Zn107 O106 1.899 . S
Zn107 O108 2.032 . S
Zn107 O111 2.086 . S
Zn107 O116 1.977 . S
O108 Zn107 2.032 . S
O108 C112 1.278 . S
C109 O110 1.203 . S
C109 O116 1.267 . S
O110 C109 1.203 . S
O111 C104 1.185 . S
O111 Zn107 2.086 . S
C112 O108 1.278 . S
C112 O113 1.211 . S
O113 C112 1.211 . S
C114 O106 1.284 . S
C114 O115 1.273 . S
O115 C114 1.273 . S
O116 Zn107 1.977 . S
O116 C109 1.267 . S
C117 O118 1.160 . S
C117 O124 1.185 . S
O118 C117 1.160 . S
O119 Zn120 1.899 . S
O119 C127 1.284 . S
Zn120 O119 1.899 . S
Zn120 O121 2.032 . S
Zn120 O124 2.086 . S
Zn120 O129 1.977 . S
O121 Zn120 2.032 . S
O121 C125 1.278 . S
C122 O123 1.203 . S
C122 O129 1.267 . S
O123 C122 1.203 . S
O124 C117 1.185 . S
O124 Zn120 2.086 . S
C125 O121 1.278 . S
C125 O126 1.211 . S
O126 C125 1.211 . S
C127 O119 1.284 . S
C127 O128 1.273 . S
O128 C127 1.273 . S
O129 Zn120 1.977 . S
O129 C122 1.267 . S
C130 O131 1.160 . S
C130 O137 1.185 . S
O131 C130 1.160 . S
O132 Zn133 1.899 . S
O132 C140 1.284 . S
Zn133 O132 1.899 . S
Zn133 O134 2.032 . S
Zn133 O137 2.086 . S
Zn133 O142 1.977 . S
O134 Zn133 2.032 . S
O134 C138 1.278 . S
C135 O136 1.203 . S
C135 O142 1.267 . S
O136 C135 1.203 . S
O137 C130 1.185 . S
O137 Zn133 2.086 . S
C138 O134 1.278 . S
C138 O139 1.211 . S
O139 C138 1.211 . S
C140 O132 1.284 . S
C140 O141 1.273 . S
O141 C140 1.273 . S
O142 Zn133 1.977 . S
O142 C135 1.267 . S
C143 O144 1.160 . S
C143 O150 1.185 . S
O144 C143 1.160 . S
O145 Zn146 1.899 . S
O145 C153 1.284 . S
Zn146 O145 1.899 . S
Zn146 O147 2.032 . S
Zn146 O150 2.086 . S
Zn146 O155 1.977 . S
O147 Zn146 2.032 . S
O147 C151 1.278 . S
C148 O149 1.203 . S
C148 O155 1.267 . S
O149 C148 1.203 . S
O150 C143 1.185 . S
O150 Zn146 2.086 . S
C151 O147 1.278 . S
C151 O152 1.211 . S
O152 C151 1.211 . S
C153 O145 1.284 . S
C153 O154 1.273 . S
O154 C153 1.273 . S
O155 Zn146 1.977 . S
O155 C148 1.267 . S
C156 C157 1.391 . S
C156 C158 1.394 . S
C156 H172 0.931 . S
C157 C156 1.391 . S
C157 C161 1.376 . S
C158 C156 1.394 . S
C158 C159 1.369 . S
C158 C162 1.531 . S
C159 C158 1.369 . S
C159 C160 1.410 . S
C159 C167 1.503 . S
C160 C159 1.410 . S
C160 C161 1.392 . S
C160 C163 1.511 . S
C161 C157 1.376 . S
C161 C160 1.392 . S
C161 H173 0.929 . S
C162 C158 1.531 . S
C162 H174 0.960 . S
C162 H175 0.962 . S
C162 H176 0.960 . S
C163 C160 1.511 . S
C163 H177 0.961 . S
C163 H178 0.961 . S
C163 H179 0.961 . S
C164 C165 1.370 . S
C164 C166 1.363 . S
C164 H180 0.931 . S
C165 C164 1.370 . S
C165 C169 1.408 . S
C166 C164 1.363 . S
C166 C167 1.370 . S
C166 C170 1.524 . S
C167 C159 1.503 . S
C167 C166 1.370 . S
C167 C168 1.403 . S
C168 C167 1.403 . S
C168 C169 1.404 . S
C168 C171 1.539 . S
C169 C165 1.408 . S
C169 C168 1.404 . S
C169 H181 0.930 . S
C170 C166 1.524 . S
C170 H182 0.956 . S
C170 H183 0.961 . S
C170 H184 0.961 . S
C171 C168 1.539 . S
C171 H185 0.958 . S
C171 H186 0.961 . S
C171 H187 0.960 . S
H172 C156 0.931 . S
H173 C161 0.929 . S
H174 C162 0.960 . S
H175 C162 0.962 . S
H176 C162 0.960 . S
H177 C163 0.961 . S
H178 C163 0.961 . S
H179 C163 0.961 . S
H180 C164 0.931 . S
H181 C169 0.930 . S
H182 C170 0.956 . S
H183 C170 0.961 . S
H184 C170 0.961 . S
H185 C171 0.958 . S
H186 C171 0.961 . S
H187 C171 0.960 . S
C188 C189 1.391 . S
C188 C190 1.394 . S
C188 H204 0.931 . S
C189 C188 1.391 . S
C189 C193 1.376 . S
C190 C188 1.394 . S
C190 C191 1.369 . S
C190 C194 1.531 . S
C191 C190 1.369 . S
C191 C192 1.410 . S
C191 C199 1.503 . S
C192 C191 1.410 . S
C192 C193 1.392 . S
C192 C195 1.511 . S
C193 C189 1.376 . S
C193 C192 1.392 . S
C193 H205 0.929 . S
C194 C190 1.531 . S
C194 H206 0.960 . S
C194 H207 0.962 . S
C194 H208 0.960 . S
C195 C192 1.511 . S
C195 H209 0.961 . S
C195 H210 0.961 . S
C195 H211 0.961 . S
C196 C197 1.370 . S
C196 C198 1.363 . S
C196 H212 0.931 . S
C197 C196 1.370 . S
C197 C201 1.408 . S
C198 C196 1.363 . S
C198 C199 1.370 . S
C198 C202 1.524 . S
C199 C191 1.503 . S
C199 C198 1.370 . S
C199 C200 1.403 . S
C200 C199 1.403 . S
C200 C201 1.404 . S
C200 C203 1.539 . S
C201 C197 1.408 . S
C201 C200 1.404 . S
C201 H213 0.930 . S
C202 C198 1.524 . S
C202 H214 0.956 . S
C202 H215 0.961 . S
C202 H216 0.961 . S
C203 C200 1.539 . S
C203 H217 0.958 . S
C203 H218 0.961 . S
C203 H219 0.960 . S
H204 C188 0.931 . S
H205 C193 0.929 . S
H206 C194 0.960 . S
H207 C194 0.962 . S
H208 C194 0.960 . S
H209 C195 0.961 . S
H210 C195 0.961 . S
H211 C195 0.961 . S
H212 C196 0.931 . S
H213 C201 0.930 . S
H214 C202 0.956 . S
H215 C202 0.961 . S
H216 C202 0.961 . S
H217 C203 0.958 . S
H218 C203 0.961 . S
H219 C203 0.960 . S
C220 C221 1.391 . S
C220 C222 1.394 . S
C220 H236 0.931 . S
C221 C220 1.391 . S
C221 C225 1.376 . S
C222 C220 1.394 . S
C222 C223 1.369 . S
C222 C226 1.531 . S
C223 C222 1.369 . S
C223 C224 1.410 . S
C223 C231 1.503 . S
C224 C223 1.410 . S
C224 C225 1.392 . S
C224 C227 1.511 . S
C225 C221 1.376 . S
C225 C224 1.392 . S
C225 H237 0.929 . S
C226 C222 1.531 . S
C226 H238 0.960 . S
C226 H239 0.962 . S
C226 H240 0.960 . S
C227 C224 1.511 . S
C227 H241 0.961 . S
C227 H242 0.961 . S
C227 H243 0.961 . S
C228 C229 1.370 . S
C228 C230 1.363 . S
C228 H244 0.931 . S
C229 C228 1.370 . S
C229 C233 1.408 . S
C230 C228 1.363 . S
C230 C231 1.370 . S
C230 C234 1.524 . S
C231 C223 1.503 . S
C231 C230 1.370 . S
C231 C232 1.403 . S
C232 C231 1.403 . S
C232 C233 1.404 . S
C232 C235 1.539 . S
C233 C229 1.408 . S
C233 C232 1.404 . S
C233 H245 0.930 . S
C234 C230 1.524 . S
C234 H246 0.956 . S
C234 H247 0.961 . S
C234 H248 0.961 . S
C235 C232 1.539 . S
C235 H249 0.958 . S
C235 H250 0.961 . S
C235 H251 0.960 . S
H236 C220 0.931 . S
H237 C225 0.929 . S
H238 C226 0.960 . S
H239 C226 0.962 . S
H240 C226 0.960 . S
H241 C227 0.961 . S
H242 C227 0.961 . S
H243 C227 0.961 . S
H244 C228 0.931 . S
H245 C233 0.930 . S
H246 C234 0.956 . S
H247 C234 0.961 . S
H248 C234 0.961 . S
H249 C235 0.958 . S
H250 C235 0.961 . S
H251 C235 0.960 . S
C252 C253 1.391 . S
C252 C254 1.394 . S
C252 H268 0.931 . S
C253 C252 1.391 . S
C253 C257 1.376 . S
C254 C252 1.394 . S
C254 C255 1.369 . S
C254 C258 1.531 . S
C255 C254 1.369 . S
C255 C256 1.410 . S
C255 C263 1.503 . S
C256 C255 1.410 . S
C256 C257 1.392 . S
C256 C259 1.511 . S
C257 C253 1.376 . S
C257 C256 1.392 . S
C257 H269 0.929 . S
C258 C254 1.531 . S
C258 H270 0.960 . S
C258 H271 0.962 . S
C258 H272 0.960 . S
C259 C256 1.511 . S
C259 H273 0.961 . S
C259 H274 0.961 . S
C259 H275 0.961 . S
C260 C261 1.370 . S
C260 C262 1.363 . S
C260 H276 0.931 . S
C261 C260 1.370 . S
C261 C265 1.408 . S
C262 C260 1.363 . S
C262 C263 1.370 . S
C262 C266 1.524 . S
C263 C255 1.503 . S
C263 C262 1.370 . S
C263 C264 1.403 . S
C264 C263 1.403 . S
C264 C265 1.404 . S
C264 C267 1.539 . S
C265 C261 1.408 . S
C265 C264 1.404 . S
C265 H277 0.930 . S
C266 C262 1.524 . S
C266 H278 0.956 . S
C266 H279 0.961 . S
C266 H280 0.961 . S
C267 C264 1.539 . S
C267 H281 0.958 . S
C267 H282 0.961 . S
C267 H283 0.960 . S
H268 C252 0.931 . S
H269 C257 0.929 . S
H270 C258 0.960 . S
H271 C258 0.962 . S
H272 C258 0.960 . S
H273 C259 0.961 . S
H274 C259 0.961 . S
H275 C259 0.961 . S
H276 C260 0.931 . S
H277 C265 0.930 . S
H278 C266 0.956 . S
H279 C266 0.961 . S
H280 C266 0.961 . S
H281 C267 0.958 . S
H282 C267 0.961 . S
H283 C267 0.960 . S
C284 C285 1.391 . S
C284 C286 1.394 . S
C284 H300 0.931 . S
C285 C284 1.391 . S
C285 C289 1.376 . S
C286 C284 1.394 . S
C286 C287 1.369 . S
C286 C290 1.531 . S
C287 C286 1.369 . S
C287 C288 1.410 . S
C287 C295 1.503 . S
C288 C287 1.410 . S
C288 C289 1.392 . S
C288 C291 1.511 . S
C289 C285 1.376 . S
C289 C288 1.392 . S
C289 H301 0.929 . S
C290 C286 1.531 . S
C290 H302 0.960 . S
C290 H303 0.962 . S
C290 H304 0.960 . S
C291 C288 1.511 . S
C291 H305 0.961 . S
C291 H306 0.961 . S
C291 H307 0.961 . S
C292 C293 1.370 . S
C292 C294 1.363 . S
C292 H308 0.931 . S
C293 C292 1.370 . S
C293 C297 1.408 . S
C294 C292 1.363 . S
C294 C295 1.370 . S
C294 C298 1.524 . S
C295 C287 1.503 . S
C295 C294 1.370 . S
C295 C296 1.403 . S
C296 C295 1.403 . S
C296 C297 1.404 . S
C296 C299 1.539 . S
C297 C293 1.408 . S
C297 C296 1.404 . S
C297 H309 0.930 . S
C298 C294 1.524 . S
C298 H310 0.956 . S
C298 H311 0.961 . S
C298 H312 0.961 . S
C299 C296 1.539 . S
C299 H313 0.958 . S
C299 H314 0.961 . S
C299 H315 0.960 . S
H300 C284 0.931 . S
H301 C289 0.929 . S
H302 C290 0.960 . S
H303 C290 0.962 . S
H304 C290 0.960 . S
H305 C291 0.961 . S
H306 C291 0.961 . S
H307 C291 0.961 . S
H308 C292 0.931 . S
H309 C297 0.930 . S
H310 C298 0.956 . S
H311 C298 0.961 . S
H312 C298 0.961 . S
H313 C299 0.958 . S
H314 C299 0.961 . S
H315 C299 0.960 . S
C316 C317 1.391 . S
C316 C318 1.394 . S
C316 H332 0.931 . S
C317 C316 1.391 . S
C317 C321 1.376 . S
C318 C316 1.394 . S
C318 C319 1.369 . S
C318 C322 1.531 . S
C319 C318 1.369 . S
C319 C320 1.410 . S
C319 C327 1.503 . S
C320 C319 1.410 . S
C320 C321 1.392 . S
C320 C323 1.511 . S
C321 C317 1.376 . S
C321 C320 1.392 . S
C321 H333 0.929 . S
C322 C318 1.531 . S
C322 H334 0.960 . S
C322 H335 0.962 . S
C322 H336 0.960 . S
C323 C320 1.511 . S
C323 H337 0.961 . S
C323 H338 0.961 . S
C323 H339 0.961 . S
C324 C325 1.370 . S
C324 C326 1.363 . S
C324 H340 0.931 . S
C325 C324 1.370 . S
C325 C329 1.408 . S
C326 C324 1.363 . S
C326 C327 1.370 . S
C326 C330 1.524 . S
C327 C319 1.503 . S
C327 C326 1.370 . S
C327 C328 1.403 . S
C328 C327 1.403 . S
C328 C329 1.404 . S
C328 C331 1.539 . S
C329 C325 1.408 . S
C329 C328 1.404 . S
C329 H341 0.930 . S
C330 C326 1.524 . S
C330 H342 0.956 . S
C330 H343 0.961 . S
C330 H344 0.961 . S
C331 C328 1.539 . S
C331 H345 0.958 . S
C331 H346 0.961 . S
C331 H347 0.960 . S
H332 C316 0.931 . S
H333 C321 0.929 . S
H334 C322 0.960 . S
H335 C322 0.962 . S
H336 C322 0.960 . S
H337 C323 0.961 . S
H338 C323 0.961 . S
H339 C323 0.961 . S
H340 C324 0.931 . S
H341 C329 0.930 . S
H342 C330 0.956 . S
H343 C330 0.961 . S
H344 C330 0.961 . S
H345 C331 0.958 . S
H346 C331 0.961 . S
H347 C331 0.960 . S
C348 C349 1.391 . S
C348 C350 1.394 1_554 S
C348 H364 0.931 . S
C349 C348 1.391 . S
C349 C353 1.376 . S
C350 C348 1.394 1_556 S
C350 C351 1.369 1_556 S
C350 C354 1.531 . S
C351 C350 1.369 1_554 S
C351 C352 1.410 . S
C351 C359 1.503 1_544 S
C352 C351 1.410 . S
C352 C353 1.392 . S
C352 C355 1.511 1_545 S
C353 C349 1.376 . S
C353 C352 1.392 . S
C353 H365 0.929 . S
C354 C350 1.531 . S
C354 H366 0.960 . S
C354 H367 0.962 . S
C354 H368 0.960 . S
C355 C352 1.511 1_565 S
C355 H369 0.961 . S
C355 H370 0.961 . S
C355 H371 0.961 . S
C356 C357 1.370 . S
C356 C358 1.363 1_556 S
C356 H372 0.931 1_556 S
C357 C356 1.370 . S
C357 C361 1.408 . S
C358 C356 1.363 1_554 S
C358 C359 1.370 1_554 S
C358 C362 1.524 . S
C359 C351 1.503 1_566 S
C359 C358 1.370 1_556 S
C359 C360 1.403 . S
C360 C359 1.403 . S
C360 C361 1.404 . S
C360 C363 1.539 . S
C361 C357 1.408 . S
C361 C360 1.404 . S
C361 H373 0.930 . S
C362 C358 1.524 . S
C362 H374 0.956 1_565 S
C362 H375 0.961 . S
C362 H376 0.961 . S
C363 C360 1.539 . S
C363 H377 0.958 1_565 S
C363 H378 0.961 . S
C363 H379 0.962 . S
H364 C348 0.931 . S
H365 C353 0.929 . S
H366 C354 0.960 . S
H367 C354 0.962 . S
H368 C354 0.960 . S
H369 C355 0.961 . S
H370 C355 0.961 . S
H371 C355 0.961 . S
H372 C356 0.931 1_554 S
H373 C361 0.930 . S
H374 C362 0.956 1_545 S
H375 C362 0.961 . S
H376 C362 0.961 . S
H377 C363 0.958 1_545 S
H378 C363 0.961 . S
H379 C363 0.962 . S
C380 C381 1.391 . S
C380 C382 1.394 . S
C380 H396 0.931 . S
C381 C380 1.391 . S
C381 C385 1.376 . S
C382 C380 1.394 . S
C382 C383 1.369 . S
C382 C386 1.531 . S
C383 C382 1.369 . S
C383 C384 1.410 . S
C383 C391 1.503 . S
C384 C383 1.410 . S
C384 C385 1.392 . S
C384 C387 1.511 . S
C385 C381 1.376 . S
C385 C384 1.392 . S
C385 H397 0.929 . S
C386 C382 1.531 . S
C386 H398 0.960 . S
C386 H399 0.962 . S
C386 H400 0.960 . S
C387 C384 1.511 . S
C387 H401 0.961 . S
C387 H402 0.961 . S
C387 H403 0.961 . S
C388 C389 1.370 . S
C388 C390 1.363 . S
C388 H404 0.931 . S
C389 C388 1.370 . S
C389 C393 1.408 . S
C390 C388 1.363 . S
C390 C391 1.370 . S
C390 C394 1.524 . S
C391 C383 1.503 . S
C391 C390 1.370 . S
C391 C392 1.403 . S
C392 C391 1.403 . S
C392 C393 1.404 . S
C392 C395 1.539 . S
C393 C389 1.408 . S
C393 C392 1.404 . S
C393 H405 0.930 . S
C394 C390 1.524 . S
C394 H406 0.956 . S
C394 H407 0.961 . S
C394 H408 0.961 . S
C395 C392 1.539 . S
C395 H409 0.958 . S
C395 H410 0.961 . S
C395 H411 0.960 . S
H396 C380 0.931 . S
H397 C385 0.929 . S
H398 C386 0.960 . S
H399 C386 0.962 . S
H400 C386 0.960 . S
H401 C387 0.961 . S
H402 C387 0.961 . S
H403 C387 0.961 . S
H404 C388 0.931 . S
H405 C393 0.930 . S
H406 C394 0.956 . S
H407 C394 0.961 . S
H408 C394 0.961 . S
H409 C395 0.958 . S
H410 C395 0.961 . S
H411 C395 0.960 . S
C412 C413 1.391 . S
C412 C414 1.394 . S
C412 H428 0.931 . S
C413 C412 1.391 . S
C413 C417 1.376 . S
C414 C412 1.394 . S
C414 C415 1.369 . S
C414 C418 1.531 1_455 S
C415 C414 1.369 . S
C415 C416 1.410 . S
C415 C423 1.503 1_456 S
C416 C415 1.410 . S
C416 C417 1.392 . S
C416 C419 1.511 1_556 S
C417 C413 1.376 . S
C417 C416 1.392 . S
C417 H429 0.929 . S
C418 C414 1.531 1_655 S
C418 H430 0.960 . S
C418 H431 0.962 . S
C418 H432 0.960 . S
C419 C416 1.511 1_554 S
C419 H433 0.961 . S
C419 H434 0.961 . S
C419 H435 0.961 1_554 S
C420 C421 1.370 . S
C420 C422 1.363 . S
C420 H436 0.931 . S
C421 C420 1.370 . S
C421 C425 1.408 . S
C422 C420 1.363 . S
C422 C423 1.370 . S
C422 C426 1.526 . S
C423 C415 1.503 1_654 S
C423 C422 1.370 . S
C423 C424 1.403 1_554 S
C424 C423 1.403 1_556 S
C424 C425 1.404 1_556 S
C424 C427 1.539 . S
C425 C421 1.408 . S
C425 C424 1.404 1_554 S
C425 H437 0.930 1_554 S
C426 C422 1.526 . S
C426 H438 0.965 1_655 S
C426 H439 0.956 1_655 S
C426 H440 0.962 . S
C427 C424 1.539 . S
C427 H441 0.958 . S
C427 H442 0.961 . S
C427 H443 0.960 . S
H428 C412 0.931 . S
H429 C417 0.929 . S
H430 C418 0.960 . S
H431 C418 0.962 . S
H432 C418 0.960 . S
H433 C419 0.961 . S
H434 C419 0.961 . S
H435 C419 0.961 1_556 S
H436 C420 0.931 . S
H437 C425 0.930 1_556 S
H438 C426 0.965 1_455 S
H439 C426 0.956 1_455 S
H440 C426 0.962 . S
H441 C427 0.958 . S
H442 C427 0.961 . S
H443 C427 0.960 . S
C444 C445 1.391 . S
C444 C446 1.394 . S
C444 H460 0.931 . S
C445 C444 1.391 . S
C445 C449 1.376 . S
C446 C444 1.394 . S
C446 C447 1.369 . S
C446 C450 1.531 . S
C447 C446 1.369 . S
C447 C448 1.410 . S
C447 C455 1.503 1_545 S
C448 C447 1.410 . S
C448 C449 1.392 . S
C448 C451 1.511 1_545 S
C449 C445 1.376 . S
C449 C448 1.392 . S
C449 H461 0.929 . S
C450 C446 1.531 . S
C450 H462 0.960 . S
C450 H463 0.962 . S
C450 H464 0.960 . S
C451 C448 1.511 1_565 S
C451 H465 0.961 1_565 S
C451 H466 0.961 . S
C451 H467 0.961 . S
C452 C453 1.370 . S
C452 C454 1.363 . S
C452 H468 0.931 . S
C453 C452 1.370 . S
C453 C457 1.408 . S
C454 C452 1.363 . S
C454 C455 1.370 . S
C454 C458 1.524 1_565 S
C455 C447 1.503 1_565 S
C455 C454 1.370 . S
C455 C456 1.403 . S
C456 C455 1.403 . S
C456 C457 1.404 . S
C456 C459 1.539 . S
C457 C453 1.408 . S
C457 C456 1.404 . S
C457 H469 0.930 . S
C458 C454 1.524 1_545 S
C458 H470 0.956 . S
C458 H471 0.961 . S
C458 H472 0.961 . S
C459 C456 1.539 . S
C459 H473 0.958 . S
C459 H474 0.961 . S
C459 H475 0.960 . S
H460 C444 0.931 . S
H461 C449 0.929 . S
H462 C450 0.960 . S
H463 C450 0.962 . S
H464 C450 0.960 . S
H465 C451 0.961 1_545 S
H466 C451 0.961 . S
H467 C451 0.961 . S
H468 C452 0.931 . S
H469 C457 0.930 . S
H470 C458 0.956 . S
H471 C458 0.961 . S
H472 C458 0.961 . S
H473 C459 0.958 . S
H474 C459 0.961 . S
H475 C459 0.960 . S
C476 C477 1.391 . S
C476 C478 1.394 . S
C476 H492 0.931 . S
C477 C476 1.391 . S
C477 C481 1.376 . S
C478 C476 1.394 . S
C478 C479 1.369 . S
C478 C482 1.531 . S
C479 C478 1.369 . S
C479 C480 1.410 . S
C479 C487 1.503 1_556 S
C480 C479 1.410 . S
C480 C481 1.392 . S
C480 C483 1.511 . S
C481 C477 1.376 . S
C481 C480 1.392 . S
C481 H493 0.929 . S
C482 C478 1.531 . S
C482 H494 0.960 . S
C482 H495 0.987 . S
C482 H496 0.960 . S
C483 C480 1.511 . S
C483 H497 0.961 . S
C483 H498 0.961 1_556 S
C483 H499 0.961 . S
C484 C485 1.370 . S
C484 C486 1.363 . S
C484 H500 0.931 . S
C485 C484 1.370 . S
C485 C489 1.408 . S
C486 C484 1.363 . S
C486 C487 1.370 . S
C486 C490 1.524 . S
C487 C479 1.503 1_554 S
C487 C486 1.370 . S
C487 C488 1.403 1_554 S
C488 C487 1.403 1_556 S
C488 C489 1.404 1_556 S
C488 C491 1.539 . S
C489 C485 1.408 . S
C489 C488 1.404 1_554 S
C489 H501 0.930 1_554 S
C490 C486 1.524 . S
C490 H502 0.956 . S
C490 H503 0.961 . S
C490 H504 0.961 . S
C491 C488 1.539 . S
C491 H505 0.958 . S
C491 H506 0.961 . S
C491 H507 0.960 . S
H492 C476 0.931 . S
H493 C481 0.929 . S
H494 C482 0.960 . S
H495 C482 0.987 . S
H496 C482 0.960 . S
H497 C483 0.961 . S
H498 C483 0.961 1_554 S
H499 C483 0.961 . S
H500 C484 0.931 . S
H501 C489 0.930 1_556 S
H502 C490 0.956 . S
H503 C490 0.961 . S
H504 C490 0.961 . S
H505 C491 0.958 . S
H506 C491 0.961 . S
H507 C491 0.960 . S
C508 C509 1.391 . S
C508 C510 1.394 . S
C508 H524 0.931 . S
C509 C508 1.391 . S
C509 C513 1.376 . S
C510 C508 1.394 . S
C510 C511 1.369 . S
C510 C514 1.531 1_655 S
C511 C510 1.369 . S
C511 C512 1.410 . S
C511 C519 1.503 1_655 S
C512 C511 1.410 . S
C512 C513 1.392 . S
C512 C515 1.511 . S
C513 C509 1.376 . S
C513 C512 1.392 . S
C513 H525 0.929 . S
C514 C510 1.531 1_455 S
C514 H526 0.960 . S
C514 H527 0.962 . S
C514 H528 0.960 . S
C515 C512 1.511 . S
C515 H529 0.961 . S
C515 H530 0.961 . S
C515 H531 0.961 . S
C516 C517 1.370 . S
C516 C518 1.363 . S
C516 H532 0.931 . S
C517 C516 1.370 . S
C517 C521 1.408 . S
C518 C516 1.363 . S
C518 C519 1.370 . S
C518 C522 1.524 . S
C519 C511 1.503 1_455 S
C519 C518 1.370 . S
C519 C520 1.403 . S
C520 C519 1.403 . S
C520 C521 1.404 . S
C520 C523 1.539 . S
C521 C517 1.408 . S
C521 C520 1.404 . S
C521 H533 0.930 . S
C522 C518 1.524 . S
C522 H534 0.956 . S
C522 H535 0.961 1_455 S
C522 H536 0.961 . S
C523 C520 1.539 . S
C523 H537 0.958 . S
C523 H538 0.961 . S
C523 H539 0.960 1_455 S
H524 C508 0.931 . S
H525 C513 0.929 . S
H526 C514 0.960 . S
H527 C514 0.962 . S
H528 C514 0.960 . S
H529 C515 0.961 . S
H530 C515 0.961 . S
H531 C515 0.961 . S
H532 C516 0.931 . S
H533 C521 0.930 . S
H534 C522 0.956 . S
H535 C522 0.961 1_655 S
H536 C522 0.961 . S
H537 C523 0.958 . S
H538 C523 0.961 . S
H539 C523 0.960 1_655 S
C540 C541 1.391 . S
C540 C542 1.394 . S
C540 H556 0.931 . S
C541 C540 1.391 . S
C541 C545 1.376 . S
C542 C540 1.394 . S
C542 C543 1.369 . S
C542 C546 1.531 . S
C543 C542 1.369 . S
C543 C544 1.410 . S
C543 C551 1.503 . S
C544 C543 1.410 . S
C544 C545 1.392 . S
C544 C547 1.511 . S
C545 C541 1.376 . S
C545 C544 1.392 . S
C545 H557 0.929 . S
C546 C542 1.531 . S
C546 H558 0.960 . S
C546 H559 0.962 . S
C546 H560 0.960 . S
C547 C544 1.511 . S
C547 H561 0.961 . S
C547 H562 0.961 . S
C547 H563 0.961 . S
C548 C549 1.370 . S
C548 C550 1.363 . S
C548 H564 0.931 . S
C549 C548 1.370 . S
C549 C553 1.408 . S
C550 C548 1.363 . S
C550 C551 1.370 . S
C550 C554 1.524 . S
C551 C543 1.503 . S
C551 C550 1.370 . S
C551 C552 1.403 . S
C552 C551 1.403 . S
C552 C553 1.404 . S
C552 C555 1.539 . S
C553 C549 1.408 . S
C553 C552 1.404 . S
C553 H565 0.930 . S
C554 C550 1.524 . S
C554 H566 0.956 . S
C554 H567 0.961 . S
C554 H568 0.961 1_554 S
C555 C552 1.539 . S
C555 H569 0.958 . S
C555 H570 0.961 . S
C555 H571 0.960 . S
H556 C540 0.931 . S
H557 C545 0.929 . S
H558 C546 0.960 . S
H559 C546 0.962 . S
H560 C546 0.960 . S
H561 C547 0.961 . S
H562 C547 0.961 . S
H563 C547 0.961 . S
H564 C548 0.931 . S
H565 C553 0.930 . S
H566 C554 0.956 . S
H567 C554 0.961 . S
H568 C554 0.961 1_556 S
H569 C555 0.958 . S
H570 C555 0.961 . S
H571 C555 0.960 . S
C572 C573 1.391 . S
C572 C574 1.394 . S
C572 H588 0.931 . S
C573 C572 1.391 . S
C573 C577 1.376 . S
C574 C572 1.394 . S
C574 C575 1.369 . S
C574 C578 1.531 . S
C575 C574 1.369 . S
C575 C576 1.410 . S
C575 C583 1.503 . S
C576 C575 1.410 . S
C576 C577 1.392 . S
C576 C579 1.511 . S
C577 C573 1.376 . S
C577 C576 1.392 . S
C577 H589 0.929 . S
C578 C574 1.531 . S
C578 H590 0.960 . S
C578 H591 0.962 . S
C578 H592 0.960 . S
C579 C576 1.511 . S
C579 H593 0.961 . S
C579 H594 0.961 . S
C579 H595 0.961 . S
C580 C581 1.370 . S
C580 C582 1.363 . S
C580 H596 0.931 . S
C581 C580 1.370 . S
C581 C585 1.408 . S
C582 C580 1.363 . S
C582 C583 1.370 . S
C582 C586 1.524 . S
C583 C575 1.503 . S
C583 C582 1.370 . S
C583 C584 1.403 . S
C584 C583 1.403 . S
C584 C585 1.404 . S
C584 C587 1.539 . S
C585 C581 1.408 . S
C585 C584 1.404 . S
C585 H597 0.930 . S
C586 C582 1.524 . S
C586 H598 0.956 . S
C586 H599 0.961 . S
C586 H600 0.961 . S
C587 C584 1.539 . S
C587 H601 0.958 . S
C587 H602 0.961 . S
C587 H603 0.960 . S
H588 C572 0.931 . S
H589 C577 0.929 . S
H590 C578 0.960 . S
H591 C578 0.962 . S
H592 C578 0.960 . S
H593 C579 0.961 . S
H594 C579 0.961 . S
H595 C579 0.961 . S
H596 C580 0.931 . S
H597 C585 0.930 . S
H598 C586 0.956 . S
H599 C586 0.961 . S
H600 C586 0.961 . S
H601 C587 0.958 . S
H602 C587 0.961 . S
H603 C587 0.960 . S
C604 C605 1.391 . S
C604 C606 1.394 . S
C604 H620 0.931 . S
C605 C604 1.391 . S
C605 C609 1.376 . S
C606 C604 1.394 . S
C606 C607 1.369 . S
C606 C610 1.531 . S
C607 C606 1.369 . S
C607 C608 1.410 . S
C607 C615 1.503 . S
C608 C607 1.410 . S
C608 C609 1.392 . S
C608 C611 1.511 . S
C609 C605 1.376 . S
C609 C608 1.392 . S
C609 H621 0.929 . S
C610 C606 1.531 . S
C610 H622 0.960 . S
C610 H623 0.962 . S
C610 H624 0.960 . S
C611 C608 1.511 . S
C611 H625 0.961 1_554 S
C611 H626 0.961 . S
C611 H627 0.961 . S
C612 C613 1.370 . S
C612 C614 1.363 . S
C612 H628 0.931 . S
C613 C612 1.370 . S
C613 C617 1.408 . S
C614 C612 1.363 . S
C614 C615 1.370 . S
C614 C618 1.524 . S
C615 C607 1.503 . S
C615 C614 1.370 . S
C615 C616 1.403 . S
C616 C615 1.403 . S
C616 C617 1.404 . S
C616 C619 1.539 . S
C617 C613 1.408 . S
C617 C616 1.404 . S
C617 H629 0.930 . S
C618 C614 1.524 . S
C618 H630 0.956 . S
C618 H631 0.961 . S
C618 H632 0.961 . S
C619 C616 1.539 . S
C619 H633 0.958 . S
C619 H634 0.961 . S
C619 H635 0.960 . S
H620 C604 0.931 . S
H621 C609 0.929 . S
H622 C610 0.960 . S
H623 C610 0.962 . S
H624 C610 0.960 . S
H625 C611 0.961 1_556 S
H626 C611 0.961 . S
H627 C611 0.961 . S
H628 C612 0.931 . S
H629 C617 0.930 . S
H630 C618 0.956 . S
H631 C618 0.961 . S
H632 C618 0.961 . S
H633 C619 0.958 . S
H634 C619 0.961 . S
H635 C619 0.960 . S
C636 C637 1.391 . S
C636 C638 1.394 . S
C636 H652 0.931 . S
C637 C636 1.391 . S
C637 C641 1.376 . S
C638 C636 1.394 . S
C638 C639 1.369 . S
C638 C642 1.531 . S
C639 C638 1.369 . S
C639 C640 1.410 . S
C639 C647 1.503 . S
C640 C639 1.410 . S
C640 C641 1.392 . S
C640 C643 1.511 . S
C641 C637 1.376 . S
C641 C640 1.392 . S
C641 H653 0.929 . S
C642 C638 1.531 . S
C642 H654 0.960 . S
C642 H655 0.962 . S
C642 H656 0.960 . S
C643 C640 1.511 . S
C643 H657 0.961 . S
C643 H658 0.961 . S
C643 H659 0.961 . S
C644 C645 1.370 . S
C644 C646 1.363 . S
C644 H660 0.931 . S
C645 C644 1.370 . S
C645 C649 1.408 . S
C646 C644 1.363 . S
C646 C647 1.370 . S
C646 C650 1.524 . S
C647 C639 1.503 . S
C647 C646 1.370 . S
C647 C648 1.403 . S
C648 C647 1.403 . S
C648 C649 1.404 . S
C648 C651 1.539 . S
C649 C645 1.408 . S
C649 C648 1.404 . S
C649 H661 0.930 . S
C650 C646 1.524 . S
C650 H662 0.956 . S
C650 H663 0.961 . S
C650 H664 0.961 . S
C651 C648 1.539 . S
C651 H665 0.958 . S
C651 H666 0.961 . S
C651 H667 0.960 . S
H652 C636 0.931 . S
H653 C641 0.929 . S
H654 C642 0.960 . S
H655 C642 0.962 . S
H656 C642 0.960 . S
H657 C643 0.961 . S
H658 C643 0.961 . S
H659 C643 0.961 . S
H660 C644 0.931 . S
H661 C649 0.930 . S
H662 C650 0.956 . S
H663 C650 0.961 . S
H664 C650 0.961 . S
H665 C651 0.958 . S
H666 C651 0.961 . S
H667 C651 0.960 . S
C668 C669 1.391 . S
C668 C670 1.394 . S
C668 H684 0.931 . S
C669 C668 1.391 . S
C669 C673 1.376 . S
C670 C668 1.394 . S
C670 C671 1.369 . S
C670 C674 1.531 . S
C671 C670 1.369 . S
C671 C672 1.410 . S
C671 C679 1.503 . S
C672 C671 1.410 . S
C672 C673 1.392 . S
C672 C675 1.511 . S
C673 C669 1.376 . S
C673 C672 1.392 . S
C673 H685 0.929 . S
C674 C670 1.531 . S
C674 H686 0.960 . S
C674 H687 0.962 . S
C674 H688 0.960 . S
C675 C672 1.511 . S
C675 H689 0.961 . S
C675 H690 0.961 . S
C675 H691 0.961 . S
C676 C677 1.370 . S
C676 C678 1.363 . S
C676 H692 0.931 . S
C677 C676 1.370 . S
C677 C681 1.408 . S
C678 C676 1.363 . S
C678 C679 1.370 . S
C678 C682 1.524 . S
C679 C671 1.503 . S
C679 C678 1.370 . S
C679 C680 1.403 . S
C680 C679 1.403 . S
C680 C681 1.404 . S
C680 C683 1.539 . S
C681 C677 1.408 . S
C681 C680 1.404 . S
C681 H693 0.930 . S
C682 C678 1.524 . S
C682 H694 0.956 . S
C682 H695 0.961 . S
C682 H696 0.961 . S
C683 C680 1.539 . S
C683 H697 0.958 . S
C683 H698 0.961 . S
C683 H699 0.960 . S
H684 C668 0.931 . S
H685 C673 0.929 . S
H686 C674 0.960 . S
H687 C674 0.962 . S
H688 C674 0.960 . S
H689 C675 0.961 . S
H690 C675 0.961 . S
H691 C675 0.961 . S
H692 C676 0.931 . S
H693 C681 0.930 . S
H694 C682 0.956 . S
H695 C682 0.961 . S
H696 C682 0.961 . S
H697 C683 0.958 . S
H698 C683 0.961 . S
H699 C683 0.960 . S
C700 C701 1.391 . S
C700 C702 1.394 . S
C700 H716 0.931 . S
C701 C700 1.391 . S
C701 C705 1.376 . S
C702 C700 1.394 . S
C702 C703 1.369 . S
C702 C706 1.531 . S
C703 C702 1.369 . S
C703 C704 1.410 . S
C703 C711 1.503 . S
C704 C703 1.410 . S
C704 C705 1.392 . S
C704 C707 1.511 . S
C705 C701 1.376 . S
C705 C704 1.392 . S
C705 H717 0.929 . S
C706 C702 1.531 . S
C706 H718 0.960 . S
C706 H719 0.962 . S
C706 H720 0.960 . S
C707 C704 1.511 . S
C707 H721 0.961 . S
C707 H722 0.961 . S
C707 H723 0.961 . S
C708 C709 1.370 . S
C708 C710 1.363 . S
C708 H724 0.931 . S
C709 C708 1.370 . S
C709 C713 1.408 . S
C710 C708 1.363 . S
C710 C711 1.370 . S
C710 C714 1.524 . S
C711 C703 1.503 . S
C711 C710 1.370 . S
C711 C712 1.403 . S
C712 C711 1.403 . S
C712 C713 1.404 . S
C712 C715 1.539 . S
C713 C709 1.408 . S
C713 C712 1.404 . S
C713 H725 0.930 . S
C714 C710 1.524 . S
C714 H726 0.956 . S
C714 H727 0.961 . S
C714 H728 0.961 . S
C715 C712 1.539 . S
C715 H729 0.958 . S
C715 H730 0.961 . S
C715 H731 0.960 . S
H716 C700 0.931 . S
H717 C705 0.929 . S
H718 C706 0.960 . S
H719 C706 0.962 . S
H720 C706 0.960 . S
H721 C707 0.961 . S
H722 C707 0.961 . S
H723 C707 0.961 . S
H724 C708 0.931 . S
H725 C713 0.930 . S
H726 C714 0.956 . S
H727 C714 0.961 . S
H728 C714 0.961 . S
H729 C715 0.958 . S
H730 C715 0.961 . S
H731 C715 0.960 . S
C732 C733 1.391 . S
C732 C734 1.394 . S
C732 H748 0.931 . S
C733 C732 1.391 . S
C733 C737 1.376 . S
C734 C732 1.394 . S
C734 C735 1.369 . S
C734 C738 1.531 . S
C735 C734 1.369 . S
C735 C736 1.410 . S
C735 C743 1.503 . S
C736 C735 1.410 . S
C736 C737 1.392 . S
C736 C739 1.511 . S
C737 C733 1.376 . S
C737 C736 1.392 . S
C737 H749 0.929 . S
C738 C734 1.531 . S
C738 H750 0.960 . S
C738 H751 0.962 . S
C738 H752 0.960 . S
C739 C736 1.511 . S
C739 H753 0.961 . S
C739 H754 0.961 . S
C739 H755 0.961 . S
C740 C741 1.370 . S
C740 C742 1.363 . S
C740 H756 0.931 . S
C741 C740 1.370 . S
C741 C745 1.408 . S
C742 C740 1.363 . S
C742 C743 1.370 . S
C742 C746 1.524 . S
C743 C735 1.503 . S
C743 C742 1.370 . S
C743 C744 1.403 . S
C744 C743 1.403 . S
C744 C745 1.404 . S
C744 C747 1.539 . S
C745 C741 1.408 . S
C745 C744 1.404 . S
C745 H757 0.930 . S
C746 C742 1.524 . S
C746 H758 0.956 . S
C746 H759 0.961 . S
C746 H760 0.961 . S
C747 C744 1.539 . S
C747 H761 0.958 . S
C747 H762 0.961 . S
C747 H763 0.960 . S
H748 C732 0.931 . S
H749 C737 0.929 . S
H750 C738 0.960 . S
H751 C738 0.962 . S
H752 C738 0.960 . S
H753 C739 0.961 . S
H754 C739 0.961 . S
H755 C739 0.961 . S
H756 C740 0.931 . S
H757 C745 0.930 . S
H758 C746 0.956 . S
H759 C746 0.961 . S
H760 C746 0.961 . S
H761 C747 0.958 . S
H762 C747 0.961 . S
H763 C747 0.960 . S
C764 C765 1.391 . S
C764 C766 1.394 . S
C764 H780 0.931 . S
C765 C764 1.391 . S
C765 C769 1.376 . S
C766 C764 1.394 . S
C766 C767 1.369 . S
C766 C770 1.531 . S
C767 C766 1.369 . S
C767 C768 1.410 . S
C767 C775 1.503 . S
C768 C767 1.410 . S
C768 C769 1.392 . S
C768 C771 1.511 . S
C769 C765 1.376 . S
C769 C768 1.392 . S
C769 H781 0.929 . S
C770 C766 1.531 . S
C770 H782 0.960 . S
C770 H783 0.962 . S
C770 H784 0.960 . S
C771 C768 1.511 . S
C771 H785 0.961 1_556 S
C771 H786 0.961 . S
C771 H787 0.961 . S
C772 C773 1.370 . S
C772 C774 1.363 . S
C772 H788 0.931 . S
C773 C772 1.370 . S
C773 C777 1.408 . S
C774 C772 1.363 . S
C774 C775 1.370 . S
C774 C778 1.524 . S
C775 C767 1.503 . S
C775 C774 1.370 . S
C775 C776 1.403 . S
C776 C775 1.403 . S
C776 C777 1.404 . S
C776 C779 1.539 . S
C777 C773 1.408 . S
C777 C776 1.404 . S
C777 H789 0.930 . S
C778 C774 1.524 . S
C778 H790 0.956 . S
C778 H791 0.961 . S
C778 H792 0.961 . S
C779 C776 1.539 . S
C779 H793 0.958 . S
C779 H794 0.961 . S
C779 H795 0.960 . S
H780 C764 0.931 . S
H781 C769 0.929 . S
H782 C770 0.960 . S
H783 C770 0.962 . S
H784 C770 0.960 . S
H785 C771 0.961 1_554 S
H786 C771 0.961 . S
H787 C771 0.961 . S
H788 C772 0.931 . S
H789 C777 0.930 . S
H790 C778 0.956 . S
H791 C778 0.961 . S
H792 C778 0.961 . S
H793 C779 0.958 . S
H794 C779 0.961 . S
H795 C779 0.960 . S
C796 C797 1.391 . S
C796 C798 1.394 . S
C796 H812 0.931 . S
C797 C796 1.391 . S
C797 C801 1.376 . S
C798 C796 1.394 . S
C798 C799 1.369 . S
C798 C802 1.531 . S
C799 C798 1.369 . S
C799 C800 1.410 . S
C799 C807 1.503 . S
C800 C799 1.410 . S
C800 C801 1.392 . S
C800 C803 1.511 . S
C801 C797 1.376 . S
C801 C800 1.392 . S
C801 H813 0.929 . S
C802 C798 1.531 . S
C802 H814 0.960 . S
C802 H815 0.962 . S
C802 H816 0.960 . S
C803 C800 1.511 . S
C803 H817 0.961 . S
C803 H818 0.961 . S
C803 H819 0.961 . S
C804 C805 1.370 . S
C804 C806 1.363 . S
C804 H820 0.931 . S
C805 C804 1.370 . S
C805 C809 1.408 . S
C806 C804 1.363 . S
C806 C807 1.370 . S
C806 C810 1.524 . S
C807 C799 1.503 . S
C807 C806 1.370 . S
C807 C808 1.403 . S
C808 C807 1.403 . S
C808 C809 1.404 . S
C808 C811 1.539 . S
C809 C805 1.408 . S
C809 C808 1.404 . S
C809 H821 0.930 . S
C810 C806 1.524 . S
C810 H822 0.956 . S
C810 H823 0.961 . S
C810 H824 0.961 . S
C811 C808 1.539 . S
C811 H825 0.958 . S
C811 H826 0.961 . S
C811 H827 0.960 . S
H812 C796 0.931 . S
H813 C801 0.929 . S
H814 C802 0.960 . S
H815 C802 0.962 . S
H816 C802 0.960 . S
H817 C803 0.961 . S
H818 C803 0.961 . S
H819 C803 0.961 . S
H820 C804 0.931 . S
H821 C809 0.930 . S
H822 C810 0.956 . S
H823 C810 0.961 . S
H824 C810 0.961 . S
H825 C811 0.958 . S
H826 C811 0.961 . S
H827 C811 0.960 . S
C828 C829 1.391 . S
C828 C830 1.394 . S
C828 H844 0.931 . S
C829 C828 1.391 . S
C829 C833 1.376 . S
C830 C828 1.394 . S
C830 C831 1.369 . S
C830 C834 1.531 . S
C831 C830 1.369 . S
C831 C832 1.410 . S
C831 C839 1.503 . S
C832 C831 1.410 . S
C832 C833 1.392 . S
C832 C835 1.511 . S
C833 C829 1.376 . S
C833 C832 1.392 . S
C833 H845 0.929 . S
C834 C830 1.531 . S
C834 H846 0.960 . S
C834 H847 0.962 . S
C834 H848 0.960 . S
C835 C832 1.511 . S
C835 H849 0.961 . S
C835 H850 0.961 . S
C835 H851 0.961 . S
C836 C837 1.370 . S
C836 C838 1.363 . S
C836 H852 0.931 . S
C837 C836 1.370 . S
C837 C841 1.408 . S
C838 C836 1.363 . S
C838 C839 1.370 . S
C838 C842 1.524 . S
C839 C831 1.503 . S
C839 C838 1.370 . S
C839 C840 1.403 . S
C840 C839 1.403 . S
C840 C841 1.404 . S
C840 C843 1.539 . S
C841 C837 1.408 . S
C841 C840 1.404 . S
C841 H853 0.930 . S
C842 C838 1.524 . S
C842 H854 0.956 . S
C842 H855 0.961 . S
C842 H856 0.961 . S
C843 C840 1.539 . S
C843 H857 0.958 1_556 S
C843 H858 0.961 . S
C843 H859 0.960 . S
H844 C828 0.931 . S
H845 C833 0.929 . S
H846 C834 0.960 . S
H847 C834 0.962 . S
H848 C834 0.960 . S
H849 C835 0.961 . S
H850 C835 0.961 . S
H851 C835 0.961 . S
H852 C836 0.931 . S
H853 C841 0.930 . S
H854 C842 0.956 . S
H855 C842 0.961 . S
H856 C842 0.961 . S
H857 C843 0.958 1_554 S
H858 C843 0.961 . S
H859 C843 0.960 . S
C860 C861 1.391 . S
C860 C862 1.394 . S
C860 H876 0.931 . S
C861 C860 1.391 . S
C861 C865 1.376 . S
C862 C860 1.394 . S
C862 C863 1.369 . S
C862 C866 1.531 . S
C863 C862 1.369 . S
C863 C864 1.410 . S
C863 C871 1.503 . S
C864 C863 1.410 . S
C864 C865 1.392 . S
C864 C867 1.511 . S
C865 C861 1.376 . S
C865 C864 1.392 . S
C865 H877 0.929 . S
C866 C862 1.531 . S
C866 H878 0.960 . S
C866 H879 0.962 . S
C866 H880 0.960 . S
C867 C864 1.511 . S
C867 H881 0.961 . S
C867 H882 0.961 . S
C867 H883 0.961 . S
C868 C869 1.370 . S
C868 C870 1.363 . S
C868 H884 0.931 . S
C869 C868 1.370 . S
C869 C873 1.408 . S
C870 C868 1.363 . S
C870 C871 1.370 . S
C870 C874 1.524 . S
C871 C863 1.503 . S
C871 C870 1.370 . S
C871 C872 1.403 . S
C872 C871 1.403 . S
C872 C873 1.404 . S
C872 C875 1.539 . S
C873 C869 1.408 . S
C873 C872 1.404 . S
C873 H885 0.930 . S
C874 C870 1.524 . S
C874 H886 0.956 . S
C874 H887 0.961 . S
C874 H888 0.961 . S
C875 C872 1.539 . S
C875 H889 0.958 . S
C875 H890 0.961 . S
C875 H891 0.960 . S
H876 C860 0.931 . S
H877 C865 0.929 . S
H878 C866 0.960 . S
H879 C866 0.962 . S
H880 C866 0.960 . S
H881 C867 0.961 . S
H882 C867 0.961 . S
H883 C867 0.961 . S
H884 C868 0.931 . S
H885 C873 0.930 . S
H886 C874 0.956 . S
H887 C874 0.961 . S
H888 C874 0.961 . S
H889 C875 0.958 . S
H890 C875 0.961 . S
H891 C875 0.960 . S
C892 C893 1.391 . S
C892 C894 1.394 . S
C892 H908 0.931 . S
C893 C892 1.391 . S
C893 C897 1.376 . S
C894 C892 1.394 . S
C894 C895 1.369 . S
C894 C898 1.531 . S
C895 C894 1.369 . S
C895 C896 1.410 . S
C895 C903 1.503 . S
C896 C895 1.410 . S
C896 C897 1.392 . S
C896 C899 1.511 . S
C897 C893 1.376 . S
C897 C896 1.392 . S
C897 H909 0.929 . S
C898 C894 1.531 . S
C898 H910 0.960 . S
C898 H911 0.962 . S
C898 H912 0.960 . S
C899 C896 1.511 . S
C899 H913 0.961 . S
C899 H914 0.961 . S
C899 H915 0.961 . S
C900 C901 1.370 . S
C900 C902 1.363 . S
C900 H916 0.931 . S
C901 C900 1.370 . S
C901 C905 1.408 . S
C902 C900 1.363 . S
C902 C903 1.370 . S
C902 C906 1.524 . S
C903 C895 1.503 . S
C903 C902 1.370 . S
C903 C904 1.403 . S
C904 C903 1.403 . S
C904 C905 1.404 . S
C904 C907 1.539 . S
C905 C901 1.408 . S
C905 C904 1.404 . S
C905 H917 0.930 . S
C906 C902 1.524 . S
C906 H918 0.956 . S
C906 H919 0.961 . S
C906 H920 0.961 . S
C907 C904 1.539 . S
C907 H921 0.958 . S
C907 H922 0.961 . S
C907 H923 0.960 . S
H908 C892 0.931 . S
H909 C897 0.929 . S
H910 C898 0.960 . S
H911 C898 0.962 . S
H912 C898 0.960 . S
H913 C899 0.961 . S
H914 C899 0.961 . S
H915 C899 0.961 . S
H916 C900 0.931 . S
H917 C905 0.930 . S
H918 C906 0.956 . S
H919 C906 0.961 . S
H920 C906 0.961 . S
H921 C907 0.958 . S
H922 C907 0.961 . S
H923 C907 0.960 . S
C157 C138 1.455 . S
C165 C8 1.459 . S
C189 C21 1.369 . S
C197 C151 1.349 . S
C221 C34 1.423 . S
C229 C86 1.451 . S
C253 C99 1.419 . S
C261 C47 1.434 . S
C285 C112 1.308 . S
C293 C60 1.335 . S
C317 C73 1.419 . S
C325 C125 1.450 . S
C349 C0 0.915 . S
C357 C91 0.911 . S
C381 C13 0.763 . S
C389 C104 0.794 . S
C413 C117 0.871 . S
C421 C26 0.900 . S
C445 C130 0.914 . S
C453 C39 0.878 . S
C477 C143 0.805 . S
C485 C52 0.786 . S
C509 C78 0.852 . S
C517 C65 0.901 . S
C541 C10 0.811 . S
C549 C57 0.824 . S
C573 C23 0.808 . S
C581 C70 0.842 . S
C605 C36 0.785 . S
C613 C5 0.796 . S
C637 C49 0.903 . S
C645 C18 0.865 . S
C669 C62 0.791 . S
C677 C31 0.828 . S
C701 C75 0.868 . S
C709 C44 0.828 . S
C733 C88 0.801 . S
C741 C109 0.811 . S
C765 C101 0.790 . S
C773 C122 0.796 . S
C797 C135 0.816 . S
C805 C114 0.832 . S
C829 C127 0.905 . S
C837 C148 0.861 . S
C861 C140 0.794 . S
C869 C83 0.797 . S
C893 C153 0.842 . S
C901 C96 0.859 . S
