# Generated by pormake.
# Topology wio, (6)-cn, num edge types: 1
# Building blocks:
#     Node 0, Type 0, BuildingBlock: KUMJIN_clean_sbu_1, # of connection points: 6
#     Node 1, Type 0, BuildingBlock: KUMJIN_clean_sbu_1, # of connection points: 6
#     Node 2, Type 0, BuildingBlock: KUMJIN_clean_sbu_1, # of connection points: 6
#     Node 3, Type 0, BuildingBlock: KUMJIN_clean_sbu_1, # of connection points: 6
#     Node 4, Type 0, BuildingBlock: KUMJIN_clean_sbu_1, # of connection points: 6
#     Node 5, Type 0, BuildingBlock: KUMJIN_clean_sbu_1, # of connection points: 6
#     Node 6, Type 0, BuildingBlock: KUMJIN_clean_sbu_1, # of connection points: 6
#     Node 7, Type 0, BuildingBlock: KUMJIN_clean_sbu_1, # of connection points: 6
#     Node 8, Type 0, BuildingBlock: KUMJIN_clean_sbu_1, # of connection points: 6
#     Node 9, Type 0, BuildingBlock: KUMJIN_clean_sbu_1, # of connection points: 6
#     Node 10, Type 0, BuildingBlock: KUMJIN_clean_sbu_1, # of connection points: 6
#     Node 11, Type 0, BuildingBlock: KUMJIN_clean_sbu_1, # of connection points: 6
#     Node 12, Type 0, BuildingBlock: KUMJIN_clean_sbu_1, # of connection points: 6
#     Node 13, Type 0, BuildingBlock: KUMJIN_clean_sbu_1, # of connection points: 6
#     Node 14, Type 0, BuildingBlock: KUMJIN_clean_sbu_1, # of connection points: 6
#     Node 15, Type 0, BuildingBlock: KUMJIN_clean_sbu_1, # of connection points: 6
#     Node 16, Type 0, BuildingBlock: KUMJIN_clean_sbu_1, # of connection points: 6
#     Node 17, Type 0, BuildingBlock: KUMJIN_clean_sbu_1, # of connection points: 6
#     Node 18, Type 0, BuildingBlock: KUMJIN_clean_sbu_1, # of connection points: 6
#     Node 19, Type 0, BuildingBlock: KUMJIN_clean_sbu_1, # of connection points: 6
#     Node 20, Type 0, BuildingBlock: KUMJIN_clean_sbu_1, # of connection points: 6
#     Node 21, Type 0, BuildingBlock: KUMJIN_clean_sbu_1, # of connection points: 6
#     Node 22, Type 0, BuildingBlock: KUMJIN_clean_sbu_1, # of connection points: 6
#     Node 23, Type 0, BuildingBlock: KUMJIN_clean_sbu_1, # of connection points: 6
#     Node 24, Type 0, BuildingBlock: KUMJIN_clean_sbu_1, # of connection points: 6
#     Node 25, Type 0, BuildingBlock: KUMJIN_clean_sbu_1, # of connection points: 6
#     Node 26, Type 0, BuildingBlock: KUMJIN_clean_sbu_1, # of connection points: 6
#     Node 27, Type 0, BuildingBlock: KUMJIN_clean_sbu_1, # of connection points: 6
#     Node 28, Type 0, BuildingBlock: KUMJIN_clean_sbu_1, # of connection points: 6
#     Node 29, Type 0, BuildingBlock: KUMJIN_clean_sbu_1, # of connection points: 6
#     Node 30, Type 0, BuildingBlock: KUMJIN_clean_sbu_1, # of connection points: 6
#     Node 31, Type 0, BuildingBlock: KUMJIN_clean_sbu_1, # of connection points: 6
#     Edge 32, Type (0, 0), None
#     Edge 33, Type (0, 0), None
#     Edge 34, Type (0, 0), None
#     Edge 35, Type (0, 0), None
#     Edge 36, Type (0, 0), None
#     Edge 37, Type (0, 0), None
#     Edge 38, Type (0, 0), None
#     Edge 39, Type (0, 0), None
#     Edge 40, Type (0, 0), None
#     Edge 41, Type (0, 0), None
#     Edge 42, Type (0, 0), None
#     Edge 43, Type (0, 0), None
#     Edge 44, Type (0, 0), None
#     Edge 45, Type (0, 0), None
#     Edge 46, Type (0, 0), None
#     Edge 47, Type (0, 0), None
#     Edge 48, Type (0, 0), None
#     Edge 49, Type (0, 0), None
#     Edge 50, Type (0, 0), None
#     Edge 51, Type (0, 0), None
#     Edge 52, Type (0, 0), None
#     Edge 53, Type (0, 0), None
#     Edge 54, Type (0, 0), None
#     Edge 55, Type (0, 0), None
#     Edge 56, Type (0, 0), None
#     Edge 57, Type (0, 0), None
#     Edge 58, Type (0, 0), None
#     Edge 59, Type (0, 0), None
#     Edge 60, Type (0, 0), None
#     Edge 61, Type (0, 0), None
#     Edge 62, Type (0, 0), None
#     Edge 63, Type (0, 0), None
#     Edge 64, Type (0, 0), None
#     Edge 65, Type (0, 0), None
#     Edge 66, Type (0, 0), None
#     Edge 67, Type (0, 0), None
#     Edge 68, Type (0, 0), None
#     Edge 69, Type (0, 0), None
#     Edge 70, Type (0, 0), None
#     Edge 71, Type (0, 0), None
#     Edge 72, Type (0, 0), None
#     Edge 73, Type (0, 0), None
#     Edge 74, Type (0, 0), None
#     Edge 75, Type (0, 0), None
#     Edge 76, Type (0, 0), None
#     Edge 77, Type (0, 0), None
#     Edge 78, Type (0, 0), None
#     Edge 79, Type (0, 0), None
#     Edge 80, Type (0, 0), None
#     Edge 81, Type (0, 0), None
#     Edge 82, Type (0, 0), None
#     Edge 83, Type (0, 0), None
#     Edge 84, Type (0, 0), None
#     Edge 85, Type (0, 0), None
#     Edge 86, Type (0, 0), None
#     Edge 87, Type (0, 0), None
#     Edge 88, Type (0, 0), None
#     Edge 89, Type (0, 0), None
#     Edge 90, Type (0, 0), None
#     Edge 91, Type (0, 0), None
#     Edge 92, Type (0, 0), None
#     Edge 93, Type (0, 0), None
#     Edge 94, Type (0, 0), None
#     Edge 95, Type (0, 0), None
#     Edge 96, Type (0, 0), None
#     Edge 97, Type (0, 0), None
#     Edge 98, Type (0, 0), None
#     Edge 99, Type (0, 0), None
#     Edge 100, Type (0, 0), None
#     Edge 101, Type (0, 0), None
#     Edge 102, Type (0, 0), None
#     Edge 103, Type (0, 0), None
#     Edge 104, Type (0, 0), None
#     Edge 105, Type (0, 0), None
#     Edge 106, Type (0, 0), None
#     Edge 107, Type (0, 0), None
#     Edge 108, Type (0, 0), None
#     Edge 109, Type (0, 0), None
#     Edge 110, Type (0, 0), None
#     Edge 111, Type (0, 0), None
#     Edge 112, Type (0, 0), None
#     Edge 113, Type (0, 0), None
#     Edge 114, Type (0, 0), None
#     Edge 115, Type (0, 0), None
#     Edge 116, Type (0, 0), None
#     Edge 117, Type (0, 0), None
#     Edge 118, Type (0, 0), None
#     Edge 119, Type (0, 0), None
#     Edge 120, Type (0, 0), None
#     Edge 121, Type (0, 0), None
#     Edge 122, Type (0, 0), None
#     Edge 123, Type (0, 0), None
#     Edge 124, Type (0, 0), None
#     Edge 125, Type (0, 0), None
#     Edge 126, Type (0, 0), None
#     Edge 127, Type (0, 0), None
# Relax obj value: 0.209
# Max RMSD: 0.263
# Mean RMSD: 0.263
data_MOF--net-wio--node1-KUMJIN_clean_sbu_1--edge1-none
_symmetry_space_group_name_H-M    P1
_symmetry_Int_Tables_number       1
_symmetry_cell_setting            triclinic
loop_
_symmetry_equiv_pos_as_xyz
'x, y, z'
_cell_length_a     35.197039
_cell_length_b     35.113399
_cell_length_c     28.338196
_cell_angle_alpha  90.036632
_cell_angle_beta   90.01982
_cell_angle_gamma 89.945419
loop_
_atom_site_label
_atom_site_type_symbol
_atom_site_fract_x
_atom_site_fract_y
_atom_site_fract_z
_atom_type_partial_charge
Eu0 Eu 0.064 0.08592 0.30154 0.0
C1 C 0.25891 0.08647 0.36123 0.0
N2 N 0.23187 0.11048 0.34437 0.0
C3 C 0.24955 0.15997 0.40142 0.0
C4 C 0.28025 0.10053 0.41622 0.0
C5 C 0.23025 0.14703 0.36076 0.0
C6 C 0.27364 0.13762 0.42915 0.0
C7 C 0.26986 -0.00212 0.36747 0.0
C8 C 0.25288 0.03945 0.341 0.0
C9 C 0.28945 -0.0037 0.42186 0.0
C10 C 0.29833 0.06495 0.45798 0.0
Eu11 Eu 0.18067 0.08509 0.2949 0.0
N12 N 0.21644 0.03404 0.32658 0.0
C13 C 0.25056 0.96518 0.36064 0.0
C14 C 0.1963 0.00449 0.34629 0.0
C15 C 0.21221 0.97059 0.36164 0.0
H16 H 0.21133 0.16704 0.34409 0.0
H17 H 0.19429 0.94937 0.37771 0.0
H18 H 0.04952 0.00049 0.243 0.0
H19 H 0.01513 0.22525 0.26596 0.0
H20 H 0.16705 0.00707 0.35343 0.0
H21 H 0.26203 0.93914 0.37529 0.0
H22 H 0.0548 0.17793 0.30229 0.0
H23 H 0.2424 0.1879 0.41436 0.0
H24 H 0.29332 0.01049 0.43602 0.0
H25 H 0.30842 0.07463 0.49244 0.0
H26 H 0.01788 0.97932 0.17079 0.0
H27 H 0.28449 0.14846 0.46227 0.0
H28 H 0.96852 0.20555 0.20462 0.0
N29 N 0.0316 0.05837 0.23656 0.0
C30 C 0.01044 0.08346 0.2113 0.0
C31 C 0.01583 0.00878 0.18168 0.0
C32 C -0.00935 0.07204 0.17047 0.0
C33 C 0.03382 0.02109 0.22296 0.0
C34 C -0.00502 0.03462 0.15468 0.0
N35 N 0.03326 0.13262 0.26056 0.0
C36 C 0.03611 0.16944 0.27414 0.0
C37 C -0.01268 0.14777 0.20155 0.0
C38 C 0.01018 0.12132 0.22497 0.0
C39 C -0.01212 0.18521 0.21805 0.0
C40 C 0.01329 0.19637 0.25332 0.0
H41 H 0.98165 0.02518 0.12225 0.0
H42 H 0.95147 0.08997 0.11574 0.0
H43 H 0.94672 0.15571 0.14462 0.0
O44 O 0.02429 0.11221 0.35315 0.0
O45 O 0.0892 0.10432 0.2249 0.0
O46 O 0.147 0.07317 0.2235 0.0
O47 O 0.02816 0.05147 0.3482 0.0
O48 O 0.09162 0.13449 0.3477 0.0
O49 O 0.15226 0.14285 0.3184 0.0
O50 O 0.22561 0.07727 0.24611 0.0
O51 O 0.16691 0.07333 0.37158 0.0
O52 O 0.11947 0.07858 0.3271 0.0
O53 O 0.19985 0.13367 0.25155 0.0
O54 O 0.14823 0.02495 0.27868 0.0
O55 O 0.08537 0.02337 0.3065 0.0
C56 C 0.11996 0.09252 0.20007 0.0
C57 C 0.97225 0.07594 0.38646 0.0
C58 C 0.92044 0.07781 0.44737 0.0
C59 C 0.89874 0.05641 0.41499 0.0
C60 C 0.94781 0.05666 0.35584 0.0
C61 C 0.91163 0.04681 0.37018 0.0
C62 C 0.95827 0.08748 0.43238 0.0
C63 C 0.12523 0.15214 0.34932 0.0
C64 C 0.0128 0.08005 0.37087 0.0
C65 C 0.96761 0.09841 0.1466 0.0
C66 C 0.9651 0.13601 0.16295 0.0
C67 C 0.13069 0.07161 0.36961 0.0
C68 C 0.26095 0.12595 0.21488 0.0
C69 C 0.31056 0.10844 0.16059 0.0
C70 C 0.3375 0.1253 0.19085 0.0
C71 C 0.28737 0.14263 0.24544 0.0
C72 C 0.27237 0.11153 0.17154 0.0
C73 C 0.32568 0.14337 0.23246 0.0
C74 C 0.11724 0.00529 0.29413 0.0
C75 C 0.22452 0.11183 0.23009 0.0
H76 H 0.87113 0.04643 0.42315 0.0
H77 H 0.95722 0.04794 0.32104 0.0
H78 H 0.89343 0.03082 0.34657 0.0
H79 H 0.97678 0.10287 0.4562 0.0
H80 H 0.36745 0.12425 0.18352 0.0
H81 H 0.27883 0.15331 0.27963 0.0
H82 H 0.2513 0.09883 0.14864 0.0
H83 H 0.34647 0.15594 0.2559 0.0
Eu84 Eu 0.12952 0.81574 0.55317 0.0
C85 C 0.13047 0.01148 0.61029 0.0
N86 N 0.10615 -0.01515 0.59323 0.0
C87 C 0.05657 0.00412 0.64916 0.0
C88 C 0.11637 0.03344 0.66487 0.0
C89 C 0.06948 -0.01581 0.60891 0.0
C90 C 0.0791 0.02781 0.67716 0.0
C91 C 0.2189 0.02085 0.61763 0.0
C92 C 0.1774 0.0044 0.59078 0.0
C93 C 0.22037 0.0408 0.67185 0.0
C94 C 0.15181 0.05115 0.70695 0.0
Eu95 Eu 0.13089 0.93234 0.5453 0.0
N96 N 0.18229 0.96767 0.57678 0.0
C97 C 0.25126 0.00095 0.61142 0.0
C98 C 0.21139 0.94712 0.5969 0.0
C99 C 0.24536 0.9626 0.61243 0.0
H100 H 0.04939 0.96541 0.59217 0.0
H101 H 0.2662 0.94439 0.62884 0.0
H102 H 0.21398 0.80137 0.49276 0.0
H103 H -0.00978 0.76731 0.51991 0.0
H104 H 0.2083 0.91787 0.60437 0.0
H105 H 0.27717 0.01216 0.62648 0.0
H106 H 0.03759 0.8076 0.55425 0.0
H107 H 0.02855 -0.00243 0.66179 0.0
H108 H 0.20614 0.04503 0.68579 0.0
H109 H 0.14204 0.06168 0.74117 0.0
H110 H 0.23432 0.76884 0.42076 0.0
H111 H 0.06817 0.03911 0.71001 0.0
H112 H 0.00932 0.71898 0.46007 0.0
N113 N 0.15637 0.78271 0.48814 0.0
C114 C 0.13113 0.7611 0.46372 0.0
C115 C 0.20515 0.76656 0.43246 0.0
C116 C 0.14213 0.74067 0.42318 0.0
C117 C 0.19332 0.78507 0.47362 0.0
C118 C 0.17922 0.74494 0.40658 0.0
N119 N 0.08254 0.78496 0.51291 0.0
C120 C 0.04589 0.78828 0.52666 0.0
C121 C 0.0669 0.73785 0.45543 0.0
C122 C 0.0935 0.76115 0.47786 0.0
C123 C 0.02972 0.73873 0.47245 0.0
C124 C 0.01888 0.76504 0.50693 0.0
H125 H 0.18826 0.73121 0.37422 0.0
H126 H 0.12374 0.70055 0.36965 0.0
H127 H 0.05845 0.6962 0.39969 0.0
O128 O 0.10323 0.77636 0.60513 0.0
O129 O 0.11105 0.84063 0.47636 0.0
O130 O 0.14309 0.89786 0.47462 0.0
O131 O 0.16379 0.78003 0.60031 0.0
O132 O 0.08111 0.84396 0.59903 0.0
O133 O 0.07312 0.9048 0.56953 0.0
O134 O 0.08241 0.9501 0.5009 0.0
O135 O 0.14191 0.91921 0.62244 0.0
O136 O 0.13719 0.87144 0.57827 0.0
O137 O 0.13812 0.97714 0.49626 0.0
O138 O 0.19065 0.89946 0.52908 0.0
O139 O 0.19215 0.83665 0.55745 0.0
C140 C 0.12317 0.87118 0.45133 0.0
C141 C 0.13929 0.72405 0.63846 0.0
C142 C 0.13742 0.67186 0.6991 0.0
C143 C 0.1591 0.65038 0.66672 0.0
C144 C 0.15865 0.69968 0.6078 0.0
C145 C 0.16869 0.66344 0.62203 0.0
C146 C 0.12766 0.70983 0.68425 0.0
C147 C 0.0635 0.87771 0.60021 0.0
C148 C 0.13526 0.76477 0.623 0.0
C149 C 0.11562 0.71718 0.40028 0.0
C150 C 0.07829 0.7149 0.41726 0.0
C151 C 0.14368 0.88291 0.62081 0.0
C152 C 0.08914 0.01119 0.46354 0.0
C153 C 0.10586 0.06109 0.4092 0.0
C154 C 0.08716 0.08765 0.4384 0.0
C155 C 0.07055 0.03721 0.49297 0.0
C156 C 0.10426 0.02285 0.42074 0.0
C157 C 0.06859 0.07543 0.47944 0.0
C158 C 0.21025 0.86839 0.54455 0.0
C159 C 0.10387 0.97514 0.47957 0.0
H160 H 0.16927 0.62276 0.67468 0.0
H161 H 0.16738 0.70921 0.57307 0.0
H162 H 0.18482 0.64533 0.59842 0.0
H163 H 0.11218 0.72828 0.70809 0.0
H164 H 0.08713 0.11764 0.43074 0.0
H165 H 0.05918 0.02848 0.5267 0.0
H166 H 0.11835 0.00203 0.39871 0.0
H167 H 0.05453 0.09594 0.50202 0.0
Eu168 Eu 0.40039 0.88025 0.80211 0.0
C169 C 0.20543 0.88003 0.86072 0.0
N170 N 0.23239 0.85598 0.84382 0.0
C171 C 0.21433 0.80632 0.90035 0.0
C172 C 0.18389 0.86585 0.91549 0.0
C173 C 0.23382 0.81935 0.8599 0.0
C174 C 0.19029 0.82867 0.92815 0.0
C175 C 0.19481 0.96865 0.86758 0.0
C176 C 0.21168 0.92712 0.84087 0.0
C177 C 0.17507 0.97007 0.92188 0.0
C178 C 0.16584 0.90132 0.95742 0.0
Eu179 Eu 0.2838 0.88134 0.79484 0.0
N180 N 0.24814 0.93247 0.82653 0.0
C181 C 0.21418 0.00133 0.86097 0.0
C182 C 0.26834 0.96197 0.84628 0.0
C183 C 0.25253 -0.00413 0.86177 0.0
H184 H 0.2527 0.79934 0.84318 0.0
H185 H 0.27053 0.01703 0.87786 0.0
H186 H 0.41514 0.96574 0.74367 0.0
H187 H 0.44964 0.741 0.76703 0.0
H188 H 0.29761 0.95933 0.8534 0.0
H189 H 0.2028 0.02735 0.8758 0.0
H190 H 0.4103 0.78839 0.80371 0.0
H191 H 0.22134 0.77833 0.9131 0.0
H192 H 0.17111 0.95584 0.93591 0.0
H193 H 0.15563 0.89153 0.99175 0.0
H194 H 0.44523 -0.01358 0.67033 0.0
H195 H 0.1793 0.81774 0.96113 0.0
H196 H 0.49545 0.76051 0.70479 0.0
N197 N 0.43244 0.90769 0.73684 0.0
C198 C 0.45316 0.88246 0.71117 0.0
C199 C 0.44733 0.95698 0.68127 0.0
C200 C 0.47206 0.89362 0.66965 0.0
C201 C 0.43022 0.94495 0.7232 0.0
C202 C 0.46727 0.93088 0.65361 0.0
N203 N 0.43113 0.83351 0.76122 0.0
C204 C 0.42858 0.79676 0.77514 0.0
C205 C 0.47628 0.81815 0.7014 0.0
C206 C 0.45371 0.84468 0.72511 0.0
C207 C 0.47614 0.78084 0.71829 0.0
C208 C 0.45124 0.7698 0.75412 0.0
H209 H 0.47969 0.94004 0.62053 0.0
H210 H 0.51022 0.87541 0.61397 0.0
H211 H 0.51594 0.81 0.6435 0.0
O212 O 0.44086 0.85398 0.85303 0.0
O213 O 0.37507 0.86178 0.72543 0.0
O214 O 0.31765 0.89348 0.72381 0.0
O215 O 0.43556 0.91465 0.84962 0.0
O216 O 0.37255 0.8317 0.84805 0.0
O217 O 0.31203 0.82347 0.81831 0.0
O218 O 0.239 0.88924 0.74588 0.0
O219 O 0.29731 0.89302 0.87164 0.0
O220 O 0.34486 0.88763 0.82739 0.0
O221 O 0.26467 0.83281 0.75128 0.0
O222 O 0.31643 0.9414 0.77872 0.0
O223 O 0.37921 0.94291 0.80684 0.0
C224 C 0.34449 0.87385 0.70046 0.0
C225 C 0.49196 0.89114 0.88782 0.0
C226 C 0.54343 0.88987 0.94939 0.0
C227 C 0.5641 0.91361 0.91857 0.0
C228 C 0.51563 0.91268 0.85866 0.0
C229 C 0.55108 0.92399 0.87411 0.0
C230 C 0.50626 0.87869 0.93328 0.0
C231 C 0.33892 0.81407 0.84938 0.0
C232 C 0.45159 0.8861 0.8716 0.0
C233 C 0.49473 0.86715 0.64538 0.0
C234 C 0.49777 0.82972 0.66211 0.0
C235 C 0.33354 0.89458 0.86985 0.0
C236 C 0.20352 0.84062 0.71472 0.0
C237 C 0.15373 0.85822 0.66073 0.0
C238 C 0.1269 0.84121 0.69095 0.0
C239 C 0.17722 0.82376 0.74523 0.0
C240 C 0.19195 0.8552 0.67155 0.0
C241 C 0.13887 0.82302 0.73239 0.0
C242 C 0.34744 0.96106 0.7942 0.0
C243 C 0.24003 0.85467 0.72983 0.0
H244 H 0.59104 0.9248 0.92773 0.0
H245 H 0.50605 0.92215 0.82423 0.0
H246 H 0.56856 0.94178 0.8517 0.0
H247 H 0.48841 0.86157 0.95599 0.0
H248 H 0.09692 0.84222 0.68369 0.0
H249 H 0.18587 0.8129 0.77928 0.0
H250 H 0.21294 0.86801 0.64868 0.0
H251 H 0.11816 0.81031 0.7558 0.0
Eu252 Eu 0.33467 0.15076 0.0529 0.0
C253 C 0.33388 0.95517 0.11012 0.0
N254 N 0.35818 0.98177 0.09305 0.0
C255 C 0.4079 0.96234 0.1487 0.0
C256 C 0.34812 0.93306 0.16454 0.0
C257 C 0.39489 0.98239 0.10862 0.0
C258 C 0.38544 0.9386 0.17668 0.0
C259 C 0.24547 0.9459 0.11777 0.0
C260 C 0.2869 0.96234 0.09083 0.0
C261 C 0.24414 0.92582 0.17186 0.0
C262 C 0.31277 0.9153 0.20665 0.0
Eu263 Eu 0.33339 0.03417 1.04508 0.0
N264 N 0.282 -0.00094 0.07687 0.0
C265 C 0.21311 0.96582 0.11179 0.0
C266 C 0.25291 0.01964 0.09699 0.0
C267 C 0.21899 0.00418 0.11267 0.0
H268 H 0.41494 0.00122 0.09192 0.0
H269 H 0.19814 0.02241 0.12903 0.0
H270 H 0.25042 0.16541 0.99225 0.0
H271 H 0.47397 0.19963 1.02139 0.0
H272 H 0.25594 0.04894 0.10425 0.0
H273 H 0.18726 0.95464 0.12702 0.0
H274 H 0.42649 0.1595 0.05543 0.0
H275 H 0.43598 0.9688 0.16124 0.0
H276 H 0.25842 0.92154 0.18573 0.0
H277 H 0.32263 0.90468 0.24078 0.0
H278 H 0.23032 0.1979 0.92011 0.0
H279 H 0.39646 0.92721 0.20942 0.0
H280 H 0.45534 0.247 0.96025 0.0
N281 N 0.30811 0.18379 0.98772 0.0
C282 C 0.3335 0.2052 0.96334 0.0
C283 C 0.25949 0.20005 0.93187 0.0
C284 C 0.32269 0.22552 0.92265 0.0
C285 C 0.27118 0.18156 0.9731 0.0
C286 C 0.28558 0.22145 0.906 0.0
N287 N 0.38182 0.18156 1.01311 0.0
C288 C 0.41835 0.17849 1.02744 0.0
C289 C 0.39783 0.2282 0.9553 0.0
C290 C 0.37107 0.20513 0.97774 0.0
C291 C 0.43488 0.22744 0.97273 0.0
C292 C 0.44546 0.20161 1.00783 0.0
H293 H 0.27664 0.23517 0.8736 0.0
H294 H 0.34146 0.26518 0.86886 0.0
H295 H 0.4068 0.26926 0.89913 0.0
O296 O 0.3608 0.18996 0.10525 0.0
O297 O 0.35343 0.12582 0.97617 0.0
O298 O 0.32156 0.06849 0.97418 0.0
O299 O 0.30025 0.18661 0.09973 0.0
O300 O 0.38298 0.12256 0.09887 0.0
O301 O 0.39111 0.06186 0.06904 0.0
O302 O 0.38189 0.0161 1.00096 0.0
O303 O 0.3224 0.04743 0.12223 0.0
O304 O 0.32689 0.09512 0.07804 0.0
O305 O 0.32613 -0.01086 0.99627 0.0
O306 O 0.27358 0.06691 1.02873 0.0
O307 O 0.27204 0.12983 0.05688 0.0
C308 C 0.34149 0.09523 0.95104 0.0
C309 C 0.32483 0.24246 0.13818 0.0
C310 C 0.32688 0.29472 0.19879 0.0
C311 C 0.30539 0.31628 0.16631 0.0
C312 C 0.30567 0.2669 0.10742 0.0
C313 C 0.29581 0.30321 0.12159 0.0
C314 C 0.33643 0.25667 0.18401 0.0
C315 C 0.40064 0.08886 0.0999 0.0
C316 C 0.32871 0.20172 0.12276 0.0
C317 C 0.34941 0.24871 0.89966 0.0
C318 C 0.38672 0.25086 0.91679 0.0
C319 C 0.32048 0.08371 0.12059 0.0
C320 C 0.37512 0.95488 0.96387 0.0
C321 C 0.35829 0.90499 0.90956 0.0
C322 C 0.37669 0.87836 0.93893 0.0
C323 C 0.39341 0.92882 0.9935 0.0
C324 C 0.36014 0.94324 0.92097 0.0
C325 C 0.39518 0.89055 0.98007 0.0
C326 C 0.25397 0.09803 1.04404 0.0
C327 C 0.36041 -0.009 0.97971 0.0
H328 H 0.29538 0.34397 0.17418 0.0
H329 H 0.29697 0.25737 0.07266 0.0
H330 H 0.27985 0.32138 0.0979 0.0
H331 H 0.35176 0.23816 0.20792 0.0
H332 H 0.37653 0.84835 0.93132 0.0
H333 H 0.40468 0.93755 1.0273 0.0
H334 H 0.34632 0.9641 0.89877 0.0
H335 H 0.40901 0.87 1.00279 0.0
Eu336 Eu 0.06395 0.88018 0.293 0.0
C337 C 0.25888 0.87769 0.23331 0.0
N338 N 0.23121 0.85429 0.24969 0.0
C339 C 0.24551 0.8063 0.18923 0.0
C340 C 0.27671 0.86559 0.17576 0.0
C341 C 0.22814 0.81832 0.23167 0.0
C342 C 0.26847 0.82931 0.16096 0.0
C343 C 0.27437 0.96581 0.23358 0.0
C344 C 0.25617 0.92373 0.25775 0.0
C345 C 0.29114 0.96947 0.17765 0.0
C346 C 0.2944 0.90231 0.13547 0.0
Eu347 Eu 0.18068 0.88017 0.30007 0.0
N348 N 0.21998 0.93022 0.27293 0.0
C349 C 0.25651 -0.00123 0.24374 0.0
C350 C 0.20088 0.9608 0.2539 0.0
C351 C 0.21802 -0.00538 0.24076 0.0
H352 H 0.20938 0.79825 0.24838 0.0
H353 H 0.20109 0.01662 0.2246 0.0
H354 H 0.05094 0.96618 0.3507 0.0
H355 H 0.01318 0.74173 0.33078 0.0
H356 H 0.17191 0.95886 0.24414 0.0
H357 H 0.26902 0.0251 0.23145 0.0
H358 H 0.05334 0.78831 0.29324 0.0
H359 H 0.23762 0.77875 0.17557 0.0
H360 H 0.29353 0.95606 0.16211 0.0
H361 H 0.30226 0.89389 0.09963 0.0
H362 H 0.02008 -0.01166 0.42297 0.0
H363 H 0.27757 0.81954 0.12653 0.0
H364 H 0.96702 0.76275 0.39192 0.0
N365 N 0.03236 0.90864 0.35796 0.0
C366 C 0.011 0.88406 0.38368 0.0
C367 C 0.01769 0.95882 0.4125 0.0
C368 C -0.00819 0.89605 0.42468 0.0
C369 C 0.03516 0.94597 0.37114 0.0
C370 C -0.00305 0.93343 0.44016 0.0
N371 N 0.03262 0.83422 0.3346 0.0
C372 C 0.03485 0.79723 0.32143 0.0
C373 C -0.01325 0.82027 0.39412 0.0
C374 C 0.00996 0.84614 0.37029 0.0
C375 C -0.0134 0.78269 0.37805 0.0
C376 C 0.01174 0.77081 0.34282 0.0
H377 H -0.01581 0.94325 0.47277 0.0
H378 H 0.95264 0.87923 0.47987 0.0
H379 H 0.94616 0.81364 0.4513 0.0
O380 O 0.02459 0.85351 0.2415 0.0
O381 O 0.08928 0.86163 0.36964 0.0
O382 O 0.14641 0.89342 0.37035 0.0
O383 O 0.02769 0.91435 0.24644 0.0
O384 O 0.09109 0.83162 0.24702 0.0
O385 O 0.15126 0.82274 0.27713 0.0
O386 O 0.2199 0.88755 0.35582 0.0
O387 O 0.16758 0.8937 0.22369 0.0
O388 O 0.1196 0.88685 0.26714 0.0
O389 O 0.20139 0.82995 0.33943 0.0
O390 O 0.14765 0.9405 0.31469 0.0
O391 O 0.08513 0.94254 0.28616 0.0
C392 C 0.12004 0.87374 0.39419 0.0
C393 C 0.97215 0.88909 0.20851 0.0
C394 C 0.92025 0.8868 0.14787 0.0
C395 C 0.89803 0.90688 0.18111 0.0
C396 C 0.94734 0.907 0.23989 0.0
C397 C 0.91082 0.91601 0.2261 0.0
C398 C 0.9584 0.87807 0.16234 0.0
C399 C 0.12458 0.81387 0.24554 0.0
C400 C 0.01271 0.88556 0.2238 0.0
C401 C 0.96841 0.8703 0.44893 0.0
C402 C 0.96496 0.83274 0.43277 0.0
C403 C 0.13127 0.89466 0.225 0.0
C404 C 0.25974 0.84054 0.38124 0.0
C405 C 0.3101 0.85859 0.43428 0.0
C406 C 0.33616 0.8385 0.40584 0.0
C407 C 0.28526 0.82053 0.35261 0.0
C408 C 0.27201 0.85791 0.42257 0.0
C409 C 0.32353 0.81891 0.36567 0.0
C410 C 0.11715 0.96039 0.29809 0.0
C411 C 0.22213 0.85175 0.36652 0.0
H412 H 0.87008 0.91611 0.17376 0.0
H413 H 0.95666 0.91526 0.27491 0.0
H414 H 0.89221 0.93093 0.25033 0.0
H415 H 0.97728 0.86367 0.13801 0.0
H416 H 0.36608 0.83802 0.4135 0.0
H417 H 0.27603 0.80752 0.31992 0.0
H418 H 0.25176 0.87357 0.4439 0.0
H419 H 0.34367 0.80374 0.34373 0.0
Eu420 Eu 0.33522 0.81527 0.54174 0.0
C421 C 0.3366 0.01126 0.48428 0.0
N422 N 0.36023 -0.01636 0.50046 0.0
C423 C 0.40822 -0.00091 0.44066 0.0
C424 C 0.34882 0.02997 0.42721 0.0
C425 C 0.3962 0.98104 0.48263 0.0
C426 C 0.38521 0.02231 0.41266 0.0
C427 C 0.24848 0.02534 0.48345 0.0
C428 C 0.29053 0.00754 0.50798 0.0
C429 C 0.24499 0.04263 0.42776 0.0
C430 C 0.31219 0.04751 0.38668 0.0
Eu431 Eu 0.33499 0.93203 0.54968 0.0
N432 N 0.28455 0.97108 0.52273 0.0
C433 C 0.2158 0.00705 0.49297 0.0
C434 C 0.25432 0.95168 0.50342 0.0
C435 C 0.2204 0.96853 0.49006 0.0
H436 H 0.41628 0.96204 0.49901 0.0
H437 H 0.19865 0.95141 0.47372 0.0
H438 H 0.25008 0.80307 0.60118 0.0
H439 H 0.47277 0.76133 0.57484 0.0
H440 H 0.25667 0.92269 0.49355 0.0
H441 H 0.18957 0.01943 0.48027 0.0
H442 H 0.4265 0.80261 0.53915 0.0
H443 H 0.43572 -0.0086 0.42693 0.0
H444 H 0.25851 0.04541 0.41246 0.0
H445 H 0.32074 0.05591 0.3511 0.0
H446 H 0.22877 0.77256 0.674 0.0
H447 H 0.39503 0.03189 0.37848 0.0
H448 H 0.45246 0.71597 0.63745 0.0
N449 N 0.30742 0.78381 0.60722 0.0
C450 C 0.33208 0.76215 0.63246 0.0
C451 C 0.25804 0.76981 0.6629 0.0
C452 C 0.32057 0.7432 0.67382 0.0
C453 C 0.2704 0.78706 0.6212 0.0
C454 C 0.28359 0.74887 0.69013 0.0
N455 N 0.38121 0.78302 0.58214 0.0
C456 C 0.41782 0.7844 0.56774 0.0
C457 C 0.39553 0.73691 0.64136 0.0
C458 C 0.36964 0.76056 0.61818 0.0
C459 C 0.43263 0.73592 0.62405 0.0
C460 C 0.44413 0.76064 0.58817 0.0
H461 H 0.2742 0.73639 0.72308 0.0
H462 H 0.33783 0.70394 0.72885 0.0
H463 H 0.40267 0.69637 0.69862 0.0
O464 O 0.36132 0.77644 0.48915 0.0
O465 O 0.35411 0.84027 0.61846 0.0
O466 O 0.32197 0.89728 0.61964 0.0
O467 O 0.3007 0.77901 0.49557 0.0
O468 O 0.38373 0.84261 0.496 0.0
O469 O 0.39242 0.90295 0.52621 0.0
O470 O 0.32799 0.97047 0.60635 0.0
O471 O 0.32188 0.91937 0.47302 0.0
O472 O 0.32848 0.87117 0.51632 0.0
O473 O 0.38538 0.95245 0.58872 0.0
O474 O 0.275 0.89877 0.56447 0.0
O475 O 0.2729 0.83628 0.5354 0.0
C476 C 0.34187 0.87091 0.64329 0.0
C477 C 0.32595 0.72364 0.45693 0.0
C478 C 0.32829 0.67161 0.39633 0.0
C479 C 0.30913 0.64905 0.42997 0.0
C480 C 0.30895 0.69854 0.4887 0.0
C481 C 0.30042 0.66177 0.47514 0.0
C482 C 0.33656 0.70999 0.41059 0.0
C483 C 0.40151 0.87612 0.49482 0.0
C484 C 0.3292 0.76433 0.47215 0.0
C485 C 0.34639 0.71951 0.6976 0.0
C486 C 0.38352 0.71543 0.68049 0.0
C487 C 0.32098 0.88299 0.47415 0.0
C488 C 0.37485 0.01056 0.63136 0.0
C489 C 0.35761 0.06091 0.68503 0.0
C490 C 0.37848 0.08681 0.65728 0.0
C491 C 0.39569 0.03591 0.60348 0.0
C492 C 0.35734 0.02289 0.67257 0.0
C493 C 0.39803 0.07408 0.61715 0.0
C494 C 0.25509 0.86824 0.54794 0.0
C495 C 0.3638 0.97288 0.61646 0.0
H496 H 0.30025 0.6209 0.42275 0.0
H497 H 0.30106 0.7078 0.52388 0.0
H498 H 0.2862 0.64293 0.49967 0.0
H499 H 0.35034 0.72908 0.38599 0.0
H500 H 0.3796 0.11671 0.66542 0.0
H501 H 0.40895 0.02662 0.57098 0.0
H502 H 0.34112 0.00277 0.69338 0.0
H503 H 0.41384 0.0941 0.59578 0.0
Eu504 Eu 0.40095 0.08627 0.79261 0.0
C505 C 0.20572 0.08876 0.73361 0.0
N506 N 0.23339 0.11216 0.75004 0.0
C507 C 0.21884 0.16029 0.68993 0.0
C508 C 0.18772 0.10097 0.67619 0.0
C509 C 0.23635 0.14818 0.73222 0.0
C510 C 0.19585 0.13732 0.66157 0.0
C511 C 0.19036 0.00063 0.73346 0.0
C512 C 0.20856 0.04267 0.7578 0.0
C513 C 0.17344 -0.00292 0.67757 0.0
C514 C 0.16996 0.06432 0.63577 0.0
Eu515 Eu 0.28407 0.08625 0.80012 0.0
N516 N 0.24476 0.03619 0.77295 0.0
C517 C 0.20823 0.96766 0.74348 0.0
C518 C 0.26386 0.00562 0.75388 0.0
C519 C 0.24672 0.97181 0.74062 0.0
H520 H 0.25514 0.16823 0.74898 0.0
H521 H 0.26366 0.94983 0.72442 0.0
H522 H 0.41417 -0.00029 0.84914 0.0
H523 H 0.45329 0.22409 0.83104 0.0
H524 H 0.29282 0.00758 0.74413 0.0
H525 H 0.19572 0.94136 0.73104 0.0
H526 H 0.41286 0.17792 0.79286 0.0
H527 H 0.22664 0.18791 0.67643 0.0
H528 H 0.17099 0.01054 0.66211 0.0
H529 H 0.16199 0.07282 0.6 0.0
H530 H 0.44358 0.97733 0.92213 0.0
H531 H 0.18665 0.14717 0.62724 0.0
H532 H 0.49853 0.20263 0.893 0.0
N533 N 0.4322 0.05735 0.85755 0.0
C534 C 0.45323 0.08179 0.88394 0.0
C535 C 0.44606 0.00692 0.91201 0.0
C536 C 0.47169 0.06963 0.92538 0.0
C537 C 0.42937 0.01992 0.87025 0.0
C538 C 0.46611 0.03224 0.94056 0.0
N539 N 0.43259 0.13186 0.83464 0.0
C540 C 0.43095 0.16885 0.82141 0.0
C541 C 0.47791 0.14536 0.89503 0.0
C542 C 0.45472 0.11972 0.87072 0.0
C543 C 0.47878 0.18291 0.87887 0.0
C544 C 0.4542 0.19503 0.84315 0.0
H545 H 0.47812 0.02233 0.97355 0.0
H546 H 0.51009 0.08613 0.98159 0.0
H547 H 0.51773 0.15155 0.95319 0.0
O548 O 0.4408 0.11308 0.74165 0.0
O549 O 0.37549 0.10491 0.86931 0.0
O550 O 0.31862 0.07275 0.87001 0.0
O551 O 0.43672 0.05229 0.74521 0.0
O552 O 0.37363 0.13501 0.74703 0.0
O553 O 0.31345 0.14372 0.77725 0.0
O554 O 0.24509 0.0788 0.85606 0.0
O555 O 0.29703 0.07276 0.72374 0.0
O556 O 0.34517 0.0797 0.767 0.0
O557 O 0.26343 0.13642 0.8397 0.0
O558 O 0.31717 0.02597 0.81467 0.0
O559 O 0.37955 0.02389 0.78567 0.0
C560 C 0.34479 0.09265 0.89388 0.0
C561 C 0.49255 0.07696 0.70706 0.0
C562 C 0.54382 0.07815 0.64537 0.0
C563 C 0.56544 0.0563 0.67739 0.0
C564 C 0.51707 0.05746 0.73734 0.0
C565 C 0.55293 0.047 0.72242 0.0
C566 C 0.50625 0.08837 0.66094 0.0
C567 C 0.34008 0.15268 0.74565 0.0
C568 C 0.45211 0.08111 0.72312 0.0
C569 C 0.49488 0.09519 0.95028 0.0
C570 C 0.49898 0.13268 0.9342 0.0
C571 C 0.33334 0.07195 0.7249 0.0
C572 C 0.20509 0.12568 0.88139 0.0
C573 C 0.15456 0.10742 0.93402 0.0
C574 C 0.12859 0.12759 0.90555 0.0
C575 C 0.17965 0.1458 0.85277 0.0
C576 C 0.19268 0.1081 0.9225 0.0
C577 C 0.14134 0.14733 0.8656 0.0
C578 C 0.3476 0.00603 0.79794 0.0
C579 C 0.24277 0.1146 0.8668 0.0
H580 H 0.59255 0.04538 0.66863 0.0
H581 H 0.50787 0.04884 0.77226 0.0
H582 H 0.57109 0.03061 0.74566 0.0
H583 H 0.48766 0.1039 0.63735 0.0
H584 H 0.09863 0.12801 0.913 0.0
H585 H 0.18899 0.15898 0.82026 0.0
H586 H 0.21285 0.09233 0.9438 0.0
H587 H 0.12126 0.16256 0.84364 0.0
Eu588 Eu 0.12889 0.15092 1.04123 0.0
C589 C 0.12768 0.95502 0.98393 0.0
N590 N 0.10404 0.98259 1.00022 0.0
C591 C 0.05611 0.96728 0.94025 0.0
C592 C 0.11556 0.93659 0.92666 0.0
C593 C 0.06804 -0.01486 0.98242 0.0
C594 C 0.07919 0.94428 0.91206 0.0
C595 C 0.21577 0.94064 0.98347 0.0
C596 C 0.1737 0.95851 1.0079 0.0
C597 C 0.21935 0.92357 0.92765 0.0
C598 C 0.15223 0.91909 0.88619 0.0
Eu599 Eu 0.12939 0.0342 0.04944 0.0
N600 N 0.17977 -0.00507 1.02283 0.0
C601 C 0.24848 0.9588 0.99328 0.0
C602 C 0.21009 0.01426 1.0037 0.0
C603 C 0.24396 -0.00267 0.99036 0.0
H604 H 0.0479 0.00398 0.99896 0.0
H605 H 0.2657 0.01441 0.97401 0.0
H606 H 0.21395 0.1632 0.10093 0.0
H607 H -0.00907 0.20339 0.07521 0.0
H608 H 0.20783 0.04322 0.99375 0.0
H609 H 0.27473 0.94637 0.98069 0.0
H610 H 0.03746 0.16241 1.03941 0.0
H611 H 0.02862 0.975 0.92649 0.0
H612 H 0.20587 0.92089 0.91226 0.0
H613 H 0.14374 0.91085 0.8505 0.0
H614 H 0.23516 0.19392 0.17372 0.0
H615 H 0.06944 0.93485 0.87777 0.0
H616 H 0.01121 0.24967 0.13691 0.0
N617 N 0.15663 0.18256 0.10669 0.0
C618 C 0.13191 0.20425 0.13182 0.0
C619 C 0.20593 0.19671 0.16248 0.0
C620 C 0.14338 0.2234 0.1731 0.0
C621 C 0.19362 0.17932 0.1208 0.0
C622 C 0.18036 0.21781 0.18952 0.0
N623 N 0.08277 0.18283 0.0818 0.0
C624 C 0.0461 0.18093 0.06774 0.0
C625 C 0.06833 0.22917 0.14075 0.0
C626 C 0.09431 0.20558 0.11762 0.0
C627 C 0.03114 0.22973 0.12367 0.0
C628 C 0.01966 0.20454 0.08821 0.0
H629 H 0.1897 0.23039 0.22245 0.0
H630 H 0.12604 0.26283 0.22792 0.0
H631 H 0.06112 0.26997 0.19778 0.0
O632 O 0.10259 0.18986 0.98893 0.0
O633 O 0.11017 0.12598 0.11804 0.0
O634 O 0.14258 0.06915 0.11924 0.0
O635 O 0.16323 0.18721 0.99498 0.0
O636 O 0.08061 0.12335 0.99515 0.0
O637 O 0.07198 0.06307 1.02544 0.0
O638 O 0.13641 -0.00424 0.10601 0.0
O639 O 0.14285 0.0467 0.97286 0.0
O640 O 0.13579 0.095 1.01591 0.0
O641 O 0.07907 0.01425 0.08898 0.0
O642 O 0.18928 0.06768 0.06418 0.0
O643 O 0.19128 0.13008 1.03491 0.0
C644 C 0.12257 0.09543 0.14289 0.0
C645 C 0.13793 0.24262 0.95652 0.0
C646 C 0.13573 0.2946 0.89589 0.0
C647 C 0.15505 0.3171 0.9295 0.0
C648 C 0.15506 0.2677 0.98826 0.0
C649 C 0.16374 0.30441 0.97467 0.0
C650 C 0.12732 0.25627 0.91017 0.0
C651 C 0.06299 0.08973 0.99382 0.0
C652 C 0.13466 0.20194 0.97175 0.0
C653 C 0.1175 0.24711 0.19676 0.0
C654 C 0.08033 0.25094 0.17969 0.0
C655 C 0.14358 0.08309 0.97386 0.0
C656 C 0.08943 0.95615 0.13171 0.0
C657 C 0.10686 0.90577 0.18525 0.0
C658 C 0.08589 0.8799 0.15753 0.0
C659 C 0.06849 0.9308 0.10389 0.0
C660 C 0.10708 0.94382 0.17284 0.0
C661 C 0.06619 0.89263 0.11752 0.0
C662 C 0.20914 0.09816 0.04748 0.0
C663 C 0.10067 -0.00629 0.11656 0.0
H664 H 0.1641 0.34519 0.92222 0.0
H665 H 0.16295 0.25846 1.02344 0.0
H666 H 0.17808 0.32323 0.99918 0.0
H667 H 0.11345 0.2372 0.88558 0.0
H668 H 0.0848 0.84999 0.16558 0.0
H669 H 0.05518 0.94008 0.07142 0.0
H670 H 0.12342 0.96392 0.19357 0.0
H671 H 0.05032 0.87261 0.09617 0.0
Eu672 Eu 0.78288 0.8814 0.80016 0.0
C673 C 0.95353 0.88368 0.88204 0.0
N674 N 0.93186 0.9086 0.85716 0.0
C675 C 0.94751 0.9582 0.91203 0.0
C676 C 0.9735 0.8952 0.92266 0.0
C677 C 0.92927 0.94579 0.87096 0.0
C678 C 0.96879 0.9325 0.93872 0.0
C679 C 0.97773 0.81966 0.89091 0.0
C680 C 0.95416 0.84588 0.86815 0.0
C681 C 0.00018 0.8316 0.92922 0.0
C682 C -0.00283 0.86906 0.94598 0.0
Eu683 Eu 0.89972 0.88093 0.79214 0.0
N684 N 0.93082 0.83441 0.83293 0.0
C685 C 0.97768 0.78233 0.87397 0.0
C686 C 0.92832 0.79762 0.81914 0.0
C687 C 0.95194 0.77098 0.83912 0.0
H688 H 0.91305 0.96619 0.85124 0.0
H689 H 0.95039 0.74223 0.82606 0.0
H690 H 0.75346 0.79912 0.74981 0.0
H691 H 0.76213 0.02008 0.72715 0.0
H692 H 0.90941 0.78903 0.79126 0.0
H693 H -0.00236 0.76224 0.88676 0.0
H694 H 0.79204 0.9611 0.74415 0.0
H695 H 0.9453 -0.01238 0.92301 0.0
H696 H 0.01912 0.81211 0.94702 0.0
H697 H 0.01349 0.8776 0.97665 0.0
H698 H 0.72468 0.77922 0.67754 0.0
H699 H -0.01784 0.94197 0.97111 0.0
H700 H 0.69444 0.0266 0.73045 0.0
N701 N 0.73229 0.85549 0.75021 0.0
C702 C 0.70476 0.87906 0.73371 0.0
C703 C 0.71708 0.80696 0.69084 0.0
C704 C 0.68644 0.86647 0.67656 0.0
C705 C 0.73487 0.81927 0.73285 0.0
C706 C 0.69417 0.8299 0.66236 0.0
N707 N 0.74414 0.93195 0.77241 0.0
C708 C 0.76306 0.9629 0.75393 0.0
C709 C 0.68987 0.96733 0.73253 0.0
C710 C 0.70793 0.92544 0.75731 0.0
C711 C 0.70708 0.00047 0.74323 0.0
C712 C 0.74563 -0.00297 0.74175 0.0
H713 H 0.68474 0.81984 0.62821 0.0
H714 H 0.66063 0.89411 0.60017 0.0
H715 H 0.67033 0.9569 0.66137 0.0
O716 O 0.74109 0.88897 0.85304 0.0
O717 O 0.79574 0.89494 0.72368 0.0
O718 O 0.84386 0.88772 0.76691 0.0
O719 O 0.7631 0.83176 0.84119 0.0
O720 O 0.81587 0.94151 0.81494 0.0
O721 O 0.87836 0.94341 0.78627 0.0
O722 O 0.94007 0.85452 0.74125 0.0
O723 O 0.87496 0.86232 0.86905 0.0
O724 O 0.81723 0.8934 0.87091 0.0
O725 O 0.93512 0.91523 0.74486 0.0
O726 O 0.87202 0.83257 0.74622 0.0
O727 O 0.8118 0.82381 0.77647 0.0
C728 C 0.83206 0.89566 0.72487 0.0
C729 C 0.7034 0.84089 0.88065 0.0
C730 C 0.65356 0.859 0.9344 0.0
C731 C 0.62674 0.84184 0.90423 0.0
C732 C 0.67709 0.82395 0.85017 0.0
C733 C 0.63871 0.82348 0.86287 0.0
C734 C 0.69177 0.85607 0.92353 0.0
C735 C 0.84631 0.96132 0.79824 0.0
C736 C 0.74053 0.85357 0.86596 0.0
C737 C 0.66881 0.90288 0.63577 0.0
C738 C 0.67293 0.9705 0.67664 0.0
C739 C 0.84423 0.8739 0.89411 0.0
C740 C -0.00837 0.89136 0.70731 0.0
C741 C 0.04353 0.88989 0.64642 0.0
C742 C 0.06426 0.91318 0.67777 0.0
C743 C 0.01531 0.91243 0.73704 0.0
C744 C 0.00612 0.87907 0.66189 0.0
C745 C 0.05102 0.92343 0.72218 0.0
C746 C 0.83855 0.81475 0.74503 0.0
C747 C 0.95111 0.88661 0.72294 0.0
H748 H 0.59678 0.8428 0.9115 0.0
H749 H 0.6858 0.81271 0.8163 0.0
H750 H 0.61799 0.81067 0.83951 0.0
H751 H 0.71273 0.86911 0.94632 0.0
H752 H 0.09139 0.92415 0.66906 0.0
H753 H 0.00557 0.92178 0.77144 0.0
H754 H -0.01177 0.86234 0.63873 0.0
H755 H 0.06852 0.94087 0.74501 0.0
Eu756 Eu 0.8341 0.03459 0.54902 0.0
C757 C 0.83219 0.20446 0.63154 0.0
N758 N 0.80753 0.18217 0.60717 0.0
C759 C 0.75909 0.19514 0.66454 0.0
C760 C 0.82107 0.22345 0.67309 0.0
C761 C 0.77099 0.17792 0.62257 0.0
C762 C 0.78458 0.21705 0.69063 0.0
C763 C 0.89528 0.23083 0.63846 0.0
C764 C 0.86945 0.20654 0.61627 0.0
C765 C 0.88353 0.25247 0.67763 0.0
C766 C 0.84682 0.24783 0.69585 0.0
Eu767 Eu 0.83472 0.15117 0.54081 0.0
N768 N 0.88081 0.18395 0.5802 0.0
C769 C 0.93204 0.23228 0.62013 0.0
C770 C 0.91718 0.18301 0.56487 0.0
C771 C 0.94334 0.20745 0.58419 0.0
H772 H 0.75073 0.16107 0.60357 0.0
H773 H 0.97169 0.20708 0.56995 0.0
H774 H 0.91598 0.00352 0.50034 0.0
H775 H 0.69808 0.01624 0.47153 0.0
H776 H 0.92571 0.16475 0.53624 0.0
H777 H 0.95179 0.25255 0.63294 0.0
H778 H 0.75599 0.04463 0.49246 0.0
H779 H 0.73018 0.1917 0.67663 0.0
H780 H 0.90261 0.27208 0.69495 0.0
H781 H 0.83852 0.26347 0.72719 0.0
H782 H 0.93605 0.97378 0.42876 0.0
H783 H 0.77552 0.22963 0.72369 0.0
H784 H 0.68914 0.94819 0.47628 0.0
N785 N 0.85971 0.98257 0.50063 0.0
C786 C 0.83608 0.9551 0.4841 0.0
C787 C 0.90843 0.96622 0.4421 0.0
C788 C 0.84912 0.93559 0.42767 0.0
C789 C 0.89597 -0.01534 0.48364 0.0
C790 C 0.88576 0.94285 0.4139 0.0
N791 N 0.78368 -0.004 0.52115 0.0
C792 C 0.7536 0.01557 0.50172 0.0
C793 C 0.74791 0.94192 0.4811 0.0
C794 C 0.78964 0.95949 0.50651 0.0
C795 C 0.71515 0.96041 0.48983 0.0
C796 C 0.71975 -0.00107 0.48777 0.0
H797 H 0.89604 0.9329 0.38007 0.0
H798 H 0.82208 0.90897 0.35128 0.0
H799 H 0.75904 0.92087 0.41079 0.0
O800 O 0.88385 0.01608 0.59092 0.0
O801 O 0.82144 0.0471 0.47224 0.0
O802 O 0.82799 0.09524 0.5157 0.0
O803 O 0.82685 -0.00556 0.60348 0.0
O804 O 0.77422 0.06805 0.56376 0.0
O805 O 0.77228 0.13058 0.53481 0.0
O806 O 0.86041 0.18998 0.48795 0.0
O807 O 0.85347 0.12631 0.61742 0.0
O808 O 0.82031 0.07002 0.61831 0.0
O809 O 0.79985 0.1873 0.49489 0.0
O810 O 0.88328 0.12341 0.49518 0.0
O811 O 0.89172 0.06284 0.52501 0.0
C812 C 0.82059 0.08347 0.47351 0.0
C813 C 0.87444 0.95706 0.63211 0.0
C814 C 0.85651 0.90663 0.68515 0.0
C815 C 0.87697 0.88059 0.65702 0.0
C816 C 0.89483 0.93157 0.60383 0.0
C817 C 0.89674 0.89329 0.61709 0.0
C818 C 0.857 0.94479 0.67335 0.0
C819 C 0.75442 0.0987 0.54737 0.0
C820 C 0.8621 -0.00588 0.61654 0.0
C821 C 0.81303 0.91789 0.38649 0.0
C822 C 0.74525 0.92398 0.42569 0.0
C823 C 0.84061 0.09597 0.64214 0.0
C824 C 0.82468 0.24279 0.45614 0.0
C825 C 0.82737 0.29496 0.3958 0.0
C826 C 0.80693 0.31708 0.42879 0.0
C827 C 0.80644 0.26755 0.48735 0.0
C828 C 0.83609 0.25671 0.41023 0.0
C829 C 0.79744 0.30415 0.47358 0.0
C830 C 0.90104 0.08981 0.49399 0.0
C831 C 0.82817 0.20209 0.4713 0.0
H832 H 0.87756 0.8506 0.66465 0.0
H833 H 0.90785 0.94081 0.5712 0.0
H834 H 0.91216 0.87316 0.59538 0.0
H835 H 0.84098 0.965 0.69433 0.0
H836 H 0.7976 0.34504 0.42133 0.0
H837 H 0.7979 0.25814 0.52221 0.0
H838 H 0.85074 0.23788 0.38603 0.0
H839 H 0.78222 0.32268 0.49762 0.0
Eu840 Eu 0.6808 0.08505 0.29982 0.0
C841 C 0.51049 0.08318 0.38183 0.0
N842 N 0.53204 0.05821 0.35685 0.0
C843 C 0.51666 0.00876 0.41203 0.0
C844 C 0.49063 0.07174 0.42255 0.0
C845 C 0.53466 0.02105 0.37078 0.0
C846 C 0.49541 0.0345 0.4387 0.0
C847 C 0.48636 0.14721 0.39075 0.0
C848 C 0.50986 0.12096 0.36794 0.0
C849 C 0.46398 0.13534 0.42914 0.0
C850 C 0.46702 0.09792 0.44593 0.0
Eu851 Eu 0.56419 0.08588 0.29175 0.0
N852 N 0.5331 0.13237 0.33263 0.0
C853 C 0.48638 0.1845 0.3738 0.0
C854 C 0.53561 0.16915 0.31887 0.0
C855 C 0.51206 0.19582 0.33892 0.0
H856 H 0.55072 0.00053 0.35107 0.0
H857 H 0.5136 0.22457 0.32588 0.0
H858 H 0.71192 0.16662 0.25121 0.0
H859 H 0.69716 0.94919 0.22006 0.0
H860 H 0.55447 0.17772 0.29096 0.0
H861 H 0.46644 0.20459 0.3866 0.0
H862 H 0.66952 0.00717 0.24233 0.0
H863 H 0.51903 0.9794 0.42317 0.0
H864 H 0.44508 0.15485 0.44698 0.0
H865 H 0.45079 0.08944 0.47666 0.0
H866 H 0.74309 0.18713 0.1809 0.0
H867 H 0.48215 0.02511 0.47117 0.0
H868 H 0.76491 0.93903 0.22502 0.0
N869 N 0.73297 0.11026 0.25184 0.0
C870 C 0.7604 0.08641 0.23566 0.0
C871 C 0.75032 0.15932 0.19415 0.0
C872 C 0.78094 0.09977 0.17995 0.0
C873 C 0.73111 0.14664 0.23496 0.0
C874 C 0.77416 0.13668 0.16646 0.0
N875 N 0.71839 0.03419 0.27098 0.0
C876 C 0.69857 0.00449 0.25103 0.0
C877 C 0.77226 -0.00218 0.2314 0.0
C878 C 0.75503 0.03968 0.25713 0.0
C879 C 0.75309 0.9652 0.23887 0.0
C880 C 0.71475 0.97048 0.23661 0.0
H881 H 0.78474 0.14716 0.13305 0.0
H882 H 0.80828 0.07299 0.10378 0.0
H883 H 0.79457 0.00942 0.16196 0.0
O884 O 0.69954 0.13494 0.34128 0.0
O885 O 0.66791 0.07282 0.22307 0.0
O886 O 0.61999 0.07888 0.26681 0.0
O887 O 0.72154 0.07783 0.35381 0.0
O888 O 0.64775 0.02501 0.315 0.0
O889 O 0.58518 0.02327 0.28642 0.0
O890 O 0.52389 0.11228 0.24087 0.0
O891 O 0.58932 0.10439 0.36836 0.0
O892 O 0.64592 0.07161 0.36939 0.0
O893 O 0.52912 0.05158 0.24409 0.0
O894 O 0.59197 0.13441 0.24587 0.0
O895 O 0.65229 0.14279 0.27613 0.0
C896 C 0.63165 0.07171 0.22452 0.0
C897 C 0.75898 0.12594 0.38135 0.0
C898 C 0.80961 0.10795 0.43388 0.0
C899 C 0.83562 0.12746 0.40488 0.0
C900 C 0.7844 0.14548 0.35216 0.0
C901 C 0.82278 0.14695 0.36475 0.0
C902 C 0.7714 0.10917 0.42291 0.0
C903 C 0.61702 0.00525 0.29894 0.0
C904 C 0.7219 0.11329 0.36653 0.0
C905 C 0.79873 0.06372 0.13863 0.0
C906 C 0.79104 -0.00451 0.17652 0.0
C907 C 0.61985 0.09189 0.39301 0.0
C908 C 0.47254 0.07532 0.20681 0.0
C909 C 0.42061 0.07664 0.14603 0.0
C910 C 0.39997 0.0533 0.17737 0.0
C911 C 0.44897 0.05423 0.23659 0.0
C912 C 0.45799 0.08756 0.16145 0.0
C913 C 0.41328 0.04312 0.22176 0.0
C914 C 0.62555 0.1521 0.24482 0.0
C915 C 0.51304 0.08019 0.22231 0.0
H916 H 0.86563 0.12752 0.41211 0.0
H917 H 0.77503 0.15814 0.31937 0.0
H918 H 0.84284 0.16172 0.34235 0.0
H919 H 0.75119 0.09397 0.44467 0.0
H920 H 0.37288 0.04223 0.16869 0.0
H921 H 0.45879 0.04493 0.27098 0.0
H922 H 0.47581 0.10433 0.13829 0.0
H923 H 0.39585 0.02564 0.2446 0.0
Eu924 Eu 0.63079 0.93159 0.05139 0.0
C925 C 0.63099 0.76155 0.13175 0.0
N926 N 0.65619 0.7832 0.10742 0.0
C927 C 0.70459 0.76823 0.16407 0.0
C928 C 0.64171 0.74206 0.17307 0.0
C929 C 0.69299 0.78603 0.12234 0.0
C930 C 0.67848 0.74723 0.19035 0.0
C931 C 0.56727 0.73675 0.13858 0.0
C932 C 0.59365 0.7605 0.11657 0.0
C933 C 0.57846 0.71479 0.1777 0.0
C934 C 0.61533 0.71838 0.19584 0.0
Eu935 Eu 0.62958 0.81553 1.04175 0.0
N936 N 0.5828 0.78349 0.08068 0.0
C937 C 0.53055 0.7361 0.12007 0.0
C938 C 0.54647 0.78527 0.06531 0.0
C939 C 0.51981 0.76133 0.08434 0.0
H940 H 0.71369 0.80215 0.10307 0.0
H941 H 0.49153 0.76234 0.06992 0.0
H942 H 0.54997 0.96502 1.00343 0.0
H943 H 0.76608 0.94583 0.96964 0.0
H944 H 0.53826 0.80377 1.03684 0.0
H945 H 0.51049 0.71599 0.13233 0.0
H946 H 0.70775 0.91884 0.99188 0.0
H947 H 0.7337 0.77059 0.17591 0.0
H948 H 0.55882 0.69576 0.19501 0.0
H949 H 0.62328 0.70245 0.22707 0.0
H950 H 0.53033 -0.00206 0.93381 0.0
H951 H 0.68727 0.73431 0.2233 0.0
H952 H 0.77782 0.01333 0.97797 0.0
N953 N 0.60657 -0.01506 1.00477 0.0
C954 C 0.63097 0.01204 0.98932 0.0
C955 C 0.55808 0.00441 0.94746 0.0
C956 C 0.61813 0.0338 0.93415 0.0
C957 C 0.57026 -0.01583 0.98779 0.0
C958 C 0.58119 0.02818 0.92043 0.0
N959 N 0.6822 0.96788 1.02259 0.0
C960 C 0.71112 0.94774 1.00133 0.0
C961 C 0.71955 0.02193 0.98546 0.0
C962 C 0.67749 0.00512 1.01061 0.0
C963 C 0.75158 0.0016 0.99142 0.0
C964 C 0.74533 0.96345 0.98717 0.0
H965 H 0.57102 0.03955 0.88725 0.0
H966 H 0.64549 0.06182 0.85884 0.0
H967 H 0.70839 0.04561 0.91685 0.0
O968 O 0.58126 0.94986 0.09351 0.0
O969 O 0.64188 0.91962 0.97388 0.0
O970 O 0.63706 0.87137 1.01709 0.0
O971 O 0.63795 0.97329 0.10453 0.0
O972 O 0.6907 0.89843 0.06651 0.0
O973 O 0.69219 0.8361 1.0368 0.0
O974 O 0.6038 0.77716 0.98833 0.0
O975 O 0.61077 0.84008 0.11879 0.0
O976 O 0.64375 0.8965 0.12096 0.0
O977 O 0.6643 0.77949 0.99548 0.0
O978 O 0.58109 0.84373 0.99618 0.0
O979 O 0.573 0.90422 1.02661 0.0
C980 C 0.64351 0.88329 0.97475 0.0
C981 C 0.58934 0.01002 0.13253 0.0
C982 C 0.60713 0.06083 0.18495 0.0
C983 C 0.58825 0.08699 0.15544 0.0
C984 C 0.57034 0.03556 0.10285 0.0
C985 C 0.56901 0.07411 0.11516 0.0
C986 C 0.60541 0.02246 0.17444 0.0
C987 C 0.71032 0.86772 0.04997 0.0
C988 C 0.60271 0.97305 0.11788 0.0
C989 C 0.6545 0.05143 0.89345 0.0
C990 C 0.72224 0.04154 0.93124 0.0
C991 C 0.62333 0.87032 0.14411 0.0
C992 C 0.63929 0.72414 0.95645 0.0
C993 C 0.6365 0.67175 0.89619 0.0
C994 C 0.65663 0.64959 0.9294 0.0
C995 C 0.65722 0.6993 0.98784 0.0
C996 C 0.62801 0.71014 0.91045 0.0
C997 C 0.66602 0.66259 0.97422 0.0
C998 C 0.56336 0.87738 0.99553 0.0
C999 C 0.63598 0.76492 0.97165 0.0
H1000 H 0.5885 0.11712 0.16239 0.0
H1001 H 0.558 0.02618 0.06991 0.0
H1002 H 0.55468 0.09425 0.09235 0.0
H1003 H 0.61993 0.00208 0.1967 0.0
H1004 H 0.66572 0.6215 0.9221 0.0
H1005 H 0.66565 0.70872 1.02275 0.0
H1006 H 0.61362 0.72901 0.88608 0.0
H1007 H 0.68098 0.64401 0.99844 0.0
Eu1008 Eu 0.78356 0.08693 0.79808 0.0
C1009 C 0.95219 0.08345 0.70969 0.0
N1010 N 0.9323 0.05824 0.73626 0.0
C1011 C 0.94725 0.00836 0.68151 0.0
C1012 C 0.97056 0.07199 0.6679 0.0
C1013 C 0.93061 0.02074 0.72361 0.0
C1014 C 0.96615 0.03441 0.65274 0.0
C1015 C 0.97393 0.148 0.69804 0.0
C1016 C 0.95223 0.12146 0.72288 0.0
C1017 C -0.00508 0.1362 0.65838 0.0
C1018 C -0.00772 0.09849 0.64249 0.0
Eu1019 Eu 0.90034 0.08582 0.8013 0.0
N1020 N 0.92993 0.13279 0.75926 0.0
C1021 C 0.97341 0.18557 0.7141 0.0
C1022 C 0.927 0.16973 0.77248 0.0
C1023 C 0.94887 0.19677 0.75026 0.0
H1024 H 0.91625 0.0001 0.74508 0.0
H1025 H 0.94701 0.22583 0.76231 0.0
H1026 H 0.75772 0.16901 0.85412 0.0
H1027 H 0.76787 0.94934 0.87594 0.0
H1028 H 0.90893 0.17826 0.80123 0.0
H1029 H -0.00783 0.206 0.69973 0.0
H1030 H 0.79693 0.00711 0.8542 0.0
H1031 H 0.94556 0.97872 0.67129 0.0
H1032 H 0.01232 0.15597 0.63883 0.0
H1033 H 0.00735 0.09004 0.61081 0.0
H1034 H 0.72852 0.18845 0.92652 0.0
H1035 H 0.97821 0.02494 0.61956 0.0
H1036 H 0.69975 0.94145 0.87266 0.0
N1037 N 0.73664 0.11264 0.85306 0.0
C1038 C 0.70888 0.08906 0.86883 0.0
C1039 C 0.72113 0.16075 0.91283 0.0
C1040 C 0.68947 0.1015 0.92543 0.0
C1041 C 0.73925 0.14871 0.87089 0.0
C1042 C 0.69746 0.13784 0.94035 0.0
N1043 N 0.74808 0.03598 0.82904 0.0
C1044 C 0.76758 0.00542 0.84719 0.0
C1045 C 0.69394 0.00071 0.86909 0.0
C1046 C 0.7122 0.04256 0.84498 0.0
C1047 C 0.71206 0.96766 0.85971 0.0
C1048 C 0.75063 0.97164 0.86098 0.0
H1049 H 0.68752 0.14774 0.97435 0.0
H1050 H 0.66198 0.07353 1.00068 0.0
H1051 H 0.67276 0.01114 0.93913 0.0
O1052 O 0.73094 0.07906 0.76124 0.0
O1053 O 0.79852 0.07374 0.87405 0.0
O1054 O 0.84532 0.07899 0.82861 0.0
O1055 O 0.75884 0.13529 0.75944 0.0
O1056 O 0.81544 0.02656 0.77944 0.0
O1057 O 0.87844 0.02377 0.80679 0.0
O1058 O 0.94079 0.11191 0.85198 0.0
O1059 O 0.87453 0.10187 0.72397 0.0
O1060 O 0.81185 0.08006 0.72225 0.0
O1061 O 0.93696 0.0511 0.84684 0.0
O1062 O 0.87407 0.13424 0.84855 0.0
O1063 O 0.81368 0.1441 0.81985 0.0
C1064 C 0.83469 0.07135 0.87119 0.0
C1065 C 0.69862 0.12785 0.71969 0.0
C1066 C 0.65288 0.10871 0.66083 0.0
C1067 C 0.62596 0.13284 0.68251 0.0
C1068 C 0.67288 0.1541 0.73855 0.0
C1069 C 0.63634 0.15621 0.72019 0.0
C1070 C 0.6891 0.10616 0.68026 0.0
C1071 C 0.84632 0.00627 0.79455 0.0
C1072 C 0.72905 0.11462 0.74927 0.0
C1073 C 0.67084 0.06496 0.96525 0.0
C1074 C 0.67561 -0.00243 0.92397 0.0
C1075 C 0.84249 0.0935 0.69927 0.0
C1076 C -0.00727 0.0756 0.88547 0.0
C1077 C 0.04409 0.07762 0.94692 0.0
C1078 C 0.06628 0.05679 0.91442 0.0
C1079 C 0.01752 0.05682 0.85485 0.0
C1080 C 0.00626 0.08695 0.93165 0.0
C1081 C 0.05377 0.04736 0.86938 0.0
C1082 C 0.8408 0.15236 0.85104 0.0
C1083 C 0.95233 0.07967 0.8695 0.0
H1084 H 0.59672 0.13379 0.67211 0.0
H1085 H 0.67983 0.17021 0.77004 0.0
H1086 H 0.6155 0.17465 0.73652 0.0
H1087 H 0.70934 0.08563 0.66681 0.0
H1088 H 0.09398 0.04709 0.9226 0.0
H1089 H 0.00839 0.04826 0.81987 0.0
H1090 H -0.01257 0.10203 0.95541 0.0
H1091 H 0.07233 0.0318 0.84574 0.0
Eu1092 Eu 0.63068 0.03454 0.54438 0.0
C1093 C 0.63152 0.20426 0.46006 0.0
N1094 N 0.65644 0.18288 0.48528 0.0
C1095 C 0.70597 0.19854 0.4305 0.0
C1096 C 0.64302 0.22412 0.41935 0.0
C1097 C 0.69362 0.18052 0.47171 0.0
C1098 C 0.68027 0.21952 0.40349 0.0
C1099 C 0.56758 0.2282 0.4507 0.0
C1100 C 0.59376 0.20478 0.47373 0.0
C1101 C 0.57955 0.25064 0.41238 0.0
C1102 C 0.61693 0.24764 0.39578 0.0
Eu1103 Eu 0.62883 0.15121 0.55073 0.0
N1104 N 0.58231 0.18153 0.50906 0.0
C1105 C 0.53028 0.22804 0.46744 0.0
C1106 C 0.54552 0.1788 0.52245 0.0
C1107 C 0.51889 0.20221 0.50211 0.0
H1108 H 0.71413 0.16474 0.49173 0.0
H1109 H 0.49011 0.20054 0.51481 0.0
H1110 H 0.54861 0.00218 0.59162 0.0
H1111 H 0.76609 0.02142 0.62715 0.0
H1112 H 0.53684 0.15994 0.55033 0.0
H1113 H 0.51019 0.24799 0.45478 0.0
H1114 H 0.70856 0.04862 0.60266 0.0
H1115 H 0.73537 0.19646 0.41969 0.0
H1116 H 0.56021 0.2696 0.39443 0.0
H1117 H 0.62547 0.26391 0.36508 0.0
H1118 H 0.52801 0.97139 0.66204 0.0
H1119 H 0.68972 0.2328 0.37105 0.0
H1120 H 0.77635 0.95351 0.62512 0.0
N1121 N 0.60545 0.98263 0.59275 0.0
C1122 C 0.62962 0.95586 0.60983 0.0
C1123 C 0.55597 0.96444 0.64933 0.0
C1124 C 0.61555 0.93454 0.6648 0.0
C1125 C 0.56882 -0.0163 0.60864 0.0
C1126 C 0.57844 0.94077 0.67742 0.0
N1127 N 0.68188 -0.00119 0.57547 0.0
C1128 C 0.71129 0.01922 0.59517 0.0
C1129 C 0.71803 0.94562 0.61681 0.0
C1130 C 0.67661 0.96225 0.58992 0.0
C1131 C 0.75054 0.96499 0.61004 0.0
C1132 C 0.74509 0.00341 0.61078 0.0
H1133 H 0.56762 0.92994 0.71054 0.0
H1134 H 0.64127 0.90681 0.74128 0.0
H1135 H 0.70529 0.92233 0.68536 0.0
O1136 O 0.58236 0.01679 0.49964 0.0
O1137 O 0.6427 0.04784 0.6213 0.0
O1138 O 0.63644 0.09581 0.57787 0.0
O1139 O 0.63803 -0.01049 0.49578 0.0
O1140 O 0.6901 0.06766 0.52812 0.0
O1141 O 0.69143 0.13041 0.55659 0.0
O1142 O 0.60203 0.19249 0.60028 0.0
O1143 O 0.61054 0.12556 0.47448 0.0
O1144 O 0.64309 0.06863 0.47362 0.0
O1145 O 0.66265 0.18737 0.59772 0.0
O1146 O 0.57994 0.12319 0.59537 0.0
O1147 O 0.57287 0.06148 0.5688 0.0
C1148 C 0.64387 0.0842 0.62019 0.0
C1149 C 0.5893 0.95541 0.46289 0.0
C1150 C 0.60636 0.90498 0.40938 0.0
C1151 C 0.58736 0.87872 0.43858 0.0
C1152 C 0.57032 0.92972 0.49231 0.0
C1153 C 0.56846 0.89136 0.47923 0.0
C1154 C 0.60502 0.94328 0.4206 0.0
C1155 C 0.70961 0.09863 0.54391 0.0
C1156 C 0.60391 -0.00846 0.47871 0.0
C1157 C 0.651 0.9169 0.70687 0.0
C1158 C 0.71951 0.92628 0.67132 0.0
C1159 C 0.62295 0.0949 0.44997 0.0
C1160 C 0.63868 0.24398 0.63527 0.0
C1161 C 0.63804 0.29481 0.69769 0.0
C1162 C 0.66121 0.31598 0.66673 0.0
C1163 C 0.65965 0.26804 0.60601 0.0
C1164 C 0.6267 0.25781 0.6811 0.0
C1165 C 0.67095 0.30349 0.62178 0.0
C1166 C 0.56296 0.0893 0.59823 0.0
C1167 C 0.63391 0.20358 0.61895 0.0
H1168 H 0.58737 0.84867 0.43115 0.0
H1169 H 0.55861 0.93881 0.52575 0.0
H1170 H 0.55416 0.8711 0.50184 0.0
H1171 H 0.61977 0.96373 0.39871 0.0
H1172 H 0.67261 0.3428 0.6762 0.0
H1173 H 0.66874 0.25874 0.5713 0.0
H1174 H 0.60978 0.23977 0.70376 0.0
H1175 H 0.68834 0.32131 0.5993 0.0
Eu1176 Eu 0.68078 0.88058 0.29504 0.0
C1177 C 0.51218 0.8836 0.21023 0.0
N1178 N 0.53237 0.90834 0.23722 0.0
C1179 C 0.51797 0.95879 0.183 0.0
C1180 C 0.49417 0.89555 0.16839 0.0
C1181 C 0.53428 0.94595 0.22506 0.0
C1182 C 0.49913 0.93313 0.15364 0.0
C1183 C 0.48882 0.81965 0.19825 0.0
C1184 C 0.51103 0.84565 0.22338 0.0
C1185 C 0.46838 0.83199 0.15841 0.0
C1186 C 0.47201 0.86962 0.14266 0.0
Eu1187 Eu 0.56401 0.87968 0.3021 0.0
N1188 N 0.53263 0.83381 0.26012 0.0
C1189 C 0.48829 0.78208 0.21424 0.0
C1190 C 0.53441 0.79686 0.27349 0.0
C1191 C 0.51213 0.77032 0.25087 0.0
H1192 H 0.54838 0.96646 0.2469 0.0
H1193 H 0.51321 0.74122 0.26286 0.0
H1194 H 0.7118 0.79886 0.34375 0.0
H1195 H 0.69637 0.01646 0.37532 0.0
H1196 H 0.55203 0.78803 0.3026 0.0
H1197 H 0.4693 0.76206 0.19929 0.0
H1198 H 0.66891 0.9586 0.35242 0.0
H1199 H 0.51981 -0.01149 0.17328 0.0
H1200 H 0.45049 0.81276 0.13871 0.0
H1201 H 0.45723 0.87848 0.11095 0.0
H1202 H 0.74225 0.77832 0.41458 0.0
H1203 H 0.48737 0.94295 0.12046 0.0
H1204 H 0.76412 0.02648 0.3716 0.0
N1205 N 0.73262 0.85526 0.34367 0.0
C1206 C 0.75982 0.87911 0.36037 0.0
C1207 C 0.74964 0.80611 0.40143 0.0
C1208 C 0.78019 0.86556 0.41612 0.0
C1209 C 0.73078 0.81882 0.36034 0.0
C1210 C 0.77331 0.82865 0.42943 0.0
N1211 N 0.718 0.93144 0.32462 0.0
C1212 C 0.69803 0.96121 0.34422 0.0
C1213 C 0.77152 0.96765 0.36516 0.0
C1214 C 0.75448 0.92589 0.33911 0.0
C1215 C 0.75245 0.00034 0.3575 0.0
C1216 C 0.7141 -0.00485 0.35901 0.0
H1217 H 0.78367 0.81809 0.46293 0.0
H1218 H 0.80732 0.8921 0.49256 0.0
H1219 H 0.79368 0.95578 0.43466 0.0
O1220 O 0.69969 0.83088 0.25331 0.0
O1221 O 0.66729 0.89295 0.37162 0.0
O1222 O 0.61963 0.88682 0.32752 0.0
O1223 O 0.72234 0.88789 0.24208 0.0
O1224 O 0.64783 0.94057 0.2793 0.0
O1225 O 0.5853 0.94222 0.30794 0.0
O1226 O 0.52445 0.85319 0.35355 0.0
O1227 O 0.58969 0.86062 0.22585 0.0
O1228 O 0.64618 0.8935 0.22491 0.0
O1229 O 0.52833 0.91396 0.34922 0.0
O1230 O 0.59156 0.83093 0.34783 0.0
O1231 O 0.6523 0.82291 0.31861 0.0
C1232 C 0.63104 0.89407 0.36989 0.0
C1233 C 0.75927 0.83958 0.21349 0.0
C1234 C 0.80972 0.85665 0.16024 0.0
C1235 C 0.83559 0.83643 0.18881 0.0
C1236 C 0.78455 0.81941 0.24223 0.0
C1237 C 0.82275 0.8171 0.22904 0.0
C1238 C 0.7716 0.8562 0.17182 0.0
C1239 C 0.61706 0.9603 0.2953 0.0
C1240 C 0.7224 0.85259 0.22868 0.0
C1241 C 0.79786 0.90147 0.45771 0.0
C1242 C 0.79016 0.96979 0.42014 0.0
C1243 C 0.62019 0.87314 0.2012 0.0
C1244 C 0.47251 0.88939 0.38718 0.0
C1245 C 0.4208 0.88799 0.44814 0.0
C1246 C 0.3989 0.90881 0.41536 0.0
C1247 C 0.44793 0.90808 0.35619 0.0
C1248 C 0.45868 0.87837 0.43331 0.0
C1249 C 0.41168 0.91788 0.37035 0.0
C1250 C 0.6253 0.81351 0.34948 0.0
C1251 C 0.51302 0.88527 0.37165 0.0
H1252 H 0.86553 0.83572 0.18129 0.0
H1253 H 0.77523 0.80686 0.2751 0.0
H1254 H 0.84272 0.80181 0.25107 0.0
H1255 H 0.7514 0.87173 0.15038 0.0
H1256 H 0.3712 0.91868 0.42328 0.0
H1257 H 0.45727 0.91637 0.32122 0.0
H1258 H 0.47731 0.86337 0.45736 0.0
H1259 H 0.39332 0.93341 0.34644 0.0
Eu1260 Eu 0.83531 0.93114 1.04624 0.0
C1261 C 0.83247 0.76125 0.96181 0.0
N1262 N 0.80758 0.78258 0.98714 0.0
C1263 C 0.75822 0.76789 0.93164 0.0
C1264 C 0.82101 0.74178 0.92076 0.0
C1265 C 0.77051 0.78547 0.97321 0.0
C1266 C 0.78385 0.74675 0.90469 0.0
C1267 C 0.89657 0.73789 0.9518 0.0
C1268 C 0.87027 0.76078 0.97542 0.0
C1269 C 0.88461 0.71566 0.91324 0.0
C1270 C 0.84715 0.71852 0.89685 0.0
Eu1271 Eu 0.8353 0.81442 0.05242 0.0
N1272 N 0.8817 0.78394 1.01089 0.0
C1273 C 0.93403 0.7386 0.96796 0.0
C1274 C 0.91853 0.78713 1.02391 0.0
C1275 C 0.94535 0.76438 1.0028 0.0
H1276 H 0.75011 0.80149 0.99312 0.0
H1277 H 0.97428 0.76656 1.01491 0.0
H1278 H 0.9165 0.96049 0.09743 0.0
H1279 H 0.69949 0.94828 0.12516 0.0
H1280 H 0.9271 0.80609 0.05179 0.0
H1281 H 0.95436 0.7192 0.95458 0.0
H1282 H 0.75707 0.92019 0.10296 0.0
H1283 H 0.72895 0.77053 0.92045 0.0
H1284 H 0.90404 0.69708 0.89483 0.0
H1285 H 0.83864 0.70253 0.86588 0.0
H1286 H 0.93651 -0.00978 0.16904 0.0
H1287 H 0.77446 0.73382 0.87199 0.0
H1288 H 0.68992 0.01623 0.12082 0.0
N1289 N 0.8606 0.98244 0.09609 0.0
C1290 C 0.83701 0.01 0.11259 0.0
C1291 C 0.909 -0.00195 0.15541 0.0
C1292 C 0.84996 0.02961 0.16903 0.0
C1293 C 0.89663 0.97973 0.11375 0.0
C1294 C 0.88645 0.02192 0.18319 0.0
N1295 N 0.78486 0.96913 0.07547 0.0
C1296 C 0.75484 0.94941 0.09473 0.0
C1297 C 0.7488 0.02318 0.11539 0.0
C1298 C 0.79062 0.00561 0.09012 0.0
C1299 C 0.71613 0.0043 0.10735 0.0
C1300 C 0.72105 0.96584 0.10923 0.0
H1301 H 0.89661 0.03182 0.21709 0.0
H1302 H 0.82268 0.05646 0.24524 0.0
H1303 H 0.75988 0.04448 0.18547 0.0
O1304 O 0.82857 0.9707 0.99059 0.0
O1305 O 0.82229 0.91771 0.12263 0.0
O1306 O 0.82844 0.87 0.0785 0.0
O1307 O 0.8858 0.9517 1.00756 0.0
O1308 O 0.77514 0.89831 1.03076 0.0
O1309 O 0.77292 0.83538 0.05836 0.0
O1310 O 0.86179 0.77395 0.10291 0.0
O1311 O 0.85366 0.8399 0.97579 0.0
O1312 O 0.82231 0.89746 0.97526 0.0
O1313 O 0.80111 0.77864 0.09927 0.0
O1314 O 0.88347 0.84141 0.09931 0.0
O1315 O 0.89255 0.90165 0.06931 0.0
C1316 C 0.82085 0.88138 0.12081 0.0
C1317 C 0.87612 0.01008 0.96507 0.0
C1318 C 0.85988 0.06011 0.91036 0.0
C1319 C 0.881 0.08597 0.93799 0.0
C1320 C 0.89686 0.03549 0.99301 0.0
C1321 C 0.89998 0.07343 0.97864 0.0
C1322 C 0.85947 0.02213 0.9232 0.0
C1323 C 0.75517 0.86752 1.0464 0.0
C1324 C 0.86437 0.97266 0.98029 0.0
C1325 C 0.81375 0.0475 0.20999 0.0
C1326 C 0.74609 0.04134 0.17057 0.0
C1327 C 0.84171 0.87082 0.95131 0.0
C1328 C 0.82529 0.72252 0.1372 0.0
C1329 C 0.82638 0.67139 0.19894 0.0
C1330 C 0.80412 0.64987 0.16724 0.0
C1331 C 0.80533 0.69818 0.10715 0.0
C1332 C 0.83689 0.7088 0.18315 0.0
C1333 C 0.79464 0.6624 0.12226 0.0
C1334 C 0.90126 0.87493 0.10092 0.0
C1335 C 0.82978 0.76291 0.12128 0.0
H1336 H 0.88268 0.11575 0.92946 0.0
H1337 H 0.90951 0.02642 1.02597 0.0
H1338 H 0.91584 0.09348 0.99995 0.0
H1339 H 0.84376 0.00176 0.9023 0.0
H1340 H 0.79323 0.62275 0.17605 0.0
H1341 H 0.79658 0.70746 0.0723 0.0
H1342 H 0.85288 0.72725 0.20644 0.0
H1343 H 0.77799 0.64431 0.09921 0.0
Eu1344 Eu 0.56358 0.58591 0.80225 0.0
C1345 C 0.75881 0.58798 0.86083 0.0
N1346 N 0.73132 0.61157 0.84423 0.0
C1347 C 0.74702 0.66041 0.90302 0.0
C1348 C 0.77813 0.60113 0.91729 0.0
C1349 C 0.72881 0.64784 0.86142 0.0
C1350 C 0.77056 0.63781 0.93115 0.0
C1351 C 0.77237 0.49959 0.86378 0.0
C1352 C 0.75468 0.54138 0.83839 0.0
C1353 C 0.79028 0.49703 0.91915 0.0
C1354 C 0.79595 0.56502 0.95843 0.0
Eu1355 Eu 0.68024 0.58576 0.79484 0.0
N1356 N 0.71834 0.53531 0.82368 0.0
C1357 C 0.75398 0.46667 0.85517 0.0
C1358 C 0.69886 0.50518 0.84312 0.0
C1359 C 0.71554 0.47134 0.8573 0.0
H1360 H 0.70989 0.6678 0.84469 0.0
H1361 H 0.69824 0.44968 0.87351 0.0
H1362 H 0.55072 0.50009 0.7436 0.0
H1363 H 0.51269 0.72424 0.76638 0.0
H1364 H 0.66976 0.50742 0.85187 0.0
H1365 H 0.76613 0.44052 0.86862 0.0
H1366 H 0.55363 0.67771 0.80211 0.0
H1367 H 0.73934 0.68813 0.9163 0.0
H1368 H 0.7933 0.51085 0.93404 0.0
H1369 H 0.80474 0.57412 0.99368 0.0
H1370 H 0.51924 0.47832 0.67161 0.0
H1371 H 0.7804 0.64815 0.96499 0.0
H1372 H 0.4657 0.70362 0.70576 0.0
N1373 N 0.53175 0.55764 0.73729 0.0
C1374 C 0.51009 0.58233 0.71206 0.0
C1375 C 0.51671 0.50775 0.68249 0.0
C1376 C 0.49033 0.5705 0.6714 0.0
C1377 C 0.53459 0.5204 0.72368 0.0
C1378 C 0.49535 0.53319 0.65556 0.0
N1379 N 0.53241 0.632 0.76085 0.0
C1380 C 0.5348 0.66889 0.77423 0.0
C1381 C 0.48566 0.64618 0.70248 0.0
C1382 C 0.50925 0.62021 0.72561 0.0
C1383 C 0.4856 0.68365 0.71895 0.0
C1384 C 0.51122 0.69534 0.75377 0.0
H1385 H 0.48214 0.5235 0.62317 0.0
H1386 H 0.45035 0.58757 0.61716 0.0
H1387 H 0.44421 0.65307 0.64625 0.0
O1388 O 0.52292 0.61242 0.85265 0.0
O1389 O 0.58873 0.6043 0.7255 0.0
O1390 O 0.64591 0.57245 0.72463 0.0
O1391 O 0.52852 0.55172 0.84997 0.0
O1392 O 0.59102 0.63457 0.84821 0.0
O1393 O 0.65122 0.64335 0.81802 0.0
O1394 O 0.6996 0.63553 0.7536 0.0
O1395 O 0.66716 0.57302 0.87144 0.0
O1396 O 0.61927 0.57922 0.82775 0.0
O1397 O 0.72141 0.57832 0.7414 0.0
O1398 O 0.64747 0.52551 0.77965 0.0
O1399 O 0.5849 0.52345 0.80814 0.0
C1400 C 0.61949 0.59221 0.70089 0.0
C1401 C 0.4719 0.57532 0.88733 0.0
C1402 C 0.42035 0.57637 0.94861 0.0
C1403 C 0.3998 0.55261 0.91763 0.0
C1404 C 0.44835 0.55384 0.8579 0.0
C1405 C 0.4129 0.54239 0.87314 0.0
C1406 C 0.4575 0.58765 0.93275 0.0
C1407 C 0.62451 0.6524 0.84947 0.0
C1408 C 0.51228 0.58039 0.87149 0.0
C1409 C 0.46656 0.59637 0.6478 0.0
C1410 C 0.4633 0.63387 0.66425 0.0
C1411 C 0.63088 0.57177 0.86999 0.0
C1412 C 0.759 0.62621 0.71347 0.0
C1413 C 0.80944 0.60835 0.66047 0.0
C1414 C 0.83551 0.62798 0.68935 0.0
C1415 C 0.78453 0.64572 0.74258 0.0
C1416 C 0.77127 0.60947 0.67176 0.0
C1417 C 0.82282 0.64734 0.72968 0.0
C1418 C 0.61688 0.50559 0.7958 0.0
C1419 C 0.72192 0.61371 0.72849 0.0
H1420 H 0.37293 0.54121 0.92669 0.0
H1421 H 0.45805 0.54447 0.82348 0.0
H1422 H 0.39552 0.5246 0.85058 0.0
H1423 H 0.47529 0.60473 0.95564 0.0
H1424 H 0.86548 0.62822 0.68193 0.0
H1425 H 0.7753 0.65821 0.77557 0.0
H1426 H 0.75096 0.59428 0.65009 0.0
H1427 H 0.84296 0.66212 0.752 0.0
Eu1428 Eu 0.62953 0.31537 0.05267 0.0
C1429 C 0.62789 0.51102 0.11124 0.0
N1430 N 0.60419 0.48364 0.09459 0.0
C1431 C 0.55567 0.49966 0.15351 0.0
C1432 C 0.61498 0.53039 0.16778 0.0
C1433 C 0.56801 0.4814 0.1118 0.0
C1434 C 0.57839 0.52302 0.18169 0.0
C1435 C 0.71609 0.52419 0.11396 0.0
C1436 C 0.67428 0.50666 0.08867 0.0
C1437 C 0.71886 0.54205 0.16938 0.0
C1438 C 0.65117 0.54802 0.20887 0.0
Eu1439 Eu 0.62966 0.43216 1.04526 0.0
N1440 N 0.6802 0.47018 0.07396 0.0
C1441 C 0.74883 0.50564 0.10524 0.0
C1442 C 0.71024 0.45054 0.09338 0.0
C1443 C 0.74409 0.46713 0.10744 0.0
H1444 H 0.54796 0.46259 0.09507 0.0
H1445 H 0.76572 0.44976 0.12364 0.0
H1446 H 0.71405 0.30358 0.99159 0.0
H1447 H 0.49203 0.26174 1.02209 0.0
H1448 H 0.7079 0.4214 0.10222 0.0
H1449 H 0.77494 0.51777 0.11864 0.0
H1450 H 0.53803 0.30465 0.05452 0.0
H1451 H 0.52808 0.49206 0.16694 0.0
H1452 H 0.70511 0.54512 0.18433 0.0
H1453 H 0.64221 0.55684 0.24416 0.0
H1454 H 0.73547 0.27013 0.92069 0.0
H1455 H 0.5682 0.53287 0.2156 0.0
H1456 H 0.51217 0.21411 0.96169 0.0
N1457 N 0.65705 0.28316 0.98746 0.0
C1458 C 0.63239 0.26064 0.96343 0.0
C1459 C 0.70631 0.26745 0.93224 0.0
C1460 C 0.64397 0.23988 0.9234 0.0
C1461 C 0.6939 0.28638 0.97286 0.0
C1462 C 0.68101 0.24473 0.90686 0.0
N1463 N 0.58326 0.28352 1.0125 0.0
C1464 C 0.54669 0.28547 1.02691 0.0
C1465 C 0.56895 0.23514 0.95609 0.0
C1466 C 0.59481 0.25974 0.97772 0.0
C1467 C 0.53194 0.23468 0.97373 0.0
C1468 C 0.52049 0.26074 1.00824 0.0
H1469 H 0.69058 0.23047 0.87509 0.0
H1470 H 0.62676 0.19832 0.87098 0.0
H1471 H 0.5618 0.19225 0.90151 0.0
O1472 O 0.60352 0.27577 0.10453 0.0
O1473 O 0.61115 0.34013 0.97575 0.0
O1474 O 0.6425 0.3977 0.97474 0.0
O1475 O 0.66411 0.27959 0.09934 0.0
O1476 O 0.58103 0.34296 0.09873 0.0
O1477 O 0.57221 0.40352 0.06912 0.0
O1478 O 0.58003 0.45127 1.00367 0.0
O1479 O 0.64238 0.41916 0.12191 0.0
O1480 O 0.63625 0.37119 0.07814 0.0
O1481 O 0.63697 0.47371 0.99226 0.0
O1482 O 0.68968 0.39926 1.02983 0.0
O1483 O 0.69187 0.33655 0.05826 0.0
C1484 C 0.62304 0.37095 0.95105 0.0
C1485 C 0.6398 0.22356 0.13757 0.0
C1486 C 0.63774 0.17159 0.19835 0.0
C1487 C 0.6596 0.15002 0.16626 0.0
C1488 C 0.65942 0.1992 0.10716 0.0
C1489 C 0.66943 0.163 0.12159 0.0
C1490 C 0.62796 0.20945 0.18328 0.0
C1491 C 0.56315 0.37651 0.1002 0.0
C1492 C 0.63566 0.26421 0.12208 0.0
C1493 C 0.61816 0.21524 0.90115 0.0
C1494 C 0.58098 0.21202 0.91838 0.0
C1495 C 0.64366 0.3828 0.12042 0.0
C1496 C 0.58901 0.51075 0.96336 0.0
C1497 C 0.60637 0.56096 0.90973 0.0
C1498 C 0.58639 0.58715 0.93816 0.0
C1499 C 0.56918 0.53639 0.99203 0.0
C1500 C 0.6057 0.5228 0.92158 0.0
C1501 C 0.56714 0.57463 0.97858 0.0
C1502 C 0.7096 0.3686 1.04593 0.0
C1503 C 0.60177 0.47382 0.97886 0.0
H1504 H 0.66978 0.12245 0.17447 0.0
H1505 H 0.66833 0.20869 0.07249 0.0
H1506 H 0.68574 0.14487 0.0982 0.0
H1507 H 0.61227 0.22791 0.2069 0.0
H1508 H 0.58581 0.61712 0.93038 0.0
H1509 H 0.55675 0.52731 1.02509 0.0
H1510 H 0.62114 0.50239 0.90026 0.0
H1511 H 0.5521 0.59488 1.00054 0.0
Eu1512 Eu 0.90059 0.38042 0.30205 0.0
C1513 C 0.70516 0.37882 0.36044 0.0
N1514 N 0.73261 0.35517 0.34386 0.0
C1515 C 0.7166 0.30628 0.40238 0.0
C1516 C 0.68562 0.36563 0.41674 0.0
C1517 C 0.735 0.31887 0.36093 0.0
C1518 C 0.69303 0.3289 0.43046 0.0
C1519 C 0.69194 0.46724 0.36375 0.0
C1520 C 0.70952 0.42542 0.33824 0.0
C1521 C 0.67387 0.46976 0.41903 0.0
C1522 C 0.66781 0.40173 0.45796 0.0
Eu1523 Eu 0.78384 0.38083 0.29462 0.0
N1524 N 0.7459 0.43137 0.32365 0.0
C1525 C 0.71049 0.50008 0.35544 0.0
C1526 C 0.76547 0.4614 0.34324 0.0
C1527 C 0.74891 0.49523 0.35765 0.0
H1528 H 0.75397 0.29892 0.34426 0.0
H1529 H 0.7663 0.51673 0.37407 0.0
H1530 H 0.91372 0.46618 0.24366 0.0
H1531 H 0.95182 0.24203 0.2665 0.0
H1532 H 0.79458 0.45909 0.35189 0.0
H1533 H 0.69842 0.52623 0.36903 0.0
H1534 H 0.91097 0.28864 0.30242 0.0
H1535 H 0.72419 0.27854 0.41562 0.0
H1536 H 0.67075 0.45591 0.43385 0.0
H1537 H 0.65888 0.3926 0.49311 0.0
H1538 H 0.94518 0.48791 0.17168 0.0
H1539 H 0.68306 0.31852 0.46421 0.0
H1540 H -0.00183 0.26248 0.20518 0.0
N1541 N 0.93245 0.40857 0.23711 0.0
C1542 C 0.95397 0.38381 0.21179 0.0
C1543 C 0.94759 0.45845 0.18244 0.0
C1544 C 0.97366 0.39559 0.17108 0.0
C1545 C 0.92972 0.44583 0.22362 0.0
C1546 C 0.96877 0.43294 0.15537 0.0
N1547 N 0.9318 0.33423 0.26075 0.0
C1548 C 0.92959 0.29738 0.27432 0.0
C1549 C 0.97825 0.31991 0.20206 0.0
C1550 C 0.95479 0.34594 0.22533 0.0
C1551 C 0.9784 0.28248 0.21859 0.0
C1552 C 0.9531 0.27089 0.25375 0.0
H1553 H 0.98195 0.4426 0.12298 0.0
H1554 H 0.01336 0.37839 0.11659 0.0
H1555 H 0.01935 0.31284 0.14551 0.0
O1556 O 0.94118 0.35401 0.35258 0.0
O1557 O 0.87537 0.36224 0.2252 0.0
O1558 O 0.81813 0.39407 0.22438 0.0
O1559 O 0.93569 0.41471 0.34969 0.0
O1560 O 0.87303 0.33184 0.3479 0.0
O1561 O 0.81284 0.32323 0.31758 0.0
O1562 O 0.76431 0.33104 0.25348 0.0
O1563 O 0.79703 0.3936 0.37119 0.0
O1564 O 0.84493 0.38725 0.32758 0.0
O1565 O 0.74275 0.3883 0.24108 0.0
O1566 O 0.81674 0.44096 0.27955 0.0
O1567 O 0.87933 0.44288 0.30805 0.0
C1568 C 0.84462 0.37438 0.2006 0.0
C1569 C -0.00771 0.39111 0.38706 0.0
C1570 C 0.04392 0.39003 0.44824 0.0
C1571 C 0.06456 0.41357 0.41713 0.0
C1572 C 0.01587 0.4124 0.35752 0.0
C1573 C 0.05141 0.42372 0.37265 0.0
C1574 C 0.0067 0.37887 0.43249 0.0
C1575 C 0.83947 0.31416 0.34911 0.0
C1576 C 0.95188 0.38608 0.37131 0.0
C1577 C -0.00276 0.36964 0.1473 0.0
C1578 C 0.00042 0.33212 0.16366 0.0
C1579 C 0.83331 0.39474 0.36981 0.0
C1580 C 0.70496 0.34049 0.21326 0.0
C1581 C 0.65458 0.35823 0.1601 0.0
C1582 C 0.62851 0.33856 0.18888 0.0
C1583 C 0.67944 0.32093 0.24225 0.0
C1584 C 0.69274 0.3572 0.17153 0.0
C1585 C 0.64116 0.31923 0.22922 0.0
C1586 C 0.84737 0.46078 0.2958 0.0
C1587 C 0.74209 0.35288 0.22828 0.0
H1588 H 0.09153 0.42482 0.42608 0.0
H1589 H 0.00616 0.42169 0.32308 0.0
H1590 H 0.06884 0.44135 0.34999 0.0
H1591 H -0.01112 0.36194 0.45547 0.0
H1592 H 0.59855 0.33826 0.18136 0.0
H1593 H 0.68864 0.30841 0.27522 0.0
H1594 H 0.71306 0.37237 0.14992 0.0
H1595 H 0.62102 0.30441 0.25144 0.0
Eu1596 Eu 0.83461 0.65122 0.55321 0.0
C1597 C 0.83637 0.45562 0.61137 0.0
N1598 N 0.86003 0.48302 0.59481 0.0
C1599 C 0.90859 0.46705 0.65372 0.0
C1600 C 0.84929 0.43632 0.66791 0.0
C1601 C 0.89622 0.4853 0.61203 0.0
C1602 C 0.88587 0.4437 0.68186 0.0
C1603 C 0.74818 0.44225 0.6139 0.0
C1604 C 0.78997 0.45987 0.58871 0.0
C1605 C 0.74543 0.4244 0.66929 0.0
C1606 C 0.81312 0.41863 0.70892 0.0
Eu1607 Eu 0.83444 0.5344 0.54552 0.0
N1608 N 0.78398 0.49635 0.5741 0.0
C1609 C 0.71539 0.46077 0.60515 0.0
C1610 C 0.75391 0.51594 0.59352 0.0
C1611 C 0.72008 0.4993 0.60745 0.0
H1612 H 0.91624 0.50412 0.59532 0.0
H1613 H 0.69842 0.51666 0.62362 0.0
H1614 H 0.75011 0.66352 0.49254 0.0
H1615 H 0.97233 0.70519 0.52281 0.0
H1616 H 0.7562 0.54508 0.60242 0.0
H1617 H 0.68926 0.44863 0.61843 0.0
H1618 H 0.92593 0.66362 0.55715 0.0
H1619 H 0.93618 0.47464 0.66716 0.0
H1620 H 0.75916 0.42137 0.68426 0.0
H1621 H 0.82209 0.40985 0.74421 0.0
H1622 H 0.72932 0.69466 0.41976 0.0
H1623 H 0.89607 0.43385 0.71576 0.0
H1624 H 0.95261 0.75078 0.46001 0.0
N1625 N 0.80745 0.68278 0.48737 0.0
C1626 C 0.83234 0.70448 0.4626 0.0
C1627 C 0.75852 0.69722 0.43121 0.0
C1628 C 0.82117 0.72372 0.42128 0.0
C1629 C 0.77056 0.67966 0.47289 0.0
C1630 C 0.78429 0.71829 0.4045 0.0
N1631 N 0.88104 0.68325 0.51345 0.0
C1632 C 0.91748 0.68187 0.52851 0.0
C1633 C 0.89584 0.72971 0.45487 0.0
C1634 C 0.86978 0.7059 0.4774 0.0
C1635 C 0.93272 0.73071 0.47289 0.0
C1636 C 0.94389 0.70585 0.50883 0.0
H1637 H 0.77513 0.73108 0.37162 0.0
H1638 H 0.8389 0.76326 0.36685 0.0
H1639 H 0.90352 0.77056 0.3981 0.0
O1640 O 0.86018 0.69037 0.60594 0.0
O1641 O 0.8533 0.62616 0.47645 0.0
O1642 O 0.82157 0.56886 0.47514 0.0
O1643 O 0.79966 0.68759 0.59887 0.0
O1644 O 0.88306 0.62361 0.59925 0.0
O1645 O 0.89189 0.56313 0.56931 0.0
O1646 O 0.88397 0.51519 0.50385 0.0
O1647 O 0.82171 0.54741 0.6222 0.0
O1648 O 0.8278 0.5954 0.57855 0.0
O1649 O 0.82702 0.49269 0.49263 0.0
O1650 O 0.77439 0.56732 0.53015 0.0
O1651 O 0.77228 0.63001 0.55875 0.0
C1652 C 0.84125 0.59547 0.45159 0.0
C1653 C 0.82429 0.74326 0.6378 0.0
C1654 C 0.82669 0.7955 0.69828 0.0
C1655 C 0.80677 0.8178 0.66506 0.0
C1656 C 0.80637 0.76814 0.60645 0.0
C1657 C 0.79752 0.80485 0.62014 0.0
C1658 C 0.83534 0.75717 0.68392 0.0
C1659 C 0.90094 0.59006 0.60056 0.0
C1660 C 0.82791 0.7025 0.62251 0.0
C1661 C 0.84721 0.74749 0.39806 0.0
C1662 C 0.88419 0.75141 0.41574 0.0
C1663 C 0.82039 0.58377 0.62078 0.0
C1664 C 0.87496 0.45562 0.4636 0.0
C1665 C 0.85779 0.40551 0.40964 0.0
C1666 C 0.87764 0.37925 0.43809 0.0
C1667 C 0.89465 0.42991 0.49231 0.0
C1668 C 0.85844 0.44364 0.42165 0.0
C1669 C 0.89674 0.3917 0.4787 0.0
C1670 C 0.7545 0.598 0.54631 0.0
C1671 C 0.86219 0.49255 0.47914 0.0
H1672 H 0.79775 0.84595 0.67259 0.0
H1673 H 0.79805 0.75875 0.57148 0.0
H1674 H 0.78266 0.82348 0.59589 0.0
H1675 H 0.84973 0.7383 0.70829 0.0
H1676 H 0.87818 0.34929 0.43021 0.0
H1677 H 0.90695 0.43893 0.52548 0.0
H1678 H 0.84311 0.4641 0.40031 0.0
H1679 H 0.91166 0.3714 0.50069 0.0
Eu1680 Eu 0.56454 0.37979 0.79228 0.0
C1681 C 0.75999 0.37977 0.73482 0.0
N1682 N 0.73306 0.35574 0.75165 0.0
C1683 C 0.751 0.30628 0.69466 0.0
C1684 C 0.78056 0.36612 0.67925 0.0
C1685 C 0.73183 0.3191 0.7355 0.0
C1686 C 0.77424 0.32899 0.66634 0.0
C1687 C 0.77136 0.46833 0.72985 0.0
C1688 C 0.75435 0.4266 0.75588 0.0
C1689 C 0.79018 0.47036 0.67502 0.0
C1690 C 0.79821 0.40197 0.63766 0.0
Eu1691 Eu 0.68106 0.38109 0.79989 0.0
N1692 N 0.7178 0.43209 0.77005 0.0
C1693 C 0.75222 0.50102 0.73734 0.0
C1694 C 0.69781 0.46176 0.75023 0.0
C1695 C 0.71387 0.49572 0.73554 0.0
H1696 H 0.71311 0.29901 0.75231 0.0
H1697 H 0.69614 0.51701 0.7192 0.0
H1698 H 0.54859 0.46591 0.84868 0.0
H1699 H 0.51714 0.24016 0.83155 0.0
H1700 H 0.66867 0.45912 0.742 0.0
H1701 H 0.76391 0.52713 0.72325 0.0
H1702 H 0.55486 0.28776 0.79196 0.0
H1703 H 0.7442 0.27821 0.68192 0.0
H1704 H 0.7938 0.45632 0.66057 0.0
H1705 H 0.80785 0.39254 0.60289 0.0
H1706 H 0.51949 0.48725 0.92239 0.0
H1707 H 0.78485 0.31829 0.63303 0.0
H1708 H 0.47198 0.26019 0.89403 0.0
N1709 N 0.53245 0.40772 0.85725 0.0
C1710 C 0.51232 0.38264 0.88374 0.0
C1711 C 0.51767 0.45763 0.91212 0.0
C1712 C 0.49402 0.39415 0.92558 0.0
C1713 C 0.53425 0.44521 0.87002 0.0
C1714 C 0.49867 0.43166 0.94085 0.0
N1715 N 0.53394 0.33327 0.83388 0.0
C1716 C 0.53681 0.29631 0.82074 0.0
C1717 C 0.49009 0.31823 0.8953 0.0
C1718 C 0.51184 0.34469 0.87038 0.0
C1719 C 0.49063 0.28061 0.87942 0.0
C1720 C 0.51513 0.26929 0.84328 0.0
H1721 H 0.48674 0.44112 0.97411 0.0
H1722 H 0.45711 0.3763 0.98264 0.0
H1723 H 0.45169 0.31047 0.95454 0.0
O1724 O 0.52495 0.35331 0.7408 0.0
O1725 O 0.59002 0.36126 0.86887 0.0
O1726 O 0.64677 0.39379 0.87041 0.0
O1727 O 0.52866 0.41408 0.74542 0.0
O1728 O 0.59225 0.33127 0.74623 0.0
O1729 O 0.65307 0.32338 0.77542 0.0
O1730 O 0.6998 0.33187 0.8426 0.0
O1731 O 0.66784 0.39326 0.72308 0.0
O1732 O 0.6201 0.38727 0.76689 0.0
O1733 O 0.72367 0.3887 0.85159 0.0
O1734 O 0.64801 0.44106 0.81549 0.0
O1735 O 0.58547 0.44243 0.78681 0.0
C1736 C 0.62037 0.37378 0.89387 0.0
C1737 C 0.47281 0.38942 0.70755 0.0
C1738 C 0.42087 0.38785 0.64687 0.0
C1739 C 0.3989 0.4083 0.67996 0.0
C1740 C 0.44822 0.40781 0.73881 0.0
C1741 C 0.41181 0.41733 0.72494 0.0
C1742 C 0.45889 0.37851 0.66141 0.0
C1743 C 0.62605 0.31397 0.74451 0.0
C1744 C 0.5134 0.38541 0.72288 0.0
C1745 C 0.4721 0.36779 0.95094 0.0
C1746 C 0.46921 0.33013 0.93499 0.0
C1747 C 0.63159 0.39433 0.72451 0.0
C1748 C 0.75993 0.34037 0.88147 0.0
C1749 C 0.81008 0.35875 0.93457 0.0
C1750 C 0.83658 0.34034 0.90506 0.0
C1751 C 0.78588 0.32197 0.8518 0.0
C1752 C 0.77185 0.35647 0.92368 0.0
C1753 C 0.82425 0.32111 0.86449 0.0
C1754 C 0.61714 0.46065 0.7995 0.0
C1755 C 0.72319 0.3537 0.86613 0.0
H1756 H 0.37105 0.41789 0.6723 0.0
H1757 H 0.45764 0.41604 0.77379 0.0
H1758 H 0.39342 0.43259 0.74909 0.0
H1759 H 0.47755 0.36376 0.63713 0.0
H1760 H 0.86657 0.34093 0.91224 0.0
H1761 H 0.77693 0.30991 0.81849 0.0
H1762 H 0.75119 0.3707 0.94582 0.0
H1763 H 0.8447 0.30724 0.84171 0.0
Eu1764 Eu 0.83497 0.31622 1.04184 0.0
C1765 C 0.8349 0.51185 0.98452 0.0
N1766 N 0.85893 0.48483 1.00134 0.0
C1767 C 0.908 0.50237 0.9439 0.0
C1768 C 0.84835 0.5323 0.92881 0.0
C1769 C 0.89539 0.48339 0.98495 0.0
C1770 C 0.8853 0.52576 0.91569 0.0
C1771 C 0.74651 0.52323 0.97966 0.0
C1772 C 0.78822 0.50625 1.00569 0.0
C1773 C 0.74433 0.5419 0.92472 0.0
C1774 C 0.81247 0.54985 0.88721 0.0
Eu1775 Eu 0.83381 0.43279 0.04974 0.0
N1776 N 0.78282 0.46964 1.01998 0.0
C1777 C 0.71395 0.50411 0.98733 0.0
C1778 C 0.75324 0.44958 1.00022 0.0
C1779 C 0.71927 0.46565 0.9856 0.0
H1780 H 0.9155 0.46464 1.00173 0.0
H1781 H 0.69802 0.44788 0.96933 0.0
H1782 H 0.74994 0.30162 0.10061 0.0
H1783 H 0.97381 0.2661 0.07594 0.0
H1784 H 0.75598 0.42038 0.99191 0.0
H1785 H 0.68788 0.51582 0.97322 0.0
H1786 H 0.9266 0.30591 1.03985 0.0
H1787 H 0.93586 0.49529 0.93092 0.0
H1788 H 0.7583 0.54547 0.91022 0.0
H1789 H 0.8218 0.55938 0.85238 0.0
H1790 H 0.72916 0.27057 0.17333 0.0
H1791 H 0.89584 0.53621 0.88225 0.0
H1792 H 0.95433 0.21957 0.13754 0.0
N1793 N 0.80772 0.28378 0.10695 0.0
C1794 C 0.83282 0.26265 0.13222 0.0
C1795 C 0.75851 0.26844 0.16231 0.0
C1796 C 0.82164 0.2433 0.17343 0.0
C1797 C 0.77059 0.28608 0.12073 0.0
C1798 C 0.78446 0.24798 0.18954 0.0
N1799 N 0.88157 0.28484 0.0822 0.0
C1800 C 0.91822 0.28736 0.06819 0.0
C1801 C 0.89688 0.23906 0.14142 0.0
C1802 C 0.87045 0.26202 0.11811 0.0
C1803 C 0.93407 0.23915 0.12438 0.0
C1804 C 0.94509 0.26442 0.08887 0.0
H1805 H 0.77528 0.23517 0.22239 0.0
H1806 H 0.83975 0.20449 0.22853 0.0
H1807 H 0.90496 0.19881 0.19878 0.0
O1808 O 0.86113 0.27817 0.98857 0.0
O1809 O 0.85389 0.34128 0.11841 0.0
O1810 O 0.82142 0.3982 0.12015 0.0
O1811 O 0.80059 0.27953 0.99591 0.0
O1812 O 0.88331 0.34397 0.99594 0.0
O1813 O 0.89141 0.40475 1.02544 0.0
O1814 O 0.88301 0.45108 0.09257 0.0
O1815 O 0.82182 0.41979 0.97281 0.0
O1816 O 0.82745 0.37196 1.01673 0.0
O1817 O 0.82652 0.47572 0.10124 0.0
O1818 O 0.77401 0.3997 0.06545 0.0
O1819 O 0.77248 0.33708 1.03658 0.0
C1820 C 0.84156 0.37174 0.14347 0.0
C1821 C 0.8267 0.22446 0.95762 0.0
C1822 C 0.83001 0.17143 0.8984 0.0
C1823 C 0.81326 0.14855 0.93372 0.0
C1824 C 0.81184 0.19921 0.99081 0.0
C1825 C 0.80497 0.16177 0.97877 0.0
C1826 C 0.83649 0.2105 0.91112 0.0
C1827 C 0.90081 0.37768 0.99454 0.0
C1828 C 0.82911 0.26539 0.97203 0.0
C1829 C 0.84801 0.22028 0.19733 0.0
C1830 C 0.88531 0.21725 0.18047 0.0
C1831 C 0.82051 0.38346 0.97432 0.0
C1832 C 0.87509 0.51131 0.13166 0.0
C1833 C 0.8576 0.56138 0.18548 0.0
C1834 C 0.87629 0.58791 0.15632 0.0
C1835 C 0.89373 0.53727 0.10228 0.0
C1836 C 0.85929 0.52314 0.17405 0.0
C1837 C 0.8952 0.5756 0.11552 0.0
C1838 C 0.7544 0.36882 0.04944 0.0
C1839 C 0.86139 0.47478 0.11598 0.0
H1840 H 0.80613 0.11967 0.92811 0.0
H1841 H 0.80454 0.20874 1.02607 0.0
H1842 H 0.79256 0.14269 1.00452 0.0
H1843 H 0.84845 0.22982 0.88534 0.0
H1844 H 0.87606 0.61793 0.16385 0.0
H1845 H 0.90553 0.52839 0.0688 0.0
H1846 H 0.84484 0.50247 0.19594 0.0
H1847 H 0.90926 0.59608 0.09297 0.0
Eu1848 Eu 0.89997 0.58639 0.29298 0.0
C1849 C 0.70441 0.58676 0.2349 0.0
N1850 N 0.73152 0.61065 0.25169 0.0
C1851 C 0.71424 0.65995 0.19427 0.0
C1852 C 0.6839 0.60042 0.17929 0.0
C1853 C 0.73316 0.64717 0.2353 0.0
C1854 C 0.69064 0.63741 0.16616 0.0
C1855 C 0.69279 0.49823 0.22986 0.0
C1856 C 0.70988 0.53993 0.25596 0.0
C1857 C 0.67398 0.4962 0.17498 0.0
C1858 C 0.66615 0.56459 0.13765 0.0
Eu1859 Eu 0.78331 0.58524 0.3003 0.0
N1860 N 0.74639 0.53437 0.27027 0.0
C1861 C 0.71187 0.46551 0.23733 0.0
C1862 C 0.76634 0.50465 0.25047 0.0
C1863 C 0.75023 0.47076 0.23559 0.0
H1864 H 0.75205 0.66716 0.25202 0.0
H1865 H 0.76795 0.44949 0.21919 0.0
H1866 H 0.91499 0.50048 0.35013 0.0
H1867 H 0.94955 0.72548 0.33006 0.0
H1868 H 0.7955 0.5072 0.24237 0.0
H1869 H 0.70015 0.43942 0.22316 0.0
H1870 H 0.91077 0.67821 0.29165 0.0
H1871 H 0.72152 0.68781 0.18129 0.0
H1872 H 0.67041 0.51024 0.16052 0.0
H1873 H 0.6566 0.57403 0.10286 0.0
H1874 H 0.94441 0.47921 0.42367 0.0
H1875 H 0.68021 0.64806 0.13274 0.0
H1876 H -0.00555 0.70546 0.39301 0.0
N1877 N 0.93181 0.55853 0.35817 0.0
C1878 C 0.95224 0.58357 0.38443 0.0
C1879 C 0.94639 0.50876 0.41325 0.0
C1880 C 0.97063 0.5721 0.42622 0.0
C1881 C 0.92967 0.52114 0.37121 0.0
C1882 C 0.96576 0.5347 0.44171 0.0
N1883 N 0.931 0.63282 0.33424 0.0
C1884 C 0.92872 0.66967 0.32055 0.0
C1885 C 0.97531 0.64776 0.39523 0.0
C1886 C 0.95305 0.62141 0.37077 0.0
C1887 C 0.97539 0.6852 0.37876 0.0
C1888 C 0.95101 0.69651 0.34246 0.0
H1889 H 0.97784 0.52526 0.47489 0.0
H1890 H 0.008 0.58991 0.4829 0.0
H1891 H 0.01409 0.65547 0.45415 0.0
O1892 O 0.93934 0.61274 0.24119 0.0
O1893 O 0.87447 0.60501 0.36953 0.0
O1894 O 0.8176 0.57263 0.37087 0.0
O1895 O 0.93594 0.55199 0.24629 0.0
O1896 O 0.87223 0.63492 0.24714 0.0
O1897 O 0.81166 0.64295 0.27681 0.0
O1898 O 0.76411 0.63468 0.34231 0.0
O1899 O 0.7967 0.57292 0.22364 0.0
O1900 O 0.8444 0.57903 0.26757 0.0
O1901 O 0.74109 0.57766 0.35243 0.0
O1902 O 0.81634 0.52527 0.31576 0.0
O1903 O 0.87894 0.52382 0.28728 0.0
C1904 C 0.84402 0.59261 0.39441 0.0
C1905 C -0.00842 0.57671 0.20795 0.0
C1906 C 0.04336 0.57843 0.14705 0.0
C1907 C 0.06542 0.55794 0.17999 0.0
C1908 C 0.0163 0.55835 0.23906 0.0
C1909 C 0.05267 0.54887 0.22501 0.0
C1910 C 0.00536 0.5877 0.16178 0.0
C1911 C 0.83847 0.65228 0.24566 0.0
C1912 C 0.95102 0.5806 0.22349 0.0
C1913 C -0.00707 0.59839 0.45124 0.0
C1914 C -0.0038 0.6359 0.43493 0.0
C1915 C 0.83295 0.57188 0.22519 0.0
C1916 C 0.70424 0.62586 0.38148 0.0
C1917 C 0.65416 0.60805 0.43484 0.0
C1918 C 0.62775 0.62688 0.4056 0.0
C1919 C 0.67841 0.64463 0.35203 0.0
C1920 C 0.69233 0.60978 0.42366 0.0
C1921 C 0.64012 0.64597 0.36498 0.0
C1922 C 0.84719 0.50567 0.29973 0.0
C1923 C 0.74111 0.61283 0.36634 0.0
H1924 H 0.09323 0.54833 0.1722 0.0
H1925 H 0.00701 0.55008 0.27406 0.0
H1926 H 0.07115 0.5336 0.24903 0.0
H1927 H -0.0134 0.60245 0.13762 0.0
H1928 H 0.59778 0.62669 0.41296 0.0
H1929 H 0.68739 0.65671 0.31875 0.0
H1930 H 0.71293 0.59534 0.44566 0.0
H1931 H 0.61974 0.66017 0.34241 0.0
Eu1932 Eu 0.62919 0.6507 0.5423 0.0
C1933 C 0.62899 0.45501 0.48407 0.0
N1934 N 0.60503 0.48213 0.50086 0.0
C1935 C 0.55609 0.46497 0.44298 0.0
C1936 C 0.61563 0.43472 0.4282 0.0
C1937 C 0.56864 0.4838 0.48421 0.0
C1938 C 0.57876 0.44149 0.41485 0.0
C1939 C 0.71735 0.44329 0.47966 0.0
C1940 C 0.67562 0.46038 0.50554 0.0
C1941 C 0.71963 0.42471 0.42464 0.0
C1942 C 0.65157 0.4171 0.38672 0.0
Eu1943 Eu 0.63018 0.53392 0.54978 0.0
N1944 N 0.6811 0.49694 0.52004 0.0
C1945 C 0.74995 0.46231 0.48757 0.0
C1946 C 0.71079 0.51694 0.50047 0.0
C1947 C 0.74473 0.50078 0.48592 0.0
H1948 H 0.54857 0.50262 0.50094 0.0
H1949 H 0.76606 0.51851 0.4698 0.0
H1950 H 0.71421 0.66533 0.60131 0.0
H1951 H 0.48995 0.69853 0.57772 0.0
H1952 H 0.70817 0.54616 0.49229 0.0
H1953 H 0.77603 0.45054 0.47357 0.0
H1954 H 0.53734 0.65879 0.54206 0.0
H1955 H 0.52831 0.47223 0.42984 0.0
H1956 H 0.7057 0.42121 0.41005 0.0
H1957 H 0.6423 0.40768 0.35179 0.0
H1958 H 0.73504 0.6973 0.6735 0.0
H1959 H 0.5683 0.43116 0.38129 0.0
H1960 H 0.50932 0.74637 0.63783 0.0
N1961 N 0.65647 0.68338 0.60726 0.0
C1962 C 0.63133 0.70465 0.6323 0.0
C1963 C 0.70571 0.69938 0.66237 0.0
C1964 C 0.64255 0.72466 0.67305 0.0
C1965 C 0.6936 0.6812 0.62111 0.0
C1966 C 0.67982 0.7204 0.68908 0.0
N1967 N 0.58245 0.68123 0.58323 0.0
C1968 C 0.54572 0.67789 0.56985 0.0
C1969 C 0.56705 0.72765 0.64166 0.0
C1970 C 0.59358 0.7047 0.61854 0.0
C1971 C 0.52972 0.7268 0.62504 0.0
C1972 C 0.51873 0.70078 0.59032 0.0
H1973 H 0.68907 0.7338 0.72156 0.0
H1974 H 0.62441 0.76412 0.72746 0.0
H1975 H 0.55892 0.76868 0.69822 0.0
O1976 O 0.60269 0.69051 0.49099 0.0
O1977 O 0.61053 0.62559 0.6189 0.0
O1978 O 0.6425 0.56833 0.6204 0.0
O1979 O 0.66332 0.68639 0.49518 0.0
O1980 O 0.58099 0.62295 0.49611 0.0
O1981 O 0.57263 0.56227 0.52569 0.0
O1982 O 0.58093 0.51507 0.59208 0.0
O1983 O 0.6424 0.54706 0.47302 0.0
O1984 O 0.63655 0.59494 0.51694 0.0
O1985 O 0.63762 0.49113 0.60141 0.0
O1986 O 0.69002 0.56697 0.56561 0.0
O1987 O 0.69167 0.62975 0.53726 0.0
C1988 C 0.62258 0.59494 0.64378 0.0
C1989 C 0.63886 0.74244 0.45724 0.0
C1990 C 0.6372 0.79417 0.39617 0.0
C1991 C 0.65898 0.81577 0.42829 0.0
C1992 C 0.6584 0.76683 0.48767 0.0
C1993 C 0.66857 0.80292 0.47311 0.0
C1994 C 0.62726 0.75641 0.41137 0.0
C1995 C 0.5634 0.58928 0.49466 0.0
C1996 C 0.63468 0.70186 0.47286 0.0
C1997 C 0.61611 0.74781 0.69665 0.0
C1998 C 0.57865 0.7502 0.6801 0.0
C1999 C 0.64366 0.5834 0.47457 0.0
C2000 C 0.58927 0.4549 0.63111 0.0
C2001 C 0.60698 0.4048 0.68473 0.0
C2002 C 0.58852 0.37823 0.65535 0.0
C2003 C 0.57085 0.4289 0.60153 0.0
C2004 C 0.60508 0.44306 0.67351 0.0
C2005 C 0.5696 0.39053 0.61455 0.0
C2006 C 0.70969 0.59787 0.54981 0.0
C2007 C 0.60265 0.49164 0.61573 0.0
H2008 H 0.66933 0.84322 0.41995 0.0
H2009 H 0.66717 0.7574 0.52245 0.0
H2010 H 0.68485 0.82106 0.4965 0.0
H2011 H 0.61166 0.73792 0.38772 0.0
H2012 H 0.58892 0.34819 0.66272 0.0
H2013 H 0.55905 0.4378 0.56804 0.0
H2014 H 0.61933 0.46377 0.69558 0.0
H2015 H 0.55571 0.37002 0.59184 0.0
Eu2016 Eu 0.28366 0.3816 0.29997 0.0
C2017 C 0.45345 0.3829 0.38326 0.0
N2018 N 0.43216 0.40801 0.35819 0.0
C2019 C 0.44727 0.45723 0.41386 0.0
C2020 C 0.47286 0.3941 0.42443 0.0
C2021 C 0.42963 0.44516 0.37224 0.0
C2022 C 0.46795 0.43126 0.44084 0.0
C2023 C 0.47757 0.31885 0.39178 0.0
C2024 C 0.45424 0.34521 0.36894 0.0
C2025 C 0.49955 0.33052 0.43066 0.0
C2026 C 0.49625 0.3678 0.44788 0.0
Eu2027 Eu 0.40014 0.38066 0.2928 0.0
N2028 N 0.43134 0.33401 0.33315 0.0
C2029 C 0.47777 0.28168 0.3743 0.0
C2030 C 0.42912 0.29735 0.31877 0.0
C2031 C 0.45252 0.27059 0.33882 0.0
H2032 H 0.41393 0.46583 0.35233 0.0
H2033 H 0.4512 0.24194 0.32535 0.0
H2034 H 0.25257 0.29959 0.25148 0.0
H2035 H 0.27029 0.51717 0.21696 0.0
H2036 H 0.4106 0.28893 0.29042 0.0
H2037 H 0.49756 0.26148 0.38705 0.0
H2038 H 0.29735 0.45945 0.2413 0.0
H2039 H 0.44505 0.4866 0.42505 0.0
H2040 H 0.5184 0.31102 0.44853 0.0
H2041 H 0.51217 0.37611 0.47897 0.0
H2042 H 0.2213 0.27861 0.18143 0.0
H2043 H 0.48087 0.44047 0.47362 0.0
H2044 H 0.20259 0.52753 0.21924 0.0
N2045 N 0.23221 0.35622 0.25098 0.0
C2046 C 0.20521 0.38025 0.23411 0.0
C2047 C 0.21421 0.30658 0.19429 0.0
C2048 C 0.18368 0.36607 0.17929 0.0
C2049 C 0.23367 0.3196 0.2348 0.0
C2050 C 0.19014 0.32892 0.16653 0.0
N2051 N 0.24792 0.43267 0.26832 0.0
C2052 C 0.26812 0.46214 0.24852 0.0
C2053 C 0.19453 0.46887 0.22742 0.0
C2054 C 0.21142 0.42734 0.25407 0.0
C2055 C 0.21398 0.50151 0.234 0.0
C2056 C 0.25231 0.49604 0.23311 0.0
H2057 H 0.17918 0.318 0.1335 0.0
H2058 H 0.15539 0.39176 0.10306 0.0
H2059 H 0.17084 0.45606 0.15904 0.0
O2060 O 0.23885 0.38934 0.34895 0.0
O2061 O 0.29714 0.39318 0.22314 0.0
O2062 O 0.34462 0.38803 0.26752 0.0
O2063 O 0.26485 0.33304 0.34356 0.0
O2064 O 0.31625 0.44173 0.31607 0.0
O2065 O 0.37897 0.44324 0.28786 0.0
O2066 O 0.4394 0.35453 0.24056 0.0
O2067 O 0.37502 0.36201 0.36946 0.0
O2068 O 0.31757 0.39366 0.37109 0.0
O2069 O 0.43616 0.41523 0.24643 0.0
O2070 O 0.37241 0.33206 0.24678 0.0
O2071 O 0.31183 0.32378 0.27629 0.0
C2072 C 0.33335 0.39487 0.22502 0.0
C2073 C 0.20371 0.34052 0.38018 0.0
C2074 C 0.15393 0.3582 0.43412 0.0
C2075 C 0.12707 0.34133 0.40376 0.0
C2076 C 0.17738 0.32377 0.34956 0.0
C2077 C 0.13903 0.32311 0.36231 0.0
C2078 C 0.19215 0.35503 0.4234 0.0
C2079 C 0.34721 0.46136 0.30048 0.0
C2080 C 0.2401 0.35479 0.36503 0.0
C2081 C 0.16561 0.40155 0.13742 0.0
C2082 C 0.1748 0.4703 0.1731 0.0
C2083 C 0.3444 0.374 0.39443 0.0
C2084 C 0.49181 0.3905 0.20772 0.0
C2085 C 0.54378 0.38833 0.14697 0.0
C2086 C 0.56568 0.40913 0.17977 0.0
C2087 C 0.51643 0.40917 0.23867 0.0
C2088 C 0.50574 0.37916 0.16168 0.0
C2089 C 0.55279 0.41858 0.22463 0.0
C2090 C 0.33881 0.31438 0.24537 0.0
C2091 C 0.45119 0.38672 0.22327 0.0
H2092 H 0.09709 0.34246 0.4109 0.0
H2093 H 0.18603 0.31296 0.31547 0.0
H2094 H 0.1183 0.3105 0.33881 0.0
H2095 H 0.21316 0.36777 0.44636 0.0
H2096 H 0.59348 0.41871 0.172 0.0
H2097 H 0.50707 0.41773 0.27356 0.0
H2098 H 0.48706 0.36424 0.1376 0.0
H2099 H 0.57116 0.43409 0.24852 0.0
Eu2100 Eu 0.33314 0.53398 0.04975 0.0
C2101 C 0.33291 0.70553 0.13091 0.0
N2102 N 0.30775 0.68343 0.10707 0.0
C2103 C 0.25926 0.69942 0.16321 0.0
C2104 C 0.32201 0.7262 0.1713 0.0
C2105 C 0.27099 0.68067 0.12215 0.0
C2106 C 0.28513 0.72158 0.18846 0.0
C2107 C 0.39684 0.72986 0.13781 0.0
C2108 C 0.37039 0.70585 0.11626 0.0
C2109 C 0.38548 0.75305 0.17576 0.0
C2110 C 0.34838 0.75033 0.19342 0.0
Eu2111 Eu 0.33443 0.65055 1.04178 0.0
N2112 N 0.38134 0.68186 0.08141 0.0
C2113 C 0.4338 0.7295 0.12003 0.0
C2114 C 0.41785 0.67901 0.06703 0.0
C2115 C 0.44463 0.70302 0.08571 0.0
H2116 H 0.2504 0.66387 0.10356 0.0
H2117 H 0.47307 0.70112 0.07195 0.0
H2118 H 0.41468 0.50067 1.00334 0.0
H2119 H 0.19792 0.52213 0.96594 0.0
H2120 H 0.42616 0.6596 1.03955 0.0
H2121 H 0.45398 0.74974 0.13178 0.0
H2122 H 0.25581 0.54855 0.99057 0.0
H2123 H 0.23021 0.69691 0.17529 0.0
H2124 H 0.4052 0.77231 0.19263 0.0
H2125 H 0.3403 0.76718 0.22388 0.0
H2126 H 0.43575 0.46816 0.93409 0.0
H2127 H 0.27618 0.73548 0.22075 0.0
H2128 H 0.18696 0.45439 0.96795 0.0
N2129 N 0.35788 0.48133 1.00205 0.0
C2130 C 0.33356 0.45474 0.98494 0.0
C2131 C 0.40764 0.46175 0.94653 0.0
C2132 C 0.34779 0.43263 0.93049 0.0
C2133 C 0.39461 0.48186 0.98659 0.0
C2134 C 0.38513 0.4381 0.91842 0.0
N2135 N 0.28175 0.49869 1.01812 0.0
C2136 C 0.2527 0.5193 0.99797 0.0
C2137 C 0.24515 0.44554 0.97718 0.0
C2138 C 0.28659 0.46193 1.0042 0.0
C2139 C 0.21284 0.46554 0.98318 0.0
C2140 C 0.21873 0.50389 0.98235 0.0
H2141 H 0.39616 0.42669 0.88569 0.0
H2142 H 0.32229 0.40428 0.85416 0.0
H2143 H 0.25807 0.42119 0.90916 0.0
O2144 O 0.38173 0.51638 0.09404 0.0
O2145 O 0.32219 0.54711 0.97258 0.0
O2146 O 0.32677 0.59485 1.01679 0.0
O2147 O 0.32606 0.48927 0.09899 0.0
O2148 O 0.27335 0.56685 0.06596 0.0
O2149 O 0.27182 0.62967 1.03761 0.0
O2150 O 0.3605 0.68956 0.98924 0.0
O2151 O 0.35322 0.6258 0.1185 0.0
O2152 O 0.32108 0.56863 0.12037 0.0
O2153 O 0.29997 0.6864 0.995 0.0
O2154 O 0.38286 0.62233 0.99597 0.0
O2155 O 0.39086 0.56148 1.02546 0.0
C2156 C 0.32037 0.58339 0.97423 0.0
C2157 C 0.37523 0.45529 0.1314 0.0
C2158 C 0.35816 0.40532 0.18541 0.0
C2159 C 0.37652 0.3787 0.15596 0.0
C2160 C 0.39354 0.42923 0.10174 0.0
C2161 C 0.39517 0.39093 0.11499 0.0
C2162 C 0.36018 0.4436 0.17421 0.0
C2163 C 0.25375 0.59792 0.05051 0.0
C2164 C 0.36037 0.49133 0.11549 0.0
C2165 C 0.31244 0.41491 0.88829 0.0
C2166 C 0.2438 0.42548 0.92302 0.0
C2167 C 0.34114 0.59526 0.14357 0.0
C2168 C 0.32462 0.74216 0.95644 0.0
C2169 C 0.3269 0.79443 0.89592 0.0
C2170 C 0.3055 0.81608 0.92842 0.0
C2171 C 0.30552 0.76667 0.9872 0.0
C2172 C 0.33629 0.75634 0.91064 0.0
C2173 C 0.29583 0.80302 0.97309 0.0
C2174 C 0.40047 0.58859 0.99482 0.0
C2175 C 0.32841 0.70141 0.97186 0.0
H2176 H 0.37626 0.34867 0.16342 0.0
H2177 H 0.40491 0.43799 0.06804 0.0
H2178 H 0.40899 0.37039 0.09223 0.0
H2179 H 0.34634 0.46445 0.19644 0.0
H2180 H 0.29561 0.84381 0.92059 0.0
H2181 H 0.29677 0.75718 1.02194 0.0
H2182 H 0.35157 0.73778 0.88673 0.0
H2183 H 0.27992 0.82125 0.99678 0.0
Eu2184 Eu 0.1806 0.58481 0.80012 0.0
C2185 C 0.01091 0.5839 0.88338 0.0
N2186 N 0.03216 0.55872 0.85835 0.0
C2187 C 0.01719 0.50965 0.91418 0.0
C2188 C -0.0084 0.57281 0.92465 0.0
C2189 C 0.03474 0.52161 0.8725 0.0
C2190 C -0.00342 0.5357 0.94116 0.0
C2191 C -0.01328 0.64794 0.89176 0.0
C2192 C 0.01004 0.62154 0.86894 0.0
C2193 C 0.96488 0.63638 0.93077 0.0
C2194 C 0.96827 0.59916 0.94811 0.0
Eu2195 Eu 0.06413 0.58588 0.79286 0.0
N2196 N 0.03283 0.63266 0.83303 0.0
C2197 C -0.0136 0.68504 0.87415 0.0
C2198 C 0.03493 0.66929 0.81852 0.0
C2199 C 0.01153 0.69608 0.83857 0.0
H2200 H 0.05043 0.5009 0.85261 0.0
H2201 H 0.01274 0.72471 0.82506 0.0
H2202 H 0.21186 0.66681 0.75192 0.0
H2203 H 0.19373 0.44923 0.71684 0.0
H2204 H 0.05335 0.67766 0.79009 0.0
H2205 H 0.96659 0.70524 0.8869 0.0
H2206 H 0.16675 0.50699 0.74129 0.0
H2207 H 0.01943 0.48031 0.92544 0.0
H2208 H 0.94609 0.65594 0.94867 0.0
H2209 H 0.95244 0.59094 0.97928 0.0
H2210 H 0.24322 0.68778 0.68199 0.0
H2211 H -0.01624 0.52658 0.97402 0.0
H2212 H 0.26143 0.4388 0.71905 0.0
N2213 N 0.2321 0.61014 0.75126 0.0
C2214 C 0.25905 0.58606 0.73435 0.0
C2215 C 0.25024 0.6598 0.69477 0.0
C2216 C 0.28064 0.60026 0.67962 0.0
C2217 C 0.23074 0.64678 0.73521 0.0
C2218 C 0.27428 0.63744 0.66697 0.0
N2219 N 0.21624 0.53369 0.76836 0.0
C2220 C 0.19599 0.50426 0.74849 0.0
C2221 C 0.26958 0.49744 0.72741 0.0
C2222 C 0.25274 0.53897 0.75415 0.0
C2223 C 0.25007 0.46482 0.73388 0.0
C2224 C 0.21175 0.47033 0.73302 0.0
H2225 H 0.28528 0.64837 0.634 0.0
H2226 H 0.30895 0.57459 0.60337 0.0
H2227 H 0.29334 0.51027 0.65913 0.0
O2228 O 0.22546 0.57702 0.84905 0.0
O2229 O 0.16713 0.57332 0.72324 0.0
O2230 O 0.11964 0.57845 0.76758 0.0
O2231 O 0.19946 0.63333 0.84383 0.0
O2232 O 0.14801 0.52471 0.81615 0.0
O2233 O 0.08526 0.52325 0.78795 0.0
O2234 O 0.02492 0.61187 0.74049 0.0
O2235 O 0.08925 0.6045 0.86954 0.0
O2236 O 0.14667 0.57277 0.87118 0.0
O2237 O 0.0281 0.55119 0.74658 0.0
O2238 O 0.09189 0.63449 0.74699 0.0
O2239 O 0.15251 0.64268 0.77648 0.0
C2240 C 0.13091 0.57166 0.72506 0.0
C2241 C 0.26065 0.62581 0.88036 0.0
C2242 C 0.3104 0.6081 0.93431 0.0
C2243 C 0.33729 0.6249 0.90398 0.0
C2244 C 0.28699 0.64249 0.84975 0.0
C2245 C 0.32535 0.6431 0.86252 0.0
C2246 C 0.27219 0.61133 0.92359 0.0
C2247 C 0.11702 0.50509 0.80057 0.0
C2248 C 0.22423 0.61156 0.8652 0.0
C2249 C 0.29869 0.56479 0.63768 0.0
C2250 C 0.28935 0.49603 0.67314 0.0
C2251 C 0.11982 0.59243 0.89452 0.0
C2252 C 0.97244 0.57587 0.70787 0.0
C2253 C 0.92034 0.57817 0.64727 0.0
C2254 C 0.89844 0.55746 0.68011 0.0
C2255 C 0.94784 0.55726 0.73885 0.0
C2256 C 0.95844 0.58724 0.66188 0.0
C2257 C 0.91142 0.54796 0.7249 0.0
C2258 C 0.1255 0.65214 0.74562 0.0
C2259 C 0.01307 0.57964 0.72333 0.0
H2260 H 0.36726 0.62374 0.91116 0.0
H2261 H 0.27836 0.65329 0.81567 0.0
H2262 H 0.34609 0.65566 0.83904 0.0
H2263 H 0.25116 0.59865 0.94654 0.0
H2264 H 0.87058 0.54801 0.67242 0.0
H2265 H 0.95726 0.54868 0.7737 0.0
H2266 H 0.9771 0.6021 0.63777 0.0
H2267 H 0.89305 0.53251 0.74883 0.0
Eu2268 Eu 0.13099 0.43241 0.54957 0.0
C2269 C 0.13055 0.2611 0.63084 0.0
N2270 N 0.15598 0.28264 0.60671 0.0
C2271 C 0.20442 0.2663 0.66276 0.0
C2272 C 0.14125 0.24058 0.6714 0.0
C2273 C 0.19285 0.28492 0.62157 0.0
C2274 C 0.17828 0.2447 0.68832 0.0
C2275 C 0.06613 0.23828 0.63865 0.0
C2276 C 0.09297 0.26139 0.61645 0.0
C2277 C 0.0772 0.21523 0.67684 0.0
C2278 C 0.11449 0.21724 0.69406 0.0
Eu2279 Eu 0.12959 0.31585 0.54158 0.0
N2280 N 0.0823 0.28536 0.58147 0.0
C2281 C 0.02901 0.23948 0.62141 0.0
C2282 C 0.04571 0.28907 0.56763 0.0
C2283 C 0.01847 0.26602 0.5871 0.0
H2284 H 0.21362 0.30125 0.60268 0.0
H2285 H -0.01011 0.26865 0.57396 0.0
H2286 H 0.04946 0.46552 0.50284 0.0
H2287 H 0.26629 0.44427 0.46603 0.0
H2288 H 0.03758 0.30854 0.54016 0.0
H2289 H 0.00846 0.2198 0.63347 0.0
H2290 H 0.20843 0.41779 0.49058 0.0
H2291 H 0.23352 0.26852 0.67476 0.0
H2292 H 0.05709 0.19675 0.69428 0.0
H2293 H 0.12239 0.20057 0.72472 0.0
H2294 H 0.02844 0.49798 0.43355 0.0
H2295 H 0.1871 0.23093 0.72073 0.0
H2296 H 0.27717 0.51203 0.4681 0.0
N2297 N 0.10623 0.48493 0.50175 0.0
C2298 C 0.13054 0.51155 0.48474 0.0
C2299 C 0.05653 0.50442 0.44609 0.0
C2300 C 0.11635 0.53363 0.43028 0.0
C2301 C 0.06952 0.48434 0.48616 0.0
C2302 C 0.07904 0.5281 0.4181 0.0
N2303 N 0.18238 0.46766 0.51802 0.0
C2304 C 0.21148 0.44707 0.49794 0.0
C2305 C 0.21897 0.52083 0.47722 0.0
C2306 C 0.17751 0.50441 0.50412 0.0
C2307 C 0.25129 0.50086 0.48326 0.0
C2308 C 0.24544 0.46251 0.48239 0.0
H2309 H 0.06804 0.53949 0.38534 0.0
H2310 H 0.14191 0.56198 0.35406 0.0
H2311 H 0.20609 0.54514 0.4092 0.0
O2312 O 0.08243 0.45034 0.59369 0.0
O2313 O 0.14207 0.41922 0.47242 0.0
O2314 O 0.13744 0.3715 0.51657 0.0
O2315 O 0.13822 0.47721 0.59872 0.0
O2316 O 0.19077 0.39956 0.56587 0.0
O2317 O 0.19225 0.33666 0.53768 0.0
O2318 O 0.10336 0.27672 0.48926 0.0
O2319 O 0.11089 0.34071 0.6183 0.0
O2320 O 0.1429 0.39795 0.62033 0.0
O2321 O 0.16393 0.27988 0.49479 0.0
O2322 O 0.0814 0.34407 0.49549 0.0
O2323 O 0.07329 0.40482 0.52529 0.0
C2324 C 0.14393 0.38293 0.47405 0.0
C2325 C 0.08918 0.51146 0.63103 0.0
C2326 C 0.10613 0.56132 0.68536 0.0
C2327 C 0.08788 0.588 0.65593 0.0
C2328 C 0.07101 0.53759 0.60137 0.0
C2329 C 0.06936 0.57587 0.61479 0.0
C2330 C 0.10412 0.52306 0.67397 0.0
C2331 C 0.21035 0.36843 0.55052 0.0
C2332 C 0.10388 0.47535 0.61514 0.0
C2333 C 0.15174 0.55137 0.3882 0.0
C2334 C 0.22035 0.54087 0.42309 0.0
C2335 C 0.12292 0.37124 0.64344 0.0
C2336 C 0.13916 0.22408 0.45646 0.0
C2337 C 0.13702 0.17174 0.396 0.0
C2338 C 0.15807 0.15003 0.42878 0.0
C2339 C 0.15792 0.19956 0.48748 0.0
C2340 C 0.12774 0.20991 0.41055 0.0
C2341 C 0.16752 0.16313 0.47354 0.0
C2342 C 0.06378 0.3778 0.49443 0.0
C2343 C 0.13542 0.26486 0.47176 0.0
H2344 H 0.08814 0.61801 0.66352 0.0
H2345 H 0.05974 0.5289 0.56756 0.0
H2346 H 0.05563 0.59646 0.59204 0.0
H2347 H 0.11785 0.50216 0.6962 0.0
H2348 H 0.16782 0.12221 0.42115 0.0
H2349 H 0.16649 0.20909 0.52229 0.0
H2350 H 0.11274 0.2285 0.38644 0.0
H2351 H 0.18315 0.14485 0.49745 0.0
Eu2352 Eu 0.28388 0.58647 0.29486 0.0
C2353 C 0.45334 0.5825 0.21081 0.0
N2354 N 0.43247 0.55784 0.23703 0.0
C2355 C 0.44725 0.50746 0.18283 0.0
C2356 C 0.47234 0.57044 0.16969 0.0
C2357 C 0.43003 0.52038 0.22431 0.0
C2358 C 0.46753 0.53288 0.15468 0.0
C2359 C 0.47641 0.6466 0.19904 0.0
C2360 C 0.45395 0.62057 0.22369 0.0
C2361 C 0.49805 0.63409 0.16027 0.0
C2362 C 0.49511 0.59632 0.14476 0.0
Eu2363 Eu 0.40079 0.58645 0.30181 0.0
N2364 N 0.43138 0.6325 0.25948 0.0
C2365 C 0.47588 0.68439 0.21432 0.0
C2366 C 0.4285 0.66961 0.27194 0.0
C2367 C 0.45079 0.69625 0.24958 0.0
H2368 H 0.41473 0.50011 0.24522 0.0
H2369 H 0.44882 0.72552 0.26083 0.0
H2370 H 0.25539 0.66829 0.34669 0.0
H2371 H 0.26353 0.45002 0.37029 0.0
H2372 H 0.41002 0.67853 0.30015 0.0
H2373 H 0.49492 0.70455 0.19987 0.0
H2374 H 0.29268 0.50776 0.35064 0.0
H2375 H 0.44504 0.47785 0.17264 0.0
H2376 H 0.51627 0.65332 0.14108 0.0
H2377 H 0.51071 0.58736 0.1137 0.0
H2378 H 0.22704 0.68786 0.41939 0.0
H2379 H 0.48016 0.52298 0.12203 0.0
H2380 H 0.19561 0.44158 0.36366 0.0
N2381 N 0.23338 0.61233 0.34526 0.0
C2382 C 0.20566 0.58896 0.36159 0.0
C2383 C 0.2191 0.66033 0.4057 0.0
C2384 C 0.18778 0.60109 0.4191 0.0
C2385 C 0.23653 0.64828 0.36332 0.0
C2386 C 0.19605 0.63737 0.43392 0.0
N2387 N 0.24456 0.53643 0.32201 0.0
C2388 C 0.26369 0.50585 0.34097 0.0
C2389 C 0.19016 0.50085 0.36138 0.0
C2390 C 0.20836 0.54291 0.33717 0.0
C2391 C 0.2081 0.46791 0.35133 0.0
C2392 C 0.24658 0.47203 0.35418 0.0
H2393 H 0.18693 0.64715 0.46833 0.0
H2394 H 0.16215 0.57284 0.49522 0.0
H2395 H 0.17095 0.51065 0.43282 0.0
O2396 O 0.24494 0.57901 0.23881 0.0
O2397 O 0.29712 0.57283 0.37114 0.0
O2398 O 0.34514 0.5798 0.32778 0.0
O2399 O 0.26277 0.63669 0.25582 0.0
O2400 O 0.31687 0.52619 0.28012 0.0
O2401 O 0.37945 0.52409 0.30848 0.0
O2402 O 0.44133 0.61316 0.35204 0.0
O2403 O 0.37523 0.60477 0.22516 0.0
O2404 O 0.31804 0.5731 0.2246 0.0
O2405 O 0.43644 0.55237 0.3491 0.0
O2406 O 0.37362 0.63496 0.34792 0.0
O2407 O 0.3135 0.64387 0.31761 0.0
C2408 C 0.33343 0.5719 0.36987 0.0
C2409 C 0.20455 0.62573 0.21387 0.0
C2410 C 0.15415 0.60776 0.16079 0.0
C2411 C 0.12817 0.6281 0.18906 0.0
C2412 C 0.17909 0.64599 0.24232 0.0
C2413 C 0.14085 0.64774 0.22918 0.0
C2414 C 0.19222 0.60819 0.17265 0.0
C2415 C 0.34738 0.50628 0.29661 0.0
C2416 C 0.2423 0.61485 0.22847 0.0
C2417 C 0.17005 0.5644 0.4594 0.0
C2418 C 0.17335 0.49722 0.4173 0.0
C2419 C 0.3444 0.59271 0.2007 0.0
C2420 C 0.49271 0.57651 0.38654 0.0
C2421 C 0.54407 0.57738 0.448 0.0
C2422 C 0.56549 0.55528 0.41602 0.0
C2423 C 0.51691 0.55658 0.35627 0.0
C2424 C 0.50662 0.58793 0.43251 0.0
C2425 C 0.55274 0.54588 0.37108 0.0
C2426 C 0.3401 0.65268 0.34935 0.0
C2427 C 0.45232 0.58116 0.37075 0.0
H2428 H 0.09827 0.62875 0.18132 0.0
H2429 H 0.18837 0.65916 0.27489 0.0
H2430 H 0.12076 0.6631 0.25099 0.0
H2431 H 0.21242 0.59236 0.15144 0.0
H2432 H 0.59276 0.54458 0.42456 0.0
H2433 H 0.50751 0.54792 0.32143 0.0
H2434 H 0.48829 0.60387 0.45601 0.0
H2435 H 0.57074 0.52934 0.34778 0.0
Eu2436 Eu 0.12907 0.53432 1.04538 0.0
C2437 C 0.13217 0.70395 0.9622 0.0
N2438 N 0.15687 0.68272 0.98797 0.0
C2439 C 0.20652 0.69679 0.9327 0.0
C2440 C 0.14379 0.72264 0.92069 0.0
C2441 C 0.19403 0.67979 0.97449 0.0
C2442 C 0.18096 0.71724 0.9049 0.0
C2443 C 0.06847 0.72822 0.952 0.0
C2444 C 0.09448 0.70527 0.97602 0.0
C2445 C 0.08051 0.7494 0.91264 0.0
C2446 C 0.11786 0.74572 0.89618 0.0
Eu2447 Eu 0.12884 0.65115 0.05324 0.0
N2448 N 0.08288 0.68302 1.01226 0.0
C2449 C 0.03116 0.72873 0.96856 0.0
C2450 C 0.04614 0.68123 1.0261 0.0
C2451 C 0.01965 0.70423 1.00467 0.0
H2452 H 0.21437 0.66422 0.99499 0.0
H2453 H -0.00918 0.70313 1.01734 0.0
H2454 H 0.04777 0.50452 0.09629 0.0
H2455 H 0.26543 0.5148 0.121 0.0
H2456 H 0.03745 0.66316 0.05482 0.0
H2457 H 0.01119 0.74817 0.95437 0.0
H2458 H 0.20741 0.54354 0.10129 0.0
H2459 H 0.23589 0.69421 0.92195 0.0
H2460 H 0.06118 0.76785 0.89382 0.0
H2461 H 0.12648 0.76103 0.86476 0.0
H2462 H 0.02849 0.47551 0.16867 0.0
H2463 H 0.19046 0.72953 0.87189 0.0
H2464 H 0.27444 0.44679 0.11442 0.0
N2465 N 0.1038 0.48287 0.09478 0.0
C2466 C 0.12741 0.45525 0.11099 0.0
C2467 C 0.05593 0.46771 0.15483 0.0
C2468 C 0.11531 0.43679 0.16822 0.0
C2469 C 0.06786 0.48557 0.1127 0.0
C2470 C 0.07898 0.44457 0.18288 0.0
N2471 N 0.17947 0.49516 0.07219 0.0
C2472 C 0.20974 0.51456 0.09137 0.0
C2473 C 0.21551 0.4409 0.1115 0.0
C2474 C 0.17344 0.45873 0.08704 0.0
C2475 C 0.24818 0.45918 0.10184 0.0
C2476 C 0.24366 0.4977 0.10469 0.0
H2477 H 0.06925 0.43515 0.21716 0.0
H2478 H 0.14351 0.41104 0.24433 0.0
H2479 H 0.20562 0.42113 0.18266 0.0
O2480 O 0.13621 0.49574 0.98891 0.0
O2481 O 0.1423 0.54702 0.12199 0.0
O2482 O 0.13557 0.59526 0.07877 0.0
O2483 O 0.07879 0.51384 1.00614 0.0
O2484 O 0.18901 0.56761 1.03051 0.0
O2485 O 0.19113 0.63006 0.05967 0.0
O2486 O 0.10261 0.69035 0.10532 0.0
O2487 O 0.11012 0.62602 0.9765 0.0
O2488 O 0.1422 0.56898 0.97539 0.0
O2489 O 0.16326 0.68727 0.09968 0.0
O2490 O 0.08036 0.62381 0.09907 0.0
O2491 O 0.07165 0.56344 0.06889 0.0
C2492 C 0.1432 0.58341 0.1209 0.0
C2493 C 0.08942 0.45573 0.96346 0.0
C2494 C 0.10644 0.40547 0.90951 0.0
C2495 C 0.08524 0.37964 0.93697 0.0
C2496 C 0.06827 0.43043 0.99105 0.0
C2497 C 0.06567 0.39234 0.9771 0.0
C2498 C 0.10703 0.44343 0.92229 0.0
C2499 C 0.20892 0.5981 1.04712 0.0
C2500 C 0.10045 0.49338 0.97855 0.0
C2501 C 0.15199 0.41929 0.20867 0.0
C2502 C 0.2191 0.42382 0.16728 0.0
C2503 C 0.12238 0.59538 0.9517 0.0
C2504 C 0.13821 0.74287 0.13794 0.0
C2505 C 0.13628 0.79486 0.19859 0.0
C2506 C 0.15567 0.81729 0.16503 0.0
C2507 C 0.15547 0.76785 0.10623 0.0
C2508 C 0.12768 0.75658 0.18428 0.0
C2509 C 0.16431 0.80454 0.11986 0.0
C2510 C 0.06259 0.59028 0.10029 0.0
C2511 C 0.1347 0.70222 0.12271 0.0
H2512 H 0.0839 0.34978 0.92866 0.0
H2513 H 0.05494 0.43971 1.02352 0.0
H2514 H 0.04961 0.37237 0.99824 0.0
H2515 H 0.1235 0.4635 0.90171 0.0
H2516 H 0.16476 0.84537 0.17235 0.0
H2517 H 0.16333 0.75855 0.07107 0.0
H2518 H 0.11371 0.73759 0.20884 0.0
H2519 H 0.17871 0.82328 0.09537 0.0
Eu2520 Eu 0.18028 0.37989 0.79467 0.0
C2521 C 0.01061 0.38443 0.71071 0.0
N2522 N 0.03206 0.40883 0.73662 0.0
C2523 C 0.0177 0.45923 0.6823 0.0
C2524 C -0.00851 0.39665 0.66976 0.0
C2525 C 0.03505 0.44618 0.72364 0.0
C2526 C -0.00317 0.43404 0.65448 0.0
C2527 C -0.01413 0.32085 0.69993 0.0
C2528 C 0.00928 0.34648 0.72392 0.0
C2529 C 0.96415 0.33361 0.66136 0.0
C2530 C 0.9679 0.37115 0.64538 0.0
Eu2531 Eu 0.06333 0.38004 0.80161 0.0
N2532 N 0.03178 0.3343 0.75965 0.0
C2533 C -0.01463 0.28323 0.71582 0.0
C2534 C 0.03361 0.29727 0.77273 0.0
C2535 C 0.01027 0.27107 0.75115 0.0
H2536 H 0.05086 0.4663 0.74422 0.0
H2537 H 0.0113 0.24194 0.76305 0.0
H2538 H 0.20887 0.298 0.84624 0.0
H2539 H 0.20078 0.51634 0.87026 0.0
H2540 H 0.05195 0.28818 0.80101 0.0
H2541 H 0.96569 0.26347 0.70169 0.0
H2542 H 0.1716 0.45857 0.85061 0.0
H2543 H 0.02024 0.48877 0.67201 0.0
H2544 H 0.94509 0.31478 0.64278 0.0
H2545 H 0.95215 0.38027 0.6145 0.0
H2546 H 0.23728 0.27834 0.91887 0.0
H2547 H -0.01592 0.44404 0.62196 0.0
H2548 H 0.2687 0.52473 0.8637 0.0
N2549 N 0.2308 0.354 0.84504 0.0
C2550 C 0.25851 0.37736 0.86149 0.0
C2551 C 0.24513 0.30593 0.90533 0.0
C2552 C 0.27632 0.36523 0.91902 0.0
C2553 C 0.2277 0.31802 0.86297 0.0
C2554 C 0.26809 0.32892 0.93371 0.0
N2555 N 0.21968 0.4299 0.82189 0.0
C2556 C 0.20057 0.4605 0.84088 0.0
C2557 C 0.27409 0.46546 0.86142 0.0
C2558 C 0.25587 0.4234 0.83712 0.0
C2559 C 0.25619 0.4984 0.85134 0.0
C2560 C 0.21771 0.49432 0.85412 0.0
H2561 H 0.27721 0.31911 0.9681 0.0
H2562 H 0.3019 0.39347 0.99524 0.0
H2563 H 0.29322 0.45567 0.93291 0.0
O2564 O 0.21916 0.38733 0.73859 0.0
O2565 O 0.16708 0.39347 0.87097 0.0
O2566 O 0.11903 0.38649 0.82757 0.0
O2567 O 0.20125 0.32968 0.75544 0.0
O2568 O 0.14728 0.4402 0.78011 0.0
O2569 O 0.08474 0.44236 0.80858 0.0
O2570 O 0.02284 0.3536 0.85208 0.0
O2571 O 0.08878 0.36164 0.72494 0.0
O2572 O 0.14594 0.39337 0.72456 0.0
O2573 O 0.02787 0.41435 0.84889 0.0
O2574 O 0.09048 0.3313 0.84738 0.0
O2575 O 0.15072 0.32247 0.81738 0.0
C2576 C 0.13077 0.39436 0.86969 0.0
C2577 C 0.25948 0.34056 0.71355 0.0
C2578 C 0.30995 0.35863 0.66069 0.0
C2579 C 0.33591 0.3383 0.68899 0.0
C2580 C 0.28492 0.32031 0.74202 0.0
C2581 C 0.32319 0.31862 0.72901 0.0
C2582 C 0.27185 0.35815 0.67242 0.0
C2583 C 0.11681 0.46016 0.7967 0.0
C2584 C 0.22173 0.35149 0.72814 0.0
C2585 C 0.29404 0.40191 0.95942 0.0
C2586 C 0.29084 0.46909 0.91739 0.0
C2587 C 0.11963 0.37373 0.70056 0.0
C2588 C 0.97156 0.39049 0.88651 0.0
C2589 C 0.92023 0.38963 0.94799 0.0
C2590 C 0.89898 0.41216 0.91631 0.0
C2591 C 0.94749 0.41082 0.8565 0.0
C2592 C 0.95759 0.37886 0.93235 0.0
C2593 C 0.91176 0.42174 0.87147 0.0
C2594 C 0.12401 0.31358 0.8489 0.0
C2595 C 0.01193 0.38569 0.87065 0.0
H2596 H 0.36583 0.33769 0.68131 0.0
H2597 H 0.27562 0.30712 0.77454 0.0
H2598 H 0.34326 0.30327 0.75084 0.0
H2599 H 0.25168 0.37398 0.6512 0.0
H2600 H 0.87182 0.42305 0.92505 0.0
H2601 H 0.95692 0.41964 0.82176 0.0
H2602 H 0.97581 0.36262 0.95566 0.0
H2603 H 0.89389 0.4386 0.8484 0.0
Eu2604 Eu 0.33507 0.43201 0.54538 0.0
C2605 C 0.33199 0.26226 0.46216 0.0
N2606 N 0.30727 0.28352 0.48786 0.0
C2607 C 0.25762 0.26928 0.43258 0.0
C2608 C 0.32037 0.24341 0.42073 0.0
C2609 C 0.27012 0.28643 0.47433 0.0
C2610 C 0.28318 0.24869 0.40492 0.0
C2611 C 0.39578 0.2382 0.45192 0.0
C2612 C 0.36971 0.26111 0.47593 0.0
C2613 C 0.38373 0.21683 0.41268 0.0
C2614 C 0.34633 0.22031 0.39628 0.0
Eu2615 Eu 0.33527 0.3152 0.55312 0.0
N2616 N 0.38129 0.2835 0.51209 0.0
C2617 C 0.43313 0.23795 0.46838 0.0
C2618 C 0.41805 0.28551 0.52584 0.0
C2619 C 0.44461 0.26259 0.5044 0.0
H2620 H 0.24978 0.30211 0.49474 0.0
H2621 H 0.47346 0.26385 0.517 0.0
H2622 H 0.41643 0.46174 0.59642 0.0
H2623 H 0.19876 0.4517 0.62089 0.0
H2624 H 0.42672 0.30369 0.55448 0.0
H2625 H 0.4532 0.21863 0.4542 0.0
H2626 H 0.25677 0.4229 0.60125 0.0
H2627 H 0.22826 0.27185 0.42178 0.0
H2628 H 0.40308 0.19838 0.39389 0.0
H2629 H 0.33771 0.20486 0.36494 0.0
H2630 H 0.43568 0.49064 0.66894 0.0
H2631 H 0.27366 0.23623 0.37199 0.0
H2632 H 0.1898 0.51972 0.61432 0.0
N2633 N 0.36041 0.48342 0.59492 0.0
C2634 C 0.33681 0.51105 0.61117 0.0
C2635 C 0.40826 0.49849 0.65508 0.0
C2636 C 0.34891 0.52944 0.66847 0.0
C2637 C 0.39634 0.48068 0.61287 0.0
C2638 C 0.38522 0.5216 0.68317 0.0
N2639 N 0.28473 0.47124 0.57219 0.0
C2640 C 0.25445 0.45187 0.59133 0.0
C2641 C 0.24874 0.52554 0.61153 0.0
C2642 C 0.29081 0.50766 0.58712 0.0
C2643 C 0.21606 0.50729 0.60177 0.0
C2644 C 0.22054 0.46877 0.60461 0.0
H2645 H 0.39494 0.53099 0.7175 0.0
H2646 H 0.3207 0.55517 0.74461 0.0
H2647 H 0.2586 0.54524 0.68277 0.0
O2648 O 0.32795 0.47071 0.48908 0.0
O2649 O 0.32191 0.41936 0.62201 0.0
O2650 O 0.32854 0.37111 0.57871 0.0
O2651 O 0.38535 0.45235 0.50608 0.0
O2652 O 0.2751 0.39871 0.53051 0.0
O2653 O 0.27297 0.33626 0.55957 0.0
O2654 O 0.36166 0.27603 0.60508 0.0
O2655 O 0.35398 0.34033 0.47638 0.0
O2656 O 0.32194 0.39738 0.47531 0.0
O2657 O 0.30101 0.27906 0.59962 0.0
O2658 O 0.38371 0.34255 0.59899 0.0
O2659 O 0.39249 0.40287 0.5688 0.0
C2660 C 0.32094 0.38298 0.62085 0.0
C2661 C 0.37483 0.5105 0.46352 0.0
C2662 C 0.35779 0.56078 0.40967 0.0
C2663 C 0.37899 0.58661 0.43722 0.0
C2664 C 0.39597 0.53579 0.4912 0.0
C2665 C 0.39857 0.57389 0.47733 0.0
C2666 C 0.35725 0.52281 0.42234 0.0
C2667 C 0.25518 0.36823 0.54709 0.0
C2668 C 0.36369 0.47291 0.4786 0.0
C2669 C 0.31222 0.54696 0.7089 0.0
C2670 C 0.24513 0.54259 0.66736 0.0
C2671 C 0.34178 0.371 0.45161 0.0
C2672 C 0.32617 0.22353 0.63794 0.0
C2673 C 0.32822 0.17167 0.69873 0.0
C2674 C 0.30855 0.14926 0.66536 0.0
C2675 C 0.30868 0.19852 0.60641 0.0
C2676 C 0.3369 0.20989 0.68425 0.0
C2677 C 0.29976 0.16191 0.6202 0.0
C2678 C 0.40154 0.37604 0.60017 0.0
C2679 C 0.32964 0.26416 0.62258 0.0
H2680 H 0.38029 0.61647 0.42902 0.0
H2681 H 0.40926 0.52652 0.52368 0.0
H2682 H 0.4146 0.59386 0.49854 0.0
H2683 H 0.34079 0.50273 0.4017 0.0
H2684 H 0.2993 0.12127 0.67283 0.0
H2685 H 0.30069 0.20775 0.57127 0.0
H2686 H 0.35105 0.2289 0.70866 0.0
H2687 H 0.28515 0.14316 0.59586 0.0
loop_
_geom_bond_atom_site_label_1
_geom_bond_atom_site_label_2
_geom_bond_distance
_geom_bond_site_symmetry_2
_ccdc_geom_bond_type
Eu0 N29 2.600 . S
Eu0 N35 2.562 . S
Eu0 O44 2.462 . S
Eu0 O45 2.373 . S
Eu0 O47 2.432 . S
Eu0 O48 2.291 . S
Eu0 O52 2.335 . S
Eu0 O55 2.372 . S
Eu0 C64 2.787 . S
C1 N2 1.365 . S
C1 C4 1.405 . S
C1 C8 1.448 . S
N2 C1 1.365 . S
N2 C5 1.319 . S
N2 Eu11 2.600 . S
C3 C5 1.397 . S
C3 C6 1.367 . S
C3 H23 0.931 . S
C4 C1 1.405 . S
C4 C6 1.403 . S
C4 C10 1.439 . S
C5 N2 1.319 . S
C5 C3 1.397 . S
C5 H16 0.930 . S
C6 C3 1.367 . S
C6 C4 1.403 . S
C6 H27 0.929 . S
C7 C8 1.430 . S
C7 C9 1.387 . S
C7 C13 1.405 . S
C8 C1 1.448 . S
C8 C7 1.430 . S
C8 N12 1.351 . S
C9 C7 1.387 . S
C9 C10 1.374 . S
C9 H24 0.931 . S
C10 C4 1.439 . S
C10 C9 1.374 . S
C10 H25 0.931 . S
Eu11 N2 2.600 . S
Eu11 N12 2.562 . S
Eu11 O46 2.335 . S
Eu11 O49 2.372 . S
Eu11 O50 2.462 . S
Eu11 O51 2.373 . S
Eu11 O53 2.432 . S
Eu11 O54 2.291 . S
Eu11 C75 2.787 . S
N12 C8 1.351 . S
N12 Eu11 2.562 . S
N12 C14 1.325 . S
C13 C7 1.405 . S
C13 C15 1.366 1_545 S
C13 H21 0.930 1_545 S
C14 N12 1.325 . S
C14 C15 1.416 1_545 S
C14 H20 0.929 . S
C15 C13 1.366 1_565 S
C15 C14 1.416 1_565 S
C15 H17 0.930 . S
H16 C5 0.930 . S
H17 C15 0.930 . S
H18 C33 0.930 . S
H19 C40 0.930 . S
H20 C14 0.929 . S
H21 C13 0.930 1_565 S
H22 C36 0.929 . S
H23 C3 0.931 . S
H24 C9 0.931 . S
H25 C10 0.931 . S
H26 C31 0.931 1_565 S
H27 C6 0.929 . S
H28 C39 0.930 . S
N29 Eu0 2.600 . S
N29 C30 1.365 1_455 S
N29 C33 1.319 . S
C30 N29 1.365 1_655 S
C30 C32 1.405 . S
C30 C38 1.448 . S
C31 H26 0.931 1_545 S
C31 C33 1.397 1_655 S
C31 C34 1.367 . S
C32 C30 1.405 . S
C32 C34 1.403 . S
C32 C65 1.439 . S
C33 H18 0.930 . S
C33 N29 1.319 . S
C33 C31 1.397 1_455 S
C34 C31 1.367 . S
C34 C32 1.403 . S
C34 H41 0.929 . S
N35 Eu0 2.562 . S
N35 C36 1.325 . S
N35 C38 1.351 1_455 S
C36 H22 0.929 . S
C36 N35 1.325 . S
C36 C40 1.416 . S
C37 C38 1.430 . S
C37 C39 1.404 . S
C37 C66 1.387 . S
C38 C30 1.448 . S
C38 N35 1.351 1_655 S
C38 C37 1.430 . S
C39 H28 0.930 . S
C39 C37 1.404 . S
C39 C40 1.366 1_655 S
C40 H19 0.930 . S
C40 C36 1.416 . S
C40 C39 1.366 1_455 S
H41 C34 0.929 . S
H42 C65 0.931 . S
H43 C66 0.931 . S
O44 Eu0 2.462 . S
O44 C64 1.252 . S
O45 Eu0 2.373 . S
O45 C56 1.249 . S
O46 Eu11 2.335 . S
O46 C56 1.264 . S
O47 Eu0 2.432 . S
O47 C64 1.268 . S
O48 Eu0 2.291 . S
O48 C63 1.255 . S
O49 Eu11 2.372 . S
O49 C63 1.257 . S
O50 Eu11 2.462 . S
O50 C75 1.252 . S
O51 Eu11 2.373 . S
O51 C67 1.249 . S
O52 Eu0 2.335 . S
O52 C67 1.264 . S
O53 Eu11 2.432 . S
O53 C75 1.268 . S
O54 Eu11 2.291 . S
O54 C74 1.255 . S
O55 Eu0 2.372 . S
O55 C74 1.257 . S
C56 O45 1.249 . S
C56 O46 1.264 . S
C57 C60 1.382 . S
C57 C62 1.390 . S
C57 C64 1.506 1_655 S
C58 C59 1.398 . S
C58 C62 1.392 . S
C59 C58 1.398 . S
C59 C61 1.372 . S
C59 H76 0.931 . S
C60 C57 1.382 . S
C60 C61 1.390 . S
C60 H77 0.931 . S
C61 C59 1.372 . S
C61 C60 1.390 . S
C61 H78 0.929 . S
C62 C57 1.390 . S
C62 C58 1.392 . S
C62 H79 0.930 . S
C63 O48 1.255 . S
C63 O49 1.257 . S
C64 Eu0 2.787 . S
C64 O44 1.252 . S
C64 O47 1.268 . S
C64 C57 1.506 1_455 S
C65 C32 1.439 . S
C65 H42 0.931 . S
C65 C66 1.374 . S
C66 C37 1.387 . S
C66 H43 0.931 . S
C66 C65 1.374 . S
C67 O51 1.249 . S
C67 O52 1.264 . S
C68 C71 1.382 . S
C68 C72 1.390 . S
C68 C75 1.506 . S
C69 C70 1.398 . S
C69 C72 1.392 . S
C70 C69 1.398 . S
C70 C73 1.372 . S
C70 H80 0.931 . S
C71 C68 1.382 . S
C71 C73 1.390 . S
C71 H81 0.931 . S
C72 C68 1.390 . S
C72 C69 1.392 . S
C72 H82 0.930 . S
C73 C70 1.372 . S
C73 C71 1.390 . S
C73 H83 0.929 . S
C74 O54 1.255 . S
C74 O55 1.257 . S
C75 Eu11 2.787 . S
C75 O50 1.252 . S
C75 O53 1.268 . S
C75 C68 1.506 . S
H76 C59 0.931 . S
H77 C60 0.931 . S
H78 C61 0.929 . S
H79 C62 0.930 . S
H80 C70 0.931 . S
H81 C71 0.931 . S
H82 C72 0.930 . S
H83 C73 0.929 . S
Eu84 N113 2.600 . S
Eu84 N119 2.562 . S
Eu84 O128 2.462 . S
Eu84 O129 2.373 . S
Eu84 O131 2.432 . S
Eu84 O132 2.291 . S
Eu84 O136 2.335 . S
Eu84 O139 2.372 . S
Eu84 C148 2.787 . S
C85 N86 1.365 1_545 S
C85 C88 1.405 . S
C85 C92 1.448 . S
N86 C85 1.365 1_565 S
N86 C89 1.319 . S
N86 Eu95 2.600 . S
C87 C89 1.397 1_545 S
C87 C90 1.367 . S
C87 H107 0.931 . S
C88 C85 1.405 . S
C88 C90 1.403 . S
C88 C94 1.439 . S
C89 N86 1.319 . S
C89 C87 1.397 1_565 S
C89 H100 0.930 . S
C90 C87 1.367 . S
C90 C88 1.403 . S
C90 H111 0.929 . S
C91 C92 1.430 . S
C91 C93 1.387 . S
C91 C97 1.404 . S
C92 C85 1.448 . S
C92 C91 1.430 . S
C92 N96 1.351 1_545 S
C93 C91 1.387 . S
C93 C94 1.374 . S
C93 H108 0.931 . S
C94 C88 1.439 . S
C94 C93 1.374 . S
C94 H109 0.931 . S
Eu95 N86 2.600 . S
Eu95 N96 2.562 . S
Eu95 O130 2.335 . S
Eu95 O133 2.372 . S
Eu95 O134 2.462 . S
Eu95 O135 2.373 . S
Eu95 O137 2.432 . S
Eu95 O138 2.291 . S
Eu95 C159 2.787 1_565 S
N96 C92 1.351 1_565 S
N96 Eu95 2.562 . S
N96 C98 1.325 . S
C97 C91 1.404 . S
C97 C99 1.366 . S
C97 H105 0.930 . S
C98 N96 1.325 . S
C98 C99 1.416 1_565 S
C98 H104 0.929 . S
C99 C97 1.366 . S
C99 C98 1.416 1_545 S
C99 H101 0.930 . S
H100 C89 0.930 . S
H101 C99 0.930 . S
H102 C117 0.930 . S
H103 C124 0.930 . S
H104 C98 0.929 . S
H105 C97 0.930 . S
H106 C120 0.929 . S
H107 C87 0.931 . S
H108 C93 0.931 . S
H109 C94 0.931 . S
H110 C115 0.931 . S
H111 C90 0.929 . S
H112 C123 0.930 . S
N113 Eu84 2.600 . S
N113 C114 1.365 . S
N113 C117 1.319 . S
C114 N113 1.365 . S
C114 C116 1.405 . S
C114 C122 1.448 . S
C115 H110 0.931 . S
C115 C117 1.397 . S
C115 C118 1.367 . S
C116 C114 1.405 . S
C116 C118 1.403 . S
C116 C149 1.439 . S
C117 H102 0.930 . S
C117 N113 1.319 . S
C117 C115 1.397 . S
C118 C115 1.367 . S
C118 C116 1.403 . S
C118 H125 0.929 . S
N119 Eu84 2.562 . S
N119 C120 1.325 . S
N119 C122 1.351 . S
C120 H106 0.929 . S
C120 N119 1.325 . S
C120 C124 1.416 . S
C121 C122 1.430 . S
C121 C123 1.404 . S
C121 C150 1.387 . S
C122 C114 1.448 . S
C122 N119 1.351 . S
C122 C121 1.430 . S
C123 H112 0.930 . S
C123 C121 1.404 . S
C123 C124 1.366 . S
C124 H103 0.930 . S
C124 C120 1.416 . S
C124 C123 1.366 . S
H125 C118 0.929 . S
H126 C149 0.931 . S
H127 C150 0.931 . S
O128 Eu84 2.462 . S
O128 C148 1.252 . S
O129 Eu84 2.373 . S
O129 C140 1.249 . S
O130 Eu95 2.335 . S
O130 C140 1.264 . S
O131 Eu84 2.432 . S
O131 C148 1.268 . S
O132 Eu84 2.291 . S
O132 C147 1.255 . S
O133 Eu95 2.372 . S
O133 C147 1.257 . S
O134 Eu95 2.462 . S
O134 C159 1.252 1_565 S
O135 Eu95 2.373 . S
O135 C151 1.249 . S
O136 Eu84 2.335 . S
O136 C151 1.264 . S
O137 Eu95 2.432 . S
O137 C159 1.268 1_565 S
O138 Eu95 2.291 . S
O138 C158 1.255 . S
O139 Eu84 2.372 . S
O139 C158 1.257 . S
C140 O129 1.249 . S
C140 O130 1.264 . S
C141 C144 1.382 . S
C141 C146 1.390 . S
C141 C148 1.506 . S
C142 C143 1.398 . S
C142 C146 1.392 . S
C143 C142 1.398 . S
C143 C145 1.372 . S
C143 H160 0.931 . S
C144 C141 1.382 . S
C144 C145 1.390 . S
C144 H161 0.931 . S
C145 C143 1.372 . S
C145 C144 1.390 . S
C145 H162 0.929 . S
C146 C141 1.390 . S
C146 C142 1.392 . S
C146 H163 0.930 . S
C147 O132 1.255 . S
C147 O133 1.257 . S
C148 Eu84 2.787 . S
C148 O128 1.252 . S
C148 O131 1.268 . S
C148 C141 1.506 . S
C149 C116 1.439 . S
C149 H126 0.931 . S
C149 C150 1.374 . S
C150 C121 1.387 . S
C150 H127 0.931 . S
C150 C149 1.374 . S
C151 O135 1.249 . S
C151 O136 1.264 . S
C152 C155 1.382 . S
C152 C156 1.390 . S
C152 C159 1.506 . S
C153 C154 1.398 . S
C153 C156 1.392 . S
C154 C153 1.398 . S
C154 C157 1.372 . S
C154 H164 0.931 . S
C155 C152 1.382 . S
C155 C157 1.390 . S
C155 H165 0.931 . S
C156 C152 1.390 . S
C156 C153 1.392 . S
C156 H166 0.930 . S
C157 C154 1.372 . S
C157 C155 1.390 . S
C157 H167 0.929 . S
C158 O138 1.255 . S
C158 O139 1.257 . S
C159 Eu95 2.787 1_545 S
C159 O134 1.252 1_545 S
C159 O137 1.268 1_545 S
C159 C152 1.506 . S
H160 C143 0.931 . S
H161 C144 0.931 . S
H162 C145 0.929 . S
H163 C146 0.930 . S
H164 C154 0.931 . S
H165 C155 0.931 . S
H166 C156 0.930 . S
H167 C157 0.929 . S
Eu168 N197 2.600 . S
Eu168 N203 2.562 . S
Eu168 O212 2.462 . S
Eu168 O213 2.373 . S
Eu168 O215 2.432 . S
Eu168 O216 2.291 . S
Eu168 O220 2.335 . S
Eu168 O223 2.372 . S
Eu168 C232 2.787 . S
C169 N170 1.365 . S
C169 C172 1.405 . S
C169 C176 1.448 . S
N170 C169 1.365 . S
N170 C173 1.319 . S
N170 Eu179 2.600 . S
C171 C173 1.397 . S
C171 C174 1.367 . S
C171 H191 0.931 . S
C172 C169 1.405 . S
C172 C174 1.403 . S
C172 C178 1.439 . S
C173 N170 1.319 . S
C173 C171 1.397 . S
C173 H184 0.930 . S
C174 C171 1.367 . S
C174 C172 1.403 . S
C174 H195 0.929 . S
C175 C176 1.430 . S
C175 C177 1.387 . S
C175 C181 1.405 . S
C176 C169 1.448 . S
C176 C175 1.430 . S
C176 N180 1.351 . S
C177 C175 1.387 . S
C177 C178 1.374 . S
C177 H192 0.931 . S
C178 C172 1.439 . S
C178 C177 1.374 . S
C178 H193 0.931 . S
Eu179 N170 2.600 . S
Eu179 N180 2.562 . S
Eu179 O214 2.335 . S
Eu179 O217 2.372 . S
Eu179 O218 2.462 . S
Eu179 O219 2.373 . S
Eu179 O221 2.432 . S
Eu179 O222 2.291 . S
Eu179 C243 2.787 . S
N180 C176 1.351 . S
N180 Eu179 2.562 . S
N180 C182 1.325 . S
C181 C175 1.405 . S
C181 C183 1.366 1_565 S
C181 H189 0.930 1_565 S
C182 N180 1.325 . S
C182 C183 1.416 1_565 S
C182 H188 0.929 . S
C183 C181 1.366 1_545 S
C183 C182 1.416 1_545 S
C183 H185 0.930 . S
H184 C173 0.930 . S
H185 C183 0.930 . S
H186 C201 0.930 . S
H187 C208 0.930 . S
H188 C182 0.929 . S
H189 C181 0.930 1_545 S
H190 C204 0.929 . S
H191 C171 0.931 . S
H192 C177 0.931 . S
H193 C178 0.931 . S
H194 C199 0.931 1_545 S
H195 C174 0.929 . S
H196 C207 0.930 . S
N197 Eu168 2.600 . S
N197 C198 1.365 . S
N197 C201 1.319 . S
C198 N197 1.365 . S
C198 C200 1.405 . S
C198 C206 1.448 . S
C199 H194 0.931 1_565 S
C199 C201 1.397 . S
C199 C202 1.367 . S
C200 C198 1.405 . S
C200 C202 1.403 . S
C200 C233 1.439 . S
C201 H186 0.930 . S
C201 N197 1.319 . S
C201 C199 1.397 . S
C202 C199 1.367 . S
C202 C200 1.403 . S
C202 H209 0.929 . S
N203 Eu168 2.562 . S
N203 C204 1.325 . S
N203 C206 1.351 . S
C204 H190 0.929 . S
C204 N203 1.325 . S
C204 C208 1.416 . S
C205 C206 1.430 . S
C205 C207 1.404 . S
C205 C234 1.387 . S
C206 C198 1.448 . S
C206 N203 1.351 . S
C206 C205 1.430 . S
C207 H196 0.930 . S
C207 C205 1.404 . S
C207 C208 1.366 . S
C208 H187 0.930 . S
C208 C204 1.416 . S
C208 C207 1.366 . S
H209 C202 0.929 . S
H210 C233 0.931 . S
H211 C234 0.931 . S
O212 Eu168 2.462 . S
O212 C232 1.252 . S
O213 Eu168 2.373 . S
O213 C224 1.249 . S
O214 Eu179 2.335 . S
O214 C224 1.264 . S
O215 Eu168 2.432 . S
O215 C232 1.268 . S
O216 Eu168 2.291 . S
O216 C231 1.255 . S
O217 Eu179 2.372 . S
O217 C231 1.257 . S
O218 Eu179 2.462 . S
O218 C243 1.252 . S
O219 Eu179 2.373 . S
O219 C235 1.249 . S
O220 Eu168 2.335 . S
O220 C235 1.264 . S
O221 Eu179 2.432 . S
O221 C243 1.268 . S
O222 Eu179 2.291 . S
O222 C242 1.255 . S
O223 Eu168 2.372 . S
O223 C242 1.257 . S
C224 O213 1.249 . S
C224 O214 1.264 . S
C225 C228 1.382 . S
C225 C230 1.390 . S
C225 C232 1.506 . S
C226 C227 1.398 . S
C226 C230 1.392 . S
C227 C226 1.398 . S
C227 C229 1.372 . S
C227 H244 0.931 . S
C228 C225 1.382 . S
C228 C229 1.390 . S
C228 H245 0.931 . S
C229 C227 1.372 . S
C229 C228 1.390 . S
C229 H246 0.929 . S
C230 C225 1.390 . S
C230 C226 1.392 . S
C230 H247 0.930 . S
C231 O216 1.255 . S
C231 O217 1.257 . S
C232 Eu168 2.787 . S
C232 O212 1.252 . S
C232 O215 1.268 . S
C232 C225 1.506 . S
C233 C200 1.439 . S
C233 H210 0.931 . S
C233 C234 1.374 . S
C234 C205 1.387 . S
C234 H211 0.931 . S
C234 C233 1.374 . S
C235 O219 1.249 . S
C235 O220 1.264 . S
C236 C239 1.382 . S
C236 C240 1.390 . S
C236 C243 1.506 . S
C237 C238 1.398 . S
C237 C240 1.392 . S
C238 C237 1.398 . S
C238 C241 1.372 . S
C238 H248 0.931 . S
C239 C236 1.382 . S
C239 C241 1.390 . S
C239 H249 0.931 . S
C240 C236 1.390 . S
C240 C237 1.392 . S
C240 H250 0.930 . S
C241 C238 1.372 . S
C241 C239 1.390 . S
C241 H251 0.929 . S
C242 O222 1.255 . S
C242 O223 1.257 . S
C243 Eu179 2.787 . S
C243 O218 1.252 . S
C243 O221 1.268 . S
C243 C236 1.506 . S
H244 C227 0.931 . S
H245 C228 0.931 . S
H246 C229 0.929 . S
H247 C230 0.930 . S
H248 C238 0.931 . S
H249 C239 0.931 . S
H250 C240 0.930 . S
H251 C241 0.929 . S
Eu252 N281 2.600 1_554 S
Eu252 N287 2.562 1_554 S
Eu252 O296 2.462 . S
Eu252 O297 2.373 1_554 S
Eu252 O299 2.432 . S
Eu252 O300 2.291 . S
Eu252 O304 2.335 . S
Eu252 O307 2.372 1_554 S
Eu252 C316 2.787 . S
C253 N254 1.365 1_565 S
C253 C256 1.405 . S
C253 C260 1.448 . S
N254 C253 1.365 1_545 S
N254 C257 1.319 . S
N254 Eu263 2.600 . S
C255 C257 1.397 1_565 S
C255 C258 1.367 . S
C255 H275 0.931 . S
C256 C253 1.405 . S
C256 C258 1.403 . S
C256 C262 1.439 . S
C257 N254 1.319 . S
C257 C255 1.397 1_545 S
C257 H268 0.930 . S
C258 C255 1.367 . S
C258 C256 1.403 . S
C258 H279 0.929 . S
C259 C260 1.430 . S
C259 C261 1.387 . S
C259 C265 1.404 . S
C260 C253 1.448 . S
C260 C259 1.430 . S
C260 N264 1.351 1_565 S
C261 C259 1.387 . S
C261 C262 1.374 . S
C261 H276 0.931 . S
C262 C256 1.439 . S
C262 C261 1.374 . S
C262 H277 0.931 . S
Eu263 N254 2.600 . S
Eu263 N264 2.562 . S
Eu263 O298 2.335 1_554 S
Eu263 O301 2.372 . S
Eu263 O302 2.462 1_554 S
Eu263 O303 2.373 . S
Eu263 O305 2.432 1_554 S
Eu263 O306 2.291 1_554 S
Eu263 C327 2.787 1_544 S
N264 C260 1.351 1_545 S
N264 Eu263 2.562 . S
N264 C266 1.325 . S
C265 C259 1.404 . S
C265 C267 1.366 . S
C265 H273 0.930 . S
C266 N264 1.325 . S
C266 C267 1.416 1_545 S
C266 H272 0.929 . S
C267 C265 1.366 . S
C267 C266 1.416 1_565 S
C267 H269 0.930 . S
H268 C257 0.930 . S
H269 C267 0.930 . S
H270 C285 0.930 . S
H271 C292 0.930 . S
H272 C266 0.929 . S
H273 C265 0.930 . S
H274 C288 0.929 1_554 S
H275 C255 0.931 . S
H276 C261 0.931 . S
H277 C262 0.931 . S
H278 C283 0.931 . S
H279 C258 0.929 . S
H280 C291 0.930 . S
N281 Eu252 2.600 1_556 S
N281 C282 1.365 . S
N281 C285 1.319 . S
C282 N281 1.365 . S
C282 C284 1.405 . S
C282 C290 1.448 . S
C283 H278 0.931 . S
C283 C285 1.397 . S
C283 C286 1.367 . S
C284 C282 1.405 . S
C284 C286 1.403 . S
C284 C317 1.439 . S
C285 H270 0.930 . S
C285 N281 1.319 . S
C285 C283 1.397 . S
C286 C283 1.367 . S
C286 C284 1.403 . S
C286 H293 0.929 . S
N287 Eu252 2.562 1_556 S
N287 C288 1.325 . S
N287 C290 1.351 . S
C288 H274 0.929 1_556 S
C288 N287 1.325 . S
C288 C292 1.416 . S
C289 C290 1.430 . S
C289 C291 1.404 . S
C289 C318 1.387 . S
C290 C282 1.448 . S
C290 N287 1.351 . S
C290 C289 1.430 . S
C291 H280 0.930 . S
C291 C289 1.404 . S
C291 C292 1.366 . S
C292 H271 0.930 . S
C292 C288 1.416 . S
C292 C291 1.366 . S
H293 C286 0.929 . S
H294 C317 0.931 . S
H295 C318 0.931 . S
O296 Eu252 2.462 . S
O296 C316 1.252 . S
O297 Eu252 2.373 1_556 S
O297 C308 1.249 . S
O298 Eu263 2.335 1_556 S
O298 C308 1.264 . S
O299 Eu252 2.432 . S
O299 C316 1.268 . S
O300 Eu252 2.291 . S
O300 C315 1.255 . S
O301 Eu263 2.372 . S
O301 C315 1.257 . S
O302 Eu263 2.462 1_556 S
O302 C327 1.252 1_545 S
O303 Eu263 2.373 . S
O303 C319 1.249 . S
O304 Eu252 2.335 . S
O304 C319 1.264 . S
O305 Eu263 2.432 1_556 S
O305 C327 1.268 1_545 S
O306 Eu263 2.291 1_556 S
O306 C326 1.255 . S
O307 Eu252 2.372 1_556 S
O307 C326 1.257 . S
C308 O297 1.249 . S
C308 O298 1.264 . S
C309 C312 1.382 . S
C309 C314 1.390 . S
C309 C316 1.506 . S
C310 C311 1.398 . S
C310 C314 1.392 . S
C311 C310 1.398 . S
C311 C313 1.372 . S
C311 H328 0.931 . S
C312 C309 1.382 . S
C312 C313 1.390 . S
C312 H329 0.931 . S
C313 C311 1.372 . S
C313 C312 1.390 . S
C313 H330 0.929 . S
C314 C309 1.390 . S
C314 C310 1.392 . S
C314 H331 0.930 . S
C315 O300 1.255 . S
C315 O301 1.257 . S
C316 Eu252 2.787 . S
C316 O296 1.252 . S
C316 O299 1.268 . S
C316 C309 1.506 . S
C317 C284 1.439 . S
C317 H294 0.931 . S
C317 C318 1.374 . S
C318 C289 1.387 . S
C318 H295 0.931 . S
C318 C317 1.374 . S
C319 O303 1.249 . S
C319 O304 1.264 . S
C320 C323 1.382 . S
C320 C324 1.390 . S
C320 C327 1.506 . S
C321 C322 1.398 . S
C321 C324 1.392 . S
C322 C321 1.398 . S
C322 C325 1.372 . S
C322 H332 0.931 . S
C323 C320 1.382 . S
C323 C325 1.390 . S
C323 H333 0.931 . S
C324 C320 1.390 . S
C324 C321 1.392 . S
C324 H334 0.930 . S
C325 C322 1.372 . S
C325 C323 1.390 . S
C325 H335 0.929 . S
C326 O306 1.255 . S
C326 O307 1.257 . S
C327 Eu263 2.787 1_566 S
C327 O302 1.252 1_565 S
C327 O305 1.268 1_565 S
C327 C320 1.506 . S
H328 C311 0.931 . S
H329 C312 0.931 . S
H330 C313 0.929 . S
H331 C314 0.930 . S
H332 C322 0.931 . S
H333 C323 0.931 . S
H334 C324 0.930 . S
H335 C325 0.929 . S
Eu336 N365 2.600 . S
Eu336 N371 2.562 . S
Eu336 O380 2.462 . S
Eu336 O381 2.373 . S
Eu336 O383 2.432 . S
Eu336 O384 2.291 . S
Eu336 O388 2.335 . S
Eu336 O391 2.372 . S
Eu336 C400 2.787 . S
C337 N338 1.365 . S
C337 C340 1.405 . S
C337 C344 1.448 . S
N338 C337 1.365 . S
N338 C341 1.319 . S
N338 Eu347 2.600 . S
C339 C341 1.397 . S
C339 C342 1.367 . S
C339 H359 0.931 . S
C340 C337 1.405 . S
C340 C342 1.403 . S
C340 C346 1.439 . S
C341 N338 1.319 . S
C341 C339 1.397 . S
C341 H352 0.930 . S
C342 C339 1.367 . S
C342 C340 1.403 . S
C342 H363 0.929 . S
C343 C344 1.430 . S
C343 C345 1.387 . S
C343 C349 1.405 . S
C344 C337 1.448 . S
C344 C343 1.430 . S
C344 N348 1.351 . S
C345 C343 1.387 . S
C345 C346 1.374 . S
C345 H360 0.931 . S
C346 C340 1.439 . S
C346 C345 1.374 . S
C346 H361 0.931 . S
Eu347 N338 2.600 . S
Eu347 N348 2.562 . S
Eu347 O382 2.335 . S
Eu347 O385 2.372 . S
Eu347 O386 2.462 . S
Eu347 O387 2.373 . S
Eu347 O389 2.432 . S
Eu347 O390 2.291 . S
Eu347 C411 2.787 . S
N348 C344 1.351 . S
N348 Eu347 2.562 . S
N348 C350 1.325 . S
C349 C343 1.405 . S
C349 C351 1.366 1_565 S
C349 H357 0.930 1_565 S
C350 N348 1.325 . S
C350 C351 1.416 1_565 S
C350 H356 0.929 . S
C351 C349 1.366 1_545 S
C351 C350 1.416 1_545 S
C351 H353 0.930 . S
H352 C341 0.930 . S
H353 C351 0.930 . S
H354 C369 0.930 . S
H355 C376 0.930 . S
H356 C350 0.929 . S
H357 C349 0.930 1_545 S
H358 C372 0.929 . S
H359 C339 0.931 . S
H360 C345 0.931 . S
H361 C346 0.931 . S
H362 C367 0.931 1_545 S
H363 C342 0.929 . S
H364 C375 0.930 . S
N365 Eu336 2.600 . S
N365 C366 1.365 1_455 S
N365 C369 1.319 . S
C366 N365 1.365 1_655 S
C366 C368 1.405 . S
C366 C374 1.448 . S
C367 H362 0.931 1_565 S
C367 C369 1.397 1_655 S
C367 C370 1.367 . S
C368 C366 1.405 . S
C368 C370 1.403 . S
C368 C401 1.439 . S
C369 H354 0.930 . S
C369 N365 1.319 . S
C369 C367 1.397 1_455 S
C370 C367 1.367 . S
C370 C368 1.403 . S
C370 H377 0.929 . S
N371 Eu336 2.562 . S
N371 C372 1.325 . S
N371 C374 1.351 1_455 S
C372 H358 0.929 . S
C372 N371 1.325 . S
C372 C376 1.416 . S
C373 C374 1.430 . S
C373 C375 1.404 . S
C373 C402 1.387 . S
C374 C366 1.448 . S
C374 N371 1.351 1_655 S
C374 C373 1.430 . S
C375 H364 0.930 . S
C375 C373 1.404 . S
C375 C376 1.366 1_655 S
C376 H355 0.930 . S
C376 C372 1.416 . S
C376 C375 1.366 1_455 S
H377 C370 0.929 . S
H378 C401 0.931 . S
H379 C402 0.931 . S
O380 Eu336 2.462 . S
O380 C400 1.252 . S
O381 Eu336 2.373 . S
O381 C392 1.249 . S
O382 Eu347 2.335 . S
O382 C392 1.264 . S
O383 Eu336 2.432 . S
O383 C400 1.268 . S
O384 Eu336 2.291 . S
O384 C399 1.255 . S
O385 Eu347 2.372 . S
O385 C399 1.257 . S
O386 Eu347 2.462 . S
O386 C411 1.252 . S
O387 Eu347 2.373 . S
O387 C403 1.249 . S
O388 Eu336 2.335 . S
O388 C403 1.264 . S
O389 Eu347 2.432 . S
O389 C411 1.268 . S
O390 Eu347 2.291 . S
O390 C410 1.255 . S
O391 Eu336 2.372 . S
O391 C410 1.257 . S
C392 O381 1.249 . S
C392 O382 1.264 . S
C393 C396 1.382 . S
C393 C398 1.390 . S
C393 C400 1.506 1_655 S
C394 C395 1.398 . S
C394 C398 1.392 . S
C395 C394 1.398 . S
C395 C397 1.372 . S
C395 H412 0.931 . S
C396 C393 1.382 . S
C396 C397 1.390 . S
C396 H413 0.931 . S
C397 C395 1.372 . S
C397 C396 1.390 . S
C397 H414 0.929 . S
C398 C393 1.390 . S
C398 C394 1.392 . S
C398 H415 0.930 . S
C399 O384 1.255 . S
C399 O385 1.257 . S
C400 Eu336 2.787 . S
C400 O380 1.252 . S
C400 O383 1.268 . S
C400 C393 1.506 1_455 S
C401 C368 1.439 . S
C401 H378 0.931 . S
C401 C402 1.374 . S
C402 C373 1.387 . S
C402 H379 0.931 . S
C402 C401 1.374 . S
C403 O387 1.249 . S
C403 O388 1.264 . S
C404 C407 1.382 . S
C404 C408 1.390 . S
C404 C411 1.506 . S
C405 C406 1.398 . S
C405 C408 1.392 . S
C406 C405 1.398 . S
C406 C409 1.372 . S
C406 H416 0.931 . S
C407 C404 1.382 . S
C407 C409 1.390 . S
C407 H417 0.931 . S
C408 C404 1.390 . S
C408 C405 1.392 . S
C408 H418 0.930 . S
C409 C406 1.372 . S
C409 C407 1.390 . S
C409 H419 0.929 . S
C410 O390 1.255 . S
C410 O391 1.257 . S
C411 Eu347 2.787 . S
C411 O386 1.252 . S
C411 O389 1.268 . S
C411 C404 1.506 . S
H412 C395 0.931 . S
H413 C396 0.931 . S
H414 C397 0.929 . S
H415 C398 0.930 . S
H416 C406 0.931 . S
H417 C407 0.931 . S
H418 C408 0.930 . S
H419 C409 0.929 . S
Eu420 N449 2.600 . S
Eu420 N455 2.562 . S
Eu420 O464 2.462 . S
Eu420 O465 2.373 . S
Eu420 O467 2.432 . S
Eu420 O468 2.291 . S
Eu420 O472 2.335 . S
Eu420 O475 2.372 . S
Eu420 C484 2.787 . S
C421 N422 1.365 1_545 S
C421 C424 1.405 . S
C421 C428 1.448 . S
N422 C421 1.365 1_565 S
N422 C425 1.319 . S
N422 Eu431 2.600 . S
C423 C425 1.397 1_545 S
C423 C426 1.367 . S
C423 H443 0.931 . S
C424 C421 1.405 . S
C424 C426 1.403 . S
C424 C430 1.439 . S
C425 N422 1.319 . S
C425 C423 1.397 1_565 S
C425 H436 0.930 . S
C426 C423 1.367 . S
C426 C424 1.403 . S
C426 H447 0.929 . S
C427 C428 1.430 . S
C427 C429 1.387 . S
C427 C433 1.404 . S
C428 C421 1.448 . S
C428 C427 1.430 . S
C428 N432 1.351 1_545 S
C429 C427 1.387 . S
C429 C430 1.374 . S
C429 H444 0.931 . S
C430 C424 1.439 . S
C430 C429 1.374 . S
C430 H445 0.931 . S
Eu431 N422 2.600 . S
Eu431 N432 2.562 . S
Eu431 O466 2.335 . S
Eu431 O469 2.372 . S
Eu431 O470 2.462 . S
Eu431 O471 2.373 . S
Eu431 O473 2.432 . S
Eu431 O474 2.291 . S
Eu431 C495 2.787 1_565 S
N432 C428 1.351 1_565 S
N432 Eu431 2.562 . S
N432 C434 1.325 . S
C433 C427 1.404 . S
C433 C435 1.366 . S
C433 H441 0.930 . S
C434 N432 1.325 . S
C434 C435 1.416 1_565 S
C434 H440 0.929 . S
C435 C433 1.366 . S
C435 C434 1.416 1_545 S
C435 H437 0.930 . S
H436 C425 0.930 . S
H437 C435 0.930 . S
H438 C453 0.930 . S
H439 C460 0.930 . S
H440 C434 0.929 . S
H441 C433 0.930 . S
H442 C456 0.929 . S
H443 C423 0.931 . S
H444 C429 0.931 . S
H445 C430 0.931 . S
H446 C451 0.931 . S
H447 C426 0.929 . S
H448 C459 0.930 . S
N449 Eu420 2.600 . S
N449 C450 1.365 . S
N449 C453 1.319 . S
C450 N449 1.365 . S
C450 C452 1.405 . S
C450 C458 1.448 . S
C451 H446 0.931 . S
C451 C453 1.397 . S
C451 C454 1.367 . S
C452 C450 1.405 . S
C452 C454 1.403 . S
C452 C485 1.439 . S
C453 H438 0.930 . S
C453 N449 1.319 . S
C453 C451 1.397 . S
C454 C451 1.367 . S
C454 C452 1.403 . S
C454 H461 0.929 . S
N455 Eu420 2.562 . S
N455 C456 1.325 . S
N455 C458 1.351 . S
C456 H442 0.929 . S
C456 N455 1.325 . S
C456 C460 1.416 . S
C457 C458 1.430 . S
C457 C459 1.404 . S
C457 C486 1.387 . S
C458 C450 1.448 . S
C458 N455 1.351 . S
C458 C457 1.430 . S
C459 H448 0.930 . S
C459 C457 1.404 . S
C459 C460 1.366 . S
C460 H439 0.930 . S
C460 C456 1.416 . S
C460 C459 1.366 . S
H461 C454 0.929 . S
H462 C485 0.931 . S
H463 C486 0.931 . S
O464 Eu420 2.462 . S
O464 C484 1.252 . S
O465 Eu420 2.373 . S
O465 C476 1.249 . S
O466 Eu431 2.335 . S
O466 C476 1.264 . S
O467 Eu420 2.432 . S
O467 C484 1.268 . S
O468 Eu420 2.291 . S
O468 C483 1.255 . S
O469 Eu431 2.372 . S
O469 C483 1.257 . S
O470 Eu431 2.462 . S
O470 C495 1.252 1_565 S
O471 Eu431 2.373 . S
O471 C487 1.249 . S
O472 Eu420 2.335 . S
O472 C487 1.264 . S
O473 Eu431 2.432 . S
O473 C495 1.268 1_565 S
O474 Eu431 2.291 . S
O474 C494 1.255 . S
O475 Eu420 2.372 . S
O475 C494 1.257 . S
C476 O465 1.249 . S
C476 O466 1.264 . S
C477 C480 1.382 . S
C477 C482 1.390 . S
C477 C484 1.506 . S
C478 C479 1.398 . S
C478 C482 1.392 . S
C479 C478 1.398 . S
C479 C481 1.372 . S
C479 H496 0.931 . S
C480 C477 1.382 . S
C480 C481 1.390 . S
C480 H497 0.931 . S
C481 C479 1.372 . S
C481 C480 1.390 . S
C481 H498 0.929 . S
C482 C477 1.390 . S
C482 C478 1.392 . S
C482 H499 0.930 . S
C483 O468 1.255 . S
C483 O469 1.257 . S
C484 Eu420 2.787 . S
C484 O464 1.252 . S
C484 O467 1.268 . S
C484 C477 1.506 . S
C485 C452 1.439 . S
C485 H462 0.931 . S
C485 C486 1.374 . S
C486 C457 1.387 . S
C486 H463 0.931 . S
C486 C485 1.374 . S
C487 O471 1.249 . S
C487 O472 1.264 . S
C488 C491 1.382 . S
C488 C492 1.390 . S
C488 C495 1.506 . S
C489 C490 1.398 . S
C489 C492 1.392 . S
C490 C489 1.398 . S
C490 C493 1.372 . S
C490 H500 0.931 . S
C491 C488 1.382 . S
C491 C493 1.390 . S
C491 H501 0.931 . S
C492 C488 1.390 . S
C492 C489 1.392 . S
C492 H502 0.930 . S
C493 C490 1.372 . S
C493 C491 1.390 . S
C493 H503 0.929 . S
C494 O474 1.255 . S
C494 O475 1.257 . S
C495 Eu431 2.787 1_545 S
C495 O470 1.252 1_545 S
C495 O473 1.268 1_545 S
C495 C488 1.506 . S
H496 C479 0.931 . S
H497 C480 0.931 . S
H498 C481 0.929 . S
H499 C482 0.930 . S
H500 C490 0.931 . S
H501 C491 0.931 . S
H502 C492 0.930 . S
H503 C493 0.929 . S
Eu504 N533 2.600 . S
Eu504 N539 2.562 . S
Eu504 O548 2.462 . S
Eu504 O549 2.373 . S
Eu504 O551 2.432 . S
Eu504 O552 2.291 . S
Eu504 O556 2.335 . S
Eu504 O559 2.372 . S
Eu504 C568 2.787 . S
C505 N506 1.365 . S
C505 C508 1.405 . S
C505 C512 1.448 . S
N506 C505 1.365 . S
N506 C509 1.319 . S
N506 Eu515 2.600 . S
C507 C509 1.397 . S
C507 C510 1.367 . S
C507 H527 0.931 . S
C508 C505 1.405 . S
C508 C510 1.403 . S
C508 C514 1.439 . S
C509 N506 1.319 . S
C509 C507 1.397 . S
C509 H520 0.930 . S
C510 C507 1.367 . S
C510 C508 1.403 . S
C510 H531 0.929 . S
C511 C512 1.430 . S
C511 C513 1.387 . S
C511 C517 1.405 . S
C512 C505 1.448 . S
C512 C511 1.430 . S
C512 N516 1.351 . S
C513 C511 1.387 . S
C513 C514 1.374 . S
C513 H528 0.931 . S
C514 C508 1.439 . S
C514 C513 1.374 . S
C514 H529 0.931 . S
Eu515 N506 2.600 . S
Eu515 N516 2.562 . S
Eu515 O550 2.335 . S
Eu515 O553 2.372 . S
Eu515 O554 2.462 . S
Eu515 O555 2.373 . S
Eu515 O557 2.432 . S
Eu515 O558 2.291 . S
Eu515 C579 2.787 . S
N516 C512 1.351 . S
N516 Eu515 2.562 . S
N516 C518 1.325 . S
C517 C511 1.405 . S
C517 C519 1.366 1_545 S
C517 H525 0.930 1_545 S
C518 N516 1.325 . S
C518 C519 1.416 1_545 S
C518 H524 0.929 . S
C519 C517 1.366 1_565 S
C519 C518 1.416 1_565 S
C519 H521 0.930 . S
H520 C509 0.930 . S
H521 C519 0.930 . S
H522 C537 0.930 . S
H523 C544 0.930 . S
H524 C518 0.929 . S
H525 C517 0.930 1_565 S
H526 C540 0.929 . S
H527 C507 0.931 . S
H528 C513 0.931 . S
H529 C514 0.931 . S
H530 C535 0.931 1_565 S
H531 C510 0.929 . S
H532 C543 0.930 . S
N533 Eu504 2.600 . S
N533 C534 1.365 . S
N533 C537 1.319 . S
C534 N533 1.365 . S
C534 C536 1.405 . S
C534 C542 1.448 . S
C535 H530 0.931 1_545 S
C535 C537 1.397 . S
C535 C538 1.367 . S
C536 C534 1.405 . S
C536 C538 1.403 . S
C536 C569 1.439 . S
C537 H522 0.930 . S
C537 N533 1.319 . S
C537 C535 1.397 . S
C538 C535 1.367 . S
C538 C536 1.403 . S
C538 H545 0.929 . S
N539 Eu504 2.562 . S
N539 C540 1.325 . S
N539 C542 1.351 . S
C540 H526 0.929 . S
C540 N539 1.325 . S
C540 C544 1.416 . S
C541 C542 1.430 . S
C541 C543 1.404 . S
C541 C570 1.387 . S
C542 C534 1.448 . S
C542 N539 1.351 . S
C542 C541 1.430 . S
C543 H532 0.930 . S
C543 C541 1.404 . S
C543 C544 1.366 . S
C544 H523 0.930 . S
C544 C540 1.416 . S
C544 C543 1.366 . S
H545 C538 0.929 . S
H546 C569 0.931 . S
H547 C570 0.931 . S
O548 Eu504 2.462 . S
O548 C568 1.252 . S
O549 Eu504 2.373 . S
O549 C560 1.249 . S
O550 Eu515 2.335 . S
O550 C560 1.264 . S
O551 Eu504 2.432 . S
O551 C568 1.268 . S
O552 Eu504 2.291 . S
O552 C567 1.255 . S
O553 Eu515 2.372 . S
O553 C567 1.257 . S
O554 Eu515 2.462 . S
O554 C579 1.252 . S
O555 Eu515 2.373 . S
O555 C571 1.249 . S
O556 Eu504 2.335 . S
O556 C571 1.264 . S
O557 Eu515 2.432 . S
O557 C579 1.268 . S
O558 Eu515 2.291 . S
O558 C578 1.255 . S
O559 Eu504 2.372 . S
O559 C578 1.257 . S
C560 O549 1.249 . S
C560 O550 1.264 . S
C561 C564 1.382 . S
C561 C566 1.390 . S
C561 C568 1.506 . S
C562 C563 1.398 . S
C562 C566 1.392 . S
C563 C562 1.398 . S
C563 C565 1.372 . S
C563 H580 0.931 . S
C564 C561 1.382 . S
C564 C565 1.390 . S
C564 H581 0.931 . S
C565 C563 1.372 . S
C565 C564 1.390 . S
C565 H582 0.929 . S
C566 C561 1.390 . S
C566 C562 1.392 . S
C566 H583 0.930 . S
C567 O552 1.255 . S
C567 O553 1.257 . S
C568 Eu504 2.787 . S
C568 O548 1.252 . S
C568 O551 1.268 . S
C568 C561 1.506 . S
C569 C536 1.439 . S
C569 H546 0.931 . S
C569 C570 1.374 . S
C570 C541 1.387 . S
C570 H547 0.931 . S
C570 C569 1.374 . S
C571 O555 1.249 . S
C571 O556 1.264 . S
C572 C575 1.382 . S
C572 C576 1.390 . S
C572 C579 1.506 . S
C573 C574 1.398 . S
C573 C576 1.392 . S
C574 C573 1.398 . S
C574 C577 1.372 . S
C574 H584 0.931 . S
C575 C572 1.382 . S
C575 C577 1.390 . S
C575 H585 0.931 . S
C576 C572 1.390 . S
C576 C573 1.392 . S
C576 H586 0.930 . S
C577 C574 1.372 . S
C577 C575 1.390 . S
C577 H587 0.929 . S
C578 O558 1.255 . S
C578 O559 1.257 . S
C579 Eu515 2.787 . S
C579 O554 1.252 . S
C579 O557 1.268 . S
C579 C572 1.506 . S
H580 C563 0.931 . S
H581 C564 0.931 . S
H582 C565 0.929 . S
H583 C566 0.930 . S
H584 C574 0.931 . S
H585 C575 0.931 . S
H586 C576 0.930 . S
H587 C577 0.929 . S
Eu588 N617 2.600 1_556 S
Eu588 N623 2.562 1_556 S
Eu588 O632 2.462 . S
Eu588 O633 2.373 1_556 S
Eu588 O635 2.432 . S
Eu588 O636 2.291 . S
Eu588 O640 2.335 . S
Eu588 O643 2.372 1_556 S
Eu588 C652 2.787 . S
C589 N590 1.365 1_565 S
C589 C592 1.405 . S
C589 C596 1.448 . S
N590 C589 1.365 1_545 S
N590 C593 1.319 . S
N590 Eu599 2.600 . S
C591 C593 1.397 1_565 S
C591 C594 1.367 . S
C591 H611 0.931 . S
C592 C589 1.405 . S
C592 C594 1.403 . S
C592 C598 1.439 . S
C593 N590 1.319 . S
C593 C591 1.397 1_545 S
C593 H604 0.930 . S
C594 C591 1.367 . S
C594 C592 1.403 . S
C594 H615 0.929 . S
C595 C596 1.430 . S
C595 C597 1.387 . S
C595 C601 1.404 . S
C596 C589 1.448 . S
C596 C595 1.430 . S
C596 N600 1.351 1_565 S
C597 C595 1.387 . S
C597 C598 1.374 . S
C597 H612 0.931 . S
C598 C592 1.439 . S
C598 C597 1.374 . S
C598 H613 0.931 . S
Eu599 N590 2.600 . S
Eu599 N600 2.562 . S
Eu599 O634 2.335 1_556 S
Eu599 O637 2.372 . S
Eu599 O638 2.462 1_556 S
Eu599 O639 2.373 . S
Eu599 O641 2.432 1_556 S
Eu599 O642 2.291 1_556 S
Eu599 C663 2.787 1_546 S
N600 C596 1.351 1_545 S
N600 Eu599 2.562 . S
N600 C602 1.325 . S
C601 C595 1.404 . S
C601 C603 1.366 . S
C601 H609 0.930 . S
C602 N600 1.325 . S
C602 C603 1.416 1_545 S
C602 H608 0.929 . S
C603 C601 1.366 . S
C603 C602 1.416 1_565 S
C603 H605 0.930 . S
H604 C593 0.930 . S
H605 C603 0.930 . S
H606 C621 0.930 . S
H607 C628 0.930 . S
H608 C602 0.929 . S
H609 C601 0.930 . S
H610 C624 0.929 1_556 S
H611 C591 0.931 . S
H612 C597 0.931 . S
H613 C598 0.931 . S
H614 C619 0.931 . S
H615 C594 0.929 . S
H616 C627 0.930 . S
N617 Eu588 2.600 1_554 S
N617 C618 1.365 . S
N617 C621 1.319 . S
C618 N617 1.365 . S
C618 C620 1.405 . S
C618 C626 1.448 . S
C619 H614 0.931 . S
C619 C621 1.397 . S
C619 C622 1.367 . S
C620 C618 1.405 . S
C620 C622 1.403 . S
C620 C653 1.439 . S
C621 H606 0.930 . S
C621 N617 1.319 . S
C621 C619 1.397 . S
C622 C619 1.367 . S
C622 C620 1.403 . S
C622 H629 0.929 . S
N623 Eu588 2.562 1_554 S
N623 C624 1.325 . S
N623 C626 1.351 . S
C624 H610 0.929 1_554 S
C624 N623 1.325 . S
C624 C628 1.416 . S
C625 C626 1.430 . S
C625 C627 1.404 . S
C625 C654 1.387 . S
C626 C618 1.448 . S
C626 N623 1.351 . S
C626 C625 1.430 . S
C627 H616 0.930 . S
C627 C625 1.404 . S
C627 C628 1.366 . S
C628 H607 0.930 . S
C628 C624 1.416 . S
C628 C627 1.366 . S
H629 C622 0.929 . S
H630 C653 0.931 . S
H631 C654 0.931 . S
O632 Eu588 2.462 . S
O632 C652 1.252 . S
O633 Eu588 2.373 1_554 S
O633 C644 1.249 . S
O634 Eu599 2.335 1_554 S
O634 C644 1.264 . S
O635 Eu588 2.432 . S
O635 C652 1.268 . S
O636 Eu588 2.291 . S
O636 C651 1.255 . S
O637 Eu599 2.372 . S
O637 C651 1.257 . S
O638 Eu599 2.462 1_554 S
O638 C663 1.252 1_545 S
O639 Eu599 2.373 . S
O639 C655 1.249 . S
O640 Eu588 2.335 . S
O640 C655 1.264 . S
O641 Eu599 2.432 1_554 S
O641 C663 1.268 1_545 S
O642 Eu599 2.291 1_554 S
O642 C662 1.255 . S
O643 Eu588 2.372 1_554 S
O643 C662 1.257 . S
C644 O633 1.249 . S
C644 O634 1.264 . S
C645 C648 1.382 . S
C645 C650 1.390 . S
C645 C652 1.506 . S
C646 C647 1.398 . S
C646 C650 1.392 . S
C647 C646 1.398 . S
C647 C649 1.372 . S
C647 H664 0.931 . S
C648 C645 1.382 . S
C648 C649 1.390 . S
C648 H665 0.931 . S
C649 C647 1.372 . S
C649 C648 1.390 . S
C649 H666 0.929 . S
C650 C645 1.390 . S
C650 C646 1.392 . S
C650 H667 0.930 . S
C651 O636 1.255 . S
C651 O637 1.257 . S
C652 Eu588 2.787 . S
C652 O632 1.252 . S
C652 O635 1.268 . S
C652 C645 1.506 . S
C653 C620 1.439 . S
C653 H630 0.931 . S
C653 C654 1.374 . S
C654 C625 1.387 . S
C654 H631 0.931 . S
C654 C653 1.374 . S
C655 O639 1.249 . S
C655 O640 1.264 . S
C656 C659 1.382 . S
C656 C660 1.390 . S
C656 C663 1.506 . S
C657 C658 1.398 . S
C657 C660 1.392 . S
C658 C657 1.398 . S
C658 C661 1.372 . S
C658 H668 0.931 . S
C659 C656 1.382 . S
C659 C661 1.390 . S
C659 H669 0.931 . S
C660 C656 1.390 . S
C660 C657 1.392 . S
C660 H670 0.930 . S
C661 C658 1.372 . S
C661 C659 1.390 . S
C661 H671 0.929 . S
C662 O642 1.255 . S
C662 O643 1.257 . S
C663 Eu599 2.787 1_564 S
C663 O638 1.252 1_565 S
C663 O641 1.268 1_565 S
C663 C656 1.506 . S
H664 C647 0.931 . S
H665 C648 0.931 . S
H666 C649 0.929 . S
H667 C650 0.930 . S
H668 C658 0.931 . S
H669 C659 0.931 . S
H670 C660 0.930 . S
H671 C661 0.929 . S
Eu672 N701 2.600 . S
Eu672 N707 2.562 . S
Eu672 O716 2.462 . S
Eu672 O717 2.373 . S
Eu672 O719 2.432 . S
Eu672 O720 2.291 . S
Eu672 O724 2.335 . S
Eu672 O727 2.372 . S
Eu672 C736 2.787 . S
C673 N674 1.365 1_455 S
C673 C676 1.405 . S
C673 C680 1.448 . S
N674 C673 1.365 1_655 S
N674 C677 1.319 . S
N674 Eu683 2.600 . S
C675 C677 1.397 1_455 S
C675 C678 1.367 . S
C675 H695 0.931 1_565 S
C676 C673 1.405 . S
C676 C678 1.403 . S
C676 C682 1.439 . S
C677 N674 1.319 . S
C677 C675 1.397 1_655 S
C677 H688 0.930 . S
C678 C675 1.367 . S
C678 C676 1.403 . S
C678 H699 0.929 . S
C679 C680 1.430 . S
C679 C681 1.387 . S
C679 C685 1.404 . S
C680 C673 1.448 . S
C680 C679 1.430 . S
C680 N684 1.351 1_455 S
C681 C679 1.387 . S
C681 C682 1.374 . S
C681 H696 0.931 . S
C682 C676 1.439 . S
C682 C681 1.374 . S
C682 H697 0.931 . S
Eu683 N674 2.600 . S
Eu683 N684 2.562 . S
Eu683 O718 2.335 . S
Eu683 O721 2.372 . S
Eu683 O722 2.462 . S
Eu683 O723 2.373 . S
Eu683 O725 2.432 . S
Eu683 O726 2.291 . S
Eu683 C747 2.787 . S
N684 C680 1.351 1_655 S
N684 Eu683 2.562 . S
N684 C686 1.325 . S
C685 C679 1.404 . S
C685 C687 1.366 1_455 S
C685 H693 0.930 . S
C686 N684 1.325 . S
C686 C687 1.416 . S
C686 H692 0.929 . S
C687 C685 1.366 1_655 S
C687 C686 1.416 . S
C687 H689 0.930 . S
H688 C677 0.930 . S
H689 C687 0.930 . S
H690 C705 0.930 . S
H691 C712 0.930 . S
H692 C686 0.929 . S
H693 C685 0.930 . S
H694 C708 0.929 . S
H695 C675 0.931 1_545 S
H696 C681 0.931 . S
H697 C682 0.931 . S
H698 C703 0.931 . S
H699 C678 0.929 . S
H700 C711 0.930 1_545 S
N701 Eu672 2.600 . S
N701 C702 1.365 . S
N701 C705 1.319 . S
C702 N701 1.365 . S
C702 C704 1.405 . S
C702 C710 1.448 . S
C703 H698 0.931 . S
C703 C705 1.397 . S
C703 C706 1.367 . S
C704 C702 1.405 . S
C704 C706 1.403 . S
C704 C737 1.439 . S
C705 H690 0.930 . S
C705 N701 1.319 . S
C705 C703 1.397 . S
C706 C703 1.367 . S
C706 C704 1.403 . S
C706 H713 0.929 . S
N707 Eu672 2.562 . S
N707 C708 1.325 . S
N707 C710 1.351 . S
C708 H694 0.929 . S
C708 N707 1.325 . S
C708 C712 1.416 1_565 S
C709 C710 1.430 . S
C709 C711 1.405 . S
C709 C738 1.387 . S
C710 C702 1.448 . S
C710 N707 1.351 . S
C710 C709 1.430 . S
C711 H700 0.930 1_565 S
C711 C709 1.405 . S
C711 C712 1.366 1_565 S
C712 H691 0.930 . S
C712 C708 1.416 1_545 S
C712 C711 1.366 1_545 S
H713 C706 0.929 . S
H714 C737 0.931 . S
H715 C738 0.931 . S
O716 Eu672 2.462 . S
O716 C736 1.252 . S
O717 Eu672 2.373 . S
O717 C728 1.249 . S
O718 Eu683 2.335 . S
O718 C728 1.264 . S
O719 Eu672 2.432 . S
O719 C736 1.268 . S
O720 Eu672 2.291 . S
O720 C735 1.255 . S
O721 Eu683 2.372 . S
O721 C735 1.257 . S
O722 Eu683 2.462 . S
O722 C747 1.252 . S
O723 Eu683 2.373 . S
O723 C739 1.249 . S
O724 Eu672 2.335 . S
O724 C739 1.264 . S
O725 Eu683 2.432 . S
O725 C747 1.268 . S
O726 Eu683 2.291 . S
O726 C746 1.255 . S
O727 Eu672 2.372 . S
O727 C746 1.257 . S
C728 O717 1.249 . S
C728 O718 1.264 . S
C729 C732 1.382 . S
C729 C734 1.390 . S
C729 C736 1.506 . S
C730 C731 1.398 . S
C730 C734 1.392 . S
C731 C730 1.398 . S
C731 C733 1.372 . S
C731 H748 0.931 . S
C732 C729 1.382 . S
C732 C733 1.390 . S
C732 H749 0.931 . S
C733 C731 1.372 . S
C733 C732 1.390 . S
C733 H750 0.929 . S
C734 C729 1.390 . S
C734 C730 1.392 . S
C734 H751 0.930 . S
C735 O720 1.255 . S
C735 O721 1.257 . S
C736 Eu672 2.787 . S
C736 O716 1.252 . S
C736 O719 1.268 . S
C736 C729 1.506 . S
C737 C704 1.439 . S
C737 H714 0.931 . S
C737 C738 1.374 . S
C738 C709 1.387 . S
C738 H715 0.931 . S
C738 C737 1.374 . S
C739 O723 1.249 . S
C739 O724 1.264 . S
C740 C743 1.382 . S
C740 C744 1.390 . S
C740 C747 1.506 1_455 S
C741 C742 1.398 . S
C741 C744 1.392 . S
C742 C741 1.398 . S
C742 C745 1.372 . S
C742 H752 0.931 . S
C743 C740 1.382 . S
C743 C745 1.390 . S
C743 H753 0.931 . S
C744 C740 1.390 . S
C744 C741 1.392 . S
C744 H754 0.930 . S
C745 C742 1.372 . S
C745 C743 1.390 . S
C745 H755 0.929 . S
C746 O726 1.255 . S
C746 O727 1.257 . S
C747 Eu683 2.787 . S
C747 O722 1.252 . S
C747 O725 1.268 . S
C747 C740 1.506 1_655 S
H748 C731 0.931 . S
H749 C732 0.931 . S
H750 C733 0.929 . S
H751 C734 0.930 . S
H752 C742 0.931 . S
H753 C743 0.931 . S
H754 C744 0.930 . S
H755 C745 0.929 . S
Eu756 N785 2.600 . S
Eu756 N791 2.562 . S
Eu756 O800 2.462 . S
Eu756 O801 2.373 . S
Eu756 O803 2.432 . S
Eu756 O804 2.291 . S
Eu756 O808 2.335 . S
Eu756 O811 2.372 . S
Eu756 C820 2.787 1_545 S
C757 N758 1.365 . S
C757 C760 1.405 . S
C757 C764 1.448 . S
N758 C757 1.365 . S
N758 C761 1.319 . S
N758 Eu767 2.600 . S
C759 C761 1.397 . S
C759 C762 1.367 . S
C759 H779 0.931 . S
C760 C757 1.405 . S
C760 C762 1.403 . S
C760 C766 1.439 . S
C761 N758 1.319 . S
C761 C759 1.397 . S
C761 H772 0.930 . S
C762 C759 1.367 . S
C762 C760 1.403 . S
C762 H783 0.929 . S
C763 C764 1.430 . S
C763 C765 1.387 . S
C763 C769 1.404 . S
C764 C757 1.448 . S
C764 C763 1.430 . S
C764 N768 1.351 . S
C765 C763 1.387 . S
C765 C766 1.374 . S
C765 H780 0.931 . S
C766 C760 1.439 . S
C766 C765 1.374 . S
C766 H781 0.931 . S
Eu767 N758 2.600 . S
Eu767 N768 2.562 . S
Eu767 O802 2.335 . S
Eu767 O805 2.372 . S
Eu767 O806 2.462 . S
Eu767 O807 2.373 . S
Eu767 O809 2.432 . S
Eu767 O810 2.291 . S
Eu767 C831 2.787 . S
N768 C764 1.351 . S
N768 Eu767 2.562 . S
N768 C770 1.325 . S
C769 C763 1.404 . S
C769 C771 1.366 . S
C769 H777 0.930 . S
C770 N768 1.325 . S
C770 C771 1.416 . S
C770 H776 0.929 . S
C771 C769 1.366 . S
C771 C770 1.416 . S
C771 H773 0.930 . S
H772 C761 0.930 . S
H773 C771 0.930 . S
H774 C789 0.930 . S
H775 C796 0.930 . S
H776 C770 0.929 . S
H777 C769 0.930 . S
H778 C792 0.929 . S
H779 C759 0.931 . S
H780 C765 0.931 . S
H781 C766 0.931 . S
H782 C787 0.931 . S
H783 C762 0.929 . S
H784 C795 0.930 . S
N785 Eu756 2.600 . S
N785 C786 1.365 1_545 S
N785 C789 1.319 . S
C786 N785 1.365 1_565 S
C786 C788 1.405 . S
C786 C794 1.448 . S
C787 H782 0.931 . S
C787 C789 1.397 1_565 S
C787 C790 1.367 . S
C788 C786 1.405 . S
C788 C790 1.403 . S
C788 C821 1.439 . S
C789 H774 0.930 . S
C789 N785 1.319 . S
C789 C787 1.397 1_545 S
C790 C787 1.367 . S
C790 C788 1.403 . S
C790 H797 0.929 . S
N791 Eu756 2.562 . S
N791 C792 1.325 . S
N791 C794 1.351 1_545 S
C792 H778 0.929 . S
C792 N791 1.325 . S
C792 C796 1.416 1_545 S
C793 C794 1.430 . S
C793 C795 1.404 . S
C793 C822 1.387 . S
C794 C786 1.448 . S
C794 N791 1.351 1_565 S
C794 C793 1.430 . S
C795 H784 0.930 . S
C795 C793 1.404 . S
C795 C796 1.366 . S
C796 H775 0.930 . S
C796 C792 1.416 1_565 S
C796 C795 1.366 . S
H797 C790 0.929 . S
H798 C821 0.931 . S
H799 C822 0.931 . S
O800 Eu756 2.462 . S
O800 C820 1.252 1_545 S
O801 Eu756 2.373 . S
O801 C812 1.249 . S
O802 Eu767 2.335 . S
O802 C812 1.264 . S
O803 Eu756 2.432 . S
O803 C820 1.268 1_545 S
O804 Eu756 2.291 . S
O804 C819 1.255 . S
O805 Eu767 2.372 . S
O805 C819 1.257 . S
O806 Eu767 2.462 . S
O806 C831 1.252 . S
O807 Eu767 2.373 . S
O807 C823 1.249 . S
O808 Eu756 2.335 . S
O808 C823 1.264 . S
O809 Eu767 2.432 . S
O809 C831 1.268 . S
O810 Eu767 2.291 . S
O810 C830 1.255 . S
O811 Eu756 2.372 . S
O811 C830 1.257 . S
C812 O801 1.249 . S
C812 O802 1.264 . S
C813 C816 1.382 . S
C813 C818 1.390 . S
C813 C820 1.506 . S
C814 C815 1.398 . S
C814 C818 1.392 . S
C815 C814 1.398 . S
C815 C817 1.372 . S
C815 H832 0.931 . S
C816 C813 1.382 . S
C816 C817 1.390 . S
C816 H833 0.931 . S
C817 C815 1.372 . S
C817 C816 1.390 . S
C817 H834 0.929 . S
C818 C813 1.390 . S
C818 C814 1.392 . S
C818 H835 0.930 . S
C819 O804 1.255 . S
C819 O805 1.257 . S
C820 Eu756 2.787 1_565 S
C820 O800 1.252 1_565 S
C820 O803 1.268 1_565 S
C820 C813 1.506 . S
C821 C788 1.439 . S
C821 H798 0.931 . S
C821 C822 1.374 . S
C822 C793 1.387 . S
C822 H799 0.931 . S
C822 C821 1.374 . S
C823 O807 1.249 . S
C823 O808 1.264 . S
C824 C827 1.382 . S
C824 C828 1.390 . S
C824 C831 1.506 . S
C825 C826 1.398 . S
C825 C828 1.392 . S
C826 C825 1.398 . S
C826 C829 1.372 . S
C826 H836 0.931 . S
C827 C824 1.382 . S
C827 C829 1.390 . S
C827 H837 0.931 . S
C828 C824 1.390 . S
C828 C825 1.392 . S
C828 H838 0.930 . S
C829 C826 1.372 . S
C829 C827 1.390 . S
C829 H839 0.929 . S
C830 O810 1.255 . S
C830 O811 1.257 . S
C831 Eu767 2.787 . S
C831 O806 1.252 . S
C831 O809 1.268 . S
C831 C824 1.506 . S
H832 C815 0.931 . S
H833 C816 0.931 . S
H834 C817 0.929 . S
H835 C818 0.930 . S
H836 C826 0.931 . S
H837 C827 0.931 . S
H838 C828 0.930 . S
H839 C829 0.929 . S
Eu840 N869 2.600 . S
Eu840 N875 2.562 . S
Eu840 O884 2.462 . S
Eu840 O885 2.373 . S
Eu840 O887 2.432 . S
Eu840 O888 2.291 . S
Eu840 O892 2.335 . S
Eu840 O895 2.372 . S
Eu840 C904 2.787 . S
C841 N842 1.365 . S
C841 C844 1.405 . S
C841 C848 1.448 . S
N842 C841 1.365 . S
N842 C845 1.319 . S
N842 Eu851 2.600 . S
C843 C845 1.397 . S
C843 C846 1.367 . S
C843 H863 0.931 1_545 S
C844 C841 1.405 . S
C844 C846 1.403 . S
C844 C850 1.439 . S
C845 N842 1.319 . S
C845 C843 1.397 . S
C845 H856 0.930 . S
C846 C843 1.367 . S
C846 C844 1.403 . S
C846 H867 0.929 . S
C847 C848 1.430 . S
C847 C849 1.387 . S
C847 C853 1.404 . S
C848 C841 1.448 . S
C848 C847 1.430 . S
C848 N852 1.351 . S
C849 C847 1.387 . S
C849 C850 1.374 . S
C849 H864 0.931 . S
C850 C844 1.439 . S
C850 C849 1.374 . S
C850 H865 0.931 . S
Eu851 N842 2.600 . S
Eu851 N852 2.562 . S
Eu851 O886 2.335 . S
Eu851 O889 2.372 . S
Eu851 O890 2.462 . S
Eu851 O891 2.373 . S
Eu851 O893 2.432 . S
Eu851 O894 2.291 . S
Eu851 C915 2.787 . S
N852 C848 1.351 . S
N852 Eu851 2.562 . S
N852 C854 1.325 . S
C853 C847 1.404 . S
C853 C855 1.366 . S
C853 H861 0.930 . S
C854 N852 1.325 . S
C854 C855 1.416 . S
C854 H860 0.929 . S
C855 C853 1.366 . S
C855 C854 1.416 . S
C855 H857 0.930 . S
H856 C845 0.930 . S
H857 C855 0.930 . S
H858 C873 0.930 . S
H859 C880 0.930 . S
H860 C854 0.929 . S
H861 C853 0.930 . S
H862 C876 0.929 . S
H863 C843 0.931 1_565 S
H864 C849 0.931 . S
H865 C850 0.931 . S
H866 C871 0.931 . S
H867 C846 0.929 . S
H868 C879 0.930 1_565 S
N869 Eu840 2.600 . S
N869 C870 1.365 . S
N869 C873 1.319 . S
C870 N869 1.365 . S
C870 C872 1.405 . S
C870 C878 1.448 . S
C871 H866 0.931 . S
C871 C873 1.397 . S
C871 C874 1.367 . S
C872 C870 1.405 . S
C872 C874 1.403 . S
C872 C905 1.439 . S
C873 H858 0.930 . S
C873 N869 1.319 . S
C873 C871 1.397 . S
C874 C871 1.367 . S
C874 C872 1.403 . S
C874 H881 0.929 . S
N875 Eu840 2.562 . S
N875 C876 1.325 . S
N875 C878 1.351 . S
C876 H862 0.929 . S
C876 N875 1.325 . S
C876 C880 1.416 1_545 S
C877 C878 1.430 . S
C877 C879 1.405 . S
C877 C906 1.387 . S
C878 C870 1.448 . S
C878 N875 1.351 . S
C878 C877 1.430 . S
C879 H868 0.930 1_545 S
C879 C877 1.405 . S
C879 C880 1.366 1_545 S
C880 H859 0.930 . S
C880 C876 1.416 1_565 S
C880 C879 1.366 1_565 S
H881 C874 0.929 . S
H882 C905 0.931 . S
H883 C906 0.931 . S
O884 Eu840 2.462 . S
O884 C904 1.252 . S
O885 Eu840 2.373 . S
O885 C896 1.249 . S
O886 Eu851 2.335 . S
O886 C896 1.264 . S
O887 Eu840 2.432 . S
O887 C904 1.268 . S
O888 Eu840 2.291 . S
O888 C903 1.255 . S
O889 Eu851 2.372 . S
O889 C903 1.257 . S
O890 Eu851 2.462 . S
O890 C915 1.252 . S
O891 Eu851 2.373 . S
O891 C907 1.249 . S
O892 Eu840 2.335 . S
O892 C907 1.264 . S
O893 Eu851 2.432 . S
O893 C915 1.268 . S
O894 Eu851 2.291 . S
O894 C914 1.255 . S
O895 Eu840 2.372 . S
O895 C914 1.257 . S
C896 O885 1.249 . S
C896 O886 1.264 . S
C897 C900 1.382 . S
C897 C902 1.390 . S
C897 C904 1.506 . S
C898 C899 1.398 . S
C898 C902 1.392 . S
C899 C898 1.398 . S
C899 C901 1.372 . S
C899 H916 0.931 . S
C900 C897 1.382 . S
C900 C901 1.390 . S
C900 H917 0.931 . S
C901 C899 1.372 . S
C901 C900 1.390 . S
C901 H918 0.929 . S
C902 C897 1.390 . S
C902 C898 1.392 . S
C902 H919 0.930 . S
C903 O888 1.255 . S
C903 O889 1.257 . S
C904 Eu840 2.787 . S
C904 O884 1.252 . S
C904 O887 1.268 . S
C904 C897 1.506 . S
C905 C872 1.439 . S
C905 H882 0.931 . S
C905 C906 1.374 . S
C906 C877 1.387 . S
C906 H883 0.931 . S
C906 C905 1.374 . S
C907 O891 1.249 . S
C907 O892 1.264 . S
C908 C911 1.382 . S
C908 C912 1.390 . S
C908 C915 1.506 . S
C909 C910 1.398 . S
C909 C912 1.392 . S
C910 C909 1.398 . S
C910 C913 1.372 . S
C910 H920 0.931 . S
C911 C908 1.382 . S
C911 C913 1.390 . S
C911 H921 0.931 . S
C912 C908 1.390 . S
C912 C909 1.392 . S
C912 H922 0.930 . S
C913 C910 1.372 . S
C913 C911 1.390 . S
C913 H923 0.929 . S
C914 O894 1.255 . S
C914 O895 1.257 . S
C915 Eu851 2.787 . S
C915 O890 1.252 . S
C915 O893 1.268 . S
C915 C908 1.506 . S
H916 C899 0.931 . S
H917 C900 0.931 . S
H918 C901 0.929 . S
H919 C902 0.930 . S
H920 C910 0.931 . S
H921 C911 0.931 . S
H922 C912 0.930 . S
H923 C913 0.929 . S
Eu924 N953 2.600 . S
Eu924 N959 2.562 . S
Eu924 O968 2.462 1_556 S
Eu924 O969 2.373 . S
Eu924 O971 2.432 1_556 S
Eu924 O972 2.291 1_556 S
Eu924 O976 2.335 1_556 S
Eu924 O979 2.372 . S
Eu924 C988 2.787 1_566 S
C925 N926 1.365 . S
C925 C928 1.405 . S
C925 C932 1.448 . S
N926 C925 1.365 . S
N926 C929 1.319 . S
N926 Eu935 2.600 1_554 S
C927 C929 1.397 . S
C927 C930 1.367 . S
C927 H947 0.931 . S
C928 C925 1.405 . S
C928 C930 1.403 . S
C928 C934 1.439 . S
C929 N926 1.319 . S
C929 C927 1.397 . S
C929 H940 0.930 . S
C930 C927 1.367 . S
C930 C928 1.403 . S
C930 H951 0.929 . S
C931 C932 1.430 . S
C931 C933 1.387 . S
C931 C937 1.404 . S
C932 C925 1.448 . S
C932 C931 1.430 . S
C932 N936 1.351 . S
C933 C931 1.387 . S
C933 C934 1.374 . S
C933 H948 0.931 . S
C934 C928 1.439 . S
C934 C933 1.374 . S
C934 H949 0.931 . S
Eu935 N926 2.600 1_556 S
Eu935 N936 2.562 1_556 S
Eu935 O970 2.335 . S
Eu935 O973 2.372 1_556 S
Eu935 O974 2.462 . S
Eu935 O975 2.373 1_556 S
Eu935 O977 2.432 . S
Eu935 O978 2.291 . S
Eu935 C999 2.787 . S
N936 C932 1.351 . S
N936 Eu935 2.562 1_554 S
N936 C938 1.325 . S
C937 C931 1.404 . S
C937 C939 1.366 . S
C937 H945 0.930 . S
C938 N936 1.325 . S
C938 C939 1.416 . S
C938 H944 0.929 1_554 S
C939 C937 1.366 . S
C939 C938 1.416 . S
C939 H941 0.930 . S
H940 C929 0.930 . S
H941 C939 0.930 . S
H942 C957 0.930 . S
H943 C964 0.930 . S
H944 C938 0.929 1_556 S
H945 C937 0.930 . S
H946 C960 0.929 . S
H947 C927 0.931 . S
H948 C933 0.931 . S
H949 C934 0.931 . S
H950 C955 0.931 . S
H951 C930 0.929 . S
H952 C963 0.930 . S
N953 Eu924 2.600 . S
N953 C954 1.365 1_565 S
N953 C957 1.319 . S
C954 N953 1.365 1_545 S
C954 C956 1.405 . S
C954 C962 1.448 . S
C955 H950 0.931 . S
C955 C957 1.397 1_545 S
C955 C958 1.367 . S
C956 C954 1.405 . S
C956 C958 1.403 . S
C956 C989 1.439 . S
C957 H942 0.930 . S
C957 N953 1.319 . S
C957 C955 1.397 1_565 S
C958 C955 1.367 . S
C958 C956 1.403 . S
C958 H965 0.929 . S
N959 Eu924 2.562 . S
N959 C960 1.325 . S
N959 C962 1.351 1_565 S
C960 H946 0.929 . S
C960 N959 1.325 . S
C960 C964 1.416 1_565 S
C961 C962 1.430 . S
C961 C963 1.404 . S
C961 C990 1.387 . S
C962 C954 1.448 . S
C962 N959 1.351 1_545 S
C962 C961 1.430 . S
C963 H952 0.930 . S
C963 C961 1.404 . S
C963 C964 1.366 . S
C964 H943 0.930 . S
C964 C960 1.416 1_545 S
C964 C963 1.366 . S
H965 C958 0.929 . S
H966 C989 0.931 . S
H967 C990 0.931 . S
O968 Eu924 2.462 1_554 S
O968 C988 1.252 1_565 S
O969 Eu924 2.373 . S
O969 C980 1.249 . S
O970 Eu935 2.335 . S
O970 C980 1.264 . S
O971 Eu924 2.432 1_554 S
O971 C988 1.268 1_565 S
O972 Eu924 2.291 1_554 S
O972 C987 1.255 . S
O973 Eu935 2.372 1_554 S
O973 C987 1.257 . S
O974 Eu935 2.462 . S
O974 C999 1.252 . S
O975 Eu935 2.373 1_554 S
O975 C991 1.249 . S
O976 Eu924 2.335 1_554 S
O976 C991 1.264 . S
O977 Eu935 2.432 . S
O977 C999 1.268 . S
O978 Eu935 2.291 . S
O978 C998 1.255 . S
O979 Eu924 2.372 . S
O979 C998 1.257 . S
C980 O969 1.249 . S
C980 O970 1.264 . S
C981 C984 1.382 . S
C981 C986 1.390 . S
C981 C988 1.506 . S
C982 C983 1.398 . S
C982 C986 1.392 . S
C983 C982 1.398 . S
C983 C985 1.372 . S
C983 H1000 0.931 . S
C984 C981 1.382 . S
C984 C985 1.390 . S
C984 H1001 0.931 . S
C985 C983 1.372 . S
C985 C984 1.390 . S
C985 H1002 0.929 . S
C986 C981 1.390 . S
C986 C982 1.392 . S
C986 H1003 0.930 . S
C987 O972 1.255 . S
C987 O973 1.257 . S
C988 Eu924 2.787 1_544 S
C988 O968 1.252 1_545 S
C988 O971 1.268 1_545 S
C988 C981 1.506 . S
C989 C956 1.439 . S
C989 H966 0.931 . S
C989 C990 1.374 . S
C990 C961 1.387 . S
C990 H967 0.931 . S
C990 C989 1.374 . S
C991 O975 1.249 . S
C991 O976 1.264 . S
C992 C995 1.382 . S
C992 C996 1.390 . S
C992 C999 1.506 . S
C993 C994 1.398 . S
C993 C996 1.392 . S
C994 C993 1.398 . S
C994 C997 1.372 . S
C994 H1004 0.931 . S
C995 C992 1.382 . S
C995 C997 1.390 . S
C995 H1005 0.931 . S
C996 C992 1.390 . S
C996 C993 1.392 . S
C996 H1006 0.930 . S
C997 C994 1.372 . S
C997 C995 1.390 . S
C997 H1007 0.929 . S
C998 O978 1.255 . S
C998 O979 1.257 . S
C999 Eu935 2.787 . S
C999 O974 1.252 . S
C999 O977 1.268 . S
C999 C992 1.506 . S
H1000 C983 0.931 . S
H1001 C984 0.931 . S
H1002 C985 0.929 . S
H1003 C986 0.930 . S
H1004 C994 0.931 . S
H1005 C995 0.931 . S
H1006 C996 0.930 . S
H1007 C997 0.929 . S
Eu1008 N1037 2.600 . S
Eu1008 N1043 2.562 . S
Eu1008 O1052 2.462 . S
Eu1008 O1053 2.373 . S
Eu1008 O1055 2.432 . S
Eu1008 O1056 2.291 . S
Eu1008 O1060 2.335 . S
Eu1008 O1063 2.372 . S
Eu1008 C1072 2.787 . S
C1009 N1010 1.365 1_455 S
C1009 C1012 1.405 . S
C1009 C1016 1.448 . S
N1010 C1009 1.365 1_655 S
N1010 C1013 1.319 . S
N1010 Eu1019 2.600 . S
C1011 C1013 1.397 1_455 S
C1011 C1014 1.367 . S
C1011 H1031 0.931 1_545 S
C1012 C1009 1.405 . S
C1012 C1014 1.403 . S
C1012 C1018 1.439 . S
C1013 N1010 1.319 . S
C1013 C1011 1.397 1_655 S
C1013 H1024 0.930 . S
C1014 C1011 1.367 . S
C1014 C1012 1.403 . S
C1014 H1035 0.929 . S
C1015 C1016 1.430 . S
C1015 C1017 1.387 . S
C1015 C1021 1.404 . S
C1016 C1009 1.448 . S
C1016 C1015 1.430 . S
C1016 N1020 1.351 1_455 S
C1017 C1015 1.387 . S
C1017 C1018 1.374 . S
C1017 H1032 0.931 . S
C1018 C1012 1.439 . S
C1018 C1017 1.374 . S
C1018 H1033 0.931 . S
Eu1019 N1010 2.600 . S
Eu1019 N1020 2.562 . S
Eu1019 O1054 2.335 . S
Eu1019 O1057 2.372 . S
Eu1019 O1058 2.462 . S
Eu1019 O1059 2.373 . S
Eu1019 O1061 2.432 . S
Eu1019 O1062 2.291 . S
Eu1019 C1083 2.787 . S
N1020 C1016 1.351 1_655 S
N1020 Eu1019 2.562 . S
N1020 C1022 1.325 . S
C1021 C1015 1.404 . S
C1021 C1023 1.366 1_455 S
C1021 H1029 0.930 . S
C1022 N1020 1.325 . S
C1022 C1023 1.416 . S
C1022 H1028 0.929 . S
C1023 C1021 1.366 1_655 S
C1023 C1022 1.416 . S
C1023 H1025 0.930 . S
H1024 C1013 0.930 . S
H1025 C1023 0.930 . S
H1026 C1041 0.930 . S
H1027 C1048 0.930 . S
H1028 C1022 0.929 . S
H1029 C1021 0.930 . S
H1030 C1044 0.929 . S
H1031 C1011 0.931 1_565 S
H1032 C1017 0.931 . S
H1033 C1018 0.931 . S
H1034 C1039 0.931 . S
H1035 C1014 0.929 . S
H1036 C1047 0.930 1_565 S
N1037 Eu1008 2.600 . S
N1037 C1038 1.365 . S
N1037 C1041 1.319 . S
C1038 N1037 1.365 . S
C1038 C1040 1.405 . S
C1038 C1046 1.448 . S
C1039 H1034 0.931 . S
C1039 C1041 1.397 . S
C1039 C1042 1.367 . S
C1040 C1038 1.405 . S
C1040 C1042 1.403 . S
C1040 C1073 1.439 . S
C1041 H1026 0.930 . S
C1041 N1037 1.319 . S
C1041 C1039 1.397 . S
C1042 C1039 1.367 . S
C1042 C1040 1.403 . S
C1042 H1049 0.929 . S
N1043 Eu1008 2.562 . S
N1043 C1044 1.325 . S
N1043 C1046 1.351 . S
C1044 H1030 0.929 . S
C1044 N1043 1.325 . S
C1044 C1048 1.416 1_545 S
C1045 C1046 1.430 . S
C1045 C1047 1.405 . S
C1045 C1074 1.387 . S
C1046 C1038 1.448 . S
C1046 N1043 1.351 . S
C1046 C1045 1.430 . S
C1047 H1036 0.930 1_545 S
C1047 C1045 1.405 . S
C1047 C1048 1.366 1_545 S
C1048 H1027 0.930 . S
C1048 C1044 1.416 1_565 S
C1048 C1047 1.366 1_565 S
H1049 C1042 0.929 . S
H1050 C1073 0.931 . S
H1051 C1074 0.931 . S
O1052 Eu1008 2.462 . S
O1052 C1072 1.252 . S
O1053 Eu1008 2.373 . S
O1053 C1064 1.249 . S
O1054 Eu1019 2.335 . S
O1054 C1064 1.264 . S
O1055 Eu1008 2.432 . S
O1055 C1072 1.268 . S
O1056 Eu1008 2.291 . S
O1056 C1071 1.255 . S
O1057 Eu1019 2.372 . S
O1057 C1071 1.257 . S
O1058 Eu1019 2.462 . S
O1058 C1083 1.252 . S
O1059 Eu1019 2.373 . S
O1059 C1075 1.249 . S
O1060 Eu1008 2.335 . S
O1060 C1075 1.264 . S
O1061 Eu1019 2.432 . S
O1061 C1083 1.268 . S
O1062 Eu1019 2.291 . S
O1062 C1082 1.255 . S
O1063 Eu1008 2.372 . S
O1063 C1082 1.257 . S
C1064 O1053 1.249 . S
C1064 O1054 1.264 . S
C1065 C1068 1.382 . S
C1065 C1070 1.390 . S
C1065 C1072 1.506 . S
C1066 C1067 1.398 . S
C1066 C1070 1.392 . S
C1067 C1066 1.398 . S
C1067 C1069 1.372 . S
C1067 H1084 0.931 . S
C1068 C1065 1.382 . S
C1068 C1069 1.390 . S
C1068 H1085 0.931 . S
C1069 C1067 1.372 . S
C1069 C1068 1.390 . S
C1069 H1086 0.929 . S
C1070 C1065 1.390 . S
C1070 C1066 1.392 . S
C1070 H1087 0.930 . S
C1071 O1056 1.255 . S
C1071 O1057 1.257 . S
C1072 Eu1008 2.787 . S
C1072 O1052 1.252 . S
C1072 O1055 1.268 . S
C1072 C1065 1.506 . S
C1073 C1040 1.439 . S
C1073 H1050 0.931 . S
C1073 C1074 1.374 . S
C1074 C1045 1.387 . S
C1074 H1051 0.931 . S
C1074 C1073 1.374 . S
C1075 O1059 1.249 . S
C1075 O1060 1.264 . S
C1076 C1079 1.382 . S
C1076 C1080 1.390 . S
C1076 C1083 1.506 1_455 S
C1077 C1078 1.398 . S
C1077 C1080 1.392 . S
C1078 C1077 1.398 . S
C1078 C1081 1.372 . S
C1078 H1088 0.931 . S
C1079 C1076 1.382 . S
C1079 C1081 1.390 . S
C1079 H1089 0.931 . S
C1080 C1076 1.390 . S
C1080 C1077 1.392 . S
C1080 H1090 0.930 . S
C1081 C1078 1.372 . S
C1081 C1079 1.390 . S
C1081 H1091 0.929 . S
C1082 O1062 1.255 . S
C1082 O1063 1.257 . S
C1083 Eu1019 2.787 . S
C1083 O1058 1.252 . S
C1083 O1061 1.268 . S
C1083 C1076 1.506 1_655 S
H1084 C1067 0.931 . S
H1085 C1068 0.931 . S
H1086 C1069 0.929 . S
H1087 C1070 0.930 . S
H1088 C1078 0.931 . S
H1089 C1079 0.931 . S
H1090 C1080 0.930 . S
H1091 C1081 0.929 . S
Eu1092 N1121 2.600 . S
Eu1092 N1127 2.562 . S
Eu1092 O1136 2.462 . S
Eu1092 O1137 2.373 . S
Eu1092 O1139 2.432 . S
Eu1092 O1140 2.291 . S
Eu1092 O1144 2.335 . S
Eu1092 O1147 2.372 . S
Eu1092 C1156 2.787 1_545 S
C1093 N1094 1.365 . S
C1093 C1096 1.405 . S
C1093 C1100 1.448 . S
N1094 C1093 1.365 . S
N1094 C1097 1.319 . S
N1094 Eu1103 2.600 . S
C1095 C1097 1.397 . S
C1095 C1098 1.367 . S
C1095 H1115 0.931 . S
C1096 C1093 1.405 . S
C1096 C1098 1.403 . S
C1096 C1102 1.439 . S
C1097 N1094 1.319 . S
C1097 C1095 1.397 . S
C1097 H1108 0.930 . S
C1098 C1095 1.367 . S
C1098 C1096 1.403 . S
C1098 H1119 0.929 . S
C1099 C1100 1.430 . S
C1099 C1101 1.387 . S
C1099 C1105 1.404 . S
C1100 C1093 1.448 . S
C1100 C1099 1.430 . S
C1100 N1104 1.351 . S
C1101 C1099 1.387 . S
C1101 C1102 1.374 . S
C1101 H1116 0.931 . S
C1102 C1096 1.439 . S
C1102 C1101 1.374 . S
C1102 H1117 0.931 . S
Eu1103 N1094 2.600 . S
Eu1103 N1104 2.562 . S
Eu1103 O1138 2.335 . S
Eu1103 O1141 2.372 . S
Eu1103 O1142 2.462 . S
Eu1103 O1143 2.373 . S
Eu1103 O1145 2.432 . S
Eu1103 O1146 2.291 . S
Eu1103 C1167 2.787 . S
N1104 C1100 1.351 . S
N1104 Eu1103 2.562 . S
N1104 C1106 1.325 . S
C1105 C1099 1.404 . S
C1105 C1107 1.366 . S
C1105 H1113 0.930 . S
C1106 N1104 1.325 . S
C1106 C1107 1.416 . S
C1106 H1112 0.929 . S
C1107 C1105 1.366 . S
C1107 C1106 1.416 . S
C1107 H1109 0.930 . S
H1108 C1097 0.930 . S
H1109 C1107 0.930 . S
H1110 C1125 0.930 . S
H1111 C1132 0.930 . S
H1112 C1106 0.929 . S
H1113 C1105 0.930 . S
H1114 C1128 0.929 . S
H1115 C1095 0.931 . S
H1116 C1101 0.931 . S
H1117 C1102 0.931 . S
H1118 C1123 0.931 . S
H1119 C1098 0.929 . S
H1120 C1131 0.930 . S
N1121 Eu1092 2.600 . S
N1121 C1122 1.365 1_545 S
N1121 C1125 1.319 . S
C1122 N1121 1.365 1_565 S
C1122 C1124 1.405 . S
C1122 C1130 1.448 . S
C1123 H1118 0.931 . S
C1123 C1125 1.397 1_565 S
C1123 C1126 1.367 . S
C1124 C1122 1.405 . S
C1124 C1126 1.403 . S
C1124 C1157 1.439 . S
C1125 H1110 0.930 . S
C1125 N1121 1.319 . S
C1125 C1123 1.397 1_545 S
C1126 C1123 1.367 . S
C1126 C1124 1.403 . S
C1126 H1133 0.929 . S
N1127 Eu1092 2.562 . S
N1127 C1128 1.325 . S
N1127 C1130 1.351 1_545 S
C1128 H1114 0.929 . S
C1128 N1127 1.325 . S
C1128 C1132 1.416 1_545 S
C1129 C1130 1.430 . S
C1129 C1131 1.404 . S
C1129 C1158 1.387 . S
C1130 C1122 1.448 . S
C1130 N1127 1.351 1_565 S
C1130 C1129 1.430 . S
C1131 H1120 0.930 . S
C1131 C1129 1.404 . S
C1131 C1132 1.366 . S
C1132 H1111 0.930 . S
C1132 C1128 1.416 1_565 S
C1132 C1131 1.366 . S
H1133 C1126 0.929 . S
H1134 C1157 0.931 . S
H1135 C1158 0.931 . S
O1136 Eu1092 2.462 . S
O1136 C1156 1.252 1_545 S
O1137 Eu1092 2.373 . S
O1137 C1148 1.249 . S
O1138 Eu1103 2.335 . S
O1138 C1148 1.264 . S
O1139 Eu1092 2.432 . S
O1139 C1156 1.268 1_545 S
O1140 Eu1092 2.291 . S
O1140 C1155 1.255 . S
O1141 Eu1103 2.372 . S
O1141 C1155 1.257 . S
O1142 Eu1103 2.462 . S
O1142 C1167 1.252 . S
O1143 Eu1103 2.373 . S
O1143 C1159 1.249 . S
O1144 Eu1092 2.335 . S
O1144 C1159 1.264 . S
O1145 Eu1103 2.432 . S
O1145 C1167 1.268 . S
O1146 Eu1103 2.291 . S
O1146 C1166 1.255 . S
O1147 Eu1092 2.372 . S
O1147 C1166 1.257 . S
C1148 O1137 1.249 . S
C1148 O1138 1.264 . S
C1149 C1152 1.382 . S
C1149 C1154 1.390 . S
C1149 C1156 1.506 . S
C1150 C1151 1.398 . S
C1150 C1154 1.392 . S
C1151 C1150 1.398 . S
C1151 C1153 1.372 . S
C1151 H1168 0.931 . S
C1152 C1149 1.382 . S
C1152 C1153 1.390 . S
C1152 H1169 0.931 . S
C1153 C1151 1.372 . S
C1153 C1152 1.390 . S
C1153 H1170 0.929 . S
C1154 C1149 1.390 . S
C1154 C1150 1.392 . S
C1154 H1171 0.930 . S
C1155 O1140 1.255 . S
C1155 O1141 1.257 . S
C1156 Eu1092 2.787 1_565 S
C1156 O1136 1.252 1_565 S
C1156 O1139 1.268 1_565 S
C1156 C1149 1.506 . S
C1157 C1124 1.439 . S
C1157 H1134 0.931 . S
C1157 C1158 1.374 . S
C1158 C1129 1.387 . S
C1158 H1135 0.931 . S
C1158 C1157 1.374 . S
C1159 O1143 1.249 . S
C1159 O1144 1.264 . S
C1160 C1163 1.382 . S
C1160 C1164 1.390 . S
C1160 C1167 1.506 . S
C1161 C1162 1.398 . S
C1161 C1164 1.392 . S
C1162 C1161 1.398 . S
C1162 C1165 1.372 . S
C1162 H1172 0.931 . S
C1163 C1160 1.382 . S
C1163 C1165 1.390 . S
C1163 H1173 0.931 . S
C1164 C1160 1.390 . S
C1164 C1161 1.392 . S
C1164 H1174 0.930 . S
C1165 C1162 1.372 . S
C1165 C1163 1.390 . S
C1165 H1175 0.929 . S
C1166 O1146 1.255 . S
C1166 O1147 1.257 . S
C1167 Eu1103 2.787 . S
C1167 O1142 1.252 . S
C1167 O1145 1.268 . S
C1167 C1160 1.506 . S
H1168 C1151 0.931 . S
H1169 C1152 0.931 . S
H1170 C1153 0.929 . S
H1171 C1154 0.930 . S
H1172 C1162 0.931 . S
H1173 C1163 0.931 . S
H1174 C1164 0.930 . S
H1175 C1165 0.929 . S
Eu1176 N1205 2.600 . S
Eu1176 N1211 2.562 . S
Eu1176 O1220 2.462 . S
Eu1176 O1221 2.373 . S
Eu1176 O1223 2.432 . S
Eu1176 O1224 2.291 . S
Eu1176 O1228 2.335 . S
Eu1176 O1231 2.372 . S
Eu1176 C1240 2.787 . S
C1177 N1178 1.365 . S
C1177 C1180 1.405 . S
C1177 C1184 1.448 . S
N1178 C1177 1.365 . S
N1178 C1181 1.319 . S
N1178 Eu1187 2.600 . S
C1179 C1181 1.397 . S
C1179 C1182 1.367 . S
C1179 H1199 0.931 1_565 S
C1180 C1177 1.405 . S
C1180 C1182 1.403 . S
C1180 C1186 1.439 . S
C1181 N1178 1.319 . S
C1181 C1179 1.397 . S
C1181 H1192 0.930 . S
C1182 C1179 1.367 . S
C1182 C1180 1.403 . S
C1182 H1203 0.929 . S
C1183 C1184 1.430 . S
C1183 C1185 1.387 . S
C1183 C1189 1.404 . S
C1184 C1177 1.448 . S
C1184 C1183 1.430 . S
C1184 N1188 1.351 . S
C1185 C1183 1.387 . S
C1185 C1186 1.374 . S
C1185 H1200 0.931 . S
C1186 C1180 1.439 . S
C1186 C1185 1.374 . S
C1186 H1201 0.931 . S
Eu1187 N1178 2.600 . S
Eu1187 N1188 2.562 . S
Eu1187 O1222 2.335 . S
Eu1187 O1225 2.372 . S
Eu1187 O1226 2.462 . S
Eu1187 O1227 2.373 . S
Eu1187 O1229 2.432 . S
Eu1187 O1230 2.291 . S
Eu1187 C1251 2.787 . S
N1188 C1184 1.351 . S
N1188 Eu1187 2.562 . S
N1188 C1190 1.325 . S
C1189 C1183 1.404 . S
C1189 C1191 1.366 . S
C1189 H1197 0.930 . S
C1190 N1188 1.325 . S
C1190 C1191 1.416 . S
C1190 H1196 0.929 . S
C1191 C1189 1.366 . S
C1191 C1190 1.416 . S
C1191 H1193 0.930 . S
H1192 C1181 0.930 . S
H1193 C1191 0.930 . S
H1194 C1209 0.930 . S
H1195 C1216 0.930 . S
H1196 C1190 0.929 . S
H1197 C1189 0.930 . S
H1198 C1212 0.929 . S
H1199 C1179 0.931 1_545 S
H1200 C1185 0.931 . S
H1201 C1186 0.931 . S
H1202 C1207 0.931 . S
H1203 C1182 0.929 . S
H1204 C1215 0.930 1_545 S
N1205 Eu1176 2.600 . S
N1205 C1206 1.365 . S
N1205 C1209 1.319 . S
C1206 N1205 1.365 . S
C1206 C1208 1.405 . S
C1206 C1214 1.448 . S
C1207 H1202 0.931 . S
C1207 C1209 1.397 . S
C1207 C1210 1.367 . S
C1208 C1206 1.405 . S
C1208 C1210 1.403 . S
C1208 C1241 1.439 . S
C1209 H1194 0.930 . S
C1209 N1205 1.319 . S
C1209 C1207 1.397 . S
C1210 C1207 1.367 . S
C1210 C1208 1.403 . S
C1210 H1217 0.929 . S
N1211 Eu1176 2.562 . S
N1211 C1212 1.325 . S
N1211 C1214 1.351 . S
C1212 H1198 0.929 . S
C1212 N1211 1.325 . S
C1212 C1216 1.416 1_565 S
C1213 C1214 1.430 . S
C1213 C1215 1.405 . S
C1213 C1242 1.387 . S
C1214 C1206 1.448 . S
C1214 N1211 1.351 . S
C1214 C1213 1.430 . S
C1215 H1204 0.930 1_565 S
C1215 C1213 1.405 . S
C1215 C1216 1.366 1_565 S
C1216 H1195 0.930 . S
C1216 C1212 1.416 1_545 S
C1216 C1215 1.366 1_545 S
H1217 C1210 0.929 . S
H1218 C1241 0.931 . S
H1219 C1242 0.931 . S
O1220 Eu1176 2.462 . S
O1220 C1240 1.252 . S
O1221 Eu1176 2.373 . S
O1221 C1232 1.249 . S
O1222 Eu1187 2.335 . S
O1222 C1232 1.264 . S
O1223 Eu1176 2.432 . S
O1223 C1240 1.268 . S
O1224 Eu1176 2.291 . S
O1224 C1239 1.255 . S
O1225 Eu1187 2.372 . S
O1225 C1239 1.257 . S
O1226 Eu1187 2.462 . S
O1226 C1251 1.252 . S
O1227 Eu1187 2.373 . S
O1227 C1243 1.249 . S
O1228 Eu1176 2.335 . S
O1228 C1243 1.264 . S
O1229 Eu1187 2.432 . S
O1229 C1251 1.268 . S
O1230 Eu1187 2.291 . S
O1230 C1250 1.255 . S
O1231 Eu1176 2.372 . S
O1231 C1250 1.257 . S
C1232 O1221 1.249 . S
C1232 O1222 1.264 . S
C1233 C1236 1.382 . S
C1233 C1238 1.390 . S
C1233 C1240 1.506 . S
C1234 C1235 1.398 . S
C1234 C1238 1.392 . S
C1235 C1234 1.398 . S
C1235 C1237 1.372 . S
C1235 H1252 0.931 . S
C1236 C1233 1.382 . S
C1236 C1237 1.390 . S
C1236 H1253 0.931 . S
C1237 C1235 1.372 . S
C1237 C1236 1.390 . S
C1237 H1254 0.929 . S
C1238 C1233 1.390 . S
C1238 C1234 1.392 . S
C1238 H1255 0.930 . S
C1239 O1224 1.255 . S
C1239 O1225 1.257 . S
C1240 Eu1176 2.787 . S
C1240 O1220 1.252 . S
C1240 O1223 1.268 . S
C1240 C1233 1.506 . S
C1241 C1208 1.439 . S
C1241 H1218 0.931 . S
C1241 C1242 1.374 . S
C1242 C1213 1.387 . S
C1242 H1219 0.931 . S
C1242 C1241 1.374 . S
C1243 O1227 1.249 . S
C1243 O1228 1.264 . S
C1244 C1247 1.382 . S
C1244 C1248 1.390 . S
C1244 C1251 1.506 . S
C1245 C1246 1.398 . S
C1245 C1248 1.392 . S
C1246 C1245 1.398 . S
C1246 C1249 1.372 . S
C1246 H1256 0.931 . S
C1247 C1244 1.382 . S
C1247 C1249 1.390 . S
C1247 H1257 0.931 . S
C1248 C1244 1.390 . S
C1248 C1245 1.392 . S
C1248 H1258 0.930 . S
C1249 C1246 1.372 . S
C1249 C1247 1.390 . S
C1249 H1259 0.929 . S
C1250 O1230 1.255 . S
C1250 O1231 1.257 . S
C1251 Eu1187 2.787 . S
C1251 O1226 1.252 . S
C1251 O1229 1.268 . S
C1251 C1244 1.506 . S
H1252 C1235 0.931 . S
H1253 C1236 0.931 . S
H1254 C1237 0.929 . S
H1255 C1238 0.930 . S
H1256 C1246 0.931 . S
H1257 C1247 0.931 . S
H1258 C1248 0.930 . S
H1259 C1249 0.929 . S
Eu1260 N1289 2.600 . S
Eu1260 N1295 2.562 . S
Eu1260 O1304 2.462 1_554 S
Eu1260 O1305 2.373 . S
Eu1260 O1307 2.432 1_554 S
Eu1260 O1308 2.291 1_554 S
Eu1260 O1312 2.335 1_554 S
Eu1260 O1315 2.372 . S
Eu1260 C1324 2.787 1_564 S
C1261 N1262 1.365 . S
C1261 C1264 1.405 . S
C1261 C1268 1.448 . S
N1262 C1261 1.365 . S
N1262 C1265 1.319 . S
N1262 Eu1271 2.600 1_556 S
C1263 C1265 1.397 . S
C1263 C1266 1.367 . S
C1263 H1283 0.931 . S
C1264 C1261 1.405 . S
C1264 C1266 1.403 . S
C1264 C1270 1.439 . S
C1265 N1262 1.319 . S
C1265 C1263 1.397 . S
C1265 H1276 0.930 . S
C1266 C1263 1.367 . S
C1266 C1264 1.403 . S
C1266 H1287 0.929 . S
C1267 C1268 1.430 . S
C1267 C1269 1.387 . S
C1267 C1273 1.404 . S
C1268 C1261 1.448 . S
C1268 C1267 1.430 . S
C1268 N1272 1.351 . S
C1269 C1267 1.387 . S
C1269 C1270 1.374 . S
C1269 H1284 0.931 . S
C1270 C1264 1.439 . S
C1270 C1269 1.374 . S
C1270 H1285 0.931 . S
Eu1271 N1262 2.600 1_554 S
Eu1271 N1272 2.562 1_554 S
Eu1271 O1306 2.335 . S
Eu1271 O1309 2.372 1_554 S
Eu1271 O1310 2.462 . S
Eu1271 O1311 2.373 1_554 S
Eu1271 O1313 2.432 . S
Eu1271 O1314 2.291 . S
Eu1271 C1335 2.787 . S
N1272 C1268 1.351 . S
N1272 Eu1271 2.562 1_556 S
N1272 C1274 1.325 . S
C1273 C1267 1.404 . S
C1273 C1275 1.366 . S
C1273 H1281 0.930 . S
C1274 N1272 1.325 . S
C1274 C1275 1.416 . S
C1274 H1280 0.929 1_556 S
C1275 C1273 1.366 . S
C1275 C1274 1.416 . S
C1275 H1277 0.930 . S
H1276 C1265 0.930 . S
H1277 C1275 0.930 . S
H1278 C1293 0.930 . S
H1279 C1300 0.930 . S
H1280 C1274 0.929 1_554 S
H1281 C1273 0.930 . S
H1282 C1296 0.929 . S
H1283 C1263 0.931 . S
H1284 C1269 0.931 . S
H1285 C1270 0.931 . S
H1286 C1291 0.931 . S
H1287 C1266 0.929 . S
H1288 C1299 0.930 . S
N1289 Eu1260 2.600 . S
N1289 C1290 1.365 1_565 S
N1289 C1293 1.319 . S
C1290 N1289 1.365 1_545 S
C1290 C1292 1.405 . S
C1290 C1298 1.448 . S
C1291 H1286 0.931 . S
C1291 C1293 1.397 1_545 S
C1291 C1294 1.367 . S
C1292 C1290 1.405 . S
C1292 C1294 1.403 . S
C1292 C1325 1.439 . S
C1293 H1278 0.930 . S
C1293 N1289 1.319 . S
C1293 C1291 1.397 1_565 S
C1294 C1291 1.367 . S
C1294 C1292 1.403 . S
C1294 H1301 0.929 . S
N1295 Eu1260 2.562 . S
N1295 C1296 1.325 . S
N1295 C1298 1.351 1_565 S
C1296 H1282 0.929 . S
C1296 N1295 1.325 . S
C1296 C1300 1.416 1_565 S
C1297 C1298 1.430 . S
C1297 C1299 1.404 . S
C1297 C1326 1.387 . S
C1298 C1290 1.448 . S
C1298 N1295 1.351 1_545 S
C1298 C1297 1.430 . S
C1299 H1288 0.930 . S
C1299 C1297 1.404 . S
C1299 C1300 1.366 . S
C1300 H1279 0.930 . S
C1300 C1296 1.416 1_545 S
C1300 C1299 1.366 . S
H1301 C1294 0.929 . S
H1302 C1325 0.931 . S
H1303 C1326 0.931 . S
O1304 Eu1260 2.462 1_556 S
O1304 C1324 1.252 1_565 S
O1305 Eu1260 2.373 . S
O1305 C1316 1.249 . S
O1306 Eu1271 2.335 . S
O1306 C1316 1.264 . S
O1307 Eu1260 2.432 1_556 S
O1307 C1324 1.268 1_565 S
O1308 Eu1260 2.291 1_556 S
O1308 C1323 1.255 . S
O1309 Eu1271 2.372 1_556 S
O1309 C1323 1.257 . S
O1310 Eu1271 2.462 . S
O1310 C1335 1.252 . S
O1311 Eu1271 2.373 1_556 S
O1311 C1327 1.249 . S
O1312 Eu1260 2.335 1_556 S
O1312 C1327 1.264 . S
O1313 Eu1271 2.432 . S
O1313 C1335 1.268 . S
O1314 Eu1271 2.291 . S
O1314 C1334 1.255 . S
O1315 Eu1260 2.372 . S
O1315 C1334 1.257 . S
C1316 O1305 1.249 . S
C1316 O1306 1.264 . S
C1317 C1320 1.382 . S
C1317 C1322 1.390 . S
C1317 C1324 1.506 . S
C1318 C1319 1.398 . S
C1318 C1322 1.392 . S
C1319 C1318 1.398 . S
C1319 C1321 1.372 . S
C1319 H1336 0.931 . S
C1320 C1317 1.382 . S
C1320 C1321 1.390 . S
C1320 H1337 0.931 . S
C1321 C1319 1.372 . S
C1321 C1320 1.390 . S
C1321 H1338 0.929 . S
C1322 C1317 1.390 . S
C1322 C1318 1.392 . S
C1322 H1339 0.930 . S
C1323 O1308 1.255 . S
C1323 O1309 1.257 . S
C1324 Eu1260 2.787 1_546 S
C1324 O1304 1.252 1_545 S
C1324 O1307 1.268 1_545 S
C1324 C1317 1.506 . S
C1325 C1292 1.439 . S
C1325 H1302 0.931 . S
C1325 C1326 1.374 . S
C1326 C1297 1.387 . S
C1326 H1303 0.931 . S
C1326 C1325 1.374 . S
C1327 O1311 1.249 . S
C1327 O1312 1.264 . S
C1328 C1331 1.382 . S
C1328 C1332 1.390 . S
C1328 C1335 1.506 . S
C1329 C1330 1.398 . S
C1329 C1332 1.392 . S
C1330 C1329 1.398 . S
C1330 C1333 1.372 . S
C1330 H1340 0.931 . S
C1331 C1328 1.382 . S
C1331 C1333 1.390 . S
C1331 H1341 0.931 . S
C1332 C1328 1.390 . S
C1332 C1329 1.392 . S
C1332 H1342 0.930 . S
C1333 C1330 1.372 . S
C1333 C1331 1.390 . S
C1333 H1343 0.929 . S
C1334 O1314 1.255 . S
C1334 O1315 1.257 . S
C1335 Eu1271 2.787 . S
C1335 O1310 1.252 . S
C1335 O1313 1.268 . S
C1335 C1328 1.506 . S
H1336 C1319 0.931 . S
H1337 C1320 0.931 . S
H1338 C1321 0.929 . S
H1339 C1322 0.930 . S
H1340 C1330 0.931 . S
H1341 C1331 0.931 . S
H1342 C1332 0.930 . S
H1343 C1333 0.929 . S
Eu1344 N1373 2.600 . S
Eu1344 N1379 2.562 . S
Eu1344 O1388 2.462 . S
Eu1344 O1389 2.373 . S
Eu1344 O1391 2.432 . S
Eu1344 O1392 2.291 . S
Eu1344 O1396 2.335 . S
Eu1344 O1399 2.372 . S
Eu1344 C1408 2.787 . S
C1345 N1346 1.365 . S
C1345 C1348 1.405 . S
C1345 C1352 1.448 . S
N1346 C1345 1.365 . S
N1346 C1349 1.319 . S
N1346 Eu1355 2.600 . S
C1347 C1349 1.397 . S
C1347 C1350 1.367 . S
C1347 H1367 0.931 . S
C1348 C1345 1.405 . S
C1348 C1350 1.403 . S
C1348 C1354 1.439 . S
C1349 N1346 1.319 . S
C1349 C1347 1.397 . S
C1349 H1360 0.930 . S
C1350 C1347 1.367 . S
C1350 C1348 1.403 . S
C1350 H1371 0.929 . S
C1351 C1352 1.430 . S
C1351 C1353 1.387 . S
C1351 C1357 1.404 . S
C1352 C1345 1.448 . S
C1352 C1351 1.430 . S
C1352 N1356 1.351 . S
C1353 C1351 1.387 . S
C1353 C1354 1.374 . S
C1353 H1368 0.931 . S
C1354 C1348 1.439 . S
C1354 C1353 1.374 . S
C1354 H1369 0.931 . S
Eu1355 N1346 2.600 . S
Eu1355 N1356 2.562 . S
Eu1355 O1390 2.335 . S
Eu1355 O1393 2.372 . S
Eu1355 O1394 2.462 . S
Eu1355 O1395 2.373 . S
Eu1355 O1397 2.432 . S
Eu1355 O1398 2.291 . S
Eu1355 C1419 2.787 . S
N1356 C1352 1.351 . S
N1356 Eu1355 2.562 . S
N1356 C1358 1.325 . S
C1357 C1351 1.404 . S
C1357 C1359 1.366 . S
C1357 H1365 0.930 . S
C1358 N1356 1.325 . S
C1358 C1359 1.416 . S
C1358 H1364 0.929 . S
C1359 C1357 1.366 . S
C1359 C1358 1.416 . S
C1359 H1361 0.930 . S
H1360 C1349 0.930 . S
H1361 C1359 0.930 . S
H1362 C1377 0.930 . S
H1363 C1384 0.930 . S
H1364 C1358 0.929 . S
H1365 C1357 0.930 . S
H1366 C1380 0.929 . S
H1367 C1347 0.931 . S
H1368 C1353 0.931 . S
H1369 C1354 0.931 . S
H1370 C1375 0.931 . S
H1371 C1350 0.929 . S
H1372 C1383 0.930 . S
N1373 Eu1344 2.600 . S
N1373 C1374 1.365 . S
N1373 C1377 1.319 . S
C1374 N1373 1.365 . S
C1374 C1376 1.405 . S
C1374 C1382 1.448 . S
C1375 H1370 0.931 . S
C1375 C1377 1.397 . S
C1375 C1378 1.367 . S
C1376 C1374 1.405 . S
C1376 C1378 1.403 . S
C1376 C1409 1.439 . S
C1377 H1362 0.930 . S
C1377 N1373 1.319 . S
C1377 C1375 1.397 . S
C1378 C1375 1.367 . S
C1378 C1376 1.403 . S
C1378 H1385 0.929 . S
N1379 Eu1344 2.562 . S
N1379 C1380 1.325 . S
N1379 C1382 1.351 . S
C1380 H1366 0.929 . S
C1380 N1379 1.325 . S
C1380 C1384 1.416 . S
C1381 C1382 1.430 . S
C1381 C1383 1.404 . S
C1381 C1410 1.387 . S
C1382 C1374 1.448 . S
C1382 N1379 1.351 . S
C1382 C1381 1.430 . S
C1383 H1372 0.930 . S
C1383 C1381 1.404 . S
C1383 C1384 1.366 . S
C1384 H1363 0.930 . S
C1384 C1380 1.416 . S
C1384 C1383 1.366 . S
H1385 C1378 0.929 . S
H1386 C1409 0.931 . S
H1387 C1410 0.931 . S
O1388 Eu1344 2.462 . S
O1388 C1408 1.252 . S
O1389 Eu1344 2.373 . S
O1389 C1400 1.249 . S
O1390 Eu1355 2.335 . S
O1390 C1400 1.264 . S
O1391 Eu1344 2.432 . S
O1391 C1408 1.268 . S
O1392 Eu1344 2.291 . S
O1392 C1407 1.255 . S
O1393 Eu1355 2.372 . S
O1393 C1407 1.257 . S
O1394 Eu1355 2.462 . S
O1394 C1419 1.252 . S
O1395 Eu1355 2.373 . S
O1395 C1411 1.249 . S
O1396 Eu1344 2.335 . S
O1396 C1411 1.264 . S
O1397 Eu1355 2.432 . S
O1397 C1419 1.268 . S
O1398 Eu1355 2.291 . S
O1398 C1418 1.255 . S
O1399 Eu1344 2.372 . S
O1399 C1418 1.257 . S
C1400 O1389 1.249 . S
C1400 O1390 1.264 . S
C1401 C1404 1.382 . S
C1401 C1406 1.390 . S
C1401 C1408 1.506 . S
C1402 C1403 1.398 . S
C1402 C1406 1.392 . S
C1403 C1402 1.398 . S
C1403 C1405 1.372 . S
C1403 H1420 0.931 . S
C1404 C1401 1.382 . S
C1404 C1405 1.390 . S
C1404 H1421 0.931 . S
C1405 C1403 1.372 . S
C1405 C1404 1.390 . S
C1405 H1422 0.929 . S
C1406 C1401 1.390 . S
C1406 C1402 1.392 . S
C1406 H1423 0.930 . S
C1407 O1392 1.255 . S
C1407 O1393 1.257 . S
C1408 Eu1344 2.787 . S
C1408 O1388 1.252 . S
C1408 O1391 1.268 . S
C1408 C1401 1.506 . S
C1409 C1376 1.439 . S
C1409 H1386 0.931 . S
C1409 C1410 1.374 . S
C1410 C1381 1.387 . S
C1410 H1387 0.931 . S
C1410 C1409 1.374 . S
C1411 O1395 1.249 . S
C1411 O1396 1.264 . S
C1412 C1415 1.382 . S
C1412 C1416 1.390 . S
C1412 C1419 1.506 . S
C1413 C1414 1.398 . S
C1413 C1416 1.392 . S
C1414 C1413 1.398 . S
C1414 C1417 1.372 . S
C1414 H1424 0.931 . S
C1415 C1412 1.382 . S
C1415 C1417 1.390 . S
C1415 H1425 0.931 . S
C1416 C1412 1.390 . S
C1416 C1413 1.392 . S
C1416 H1426 0.930 . S
C1417 C1414 1.372 . S
C1417 C1415 1.390 . S
C1417 H1427 0.929 . S
C1418 O1398 1.255 . S
C1418 O1399 1.257 . S
C1419 Eu1355 2.787 . S
C1419 O1394 1.252 . S
C1419 O1397 1.268 . S
C1419 C1412 1.506 . S
H1420 C1403 0.931 . S
H1421 C1404 0.931 . S
H1422 C1405 0.929 . S
H1423 C1406 0.930 . S
H1424 C1414 0.931 . S
H1425 C1415 0.931 . S
H1426 C1416 0.930 . S
H1427 C1417 0.929 . S
Eu1428 N1457 2.600 1_554 S
Eu1428 N1463 2.562 1_554 S
Eu1428 O1472 2.462 . S
Eu1428 O1473 2.373 1_554 S
Eu1428 O1475 2.432 . S
Eu1428 O1476 2.291 . S
Eu1428 O1480 2.335 . S
Eu1428 O1483 2.372 1_554 S
Eu1428 C1492 2.787 . S
C1429 N1430 1.365 . S
C1429 C1432 1.405 . S
C1429 C1436 1.448 . S
N1430 C1429 1.365 . S
N1430 C1433 1.319 . S
N1430 Eu1439 2.600 . S
C1431 C1433 1.397 . S
C1431 C1434 1.367 . S
C1431 H1451 0.931 . S
C1432 C1429 1.405 . S
C1432 C1434 1.403 . S
C1432 C1438 1.439 . S
C1433 N1430 1.319 . S
C1433 C1431 1.397 . S
C1433 H1444 0.930 . S
C1434 C1431 1.367 . S
C1434 C1432 1.403 . S
C1434 H1455 0.929 . S
C1435 C1436 1.430 . S
C1435 C1437 1.387 . S
C1435 C1441 1.404 . S
C1436 C1429 1.448 . S
C1436 C1435 1.430 . S
C1436 N1440 1.351 . S
C1437 C1435 1.387 . S
C1437 C1438 1.374 . S
C1437 H1452 0.931 . S
C1438 C1432 1.439 . S
C1438 C1437 1.374 . S
C1438 H1453 0.931 . S
Eu1439 N1430 2.600 . S
Eu1439 N1440 2.562 . S
Eu1439 O1474 2.335 1_554 S
Eu1439 O1477 2.372 . S
Eu1439 O1478 2.462 1_554 S
Eu1439 O1479 2.373 . S
Eu1439 O1481 2.432 1_554 S
Eu1439 O1482 2.291 1_554 S
Eu1439 C1503 2.787 1_554 S
N1440 C1436 1.351 . S
N1440 Eu1439 2.562 . S
N1440 C1442 1.325 . S
C1441 C1435 1.404 . S
C1441 C1443 1.366 . S
C1441 H1449 0.930 . S
C1442 N1440 1.325 . S
C1442 C1443 1.416 . S
C1442 H1448 0.929 . S
C1443 C1441 1.366 . S
C1443 C1442 1.416 . S
C1443 H1445 0.930 . S
H1444 C1433 0.930 . S
H1445 C1443 0.930 . S
H1446 C1461 0.930 . S
H1447 C1468 0.930 . S
H1448 C1442 0.929 . S
H1449 C1441 0.930 . S
H1450 C1464 0.929 1_554 S
H1451 C1431 0.931 . S
H1452 C1437 0.931 . S
H1453 C1438 0.931 . S
H1454 C1459 0.931 . S
H1455 C1434 0.929 . S
H1456 C1467 0.930 . S
N1457 Eu1428 2.600 1_556 S
N1457 C1458 1.365 . S
N1457 C1461 1.319 . S
C1458 N1457 1.365 . S
C1458 C1460 1.405 . S
C1458 C1466 1.448 . S
C1459 H1454 0.931 . S
C1459 C1461 1.397 . S
C1459 C1462 1.367 . S
C1460 C1458 1.405 . S
C1460 C1462 1.403 . S
C1460 C1493 1.439 . S
C1461 H1446 0.930 . S
C1461 N1457 1.319 . S
C1461 C1459 1.397 . S
C1462 C1459 1.367 . S
C1462 C1460 1.403 . S
C1462 H1469 0.929 . S
N1463 Eu1428 2.562 1_556 S
N1463 C1464 1.325 . S
N1463 C1466 1.351 . S
C1464 H1450 0.929 1_556 S
C1464 N1463 1.325 . S
C1464 C1468 1.416 . S
C1465 C1466 1.430 . S
C1465 C1467 1.404 . S
C1465 C1494 1.387 . S
C1466 C1458 1.448 . S
C1466 N1463 1.351 . S
C1466 C1465 1.430 . S
C1467 H1456 0.930 . S
C1467 C1465 1.404 . S
C1467 C1468 1.366 . S
C1468 H1447 0.930 . S
C1468 C1464 1.416 . S
C1468 C1467 1.366 . S
H1469 C1462 0.929 . S
H1470 C1493 0.931 . S
H1471 C1494 0.931 . S
O1472 Eu1428 2.462 . S
O1472 C1492 1.252 . S
O1473 Eu1428 2.373 1_556 S
O1473 C1484 1.249 . S
O1474 Eu1439 2.335 1_556 S
O1474 C1484 1.264 . S
O1475 Eu1428 2.432 . S
O1475 C1492 1.268 . S
O1476 Eu1428 2.291 . S
O1476 C1491 1.255 . S
O1477 Eu1439 2.372 . S
O1477 C1491 1.257 . S
O1478 Eu1439 2.462 1_556 S
O1478 C1503 1.252 . S
O1479 Eu1439 2.373 . S
O1479 C1495 1.249 . S
O1480 Eu1428 2.335 . S
O1480 C1495 1.264 . S
O1481 Eu1439 2.432 1_556 S
O1481 C1503 1.268 . S
O1482 Eu1439 2.291 1_556 S
O1482 C1502 1.255 . S
O1483 Eu1428 2.372 1_556 S
O1483 C1502 1.257 . S
C1484 O1473 1.249 . S
C1484 O1474 1.264 . S
C1485 C1488 1.382 . S
C1485 C1490 1.390 . S
C1485 C1492 1.506 . S
C1486 C1487 1.398 . S
C1486 C1490 1.392 . S
C1487 C1486 1.398 . S
C1487 C1489 1.372 . S
C1487 H1504 0.931 . S
C1488 C1485 1.382 . S
C1488 C1489 1.390 . S
C1488 H1505 0.931 . S
C1489 C1487 1.372 . S
C1489 C1488 1.390 . S
C1489 H1506 0.929 . S
C1490 C1485 1.390 . S
C1490 C1486 1.392 . S
C1490 H1507 0.930 . S
C1491 O1476 1.255 . S
C1491 O1477 1.257 . S
C1492 Eu1428 2.787 . S
C1492 O1472 1.252 . S
C1492 O1475 1.268 . S
C1492 C1485 1.506 . S
C1493 C1460 1.439 . S
C1493 H1470 0.931 . S
C1493 C1494 1.374 . S
C1494 C1465 1.387 . S
C1494 H1471 0.931 . S
C1494 C1493 1.374 . S
C1495 O1479 1.249 . S
C1495 O1480 1.264 . S
C1496 C1499 1.382 . S
C1496 C1500 1.390 . S
C1496 C1503 1.506 . S
C1497 C1498 1.398 . S
C1497 C1500 1.392 . S
C1498 C1497 1.398 . S
C1498 C1501 1.372 . S
C1498 H1508 0.931 . S
C1499 C1496 1.382 . S
C1499 C1501 1.390 . S
C1499 H1509 0.931 . S
C1500 C1496 1.390 . S
C1500 C1497 1.392 . S
C1500 H1510 0.930 . S
C1501 C1498 1.372 . S
C1501 C1499 1.390 . S
C1501 H1511 0.929 . S
C1502 O1482 1.255 . S
C1502 O1483 1.257 . S
C1503 Eu1439 2.787 1_556 S
C1503 O1478 1.252 . S
C1503 O1481 1.268 . S
C1503 C1496 1.506 . S
H1504 C1487 0.931 . S
H1505 C1488 0.931 . S
H1506 C1489 0.929 . S
H1507 C1490 0.930 . S
H1508 C1498 0.931 . S
H1509 C1499 0.931 . S
H1510 C1500 0.930 . S
H1511 C1501 0.929 . S
Eu1512 N1541 2.600 . S
Eu1512 N1547 2.562 . S
Eu1512 O1556 2.462 . S
Eu1512 O1557 2.373 . S
Eu1512 O1559 2.432 . S
Eu1512 O1560 2.291 . S
Eu1512 O1564 2.335 . S
Eu1512 O1567 2.372 . S
Eu1512 C1576 2.787 . S
C1513 N1514 1.365 . S
C1513 C1516 1.405 . S
C1513 C1520 1.448 . S
N1514 C1513 1.365 . S
N1514 C1517 1.319 . S
N1514 Eu1523 2.600 . S
C1515 C1517 1.397 . S
C1515 C1518 1.367 . S
C1515 H1535 0.931 . S
C1516 C1513 1.405 . S
C1516 C1518 1.403 . S
C1516 C1522 1.439 . S
C1517 N1514 1.319 . S
C1517 C1515 1.397 . S
C1517 H1528 0.930 . S
C1518 C1515 1.367 . S
C1518 C1516 1.403 . S
C1518 H1539 0.929 . S
C1519 C1520 1.430 . S
C1519 C1521 1.387 . S
C1519 C1525 1.404 . S
C1520 C1513 1.448 . S
C1520 C1519 1.430 . S
C1520 N1524 1.351 . S
C1521 C1519 1.387 . S
C1521 C1522 1.374 . S
C1521 H1536 0.931 . S
C1522 C1516 1.439 . S
C1522 C1521 1.374 . S
C1522 H1537 0.931 . S
Eu1523 N1514 2.600 . S
Eu1523 N1524 2.562 . S
Eu1523 O1558 2.335 . S
Eu1523 O1561 2.372 . S
Eu1523 O1562 2.462 . S
Eu1523 O1563 2.373 . S
Eu1523 O1565 2.432 . S
Eu1523 O1566 2.291 . S
Eu1523 C1587 2.787 . S
N1524 C1520 1.351 . S
N1524 Eu1523 2.562 . S
N1524 C1526 1.325 . S
C1525 C1519 1.404 . S
C1525 C1527 1.366 . S
C1525 H1533 0.930 . S
C1526 N1524 1.325 . S
C1526 C1527 1.416 . S
C1526 H1532 0.929 . S
C1527 C1525 1.366 . S
C1527 C1526 1.416 . S
C1527 H1529 0.930 . S
H1528 C1517 0.930 . S
H1529 C1527 0.930 . S
H1530 C1545 0.930 . S
H1531 C1552 0.930 . S
H1532 C1526 0.929 . S
H1533 C1525 0.930 . S
H1534 C1548 0.929 . S
H1535 C1515 0.931 . S
H1536 C1521 0.931 . S
H1537 C1522 0.931 . S
H1538 C1543 0.931 . S
H1539 C1518 0.929 . S
H1540 C1551 0.930 . S
N1541 Eu1512 2.600 . S
N1541 C1542 1.365 1_655 S
N1541 C1545 1.319 . S
C1542 N1541 1.365 1_455 S
C1542 C1544 1.405 . S
C1542 C1550 1.448 . S
C1543 H1538 0.931 . S
C1543 C1545 1.397 1_455 S
C1543 C1546 1.367 . S
C1544 C1542 1.405 . S
C1544 C1546 1.403 . S
C1544 C1577 1.439 . S
C1545 H1530 0.930 . S
C1545 N1541 1.319 . S
C1545 C1543 1.397 1_655 S
C1546 C1543 1.367 . S
C1546 C1544 1.403 . S
C1546 H1553 0.929 . S
N1547 Eu1512 2.562 . S
N1547 C1548 1.325 . S
N1547 C1550 1.351 1_655 S
C1548 H1534 0.929 . S
C1548 N1547 1.325 . S
C1548 C1552 1.416 . S
C1549 C1550 1.430 . S
C1549 C1551 1.404 . S
C1549 C1578 1.387 . S
C1550 C1542 1.448 . S
C1550 N1547 1.351 1_455 S
C1550 C1549 1.430 . S
C1551 H1540 0.930 . S
C1551 C1549 1.404 . S
C1551 C1552 1.366 1_455 S
C1552 H1531 0.930 . S
C1552 C1548 1.416 . S
C1552 C1551 1.366 1_655 S
H1553 C1546 0.929 . S
H1554 C1577 0.931 . S
H1555 C1578 0.931 . S
O1556 Eu1512 2.462 . S
O1556 C1576 1.252 . S
O1557 Eu1512 2.373 . S
O1557 C1568 1.249 . S
O1558 Eu1523 2.335 . S
O1558 C1568 1.264 . S
O1559 Eu1512 2.432 . S
O1559 C1576 1.268 . S
O1560 Eu1512 2.291 . S
O1560 C1575 1.255 . S
O1561 Eu1523 2.372 . S
O1561 C1575 1.257 . S
O1562 Eu1523 2.462 . S
O1562 C1587 1.252 . S
O1563 Eu1523 2.373 . S
O1563 C1579 1.249 . S
O1564 Eu1512 2.335 . S
O1564 C1579 1.264 . S
O1565 Eu1523 2.432 . S
O1565 C1587 1.268 . S
O1566 Eu1523 2.291 . S
O1566 C1586 1.255 . S
O1567 Eu1512 2.372 . S
O1567 C1586 1.257 . S
C1568 O1557 1.249 . S
C1568 O1558 1.264 . S
C1569 C1572 1.382 . S
C1569 C1574 1.390 . S
C1569 C1576 1.506 1_455 S
C1570 C1571 1.398 . S
C1570 C1574 1.392 . S
C1571 C1570 1.398 . S
C1571 C1573 1.372 . S
C1571 H1588 0.931 . S
C1572 C1569 1.382 . S
C1572 C1573 1.390 . S
C1572 H1589 0.931 . S
C1573 C1571 1.372 . S
C1573 C1572 1.390 . S
C1573 H1590 0.929 . S
C1574 C1569 1.390 . S
C1574 C1570 1.392 . S
C1574 H1591 0.930 . S
C1575 O1560 1.255 . S
C1575 O1561 1.257 . S
C1576 Eu1512 2.787 . S
C1576 O1556 1.252 . S
C1576 O1559 1.268 . S
C1576 C1569 1.506 1_655 S
C1577 C1544 1.439 . S
C1577 H1554 0.931 . S
C1577 C1578 1.374 . S
C1578 C1549 1.387 . S
C1578 H1555 0.931 . S
C1578 C1577 1.374 . S
C1579 O1563 1.249 . S
C1579 O1564 1.264 . S
C1580 C1583 1.382 . S
C1580 C1584 1.390 . S
C1580 C1587 1.506 . S
C1581 C1582 1.398 . S
C1581 C1584 1.392 . S
C1582 C1581 1.398 . S
C1582 C1585 1.372 . S
C1582 H1592 0.931 . S
C1583 C1580 1.382 . S
C1583 C1585 1.390 . S
C1583 H1593 0.931 . S
C1584 C1580 1.390 . S
C1584 C1581 1.392 . S
C1584 H1594 0.930 . S
C1585 C1582 1.372 . S
C1585 C1583 1.390 . S
C1585 H1595 0.929 . S
C1586 O1566 1.255 . S
C1586 O1567 1.257 . S
C1587 Eu1523 2.787 . S
C1587 O1562 1.252 . S
C1587 O1565 1.268 . S
C1587 C1580 1.506 . S
H1588 C1571 0.931 . S
H1589 C1572 0.931 . S
H1590 C1573 0.929 . S
H1591 C1574 0.930 . S
H1592 C1582 0.931 . S
H1593 C1583 0.931 . S
H1594 C1584 0.930 . S
H1595 C1585 0.929 . S
Eu1596 N1625 2.600 . S
Eu1596 N1631 2.562 . S
Eu1596 O1640 2.462 . S
Eu1596 O1641 2.373 . S
Eu1596 O1643 2.432 . S
Eu1596 O1644 2.291 . S
Eu1596 O1648 2.335 . S
Eu1596 O1651 2.372 . S
Eu1596 C1660 2.787 . S
C1597 N1598 1.365 . S
C1597 C1600 1.405 . S
C1597 C1604 1.448 . S
N1598 C1597 1.365 . S
N1598 C1601 1.319 . S
N1598 Eu1607 2.600 . S
C1599 C1601 1.397 . S
C1599 C1602 1.367 . S
C1599 H1619 0.931 . S
C1600 C1597 1.405 . S
C1600 C1602 1.403 . S
C1600 C1606 1.439 . S
C1601 N1598 1.319 . S
C1601 C1599 1.397 . S
C1601 H1612 0.930 . S
C1602 C1599 1.367 . S
C1602 C1600 1.403 . S
C1602 H1623 0.929 . S
C1603 C1604 1.430 . S
C1603 C1605 1.387 . S
C1603 C1609 1.404 . S
C1604 C1597 1.448 . S
C1604 C1603 1.430 . S
C1604 N1608 1.351 . S
C1605 C1603 1.387 . S
C1605 C1606 1.374 . S
C1605 H1620 0.931 . S
C1606 C1600 1.439 . S
C1606 C1605 1.374 . S
C1606 H1621 0.931 . S
Eu1607 N1598 2.600 . S
Eu1607 N1608 2.562 . S
Eu1607 O1642 2.335 . S
Eu1607 O1645 2.372 . S
Eu1607 O1646 2.462 . S
Eu1607 O1647 2.373 . S
Eu1607 O1649 2.432 . S
Eu1607 O1650 2.291 . S
Eu1607 C1671 2.787 . S
N1608 C1604 1.351 . S
N1608 Eu1607 2.562 . S
N1608 C1610 1.325 . S
C1609 C1603 1.404 . S
C1609 C1611 1.366 . S
C1609 H1617 0.930 . S
C1610 N1608 1.325 . S
C1610 C1611 1.416 . S
C1610 H1616 0.929 . S
C1611 C1609 1.366 . S
C1611 C1610 1.416 . S
C1611 H1613 0.930 . S
H1612 C1601 0.930 . S
H1613 C1611 0.930 . S
H1614 C1629 0.930 . S
H1615 C1636 0.930 . S
H1616 C1610 0.929 . S
H1617 C1609 0.930 . S
H1618 C1632 0.929 . S
H1619 C1599 0.931 . S
H1620 C1605 0.931 . S
H1621 C1606 0.931 . S
H1622 C1627 0.931 . S
H1623 C1602 0.929 . S
H1624 C1635 0.930 . S
N1625 Eu1596 2.600 . S
N1625 C1626 1.365 . S
N1625 C1629 1.319 . S
C1626 N1625 1.365 . S
C1626 C1628 1.405 . S
C1626 C1634 1.448 . S
C1627 H1622 0.931 . S
C1627 C1629 1.397 . S
C1627 C1630 1.367 . S
C1628 C1626 1.405 . S
C1628 C1630 1.403 . S
C1628 C1661 1.439 . S
C1629 H1614 0.930 . S
C1629 N1625 1.319 . S
C1629 C1627 1.397 . S
C1630 C1627 1.367 . S
C1630 C1628 1.403 . S
C1630 H1637 0.929 . S
N1631 Eu1596 2.562 . S
N1631 C1632 1.325 . S
N1631 C1634 1.351 . S
C1632 H1618 0.929 . S
C1632 N1631 1.325 . S
C1632 C1636 1.416 . S
C1633 C1634 1.430 . S
C1633 C1635 1.404 . S
C1633 C1662 1.387 . S
C1634 C1626 1.448 . S
C1634 N1631 1.351 . S
C1634 C1633 1.430 . S
C1635 H1624 0.930 . S
C1635 C1633 1.404 . S
C1635 C1636 1.366 . S
C1636 H1615 0.930 . S
C1636 C1632 1.416 . S
C1636 C1635 1.366 . S
H1637 C1630 0.929 . S
H1638 C1661 0.931 . S
H1639 C1662 0.931 . S
O1640 Eu1596 2.462 . S
O1640 C1660 1.252 . S
O1641 Eu1596 2.373 . S
O1641 C1652 1.249 . S
O1642 Eu1607 2.335 . S
O1642 C1652 1.264 . S
O1643 Eu1596 2.432 . S
O1643 C1660 1.268 . S
O1644 Eu1596 2.291 . S
O1644 C1659 1.255 . S
O1645 Eu1607 2.372 . S
O1645 C1659 1.257 . S
O1646 Eu1607 2.462 . S
O1646 C1671 1.252 . S
O1647 Eu1607 2.373 . S
O1647 C1663 1.249 . S
O1648 Eu1596 2.335 . S
O1648 C1663 1.264 . S
O1649 Eu1607 2.432 . S
O1649 C1671 1.268 . S
O1650 Eu1607 2.291 . S
O1650 C1670 1.255 . S
O1651 Eu1596 2.372 . S
O1651 C1670 1.257 . S
C1652 O1641 1.249 . S
C1652 O1642 1.264 . S
C1653 C1656 1.382 . S
C1653 C1658 1.390 . S
C1653 C1660 1.506 . S
C1654 C1655 1.398 . S
C1654 C1658 1.392 . S
C1655 C1654 1.398 . S
C1655 C1657 1.372 . S
C1655 H1672 0.931 . S
C1656 C1653 1.382 . S
C1656 C1657 1.390 . S
C1656 H1673 0.931 . S
C1657 C1655 1.372 . S
C1657 C1656 1.390 . S
C1657 H1674 0.929 . S
C1658 C1653 1.390 . S
C1658 C1654 1.392 . S
C1658 H1675 0.930 . S
C1659 O1644 1.255 . S
C1659 O1645 1.257 . S
C1660 Eu1596 2.787 . S
C1660 O1640 1.252 . S
C1660 O1643 1.268 . S
C1660 C1653 1.506 . S
C1661 C1628 1.439 . S
C1661 H1638 0.931 . S
C1661 C1662 1.374 . S
C1662 C1633 1.387 . S
C1662 H1639 0.931 . S
C1662 C1661 1.374 . S
C1663 O1647 1.249 . S
C1663 O1648 1.264 . S
C1664 C1667 1.382 . S
C1664 C1668 1.390 . S
C1664 C1671 1.506 . S
C1665 C1666 1.398 . S
C1665 C1668 1.392 . S
C1666 C1665 1.398 . S
C1666 C1669 1.372 . S
C1666 H1676 0.931 . S
C1667 C1664 1.382 . S
C1667 C1669 1.390 . S
C1667 H1677 0.931 . S
C1668 C1664 1.390 . S
C1668 C1665 1.392 . S
C1668 H1678 0.930 . S
C1669 C1666 1.372 . S
C1669 C1667 1.390 . S
C1669 H1679 0.929 . S
C1670 O1650 1.255 . S
C1670 O1651 1.257 . S
C1671 Eu1607 2.787 . S
C1671 O1646 1.252 . S
C1671 O1649 1.268 . S
C1671 C1664 1.506 . S
H1672 C1655 0.931 . S
H1673 C1656 0.931 . S
H1674 C1657 0.929 . S
H1675 C1658 0.930 . S
H1676 C1666 0.931 . S
H1677 C1667 0.931 . S
H1678 C1668 0.930 . S
H1679 C1669 0.929 . S
Eu1680 N1709 2.600 . S
Eu1680 N1715 2.562 . S
Eu1680 O1724 2.462 . S
Eu1680 O1725 2.373 . S
Eu1680 O1727 2.432 . S
Eu1680 O1728 2.291 . S
Eu1680 O1732 2.335 . S
Eu1680 O1735 2.372 . S
Eu1680 C1744 2.787 . S
C1681 N1682 1.365 . S
C1681 C1684 1.405 . S
C1681 C1688 1.448 . S
N1682 C1681 1.365 . S
N1682 C1685 1.319 . S
N1682 Eu1691 2.600 . S
C1683 C1685 1.397 . S
C1683 C1686 1.367 . S
C1683 H1703 0.931 . S
C1684 C1681 1.405 . S
C1684 C1686 1.403 . S
C1684 C1690 1.439 . S
C1685 N1682 1.319 . S
C1685 C1683 1.397 . S
C1685 H1696 0.930 . S
C1686 C1683 1.367 . S
C1686 C1684 1.403 . S
C1686 H1707 0.929 . S
C1687 C1688 1.430 . S
C1687 C1689 1.387 . S
C1687 C1693 1.404 . S
C1688 C1681 1.448 . S
C1688 C1687 1.430 . S
C1688 N1692 1.351 . S
C1689 C1687 1.387 . S
C1689 C1690 1.374 . S
C1689 H1704 0.931 . S
C1690 C1684 1.439 . S
C1690 C1689 1.374 . S
C1690 H1705 0.931 . S
Eu1691 N1682 2.600 . S
Eu1691 N1692 2.562 . S
Eu1691 O1726 2.335 . S
Eu1691 O1729 2.372 . S
Eu1691 O1730 2.462 . S
Eu1691 O1731 2.373 . S
Eu1691 O1733 2.432 . S
Eu1691 O1734 2.291 . S
Eu1691 C1755 2.787 . S
N1692 C1688 1.351 . S
N1692 Eu1691 2.562 . S
N1692 C1694 1.325 . S
C1693 C1687 1.404 . S
C1693 C1695 1.366 . S
C1693 H1701 0.930 . S
C1694 N1692 1.325 . S
C1694 C1695 1.416 . S
C1694 H1700 0.929 . S
C1695 C1693 1.366 . S
C1695 C1694 1.416 . S
C1695 H1697 0.930 . S
H1696 C1685 0.930 . S
H1697 C1695 0.930 . S
H1698 C1713 0.930 . S
H1699 C1720 0.930 . S
H1700 C1694 0.929 . S
H1701 C1693 0.930 . S
H1702 C1716 0.929 . S
H1703 C1683 0.931 . S
H1704 C1689 0.931 . S
H1705 C1690 0.931 . S
H1706 C1711 0.931 . S
H1707 C1686 0.929 . S
H1708 C1719 0.930 . S
N1709 Eu1680 2.600 . S
N1709 C1710 1.365 . S
N1709 C1713 1.319 . S
C1710 N1709 1.365 . S
C1710 C1712 1.405 . S
C1710 C1718 1.448 . S
C1711 H1706 0.931 . S
C1711 C1713 1.397 . S
C1711 C1714 1.367 . S
C1712 C1710 1.405 . S
C1712 C1714 1.403 . S
C1712 C1745 1.439 . S
C1713 H1698 0.930 . S
C1713 N1709 1.319 . S
C1713 C1711 1.397 . S
C1714 C1711 1.367 . S
C1714 C1712 1.403 . S
C1714 H1721 0.929 . S
N1715 Eu1680 2.562 . S
N1715 C1716 1.325 . S
N1715 C1718 1.351 . S
C1716 H1702 0.929 . S
C1716 N1715 1.325 . S
C1716 C1720 1.416 . S
C1717 C1718 1.430 . S
C1717 C1719 1.404 . S
C1717 C1746 1.387 . S
C1718 C1710 1.448 . S
C1718 N1715 1.351 . S
C1718 C1717 1.430 . S
C1719 H1708 0.930 . S
C1719 C1717 1.404 . S
C1719 C1720 1.366 . S
C1720 H1699 0.930 . S
C1720 C1716 1.416 . S
C1720 C1719 1.366 . S
H1721 C1714 0.929 . S
H1722 C1745 0.931 . S
H1723 C1746 0.931 . S
O1724 Eu1680 2.462 . S
O1724 C1744 1.252 . S
O1725 Eu1680 2.373 . S
O1725 C1736 1.249 . S
O1726 Eu1691 2.335 . S
O1726 C1736 1.264 . S
O1727 Eu1680 2.432 . S
O1727 C1744 1.268 . S
O1728 Eu1680 2.291 . S
O1728 C1743 1.255 . S
O1729 Eu1691 2.372 . S
O1729 C1743 1.257 . S
O1730 Eu1691 2.462 . S
O1730 C1755 1.252 . S
O1731 Eu1691 2.373 . S
O1731 C1747 1.249 . S
O1732 Eu1680 2.335 . S
O1732 C1747 1.264 . S
O1733 Eu1691 2.432 . S
O1733 C1755 1.268 . S
O1734 Eu1691 2.291 . S
O1734 C1754 1.255 . S
O1735 Eu1680 2.372 . S
O1735 C1754 1.257 . S
C1736 O1725 1.249 . S
C1736 O1726 1.264 . S
C1737 C1740 1.382 . S
C1737 C1742 1.390 . S
C1737 C1744 1.506 . S
C1738 C1739 1.398 . S
C1738 C1742 1.392 . S
C1739 C1738 1.398 . S
C1739 C1741 1.372 . S
C1739 H1756 0.931 . S
C1740 C1737 1.382 . S
C1740 C1741 1.390 . S
C1740 H1757 0.931 . S
C1741 C1739 1.372 . S
C1741 C1740 1.390 . S
C1741 H1758 0.929 . S
C1742 C1737 1.390 . S
C1742 C1738 1.392 . S
C1742 H1759 0.930 . S
C1743 O1728 1.255 . S
C1743 O1729 1.257 . S
C1744 Eu1680 2.787 . S
C1744 O1724 1.252 . S
C1744 O1727 1.268 . S
C1744 C1737 1.506 . S
C1745 C1712 1.439 . S
C1745 H1722 0.931 . S
C1745 C1746 1.374 . S
C1746 C1717 1.387 . S
C1746 H1723 0.931 . S
C1746 C1745 1.374 . S
C1747 O1731 1.249 . S
C1747 O1732 1.264 . S
C1748 C1751 1.382 . S
C1748 C1752 1.390 . S
C1748 C1755 1.506 . S
C1749 C1750 1.398 . S
C1749 C1752 1.392 . S
C1750 C1749 1.398 . S
C1750 C1753 1.372 . S
C1750 H1760 0.931 . S
C1751 C1748 1.382 . S
C1751 C1753 1.390 . S
C1751 H1761 0.931 . S
C1752 C1748 1.390 . S
C1752 C1749 1.392 . S
C1752 H1762 0.930 . S
C1753 C1750 1.372 . S
C1753 C1751 1.390 . S
C1753 H1763 0.929 . S
C1754 O1734 1.255 . S
C1754 O1735 1.257 . S
C1755 Eu1691 2.787 . S
C1755 O1730 1.252 . S
C1755 O1733 1.268 . S
C1755 C1748 1.506 . S
H1756 C1739 0.931 . S
H1757 C1740 0.931 . S
H1758 C1741 0.929 . S
H1759 C1742 0.930 . S
H1760 C1750 0.931 . S
H1761 C1751 0.931 . S
H1762 C1752 0.930 . S
H1763 C1753 0.929 . S
Eu1764 N1793 2.600 1_556 S
Eu1764 N1799 2.562 1_556 S
Eu1764 O1808 2.462 . S
Eu1764 O1809 2.373 1_556 S
Eu1764 O1811 2.432 . S
Eu1764 O1812 2.291 . S
Eu1764 O1816 2.335 . S
Eu1764 O1819 2.372 1_556 S
Eu1764 C1828 2.787 . S
C1765 N1766 1.365 . S
C1765 C1768 1.405 . S
C1765 C1772 1.448 . S
N1766 C1765 1.365 . S
N1766 C1769 1.319 . S
N1766 Eu1775 2.600 . S
C1767 C1769 1.397 . S
C1767 C1770 1.367 . S
C1767 H1787 0.931 . S
C1768 C1765 1.405 . S
C1768 C1770 1.403 . S
C1768 C1774 1.439 . S
C1769 N1766 1.319 . S
C1769 C1767 1.397 . S
C1769 H1780 0.930 . S
C1770 C1767 1.367 . S
C1770 C1768 1.403 . S
C1770 H1791 0.929 . S
C1771 C1772 1.430 . S
C1771 C1773 1.387 . S
C1771 C1777 1.404 . S
C1772 C1765 1.448 . S
C1772 C1771 1.430 . S
C1772 N1776 1.351 . S
C1773 C1771 1.387 . S
C1773 C1774 1.374 . S
C1773 H1788 0.931 . S
C1774 C1768 1.439 . S
C1774 C1773 1.374 . S
C1774 H1789 0.931 . S
Eu1775 N1766 2.600 . S
Eu1775 N1776 2.562 . S
Eu1775 O1810 2.335 1_556 S
Eu1775 O1813 2.372 . S
Eu1775 O1814 2.462 1_556 S
Eu1775 O1815 2.373 . S
Eu1775 O1817 2.432 1_556 S
Eu1775 O1818 2.291 1_556 S
Eu1775 C1839 2.787 1_556 S
N1776 C1772 1.351 . S
N1776 Eu1775 2.562 . S
N1776 C1778 1.325 . S
C1777 C1771 1.404 . S
C1777 C1779 1.366 . S
C1777 H1785 0.930 . S
C1778 N1776 1.325 . S
C1778 C1779 1.416 . S
C1778 H1784 0.929 . S
C1779 C1777 1.366 . S
C1779 C1778 1.416 . S
C1779 H1781 0.930 . S
H1780 C1769 0.930 . S
H1781 C1779 0.930 . S
H1782 C1797 0.930 . S
H1783 C1804 0.930 . S
H1784 C1778 0.929 . S
H1785 C1777 0.930 . S
H1786 C1800 0.929 1_556 S
H1787 C1767 0.931 . S
H1788 C1773 0.931 . S
H1789 C1774 0.931 . S
H1790 C1795 0.931 . S
H1791 C1770 0.929 . S
H1792 C1803 0.930 . S
N1793 Eu1764 2.600 1_554 S
N1793 C1794 1.365 . S
N1793 C1797 1.319 . S
C1794 N1793 1.365 . S
C1794 C1796 1.405 . S
C1794 C1802 1.448 . S
C1795 H1790 0.931 . S
C1795 C1797 1.397 . S
C1795 C1798 1.367 . S
C1796 C1794 1.405 . S
C1796 C1798 1.403 . S
C1796 C1829 1.439 . S
C1797 H1782 0.930 . S
C1797 N1793 1.319 . S
C1797 C1795 1.397 . S
C1798 C1795 1.367 . S
C1798 C1796 1.403 . S
C1798 H1805 0.929 . S
N1799 Eu1764 2.562 1_554 S
N1799 C1800 1.325 . S
N1799 C1802 1.351 . S
C1800 H1786 0.929 1_554 S
C1800 N1799 1.325 . S
C1800 C1804 1.416 . S
C1801 C1802 1.430 . S
C1801 C1803 1.404 . S
C1801 C1830 1.387 . S
C1802 C1794 1.448 . S
C1802 N1799 1.351 . S
C1802 C1801 1.430 . S
C1803 H1792 0.930 . S
C1803 C1801 1.404 . S
C1803 C1804 1.366 . S
C1804 H1783 0.930 . S
C1804 C1800 1.416 . S
C1804 C1803 1.366 . S
H1805 C1798 0.929 . S
H1806 C1829 0.931 . S
H1807 C1830 0.931 . S
O1808 Eu1764 2.462 . S
O1808 C1828 1.252 . S
O1809 Eu1764 2.373 1_554 S
O1809 C1820 1.249 . S
O1810 Eu1775 2.335 1_554 S
O1810 C1820 1.264 . S
O1811 Eu1764 2.432 . S
O1811 C1828 1.268 . S
O1812 Eu1764 2.291 . S
O1812 C1827 1.255 . S
O1813 Eu1775 2.372 . S
O1813 C1827 1.257 . S
O1814 Eu1775 2.462 1_554 S
O1814 C1839 1.252 . S
O1815 Eu1775 2.373 . S
O1815 C1831 1.249 . S
O1816 Eu1764 2.335 . S
O1816 C1831 1.264 . S
O1817 Eu1775 2.432 1_554 S
O1817 C1839 1.268 . S
O1818 Eu1775 2.291 1_554 S
O1818 C1838 1.255 . S
O1819 Eu1764 2.372 1_554 S
O1819 C1838 1.257 . S
C1820 O1809 1.249 . S
C1820 O1810 1.264 . S
C1821 C1824 1.382 . S
C1821 C1826 1.390 . S
C1821 C1828 1.506 . S
C1822 C1823 1.398 . S
C1822 C1826 1.392 . S
C1823 C1822 1.398 . S
C1823 C1825 1.372 . S
C1823 H1840 0.931 . S
C1824 C1821 1.382 . S
C1824 C1825 1.390 . S
C1824 H1841 0.931 . S
C1825 C1823 1.372 . S
C1825 C1824 1.390 . S
C1825 H1842 0.929 . S
C1826 C1821 1.390 . S
C1826 C1822 1.392 . S
C1826 H1843 0.930 . S
C1827 O1812 1.255 . S
C1827 O1813 1.257 . S
C1828 Eu1764 2.787 . S
C1828 O1808 1.252 . S
C1828 O1811 1.268 . S
C1828 C1821 1.506 . S
C1829 C1796 1.439 . S
C1829 H1806 0.931 . S
C1829 C1830 1.374 . S
C1830 C1801 1.387 . S
C1830 H1807 0.931 . S
C1830 C1829 1.374 . S
C1831 O1815 1.249 . S
C1831 O1816 1.264 . S
C1832 C1835 1.382 . S
C1832 C1836 1.390 . S
C1832 C1839 1.506 . S
C1833 C1834 1.398 . S
C1833 C1836 1.392 . S
C1834 C1833 1.398 . S
C1834 C1837 1.372 . S
C1834 H1844 0.931 . S
C1835 C1832 1.382 . S
C1835 C1837 1.390 . S
C1835 H1845 0.931 . S
C1836 C1832 1.390 . S
C1836 C1833 1.392 . S
C1836 H1846 0.930 . S
C1837 C1834 1.372 . S
C1837 C1835 1.390 . S
C1837 H1847 0.929 . S
C1838 O1818 1.255 . S
C1838 O1819 1.257 . S
C1839 Eu1775 2.787 1_554 S
C1839 O1814 1.252 . S
C1839 O1817 1.268 . S
C1839 C1832 1.506 . S
H1840 C1823 0.931 . S
H1841 C1824 0.931 . S
H1842 C1825 0.929 . S
H1843 C1826 0.930 . S
H1844 C1834 0.931 . S
H1845 C1835 0.931 . S
H1846 C1836 0.930 . S
H1847 C1837 0.929 . S
Eu1848 N1877 2.600 . S
Eu1848 N1883 2.562 . S
Eu1848 O1892 2.462 . S
Eu1848 O1893 2.373 . S
Eu1848 O1895 2.432 . S
Eu1848 O1896 2.291 . S
Eu1848 O1900 2.335 . S
Eu1848 O1903 2.372 . S
Eu1848 C1912 2.787 . S
C1849 N1850 1.365 . S
C1849 C1852 1.405 . S
C1849 C1856 1.448 . S
N1850 C1849 1.365 . S
N1850 C1853 1.319 . S
N1850 Eu1859 2.600 . S
C1851 C1853 1.397 . S
C1851 C1854 1.367 . S
C1851 H1871 0.931 . S
C1852 C1849 1.405 . S
C1852 C1854 1.403 . S
C1852 C1858 1.439 . S
C1853 N1850 1.319 . S
C1853 C1851 1.397 . S
C1853 H1864 0.930 . S
C1854 C1851 1.367 . S
C1854 C1852 1.403 . S
C1854 H1875 0.929 . S
C1855 C1856 1.430 . S
C1855 C1857 1.387 . S
C1855 C1861 1.404 . S
C1856 C1849 1.448 . S
C1856 C1855 1.430 . S
C1856 N1860 1.351 . S
C1857 C1855 1.387 . S
C1857 C1858 1.374 . S
C1857 H1872 0.931 . S
C1858 C1852 1.439 . S
C1858 C1857 1.374 . S
C1858 H1873 0.931 . S
Eu1859 N1850 2.600 . S
Eu1859 N1860 2.562 . S
Eu1859 O1894 2.335 . S
Eu1859 O1897 2.372 . S
Eu1859 O1898 2.462 . S
Eu1859 O1899 2.373 . S
Eu1859 O1901 2.432 . S
Eu1859 O1902 2.291 . S
Eu1859 C1923 2.787 . S
N1860 C1856 1.351 . S
N1860 Eu1859 2.562 . S
N1860 C1862 1.325 . S
C1861 C1855 1.404 . S
C1861 C1863 1.366 . S
C1861 H1869 0.930 . S
C1862 N1860 1.325 . S
C1862 C1863 1.416 . S
C1862 H1868 0.929 . S
C1863 C1861 1.366 . S
C1863 C1862 1.416 . S
C1863 H1865 0.930 . S
H1864 C1853 0.930 . S
H1865 C1863 0.930 . S
H1866 C1881 0.930 . S
H1867 C1888 0.930 . S
H1868 C1862 0.929 . S
H1869 C1861 0.930 . S
H1870 C1884 0.929 . S
H1871 C1851 0.931 . S
H1872 C1857 0.931 . S
H1873 C1858 0.931 . S
H1874 C1879 0.931 . S
H1875 C1854 0.929 . S
H1876 C1887 0.930 . S
N1877 Eu1848 2.600 . S
N1877 C1878 1.365 1_655 S
N1877 C1881 1.319 . S
C1878 N1877 1.365 1_455 S
C1878 C1880 1.405 . S
C1878 C1886 1.448 . S
C1879 H1874 0.931 . S
C1879 C1881 1.397 1_455 S
C1879 C1882 1.367 . S
C1880 C1878 1.405 . S
C1880 C1882 1.403 . S
C1880 C1913 1.439 . S
C1881 H1866 0.930 . S
C1881 N1877 1.319 . S
C1881 C1879 1.397 1_655 S
C1882 C1879 1.367 . S
C1882 C1880 1.403 . S
C1882 H1889 0.929 . S
N1883 Eu1848 2.562 . S
N1883 C1884 1.325 . S
N1883 C1886 1.351 1_655 S
C1884 H1870 0.929 . S
C1884 N1883 1.325 . S
C1884 C1888 1.416 . S
C1885 C1886 1.430 . S
C1885 C1887 1.404 . S
C1885 C1914 1.387 . S
C1886 C1878 1.448 . S
C1886 N1883 1.351 1_455 S
C1886 C1885 1.430 . S
C1887 H1876 0.930 . S
C1887 C1885 1.404 . S
C1887 C1888 1.366 1_455 S
C1888 H1867 0.930 . S
C1888 C1884 1.416 . S
C1888 C1887 1.366 1_655 S
H1889 C1882 0.929 . S
H1890 C1913 0.931 . S
H1891 C1914 0.931 . S
O1892 Eu1848 2.462 . S
O1892 C1912 1.252 . S
O1893 Eu1848 2.373 . S
O1893 C1904 1.249 . S
O1894 Eu1859 2.335 . S
O1894 C1904 1.264 . S
O1895 Eu1848 2.432 . S
O1895 C1912 1.268 . S
O1896 Eu1848 2.291 . S
O1896 C1911 1.255 . S
O1897 Eu1859 2.372 . S
O1897 C1911 1.257 . S
O1898 Eu1859 2.462 . S
O1898 C1923 1.252 . S
O1899 Eu1859 2.373 . S
O1899 C1915 1.249 . S
O1900 Eu1848 2.335 . S
O1900 C1915 1.264 . S
O1901 Eu1859 2.432 . S
O1901 C1923 1.268 . S
O1902 Eu1859 2.291 . S
O1902 C1922 1.255 . S
O1903 Eu1848 2.372 . S
O1903 C1922 1.257 . S
C1904 O1893 1.249 . S
C1904 O1894 1.264 . S
C1905 C1908 1.382 . S
C1905 C1910 1.390 . S
C1905 C1912 1.506 1_455 S
C1906 C1907 1.398 . S
C1906 C1910 1.392 . S
C1907 C1906 1.398 . S
C1907 C1909 1.372 . S
C1907 H1924 0.931 . S
C1908 C1905 1.382 . S
C1908 C1909 1.390 . S
C1908 H1925 0.931 . S
C1909 C1907 1.372 . S
C1909 C1908 1.390 . S
C1909 H1926 0.929 . S
C1910 C1905 1.390 . S
C1910 C1906 1.392 . S
C1910 H1927 0.930 . S
C1911 O1896 1.255 . S
C1911 O1897 1.257 . S
C1912 Eu1848 2.787 . S
C1912 O1892 1.252 . S
C1912 O1895 1.268 . S
C1912 C1905 1.506 1_655 S
C1913 C1880 1.439 . S
C1913 H1890 0.931 . S
C1913 C1914 1.374 . S
C1914 C1885 1.387 . S
C1914 H1891 0.931 . S
C1914 C1913 1.374 . S
C1915 O1899 1.249 . S
C1915 O1900 1.264 . S
C1916 C1919 1.382 . S
C1916 C1920 1.390 . S
C1916 C1923 1.506 . S
C1917 C1918 1.398 . S
C1917 C1920 1.392 . S
C1918 C1917 1.398 . S
C1918 C1921 1.372 . S
C1918 H1928 0.931 . S
C1919 C1916 1.382 . S
C1919 C1921 1.390 . S
C1919 H1929 0.931 . S
C1920 C1916 1.390 . S
C1920 C1917 1.392 . S
C1920 H1930 0.930 . S
C1921 C1918 1.372 . S
C1921 C1919 1.390 . S
C1921 H1931 0.929 . S
C1922 O1902 1.255 . S
C1922 O1903 1.257 . S
C1923 Eu1859 2.787 . S
C1923 O1898 1.252 . S
C1923 O1901 1.268 . S
C1923 C1916 1.506 . S
H1924 C1907 0.931 . S
H1925 C1908 0.931 . S
H1926 C1909 0.929 . S
H1927 C1910 0.930 . S
H1928 C1918 0.931 . S
H1929 C1919 0.931 . S
H1930 C1920 0.930 . S
H1931 C1921 0.929 . S
Eu1932 N1961 2.600 . S
Eu1932 N1967 2.562 . S
Eu1932 O1976 2.462 . S
Eu1932 O1977 2.373 . S
Eu1932 O1979 2.432 . S
Eu1932 O1980 2.291 . S
Eu1932 O1984 2.335 . S
Eu1932 O1987 2.372 . S
Eu1932 C1996 2.787 . S
C1933 N1934 1.365 . S
C1933 C1936 1.405 . S
C1933 C1940 1.448 . S
N1934 C1933 1.365 . S
N1934 C1937 1.319 . S
N1934 Eu1943 2.600 . S
C1935 C1937 1.397 . S
C1935 C1938 1.367 . S
C1935 H1955 0.931 . S
C1936 C1933 1.405 . S
C1936 C1938 1.403 . S
C1936 C1942 1.439 . S
C1937 N1934 1.319 . S
C1937 C1935 1.397 . S
C1937 H1948 0.930 . S
C1938 C1935 1.367 . S
C1938 C1936 1.403 . S
C1938 H1959 0.929 . S
C1939 C1940 1.430 . S
C1939 C1941 1.387 . S
C1939 C1945 1.404 . S
C1940 C1933 1.448 . S
C1940 C1939 1.430 . S
C1940 N1944 1.351 . S
C1941 C1939 1.387 . S
C1941 C1942 1.374 . S
C1941 H1956 0.931 . S
C1942 C1936 1.439 . S
C1942 C1941 1.374 . S
C1942 H1957 0.931 . S
Eu1943 N1934 2.600 . S
Eu1943 N1944 2.562 . S
Eu1943 O1978 2.335 . S
Eu1943 O1981 2.372 . S
Eu1943 O1982 2.462 . S
Eu1943 O1983 2.373 . S
Eu1943 O1985 2.432 . S
Eu1943 O1986 2.291 . S
Eu1943 C2007 2.787 . S
N1944 C1940 1.351 . S
N1944 Eu1943 2.562 . S
N1944 C1946 1.325 . S
C1945 C1939 1.404 . S
C1945 C1947 1.366 . S
C1945 H1953 0.930 . S
C1946 N1944 1.325 . S
C1946 C1947 1.416 . S
C1946 H1952 0.929 . S
C1947 C1945 1.366 . S
C1947 C1946 1.416 . S
C1947 H1949 0.930 . S
H1948 C1937 0.930 . S
H1949 C1947 0.930 . S
H1950 C1965 0.930 . S
H1951 C1972 0.930 . S
H1952 C1946 0.929 . S
H1953 C1945 0.930 . S
H1954 C1968 0.929 . S
H1955 C1935 0.931 . S
H1956 C1941 0.931 . S
H1957 C1942 0.931 . S
H1958 C1963 0.931 . S
H1959 C1938 0.929 . S
H1960 C1971 0.930 . S
N1961 Eu1932 2.600 . S
N1961 C1962 1.365 . S
N1961 C1965 1.319 . S
C1962 N1961 1.365 . S
C1962 C1964 1.405 . S
C1962 C1970 1.448 . S
C1963 H1958 0.931 . S
C1963 C1965 1.397 . S
C1963 C1966 1.367 . S
C1964 C1962 1.405 . S
C1964 C1966 1.403 . S
C1964 C1997 1.439 . S
C1965 H1950 0.930 . S
C1965 N1961 1.319 . S
C1965 C1963 1.397 . S
C1966 C1963 1.367 . S
C1966 C1964 1.403 . S
C1966 H1973 0.929 . S
N1967 Eu1932 2.562 . S
N1967 C1968 1.325 . S
N1967 C1970 1.351 . S
C1968 H1954 0.929 . S
C1968 N1967 1.325 . S
C1968 C1972 1.416 . S
C1969 C1970 1.430 . S
C1969 C1971 1.404 . S
C1969 C1998 1.387 . S
C1970 C1962 1.448 . S
C1970 N1967 1.351 . S
C1970 C1969 1.430 . S
C1971 H1960 0.930 . S
C1971 C1969 1.404 . S
C1971 C1972 1.366 . S
C1972 H1951 0.930 . S
C1972 C1968 1.416 . S
C1972 C1971 1.366 . S
H1973 C1966 0.929 . S
H1974 C1997 0.931 . S
H1975 C1998 0.931 . S
O1976 Eu1932 2.462 . S
O1976 C1996 1.252 . S
O1977 Eu1932 2.373 . S
O1977 C1988 1.249 . S
O1978 Eu1943 2.335 . S
O1978 C1988 1.264 . S
O1979 Eu1932 2.432 . S
O1979 C1996 1.268 . S
O1980 Eu1932 2.291 . S
O1980 C1995 1.255 . S
O1981 Eu1943 2.372 . S
O1981 C1995 1.257 . S
O1982 Eu1943 2.462 . S
O1982 C2007 1.252 . S
O1983 Eu1943 2.373 . S
O1983 C1999 1.249 . S
O1984 Eu1932 2.335 . S
O1984 C1999 1.264 . S
O1985 Eu1943 2.432 . S
O1985 C2007 1.268 . S
O1986 Eu1943 2.291 . S
O1986 C2006 1.255 . S
O1987 Eu1932 2.372 . S
O1987 C2006 1.257 . S
C1988 O1977 1.249 . S
C1988 O1978 1.264 . S
C1989 C1992 1.382 . S
C1989 C1994 1.390 . S
C1989 C1996 1.506 . S
C1990 C1991 1.398 . S
C1990 C1994 1.392 . S
C1991 C1990 1.398 . S
C1991 C1993 1.372 . S
C1991 H2008 0.931 . S
C1992 C1989 1.382 . S
C1992 C1993 1.390 . S
C1992 H2009 0.931 . S
C1993 C1991 1.372 . S
C1993 C1992 1.390 . S
C1993 H2010 0.929 . S
C1994 C1989 1.390 . S
C1994 C1990 1.392 . S
C1994 H2011 0.930 . S
C1995 O1980 1.255 . S
C1995 O1981 1.257 . S
C1996 Eu1932 2.787 . S
C1996 O1976 1.252 . S
C1996 O1979 1.268 . S
C1996 C1989 1.506 . S
C1997 C1964 1.439 . S
C1997 H1974 0.931 . S
C1997 C1998 1.374 . S
C1998 C1969 1.387 . S
C1998 H1975 0.931 . S
C1998 C1997 1.374 . S
C1999 O1983 1.249 . S
C1999 O1984 1.264 . S
C2000 C2003 1.382 . S
C2000 C2004 1.390 . S
C2000 C2007 1.506 . S
C2001 C2002 1.398 . S
C2001 C2004 1.392 . S
C2002 C2001 1.398 . S
C2002 C2005 1.372 . S
C2002 H2012 0.931 . S
C2003 C2000 1.382 . S
C2003 C2005 1.390 . S
C2003 H2013 0.931 . S
C2004 C2000 1.390 . S
C2004 C2001 1.392 . S
C2004 H2014 0.930 . S
C2005 C2002 1.372 . S
C2005 C2003 1.390 . S
C2005 H2015 0.929 . S
C2006 O1986 1.255 . S
C2006 O1987 1.257 . S
C2007 Eu1943 2.787 . S
C2007 O1982 1.252 . S
C2007 O1985 1.268 . S
C2007 C2000 1.506 . S
H2008 C1991 0.931 . S
H2009 C1992 0.931 . S
H2010 C1993 0.929 . S
H2011 C1994 0.930 . S
H2012 C2002 0.931 . S
H2013 C2003 0.931 . S
H2014 C2004 0.930 . S
H2015 C2005 0.929 . S
Eu2016 N2045 2.600 . S
Eu2016 N2051 2.562 . S
Eu2016 O2060 2.462 . S
Eu2016 O2061 2.373 . S
Eu2016 O2063 2.432 . S
Eu2016 O2064 2.291 . S
Eu2016 O2068 2.335 . S
Eu2016 O2071 2.372 . S
Eu2016 C2080 2.787 . S
C2017 N2018 1.365 . S
C2017 C2020 1.405 . S
C2017 C2024 1.448 . S
N2018 C2017 1.365 . S
N2018 C2021 1.319 . S
N2018 Eu2027 2.600 . S
C2019 C2021 1.397 . S
C2019 C2022 1.367 . S
C2019 H2039 0.931 . S
C2020 C2017 1.405 . S
C2020 C2022 1.403 . S
C2020 C2026 1.439 . S
C2021 N2018 1.319 . S
C2021 C2019 1.397 . S
C2021 H2032 0.930 . S
C2022 C2019 1.367 . S
C2022 C2020 1.403 . S
C2022 H2043 0.929 . S
C2023 C2024 1.430 . S
C2023 C2025 1.387 . S
C2023 C2029 1.404 . S
C2024 C2017 1.448 . S
C2024 C2023 1.430 . S
C2024 N2028 1.351 . S
C2025 C2023 1.387 . S
C2025 C2026 1.374 . S
C2025 H2040 0.931 . S
C2026 C2020 1.439 . S
C2026 C2025 1.374 . S
C2026 H2041 0.931 . S
Eu2027 N2018 2.600 . S
Eu2027 N2028 2.562 . S
Eu2027 O2062 2.335 . S
Eu2027 O2065 2.372 . S
Eu2027 O2066 2.462 . S
Eu2027 O2067 2.373 . S
Eu2027 O2069 2.432 . S
Eu2027 O2070 2.291 . S
Eu2027 C2091 2.787 . S
N2028 C2024 1.351 . S
N2028 Eu2027 2.562 . S
N2028 C2030 1.325 . S
C2029 C2023 1.404 . S
C2029 C2031 1.366 . S
C2029 H2037 0.930 . S
C2030 N2028 1.325 . S
C2030 C2031 1.416 . S
C2030 H2036 0.929 . S
C2031 C2029 1.366 . S
C2031 C2030 1.416 . S
C2031 H2033 0.930 . S
H2032 C2021 0.930 . S
H2033 C2031 0.930 . S
H2034 C2049 0.930 . S
H2035 C2056 0.930 . S
H2036 C2030 0.929 . S
H2037 C2029 0.930 . S
H2038 C2052 0.929 . S
H2039 C2019 0.931 . S
H2040 C2025 0.931 . S
H2041 C2026 0.931 . S
H2042 C2047 0.931 . S
H2043 C2022 0.929 . S
H2044 C2055 0.930 . S
N2045 Eu2016 2.600 . S
N2045 C2046 1.365 . S
N2045 C2049 1.319 . S
C2046 N2045 1.365 . S
C2046 C2048 1.405 . S
C2046 C2054 1.448 . S
C2047 H2042 0.931 . S
C2047 C2049 1.397 . S
C2047 C2050 1.367 . S
C2048 C2046 1.405 . S
C2048 C2050 1.403 . S
C2048 C2081 1.439 . S
C2049 H2034 0.930 . S
C2049 N2045 1.319 . S
C2049 C2047 1.397 . S
C2050 C2047 1.367 . S
C2050 C2048 1.403 . S
C2050 H2057 0.929 . S
N2051 Eu2016 2.562 . S
N2051 C2052 1.325 . S
N2051 C2054 1.351 . S
C2052 H2038 0.929 . S
C2052 N2051 1.325 . S
C2052 C2056 1.416 . S
C2053 C2054 1.430 . S
C2053 C2055 1.404 . S
C2053 C2082 1.387 . S
C2054 C2046 1.448 . S
C2054 N2051 1.351 . S
C2054 C2053 1.430 . S
C2055 H2044 0.930 . S
C2055 C2053 1.404 . S
C2055 C2056 1.366 . S
C2056 H2035 0.930 . S
C2056 C2052 1.416 . S
C2056 C2055 1.366 . S
H2057 C2050 0.929 . S
H2058 C2081 0.931 . S
H2059 C2082 0.931 . S
O2060 Eu2016 2.462 . S
O2060 C2080 1.252 . S
O2061 Eu2016 2.373 . S
O2061 C2072 1.249 . S
O2062 Eu2027 2.335 . S
O2062 C2072 1.264 . S
O2063 Eu2016 2.432 . S
O2063 C2080 1.268 . S
O2064 Eu2016 2.291 . S
O2064 C2079 1.255 . S
O2065 Eu2027 2.372 . S
O2065 C2079 1.257 . S
O2066 Eu2027 2.462 . S
O2066 C2091 1.252 . S
O2067 Eu2027 2.373 . S
O2067 C2083 1.249 . S
O2068 Eu2016 2.335 . S
O2068 C2083 1.264 . S
O2069 Eu2027 2.432 . S
O2069 C2091 1.268 . S
O2070 Eu2027 2.291 . S
O2070 C2090 1.255 . S
O2071 Eu2016 2.372 . S
O2071 C2090 1.257 . S
C2072 O2061 1.249 . S
C2072 O2062 1.264 . S
C2073 C2076 1.382 . S
C2073 C2078 1.390 . S
C2073 C2080 1.506 . S
C2074 C2075 1.398 . S
C2074 C2078 1.392 . S
C2075 C2074 1.398 . S
C2075 C2077 1.372 . S
C2075 H2092 0.931 . S
C2076 C2073 1.382 . S
C2076 C2077 1.390 . S
C2076 H2093 0.931 . S
C2077 C2075 1.372 . S
C2077 C2076 1.390 . S
C2077 H2094 0.929 . S
C2078 C2073 1.390 . S
C2078 C2074 1.392 . S
C2078 H2095 0.930 . S
C2079 O2064 1.255 . S
C2079 O2065 1.257 . S
C2080 Eu2016 2.787 . S
C2080 O2060 1.252 . S
C2080 O2063 1.268 . S
C2080 C2073 1.506 . S
C2081 C2048 1.439 . S
C2081 H2058 0.931 . S
C2081 C2082 1.374 . S
C2082 C2053 1.387 . S
C2082 H2059 0.931 . S
C2082 C2081 1.374 . S
C2083 O2067 1.249 . S
C2083 O2068 1.264 . S
C2084 C2087 1.382 . S
C2084 C2088 1.390 . S
C2084 C2091 1.506 . S
C2085 C2086 1.398 . S
C2085 C2088 1.392 . S
C2086 C2085 1.398 . S
C2086 C2089 1.372 . S
C2086 H2096 0.931 . S
C2087 C2084 1.382 . S
C2087 C2089 1.390 . S
C2087 H2097 0.931 . S
C2088 C2084 1.390 . S
C2088 C2085 1.392 . S
C2088 H2098 0.930 . S
C2089 C2086 1.372 . S
C2089 C2087 1.390 . S
C2089 H2099 0.929 . S
C2090 O2070 1.255 . S
C2090 O2071 1.257 . S
C2091 Eu2027 2.787 . S
C2091 O2066 1.252 . S
C2091 O2069 1.268 . S
C2091 C2084 1.506 . S
H2092 C2075 0.931 . S
H2093 C2076 0.931 . S
H2094 C2077 0.929 . S
H2095 C2078 0.930 . S
H2096 C2086 0.931 . S
H2097 C2087 0.931 . S
H2098 C2088 0.930 . S
H2099 C2089 0.929 . S
Eu2100 N2129 2.600 . S
Eu2100 N2135 2.562 . S
Eu2100 O2144 2.462 1_556 S
Eu2100 O2145 2.373 . S
Eu2100 O2147 2.432 1_556 S
Eu2100 O2148 2.291 1_556 S
Eu2100 O2152 2.335 1_556 S
Eu2100 O2155 2.372 . S
Eu2100 C2164 2.787 1_556 S
C2101 N2102 1.365 . S
C2101 C2104 1.405 . S
C2101 C2108 1.448 . S
N2102 C2101 1.365 . S
N2102 C2105 1.319 . S
N2102 Eu2111 2.600 1_554 S
C2103 C2105 1.397 . S
C2103 C2106 1.367 . S
C2103 H2123 0.931 . S
C2104 C2101 1.405 . S
C2104 C2106 1.403 . S
C2104 C2110 1.439 . S
C2105 N2102 1.319 . S
C2105 C2103 1.397 . S
C2105 H2116 0.930 . S
C2106 C2103 1.367 . S
C2106 C2104 1.403 . S
C2106 H2127 0.929 . S
C2107 C2108 1.430 . S
C2107 C2109 1.387 . S
C2107 C2113 1.404 . S
C2108 C2101 1.448 . S
C2108 C2107 1.430 . S
C2108 N2112 1.351 . S
C2109 C2107 1.387 . S
C2109 C2110 1.374 . S
C2109 H2124 0.931 . S
C2110 C2104 1.439 . S
C2110 C2109 1.374 . S
C2110 H2125 0.931 . S
Eu2111 N2102 2.600 1_556 S
Eu2111 N2112 2.562 1_556 S
Eu2111 O2146 2.335 . S
Eu2111 O2149 2.372 1_556 S
Eu2111 O2150 2.462 . S
Eu2111 O2151 2.373 1_556 S
Eu2111 O2153 2.432 . S
Eu2111 O2154 2.291 . S
Eu2111 C2175 2.787 . S
N2112 C2108 1.351 . S
N2112 Eu2111 2.562 1_554 S
N2112 C2114 1.325 . S
C2113 C2107 1.404 . S
C2113 C2115 1.366 . S
C2113 H2121 0.930 . S
C2114 N2112 1.325 . S
C2114 C2115 1.416 . S
C2114 H2120 0.929 1_554 S
C2115 C2113 1.366 . S
C2115 C2114 1.416 . S
C2115 H2117 0.930 . S
H2116 C2105 0.930 . S
H2117 C2115 0.930 . S
H2118 C2133 0.930 . S
H2119 C2140 0.930 . S
H2120 C2114 0.929 1_556 S
H2121 C2113 0.930 . S
H2122 C2136 0.929 . S
H2123 C2103 0.931 . S
H2124 C2109 0.931 . S
H2125 C2110 0.931 . S
H2126 C2131 0.931 . S
H2127 C2106 0.929 . S
H2128 C2139 0.930 . S
N2129 Eu2100 2.600 . S
N2129 C2130 1.365 . S
N2129 C2133 1.319 . S
C2130 N2129 1.365 . S
C2130 C2132 1.405 . S
C2130 C2138 1.448 . S
C2131 H2126 0.931 . S
C2131 C2133 1.397 . S
C2131 C2134 1.367 . S
C2132 C2130 1.405 . S
C2132 C2134 1.403 . S
C2132 C2165 1.439 . S
C2133 H2118 0.930 . S
C2133 N2129 1.319 . S
C2133 C2131 1.397 . S
C2134 C2131 1.367 . S
C2134 C2132 1.403 . S
C2134 H2141 0.929 . S
N2135 Eu2100 2.562 . S
N2135 C2136 1.325 . S
N2135 C2138 1.351 . S
C2136 H2122 0.929 . S
C2136 N2135 1.325 . S
C2136 C2140 1.416 . S
C2137 C2138 1.430 . S
C2137 C2139 1.404 . S
C2137 C2166 1.387 . S
C2138 C2130 1.448 . S
C2138 N2135 1.351 . S
C2138 C2137 1.430 . S
C2139 H2128 0.930 . S
C2139 C2137 1.404 . S
C2139 C2140 1.366 . S
C2140 H2119 0.930 . S
C2140 C2136 1.416 . S
C2140 C2139 1.366 . S
H2141 C2134 0.929 . S
H2142 C2165 0.931 . S
H2143 C2166 0.931 . S
O2144 Eu2100 2.462 1_554 S
O2144 C2164 1.252 . S
O2145 Eu2100 2.373 . S
O2145 C2156 1.249 . S
O2146 Eu2111 2.335 . S
O2146 C2156 1.264 . S
O2147 Eu2100 2.432 1_554 S
O2147 C2164 1.268 . S
O2148 Eu2100 2.291 1_554 S
O2148 C2163 1.255 . S
O2149 Eu2111 2.372 1_554 S
O2149 C2163 1.257 . S
O2150 Eu2111 2.462 . S
O2150 C2175 1.252 . S
O2151 Eu2111 2.373 1_554 S
O2151 C2167 1.249 . S
O2152 Eu2100 2.335 1_554 S
O2152 C2167 1.264 . S
O2153 Eu2111 2.432 . S
O2153 C2175 1.268 . S
O2154 Eu2111 2.291 . S
O2154 C2174 1.255 . S
O2155 Eu2100 2.372 . S
O2155 C2174 1.257 . S
C2156 O2145 1.249 . S
C2156 O2146 1.264 . S
C2157 C2160 1.382 . S
C2157 C2162 1.390 . S
C2157 C2164 1.506 . S
C2158 C2159 1.398 . S
C2158 C2162 1.392 . S
C2159 C2158 1.398 . S
C2159 C2161 1.372 . S
C2159 H2176 0.931 . S
C2160 C2157 1.382 . S
C2160 C2161 1.390 . S
C2160 H2177 0.931 . S
C2161 C2159 1.372 . S
C2161 C2160 1.390 . S
C2161 H2178 0.929 . S
C2162 C2157 1.390 . S
C2162 C2158 1.392 . S
C2162 H2179 0.930 . S
C2163 O2148 1.255 . S
C2163 O2149 1.257 . S
C2164 Eu2100 2.787 1_554 S
C2164 O2144 1.252 . S
C2164 O2147 1.268 . S
C2164 C2157 1.506 . S
C2165 C2132 1.439 . S
C2165 H2142 0.931 . S
C2165 C2166 1.374 . S
C2166 C2137 1.387 . S
C2166 H2143 0.931 . S
C2166 C2165 1.374 . S
C2167 O2151 1.249 . S
C2167 O2152 1.264 . S
C2168 C2171 1.382 . S
C2168 C2172 1.390 . S
C2168 C2175 1.506 . S
C2169 C2170 1.398 . S
C2169 C2172 1.392 . S
C2170 C2169 1.398 . S
C2170 C2173 1.372 . S
C2170 H2180 0.931 . S
C2171 C2168 1.382 . S
C2171 C2173 1.390 . S
C2171 H2181 0.931 . S
C2172 C2168 1.390 . S
C2172 C2169 1.392 . S
C2172 H2182 0.930 . S
C2173 C2170 1.372 . S
C2173 C2171 1.390 . S
C2173 H2183 0.929 . S
C2174 O2154 1.255 . S
C2174 O2155 1.257 . S
C2175 Eu2111 2.787 . S
C2175 O2150 1.252 . S
C2175 O2153 1.268 . S
C2175 C2168 1.506 . S
H2176 C2159 0.931 . S
H2177 C2160 0.931 . S
H2178 C2161 0.929 . S
H2179 C2162 0.930 . S
H2180 C2170 0.931 . S
H2181 C2171 0.931 . S
H2182 C2172 0.930 . S
H2183 C2173 0.929 . S
Eu2184 N2213 2.600 . S
Eu2184 N2219 2.562 . S
Eu2184 O2228 2.462 . S
Eu2184 O2229 2.373 . S
Eu2184 O2231 2.432 . S
Eu2184 O2232 2.291 . S
Eu2184 O2236 2.335 . S
Eu2184 O2239 2.372 . S
Eu2184 C2248 2.787 . S
C2185 N2186 1.365 1_655 S
C2185 C2188 1.405 . S
C2185 C2192 1.448 . S
N2186 C2185 1.365 1_455 S
N2186 C2189 1.319 . S
N2186 Eu2195 2.600 . S
C2187 C2189 1.397 1_655 S
C2187 C2190 1.367 . S
C2187 H2207 0.931 . S
C2188 C2185 1.405 . S
C2188 C2190 1.403 . S
C2188 C2194 1.439 . S
C2189 N2186 1.319 . S
C2189 C2187 1.397 1_455 S
C2189 H2200 0.930 . S
C2190 C2187 1.367 . S
C2190 C2188 1.403 . S
C2190 H2211 0.929 . S
C2191 C2192 1.430 . S
C2191 C2193 1.387 . S
C2191 C2197 1.404 . S
C2192 C2185 1.448 . S
C2192 C2191 1.430 . S
C2192 N2196 1.351 1_655 S
C2193 C2191 1.387 . S
C2193 C2194 1.374 . S
C2193 H2208 0.931 . S
C2194 C2188 1.439 . S
C2194 C2193 1.374 . S
C2194 H2209 0.931 . S
Eu2195 N2186 2.600 . S
Eu2195 N2196 2.562 . S
Eu2195 O2230 2.335 . S
Eu2195 O2233 2.372 . S
Eu2195 O2234 2.462 . S
Eu2195 O2235 2.373 . S
Eu2195 O2237 2.432 . S
Eu2195 O2238 2.291 . S
Eu2195 C2259 2.787 . S
N2196 C2192 1.351 1_455 S
N2196 Eu2195 2.562 . S
N2196 C2198 1.325 . S
C2197 C2191 1.404 . S
C2197 C2199 1.366 1_655 S
C2197 H2205 0.930 . S
C2198 N2196 1.325 . S
C2198 C2199 1.416 . S
C2198 H2204 0.929 . S
C2199 C2197 1.366 1_455 S
C2199 C2198 1.416 . S
C2199 H2201 0.930 . S
H2200 C2189 0.930 . S
H2201 C2199 0.930 . S
H2202 C2217 0.930 . S
H2203 C2224 0.930 . S
H2204 C2198 0.929 . S
H2205 C2197 0.930 . S
H2206 C2220 0.929 . S
H2207 C2187 0.931 . S
H2208 C2193 0.931 . S
H2209 C2194 0.931 . S
H2210 C2215 0.931 . S
H2211 C2190 0.929 . S
H2212 C2223 0.930 . S
N2213 Eu2184 2.600 . S
N2213 C2214 1.365 . S
N2213 C2217 1.319 . S
C2214 N2213 1.365 . S
C2214 C2216 1.405 . S
C2214 C2222 1.448 . S
C2215 H2210 0.931 . S
C2215 C2217 1.397 . S
C2215 C2218 1.367 . S
C2216 C2214 1.405 . S
C2216 C2218 1.403 . S
C2216 C2249 1.439 . S
C2217 H2202 0.930 . S
C2217 N2213 1.319 . S
C2217 C2215 1.397 . S
C2218 C2215 1.367 . S
C2218 C2216 1.403 . S
C2218 H2225 0.929 . S
N2219 Eu2184 2.562 . S
N2219 C2220 1.325 . S
N2219 C2222 1.351 . S
C2220 H2206 0.929 . S
C2220 N2219 1.325 . S
C2220 C2224 1.416 . S
C2221 C2222 1.430 . S
C2221 C2223 1.404 . S
C2221 C2250 1.387 . S
C2222 C2214 1.448 . S
C2222 N2219 1.351 . S
C2222 C2221 1.430 . S
C2223 H2212 0.930 . S
C2223 C2221 1.404 . S
C2223 C2224 1.366 . S
C2224 H2203 0.930 . S
C2224 C2220 1.416 . S
C2224 C2223 1.366 . S
H2225 C2218 0.929 . S
H2226 C2249 0.931 . S
H2227 C2250 0.931 . S
O2228 Eu2184 2.462 . S
O2228 C2248 1.252 . S
O2229 Eu2184 2.373 . S
O2229 C2240 1.249 . S
O2230 Eu2195 2.335 . S
O2230 C2240 1.264 . S
O2231 Eu2184 2.432 . S
O2231 C2248 1.268 . S
O2232 Eu2184 2.291 . S
O2232 C2247 1.255 . S
O2233 Eu2195 2.372 . S
O2233 C2247 1.257 . S
O2234 Eu2195 2.462 . S
O2234 C2259 1.252 . S
O2235 Eu2195 2.373 . S
O2235 C2251 1.249 . S
O2236 Eu2184 2.335 . S
O2236 C2251 1.264 . S
O2237 Eu2195 2.432 . S
O2237 C2259 1.268 . S
O2238 Eu2195 2.291 . S
O2238 C2258 1.255 . S
O2239 Eu2184 2.372 . S
O2239 C2258 1.257 . S
C2240 O2229 1.249 . S
C2240 O2230 1.264 . S
C2241 C2244 1.382 . S
C2241 C2246 1.390 . S
C2241 C2248 1.506 . S
C2242 C2243 1.398 . S
C2242 C2246 1.392 . S
C2243 C2242 1.398 . S
C2243 C2245 1.372 . S
C2243 H2260 0.931 . S
C2244 C2241 1.382 . S
C2244 C2245 1.390 . S
C2244 H2261 0.931 . S
C2245 C2243 1.372 . S
C2245 C2244 1.390 . S
C2245 H2262 0.929 . S
C2246 C2241 1.390 . S
C2246 C2242 1.392 . S
C2246 H2263 0.930 . S
C2247 O2232 1.255 . S
C2247 O2233 1.257 . S
C2248 Eu2184 2.787 . S
C2248 O2228 1.252 . S
C2248 O2231 1.268 . S
C2248 C2241 1.506 . S
C2249 C2216 1.439 . S
C2249 H2226 0.931 . S
C2249 C2250 1.374 . S
C2250 C2221 1.387 . S
C2250 H2227 0.931 . S
C2250 C2249 1.374 . S
C2251 O2235 1.249 . S
C2251 O2236 1.264 . S
C2252 C2255 1.382 . S
C2252 C2256 1.390 . S
C2252 C2259 1.506 1_655 S
C2253 C2254 1.398 . S
C2253 C2256 1.392 . S
C2254 C2253 1.398 . S
C2254 C2257 1.372 . S
C2254 H2264 0.931 . S
C2255 C2252 1.382 . S
C2255 C2257 1.390 . S
C2255 H2265 0.931 . S
C2256 C2252 1.390 . S
C2256 C2253 1.392 . S
C2256 H2266 0.930 . S
C2257 C2254 1.372 . S
C2257 C2255 1.390 . S
C2257 H2267 0.929 . S
C2258 O2238 1.255 . S
C2258 O2239 1.257 . S
C2259 Eu2195 2.787 . S
C2259 O2234 1.252 . S
C2259 O2237 1.268 . S
C2259 C2252 1.506 1_455 S
H2260 C2243 0.931 . S
H2261 C2244 0.931 . S
H2262 C2245 0.929 . S
H2263 C2246 0.930 . S
H2264 C2254 0.931 . S
H2265 C2255 0.931 . S
H2266 C2256 0.930 . S
H2267 C2257 0.929 . S
Eu2268 N2297 2.600 . S
Eu2268 N2303 2.562 . S
Eu2268 O2312 2.462 . S
Eu2268 O2313 2.373 . S
Eu2268 O2315 2.432 . S
Eu2268 O2316 2.291 . S
Eu2268 O2320 2.335 . S
Eu2268 O2323 2.372 . S
Eu2268 C2332 2.787 . S
C2269 N2270 1.365 . S
C2269 C2272 1.405 . S
C2269 C2276 1.448 . S
N2270 C2269 1.365 . S
N2270 C2273 1.319 . S
N2270 Eu2279 2.600 . S
C2271 C2273 1.397 . S
C2271 C2274 1.367 . S
C2271 H2291 0.931 . S
C2272 C2269 1.405 . S
C2272 C2274 1.403 . S
C2272 C2278 1.439 . S
C2273 N2270 1.319 . S
C2273 C2271 1.397 . S
C2273 H2284 0.930 . S
C2274 C2271 1.367 . S
C2274 C2272 1.403 . S
C2274 H2295 0.929 . S
C2275 C2276 1.430 . S
C2275 C2277 1.387 . S
C2275 C2281 1.404 . S
C2276 C2269 1.448 . S
C2276 C2275 1.430 . S
C2276 N2280 1.351 . S
C2277 C2275 1.387 . S
C2277 C2278 1.374 . S
C2277 H2292 0.931 . S
C2278 C2272 1.439 . S
C2278 C2277 1.374 . S
C2278 H2293 0.931 . S
Eu2279 N2270 2.600 . S
Eu2279 N2280 2.562 . S
Eu2279 O2314 2.335 . S
Eu2279 O2317 2.372 . S
Eu2279 O2318 2.462 . S
Eu2279 O2319 2.373 . S
Eu2279 O2321 2.432 . S
Eu2279 O2322 2.291 . S
Eu2279 C2343 2.787 . S
N2280 C2276 1.351 . S
N2280 Eu2279 2.562 . S
N2280 C2282 1.325 . S
C2281 C2275 1.404 . S
C2281 C2283 1.366 . S
C2281 H2289 0.930 . S
C2282 N2280 1.325 . S
C2282 C2283 1.416 . S
C2282 H2288 0.929 . S
C2283 C2281 1.366 . S
C2283 C2282 1.416 . S
C2283 H2285 0.930 . S
H2284 C2273 0.930 . S
H2285 C2283 0.930 . S
H2286 C2301 0.930 . S
H2287 C2308 0.930 . S
H2288 C2282 0.929 . S
H2289 C2281 0.930 . S
H2290 C2304 0.929 . S
H2291 C2271 0.931 . S
H2292 C2277 0.931 . S
H2293 C2278 0.931 . S
H2294 C2299 0.931 . S
H2295 C2274 0.929 . S
H2296 C2307 0.930 . S
N2297 Eu2268 2.600 . S
N2297 C2298 1.365 . S
N2297 C2301 1.319 . S
C2298 N2297 1.365 . S
C2298 C2300 1.405 . S
C2298 C2306 1.448 . S
C2299 H2294 0.931 . S
C2299 C2301 1.397 . S
C2299 C2302 1.367 . S
C2300 C2298 1.405 . S
C2300 C2302 1.403 . S
C2300 C2333 1.439 . S
C2301 H2286 0.930 . S
C2301 N2297 1.319 . S
C2301 C2299 1.397 . S
C2302 C2299 1.367 . S
C2302 C2300 1.403 . S
C2302 H2309 0.929 . S
N2303 Eu2268 2.562 . S
N2303 C2304 1.325 . S
N2303 C2306 1.351 . S
C2304 H2290 0.929 . S
C2304 N2303 1.325 . S
C2304 C2308 1.416 . S
C2305 C2306 1.430 . S
C2305 C2307 1.404 . S
C2305 C2334 1.387 . S
C2306 C2298 1.448 . S
C2306 N2303 1.351 . S
C2306 C2305 1.430 . S
C2307 H2296 0.930 . S
C2307 C2305 1.404 . S
C2307 C2308 1.366 . S
C2308 H2287 0.930 . S
C2308 C2304 1.416 . S
C2308 C2307 1.366 . S
H2309 C2302 0.929 . S
H2310 C2333 0.931 . S
H2311 C2334 0.931 . S
O2312 Eu2268 2.462 . S
O2312 C2332 1.252 . S
O2313 Eu2268 2.373 . S
O2313 C2324 1.249 . S
O2314 Eu2279 2.335 . S
O2314 C2324 1.264 . S
O2315 Eu2268 2.432 . S
O2315 C2332 1.268 . S
O2316 Eu2268 2.291 . S
O2316 C2331 1.255 . S
O2317 Eu2279 2.372 . S
O2317 C2331 1.257 . S
O2318 Eu2279 2.462 . S
O2318 C2343 1.252 . S
O2319 Eu2279 2.373 . S
O2319 C2335 1.249 . S
O2320 Eu2268 2.335 . S
O2320 C2335 1.264 . S
O2321 Eu2279 2.432 . S
O2321 C2343 1.268 . S
O2322 Eu2279 2.291 . S
O2322 C2342 1.255 . S
O2323 Eu2268 2.372 . S
O2323 C2342 1.257 . S
C2324 O2313 1.249 . S
C2324 O2314 1.264 . S
C2325 C2328 1.382 . S
C2325 C2330 1.390 . S
C2325 C2332 1.506 . S
C2326 C2327 1.398 . S
C2326 C2330 1.392 . S
C2327 C2326 1.398 . S
C2327 C2329 1.372 . S
C2327 H2344 0.931 . S
C2328 C2325 1.382 . S
C2328 C2329 1.390 . S
C2328 H2345 0.931 . S
C2329 C2327 1.372 . S
C2329 C2328 1.390 . S
C2329 H2346 0.929 . S
C2330 C2325 1.390 . S
C2330 C2326 1.392 . S
C2330 H2347 0.930 . S
C2331 O2316 1.255 . S
C2331 O2317 1.257 . S
C2332 Eu2268 2.787 . S
C2332 O2312 1.252 . S
C2332 O2315 1.268 . S
C2332 C2325 1.506 . S
C2333 C2300 1.439 . S
C2333 H2310 0.931 . S
C2333 C2334 1.374 . S
C2334 C2305 1.387 . S
C2334 H2311 0.931 . S
C2334 C2333 1.374 . S
C2335 O2319 1.249 . S
C2335 O2320 1.264 . S
C2336 C2339 1.382 . S
C2336 C2340 1.390 . S
C2336 C2343 1.506 . S
C2337 C2338 1.398 . S
C2337 C2340 1.392 . S
C2338 C2337 1.398 . S
C2338 C2341 1.372 . S
C2338 H2348 0.931 . S
C2339 C2336 1.382 . S
C2339 C2341 1.390 . S
C2339 H2349 0.931 . S
C2340 C2336 1.390 . S
C2340 C2337 1.392 . S
C2340 H2350 0.930 . S
C2341 C2338 1.372 . S
C2341 C2339 1.390 . S
C2341 H2351 0.929 . S
C2342 O2322 1.255 . S
C2342 O2323 1.257 . S
C2343 Eu2279 2.787 . S
C2343 O2318 1.252 . S
C2343 O2321 1.268 . S
C2343 C2336 1.506 . S
H2344 C2327 0.931 . S
H2345 C2328 0.931 . S
H2346 C2329 0.929 . S
H2347 C2330 0.930 . S
H2348 C2338 0.931 . S
H2349 C2339 0.931 . S
H2350 C2340 0.930 . S
H2351 C2341 0.929 . S
Eu2352 N2381 2.600 . S
Eu2352 N2387 2.562 . S
Eu2352 O2396 2.462 . S
Eu2352 O2397 2.373 . S
Eu2352 O2399 2.432 . S
Eu2352 O2400 2.291 . S
Eu2352 O2404 2.335 . S
Eu2352 O2407 2.372 . S
Eu2352 C2416 2.787 . S
C2353 N2354 1.365 . S
C2353 C2356 1.405 . S
C2353 C2360 1.448 . S
N2354 C2353 1.365 . S
N2354 C2357 1.319 . S
N2354 Eu2363 2.600 . S
C2355 C2357 1.397 . S
C2355 C2358 1.367 . S
C2355 H2375 0.931 . S
C2356 C2353 1.405 . S
C2356 C2358 1.403 . S
C2356 C2362 1.439 . S
C2357 N2354 1.319 . S
C2357 C2355 1.397 . S
C2357 H2368 0.930 . S
C2358 C2355 1.367 . S
C2358 C2356 1.403 . S
C2358 H2379 0.929 . S
C2359 C2360 1.430 . S
C2359 C2361 1.387 . S
C2359 C2365 1.404 . S
C2360 C2353 1.448 . S
C2360 C2359 1.430 . S
C2360 N2364 1.351 . S
C2361 C2359 1.387 . S
C2361 C2362 1.374 . S
C2361 H2376 0.931 . S
C2362 C2356 1.439 . S
C2362 C2361 1.374 . S
C2362 H2377 0.931 . S
Eu2363 N2354 2.600 . S
Eu2363 N2364 2.562 . S
Eu2363 O2398 2.335 . S
Eu2363 O2401 2.372 . S
Eu2363 O2402 2.462 . S
Eu2363 O2403 2.373 . S
Eu2363 O2405 2.432 . S
Eu2363 O2406 2.291 . S
Eu2363 C2427 2.787 . S
N2364 C2360 1.351 . S
N2364 Eu2363 2.562 . S
N2364 C2366 1.325 . S
C2365 C2359 1.404 . S
C2365 C2367 1.366 . S
C2365 H2373 0.930 . S
C2366 N2364 1.325 . S
C2366 C2367 1.416 . S
C2366 H2372 0.929 . S
C2367 C2365 1.366 . S
C2367 C2366 1.416 . S
C2367 H2369 0.930 . S
H2368 C2357 0.930 . S
H2369 C2367 0.930 . S
H2370 C2385 0.930 . S
H2371 C2392 0.930 . S
H2372 C2366 0.929 . S
H2373 C2365 0.930 . S
H2374 C2388 0.929 . S
H2375 C2355 0.931 . S
H2376 C2361 0.931 . S
H2377 C2362 0.931 . S
H2378 C2383 0.931 . S
H2379 C2358 0.929 . S
H2380 C2391 0.930 . S
N2381 Eu2352 2.600 . S
N2381 C2382 1.365 . S
N2381 C2385 1.319 . S
C2382 N2381 1.365 . S
C2382 C2384 1.405 . S
C2382 C2390 1.448 . S
C2383 H2378 0.931 . S
C2383 C2385 1.397 . S
C2383 C2386 1.367 . S
C2384 C2382 1.405 . S
C2384 C2386 1.403 . S
C2384 C2417 1.439 . S
C2385 H2370 0.930 . S
C2385 N2381 1.319 . S
C2385 C2383 1.397 . S
C2386 C2383 1.367 . S
C2386 C2384 1.403 . S
C2386 H2393 0.929 . S
N2387 Eu2352 2.562 . S
N2387 C2388 1.325 . S
N2387 C2390 1.351 . S
C2388 H2374 0.929 . S
C2388 N2387 1.325 . S
C2388 C2392 1.416 . S
C2389 C2390 1.430 . S
C2389 C2391 1.404 . S
C2389 C2418 1.387 . S
C2390 C2382 1.448 . S
C2390 N2387 1.351 . S
C2390 C2389 1.430 . S
C2391 H2380 0.930 . S
C2391 C2389 1.404 . S
C2391 C2392 1.366 . S
C2392 H2371 0.930 . S
C2392 C2388 1.416 . S
C2392 C2391 1.366 . S
H2393 C2386 0.929 . S
H2394 C2417 0.931 . S
H2395 C2418 0.931 . S
O2396 Eu2352 2.462 . S
O2396 C2416 1.252 . S
O2397 Eu2352 2.373 . S
O2397 C2408 1.249 . S
O2398 Eu2363 2.335 . S
O2398 C2408 1.264 . S
O2399 Eu2352 2.432 . S
O2399 C2416 1.268 . S
O2400 Eu2352 2.291 . S
O2400 C2415 1.255 . S
O2401 Eu2363 2.372 . S
O2401 C2415 1.257 . S
O2402 Eu2363 2.462 . S
O2402 C2427 1.252 . S
O2403 Eu2363 2.373 . S
O2403 C2419 1.249 . S
O2404 Eu2352 2.335 . S
O2404 C2419 1.264 . S
O2405 Eu2363 2.432 . S
O2405 C2427 1.268 . S
O2406 Eu2363 2.291 . S
O2406 C2426 1.255 . S
O2407 Eu2352 2.372 . S
O2407 C2426 1.257 . S
C2408 O2397 1.249 . S
C2408 O2398 1.264 . S
C2409 C2412 1.382 . S
C2409 C2414 1.390 . S
C2409 C2416 1.506 . S
C2410 C2411 1.398 . S
C2410 C2414 1.392 . S
C2411 C2410 1.398 . S
C2411 C2413 1.372 . S
C2411 H2428 0.931 . S
C2412 C2409 1.382 . S
C2412 C2413 1.390 . S
C2412 H2429 0.931 . S
C2413 C2411 1.372 . S
C2413 C2412 1.390 . S
C2413 H2430 0.929 . S
C2414 C2409 1.390 . S
C2414 C2410 1.392 . S
C2414 H2431 0.930 . S
C2415 O2400 1.255 . S
C2415 O2401 1.257 . S
C2416 Eu2352 2.787 . S
C2416 O2396 1.252 . S
C2416 O2399 1.268 . S
C2416 C2409 1.506 . S
C2417 C2384 1.439 . S
C2417 H2394 0.931 . S
C2417 C2418 1.374 . S
C2418 C2389 1.387 . S
C2418 H2395 0.931 . S
C2418 C2417 1.374 . S
C2419 O2403 1.249 . S
C2419 O2404 1.264 . S
C2420 C2423 1.382 . S
C2420 C2424 1.390 . S
C2420 C2427 1.506 . S
C2421 C2422 1.398 . S
C2421 C2424 1.392 . S
C2422 C2421 1.398 . S
C2422 C2425 1.372 . S
C2422 H2432 0.931 . S
C2423 C2420 1.382 . S
C2423 C2425 1.390 . S
C2423 H2433 0.931 . S
C2424 C2420 1.390 . S
C2424 C2421 1.392 . S
C2424 H2434 0.930 . S
C2425 C2422 1.372 . S
C2425 C2423 1.390 . S
C2425 H2435 0.929 . S
C2426 O2406 1.255 . S
C2426 O2407 1.257 . S
C2427 Eu2363 2.787 . S
C2427 O2402 1.252 . S
C2427 O2405 1.268 . S
C2427 C2420 1.506 . S
H2428 C2411 0.931 . S
H2429 C2412 0.931 . S
H2430 C2413 0.929 . S
H2431 C2414 0.930 . S
H2432 C2422 0.931 . S
H2433 C2423 0.931 . S
H2434 C2424 0.930 . S
H2435 C2425 0.929 . S
Eu2436 N2465 2.600 . S
Eu2436 N2471 2.562 . S
Eu2436 O2480 2.462 1_554 S
Eu2436 O2481 2.373 . S
Eu2436 O2483 2.432 1_554 S
Eu2436 O2484 2.291 1_554 S
Eu2436 O2488 2.335 1_554 S
Eu2436 O2491 2.372 . S
Eu2436 C2500 2.787 1_554 S
C2437 N2438 1.365 . S
C2437 C2440 1.405 . S
C2437 C2444 1.448 . S
N2438 C2437 1.365 . S
N2438 C2441 1.319 . S
N2438 Eu2447 2.600 1_556 S
C2439 C2441 1.397 . S
C2439 C2442 1.367 . S
C2439 H2459 0.931 . S
C2440 C2437 1.405 . S
C2440 C2442 1.403 . S
C2440 C2446 1.439 . S
C2441 N2438 1.319 . S
C2441 C2439 1.397 . S
C2441 H2452 0.930 . S
C2442 C2439 1.367 . S
C2442 C2440 1.403 . S
C2442 H2463 0.929 . S
C2443 C2444 1.430 . S
C2443 C2445 1.387 . S
C2443 C2449 1.404 . S
C2444 C2437 1.448 . S
C2444 C2443 1.430 . S
C2444 N2448 1.351 . S
C2445 C2443 1.387 . S
C2445 C2446 1.374 . S
C2445 H2460 0.931 . S
C2446 C2440 1.439 . S
C2446 C2445 1.374 . S
C2446 H2461 0.931 . S
Eu2447 N2438 2.600 1_554 S
Eu2447 N2448 2.562 1_554 S
Eu2447 O2482 2.335 . S
Eu2447 O2485 2.372 1_554 S
Eu2447 O2486 2.462 . S
Eu2447 O2487 2.373 1_554 S
Eu2447 O2489 2.432 . S
Eu2447 O2490 2.291 . S
Eu2447 C2511 2.787 . S
N2448 C2444 1.351 . S
N2448 Eu2447 2.562 1_556 S
N2448 C2450 1.325 . S
C2449 C2443 1.404 . S
C2449 C2451 1.366 . S
C2449 H2457 0.930 . S
C2450 N2448 1.325 . S
C2450 C2451 1.416 . S
C2450 H2456 0.929 1_556 S
C2451 C2449 1.366 . S
C2451 C2450 1.416 . S
C2451 H2453 0.930 . S
H2452 C2441 0.930 . S
H2453 C2451 0.930 . S
H2454 C2469 0.930 . S
H2455 C2476 0.930 . S
H2456 C2450 0.929 1_554 S
H2457 C2449 0.930 . S
H2458 C2472 0.929 . S
H2459 C2439 0.931 . S
H2460 C2445 0.931 . S
H2461 C2446 0.931 . S
H2462 C2467 0.931 . S
H2463 C2442 0.929 . S
H2464 C2475 0.930 . S
N2465 Eu2436 2.600 . S
N2465 C2466 1.365 . S
N2465 C2469 1.319 . S
C2466 N2465 1.365 . S
C2466 C2468 1.405 . S
C2466 C2474 1.448 . S
C2467 H2462 0.931 . S
C2467 C2469 1.397 . S
C2467 C2470 1.367 . S
C2468 C2466 1.405 . S
C2468 C2470 1.403 . S
C2468 C2501 1.439 . S
C2469 H2454 0.930 . S
C2469 N2465 1.319 . S
C2469 C2467 1.397 . S
C2470 C2467 1.367 . S
C2470 C2468 1.403 . S
C2470 H2477 0.929 . S
N2471 Eu2436 2.562 . S
N2471 C2472 1.325 . S
N2471 C2474 1.351 . S
C2472 H2458 0.929 . S
C2472 N2471 1.325 . S
C2472 C2476 1.416 . S
C2473 C2474 1.430 . S
C2473 C2475 1.404 . S
C2473 C2502 1.387 . S
C2474 C2466 1.448 . S
C2474 N2471 1.351 . S
C2474 C2473 1.430 . S
C2475 H2464 0.930 . S
C2475 C2473 1.404 . S
C2475 C2476 1.366 . S
C2476 H2455 0.930 . S
C2476 C2472 1.416 . S
C2476 C2475 1.366 . S
H2477 C2470 0.929 . S
H2478 C2501 0.931 . S
H2479 C2502 0.931 . S
O2480 Eu2436 2.462 1_556 S
O2480 C2500 1.252 . S
O2481 Eu2436 2.373 . S
O2481 C2492 1.249 . S
O2482 Eu2447 2.335 . S
O2482 C2492 1.264 . S
O2483 Eu2436 2.432 1_556 S
O2483 C2500 1.268 . S
O2484 Eu2436 2.291 1_556 S
O2484 C2499 1.255 . S
O2485 Eu2447 2.372 1_556 S
O2485 C2499 1.257 . S
O2486 Eu2447 2.462 . S
O2486 C2511 1.252 . S
O2487 Eu2447 2.373 1_556 S
O2487 C2503 1.249 . S
O2488 Eu2436 2.335 1_556 S
O2488 C2503 1.264 . S
O2489 Eu2447 2.432 . S
O2489 C2511 1.268 . S
O2490 Eu2447 2.291 . S
O2490 C2510 1.255 . S
O2491 Eu2436 2.372 . S
O2491 C2510 1.257 . S
C2492 O2481 1.249 . S
C2492 O2482 1.264 . S
C2493 C2496 1.382 . S
C2493 C2498 1.390 . S
C2493 C2500 1.506 . S
C2494 C2495 1.398 . S
C2494 C2498 1.392 . S
C2495 C2494 1.398 . S
C2495 C2497 1.372 . S
C2495 H2512 0.931 . S
C2496 C2493 1.382 . S
C2496 C2497 1.390 . S
C2496 H2513 0.931 . S
C2497 C2495 1.372 . S
C2497 C2496 1.390 . S
C2497 H2514 0.929 . S
C2498 C2493 1.390 . S
C2498 C2494 1.392 . S
C2498 H2515 0.930 . S
C2499 O2484 1.255 . S
C2499 O2485 1.257 . S
C2500 Eu2436 2.787 1_556 S
C2500 O2480 1.252 . S
C2500 O2483 1.268 . S
C2500 C2493 1.506 . S
C2501 C2468 1.439 . S
C2501 H2478 0.931 . S
C2501 C2502 1.374 . S
C2502 C2473 1.387 . S
C2502 H2479 0.931 . S
C2502 C2501 1.374 . S
C2503 O2487 1.249 . S
C2503 O2488 1.264 . S
C2504 C2507 1.382 . S
C2504 C2508 1.390 . S
C2504 C2511 1.506 . S
C2505 C2506 1.398 . S
C2505 C2508 1.392 . S
C2506 C2505 1.398 . S
C2506 C2509 1.372 . S
C2506 H2516 0.931 . S
C2507 C2504 1.382 . S
C2507 C2509 1.390 . S
C2507 H2517 0.931 . S
C2508 C2504 1.390 . S
C2508 C2505 1.392 . S
C2508 H2518 0.930 . S
C2509 C2506 1.372 . S
C2509 C2507 1.390 . S
C2509 H2519 0.929 . S
C2510 O2490 1.255 . S
C2510 O2491 1.257 . S
C2511 Eu2447 2.787 . S
C2511 O2486 1.252 . S
C2511 O2489 1.268 . S
C2511 C2504 1.506 . S
H2512 C2495 0.931 . S
H2513 C2496 0.931 . S
H2514 C2497 0.929 . S
H2515 C2498 0.930 . S
H2516 C2506 0.931 . S
H2517 C2507 0.931 . S
H2518 C2508 0.930 . S
H2519 C2509 0.929 . S
Eu2520 N2549 2.600 . S
Eu2520 N2555 2.562 . S
Eu2520 O2564 2.462 . S
Eu2520 O2565 2.373 . S
Eu2520 O2567 2.432 . S
Eu2520 O2568 2.291 . S
Eu2520 O2572 2.335 . S
Eu2520 O2575 2.372 . S
Eu2520 C2584 2.787 . S
C2521 N2522 1.365 1_655 S
C2521 C2524 1.405 . S
C2521 C2528 1.448 . S
N2522 C2521 1.365 1_455 S
N2522 C2525 1.319 . S
N2522 Eu2531 2.600 . S
C2523 C2525 1.397 1_655 S
C2523 C2526 1.367 . S
C2523 H2543 0.931 . S
C2524 C2521 1.405 . S
C2524 C2526 1.403 . S
C2524 C2530 1.439 . S
C2525 N2522 1.319 . S
C2525 C2523 1.397 1_455 S
C2525 H2536 0.930 . S
C2526 C2523 1.367 . S
C2526 C2524 1.403 . S
C2526 H2547 0.929 . S
C2527 C2528 1.430 . S
C2527 C2529 1.387 . S
C2527 C2533 1.404 . S
C2528 C2521 1.448 . S
C2528 C2527 1.430 . S
C2528 N2532 1.351 1_655 S
C2529 C2527 1.387 . S
C2529 C2530 1.374 . S
C2529 H2544 0.931 . S
C2530 C2524 1.439 . S
C2530 C2529 1.374 . S
C2530 H2545 0.931 . S
Eu2531 N2522 2.600 . S
Eu2531 N2532 2.562 . S
Eu2531 O2566 2.335 . S
Eu2531 O2569 2.372 . S
Eu2531 O2570 2.462 . S
Eu2531 O2571 2.373 . S
Eu2531 O2573 2.432 . S
Eu2531 O2574 2.291 . S
Eu2531 C2595 2.787 . S
N2532 C2528 1.351 1_455 S
N2532 Eu2531 2.562 . S
N2532 C2534 1.325 . S
C2533 C2527 1.404 . S
C2533 C2535 1.366 1_655 S
C2533 H2541 0.930 . S
C2534 N2532 1.325 . S
C2534 C2535 1.416 . S
C2534 H2540 0.929 . S
C2535 C2533 1.366 1_455 S
C2535 C2534 1.416 . S
C2535 H2537 0.930 . S
H2536 C2525 0.930 . S
H2537 C2535 0.930 . S
H2538 C2553 0.930 . S
H2539 C2560 0.930 . S
H2540 C2534 0.929 . S
H2541 C2533 0.930 . S
H2542 C2556 0.929 . S
H2543 C2523 0.931 . S
H2544 C2529 0.931 . S
H2545 C2530 0.931 . S
H2546 C2551 0.931 . S
H2547 C2526 0.929 . S
H2548 C2559 0.930 . S
N2549 Eu2520 2.600 . S
N2549 C2550 1.365 . S
N2549 C2553 1.319 . S
C2550 N2549 1.365 . S
C2550 C2552 1.405 . S
C2550 C2558 1.448 . S
C2551 H2546 0.931 . S
C2551 C2553 1.397 . S
C2551 C2554 1.367 . S
C2552 C2550 1.405 . S
C2552 C2554 1.403 . S
C2552 C2585 1.439 . S
C2553 H2538 0.930 . S
C2553 N2549 1.319 . S
C2553 C2551 1.397 . S
C2554 C2551 1.367 . S
C2554 C2552 1.403 . S
C2554 H2561 0.929 . S
N2555 Eu2520 2.562 . S
N2555 C2556 1.325 . S
N2555 C2558 1.351 . S
C2556 H2542 0.929 . S
C2556 N2555 1.325 . S
C2556 C2560 1.416 . S
C2557 C2558 1.430 . S
C2557 C2559 1.404 . S
C2557 C2586 1.387 . S
C2558 C2550 1.448 . S
C2558 N2555 1.351 . S
C2558 C2557 1.430 . S
C2559 H2548 0.930 . S
C2559 C2557 1.404 . S
C2559 C2560 1.366 . S
C2560 H2539 0.930 . S
C2560 C2556 1.416 . S
C2560 C2559 1.366 . S
H2561 C2554 0.929 . S
H2562 C2585 0.931 . S
H2563 C2586 0.931 . S
O2564 Eu2520 2.462 . S
O2564 C2584 1.252 . S
O2565 Eu2520 2.373 . S
O2565 C2576 1.249 . S
O2566 Eu2531 2.335 . S
O2566 C2576 1.264 . S
O2567 Eu2520 2.432 . S
O2567 C2584 1.268 . S
O2568 Eu2520 2.291 . S
O2568 C2583 1.255 . S
O2569 Eu2531 2.372 . S
O2569 C2583 1.257 . S
O2570 Eu2531 2.462 . S
O2570 C2595 1.252 . S
O2571 Eu2531 2.373 . S
O2571 C2587 1.249 . S
O2572 Eu2520 2.335 . S
O2572 C2587 1.264 . S
O2573 Eu2531 2.432 . S
O2573 C2595 1.268 . S
O2574 Eu2531 2.291 . S
O2574 C2594 1.255 . S
O2575 Eu2520 2.372 . S
O2575 C2594 1.257 . S
C2576 O2565 1.249 . S
C2576 O2566 1.264 . S
C2577 C2580 1.382 . S
C2577 C2582 1.390 . S
C2577 C2584 1.506 . S
C2578 C2579 1.398 . S
C2578 C2582 1.392 . S
C2579 C2578 1.398 . S
C2579 C2581 1.372 . S
C2579 H2596 0.931 . S
C2580 C2577 1.382 . S
C2580 C2581 1.390 . S
C2580 H2597 0.931 . S
C2581 C2579 1.372 . S
C2581 C2580 1.390 . S
C2581 H2598 0.929 . S
C2582 C2577 1.390 . S
C2582 C2578 1.392 . S
C2582 H2599 0.930 . S
C2583 O2568 1.255 . S
C2583 O2569 1.257 . S
C2584 Eu2520 2.787 . S
C2584 O2564 1.252 . S
C2584 O2567 1.268 . S
C2584 C2577 1.506 . S
C2585 C2552 1.439 . S
C2585 H2562 0.931 . S
C2585 C2586 1.374 . S
C2586 C2557 1.387 . S
C2586 H2563 0.931 . S
C2586 C2585 1.374 . S
C2587 O2571 1.249 . S
C2587 O2572 1.264 . S
C2588 C2591 1.382 . S
C2588 C2592 1.390 . S
C2588 C2595 1.506 1_655 S
C2589 C2590 1.398 . S
C2589 C2592 1.392 . S
C2590 C2589 1.398 . S
C2590 C2593 1.372 . S
C2590 H2600 0.931 . S
C2591 C2588 1.382 . S
C2591 C2593 1.390 . S
C2591 H2601 0.931 . S
C2592 C2588 1.390 . S
C2592 C2589 1.392 . S
C2592 H2602 0.930 . S
C2593 C2590 1.372 . S
C2593 C2591 1.390 . S
C2593 H2603 0.929 . S
C2594 O2574 1.255 . S
C2594 O2575 1.257 . S
C2595 Eu2531 2.787 . S
C2595 O2570 1.252 . S
C2595 O2573 1.268 . S
C2595 C2588 1.506 1_455 S
H2596 C2579 0.931 . S
H2597 C2580 0.931 . S
H2598 C2581 0.929 . S
H2599 C2582 0.930 . S
H2600 C2590 0.931 . S
H2601 C2591 0.931 . S
H2602 C2592 0.930 . S
H2603 C2593 0.929 . S
Eu2604 N2633 2.600 . S
Eu2604 N2639 2.562 . S
Eu2604 O2648 2.462 . S
Eu2604 O2649 2.373 . S
Eu2604 O2651 2.432 . S
Eu2604 O2652 2.291 . S
Eu2604 O2656 2.335 . S
Eu2604 O2659 2.372 . S
Eu2604 C2668 2.787 . S
C2605 N2606 1.365 . S
C2605 C2608 1.405 . S
C2605 C2612 1.448 . S
N2606 C2605 1.365 . S
N2606 C2609 1.319 . S
N2606 Eu2615 2.600 . S
C2607 C2609 1.397 . S
C2607 C2610 1.367 . S
C2607 H2627 0.931 . S
C2608 C2605 1.405 . S
C2608 C2610 1.403 . S
C2608 C2614 1.439 . S
C2609 N2606 1.319 . S
C2609 C2607 1.397 . S
C2609 H2620 0.930 . S
C2610 C2607 1.367 . S
C2610 C2608 1.403 . S
C2610 H2631 0.929 . S
C2611 C2612 1.430 . S
C2611 C2613 1.387 . S
C2611 C2617 1.404 . S
C2612 C2605 1.448 . S
C2612 C2611 1.430 . S
C2612 N2616 1.351 . S
C2613 C2611 1.387 . S
C2613 C2614 1.374 . S
C2613 H2628 0.931 . S
C2614 C2608 1.439 . S
C2614 C2613 1.374 . S
C2614 H2629 0.931 . S
Eu2615 N2606 2.600 . S
Eu2615 N2616 2.562 . S
Eu2615 O2650 2.335 . S
Eu2615 O2653 2.372 . S
Eu2615 O2654 2.462 . S
Eu2615 O2655 2.373 . S
Eu2615 O2657 2.432 . S
Eu2615 O2658 2.291 . S
Eu2615 C2679 2.787 . S
N2616 C2612 1.351 . S
N2616 Eu2615 2.562 . S
N2616 C2618 1.325 . S
C2617 C2611 1.404 . S
C2617 C2619 1.366 . S
C2617 H2625 0.930 . S
C2618 N2616 1.325 . S
C2618 C2619 1.416 . S
C2618 H2624 0.929 . S
C2619 C2617 1.366 . S
C2619 C2618 1.416 . S
C2619 H2621 0.930 . S
H2620 C2609 0.930 . S
H2621 C2619 0.930 . S
H2622 C2637 0.930 . S
H2623 C2644 0.930 . S
H2624 C2618 0.929 . S
H2625 C2617 0.930 . S
H2626 C2640 0.929 . S
H2627 C2607 0.931 . S
H2628 C2613 0.931 . S
H2629 C2614 0.931 . S
H2630 C2635 0.931 . S
H2631 C2610 0.929 . S
H2632 C2643 0.930 . S
N2633 Eu2604 2.600 . S
N2633 C2634 1.365 . S
N2633 C2637 1.319 . S
C2634 N2633 1.365 . S
C2634 C2636 1.405 . S
C2634 C2642 1.448 . S
C2635 H2630 0.931 . S
C2635 C2637 1.397 . S
C2635 C2638 1.367 . S
C2636 C2634 1.405 . S
C2636 C2638 1.403 . S
C2636 C2669 1.439 . S
C2637 H2622 0.930 . S
C2637 N2633 1.319 . S
C2637 C2635 1.397 . S
C2638 C2635 1.367 . S
C2638 C2636 1.403 . S
C2638 H2645 0.929 . S
N2639 Eu2604 2.562 . S
N2639 C2640 1.325 . S
N2639 C2642 1.351 . S
C2640 H2626 0.929 . S
C2640 N2639 1.325 . S
C2640 C2644 1.416 . S
C2641 C2642 1.430 . S
C2641 C2643 1.404 . S
C2641 C2670 1.387 . S
C2642 C2634 1.448 . S
C2642 N2639 1.351 . S
C2642 C2641 1.430 . S
C2643 H2632 0.930 . S
C2643 C2641 1.404 . S
C2643 C2644 1.366 . S
C2644 H2623 0.930 . S
C2644 C2640 1.416 . S
C2644 C2643 1.366 . S
H2645 C2638 0.929 . S
H2646 C2669 0.931 . S
H2647 C2670 0.931 . S
O2648 Eu2604 2.462 . S
O2648 C2668 1.252 . S
O2649 Eu2604 2.373 . S
O2649 C2660 1.249 . S
O2650 Eu2615 2.335 . S
O2650 C2660 1.264 . S
O2651 Eu2604 2.432 . S
O2651 C2668 1.268 . S
O2652 Eu2604 2.291 . S
O2652 C2667 1.255 . S
O2653 Eu2615 2.372 . S
O2653 C2667 1.257 . S
O2654 Eu2615 2.462 . S
O2654 C2679 1.252 . S
O2655 Eu2615 2.373 . S
O2655 C2671 1.249 . S
O2656 Eu2604 2.335 . S
O2656 C2671 1.264 . S
O2657 Eu2615 2.432 . S
O2657 C2679 1.268 . S
O2658 Eu2615 2.291 . S
O2658 C2678 1.255 . S
O2659 Eu2604 2.372 . S
O2659 C2678 1.257 . S
C2660 O2649 1.249 . S
C2660 O2650 1.264 . S
C2661 C2664 1.382 . S
C2661 C2666 1.390 . S
C2661 C2668 1.506 . S
C2662 C2663 1.398 . S
C2662 C2666 1.392 . S
C2663 C2662 1.398 . S
C2663 C2665 1.372 . S
C2663 H2680 0.931 . S
C2664 C2661 1.382 . S
C2664 C2665 1.390 . S
C2664 H2681 0.931 . S
C2665 C2663 1.372 . S
C2665 C2664 1.390 . S
C2665 H2682 0.929 . S
C2666 C2661 1.390 . S
C2666 C2662 1.392 . S
C2666 H2683 0.930 . S
C2667 O2652 1.255 . S
C2667 O2653 1.257 . S
C2668 Eu2604 2.787 . S
C2668 O2648 1.252 . S
C2668 O2651 1.268 . S
C2668 C2661 1.506 . S
C2669 C2636 1.439 . S
C2669 H2646 0.931 . S
C2669 C2670 1.374 . S
C2670 C2641 1.387 . S
C2670 H2647 0.931 . S
C2670 C2669 1.374 . S
C2671 O2655 1.249 . S
C2671 O2656 1.264 . S
C2672 C2675 1.382 . S
C2672 C2676 1.390 . S
C2672 C2679 1.506 . S
C2673 C2674 1.398 . S
C2673 C2676 1.392 . S
C2674 C2673 1.398 . S
C2674 C2677 1.372 . S
C2674 H2684 0.931 . S
C2675 C2672 1.382 . S
C2675 C2677 1.390 . S
C2675 H2685 0.931 . S
C2676 C2672 1.390 . S
C2676 C2673 1.392 . S
C2676 H2686 0.930 . S
C2677 C2674 1.372 . S
C2677 C2675 1.390 . S
C2677 H2687 0.929 . S
C2678 O2658 1.255 . S
C2678 O2659 1.257 . S
C2679 Eu2615 2.787 . S
C2679 O2654 1.252 . S
C2679 O2657 1.268 . S
C2679 C2672 1.506 . S
H2680 C2663 0.931 . S
H2681 C2664 0.931 . S
H2682 C2665 0.929 . S
H2683 C2666 0.930 . S
H2684 C2674 0.931 . S
H2685 C2675 0.931 . S
H2686 C2676 0.930 . S
H2687 C2677 0.929 . S
C69 C319 0.924 . S
C67 C153 0.924 . S
C237 C151 0.924 . S
C235 C321 0.924 . S
C487 C405 0.924 . S
C489 C571 0.924 . S
C655 C573 0.924 . S
C403 C657 0.924 . S
C730 C980 0.924 . S
C814 C728 0.924 . S
C898 C812 0.924 . S
C982 C896 0.924 . S
C1066 C1148 0.924 . S
C1150 C1232 0.924 . S
C1316 C1234 0.924 . S
C1064 C1318 0.924 . S
C1413 C1663 0.924 . S
C1411 C1497 0.924 . S
C1495 C1581 0.924 . S
C1665 C1579 0.924 . S
C1749 C1831 0.924 . S
C1915 C1833 0.924 . S
C1917 C1999 0.924 . S
C1747 C2001 0.924 . S
C2324 C2074 0.924 . S
C2072 C2158 0.924 . S
C2242 C2156 0.924 . S
C2240 C2326 0.924 . S
C2492 C2410 0.924 . S
C2576 C2494 0.924 . S
C2660 C2578 0.924 . S
C2662 C2408 0.924 . S
C2337 C63 1.539 . S
C147 C741 1.539 . S
C231 C2169 1.539 . S
C315 C909 1.539 . S
C399 C2505 1.539 . S
C1245 C483 1.539 . S
C2673 C567 1.539 . S
C651 C1077 1.539 . S
C746 C1654 1.539 . S
C58 C830 1.539 . S
C1486 C914 1.539 . S
C226 C998 1.539 . S
C1822 C1082 1.539 . S
C562 C1166 1.539 . S
C1250 C1990 1.539 . S
C1334 C394 1.539 . S
C1407 C993 1.539 . S
C1491 C2085 1.539 . S
C1575 C825 1.539 . S
C1659 C2253 1.539 . S
C1743 C1161 1.539 . S
C1827 C2589 1.539 . S
C1329 C1911 1.539 . S
C1995 C2421 1.539 . S
C310 C2090 1.539 . S
C1402 C2174 1.539 . S
C142 C2258 1.539 . S
C1570 C2342 1.539 . S
C478 C2426 1.539 . S
C2510 C1906 1.539 . S
C2594 C646 1.539 . S
C1738 C2678 1.539 . S
C74 C410 2.777 1_545 S
C158 C494 2.777 . S
C242 C578 2.777 1_565 S
C662 C326 2.777 1_554 S
C1071 C735 2.777 1_545 S
C1155 C819 2.777 . S
C903 C1239 2.777 1_545 S
C987 C1323 2.777 1_554 S
C1418 C1754 2.777 . S
C1838 C1502 2.777 1_554 S
C1922 C1586 2.777 . S
C2006 C1670 2.777 . S
C2415 C2079 2.777 . S
C2163 C2499 2.777 1_554 S
C2583 C2247 2.777 . S
C2331 C2667 2.777 . S
C644 C56 3.311 . S
C140 C392 3.311 . S
C224 C476 3.311 . S
C560 C308 3.311 . S
C739 C1327 3.311 . S
C1075 C823 3.311 . S
C1159 C907 3.311 . S
C991 C1243 3.311 . S
C1400 C1988 3.311 . S
C1736 C1484 3.311 . S
C1820 C1568 3.311 . S
C1904 C1652 3.311 . S
C2083 C2671 3.311 . S
C2419 C2167 3.311 . S
C2251 C2503 3.311 . S
C2587 C2335 3.311 . S
