# Generated by pormake.
# Topology gis, (4)-cn, num edge types: 1
# Building blocks:
#     Node 0, Type 0, BuildingBlock: NAHDIM_clean_sbu_0, # of connection points: 4
#     Node 1, Type 0, BuildingBlock: NAHDIM_clean_sbu_0, # of connection points: 4
#     Node 2, Type 0, BuildingBlock: NAHDIM_clean_sbu_0, # of connection points: 4
#     Node 3, Type 0, BuildingBlock: NAHDIM_clean_sbu_0, # of connection points: 4
#     Node 4, Type 0, BuildingBlock: NAHDIM_clean_sbu_0, # of connection points: 4
#     Node 5, Type 0, BuildingBlock: NAHDIM_clean_sbu_0, # of connection points: 4
#     Node 6, Type 0, BuildingBlock: NAHDIM_clean_sbu_0, # of connection points: 4
#     Node 7, Type 0, BuildingBlock: NAHDIM_clean_sbu_0, # of connection points: 4
#     Node 8, Type 0, BuildingBlock: NAHDIM_clean_sbu_0, # of connection points: 4
#     Node 9, Type 0, BuildingBlock: NAHDIM_clean_sbu_0, # of connection points: 4
#     Node 10, Type 0, BuildingBlock: NAHDIM_clean_sbu_0, # of connection points: 4
#     Node 11, Type 0, BuildingBlock: NAHDIM_clean_sbu_0, # of connection points: 4
#     Node 12, Type 0, BuildingBlock: NAHDIM_clean_sbu_0, # of connection points: 4
#     Node 13, Type 0, BuildingBlock: NAHDIM_clean_sbu_0, # of connection points: 4
#     Node 14, Type 0, BuildingBlock: NAHDIM_clean_sbu_0, # of connection points: 4
#     Node 15, Type 0, BuildingBlock: NAHDIM_clean_sbu_0, # of connection points: 4
#     Edge 16, Type (0, 0), BuildingBlock: OJICUG_clean_linker_0, # of connection points: 2
#     Edge 17, Type (0, 0), BuildingBlock: OJICUG_clean_linker_0, # of connection points: 2
#     Edge 18, Type (0, 0), BuildingBlock: OJICUG_clean_linker_0, # of connection points: 2
#     Edge 19, Type (0, 0), BuildingBlock: OJICUG_clean_linker_0, # of connection points: 2
#     Edge 20, Type (0, 0), BuildingBlock: OJICUG_clean_linker_0, # of connection points: 2
#     Edge 21, Type (0, 0), BuildingBlock: OJICUG_clean_linker_0, # of connection points: 2
#     Edge 22, Type (0, 0), BuildingBlock: OJICUG_clean_linker_0, # of connection points: 2
#     Edge 23, Type (0, 0), BuildingBlock: OJICUG_clean_linker_0, # of connection points: 2
#     Edge 24, Type (0, 0), BuildingBlock: OJICUG_clean_linker_0, # of connection points: 2
#     Edge 25, Type (0, 0), BuildingBlock: OJICUG_clean_linker_0, # of connection points: 2
#     Edge 26, Type (0, 0), BuildingBlock: OJICUG_clean_linker_0, # of connection points: 2
#     Edge 27, Type (0, 0), BuildingBlock: OJICUG_clean_linker_0, # of connection points: 2
#     Edge 28, Type (0, 0), BuildingBlock: OJICUG_clean_linker_0, # of connection points: 2
#     Edge 29, Type (0, 0), BuildingBlock: OJICUG_clean_linker_0, # of connection points: 2
#     Edge 30, Type (0, 0), BuildingBlock: OJICUG_clean_linker_0, # of connection points: 2
#     Edge 31, Type (0, 0), BuildingBlock: OJICUG_clean_linker_0, # of connection points: 2
#     Edge 32, Type (0, 0), BuildingBlock: OJICUG_clean_linker_0, # of connection points: 2
#     Edge 33, Type (0, 0), BuildingBlock: OJICUG_clean_linker_0, # of connection points: 2
#     Edge 34, Type (0, 0), BuildingBlock: OJICUG_clean_linker_0, # of connection points: 2
#     Edge 35, Type (0, 0), BuildingBlock: OJICUG_clean_linker_0, # of connection points: 2
#     Edge 36, Type (0, 0), BuildingBlock: OJICUG_clean_linker_0, # of connection points: 2
#     Edge 37, Type (0, 0), BuildingBlock: OJICUG_clean_linker_0, # of connection points: 2
#     Edge 38, Type (0, 0), BuildingBlock: OJICUG_clean_linker_0, # of connection points: 2
#     Edge 39, Type (0, 0), BuildingBlock: OJICUG_clean_linker_0, # of connection points: 2
#     Edge 40, Type (0, 0), BuildingBlock: OJICUG_clean_linker_0, # of connection points: 2
#     Edge 41, Type (0, 0), BuildingBlock: OJICUG_clean_linker_0, # of connection points: 2
#     Edge 42, Type (0, 0), BuildingBlock: OJICUG_clean_linker_0, # of connection points: 2
#     Edge 43, Type (0, 0), BuildingBlock: OJICUG_clean_linker_0, # of connection points: 2
#     Edge 44, Type (0, 0), BuildingBlock: OJICUG_clean_linker_0, # of connection points: 2
#     Edge 45, Type (0, 0), BuildingBlock: OJICUG_clean_linker_0, # of connection points: 2
#     Edge 46, Type (0, 0), BuildingBlock: OJICUG_clean_linker_0, # of connection points: 2
#     Edge 47, Type (0, 0), BuildingBlock: OJICUG_clean_linker_0, # of connection points: 2
# Relax obj value: 0.161
# Max RMSD: 0.165
# Mean RMSD: 0.149
data_MOF--net-gis--node1-NAHDIM_clean_sbu_0--edge1-OJICUG_clean_linker_0
_symmetry_space_group_name_H-M    P1
_symmetry_Int_Tables_number       1
_symmetry_cell_setting            triclinic
loop_
_symmetry_equiv_pos_as_xyz
'x, y, z'
_cell_length_a     35.893117
_cell_length_b     33.361498
_cell_length_c     34.875388
_cell_angle_alpha  91.86047
_cell_angle_beta   91.420847
_cell_angle_gamma 90.228081
loop_
_atom_site_label
_atom_site_type_symbol
_atom_site_fract_x
_atom_site_fract_y
_atom_site_fract_z
_atom_type_partial_charge
C0 C 0.21216 0.53568 0.17502 0.0
O1 O 0.22208 0.51455 0.14455 0.0
O2 O 0.1666 0.53472 0.08025 0.0
Zn3 Zn 0.15812 0.57432 0.12366 0.0
O4 O 0.17397 0.62978 0.10972 0.0
C5 C 0.0835 0.54356 0.13 0.0
O6 O 0.09967 0.50918 0.12183 0.0
O7 O 0.18584 0.56082 0.17214 0.0
C8 C 0.15214 0.65208 0.0908 0.0
O9 O 0.11969 0.63768 0.07856 0.0
C10 C 0.19469 0.53373 0.05881 0.0
O11 O 0.22206 0.5595 0.06535 0.0
O12 O 0.10324 0.57524 0.13327 0.0
C13 C 0.72569 0.92302 0.34948 0.0
O14 O 0.73885 0.90156 0.37766 0.0
O15 O 0.66272 0.93556 0.43746 0.0
Zn16 Zn 0.65614 0.90836 0.38547 0.0
O17 O 0.66396 0.84901 0.38884 0.0
C18 C 0.58819 0.95032 0.36521 0.0
O19 O 0.60694 0.98232 0.37747 0.0
O20 O 0.69104 0.93037 0.34748 0.0
C21 C 0.64299 0.82892 0.40998 0.0
O22 O 0.61809 0.84793 0.43063 0.0
C23 C 0.68041 0.96837 0.44321 0.0
O24 O 0.69608 0.98544 0.41422 0.0
O25 O 0.60373 0.91622 0.36606 0.0
C26 C 0.32647 0.46543 0.58015 0.0
O27 O 0.33535 0.488 0.61059 0.0
O28 O 0.31254 0.40908 0.67241 0.0
Zn29 Zn 0.34805 0.40158 0.62938 0.0
O30 O 0.39945 0.42239 0.64245 0.0
C31 C 0.32474 0.31939 0.6163 0.0
O32 O 0.29164 0.33421 0.62327 0.0
O33 O 0.32896 0.4276 0.58199 0.0
C34 C 0.41904 0.40609 0.6684 0.0
O35 O 0.40374 0.37844 0.68901 0.0
C36 C 0.31038 0.43898 0.69573 0.0
O37 O 0.33351 0.46931 0.69309 0.0
O38 O 0.35284 0.34269 0.61729 0.0
C39 C 0.79493 0.04835 0.9677 0.0
O40 O 0.77502 0.0332 0.93859 0.0
O41 O 0.78699 0.09318 0.87119 0.0
Zn42 Zn 0.828 0.09983 0.91111 0.0
O43 O 0.87403 0.07256 0.89241 0.0
C44 C 0.81423 0.1846 0.91082 0.0
O45 O 0.77985 0.17215 0.90408 0.0
O46 O 0.81688 0.0775 0.96241 0.0
C47 C 0.88842 0.08201 0.86104 0.0
O48 O 0.87178 0.10885 0.8399 0.0
C49 C 0.77834 0.06202 0.85096 0.0
O50 O 0.79537 0.02799 0.85724 0.0
O51 O 0.83966 0.15889 0.91647 0.0
C52 C 0.19979 0.43502 0.81323 0.0
O53 O 0.19172 0.46674 0.8347 0.0
O54 O 0.15874 0.41823 0.91001 0.0
Zn55 Zn 0.14836 0.38817 0.86005 0.0
O56 O 0.15137 0.3289 0.86673 0.0
C57 C 0.08217 0.43481 0.84382 0.0
O58 O 0.10338 0.46527 0.85537 0.0
O59 O 0.18457 0.4015 0.8195 0.0
C60 C 0.12749 0.31027 0.88577 0.0
O61 O 0.10166 0.33076 0.90377 0.0
C62 C 0.19048 0.4299 0.92302 0.0
O63 O 0.2204 0.42175 0.90334 0.0
O64 O 0.09594 0.3998 0.84252 0.0
C65 C 0.81412 0.95344 0.21816 0.0
O66 O 0.79905 0.97122 0.18857 0.0
O67 O 0.84795 0.96421 0.12378 0.0
Zn68 Zn 0.86801 0.9262 0.16287 0.0
O69 O 0.85716 0.86947 0.14496 0.0
C70 C 0.94291 0.9516 0.14579 0.0
O71 O 0.92547 0.97328 0.12026 0.0
O72 O 0.84431 0.93422 0.21404 0.0
C73 C 0.87574 0.85329 0.1181 0.0
O74 O 0.9008 0.87478 0.10104 0.0
C75 C 0.82007 0.95535 0.10191 0.0
O76 O 0.80273 0.92102 0.10582 0.0
O77 O 0.92393 0.93083 0.16824 0.0
C78 C 0.31481 0.53486 0.43166 0.0
O79 O 0.31477 0.51125 0.40077 0.0
O80 O 0.29977 0.57358 0.33602 0.0
Zn81 Zn 0.33636 0.59189 0.37759 0.0
O82 O 0.38765 0.57106 0.36728 0.0
C83 C 0.32732 0.67305 0.35284 0.0
O84 O 0.31155 0.65488 0.32261 0.0
O85 O 0.32188 0.5719 0.42855 0.0
C86 C 0.40794 0.58639 0.34224 0.0
O87 O 0.39437 0.61524 0.32135 0.0
C88 C 0.30643 0.54612 0.31105 0.0
O89 O 0.33823 0.52684 0.31284 0.0
O90 O 0.33934 0.65222 0.38035 0.0
C91 C 0.68683 0.07977 0.71453 0.0
O92 O 0.69596 0.10871 0.69187 0.0
O93 O 0.64569 0.04194 0.61218 0.0
Zn94 Zn 0.629 0.07365 0.65844 0.0
O95 O 0.63659 0.13278 0.65118 0.0
C96 C 0.55897 0.03094 0.65259 0.0
O97 O 0.58023 0.00128 0.64078 0.0
O98 O 0.65839 0.05816 0.70591 0.0
C99 C 0.62547 0.15292 0.62284 0.0
O100 O 0.60653 0.13494 0.59447 0.0
C101 C 0.67013 0.05345 0.58918 0.0
O102 O 0.6875 0.08776 0.59611 0.0
O103 O 0.57403 0.0641 0.66341 0.0
C104 C 0.78688 0.45585 0.79967 0.0
O105 O 0.77804 0.47296 0.83264 0.0
O106 O 0.84218 0.46656 0.8858 0.0
Zn107 Zn 0.84794 0.42368 0.84458 0.0
O108 O 0.83264 0.36994 0.86378 0.0
C109 C 0.92253 0.45251 0.83315 0.0
O110 O 0.90716 0.48743 0.8409 0.0
O111 O 0.81616 0.43465 0.79786 0.0
C112 C 0.85494 0.34854 0.88315 0.0
O113 O 0.88864 0.36218 0.89162 0.0
C114 C 0.82427 0.46165 0.91628 0.0
O115 O 0.807 0.42746 0.92107 0.0
O116 O 0.90219 0.42119 0.83156 0.0
C117 C 0.26002 0.05105 0.6343 0.0
O118 O 0.24952 0.07519 0.60706 0.0
O119 O 0.32619 0.04178 0.54796 0.0
Zn120 Zn 0.3303 0.0654 0.6017 0.0
O121 O 0.32016 0.12454 0.60101 0.0
C122 C 0.4008 0.02623 0.61918 0.0
O123 O 0.38505 0.9947 0.60191 0.0
O124 O 0.29402 0.04089 0.63696 0.0
C125 C 0.34589 0.14885 0.59287 0.0
O126 O 0.37862 0.13465 0.58342 0.0
C127 C 0.3047 0.01285 0.53759 0.0
O128 O 0.28332 0.99663 0.56294 0.0
O129 O 0.38243 0.05855 0.62261 0.0
C130 C 0.70727 0.57078 0.30392 0.0
O131 O 0.72339 0.58071 0.33713 0.0
O132 O 0.65339 0.54527 0.3916 0.0
Zn133 Zn 0.64237 0.58208 0.34816 0.0
O134 O 0.65419 0.63919 0.36429 0.0
C135 C 0.56553 0.55452 0.34785 0.0
O136 O 0.579 0.52647 0.36976 0.0
O137 O 0.67198 0.56791 0.30174 0.0
C138 C 0.63528 0.65668 0.39015 0.0
O139 O 0.60935 0.63634 0.40715 0.0
C140 C 0.67621 0.55409 0.41904 0.0
O141 O 0.69508 0.58788 0.41861 0.0
O142 O 0.58759 0.58021 0.33457 0.0
C143 C 0.19075 0.95725 0.02051 0.0
O144 O 0.20915 0.97533 0.04919 0.0
O145 O 0.2041 0.92142 0.11674 0.0
Zn146 Zn 0.16287 0.90552 0.07904 0.0
O147 O 0.114 0.92768 0.09646 0.0
C148 C 0.18385 0.82159 0.08384 0.0
O149 O 0.21632 0.83633 0.09554 0.0
O150 O 0.17104 0.92656 0.0268 0.0
C151 C 0.09815 0.9153 0.12604 0.0
O152 O 0.11481 0.88814 0.14676 0.0
C153 C 0.202 0.9519 0.13941 0.0
O154 O 0.17247 0.97495 0.13756 0.0
O155 O 0.1577 0.84542 0.07507 0.0
C156 C 0.79193 0.57669 0.1659 0.0
O157 O 0.77487 0.57508 0.13211 0.0
O158 O 0.83607 0.56784 0.07552 0.0
Zn159 Zn 0.85399 0.60117 0.12155 0.0
O160 O 0.84733 0.66039 0.11396 0.0
C161 C 0.92312 0.55671 0.12689 0.0
O162 O 0.90184 0.52562 0.11749 0.0
O163 O 0.82616 0.58645 0.1682 0.0
C164 C 0.87336 0.68112 0.10029 0.0
O165 O 0.90395 0.66314 0.08923 0.0
C166 C 0.84481 0.57696 0.04182 0.0
O167 O 0.86453 0.60956 0.03703 0.0
O168 O 0.90846 0.59114 0.13074 0.0
C169 C 0.16674 0.02954 0.76352 0.0
O170 O 0.17854 0.00882 0.79278 0.0
O171 O 0.13633 0.02951 0.85957 0.0
Zn172 Zn 0.11619 0.06505 0.81859 0.0
O173 O 0.12786 0.1222 0.83427 0.0
C174 C 0.04151 0.04021 0.83681 0.0
O175 O 0.05918 0.01835 0.86204 0.0
O176 O 0.1398 0.05372 0.76785 0.0
C177 C 0.11154 0.13914 0.86232 0.0
O178 O 0.08729 0.11858 0.88144 0.0
C179 C 0.16496 0.03943 0.87993 0.0
O180 O 0.1828 0.07275 0.87287 0.0
O181 O 0.06027 0.06082 0.81404 0.0
C182 C 0.67538 0.46172 0.55615 0.0
O183 O 0.69479 0.4739 0.5868 0.0
O184 O 0.68231 0.42129 0.64841 0.0
Zn185 Zn 0.64266 0.40638 0.60852 0.0
O186 O 0.59178 0.42268 0.62611 0.0
C187 C 0.65386 0.32378 0.62652 0.0
O188 O 0.66973 0.34053 0.65741 0.0
O189 O 0.65226 0.43301 0.55866 0.0
C190 C 0.57825 0.40847 0.65618 0.0
O191 O 0.59897 0.38497 0.67732 0.0
C192 C 0.67887 0.44856 0.67434 0.0
O193 O 0.6482 0.46989 0.67528 0.0
O194 O 0.64108 0.34606 0.60043 0.0
C195 C 0.30521 0.96231 0.26829 0.0
O196 O 0.29465 0.98001 0.30039 0.0
O197 O 0.34221 0.95269 0.36445 0.0
Zn198 Zn 0.35836 0.92135 0.3176 0.0
O199 O 0.34559 0.86331 0.32295 0.0
C200 C 0.43115 0.95753 0.3265 0.0
O201 O 0.4118 0.9893 0.33674 0.0
O202 O 0.33274 0.9385 0.26906 0.0
C203 C 0.35733 0.84323 0.35107 0.0
O204 O 0.3783 0.86102 0.37802 0.0
C205 C 0.31564 0.94181 0.3852 0.0
O206 O 0.29574 0.91003 0.3746 0.0
O207 O 0.41403 0.92568 0.31534 0.0
C208 C 0.1427 0.76202 0.06885 0.0
C209 C 0.17694 0.77779 0.08295 0.0
H210 H 0.10817 0.71 0.05989 0.0
C211 C 0.20387 0.75144 0.09749 0.0
H212 H 0.12141 0.78146 0.05727 0.0
C213 C 0.19622 0.71041 0.09908 0.0
C214 C 0.16155 0.69484 0.08601 0.0
H215 H 0.23056 0.76259 0.10847 0.0
H216 H 0.21725 0.69103 0.11126 0.0
C217 C 0.13513 0.721 0.07027 0.0
C218 C 0.49126 0.99139 0.34698 0.0
C219 C 0.47208 0.95703 0.33267 0.0
H220 H 0.54309 0.01633 0.36838 0.0
C221 C 0.49197 0.92122 0.32694 0.0
H222 H 0.47675 0.01947 0.35166 0.0
C223 C 0.52985 0.91938 0.33672 0.0
C224 C 0.54877 0.95335 0.35228 0.0
H225 H 0.4781 0.8942 0.3159 0.0
H226 H 0.54411 0.89105 0.33272 0.0
C227 C 0.52927 0.98959 0.35661 0.0
C228 C 0.36465 0.26061 0.59864 0.0
C229 C 0.3296 0.27591 0.60851 0.0
H230 H 0.39718 0.20859 0.58565 0.0
C231 C 0.29955 0.24919 0.61163 0.0
H232 H 0.38835 0.2804 0.59584 0.0
C233 C 0.30466 0.20794 0.60588 0.0
C234 C 0.33988 0.1926 0.59669 0.0
H235 H 0.27219 0.26003 0.61912 0.0
H236 H 0.28108 0.18807 0.60909 0.0
C237 C 0.3697 0.21941 0.5927 0.0
C238 C 0.98221 0.07243 0.81455 0.0
C239 C 0.00079 0.04605 0.83911 0.0
H240 H 0.93195 0.10427 0.80201 0.0
C241 C 0.98077 0.0283 0.86828 0.0
H242 H -0.00323 0.08644 0.79164 0.0
C243 C 0.94366 0.03863 0.87429 0.0
C244 C 0.92574 0.06683 0.85118 0.0
H245 H 0.99416 0.00767 0.88755 0.0
H246 H 0.92946 0.02556 0.89795 0.0
C247 C 0.94503 0.08267 0.8205 0.0
C248 C 0.15021 0.24453 0.8592 0.0
C249 C 0.12599 0.26594 0.88333 0.0
H250 H 0.16465 0.18776 0.83367 0.0
C251 C 0.09869 0.24479 0.90276 0.0
H252 H 0.17165 0.25986 0.8439 0.0
C253 C 0.09477 0.20329 0.89697 0.0
C254 C 0.11791 0.18224 0.87145 0.0
H255 H 0.07969 0.26039 0.92165 0.0
H256 H 0.07284 0.18798 0.91156 0.0
C257 C 0.14614 0.20317 0.85323 0.0
C258 C 0.00215 0.91952 0.16856 0.0
C259 C 0.98379 0.94648 0.14442 0.0
H260 H 0.05278 0.88866 0.18186 0.0
C261 C 0.00435 0.96586 0.11664 0.0
H262 H 0.98715 0.9042 0.19038 0.0
C263 C 0.04192 0.95688 0.11171 0.0
C264 C 0.05979 0.92835 0.13449 0.0
H265 H 0.99113 0.98695 0.09771 0.0
H266 H 0.05662 0.9714 0.08919 0.0
C267 C 0.03979 0.91057 0.16366 0.0
C268 C 0.31984 0.73988 0.32323 0.0
C269 C 0.33331 0.71695 0.35362 0.0
H270 H 0.31673 0.79764 0.29866 0.0
C271 C 0.35368 0.73616 0.38394 0.0
H272 H 0.30397 0.72605 0.29948 0.0
C273 C 0.36111 0.7773 0.38343 0.0
C274 C 0.34824 0.80006 0.35264 0.0
H275 H 0.36444 0.71933 0.40781 0.0
H276 H 0.3773 0.79114 0.40695 0.0
C277 C 0.32718 0.78097 0.32276 0.0
C278 C 0.50105 0.99292 0.63203 0.0
C279 C 0.51792 0.02778 0.64835 0.0
H280 H 0.45074 0.96495 0.61011 0.0
C281 C 0.4954 0.06084 0.65779 0.0
H282 H 0.51759 0.96687 0.62453 0.0
C283 C 0.45717 0.05976 0.64946 0.0
C284 C 0.44053 0.02558 0.63154 0.0
H285 H 0.50744 0.08811 0.67054 0.0
H286 H 0.44084 0.0862 0.65614 0.0
C287 C 0.46272 0.99182 0.62373 0.0
C288 C 0.86052 0.24119 0.91503 0.0
C289 C 0.82389 0.2275 0.90748 0.0
H290 H 0.89901 0.29027 0.91356 0.0
C291 C 0.79705 0.25469 0.89428 0.0
H292 H 0.88183 0.22103 0.92534 0.0
C293 C 0.80695 0.29428 0.88729 0.0
C294 C 0.84385 0.30762 0.8936 0.0
H295 H 0.76857 0.24516 0.88824 0.0
H296 H 0.78579 0.3142 0.87623 0.0
C297 C 0.87037 0.2809 0.90829 0.0
C298 C 0.66637 0.72242 0.37863 0.0
C299 C 0.63998 0.70024 0.39832 0.0
H300 H 0.68824 0.78042 0.36706 0.0
C301 C 0.61663 0.72049 0.42419 0.0
H302 H 0.68493 0.70773 0.35865 0.0
C303 C 0.61852 0.76221 0.42901 0.0
C304 C 0.64382 0.78455 0.40809 0.0
H305 H 0.59612 0.70427 0.43995 0.0
H306 H 0.59941 0.77699 0.44836 0.0
C307 C 0.66828 0.76413 0.38347 0.0
C308 C 0.8432 0.74546 0.12128 0.0
C309 C 0.87113 0.72537 0.10079 0.0
H310 H 0.82272 0.80177 0.14281 0.0
C311 C 0.89856 0.74801 0.0831 0.0
H312 H 0.8216 0.72889 0.13515 0.0
C313 C 0.89904 0.78979 0.08726 0.0
C314 C 0.87231 0.80974 0.10951 0.0
H315 H 0.9203 0.73342 0.06688 0.0
H316 H 0.92124 0.80627 0.07427 0.0
C317 C 0.84389 0.78723 0.12574 0.0
C318 C 0.66219 0.25583 0.65337 0.0
C319 C 0.6483 0.27978 0.62392 0.0
H320 H 0.66595 0.19731 0.67608 0.0
C321 C 0.62775 0.26144 0.59322 0.0
H322 H 0.6782 0.26891 0.6774 0.0
C323 C 0.62061 0.22012 0.59248 0.0
C324 C 0.63388 0.19639 0.62243 0.0
H325 H 0.61664 0.27908 0.57008 0.0
H326 H 0.60431 0.20691 0.56873 0.0
C327 C 0.65508 0.21469 0.65264 0.0
C328 C 0.01868 0.40697 0.82746 0.0
C329 C 0.04172 0.44029 0.83657 0.0
H330 H 0.96304 0.38473 0.81896 0.0
C331 C 0.02537 0.47829 0.84117 0.0
H332 H 0.03036 0.37728 0.82352 0.0
C333 C 0.98666 0.48257 0.83846 0.0
C334 C 0.96353 0.44893 0.83118 0.0
H335 H 0.04235 0.50459 0.84802 0.0
H336 H 0.97484 0.51207 0.84336 0.0
C337 C 0.98002 0.41124 0.82482 0.0
C338 C 0.51033 0.58946 0.31929 0.0
C339 C 0.5248 0.5593 0.34256 0.0
H340 H 0.46198 0.62142 0.3006 0.0
C341 C 0.50006 0.53574 0.36294 0.0
H342 H 0.52864 0.60798 0.30302 0.0
C343 C 0.46185 0.54357 0.36167 0.0
C344 C 0.44759 0.57497 0.33983 0.0
H345 H 0.51027 0.51217 0.38101 0.0
H346 H 0.44365 0.52572 0.37871 0.0
C347 C 0.4721 0.59713 0.31785 0.0
C348 C 0.51569 0.43741 0.64044 0.0
C349 C 0.53815 0.4134 0.66388 0.0
H350 H 0.46039 0.45447 0.62389 0.0
C351 C 0.52127 0.39118 0.69235 0.0
H352 H 0.52785 0.45522 0.6185 0.0
C353 C 0.4825 0.39068 0.69541 0.0
C354 C 0.45989 0.41248 0.67014 0.0
H355 H 0.5378 0.37261 0.71109 0.0
H356 H 0.47025 0.37172 0.7164 0.0
C357 C 0.47697 0.43702 0.64359 0.0
C358 C 0.02533 0.58319 0.13977 0.0
C359 C 0.04247 0.54608 0.13218 0.0
H360 H 0.97433 0.61558 0.14421 0.0
C361 C 0.01998 0.51196 0.12486 0.0
H362 H 0.04182 0.61005 0.14563 0.0
C363 C 0.98112 0.51514 0.124 0.0
C364 C 0.96404 0.5525 0.13048 0.0
H365 H 0.03234 0.48291 0.11896 0.0
H366 H 0.96454 0.48847 0.11751 0.0
C367 C 0.98657 0.58636 0.13894 0.0
C368 C 0.22636 0.50174 0.00217 0.0
C369 C 0.19501 0.50529 0.02539 0.0
H370 H 0.24973 0.47471 0.95162 0.0
C371 C 0.16305 0.48233 0.01563 0.0
H372 H 0.25145 0.51893 0.00902 0.0
C373 C 0.16199 0.45735 0.9828 0.0
C374 C 0.19297 0.45441 0.95907 0.0
H375 H 0.1384 0.48423 0.03291 0.0
H376 H 0.13663 0.44066 0.97581 0.0
C377 C 0.22542 0.47635 0.96938 0.0
C378 C 0.73577 0.95844 0.28847 0.0
C379 C 0.75005 0.93526 0.31835 0.0
H380 H 0.745 0.98283 0.23355 0.0
C381 C 0.787 0.92173 0.31683 0.0
H382 H 0.7075 0.96966 0.28897 0.0
C383 C 0.80852 0.92927 0.285 0.0
C384 C 0.79352 0.95059 0.25414 0.0
H385 H 0.7989 0.90402 0.33952 0.0
H386 H 0.83644 0.91715 0.28402 0.0
C387 C 0.75731 0.96609 0.25672 0.0
C388 C 0.31131 0.4593 0.50982 0.0
C389 C 0.31819 0.4837 0.54289 0.0
H390 H 0.30448 0.45638 0.44872 0.0
C391 C 0.31984 0.52549 0.53941 0.0
H392 H 0.30954 0.42699 0.51156 0.0
C393 C 0.31688 0.54236 0.50333 0.0
C394 C 0.31223 0.51774 0.47005 0.0
H395 H 0.32482 0.54514 0.56436 0.0
H396 H 0.3197 0.57457 0.50146 0.0
C397 C 0.30837 0.47615 0.47377 0.0
C398 C 0.72657 0.10789 0.76807 0.0
C399 C 0.70845 0.07455 0.75047 0.0
H400 H 0.76207 0.13011 0.81394 0.0
C401 C 0.71203 0.03688 0.76703 0.0
H402 H 0.72403 0.13735 0.75608 0.0
C403 C 0.73458 0.03251 0.80004 0.0
C404 C 0.7529 0.06598 0.81741 0.0
H405 H 0.69831 0.01073 0.75389 0.0
H406 H 0.73774 0.00307 0.81187 0.0
C407 C 0.74818 0.10376 0.80138 0.0
C408 C 0.84433 0.52941 0.94192 0.0
C409 C 0.82601 0.4928 0.9474 0.0
H410 H 0.86434 0.58481 0.96732 0.0
C411 C 0.81142 0.4854 0.98353 0.0
H412 H 0.8557 0.53616 0.91437 0.0
C413 C 0.81647 0.51332 0.01399 0.0
C414 C 0.8361 0.54923 0.00886 0.0
H415 H 0.79707 0.45754 0.98865 0.0
H416 H 0.80582 0.50627 0.04178 0.0
C417 C 0.84926 0.55735 0.9723 0.0
C418 C 0.17549 0.05209 0.69665 0.0
C419 C 0.18801 0.0296 0.72778 0.0
H420 H 0.18828 0.07613 0.64242 0.0
C421 C 0.22269 0.01036 0.72578 0.0
H422 H 0.14874 0.06699 0.69715 0.0
C423 C 0.24545 0.01573 0.69442 0.0
C424 C 0.23388 0.04029 0.66441 0.0
H425 H 0.23305 0.99262 0.74919 0.0
H426 H 0.2727 0.00189 0.69445 0.0
C427 C 0.19816 0.05731 0.66523 0.0
C428 C 0.70176 0.53935 0.48457 0.0
C429 C 0.67868 0.5284 0.45279 0.0
H430 H 0.71899 0.52678 0.5421 0.0
C431 C 0.65634 0.49381 0.45442 0.0
H432 H 0.7194 0.56574 0.4842 0.0
C433 C 0.65607 0.4715 0.4876 0.0
C434 C 0.67815 0.48327 0.5199 0.0
H435 H 0.63831 0.48444 0.43038 0.0
H436 H 0.63789 0.44555 0.4882 0.0
C437 C 0.70151 0.517 0.51779 0.0
C438 C 0.28899 0.93912 0.201 0.0
C439 C 0.28167 0.96437 0.23298 0.0
H440 H 0.26957 0.9154 0.1464 0.0
C441 C 0.24969 0.98854 0.23213 0.0
H442 H 0.31346 0.92023 0.20059 0.0
C443 C 0.22455 0.98588 0.20085 0.0
C444 C 0.23079 0.9588 0.16999 0.0
H445 H 0.24334 0.00845 0.25622 0.0
H446 H 0.19949 0.00383 0.20165 0.0
C447 C 0.26376 0.93624 0.16993 0.0
C448 C 0.6972 0.04584 0.52375 0.0
C449 C 0.67596 0.0301 0.55309 0.0
H450 H 0.7153 0.03867 0.46589 0.0
C451 C 0.6583 0.99271 0.54678 0.0
H452 H 0.71118 0.07456 0.52774 0.0
C453 C 0.66071 0.97215 0.51147 0.0
C454 C 0.68072 0.98859 0.48158 0.0
H455 H 0.64188 0.97961 0.56886 0.0
H456 H 0.64608 0.94382 0.50735 0.0
C457 C 0.69949 0.02531 0.48828 0.0
C458 C 0.25945 0.40478 0.72956 0.0
C459 C 0.28185 0.43894 0.7256 0.0
H460 H 0.21616 0.37689 0.76001 0.0
C461 C 0.27656 0.4725 0.75029 0.0
H462 H 0.26269 0.37839 0.71103 0.0
C463 C 0.2495 0.4717 0.77853 0.0
C464 C 0.22747 0.43723 0.78266 0.0
H465 H 0.29332 0.49932 0.74786 0.0
H466 H 0.24616 0.49782 0.79737 0.0
C467 C 0.23269 0.40391 0.75774 0.0
C468 C 0.82166 0.04132 0.03402 0.0
C469 C 0.79687 0.02762 0.00457 0.0
H470 H 0.84834 0.02933 0.08788 0.0
C471 C 0.7769 0.99188 0.00931 0.0
H472 H 0.83733 0.06888 0.03145 0.0
C473 C 0.78321 0.96915 0.04183 0.0
C474 C 0.80968 0.98171 0.07013 0.0
H475 H 0.75746 0.98058 0.98725 0.0
H476 H 0.7684 0.941 0.04399 0.0
C477 C 0.82805 0.01858 0.0664 0.0
C478 C 0.26686 0.51134 0.21383 0.0
C479 C 0.23406 0.53408 0.21142 0.0
H480 H 0.31552 0.49711 0.24741 0.0
C481 C 0.22367 0.55781 0.2434 0.0
H482 H 0.27555 0.49264 0.18974 0.0
C483 C 0.24652 0.56041 0.27632 0.0
C484 C 0.28027 0.53929 0.27806 0.0
H485 H 0.19841 0.57546 0.24266 0.0
H486 H 0.2382 0.57997 0.29995 0.0
C487 C 0.28977 0.51392 0.24688 0.0
C488 C 0.28244 0.96377 0.48594 0.0
C489 C 0.30527 0.99645 0.49769 0.0
H490 H 0.26752 0.92102 0.44099 0.0
C491 C 0.32964 0.01262 0.47125 0.0
H492 H 0.26322 0.95075 0.50557 0.0
C493 C 0.33207 0.99564 0.43431 0.0
C494 C 0.31015 0.96214 0.42293 0.0
H495 H 0.34748 0.03794 0.47928 0.0
H496 H 0.35178 0.0083 0.41497 0.0
C497 C 0.28482 0.9468 0.44889 0.0
C498 C 0.78871 0.5752 0.23744 0.0
C499 C 0.77085 0.57088 0.2012 0.0
H500 H 0.78269 0.57825 0.29831 0.0
C501 C 0.73233 0.56319 0.19915 0.0
H502 H 0.81842 0.58089 0.24005 0.0
C503 C 0.71183 0.56161 0.23261 0.0
C504 C 0.72945 0.56773 0.2688 0.0
H505 H 0.71777 0.55949 0.17168 0.0
H506 H 0.682 0.5568 0.23002 0.0
C507 C 0.76822 0.57365 0.27088 0.0
C508 C 0.20757 0.01124 0.97559 0.0
C509 C 0.18836 0.9755 0.98247 0.0
H510 H 0.21548 0.05942 0.93749 0.0
C511 C 0.16425 0.95905 0.95366 0.0
H512 H 0.22649 0.02456 -0.00287 0.0
C513 C 0.15779 0.97909 0.91968 0.0
C514 C 0.17549 0.01588 0.91362 0.0
H515 H 0.14918 0.93141 0.9579 0.0
H516 H 0.13804 0.9663 0.89865 0.0
C517 C 0.20127 0.0312 0.94141 0.0
C518 C 0.70185 0.47828 0.73757 0.0
C519 C 0.70802 0.45376 0.70483 0.0
H520 H 0.72202 0.49829 0.79327 0.0
C521 C 0.7416 0.43242 0.70239 0.0
H522 H 0.6763 0.49519 0.74028 0.0
C523 C 0.76783 0.43433 0.73262 0.0
C524 C 0.76099 0.45746 0.76608 0.0
H525 H 0.74734 0.41347 0.67744 0.0
H526 H 0.79298 0.4167 0.73015 0.0
C527 C 0.72805 0.48002 0.76795 0.0
loop_
_geom_bond_atom_site_label_1
_geom_bond_atom_site_label_2
_geom_bond_distance
_geom_bond_site_symmetry_2
_ccdc_geom_bond_type
C0 O1 1.160 . S
C0 O7 1.185 . S
O1 C0 1.160 . S
O2 Zn3 1.899 . S
O2 C10 1.284 . S
Zn3 O2 1.899 . S
Zn3 O4 2.032 . S
Zn3 O7 2.086 . S
Zn3 O12 1.977 . S
O4 Zn3 2.032 . S
O4 C8 1.278 . S
C5 O6 1.203 . S
C5 O12 1.267 . S
O6 C5 1.203 . S
O7 C0 1.185 . S
O7 Zn3 2.086 . S
C8 O4 1.278 . S
C8 O9 1.211 . S
O9 C8 1.211 . S
C10 O2 1.284 . S
C10 O11 1.273 . S
O11 C10 1.273 . S
O12 Zn3 1.977 . S
O12 C5 1.267 . S
C13 O14 1.160 . S
C13 O20 1.185 . S
O14 C13 1.160 . S
O15 Zn16 1.899 . S
O15 C23 1.284 . S
Zn16 O15 1.899 . S
Zn16 O17 2.032 . S
Zn16 O20 2.086 . S
Zn16 O25 1.977 . S
O17 Zn16 2.032 . S
O17 C21 1.278 . S
C18 O19 1.203 . S
C18 O25 1.267 . S
O19 C18 1.203 . S
O20 C13 1.185 . S
O20 Zn16 2.086 . S
C21 O17 1.278 . S
C21 O22 1.211 . S
O22 C21 1.211 . S
C23 O15 1.284 . S
C23 O24 1.273 . S
O24 C23 1.273 . S
O25 Zn16 1.977 . S
O25 C18 1.267 . S
C26 O27 1.160 . S
C26 O33 1.185 . S
O27 C26 1.160 . S
O28 Zn29 1.899 . S
O28 C36 1.284 . S
Zn29 O28 1.899 . S
Zn29 O30 2.032 . S
Zn29 O33 2.086 . S
Zn29 O38 1.977 . S
O30 Zn29 2.032 . S
O30 C34 1.278 . S
C31 O32 1.203 . S
C31 O38 1.267 . S
O32 C31 1.203 . S
O33 C26 1.185 . S
O33 Zn29 2.086 . S
C34 O30 1.278 . S
C34 O35 1.211 . S
O35 C34 1.211 . S
C36 O28 1.284 . S
C36 O37 1.273 . S
O37 C36 1.273 . S
O38 Zn29 1.977 . S
O38 C31 1.267 . S
C39 O40 1.160 . S
C39 O46 1.185 . S
O40 C39 1.160 . S
O41 Zn42 1.899 . S
O41 C49 1.284 . S
Zn42 O41 1.899 . S
Zn42 O43 2.032 . S
Zn42 O46 2.086 . S
Zn42 O51 1.977 . S
O43 Zn42 2.032 . S
O43 C47 1.278 . S
C44 O45 1.203 . S
C44 O51 1.267 . S
O45 C44 1.203 . S
O46 C39 1.185 . S
O46 Zn42 2.086 . S
C47 O43 1.278 . S
C47 O48 1.211 . S
O48 C47 1.211 . S
C49 O41 1.284 . S
C49 O50 1.273 . S
O50 C49 1.273 . S
O51 Zn42 1.977 . S
O51 C44 1.267 . S
C52 O53 1.160 . S
C52 O59 1.185 . S
O53 C52 1.160 . S
O54 Zn55 1.899 . S
O54 C62 1.284 . S
Zn55 O54 1.899 . S
Zn55 O56 2.032 . S
Zn55 O59 2.086 . S
Zn55 O64 1.977 . S
O56 Zn55 2.032 . S
O56 C60 1.278 . S
C57 O58 1.203 . S
C57 O64 1.267 . S
O58 C57 1.203 . S
O59 C52 1.185 . S
O59 Zn55 2.086 . S
C60 O56 1.278 . S
C60 O61 1.211 . S
O61 C60 1.211 . S
C62 O54 1.284 . S
C62 O63 1.273 . S
O63 C62 1.273 . S
O64 Zn55 1.977 . S
O64 C57 1.267 . S
C65 O66 1.160 . S
C65 O72 1.185 . S
O66 C65 1.160 . S
O67 Zn68 1.899 . S
O67 C75 1.284 . S
Zn68 O67 1.899 . S
Zn68 O69 2.032 . S
Zn68 O72 2.086 . S
Zn68 O77 1.977 . S
O69 Zn68 2.032 . S
O69 C73 1.278 . S
C70 O71 1.203 . S
C70 O77 1.267 . S
O71 C70 1.203 . S
O72 C65 1.185 . S
O72 Zn68 2.086 . S
C73 O69 1.278 . S
C73 O74 1.211 . S
O74 C73 1.211 . S
C75 O67 1.284 . S
C75 O76 1.273 . S
O76 C75 1.273 . S
O77 Zn68 1.977 . S
O77 C70 1.267 . S
C78 O79 1.160 . S
C78 O85 1.185 . S
O79 C78 1.160 . S
O80 Zn81 1.899 . S
O80 C88 1.284 . S
Zn81 O80 1.899 . S
Zn81 O82 2.032 . S
Zn81 O85 2.086 . S
Zn81 O90 1.977 . S
O82 Zn81 2.032 . S
O82 C86 1.278 . S
C83 O84 1.203 . S
C83 O90 1.267 . S
O84 C83 1.203 . S
O85 C78 1.185 . S
O85 Zn81 2.086 . S
C86 O82 1.278 . S
C86 O87 1.211 . S
O87 C86 1.211 . S
C88 O80 1.284 . S
C88 O89 1.273 . S
O89 C88 1.273 . S
O90 Zn81 1.977 . S
O90 C83 1.267 . S
C91 O92 1.160 . S
C91 O98 1.185 . S
O92 C91 1.160 . S
O93 Zn94 1.899 . S
O93 C101 1.284 . S
Zn94 O93 1.899 . S
Zn94 O95 2.032 . S
Zn94 O98 2.086 . S
Zn94 O103 1.977 . S
O95 Zn94 2.032 . S
O95 C99 1.278 . S
C96 O97 1.203 . S
C96 O103 1.267 . S
O97 C96 1.203 . S
O98 C91 1.185 . S
O98 Zn94 2.086 . S
C99 O95 1.278 . S
C99 O100 1.211 . S
O100 C99 1.211 . S
C101 O93 1.284 . S
C101 O102 1.273 . S
O102 C101 1.273 . S
O103 Zn94 1.977 . S
O103 C96 1.267 . S
C104 O105 1.160 . S
C104 O111 1.185 . S
O105 C104 1.160 . S
O106 Zn107 1.899 . S
O106 C114 1.284 . S
Zn107 O106 1.899 . S
Zn107 O108 2.032 . S
Zn107 O111 2.086 . S
Zn107 O116 1.977 . S
O108 Zn107 2.032 . S
O108 C112 1.278 . S
C109 O110 1.203 . S
C109 O116 1.267 . S
O110 C109 1.203 . S
O111 C104 1.185 . S
O111 Zn107 2.086 . S
C112 O108 1.278 . S
C112 O113 1.211 . S
O113 C112 1.211 . S
C114 O106 1.284 . S
C114 O115 1.273 . S
O115 C114 1.273 . S
O116 Zn107 1.977 . S
O116 C109 1.267 . S
C117 O118 1.160 . S
C117 O124 1.185 . S
O118 C117 1.160 . S
O119 Zn120 1.899 . S
O119 C127 1.284 . S
Zn120 O119 1.899 . S
Zn120 O121 2.032 . S
Zn120 O124 2.086 . S
Zn120 O129 1.977 . S
O121 Zn120 2.032 . S
O121 C125 1.278 . S
C122 O123 1.203 . S
C122 O129 1.267 . S
O123 C122 1.203 . S
O124 C117 1.185 . S
O124 Zn120 2.086 . S
C125 O121 1.278 . S
C125 O126 1.211 . S
O126 C125 1.211 . S
C127 O119 1.284 . S
C127 O128 1.273 . S
O128 C127 1.273 . S
O129 Zn120 1.977 . S
O129 C122 1.267 . S
C130 O131 1.160 . S
C130 O137 1.185 . S
O131 C130 1.160 . S
O132 Zn133 1.899 . S
O132 C140 1.284 . S
Zn133 O132 1.899 . S
Zn133 O134 2.032 . S
Zn133 O137 2.086 . S
Zn133 O142 1.977 . S
O134 Zn133 2.032 . S
O134 C138 1.278 . S
C135 O136 1.203 . S
C135 O142 1.267 . S
O136 C135 1.203 . S
O137 C130 1.185 . S
O137 Zn133 2.086 . S
C138 O134 1.278 . S
C138 O139 1.211 . S
O139 C138 1.211 . S
C140 O132 1.284 . S
C140 O141 1.273 . S
O141 C140 1.273 . S
O142 Zn133 1.977 . S
O142 C135 1.267 . S
C143 O144 1.160 . S
C143 O150 1.185 . S
O144 C143 1.160 . S
O145 Zn146 1.899 . S
O145 C153 1.284 . S
Zn146 O145 1.899 . S
Zn146 O147 2.032 . S
Zn146 O150 2.086 . S
Zn146 O155 1.977 . S
O147 Zn146 2.032 . S
O147 C151 1.278 . S
C148 O149 1.203 . S
C148 O155 1.267 . S
O149 C148 1.203 . S
O150 C143 1.185 . S
O150 Zn146 2.086 . S
C151 O147 1.278 . S
C151 O152 1.211 . S
O152 C151 1.211 . S
C153 O145 1.284 . S
C153 O154 1.273 . S
O154 C153 1.273 . S
O155 Zn146 1.977 . S
O155 C148 1.267 . S
C156 O157 1.160 . S
C156 O163 1.185 . S
O157 C156 1.160 . S
O158 Zn159 1.899 . S
O158 C166 1.284 . S
Zn159 O158 1.899 . S
Zn159 O160 2.032 . S
Zn159 O163 2.086 . S
Zn159 O168 1.977 . S
O160 Zn159 2.032 . S
O160 C164 1.278 . S
C161 O162 1.203 . S
C161 O168 1.267 . S
O162 C161 1.203 . S
O163 C156 1.185 . S
O163 Zn159 2.086 . S
C164 O160 1.278 . S
C164 O165 1.211 . S
O165 C164 1.211 . S
C166 O158 1.284 . S
C166 O167 1.273 . S
O167 C166 1.273 . S
O168 Zn159 1.977 . S
O168 C161 1.267 . S
C169 O170 1.160 . S
C169 O176 1.185 . S
O170 C169 1.160 . S
O171 Zn172 1.899 . S
O171 C179 1.284 . S
Zn172 O171 1.899 . S
Zn172 O173 2.032 . S
Zn172 O176 2.086 . S
Zn172 O181 1.977 . S
O173 Zn172 2.032 . S
O173 C177 1.278 . S
C174 O175 1.203 . S
C174 O181 1.267 . S
O175 C174 1.203 . S
O176 C169 1.185 . S
O176 Zn172 2.086 . S
C177 O173 1.278 . S
C177 O178 1.211 . S
O178 C177 1.211 . S
C179 O171 1.284 . S
C179 O180 1.273 . S
O180 C179 1.273 . S
O181 Zn172 1.977 . S
O181 C174 1.267 . S
C182 O183 1.160 . S
C182 O189 1.185 . S
O183 C182 1.160 . S
O184 Zn185 1.899 . S
O184 C192 1.284 . S
Zn185 O184 1.899 . S
Zn185 O186 2.032 . S
Zn185 O189 2.086 . S
Zn185 O194 1.977 . S
O186 Zn185 2.032 . S
O186 C190 1.278 . S
C187 O188 1.203 . S
C187 O194 1.267 . S
O188 C187 1.203 . S
O189 C182 1.185 . S
O189 Zn185 2.086 . S
C190 O186 1.278 . S
C190 O191 1.211 . S
O191 C190 1.211 . S
C192 O184 1.284 . S
C192 O193 1.273 . S
O193 C192 1.273 . S
O194 Zn185 1.977 . S
O194 C187 1.267 . S
C195 O196 1.160 . S
C195 O202 1.185 . S
O196 C195 1.160 . S
O197 Zn198 1.899 . S
O197 C205 1.284 . S
Zn198 O197 1.899 . S
Zn198 O199 2.032 . S
Zn198 O202 2.086 . S
Zn198 O207 1.977 . S
O199 Zn198 2.032 . S
O199 C203 1.278 . S
C200 O201 1.203 . S
C200 O207 1.267 . S
O201 C200 1.203 . S
O202 C195 1.185 . S
O202 Zn198 2.086 . S
C203 O199 1.278 . S
C203 O204 1.211 . S
O204 C203 1.211 . S
C205 O197 1.284 . S
C205 O206 1.273 . S
O206 C205 1.273 . S
O207 Zn198 1.977 . S
O207 C200 1.267 . S
C208 C209 1.387 . S
C208 H212 0.950 . S
C208 C217 1.390 . S
C209 C208 1.387 . S
C209 C211 1.387 . S
H210 C217 0.950 . S
C211 C209 1.387 . S
C211 C213 1.390 . S
C211 H215 0.950 . S
H212 C208 0.950 . S
C213 C211 1.390 . S
C213 C214 1.387 . S
C213 H216 0.950 . S
C214 C213 1.387 . S
C214 C217 1.387 . S
H215 C211 0.950 . S
H216 C213 0.950 . S
C217 C208 1.390 . S
C217 H210 0.950 . S
C217 C214 1.387 . S
C218 C219 1.387 . S
C218 H222 0.950 . S
C218 C227 1.390 . S
C219 C218 1.387 . S
C219 C221 1.387 . S
H220 C227 0.950 . S
C221 C219 1.387 . S
C221 C223 1.390 . S
C221 H225 0.950 . S
H222 C218 0.950 . S
C223 C221 1.390 . S
C223 C224 1.387 . S
C223 H226 0.950 . S
C224 C223 1.387 . S
C224 C227 1.387 . S
H225 C221 0.950 . S
H226 C223 0.950 . S
C227 C218 1.390 . S
C227 H220 0.950 . S
C227 C224 1.387 . S
C228 C229 1.387 . S
C228 H232 0.950 . S
C228 C237 1.390 . S
C229 C228 1.387 . S
C229 C231 1.387 . S
H230 C237 0.950 . S
C231 C229 1.387 . S
C231 C233 1.390 . S
C231 H235 0.950 . S
H232 C228 0.950 . S
C233 C231 1.390 . S
C233 C234 1.387 . S
C233 H236 0.950 . S
C234 C233 1.387 . S
C234 C237 1.387 . S
H235 C231 0.950 . S
H236 C233 0.950 . S
C237 C228 1.390 . S
C237 H230 0.950 . S
C237 C234 1.387 . S
C238 C239 1.387 . S
C238 H242 0.950 . S
C238 C247 1.390 1_455 S
C239 C238 1.387 . S
C239 C241 1.387 . S
H240 C247 0.950 . S
C241 C239 1.387 . S
C241 C243 1.390 1_455 S
C241 H245 0.950 . S
H242 C238 0.950 . S
C243 C241 1.390 1_655 S
C243 C244 1.387 . S
C243 H246 0.950 . S
C244 C243 1.387 . S
C244 C247 1.387 . S
H245 C241 0.950 . S
H246 C243 0.950 . S
C247 C238 1.390 1_655 S
C247 H240 0.950 . S
C247 C244 1.387 . S
C248 C249 1.387 . S
C248 H252 0.950 . S
C248 C257 1.390 . S
C249 C248 1.387 . S
C249 C251 1.387 . S
H250 C257 0.950 . S
C251 C249 1.387 . S
C251 C253 1.390 . S
C251 H255 0.950 . S
H252 C248 0.950 . S
C253 C251 1.390 . S
C253 C254 1.387 . S
C253 H256 0.950 . S
C254 C253 1.387 . S
C254 C257 1.387 . S
H255 C251 0.950 . S
H256 C253 0.950 . S
C257 C248 1.390 . S
C257 H250 0.950 . S
C257 C254 1.387 . S
C258 C259 1.387 . S
C258 H262 0.950 . S
C258 C267 1.390 1_655 S
C259 C258 1.387 . S
C259 C261 1.387 . S
H260 C267 0.950 . S
C261 C259 1.387 . S
C261 C263 1.390 1_655 S
C261 H265 0.950 . S
H262 C258 0.950 . S
C263 C261 1.390 1_455 S
C263 C264 1.387 . S
C263 H266 0.950 . S
C264 C263 1.387 . S
C264 C267 1.387 . S
H265 C261 0.950 . S
H266 C263 0.950 . S
C267 C258 1.390 1_455 S
C267 H260 0.950 . S
C267 C264 1.387 . S
C268 C269 1.387 . S
C268 H272 0.950 . S
C268 C277 1.390 . S
C269 C268 1.387 . S
C269 C271 1.387 . S
H270 C277 0.950 . S
C271 C269 1.387 . S
C271 C273 1.390 . S
C271 H275 0.950 . S
H272 C268 0.950 . S
C273 C271 1.390 . S
C273 C274 1.387 . S
C273 H276 0.950 . S
C274 C273 1.387 . S
C274 C277 1.387 . S
H275 C271 0.950 . S
H276 C273 0.950 . S
C277 C268 1.390 . S
C277 H270 0.950 . S
C277 C274 1.387 . S
C278 C279 1.387 . S
C278 H282 0.950 . S
C278 C287 1.390 . S
C279 C278 1.387 . S
C279 C281 1.387 . S
H280 C287 0.950 . S
C281 C279 1.387 . S
C281 C283 1.390 . S
C281 H285 0.950 . S
H282 C278 0.950 . S
C283 C281 1.390 . S
C283 C284 1.387 . S
C283 H286 0.950 . S
C284 C283 1.387 . S
C284 C287 1.387 . S
H285 C281 0.950 . S
H286 C283 0.950 . S
C287 C278 1.390 . S
C287 H280 0.950 . S
C287 C284 1.387 . S
C288 C289 1.387 . S
C288 H292 0.950 . S
C288 C297 1.390 . S
C289 C288 1.387 . S
C289 C291 1.387 . S
H290 C297 0.950 . S
C291 C289 1.387 . S
C291 C293 1.390 . S
C291 H295 0.950 . S
H292 C288 0.950 . S
C293 C291 1.390 . S
C293 C294 1.387 . S
C293 H296 0.950 . S
C294 C293 1.387 . S
C294 C297 1.387 . S
H295 C291 0.950 . S
H296 C293 0.950 . S
C297 C288 1.390 . S
C297 H290 0.950 . S
C297 C294 1.387 . S
C298 C299 1.387 . S
C298 H302 0.950 . S
C298 C307 1.390 . S
C299 C298 1.387 . S
C299 C301 1.387 . S
H300 C307 0.950 . S
C301 C299 1.387 . S
C301 C303 1.390 . S
C301 H305 0.950 . S
H302 C298 0.950 . S
C303 C301 1.390 . S
C303 C304 1.387 . S
C303 H306 0.950 . S
C304 C303 1.387 . S
C304 C307 1.387 . S
H305 C301 0.950 . S
H306 C303 0.950 . S
C307 C298 1.390 . S
C307 H300 0.950 . S
C307 C304 1.387 . S
C308 C309 1.387 . S
C308 H312 0.950 . S
C308 C317 1.390 . S
C309 C308 1.387 . S
C309 C311 1.387 . S
H310 C317 0.950 . S
C311 C309 1.387 . S
C311 C313 1.390 . S
C311 H315 0.950 . S
H312 C308 0.950 . S
C313 C311 1.390 . S
C313 C314 1.387 . S
C313 H316 0.950 . S
C314 C313 1.387 . S
C314 C317 1.387 . S
H315 C311 0.950 . S
H316 C313 0.950 . S
C317 C308 1.390 . S
C317 H310 0.950 . S
C317 C314 1.387 . S
C318 C319 1.387 . S
C318 H322 0.950 . S
C318 C327 1.390 . S
C319 C318 1.387 . S
C319 C321 1.387 . S
H320 C327 0.950 . S
C321 C319 1.387 . S
C321 C323 1.390 . S
C321 H325 0.950 . S
H322 C318 0.950 . S
C323 C321 1.390 . S
C323 C324 1.387 . S
C323 H326 0.950 . S
C324 C323 1.387 . S
C324 C327 1.387 . S
H325 C321 0.950 . S
H326 C323 0.950 . S
C327 C318 1.390 . S
C327 H320 0.950 . S
C327 C324 1.387 . S
C328 C329 1.387 . S
C328 H332 0.950 . S
C328 C337 1.390 1_455 S
C329 C328 1.387 . S
C329 C331 1.387 . S
H330 C337 0.950 . S
C331 C329 1.387 . S
C331 C333 1.390 1_455 S
C331 H335 0.950 . S
H332 C328 0.950 . S
C333 C331 1.390 1_655 S
C333 C334 1.387 . S
C333 H336 0.950 . S
C334 C333 1.387 . S
C334 C337 1.387 . S
H335 C331 0.950 . S
H336 C333 0.950 . S
C337 C328 1.390 1_655 S
C337 H330 0.950 . S
C337 C334 1.387 . S
C338 C339 1.387 . S
C338 H342 0.950 . S
C338 C347 1.390 . S
C339 C338 1.387 . S
C339 C341 1.387 . S
H340 C347 0.950 . S
C341 C339 1.387 . S
C341 C343 1.390 . S
C341 H345 0.950 . S
H342 C338 0.950 . S
C343 C341 1.390 . S
C343 C344 1.387 . S
C343 H346 0.950 . S
C344 C343 1.387 . S
C344 C347 1.387 . S
H345 C341 0.950 . S
H346 C343 0.950 . S
C347 C338 1.390 . S
C347 H340 0.950 . S
C347 C344 1.387 . S
C348 C349 1.387 . S
C348 H352 0.950 . S
C348 C357 1.390 . S
C349 C348 1.387 . S
C349 C351 1.387 . S
H350 C357 0.950 . S
C351 C349 1.387 . S
C351 C353 1.390 . S
C351 H355 0.950 . S
H352 C348 0.950 . S
C353 C351 1.390 . S
C353 C354 1.387 . S
C353 H356 0.950 . S
C354 C353 1.387 . S
C354 C357 1.387 . S
H355 C351 0.950 . S
H356 C353 0.950 . S
C357 C348 1.390 . S
C357 H350 0.950 . S
C357 C354 1.387 . S
C358 C359 1.387 . S
C358 H362 0.950 . S
C358 C367 1.390 1_455 S
C359 C358 1.387 . S
C359 C361 1.387 . S
H360 C367 0.950 . S
C361 C359 1.387 . S
C361 C363 1.390 1_455 S
C361 H365 0.950 . S
H362 C358 0.950 . S
C363 C361 1.390 1_655 S
C363 C364 1.387 . S
C363 H366 0.950 . S
C364 C363 1.387 . S
C364 C367 1.387 . S
H365 C361 0.950 . S
H366 C363 0.950 . S
C367 C358 1.390 1_655 S
C367 H360 0.950 . S
C367 C364 1.387 . S
C368 C369 1.387 . S
C368 H372 0.950 . S
C368 C377 1.390 1_554 S
C369 C368 1.387 . S
C369 C371 1.387 . S
H370 C377 0.950 . S
C371 C369 1.387 . S
C371 C373 1.390 1_554 S
C371 H375 0.950 . S
H372 C368 0.950 . S
C373 C371 1.390 1_556 S
C373 C374 1.387 . S
C373 H376 0.950 . S
C374 C373 1.387 . S
C374 C377 1.387 . S
H375 C371 0.950 . S
H376 C373 0.950 . S
C377 C368 1.390 1_556 S
C377 H370 0.950 . S
C377 C374 1.387 . S
C378 C379 1.387 . S
C378 H382 0.950 . S
C378 C387 1.390 . S
C379 C378 1.387 . S
C379 C381 1.387 . S
H380 C387 0.950 . S
C381 C379 1.387 . S
C381 C383 1.390 . S
C381 H385 0.950 . S
H382 C378 0.950 . S
C383 C381 1.390 . S
C383 C384 1.387 . S
C383 H386 0.950 . S
C384 C383 1.387 . S
C384 C387 1.387 . S
H385 C381 0.950 . S
H386 C383 0.950 . S
C387 C378 1.390 . S
C387 H380 0.950 . S
C387 C384 1.387 . S
C388 C389 1.387 . S
C388 H392 0.950 . S
C388 C397 1.390 . S
C389 C388 1.387 . S
C389 C391 1.387 . S
H390 C397 0.950 . S
C391 C389 1.387 . S
C391 C393 1.390 . S
C391 H395 0.950 . S
H392 C388 0.950 . S
C393 C391 1.390 . S
C393 C394 1.387 . S
C393 H396 0.950 . S
C394 C393 1.387 . S
C394 C397 1.387 . S
H395 C391 0.950 . S
H396 C393 0.950 . S
C397 C388 1.390 . S
C397 H390 0.950 . S
C397 C394 1.387 . S
C398 C399 1.387 . S
C398 H402 0.950 . S
C398 C407 1.390 . S
C399 C398 1.387 . S
C399 C401 1.387 . S
H400 C407 0.950 . S
C401 C399 1.387 . S
C401 C403 1.390 . S
C401 H405 0.950 1_545 S
H402 C398 0.950 . S
C403 C401 1.390 . S
C403 C404 1.387 . S
C403 H406 0.950 . S
C404 C403 1.387 . S
C404 C407 1.387 . S
H405 C401 0.950 1_565 S
H406 C403 0.950 . S
C407 C398 1.390 . S
C407 H400 0.950 . S
C407 C404 1.387 . S
C408 C409 1.387 . S
C408 H412 0.950 . S
C408 C417 1.390 . S
C409 C408 1.387 . S
C409 C411 1.387 . S
H410 C417 0.950 . S
C411 C409 1.387 . S
C411 C413 1.390 1_556 S
C411 H415 0.950 . S
H412 C408 0.950 . S
C413 C411 1.390 1_554 S
C413 C414 1.387 . S
C413 H416 0.950 . S
C414 C413 1.387 . S
C414 C417 1.387 1_554 S
H415 C411 0.950 . S
H416 C413 0.950 . S
C417 C408 1.390 . S
C417 H410 0.950 . S
C417 C414 1.387 1_556 S
C418 C419 1.387 . S
C418 H422 0.950 . S
C418 C427 1.390 . S
C419 C418 1.387 . S
C419 C421 1.387 . S
H420 C427 0.950 . S
C421 C419 1.387 . S
C421 C423 1.390 . S
C421 H425 0.950 . S
H422 C418 0.950 . S
C423 C421 1.390 . S
C423 C424 1.387 . S
C423 H426 0.950 1_545 S
C424 C423 1.387 . S
C424 C427 1.387 . S
H425 C421 0.950 . S
H426 C423 0.950 1_565 S
C427 C418 1.390 . S
C427 H420 0.950 . S
C427 C424 1.387 . S
C428 C429 1.387 . S
C428 H432 0.950 . S
C428 C437 1.390 . S
C429 C428 1.387 . S
C429 C431 1.387 . S
H430 C437 0.950 . S
C431 C429 1.387 . S
C431 C433 1.390 . S
C431 H435 0.950 . S
H432 C428 0.950 . S
C433 C431 1.390 . S
C433 C434 1.387 . S
C433 H436 0.950 . S
C434 C433 1.387 . S
C434 C437 1.387 . S
H435 C431 0.950 . S
H436 C433 0.950 . S
C437 C428 1.390 . S
C437 H430 0.950 . S
C437 C434 1.387 . S
C438 C439 1.387 . S
C438 H442 0.950 . S
C438 C447 1.390 . S
C439 C438 1.387 . S
C439 C441 1.387 . S
H440 C447 0.950 . S
C441 C439 1.387 . S
C441 C443 1.390 . S
C441 H445 0.950 1_565 S
H442 C438 0.950 . S
C443 C441 1.390 . S
C443 C444 1.387 . S
C443 H446 0.950 . S
C444 C443 1.387 . S
C444 C447 1.387 . S
H445 C441 0.950 1_545 S
H446 C443 0.950 . S
C447 C438 1.390 . S
C447 H440 0.950 . S
C447 C444 1.387 . S
C448 C449 1.387 . S
C448 H452 0.950 . S
C448 C457 1.390 1_545 S
C449 C448 1.387 . S
C449 C451 1.387 . S
H450 C457 0.950 . S
C451 C449 1.387 . S
C451 C453 1.390 1_545 S
C451 H455 0.950 . S
H452 C448 0.950 . S
C453 C451 1.390 1_565 S
C453 C454 1.387 . S
C453 H456 0.950 . S
C454 C453 1.387 . S
C454 C457 1.387 . S
H455 C451 0.950 . S
H456 C453 0.950 . S
C457 C448 1.390 1_565 S
C457 H450 0.950 . S
C457 C454 1.387 . S
C458 C459 1.387 . S
C458 H462 0.950 . S
C458 C467 1.390 . S
C459 C458 1.387 . S
C459 C461 1.387 . S
H460 C467 0.950 . S
C461 C459 1.387 . S
C461 C463 1.390 . S
C461 H465 0.950 . S
H462 C458 0.950 . S
C463 C461 1.390 . S
C463 C464 1.387 . S
C463 H466 0.950 . S
C464 C463 1.387 . S
C464 C467 1.387 . S
H465 C461 0.950 . S
H466 C463 0.950 . S
C467 C458 1.390 . S
C467 H460 0.950 . S
C467 C464 1.387 . S
C468 C469 1.387 1_554 S
C468 H472 0.950 . S
C468 C477 1.390 . S
C469 C468 1.387 1_556 S
C469 C471 1.387 1_545 S
H470 C477 0.950 . S
C471 C469 1.387 1_565 S
C471 C473 1.390 1_556 S
C471 H475 0.950 . S
H472 C468 0.950 . S
C473 C471 1.390 1_554 S
C473 C474 1.387 . S
C473 H476 0.950 . S
C474 C473 1.387 . S
C474 C477 1.387 1_565 S
H475 C471 0.950 . S
H476 C473 0.950 . S
C477 C468 1.390 . S
C477 H470 0.950 . S
C477 C474 1.387 1_545 S
C478 C479 1.387 . S
C478 H482 0.950 . S
C478 C487 1.390 . S
C479 C478 1.387 . S
C479 C481 1.387 . S
H480 C487 0.950 . S
C481 C479 1.387 . S
C481 C483 1.390 . S
C481 H485 0.950 . S
H482 C478 0.950 . S
C483 C481 1.390 . S
C483 C484 1.387 . S
C483 H486 0.950 . S
C484 C483 1.387 . S
C484 C487 1.387 . S
H485 C481 0.950 . S
H486 C483 0.950 . S
C487 C478 1.390 . S
C487 H480 0.950 . S
C487 C484 1.387 . S
C488 C489 1.387 . S
C488 H492 0.950 . S
C488 C497 1.390 1_545 S
C489 C488 1.387 . S
C489 C491 1.387 . S
H490 C497 0.950 . S
C491 C489 1.387 . S
C491 C493 1.395 . S
C491 H495 0.950 . S
H492 C488 0.950 . S
C493 C491 1.395 . S
C493 C494 1.383 1_545 S
C493 H496 0.949 1_545 S
C494 C493 1.383 1_565 S
C494 C497 1.387 . S
H495 C491 0.950 . S
H496 C493 0.949 1_565 S
C497 C488 1.390 1_565 S
C497 H490 0.950 . S
C497 C494 1.387 . S
C498 C499 1.387 . S
C498 H502 0.950 . S
C498 C507 1.390 . S
C499 C498 1.387 . S
C499 C501 1.387 . S
H500 C507 0.950 . S
C501 C499 1.387 . S
C501 C503 1.390 . S
C501 H505 0.950 . S
H502 C498 0.950 . S
C503 C501 1.390 . S
C503 C504 1.387 . S
C503 H506 0.950 . S
C504 C503 1.387 . S
C504 C507 1.387 . S
H505 C501 0.950 . S
H506 C503 0.950 . S
C507 C498 1.390 . S
C507 H500 0.950 . S
C507 C504 1.387 . S
C508 C509 1.387 1_545 S
C508 H512 0.950 . S
C508 C517 1.390 1_554 S
C509 C508 1.387 1_565 S
C509 C511 1.370 1_554 S
H510 C517 0.950 . S
C511 C509 1.370 1_556 S
C511 C513 1.415 1_565 S
C511 H515 0.943 1_556 S
H512 C508 0.950 . S
C513 C511 1.415 1_545 S
C513 C514 1.387 . S
C513 H516 0.951 . S
C514 C513 1.387 . S
C514 C517 1.387 . S
H515 C511 0.943 1_554 S
H516 C513 0.951 . S
C517 C508 1.390 1_556 S
C517 H510 0.950 . S
C517 C514 1.387 . S
C518 C519 1.387 . S
C518 H522 0.950 . S
C518 C527 1.390 . S
C519 C518 1.387 . S
C519 C521 1.387 . S
H520 C527 0.950 . S
C521 C519 1.387 . S
C521 C523 1.390 . S
C521 H525 0.950 . S
H522 C518 0.950 . S
C523 C521 1.390 . S
C523 C524 1.387 . S
C523 H526 0.950 . S
C524 C523 1.387 . S
C524 C527 1.387 . S
H525 C521 0.950 . S
H526 C523 0.950 . S
C527 C518 1.390 . S
C527 H520 0.950 . S
C527 C524 1.387 . S
C209 C148 1.427 . S
C214 C8 1.419 . S
C219 C200 1.389 . S
C224 C18 1.400 . S
C229 C31 1.396 . S
C234 C125 1.381 . S
C239 C174 1.389 . S
C244 C47 1.392 . S
C249 C60 1.446 . S
C254 C177 1.463 . S
C259 C70 1.390 . S
C264 C151 1.390 . S
C269 C83 1.379 . S
C274 C203 1.377 . S
C279 C96 1.376 . S
C284 C122 1.372 . S
C289 C44 1.432 . S
C294 C112 1.431 . S
C299 C138 1.447 . S
C304 C21 1.439 . S
C309 C164 1.446 . S
C314 C73 1.450 . S
C319 C187 1.457 . S
C324 C99 1.443 . S
C329 C57 1.448 . S
C334 C109 1.441 . S
C339 C135 1.382 . S
C344 C86 1.388 . S
C349 C190 1.458 . S
C354 C34 1.457 . S
C359 C5 1.402 . S
C364 C161 1.398 . S
C369 C10 1.258 . S
C374 C62 1.261 . S
C379 C13 1.276 . S
C384 C65 1.272 . S
C389 C26 1.249 . S
C394 C78 1.250 . S
C399 C91 1.255 . S
C404 C49 1.255 . S
C409 C114 1.231 . S
C414 C166 1.236 . S
C419 C169 1.208 . S
C424 C117 1.213 . S
C429 C140 1.359 . S
C434 C182 1.365 . S
C439 C195 1.260 . S
C444 C153 1.258 . S
C449 C101 1.222 . S
C454 C23 1.227 . S
C459 C36 1.338 . S
C464 C52 1.325 . S
C469 C39 1.295 . S
C474 C75 1.296 . S
C479 C0 1.227 . S
C484 C88 1.225 . S
C489 C127 1.215 . S
C494 C205 1.210 . S
C499 C156 1.294 . S
C504 C130 1.292 . S
C509 C143 1.277 . S
C514 C179 1.278 . S
C519 C192 1.287 . S
C524 C104 1.276 . S
