# Generated by pormake.
# Topology wiu, (6)-cn, num edge types: 1
# Building blocks:
#     Node 0, Type 0, BuildingBlock: VOLQOD_clean_sbu_1, # of connection points: 6
#     Node 1, Type 0, BuildingBlock: VOLQOD_clean_sbu_1, # of connection points: 6
#     Node 2, Type 0, BuildingBlock: VOLQOD_clean_sbu_1, # of connection points: 6
#     Node 3, Type 0, BuildingBlock: VOLQOD_clean_sbu_1, # of connection points: 6
#     Node 4, Type 0, BuildingBlock: VOLQOD_clean_sbu_1, # of connection points: 6
#     Node 5, Type 0, BuildingBlock: VOLQOD_clean_sbu_1, # of connection points: 6
#     Node 6, Type 0, BuildingBlock: VOLQOD_clean_sbu_1, # of connection points: 6
#     Node 7, Type 0, BuildingBlock: VOLQOD_clean_sbu_1, # of connection points: 6
#     Node 8, Type 0, BuildingBlock: VOLQOD_clean_sbu_1, # of connection points: 6
#     Node 9, Type 0, BuildingBlock: VOLQOD_clean_sbu_1, # of connection points: 6
#     Node 10, Type 0, BuildingBlock: VOLQOD_clean_sbu_1, # of connection points: 6
#     Node 11, Type 0, BuildingBlock: VOLQOD_clean_sbu_1, # of connection points: 6
#     Node 12, Type 0, BuildingBlock: VOLQOD_clean_sbu_1, # of connection points: 6
#     Node 13, Type 0, BuildingBlock: VOLQOD_clean_sbu_1, # of connection points: 6
#     Node 14, Type 0, BuildingBlock: VOLQOD_clean_sbu_1, # of connection points: 6
#     Node 15, Type 0, BuildingBlock: VOLQOD_clean_sbu_1, # of connection points: 6
#     Edge 16, Type (0, 0), BuildingBlock: AJUNOK_clean_linker_0, # of connection points: 2
#     Edge 17, Type (0, 0), BuildingBlock: AJUNOK_clean_linker_0, # of connection points: 2
#     Edge 18, Type (0, 0), BuildingBlock: AJUNOK_clean_linker_0, # of connection points: 2
#     Edge 19, Type (0, 0), BuildingBlock: AJUNOK_clean_linker_0, # of connection points: 2
#     Edge 20, Type (0, 0), BuildingBlock: AJUNOK_clean_linker_0, # of connection points: 2
#     Edge 21, Type (0, 0), BuildingBlock: AJUNOK_clean_linker_0, # of connection points: 2
#     Edge 22, Type (0, 0), BuildingBlock: AJUNOK_clean_linker_0, # of connection points: 2
#     Edge 23, Type (0, 0), BuildingBlock: AJUNOK_clean_linker_0, # of connection points: 2
#     Edge 24, Type (0, 0), BuildingBlock: AJUNOK_clean_linker_0, # of connection points: 2
#     Edge 25, Type (0, 0), BuildingBlock: AJUNOK_clean_linker_0, # of connection points: 2
#     Edge 26, Type (0, 0), BuildingBlock: AJUNOK_clean_linker_0, # of connection points: 2
#     Edge 27, Type (0, 0), BuildingBlock: AJUNOK_clean_linker_0, # of connection points: 2
#     Edge 28, Type (0, 0), BuildingBlock: AJUNOK_clean_linker_0, # of connection points: 2
#     Edge 29, Type (0, 0), BuildingBlock: AJUNOK_clean_linker_0, # of connection points: 2
#     Edge 30, Type (0, 0), BuildingBlock: AJUNOK_clean_linker_0, # of connection points: 2
#     Edge 31, Type (0, 0), BuildingBlock: AJUNOK_clean_linker_0, # of connection points: 2
#     Edge 32, Type (0, 0), BuildingBlock: AJUNOK_clean_linker_0, # of connection points: 2
#     Edge 33, Type (0, 0), BuildingBlock: AJUNOK_clean_linker_0, # of connection points: 2
#     Edge 34, Type (0, 0), BuildingBlock: AJUNOK_clean_linker_0, # of connection points: 2
#     Edge 35, Type (0, 0), BuildingBlock: AJUNOK_clean_linker_0, # of connection points: 2
#     Edge 36, Type (0, 0), BuildingBlock: AJUNOK_clean_linker_0, # of connection points: 2
#     Edge 37, Type (0, 0), BuildingBlock: AJUNOK_clean_linker_0, # of connection points: 2
#     Edge 38, Type (0, 0), BuildingBlock: AJUNOK_clean_linker_0, # of connection points: 2
#     Edge 39, Type (0, 0), BuildingBlock: AJUNOK_clean_linker_0, # of connection points: 2
#     Edge 40, Type (0, 0), BuildingBlock: AJUNOK_clean_linker_0, # of connection points: 2
#     Edge 41, Type (0, 0), BuildingBlock: AJUNOK_clean_linker_0, # of connection points: 2
#     Edge 42, Type (0, 0), BuildingBlock: AJUNOK_clean_linker_0, # of connection points: 2
#     Edge 43, Type (0, 0), BuildingBlock: AJUNOK_clean_linker_0, # of connection points: 2
#     Edge 44, Type (0, 0), BuildingBlock: AJUNOK_clean_linker_0, # of connection points: 2
#     Edge 45, Type (0, 0), BuildingBlock: AJUNOK_clean_linker_0, # of connection points: 2
#     Edge 46, Type (0, 0), BuildingBlock: AJUNOK_clean_linker_0, # of connection points: 2
#     Edge 47, Type (0, 0), BuildingBlock: AJUNOK_clean_linker_0, # of connection points: 2
#     Edge 48, Type (0, 0), BuildingBlock: AJUNOK_clean_linker_0, # of connection points: 2
#     Edge 49, Type (0, 0), BuildingBlock: AJUNOK_clean_linker_0, # of connection points: 2
#     Edge 50, Type (0, 0), BuildingBlock: AJUNOK_clean_linker_0, # of connection points: 2
#     Edge 51, Type (0, 0), BuildingBlock: AJUNOK_clean_linker_0, # of connection points: 2
#     Edge 52, Type (0, 0), BuildingBlock: AJUNOK_clean_linker_0, # of connection points: 2
#     Edge 53, Type (0, 0), BuildingBlock: AJUNOK_clean_linker_0, # of connection points: 2
#     Edge 54, Type (0, 0), BuildingBlock: AJUNOK_clean_linker_0, # of connection points: 2
#     Edge 55, Type (0, 0), BuildingBlock: AJUNOK_clean_linker_0, # of connection points: 2
#     Edge 56, Type (0, 0), BuildingBlock: AJUNOK_clean_linker_0, # of connection points: 2
#     Edge 57, Type (0, 0), BuildingBlock: AJUNOK_clean_linker_0, # of connection points: 2
#     Edge 58, Type (0, 0), BuildingBlock: AJUNOK_clean_linker_0, # of connection points: 2
#     Edge 59, Type (0, 0), BuildingBlock: AJUNOK_clean_linker_0, # of connection points: 2
#     Edge 60, Type (0, 0), BuildingBlock: AJUNOK_clean_linker_0, # of connection points: 2
#     Edge 61, Type (0, 0), BuildingBlock: AJUNOK_clean_linker_0, # of connection points: 2
#     Edge 62, Type (0, 0), BuildingBlock: AJUNOK_clean_linker_0, # of connection points: 2
#     Edge 63, Type (0, 0), BuildingBlock: AJUNOK_clean_linker_0, # of connection points: 2
# Relax obj value: 0.181
# Max RMSD: 0.175
# Mean RMSD: 0.175
data_MOF--net-wiu--node1-VOLQOD_clean_sbu_1--edge1-AJUNOK_clean_linker_0
_symmetry_space_group_name_H-M    P1
_symmetry_Int_Tables_number       1
_symmetry_cell_setting            triclinic
loop_
_symmetry_equiv_pos_as_xyz
'x, y, z'
_cell_length_a     25.479149
_cell_length_b     25.609917
_cell_length_c     44.04022
_cell_angle_alpha  89.752435
_cell_angle_beta   89.941234
_cell_angle_gamma 89.697903
loop_
_atom_site_label
_atom_site_type_symbol
_atom_site_fract_x
_atom_site_fract_y
_atom_site_fract_z
_atom_type_partial_charge
O0 O 0.38032 0.23394 0.02234 0.0
Zn1 Zn 0.31722 0.21871 0.04612 0.0
O2 O 0.32958 0.15153 0.06491 0.0
Zn3 Zn 0.30741 0.09313 0.03992 0.0
Zn4 Zn 0.40319 0.14347 0.07392 0.0
Zn5 Zn 0.28978 0.15699 0.10106 0.0
O6 O 0.2526 0.04933 0.06491 0.0
O7 O 0.22956 0.10917 0.09934 0.0
O8 O 0.25967 0.21204 0.01608 0.0
O9 O 0.26232 0.12608 0.00713 0.0
O10 O 0.37494 0.05393 0.02076 0.0
O11 O 0.43721 0.08539 0.05048 0.0
O12 O 0.41617 0.12838 0.11871 0.0
O13 O 0.30165 0.27796 0.07614 0.0
O14 O 0.33281 0.12927 0.13376 0.0
O15 O 0.26898 0.23005 0.11342 0.0
C16 C 0.4275 0.22628 0.03029 0.0
C17 C 0.22226 0.06553 0.08633 0.0
C18 C 0.42356 0.05569 0.02888 0.0
C19 C 0.24449 0.17194 0.00167 0.0
C20 C 0.38102 0.12074 0.13884 0.0
C21 C 0.2796 0.27457 0.10209 0.0
O22 O 0.44011 0.20357 0.05513 0.0
O23 O 0.54418 0.62076 0.26426 0.0
Zn24 Zn 0.55576 0.55519 0.28675 0.0
O25 O 0.61989 0.56565 0.30916 0.0
Zn26 Zn 0.68087 0.54626 0.28557 0.0
Zn27 Zn 0.62521 0.63797 0.31961 0.0
Zn28 Zn 0.61083 0.52485 0.34481 0.0
O29 O 0.72427 0.49397 0.31233 0.0
O30 O 0.6608 0.46504 0.34348 0.0
O31 O 0.56602 0.49942 0.25626 0.0
O32 O 0.65328 0.50045 0.25185 0.0
O33 O 0.71723 0.61479 0.26656 0.0
O34 O 0.67961 0.67588 0.29469 0.0
O35 O 0.63856 0.64829 0.3648 0.0
O36 O 0.49314 0.53855 0.31385 0.0
O37 O 0.63296 0.56587 0.37985 0.0
O38 O 0.53492 0.50677 0.35405 0.0
C39 C 0.54599 0.6651 0.27684 0.0
C40 C 0.70682 0.46137 0.33222 0.0
C41 C 0.71095 0.66338 0.27339 0.0
C42 C 0.60823 0.48362 0.24386 0.0
C43 C 0.64152 0.61354 0.3856 0.0
C44 C 0.49233 0.51797 0.34027 0.0
O45 O 0.55999 0.67075 0.30444 0.0
O46 O 0.13162 0.80077 0.52452 0.0
Zn47 Zn 0.20008 0.8065 0.5448 0.0
O48 O 0.19626 0.8723 0.56577 0.0
Zn49 Zn 0.21771 0.92956 0.54019 0.0
Zn50 Zn 0.12541 0.88641 0.57859 0.0
Zn51 Zn 0.24126 0.86245 0.5994 0.0
O52 O 0.2737 0.97239 0.56431 0.0
O53 O 0.30323 0.90785 0.59442 0.0
O54 O 0.25471 0.81025 0.51246 0.0
O55 O 0.26088 0.89666 0.50686 0.0
O56 O 0.1496 0.96661 0.52126 0.0
O57 O 0.09045 0.9466 0.55631 0.0
O58 O 0.12073 0.89594 0.62416 0.0
O59 O 0.21596 0.74444 0.57293 0.0
O60 O 0.20474 0.88579 0.63613 0.0
O61 O 0.2597 0.78719 0.60827 0.0
C62 C 0.08721 0.81129 0.53614 0.0
C63 C 0.30818 0.95301 0.58258 0.0
C64 C 0.10237 0.96974 0.53162 0.0
C65 C 0.27388 0.85021 0.4994 0.0
C66 C 0.15769 0.89559 0.64371 0.0
C67 C 0.24322 0.74444 0.59725 0.0
O68 O 0.08243 0.8285 0.56313 0.0
O69 O 0.98949 0.3998 0.7641 0.0
Zn70 Zn 0.97351 0.4631 0.78741 0.0
O71 O 0.90551 0.4531 0.80606 0.0
Zn72 Zn 0.84822 0.47526 0.78008 0.0
Zn73 Zn 0.89512 0.3805 0.81566 0.0
Zn74 Zn 0.91103 0.49437 0.84166 0.0
O75 O 0.80155 0.52804 0.80423 0.0
O76 O 0.85861 0.55132 0.84027 0.0
O77 O 0.96845 0.52071 0.75709 0.0
O78 O 0.88209 0.52061 0.74798 0.0
O79 O 0.8113 0.4086 0.76044 0.0
O80 O 0.83436 0.34741 0.79361 0.0
O81 O 0.88738 0.36866 0.86128 0.0
O82 O 0.03233 0.47754 0.81802 0.0
O83 O 0.89173 0.45096 0.87653 0.0
O84 O 0.98386 0.52005 0.85159 0.0
C85 C 0.97883 0.35326 0.77163 0.0
C86 C 0.81545 0.55774 0.82623 0.0
C87 C 0.80948 0.36086 0.76975 0.0
C88 C 0.92843 0.53726 0.74267 0.0
C89 C 0.88494 0.40288 0.88226 0.0
C90 C 0.02857 0.50497 0.84203 0.0
O91 O 0.95273 0.34173 0.79546 0.0
O92 O 0.64812 0.78772 0.9657 0.0
Zn93 Zn 0.70832 0.80373 0.93995 0.0
O94 O 0.69289 0.8692 0.92034 0.0
Zn95 Zn 0.71612 0.92744 0.9449 0.0
Zn96 Zn 0.61831 0.87485 0.91357 0.0
Zn97 Zn 0.72859 0.86288 0.88256 0.0
O98 O 0.77093 0.96902 0.91895 0.0
O99 O 0.79002 0.91025 0.88292 0.0
O100 O 0.76768 0.81064 0.96835 0.0
O101 O 0.76154 0.89589 0.97822 0.0
O102 O 0.64922 0.96708 0.96439 0.0
O103 O 0.58472 0.93269 0.9374 0.0
O104 O 0.60074 0.889 0.86921 0.0
O105 O 0.72133 0.74441 0.91064 0.0
O106 O 0.68237 0.89141 0.85128 0.0
O107 O 0.74563 0.78828 0.86975 0.0
C108 C 0.60029 0.79248 0.95853 0.0
C109 C 0.7993 0.95301 0.89659 0.0
C110 C 0.59991 0.96376 0.95797 0.0
C111 C 0.78108 0.85061 0.98336 0.0
C112 C 0.63339 0.89801 0.84789 0.0
C113 C 0.73768 0.74496 0.88331 0.0
O114 O 0.58508 0.81383 0.93377 0.0
O115 O 0.48014 0.40263 0.72933 0.0
Zn116 Zn 0.46758 0.4664 0.70494 0.0
O117 O 0.40793 0.45017 0.67962 0.0
Zn118 Zn 0.34255 0.46723 0.69914 0.0
Zn119 Zn 0.40857 0.37657 0.67114 0.0
Zn120 Zn 0.42015 0.48951 0.64376 0.0
O121 O 0.3034 0.5222 0.67221 0.0
O122 O 0.3686 0.54825 0.64151 0.0
O123 O 0.44916 0.52136 0.735 0.0
O124 O 0.36306 0.50651 0.7363 0.0
O125 O 0.30384 0.39899 0.71497 0.0
O126 O 0.35287 0.33674 0.69454 0.0
O127 O 0.40155 0.36288 0.6258 0.0
O128 O 0.53317 0.48449 0.68046 0.0
O129 O 0.40429 0.44486 0.60942 0.0
O130 O 0.49629 0.50959 0.6373 0.0
C131 C 0.48388 0.3577 0.71762 0.0
C132 C 0.32223 0.55344 0.65205 0.0
C133 C 0.31503 0.35023 0.71176 0.0
C134 C 0.40426 0.52737 0.74717 0.0
C135 C 0.39958 0.39646 0.60432 0.0
C136 C 0.53717 0.50222 0.65344 0.0
O137 O 0.474 0.34952 0.68965 0.0
O138 O 0.89372 0.21694 0.46365 0.0
Zn139 Zn 0.8267 0.21081 0.44202 0.0
O140 O 0.83109 0.14475 0.42145 0.0
Zn141 Zn 0.80752 0.08843 0.44717 0.0
Zn142 Zn 0.90291 0.12984 0.41041 0.0
Zn143 Zn 0.7887 0.15512 0.38658 0.0
O144 O 0.75239 0.04576 0.42243 0.0
O145 O 0.72816 0.10692 0.38855 0.0
O146 O 0.77049 0.20853 0.47338 0.0
O147 O 0.76345 0.12237 0.47962 0.0
O148 O 0.8743 0.05103 0.46748 0.0
O149 O 0.93584 0.06962 0.43357 0.0
O150 O 0.91109 0.11909 0.36516 0.0
O151 O 0.81316 0.27245 0.41351 0.0
O152 O 0.82877 0.13303 0.35094 0.0
O153 O 0.76969 0.23063 0.37768 0.0
C154 C 0.93887 0.20608 0.45318 0.0
C155 C 0.72142 0.06285 0.40149 0.0
C156 C 0.92216 0.0473 0.45818 0.0
C157 C 0.75063 0.16908 0.48658 0.0
C158 C 0.87584 0.12091 0.34464 0.0
C159 C 0.78634 0.27312 0.38906 0.0
O160 O 0.94556 0.18739 0.42667 0.0
O161 O 0.03722 0.61667 0.23159 0.0
Zn162 Zn 0.04855 0.55316 0.20718 0.0
O163 O 0.1119 0.56588 0.18432 0.0
Zn164 Zn 0.17465 0.54625 0.20622 0.0
Zn165 Zn 0.11435 0.63844 0.17464 0.0
Zn166 Zn 0.10277 0.52632 0.14866 0.0
O167 O 0.21646 0.49349 0.1789 0.0
O168 O 0.14969 0.46433 0.15066 0.0
O169 O 0.06121 0.49586 0.23651 0.0
O170 O 0.14851 0.50048 0.24072 0.0
O171 O 0.21292 0.61461 0.22374 0.0
O172 O 0.17055 0.67596 0.19786 0.0
O173 O 0.12379 0.6508 0.1295 0.0
O174 O 0.98519 0.538 0.18007 0.0
O175 O 0.12512 0.56847 0.11386 0.0
O176 O 0.02725 0.50983 0.13923 0.0
C177 C 0.03789 0.66181 0.21976 0.0
C178 C 0.19638 0.45976 0.16074 0.0
C179 C 0.20501 0.66329 0.21745 0.0
C180 C 0.10413 0.48181 0.24884 0.0
C181 C 0.12906 0.61701 0.10851 0.0
C182 C 0.98457 0.51972 0.15315 0.0
O183 O 0.04984 0.66924 0.19194 0.0
O184 O 0.85908 0.73539 0.51334 0.0
Zn185 Zn 0.80387 0.71177 0.54134 0.0
O186 O 0.83105 0.65342 0.56486 0.0
Zn187 Zn 0.81204 0.58691 0.54671 0.0
Zn188 Zn 0.90627 0.65713 0.56791 0.0
Zn189 Zn 0.80082 0.66502 0.60405 0.0
O190 O 0.75926 0.55039 0.57646 0.0
O191 O 0.74404 0.61335 0.61061 0.0
O192 O 0.74634 0.68932 0.51424 0.0
O193 O 0.76698 0.60491 0.51023 0.0
O194 O 0.8805 0.54587 0.53054 0.0
O195 O 0.94302 0.59907 0.54612 0.0
O196 O 0.93179 0.65561 0.61185 0.0
O197 O 0.78413 0.77513 0.56698 0.0
O198 O 0.85413 0.65114 0.63464 0.0
O199 O 0.77864 0.73984 0.61264 0.0
C200 C 0.9076 0.73773 0.51921 0.0
C201 C 0.73393 0.56871 0.59941 0.0
C202 C 0.92945 0.55838 0.53181 0.0
C203 C 0.74132 0.64524 0.50141 0.0
C204 C 0.90384 0.65106 0.63575 0.0
C205 C 0.77613 0.77979 0.59543 0.0
O206 O 0.92788 0.71784 0.54316 0.0
O207 O 0.05483 0.12168 0.76933 0.0
Zn208 Zn 0.06808 0.06304 0.79727 0.0
O209 O 0.12638 0.08391 0.82207 0.0
Zn210 Zn 0.19284 0.06513 0.8031 0.0
Zn211 Zn 0.12321 0.15814 0.82677 0.0
Zn212 Zn 0.11264 0.05128 0.86013 0.0
O213 O 0.23064 0.01345 0.83296 0.0
O214 O 0.16562 0.99492 0.86562 0.0
O215 O 0.08846 1.00454 0.77073 0.0
O216 O 0.17462 0.01854 0.7678 0.0
O217 O 0.2318 0.13313 0.78494 0.0
O218 O 0.17918 0.19445 0.80308 0.0
O219 O 0.12859 0.18042 0.87076 0.0
O220 O 1.00222 0.04583 0.82146 0.0
O221 O 0.12515 0.10207 0.89241 0.0
O222 O 0.03712 0.02772 0.86623 0.0
C223 C 0.05064 0.16851 0.77804 0.0
C224 C 0.21146 0.98634 0.85502 0.0
C225 C 0.21856 0.18169 0.787 0.0
C226 C 0.13317 0.99511 0.75912 0.0
C227 C 0.12945 0.15129 0.89428 0.0
C228 C 0.9971 0.03091 0.84896 0.0
O229 O 0.05956 0.18211 0.80538 0.0
O230 O 0.65748 0.29688 0.00876 0.0
Zn231 Zn 0.71684 0.30767 0.03643 0.0
O232 O 0.69685 0.3649 0.06203 0.0
Zn233 Zn 0.71437 0.43114 0.04314 0.0
Zn234 Zn 0.6228 0.36075 0.06849 0.0
Zn235 Zn 0.73179 0.34993 0.09911 0.0
O236 O 0.76663 0.46787 0.07295 0.0
O237 O 0.78878 0.4016 0.10406 0.0
O238 O 0.77566 0.32754 0.00976 0.0
O239 O 0.7598 0.4131 0.00655 0.0
O240 O 0.64398 0.47052 0.02751 0.0
O241 O 0.58417 0.41754 0.04678 0.0
O242 O 0.60297 0.36462 0.11314 0.0
O243 O 0.73246 0.24074 0.05997 0.0
O244 O 0.68325 0.36383 0.13246 0.0
O245 O 0.75316 0.27386 0.10463 0.0
C246 C 0.61097 0.29185 0.01833 0.0
C247 C 0.79528 0.44806 0.09424 0.0
C248 C 0.59543 0.45743 0.03092 0.0
C249 C 0.78355 0.37182 -0.00248 0.0
C250 C 0.63394 0.36756 0.13578 0.0
C251 C 0.74781 0.23451 0.0873 0.0
O252 O 0.5986 0.29876 0.04614 0.0
O253 O 0.47945 0.90001 0.26971 0.0
Zn254 Zn 0.45919 0.95728 0.29679 0.0
O255 O 0.39993 0.93265 0.32015 0.0
Zn256 Zn 0.33456 0.95149 0.3003 0.0
Zn257 Zn 0.4029 0.85792 0.32507 0.0
Zn258 Zn 0.41089 0.96563 0.35818 0.0
O259 O 0.29764 1.00821 0.32728 0.0
O260 O 0.3598 0.02362 0.36205 0.0
O261 O 0.43884 0.01457 0.26867 0.0
O262 O 0.35585 0.98999 0.26242 0.0
O263 O 0.29332 0.88372 0.28511 0.0
O264 O 0.34517 0.82084 0.30269 0.0
O265 O 0.39769 0.83604 0.36967 0.0
O266 O 0.52293 0.9759 0.32221 0.0
O267 O 0.39449 0.91535 0.38985 0.0
O268 O 0.48585 0.98747 0.36695 0.0
C269 C 0.48297 0.85233 0.27707 0.0
C270 C 0.3158 0.03446 0.34979 0.0
C271 C 0.30515 0.83485 0.28742 0.0
C272 C 0.39618 0.01538 0.25374 0.0
C273 C 0.39255 0.8661 0.39253 0.0
C274 C 0.52666 0.98722 0.35026 0.0
O275 O 0.46587 0.83418 0.30227 0.0
O276 O 0.16619 0.28371 0.4819 0.0
Zn277 Zn 0.22389 0.30243 0.45444 0.0
O278 O 0.20201 0.36133 0.43018 0.0
Zn279 Zn 0.22066 0.42723 0.44893 0.0
Zn280 Zn 0.12772 0.35769 0.42485 0.0
Zn281 Zn 0.23549 0.34896 0.39219 0.0
O282 O 0.2724 0.46521 0.41896 0.0
O283 O 0.293 0.40009 0.38712 0.0
O284 O 0.28245 0.3219 0.48111 0.0
O285 O 0.26836 0.40788 0.48416 0.0
O286 O 0.15102 0.46618 0.46608 0.0
O287 O 0.09036 0.41382 0.44746 0.0
O288 O 0.10605 0.36291 0.38046 0.0
O289 O 0.2408 0.23807 0.42935 0.0
O290 O 0.18556 0.36475 0.35998 0.0
O291 O 0.25635 0.27357 0.3845 0.0
C292 C 0.11928 0.27902 0.47303 0.0
C293 C 0.30054 0.44594 0.39734 0.0
C294 C 0.10232 0.45312 0.46341 0.0
C295 C 0.29214 0.36619 0.49263 0.0
C296 C 0.13608 0.36751 0.35743 0.0
C297 C 0.25337 0.23334 0.4015 0.0
O298 O 0.10361 0.29512 0.44707 0.0
O299 O 0.97765 0.89605 0.21628 0.0
Zn300 Zn 0.96001 0.95354 0.18868 0.0
O301 O 0.89976 0.9317 0.16564 0.0
Zn302 Zn 0.83505 0.95196 0.18596 0.0
Zn303 Zn 0.90078 0.8569 0.16046 0.0
Zn304 Zn 0.91098 0.96609 0.12777 0.0
O305 O 0.79676 1.00655 0.15809 0.0
O306 O 0.8595 0.02426 0.12389 0.0
O307 O 0.94167 0.01196 0.21571 0.0
O308 O 0.85651 0.9956 0.22185 0.0
O309 O 0.79477 0.8846 0.20313 0.0
O310 O 0.84121 0.82071 0.18225 0.0
O311 O 0.89754 0.83685 0.1155 0.0
O312 O 0.02407 0.97101 0.16321 0.0
O313 O 0.89535 0.91684 0.09579 0.0
O314 O 0.98623 0.98745 0.11907 0.0
C315 C 0.97888 0.84808 0.20962 0.0
C316 C 0.81488 0.03378 0.13582 0.0
C317 C 0.8038 0.83543 0.1994 0.0
C318 C 0.89842 0.01938 0.22942 0.0
C319 C 0.89321 0.8677 0.09276 0.0
C320 C 0.02733 0.98443 0.13539 0.0
O321 O 0.96166 0.83022 0.18449 0.0
O322 O 0.36938 0.72636 0.98351 0.0
Zn323 Zn 0.30629 0.71618 0.95862 0.0
O324 O 0.32241 0.6574 0.93338 0.0
Zn325 Zn 0.30224 0.5911 0.95047 0.0
Zn326 Zn 0.39563 0.65715 0.92489 0.0
Zn327 Zn 0.28556 0.67202 0.89756 0.0
O328 O 0.24855 0.55683 0.92017 0.0
O329 O 0.22028 0.63059 0.89805 0.0
O330 O 0.24914 0.69709 0.98689 0.0
O331 O 0.25634 0.61004 0.98627 0.0
O332 O 0.37098 0.54999 0.96652 0.0
O333 O 0.43334 0.6013 0.94827 0.0
O334 O 0.41013 0.64428 0.88012 0.0
O335 O 0.29035 0.78289 0.93438 0.0
O336 O 0.32722 0.64428 0.86437 0.0
O337 O 0.27465 0.74875 0.88925 0.0
C338 C 0.41462 0.72987 0.97178 0.0
C339 C 0.21438 0.58229 0.90429 0.0
C340 C 0.42002 0.56186 0.96401 0.0
C341 C 0.23625 0.65216 -0.00328 0.0
C342 C 0.37569 0.63625 0.85971 0.0
C343 C 0.2792 0.78845 0.9063 0.0
O344 O 0.4231 0.72128 0.94362 0.0
O345 O 0.54203 0.12284 0.71585 0.0
Zn346 Zn 0.56179 0.06464 0.68909 0.0
O347 O 0.62409 0.08685 0.6675 0.0
Zn348 Zn 0.68694 0.06803 0.69018 0.0
Zn349 Zn 0.62167 0.1613 0.66123 0.0
Zn350 Zn 0.61762 0.0523 0.62971 0.0
O351 O 0.72604 1.00841 0.66586 0.0
O352 O 0.66904 0.99451 0.62819 0.0
O353 O 0.57867 1.00684 0.7179 0.0
O354 O 0.66044 0.03214 0.72797 0.0
O355 O 0.72758 0.13668 0.70508 0.0
O356 O 0.68007 0.19841 0.68257 0.0
O357 O 0.62649 0.18134 0.61659 0.0
O358 O 0.49994 0.04685 0.66155 0.0
O359 O 0.63439 0.10165 0.59726 0.0
O360 O 0.54468 0.02749 0.62004 0.0
C361 C 0.5415 0.17083 0.70889 0.0
C362 C 0.71055 0.98218 0.64265 0.0
C363 C 0.71792 0.18538 0.69981 0.0
C364 C 0.6191 1.00664 0.73482 0.0
C365 C 0.63426 0.15094 0.59416 0.0
C366 C 0.50131 0.03059 0.63425 0.0
O367 O 0.55983 0.18829 0.68386 0.0
C368 C 0.4767 0.2948 0.00366 0.0
C369 C 0.46926 0.24179 0.00993 0.0
C370 C 0.52702 0.31259 -0.00314 0.0
C371 C 0.56958 0.27745 -0.00231 0.0
H372 H 0.44583 0.32293 0.00818 0.0
H373 H 0.53396 0.3543 -0.00269 0.0
S374 S 0.56413 0.1341 -0.00193 0.0
N375 N 0.50333 0.15331 0.00516 0.0
N376 N 0.59845 0.18786 0.99283 0.0
C377 C 0.55982 0.22421 -0.00416 0.0
C378 C 0.50901 0.20585 0.00277 0.0
C379 C 0.57398 0.75202 0.26146 0.0
C380 C 0.5369 0.71187 0.25904 0.0
C381 C 0.558 0.80391 0.25957 0.0
C382 C 0.50474 0.81535 0.25582 0.0
H383 H 0.61338 0.7436 0.26923 0.0
H384 H 0.58505 0.83394 0.26679 0.0
S385 S 0.39863 0.72435 0.23534 0.0
N386 N 0.44976 0.68644 0.2428 0.0
N387 N 0.4194 0.78499 0.23917 0.0
C388 C 0.47071 0.77609 0.24594 0.0
C389 C 0.48686 0.72324 0.24798 0.0
C390 C 0.03564 0.76042 0.49916 0.0
C391 C 0.04007 0.80403 0.51811 0.0
C392 C 0.98605 0.74417 0.48982 0.0
C393 C 0.94123 0.77014 0.50075 0.0
H394 H 0.06923 0.73547 0.49472 0.0
H395 H 0.98252 0.70569 0.47988 0.0
S396 S 0.93495 0.8986 0.53763 0.0
N397 N 0.99787 0.8827 0.53758 0.0
N398 N 0.90475 0.85106 0.51961 0.0
C399 C 0.94652 0.82057 0.512 0.0
C400 C 0.99641 0.83704 0.52204 0.0
C401 C 0.07333 0.25153 0.75532 0.0
C402 C 0.03841 0.20928 0.7564 0.0
C403 C 0.05384 0.30238 0.75418 0.0
C404 C 0.99954 0.31048 0.75384 0.0
H405 H 0.11443 0.24571 0.76069 0.0
H406 H 0.08032 0.33437 0.75877 0.0
S407 S 0.89629 0.21198 0.74169 0.0
N408 N 0.95083 0.17773 0.7462 0.0
N409 N 0.91348 0.27403 0.7436 0.0
C410 C 0.96617 0.26866 0.74727 0.0
C411 C 0.98608 0.2171 0.74854 0.0
C412 C 0.55148 0.72197 0.98294 0.0
C413 C 0.56067 0.77545 0.97977 0.0
C414 C 0.50072 0.70488 0.98901 0.0
C415 C 0.4594 0.74134 0.9906 0.0
H416 H 0.58106 0.69366 0.97629 0.0
H417 H 0.49236 0.66372 0.98645 0.0
S418 S 0.46987 0.88395 -0.00221 0.0
N419 N 0.52996 0.8638 0.98962 0.0
N420 N 0.43356 0.83086 1e-05 0.0
C421 C 0.47085 0.79381 -0.00503 0.0
C422 C 0.52236 0.81136 0.98915 0.0
C423 C 0.47102 0.22106 0.73213 0.0
C424 C 0.52448 0.20885 0.73106 0.0
C425 C 0.45553 0.27297 0.73543 0.0
C426 C 0.49357 0.31246 0.73665 0.0
H427 H 0.44199 0.19253 0.72545 0.0
H428 H 0.41482 0.28289 0.7314 0.0
S429 S 0.63568 0.29581 0.7484 0.0
N430 N 0.61347 0.23618 0.74251 0.0
N431 N 0.58386 0.33476 0.74733 0.0
C432 C 0.54543 0.29903 0.74294 0.0
C433 C 0.5612 0.24621 0.74024 0.0
C434 C 0.03747 0.27683 0.49938 0.0
C435 C 0.08266 0.24893 0.4908 0.0
C436 C 0.98838 0.26017 0.48946 0.0
C437 C 0.98469 0.21462 0.47207 0.0
H438 H 0.04088 0.31628 0.50796 0.0
H439 H 0.95488 0.28603 0.49209 0.0
S440 S 0.0898 0.11719 0.45804 0.0
N441 N 0.11934 0.16602 0.47525 0.0
N442 N 0.02713 0.13376 0.45615 0.0
C443 C 0.02812 0.1808 0.47027 0.0
C444 C 0.07747 0.19764 0.48091 0.0
C445 C 0.06654 0.74719 0.23583 0.0
C446 C 0.02878 0.70757 0.23824 0.0
C447 C 0.0506 0.79891 0.23223 0.0
C448 C 0.99703 0.81076 0.23199 0.0
H449 H 0.10709 0.7374 0.2311 0.0
H450 H 0.07909 0.82744 0.22465 0.0
S451 S 0.88741 0.72399 0.25308 0.0
N452 N 0.9393 0.68516 0.25135 0.0
N453 N 0.90891 0.78349 0.24568 0.0
C454 C 0.96102 0.77353 0.24237 0.0
C455 C 0.97723 0.72088 0.24549 0.0
C456 C 0.46366 0.01886 0.9801 0.0
C457 C 0.46751 0.02867 0.01149 0.0
C458 C 0.50711 1.00024 0.963 0.0
C459 C 0.55709 0.99074 0.97619 0.0
H460 H 0.42701 0.02653 0.96843 0.0
H461 H 0.50125 0.99282 0.93906 0.0
S462 S 0.58845 1.00827 0.05774 0.0
N463 N 0.52615 0.02586 0.05514 0.0
N464 N 0.60666 0.99153 0.02311 0.0
C465 C 0.56143 1.00013 0.00754 0.0
C466 C 0.51716 0.01869 0.02504 0.0
C467 C 0.75846 0.69879 0.22627 0.0
C468 C 0.73548 0.70759 0.25496 0.0
C469 C 0.77807 0.74034 0.20815 0.0
C470 C 0.77559 0.79328 0.21748 0.0
H471 H 0.76128 0.65939 0.21757 0.0
H472 H 0.79618 0.73059 0.18664 0.0
S473 S 0.71938 0.83873 0.2906 0.0
N474 N 0.71186 0.77477 0.29173 0.0
N475 N 0.74775 0.85152 0.25771 0.0
C476 C 0.75207 0.80277 0.24588 0.0
C477 C 0.73252 0.76052 0.26451 0.0
C478 C 0.05704 0.99 0.48122 0.0
C479 C 0.05764 0.9932 0.51319 0.0
C480 C 0.01245 1.00511 0.46394 0.0
C481 C 0.96568 0.02394 0.47759 0.0
H482 H 0.09105 0.97478 0.46936 0.0
H483 H 0.01493 1.00251 0.43944 0.0
S484 S 0.94689 0.04226 0.56049 0.0
N485 N 1.00697 0.0182 0.55768 0.0
N486 N 0.92422 0.04635 0.52544 0.0
C487 C 0.96582 0.02747 0.50952 0.0
C488 C 1.01129 0.01233 0.52713 0.0
C489 C 0.77989 0.26648 0.76385 0.0
C490 C 0.78397 0.31759 0.75145 0.0
C491 C 0.76141 0.22354 0.74677 0.0
C492 C 0.74563 0.22916 0.71629 0.0
H493 H 0.79153 0.25918 0.78713 0.0
H494 H 0.7582 0.18587 0.75787 0.0
S495 S 0.74776 0.3538 0.67242 0.0
N496 N 0.7703 0.37028 0.70617 0.0
N497 N 0.73525 0.29066 0.67443 0.0
C498 C 0.74931 0.27997 0.70356 0.0
C499 C 0.76834 0.32367 0.72094 0.0
C500 C 0.30186 0.25448 0.72663 0.0
C501 C 0.28819 0.3079 0.73043 0.0
C502 C 0.28083 0.21424 0.74521 0.0
C503 C 0.24488 0.22501 0.76875 0.0
H504 H 0.3295 0.24332 0.70909 0.0
H505 H 0.29247 0.17427 0.74076 0.0
S506 S 0.196 0.35823 0.78883 0.0
N507 N 0.23604 0.36865 0.76002 0.0
N508 N 0.19714 0.2946 0.7948 0.0
C509 C 0.23105 0.27843 0.77287 0.0
C510 C 0.25231 0.3192 0.75384 0.0
C511 C 0.28258 0.73923 0.27851 0.0
C512 C 0.27616 0.79251 0.27024 0.0
C513 C 0.26089 0.69792 0.2613 0.0
C514 C 0.23174 0.70737 0.23462 0.0
H515 H 0.30513 0.72905 0.29853 0.0
H516 H 0.26683 0.65822 0.26917 0.0
S517 S 0.20465 0.83961 0.20197 0.0
N518 N 0.23888 0.85175 0.23292 0.0
N519 N 0.19891 0.7755 0.20054 0.0
C520 C 0.22527 0.76063 0.22599 0.0
C521 C 0.24702 0.8026 0.24372 0.0
C522 C 0.06672 0.52246 0.50002 0.0
C523 C 0.0577 0.48022 0.48038 0.0
C524 C 0.02543 0.54617 0.51669 0.0
C525 C 0.97251 0.52907 0.51488 0.0
H526 H 0.10611 0.53744 0.50266 0.0
H527 H 0.03543 0.57877 0.53111 0.0
S528 S 0.92666 0.4192 0.46727 0.0
N529 N 0.99033 0.42186 0.46058 0.0
N530 N 0.9142 0.46638 0.49168 0.0
C531 C 0.9629 0.48669 0.49551 0.0
C532 C 1.00484 0.46248 0.47844 0.0
C533 C 0.55877 0.52504 0.9933 0.0
C534 C 0.55018 0.48503 0.01473 0.0
C535 C 0.51684 0.54833 0.97689 0.0
C536 C 0.46366 0.53309 0.98084 0.0
H537 H 0.59833 0.53833 0.98887 0.0
H538 H 0.52657 0.57897 0.96086 0.0
S539 S 0.41876 0.42979 0.03391 0.0
N540 N 0.48291 0.43118 0.03881 0.0
N541 N 0.4056 0.4747 0.00803 0.0
C542 C 0.45448 0.49306 0.00209 0.0
C543 C 0.49707 0.46933 0.01892 0.0
C544 C 0.22232 0.31926 0.14033 0.0
C545 C 0.26377 0.32239 0.11919 0.0
C546 C 0.20339 0.36371 0.15535 0.0
C547 C 0.22587 0.41306 0.15058 0.0
H548 H 0.20266 0.28248 0.14441 0.0
H549 H 0.16943 0.35977 0.17001 0.0
S550 S 0.33819 0.44248 0.10011 0.0
N551 N 0.32893 0.37908 0.09585 0.0
N552 N 0.29349 0.46243 0.12472 0.0
C553 C 0.26896 0.41664 0.13083 0.0
C554 C 0.28782 0.3714 0.11498 0.0
C555 C 0.39803 0.49032 0.33781 0.0
C556 C 0.44117 0.5065 0.35522 0.0
C557 C 0.35113 0.47421 0.35172 0.0
C558 C 0.34481 0.47512 0.38352 0.0
H559 H 0.40137 0.48759 0.31334 0.0
H560 H 0.32013 0.45898 0.3375 0.0
S561 S 0.44356 0.52021 0.43907 0.0
N562 N 0.47309 0.5264 0.40586 0.0
N563 N 0.38436 0.49738 0.43181 0.0
C564 C 0.38633 0.49441 0.40106 0.0
C565 C 0.43464 0.50969 0.38696 0.0
C566 C 0.25627 0.64671 0.59702 0.0
C567 C 0.2568 0.69432 0.61297 0.0
C568 C 0.27415 0.60003 0.6106 0.0
C569 C 0.29171 0.59884 0.64087 0.0
H570 H 0.24434 0.64586 0.57343 0.0
H571 H 0.27622 0.56499 0.59694 0.0
S572 S 0.29773 0.71112 0.69339 0.0
N573 N 0.27424 0.73616 0.66153 0.0
N574 N 0.30689 0.6483 0.68675 0.0
C575 C 0.29017 0.64532 0.65752 0.0
C576 C 0.27287 0.69304 0.64367 0.0
C577 C 0.07657 0.5705 0.873 0.0
C578 C 0.07626 0.52133 0.85898 0.0
C579 C 0.1207 0.5883 0.88871 0.0
C580 C 0.16637 0.55742 0.89176 0.0
H581 H 0.04283 0.59625 0.87113 0.0
H582 H 0.1193 0.6273 0.89814 0.0
S583 S 0.18359 0.42291 0.86256 0.0
N584 N 0.12421 0.44014 0.85104 0.0
N585 N 0.20694 0.47334 0.88145 0.0
C586 C 0.16581 0.50702 0.87924 0.0
C587 C 0.12095 0.48916 0.86254 0.0
C588 C 0.78057 0.64861 0.82179 0.0
C589 C 0.78183 0.60068 0.83739 0.0
C590 C 0.7643 0.69474 0.83644 0.0
C591 C 0.74895 0.69467 0.86729 0.0
H592 H 0.79564 0.65113 0.79882 0.0
H593 H 0.76591 0.73104 0.82377 0.0
S594 S 0.74164 0.57731 0.91715 0.0
N595 N 0.76372 0.55484 0.88445 0.0
N596 N 0.73247 0.6406 0.91198 0.0
C597 C 0.74723 0.64605 0.88247 0.0
C598 C 0.76393 0.59938 0.86753 0.0
C599 C 0.59582 0.51726 0.60814 0.0
C600 C 0.58992 0.51322 0.63998 0.0
C601 C 0.64419 0.53051 0.59475 0.0
C602 C 0.68845 0.54084 0.61269 0.0
H603 H 0.56247 0.51123 0.59335 0.0
H604 H 0.64608 0.53579 0.57035 0.0
S605 S 0.69605 0.5317 0.69664 0.0
N606 N 0.63452 0.51693 0.68877 0.0
N607 N 0.72457 0.54324 0.66361 0.0
C608 C 0.68386 0.53486 0.64434 0.0
C609 C 0.63493 0.52062 0.65798 0.0
C610 C 0.75464 0.32325 0.34327 0.0
C611 C 0.77375 0.32358 0.37338 0.0
C612 C 0.73769 0.36934 0.32874 0.0
C613 C 0.73937 0.41763 0.34363 0.0
H614 H 0.75106 0.28682 0.33107 0.0
H615 H 0.72032 0.36668 0.30635 0.0
S616 S 0.78811 0.44138 0.42158 0.0
N617 N 0.79576 0.37784 0.41679 0.0
N618 N 0.76297 0.46387 0.3895 0.0
C619 C 0.76027 0.41912 0.37311 0.0
C620 C 0.77788 0.37233 0.38793 0.0
C621 C 0.84318 0.4781 0.14018 0.0
C622 C 0.83874 0.47761 0.10828 0.0
C623 C 0.88948 0.49429 0.15459 0.0
C624 C 0.93378 0.50913 0.13762 0.0
H625 H 0.81121 0.46378 0.15411 0.0
H626 H 0.89143 0.49248 0.17914 0.0
S627 S 0.9411 0.51822 0.05344 0.0
N628 N 0.8812 0.49664 0.06023 0.0
N629 N 0.96874 0.52603 0.08703 0.0
C630 C 0.92903 0.51096 0.10568 0.0
C631 C 0.88139 0.49551 0.09108 0.0
C632 C 0.75336 0.87489 0.58911 0.0
C633 C 0.76483 0.83259 0.60857 0.0
C634 C 0.73985 0.92423 0.60055 0.0
C635 C 0.73792 0.9341 0.632 0.0
H636 H 0.75306 0.86959 0.56472 0.0
H637 H 0.72882 0.9546 0.58454 0.0
S638 S 0.76905 0.8387 0.69296 0.0
N639 N 0.77688 0.80531 0.66124 0.0
N640 N 0.75154 0.89832 0.68248 0.0
C641 C 0.75198 0.89323 0.65179 0.0
C642 C 0.76527 0.84249 0.64016 0.0
C643 C 0.88811 0.99248 0.90466 0.0
C644 C 0.84517 0.983 0.88552 0.0
C645 C 0.93668 1.00897 0.89273 0.0
C646 C 0.94407 0.01696 0.86121 0.0
H647 H 0.88509 0.98426 0.92875 0.0
H648 H 0.96903 0.01422 0.90833 0.0
S649 S 0.84132 1.00201 0.80203 0.0
N650 N 0.81165 0.98576 0.83402 0.0
N651 N 0.9019 0.01754 0.81157 0.0
C652 C 0.90022 0.01016 0.84214 0.0
C653 C 0.85115 0.99293 0.85429 0.0
C654 C 0.77754 0.12337 0.14319 0.0
C655 C 0.78667 0.08044 0.12412 0.0
C656 C 0.76411 0.17267 0.13112 0.0
C657 C 0.75883 0.1809 0.0995 0.0
H658 H 0.78389 0.11964 0.16743 0.0
H659 H 0.75906 0.20488 0.14673 0.0
S660 S 0.77384 0.07894 0.04027 0.0
N661 N 0.78653 0.04807 0.07246 0.0
N662 N 0.76004 0.13983 0.04972 0.0
C663 C 0.76508 0.13725 0.08041 0.0
C664 C 0.77939 0.08736 0.09272 0.0
C665 C 0.63121 0.02637 0.40822 0.0
C666 C 0.67653 0.03194 0.39036 0.0
C667 C 0.58334 0.01064 0.39523 0.0
C668 C 0.57892 1.00003 0.36384 0.0
H669 H 0.63197 0.03719 0.43197 0.0
H670 H 0.54916 1.00845 0.40981 0.0
S671 S 0.68848 1.0047 0.30804 0.0
N672 N 0.71536 0.02286 0.34038 0.0
N673 N 0.62634 0.99259 0.31593 0.0
C674 C 0.62504 1.00296 0.34617 0.0
C675 C 0.67349 0.01917 0.35943 0.0
C676 C 0.26866 0.17415 0.35657 0.0
C677 C 0.26331 0.1804 0.38831 0.0
C678 C 0.28071 0.1253 0.34365 0.0
C679 C 0.28813 0.08086 0.36197 0.0
H680 H 0.26484 0.20753 0.34153 0.0
H681 H 0.28742 0.12303 0.31939 0.0
S682 S 0.27413 0.07401 0.44571 0.0
N683 N 0.26248 0.1359 0.43733 0.0
N684 N 0.28619 0.045 0.41301 0.0
C685 C 0.28059 0.08587 0.39345 0.0
C686 C 0.26787 0.13529 0.40662 0.0
C687 C 0.11923 0.01709 0.14126 0.0
C688 C 0.07942 0.99825 0.12221 0.0
C689 C 0.16683 0.03523 0.12934 0.0
C690 C 0.17729 0.03451 0.09789 0.0
H691 H 0.11277 0.02012 0.16551 0.0
H692 H 0.19509 0.05189 0.14487 0.0
S693 S 0.08968 0.98131 0.03867 0.0
N694 N 0.05596 0.97462 0.0705 0.0
N695 N 0.14605 1.00829 0.04825 0.0
C696 C 0.13953 0.01235 0.07875 0.0
C697 C 0.09044 0.99449 0.09086 0.0
C698 C 0.23577 0.93039 0.89939 0.0
C699 C 0.23995 0.94074 0.86801 0.0
C700 C 0.25102 0.88206 0.91182 0.0
C701 C 0.26986 0.84152 0.89325 0.0
H702 H 0.21848 0.95927 0.91433 0.0
H703 H 0.24537 0.87557 0.93592 0.0
S704 S 0.29285 0.85023 0.81002 0.0
N705 N 0.2682 0.90792 0.81902 0.0
N706 N 0.2961 0.81668 0.84209 0.0
C707 C 0.27672 0.85228 0.86202 0.0
C708 C 0.26207 0.90197 0.84949 0.0
C709 C 0.40332 0.03716 0.62622 0.0
C710 C 0.4522 0.01459 0.61858 0.0
C711 C 0.35647 0.02071 0.61223 0.0
C712 C 0.35695 0.98091 0.59033 0.0
H713 H 0.40113 0.06709 0.64348 0.0
H714 H 0.31947 0.03714 0.61982 0.0
S715 S 0.47374 0.90829 0.56281 0.0
N716 N 0.49759 0.95062 0.58728 0.0
N717 N 0.40978 0.91883 0.56215 0.0
C718 C 0.40546 0.95877 0.58222 0.0
C719 C 0.45302 0.97588 0.59599 0.0
C720 C 0.21755 0.21015 0.95216 0.0
C721 C 0.20599 0.17845 0.97738 0.0
C722 C 0.18751 0.20679 0.92559 0.0
C723 C 0.14523 0.17186 0.92393 0.0
H724 H 0.2525 0.23409 0.95204 0.0
H725 H 0.20076 0.22738 0.90548 0.0
S726 S 0.09139 0.09192 0.98686 0.0
N727 N 0.14439 0.11916 0.00126 0.0
N728 N 0.08691 0.11379 0.95163 0.0
C729 C 0.12943 0.14558 0.95045 0.0
C730 C 0.16037 0.14836 0.97715 0.0
C731 C 0.64912 0.37672 0.19083 0.0
C732 C 0.61533 0.3844 0.16589 0.0
C733 C 0.64467 0.40727 0.21682 0.0
C734 C 0.60539 0.44552 0.21913 0.0
H735 H 0.6821 0.34995 0.18929 0.0
H736 H 0.67375 0.40266 0.23459 0.0
S737 S 0.50027 0.47354 0.16314 0.0
N738 N 0.53658 0.42776 0.14701 0.0
N739 N 0.52708 0.48423 0.19667 0.0
C740 C 0.56743 0.44934 0.19607 0.0
C741 C 0.5725 0.4187 0.16923 0.0
C742 C 0.30313 0.80919 0.45087 0.0
C743 C 0.31282 0.84321 0.4752 0.0
C744 C 0.33434 0.81105 0.42457 0.0
C745 C 0.3762 0.84644 0.42242 0.0
H746 H 0.26877 0.78444 0.45109 0.0
H747 H 0.32236 0.7888 0.40492 0.0
S748 S 0.42458 0.93395 0.48294 0.0
N749 N 0.37167 0.90655 0.49751 0.0
N750 N 0.43168 0.90832 0.44885 0.0
C751 C 0.39014 0.87519 0.44826 0.0
C752 C 0.35781 0.87432 0.47447 0.0
C753 C 0.96295 0.59535 0.66684 0.0
C754 C 0.92695 0.63705 0.6652 0.0
C755 C 0.96721 0.56532 0.69346 0.0
C756 C 0.93529 0.57632 0.71871 0.0
H757 H 0.98335 0.58228 0.64663 0.0
H758 H 0.9917 0.5306 0.69328 0.0
S759 S 0.84532 0.68895 0.72806 0.0
N760 N 0.86735 0.69411 0.69289 0.0
N761 N 0.87435 0.63667 0.74252 0.0
C762 C 0.90428 0.62154 0.71851 0.0
C763 C 0.90066 0.65248 0.6918 0.0
C764 C 0.88943 0.882 0.03749 0.0
C765 C 0.87806 0.84924 0.06243 0.0
C766 C 0.85955 0.88021 0.01104 0.0
C767 C 0.81867 0.84431 0.00823 0.0
H768 H 0.91835 0.9127 0.03951 0.0
H769 H 0.86663 0.90888 0.99334 0.0
S770 S 0.78034 0.7427 0.06403 0.0
N771 N 0.82809 0.77495 0.08088 0.0
N772 N 0.77325 0.76987 0.03017 0.0
C773 C 0.81119 0.80691 0.03127 0.0
C774 C 0.84094 0.80952 0.05864 0.0
C775 C 0.4263 0.62292 0.81149 0.0
C776 C 0.38863 0.60619 0.8326 0.0
C777 C 0.43216 0.59678 0.78368 0.0
C778 C 0.40014 0.55387 0.77653 0.0
H779 H 0.44973 0.65719 0.816 0.0
H780 H 0.4606 0.61109 0.76739 0.0
S781 S 0.30191 0.4908 0.82672 0.0
N782 N 0.32348 0.54111 0.84626 0.0
N783 N 0.33416 0.49247 0.79426 0.0
C784 C 0.36444 0.5355 0.79831 0.0
C785 C 0.35882 0.56159 0.82635 0.0
C786 C 0.63847 0.14051 0.53879 0.0
C787 C 0.65064 0.17087 0.56435 0.0
C788 C 0.66911 0.143 0.51262 0.0
C789 C 0.71213 0.17676 0.51092 0.0
H790 H 0.60821 0.11097 0.54009 0.0
H791 H 0.6611 0.11599 0.49433 0.0
S792 S 0.75376 0.2719 0.56916 0.0
N793 N 0.70367 0.24107 0.5848 0.0
N794 N 0.76067 0.24697 0.53483 0.0
C795 C 0.72071 0.21205 0.53473 0.0
C796 C 0.68979 0.20899 0.5617 0.0
C797 C 0.14855 0.37614 0.3021 0.0
C798 C 0.11594 0.384 0.32755 0.0
C799 C 0.14254 0.40617 0.27588 0.0
C800 C 0.1028 0.44397 0.27388 0.0
H801 H 0.1818 0.34963 0.30333 0.0
H802 H 0.17076 0.40156 0.25764 0.0
S803 S 1.00055 0.47243 0.33151 0.0
N804 N 0.03799 0.42718 0.34747 0.0
N805 N 0.02545 0.48263 0.29735 0.0
C806 C 0.06603 0.44798 0.29759 0.0
C807 C 0.07273 0.41792 0.32466 0.0
C808 C 0.66306 0.58548 0.43826 0.0
C809 C 0.65934 0.62624 0.41669 0.0
C810 C 0.68746 0.59279 0.4662 0.0
C811 C 0.70843 0.64134 0.47403 0.0
H812 H 0.64901 0.54663 0.43318 0.0
H813 H 0.69129 0.55961 0.48142 0.0
S814 S 0.70354 0.76266 0.42757 0.0
N815 N 0.67472 0.7183 0.4063 0.0
N816 N 0.72016 0.73235 0.45934 0.0
C817 C 0.70185 0.68357 0.45374 0.0
C818 C 0.67738 0.67596 0.42495 0.0
C819 C 0.10088 0.93769 0.68291 0.0
C820 C 0.14767 0.91147 0.67538 0.0
C821 C 0.09506 0.9619 0.71112 0.0
C822 C 0.13601 0.96098 0.73252 0.0
H823 H 0.0697 0.94212 0.66638 0.0
H824 H 0.0596 0.98424 0.7154 0.0
S825 S 0.26168 0.88854 0.72655 0.0
N826 N 0.23214 0.87872 0.69375 0.0
N827 N 0.22132 0.92578 0.74636 0.0
C828 C 0.1811 0.93144 0.72633 0.0
C829 C 0.18685 0.90616 0.69785 0.0
C830 C 0.8676 0.42895 0.93565 0.0
C831 C 0.86843 0.38922 0.91352 0.0
C832 C 0.84219 0.42205 0.96341 0.0
C833 C 0.81748 0.37483 0.97048 0.0
H834 H 0.88438 0.46694 0.93102 0.0
H835 H 0.8404 0.45462 0.97902 0.0
S836 S 0.81488 0.25568 0.92269 0.0
N837 N 0.84703 0.29897 0.90204 0.0
N838 N 0.79994 0.28551 0.95474 0.0
C839 C 0.82171 0.33314 0.9498 0.0
C840 C 0.84714 0.34042 0.9212 0.0
C841 C 0.42628 0.08536 0.21786 0.0
C842 C 0.39525 0.04104 0.22384 0.0
C843 C 0.42461 0.11024 0.18938 0.0
C844 C 0.39247 0.0907 0.16629 0.0
H845 H 0.45061 0.10176 0.23554 0.0
H846 H 0.44659 0.14585 0.18585 0.0
S847 S 0.31008 0.97184 0.16895 0.0
N848 N 0.33584 0.976 0.20321 0.0
N849 N 0.33327 0.02232 0.14991 0.0
C850 C 0.36383 0.04487 0.17148 0.0
C851 C 0.36499 0.02011 0.20027 0.0
C852 C 0.35419 0.33664 0.56841 0.0
C853 C 0.38443 0.38154 0.57328 0.0
C854 C 0.3269 0.3301 0.54111 0.0
C855 C 0.32868 0.36857 0.51823 0.0
H856 H 0.34839 0.30843 0.58649 0.0
H857 H 0.30137 0.29664 0.53881 0.0
S858 S 0.41128 0.4869 0.5172 0.0
N859 N 0.42232 0.4599 0.55068 0.0
N860 N 0.369 0.44837 0.50005 0.0
C861 C 0.36245 0.41095 0.52168 0.0
C862 C 0.39107 0.4171 0.54905 0.0
C863 C 0.84506 0.10247 0.29234 0.0
C864 C 0.88682 0.10345 0.31334 0.0
C865 C 0.8501 0.07735 0.26453 0.0
C866 C 0.89733 0.05303 0.25632 0.0
H867 H 0.80701 0.11895 0.29789 0.0
H868 H 0.81613 0.07545 0.24979 0.0
S869 S 0.02098 0.05073 0.30086 0.0
N870 N 0.97878 0.08254 0.32253 0.0
N871 N 0.98854 0.03573 0.26968 0.0
C872 C 0.94082 0.05719 0.27585 0.0
C873 C 0.9355 0.08237 0.30451 0.0
C874 C 0.17673 0.67717 0.07362 0.0
C875 C 0.14551 0.63267 0.0778 0.0
C876 C 0.20358 0.68521 0.04627 0.0
C877 C 0.20014 0.64877 0.02255 0.0
H878 H 0.18344 0.70391 0.09219 0.0
H879 H 0.22991 0.71817 0.04449 0.0
S880 S 0.11394 0.53295 0.01971 0.0
N881 N 0.10511 0.55707 0.05405 0.0
N882 N 0.15672 0.57179 0.00295 0.0
C883 C 0.16529 0.60695 0.02543 0.0
C884 C 0.13753 0.59907 0.05302 0.0
C885 C 0.59358 0.90577 0.7963 0.0
C886 C 0.61801 0.9288 0.8214 0.0
C887 C 0.59217 0.93196 0.7682 0.0
C888 C 0.61641 0.98092 0.76461 0.0
H889 H 0.57815 0.86652 0.79798 0.0
H890 H 0.57447 0.9128 0.7489 0.0
S891 S 0.68025 0.05906 0.82473 0.0
N892 N 0.66243 1.00451 0.84187 0.0
N893 N 0.66078 0.05321 0.78918 0.0
C894 C 0.63844 1.0051 0.79007 0.0
C895 C 0.63897 0.97907 0.8185 0.0
loop_
_geom_bond_atom_site_label_1
_geom_bond_atom_site_label_2
_geom_bond_distance
_geom_bond_site_symmetry_2
_ccdc_geom_bond_type
O0 Zn1 1.953 . S
O0 C16 1.225 . S
Zn1 O0 1.953 . S
Zn1 O2 1.949 . S
Zn1 O8 1.919 . S
Zn1 O13 1.924 . S
O2 Zn1 1.949 . S
O2 Zn3 1.923 . S
O2 Zn4 1.950 . S
O2 Zn5 1.945 . S
Zn3 O2 1.923 . S
Zn3 O6 1.933 . S
Zn3 O9 1.941 . S
Zn3 O10 1.965 . S
Zn4 O2 1.950 . S
Zn4 O11 1.938 . S
Zn4 O12 1.906 . S
Zn4 O22 1.953 . S
Zn5 O2 1.945 . S
Zn5 O7 1.932 . S
Zn5 O14 1.977 . S
Zn5 O15 1.910 . S
O6 Zn3 1.933 . S
O6 C17 1.226 . S
O7 Zn5 1.932 . S
O7 C17 1.307 . S
O8 Zn1 1.919 . S
O8 C19 1.253 . S
O9 Zn3 1.941 . S
O9 C19 1.283 . S
O10 Zn3 1.965 . S
O10 C18 1.303 . S
O11 Zn4 1.938 . S
O11 C18 1.247 . S
O12 Zn4 1.906 . S
O12 C20 1.304 . S
O13 Zn1 1.924 . S
O13 C21 1.311 . S
O14 Zn5 1.977 . S
O14 C20 1.272 . S
O15 Zn5 1.910 . S
O15 C21 1.231 . S
C16 O0 1.225 . S
C16 O22 1.298 . S
C17 O6 1.226 . S
C17 O7 1.307 . S
C18 O10 1.303 . S
C18 O11 1.247 . S
C19 O8 1.253 . S
C19 O9 1.283 . S
C20 O12 1.304 . S
C20 O14 1.272 . S
C21 O13 1.311 . S
C21 O15 1.231 . S
O22 Zn4 1.953 . S
O22 C16 1.298 . S
O23 Zn24 1.953 . S
O23 C39 1.225 . S
Zn24 O23 1.953 . S
Zn24 O25 1.949 . S
Zn24 O31 1.919 . S
Zn24 O36 1.924 . S
O25 Zn24 1.949 . S
O25 Zn26 1.923 . S
O25 Zn27 1.950 . S
O25 Zn28 1.945 . S
Zn26 O25 1.923 . S
Zn26 O29 1.933 . S
Zn26 O32 1.941 . S
Zn26 O33 1.965 . S
Zn27 O25 1.950 . S
Zn27 O34 1.938 . S
Zn27 O35 1.906 . S
Zn27 O45 1.953 . S
Zn28 O25 1.945 . S
Zn28 O30 1.932 . S
Zn28 O37 1.977 . S
Zn28 O38 1.910 . S
O29 Zn26 1.933 . S
O29 C40 1.226 . S
O30 Zn28 1.932 . S
O30 C40 1.307 . S
O31 Zn24 1.919 . S
O31 C42 1.253 . S
O32 Zn26 1.941 . S
O32 C42 1.283 . S
O33 Zn26 1.965 . S
O33 C41 1.303 . S
O34 Zn27 1.938 . S
O34 C41 1.247 . S
O35 Zn27 1.906 . S
O35 C43 1.304 . S
O36 Zn24 1.924 . S
O36 C44 1.311 . S
O37 Zn28 1.977 . S
O37 C43 1.272 . S
O38 Zn28 1.910 . S
O38 C44 1.231 . S
C39 O23 1.225 . S
C39 O45 1.298 . S
C40 O29 1.226 . S
C40 O30 1.307 . S
C41 O33 1.303 . S
C41 O34 1.247 . S
C42 O31 1.253 . S
C42 O32 1.283 . S
C43 O35 1.304 . S
C43 O37 1.272 . S
C44 O36 1.311 . S
C44 O38 1.231 . S
O45 Zn27 1.953 . S
O45 C39 1.298 . S
O46 Zn47 1.953 . S
O46 C62 1.225 . S
Zn47 O46 1.953 . S
Zn47 O48 1.949 . S
Zn47 O54 1.919 . S
Zn47 O59 1.924 . S
O48 Zn47 1.949 . S
O48 Zn49 1.923 . S
O48 Zn50 1.950 . S
O48 Zn51 1.945 . S
Zn49 O48 1.923 . S
Zn49 O52 1.933 . S
Zn49 O55 1.941 . S
Zn49 O56 1.965 . S
Zn50 O48 1.950 . S
Zn50 O57 1.938 . S
Zn50 O58 1.906 . S
Zn50 O68 1.953 . S
Zn51 O48 1.945 . S
Zn51 O53 1.932 . S
Zn51 O60 1.977 . S
Zn51 O61 1.910 . S
O52 Zn49 1.933 . S
O52 C63 1.226 . S
O53 Zn51 1.932 . S
O53 C63 1.307 . S
O54 Zn47 1.919 . S
O54 C65 1.253 . S
O55 Zn49 1.941 . S
O55 C65 1.283 . S
O56 Zn49 1.965 . S
O56 C64 1.303 . S
O57 Zn50 1.938 . S
O57 C64 1.247 . S
O58 Zn50 1.906 . S
O58 C66 1.304 . S
O59 Zn47 1.924 . S
O59 C67 1.311 . S
O60 Zn51 1.977 . S
O60 C66 1.272 . S
O61 Zn51 1.910 . S
O61 C67 1.231 . S
C62 O46 1.225 . S
C62 O68 1.298 . S
C63 O52 1.226 . S
C63 O53 1.307 . S
C64 O56 1.303 . S
C64 O57 1.247 . S
C65 O54 1.253 . S
C65 O55 1.283 . S
C66 O58 1.304 . S
C66 O60 1.272 . S
C67 O59 1.311 . S
C67 O61 1.231 . S
O68 Zn50 1.953 . S
O68 C62 1.298 . S
O69 Zn70 1.953 . S
O69 C85 1.225 . S
Zn70 O69 1.953 . S
Zn70 O71 1.949 . S
Zn70 O77 1.919 . S
Zn70 O82 1.924 . S
O71 Zn70 1.949 . S
O71 Zn72 1.923 . S
O71 Zn73 1.950 . S
O71 Zn74 1.945 . S
Zn72 O71 1.923 . S
Zn72 O75 1.933 . S
Zn72 O78 1.941 . S
Zn72 O79 1.965 . S
Zn73 O71 1.950 . S
Zn73 O80 1.938 . S
Zn73 O81 1.906 . S
Zn73 O91 1.953 . S
Zn74 O71 1.945 . S
Zn74 O76 1.932 . S
Zn74 O83 1.977 . S
Zn74 O84 1.910 . S
O75 Zn72 1.933 . S
O75 C86 1.226 . S
O76 Zn74 1.932 . S
O76 C86 1.307 . S
O77 Zn70 1.919 . S
O77 C88 1.253 . S
O78 Zn72 1.941 . S
O78 C88 1.283 . S
O79 Zn72 1.965 . S
O79 C87 1.303 . S
O80 Zn73 1.938 . S
O80 C87 1.247 . S
O81 Zn73 1.906 . S
O81 C89 1.304 . S
O82 Zn70 1.924 . S
O82 C90 1.311 . S
O83 Zn74 1.977 . S
O83 C89 1.272 . S
O84 Zn74 1.910 . S
O84 C90 1.231 . S
C85 O69 1.225 . S
C85 O91 1.298 . S
C86 O75 1.226 . S
C86 O76 1.307 . S
C87 O79 1.303 . S
C87 O80 1.247 . S
C88 O77 1.253 . S
C88 O78 1.283 . S
C89 O81 1.304 . S
C89 O83 1.272 . S
C90 O82 1.311 . S
C90 O84 1.231 . S
O91 Zn73 1.953 . S
O91 C85 1.298 . S
O92 Zn93 1.953 . S
O92 C108 1.225 . S
Zn93 O92 1.953 . S
Zn93 O94 1.949 . S
Zn93 O100 1.919 . S
Zn93 O105 1.924 . S
O94 Zn93 1.949 . S
O94 Zn95 1.923 . S
O94 Zn96 1.950 . S
O94 Zn97 1.945 . S
Zn95 O94 1.923 . S
Zn95 O98 1.933 . S
Zn95 O101 1.941 . S
Zn95 O102 1.965 . S
Zn96 O94 1.950 . S
Zn96 O103 1.938 . S
Zn96 O104 1.906 . S
Zn96 O114 1.953 . S
Zn97 O94 1.945 . S
Zn97 O99 1.932 . S
Zn97 O106 1.977 . S
Zn97 O107 1.910 . S
O98 Zn95 1.933 . S
O98 C109 1.226 . S
O99 Zn97 1.932 . S
O99 C109 1.307 . S
O100 Zn93 1.919 . S
O100 C111 1.253 . S
O101 Zn95 1.941 . S
O101 C111 1.283 . S
O102 Zn95 1.965 . S
O102 C110 1.303 . S
O103 Zn96 1.938 . S
O103 C110 1.247 . S
O104 Zn96 1.906 . S
O104 C112 1.304 . S
O105 Zn93 1.924 . S
O105 C113 1.311 . S
O106 Zn97 1.977 . S
O106 C112 1.272 . S
O107 Zn97 1.910 . S
O107 C113 1.231 . S
C108 O92 1.225 . S
C108 O114 1.298 . S
C109 O98 1.226 . S
C109 O99 1.307 . S
C110 O102 1.303 . S
C110 O103 1.247 . S
C111 O100 1.253 . S
C111 O101 1.283 . S
C112 O104 1.304 . S
C112 O106 1.272 . S
C113 O105 1.311 . S
C113 O107 1.231 . S
O114 Zn96 1.953 . S
O114 C108 1.298 . S
O115 Zn116 1.953 . S
O115 C131 1.225 . S
Zn116 O115 1.953 . S
Zn116 O117 1.949 . S
Zn116 O123 1.919 . S
Zn116 O128 1.924 . S
O117 Zn116 1.949 . S
O117 Zn118 1.923 . S
O117 Zn119 1.950 . S
O117 Zn120 1.945 . S
Zn118 O117 1.923 . S
Zn118 O121 1.933 . S
Zn118 O124 1.941 . S
Zn118 O125 1.965 . S
Zn119 O117 1.950 . S
Zn119 O126 1.938 . S
Zn119 O127 1.906 . S
Zn119 O137 1.953 . S
Zn120 O117 1.945 . S
Zn120 O122 1.932 . S
Zn120 O129 1.977 . S
Zn120 O130 1.910 . S
O121 Zn118 1.933 . S
O121 C132 1.226 . S
O122 Zn120 1.932 . S
O122 C132 1.307 . S
O123 Zn116 1.919 . S
O123 C134 1.253 . S
O124 Zn118 1.941 . S
O124 C134 1.283 . S
O125 Zn118 1.965 . S
O125 C133 1.303 . S
O126 Zn119 1.938 . S
O126 C133 1.247 . S
O127 Zn119 1.906 . S
O127 C135 1.304 . S
O128 Zn116 1.924 . S
O128 C136 1.311 . S
O129 Zn120 1.977 . S
O129 C135 1.272 . S
O130 Zn120 1.910 . S
O130 C136 1.231 . S
C131 O115 1.225 . S
C131 O137 1.298 . S
C132 O121 1.226 . S
C132 O122 1.307 . S
C133 O125 1.303 . S
C133 O126 1.247 . S
C134 O123 1.253 . S
C134 O124 1.283 . S
C135 O127 1.304 . S
C135 O129 1.272 . S
C136 O128 1.311 . S
C136 O130 1.231 . S
O137 Zn119 1.953 . S
O137 C131 1.298 . S
O138 Zn139 1.953 . S
O138 C154 1.225 . S
Zn139 O138 1.953 . S
Zn139 O140 1.949 . S
Zn139 O146 1.919 . S
Zn139 O151 1.924 . S
O140 Zn139 1.949 . S
O140 Zn141 1.923 . S
O140 Zn142 1.950 . S
O140 Zn143 1.945 . S
Zn141 O140 1.923 . S
Zn141 O144 1.933 . S
Zn141 O147 1.941 . S
Zn141 O148 1.965 . S
Zn142 O140 1.950 . S
Zn142 O149 1.938 . S
Zn142 O150 1.906 . S
Zn142 O160 1.953 . S
Zn143 O140 1.945 . S
Zn143 O145 1.932 . S
Zn143 O152 1.977 . S
Zn143 O153 1.910 . S
O144 Zn141 1.933 . S
O144 C155 1.226 . S
O145 Zn143 1.932 . S
O145 C155 1.307 . S
O146 Zn139 1.919 . S
O146 C157 1.253 . S
O147 Zn141 1.941 . S
O147 C157 1.283 . S
O148 Zn141 1.965 . S
O148 C156 1.303 . S
O149 Zn142 1.938 . S
O149 C156 1.247 . S
O150 Zn142 1.906 . S
O150 C158 1.304 . S
O151 Zn139 1.924 . S
O151 C159 1.311 . S
O152 Zn143 1.977 . S
O152 C158 1.272 . S
O153 Zn143 1.910 . S
O153 C159 1.231 . S
C154 O138 1.225 . S
C154 O160 1.298 . S
C155 O144 1.226 . S
C155 O145 1.307 . S
C156 O148 1.303 . S
C156 O149 1.247 . S
C157 O146 1.253 . S
C157 O147 1.283 . S
C158 O150 1.304 . S
C158 O152 1.272 . S
C159 O151 1.311 . S
C159 O153 1.231 . S
O160 Zn142 1.953 . S
O160 C154 1.298 . S
O161 Zn162 1.953 . S
O161 C177 1.225 . S
Zn162 O161 1.953 . S
Zn162 O163 1.949 . S
Zn162 O169 1.919 . S
Zn162 O174 1.924 . S
O163 Zn162 1.949 . S
O163 Zn164 1.923 . S
O163 Zn165 1.950 . S
O163 Zn166 1.945 . S
Zn164 O163 1.923 . S
Zn164 O167 1.933 . S
Zn164 O170 1.941 . S
Zn164 O171 1.965 . S
Zn165 O163 1.950 . S
Zn165 O172 1.938 . S
Zn165 O173 1.906 . S
Zn165 O183 1.953 . S
Zn166 O163 1.945 . S
Zn166 O168 1.932 . S
Zn166 O175 1.977 . S
Zn166 O176 1.910 . S
O167 Zn164 1.933 . S
O167 C178 1.226 . S
O168 Zn166 1.932 . S
O168 C178 1.307 . S
O169 Zn162 1.919 . S
O169 C180 1.253 . S
O170 Zn164 1.941 . S
O170 C180 1.283 . S
O171 Zn164 1.965 . S
O171 C179 1.303 . S
O172 Zn165 1.938 . S
O172 C179 1.247 . S
O173 Zn165 1.906 . S
O173 C181 1.304 . S
O174 Zn162 1.924 . S
O174 C182 1.311 . S
O175 Zn166 1.977 . S
O175 C181 1.272 . S
O176 Zn166 1.910 . S
O176 C182 1.231 . S
C177 O161 1.225 . S
C177 O183 1.298 . S
C178 O167 1.226 . S
C178 O168 1.307 . S
C179 O171 1.303 . S
C179 O172 1.247 . S
C180 O169 1.253 . S
C180 O170 1.283 . S
C181 O173 1.304 . S
C181 O175 1.272 . S
C182 O174 1.311 . S
C182 O176 1.231 . S
O183 Zn165 1.953 . S
O183 C177 1.298 . S
O184 Zn185 1.953 . S
O184 C200 1.225 . S
Zn185 O184 1.953 . S
Zn185 O186 1.949 . S
Zn185 O192 1.919 . S
Zn185 O197 1.924 . S
O186 Zn185 1.949 . S
O186 Zn187 1.923 . S
O186 Zn188 1.950 . S
O186 Zn189 1.945 . S
Zn187 O186 1.923 . S
Zn187 O190 1.933 . S
Zn187 O193 1.941 . S
Zn187 O194 1.965 . S
Zn188 O186 1.950 . S
Zn188 O195 1.938 . S
Zn188 O196 1.906 . S
Zn188 O206 1.953 . S
Zn189 O186 1.945 . S
Zn189 O191 1.932 . S
Zn189 O198 1.977 . S
Zn189 O199 1.910 . S
O190 Zn187 1.933 . S
O190 C201 1.226 . S
O191 Zn189 1.932 . S
O191 C201 1.307 . S
O192 Zn185 1.919 . S
O192 C203 1.253 . S
O193 Zn187 1.941 . S
O193 C203 1.283 . S
O194 Zn187 1.965 . S
O194 C202 1.303 . S
O195 Zn188 1.938 . S
O195 C202 1.247 . S
O196 Zn188 1.906 . S
O196 C204 1.304 . S
O197 Zn185 1.924 . S
O197 C205 1.311 . S
O198 Zn189 1.977 . S
O198 C204 1.272 . S
O199 Zn189 1.910 . S
O199 C205 1.231 . S
C200 O184 1.225 . S
C200 O206 1.298 . S
C201 O190 1.226 . S
C201 O191 1.307 . S
C202 O194 1.303 . S
C202 O195 1.247 . S
C203 O192 1.253 . S
C203 O193 1.283 . S
C204 O196 1.304 . S
C204 O198 1.272 . S
C205 O197 1.311 . S
C205 O199 1.231 . S
O206 Zn188 1.953 . S
O206 C200 1.298 . S
O207 Zn208 1.953 . S
O207 C223 1.225 . S
Zn208 O207 1.953 . S
Zn208 O209 1.949 . S
Zn208 O215 1.919 . S
Zn208 O220 1.924 . S
O209 Zn208 1.949 . S
O209 Zn210 1.923 . S
O209 Zn211 1.950 . S
O209 Zn212 1.945 . S
Zn210 O209 1.923 . S
Zn210 O213 1.933 1_545 S
Zn210 O216 1.941 . S
Zn210 O217 1.965 . S
Zn211 O209 1.950 . S
Zn211 O218 1.938 . S
Zn211 O219 1.906 . S
Zn211 O229 1.953 . S
Zn212 O209 1.945 . S
Zn212 O214 1.932 1_545 S
Zn212 O221 1.977 . S
Zn212 O222 1.910 . S
O213 Zn210 1.933 1_565 S
O213 C224 1.226 . S
O214 Zn212 1.932 1_565 S
O214 C224 1.307 . S
O215 Zn208 1.919 . S
O215 C226 1.253 . S
O216 Zn210 1.941 . S
O216 C226 1.283 . S
O217 Zn210 1.965 . S
O217 C225 1.303 . S
O218 Zn211 1.938 . S
O218 C225 1.247 . S
O219 Zn211 1.906 . S
O219 C227 1.304 . S
O220 Zn208 1.924 . S
O220 C228 1.311 . S
O221 Zn212 1.977 . S
O221 C227 1.272 . S
O222 Zn212 1.910 . S
O222 C228 1.231 . S
C223 O207 1.225 . S
C223 O229 1.298 . S
C224 O213 1.226 . S
C224 O214 1.307 . S
C225 O217 1.303 . S
C225 O218 1.247 . S
C226 O215 1.253 . S
C226 O216 1.283 . S
C227 O219 1.304 . S
C227 O221 1.272 . S
C228 O220 1.311 . S
C228 O222 1.231 . S
O229 Zn211 1.953 . S
O229 C223 1.298 . S
O230 Zn231 1.953 . S
O230 C246 1.225 . S
Zn231 O230 1.953 . S
Zn231 O232 1.949 . S
Zn231 O238 1.919 . S
Zn231 O243 1.924 . S
O232 Zn231 1.949 . S
O232 Zn233 1.923 . S
O232 Zn234 1.950 . S
O232 Zn235 1.945 . S
Zn233 O232 1.923 . S
Zn233 O236 1.933 . S
Zn233 O239 1.941 . S
Zn233 O240 1.965 . S
Zn234 O232 1.950 . S
Zn234 O241 1.938 . S
Zn234 O242 1.906 . S
Zn234 O252 1.953 . S
Zn235 O232 1.945 . S
Zn235 O237 1.932 . S
Zn235 O244 1.977 . S
Zn235 O245 1.910 . S
O236 Zn233 1.933 . S
O236 C247 1.226 . S
O237 Zn235 1.932 . S
O237 C247 1.307 . S
O238 Zn231 1.919 . S
O238 C249 1.253 . S
O239 Zn233 1.941 . S
O239 C249 1.283 . S
O240 Zn233 1.965 . S
O240 C248 1.303 . S
O241 Zn234 1.938 . S
O241 C248 1.247 . S
O242 Zn234 1.906 . S
O242 C250 1.304 . S
O243 Zn231 1.924 . S
O243 C251 1.311 . S
O244 Zn235 1.977 . S
O244 C250 1.272 . S
O245 Zn235 1.910 . S
O245 C251 1.231 . S
C246 O230 1.225 . S
C246 O252 1.298 . S
C247 O236 1.226 . S
C247 O237 1.307 . S
C248 O240 1.303 . S
C248 O241 1.247 . S
C249 O238 1.253 . S
C249 O239 1.283 . S
C250 O242 1.304 . S
C250 O244 1.272 . S
C251 O243 1.311 . S
C251 O245 1.231 . S
O252 Zn234 1.953 . S
O252 C246 1.298 . S
O253 Zn254 1.953 . S
O253 C269 1.225 . S
Zn254 O253 1.953 . S
Zn254 O255 1.949 . S
Zn254 O261 1.919 . S
Zn254 O266 1.924 . S
O255 Zn254 1.949 . S
O255 Zn256 1.923 . S
O255 Zn257 1.950 . S
O255 Zn258 1.945 . S
Zn256 O255 1.923 . S
Zn256 O259 1.933 1_565 S
Zn256 O262 1.941 . S
Zn256 O263 1.965 . S
Zn257 O255 1.950 . S
Zn257 O264 1.938 . S
Zn257 O265 1.906 . S
Zn257 O275 1.953 . S
Zn258 O255 1.945 . S
Zn258 O260 1.932 1_565 S
Zn258 O267 1.977 . S
Zn258 O268 1.910 . S
O259 Zn256 1.933 1_545 S
O259 C270 1.226 . S
O260 Zn258 1.932 1_545 S
O260 C270 1.307 . S
O261 Zn254 1.919 . S
O261 C272 1.253 . S
O262 Zn256 1.941 . S
O262 C272 1.283 . S
O263 Zn256 1.965 . S
O263 C271 1.303 . S
O264 Zn257 1.938 . S
O264 C271 1.247 . S
O265 Zn257 1.906 . S
O265 C273 1.304 . S
O266 Zn254 1.924 . S
O266 C274 1.311 . S
O267 Zn258 1.977 . S
O267 C273 1.272 . S
O268 Zn258 1.910 . S
O268 C274 1.231 . S
C269 O253 1.225 . S
C269 O275 1.298 . S
C270 O259 1.226 . S
C270 O260 1.307 . S
C271 O263 1.303 . S
C271 O264 1.247 . S
C272 O261 1.253 . S
C272 O262 1.283 . S
C273 O265 1.304 . S
C273 O267 1.272 . S
C274 O266 1.311 . S
C274 O268 1.231 . S
O275 Zn257 1.953 . S
O275 C269 1.298 . S
O276 Zn277 1.953 . S
O276 C292 1.225 . S
Zn277 O276 1.953 . S
Zn277 O278 1.949 . S
Zn277 O284 1.919 . S
Zn277 O289 1.924 . S
O278 Zn277 1.949 . S
O278 Zn279 1.923 . S
O278 Zn280 1.950 . S
O278 Zn281 1.945 . S
Zn279 O278 1.923 . S
Zn279 O282 1.933 . S
Zn279 O285 1.941 . S
Zn279 O286 1.965 . S
Zn280 O278 1.950 . S
Zn280 O287 1.938 . S
Zn280 O288 1.906 . S
Zn280 O298 1.953 . S
Zn281 O278 1.945 . S
Zn281 O283 1.932 . S
Zn281 O290 1.977 . S
Zn281 O291 1.910 . S
O282 Zn279 1.933 . S
O282 C293 1.226 . S
O283 Zn281 1.932 . S
O283 C293 1.307 . S
O284 Zn277 1.919 . S
O284 C295 1.253 . S
O285 Zn279 1.941 . S
O285 C295 1.283 . S
O286 Zn279 1.965 . S
O286 C294 1.303 . S
O287 Zn280 1.938 . S
O287 C294 1.247 . S
O288 Zn280 1.906 . S
O288 C296 1.304 . S
O289 Zn277 1.924 . S
O289 C297 1.311 . S
O290 Zn281 1.977 . S
O290 C296 1.272 . S
O291 Zn281 1.910 . S
O291 C297 1.231 . S
C292 O276 1.225 . S
C292 O298 1.298 . S
C293 O282 1.226 . S
C293 O283 1.307 . S
C294 O286 1.303 . S
C294 O287 1.247 . S
C295 O284 1.253 . S
C295 O285 1.283 . S
C296 O288 1.304 . S
C296 O290 1.272 . S
C297 O289 1.311 . S
C297 O291 1.231 . S
O298 Zn280 1.953 . S
O298 C292 1.298 . S
O299 Zn300 1.953 . S
O299 C315 1.225 . S
Zn300 O299 1.953 . S
Zn300 O301 1.949 . S
Zn300 O307 1.919 . S
Zn300 O312 1.924 . S
O301 Zn300 1.949 . S
O301 Zn302 1.923 . S
O301 Zn303 1.950 . S
O301 Zn304 1.945 . S
Zn302 O301 1.923 . S
Zn302 O305 1.933 1_565 S
Zn302 O308 1.941 . S
Zn302 O309 1.965 . S
Zn303 O301 1.950 . S
Zn303 O310 1.938 . S
Zn303 O311 1.906 . S
Zn303 O321 1.953 . S
Zn304 O301 1.945 . S
Zn304 O306 1.932 1_565 S
Zn304 O313 1.977 . S
Zn304 O314 1.910 . S
O305 Zn302 1.933 1_545 S
O305 C316 1.226 . S
O306 Zn304 1.932 1_545 S
O306 C316 1.307 . S
O307 Zn300 1.919 . S
O307 C318 1.253 . S
O308 Zn302 1.941 . S
O308 C318 1.283 . S
O309 Zn302 1.965 . S
O309 C317 1.303 . S
O310 Zn303 1.938 . S
O310 C317 1.247 . S
O311 Zn303 1.906 . S
O311 C319 1.304 . S
O312 Zn300 1.924 . S
O312 C320 1.311 . S
O313 Zn304 1.977 . S
O313 C319 1.272 . S
O314 Zn304 1.910 . S
O314 C320 1.231 . S
C315 O299 1.225 . S
C315 O321 1.298 . S
C316 O305 1.226 . S
C316 O306 1.307 . S
C317 O309 1.303 . S
C317 O310 1.247 . S
C318 O307 1.253 . S
C318 O308 1.283 . S
C319 O311 1.304 . S
C319 O313 1.272 . S
C320 O312 1.311 . S
C320 O314 1.231 . S
O321 Zn303 1.953 . S
O321 C315 1.298 . S
O322 Zn323 1.953 . S
O322 C338 1.225 . S
Zn323 O322 1.953 . S
Zn323 O324 1.949 . S
Zn323 O330 1.919 . S
Zn323 O335 1.924 . S
O324 Zn323 1.949 . S
O324 Zn325 1.923 . S
O324 Zn326 1.950 . S
O324 Zn327 1.945 . S
Zn325 O324 1.923 . S
Zn325 O328 1.933 . S
Zn325 O331 1.941 . S
Zn325 O332 1.965 . S
Zn326 O324 1.950 . S
Zn326 O333 1.938 . S
Zn326 O334 1.906 . S
Zn326 O344 1.953 . S
Zn327 O324 1.945 . S
Zn327 O329 1.932 . S
Zn327 O336 1.977 . S
Zn327 O337 1.910 . S
O328 Zn325 1.933 . S
O328 C339 1.226 . S
O329 Zn327 1.932 . S
O329 C339 1.307 . S
O330 Zn323 1.919 . S
O330 C341 1.253 . S
O331 Zn325 1.941 . S
O331 C341 1.283 . S
O332 Zn325 1.965 . S
O332 C340 1.303 . S
O333 Zn326 1.938 . S
O333 C340 1.247 . S
O334 Zn326 1.906 . S
O334 C342 1.304 . S
O335 Zn323 1.924 . S
O335 C343 1.311 . S
O336 Zn327 1.977 . S
O336 C342 1.272 . S
O337 Zn327 1.910 . S
O337 C343 1.231 . S
C338 O322 1.225 . S
C338 O344 1.298 . S
C339 O328 1.226 . S
C339 O329 1.307 . S
C340 O332 1.303 . S
C340 O333 1.247 . S
C341 O330 1.253 . S
C341 O331 1.283 . S
C342 O334 1.304 . S
C342 O336 1.272 . S
C343 O335 1.311 . S
C343 O337 1.231 . S
O344 Zn326 1.953 . S
O344 C338 1.298 . S
O345 Zn346 1.953 . S
O345 C361 1.225 . S
Zn346 O345 1.953 . S
Zn346 O347 1.949 . S
Zn346 O353 1.919 . S
Zn346 O358 1.924 . S
O347 Zn346 1.949 . S
O347 Zn348 1.923 . S
O347 Zn349 1.950 . S
O347 Zn350 1.945 . S
Zn348 O347 1.923 . S
Zn348 O351 1.933 1_545 S
Zn348 O354 1.941 . S
Zn348 O355 1.965 . S
Zn349 O347 1.950 . S
Zn349 O356 1.938 . S
Zn349 O357 1.906 . S
Zn349 O367 1.953 . S
Zn350 O347 1.945 . S
Zn350 O352 1.932 1_545 S
Zn350 O359 1.977 . S
Zn350 O360 1.910 . S
O351 Zn348 1.933 1_565 S
O351 C362 1.226 . S
O352 Zn350 1.932 1_565 S
O352 C362 1.307 . S
O353 Zn346 1.919 . S
O353 C364 1.253 . S
O354 Zn348 1.941 . S
O354 C364 1.283 . S
O355 Zn348 1.965 . S
O355 C363 1.303 . S
O356 Zn349 1.938 . S
O356 C363 1.247 . S
O357 Zn349 1.906 . S
O357 C365 1.304 . S
O358 Zn346 1.924 . S
O358 C366 1.311 . S
O359 Zn350 1.977 . S
O359 C365 1.272 . S
O360 Zn350 1.910 . S
O360 C366 1.231 . S
C361 O345 1.225 . S
C361 O367 1.298 . S
C362 O351 1.226 . S
C362 O352 1.307 . S
C363 O355 1.303 . S
C363 O356 1.247 . S
C364 O353 1.253 . S
C364 O354 1.283 . S
C365 O357 1.304 . S
C365 O359 1.272 . S
C366 O358 1.311 . S
C366 O360 1.231 . S
O367 Zn349 1.953 . S
O367 C361 1.298 . S
C368 C369 1.369 . S
C368 C370 1.419 . S
C368 H372 0.930 . S
C369 C368 1.369 . S
C369 C378 1.429 . S
C370 C368 1.419 . S
C370 C371 1.363 . S
C370 H373 0.929 . S
C371 C370 1.363 . S
C371 C377 1.428 . S
H372 C368 0.930 . S
H373 C370 0.929 . S
S374 N375 1.613 . S
S374 N376 1.610 . S
N375 S374 1.613 . S
N375 C378 1.350 . S
N376 S374 1.610 . S
N376 C377 1.351 . S
C377 C371 1.428 . S
C377 N376 1.351 . S
C377 C378 1.434 . S
C378 C369 1.429 . S
C378 N375 1.350 . S
C378 C377 1.434 . S
C379 C380 1.369 . S
C379 C381 1.419 . S
C379 H383 0.930 . S
C380 C379 1.369 . S
C380 C389 1.429 . S
C381 C379 1.419 . S
C381 C382 1.363 . S
C381 H384 0.929 . S
C382 C381 1.363 . S
C382 C388 1.428 . S
H383 C379 0.930 . S
H384 C381 0.929 . S
S385 N386 1.613 . S
S385 N387 1.610 . S
N386 S385 1.613 . S
N386 C389 1.350 . S
N387 S385 1.610 . S
N387 C388 1.351 . S
C388 C382 1.428 . S
C388 N387 1.351 . S
C388 C389 1.434 . S
C389 C380 1.429 . S
C389 N386 1.350 . S
C389 C388 1.434 . S
C390 C391 1.369 . S
C390 C392 1.419 1_455 S
C390 H394 0.930 . S
C391 C390 1.369 . S
C391 C400 1.438 . S
C392 C390 1.419 1_655 S
C392 C393 1.363 . S
C392 H395 0.929 . S
C393 C392 1.363 . S
C393 C399 1.428 . S
H394 C390 0.930 . S
H395 C392 0.929 . S
S396 N397 1.613 . S
S396 N398 1.610 . S
N397 S396 1.613 . S
N397 C400 1.349 1_655 S
N398 S396 1.610 . S
N398 C399 1.351 . S
C399 C393 1.428 . S
C399 N398 1.351 . S
C399 C400 1.424 1_655 S
C400 C391 1.438 . S
C400 N397 1.349 1_455 S
C400 C399 1.424 1_455 S
C401 C402 1.369 . S
C401 C403 1.419 . S
C401 H405 0.930 . S
C402 C401 1.369 . S
C402 C411 1.429 1_455 S
C403 C401 1.419 . S
C403 C404 1.363 1_455 S
C403 H406 0.929 . S
C404 C403 1.363 1_655 S
C404 C410 1.428 . S
H405 C401 0.930 . S
H406 C403 0.929 . S
S407 N408 1.613 . S
S407 N409 1.610 . S
N408 S407 1.613 . S
N408 C411 1.350 . S
N409 S407 1.610 . S
N409 C410 1.351 . S
C410 C404 1.428 . S
C410 N409 1.351 . S
C410 C411 1.434 . S
C411 C402 1.429 1_655 S
C411 N408 1.350 . S
C411 C410 1.434 . S
C412 C413 1.369 . S
C412 C414 1.419 . S
C412 H416 0.930 . S
C413 C412 1.369 . S
C413 C422 1.429 . S
C414 C412 1.419 . S
C414 C415 1.363 . S
C414 H417 0.929 . S
C415 C414 1.363 . S
C415 C421 1.428 . S
H416 C412 0.930 . S
H417 C414 0.929 . S
S418 N419 1.613 . S
S418 N420 1.610 . S
N419 S418 1.613 . S
N419 C422 1.350 . S
N420 S418 1.610 . S
N420 C421 1.351 . S
C421 C415 1.428 . S
C421 N420 1.351 . S
C421 C422 1.434 . S
C422 C413 1.429 . S
C422 N419 1.350 . S
C422 C421 1.434 . S
C423 C424 1.369 . S
C423 C425 1.419 . S
C423 H427 0.930 . S
C424 C423 1.369 . S
C424 C433 1.429 . S
C425 C423 1.419 . S
C425 C426 1.363 . S
C425 H428 0.929 . S
C426 C425 1.363 . S
C426 C432 1.428 . S
H427 C423 0.930 . S
H428 C425 0.929 . S
S429 N430 1.613 . S
S429 N431 1.610 . S
N430 S429 1.613 . S
N430 C433 1.350 . S
N431 S429 1.610 . S
N431 C432 1.351 . S
C432 C426 1.428 . S
C432 N431 1.351 . S
C432 C433 1.434 . S
C433 C424 1.429 . S
C433 N430 1.350 . S
C433 C432 1.434 . S
C434 C435 1.369 . S
C434 C436 1.419 1_455 S
C434 H438 0.930 . S
C435 C434 1.369 . S
C435 C444 1.429 . S
C436 C434 1.419 1_655 S
C436 C437 1.363 . S
C436 H439 0.929 . S
C437 C436 1.363 . S
C437 C443 1.428 . S
H438 C434 0.930 . S
H439 C436 0.929 . S
S440 N441 1.613 . S
S440 N442 1.610 1_455 S
N441 S440 1.613 . S
N441 C444 1.350 . S
N442 S440 1.610 1_655 S
N442 C443 1.351 . S
C443 C437 1.428 . S
C443 N442 1.351 . S
C443 C444 1.434 1_655 S
C444 C435 1.429 . S
C444 N441 1.350 . S
C444 C443 1.434 1_455 S
C445 C446 1.369 . S
C445 C447 1.419 . S
C445 H449 0.930 . S
C446 C445 1.369 . S
C446 C455 1.429 1_455 S
C447 C445 1.419 . S
C447 C448 1.363 1_455 S
C447 H450 0.929 . S
C448 C447 1.363 1_655 S
C448 C454 1.428 . S
H449 C445 0.930 . S
H450 C447 0.929 . S
S451 N452 1.613 . S
S451 N453 1.610 . S
N452 S451 1.613 . S
N452 C455 1.350 . S
N453 S451 1.610 . S
N453 C454 1.351 . S
C454 C448 1.428 . S
C454 N453 1.351 . S
C454 C455 1.434 . S
C455 C446 1.429 1_655 S
C455 N452 1.350 . S
C455 C454 1.434 . S
C456 C457 1.369 . S
C456 C458 1.419 1_554 S
C456 H460 0.930 . S
C457 C456 1.369 . S
C457 C466 1.429 1_545 S
C458 C456 1.419 1_556 S
C458 C459 1.363 1_545 S
C458 H461 0.929 . S
C459 C458 1.363 1_565 S
C459 C465 1.438 . S
H460 C456 0.930 . S
H461 C458 0.929 . S
S462 N463 1.613 . S
S462 N464 1.610 . S
N463 S462 1.613 . S
N463 C466 1.350 . S
N464 S462 1.610 . S
N464 C465 1.350 1_554 S
C465 C459 1.438 . S
C465 N464 1.350 1_556 S
C465 C466 1.424 1_556 S
C466 C457 1.429 1_565 S
C466 N463 1.350 . S
C466 C465 1.424 1_554 S
C467 C468 1.369 . S
C467 C469 1.419 . S
C467 H471 0.930 . S
C468 C467 1.369 . S
C468 C477 1.429 . S
C469 C467 1.419 . S
C469 C470 1.363 . S
C469 H472 0.929 . S
C470 C469 1.363 . S
C470 C476 1.428 . S
H471 C467 0.930 . S
H472 C469 0.929 . S
S473 N474 1.613 . S
S473 N475 1.610 . S
N474 S473 1.613 . S
N474 C477 1.350 . S
N475 S473 1.610 . S
N475 C476 1.351 . S
C476 C470 1.428 . S
C476 N475 1.351 . S
C476 C477 1.434 . S
C477 C468 1.429 . S
C477 N474 1.350 . S
C477 C476 1.434 . S
C478 C479 1.369 1_545 S
C478 C480 1.419 . S
C478 H482 0.930 . S
C479 C478 1.369 1_565 S
C479 C488 1.429 1_455 S
C480 C478 1.419 . S
C480 C481 1.363 1_455 S
C480 H483 0.929 . S
C481 C480 1.363 1_655 S
C481 C487 1.428 1_545 S
H482 C478 0.930 . S
H483 C480 0.929 . S
S484 N485 1.613 . S
S484 N486 1.610 . S
N485 S484 1.613 . S
N485 C488 1.350 . S
N486 S484 1.610 . S
N486 C487 1.351 . S
C487 C481 1.428 1_565 S
C487 N486 1.351 . S
C487 C488 1.434 . S
C488 C479 1.429 1_655 S
C488 N485 1.350 . S
C488 C487 1.434 . S
C489 C490 1.369 . S
C489 C491 1.419 . S
C489 H493 0.930 . S
C490 C489 1.369 . S
C490 C499 1.429 . S
C491 C489 1.419 . S
C491 C492 1.363 . S
C491 H494 0.929 . S
C492 C491 1.363 . S
C492 C498 1.428 . S
H493 C489 0.930 . S
H494 C491 0.929 . S
S495 N496 1.613 . S
S495 N497 1.610 . S
N496 S495 1.613 . S
N496 C499 1.350 . S
N497 S495 1.610 . S
N497 C498 1.351 . S
C498 C492 1.428 . S
C498 N497 1.351 . S
C498 C499 1.434 . S
C499 C490 1.429 . S
C499 N496 1.350 . S
C499 C498 1.434 . S
C500 C501 1.369 . S
C500 C502 1.419 . S
C500 H504 0.930 . S
C501 C500 1.369 . S
C501 C510 1.429 . S
C502 C500 1.419 . S
C502 C503 1.363 . S
C502 H505 0.929 . S
C503 C502 1.363 . S
C503 C509 1.428 . S
H504 C500 0.930 . S
H505 C502 0.929 . S
S506 N507 1.613 . S
S506 N508 1.610 . S
N507 S506 1.613 . S
N507 C510 1.350 . S
N508 S506 1.610 . S
N508 C509 1.351 . S
C509 C503 1.428 . S
C509 N508 1.351 . S
C509 C510 1.434 . S
C510 C501 1.429 . S
C510 N507 1.350 . S
C510 C509 1.434 . S
C511 C512 1.369 . S
C511 C513 1.419 . S
C511 H515 0.930 . S
C512 C511 1.369 . S
C512 C521 1.429 . S
C513 C511 1.419 . S
C513 C514 1.363 . S
C513 H516 0.929 . S
C514 C513 1.363 . S
C514 C520 1.428 . S
H515 C511 0.930 . S
H516 C513 0.929 . S
S517 N518 1.613 . S
S517 N519 1.610 . S
N518 S517 1.613 . S
N518 C521 1.350 . S
N519 S517 1.610 . S
N519 C520 1.351 . S
C520 C514 1.428 . S
C520 N519 1.351 . S
C520 C521 1.434 . S
C521 C512 1.429 . S
C521 N518 1.350 . S
C521 C520 1.434 . S
C522 C523 1.369 . S
C522 C524 1.419 1_455 S
C522 H526 0.930 . S
C523 C522 1.369 . S
C523 C532 1.429 . S
C524 C522 1.419 1_655 S
C524 C525 1.363 . S
C524 H527 0.929 . S
C525 C524 1.363 . S
C525 C531 1.428 . S
H526 C522 0.930 . S
H527 C524 0.929 . S
S528 N529 1.613 1_655 S
S528 N530 1.610 . S
N529 S528 1.613 1_455 S
N529 C532 1.350 . S
N530 S528 1.610 . S
N530 C531 1.351 . S
C531 C525 1.428 . S
C531 N530 1.351 . S
C531 C532 1.434 1_655 S
C532 C523 1.429 . S
C532 N529 1.350 . S
C532 C531 1.434 1_455 S
C533 C534 1.369 1_556 S
C533 C535 1.419 . S
C533 H537 0.930 . S
C534 C533 1.369 1_554 S
C534 C543 1.429 . S
C535 C533 1.419 . S
C535 C536 1.363 . S
C535 H538 0.929 . S
C536 C535 1.363 . S
C536 C542 1.428 1_556 S
H537 C533 0.930 . S
H538 C535 0.929 . S
S539 N540 1.613 . S
S539 N541 1.610 . S
N540 S539 1.613 . S
N540 C543 1.350 . S
N541 S539 1.610 . S
N541 C542 1.351 . S
C542 C536 1.428 1_554 S
C542 N541 1.351 . S
C542 C543 1.434 . S
C543 C534 1.429 . S
C543 N540 1.350 . S
C543 C542 1.434 . S
C544 C545 1.369 . S
C544 C546 1.419 . S
C544 H548 0.930 . S
C545 C544 1.369 . S
C545 C554 1.429 . S
C546 C544 1.419 . S
C546 C547 1.363 . S
C546 H549 0.929 . S
C547 C546 1.363 . S
C547 C553 1.428 . S
H548 C544 0.930 . S
H549 C546 0.929 . S
S550 N551 1.613 . S
S550 N552 1.610 . S
N551 S550 1.613 . S
N551 C554 1.350 . S
N552 S550 1.610 . S
N552 C553 1.351 . S
C553 C547 1.428 . S
C553 N552 1.351 . S
C553 C554 1.434 . S
C554 C545 1.429 . S
C554 N551 1.350 . S
C554 C553 1.434 . S
C555 C556 1.369 . S
C555 C557 1.419 . S
C555 H559 0.930 . S
C556 C555 1.369 . S
C556 C565 1.429 . S
C557 C555 1.419 . S
C557 C558 1.363 . S
C557 H560 0.929 . S
C558 C557 1.363 . S
C558 C564 1.428 . S
H559 C555 0.930 . S
H560 C557 0.929 . S
S561 N562 1.613 . S
S561 N563 1.610 . S
N562 S561 1.613 . S
N562 C565 1.350 . S
N563 S561 1.610 . S
N563 C564 1.351 . S
C564 C558 1.428 . S
C564 N563 1.351 . S
C564 C565 1.434 . S
C565 C556 1.429 . S
C565 N562 1.350 . S
C565 C564 1.434 . S
C566 C567 1.369 . S
C566 C568 1.419 . S
C566 H570 0.930 . S
C567 C566 1.369 . S
C567 C576 1.429 . S
C568 C566 1.419 . S
C568 C569 1.363 . S
C568 H571 0.929 . S
C569 C568 1.363 . S
C569 C575 1.428 . S
H570 C566 0.930 . S
H571 C568 0.929 . S
S572 N573 1.613 . S
S572 N574 1.610 . S
N573 S572 1.613 . S
N573 C576 1.350 . S
N574 S572 1.610 . S
N574 C575 1.351 . S
C575 C569 1.428 . S
C575 N574 1.351 . S
C575 C576 1.434 . S
C576 C567 1.429 . S
C576 N573 1.350 . S
C576 C575 1.434 . S
C577 C578 1.369 . S
C577 C579 1.419 . S
C577 H581 0.930 . S
C578 C577 1.369 . S
C578 C587 1.429 . S
C579 C577 1.419 . S
C579 C580 1.363 . S
C579 H582 0.929 . S
C580 C579 1.363 . S
C580 C586 1.428 . S
H581 C577 0.930 . S
H582 C579 0.929 . S
S583 N584 1.613 . S
S583 N585 1.610 . S
N584 S583 1.613 . S
N584 C587 1.350 . S
N585 S583 1.610 . S
N585 C586 1.351 . S
C586 C580 1.428 . S
C586 N585 1.351 . S
C586 C587 1.434 . S
C587 C578 1.429 . S
C587 N584 1.350 . S
C587 C586 1.434 . S
C588 C589 1.369 . S
C588 C590 1.419 . S
C588 H592 0.930 . S
C589 C588 1.369 . S
C589 C598 1.429 . S
C590 C588 1.419 . S
C590 C591 1.363 . S
C590 H593 0.929 . S
C591 C590 1.363 . S
C591 C597 1.428 . S
H592 C588 0.930 . S
H593 C590 0.929 . S
S594 N595 1.613 . S
S594 N596 1.610 . S
N595 S594 1.613 . S
N595 C598 1.350 . S
N596 S594 1.610 . S
N596 C597 1.351 . S
C597 C591 1.428 . S
C597 N596 1.351 . S
C597 C598 1.434 . S
C598 C589 1.429 . S
C598 N595 1.350 . S
C598 C597 1.434 . S
C599 C600 1.369 . S
C599 C601 1.419 . S
C599 H603 0.930 . S
C600 C599 1.369 . S
C600 C609 1.429 . S
C601 C599 1.419 . S
C601 C602 1.363 . S
C601 H604 0.929 . S
C602 C601 1.363 . S
C602 C608 1.428 . S
H603 C599 0.930 . S
H604 C601 0.929 . S
S605 N606 1.613 . S
S605 N607 1.610 . S
N606 S605 1.613 . S
N606 C609 1.350 . S
N607 S605 1.610 . S
N607 C608 1.351 . S
C608 C602 1.428 . S
C608 N607 1.351 . S
C608 C609 1.434 . S
C609 C600 1.429 . S
C609 N606 1.350 . S
C609 C608 1.434 . S
C610 C611 1.369 . S
C610 C612 1.419 . S
C610 H614 0.930 . S
C611 C610 1.369 . S
C611 C620 1.429 . S
C612 C610 1.419 . S
C612 C613 1.363 . S
C612 H615 0.929 . S
C613 C612 1.363 . S
C613 C619 1.428 . S
H614 C610 0.930 . S
H615 C612 0.929 . S
S616 N617 1.613 . S
S616 N618 1.610 . S
N617 S616 1.613 . S
N617 C620 1.350 . S
N618 S616 1.610 . S
N618 C619 1.351 . S
C619 C613 1.428 . S
C619 N618 1.351 . S
C619 C620 1.434 . S
C620 C611 1.429 . S
C620 N617 1.350 . S
C620 C619 1.434 . S
C621 C622 1.369 . S
C621 C623 1.419 . S
C621 H625 0.930 . S
C622 C621 1.369 . S
C622 C631 1.429 . S
C623 C621 1.419 . S
C623 C624 1.363 . S
C623 H626 0.929 . S
C624 C623 1.363 . S
C624 C630 1.428 . S
H625 C621 0.930 . S
H626 C623 0.929 . S
S627 N628 1.613 . S
S627 N629 1.610 . S
N628 S627 1.613 . S
N628 C631 1.350 . S
N629 S627 1.610 . S
N629 C630 1.351 . S
C630 C624 1.428 . S
C630 N629 1.351 . S
C630 C631 1.434 . S
C631 C622 1.429 . S
C631 N628 1.350 . S
C631 C630 1.434 . S
C632 C633 1.369 . S
C632 C634 1.419 . S
C632 H636 0.930 . S
C633 C632 1.369 . S
C633 C642 1.429 . S
C634 C632 1.419 . S
C634 C635 1.363 . S
C634 H637 0.929 . S
C635 C634 1.363 . S
C635 C641 1.428 . S
H636 C632 0.930 . S
H637 C634 0.929 . S
S638 N639 1.613 . S
S638 N640 1.610 . S
N639 S638 1.613 . S
N639 C642 1.350 . S
N640 S638 1.610 . S
N640 C641 1.351 . S
C641 C635 1.428 . S
C641 N640 1.351 . S
C641 C642 1.434 . S
C642 C633 1.429 . S
C642 N639 1.350 . S
C642 C641 1.434 . S
C643 C644 1.369 . S
C643 C645 1.419 1_565 S
C643 H647 0.930 . S
C644 C643 1.369 . S
C644 C653 1.429 . S
C645 C643 1.419 1_545 S
C645 C646 1.363 . S
C645 H648 0.929 . S
C646 C645 1.363 . S
C646 C652 1.428 1_545 S
H647 C643 0.930 . S
H648 C645 0.929 . S
S649 N650 1.613 . S
S649 N651 1.610 . S
N650 S649 1.613 . S
N650 C653 1.350 . S
N651 S649 1.610 . S
N651 C652 1.351 . S
C652 C646 1.428 1_565 S
C652 N651 1.351 . S
C652 C653 1.434 . S
C653 C644 1.429 . S
C653 N650 1.350 . S
C653 C652 1.434 . S
C654 C655 1.369 . S
C654 C656 1.419 . S
C654 H658 0.930 . S
C655 C654 1.369 . S
C655 C664 1.429 . S
C656 C654 1.419 . S
C656 C657 1.363 . S
C656 H659 0.929 . S
C657 C656 1.363 . S
C657 C663 1.428 . S
H658 C654 0.930 . S
H659 C656 0.929 . S
S660 N661 1.613 . S
S660 N662 1.610 . S
N661 S660 1.613 . S
N661 C664 1.350 . S
N662 S660 1.610 . S
N662 C663 1.351 . S
C663 C657 1.428 . S
C663 N662 1.351 . S
C663 C664 1.434 . S
C664 C655 1.429 . S
C664 N661 1.350 . S
C664 C663 1.434 . S
C665 C666 1.369 . S
C665 C667 1.419 . S
C665 H669 0.930 . S
C666 C665 1.369 . S
C666 C675 1.429 1_545 S
C667 C665 1.419 . S
C667 C668 1.363 1_545 S
C667 H670 0.929 . S
C668 C667 1.363 1_565 S
C668 C674 1.428 . S
H669 C665 0.930 . S
H670 C667 0.929 . S
S671 N672 1.613 . S
S671 N673 1.610 . S
N672 S671 1.613 . S
N672 C675 1.350 . S
N673 S671 1.610 . S
N673 C674 1.351 . S
C674 C668 1.428 . S
C674 N673 1.351 . S
C674 C675 1.434 . S
C675 C666 1.429 1_565 S
C675 N672 1.350 . S
C675 C674 1.434 . S
C676 C677 1.369 . S
C676 C678 1.419 . S
C676 H680 0.930 . S
C677 C676 1.369 . S
C677 C686 1.429 . S
C678 C676 1.419 . S
C678 C679 1.363 . S
C678 H681 0.929 . S
C679 C678 1.363 . S
C679 C685 1.428 . S
H680 C676 0.930 . S
H681 C678 0.929 . S
S682 N683 1.613 . S
S682 N684 1.610 . S
N683 S682 1.613 . S
N683 C686 1.350 . S
N684 S682 1.610 . S
N684 C685 1.351 . S
C685 C679 1.428 . S
C685 N684 1.351 . S
C685 C686 1.434 . S
C686 C677 1.429 . S
C686 N683 1.350 . S
C686 C685 1.434 . S
C687 C688 1.369 1_545 S
C687 C689 1.419 . S
C687 H691 0.930 . S
C688 C687 1.369 1_565 S
C688 C697 1.429 . S
C689 C687 1.419 . S
C689 C690 1.363 . S
C689 H692 0.929 . S
C690 C689 1.363 . S
C690 C696 1.428 1_545 S
H691 C687 0.930 . S
H692 C689 0.929 . S
S693 N694 1.613 . S
S693 N695 1.610 . S
N694 S693 1.613 . S
N694 C697 1.350 . S
N695 S693 1.610 . S
N695 C696 1.351 . S
C696 C690 1.428 1_565 S
C696 N695 1.351 . S
C696 C697 1.434 . S
C697 C688 1.429 . S
C697 N694 1.350 . S
C697 C696 1.434 . S
C698 C699 1.369 . S
C698 C700 1.419 . S
C698 H702 0.930 . S
C699 C698 1.369 . S
C699 C708 1.429 . S
C700 C698 1.419 . S
C700 C701 1.363 . S
C700 H703 0.929 . S
C701 C700 1.363 . S
C701 C707 1.428 . S
H702 C698 0.930 . S
H703 C700 0.929 . S
S704 N705 1.613 . S
S704 N706 1.610 . S
N705 S704 1.613 . S
N705 C708 1.350 . S
N706 S704 1.610 . S
N706 C707 1.351 . S
C707 C701 1.428 . S
C707 N706 1.351 . S
C707 C708 1.434 . S
C708 C699 1.429 . S
C708 N705 1.350 . S
C708 C707 1.434 . S
C709 C710 1.369 . S
C709 C711 1.419 . S
C709 H713 0.930 . S
C710 C709 1.369 . S
C710 C719 1.429 1_545 S
C711 C709 1.419 . S
C711 C712 1.363 1_545 S
C711 H714 0.929 . S
C712 C711 1.363 1_565 S
C712 C718 1.428 . S
H713 C709 0.930 . S
H714 C711 0.929 . S
S715 N716 1.613 . S
S715 N717 1.610 . S
N716 S715 1.613 . S
N716 C719 1.350 . S
N717 S715 1.610 . S
N717 C718 1.351 . S
C718 C712 1.428 . S
C718 N717 1.351 . S
C718 C719 1.434 . S
C719 C710 1.429 1_565 S
C719 N716 1.350 . S
C719 C718 1.434 . S
C720 C721 1.369 . S
C720 C722 1.419 . S
C720 H724 0.930 . S
C721 C720 1.369 . S
C721 C730 1.429 . S
C722 C720 1.419 . S
C722 C723 1.363 . S
C722 H725 0.929 . S
C723 C722 1.363 . S
C723 C729 1.428 . S
H724 C720 0.930 . S
H725 C722 0.929 . S
S726 N727 1.613 . S
S726 N728 1.610 1_554 S
N727 S726 1.613 . S
N727 C730 1.350 1_554 S
N728 S726 1.610 1_556 S
N728 C729 1.351 . S
C729 C723 1.428 . S
C729 N728 1.351 . S
C729 C730 1.434 . S
C730 C721 1.429 . S
C730 N727 1.350 1_556 S
C730 C729 1.434 . S
C731 C732 1.369 . S
C731 C733 1.419 . S
C731 H735 0.930 . S
C732 C731 1.369 . S
C732 C741 1.429 . S
C733 C731 1.419 . S
C733 C734 1.363 . S
C733 H736 0.929 . S
C734 C733 1.363 . S
C734 C740 1.428 . S
H735 C731 0.930 . S
H736 C733 0.929 . S
S737 N738 1.613 . S
S737 N739 1.610 . S
N738 S737 1.613 . S
N738 C741 1.350 . S
N739 S737 1.610 . S
N739 C740 1.351 . S
C740 C734 1.428 . S
C740 N739 1.351 . S
C740 C741 1.434 . S
C741 C732 1.429 . S
C741 N738 1.350 . S
C741 C740 1.434 . S
C742 C743 1.369 . S
C742 C744 1.419 . S
C742 H746 0.930 . S
C743 C742 1.369 . S
C743 C752 1.429 . S
C744 C742 1.419 . S
C744 C745 1.363 . S
C744 H747 0.929 . S
C745 C744 1.363 . S
C745 C751 1.428 . S
H746 C742 0.930 . S
H747 C744 0.929 . S
S748 N749 1.613 1_545 S
S748 N750 1.610 1_545 S
N749 S748 1.613 1_565 S
N749 C752 1.350 . S
N750 S748 1.610 1_565 S
N750 C751 1.351 . S
C751 C745 1.428 . S
C751 N750 1.351 . S
C751 C752 1.434 . S
C752 C743 1.429 . S
C752 N749 1.350 . S
C752 C751 1.434 . S
C753 C754 1.369 . S
C753 C755 1.419 . S
C753 H757 0.930 . S
C754 C753 1.369 . S
C754 C763 1.429 . S
C755 C753 1.419 . S
C755 C756 1.363 . S
C755 H758 0.929 . S
C756 C755 1.363 . S
C756 C762 1.428 . S
H757 C753 0.930 . S
H758 C755 0.929 . S
S759 N760 1.613 . S
S759 N761 1.610 . S
N760 S759 1.613 . S
N760 C763 1.350 . S
N761 S759 1.610 . S
N761 C762 1.351 . S
C762 C756 1.428 . S
C762 N761 1.351 . S
C762 C763 1.434 . S
C763 C754 1.429 . S
C763 N760 1.350 . S
C763 C762 1.434 . S
C764 C765 1.369 . S
C764 C766 1.419 . S
C764 H768 0.930 . S
C765 C764 1.369 . S
C765 C774 1.429 . S
C766 C764 1.419 . S
C766 C767 1.363 . S
C766 H769 0.929 1_554 S
C767 C766 1.363 . S
C767 C773 1.428 . S
H768 C764 0.930 . S
H769 C766 0.929 1_556 S
S770 N771 1.613 . S
S770 N772 1.610 . S
N771 S770 1.613 . S
N771 C774 1.350 . S
N772 S770 1.610 . S
N772 C773 1.351 . S
C773 C767 1.428 . S
C773 N772 1.351 . S
C773 C774 1.434 . S
C774 C765 1.429 . S
C774 N771 1.350 . S
C774 C773 1.434 . S
C775 C776 1.369 . S
C775 C777 1.419 . S
C775 H779 0.930 . S
C776 C775 1.369 . S
C776 C785 1.429 . S
C777 C775 1.419 . S
C777 C778 1.363 . S
C777 H780 0.929 . S
C778 C777 1.363 . S
C778 C784 1.428 . S
H779 C775 0.930 . S
H780 C777 0.929 . S
S781 N782 1.613 . S
S781 N783 1.610 . S
N782 S781 1.613 . S
N782 C785 1.350 . S
N783 S781 1.610 . S
N783 C784 1.351 . S
C784 C778 1.428 . S
C784 N783 1.351 . S
C784 C785 1.434 . S
C785 C776 1.429 . S
C785 N782 1.350 . S
C785 C784 1.434 . S
C786 C787 1.369 . S
C786 C788 1.419 . S
C786 H790 0.930 . S
C787 C786 1.369 . S
C787 C796 1.429 . S
C788 C786 1.419 . S
C788 C789 1.363 . S
C788 H791 0.929 . S
C789 C788 1.363 . S
C789 C795 1.428 . S
H790 C786 0.930 . S
H791 C788 0.929 . S
S792 N793 1.613 . S
S792 N794 1.610 . S
N793 S792 1.613 . S
N793 C796 1.350 . S
N794 S792 1.610 . S
N794 C795 1.351 . S
C795 C789 1.428 . S
C795 N794 1.351 . S
C795 C796 1.434 . S
C796 C787 1.429 . S
C796 N793 1.350 . S
C796 C795 1.434 . S
C797 C798 1.369 . S
C797 C799 1.419 . S
C797 H801 0.930 . S
C798 C797 1.369 . S
C798 C807 1.429 . S
C799 C797 1.419 . S
C799 C800 1.363 . S
C799 H802 0.929 . S
C800 C799 1.363 . S
C800 C806 1.428 . S
H801 C797 0.930 . S
H802 C799 0.929 . S
S803 N804 1.613 . S
S803 N805 1.610 . S
N804 S803 1.613 . S
N804 C807 1.350 . S
N805 S803 1.610 . S
N805 C806 1.351 . S
C806 C800 1.428 . S
C806 N805 1.351 . S
C806 C807 1.434 . S
C807 C798 1.429 . S
C807 N804 1.350 . S
C807 C806 1.434 . S
C808 C809 1.369 . S
C808 C810 1.419 . S
C808 H812 0.930 . S
C809 C808 1.369 . S
C809 C818 1.429 . S
C810 C808 1.419 . S
C810 C811 1.363 . S
C810 H813 0.929 . S
C811 C810 1.363 . S
C811 C817 1.428 . S
H812 C808 0.930 . S
H813 C810 0.929 . S
S814 N815 1.613 . S
S814 N816 1.610 . S
N815 S814 1.613 . S
N815 C818 1.350 . S
N816 S814 1.610 . S
N816 C817 1.351 . S
C817 C811 1.428 . S
C817 N816 1.351 . S
C817 C818 1.434 . S
C818 C809 1.429 . S
C818 N815 1.350 . S
C818 C817 1.434 . S
C819 C820 1.369 . S
C819 C821 1.419 . S
C819 H823 0.930 . S
C820 C819 1.369 . S
C820 C829 1.429 . S
C821 C819 1.419 . S
C821 C822 1.363 . S
C821 H824 0.929 . S
C822 C821 1.363 . S
C822 C828 1.428 . S
H823 C819 0.930 . S
H824 C821 0.929 . S
S825 N826 1.613 . S
S825 N827 1.610 . S
N826 S825 1.613 . S
N826 C829 1.350 . S
N827 S825 1.610 . S
N827 C828 1.351 . S
C828 C822 1.428 . S
C828 N827 1.351 . S
C828 C829 1.434 . S
C829 C820 1.429 . S
C829 N826 1.350 . S
C829 C828 1.434 . S
C830 C831 1.369 . S
C830 C832 1.419 . S
C830 H834 0.930 . S
C831 C830 1.369 . S
C831 C840 1.429 . S
C832 C830 1.419 . S
C832 C833 1.363 . S
C832 H835 0.929 . S
C833 C832 1.363 . S
C833 C839 1.428 . S
H834 C830 0.930 . S
H835 C832 0.929 . S
S836 N837 1.613 . S
S836 N838 1.610 . S
N837 S836 1.613 . S
N837 C840 1.350 . S
N838 S836 1.610 . S
N838 C839 1.351 . S
C839 C833 1.428 . S
C839 N838 1.351 . S
C839 C840 1.434 . S
C840 C831 1.429 . S
C840 N837 1.350 . S
C840 C839 1.434 . S
C841 C842 1.369 . S
C841 C843 1.419 . S
C841 H845 0.930 . S
C842 C841 1.369 . S
C842 C851 1.429 1_545 S
C843 C841 1.419 . S
C843 C844 1.363 . S
C843 H846 0.929 . S
C844 C843 1.363 . S
C844 C850 1.428 . S
H845 C841 0.930 . S
H846 C843 0.929 . S
S847 N848 1.613 . S
S847 N849 1.610 . S
N848 S847 1.613 . S
N848 C851 1.350 . S
N849 S847 1.610 . S
N849 C850 1.351 1_565 S
C850 C844 1.428 . S
C850 N849 1.351 1_545 S
C850 C851 1.434 1_545 S
C851 C842 1.429 1_565 S
C851 N848 1.350 . S
C851 C850 1.434 1_565 S
C852 C853 1.369 . S
C852 C854 1.419 . S
C852 H856 0.930 . S
C853 C852 1.369 . S
C853 C862 1.429 . S
C854 C852 1.419 . S
C854 C855 1.363 . S
C854 H857 0.929 . S
C855 C854 1.363 . S
C855 C861 1.428 . S
H856 C852 0.930 . S
H857 C854 0.929 . S
S858 N859 1.613 . S
S858 N860 1.610 . S
N859 S858 1.613 . S
N859 C862 1.350 . S
N860 S858 1.610 . S
N860 C861 1.351 . S
C861 C855 1.428 . S
C861 N860 1.351 . S
C861 C862 1.434 . S
C862 C853 1.429 . S
C862 N859 1.350 . S
C862 C861 1.434 . S
C863 C864 1.369 . S
C863 C865 1.419 . S
C863 H867 0.930 . S
C864 C863 1.369 . S
C864 C873 1.429 . S
C865 C863 1.419 . S
C865 C866 1.363 . S
C865 H868 0.929 . S
C866 C865 1.363 . S
C866 C872 1.428 . S
H867 C863 0.930 . S
H868 C865 0.929 . S
S869 N870 1.613 1_455 S
S869 N871 1.610 1_455 S
N870 S869 1.613 1_655 S
N870 C873 1.350 . S
N871 S869 1.610 1_655 S
N871 C872 1.351 . S
C872 C866 1.428 . S
C872 N871 1.351 . S
C872 C873 1.434 . S
C873 C864 1.429 . S
C873 N870 1.350 . S
C873 C872 1.434 . S
C874 C875 1.369 . S
C874 C876 1.419 . S
C874 H878 0.930 . S
C875 C874 1.369 . S
C875 C884 1.429 . S
C876 C874 1.419 . S
C876 C877 1.363 . S
C876 H879 0.929 . S
C877 C876 1.363 . S
C877 C883 1.428 . S
H878 C874 0.930 . S
H879 C876 0.929 . S
S880 N881 1.613 . S
S880 N882 1.610 1_554 S
N881 S880 1.613 . S
N881 C884 1.350 . S
N882 S880 1.610 1_556 S
N882 C883 1.351 1_556 S
C883 C877 1.428 . S
C883 N882 1.351 1_554 S
C883 C884 1.434 . S
C884 C875 1.429 . S
C884 N881 1.350 . S
C884 C883 1.434 . S
C885 C886 1.369 . S
C885 C887 1.419 . S
C885 H889 0.930 . S
C886 C885 1.369 . S
C886 C895 1.429 . S
C887 C885 1.419 . S
C887 C888 1.363 . S
C887 H890 0.929 . S
C888 C887 1.363 . S
C888 C894 1.428 1_565 S
H889 C885 0.930 . S
H890 C887 0.929 . S
S891 N892 1.613 . S
S891 N893 1.610 . S
N892 S891 1.613 . S
N892 C895 1.350 1_545 S
N893 S891 1.610 . S
N893 C894 1.351 . S
C894 C888 1.428 1_545 S
C894 N893 1.351 . S
C894 C895 1.434 1_545 S
C895 C886 1.429 . S
C895 N892 1.350 1_565 S
C895 C894 1.434 1_565 S
C369 C16 0.591 . S
C371 C246 0.594 . S
C380 C39 0.595 . S
C382 C269 0.596 . S
C391 C62 0.592 . S
C393 C200 0.595 . S
C402 C223 0.596 . S
C404 C85 0.594 . S
C413 C108 0.595 . S
C415 C338 0.596 . S
C424 C361 0.592 . S
C426 C131 0.594 . S
C435 C292 0.592 . S
C437 C154 0.592 . S
C446 C177 0.596 . S
C448 C315 0.593 . S
C457 C18 2.041 . S
C459 C110 2.039 . S
C468 C41 2.039 . S
C470 C317 2.041 . S
C479 C64 2.039 . S
C481 C156 2.041 . S
C490 C87 2.041 . S
C492 C363 2.040 . S
C501 C133 2.040 . S
C503 C225 2.040 . S
C512 C271 2.041 . S
C514 C179 2.039 . S
C523 C294 2.039 . S
C525 C202 2.041 . S
C534 C248 2.040 . S
C536 C340 2.040 . S
C545 C21 1.764 . S
C547 C178 1.746 . S
C556 C44 1.762 . S
C558 C293 1.744 . S
C567 C67 1.761 . S
C569 C132 1.742 . S
C578 C90 1.764 1_455 S
C580 C339 1.746 . S
C589 C86 1.743 . S
C591 C113 1.762 . S
C600 C136 1.761 . S
C602 C201 1.742 . S
C611 C159 1.761 . S
C613 C40 1.742 . S
C622 C247 1.742 . S
C624 C182 1.761 1_655 S
C633 C205 1.763 . S
C635 C362 1.746 . S
C644 C109 1.741 . S
C646 C228 1.761 1_655 S
C655 C316 1.745 . S
C657 C251 1.763 . S
C666 C155 1.743 . S
C668 C274 1.762 . S
C677 C297 1.762 . S
C679 C270 1.743 . S
C688 C320 1.764 1_455 S
C690 C17 1.746 . S
C699 C224 1.745 . S
C701 C343 1.763 . S
C710 C366 1.762 . S
C712 C63 1.745 . S
C721 C19 1.254 1_556 S
C723 C227 1.272 . S
C732 C250 1.269 . S
C734 C42 1.259 . S
C743 C65 1.253 . S
C745 C273 1.272 . S
C754 C204 1.273 . S
C756 C88 1.255 . S
C765 C319 1.269 . S
C767 C111 1.258 1_554 S
C776 C342 1.271 . S
C778 C134 1.255 . S
C787 C365 1.269 . S
C789 C157 1.258 . S
C798 C296 1.270 . S
C800 C180 1.256 . S
C809 C43 1.270 . S
C811 C203 1.259 . S
C820 C66 1.272 . S
C822 C226 1.255 1_565 S
C831 C89 1.269 . S
C833 C249 1.259 1_556 S
C842 C272 1.255 1_545 S
C844 C20 1.271 . S
C853 C135 1.272 . S
C855 C295 1.254 . S
C864 C158 1.269 . S
C866 C318 1.259 1_545 S
C875 C181 1.273 . S
C877 C341 1.254 1_554 S
C886 C112 1.271 . S
C888 C364 1.255 1_565 S
