# Generated by pormake.
# Topology sxg, (6)-cn, num edge types: 1
# Building blocks:
#     Node 0, Type 0, BuildingBlock: IZENUY_clean_sbu_0, # of connection points: 6
#     Node 1, Type 0, BuildingBlock: IZENUY_clean_sbu_0, # of connection points: 6
#     Node 2, Type 0, BuildingBlock: IZENUY_clean_sbu_0, # of connection points: 6
#     Node 3, Type 0, BuildingBlock: IZENUY_clean_sbu_0, # of connection points: 6
#     Node 4, Type 0, BuildingBlock: IZENUY_clean_sbu_0, # of connection points: 6
#     Node 5, Type 0, BuildingBlock: IZENUY_clean_sbu_0, # of connection points: 6
#     Node 6, Type 0, BuildingBlock: IZENUY_clean_sbu_0, # of connection points: 6
#     Node 7, Type 0, BuildingBlock: IZENUY_clean_sbu_0, # of connection points: 6
#     Node 8, Type 0, BuildingBlock: IZENUY_clean_sbu_0, # of connection points: 6
#     Node 9, Type 0, BuildingBlock: IZENUY_clean_sbu_0, # of connection points: 6
#     Node 10, Type 0, BuildingBlock: IZENUY_clean_sbu_0, # of connection points: 6
#     Node 11, Type 0, BuildingBlock: IZENUY_clean_sbu_0, # of connection points: 6
#     Node 12, Type 0, BuildingBlock: IZENUY_clean_sbu_0, # of connection points: 6
#     Node 13, Type 0, BuildingBlock: IZENUY_clean_sbu_0, # of connection points: 6
#     Node 14, Type 0, BuildingBlock: IZENUY_clean_sbu_0, # of connection points: 6
#     Node 15, Type 0, BuildingBlock: IZENUY_clean_sbu_0, # of connection points: 6
#     Node 16, Type 0, BuildingBlock: IZENUY_clean_sbu_0, # of connection points: 6
#     Node 17, Type 0, BuildingBlock: IZENUY_clean_sbu_0, # of connection points: 6
#     Node 18, Type 0, BuildingBlock: IZENUY_clean_sbu_0, # of connection points: 6
#     Node 19, Type 0, BuildingBlock: IZENUY_clean_sbu_0, # of connection points: 6
#     Node 20, Type 0, BuildingBlock: IZENUY_clean_sbu_0, # of connection points: 6
#     Node 21, Type 0, BuildingBlock: IZENUY_clean_sbu_0, # of connection points: 6
#     Node 22, Type 0, BuildingBlock: IZENUY_clean_sbu_0, # of connection points: 6
#     Node 23, Type 0, BuildingBlock: IZENUY_clean_sbu_0, # of connection points: 6
#     Edge 24, Type (0, 0), BuildingBlock: XIVTED_clean_linker_0, # of connection points: 2
#     Edge 25, Type (0, 0), BuildingBlock: XIVTED_clean_linker_0, # of connection points: 2
#     Edge 26, Type (0, 0), BuildingBlock: XIVTED_clean_linker_0, # of connection points: 2
#     Edge 27, Type (0, 0), BuildingBlock: XIVTED_clean_linker_0, # of connection points: 2
#     Edge 28, Type (0, 0), BuildingBlock: XIVTED_clean_linker_0, # of connection points: 2
#     Edge 29, Type (0, 0), BuildingBlock: XIVTED_clean_linker_0, # of connection points: 2
#     Edge 30, Type (0, 0), BuildingBlock: XIVTED_clean_linker_0, # of connection points: 2
#     Edge 31, Type (0, 0), BuildingBlock: XIVTED_clean_linker_0, # of connection points: 2
#     Edge 32, Type (0, 0), BuildingBlock: XIVTED_clean_linker_0, # of connection points: 2
#     Edge 33, Type (0, 0), BuildingBlock: XIVTED_clean_linker_0, # of connection points: 2
#     Edge 34, Type (0, 0), BuildingBlock: XIVTED_clean_linker_0, # of connection points: 2
#     Edge 35, Type (0, 0), BuildingBlock: XIVTED_clean_linker_0, # of connection points: 2
#     Edge 36, Type (0, 0), BuildingBlock: XIVTED_clean_linker_0, # of connection points: 2
#     Edge 37, Type (0, 0), BuildingBlock: XIVTED_clean_linker_0, # of connection points: 2
#     Edge 38, Type (0, 0), BuildingBlock: XIVTED_clean_linker_0, # of connection points: 2
#     Edge 39, Type (0, 0), BuildingBlock: XIVTED_clean_linker_0, # of connection points: 2
#     Edge 40, Type (0, 0), BuildingBlock: XIVTED_clean_linker_0, # of connection points: 2
#     Edge 41, Type (0, 0), BuildingBlock: XIVTED_clean_linker_0, # of connection points: 2
#     Edge 42, Type (0, 0), BuildingBlock: XIVTED_clean_linker_0, # of connection points: 2
#     Edge 43, Type (0, 0), BuildingBlock: XIVTED_clean_linker_0, # of connection points: 2
#     Edge 44, Type (0, 0), BuildingBlock: XIVTED_clean_linker_0, # of connection points: 2
#     Edge 45, Type (0, 0), BuildingBlock: XIVTED_clean_linker_0, # of connection points: 2
#     Edge 46, Type (0, 0), BuildingBlock: XIVTED_clean_linker_0, # of connection points: 2
#     Edge 47, Type (0, 0), BuildingBlock: XIVTED_clean_linker_0, # of connection points: 2
#     Edge 48, Type (0, 0), BuildingBlock: XIVTED_clean_linker_0, # of connection points: 2
#     Edge 49, Type (0, 0), BuildingBlock: XIVTED_clean_linker_0, # of connection points: 2
#     Edge 50, Type (0, 0), BuildingBlock: XIVTED_clean_linker_0, # of connection points: 2
#     Edge 51, Type (0, 0), BuildingBlock: XIVTED_clean_linker_0, # of connection points: 2
#     Edge 52, Type (0, 0), BuildingBlock: XIVTED_clean_linker_0, # of connection points: 2
#     Edge 53, Type (0, 0), BuildingBlock: XIVTED_clean_linker_0, # of connection points: 2
#     Edge 54, Type (0, 0), BuildingBlock: XIVTED_clean_linker_0, # of connection points: 2
#     Edge 55, Type (0, 0), BuildingBlock: XIVTED_clean_linker_0, # of connection points: 2
#     Edge 56, Type (0, 0), BuildingBlock: XIVTED_clean_linker_0, # of connection points: 2
#     Edge 57, Type (0, 0), BuildingBlock: XIVTED_clean_linker_0, # of connection points: 2
#     Edge 58, Type (0, 0), BuildingBlock: XIVTED_clean_linker_0, # of connection points: 2
#     Edge 59, Type (0, 0), BuildingBlock: XIVTED_clean_linker_0, # of connection points: 2
#     Edge 60, Type (0, 0), BuildingBlock: XIVTED_clean_linker_0, # of connection points: 2
#     Edge 61, Type (0, 0), BuildingBlock: XIVTED_clean_linker_0, # of connection points: 2
#     Edge 62, Type (0, 0), BuildingBlock: XIVTED_clean_linker_0, # of connection points: 2
#     Edge 63, Type (0, 0), BuildingBlock: XIVTED_clean_linker_0, # of connection points: 2
#     Edge 64, Type (0, 0), BuildingBlock: XIVTED_clean_linker_0, # of connection points: 2
#     Edge 65, Type (0, 0), BuildingBlock: XIVTED_clean_linker_0, # of connection points: 2
#     Edge 66, Type (0, 0), BuildingBlock: XIVTED_clean_linker_0, # of connection points: 2
#     Edge 67, Type (0, 0), BuildingBlock: XIVTED_clean_linker_0, # of connection points: 2
#     Edge 68, Type (0, 0), BuildingBlock: XIVTED_clean_linker_0, # of connection points: 2
#     Edge 69, Type (0, 0), BuildingBlock: XIVTED_clean_linker_0, # of connection points: 2
#     Edge 70, Type (0, 0), BuildingBlock: XIVTED_clean_linker_0, # of connection points: 2
#     Edge 71, Type (0, 0), BuildingBlock: XIVTED_clean_linker_0, # of connection points: 2
#     Edge 72, Type (0, 0), BuildingBlock: XIVTED_clean_linker_0, # of connection points: 2
#     Edge 73, Type (0, 0), BuildingBlock: XIVTED_clean_linker_0, # of connection points: 2
#     Edge 74, Type (0, 0), BuildingBlock: XIVTED_clean_linker_0, # of connection points: 2
#     Edge 75, Type (0, 0), BuildingBlock: XIVTED_clean_linker_0, # of connection points: 2
#     Edge 76, Type (0, 0), BuildingBlock: XIVTED_clean_linker_0, # of connection points: 2
#     Edge 77, Type (0, 0), BuildingBlock: XIVTED_clean_linker_0, # of connection points: 2
#     Edge 78, Type (0, 0), BuildingBlock: XIVTED_clean_linker_0, # of connection points: 2
#     Edge 79, Type (0, 0), BuildingBlock: XIVTED_clean_linker_0, # of connection points: 2
#     Edge 80, Type (0, 0), BuildingBlock: XIVTED_clean_linker_0, # of connection points: 2
#     Edge 81, Type (0, 0), BuildingBlock: XIVTED_clean_linker_0, # of connection points: 2
#     Edge 82, Type (0, 0), BuildingBlock: XIVTED_clean_linker_0, # of connection points: 2
#     Edge 83, Type (0, 0), BuildingBlock: XIVTED_clean_linker_0, # of connection points: 2
#     Edge 84, Type (0, 0), BuildingBlock: XIVTED_clean_linker_0, # of connection points: 2
#     Edge 85, Type (0, 0), BuildingBlock: XIVTED_clean_linker_0, # of connection points: 2
#     Edge 86, Type (0, 0), BuildingBlock: XIVTED_clean_linker_0, # of connection points: 2
#     Edge 87, Type (0, 0), BuildingBlock: XIVTED_clean_linker_0, # of connection points: 2
#     Edge 88, Type (0, 0), BuildingBlock: XIVTED_clean_linker_0, # of connection points: 2
#     Edge 89, Type (0, 0), BuildingBlock: XIVTED_clean_linker_0, # of connection points: 2
#     Edge 90, Type (0, 0), BuildingBlock: XIVTED_clean_linker_0, # of connection points: 2
#     Edge 91, Type (0, 0), BuildingBlock: XIVTED_clean_linker_0, # of connection points: 2
#     Edge 92, Type (0, 0), BuildingBlock: XIVTED_clean_linker_0, # of connection points: 2
#     Edge 93, Type (0, 0), BuildingBlock: XIVTED_clean_linker_0, # of connection points: 2
#     Edge 94, Type (0, 0), BuildingBlock: XIVTED_clean_linker_0, # of connection points: 2
#     Edge 95, Type (0, 0), BuildingBlock: XIVTED_clean_linker_0, # of connection points: 2
# Relax obj value: 0.224
# Max RMSD: 0.255
# Mean RMSD: 0.255
data_MOF--net-sxg--node1-IZENUY_clean_sbu_0--edge1-XIVTED_clean_linker_0
_symmetry_space_group_name_H-M    P1
_symmetry_Int_Tables_number       1
_symmetry_cell_setting            triclinic
loop_
_symmetry_equiv_pos_as_xyz
'x, y, z'
_cell_length_a     45.190851
_cell_length_b     45.247592
_cell_length_c     45.235568
_cell_angle_alpha  90.024418
_cell_angle_beta   90.048377
_cell_angle_gamma 90.012802
loop_
_atom_site_label
_atom_site_type_symbol
_atom_site_fract_x
_atom_site_fract_y
_atom_site_fract_z
_atom_type_partial_charge
Fe0 Fe 0.07345 0.36774 0.18047 0.0
Fe1 Fe 0.0557 0.35129 0.24394 0.0
O2 O 0.06462 0.3407 0.20734 0.0
Fe3 Fe 0.06521 0.30283 0.19771 0.0
O4 O 0.0365 0.30799 0.17046 0.0
O5 O 0.05719 0.34665 0.14932 0.0
O6 O 0.03792 0.38506 0.18437 0.0
C7 C 0.02722 0.39478 0.20811 0.0
C8 C 0.11506 0.32598 0.1683 0.0
O9 O 0.0373 0.38633 0.23299 0.0
C10 C 0.09185 0.30032 0.25131 0.0
O11 O 0.0913 0.39343 0.20687 0.0
O12 O 0.09121 0.36892 0.24879 0.0
O13 O 0.095 0.30646 0.17006 0.0
O14 O 0.10972 0.35236 0.17497 0.0
C15 C 0.01617 0.30677 0.23743 0.0
O16 O 0.07239 0.31792 0.26142 0.0
O17 O 0.09408 0.29585 0.22402 0.0
C18 C 0.10225 0.38839 0.23224 0.0
O19 O 0.01973 0.33408 0.24141 0.0
O20 O 0.0359 0.29177 0.22422 0.0
C21 C 0.03836 0.32572 0.14905 0.0
Fe22 Fe 0.43538 0.63912 0.67869 0.0
Fe23 Fe 0.45388 0.6533 0.7425 0.0
O24 O 0.44454 0.66524 0.70643 0.0
Fe25 Fe 0.44401 0.70346 0.69833 0.0
O26 O 0.47213 0.69911 0.67038 0.0
O27 O 0.45159 0.66101 0.64808 0.0
O28 O 0.47092 0.62138 0.68188 0.0
C29 C 0.48155 0.61084 0.70532 0.0
C30 C 0.39369 0.68153 0.6682 0.0
O31 O 0.47129 0.61833 0.73035 0.0
C32 C 0.41915 0.70469 0.75271 0.0
O33 O 0.41748 0.61284 0.70448 0.0
O34 O 0.41806 0.63619 0.74713 0.0
O35 O 0.41361 0.70108 0.67111 0.0
O36 O 0.39913 0.65488 0.67371 0.0
C37 C 0.49396 0.69744 0.73693 0.0
O38 O 0.43851 0.68631 0.76134 0.0
O39 O 0.41571 0.70987 0.72566 0.0
C40 C 0.40671 0.6173 0.73004 0.0
O41 O 0.49013 0.67001 0.73998 0.0
O42 O 0.47414 0.71314 0.72459 0.0
C43 C 0.47036 0.68197 0.64846 0.0
Fe44 Fe 0.55639 0.15163 0.76495 0.0
Fe45 Fe 0.56007 0.20023 0.81177 0.0
O46 O 0.56226 0.16254 0.80209 0.0
Fe47 Fe 0.57084 0.13598 0.82956 0.0
O48 O 0.53655 0.11703 0.82334 0.0
O49 O 0.53932 0.11563 0.77474 0.0
O50 O 0.51932 0.16679 0.76483 0.0
C51 C 0.51415 0.19391 0.76853 0.0
C52 C 0.60378 0.11688 0.7798 0.0
O53 O 0.53189 0.20972 0.78352 0.0
C54 C 0.60919 0.17981 0.84447 0.0
O55 O 0.57191 0.18605 0.74861 0.0
O56 O 0.59001 0.20902 0.78728 0.0
O57 O 0.59136 0.11125 0.80433 0.0
O58 O 0.59315 0.13608 0.76262 0.0
C59 C 0.53176 0.1759 0.85873 0.0
O60 O 0.58819 0.19814 0.84128 0.0
O61 O 0.6059 0.1532 0.83735 0.0
C62 C 0.58846 0.20585 0.75975 0.0
O63 O 0.53007 0.19323 0.83701 0.0
O64 O 0.55175 0.15613 0.85975 0.0
C65 C 0.52794 0.10687 0.79893 0.0
Fe66 Fe 0.9529 0.85478 0.26484 0.0
Fe67 Fe 0.94209 0.80437 0.30851 0.0
O68 O 0.94315 0.84261 0.30069 0.0
Fe69 Fe 0.93416 0.86851 0.32861 0.0
O70 O 0.97004 0.88541 0.326 0.0
O71 O 0.97104 0.88924 0.2776 0.0
O72 O 0.98882 0.83734 0.26735 0.0
C73 C 0.99195 0.80978 0.26977 0.0
C74 C 0.90626 0.89144 0.27736 0.0
O75 O 0.97188 0.79438 0.28205 0.0
C76 C 0.89193 0.82665 0.33838 0.0
O77 O 0.93683 0.82227 0.24563 0.0
O78 O 0.91366 0.79875 0.28115 0.0
O79 O 0.917 0.89547 0.30302 0.0
O80 O 0.91747 0.87262 0.26014 0.0
C81 C 0.96868 0.82521 0.35853 0.0
O82 O 0.91178 0.807 0.33577 0.0
O83 O 0.89762 0.85327 0.33296 0.0
C84 C 0.91718 0.8041 0.25414 0.0
O85 O 0.9704 0.80816 0.33652 0.0
O86 O 0.94972 0.84599 0.35908 0.0
C87 C 0.98145 0.89578 0.30288 0.0
Fe88 Fe 0.20501 0.0595 0.30288 0.0
Fe89 Fe 0.18312 0.07176 0.36617 0.0
O90 O 0.21229 0.06302 0.3413 0.0
Fe91 Fe 0.24879 0.05832 0.35495 0.0
O92 O 0.25938 0.03095 0.3272 0.0
O93 O 0.21896 0.02167 0.30152 0.0
O94 O 0.16758 0.04435 0.30762 0.0
C95 C 0.15515 0.03229 0.32962 0.0
C96 C 0.25921 0.09015 0.30456 0.0
O97 O 0.16267 0.0389 0.35567 0.0
C98 C 0.22755 0.10667 0.38831 0.0
O99 O 0.19158 0.09727 0.30124 0.0
O100 O 0.16254 0.09484 0.33998 0.0
O101 O 0.26278 0.08869 0.33224 0.0
O102 O 0.24075 0.07395 0.29131 0.0
C103 C 0.2159 0.02834 0.39636 0.0
O104 O 0.20152 0.10542 0.37834 0.0
O105 O 0.24499 0.08499 0.38529 0.0
C106 C 0.17188 0.10848 0.31747 0.0
O107 O 0.19838 0.05015 0.39689 0.0
O108 O 0.237 0.02751 0.37806 0.0
C109 C 0.2447 0.01452 0.30995 0.0
Fe110 Fe 0.26215 0.95156 0.85275 0.0
Fe111 Fe 0.30825 0.94241 0.80399 0.0
O112 O 0.2987 0.94293 0.84186 0.0
Fe113 Fe 0.32581 0.93423 0.8686 0.0
O114 O 0.32219 0.96995 0.88549 0.0
O115 O 0.27352 0.97058 0.88751 0.0
O116 O 0.26409 0.98736 0.83521 0.0
C117 C 0.2676 0.99065 0.80782 0.0
C118 C 0.27464 0.9056 0.89028 0.0
O119 O 0.28101 0.97103 0.79287 0.0
C120 C 0.33829 0.89296 0.82693 0.0
O121 O 0.24465 0.93429 0.81956 0.0
O122 O 0.28234 0.91313 0.7972 0.0
O123 O 0.29987 0.91696 0.89492 0.0
O124 O 0.25775 0.91615 0.87081 0.0
C125 C 0.3567 0.96943 0.82655 0.0
O126 O 0.33679 0.91329 0.80771 0.0
O127 O 0.33071 0.89777 0.85319 0.0
C128 C 0.25496 0.91513 0.80166 0.0
O129 O 0.33499 0.9716 0.80917 0.0
O130 O 0.35675 0.95016 0.84704 0.0
C131 C 0.29858 0.98113 0.89509 0.0
Fe132 Fe 0.74582 0.45264 0.65189 0.0
Fe133 Fe 0.70066 0.44472 0.70161 0.0
O134 O 0.70959 0.44369 0.66358 0.0
Fe135 Fe 0.68227 0.43338 0.63755 0.0
O136 O 0.68535 0.46818 0.61881 0.0
O137 O 0.73392 0.4696 0.61646 0.0
O138 O 0.74323 0.48921 0.66778 0.0
C139 C 0.7403 0.49355 0.69511 0.0
C140 C 0.73385 0.4044 0.61701 0.0
O141 O 0.72745 0.47435 0.71104 0.0
C142 C 0.67045 0.39403 0.68125 0.0
O143 O 0.76396 0.43755 0.68555 0.0
O144 O 0.72738 0.41621 0.70943 0.0
O145 O 0.70825 0.41482 0.61206 0.0
O146 O 0.75078 0.41655 0.63552 0.0
C147 C 0.65157 0.47036 0.67827 0.0
O148 O 0.67264 0.41509 0.69961 0.0
O149 O 0.67757 0.39773 0.65469 0.0
C150 C 0.75461 0.41888 0.70436 0.0
O151 O 0.67331 0.47316 0.69555 0.0
O152 O 0.65139 0.45031 0.65851 0.0
C153 C 0.70869 0.47942 0.60874 0.0
Fe154 Fe 0.81095 0.56422 0.20301 0.0
Fe155 Fe 0.82769 0.5738 0.1383 0.0
O156 O 0.80088 0.5646 0.1652 0.0
Fe157 Fe 0.76404 0.55652 0.15473 0.0
O158 O 0.7659 0.52034 0.17153 0.0
O159 O 0.78338 0.53583 0.21395 0.0
O160 O 0.83709 0.53478 0.19688 0.0
C161 C 0.85852 0.5367 0.17914 0.0
C162 C 0.75809 0.59216 0.20645 0.0
O163 O 0.85869 0.55632 0.1589 0.0
C164 C 0.77628 0.60365 0.11835 0.0
O165 O 0.83995 0.59294 0.19971 0.0
O166 O 0.83338 0.60955 0.15476 0.0
O167 O 0.7473 0.57334 0.18846 0.0
O168 O 0.78555 0.59374 0.21064 0.0
C169 C 0.79936 0.52844 0.1104 0.0
O170 O 0.80158 0.59267 0.1131 0.0
O171 O 0.7596 0.59226 0.13751 0.0
C172 C 0.84125 0.6137 0.18099 0.0
O173 O 0.82328 0.53895 0.11995 0.0
O174 O 0.77453 0.53822 0.11943 0.0
C175 C 0.7694 0.51668 0.19889 0.0
Fe176 Fe 0.30326 0.2019 0.0621 0.0
Fe177 Fe 0.36642 0.17976 0.07541 0.0
O178 O 0.34176 0.20891 0.06606 0.0
Fe179 Fe 0.3556 0.24525 0.06122 0.0
O180 O 0.32804 0.25579 0.03365 0.0
O181 O 0.3026 0.21538 0.02404 0.0
O182 O 0.30776 0.16425 0.04746 0.0
C183 C 0.32978 0.1514 0.03587 0.0
C184 C 0.30514 0.25596 0.09269 0.0
O185 O 0.35586 0.15872 0.0428 0.0
C186 C 0.38884 0.22456 0.10983 0.0
O187 O 0.301 0.18905 0.10001 0.0
O188 O 0.33987 0.16002 0.09881 0.0
O189 O 0.33285 0.25939 0.09142 0.0
O190 O 0.29186 0.2379 0.07605 0.0
C191 C 0.39721 0.2122 0.03191 0.0
O192 O 0.37873 0.19859 0.10891 0.0
O193 O 0.38589 0.24162 0.08791 0.0
C194 C 0.31729 0.1699 0.11204 0.0
O195 O 0.39734 0.19444 0.05356 0.0
O196 O 0.37877 0.23316 0.03074 0.0
C197 C 0.31134 0.24095 0.01682 0.0
Fe198 Fe 0.86965 0.32691 0.93481 0.0
Fe199 Fe 0.85386 0.26278 0.95042 0.0
O200 O 0.84301 0.29966 0.94344 0.0
Fe201 Fe 0.80512 0.30935 0.94436 0.0
O202 O 0.81124 0.33491 0.97432 0.0
O203 O 0.84879 0.35735 0.95291 0.0
O204 O 0.88806 0.32182 0.96959 0.0
C205 C 0.89797 0.2977 0.97927 0.0
C206 C 0.82662 0.34096 0.89532 0.0
O207 O 0.88926 0.27314 0.96862 0.0
C208 C 0.80167 0.25716 0.91534 0.0
O209 O 0.89514 0.30144 0.9154 0.0
O210 O 0.8708 0.25946 0.91441 0.0
O211 O 0.808 0.3389 0.91617 0.0
O212 O 0.853 0.33326 0.89918 0.0
C213 C 0.8101 0.26687 0.99096 0.0
O214 O 0.82009 0.24614 0.93358 0.0
O215 O 0.79744 0.2846 0.91436 0.0
C216 C 0.89015 0.2764 0.90375 0.0
O217 O 0.83743 0.26356 0.98682 0.0
O218 O 0.79467 0.28112 0.97231 0.0
C219 C 0.82857 0.35668 0.97255 0.0
Fe220 Fe 0.64002 0.68175 0.43449 0.0
Fe221 Fe 0.65056 0.74758 0.44764 0.0
O222 O 0.66449 0.71114 0.44375 0.0
Fe223 Fe 0.70292 0.70434 0.44854 0.0
O224 O 0.69824 0.66703 0.46369 0.0
O225 O 0.6501 0.66116 0.46747 0.0
O226 O 0.60876 0.69673 0.45574 0.0
C227 C 0.60835 0.71509 0.47693 0.0
C228 C 0.6901 0.67095 0.39912 0.0
O229 O 0.62675 0.73612 0.47796 0.0
C230 C 0.70165 0.7577 0.41681 0.0
O231 O 0.62821 0.69995 0.40055 0.0
O232 O 0.62074 0.74341 0.42054 0.0
O233 O 0.70591 0.69061 0.41102 0.0
O234 O 0.66691 0.66165 0.4117 0.0
C235 C 0.69409 0.74429 0.49286 0.0
O236 O 0.67389 0.7611 0.41752 0.0
O237 O 0.7146 0.74006 0.4341 0.0
C238 C 0.61816 0.72588 0.39894 0.0
O239 O 0.67763 0.75873 0.47547 0.0
O240 O 0.70288 0.71856 0.48632 0.0
C241 C 0.67611 0.65398 0.47475 0.0
Fe242 Fe 0.15334 0.76148 0.55713 0.0
Fe243 Fe 0.20479 0.80584 0.55843 0.0
O244 O 0.16637 0.79819 0.56178 0.0
Fe245 Fe 0.14101 0.82706 0.57038 0.0
O246 O 0.11066 0.81153 0.54819 0.0
O247 O 0.13004 0.77267 0.52627 0.0
O248 O 0.18132 0.75121 0.52996 0.0
C249 C 0.19804 0.76619 0.51333 0.0
C250 C 0.1193 0.78209 0.6051 0.0
O251 O 0.20635 0.7919 0.52055 0.0
C252 C 0.18962 0.83876 0.60752 0.0
O253 O 0.17616 0.74799 0.58773 0.0
O254 O 0.21684 0.77034 0.57298 0.0
O255 O 0.12862 0.80835 0.6039 0.0
O256 O 0.12281 0.76482 0.58344 0.0
C257 C 0.1778 0.85548 0.53117 0.0
O258 O 0.20619 0.81939 0.59618 0.0
O259 O 0.16678 0.84769 0.59403 0.0
C260 C 0.2038 0.75198 0.58939 0.0
O261 O 0.19974 0.84302 0.54329 0.0
O262 O 0.15165 0.84811 0.53774 0.0
C263 C 0.11106 0.79318 0.527 0.0
Fe264 Fe 0.9368 0.63691 0.82474 0.0
Fe265 Fe 0.9536 0.65258 0.76078 0.0
O266 O 0.94556 0.66355 0.79745 0.0
Fe267 Fe 0.94555 0.70143 0.80689 0.0
O268 O 0.97479 0.69608 0.83354 0.0
O269 O 0.95336 0.65834 0.85549 0.0
O270 O 0.97219 0.61949 0.82064 0.0
C271 C 0.98262 0.60959 0.79683 0.0
C272 C 0.89577 0.67907 0.83679 0.0
O273 O 0.97229 0.61775 0.77193 0.0
C274 C 0.91746 0.70362 0.75393 0.0
O275 O 0.91876 0.61085 0.799 0.0
O276 O 0.91794 0.63493 0.75692 0.0
O277 O 0.91638 0.69805 0.83519 0.0
O278 O 0.9006 0.65257 0.8302 0.0
C279 C 0.99345 0.69712 0.76581 0.0
O280 O 0.93641 0.68571 0.74337 0.0
O281 O 0.91622 0.7085 0.78122 0.0
C282 C 0.90718 0.61573 0.77393 0.0
O283 O 0.98967 0.6698 0.76209 0.0
O284 O 0.97425 0.71222 0.77967 0.0
C285 C 0.97261 0.67888 0.85534 0.0
Fe286 Fe 0.5652 0.30514 0.30918 0.0
Fe287 Fe 0.57473 0.36932 0.32824 0.0
O288 O 0.56563 0.34322 0.30048 0.0
Fe289 Fe 0.55765 0.35491 0.264 0.0
O290 O 0.52132 0.33822 0.26507 0.0
O291 O 0.53618 0.29527 0.28185 0.0
O292 O 0.53614 0.3103 0.33604 0.0
C293 C 0.53831 0.32729 0.35803 0.0
C294 C 0.59301 0.30357 0.25611 0.0
O295 O 0.55771 0.34769 0.35857 0.0
C296 C 0.60457 0.39101 0.27762 0.0
O297 O 0.59459 0.30748 0.33744 0.0
O298 O 0.61063 0.35302 0.33368 0.0
O299 O 0.57421 0.32186 0.24598 0.0
O300 O 0.59433 0.29819 0.2833 0.0
C301 C 0.52939 0.39781 0.30065 0.0
O302 O 0.59332 0.39551 0.30292 0.0
O303 O 0.59354 0.3721 0.26041 0.0
C304 C 0.61523 0.32635 0.33972 0.0
O305 O 0.53964 0.38741 0.32432 0.0
O306 O 0.53958 0.38983 0.27567 0.0
C307 C 0.51713 0.3109 0.26835 0.0
Fe308 Fe 0.45188 0.85213 0.24108 0.0
Fe309 Fe 0.44727 0.80398 0.194 0.0
O310 O 0.44549 0.84169 0.20394 0.0
Fe311 Fe 0.43696 0.86854 0.17671 0.0
O312 O 0.47125 0.88755 0.18297 0.0
O313 O 0.46962 0.88785 0.23163 0.0
O314 O 0.48858 0.83638 0.24067 0.0
C315 C 0.49347 0.8093 0.23676 0.0
C316 C 0.40462 0.88758 0.22715 0.0
O317 O 0.47509 0.79368 0.22238 0.0
C318 C 0.39846 0.82496 0.16136 0.0
O319 O 0.43525 0.81803 0.25708 0.0
O320 O 0.41705 0.79549 0.21808 0.0
O321 O 0.41623 0.89312 0.20217 0.0
O322 O 0.41566 0.86839 0.24399 0.0
C323 C 0.47608 0.82843 0.1475 0.0
O324 O 0.41942 0.80659 0.16426 0.0
O325 O 0.40186 0.85146 0.16879 0.0
C326 C 0.41717 0.79982 0.24549 0.0
O327 O 0.47749 0.81092 0.1691 0.0
O328 O 0.45624 0.84843 0.14647 0.0
C329 C 0.48047 0.8971 0.20742 0.0
Fe330 Fe 0.07114 0.1361 0.67864 0.0
Fe331 Fe 0.05689 0.15148 0.74331 0.0
O332 O 0.06295 0.16261 0.70627 0.0
Fe333 Fe 0.06133 0.20042 0.69695 0.0
O334 O 0.03142 0.19414 0.67133 0.0
O335 O 0.05241 0.15667 0.64855 0.0
O336 O 0.03654 0.11763 0.68469 0.0
C337 C 0.02796 0.10727 0.70902 0.0
C338 C 0.11023 0.17941 0.66403 0.0
O339 O 0.03965 0.11563 0.73322 0.0
C340 C 0.08926 0.20546 0.74926 0.0
O341 O 0.09133 0.11099 0.7038 0.0
O342 O 0.09357 0.13568 0.74561 0.0
O343 O 0.08973 0.19823 0.66767 0.0
O344 O 0.10643 0.15281 0.67094 0.0
C345 C 0.01491 0.19404 0.73969 0.0
O346 O 0.07245 0.18573 0.76006 0.0
O347 O 0.09124 0.20856 0.72178 0.0
C348 C 0.10394 0.11643 0.72832 0.0
O349 O 0.01993 0.16687 0.74328 0.0
O350 O 0.03293 0.2099 0.72507 0.0
C351 C 0.03286 0.17687 0.64954 0.0
Fe352 Fe 0.8258 0.93438 0.63998 0.0
Fe353 Fe 0.76235 0.95375 0.65496 0.0
O354 O 0.7985 0.94387 0.66637 0.0
Fe355 Fe 0.80727 0.94316 0.70443 0.0
O356 O 0.83517 0.97137 0.69984 0.0
O357 O 0.85673 0.95008 0.6617 0.0
O358 O 0.82297 0.96997 0.62264 0.0
C359 C 0.79974 0.98164 0.61278 0.0
C360 C 0.83703 0.893 0.68206 0.0
O361 O 0.77445 0.97181 0.62019 0.0
C362 C 0.75299 0.91792 0.70578 0.0
O363 O 0.79959 0.91697 0.61383 0.0
O364 O 0.75703 0.91842 0.63727 0.0
O365 O 0.83464 0.91308 0.70147 0.0
O366 O 0.83051 0.89805 0.65556 0.0
C367 C 0.76837 0.9928 0.69975 0.0
O368 O 0.7438 0.93757 0.68791 0.0
O369 O 0.78018 0.9148 0.71075 0.0
C370 C 0.77385 0.90667 0.61845 0.0
O371 O 0.76536 0.98965 0.67226 0.0
O372 O 0.78092 0.97278 0.71491 0.0
C373 C 0.8569 0.96902 0.6825 0.0
Fe374 Fe 0.68006 0.07268 0.13889 0.0
Fe375 Fe 0.74442 0.0559 0.15315 0.0
O376 O 0.70802 0.06416 0.16496 0.0
Fe377 Fe 0.69948 0.06433 0.20306 0.0
O378 O 0.6727 0.03496 0.19843 0.0
O379 O 0.64991 0.05627 0.16107 0.0
O380 O 0.68375 0.03715 0.12183 0.0
C381 C 0.70721 0.02613 0.11177 0.0
C382 C 0.66835 0.11366 0.18107 0.0
O383 O 0.73236 0.03683 0.11873 0.0
C384 C 0.75254 0.09222 0.20406 0.0
O385 O 0.70518 0.09052 0.11204 0.0
O386 O 0.74794 0.09134 0.13505 0.0
O387 O 0.67096 0.09335 0.20022 0.0
O388 O 0.6747 0.10891 0.15447 0.0
C389 C 0.74089 0.01672 0.19821 0.0
O390 O 0.76262 0.0733 0.18582 0.0
O391 O 0.72531 0.09375 0.20939 0.0
C392 C 0.73052 0.10192 0.11606 0.0
O393 O 0.74351 0.02002 0.17071 0.0
O394 O 0.72718 0.03591 0.21342 0.0
C395 C 0.65063 0.0369 0.18143 0.0
Fe396 Fe 0.30855 0.56098 0.30492 0.0
Fe397 Fe 0.3271 0.57258 0.36895 0.0
O398 O 0.2996 0.56259 0.34287 0.0
Fe399 Fe 0.26299 0.55478 0.35448 0.0
O400 O 0.26463 0.51778 0.33935 0.0
O401 O 0.28151 0.53142 0.29603 0.0
O402 O 0.33553 0.53238 0.31116 0.0
C403 C 0.35737 0.53497 0.32829 0.0
C404 C 0.25496 0.58665 0.30057 0.0
O405 O 0.35769 0.55465 0.3484 0.0
C406 C 0.27607 0.60332 0.38843 0.0
O407 O 0.33672 0.59048 0.30637 0.0
O408 O 0.33312 0.60775 0.35152 0.0
O409 O 0.24517 0.56929 0.32034 0.0
O410 O 0.28232 0.58964 0.29683 0.0
C411 C 0.29916 0.52844 0.39886 0.0
O412 O 0.30134 0.59227 0.39387 0.0
O413 O 0.25899 0.59135 0.36992 0.0
C414 C 0.33982 0.61132 0.32486 0.0
O415 O 0.3229 0.53825 0.38826 0.0
O416 O 0.27425 0.53844 0.39039 0.0
C417 C 0.2678 0.51292 0.31209 0.0
Fe418 Fe 0.24753 0.45058 0.85445 0.0
Fe419 Fe 0.18344 0.43402 0.87026 0.0
O420 O 0.21065 0.44309 0.84368 0.0
Fe421 Fe 0.20089 0.44397 0.80585 0.0
O422 O 0.22573 0.41408 0.79823 0.0
O423 O 0.26422 0.43353 0.82084 0.0
O424 O 0.25127 0.41476 0.87156 0.0
C425 C 0.23427 0.40343 0.89044 0.0
C426 C 0.24315 0.49076 0.81046 0.0
O427 O 0.20903 0.41459 0.89551 0.0
C428 C 0.15349 0.47182 0.82943 0.0
O429 O 0.23703 0.46894 0.88968 0.0
O430 O 0.18826 0.46863 0.8889 0.0
O431 O 0.22897 0.47192 0.79523 0.0
O432 O 0.24647 0.48687 0.8378 0.0
C433 C 0.16921 0.39481 0.82715 0.0
O434 O 0.15293 0.4521 0.84954 0.0
O435 O 0.1752 0.47378 0.81204 0.0
C436 C 0.21223 0.47892 0.89856 0.0
O437 O 0.17711 0.39846 0.85347 0.0
O438 O 0.17144 0.41578 0.80873 0.0
C439 C 0.25316 0.41494 0.80277 0.0
Fe440 Fe 0.64104 0.82549 0.93349 0.0
Fe441 Fe 0.65461 0.75992 0.94566 0.0
O442 O 0.66673 0.79701 0.94227 0.0
Fe443 Fe 0.70471 0.80562 0.94695 0.0
O444 O 0.69832 0.84271 0.96182 0.0
O445 O 0.65011 0.84569 0.96716 0.0
O446 O 0.61035 0.80864 0.95377 0.0
C447 C 0.6107 0.79032 0.97488 0.0
C448 C 0.68972 0.83833 0.8978 0.0
O449 O 0.62992 0.77003 0.97587 0.0
C450 C 0.70654 0.75263 0.91523 0.0
O451 O 0.63024 0.8074 0.8991 0.0
O452 O 0.62504 0.76304 0.91807 0.0
O453 O 0.7065 0.81907 0.90906 0.0
O454 O 0.66718 0.84738 0.91156 0.0
C455 C 0.69752 0.76539 0.9914 0.0
O456 O 0.679 0.74764 0.91562 0.0
O457 O 0.71814 0.77052 0.93311 0.0
C458 C 0.6215 0.78099 0.89691 0.0
O459 O 0.68187 0.75013 0.97387 0.0
O460 O 0.70535 0.7915 0.98484 0.0
C461 C 0.6759 0.85405 0.97408 0.0
Fe462 Fe 0.13588 0.68081 0.07197 0.0
Fe463 Fe 0.15157 0.74522 0.05738 0.0
O464 O 0.16246 0.70819 0.0635 0.0
Fe465 Fe 0.20026 0.69845 0.06182 0.0
O466 O 0.19367 0.67328 0.03159 0.0
O467 O 0.15646 0.65061 0.05328 0.0
O468 O 0.11722 0.68655 0.0375 0.0
C469 C 0.10724 0.71084 0.02837 0.0
C470 C 0.17928 0.66588 0.1106 0.0
O471 O 0.11594 0.73522 0.03946 0.0
C472 C 0.2044 0.75015 0.09165 0.0
O473 O 0.11065 0.70597 0.092 0.0
O474 O 0.13518 0.74781 0.09374 0.0
O475 O 0.19766 0.66861 0.0896 0.0
O476 O 0.15286 0.6737 0.10727 0.0
C477 C 0.1946 0.74158 0.01597 0.0
O478 O 0.18564 0.76154 0.07399 0.0
O479 O 0.20853 0.7227 0.09206 0.0
C480 C 0.11593 0.73065 0.10426 0.0
O481 O 0.16742 0.74515 0.02074 0.0
O482 O 0.21032 0.727 0.03412 0.0
C483 C 0.17649 0.65141 0.03348 0.0
Fe484 Fe 0.30591 0.30874 0.56259 0.0
Fe485 Fe 0.37074 0.32588 0.57215 0.0
O486 O 0.34373 0.29887 0.56346 0.0
Fe487 Fe 0.35422 0.26192 0.55606 0.0
O488 O 0.33805 0.26332 0.51961 0.0
O489 O 0.29538 0.28122 0.53394 0.0
O490 O 0.31211 0.33479 0.53317 0.0
C491 C 0.32965 0.35636 0.53502 0.0
C492 C 0.30196 0.25623 0.59087 0.0
O493 O 0.35028 0.35659 0.55422 0.0
C494 C 0.39037 0.27483 0.60302 0.0
O495 O 0.30893 0.3375 0.5914 0.0
O496 O 0.35442 0.33291 0.60769 0.0
O497 O 0.32019 0.24528 0.57244 0.0
O498 O 0.29795 0.28364 0.59212 0.0
C499 C 0.39876 0.29646 0.52766 0.0
O500 O 0.39578 0.29992 0.59162 0.0
O501 O 0.37091 0.25817 0.59208 0.0
C502 C 0.32799 0.34029 0.61181 0.0
O503 O 0.38898 0.32059 0.53736 0.0
O504 O 0.38985 0.27196 0.53822 0.0
C505 C 0.31087 0.26731 0.51508 0.0
Fe506 Fe 0.85651 0.24575 0.44644 0.0
Fe507 Fe 0.80463 0.20183 0.44634 0.0
O508 O 0.84299 0.20919 0.44223 0.0
Fe509 Fe 0.86796 0.18009 0.43342 0.0
O510 O 0.89888 0.1957 0.4546 0.0
O511 O 0.87993 0.23436 0.47709 0.0
O512 O 0.82903 0.25661 0.47389 0.0
C513 C 0.81234 0.24202 0.49089 0.0
C514 C 0.88935 0.22439 0.39796 0.0
O515 O 0.80376 0.21627 0.48409 0.0
C516 C 0.81871 0.16827 0.39742 0.0
O517 O 0.83349 0.25929 0.41613 0.0
O518 O 0.79278 0.23728 0.43148 0.0
O519 O 0.87965 0.1983 0.39944 0.0
O520 O 0.88662 0.24179 0.41966 0.0
C521 C 0.83191 0.15233 0.47365 0.0
O522 O 0.80247 0.18788 0.40877 0.0
O523 O 0.84158 0.15925 0.41074 0.0
C524 C 0.80584 0.2554 0.41477 0.0
O525 O 0.80971 0.16471 0.46188 0.0
O526 O 0.85791 0.15975 0.46657 0.0
C527 C 0.89862 0.21363 0.4761 0.0
H528 H 0.12818 0.3855 0.28681 0.0
H529 H 0.25268 0.50709 0.2534 0.0
H530 H 0.1356 0.43034 0.2029 0.0
H531 H 0.23784 0.46768 0.339 0.0
H532 H 0.21372 0.47558 0.23278 0.0
H533 H 0.17116 0.41255 0.30462 0.0
C534 C 0.13876 0.40113 0.27208 0.0
C535 C 0.12796 0.40575 0.2433 0.0
C536 C 0.21922 0.47363 0.256 0.0
C537 C 0.17778 0.43684 0.26371 0.0
C538 C 0.24167 0.49145 0.26778 0.0
C539 C 0.24851 0.49024 0.29809 0.0
C540 C 0.20355 0.45432 0.27461 0.0
C541 C 0.23328 0.46958 0.31557 0.0
C542 C 0.16346 0.41655 0.28231 0.0
C543 C 0.14292 0.42621 0.22531 0.0
N544 N 0.21146 0.45265 0.30364 0.0
N545 N 0.16703 0.44102 0.23582 0.0
H546 H 0.26056 0.49323 0.75215 0.0
H547 H 0.37927 0.62108 0.78373 0.0
H548 H 0.27029 0.53857 0.83555 0.0
H549 H 0.37499 0.57386 0.70088 0.0
H550 H 0.33678 0.59325 0.80127 0.0
H551 H 0.29889 0.5253 0.73104 0.0
C552 C 0.27029 0.5103 0.76587 0.0
C553 C 0.26221 0.51312 0.79575 0.0
C554 C 0.34505 0.58889 0.77924 0.0
C555 C 0.30643 0.54957 0.77181 0.0
C556 C 0.36948 0.60477 0.76918 0.0
C557 C 0.38104 0.59971 0.74079 0.0
C558 C 0.33178 0.56762 0.7609 0.0
C559 C 0.36704 0.57838 0.72298 0.0
C560 C 0.29238 0.52842 0.75385 0.0
C561 C 0.27586 0.53544 0.81249 0.0
N562 N 0.34321 0.56307 0.73336 0.0
N563 N 0.29734 0.5526 0.80036 0.0
H564 H 0.63325 0.07232 0.80926 0.0
H565 H 0.74599 0.0435 0.6758 0.0
H566 H 0.63531 0.12325 0.72859 0.0
H567 H 0.74779 0.99343 0.75695 0.0
H568 H 0.7082 0.07559 0.69702 0.0
H569 H 0.67701 0.04508 0.79234 0.0
C570 C 0.64284 0.07779 0.78802 0.0
C571 C 0.63031 0.09997 0.77023 0.0
C572 C 0.71706 0.05782 0.71038 0.0
C573 C 0.68057 0.06903 0.75084 0.0
C574 C 0.73879 0.03956 0.6983 0.0
C575 C 0.75004 0.01564 0.71454 0.0
C576 C 0.70614 0.05205 0.73889 0.0
C577 C 0.73987 0.01167 0.74364 0.0
C578 C 0.66791 0.0623 0.77842 0.0
C579 C 0.64393 0.10622 0.74301 0.0
N580 N 0.71822 0.02943 0.75474 0.0
N581 N 0.66814 0.0908 0.73417 0.0
H582 H 0.87876 0.88817 0.22365 0.0
H583 H 0.75971 0.01533 0.25616 0.0
H584 H 0.87458 0.93466 0.30692 0.0
H585 H 0.76746 0.96845 0.17343 0.0
H586 H 0.79867 0.9838 0.27696 0.0
H587 H 0.83597 0.91579 0.20651 0.0
C588 C 0.86895 0.9043 0.23838 0.0
C589 C 0.8806 0.90918 0.26678 0.0
C590 C 0.79158 0.98021 0.25438 0.0
C591 C 0.83096 0.94103 0.24711 0.0
C592 C 0.76912 0.99803 0.24255 0.0
C593 C 0.76029 0.99463 0.21292 0.0
C594 C 0.80527 0.9588 0.23649 0.0
C595 C 0.77359 0.97203 0.1963 0.0
C596 C 0.84432 0.92005 0.22854 0.0
C597 C 0.86656 0.93028 0.28479 0.0
N598 N 0.79545 0.9552 0.20822 0.0
N599 N 0.84254 0.94548 0.27464 0.0
H600 H 0.3378 0.23939 0.46893 0.0
H601 H 0.19433 0.15148 0.41329 0.0
H602 H 0.25165 0.25397 0.50743 0.0
H603 H 0.28439 0.12243 0.40063 0.0
H604 H 0.21296 0.19452 0.44095 0.0
H605 H 0.31621 0.20294 0.43572 0.0
C606 C 0.31421 0.23525 0.47016 0.0
C607 C 0.29661 0.24959 0.49134 0.0
C608 C 0.22854 0.17869 0.43201 0.0
C609 C 0.27171 0.20741 0.45329 0.0
C610 C 0.21796 0.15416 0.41624 0.0
C611 C 0.23782 0.13311 0.40486 0.0
C612 C 0.25918 0.18244 0.43591 0.0
C613 C 0.26821 0.13781 0.40926 0.0
C614 C 0.30192 0.21426 0.45124 0.0
C615 C 0.26609 0.24342 0.49154 0.0
N616 N 0.27789 0.16191 0.42432 0.0
N617 N 0.25462 0.22255 0.473 0.0
H618 H 0.30467 0.87517 0.93378 0.0
H619 H 0.16853 0.76694 0.96783 0.0
H620 H 0.22132 0.87702 0.88711 0.0
H621 H 0.25234 0.76083 0.01319 0.0
H622 H 0.18914 0.80517 0.93594 0.0
H623 H 0.28722 0.83216 0.96176 0.0
C624 C 0.28269 0.86665 0.92946 0.0
C625 C 0.26438 0.87999 0.90817 0.0
C626 C 0.2032 0.79531 0.95264 0.0
C627 C 0.24438 0.83053 0.93995 0.0
C628 C 0.19146 0.77333 0.97079 0.0
C629 C 0.20868 0.76066 0.9933 0.0
C630 C 0.23239 0.80507 0.95709 0.0
C631 C 0.23828 0.76985 0.99603 0.0
C632 C 0.2728 0.84198 0.94536 0.0
C633 C 0.23621 0.86772 0.90339 0.0
N634 N 0.2491 0.79174 0.97837 0.0
N635 N 0.22711 0.84383 0.91916 0.0
H636 H 0.75381 0.24722 0.50656 0.0
H637 H 0.78947 0.3807 0.61781 0.0
H638 H 0.84158 0.27574 0.53054 0.0
H639 H 0.70298 0.36733 0.57945 0.0
H640 H 0.80719 0.33699 0.592 0.0
H641 H 0.73313 0.28498 0.53997 0.0
C642 C 0.76867 0.26074 0.51963 0.0
C643 C 0.79942 0.2583 0.51605 0.0
C644 C 0.78432 0.34355 0.58917 0.0
C645 C 0.7761 0.30174 0.55357 0.0
C646 C 0.77414 0.36864 0.60388 0.0
C647 C 0.74471 0.37805 0.60058 0.0
C648 C 0.765 0.32739 0.57098 0.0
C649 C 0.72594 0.36116 0.58238 0.0
C650 C 0.7569 0.28255 0.53831 0.0
C651 C 0.81774 0.27685 0.53283 0.0
N652 N 0.7364 0.33668 0.56821 0.0
N653 N 0.80584 0.29782 0.5507 0.0
H654 H 0.72088 0.62783 0.11944 0.0
H655 H 0.75609 0.76024 0.0069 0.0
H656 H 0.80692 0.64 0.07987 0.0
H657 H 0.66841 0.73222 0.03153 0.0
H658 H 0.7769 0.72254 0.04033 0.0
H659 H 0.70316 0.67139 0.09339 0.0
C660 C 0.73612 0.63959 0.10519 0.0
C661 C 0.76543 0.62988 0.10165 0.0
C662 C 0.75312 0.72509 0.03883 0.0
C663 C 0.74512 0.68041 0.07176 0.0
C664 C 0.74128 0.74688 0.02015 0.0
C665 C 0.71051 0.74948 0.01678 0.0
C666 C 0.73397 0.70604 0.05429 0.0
C667 C 0.69226 0.73105 0.03373 0.0
C668 C 0.72594 0.66461 0.09034 0.0
C669 C 0.78407 0.6464 0.08302 0.0
N670 N 0.70422 0.7101 0.05159 0.0
N671 N 0.7736 0.67083 0.06873 0.0
H672 H 0.41386 0.19237 0.15554 0.0
H673 H 0.47198 0.33787 0.23855 0.0
H674 H 0.40134 0.28159 0.12424 0.0
H675 H 0.50838 0.25155 0.25669 0.0
H676 H 0.43843 0.31569 0.20272 0.0
H677 H 0.44202 0.21201 0.19788 0.0
C678 C 0.41693 0.21602 0.15758 0.0
C679 C 0.40547 0.23532 0.13609 0.0
C680 C 0.45358 0.30151 0.21467 0.0
C681 C 0.43713 0.25786 0.18459 0.0
C682 C 0.47271 0.31416 0.23531 0.0
C683 C 0.49338 0.29665 0.25052 0.0
C684 C 0.4549 0.27102 0.20903 0.0
C685 C 0.49293 0.26596 0.24544 0.0
C686 C 0.433 0.22719 0.18172 0.0
C687 C 0.41003 0.26579 0.13998 0.0
N688 N 0.47419 0.25413 0.22493 0.0
N689 N 0.4254 0.27603 0.16366 0.0
H690 H 0.93333 0.30614 0.87231 0.0
H691 H 0.96793 0.16773 0.76717 0.0
H692 H 0.88662 0.22296 0.87565 0.0
H693 H 0.01102 0.25224 0.75714 0.0
H694 H 0.93627 0.18895 0.8053 0.0
H695 H 0.96109 0.28795 0.82934 0.0
C696 C 0.92893 0.28408 0.86411 0.0
C697 C 0.9077 0.26603 0.87789 0.0
C698 C 0.95242 0.20301 0.7946 0.0
C699 C 0.93925 0.24515 0.82853 0.0
C700 C 0.97046 0.1909 0.77268 0.0
C701 C 0.99228 0.20815 0.75891 0.0
C702 C 0.95631 0.23261 0.80323 0.0
C703 C 0.99444 0.2381 0.76703 0.0
C704 C 0.94469 0.27376 0.83948 0.0
C705 C 0.90283 0.2377 0.86602 0.0
N706 N 0.97694 0.24928 0.78888 0.0
N707 N 0.91849 0.22819 0.84222 0.0
H708 H 0.53859 0.83653 0.2662 0.0
H709 H 0.59393 0.69271 0.35354 0.0
H710 H 0.5017 0.75012 0.24941 0.0
H711 H 0.60637 0.7826 0.38299 0.0
H712 H 0.56691 0.71146 0.31009 0.0
H713 H 0.57153 0.8149 0.30287 0.0
C714 C 0.53765 0.8129 0.26993 0.0
C715 C 0.517 0.79521 0.25489 0.0
C716 C 0.57567 0.72697 0.3261 0.0
C717 C 0.55471 0.77024 0.29733 0.0
C718 C 0.59108 0.71632 0.35086 0.0
C719 C 0.60216 0.73609 0.37214 0.0
C720 C 0.57185 0.75759 0.32241 0.0
C721 C 0.59793 0.76647 0.36744 0.0
C722 C 0.55642 0.80057 0.29103 0.0
C723 C 0.51716 0.76463 0.26053 0.0
N724 N 0.58321 0.77621 0.34317 0.0
N725 N 0.53551 0.75312 0.28154 0.0
H726 H 0.10965 0.72482 0.62024 0.0
H727 H 1.00056 0.75671 0.75449 0.0
H728 H 0.09267 0.81373 0.65037 0.0
H729 H 0.03901 0.67144 0.73558 0.0
H730 H 0.03383 0.77901 0.71782 0.0
H731 H 0.08288 0.70572 0.66264 0.0
C732 C 0.10019 0.74041 0.63577 0.0
C733 C 0.10321 0.77099 0.63149 0.0
C734 C 0.03522 0.7555 0.72206 0.0
C735 C 0.07227 0.74904 0.68057 0.0
C736 C 0.01633 0.74274 0.7431 0.0
C737 C 0.01671 0.71204 0.74799 0.0
C738 C 0.05444 0.73739 0.70569 0.0
C739 C 0.03759 0.69512 0.73242 0.0
C740 C 0.08502 0.72943 0.66018 0.0
C741 C 0.09077 0.79 0.65272 0.0
N742 N 0.05527 0.70793 0.71183 0.0
N743 N 0.07556 0.77872 0.67622 0.0
H744 H 0.87479 0.57421 0.80473 0.0
H745 H 0.76729 0.54037 0.66813 0.0
H746 H 0.87904 0.61884 0.72049 0.0
H747 H 0.75694 0.49908 0.75349 0.0
H748 H 0.80599 0.57178 0.68859 0.0
H749 H 0.83053 0.5478 0.78764 0.0
C750 C 0.86655 0.57838 0.78263 0.0
C751 C 0.88092 0.59863 0.76396 0.0
C752 C 0.79512 0.55607 0.703 0.0
C753 C 0.83007 0.56872 0.74439 0.0
C754 C 0.77284 0.53819 0.69133 0.0
C755 C 0.75905 0.5167 0.70897 0.0
C756 C 0.80401 0.55239 0.73254 0.0
C757 C 0.7671 0.51514 0.73897 0.0
C758 C 0.84116 0.56343 0.77296 0.0
C759 C 0.86895 0.60334 0.73566 0.0
N760 N 0.78935 0.53242 0.7497 0.0
N761 N 0.84439 0.58848 0.72678 0.0
H762 H 0.63357 0.38627 0.22487 0.0
H763 H 0.75054 0.51557 0.25678 0.0
H764 H 0.63544 0.43501 0.30693 0.0
H765 H 0.74386 0.46769 0.17453 0.0
H766 H 0.71195 0.48367 0.2777 0.0
H767 H 0.67651 0.41382 0.20804 0.0
C768 C 0.64292 0.40287 0.2394 0.0
C769 C 0.63055 0.40843 0.26734 0.0
C770 C 0.71922 0.47993 0.25521 0.0
C771 C 0.68034 0.44021 0.24804 0.0
C772 C 0.74147 0.49796 0.24332 0.0
C773 C 0.75045 0.49438 0.21378 0.0
C774 C 0.70592 0.45813 0.23746 0.0
C775 C 0.73758 0.4714 0.19733 0.0
C776 C 0.66762 0.41858 0.22975 0.0
C777 C 0.64402 0.43009 0.28515 0.0
N778 N 0.71592 0.45436 0.2093 0.0
N779 N 0.66813 0.44526 0.27517 0.0
H780 H 0.37931 0.88453 0.28173 0.0
H781 H 0.24957 1.00117 0.25089 0.0
H782 H 0.36949 0.92821 0.19741 0.0
H783 H 0.27852 0.97371 0.33739 0.0
H784 H 0.28672 0.96799 0.22866 0.0
H785 H 0.3364 0.91096 0.30001 0.0
C786 C 0.36819 0.89975 0.26695 0.0
C787 C 0.3784 0.90431 0.23797 0.0
C788 C 0.28451 0.96887 0.25248 0.0
C789 C 0.32858 0.93479 0.25905 0.0
C790 C 0.26306 0.98742 0.26512 0.0
C791 C 0.26087 0.98987 0.29599 0.0
C792 C 0.30353 0.95257 0.27092 0.0
C793 C 0.2794 0.97227 0.3135 0.0
C794 C 0.34353 0.91485 0.27749 0.0
C795 C 0.36265 0.92421 0.21999 0.0
N796 N 0.29994 0.95449 0.30076 0.0
N797 N 0.33853 0.9388 0.23084 0.0
H798 H 0.24619 0.04181 0.83139 0.0
H799 H 0.13253 0.07138 0.69872 0.0
H800 H 0.24635 0.99081 0.75078 0.0
H801 H 0.13602 0.12248 0.77928 0.0
H802 H 0.17605 0.04356 0.71538 0.0
H803 H 0.20867 0.07422 0.81024 0.0
C804 C 0.23867 0.03772 0.80901 0.0
C805 C 0.2494 0.01348 0.7929 0.0
C806 C 0.16731 0.06094 0.72932 0.0
C807 C 0.20576 0.05028 0.76863 0.0
C808 C 0.14238 0.07677 0.71988 0.0
C809 C 0.13032 0.09917 0.73772 0.0
C810 C 0.18031 0.06756 0.75679 0.0
C811 C 0.14426 0.10529 0.76482 0.0
C812 C 0.21709 0.05618 0.79696 0.0
C813 C 0.23884 0.00933 0.76395 0.0
N814 N 0.16834 0.08955 0.77351 0.0
N815 N 0.21732 0.02731 0.75287 0.0
H816 H 0.71772 0.88441 0.6179 0.0
H817 H 0.75249 0.74881 0.50921 0.0
H818 H 0.80458 0.86913 0.58124 0.0
H819 H 0.66495 0.77927 0.5314 0.0
H820 H 0.77344 0.78686 0.54216 0.0
H821 H 0.69958 0.84091 0.59212 0.0
C822 C 0.73304 0.87199 0.60432 0.0
C823 C 0.76273 0.88076 0.60155 0.0
C824 C 0.74965 0.7848 0.5402 0.0
C825 C 0.74192 0.83031 0.57198 0.0
C826 C 0.73771 0.76284 0.5218 0.0
C827 C 0.70697 0.76085 0.51785 0.0
C828 C 0.7306 0.8046 0.55481 0.0
C829 C 0.68877 0.78003 0.534 0.0
C830 C 0.72262 0.847 0.58962 0.0
C831 C 0.78145 0.86344 0.58375 0.0
N832 N 0.70083 0.80113 0.55161 0.0
N833 N 0.77073 0.83903 0.5696 0.0
H834 H 0.83525 0.24237 0.04 0.0
H835 H 0.70012 0.13208 0.07241 0.0
H836 H 0.75265 0.24642 0.99228 0.0
H837 H 0.78346 0.13106 0.11913 0.0
H838 H 0.71727 0.17528 0.04437 0.0
H839 H 0.81457 0.20391 0.07154 0.0
C840 C 0.81255 0.23548 0.03644 0.0
C841 C 0.79572 0.24767 0.01339 0.0
C842 C 0.73173 0.16557 0.0608 0.0
C843 C 0.77192 0.20293 0.04922 0.0
C844 C 0.72201 0.14081 0.07674 0.0
C845 C 0.74042 0.12765 0.09807 0.0
C846 C 0.76005 0.17731 0.06625 0.0
C847 C 0.76849 0.14019 0.10283 0.0
C848 C 0.80077 0.21335 0.0544 0.0
C849 C 0.7664 0.23781 0.00989 0.0
N850 N 0.77738 0.16415 0.08708 0.0
N851 N 0.75554 0.21579 0.02738 0.0
H852 H 0.25688 0.75988 0.49972 0.0
H853 H 0.22155 0.62918 0.38528 0.0
H854 H 0.16935 0.7345 0.47171 0.0
H855 H 0.3068 0.63921 0.4273 0.0
H856 H 0.20436 0.67333 0.4106 0.0
H857 H 0.27779 0.7222 0.46637 0.0
C858 C 0.24218 0.74711 0.48575 0.0
C859 C 0.2114 0.75037 0.48816 0.0
C860 C 0.22685 0.66596 0.41433 0.0
C861 C 0.23492 0.70702 0.45074 0.0
C862 C 0.23672 0.6406 0.3999 0.0
C863 C 0.26564 0.6301 0.40439 0.0
C864 C 0.24593 0.68127 0.43346 0.0
C865 C 0.28424 0.64623 0.42343 0.0
C866 C 0.25405 0.72534 0.4671 0.0
C867 C 0.19322 0.73275 0.47029 0.0
N868 N 0.27404 0.67097 0.43735 0.0
N869 N 0.20521 0.71178 0.45249 0.0
H870 H 0.25265 0.24717 1.00233 0.0
H871 H 0.28913 0.37822 0.88883 0.0
H872 H 0.34048 0.27304 0.97589 0.0
H873 H 0.20315 0.36763 0.92905 0.0
H874 H 0.3062 0.33433 0.91462 0.0
H875 H 0.23208 0.28494 0.96886 0.0
C876 C 0.26751 0.26008 0.98869 0.0
C877 C 0.29826 0.25691 0.99157 0.0
C878 C 0.28358 0.34153 0.91788 0.0
C879 C 0.27511 0.30037 0.95403 0.0
C880 C 0.27377 0.36674 0.90317 0.0
C881 C 0.24468 0.37699 0.90698 0.0
C882 C 0.26425 0.3261 0.93661 0.0
C883 C 0.22586 0.3608 0.92571 0.0
C884 C 0.25582 0.2819 0.96998 0.0
C885 C 0.31663 0.27471 0.9741 0.0
N886 N 0.23599 0.33618 0.9399 0.0
N887 N 0.30481 0.29572 0.95624 0.0
H888 H 0.54073 0.67057 0.76424 0.0
H889 H 0.59494 0.81422 0.85292 0.0
H890 H 0.50179 0.75655 0.7502 0.0
H891 H 0.61189 0.7242 0.87949 0.0
H892 H 0.56736 0.79551 0.80983 0.0
H893 H 0.57452 0.69225 0.80016 0.0
C894 C 0.53951 0.69412 0.76837 0.0
C895 C 0.51803 0.71164 0.75435 0.0
C896 C 0.57726 0.77995 0.8251 0.0
C897 C 0.55674 0.73667 0.79596 0.0
C898 C 0.593 0.79059 0.84966 0.0
C899 C 0.60548 0.77076 0.87008 0.0
C900 C 0.57444 0.7493 0.82071 0.0
C901 C 0.60236 0.74036 0.86463 0.0
C902 C 0.55878 0.70648 0.78906 0.0
C903 C 0.51786 0.74213 0.76053 0.0
N904 N 0.58722 0.73064 0.84057 0.0
N905 N 0.5367 0.75364 0.78111 0.0
H906 H 0.04136 0.83491 0.24569 0.0
H907 H 0.07224 0.70055 0.13451 0.0
H908 H 0.99426 0.75206 0.25036 0.0
H909 H 0.121 0.78261 0.1348 0.0
H910 H 0.04504 0.7174 0.17834 0.0
H911 H 0.07318 0.81412 0.20752 0.0
C912 C 0.03798 0.81215 0.23901 0.0
C913 C 0.01487 0.79534 0.25115 0.0
C914 C 0.06177 0.73164 0.16881 0.0
C915 C 0.05106 0.77142 0.20676 0.0
C916 C 0.07722 0.72209 0.1437 0.0
C917 C 0.09882 0.74025 0.13067 0.0
C918 C 0.06793 0.75957 0.18102 0.0
C919 C 0.10445 0.76786 0.1438 0.0
C920 C 0.05611 0.8003 0.21704 0.0
C921 C 0.01174 0.7659 0.24164 0.0
N922 N 0.08908 0.77664 0.16807 0.0
N923 N 0.02934 0.75501 0.21973 0.0
H924 H 0.50961 0.25259 0.75314 0.0
H925 H 0.38618 0.22093 0.62988 0.0
H926 H 0.46869 0.16765 0.73834 0.0
H927 H 0.4332 0.30381 0.63587 0.0
H928 H 0.41321 0.20303 0.67271 0.0
H929 H 0.47825 0.2737 0.71428 0.0
C930 C 0.49364 0.23848 0.74217 0.0
C931 C 0.49189 0.20821 0.74902 0.0
C932 C 0.4177 0.22514 0.66474 0.0
C933 C 0.45621 0.23223 0.7042 0.0
C934 C 0.40227 0.23544 0.64012 0.0
C935 C 0.40751 0.26394 0.62894 0.0
C936 C 0.43866 0.24337 0.67861 0.0
C937 C 0.42856 0.28163 0.64351 0.0
C938 C 0.47594 0.25052 0.71978 0.0
C939 C 0.47096 0.19103 0.73378 0.0
N940 N 0.4434 0.27104 0.66756 0.0
N941 N 0.45413 0.20323 0.71206 0.0
H942 H 0.89839 0.28133 0.3814 0.0
H943 H 0.01004 0.24739 0.25027 0.0
H944 H 0.91611 0.19185 0.35353 0.0
H945 H 0.96874 0.33219 0.26476 0.0
H946 H 0.97616 0.22553 0.28665 0.0
H947 H 0.92515 0.29957 0.33856 0.0
C948 C 0.90799 0.26545 0.36626 0.0
C949 C 0.90522 0.23498 0.37128 0.0
C950 C 0.97427 0.24881 0.28146 0.0
C951 C 0.93613 0.25588 0.32179 0.0
C952 C 0.9935 0.2613 0.26058 0.0
C953 C 0.99251 0.2918 0.25464 0.0
C954 C 0.95413 0.267 0.29659 0.0
C955 C 0.97066 0.30869 0.26883 0.0
C956 C 0.92314 0.27592 0.34161 0.0
C957 C 0.91781 0.21552 0.35057 0.0
N958 N 0.95268 0.29617 0.28933 0.0
N959 N 0.93305 0.2263 0.32686 0.0
H960 H 0.12629 0.13811 0.34472 0.0
H961 H 0.14845 0.28257 0.24549 0.0
H962 H 0.19114 0.14723 0.27526 0.0
H963 H 0.07035 0.26848 0.29828 0.0
H964 H 0.1697 0.23718 0.26528 0.0
H965 H 0.10949 0.18866 0.33485 0.0
C966 C 0.13694 0.15065 0.32733 0.0
C967 C 0.16008 0.13826 0.31065 0.0
C968 C 0.14814 0.2442 0.27303 0.0
C969 C 0.14135 0.19629 0.29978 0.0
C970 C 0.1362 0.27031 0.26204 0.0
C971 C 0.10767 0.2792 0.27033 0.0
C972 C 0.13132 0.22659 0.29223 0.0
C973 C 0.09256 0.26247 0.2916 0.0
C974 C 0.12742 0.17954 0.32186 0.0
C975 C 0.17315 0.15569 0.28858 0.0
N976 N 0.10439 0.23659 0.30151 0.0
N977 N 0.16365 0.18375 0.28386 0.0
H978 H 0.31796 0.83954 0.84492 0.0
H979 H 0.45108 0.74536 0.78256 0.0
H980 H 0.38609 0.88024 0.79207 0.0
H981 H 0.36167 0.71677 0.76583 0.0
H982 H 0.43174 0.79149 0.80388 0.0
H983 H 0.33805 0.79063 0.83214 0.0
C984 C 0.33727 0.83811 0.8308 0.0
C985 C 0.35039 0.86376 0.81933 0.0
C986 C 0.41645 0.77469 0.79624 0.0
C987 C 0.37379 0.80844 0.80568 0.0
C988 C 0.42737 0.74833 0.78453 0.0
C989 C 0.4078 0.72726 0.77296 0.0
C990 C 0.38582 0.77952 0.7969 0.0
C991 C 0.37731 0.73241 0.77503 0.0
C992 C 0.34861 0.81035 0.82359 0.0
C993 C 0.37527 0.86089 0.8011 0.0
N994 N 0.36715 0.75812 0.78684 0.0
N995 N 0.38641 0.83363 0.79502 0.0
H996 H 0.67327 0.34096 0.65225 0.0
H997 H 0.56836 0.26059 0.76868 0.0
H998 H 0.63747 0.38229 0.73049 0.0
H999 H 0.62705 0.21081 0.71247 0.0
H1000 H 0.58656 0.30624 0.74703 0.0
H1001 H 0.65095 0.29395 0.66755 0.0
C1002 C 0.66061 0.34018 0.67257 0.0
C1003 C 0.65715 0.3656 0.69016 0.0
C1004 C 0.59542 0.28542 0.7392 0.0
C1005 C 0.63149 0.31213 0.70742 0.0
C1006 C 0.58492 0.25937 0.75141 0.0
C1007 C 0.59651 0.23208 0.74245 0.0
C1008 C 0.61782 0.28433 0.71786 0.0
C1009 C 0.61768 0.23155 0.71987 0.0
C1010 C 0.648 0.31336 0.68125 0.0
C1011 C 0.64077 0.36329 0.71631 0.0
N1012 N 0.62797 0.25749 0.70842 0.0
N1013 N 0.62845 0.33707 0.72405 0.0
H1014 H 0.81518 0.66592 0.16881 0.0
H1015 H 0.94833 0.76737 0.21862 0.0
H1016 H 0.89186 0.62816 0.21115 0.0
H1017 H 0.85964 0.78873 0.24624 0.0
H1018 H 0.92994 0.72051 0.19798 0.0
H1019 H 0.8335 0.71559 0.18112 0.0
C1020 C 0.83593 0.6682 0.18063 0.0
C1021 C 0.85204 0.64316 0.18927 0.0
C1022 C 0.9145 0.73592 0.20788 0.0
C1023 C 0.8734 0.69941 0.2022 0.0
C1024 C 0.92483 0.76271 0.2192 0.0
C1025 C 0.90531 0.78187 0.23376 0.0
C1026 C 0.88443 0.72883 0.21057 0.0
C1027 C 0.87519 0.77459 0.23477 0.0
C1028 C 0.84629 0.69638 0.18751 0.0
C1029 C 0.87877 0.64705 0.20445 0.0
N1030 N 0.86558 0.74854 0.22329 0.0
N1031 N 0.88885 0.67481 0.21023 0.0
H1032 H 0.3108 0.07579 0.27777 0.0
H1033 H 0.27115 0.18639 0.14776 0.0
H1034 H 0.24627 0.14522 0.286 0.0
H1035 H 0.34893 0.131 0.14625 0.0
H1036 H 0.26309 0.1727 0.19927 0.0
H1037 H 0.32844 0.09819 0.23172 0.0
C1038 C 0.30138 0.0966 0.27055 0.0
C1039 C 0.27751 0.10911 0.28582 0.0
C1040 C 0.28202 0.16364 0.18773 0.0
C1041 C 0.29614 0.1338 0.23244 0.0
C1042 C 0.28653 0.17131 0.1582 0.0
C1043 C 0.31073 0.15981 0.14252 0.0
C1044 C 0.30163 0.14402 0.20173 0.0
C1045 C 0.32984 0.14026 0.15733 0.0
C1046 C 0.31104 0.1091 0.24402 0.0
C1047 C 0.26511 0.13532 0.27502 0.0
N1048 N 0.32479 0.13287 0.18602 0.0
N1049 N 0.27421 0.14655 0.2487 0.0
H1050 H 0.26134 0.85917 0.78221 0.0
H1051 H 0.15962 0.88125 0.63922 0.0
H1052 H 0.20771 0.93702 0.77026 0.0
H1053 H 0.23491 0.82273 0.64437 0.0
H1054 H 0.16956 0.89732 0.69011 0.0
H1055 H 0.24204 0.83923 0.73596 0.0
C1056 C 0.24471 0.87163 0.77024 0.0
C1057 C 0.23606 0.89973 0.78 0.0
C1058 C 0.18379 0.88092 0.68002 0.0
C1059 C 0.21467 0.87755 0.72645 0.0
C1060 C 0.17828 0.87183 0.65094 0.0
C1061 C 0.19646 0.85052 0.6374 0.0
C1062 C 0.20737 0.86832 0.6958 0.0
C1063 C 0.22019 0.83904 0.6538 0.0
C1064 C 0.23402 0.86044 0.74364 0.0
C1065 C 0.21466 0.91511 0.76359 0.0
N1066 N 0.22484 0.84798 0.68208 0.0
N1067 N 0.20498 0.904 0.73726 0.0
H1068 H 0.7683 0.36144 0.71566 0.0
H1069 H 0.78989 0.38772 0.88338 0.0
H1070 H 0.78243 0.45029 0.74678 0.0
H1071 H 0.84434 0.32156 0.84156 0.0
H1072 H 0.77789 0.40785 0.83417 0.0
H1073 H 0.78928 0.3425 0.76223 0.0
C1074 C 0.77675 0.37687 0.73194 0.0
C1075 C 0.77436 0.40738 0.72735 0.0
C1076 C 0.79254 0.38898 0.83595 0.0
C1077 C 0.79628 0.38613 0.78085 0.0
C1078 C 0.79913 0.37741 0.86385 0.0
C1079 C 0.81813 0.35309 0.86634 0.0
C1080 C 0.80427 0.37546 0.81058 0.0
C1081 C 0.82972 0.3405 0.84043 0.0
C1082 C 0.78837 0.36613 0.75848 0.0
C1083 C 0.78455 0.42662 0.74942 0.0
N1084 N 0.82228 0.35157 0.81352 0.0
N1085 N 0.7945 0.4157 0.77558 0.0
H1086 H 0.70869 0.57173 0.23543 0.0
H1087 H 0.73755 0.68661 0.36513 0.0
H1088 H 0.76712 0.64675 0.22866 0.0
H1089 H 0.66117 0.62924 0.36541 0.0
H1090 H 0.74862 0.67075 0.31501 0.0
H1091 H 0.68899 0.59216 0.28185 0.0
C1092 C 0.71655 0.593 0.24314 0.0
C1093 C 0.73957 0.60761 0.22834 0.0
C1094 C 0.72935 0.66166 0.32593 0.0
C1095 C 0.71807 0.63043 0.28157 0.0
C1096 C 0.72309 0.67062 0.3547 0.0
C1097 C 0.69832 0.65936 0.36959 0.0
C1098 C 0.71097 0.64093 0.31184 0.0
C1099 C 0.68056 0.63847 0.35484 0.0
C1100 C 0.70562 0.60445 0.26979 0.0
C1101 C 0.74946 0.63477 0.23954 0.0
N1102 N 0.6873 0.62981 0.3268 0.0
N1103 N 0.73899 0.64506 0.26565 0.0
H1104 H 0.2828 0.23907 0.14498 0.0
H1105 H 0.15634 0.36213 0.14311 0.0
H1106 H 0.28283 0.31081 0.08256 0.0
H1107 H 0.14277 0.27245 0.1726 0.0
H1108 H 0.20751 0.34964 0.13029 0.0
H1109 H 0.23715 0.25851 0.16676 0.0
C1110 C 0.27378 0.25966 0.13676 0.0
C1111 C 0.28656 0.27365 0.11232 0.0
C1112 C 0.19328 0.33276 0.13957 0.0
C1113 C 0.23415 0.29543 0.13624 0.0
C1114 C 0.1641 0.33978 0.14676 0.0
C1115 C 0.1452 0.31814 0.15855 0.0
C1116 C 0.2038 0.3041 0.1448 0.0
C1117 C 0.15645 0.28963 0.16308 0.0
C1118 C 0.24757 0.27047 0.14883 0.0
C1119 C 0.27383 0.29984 0.10183 0.0
N1120 N 0.1851 0.28346 0.15631 0.0
N1121 N 0.24803 0.3098 0.11369 0.0
H1122 H 0.77906 0.20307 0.93204 0.0
H1123 H 0.63204 0.23554 0.84383 0.0
H1124 H 0.77217 0.27072 0.86516 0.0
H1125 H 0.65254 0.14621 0.8703 0.0
H1126 H 0.682 0.25052 0.85813 0.0
H1127 H 0.73232 0.18163 0.91394 0.0
C1128 C 0.76826 0.21282 0.91301 0.0
C1129 C 0.77928 0.23885 0.90023 0.0
C1130 C 0.67553 0.22763 0.86084 0.0
C1131 C 0.72576 0.2153 0.88037 0.0
C1132 C 0.64693 0.21917 0.85302 0.0
C1133 C 0.63815 0.18964 0.85594 0.0
C1134 C 0.69535 0.20653 0.87212 0.0
C1135 C 0.6585 0.16923 0.86766 0.0
C1136 C 0.74149 0.20081 0.90294 0.0
C1137 C 0.76421 0.25085 0.87588 0.0
N1138 N 0.68618 0.17809 0.87552 0.0
N1139 N 0.73797 0.23933 0.86713 0.0
H1140 H 0.72446 0.73913 0.36523 0.0
H1141 H 0.85057 0.86283 0.36357 0.0
H1142 H 0.72443 0.81269 0.42555 0.0
H1143 H 0.86415 0.77296 0.33462 0.0
H1144 H 0.79969 0.8502 0.37727 0.0
H1145 H 0.77014 0.75793 0.3429 0.0
C1146 C 0.7335 0.75994 0.37288 0.0
C1147 C 0.72063 0.77468 0.39685 0.0
C1148 C 0.81384 0.8333 0.36789 0.0
C1149 C 0.77314 0.79578 0.37228 0.0
C1150 C 0.84287 0.84041 0.36016 0.0
C1151 C 0.86174 0.81878 0.34825 0.0
C1152 C 0.80337 0.80451 0.36314 0.0
C1153 C 0.85052 0.79017 0.34415 0.0
C1154 C 0.75974 0.77039 0.3605 0.0
C1155 C 0.73345 0.80113 0.40662 0.0
N1156 N 0.82201 0.78389 0.35147 0.0
N1157 N 0.75924 0.81077 0.39445 0.0
H1158 H 0.35227 0.6457 0.64244 0.0
H1159 H 0.22682 0.77002 0.6411 0.0
H1160 H 0.36621 0.73538 0.67186 0.0
H1161 H 0.22621 0.69683 0.58036 0.0
H1162 H 0.27242 0.75087 0.66329 0.0
H1163 H 0.30153 0.65867 0.62844 0.0
C1164 C 0.34469 0.66815 0.64588 0.0
C1165 C 0.36362 0.68962 0.65805 0.0
C1166 C 0.26192 0.73856 0.64561 0.0
C1167 C 0.30538 0.70426 0.64281 0.0
C1168 C 0.23571 0.74922 0.63331 0.0
C1169 C 0.22268 0.73469 0.60926 0.0
C1170 C 0.27516 0.71318 0.63368 0.0
C1171 C 0.23533 0.70823 0.59935 0.0
C1172 C 0.31572 0.67545 0.63797 0.0
C1173 C 0.35253 0.71827 0.66217 0.0
N1174 N 0.26112 0.69839 0.61144 0.0
N1175 N 0.32409 0.72473 0.65469 0.0
H1176 H 0.83373 0.86625 0.73584 0.0
H1177 H 0.93389 0.72883 0.70093 0.0
H1178 H 0.86479 0.85237 0.64672 0.0
H1179 H 0.86379 0.72682 0.76559 0.0
H1180 H 0.91208 0.77413 0.67996 0.0
H1181 H 0.84965 0.81621 0.7485 0.0
C1182 C 0.84414 0.85274 0.71903 0.0
C1183 C 0.84809 0.86345 0.69027 0.0
C1184 C 0.90117 0.76325 0.69828 0.0
C1185 C 0.86624 0.80622 0.70451 0.0
C1186 C 0.91339 0.73729 0.71 0.0
C1187 C 0.90073 0.72433 0.73516 0.0
C1188 C 0.87656 0.7762 0.71221 0.0
C1189 C 0.87442 0.73639 0.74638 0.0
C1190 C 0.85291 0.8241 0.72614 0.0
C1191 C 0.86137 0.84486 0.66918 0.0
N1192 N 0.86356 0.76195 0.73523 0.0
N1193 N 0.87028 0.81716 0.67678 0.0
H1194 H 0.67291 0.13966 0.23509 0.0
H1195 H 0.57555 0.27966 0.20287 0.0
H1196 H 0.64057 0.15502 0.14661 0.0
H1197 H 0.64635 0.2792 0.26691 0.0
H1198 H 0.59608 0.23418 0.18106 0.0
H1199 H 0.6584 0.18992 0.24847 0.0
C1200 C 0.66246 0.15354 0.21858 0.0
C1201 C 0.65775 0.14319 0.1898 0.0
C1202 C 0.60744 0.24456 0.19942 0.0
C1203 C 0.64128 0.20068 0.20483 0.0
C1204 C 0.59595 0.27061 0.21162 0.0
C1205 C 0.60916 0.2829 0.23686 0.0
C1206 C 0.63186 0.23086 0.21296 0.0
C1207 C 0.63532 0.27014 0.24766 0.0
C1208 C 0.65453 0.1823 0.22609 0.0
C1209 C 0.64453 0.16224 0.16909 0.0
N1210 N 0.64546 0.24449 0.23605 0.0
N1211 N 0.63645 0.19008 0.17708 0.0
H1212 H 0.36607 0.77292 0.23027 0.0
H1213 H 0.36706 0.65326 0.35896 0.0
H1214 H 0.43099 0.77665 0.30018 0.0
H1215 H 0.3383 0.63558 0.26966 0.0
H1216 H 0.38289 0.70279 0.34352 0.0
H1217 H 0.34587 0.72792 0.25183 0.0
C1218 C 0.37563 0.7646 0.25061 0.0
C1219 C 0.40047 0.77826 0.2633 0.0
C1220 C 0.37318 0.68797 0.32739 0.0
C1221 C 0.37768 0.72656 0.28778 0.0
C1222 C 0.3642 0.65976 0.33608 0.0
C1223 C 0.35151 0.64026 0.31545 0.0
C1224 C 0.36877 0.69689 0.29807 0.0
C1225 C 0.34825 0.64978 0.28618 0.0
C1226 C 0.36427 0.73879 0.26271 0.0
C1227 C 0.41182 0.76675 0.28977 0.0
N1228 N 0.35662 0.67753 0.27841 0.0
N1229 N 0.40053 0.74119 0.30103 0.0
H1230 H 0.06812 0.25981 0.74025 0.0
H1231 H 0.17242 0.34194 0.85628 0.0
H1232 H 0.12772 0.21124 0.79663 0.0
H1233 H 0.13538 0.38284 0.77839 0.0
H1234 H 0.15039 0.29473 0.84125 0.0
H1235 H 0.08547 0.30584 0.76188 0.0
C1236 C 0.08466 0.25892 0.75759 0.0
C1237 C 0.09674 0.23186 0.76661 0.0
C1238 C 0.14707 0.31409 0.82758 0.0
C1239 C 0.11711 0.28457 0.79113 0.0
C1240 C 0.1595 0.34104 0.83612 0.0
C1241 C 0.15565 0.36639 0.81853 0.0
C1242 C 0.13034 0.31263 0.80153 0.0
C1243 C 0.13896 0.3639 0.79256 0.0
C1244 C 0.09468 0.2852 0.76977 0.0
C1245 C 0.11794 0.23178 0.78919 0.0
N1246 N 0.12684 0.33753 0.78492 0.0
N1247 N 0.12776 0.25793 0.80061 0.0
H1248 H 0.7135 0.80789 0.85191 0.0
H1249 H 0.70901 0.94329 0.73862 0.0
H1250 H 0.67611 0.89258 0.87407 0.0
H1251 H 0.75396 0.86081 0.7228 0.0
H1252 H 0.68849 0.92263 0.7845 0.0
H1253 H 0.72186 0.82493 0.80169 0.0
C1254 C 0.70778 0.83037 0.8464 0.0
C1255 C 0.69534 0.84923 0.86754 0.0
C1256 C 0.70223 0.90883 0.77059 0.0
C1257 C 0.70361 0.86874 0.80945 0.0
C1258 C 0.71353 0.92045 0.74422 0.0
C1259 C 0.73304 0.90358 0.72701 0.0
C1260 C 0.71058 0.88024 0.77953 0.0
C1261 C 0.73889 0.87441 0.73551 0.0
C1262 C 0.71199 0.83996 0.81749 0.0
C1263 C 0.68637 0.87755 0.85854 0.0
N1264 N 0.72799 0.86379 0.76131 0.0
N1265 N 0.69095 0.8866 0.83019 0.0
H1266 H 0.7462 0.14825 0.22321 0.0
H1267 H 0.84886 0.12622 0.36539 0.0
H1268 H 0.80046 0.07074 0.23456 0.0
H1269 H 0.77289 0.18392 0.36108 0.0
H1270 H 0.83891 0.11049 0.31443 0.0
H1271 H 0.76581 0.16827 0.2693 0.0
C1272 C 0.76308 0.13593 0.23498 0.0
C1273 C 0.77179 0.10787 0.22514 0.0
C1274 C 0.82453 0.12664 0.32472 0.0
C1275 C 0.79348 0.13008 0.27849 0.0
C1276 C 0.83004 0.13552 0.35384 0.0
C1277 C 0.81169 0.15653 0.36761 0.0
C1278 C 0.80078 0.13915 0.30915 0.0
C1279 C 0.78776 0.16787 0.35144 0.0
C1280 C 0.77393 0.14714 0.26149 0.0
C1281 C 0.79346 0.09262 0.24129 0.0
N1282 N 0.78311 0.15914 0.3231 0.0
N1283 N 0.80328 0.10373 0.26755 0.0
H1284 H 0.22753 0.63099 0.12143 0.0
H1285 H 0.2091 0.62669 0.29588 0.0
H1286 H 0.15106 0.66932 0.16385 0.0
H1287 H 0.26099 0.56388 0.24649 0.0
H1288 H 0.18745 0.64444 0.24894 0.0
H1289 H 0.2417 0.60872 0.16853 0.0
C1290 C 0.21372 0.63467 0.14065 0.0
C1291 C 0.18807 0.6519 0.13873 0.0
C1292 C 0.20317 0.62639 0.24857 0.0
C1293 C 0.20418 0.6267 0.19273 0.0
C1294 C 0.21528 0.61621 0.27526 0.0
C1295 C 0.23672 0.59391 0.27477 0.0
C1296 C 0.21309 0.61429 0.22163 0.0
C1297 C 0.24449 0.58119 0.24762 0.0
C1298 C 0.22169 0.62184 0.16749 0.0
C1299 C 0.17094 0.65597 0.16437 0.0
N1300 N 0.23297 0.59178 0.22213 0.0
N1301 N 0.17942 0.64364 0.19042 0.0
H1302 H 0.24072 0.36217 0.77795 0.0
H1303 H 0.36291 0.36929 0.65185 0.0
H1304 H 0.30592 0.43183 0.77736 0.0
H1305 H 0.27407 0.33689 0.63854 0.0
H1306 H 0.34922 0.38467 0.70211 0.0
H1307 H 0.2615 0.34282 0.73215 0.0
C1308 C 0.25999 0.37291 0.76856 0.0
C1309 C 0.27148 0.3988 0.78123 0.0
C1310 C 0.3328 0.37428 0.68807 0.0
C1311 C 0.29496 0.37704 0.7286 0.0
C1312 C 0.34049 0.36558 0.65946 0.0
C1313 C 0.31945 0.35203 0.64099 0.0
C1314 C 0.30415 0.36864 0.69842 0.0
C1315 C 0.29081 0.34761 0.65191 0.0
C1316 C 0.27158 0.36205 0.74229 0.0
C1317 C 0.29651 0.41177 0.76829 0.0
N1318 N 0.28407 0.35566 0.68003 0.0
N1319 N 0.30727 0.40095 0.74231 0.0
H1320 H 0.84873 0.64325 0.85081 0.0
H1321 H 0.74399 0.78139 0.88035 0.0
H1322 H 0.874 0.73495 0.84296 0.0
H1323 H 0.71803 0.69334 0.90532 0.0
H1324 H 0.78733 0.76194 0.85615 0.0
H1325 H 0.7983 0.65877 0.86349 0.0
C1326 C 0.84374 0.66663 0.85189 0.0
C1327 C 0.86574 0.6879 0.84616 0.0
C1328 C 0.77199 0.74658 0.86626 0.0
C1329 C 0.80807 0.70559 0.85994 0.0
C1330 C 0.7467 0.75768 0.87942 0.0
C1331 C 0.72688 0.7389 0.89399 0.0
C1332 C 0.77834 0.71639 0.86853 0.0
C1333 C 0.73252 0.70844 0.89373 0.0
C1334 C 0.81493 0.6754 0.85896 0.0
C1335 C 0.85796 0.7178 0.84758 0.0
N1336 N 0.75817 0.69806 0.8816 0.0
N1337 N 0.82981 0.72569 0.85428 0.0
H1338 H 0.22752 0.80412 0.07522 0.0
H1339 H 0.37475 0.7696 0.16295 0.0
H1340 H 0.23425 0.73576 0.14137 0.0
H1341 H 0.3556 0.85879 0.13509 0.0
H1342 H 0.32451 0.75517 0.14901 0.0
H1343 H 0.27472 0.82479 0.09302 0.0
C1344 C 0.23839 0.79406 0.09405 0.0
C1345 C 0.22715 0.76808 0.10671 0.0
C1346 C 0.33134 0.7779 0.1459 0.0
C1347 C 0.28122 0.79074 0.12622 0.0
C1348 C 0.36011 0.78603 0.1535 0.0
C1349 C 0.36935 0.81536 0.15005 0.0
C1350 C 0.31181 0.79913 0.13432 0.0
C1351 C 0.34928 0.8359 0.13809 0.0
C1352 C 0.26543 0.80562 0.10393 0.0
C1353 C 0.24234 0.75564 0.13077 0.0
N1354 N 0.32143 0.82737 0.13046 0.0
N1355 N 0.26883 0.76674 0.13936 0.0
H1356 H 0.27538 0.26905 0.64271 0.0
H1357 H 0.15099 0.14511 0.63521 0.0
H1358 H 0.27683 0.20333 0.57359 0.0
H1359 H 0.13586 0.23396 0.66644 0.0
H1360 H 0.20102 0.15967 0.61971 0.0
H1361 H 0.22921 0.2482 0.66106 0.0
C1362 C 0.26633 0.24969 0.63185 0.0
C1363 C 0.27978 0.23805 0.60642 0.0
C1364 C 0.18662 0.17591 0.62984 0.0
C1365 C 0.22665 0.21441 0.62709 0.0
C1366 C 0.15813 0.16772 0.63862 0.0
C1367 C 0.13921 0.18847 0.65198 0.0
C1368 C 0.19644 0.20479 0.63518 0.0
C1369 C 0.14958 0.21738 0.65596 0.0
C1370 C 0.23983 0.23804 0.64214 0.0
C1371 C 0.2672 0.21287 0.59331 0.0
N1372 N 0.1776 0.2246 0.64787 0.0
N1373 N 0.24101 0.20201 0.60362 0.0
H1374 H 0.64014 0.27141 0.33661 0.0
H1375 H 0.7867 0.31193 0.42249 0.0
H1376 H 0.65882 0.36114 0.36314 0.0
H1377 H 0.77972 0.23646 0.365 0.0
H1378 H 0.74093 0.33185 0.4009 0.0
H1379 H 0.69113 0.25793 0.34884 0.0
C1380 C 0.65488 0.28818 0.34532 0.0
C1381 C 0.64518 0.31733 0.34916 0.0
C1382 C 0.7499 0.31135 0.39238 0.0
C1383 C 0.70358 0.30222 0.36285 0.0
C1384 C 0.77621 0.30029 0.40436 0.0
C1385 C 0.78696 0.27279 0.3951 0.0
C1386 C 0.73412 0.2943 0.37168 0.0
C1387 C 0.77209 0.25788 0.37241 0.0
C1388 C 0.68408 0.28059 0.35191 0.0
C1389 C 0.66539 0.33834 0.35999 0.0
N1390 N 0.7461 0.26852 0.36182 0.0
N1391 N 0.69358 0.33033 0.36671 0.0
H1392 H 0.03187 0.36111 0.10021 0.0
H1393 H 0.91583 0.25427 0.01834 0.0
H1394 H 1.00227 0.27832 0.13731 0.0
H1395 H 0.93304 0.34462 0.993 0.0
H1396 H 0.95194 0.25967 0.05875 0.0
H1397 H 1.00001 0.3525 0.05739 0.0
C1398 C 0.01879 0.34107 0.09933 0.0
C1399 C 0.01972 0.32051 0.12251 0.0
C1400 C 0.94784 0.27821 0.04418 0.0
C1401 C 0.98314 0.31043 0.07341 0.0
C1402 C 0.92739 0.27507 0.02106 0.0
C1403 C 0.92125 0.29905 1.00236 0.0
C1404 C 0.96243 0.3054 0.04835 0.0
C1405 C 0.93679 0.32558 0.007 0.0
C1406 C 1.00054 0.33616 0.07487 0.0
C1407 C 1.00219 0.2949 0.12006 0.0
N1408 N 0.95654 0.32802 0.02946 0.0
N1409 N 0.98462 0.2906 0.096 0.0
H1410 H 0.56466 0.67317 0.48128 0.0
H1411 H 0.51076 0.7265 0.64126 0.0
H1412 H 0.60092 0.74871 0.52707 0.0
H1413 H 0.47387 0.6509 0.59607 0.0
H1414 H 0.54271 0.73568 0.59891 0.0
H1415 H 0.53007 0.66571 0.52204 0.0
C1416 C 0.56524 0.68837 0.49977 0.0
C1417 C 0.58582 0.71168 0.50062 0.0
C1418 C 0.5276 0.71712 0.59816 0.0
C1419 C 0.54622 0.70301 0.54765 0.0
C1420 C 0.50927 0.71181 0.6224 0.0
C1421 C 0.48947 0.68783 0.62235 0.0
C1422 C 0.52633 0.69833 0.5735 0.0
C1423 C 0.48871 0.66965 0.59717 0.0
C1424 C 0.54547 0.68401 0.52311 0.0
C1425 C 0.58547 0.73051 0.52532 0.0
N1426 N 0.5069 0.67524 0.57381 0.0
N1427 N 0.56609 0.7257 0.54783 0.0
H1428 H 0.44122 0.17065 0.02795 0.0
H1429 H 0.48835 0.21765 0.86412 0.0
H1430 H 0.40249 0.24377 0.98034 0.0
H1431 H 0.53013 0.14644 0.91207 0.0
H1432 H 0.45691 0.22731 0.90666 0.0
H1433 H 0.47438 0.16176 0.9863 0.0
C1434 C 0.43981 0.18502 0.00885 0.0
C1435 C 0.41899 0.20807 0.00774 0.0
C1436 C 0.47295 0.20957 0.90795 0.0
C1437 C 0.45685 0.19774 0.95976 0.0
C1438 C 0.49095 0.20396 0.88359 0.0
C1439 C 0.51207 0.18118 0.88445 0.0
C1440 C 0.47588 0.19228 0.93353 0.0
C1441 C 0.51422 0.16423 0.91037 0.0
C1442 C 0.45875 0.17984 0.98502 0.0
C1443 C 0.4182 0.22582 0.9823 0.0
N1444 N 0.49636 0.17014 0.93388 0.0
N1445 N 0.43676 0.22021 0.95933 0.0
H1446 H 0.10483 0.75908 0.47694 0.0
H1447 H 0.97183 0.85641 0.4107 0.0
H1448 H 0.06615 0.83368 0.52221 0.0
H1449 H 0.01025 0.78159 0.3656 0.0
H1450 H 0.00517 0.84751 0.45242 0.0
H1451 H 0.06925 0.76591 0.43672 0.0
C1452 C 0.08876 0.77676 0.47857 0.0
C1453 C 0.08856 0.79579 0.50312 0.0
C1454 C 0.00623 0.83298 0.43343 0.0
C1455 C 0.04778 0.80389 0.4569 0.0
C1456 C 0.98715 0.83804 0.40958 0.0
C1457 C 0.98813 0.81973 0.38452 0.0
C1458 C 0.02654 0.80945 0.43229 0.0
C1459 C 0.0086 0.79631 0.38439 0.0
C1460 C 0.06846 0.7807 0.45553 0.0
C1461 C 0.06721 0.81841 0.50382 0.0
N1462 N 0.02697 0.79191 0.40782 0.0
N1463 N 0.04781 0.82185 0.48107 0.0
H1464 H 0.1305 0.01497 0.2768 0.0
H1465 H 0.00664 0.91514 0.35412 0.0
H1466 H 0.12193 1.00326 0.37116 0.0
H1467 H 0.01397 0.92382 0.25932 0.0
H1468 H 0.04863 0.94797 0.36008 0.0
H1469 H 0.08809 0.98214 0.26943 0.0
C1470 C 0.11975 0.00552 0.29599 0.0
C1471 C 0.1298 0.01203 0.32469 0.0
C1472 C 0.04112 0.94282 0.33793 0.0
C1473 C 0.08119 0.97442 0.31631 0.0
C1474 C 0.01699 0.92403 0.33445 0.0
C1475 C 0.00657 0.91667 0.3061 0.0
C1476 C 0.05522 0.95452 0.31293 0.0
C1477 C 0.02114 0.92893 0.28158 0.0
C1478 C 0.09551 0.98677 0.29172 0.0
C1479 C 0.11498 0.99903 0.34864 0.0
N1480 N 0.04477 0.94726 0.28556 0.0
N1481 N 0.09147 0.98092 0.34389 0.0
H1482 H 0.48811 0.09097 0.75548 0.0
H1483 H 0.40679 0.97334 0.86044 0.0
H1484 H 0.51586 0.06946 0.84422 0.0
H1485 H 0.3677 0.0068 0.78 0.0
H1486 H 0.45034 0.0039 0.85134 0.0
H1487 H 0.4473 0.05525 0.76041 0.0
C1488 C 0.48587 0.07846 0.77577 0.0
C1489 C 0.50524 0.08333 0.79953 0.0
C1490 C 0.43226 0.00451 0.83562 0.0
C1491 C 0.45886 0.04272 0.80536 0.0
C1492 C 0.40738 0.98703 0.84082 0.0
C1493 C 0.38345 0.98756 0.82106 0.0
C1494 C 0.43338 0.02265 0.81042 0.0
C1495 C 0.38554 0.00578 0.79594 0.0
C1496 C 0.46252 0.05827 0.77866 0.0
C1497 C 0.50127 0.06668 0.82543 0.0
N1498 N 0.41005 0.02263 0.79136 0.0
N1499 N 0.47855 0.04725 0.82765 0.0
H1500 H 0.60404 0.47806 0.64124 0.0
H1501 H 0.51892 0.59037 0.74885 0.0
H1502 H 0.63891 0.506 0.72563 0.0
H1503 H 0.49836 0.57995 0.65621 0.0
H1504 H 0.55943 0.55469 0.74313 0.0
H1505 H 0.56146 0.51064 0.64875 0.0
C1506 C 0.60269 0.4909 0.6614 0.0
C1507 C 0.62516 0.48931 0.68277 0.0
C1508 C 0.54594 0.56019 0.72411 0.0
C1509 C 0.57641 0.5266 0.69157 0.0
C1510 C 0.52275 0.58045 0.7274 0.0
C1511 C 0.50524 0.58826 0.70298 0.0
C1512 C 0.55143 0.54742 0.69629 0.0
C1513 C 0.51134 0.57476 0.67565 0.0
C1514 C 0.57842 0.50957 0.66565 0.0
C1515 C 0.62222 0.5066 0.70846 0.0
N1516 N 0.53385 0.55504 0.67307 0.0
N1517 N 0.59831 0.52446 0.71215 0.0
H1518 H 0.98836 0.41391 0.25119 0.0
H1519 H 0.9068 0.52884 0.14306 0.0
H1520 H 0.01253 0.42785 0.15994 0.0
H1521 H 0.87005 0.50066 0.22649 0.0
H1522 H 0.94909 0.49609 0.15143 0.0
H1523 H 0.94812 0.45002 0.24516 0.0
C1524 C 0.98539 0.42469 0.23002 0.0
C1525 C 1.00379 0.4177 0.20604 0.0
C1526 C 0.93178 0.49713 0.16793 0.0
C1527 C 0.95798 0.45897 0.19898 0.0
C1528 C 0.90765 0.51589 0.16317 0.0
C1529 C 0.88473 0.51749 0.18401 0.0
C1530 C 0.93318 0.47996 0.19382 0.0
C1531 C 0.88708 0.50008 0.20969 0.0
C1532 C 0.96237 0.44518 0.22654 0.0
C1533 C 0.99882 0.43231 0.17904 0.0
N1534 N 0.91083 0.4821 0.21387 0.0
N1535 N 0.97648 0.45216 0.17628 0.0
H1536 H 0.37129 0.1178 0.00712 0.0
H1537 H 0.25431 0.01341 0.92299 0.0
H1538 H 0.27681 0.12752 0.01736 0.0
H1539 H 0.34934 0.00601 0.91606 0.0
H1540 H 0.26108 0.05499 0.95752 0.0
H1541 H 0.36276 0.07659 0.97348 0.0
C1542 C 0.34872 0.11128 1.00236 0.0
C1543 C 0.32478 0.12622 0.01526 0.0
C1544 C 0.28037 0.04413 0.9484 0.0
C1545 C 0.31474 0.07873 0.97644 0.0
C1546 C 0.27651 0.02037 0.92873 0.0
C1547 C 0.30122 0.006 0.91656 0.0
C1548 C 0.30914 0.05355 0.95588 0.0
C1549 C 0.3295 0.01617 0.92478 0.0
C1550 C 0.34383 0.08767 0.98307 0.0
C1551 C 0.296 0.11667 0.00802 0.0
N1552 N 0.3326 0.03916 0.94378 0.0
N1553 N 0.29178 0.09356 0.98913 0.0
H1554 H 0.78199 0.36596 0.01031 0.0
H1555 H 0.84564 0.51777 0.07356 0.0
H1556 H 0.86195 0.40721 0.97835 0.0
H1557 H 0.75812 0.48602 0.09468 0.0
H1558 H 0.85164 0.47724 0.03881 0.0
H1559 H 0.77289 0.40896 0.04164 0.0
C1560 C 0.79768 0.38404 0.00982 0.0
C1561 C 0.82289 0.38284 0.99161 0.0
C1562 C 0.831 0.47914 0.05082 0.0
C1563 C 0.81245 0.43229 0.02763 0.0
C1564 C 0.82752 0.50232 0.07077 0.0
C1565 C 0.80132 0.50528 0.08724 0.0
C1566 C 0.80828 0.45833 0.04735 0.0
C1567 C 0.77862 0.48465 0.08241 0.0
C1568 C 0.79234 0.40867 0.02769 0.0
C1569 C 0.84227 0.40708 0.99196 0.0
N1570 N 0.78274 0.46185 0.06309 0.0
N1571 N 0.83671 0.43069 0.00977 0.0
H1572 H 0.63455 0.61816 0.50069 0.0
H1573 H 0.75237 0.51446 0.5839 0.0
H1574 H 0.729 0.63108 0.4941 0.0
H1575 H 0.65772 0.5012 0.58504 0.0
H1576 H 0.74506 0.5571 0.55099 0.0
H1577 H 0.64328 0.57535 0.53224 0.0
C1578 C 0.65714 0.61205 0.50587 0.0
C1579 C 0.68104 0.62829 0.49459 0.0
C1580 C 0.72597 0.54469 0.55841 0.0
C1581 C 0.69129 0.57904 0.53084 0.0
C1582 C 0.73015 0.52031 0.5771 0.0
C1583 C 0.70569 0.50413 0.58731 0.0
C1584 C 0.69713 0.55293 0.54997 0.0
C1585 C 0.67735 0.5129 0.57787 0.0
C1586 C 0.66215 0.58751 0.5239 0.0
C1587 C 0.70985 0.61923 0.50221 0.0
N1588 N 0.67391 0.53662 0.55989 0.0
N1589 N 0.71417 0.59523 0.51983 0.0
H1590 H 0.2301 0.8708 0.50502 0.0
H1591 H 0.168 0.01908 0.43206 0.0
H1592 H 0.13851 0.8973 0.51051 0.0
H1593 H 0.25209 0.98068 0.4081 0.0
H1594 H 0.15846 0.97695 0.4643 0.0
H1595 H 0.23984 0.91281 0.47261 0.0
C1596 C 0.21199 0.88545 0.49943 0.0
C1597 C 0.18341 0.8805 0.51067 0.0
C1598 C 0.17903 0.97775 0.45206 0.0
C1599 C 0.19459 0.9289 0.47355 0.0
C1600 C 0.18464 1.00194 0.43376 0.0
C1601 C 0.21103 0.0036 0.41739 0.0
C1602 C 0.20001 0.95502 0.45433 0.0
C1603 C 0.23152 0.98044 0.42034 0.0
C1604 C 0.2176 0.90942 0.48084 0.0
C1605 C 0.16085 0.90019 0.50241 0.0
N1606 N 0.22561 0.95717 0.4385 0.0
N1607 N 0.16697 0.92361 0.48451 0.0
H1608 H 0.97598 0.64604 0.90614 0.0
H1609 H 0.09266 0.75304 0.98677 0.0
H1610 H 0.01015 0.72549 0.86579 0.0
H1611 H 0.06934 0.66571 0.01718 0.0
H1612 H 0.05782 0.74694 0.94531 0.0
H1613 H 0.00588 0.65623 0.94992 0.0
C1614 C 0.98971 0.66565 0.90647 0.0
C1615 C 0.99059 0.68483 0.88214 0.0
C1616 C 0.06024 0.72926 0.96125 0.0
C1617 C 0.02492 0.69676 0.93238 0.0
C1618 C 0.07992 0.73284 0.98497 0.0
C1619 C 0.08404 0.70979 0.0053 0.0
C1620 C 0.04446 0.7026 0.95815 0.0
C1621 C 0.06713 0.68396 1.00186 0.0
C1622 C 0.00681 0.67149 0.93151 0.0
C1623 C 0.00885 0.70998 0.88395 0.0
N1624 N 0.04822 0.68105 0.97876 0.0
N1625 N 0.0253 0.7152 0.9086 0.0
H1626 H 0.53327 0.36072 0.40839 0.0
H1627 H 0.41494 0.25398 0.48682 0.0
H1628 H 0.50073 0.2806 0.36792 0.0
H1629 H 0.43558 0.34245 0.51599 0.0
H1630 H 0.4508 0.25992 0.44627 0.0
H1631 H 0.50176 0.35112 0.45116 0.0
C1632 C 0.51959 0.34106 0.4085 0.0
C1633 C 0.51963 0.32154 0.3844 0.0
C1634 C 0.44753 0.27791 0.46172 0.0
C1635 C 0.48343 0.31031 0.43348 0.0
C1636 C 0.42723 0.27444 0.48493 0.0
C1637 C 0.42211 0.29779 0.5047 0.0
C1638 C 0.46295 0.30477 0.45858 0.0
C1639 C 0.43854 0.32393 0.50112 0.0
C1640 C 0.50155 0.33558 0.43295 0.0
C1641 C 0.50136 0.29638 0.3859 0.0
N1642 N 0.4581 0.3267 0.47857 0.0
N1643 N 0.484 0.2915 0.40998 0.0
H1644 H 0.56397 0.8287 0.97708 0.0
H1645 H 0.52058 0.78775 0.14341 0.0
H1646 H 0.60728 0.76032 0.02771 0.0
H1647 H 0.47668 0.85597 0.09306 0.0
H1648 H 0.55178 0.777 0.10096 0.0
H1649 H 0.53079 0.83781 0.01853 0.0
C1650 C 0.56637 0.81536 0.99681 0.0
C1651 C 0.58855 0.79366 0.99884 0.0
C1652 C 0.53534 0.79431 0.09912 0.0
C1653 C 0.5506 0.80432 0.04667 0.0
C1654 C 0.51746 0.80056 0.12342 0.0
C1655 C 0.49581 0.82282 0.12187 0.0
C1656 C 0.53172 0.81041 0.07289 0.0
C1657 C 0.49303 0.83864 0.09532 0.0
C1658 C 0.54741 0.82069 0.02054 0.0
C1659 C 0.59049 0.77718 0.02505 0.0
N1660 N 0.51076 0.8321 0.07188 0.0
N1661 N 0.57187 0.78296 0.04797 0.0
H1662 H 0.94325 0.17283 0.47989 0.0
H1663 H 0.99005 0.21928 0.64408 0.0
H1664 H 0.90348 0.24517 0.52783 0.0
H1665 H 0.03103 0.14762 0.59612 0.0
H1666 H 0.95878 0.22936 0.60142 0.0
H1667 H 0.97642 0.1641 0.52155 0.0
C1668 C 0.94162 0.18708 0.49906 0.0
C1669 C 0.92049 0.20984 0.50028 0.0
C1670 C 0.9746 0.21144 0.60016 0.0
C1671 C 0.95838 0.19968 0.54831 0.0
C1672 C 0.99251 0.2056 0.62458 0.0
C1673 C 0.01333 0.18253 0.62376 0.0
C1674 C 0.97737 0.19412 0.57458 0.0
C1675 C 0.01534 0.16561 0.59781 0.0
C1676 C 0.96056 0.18199 0.52291 0.0
C1677 C 0.91945 0.22745 0.52582 0.0
N1678 N 0.99759 0.17175 0.57426 0.0
N1679 N 0.93803 0.22192 0.54883 0.0
H1680 H 0.90632 0.97372 0.64784 0.0
H1681 H 0.98929 0.0902 0.75301 0.0
H1682 H 0.86869 0.00563 0.72956 0.0
H1683 H 0.01435 0.07125 0.66293 0.0
H1684 H 0.94858 0.05432 0.74833 0.0
H1685 H 0.94971 0.00465 0.65647 0.0
C1686 C 0.90721 0.98713 0.66767 0.0
C1687 C 0.88371 0.98713 0.68791 0.0
C1688 C 0.96318 0.05796 0.72971 0.0
C1689 C 0.93348 0.02268 0.69799 0.0
C1690 C 0.98647 0.07826 0.73245 0.0
C1691 C 0.0051 0.08385 0.70829 0.0
C1692 C 0.95883 0.04301 0.70276 0.0
C1693 C 1.00037 0.06789 0.68206 0.0
C1694 C 0.932 0.00484 0.67258 0.0
C1695 C 0.88619 0.00502 0.71324 0.0
N1696 N 0.97775 0.04831 0.68001 0.0
N1697 N 0.9106 0.0221 0.71755 0.0
H1698 H 0.60059 0.03239 0.14767 0.0
H1699 H 0.52059 0.9124 0.25092 0.0
H1700 H 0.64049 0.99851 0.22753 0.0
H1701 H 0.49306 0.9346 0.16228 0.0
H1702 H 0.56139 0.94822 0.2464 0.0
H1703 H 0.55777 1.0008 0.15625 0.0
C1704 C 0.60034 0.01838 0.16708 0.0
C1705 C 0.62429 0.01808 0.18683 0.0
C1706 C 0.54624 0.9453 0.22807 0.0
C1707 C 0.5751 0.98171 0.19685 0.0
C1708 C 0.52289 0.92504 0.23072 0.0
C1709 C 0.5035 0.92039 0.2069 0.0
C1710 C 0.54989 0.96116 0.20156 0.0
C1711 C 0.5076 0.93721 0.18114 0.0
C1712 C 0.57585 1.00029 0.17197 0.0
C1713 C 0.62261 0.99939 0.21163 0.0
N1714 N 0.53028 0.95673 0.17917 0.0
N1715 N 0.59845 0.98192 0.21592 0.0
H1716 H 0.51653 0.43192 0.3485 0.0
H1717 H 0.36814 0.49864 0.28105 0.0
H1718 H 0.48916 0.41586 0.25846 0.0
H1719 H 0.40697 0.52884 0.36293 0.0
H1720 H 0.41142 0.46752 0.27261 0.0
H1721 H 0.47608 0.46688 0.35417 0.0
C1722 C 0.50206 0.43585 0.3298 0.0
C1723 C 0.50618 0.42079 0.30295 0.0
C1724 C 0.41055 0.48107 0.29234 0.0
C1725 C 0.45946 0.46086 0.30949 0.0
C1726 C 0.38577 0.49878 0.29729 0.0
C1727 C 0.38382 0.51638 0.32285 0.0
C1728 C 0.4335 0.48063 0.31321 0.0
C1729 C 0.40747 0.51568 0.34295 0.0
C1730 C 0.47897 0.45593 0.33308 0.0
C1731 C 0.48683 0.42702 0.2795 0.0
N1732 N 0.43123 0.49797 0.33778 0.0
N1733 N 0.46409 0.44641 0.2834 0.0
H1734 H 0.10376 0.47776 0.86371 0.0
H1735 H 0.02328 0.59242 0.75464 0.0
H1736 H 0.14314 0.50874 0.78248 0.0
H1737 H 0.99558 0.57505 0.84428 0.0
H1738 H 0.06425 0.55724 0.7614 0.0
H1739 H 0.0608 0.50915 0.85405 0.0
C1740 C 0.10337 0.4911 0.84383 0.0
C1741 C 0.12719 0.49066 0.82397 0.0
C1742 C 0.04905 0.5611 0.77948 0.0
C1743 C 0.07796 0.52659 0.81267 0.0
C1744 C 0.02561 0.58102 0.77556 0.0
C1745 C 0.00609 0.58683 0.79896 0.0
C1746 C 0.05269 0.54674 0.80685 0.0
C1747 C 0.01023 0.57153 0.82569 0.0
C1748 C 0.07884 0.50904 0.83832 0.0
C1749 C 0.12539 0.50846 0.79852 0.0
N1750 N 0.03301 0.55229 0.82888 0.0
N1751 N 0.10122 0.52567 0.7936 0.0
H1752 H 0.63377 0.88682 1.00327 0.0
H1753 H 0.75106 0.99363 0.0838 0.0
H1754 H 0.72831 0.87869 0.99205 0.0
H1755 H 0.6561 1.0011 0.09193 0.0
H1756 H 0.74385 0.9514 0.05028 0.0
H1757 H 0.64209 0.92867 0.0364 0.0
C1758 C 0.65627 0.8938 0.00775 0.0
C1759 C 0.68032 0.87921 0.9947 0.0
C1760 C 0.72466 0.96242 0.05943 0.0
C1761 C 0.69009 0.92724 0.03272 0.0
C1762 C 0.72878 0.98654 0.0785 0.0
C1763 C 0.70422 1.00108 0.09071 0.0
C1764 C 0.69579 0.95281 0.05261 0.0
C1765 C 0.67582 0.99077 0.08312 0.0
C1766 C 0.66104 0.91774 0.02668 0.0
C1767 C 0.70903 0.88927 1.00149 0.0
N1768 N 0.67245 0.96738 0.06468 0.0
N1769 N 0.71311 0.91264 0.01997 0.0
H1770 H 0.25324 0.52189 0.91311 0.0
H1771 H 0.14395 0.60033 0.02917 0.0
H1772 H 0.16633 0.48954 0.93577 0.0
H1773 H 0.22286 0.64217 0.9954 0.0
H1774 H 0.15474 0.557 0.99878 0.0
H1775 H 0.2458 0.56345 0.9475 0.0
C1776 C 0.23284 0.52329 0.92559 0.0
C1777 C 0.21033 0.50233 0.92143 0.0
C1778 C 0.16972 0.57566 0.99803 0.0
C1779 C 0.20159 0.54964 0.96052 0.0
C1780 C 0.16353 0.60044 0.01539 0.0
C1781 C 0.18241 0.62505 0.01482 0.0
C1782 C 0.19508 0.57531 0.98001 0.0
C1783 C 0.20755 0.62381 0.99649 0.0
C1784 C 0.22849 0.54708 0.94502 0.0
C1785 C 0.18421 0.50532 0.93801 0.0
N1786 N 0.21315 0.59939 0.97985 0.0
N1787 N 0.18056 0.52848 0.95669 0.0
H1788 H 0.28222 0.36662 0.49867 0.0
H1789 H 0.34627 0.51759 0.43465 0.0
H1790 H 0.36359 0.40647 0.52908 0.0
H1791 H 0.25764 0.48719 0.41612 0.0
H1792 H 0.35261 0.47712 0.46943 0.0
H1793 H 0.27282 0.41008 0.46818 0.0
C1794 C 0.29816 0.3845 0.49898 0.0
C1795 C 0.32385 0.38278 0.51648 0.0
C1796 C 0.33166 0.47935 0.45801 0.0
C1797 C 0.31306 0.43273 0.48146 0.0
C1798 C 0.32799 0.50248 0.43806 0.0
C1799 C 0.30138 0.50572 0.4223 0.0
C1800 C 0.30871 0.45891 0.4621 0.0
C1801 C 0.27846 0.48556 0.42786 0.0
C1802 C 0.29265 0.40939 0.48162 0.0
C1803 C 0.34353 0.40675 0.51598 0.0
N1804 N 0.28277 0.46279 0.4471 0.0
N1805 N 0.3378 0.43064 0.49864 0.0
H1806 H 0.87366 0.1189 0.5024 0.0
H1807 H 0.75609 0.01465 0.58525 0.0
H1808 H 0.77913 0.12862 0.49223 0.0
H1809 H 0.85101 0.00562 0.59199 0.0
H1810 H 0.76337 0.05645 0.55131 0.0
H1811 H 0.86516 0.07743 0.53578 0.0
C1812 C 0.8511 0.11234 0.50715 0.0
C1813 C 0.82711 0.12729 0.49434 0.0
C1814 C 0.78254 0.0452 0.56023 0.0
C1815 C 0.81714 0.07962 0.53272 0.0
C1816 C 0.77838 0.02131 0.57955 0.0
C1817 C 0.80291 0.00645 0.5915 0.0
C1818 C 0.81142 0.05428 0.55288 0.0
C1819 C 0.83133 0.01622 0.58338 0.0
C1820 C 0.84623 0.0886 0.52625 0.0
C1821 C 0.79835 0.11775 0.5015 0.0
N1822 N 0.83474 0.0394 0.5647 0.0
N1823 N 0.79417 0.09453 0.52017 0.0
loop_
_geom_bond_atom_site_label_1
_geom_bond_atom_site_label_2
_geom_bond_distance
_geom_bond_site_symmetry_2
_ccdc_geom_bond_type
Fe0 O2 1.918 . S
Fe0 O5 1.997 . S
Fe0 O6 2.002 . S
Fe0 O11 1.976 . S
Fe0 O14 1.996 . S
Fe1 O2 1.918 . S
Fe1 O9 1.997 . S
Fe1 O12 1.996 . S
Fe1 O16 1.976 . S
Fe1 O19 2.002 . S
O2 Fe0 1.918 . S
O2 Fe1 1.918 . S
O2 Fe3 1.918 . S
Fe3 O2 1.918 . S
Fe3 O4 2.002 . S
Fe3 O13 1.976 . S
Fe3 O17 1.996 . S
Fe3 O20 1.997 . S
O4 Fe3 2.002 . S
O4 C21 1.295 . S
O5 Fe0 1.997 . S
O5 C21 1.235 . S
O6 Fe0 2.002 . S
O6 C7 1.295 . S
C7 O6 1.295 . S
C7 O9 1.235 . S
C8 O13 1.287 . S
C8 O14 1.255 . S
O9 Fe1 1.997 . S
O9 C7 1.235 . S
C10 O16 1.287 . S
C10 O17 1.255 . S
O11 Fe0 1.976 . S
O11 C18 1.287 . S
O12 Fe1 1.996 . S
O12 C18 1.255 . S
O13 Fe3 1.976 . S
O13 C8 1.287 . S
O14 Fe0 1.996 . S
O14 C8 1.255 . S
C15 O19 1.293 . S
C15 O20 1.234 . S
O16 Fe1 1.976 . S
O16 C10 1.287 . S
O17 Fe3 1.996 . S
O17 C10 1.255 . S
C18 O11 1.287 . S
C18 O12 1.255 . S
O19 Fe1 2.002 . S
O19 C15 1.293 . S
O20 Fe3 1.997 . S
O20 C15 1.234 . S
C21 O4 1.295 . S
C21 O5 1.235 . S
Fe22 O24 1.918 . S
Fe22 O27 1.997 . S
Fe22 O28 2.002 . S
Fe22 O33 1.976 . S
Fe22 O36 1.996 . S
Fe23 O24 1.918 . S
Fe23 O31 1.997 . S
Fe23 O34 1.996 . S
Fe23 O38 1.976 . S
Fe23 O41 2.002 . S
O24 Fe22 1.918 . S
O24 Fe23 1.918 . S
O24 Fe25 1.918 . S
Fe25 O24 1.918 . S
Fe25 O26 2.002 . S
Fe25 O35 1.976 . S
Fe25 O39 1.996 . S
Fe25 O42 1.997 . S
O26 Fe25 2.002 . S
O26 C43 1.295 . S
O27 Fe22 1.997 . S
O27 C43 1.235 . S
O28 Fe22 2.002 . S
O28 C29 1.295 . S
C29 O28 1.295 . S
C29 O31 1.235 . S
C30 O35 1.287 . S
C30 O36 1.255 . S
O31 Fe23 1.997 . S
O31 C29 1.235 . S
C32 O38 1.287 . S
C32 O39 1.255 . S
O33 Fe22 1.976 . S
O33 C40 1.287 . S
O34 Fe23 1.996 . S
O34 C40 1.255 . S
O35 Fe25 1.976 . S
O35 C30 1.287 . S
O36 Fe22 1.996 . S
O36 C30 1.255 . S
C37 O41 1.295 . S
C37 O42 1.235 . S
O38 Fe23 1.976 . S
O38 C32 1.287 . S
O39 Fe25 1.996 . S
O39 C32 1.255 . S
C40 O33 1.287 . S
C40 O34 1.255 . S
O41 Fe23 2.002 . S
O41 C37 1.295 . S
O42 Fe25 1.997 . S
O42 C37 1.235 . S
C43 O26 1.295 . S
C43 O27 1.235 . S
Fe44 O46 1.918 . S
Fe44 O49 1.997 . S
Fe44 O50 2.002 . S
Fe44 O55 1.976 . S
Fe44 O58 1.996 . S
Fe45 O46 1.918 . S
Fe45 O53 1.997 . S
Fe45 O56 1.996 . S
Fe45 O60 1.976 . S
Fe45 O63 2.002 . S
O46 Fe44 1.918 . S
O46 Fe45 1.918 . S
O46 Fe47 1.918 . S
Fe47 O46 1.918 . S
Fe47 O48 2.002 . S
Fe47 O57 1.976 . S
Fe47 O61 1.996 . S
Fe47 O64 1.997 . S
O48 Fe47 2.002 . S
O48 C65 1.295 . S
O49 Fe44 1.997 . S
O49 C65 1.235 . S
O50 Fe44 2.002 . S
O50 C51 1.295 . S
C51 O50 1.295 . S
C51 O53 1.235 . S
C52 O57 1.287 . S
C52 O58 1.255 . S
O53 Fe45 1.997 . S
O53 C51 1.235 . S
C54 O60 1.287 . S
C54 O61 1.255 . S
O55 Fe44 1.976 . S
O55 C62 1.287 . S
O56 Fe45 1.996 . S
O56 C62 1.255 . S
O57 Fe47 1.976 . S
O57 C52 1.287 . S
O58 Fe44 1.996 . S
O58 C52 1.255 . S
C59 O63 1.295 . S
C59 O64 1.235 . S
O60 Fe45 1.976 . S
O60 C54 1.287 . S
O61 Fe47 1.996 . S
O61 C54 1.255 . S
C62 O55 1.287 . S
C62 O56 1.255 . S
O63 Fe45 2.002 . S
O63 C59 1.295 . S
O64 Fe47 1.997 . S
O64 C59 1.235 . S
C65 O48 1.295 . S
C65 O49 1.235 . S
Fe66 O68 1.918 . S
Fe66 O71 1.997 . S
Fe66 O72 2.002 . S
Fe66 O77 1.976 . S
Fe66 O80 1.996 . S
Fe67 O68 1.918 . S
Fe67 O75 1.997 . S
Fe67 O78 1.996 . S
Fe67 O82 1.976 . S
Fe67 O85 2.002 . S
O68 Fe66 1.918 . S
O68 Fe67 1.918 . S
O68 Fe69 1.918 . S
Fe69 O68 1.918 . S
Fe69 O70 2.002 . S
Fe69 O79 1.976 . S
Fe69 O83 1.996 . S
Fe69 O86 1.997 . S
O70 Fe69 2.002 . S
O70 C87 1.295 . S
O71 Fe66 1.997 . S
O71 C87 1.235 . S
O72 Fe66 2.002 . S
O72 C73 1.297 1_655 S
C73 O72 1.297 1_455 S
C73 O75 1.237 1_455 S
C74 O79 1.287 . S
C74 O80 1.255 . S
O75 Fe67 1.997 . S
O75 C73 1.237 1_655 S
C76 O82 1.287 . S
C76 O83 1.255 . S
O77 Fe66 1.976 . S
O77 C84 1.287 . S
O78 Fe67 1.996 . S
O78 C84 1.255 . S
O79 Fe69 1.976 . S
O79 C74 1.287 . S
O80 Fe66 1.996 . S
O80 C74 1.255 . S
C81 O85 1.295 . S
C81 O86 1.235 . S
O82 Fe67 1.976 . S
O82 C76 1.287 . S
O83 Fe69 1.996 . S
O83 C76 1.255 . S
C84 O77 1.287 . S
C84 O78 1.255 . S
O85 Fe67 2.002 . S
O85 C81 1.295 . S
O86 Fe69 1.997 . S
O86 C81 1.235 . S
C87 O70 1.295 . S
C87 O71 1.235 . S
Fe88 O90 1.918 . S
Fe88 O93 1.997 . S
Fe88 O94 2.002 . S
Fe88 O99 1.976 . S
Fe88 O102 1.996 . S
Fe89 O90 1.918 . S
Fe89 O97 1.997 . S
Fe89 O100 1.996 . S
Fe89 O104 1.976 . S
Fe89 O107 2.002 . S
O90 Fe88 1.918 . S
O90 Fe89 1.918 . S
O90 Fe91 1.918 . S
Fe91 O90 1.918 . S
Fe91 O92 2.002 . S
Fe91 O101 1.976 . S
Fe91 O105 1.996 . S
Fe91 O108 1.997 . S
O92 Fe91 2.002 . S
O92 C109 1.293 . S
O93 Fe88 1.997 . S
O93 C109 1.234 . S
O94 Fe88 2.002 . S
O94 C95 1.295 . S
C95 O94 1.295 . S
C95 O97 1.235 . S
C96 O101 1.287 . S
C96 O102 1.255 . S
O97 Fe89 1.997 . S
O97 C95 1.235 . S
C98 O104 1.287 . S
C98 O105 1.255 . S
O99 Fe88 1.976 . S
O99 C106 1.287 . S
O100 Fe89 1.996 . S
O100 C106 1.255 . S
O101 Fe91 1.976 . S
O101 C96 1.287 . S
O102 Fe88 1.996 . S
O102 C96 1.255 . S
C103 O107 1.295 . S
C103 O108 1.235 . S
O104 Fe89 1.976 . S
O104 C98 1.287 . S
O105 Fe91 1.996 . S
O105 C98 1.255 . S
C106 O99 1.287 . S
C106 O100 1.255 . S
O107 Fe89 2.002 . S
O107 C103 1.295 . S
O108 Fe91 1.997 . S
O108 C103 1.235 . S
C109 O92 1.293 . S
C109 O93 1.234 . S
Fe110 O112 1.918 . S
Fe110 O115 1.997 . S
Fe110 O116 2.002 . S
Fe110 O121 1.976 . S
Fe110 O124 1.996 . S
Fe111 O112 1.918 . S
Fe111 O119 1.997 . S
Fe111 O122 1.996 . S
Fe111 O126 1.976 . S
Fe111 O129 2.002 . S
O112 Fe110 1.918 . S
O112 Fe111 1.918 . S
O112 Fe113 1.918 . S
Fe113 O112 1.918 . S
Fe113 O114 2.002 . S
Fe113 O123 1.976 . S
Fe113 O127 1.996 . S
Fe113 O130 1.997 . S
O114 Fe113 2.002 . S
O114 C131 1.295 . S
O115 Fe110 1.997 . S
O115 C131 1.235 . S
O116 Fe110 2.002 . S
O116 C117 1.297 . S
C117 O116 1.297 . S
C117 O119 1.237 . S
C118 O123 1.287 . S
C118 O124 1.255 . S
O119 Fe111 1.997 . S
O119 C117 1.237 . S
C120 O126 1.287 . S
C120 O127 1.255 . S
O121 Fe110 1.976 . S
O121 C128 1.287 . S
O122 Fe111 1.996 . S
O122 C128 1.255 . S
O123 Fe113 1.976 . S
O123 C118 1.287 . S
O124 Fe110 1.996 . S
O124 C118 1.255 . S
C125 O129 1.295 . S
C125 O130 1.235 . S
O126 Fe111 1.976 . S
O126 C120 1.287 . S
O127 Fe113 1.996 . S
O127 C120 1.255 . S
C128 O121 1.287 . S
C128 O122 1.255 . S
O129 Fe111 2.002 . S
O129 C125 1.295 . S
O130 Fe113 1.997 . S
O130 C125 1.235 . S
C131 O114 1.295 . S
C131 O115 1.235 . S
Fe132 O134 1.918 . S
Fe132 O137 1.997 . S
Fe132 O138 2.002 . S
Fe132 O143 1.976 . S
Fe132 O146 1.996 . S
Fe133 O134 1.918 . S
Fe133 O141 1.997 . S
Fe133 O144 1.996 . S
Fe133 O148 1.976 . S
Fe133 O151 2.002 . S
O134 Fe132 1.918 . S
O134 Fe133 1.918 . S
O134 Fe135 1.918 . S
Fe135 O134 1.918 . S
Fe135 O136 2.002 . S
Fe135 O145 1.976 . S
Fe135 O149 1.996 . S
Fe135 O152 1.997 . S
O136 Fe135 2.002 . S
O136 C153 1.295 . S
O137 Fe132 1.997 . S
O137 C153 1.235 . S
O138 Fe132 2.002 . S
O138 C139 1.295 . S
C139 O138 1.295 . S
C139 O141 1.235 . S
C140 O145 1.287 . S
C140 O146 1.255 . S
O141 Fe133 1.997 . S
O141 C139 1.235 . S
C142 O148 1.287 . S
C142 O149 1.255 . S
O143 Fe132 1.976 . S
O143 C150 1.287 . S
O144 Fe133 1.996 . S
O144 C150 1.255 . S
O145 Fe135 1.976 . S
O145 C140 1.287 . S
O146 Fe132 1.996 . S
O146 C140 1.255 . S
C147 O151 1.295 . S
C147 O152 1.235 . S
O148 Fe133 1.976 . S
O148 C142 1.287 . S
O149 Fe135 1.996 . S
O149 C142 1.255 . S
C150 O143 1.287 . S
C150 O144 1.255 . S
O151 Fe133 2.002 . S
O151 C147 1.295 . S
O152 Fe135 1.997 . S
O152 C147 1.235 . S
C153 O136 1.295 . S
C153 O137 1.235 . S
Fe154 O156 1.918 . S
Fe154 O159 1.997 . S
Fe154 O160 2.002 . S
Fe154 O165 1.976 . S
Fe154 O168 1.996 . S
Fe155 O156 1.918 . S
Fe155 O163 1.997 . S
Fe155 O166 1.996 . S
Fe155 O170 1.976 . S
Fe155 O173 2.002 . S
O156 Fe154 1.918 . S
O156 Fe155 1.918 . S
O156 Fe157 1.918 . S
Fe157 O156 1.918 . S
Fe157 O158 2.002 . S
Fe157 O167 1.976 . S
Fe157 O171 1.996 . S
Fe157 O174 1.997 . S
O158 Fe157 2.002 . S
O158 C175 1.295 . S
O159 Fe154 1.997 . S
O159 C175 1.235 . S
O160 Fe154 2.002 . S
O160 C161 1.295 . S
C161 O160 1.295 . S
C161 O163 1.235 . S
C162 O167 1.287 . S
C162 O168 1.255 . S
O163 Fe155 1.997 . S
O163 C161 1.235 . S
C164 O170 1.287 . S
C164 O171 1.255 . S
O165 Fe154 1.976 . S
O165 C172 1.287 . S
O166 Fe155 1.996 . S
O166 C172 1.255 . S
O167 Fe157 1.976 . S
O167 C162 1.287 . S
O168 Fe154 1.996 . S
O168 C162 1.255 . S
C169 O173 1.295 . S
C169 O174 1.235 . S
O170 Fe155 1.976 . S
O170 C164 1.287 . S
O171 Fe157 1.996 . S
O171 C164 1.255 . S
C172 O165 1.287 . S
C172 O166 1.255 . S
O173 Fe155 2.002 . S
O173 C169 1.295 . S
O174 Fe157 1.997 . S
O174 C169 1.235 . S
C175 O158 1.295 . S
C175 O159 1.235 . S
Fe176 O178 1.918 . S
Fe176 O181 1.997 . S
Fe176 O182 2.002 . S
Fe176 O187 1.976 . S
Fe176 O190 1.996 . S
Fe177 O178 1.918 . S
Fe177 O185 1.997 . S
Fe177 O188 1.996 . S
Fe177 O192 1.976 . S
Fe177 O195 2.002 . S
O178 Fe176 1.918 . S
O178 Fe177 1.918 . S
O178 Fe179 1.918 . S
Fe179 O178 1.918 . S
Fe179 O180 2.002 . S
Fe179 O189 1.976 . S
Fe179 O193 1.996 . S
Fe179 O196 1.997 . S
O180 Fe179 2.002 . S
O180 C197 1.282 1_554 S
O181 Fe176 1.997 . S
O181 C197 1.223 1_554 S
O182 Fe176 2.002 . S
O182 C183 1.295 . S
C183 O182 1.295 . S
C183 O185 1.235 . S
C184 O189 1.287 . S
C184 O190 1.255 . S
O185 Fe177 1.997 . S
O185 C183 1.235 . S
C186 O192 1.287 . S
C186 O193 1.255 . S
O187 Fe176 1.976 . S
O187 C194 1.287 . S
O188 Fe177 1.996 . S
O188 C194 1.255 . S
O189 Fe179 1.976 . S
O189 C184 1.287 . S
O190 Fe176 1.996 . S
O190 C184 1.255 . S
C191 O195 1.295 . S
C191 O196 1.235 . S
O192 Fe177 1.976 . S
O192 C186 1.287 . S
O193 Fe179 1.996 . S
O193 C186 1.255 . S
C194 O187 1.287 . S
C194 O188 1.255 . S
O195 Fe177 2.002 . S
O195 C191 1.295 . S
O196 Fe179 1.997 . S
O196 C191 1.235 . S
C197 O180 1.282 1_556 S
C197 O181 1.223 1_556 S
Fe198 O200 1.918 . S
Fe198 O203 1.997 . S
Fe198 O204 2.002 . S
Fe198 O209 1.976 . S
Fe198 O212 1.996 . S
Fe199 O200 1.918 . S
Fe199 O207 1.997 . S
Fe199 O210 1.996 . S
Fe199 O214 1.976 . S
Fe199 O217 2.002 . S
O200 Fe198 1.918 . S
O200 Fe199 1.918 . S
O200 Fe201 1.918 . S
Fe201 O200 1.918 . S
Fe201 O202 2.002 . S
Fe201 O211 1.976 . S
Fe201 O215 1.996 . S
Fe201 O218 1.997 . S
O202 Fe201 2.002 . S
O202 C219 1.295 . S
O203 Fe198 1.997 . S
O203 C219 1.235 . S
O204 Fe198 2.002 . S
O204 C205 1.295 . S
C205 O204 1.295 . S
C205 O207 1.235 . S
C206 O211 1.287 . S
C206 O212 1.255 . S
O207 Fe199 1.997 . S
O207 C205 1.235 . S
C208 O214 1.287 . S
C208 O215 1.255 . S
O209 Fe198 1.976 . S
O209 C216 1.287 . S
O210 Fe199 1.996 . S
O210 C216 1.255 . S
O211 Fe201 1.976 . S
O211 C206 1.287 . S
O212 Fe198 1.996 . S
O212 C206 1.255 . S
C213 O217 1.295 1_554 S
C213 O218 1.235 1_554 S
O214 Fe199 1.976 . S
O214 C208 1.287 . S
O215 Fe201 1.996 . S
O215 C208 1.255 . S
C216 O209 1.287 . S
C216 O210 1.255 . S
O217 Fe199 2.002 . S
O217 C213 1.295 1_556 S
O218 Fe201 1.997 . S
O218 C213 1.235 1_556 S
C219 O202 1.295 . S
C219 O203 1.235 . S
Fe220 O222 1.918 . S
Fe220 O225 1.997 . S
Fe220 O226 2.002 . S
Fe220 O231 1.976 . S
Fe220 O234 1.996 . S
Fe221 O222 1.918 . S
Fe221 O229 1.997 . S
Fe221 O232 1.996 . S
Fe221 O236 1.976 . S
Fe221 O239 2.002 . S
O222 Fe220 1.918 . S
O222 Fe221 1.918 . S
O222 Fe223 1.918 . S
Fe223 O222 1.918 . S
Fe223 O224 2.002 . S
Fe223 O233 1.976 . S
Fe223 O237 1.996 . S
Fe223 O240 1.997 . S
O224 Fe223 2.002 . S
O224 C241 1.295 . S
O225 Fe220 1.997 . S
O225 C241 1.235 . S
O226 Fe220 2.002 . S
O226 C227 1.295 . S
C227 O226 1.295 . S
C227 O229 1.235 . S
C228 O233 1.287 . S
C228 O234 1.255 . S
O229 Fe221 1.997 . S
O229 C227 1.235 . S
C230 O236 1.287 . S
C230 O237 1.255 . S
O231 Fe220 1.976 . S
O231 C238 1.287 . S
O232 Fe221 1.996 . S
O232 C238 1.255 . S
O233 Fe223 1.976 . S
O233 C228 1.287 . S
O234 Fe220 1.996 . S
O234 C228 1.255 . S
C235 O239 1.295 . S
C235 O240 1.235 . S
O236 Fe221 1.976 . S
O236 C230 1.287 . S
O237 Fe223 1.996 . S
O237 C230 1.255 . S
C238 O231 1.287 . S
C238 O232 1.255 . S
O239 Fe221 2.002 . S
O239 C235 1.295 . S
O240 Fe223 1.997 . S
O240 C235 1.235 . S
C241 O224 1.295 . S
C241 O225 1.235 . S
Fe242 O244 1.918 . S
Fe242 O247 1.997 . S
Fe242 O248 2.002 . S
Fe242 O253 1.976 . S
Fe242 O256 1.996 . S
Fe243 O244 1.918 . S
Fe243 O251 1.997 . S
Fe243 O254 1.996 . S
Fe243 O258 1.976 . S
Fe243 O261 2.002 . S
O244 Fe242 1.918 . S
O244 Fe243 1.918 . S
O244 Fe245 1.918 . S
Fe245 O244 1.918 . S
Fe245 O246 2.002 . S
Fe245 O255 1.976 . S
Fe245 O259 1.996 . S
Fe245 O262 1.997 . S
O246 Fe245 2.002 . S
O246 C263 1.295 . S
O247 Fe242 1.997 . S
O247 C263 1.235 . S
O248 Fe242 2.002 . S
O248 C249 1.295 . S
C249 O248 1.295 . S
C249 O251 1.235 . S
C250 O255 1.287 . S
C250 O256 1.255 . S
O251 Fe243 1.997 . S
O251 C249 1.235 . S
C252 O258 1.287 . S
C252 O259 1.255 . S
O253 Fe242 1.976 . S
O253 C260 1.287 . S
O254 Fe243 1.996 . S
O254 C260 1.255 . S
O255 Fe245 1.976 . S
O255 C250 1.287 . S
O256 Fe242 1.996 . S
O256 C250 1.255 . S
C257 O261 1.295 . S
C257 O262 1.235 . S
O258 Fe243 1.976 . S
O258 C252 1.287 . S
O259 Fe245 1.996 . S
O259 C252 1.255 . S
C260 O253 1.287 . S
C260 O254 1.255 . S
O261 Fe243 2.002 . S
O261 C257 1.295 . S
O262 Fe245 1.997 . S
O262 C257 1.235 . S
C263 O246 1.295 . S
C263 O247 1.235 . S
Fe264 O266 1.918 . S
Fe264 O269 1.997 . S
Fe264 O270 2.002 . S
Fe264 O275 1.976 . S
Fe264 O278 1.996 . S
Fe265 O266 1.918 . S
Fe265 O273 1.997 . S
Fe265 O276 1.996 . S
Fe265 O280 1.976 . S
Fe265 O283 2.002 . S
O266 Fe264 1.918 . S
O266 Fe265 1.918 . S
O266 Fe267 1.918 . S
Fe267 O266 1.918 . S
Fe267 O268 2.002 . S
Fe267 O277 1.976 . S
Fe267 O281 1.996 . S
Fe267 O284 1.997 . S
O268 Fe267 2.002 . S
O268 C285 1.295 . S
O269 Fe264 1.997 . S
O269 C285 1.235 . S
O270 Fe264 2.002 . S
O270 C271 1.295 . S
C271 O270 1.295 . S
C271 O273 1.235 . S
C272 O277 1.287 . S
C272 O278 1.255 . S
O273 Fe265 1.997 . S
O273 C271 1.235 . S
C274 O280 1.287 . S
C274 O281 1.255 . S
O275 Fe264 1.976 . S
O275 C282 1.287 . S
O276 Fe265 1.996 . S
O276 C282 1.255 . S
O277 Fe267 1.976 . S
O277 C272 1.287 . S
O278 Fe264 1.996 . S
O278 C272 1.255 . S
C279 O283 1.304 . S
C279 O284 1.244 . S
O280 Fe265 1.976 . S
O280 C274 1.287 . S
O281 Fe267 1.996 . S
O281 C274 1.255 . S
C282 O275 1.287 . S
C282 O276 1.255 . S
O283 Fe265 2.002 . S
O283 C279 1.304 . S
O284 Fe267 1.997 . S
O284 C279 1.244 . S
C285 O268 1.295 . S
C285 O269 1.235 . S
Fe286 O288 1.918 . S
Fe286 O291 1.997 . S
Fe286 O292 2.002 . S
Fe286 O297 1.976 . S
Fe286 O300 1.996 . S
Fe287 O288 1.918 . S
Fe287 O295 1.997 . S
Fe287 O298 1.996 . S
Fe287 O302 1.976 . S
Fe287 O305 2.002 . S
O288 Fe286 1.918 . S
O288 Fe287 1.918 . S
O288 Fe289 1.918 . S
Fe289 O288 1.918 . S
Fe289 O290 2.002 . S
Fe289 O299 1.976 . S
Fe289 O303 1.996 . S
Fe289 O306 1.997 . S
O290 Fe289 2.002 . S
O290 C307 1.295 . S
O291 Fe286 1.997 . S
O291 C307 1.235 . S
O292 Fe286 2.002 . S
O292 C293 1.295 . S
C293 O292 1.295 . S
C293 O295 1.235 . S
C294 O299 1.287 . S
C294 O300 1.255 . S
O295 Fe287 1.997 . S
O295 C293 1.235 . S
C296 O302 1.287 . S
C296 O303 1.255 . S
O297 Fe286 1.976 . S
O297 C304 1.287 . S
O298 Fe287 1.996 . S
O298 C304 1.255 . S
O299 Fe289 1.976 . S
O299 C294 1.287 . S
O300 Fe286 1.996 . S
O300 C294 1.255 . S
C301 O305 1.295 . S
C301 O306 1.235 . S
O302 Fe287 1.976 . S
O302 C296 1.287 . S
O303 Fe289 1.996 . S
O303 C296 1.255 . S
C304 O297 1.287 . S
C304 O298 1.255 . S
O305 Fe287 2.002 . S
O305 C301 1.295 . S
O306 Fe289 1.997 . S
O306 C301 1.235 . S
C307 O290 1.295 . S
C307 O291 1.235 . S
Fe308 O310 1.918 . S
Fe308 O313 1.997 . S
Fe308 O314 2.002 . S
Fe308 O319 1.976 . S
Fe308 O322 1.996 . S
Fe309 O310 1.918 . S
Fe309 O317 1.997 . S
Fe309 O320 1.996 . S
Fe309 O324 1.976 . S
Fe309 O327 2.002 . S
O310 Fe308 1.918 . S
O310 Fe309 1.918 . S
O310 Fe311 1.918 . S
Fe311 O310 1.918 . S
Fe311 O312 2.002 . S
Fe311 O321 1.976 . S
Fe311 O325 1.996 . S
Fe311 O328 1.997 . S
O312 Fe311 2.002 . S
O312 C329 1.295 . S
O313 Fe308 1.997 . S
O313 C329 1.235 . S
O314 Fe308 2.002 . S
O314 C315 1.295 . S
C315 O314 1.295 . S
C315 O317 1.235 . S
C316 O321 1.287 . S
C316 O322 1.255 . S
O317 Fe309 1.997 . S
O317 C315 1.235 . S
C318 O324 1.287 . S
C318 O325 1.255 . S
O319 Fe308 1.976 . S
O319 C326 1.287 . S
O320 Fe309 1.996 . S
O320 C326 1.255 . S
O321 Fe311 1.976 . S
O321 C316 1.287 . S
O322 Fe308 1.996 . S
O322 C316 1.255 . S
C323 O327 1.295 . S
C323 O328 1.235 . S
O324 Fe309 1.976 . S
O324 C318 1.287 . S
O325 Fe311 1.996 . S
O325 C318 1.255 . S
C326 O319 1.287 . S
C326 O320 1.255 . S
O327 Fe309 2.002 . S
O327 C323 1.295 . S
O328 Fe311 1.997 . S
O328 C323 1.235 . S
C329 O312 1.295 . S
C329 O313 1.235 . S
Fe330 O332 1.918 . S
Fe330 O335 1.997 . S
Fe330 O336 2.002 . S
Fe330 O341 1.976 . S
Fe330 O344 1.996 . S
Fe331 O332 1.918 . S
Fe331 O339 1.997 . S
Fe331 O342 1.996 . S
Fe331 O346 1.976 . S
Fe331 O349 2.002 . S
O332 Fe330 1.918 . S
O332 Fe331 1.918 . S
O332 Fe333 1.918 . S
Fe333 O332 1.918 . S
Fe333 O334 2.002 . S
Fe333 O343 1.976 . S
Fe333 O347 1.996 . S
Fe333 O350 1.997 . S
O334 Fe333 2.002 . S
O334 C351 1.295 . S
O335 Fe330 1.997 . S
O335 C351 1.235 . S
O336 Fe330 2.002 . S
O336 C337 1.295 . S
C337 O336 1.295 . S
C337 O339 1.235 . S
C338 O343 1.287 . S
C338 O344 1.255 . S
O339 Fe331 1.997 . S
O339 C337 1.235 . S
C340 O346 1.287 . S
C340 O347 1.255 . S
O341 Fe330 1.976 . S
O341 C348 1.287 . S
O342 Fe331 1.996 . S
O342 C348 1.255 . S
O343 Fe333 1.976 . S
O343 C338 1.287 . S
O344 Fe330 1.996 . S
O344 C338 1.255 . S
C345 O349 1.303 . S
C345 O350 1.244 . S
O346 Fe331 1.976 . S
O346 C340 1.287 . S
O347 Fe333 1.996 . S
O347 C340 1.255 . S
C348 O341 1.287 . S
C348 O342 1.255 . S
O349 Fe331 2.002 . S
O349 C345 1.303 . S
O350 Fe333 1.997 . S
O350 C345 1.244 . S
C351 O334 1.295 . S
C351 O335 1.235 . S
Fe352 O354 1.918 . S
Fe352 O357 1.997 . S
Fe352 O358 2.002 . S
Fe352 O363 1.976 . S
Fe352 O366 1.996 . S
Fe353 O354 1.918 . S
Fe353 O361 1.997 . S
Fe353 O364 1.996 . S
Fe353 O368 1.976 . S
Fe353 O371 2.002 . S
O354 Fe352 1.918 . S
O354 Fe353 1.918 . S
O354 Fe355 1.918 . S
Fe355 O354 1.918 . S
Fe355 O356 2.002 . S
Fe355 O365 1.976 . S
Fe355 O369 1.996 . S
Fe355 O372 1.997 . S
O356 Fe355 2.002 . S
O356 C373 1.295 . S
O357 Fe352 1.997 . S
O357 C373 1.235 . S
O358 Fe352 2.002 . S
O358 C359 1.295 . S
C359 O358 1.295 . S
C359 O361 1.235 . S
C360 O365 1.287 . S
C360 O366 1.255 . S
O361 Fe353 1.997 . S
O361 C359 1.235 . S
C362 O368 1.287 . S
C362 O369 1.255 . S
O363 Fe352 1.976 . S
O363 C370 1.287 . S
O364 Fe353 1.996 . S
O364 C370 1.255 . S
O365 Fe355 1.976 . S
O365 C360 1.287 . S
O366 Fe352 1.996 . S
O366 C360 1.255 . S
C367 O371 1.293 1_545 S
C367 O372 1.234 1_545 S
O368 Fe353 1.976 . S
O368 C362 1.287 . S
O369 Fe355 1.996 . S
O369 C362 1.255 . S
C370 O363 1.287 . S
C370 O364 1.255 . S
O371 Fe353 2.002 . S
O371 C367 1.293 1_565 S
O372 Fe355 1.997 . S
O372 C367 1.234 1_565 S
C373 O356 1.295 . S
C373 O357 1.235 . S
Fe374 O376 1.918 . S
Fe374 O379 1.997 . S
Fe374 O380 2.002 . S
Fe374 O385 1.976 . S
Fe374 O388 1.996 . S
Fe375 O376 1.918 . S
Fe375 O383 1.997 . S
Fe375 O386 1.996 . S
Fe375 O390 1.976 . S
Fe375 O393 2.002 . S
O376 Fe374 1.918 . S
O376 Fe375 1.918 . S
O376 Fe377 1.918 . S
Fe377 O376 1.918 . S
Fe377 O378 2.002 . S
Fe377 O387 1.976 . S
Fe377 O391 1.996 . S
Fe377 O394 1.997 . S
O378 Fe377 2.002 . S
O378 C395 1.295 . S
O379 Fe374 1.997 . S
O379 C395 1.235 . S
O380 Fe374 2.002 . S
O380 C381 1.295 . S
C381 O380 1.295 . S
C381 O383 1.235 . S
C382 O387 1.287 . S
C382 O388 1.255 . S
O383 Fe375 1.997 . S
O383 C381 1.235 . S
C384 O390 1.287 . S
C384 O391 1.255 . S
O385 Fe374 1.976 . S
O385 C392 1.287 . S
O386 Fe375 1.996 . S
O386 C392 1.255 . S
O387 Fe377 1.976 . S
O387 C382 1.287 . S
O388 Fe374 1.996 . S
O388 C382 1.255 . S
C389 O393 1.293 . S
C389 O394 1.234 . S
O390 Fe375 1.976 . S
O390 C384 1.287 . S
O391 Fe377 1.996 . S
O391 C384 1.255 . S
C392 O385 1.287 . S
C392 O386 1.255 . S
O393 Fe375 2.002 . S
O393 C389 1.293 . S
O394 Fe377 1.997 . S
O394 C389 1.234 . S
C395 O378 1.295 . S
C395 O379 1.235 . S
Fe396 O398 1.918 . S
Fe396 O401 1.997 . S
Fe396 O402 2.002 . S
Fe396 O407 1.976 . S
Fe396 O410 1.996 . S
Fe397 O398 1.918 . S
Fe397 O405 1.997 . S
Fe397 O408 1.996 . S
Fe397 O412 1.976 . S
Fe397 O415 2.002 . S
O398 Fe396 1.918 . S
O398 Fe397 1.918 . S
O398 Fe399 1.918 . S
Fe399 O398 1.918 . S
Fe399 O400 2.002 . S
Fe399 O409 1.976 . S
Fe399 O413 1.996 . S
Fe399 O416 1.997 . S
O400 Fe399 2.002 . S
O400 C417 1.295 . S
O401 Fe396 1.997 . S
O401 C417 1.235 . S
O402 Fe396 2.002 . S
O402 C403 1.295 . S
C403 O402 1.295 . S
C403 O405 1.235 . S
C404 O409 1.287 . S
C404 O410 1.255 . S
O405 Fe397 1.997 . S
O405 C403 1.235 . S
C406 O412 1.287 . S
C406 O413 1.255 . S
O407 Fe396 1.976 . S
O407 C414 1.287 . S
O408 Fe397 1.996 . S
O408 C414 1.255 . S
O409 Fe399 1.976 . S
O409 C404 1.287 . S
O410 Fe396 1.996 . S
O410 C404 1.255 . S
C411 O415 1.295 . S
C411 O416 1.235 . S
O412 Fe397 1.976 . S
O412 C406 1.287 . S
O413 Fe399 1.996 . S
O413 C406 1.255 . S
C414 O407 1.287 . S
C414 O408 1.255 . S
O415 Fe397 2.002 . S
O415 C411 1.295 . S
O416 Fe399 1.997 . S
O416 C411 1.235 . S
C417 O400 1.295 . S
C417 O401 1.235 . S
Fe418 O420 1.918 . S
Fe418 O423 1.997 . S
Fe418 O424 2.002 . S
Fe418 O429 1.976 . S
Fe418 O432 1.996 . S
Fe419 O420 1.918 . S
Fe419 O427 1.997 . S
Fe419 O430 1.996 . S
Fe419 O434 1.976 . S
Fe419 O437 2.002 . S
O420 Fe418 1.918 . S
O420 Fe419 1.918 . S
O420 Fe421 1.918 . S
Fe421 O420 1.918 . S
Fe421 O422 2.002 . S
Fe421 O431 1.976 . S
Fe421 O435 1.996 . S
Fe421 O438 1.997 . S
O422 Fe421 2.002 . S
O422 C439 1.295 . S
O423 Fe418 1.997 . S
O423 C439 1.235 . S
O424 Fe418 2.002 . S
O424 C425 1.295 . S
C425 O424 1.295 . S
C425 O427 1.235 . S
C426 O431 1.287 . S
C426 O432 1.255 . S
O427 Fe419 1.997 . S
O427 C425 1.235 . S
C428 O434 1.287 . S
C428 O435 1.255 . S
O429 Fe418 1.976 . S
O429 C436 1.287 . S
O430 Fe419 1.996 . S
O430 C436 1.255 . S
O431 Fe421 1.976 . S
O431 C426 1.287 . S
O432 Fe418 1.996 . S
O432 C426 1.255 . S
C433 O437 1.295 . S
C433 O438 1.235 . S
O434 Fe419 1.976 . S
O434 C428 1.287 . S
O435 Fe421 1.996 . S
O435 C428 1.255 . S
C436 O429 1.287 . S
C436 O430 1.255 . S
O437 Fe419 2.002 . S
O437 C433 1.295 . S
O438 Fe421 1.997 . S
O438 C433 1.235 . S
C439 O422 1.295 . S
C439 O423 1.235 . S
Fe440 O442 1.918 . S
Fe440 O445 1.997 . S
Fe440 O446 2.002 . S
Fe440 O451 1.976 . S
Fe440 O454 1.996 . S
Fe441 O442 1.918 . S
Fe441 O449 1.997 . S
Fe441 O452 1.996 . S
Fe441 O456 1.976 . S
Fe441 O459 2.002 . S
O442 Fe440 1.918 . S
O442 Fe441 1.918 . S
O442 Fe443 1.918 . S
Fe443 O442 1.918 . S
Fe443 O444 2.002 . S
Fe443 O453 1.976 . S
Fe443 O457 1.996 . S
Fe443 O460 1.997 . S
O444 Fe443 2.002 . S
O444 C461 1.295 . S
O445 Fe440 1.997 . S
O445 C461 1.235 . S
O446 Fe440 2.002 . S
O446 C447 1.295 . S
C447 O446 1.295 . S
C447 O449 1.235 . S
C448 O453 1.287 . S
C448 O454 1.255 . S
O449 Fe441 1.997 . S
O449 C447 1.235 . S
C450 O456 1.287 . S
C450 O457 1.255 . S
O451 Fe440 1.976 . S
O451 C458 1.287 . S
O452 Fe441 1.996 . S
O452 C458 1.255 . S
O453 Fe443 1.976 . S
O453 C448 1.287 . S
O454 Fe440 1.996 . S
O454 C448 1.255 . S
C455 O459 1.296 1_554 S
C455 O460 1.236 1_554 S
O456 Fe441 1.976 . S
O456 C450 1.287 . S
O457 Fe443 1.996 . S
O457 C450 1.255 . S
C458 O451 1.287 . S
C458 O452 1.255 . S
O459 Fe441 2.002 . S
O459 C455 1.296 1_556 S
O460 Fe443 1.997 . S
O460 C455 1.236 1_556 S
C461 O444 1.295 . S
C461 O445 1.235 . S
Fe462 O464 1.918 . S
Fe462 O467 1.997 . S
Fe462 O468 2.002 . S
Fe462 O473 1.976 . S
Fe462 O476 1.996 . S
Fe463 O464 1.918 . S
Fe463 O471 1.997 . S
Fe463 O474 1.996 . S
Fe463 O478 1.976 . S
Fe463 O481 2.002 . S
O464 Fe462 1.918 . S
O464 Fe463 1.918 . S
O464 Fe465 1.918 . S
Fe465 O464 1.918 . S
Fe465 O466 2.002 . S
Fe465 O475 1.976 . S
Fe465 O479 1.996 . S
Fe465 O482 1.997 . S
O466 Fe465 2.002 . S
O466 C483 1.295 . S
O467 Fe462 1.997 . S
O467 C483 1.235 . S
O468 Fe462 2.002 . S
O468 C469 1.295 . S
C469 O468 1.295 . S
C469 O471 1.235 . S
C470 O475 1.287 . S
C470 O476 1.255 . S
O471 Fe463 1.997 . S
O471 C469 1.235 . S
C472 O478 1.287 . S
C472 O479 1.255 . S
O473 Fe462 1.976 . S
O473 C480 1.287 . S
O474 Fe463 1.996 . S
O474 C480 1.255 . S
O475 Fe465 1.976 . S
O475 C470 1.287 . S
O476 Fe462 1.996 . S
O476 C470 1.255 . S
C477 O481 1.304 . S
C477 O482 1.244 . S
O478 Fe463 1.976 . S
O478 C472 1.287 . S
O479 Fe465 1.996 . S
O479 C472 1.255 . S
C480 O473 1.287 . S
C480 O474 1.255 . S
O481 Fe463 2.002 . S
O481 C477 1.304 . S
O482 Fe465 1.997 . S
O482 C477 1.244 . S
C483 O466 1.295 . S
C483 O467 1.235 . S
Fe484 O486 1.918 . S
Fe484 O489 1.997 . S
Fe484 O490 2.002 . S
Fe484 O495 1.976 . S
Fe484 O498 1.996 . S
Fe485 O486 1.918 . S
Fe485 O493 1.997 . S
Fe485 O496 1.996 . S
Fe485 O500 1.976 . S
Fe485 O503 2.002 . S
O486 Fe484 1.918 . S
O486 Fe485 1.918 . S
O486 Fe487 1.918 . S
Fe487 O486 1.918 . S
Fe487 O488 2.002 . S
Fe487 O497 1.976 . S
Fe487 O501 1.996 . S
Fe487 O504 1.997 . S
O488 Fe487 2.002 . S
O488 C505 1.295 . S
O489 Fe484 1.997 . S
O489 C505 1.235 . S
O490 Fe484 2.002 . S
O490 C491 1.295 . S
C491 O490 1.295 . S
C491 O493 1.235 . S
C492 O497 1.287 . S
C492 O498 1.255 . S
O493 Fe485 1.997 . S
O493 C491 1.235 . S
C494 O500 1.287 . S
C494 O501 1.255 . S
O495 Fe484 1.976 . S
O495 C502 1.287 . S
O496 Fe485 1.996 . S
O496 C502 1.255 . S
O497 Fe487 1.976 . S
O497 C492 1.287 . S
O498 Fe484 1.996 . S
O498 C492 1.255 . S
C499 O503 1.295 . S
C499 O504 1.235 . S
O500 Fe485 1.976 . S
O500 C494 1.287 . S
O501 Fe487 1.996 . S
O501 C494 1.255 . S
C502 O495 1.287 . S
C502 O496 1.255 . S
O503 Fe485 2.002 . S
O503 C499 1.295 . S
O504 Fe487 1.997 . S
O504 C499 1.235 . S
C505 O488 1.295 . S
C505 O489 1.235 . S
Fe506 O508 1.918 . S
Fe506 O511 1.997 . S
Fe506 O512 2.002 . S
Fe506 O517 1.976 . S
Fe506 O520 1.996 . S
Fe507 O508 1.918 . S
Fe507 O515 1.997 . S
Fe507 O518 1.996 . S
Fe507 O522 1.976 . S
Fe507 O525 2.002 . S
O508 Fe506 1.918 . S
O508 Fe507 1.918 . S
O508 Fe509 1.918 . S
Fe509 O508 1.918 . S
Fe509 O510 2.002 . S
Fe509 O519 1.976 . S
Fe509 O523 1.996 . S
Fe509 O526 1.997 . S
O510 Fe509 2.002 . S
O510 C527 1.295 . S
O511 Fe506 1.997 . S
O511 C527 1.235 . S
O512 Fe506 2.002 . S
O512 C513 1.295 . S
C513 O512 1.295 . S
C513 O515 1.235 . S
C514 O519 1.287 . S
C514 O520 1.255 . S
O515 Fe507 1.997 . S
O515 C513 1.235 . S
C516 O522 1.287 . S
C516 O523 1.255 . S
O517 Fe506 1.976 . S
O517 C524 1.287 . S
O518 Fe507 1.996 . S
O518 C524 1.255 . S
O519 Fe509 1.976 . S
O519 C514 1.287 . S
O520 Fe506 1.996 . S
O520 C514 1.255 . S
C521 O525 1.295 . S
C521 O526 1.235 . S
O522 Fe507 1.976 . S
O522 C516 1.287 . S
O523 Fe509 1.996 . S
O523 C516 1.255 . S
C524 O517 1.287 . S
C524 O518 1.255 . S
O525 Fe507 2.002 . S
O525 C521 1.295 . S
O526 Fe509 1.997 . S
O526 C521 1.235 . S
C527 O510 1.295 . S
C527 O511 1.235 . S
H528 C534 0.930 . S
H529 C538 0.930 . S
H530 C543 0.929 . S
H531 C541 0.929 . S
H532 C536 0.929 . S
H533 C542 0.929 . S
C534 H528 0.930 . S
C534 C535 1.367 . S
C534 C542 1.378 . S
C535 C534 1.367 . S
C535 C543 1.433 . S
C536 H532 0.929 . S
C536 C538 1.378 . S
C536 C540 1.350 . S
C537 C540 1.463 . S
C537 C542 1.350 . S
C537 N545 1.427 . S
C538 H529 0.930 . S
C538 C536 1.378 . S
C538 C539 1.367 . S
C539 C538 1.367 . S
C539 C541 1.433 . S
C540 C536 1.350 . S
C540 C537 1.463 . S
C540 N544 1.427 . S
C541 H531 0.929 . S
C541 C539 1.433 . S
C541 N544 1.384 . S
C542 H533 0.929 . S
C542 C534 1.378 . S
C542 C537 1.350 . S
C543 H530 0.929 . S
C543 C535 1.433 . S
C543 N545 1.384 . S
N544 C540 1.427 . S
N544 C541 1.384 . S
N545 C537 1.427 . S
N545 C543 1.384 . S
H546 C552 0.930 . S
H547 C556 0.930 . S
H548 C561 0.929 . S
H549 C559 0.929 . S
H550 C554 0.929 . S
H551 C560 0.929 . S
C552 H546 0.930 . S
C552 C553 1.367 . S
C552 C560 1.378 . S
C553 C552 1.367 . S
C553 C561 1.433 . S
C554 H550 0.929 . S
C554 C556 1.378 . S
C554 C558 1.350 . S
C555 C558 1.463 . S
C555 C560 1.350 . S
C555 N563 1.427 . S
C556 H547 0.930 . S
C556 C554 1.378 . S
C556 C557 1.367 . S
C557 C556 1.367 . S
C557 C559 1.433 . S
C558 C554 1.350 . S
C558 C555 1.463 . S
C558 N562 1.427 . S
C559 H549 0.929 . S
C559 C557 1.433 . S
C559 N562 1.384 . S
C560 H551 0.929 . S
C560 C552 1.378 . S
C560 C555 1.350 . S
C561 H548 0.929 . S
C561 C553 1.433 . S
C561 N563 1.384 . S
N562 C558 1.427 . S
N562 C559 1.384 . S
N563 C555 1.427 . S
N563 C561 1.384 . S
H564 C570 0.930 . S
H565 C574 0.930 . S
H566 C579 0.929 . S
H567 C577 0.929 . S
H568 C572 0.929 . S
H569 C578 0.929 . S
C570 H564 0.930 . S
C570 C571 1.367 . S
C570 C578 1.378 . S
C571 C570 1.367 . S
C571 C579 1.433 . S
C572 H568 0.929 . S
C572 C574 1.378 . S
C572 C576 1.350 . S
C573 C576 1.463 . S
C573 C578 1.350 . S
C573 N581 1.427 . S
C574 H565 0.930 . S
C574 C572 1.378 . S
C574 C575 1.367 . S
C575 C574 1.367 . S
C575 C577 1.433 . S
C576 C572 1.350 . S
C576 C573 1.463 . S
C576 N580 1.427 . S
C577 H567 0.929 . S
C577 C575 1.433 . S
C577 N580 1.384 . S
C578 H569 0.929 . S
C578 C570 1.378 . S
C578 C573 1.350 . S
C579 H566 0.929 . S
C579 C571 1.433 . S
C579 N581 1.384 . S
N580 C576 1.427 . S
N580 C577 1.384 . S
N581 C573 1.427 . S
N581 C579 1.384 . S
H582 C588 0.930 . S
H583 C592 0.930 . S
H584 C597 0.929 . S
H585 C595 0.929 . S
H586 C590 0.929 . S
H587 C596 0.929 . S
C588 H582 0.930 . S
C588 C589 1.367 . S
C588 C596 1.378 . S
C589 C588 1.367 . S
C589 C597 1.433 . S
C590 H586 0.929 . S
C590 C592 1.378 . S
C590 C594 1.350 . S
C591 C594 1.463 . S
C591 C596 1.350 . S
C591 N599 1.427 . S
C592 H583 0.930 . S
C592 C590 1.378 . S
C592 C593 1.367 . S
C593 C592 1.367 . S
C593 C595 1.433 . S
C594 C590 1.350 . S
C594 C591 1.463 . S
C594 N598 1.427 . S
C595 H585 0.929 . S
C595 C593 1.433 . S
C595 N598 1.384 . S
C596 H587 0.929 . S
C596 C588 1.378 . S
C596 C591 1.350 . S
C597 H584 0.929 . S
C597 C589 1.433 . S
C597 N599 1.384 . S
N598 C594 1.427 . S
N598 C595 1.384 . S
N599 C591 1.427 . S
N599 C597 1.384 . S
H600 C606 0.930 . S
H601 C610 0.930 . S
H602 C615 0.929 . S
H603 C613 0.929 . S
H604 C608 0.929 . S
H605 C614 0.929 . S
C606 H600 0.930 . S
C606 C607 1.367 . S
C606 C614 1.378 . S
C607 C606 1.367 . S
C607 C615 1.433 . S
C608 H604 0.929 . S
C608 C610 1.378 . S
C608 C612 1.350 . S
C609 C612 1.463 . S
C609 C614 1.350 . S
C609 N617 1.427 . S
C610 H601 0.930 . S
C610 C608 1.378 . S
C610 C611 1.367 . S
C611 C610 1.367 . S
C611 C613 1.433 . S
C612 C608 1.350 . S
C612 C609 1.463 . S
C612 N616 1.427 . S
C613 H603 0.929 . S
C613 C611 1.433 . S
C613 N616 1.384 . S
C614 H605 0.929 . S
C614 C606 1.378 . S
C614 C609 1.350 . S
C615 H602 0.929 . S
C615 C607 1.433 . S
C615 N617 1.384 . S
N616 C612 1.427 . S
N616 C613 1.384 . S
N617 C609 1.427 . S
N617 C615 1.384 . S
H618 C624 0.930 . S
H619 C628 0.930 . S
H620 C633 0.929 . S
H621 C631 0.929 . S
H622 C626 0.929 . S
H623 C632 0.929 . S
C624 H618 0.930 . S
C624 C625 1.367 . S
C624 C632 1.378 . S
C625 C624 1.367 . S
C625 C633 1.433 . S
C626 H622 0.929 . S
C626 C628 1.378 . S
C626 C630 1.350 . S
C627 C630 1.463 . S
C627 C632 1.350 . S
C627 N635 1.427 . S
C628 H619 0.930 . S
C628 C626 1.378 . S
C628 C629 1.367 . S
C629 C628 1.367 . S
C629 C631 1.433 . S
C630 C626 1.350 . S
C630 C627 1.463 . S
C630 N634 1.427 . S
C631 H621 0.929 . S
C631 C629 1.433 . S
C631 N634 1.384 . S
C632 H623 0.929 . S
C632 C624 1.378 . S
C632 C627 1.350 . S
C633 H620 0.929 . S
C633 C625 1.433 . S
C633 N635 1.384 . S
N634 C630 1.427 . S
N634 C631 1.384 . S
N635 C627 1.427 . S
N635 C633 1.384 . S
H636 C642 0.930 . S
H637 C646 0.930 . S
H638 C651 0.929 . S
H639 C649 0.929 . S
H640 C644 0.929 . S
H641 C650 0.929 . S
C642 H636 0.930 . S
C642 C643 1.367 . S
C642 C650 1.378 . S
C643 C642 1.367 . S
C643 C651 1.433 . S
C644 H640 0.929 . S
C644 C646 1.378 . S
C644 C648 1.350 . S
C645 C648 1.463 . S
C645 C650 1.350 . S
C645 N653 1.427 . S
C646 H637 0.930 . S
C646 C644 1.378 . S
C646 C647 1.367 . S
C647 C646 1.367 . S
C647 C649 1.433 . S
C648 C644 1.350 . S
C648 C645 1.463 . S
C648 N652 1.427 . S
C649 H639 0.929 . S
C649 C647 1.433 . S
C649 N652 1.384 . S
C650 H641 0.929 . S
C650 C642 1.378 . S
C650 C645 1.350 . S
C651 H638 0.929 . S
C651 C643 1.433 . S
C651 N653 1.384 . S
N652 C648 1.427 . S
N652 C649 1.384 . S
N653 C645 1.427 . S
N653 C651 1.384 . S
H654 C660 0.930 . S
H655 C664 0.930 1_556 S
H656 C669 0.929 . S
H657 C667 0.929 . S
H658 C662 0.929 . S
H659 C668 0.929 . S
C660 H654 0.930 . S
C660 C661 1.367 . S
C660 C668 1.378 . S
C661 C660 1.367 . S
C661 C669 1.433 . S
C662 H658 0.929 . S
C662 C664 1.378 . S
C662 C666 1.350 . S
C663 C666 1.463 . S
C663 C668 1.350 . S
C663 N671 1.427 . S
C664 H655 0.930 1_554 S
C664 C662 1.378 . S
C664 C665 1.367 . S
C665 C664 1.367 . S
C665 C667 1.433 . S
C666 C662 1.350 . S
C666 C663 1.463 . S
C666 N670 1.427 . S
C667 H657 0.929 . S
C667 C665 1.433 . S
C667 N670 1.384 . S
C668 H659 0.929 . S
C668 C660 1.378 . S
C668 C663 1.350 . S
C669 H656 0.929 . S
C669 C661 1.433 . S
C669 N671 1.384 . S
N670 C666 1.427 . S
N670 C667 1.384 . S
N671 C663 1.427 . S
N671 C669 1.384 . S
H672 C678 0.930 . S
H673 C682 0.930 . S
H674 C687 0.929 . S
H675 C685 0.929 . S
H676 C680 0.929 . S
H677 C686 0.929 . S
C678 H672 0.930 . S
C678 C679 1.367 . S
C678 C686 1.378 . S
C679 C678 1.367 . S
C679 C687 1.433 . S
C680 H676 0.929 . S
C680 C682 1.378 . S
C680 C684 1.350 . S
C681 C684 1.463 . S
C681 C686 1.350 . S
C681 N689 1.427 . S
C682 H673 0.930 . S
C682 C680 1.378 . S
C682 C683 1.367 . S
C683 C682 1.367 . S
C683 C685 1.433 . S
C684 C680 1.350 . S
C684 C681 1.463 . S
C684 N688 1.427 . S
C685 H675 0.929 . S
C685 C683 1.433 . S
C685 N688 1.384 . S
C686 H677 0.929 . S
C686 C678 1.378 . S
C686 C681 1.350 . S
C687 H674 0.929 . S
C687 C679 1.433 . S
C687 N689 1.384 . S
N688 C684 1.427 . S
N688 C685 1.384 . S
N689 C681 1.427 . S
N689 C687 1.384 . S
H690 C696 0.930 . S
H691 C700 0.930 . S
H692 C705 0.929 . S
H693 C703 0.929 1_455 S
H694 C698 0.929 . S
H695 C704 0.929 . S
C696 H690 0.930 . S
C696 C697 1.367 . S
C696 C704 1.378 . S
C697 C696 1.367 . S
C697 C705 1.433 . S
C698 H694 0.929 . S
C698 C700 1.378 . S
C698 C702 1.350 . S
C699 C702 1.463 . S
C699 C704 1.350 . S
C699 N707 1.427 . S
C700 H691 0.930 . S
C700 C698 1.378 . S
C700 C701 1.367 . S
C701 C700 1.367 . S
C701 C703 1.433 . S
C702 C698 1.350 . S
C702 C699 1.463 . S
C702 N706 1.427 . S
C703 H693 0.929 1_655 S
C703 C701 1.433 . S
C703 N706 1.384 . S
C704 H695 0.929 . S
C704 C696 1.378 . S
C704 C699 1.350 . S
C705 H692 0.929 . S
C705 C697 1.433 . S
C705 N707 1.384 . S
N706 C702 1.427 . S
N706 C703 1.384 . S
N707 C699 1.427 . S
N707 C705 1.384 . S
H708 C714 0.930 . S
H709 C718 0.930 . S
H710 C723 0.929 . S
H711 C721 0.929 . S
H712 C716 0.929 . S
H713 C722 0.929 . S
C714 H708 0.930 . S
C714 C715 1.367 . S
C714 C722 1.378 . S
C715 C714 1.367 . S
C715 C723 1.433 . S
C716 H712 0.929 . S
C716 C718 1.378 . S
C716 C720 1.350 . S
C717 C720 1.463 . S
C717 C722 1.350 . S
C717 N725 1.427 . S
C718 H709 0.930 . S
C718 C716 1.378 . S
C718 C719 1.367 . S
C719 C718 1.367 . S
C719 C721 1.433 . S
C720 C716 1.350 . S
C720 C717 1.463 . S
C720 N724 1.427 . S
C721 H711 0.929 . S
C721 C719 1.433 . S
C721 N724 1.384 . S
C722 H713 0.929 . S
C722 C714 1.378 . S
C722 C717 1.350 . S
C723 H710 0.929 . S
C723 C715 1.433 . S
C723 N725 1.384 . S
N724 C720 1.427 . S
N724 C721 1.384 . S
N725 C717 1.427 . S
N725 C723 1.384 . S
H726 C732 0.930 . S
H727 C736 0.930 . S
H728 C741 0.929 . S
H729 C739 0.929 . S
H730 C734 0.929 . S
H731 C740 0.929 . S
C732 H726 0.930 . S
C732 C733 1.367 . S
C732 C740 1.378 . S
C733 C732 1.367 . S
C733 C741 1.433 . S
C734 H730 0.929 . S
C734 C736 1.378 . S
C734 C738 1.350 . S
C735 C738 1.463 . S
C735 C740 1.350 . S
C735 N743 1.427 . S
C736 H727 0.930 . S
C736 C734 1.378 . S
C736 C737 1.367 . S
C737 C736 1.367 . S
C737 C739 1.433 . S
C738 C734 1.350 . S
C738 C735 1.463 . S
C738 N742 1.427 . S
C739 H729 0.929 . S
C739 C737 1.433 . S
C739 N742 1.384 . S
C740 H731 0.929 . S
C740 C732 1.378 . S
C740 C735 1.350 . S
C741 H728 0.929 . S
C741 C733 1.433 . S
C741 N743 1.384 . S
N742 C738 1.427 . S
N742 C739 1.384 . S
N743 C735 1.427 . S
N743 C741 1.384 . S
H744 C750 0.930 . S
H745 C754 0.930 . S
H746 C759 0.929 . S
H747 C757 0.929 . S
H748 C752 0.929 . S
H749 C758 0.929 . S
C750 H744 0.930 . S
C750 C751 1.367 . S
C750 C758 1.378 . S
C751 C750 1.367 . S
C751 C759 1.433 . S
C752 H748 0.929 . S
C752 C754 1.378 . S
C752 C756 1.350 . S
C753 C756 1.463 . S
C753 C758 1.350 . S
C753 N761 1.427 . S
C754 H745 0.930 . S
C754 C752 1.378 . S
C754 C755 1.367 . S
C755 C754 1.367 . S
C755 C757 1.433 . S
C756 C752 1.350 . S
C756 C753 1.463 . S
C756 N760 1.427 . S
C757 H747 0.929 . S
C757 C755 1.433 . S
C757 N760 1.384 . S
C758 H749 0.929 . S
C758 C750 1.378 . S
C758 C753 1.350 . S
C759 H746 0.929 . S
C759 C751 1.433 . S
C759 N761 1.384 . S
N760 C756 1.427 . S
N760 C757 1.384 . S
N761 C753 1.427 . S
N761 C759 1.384 . S
H762 C768 0.930 . S
H763 C772 0.930 . S
H764 C777 0.929 . S
H765 C775 0.929 . S
H766 C770 0.929 . S
H767 C776 0.929 . S
C768 H762 0.930 . S
C768 C769 1.367 . S
C768 C776 1.378 . S
C769 C768 1.367 . S
C769 C777 1.433 . S
C770 H766 0.929 . S
C770 C772 1.378 . S
C770 C774 1.350 . S
C771 C774 1.463 . S
C771 C776 1.350 . S
C771 N779 1.427 . S
C772 H763 0.930 . S
C772 C770 1.378 . S
C772 C773 1.367 . S
C773 C772 1.367 . S
C773 C775 1.433 . S
C774 C770 1.350 . S
C774 C771 1.463 . S
C774 N778 1.427 . S
C775 H765 0.929 . S
C775 C773 1.433 . S
C775 N778 1.384 . S
C776 H767 0.929 . S
C776 C768 1.378 . S
C776 C771 1.350 . S
C777 H764 0.929 . S
C777 C769 1.433 . S
C777 N779 1.384 . S
N778 C774 1.427 . S
N778 C775 1.384 . S
N779 C771 1.427 . S
N779 C777 1.384 . S
H780 C786 0.930 . S
H781 C790 0.930 . S
H782 C795 0.929 . S
H783 C793 0.939 . S
H784 C788 0.929 . S
H785 C794 0.929 . S
C786 H780 0.930 . S
C786 C787 1.367 . S
C786 C794 1.378 . S
C787 C786 1.367 . S
C787 C795 1.433 . S
C788 H784 0.929 . S
C788 C790 1.378 . S
C788 C792 1.350 . S
C789 C792 1.463 . S
C789 C794 1.350 . S
C789 N797 1.427 . S
C790 H781 0.930 . S
C790 C788 1.378 . S
C790 C791 1.367 . S
C791 C790 1.367 . S
C791 C793 1.433 . S
C792 C788 1.350 . S
C792 C789 1.463 . S
C792 N796 1.427 . S
C793 H783 0.939 . S
C793 C791 1.433 . S
C793 N796 1.384 . S
C794 H785 0.929 . S
C794 C786 1.378 . S
C794 C789 1.350 . S
C795 H782 0.929 . S
C795 C787 1.433 . S
C795 N797 1.384 . S
N796 C792 1.427 . S
N796 C793 1.384 . S
N797 C789 1.427 . S
N797 C795 1.384 . S
H798 C804 0.930 . S
H799 C808 0.930 . S
H800 C813 0.929 . S
H801 C811 0.929 . S
H802 C806 0.929 . S
H803 C812 0.929 . S
C804 H798 0.930 . S
C804 C805 1.367 . S
C804 C812 1.378 . S
C805 C804 1.367 . S
C805 C813 1.433 . S
C806 H802 0.929 . S
C806 C808 1.378 . S
C806 C810 1.350 . S
C807 C810 1.463 . S
C807 C812 1.350 . S
C807 N815 1.427 . S
C808 H799 0.930 . S
C808 C806 1.378 . S
C808 C809 1.367 . S
C809 C808 1.367 . S
C809 C811 1.433 . S
C810 C806 1.350 . S
C810 C807 1.463 . S
C810 N814 1.427 . S
C811 H801 0.929 . S
C811 C809 1.433 . S
C811 N814 1.384 . S
C812 H803 0.929 . S
C812 C804 1.378 . S
C812 C807 1.350 . S
C813 H800 0.929 . S
C813 C805 1.433 . S
C813 N815 1.384 . S
N814 C810 1.427 . S
N814 C811 1.384 . S
N815 C807 1.427 . S
N815 C813 1.384 . S
H816 C822 0.930 . S
H817 C826 0.930 . S
H818 C831 0.929 . S
H819 C829 0.929 . S
H820 C824 0.929 . S
H821 C830 0.929 . S
C822 H816 0.930 . S
C822 C823 1.367 . S
C822 C830 1.378 . S
C823 C822 1.367 . S
C823 C831 1.433 . S
C824 H820 0.929 . S
C824 C826 1.378 . S
C824 C828 1.350 . S
C825 C828 1.463 . S
C825 C830 1.350 . S
C825 N833 1.427 . S
C826 H817 0.930 . S
C826 C824 1.378 . S
C826 C827 1.367 . S
C827 C826 1.367 . S
C827 C829 1.433 . S
C828 C824 1.350 . S
C828 C825 1.463 . S
C828 N832 1.427 . S
C829 H819 0.929 . S
C829 C827 1.433 . S
C829 N832 1.384 . S
C830 H821 0.929 . S
C830 C822 1.378 . S
C830 C825 1.350 . S
C831 H818 0.929 . S
C831 C823 1.433 . S
C831 N833 1.384 . S
N832 C828 1.427 . S
N832 C829 1.384 . S
N833 C825 1.427 . S
N833 C831 1.384 . S
H834 C840 0.930 . S
H835 C844 0.930 . S
H836 C849 0.929 . S
H837 C847 0.929 . S
H838 C842 0.929 . S
H839 C848 0.929 . S
C840 H834 0.930 . S
C840 C841 1.367 . S
C840 C848 1.378 . S
C841 C840 1.367 . S
C841 C849 1.433 . S
C842 H838 0.929 . S
C842 C844 1.378 . S
C842 C846 1.350 . S
C843 C846 1.463 . S
C843 C848 1.350 . S
C843 N851 1.427 . S
C844 H835 0.930 . S
C844 C842 1.378 . S
C844 C845 1.367 . S
C845 C844 1.367 . S
C845 C847 1.433 . S
C846 C842 1.350 . S
C846 C843 1.463 . S
C846 N850 1.427 . S
C847 H837 0.929 . S
C847 C845 1.433 . S
C847 N850 1.384 . S
C848 H839 0.929 . S
C848 C840 1.378 . S
C848 C843 1.350 . S
C849 H836 0.929 . S
C849 C841 1.433 . S
C849 N851 1.384 . S
N850 C846 1.427 . S
N850 C847 1.384 . S
N851 C843 1.427 . S
N851 C849 1.384 . S
H852 C858 0.930 . S
H853 C862 0.930 . S
H854 C867 0.929 . S
H855 C865 0.929 . S
H856 C860 0.929 . S
H857 C866 0.929 . S
C858 H852 0.930 . S
C858 C859 1.367 . S
C858 C866 1.378 . S
C859 C858 1.367 . S
C859 C867 1.433 . S
C860 H856 0.929 . S
C860 C862 1.378 . S
C860 C864 1.350 . S
C861 C864 1.463 . S
C861 C866 1.350 . S
C861 N869 1.427 . S
C862 H853 0.930 . S
C862 C860 1.378 . S
C862 C863 1.367 . S
C863 C862 1.367 . S
C863 C865 1.433 . S
C864 C860 1.350 . S
C864 C861 1.463 . S
C864 N868 1.427 . S
C865 H855 0.929 . S
C865 C863 1.433 . S
C865 N868 1.384 . S
C866 H857 0.929 . S
C866 C858 1.378 . S
C866 C861 1.350 . S
C867 H854 0.929 . S
C867 C859 1.433 . S
C867 N869 1.384 . S
N868 C864 1.427 . S
N868 C865 1.384 . S
N869 C861 1.427 . S
N869 C867 1.384 . S
H870 C876 0.930 . S
H871 C880 0.930 . S
H872 C885 0.929 . S
H873 C883 0.929 . S
H874 C878 0.929 . S
H875 C884 0.929 . S
C876 H870 0.930 . S
C876 C877 1.367 . S
C876 C884 1.378 . S
C877 C876 1.367 . S
C877 C885 1.433 . S
C878 H874 0.929 . S
C878 C880 1.378 . S
C878 C882 1.350 . S
C879 C882 1.463 . S
C879 C884 1.350 . S
C879 N887 1.427 . S
C880 H871 0.930 . S
C880 C878 1.378 . S
C880 C881 1.367 . S
C881 C880 1.367 . S
C881 C883 1.433 . S
C882 C878 1.350 . S
C882 C879 1.463 . S
C882 N886 1.427 . S
C883 H873 0.929 . S
C883 C881 1.433 . S
C883 N886 1.384 . S
C884 H875 0.929 . S
C884 C876 1.378 . S
C884 C879 1.350 . S
C885 H872 0.929 . S
C885 C877 1.433 . S
C885 N887 1.384 . S
N886 C882 1.427 . S
N886 C883 1.384 . S
N887 C879 1.427 . S
N887 C885 1.384 . S
H888 C894 0.930 . S
H889 C898 0.930 . S
H890 C903 0.929 . S
H891 C901 0.929 . S
H892 C896 0.929 . S
H893 C902 0.929 . S
C894 H888 0.930 . S
C894 C895 1.367 . S
C894 C902 1.378 . S
C895 C894 1.367 . S
C895 C903 1.433 . S
C896 H892 0.929 . S
C896 C898 1.378 . S
C896 C900 1.350 . S
C897 C900 1.463 . S
C897 C902 1.350 . S
C897 N905 1.427 . S
C898 H889 0.930 . S
C898 C896 1.378 . S
C898 C899 1.367 . S
C899 C898 1.367 . S
C899 C901 1.433 . S
C900 C896 1.350 . S
C900 C897 1.463 . S
C900 N904 1.427 . S
C901 H891 0.929 . S
C901 C899 1.433 . S
C901 N904 1.384 . S
C902 H893 0.929 . S
C902 C894 1.378 . S
C902 C897 1.350 . S
C903 H890 0.929 . S
C903 C895 1.433 . S
C903 N905 1.384 . S
N904 C900 1.427 . S
N904 C901 1.384 . S
N905 C897 1.427 . S
N905 C903 1.384 . S
H906 C912 0.930 . S
H907 C916 0.930 . S
H908 C921 0.929 . S
H909 C919 0.929 . S
H910 C914 0.929 . S
H911 C920 0.929 . S
C912 H906 0.930 . S
C912 C913 1.367 . S
C912 C920 1.378 . S
C913 C912 1.367 . S
C913 C921 1.433 . S
C914 H910 0.929 . S
C914 C916 1.378 . S
C914 C918 1.350 . S
C915 C918 1.463 . S
C915 C920 1.350 . S
C915 N923 1.427 . S
C916 H907 0.930 . S
C916 C914 1.378 . S
C916 C917 1.367 . S
C917 C916 1.367 . S
C917 C919 1.433 . S
C918 C914 1.350 . S
C918 C915 1.463 . S
C918 N922 1.427 . S
C919 H909 0.929 . S
C919 C917 1.433 . S
C919 N922 1.384 . S
C920 H911 0.929 . S
C920 C912 1.378 . S
C920 C915 1.350 . S
C921 H908 0.929 . S
C921 C913 1.433 . S
C921 N923 1.384 . S
N922 C918 1.427 . S
N922 C919 1.384 . S
N923 C915 1.427 . S
N923 C921 1.384 . S
H924 C930 0.930 . S
H925 C934 0.930 . S
H926 C939 0.929 . S
H927 C937 0.929 . S
H928 C932 0.929 . S
H929 C938 0.929 . S
C930 H924 0.930 . S
C930 C931 1.367 . S
C930 C938 1.378 . S
C931 C930 1.367 . S
C931 C939 1.433 . S
C932 H928 0.929 . S
C932 C934 1.378 . S
C932 C936 1.350 . S
C933 C936 1.463 . S
C933 C938 1.350 . S
C933 N941 1.427 . S
C934 H925 0.930 . S
C934 C932 1.378 . S
C934 C935 1.367 . S
C935 C934 1.367 . S
C935 C937 1.433 . S
C936 C932 1.350 . S
C936 C933 1.463 . S
C936 N940 1.427 . S
C937 H927 0.929 . S
C937 C935 1.433 . S
C937 N940 1.384 . S
C938 H929 0.929 . S
C938 C930 1.378 . S
C938 C933 1.350 . S
C939 H926 0.929 . S
C939 C931 1.433 . S
C939 N941 1.384 . S
N940 C936 1.427 . S
N940 C937 1.384 . S
N941 C933 1.427 . S
N941 C939 1.384 . S
H942 C948 0.930 . S
H943 C952 0.930 . S
H944 C957 0.929 . S
H945 C955 0.929 . S
H946 C950 0.929 . S
H947 C956 0.929 . S
C948 H942 0.930 . S
C948 C949 1.367 . S
C948 C956 1.378 . S
C949 C948 1.367 . S
C949 C957 1.433 . S
C950 H946 0.929 . S
C950 C952 1.378 . S
C950 C954 1.350 . S
C951 C954 1.463 . S
C951 C956 1.350 . S
C951 N959 1.427 . S
C952 H943 0.930 . S
C952 C950 1.378 . S
C952 C953 1.367 . S
C953 C952 1.367 . S
C953 C955 1.433 . S
C954 C950 1.350 . S
C954 C951 1.463 . S
C954 N958 1.427 . S
C955 H945 0.929 . S
C955 C953 1.433 . S
C955 N958 1.384 . S
C956 H947 0.929 . S
C956 C948 1.378 . S
C956 C951 1.350 . S
C957 H944 0.929 . S
C957 C949 1.433 . S
C957 N959 1.384 . S
N958 C954 1.427 . S
N958 C955 1.384 . S
N959 C951 1.427 . S
N959 C957 1.384 . S
H960 C966 0.930 . S
H961 C970 0.930 . S
H962 C975 0.929 . S
H963 C973 0.929 . S
H964 C968 0.929 . S
H965 C974 0.929 . S
C966 H960 0.930 . S
C966 C967 1.367 . S
C966 C974 1.378 . S
C967 C966 1.367 . S
C967 C975 1.433 . S
C968 H964 0.929 . S
C968 C970 1.378 . S
C968 C972 1.350 . S
C969 C972 1.463 . S
C969 C974 1.350 . S
C969 N977 1.427 . S
C970 H961 0.930 . S
C970 C968 1.378 . S
C970 C971 1.367 . S
C971 C970 1.367 . S
C971 C973 1.433 . S
C972 C968 1.350 . S
C972 C969 1.463 . S
C972 N976 1.427 . S
C973 H963 0.929 . S
C973 C971 1.433 . S
C973 N976 1.384 . S
C974 H965 0.929 . S
C974 C966 1.378 . S
C974 C969 1.350 . S
C975 H962 0.929 . S
C975 C967 1.433 . S
C975 N977 1.384 . S
N976 C972 1.427 . S
N976 C973 1.384 . S
N977 C969 1.427 . S
N977 C975 1.384 . S
H978 C984 0.930 . S
H979 C988 0.930 . S
H980 C993 0.929 . S
H981 C991 0.929 . S
H982 C986 0.929 . S
H983 C992 0.929 . S
C984 H978 0.930 . S
C984 C985 1.367 . S
C984 C992 1.378 . S
C985 C984 1.367 . S
C985 C993 1.433 . S
C986 H982 0.929 . S
C986 C988 1.378 . S
C986 C990 1.350 . S
C987 C990 1.463 . S
C987 C992 1.350 . S
C987 N995 1.427 . S
C988 H979 0.930 . S
C988 C986 1.378 . S
C988 C989 1.367 . S
C989 C988 1.367 . S
C989 C991 1.433 . S
C990 C986 1.350 . S
C990 C987 1.463 . S
C990 N994 1.427 . S
C991 H981 0.929 . S
C991 C989 1.433 . S
C991 N994 1.384 . S
C992 H983 0.929 . S
C992 C984 1.378 . S
C992 C987 1.350 . S
C993 H980 0.929 . S
C993 C985 1.433 . S
C993 N995 1.384 . S
N994 C990 1.427 . S
N994 C991 1.384 . S
N995 C987 1.427 . S
N995 C993 1.384 . S
H996 C1002 0.930 . S
H997 C1006 0.930 . S
H998 C1011 0.929 . S
H999 C1009 0.929 . S
H1000 C1004 0.929 . S
H1001 C1010 0.929 . S
C1002 H996 0.930 . S
C1002 C1003 1.367 . S
C1002 C1010 1.378 . S
C1003 C1002 1.367 . S
C1003 C1011 1.433 . S
C1004 H1000 0.929 . S
C1004 C1006 1.378 . S
C1004 C1008 1.350 . S
C1005 C1008 1.463 . S
C1005 C1010 1.350 . S
C1005 N1013 1.427 . S
C1006 H997 0.930 . S
C1006 C1004 1.378 . S
C1006 C1007 1.367 . S
C1007 C1006 1.367 . S
C1007 C1009 1.433 . S
C1008 C1004 1.350 . S
C1008 C1005 1.463 . S
C1008 N1012 1.427 . S
C1009 H999 0.929 . S
C1009 C1007 1.433 . S
C1009 N1012 1.384 . S
C1010 H1001 0.929 . S
C1010 C1002 1.378 . S
C1010 C1005 1.350 . S
C1011 H998 0.929 . S
C1011 C1003 1.433 . S
C1011 N1013 1.384 . S
N1012 C1008 1.427 . S
N1012 C1009 1.384 . S
N1013 C1005 1.427 . S
N1013 C1011 1.384 . S
H1014 C1020 0.930 . S
H1015 C1024 0.930 . S
H1016 C1029 0.929 . S
H1017 C1027 0.929 . S
H1018 C1022 0.929 . S
H1019 C1028 0.929 . S
C1020 H1014 0.930 . S
C1020 C1021 1.367 . S
C1020 C1028 1.378 . S
C1021 C1020 1.367 . S
C1021 C1029 1.433 . S
C1022 H1018 0.929 . S
C1022 C1024 1.378 . S
C1022 C1026 1.350 . S
C1023 C1026 1.463 . S
C1023 C1028 1.350 . S
C1023 N1031 1.427 . S
C1024 H1015 0.930 . S
C1024 C1022 1.378 . S
C1024 C1025 1.367 . S
C1025 C1024 1.367 . S
C1025 C1027 1.433 . S
C1026 C1022 1.350 . S
C1026 C1023 1.463 . S
C1026 N1030 1.427 . S
C1027 H1017 0.929 . S
C1027 C1025 1.433 . S
C1027 N1030 1.384 . S
C1028 H1019 0.929 . S
C1028 C1020 1.378 . S
C1028 C1023 1.350 . S
C1029 H1016 0.929 . S
C1029 C1021 1.433 . S
C1029 N1031 1.384 . S
N1030 C1026 1.427 . S
N1030 C1027 1.384 . S
N1031 C1023 1.427 . S
N1031 C1029 1.384 . S
H1032 C1038 0.930 . S
H1033 C1042 0.930 . S
H1034 C1047 0.929 . S
H1035 C1045 0.929 . S
H1036 C1040 0.929 . S
H1037 C1046 0.929 . S
C1038 H1032 0.930 . S
C1038 C1039 1.367 . S
C1038 C1046 1.378 . S
C1039 C1038 1.367 . S
C1039 C1047 1.433 . S
C1040 H1036 0.929 . S
C1040 C1042 1.378 . S
C1040 C1044 1.350 . S
C1041 C1044 1.463 . S
C1041 C1046 1.350 . S
C1041 N1049 1.427 . S
C1042 H1033 0.930 . S
C1042 C1040 1.378 . S
C1042 C1043 1.367 . S
C1043 C1042 1.367 . S
C1043 C1045 1.433 . S
C1044 C1040 1.350 . S
C1044 C1041 1.463 . S
C1044 N1048 1.427 . S
C1045 H1035 0.929 . S
C1045 C1043 1.433 . S
C1045 N1048 1.384 . S
C1046 H1037 0.929 . S
C1046 C1038 1.378 . S
C1046 C1041 1.350 . S
C1047 H1034 0.929 . S
C1047 C1039 1.433 . S
C1047 N1049 1.384 . S
N1048 C1044 1.427 . S
N1048 C1045 1.384 . S
N1049 C1041 1.427 . S
N1049 C1047 1.384 . S
H1050 C1056 0.930 . S
H1051 C1060 0.930 . S
H1052 C1065 0.929 . S
H1053 C1063 0.929 . S
H1054 C1058 0.929 . S
H1055 C1064 0.929 . S
C1056 H1050 0.930 . S
C1056 C1057 1.367 . S
C1056 C1064 1.378 . S
C1057 C1056 1.367 . S
C1057 C1065 1.433 . S
C1058 H1054 0.929 . S
C1058 C1060 1.378 . S
C1058 C1062 1.350 . S
C1059 C1062 1.463 . S
C1059 C1064 1.350 . S
C1059 N1067 1.427 . S
C1060 H1051 0.930 . S
C1060 C1058 1.378 . S
C1060 C1061 1.367 . S
C1061 C1060 1.367 . S
C1061 C1063 1.433 . S
C1062 C1058 1.350 . S
C1062 C1059 1.463 . S
C1062 N1066 1.427 . S
C1063 H1053 0.929 . S
C1063 C1061 1.433 . S
C1063 N1066 1.384 . S
C1064 H1055 0.929 . S
C1064 C1056 1.378 . S
C1064 C1059 1.350 . S
C1065 H1052 0.929 . S
C1065 C1057 1.433 . S
C1065 N1067 1.384 . S
N1066 C1062 1.427 . S
N1066 C1063 1.384 . S
N1067 C1059 1.427 . S
N1067 C1065 1.384 . S
H1068 C1074 0.930 . S
H1069 C1078 0.930 . S
H1070 C1083 0.929 . S
H1071 C1081 0.929 . S
H1072 C1076 0.929 . S
H1073 C1082 0.929 . S
C1074 H1068 0.930 . S
C1074 C1075 1.367 . S
C1074 C1082 1.378 . S
C1075 C1074 1.367 . S
C1075 C1083 1.433 . S
C1076 H1072 0.929 . S
C1076 C1078 1.378 . S
C1076 C1080 1.350 . S
C1077 C1080 1.463 . S
C1077 C1082 1.350 . S
C1077 N1085 1.427 . S
C1078 H1069 0.930 . S
C1078 C1076 1.378 . S
C1078 C1079 1.367 . S
C1079 C1078 1.367 . S
C1079 C1081 1.433 . S
C1080 C1076 1.350 . S
C1080 C1077 1.463 . S
C1080 N1084 1.427 . S
C1081 H1071 0.929 . S
C1081 C1079 1.433 . S
C1081 N1084 1.384 . S
C1082 H1073 0.929 . S
C1082 C1074 1.378 . S
C1082 C1077 1.350 . S
C1083 H1070 0.929 . S
C1083 C1075 1.433 . S
C1083 N1085 1.384 . S
N1084 C1080 1.427 . S
N1084 C1081 1.384 . S
N1085 C1077 1.427 . S
N1085 C1083 1.384 . S
H1086 C1092 0.930 . S
H1087 C1096 0.930 . S
H1088 C1101 0.929 . S
H1089 C1099 0.929 . S
H1090 C1094 0.929 . S
H1091 C1100 0.929 . S
C1092 H1086 0.930 . S
C1092 C1093 1.367 . S
C1092 C1100 1.378 . S
C1093 C1092 1.367 . S
C1093 C1101 1.433 . S
C1094 H1090 0.929 . S
C1094 C1096 1.378 . S
C1094 C1098 1.350 . S
C1095 C1098 1.463 . S
C1095 C1100 1.350 . S
C1095 N1103 1.427 . S
C1096 H1087 0.930 . S
C1096 C1094 1.378 . S
C1096 C1097 1.367 . S
C1097 C1096 1.367 . S
C1097 C1099 1.433 . S
C1098 C1094 1.350 . S
C1098 C1095 1.463 . S
C1098 N1102 1.427 . S
C1099 H1089 0.929 . S
C1099 C1097 1.433 . S
C1099 N1102 1.384 . S
C1100 H1091 0.929 . S
C1100 C1092 1.378 . S
C1100 C1095 1.350 . S
C1101 H1088 0.929 . S
C1101 C1093 1.433 . S
C1101 N1103 1.384 . S
N1102 C1098 1.427 . S
N1102 C1099 1.384 . S
N1103 C1095 1.427 . S
N1103 C1101 1.384 . S
H1104 C1110 0.930 . S
H1105 C1114 0.930 . S
H1106 C1119 0.929 . S
H1107 C1117 0.929 . S
H1108 C1112 0.929 . S
H1109 C1118 0.929 . S
C1110 H1104 0.930 . S
C1110 C1111 1.367 . S
C1110 C1118 1.378 . S
C1111 C1110 1.367 . S
C1111 C1119 1.433 . S
C1112 H1108 0.929 . S
C1112 C1114 1.378 . S
C1112 C1116 1.350 . S
C1113 C1116 1.463 . S
C1113 C1118 1.350 . S
C1113 N1121 1.427 . S
C1114 H1105 0.930 . S
C1114 C1112 1.378 . S
C1114 C1115 1.367 . S
C1115 C1114 1.367 . S
C1115 C1117 1.433 . S
C1116 C1112 1.350 . S
C1116 C1113 1.463 . S
C1116 N1120 1.427 . S
C1117 H1107 0.929 . S
C1117 C1115 1.433 . S
C1117 N1120 1.384 . S
C1118 H1109 0.929 . S
C1118 C1110 1.378 . S
C1118 C1113 1.350 . S
C1119 H1106 0.929 . S
C1119 C1111 1.433 . S
C1119 N1121 1.384 . S
N1120 C1116 1.427 . S
N1120 C1117 1.384 . S
N1121 C1113 1.427 . S
N1121 C1119 1.384 . S
H1122 C1128 0.930 . S
H1123 C1132 0.930 . S
H1124 C1137 0.929 . S
H1125 C1135 0.929 . S
H1126 C1130 0.929 . S
H1127 C1136 0.929 . S
C1128 H1122 0.930 . S
C1128 C1129 1.367 . S
C1128 C1136 1.378 . S
C1129 C1128 1.367 . S
C1129 C1137 1.433 . S
C1130 H1126 0.929 . S
C1130 C1132 1.378 . S
C1130 C1134 1.350 . S
C1131 C1134 1.463 . S
C1131 C1136 1.350 . S
C1131 N1139 1.427 . S
C1132 H1123 0.930 . S
C1132 C1130 1.378 . S
C1132 C1133 1.367 . S
C1133 C1132 1.367 . S
C1133 C1135 1.433 . S
C1134 C1130 1.350 . S
C1134 C1131 1.463 . S
C1134 N1138 1.427 . S
C1135 H1125 0.929 . S
C1135 C1133 1.433 . S
C1135 N1138 1.384 . S
C1136 H1127 0.929 . S
C1136 C1128 1.378 . S
C1136 C1131 1.350 . S
C1137 H1124 0.929 . S
C1137 C1129 1.433 . S
C1137 N1139 1.384 . S
N1138 C1134 1.427 . S
N1138 C1135 1.384 . S
N1139 C1131 1.427 . S
N1139 C1137 1.384 . S
H1140 C1146 0.930 . S
H1141 C1150 0.930 . S
H1142 C1155 0.929 . S
H1143 C1153 0.929 . S
H1144 C1148 0.929 . S
H1145 C1154 0.929 . S
C1146 H1140 0.930 . S
C1146 C1147 1.367 . S
C1146 C1154 1.378 . S
C1147 C1146 1.367 . S
C1147 C1155 1.433 . S
C1148 H1144 0.929 . S
C1148 C1150 1.378 . S
C1148 C1152 1.350 . S
C1149 C1152 1.463 . S
C1149 C1154 1.350 . S
C1149 N1157 1.427 . S
C1150 H1141 0.930 . S
C1150 C1148 1.378 . S
C1150 C1151 1.367 . S
C1151 C1150 1.367 . S
C1151 C1153 1.433 . S
C1152 C1148 1.350 . S
C1152 C1149 1.463 . S
C1152 N1156 1.427 . S
C1153 H1143 0.929 . S
C1153 C1151 1.433 . S
C1153 N1156 1.384 . S
C1154 H1145 0.929 . S
C1154 C1146 1.378 . S
C1154 C1149 1.350 . S
C1155 H1142 0.929 . S
C1155 C1147 1.433 . S
C1155 N1157 1.384 . S
N1156 C1152 1.427 . S
N1156 C1153 1.384 . S
N1157 C1149 1.427 . S
N1157 C1155 1.384 . S
H1158 C1164 0.930 . S
H1159 C1168 0.930 . S
H1160 C1173 0.929 . S
H1161 C1171 0.929 . S
H1162 C1166 0.929 . S
H1163 C1172 0.929 . S
C1164 H1158 0.930 . S
C1164 C1165 1.367 . S
C1164 C1172 1.378 . S
C1165 C1164 1.367 . S
C1165 C1173 1.433 . S
C1166 H1162 0.929 . S
C1166 C1168 1.378 . S
C1166 C1170 1.350 . S
C1167 C1170 1.463 . S
C1167 C1172 1.350 . S
C1167 N1175 1.427 . S
C1168 H1159 0.930 . S
C1168 C1166 1.378 . S
C1168 C1169 1.367 . S
C1169 C1168 1.367 . S
C1169 C1171 1.433 . S
C1170 C1166 1.350 . S
C1170 C1167 1.463 . S
C1170 N1174 1.427 . S
C1171 H1161 0.929 . S
C1171 C1169 1.433 . S
C1171 N1174 1.384 . S
C1172 H1163 0.929 . S
C1172 C1164 1.378 . S
C1172 C1167 1.350 . S
C1173 H1160 0.929 . S
C1173 C1165 1.433 . S
C1173 N1175 1.384 . S
N1174 C1170 1.427 . S
N1174 C1171 1.384 . S
N1175 C1167 1.427 . S
N1175 C1173 1.384 . S
H1176 C1182 0.930 . S
H1177 C1186 0.930 . S
H1178 C1191 0.929 . S
H1179 C1189 0.929 . S
H1180 C1184 0.929 . S
H1181 C1190 0.929 . S
C1182 H1176 0.930 . S
C1182 C1183 1.367 . S
C1182 C1190 1.378 . S
C1183 C1182 1.367 . S
C1183 C1191 1.433 . S
C1184 H1180 0.929 . S
C1184 C1186 1.378 . S
C1184 C1188 1.350 . S
C1185 C1188 1.463 . S
C1185 C1190 1.350 . S
C1185 N1193 1.427 . S
C1186 H1177 0.930 . S
C1186 C1184 1.378 . S
C1186 C1187 1.367 . S
C1187 C1186 1.367 . S
C1187 C1189 1.433 . S
C1188 C1184 1.350 . S
C1188 C1185 1.463 . S
C1188 N1192 1.427 . S
C1189 H1179 0.929 . S
C1189 C1187 1.433 . S
C1189 N1192 1.384 . S
C1190 H1181 0.929 . S
C1190 C1182 1.378 . S
C1190 C1185 1.350 . S
C1191 H1178 0.929 . S
C1191 C1183 1.433 . S
C1191 N1193 1.384 . S
N1192 C1188 1.427 . S
N1192 C1189 1.384 . S
N1193 C1185 1.427 . S
N1193 C1191 1.384 . S
H1194 C1200 0.930 . S
H1195 C1204 0.930 . S
H1196 C1209 0.929 . S
H1197 C1207 0.929 . S
H1198 C1202 0.929 . S
H1199 C1208 0.929 . S
C1200 H1194 0.930 . S
C1200 C1201 1.367 . S
C1200 C1208 1.378 . S
C1201 C1200 1.367 . S
C1201 C1209 1.433 . S
C1202 H1198 0.929 . S
C1202 C1204 1.378 . S
C1202 C1206 1.350 . S
C1203 C1206 1.463 . S
C1203 C1208 1.350 . S
C1203 N1211 1.427 . S
C1204 H1195 0.930 . S
C1204 C1202 1.378 . S
C1204 C1205 1.367 . S
C1205 C1204 1.367 . S
C1205 C1207 1.433 . S
C1206 C1202 1.350 . S
C1206 C1203 1.463 . S
C1206 N1210 1.427 . S
C1207 H1197 0.929 . S
C1207 C1205 1.433 . S
C1207 N1210 1.384 . S
C1208 H1199 0.929 . S
C1208 C1200 1.378 . S
C1208 C1203 1.350 . S
C1209 H1196 0.929 . S
C1209 C1201 1.433 . S
C1209 N1211 1.384 . S
N1210 C1206 1.427 . S
N1210 C1207 1.384 . S
N1211 C1203 1.427 . S
N1211 C1209 1.384 . S
H1212 C1218 0.930 . S
H1213 C1222 0.930 . S
H1214 C1227 0.929 . S
H1215 C1225 0.929 . S
H1216 C1220 0.929 . S
H1217 C1226 0.929 . S
C1218 H1212 0.930 . S
C1218 C1219 1.367 . S
C1218 C1226 1.378 . S
C1219 C1218 1.367 . S
C1219 C1227 1.433 . S
C1220 H1216 0.929 . S
C1220 C1222 1.378 . S
C1220 C1224 1.350 . S
C1221 C1224 1.463 . S
C1221 C1226 1.350 . S
C1221 N1229 1.427 . S
C1222 H1213 0.930 . S
C1222 C1220 1.378 . S
C1222 C1223 1.367 . S
C1223 C1222 1.367 . S
C1223 C1225 1.433 . S
C1224 C1220 1.350 . S
C1224 C1221 1.463 . S
C1224 N1228 1.427 . S
C1225 H1215 0.929 . S
C1225 C1223 1.433 . S
C1225 N1228 1.384 . S
C1226 H1217 0.929 . S
C1226 C1218 1.378 . S
C1226 C1221 1.350 . S
C1227 H1214 0.929 . S
C1227 C1219 1.433 . S
C1227 N1229 1.384 . S
N1228 C1224 1.427 . S
N1228 C1225 1.384 . S
N1229 C1221 1.427 . S
N1229 C1227 1.384 . S
H1230 C1236 0.930 . S
H1231 C1240 0.930 . S
H1232 C1245 0.929 . S
H1233 C1243 0.929 . S
H1234 C1238 0.929 . S
H1235 C1244 0.929 . S
C1236 H1230 0.930 . S
C1236 C1237 1.367 . S
C1236 C1244 1.378 . S
C1237 C1236 1.367 . S
C1237 C1245 1.433 . S
C1238 H1234 0.929 . S
C1238 C1240 1.378 . S
C1238 C1242 1.350 . S
C1239 C1242 1.463 . S
C1239 C1244 1.350 . S
C1239 N1247 1.427 . S
C1240 H1231 0.930 . S
C1240 C1238 1.378 . S
C1240 C1241 1.367 . S
C1241 C1240 1.367 . S
C1241 C1243 1.433 . S
C1242 C1238 1.350 . S
C1242 C1239 1.463 . S
C1242 N1246 1.427 . S
C1243 H1233 0.929 . S
C1243 C1241 1.433 . S
C1243 N1246 1.384 . S
C1244 H1235 0.929 . S
C1244 C1236 1.378 . S
C1244 C1239 1.350 . S
C1245 H1232 0.929 . S
C1245 C1237 1.433 . S
C1245 N1247 1.384 . S
N1246 C1242 1.427 . S
N1246 C1243 1.384 . S
N1247 C1239 1.427 . S
N1247 C1245 1.384 . S
H1248 C1254 0.930 . S
H1249 C1258 0.930 . S
H1250 C1263 0.929 . S
H1251 C1261 0.929 . S
H1252 C1256 0.929 . S
H1253 C1262 0.929 . S
C1254 H1248 0.930 . S
C1254 C1255 1.367 . S
C1254 C1262 1.378 . S
C1255 C1254 1.367 . S
C1255 C1263 1.433 . S
C1256 H1252 0.929 . S
C1256 C1258 1.378 . S
C1256 C1260 1.350 . S
C1257 C1260 1.463 . S
C1257 C1262 1.350 . S
C1257 N1265 1.427 . S
C1258 H1249 0.930 . S
C1258 C1256 1.378 . S
C1258 C1259 1.367 . S
C1259 C1258 1.367 . S
C1259 C1261 1.433 . S
C1260 C1256 1.350 . S
C1260 C1257 1.463 . S
C1260 N1264 1.427 . S
C1261 H1251 0.929 . S
C1261 C1259 1.433 . S
C1261 N1264 1.384 . S
C1262 H1253 0.929 . S
C1262 C1254 1.378 . S
C1262 C1257 1.350 . S
C1263 H1250 0.929 . S
C1263 C1255 1.433 . S
C1263 N1265 1.384 . S
N1264 C1260 1.427 . S
N1264 C1261 1.384 . S
N1265 C1257 1.427 . S
N1265 C1263 1.384 . S
H1266 C1272 0.930 . S
H1267 C1276 0.930 . S
H1268 C1281 0.929 . S
H1269 C1279 0.929 . S
H1270 C1274 0.929 . S
H1271 C1280 0.929 . S
C1272 H1266 0.930 . S
C1272 C1273 1.367 . S
C1272 C1280 1.378 . S
C1273 C1272 1.367 . S
C1273 C1281 1.433 . S
C1274 H1270 0.929 . S
C1274 C1276 1.378 . S
C1274 C1278 1.350 . S
C1275 C1278 1.463 . S
C1275 C1280 1.350 . S
C1275 N1283 1.427 . S
C1276 H1267 0.930 . S
C1276 C1274 1.378 . S
C1276 C1277 1.367 . S
C1277 C1276 1.367 . S
C1277 C1279 1.433 . S
C1278 C1274 1.350 . S
C1278 C1275 1.463 . S
C1278 N1282 1.427 . S
C1279 H1269 0.929 . S
C1279 C1277 1.433 . S
C1279 N1282 1.384 . S
C1280 H1271 0.929 . S
C1280 C1272 1.378 . S
C1280 C1275 1.350 . S
C1281 H1268 0.929 . S
C1281 C1273 1.433 . S
C1281 N1283 1.384 . S
N1282 C1278 1.427 . S
N1282 C1279 1.384 . S
N1283 C1275 1.427 . S
N1283 C1281 1.384 . S
H1284 C1290 0.930 . S
H1285 C1294 0.930 . S
H1286 C1299 0.929 . S
H1287 C1297 0.929 . S
H1288 C1292 0.929 . S
H1289 C1298 0.929 . S
C1290 H1284 0.930 . S
C1290 C1291 1.367 . S
C1290 C1298 1.378 . S
C1291 C1290 1.367 . S
C1291 C1299 1.433 . S
C1292 H1288 0.929 . S
C1292 C1294 1.378 . S
C1292 C1296 1.350 . S
C1293 C1296 1.463 . S
C1293 C1298 1.350 . S
C1293 N1301 1.427 . S
C1294 H1285 0.930 . S
C1294 C1292 1.378 . S
C1294 C1295 1.367 . S
C1295 C1294 1.367 . S
C1295 C1297 1.433 . S
C1296 C1292 1.350 . S
C1296 C1293 1.463 . S
C1296 N1300 1.427 . S
C1297 H1287 0.929 . S
C1297 C1295 1.433 . S
C1297 N1300 1.384 . S
C1298 H1289 0.929 . S
C1298 C1290 1.378 . S
C1298 C1293 1.350 . S
C1299 H1286 0.929 . S
C1299 C1291 1.433 . S
C1299 N1301 1.384 . S
N1300 C1296 1.427 . S
N1300 C1297 1.384 . S
N1301 C1293 1.427 . S
N1301 C1299 1.384 . S
H1302 C1308 0.930 . S
H1303 C1312 0.930 . S
H1304 C1317 0.929 . S
H1305 C1315 0.929 . S
H1306 C1310 0.929 . S
H1307 C1316 0.929 . S
C1308 H1302 0.930 . S
C1308 C1309 1.367 . S
C1308 C1316 1.378 . S
C1309 C1308 1.367 . S
C1309 C1317 1.433 . S
C1310 H1306 0.929 . S
C1310 C1312 1.378 . S
C1310 C1314 1.350 . S
C1311 C1314 1.463 . S
C1311 C1316 1.350 . S
C1311 N1319 1.427 . S
C1312 H1303 0.930 . S
C1312 C1310 1.378 . S
C1312 C1313 1.367 . S
C1313 C1312 1.367 . S
C1313 C1315 1.433 . S
C1314 C1310 1.350 . S
C1314 C1311 1.463 . S
C1314 N1318 1.427 . S
C1315 H1305 0.929 . S
C1315 C1313 1.433 . S
C1315 N1318 1.384 . S
C1316 H1307 0.929 . S
C1316 C1308 1.378 . S
C1316 C1311 1.350 . S
C1317 H1304 0.929 . S
C1317 C1309 1.433 . S
C1317 N1319 1.384 . S
N1318 C1314 1.427 . S
N1318 C1315 1.384 . S
N1319 C1311 1.427 . S
N1319 C1317 1.384 . S
H1320 C1326 0.930 . S
H1321 C1330 0.930 . S
H1322 C1335 0.929 . S
H1323 C1333 0.929 . S
H1324 C1328 0.929 . S
H1325 C1334 0.929 . S
C1326 H1320 0.930 . S
C1326 C1327 1.367 . S
C1326 C1334 1.378 . S
C1327 C1326 1.367 . S
C1327 C1335 1.433 . S
C1328 H1324 0.929 . S
C1328 C1330 1.378 . S
C1328 C1332 1.350 . S
C1329 C1332 1.463 . S
C1329 C1334 1.350 . S
C1329 N1337 1.427 . S
C1330 H1321 0.930 . S
C1330 C1328 1.378 . S
C1330 C1331 1.367 . S
C1331 C1330 1.367 . S
C1331 C1333 1.433 . S
C1332 C1328 1.350 . S
C1332 C1329 1.463 . S
C1332 N1336 1.427 . S
C1333 H1323 0.929 . S
C1333 C1331 1.433 . S
C1333 N1336 1.384 . S
C1334 H1325 0.929 . S
C1334 C1326 1.378 . S
C1334 C1329 1.350 . S
C1335 H1322 0.929 . S
C1335 C1327 1.433 . S
C1335 N1337 1.384 . S
N1336 C1332 1.427 . S
N1336 C1333 1.384 . S
N1337 C1329 1.427 . S
N1337 C1335 1.384 . S
H1338 C1344 0.930 . S
H1339 C1348 0.930 . S
H1340 C1353 0.929 . S
H1341 C1351 0.929 . S
H1342 C1346 0.929 . S
H1343 C1352 0.929 . S
C1344 H1338 0.930 . S
C1344 C1345 1.367 . S
C1344 C1352 1.378 . S
C1345 C1344 1.367 . S
C1345 C1353 1.433 . S
C1346 H1342 0.929 . S
C1346 C1348 1.378 . S
C1346 C1350 1.350 . S
C1347 C1350 1.463 . S
C1347 C1352 1.350 . S
C1347 N1355 1.427 . S
C1348 H1339 0.930 . S
C1348 C1346 1.378 . S
C1348 C1349 1.367 . S
C1349 C1348 1.367 . S
C1349 C1351 1.433 . S
C1350 C1346 1.350 . S
C1350 C1347 1.463 . S
C1350 N1354 1.427 . S
C1351 H1341 0.929 . S
C1351 C1349 1.433 . S
C1351 N1354 1.384 . S
C1352 H1343 0.929 . S
C1352 C1344 1.378 . S
C1352 C1347 1.350 . S
C1353 H1340 0.929 . S
C1353 C1345 1.433 . S
C1353 N1355 1.384 . S
N1354 C1350 1.427 . S
N1354 C1351 1.384 . S
N1355 C1347 1.427 . S
N1355 C1353 1.384 . S
H1356 C1362 0.930 . S
H1357 C1366 0.930 . S
H1358 C1371 0.929 . S
H1359 C1369 0.929 . S
H1360 C1364 0.929 . S
H1361 C1370 0.929 . S
C1362 H1356 0.930 . S
C1362 C1363 1.367 . S
C1362 C1370 1.378 . S
C1363 C1362 1.367 . S
C1363 C1371 1.433 . S
C1364 H1360 0.929 . S
C1364 C1366 1.378 . S
C1364 C1368 1.350 . S
C1365 C1368 1.463 . S
C1365 C1370 1.350 . S
C1365 N1373 1.427 . S
C1366 H1357 0.930 . S
C1366 C1364 1.378 . S
C1366 C1367 1.367 . S
C1367 C1366 1.367 . S
C1367 C1369 1.433 . S
C1368 C1364 1.350 . S
C1368 C1365 1.463 . S
C1368 N1372 1.427 . S
C1369 H1359 0.929 . S
C1369 C1367 1.433 . S
C1369 N1372 1.384 . S
C1370 H1361 0.929 . S
C1370 C1362 1.378 . S
C1370 C1365 1.350 . S
C1371 H1358 0.929 . S
C1371 C1363 1.433 . S
C1371 N1373 1.384 . S
N1372 C1368 1.427 . S
N1372 C1369 1.384 . S
N1373 C1365 1.427 . S
N1373 C1371 1.384 . S
H1374 C1380 0.930 . S
H1375 C1384 0.930 . S
H1376 C1389 0.929 . S
H1377 C1387 0.929 . S
H1378 C1382 0.929 . S
H1379 C1388 0.929 . S
C1380 H1374 0.930 . S
C1380 C1381 1.367 . S
C1380 C1388 1.378 . S
C1381 C1380 1.367 . S
C1381 C1389 1.433 . S
C1382 H1378 0.929 . S
C1382 C1384 1.378 . S
C1382 C1386 1.350 . S
C1383 C1386 1.463 . S
C1383 C1388 1.350 . S
C1383 N1391 1.427 . S
C1384 H1375 0.930 . S
C1384 C1382 1.378 . S
C1384 C1385 1.367 . S
C1385 C1384 1.367 . S
C1385 C1387 1.433 . S
C1386 C1382 1.350 . S
C1386 C1383 1.463 . S
C1386 N1390 1.427 . S
C1387 H1377 0.929 . S
C1387 C1385 1.433 . S
C1387 N1390 1.384 . S
C1388 H1379 0.929 . S
C1388 C1380 1.378 . S
C1388 C1383 1.350 . S
C1389 H1376 0.929 . S
C1389 C1381 1.433 . S
C1389 N1391 1.384 . S
N1390 C1386 1.427 . S
N1390 C1387 1.384 . S
N1391 C1383 1.427 . S
N1391 C1389 1.384 . S
H1392 C1398 0.930 . S
H1393 C1402 0.930 . S
H1394 C1407 0.929 . S
H1395 C1405 0.929 . S
H1396 C1400 0.929 . S
H1397 C1406 0.929 . S
C1398 H1392 0.930 . S
C1398 C1399 1.367 . S
C1398 C1406 1.378 . S
C1399 C1398 1.367 . S
C1399 C1407 1.433 . S
C1400 H1396 0.929 . S
C1400 C1402 1.378 . S
C1400 C1404 1.350 . S
C1401 C1404 1.463 . S
C1401 C1406 1.350 . S
C1401 N1409 1.427 . S
C1402 H1393 0.930 . S
C1402 C1400 1.378 . S
C1402 C1403 1.367 . S
C1403 C1402 1.367 . S
C1403 C1405 1.433 . S
C1404 C1400 1.350 . S
C1404 C1401 1.463 . S
C1404 N1408 1.427 . S
C1405 H1395 0.929 . S
C1405 C1403 1.433 . S
C1405 N1408 1.384 . S
C1406 H1397 0.929 . S
C1406 C1398 1.378 . S
C1406 C1401 1.350 . S
C1407 H1394 0.929 . S
C1407 C1399 1.433 . S
C1407 N1409 1.384 . S
N1408 C1404 1.427 . S
N1408 C1405 1.384 . S
N1409 C1401 1.427 . S
N1409 C1407 1.384 . S
H1410 C1416 0.930 . S
H1411 C1420 0.930 . S
H1412 C1425 0.929 . S
H1413 C1423 0.929 . S
H1414 C1418 0.929 . S
H1415 C1424 0.929 . S
C1416 H1410 0.930 . S
C1416 C1417 1.367 . S
C1416 C1424 1.378 . S
C1417 C1416 1.367 . S
C1417 C1425 1.433 . S
C1418 H1414 0.929 . S
C1418 C1420 1.378 . S
C1418 C1422 1.350 . S
C1419 C1422 1.463 . S
C1419 C1424 1.350 . S
C1419 N1427 1.427 . S
C1420 H1411 0.930 . S
C1420 C1418 1.378 . S
C1420 C1421 1.367 . S
C1421 C1420 1.367 . S
C1421 C1423 1.433 . S
C1422 C1418 1.350 . S
C1422 C1419 1.463 . S
C1422 N1426 1.427 . S
C1423 H1413 0.929 . S
C1423 C1421 1.433 . S
C1423 N1426 1.384 . S
C1424 H1415 0.929 . S
C1424 C1416 1.378 . S
C1424 C1419 1.350 . S
C1425 H1412 0.929 . S
C1425 C1417 1.433 . S
C1425 N1427 1.384 . S
N1426 C1422 1.427 . S
N1426 C1423 1.384 . S
N1427 C1419 1.427 . S
N1427 C1425 1.384 . S
H1428 C1434 0.930 . S
H1429 C1438 0.930 . S
H1430 C1443 0.929 . S
H1431 C1441 0.929 . S
H1432 C1436 0.929 . S
H1433 C1442 0.929 . S
C1434 H1428 0.930 . S
C1434 C1435 1.367 . S
C1434 C1442 1.378 . S
C1435 C1434 1.367 . S
C1435 C1443 1.433 . S
C1436 H1432 0.929 . S
C1436 C1438 1.378 . S
C1436 C1440 1.350 . S
C1437 C1440 1.463 . S
C1437 C1442 1.350 . S
C1437 N1445 1.427 . S
C1438 H1429 0.930 . S
C1438 C1436 1.378 . S
C1438 C1439 1.367 . S
C1439 C1438 1.367 . S
C1439 C1441 1.433 . S
C1440 C1436 1.350 . S
C1440 C1437 1.463 . S
C1440 N1444 1.427 . S
C1441 H1431 0.929 . S
C1441 C1439 1.433 . S
C1441 N1444 1.384 . S
C1442 H1433 0.929 . S
C1442 C1434 1.378 . S
C1442 C1437 1.350 . S
C1443 H1430 0.929 . S
C1443 C1435 1.433 . S
C1443 N1445 1.384 . S
N1444 C1440 1.427 . S
N1444 C1441 1.384 . S
N1445 C1437 1.427 . S
N1445 C1443 1.384 . S
H1446 C1452 0.930 . S
H1447 C1456 0.930 . S
H1448 C1461 0.929 . S
H1449 C1459 0.929 . S
H1450 C1454 0.929 . S
H1451 C1460 0.929 . S
C1452 H1446 0.930 . S
C1452 C1453 1.367 . S
C1452 C1460 1.378 . S
C1453 C1452 1.367 . S
C1453 C1461 1.433 . S
C1454 H1450 0.929 . S
C1454 C1456 1.378 . S
C1454 C1458 1.350 . S
C1455 C1458 1.463 . S
C1455 C1460 1.350 . S
C1455 N1463 1.427 . S
C1456 H1447 0.930 . S
C1456 C1454 1.378 . S
C1456 C1457 1.367 . S
C1457 C1456 1.367 . S
C1457 C1459 1.433 . S
C1458 C1454 1.350 . S
C1458 C1455 1.463 . S
C1458 N1462 1.427 . S
C1459 H1449 0.929 . S
C1459 C1457 1.433 . S
C1459 N1462 1.384 . S
C1460 H1451 0.929 . S
C1460 C1452 1.378 . S
C1460 C1455 1.350 . S
C1461 H1448 0.929 . S
C1461 C1453 1.433 . S
C1461 N1463 1.384 . S
N1462 C1458 1.427 . S
N1462 C1459 1.384 . S
N1463 C1455 1.427 . S
N1463 C1461 1.384 . S
H1464 C1470 0.930 . S
H1465 C1474 0.930 1_655 S
H1466 C1479 0.929 . S
H1467 C1477 0.929 . S
H1468 C1472 0.929 . S
H1469 C1478 0.929 . S
C1470 H1464 0.930 . S
C1470 C1471 1.367 . S
C1470 C1478 1.378 . S
C1471 C1470 1.367 . S
C1471 C1479 1.433 . S
C1472 H1468 0.929 . S
C1472 C1474 1.378 . S
C1472 C1476 1.350 . S
C1473 C1476 1.463 . S
C1473 C1478 1.350 . S
C1473 N1481 1.427 . S
C1474 H1465 0.930 1_455 S
C1474 C1472 1.378 . S
C1474 C1475 1.367 . S
C1475 C1474 1.367 . S
C1475 C1477 1.433 . S
C1476 C1472 1.350 . S
C1476 C1473 1.463 . S
C1476 N1480 1.427 . S
C1477 H1467 0.929 . S
C1477 C1475 1.433 . S
C1477 N1480 1.384 . S
C1478 H1469 0.929 . S
C1478 C1470 1.378 . S
C1478 C1473 1.350 . S
C1479 H1466 0.929 . S
C1479 C1471 1.433 . S
C1479 N1481 1.384 . S
N1480 C1476 1.427 . S
N1480 C1477 1.384 . S
N1481 C1473 1.427 . S
N1481 C1479 1.384 . S
H1482 C1488 0.930 . S
H1483 C1492 0.930 . S
H1484 C1497 0.929 . S
H1485 C1495 0.929 . S
H1486 C1490 0.929 . S
H1487 C1496 0.929 . S
C1488 H1482 0.930 . S
C1488 C1489 1.367 . S
C1488 C1496 1.378 . S
C1489 C1488 1.367 . S
C1489 C1497 1.433 . S
C1490 H1486 0.929 . S
C1490 C1492 1.378 1_545 S
C1490 C1494 1.350 . S
C1491 C1494 1.463 . S
C1491 C1496 1.350 . S
C1491 N1499 1.427 . S
C1492 H1483 0.930 . S
C1492 C1490 1.378 1_565 S
C1492 C1493 1.367 1_565 S
C1493 C1492 1.367 1_545 S
C1493 C1495 1.433 . S
C1494 C1490 1.350 . S
C1494 C1491 1.463 . S
C1494 N1498 1.427 . S
C1495 H1485 0.929 . S
C1495 C1493 1.433 . S
C1495 N1498 1.384 . S
C1496 H1487 0.929 . S
C1496 C1488 1.378 . S
C1496 C1491 1.350 . S
C1497 H1484 0.929 . S
C1497 C1489 1.433 . S
C1497 N1499 1.384 . S
N1498 C1494 1.427 . S
N1498 C1495 1.384 . S
N1499 C1491 1.427 . S
N1499 C1497 1.384 . S
H1500 C1506 0.930 . S
H1501 C1510 0.930 . S
H1502 C1515 0.929 . S
H1503 C1513 0.929 . S
H1504 C1508 0.929 . S
H1505 C1514 0.929 . S
C1506 H1500 0.930 . S
C1506 C1507 1.367 . S
C1506 C1514 1.378 . S
C1507 C1506 1.367 . S
C1507 C1515 1.433 . S
C1508 H1504 0.929 . S
C1508 C1510 1.378 . S
C1508 C1512 1.350 . S
C1509 C1512 1.463 . S
C1509 C1514 1.350 . S
C1509 N1517 1.427 . S
C1510 H1501 0.930 . S
C1510 C1508 1.378 . S
C1510 C1511 1.367 . S
C1511 C1510 1.367 . S
C1511 C1513 1.433 . S
C1512 C1508 1.350 . S
C1512 C1509 1.463 . S
C1512 N1516 1.427 . S
C1513 H1503 0.929 . S
C1513 C1511 1.433 . S
C1513 N1516 1.384 . S
C1514 H1505 0.929 . S
C1514 C1506 1.378 . S
C1514 C1509 1.350 . S
C1515 H1502 0.929 . S
C1515 C1507 1.433 . S
C1515 N1517 1.384 . S
N1516 C1512 1.427 . S
N1516 C1513 1.384 . S
N1517 C1509 1.427 . S
N1517 C1515 1.384 . S
H1518 C1524 0.930 . S
H1519 C1528 0.930 . S
H1520 C1533 0.929 . S
H1521 C1531 0.929 . S
H1522 C1526 0.929 . S
H1523 C1532 0.929 . S
C1524 H1518 0.930 . S
C1524 C1525 1.367 . S
C1524 C1532 1.378 . S
C1525 C1524 1.367 . S
C1525 C1533 1.433 . S
C1526 H1522 0.929 . S
C1526 C1528 1.378 . S
C1526 C1530 1.350 . S
C1527 C1530 1.463 . S
C1527 C1532 1.350 . S
C1527 N1535 1.427 . S
C1528 H1519 0.930 . S
C1528 C1526 1.378 . S
C1528 C1529 1.367 . S
C1529 C1528 1.367 . S
C1529 C1531 1.433 . S
C1530 C1526 1.350 . S
C1530 C1527 1.463 . S
C1530 N1534 1.427 . S
C1531 H1521 0.929 . S
C1531 C1529 1.433 . S
C1531 N1534 1.384 . S
C1532 H1523 0.929 . S
C1532 C1524 1.378 . S
C1532 C1527 1.350 . S
C1533 H1520 0.929 . S
C1533 C1525 1.433 . S
C1533 N1535 1.384 . S
N1534 C1530 1.427 . S
N1534 C1531 1.384 . S
N1535 C1527 1.427 . S
N1535 C1533 1.384 . S
H1536 C1542 0.930 1_554 S
H1537 C1546 0.930 . S
H1538 C1551 0.929 . S
H1539 C1549 0.907 1_565 S
H1540 C1544 0.929 . S
H1541 C1550 0.929 . S
C1542 H1536 0.930 1_556 S
C1542 C1543 1.367 . S
C1542 C1550 1.378 . S
C1543 C1542 1.367 . S
C1543 C1551 1.433 . S
C1544 H1540 0.929 . S
C1544 C1546 1.378 . S
C1544 C1548 1.350 . S
C1545 C1548 1.463 . S
C1545 C1550 1.350 . S
C1545 N1553 1.427 . S
C1546 H1537 0.930 . S
C1546 C1544 1.378 . S
C1546 C1547 1.367 . S
C1547 C1546 1.367 . S
C1547 C1549 1.438 . S
C1548 C1544 1.350 . S
C1548 C1545 1.463 . S
C1548 N1552 1.427 . S
C1549 H1539 0.907 1_545 S
C1549 C1547 1.438 . S
C1549 N1552 1.402 . S
C1550 H1541 0.929 . S
C1550 C1542 1.378 . S
C1550 C1545 1.350 . S
C1551 H1538 0.929 . S
C1551 C1543 1.433 . S
C1551 N1553 1.384 . S
N1552 C1548 1.427 . S
N1552 C1549 1.402 . S
N1553 C1545 1.427 . S
N1553 C1551 1.384 . S
H1554 C1560 0.930 . S
H1555 C1564 0.930 . S
H1556 C1569 0.929 1_556 S
H1557 C1567 0.929 . S
H1558 C1562 0.929 . S
H1559 C1568 0.929 . S
C1560 H1554 0.930 . S
C1560 C1561 1.367 . S
C1560 C1568 1.378 . S
C1561 C1560 1.367 . S
C1561 C1569 1.433 . S
C1562 H1558 0.929 . S
C1562 C1564 1.378 . S
C1562 C1566 1.350 . S
C1563 C1566 1.463 . S
C1563 C1568 1.350 . S
C1563 N1571 1.427 . S
C1564 H1555 0.930 . S
C1564 C1562 1.378 . S
C1564 C1565 1.367 . S
C1565 C1564 1.367 . S
C1565 C1567 1.433 . S
C1566 C1562 1.350 . S
C1566 C1563 1.463 . S
C1566 N1570 1.427 . S
C1567 H1557 0.929 . S
C1567 C1565 1.433 . S
C1567 N1570 1.384 . S
C1568 H1559 0.929 . S
C1568 C1560 1.378 . S
C1568 C1563 1.350 . S
C1569 H1556 0.929 1_554 S
C1569 C1561 1.433 . S
C1569 N1571 1.384 . S
N1570 C1566 1.427 . S
N1570 C1567 1.384 . S
N1571 C1563 1.427 . S
N1571 C1569 1.384 . S
H1572 C1578 0.930 . S
H1573 C1582 0.930 . S
H1574 C1587 0.929 . S
H1575 C1585 0.929 . S
H1576 C1580 0.929 . S
H1577 C1586 0.929 . S
C1578 H1572 0.930 . S
C1578 C1579 1.367 . S
C1578 C1586 1.378 . S
C1579 C1578 1.367 . S
C1579 C1587 1.433 . S
C1580 H1576 0.929 . S
C1580 C1582 1.378 . S
C1580 C1584 1.350 . S
C1581 C1584 1.463 . S
C1581 C1586 1.350 . S
C1581 N1589 1.427 . S
C1582 H1573 0.930 . S
C1582 C1580 1.378 . S
C1582 C1583 1.367 . S
C1583 C1582 1.367 . S
C1583 C1585 1.433 . S
C1584 C1580 1.350 . S
C1584 C1581 1.463 . S
C1584 N1588 1.427 . S
C1585 H1575 0.929 . S
C1585 C1583 1.433 . S
C1585 N1588 1.384 . S
C1586 H1577 0.929 . S
C1586 C1578 1.378 . S
C1586 C1581 1.350 . S
C1587 H1574 0.929 . S
C1587 C1579 1.433 . S
C1587 N1589 1.384 . S
N1588 C1584 1.427 . S
N1588 C1585 1.384 . S
N1589 C1581 1.427 . S
N1589 C1587 1.384 . S
H1590 C1596 0.930 . S
H1591 C1600 0.930 . S
H1592 C1605 0.929 . S
H1593 C1603 0.929 1_545 S
H1594 C1598 0.929 . S
H1595 C1604 0.929 . S
C1596 H1590 0.930 . S
C1596 C1597 1.367 . S
C1596 C1604 1.378 . S
C1597 C1596 1.367 . S
C1597 C1605 1.433 . S
C1598 H1594 0.929 . S
C1598 C1600 1.378 . S
C1598 C1602 1.350 . S
C1599 C1602 1.463 . S
C1599 C1604 1.350 . S
C1599 N1607 1.427 . S
C1600 H1591 0.930 . S
C1600 C1598 1.378 . S
C1600 C1601 1.367 . S
C1601 C1600 1.367 . S
C1601 C1603 1.433 . S
C1602 C1598 1.350 . S
C1602 C1599 1.463 . S
C1602 N1606 1.427 . S
C1603 H1593 0.929 1_565 S
C1603 C1601 1.433 . S
C1603 N1606 1.384 . S
C1604 H1595 0.929 . S
C1604 C1596 1.378 . S
C1604 C1599 1.350 . S
C1605 H1592 0.929 . S
C1605 C1597 1.433 . S
C1605 N1607 1.384 . S
N1606 C1602 1.427 . S
N1606 C1603 1.384 . S
N1607 C1599 1.427 . S
N1607 C1605 1.384 . S
H1608 C1614 0.930 . S
H1609 C1618 0.930 . S
H1610 C1623 0.929 . S
H1611 C1621 0.929 1_554 S
H1612 C1616 0.929 . S
H1613 C1622 0.929 . S
C1614 H1608 0.930 . S
C1614 C1615 1.367 . S
C1614 C1622 1.378 . S
C1615 C1614 1.367 . S
C1615 C1623 1.433 . S
C1616 H1612 0.929 . S
C1616 C1618 1.378 . S
C1616 C1620 1.350 . S
C1617 C1620 1.463 . S
C1617 C1622 1.350 . S
C1617 N1625 1.427 . S
C1618 H1609 0.930 . S
C1618 C1616 1.378 . S
C1618 C1619 1.367 . S
C1619 C1618 1.367 . S
C1619 C1621 1.433 . S
C1620 C1616 1.350 . S
C1620 C1617 1.463 . S
C1620 N1624 1.427 . S
C1621 H1611 0.929 1_556 S
C1621 C1619 1.433 . S
C1621 N1624 1.384 . S
C1622 H1613 0.929 . S
C1622 C1614 1.378 . S
C1622 C1617 1.350 . S
C1623 H1610 0.929 . S
C1623 C1615 1.433 . S
C1623 N1625 1.384 . S
N1624 C1620 1.427 . S
N1624 C1621 1.384 . S
N1625 C1617 1.427 . S
N1625 C1623 1.384 . S
H1626 C1632 0.930 . S
H1627 C1636 0.930 . S
H1628 C1641 0.929 . S
H1629 C1639 0.929 . S
H1630 C1634 0.929 . S
H1631 C1640 0.929 . S
C1632 H1626 0.930 . S
C1632 C1633 1.367 . S
C1632 C1640 1.378 . S
C1633 C1632 1.367 . S
C1633 C1641 1.433 . S
C1634 H1630 0.929 . S
C1634 C1636 1.378 . S
C1634 C1638 1.350 . S
C1635 C1638 1.463 . S
C1635 C1640 1.350 . S
C1635 N1643 1.427 . S
C1636 H1627 0.930 . S
C1636 C1634 1.378 . S
C1636 C1637 1.367 . S
C1637 C1636 1.367 . S
C1637 C1639 1.433 . S
C1638 C1634 1.350 . S
C1638 C1635 1.463 . S
C1638 N1642 1.427 . S
C1639 H1629 0.929 . S
C1639 C1637 1.433 . S
C1639 N1642 1.384 . S
C1640 H1631 0.929 . S
C1640 C1632 1.378 . S
C1640 C1635 1.350 . S
C1641 H1628 0.929 . S
C1641 C1633 1.433 . S
C1641 N1643 1.384 . S
N1642 C1638 1.427 . S
N1642 C1639 1.384 . S
N1643 C1635 1.427 . S
N1643 C1641 1.384 . S
H1644 C1650 0.907 1_556 S
H1645 C1654 0.930 . S
H1646 C1659 0.929 . S
H1647 C1657 0.929 . S
H1648 C1652 0.929 . S
H1649 C1658 0.929 . S
C1650 H1644 0.907 1_554 S
C1650 C1651 1.372 . S
C1650 C1658 1.397 . S
C1651 C1650 1.372 . S
C1651 C1659 1.433 . S
C1652 H1648 0.929 . S
C1652 C1654 1.378 . S
C1652 C1656 1.350 . S
C1653 C1656 1.463 . S
C1653 C1658 1.350 . S
C1653 N1661 1.427 . S
C1654 H1645 0.930 . S
C1654 C1652 1.378 . S
C1654 C1655 1.367 . S
C1655 C1654 1.367 . S
C1655 C1657 1.433 . S
C1656 C1652 1.350 . S
C1656 C1653 1.463 . S
C1656 N1660 1.427 . S
C1657 H1647 0.929 . S
C1657 C1655 1.433 . S
C1657 N1660 1.384 . S
C1658 H1649 0.929 . S
C1658 C1650 1.397 . S
C1658 C1653 1.350 . S
C1659 H1646 0.929 . S
C1659 C1651 1.433 . S
C1659 N1661 1.384 . S
N1660 C1656 1.427 . S
N1660 C1657 1.384 . S
N1661 C1653 1.427 . S
N1661 C1659 1.384 . S
H1662 C1668 0.930 . S
H1663 C1672 0.930 . S
H1664 C1677 0.929 . S
H1665 C1675 0.929 1_455 S
H1666 C1670 0.929 . S
H1667 C1676 0.929 . S
C1668 H1662 0.930 . S
C1668 C1669 1.367 . S
C1668 C1676 1.378 . S
C1669 C1668 1.367 . S
C1669 C1677 1.433 . S
C1670 H1666 0.929 . S
C1670 C1672 1.378 . S
C1670 C1674 1.350 . S
C1671 C1674 1.463 . S
C1671 C1676 1.350 . S
C1671 N1679 1.427 . S
C1672 H1663 0.930 . S
C1672 C1670 1.378 . S
C1672 C1673 1.367 . S
C1673 C1672 1.367 . S
C1673 C1675 1.433 . S
C1674 C1670 1.350 . S
C1674 C1671 1.463 . S
C1674 N1678 1.427 . S
C1675 H1665 0.929 1_655 S
C1675 C1673 1.433 . S
C1675 N1678 1.384 . S
C1676 H1667 0.929 . S
C1676 C1668 1.378 . S
C1676 C1671 1.350 . S
C1677 H1664 0.929 . S
C1677 C1669 1.433 . S
C1677 N1679 1.384 . S
N1678 C1674 1.427 . S
N1678 C1675 1.384 . S
N1679 C1671 1.427 . S
N1679 C1677 1.384 . S
H1680 C1686 0.930 . S
H1681 C1690 0.930 1_455 S
H1682 C1695 0.929 1_565 S
H1683 C1693 0.929 . S
H1684 C1688 0.929 . S
H1685 C1694 0.929 . S
C1686 H1680 0.930 . S
C1686 C1687 1.367 . S
C1686 C1694 1.378 . S
C1687 C1686 1.367 . S
C1687 C1695 1.433 . S
C1688 H1684 0.929 . S
C1688 C1690 1.378 . S
C1688 C1692 1.350 . S
C1689 C1692 1.463 . S
C1689 C1694 1.350 . S
C1689 N1697 1.427 . S
C1690 H1681 0.930 1_655 S
C1690 C1688 1.378 . S
C1690 C1691 1.367 . S
C1691 C1690 1.367 . S
C1691 C1693 1.433 . S
C1692 C1688 1.350 . S
C1692 C1689 1.463 . S
C1692 N1696 1.427 . S
C1693 H1683 0.929 . S
C1693 C1691 1.433 . S
C1693 N1696 1.384 . S
C1694 H1685 0.929 . S
C1694 C1686 1.378 . S
C1694 C1689 1.350 . S
C1695 H1682 0.929 1_545 S
C1695 C1687 1.433 . S
C1695 N1697 1.384 . S
N1696 C1692 1.427 . S
N1696 C1693 1.384 . S
N1697 C1689 1.427 . S
N1697 C1695 1.384 . S
H1698 C1704 0.930 1_545 S
H1699 C1708 0.930 . S
H1700 C1713 0.929 . S
H1701 C1711 0.929 . S
H1702 C1706 0.929 . S
H1703 C1712 0.929 . S
C1704 H1698 0.930 1_565 S
C1704 C1705 1.367 . S
C1704 C1712 1.378 . S
C1705 C1704 1.367 . S
C1705 C1713 1.433 . S
C1706 H1702 0.929 . S
C1706 C1708 1.378 . S
C1706 C1710 1.350 . S
C1707 C1710 1.463 . S
C1707 C1712 1.350 . S
C1707 N1715 1.427 . S
C1708 H1699 0.930 . S
C1708 C1706 1.378 . S
C1708 C1709 1.367 . S
C1709 C1708 1.367 . S
C1709 C1711 1.433 . S
C1710 C1706 1.350 . S
C1710 C1707 1.463 . S
C1710 N1714 1.427 . S
C1711 H1701 0.929 . S
C1711 C1709 1.433 . S
C1711 N1714 1.384 . S
C1712 H1703 0.929 . S
C1712 C1704 1.378 . S
C1712 C1707 1.350 . S
C1713 H1700 0.929 . S
C1713 C1705 1.433 . S
C1713 N1715 1.384 . S
N1714 C1710 1.427 . S
N1714 C1711 1.384 . S
N1715 C1707 1.427 . S
N1715 C1713 1.384 . S
H1716 C1722 0.930 . S
H1717 C1726 0.930 . S
H1718 C1731 0.929 . S
H1719 C1729 0.929 . S
H1720 C1724 0.929 . S
H1721 C1730 0.929 . S
C1722 H1716 0.930 . S
C1722 C1723 1.367 . S
C1722 C1730 1.378 . S
C1723 C1722 1.367 . S
C1723 C1731 1.433 . S
C1724 H1720 0.929 . S
C1724 C1726 1.378 . S
C1724 C1728 1.350 . S
C1725 C1728 1.463 . S
C1725 C1730 1.350 . S
C1725 N1733 1.427 . S
C1726 H1717 0.930 . S
C1726 C1724 1.378 . S
C1726 C1727 1.367 . S
C1727 C1726 1.367 . S
C1727 C1729 1.433 . S
C1728 C1724 1.350 . S
C1728 C1725 1.463 . S
C1728 N1732 1.427 . S
C1729 H1719 0.929 . S
C1729 C1727 1.433 . S
C1729 N1732 1.384 . S
C1730 H1721 0.929 . S
C1730 C1722 1.378 . S
C1730 C1725 1.350 . S
C1731 H1718 0.929 . S
C1731 C1723 1.433 . S
C1731 N1733 1.384 . S
N1732 C1728 1.427 . S
N1732 C1729 1.384 . S
N1733 C1725 1.427 . S
N1733 C1731 1.384 . S
H1734 C1740 0.930 . S
H1735 C1744 0.930 . S
H1736 C1749 0.929 . S
H1737 C1747 0.929 1_655 S
H1738 C1742 0.929 . S
H1739 C1748 0.929 . S
C1740 H1734 0.930 . S
C1740 C1741 1.367 . S
C1740 C1748 1.378 . S
C1741 C1740 1.367 . S
C1741 C1749 1.433 . S
C1742 H1738 0.929 . S
C1742 C1744 1.378 . S
C1742 C1746 1.350 . S
C1743 C1746 1.463 . S
C1743 C1748 1.350 . S
C1743 N1751 1.427 . S
C1744 H1735 0.930 . S
C1744 C1742 1.378 . S
C1744 C1745 1.367 . S
C1745 C1744 1.367 . S
C1745 C1747 1.433 . S
C1746 C1742 1.350 . S
C1746 C1743 1.463 . S
C1746 N1750 1.427 . S
C1747 H1737 0.929 1_455 S
C1747 C1745 1.433 . S
C1747 N1750 1.384 . S
C1748 H1739 0.929 . S
C1748 C1740 1.378 . S
C1748 C1743 1.350 . S
C1749 H1736 0.929 . S
C1749 C1741 1.433 . S
C1749 N1751 1.384 . S
N1750 C1746 1.427 . S
N1750 C1747 1.384 . S
N1751 C1743 1.427 . S
N1751 C1749 1.384 . S
H1752 C1758 0.941 . S
H1753 C1762 0.930 . S
H1754 C1767 0.929 . S
H1755 C1765 0.904 1_545 S
H1756 C1760 0.929 . S
H1757 C1766 0.929 . S
C1758 H1752 0.941 . S
C1758 C1759 1.363 1_556 S
C1758 C1766 1.370 1_556 S
C1759 C1758 1.363 1_554 S
C1759 C1767 1.433 . S
C1760 H1756 0.929 . S
C1760 C1762 1.378 . S
C1760 C1764 1.350 . S
C1761 C1764 1.463 . S
C1761 C1766 1.350 . S
C1761 N1769 1.427 . S
C1762 H1753 0.930 . S
C1762 C1760 1.378 . S
C1762 C1763 1.367 . S
C1763 C1762 1.367 . S
C1763 C1765 1.439 . S
C1764 C1760 1.350 . S
C1764 C1761 1.463 . S
C1764 N1768 1.427 . S
C1765 H1755 0.904 1_565 S
C1765 C1763 1.439 . S
C1765 N1768 1.405 . S
C1766 H1757 0.929 . S
C1766 C1758 1.370 1_554 S
C1766 C1761 1.350 . S
C1767 H1754 0.929 . S
C1767 C1759 1.433 . S
C1767 N1769 1.384 . S
N1768 C1764 1.427 . S
N1768 C1765 1.405 . S
N1769 C1761 1.427 . S
N1769 C1767 1.384 . S
H1770 C1776 0.930 . S
H1771 C1780 0.930 . S
H1772 C1785 0.929 . S
H1773 C1783 0.929 1_554 S
H1774 C1778 0.929 . S
H1775 C1784 0.929 . S
C1776 H1770 0.930 . S
C1776 C1777 1.367 . S
C1776 C1784 1.378 . S
C1777 C1776 1.367 . S
C1777 C1785 1.433 . S
C1778 H1774 0.929 . S
C1778 C1780 1.378 . S
C1778 C1782 1.350 . S
C1779 C1782 1.463 . S
C1779 C1784 1.350 . S
C1779 N1787 1.427 . S
C1780 H1771 0.930 . S
C1780 C1778 1.378 . S
C1780 C1781 1.367 . S
C1781 C1780 1.367 . S
C1781 C1783 1.433 . S
C1782 C1778 1.350 . S
C1782 C1779 1.463 . S
C1782 N1786 1.427 . S
C1783 H1773 0.929 1_556 S
C1783 C1781 1.433 . S
C1783 N1786 1.384 . S
C1784 H1775 0.929 . S
C1784 C1776 1.378 . S
C1784 C1779 1.350 . S
C1785 H1772 0.929 . S
C1785 C1777 1.433 . S
C1785 N1787 1.384 . S
N1786 C1782 1.427 . S
N1786 C1783 1.384 . S
N1787 C1779 1.427 . S
N1787 C1785 1.384 . S
H1788 C1794 0.930 . S
H1789 C1798 0.930 . S
H1790 C1803 0.929 . S
H1791 C1801 0.929 . S
H1792 C1796 0.929 . S
H1793 C1802 0.929 . S
C1794 H1788 0.930 . S
C1794 C1795 1.367 . S
C1794 C1802 1.378 . S
C1795 C1794 1.367 . S
C1795 C1803 1.433 . S
C1796 H1792 0.929 . S
C1796 C1798 1.378 . S
C1796 C1800 1.350 . S
C1797 C1800 1.463 . S
C1797 C1802 1.350 . S
C1797 N1805 1.427 . S
C1798 H1789 0.930 . S
C1798 C1796 1.378 . S
C1798 C1799 1.367 . S
C1799 C1798 1.367 . S
C1799 C1801 1.433 . S
C1800 C1796 1.350 . S
C1800 C1797 1.463 . S
C1800 N1804 1.427 . S
C1801 H1791 0.929 . S
C1801 C1799 1.433 . S
C1801 N1804 1.384 . S
C1802 H1793 0.929 . S
C1802 C1794 1.378 . S
C1802 C1797 1.350 . S
C1803 H1790 0.929 . S
C1803 C1795 1.433 . S
C1803 N1805 1.384 . S
N1804 C1800 1.427 . S
N1804 C1801 1.384 . S
N1805 C1797 1.427 . S
N1805 C1803 1.384 . S
H1806 C1812 0.930 . S
H1807 C1816 0.930 . S
H1808 C1821 0.929 . S
H1809 C1819 0.929 1_565 S
H1810 C1814 0.929 . S
H1811 C1820 0.929 . S
C1812 H1806 0.930 . S
C1812 C1813 1.367 . S
C1812 C1820 1.378 . S
C1813 C1812 1.367 . S
C1813 C1821 1.433 . S
C1814 H1810 0.929 . S
C1814 C1816 1.378 . S
C1814 C1818 1.350 . S
C1815 C1818 1.463 . S
C1815 C1820 1.350 . S
C1815 N1823 1.427 . S
C1816 H1807 0.930 . S
C1816 C1814 1.378 . S
C1816 C1817 1.367 . S
C1817 C1816 1.367 . S
C1817 C1819 1.433 . S
C1818 C1814 1.350 . S
C1818 C1815 1.463 . S
C1818 N1822 1.427 . S
C1819 H1809 0.929 1_545 S
C1819 C1817 1.433 . S
C1819 N1822 1.384 . S
C1820 H1811 0.929 . S
C1820 C1812 1.378 . S
C1820 C1815 1.350 . S
C1821 H1808 0.929 . S
C1821 C1813 1.433 . S
C1821 N1823 1.384 . S
N1822 C1818 1.427 . S
N1822 C1819 1.384 . S
N1823 C1815 1.427 . S
N1823 C1821 1.384 . S
C535 C18 1.668 . S
C539 C417 1.614 . S
C553 C426 1.587 . S
C557 C40 1.619 . S
C571 C52 1.669 . S
C575 C367 1.609 . S
C589 C74 1.669 . S
C593 C389 1.615 1_565 S
C607 C505 1.618 . S
C611 C98 1.670 . S
C625 C118 1.676 . S
C629 C477 1.601 1_556 S
C643 C513 1.603 . S
C647 C140 1.666 . S
C661 C164 1.668 . S
C665 C455 1.606 . S
C679 C186 1.684 . S
C683 C307 1.624 . S
C697 C216 1.673 . S
C701 C345 1.608 1_655 S
C715 C315 1.606 . S
C719 C238 1.668 . S
C733 C250 1.675 . S
C737 C279 1.604 1_455 S
C751 C282 1.660 . S
C755 C139 1.604 . S
C769 C296 1.671 . S
C773 C175 1.612 . S
C787 C316 1.672 . S
C791 C109 1.625 1_565 S
C805 C117 1.600 1_545 S
C809 C348 1.664 . S
C823 C370 1.670 . S
C827 C235 1.607 . S
C841 C213 1.610 . S
C845 C392 1.669 . S
C859 C249 1.605 . S
C863 C406 1.668 . S
C877 C197 1.683 . S
C881 C425 1.706 . S
C895 C37 1.605 . S
C899 C458 1.667 . S
C913 C73 1.605 . S
C917 C480 1.663 . S
C931 C51 1.596 . S
C935 C494 1.658 . S
C949 C514 1.668 . S
C953 C15 1.620 1_655 S
C967 C106 1.079 . S
C971 C10 1.060 . S
C985 C120 1.068 . S
C989 C32 1.042 . S
C1003 C142 1.066 . S
C1007 C62 1.038 . S
C1021 C172 1.066 . S
C1025 C84 1.039 . S
C1039 C96 1.070 . S
C1043 C194 1.087 . S
C1057 C128 1.058 . S
C1061 C252 1.079 . S
C1075 C150 1.057 . S
C1079 C206 1.079 . S
C1093 C162 1.037 . S
C1097 C228 1.061 . S
C1111 C184 1.051 . S
C1115 C8 1.077 . S
C1129 C208 1.043 . S
C1133 C54 1.065 . S
C1147 C230 1.052 . S
C1151 C76 1.076 . S
C1165 C30 1.078 . S
C1169 C260 1.049 . S
C1183 C360 1.075 . S
C1187 C274 1.059 . S
C1201 C382 1.066 . S
C1205 C294 1.043 . S
C1219 C326 1.056 . S
C1223 C414 1.082 . S
C1237 C340 1.066 . S
C1241 C433 1.110 . S
C1255 C448 1.062 . S
C1259 C362 1.036 . S
C1273 C384 1.055 . S
C1277 C516 1.079 . S
C1291 C470 1.071 . S
C1295 C404 1.052 . S
C1309 C439 1.085 . S
C1313 C502 1.120 . S
C1327 C272 1.069 . S
C1331 C450 1.043 . S
C1345 C472 1.048 . S
C1349 C318 1.067 . S
C1363 C492 1.033 . S
C1367 C338 1.061 . S
C1381 C304 1.080 . S
C1385 C524 1.063 . S
C1399 C21 1.306 1_655 S
C1403 C205 1.305 1_554 S
C1417 C227 1.290 . S
C1421 C43 1.297 . S
C1435 C191 1.298 1_556 S
C1439 C59 1.304 . S
C1453 C263 1.307 . S
C1457 C81 1.308 1_455 S
C1471 C95 1.309 1_565 S
C1475 C87 1.303 1_455 S
C1489 C65 1.305 . S
C1493 C125 1.308 1_545 S
C1507 C147 1.299 . S
C1511 C29 1.295 . S
C1525 C7 1.313 1_655 S
C1529 C161 1.314 . S
C1543 C183 1.299 1_556 S
C1547 C131 1.297 1_545 S
C1561 C219 1.311 1_554 S
C1565 C169 1.305 . S
C1579 C241 1.313 . S
C1583 C153 1.311 . S
C1597 C257 1.310 . S
C1601 C103 1.305 1_565 S
C1615 C285 1.324 1_455 S
C1619 C469 1.323 1_556 S
C1633 C293 1.323 . S
C1637 C499 1.321 . S
C1651 C447 1.311 1_554 S
C1655 C323 1.316 . S
C1669 C527 1.314 . S
C1673 C351 1.320 1_655 S
C1687 C373 1.318 1_545 S
C1691 C337 1.316 1_655 S
C1705 C395 1.310 1_565 S
C1709 C329 1.309 . S
C1723 C301 1.302 . S
C1727 C403 1.308 . S
C1741 C428 1.269 . S
C1745 C271 1.264 1_455 S
C1759 C461 1.308 1_554 S
C1763 C381 1.306 1_565 S
C1777 C436 1.270 . S
C1781 C483 1.280 1_556 S
C1795 C491 1.316 . S
C1799 C411 1.309 . S
C1813 C521 1.306 . S
C1817 C359 1.305 1_545 S
