# Generated by pormake.
# Topology snz, (6)-cn, num edge types: 1
# Building blocks:
#     Node 0, Type 0, BuildingBlock: CUKXOW_clean_sbu_0, # of connection points: 6
#     Node 1, Type 0, BuildingBlock: CUKXOW_clean_sbu_0, # of connection points: 6
#     Node 2, Type 0, BuildingBlock: CUKXOW_clean_sbu_0, # of connection points: 6
#     Node 3, Type 0, BuildingBlock: CUKXOW_clean_sbu_0, # of connection points: 6
#     Node 4, Type 0, BuildingBlock: CUKXOW_clean_sbu_0, # of connection points: 6
#     Node 5, Type 0, BuildingBlock: CUKXOW_clean_sbu_0, # of connection points: 6
#     Node 6, Type 0, BuildingBlock: CUKXOW_clean_sbu_0, # of connection points: 6
#     Node 7, Type 0, BuildingBlock: CUKXOW_clean_sbu_0, # of connection points: 6
#     Node 8, Type 0, BuildingBlock: CUKXOW_clean_sbu_0, # of connection points: 6
#     Edge 9, Type (0, 0), BuildingBlock: XIVTED_clean_linker_0, # of connection points: 2
#     Edge 10, Type (0, 0), BuildingBlock: XIVTED_clean_linker_0, # of connection points: 2
#     Edge 11, Type (0, 0), BuildingBlock: XIVTED_clean_linker_0, # of connection points: 2
#     Edge 12, Type (0, 0), BuildingBlock: XIVTED_clean_linker_0, # of connection points: 2
#     Edge 13, Type (0, 0), BuildingBlock: XIVTED_clean_linker_0, # of connection points: 2
#     Edge 14, Type (0, 0), BuildingBlock: XIVTED_clean_linker_0, # of connection points: 2
#     Edge 15, Type (0, 0), BuildingBlock: XIVTED_clean_linker_0, # of connection points: 2
#     Edge 16, Type (0, 0), BuildingBlock: XIVTED_clean_linker_0, # of connection points: 2
#     Edge 17, Type (0, 0), BuildingBlock: XIVTED_clean_linker_0, # of connection points: 2
#     Edge 18, Type (0, 0), BuildingBlock: XIVTED_clean_linker_0, # of connection points: 2
#     Edge 19, Type (0, 0), BuildingBlock: XIVTED_clean_linker_0, # of connection points: 2
#     Edge 20, Type (0, 0), BuildingBlock: XIVTED_clean_linker_0, # of connection points: 2
#     Edge 21, Type (0, 0), BuildingBlock: XIVTED_clean_linker_0, # of connection points: 2
#     Edge 22, Type (0, 0), BuildingBlock: XIVTED_clean_linker_0, # of connection points: 2
#     Edge 23, Type (0, 0), BuildingBlock: XIVTED_clean_linker_0, # of connection points: 2
#     Edge 24, Type (0, 0), BuildingBlock: XIVTED_clean_linker_0, # of connection points: 2
#     Edge 25, Type (0, 0), BuildingBlock: XIVTED_clean_linker_0, # of connection points: 2
#     Edge 26, Type (0, 0), BuildingBlock: XIVTED_clean_linker_0, # of connection points: 2
#     Edge 27, Type (0, 0), BuildingBlock: XIVTED_clean_linker_0, # of connection points: 2
#     Edge 28, Type (0, 0), BuildingBlock: XIVTED_clean_linker_0, # of connection points: 2
#     Edge 29, Type (0, 0), BuildingBlock: XIVTED_clean_linker_0, # of connection points: 2
#     Edge 30, Type (0, 0), BuildingBlock: XIVTED_clean_linker_0, # of connection points: 2
#     Edge 31, Type (0, 0), BuildingBlock: XIVTED_clean_linker_0, # of connection points: 2
#     Edge 32, Type (0, 0), BuildingBlock: XIVTED_clean_linker_0, # of connection points: 2
#     Edge 33, Type (0, 0), BuildingBlock: XIVTED_clean_linker_0, # of connection points: 2
#     Edge 34, Type (0, 0), BuildingBlock: XIVTED_clean_linker_0, # of connection points: 2
#     Edge 35, Type (0, 0), BuildingBlock: XIVTED_clean_linker_0, # of connection points: 2
# Relax obj value: 0.106
# Max RMSD: 0.185
# Mean RMSD: 0.132
data_MOF--net-snz--node1-CUKXOW_clean_sbu_0--edge1-XIVTED_clean_linker_0
_symmetry_space_group_name_H-M    P1
_symmetry_Int_Tables_number       1
_symmetry_cell_setting            triclinic
loop_
_symmetry_equiv_pos_as_xyz
'x, y, z'
_cell_length_a     49.728422
_cell_length_b     57.048236
_cell_length_c     14.625087
_cell_angle_alpha  93.3648
_cell_angle_beta   92.993531
_cell_angle_gamma 120.24347
loop_
_atom_site_label
_atom_site_type_symbol
_atom_site_fract_x
_atom_site_fract_y
_atom_site_fract_z
_atom_type_partial_charge
Tb0 Tb 0.03355 0.4251 0.91744 0.0
C1 C 0.07743 0.46163 0.77929 0.0
Tb2 Tb 0.08473 0.48587 0.98171 0.0
O3 O 0.99618 0.43326 0.86754 0.0
O4 O 0.0389 0.46353 0.92338 0.0
O5 O 0.06447 0.43711 0.80906 0.0
C6 C 0.12134 0.53938 0.01715 0.0
O7 O 0.08472 0.48389 0.83338 0.0
C8 C 0.09682 0.44815 0.03248 0.0
C9 C 0.03561 0.45125 0.11355 0.0
O10 O 0.12986 0.52323 0.97955 0.0
O11 O 0.0922 0.52545 0.03314 0.0
O12 O 0.1071 0.47165 0.07856 0.0
O13 O 0.08279 0.44763 0.95741 0.0
O14 O 0.05235 0.47584 0.08556 0.0
O15 O 0.02878 0.42851 0.06317 0.0
C16 C 1.00197 0.3718 0.87134 0.0
O17 O 1.01506 0.38335 0.95343 0.0
O18 O 1.00712 0.39021 0.81577 0.0
C19 C 1.01348 0.45944 0.88707 0.0
Tb20 Tb 0.60329 0.49923 -0.00092 0.0
C21 C 0.60086 0.46228 0.14872 0.0
Tb22 Tb 0.58154 0.43845 0.94391 0.0
O23 O 0.55828 0.49428 0.0349 0.0
O24 O 0.56189 0.46127 0.99131 0.0
O25 O 0.61772 0.48662 0.11941 0.0
C26 C 0.56136 0.3856 0.9162 0.0
O27 O 0.5821 0.44027 0.0921 0.0
C28 C 0.63716 0.47503 0.89847 0.0
C29 C 0.57104 0.47197 0.8015 0.0
O30 O 0.58726 0.40357 0.96362 0.0
O31 O 0.54632 0.39728 0.88688 0.0
O32 O 0.61879 0.45175 0.85177 0.0
O33 O 0.62512 0.47609 0.97113 0.0
O34 O 0.55929 0.44758 0.83212 0.0
O35 O 0.59167 0.49493 0.85184 0.0
C36 C 0.63918 0.55239 0.04476 0.0
O37 O 0.64009 0.5396 0.96944 0.0
O38 O 0.61794 0.53535 0.09282 0.0
C39 C 0.54294 0.46788 0.01948 0.0
Tb40 Tb 0.60916 0.97045 0.09282 0.0
C41 C 0.60087 0.9275 0.93494 0.0
Tb42 Tb 0.63462 0.93109 0.12447 0.0
O43 O 0.65727 0.00446 0.12334 0.0
O44 O 0.64903 0.96772 0.0613 0.0
O45 O 0.58714 0.93928 0.9772 0.0
C46 C 0.67572 0.91437 0.14769 0.0
O47 O 0.62359 0.92518 0.97698 0.0
C48 C 0.57551 0.9086 0.1622 0.0
C49 C 0.62797 0.96493 0.29083 0.0
O50 O 0.64882 0.90083 0.09869 0.0
O51 O 0.6795 0.93737 0.18319 0.0
O52 O 0.59206 0.89687 0.17106 0.0
O53 O 0.5929 0.93119 0.13273 0.0
O54 O 0.64555 0.95597 0.25494 0.0
O55 O 0.60874 0.96975 0.23989 0.0
C56 C 0.58471 -0.00155 0.02219 0.0
O57 O 0.58037 0.98969 0.10356 0.0
O58 O 0.60213 0.99103 0.98172 0.0
C59 C 0.67033 0.99121 0.09288 0.0
Tb60 Tb 0.82751 0.79863 0.3208 0.0
C61 C 0.8745 0.83502 0.18696 0.0
Tb62 Tb 0.87275 0.85738 0.38598 0.0
O63 O 0.80258 0.8098 0.22262 0.0
O64 O 0.82374 0.83438 0.34532 0.0
O65 O 0.85815 0.81001 0.21178 0.0
C66 C 0.9051 0.91093 0.43398 0.0
O67 O 0.88122 0.85697 0.24175 0.0
C68 C 0.89162 0.82388 0.43498 0.0
C69 C 0.82954 0.82101 0.51946 0.0
O70 O 0.89026 0.89956 0.35352 0.0
O71 O 0.90155 0.89226 0.48612 0.0
O72 O 0.9014 0.8476 0.47786 0.0
O73 O 0.87584 0.82177 0.36183 0.0
O74 O 0.83799 0.84415 0.48348 0.0
O75 O 0.82743 0.80002 0.46928 0.0
C76 C 0.79203 0.74478 0.28452 0.0
O77 O 0.78475 0.76001 0.33401 0.0
O78 O 0.81935 0.75978 0.2566 0.0
C79 C 0.80967 0.83255 0.26849 0.0
Tb80 Tb 0.31401 0.8414 0.38761 0.0
C81 C 0.32193 0.80999 0.5398 0.0
Tb82 Tb 0.29546 0.78322 0.3421 0.0
O83 O 0.27886 0.83011 0.48624 0.0
O84 O 0.27063 0.8036 0.37074 0.0
O85 O 0.33603 0.83348 0.50357 0.0
C86 C 0.2657 0.7301 0.29033 0.0
O87 O 0.3013 0.78712 0.49015 0.0
C88 C 0.35611 0.81775 0.34556 0.0
C89 C 0.28647 0.81516 0.18725 0.0
O90 O 0.25918 0.74149 0.3582 0.0
O91 O 0.28923 0.74856 0.25238 0.0
O92 O 0.3438 0.79307 0.36873 0.0
O93 O 0.33442 0.82156 0.31613 0.0
O94 O 0.27846 0.79104 0.21523 0.0
O95 O 0.30285 0.83819 0.24121 0.0
C96 C 0.33747 0.89491 0.4082 0.0
O97 O 0.30913 0.87704 0.37544 0.0
O98 O 0.35279 0.8827 0.42823 0.0
C99 C 0.26002 0.8061 0.44479 0.0
Tb100 Tb 0.25975 0.33864 0.18941 0.0
C101 C 0.25452 0.29857 0.02374 0.0
Tb102 Tb 0.28862 0.30079 0.21107 0.0
O103 O 0.30664 0.37481 0.20694 0.0
O104 O 0.30045 0.3378 0.15197 0.0
O105 O 0.24032 0.30979 0.06686 0.0
C106 C 0.32277 0.27696 0.22487 0.0
O107 O 0.27753 0.29643 0.06451 0.0
C108 C 0.23035 0.27729 0.25764 0.0
C109 C 0.28707 0.33548 0.38206 0.0
O110 O 0.2951 0.26621 0.18167 0.0
O111 O 0.332 0.30189 0.25731 0.0
O112 O 0.24726 0.26596 0.2599 0.0
O113 O 0.24682 0.30009 0.22895 0.0
O114 O 0.30337 0.32598 0.34132 0.0
O115 O 0.26623 0.33955 0.33665 0.0
C116 C 0.22224 0.35893 0.15827 0.0
O117 O 0.22481 0.34863 0.23284 0.0
O118 O 0.24102 0.35803 0.10154 0.0
C119 C 0.32081 0.36201 0.18072 0.0
Tb120 Tb 0.43922 0.15061 0.60256 0.0
C121 C 0.50824 0.2023 0.65652 0.0
Tb122 Tb 0.49339 0.14274 0.65056 0.0
O123 O 0.42075 0.13953 0.73729 0.0
O124 O 0.46824 0.15719 0.72502 0.0
O125 O 0.47936 0.19218 0.61765 0.0
C126 C 0.52653 0.12413 0.7377 0.0
O127 O 0.5188 0.18658 0.68557 0.0
C128 C 0.4846 0.14833 0.47414 0.0
C129 C 0.42478 0.09141 0.6021 0.0
O130 O 0.50871 0.13162 0.77506 0.0
O131 O 0.52657 0.12792 0.65095 0.0
O132 O 0.51182 0.15628 0.51749 0.0
O133 O 0.46397 0.1359 0.52825 0.0
O134 O 0.45262 0.10188 0.64854 0.0
O135 O 0.41564 0.10698 0.56332 0.0
C136 C 0.41025 0.17131 0.50674 0.0
O137 O 0.39829 0.15523 0.57132 0.0
O138 O 0.43772 0.17505 0.49604 0.0
C139 C 0.44754 0.14582 0.77987 0.0
Tb140 Tb 0.9181 0.12054 0.69667 0.0
C141 C 0.9607 0.09617 0.66579 0.0
Tb142 Tb 0.9857 0.15921 0.67219 0.0
O143 O 0.90723 0.10561 0.54888 0.0
O144 O 0.94298 0.14492 0.59017 0.0
O145 O 0.93657 0.09345 0.70836 0.0
C146 C 0.03921 0.18581 0.59304 0.0
O147 O 0.98176 0.11971 0.63827 0.0
C148 C 0.97331 0.15226 0.84733 0.0
C149 C 0.94231 0.18322 0.69747 0.0
O150 O 0.0325 0.19514 0.66609 0.0
O151 O 1.01628 0.16144 0.5668 0.0
O152 O 0.99675 0.17382 0.82031 0.0
O153 O 0.96092 0.13468 0.7783 0.0
O154 O 0.96663 0.18575 0.65645 0.0
O155 O 0.92136 0.15994 0.72672 0.0
C156 C 0.86446 0.09355 0.77479 0.0
O157 O 0.88857 0.11662 0.80757 0.0
O158 O 0.8702 0.08585 0.69655 0.0
C159 C 0.93059 0.12717 0.52157 0.0
Tb160 Tb 0.98354 0.66147 0.67467 0.0
C161 C 0.96149 0.59933 0.6983 0.0
Tb162 Tb 0.91493 0.62117 0.67763 0.0
O163 O 0.98638 0.67917 0.81445 0.0
O164 O 0.95452 0.63827 0.77636 0.0
O165 O 0.98385 0.62313 0.67513 0.0
C166 C 0.85586 0.59308 0.72383 0.0
O167 O 0.93329 0.59497 0.71343 0.0
C168 C 0.93543 0.62555 0.51207 0.0
C169 C 0.93733 0.68354 0.6546 0.0
O170 O 0.86575 0.58878 0.64787 0.0
O171 O 0.87929 0.6133 0.77408 0.0
O172 O 0.91256 0.60343 0.53814 0.0
O173 O 0.94391 0.64438 0.57615 0.0
O174 O 0.91464 0.6596 0.67592 0.0
O175 O 0.9656 0.68797 0.64061 0.0
C176 C 0.04225 0.68904 0.62586 0.0
O177 O 0.03286 0.69376 0.70224 0.0
O178 O 0.01854 0.66874 0.57685 0.0
C179 C 0.96333 0.65716 0.84047 0.0
H180 H 0.08202 0.50315 0.68503 0.0
H181 H 1.01779 0.40759 0.21301 0.0
H182 H 0.06808 0.4219 0.64757 0.0
H183 H 0.04308 0.4923 0.23699 0.0
H184 H 0.02785 0.41058 0.37892 0.0
H185 H 0.06459 0.49904 0.52312 0.0
C186 C 0.07607 0.48473 0.64228 0.0
C187 C 0.07619 0.46271 0.67971 0.0
C188 C 0.03083 0.42842 0.3479 0.0
C189 C 0.05532 0.45759 0.49614 0.0
C190 C 0.02464 0.42662 0.25332 0.0
C191 C 0.03065 0.45 0.2112 0.0
C192 C 0.04301 0.45372 0.39979 0.0
C193 C 0.03903 0.47399 0.26678 0.0
C194 C 0.06562 0.48223 0.55032 0.0
C195 C 0.06804 0.43926 0.6215 0.0
N196 N 0.04563 0.47541 0.35852 0.0
N197 N 0.05759 0.4372 0.53253 0.0
H198 H 0.60027 0.51584 0.70256 0.0
H199 H 0.55638 0.4206 0.23432 0.0
H200 H 0.53147 0.42973 0.67408 0.0
H201 H 0.63588 0.50249 0.28616 0.0
H202 H 0.5426 0.42434 0.38983 0.0
H203 H 0.60576 0.51311 0.53878 0.0
C204 C 0.5857 0.4965 0.66156 0.0
C205 C 0.56623 0.47275 0.70236 0.0
C206 C 0.56317 0.44138 0.36713 0.0
C207 C 0.57301 0.46941 0.51622 0.0
C208 C 0.57135 0.43912 0.279 0.0
C209 C 0.59722 0.46136 0.24725 0.0
C210 C 0.581 0.466 0.42323 0.0
C211 C 0.61562 0.48492 0.30771 0.0
C212 C 0.58916 0.49489 0.56826 0.0
C213 C 0.54747 0.44839 0.64565 0.0
N214 N 0.60697 0.48671 0.39275 0.0
N215 N 0.55183 0.44718 0.55532 0.0
H216 H 0.63092 0.91135 0.81853 0.0
H217 H 0.58164 0.96431 0.38523 0.0
H218 H 0.56097 0.9351 0.82153 0.0
H219 H 0.66553 0.95946 0.4192 0.0
H220 H 0.56921 0.94888 0.53776 0.0
H221 H 0.63608 0.92002 0.65776 0.0
C222 C 0.61608 0.91773 0.78489 0.0
C223 C 0.59623 0.92337 0.83416 0.0
C224 C 0.59044 0.95144 0.51185 0.0
C225 C 0.60259 0.93391 0.65153 0.0
C226 C 0.59783 0.96065 0.42554 0.0
C227 C 0.62458 0.963 0.38941 0.0
C228 C 0.60991 0.94451 0.56152 0.0
C229 C 0.64453 0.95771 0.44415 0.0
C230 C 0.61934 0.92302 0.69344 0.0
C231 C 0.57714 0.93112 0.78658 0.0
N232 N 0.63661 0.94844 0.52725 0.0
N233 N 0.58125 0.93672 0.69796 0.0
H234 H 0.83531 0.86097 0.64467 0.0
H235 H 0.87695 0.79856 0.06442 0.0
H236 H 0.83198 0.78364 0.62207 0.0
H237 H 0.88155 0.87633 0.08788 0.0
H238 H 0.86624 0.79525 0.89838 0.0
H239 H 0.85365 0.86761 0.80693 0.0
C240 C 0.83784 0.84513 0.67429 0.0
C241 C 0.83229 0.82179 0.61987 0.0
C242 C 0.87009 0.81325 0.93963 0.0
C243 C 0.85401 0.8296 0.80432 0.0
C244 C 0.87657 0.8153 0.03419 0.0
C245 C 0.87949 0.83749 0.0896 0.0
C246 C 0.86631 0.83346 0.90099 0.0
C247 C 0.8792 0.85877 0.04741 0.0
C248 C 0.84872 0.84912 0.76655 0.0
C249 C 0.83592 0.80193 0.66159 0.0
N250 N 0.87198 0.85597 0.95532 0.0
N251 N 0.84684 0.80641 0.75142 0.0
H252 H 0.353 0.85462 0.6657 0.0
H253 H 0.24867 0.77344 0.05711 0.0
H254 H 0.28914 0.76745 0.64068 0.0
H255 H 0.31686 0.85966 0.09254 0.0
H256 H 0.25782 0.77248 0.89566 0.0
H257 H 0.33871 0.85753 0.82061 0.0
C258 C 0.33653 0.83599 0.69349 0.0
C259 C 0.32177 0.81081 0.63975 0.0
C260 C 0.27047 0.79169 0.93849 0.0
C261 C 0.30478 0.81415 0.8152 0.0
C262 C 0.26498 0.79232 0.03027 0.0
C263 C 0.28286 0.81646 0.08842 0.0
C264 C 0.29402 0.81535 0.90568 0.0
C265 C 0.30308 0.84047 0.05017 0.0
C266 C 0.32802 0.83776 0.78133 0.0
C267 C 0.3008 0.78735 0.67937 0.0
N268 N 0.30871 0.83919 0.96108 0.0
N269 N 0.29259 0.78965 0.76461 0.0
H270 H 0.32116 0.32279 0.50008 0.0
H271 H 0.21735 0.30934 0.91052 0.0
H272 H 0.24974 0.34491 0.49012 0.0
H273 H 0.2826 0.2803 0.90747 0.0
H274 H 0.22561 0.31911 0.75155 0.0
H275 H 0.30785 0.30806 0.65206 0.0
C276 C 0.30311 0.32508 0.53052 0.0
C277 C 0.28614 0.33463 0.48171 0.0
C278 C 0.23778 0.31025 0.78536 0.0
C279 C 0.27031 0.31718 0.65416 0.0
C280 C 0.2328 0.30434 0.87581 0.0
C281 C 0.25022 0.29493 0.92312 0.0
C282 C 0.26028 0.30668 0.74285 0.0
C283 C 0.26937 0.2883 0.87426 0.0
C284 C 0.2952 0.31626 0.61671 0.0
C285 C 0.26322 0.33739 0.52489 0.0
N286 N 0.27444 0.29488 0.78701 0.0
N287 N 0.25569 0.32836 0.60854 0.0
H288 H 0.42807 0.12644 0.3684 0.0
H289 H 0.50407 0.16934 0.88684 0.0
H290 H 0.52735 0.17008 0.34626 0.0
H291 H 0.40476 0.1237 0.9074 0.0
H292 H 0.51304 0.17006 0.05407 0.0
H293 H 0.41903 0.12576 0.20107 0.0
C294 C 0.44801 0.13594 0.32851 0.0
C295 C 0.47856 0.14832 0.37219 0.0
C296 C 0.48925 0.15982 0.02222 0.0
C297 C 0.46833 0.14757 0.17889 0.0
C298 C 0.48411 0.1593 0.92628 0.0
C299 C 0.45357 0.14625 0.8821 0.0
C300 C 0.46371 0.14731 0.07559 0.0
C301 C 0.42871 0.13397 0.93789 0.0
C302 C 0.44282 0.13552 0.23261 0.0
C303 C 0.50339 0.16028 0.31613 0.0
N304 N 0.43429 0.1348 0.03102 0.0
N305 N 0.49776 0.15958 0.22311 0.0
H306 H 0.97552 0.17328 0.44891 0.0
H307 H 0.92888 0.10584 0.92014 0.0
H308 H 0.90174 0.09068 0.36765 0.0
H309 H 1.00195 0.18872 0.00128 0.0
H310 H 0.91861 0.09982 0.08254 0.0
H311 H 0.98582 0.17924 0.28654 0.0
C312 C 0.96146 0.15637 0.3971 0.0
C313 C 0.93763 0.13143 0.42279 0.0
C314 C 0.93693 0.11935 0.06503 0.0
C315 C 0.94931 0.13814 0.23495 0.0
C316 C 0.94277 0.12281 0.9719 0.0
C317 C 0.96636 0.14786 0.94614 0.0
C318 C 0.95479 0.14106 0.13405 0.0
C319 C 0.98357 0.16901 0.01721 0.0
C320 C 0.96734 0.15979 0.304 0.0
C321 C 0.92029 0.11031 0.35173 0.0
N322 N 0.9775 0.16515 0.10707 0.0
N323 N 0.92641 0.11413 0.26188 0.0
H324 H 0.91034 0.58741 0.36258 0.0
H325 H 0.98866 0.6953 0.98994 0.0
H326 H 0.97226 0.67355 0.43592 0.0
H327 H 0.92626 0.60922 0.91662 0.0
H328 H 0.98272 0.68782 0.15275 0.0
H329 H 0.91627 0.5949 0.1998 0.0
C330 C 0.92536 0.60792 0.3445 0.0
C331 C 0.9408 0.62988 0.41337 0.0
C332 C 0.97022 0.67054 0.10125 0.0
C333 C 0.94759 0.6387 0.22593 0.0
C334 C 0.97354 0.67481 0.00803 0.0
C335 C 0.95796 0.65286 0.93917 0.0
C336 C 0.95117 0.64406 0.12661 0.0
C337 C 0.9387 0.62677 0.96713 0.0
C338 C 0.92866 0.6122 0.25129 0.0
C339 C 0.95992 0.656 0.38541 0.0
N340 N 0.93594 0.6231 0.05839 0.0
N341 N 0.9627 0.65967 0.29416 0.0
H342 H 0.19046 0.37082 0.28182 0.0
H343 H 0.10273 0.4131 0.90953 0.0
H344 H 0.20578 0.37122 -0.00568 0.0
H345 H 0.12131 0.44361 0.19627 0.0
H346 H 0.13119 0.38901 0.93968 0.0
H347 H 0.15624 0.38947 0.2515 0.0
C348 C 0.1865 0.37474 0.21227 0.0
C349 C 0.2011 0.36968 0.14054 0.0
C350 C 0.12877 0.4008 -0.00398 0.0
C351 C 0.16168 0.39056 0.10515 0.0
C352 C 0.11237 0.41435 0.97901 0.0
C353 C 0.10989 0.43046 0.05052 0.0
C354 C 0.14224 0.40302 0.0854 0.0
C355 C 0.1229 0.43152 0.13921 0.0
C356 C 0.16702 0.38539 0.19505 0.0
C357 C 0.19513 0.37504 0.05163 0.0
N358 N 0.13852 0.41801 0.15418 0.0
N359 N 0.1758 0.38512 0.03633 0.0
H360 H 0.63498 0.58095 0.19198 0.0
H361 H 0.80173 0.71316 0.15983 0.0
H362 H 0.69269 0.58852 0.97239 0.0
H363 H 0.7344 0.71109 0.33861 0.0
H364 H 0.76424 0.66603 0.09903 0.0
H365 H 0.67296 0.62762 0.2537 0.0
C366 C 0.65561 0.5926 0.15642 0.0
C367 C 0.66081 0.58109 0.07699 0.0
C368 C 0.75772 0.67587 0.15172 0.0
C369 C 0.70447 0.63424 0.14763 0.0
C370 C 0.77912 0.70263 0.18679 0.0
C371 C 0.77096 0.71584 0.25402 0.0
C372 C 0.72812 0.66232 0.18477 0.0
C373 C 0.74147 0.70151 0.28665 0.0
C374 C 0.67728 0.61918 0.19171 0.0
C375 C 0.68786 0.59686 0.03356 0.0
N376 N 0.72104 0.67546 0.25157 0.0
N377 N 0.70887 0.62272 0.06982 0.0
H378 H 0.53611 0.92952 0.14413 0.0
H379 H 0.40302 0.80882 0.39734 0.0
H380 H 0.54276 0.86337 0.24898 0.0
H381 H 0.38502 0.86411 0.25365 0.0
H382 H 0.45677 0.83288 0.35772 0.0
H383 H 0.48298 0.90976 0.19501 0.0
C384 C 0.52641 0.91092 0.17789 0.0
C385 C 0.54372 0.89794 0.19197 0.0
C386 C 0.44123 0.83992 0.33481 0.0
C387 C 0.48349 0.87549 0.25084 0.0
C388 C 0.41048 0.82619 0.35774 0.0
C389 C 0.38943 0.83431 0.32807 0.0
C390 C 0.4513 0.86207 0.28144 0.0
C391 C 0.40051 0.85713 0.27754 0.0
C392 C 0.49617 0.89967 0.20685 0.0
C393 C 0.53021 0.87398 0.23626 0.0
N394 N 0.4307 0.87015 0.25524 0.0
N395 N 0.50106 0.86361 0.264 0.0
H396 H 0.55536 0.02304 0.10429 0.0
H397 H 0.55765 0.10086 0.66175 0.0
H398 H 0.59199 0.01495 0.851 0.0
H399 H 0.52227 0.11119 0.91471 0.0
H400 H 0.57174 0.07021 0.73252 0.0
H401 H 0.54295 0.05546 0.0376 0.0
C402 C 0.56054 0.02794 0.03455 0.0
C403 C 0.57466 0.01636 0.98298 0.0
C404 C 0.5611 0.07932 0.77292 0.0
C405 C 0.56096 0.05344 0.90675 0.0
C406 C 0.55326 0.09694 0.73262 0.0
C407 C 0.53886 0.10854 0.78256 0.0
C408 C 0.55436 0.07318 0.86372 0.0
C409 C 0.53342 0.10265 0.87395 0.0
C410 C 0.55364 0.04652 -0.00334 0.0
C411 C 0.5811 0.02346 0.89316 0.0
N412 N 0.54102 0.08526 0.91151 0.0
N413 N 0.57426 0.04153 0.85802 0.0
H414 H 0.92051 0.19736 0.8452 0.0
H415 H 0.98049 0.34702 0.69813 0.0
H416 H 0.95927 0.22446 0.58871 0.0
H417 H 0.9845 0.33014 0.9807 0.0
H418 H 0.95604 0.29834 0.64958 0.0
H419 H 0.9271 0.24246 0.88625 0.0
C420 C 0.92955 0.21257 0.79656 0.0
C421 C 0.93971 0.20752 0.71403 0.0
C422 C 0.96193 0.30529 0.72225 0.0
C423 C 0.94712 0.25853 0.76 0.0
C424 C 0.97589 0.33298 0.74997 0.0
C425 C 0.9849 0.34244 0.8433 0.0
C426 C 0.95678 0.28703 0.78848 0.0
C427 C 0.97821 0.32352 0.90793 0.0
C428 C 0.9335 0.23823 0.82025 0.0
C429 C 0.95152 0.22781 0.65348 0.0
N430 N 0.96468 0.29657 0.87921 0.0
N431 N 0.9551 0.25256 0.67794 0.0
H432 H 0.80569 0.55101 0.62065 0.0
H433 H 0.68428 0.52118 0.00183 0.0
H434 H 0.83192 0.59879 0.88358 0.0
H435 H 0.6622 0.47379 0.73948 0.0
H436 H 0.73753 0.55154 0.95936 0.0
H437 H 0.75226 0.52404 0.66232 0.0
C438 C 0.80015 0.55585 0.68724 0.0
C439 C 0.82329 0.57712 0.7488 0.0
C440 C 0.72096 0.53454 0.91108 0.0
C441 C 0.7619 0.54619 0.79755 0.0
C442 C 0.69058 0.51729 0.93521 0.0
C443 C 0.66886 0.49487 0.87424 0.0
C444 C 0.72957 0.52929 0.8254 0.0
C445 C 0.67822 0.49072 0.78886 0.0
C446 C 0.76958 0.54043 0.71114 0.0
C447 C 0.81475 0.58251 0.83415 0.0
N448 N 0.70777 0.50764 0.76725 0.0
N449 N 0.78476 0.56711 0.85617 0.0
H450 H 0.01945 0.60437 0.71412 0.0
H451 H 0.95611 0.45096 0.83096 0.0
H452 H 0.92175 0.54641 0.73136 0.0
H453 H 0.05295 0.51423 0.88169 0.0
H454 H 0.94322 0.48464 0.78088 0.0
H455 H 0.03232 0.5704 0.76018 0.0
C456 C 1.00065 0.58445 0.72679 0.0
C457 C 0.96943 0.57829 0.71901 0.0
C458 C 0.96727 0.49122 0.80346 0.0
C459 C 0.98411 0.53934 0.77212 0.0
C460 C 0.97462 0.47203 0.83207 0.0
C461 C 1.00556 0.47997 0.86136 0.0
C462 C 0.99115 0.5185 0.80297 0.0
C463 C 0.02874 0.50742 0.86092 0.0
C464 C 1.00807 0.56512 0.75367 0.0
C465 C 0.94613 0.55213 0.73675 0.0
N466 N 0.02109 0.52572 0.83176 0.0
N467 N 0.95394 0.53363 0.76241 0.0
H468 H 0.51578 0.35067 0.78477 0.0
H469 H 0.55135 0.23046 0.80506 0.0
H470 H 0.59146 0.35889 0.96839 0.0
H471 H 0.50363 0.24092 0.5699 0.0
H472 H 0.56707 0.27676 0.86984 0.0
H473 H 0.50866 0.30796 0.71349 0.0
C474 C 0.53061 0.34324 0.81082 0.0
C475 C 0.55416 0.35815 0.88244 0.0
C476 C 0.55372 0.26904 0.80317 0.0
C477 C 0.54656 0.30963 0.80054 0.0
C478 C 0.54508 0.24281 0.76576 0.0
C479 C 0.52585 0.23184 0.68274 0.0
C480 C 0.54273 0.28398 0.75721 0.0
C481 C 0.51808 0.24851 0.63487 0.0
C482 C 0.52684 0.31907 0.76942 0.0
C483 C 0.57296 0.34781 0.91329 0.0
N484 N 0.52608 0.27357 0.67356 0.0
N485 N 0.56873 0.32404 0.87218 0.0
H486 H 0.81542 0.04187 0.72514 0.0
H487 H 0.71755 0.04366 0.13903 0.0
H488 H 0.84997 0.10927 0.93537 0.0
H489 H 0.69395 0.97043 0.96817 0.0
H490 H 0.76604 0.06825 0.06507 0.0
H491 H 0.76985 0.01569 0.81026 0.0
C492 C 0.8133 0.05116 0.78902 0.0
C493 C 0.83631 0.07778 0.82313 0.0
C494 C 0.75043 0.04673 0.04438 0.0
C495 C 0.78448 0.04803 0.92098 0.0
C496 C 0.72283 0.03269 0.08682 0.0
C497 C 0.7017 0.00504 0.05935 0.0
C498 C 0.75676 0.0331 0.97311 0.0
C499 C 0.70962 0.99177 0.99131 0.0
C500 C 0.78743 0.03619 0.83787 0.0
C501 C 0.83263 0.08883 0.90652 0.0
N502 N 0.73635 0.006 0.94974 0.0
N503 N 0.80714 0.07396 0.95238 0.0
H504 H 0.72827 0.93693 0.26921 0.0
H505 H 0.77185 0.8241 0.11496 0.0
H506 H 0.67351 0.86966 0.06174 0.0
H507 H 0.8109 0.87533 0.37133 0.0
H508 H 0.74125 0.84568 0.08269 0.0
H509 H 0.76371 0.91927 0.2969 0.0
C510 C 0.72383 0.91853 0.22922 0.0
C511 C 0.69792 0.90465 0.16323 0.0
C512 C 0.75654 0.85232 0.14595 0.0
C513 C 0.73834 0.88454 0.19398 0.0
C514 C 0.77412 0.84006 0.16435 0.0
C515 C 0.79368 0.84774 0.24648 0.0
C516 C 0.75857 0.87262 0.20978 0.0
C517 C 0.79591 0.86871 0.30749 0.0
C518 C 0.74398 0.90845 0.24522 0.0
C519 C 0.69316 0.88093 0.1134 0.0
N520 N 0.77843 0.8804 0.28809 0.0
N521 N 0.71318 0.87166 0.12968 0.0
H522 H 0.27791 0.70341 0.15288 0.0
H523 H 0.10721 0.57228 0.11891 0.0
H524 H 0.20973 0.69214 0.34273 0.0
H525 H 0.18318 0.57145 0.99209 0.0
H526 H 0.14339 0.61869 0.18748 0.0
H527 H 0.24281 0.65674 0.08205 0.0
C528 C 0.25567 0.69097 0.18008 0.0
C529 C 0.24655 0.70143 0.25347 0.0
C530 C 0.15216 0.6084 0.14451 0.0
C531 C 0.20634 0.64863 0.17234 0.0
C532 C 0.1315 0.58203 0.10484 0.0
C533 C 0.14238 0.56817 0.05014 0.0
C534 C 0.18384 0.62101 0.12866 0.0
C535 C 0.17401 0.58158 0.03406 0.0
C536 C 0.23569 0.66445 0.13966 0.0
C537 C 0.21757 0.6847 0.28629 0.0
N538 N 0.19376 0.60738 0.07332 0.0
N539 N 0.19834 0.65914 0.24493 0.0
H540 H 0.50618 0.41128 -0.00107 0.0
H541 H 0.36448 0.41526 0.22542 0.0
H542 H 0.50526 0.48421 0.08861 0.0
H543 H 0.35321 0.34067 0.09498 0.0
H544 H 0.41834 0.43955 0.18695 0.0
H545 H 0.45205 0.38378 0.04128 0.0
C546 C 0.49458 0.42146 0.02706 0.0
C547 C 0.51016 0.45006 0.04005 0.0
C548 C 0.40426 0.41786 0.16659 0.0
C549 C 0.44882 0.41898 0.08945 0.0
C550 C 0.37344 0.40394 0.18895 0.0
C551 C 0.35425 0.37594 0.1629 0.0
C552 C 0.41632 0.4038 0.11761 0.0
C553 C 0.36724 0.36232 0.11608 0.0
C554 C 0.46379 0.40581 0.05134 0.0
C555 C 0.49419 0.46224 0.07718 0.0
N556 N 0.39748 0.3764 0.09455 0.0
N557 N 0.46463 0.44672 0.10061 0.0
H558 H 0.97773 0.73842 0.66106 0.0
H559 H 0.85963 0.769 0.38408 0.0
H560 H 0.88039 0.67706 0.59812 0.0
H561 H 0.93727 0.83142 0.56449 0.0
H562 H 0.86952 0.73466 0.44527 0.0
H563 H 0.96605 0.77288 0.61147 0.0
C564 C 0.95386 0.73225 0.63752 0.0
C565 C 0.92997 0.70486 0.63384 0.0
C566 C 0.88436 0.75588 0.47142 0.0
C567 C 0.91665 0.74402 0.57527 0.0
C568 C 0.87887 0.77545 0.43591 0.0
C569 C 0.89777 0.803 0.46869 0.0
C570 C 0.90939 0.76409 0.53885 0.0
C571 C 0.92222 0.81033 0.53716 0.0
C572 C 0.94723 0.75191 0.60939 0.0
C573 C 0.89945 0.69798 0.60269 0.0
N574 N 0.92756 0.79102 0.56941 0.0
N575 N 0.89372 0.71738 0.57342 0.0
H576 H 0.43183 0.05448 0.69304 0.0
H577 H 0.30944 0.92364 0.36028 0.0
H578 H 0.37614 0.06031 0.46863 0.0
H579 H 0.39095 0.93167 0.51162 0.0
H580 H 0.3271 0.97133 0.41293 0.0
H581 H 0.40867 0.00617 0.64573 0.0
C582 C 0.41442 0.04552 0.63429 0.0
C583 C 0.40625 0.06152 0.58368 0.0
C584 C 0.34109 0.9626 0.43407 0.0
C585 C 0.37985 0.00618 0.52885 0.0
C586 C 0.33114 0.93554 0.40401 0.0
C587 C 0.3489 0.92393 0.43175 0.0
C588 C 0.36861 0.97774 0.49332 0.0
C589 C 0.37671 0.93997 0.48851 0.0
C590 C 0.40136 0.01796 0.60708 0.0
C591 C 0.38317 0.04869 0.50919 0.0
N592 N 0.38561 0.96604 0.518 0.0
N593 N 0.3709 0.02167 0.48326 0.0
H594 H 0.08575 0.23975 0.62312 0.0
H595 H 0.18713 0.2242 0.24753 0.0
H596 H 0.05506 0.16604 0.44554 0.0
H597 H 0.20399 0.30329 0.34996 0.0
H598 H 0.13945 0.20281 0.32507 0.0
H599 H 0.1306 0.26385 0.53201 0.0
C600 C 0.08854 0.22867 0.56526 0.0
C601 C 0.06691 0.20084 0.54214 0.0
C602 C 0.15323 0.22486 0.32988 0.0
C603 C 0.11769 0.22811 0.438 0.0
C604 C 0.1804 0.23706 0.28533 0.0
C605 C 0.19928 0.26548 0.29192 0.0
C606 C 0.14512 0.24115 0.38363 0.0
C607 C 0.18977 0.28128 0.3424 0.0
C608 C 0.11392 0.24244 0.51299 0.0
C609 C 0.07132 0.18744 0.46614 0.0
N610 N 0.16346 0.26886 0.38768 0.0
N611 N 0.09625 0.20114 0.41727 0.0
H612 H 0.44221 0.21695 0.4209 0.0
H613 H 0.29493 0.22185 0.21484 0.0
H614 H 0.34917 0.15943 0.48578 0.0
H615 H 0.38239 0.29563 0.30209 0.0
H616 H 0.31595 0.19524 0.28112 0.0
H617 H 0.42175 0.24272 0.34565 0.0
C618 C 0.41739 0.20965 0.4187 0.0
C619 C 0.39726 0.18606 0.45958 0.0
C620 C 0.33056 0.21723 0.28499 0.0
C621 C 0.37382 0.21521 0.3725 0.0
C622 C 0.31878 0.23242 0.24652 0.0
C623 C 0.33705 0.26097 0.253 0.0
C624 C 0.36106 0.23066 0.32835 0.0
C625 C 0.36763 0.27364 0.29558 0.0
C626 C 0.40585 0.22443 0.37617 0.0
C627 C 0.36539 0.17756 0.45523 0.0
N628 N 0.37879 0.25836 0.33143 0.0
N629 N 0.35453 0.19205 0.41166 0.0
H630 H 0.91845 0.95387 0.33289 0.0
H631 H 0.94179 0.05203 0.76242 0.0
H632 H 0.92737 0.93381 0.60849 0.0
H633 H 0.98183 0.08431 0.51216 0.0
H634 H 0.9353 0.00806 0.70675 0.0
H635 H 0.94046 0.00172 0.39396 0.0
C636 C 0.92537 0.95964 0.40591 0.0
C637 C 0.92091 0.94003 0.46605 0.0
C638 C 0.94609 0.02492 0.6648 0.0
C639 C 0.94554 0.99408 0.53586 0.0
C640 C 0.94975 0.04993 0.6965 0.0
C641 C 0.9623 0.07163 0.64157 0.0
C642 C 0.95417 0.02147 0.57653 0.0
C643 C 0.97222 0.068 0.55661 0.0
C644 C 0.93803 0.98684 0.44057 0.0
C645 C 0.93029 0.94837 0.56 0.0
N646 N 0.96732 0.04311 0.52557 0.0
N647 N 0.94173 0.97473 0.59232 0.0
H648 H 0.06493 0.68127 0.4669 0.0
H649 H 0.23716 0.80986 0.60591 0.0
H650 H 0.09302 0.73232 0.72347 0.0
H651 H 0.21185 0.75914 0.34946 0.0
H652 H 0.18478 0.78035 0.6513 0.0
H653 H 0.11853 0.70821 0.42332 0.0
C654 C 0.08241 0.69811 0.5141 0.0
C655 C 0.07455 0.70463 0.59885 0.0
C656 C 0.19057 0.77553 0.58513 0.0
C657 C 0.13584 0.73554 0.54956 0.0
C658 C 0.22052 0.79242 0.55915 0.0
C659 C 0.22876 0.78706 0.47348 0.0
C660 C 0.16845 0.75305 0.52494 0.0
C661 C 0.20637 0.76403 0.41602 0.0
C662 C 0.11299 0.71347 0.48924 0.0
C663 C 0.09806 0.72661 0.65743 0.0
N664 N 0.17715 0.74794 0.44255 0.0
N665 N 0.12754 0.74127 0.63164 0.0
loop_
_geom_bond_atom_site_label_1
_geom_bond_atom_site_label_2
_geom_bond_distance
_geom_bond_site_symmetry_2
_ccdc_geom_bond_type
Tb0 O3 2.424 1_455 S
Tb0 O4 2.597 . S
Tb0 O5 2.389 1_554 S
Tb0 O13 2.380 . S
Tb0 O15 2.354 . S
Tb0 O17 2.437 1_455 S
Tb0 O18 2.533 1_554 S
C1 O5 1.251 . S
C1 O7 1.263 . S
Tb2 O4 2.343 . S
Tb2 O7 2.353 1_554 S
Tb2 O10 2.427 . S
Tb2 O11 2.513 . S
Tb2 O12 2.453 . S
Tb2 O13 2.596 . S
Tb2 O14 2.374 . S
O3 Tb0 2.424 1_655 S
O3 C19 1.245 1_655 S
O4 Tb0 2.597 . S
O4 Tb2 2.343 . S
O4 C19 1.259 . S
O5 Tb0 2.389 1_556 S
O5 C1 1.251 . S
C6 O10 1.275 . S
C6 O11 1.246 . S
O7 C1 1.263 . S
O7 Tb2 2.353 1_556 S
C8 O12 1.245 . S
C8 O13 1.259 . S
C9 O14 1.250 . S
C9 O15 1.263 . S
O10 Tb2 2.427 . S
O10 C6 1.275 . S
O11 Tb2 2.513 . S
O11 C6 1.246 . S
O12 Tb2 2.453 . S
O12 C8 1.245 . S
O13 Tb0 2.380 . S
O13 Tb2 2.596 . S
O13 C8 1.259 . S
O14 Tb2 2.374 . S
O14 C9 1.250 . S
O15 Tb0 2.354 . S
O15 C9 1.263 . S
C16 O17 1.275 . S
C16 O18 1.246 1_654 S
O17 Tb0 2.437 1_655 S
O17 C16 1.275 . S
O18 Tb0 2.533 1_556 S
O18 C16 1.246 1_456 S
C19 O3 1.245 1_455 S
C19 O4 1.259 . S
Tb20 O23 2.453 . S
Tb20 O24 2.596 . S
Tb20 O25 2.374 . S
Tb20 O33 2.343 . S
Tb20 O35 2.353 1_554 S
Tb20 O37 2.427 . S
Tb20 O38 2.513 . S
C21 O25 1.251 . S
C21 O27 1.263 . S
Tb22 O24 2.343 . S
Tb22 O27 2.353 . S
Tb22 O30 2.427 . S
Tb22 O31 2.513 1_554 S
Tb22 O32 2.453 . S
Tb22 O33 2.596 . S
Tb22 O34 2.374 1_554 S
O23 Tb20 2.453 . S
O23 C39 1.245 . S
O24 Tb20 2.596 . S
O24 Tb22 2.343 . S
O24 C39 1.259 . S
O25 Tb20 2.374 . S
O25 C21 1.251 . S
C26 O30 1.275 . S
C26 O31 1.246 1_554 S
O27 C21 1.263 . S
O27 Tb22 2.353 . S
C28 O32 1.245 . S
C28 O33 1.259 . S
C29 O34 1.250 . S
C29 O35 1.263 . S
O30 Tb22 2.427 . S
O30 C26 1.275 . S
O31 Tb22 2.513 1_556 S
O31 C26 1.246 1_556 S
O32 Tb22 2.453 . S
O32 C28 1.245 . S
O33 Tb20 2.343 . S
O33 Tb22 2.596 . S
O33 C28 1.259 . S
O34 Tb22 2.374 1_556 S
O34 C29 1.250 . S
O35 Tb20 2.353 1_556 S
O35 C29 1.263 . S
C36 O37 1.275 . S
C36 O38 1.246 . S
O37 Tb20 2.427 . S
O37 C36 1.275 . S
O38 Tb20 2.513 . S
O38 C36 1.246 . S
C39 O23 1.245 . S
C39 O24 1.259 . S
Tb40 O43 2.453 . S
Tb40 O44 2.596 . S
Tb40 O45 2.374 1_554 S
Tb40 O53 2.343 . S
Tb40 O55 2.353 . S
Tb40 O57 2.427 . S
Tb40 O58 2.513 . S
C41 O45 1.251 . S
C41 O47 1.263 1_545 S
Tb42 O44 2.343 1_565 S
Tb42 O47 2.353 1_554 S
Tb42 O50 2.427 . S
Tb42 O51 2.513 . S
Tb42 O52 2.453 . S
Tb42 O53 2.596 1_565 S
Tb42 O54 2.374 . S
O43 Tb40 2.453 . S
O43 C59 1.245 . S
O44 Tb40 2.596 . S
O44 Tb42 2.343 1_545 S
O44 C59 1.259 . S
O45 Tb40 2.374 1_556 S
O45 C41 1.251 . S
C46 O50 1.275 . S
C46 O51 1.246 . S
O47 C41 1.263 1_565 S
O47 Tb42 2.353 1_556 S
C48 O52 1.245 . S
C48 O53 1.259 1_565 S
C49 O54 1.250 1_545 S
C49 O55 1.263 . S
O50 Tb42 2.427 . S
O50 C46 1.275 . S
O51 Tb42 2.513 . S
O51 C46 1.246 . S
O52 Tb42 2.453 . S
O52 C48 1.245 . S
O53 Tb40 2.343 . S
O53 Tb42 2.596 1_545 S
O53 C48 1.259 1_545 S
O54 Tb42 2.374 . S
O54 C49 1.250 1_565 S
O55 Tb40 2.353 . S
O55 C49 1.263 . S
C56 O57 1.275 . S
C56 O58 1.246 . S
O57 Tb40 2.427 . S
O57 C56 1.275 . S
O58 Tb40 2.513 . S
O58 C56 1.246 . S
C59 O43 1.245 . S
C59 O44 1.259 . S
Tb60 O63 2.453 . S
Tb60 O64 2.596 . S
Tb60 O65 2.374 . S
Tb60 O73 2.343 . S
Tb60 O75 2.353 . S
Tb60 O77 2.427 . S
Tb60 O78 2.513 . S
C61 O65 1.251 . S
C61 O67 1.263 . S
Tb62 O64 2.343 . S
Tb62 O67 2.353 . S
Tb62 O70 2.427 . S
Tb62 O71 2.513 . S
Tb62 O72 2.453 . S
Tb62 O73 2.596 . S
Tb62 O74 2.374 . S
O63 Tb60 2.453 . S
O63 C79 1.245 . S
O64 Tb60 2.596 . S
O64 Tb62 2.343 . S
O64 C79 1.259 . S
O65 Tb60 2.374 . S
O65 C61 1.251 . S
C66 O70 1.275 . S
C66 O71 1.246 . S
O67 C61 1.263 . S
O67 Tb62 2.353 . S
C68 O72 1.245 . S
C68 O73 1.259 . S
C69 O74 1.250 . S
C69 O75 1.263 . S
O70 Tb62 2.427 . S
O70 C66 1.275 . S
O71 Tb62 2.513 . S
O71 C66 1.246 . S
O72 Tb62 2.453 . S
O72 C68 1.245 . S
O73 Tb60 2.343 . S
O73 Tb62 2.596 . S
O73 C68 1.259 . S
O74 Tb62 2.374 . S
O74 C69 1.250 . S
O75 Tb60 2.353 . S
O75 C69 1.263 . S
C76 O77 1.275 . S
C76 O78 1.246 . S
O77 Tb60 2.427 . S
O77 C76 1.275 . S
O78 Tb60 2.513 . S
O78 C76 1.246 . S
C79 O63 1.245 . S
C79 O64 1.259 . S
Tb80 O83 2.453 . S
Tb80 O84 2.596 . S
Tb80 O85 2.374 . S
Tb80 O93 2.343 . S
Tb80 O95 2.353 . S
Tb80 O97 2.427 . S
Tb80 O98 2.513 . S
C81 O85 1.251 . S
C81 O87 1.263 . S
Tb82 O84 2.343 . S
Tb82 O87 2.353 . S
Tb82 O90 2.427 . S
Tb82 O91 2.513 . S
Tb82 O92 2.453 . S
Tb82 O93 2.596 . S
Tb82 O94 2.374 . S
O83 Tb80 2.453 . S
O83 C99 1.245 . S
O84 Tb80 2.596 . S
O84 Tb82 2.343 . S
O84 C99 1.259 . S
O85 Tb80 2.374 . S
O85 C81 1.251 . S
C86 O90 1.275 . S
C86 O91 1.246 . S
O87 C81 1.263 . S
O87 Tb82 2.353 . S
C88 O92 1.245 . S
C88 O93 1.259 . S
C89 O94 1.250 . S
C89 O95 1.263 . S
O90 Tb82 2.427 . S
O90 C86 1.275 . S
O91 Tb82 2.513 . S
O91 C86 1.246 . S
O92 Tb82 2.453 . S
O92 C88 1.245 . S
O93 Tb80 2.343 . S
O93 Tb82 2.596 . S
O93 C88 1.259 . S
O94 Tb82 2.374 . S
O94 C89 1.250 . S
O95 Tb80 2.353 . S
O95 C89 1.263 . S
C96 O97 1.275 . S
C96 O98 1.246 . S
O97 Tb80 2.427 . S
O97 C96 1.275 . S
O98 Tb80 2.513 . S
O98 C96 1.246 . S
C99 O83 1.245 . S
C99 O84 1.259 . S
Tb100 O103 2.453 . S
Tb100 O104 2.596 . S
Tb100 O105 2.374 . S
Tb100 O113 2.343 . S
Tb100 O115 2.353 . S
Tb100 O117 2.427 . S
Tb100 O118 2.513 . S
C101 O105 1.249 1_556 S
C101 O107 1.260 1_556 S
Tb102 O104 2.343 . S
Tb102 O107 2.353 . S
Tb102 O110 2.427 . S
Tb102 O111 2.513 . S
Tb102 O112 2.453 . S
Tb102 O113 2.596 . S
Tb102 O114 2.374 . S
O103 Tb100 2.453 . S
O103 C119 1.245 . S
O104 Tb100 2.596 . S
O104 Tb102 2.343 . S
O104 C119 1.259 . S
O105 Tb100 2.374 . S
O105 C101 1.249 1_554 S
C106 O110 1.275 . S
C106 O111 1.246 . S
O107 C101 1.260 1_554 S
O107 Tb102 2.353 . S
C108 O112 1.245 . S
C108 O113 1.259 . S
C109 O114 1.250 . S
C109 O115 1.263 . S
O110 Tb102 2.427 . S
O110 C106 1.275 . S
O111 Tb102 2.513 . S
O111 C106 1.246 . S
O112 Tb102 2.453 . S
O112 C108 1.245 . S
O113 Tb100 2.343 . S
O113 Tb102 2.596 . S
O113 C108 1.259 . S
O114 Tb102 2.374 . S
O114 C109 1.250 . S
O115 Tb100 2.353 . S
O115 C109 1.263 . S
C116 O117 1.275 . S
C116 O118 1.246 . S
O117 Tb100 2.427 . S
O117 C116 1.275 . S
O118 Tb100 2.513 . S
O118 C116 1.246 . S
C119 O103 1.245 . S
C119 O104 1.259 . S
Tb120 O123 2.453 . S
Tb120 O124 2.596 . S
Tb120 O125 2.374 . S
Tb120 O133 2.343 . S
Tb120 O135 2.353 . S
Tb120 O137 2.427 . S
Tb120 O138 2.513 . S
C121 O125 1.251 . S
C121 O127 1.263 . S
Tb122 O124 2.343 . S
Tb122 O127 2.353 . S
Tb122 O130 2.427 . S
Tb122 O131 2.513 . S
Tb122 O132 2.453 . S
Tb122 O133 2.596 . S
Tb122 O134 2.374 . S
O123 Tb120 2.453 . S
O123 C139 1.245 . S
O124 Tb120 2.596 . S
O124 Tb122 2.343 . S
O124 C139 1.259 . S
O125 Tb120 2.374 . S
O125 C121 1.251 . S
C126 O130 1.275 . S
C126 O131 1.246 . S
O127 C121 1.263 . S
O127 Tb122 2.353 . S
C128 O132 1.245 . S
C128 O133 1.259 . S
C129 O134 1.250 . S
C129 O135 1.263 . S
O130 Tb122 2.427 . S
O130 C126 1.275 . S
O131 Tb122 2.513 . S
O131 C126 1.246 . S
O132 Tb122 2.453 . S
O132 C128 1.245 . S
O133 Tb120 2.343 . S
O133 Tb122 2.596 . S
O133 C128 1.259 . S
O134 Tb122 2.374 . S
O134 C129 1.250 . S
O135 Tb120 2.353 . S
O135 C129 1.263 . S
C136 O137 1.275 . S
C136 O138 1.246 . S
O137 Tb120 2.427 . S
O137 C136 1.275 . S
O138 Tb120 2.513 . S
O138 C136 1.246 . S
C139 O123 1.245 . S
C139 O124 1.259 . S
Tb140 O143 2.453 . S
Tb140 O144 2.596 . S
Tb140 O145 2.374 . S
Tb140 O153 2.343 . S
Tb140 O155 2.353 . S
Tb140 O157 2.427 . S
Tb140 O158 2.513 . S
C141 O145 1.251 . S
C141 O147 1.263 . S
Tb142 O144 2.343 . S
Tb142 O147 2.353 . S
Tb142 O150 2.427 1_655 S
Tb142 O151 2.513 1_655 S
Tb142 O152 2.453 . S
Tb142 O153 2.596 . S
Tb142 O154 2.374 . S
O143 Tb140 2.453 . S
O143 C159 1.245 . S
O144 Tb140 2.596 . S
O144 Tb142 2.343 . S
O144 C159 1.259 . S
O145 Tb140 2.374 . S
O145 C141 1.251 . S
C146 O150 1.275 . S
C146 O151 1.246 . S
O147 C141 1.263 . S
O147 Tb142 2.353 . S
C148 O152 1.245 . S
C148 O153 1.259 . S
C149 O154 1.250 . S
C149 O155 1.263 . S
O150 Tb142 2.427 1_455 S
O150 C146 1.275 . S
O151 Tb142 2.513 1_455 S
O151 C146 1.246 . S
O152 Tb142 2.453 . S
O152 C148 1.245 . S
O153 Tb140 2.343 . S
O153 Tb142 2.596 . S
O153 C148 1.259 . S
O154 Tb142 2.374 . S
O154 C149 1.250 . S
O155 Tb140 2.353 . S
O155 C149 1.263 . S
C156 O157 1.275 . S
C156 O158 1.246 . S
O157 Tb140 2.427 . S
O157 C156 1.275 . S
O158 Tb140 2.513 . S
O158 C156 1.246 . S
C159 O143 1.245 . S
C159 O144 1.259 . S
Tb160 O163 2.453 . S
Tb160 O164 2.596 . S
Tb160 O165 2.374 . S
Tb160 O173 2.343 . S
Tb160 O175 2.353 . S
Tb160 O177 2.436 . S
Tb160 O178 2.513 1_655 S
C161 O165 1.251 . S
C161 O167 1.263 . S
Tb162 O164 2.343 . S
Tb162 O167 2.353 . S
Tb162 O170 2.427 . S
Tb162 O171 2.513 . S
Tb162 O172 2.453 . S
Tb162 O173 2.596 . S
Tb162 O174 2.374 . S
O163 Tb160 2.453 . S
O163 C179 1.245 . S
O164 Tb160 2.596 . S
O164 Tb162 2.343 . S
O164 C179 1.259 . S
O165 Tb160 2.374 . S
O165 C161 1.251 . S
C166 O170 1.275 . S
C166 O171 1.246 . S
O167 C161 1.263 . S
O167 Tb162 2.353 . S
C168 O172 1.245 . S
C168 O173 1.259 . S
C169 O174 1.250 . S
C169 O175 1.263 . S
O170 Tb162 2.427 . S
O170 C166 1.275 . S
O171 Tb162 2.513 . S
O171 C166 1.246 . S
O172 Tb162 2.453 . S
O172 C168 1.245 . S
O173 Tb160 2.343 . S
O173 Tb162 2.596 . S
O173 C168 1.259 . S
O174 Tb162 2.374 . S
O174 C169 1.250 . S
O175 Tb160 2.353 . S
O175 C169 1.263 . S
C176 O177 1.240 1_455 S
C176 O178 1.246 . S
O177 Tb160 2.436 . S
O177 C176 1.240 1_655 S
O178 Tb160 2.513 1_455 S
O178 C176 1.246 . S
C179 O163 1.245 . S
C179 O164 1.259 . S
H180 C186 0.930 . S
H181 C190 0.930 1_655 S
H182 C195 0.929 . S
H183 C193 0.929 . S
H184 C188 0.941 . S
H185 C194 0.929 . S
C186 H180 0.930 . S
C186 C187 1.367 . S
C186 C194 1.378 . S
C187 C186 1.367 . S
C187 C195 1.433 . S
C188 H184 0.941 . S
C188 C190 1.378 . S
C188 C192 1.350 . S
C189 C192 1.463 . S
C189 C194 1.350 . S
C189 N197 1.427 . S
C190 H181 0.930 1_455 S
C190 C188 1.378 . S
C190 C191 1.367 . S
C191 C190 1.367 . S
C191 C193 1.433 . S
C192 C188 1.350 . S
C192 C189 1.463 . S
C192 N196 1.427 . S
C193 H183 0.929 . S
C193 C191 1.433 . S
C193 N196 1.384 . S
C194 H185 0.929 . S
C194 C186 1.378 . S
C194 C189 1.350 . S
C195 H182 0.929 . S
C195 C187 1.433 . S
C195 N197 1.384 . S
N196 C192 1.427 . S
N196 C193 1.384 . S
N197 C189 1.427 . S
N197 C195 1.384 . S
H198 C204 0.930 . S
H199 C208 0.930 . S
H200 C213 0.929 . S
H201 C211 0.929 . S
H202 C206 0.929 . S
H203 C212 0.929 . S
C204 H198 0.930 . S
C204 C205 1.367 . S
C204 C212 1.378 . S
C205 C204 1.367 . S
C205 C213 1.433 . S
C206 H202 0.929 . S
C206 C208 1.378 . S
C206 C210 1.350 . S
C207 C210 1.463 . S
C207 C212 1.350 . S
C207 N215 1.427 . S
C208 H199 0.930 . S
C208 C206 1.378 . S
C208 C209 1.367 . S
C209 C208 1.367 . S
C209 C211 1.433 . S
C210 C206 1.350 . S
C210 C207 1.463 . S
C210 N214 1.427 . S
C211 H201 0.929 . S
C211 C209 1.433 . S
C211 N214 1.384 . S
C212 H203 0.929 . S
C212 C204 1.378 . S
C212 C207 1.350 . S
C213 H200 0.929 . S
C213 C205 1.433 . S
C213 N215 1.384 . S
N214 C210 1.427 . S
N214 C211 1.384 . S
N215 C207 1.427 . S
N215 C213 1.384 . S
H216 C222 0.930 . S
H217 C226 0.930 . S
H218 C231 0.929 . S
H219 C229 0.929 . S
H220 C224 0.929 . S
H221 C230 0.929 . S
C222 H216 0.930 . S
C222 C223 1.367 . S
C222 C230 1.378 . S
C223 C222 1.367 . S
C223 C231 1.433 1_545 S
C224 H220 0.929 . S
C224 C226 1.378 . S
C224 C228 1.350 1_565 S
C225 C228 1.463 . S
C225 C230 1.350 . S
C225 N233 1.427 1_545 S
C226 H217 0.930 . S
C226 C224 1.378 . S
C226 C227 1.367 1_565 S
C227 C226 1.367 1_545 S
C227 C229 1.433 . S
C228 C224 1.350 1_545 S
C228 C225 1.463 . S
C228 N232 1.427 . S
C229 H219 0.929 . S
C229 C227 1.433 . S
C229 N232 1.384 . S
C230 H221 0.929 . S
C230 C222 1.378 . S
C230 C225 1.350 . S
C231 H218 0.929 . S
C231 C223 1.433 1_565 S
C231 N233 1.384 . S
N232 C228 1.427 . S
N232 C229 1.384 . S
N233 C225 1.427 1_565 S
N233 C231 1.384 . S
H234 C240 0.930 . S
H235 C244 0.930 1_554 S
H236 C249 0.929 . S
H237 C247 0.929 1_554 S
H238 C242 0.929 . S
H239 C248 0.929 . S
C240 H234 0.930 . S
C240 C241 1.367 . S
C240 C248 1.378 . S
C241 C240 1.367 . S
C241 C249 1.433 . S
C242 H238 0.929 . S
C242 C244 1.378 . S
C242 C246 1.350 . S
C243 C246 1.463 . S
C243 C248 1.350 . S
C243 N251 1.427 . S
C244 H235 0.930 1_556 S
C244 C242 1.378 . S
C244 C245 1.367 1_556 S
C245 C244 1.367 1_554 S
C245 C247 1.433 1_554 S
C246 C242 1.350 . S
C246 C243 1.463 . S
C246 N250 1.427 . S
C247 H237 0.929 1_556 S
C247 C245 1.433 1_556 S
C247 N250 1.384 . S
C248 H239 0.929 . S
C248 C240 1.378 . S
C248 C243 1.350 . S
C249 H236 0.929 . S
C249 C241 1.433 . S
C249 N251 1.384 . S
N250 C246 1.427 . S
N250 C247 1.384 . S
N251 C243 1.427 . S
N251 C249 1.384 . S
H252 C258 0.930 . S
H253 C262 0.930 . S
H254 C267 0.929 . S
H255 C265 0.929 . S
H256 C260 0.929 . S
H257 C266 0.929 . S
C258 H252 0.930 . S
C258 C259 1.367 . S
C258 C266 1.378 . S
C259 C258 1.367 . S
C259 C267 1.433 . S
C260 H256 0.929 . S
C260 C262 1.378 . S
C260 C264 1.350 . S
C261 C264 1.463 . S
C261 C266 1.350 . S
C261 N269 1.427 . S
C262 H253 0.930 . S
C262 C260 1.378 . S
C262 C263 1.367 . S
C263 C262 1.367 . S
C263 C265 1.433 . S
C264 C260 1.350 . S
C264 C261 1.463 . S
C264 N268 1.427 . S
C265 H255 0.929 . S
C265 C263 1.433 . S
C265 N268 1.384 . S
C266 H257 0.929 . S
C266 C258 1.378 . S
C266 C261 1.350 . S
C267 H254 0.929 . S
C267 C259 1.433 . S
C267 N269 1.384 . S
N268 C264 1.427 . S
N268 C265 1.384 . S
N269 C261 1.427 . S
N269 C267 1.384 . S
H270 C276 0.930 . S
H271 C280 0.930 . S
H272 C285 0.929 . S
H273 C283 0.929 . S
H274 C278 0.929 . S
H275 C284 0.929 . S
C276 H270 0.930 . S
C276 C277 1.367 . S
C276 C284 1.378 . S
C277 C276 1.367 . S
C277 C285 1.433 . S
C278 H274 0.929 . S
C278 C280 1.378 . S
C278 C282 1.350 . S
C279 C282 1.463 . S
C279 C284 1.350 . S
C279 N287 1.427 . S
C280 H271 0.930 . S
C280 C278 1.378 . S
C280 C281 1.367 . S
C281 C280 1.367 . S
C281 C283 1.433 . S
C282 C278 1.350 . S
C282 C279 1.463 . S
C282 N286 1.427 . S
C283 H273 0.929 . S
C283 C281 1.433 . S
C283 N286 1.384 . S
C284 H275 0.929 . S
C284 C276 1.378 . S
C284 C279 1.350 . S
C285 H272 0.929 . S
C285 C277 1.433 . S
C285 N287 1.384 . S
N286 C282 1.427 . S
N286 C283 1.384 . S
N287 C279 1.427 . S
N287 C285 1.384 . S
H288 C294 0.930 . S
H289 C298 0.930 . S
H290 C303 0.929 . S
H291 C301 0.929 . S
H292 C296 0.929 . S
H293 C302 0.929 . S
C294 H288 0.930 . S
C294 C295 1.367 . S
C294 C302 1.378 . S
C295 C294 1.367 . S
C295 C303 1.433 . S
C296 H292 0.929 . S
C296 C298 1.378 1_554 S
C296 C300 1.350 . S
C297 C300 1.463 . S
C297 C302 1.350 . S
C297 N305 1.427 . S
C298 H289 0.930 . S
C298 C296 1.378 1_556 S
C298 C299 1.367 . S
C299 C298 1.367 . S
C299 C301 1.433 . S
C300 C296 1.350 . S
C300 C297 1.463 . S
C300 N304 1.427 . S
C301 H291 0.929 . S
C301 C299 1.433 . S
C301 N304 1.384 1_556 S
C302 H293 0.929 . S
C302 C294 1.378 . S
C302 C297 1.350 . S
C303 H290 0.929 . S
C303 C295 1.433 . S
C303 N305 1.384 . S
N304 C300 1.427 . S
N304 C301 1.384 1_554 S
N305 C297 1.427 . S
N305 C303 1.384 . S
H306 C312 0.930 . S
H307 C316 0.930 . S
H308 C321 0.929 . S
H309 C319 0.929 . S
H310 C314 0.929 . S
H311 C320 0.929 . S
C312 H306 0.930 . S
C312 C313 1.367 . S
C312 C320 1.378 . S
C313 C312 1.367 . S
C313 C321 1.433 . S
C314 H310 0.929 . S
C314 C316 1.378 1_554 S
C314 C318 1.350 . S
C315 C318 1.463 . S
C315 C320 1.350 . S
C315 N323 1.427 . S
C316 H307 0.930 . S
C316 C314 1.378 1_556 S
C316 C317 1.367 . S
C317 C316 1.367 . S
C317 C319 1.433 . S
C318 C314 1.350 . S
C318 C315 1.463 . S
C318 N322 1.427 . S
C319 H309 0.929 . S
C319 C317 1.433 . S
C319 N322 1.384 1_556 S
C320 H311 0.929 . S
C320 C312 1.378 . S
C320 C315 1.350 . S
C321 H308 0.929 . S
C321 C313 1.433 . S
C321 N323 1.384 . S
N322 C318 1.427 . S
N322 C319 1.384 1_554 S
N323 C315 1.427 . S
N323 C321 1.384 . S
H324 C330 0.930 . S
H325 C334 0.930 . S
H326 C339 0.929 . S
H327 C337 0.929 . S
H328 C332 0.929 . S
H329 C338 0.929 . S
C330 H324 0.930 . S
C330 C331 1.367 . S
C330 C338 1.378 . S
C331 C330 1.367 . S
C331 C339 1.433 . S
C332 H328 0.929 . S
C332 C334 1.378 1_554 S
C332 C336 1.350 . S
C333 C336 1.463 . S
C333 C338 1.350 . S
C333 N341 1.427 . S
C334 H325 0.930 . S
C334 C332 1.378 1_556 S
C334 C335 1.367 . S
C335 C334 1.367 . S
C335 C337 1.433 . S
C336 C332 1.350 . S
C336 C333 1.463 . S
C336 N340 1.427 . S
C337 H327 0.929 . S
C337 C335 1.433 . S
C337 N340 1.384 1_556 S
C338 H329 0.929 . S
C338 C330 1.378 . S
C338 C333 1.350 . S
C339 H326 0.929 . S
C339 C331 1.433 . S
C339 N341 1.384 . S
N340 C336 1.427 . S
N340 C337 1.384 1_554 S
N341 C333 1.427 . S
N341 C339 1.384 . S
H342 C348 0.930 . S
H343 C352 0.930 1_556 S
H344 C357 0.929 . S
H345 C355 0.929 . S
H346 C350 0.929 . S
H347 C356 0.929 . S
C348 H342 0.930 . S
C348 C349 1.367 . S
C348 C356 1.378 . S
C349 C348 1.367 . S
C349 C357 1.433 . S
C350 H346 0.929 . S
C350 C352 1.378 . S
C350 C354 1.350 . S
C351 C354 1.463 . S
C351 C356 1.350 . S
C351 N359 1.427 . S
C352 H343 0.930 1_554 S
C352 C350 1.378 . S
C352 C353 1.367 . S
C353 C352 1.367 . S
C353 C355 1.433 . S
C354 C350 1.350 . S
C354 C351 1.463 . S
C354 N358 1.427 . S
C355 H345 0.929 . S
C355 C353 1.433 . S
C355 N358 1.384 . S
C356 H347 0.929 . S
C356 C348 1.378 . S
C356 C351 1.350 . S
C357 H344 0.929 . S
C357 C349 1.433 . S
C357 N359 1.384 . S
N358 C354 1.427 . S
N358 C355 1.384 . S
N359 C351 1.427 . S
N359 C357 1.384 . S
H360 C366 0.930 . S
H361 C370 0.930 . S
H362 C375 0.929 . S
H363 C373 0.929 . S
H364 C368 0.929 . S
H365 C374 0.929 . S
C366 H360 0.930 . S
C366 C367 1.367 . S
C366 C374 1.378 . S
C367 C366 1.367 . S
C367 C375 1.433 . S
C368 H364 0.929 . S
C368 C370 1.378 . S
C368 C372 1.350 . S
C369 C372 1.463 . S
C369 C374 1.350 . S
C369 N377 1.427 . S
C370 H361 0.930 . S
C370 C368 1.378 . S
C370 C371 1.367 . S
C371 C370 1.367 . S
C371 C373 1.433 . S
C372 C368 1.350 . S
C372 C369 1.463 . S
C372 N376 1.427 . S
C373 H363 0.929 . S
C373 C371 1.433 . S
C373 N376 1.384 . S
C374 H365 0.929 . S
C374 C366 1.378 . S
C374 C369 1.350 . S
C375 H362 0.929 . S
C375 C367 1.433 . S
C375 N377 1.384 . S
N376 C372 1.427 . S
N376 C373 1.384 . S
N377 C369 1.427 . S
N377 C375 1.384 . S
H378 C384 0.930 . S
H379 C388 0.930 . S
H380 C393 0.929 . S
H381 C391 0.929 . S
H382 C386 0.929 . S
H383 C392 0.929 . S
C384 H378 0.930 . S
C384 C385 1.367 . S
C384 C392 1.378 . S
C385 C384 1.367 . S
C385 C393 1.433 . S
C386 H382 0.929 . S
C386 C388 1.378 . S
C386 C390 1.350 . S
C387 C390 1.463 . S
C387 C392 1.350 . S
C387 N395 1.427 . S
C388 H379 0.930 . S
C388 C386 1.378 . S
C388 C389 1.367 . S
C389 C388 1.367 . S
C389 C391 1.433 . S
C390 C386 1.350 . S
C390 C387 1.463 . S
C390 N394 1.427 . S
C391 H381 0.929 . S
C391 C389 1.433 . S
C391 N394 1.384 . S
C392 H383 0.929 . S
C392 C384 1.378 . S
C392 C387 1.350 . S
C393 H380 0.929 . S
C393 C385 1.433 . S
C393 N395 1.384 . S
N394 C390 1.427 . S
N394 C391 1.384 . S
N395 C387 1.427 . S
N395 C393 1.384 . S
H396 C402 0.930 . S
H397 C406 0.930 . S
H398 C411 0.929 1_556 S
H399 C409 0.929 . S
H400 C404 0.929 . S
H401 C410 0.929 . S
C402 H396 0.930 . S
C402 C403 1.367 . S
C402 C410 1.378 . S
C403 C402 1.367 . S
C403 C411 1.433 . S
C404 H400 0.929 . S
C404 C406 1.378 . S
C404 C408 1.350 . S
C405 C408 1.463 1_554 S
C405 C410 1.350 . S
C405 N413 1.427 1_554 S
C406 H397 0.930 . S
C406 C404 1.378 . S
C406 C407 1.367 . S
C407 C406 1.367 . S
C407 C409 1.433 . S
C408 C404 1.350 . S
C408 C405 1.463 1_556 S
C408 N412 1.427 1_556 S
C409 H399 0.929 . S
C409 C407 1.433 . S
C409 N412 1.384 1_556 S
C410 H401 0.929 . S
C410 C402 1.378 . S
C410 C405 1.350 . S
C411 H398 0.929 1_554 S
C411 C403 1.433 . S
C411 N413 1.384 1_554 S
N412 C408 1.427 1_554 S
N412 C409 1.384 1_554 S
N413 C405 1.427 1_556 S
N413 C411 1.384 1_556 S
H414 C420 0.930 . S
H415 C424 0.930 . S
H416 C429 0.929 . S
H417 C427 0.929 . S
H418 C422 0.929 . S
H419 C428 0.929 . S
C420 H414 0.930 . S
C420 C421 1.367 . S
C420 C428 1.378 . S
C421 C420 1.367 . S
C421 C429 1.433 . S
C422 H418 0.929 . S
C422 C424 1.378 . S
C422 C426 1.350 . S
C423 C426 1.463 . S
C423 C428 1.350 . S
C423 N431 1.427 . S
C424 H415 0.930 . S
C424 C422 1.378 . S
C424 C425 1.367 . S
C425 C424 1.367 . S
C425 C427 1.433 1_656 S
C426 C422 1.350 . S
C426 C423 1.463 . S
C426 N430 1.427 . S
C427 H417 0.929 . S
C427 C425 1.433 1_454 S
C427 N430 1.384 1_454 S
C428 H419 0.929 . S
C428 C420 1.378 . S
C428 C423 1.350 . S
C429 H416 0.929 . S
C429 C421 1.433 . S
C429 N431 1.384 . S
N430 C426 1.427 . S
N430 C427 1.384 1_656 S
N431 C423 1.427 . S
N431 C429 1.384 . S
H432 C438 0.930 . S
H433 C442 0.930 . S
H434 C447 0.929 . S
H435 C445 0.929 . S
H436 C440 0.929 . S
H437 C446 0.929 . S
C438 H432 0.930 . S
C438 C439 1.367 . S
C438 C446 1.378 . S
C439 C438 1.367 . S
C439 C447 1.433 . S
C440 H436 0.929 . S
C440 C442 1.378 . S
C440 C444 1.350 1_554 S
C441 C444 1.463 . S
C441 C446 1.350 . S
C441 N449 1.427 . S
C442 H433 0.930 . S
C442 C440 1.378 . S
C442 C443 1.367 . S
C443 C442 1.367 . S
C443 C445 1.433 1_554 S
C444 C440 1.350 1_556 S
C444 C441 1.463 . S
C444 N448 1.427 . S
C445 H435 0.929 . S
C445 C443 1.433 1_556 S
C445 N448 1.384 . S
C446 H437 0.929 . S
C446 C438 1.378 . S
C446 C441 1.350 . S
C447 H434 0.929 . S
C447 C439 1.433 . S
C447 N449 1.384 . S
N448 C444 1.427 . S
N448 C445 1.384 . S
N449 C441 1.427 . S
N449 C447 1.384 . S
H450 C456 0.921 1_455 S
H451 C460 0.930 1_554 S
H452 C465 0.929 . S
H453 C463 0.929 . S
H454 C458 0.929 . S
H455 C464 0.929 1_455 S
C456 H450 0.921 1_655 S
C456 C457 1.367 . S
C456 C464 1.378 . S
C457 C456 1.367 . S
C457 C465 1.433 . S
C458 H454 0.929 . S
C458 C460 1.378 . S
C458 C462 1.350 . S
C459 C462 1.463 . S
C459 C464 1.350 . S
C459 N467 1.427 . S
C460 H451 0.930 1_556 S
C460 C458 1.378 . S
C460 C461 1.367 1_655 S
C461 C460 1.367 1_455 S
C461 C463 1.433 . S
C462 C458 1.350 . S
C462 C459 1.463 . S
C462 N466 1.427 1_655 S
C463 H453 0.929 . S
C463 C461 1.433 . S
C463 N466 1.384 . S
C464 H455 0.929 1_655 S
C464 C456 1.378 . S
C464 C459 1.350 . S
C465 H452 0.929 . S
C465 C457 1.433 . S
C465 N467 1.384 . S
N466 C462 1.427 1_455 S
N466 C463 1.384 . S
N467 C459 1.427 . S
N467 C465 1.384 . S
H468 C474 0.930 . S
H469 C478 0.930 . S
H470 C483 0.929 . S
H471 C481 0.929 . S
H472 C476 0.929 . S
H473 C482 0.929 . S
C474 H468 0.930 . S
C474 C475 1.367 . S
C474 C482 1.378 . S
C475 C474 1.367 . S
C475 C483 1.433 1_554 S
C476 H472 0.929 . S
C476 C478 1.378 . S
C476 C480 1.350 . S
C477 C480 1.463 . S
C477 C482 1.350 1_556 S
C477 N485 1.427 . S
C478 H469 0.930 . S
C478 C476 1.378 . S
C478 C479 1.367 . S
C479 C478 1.367 . S
C479 C481 1.433 . S
C480 C476 1.350 . S
C480 C477 1.463 . S
C480 N484 1.427 . S
C481 H471 0.929 . S
C481 C479 1.433 . S
C481 N484 1.384 . S
C482 H473 0.929 . S
C482 C474 1.378 . S
C482 C477 1.350 1_554 S
C483 H470 0.929 . S
C483 C475 1.433 1_556 S
C483 N485 1.384 . S
N484 C480 1.427 . S
N484 C481 1.384 . S
N485 C477 1.427 . S
N485 C483 1.384 . S
H486 C492 0.930 . S
H487 C496 0.930 . S
H488 C501 0.929 . S
H489 C499 0.929 . S
H490 C494 0.929 1_556 S
H491 C500 0.929 . S
C492 H486 0.930 . S
C492 C493 1.367 . S
C492 C500 1.378 . S
C493 C492 1.367 . S
C493 C501 1.433 . S
C494 H490 0.929 1_554 S
C494 C496 1.378 . S
C494 C498 1.350 1_554 S
C495 C498 1.463 . S
C495 C500 1.350 . S
C495 N503 1.427 . S
C496 H487 0.930 . S
C496 C494 1.378 . S
C496 C497 1.367 . S
C497 C496 1.367 . S
C497 C499 1.433 . S
C498 C494 1.350 1_556 S
C498 C495 1.463 . S
C498 N502 1.427 1_556 S
C499 H489 0.929 . S
C499 C497 1.433 . S
C499 N502 1.384 . S
C500 H491 0.929 . S
C500 C492 1.378 . S
C500 C495 1.350 . S
C501 H488 0.929 . S
C501 C493 1.433 . S
C501 N503 1.384 . S
N502 C498 1.427 1_554 S
N502 C499 1.384 . S
N503 C495 1.427 . S
N503 C501 1.384 . S
H504 C510 0.930 . S
H505 C514 0.930 . S
H506 C519 0.929 . S
H507 C517 0.929 . S
H508 C512 0.929 . S
H509 C518 0.929 . S
C510 H504 0.930 . S
C510 C511 1.367 . S
C510 C518 1.378 . S
C511 C510 1.367 . S
C511 C519 1.433 . S
C512 H508 0.929 . S
C512 C514 1.378 . S
C512 C516 1.350 . S
C513 C516 1.463 . S
C513 C518 1.350 . S
C513 N521 1.427 . S
C514 H505 0.930 . S
C514 C512 1.378 . S
C514 C515 1.367 . S
C515 C514 1.367 . S
C515 C517 1.433 . S
C516 C512 1.350 . S
C516 C513 1.463 . S
C516 N520 1.427 . S
C517 H507 0.929 . S
C517 C515 1.433 . S
C517 N520 1.384 . S
C518 H509 0.929 . S
C518 C510 1.378 . S
C518 C513 1.350 . S
C519 H506 0.929 . S
C519 C511 1.433 . S
C519 N521 1.384 . S
N520 C516 1.427 . S
N520 C517 1.384 . S
N521 C513 1.427 . S
N521 C519 1.384 . S
H522 C528 0.930 . S
H523 C532 0.930 . S
H524 C537 0.929 . S
H525 C535 0.929 . S
H526 C530 0.929 . S
H527 C536 0.929 . S
C528 H522 0.930 . S
C528 C529 1.367 . S
C528 C536 1.378 . S
C529 C528 1.367 . S
C529 C537 1.433 . S
C530 H526 0.929 . S
C530 C532 1.378 . S
C530 C534 1.350 . S
C531 C534 1.463 . S
C531 C536 1.350 . S
C531 N539 1.427 . S
C532 H523 0.930 . S
C532 C530 1.378 . S
C532 C533 1.367 . S
C533 C532 1.367 . S
C533 C535 1.433 . S
C534 C530 1.350 . S
C534 C531 1.463 . S
C534 N538 1.427 . S
C535 H525 0.929 . S
C535 C533 1.433 . S
C535 N538 1.384 . S
C536 H527 0.929 . S
C536 C528 1.378 . S
C536 C531 1.350 . S
C537 H524 0.929 . S
C537 C529 1.433 . S
C537 N539 1.384 . S
N538 C534 1.427 . S
N538 C535 1.384 . S
N539 C531 1.427 . S
N539 C537 1.384 . S
H540 C546 0.930 . S
H541 C550 0.930 . S
H542 C555 0.929 . S
H543 C553 0.929 . S
H544 C548 0.929 . S
H545 C554 0.929 . S
C546 H540 0.930 . S
C546 C547 1.367 . S
C546 C554 1.378 . S
C547 C546 1.367 . S
C547 C555 1.433 . S
C548 H544 0.929 . S
C548 C550 1.378 . S
C548 C552 1.350 . S
C549 C552 1.463 . S
C549 C554 1.350 . S
C549 N557 1.427 . S
C550 H541 0.930 . S
C550 C548 1.378 . S
C550 C551 1.367 . S
C551 C550 1.367 . S
C551 C553 1.433 . S
C552 C548 1.350 . S
C552 C549 1.463 . S
C552 N556 1.427 . S
C553 H543 0.929 . S
C553 C551 1.433 . S
C553 N556 1.384 . S
C554 H545 0.929 . S
C554 C546 1.378 . S
C554 C549 1.350 . S
C555 H542 0.929 . S
C555 C547 1.433 . S
C555 N557 1.384 . S
N556 C552 1.427 . S
N556 C553 1.384 . S
N557 C549 1.427 . S
N557 C555 1.384 . S
H558 C564 0.930 . S
H559 C568 0.930 . S
H560 C573 0.929 . S
H561 C571 0.929 . S
H562 C566 0.929 . S
H563 C572 0.929 . S
C564 H558 0.930 . S
C564 C565 1.367 . S
C564 C572 1.378 . S
C565 C564 1.367 . S
C565 C573 1.433 . S
C566 H562 0.929 . S
C566 C568 1.378 . S
C566 C570 1.350 . S
C567 C570 1.463 . S
C567 C572 1.350 . S
C567 N575 1.427 . S
C568 H559 0.930 . S
C568 C566 1.378 . S
C568 C569 1.367 . S
C569 C568 1.367 . S
C569 C571 1.433 . S
C570 C566 1.350 . S
C570 C567 1.463 . S
C570 N574 1.427 . S
C571 H561 0.929 . S
C571 C569 1.433 . S
C571 N574 1.384 . S
C572 H563 0.929 . S
C572 C564 1.378 . S
C572 C567 1.350 . S
C573 H560 0.929 . S
C573 C565 1.433 . S
C573 N575 1.384 . S
N574 C570 1.427 . S
N574 C571 1.384 . S
N575 C567 1.427 . S
N575 C573 1.384 . S
H576 C582 0.930 . S
H577 C586 0.930 . S
H578 C591 0.929 . S
H579 C589 0.929 . S
H580 C584 0.929 . S
H581 C590 0.929 . S
C582 H576 0.930 . S
C582 C583 1.367 . S
C582 C590 1.378 . S
C583 C582 1.367 . S
C583 C591 1.433 . S
C584 H580 0.929 . S
C584 C586 1.378 . S
C584 C588 1.350 . S
C585 C588 1.463 1_545 S
C585 C590 1.350 . S
C585 N593 1.427 . S
C586 H577 0.930 . S
C586 C584 1.378 . S
C586 C587 1.367 . S
C587 C586 1.367 . S
C587 C589 1.433 . S
C588 C584 1.350 . S
C588 C585 1.463 1_565 S
C588 N592 1.427 . S
C589 H579 0.929 . S
C589 C587 1.433 . S
C589 N592 1.384 . S
C590 H581 0.929 . S
C590 C582 1.378 . S
C590 C585 1.350 . S
C591 H578 0.929 . S
C591 C583 1.433 . S
C591 N593 1.384 . S
N592 C588 1.427 . S
N592 C589 1.384 . S
N593 C585 1.427 . S
N593 C591 1.384 . S
H594 C600 0.930 . S
H595 C604 0.930 . S
H596 C609 0.929 . S
H597 C607 0.929 . S
H598 C602 0.929 . S
H599 C608 0.929 . S
C600 H594 0.930 . S
C600 C601 1.367 . S
C600 C608 1.378 . S
C601 C600 1.367 . S
C601 C609 1.433 . S
C602 H598 0.929 . S
C602 C604 1.378 . S
C602 C606 1.350 . S
C603 C606 1.463 . S
C603 C608 1.350 . S
C603 N611 1.427 . S
C604 H595 0.930 . S
C604 C602 1.378 . S
C604 C605 1.367 . S
C605 C604 1.367 . S
C605 C607 1.433 . S
C606 C602 1.350 . S
C606 C603 1.463 . S
C606 N610 1.427 . S
C607 H597 0.929 . S
C607 C605 1.433 . S
C607 N610 1.384 . S
C608 H599 0.929 . S
C608 C600 1.378 . S
C608 C603 1.350 . S
C609 H596 0.929 . S
C609 C601 1.433 . S
C609 N611 1.384 . S
N610 C606 1.427 . S
N610 C607 1.384 . S
N611 C603 1.427 . S
N611 C609 1.384 . S
H612 C618 0.930 . S
H613 C622 0.930 . S
H614 C627 0.929 . S
H615 C625 0.929 . S
H616 C620 0.929 . S
H617 C626 0.929 . S
C618 H612 0.930 . S
C618 C619 1.367 . S
C618 C626 1.378 . S
C619 C618 1.367 . S
C619 C627 1.433 . S
C620 H616 0.929 . S
C620 C622 1.378 . S
C620 C624 1.350 . S
C621 C624 1.463 . S
C621 C626 1.350 . S
C621 N629 1.427 . S
C622 H613 0.930 . S
C622 C620 1.378 . S
C622 C623 1.367 . S
C623 C622 1.367 . S
C623 C625 1.433 . S
C624 C620 1.350 . S
C624 C621 1.463 . S
C624 N628 1.427 . S
C625 H615 0.929 . S
C625 C623 1.433 . S
C625 N628 1.384 . S
C626 H617 0.929 . S
C626 C618 1.378 . S
C626 C621 1.350 . S
C627 H614 0.929 . S
C627 C619 1.433 . S
C627 N629 1.384 . S
N628 C624 1.427 . S
N628 C625 1.384 . S
N629 C621 1.427 . S
N629 C627 1.384 . S
H630 C636 0.930 . S
H631 C640 0.930 . S
H632 C645 0.929 . S
H633 C643 0.929 . S
H634 C638 0.929 . S
H635 C644 0.929 1_545 S
C636 H630 0.930 . S
C636 C637 1.367 . S
C636 C644 1.378 . S
C637 C636 1.367 . S
C637 C645 1.433 . S
C638 H634 0.929 . S
C638 C640 1.378 . S
C638 C642 1.350 . S
C639 C642 1.463 1_565 S
C639 C644 1.350 . S
C639 N647 1.427 . S
C640 H631 0.930 . S
C640 C638 1.378 . S
C640 C641 1.367 . S
C641 C640 1.367 . S
C641 C643 1.433 . S
C642 C638 1.350 . S
C642 C639 1.463 1_545 S
C642 N646 1.427 . S
C643 H633 0.929 . S
C643 C641 1.433 . S
C643 N646 1.384 . S
C644 H635 0.929 1_565 S
C644 C636 1.378 . S
C644 C639 1.350 . S
C645 H632 0.929 . S
C645 C637 1.433 . S
C645 N647 1.384 . S
N646 C642 1.427 . S
N646 C643 1.384 . S
N647 C639 1.427 . S
N647 C645 1.384 . S
H648 C654 0.930 . S
H649 C658 0.930 . S
H650 C663 0.929 . S
H651 C661 0.929 . S
H652 C656 0.929 . S
H653 C662 0.929 . S
C654 H648 0.930 . S
C654 C655 1.367 . S
C654 C662 1.378 . S
C655 C654 1.367 . S
C655 C663 1.433 . S
C656 H652 0.929 . S
C656 C658 1.378 . S
C656 C660 1.350 . S
C657 C660 1.463 . S
C657 C662 1.350 . S
C657 N665 1.427 . S
C658 H649 0.930 . S
C658 C656 1.378 . S
C658 C659 1.367 . S
C659 C658 1.367 . S
C659 C661 1.433 . S
C660 C656 1.350 . S
C660 C657 1.463 . S
C660 N664 1.427 . S
C661 H651 0.929 . S
C661 C659 1.433 . S
C661 N664 1.384 . S
C662 H653 0.929 . S
C662 C654 1.378 . S
C662 C657 1.350 . S
C663 H650 0.929 . S
C663 C655 1.433 . S
C663 N665 1.384 . S
N664 C660 1.427 . S
N664 C661 1.384 . S
N665 C657 1.427 . S
N665 C663 1.384 . S
C187 C1 1.118 . S
C191 C9 1.118 . S
C205 C29 1.127 . S
C209 C21 1.127 . S
C223 C41 1.157 . S
C227 C49 1.157 . S
C241 C69 1.106 . S
C245 C61 1.106 . S
C259 C81 1.118 . S
C263 C89 1.118 1_556 S
C277 C109 1.152 . S
C281 C101 1.157 . S
C295 C128 1.321 . S
C299 C139 1.321 . S
C313 C159 1.316 . S
C317 C148 1.316 . S
C331 C168 1.317 . S
C335 C179 1.317 . S
C349 C116 2.102 . S
C353 C8 2.064 . S
C367 C36 1.619 . S
C371 C76 1.600 . S
C385 C48 2.578 . S
C389 C88 2.546 . S
C403 C56 1.040 . S
C407 C126 1.079 . S
C421 C149 1.308 . S
C425 C16 1.268 1_556 S
C439 C166 1.623 . S
C443 C28 1.613 . S
C457 C161 1.740 . S
C461 C19 1.711 1_556 S
C475 C26 1.029 . S
C479 C121 1.060 . S
C493 C156 1.408 . S
C497 C59 1.339 . S
C511 C46 2.106 . S
C515 C79 2.058 . S
C529 C86 1.614 . S
C533 C6 1.607 . S
C547 C39 2.548 . S
C551 C119 2.577 . S
C565 C169 1.741 . S
C569 C68 1.718 . S
C583 C129 1.057 . S
C587 C96 1.006 . S
C601 C146 1.403 . S
C605 C108 1.350 . S
C619 C136 1.083 . S
C623 C106 1.027 . S
C637 C66 1.278 . S
C641 C141 1.305 . S
C655 C176 1.627 . S
C659 C99 1.602 . S
