# Generated by pormake.
# Topology wjn, (5)-cn, num edge types: 1
# Building blocks:
#     Node 0, Type 0, BuildingBlock: BEQFEK_clean_sbu_0, # of connection points: 5
#     Node 1, Type 0, BuildingBlock: BEQFEK_clean_sbu_0, # of connection points: 5
#     Node 2, Type 0, BuildingBlock: BEQFEK_clean_sbu_0, # of connection points: 5
#     Node 3, Type 0, BuildingBlock: BEQFEK_clean_sbu_0, # of connection points: 5
#     Node 4, Type 0, BuildingBlock: BEQFEK_clean_sbu_0, # of connection points: 5
#     Node 5, Type 0, BuildingBlock: BEQFEK_clean_sbu_0, # of connection points: 5
#     Node 6, Type 0, BuildingBlock: BEQFEK_clean_sbu_0, # of connection points: 5
#     Node 7, Type 0, BuildingBlock: BEQFEK_clean_sbu_0, # of connection points: 5
#     Node 8, Type 0, BuildingBlock: BEQFEK_clean_sbu_0, # of connection points: 5
#     Node 9, Type 0, BuildingBlock: BEQFEK_clean_sbu_0, # of connection points: 5
#     Node 10, Type 0, BuildingBlock: BEQFEK_clean_sbu_0, # of connection points: 5
#     Node 11, Type 0, BuildingBlock: BEQFEK_clean_sbu_0, # of connection points: 5
#     Edge 12, Type (0, 0), BuildingBlock: XUDNAN_clean_linker_2, # of connection points: 2
#     Edge 13, Type (0, 0), BuildingBlock: XUDNAN_clean_linker_2, # of connection points: 2
#     Edge 14, Type (0, 0), BuildingBlock: XUDNAN_clean_linker_2, # of connection points: 2
#     Edge 15, Type (0, 0), BuildingBlock: XUDNAN_clean_linker_2, # of connection points: 2
#     Edge 16, Type (0, 0), BuildingBlock: XUDNAN_clean_linker_2, # of connection points: 2
#     Edge 17, Type (0, 0), BuildingBlock: XUDNAN_clean_linker_2, # of connection points: 2
#     Edge 18, Type (0, 0), BuildingBlock: XUDNAN_clean_linker_2, # of connection points: 2
#     Edge 19, Type (0, 0), BuildingBlock: XUDNAN_clean_linker_2, # of connection points: 2
#     Edge 20, Type (0, 0), BuildingBlock: XUDNAN_clean_linker_2, # of connection points: 2
#     Edge 21, Type (0, 0), BuildingBlock: XUDNAN_clean_linker_2, # of connection points: 2
#     Edge 22, Type (0, 0), BuildingBlock: XUDNAN_clean_linker_2, # of connection points: 2
#     Edge 23, Type (0, 0), BuildingBlock: XUDNAN_clean_linker_2, # of connection points: 2
#     Edge 24, Type (0, 0), BuildingBlock: XUDNAN_clean_linker_2, # of connection points: 2
#     Edge 25, Type (0, 0), BuildingBlock: XUDNAN_clean_linker_2, # of connection points: 2
#     Edge 26, Type (0, 0), BuildingBlock: XUDNAN_clean_linker_2, # of connection points: 2
#     Edge 27, Type (0, 0), BuildingBlock: XUDNAN_clean_linker_2, # of connection points: 2
#     Edge 28, Type (0, 0), BuildingBlock: XUDNAN_clean_linker_2, # of connection points: 2
#     Edge 29, Type (0, 0), BuildingBlock: XUDNAN_clean_linker_2, # of connection points: 2
#     Edge 30, Type (0, 0), BuildingBlock: XUDNAN_clean_linker_2, # of connection points: 2
#     Edge 31, Type (0, 0), BuildingBlock: XUDNAN_clean_linker_2, # of connection points: 2
#     Edge 32, Type (0, 0), BuildingBlock: XUDNAN_clean_linker_2, # of connection points: 2
#     Edge 33, Type (0, 0), BuildingBlock: XUDNAN_clean_linker_2, # of connection points: 2
#     Edge 34, Type (0, 0), BuildingBlock: XUDNAN_clean_linker_2, # of connection points: 2
#     Edge 35, Type (0, 0), BuildingBlock: XUDNAN_clean_linker_2, # of connection points: 2
#     Edge 36, Type (0, 0), BuildingBlock: XUDNAN_clean_linker_2, # of connection points: 2
#     Edge 37, Type (0, 0), BuildingBlock: XUDNAN_clean_linker_2, # of connection points: 2
#     Edge 38, Type (0, 0), BuildingBlock: XUDNAN_clean_linker_2, # of connection points: 2
#     Edge 39, Type (0, 0), BuildingBlock: XUDNAN_clean_linker_2, # of connection points: 2
#     Edge 40, Type (0, 0), BuildingBlock: XUDNAN_clean_linker_2, # of connection points: 2
#     Edge 41, Type (0, 0), BuildingBlock: XUDNAN_clean_linker_2, # of connection points: 2
# Relax obj value: 0.378
# Max RMSD: 0.197
# Mean RMSD: 0.197
data_MOF--net-wjn--node1-BEQFEK_clean_sbu_0--edge1-XUDNAN_clean_linker_2
_symmetry_space_group_name_H-M    P1
_symmetry_Int_Tables_number       1
_symmetry_cell_setting            triclinic
loop_
_symmetry_equiv_pos_as_xyz
'x, y, z'
_cell_length_a     35.097357
_cell_length_b     35.064726
_cell_length_c     75.632359
_cell_angle_alpha  89.95207
_cell_angle_beta   89.946804
_cell_angle_gamma 120.04318
loop_
_atom_site_label
_atom_site_type_symbol
_atom_site_fract_x
_atom_site_fract_y
_atom_site_fract_z
_atom_type_partial_charge
Co0 Co 0.13822 0.41774 0.11062 0.0
Co1 Co 0.21851 0.41235 0.12489 0.0
C2 C 0.20209 0.48491 0.13614 0.0
O3 O 0.16721 0.46799 0.12695 0.0
O4 O 0.22681 0.46798 0.13634 0.0
C5 C 0.11202 0.46442 0.08984 0.0
O6 O 0.15474 0.4916 0.09037 0.0
C7 C 0.31215 0.44606 0.13025 0.0
C8 C 0.31715 0.38658 0.13485 0.0
C9 C 0.34206 0.43212 0.13373 0.0
N10 N 0.27147 0.41068 0.12955 0.0
N11 N 0.27464 0.37511 0.1323 0.0
C12 C 0.32228 0.49199 0.12619 0.0
H13 H 0.29766 0.49134 0.11681 0.0
H14 H 0.35576 0.51173 0.12045 0.0
H15 H 0.32073 0.50799 0.1386 0.0
C16 C 0.17271 0.40928 0.07645 0.0
N17 N 0.17621 0.41434 0.09412 0.0
N18 N 0.21077 0.41249 0.09965 0.0
C19 C 0.23095 0.40702 0.08538 0.0
C20 C 0.20761 0.40549 0.07027 0.0
C21 C 0.13368 0.40207 0.06576 0.0
H22 H 0.10314 0.38469 0.07371 0.0
H23 H 0.13856 0.43436 0.06131 0.0
H24 H 0.12973 0.38219 0.05377 0.0
O25 O 0.10869 0.36316 0.1241 0.0
O26 O 0.16486 0.3598 0.13629 0.0
H27 H 0.26297 0.37284 0.09486 0.0
H28 H 0.28001 0.39595 0.07289 0.0
C29 C 0.27035 0.40133 0.08623 0.0
H30 H 0.29821 0.43112 0.0922 0.0
H31 H 0.24789 0.34305 0.13232 0.0
O32 O 0.09578 0.428 0.09807 0.0
C33 C 0.12344 0.34436 0.13411 0.0
Co34 Co 0.72678 0.13719 0.44458 0.0
Co35 Co 0.80813 0.22239 0.45884 0.0
C36 C 0.71786 0.20288 0.46783 0.0
O37 O 0.70235 0.16706 0.45919 0.0
O38 O 0.75916 0.22957 0.46853 0.0
C39 C 0.65257 0.102 0.42344 0.0
O40 O 0.66055 0.14277 0.42438 0.0
C41 C 0.8755 0.31763 0.46436 0.0
C42 C 0.93424 0.31205 0.46991 0.0
C43 C 0.92027 0.34251 0.46824 0.0
N44 N 0.86393 0.27463 0.46369 0.0
N45 N 0.89939 0.2718 0.46699 0.0
C46 C 0.84401 0.33437 0.46219 0.0
H47 H 0.8096 0.30766 0.46378 0.0
H48 H 0.8476 0.34841 0.44875 0.0
H49 H 0.85134 0.36083 0.47193 0.0
C50 C 0.7716 0.17086 0.41064 0.0
N51 N 0.76976 0.17412 0.42831 0.0
N52 N 0.80207 0.21243 0.4336 0.0
C53 C 0.82377 0.23597 0.41906 0.0
C54 C 0.80517 0.21009 0.40408 0.0
C55 C 0.74053 0.13155 0.39992 0.0
H56 H 0.7121 0.13504 0.39582 0.0
H57 H 0.75668 0.12897 0.38773 0.0
H58 H 0.72896 0.10087 0.40766 0.0
O59 O 0.75012 0.11062 0.46021 0.0
O60 O 0.80577 0.17009 0.47242 0.0
H61 H 0.87413 0.29431 0.40592 0.0
H62 H 0.84749 0.3038 0.42451 0.0
C63 C 0.86027 0.28279 0.41935 0.0
H64 H 0.88665 0.28602 0.42835 0.0
H65 H 0.89976 0.24223 0.46728 0.0
O66 O 0.67715 0.09112 0.43168 0.0
C67 C 0.7814 0.12807 0.47127 0.0
Co68 Co 0.58486 0.72007 0.77765 0.0
Co69 Co 0.59196 0.80728 0.79103 0.0
C70 C 0.51784 0.71854 0.80252 0.0
O71 O 0.53399 0.69954 0.79351 0.0
O72 O 0.53588 0.76038 0.8026 0.0
C73 C 0.53957 0.64319 0.75858 0.0
O74 O 0.5082 0.65291 0.76057 0.0
C75 C 0.55982 0.86915 0.79205 0.0
C76 C 0.61849 0.93273 0.79874 0.0
C77 C 0.5744 0.91371 0.79424 0.0
N78 N 0.59378 0.86233 0.79477 0.0
N79 N 0.62873 0.90039 0.79895 0.0
C80 C 0.51399 0.83272 0.78821 0.0
H81 H 0.50217 0.80951 0.79952 0.0
H82 H 0.5143 0.81417 0.77638 0.0
H83 H 0.49043 0.84464 0.78635 0.0
C84 C 0.59339 0.76102 0.74302 0.0
N85 N 0.58905 0.76089 0.7607 0.0
N86 N 0.59246 0.79833 0.76582 0.0
C87 C 0.59876 0.82343 0.75124 0.0
C88 C 0.59886 0.80006 0.73641 0.0
C89 C 0.59718 0.72668 0.73261 0.0
H90 H 0.61699 0.7154 0.73997 0.0
H91 H 0.56381 0.69837 0.73016 0.0
H92 H 0.61306 0.73948 0.71957 0.0
O93 O 0.63828 0.74523 0.79172 0.0
O94 O 0.64416 0.80674 0.80282 0.0
H95 H 0.63128 0.88894 0.76169 0.0
H96 H 0.61798 0.88554 0.73838 0.0
C97 C 0.6065 0.8694 0.75147 0.0
H98 H 0.57534 0.86853 0.75486 0.0
H99 H 0.6598 0.90451 0.80149 0.0
O100 O 0.57701 0.66781 0.76546 0.0
C101 C 0.65814 0.77937 0.80137 0.0
Co102 Co 0.86315 0.58353 0.10918 0.0
Co103 Co 0.78298 0.58927 0.12333 0.0
C104 C 0.79746 0.51617 0.13471 0.0
O105 O 0.83251 0.53284 0.12552 0.0
O106 O 0.77301 0.53344 0.13493 0.0
C107 C 0.8936 0.53707 0.08977 0.0
O108 O 0.85275 0.50531 0.09206 0.0
C109 C 0.69084 0.56585 0.13106 0.0
C110 C 0.6956 0.63101 0.12951 0.0
C111 C 0.66597 0.58666 0.13219 0.0
N112 N 0.73298 0.59655 0.12761 0.0
N113 N 0.7355 0.63539 0.12676 0.0
C114 C 0.67598 0.51831 0.13438 0.0
H115 H 0.69672 0.51589 0.14485 0.0
H116 H 0.68052 0.50346 0.12218 0.0
H117 H 0.64125 0.49941 0.13879 0.0
C118 C 0.82781 0.5899 0.07491 0.0
N119 N 0.82602 0.58814 0.09267 0.0
N120 N 0.78986 0.58689 0.09813 0.0
C121 C 0.7661 0.58516 0.08372 0.0
C122 C 0.78982 0.58745 0.06859 0.0
C123 C 0.86493 0.59324 0.06394 0.0
H124 H 0.89672 0.61329 0.07083 0.0
H125 H 0.85947 0.55971 0.06145 0.0
H126 H 0.86667 0.60863 0.05092 0.0
O127 O 0.89339 0.63697 0.12279 0.0
O128 O 0.83779 0.64159 0.13454 0.0
H129 H 0.72384 0.6105 0.09025 0.0
H130 H 0.70671 0.57527 0.07099 0.0
C131 C 0.72135 0.58035 0.08439 0.0
H132 H 0.69962 0.55212 0.09303 0.0
H133 H 0.76446 0.66488 0.12413 0.0
O134 O 0.90629 0.57465 0.09651 0.0
C135 C 0.87921 0.65628 0.13275 0.0
Co136 Co 0.28919 0.86149 0.44011 0.0
Co137 Co 0.19964 0.78779 0.45501 0.0
C138 C 0.28556 0.79666 0.4668 0.0
O139 O 0.30675 0.82885 0.45636 0.0
O140 O 0.2439 0.77785 0.46809 0.0
C141 C 0.36263 0.8827 0.41992 0.0
O142 O 0.34582 0.83984 0.4212 0.0
C143 C 0.13656 0.6956 0.46224 0.0
C144 C 0.07265 0.69307 0.46435 0.0
C145 C 0.09207 0.66705 0.46516 0.0
N146 N 0.14339 0.73663 0.46 0.0
N147 N 0.10498 0.73492 0.46127 0.0
C148 C 0.17164 0.68354 0.46004 0.0
H149 H 0.19647 0.70567 0.45024 0.0
H150 H 0.15739 0.64886 0.45563 0.0
H151 H 0.18838 0.68744 0.4729 0.0
C152 C 0.246 0.82551 0.40614 0.0
N153 N 0.24628 0.82477 0.42391 0.0
N154 N 0.2094 0.79109 0.42972 0.0
C155 C 0.18547 0.76785 0.41552 0.0
C156 C 0.20813 0.78926 0.4002 0.0
C157 C 0.28047 0.86111 0.39475 0.0
H158 H 0.29566 0.89322 0.40168 0.0
H159 H 0.30602 0.85255 0.39137 0.0
H160 H 0.26614 0.86433 0.38216 0.0
O161 O 0.26782 0.89563 0.45269 0.0
O162 O 0.20322 0.84507 0.46395 0.0
H163 H 0.11857 0.73259 0.42423 0.0
H164 H 0.12816 0.71435 0.40315 0.0
C165 C 0.14185 0.72643 0.41653 0.0
H166 H 0.14565 0.70075 0.42353 0.0
H167 H 0.10074 0.7622 0.45987 0.0
O168 O 0.34307 0.90063 0.42733 0.0
C169 C 0.2331 0.88543 0.4615 0.0
Co170 Co 0.41773 0.28279 0.77699 0.0
Co171 Co 0.41931 0.20006 0.79012 0.0
C172 C 0.49017 0.28722 0.8011 0.0
O173 O 0.47069 0.30391 0.79259 0.0
O174 O 0.47498 0.24577 0.80123 0.0
C175 C 0.46122 0.35176 0.7541 0.0
O176 O 0.48654 0.33407 0.75366 0.0
C177 C 0.44256 0.13003 0.79508 0.0
C178 C 0.37767 0.07082 0.79063 0.0
C179 C 0.42172 0.08452 0.79328 0.0
N180 N 0.41211 0.14253 0.79339 0.0
N181 N 0.37332 0.1068 0.79112 0.0
C182 C 0.49112 0.16139 0.79609 0.0
H183 H 0.4997 0.19332 0.78986 0.0
H184 H 0.50979 0.14753 0.78952 0.0
H185 H 0.50105 0.16742 0.81019 0.0
C186 C 0.40412 0.23916 0.74283 0.0
N187 N 0.41159 0.24101 0.76031 0.0
N188 N 0.42 0.2101 0.76499 0.0
C189 C 0.42286 0.19015 0.75015 0.0
C190 C 0.4125 0.20771 0.73536 0.0
C191 C 0.38294 0.26252 0.7343 0.0
H192 H 0.3649 0.27051 0.74434 0.0
H193 H 0.40842 0.29381 0.72827 0.0
H194 H 0.35951 0.24172 0.72387 0.0
O195 O 0.36521 0.25887 0.7911 0.0
O196 O 0.36684 0.2009 0.80234 0.0
H197 H 0.41129 0.12418 0.75118 0.0
H198 H 0.45884 0.16179 0.73813 0.0
C199 C 0.4395 0.15832 0.75023 0.0
H200 H 0.4612 0.16461 0.76173 0.0
H201 H 0.34421 0.10724 0.78887 0.0
O202 O 0.42724 0.33464 0.76391 0.0
C203 C 0.34919 0.2252 0.80105 0.0
Co204 Co 0.56183 0.84933 0.56965 0.0
Co205 Co 0.58521 0.7821 0.55363 0.0
C206 C 0.5049 0.78516 0.54189 0.0
O207 O 0.51504 0.81683 0.55246 0.0
O208 O 0.52862 0.76713 0.54085 0.0
C209 C 0.50241 0.86148 0.58918 0.0
O210 O 0.47957 0.81856 0.587 0.0
C211 C 0.56914 0.69231 0.54998 0.0
C212 C 0.63364 0.70218 0.54153 0.0
C213 C 0.59117 0.66966 0.54594 0.0
N214 N 0.59723 0.7358 0.54806 0.0
N215 N 0.63564 0.74147 0.54283 0.0
C216 C 0.52351 0.67377 0.55719 0.0
H217 H 0.51996 0.69969 0.56414 0.0
H218 H 0.51559 0.64609 0.56639 0.0
H219 H 0.49968 0.66121 0.54609 0.0
C220 C 0.57364 0.81505 0.60303 0.0
N221 N 0.57005 0.81305 0.58531 0.0
N222 N 0.5812 0.78497 0.57911 0.0
C223 C 0.59252 0.76819 0.593 0.0
C224 C 0.58714 0.78622 0.60855 0.0
C225 C 0.57108 0.84886 0.61433 0.0
H226 H 0.58636 0.88103 0.60741 0.0
H227 H 0.53609 0.83788 0.61717 0.0
H228 H 0.58812 0.8535 0.62717 0.0
O229 O 0.61767 0.88837 0.55752 0.0
O230 O 0.63399 0.8413 0.54441 0.0
H231 H 0.63698 0.75095 0.58084 0.0
H232 H 0.62648 0.7366 0.60408 0.0
C233 C 0.61165 0.73865 0.59141 0.0
H234 H 0.58525 0.70512 0.58774 0.0
H235 H 0.66352 0.77218 0.54061 0.0
O236 O 0.54096 0.88308 0.58272 0.0
C237 C 0.64254 0.88069 0.54768 0.0
Co238 Co 0.72553 0.58717 0.89828 0.0
Co239 Co 0.81141 0.59163 0.88557 0.0
C240 C 0.72583 0.52064 0.87251 0.0
O241 O 0.70762 0.53809 0.88128 0.0
O242 O 0.76732 0.53643 0.87313 0.0
C243 C 0.65241 0.53653 0.91815 0.0
O244 O 0.66986 0.51103 0.91727 0.0
C245 C 0.88041 0.56788 0.88204 0.0
C246 C 0.94074 0.63316 0.883 0.0
C247 C 0.92597 0.58839 0.88254 0.0
N248 N 0.86881 0.59913 0.88223 0.0
N249 N 0.9051 0.63809 0.88247 0.0
C250 C 0.84842 0.51953 0.8835 0.0
H251 H 0.83962 0.50536 0.87001 0.0
H252 H 0.81791 0.51371 0.89027 0.0
H253 H 0.86306 0.50248 0.89078 0.0
C254 C 0.76458 0.59407 0.93318 0.0
N255 N 0.76559 0.59117 0.91547 0.0
N256 N 0.80013 0.5884 0.91071 0.0
C257 C 0.82061 0.58645 0.92561 0.0
C258 C 0.79864 0.59024 0.94026 0.0
C259 C 0.73194 0.60098 0.94342 0.0
H260 H 0.7187 0.61782 0.9352 0.0
H261 H 0.70478 0.56869 0.94803 0.0
H262 H 0.74751 0.62133 0.95533 0.0
O263 O 0.75011 0.64227 0.88567 0.0
O264 O 0.80997 0.64459 0.87438 0.0
H265 H 0.88734 0.60831 0.91843 0.0
H266 H 0.8714 0.58139 0.93974 0.0
C267 C 0.86028 0.58115 0.92598 0.0
H268 H 0.85236 0.54959 0.91961 0.0
H269 H 0.90545 0.66799 0.88323 0.0
O270 O 0.67119 0.57349 0.91025 0.0
C271 C 0.78452 0.66079 0.87615 0.0
Co272 Co 0.13524 0.72581 0.23095 0.0
Co273 Co 0.21905 0.80934 0.21747 0.0
C274 C 0.20056 0.72048 0.20625 0.0
O275 O 0.16493 0.70355 0.21505 0.0
O276 O 0.22644 0.76195 0.20607 0.0
C277 C 0.10847 0.65395 0.25207 0.0
O278 O 0.15129 0.67009 0.25166 0.0
C279 C 0.31294 0.86947 0.2113 0.0
C280 C 0.31829 0.93491 0.21054 0.0
C281 C 0.34289 0.91404 0.20933 0.0
N282 N 0.27246 0.86406 0.21336 0.0
N283 N 0.27587 0.90336 0.21288 0.0
C284 C 0.32309 0.83289 0.21277 0.0
H285 H 0.29993 0.80734 0.22211 0.0
H286 H 0.35732 0.84535 0.21739 0.0
H287 H 0.31921 0.81754 0.19959 0.0
C288 C 0.16893 0.76776 0.2654 0.0
N289 N 0.17232 0.76709 0.2477 0.0
N290 N 0.21048 0.80002 0.24261 0.0
C291 C 0.234 0.82069 0.25725 0.0
C292 C 0.20806 0.80093 0.27213 0.0
C293 C 0.12903 0.7371 0.27598 0.0
H294 H 0.09889 0.72398 0.26782 0.0
H295 H 0.13298 0.7097 0.28119 0.0
H296 H 0.12519 0.75442 0.28751 0.0
O297 O 0.10757 0.75146 0.21713 0.0
O298 O 0.16636 0.81032 0.20578 0.0
H299 H 0.28217 0.88609 0.24964 0.0
H300 H 0.29293 0.86882 0.2707 0.0
C301 C 0.28044 0.858 0.25708 0.0
H302 H 0.30164 0.8476 0.25019 0.0
H303 H 0.24935 0.9087 0.2144 0.0
O304 O 0.09198 0.67335 0.24348 0.0
C305 C 0.1245 0.78556 0.20738 0.0
Co306 Co 0.39928 0.12316 0.55919 0.0
Co307 Co 0.41149 0.2156 0.5514 0.0
C308 C 0.47832 0.19319 0.53908 0.0
O309 O 0.45561 0.15471 0.54562 0.0
O310 O 0.46581 0.22142 0.54052 0.0
C311 C 0.42959 0.07821 0.57885 0.0
O312 O 0.46283 0.11859 0.58042 0.0
C313 C 0.45013 0.31212 0.54709 0.0
C314 C 0.39821 0.32302 0.55819 0.0
C315 C 0.44069 0.34504 0.5515 0.0
N316 N 0.41528 0.27264 0.55131 0.0
N317 N 0.3842 0.2795 0.55777 0.0
C318 C 0.49103 0.31788 0.53842 0.0
H319 H 0.51063 0.31154 0.54827 0.0
H320 H 0.51132 0.35143 0.53283 0.0
H321 H 0.48201 0.29379 0.52751 0.0
C322 C 0.38819 0.1442 0.59486 0.0
N323 N 0.39455 0.15526 0.57774 0.0
N324 N 0.40847 0.1973 0.5758 0.0
C325 C 0.41629 0.21561 0.59216 0.0
C326 C 0.4042 0.18227 0.60493 0.0
C327 C 0.35961 0.09753 0.60107 0.0
H328 H 0.33678 0.07726 0.59038 0.0
H329 H 0.37975 0.08258 0.60473 0.0
H330 H 0.34024 0.09648 0.61286 0.0
O331 O 0.35111 0.10569 0.54378 0.0
O332 O 0.35768 0.1701 0.53627 0.0
H333 H 0.41266 0.27288 0.59872 0.0
H334 H 0.4615 0.27374 0.60657 0.0
C335 C 0.43811 0.26412 0.59536 0.0
H336 H 0.45599 0.28267 0.58336 0.0
H337 H 0.35392 0.25454 0.56246 0.0
O338 O 0.39689 0.07116 0.5694 0.0
C339 C 0.33795 0.1278 0.53512 0.0
Co340 Co 0.2856 0.42105 0.90148 0.0
Co341 Co 0.19806 0.4116 0.88755 0.0
C342 C 0.28747 0.48693 0.87632 0.0
O343 O 0.30692 0.47235 0.88595 0.0
O344 O 0.24557 0.46735 0.87572 0.0
C345 C 0.36315 0.46414 0.92052 0.0
O346 O 0.35558 0.49702 0.91863 0.0
C347 C 0.13661 0.44427 0.88875 0.0
C348 C 0.0759 0.39111 0.87674 0.0
C349 C 0.09336 0.43218 0.88467 0.0
N350 N 0.14398 0.41168 0.88378 0.0
N351 N 0.10759 0.38001 0.87654 0.0
C352 C 0.17129 0.48687 0.89661 0.0
H353 H 0.20463 0.49297 0.89351 0.0
H354 H 0.168 0.48538 0.91121 0.0
H355 H 0.16775 0.51478 0.8917 0.0
C356 C 0.24369 0.4122 0.93596 0.0
N357 N 0.24438 0.41668 0.91826 0.0
N358 N 0.20609 0.41042 0.91281 0.0
C359 C 0.17945 0.401 0.92711 0.0
C360 C 0.20297 0.40276 0.94218 0.0
C361 C 0.27948 0.41208 0.94674 0.0
H362 H 0.29087 0.39119 0.94029 0.0
H363 H 0.30737 0.44624 0.94787 0.0
H364 H 0.26837 0.39942 0.96032 0.0
O365 O 0.26084 0.36795 0.887 0.0
O366 O 0.1984 0.35935 0.8758 0.0
H367 H 0.11651 0.36625 0.91432 0.0
H368 H 0.11409 0.36662 0.93826 0.0
C369 C 0.13145 0.38623 0.92636 0.0
H370 H 0.12717 0.41545 0.92593 0.0
H371 H 0.10427 0.35071 0.87159 0.0
O372 O 0.33692 0.42706 0.91371 0.0
C373 C 0.22696 0.34691 0.87731 0.0
Co374 Co 0.86475 0.28536 0.23452 0.0
Co375 Co 0.78396 0.19916 0.22094 0.0
C376 C 0.79886 0.28693 0.20928 0.0
O377 O 0.834 0.30549 0.21835 0.0
O378 O 0.77449 0.24518 0.20918 0.0
C379 C 0.89423 0.36181 0.25378 0.0
O380 O 0.85296 0.35136 0.2517 0.0
C381 C 0.69047 0.12924 0.21574 0.0
C382 C 0.69832 0.072 0.20961 0.0
C383 C 0.66686 0.0846 0.21149 0.0
N384 N 0.73369 0.14207 0.21638 0.0
N385 N 0.73796 0.10754 0.21278 0.0
C386 C 0.6725 0.15965 0.21822 0.0
H387 H 0.69884 0.19449 0.21766 0.0
H388 H 0.65662 0.15385 0.23138 0.0
H389 H 0.6473 0.15327 0.208 0.0
C390 C 0.83093 0.24404 0.26904 0.0
N391 N 0.82806 0.24379 0.2513 0.0
N392 N 0.79185 0.20838 0.24616 0.0
C393 C 0.7694 0.18604 0.26081 0.0
C394 C 0.79376 0.20809 0.27571 0.0
C395 C 0.86865 0.27805 0.27968 0.0
H396 H 0.90004 0.28987 0.27244 0.0
H397 H 0.86326 0.30605 0.28239 0.0
H398 H 0.87119 0.2645 0.2926 0.0
O399 O 0.89464 0.26199 0.22065 0.0
O400 O 0.83823 0.20162 0.20935 0.0
H401 H 0.72667 0.12042 0.25162 0.0
H402 H 0.71598 0.1304 0.27411 0.0
C403 C 0.7256 0.14477 0.26064 0.0
H404 H 0.7005 0.15237 0.25561 0.0
H405 H 0.76806 0.10834 0.2123 0.0
O406 O 0.90785 0.33778 0.24696 0.0
C407 C 0.87976 0.2283 0.21076 0.0
H408 H 0.59659 0.51014 0.11858 0.0
H409 H 0.62726 0.62199 0.15224 0.0
H410 H 0.54786 0.59371 0.15683 0.0
H411 H 0.50286 0.5034 0.09787 0.0
H412 H 0.47172 0.44406 0.09728 0.0
H413 H 0.53096 0.47223 0.09701 0.0
H414 H 0.5306 0.4282 0.12459 0.0
H415 H 0.4713 0.39967 0.12489 0.0
H416 H 0.50186 0.42886 0.14425 0.0
H417 H 0.4656 0.55477 0.15712 0.0
H418 H 0.38537 0.50716 0.1533 0.0
H419 H 0.4072 0.41885 0.12026 0.0
C420 C 0.58663 0.52796 0.12735 0.0
C421 C 0.61816 0.56769 0.13547 0.0
C422 C 0.60367 0.59125 0.14607 0.0
C423 C 0.55867 0.57541 0.14878 0.0
C424 C 0.52846 0.53596 0.14075 0.0
C425 C 0.54174 0.51241 0.13029 0.0
C426 C 0.50236 0.47142 0.12288 0.0
C427 C 0.50197 0.47289 0.10256 0.0
C428 C 0.50148 0.42956 0.12956 0.0
C429 C 0.46491 0.47577 0.13072 0.0
C430 C 0.4808 0.51334 0.14094 0.0
C431 C 0.45276 0.52525 0.14916 0.0
C432 C 0.40727 0.4982 0.14681 0.0
C433 C 0.3902 0.45969 0.13633 0.0
C434 C 0.41944 0.44807 0.12839 0.0
H435 H 0.01567 0.601 0.45058 0.0
H436 H 0.11849 0.62521 0.4882 0.0
H437 H 0.08412 0.54528 0.49372 0.0
H438 H 0.9256 0.50842 0.47391 0.0
H439 H 0.90014 0.4783 0.45397 0.0
H440 H 0.93147 0.53764 0.45354 0.0
H441 H 0.98055 0.53501 0.42852 0.0
H442 H 0.9493 0.47572 0.42884 0.0
H443 H 0.00815 0.50386 0.43177 0.0
H444 H 0.04033 0.46305 0.49451 0.0
H445 H 0.99013 0.3834 0.49043 0.0
H446 H 0.91668 0.41153 0.45148 0.0
C447 C 0.03056 0.58934 0.4601 0.0
C448 C 0.06993 0.61914 0.46887 0.0
C449 C 0.08875 0.60283 0.48114 0.0
C450 C 0.06931 0.55753 0.48444 0.0
C451 C 0.03097 0.52888 0.47536 0.0
C452 C 0.01175 0.54401 0.46341 0.0
C453 C 0.97153 0.50587 0.45493 0.0
C454 C 0.92971 0.50768 0.45936 0.0
C455 C 0.97778 0.50508 0.43482 0.0
C456 C 0.97126 0.46704 0.46395 0.0
C457 C 0.00573 0.48117 0.47575 0.0
C458 C 0.01304 0.45159 0.48539 0.0
C459 C 0.98437 0.40636 0.48293 0.0
C460 C 0.94868 0.39086 0.47093 0.0
C461 C 0.94237 0.42187 0.46126 0.0
H462 H 0.48516 0.08035 0.81337 0.0
H463 H 0.40329 0.02583 0.76687 0.0
H464 H 0.43612 0.979 0.7614 0.0
H465 H 0.58247 0.0809 0.79618 0.0
H466 H 0.59542 0.06451 0.81687 0.0
H467 H 0.56718 0.09556 0.81675 0.0
H468 H 0.5042 0.0349 0.83555 0.0
H469 H 0.53226 0.00371 0.83574 0.0
H470 H 0.47644 0.97874 0.82782 0.0
H471 H 0.47821 0.93932 0.76053 0.0
H472 H 0.52235 0.90354 0.76584 0.0
H473 H 0.57412 0.97936 0.81397 0.0
C474 C 0.47457 0.05879 0.80197 0.0
C475 C 0.442 0.05684 0.79043 0.0
C476 C 0.42818 0.02768 0.77585 0.0
C477 C 0.4468 0.00118 0.77259 0.0
C478 C 0.47887 0.00383 0.78416 0.0
C479 C 0.49242 0.0315 0.79866 0.0
C480 C 0.52592 0.02616 0.80945 0.0
C481 C 0.57038 0.06936 0.80983 0.0
C482 C 0.50866 0.0099 0.82825 0.0
C483 C 0.5288 0.99104 0.79878 0.0
C484 C 0.50174 0.97913 0.78413 0.0
C485 C 0.49897 0.9478 0.77211 0.0
C486 C 0.52377 0.92732 0.77534 0.0
C487 C 0.55017 0.93739 0.79068 0.0
C488 C 0.55356 0.97051 0.8023 0.0
H489 H 0.50807 0.59827 0.53929 0.0
H490 H 0.63987 0.63252 0.55574 0.0
H491 H 0.61586 0.5536 0.55884 0.0
H492 H 0.44992 0.50613 0.56923 0.0
H493 H 0.40724 0.47356 0.55354 0.0
H494 H 0.43483 0.53281 0.55251 0.0
H495 H 0.45571 0.53048 0.51983 0.0
H496 H 0.42834 0.47124 0.52077 0.0
H497 H 0.48532 0.50244 0.51421 0.0
H498 H 0.57737 0.47128 0.56098 0.0
H499 H 0.52755 0.39081 0.56103 0.0
H500 H 0.42052 0.40906 0.54292 0.0
C501 C 0.53173 0.58932 0.54386 0.0
C502 C 0.57576 0.62181 0.5476 0.0
C503 C 0.60597 0.60833 0.55285 0.0
C504 C 0.59261 0.56356 0.55471 0.0
C505 C 0.54891 0.53246 0.55115 0.0
C506 C 0.51891 0.54466 0.54578 0.0
C507 C 0.47398 0.50448 0.54263 0.0
C508 C 0.43945 0.50424 0.55523 0.0
C509 C 0.46003 0.50203 0.5232 0.0
C510 C 0.48344 0.46782 0.54709 0.0
C511 C 0.5269 0.48478 0.55198 0.0
C512 C 0.54345 0.45759 0.55692 0.0
C513 C 0.51499 0.41185 0.55671 0.0
C514 C 0.47054 0.39356 0.55139 0.0
C515 C 0.45452 0.42209 0.54678 0.0
H516 H 0.92907 0.52323 0.86347 0.0
H517 H 0.98452 0.60821 0.90909 0.0
H518 H 0.03037 0.57459 0.91542 0.0
H519 H 0.92743 0.42635 0.8817 0.0
H520 H 0.94378 0.41213 0.86128 0.0
H521 H 0.91327 0.44091 0.86084 0.0
H522 H 0.97444 0.50273 0.84179 0.0
H523 H 0.00507 0.47411 0.84214 0.0
H524 H 0.03047 0.53038 0.84962 0.0
H525 H 0.06809 0.53056 0.91739 0.0
H526 H 0.10225 0.48494 0.91312 0.0
H527 H 0.02863 0.43298 0.8645 0.0
C528 C 0.95072 0.53438 0.87484 0.0
C529 C 0.95324 0.56799 0.88591 0.0
C530 C 0.98232 0.58249 0.90049 0.0
C531 C 0.00823 0.56345 0.90423 0.0
C532 C 0.00511 0.53038 0.8931 0.0
C533 C 0.97758 0.51629 0.87856 0.0
C534 C 0.9826 0.482 0.86819 0.0
C535 C 0.93918 0.43772 0.86799 0.0
C536 C 0.99914 0.49829 0.84932 0.0
C537 C 0.01733 0.47921 0.87915 0.0
C538 C 0.02925 0.50694 0.89358 0.0
C539 C 0.05984 0.5095 0.9059 0.0
C540 C 0.07969 0.4839 0.90319 0.0
C541 C 0.06993 0.45696 0.888 0.0
C542 C 0.03743 0.45386 0.87607 0.0
H543 H 0.40769 0.9879 0.22561 0.0
H544 H 0.38638 0.88852 0.18665 0.0
H545 H 0.46675 0.9223 0.18261 0.0
H546 H 0.50258 0.07924 0.20444 0.0
H547 H 0.53063 0.10261 0.22497 0.0
H548 H 0.47135 0.07162 0.22438 0.0
H549 H 0.47097 0.01983 0.24893 0.0
H550 H 0.53019 0.05074 0.24963 0.0
H551 H 0.50209 0.99216 0.24579 0.0
H552 H 0.54918 0.96579 0.18325 0.0
H553 H 0.62836 0.01598 0.18851 0.0
H554 H 0.5963 0.08544 0.22796 0.0
C555 C 0.42008 0.97357 0.21614 0.0
C556 C 0.391 0.93537 0.20656 0.0
C557 C 0.40821 0.9173 0.19434 0.0
C558 C 0.45376 0.93642 0.19189 0.0
C559 C 0.48165 0.97363 0.20175 0.0
C560 C 0.46556 0.99203 0.21366 0.0
C561 C 0.50279 0.03123 0.22299 0.0
C562 C 0.50176 0.07369 0.21895 0.0
C563 C 0.50142 0.02298 0.24302 0.0
C564 C 0.54227 0.03199 0.21444 0.0
C565 C 0.52929 0.99859 0.20218 0.0
C566 C 0.55974 0.99221 0.19276 0.0
C567 C 0.60466 0.02083 0.19589 0.0
C568 C 0.61891 0.05552 0.20834 0.0
C569 C 0.58702 0.06069 0.21783 0.0
H570 H 0.89085 0.459 0.08597 0.0
H571 H 0.96822 0.59771 0.07301 0.0
H572 H 0.02868 0.58692 0.0627 0.0
H573 H 0.96682 0.45261 0.10675 0.0
H574 H 0.95525 0.39856 0.09997 0.0
H575 H 0.91239 0.41202 0.09952 0.0
H576 H 0.89884 0.39173 0.0663 0.0
H577 H 0.94173 0.37765 0.06667 0.0
H578 H 0.94396 0.41718 0.05085 0.0
H579 H 0.08608 0.56755 0.06236 0.0
H580 H 0.13581 0.54176 0.07263 0.0
H581 H 0.02311 0.41543 0.08652 0.0
C582 C 0.91973 0.48647 0.08011 0.0
C583 C 0.92519 0.52902 0.08022 0.0
C584 C 0.9637 0.56479 0.07303 0.0
C585 C 0.99797 0.55885 0.06695 0.0
C586 C 0.99301 0.51694 0.06813 0.0
C587 C 0.95454 0.48109 0.07434 0.0
C588 C 0.96074 0.44214 0.07799 0.0
C589 C 0.94812 0.42546 0.09719 0.0
C590 C 0.93478 0.40499 0.06465 0.0
C591 C 0.0097 0.46324 0.07481 0.0
C592 C 0.02731 0.50567 0.06831 0.0
C593 C 0.07261 0.53394 0.0669 0.0
C594 C 0.10064 0.51915 0.07292 0.0
C595 C 0.08312 0.47676 0.08049 0.0
C596 C 0.03725 0.4479 0.08066 0.0
H597 H 0.57814 0.10341 0.41545 0.0
H598 H 0.64126 0.02492 0.41008 0.0
H599 H 0.57195 0.96268 0.39914 0.0
H600 H 0.49213 0.03047 0.43553 0.0
H601 H 0.45115 0.04071 0.42585 0.0
H602 H 0.50749 0.08364 0.42622 0.0
H603 H 0.50677 0.09195 0.3922 0.0
H604 H 0.44981 0.0489 0.39173 0.0
H605 H 0.4898 0.04454 0.37822 0.0
H606 H 0.4953 0.90492 0.3976 0.0
H607 H 0.41827 0.85647 0.40657 0.0
H608 H 0.40268 0.97065 0.41358 0.0
C609 C 0.57769 0.07377 0.41111 0.0
C610 C 0.61459 0.06865 0.41355 0.0
C611 C 0.61301 0.02922 0.40831 0.0
C612 C 0.57393 0.99391 0.40188 0.0
C613 C 0.53695 0.99875 0.40073 0.0
C614 C 0.53861 0.038 0.40501 0.0
C615 C 0.49297 0.03206 0.40646 0.0
C616 C 0.48555 0.04757 0.42459 0.0
C617 C 0.48434 0.05576 0.39124 0.0
C618 C 0.46562 0.98265 0.4044 0.0
C619 C 0.4914 0.96431 0.40021 0.0
C620 C 0.47451 0.91887 0.40031 0.0
C621 C 0.43079 0.89159 0.40556 0.0
C622 C 0.40489 0.91005 0.41092 0.0
C623 C 0.42187 0.95581 0.40946 0.0
H624 H 0.41327 0.39255 0.75053 0.0
H625 H 0.53882 0.40447 0.73698 0.0
H626 H 0.5667 0.48122 0.72781 0.0
H627 H 0.4203 0.48031 0.71608 0.0
H628 H 0.39439 0.49833 0.73199 0.0
H629 H 0.37875 0.44093 0.73079 0.0
H630 H 0.3957 0.44202 0.76417 0.0
H631 H 0.41186 0.49905 0.76544 0.0
H632 H 0.44976 0.48129 0.77224 0.0
H633 H 0.58841 0.55841 0.73027 0.0
H634 H 0.60044 0.62887 0.74223 0.0
H635 H 0.46104 0.56929 0.75333 0.0
C636 C 0.44596 0.41084 0.74489 0.0
C637 C 0.47411 0.39305 0.74465 0.0
C638 C 0.51675 0.41766 0.73731 0.0
C639 C 0.53275 0.46122 0.73193 0.0
C640 C 0.50534 0.47915 0.73364 0.0
C641 C 0.46231 0.45436 0.73953 0.0
C642 C 0.4424 0.48302 0.74342 0.0
C643 C 0.40686 0.47519 0.72975 0.0
C644 C 0.42395 0.47593 0.76244 0.0
C645 C 0.48257 0.52802 0.74105 0.0
C646 C 0.51808 0.52511 0.73471 0.0
C647 C 0.56058 0.56138 0.73455 0.0
C648 C 0.56722 0.6011 0.74156 0.0
C649 C 0.53151 0.60407 0.74863 0.0
C650 C 0.48856 0.5678 0.74761 0.0
H651 H 0.54407 0.94633 0.60014 0.0
H652 H 0.41504 0.83003 0.59549 0.0
H653 H 0.38056 0.87499 0.60122 0.0
H654 H 0.50838 0.01086 0.63259 0.0
H655 H 0.54569 0.06133 0.62132 0.0
H656 H 0.55983 0.01879 0.62405 0.0
H657 H 0.57145 0.019 0.59023 0.0
H658 H 0.55671 0.06058 0.58732 0.0
H659 H 0.52698 0.0092 0.57554 0.0
H660 H 0.3615 0.93215 0.59697 0.0
H661 H 0.35928 0.99654 0.58529 0.0
H662 H 0.50012 0.07734 0.59299 0.0
C663 C 0.50857 0.93016 0.60116 0.0
C664 C 0.48213 0.88507 0.59722 0.0
C665 C 0.43586 0.86466 0.59852 0.0
C666 C 0.41599 0.88995 0.60187 0.0
C667 C 0.44298 0.93523 0.60425 0.0
C668 C 0.48844 0.95507 0.60442 0.0
C669 C 0.51013 0.00475 0.60376 0.0
C670 C 0.5323 0.02512 0.62149 0.0
C671 C 0.54317 0.02444 0.58829 0.0
C672 C 0.47011 0.00944 0.6009 0.0
C673 C 0.43156 0.96916 0.60194 0.0
C674 C 0.39118 0.96408 0.59677 0.0
C675 C 0.39032 0.00068 0.58993 0.0
C676 C 0.42966 0.04164 0.58824 0.0
C677 C 0.46957 0.04644 0.59446 0.0
H678 H 0.43791 0.54122 0.9268 0.0
H679 H 0.37633 0.40026 0.93472 0.0
H680 H 0.44704 0.40908 0.94455 0.0
H681 H 0.52056 0.55305 0.90526 0.0
H682 H 0.56295 0.60525 0.91374 0.0
H683 H 0.50669 0.59178 0.91472 0.0
H684 H 0.51253 0.60398 0.94861 0.0
H685 H 0.5695 0.61812 0.94773 0.0
H686 H 0.53175 0.57502 0.96233 0.0
H687 H 0.52358 0.42826 0.94411 0.0
H688 H 0.59885 0.45589 0.93304 0.0
H689 H 0.61308 0.58478 0.9248 0.0
C690 C 0.43909 0.51264 0.93148 0.0
C691 C 0.40218 0.47021 0.92998 0.0
C692 C 0.4046 0.43312 0.93572 0.0
C693 C 0.44451 0.43791 0.94154 0.0
C694 C 0.48145 0.47997 0.94162 0.0
C695 C 0.47898 0.51695 0.93699 0.0
C696 C 0.52423 0.55661 0.93429 0.0
C697 C 0.52882 0.5778 0.91592 0.0
C698 C 0.53514 0.59042 0.94913 0.0
C699 C 0.55192 0.53487 0.93586 0.0
C700 C 0.527 0.49125 0.94102 0.0
C701 C 0.54381 0.46268 0.94065 0.0
C702 C 0.58647 0.47854 0.93418 0.0
C703 C 0.61132 0.52229 0.92791 0.0
C704 C 0.59463 0.55121 0.92958 0.0
H705 H 0.01952 0.61297 0.25537 0.0
H706 H 0.13327 0.60253 0.27019 0.0
H707 H 0.08441 0.52732 0.28108 0.0
H708 H 0.94007 0.5319 0.29157 0.0
H709 H 0.89544 0.51123 0.27592 0.0
H710 H 0.93761 0.56857 0.27549 0.0
H711 H 0.95209 0.56114 0.24242 0.0
H712 H 0.91061 0.5042 0.24276 0.0
H713 H 0.9658 0.51996 0.23592 0.0
H714 H 0.0283 0.45012 0.28098 0.0
H715 H 0.96908 0.37792 0.2708 0.0
H716 H 0.88959 0.43618 0.25699 0.0
C717 C 0.034 0.59542 0.2616 0.0
C718 C 0.07995 0.61315 0.2618 0.0
C719 C 0.09801 0.58937 0.26985 0.0
C720 C 0.07048 0.54675 0.27625 0.0
C721 C 0.0251 0.52887 0.27477 0.0
C722 C 0.00687 0.55281 0.26796 0.0
C723 C 0.95809 0.52382 0.26461 0.0
C724 C 0.93122 0.53452 0.27769 0.0
C725 C 0.94603 0.52749 0.24529 0.0
C726 C 0.95293 0.47922 0.26852 0.0
C727 C 0.99153 0.48296 0.27505 0.0
C728 C 0.99741 0.44661 0.27655 0.0
C729 C 0.96384 0.40585 0.27056 0.0
C730 C 0.92508 0.40197 0.2632 0.0
C731 C 0.91866 0.43846 0.26299 0.0
H732 H 0.14256 0.64109 0.19169 0.0
H733 H 0.28221 0.73338 0.19725 0.0
H734 H 0.29881 0.68256 0.18054 0.0
H735 H 0.14633 0.54125 0.19559 0.0
H736 H 0.10464 0.51249 0.17906 0.0
H737 H 0.10433 0.55561 0.19186 0.0
H738 H 0.10593 0.59643 0.16303 0.0
H739 H 0.10609 0.55336 0.15014 0.0
H740 H 0.14891 0.60977 0.14701 0.0
H741 H 0.29925 0.61864 0.16396 0.0
H742 H 0.28349 0.55217 0.14665 0.0
H743 H 0.14372 0.50573 0.15051 0.0
C744 C 0.17668 0.65058 0.18946 0.0
C745 C 0.21114 0.69105 0.19588 0.0
C746 C 0.25531 0.70257 0.19242 0.0
C747 C 0.26501 0.6738 0.18301 0.0
C748 C 0.23015 0.63398 0.17692 0.0
C749 C 0.18686 0.62278 0.17982 0.0
C750 C 0.15524 0.57915 0.17131 0.0
C751 C 0.12592 0.54512 0.18529 0.0
C752 C 0.12742 0.58505 0.15702 0.0
C753 C 0.18736 0.56723 0.16323 0.0
C754 C 0.23045 0.59884 0.16676 0.0
C755 C 0.26561 0.59393 0.16101 0.0
C756 C 0.2564 0.55603 0.15126 0.0
C757 C 0.21246 0.524 0.14711 0.0
C758 C 0.17772 0.52989 0.15327 0.0
H759 H 0.63688 0.14247 0.48049 0.0
H760 H 0.72988 0.2829 0.47897 0.0
H761 H 0.67857 0.29631 0.49691 0.0
H762 H 0.53719 0.14742 0.47827 0.0
H763 H 0.50797 0.10252 0.49357 0.0
H764 H 0.55127 0.10468 0.48006 0.0
H765 H 0.59101 0.10021 0.50819 0.0
H766 H 0.54793 0.09823 0.5218 0.0
H767 H 0.60436 0.14007 0.52557 0.0
H768 H 0.61535 0.29378 0.51462 0.0
H769 H 0.5484 0.27547 0.5319 0.0
H770 H 0.4999 0.13634 0.52323 0.0
C771 C 0.64633 0.17614 0.48376 0.0
C772 C 0.68717 0.21174 0.47815 0.0
C773 C 0.69868 0.25517 0.48306 0.0
C774 C 0.66972 0.26307 0.49322 0.0
C775 C 0.62976 0.22711 0.4986 0.0
C776 C 0.61832 0.18448 0.49415 0.0
C777 C 0.57443 0.15135 0.50215 0.0
C778 C 0.54073 0.12495 0.48765 0.0
C779 C 0.57978 0.12067 0.5152 0.0
C780 C 0.56258 0.18194 0.51168 0.0
C781 C 0.59467 0.22554 0.50938 0.0
C782 C 0.59021 0.25972 0.51658 0.0
C783 C 0.55201 0.24902 0.52635 0.0
C784 C 0.51901 0.20449 0.52904 0.0
C785 C 0.52472 0.17068 0.52163 0.0
H786 H 0.49852 0.64175 0.81854 0.0
H787 H 0.44955 0.73243 0.81195 0.0
H788 H 0.38333 0.68251 0.8297 0.0
H789 H 0.39623 0.54146 0.81621 0.0
H790 H 0.41067 0.51442 0.833 0.0
H791 H 0.45303 0.557 0.81959 0.0
H792 H 0.49333 0.60027 0.84783 0.0
H793 H 0.45121 0.55771 0.86133 0.0
H794 H 0.46397 0.61401 0.86381 0.0
H795 H 0.31966 0.61833 0.84723 0.0
H796 H 0.27056 0.55222 0.86526 0.0
H797 H 0.36628 0.50886 0.86161 0.0
C798 C 0.47384 0.65116 0.82079 0.0
C799 C 0.47889 0.69073 0.81373 0.0
C800 C 0.44628 0.70223 0.81724 0.0
C801 C 0.40852 0.67397 0.82724 0.0
C802 C 0.40442 0.63484 0.83387 0.0
C803 C 0.43676 0.62401 0.83097 0.0
C804 C 0.426 0.58126 0.83998 0.0
C805 C 0.42119 0.54649 0.82638 0.0
C806 C 0.46068 0.58879 0.85407 0.0
C807 C 0.38226 0.56923 0.84833 0.0
C808 C 0.36979 0.60001 0.84454 0.0
C809 C 0.32949 0.59439 0.85041 0.0
C810 C 0.30173 0.55673 0.86057 0.0
C811 C 0.31487 0.52576 0.86499 0.0
C812 C 0.3556 0.53231 0.85869 0.0
H813 H 0.85557 0.49641 0.14996 0.0
H814 H 0.71581 0.44885 0.14504 0.0
H815 H 0.69981 0.38342 0.16325 0.0
H816 H 0.85153 0.39273 0.1484 0.0
H817 H 0.89403 0.40779 0.16475 0.0
H818 H 0.8937 0.44958 0.15101 0.0
H819 H 0.89354 0.4923 0.17896 0.0
H820 H 0.89397 0.4507 0.19278 0.0
H821 H 0.85134 0.46461 0.19547 0.0
H822 H 0.7002 0.32066 0.18104 0.0
H823 H 0.71693 0.2717 0.19915 0.0
H824 H 0.85642 0.36523 0.19396 0.0
C825 C 0.82153 0.47214 0.15263 0.0
C826 C 0.78687 0.47737 0.14593 0.0
C827 C 0.74283 0.44537 0.15003 0.0
C828 C 0.7335 0.40809 0.1603 0.0
C829 C 0.76861 0.40385 0.16662 0.0
C830 C 0.81176 0.43552 0.16313 0.0
C831 C 0.84381 0.42467 0.172 0.0
C832 C 0.87244 0.41831 0.15822 0.0
C833 C 0.87233 0.46017 0.18561 0.0
C834 C 0.8121 0.38165 0.18093 0.0
C835 C 0.76882 0.36968 0.17754 0.0
C836 C 0.73399 0.33008 0.18392 0.0
C837 C 0.74374 0.30241 0.19413 0.0
C838 C 0.7879 0.31493 0.19813 0.0
C839 C 0.82229 0.35507 0.19138 0.0
H840 H 0.31325 0.81591 0.50099 0.0
H841 H 0.31646 0.74422 0.45501 0.0
H842 H 0.36719 0.72554 0.47057 0.0
H843 H 0.4246 0.8651 0.51059 0.0
H844 H 0.41853 0.86259 0.5343 0.0
H845 H 0.37761 0.86439 0.52061 0.0
H846 H 0.31696 0.7924 0.53512 0.0
H847 H 0.35784 0.79052 0.54892 0.0
H848 H 0.32264 0.74407 0.53518 0.0
H849 H 0.42349 0.72099 0.49033 0.0
H850 H 0.48167 0.73327 0.51192 0.0
H851 H 0.44205 0.80913 0.54463 0.0
C852 C 0.32363 0.7951 0.49449 0.0
C853 C 0.31035 0.78048 0.47703 0.0
C854 C 0.32574 0.75481 0.46856 0.0
C855 C 0.35452 0.74412 0.47729 0.0
C856 C 0.36771 0.75957 0.49447 0.0
C857 C 0.35261 0.78443 0.503 0.0
C858 C 0.37477 0.80044 0.52078 0.0
C859 C 0.4004 0.85112 0.5216 0.0
C860 C 0.34104 0.78066 0.53589 0.0
C861 C 0.40555 0.78185 0.52072 0.0
C862 C 0.40063 0.75779 0.5056 0.0
C863 C 0.42723 0.73935 0.50233 0.0
C864 C 0.46017 0.74641 0.51467 0.0
C865 C 0.46657 0.77213 0.52999 0.0
C866 C 0.43811 0.78917 0.5331 0.0
H867 H 0.64806 0.50141 0.85717 0.0
H868 H 0.73964 0.45306 0.86215 0.0
H869 H 0.68944 0.3873 0.84436 0.0
H870 H 0.54865 0.39855 0.85995 0.0
H871 H 0.52026 0.41269 0.84367 0.0
H872 H 0.56337 0.45527 0.85676 0.0
H873 H 0.60456 0.49603 0.8282 0.0
H874 H 0.5615 0.45364 0.81502 0.0
H875 H 0.61779 0.46712 0.81182 0.0
H876 H 0.62541 0.324 0.82738 0.0
H877 H 0.55821 0.27359 0.81047 0.0
H878 H 0.51264 0.36752 0.81514 0.0
C879 C 0.65765 0.47701 0.85454 0.0
C880 C 0.69759 0.48212 0.86118 0.0
C881 C 0.7092 0.44978 0.85719 0.0
C882 C 0.68081 0.41229 0.84716 0.0
C883 C 0.64138 0.40812 0.84095 0.0
C884 C 0.63028 0.44009 0.8443 0.0
C885 C 0.58681 0.4288 0.83583 0.0
C886 C 0.55277 0.42351 0.84989 0.0
C887 C 0.59306 0.46345 0.82189 0.0
C888 C 0.57469 0.38514 0.82732 0.0
C889 C 0.60623 0.37337 0.83054 0.0
C890 C 0.60087 0.33326 0.82462 0.0
C891 C 0.56255 0.30477 0.81508 0.0
C892 C 0.53043 0.31683 0.81131 0.0
C893 C 0.53689 0.35763 0.81754 0.0
H894 H 0.21614 0.4606 0.96834 0.0
H895 H 0.1641 0.32205 0.9577 0.0
H896 H 0.16426 0.30774 0.98982 0.0
H897 H 0.28907 0.471 1.00108 0.0
H898 H 0.28122 0.50823 0.015 0.0
H899 H 0.27193 0.50714 0.99155 0.0
H900 H 0.19221 0.49113 0.99676 0.0
H901 H 0.20191 0.49415 0.02024 0.0
H902 H 0.15586 0.44584 0.01085 0.0
H903 H 0.17779 0.31058 0.02301 0.0
H904 H 0.19025 0.328 0.05504 0.0
H905 H 0.23305 0.46457 0.04362 0.0
C906 C 0.20281 0.427 0.97292 0.0
C907 C 0.18879 0.39211 0.96075 0.0
C908 C 0.17347 0.3488 0.96699 0.0
C909 C 0.17418 0.34059 0.98514 0.0
C910 C 0.19022 0.37613 0.9968 0.0
C911 C 0.2031 0.41829 0.99097 0.0
C912 C 0.21994 0.45096 0.00607 0.0
C913 C 0.26841 0.48642 1.00325 0.0
C914 C 0.19073 0.47173 0.00863 0.0
C915 C 0.21508 0.4208 0.02129 0.0
C916 C 0.19831 0.37781 0.0157 0.0
C917 C 0.19087 0.34413 0.02752 0.0
C918 C 0.19871 0.35434 0.04561 0.0
C919 C 0.21372 0.39775 0.05159 0.0
C920 C 0.22287 0.43141 0.03923 0.0
H921 H 0.81929 0.17097 0.30136 0.0
H922 H 0.74555 0.23779 0.29235 0.0
H923 H 0.74511 0.25049 0.32455 0.0
H924 H 0.76548 0.11846 0.34425 0.0
H925 H 0.8162 0.12538 0.35313 0.0
H926 H 0.8059 0.11782 0.32971 0.0
H927 H 0.87951 0.19017 0.32415 0.0
H928 H 0.88914 0.19891 0.34757 0.0
H929 H 0.88823 0.24073 0.33399 0.0
H930 H 0.75928 0.26225 0.35735 0.0
H931 H 0.77465 0.25977 0.38918 0.0
H932 H 0.83902 0.18516 0.37688 0.0
C933 C 0.80135 0.18642 0.30633 0.0
C934 C 0.78133 0.20237 0.29456 0.0
C935 C 0.75981 0.22422 0.30131 0.0
C936 C 0.76004 0.23215 0.31951 0.0
C937 C 0.7819 0.21788 0.33074 0.0
C938 C 0.80113 0.19442 0.32448 0.0
C939 C 0.82317 0.18348 0.33929 0.0
C940 C 0.80138 0.13331 0.34174 0.0
C941 C 0.87296 0.20459 0.33605 0.0
C942 C 0.81376 0.20482 0.35482 0.0
C943 C 0.79031 0.2249 0.34957 0.0
C944 C 0.77754 0.24654 0.36161 0.0
C945 C 0.78698 0.24563 0.37959 0.0
C946 C 0.80878 0.22314 0.38531 0.0
C947 C 0.82335 0.20356 0.37272 0.0
H948 H 0.53146 0.74755 0.63591 0.0
H949 H 0.66968 0.82353 0.62246 0.0
H950 H 0.68826 0.84015 0.65423 0.0
H951 H 0.5315 0.81731 0.6679 0.0
H952 H 0.49329 0.77528 0.68277 0.0
H953 H 0.49099 0.76422 0.65944 0.0
H954 H 0.50028 0.6964 0.66519 0.0
H955 H 0.50054 0.70601 0.68858 0.0
H956 H 0.54541 0.70257 0.67864 0.0
H957 H 0.69021 0.85434 0.68744 0.0
H958 H 0.67655 0.85372 0.71969 0.0
H959 H 0.53696 0.76884 0.71087 0.0
C960 C 0.56574 0.76587 0.6398 0.0
C961 C 0.59935 0.78323 0.62694 0.0
C962 C 0.64375 0.80878 0.63228 0.0
C963 C 0.65443 0.81894 0.65023 0.0
C964 C 0.62022 0.80313 0.66257 0.0
C965 C 0.57685 0.77613 0.6576 0.0
C966 C 0.546 0.76436 0.67323 0.0
C967 C 0.51354 0.78131 0.67067 0.0
C968 C 0.52164 0.71437 0.67661 0.0
C969 C 0.57861 0.78929 0.68779 0.0
C970 C 0.62126 0.81181 0.6814 0.0
C971 C 0.65693 0.83683 0.69255 0.0
C972 C 0.64891 0.83697 0.71077 0.0
C973 C 0.60566 0.81233 0.71755 0.0
C974 C 0.57013 0.78909 0.70586 0.0
H975 H 0.83221 0.65049 0.96691 0.0
H976 H 0.76768 0.51076 0.95589 0.0
H977 H 0.75248 0.4945 0.98784 0.0
H978 H 0.88203 0.6459 0.00969 0.0
H979 H 0.87408 0.68855 0.01917 0.0
H980 H 0.88284 0.68801 0.99573 0.0
H981 H 0.81032 0.68879 0.99021 0.0
H982 H 0.80044 0.68748 0.01364 0.0
H983 H 0.75958 0.64568 0.9995 0.0
H984 H 0.73906 0.49372 0.02065 0.0
H985 H 0.74064 0.50853 0.05274 0.0
H986 H 0.81408 0.64876 0.04245 0.0
C987 C 0.81651 0.61661 0.97139 0.0
C988 C 0.80197 0.58178 0.95914 0.0
C989 C 0.78005 0.53775 0.96523 0.0
C990 C 0.77072 0.52828 0.98328 0.0
C991 C 0.78369 0.56333 0.995 0.0
C992 C 0.80715 0.60665 0.98938 0.0
C993 C 0.81699 0.63821 1.00465 0.0
C994 C 0.86695 0.66685 0.00748 0.0
C995 C 0.79555 0.66672 1.00182 0.0
C996 C 0.79517 0.60593 0.01973 0.0
C997 C 0.77569 0.56288 0.01384 0.0
C998 C 0.75414 0.52728 0.0254 0.0
C999 C 0.75454 0.53591 0.04354 0.0
C1000 C 0.77635 0.57968 0.04988 0.0
C1001 C 0.79589 0.61507 0.03779 0.0
H1002 H 0.16998 0.81462 0.37498 0.0
H1003 H 0.23432 0.73834 0.38353 0.0
H1004 H 0.24562 0.73703 0.35127 0.0
H1005 H 0.11577 0.76127 0.33205 0.0
H1006 H 0.12392 0.81266 0.3233 0.0
H1007 H 0.11623 0.80202 0.34672 0.0
H1008 H 0.18943 0.8747 0.35225 0.0
H1009 H 0.19837 0.88459 0.32884 0.0
H1010 H 0.23952 0.88233 0.34233 0.0
H1011 H 0.25751 0.75161 0.31855 0.0
H1012 H 0.25602 0.76833 0.28681 0.0
H1013 H 0.18376 0.83495 0.29945 0.0
C1014 C 0.18435 0.79576 0.36991 0.0
C1015 C 0.20013 0.77537 0.38155 0.0
C1016 C 0.22079 0.75281 0.37467 0.0
C1017 C 0.22795 0.75256 0.35642 0.0
C1018 C 0.21409 0.77497 0.34531 0.0
C1019 C 0.19159 0.79509 0.35171 0.0
C1020 C 0.18137 0.81797 0.33699 0.0
C1021 C 0.13135 0.79723 0.33462 0.0
C1022 C 0.2035 0.86785 0.34031 0.0
C1023 C 0.20214 0.80812 0.32138 0.0
C1024 C 0.22124 0.78365 0.32649 0.0
C1025 C 0.2425 0.7706 0.31439 0.0
C1026 C 0.24218 0.78083 0.29646 0.0
C1027 C 0.22068 0.8037 0.29087 0.0
C1028 C 0.20141 0.81845 0.30353 0.0
H1029 H 0.42389 0.26099 0.70599 0.0
H1030 H 0.3979 0.1297 0.71993 0.0
H1031 H 0.40415 0.11548 0.68865 0.0
H1032 H 0.34446 0.21521 0.66966 0.0
H1033 H 0.37328 0.26446 0.65646 0.0
H1034 H 0.37557 0.26813 0.68023 0.0
H1035 H 0.46068 0.30947 0.67867 0.0
H1036 H 0.45869 0.30507 0.65491 0.0
H1037 H 0.48789 0.28422 0.66754 0.0
H1038 H 0.42398 0.12108 0.65627 0.0
H1039 H 0.42622 0.13041 0.62424 0.0
H1040 H 0.40618 0.24226 0.63028 0.0
C1041 C 0.41806 0.22861 0.7028 0.0
C1042 C 0.41222 0.19732 0.71606 0.0
C1043 C 0.40577 0.15583 0.71056 0.0
C1044 C 0.40847 0.14703 0.69266 0.0
C1045 C 0.41467 0.17887 0.68019 0.0
C1046 C 0.4168 0.21774 0.68492 0.0
C1047 C 0.41601 0.24305 0.66869 0.0
C1048 C 0.37488 0.24799 0.66876 0.0
C1049 C 0.45835 0.28813 0.66739 0.0
C1050 C 0.41391 0.21245 0.65405 0.0
C1051 C 0.41532 0.17682 0.66113 0.0
C1052 C 0.41981 0.14707 0.65056 0.0
C1053 C 0.42003 0.15217 0.63226 0.0
C1054 C 0.41211 0.18444 0.62446 0.0
C1055 C 0.41067 0.21616 0.63561 0.0
H1056 H 0.96859 0.26965 0.2153 0.0
H1057 H 0.86475 0.18012 0.18009 0.0
H1058 H 0.92097 0.18816 0.15829 0.0
H1059 H 0.0294 0.34394 0.18468 0.0
H1060 H 0.08267 0.35864 0.19355 0.0
H1061 H 0.03573 0.33703 0.20792 0.0
H1062 H 0.05048 0.27492 0.21798 0.0
H1063 H 0.09778 0.29651 0.20358 0.0
H1064 H 0.05482 0.23977 0.2017 0.0
H1065 H 0.98636 0.21935 0.13802 0.0
H1066 H 0.05386 0.26973 0.12146 0.0
H1067 H 0.11587 0.33803 0.16988 0.0
C1068 C 0.95758 0.25038 0.20328 0.0
C1069 C 0.91214 0.22409 0.19944 0.0
C1070 C 0.89926 0.19998 0.18345 0.0
C1071 C 0.93107 0.20442 0.17098 0.0
C1072 C 0.9756 0.23248 0.17484 0.0
C1073 C 0.98881 0.25455 0.19076 0.0
C1074 C 0.03782 0.28738 0.19086 0.0
C1075 C 0.04689 0.33449 0.19445 0.0
C1076 C 0.06163 0.27382 0.20433 0.0
C1077 C 0.0499 0.28246 0.17211 0.0
C1078 C 0.01373 0.24993 0.16318 0.0
C1079 C 0.01518 0.24369 0.14504 0.0
C1080 C 0.05372 0.27233 0.13573 0.0
C1081 C 0.09046 0.30663 0.14454 0.0
C1082 C 0.08902 0.31066 0.16303 0.0
H1083 H 0.66709 0.89222 0.51284 0.0
H1084 H 0.70086 0.95702 0.56377 0.0
H1085 H 0.75474 0.02686 0.54944 0.0
H1086 H 0.77916 0.96078 0.49067 0.0
H1087 H 0.75358 0.96161 0.47013 0.0
H1088 H 0.72658 0.91454 0.48463 0.0
H1089 H 0.65708 0.92258 0.48511 0.0
H1090 H 0.68376 0.96939 0.47067 0.0
H1091 H 0.6622 0.9744 0.49164 0.0
H1092 H 0.79481 0.09218 0.52935 0.0
H1093 H 0.81239 0.14676 0.50544 0.0
H1094 H 0.75144 0.04038 0.46743 0.0
C1095 C 0.68746 0.92065 0.52099 0.0
C1096 C 0.68074 0.91909 0.53943 0.0
C1097 C 0.70621 0.95746 0.54964 0.0
C1098 C 0.73698 0.99725 0.54161 0.0
C1099 C 0.74182 0.99834 0.52329 0.0
C1100 C 0.71776 0.96094 0.51309 0.0
C1101 C 0.72358 0.97234 0.49357 0.0
C1102 C 0.74714 0.95105 0.4842 0.0
C1103 C 0.67903 0.95891 0.48475 0.0
C1104 C 0.75276 0.02202 0.49442 0.0
C1105 C 0.76401 0.03638 0.51163 0.0
C1106 C 0.78705 0.08127 0.51577 0.0
C1107 C 0.7972 0.11217 0.50209 0.0
C1108 C 0.78359 0.09795 0.48454 0.0
C1109 C 0.76283 0.05236 0.48068 0.0
H1110 H 0.70469 0.73741 0.79608 0.0
H1111 H 0.69351 0.82803 0.83177 0.0
H1112 H 0.74275 0.81987 0.85293 0.0
H1113 H 0.69182 0.66334 0.82647 0.0
H1114 H 0.72937 0.64779 0.81714 0.0
H1115 H 0.70396 0.66989 0.80312 0.0
H1116 H 0.78075 0.73111 0.79251 0.0
H1117 H 0.80654 0.70902 0.80657 0.0
H1118 H 0.82129 0.76603 0.80851 0.0
H1119 H 0.77729 0.78828 0.87268 0.0
H1120 H 0.79322 0.73679 0.88898 0.0
H1121 H 0.78332 0.66738 0.84045 0.0
C1122 C 0.71386 0.75689 0.80806 0.0
C1123 C 0.69529 0.78351 0.81224 0.0
C1124 C 0.70771 0.80792 0.82816 0.0
C1125 C 0.7357 0.80342 0.84026 0.0
C1126 C 0.75156 0.775 0.83609 0.0
C1127 C 0.7415 0.75262 0.82021 0.0
C1128 C 0.75693 0.71923 0.81983 0.0
C1129 C 0.71822 0.67234 0.81646 0.0
C1130 C 0.79357 0.73214 0.80604 0.0
C1131 C 0.77477 0.7241 0.83842 0.0
C1132 C 0.77236 0.7572 0.84747 0.0
C1133 C 0.78085 0.76348 0.86556 0.0
C1134 C 0.7901 0.73423 0.87472 0.0
C1135 C 0.79106 0.69925 0.8658 0.0
C1136 C 0.78501 0.69525 0.84734 0.0
H1137 H 0.11685 0.7822 0.17165 0.0
H1138 H 0.05848 0.79703 0.2196 0.0
H1139 H 0.99102 0.78014 0.20321 0.0
H1140 H 0.05616 0.81836 0.13872 0.0
H1141 H 0.05041 0.7765 0.12337 0.0
H1142 H 0.09836 0.80349 0.13733 0.0
H1143 H 0.08253 0.72738 0.1489 0.0
H1144 H 0.03439 0.70026 0.13529 0.0
H1145 H 0.02983 0.69067 0.15882 0.0
H1146 H 0.92435 0.74372 0.1837 0.0
H1147 H 0.86655 0.69336 0.16288 0.0
H1148 H 0.96789 0.70173 0.12755 0.0
C1149 C 0.09098 0.78487 0.17834 0.0
C1150 C 0.09333 0.79247 0.1967 0.0
C1151 C 0.05774 0.79275 0.20539 0.0
C1152 C 0.01919 0.78293 0.19618 0.0
C1153 C 0.01663 0.77281 0.17824 0.0
C1154 C 0.05197 0.77444 0.16932 0.0
C1155 C 0.03852 0.7549 0.15098 0.0
C1156 C 0.06227 0.79044 0.13676 0.0
C1157 C 0.04678 0.71601 0.14837 0.0
C1158 C 0.98975 0.73955 0.15141 0.0
C1159 C 0.97776 0.751 0.16704 0.0
C1160 C 0.93354 0.73567 0.17119 0.0
C1161 C 0.90082 0.70704 0.15928 0.0
C1162 C 0.91251 0.6936 0.14353 0.0
C1163 C 0.95769 0.71159 0.13938 0.0
H1164 H 0.2706 0.04497 0.53952 0.0
H1165 H 0.3298 0.15012 0.50094 0.0
H1166 H 0.29121 0.09606 0.47706 0.0
H1167 H 0.29361 0.97798 0.51849 0.0
H1168 H 0.24521 0.92648 0.52406 0.0
H1169 H 0.2627 0.97323 0.53824 0.0
H1170 H 0.18663 0.96772 0.53547 0.0
H1171 H 0.1683 0.92007 0.52147 0.0
H1172 H 0.16443 0.96676 0.51388 0.0
H1173 H 0.26431 0.03009 0.45758 0.0
H1174 H 0.25077 0.96018 0.44437 0.0
H1175 H 0.21168 0.89629 0.49546 0.0
C1176 C 0.27334 0.05696 0.52611 0.0
C1177 C 0.30272 0.1019 0.5221 0.0
C1178 C 0.30663 0.11622 0.50438 0.0
C1179 C 0.28505 0.08548 0.49073 0.0
C1180 C 0.25943 0.04072 0.49505 0.0
C1181 C 0.25289 0.0266 0.51242 0.0
C1182 C 0.2313 0.97674 0.51362 0.0
C1183 C 0.25993 0.96285 0.52421 0.0
C1184 C 0.1849 0.95664 0.52158 0.0
C1185 C 0.22927 0.96494 0.49425 0.0
C1186 C 0.24452 0.00221 0.48373 0.0
C1187 C 0.25109 0.00066 0.46564 0.0
C1188 C 0.24336 0.96073 0.45825 0.0
C1189 C 0.22932 0.92262 0.46884 0.0
C1190 C 0.22076 0.92444 0.48696 0.0
H1191 H 0.27471 0.30587 0.88187 0.0
H1192 H 0.17639 0.30737 0.84765 0.0
H1193 H 0.1861 0.2589 0.82656 0.0
H1194 H 0.34694 0.32088 0.85002 0.0
H1195 H 0.36668 0.28666 0.85936 0.0
H1196 H 0.34385 0.31113 0.87353 0.0
H1197 H 0.28738 0.23401 0.88571 0.0
H1198 H 0.31016 0.20917 0.87148 0.0
H1199 H 0.2522 0.19092 0.87061 0.0
H1200 H 0.21833 0.22512 0.80658 0.0
H1201 H 0.27 0.21067 0.78965 0.0
H1202 H 0.34713 0.23046 0.83684 0.0
C1203 C 0.25398 0.29481 0.87024 0.0
C1204 C 0.2246 0.31039 0.86647 0.0
C1205 C 0.19866 0.29551 0.85097 0.0
C1206 C 0.20403 0.26793 0.83891 0.0
C1207 C 0.23496 0.255 0.84267 0.0
C1208 C 0.25913 0.26762 0.85812 0.0
C1209 C 0.29463 0.25499 0.85806 0.0
C1210 C 0.3407 0.29584 0.86036 0.0
C1211 C 0.28553 0.22019 0.87231 0.0
C1212 C 0.28859 0.23557 0.8397 0.0
C1213 C 0.25329 0.23489 0.83118 0.0
C1214 C 0.24498 0.22407 0.81332 0.0
C1215 C 0.27435 0.21564 0.80381 0.0
C1216 C 0.3115 0.21786 0.81213 0.0
C1217 C 0.31771 0.22632 0.83043 0.0
loop_
_geom_bond_atom_site_label_1
_geom_bond_atom_site_label_2
_geom_bond_distance
_geom_bond_site_symmetry_2
_ccdc_geom_bond_type
Co0 O3 1.970 . S
Co0 N17 1.989 . S
Co0 O25 1.967 . S
Co0 O32 1.920 . S
Co1 O4 1.966 . S
Co1 N10 2.022 . S
Co1 N18 1.993 . S
Co1 O26 1.941 . S
C2 O3 1.258 . S
C2 O4 1.263 . S
O3 Co0 1.970 . S
O3 C2 1.258 . S
O4 Co1 1.966 . S
O4 C2 1.263 . S
C5 O6 1.235 . S
C5 O32 1.289 . S
O6 C5 1.235 . S
C7 C9 1.400 . S
C7 N10 1.351 . S
C7 C12 1.501 . S
C8 C9 1.387 . S
C8 N11 1.341 . S
C9 C7 1.400 . S
C9 C8 1.387 . S
N10 Co1 2.022 . S
N10 C7 1.351 . S
N10 N11 1.365 . S
N11 C8 1.341 . S
N11 N10 1.365 . S
N11 H31 0.862 . S
C12 C7 1.501 . S
C12 H13 0.961 . S
C12 H14 0.961 . S
C12 H15 0.960 . S
H13 C12 0.961 . S
H14 C12 0.961 . S
H15 C12 0.960 . S
C16 N17 1.342 . S
C16 C20 1.401 . S
C16 C21 1.499 . S
N17 Co0 1.989 . S
N17 C16 1.342 . S
N17 N18 1.388 . S
N18 Co1 1.993 . S
N18 N17 1.388 . S
N18 C19 1.346 . S
C19 N18 1.346 . S
C19 C20 1.396 . S
C19 C29 1.510 . S
C20 C16 1.401 . S
C20 C19 1.396 . S
C21 C16 1.499 . S
C21 H22 0.959 . S
C21 H23 0.960 . S
C21 H24 0.961 . S
H22 C21 0.959 . S
H23 C21 0.960 . S
H24 C21 0.961 . S
O25 Co0 1.967 . S
O25 C33 1.258 . S
O26 Co1 1.941 . S
O26 C33 1.266 . S
H27 C29 0.959 . S
H28 C29 0.961 . S
C29 C19 1.510 . S
C29 H27 0.959 . S
C29 H28 0.961 . S
C29 H30 0.960 . S
H30 C29 0.960 . S
H31 N11 0.862 . S
O32 Co0 1.920 . S
O32 C5 1.289 . S
C33 O25 1.258 . S
C33 O26 1.266 . S
Co34 O37 1.970 . S
Co34 N51 1.989 . S
Co34 O59 1.967 . S
Co34 O66 1.920 . S
Co35 O38 1.966 . S
Co35 N44 2.022 . S
Co35 N52 1.993 . S
Co35 O60 1.941 . S
C36 O37 1.258 . S
C36 O38 1.263 . S
O37 Co34 1.970 . S
O37 C36 1.258 . S
O38 Co35 1.966 . S
O38 C36 1.263 . S
C39 O40 1.235 . S
C39 O66 1.289 . S
O40 C39 1.235 . S
C41 C43 1.400 . S
C41 N44 1.351 . S
C41 C46 1.501 . S
C42 C43 1.387 . S
C42 N45 1.341 . S
C43 C41 1.400 . S
C43 C42 1.387 . S
N44 Co35 2.022 . S
N44 C41 1.351 . S
N44 N45 1.365 . S
N45 C42 1.341 . S
N45 N44 1.365 . S
N45 H65 0.862 . S
C46 C41 1.501 . S
C46 H47 0.961 . S
C46 H48 0.961 . S
C46 H49 0.960 . S
H47 C46 0.961 . S
H48 C46 0.961 . S
H49 C46 0.960 . S
C50 N51 1.342 . S
C50 C54 1.401 . S
C50 C55 1.499 . S
N51 Co34 1.989 . S
N51 C50 1.342 . S
N51 N52 1.388 . S
N52 Co35 1.993 . S
N52 N51 1.388 . S
N52 C53 1.346 . S
C53 N52 1.346 . S
C53 C54 1.396 . S
C53 C63 1.510 . S
C54 C50 1.401 . S
C54 C53 1.396 . S
C55 C50 1.499 . S
C55 H56 0.959 . S
C55 H57 0.960 . S
C55 H58 0.961 . S
H56 C55 0.959 . S
H57 C55 0.960 . S
H58 C55 0.961 . S
O59 Co34 1.967 . S
O59 C67 1.258 . S
O60 Co35 1.941 . S
O60 C67 1.266 . S
H61 C63 0.959 . S
H62 C63 0.961 . S
C63 C53 1.510 . S
C63 H61 0.959 . S
C63 H62 0.961 . S
C63 H64 0.960 . S
H64 C63 0.960 . S
H65 N45 0.862 . S
O66 Co34 1.920 . S
O66 C39 1.289 . S
C67 O59 1.258 . S
C67 O60 1.266 . S
Co68 O71 1.970 . S
Co68 N85 1.989 . S
Co68 O93 1.967 . S
Co68 O100 1.920 . S
Co69 O72 1.966 . S
Co69 N78 2.022 . S
Co69 N86 1.993 . S
Co69 O94 1.941 . S
C70 O71 1.258 . S
C70 O72 1.263 . S
O71 Co68 1.970 . S
O71 C70 1.258 . S
O72 Co69 1.966 . S
O72 C70 1.263 . S
C73 O74 1.235 . S
C73 O100 1.289 . S
O74 C73 1.235 . S
C75 C77 1.400 . S
C75 N78 1.351 . S
C75 C80 1.501 . S
C76 C77 1.387 . S
C76 N79 1.341 . S
C77 C75 1.400 . S
C77 C76 1.387 . S
N78 Co69 2.022 . S
N78 C75 1.351 . S
N78 N79 1.365 . S
N79 C76 1.341 . S
N79 N78 1.365 . S
N79 H99 0.862 . S
C80 C75 1.501 . S
C80 H81 0.961 . S
C80 H82 0.961 . S
C80 H83 0.960 . S
H81 C80 0.961 . S
H82 C80 0.961 . S
H83 C80 0.960 . S
C84 N85 1.342 . S
C84 C88 1.401 . S
C84 C89 1.499 . S
N85 Co68 1.989 . S
N85 C84 1.342 . S
N85 N86 1.388 . S
N86 Co69 1.993 . S
N86 N85 1.388 . S
N86 C87 1.346 . S
C87 N86 1.346 . S
C87 C88 1.396 . S
C87 C97 1.510 . S
C88 C84 1.401 . S
C88 C87 1.396 . S
C89 C84 1.499 . S
C89 H90 0.959 . S
C89 H91 0.960 . S
C89 H92 0.961 . S
H90 C89 0.959 . S
H91 C89 0.960 . S
H92 C89 0.961 . S
O93 Co68 1.967 . S
O93 C101 1.258 . S
O94 Co69 1.941 . S
O94 C101 1.266 . S
H95 C97 0.959 . S
H96 C97 0.961 . S
C97 C87 1.510 . S
C97 H95 0.959 . S
C97 H96 0.961 . S
C97 H98 0.960 . S
H98 C97 0.960 . S
H99 N79 0.862 . S
O100 Co68 1.920 . S
O100 C73 1.289 . S
C101 O93 1.258 . S
C101 O94 1.266 . S
Co102 O105 1.970 . S
Co102 N119 1.989 . S
Co102 O127 1.967 . S
Co102 O134 1.920 . S
Co103 O106 1.966 . S
Co103 N112 2.022 . S
Co103 N120 1.993 . S
Co103 O128 1.941 . S
C104 O105 1.258 . S
C104 O106 1.263 . S
O105 Co102 1.970 . S
O105 C104 1.258 . S
O106 Co103 1.966 . S
O106 C104 1.263 . S
C107 O108 1.235 . S
C107 O134 1.289 . S
O108 C107 1.235 . S
C109 C111 1.400 . S
C109 N112 1.351 . S
C109 C114 1.501 . S
C110 C111 1.387 . S
C110 N113 1.341 . S
C111 C109 1.400 . S
C111 C110 1.387 . S
N112 Co103 2.022 . S
N112 C109 1.351 . S
N112 N113 1.365 . S
N113 C110 1.341 . S
N113 N112 1.365 . S
N113 H133 0.862 . S
C114 C109 1.501 . S
C114 H115 0.961 . S
C114 H116 0.961 . S
C114 H117 0.960 . S
H115 C114 0.961 . S
H116 C114 0.961 . S
H117 C114 0.960 . S
C118 N119 1.342 . S
C118 C122 1.401 . S
C118 C123 1.499 . S
N119 Co102 1.989 . S
N119 C118 1.342 . S
N119 N120 1.388 . S
N120 Co103 1.993 . S
N120 N119 1.388 . S
N120 C121 1.346 . S
C121 N120 1.346 . S
C121 C122 1.396 . S
C121 C131 1.510 . S
C122 C118 1.401 . S
C122 C121 1.396 . S
C123 C118 1.499 . S
C123 H124 0.959 . S
C123 H125 0.960 . S
C123 H126 0.961 . S
H124 C123 0.959 . S
H125 C123 0.960 . S
H126 C123 0.961 . S
O127 Co102 1.967 . S
O127 C135 1.258 . S
O128 Co103 1.941 . S
O128 C135 1.266 . S
H129 C131 0.959 . S
H130 C131 0.961 . S
C131 C121 1.510 . S
C131 H129 0.959 . S
C131 H130 0.961 . S
C131 H132 0.960 . S
H132 C131 0.960 . S
H133 N113 0.862 . S
O134 Co102 1.920 . S
O134 C107 1.289 . S
C135 O127 1.258 . S
C135 O128 1.266 . S
Co136 O139 1.970 . S
Co136 N153 1.989 . S
Co136 O161 1.967 . S
Co136 O168 1.920 . S
Co137 O140 1.966 . S
Co137 N146 2.022 . S
Co137 N154 1.993 . S
Co137 O162 1.941 . S
C138 O139 1.258 . S
C138 O140 1.263 . S
O139 Co136 1.970 . S
O139 C138 1.258 . S
O140 Co137 1.966 . S
O140 C138 1.263 . S
C141 O142 1.235 . S
C141 O168 1.289 . S
O142 C141 1.235 . S
C143 C145 1.400 . S
C143 N146 1.351 . S
C143 C148 1.501 . S
C144 C145 1.387 . S
C144 N147 1.341 . S
C145 C143 1.400 . S
C145 C144 1.387 . S
N146 Co137 2.022 . S
N146 C143 1.351 . S
N146 N147 1.365 . S
N147 C144 1.341 . S
N147 N146 1.365 . S
N147 H167 0.862 . S
C148 C143 1.501 . S
C148 H149 0.961 . S
C148 H150 0.961 . S
C148 H151 0.960 . S
H149 C148 0.961 . S
H150 C148 0.961 . S
H151 C148 0.960 . S
C152 N153 1.342 . S
C152 C156 1.401 . S
C152 C157 1.499 . S
N153 Co136 1.989 . S
N153 C152 1.342 . S
N153 N154 1.388 . S
N154 Co137 1.993 . S
N154 N153 1.388 . S
N154 C155 1.346 . S
C155 N154 1.346 . S
C155 C156 1.396 . S
C155 C165 1.510 . S
C156 C152 1.401 . S
C156 C155 1.396 . S
C157 C152 1.499 . S
C157 H158 0.959 . S
C157 H159 0.960 . S
C157 H160 0.961 . S
H158 C157 0.959 . S
H159 C157 0.960 . S
H160 C157 0.961 . S
O161 Co136 1.967 . S
O161 C169 1.258 . S
O162 Co137 1.941 . S
O162 C169 1.266 . S
H163 C165 0.959 . S
H164 C165 0.961 . S
C165 C155 1.510 . S
C165 H163 0.959 . S
C165 H164 0.961 . S
C165 H166 0.960 . S
H166 C165 0.960 . S
H167 N147 0.862 . S
O168 Co136 1.920 . S
O168 C141 1.289 . S
C169 O161 1.258 . S
C169 O162 1.266 . S
Co170 O173 1.970 . S
Co170 N187 1.989 . S
Co170 O195 1.967 . S
Co170 O202 1.920 . S
Co171 O174 1.966 . S
Co171 N180 2.022 . S
Co171 N188 1.993 . S
Co171 O196 1.941 . S
C172 O173 1.258 . S
C172 O174 1.263 . S
O173 Co170 1.970 . S
O173 C172 1.258 . S
O174 Co171 1.966 . S
O174 C172 1.263 . S
C175 O176 1.235 . S
C175 O202 1.289 . S
O176 C175 1.235 . S
C177 C179 1.400 . S
C177 N180 1.351 . S
C177 C182 1.501 . S
C178 C179 1.387 . S
C178 N181 1.341 . S
C179 C177 1.400 . S
C179 C178 1.387 . S
N180 Co171 2.022 . S
N180 C177 1.351 . S
N180 N181 1.365 . S
N181 C178 1.341 . S
N181 N180 1.365 . S
N181 H201 0.862 . S
C182 C177 1.501 . S
C182 H183 0.961 . S
C182 H184 0.961 . S
C182 H185 0.960 . S
H183 C182 0.961 . S
H184 C182 0.961 . S
H185 C182 0.960 . S
C186 N187 1.342 . S
C186 C190 1.401 . S
C186 C191 1.499 . S
N187 Co170 1.989 . S
N187 C186 1.342 . S
N187 N188 1.388 . S
N188 Co171 1.993 . S
N188 N187 1.388 . S
N188 C189 1.346 . S
C189 N188 1.346 . S
C189 C190 1.396 . S
C189 C199 1.510 . S
C190 C186 1.401 . S
C190 C189 1.396 . S
C191 C186 1.499 . S
C191 H192 0.959 . S
C191 H193 0.960 . S
C191 H194 0.961 . S
H192 C191 0.959 . S
H193 C191 0.960 . S
H194 C191 0.961 . S
O195 Co170 1.967 . S
O195 C203 1.258 . S
O196 Co171 1.941 . S
O196 C203 1.266 . S
H197 C199 0.959 . S
H198 C199 0.961 . S
C199 C189 1.510 . S
C199 H197 0.959 . S
C199 H198 0.961 . S
C199 H200 0.960 . S
H200 C199 0.960 . S
H201 N181 0.862 . S
O202 Co170 1.920 . S
O202 C175 1.289 . S
C203 O195 1.258 . S
C203 O196 1.266 . S
Co204 O207 1.970 . S
Co204 N221 1.989 . S
Co204 O229 1.967 . S
Co204 O236 1.920 . S
Co205 O208 1.966 . S
Co205 N214 2.022 . S
Co205 N222 1.993 . S
Co205 O230 1.941 . S
C206 O207 1.258 . S
C206 O208 1.263 . S
O207 Co204 1.970 . S
O207 C206 1.258 . S
O208 Co205 1.966 . S
O208 C206 1.263 . S
C209 O210 1.235 . S
C209 O236 1.289 . S
O210 C209 1.235 . S
C211 C213 1.400 . S
C211 N214 1.351 . S
C211 C216 1.501 . S
C212 C213 1.387 . S
C212 N215 1.341 . S
C213 C211 1.400 . S
C213 C212 1.387 . S
N214 Co205 2.022 . S
N214 C211 1.351 . S
N214 N215 1.365 . S
N215 C212 1.341 . S
N215 N214 1.365 . S
N215 H235 0.862 . S
C216 C211 1.501 . S
C216 H217 0.961 . S
C216 H218 0.961 . S
C216 H219 0.960 . S
H217 C216 0.961 . S
H218 C216 0.961 . S
H219 C216 0.960 . S
C220 N221 1.342 . S
C220 C224 1.401 . S
C220 C225 1.499 . S
N221 Co204 1.989 . S
N221 C220 1.342 . S
N221 N222 1.388 . S
N222 Co205 1.993 . S
N222 N221 1.388 . S
N222 C223 1.346 . S
C223 N222 1.346 . S
C223 C224 1.396 . S
C223 C233 1.510 . S
C224 C220 1.401 . S
C224 C223 1.396 . S
C225 C220 1.499 . S
C225 H226 0.959 . S
C225 H227 0.960 . S
C225 H228 0.961 . S
H226 C225 0.959 . S
H227 C225 0.960 . S
H228 C225 0.961 . S
O229 Co204 1.967 . S
O229 C237 1.258 . S
O230 Co205 1.941 . S
O230 C237 1.266 . S
H231 C233 0.959 . S
H232 C233 0.961 . S
C233 C223 1.510 . S
C233 H231 0.959 . S
C233 H232 0.961 . S
C233 H234 0.960 . S
H234 C233 0.960 . S
H235 N215 0.862 . S
O236 Co204 1.920 . S
O236 C209 1.289 . S
C237 O229 1.258 . S
C237 O230 1.266 . S
Co238 O241 1.970 . S
Co238 N255 1.989 . S
Co238 O263 1.967 . S
Co238 O270 1.920 . S
Co239 O242 1.966 . S
Co239 N248 2.022 . S
Co239 N256 1.993 . S
Co239 O264 1.941 . S
C240 O241 1.258 . S
C240 O242 1.263 . S
O241 Co238 1.970 . S
O241 C240 1.258 . S
O242 Co239 1.966 . S
O242 C240 1.263 . S
C243 O244 1.235 . S
C243 O270 1.289 . S
O244 C243 1.235 . S
C245 C247 1.400 . S
C245 N248 1.351 . S
C245 C250 1.501 . S
C246 C247 1.387 . S
C246 N249 1.341 . S
C247 C245 1.400 . S
C247 C246 1.387 . S
N248 Co239 2.022 . S
N248 C245 1.351 . S
N248 N249 1.365 . S
N249 C246 1.341 . S
N249 N248 1.365 . S
N249 H269 0.862 . S
C250 C245 1.501 . S
C250 H251 0.961 . S
C250 H252 0.961 . S
C250 H253 0.960 . S
H251 C250 0.961 . S
H252 C250 0.961 . S
H253 C250 0.960 . S
C254 N255 1.342 . S
C254 C258 1.401 . S
C254 C259 1.499 . S
N255 Co238 1.989 . S
N255 C254 1.342 . S
N255 N256 1.388 . S
N256 Co239 1.993 . S
N256 N255 1.388 . S
N256 C257 1.346 . S
C257 N256 1.346 . S
C257 C258 1.396 . S
C257 C267 1.510 . S
C258 C254 1.401 . S
C258 C257 1.396 . S
C259 C254 1.499 . S
C259 H260 0.959 . S
C259 H261 0.960 . S
C259 H262 0.961 . S
H260 C259 0.959 . S
H261 C259 0.960 . S
H262 C259 0.961 . S
O263 Co238 1.967 . S
O263 C271 1.258 . S
O264 Co239 1.941 . S
O264 C271 1.266 . S
H265 C267 0.959 . S
H266 C267 0.961 . S
C267 C257 1.510 . S
C267 H265 0.959 . S
C267 H266 0.961 . S
C267 H268 0.960 . S
H268 C267 0.960 . S
H269 N249 0.862 . S
O270 Co238 1.920 . S
O270 C243 1.289 . S
C271 O263 1.258 . S
C271 O264 1.266 . S
Co272 O275 1.970 . S
Co272 N289 1.989 . S
Co272 O297 1.967 . S
Co272 O304 1.920 . S
Co273 O276 1.966 . S
Co273 N282 2.022 . S
Co273 N290 1.993 . S
Co273 O298 1.941 . S
C274 O275 1.258 . S
C274 O276 1.263 . S
O275 Co272 1.970 . S
O275 C274 1.258 . S
O276 Co273 1.966 . S
O276 C274 1.263 . S
C277 O278 1.235 . S
C277 O304 1.289 . S
O278 C277 1.235 . S
C279 C281 1.400 . S
C279 N282 1.351 . S
C279 C284 1.501 . S
C280 C281 1.387 . S
C280 N283 1.341 . S
C281 C279 1.400 . S
C281 C280 1.387 . S
N282 Co273 2.022 . S
N282 C279 1.351 . S
N282 N283 1.365 . S
N283 C280 1.341 . S
N283 N282 1.365 . S
N283 H303 0.862 . S
C284 C279 1.501 . S
C284 H285 0.961 . S
C284 H286 0.961 . S
C284 H287 0.960 . S
H285 C284 0.961 . S
H286 C284 0.961 . S
H287 C284 0.960 . S
C288 N289 1.342 . S
C288 C292 1.401 . S
C288 C293 1.499 . S
N289 Co272 1.989 . S
N289 C288 1.342 . S
N289 N290 1.388 . S
N290 Co273 1.993 . S
N290 N289 1.388 . S
N290 C291 1.346 . S
C291 N290 1.346 . S
C291 C292 1.396 . S
C291 C301 1.510 . S
C292 C288 1.401 . S
C292 C291 1.396 . S
C293 C288 1.499 . S
C293 H294 0.959 . S
C293 H295 0.960 . S
C293 H296 0.961 . S
H294 C293 0.959 . S
H295 C293 0.960 . S
H296 C293 0.961 . S
O297 Co272 1.967 . S
O297 C305 1.258 . S
O298 Co273 1.941 . S
O298 C305 1.266 . S
H299 C301 0.959 . S
H300 C301 0.961 . S
C301 C291 1.510 . S
C301 H299 0.959 . S
C301 H300 0.961 . S
C301 H302 0.960 . S
H302 C301 0.960 . S
H303 N283 0.862 . S
O304 Co272 1.920 . S
O304 C277 1.289 . S
C305 O297 1.258 . S
C305 O298 1.266 . S
Co306 O309 1.970 . S
Co306 N323 1.989 . S
Co306 O331 1.967 . S
Co306 O338 1.920 . S
Co307 O310 1.966 . S
Co307 N316 2.022 . S
Co307 N324 1.993 . S
Co307 O332 1.941 . S
C308 O309 1.258 . S
C308 O310 1.263 . S
O309 Co306 1.970 . S
O309 C308 1.258 . S
O310 Co307 1.966 . S
O310 C308 1.263 . S
C311 O312 1.235 . S
C311 O338 1.289 . S
O312 C311 1.235 . S
C313 C315 1.400 . S
C313 N316 1.351 . S
C313 C318 1.501 . S
C314 C315 1.387 . S
C314 N317 1.341 . S
C315 C313 1.400 . S
C315 C314 1.387 . S
N316 Co307 2.022 . S
N316 C313 1.351 . S
N316 N317 1.365 . S
N317 C314 1.341 . S
N317 N316 1.365 . S
N317 H337 0.862 . S
C318 C313 1.501 . S
C318 H319 0.961 . S
C318 H320 0.961 . S
C318 H321 0.960 . S
H319 C318 0.961 . S
H320 C318 0.961 . S
H321 C318 0.960 . S
C322 N323 1.342 . S
C322 C326 1.401 . S
C322 C327 1.499 . S
N323 Co306 1.989 . S
N323 C322 1.342 . S
N323 N324 1.388 . S
N324 Co307 1.993 . S
N324 N323 1.388 . S
N324 C325 1.346 . S
C325 N324 1.346 . S
C325 C326 1.396 . S
C325 C335 1.510 . S
C326 C322 1.401 . S
C326 C325 1.396 . S
C327 C322 1.499 . S
C327 H328 0.959 . S
C327 H329 0.960 . S
C327 H330 0.961 . S
H328 C327 0.959 . S
H329 C327 0.960 . S
H330 C327 0.961 . S
O331 Co306 1.967 . S
O331 C339 1.258 . S
O332 Co307 1.941 . S
O332 C339 1.266 . S
H333 C335 0.959 . S
H334 C335 0.961 . S
C335 C325 1.510 . S
C335 H333 0.959 . S
C335 H334 0.961 . S
C335 H336 0.960 . S
H336 C335 0.960 . S
H337 N317 0.862 . S
O338 Co306 1.920 . S
O338 C311 1.289 . S
C339 O331 1.258 . S
C339 O332 1.266 . S
Co340 O343 1.970 . S
Co340 N357 1.989 . S
Co340 O365 1.967 . S
Co340 O372 1.920 . S
Co341 O344 1.966 . S
Co341 N350 2.022 . S
Co341 N358 1.993 . S
Co341 O366 1.941 . S
C342 O343 1.258 . S
C342 O344 1.263 . S
O343 Co340 1.970 . S
O343 C342 1.258 . S
O344 Co341 1.966 . S
O344 C342 1.263 . S
C345 O346 1.235 . S
C345 O372 1.289 . S
O346 C345 1.235 . S
C347 C349 1.400 . S
C347 N350 1.351 . S
C347 C352 1.501 . S
C348 C349 1.387 . S
C348 N351 1.341 . S
C349 C347 1.400 . S
C349 C348 1.387 . S
N350 Co341 2.022 . S
N350 C347 1.351 . S
N350 N351 1.365 . S
N351 C348 1.341 . S
N351 N350 1.365 . S
N351 H371 0.862 . S
C352 C347 1.501 . S
C352 H353 0.961 . S
C352 H354 0.961 . S
C352 H355 0.960 . S
H353 C352 0.961 . S
H354 C352 0.961 . S
H355 C352 0.960 . S
C356 N357 1.342 . S
C356 C360 1.401 . S
C356 C361 1.499 . S
N357 Co340 1.989 . S
N357 C356 1.342 . S
N357 N358 1.388 . S
N358 Co341 1.993 . S
N358 N357 1.388 . S
N358 C359 1.346 . S
C359 N358 1.346 . S
C359 C360 1.396 . S
C359 C369 1.510 . S
C360 C356 1.401 . S
C360 C359 1.396 . S
C361 C356 1.499 . S
C361 H362 0.959 . S
C361 H363 0.960 . S
C361 H364 0.961 . S
H362 C361 0.959 . S
H363 C361 0.960 . S
H364 C361 0.961 . S
O365 Co340 1.967 . S
O365 C373 1.258 . S
O366 Co341 1.941 . S
O366 C373 1.266 . S
H367 C369 0.959 . S
H368 C369 0.961 . S
C369 C359 1.510 . S
C369 H367 0.959 . S
C369 H368 0.961 . S
C369 H370 0.960 . S
H370 C369 0.960 . S
H371 N351 0.862 . S
O372 Co340 1.920 . S
O372 C345 1.289 . S
C373 O365 1.258 . S
C373 O366 1.266 . S
Co374 O377 1.970 . S
Co374 N391 1.989 . S
Co374 O399 1.967 . S
Co374 O406 1.920 . S
Co375 O378 1.966 . S
Co375 N384 2.022 . S
Co375 N392 1.993 . S
Co375 O400 1.941 . S
C376 O377 1.258 . S
C376 O378 1.263 . S
O377 Co374 1.970 . S
O377 C376 1.258 . S
O378 Co375 1.966 . S
O378 C376 1.263 . S
C379 O380 1.235 . S
C379 O406 1.289 . S
O380 C379 1.235 . S
C381 C383 1.400 . S
C381 N384 1.351 . S
C381 C386 1.501 . S
C382 C383 1.387 . S
C382 N385 1.341 . S
C383 C381 1.400 . S
C383 C382 1.387 . S
N384 Co375 2.022 . S
N384 C381 1.351 . S
N384 N385 1.365 . S
N385 C382 1.341 . S
N385 N384 1.365 . S
N385 H405 0.862 . S
C386 C381 1.501 . S
C386 H387 0.961 . S
C386 H388 0.961 . S
C386 H389 0.960 . S
H387 C386 0.961 . S
H388 C386 0.961 . S
H389 C386 0.960 . S
C390 N391 1.342 . S
C390 C394 1.401 . S
C390 C395 1.499 . S
N391 Co374 1.989 . S
N391 C390 1.342 . S
N391 N392 1.388 . S
N392 Co375 1.993 . S
N392 N391 1.388 . S
N392 C393 1.346 . S
C393 N392 1.346 . S
C393 C394 1.396 . S
C393 C403 1.510 . S
C394 C390 1.401 . S
C394 C393 1.396 . S
C395 C390 1.499 . S
C395 H396 0.959 . S
C395 H397 0.960 . S
C395 H398 0.961 . S
H396 C395 0.959 . S
H397 C395 0.960 . S
H398 C395 0.961 . S
O399 Co374 1.967 . S
O399 C407 1.258 . S
O400 Co375 1.941 . S
O400 C407 1.266 . S
H401 C403 0.959 . S
H402 C403 0.961 . S
C403 C393 1.510 . S
C403 H401 0.959 . S
C403 H402 0.961 . S
C403 H404 0.960 . S
H404 C403 0.960 . S
H405 N385 0.862 . S
O406 Co374 1.920 . S
O406 C379 1.289 . S
C407 O399 1.258 . S
C407 O400 1.266 . S
H408 C420 0.930 . S
H409 C422 0.930 . S
H410 C423 0.930 . S
H411 C427 0.959 . S
H412 C427 0.959 . S
H413 C427 0.961 . S
H414 C428 0.960 . S
H415 C428 0.961 . S
H416 C428 0.959 . S
H417 C431 0.929 . S
H418 C432 0.931 . S
H419 C434 0.930 . S
C420 H408 0.930 . S
C420 C421 1.399 . S
C420 C425 1.399 . S
C421 C420 1.399 . S
C421 C422 1.376 . S
C422 H409 0.930 . S
C422 C421 1.376 . S
C422 C423 1.388 . S
C423 H410 0.930 . S
C423 C422 1.388 . S
C423 C424 1.390 . S
C424 C423 1.390 . S
C424 C425 1.394 . S
C424 C430 1.465 . S
C425 C420 1.399 . S
C425 C424 1.394 . S
C425 C426 1.516 . S
C426 C425 1.516 . S
C426 C427 1.502 . S
C426 C428 1.561 . S
C426 C429 1.526 . S
C427 H411 0.959 . S
C427 H412 0.959 . S
C427 H413 0.961 . S
C427 C426 1.502 . S
C428 H414 0.960 . S
C428 H415 0.961 . S
C428 H416 0.959 . S
C428 C426 1.561 . S
C429 C426 1.526 . S
C429 C430 1.396 . S
C429 C434 1.390 . S
C430 C424 1.465 . S
C430 C429 1.396 . S
C430 C431 1.399 . S
C431 H417 0.929 . S
C431 C430 1.399 . S
C431 C432 1.385 . S
C432 H418 0.931 . S
C432 C431 1.385 . S
C432 C433 1.389 . S
C433 C432 1.389 . S
C433 C434 1.387 . S
C434 H419 0.930 . S
C434 C429 1.390 . S
C434 C433 1.387 . S
H435 C447 0.930 . S
H436 C449 0.930 . S
H437 C450 0.930 . S
H438 C454 0.959 . S
H439 C454 0.959 . S
H440 C454 0.961 . S
H441 C455 0.960 . S
H442 C455 0.961 . S
H443 C455 0.959 . S
H444 C458 0.929 . S
H445 C459 0.931 . S
H446 C461 0.930 . S
C447 H435 0.930 . S
C447 C448 1.399 . S
C447 C452 1.399 . S
C448 C447 1.399 . S
C448 C449 1.376 . S
C449 H436 0.930 . S
C449 C448 1.376 . S
C449 C450 1.388 . S
C450 H437 0.930 . S
C450 C449 1.388 . S
C450 C451 1.390 . S
C451 C450 1.390 . S
C451 C452 1.394 . S
C451 C457 1.465 1_455 S
C452 C447 1.399 . S
C452 C451 1.394 . S
C452 C453 1.516 1_455 S
C453 C452 1.516 1_655 S
C453 C454 1.502 . S
C453 C455 1.561 1_655 S
C453 C456 1.526 . S
C454 H438 0.959 . S
C454 H439 0.959 . S
C454 H440 0.961 . S
C454 C453 1.502 . S
C455 H441 0.960 . S
C455 H442 0.961 . S
C455 H443 0.959 . S
C455 C453 1.561 1_455 S
C456 C453 1.526 . S
C456 C457 1.396 . S
C456 C461 1.390 . S
C457 C451 1.465 1_655 S
C457 C456 1.396 . S
C457 C458 1.399 . S
C458 H444 0.929 . S
C458 C457 1.399 . S
C458 C459 1.385 . S
C459 H445 0.931 . S
C459 C458 1.385 . S
C459 C460 1.389 . S
C460 C459 1.389 . S
C460 C461 1.387 . S
C461 H446 0.930 . S
C461 C456 1.390 . S
C461 C460 1.387 . S
H462 C474 0.930 . S
H463 C476 0.930 . S
H464 C477 0.930 1_565 S
H465 C481 0.959 . S
H466 C481 0.959 . S
H467 C481 0.961 . S
H468 C482 0.960 . S
H469 C482 0.961 . S
H470 C482 0.959 . S
H471 C485 0.929 . S
H472 C486 0.931 . S
H473 C488 0.930 . S
C474 H462 0.930 . S
C474 C475 1.399 . S
C474 C479 1.399 . S
C475 C474 1.399 . S
C475 C476 1.376 . S
C476 H463 0.930 . S
C476 C475 1.376 . S
C476 C477 1.388 . S
C477 H464 0.930 1_545 S
C477 C476 1.388 . S
C477 C478 1.390 . S
C478 C477 1.390 . S
C478 C479 1.394 . S
C478 C484 1.465 1_545 S
C479 C474 1.399 . S
C479 C478 1.394 . S
C479 C480 1.516 . S
C480 C479 1.516 . S
C480 C481 1.502 . S
C480 C482 1.561 1_545 S
C480 C483 1.526 1_545 S
C481 H465 0.959 . S
C481 H466 0.959 . S
C481 H467 0.961 . S
C481 C480 1.502 . S
C482 H468 0.960 . S
C482 H469 0.961 . S
C482 H470 0.959 . S
C482 C480 1.561 1_565 S
C483 C480 1.526 1_565 S
C483 C484 1.396 . S
C483 C488 1.390 . S
C484 C478 1.465 1_565 S
C484 C483 1.396 . S
C484 C485 1.399 . S
C485 H471 0.929 . S
C485 C484 1.399 . S
C485 C486 1.385 . S
C486 H472 0.931 . S
C486 C485 1.385 . S
C486 C487 1.389 . S
C487 C486 1.389 . S
C487 C488 1.387 . S
C488 H473 0.930 . S
C488 C483 1.390 . S
C488 C487 1.387 . S
H489 C501 0.930 . S
H490 C503 0.930 . S
H491 C504 0.930 . S
H492 C508 0.959 . S
H493 C508 0.959 . S
H494 C508 0.961 . S
H495 C509 0.960 . S
H496 C509 0.961 . S
H497 C509 0.959 . S
H498 C512 0.929 . S
H499 C513 0.931 . S
H500 C515 0.930 . S
C501 H489 0.930 . S
C501 C502 1.399 . S
C501 C506 1.399 . S
C502 C501 1.399 . S
C502 C503 1.376 . S
C503 H490 0.930 . S
C503 C502 1.376 . S
C503 C504 1.388 . S
C504 H491 0.930 . S
C504 C503 1.388 . S
C504 C505 1.390 . S
C505 C504 1.390 . S
C505 C506 1.394 . S
C505 C511 1.465 . S
C506 C501 1.399 . S
C506 C505 1.394 . S
C506 C507 1.516 . S
C507 C506 1.516 . S
C507 C508 1.502 . S
C507 C509 1.561 . S
C507 C510 1.526 . S
C508 H492 0.959 . S
C508 H493 0.959 . S
C508 H494 0.961 . S
C508 C507 1.502 . S
C509 H495 0.960 . S
C509 H496 0.961 . S
C509 H497 0.959 . S
C509 C507 1.561 . S
C510 C507 1.526 . S
C510 C511 1.396 . S
C510 C515 1.390 . S
C511 C505 1.465 . S
C511 C510 1.396 . S
C511 C512 1.399 . S
C512 H498 0.929 . S
C512 C511 1.399 . S
C512 C513 1.385 . S
C513 H499 0.931 . S
C513 C512 1.385 . S
C513 C514 1.389 . S
C514 C513 1.389 . S
C514 C515 1.387 . S
C515 H500 0.930 . S
C515 C510 1.390 . S
C515 C514 1.387 . S
H516 C528 0.930 . S
H517 C530 0.930 . S
H518 C531 0.930 . S
H519 C535 0.959 . S
H520 C535 0.959 . S
H521 C535 0.961 . S
H522 C536 0.960 . S
H523 C536 0.961 . S
H524 C536 0.959 . S
H525 C539 0.929 . S
H526 C540 0.931 . S
H527 C542 0.930 . S
C528 H516 0.930 . S
C528 C529 1.399 . S
C528 C533 1.399 . S
C529 C528 1.399 . S
C529 C530 1.376 . S
C530 H517 0.930 . S
C530 C529 1.376 . S
C530 C531 1.388 . S
C531 H518 0.930 . S
C531 C530 1.388 . S
C531 C532 1.390 . S
C532 C531 1.390 . S
C532 C533 1.394 . S
C532 C538 1.465 1_655 S
C533 C528 1.399 . S
C533 C532 1.394 . S
C533 C534 1.516 . S
C534 C533 1.516 . S
C534 C535 1.502 . S
C534 C536 1.561 1_655 S
C534 C537 1.526 1_655 S
C535 H519 0.959 . S
C535 H520 0.959 . S
C535 H521 0.961 . S
C535 C534 1.502 . S
C536 H522 0.960 . S
C536 H523 0.961 . S
C536 H524 0.959 . S
C536 C534 1.561 1_455 S
C537 C534 1.526 1_455 S
C537 C538 1.396 . S
C537 C542 1.390 . S
C538 C532 1.465 1_455 S
C538 C537 1.396 . S
C538 C539 1.399 . S
C539 H525 0.929 . S
C539 C538 1.399 . S
C539 C540 1.385 . S
C540 H526 0.931 . S
C540 C539 1.385 . S
C540 C541 1.389 . S
C541 C540 1.389 . S
C541 C542 1.387 . S
C542 H527 0.930 . S
C542 C537 1.390 . S
C542 C541 1.387 . S
H543 C555 0.930 . S
H544 C557 0.930 . S
H545 C558 0.930 . S
H546 C562 0.959 . S
H547 C562 0.959 . S
H548 C562 0.961 . S
H549 C563 0.960 . S
H550 C563 0.961 1_545 S
H551 C563 0.959 . S
H552 C566 0.929 1_565 S
H553 C567 0.931 . S
H554 C569 0.930 . S
C555 H543 0.930 . S
C555 C556 1.399 . S
C555 C560 1.399 . S
C556 C555 1.399 . S
C556 C557 1.376 . S
C557 H544 0.930 . S
C557 C556 1.376 . S
C557 C558 1.388 . S
C558 H545 0.930 . S
C558 C557 1.388 . S
C558 C559 1.390 . S
C559 C558 1.390 . S
C559 C560 1.394 . S
C559 C565 1.465 1_565 S
C560 C555 1.399 . S
C560 C559 1.394 . S
C560 C561 1.516 1_565 S
C561 C560 1.516 1_545 S
C561 C562 1.502 . S
C561 C563 1.561 1_545 S
C561 C564 1.526 . S
C562 H546 0.959 . S
C562 H547 0.959 . S
C562 H548 0.961 . S
C562 C561 1.502 . S
C563 H549 0.960 . S
C563 H550 0.961 1_565 S
C563 H551 0.959 . S
C563 C561 1.561 1_565 S
C564 C561 1.526 . S
C564 C565 1.396 . S
C564 C569 1.390 . S
C565 C559 1.465 1_545 S
C565 C564 1.396 . S
C565 C566 1.399 . S
C566 H552 0.929 1_545 S
C566 C565 1.399 . S
C566 C567 1.385 . S
C567 H553 0.931 . S
C567 C566 1.385 . S
C567 C568 1.389 . S
C568 C567 1.389 . S
C568 C569 1.387 . S
C569 H554 0.930 . S
C569 C564 1.390 . S
C569 C568 1.387 . S
H570 C582 0.930 . S
H571 C584 0.930 . S
H572 C585 0.930 1_455 S
H573 C589 0.959 . S
H574 C589 0.959 . S
H575 C589 0.961 . S
H576 C590 0.960 1_655 S
H577 C590 0.961 . S
H578 C590 0.959 . S
H579 C593 0.929 . S
H580 C594 0.931 . S
H581 C596 0.930 . S
C582 H570 0.930 . S
C582 C583 1.399 . S
C582 C587 1.399 . S
C583 C582 1.399 . S
C583 C584 1.376 . S
C584 H571 0.930 . S
C584 C583 1.376 . S
C584 C585 1.388 . S
C585 H572 0.930 1_655 S
C585 C584 1.388 . S
C585 C586 1.401 . S
C586 C585 1.401 . S
C586 C587 1.407 . S
C586 C592 1.441 1_655 S
C587 C582 1.399 . S
C587 C586 1.407 . S
C587 C588 1.516 . S
C588 C587 1.516 . S
C588 C589 1.502 . S
C588 C590 1.561 1_655 S
C588 C591 1.526 1_655 S
C589 H573 0.959 . S
C589 H574 0.959 . S
C589 H575 0.961 . S
C589 C588 1.502 . S
C590 H576 0.960 1_455 S
C590 H577 0.961 . S
C590 H578 0.959 . S
C590 C588 1.561 1_455 S
C591 C588 1.526 1_455 S
C591 C592 1.396 . S
C591 C596 1.390 . S
C592 C586 1.441 1_455 S
C592 C591 1.396 . S
C592 C593 1.399 . S
C593 H579 0.929 . S
C593 C592 1.399 . S
C593 C594 1.385 . S
C594 H580 0.931 . S
C594 C593 1.385 . S
C594 C595 1.389 . S
C595 C594 1.389 . S
C595 C596 1.387 . S
C596 H581 0.930 . S
C596 C591 1.390 . S
C596 C595 1.387 . S
H597 C609 0.930 . S
H598 C611 0.930 . S
H599 C612 0.930 1_565 S
H600 C616 0.959 . S
H601 C616 0.959 . S
H602 C616 0.961 . S
H603 C617 0.960 . S
H604 C617 0.961 . S
H605 C617 0.959 . S
H606 C620 0.929 . S
H607 C621 0.931 . S
H608 C623 0.930 . S
C609 H597 0.930 . S
C609 C610 1.399 . S
C609 C614 1.399 . S
C610 C609 1.399 . S
C610 C611 1.376 . S
C611 H598 0.930 . S
C611 C610 1.376 . S
C611 C612 1.388 . S
C612 H599 0.930 1_545 S
C612 C611 1.388 . S
C612 C613 1.390 . S
C613 C612 1.390 . S
C613 C614 1.394 . S
C613 C619 1.465 1_545 S
C614 C609 1.399 . S
C614 C613 1.394 . S
C614 C615 1.516 . S
C615 C614 1.516 . S
C615 C616 1.502 . S
C615 C617 1.561 1_545 S
C615 C618 1.526 1_545 S
C616 H600 0.959 . S
C616 H601 0.959 . S
C616 H602 0.961 . S
C616 C615 1.502 . S
C617 H603 0.960 . S
C617 H604 0.961 . S
C617 H605 0.959 . S
C617 C615 1.561 1_565 S
C618 C615 1.526 1_565 S
C618 C619 1.396 . S
C618 C623 1.390 . S
C619 C613 1.465 1_565 S
C619 C618 1.396 . S
C619 C620 1.399 . S
C620 H606 0.929 . S
C620 C619 1.399 . S
C620 C621 1.385 . S
C621 H607 0.931 . S
C621 C620 1.385 . S
C621 C622 1.389 . S
C622 C621 1.389 . S
C622 C623 1.387 . S
C623 H608 0.930 . S
C623 C618 1.390 . S
C623 C622 1.387 . S
H624 C636 0.930 . S
H625 C638 0.930 . S
H626 C639 0.930 . S
H627 C643 0.959 . S
H628 C643 0.959 . S
H629 C643 0.961 . S
H630 C644 0.960 . S
H631 C644 0.961 . S
H632 C644 0.959 . S
H633 C647 0.929 . S
H634 C648 0.931 . S
H635 C650 0.930 . S
C636 H624 0.930 . S
C636 C637 1.399 . S
C636 C641 1.399 . S
C637 C636 1.399 . S
C637 C638 1.376 . S
C638 H625 0.930 . S
C638 C637 1.376 . S
C638 C639 1.388 . S
C639 H626 0.930 . S
C639 C638 1.388 . S
C639 C640 1.390 . S
C640 C639 1.390 . S
C640 C641 1.394 . S
C640 C646 1.465 . S
C641 C636 1.399 . S
C641 C640 1.394 . S
C641 C642 1.516 . S
C642 C641 1.516 . S
C642 C643 1.502 . S
C642 C644 1.561 . S
C642 C645 1.526 . S
C643 H627 0.959 . S
C643 H628 0.959 . S
C643 H629 0.961 . S
C643 C642 1.502 . S
C644 H630 0.960 . S
C644 H631 0.961 . S
C644 H632 0.959 . S
C644 C642 1.561 . S
C645 C642 1.526 . S
C645 C646 1.396 . S
C645 C650 1.390 . S
C646 C640 1.465 . S
C646 C645 1.396 . S
C646 C647 1.399 . S
C647 H633 0.929 . S
C647 C646 1.399 . S
C647 C648 1.385 . S
C648 H634 0.931 . S
C648 C647 1.385 . S
C648 C649 1.389 . S
C649 C648 1.389 . S
C649 C650 1.387 . S
C650 H635 0.930 . S
C650 C645 1.390 . S
C650 C649 1.387 . S
H651 C663 0.930 . S
H652 C665 0.930 . S
H653 C666 0.930 . S
H654 C670 0.959 . S
H655 C670 0.959 . S
H656 C670 0.961 . S
H657 C671 0.960 . S
H658 C671 0.961 . S
H659 C671 0.959 . S
H660 C674 0.929 . S
H661 C675 0.931 . S
H662 C677 0.930 . S
C663 H651 0.930 . S
C663 C664 1.399 . S
C663 C668 1.399 . S
C664 C663 1.399 . S
C664 C665 1.376 . S
C665 H652 0.930 . S
C665 C664 1.376 . S
C665 C666 1.388 . S
C666 H653 0.930 . S
C666 C665 1.388 . S
C666 C667 1.390 . S
C667 C666 1.390 . S
C667 C668 1.394 . S
C667 C673 1.465 1_565 S
C668 C663 1.399 . S
C668 C667 1.394 . S
C668 C669 1.516 1_565 S
C669 C668 1.516 1_545 S
C669 C670 1.502 . S
C669 C671 1.561 1_545 S
C669 C672 1.526 . S
C670 H654 0.959 . S
C670 H655 0.959 . S
C670 H656 0.961 . S
C670 C669 1.502 . S
C671 H657 0.960 . S
C671 H658 0.961 . S
C671 H659 0.959 . S
C671 C669 1.561 1_565 S
C672 C669 1.526 . S
C672 C673 1.396 . S
C672 C677 1.390 . S
C673 C667 1.465 1_545 S
C673 C672 1.396 . S
C673 C674 1.399 . S
C674 H660 0.929 . S
C674 C673 1.399 . S
C674 C675 1.385 . S
C675 H661 0.931 . S
C675 C674 1.385 . S
C675 C676 1.389 . S
C676 C675 1.389 . S
C676 C677 1.387 . S
C677 H662 0.930 . S
C677 C672 1.390 . S
C677 C676 1.387 . S
H678 C690 0.930 . S
H679 C692 0.930 . S
H680 C693 0.930 . S
H681 C697 0.959 . S
H682 C697 0.959 . S
H683 C697 0.961 . S
H684 C698 0.960 . S
H685 C698 0.961 . S
H686 C698 0.959 . S
H687 C701 0.929 . S
H688 C702 0.931 . S
H689 C704 0.930 . S
C690 H678 0.930 . S
C690 C691 1.399 . S
C690 C695 1.399 . S
C691 C690 1.399 . S
C691 C692 1.376 . S
C692 H679 0.930 . S
C692 C691 1.376 . S
C692 C693 1.388 . S
C693 H680 0.930 . S
C693 C692 1.388 . S
C693 C694 1.390 . S
C694 C693 1.390 . S
C694 C695 1.394 . S
C694 C700 1.465 . S
C695 C690 1.399 . S
C695 C694 1.394 . S
C695 C696 1.516 . S
C696 C695 1.516 . S
C696 C697 1.502 . S
C696 C698 1.561 . S
C696 C699 1.526 . S
C697 H681 0.959 . S
C697 H682 0.959 . S
C697 H683 0.961 . S
C697 C696 1.502 . S
C698 H684 0.960 . S
C698 H685 0.961 . S
C698 H686 0.959 . S
C698 C696 1.561 . S
C699 C696 1.526 . S
C699 C700 1.396 . S
C699 C704 1.390 . S
C700 C694 1.465 . S
C700 C699 1.396 . S
C700 C701 1.399 . S
C701 H687 0.929 . S
C701 C700 1.399 . S
C701 C702 1.385 . S
C702 H688 0.931 . S
C702 C701 1.385 . S
C702 C703 1.389 . S
C703 C702 1.389 . S
C703 C704 1.387 . S
C704 H689 0.930 . S
C704 C699 1.390 . S
C704 C703 1.387 . S
H705 C717 0.930 . S
H706 C719 0.930 . S
H707 C720 0.930 . S
H708 C724 0.959 . S
H709 C724 0.959 . S
H710 C724 0.961 . S
H711 C725 0.960 . S
H712 C725 0.961 . S
H713 C725 0.959 . S
H714 C728 0.929 . S
H715 C729 0.931 . S
H716 C731 0.930 . S
C717 H705 0.930 . S
C717 C718 1.399 . S
C717 C722 1.399 . S
C718 C717 1.399 . S
C718 C719 1.376 . S
C719 H706 0.930 . S
C719 C718 1.376 . S
C719 C720 1.388 . S
C720 H707 0.930 . S
C720 C719 1.388 . S
C720 C721 1.390 . S
C721 C720 1.390 . S
C721 C722 1.394 . S
C721 C727 1.465 1_455 S
C722 C717 1.399 . S
C722 C721 1.394 . S
C722 C723 1.516 1_455 S
C723 C722 1.516 1_655 S
C723 C724 1.502 . S
C723 C725 1.561 1_655 S
C723 C726 1.526 . S
C724 H708 0.959 . S
C724 H709 0.959 . S
C724 H710 0.961 . S
C724 C723 1.502 . S
C725 H711 0.960 . S
C725 H712 0.961 . S
C725 H713 0.959 . S
C725 C723 1.561 1_455 S
C726 C723 1.526 . S
C726 C727 1.396 . S
C726 C731 1.390 . S
C727 C721 1.465 1_655 S
C727 C726 1.396 . S
C727 C728 1.399 . S
C728 H714 0.929 . S
C728 C727 1.399 . S
C728 C729 1.385 . S
C729 H715 0.931 . S
C729 C728 1.385 . S
C729 C730 1.389 . S
C730 C729 1.389 . S
C730 C731 1.387 . S
C731 H716 0.930 . S
C731 C726 1.390 . S
C731 C730 1.387 . S
H732 C744 0.930 . S
H733 C746 0.930 . S
H734 C747 0.930 . S
H735 C751 0.959 . S
H736 C751 0.959 . S
H737 C751 0.961 . S
H738 C752 0.960 . S
H739 C752 0.961 . S
H740 C752 0.959 . S
H741 C755 0.929 . S
H742 C756 0.931 . S
H743 C758 0.930 . S
C744 H732 0.930 . S
C744 C745 1.399 . S
C744 C749 1.399 . S
C745 C744 1.399 . S
C745 C746 1.376 . S
C746 H733 0.930 . S
C746 C745 1.376 . S
C746 C747 1.388 . S
C747 H734 0.930 . S
C747 C746 1.388 . S
C747 C748 1.390 . S
C748 C747 1.390 . S
C748 C749 1.394 . S
C748 C754 1.465 . S
C749 C744 1.399 . S
C749 C748 1.394 . S
C749 C750 1.516 . S
C750 C749 1.516 . S
C750 C751 1.502 . S
C750 C752 1.561 . S
C750 C753 1.526 . S
C751 H735 0.959 . S
C751 H736 0.959 . S
C751 H737 0.961 . S
C751 C750 1.502 . S
C752 H738 0.960 . S
C752 H739 0.961 . S
C752 H740 0.959 . S
C752 C750 1.561 . S
C753 C750 1.526 . S
C753 C754 1.396 . S
C753 C758 1.390 . S
C754 C748 1.465 . S
C754 C753 1.396 . S
C754 C755 1.399 . S
C755 H741 0.929 . S
C755 C754 1.399 . S
C755 C756 1.385 . S
C756 H742 0.931 . S
C756 C755 1.385 . S
C756 C757 1.389 . S
C757 C756 1.389 . S
C757 C758 1.387 . S
C758 H743 0.930 . S
C758 C753 1.390 . S
C758 C757 1.387 . S
H759 C771 0.930 . S
H760 C773 0.930 . S
H761 C774 0.930 . S
H762 C778 0.959 . S
H763 C778 0.959 . S
H764 C778 0.961 . S
H765 C779 0.960 . S
H766 C779 0.961 . S
H767 C779 0.959 . S
H768 C782 0.929 . S
H769 C783 0.931 . S
H770 C785 0.930 . S
C771 H759 0.930 . S
C771 C772 1.399 . S
C771 C776 1.399 . S
C772 C771 1.399 . S
C772 C773 1.376 . S
C773 H760 0.930 . S
C773 C772 1.376 . S
C773 C774 1.388 . S
C774 H761 0.930 . S
C774 C773 1.388 . S
C774 C775 1.390 . S
C775 C774 1.390 . S
C775 C776 1.394 . S
C775 C781 1.465 . S
C776 C771 1.399 . S
C776 C775 1.394 . S
C776 C777 1.516 . S
C777 C776 1.516 . S
C777 C778 1.502 . S
C777 C779 1.561 . S
C777 C780 1.526 . S
C778 H762 0.959 . S
C778 H763 0.959 . S
C778 H764 0.961 . S
C778 C777 1.502 . S
C779 H765 0.960 . S
C779 H766 0.961 . S
C779 H767 0.959 . S
C779 C777 1.561 . S
C780 C777 1.526 . S
C780 C781 1.396 . S
C780 C785 1.390 . S
C781 C775 1.465 . S
C781 C780 1.396 . S
C781 C782 1.399 . S
C782 H768 0.929 . S
C782 C781 1.399 . S
C782 C783 1.385 . S
C783 H769 0.931 . S
C783 C782 1.385 . S
C783 C784 1.389 . S
C784 C783 1.389 . S
C784 C785 1.387 . S
C785 H770 0.930 . S
C785 C780 1.390 . S
C785 C784 1.387 . S
H786 C798 0.930 . S
H787 C800 0.930 . S
H788 C801 0.930 . S
H789 C805 0.959 . S
H790 C805 0.959 . S
H791 C805 0.961 . S
H792 C806 0.960 . S
H793 C806 0.961 . S
H794 C806 0.959 . S
H795 C809 0.929 . S
H796 C810 0.931 . S
H797 C812 0.930 . S
C798 H786 0.930 . S
C798 C799 1.399 . S
C798 C803 1.399 . S
C799 C798 1.399 . S
C799 C800 1.376 . S
C800 H787 0.930 . S
C800 C799 1.376 . S
C800 C801 1.388 . S
C801 H788 0.930 . S
C801 C800 1.388 . S
C801 C802 1.390 . S
C802 C801 1.390 . S
C802 C803 1.394 . S
C802 C808 1.465 . S
C803 C798 1.399 . S
C803 C802 1.394 . S
C803 C804 1.516 . S
C804 C803 1.516 . S
C804 C805 1.502 . S
C804 C806 1.561 . S
C804 C807 1.526 . S
C805 H789 0.959 . S
C805 H790 0.959 . S
C805 H791 0.961 . S
C805 C804 1.502 . S
C806 H792 0.960 . S
C806 H793 0.961 . S
C806 H794 0.959 . S
C806 C804 1.561 . S
C807 C804 1.526 . S
C807 C808 1.396 . S
C807 C812 1.390 . S
C808 C802 1.465 . S
C808 C807 1.396 . S
C808 C809 1.399 . S
C809 H795 0.929 . S
C809 C808 1.399 . S
C809 C810 1.385 . S
C810 H796 0.931 . S
C810 C809 1.385 . S
C810 C811 1.389 . S
C811 C810 1.389 . S
C811 C812 1.387 . S
C812 H797 0.930 . S
C812 C807 1.390 . S
C812 C811 1.387 . S
H813 C825 0.930 . S
H814 C827 0.930 . S
H815 C828 0.930 . S
H816 C832 0.959 . S
H817 C832 0.959 . S
H818 C832 0.961 . S
H819 C833 0.960 . S
H820 C833 0.961 . S
H821 C833 0.959 . S
H822 C836 0.929 . S
H823 C837 0.931 . S
H824 C839 0.930 . S
C825 H813 0.930 . S
C825 C826 1.399 . S
C825 C830 1.399 . S
C826 C825 1.399 . S
C826 C827 1.376 . S
C827 H814 0.930 . S
C827 C826 1.376 . S
C827 C828 1.388 . S
C828 H815 0.930 . S
C828 C827 1.388 . S
C828 C829 1.390 . S
C829 C828 1.390 . S
C829 C830 1.394 . S
C829 C835 1.465 . S
C830 C825 1.399 . S
C830 C829 1.394 . S
C830 C831 1.516 . S
C831 C830 1.516 . S
C831 C832 1.502 . S
C831 C833 1.561 . S
C831 C834 1.526 . S
C832 H816 0.959 . S
C832 H817 0.959 . S
C832 H818 0.961 . S
C832 C831 1.502 . S
C833 H819 0.960 . S
C833 H820 0.961 . S
C833 H821 0.959 . S
C833 C831 1.561 . S
C834 C831 1.526 . S
C834 C835 1.396 . S
C834 C839 1.390 . S
C835 C829 1.465 . S
C835 C834 1.396 . S
C835 C836 1.399 . S
C836 H822 0.929 . S
C836 C835 1.399 . S
C836 C837 1.385 . S
C837 H823 0.931 . S
C837 C836 1.385 . S
C837 C838 1.389 . S
C838 C837 1.389 . S
C838 C839 1.387 . S
C839 H824 0.930 . S
C839 C834 1.390 . S
C839 C838 1.387 . S
H840 C852 0.930 . S
H841 C854 0.930 . S
H842 C855 0.930 . S
H843 C859 0.959 . S
H844 C859 0.959 . S
H845 C859 0.961 . S
H846 C860 0.960 . S
H847 C860 0.961 . S
H848 C860 0.959 . S
H849 C863 0.929 . S
H850 C864 0.931 . S
H851 C866 0.930 . S
C852 H840 0.930 . S
C852 C853 1.399 . S
C852 C857 1.399 . S
C853 C852 1.399 . S
C853 C854 1.376 . S
C854 H841 0.930 . S
C854 C853 1.376 . S
C854 C855 1.388 . S
C855 H842 0.930 . S
C855 C854 1.388 . S
C855 C856 1.390 . S
C856 C855 1.390 . S
C856 C857 1.394 . S
C856 C862 1.465 . S
C857 C852 1.399 . S
C857 C856 1.394 . S
C857 C858 1.516 . S
C858 C857 1.516 . S
C858 C859 1.502 . S
C858 C860 1.561 . S
C858 C861 1.526 . S
C859 H843 0.959 . S
C859 H844 0.959 . S
C859 H845 0.961 . S
C859 C858 1.502 . S
C860 H846 0.960 . S
C860 H847 0.961 . S
C860 H848 0.959 . S
C860 C858 1.561 . S
C861 C858 1.526 . S
C861 C862 1.396 . S
C861 C866 1.390 . S
C862 C856 1.465 . S
C862 C861 1.396 . S
C862 C863 1.399 . S
C863 H849 0.929 . S
C863 C862 1.399 . S
C863 C864 1.385 . S
C864 H850 0.931 . S
C864 C863 1.385 . S
C864 C865 1.389 . S
C865 C864 1.389 . S
C865 C866 1.387 . S
C866 H851 0.930 . S
C866 C861 1.390 . S
C866 C865 1.387 . S
H867 C879 0.930 . S
H868 C881 0.930 . S
H869 C882 0.930 . S
H870 C886 0.959 . S
H871 C886 0.959 . S
H872 C886 0.961 . S
H873 C887 0.960 . S
H874 C887 0.961 . S
H875 C887 0.959 . S
H876 C890 0.929 . S
H877 C891 0.931 . S
H878 C893 0.930 . S
C879 H867 0.930 . S
C879 C880 1.399 . S
C879 C884 1.399 . S
C880 C879 1.399 . S
C880 C881 1.376 . S
C881 H868 0.930 . S
C881 C880 1.376 . S
C881 C882 1.388 . S
C882 H869 0.930 . S
C882 C881 1.388 . S
C882 C883 1.390 . S
C883 C882 1.390 . S
C883 C884 1.394 . S
C883 C889 1.465 . S
C884 C879 1.399 . S
C884 C883 1.394 . S
C884 C885 1.516 . S
C885 C884 1.516 . S
C885 C886 1.502 . S
C885 C887 1.561 . S
C885 C888 1.526 . S
C886 H870 0.959 . S
C886 H871 0.959 . S
C886 H872 0.961 . S
C886 C885 1.502 . S
C887 H873 0.960 . S
C887 H874 0.961 . S
C887 H875 0.959 . S
C887 C885 1.561 . S
C888 C885 1.526 . S
C888 C889 1.396 . S
C888 C893 1.390 . S
C889 C883 1.465 . S
C889 C888 1.396 . S
C889 C890 1.399 . S
C890 H876 0.929 . S
C890 C889 1.399 . S
C890 C891 1.385 . S
C891 H877 0.931 . S
C891 C890 1.385 . S
C891 C892 1.389 . S
C892 C891 1.389 . S
C892 C893 1.387 . S
C893 H878 0.930 . S
C893 C888 1.390 . S
C893 C892 1.387 . S
H894 C906 0.930 . S
H895 C908 0.930 . S
H896 C909 0.930 . S
H897 C913 0.959 . S
H898 C913 0.959 . S
H899 C913 0.961 1_556 S
H900 C914 0.980 . S
H901 C914 0.943 1_554 S
H902 C914 0.958 . S
H903 C917 0.929 . S
H904 C918 0.931 . S
H905 C920 0.930 . S
C906 H894 0.930 . S
C906 C907 1.399 . S
C906 C911 1.399 . S
C907 C906 1.399 . S
C907 C908 1.376 . S
C908 H895 0.930 . S
C908 C907 1.376 . S
C908 C909 1.388 . S
C909 H896 0.930 . S
C909 C908 1.388 . S
C909 C910 1.390 . S
C910 C909 1.390 . S
C910 C911 1.394 . S
C910 C916 1.465 1_556 S
C911 C906 1.399 . S
C911 C910 1.394 . S
C911 C912 1.500 1_556 S
C912 C911 1.500 1_554 S
C912 C913 1.503 . S
C912 C914 1.560 1_554 S
C912 C915 1.542 . S
C913 H897 0.959 . S
C913 H898 0.959 . S
C913 H899 0.961 1_554 S
C913 C912 1.503 . S
C914 H900 0.980 . S
C914 H901 0.943 1_556 S
C914 H902 0.958 . S
C914 C912 1.560 1_556 S
C915 C912 1.542 . S
C915 C916 1.396 . S
C915 C920 1.390 . S
C916 C910 1.465 1_554 S
C916 C915 1.396 . S
C916 C917 1.399 . S
C917 H903 0.929 . S
C917 C916 1.399 . S
C917 C918 1.385 . S
C918 H904 0.931 . S
C918 C917 1.385 . S
C918 C919 1.389 . S
C919 C918 1.389 . S
C919 C920 1.387 . S
C920 H905 0.930 . S
C920 C915 1.390 . S
C920 C919 1.387 . S
H921 C933 0.930 . S
H922 C935 0.930 . S
H923 C936 0.930 . S
H924 C940 0.959 . S
H925 C940 0.959 . S
H926 C940 0.961 . S
H927 C941 0.960 . S
H928 C941 0.961 . S
H929 C941 0.959 . S
H930 C944 0.929 . S
H931 C945 0.931 . S
H932 C947 0.930 . S
C933 H921 0.930 . S
C933 C934 1.399 . S
C933 C938 1.399 . S
C934 C933 1.399 . S
C934 C935 1.376 . S
C935 H922 0.930 . S
C935 C934 1.376 . S
C935 C936 1.388 . S
C936 H923 0.930 . S
C936 C935 1.388 . S
C936 C937 1.390 . S
C937 C936 1.390 . S
C937 C938 1.394 . S
C937 C943 1.465 . S
C938 C933 1.399 . S
C938 C937 1.394 . S
C938 C939 1.516 . S
C939 C938 1.516 . S
C939 C940 1.502 . S
C939 C941 1.561 . S
C939 C942 1.526 . S
C940 H924 0.959 . S
C940 H925 0.959 . S
C940 H926 0.961 . S
C940 C939 1.502 . S
C941 H927 0.960 . S
C941 H928 0.961 . S
C941 H929 0.959 . S
C941 C939 1.561 . S
C942 C939 1.526 . S
C942 C943 1.396 . S
C942 C947 1.390 . S
C943 C937 1.465 . S
C943 C942 1.396 . S
C943 C944 1.399 . S
C944 H930 0.929 . S
C944 C943 1.399 . S
C944 C945 1.385 . S
C945 H931 0.931 . S
C945 C944 1.385 . S
C945 C946 1.389 . S
C946 C945 1.389 . S
C946 C947 1.387 . S
C947 H932 0.930 . S
C947 C942 1.390 . S
C947 C946 1.387 . S
H948 C960 0.930 . S
H949 C962 0.930 . S
H950 C963 0.930 . S
H951 C967 0.959 . S
H952 C967 0.959 . S
H953 C967 0.961 . S
H954 C968 0.960 . S
H955 C968 0.961 . S
H956 C968 0.959 . S
H957 C971 0.929 . S
H958 C972 0.931 . S
H959 C974 0.930 . S
C960 H948 0.930 . S
C960 C961 1.399 . S
C960 C965 1.399 . S
C961 C960 1.399 . S
C961 C962 1.376 . S
C962 H949 0.930 . S
C962 C961 1.376 . S
C962 C963 1.388 . S
C963 H950 0.930 . S
C963 C962 1.388 . S
C963 C964 1.390 . S
C964 C963 1.390 . S
C964 C965 1.394 . S
C964 C970 1.465 . S
C965 C960 1.399 . S
C965 C964 1.394 . S
C965 C966 1.516 . S
C966 C965 1.516 . S
C966 C967 1.502 . S
C966 C968 1.561 . S
C966 C969 1.526 . S
C967 H951 0.959 . S
C967 H952 0.959 . S
C967 H953 0.961 . S
C967 C966 1.502 . S
C968 H954 0.960 . S
C968 H955 0.961 . S
C968 H956 0.959 . S
C968 C966 1.561 . S
C969 C966 1.526 . S
C969 C970 1.396 . S
C969 C974 1.390 . S
C970 C964 1.465 . S
C970 C969 1.396 . S
C970 C971 1.399 . S
C971 H957 0.929 . S
C971 C970 1.399 . S
C971 C972 1.385 . S
C972 H958 0.931 . S
C972 C971 1.385 . S
C972 C973 1.389 . S
C973 C972 1.389 . S
C973 C974 1.387 . S
C974 H959 0.930 . S
C974 C969 1.390 . S
C974 C973 1.387 . S
H975 C987 0.930 . S
H976 C989 0.930 . S
H977 C990 0.930 . S
H978 C994 0.963 . S
H979 C994 0.959 1_554 S
H980 C994 0.961 . S
H981 C995 0.955 . S
H982 C995 0.965 1_554 S
H983 C995 0.960 1_554 S
H984 C998 0.929 . S
H985 C999 0.931 . S
H986 C1001 0.930 . S
C987 H975 0.930 . S
C987 C988 1.399 . S
C987 C992 1.399 . S
C988 C987 1.399 . S
C988 C989 1.376 . S
C989 H976 0.930 . S
C989 C988 1.376 . S
C989 C990 1.388 . S
C990 H977 0.930 . S
C990 C989 1.388 . S
C990 C991 1.390 . S
C991 C990 1.390 . S
C991 C992 1.394 . S
C991 C997 1.465 1_556 S
C992 C987 1.399 . S
C992 C991 1.394 . S
C992 C993 1.545 . S
C993 C992 1.545 . S
C993 C994 1.504 . S
C993 C995 1.561 . S
C993 C996 1.496 1_556 S
C994 H978 0.963 . S
C994 H979 0.959 1_556 S
C994 H980 0.961 . S
C994 C993 1.504 . S
C995 H981 0.955 . S
C995 H982 0.965 1_556 S
C995 H983 0.960 1_556 S
C995 C993 1.561 . S
C996 C993 1.496 1_554 S
C996 C997 1.396 . S
C996 C1001 1.390 . S
C997 C991 1.465 1_554 S
C997 C996 1.396 . S
C997 C998 1.399 . S
C998 H984 0.929 . S
C998 C997 1.399 . S
C998 C999 1.385 . S
C999 H985 0.931 . S
C999 C998 1.385 . S
C999 C1000 1.389 . S
C1000 C999 1.389 . S
C1000 C1001 1.387 . S
C1001 H986 0.930 . S
C1001 C996 1.390 . S
C1001 C1000 1.387 . S
H1002 C1014 0.930 . S
H1003 C1016 0.930 . S
H1004 C1017 0.930 . S
H1005 C1021 0.959 . S
H1006 C1021 0.959 . S
H1007 C1021 0.961 . S
H1008 C1022 0.960 . S
H1009 C1022 0.961 . S
H1010 C1022 0.959 . S
H1011 C1025 0.929 . S
H1012 C1026 0.931 . S
H1013 C1028 0.930 . S
C1014 H1002 0.930 . S
C1014 C1015 1.399 . S
C1014 C1019 1.399 . S
C1015 C1014 1.399 . S
C1015 C1016 1.376 . S
C1016 H1003 0.930 . S
C1016 C1015 1.376 . S
C1016 C1017 1.388 . S
C1017 H1004 0.930 . S
C1017 C1016 1.388 . S
C1017 C1018 1.390 . S
C1018 C1017 1.390 . S
C1018 C1019 1.394 . S
C1018 C1024 1.465 . S
C1019 C1014 1.399 . S
C1019 C1018 1.394 . S
C1019 C1020 1.516 . S
C1020 C1019 1.516 . S
C1020 C1021 1.502 . S
C1020 C1022 1.561 . S
C1020 C1023 1.526 . S
C1021 H1005 0.959 . S
C1021 H1006 0.959 . S
C1021 H1007 0.961 . S
C1021 C1020 1.502 . S
C1022 H1008 0.960 . S
C1022 H1009 0.961 . S
C1022 H1010 0.959 . S
C1022 C1020 1.561 . S
C1023 C1020 1.526 . S
C1023 C1024 1.396 . S
C1023 C1028 1.390 . S
C1024 C1018 1.465 . S
C1024 C1023 1.396 . S
C1024 C1025 1.399 . S
C1025 H1011 0.929 . S
C1025 C1024 1.399 . S
C1025 C1026 1.385 . S
C1026 H1012 0.931 . S
C1026 C1025 1.385 . S
C1026 C1027 1.389 . S
C1027 C1026 1.389 . S
C1027 C1028 1.387 . S
C1028 H1013 0.930 . S
C1028 C1023 1.390 . S
C1028 C1027 1.387 . S
H1029 C1041 0.930 . S
H1030 C1043 0.930 . S
H1031 C1044 0.930 . S
H1032 C1048 0.959 . S
H1033 C1048 0.959 . S
H1034 C1048 0.961 . S
H1035 C1049 0.960 . S
H1036 C1049 0.961 . S
H1037 C1049 0.959 . S
H1038 C1052 0.929 . S
H1039 C1053 0.931 . S
H1040 C1055 0.930 . S
C1041 H1029 0.930 . S
C1041 C1042 1.399 . S
C1041 C1046 1.399 . S
C1042 C1041 1.399 . S
C1042 C1043 1.376 . S
C1043 H1030 0.930 . S
C1043 C1042 1.376 . S
C1043 C1044 1.388 . S
C1044 H1031 0.930 . S
C1044 C1043 1.388 . S
C1044 C1045 1.390 . S
C1045 C1044 1.390 . S
C1045 C1046 1.394 . S
C1045 C1051 1.465 . S
C1046 C1041 1.399 . S
C1046 C1045 1.394 . S
C1046 C1047 1.516 . S
C1047 C1046 1.516 . S
C1047 C1048 1.502 . S
C1047 C1049 1.561 . S
C1047 C1050 1.526 . S
C1048 H1032 0.959 . S
C1048 H1033 0.959 . S
C1048 H1034 0.961 . S
C1048 C1047 1.502 . S
C1049 H1035 0.960 . S
C1049 H1036 0.961 . S
C1049 H1037 0.959 . S
C1049 C1047 1.561 . S
C1050 C1047 1.526 . S
C1050 C1051 1.396 . S
C1050 C1055 1.390 . S
C1051 C1045 1.465 . S
C1051 C1050 1.396 . S
C1051 C1052 1.399 . S
C1052 H1038 0.929 . S
C1052 C1051 1.399 . S
C1052 C1053 1.385 . S
C1053 H1039 0.931 . S
C1053 C1052 1.385 . S
C1053 C1054 1.389 . S
C1054 C1053 1.389 . S
C1054 C1055 1.387 . S
C1055 H1040 0.930 . S
C1055 C1050 1.390 . S
C1055 C1054 1.387 . S
H1056 C1068 0.930 . S
H1057 C1070 0.930 . S
H1058 C1071 0.930 . S
H1059 C1075 0.959 . S
H1060 C1075 0.959 . S
H1061 C1075 0.961 . S
H1062 C1076 0.960 . S
H1063 C1076 0.961 . S
H1064 C1076 0.959 . S
H1065 C1079 0.929 . S
H1066 C1080 0.931 . S
H1067 C1082 0.930 . S
C1068 H1056 0.930 . S
C1068 C1069 1.399 . S
C1068 C1073 1.399 . S
C1069 C1068 1.399 . S
C1069 C1070 1.376 . S
C1070 H1057 0.930 . S
C1070 C1069 1.376 . S
C1070 C1071 1.388 . S
C1071 H1058 0.930 . S
C1071 C1070 1.388 . S
C1071 C1072 1.390 . S
C1072 C1071 1.390 . S
C1072 C1073 1.394 . S
C1072 C1078 1.465 1_655 S
C1073 C1068 1.399 . S
C1073 C1072 1.394 . S
C1073 C1074 1.516 1_655 S
C1074 C1073 1.516 1_455 S
C1074 C1075 1.502 . S
C1074 C1076 1.561 . S
C1074 C1077 1.526 . S
C1075 H1059 0.959 . S
C1075 H1060 0.959 . S
C1075 H1061 0.961 . S
C1075 C1074 1.502 . S
C1076 H1062 0.960 . S
C1076 H1063 0.961 . S
C1076 H1064 0.959 . S
C1076 C1074 1.561 . S
C1077 C1074 1.526 . S
C1077 C1078 1.396 . S
C1077 C1082 1.390 . S
C1078 C1072 1.465 1_455 S
C1078 C1077 1.396 . S
C1078 C1079 1.399 . S
C1079 H1065 0.929 . S
C1079 C1078 1.399 . S
C1079 C1080 1.385 . S
C1080 H1066 0.931 . S
C1080 C1079 1.385 . S
C1080 C1081 1.389 . S
C1081 C1080 1.389 . S
C1081 C1082 1.387 . S
C1082 H1067 0.930 . S
C1082 C1077 1.390 . S
C1082 C1081 1.387 . S
H1083 C1095 0.930 . S
H1084 C1097 0.930 . S
H1085 C1098 0.930 1_545 S
H1086 C1102 0.959 . S
H1087 C1102 0.959 . S
H1088 C1102 0.961 . S
H1089 C1103 0.960 . S
H1090 C1103 0.961 . S
H1091 C1103 0.959 . S
H1092 C1106 0.929 . S
H1093 C1107 0.931 . S
H1094 C1109 0.930 . S
C1095 H1083 0.930 . S
C1095 C1096 1.399 . S
C1095 C1100 1.399 . S
C1096 C1095 1.399 . S
C1096 C1097 1.376 . S
C1097 H1084 0.930 . S
C1097 C1096 1.376 . S
C1097 C1098 1.388 . S
C1098 H1085 0.930 1_565 S
C1098 C1097 1.388 . S
C1098 C1099 1.390 . S
C1099 C1098 1.390 . S
C1099 C1100 1.394 . S
C1099 C1105 1.465 1_565 S
C1100 C1095 1.399 . S
C1100 C1099 1.394 . S
C1100 C1101 1.516 . S
C1101 C1100 1.516 . S
C1101 C1102 1.502 . S
C1101 C1103 1.561 . S
C1101 C1104 1.526 1_565 S
C1102 H1086 0.959 . S
C1102 H1087 0.959 . S
C1102 H1088 0.961 . S
C1102 C1101 1.502 . S
C1103 H1089 0.960 . S
C1103 H1090 0.961 . S
C1103 H1091 0.959 . S
C1103 C1101 1.561 . S
C1104 C1101 1.526 1_545 S
C1104 C1105 1.396 . S
C1104 C1109 1.390 . S
C1105 C1099 1.465 1_545 S
C1105 C1104 1.396 . S
C1105 C1106 1.399 . S
C1106 H1092 0.929 . S
C1106 C1105 1.399 . S
C1106 C1107 1.385 . S
C1107 H1093 0.931 . S
C1107 C1106 1.385 . S
C1107 C1108 1.389 . S
C1108 C1107 1.389 . S
C1108 C1109 1.387 . S
C1109 H1094 0.930 . S
C1109 C1104 1.390 . S
C1109 C1108 1.387 . S
H1110 C1122 0.930 . S
H1111 C1124 0.930 . S
H1112 C1125 0.930 . S
H1113 C1129 0.959 . S
H1114 C1129 0.959 . S
H1115 C1129 0.961 . S
H1116 C1130 0.960 . S
H1117 C1130 0.961 . S
H1118 C1130 0.959 . S
H1119 C1133 0.929 . S
H1120 C1134 0.931 . S
H1121 C1136 0.930 . S
C1122 H1110 0.930 . S
C1122 C1123 1.399 . S
C1122 C1127 1.399 . S
C1123 C1122 1.399 . S
C1123 C1124 1.376 . S
C1124 H1111 0.930 . S
C1124 C1123 1.376 . S
C1124 C1125 1.388 . S
C1125 H1112 0.930 . S
C1125 C1124 1.388 . S
C1125 C1126 1.390 . S
C1126 C1125 1.390 . S
C1126 C1127 1.394 . S
C1126 C1132 1.465 . S
C1127 C1122 1.399 . S
C1127 C1126 1.394 . S
C1127 C1128 1.516 . S
C1128 C1127 1.516 . S
C1128 C1129 1.502 . S
C1128 C1130 1.561 . S
C1128 C1131 1.526 . S
C1129 H1113 0.959 . S
C1129 H1114 0.959 . S
C1129 H1115 0.961 . S
C1129 C1128 1.502 . S
C1130 H1116 0.960 . S
C1130 H1117 0.961 . S
C1130 H1118 0.959 . S
C1130 C1128 1.561 . S
C1131 C1128 1.526 . S
C1131 C1132 1.396 . S
C1131 C1136 1.390 . S
C1132 C1126 1.465 . S
C1132 C1131 1.396 . S
C1132 C1133 1.399 . S
C1133 H1119 0.929 . S
C1133 C1132 1.399 . S
C1133 C1134 1.385 . S
C1134 H1120 0.931 . S
C1134 C1133 1.385 . S
C1134 C1135 1.389 . S
C1135 C1134 1.389 . S
C1135 C1136 1.387 . S
C1136 H1121 0.930 . S
C1136 C1131 1.390 . S
C1136 C1135 1.387 . S
H1137 C1149 0.930 . S
H1138 C1151 0.930 . S
H1139 C1152 0.930 . S
H1140 C1156 0.959 . S
H1141 C1156 0.959 . S
H1142 C1156 0.961 . S
H1143 C1157 0.960 . S
H1144 C1157 0.961 . S
H1145 C1157 0.959 . S
H1146 C1160 0.929 . S
H1147 C1161 0.931 . S
H1148 C1163 0.930 . S
C1149 H1137 0.930 . S
C1149 C1150 1.399 . S
C1149 C1154 1.399 . S
C1150 C1149 1.399 . S
C1150 C1151 1.376 . S
C1151 H1138 0.930 . S
C1151 C1150 1.376 . S
C1151 C1152 1.388 . S
C1152 H1139 0.930 . S
C1152 C1151 1.388 . S
C1152 C1153 1.390 . S
C1153 C1152 1.390 . S
C1153 C1154 1.394 . S
C1153 C1159 1.465 1_455 S
C1154 C1149 1.399 . S
C1154 C1153 1.394 . S
C1154 C1155 1.516 . S
C1155 C1154 1.516 . S
C1155 C1156 1.502 . S
C1155 C1157 1.561 . S
C1155 C1158 1.526 1_455 S
C1156 H1140 0.959 . S
C1156 H1141 0.959 . S
C1156 H1142 0.961 . S
C1156 C1155 1.502 . S
C1157 H1143 0.960 . S
C1157 H1144 0.961 . S
C1157 H1145 0.959 . S
C1157 C1155 1.561 . S
C1158 C1155 1.526 1_655 S
C1158 C1159 1.396 . S
C1158 C1163 1.390 . S
C1159 C1153 1.465 1_655 S
C1159 C1158 1.396 . S
C1159 C1160 1.399 . S
C1160 H1146 0.929 . S
C1160 C1159 1.399 . S
C1160 C1161 1.385 . S
C1161 H1147 0.931 . S
C1161 C1160 1.385 . S
C1161 C1162 1.389 . S
C1162 C1161 1.389 . S
C1162 C1163 1.387 . S
C1163 H1148 0.930 . S
C1163 C1158 1.390 . S
C1163 C1162 1.387 . S
H1164 C1176 0.930 . S
H1165 C1178 0.930 . S
H1166 C1179 0.930 . S
H1167 C1183 0.959 . S
H1168 C1183 0.959 . S
H1169 C1183 0.961 . S
H1170 C1184 0.960 . S
H1171 C1184 0.961 . S
H1172 C1184 0.959 . S
H1173 C1187 0.929 1_545 S
H1174 C1188 0.931 . S
H1175 C1190 0.930 . S
C1176 H1164 0.930 . S
C1176 C1177 1.399 . S
C1176 C1181 1.399 . S
C1177 C1176 1.399 . S
C1177 C1178 1.376 . S
C1178 H1165 0.930 . S
C1178 C1177 1.376 . S
C1178 C1179 1.388 . S
C1179 H1166 0.930 . S
C1179 C1178 1.388 . S
C1179 C1180 1.390 . S
C1180 C1179 1.390 . S
C1180 C1181 1.394 . S
C1180 C1186 1.465 1_545 S
C1181 C1176 1.399 . S
C1181 C1180 1.394 . S
C1181 C1182 1.516 1_545 S
C1182 C1181 1.516 1_565 S
C1182 C1183 1.502 . S
C1182 C1184 1.561 . S
C1182 C1185 1.526 . S
C1183 H1167 0.959 . S
C1183 H1168 0.959 . S
C1183 H1169 0.961 . S
C1183 C1182 1.502 . S
C1184 H1170 0.960 . S
C1184 H1171 0.961 . S
C1184 H1172 0.959 . S
C1184 C1182 1.561 . S
C1185 C1182 1.526 . S
C1185 C1186 1.396 . S
C1185 C1190 1.390 . S
C1186 C1180 1.465 1_565 S
C1186 C1185 1.396 . S
C1186 C1187 1.399 . S
C1187 H1173 0.929 1_565 S
C1187 C1186 1.399 . S
C1187 C1188 1.385 . S
C1188 H1174 0.931 . S
C1188 C1187 1.385 . S
C1188 C1189 1.389 . S
C1189 C1188 1.389 . S
C1189 C1190 1.387 . S
C1190 H1175 0.930 . S
C1190 C1185 1.390 . S
C1190 C1189 1.387 . S
H1191 C1203 0.930 . S
H1192 C1205 0.930 . S
H1193 C1206 0.930 . S
H1194 C1210 0.959 . S
H1195 C1210 0.959 . S
H1196 C1210 0.961 . S
H1197 C1211 0.960 . S
H1198 C1211 0.961 . S
H1199 C1211 0.959 . S
H1200 C1214 0.929 . S
H1201 C1215 0.931 . S
H1202 C1217 0.930 . S
C1203 H1191 0.930 . S
C1203 C1204 1.399 . S
C1203 C1208 1.399 . S
C1204 C1203 1.399 . S
C1204 C1205 1.376 . S
C1205 H1192 0.930 . S
C1205 C1204 1.376 . S
C1205 C1206 1.388 . S
C1206 H1193 0.930 . S
C1206 C1205 1.388 . S
C1206 C1207 1.390 . S
C1207 C1206 1.390 . S
C1207 C1208 1.394 . S
C1207 C1213 1.465 . S
C1208 C1203 1.399 . S
C1208 C1207 1.394 . S
C1208 C1209 1.516 . S
C1209 C1208 1.516 . S
C1209 C1210 1.502 . S
C1209 C1211 1.561 . S
C1209 C1212 1.526 . S
C1210 H1194 0.959 . S
C1210 H1195 0.959 . S
C1210 H1196 0.961 . S
C1210 C1209 1.502 . S
C1211 H1197 0.960 . S
C1211 H1198 0.961 . S
C1211 H1199 0.959 . S
C1211 C1209 1.561 . S
C1212 C1209 1.526 . S
C1212 C1213 1.396 . S
C1212 C1217 1.390 . S
C1213 C1207 1.465 . S
C1213 C1212 1.396 . S
C1213 C1214 1.399 . S
C1214 H1200 0.929 . S
C1214 C1213 1.399 . S
C1214 C1215 1.385 . S
C1215 H1201 0.931 . S
C1215 C1214 1.385 . S
C1215 C1216 1.389 . S
C1216 C1215 1.389 . S
C1216 C1217 1.387 . S
C1217 H1202 0.930 . S
C1217 C1212 1.390 . S
C1217 C1216 1.387 . S
C421 C111 1.470 . S
C433 C9 1.482 . S
C448 C145 1.479 . S
C460 C43 1.473 . S
C475 C179 1.469 . S
C487 C77 1.478 . S
C502 C213 1.470 . S
C514 C315 1.478 . S
C529 C247 1.470 . S
C541 C349 1.478 . S
C556 C281 1.481 . S
C568 C383 1.471 . S
C583 C107 0.587 . S
C595 C5 0.426 . S
C610 C39 0.569 . S
C622 C141 0.443 . S
C637 C175 0.481 . S
C649 C73 0.588 . S
C664 C209 0.486 . S
C676 C311 0.585 . S
C691 C345 0.584 . S
C703 C243 0.429 . S
C718 C277 0.485 . S
C730 C379 0.585 . S
C745 C274 1.437 . S
C757 C2 1.415 . S
C772 C36 1.362 . S
C784 C308 1.386 . S
C799 C70 1.435 . S
C811 C342 1.423 . S
C826 C104 1.398 . S
C838 C376 1.365 . S
C853 C138 1.363 . S
C865 C206 1.380 . S
C880 C240 1.387 . S
C892 C172 1.428 . S
C907 C360 1.667 . S
C919 C20 1.658 . S
C934 C394 1.643 . S
C946 C54 1.659 . S
C961 C224 1.658 . S
C973 C88 1.668 . S
C988 C258 1.631 . S
C1000 C122 1.645 . S
C1015 C156 1.635 . S
C1027 C292 1.630 . S
C1042 C190 1.649 . S
C1054 C326 1.635 . S
C1069 C407 1.257 . S
C1081 C33 1.241 . S
C1096 C237 1.184 . S
C1108 C67 1.217 . S
C1123 C101 1.175 . S
C1135 C271 1.163 . S
C1150 C305 1.162 . S
C1162 C135 1.178 . S
C1177 C339 1.240 . S
C1189 C169 1.209 . S
C1204 C373 1.244 . S
C1216 C203 1.215 . S
