# Generated by pormake.
# Topology sxa, (6)-cn, num edge types: 1
# Building blocks:
#     Node 0, Type 0, BuildingBlock: BETDEL_clean_sbu_0, # of connection points: 6
#     Node 1, Type 0, BuildingBlock: BETDEL_clean_sbu_0, # of connection points: 6
#     Node 2, Type 0, BuildingBlock: BETDEL_clean_sbu_0, # of connection points: 6
#     Node 3, Type 0, BuildingBlock: BETDEL_clean_sbu_0, # of connection points: 6
#     Edge 4, Type (0, 0), BuildingBlock: FUNLAD_clean_linker_1, # of connection points: 2
#     Edge 5, Type (0, 0), BuildingBlock: FUNLAD_clean_linker_1, # of connection points: 2
#     Edge 6, Type (0, 0), BuildingBlock: FUNLAD_clean_linker_1, # of connection points: 2
#     Edge 7, Type (0, 0), BuildingBlock: FUNLAD_clean_linker_1, # of connection points: 2
#     Edge 8, Type (0, 0), BuildingBlock: FUNLAD_clean_linker_1, # of connection points: 2
#     Edge 9, Type (0, 0), BuildingBlock: FUNLAD_clean_linker_1, # of connection points: 2
#     Edge 10, Type (0, 0), BuildingBlock: FUNLAD_clean_linker_1, # of connection points: 2
#     Edge 11, Type (0, 0), BuildingBlock: FUNLAD_clean_linker_1, # of connection points: 2
#     Edge 12, Type (0, 0), BuildingBlock: FUNLAD_clean_linker_1, # of connection points: 2
#     Edge 13, Type (0, 0), BuildingBlock: FUNLAD_clean_linker_1, # of connection points: 2
#     Edge 14, Type (0, 0), BuildingBlock: FUNLAD_clean_linker_1, # of connection points: 2
#     Edge 15, Type (0, 0), BuildingBlock: FUNLAD_clean_linker_1, # of connection points: 2
# Relax obj value: 0.078
# Max RMSD: 0.218
# Mean RMSD: 0.218
data_MOF--net-sxa--node1-BETDEL_clean_sbu_0--edge1-FUNLAD_clean_linker_1
_symmetry_space_group_name_H-M    P1
_symmetry_Int_Tables_number       1
_symmetry_cell_setting            triclinic
loop_
_symmetry_equiv_pos_as_xyz
'x, y, z'
_cell_length_a     29.889399
_cell_length_b     28.465062
_cell_length_c     13.515095
_cell_angle_alpha  91.68474
_cell_angle_beta   90.354594
_cell_angle_gamma 90.593905
loop_
_atom_site_label
_atom_site_type_symbol
_atom_site_fract_x
_atom_site_fract_y
_atom_site_fract_z
_atom_type_partial_charge
Dy0 Dy 0.04495 0.81245 0.08298 0.0
C1 C 0.91941 0.75889 0.39711 0.0
C2 C 0.11465 0.85588 -0.00692 0.0
Dy3 Dy 0.98229 0.78942 0.26649 0.0
O4 O 0.0878 0.82533 0.94949 0.0
O5 O 0.10028 0.86548 0.08152 0.0
O6 O 0.05443 0.73885 0.02247 0.0
O7 O 0.01773 0.75061 0.15082 0.0
C8 C 0.0313 0.71887 0.09101 0.0
C9 C 0.98211 0.87882 0.2031 0.0
O10 O 0.04916 0.78514 0.34309 0.0
O11 O 0.09393 0.79965 0.20542 0.0
O12 O 0.93573 0.80133 0.39508 0.0
O13 O 0.9399 0.73215 0.33246 0.0
O14 O 0.94799 0.8586 0.24292 0.0
O15 O 1.01501 0.85154 0.20565 0.0
O16 O 0.97618 0.82268 0.01809 0.0
O17 O 0.94286 0.77259 0.13042 0.0
C18 C 0.08887 0.79086 0.30062 0.0
C19 C 0.94136 0.79779 0.04969 0.0
Dy20 Dy 0.55856 0.28119 0.08732 0.0
C21 C 0.4178 0.28297 0.37164 0.0
C22 C 0.62462 0.28375 0.94882 0.0
Dy23 Dy 0.48842 0.28833 0.24222 0.0
O24 O 0.59774 0.24859 0.96241 0.0
O25 O 0.61278 0.31894 0.00576 0.0
O26 O 0.5791 0.21229 0.14621 0.0
O27 O 0.51155 0.22873 0.14847 0.0
C28 C 0.53943 0.19707 0.16724 0.0
C29 C 0.50787 0.37033 0.15468 0.0
O30 O 0.55035 0.28675 0.34082 0.0
O31 O 0.60208 0.29982 0.21697 0.0
O32 O 0.45769 0.26677 0.38836 0.0
O33 O 0.41721 0.30237 0.28635 0.0
O34 O 0.46849 0.35937 0.18612 0.0
O35 O 0.53508 0.33944 0.17932 0.0
O36 O 0.49632 0.29268 -0.0035 0.0
O37 O 0.45441 0.25441 0.111 0.0
C38 C 0.592 0.29503 0.31101 0.0
C39 C 0.45866 0.27162 0.02183 0.0
Dy40 Dy 0.05648 0.28212 0.89163 0.0
C41 C 0.91618 0.27375 0.59655 0.0
C42 C 0.12428 0.26478 0.0208 0.0
Dy43 Dy 0.98556 0.27557 0.73152 0.0
O44 O 0.11244 0.30605 0.99268 0.0
O45 O 0.09655 0.23335 0.98443 0.0
O46 O 0.07508 0.35449 0.84911 0.0
O47 O 1.00819 0.33318 0.83389 0.0
C48 C 0.03532 0.36709 0.82231 0.0
C49 C 1.00554 0.19459 0.82006 0.0
O50 O 0.04713 0.28839 0.63807 0.0
O51 O 0.09848 0.26881 0.75861 0.0
O52 O 0.94151 0.23868 0.61726 0.0
O53 O 0.93051 0.31116 0.6451 0.0
O54 O 0.96545 0.20565 0.79363 0.0
O55 O 0.03265 0.22591 0.79413 0.0
O56 O 0.99537 0.27772 0.9882 0.0
O57 O 0.94478 0.29497 0.86325 0.0
C58 C 0.08883 0.27954 0.66657 0.0
C59 C 0.95443 0.28758 0.95708 0.0
Dy60 Dy 0.54723 0.75675 0.89026 0.0
C61 C 0.42257 0.79894 0.56856 0.0
C62 C 0.60911 0.71847 0.01201 0.0
Dy63 Dy 0.48495 0.77464 0.70693 0.0
O64 O 0.57902 0.74853 0.0401 0.0
O65 O 0.60237 0.70671 0.91968 0.0
O66 O 0.56336 0.83099 0.93812 0.0
O67 O 0.52239 0.81822 0.81488 0.0
C68 C 0.5394 0.85033 0.8705 0.0
C69 C 0.48388 0.68625 0.77744 0.0
O70 O 0.55248 0.78623 0.63671 0.0
O71 O 0.59676 0.75936 0.76636 0.0
O72 O 0.45826 0.77444 0.54933 0.0
O73 O 0.42283 0.81228 0.66113 0.0
O74 O 0.45027 0.7049 0.73362 0.0
O75 O 0.51677 0.71377 0.77282 0.0
O76 O 0.4782 0.75152 0.95525 0.0
O77 O 0.44792 0.80042 0.83888 0.0
C78 C 0.59178 0.77391 0.67464 0.0
C79 C 0.44566 0.77908 0.92435 0.0
H80 H 0.99303 0.43006 0.79918 0.0
C81 C 0.02171 0.4168 0.83894 0.0
H82 H 0.07172 0.43012 0.94703 0.0
H83 H 0.10238 0.64394 0.94651 0.0
H84 H 0.16934 0.61587 0.86549 0.0
H85 H 0.17546 0.53305 0.80879 0.0
H86 H 0.11481 0.47773 0.83394 0.0
C87 C 0.04356 0.44446 0.90699 0.0
C88 C 0.03519 0.49576 0.92602 0.0
C89 C 0.07042 0.52823 0.90844 0.0
C90 C 0.06628 0.57637 0.93826 0.0
C91 C 0.10294 0.60732 0.92274 0.0
C92 C 0.14181 0.59164 0.8768 0.0
C93 C 0.14531 0.54501 0.84521 0.0
C94 C 0.11024 0.51355 0.86065 0.0
H95 H 1.01516 0.64926 0.15511 0.0
C96 C 0.01985 0.66797 0.08705 0.0
H97 H 0.0254 0.66518 0.93208 0.0
H98 H 0.96265 0.44302 0.97954 0.0
H99 H 0.89457 0.47174 0.05581 0.0
H100 H 0.88534 0.55615 0.09637 0.0
H101 H 0.94464 0.61234 0.06299 0.0
C102 C 0.02083 0.64481 -0.0018 0.0
C103 C 0.02629 0.59284 0.98312 0.0
C104 C 0.99085 0.56057 0.00019 0.0
C105 C 0.99559 0.51188 0.97323 0.0
C106 C 0.96043 0.48035 -0.00442 0.0
C107 C 0.9212 0.49638 0.03968 0.0
C108 C 0.91603 0.54392 0.06272 0.0
C109 C 0.95033 0.5758 0.04331 0.0
H110 H 0.55515 0.42207 0.09284 0.0
C111 C 0.51996 0.41427 0.10461 0.0
H112 H 0.4535 0.43619 0.08571 0.0
H113 H 0.48355 0.65178 0.0345 0.0
H114 H 0.4474 0.65034 0.19439 0.0
H115 H 0.43508 0.57555 0.27823 0.0
H116 H 0.45892 0.50174 0.20285 0.0
C117 C 0.48858 0.44385 0.0719 0.0
C118 C 0.49953 0.48924 0.02312 0.0
C119 C 0.48524 0.5323 0.06781 0.0
C120 C 0.49202 0.57555 0.01906 0.0
C121 C 0.47827 0.61789 0.06689 0.0
C122 C 0.45775 0.61762 0.1591 0.0
C123 C 0.45084 0.57551 0.20631 0.0
C124 C 0.4645 0.53332 0.16185 0.0
H125 H 0.4486 0.62572 0.83986 0.0
C126 C 0.48143 0.64185 0.83168 0.0
H127 H 0.55064 0.63524 0.85887 0.0
H128 H 0.52883 0.41351 0.91155 0.0
H129 H 0.56723 0.41574 0.75477 0.0
H130 H 0.58166 0.491 0.67436 0.0
H131 H 0.55727 0.5646 0.75017 0.0
C132 C 0.51738 0.62088 0.87053 0.0
C133 C 0.51281 0.57594 0.92498 0.0
C134 C 0.52862 0.53324 0.88188 0.0
C135 C 0.52134 0.4898 0.92988 0.0
C136 C 0.53499 0.44763 0.88119 0.0
C137 C 0.55675 0.44834 0.79038 0.0
C138 C 0.5648 0.49071 0.745 0.0
C139 C 0.5507 0.53271 0.78947 0.0
H140 H 0.52536 0.92058 0.80791 0.0
C141 C 0.52852 0.90109 0.87539 0.0
H142 H 0.53088 0.90181 0.03083 0.0
H143 H 0.62107 0.08821 0.15246 0.0
H144 H 0.68066 1.03299 0.17978 0.0
H145 H 0.67449 0.95103 0.11641 0.0
H146 H 0.60864 0.92376 0.02591 0.0
C147 C 0.52797 0.92308 0.96554 0.0
C148 C 0.53387 0.97485 0.98476 0.0
C149 C 0.57321 0.99087 0.03545 0.0
C150 C 0.57733 0.0385 0.06978 0.0
C151 C 0.61652 0.05277 0.12268 0.0
C152 C 0.65098 1.02137 0.13936 0.0
C153 C 0.64746 0.97522 0.10394 0.0
C154 C 0.60922 0.95998 0.05257 0.0
H155 H 0.49956 0.13117 0.18372 0.0
C156 C 0.52809 0.14674 0.1471 0.0
H157 H 0.57859 0.13827 0.03998 0.0
H158 H 0.45377 0.95621 0.89275 0.0
H159 H 0.39577 1.01254 0.85736 0.0
H160 H 0.40468 0.09606 0.90837 0.0
H161 H 0.47135 0.12383 -0.00401 0.0
C162 C 0.55068 0.12177 0.07733 0.0
C163 C 0.54263 0.07082 0.0517 0.0
C164 C 0.50375 0.05525 -0.00144 0.0
C165 C 0.49912 1.0071 0.96632 0.0
C166 C 0.4594 0.99238 0.91666 0.0
C167 C 0.42585 1.02436 0.89602 0.0
C168 C 0.43082 0.07139 0.92496 0.0
C169 C 0.46924 0.08686 0.97555 0.0
H170 H 0.94608 0.93836 0.14107 0.0
C171 C 0.97928 0.92407 0.15177 0.0
H172 H 0.04834 0.93449 0.13005 0.0
H173 H 0.02819 0.07015 0.76951 0.0
H174 H 0.06335 1.00223 0.69218 0.0
H175 H 0.07385 0.92955 0.78417 0.0
H176 H 0.04909 0.9244 0.9539 0.0
C177 C 1.01503 0.94847 0.12035 0.0
C178 C 1.01003 0.99365 0.06653 0.0
C179 C 0.02469 0.99648 0.96705 0.0
C180 C 0.01854 0.03854 0.91376 0.0
C181 C 0.03259 0.03956 0.81396 0.0
C182 C 0.05265 1.0007 0.76842 0.0
C183 C 0.05858 0.95978 0.82019 0.0
C184 C 0.04451 0.95739 0.91795 0.0
H185 H 0.05273 0.14608 0.89112 0.0
C186 C 0.0177 0.15184 0.87381 0.0
H187 H 0.95135 0.12719 0.88753 0.0
H188 H 0.98476 1.0039 0.26053 0.0
H189 H 0.94969 0.07189 0.33774 0.0
H190 H 0.9357 0.1431 0.2431 0.0
H191 H 0.9574 0.14704 0.07097 0.0
C192 C 0.9865 0.12049 0.90183 0.0
C193 C 0.9975 0.07793 0.95967 0.0
C194 C 0.98375 0.07552 0.05972 0.0
C195 C 0.99071 0.03383 0.11366 0.0
C196 C 0.97865 0.03373 0.21483 0.0
C197 C 0.95886 0.07275 0.26044 0.0
C198 C 0.95105 0.11288 0.20722 0.0
C199 C 0.9635 0.11456 0.10827 0.0
H200 H 0.38742 0.80025 0.42313 0.0
C201 C 0.38287 0.80173 0.50281 0.0
H202 H 0.3378 0.80148 0.62169 0.0
H203 H 0.16035 0.87139 0.43841 0.0
H204 H 0.1779 0.93292 0.56027 0.0
H205 H 0.25076 0.93521 0.64689 0.0
H206 H 0.30658 0.87619 0.61181 0.0
C207 C 0.34129 0.80097 0.54161 0.0
C208 C 0.2986 0.8006 0.4822 0.0
C209 C 0.26596 0.83545 0.50345 0.0
C210 C 0.22366 0.83404 0.45378 0.0
C211 C 0.19251 0.87005 0.47516 0.0
C212 C 0.20224 0.90583 0.54466 0.0
C213 C 0.24326 0.90713 0.59342 0.0
C214 C 0.27493 0.87271 0.57294 0.0
H215 H 0.12727 0.7811 0.44014 0.0
C216 C 0.13025 0.7888 0.36219 0.0
H217 H 0.17431 0.80491 0.24559 0.0
H218 H 0.34944 0.72334 0.43302 0.0
H219 H 0.33232 0.66338 0.30801 0.0
H220 H 0.26116 0.66414 0.2149 0.0
H221 H 0.20633 0.72459 0.24797 0.0
C222 C 0.17105 0.79805 0.32389 0.0
C223 C 0.21372 0.79775 0.38258 0.0
C224 C 0.24636 0.76319 0.36047 0.0
C225 C 0.2883 0.76384 0.41176 0.0
C226 C 0.31836 0.72652 0.39287 0.0
C227 C 0.30867 0.69133 0.32193 0.0
C228 C 0.26857 0.69168 0.26967 0.0
C229 C 0.2375 0.7268 0.28904 0.0
H230 H 0.11935 0.2854 0.51689 0.0
C231 C 0.12658 0.28148 0.59505 0.0
H232 H 0.17628 0.2749 0.70528 0.0
H233 H 0.3392 0.1998 0.46918 0.0
H234 H 0.31779 0.13178 0.56076 0.0
H235 H 0.24719 0.13018 0.65389 0.0
H236 H 0.19726 0.19656 0.65437 0.0
C237 C 0.16959 0.27934 0.62702 0.0
C238 C 0.21014 0.27968 0.56189 0.0
C239 C 0.23982 0.24099 0.56333 0.0
C240 C 0.2814 0.24248 0.51183 0.0
C241 C 0.30859 0.20199 0.51079 0.0
C242 C 0.29638 0.16223 0.56219 0.0
C243 C 0.25659 0.16129 0.61442 0.0
C244 C 0.22837 0.19986 0.61456 0.0
H245 H 0.38316 0.27025 0.51383 0.0
C246 C 0.3782 0.27904 0.43692 0.0
H247 H 0.33267 0.29417 0.32346 0.0
H248 H 0.16389 0.36201 0.55043 0.0
H249 H 0.18592 0.43104 0.46226 0.0
H250 H 0.25745 0.43379 0.37278 0.0
H251 H 0.30758 0.3677 0.3719 0.0
C252 C 0.33645 0.28525 0.40072 0.0
C253 C 0.29419 0.28341 0.46066 0.0
C254 C 0.26445 0.32215 0.45938 0.0
C255 C 0.22269 0.3204 0.51015 0.0
C256 C 0.19514 0.3606 0.51089 0.0
C257 C 0.20756 0.40077 0.46108 0.0
C258 C 0.24783 0.40232 0.41075 0.0
C259 C 0.27617 0.36382 0.41024 0.0
H260 H 0.8608 0.23182 0.5314 0.0
C261 C 0.87211 0.26772 0.5466 0.0
H262 H 0.85543 0.33911 0.54546 0.0
H263 H 0.69727 0.22623 0.26434 0.0
H264 H 0.75743 0.19349 0.16724 0.0
H265 H 0.83605 0.20725 0.21649 0.0
H266 H 0.85484 0.25549 0.36063 0.0
C267 C 0.8443 0.30338 0.52786 0.0
C268 C 0.79643 0.29514 0.49479 0.0
C269 C 0.78573 0.26718 0.40858 0.0
C270 C 0.7401 0.25895 0.38031 0.0
C271 C 0.73091 0.23246 0.29175 0.0
C272 C 0.76522 0.21357 0.23454 0.0
C273 C 0.80946 0.22119 0.26242 0.0
C274 C 0.81977 0.24837 0.34696 0.0
H275 H 0.63988 0.33987 0.39454 0.0
C276 C 0.62904 0.3036 0.38243 0.0
H277 H 0.64715 0.23284 0.38662 0.0
H278 H 0.80374 0.35193 0.66216 0.0
H279 H 0.74329 0.38342 0.76048 0.0
H280 H 0.66475 0.36465 0.71754 0.0
H281 H 0.64627 0.3152 0.57408 0.0
C282 C 0.65695 0.2688 0.40639 0.0
C283 C 0.70473 0.27806 0.43841 0.0
C284 C 0.71537 0.30571 0.52478 0.0
C285 C 0.76101 0.31524 0.55141 0.0
C286 C 0.77008 0.34378 0.63713 0.0
C287 C 0.73559 0.36197 0.69499 0.0
C288 C 0.69137 0.35141 0.6708 0.0
C289 C 0.68122 0.3233 0.58748 0.0
H290 H 0.86902 0.70865 0.45281 0.0
C291 C 0.87726 0.7457 0.44693 0.0
H292 H 0.8538 0.81516 0.45992 0.0
H293 H 0.64865 0.76386 0.42609 0.0
H294 H 0.66244 0.79619 0.26542 0.0
H295 H 0.7392 0.81472 0.21213 0.0
H296 H 0.80262 0.80119 0.31973 0.0
C297 C 0.8467 0.77833 0.47286 0.0
C298 C 0.80028 0.76585 0.50549 0.0
C299 C 0.76313 0.7756 0.44362 0.0
C300 C 0.71852 0.76641 0.47586 0.0
C301 C 0.68277 0.77316 0.40869 0.0
C302 C 0.69033 0.79085 0.31517 0.0
C303 C 0.73353 0.80126 0.28515 0.0
C304 C 0.76963 0.79353 0.34798 0.0
H305 H 0.6393 0.81097 0.57782 0.0
C306 C 0.63311 0.77824 0.6149 0.0
H307 H 0.65547 0.71126 0.64853 0.0
H308 H 0.86337 0.74345 0.64313 0.0
H309 H 0.85048 0.70513 0.79796 0.0
H310 H 0.77417 0.68414 0.84927 0.0
H311 H 0.71018 0.7046 0.75088 0.0
C312 C 0.66401 0.74376 0.61275 0.0
C313 C 0.71073 0.74901 0.572 0.0
C314 C 0.74827 0.7358 0.63048 0.0
C315 C 0.79281 0.74543 0.59839 0.0
C316 C 0.82915 0.73505 0.66163 0.0
C317 C 0.82226 0.71322 0.75107 0.0
C318 C 0.77926 0.70163 0.78014 0.0
C319 C 0.74264 0.7134 0.722 0.0
H320 H 0.40232 0.77228 0.0572 0.0
C321 C 0.40522 0.78745 0.98469 0.0
H322 H 0.37538 0.82902 0.8756 0.0
H323 H 0.18262 0.77745 0.05296 0.0
H324 H 0.20074 0.69509 0.02977 0.0
H325 H 0.27764 0.67085 0.98924 0.0
H326 H 0.33693 0.72874 0.97361 0.0
C327 C 0.37174 0.81311 0.94727 0.0
C328 C 0.32921 0.82442 -0.00196 0.0
C329 C 0.29493 0.78992 0.00485 0.0
C330 C 0.25023 0.80402 0.02406 0.0
C331 C 0.21676 0.7689 0.03423 0.0
C332 C 0.22676 0.72143 0.02178 0.0
C333 C 0.27008 0.70779 -0.00076 0.0
C334 C 0.30387 0.74146 0.99054 0.0
H335 H 0.17323 0.84628 0.89645 0.0
C336 C 0.16236 0.85976 0.96832 0.0
H337 H 0.18196 0.87981 0.11465 0.0
H338 H 0.38871 0.89777 0.01092 0.0
H339 H 0.37104 0.98003 0.04323 0.0
H340 H 0.29301 1.00485 0.06827 0.0
H341 H 0.23215 0.94749 0.06376 0.0
C342 C 0.19255 0.86754 0.04164 0.0
C343 C 0.23981 0.85258 0.032 0.0
C344 C 0.27468 0.88654 0.03478 0.0
C345 C 0.3195 0.87236 0.01835 0.0
C346 C 0.35394 0.90693 0.02124 0.0
C347 C 0.34428 0.95414 0.03981 0.0
C348 C 0.30034 0.96809 0.05439 0.0
C349 C 0.26576 0.93485 0.05171 0.0
H350 H 0.17918 0.21647 0.04999 0.0
C351 C 0.17053 0.25341 0.04753 0.0
H352 H 0.19428 0.32291 0.03622 0.0
H353 H 0.37761 0.1966 0.13173 0.0
H354 H 0.34167 0.17338 0.28165 0.0
H355 H 0.26403 0.19648 0.31784 0.0
H356 H 0.22285 0.24452 0.20555 0.0
C357 C 0.2031 0.28622 0.0435 0.0
C358 C 0.25032 0.27283 0.02336 0.0
C359 C 0.27488 0.24642 0.09193 0.0
C360 C 0.31961 0.23306 0.07035 0.0
C361 C 0.34334 0.20718 0.14162 0.0
C362 C 0.32315 0.19367 0.22902 0.0
C363 C 0.27956 0.20675 0.2496 0.0
C364 C 0.25598 0.23377 0.18342 0.0
H365 H 0.40688 0.30836 0.94196 0.0
C366 C 0.4179 0.27354 0.96126 0.0
H367 H 0.40108 0.20317 0.9824 0.0
H368 H 0.2124 0.32271 0.8735 0.0
H369 H 0.24712 0.34302 0.71937 0.0
H370 H 0.3229 0.3156 0.67781 0.0
H371 H 0.36542 0.26995 0.79379 0.0
C372 C 0.38844 0.23759 0.9646 0.0
C373 C 0.33987 0.24656 0.98013 0.0
C374 C 0.31463 0.27129 0.90991 0.0
C375 C 0.2702 0.28534 0.93233 0.0
C376 C 0.24631 0.31113 0.86139 0.0
C377 C 0.26568 0.32265 0.77172 0.0
C378 C 0.30843 0.30748 0.74861 0.0
C379 C 0.33263 0.28175 0.81627 0.0
H380 H 0.68125 0.24014 0.90595 0.0
C381 C 0.67102 0.27642 0.91734 0.0
H382 H 0.69137 0.34636 0.94374 0.0
H383 H 0.86499 0.3121 0.18558 0.0
H384 H 0.82031 0.35991 0.29731 0.0
H385 H 0.74172 0.37713 0.25745 0.0
H386 H 0.70818 0.34898 0.10374 0.0
C387 C 0.70215 0.31042 0.93008 0.0
C388 C 0.7496 0.29863 0.9535 0.0
C389 C 0.76841 0.31444 0.04582 0.0
C390 C 0.81324 0.30295 0.07089 0.0
C391 C 0.83138 0.32023 0.16212 0.0
C392 C 0.80594 0.34739 0.22755 0.0
C393 C 0.76172 0.35707 0.20511 0.0
C394 C 0.74296 0.3408 0.11583 0.0
H395 H 0.9076 0.33186 0.03342 0.0
C396 C 0.91771 0.29535 0.02623 0.0
H397 H 0.89592 0.2255 0.0184 0.0
H398 H 0.72591 0.26602 0.767 0.0
H399 H 0.77024 0.21751 0.65654 0.0
H400 H 0.84636 0.1939 0.70384 0.0
H401 H 0.87859 0.21923 0.86036 0.0
C402 C 0.88594 0.26188 0.02991 0.0
C403 C 0.8386 0.27382 0.00604 0.0
C404 C 0.81974 0.25774 0.91397 0.0
C405 C 0.77552 0.27072 0.88714 0.0
C406 C 0.75858 0.25599 0.79294 0.0
C407 C 0.78386 0.22838 0.72812 0.0
C408 C 0.82671 0.21522 0.75459 0.0
C409 C 0.84473 0.2299 0.84565 0.0
H410 H 0.89403 0.78439 0.92502 0.0
C411 C 0.89737 0.79823 0.00048 0.0
H412 H 0.8666 0.81678 0.13519 0.0
H413 H 0.68101 0.77753 0.87721 0.0
H414 H 0.70339 0.84142 0.77314 0.0
H415 H 0.77852 0.87766 0.78994 0.0
H416 H 0.83147 0.85048 0.91202 0.0
C417 C 0.86145 0.8035 0.05954 0.0
C418 C 0.81805 0.779 0.03996 0.0
C419 C 0.78784 0.79514 0.96788 0.0
C420 C 0.74481 0.77378 0.95737 0.0
C421 C 0.71447 0.79178 0.88726 0.0
C422 C 0.72682 0.82862 0.82723 0.0
C423 C 0.76912 0.84897 0.83663 0.0
C424 C 0.79927 0.83289 0.90668 0.0
H425 H 0.65876 0.73637 0.12813 0.0
C426 C 0.65404 0.71863 0.05657 0.0
H427 H 0.68442 0.69561 0.92379 0.0
H428 H 0.86788 0.73894 0.18657 0.0
H429 H 0.8457 0.67419 0.28773 0.0
H430 H 0.77141 0.63672 0.26707 0.0
H431 H 0.71923 0.66336 0.14312 0.0
C432 C 0.68944 0.71072 -0.00215 0.0
C433 C 0.73276 0.7353 0.01674 0.0
C434 C 0.76276 0.7193 0.0891 0.0
C435 C 0.80543 0.74123 0.10114 0.0
C436 C 0.83492 0.72412 0.17402 0.0
C437 C 0.82259 0.68688 0.23296 0.0
C438 C 0.78082 0.66568 0.22113 0.0
C439 C 0.75118 0.68139 0.14981 0.0
loop_
_geom_bond_atom_site_label_1
_geom_bond_atom_site_label_2
_geom_bond_distance
_geom_bond_site_symmetry_2
_ccdc_geom_bond_type
Dy0 O4 2.398 1_554 S
Dy0 O5 2.491 . S
Dy0 O6 2.403 . S
Dy0 O7 2.664 1_455 S
Dy0 O11 2.326 . S
Dy0 O15 2.310 . S
Dy0 O16 2.351 1_455 S
C1 O12 1.185 . S
C1 O13 1.355 . S
C2 O4 1.185 . S
C2 O5 1.355 1_556 S
Dy3 O7 2.310 . S
Dy3 O10 2.351 1_655 S
Dy3 O12 2.398 . S
Dy3 O13 2.491 . S
Dy3 O14 2.403 . S
Dy3 O15 2.664 1_655 S
Dy3 O17 2.326 . S
O4 Dy0 2.398 1_556 S
O4 C2 1.185 . S
O5 Dy0 2.491 . S
O5 C2 1.355 1_554 S
O6 Dy0 2.403 . S
O6 C8 1.254 . S
O7 Dy0 2.664 1_655 S
O7 Dy3 2.310 . S
O7 C8 1.268 1_655 S
C8 O6 1.254 . S
C8 O7 1.268 1_455 S
C9 O14 1.254 1_455 S
C9 O15 1.268 . S
O10 Dy3 2.351 1_455 S
O10 C18 1.249 . S
O11 Dy0 2.326 . S
O11 C18 1.267 . S
O12 C1 1.185 . S
O12 Dy3 2.398 . S
O13 C1 1.355 . S
O13 Dy3 2.491 . S
O14 Dy3 2.403 . S
O14 C9 1.254 1_655 S
O15 Dy0 2.310 . S
O15 Dy3 2.664 1_455 S
O15 C9 1.268 . S
O16 Dy0 2.351 1_655 S
O16 C19 1.249 . S
O17 Dy3 2.326 . S
O17 C19 1.267 . S
C18 O10 1.249 . S
C18 O11 1.267 . S
C19 O16 1.249 . S
C19 O17 1.267 . S
Dy20 O24 2.398 1_554 S
Dy20 O25 2.491 . S
Dy20 O26 2.403 . S
Dy20 O27 2.664 . S
Dy20 O31 2.326 . S
Dy20 O35 2.310 . S
Dy20 O36 2.351 . S
C21 O32 1.185 . S
C21 O33 1.355 . S
C22 O24 1.185 . S
C22 O25 1.355 1_556 S
Dy23 O27 2.310 . S
Dy23 O30 2.351 . S
Dy23 O32 2.398 . S
Dy23 O33 2.491 . S
Dy23 O34 2.403 . S
Dy23 O35 2.664 . S
Dy23 O37 2.326 . S
O24 Dy20 2.398 1_556 S
O24 C22 1.185 . S
O25 Dy20 2.491 . S
O25 C22 1.355 1_554 S
O26 Dy20 2.403 . S
O26 C28 1.254 . S
O27 Dy20 2.664 . S
O27 Dy23 2.310 . S
O27 C28 1.268 . S
C28 O26 1.254 . S
C28 O27 1.268 . S
C29 O34 1.254 . S
C29 O35 1.268 . S
O30 Dy23 2.351 . S
O30 C38 1.249 . S
O31 Dy20 2.326 . S
O31 C38 1.267 . S
O32 C21 1.185 . S
O32 Dy23 2.398 . S
O33 C21 1.355 . S
O33 Dy23 2.491 . S
O34 Dy23 2.403 . S
O34 C29 1.254 . S
O35 Dy20 2.310 . S
O35 Dy23 2.664 . S
O35 C29 1.268 . S
O36 Dy20 2.351 . S
O36 C39 1.249 . S
O37 Dy23 2.326 . S
O37 C39 1.267 . S
C38 O30 1.249 . S
C38 O31 1.267 . S
C39 O36 1.249 . S
C39 O37 1.267 . S
Dy40 O44 2.398 1_556 S
Dy40 O45 2.491 . S
Dy40 O46 2.403 . S
Dy40 O47 2.664 1_455 S
Dy40 O51 2.326 . S
Dy40 O55 2.310 . S
Dy40 O56 2.351 1_455 S
C41 O52 1.185 . S
C41 O53 1.355 . S
C42 O44 1.185 . S
C42 O45 1.355 1_554 S
Dy43 O47 2.310 . S
Dy43 O50 2.351 1_655 S
Dy43 O52 2.398 . S
Dy43 O53 2.491 . S
Dy43 O54 2.403 . S
Dy43 O55 2.664 1_655 S
Dy43 O57 2.326 . S
O44 Dy40 2.398 1_554 S
O44 C42 1.185 . S
O45 Dy40 2.491 . S
O45 C42 1.355 1_556 S
O46 Dy40 2.403 . S
O46 C48 1.254 . S
O47 Dy40 2.664 1_655 S
O47 Dy43 2.310 . S
O47 C48 1.268 1_655 S
C48 O46 1.254 . S
C48 O47 1.268 1_455 S
C49 O54 1.254 1_455 S
C49 O55 1.268 . S
O50 Dy43 2.351 1_455 S
O50 C58 1.249 . S
O51 Dy40 2.326 . S
O51 C58 1.267 . S
O52 C41 1.185 . S
O52 Dy43 2.398 . S
O53 C41 1.355 . S
O53 Dy43 2.491 . S
O54 Dy43 2.403 . S
O54 C49 1.254 1_655 S
O55 Dy40 2.310 . S
O55 Dy43 2.664 1_455 S
O55 C49 1.268 . S
O56 Dy40 2.351 1_655 S
O56 C59 1.249 . S
O57 Dy43 2.326 . S
O57 C59 1.267 . S
C58 O50 1.249 . S
C58 O51 1.267 . S
C59 O56 1.249 . S
C59 O57 1.267 . S
Dy60 O64 2.398 1_556 S
Dy60 O65 2.491 . S
Dy60 O66 2.403 . S
Dy60 O67 2.664 . S
Dy60 O71 2.326 . S
Dy60 O75 2.310 . S
Dy60 O76 2.351 . S
C61 O72 1.185 . S
C61 O73 1.355 . S
C62 O64 1.185 . S
C62 O65 1.355 1_554 S
Dy63 O67 2.310 . S
Dy63 O70 2.351 . S
Dy63 O72 2.398 . S
Dy63 O73 2.491 . S
Dy63 O74 2.403 . S
Dy63 O75 2.664 . S
Dy63 O77 2.326 . S
O64 Dy60 2.398 1_554 S
O64 C62 1.185 . S
O65 Dy60 2.491 . S
O65 C62 1.355 1_556 S
O66 Dy60 2.403 . S
O66 C68 1.254 . S
O67 Dy60 2.664 . S
O67 Dy63 2.310 . S
O67 C68 1.268 . S
C68 O66 1.254 . S
C68 O67 1.268 . S
C69 O74 1.254 . S
C69 O75 1.268 . S
O70 Dy63 2.351 . S
O70 C78 1.249 . S
O71 Dy60 2.326 . S
O71 C78 1.267 . S
O72 C61 1.185 . S
O72 Dy63 2.398 . S
O73 C61 1.355 . S
O73 Dy63 2.491 . S
O74 Dy63 2.403 . S
O74 C69 1.254 . S
O75 Dy60 2.310 . S
O75 Dy63 2.664 . S
O75 C69 1.268 . S
O76 Dy60 2.351 . S
O76 C79 1.249 . S
O77 Dy63 2.326 . S
O77 C79 1.267 . S
C78 O70 1.249 . S
C78 O71 1.267 . S
C79 O76 1.249 . S
C79 O77 1.267 . S
H80 C81 0.951 . S
C81 H80 0.951 . S
C81 C87 1.265 1_655 S
H82 C87 0.950 . S
H83 C91 0.949 . S
H84 C92 0.950 . S
H85 C93 0.951 . S
H86 C94 0.951 . S
C87 C81 1.265 1_455 S
C87 H82 0.950 . S
C87 C88 1.478 . S
C88 C87 1.478 . S
C88 C89 1.397 1_455 S
C88 C105 1.394 1_556 S
C89 C88 1.397 1_655 S
C89 C90 1.438 . S
C89 C94 1.429 . S
C90 C89 1.438 . S
C90 C91 1.428 . S
C90 C103 1.394 1_556 S
C91 H83 0.949 . S
C91 C90 1.428 . S
C91 C92 1.345 . S
C92 H84 0.950 . S
C92 C91 1.345 . S
C92 C93 1.424 . S
C93 H85 0.951 . S
C93 C92 1.424 . S
C93 C94 1.347 . S
C94 H86 0.951 . S
C94 C89 1.429 . S
C94 C93 1.347 . S
H95 C96 0.951 . S
C96 H95 0.951 . S
C96 C102 1.265 1_455 S
H97 C102 0.950 . S
H98 C106 0.949 . S
H99 C107 0.950 . S
H100 C108 0.951 . S
H101 C109 0.951 . S
C102 C96 1.265 1_655 S
C102 H97 0.950 . S
C102 C103 1.478 . S
C103 C90 1.394 1_554 S
C103 C102 1.478 . S
C103 C104 1.397 1_655 S
C104 C103 1.397 1_455 S
C104 C105 1.438 . S
C104 C109 1.429 . S
C105 C88 1.394 1_554 S
C105 C104 1.438 . S
C105 C106 1.428 . S
C106 H98 0.949 . S
C106 C105 1.428 . S
C106 C107 1.345 . S
C107 H99 0.950 . S
C107 C106 1.345 . S
C107 C108 1.424 . S
C108 H100 0.951 . S
C108 C107 1.424 . S
C108 C109 1.347 . S
C109 H101 0.951 . S
C109 C104 1.429 . S
C109 C108 1.347 . S
H110 C111 0.951 . S
C111 H110 0.951 . S
C111 C117 1.265 . S
H112 C117 0.950 . S
H113 C121 0.949 . S
H114 C122 0.950 . S
H115 C123 0.951 . S
H116 C124 0.951 . S
C117 C111 1.265 . S
C117 H112 0.950 . S
C117 C118 1.478 . S
C118 C117 1.478 . S
C118 C119 1.397 . S
C118 C135 1.394 1_554 S
C119 C118 1.397 . S
C119 C120 1.438 . S
C119 C124 1.429 . S
C120 C119 1.438 . S
C120 C121 1.428 . S
C120 C133 1.394 1_554 S
C121 H113 0.949 . S
C121 C120 1.428 . S
C121 C122 1.345 . S
C122 H114 0.950 . S
C122 C121 1.345 . S
C122 C123 1.424 . S
C123 H115 0.951 . S
C123 C122 1.424 . S
C123 C124 1.347 . S
C124 H116 0.951 . S
C124 C119 1.429 . S
C124 C123 1.347 . S
H125 C126 0.951 . S
C126 H125 0.951 . S
C126 C132 1.265 . S
H127 C132 0.950 . S
H128 C136 0.949 . S
H129 C137 0.950 . S
H130 C138 0.951 . S
H131 C139 0.951 . S
C132 C126 1.265 . S
C132 H127 0.950 . S
C132 C133 1.478 . S
C133 C120 1.394 1_556 S
C133 C132 1.478 . S
C133 C134 1.397 . S
C134 C133 1.397 . S
C134 C135 1.438 . S
C134 C139 1.429 . S
C135 C118 1.394 1_556 S
C135 C134 1.438 . S
C135 C136 1.428 . S
C136 H128 0.949 . S
C136 C135 1.428 . S
C136 C137 1.345 . S
C137 H129 0.950 . S
C137 C136 1.345 . S
C137 C138 1.424 . S
C138 H130 0.951 . S
C138 C137 1.424 . S
C138 C139 1.347 . S
C139 H131 0.951 . S
C139 C134 1.429 . S
C139 C138 1.347 . S
H140 C141 0.951 . S
C141 H140 0.951 . S
C141 C147 1.265 . S
H142 C147 0.950 . S
H143 C151 0.949 . S
H144 C152 0.950 . S
H145 C153 0.951 . S
H146 C154 0.951 . S
C147 C141 1.265 . S
C147 H142 0.950 . S
C147 C148 1.478 . S
C148 C147 1.478 . S
C148 C149 1.397 1_556 S
C148 C165 1.394 . S
C149 C148 1.397 1_554 S
C149 C150 1.438 1_565 S
C149 C154 1.429 . S
C150 C149 1.438 1_545 S
C150 C151 1.428 . S
C150 C163 1.394 . S
C151 H143 0.949 . S
C151 C150 1.428 . S
C151 C152 1.345 1_545 S
C152 H144 0.950 . S
C152 C151 1.345 1_565 S
C152 C153 1.424 . S
C153 H145 0.951 . S
C153 C152 1.424 . S
C153 C154 1.347 . S
C154 H146 0.951 . S
C154 C149 1.429 . S
C154 C153 1.347 . S
H155 C156 0.951 . S
C156 H155 0.951 . S
C156 C162 1.265 . S
H157 C162 0.950 . S
H158 C166 0.949 . S
H159 C167 0.950 . S
H160 C168 0.951 . S
H161 C169 0.951 . S
C162 C156 1.265 . S
C162 H157 0.950 . S
C162 C163 1.478 . S
C163 C150 1.394 . S
C163 C162 1.478 . S
C163 C164 1.397 1_554 S
C164 C163 1.397 1_556 S
C164 C165 1.438 1_545 S
C164 C169 1.429 . S
C165 C148 1.394 . S
C165 C164 1.438 1_565 S
C165 C166 1.428 . S
C166 H158 0.949 . S
C166 C165 1.428 . S
C166 C167 1.345 1_565 S
C167 H159 0.950 . S
C167 C166 1.345 1_545 S
C167 C168 1.424 . S
C168 H160 0.951 . S
C168 C167 1.424 . S
C168 C169 1.347 . S
C169 H161 0.951 . S
C169 C164 1.429 . S
C169 C168 1.347 . S
H170 C171 0.951 1_655 S
C171 H170 0.951 1_455 S
C171 C177 1.265 . S
H172 C177 0.950 . S
H173 C181 0.949 . S
H174 C182 0.950 . S
H175 C183 0.951 . S
H176 C184 0.951 . S
C177 C171 1.265 . S
C177 H172 0.950 . S
C177 C178 1.478 . S
C178 C177 1.478 . S
C178 C179 1.397 1_554 S
C178 C195 1.394 1_455 S
C179 C178 1.397 1_556 S
C179 C180 1.438 1_565 S
C179 C184 1.429 . S
C180 C179 1.438 1_545 S
C180 C181 1.428 . S
C180 C193 1.394 1_455 S
C181 H173 0.949 . S
C181 C180 1.428 . S
C181 C182 1.345 1_545 S
C182 H174 0.950 . S
C182 C181 1.345 1_565 S
C182 C183 1.424 . S
C183 H175 0.951 . S
C183 C182 1.424 . S
C183 C184 1.347 . S
C184 H176 0.951 . S
C184 C179 1.429 . S
C184 C183 1.347 . S
H185 C186 0.951 . S
C186 H185 0.951 . S
C186 C192 1.265 1_455 S
H187 C192 0.950 . S
H188 C196 0.949 . S
H189 C197 0.950 . S
H190 C198 0.951 . S
H191 C199 0.951 . S
C192 C186 1.265 1_655 S
C192 H187 0.950 . S
C192 C193 1.478 . S
C193 C180 1.394 1_655 S
C193 C192 1.478 . S
C193 C194 1.397 1_556 S
C194 C193 1.397 1_554 S
C194 C195 1.438 1_545 S
C194 C199 1.429 . S
C195 C178 1.394 1_655 S
C195 C194 1.438 1_565 S
C195 C196 1.428 . S
C196 H188 0.949 . S
C196 C195 1.428 . S
C196 C197 1.345 1_565 S
C197 H189 0.950 . S
C197 C196 1.345 1_545 S
C197 C198 1.424 . S
C198 H190 0.951 . S
C198 C197 1.424 . S
C198 C199 1.347 . S
C199 H191 0.951 . S
C199 C194 1.429 . S
C199 C198 1.347 . S
H200 C201 0.951 . S
C201 H200 0.951 . S
C201 C207 1.265 . S
H202 C207 0.950 . S
H203 C211 0.949 . S
H204 C212 0.950 . S
H205 C213 0.951 . S
H206 C214 0.951 . S
C207 C201 1.265 . S
C207 H202 0.950 . S
C207 C208 1.478 . S
C208 C207 1.478 . S
C208 C209 1.397 . S
C208 C225 1.394 . S
C209 C208 1.397 . S
C209 C210 1.438 . S
C209 C214 1.429 . S
C210 C209 1.438 . S
C210 C211 1.428 . S
C210 C223 1.394 . S
C211 H203 0.949 . S
C211 C210 1.428 . S
C211 C212 1.345 . S
C212 H204 0.950 . S
C212 C211 1.345 . S
C212 C213 1.424 . S
C213 H205 0.951 . S
C213 C212 1.424 . S
C213 C214 1.347 . S
C214 H206 0.951 . S
C214 C209 1.429 . S
C214 C213 1.347 . S
H215 C216 0.951 . S
C216 H215 0.951 . S
C216 C222 1.265 . S
H217 C222 0.950 . S
H218 C226 0.949 . S
H219 C227 0.950 . S
H220 C228 0.951 . S
H221 C229 0.951 . S
C222 C216 1.265 . S
C222 H217 0.950 . S
C222 C223 1.478 . S
C223 C210 1.394 . S
C223 C222 1.478 . S
C223 C224 1.397 . S
C224 C223 1.397 . S
C224 C225 1.438 . S
C224 C229 1.429 . S
C225 C208 1.394 . S
C225 C224 1.438 . S
C225 C226 1.428 . S
C226 H218 0.949 . S
C226 C225 1.428 . S
C226 C227 1.345 . S
C227 H219 0.950 . S
C227 C226 1.345 . S
C227 C228 1.424 . S
C228 H220 0.951 . S
C228 C227 1.424 . S
C228 C229 1.347 . S
C229 H221 0.951 . S
C229 C224 1.429 . S
C229 C228 1.347 . S
H230 C231 0.951 . S
C231 H230 0.951 . S
C231 C237 1.265 . S
H232 C237 0.950 . S
H233 C241 0.949 . S
H234 C242 0.950 . S
H235 C243 0.951 . S
H236 C244 0.951 . S
C237 C231 1.265 . S
C237 H232 0.950 . S
C237 C238 1.478 . S
C238 C237 1.478 . S
C238 C239 1.397 . S
C238 C255 1.394 . S
C239 C238 1.397 . S
C239 C240 1.438 . S
C239 C244 1.429 . S
C240 C239 1.438 . S
C240 C241 1.428 . S
C240 C253 1.394 . S
C241 H233 0.949 . S
C241 C240 1.428 . S
C241 C242 1.345 . S
C242 H234 0.950 . S
C242 C241 1.345 . S
C242 C243 1.424 . S
C243 H235 0.951 . S
C243 C242 1.424 . S
C243 C244 1.347 . S
C244 H236 0.951 . S
C244 C239 1.429 . S
C244 C243 1.347 . S
H245 C246 0.951 . S
C246 H245 0.951 . S
C246 C252 1.265 . S
H247 C252 0.950 . S
H248 C256 0.949 . S
H249 C257 0.950 . S
H250 C258 0.951 . S
H251 C259 0.951 . S
C252 C246 1.265 . S
C252 H247 0.950 . S
C252 C253 1.478 . S
C253 C240 1.394 . S
C253 C252 1.478 . S
C253 C254 1.397 . S
C254 C253 1.397 . S
C254 C255 1.438 . S
C254 C259 1.429 . S
C255 C238 1.394 . S
C255 C254 1.438 . S
C255 C256 1.428 . S
C256 H248 0.949 . S
C256 C255 1.428 . S
C256 C257 1.345 . S
C257 H249 0.950 . S
C257 C256 1.345 . S
C257 C258 1.424 . S
C258 H250 0.951 . S
C258 C257 1.424 . S
C258 C259 1.347 . S
C259 H251 0.951 . S
C259 C254 1.429 . S
C259 C258 1.347 . S
H260 C261 0.951 . S
C261 H260 0.951 . S
C261 C267 1.265 . S
H262 C267 0.950 . S
H263 C271 0.949 . S
H264 C272 0.950 . S
H265 C273 0.951 . S
H266 C274 0.951 . S
C267 C261 1.265 . S
C267 H262 0.950 . S
C267 C268 1.478 . S
C268 C267 1.478 . S
C268 C269 1.397 . S
C268 C285 1.394 . S
C269 C268 1.397 . S
C269 C270 1.438 . S
C269 C274 1.429 . S
C270 C269 1.438 . S
C270 C271 1.428 . S
C270 C283 1.394 . S
C271 H263 0.949 . S
C271 C270 1.428 . S
C271 C272 1.345 . S
C272 H264 0.950 . S
C272 C271 1.345 . S
C272 C273 1.424 . S
C273 H265 0.951 . S
C273 C272 1.424 . S
C273 C274 1.347 . S
C274 H266 0.951 . S
C274 C269 1.429 . S
C274 C273 1.347 . S
H275 C276 0.951 . S
C276 H275 0.951 . S
C276 C282 1.265 . S
H277 C282 0.950 . S
H278 C286 0.949 . S
H279 C287 0.950 . S
H280 C288 0.951 . S
H281 C289 0.951 . S
C282 C276 1.265 . S
C282 H277 0.950 . S
C282 C283 1.478 . S
C283 C270 1.394 . S
C283 C282 1.478 . S
C283 C284 1.397 . S
C284 C283 1.397 . S
C284 C285 1.438 . S
C284 C289 1.429 . S
C285 C268 1.394 . S
C285 C284 1.438 . S
C285 C286 1.428 . S
C286 H278 0.949 . S
C286 C285 1.428 . S
C286 C287 1.345 . S
C287 H279 0.950 . S
C287 C286 1.345 . S
C287 C288 1.424 . S
C288 H280 0.951 . S
C288 C287 1.424 . S
C288 C289 1.347 . S
C289 H281 0.951 . S
C289 C284 1.429 . S
C289 C288 1.347 . S
H290 C291 0.951 . S
C291 H290 0.951 . S
C291 C297 1.265 . S
H292 C297 0.950 . S
H293 C301 0.949 . S
H294 C302 0.950 . S
H295 C303 0.951 . S
H296 C304 0.951 . S
C297 C291 1.265 . S
C297 H292 0.950 . S
C297 C298 1.478 . S
C298 C297 1.478 . S
C298 C299 1.397 . S
C298 C315 1.394 . S
C299 C298 1.397 . S
C299 C300 1.438 . S
C299 C304 1.429 . S
C300 C299 1.438 . S
C300 C301 1.428 . S
C300 C313 1.394 . S
C301 H293 0.949 . S
C301 C300 1.428 . S
C301 C302 1.345 . S
C302 H294 0.950 . S
C302 C301 1.345 . S
C302 C303 1.424 . S
C303 H295 0.951 . S
C303 C302 1.424 . S
C303 C304 1.347 . S
C304 H296 0.951 . S
C304 C299 1.429 . S
C304 C303 1.347 . S
H305 C306 0.951 . S
C306 H305 0.951 . S
C306 C312 1.265 . S
H307 C312 0.950 . S
H308 C316 0.949 . S
H309 C317 0.950 . S
H310 C318 0.951 . S
H311 C319 0.951 . S
C312 C306 1.265 . S
C312 H307 0.950 . S
C312 C313 1.478 . S
C313 C300 1.394 . S
C313 C312 1.478 . S
C313 C314 1.397 . S
C314 C313 1.397 . S
C314 C315 1.438 . S
C314 C319 1.429 . S
C315 C298 1.394 . S
C315 C314 1.438 . S
C315 C316 1.428 . S
C316 H308 0.949 . S
C316 C315 1.428 . S
C316 C317 1.345 . S
C317 H309 0.950 . S
C317 C316 1.345 . S
C317 C318 1.424 . S
C318 H310 0.951 . S
C318 C317 1.424 . S
C318 C319 1.347 . S
C319 H311 0.951 . S
C319 C314 1.429 . S
C319 C318 1.347 . S
H320 C321 0.951 1_554 S
C321 H320 0.951 1_556 S
C321 C327 1.265 . S
H322 C327 0.950 . S
H323 C331 0.949 . S
H324 C332 0.950 . S
H325 C333 0.951 . S
H326 C334 0.951 . S
C327 C321 1.265 . S
C327 H322 0.950 . S
C327 C328 1.478 . S
C328 C327 1.478 . S
C328 C329 1.397 . S
C328 C345 1.394 . S
C329 C328 1.397 . S
C329 C330 1.438 . S
C329 C334 1.429 . S
C330 C329 1.438 . S
C330 C331 1.428 . S
C330 C343 1.394 . S
C331 H323 0.949 . S
C331 C330 1.428 . S
C331 C332 1.345 . S
C332 H324 0.950 . S
C332 C331 1.345 . S
C332 C333 1.424 . S
C333 H325 0.951 . S
C333 C332 1.424 . S
C333 C334 1.347 . S
C334 H326 0.951 . S
C334 C329 1.429 . S
C334 C333 1.347 . S
H335 C336 0.951 . S
C336 H335 0.951 . S
C336 C342 1.265 1_556 S
H337 C342 0.950 . S
H338 C346 0.949 . S
H339 C347 0.950 . S
H340 C348 0.951 . S
H341 C349 0.951 . S
C342 C336 1.265 1_554 S
C342 H337 0.950 . S
C342 C343 1.478 1_554 S
C343 C330 1.394 . S
C343 C342 1.478 1_556 S
C343 C344 1.397 . S
C344 C343 1.397 . S
C344 C345 1.438 . S
C344 C349 1.429 1_556 S
C345 C328 1.394 . S
C345 C344 1.438 . S
C345 C346 1.428 . S
C346 H338 0.949 . S
C346 C345 1.428 . S
C346 C347 1.345 1_556 S
C347 H339 0.950 . S
C347 C346 1.345 1_554 S
C347 C348 1.424 . S
C348 H340 0.951 . S
C348 C347 1.424 . S
C348 C349 1.347 . S
C349 H341 0.951 . S
C349 C344 1.429 1_554 S
C349 C348 1.347 . S
H350 C351 0.951 1_556 S
C351 H350 0.951 1_554 S
C351 C357 1.265 . S
H352 C357 0.950 . S
H353 C361 0.949 . S
H354 C362 0.950 . S
H355 C363 0.951 . S
H356 C364 0.951 . S
C357 C351 1.265 . S
C357 H352 0.950 . S
C357 C358 1.478 . S
C358 C357 1.478 . S
C358 C359 1.397 . S
C358 C375 1.394 1_554 S
C359 C358 1.397 . S
C359 C360 1.438 . S
C359 C364 1.429 . S
C360 C359 1.438 . S
C360 C361 1.428 . S
C360 C373 1.394 . S
C361 H353 0.949 . S
C361 C360 1.428 . S
C361 C362 1.345 . S
C362 H354 0.950 . S
C362 C361 1.345 . S
C362 C363 1.424 . S
C363 H355 0.951 . S
C363 C362 1.424 . S
C363 C364 1.347 . S
C364 H356 0.951 . S
C364 C359 1.429 . S
C364 C363 1.347 . S
H365 C366 0.951 . S
C366 H365 0.951 . S
C366 C372 1.265 1_554 S
H367 C372 0.950 . S
H368 C376 0.949 . S
H369 C377 0.950 . S
H370 C378 0.951 . S
H371 C379 0.951 . S
C372 C366 1.265 1_556 S
C372 H367 0.950 . S
C372 C373 1.478 1_556 S
C373 C360 1.394 . S
C373 C372 1.478 1_554 S
C373 C374 1.397 1_554 S
C374 C373 1.397 1_556 S
C374 C375 1.438 . S
C374 C379 1.429 . S
C375 C358 1.394 1_556 S
C375 C374 1.438 . S
C375 C376 1.428 . S
C376 H368 0.949 . S
C376 C375 1.428 . S
C376 C377 1.345 . S
C377 H369 0.950 . S
C377 C376 1.345 . S
C377 C378 1.424 . S
C378 H370 0.951 . S
C378 C377 1.424 . S
C378 C379 1.347 . S
C379 H371 0.951 . S
C379 C374 1.429 . S
C379 C378 1.347 . S
H380 C381 0.951 1_554 S
C381 H380 0.951 1_556 S
C381 C387 1.265 . S
H382 C387 0.950 . S
H383 C391 0.949 . S
H384 C392 0.950 . S
H385 C393 0.951 . S
H386 C394 0.951 . S
C387 C381 1.265 . S
C387 H382 0.950 . S
C387 C388 1.478 . S
C388 C387 1.478 . S
C388 C389 1.397 . S
C388 C405 1.394 . S
C389 C388 1.397 . S
C389 C390 1.438 . S
C389 C394 1.429 . S
C390 C389 1.438 . S
C390 C391 1.428 1_556 S
C390 C403 1.394 . S
C391 H383 0.949 . S
C391 C390 1.428 1_554 S
C391 C392 1.345 . S
C392 H384 0.950 . S
C392 C391 1.345 . S
C392 C393 1.424 . S
C393 H385 0.951 . S
C393 C392 1.424 . S
C393 C394 1.347 1_554 S
C394 H386 0.951 . S
C394 C389 1.429 . S
C394 C393 1.347 1_556 S
H395 C396 0.951 . S
C396 H395 0.951 . S
C396 C402 1.265 . S
H397 C402 0.950 1_554 S
H398 C406 0.949 . S
H399 C407 0.950 . S
H400 C408 0.951 . S
H401 C409 0.951 . S
C402 C396 1.265 . S
C402 H397 0.950 1_556 S
C402 C403 1.478 . S
C403 C390 1.394 . S
C403 C402 1.478 . S
C403 C404 1.397 . S
C404 C403 1.397 . S
C404 C405 1.438 . S
C404 C409 1.429 . S
C405 C388 1.394 . S
C405 C404 1.438 . S
C405 C406 1.428 . S
C406 H398 0.949 . S
C406 C405 1.428 . S
C406 C407 1.345 . S
C407 H399 0.950 . S
C407 C406 1.345 . S
C407 C408 1.424 . S
C408 H400 0.951 . S
C408 C407 1.424 . S
C408 C409 1.347 . S
C409 H401 0.951 . S
C409 C404 1.429 . S
C409 C408 1.347 . S
H410 C411 0.951 1_556 S
C411 H410 0.951 1_554 S
C411 C417 1.265 . S
H412 C417 0.950 . S
H413 C421 0.949 . S
H414 C422 0.950 . S
H415 C423 0.951 . S
H416 C424 0.951 . S
C417 C411 1.265 . S
C417 H412 0.950 . S
C417 C418 1.478 . S
C418 C417 1.478 . S
C418 C419 1.397 . S
C418 C435 1.394 . S
C419 C418 1.397 . S
C419 C420 1.438 . S
C419 C424 1.429 . S
C420 C419 1.438 . S
C420 C421 1.428 . S
C420 C433 1.394 . S
C421 H413 0.949 . S
C421 C420 1.428 . S
C421 C422 1.345 . S
C422 H414 0.950 . S
C422 C421 1.345 . S
C422 C423 1.424 . S
C423 H415 0.951 . S
C423 C422 1.424 . S
C423 C424 1.347 . S
C424 H416 0.951 . S
C424 C419 1.429 . S
C424 C423 1.347 . S
H425 C426 0.951 . S
C426 H425 0.951 . S
C426 C432 1.265 1_554 S
H427 C432 0.950 . S
H428 C436 0.949 . S
H429 C437 0.950 . S
H430 C438 0.951 . S
H431 C439 0.951 . S
C432 C426 1.265 1_556 S
C432 H427 0.950 . S
C432 C433 1.478 1_556 S
C433 C420 1.394 . S
C433 C432 1.478 1_554 S
C433 C434 1.397 . S
C434 C433 1.397 . S
C434 C435 1.438 . S
C434 C439 1.429 1_554 S
C435 C418 1.394 . S
C435 C434 1.438 . S
C435 C436 1.428 . S
C436 H428 0.949 . S
C436 C435 1.428 . S
C436 C437 1.345 1_554 S
C437 H429 0.950 . S
C437 C436 1.345 1_556 S
C437 C438 1.424 . S
C438 H430 0.951 . S
C438 C437 1.424 . S
C438 C439 1.347 . S
C439 H431 0.951 . S
C439 C434 1.429 1_556 S
C439 C438 1.347 . S
C81 C48 1.702 1_655 S
C96 C8 1.672 . S
C111 C29 1.989 . S
C126 C69 1.957 . S
C141 C68 1.712 . S
C156 C28 1.749 . S
C171 C9 1.958 . S
C186 C49 1.990 . S
C201 C61 1.488 . S
C216 C18 1.518 . S
C231 C58 1.513 . S
C246 C21 1.490 . S
C261 C41 1.515 . S
C276 C38 1.538 . S
C291 C1 1.537 . S
C306 C78 1.520 . S
C321 C79 1.031 . S
C336 C2 1.009 . S
C351 C42 0.976 . S
C366 C39 0.917 . S
C381 C22 0.962 . S
C396 C59 0.950 . S
C411 C19 1.031 . S
C426 C62 1.009 . S
