# Generated by pormake.
# Topology crb, (4)-cn, num edge types: 1
# Building blocks:
#     Node 0, Type 0, BuildingBlock: QUQFOY_clean_sbu_3, # of connection points: 4
#     Node 1, Type 0, BuildingBlock: QUQFOY_clean_sbu_3, # of connection points: 4
#     Node 2, Type 0, BuildingBlock: QUQFOY_clean_sbu_3, # of connection points: 4
#     Node 3, Type 0, BuildingBlock: QUQFOY_clean_sbu_3, # of connection points: 4
#     Node 4, Type 0, BuildingBlock: QUQFOY_clean_sbu_3, # of connection points: 4
#     Node 5, Type 0, BuildingBlock: QUQFOY_clean_sbu_3, # of connection points: 4
#     Node 6, Type 0, BuildingBlock: QUQFOY_clean_sbu_3, # of connection points: 4
#     Node 7, Type 0, BuildingBlock: QUQFOY_clean_sbu_3, # of connection points: 4
#     Edge 8, Type (0, 0), BuildingBlock: MIFKUJ_clean_linker_0, # of connection points: 2
#     Edge 9, Type (0, 0), BuildingBlock: MIFKUJ_clean_linker_0, # of connection points: 2
#     Edge 10, Type (0, 0), BuildingBlock: MIFKUJ_clean_linker_0, # of connection points: 2
#     Edge 11, Type (0, 0), BuildingBlock: MIFKUJ_clean_linker_0, # of connection points: 2
#     Edge 12, Type (0, 0), BuildingBlock: MIFKUJ_clean_linker_0, # of connection points: 2
#     Edge 13, Type (0, 0), BuildingBlock: MIFKUJ_clean_linker_0, # of connection points: 2
#     Edge 14, Type (0, 0), BuildingBlock: MIFKUJ_clean_linker_0, # of connection points: 2
#     Edge 15, Type (0, 0), BuildingBlock: MIFKUJ_clean_linker_0, # of connection points: 2
#     Edge 16, Type (0, 0), BuildingBlock: MIFKUJ_clean_linker_0, # of connection points: 2
#     Edge 17, Type (0, 0), BuildingBlock: MIFKUJ_clean_linker_0, # of connection points: 2
#     Edge 18, Type (0, 0), BuildingBlock: MIFKUJ_clean_linker_0, # of connection points: 2
#     Edge 19, Type (0, 0), BuildingBlock: MIFKUJ_clean_linker_0, # of connection points: 2
#     Edge 20, Type (0, 0), BuildingBlock: MIFKUJ_clean_linker_0, # of connection points: 2
#     Edge 21, Type (0, 0), BuildingBlock: MIFKUJ_clean_linker_0, # of connection points: 2
#     Edge 22, Type (0, 0), BuildingBlock: MIFKUJ_clean_linker_0, # of connection points: 2
#     Edge 23, Type (0, 0), BuildingBlock: MIFKUJ_clean_linker_0, # of connection points: 2
# Relax obj value: 0.113
# Max RMSD: 0.155
# Mean RMSD: 0.155
data_MOF--net-crb--node1-QUQFOY_clean_sbu_3--edge1-MIFKUJ_clean_linker_0
_symmetry_space_group_name_H-M    P1
_symmetry_Int_Tables_number       1
_symmetry_cell_setting            triclinic
loop_
_symmetry_equiv_pos_as_xyz
'x, y, z'
_cell_length_a     57.623355
_cell_length_b     57.170874
_cell_length_c     31.023649
_cell_angle_alpha  90.019385
_cell_angle_beta   89.950999
_cell_angle_gamma 89.956574
loop_
_atom_site_label
_atom_site_type_symbol
_atom_site_fract_x
_atom_site_fract_y
_atom_site_fract_z
_atom_type_partial_charge
C0 C 0.37704 0.31503 0.06974 0.0
O1 O 0.37065 0.31778 0.10859 0.0
Cd2 Cd 0.33075 0.32246 0.12864 0.0
O3 O 0.36213 0.31414 0.03953 0.0
Cd4 Cd 0.31974 0.31563 0.03056 0.0
C5 C 0.31701 0.37073 0.06937 0.0
O6 O 0.31039 0.29148 0.09199 0.0
O7 O 0.28128 0.30902 0.06252 0.0
O8 O 0.32391 0.28721 0.97235 0.0
C9 C 0.28862 0.29419 0.08961 0.0
O10 O 0.31989 0.36235 0.10701 0.0
C11 C 0.31207 0.29901 0.94555 0.0
O12 O 0.31757 0.3575 0.03649 0.0
O13 O 0.30406 0.31848 0.95845 0.0
C14 C 0.62072 0.31399 0.97899 0.0
O15 O 0.62891 0.31775 0.94162 0.0
Cd16 Cd 0.66972 0.32464 0.93086 0.0
O17 O 0.63405 0.31355 0.01163 0.0
Cd18 Cd 0.67505 0.3177 0.03053 0.0
C19 C 0.67748 0.37317 0.99301 0.0
O20 O 0.6903 0.29508 0.97136 0.0
O21 O 0.71577 0.31436 0.00819 0.0
O22 O 0.67207 0.28705 0.08462 0.0
C23 C 0.71147 0.29932 0.97922 0.0
O24 O 0.67719 0.36488 0.95491 0.0
C25 C 0.67704 0.30027 0.11615 0.0
O26 O 0.67571 0.35974 0.02545 0.0
O27 O 0.68114 0.3216 0.10775 0.0
C28 C 0.62115 0.67354 0.08329 0.0
O29 O 0.62882 0.67074 0.12129 0.0
Cd30 Cd 0.66942 0.6671 0.13592 0.0
O31 O 0.63507 0.67531 0.05154 0.0
Cd32 Cd 0.67706 0.67604 0.03637 0.0
C33 C 0.68196 0.62031 0.07086 0.0
O34 O 0.68724 0.69918 0.0982 0.0
O35 O 0.71629 0.68363 0.06482 0.0
O36 O 0.6693 0.7062 0.98292 0.0
C37 C 0.70901 0.69753 0.09368 0.0
O38 O 0.67983 0.62805 0.10917 0.0
C39 C 0.68004 0.69592 0.9526 0.0
O40 O 0.68059 0.63406 0.03879 0.0
O41 O 0.68931 0.67633 0.96136 0.0
C42 C 0.37631 0.67196 6e-05 0.0
O43 O 0.36901 0.66968 0.96167 0.0
Cd44 Cd 0.32863 0.66673 0.94428 0.0
O45 O 0.3621 0.6732 0.03144 0.0
Cd46 Cd 0.31989 0.67304 0.04445 0.0
C47 C 0.31518 0.61839 0.00394 0.0
O48 O 0.31046 0.69785 0.98417 0.0
O49 O 0.2811 0.68184 0.01554 0.0
O50 O 0.32766 0.69996 0.10377 0.0
C51 C 0.28864 0.69615 0.9877 0.0
O52 O 0.31722 0.62712 0.96637 0.0
C53 C 0.3149 0.68915 0.13054 0.0
O54 O 0.31683 0.63122 0.03724 0.0
O55 O 0.30465 0.67091 0.1171 0.0
C56 C 0.8755 0.82305 0.58437 0.0
O57 O 0.86813 0.82546 0.62273 0.0
Cd58 Cd 0.82759 0.82829 0.64075 0.0
O59 O 0.86136 0.82141 0.55301 0.0
Cd60 Cd 0.81942 0.82077 0.53903 0.0
C61 C 0.81274 0.87561 0.57909 0.0
O62 O 0.80918 0.79743 0.60118 0.0
O63 O 0.78038 0.8112 0.56473 0.0
O64 O 0.82687 0.79234 0.48197 0.0
C65 C 0.78742 0.79872 0.59583 0.0
O66 O 0.81522 0.8672 0.61684 0.0
C67 C 0.8156 0.80357 0.45351 0.0
O68 O 0.81478 0.86264 0.54598 0.0
O69 O 0.80649 0.82283 0.46496 0.0
C70 C 0.11976 0.81613 0.49549 0.0
O71 O 0.12709 0.81859 0.45716 0.0
Cd72 Cd 0.1676 0.82273 0.44105 0.0
O73 O 0.13395 0.81512 0.52685 0.0
Cd74 Cd 0.17598 0.81611 0.53995 0.0
C75 C 0.17895 0.87121 0.50151 0.0
O76 O 0.18732 0.79187 0.47951 0.0
O77 O 0.21528 0.80953 0.51242 0.0
O78 O 0.1696 0.78781 0.59762 0.0
C79 C 0.20897 0.79463 0.48455 0.0
O80 O 0.17715 0.86272 0.46372 0.0
C81 C 0.18111 0.79925 0.62542 0.0
O82 O 0.17791 0.85804 0.5344 0.0
O83 O 0.1899 0.81852 0.61333 0.0
C84 C 0.11013 0.17515 0.57358 0.0
O85 O 0.1171 0.17221 0.61202 0.0
Cd86 Cd 0.15723 0.16746 0.62994 0.0
O87 O 0.12457 0.17606 0.54253 0.0
Cd88 Cd 0.16681 0.17407 0.53139 0.0
C89 C 0.16904 0.11893 0.57008 0.0
O90 O 0.17699 0.19835 0.59199 0.0
O91 O 0.20568 0.18022 0.56223 0.0
O92 O 0.16242 0.2023 0.4729 0.0
C93 C 0.19871 0.19546 0.58894 0.0
O94 O 0.16737 0.12743 0.6079 0.0
C95 C 0.17427 0.19046 0.44612 0.0
O96 O 0.16792 0.13213 0.53723 0.0
O97 O 0.18224 0.17099 0.45906 0.0
C98 C 0.86545 0.17256 0.49146 0.0
O99 O 0.85743 0.16924 0.45381 0.0
Cd100 Cd 0.81664 0.16713 0.43888 0.0
O101 O 0.85187 0.17534 0.52348 0.0
Cd102 Cd 0.81031 0.17745 0.54135 0.0
C103 C 0.8019 0.12178 0.50574 0.0
O104 O 0.80139 0.19977 0.47835 0.0
O105 O 0.77161 0.19079 0.51689 0.0
O106 O 0.82204 0.20559 0.59628 0.0
C107 C 0.77972 0.20119 0.4841 0.0
O108 O 0.80457 0.12902 0.46723 0.0
C109 C 0.81046 0.19599 0.62628 0.0
O110 O 0.80396 0.13569 0.5375 0.0
O111 O 0.79883 0.17789 0.61648 0.0
H112 H 0.3085 0.39358 0.99389 0.0
H113 H 0.30486 0.43557 0.9825 0.0
H114 H 0.31408 0.44758 0.11868 0.0
H115 H 0.31753 0.40536 0.13064 0.0
H116 H 0.27956 0.47522 0.08335 0.0
H117 H 0.35892 0.45489 0.05252 0.0
H118 H 0.39024 0.43257 0.01718 0.0
H119 H 0.36619 0.45534 0.89312 0.0
H120 H 0.33451 0.47755 0.92772 0.0
H121 H 0.31329 0.59397 0.07937 0.0
H122 H 0.30993 0.55185 0.08874 0.0
H123 H 0.30554 0.54289 0.95088 0.0
H124 H 0.30942 0.58518 0.94104 0.0
H125 H 0.336 0.51337 0.98506 0.0
H126 H 0.2577 0.53548 0.01594 0.0
H127 H 0.22645 0.55788 0.05131 0.0
H128 H 0.24819 0.53207 0.17482 0.0
H129 H 0.27979 0.50976 0.14025 0.0
C130 C 0.30966 0.40508 0.02156 0.0
C131 C 0.31353 0.39612 0.06318 0.0
C132 C 0.3076 0.42908 0.01492 0.0
C133 C 0.30953 0.44463 0.04966 0.0
C134 C 0.31261 0.4358 0.09146 0.0
C135 C 0.31465 0.41171 0.09819 0.0
C136 C 0.30913 0.47013 0.04196 0.0
C137 C 0.29202 0.48366 0.06226 0.0
C138 C 0.32508 0.48092 0.01355 0.0
C139 C 0.3442 0.46769 0.99269 0.0
C140 C 0.3602 0.45499 0.01769 0.0
C141 C 0.37804 0.44238 -0.0022 0.0
C142 C 0.38017 0.44248 0.95293 0.0
C143 C 0.3645 0.45525 0.92787 0.0
C144 C 0.34661 0.46786 0.9476 0.0
C145 C 0.31142 0.58312 0.05096 0.0
C146 C 0.31166 0.59295 0.0094 0.0
C147 C 0.30935 0.55902 0.05644 0.0
C148 C 0.3072 0.54428 0.02055 0.0
C149 C 0.30712 0.55401 0.97901 0.0
C150 C 0.30931 0.57816 0.97346 0.0
C151 C 0.3064 0.51861 0.02646 0.0
C152 C 0.32337 0.50499 0.0059 0.0
C153 C 0.29031 0.50779 0.05461 0.0
C154 C 0.27124 0.52109 0.07551 0.0
C155 C 0.25593 0.53471 0.05067 0.0
C156 C 0.23813 0.54737 0.07058 0.0
C157 C 0.23537 0.54644 0.11529 0.0
C158 C 0.25036 0.53279 0.14019 0.0
C159 C 0.2682 0.52011 0.12045 0.0
H160 H 0.22158 0.55625 0.13064 0.0
H161 H 0.39399 0.43271 0.93759 0.0
H162 H 0.39699 0.31397 0.98986 0.0
H163 H 0.43823 0.31176 0.97253 0.0
H164 H 0.45471 0.30898 0.1081 0.0
H165 H 0.41349 0.31172 0.12582 0.0
H166 H 0.48163 0.33939 0.06787 0.0
H167 H 0.45798 0.26006 0.04353 0.0
H168 H 0.43418 0.22847 0.01239 0.0
H169 H 0.45481 0.24913 0.88494 0.0
H170 H 0.4785 0.28105 0.91531 0.0
H171 H 0.59817 0.30551 0.05459 0.0
H172 H 0.55647 0.30374 0.06681 0.0
H173 H 0.54419 0.31423 0.93107 0.0
H174 H 0.58614 0.31593 0.91825 0.0
H175 H 0.51519 0.28014 0.96879 0.0
H176 H 0.53919 0.35943 0.99451 0.0
H177 H 0.56337 0.39037 0.02681 0.0
H178 H 0.54211 0.36889 0.15343 0.0
H179 H 0.51805 0.33758 0.12189 0.0
C180 C 0.40936 0.31278 0.01603 0.0
C181 C 0.40197 0.31303 0.05925 0.0
C182 C 0.43293 0.3114 0.00603 0.0
C183 C 0.44949 0.30993 0.03902 0.0
C184 C 0.44217 0.31008 0.08217 0.0
C185 C 0.41862 0.31162 0.09223 0.0
C186 C 0.47453 0.30913 0.02861 0.0
C187 C 0.489 0.32623 0.04669 0.0
C188 C 0.48401 0.29233 3e-05 0.0
C189 C 0.46983 0.27309 0.98168 0.0
C190 C 0.4573 0.25798 0.00885 0.0
C191 C 0.44385 0.24 0.99134 0.0
C192 C 0.44293 0.23683 0.94671 0.0
C193 C 0.45551 0.25162 0.9195 0.0
C194 C 0.46897 0.26965 0.93685 0.0
C195 C 0.58668 0.30729 0.02716 0.0
C196 C 0.59548 0.31111 0.98545 0.0
C197 C 0.56285 0.30629 0.03428 0.0
C198 C 0.54735 0.30919 -7e-05 0.0
C199 C 0.55597 0.31204 0.95797 0.0
C200 C 0.5799 0.31307 0.95076 0.0
C201 C 0.52217 0.31022 0.00844 0.0
C202 C 0.50773 0.29326 0.98993 0.0
C203 C 0.51268 0.32708 0.0368 0.0
C204 C 0.52698 0.34603 0.05584 0.0
C205 C 0.53981 0.36119 0.02925 0.0
C206 C 0.55347 0.37881 0.04742 0.0
C207 C 0.55432 0.38156 0.09215 0.0
C208 C 0.54145 0.36673 0.11879 0.0
C209 C 0.52779 0.34905 0.10079 0.0
H210 H 0.56491 0.39522 0.10615 0.0
H211 H 0.43251 0.2229 0.93322 0.0
H212 H 0.68262 0.40776 0.93242 0.0
H213 H 0.68549 0.44993 0.9452 0.0
H214 H 0.68034 0.43824 0.08223 0.0
H215 H 0.67726 0.39627 0.06992 0.0
H216 H 0.65163 0.4728 0.05554 0.0
H217 H 0.73188 0.45135 0.03704 0.0
H218 H 0.76523 0.43381 -0.00095 0.0
H219 H 0.75454 0.48033 0.89224 0.0
H220 H 0.7209 0.49793 0.92937 0.0
H221 H 0.68223 0.585 0.13053 0.0
H222 H 0.68374 0.54294 0.11661 0.0
H223 H 0.68928 0.55617 0.98011 0.0
H224 H 0.68807 0.5982 0.99362 0.0
H225 H 0.71797 0.52098 0.00538 0.0
H226 H 0.63786 0.54202 0.02193 0.0
H227 H 0.604 0.55964 0.05825 0.0
H228 H 0.61377 0.51393 0.16653 0.0
H229 H 0.64789 0.49624 0.13107 0.0
C230 C 0.68216 0.41417 0.96527 0.0
C231 C 0.6797 0.39865 0.00013 0.0
C232 C 0.68389 0.43824 0.97251 0.0
C233 C 0.68328 0.44713 0.01468 0.0
C234 C 0.68084 0.4317 0.04945 0.0
C235 C 0.67913 0.4077 0.0423 0.0
C236 C 0.68462 0.47258 0.02279 0.0
C237 C 0.66628 0.48329 0.04508 0.0
C238 C 0.70346 0.48629 0.0081 0.0
C239 C 0.72373 0.47579 0.9858 0.0
C240 C 0.73652 0.45771 0.0053 0.0
C241 C 0.7555 0.44778 0.98395 0.0
C242 C 0.76196 0.45591 0.9432 0.0
C243 C 0.74949 0.47403 0.92378 0.0
C244 C 0.73048 0.484 0.94497 0.0
C245 C 0.684 0.57899 0.09758 0.0
C246 C 0.68482 0.59496 0.06316 0.0
C247 C 0.68478 0.55495 0.08969 0.0
C248 C 0.68629 0.5465 0.04729 0.0
C249 C 0.68805 0.56237 0.01304 0.0
C250 C 0.68727 0.58638 0.02087 0.0
C251 C 0.68509 0.52112 0.03847 0.0
C252 C 0.70337 0.51046 0.01592 0.0
C253 C 0.66613 0.50743 0.05269 0.0
C254 C 0.64557 0.51798 0.07404 0.0
C255 C 0.6329 0.53586 0.05364 0.0
C256 C 0.61364 0.54583 0.07403 0.0
C257 C 0.60678 0.53796 0.11472 0.0
C258 C 0.61913 0.52004 0.13504 0.0
C259 C 0.63842 0.51001 0.11479 0.0
H260 H 0.59187 0.5457 0.13046 0.0
H261 H 0.77666 0.4482 0.92673 0.0
H262 H 0.39794 0.67439 0.07827 0.0
H263 H 0.43955 0.67555 0.09242 0.0
H264 H 0.45337 0.67338 0.95577 0.0
H265 H 0.41173 0.6718 0.94122 0.0
H266 H 0.48066 0.64343 -0.00118 0.0
H267 H 0.45893 0.72415 0.01229 0.0
H268 H 0.43619 0.75754 0.03978 0.0
H269 H 0.45818 0.742 0.16885 0.0
H270 H 0.48081 0.70831 0.14218 0.0
H271 H 0.5989 0.67576 0.00574 0.0
H272 H 0.55716 0.67615 0.99268 0.0
H273 H 0.54439 0.67367 0.12962 0.0
H274 H 0.58621 0.67336 0.14317 0.0
H275 H 0.51671 0.70602 0.0871 0.0
H276 H 0.53845 0.62532 0.07334 0.0
H277 H 0.56152 0.59224 0.04557 0.0
H278 H 0.5396 0.60806 0.91658 0.0
H279 H 0.51666 0.64148 0.94352 0.0
C280 C 0.4098 0.67422 0.05116 0.0
C281 C 0.40151 0.67304 0.00858 0.0
C282 C 0.43358 0.67498 0.05933 0.0
C283 C 0.4495 0.67482 0.02512 0.0
C284 C 0.44133 0.67355 0.98261 0.0
C285 C 0.41753 0.67271 0.97438 0.0
C286 C 0.47473 0.67548 0.03375 0.0
C287 C 0.48859 0.6573 0.01759 0.0
C288 C 0.48493 0.69327 0.05916 0.0
C289 C 0.47139 0.71357 0.07527 0.0
C290 C 0.45877 0.72774 0.04657 0.0
C291 C 0.44592 0.74674 0.062 0.0
C292 C 0.44569 0.75185 0.10604 0.0
C293 C 0.45835 0.738 0.13474 0.0
C294 C 0.47121 0.71897 0.11949 0.0
C295 C 0.58726 0.67535 0.03315 0.0
C296 C 0.59588 0.67441 0.07552 0.0
C297 C 0.56342 0.67552 0.02559 0.0
C298 C 0.54778 0.6747 0.06019 0.0
C299 C 0.55625 0.67426 0.10253 0.0
C300 C 0.58013 0.674 0.11017 0.0
C301 C 0.52256 0.67405 0.05202 0.0
C302 C 0.50872 0.6922 0.0683 0.0
C303 C 0.51238 0.65625 0.02668 0.0
C304 C 0.52601 0.63604 0.01041 0.0
C305 C 0.53869 0.62186 0.03901 0.0
C306 C 0.55172 0.60303 0.02343 0.0
C307 C 0.55207 0.59808 0.97933 0.0
C308 C 0.53934 0.61193 0.95073 0.0
C309 C 0.5263 0.63081 0.96614 0.0
H310 H 0.56217 0.5835 0.96733 0.0
H311 H 0.43574 0.76657 0.11792 0.0
H312 H 0.81016 0.89984 0.50344 0.0
H313 H 0.80412 0.94172 0.49386 0.0
H314 H 0.79771 0.95032 0.63153 0.0
H315 H 0.80424 0.90841 0.64159 0.0
H316 H 0.76944 0.97101 0.51284 0.0
H317 H 0.82214 0.0023 0.66004 0.0
H318 H 0.85459 0.989 0.70578 0.0
H319 H 0.88158 0.94822 0.60081 0.0
H320 H 0.84948 0.96153 0.55432 0.0
H321 H 0.79367 0.10077 0.58331 0.0
H322 H 0.79029 0.059 0.59803 0.0
H323 H 0.79791 0.04411 0.46241 0.0
H324 H 0.80098 0.08591 0.44722 0.0
H325 H 0.82302 0.02679 0.5841 0.0
H326 H 0.76983 0.99341 0.43816 0.0
H327 H 0.73833 0.00701 0.39054 0.0
H328 H 0.71337 0.05261 0.49037 0.0
H329 H 0.74451 0.03905 0.53878 0.0
C330 C 0.8074 0.91059 0.53175 0.0
C331 C 0.8079 0.90081 0.57335 0.0
C332 C 0.80384 0.93452 0.52616 0.0
C333 C 0.80072 0.94914 0.56198 0.0
C334 C 0.80046 0.93936 0.60348 0.0
C335 C 0.80415 0.91541 0.60916 0.0
C336 C 0.79859 0.97471 0.55575 0.0
C337 C 0.78124 0.98323 0.52815 0.0
C338 C 0.81372 0.99062 0.57642 0.0
C339 C 0.83325 0.98269 0.60392 0.0
C340 C 0.83504 0.99055 0.64672 0.0
C341 C 0.85337 0.983 0.67277 0.0
C342 C 0.87008 0.9677 0.65626 0.0
C343 C 0.86857 0.95999 0.61361 0.0
C344 C 0.8503 0.96751 0.58742 0.0
C345 C 0.79433 0.08866 0.55648 0.0
C346 C 0.7977 0.09668 0.51407 0.0
C347 C 0.79242 0.06478 0.56501 0.0
C348 C 0.79374 0.04848 0.53133 0.0
C349 C 0.79649 0.05642 0.48882 0.0
C350 C 0.79835 0.08033 0.48022 0.0
C351 C 0.79393 0.02314 0.54101 0.0
C352 C 0.81101 0.01464 0.56917 0.0
C353 C 0.77865 0.00728 0.52061 0.0
C354 C 0.75965 0.01535 0.49195 0.0
C355 C 0.75756 0.00626 0.45002 0.0
C356 C 0.73977 0.01398 0.42287 0.0
C357 C 0.7239 0.03071 0.43738 0.0
C358 C 0.72573 0.03971 0.47912 0.0
C359 C 0.74347 0.03204 0.5064 0.0
H360 H 0.71016 0.03668 0.4163 0.0
H361 H 0.88425 0.96187 0.67649 0.0
H362 H 0.08412 0.81997 0.43758 0.0
H363 H 0.04253 0.82056 0.45317 0.0
H364 H 0.05686 0.8114 0.58859 0.0
H365 H 0.09839 0.81049 0.57338 0.0
H366 H 0.0214 0.78409 0.56272 0.0
H367 H 0.04347 0.86453 0.55039 0.0
H368 H 0.06113 0.89901 0.5157 0.0
H369 H 0.01403 0.89247 0.40921 0.0
H370 H -0.0037 0.85772 0.44298 0.0
H371 H 0.91093 0.81977 0.6429 0.0
H372 H 0.95258 0.818 0.62775 0.0
H373 H 0.93866 0.82265 0.49144 0.0
H374 H 0.89708 0.82442 0.50611 0.0
H375 H 0.97389 0.85242 0.51846 0.0
H376 H 0.95205 0.77144 0.53237 0.0
H377 H 0.93469 0.73731 0.56868 0.0
H378 H 0.98173 0.74574 0.67482 0.0
H379 H -0.00083 0.78014 0.63938 0.0
C380 C 0.07843 0.81795 0.47065 0.0
C381 C 0.09457 0.81531 0.50426 0.0
C382 C 0.05468 0.81839 0.47951 0.0
C383 C 0.0467 0.81633 0.52209 0.0
C384 C 0.06271 0.81307 0.55553 0.0
C385 C 0.08644 0.81262 0.54674 0.0
C386 C 0.02165 0.81787 0.53192 0.0
C387 C 0.01106 0.79915 0.55353 0.0
C388 C 0.00817 0.8374 0.51932 0.0
C389 C 0.01872 0.85837 0.49901 0.0
C390 C 0.037 0.87033 0.51941 0.0
C391 C 0.04701 0.88994 0.49994 0.0
C392 C 0.03875 0.89789 0.46023 0.0
C393 C 0.02043 0.88627 0.43995 0.0
C394 C 0.01039 0.86663 0.45925 0.0
C395 C 0.91673 0.82044 0.6097 0.0
C396 C 0.9007 0.82216 0.5757 0.0
C397 C 0.9405 0.81936 0.60113 0.0
C398 C 0.94859 0.82005 0.55848 0.0
C399 C 0.93269 0.82209 0.52455 0.0
C400 C 0.90895 0.823 0.53304 0.0
C401 C 0.97368 0.81862 0.5491 0.0
C402 C 0.98426 0.83738 0.52763 0.0
C403 C 0.98719 0.79922 0.5621 0.0
C404 C 0.97674 0.77852 0.58343 0.0
C405 C 0.95856 0.76615 0.56363 0.0
C406 C 0.94873 0.74673 0.58401 0.0
C407 C 0.95706 0.7394 0.62409 0.0
C408 C 0.97527 0.75145 0.64381 0.0
C409 C 0.98515 0.7709 0.62357 0.0
H410 H 0.94943 0.72436 0.63982 0.0
H411 H 0.04652 0.91307 0.44521 0.0
H412 H 0.17537 0.08505 0.63163 0.0
H413 H 0.17908 0.04282 0.62006 0.0
H414 H 0.17265 0.05313 0.48286 0.0
H415 H 0.16888 0.09515 0.49394 0.0
H416 H 0.14449 0.01807 0.51297 0.0
H417 H 0.22448 0.0418 0.52494 0.0
H418 H 0.25802 0.06059 0.56004 0.0
H419 H 0.25058 0.01498 0.66911 0.0
H420 H 0.21678 0.99612 0.6349 0.0
H421 H 0.17682 0.90566 0.44022 0.0
H422 H 0.17724 0.94795 0.45215 0.0
H423 H 0.18602 0.93675 0.58867 0.0
H424 H 0.18587 0.89456 0.57714 0.0
H425 H 0.21314 0.97221 0.5598 0.0
H426 H 0.13352 0.94879 0.55024 0.0
H427 H 0.09939 0.92983 0.51746 0.0
H428 H 0.10516 0.9747 0.40701 0.0
H429 H 0.13954 0.99371 0.43888 0.0
C430 C 0.17482 0.07833 0.599 0.0
C431 C 0.17184 0.09347 0.56372 0.0
C432 C 0.17701 0.05423 0.59246 0.0
C433 C 0.17625 0.04495 0.55058 0.0
C434 C 0.17326 0.05999 0.5154 0.0
C435 C 0.17119 0.08402 0.52185 0.0
C436 C 0.1781 0.01948 0.54324 0.0
C437 C 0.15962 0.00807 0.52268 0.0
C438 C 0.19759 0.00645 0.557 0.0
C439 C 0.21795 0.01772 0.57755 0.0
C440 C 0.22988 0.03591 0.55657 0.0
C441 C 0.24896 0.04655 0.57627 0.0
C442 C 0.25639 0.03903 0.61683 0.0
C443 C 0.24479 0.02081 0.63772 0.0
C444 C 0.22568 0.01013 0.61818 0.0
C445 C 0.17907 0.91219 0.47272 0.0
C446 C 0.18111 0.89674 0.50776 0.0
C447 C 0.17922 0.93634 0.47949 0.0
C448 C 0.18135 0.9454 0.52136 0.0
C449 C 0.1843 0.93007 0.55614 0.0
C450 C 0.18412 0.90596 0.54945 0.0
C451 C 0.17962 0.97084 0.5292 0.0
C452 C 0.19804 0.98222 0.54998 0.0
C453 C 0.15999 0.98385 0.51597 0.0
C454 C 0.13926 0.9725 0.49675 0.0
C455 C 0.12763 0.95448 0.5188 0.0
C456 C 0.10822 0.94375 0.50041 0.0
C457 C 0.10015 0.95101 0.46012 0.0
C458 C 0.11145 0.96906 0.43819 0.0
C459 C 0.13089 0.97984 0.45641 0.0
H460 H 0.08512 0.94268 0.44595 0.0
H461 H 0.27117 0.04728 0.63203 0.0
H462 H 0.88833 0.17546 0.56823 0.0
H463 H 0.93008 0.17756 0.57996 0.0
H464 H 0.94173 0.17452 0.44266 0.0
H465 H 0.89988 0.17192 0.43055 0.0
H466 H 0.97068 0.14611 0.48457 0.0
H467 H 0.94705 0.22606 0.49765 0.0
H468 H 0.92373 0.25906 0.52503 0.0
H469 H 0.94725 0.24506 0.65376 0.0
H470 H 0.97047 0.21175 0.62723 0.0
H471 H 0.08914 0.17833 0.49489 0.0
H472 H 0.0476 0.17954 0.47971 0.0
H473 H 0.03279 0.17715 0.61595 0.0
H474 H 0.07436 0.17605 0.63162 0.0
H475 H 0.00582 0.20951 0.57217 0.0
H476 H 0.02818 0.12864 0.55886 0.0
H477 H 0.05164 0.09582 0.53114 0.0
H478 H 0.03052 0.11211 0.40187 0.0
H479 H 0.00718 0.14525 0.4288 0.0
C480 C 0.89973 0.17526 0.54046 0.0
C481 C 0.89078 0.1736 0.49842 0.0
C482 C 0.9236 0.17658 0.54724 0.0
C483 C 0.93895 0.17657 0.51215 0.0
C484 C 0.93013 0.17464 0.47016 0.0
C485 C 0.90623 0.17318 0.46332 0.0
C486 C 0.96425 0.17807 0.51946 0.0
C487 C 0.97841 0.16018 0.5031 0.0
C488 C 0.97422 0.19619 0.54444 0.0
C489 C 0.96034 0.21628 0.56049 0.0
C490 C 0.94711 0.22991 0.53184 0.0
C491 C 0.93393 0.24869 0.5472 0.0
C492 C 0.93396 0.25412 0.59112 0.0
C493 C 0.94722 0.24081 0.61975 0.0
C494 C 0.96042 0.222 0.60457 0.0
C495 C 0.07708 0.17817 0.5217 0.0
C496 C 0.08504 0.17694 0.56449 0.0
C497 C 0.05337 0.17881 0.51292 0.0
C498 C 0.03722 0.17818 0.54672 0.0
C499 C 0.04506 0.17761 0.58947 0.0
C500 C 0.06879 0.17689 0.59832 0.0
C501 C 0.01212 0.17753 0.5374 0.0
C502 C -0.00196 0.19555 0.55342 0.0
C503 C 0.00222 0.15958 0.51202 0.0
C504 C 0.01613 0.13957 0.4958 0.0
C505 C 0.02868 0.12534 0.52449 0.0
C506 C 0.04193 0.10666 0.50893 0.0
C507 C 0.04262 0.10192 0.46476 0.0
C508 C 0.03 0.11582 0.43607 0.0
C509 C 0.01675 0.13454 0.45146 0.0
H510 H 0.05289 0.08745 0.45277 0.0
H511 H 0.92375 0.26867 0.60294 0.0
H512 H 0.2034 0.17103 0.3871 0.0
H513 H 0.21749 0.18876 0.32052 0.0
H514 H 0.17258 0.24812 0.34072 0.0
H515 H 0.15844 0.23059 0.40797 0.0
H516 H 0.17831 0.22962 0.24841 0.0
H517 H 0.22059 0.2579 0.37299 0.0
H518 H 0.24176 0.2527 0.44138 0.0
H519 H 0.29225 0.20976 0.37714 0.0
H520 H 0.27114 0.21441 0.30847 0.0
H521 H 0.2445 0.30675 0.11255 0.0
H522 H 0.22032 0.28873 0.16836 0.0
H523 H 0.27318 0.23643 0.18971 0.0
H524 H 0.29769 0.25492 0.13546 0.0
H525 H 0.26066 0.25385 0.26236 0.0
H526 H 0.21973 0.22494 0.13804 0.0
H527 H 0.19864 0.22813 0.06916 0.0
H528 H 0.14616 0.26992 0.13038 0.0
H529 H 0.16712 0.26725 0.19953 0.0
C530 C 0.19617 0.18765 0.37707 0.0
C531 C 0.18005 0.19959 0.40301 0.0
C532 C 0.20419 0.19769 0.33898 0.0
C533 C 0.19612 0.21973 0.32611 0.0
C534 C 0.17889 0.23104 0.35028 0.0
C535 C 0.17098 0.22108 0.38872 0.0
C536 C 0.20787 0.23197 0.29051 0.0
C537 C 0.19621 0.23526 0.25137 0.0
C538 C 0.23128 0.23888 0.29458 0.0
C539 C 0.24417 0.23632 0.33571 0.0
C540 C 0.2361 0.24719 0.37353 0.0
C541 C 0.2481 0.24437 0.41233 0.0
C542 C 0.2683 0.23086 0.41363 0.0
C543 C 0.27658 0.22019 0.3761 0.0
C544 C 0.26462 0.22293 0.33723 0.0
C545 C 0.2508 0.29127 0.12892 0.0
C546 C 0.273 0.2823 0.12005 0.0
C547 C 0.23694 0.28092 0.16061 0.0
C548 C 0.2449 0.26116 0.18309 0.0
C549 C 0.26674 0.25175 0.17298 0.0
C550 C 0.28072 0.2623 0.14197 0.0
C551 C 0.2314 0.25112 0.21926 0.0
C552 C 0.24273 0.24834 0.25896 0.0
C553 C 0.20779 0.24455 0.21536 0.0
C554 C 0.19513 0.2461 0.17385 0.0
C555 C 0.20379 0.23497 0.13673 0.0
C556 C 0.19184 0.23665 0.09766 0.0
C557 C 0.17111 0.24928 0.09536 0.0
C558 C 0.16224 0.26018 0.13218 0.0
C559 C 0.17414 0.25858 0.17133 0.0
H560 H 0.16188 0.25056 0.06508 0.0
H561 H 0.27757 0.22869 0.4437 0.0
H562 H 0.67563 0.32469 0.19163 0.0
H563 H 0.68436 0.30987 0.26381 0.0
H564 H 0.69359 0.24049 0.21146 0.0
H565 H 0.68373 0.25499 0.13983 0.0
H566 H 0.67673 0.23683 0.28877 0.0
H567 H 0.73972 0.28031 0.22269 0.0
H568 H 0.75788 0.31508 0.18981 0.0
H569 H 0.74397 0.3548 0.30448 0.0
H570 H 0.72549 0.3203 0.33783 0.0
H571 H 0.79257 0.21784 0.40592 0.0
H572 H 0.7683 0.23661 0.35205 0.0
H573 H 0.70894 0.23065 0.43631 0.0
H574 H 0.73323 0.21108 0.49039 0.0
H575 H 0.74557 0.27577 0.35238 0.0
H576 H 0.66014 0.22496 0.37109 0.0
H577 H 0.64607 0.18663 0.39676 0.0
H578 H 0.71188 0.15556 0.36576 0.0
H579 H 0.72621 0.19362 0.33946 0.0
C580 C 0.67911 0.3062 0.19577 0.0
C581 C 0.6794 0.29102 0.16017 0.0
C582 C 0.68408 0.29776 0.23695 0.0
C583 C 0.69014 0.27418 0.24286 0.0
C584 C 0.68899 0.25876 0.2077 0.0
C585 C 0.6835 0.26708 0.16672 0.0
C586 C 0.70027 0.266 0.28405 0.0
C587 C 0.6916 0.24549 0.30303 0.0
C588 C 0.71984 0.27715 0.30242 0.0
C589 C 0.73099 0.29786 0.2825 0.0
C590 C 0.74042 0.29651 0.24075 0.0
C591 C 0.75077 0.31615 0.22206 0.0
C592 C 0.75201 0.33716 0.24499 0.0
C593 C 0.74295 0.33854 0.28672 0.0
C594 C 0.73253 0.31896 0.30553 0.0
C595 C 0.77436 0.22053 0.41313 0.0
C596 C 0.76477 0.21297 0.45232 0.0
C597 C 0.76052 0.23135 0.38234 0.0
C598 C 0.73681 0.23501 0.39013 0.0
C599 C 0.72715 0.22777 0.4295 0.0
C600 C 0.74103 0.21667 0.46033 0.0
C601 C 0.72255 0.24616 0.35623 0.0
C602 C 0.73033 0.26739 0.33884 0.0
C603 C 0.70276 0.23518 0.33843 0.0
C604 C 0.69432 0.21219 0.35392 0.0
C605 C 0.67158 0.20993 0.36974 0.0
C606 C 0.66356 0.18826 0.38437 0.0
C607 C 0.67811 0.1687 0.38307 0.0
C608 C 0.70067 0.17074 0.36695 0.0
C609 C 0.70875 0.19236 0.35223 0.0
H610 H 0.67188 0.15194 0.39443 0.0
H611 H 0.76003 0.35235 0.23047 0.0
H612 H 0.78772 0.82132 0.39085 0.0
H613 H 0.77634 0.80236 0.32367 0.0
H614 H 0.82292 0.74513 0.3503 0.0
H615 H 0.83431 0.76386 0.41825 0.0
H616 H 0.81747 0.76429 0.25449 0.0
H617 H 0.77707 0.73108 0.37799 0.0
H618 H 0.75569 0.73428 0.44665 0.0
H619 H 0.70302 0.77531 0.38443 0.0
H620 H 0.72432 0.77266 0.31554 0.0
H621 H 0.75397 0.68618 0.11351 0.0
H622 H 0.77809 0.70386 0.16991 0.0
H623 H 0.72365 0.75371 0.19692 0.0
H624 H 0.69934 0.73563 0.14209 0.0
H625 H 0.73701 0.73419 0.26772 0.0
H626 H 0.77594 0.76843 0.14519 0.0
H627 H 0.79709 0.76792 0.07605 0.0
H628 H 0.85172 0.72758 0.13377 0.0
H629 H 0.83074 0.7276 0.20315 0.0
C630 C 0.79593 0.80493 0.38211 0.0
C631 C 0.81166 0.7939 0.41007 0.0
C632 C 0.78948 0.79421 0.34365 0.0
C633 C 0.79878 0.7724 0.33238 0.0
C634 C 0.8157 0.76205 0.35858 0.0
C635 C 0.82203 0.77269 0.39741 0.0
C636 C 0.78824 0.75922 0.29664 0.0
C637 C 0.80004 0.75729 0.2573 0.0
C638 C 0.76542 0.75055 0.30056 0.0
C639 C 0.7524 0.75185 0.34176 0.0
C640 C 0.76103 0.74095 0.37906 0.0
C641 C 0.74891 0.74264 0.41799 0.0
C642 C 0.72804 0.75504 0.41993 0.0
C643 C 0.7192 0.76573 0.3829 0.0
C644 C 0.73128 0.76412 0.3439 0.0
C645 C 0.74734 0.70109 0.13123 0.0
C646 C 0.72475 0.70943 0.12387 0.0
C647 C 0.76115 0.71123 0.16327 0.0
C648 C 0.75266 0.73011 0.18763 0.0
C649 C 0.73048 0.73903 0.17879 0.0
C650 C 0.71661 0.72871 0.14744 0.0
C651 C 0.76588 0.73968 0.22454 0.0
C652 C 0.75455 0.74087 0.26454 0.0
C653 C 0.78903 0.74779 0.22087 0.0
C654 C 0.80164 0.74778 0.17921 0.0
C655 C 0.79236 0.75928 0.14303 0.0
C656 C 0.80434 0.75912 0.10383 0.0
C657 C 0.8257 0.74766 0.10048 0.0
C658 C 0.83516 0.73641 0.13638 0.0
C659 C 0.82324 0.7365 0.17566 0.0
H660 H 0.83495 0.74756 0.0701 0.0
H661 H 0.71868 0.75633 0.4501 0.0
H662 H 0.25513 0.80425 0.47395 0.0
H663 H 0.28221 0.78504 0.42415 0.0
H664 H 0.22792 0.73794 0.38396 0.0
H665 H 0.20079 0.7571 0.43311 0.0
H666 H 0.27214 0.71613 0.39701 0.0
H667 H 0.2372 0.78448 0.3263 0.0
H668 H 0.22907 0.82674 0.3208 0.0
H669 H 0.30216 0.84134 0.32073 0.0
H670 H 0.31069 0.79914 0.3268 0.0
H671 H 0.28196 0.67511 0.18758 0.0
H672 H 0.27336 0.69182 0.25787 0.0
H673 H 0.33124 0.73921 0.24452 0.0
H674 H 0.33935 0.72309 0.17289 0.0
H675 H 0.29569 0.76236 0.26893 0.0
H676 H 0.33093 0.69362 0.32161 0.0
H677 H 0.33986 0.65156 0.32718 0.0
H678 H 0.26934 0.63737 0.36336 0.0
H679 H 0.25986 0.67929 0.35742 0.0
C680 C 0.24907 0.78965 0.45478 0.0
C681 C 0.22582 0.78228 0.45702 0.0
C682 C 0.26454 0.77871 0.42649 0.0
C683 C 0.25698 0.76015 0.4005 0.0
C684 C 0.23405 0.75219 0.40398 0.0
C685 C 0.21855 0.76325 0.4318 0.0
C686 C 0.27214 0.75003 0.367 0.0
C687 C 0.27743 0.72613 0.36896 0.0
C688 C 0.27973 0.76343 0.33144 0.0
C689 C 0.27457 0.78873 0.32757 0.0
C690 C 0.25152 0.79673 0.32548 0.0
C691 C 0.24684 0.82066 0.32219 0.0
C692 C 0.26509 0.83673 0.32057 0.0
C693 C 0.28805 0.82888 0.32209 0.0
C694 C 0.29281 0.80497 0.32545 0.0
C695 C 0.29306 0.68887 0.19981 0.0
C696 C 0.31126 0.69787 0.17472 0.0
C697 C 0.28827 0.69828 0.24027 0.0
C698 C 0.30192 0.71651 0.25694 0.0
C699 C 0.32055 0.72508 0.23241 0.0
C700 C 0.32515 0.71588 0.19153 0.0
C701 C 0.29503 0.72802 0.29782 0.0
C702 C 0.29122 0.75228 0.29738 0.0
C703 C 0.28907 0.71494 0.33499 0.0
C704 C 0.29467 0.68966 0.33893 0.0
C705 C 0.31728 0.68153 0.33053 0.0
C706 C 0.32245 0.6577 0.33377 0.0
C707 C 0.30518 0.6418 0.34559 0.0
C708 C 0.2827 0.64971 0.35426 0.0
C709 C 0.27744 0.67352 0.35104 0.0
H710 H 0.30921 0.62336 0.34806 0.0
H711 H 0.26143 0.85525 0.31801 0.0
H712 H 0.21058 0.81675 0.68569 0.0
H713 H 0.22237 0.79828 0.7531 0.0
H714 H 0.17375 0.74226 0.73125 0.0
H715 H 0.16198 0.76045 0.66301 0.0
H716 H 0.18128 0.764 0.82629 0.0
H717 H 0.2176 0.72492 0.70403 0.0
H718 H 0.23771 0.72499 0.63381 0.0
H719 H 0.29335 0.76526 0.68818 0.0
H720 H 0.27334 0.76574 0.75857 0.0
H721 H 0.24311 0.68631 0.97012 0.0
H722 H 0.21913 0.70364 0.91323 0.0
H723 H 0.27527 0.75024 0.87997 0.0
H724 H 0.29942 0.73258 0.93559 0.0
H725 H 0.25985 0.72928 0.81117 0.0
H726 H 0.22504 0.76893 0.9324 0.0
H727 H 0.20523 0.77157 0.00273 0.0
H728 H 0.14752 0.73273 0.95243 0.0
H729 H 0.16714 0.7296 0.88192 0.0
C730 C 0.20204 0.80073 0.69552 0.0
C731 C 0.18558 0.78986 0.66885 0.0
C732 C 0.20874 0.79029 0.73409 0.0
C733 C 0.19891 0.76898 0.7468 0.0
C734 C 0.18137 0.75881 0.72183 0.0
C735 C 0.17482 0.76912 0.68285 0.0
C736 C 0.20937 0.75611 0.78293 0.0
C737 C 0.19826 0.75597 0.8231 0.0
C738 C 0.23164 0.74612 0.77847 0.0
C739 C 0.24387 0.74556 0.73639 0.0
C740 C 0.23402 0.73396 0.70089 0.0
C741 C 0.24542 0.73387 0.66109 0.0
C742 C 0.26677 0.74518 0.6565 0.0
C743 C 0.2768 0.75653 0.69176 0.0
C744 C 0.26545 0.75671 0.73162 0.0
C745 C 0.25018 0.70044 0.95094 0.0
C746 C 0.27317 0.70799 0.95692 0.0
C747 C 0.23646 0.71037 0.91861 0.0
C748 C 0.24543 0.72823 0.8924 0.0
C749 C 0.26807 0.73636 0.89962 0.0
C750 C 0.28183 0.72628 0.93143 0.0
C751 C 0.2321 0.73751 0.85542 0.0
C752 C 0.24272 0.73695 0.81472 0.0
C753 C 0.20947 0.74693 0.8597 0.0
C754 C 0.19768 0.74879 0.90205 0.0
C755 C 0.20822 0.76077 0.93645 0.0
C756 C 0.197 0.7624 0.97632 0.0
C757 C 0.17516 0.75226 0.98208 0.0
C758 C 0.16446 0.74054 0.94794 0.0
C759 C 0.17561 0.73884 0.90802 0.0
H760 H 0.1665 0.75355 0.01297 0.0
H761 H 0.27557 0.74509 0.62566 0.0
H762 H 0.28341 0.31859 0.88602 0.0
H763 H 0.26982 0.30102 0.81896 0.0
H764 H 0.31432 0.24145 0.83995 0.0
H765 H 0.32798 0.25883 0.90763 0.0
H766 H 0.30935 0.25981 0.74761 0.0
H767 H 0.26594 0.23199 0.87131 0.0
H768 H 0.24434 0.23745 0.93925 0.0
H769 H 0.19469 0.28079 0.8739 0.0
H770 H 0.21623 0.27588 0.80568 0.0
H771 H 0.24276 0.18257 0.61181 0.0
H772 H 0.26715 0.20076 0.66713 0.0
H773 H 0.21504 0.25405 0.68674 0.0
H774 H 0.19036 0.23546 0.63298 0.0
H775 H 0.22671 0.2363 0.75986 0.0
H776 H 0.26874 0.26457 0.63625 0.0
H777 H 0.29031 0.26106 0.56786 0.0
H778 H 0.34203 0.21902 0.63051 0.0
H779 H 0.32058 0.22201 0.69918 0.0
C780 C 0.29065 0.30195 0.87608 0.0
C781 C 0.3065 0.28991 0.90235 0.0
C782 C 0.28293 0.29201 0.83771 0.0
C783 C 0.29103 0.26996 0.8249 0.0
C784 C 0.308 0.25855 0.84945 0.0
C785 C 0.31562 0.26841 0.88814 0.0
C786 C 0.27946 0.25777 0.78906 0.0
C787 C 0.29138 0.25432 0.75019 0.0
C788 C 0.25597 0.25105 0.79267 0.0
C789 C 0.24281 0.25375 0.83351 0.0
C790 C 0.25052 0.24284 0.87151 0.0
C791 C 0.23828 0.24581 0.91005 0.0
C792 C 0.21819 0.2595 0.91091 0.0
C793 C 0.21027 0.2702 0.87319 0.0
C794 C 0.22247 0.26732 0.83458 0.0
C795 C 0.2367 0.19832 0.62765 0.0
C796 C 0.21462 0.20752 0.61855 0.0
C797 C 0.25067 0.20876 0.65905 0.0
C798 C 0.24293 0.2288 0.681 0.0
C799 C 0.2213 0.2385 0.67044 0.0
C800 C 0.20722 0.22789 0.63972 0.0
C801 C 0.25629 0.23874 0.71739 0.0
C802 C 0.2447 0.24165 0.75683 0.0
C803 C 0.27998 0.24507 0.71397 0.0
C804 C 0.29292 0.24331 0.67274 0.0
C805 C 0.28461 0.25442 0.63536 0.0
C806 C 0.29683 0.25255 0.59656 0.0
C807 C 0.31749 0.23977 0.59481 0.0
C808 C 0.326 0.22888 0.6319 0.0
C809 C 0.31383 0.23067 0.67077 0.0
H810 H 0.32693 0.23835 0.56475 0.0
H811 H 0.20873 0.26178 0.94079 0.0
H812 H 0.75581 0.31502 0.96623 0.0
H813 H 0.78496 0.29818 0.9173 0.0
H814 H 0.73788 0.24202 0.88632 0.0
H815 H 0.70869 0.25887 0.93418 0.0
H816 H 0.78606 0.22811 0.89806 0.0
H817 H 0.73724 0.28676 0.82405 0.0
H818 H 0.72222 0.32692 0.81553 0.0
H819 H 0.79185 0.35306 0.80509 0.0
H820 H 0.80726 0.31303 0.81413 0.0
H821 H 0.78432 0.18101 0.69382 0.0
H822 H 0.78024 0.19923 0.7642 0.0
H823 H 0.83117 0.25124 0.72926 0.0
H824 H 0.83487 0.23333 0.65782 0.0
H825 H 0.79478 0.27161 0.76064 0.0
H826 H 0.84246 0.21088 0.81093 0.0
H827 H 0.85783 0.17088 0.81896 0.0
H828 H 0.79346 0.14869 0.87541 0.0
H829 H 0.77754 0.18845 0.86715 0.0
C830 C 0.75188 0.29891 0.94939 0.0
C831 C 0.72997 0.28833 0.95351 0.0
C832 C 0.76851 0.28932 0.92165 0.0
C833 C 0.76349 0.26889 0.89842 0.0
C834 C 0.74208 0.25772 0.90427 0.0
C835 C 0.72537 0.26747 0.93128 0.0
C836 C 0.77915 0.26022 0.86436 0.0
C837 C 0.78824 0.23757 0.86803 0.0
C838 C 0.78268 0.27306 0.82603 0.0
C839 C 0.77339 0.29702 0.82034 0.0
C840 C 0.74933 0.30111 0.82029 0.0
C841 C 0.74075 0.32383 0.81531 0.0
C842 C 0.75607 0.34254 0.80993 0.0
C843 C 0.78001 0.33856 0.80938 0.0
C844 C 0.78867 0.31587 0.81444 0.0
C845 C 0.79491 0.19613 0.70124 0.0
C846 C 0.80979 0.20584 0.67021 0.0
C847 C 0.79275 0.20641 0.74174 0.0
C848 C 0.8057 0.2264 0.75235 0.0
C849 C 0.82113 0.23574 0.72186 0.0
C850 C 0.82319 0.22552 0.68108 0.0
C851 C 0.80082 0.23883 0.79329 0.0
C852 C 0.79366 0.26228 0.79101 0.0
C853 C 0.79932 0.22674 0.83303 0.0
C854 C 0.80878 0.20272 0.83833 0.0
C855 C 0.83151 0.19746 0.82484 0.0
C856 C 0.84034 0.17481 0.82946 0.0
C857 C 0.82663 0.15726 0.84767 0.0
C858 C 0.80407 0.16232 0.86136 0.0
C859 C 0.79516 0.18493 0.8568 0.0
H860 H 0.83349 0.13973 0.8512 0.0
H861 H 0.7494 0.36012 0.80607 0.0
H862 H 0.66456 0.73882 0.9266 0.0
H863 H 0.67292 0.75849 0.85831 0.0
H864 H 0.71024 0.69752 0.81428 0.0
H865 H 0.70177 0.6777 0.88208 0.0
H866 H 0.71512 0.76967 0.83232 0.0
H867 H 0.70917 0.69388 0.70622 0.0
H868 H 0.68396 0.66008 0.69081 0.0
H869 H 0.62766 0.69321 0.758 0.0
H870 H 0.65239 0.72737 0.77327 0.0
H871 H 0.79818 0.77719 0.67135 0.0
H872 H 0.77141 0.76227 0.7257 0.0
H873 H 0.71321 0.78201 0.64627 0.0
H874 H 0.73999 0.79712 0.59138 0.0
H875 H 0.70901 0.73703 0.6845 0.0
H876 H 0.72347 0.81579 0.72565 0.0
H877 H 0.74738 0.85065 0.74023 0.0
H878 H 0.78256 0.81409 0.84189 0.0
H879 H 0.75912 0.77887 0.82748 0.0
C880 C 0.6742 0.72946 0.90204 0.0
C881 C 0.68271 0.7068 0.9098 0.0
C882 C 0.67892 0.74071 0.86308 0.0
C883 C 0.69206 0.72941 0.83117 0.0
C884 C 0.69973 0.70642 0.83817 0.0
C885 C 0.69504 0.69518 0.87709 0.0
C886 C 0.7003 0.74244 0.79294 0.0
C887 C 0.71349 0.7627 0.79994 0.0
C888 C 0.6978 0.73358 0.75059 0.0
C889 C 0.68272 0.71316 0.7411 0.0
C890 C 0.69137 0.69404 0.71749 0.0
C891 C 0.67717 0.67479 0.70883 0.0
C892 C 0.65424 0.67448 0.72349 0.0
C893 C 0.64544 0.69344 0.74677 0.0
C894 C 0.65957 0.71274 0.7555 0.0
C895 C 0.7797 0.77825 0.66524 0.0
C896 C 0.77116 0.78846 0.62726 0.0
C897 C 0.76445 0.76979 0.69636 0.0
C898 C 0.7404 0.77134 0.69008 0.0
C899 C 0.73175 0.78078 0.65162 0.0
C900 C 0.74704 0.78943 0.62047 0.0
C901 C 0.72457 0.76346 0.72452 0.0
C902 C 0.71009 0.74422 0.71679 0.0
C903 C 0.72558 0.77342 0.76618 0.0
C904 C 0.7396 0.79464 0.77532 0.0
C905 C 0.73641 0.81513 0.75093 0.0
C906 C 0.74987 0.83496 0.75919 0.0
C907 C 0.7665 0.83458 0.79193 0.0
C908 C 0.76967 0.81436 0.81654 0.0
C909 C 0.75627 0.79447 0.80838 0.0
H910 H 0.7769 0.84995 0.79826 0.0
H911 H 0.64327 0.65955 0.71677 0.0
loop_
_geom_bond_atom_site_label_1
_geom_bond_atom_site_label_2
_geom_bond_distance
_geom_bond_site_symmetry_2
_ccdc_geom_bond_type
C0 O1 1.306 . S
C0 O3 1.160 1_554 S
O1 C0 1.306 . S
O1 Cd2 2.228 . S
Cd2 O1 2.228 . S
Cd2 O6 2.273 . S
Cd2 O10 2.277 . S
O3 C0 1.160 1_556 S
O3 Cd4 2.203 1_556 S
Cd4 O3 2.203 1_554 S
Cd4 O6 2.411 . S
Cd4 O7 2.333 . S
Cd4 O8 2.352 1_554 S
Cd4 O12 2.277 . S
Cd4 O13 2.356 1_554 S
C5 O10 1.209 . S
C5 O12 1.226 . S
O6 Cd2 2.273 . S
O6 Cd4 2.411 . S
O6 C9 1.320 . S
O7 Cd4 2.333 . S
O7 C9 1.214 . S
O8 Cd4 2.352 1_556 S
O8 C11 1.258 . S
C9 O6 1.320 . S
C9 O7 1.214 . S
O10 Cd2 2.277 . S
O10 C5 1.209 . S
C11 O8 1.258 . S
C11 O13 1.282 . S
O12 Cd4 2.277 . S
O12 C5 1.226 . S
O13 Cd4 2.356 1_556 S
O13 C11 1.282 . S
C14 O15 1.306 . S
C14 O17 1.160 . S
O15 C14 1.306 . S
O15 Cd16 2.228 1_554 S
Cd16 O15 2.228 1_556 S
Cd16 O20 2.273 . S
Cd16 O24 2.277 1_556 S
O17 C14 1.160 . S
O17 Cd18 2.203 . S
Cd18 O17 2.203 . S
Cd18 O20 2.411 1_554 S
Cd18 O21 2.333 . S
Cd18 O22 2.352 . S
Cd18 O26 2.277 . S
Cd18 O27 2.356 . S
C19 O24 1.209 . S
C19 O26 1.226 . S
O20 Cd16 2.273 . S
O20 Cd18 2.411 1_556 S
O20 C23 1.320 . S
O21 Cd18 2.333 . S
O21 C23 1.214 1_554 S
O22 Cd18 2.352 . S
O22 C25 1.258 . S
C23 O20 1.320 . S
C23 O21 1.214 1_556 S
O24 Cd16 2.277 1_554 S
O24 C19 1.209 . S
C25 O22 1.258 . S
C25 O27 1.282 . S
O26 Cd18 2.277 . S
O26 C19 1.226 . S
O27 Cd18 2.356 . S
O27 C25 1.282 . S
C28 O29 1.306 . S
C28 O31 1.160 1_554 S
O29 C28 1.306 . S
O29 Cd30 2.228 . S
Cd30 O29 2.228 . S
Cd30 O34 2.273 . S
Cd30 O38 2.277 . S
O31 C28 1.160 1_556 S
O31 Cd32 2.203 1_556 S
Cd32 O31 2.203 1_554 S
Cd32 O34 2.411 . S
Cd32 O35 2.333 . S
Cd32 O36 2.352 1_554 S
Cd32 O40 2.277 . S
Cd32 O41 2.356 1_554 S
C33 O38 1.209 . S
C33 O40 1.226 . S
O34 Cd30 2.273 . S
O34 Cd32 2.411 . S
O34 C37 1.320 . S
O35 Cd32 2.333 . S
O35 C37 1.214 . S
O36 Cd32 2.352 1_556 S
O36 C39 1.258 . S
C37 O34 1.320 . S
C37 O35 1.214 . S
O38 Cd30 2.277 . S
O38 C33 1.209 . S
C39 O36 1.258 . S
C39 O41 1.282 . S
O40 Cd32 2.277 . S
O40 C33 1.226 . S
O41 Cd32 2.356 1_556 S
O41 C39 1.282 . S
C42 O43 1.306 . S
C42 O45 1.160 . S
O43 C42 1.306 . S
O43 Cd44 2.228 1_554 S
Cd44 O43 2.228 1_556 S
Cd44 O48 2.273 . S
Cd44 O52 2.277 1_556 S
O45 C42 1.160 . S
O45 Cd46 2.203 . S
Cd46 O45 2.203 . S
Cd46 O48 2.411 1_554 S
Cd46 O49 2.333 . S
Cd46 O50 2.352 . S
Cd46 O54 2.277 . S
Cd46 O55 2.356 . S
C47 O52 1.209 . S
C47 O54 1.226 . S
O48 Cd44 2.273 . S
O48 Cd46 2.411 1_556 S
O48 C51 1.320 . S
O49 Cd46 2.333 . S
O49 C51 1.214 1_554 S
O50 Cd46 2.352 . S
O50 C53 1.258 . S
C51 O48 1.320 . S
C51 O49 1.214 1_556 S
O52 Cd44 2.277 1_554 S
O52 C47 1.209 . S
C53 O50 1.258 . S
C53 O55 1.282 . S
O54 Cd46 2.277 . S
O54 C47 1.226 . S
O55 Cd46 2.356 . S
O55 C53 1.282 . S
C56 O57 1.306 . S
C56 O59 1.160 . S
O57 C56 1.306 . S
O57 Cd58 2.228 . S
Cd58 O57 2.228 . S
Cd58 O62 2.273 . S
Cd58 O66 2.277 . S
O59 C56 1.160 . S
O59 Cd60 2.203 . S
Cd60 O59 2.203 . S
Cd60 O62 2.411 . S
Cd60 O63 2.333 . S
Cd60 O64 2.352 . S
Cd60 O68 2.277 . S
Cd60 O69 2.356 . S
C61 O66 1.209 . S
C61 O68 1.226 . S
O62 Cd58 2.273 . S
O62 Cd60 2.411 . S
O62 C65 1.320 . S
O63 Cd60 2.333 . S
O63 C65 1.214 . S
O64 Cd60 2.352 . S
O64 C67 1.258 . S
C65 O62 1.320 . S
C65 O63 1.214 . S
O66 Cd58 2.277 . S
O66 C61 1.209 . S
C67 O64 1.258 . S
C67 O69 1.282 . S
O68 Cd60 2.277 . S
O68 C61 1.226 . S
O69 Cd60 2.356 . S
O69 C67 1.282 . S
C70 O71 1.306 . S
C70 O73 1.160 . S
O71 C70 1.306 . S
O71 Cd72 2.228 . S
Cd72 O71 2.228 . S
Cd72 O76 2.273 . S
Cd72 O80 2.277 . S
O73 C70 1.160 . S
O73 Cd74 2.203 . S
Cd74 O73 2.203 . S
Cd74 O76 2.411 . S
Cd74 O77 2.333 . S
Cd74 O78 2.352 . S
Cd74 O82 2.277 . S
Cd74 O83 2.356 . S
C75 O80 1.209 . S
C75 O82 1.226 . S
O76 Cd72 2.273 . S
O76 Cd74 2.411 . S
O76 C79 1.320 . S
O77 Cd74 2.333 . S
O77 C79 1.214 . S
O78 Cd74 2.352 . S
O78 C81 1.258 . S
C79 O76 1.320 . S
C79 O77 1.214 . S
O80 Cd72 2.277 . S
O80 C75 1.209 . S
C81 O78 1.258 . S
C81 O83 1.282 . S
O82 Cd74 2.277 . S
O82 C75 1.226 . S
O83 Cd74 2.356 . S
O83 C81 1.282 . S
C84 O85 1.306 . S
C84 O87 1.160 . S
O85 C84 1.306 . S
O85 Cd86 2.228 . S
Cd86 O85 2.228 . S
Cd86 O90 2.273 . S
Cd86 O94 2.277 . S
O87 C84 1.160 . S
O87 Cd88 2.203 . S
Cd88 O87 2.203 . S
Cd88 O90 2.411 . S
Cd88 O91 2.333 . S
Cd88 O92 2.352 . S
Cd88 O96 2.277 . S
Cd88 O97 2.356 . S
C89 O94 1.209 . S
C89 O96 1.226 . S
O90 Cd86 2.273 . S
O90 Cd88 2.411 . S
O90 C93 1.320 . S
O91 Cd88 2.333 . S
O91 C93 1.214 . S
O92 Cd88 2.352 . S
O92 C95 1.258 . S
C93 O90 1.320 . S
C93 O91 1.214 . S
O94 Cd86 2.277 . S
O94 C89 1.209 . S
C95 O92 1.258 . S
C95 O97 1.282 . S
O96 Cd88 2.277 . S
O96 C89 1.226 . S
O97 Cd88 2.356 . S
O97 C95 1.282 . S
C98 O99 1.306 . S
C98 O101 1.160 . S
O99 C98 1.306 . S
O99 Cd100 2.228 . S
Cd100 O99 2.228 . S
Cd100 O104 2.273 . S
Cd100 O108 2.277 . S
O101 C98 1.160 . S
O101 Cd102 2.203 . S
Cd102 O101 2.203 . S
Cd102 O104 2.411 . S
Cd102 O105 2.333 . S
Cd102 O106 2.352 . S
Cd102 O110 2.277 . S
Cd102 O111 2.356 . S
C103 O108 1.209 . S
C103 O110 1.226 . S
O104 Cd100 2.273 . S
O104 Cd102 2.411 . S
O104 C107 1.320 . S
O105 Cd102 2.333 . S
O105 C107 1.214 . S
O106 Cd102 2.352 . S
O106 C109 1.258 . S
C107 O104 1.320 . S
C107 O105 1.214 . S
O108 Cd100 2.277 . S
O108 C103 1.209 . S
C109 O106 1.258 . S
C109 O111 1.282 . S
O110 Cd102 2.277 . S
O110 C103 1.226 . S
O111 Cd102 2.356 . S
O111 C109 1.282 . S
H112 C130 0.951 1_556 S
H113 C132 0.951 1_556 S
H114 C134 0.950 . S
H115 C135 0.950 . S
H116 C137 0.950 . S
H117 C140 0.950 1_554 S
H118 C141 0.950 . S
H119 C143 0.950 . S
H120 C144 0.950 . S
H121 C145 0.951 . S
H122 C147 0.951 . S
H123 C149 0.950 . S
H124 C150 0.950 . S
H125 C152 0.950 1_556 S
H126 C155 0.950 . S
H127 C156 0.950 . S
H128 C158 0.950 . S
H129 C159 0.950 . S
C130 H112 0.951 1_554 S
C130 C131 1.366 . S
C130 C132 1.388 . S
C131 C130 1.366 . S
C131 C135 1.385 . S
C132 H113 0.951 1_554 S
C132 C130 1.388 . S
C132 C133 1.366 . S
C133 C132 1.366 . S
C133 C134 1.414 . S
C133 C136 1.499 . S
C134 H114 0.950 . S
C134 C133 1.414 . S
C134 C135 1.374 . S
C135 H115 0.950 . S
C135 C131 1.385 . S
C135 C134 1.374 . S
C136 C133 1.499 . S
C136 C137 1.373 . S
C136 C138 1.389 . S
C137 H116 0.950 . S
C137 C136 1.373 . S
C137 C153 1.377 . S
C138 C136 1.389 . S
C138 C139 1.524 1_554 S
C138 C152 1.377 . S
C139 C138 1.524 1_556 S
C139 C140 1.397 . S
C139 C144 1.363 . S
C140 H117 0.950 1_556 S
C140 C139 1.397 . S
C140 C141 1.334 . S
C141 H118 0.950 . S
C141 C140 1.334 . S
C141 C142 1.287 . S
C142 C141 1.287 . S
C142 C143 1.524 . S
C142 H161 0.913 . S
C143 H119 0.950 . S
C143 C142 1.524 . S
C143 C144 1.415 . S
C144 H120 0.950 . S
C144 C139 1.363 . S
C144 C143 1.415 . S
C145 H121 0.951 . S
C145 C146 1.366 . S
C145 C147 1.388 . S
C146 C145 1.366 . S
C146 C150 1.385 1_554 S
C147 H122 0.951 . S
C147 C145 1.388 . S
C147 C148 1.366 . S
C148 C147 1.366 . S
C148 C149 1.414 1_554 S
C148 C151 1.499 . S
C149 H123 0.950 . S
C149 C148 1.414 1_556 S
C149 C150 1.374 . S
C150 H124 0.950 . S
C150 C146 1.385 1_556 S
C150 C149 1.374 . S
C151 C148 1.499 . S
C151 C152 1.373 . S
C151 C153 1.389 . S
C152 H125 0.950 1_554 S
C152 C138 1.377 . S
C152 C151 1.373 . S
C153 C137 1.377 . S
C153 C151 1.389 . S
C153 C154 1.524 . S
C154 C153 1.524 . S
C154 C155 1.397 . S
C154 C159 1.363 . S
C155 H126 0.950 . S
C155 C154 1.397 . S
C155 C156 1.334 . S
C156 H127 0.950 . S
C156 C155 1.334 . S
C156 C157 1.287 . S
C157 C156 1.287 . S
C157 C158 1.524 . S
C157 H160 0.999 . S
C158 H128 0.950 . S
C158 C157 1.524 . S
C158 C159 1.415 . S
C159 H129 0.950 . S
C159 C154 1.363 . S
C159 C158 1.415 . S
H160 C157 0.999 . S
H161 C142 0.913 . S
H162 C180 0.951 . S
H163 C182 0.951 . S
H164 C184 0.950 . S
H165 C185 0.950 . S
H166 C187 0.950 . S
H167 C190 0.967 . S
H168 C191 0.950 . S
H169 C193 0.950 . S
H170 C194 0.950 . S
H171 C195 0.951 . S
H172 C197 0.951 . S
H173 C199 0.950 1_556 S
H174 C200 0.950 1_556 S
H175 C202 0.935 1_556 S
H176 C205 0.950 . S
H177 C206 0.950 . S
H178 C208 0.950 . S
H179 C209 0.950 . S
C180 H162 0.951 . S
C180 C181 1.366 1_556 S
C180 C182 1.388 . S
C181 C180 1.366 1_554 S
C181 C185 1.385 . S
C182 H163 0.951 . S
C182 C180 1.388 . S
C182 C183 1.366 1_556 S
C183 C182 1.366 1_554 S
C183 C184 1.414 . S
C183 C186 1.499 . S
C184 H164 0.950 . S
C184 C183 1.414 . S
C184 C185 1.374 . S
C185 H165 0.950 . S
C185 C181 1.385 . S
C185 C184 1.374 . S
C186 C183 1.499 . S
C186 C187 1.373 . S
C186 C188 1.389 . S
C187 H166 0.950 . S
C187 C186 1.373 . S
C187 C203 1.377 . S
C188 C186 1.389 . S
C188 C189 1.524 1_554 S
C188 C202 1.377 . S
C189 C188 1.524 1_556 S
C189 C190 1.390 1_556 S
C189 C194 1.363 . S
C190 H167 0.967 . S
C190 C189 1.390 1_554 S
C190 C191 1.325 1_554 S
C191 H168 0.950 . S
C191 C190 1.325 1_556 S
C191 C192 1.287 . S
C192 C191 1.287 . S
C192 C193 1.524 . S
C192 H211 0.913 . S
C193 H169 0.950 . S
C193 C192 1.524 . S
C193 C194 1.415 . S
C194 H170 0.950 . S
C194 C189 1.363 . S
C194 C193 1.415 . S
C195 H171 0.951 . S
C195 C196 1.366 . S
C195 C197 1.388 . S
C196 C195 1.366 . S
C196 C200 1.385 . S
C197 H172 0.951 . S
C197 C195 1.388 . S
C197 C198 1.366 . S
C198 C197 1.366 . S
C198 C199 1.414 . S
C198 C201 1.499 . S
C199 H173 0.950 1_554 S
C199 C198 1.414 . S
C199 C200 1.374 . S
C200 H174 0.950 1_554 S
C200 C196 1.385 . S
C200 C199 1.374 . S
C201 C198 1.499 . S
C201 C202 1.373 . S
C201 C203 1.389 . S
C202 H175 0.935 1_554 S
C202 C188 1.377 . S
C202 C201 1.373 . S
C203 C187 1.377 . S
C203 C201 1.389 . S
C203 C204 1.524 . S
C204 C203 1.524 . S
C204 C205 1.397 . S
C204 C209 1.363 . S
C205 H176 0.950 . S
C205 C204 1.397 . S
C205 C206 1.334 . S
C206 H177 0.950 . S
C206 C205 1.334 . S
C206 C207 1.287 . S
C207 C206 1.287 . S
C207 C208 1.524 . S
C207 H210 0.999 . S
C208 H178 0.950 . S
C208 C207 1.524 . S
C208 C209 1.415 . S
C209 H179 0.950 . S
C209 C204 1.363 . S
C209 C208 1.415 . S
H210 C207 0.999 . S
H211 C192 0.913 . S
H212 C230 0.951 . S
H213 C232 0.951 . S
H214 C234 0.950 . S
H215 C235 0.950 . S
H216 C237 0.950 . S
H217 C240 0.950 . S
H218 C241 0.950 1_554 S
H219 C243 0.950 . S
H220 C244 0.950 . S
H221 C245 0.951 . S
H222 C247 0.951 . S
H223 C249 0.950 1_556 S
H224 C250 0.950 1_556 S
H225 C252 0.950 1_556 S
H226 C255 0.950 . S
H227 C256 0.950 . S
H228 C258 0.950 . S
H229 C259 0.950 . S
C230 H212 0.951 . S
C230 C231 1.366 1_556 S
C230 C232 1.388 . S
C231 C230 1.366 1_554 S
C231 C235 1.385 . S
C232 H213 0.951 . S
C232 C230 1.388 . S
C232 C233 1.366 1_556 S
C233 C232 1.366 1_554 S
C233 C234 1.414 . S
C233 C236 1.499 . S
C234 H214 0.950 . S
C234 C233 1.414 . S
C234 C235 1.374 . S
C235 H215 0.950 . S
C235 C231 1.385 . S
C235 C234 1.374 . S
C236 C233 1.499 . S
C236 C237 1.373 . S
C236 C238 1.389 . S
C237 H216 0.950 . S
C237 C236 1.373 . S
C237 C253 1.377 . S
C238 C236 1.389 . S
C238 C239 1.524 1_554 S
C238 C252 1.377 . S
C239 C238 1.524 1_556 S
C239 C240 1.397 1_556 S
C239 C244 1.363 . S
C240 H217 0.950 . S
C240 C239 1.397 1_554 S
C240 C241 1.334 1_554 S
C241 H218 0.950 1_556 S
C241 C240 1.334 1_556 S
C241 C242 1.287 . S
C242 C241 1.287 . S
C242 C243 1.524 . S
C242 H261 0.913 . S
C243 H219 0.950 . S
C243 C242 1.524 . S
C243 C244 1.415 . S
C244 H220 0.950 . S
C244 C239 1.363 . S
C244 C243 1.415 . S
C245 H221 0.951 . S
C245 C246 1.366 . S
C245 C247 1.388 . S
C246 C245 1.366 . S
C246 C250 1.385 . S
C247 H222 0.951 . S
C247 C245 1.388 . S
C247 C248 1.366 . S
C248 C247 1.366 . S
C248 C249 1.414 . S
C248 C251 1.499 . S
C249 H223 0.950 1_554 S
C249 C248 1.414 . S
C249 C250 1.374 . S
C250 H224 0.950 1_554 S
C250 C246 1.385 . S
C250 C249 1.374 . S
C251 C248 1.499 . S
C251 C252 1.373 . S
C251 C253 1.389 . S
C252 H225 0.950 1_554 S
C252 C238 1.377 . S
C252 C251 1.373 . S
C253 C237 1.377 . S
C253 C251 1.389 . S
C253 C254 1.524 . S
C254 C253 1.524 . S
C254 C255 1.397 . S
C254 C259 1.363 . S
C255 H226 0.950 . S
C255 C254 1.397 . S
C255 C256 1.334 . S
C256 H227 0.950 . S
C256 C255 1.334 . S
C256 C257 1.287 . S
C257 C256 1.287 . S
C257 C258 1.524 . S
C257 H260 0.999 . S
C258 H228 0.950 . S
C258 C257 1.524 . S
C258 C259 1.415 . S
C259 H229 0.950 . S
C259 C254 1.363 . S
C259 C258 1.415 . S
H260 C257 0.999 . S
H261 C242 0.913 . S
H262 C280 0.951 . S
H263 C282 0.951 . S
H264 C284 0.950 1_556 S
H265 C285 0.950 1_556 S
H266 C287 0.956 . S
H267 C290 0.950 . S
H268 C291 0.950 . S
H269 C293 0.950 . S
H270 C294 0.950 . S
H271 C295 0.951 . S
H272 C297 0.951 . S
H273 C299 0.950 . S
H274 C300 0.950 . S
H275 C302 0.950 . S
H276 C305 0.950 . S
H277 C306 0.950 . S
H278 C308 0.950 . S
H279 C309 0.950 . S
C280 H262 0.951 . S
C280 C281 1.366 . S
C280 C282 1.388 . S
C281 C280 1.366 . S
C281 C285 1.385 . S
C282 H263 0.951 . S
C282 C280 1.388 . S
C282 C283 1.366 . S
C283 C282 1.366 . S
C283 C284 1.414 . S
C283 C286 1.499 . S
C284 H264 0.950 1_554 S
C284 C283 1.414 . S
C284 C285 1.374 . S
C285 H265 0.950 1_554 S
C285 C281 1.385 . S
C285 C284 1.374 . S
C286 C283 1.499 . S
C286 C287 1.373 . S
C286 C288 1.389 . S
C287 H266 0.956 . S
C287 C286 1.373 . S
C287 C303 1.377 . S
C288 C286 1.389 . S
C288 C289 1.524 . S
C288 C302 1.377 . S
C289 C288 1.524 . S
C289 C290 1.397 . S
C289 C294 1.363 . S
C290 H267 0.950 . S
C290 C289 1.397 . S
C290 C291 1.334 . S
C291 H268 0.950 . S
C291 C290 1.334 . S
C291 C292 1.287 . S
C292 C291 1.287 . S
C292 C293 1.524 . S
C292 H311 0.913 . S
C293 H269 0.950 . S
C293 C292 1.524 . S
C293 C294 1.415 . S
C294 H270 0.950 . S
C294 C289 1.363 . S
C294 C293 1.415 . S
C295 H271 0.951 . S
C295 C296 1.366 1_556 S
C295 C297 1.388 . S
C296 C295 1.366 1_554 S
C296 C300 1.385 . S
C297 H272 0.951 . S
C297 C295 1.388 . S
C297 C298 1.366 1_556 S
C298 C297 1.366 1_554 S
C298 C299 1.414 . S
C298 C301 1.499 . S
C299 H273 0.950 . S
C299 C298 1.414 . S
C299 C300 1.374 . S
C300 H274 0.950 . S
C300 C296 1.385 . S
C300 C299 1.374 . S
C301 C298 1.499 . S
C301 C302 1.373 . S
C301 C303 1.389 . S
C302 H275 0.950 . S
C302 C288 1.377 . S
C302 C301 1.373 . S
C303 C287 1.377 . S
C303 C301 1.389 . S
C303 C304 1.524 1_554 S
C304 C303 1.524 1_556 S
C304 C305 1.397 1_556 S
C304 C309 1.363 . S
C305 H276 0.950 . S
C305 C304 1.397 1_554 S
C305 C306 1.334 1_554 S
C306 H277 0.950 . S
C306 C305 1.334 1_556 S
C306 C307 1.287 . S
C307 C306 1.287 . S
C307 C308 1.524 . S
C307 H310 0.999 . S
C308 H278 0.950 . S
C308 C307 1.524 . S
C308 C309 1.415 . S
C309 H279 0.950 . S
C309 C304 1.363 . S
C309 C308 1.415 . S
H310 C307 0.999 . S
H311 C292 0.913 . S
H312 C330 0.951 . S
H313 C332 0.951 . S
H314 C334 0.950 . S
H315 C335 0.950 . S
H316 C337 0.950 . S
H317 C340 0.950 . S
H318 C341 0.950 . S
H319 C343 0.950 . S
H320 C344 0.950 . S
H321 C345 0.951 . S
H322 C347 0.951 . S
H323 C349 0.950 . S
H324 C350 0.950 . S
H325 C352 0.950 . S
H326 C355 0.950 . S
H327 C356 0.950 . S
H328 C358 0.950 . S
H329 C359 0.950 . S
C330 H312 0.951 . S
C330 C331 1.366 . S
C330 C332 1.388 . S
C331 C330 1.366 . S
C331 C335 1.385 . S
C332 H313 0.951 . S
C332 C330 1.388 . S
C332 C333 1.366 . S
C333 C332 1.366 . S
C333 C334 1.414 . S
C333 C336 1.499 . S
C334 H314 0.950 . S
C334 C333 1.414 . S
C334 C335 1.374 . S
C335 H315 0.950 . S
C335 C331 1.385 . S
C335 C334 1.374 . S
C336 C333 1.499 . S
C336 C337 1.373 . S
C336 C338 1.389 . S
C337 H316 0.950 . S
C337 C336 1.373 . S
C337 C353 1.377 1_565 S
C338 C336 1.389 . S
C338 C339 1.524 . S
C338 C352 1.377 1_565 S
C339 C338 1.524 . S
C339 C340 1.397 . S
C339 C344 1.363 . S
C340 H317 0.950 . S
C340 C339 1.397 . S
C340 C341 1.334 . S
C341 H318 0.950 . S
C341 C340 1.334 . S
C341 C342 1.287 . S
C342 C341 1.287 . S
C342 C343 1.524 . S
C342 H361 0.913 . S
C343 H319 0.950 . S
C343 C342 1.524 . S
C343 C344 1.415 . S
C344 H320 0.950 . S
C344 C339 1.363 . S
C344 C343 1.415 . S
C345 H321 0.951 . S
C345 C346 1.366 . S
C345 C347 1.388 . S
C346 C345 1.366 . S
C346 C350 1.385 . S
C347 H322 0.951 . S
C347 C345 1.388 . S
C347 C348 1.366 . S
C348 C347 1.366 . S
C348 C349 1.414 . S
C348 C351 1.499 . S
C349 H323 0.950 . S
C349 C348 1.414 . S
C349 C350 1.374 . S
C350 H324 0.950 . S
C350 C346 1.385 . S
C350 C349 1.374 . S
C351 C348 1.499 . S
C351 C352 1.373 . S
C351 C353 1.389 . S
C352 H325 0.950 . S
C352 C338 1.377 1_545 S
C352 C351 1.373 . S
C353 C337 1.377 1_545 S
C353 C351 1.389 . S
C353 C354 1.524 . S
C354 C353 1.524 . S
C354 C355 1.397 . S
C354 C359 1.363 . S
C355 H326 0.950 . S
C355 C354 1.397 . S
C355 C356 1.334 . S
C356 H327 0.950 . S
C356 C355 1.334 . S
C356 C357 1.287 . S
C357 C356 1.287 . S
C357 C358 1.524 . S
C357 H360 0.999 . S
C358 H328 0.950 . S
C358 C357 1.524 . S
C358 C359 1.415 . S
C359 H329 0.950 . S
C359 C354 1.363 . S
C359 C358 1.415 . S
H360 C357 0.999 . S
H361 C342 0.913 . S
H362 C380 0.951 . S
H363 C382 0.951 . S
H364 C384 0.950 . S
H365 C385 0.950 . S
H366 C387 0.950 . S
H367 C390 0.950 . S
H368 C391 0.950 . S
H369 C393 0.950 . S
H370 C394 0.950 . S
H371 C395 0.951 . S
H372 C397 0.951 . S
H373 C399 0.950 . S
H374 C400 0.950 . S
H375 C402 0.950 . S
H376 C405 0.950 . S
H377 C406 0.950 . S
H378 C408 0.950 . S
H379 C409 0.950 . S
C380 H362 0.951 . S
C380 C381 1.366 . S
C380 C382 1.388 . S
C381 C380 1.366 . S
C381 C385 1.385 . S
C382 H363 0.951 . S
C382 C380 1.388 . S
C382 C383 1.366 . S
C383 C382 1.366 . S
C383 C384 1.414 . S
C383 C386 1.499 . S
C384 H364 0.950 . S
C384 C383 1.414 . S
C384 C385 1.374 . S
C385 H365 0.950 . S
C385 C381 1.385 . S
C385 C384 1.374 . S
C386 C383 1.499 . S
C386 C387 1.373 . S
C386 C388 1.389 . S
C387 H366 0.950 . S
C387 C386 1.373 . S
C387 C403 1.377 1_455 S
C388 C386 1.389 . S
C388 C389 1.524 . S
C388 C402 1.377 1_455 S
C389 C388 1.524 . S
C389 C390 1.397 . S
C389 C394 1.363 . S
C390 H367 0.950 . S
C390 C389 1.397 . S
C390 C391 1.334 . S
C391 H368 0.950 . S
C391 C390 1.334 . S
C391 C392 1.287 . S
C392 C391 1.287 . S
C392 C393 1.524 . S
C392 H411 0.913 . S
C393 H369 0.950 . S
C393 C392 1.524 . S
C393 C394 1.415 . S
C394 H370 0.950 . S
C394 C389 1.363 . S
C394 C393 1.415 . S
C395 H371 0.951 . S
C395 C396 1.366 . S
C395 C397 1.388 . S
C396 C395 1.366 . S
C396 C400 1.385 . S
C397 H372 0.951 . S
C397 C395 1.388 . S
C397 C398 1.366 . S
C398 C397 1.366 . S
C398 C399 1.414 . S
C398 C401 1.499 . S
C399 H373 0.950 . S
C399 C398 1.414 . S
C399 C400 1.374 . S
C400 H374 0.950 . S
C400 C396 1.385 . S
C400 C399 1.374 . S
C401 C398 1.499 . S
C401 C402 1.373 . S
C401 C403 1.389 . S
C402 H375 0.950 . S
C402 C388 1.377 1_655 S
C402 C401 1.373 . S
C403 C387 1.377 1_655 S
C403 C401 1.389 . S
C403 C404 1.524 . S
C404 C403 1.524 . S
C404 C405 1.397 . S
C404 C409 1.363 . S
C405 H376 0.950 . S
C405 C404 1.397 . S
C405 C406 1.334 . S
C406 H377 0.950 . S
C406 C405 1.334 . S
C406 C407 1.287 . S
C407 C406 1.287 . S
C407 C408 1.524 . S
C407 H410 0.999 . S
C408 H378 0.950 . S
C408 C407 1.524 . S
C408 C409 1.415 . S
C409 H379 0.950 . S
C409 C404 1.363 . S
C409 C408 1.415 . S
H410 C407 0.999 . S
H411 C392 0.913 . S
H412 C430 0.951 . S
H413 C432 0.951 . S
H414 C434 0.950 . S
H415 C435 0.950 . S
H416 C437 0.950 . S
H417 C440 0.950 . S
H418 C441 0.950 . S
H419 C443 0.950 . S
H420 C444 0.950 . S
H421 C445 0.951 . S
H422 C447 0.951 . S
H423 C449 0.950 . S
H424 C450 0.950 . S
H425 C452 0.950 . S
H426 C455 0.950 . S
H427 C456 0.950 . S
H428 C458 0.950 . S
H429 C459 0.950 . S
C430 H412 0.951 . S
C430 C431 1.366 . S
C430 C432 1.388 . S
C431 C430 1.366 . S
C431 C435 1.385 . S
C432 H413 0.951 . S
C432 C430 1.388 . S
C432 C433 1.366 . S
C433 C432 1.366 . S
C433 C434 1.414 . S
C433 C436 1.499 . S
C434 H414 0.950 . S
C434 C433 1.414 . S
C434 C435 1.374 . S
C435 H415 0.950 . S
C435 C431 1.385 . S
C435 C434 1.374 . S
C436 C433 1.499 . S
C436 C437 1.373 . S
C436 C438 1.389 . S
C437 H416 0.950 . S
C437 C436 1.373 . S
C437 C453 1.377 1_545 S
C438 C436 1.389 . S
C438 C439 1.524 . S
C438 C452 1.377 1_545 S
C439 C438 1.524 . S
C439 C440 1.397 . S
C439 C444 1.363 . S
C440 H417 0.950 . S
C440 C439 1.397 . S
C440 C441 1.334 . S
C441 H418 0.950 . S
C441 C440 1.334 . S
C441 C442 1.287 . S
C442 C441 1.287 . S
C442 C443 1.524 . S
C442 H461 0.913 . S
C443 H419 0.950 . S
C443 C442 1.524 . S
C443 C444 1.415 . S
C444 H420 0.950 . S
C444 C439 1.363 . S
C444 C443 1.415 . S
C445 H421 0.951 . S
C445 C446 1.366 . S
C445 C447 1.388 . S
C446 C445 1.366 . S
C446 C450 1.385 . S
C447 H422 0.951 . S
C447 C445 1.388 . S
C447 C448 1.366 . S
C448 C447 1.366 . S
C448 C449 1.414 . S
C448 C451 1.499 . S
C449 H423 0.950 . S
C449 C448 1.414 . S
C449 C450 1.374 . S
C450 H424 0.950 . S
C450 C446 1.385 . S
C450 C449 1.374 . S
C451 C448 1.499 . S
C451 C452 1.373 . S
C451 C453 1.389 . S
C452 H425 0.950 . S
C452 C438 1.377 1_565 S
C452 C451 1.373 . S
C453 C437 1.377 1_565 S
C453 C451 1.389 . S
C453 C454 1.524 . S
C454 C453 1.524 . S
C454 C455 1.397 . S
C454 C459 1.363 . S
C455 H426 0.950 . S
C455 C454 1.397 . S
C455 C456 1.334 . S
C456 H427 0.950 . S
C456 C455 1.334 . S
C456 C457 1.287 . S
C457 C456 1.287 . S
C457 C458 1.524 . S
C457 H460 0.999 . S
C458 H428 0.950 . S
C458 C457 1.524 . S
C458 C459 1.415 . S
C459 H429 0.950 . S
C459 C454 1.363 . S
C459 C458 1.415 . S
H460 C457 0.999 . S
H461 C442 0.913 . S
H462 C480 0.951 . S
H463 C482 0.951 . S
H464 C484 0.950 . S
H465 C485 0.950 . S
H466 C487 0.950 . S
H467 C490 0.950 . S
H468 C491 0.950 . S
H469 C493 0.950 . S
H470 C494 0.940 1_455 S
H471 C495 0.951 . S
H472 C497 0.951 . S
H473 C499 0.950 . S
H474 C500 0.950 . S
H475 C502 0.950 . S
H476 C505 0.950 . S
H477 C506 0.950 . S
H478 C508 0.950 . S
H479 C509 0.941 1_655 S
C480 H462 0.951 . S
C480 C481 1.366 . S
C480 C482 1.388 . S
C481 C480 1.366 . S
C481 C485 1.385 . S
C482 H463 0.951 . S
C482 C480 1.388 . S
C482 C483 1.366 . S
C483 C482 1.366 . S
C483 C484 1.414 . S
C483 C486 1.499 . S
C484 H464 0.950 . S
C484 C483 1.414 . S
C484 C485 1.374 . S
C485 H465 0.950 . S
C485 C481 1.385 . S
C485 C484 1.374 . S
C486 C483 1.499 . S
C486 C487 1.373 . S
C486 C488 1.389 . S
C487 H466 0.950 . S
C487 C486 1.373 . S
C487 C503 1.377 1_655 S
C488 C486 1.389 . S
C488 C489 1.524 . S
C488 C502 1.377 1_655 S
C489 C488 1.524 . S
C489 C490 1.397 . S
C489 C494 1.363 . S
C490 H467 0.950 . S
C490 C489 1.397 . S
C490 C491 1.334 . S
C491 H468 0.950 . S
C491 C490 1.334 . S
C491 C492 1.287 . S
C492 C491 1.287 . S
C492 C493 1.524 . S
C492 H511 0.913 . S
C493 H469 0.950 . S
C493 C492 1.524 . S
C493 C494 1.415 . S
C494 H470 0.940 1_655 S
C494 C489 1.363 . S
C494 C493 1.415 . S
C495 H471 0.951 . S
C495 C496 1.366 . S
C495 C497 1.388 . S
C496 C495 1.366 . S
C496 C500 1.385 . S
C497 H472 0.951 . S
C497 C495 1.388 . S
C497 C498 1.366 . S
C498 C497 1.366 . S
C498 C499 1.414 . S
C498 C501 1.499 . S
C499 H473 0.950 . S
C499 C498 1.414 . S
C499 C500 1.374 . S
C500 H474 0.950 . S
C500 C496 1.385 . S
C500 C499 1.374 . S
C501 C498 1.499 . S
C501 C502 1.373 . S
C501 C503 1.389 . S
C502 H475 0.950 . S
C502 C488 1.377 1_455 S
C502 C501 1.373 . S
C503 C487 1.377 1_455 S
C503 C501 1.389 . S
C503 C504 1.524 . S
C504 C503 1.524 . S
C504 C505 1.397 . S
C504 C509 1.363 . S
C505 H476 0.950 . S
C505 C504 1.397 . S
C505 C506 1.334 . S
C506 H477 0.950 . S
C506 C505 1.334 . S
C506 C507 1.287 . S
C507 C506 1.287 . S
C507 C508 1.524 . S
C507 H510 0.999 . S
C508 H478 0.950 . S
C508 C507 1.524 . S
C508 C509 1.415 . S
C509 H479 0.941 1_455 S
C509 C504 1.363 . S
C509 C508 1.415 . S
H510 C507 0.999 . S
H511 C492 0.913 . S
H512 C530 0.951 . S
H513 C532 0.951 . S
H514 C534 0.950 . S
H515 C535 0.950 . S
H516 C537 0.950 . S
H517 C540 0.950 . S
H518 C541 0.950 . S
H519 C543 0.950 . S
H520 C544 0.950 . S
H521 C545 0.951 . S
H522 C547 0.951 . S
H523 C549 0.950 . S
H524 C550 0.950 . S
H525 C552 0.950 . S
H526 C555 0.950 . S
H527 C556 0.950 . S
H528 C558 0.950 . S
H529 C559 0.950 . S
C530 H512 0.951 . S
C530 C531 1.366 . S
C530 C532 1.388 . S
C531 C530 1.366 . S
C531 C535 1.385 . S
C532 H513 0.951 . S
C532 C530 1.388 . S
C532 C533 1.366 . S
C533 C532 1.366 . S
C533 C534 1.414 . S
C533 C536 1.499 . S
C534 H514 0.950 . S
C534 C533 1.414 . S
C534 C535 1.374 . S
C535 H515 0.950 . S
C535 C531 1.385 . S
C535 C534 1.374 . S
C536 C533 1.499 . S
C536 C537 1.373 . S
C536 C538 1.389 . S
C537 H516 0.950 . S
C537 C536 1.373 . S
C537 C553 1.377 . S
C538 C536 1.389 . S
C538 C539 1.524 . S
C538 C552 1.377 . S
C539 C538 1.524 . S
C539 C540 1.397 . S
C539 C544 1.363 . S
C540 H517 0.950 . S
C540 C539 1.397 . S
C540 C541 1.334 . S
C541 H518 0.950 . S
C541 C540 1.334 . S
C541 C542 1.287 . S
C542 C541 1.287 . S
C542 C543 1.524 . S
C542 H561 0.913 . S
C543 H519 0.950 . S
C543 C542 1.524 . S
C543 C544 1.415 . S
C544 H520 0.950 . S
C544 C539 1.363 . S
C544 C543 1.415 . S
C545 H521 0.951 . S
C545 C546 1.366 . S
C545 C547 1.388 . S
C546 C545 1.366 . S
C546 C550 1.385 . S
C547 H522 0.951 . S
C547 C545 1.388 . S
C547 C548 1.366 . S
C548 C547 1.366 . S
C548 C549 1.414 . S
C548 C551 1.499 . S
C549 H523 0.950 . S
C549 C548 1.414 . S
C549 C550 1.374 . S
C550 H524 0.950 . S
C550 C546 1.385 . S
C550 C549 1.374 . S
C551 C548 1.499 . S
C551 C552 1.373 . S
C551 C553 1.389 . S
C552 H525 0.950 . S
C552 C538 1.377 . S
C552 C551 1.373 . S
C553 C537 1.377 . S
C553 C551 1.389 . S
C553 C554 1.524 . S
C554 C553 1.524 . S
C554 C555 1.397 . S
C554 C559 1.363 . S
C555 H526 0.950 . S
C555 C554 1.397 . S
C555 C556 1.334 . S
C556 H527 0.950 . S
C556 C555 1.334 . S
C556 C557 1.287 . S
C557 C556 1.287 . S
C557 C558 1.524 . S
C557 H560 0.999 . S
C558 H528 0.950 . S
C558 C557 1.524 . S
C558 C559 1.415 . S
C559 H529 0.950 . S
C559 C554 1.363 . S
C559 C558 1.415 . S
H560 C557 0.999 . S
H561 C542 0.913 . S
H562 C580 0.951 . S
H563 C582 0.951 . S
H564 C584 0.950 . S
H565 C585 0.950 . S
H566 C587 0.950 . S
H567 C590 0.950 . S
H568 C591 0.950 . S
H569 C593 0.950 . S
H570 C594 0.950 . S
H571 C595 0.951 . S
H572 C597 0.951 . S
H573 C599 0.950 . S
H574 C600 0.950 . S
H575 C602 0.950 . S
H576 C605 0.950 . S
H577 C606 0.950 . S
H578 C608 0.950 . S
H579 C609 0.950 . S
C580 H562 0.951 . S
C580 C581 1.366 . S
C580 C582 1.388 . S
C581 C580 1.366 . S
C581 C585 1.385 . S
C582 H563 0.951 . S
C582 C580 1.388 . S
C582 C583 1.366 . S
C583 C582 1.366 . S
C583 C584 1.414 . S
C583 C586 1.499 . S
C584 H564 0.950 . S
C584 C583 1.414 . S
C584 C585 1.374 . S
C585 H565 0.950 . S
C585 C581 1.385 . S
C585 C584 1.374 . S
C586 C583 1.499 . S
C586 C587 1.373 . S
C586 C588 1.389 . S
C587 H566 0.950 . S
C587 C586 1.373 . S
C587 C603 1.377 . S
C588 C586 1.389 . S
C588 C589 1.524 . S
C588 C602 1.377 . S
C589 C588 1.524 . S
C589 C590 1.397 . S
C589 C594 1.363 . S
C590 H567 0.950 . S
C590 C589 1.397 . S
C590 C591 1.334 . S
C591 H568 0.950 . S
C591 C590 1.334 . S
C591 C592 1.287 . S
C592 C591 1.287 . S
C592 C593 1.524 . S
C592 H611 0.913 . S
C593 H569 0.950 . S
C593 C592 1.524 . S
C593 C594 1.415 . S
C594 H570 0.950 . S
C594 C589 1.363 . S
C594 C593 1.415 . S
C595 H571 0.951 . S
C595 C596 1.366 . S
C595 C597 1.388 . S
C596 C595 1.366 . S
C596 C600 1.385 . S
C597 H572 0.951 . S
C597 C595 1.388 . S
C597 C598 1.366 . S
C598 C597 1.366 . S
C598 C599 1.414 . S
C598 C601 1.499 . S
C599 H573 0.950 . S
C599 C598 1.414 . S
C599 C600 1.374 . S
C600 H574 0.950 . S
C600 C596 1.385 . S
C600 C599 1.374 . S
C601 C598 1.499 . S
C601 C602 1.373 . S
C601 C603 1.389 . S
C602 H575 0.950 . S
C602 C588 1.377 . S
C602 C601 1.373 . S
C603 C587 1.377 . S
C603 C601 1.389 . S
C603 C604 1.524 . S
C604 C603 1.524 . S
C604 C605 1.397 . S
C604 C609 1.363 . S
C605 H576 0.950 . S
C605 C604 1.397 . S
C605 C606 1.334 . S
C606 H577 0.950 . S
C606 C605 1.334 . S
C606 C607 1.287 . S
C607 C606 1.287 . S
C607 C608 1.524 . S
C607 H610 0.999 . S
C608 H578 0.950 . S
C608 C607 1.524 . S
C608 C609 1.415 . S
C609 H579 0.950 . S
C609 C604 1.363 . S
C609 C608 1.415 . S
H610 C607 0.999 . S
H611 C592 0.913 . S
H612 C630 0.951 . S
H613 C632 0.951 . S
H614 C634 0.950 . S
H615 C635 0.950 . S
H616 C637 0.950 . S
H617 C640 0.950 . S
H618 C641 0.950 . S
H619 C643 0.950 . S
H620 C644 0.950 . S
H621 C645 0.951 . S
H622 C647 0.951 . S
H623 C649 0.950 . S
H624 C650 0.950 . S
H625 C652 0.950 . S
H626 C655 0.950 . S
H627 C656 0.950 . S
H628 C658 0.950 . S
H629 C659 0.950 . S
C630 H612 0.951 . S
C630 C631 1.366 . S
C630 C632 1.388 . S
C631 C630 1.366 . S
C631 C635 1.385 . S
C632 H613 0.951 . S
C632 C630 1.388 . S
C632 C633 1.366 . S
C633 C632 1.366 . S
C633 C634 1.414 . S
C633 C636 1.499 . S
C634 H614 0.950 . S
C634 C633 1.414 . S
C634 C635 1.374 . S
C635 H615 0.950 . S
C635 C631 1.385 . S
C635 C634 1.374 . S
C636 C633 1.499 . S
C636 C637 1.373 . S
C636 C638 1.389 . S
C637 H616 0.950 . S
C637 C636 1.373 . S
C637 C653 1.377 . S
C638 C636 1.389 . S
C638 C639 1.524 . S
C638 C652 1.377 . S
C639 C638 1.524 . S
C639 C640 1.397 . S
C639 C644 1.363 . S
C640 H617 0.950 . S
C640 C639 1.397 . S
C640 C641 1.334 . S
C641 H618 0.950 . S
C641 C640 1.334 . S
C641 C642 1.287 . S
C642 C641 1.287 . S
C642 C643 1.524 . S
C642 H661 0.913 . S
C643 H619 0.950 . S
C643 C642 1.524 . S
C643 C644 1.415 . S
C644 H620 0.950 . S
C644 C639 1.363 . S
C644 C643 1.415 . S
C645 H621 0.951 . S
C645 C646 1.366 . S
C645 C647 1.388 . S
C646 C645 1.366 . S
C646 C650 1.385 . S
C647 H622 0.951 . S
C647 C645 1.388 . S
C647 C648 1.366 . S
C648 C647 1.366 . S
C648 C649 1.414 . S
C648 C651 1.499 . S
C649 H623 0.950 . S
C649 C648 1.414 . S
C649 C650 1.374 . S
C650 H624 0.950 . S
C650 C646 1.385 . S
C650 C649 1.374 . S
C651 C648 1.499 . S
C651 C652 1.373 . S
C651 C653 1.389 . S
C652 H625 0.950 . S
C652 C638 1.377 . S
C652 C651 1.373 . S
C653 C637 1.377 . S
C653 C651 1.389 . S
C653 C654 1.524 . S
C654 C653 1.524 . S
C654 C655 1.397 . S
C654 C659 1.363 . S
C655 H626 0.950 . S
C655 C654 1.397 . S
C655 C656 1.334 . S
C656 H627 0.950 . S
C656 C655 1.334 . S
C656 C657 1.287 . S
C657 C656 1.287 . S
C657 C658 1.524 . S
C657 H660 0.999 . S
C658 H628 0.950 . S
C658 C657 1.524 . S
C658 C659 1.415 . S
C659 H629 0.950 . S
C659 C654 1.363 . S
C659 C658 1.415 . S
H660 C657 0.999 . S
H661 C642 0.913 . S
H662 C680 0.951 . S
H663 C682 0.951 . S
H664 C684 0.950 . S
H665 C685 0.950 . S
H666 C687 0.950 . S
H667 C690 0.950 . S
H668 C691 0.950 . S
H669 C693 0.950 . S
H670 C694 0.950 . S
H671 C695 0.951 . S
H672 C697 0.951 . S
H673 C699 0.950 . S
H674 C700 0.950 . S
H675 C702 0.950 . S
H676 C705 0.950 . S
H677 C706 0.950 . S
H678 C708 0.950 . S
H679 C709 0.950 . S
C680 H662 0.951 . S
C680 C681 1.366 . S
C680 C682 1.388 . S
C681 C680 1.366 . S
C681 C685 1.385 . S
C682 H663 0.951 . S
C682 C680 1.388 . S
C682 C683 1.366 . S
C683 C682 1.366 . S
C683 C684 1.414 . S
C683 C686 1.499 . S
C684 H664 0.950 . S
C684 C683 1.414 . S
C684 C685 1.374 . S
C685 H665 0.950 . S
C685 C681 1.385 . S
C685 C684 1.374 . S
C686 C683 1.499 . S
C686 C687 1.373 . S
C686 C688 1.389 . S
C687 H666 0.950 . S
C687 C686 1.373 . S
C687 C703 1.377 . S
C688 C686 1.389 . S
C688 C689 1.524 . S
C688 C702 1.377 . S
C689 C688 1.524 . S
C689 C690 1.397 . S
C689 C694 1.363 . S
C690 H667 0.950 . S
C690 C689 1.397 . S
C690 C691 1.334 . S
C691 H668 0.950 . S
C691 C690 1.334 . S
C691 C692 1.287 . S
C692 C691 1.287 . S
C692 C693 1.524 . S
C692 H711 0.913 . S
C693 H669 0.950 . S
C693 C692 1.524 . S
C693 C694 1.415 . S
C694 H670 0.950 . S
C694 C689 1.363 . S
C694 C693 1.415 . S
C695 H671 0.951 . S
C695 C696 1.366 . S
C695 C697 1.388 . S
C696 C695 1.366 . S
C696 C700 1.385 . S
C697 H672 0.951 . S
C697 C695 1.388 . S
C697 C698 1.366 . S
C698 C697 1.366 . S
C698 C699 1.414 . S
C698 C701 1.499 . S
C699 H673 0.950 . S
C699 C698 1.414 . S
C699 C700 1.374 . S
C700 H674 0.950 . S
C700 C696 1.385 . S
C700 C699 1.374 . S
C701 C698 1.499 . S
C701 C702 1.373 . S
C701 C703 1.389 . S
C702 H675 0.950 . S
C702 C688 1.377 . S
C702 C701 1.373 . S
C703 C687 1.377 . S
C703 C701 1.389 . S
C703 C704 1.524 . S
C704 C703 1.524 . S
C704 C705 1.397 . S
C704 C709 1.363 . S
C705 H676 0.950 . S
C705 C704 1.397 . S
C705 C706 1.334 . S
C706 H677 0.950 . S
C706 C705 1.334 . S
C706 C707 1.287 . S
C707 C706 1.287 . S
C707 C708 1.524 . S
C707 H710 0.999 . S
C708 H678 0.950 . S
C708 C707 1.524 . S
C708 C709 1.415 . S
C709 H679 0.950 . S
C709 C704 1.363 . S
C709 C708 1.415 . S
H710 C707 0.999 . S
H711 C692 0.913 . S
H712 C730 0.951 . S
H713 C732 0.951 . S
H714 C734 0.950 . S
H715 C735 0.950 . S
H716 C737 0.950 . S
H717 C740 0.950 . S
H718 C741 0.950 . S
H719 C743 0.950 . S
H720 C744 0.950 . S
H721 C745 0.951 . S
H722 C747 0.951 . S
H723 C749 0.950 . S
H724 C750 0.950 . S
H725 C752 0.950 . S
H726 C755 0.950 . S
H727 C756 0.950 . S
H728 C758 0.950 . S
H729 C759 0.950 . S
C730 H712 0.951 . S
C730 C731 1.366 . S
C730 C732 1.388 . S
C731 C730 1.366 . S
C731 C735 1.385 . S
C732 H713 0.951 . S
C732 C730 1.388 . S
C732 C733 1.366 . S
C733 C732 1.366 . S
C733 C734 1.414 . S
C733 C736 1.499 . S
C734 H714 0.950 . S
C734 C733 1.414 . S
C734 C735 1.374 . S
C735 H715 0.950 . S
C735 C731 1.385 . S
C735 C734 1.374 . S
C736 C733 1.499 . S
C736 C737 1.373 . S
C736 C738 1.389 . S
C737 H716 0.950 . S
C737 C736 1.373 . S
C737 C753 1.377 . S
C738 C736 1.389 . S
C738 C739 1.524 . S
C738 C752 1.377 . S
C739 C738 1.524 . S
C739 C740 1.397 . S
C739 C744 1.363 . S
C740 H717 0.950 . S
C740 C739 1.397 . S
C740 C741 1.334 . S
C741 H718 0.950 . S
C741 C740 1.334 . S
C741 C742 1.287 . S
C742 C741 1.287 . S
C742 C743 1.524 . S
C742 H761 0.913 . S
C743 H719 0.950 . S
C743 C742 1.524 . S
C743 C744 1.415 . S
C744 H720 0.950 . S
C744 C739 1.363 . S
C744 C743 1.415 . S
C745 H721 0.951 . S
C745 C746 1.366 . S
C745 C747 1.388 . S
C746 C745 1.366 . S
C746 C750 1.385 . S
C747 H722 0.951 . S
C747 C745 1.388 . S
C747 C748 1.366 . S
C748 C747 1.366 . S
C748 C749 1.414 . S
C748 C751 1.499 . S
C749 H723 0.950 . S
C749 C748 1.414 . S
C749 C750 1.374 . S
C750 H724 0.950 . S
C750 C746 1.385 . S
C750 C749 1.374 . S
C751 C748 1.499 . S
C751 C752 1.373 . S
C751 C753 1.389 . S
C752 H725 0.950 . S
C752 C738 1.377 . S
C752 C751 1.373 . S
C753 C737 1.377 . S
C753 C751 1.389 . S
C753 C754 1.524 . S
C754 C753 1.524 . S
C754 C755 1.397 . S
C754 C759 1.363 . S
C755 H726 0.950 . S
C755 C754 1.397 . S
C755 C756 1.334 . S
C756 H727 0.950 . S
C756 C755 1.334 . S
C756 C757 1.287 . S
C757 C756 1.287 . S
C757 C758 1.524 . S
C757 H760 0.999 . S
C758 H728 0.950 . S
C758 C757 1.524 . S
C758 C759 1.415 . S
C759 H729 0.950 . S
C759 C754 1.363 . S
C759 C758 1.415 . S
H760 C757 0.999 . S
H761 C742 0.913 . S
H762 C780 0.951 . S
H763 C782 0.951 . S
H764 C784 0.950 . S
H765 C785 0.950 . S
H766 C787 0.950 . S
H767 C790 0.950 . S
H768 C791 0.950 . S
H769 C793 0.950 . S
H770 C794 0.950 . S
H771 C795 0.951 . S
H772 C797 0.951 . S
H773 C799 0.950 . S
H774 C800 0.950 . S
H775 C802 0.950 . S
H776 C805 0.950 . S
H777 C806 0.950 . S
H778 C808 0.950 . S
H779 C809 0.950 . S
C780 H762 0.951 . S
C780 C781 1.366 . S
C780 C782 1.388 . S
C781 C780 1.366 . S
C781 C785 1.385 . S
C782 H763 0.951 . S
C782 C780 1.388 . S
C782 C783 1.366 . S
C783 C782 1.366 . S
C783 C784 1.414 . S
C783 C786 1.499 . S
C784 H764 0.950 . S
C784 C783 1.414 . S
C784 C785 1.374 . S
C785 H765 0.950 . S
C785 C781 1.385 . S
C785 C784 1.374 . S
C786 C783 1.499 . S
C786 C787 1.373 . S
C786 C788 1.389 . S
C787 H766 0.950 . S
C787 C786 1.373 . S
C787 C803 1.377 . S
C788 C786 1.389 . S
C788 C789 1.524 . S
C788 C802 1.377 . S
C789 C788 1.524 . S
C789 C790 1.397 . S
C789 C794 1.363 . S
C790 H767 0.950 . S
C790 C789 1.397 . S
C790 C791 1.334 . S
C791 H768 0.950 . S
C791 C790 1.334 . S
C791 C792 1.287 . S
C792 C791 1.287 . S
C792 C793 1.524 . S
C792 H811 0.913 . S
C793 H769 0.950 . S
C793 C792 1.524 . S
C793 C794 1.415 . S
C794 H770 0.950 . S
C794 C789 1.363 . S
C794 C793 1.415 . S
C795 H771 0.951 . S
C795 C796 1.366 . S
C795 C797 1.388 . S
C796 C795 1.366 . S
C796 C800 1.385 . S
C797 H772 0.951 . S
C797 C795 1.388 . S
C797 C798 1.366 . S
C798 C797 1.366 . S
C798 C799 1.414 . S
C798 C801 1.499 . S
C799 H773 0.950 . S
C799 C798 1.414 . S
C799 C800 1.374 . S
C800 H774 0.950 . S
C800 C796 1.385 . S
C800 C799 1.374 . S
C801 C798 1.499 . S
C801 C802 1.373 . S
C801 C803 1.389 . S
C802 H775 0.950 . S
C802 C788 1.377 . S
C802 C801 1.373 . S
C803 C787 1.377 . S
C803 C801 1.389 . S
C803 C804 1.524 . S
C804 C803 1.524 . S
C804 C805 1.397 . S
C804 C809 1.363 . S
C805 H776 0.950 . S
C805 C804 1.397 . S
C805 C806 1.334 . S
C806 H777 0.950 . S
C806 C805 1.334 . S
C806 C807 1.287 . S
C807 C806 1.287 . S
C807 C808 1.524 . S
C807 H810 0.999 . S
C808 H778 0.950 . S
C808 C807 1.524 . S
C808 C809 1.415 . S
C809 H779 0.950 . S
C809 C804 1.363 . S
C809 C808 1.415 . S
H810 C807 0.999 . S
H811 C792 0.913 . S
H812 C830 0.951 . S
H813 C832 0.951 . S
H814 C834 0.950 . S
H815 C835 0.950 . S
H816 C837 0.950 . S
H817 C840 0.950 . S
H818 C841 0.950 . S
H819 C843 0.950 . S
H820 C844 0.950 . S
H821 C845 0.951 . S
H822 C847 0.951 . S
H823 C849 0.950 . S
H824 C850 0.950 . S
H825 C852 0.950 . S
H826 C855 0.950 . S
H827 C856 0.950 . S
H828 C858 0.950 . S
H829 C859 0.950 . S
C830 H812 0.951 . S
C830 C831 1.366 . S
C830 C832 1.388 . S
C831 C830 1.366 . S
C831 C835 1.385 . S
C832 H813 0.951 . S
C832 C830 1.388 . S
C832 C833 1.366 . S
C833 C832 1.366 . S
C833 C834 1.414 . S
C833 C836 1.499 . S
C834 H814 0.950 . S
C834 C833 1.414 . S
C834 C835 1.374 . S
C835 H815 0.950 . S
C835 C831 1.385 . S
C835 C834 1.374 . S
C836 C833 1.499 . S
C836 C837 1.373 . S
C836 C838 1.389 . S
C837 H816 0.950 . S
C837 C836 1.373 . S
C837 C853 1.377 . S
C838 C836 1.389 . S
C838 C839 1.524 . S
C838 C852 1.377 . S
C839 C838 1.524 . S
C839 C840 1.397 . S
C839 C844 1.363 . S
C840 H817 0.950 . S
C840 C839 1.397 . S
C840 C841 1.334 . S
C841 H818 0.950 . S
C841 C840 1.334 . S
C841 C842 1.287 . S
C842 C841 1.287 . S
C842 C843 1.524 . S
C842 H861 0.913 . S
C843 H819 0.950 . S
C843 C842 1.524 . S
C843 C844 1.415 . S
C844 H820 0.950 . S
C844 C839 1.363 . S
C844 C843 1.415 . S
C845 H821 0.951 . S
C845 C846 1.366 . S
C845 C847 1.388 . S
C846 C845 1.366 . S
C846 C850 1.385 . S
C847 H822 0.951 . S
C847 C845 1.388 . S
C847 C848 1.366 . S
C848 C847 1.366 . S
C848 C849 1.414 . S
C848 C851 1.499 . S
C849 H823 0.950 . S
C849 C848 1.414 . S
C849 C850 1.374 . S
C850 H824 0.950 . S
C850 C846 1.385 . S
C850 C849 1.374 . S
C851 C848 1.499 . S
C851 C852 1.373 . S
C851 C853 1.389 . S
C852 H825 0.950 . S
C852 C838 1.377 . S
C852 C851 1.373 . S
C853 C837 1.377 . S
C853 C851 1.389 . S
C853 C854 1.524 . S
C854 C853 1.524 . S
C854 C855 1.397 . S
C854 C859 1.363 . S
C855 H826 0.950 . S
C855 C854 1.397 . S
C855 C856 1.334 . S
C856 H827 0.950 . S
C856 C855 1.334 . S
C856 C857 1.287 . S
C857 C856 1.287 . S
C857 C858 1.524 . S
C857 H860 0.999 . S
C858 H828 0.950 . S
C858 C857 1.524 . S
C858 C859 1.415 . S
C859 H829 0.950 . S
C859 C854 1.363 . S
C859 C858 1.415 . S
H860 C857 0.999 . S
H861 C842 0.913 . S
H862 C880 0.951 . S
H863 C882 0.951 . S
H864 C884 0.950 . S
H865 C885 0.950 . S
H866 C887 0.950 . S
H867 C890 0.950 . S
H868 C891 0.950 . S
H869 C893 0.950 . S
H870 C894 0.950 . S
H871 C895 0.951 . S
H872 C897 0.951 . S
H873 C899 0.950 . S
H874 C900 0.950 . S
H875 C902 0.950 . S
H876 C905 0.950 . S
H877 C906 0.950 . S
H878 C908 0.950 . S
H879 C909 0.950 . S
C880 H862 0.951 . S
C880 C881 1.366 . S
C880 C882 1.388 . S
C881 C880 1.366 . S
C881 C885 1.385 . S
C882 H863 0.951 . S
C882 C880 1.388 . S
C882 C883 1.366 . S
C883 C882 1.366 . S
C883 C884 1.414 . S
C883 C886 1.499 . S
C884 H864 0.950 . S
C884 C883 1.414 . S
C884 C885 1.374 . S
C885 H865 0.950 . S
C885 C881 1.385 . S
C885 C884 1.374 . S
C886 C883 1.499 . S
C886 C887 1.373 . S
C886 C888 1.389 . S
C887 H866 0.950 . S
C887 C886 1.373 . S
C887 C903 1.377 . S
C888 C886 1.389 . S
C888 C889 1.524 . S
C888 C902 1.377 . S
C889 C888 1.524 . S
C889 C890 1.397 . S
C889 C894 1.363 . S
C890 H867 0.950 . S
C890 C889 1.397 . S
C890 C891 1.334 . S
C891 H868 0.950 . S
C891 C890 1.334 . S
C891 C892 1.287 . S
C892 C891 1.287 . S
C892 C893 1.524 . S
C892 H911 0.913 . S
C893 H869 0.950 . S
C893 C892 1.524 . S
C893 C894 1.415 . S
C894 H870 0.950 . S
C894 C889 1.363 . S
C894 C893 1.415 . S
C895 H871 0.951 . S
C895 C896 1.366 . S
C895 C897 1.388 . S
C896 C895 1.366 . S
C896 C900 1.385 . S
C897 H872 0.951 . S
C897 C895 1.388 . S
C897 C898 1.366 . S
C898 C897 1.366 . S
C898 C899 1.414 . S
C898 C901 1.499 . S
C899 H873 0.950 . S
C899 C898 1.414 . S
C899 C900 1.374 . S
C900 H874 0.950 . S
C900 C896 1.385 . S
C900 C899 1.374 . S
C901 C898 1.499 . S
C901 C902 1.373 . S
C901 C903 1.389 . S
C902 H875 0.950 . S
C902 C888 1.377 . S
C902 C901 1.373 . S
C903 C887 1.377 . S
C903 C901 1.389 . S
C903 C904 1.524 . S
C904 C903 1.524 . S
C904 C905 1.397 . S
C904 C909 1.363 . S
C905 H876 0.950 . S
C905 C904 1.397 . S
C905 C906 1.334 . S
C906 H877 0.950 . S
C906 C905 1.334 . S
C906 C907 1.287 . S
C907 C906 1.287 . S
C907 C908 1.524 . S
C907 H910 0.999 . S
C908 H878 0.950 . S
C908 C907 1.524 . S
C908 C909 1.415 . S
C909 H879 0.950 . S
C909 C904 1.363 . S
C909 C908 1.415 . S
H910 C907 0.999 . S
H911 C892 0.913 . S
C131 C5 1.520 . S
C146 C47 1.519 . S
C181 C0 1.485 . S
C196 C14 1.485 . S
C231 C19 1.519 . S
C246 C33 1.519 . S
C281 C42 1.485 . S
C296 C28 1.485 . S
C331 C61 1.519 . S
C346 C103 1.519 . S
C381 C70 1.485 . S
C396 C56 1.485 . S
C431 C89 1.519 . S
C446 C75 1.519 . S
C481 C98 1.485 . S
C496 C84 1.485 . S
C531 C95 1.470 . S
C546 C9 1.481 . S
C581 C25 1.470 . S
C596 C107 1.481 . S
C631 C67 1.470 . S
C646 C37 1.481 . S
C681 C79 1.481 . S
C696 C53 1.470 . S
C731 C81 1.470 . S
C746 C51 1.481 . S
C781 C11 1.470 . S
C796 C93 1.481 . S
C831 C23 1.481 . S
C846 C109 1.470 . S
C881 C39 1.470 . S
C896 C65 1.481 . S
