# Generated by pormake.
# Topology smc, (6)-cn, num edge types: 1
# Building blocks:
#     Node 0, Type 0, BuildingBlock: CUWYAW_clean_sbu_0, # of connection points: 6
#     Node 1, Type 0, BuildingBlock: CUWYAW_clean_sbu_0, # of connection points: 6
#     Node 2, Type 0, BuildingBlock: CUWYAW_clean_sbu_0, # of connection points: 6
#     Node 3, Type 0, BuildingBlock: CUWYAW_clean_sbu_0, # of connection points: 6
#     Node 4, Type 0, BuildingBlock: CUWYAW_clean_sbu_0, # of connection points: 6
#     Node 5, Type 0, BuildingBlock: CUWYAW_clean_sbu_0, # of connection points: 6
#     Node 6, Type 0, BuildingBlock: CUWYAW_clean_sbu_0, # of connection points: 6
#     Node 7, Type 0, BuildingBlock: CUWYAW_clean_sbu_0, # of connection points: 6
#     Node 8, Type 0, BuildingBlock: CUWYAW_clean_sbu_0, # of connection points: 6
#     Edge 9, Type (0, 0), BuildingBlock: TEMPAE_clean_linker_10, # of connection points: 2
#     Edge 10, Type (0, 0), BuildingBlock: TEMPAE_clean_linker_10, # of connection points: 2
#     Edge 11, Type (0, 0), BuildingBlock: TEMPAE_clean_linker_10, # of connection points: 2
#     Edge 12, Type (0, 0), BuildingBlock: TEMPAE_clean_linker_10, # of connection points: 2
#     Edge 13, Type (0, 0), BuildingBlock: TEMPAE_clean_linker_10, # of connection points: 2
#     Edge 14, Type (0, 0), BuildingBlock: TEMPAE_clean_linker_10, # of connection points: 2
#     Edge 15, Type (0, 0), BuildingBlock: TEMPAE_clean_linker_10, # of connection points: 2
#     Edge 16, Type (0, 0), BuildingBlock: TEMPAE_clean_linker_10, # of connection points: 2
#     Edge 17, Type (0, 0), BuildingBlock: TEMPAE_clean_linker_10, # of connection points: 2
#     Edge 18, Type (0, 0), BuildingBlock: TEMPAE_clean_linker_10, # of connection points: 2
#     Edge 19, Type (0, 0), BuildingBlock: TEMPAE_clean_linker_10, # of connection points: 2
#     Edge 20, Type (0, 0), BuildingBlock: TEMPAE_clean_linker_10, # of connection points: 2
#     Edge 21, Type (0, 0), BuildingBlock: TEMPAE_clean_linker_10, # of connection points: 2
#     Edge 22, Type (0, 0), BuildingBlock: TEMPAE_clean_linker_10, # of connection points: 2
#     Edge 23, Type (0, 0), BuildingBlock: TEMPAE_clean_linker_10, # of connection points: 2
#     Edge 24, Type (0, 0), BuildingBlock: TEMPAE_clean_linker_10, # of connection points: 2
#     Edge 25, Type (0, 0), BuildingBlock: TEMPAE_clean_linker_10, # of connection points: 2
#     Edge 26, Type (0, 0), BuildingBlock: TEMPAE_clean_linker_10, # of connection points: 2
#     Edge 27, Type (0, 0), BuildingBlock: TEMPAE_clean_linker_10, # of connection points: 2
#     Edge 28, Type (0, 0), BuildingBlock: TEMPAE_clean_linker_10, # of connection points: 2
#     Edge 29, Type (0, 0), BuildingBlock: TEMPAE_clean_linker_10, # of connection points: 2
#     Edge 30, Type (0, 0), BuildingBlock: TEMPAE_clean_linker_10, # of connection points: 2
#     Edge 31, Type (0, 0), BuildingBlock: TEMPAE_clean_linker_10, # of connection points: 2
#     Edge 32, Type (0, 0), BuildingBlock: TEMPAE_clean_linker_10, # of connection points: 2
#     Edge 33, Type (0, 0), BuildingBlock: TEMPAE_clean_linker_10, # of connection points: 2
#     Edge 34, Type (0, 0), BuildingBlock: TEMPAE_clean_linker_10, # of connection points: 2
#     Edge 35, Type (0, 0), BuildingBlock: TEMPAE_clean_linker_10, # of connection points: 2
# Relax obj value: 0.193
# Max RMSD: 0.317
# Mean RMSD: 0.317
data_MOF--net-smc--node1-CUWYAW_clean_sbu_0--edge1-TEMPAE_clean_linker_10
_symmetry_space_group_name_H-M    P1
_symmetry_Int_Tables_number       1
_symmetry_cell_setting            triclinic
loop_
_symmetry_equiv_pos_as_xyz
'x, y, z'
_cell_length_a     40.107739
_cell_length_b     40.036807
_cell_length_c     40.434004
_cell_angle_alpha  90.014188
_cell_angle_beta   90.025168
_cell_angle_gamma 119.91542
loop_
_atom_site_label
_atom_site_type_symbol
_atom_site_fract_x
_atom_site_fract_y
_atom_site_fract_z
_atom_type_partial_charge
C0 C 0.94008 0.32956 0.01274 0.0
Eu1 Eu 0.99072 0.403 0.01674 0.0
C2 C 0.89714 0.30659 0.01507 0.0
C3 C 0.87781 0.29643 0.04566 0.0
C4 C 0.83741 0.27464 0.04701 0.0
C5 C 0.81516 0.26255 0.01781 0.0
C6 C 0.83466 0.2732 0.9873 0.0
C7 C 0.87489 0.29464 0.98597 0.0
C8 C 0.01743 0.44084 0.07553 0.0
C9 C 0.95606 0.45988 0.02012 0.0
C10 C 0.08469 0.5558 0.9908 0.0
Eu11 Eu 0.03872 0.48263 1.00214 0.0
C12 C 0.11875 0.59456 0.99487 0.0
C13 C 0.13643 0.61618 0.9664 0.0
C14 C 0.16387 0.65534 0.96869 0.0
C15 C 0.17441 0.6739 0.99962 0.0
C16 C 0.15781 0.65168 0.0283 0.0
C17 C 0.13017 0.61244 0.02595 0.0
C18 C 1.00036 0.43575 0.94807 0.0
C19 C 0.0842 0.4381 0.01132 0.0
O20 O 0.95374 0.35238 0.98719 0.0
O21 O 0.96007 0.34553 0.03956 0.0
O22 O 0.9818 0.41588 0.06919 0.0
O23 O 0.0366 0.44908 0.04873 0.0
O24 O 0.94896 0.42607 1.0087 0.0
O25 O 0.99131 0.48505 0.02807 0.0
O26 O 0.05845 0.54248 0.01395 0.0
O27 O 0.08679 0.52883 0.97425 0.0
O28 O 1.00059 0.46746 0.95474 0.0
O29 O 0.01862 0.43044 0.9704 0.0
O30 O 0.08707 0.47221 0.01117 0.0
O31 O 0.04991 0.40582 0.01199 0.0
H32 H 0.89385 0.30509 0.06862 0.0
H33 H 0.82372 0.2667 0.07102 0.0
H34 H 0.81886 0.2653 0.96422 0.0
H35 H 0.88864 0.30196 0.96194 0.0
H36 H 0.12765 0.60318 0.94212 0.0
H37 H 0.17552 0.67141 0.94603 0.0
H38 H 0.16569 0.66475 0.05258 0.0
H39 H 0.11685 0.59649 0.04835 0.0
C40 C 0.70978 0.62801 0.02276 0.0
Eu41 Eu 0.63641 0.60533 0.02005 0.0
C42 C 0.73271 0.60813 0.02081 0.0
C43 C 0.75943 0.61433 0.04586 0.0
C44 C 0.78074 0.59528 0.04536 0.0
C45 C 0.77599 0.56952 0.01967 0.0
C46 C 0.74913 0.56323 0.99456 0.0
C47 C 0.7275 0.58203 0.99528 0.0
C48 C 0.59616 0.60259 0.07619 0.0
C49 C 0.57925 0.51374 0.01879 0.0
C50 C 0.48168 0.54428 0.99994 0.0
Eu51 Eu 0.55658 0.57879 1.00391 0.0
C52 C 0.44378 0.54195 1.00337 0.0
C53 C 0.42448 0.54394 0.97505 0.0
C54 C 0.38565 0.53367 0.97657 0.0
C55 C 0.36511 0.52091 1.00643 0.0
C56 C 0.38497 0.52076 0.03509 0.0
C57 C 0.42379 0.53103 0.03356 0.0
C58 C 0.60224 0.59235 0.94932 0.0
C59 C 0.607 0.668 1.00572 0.0
O60 O 0.69264 0.63005 0.99592 0.0
O61 O 0.68805 0.62026 0.04885 0.0
O62 O 0.61896 0.58855 0.07339 0.0
O63 O 0.5924 0.61339 0.04766 0.0
O64 O 0.61547 0.54108 0.01625 0.0
O65 O 0.55159 0.5221 0.01828 0.0
O66 O 0.50018 0.54375 0.02646 0.0
O67 O 0.50457 0.5643 0.97573 0.0
O68 O 0.57488 0.60049 0.95146 0.0
O69 O 0.60326 0.57555 0.97553 0.0
O70 O 0.57207 0.63952 0.0112 0.0
O71 O 0.63707 0.66217 1.00519 0.0
H72 H 0.76376 0.63393 0.06601 0.0
H73 H 0.80136 0.60115 0.06496 0.0
H74 H 0.7443 0.54321 0.97464 0.0
H75 H 0.70647 0.57573 0.97607 0.0
H76 H 0.43884 0.55155 0.95128 0.0
H77 H 0.37125 0.53385 0.95396 0.0
H78 H 0.37022 0.51172 0.05861 0.0
H79 H 0.43761 0.52877 0.0558 0.0
C80 C 0.40931 0.0987 0.01516 0.0
Eu81 Eu 0.43412 0.04947 0.01731 0.0
C82 C 0.42813 0.14142 0.01345 0.0
C83 C 0.41491 0.16048 0.03413 0.0
C84 C 0.43285 0.20076 0.03433 0.0
C85 C 0.46457 0.22331 0.01368 0.0
C86 C 0.47793 0.20407 0.99296 0.0
C87 C 0.46006 0.16363 0.99297 0.0
C88 C 0.438 0.01838 0.07633 0.0
C89 C 0.52528 0.08502 0.0221 0.0
C90 C 0.50042 0.9599 1.0028 0.0
Eu91 Eu 0.46337 0.99821 1.00589 0.0
C92 C 0.50393 0.92474 1.00138 0.0
C93 C 0.5209 0.91864 0.97338 0.0
C94 C 0.53171 0.89041 0.97345 0.0
C95 C 0.52593 0.86751 1.00159 0.0
C96 C 0.50729 0.87236 0.02915 0.0
C97 C 0.49656 0.90082 0.02913 0.0
C98 C 0.44755 0.02656 0.94947 0.0
C99 C 0.37433 0.955 1.00889 0.0
O100 O 0.41114 0.08025 0.98912 0.0
O101 O 0.41466 0.08488 0.04257 0.0
O102 O 0.45188 0.05483 0.0707 0.0
O103 O 0.42805 1.00055 0.04891 0.0
O104 O 0.49841 0.09325 0.01371 0.0
O105 O 0.51616 0.04911 0.02629 0.0
O106 O 0.49063 0.9695 0.03051 0.0
O107 O 0.48928 0.97089 0.97665 0.0
O108 O 0.43743 0.99071 0.95411 0.0
O109 O 0.46554 0.0457 0.97465 0.0
O110 O 0.40464 0.95129 0.01333 0.0
O111 O 0.37801 0.99011 1.00611 0.0
H112 H 0.3908 0.14411 0.05054 0.0
H113 H 0.42211 0.21419 0.05121 0.0
H114 H 0.50198 0.22019 0.97645 0.0
H115 H 0.47131 0.14981 0.97704 0.0
H116 H 0.5274 0.93691 0.95181 0.0
H117 H 0.5454 0.88707 0.9516 0.0
H118 H 0.50257 0.85538 0.05131 0.0
H119 H 0.48396 0.90507 0.05128 0.0
C120 C 0.60617 0.6621 0.34998 0.0
Eu121 Eu 0.65546 0.73582 0.3514 0.0
C122 C 0.56329 0.63947 0.3506 0.0
C123 C 0.54314 0.63083 0.38076 0.0
C124 C 0.50289 0.6099 0.38142 0.0
C125 C 0.48149 0.59673 0.35196 0.0
C126 C 0.50166 0.60535 0.32176 0.0
C127 C 0.54199 0.62647 0.32109 0.0
C128 C 0.69049 0.77302 0.40908 0.0
C129 C 0.61991 0.79169 0.35534 0.0
C130 C 0.74576 0.89125 0.33512 0.0
Eu131 Eu 0.70706 0.81616 0.33813 0.0
C132 C 0.78056 0.92989 0.33571 0.0
C133 C 0.78876 0.95362 0.30785 0.0
C134 C 0.81687 0.99257 0.30919 0.0
C135 C 0.83742 1.00882 0.33854 0.0
C136 C 0.83026 0.9847 0.36614 0.0
C137 C 0.80204 0.9456 0.36478 0.0
C138 C 0.67572 0.77187 0.2826 0.0
C139 C 0.74794 0.76867 0.33671 0.0
O140 O 0.62251 0.68229 0.32338 0.0
O141 O 0.62321 0.68084 0.37692 0.0
O142 O 0.65392 0.7497 0.40522 0.0
O143 O 0.70627 0.779 0.38083 0.0
O144 O 0.61117 0.75555 0.35162 0.0
O145 O 0.65578 0.81942 0.3553 0.0
O146 O 0.73248 0.87202 0.3627 0.0
O147 O 0.73853 0.86914 0.30921 0.0
O148 O 0.71176 0.79731 0.28582 0.0
O149 O 0.65782 0.77076 0.30866 0.0
O150 O 0.7532 0.80272 0.34433 0.0
O151 O 0.71255 0.73796 0.33513 0.0
H152 H 0.55844 0.64036 0.40403 0.0
H153 H 0.48857 0.60444 0.40513 0.0
H154 H 0.48636 0.59525 0.29856 0.0
H155 H 0.55649 0.63248 0.29742 0.0
H156 H 0.77213 0.94245 0.28535 0.0
H157 H 0.82126 1.01033 0.28762 0.0
H158 H 0.84598 0.99622 0.38899 0.0
H159 H 0.7962 0.92809 0.38676 0.0
C160 C 0.3781 0.96287 0.3597 0.0
Eu161 Eu 0.30512 0.94117 0.35611 0.0
C162 C 0.39984 0.94173 0.3599 0.0
C163 C 0.40983 0.93132 0.38993 0.0
C164 C 0.4303 0.91147 0.39025 0.0
C165 C 0.44164 0.90171 0.36052 0.0
C166 C 0.43158 0.9121 0.33043 0.0
C167 C 0.4109 0.93177 0.33012 0.0
C168 C 0.26173 0.93446 0.41006 0.0
C169 C 0.24388 0.84898 0.3511 0.0
C170 C 0.14846 0.89143 0.33771 0.0
Eu171 Eu 0.22097 0.91369 0.33692 0.0
C172 C 0.10707 0.87871 0.33819 0.0
C173 C 0.08797 0.87776 0.30882 0.0
C174 C 0.04857 0.86489 0.30907 0.0
C175 C 0.02755 0.85303 0.33873 0.0
C176 C 0.04693 0.85515 0.36831 0.0
C177 C 0.08633 0.8676 0.36799 0.0
C178 C 0.26404 0.91942 0.28073 0.0
C179 C 0.27619 1.0043 0.34071 0.0
O180 O 0.36067 0.96208 0.33225 0.0
O181 O 0.35705 0.95911 0.38563 0.0
O182 O 0.28371 0.91939 0.40716 0.0
O183 O 0.25845 0.94651 0.38171 0.0
O184 O 0.28066 0.8761 0.34965 0.0
O185 O 0.21623 0.85757 0.35132 0.0
O186 O 0.16478 0.88105 0.36054 0.0
O187 O 0.17143 0.91349 0.31424 0.0
O188 O 0.22766 0.9083 0.28018 0.0
O189 O 0.27341 0.92481 0.31064 0.0
O190 O 0.24071 0.9756 0.33973 0.0
O191 O 0.30635 0.99918 0.34592 0.0
H192 H 0.40177 0.93848 0.41332 0.0
H193 H 0.43698 0.90353 0.4139 0.0
H194 H 0.44029 0.90572 0.30703 0.0
H195 H 0.40383 0.9394 0.30647 0.0
H196 H 0.10335 0.88638 0.28555 0.0
H197 H 0.03444 0.86401 0.28599 0.0
H198 H 0.03143 0.84614 0.39151 0.0
H199 H 0.10055 0.86845 0.39102 0.0
C200 C 0.07696 0.43327 0.3555 0.0
Eu201 Eu 0.10077 0.38326 0.35285 0.0
C202 C 0.09713 0.4764 0.355 0.0
C203 C 0.10927 0.49759 0.38468 0.0
C204 C 0.1279 0.53796 0.38455 0.0
C205 C 0.13484 0.55861 0.35474 0.0
C206 C 0.1228 0.53739 0.325 0.0
C207 C 0.10424 0.49693 0.32515 0.0
C208 C 0.10913 0.35048 0.40912 0.0
C209 C 0.19284 0.41927 0.35039 0.0
C210 C 0.16534 0.29326 0.32923 0.0
Eu211 Eu 0.12929 0.33221 0.33531 0.0
C212 C 0.17011 0.25891 0.3312 0.0
C213 C 0.18525 0.24985 0.30358 0.0
C214 C 0.19669 0.22217 0.30568 0.0
C215 C 0.1932 0.20266 0.33551 0.0
C216 C 0.17629 0.21034 0.36286 0.0
C217 C 0.16509 0.23845 0.36081 0.0
C218 C 0.11068 0.36219 0.28165 0.0
C219 C 0.04062 0.28893 0.34455 0.0
O220 O 0.07667 0.41541 0.3283 0.0
O221 O 0.08243 0.41739 0.38157 0.0
O222 O 0.12221 0.38705 0.40498 0.0
O223 O 0.09736 0.33365 0.3814 0.0
O224 O 0.16497 0.42772 0.34969 0.0
O225 O 0.185 0.38352 0.34904 0.0
O226 O 0.16524 0.31096 0.3564 0.0
O227 O 0.14489 0.29626 0.30545 0.0
O228 O 0.1031 0.32684 0.28414 0.0
O229 O 0.12895 0.38065 0.30711 0.0
O230 O 0.07152 0.28586 0.34618 0.0
O231 O 0.04369 0.3239 0.34344 0.0
H232 H 0.10438 0.48296 0.40821 0.0
H233 H 0.13716 0.55296 0.40796 0.0
H234 H 0.12697 0.55194 0.30151 0.0
H235 H 0.09509 0.48168 0.30185 0.0
H236 H 0.18974 0.26541 0.28057 0.0
H237 H 0.20903 0.21657 0.28402 0.0
H238 H 0.17329 0.19587 0.38622 0.0
H239 H 0.15378 0.24504 0.38263 0.0
C240 C 0.27089 0.99692 0.69067 0.0
Eu241 Eu 0.32134 0.07048 0.68748 0.0
C242 C 0.22793 0.97416 0.69012 0.0
C243 C 0.20758 0.95685 0.71929 0.0
C244 C 0.16728 0.93556 0.71949 0.0
C245 C 0.14589 0.93019 0.6903 0.0
C246 C 0.16643 0.94773 0.66108 0.0
C247 C 0.20675 0.96976 0.66116 0.0
C248 C 0.35583 0.10886 0.74477 0.0
C249 C 0.28656 0.12715 0.68943 0.0
C250 C 0.41211 0.22454 0.66669 0.0
Eu251 Eu 0.37249 0.14952 0.67264 0.0
C252 C 0.44738 0.26268 0.67013 0.0
C253 C 0.46559 0.28357 0.64143 0.0
C254 C 0.49403 0.3224 0.64331 0.0
C255 C 0.50506 0.34144 0.674 0.0
C256 C 0.48801 0.31998 0.70291 0.0
C257 C 0.45937 0.28109 0.701 0.0
C258 C 0.34094 0.10429 0.61714 0.0
C259 C 0.41443 0.10279 0.67616 0.0
O260 O 0.28906 0.01398 0.66345 0.0
O261 O 0.2863 0.01865 0.71656 0.0
O262 O 0.31913 0.08683 0.74072 0.0
O263 O 0.37202 0.11414 0.71679 0.0
O264 O 0.27789 0.09144 0.68295 0.0
O265 O 0.3226 0.15399 0.69199 0.0
O266 O 0.39212 0.20686 0.69299 0.0
O267 O 0.4105 0.20084 0.64372 0.0
O268 O 0.37648 0.131 0.62016 0.0
O269 O 0.32297 0.10312 0.64321 0.0
O270 O 0.41846 0.13657 0.68294 0.0
O271 O 0.37911 0.07202 0.67302 0.0
H272 H 0.2229 0.95998 0.7422 0.0
H273 H 0.15304 0.92367 0.74279 0.0
H274 H 0.15157 0.94415 0.63787 0.0
H275 H 0.22132 0.98334 0.63851 0.0
H276 H 0.45648 0.27039 0.61727 0.0
H277 H 0.50601 0.33793 0.62047 0.0
H278 H 0.4962 0.33344 0.72703 0.0
H279 H 0.44571 0.26592 0.7236 0.0
C280 C 0.04002 0.29561 0.68795 0.0
Eu281 Eu 0.96643 0.27187 0.68542 0.0
C282 C 0.06319 0.27576 0.68705 0.0
C283 C 0.07878 0.27056 0.71646 0.0
C284 C 0.10045 0.25188 0.7163 0.0
C285 C 0.10717 0.23765 0.68669 0.0
C286 C 0.09156 0.24287 0.65719 0.0
C287 C 0.06995 0.26171 0.65736 0.0
C288 C 0.92427 0.2664 0.74082 0.0
C289 C 0.90988 0.17981 0.68341 0.0
C290 C 0.81245 0.20868 0.65949 0.0
Eu291 Eu 0.88721 0.24391 0.66624 0.0
C292 C 0.774 0.20521 0.66322 0.0
C293 C 0.75508 0.20872 0.63528 0.0
C294 C 0.716 0.19766 0.63661 0.0
C295 C 0.69476 0.18249 0.66587 0.0
C296 C 0.71416 0.18067 0.69424 0.0
C297 C 0.75325 0.19181 0.69293 0.0
C298 C 0.93627 0.26089 0.6135 0.0
C299 C 0.9341 0.33304 0.67499 0.0
O300 O 0.02245 0.29622 0.66085 0.0
O301 O 0.01864 0.28937 0.71411 0.0
O302 O 0.94849 0.25401 0.73841 0.0
O303 O 0.92003 0.2766 0.71212 0.0
O304 O 0.94618 0.20748 0.68429 0.0
O305 O 0.88224 0.18777 0.67984 0.0
O306 O 0.82988 0.20541 0.68564 0.0
O307 O 0.83634 0.23164 0.63701 0.0
O308 O 0.90854 0.26855 0.61494 0.0
O309 O 0.93603 0.2431 0.63947 0.0
O310 O 0.89979 0.3025 0.6764 0.0
O311 O 0.96553 0.32933 0.67486 0.0
H312 H 0.07436 0.28115 0.73976 0.0
H313 H 0.11248 0.24921 0.73946 0.0
H314 H 0.09565 0.23203 0.63391 0.0
H315 H 0.05853 0.26522 0.63422 0.0
H316 H 0.77001 0.21825 0.61186 0.0
H317 H 0.702 0.19922 0.61423 0.0
H318 H 0.69888 0.16976 0.71735 0.0
H319 H 0.76673 0.18835 0.71487 0.0
C320 C 0.74019 0.7658 0.68461 0.0
Eu321 Eu 0.76484 0.71651 0.68555 0.0
C322 C 0.75968 0.80874 0.68504 0.0
C323 C 0.76628 0.82864 0.71521 0.0
C324 C 0.78499 0.86894 0.71603 0.0
C325 C 0.79745 0.89064 0.68668 0.0
C326 C 0.79055 0.8707 0.65644 0.0
C327 C 0.772 0.83033 0.65563 0.0
C328 C 0.77094 0.6847 0.74311 0.0
C329 C 0.85658 0.75204 0.68738 0.0
C330 C 0.8291 0.62463 0.67243 0.0
Eu331 Eu 0.79379 0.6645 0.67193 0.0
C332 C 0.82982 0.58803 0.671 0.0
C333 C 0.84325 0.57892 0.64222 0.0
C334 C 0.85297 0.54991 0.64255 0.0
C335 C 0.84981 0.52959 0.67178 0.0
C336 C 0.83422 0.53708 0.70008 0.0
C337 C 0.8243 0.56602 0.69972 0.0
C338 C 0.77879 0.69417 0.61651 0.0
C339 C 0.70444 0.62251 0.67396 0.0
O340 O 0.74356 0.74918 0.65792 0.0
O341 O 0.74301 0.74936 0.71152 0.0
O342 O 0.78423 0.72123 0.73834 0.0
O343 O 0.75952 0.66716 0.71561 0.0
O344 O 0.82903 0.76069 0.68409 0.0
O345 O 0.84857 0.71616 0.68782 0.0
O346 O 0.8163 0.63302 0.69911 0.0
O347 O 0.82251 0.63837 0.64541 0.0
O348 O 0.77041 0.65855 0.61936 0.0
O349 O 0.79565 0.71262 0.64231 0.0
O350 O 0.73447 0.6179 0.67434 0.0
O351 O 0.70821 0.65771 0.6753 0.0
H352 H 0.75716 0.81305 0.73837 0.0
H353 H 0.79013 0.88307 0.73984 0.0
H354 H 0.79901 0.88624 0.63324 0.0
H355 H 0.76726 0.81608 0.63191 0.0
H356 H 0.84841 0.59574 0.61988 0.0
H357 H 0.86515 0.54499 0.62043 0.0
H358 H 0.83095 0.52146 0.72284 0.0
H359 H 0.81425 0.57242 0.72241 0.0
C360 C 0.2987 0.47216 0.0254 0.0
C361 C 0.32273 0.50561 1.00729 0.0
C362 C 0.25867 0.45682 0.02613 0.0
C363 C 0.24201 0.47522 1.00829 0.0
C364 C 0.26603 0.50898 0.98989 0.0
C365 C 0.30604 0.52368 0.98953 0.0
C366 C 0.23415 0.42109 0.04631 0.0
C367 C 0.2496 0.53015 0.97122 0.0
C368 C 0.13386 0.42272 0.99031 0.0
C369 C 0.12109 0.43865 0.01457 0.0
C370 C 0.1732 0.43372 0.98824 0.0
C371 C 0.19988 0.46089 1.01108 0.0
C372 C 0.18646 0.47539 0.03648 0.0
C373 C 0.14748 0.46425 0.03773 0.0
C374 C 0.18668 0.41817 0.96051 0.0
C375 C 0.21354 0.50447 0.06132 0.0
H376 H 0.31117 0.45757 0.03876 0.0
H377 H 0.32436 0.54975 0.97576 0.0
H378 H 0.2193 0.42774 0.0662 0.0
H379 H 0.21159 0.39851 0.03044 0.0
H380 H 0.2513 0.40933 0.0578 0.0
H381 H 0.27177 0.55445 0.95639 0.0
H382 H 0.22628 0.51007 0.95444 0.0
H383 H 0.23676 0.54176 0.9889 0.0
H384 H 0.11378 0.40393 0.9717 0.0
H385 H 0.13815 0.47784 0.05565 0.0
H386 H 0.20443 0.40632 0.97047 0.0
H387 H 0.20518 0.44198 0.94343 0.0
H388 H 0.16232 0.39534 0.94619 0.0
H389 H 0.22901 0.49237 0.0751 0.0
H390 H 0.19836 0.51311 0.07939 0.0
H391 H 0.23543 0.53072 0.04837 0.0
C392 C 0.57768 0.85121 0.98973 0.0
C393 C 0.54107 0.84015 1.00255 0.0
C394 C 0.59257 0.82602 0.99022 0.0
C395 C 0.57034 0.78861 1.00364 0.0
C396 C 0.53337 0.77722 0.01672 0.0
C397 C 0.51932 0.80321 0.01626 0.0
C398 C 0.63211 0.83937 0.97618 0.0
C399 C 0.50842 0.73743 0.03088 0.0
C400 C 0.59022 0.70987 0.97438 0.0
C401 C 0.60981 0.7058 1.00141 0.0
C402 C 0.57783 0.73705 0.97458 0.0
C403 C 0.5852 0.76097 1.0026 0.0
C404 C 0.60618 0.75791 0.02958 0.0
C405 C 0.61792 0.73007 0.02879 0.0
C406 C 0.55485 0.73853 0.94559 0.0
C407 C 0.61451 0.78261 0.06001 0.0
H408 H 0.59503 0.87989 0.9796 0.0
H409 H 0.49094 0.79431 0.02603 0.0
H410 H 0.65056 0.83652 0.99513 0.0
H411 H 0.63003 0.82087 0.95494 0.0
H412 H 0.64635 0.86979 0.96769 0.0
H413 H 0.47954 0.73226 0.03824 0.0
H414 H 0.50472 0.71523 0.01253 0.0
H415 H 0.52261 0.73355 0.05292 0.0
H416 H 0.58192 0.68957 0.95403 0.0
H417 H 0.63087 0.72537 0.05055 0.0
H418 H 0.56779 0.7684 0.93605 0.0
H419 H 0.52514 0.72968 0.95371 0.0
H420 H 0.55324 0.71935 0.92504 0.0
H421 H 0.62725 0.81336 0.05294 0.0
H422 H 0.63446 0.77961 0.07722 0.0
H423 H 0.58727 0.77422 0.07332 0.0
C424 C 0.30655 0.90693 0.99036 0.0
C425 C 0.33741 0.91823 0.01221 0.0
C426 C 0.27696 0.86786 0.98874 0.0
C427 C 0.2792 0.83967 1.00855 0.0
C428 C 0.30955 0.85152 0.03152 0.0
C429 C 0.33741 0.89051 0.03366 0.0
C430 C 0.24424 0.85643 0.9648 0.0
C431 C 0.31441 0.8228 0.05227 0.0
C432 C 0.19461 0.73897 0.02456 0.0
C433 C 0.20124 0.71647 1.00172 0.0
C434 C 0.21899 0.77914 0.02632 0.0
C435 C 0.25097 0.79756 1.00478 0.0
C436 C 0.25791 0.77506 0.98169 0.0
C437 C 0.23294 0.73494 0.98035 0.0
C438 C 0.21081 0.80187 0.05158 0.0
C439 C 0.29233 0.79321 0.95898 0.0
H440 H 0.30656 0.92793 0.97346 0.0
H441 H 0.36109 0.89899 0.05084 0.0
H442 H 0.24702 0.83981 0.94409 0.0
H443 H 0.21636 0.83748 0.9772 0.0
H444 H 0.24377 0.88189 0.95447 0.0
H445 H 0.33788 0.83704 0.07077 0.0
H446 H 0.2874 0.80318 0.06548 0.0
H447 H 0.32125 0.80476 0.0359 0.0
H448 H 0.16996 0.72525 0.04088 0.0
H449 H 0.23875 0.71791 0.96291 0.0
H450 H 0.20957 0.82604 0.03934 0.0
H451 H 0.23444 0.81463 0.07001 0.0
H452 H 0.18335 0.78379 0.06492 0.0
H453 H 0.29165 0.81591 0.94377 0.0
H454 H 0.29348 0.77184 0.94219 0.0
H455 H 0.31918 0.80729 0.97383 0.0
C456 C 0.52348 0.28992 1.01023 0.0
C457 C 0.48345 0.26653 0.01403 0.0
C458 C 0.54138 0.33046 1.01099 0.0
C459 C 0.51896 0.3484 0.01593 0.0
C460 C 0.47862 0.32504 0.01981 0.0
C461 C 0.46144 0.28464 0.01863 0.0
C462 C 0.5844 0.35418 1.00658 0.0
C463 C 0.45346 0.34274 0.02508 0.0
C464 C 0.56571 0.45251 0.04698 0.0
C465 C 0.56826 0.47254 0.01786 0.0
C466 C 0.55044 0.41222 0.04665 0.0
C467 C 0.53744 0.39153 0.01647 0.0
C468 C 0.54079 0.41201 0.9869 0.0
C469 C 0.55588 0.45217 0.98801 0.0
C470 C 0.54711 0.39162 0.07876 0.0
C471 C 0.5275 0.39133 0.95419 0.0
H472 H 0.54105 0.27657 1.00714 0.0
H473 H 0.43048 0.26722 0.02096 0.0
H474 H 0.59125 0.37371 0.98505 0.0
H475 H 0.59761 0.37254 0.02868 0.0
H476 H 0.59782 0.336 1.0027 0.0
H477 H 0.4227 0.32065 0.02838 0.0
H478 H 0.46324 0.36159 0.04725 0.0
H479 H 0.45594 0.36107 1.0036 0.0
H480 H 0.57461 0.46821 0.07014 0.0
H481 H 0.55731 0.46766 0.96556 0.0
H482 H 0.56164 0.37431 0.07661 0.0
H483 H 0.51636 0.37134 0.08426 0.0
H484 H 0.55989 0.4119 0.09986 0.0
H485 H 0.54172 0.37411 0.9494 0.0
H486 H 0.53374 0.41155 0.93323 0.0
H487 H 0.49605 0.37096 0.95499 0.0
C488 C 0.59231 0.1061 0.04084 0.0
C489 C 0.56674 0.11493 0.02447 0.0
C490 C 0.63221 0.1316 0.04064 0.0
C491 C 0.64741 0.1669 0.02328 0.0
C492 C 0.62175 0.17643 1.00724 0.0
C493 C 0.5817 0.15046 1.00817 0.0
C494 C 0.65818 0.12026 0.05845 0.0
C495 C 0.63672 0.21353 0.98816 0.0
C496 C 0.75073 0.24426 0.04382 0.0
C497 C 0.77198 0.23865 0.01896 0.0
C498 C 0.71028 0.22168 0.04521 0.0
C499 C 0.69021 0.19286 0.02102 0.0
C500 C 0.71135 0.18733 0.99566 0.0
C501 C 0.75175 0.20998 0.99506 0.0
C502 C 0.68901 0.22833 0.07286 0.0
C503 C 0.69132 0.15693 0.96939 0.0
H504 H 0.58113 0.07875 0.05356 0.0
H505 H 0.56228 0.15733 0.99512 0.0
H506 H 0.67716 0.11699 0.04038 0.0
H507 H 0.677 0.14322 0.0761 0.0
H508 H 0.64176 0.09278 0.07226 0.0
H509 H 0.61314 0.21766 0.97838 0.0
H510 H 0.65555 0.23841 1.00416 0.0
H511 H 0.65448 0.21358 0.9671 0.0
H512 H 0.76566 0.26656 0.06218 0.0
H513 H 0.76752 0.20459 0.97607 0.0
H514 H 0.67355 0.20183 0.08805 0.0
H515 H 0.66707 0.23457 0.06252 0.0
H516 H 0.70856 0.25255 0.08922 0.0
H517 H 0.67701 0.12793 0.98093 0.0
H518 H 0.71153 0.15784 0.95016 0.0
H519 H 0.66862 0.16073 0.95724 0.0
C520 C 0.93861 0.51135 0.0266 0.0
C521 C 0.92668 0.47236 0.02062 0.0
C522 C 0.91259 0.52512 0.02595 0.0
C523 C 0.87321 0.49936 0.01957 0.0
C524 C 0.86072 0.45984 0.01381 0.0
C525 C 0.88764 0.44683 0.01414 0.0
C526 C 0.92748 0.56752 0.03184 0.0
C527 C 0.81892 0.43139 1.00728 0.0
C528 C 0.80558 0.53474 0.0485 0.0
C529 C 0.79904 0.54945 0.01921 0.0
C530 C 0.8284 0.51709 0.04873 0.0
C531 C 0.84549 0.51422 0.019 0.0
C532 C 0.83847 0.52841 0.98924 0.0
C533 C 0.81527 0.54566 0.98967 0.0
C534 C 0.83486 0.50221 0.08098 0.0
C535 C 0.8566 0.5266 0.95709 0.0
H536 H 0.9687 0.53159 0.03136 0.0
H537 H 0.87813 0.41674 1.00939 0.0
H538 H 0.92064 0.58018 1.01029 0.0
H539 H 0.91308 0.5714 0.05372 0.0
H540 H 0.95906 0.58388 0.036 0.0
H541 H 0.81354 0.40153 1.00415 0.0
H542 H 0.80104 0.43182 0.02803 0.0
H543 H 0.80931 0.43976 0.9846 0.0
H544 H 0.79276 0.53696 0.07138 0.0
H545 H 0.81079 0.55727 0.96696 0.0
H546 H 0.86564 0.51924 0.08804 0.0
H547 H 0.82778 0.4718 0.07815 0.0
H548 H 0.81726 0.50393 0.10141 0.0
H549 H 0.88833 0.54493 0.95885 0.0
H550 H 0.84638 0.53656 0.93576 0.0
H551 H 0.85018 0.4967 0.95224 0.0
C552 C 0.79598 0.74844 0.35061 0.0
C553 C 0.78367 0.76815 0.32991 0.0
C554 C 0.83522 0.75914 0.35196 0.0
C555 C 0.86252 0.79084 0.33291 0.0
C556 C 0.84975 0.80967 0.31106 0.0
C557 C 0.81051 0.79766 0.30947 0.0
C558 C 0.84777 0.73797 0.37508 0.0
C559 C 0.87772 0.84428 0.29103 0.0
C560 C 0.967 0.84869 0.36103 0.0
C561 C 0.9852 0.83659 0.3383 0.0
C562 C 0.92693 0.83361 0.35997 0.0
C563 C 0.90458 0.80517 0.33608 0.0
C564 C 0.92288 0.79244 0.31358 0.0
C565 C 0.96292 0.80848 0.3148 0.0
C566 C 0.90871 0.84897 0.38366 0.0
C567 C 0.9002 0.7622 0.28784 0.0
H568 H 0.77555 0.72666 0.3673 0.0
H569 H 0.80108 0.81362 0.29411 0.0
H570 H 0.8673 0.73015 0.36211 0.0
H571 H 0.86402 0.75701 0.39607 0.0
H572 H 0.82292 0.71137 0.38511 0.0
H573 H 0.86295 0.85529 0.27483 0.0
H574 H 0.89731 0.86784 0.30789 0.0
H575 H 0.89582 0.83691 0.27537 0.0
H576 H 0.98421 0.87065 0.37907 0.0
H577 H 0.97688 0.79874 0.29745 0.0
H578 H 0.88561 0.82498 0.39798 0.0
H579 H 0.89518 0.8629 0.36958 0.0
H580 H 0.92991 0.87035 0.40124 0.0
H581 H 0.87631 0.7364 0.29978 0.0
H582 H 0.91833 0.75331 0.27386 0.0
H583 H 0.88719 0.77349 0.27004 0.0
C584 C 0.24545 0.18679 0.32508 0.0
C585 C 0.20901 0.17595 0.33816 0.0
C586 C 0.26079 0.16201 0.32654 0.0
C587 C 0.2391 0.12507 0.34099 0.0
C588 C 0.20231 0.11397 0.35444 0.0
C589 C 0.18793 0.1397 0.35321 0.0
C590 C 0.30015 0.1752 0.31217 0.0
C591 C 0.17776 0.0746 0.36948 0.0
C592 C 0.25916 0.0468 0.31076 0.0
C593 C 0.2787 0.04218 0.33761 0.0
C594 C 0.24636 0.07362 0.31157 0.0
C595 C 0.25386 0.09727 0.33977 0.0
C596 C 0.27515 0.09402 0.36646 0.0
C597 C 0.28685 0.06608 0.36527 0.0
C598 C 0.22265 0.07485 0.28305 0.0
C599 C 0.2838 0.11858 0.39699 0.0
H600 H 0.2622 0.21495 0.31382 0.0
H601 H 0.15969 0.13104 0.36322 0.0
H602 H 0.31867 0.17199 0.33083 0.0
H603 H 0.29771 0.15686 0.29069 0.0
H604 H 0.31451 0.20569 0.30388 0.0
H605 H 0.14889 0.06946 0.37685 0.0
H606 H 0.17402 0.0519 0.35166 0.0
H607 H 0.19227 0.07154 0.39166 0.0
H608 H 0.25114 0.02706 0.29 0.0
H609 H 0.29994 0.06117 0.38682 0.0
H610 H 0.2356 0.10454 0.27308 0.0
H611 H 0.19331 0.06655 0.29184 0.0
H612 H 0.22009 0.05514 0.26262 0.0
H613 H 0.29459 0.14913 0.39014 0.0
H614 H 0.30539 0.11693 0.41308 0.0
H615 H 0.257 0.10866 0.41147 0.0
C616 C 1.00813 0.22197 0.36486 0.0
C617 C 1.00447 0.25146 0.34913 0.0
C618 C 0.97945 0.18341 0.36326 0.0
C619 C 0.94458 0.17352 0.34712 0.0
C620 C 0.93898 0.2032 0.3336 0.0
C621 C 0.96936 0.24201 0.33423 0.0
C622 C 0.98811 0.15325 0.3767 0.0
C623 C 0.90139 0.19366 0.31752 0.0
C624 C 0.88986 0.07071 0.31435 0.0
C625 C 0.86476 0.0511 0.34061 0.0
C626 C 0.91519 0.11071 0.31571 0.0
C627 C 0.91499 0.13188 0.34374 0.0
C628 C 0.88957 0.11225 0.37023 0.0
C629 C 0.86496 0.07216 0.36843 0.0
C630 C 0.94317 0.13005 0.28769 0.0
C631 C 0.88913 0.13352 0.4009 0.0
H632 H 0.03485 0.2286 0.37698 0.0
H633 H 0.96618 0.26432 0.32198 0.0
H634 H 0.96343 0.13063 0.39069 0.0
H635 H 0.99386 0.13897 0.3557 0.0
H636 H 1.01374 0.16596 0.39313 0.0
H637 H 0.89976 0.21993 0.31178 0.0
H638 H 0.89788 0.17762 0.29421 0.0
H639 H 0.87705 0.17471 0.33396 0.0
H640 H 0.89028 0.0546 0.29297 0.0
H641 H 0.84544 0.05734 0.38871 0.0
H642 H 0.97307 0.14259 0.29703 0.0
H643 H 0.94 0.15406 0.27759 0.0
H644 H 0.93898 0.10973 0.26727 0.0
H645 H 0.91657 0.14415 0.4146 0.0
H646 H 0.86509 0.11495 0.41777 0.0
H647 H 0.8867 0.15905 0.394 0.0
C648 C 0.25433 0.79316 0.36524 0.0
C649 C 0.23185 0.80719 0.35096 0.0
C650 C 0.24089 0.75312 0.36669 0.0
C651 C 0.2046 0.72658 0.3528 0.0
C652 C 0.18244 0.74087 0.33757 0.0
C653 C 0.19607 0.7807 0.33717 0.0
C654 C 0.2651 0.73913 0.38372 0.0
C655 C 0.14404 0.71401 0.3218 0.0
C656 C 0.17922 0.62395 0.32928 0.0
C657 C 0.15402 0.6019 0.35482 0.0
C658 C 0.19662 0.66447 0.32876 0.0
C659 C 0.18909 0.68382 0.35451 0.0
C660 C 0.16432 0.66188 0.38066 0.0
C661 C 0.147 0.62141 0.38041 0.0
C662 C 0.22249 0.68654 0.30022 0.0
C663 C 0.15535 0.68111 0.40864 0.0
H664 H 0.28184 0.81336 0.37613 0.0
H665 H 0.17858 0.7912 0.32576 0.0
H666 H 0.24886 0.72018 0.40476 0.0
H667 H 0.27156 0.72165 0.36636 0.0
H668 H 0.29264 0.76326 0.39316 0.0
H669 H 0.13109 0.72978 0.30971 0.0
H670 H 0.1474 0.69571 0.303 0.0
H671 H 0.1237 0.69449 0.34079 0.0
H672 H 0.18554 0.60958 0.30962 0.0
H673 H 0.12718 0.60501 0.40005 0.0
H674 H 0.25105 0.7088 0.30957 0.0
H675 H 0.21001 0.70172 0.28651 0.0
H676 H 0.22661 0.66751 0.28272 0.0
H677 H 0.18241 0.70418 0.41973 0.0
H678 H 0.13793 0.66042 0.42837 0.0
H679 H 0.13923 0.6949 0.39901 0.0
C680 C 0.26044 0.44044 0.33491 0.0
C681 C 0.23417 0.44922 0.35001 0.0
C682 C 0.30009 0.46643 0.33539 0.0
C683 C 0.31431 0.50213 0.35186 0.0
C684 C 0.28799 0.51148 0.3669 0.0
C685 C 0.24808 0.48502 0.36549 0.0
C686 C 0.32682 0.45536 0.31853 0.0
C687 C 0.3021 0.54899 0.38515 0.0
C688 C 0.4192 0.54697 0.37816 0.0
C689 C 0.43842 0.57385 0.35282 0.0
C690 C 0.37882 0.52473 0.37894 0.0
C691 C 0.35683 0.52898 0.3536 0.0
C692 C 0.37592 0.55639 0.32823 0.0
C693 C 0.41634 0.57854 0.32821 0.0
C694 C 0.35973 0.49576 0.40639 0.0
C695 C 0.35366 0.56152 0.30052 0.0
H696 H 0.24993 0.41295 0.32254 0.0
H697 H 0.22795 0.49181 0.37736 0.0
H698 H 0.345 0.47769 0.30019 0.0
H699 H 0.3464 0.45372 0.33701 0.0
H700 H 0.31103 0.42715 0.30564 0.0
H701 H 0.27808 0.55234 0.39497 0.0
H702 H 0.32074 0.55053 0.40607 0.0
H703 H 0.31987 0.57355 0.36849 0.0
H704 H 0.43573 0.54249 0.39705 0.0
H705 H 0.43064 0.59959 0.3088 0.0
H706 H 0.346 0.46615 0.39608 0.0
H707 H 0.3367 0.49945 0.41799 0.0
H708 H 0.38048 0.49842 0.42585 0.0
H709 H 0.33897 0.53469 0.28563 0.0
H710 H 0.37246 0.58576 0.28387 0.0
H711 H 0.33106 0.56684 0.31072 0.0
C712 C 0.49284 0.89034 0.38509 0.0
C713 C 0.46446 0.88146 0.36091 0.0
C714 C 0.51531 0.87241 0.38524 0.0
C715 C 0.5098 0.84524 0.36035 0.0
C716 C 0.48089 0.83568 0.33615 0.0
C717 C 0.45846 0.8537 0.33683 0.0
C718 C 0.54582 0.88346 0.4115 0.0
C719 C 0.47438 0.80722 0.30896 0.0
C720 C 0.59792 0.83745 0.33983 0.0
C721 C 0.59005 0.8031 0.35567 0.0
C722 C 0.57155 0.8507 0.34037 0.0
C723 C 0.53663 0.82962 0.35793 0.0
C724 C 0.52824 0.79463 0.37376 0.0
C725 C 0.5549 0.78142 0.37203 0.0
C726 C 0.58134 0.88757 0.32241 0.0
C727 C 0.49167 0.77181 0.39326 0.0
H728 H 0.49829 0.91214 0.40352 0.0
H729 H 0.43623 0.84604 0.31835 0.0
H730 H 0.54291 0.85726 0.42359 0.0
H731 H 0.57474 0.89883 0.39994 0.0
H732 H 0.54424 0.90241 0.43076 0.0
H733 H 0.44962 0.80157 0.29291 0.0
H734 H 0.50054 0.81845 0.29336 0.0
H735 H 0.46916 0.77954 0.3197 0.0
H736 H 0.62489 0.85406 0.32671 0.0
H737 H 0.54886 0.75495 0.38436 0.0
H738 H 0.58389 0.90966 0.34039 0.0
H739 H 0.55797 0.88247 0.30488 0.0
H740 H 0.60874 0.89936 0.30842 0.0
H741 H 0.49114 0.78949 0.41418 0.0
H742 H 0.48879 0.74466 0.40326 0.0
H743 H 0.46634 0.76468 0.37748 0.0
C744 C 0.63569 0.18606 0.65031 0.0
C745 C 0.65223 0.16676 0.66637 0.0
C746 C 0.59564 0.17137 0.65078 0.0
C747 C 0.57135 0.13625 0.6674 0.0
C748 C 0.58786 0.11641 0.68322 0.0
C749 C 0.62796 0.13187 0.68258 0.0
C750 C 0.57948 0.19411 0.63437 0.0
C751 C 0.56315 0.0792 0.7015 0.0
C752 C 0.4782 0.12515 0.7009 0.0
C753 C 0.45084 0.10172 0.67713 0.0
C754 C 0.51687 0.1353 0.69856 0.0
C755 C 0.52932 0.1224 0.67127 0.0
C756 C 0.50183 0.09758 0.64762 0.0
C757 C 0.46273 0.08744 0.65081 0.0
C758 C 0.54475 0.16199 0.72435 0.0
C759 C 0.51414 0.08348 0.61807 0.0
H760 H 0.65416 0.21319 0.63799 0.0
H761 H 0.64031 0.11637 0.69462 0.0
H762 H 0.55592 0.17542 0.61717 0.0
H763 H 0.56705 0.20468 0.6534 0.0
H764 H 0.60172 0.21929 0.6204 0.0
H765 H 0.57999 0.06596 0.71073 0.0
H766 H 0.54917 0.08459 0.72291 0.0
H767 H 0.53991 0.0583 0.68508 0.0
H768 H 0.46999 0.13811 0.72042 0.0
H769 H 0.44223 0.07071 0.63166 0.0
H770 H 0.5643 0.19041 0.71299 0.0
H771 H 0.56282 0.15035 0.73393 0.0
H772 H 0.52986 0.16652 0.74558 0.0
H773 H 0.53244 0.1082 0.60173 0.0
H774 H 0.48918 0.06179 0.60354 0.0
H775 H 0.53172 0.0706 0.62611 0.0
C776 C 0.95618 0.40309 0.66273 0.0
C777 C 0.93375 0.36938 0.68077 0.0
C778 C 0.94654 0.43262 0.66226 0.0
C779 C 0.9128 0.42708 0.67873 0.0
C780 C 0.89125 0.3937 0.69799 0.0
C781 C 0.903 0.36637 0.69988 0.0
C782 C 0.97145 0.46897 0.64311 0.0
C783 C 0.85382 0.38494 0.71437 0.0
C784 C 0.88977 0.50585 0.69969 0.0
C785 C 0.86573 0.50313 0.67338 0.0
C786 C 0.90672 0.48253 0.70089 0.0
C787 C 0.89891 0.45523 0.67551 0.0
C788 C 0.8743 0.45205 0.64903 0.0
C789 C 0.85844 0.47641 0.64805 0.0
C790 C 0.93248 0.48661 0.72968 0.0
C791 C 0.86363 0.42203 0.62235 0.0
H792 H 0.97977 0.40558 0.64784 0.0
H793 H 0.88576 0.34059 0.71443 0.0
H794 H 0.95636 0.46916 0.62019 0.0
H795 H 0.97695 0.49459 0.65791 0.0
H796 H 0.99943 0.47153 0.63617 0.0
H797 H 0.84266 0.35961 0.73111 0.0
H798 H 0.85711 0.40993 0.7288 0.0
H799 H 0.83185 0.37873 0.69499 0.0
H800 H 0.89589 0.52678 0.71914 0.0
H801 H 0.83967 0.47404 0.62779 0.0
H802 H 0.95977 0.48917 0.72059 0.0
H803 H 0.91825 0.46051 0.74546 0.0
H804 H 0.93925 0.51206 0.74528 0.0
H805 H 0.88991 0.42586 0.60986 0.0
H806 H 0.84426 0.4234 0.60342 0.0
H807 H 0.84904 0.39284 0.63357 0.0
C808 C 0.66964 0.55931 0.70071 0.0
C809 C 0.66789 0.58595 0.67912 0.0
C810 C 0.64195 0.52029 0.70044 0.0
C811 C 0.61047 0.50709 0.67859 0.0
C812 C 0.60684 0.53403 0.65814 0.0
C813 C 0.63595 0.57333 0.65832 0.0
C814 C 0.64818 0.49292 0.72189 0.0
C815 C 0.57315 0.52088 0.635 0.0
C816 C 0.56405 0.40135 0.65385 0.0
C817 C 0.53257 0.38385 0.67554 0.0
C818 C 0.58913 0.44144 0.6541 0.0
C819 C 0.5826 0.46483 0.67648 0.0
C820 C 0.55126 0.44735 0.69872 0.0
C821 C 0.52661 0.40721 0.69793 0.0
C822 C 0.62309 0.45866 0.63084 0.0
C823 C 0.54396 0.47109 0.72358 0.0
H824 H 0.69473 0.56843 0.71616 0.0
H825 H 0.63483 0.5934 0.641 0.0
H826 H 0.62193 0.47399 0.73633 0.0
H827 H 0.65436 0.47407 0.70597 0.0
H828 H 0.67258 0.50831 0.73936 0.0
H829 H 0.57244 0.54549 0.62304 0.0
H830 H 0.57475 0.50228 0.61546 0.0
H831 H 0.54582 0.5033 0.64865 0.0
H832 H 0.56944 0.38362 0.63688 0.0
H833 H 0.50221 0.39422 0.71456 0.0
H834 H 0.65026 0.47311 0.64523 0.0
H835 H 0.62224 0.48093 0.61513 0.0
H836 H 0.62376 0.43665 0.61455 0.0
H837 H 0.56886 0.48579 0.74062 0.0
H838 H 0.51771 0.45335 0.73854 0.0
H839 H 0.54088 0.49385 0.71064 0.0
C840 C 0.84759 0.95601 0.66563 0.0
C841 C 0.81742 0.93376 0.68763 0.0
C842 C 0.8659 0.99649 0.66565 0.0
C843 C 0.85415 0.01548 0.68841 0.0
C844 C 0.82439 0.99334 0.71121 0.0
C845 C 0.80629 0.95288 0.71043 0.0
C846 C 0.89718 0.01893 0.64068 0.0
C847 C 0.81085 0.01235 0.73585 0.0
C848 C 0.91764 0.12409 0.70256 0.0
C849 C 0.89844 0.13845 0.68352 0.0
C850 C 0.90366 0.08405 0.70448 0.0
C851 C 0.87035 0.05811 0.68631 0.0
C852 C 0.85178 0.07283 0.66622 0.0
C853 C 0.86579 0.11261 0.66535 0.0
C854 C 0.92384 0.06941 0.72659 0.0
C855 C 0.81674 0.04652 0.64588 0.0
H856 H 0.85702 0.94178 0.64829 0.0
H857 H 0.78271 0.93622 0.72726 0.0
H858 H 0.88779 0.03435 0.62361 0.0
H859 H 0.92356 0.04101 0.65335 0.0
H860 H 0.90446 1.00009 0.62584 0.0
H861 H 0.78994 0.99144 0.75384 0.0
H862 H 0.8357 0.03517 0.74966 0.0
H863 H 0.7969 0.02641 0.72259 0.0
H864 H 0.94266 0.14396 0.71682 0.0
H865 H 0.85098 0.12357 0.65028 0.0
H866 H 0.93257 0.05148 0.71213 0.0
H867 H 0.9038 0.05074 0.74615 0.0
H868 H 0.94975 0.09321 0.73857 0.0
H869 H 0.82323 0.02832 0.62941 0.0
H870 H 0.80669 0.06272 0.63043 0.0
H871 H 0.79288 0.02689 0.6624 0.0
C872 C 0.91253 0.8159 0.70511 0.0
C873 C 0.89785 0.78185 0.68671 0.0
C874 C 0.95254 0.84187 0.70645 0.0
C875 C 0.97816 0.83408 0.68816 0.0
C876 C 0.96304 0.80034 0.66857 0.0
C877 C 0.92329 0.77448 0.6685 0.0
C878 C 0.96754 0.87699 0.72826 0.0
C879 C 0.98888 0.79121 0.64794 0.0
C880 C 0.0802 0.91435 0.66849 0.0
C881 C 0.10261 0.90633 0.6904 0.0
C882 C 0.0398 0.89149 0.66777 0.0
C883 C 0.02085 0.86029 0.69007 0.0
C884 C 0.04302 0.8525 0.71274 0.0
C885 C 0.0834 0.87511 0.71232 0.0
C886 C 0.01739 0.90018 0.64257 0.0
C887 C 0.02409 0.81969 0.73711 0.0
H888 H 0.89294 0.82142 0.71942 0.0
H889 H 0.91198 0.74825 0.654 0.0
H890 H 0.9866 0.87582 0.74758 0.0
H891 H 0.98507 0.90343 0.7135 0.0
H892 H 0.94398 0.87929 0.74052 0.0
H893 H 0.97234 0.76523 0.63228 0.0
H894 H 1.00732 0.81597 0.63168 0.0
H895 H 1.00823 0.78629 0.66428 0.0
H896 H 0.09411 0.93864 0.6518 0.0
H897 H 0.09986 0.86763 0.7289 0.0
H898 H 0.99574 0.90526 0.65513 0.0
H899 H 1.0015 0.875 0.62596 0.0
H900 H 0.03623 0.92579 0.62725 0.0
H901 H 1.00127 0.82165 0.75102 0.0
H902 H 0.04496 0.81947 0.75505 0.0
H903 H 1.0101 0.79182 0.72367 0.0
C904 C 0.21996 0.11642 0.67795 0.0
C905 C 0.25684 0.13904 0.6914 0.0
C906 C 0.19359 0.13006 0.67694 0.0
C907 C 0.20418 0.16698 0.68995 0.0
C908 C 0.24102 0.18936 0.70435 0.0
C909 C 0.26681 0.17527 0.70473 0.0
C910 C 0.15474 0.10542 0.66115 0.0
C911 C 0.25353 0.22862 0.71891 0.0
C912 C 0.15607 0.22344 0.66059 0.0
C913 C 0.1307 0.21795 0.68669 0.0
C914 C 0.17923 0.20613 0.66089 0.0
C915 C 0.17736 0.18286 0.68803 0.0
C916 C 0.1515 0.17675 0.71422 0.0
C917 C 0.12846 0.19415 0.71318 0.0
C918 C 0.20643 0.21354 0.63247 0.0
C919 C 0.14867 0.15238 0.74371 0.0
H920 H 0.21213 0.08861 0.66729 0.0
H921 H 0.29519 0.19304 0.71528 0.0
H922 H 0.1316 0.10088 0.67871 0.0
H923 H 0.15188 0.12044 0.63921 0.0
H924 H 0.15025 0.07688 0.65327 0.0
H925 H 0.28259 0.2418 0.73028 0.0
H926 H 0.2539 0.24823 0.69936 0.0
H927 H 0.23271 0.22641 0.73805 0.0
H928 H 0.15863 0.24211 0.64019 0.0
H929 H 0.10857 0.18899 0.73324 0.0
H930 H 0.20185 0.18584 0.62225 0.0
H931 H 0.23658 0.22984 0.6414 0.0
H932 H 0.20276 0.23021 0.61224 0.0
H933 H 0.14206 0.12328 0.73546 0.0
H934 H 0.12619 0.14926 0.7615 0.0
H935 H 0.17673 0.16555 0.75678 0.0
C936 C 0.10466 0.41523 0.25186 0.0
C937 C 0.10074 0.3783 0.2519 0.0
C938 C 0.09315 0.42906 0.22427 0.0
C939 C 0.07797 0.40589 0.19543 0.0
C940 C 0.07545 0.36923 0.19504 0.0
C941 C 0.08624 0.35581 0.22317 0.0
C942 C 0.09605 0.468 0.22676 0.0
C943 C 0.06111 0.34387 0.16478 0.0
C944 C 1.00992 0.41683 0.13459 0.0
C945 C 0.03421 0.43737 0.10804 0.0
C946 C 0.02399 0.40784 0.1634 0.0
C947 C 0.06348 0.41893 0.16608 0.0
C948 C 0.08844 0.44081 0.13986 0.0
C949 C 0.07363 0.44998 0.11154 0.0
C950 C 0.99622 0.38561 0.19078 0.0
C951 C 0.13075 0.45373 0.14139 0.0
H952 H 0.1162 0.43323 0.27359 0.0
H953 H 0.08335 0.32742 0.22257 0.0
H954 H 0.10233 0.48283 0.20251 0.0
H955 H 0.06813 0.46405 0.23566 0.0
H956 H 0.11873 0.48694 0.24459 0.0
H957 H 0.06321 0.31736 0.16744 0.0
H958 H 0.03063 0.33532 0.16007 0.0
H959 H 0.07796 0.36002 0.14277 0.0
H960 H 0.97942 0.40678 0.13255 0.0
H961 H 0.09277 0.46623 0.09167 0.0
H962 H 1.00709 0.40105 0.21462 0.0
H963 H 0.99388 0.35693 0.19339 0.0
H964 H 0.96705 0.38136 0.18615 0.0
H965 H 0.14364 0.47115 0.16404 0.0
H966 H 0.14664 0.47113 0.11953 0.0
H967 H 0.13467 0.42822 0.1429 0.0
C968 C 0.67095 0.71821 0.2469 0.0
C969 C 0.65925 0.74519 0.25368 0.0
C970 C 0.65778 0.69438 0.21852 0.0
C971 C 0.6331 0.69819 0.1955 0.0
C972 C 0.6212 0.72551 0.20239 0.0
C973 C 0.63396 0.74822 0.23152 0.0
C974 C 0.67086 0.66544 0.21289 0.0
C975 C 0.59569 0.73144 0.17855 0.0
C976 C 0.63484 0.66515 0.10645 0.0
C977 C 0.60245 0.62796 0.10553 0.0
C978 C 0.64457 0.68845 0.13508 0.0
C979 C 0.62118 0.67468 0.1638 0.0
C980 C 0.58758 0.63764 0.16247 0.0
C981 C 0.57887 0.61463 0.13359 0.0
C982 C 0.68062 0.72745 0.1349 0.0
C983 C 0.56128 0.62181 0.19197 0.0
H984 H 0.69053 0.71575 0.26389 0.0
H985 H 0.62515 0.76931 0.23642 0.0
H986 H 0.64552 0.63617 0.21004 0.0
H987 H 0.68768 0.67232 0.18963 0.0
H988 H 0.68889 0.66494 0.23354 0.0
H989 H 0.58832 0.75316 0.18762 0.0
H990 H 0.61032 0.74113 0.15428 0.0
H991 H 0.5687 0.70381 0.17434 0.0
H992 H 0.65339 0.67561 0.08492 0.0
H993 H 0.55393 0.58593 0.13314 0.0
H994 H 0.701 0.72825 0.15389 0.0
H995 H 0.67359 0.75015 0.14139 0.0
H996 H 0.69526 0.73449 0.11048 0.0
H997 H 0.57655 0.61665 0.21247 0.0
H998 H 0.53462 0.59435 0.18619 0.0
H999 H 0.55321 0.64303 0.2009 0.0
C1000 C 0.39745 0.02141 0.12258 0.0
C1001 C 0.41357 1.00143 0.10676 0.0
C1002 C 0.37262 1.0059 0.15002 0.0
C1003 C 0.36396 0.9696 0.1631 0.0
C1004 C 0.38012 0.94915 0.1473 0.0
C1005 C 0.40396 0.96485 0.119 0.0
C1006 C 0.35534 0.02844 0.16487 0.0
C1007 C 0.37247 0.91076 0.1605 0.0
C1008 C 0.33011 0.95332 0.25371 0.0
C1009 C 0.29002 0.93011 0.25098 0.0
C1010 C 0.35447 0.96487 0.22569 0.0
C1011 C 0.33856 0.95382 0.1935 0.0
C1012 C 0.298 0.93023 0.19054 0.0
C1013 C 0.27443 0.91871 0.21912 0.0
C1014 C 0.39733 0.98984 0.23055 0.0
C1015 C 0.27926 0.91798 0.15704 0.0
H1016 H 0.40351 0.04916 0.113 0.0
H1017 H 0.41552 0.94876 0.10672 0.0
H1018 H 0.32351 1.01049 0.16524 0.0
H1019 H 0.36506 0.03613 0.19085 0.0
H1020 H 0.36337 0.05535 0.15098 0.0
H1021 H 0.38905 0.89961 0.14704 0.0
H1022 H 0.38004 0.91336 0.18715 0.0
H1023 H 0.34138 0.88939 0.15836 0.0
H1024 H 0.3425 0.96373 0.27763 0.0
H1025 H 0.2435 0.9011 0.21645 0.0
H1026 H 0.40712 0.01895 0.22021 0.0
H1027 H 0.41275 0.97748 0.21702 0.0
H1028 H 0.40565 0.99293 0.25706 0.0
H1029 H 0.28501 0.9438 0.14247 0.0
H1030 H 0.24764 0.89859 0.15882 0.0
H1031 H 0.29174 0.90292 0.14319 0.0
C1032 C 0.45172 0.08145 0.91466 0.0
C1033 C 0.43629 0.04174 0.92002 0.0
C1034 C 0.44117 0.09552 0.88668 0.0
C1035 C 0.41386 0.0694 0.86355 0.0
C1036 C 0.39804 0.02928 0.86916 0.0
C1037 C 0.40955 0.01608 0.89697 0.0
C1038 C 0.45937 0.13843 0.88181 0.0
C1039 C 0.36865 1.00006 0.84577 0.0
C1040 C 0.35592 0.09931 0.80668 0.0
C1041 C 0.37384 0.10403 0.77585 0.0
C1042 C 0.36932 0.08939 0.83541 0.0
C1043 C 0.4015 0.08363 0.83367 0.0
C1044 C 0.4202 0.08913 0.80268 0.0
C1045 C 0.40596 0.09877 0.77436 0.0
C1046 C 0.34815 0.08384 0.86754 0.0
C1047 C 0.45452 0.08346 0.79909 0.0
H1048 H 0.47236 0.10163 0.93223 0.0
H1049 H 0.3972 0.98536 0.90085 0.0
H1050 H 0.47257 0.14657 0.85688 0.0
H1051 H 0.43698 0.14692 0.88321 0.0
H1052 H 0.48179 0.15501 0.90067 0.0
H1053 H 0.35848 0.96996 0.85379 0.0
H1054 H 0.34348 1.00443 0.84393 0.0
H1055 H 0.38117 1.00406 0.82064 0.0
H1056 H 0.33063 0.10244 0.80817 0.0
H1057 H 0.41882 0.10015 0.75065 0.0
H1058 H 0.36847 0.10211 0.88711 0.0
H1059 H 0.33533 0.05342 0.87565 0.0
H1060 H 0.32486 0.09108 0.86535 0.0
H1061 H 0.47633 0.10012 0.81831 0.0
H1062 H 0.46821 0.09246 0.77436 0.0
H1063 H 0.44541 0.05262 0.80278 0.0
C1064 C 0.9968 0.38361 0.91081 0.0
C1065 C 0.98612 0.41156 0.9172 0.0
C1066 C 0.98487 0.36071 0.8819 0.0
C1067 C 0.96068 0.3648 0.85857 0.0
C1068 C 0.94923 0.39256 0.86515 0.0
C1069 C 0.9623 0.41575 0.89409 0.0
C1070 C 0.99876 0.33242 0.87608 0.0
C1071 C 0.92296 0.39767 0.84162 0.0
C1072 C 0.96141 0.33031 0.76975 0.0
C1073 C 0.93007 0.29239 0.76972 0.0
C1074 C 0.97102 0.35432 0.79796 0.0
C1075 C 0.94847 0.34066 0.82714 0.0
C1076 C 0.91583 0.30288 0.82671 0.0
C1077 C 0.90736 0.27912 0.7983 0.0
C1078 C 1.00641 0.39382 0.79696 0.0
C1079 C 0.89028 0.2871 0.85666 0.0
H1080 H 1.01518 0.37995 0.92835 0.0
H1081 H 0.95361 0.43698 0.89875 0.0
H1082 H 0.97386 0.30278 0.87415 0.0
H1083 H 1.01464 0.33903 0.85232 0.0
H1084 H 0.01795 0.33302 0.89619 0.0
H1085 H 0.91559 0.41944 0.85056 0.0
H1086 H 0.9368 0.40677 0.81701 0.0
H1087 H 0.89598 0.36978 0.8382 0.0
H1088 H 0.97942 0.34079 0.74791 0.0
H1089 H 0.88326 0.24992 0.79862 0.0
H1090 H 0.02779 0.39527 0.81519 0.0
H1091 H 0.99902 0.41611 0.80404 0.0
H1092 H 0.02002 0.40098 0.77211 0.0
H1093 H 0.90626 0.28266 0.87697 0.0
H1094 H 0.86386 0.25922 0.85139 0.0
H1095 H 0.88182 0.30803 0.86559 0.0
C1096 C 0.7526 0.69121 0.80144 0.0
C1097 C 0.75028 0.66719 0.7751 0.0
C1098 C 0.7293 0.67653 0.82986 0.0
C1099 C 0.7027 0.63653 0.83266 0.0
C1100 C 0.70114 0.61181 0.80671 0.0
C1101 C 0.72482 0.62741 0.7784 0.0
C1102 C 0.73234 0.70427 0.85654 0.0
C1103 C 0.67344 0.56902 0.80819 0.0
C1104 C 0.66108 0.59864 0.91948 0.0
C1105 C 0.62694 0.60033 0.91911 0.0
C1106 C 0.68568 0.60958 0.89152 0.0
C1107 C 0.67546 0.6214 0.8619 0.0
C1108 C 0.64003 0.62127 0.86102 0.0
C1109 C 0.61671 0.61139 0.88955 0.0
C1110 C 0.72315 0.60945 0.89389 0.0
C1111 C 0.62698 0.63238 0.83003 0.0
H1112 H 0.77189 0.72201 0.79943 0.0
H1113 H 0.72287 0.60852 0.75853 0.0
H1114 H 0.70475 0.70428 0.85846 0.0
H1115 H 0.73774 0.69496 0.88083 0.0
H1116 H 0.75571 0.73419 0.8516 0.0
H1117 H 0.6798 0.55309 0.78904 0.0
H1118 H 0.67426 0.55739 0.83288 0.0
H1119 H 0.64373 0.56346 0.8042 0.0
H1120 H 0.66901 0.58962 0.94187 0.0
H1121 H 0.59026 0.61248 0.88869 0.0
H1122 H 0.74756 0.6392 0.89065 0.0
H1123 H 0.72503 0.59166 0.87373 0.0
H1124 H 0.72651 0.59818 0.91798 0.0
H1125 H 0.64709 0.66312 0.82421 0.0
H1126 H 0.59751 0.62809 0.83248 0.0
H1127 H 0.6274 0.61505 0.80878 0.0
C1128 C 0.72824 0.79391 0.46287 0.0
C1129 C 0.70893 0.76591 0.43843 0.0
C1130 C 0.74243 0.78533 0.49191 0.0
C1131 C 0.73714 0.7478 0.49685 0.0
C1132 C 0.71859 0.71987 0.47161 0.0
C1133 C 0.7049 0.72925 0.4429 0.0
C1134 C 0.76238 0.81627 0.51769 0.0
C1135 C 0.71223 0.67959 0.47531 0.0
C1136 C 0.79555 0.72651 0.56072 0.0
C1137 C 0.76952 0.71054 0.58704 0.0
C1138 C 0.78597 0.73975 0.53172 0.0
C1139 C 0.74933 0.73693 0.52874 0.0
C1140 C 0.72331 0.72142 0.55573 0.0
C1141 C 0.73365 0.70839 0.58437 0.0
C1142 C 0.81485 0.75605 0.50397 0.0
C1143 C 0.68403 0.7177 0.55406 0.0
H1144 H 0.73153 0.82227 0.45961 0.0
H1145 H 0.6902 0.70747 0.42404 0.0
H1146 H 0.74508 0.80786 0.54073 0.0
H1147 H 0.79079 0.81945 0.52385 0.0
H1148 H 0.76668 0.84458 0.50935 0.0
H1149 H 0.69768 0.66124 0.45344 0.0
H1150 H 0.74016 0.68067 0.47898 0.0
H1151 H 0.69442 0.66573 0.49755 0.0
H1152 H 0.82325 0.72806 0.5626 0.0
H1153 H 0.71334 0.69586 0.60457 0.0
H1154 H 0.8195 0.78476 0.49662 0.0
H1155 H 0.80358 0.73702 0.48199 0.0
H1156 H 0.84297 0.75894 0.51092 0.0
H1157 H 0.6869 0.74634 0.5495 0.0
H1158 H 0.6673 0.70558 0.57715 0.0
H1159 H 0.66757 0.69877 0.53305 0.0
C1160 C 0.25316 0.98372 0.44412 0.0
C1161 C 0.26644 0.95724 0.44129 0.0
C1162 C 0.26188 1.00793 0.47235 0.0
C1163 C 0.28554 1.0068 0.49809 0.0
C1164 C 0.29883 0.98009 0.49525 0.0
C1165 C 0.28877 0.95558 0.46749 0.0
C1166 C 0.24631 0.03522 0.47438 0.0
C1167 C 0.32439 0.97774 0.52146 0.0
C1168 C 0.3454 0.09189 0.55665 0.0
C1169 C 0.3244 0.08041 0.58633 0.0
C1170 C 0.33208 0.06943 0.52753 0.0
C1171 C 0.29725 0.03354 0.52785 0.0
C1172 C 0.27564 0.0219 0.55768 0.0
C1173 C 0.28896 0.04576 0.58622 0.0
C1174 C 0.35598 0.08377 0.49652 0.0
C1175 C 0.23845 0.98401 0.55943 0.0
H1176 H 0.23638 0.98591 0.42409 0.0
H1177 H 0.29972 0.93577 0.46591 0.0
H1178 H 0.23164 0.03177 0.49844 0.0
H1179 H 0.27039 0.06538 0.47305 0.0
H1180 H 0.22572 0.03047 0.45408 0.0
H1181 H 0.33254 0.95562 0.5157 0.0
H1182 H 0.35108 1.00607 0.52401 0.0
H1183 H 0.30951 0.97076 0.54573 0.0
H1184 H 0.37261 0.11869 0.55615 0.0
H1185 H 0.27206 0.03679 0.60865 0.0
H1186 H 0.33793 0.08324 0.4755 0.0
H1187 H 0.36741 0.06444 0.49007 0.0
H1188 H 0.38054 0.11357 0.49936 0.0
H1189 H 0.21564 0.98676 0.54632 0.0
H1190 H 0.22905 0.97509 0.5852 0.0
H1191 H 0.24119 0.96069 0.5472 0.0
C1192 C 0.95638 0.28686 0.55585 0.0
C1193 C 0.96217 0.2697 0.58394 0.0
C1194 C 0.98047 0.2967 0.5278 0.0
C1195 C 1.01188 0.28974 0.52742 0.0
C1196 C 0.01754 0.27174 0.55552 0.0
C1197 C 0.99272 0.26194 0.58331 0.0
C1198 C 0.97253 0.31521 0.49865 0.0
C1199 C 0.05045 0.26369 0.55672 0.0
C1200 C 0.05698 0.29423 0.44192 0.0
C1201 C 0.08788 0.3324 0.44084 0.0
C1202 C 0.03296 0.27945 0.47016 0.0
C1203 C 0.03957 0.30327 0.49832 0.0
C1204 C 0.07154 0.34128 0.49773 0.0
C1205 C 0.09506 0.35522 0.46929 0.0
C1206 C 0.99972 0.23864 0.46946 0.0
C1207 C 0.0802 0.36791 0.52684 0.0
H1208 H 0.93289 0.29291 0.5558 0.0
H1209 H 0.99748 0.24853 0.60467 0.0
H1210 H 0.99721 0.34466 0.4948 0.0
H1211 H 0.96927 0.29845 0.47584 0.0
H1212 H 0.94609 0.3172 0.50209 0.0
H1213 H 0.0459 0.24195 0.57588 0.0
H1214 H 0.05454 0.25329 0.53246 0.0
H1215 H 0.07737 0.29077 0.56267 0.0
H1216 H 0.05068 0.27624 0.42023 0.0
H1217 H 0.11852 0.38477 0.46895 0.0
H1218 H 0.97217 0.23884 0.47034 0.0
H1219 H 1.00066 0.22273 0.49159 0.0
H1220 H 0.99986 0.22283 0.44692 0.0
H1221 H 0.05603 0.37351 0.5307 0.0
H1222 H 0.10706 0.39594 0.52334 0.0
H1223 H 0.08302 0.35412 0.54965 0.0
loop_
_geom_bond_atom_site_label_1
_geom_bond_atom_site_label_2
_geom_bond_distance
_geom_bond_site_symmetry_2
_ccdc_geom_bond_type
C0 Eu1 2.835 . S
C0 C2 1.500 . S
C0 O20 1.257 1_554 S
C0 O21 1.260 . S
Eu1 C0 2.835 . S
Eu1 O20 2.473 1_554 S
Eu1 O21 2.480 . S
Eu1 O22 2.430 . S
Eu1 O23 2.670 1_655 S
Eu1 O24 2.394 . S
Eu1 O29 2.355 1_554 S
Eu1 O31 2.374 1_654 S
C2 C0 1.500 . S
C2 C3 1.377 . S
C2 C7 1.377 1_554 S
C3 C2 1.377 . S
C3 C4 1.395 . S
C3 H32 0.931 . S
C4 C3 1.395 . S
C4 C5 1.383 . S
C4 H33 0.931 . S
C5 C4 1.383 . S
C5 C6 1.394 1_554 S
C6 C5 1.394 1_556 S
C6 C7 1.378 . S
C6 H34 0.931 . S
C7 C2 1.377 1_556 S
C7 C6 1.378 . S
C7 H35 0.931 . S
C8 O22 1.259 1_455 S
C8 O23 1.270 . S
C9 O24 1.251 . S
C9 O25 1.251 . S
C10 Eu11 2.835 . S
C10 C12 1.500 . S
C10 O26 1.257 1_556 S
C10 O27 1.260 . S
Eu11 C10 2.835 . S
Eu11 O23 2.355 1_556 S
Eu11 O25 2.374 1_456 S
Eu11 O26 2.473 1_556 S
Eu11 O27 2.480 . S
Eu11 O28 2.430 . S
Eu11 O29 2.670 1_455 S
Eu11 O30 2.394 . S
C12 C10 1.500 . S
C12 C13 1.377 . S
C12 C17 1.377 1_556 S
C13 C12 1.377 . S
C13 C14 1.395 . S
C13 H36 0.931 . S
C14 C13 1.395 . S
C14 C15 1.383 . S
C14 H37 0.931 . S
C15 C14 1.383 . S
C15 C16 1.394 1_556 S
C16 C15 1.394 1_554 S
C16 C17 1.378 . S
C16 H38 0.931 . S
C17 C12 1.377 1_554 S
C17 C16 1.378 . S
C17 H39 0.931 . S
C18 O28 1.259 1_655 S
C18 O29 1.270 . S
C19 O30 1.251 . S
C19 O31 1.251 . S
O20 C0 1.257 1_556 S
O20 Eu1 2.473 1_556 S
O21 C0 1.260 . S
O21 Eu1 2.480 . S
O22 Eu1 2.430 . S
O22 C8 1.259 1_655 S
O23 Eu1 2.670 1_455 S
O23 C8 1.270 . S
O23 Eu11 2.355 1_554 S
O24 Eu1 2.394 . S
O24 C9 1.251 . S
O25 C9 1.251 . S
O25 Eu11 2.374 1_654 S
O26 C10 1.257 1_554 S
O26 Eu11 2.473 1_554 S
O27 C10 1.260 . S
O27 Eu11 2.480 . S
O28 Eu11 2.430 . S
O28 C18 1.259 1_455 S
O29 Eu1 2.355 1_556 S
O29 Eu11 2.670 1_655 S
O29 C18 1.270 . S
O30 Eu11 2.394 . S
O30 C19 1.251 . S
O31 Eu1 2.374 1_456 S
O31 C19 1.251 . S
H32 C3 0.931 . S
H33 C4 0.931 . S
H34 C6 0.931 . S
H35 C7 0.931 . S
H36 C13 0.931 . S
H37 C14 0.931 . S
H38 C16 0.931 . S
H39 C17 0.931 . S
C40 Eu41 2.835 . S
C40 C42 1.500 . S
C40 O60 1.257 1_554 S
C40 O61 1.260 . S
Eu41 C40 2.835 . S
Eu41 O60 2.473 1_554 S
Eu41 O61 2.480 . S
Eu41 O62 2.430 . S
Eu41 O63 2.670 . S
Eu41 O64 2.394 . S
Eu41 O69 2.355 1_554 S
Eu41 O71 2.374 1_554 S
C42 C40 1.500 . S
C42 C43 1.377 . S
C42 C47 1.377 1_554 S
C43 C42 1.377 . S
C43 C44 1.395 . S
C43 H72 0.931 . S
C44 C43 1.395 . S
C44 C45 1.383 . S
C44 H73 0.931 . S
C45 C44 1.383 . S
C45 C46 1.394 1_554 S
C46 C45 1.394 1_556 S
C46 C47 1.378 . S
C46 H74 0.931 . S
C47 C42 1.377 1_556 S
C47 C46 1.378 . S
C47 H75 0.931 . S
C48 O62 1.259 . S
C48 O63 1.270 . S
C49 O64 1.251 . S
C49 O65 1.251 . S
C50 Eu51 2.835 . S
C50 C52 1.500 . S
C50 O66 1.257 1_556 S
C50 O67 1.260 . S
Eu51 C50 2.835 . S
Eu51 O63 2.355 1_556 S
Eu51 O65 2.374 1_556 S
Eu51 O66 2.473 1_556 S
Eu51 O67 2.480 . S
Eu51 O68 2.430 . S
Eu51 O69 2.670 . S
Eu51 O70 2.394 . S
C52 C50 1.500 . S
C52 C53 1.377 . S
C52 C57 1.377 1_556 S
C53 C52 1.377 . S
C53 C54 1.395 . S
C53 H76 0.931 . S
C54 C53 1.395 . S
C54 C55 1.383 . S
C54 H77 0.931 . S
C55 C54 1.383 . S
C55 C56 1.394 1_556 S
C56 C55 1.394 1_554 S
C56 C57 1.378 . S
C56 H78 0.931 . S
C57 C52 1.377 1_554 S
C57 C56 1.378 . S
C57 H79 0.931 . S
C58 O68 1.259 . S
C58 O69 1.270 . S
C59 O70 1.251 . S
C59 O71 1.251 . S
O60 C40 1.257 1_556 S
O60 Eu41 2.473 1_556 S
O61 C40 1.260 . S
O61 Eu41 2.480 . S
O62 Eu41 2.430 . S
O62 C48 1.259 . S
O63 Eu41 2.670 . S
O63 C48 1.270 . S
O63 Eu51 2.355 1_554 S
O64 Eu41 2.394 . S
O64 C49 1.251 . S
O65 C49 1.251 . S
O65 Eu51 2.374 1_554 S
O66 C50 1.257 1_554 S
O66 Eu51 2.473 1_554 S
O67 C50 1.260 . S
O67 Eu51 2.480 . S
O68 Eu51 2.430 . S
O68 C58 1.259 . S
O69 Eu41 2.355 1_556 S
O69 Eu51 2.670 . S
O69 C58 1.270 . S
O70 Eu51 2.394 . S
O70 C59 1.251 . S
O71 Eu41 2.374 1_556 S
O71 C59 1.251 . S
H72 C43 0.931 . S
H73 C44 0.931 . S
H74 C46 0.931 . S
H75 C47 0.931 . S
H76 C53 0.931 . S
H77 C54 0.931 . S
H78 C56 0.931 . S
H79 C57 0.931 . S
C80 Eu81 2.835 . S
C80 C82 1.500 . S
C80 O100 1.257 1_554 S
C80 O101 1.260 . S
Eu81 C80 2.835 . S
Eu81 O100 2.473 1_554 S
Eu81 O101 2.480 . S
Eu81 O102 2.430 . S
Eu81 O103 2.670 1_545 S
Eu81 O104 2.394 . S
Eu81 O109 2.355 1_554 S
Eu81 O111 2.374 1_544 S
C82 C80 1.500 . S
C82 C83 1.377 . S
C82 C87 1.377 1_554 S
C83 C82 1.377 . S
C83 C84 1.395 . S
C83 H112 0.931 . S
C84 C83 1.395 . S
C84 C85 1.383 . S
C84 H113 0.931 . S
C85 C84 1.383 . S
C85 C86 1.394 1_554 S
C86 C85 1.394 1_556 S
C86 C87 1.378 . S
C86 H114 0.931 . S
C87 C82 1.377 1_556 S
C87 C86 1.378 . S
C87 H115 0.931 . S
C88 O102 1.259 . S
C88 O103 1.270 1_545 S
C89 O104 1.251 . S
C89 O105 1.251 . S
C90 Eu91 2.835 . S
C90 C92 1.500 . S
C90 O106 1.257 1_556 S
C90 O107 1.260 . S
Eu91 C90 2.835 . S
Eu91 O103 2.355 1_556 S
Eu91 O105 2.374 1_566 S
Eu91 O106 2.473 1_556 S
Eu91 O107 2.480 . S
Eu91 O108 2.430 . S
Eu91 O109 2.670 1_565 S
Eu91 O110 2.394 . S
C92 C90 1.500 . S
C92 C93 1.377 . S
C92 C97 1.377 1_556 S
C93 C92 1.377 . S
C93 C94 1.395 . S
C93 H116 0.931 . S
C94 C93 1.395 . S
C94 C95 1.383 . S
C94 H117 0.931 . S
C95 C94 1.383 . S
C95 C96 1.394 1_556 S
C96 C95 1.394 1_554 S
C96 C97 1.378 . S
C96 H118 0.931 . S
C97 C92 1.377 1_554 S
C97 C96 1.378 . S
C97 H119 0.931 . S
C98 O108 1.259 1_545 S
C98 O109 1.270 . S
C99 O110 1.251 . S
C99 O111 1.251 . S
O100 C80 1.257 1_556 S
O100 Eu81 2.473 1_556 S
O101 C80 1.260 . S
O101 Eu81 2.480 . S
O102 Eu81 2.430 . S
O102 C88 1.259 . S
O103 Eu81 2.670 1_565 S
O103 C88 1.270 1_565 S
O103 Eu91 2.355 1_554 S
O104 Eu81 2.394 . S
O104 C89 1.251 . S
O105 C89 1.251 . S
O105 Eu91 2.374 1_544 S
O106 C90 1.257 1_554 S
O106 Eu91 2.473 1_554 S
O107 C90 1.260 . S
O107 Eu91 2.480 . S
O108 Eu91 2.430 . S
O108 C98 1.259 1_565 S
O109 Eu81 2.355 1_556 S
O109 Eu91 2.670 1_545 S
O109 C98 1.270 . S
O110 Eu91 2.394 . S
O110 C99 1.251 . S
O111 Eu81 2.374 1_566 S
O111 C99 1.251 . S
H112 C83 0.931 . S
H113 C84 0.931 . S
H114 C86 0.931 . S
H115 C87 0.931 . S
H116 C93 0.931 . S
H117 C94 0.931 . S
H118 C96 0.931 . S
H119 C97 0.931 . S
C120 Eu121 2.835 . S
C120 C122 1.500 . S
C120 O140 1.257 . S
C120 O141 1.260 . S
Eu121 C120 2.835 . S
Eu121 O140 2.473 . S
Eu121 O141 2.480 . S
Eu121 O142 2.430 . S
Eu121 O143 2.670 . S
Eu121 O144 2.394 . S
Eu121 O149 2.355 . S
Eu121 O151 2.374 . S
C122 C120 1.500 . S
C122 C123 1.377 . S
C122 C127 1.377 . S
C123 C122 1.377 . S
C123 C124 1.395 . S
C123 H152 0.931 . S
C124 C123 1.395 . S
C124 C125 1.383 . S
C124 H153 0.931 . S
C125 C124 1.383 . S
C125 C126 1.394 . S
C126 C125 1.394 . S
C126 C127 1.378 . S
C126 H154 0.931 . S
C127 C122 1.377 . S
C127 C126 1.378 . S
C127 H155 0.931 . S
C128 O142 1.259 . S
C128 O143 1.270 . S
C129 O144 1.251 . S
C129 O145 1.251 . S
C130 Eu131 2.835 . S
C130 C132 1.500 . S
C130 O146 1.257 . S
C130 O147 1.260 . S
Eu131 C130 2.835 . S
Eu131 O143 2.355 . S
Eu131 O145 2.374 . S
Eu131 O146 2.473 . S
Eu131 O147 2.480 . S
Eu131 O148 2.430 . S
Eu131 O149 2.670 . S
Eu131 O150 2.394 . S
C132 C130 1.500 . S
C132 C133 1.377 . S
C132 C137 1.377 . S
C133 C132 1.377 . S
C133 C134 1.395 . S
C133 H156 0.931 . S
C134 C133 1.395 . S
C134 C135 1.383 . S
C134 H157 0.931 1_565 S
C135 C134 1.383 . S
C135 C136 1.394 . S
C136 C135 1.394 . S
C136 C137 1.378 . S
C136 H158 0.931 . S
C137 C132 1.377 . S
C137 C136 1.378 . S
C137 H159 0.931 . S
C138 O148 1.259 . S
C138 O149 1.270 . S
C139 O150 1.251 . S
C139 O151 1.251 . S
O140 C120 1.257 . S
O140 Eu121 2.473 . S
O141 C120 1.260 . S
O141 Eu121 2.480 . S
O142 Eu121 2.430 . S
O142 C128 1.259 . S
O143 Eu121 2.670 . S
O143 C128 1.270 . S
O143 Eu131 2.355 . S
O144 Eu121 2.394 . S
O144 C129 1.251 . S
O145 C129 1.251 . S
O145 Eu131 2.374 . S
O146 C130 1.257 . S
O146 Eu131 2.473 . S
O147 C130 1.260 . S
O147 Eu131 2.480 . S
O148 Eu131 2.430 . S
O148 C138 1.259 . S
O149 Eu121 2.355 . S
O149 Eu131 2.670 . S
O149 C138 1.270 . S
O150 Eu131 2.394 . S
O150 C139 1.251 . S
O151 Eu121 2.374 . S
O151 C139 1.251 . S
H152 C123 0.931 . S
H153 C124 0.931 . S
H154 C126 0.931 . S
H155 C127 0.931 . S
H156 C133 0.931 . S
H157 C134 0.931 1_545 S
H158 C136 0.931 . S
H159 C137 0.931 . S
C160 Eu161 2.835 . S
C160 C162 1.500 . S
C160 O180 1.257 . S
C160 O181 1.260 . S
Eu161 C160 2.835 . S
Eu161 O180 2.473 . S
Eu161 O181 2.480 . S
Eu161 O182 2.430 . S
Eu161 O183 2.670 . S
Eu161 O184 2.394 . S
Eu161 O189 2.355 . S
Eu161 O191 2.374 . S
C162 C160 1.500 . S
C162 C163 1.377 . S
C162 C167 1.377 . S
C163 C162 1.377 . S
C163 C164 1.395 . S
C163 H192 0.931 . S
C164 C163 1.395 . S
C164 C165 1.383 . S
C164 H193 0.931 . S
C165 C164 1.383 . S
C165 C166 1.394 . S
C166 C165 1.394 . S
C166 C167 1.378 . S
C166 H194 0.931 . S
C167 C162 1.377 . S
C167 C166 1.378 . S
C167 H195 0.931 . S
C168 O182 1.259 . S
C168 O183 1.270 . S
C169 O184 1.251 . S
C169 O185 1.251 . S
C170 Eu171 2.835 . S
C170 C172 1.500 . S
C170 O186 1.257 . S
C170 O187 1.260 . S
Eu171 C170 2.835 . S
Eu171 O183 2.355 . S
Eu171 O185 2.374 . S
Eu171 O186 2.473 . S
Eu171 O187 2.480 . S
Eu171 O188 2.430 . S
Eu171 O189 2.670 . S
Eu171 O190 2.394 . S
C172 C170 1.500 . S
C172 C173 1.377 . S
C172 C177 1.377 . S
C173 C172 1.377 . S
C173 C174 1.395 . S
C173 H196 0.931 . S
C174 C173 1.395 . S
C174 C175 1.383 . S
C174 H197 0.931 . S
C175 C174 1.383 . S
C175 C176 1.394 . S
C176 C175 1.394 . S
C176 C177 1.378 . S
C176 H198 0.931 . S
C177 C172 1.377 . S
C177 C176 1.378 . S
C177 H199 0.931 . S
C178 O188 1.259 . S
C178 O189 1.270 . S
C179 O190 1.251 . S
C179 O191 1.251 . S
O180 C160 1.257 . S
O180 Eu161 2.473 . S
O181 C160 1.260 . S
O181 Eu161 2.480 . S
O182 Eu161 2.430 . S
O182 C168 1.259 . S
O183 Eu161 2.670 . S
O183 C168 1.270 . S
O183 Eu171 2.355 . S
O184 Eu161 2.394 . S
O184 C169 1.251 . S
O185 C169 1.251 . S
O185 Eu171 2.374 . S
O186 C170 1.257 . S
O186 Eu171 2.473 . S
O187 C170 1.260 . S
O187 Eu171 2.480 . S
O188 Eu171 2.430 . S
O188 C178 1.259 . S
O189 Eu161 2.355 . S
O189 Eu171 2.670 . S
O189 C178 1.270 . S
O190 Eu171 2.394 . S
O190 C179 1.251 . S
O191 Eu161 2.374 . S
O191 C179 1.251 . S
H192 C163 0.931 . S
H193 C164 0.931 . S
H194 C166 0.931 . S
H195 C167 0.931 . S
H196 C173 0.931 . S
H197 C174 0.931 . S
H198 C176 0.931 . S
H199 C177 0.931 . S
C200 Eu201 2.835 . S
C200 C202 1.500 . S
C200 O220 1.257 . S
C200 O221 1.260 . S
Eu201 C200 2.835 . S
Eu201 O220 2.473 . S
Eu201 O221 2.480 . S
Eu201 O222 2.430 . S
Eu201 O223 2.670 . S
Eu201 O224 2.394 . S
Eu201 O229 2.355 . S
Eu201 O231 2.374 . S
C202 C200 1.500 . S
C202 C203 1.377 . S
C202 C207 1.377 . S
C203 C202 1.377 . S
C203 C204 1.395 . S
C203 H232 0.931 . S
C204 C203 1.395 . S
C204 C205 1.383 . S
C204 H233 0.931 . S
C205 C204 1.383 . S
C205 C206 1.394 . S
C206 C205 1.394 . S
C206 C207 1.378 . S
C206 H234 0.931 . S
C207 C202 1.377 . S
C207 C206 1.378 . S
C207 H235 0.931 . S
C208 O222 1.259 . S
C208 O223 1.270 . S
C209 O224 1.251 . S
C209 O225 1.251 . S
C210 Eu211 2.835 . S
C210 C212 1.500 . S
C210 O226 1.257 . S
C210 O227 1.260 . S
Eu211 C210 2.835 . S
Eu211 O223 2.355 . S
Eu211 O225 2.374 . S
Eu211 O226 2.473 . S
Eu211 O227 2.480 . S
Eu211 O228 2.430 . S
Eu211 O229 2.670 . S
Eu211 O230 2.394 . S
C212 C210 1.500 . S
C212 C213 1.377 . S
C212 C217 1.377 . S
C213 C212 1.377 . S
C213 C214 1.395 . S
C213 H236 0.931 . S
C214 C213 1.395 . S
C214 C215 1.383 . S
C214 H237 0.931 . S
C215 C214 1.383 . S
C215 C216 1.394 . S
C216 C215 1.394 . S
C216 C217 1.378 . S
C216 H238 0.931 . S
C217 C212 1.377 . S
C217 C216 1.378 . S
C217 H239 0.931 . S
C218 O228 1.259 . S
C218 O229 1.270 . S
C219 O230 1.251 . S
C219 O231 1.251 . S
O220 C200 1.257 . S
O220 Eu201 2.473 . S
O221 C200 1.260 . S
O221 Eu201 2.480 . S
O222 Eu201 2.430 . S
O222 C208 1.259 . S
O223 Eu201 2.670 . S
O223 C208 1.270 . S
O223 Eu211 2.355 . S
O224 Eu201 2.394 . S
O224 C209 1.251 . S
O225 C209 1.251 . S
O225 Eu211 2.374 . S
O226 C210 1.257 . S
O226 Eu211 2.473 . S
O227 C210 1.260 . S
O227 Eu211 2.480 . S
O228 Eu211 2.430 . S
O228 C218 1.259 . S
O229 Eu201 2.355 . S
O229 Eu211 2.670 . S
O229 C218 1.270 . S
O230 Eu211 2.394 . S
O230 C219 1.251 . S
O231 Eu201 2.374 . S
O231 C219 1.251 . S
H232 C203 0.931 . S
H233 C204 0.931 . S
H234 C206 0.931 . S
H235 C207 0.931 . S
H236 C213 0.931 . S
H237 C214 0.931 . S
H238 C216 0.931 . S
H239 C217 0.931 . S
C240 Eu241 2.835 . S
C240 C242 1.500 1_545 S
C240 O260 1.257 . S
C240 O261 1.260 . S
Eu241 C240 2.835 . S
Eu241 O260 2.473 . S
Eu241 O261 2.480 . S
Eu241 O262 2.430 . S
Eu241 O263 2.670 . S
Eu241 O264 2.394 . S
Eu241 O269 2.355 . S
Eu241 O271 2.374 . S
C242 C240 1.500 1_565 S
C242 C243 1.377 . S
C242 C247 1.377 . S
C243 C242 1.377 . S
C243 C244 1.395 . S
C243 H272 0.931 . S
C244 C243 1.395 . S
C244 C245 1.383 . S
C244 H273 0.931 . S
C245 C244 1.383 . S
C245 C246 1.394 . S
C246 C245 1.394 . S
C246 C247 1.378 . S
C246 H274 0.931 . S
C247 C242 1.377 . S
C247 C246 1.378 . S
C247 H275 0.931 . S
C248 O262 1.259 . S
C248 O263 1.270 . S
C249 O264 1.251 . S
C249 O265 1.251 . S
C250 Eu251 2.835 . S
C250 C252 1.500 . S
C250 O266 1.257 . S
C250 O267 1.260 . S
Eu251 C250 2.835 . S
Eu251 O263 2.355 . S
Eu251 O265 2.374 . S
Eu251 O266 2.473 . S
Eu251 O267 2.480 . S
Eu251 O268 2.430 . S
Eu251 O269 2.670 . S
Eu251 O270 2.394 . S
C252 C250 1.500 . S
C252 C253 1.377 . S
C252 C257 1.377 . S
C253 C252 1.377 . S
C253 C254 1.395 . S
C253 H276 0.931 . S
C254 C253 1.395 . S
C254 C255 1.383 . S
C254 H277 0.931 . S
C255 C254 1.383 . S
C255 C256 1.394 . S
C256 C255 1.394 . S
C256 C257 1.378 . S
C256 H278 0.931 . S
C257 C252 1.377 . S
C257 C256 1.378 . S
C257 H279 0.931 . S
C258 O268 1.259 . S
C258 O269 1.270 . S
C259 O270 1.251 . S
C259 O271 1.251 . S
O260 C240 1.257 . S
O260 Eu241 2.473 . S
O261 C240 1.260 . S
O261 Eu241 2.480 . S
O262 Eu241 2.430 . S
O262 C248 1.259 . S
O263 Eu241 2.670 . S
O263 C248 1.270 . S
O263 Eu251 2.355 . S
O264 Eu241 2.394 . S
O264 C249 1.251 . S
O265 C249 1.251 . S
O265 Eu251 2.374 . S
O266 C250 1.257 . S
O266 Eu251 2.473 . S
O267 C250 1.260 . S
O267 Eu251 2.480 . S
O268 Eu251 2.430 . S
O268 C258 1.259 . S
O269 Eu241 2.355 . S
O269 Eu251 2.670 . S
O269 C258 1.270 . S
O270 Eu251 2.394 . S
O270 C259 1.251 . S
O271 Eu241 2.374 . S
O271 C259 1.251 . S
H272 C243 0.931 . S
H273 C244 0.931 . S
H274 C246 0.931 . S
H275 C247 0.931 . S
H276 C253 0.931 . S
H277 C254 0.931 . S
H278 C256 0.931 . S
H279 C257 0.931 . S
C280 Eu281 2.835 1_455 S
C280 C282 1.500 . S
C280 O300 1.257 1_455 S
C280 O301 1.260 1_455 S
Eu281 C280 2.835 1_655 S
Eu281 O300 2.473 . S
Eu281 O301 2.480 . S
Eu281 O302 2.430 . S
Eu281 O303 2.670 . S
Eu281 O304 2.394 . S
Eu281 O309 2.355 . S
Eu281 O311 2.374 . S
C282 C280 1.500 . S
C282 C283 1.377 . S
C282 C287 1.377 . S
C283 C282 1.377 . S
C283 C284 1.395 . S
C283 H312 0.931 . S
C284 C283 1.395 . S
C284 C285 1.383 . S
C284 H313 0.931 . S
C285 C284 1.383 . S
C285 C286 1.394 . S
C286 C285 1.394 . S
C286 C287 1.378 . S
C286 H314 0.931 . S
C287 C282 1.377 . S
C287 C286 1.378 . S
C287 H315 0.931 . S
C288 O302 1.259 . S
C288 O303 1.270 . S
C289 O304 1.251 . S
C289 O305 1.251 . S
C290 Eu291 2.835 . S
C290 C292 1.500 . S
C290 O306 1.257 . S
C290 O307 1.260 . S
Eu291 C290 2.835 . S
Eu291 O303 2.355 . S
Eu291 O305 2.374 . S
Eu291 O306 2.473 . S
Eu291 O307 2.480 . S
Eu291 O308 2.430 . S
Eu291 O309 2.670 . S
Eu291 O310 2.394 . S
C292 C290 1.500 . S
C292 C293 1.377 . S
C292 C297 1.377 . S
C293 C292 1.377 . S
C293 C294 1.395 . S
C293 H316 0.931 . S
C294 C293 1.395 . S
C294 C295 1.383 . S
C294 H317 0.931 . S
C295 C294 1.383 . S
C295 C296 1.394 . S
C296 C295 1.394 . S
C296 C297 1.378 . S
C296 H318 0.931 . S
C297 C292 1.377 . S
C297 C296 1.378 . S
C297 H319 0.931 . S
C298 O308 1.259 . S
C298 O309 1.270 . S
C299 O310 1.251 . S
C299 O311 1.251 . S
O300 C280 1.257 1_655 S
O300 Eu281 2.473 . S
O301 C280 1.260 1_655 S
O301 Eu281 2.480 . S
O302 Eu281 2.430 . S
O302 C288 1.259 . S
O303 Eu281 2.670 . S
O303 C288 1.270 . S
O303 Eu291 2.355 . S
O304 Eu281 2.394 . S
O304 C289 1.251 . S
O305 C289 1.251 . S
O305 Eu291 2.374 . S
O306 C290 1.257 . S
O306 Eu291 2.473 . S
O307 C290 1.260 . S
O307 Eu291 2.480 . S
O308 Eu291 2.430 . S
O308 C298 1.259 . S
O309 Eu281 2.355 . S
O309 Eu291 2.670 . S
O309 C298 1.270 . S
O310 Eu291 2.394 . S
O310 C299 1.251 . S
O311 Eu281 2.374 . S
O311 C299 1.251 . S
H312 C283 0.931 . S
H313 C284 0.931 . S
H314 C286 0.931 . S
H315 C287 0.931 . S
H316 C293 0.931 . S
H317 C294 0.931 . S
H318 C296 0.931 . S
H319 C297 0.931 . S
C320 Eu321 2.835 . S
C320 C322 1.500 . S
C320 O340 1.257 . S
C320 O341 1.260 . S
Eu321 C320 2.835 . S
Eu321 O340 2.473 . S
Eu321 O341 2.480 . S
Eu321 O342 2.430 . S
Eu321 O343 2.670 . S
Eu321 O344 2.394 . S
Eu321 O349 2.355 . S
Eu321 O351 2.374 . S
C322 C320 1.500 . S
C322 C323 1.377 . S
C322 C327 1.377 . S
C323 C322 1.377 . S
C323 C324 1.395 . S
C323 H352 0.931 . S
C324 C323 1.395 . S
C324 C325 1.383 . S
C324 H353 0.931 . S
C325 C324 1.383 . S
C325 C326 1.394 . S
C326 C325 1.394 . S
C326 C327 1.378 . S
C326 H354 0.931 . S
C327 C322 1.377 . S
C327 C326 1.378 . S
C327 H355 0.931 . S
C328 O342 1.259 . S
C328 O343 1.270 . S
C329 O344 1.251 . S
C329 O345 1.251 . S
C330 Eu331 2.835 . S
C330 C332 1.500 . S
C330 O346 1.257 . S
C330 O347 1.260 . S
Eu331 C330 2.835 . S
Eu331 O343 2.355 . S
Eu331 O345 2.374 . S
Eu331 O346 2.473 . S
Eu331 O347 2.480 . S
Eu331 O348 2.430 . S
Eu331 O349 2.670 . S
Eu331 O350 2.394 . S
C332 C330 1.500 . S
C332 C333 1.377 . S
C332 C337 1.377 . S
C333 C332 1.377 . S
C333 C334 1.395 . S
C333 H356 0.931 . S
C334 C333 1.395 . S
C334 C335 1.383 . S
C334 H357 0.931 . S
C335 C334 1.383 . S
C335 C336 1.394 . S
C336 C335 1.394 . S
C336 C337 1.378 . S
C336 H358 0.931 . S
C337 C332 1.377 . S
C337 C336 1.378 . S
C337 H359 0.931 . S
C338 O348 1.259 . S
C338 O349 1.270 . S
C339 O350 1.251 . S
C339 O351 1.251 . S
O340 C320 1.257 . S
O340 Eu321 2.473 . S
O341 C320 1.260 . S
O341 Eu321 2.480 . S
O342 Eu321 2.430 . S
O342 C328 1.259 . S
O343 Eu321 2.670 . S
O343 C328 1.270 . S
O343 Eu331 2.355 . S
O344 Eu321 2.394 . S
O344 C329 1.251 . S
O345 C329 1.251 . S
O345 Eu331 2.374 . S
O346 C330 1.257 . S
O346 Eu331 2.473 . S
O347 C330 1.260 . S
O347 Eu331 2.480 . S
O348 Eu331 2.430 . S
O348 C338 1.259 . S
O349 Eu321 2.355 . S
O349 Eu331 2.670 . S
O349 C338 1.270 . S
O350 Eu331 2.394 . S
O350 C339 1.251 . S
O351 Eu321 2.374 . S
O351 C339 1.251 . S
H352 C323 0.931 . S
H353 C324 0.931 . S
H354 C326 0.931 . S
H355 C327 0.931 . S
H356 C333 0.931 . S
H357 C334 0.931 . S
H358 C336 0.931 . S
H359 C337 0.931 . S
C360 C361 1.391 1_554 S
C360 C362 1.394 . S
C360 H376 0.931 . S
C361 C360 1.391 1_556 S
C361 C365 1.376 . S
C362 C360 1.394 . S
C362 C363 1.369 . S
C362 C366 1.531 . S
C363 C362 1.369 . S
C363 C364 1.410 1_554 S
C363 C371 1.503 1_554 S
C364 C363 1.410 1_556 S
C364 C365 1.392 . S
C364 C367 1.511 . S
C365 C361 1.376 . S
C365 C364 1.392 . S
C365 H377 0.929 . S
C366 C362 1.531 . S
C366 H378 0.960 . S
C366 H379 0.962 . S
C366 H380 0.960 . S
C367 C364 1.511 . S
C367 H381 0.961 . S
C367 H382 0.961 . S
C367 H383 0.961 . S
C368 C369 1.370 . S
C368 C370 1.363 . S
C368 H384 0.931 . S
C369 C368 1.370 . S
C369 C373 1.408 1_556 S
C370 C368 1.363 . S
C370 C371 1.370 . S
C370 C374 1.524 . S
C371 C363 1.503 1_556 S
C371 C370 1.370 . S
C371 C372 1.403 1_556 S
C372 C371 1.403 1_554 S
C372 C373 1.404 . S
C372 C375 1.539 . S
C373 C369 1.408 1_554 S
C373 C372 1.404 . S
C373 H385 0.930 . S
C374 C370 1.524 . S
C374 H386 0.956 . S
C374 H387 0.961 . S
C374 H388 0.961 . S
C375 C372 1.539 . S
C375 H389 0.958 . S
C375 H390 0.961 . S
C375 H391 0.960 . S
H376 C360 0.931 . S
H377 C365 0.929 . S
H378 C366 0.960 . S
H379 C366 0.962 . S
H380 C366 0.960 . S
H381 C367 0.961 . S
H382 C367 0.961 . S
H383 C367 0.961 . S
H384 C368 0.931 . S
H385 C373 0.930 . S
H386 C374 0.956 . S
H387 C374 0.961 . S
H388 C374 0.961 . S
H389 C375 0.958 . S
H390 C375 0.961 . S
H391 C375 0.960 . S
C392 C393 1.391 . S
C392 C394 1.394 . S
C392 H408 0.931 . S
C393 C392 1.391 . S
C393 C397 1.376 1_556 S
C394 C392 1.394 . S
C394 C395 1.369 1_556 S
C394 C398 1.531 . S
C395 C394 1.369 1_554 S
C395 C396 1.410 . S
C395 C403 1.503 1_554 S
C396 C395 1.410 . S
C396 C397 1.392 . S
C396 C399 1.511 . S
C397 C393 1.376 1_554 S
C397 C396 1.392 . S
C397 H409 0.929 . S
C398 C394 1.531 . S
C398 H410 0.960 . S
C398 H411 0.962 . S
C398 H412 0.960 . S
C399 C396 1.511 . S
C399 H413 0.961 . S
C399 H414 0.961 . S
C399 H415 0.961 . S
C400 C401 1.370 . S
C400 C402 1.363 . S
C400 H416 0.931 . S
C401 C400 1.370 . S
C401 C405 1.408 1_556 S
C402 C400 1.363 . S
C402 C403 1.370 . S
C402 C406 1.524 . S
C403 C395 1.503 1_556 S
C403 C402 1.370 . S
C403 C404 1.403 1_556 S
C404 C403 1.403 1_554 S
C404 C405 1.404 . S
C404 C407 1.539 . S
C405 C401 1.408 1_554 S
C405 C404 1.404 . S
C405 H417 0.930 . S
C406 C402 1.524 . S
C406 H418 0.956 . S
C406 H419 0.961 . S
C406 H420 0.961 . S
C407 C404 1.539 . S
C407 H421 0.958 . S
C407 H422 0.961 . S
C407 H423 0.960 . S
H408 C392 0.931 . S
H409 C397 0.929 . S
H410 C398 0.960 . S
H411 C398 0.962 . S
H412 C398 0.960 . S
H413 C399 0.961 . S
H414 C399 0.961 . S
H415 C399 0.961 . S
H416 C400 0.931 . S
H417 C405 0.930 . S
H418 C406 0.956 . S
H419 C406 0.961 . S
H420 C406 0.961 . S
H421 C407 0.958 . S
H422 C407 0.961 . S
H423 C407 0.960 . S
C424 C425 1.391 . S
C424 C426 1.394 . S
C424 H440 0.931 . S
C425 C424 1.391 . S
C425 C429 1.376 . S
C426 C424 1.394 . S
C426 C427 1.369 . S
C426 C430 1.531 . S
C427 C426 1.369 . S
C427 C428 1.410 . S
C427 C435 1.503 . S
C428 C427 1.410 . S
C428 C429 1.392 . S
C428 C431 1.511 1_556 S
C429 C425 1.376 . S
C429 C428 1.392 . S
C429 H441 0.929 1_556 S
C430 C426 1.531 . S
C430 H442 0.960 . S
C430 H443 0.962 . S
C430 H444 0.960 . S
C431 C428 1.511 1_554 S
C431 H445 0.961 . S
C431 H446 0.961 . S
C431 H447 0.961 1_554 S
C432 C433 1.370 1_554 S
C432 C434 1.363 . S
C432 H448 0.931 . S
C433 C432 1.370 1_556 S
C433 C437 1.408 . S
C434 C432 1.363 . S
C434 C435 1.370 1_554 S
C434 C438 1.524 . S
C435 C427 1.503 . S
C435 C434 1.370 1_556 S
C435 C436 1.403 . S
C436 C435 1.403 . S
C436 C437 1.404 . S
C436 C439 1.539 . S
C437 C433 1.408 . S
C437 C436 1.404 . S
C437 H449 0.930 . S
C438 C434 1.524 . S
C438 H450 0.956 . S
C438 H451 0.961 . S
C438 H452 0.961 . S
C439 C436 1.539 . S
C439 H453 0.958 . S
C439 H454 0.961 . S
C439 H455 0.960 . S
H440 C424 0.931 . S
H441 C429 0.929 1_554 S
H442 C430 0.960 . S
H443 C430 0.962 . S
H444 C430 0.960 . S
H445 C431 0.961 . S
H446 C431 0.961 . S
H447 C431 0.961 1_556 S
H448 C432 0.931 . S
H449 C437 0.930 . S
H450 C438 0.956 . S
H451 C438 0.961 . S
H452 C438 0.961 . S
H453 C439 0.958 . S
H454 C439 0.961 . S
H455 C439 0.960 . S
C456 C457 1.391 . S
C456 C458 1.394 . S
C456 H472 0.931 . S
C457 C456 1.391 . S
C457 C461 1.376 . S
C458 C456 1.394 . S
C458 C459 1.369 . S
C458 C462 1.530 1_554 S
C459 C458 1.369 . S
C459 C460 1.410 . S
C459 C467 1.503 . S
C460 C459 1.410 . S
C460 C461 1.392 . S
C460 C463 1.511 . S
C461 C457 1.376 . S
C461 C460 1.392 . S
C461 H473 0.929 . S
C462 C458 1.530 1_556 S
C462 H474 0.960 . S
C462 H475 0.962 1_556 S
C462 H476 0.960 . S
C463 C460 1.511 . S
C463 H477 0.961 . S
C463 H478 0.961 . S
C463 H479 0.961 1_554 S
C464 C465 1.370 . S
C464 C466 1.363 . S
C464 H480 0.931 . S
C465 C464 1.370 . S
C465 C469 1.408 1_554 S
C466 C464 1.363 . S
C466 C467 1.370 . S
C466 C470 1.524 . S
C467 C459 1.503 . S
C467 C466 1.370 . S
C467 C468 1.403 1_554 S
C468 C467 1.403 1_556 S
C468 C469 1.404 . S
C468 C471 1.539 . S
C469 C465 1.408 1_556 S
C469 C468 1.404 . S
C469 H481 0.930 . S
C470 C466 1.524 . S
C470 H482 0.956 . S
C470 H483 0.961 . S
C470 H484 0.961 . S
C471 C468 1.539 . S
C471 H485 0.958 . S
C471 H486 0.961 . S
C471 H487 0.960 . S
H472 C456 0.931 . S
H473 C461 0.929 . S
H474 C462 0.960 . S
H475 C462 0.962 1_554 S
H476 C462 0.960 . S
H477 C463 0.961 . S
H478 C463 0.961 . S
H479 C463 0.961 1_556 S
H480 C464 0.931 . S
H481 C469 0.930 . S
H482 C470 0.956 . S
H483 C470 0.961 . S
H484 C470 0.961 . S
H485 C471 0.958 . S
H486 C471 0.961 . S
H487 C471 0.960 . S
C488 C489 1.391 . S
C488 C490 1.394 . S
C488 H504 0.931 . S
C489 C488 1.391 . S
C489 C493 1.376 1_554 S
C490 C488 1.394 . S
C490 C491 1.369 . S
C490 C494 1.531 . S
C491 C490 1.369 . S
C491 C492 1.410 1_554 S
C491 C499 1.503 . S
C492 C491 1.410 1_556 S
C492 C493 1.392 . S
C492 C495 1.511 . S
C493 C489 1.376 1_556 S
C493 C492 1.392 . S
C493 H505 0.929 . S
C494 C490 1.531 . S
C494 H506 0.960 . S
C494 H507 0.962 . S
C494 H508 0.960 . S
C495 C492 1.511 . S
C495 H509 0.961 . S
C495 H510 0.961 . S
C495 H511 0.961 . S
C496 C497 1.370 . S
C496 C498 1.363 . S
C496 H512 0.931 . S
C497 C496 1.370 . S
C497 C501 1.408 1_554 S
C498 C496 1.363 . S
C498 C499 1.370 . S
C498 C502 1.524 . S
C499 C491 1.503 . S
C499 C498 1.370 . S
C499 C500 1.403 1_554 S
C500 C499 1.403 1_556 S
C500 C501 1.404 . S
C500 C503 1.539 . S
C501 C497 1.408 1_556 S
C501 C500 1.404 . S
C501 H513 0.930 . S
C502 C498 1.524 . S
C502 H514 0.956 . S
C502 H515 0.961 . S
C502 H516 0.961 . S
C503 C500 1.539 . S
C503 H517 0.958 . S
C503 H518 0.961 . S
C503 H519 0.960 . S
H504 C488 0.931 . S
H505 C493 0.929 . S
H506 C494 0.960 . S
H507 C494 0.962 . S
H508 C494 0.960 . S
H509 C495 0.961 . S
H510 C495 0.961 . S
H511 C495 0.961 . S
H512 C496 0.931 . S
H513 C501 0.930 . S
H514 C502 0.956 . S
H515 C502 0.961 . S
H516 C502 0.961 . S
H517 C503 0.958 . S
H518 C503 0.961 . S
H519 C503 0.960 . S
C520 C521 1.391 . S
C520 C522 1.394 . S
C520 H536 0.931 . S
C521 C520 1.391 . S
C521 C525 1.376 . S
C522 C520 1.394 . S
C522 C523 1.369 . S
C522 C526 1.531 . S
C523 C522 1.369 . S
C523 C524 1.410 1_554 S
C523 C531 1.503 . S
C524 C523 1.410 1_556 S
C524 C525 1.392 1_556 S
C524 C527 1.511 . S
C525 C521 1.376 . S
C525 C524 1.392 1_554 S
C525 H537 0.929 1_554 S
C526 C522 1.531 . S
C526 H538 0.961 . S
C526 H539 0.962 . S
C526 H540 0.960 . S
C527 C524 1.511 . S
C527 H541 0.961 . S
C527 H542 0.962 1_556 S
C527 H543 0.961 . S
C528 C529 1.370 . S
C528 C530 1.363 . S
C528 H544 0.931 . S
C529 C528 1.370 . S
C529 C533 1.408 1_554 S
C530 C528 1.363 . S
C530 C531 1.370 . S
C530 C534 1.524 . S
C531 C523 1.503 . S
C531 C530 1.370 . S
C531 C532 1.403 1_554 S
C532 C531 1.403 1_556 S
C532 C533 1.404 . S
C532 C535 1.539 . S
C533 C529 1.408 1_556 S
C533 C532 1.404 . S
C533 H545 0.930 . S
C534 C530 1.524 . S
C534 H546 0.956 . S
C534 H547 0.961 . S
C534 H548 0.961 . S
C535 C532 1.539 . S
C535 H549 0.958 . S
C535 H550 0.961 . S
C535 H551 0.960 . S
H536 C520 0.931 . S
H537 C525 0.929 1_556 S
H538 C526 0.961 . S
H539 C526 0.962 . S
H540 C526 0.960 . S
H541 C527 0.961 . S
H542 C527 0.962 1_554 S
H543 C527 0.961 . S
H544 C528 0.931 . S
H545 C533 0.930 . S
H546 C534 0.956 . S
H547 C534 0.961 . S
H548 C534 0.961 . S
H549 C535 0.958 . S
H550 C535 0.961 . S
H551 C535 0.960 . S
C552 C553 1.391 . S
C552 C554 1.394 . S
C552 H568 0.931 . S
C553 C552 1.391 . S
C553 C557 1.376 . S
C554 C552 1.394 . S
C554 C555 1.369 . S
C554 C558 1.531 . S
C555 C554 1.369 . S
C555 C556 1.410 . S
C555 C563 1.503 . S
C556 C555 1.410 . S
C556 C557 1.392 . S
C556 C559 1.511 . S
C557 C553 1.376 . S
C557 C556 1.392 . S
C557 H569 0.929 . S
C558 C554 1.531 . S
C558 H570 0.960 . S
C558 H571 0.962 . S
C558 H572 0.960 . S
C559 C556 1.511 . S
C559 H573 0.961 . S
C559 H574 0.961 . S
C559 H575 0.961 . S
C560 C561 1.370 . S
C560 C562 1.363 . S
C560 H576 0.931 . S
C561 C560 1.370 . S
C561 C565 1.408 . S
C562 C560 1.363 . S
C562 C563 1.370 . S
C562 C566 1.524 . S
C563 C555 1.503 . S
C563 C562 1.370 . S
C563 C564 1.403 . S
C564 C563 1.403 . S
C564 C565 1.404 . S
C564 C567 1.539 . S
C565 C561 1.408 . S
C565 C564 1.404 . S
C565 H577 0.930 . S
C566 C562 1.524 . S
C566 H578 0.956 . S
C566 H579 0.961 . S
C566 H580 0.961 . S
C567 C564 1.539 . S
C567 H581 0.958 . S
C567 H582 0.961 . S
C567 H583 0.960 . S
H568 C552 0.931 . S
H569 C557 0.929 . S
H570 C558 0.960 . S
H571 C558 0.962 . S
H572 C558 0.960 . S
H573 C559 0.961 . S
H574 C559 0.961 . S
H575 C559 0.961 . S
H576 C560 0.931 . S
H577 C565 0.930 . S
H578 C566 0.956 . S
H579 C566 0.961 . S
H580 C566 0.961 . S
H581 C567 0.958 . S
H582 C567 0.961 . S
H583 C567 0.960 . S
C584 C585 1.391 . S
C584 C586 1.394 . S
C584 H600 0.931 . S
C585 C584 1.391 . S
C585 C589 1.376 . S
C586 C584 1.394 . S
C586 C587 1.369 . S
C586 C590 1.531 . S
C587 C586 1.369 . S
C587 C588 1.410 . S
C587 C595 1.503 . S
C588 C587 1.410 . S
C588 C589 1.392 . S
C588 C591 1.511 . S
C589 C585 1.376 . S
C589 C588 1.392 . S
C589 H601 0.929 . S
C590 C586 1.531 . S
C590 H602 0.960 . S
C590 H603 0.962 . S
C590 H604 0.960 . S
C591 C588 1.511 . S
C591 H605 0.961 1_545 S
C591 H606 0.961 1_545 S
C591 H607 0.961 . S
C592 C593 1.370 . S
C592 C594 1.363 1_565 S
C592 H608 0.931 . S
C593 C592 1.370 . S
C593 C597 1.408 1_565 S
C594 C592 1.363 1_545 S
C594 C595 1.370 . S
C594 C598 1.524 . S
C595 C587 1.503 . S
C595 C594 1.370 . S
C595 C596 1.403 . S
C596 C595 1.403 . S
C596 C597 1.404 . S
C596 C599 1.539 . S
C597 C593 1.408 1_545 S
C597 C596 1.404 . S
C597 H609 0.930 . S
C598 C594 1.524 . S
C598 H610 0.956 . S
C598 H611 0.960 . S
C598 H612 0.961 1_545 S
C599 C596 1.539 . S
C599 H613 0.958 . S
C599 H614 0.961 . S
C599 H615 0.960 . S
H600 C584 0.931 . S
H601 C589 0.929 . S
H602 C590 0.960 . S
H603 C590 0.962 . S
H604 C590 0.960 . S
H605 C591 0.961 1_565 S
H606 C591 0.961 1_565 S
H607 C591 0.961 . S
H608 C592 0.931 . S
H609 C597 0.930 . S
H610 C598 0.956 . S
H611 C598 0.960 . S
H612 C598 0.961 1_565 S
H613 C599 0.958 . S
H614 C599 0.961 . S
H615 C599 0.960 . S
C616 C617 1.391 . S
C616 C618 1.394 . S
C616 H632 0.931 . S
C617 C616 1.391 . S
C617 C621 1.376 1_455 S
C618 C616 1.394 . S
C618 C619 1.369 1_455 S
C618 C622 1.531 . S
C619 C618 1.369 1_655 S
C619 C620 1.410 . S
C619 C627 1.503 . S
C620 C619 1.410 . S
C620 C621 1.392 . S
C620 C623 1.511 . S
C621 C617 1.376 1_655 S
C621 C620 1.392 . S
C621 H633 0.929 . S
C622 C618 1.531 . S
C622 H634 0.960 . S
C622 H635 0.962 . S
C622 H636 0.960 . S
C623 C620 1.511 . S
C623 H637 0.961 . S
C623 H638 0.961 . S
C623 H639 0.961 . S
C624 C625 1.370 . S
C624 C626 1.363 . S
C624 H640 0.931 . S
C625 C624 1.370 . S
C625 C629 1.408 . S
C626 C624 1.363 . S
C626 C627 1.370 . S
C626 C630 1.524 . S
C627 C619 1.503 . S
C627 C626 1.370 . S
C627 C628 1.403 . S
C628 C627 1.403 . S
C628 C629 1.404 . S
C628 C631 1.539 . S
C629 C625 1.408 . S
C629 C628 1.404 . S
C629 H641 0.930 . S
C630 C626 1.524 . S
C630 H642 0.956 . S
C630 H643 0.961 . S
C630 H644 0.961 . S
C631 C628 1.539 . S
C631 H645 0.958 . S
C631 H646 0.961 . S
C631 H647 0.960 . S
H632 C616 0.931 . S
H633 C621 0.929 . S
H634 C622 0.960 . S
H635 C622 0.962 . S
H636 C622 0.960 . S
H637 C623 0.961 . S
H638 C623 0.961 . S
H639 C623 0.961 . S
H640 C624 0.931 . S
H641 C629 0.930 . S
H642 C630 0.956 . S
H643 C630 0.961 . S
H644 C630 0.961 . S
H645 C631 0.958 . S
H646 C631 0.961 . S
H647 C631 0.960 . S
C648 C649 1.391 . S
C648 C650 1.394 . S
C648 H664 0.931 . S
C649 C648 1.391 . S
C649 C653 1.376 . S
C650 C648 1.394 . S
C650 C651 1.369 . S
C650 C654 1.531 . S
C651 C650 1.369 . S
C651 C652 1.410 . S
C651 C659 1.503 . S
C652 C651 1.410 . S
C652 C653 1.392 . S
C652 C655 1.511 . S
C653 C649 1.376 . S
C653 C652 1.392 . S
C653 H665 0.929 . S
C654 C650 1.531 . S
C654 H666 0.960 . S
C654 H667 0.962 . S
C654 H668 0.960 . S
C655 C652 1.511 . S
C655 H669 0.961 . S
C655 H670 0.961 . S
C655 H671 0.961 . S
C656 C657 1.370 . S
C656 C658 1.363 . S
C656 H672 0.931 . S
C657 C656 1.370 . S
C657 C661 1.408 . S
C658 C656 1.363 . S
C658 C659 1.370 . S
C658 C662 1.524 . S
C659 C651 1.503 . S
C659 C658 1.370 . S
C659 C660 1.403 . S
C660 C659 1.403 . S
C660 C661 1.404 . S
C660 C663 1.539 . S
C661 C657 1.408 . S
C661 C660 1.404 . S
C661 H673 0.930 . S
C662 C658 1.524 . S
C662 H674 0.956 . S
C662 H675 0.961 . S
C662 H676 0.961 . S
C663 C660 1.539 . S
C663 H677 0.958 . S
C663 H678 0.961 . S
C663 H679 0.960 . S
H664 C648 0.931 . S
H665 C653 0.929 . S
H666 C654 0.960 . S
H667 C654 0.962 . S
H668 C654 0.960 . S
H669 C655 0.961 . S
H670 C655 0.961 . S
H671 C655 0.961 . S
H672 C656 0.931 . S
H673 C661 0.930 . S
H674 C662 0.956 . S
H675 C662 0.961 . S
H676 C662 0.961 . S
H677 C663 0.958 . S
H678 C663 0.961 . S
H679 C663 0.960 . S
C680 C681 1.391 . S
C680 C682 1.394 . S
C680 H696 0.931 . S
C681 C680 1.391 . S
C681 C685 1.376 . S
C682 C680 1.394 . S
C682 C683 1.369 . S
C682 C686 1.531 . S
C683 C682 1.369 . S
C683 C684 1.410 . S
C683 C691 1.503 . S
C684 C683 1.410 . S
C684 C685 1.392 . S
C684 C687 1.511 . S
C685 C681 1.376 . S
C685 C684 1.392 . S
C685 H697 0.929 . S
C686 C682 1.531 . S
C686 H698 0.960 . S
C686 H699 0.962 . S
C686 H700 0.960 . S
C687 C684 1.511 . S
C687 H701 0.961 . S
C687 H702 0.961 . S
C687 H703 0.961 . S
C688 C689 1.370 . S
C688 C690 1.363 . S
C688 H704 0.931 . S
C689 C688 1.370 . S
C689 C693 1.408 . S
C690 C688 1.363 . S
C690 C691 1.370 . S
C690 C694 1.524 . S
C691 C683 1.503 . S
C691 C690 1.370 . S
C691 C692 1.403 . S
C692 C691 1.403 . S
C692 C693 1.404 . S
C692 C695 1.539 . S
C693 C689 1.408 . S
C693 C692 1.404 . S
C693 H705 0.930 . S
C694 C690 1.524 . S
C694 H706 0.956 . S
C694 H707 0.961 . S
C694 H708 0.961 . S
C695 C692 1.539 . S
C695 H709 0.958 . S
C695 H710 0.961 . S
C695 H711 0.960 . S
H696 C680 0.931 . S
H697 C685 0.929 . S
H698 C686 0.960 . S
H699 C686 0.962 . S
H700 C686 0.960 . S
H701 C687 0.961 . S
H702 C687 0.961 . S
H703 C687 0.961 . S
H704 C688 0.931 . S
H705 C693 0.930 . S
H706 C694 0.956 . S
H707 C694 0.961 . S
H708 C694 0.961 . S
H709 C695 0.958 . S
H710 C695 0.961 . S
H711 C695 0.960 . S
C712 C713 1.391 . S
C712 C714 1.394 . S
C712 H728 0.931 . S
C713 C712 1.391 . S
C713 C717 1.376 . S
C714 C712 1.394 . S
C714 C715 1.369 . S
C714 C718 1.531 . S
C715 C714 1.369 . S
C715 C716 1.410 . S
C715 C723 1.503 . S
C716 C715 1.410 . S
C716 C717 1.392 . S
C716 C719 1.511 . S
C717 C713 1.376 . S
C717 C716 1.392 . S
C717 H729 0.929 . S
C718 C714 1.531 . S
C718 H730 0.960 . S
C718 H731 0.962 . S
C718 H732 0.960 . S
C719 C716 1.511 . S
C719 H733 0.961 . S
C719 H734 0.961 . S
C719 H735 0.961 . S
C720 C721 1.370 . S
C720 C722 1.363 . S
C720 H736 0.931 . S
C721 C720 1.370 . S
C721 C725 1.408 . S
C722 C720 1.363 . S
C722 C723 1.370 . S
C722 C726 1.524 . S
C723 C715 1.503 . S
C723 C722 1.370 . S
C723 C724 1.403 . S
C724 C723 1.403 . S
C724 C725 1.404 . S
C724 C727 1.539 . S
C725 C721 1.408 . S
C725 C724 1.404 . S
C725 H737 0.930 . S
C726 C722 1.524 . S
C726 H738 0.956 . S
C726 H739 0.961 . S
C726 H740 0.961 . S
C727 C724 1.539 . S
C727 H741 0.958 . S
C727 H742 0.961 . S
C727 H743 0.960 . S
H728 C712 0.931 . S
H729 C717 0.929 . S
H730 C718 0.960 . S
H731 C718 0.962 . S
H732 C718 0.960 . S
H733 C719 0.961 . S
H734 C719 0.961 . S
H735 C719 0.961 . S
H736 C720 0.931 . S
H737 C725 0.930 . S
H738 C726 0.956 . S
H739 C726 0.961 . S
H740 C726 0.961 . S
H741 C727 0.958 . S
H742 C727 0.961 . S
H743 C727 0.960 . S
C744 C745 1.391 . S
C744 C746 1.394 . S
C744 H760 0.931 . S
C745 C744 1.391 . S
C745 C749 1.376 . S
C746 C744 1.394 . S
C746 C747 1.369 . S
C746 C750 1.531 . S
C747 C746 1.369 . S
C747 C748 1.410 . S
C747 C755 1.503 . S
C748 C747 1.410 . S
C748 C749 1.392 . S
C748 C751 1.511 . S
C749 C745 1.376 . S
C749 C748 1.392 . S
C749 H761 0.929 . S
C750 C746 1.531 . S
C750 H762 0.960 . S
C750 H763 0.962 . S
C750 H764 0.960 . S
C751 C748 1.511 . S
C751 H765 0.961 . S
C751 H766 0.961 . S
C751 H767 0.961 . S
C752 C753 1.370 . S
C752 C754 1.363 . S
C752 H768 0.931 . S
C753 C752 1.370 . S
C753 C757 1.408 . S
C754 C752 1.363 . S
C754 C755 1.370 . S
C754 C758 1.524 . S
C755 C747 1.503 . S
C755 C754 1.370 . S
C755 C756 1.403 . S
C756 C755 1.403 . S
C756 C757 1.404 . S
C756 C759 1.539 . S
C757 C753 1.408 . S
C757 C756 1.404 . S
C757 H769 0.930 . S
C758 C754 1.524 . S
C758 H770 0.956 . S
C758 H771 0.961 . S
C758 H772 0.961 . S
C759 C756 1.539 . S
C759 H773 0.958 . S
C759 H774 0.961 . S
C759 H775 0.960 . S
H760 C744 0.931 . S
H761 C749 0.929 . S
H762 C750 0.960 . S
H763 C750 0.962 . S
H764 C750 0.960 . S
H765 C751 0.961 . S
H766 C751 0.961 . S
H767 C751 0.961 . S
H768 C752 0.931 . S
H769 C757 0.930 . S
H770 C758 0.956 . S
H771 C758 0.961 . S
H772 C758 0.961 . S
H773 C759 0.958 . S
H774 C759 0.961 . S
H775 C759 0.960 . S
C776 C777 1.391 . S
C776 C778 1.394 . S
C776 H792 0.931 . S
C777 C776 1.391 . S
C777 C781 1.376 . S
C778 C776 1.394 . S
C778 C779 1.369 . S
C778 C782 1.531 . S
C779 C778 1.369 . S
C779 C780 1.410 . S
C779 C787 1.503 . S
C780 C779 1.410 . S
C780 C781 1.392 . S
C780 C783 1.511 . S
C781 C777 1.376 . S
C781 C780 1.392 . S
C781 H793 0.929 . S
C782 C778 1.531 . S
C782 H794 0.960 . S
C782 H795 0.962 . S
C782 H796 0.960 . S
C783 C780 1.511 . S
C783 H797 0.961 . S
C783 H798 0.961 . S
C783 H799 0.961 . S
C784 C785 1.370 . S
C784 C786 1.363 . S
C784 H800 0.931 . S
C785 C784 1.370 . S
C785 C789 1.408 . S
C786 C784 1.363 . S
C786 C787 1.370 . S
C786 C790 1.524 . S
C787 C779 1.503 . S
C787 C786 1.370 . S
C787 C788 1.403 . S
C788 C787 1.403 . S
C788 C789 1.404 . S
C788 C791 1.539 . S
C789 C785 1.408 . S
C789 C788 1.404 . S
C789 H801 0.930 . S
C790 C786 1.524 . S
C790 H802 0.956 . S
C790 H803 0.961 . S
C790 H804 0.961 . S
C791 C788 1.539 . S
C791 H805 0.958 . S
C791 H806 0.961 . S
C791 H807 0.960 . S
H792 C776 0.931 . S
H793 C781 0.929 . S
H794 C782 0.960 . S
H795 C782 0.962 . S
H796 C782 0.960 . S
H797 C783 0.961 . S
H798 C783 0.961 . S
H799 C783 0.961 . S
H800 C784 0.931 . S
H801 C789 0.930 . S
H802 C790 0.956 . S
H803 C790 0.961 . S
H804 C790 0.961 . S
H805 C791 0.958 . S
H806 C791 0.961 . S
H807 C791 0.960 . S
C808 C809 1.391 . S
C808 C810 1.394 . S
C808 H824 0.931 . S
C809 C808 1.391 . S
C809 C813 1.376 . S
C810 C808 1.394 . S
C810 C811 1.369 . S
C810 C814 1.531 . S
C811 C810 1.369 . S
C811 C812 1.410 . S
C811 C819 1.503 . S
C812 C811 1.410 . S
C812 C813 1.392 . S
C812 C815 1.511 . S
C813 C809 1.376 . S
C813 C812 1.392 . S
C813 H825 0.929 . S
C814 C810 1.531 . S
C814 H826 0.960 . S
C814 H827 0.962 . S
C814 H828 0.960 . S
C815 C812 1.511 . S
C815 H829 0.961 . S
C815 H830 0.961 . S
C815 H831 0.961 . S
C816 C817 1.370 . S
C816 C818 1.363 . S
C816 H832 0.931 . S
C817 C816 1.370 . S
C817 C821 1.408 . S
C818 C816 1.363 . S
C818 C819 1.370 . S
C818 C822 1.524 . S
C819 C811 1.503 . S
C819 C818 1.370 . S
C819 C820 1.403 . S
C820 C819 1.403 . S
C820 C821 1.404 . S
C820 C823 1.539 . S
C821 C817 1.408 . S
C821 C820 1.404 . S
C821 H833 0.930 . S
C822 C818 1.524 . S
C822 H834 0.956 . S
C822 H835 0.961 . S
C822 H836 0.961 . S
C823 C820 1.539 . S
C823 H837 0.958 . S
C823 H838 0.961 . S
C823 H839 0.960 . S
H824 C808 0.931 . S
H825 C813 0.929 . S
H826 C814 0.960 . S
H827 C814 0.962 . S
H828 C814 0.960 . S
H829 C815 0.961 . S
H830 C815 0.961 . S
H831 C815 0.961 . S
H832 C816 0.931 . S
H833 C821 0.930 . S
H834 C822 0.956 . S
H835 C822 0.961 . S
H836 C822 0.961 . S
H837 C823 0.958 . S
H838 C823 0.961 . S
H839 C823 0.960 . S
C840 C841 1.391 . S
C840 C842 1.394 . S
C840 H856 0.931 . S
C841 C840 1.391 . S
C841 C845 1.376 . S
C842 C840 1.394 . S
C842 C843 1.369 1_565 S
C842 C846 1.531 1_565 S
C843 C842 1.369 1_545 S
C843 C844 1.410 1_545 S
C843 C851 1.503 . S
C844 C843 1.410 1_565 S
C844 C845 1.392 . S
C844 C847 1.511 1_565 S
C845 C841 1.376 . S
C845 C844 1.392 . S
C845 H857 0.929 . S
C846 C842 1.531 1_545 S
C846 H858 0.960 . S
C846 H859 0.962 . S
C846 H860 0.964 . S
C847 C844 1.511 1_545 S
C847 H861 0.961 1_545 S
C847 H862 0.961 . S
C847 H863 0.961 . S
C848 C849 1.370 . S
C848 C850 1.363 . S
C848 H864 0.931 . S
C849 C848 1.370 . S
C849 C853 1.408 . S
C850 C848 1.363 . S
C850 C851 1.370 . S
C850 C854 1.524 . S
C851 C843 1.503 . S
C851 C850 1.370 . S
C851 C852 1.403 . S
C852 C851 1.403 . S
C852 C853 1.404 . S
C852 C855 1.539 . S
C853 C849 1.408 . S
C853 C852 1.404 . S
C853 H865 0.930 . S
C854 C850 1.524 . S
C854 H866 0.956 . S
C854 H867 0.961 . S
C854 H868 0.961 . S
C855 C852 1.539 . S
C855 H869 0.958 . S
C855 H870 0.961 . S
C855 H871 0.960 . S
H856 C840 0.931 . S
H857 C845 0.929 . S
H858 C846 0.960 . S
H859 C846 0.962 . S
H860 C846 0.964 . S
H861 C847 0.961 1_565 S
H862 C847 0.961 . S
H863 C847 0.961 . S
H864 C848 0.931 . S
H865 C853 0.930 . S
H866 C854 0.956 . S
H867 C854 0.961 . S
H868 C854 0.961 . S
H869 C855 0.958 . S
H870 C855 0.961 . S
H871 C855 0.960 . S
C872 C873 1.391 . S
C872 C874 1.394 . S
C872 H888 0.931 . S
C873 C872 1.391 . S
C873 C877 1.376 . S
C874 C872 1.394 . S
C874 C875 1.369 . S
C874 C878 1.531 . S
C875 C874 1.369 . S
C875 C876 1.410 . S
C875 C883 1.503 1_655 S
C876 C875 1.410 . S
C876 C877 1.392 . S
C876 C879 1.511 . S
C877 C873 1.376 . S
C877 C876 1.392 . S
C877 H889 0.929 . S
C878 C874 1.531 . S
C878 H890 0.960 . S
C878 H891 0.962 . S
C878 H892 0.960 . S
C879 C876 1.511 . S
C879 H893 0.961 . S
C879 H894 0.961 . S
C879 H895 0.961 . S
C880 C881 1.370 . S
C880 C882 1.363 . S
C880 H896 0.931 . S
C881 C880 1.370 . S
C881 C885 1.408 . S
C882 C880 1.363 . S
C882 C883 1.370 . S
C882 C886 1.524 1_455 S
C883 C875 1.503 1_455 S
C883 C882 1.370 . S
C883 C884 1.403 . S
C884 C883 1.403 . S
C884 C885 1.404 . S
C884 C887 1.539 . S
C885 C881 1.408 . S
C885 C884 1.404 . S
C885 H897 0.930 . S
C886 C882 1.524 1_655 S
C886 H898 0.956 . S
C886 H899 0.961 . S
C886 H900 0.961 1_655 S
C887 C884 1.539 . S
C887 H901 0.958 . S
C887 H902 0.961 . S
C887 H903 0.960 1_455 S
H888 C872 0.931 . S
H889 C877 0.929 . S
H890 C878 0.960 . S
H891 C878 0.962 . S
H892 C878 0.960 . S
H893 C879 0.961 . S
H894 C879 0.961 . S
H895 C879 0.961 . S
H896 C880 0.931 . S
H897 C885 0.930 . S
H898 C886 0.956 . S
H899 C886 0.961 . S
H900 C886 0.961 1_455 S
H901 C887 0.958 . S
H902 C887 0.961 . S
H903 C887 0.960 1_655 S
C904 C905 1.391 . S
C904 C906 1.394 . S
C904 H920 0.931 . S
C905 C904 1.391 . S
C905 C909 1.376 . S
C906 C904 1.394 . S
C906 C907 1.369 . S
C906 C910 1.531 . S
C907 C906 1.369 . S
C907 C908 1.410 . S
C907 C915 1.503 . S
C908 C907 1.410 . S
C908 C909 1.392 . S
C908 C911 1.511 . S
C909 C905 1.376 . S
C909 C908 1.392 . S
C909 H921 0.929 . S
C910 C906 1.531 . S
C910 H922 0.960 . S
C910 H923 0.962 . S
C910 H924 0.960 . S
C911 C908 1.511 . S
C911 H925 0.961 . S
C911 H926 0.961 . S
C911 H927 0.961 . S
C912 C913 1.370 . S
C912 C914 1.363 . S
C912 H928 0.931 . S
C913 C912 1.370 . S
C913 C917 1.408 . S
C914 C912 1.363 . S
C914 C915 1.370 . S
C914 C918 1.524 . S
C915 C907 1.503 . S
C915 C914 1.370 . S
C915 C916 1.403 . S
C916 C915 1.403 . S
C916 C917 1.404 . S
C916 C919 1.539 . S
C917 C913 1.408 . S
C917 C916 1.404 . S
C917 H929 0.930 . S
C918 C914 1.524 . S
C918 H930 0.956 . S
C918 H931 0.961 . S
C918 H932 0.961 . S
C919 C916 1.539 . S
C919 H933 0.958 . S
C919 H934 0.961 . S
C919 H935 0.960 . S
H920 C904 0.931 . S
H921 C909 0.929 . S
H922 C910 0.960 . S
H923 C910 0.962 . S
H924 C910 0.960 . S
H925 C911 0.961 . S
H926 C911 0.961 . S
H927 C911 0.961 . S
H928 C912 0.931 . S
H929 C917 0.930 . S
H930 C918 0.956 . S
H931 C918 0.961 . S
H932 C918 0.961 . S
H933 C919 0.958 . S
H934 C919 0.961 . S
H935 C919 0.960 . S
C936 C937 1.391 . S
C936 C938 1.394 . S
C936 H952 0.931 . S
C937 C936 1.391 . S
C937 C941 1.376 . S
C938 C936 1.394 . S
C938 C939 1.369 . S
C938 C942 1.531 . S
C939 C938 1.369 . S
C939 C940 1.410 . S
C939 C947 1.503 . S
C940 C939 1.410 . S
C940 C941 1.392 . S
C940 C943 1.511 . S
C941 C937 1.376 . S
C941 C940 1.392 . S
C941 H953 0.929 . S
C942 C938 1.531 . S
C942 H954 0.960 . S
C942 H955 0.962 . S
C942 H956 0.960 . S
C943 C940 1.511 . S
C943 H957 0.961 . S
C943 H958 0.961 . S
C943 H959 0.961 . S
C944 C945 1.370 . S
C944 C946 1.363 . S
C944 H960 0.931 1_455 S
C945 C944 1.370 . S
C945 C949 1.408 . S
C946 C944 1.363 . S
C946 C947 1.370 . S
C946 C950 1.524 . S
C947 C939 1.503 . S
C947 C946 1.370 . S
C947 C948 1.403 . S
C948 C947 1.403 . S
C948 C949 1.404 . S
C948 C951 1.539 . S
C949 C945 1.408 . S
C949 C948 1.404 . S
C949 H961 0.930 . S
C950 C946 1.524 . S
C950 H962 0.956 . S
C950 H963 0.961 . S
C950 H964 0.961 1_455 S
C951 C948 1.539 . S
C951 H965 0.958 . S
C951 H966 0.961 . S
C951 H967 0.960 . S
H952 C936 0.931 . S
H953 C941 0.929 . S
H954 C942 0.960 . S
H955 C942 0.962 . S
H956 C942 0.960 . S
H957 C943 0.961 . S
H958 C943 0.961 . S
H959 C943 0.961 . S
H960 C944 0.931 1_655 S
H961 C949 0.930 . S
H962 C950 0.956 . S
H963 C950 0.961 . S
H964 C950 0.961 1_655 S
H965 C951 0.958 . S
H966 C951 0.961 . S
H967 C951 0.960 . S
C968 C969 1.391 . S
C968 C970 1.394 . S
C968 H984 0.931 . S
C969 C968 1.391 . S
C969 C973 1.376 . S
C970 C968 1.394 . S
C970 C971 1.369 . S
C970 C974 1.531 . S
C971 C970 1.369 . S
C971 C972 1.410 . S
C971 C979 1.503 . S
C972 C971 1.410 . S
C972 C973 1.392 . S
C972 C975 1.511 . S
C973 C969 1.376 . S
C973 C972 1.392 . S
C973 H985 0.929 . S
C974 C970 1.531 . S
C974 H986 0.960 . S
C974 H987 0.962 . S
C974 H988 0.960 . S
C975 C972 1.511 . S
C975 H989 0.961 . S
C975 H990 0.961 . S
C975 H991 0.961 . S
C976 C977 1.370 . S
C976 C978 1.363 . S
C976 H992 0.931 . S
C977 C976 1.370 . S
C977 C981 1.408 . S
C978 C976 1.363 . S
C978 C979 1.370 . S
C978 C982 1.524 . S
C979 C971 1.503 . S
C979 C978 1.370 . S
C979 C980 1.403 . S
C980 C979 1.403 . S
C980 C981 1.404 . S
C980 C983 1.539 . S
C981 C977 1.408 . S
C981 C980 1.404 . S
C981 H993 0.930 . S
C982 C978 1.524 . S
C982 H994 0.956 . S
C982 H995 0.961 . S
C982 H996 0.961 . S
C983 C980 1.539 . S
C983 H997 0.958 . S
C983 H998 0.961 . S
C983 H999 0.960 . S
H984 C968 0.931 . S
H985 C973 0.929 . S
H986 C974 0.960 . S
H987 C974 0.962 . S
H988 C974 0.960 . S
H989 C975 0.961 . S
H990 C975 0.961 . S
H991 C975 0.961 . S
H992 C976 0.931 . S
H993 C981 0.930 . S
H994 C982 0.956 . S
H995 C982 0.961 . S
H996 C982 0.961 . S
H997 C983 0.958 . S
H998 C983 0.961 . S
H999 C983 0.960 . S
C1000 C1001 1.391 . S
C1000 C1002 1.394 . S
C1000 H1016 0.931 1_565 S
C1001 C1000 1.391 . S
C1001 C1005 1.376 . S
C1002 C1000 1.394 . S
C1002 C1003 1.369 . S
C1002 C1006 1.531 1_565 S
C1003 C1002 1.369 . S
C1003 C1004 1.410 . S
C1003 C1011 1.503 . S
C1004 C1003 1.410 . S
C1004 C1005 1.392 . S
C1004 C1007 1.511 . S
C1005 C1001 1.376 . S
C1005 C1004 1.392 . S
C1005 H1017 0.929 . S
C1006 C1002 1.531 1_545 S
C1006 H1018 0.960 1_545 S
C1006 H1019 0.962 . S
C1006 H1020 0.960 . S
C1007 C1004 1.511 . S
C1007 H1021 0.961 . S
C1007 H1022 0.961 . S
C1007 H1023 0.961 . S
C1008 C1009 1.370 . S
C1008 C1010 1.363 . S
C1008 H1024 0.931 . S
C1009 C1008 1.370 . S
C1009 C1013 1.408 . S
C1010 C1008 1.363 . S
C1010 C1011 1.370 . S
C1010 C1014 1.524 . S
C1011 C1003 1.503 . S
C1011 C1010 1.370 . S
C1011 C1012 1.403 . S
C1012 C1011 1.403 . S
C1012 C1013 1.404 . S
C1012 C1015 1.539 . S
C1013 C1009 1.408 . S
C1013 C1012 1.404 . S
C1013 H1025 0.930 . S
C1014 C1010 1.524 . S
C1014 H1026 0.956 . S
C1014 H1027 0.961 . S
C1014 H1028 0.961 . S
C1015 C1012 1.539 . S
C1015 H1029 0.958 . S
C1015 H1030 0.961 . S
C1015 H1031 0.960 . S
H1016 C1000 0.931 1_545 S
H1017 C1005 0.929 . S
H1018 C1006 0.960 1_565 S
H1019 C1006 0.962 . S
H1020 C1006 0.960 . S
H1021 C1007 0.961 . S
H1022 C1007 0.961 . S
H1023 C1007 0.961 . S
H1024 C1008 0.931 . S
H1025 C1013 0.930 . S
H1026 C1014 0.956 . S
H1027 C1014 0.961 . S
H1028 C1014 0.961 . S
H1029 C1015 0.958 . S
H1030 C1015 0.961 . S
H1031 C1015 0.960 . S
C1032 C1033 1.391 . S
C1032 C1034 1.394 . S
C1032 H1048 0.931 . S
C1033 C1032 1.391 . S
C1033 C1037 1.376 . S
C1034 C1032 1.394 . S
C1034 C1035 1.369 . S
C1034 C1038 1.531 . S
C1035 C1034 1.369 . S
C1035 C1036 1.410 . S
C1035 C1043 1.503 . S
C1036 C1035 1.410 . S
C1036 C1037 1.392 . S
C1036 C1039 1.511 . S
C1037 C1033 1.376 . S
C1037 C1036 1.392 . S
C1037 H1049 0.929 1_545 S
C1038 C1034 1.531 . S
C1038 H1050 0.960 . S
C1038 H1051 0.962 . S
C1038 H1052 0.960 . S
C1039 C1036 1.511 . S
C1039 H1053 0.961 1_545 S
C1039 H1054 0.961 . S
C1039 H1055 0.961 1_545 S
C1040 C1041 1.370 . S
C1040 C1042 1.363 . S
C1040 H1056 0.931 . S
C1041 C1040 1.370 . S
C1041 C1045 1.408 . S
C1042 C1040 1.363 . S
C1042 C1043 1.370 . S
C1042 C1046 1.524 . S
C1043 C1035 1.503 . S
C1043 C1042 1.370 . S
C1043 C1044 1.403 . S
C1044 C1043 1.403 . S
C1044 C1045 1.404 . S
C1044 C1047 1.539 . S
C1045 C1041 1.408 . S
C1045 C1044 1.404 . S
C1045 H1057 0.930 . S
C1046 C1042 1.524 . S
C1046 H1058 0.956 . S
C1046 H1059 0.961 . S
C1046 H1060 0.961 . S
C1047 C1044 1.539 . S
C1047 H1061 0.958 . S
C1047 H1062 0.961 . S
C1047 H1063 0.960 . S
H1048 C1032 0.931 . S
H1049 C1037 0.929 1_565 S
H1050 C1038 0.960 . S
H1051 C1038 0.962 . S
H1052 C1038 0.960 . S
H1053 C1039 0.961 1_565 S
H1054 C1039 0.961 . S
H1055 C1039 0.961 1_565 S
H1056 C1040 0.931 . S
H1057 C1045 0.930 . S
H1058 C1046 0.956 . S
H1059 C1046 0.961 . S
H1060 C1046 0.961 . S
H1061 C1047 0.958 . S
H1062 C1047 0.961 . S
H1063 C1047 0.960 . S
C1064 C1065 1.391 . S
C1064 C1066 1.394 . S
C1064 H1080 0.931 . S
C1065 C1064 1.391 . S
C1065 C1069 1.376 . S
C1066 C1064 1.394 . S
C1066 C1067 1.369 . S
C1066 C1070 1.531 . S
C1067 C1066 1.369 . S
C1067 C1068 1.410 . S
C1067 C1075 1.503 . S
C1068 C1067 1.410 . S
C1068 C1069 1.392 . S
C1068 C1071 1.511 . S
C1069 C1065 1.376 . S
C1069 C1068 1.392 . S
C1069 H1081 0.929 . S
C1070 C1066 1.531 . S
C1070 H1082 0.960 . S
C1070 H1083 0.962 . S
C1070 H1084 0.960 . S
C1071 C1068 1.511 . S
C1071 H1085 0.961 . S
C1071 H1086 0.961 . S
C1071 H1087 0.961 . S
C1072 C1073 1.370 . S
C1072 C1074 1.363 . S
C1072 H1088 0.931 . S
C1073 C1072 1.370 . S
C1073 C1077 1.408 . S
C1074 C1072 1.363 . S
C1074 C1075 1.370 . S
C1074 C1078 1.524 . S
C1075 C1067 1.503 . S
C1075 C1074 1.370 . S
C1075 C1076 1.403 . S
C1076 C1075 1.403 . S
C1076 C1077 1.404 . S
C1076 C1079 1.539 . S
C1077 C1073 1.408 . S
C1077 C1076 1.404 . S
C1077 H1089 0.930 . S
C1078 C1074 1.524 . S
C1078 H1090 0.956 . S
C1078 H1091 0.961 . S
C1078 H1092 0.961 . S
C1079 C1076 1.539 . S
C1079 H1093 0.958 . S
C1079 H1094 0.961 . S
C1079 H1095 0.960 . S
H1080 C1064 0.931 . S
H1081 C1069 0.929 . S
H1082 C1070 0.960 . S
H1083 C1070 0.962 . S
H1084 C1070 0.960 . S
H1085 C1071 0.961 . S
H1086 C1071 0.961 . S
H1087 C1071 0.961 . S
H1088 C1072 0.931 . S
H1089 C1077 0.930 . S
H1090 C1078 0.956 . S
H1091 C1078 0.961 . S
H1092 C1078 0.961 . S
H1093 C1079 0.958 . S
H1094 C1079 0.961 . S
H1095 C1079 0.960 . S
C1096 C1097 1.391 . S
C1096 C1098 1.394 . S
C1096 H1112 0.931 . S
C1097 C1096 1.391 . S
C1097 C1101 1.376 . S
C1098 C1096 1.394 . S
C1098 C1099 1.369 . S
C1098 C1102 1.531 . S
C1099 C1098 1.369 . S
C1099 C1100 1.410 . S
C1099 C1107 1.503 . S
C1100 C1099 1.410 . S
C1100 C1101 1.392 . S
C1100 C1103 1.511 . S
C1101 C1097 1.376 . S
C1101 C1100 1.392 . S
C1101 H1113 0.929 . S
C1102 C1098 1.531 . S
C1102 H1114 0.960 . S
C1102 H1115 0.962 . S
C1102 H1116 0.960 . S
C1103 C1100 1.511 . S
C1103 H1117 0.961 . S
C1103 H1118 0.961 . S
C1103 H1119 0.961 . S
C1104 C1105 1.370 . S
C1104 C1106 1.363 . S
C1104 H1120 0.931 . S
C1105 C1104 1.370 . S
C1105 C1109 1.408 . S
C1106 C1104 1.363 . S
C1106 C1107 1.370 . S
C1106 C1110 1.524 . S
C1107 C1099 1.503 . S
C1107 C1106 1.370 . S
C1107 C1108 1.403 . S
C1108 C1107 1.403 . S
C1108 C1109 1.404 . S
C1108 C1111 1.539 . S
C1109 C1105 1.408 . S
C1109 C1108 1.404 . S
C1109 H1121 0.930 . S
C1110 C1106 1.524 . S
C1110 H1122 0.956 . S
C1110 H1123 0.961 . S
C1110 H1124 0.961 . S
C1111 C1108 1.539 . S
C1111 H1125 0.958 . S
C1111 H1126 0.961 . S
C1111 H1127 0.960 . S
H1112 C1096 0.931 . S
H1113 C1101 0.929 . S
H1114 C1102 0.960 . S
H1115 C1102 0.962 . S
H1116 C1102 0.960 . S
H1117 C1103 0.961 . S
H1118 C1103 0.961 . S
H1119 C1103 0.961 . S
H1120 C1104 0.931 . S
H1121 C1109 0.930 . S
H1122 C1110 0.956 . S
H1123 C1110 0.961 . S
H1124 C1110 0.961 . S
H1125 C1111 0.958 . S
H1126 C1111 0.961 . S
H1127 C1111 0.960 . S
C1128 C1129 1.391 . S
C1128 C1130 1.394 . S
C1128 H1144 0.931 . S
C1129 C1128 1.391 . S
C1129 C1133 1.376 . S
C1130 C1128 1.394 . S
C1130 C1131 1.369 . S
C1130 C1134 1.531 . S
C1131 C1130 1.369 . S
C1131 C1132 1.410 . S
C1131 C1139 1.503 . S
C1132 C1131 1.410 . S
C1132 C1133 1.392 . S
C1132 C1135 1.511 . S
C1133 C1129 1.376 . S
C1133 C1132 1.392 . S
C1133 H1145 0.929 . S
C1134 C1130 1.531 . S
C1134 H1146 0.960 . S
C1134 H1147 0.962 . S
C1134 H1148 0.960 . S
C1135 C1132 1.511 . S
C1135 H1149 0.961 . S
C1135 H1150 0.961 . S
C1135 H1151 0.961 . S
C1136 C1137 1.370 . S
C1136 C1138 1.363 . S
C1136 H1152 0.931 . S
C1137 C1136 1.370 . S
C1137 C1141 1.408 . S
C1138 C1136 1.363 . S
C1138 C1139 1.370 . S
C1138 C1142 1.524 . S
C1139 C1131 1.503 . S
C1139 C1138 1.370 . S
C1139 C1140 1.403 . S
C1140 C1139 1.403 . S
C1140 C1141 1.404 . S
C1140 C1143 1.539 . S
C1141 C1137 1.408 . S
C1141 C1140 1.404 . S
C1141 H1153 0.930 . S
C1142 C1138 1.524 . S
C1142 H1154 0.956 . S
C1142 H1155 0.961 . S
C1142 H1156 0.961 . S
C1143 C1140 1.539 . S
C1143 H1157 0.958 . S
C1143 H1158 0.961 . S
C1143 H1159 0.960 . S
H1144 C1128 0.931 . S
H1145 C1133 0.929 . S
H1146 C1134 0.960 . S
H1147 C1134 0.962 . S
H1148 C1134 0.960 . S
H1149 C1135 0.961 . S
H1150 C1135 0.961 . S
H1151 C1135 0.961 . S
H1152 C1136 0.931 . S
H1153 C1141 0.930 . S
H1154 C1142 0.956 . S
H1155 C1142 0.961 . S
H1156 C1142 0.961 . S
H1157 C1143 0.958 . S
H1158 C1143 0.961 . S
H1159 C1143 0.960 . S
C1160 C1161 1.391 . S
C1160 C1162 1.394 . S
C1160 H1176 0.931 . S
C1161 C1160 1.391 . S
C1161 C1165 1.376 . S
C1162 C1160 1.394 . S
C1162 C1163 1.369 . S
C1162 C1166 1.531 . S
C1163 C1162 1.369 . S
C1163 C1164 1.410 . S
C1163 C1171 1.503 1_565 S
C1164 C1163 1.410 . S
C1164 C1165 1.392 . S
C1164 C1167 1.511 . S
C1165 C1161 1.376 . S
C1165 C1164 1.392 . S
C1165 H1177 0.929 . S
C1166 C1162 1.531 . S
C1166 H1178 0.960 . S
C1166 H1179 0.962 1_565 S
C1166 H1180 0.960 . S
C1167 C1164 1.511 . S
C1167 H1181 0.961 . S
C1167 H1182 0.961 . S
C1167 H1183 0.961 . S
C1168 C1169 1.370 . S
C1168 C1170 1.363 . S
C1168 H1184 0.931 . S
C1169 C1168 1.370 . S
C1169 C1173 1.408 . S
C1170 C1168 1.363 . S
C1170 C1171 1.370 . S
C1170 C1174 1.524 . S
C1171 C1163 1.503 1_545 S
C1171 C1170 1.370 . S
C1171 C1172 1.403 . S
C1172 C1171 1.403 . S
C1172 C1173 1.404 . S
C1172 C1175 1.539 1_545 S
C1173 C1169 1.408 . S
C1173 C1172 1.404 . S
C1173 H1185 0.930 . S
C1174 C1170 1.524 . S
C1174 H1186 0.956 . S
C1174 H1187 0.961 . S
C1174 H1188 0.961 . S
C1175 C1172 1.539 1_565 S
C1175 H1189 0.958 . S
C1175 H1190 0.961 . S
C1175 H1191 0.960 . S
H1176 C1160 0.931 . S
H1177 C1165 0.929 . S
H1178 C1166 0.960 . S
H1179 C1166 0.962 1_545 S
H1180 C1166 0.960 . S
H1181 C1167 0.961 . S
H1182 C1167 0.961 . S
H1183 C1167 0.961 . S
H1184 C1168 0.931 . S
H1185 C1173 0.930 . S
H1186 C1174 0.956 . S
H1187 C1174 0.961 . S
H1188 C1174 0.961 . S
H1189 C1175 0.958 . S
H1190 C1175 0.961 . S
H1191 C1175 0.960 . S
C1192 C1193 1.391 . S
C1192 C1194 1.394 . S
C1192 H1208 0.931 . S
C1193 C1192 1.391 . S
C1193 C1197 1.376 . S
C1194 C1192 1.394 . S
C1194 C1195 1.369 . S
C1194 C1198 1.531 . S
C1195 C1194 1.369 . S
C1195 C1196 1.410 1_655 S
C1195 C1203 1.503 1_655 S
C1196 C1195 1.410 1_455 S
C1196 C1197 1.392 1_455 S
C1196 C1199 1.511 . S
C1197 C1193 1.376 . S
C1197 C1196 1.392 1_655 S
C1197 H1209 0.929 . S
C1198 C1194 1.531 . S
C1198 H1210 0.960 . S
C1198 H1211 0.962 . S
C1198 H1212 0.960 . S
C1199 C1196 1.511 . S
C1199 H1213 0.961 . S
C1199 H1214 0.961 . S
C1199 H1215 0.961 . S
C1200 C1201 1.370 . S
C1200 C1202 1.363 . S
C1200 H1216 0.931 . S
C1201 C1200 1.370 . S
C1201 C1205 1.408 . S
C1202 C1200 1.363 . S
C1202 C1203 1.370 . S
C1202 C1206 1.524 1_455 S
C1203 C1195 1.503 1_455 S
C1203 C1202 1.370 . S
C1203 C1204 1.403 . S
C1204 C1203 1.403 . S
C1204 C1205 1.404 . S
C1204 C1207 1.539 . S
C1205 C1201 1.408 . S
C1205 C1204 1.404 . S
C1205 H1217 0.930 . S
C1206 C1202 1.524 1_655 S
C1206 H1218 0.956 . S
C1206 H1219 0.961 . S
C1206 H1220 0.948 1_655 S
C1207 C1204 1.539 . S
C1207 H1221 0.958 . S
C1207 H1222 0.961 . S
C1207 H1223 0.960 . S
H1208 C1192 0.931 . S
H1209 C1197 0.929 . S
H1210 C1198 0.960 . S
H1211 C1198 0.962 . S
H1212 C1198 0.960 . S
H1213 C1199 0.961 . S
H1214 C1199 0.961 . S
H1215 C1199 0.961 . S
H1216 C1200 0.931 . S
H1217 C1205 0.930 . S
H1218 C1206 0.956 . S
H1219 C1206 0.961 . S
H1220 C1206 0.948 1_455 S
H1221 C1207 0.958 . S
H1222 C1207 0.961 . S
H1223 C1207 0.960 . S
C361 C55 1.583 . S
C369 C19 1.602 . S
C393 C95 1.556 . S
C401 C59 1.609 . S
C425 C99 1.589 . S
C433 C15 1.577 . S
C457 C85 1.384 . S
C465 C49 1.350 . S
C489 C89 1.327 . S
C497 C5 1.389 . S
C521 C9 1.347 . S
C529 C45 1.384 . S
C553 C139 1.605 . S
C561 C175 1.567 1_655 S
C585 C215 1.554 . S
C593 C179 1.610 . S
C617 C219 1.608 . S
C625 C135 1.569 1_545 S
C649 C169 1.324 . S
C657 C205 1.388 . S
C681 C209 1.372 . S
C689 C125 1.376 . S
C713 C165 1.358 . S
C721 C129 1.363 . S
C745 C295 1.553 . S
C753 C259 1.607 . S
C777 C299 1.593 . S
C785 C335 1.575 . S
C809 C339 1.617 . S
C817 C255 1.563 . S
C841 C325 1.398 . S
C849 C289 1.340 . S
C873 C329 1.319 . S
C881 C245 1.389 . S
C905 C249 1.364 . S
C913 C285 1.377 . S
C937 C218 2.548 . S
C945 C8 2.186 . S
C969 C138 2.539 . S
C977 C48 2.205 . S
C1001 C88 2.157 1_565 S
C1009 C178 2.553 . S
C1033 C98 2.550 . S
C1041 C248 2.177 . S
C1065 C18 2.539 . S
C1073 C288 2.204 . S
C1097 C328 2.146 . S
C1105 C58 2.553 . S
C1129 C128 2.188 . S
C1137 C338 2.549 . S
C1161 C168 2.219 . S
C1169 C258 2.548 . S
C1193 C298 2.542 . S
C1201 C208 2.192 . S
