# Generated by pormake.
# Topology sma, (6)-cn, num edge types: 1
# Building blocks:
#     Node 0, Type 0, BuildingBlock: NUHQIS_clean_sbu_0, # of connection points: 6
#     Node 1, Type 0, BuildingBlock: NUHQIS_clean_sbu_0, # of connection points: 6
#     Node 2, Type 0, BuildingBlock: NUHQIS_clean_sbu_0, # of connection points: 6
#     Edge 3, Type (0, 0), BuildingBlock: TEMPAE_clean_linker_10, # of connection points: 2
#     Edge 4, Type (0, 0), BuildingBlock: TEMPAE_clean_linker_10, # of connection points: 2
#     Edge 5, Type (0, 0), BuildingBlock: TEMPAE_clean_linker_10, # of connection points: 2
#     Edge 6, Type (0, 0), BuildingBlock: TEMPAE_clean_linker_10, # of connection points: 2
#     Edge 7, Type (0, 0), BuildingBlock: TEMPAE_clean_linker_10, # of connection points: 2
#     Edge 8, Type (0, 0), BuildingBlock: TEMPAE_clean_linker_10, # of connection points: 2
#     Edge 9, Type (0, 0), BuildingBlock: TEMPAE_clean_linker_10, # of connection points: 2
#     Edge 10, Type (0, 0), BuildingBlock: TEMPAE_clean_linker_10, # of connection points: 2
#     Edge 11, Type (0, 0), BuildingBlock: TEMPAE_clean_linker_10, # of connection points: 2
# Relax obj value: 0.071
# Max RMSD: 0.179
# Mean RMSD: 0.175
data_MOF--net-sma--node1-NUHQIS_clean_sbu_0--edge1-TEMPAE_clean_linker_10
_symmetry_space_group_name_H-M    P1
_symmetry_Int_Tables_number       1
_symmetry_cell_setting            triclinic
loop_
_symmetry_equiv_pos_as_xyz
'x, y, z'
_cell_length_a     40.20827
_cell_length_b     40.220269
_cell_length_c     14.298541
_cell_angle_alpha  91.764591
_cell_angle_beta   93.039322
_cell_angle_gamma 120.03113
loop_
_atom_site_label
_atom_site_type_symbol
_atom_site_fract_x
_atom_site_fract_y
_atom_site_fract_z
_atom_type_partial_charge
Tb0 Tb 0.08903 0.51717 0.17925 0.0
Eu1 Eu 1.03406 0.5588 0.15145 0.0
C2 C 0.07865 0.56291 0.34318 0.0
C3 C 0.99909 0.47116 0.20774 0.0
C4 C 0.1684 0.49566 0.15318 0.0
C5 C 0.20479 0.48338 0.03965 0.0
C6 C 0.16954 0.47553 0.07241 0.0
C7 C 0.20344 0.52362 0.20101 0.0
C8 C 0.2387 0.53131 0.16852 0.0
C9 C 0.2398 0.5113 0.08741 0.0
C10 C 0.13075 0.48673 0.18768 0.0
O11 O 0.09034 0.53595 0.04021 0.0
O12 O 1.02802 0.51975 0.03057 0.0
O13 O 0.095 0.60515 0.12999 0.0
O14 O 0.13132 0.57839 0.18407 0.0
C15 C 0.05955 0.52968 -0.01003 0.0
O16 O 1.01349 0.58733 0.05724 0.0
O17 O 0.99372 0.57616 0.19787 0.0
O18 O 0.06935 0.58255 0.28704 0.0
O19 O 0.07615 0.53017 0.31561 0.0
O20 O 1.02901 0.47053 0.17587 0.0
O21 O 0.99765 0.50304 0.21734 0.0
C22 C 0.1283 0.60779 0.15596 0.0
O23 O 0.13119 0.51007 0.25399 0.0
O24 O 0.10218 0.47645 0.12407 0.0
C25 C 0.95204 0.5805 0.08054 0.0
C26 C 0.88031 0.57033 0.00956 0.0
C27 C 0.89947 0.55561 -0.04226 0.0
C28 C 0.93501 0.5606 -0.00706 0.0
C29 C 0.93275 0.59475 0.13263 0.0
C30 C 0.89731 0.58972 0.09771 0.0
C31 C 0.9908 0.58913 0.11694 0.0
H32 H 0.20462 0.46705 -0.02222 0.0
H33 H 0.14312 0.4535 0.0346 0.0
H34 H 0.20374 0.53959 0.26373 0.0
H35 H 0.26516 0.55317 0.20653 0.0
H36 H 0.88697 0.54019 0.89008 0.0
H37 H 0.9493 0.54932 0.95119 0.0
H38 H 0.94551 0.61051 0.19989 0.0
H39 H 0.88369 0.60193 0.1389 0.0
Tb40 Tb 0.61821 0.08162 0.50702 0.0
Eu41 Eu 0.52124 1.02837 0.46405 0.0
C42 C 0.56296 0.06866 0.66163 0.0
C43 C 0.57243 0.99051 0.52067 0.0
C44 C 0.72102 0.15757 0.49708 0.0
C45 C 0.78863 0.20677 0.49981 0.0
C46 C 0.75944 0.1725 0.53152 0.0
C47 C 0.71201 0.17755 0.431 0.0
C48 C 0.74122 0.21181 0.39899 0.0
C49 C 0.77996 0.22679 0.43274 0.0
C50 C 0.69092 0.12066 0.52847 0.0
O51 O 0.60169 0.08906 0.36803 0.0
O52 O 0.55446 1.0272 0.34626 0.0
O53 O 0.53628 0.09012 0.45032 0.0
O54 O 0.59981 0.12434 0.51405 0.0
C55 C 0.57635 0.06027 0.31226 0.0
O56 O 0.47213 1.00778 0.35963 0.0
O57 O 0.46323 0.98894 0.50177 0.0
O58 O 0.5336 0.06052 0.60223 0.0
O59 O 0.59205 0.06472 0.63814 0.0
O60 O 0.60313 1.02106 0.49372 0.0
O61 O 0.53976 0.98981 0.52962 0.0
C62 C 0.56726 0.12249 0.48349 0.0
O63 O 0.66832 0.1225 0.58812 0.0
O64 O 0.67166 0.09333 0.46249 0.0
C65 C 0.41955 0.94513 0.37857 0.0
C66 C 0.36127 0.87023 0.31209 0.0
C67 C 0.36626 0.90252 0.26555 0.0
C68 C 0.39501 0.93959 0.29876 0.0
C69 C 0.41542 0.91279 0.42346 0.0
C70 C 0.38648 0.87574 0.3907 0.0
C71 C 0.4476 0.98474 0.41651 0.0
H72 H 0.81814 0.21717 0.52647 0.0
H73 H 0.76695 0.15739 0.58225 0.0
H74 H 0.68243 0.16647 0.40373 0.0
H75 H 0.73345 0.2267 0.34823 0.0
H76 H 0.3471 0.89923 0.20533 0.0
H77 H 0.39754 0.96407 0.26319 0.0
H78 H 0.43406 0.91608 0.48482 0.0
H79 H 0.38362 0.85137 0.42731 0.0
Tb80 Tb 0.5765 0.59493 0.82419 0.0
Eu81 Eu 0.53401 0.49748 0.82931 0.0
C82 C 0.578 0.55624 0.00747 0.0
C83 C 0.62682 0.55247 0.82215 0.0
C84 C 0.59487 0.69389 0.76201 0.0
C85 C 0.57017 0.73773 0.78367 0.0
C86 C 0.57501 0.70757 0.81438 0.0
C87 C 0.60893 0.71045 0.67729 0.0
C88 C 0.60402 0.74053 0.64652 0.0
C89 C 0.58516 0.75501 0.70012 0.0
C90 C 0.60491 0.66571 0.79923 0.0
O91 O 0.54091 0.56196 0.70109 0.0
O92 O 0.55689 0.51615 0.69123 0.0
O93 O 0.48714 0.51274 0.82595 0.0
O94 O 0.52121 0.57652 0.88217 0.0
C95 C 0.55318 0.543 0.65238 0.0
O96 O 0.49231 0.44086 0.76393 0.0
O97 O 0.52511 0.44556 0.8943 0.0
O98 O 0.54646 0.52447 -0.02467 0.0
O99 O 0.59754 0.585 0.95536 0.0
O100 O 0.62386 0.58332 0.80829 0.0
O101 O 0.59735 0.51858 0.83694 0.0
C102 C 0.48859 0.54366 0.86452 0.0
O103 O 0.59067 0.65012 0.87701 0.0
O104 O 0.60538 0.64098 0.73862 0.0
C105 C 0.51025 0.3939 0.78546 0.0
C106 C 0.52646 0.33825 0.71024 0.0
C107 C 0.54952 0.37733 0.69277 0.0
C108 C 0.54153 0.40493 0.73024 0.0
C109 C 0.4872 0.35508 0.80312 0.0
C110 C 0.49521 0.32749 0.76594 0.0
C111 C 0.50147 0.42261 0.82484 0.0
H112 H 0.55503 0.74782 0.82602 0.0
H113 H 0.564 0.69568 0.88029 0.0
H114 H 0.62484 0.70095 0.63606 0.0
H115 H 0.61631 0.7534 0.58244 0.0
H116 H 0.57404 0.38665 0.65112 0.0
H117 H 0.55976 0.43487 0.71625 0.0
H118 H 0.46292 0.34608 0.84549 0.0
H119 H 0.4766 0.29763 0.77981 0.0
C120 C 0.28325 0.52205 -0.04234 0.0
C121 C 0.27726 0.51892 0.05357 0.0
C122 C 0.31799 0.52798 0.92446 0.0
C123 C 0.34739 0.53051 -0.01145 0.0
C124 C 0.34171 0.52788 0.0856 0.0
C125 C 0.30682 0.52227 0.11693 0.0
C126 C 0.32303 0.53103 0.82061 0.0
C127 C 0.37215 0.53005 0.15618 0.0
C128 C 0.41911 0.50442 0.89706 0.0
C129 C 0.45214 0.54068 0.8925 0.0
C130 C 0.38492 0.50078 0.92786 0.0
C131 C 0.38339 0.53422 0.95378 0.0
C132 C 0.41637 0.57097 0.94777 0.0
C133 C 0.45041 0.57376 0.91783 0.0
C134 C 0.35058 0.46105 0.93415 0.0
C135 C 0.41576 0.60732 -0.02634 0.0
H136 H 0.26075 0.52 0.90844 0.0
H137 H 0.30226 0.51947 0.19099 0.0
H138 H 0.34964 0.55817 0.80819 0.0
H139 H 0.32636 0.50693 0.7925 0.0
H140 H 0.2982 0.5303 0.78058 0.0
H141 H 0.36381 0.52875 0.2294 0.0
H142 H 0.37731 0.50588 0.14065 0.0
H143 H 0.3998 0.55715 0.15098 0.0
H144 H 0.42013 0.47864 0.87838 0.0
H145 H 0.47569 0.60192 0.91427 0.0
H146 H 0.32545 0.45788 0.89025 0.0
H147 H 0.34241 0.45687 0.00759 0.0
H148 H 0.35637 0.43793 0.91092 0.0
H149 H 0.392 0.60779 0.93168 0.0
H150 H 0.44332 0.63368 -0.03802 0.0
H151 H 0.41017 0.60807 0.04862 0.0
C152 C 0.8115 0.26942 0.30162 0.0
C153 C 0.81131 0.26284 0.39752 0.0
C154 C 0.84136 0.30287 0.26729 0.0
C155 C 0.87182 0.33053 0.33028 0.0
C156 C 0.87169 0.32418 0.4272 0.0
C157 C 0.8415 0.29048 0.45956 0.0
C158 C 0.84044 0.30848 0.16346 0.0
C159 C 0.90348 0.35302 0.49682 0.0
C160 C 0.96796 0.40086 0.23753 0.0
C161 C 0.96587 0.43465 0.23499 0.0
C162 C 0.93745 0.36671 0.26738 0.0
C163 C 0.90387 0.36616 0.29507 0.0
C164 C 0.90129 0.39994 0.29116 0.0
C165 C 0.93227 0.43372 0.26144 0.0
C166 C 0.9414 0.33135 0.27075 0.0
C167 C 0.86594 0.40055 0.31956 0.0
H168 H 0.78859 0.24802 0.25295 0.0
H169 H 0.84136 0.28593 0.53389 0.0
H170 H 0.84085 0.3358 0.15149 0.0
H171 H 0.86651 0.31075 0.1345 0.0
H172 H 0.81454 0.28449 0.12388 0.0
H173 H 0.8992 0.34381 0.56978 0.0
H174 H 0.93168 0.35729 0.47765 0.0
H175 H 0.90502 0.38131 0.49481 0.0
H176 H 0.99374 0.40117 0.21758 0.0
H177 H 0.93017 0.45952 0.25956 0.0
H178 H 0.91711 0.30698 0.22796 0.0
H179 H 0.94006 0.32265 0.34397 0.0
H180 H 0.9689 0.33616 0.24457 0.0
H181 H 0.83991 0.37785 0.27768 0.0
H182 H 0.86793 0.42877 0.30987 0.0
H183 H 0.86186 0.39418 0.3944 0.0
C184 C 0.6091 0.95519 0.5394 0.0
C185 C 0.57436 0.95545 0.54151 0.0
C186 C 0.61125 0.92249 0.56222 0.0
C187 C 0.5779 0.8892 0.58769 0.0
C188 C 0.54266 0.88908 0.58855 0.0
C189 C 0.54132 0.92211 0.56557 0.0
C190 C 0.64937 0.92374 0.56034 0.0
C191 C 0.5064 0.8542 0.61506 0.0
C192 C 0.57428 0.79261 0.57656 0.0
C193 C 0.58266 0.78906 0.67106 0.0
C194 C 0.57282 0.82507 0.54829 0.0
C195 C 0.57998 0.85482 0.61604 0.0
C196 C 0.58847 0.85142 0.71147 0.0
C197 C 0.5897 0.81866 0.73777 0.0
C198 C 0.56344 0.82747 0.44595 0.0
C199 C 0.59638 0.8825 0.78591 0.0
H200 H 0.63479 0.98069 0.52093 0.0
H201 H 0.51424 0.92178 0.56718 0.0
H202 H 0.65867 0.91977 0.63153 0.0
H203 H 0.64625 0.89979 0.51302 0.0
H204 H 0.67235 0.95135 0.5364 0.0
H205 H 0.48101 0.85826 0.60925 0.0
H206 H 0.50005 0.82861 0.56926 0.0
H207 H 0.51058 0.84788 0.68833 0.0
H208 H 0.56844 0.76975 0.52467 0.0
H209 H 0.59686 0.81653 0.81065 0.0
H210 H 0.58702 0.85396 0.41934 0.0
H211 H 0.53685 0.82935 0.43762 0.0
H212 H 0.55915 0.80221 0.40181 0.0
H213 H 0.62118 0.91028 0.76874 0.0
H214 H 0.6028 0.87564 0.85691 0.0
H215 H 0.57109 0.88658 0.78778 0.0
C216 C 0.66923 0.52363 0.81663 0.0
C217 C 0.66553 0.55636 0.82886 0.0
C218 C 0.70482 0.52563 0.8358 0.0
C219 C 0.73744 0.56112 0.86923 0.0
C220 C 0.7343 0.59464 0.87739 0.0
C221 C 0.69842 0.5919 0.85649 0.0
C222 C 0.70702 0.48934 0.82457 0.0
C223 C 0.76834 0.63298 0.91327 0.0
C224 C 0.81349 0.55758 0.0312 0.0
C225 C 0.8431 0.56629 -0.02818 0.0
C226 C 0.77902 0.55568 -0.00157 0.0
C227 C 0.77379 0.56245 0.90362 0.0
C228 C 0.80322 0.57058 0.8427 0.0
C229 C 0.83754 0.57243 0.87753 0.0
C230 C 0.74829 0.54672 0.06566 0.0
C231 C 0.79865 0.57781 0.74114 0.0
H232 H 0.64401 0.49611 0.79427 0.0
H233 H 0.69576 0.61727 0.86654 0.0
H234 H 0.73178 0.49447 0.78414 0.0
H235 H 0.71175 0.48066 0.89467 0.0
H236 H 0.68027 0.46511 0.78842 0.0
H237 H 0.77628 0.63169 -0.01195 0.0
H238 H 0.79372 0.63964 0.87373 0.0
H239 H 0.76211 0.65685 0.9077 0.0
H240 H 0.81726 0.55217 0.10369 0.0
H241 H 0.8604 0.5796 0.83139 0.0
H242 H 0.72113 0.52042 0.03909 0.0
H243 H 0.74209 0.57065 0.07069 0.0
H244 H 0.75685 0.54221 0.13719 0.0
H245 H 0.77207 0.55313 0.70596 0.0
H246 H 0.8236 0.58237 0.70206 0.0
H247 H 0.7955 0.60361 0.73676 0.0
C248 C 0.30552 0.80689 0.34802 0.0
C249 C 0.32873 0.83114 0.28153 0.0
C250 C 0.27368 0.77052 0.32058 0.0
C251 C 0.26495 0.75786 0.22424 0.0
C252 C 0.28858 0.78196 0.15678 0.0
C253 C 0.32007 0.81844 0.18619 0.0
C254 C 0.24898 0.74589 0.39469 0.0
C255 C 0.28049 0.76929 0.05361 0.0
C256 C 0.2002 0.64975 0.17706 0.0
C257 C 0.16378 0.64623 0.16112 0.0
C258 C 0.23364 0.68602 0.19339 0.0
C259 C 0.23062 0.71962 0.19475 0.0
C260 C 0.19419 0.71636 0.17474 0.0
C261 C 0.16126 0.67974 0.15767 0.0
C262 C 0.27202 0.68827 0.21297 0.0
C263 C 0.18968 0.75145 0.17592 0.0
H264 H 0.31173 0.81677 0.42163 0.0
H265 H 0.33812 0.83696 0.13461 0.0
H266 H 0.21897 0.73979 0.38074 0.0
H267 H 0.24803 0.71783 0.39215 0.0
H268 H 0.25979 0.75986 0.4666 0.0
H269 H 0.30222 0.79096 0.01034 0.0
H270 H 0.28014 0.7417 0.04209 0.0
H271 H 0.25159 0.76409 0.02858 0.0
H272 H 0.20256 0.62408 0.17901 0.0
H273 H 0.13332 0.67742 0.14548 0.0
H274 H 0.28277 0.69862 0.28721 0.0
H275 H 0.29364 0.70924 0.16842 0.0
H276 H 0.27006 0.65993 0.20021 0.0
H277 H 0.19675 0.7652 0.24823 0.0
H278 H 0.15994 0.7443 0.15224 0.0
H279 H 0.21005 0.77298 0.13018 0.0
C280 C 0.54444 0.30933 0.57748 0.0
C281 C 0.5348 0.30872 0.67061 0.0
C282 C 0.55134 0.28098 0.53873 0.0
C283 C 0.5486 0.25133 0.59444 0.0
C284 C 0.53937 0.25085 0.68883 0.0
C285 C 0.53258 0.2795 0.72567 0.0
C286 C 0.56102 0.28243 0.43782 0.0
C287 C 0.53634 0.21985 0.75082 0.0
C288 C 0.52768 0.15479 0.48511 0.0
C289 C 0.56378 0.15737 0.49813 0.0
C290 C 0.52265 0.1857 0.51284 0.0
C291 C 0.55452 0.2202 0.55409 0.0
C292 C 0.59144 0.22378 0.56267 0.0
C293 C 0.59562 0.19233 0.53478 0.0
C294 C 0.4828 0.1807 0.50234 0.0
C295 C 0.62622 0.2602 0.60542 0.0
H296 H 0.54581 0.33156 0.53415 0.0
H297 H 0.52575 0.27915 0.79808 0.0
H298 H 0.58868 0.28283 0.43347 0.0
H299 H 0.53847 0.25621 0.39651 0.0
H300 H 0.56334 0.30809 0.40485 0.0
H301 H 0.52945 0.22387 0.82304 0.0
H302 H 0.51358 0.19119 0.71992 0.0
H303 H 0.56387 0.21964 0.75527 0.0
H304 H 0.50282 0.12802 0.45688 0.0
H305 H 0.62371 0.19482 0.54473 0.0
H306 H 0.48347 0.20508 0.46657 0.0
H307 H 0.47247 0.18068 0.57281 0.0
H308 H 0.46172 0.15341 0.46197 0.0
H309 H 0.62857 0.28563 0.57141 0.0
H310 H 0.65343 0.25979 0.59885 0.0
H311 H 0.62299 0.2639 0.68099 0.0
C312 C 0.09997 0.58241 0.89204 0.0
C313 C 0.06492 0.54883 0.9031 0.0
C314 C 0.10691 0.59953 0.80675 0.0
C315 C 0.07867 0.58148 0.73116 0.0
C316 C 1.04163 0.55026 0.74525 0.0
C317 C 1.03509 0.53435 0.83228 0.0
C318 C 0.14576 0.63434 0.79538 0.0
C319 C 1.01047 0.53086 0.6659 0.0
C320 C 0.08009 0.6033 0.47986 0.0
C321 C 0.08814 0.57571 0.44229 0.0
C322 C 0.08142 0.60945 0.57689 0.0
C323 C 0.09055 0.5871 0.63541 0.0
C324 C 0.1037 0.56315 0.59779 0.0
C325 C 0.10244 0.55788 0.50098 0.0
C326 C 0.06942 0.63687 0.61544 0.0
C327 C 0.11484 0.53964 0.65878 0.0
H328 H 0.12248 0.59475 0.94896 0.0
H329 H 1.00762 0.50917 0.84296 0.0
H330 H 0.1658 0.6248 0.77274 0.0
H331 H 0.14378 0.6527 0.74158 0.0
H332 H 0.15836 0.65188 0.86291 0.0
H333 H 0.9822 0.51006 0.6913 0.0
H334 H 1.0071 0.55253 0.627 0.0
H335 H 1.01867 0.51506 0.61576 0.0
H336 H 0.07024 0.61817 0.43414 0.0
H337 H 0.11024 0.53778 0.47147 0.0
H338 H 0.08251 0.64851 0.68776 0.0
H339 H 1.03763 0.62149 0.61721 0.0
H340 H 0.07763 0.66123 0.56974 0.0
H341 H 0.13649 0.55825 0.71628 0.0
H342 H 0.12701 0.52475 0.61833 0.0
H343 H 0.0891 0.51753 0.69122 0.0
C344 C 0.57454 0.10631 0.20433 0.0
C345 C 0.56439 0.0684 0.22227 0.0
C346 C 0.56643 0.11499 0.1155 0.0
C347 C 0.54911 0.0852 0.04392 0.0
C348 C 0.53412 0.0463 0.0652 0.0
C349 C 0.54206 0.03835 0.15499 0.0
C350 C 0.58022 0.15641 0.0964 0.0
C351 C 0.51409 1.01352 -0.00938 0.0
C352 C 0.53122 0.08415 0.78637 0.0
C353 C 0.56273 0.08154 0.75782 0.0
C354 C 0.52847 0.09095 0.88111 0.0
C355 C 0.55757 0.09442 0.94689 0.0
C356 C 0.59178 0.09708 0.9169 0.0
C357 C 0.5939 0.09057 0.82206 0.0
C358 C 0.49291 0.09076 0.9106 0.0
C359 C 0.62431 0.1023 -0.01463 0.0
H360 H 0.59001 0.12945 0.2584 0.0
H361 H 0.53296 1.00891 0.17059 0.0
H362 H 0.61098 0.17075 0.08126 0.0
H363 H 0.56349 0.15879 0.03534 0.0
H364 H 0.57809 0.17216 0.15889 0.0
H365 H 0.50022 0.985 0.02126 0.0
H366 H 0.49175 1.01609 0.94803 0.0
H367 H 0.53539 1.01455 0.94274 0.0
H368 H 0.50777 0.07896 0.73587 0.0
H369 H 0.61908 0.09034 0.79931 0.0
H370 H 0.49817 0.10645 -0.02008 0.0
H371 H 0.46949 0.0606 0.91526 0.0
H372 H 0.48265 0.10393 0.85764 0.0
H373 H 0.63332 0.12741 0.03557 0.0
H374 H 0.64994 0.10674 0.94948 0.0
H375 H 0.61446 0.07644 0.02633 0.0
C376 C 0.5634 0.58068 0.5134 0.0
C377 C 0.57433 0.55992 0.57114 0.0
C378 C 0.57922 0.59147 0.4275 0.0
C379 C 0.60646 0.58111 0.40089 0.0
C380 C 0.6224 0.56644 0.46641 0.0
C381 C 0.60549 0.55517 0.55092 0.0
C382 C 0.56228 0.60823 0.35995 0.0
C383 C 0.65336 0.55759 0.44247 0.0
C384 C 0.57032 0.53053 0.16395 0.0
C385 C 0.59067 0.56076 0.10698 0.0
C386 C 0.57784 0.53597 0.2608 0.0
C387 C 0.60671 0.57258 0.30081 0.0
C388 C 0.63022 0.60193 0.24335 0.0
C389 C 0.62184 0.59567 0.14616 0.0
C390 C 0.55252 0.50343 0.32004 0.0
C391 C 0.6628 0.64026 0.28456 0.0
H392 H 0.54032 0.58564 0.53165 0.0
H393 H 0.61545 0.54101 0.59876 0.0
H394 H 0.58497 0.63088 0.32086 0.0
H395 H 0.54129 0.58515 0.30798 0.0
H396 H 0.54699 0.62076 0.39662 0.0
H397 H 0.67098 0.55904 0.50669 0.0
H398 H 0.63975 0.52796 0.40912 0.0
H399 H 0.67256 0.57775 0.39259 0.0
H400 H 0.54712 0.50309 0.13344 0.0
H401 H 0.6386 0.61867 0.10156 0.0
H402 H 0.53518 0.51184 0.36216 0.0
H403 H 0.57045 0.49703 0.36942 0.0
H404 H 0.53239 0.47655 0.27692 0.0
H405 H 0.65215 0.65365 0.33484 0.0
H406 H 0.6772 0.66064 0.22974 0.0
H407 H 0.68456 0.63585 0.32436 0.0
loop_
_geom_bond_atom_site_label_1
_geom_bond_atom_site_label_2
_geom_bond_distance
_geom_bond_site_symmetry_2
_ccdc_geom_bond_type
Tb0 C10 2.825 . S
Tb0 O11 2.347 . S
Tb0 O14 2.366 . S
Tb0 O19 2.418 . S
Tb0 O20 2.384 1_455 S
Tb0 O23 2.479 . S
Tb0 O24 2.471 . S
Eu1 O12 2.418 1_554 S
Eu1 O13 2.384 1_655 S
Eu1 O16 2.479 . S
Eu1 O17 2.471 . S
Eu1 O18 2.347 1_655 S
Eu1 O21 2.366 . S
Eu1 C31 2.825 . S
C2 O18 1.259 . S
C2 O19 1.265 . S
C3 O20 1.255 . S
C3 O21 1.265 . S
C4 C6 1.380 . S
C4 C7 1.374 . S
C4 C10 1.507 . S
C5 C6 1.384 . S
C5 C9 1.387 . S
C5 H32 0.930 . S
C6 C4 1.380 . S
C6 C5 1.384 . S
C6 H33 0.931 . S
C7 C4 1.374 . S
C7 C8 1.390 . S
C7 H34 0.930 . S
C8 C7 1.390 . S
C8 C9 1.391 . S
C8 H35 0.930 1_554 S
C9 C5 1.387 . S
C9 C8 1.391 . S
C10 Tb0 2.825 . S
C10 C4 1.507 . S
C10 O23 1.238 . S
C10 O24 1.247 . S
O11 Tb0 2.347 . S
O11 C15 1.259 1_554 S
O12 Eu1 2.418 1_556 S
O12 C15 1.265 1_655 S
O13 Eu1 2.384 1_455 S
O13 C22 1.255 . S
O14 Tb0 2.366 . S
O14 C22 1.265 . S
C15 O11 1.259 1_556 S
C15 O12 1.265 1_455 S
O16 Eu1 2.479 . S
O16 C31 1.238 . S
O17 Eu1 2.471 . S
O17 C31 1.247 . S
O18 Eu1 2.347 1_455 S
O18 C2 1.259 . S
O19 Tb0 2.418 . S
O19 C2 1.265 . S
O20 Tb0 2.384 1_655 S
O20 C3 1.255 . S
O21 Eu1 2.366 . S
O21 C3 1.265 . S
C22 O13 1.255 . S
C22 O14 1.265 . S
O23 Tb0 2.479 . S
O23 C10 1.238 . S
O24 Tb0 2.471 . S
O24 C10 1.247 . S
C25 C28 1.380 . S
C25 C29 1.374 . S
C25 C31 1.507 . S
C26 C27 1.387 . S
C26 C30 1.391 . S
C27 C26 1.387 . S
C27 C28 1.384 . S
C27 H36 0.930 . S
C28 C25 1.380 . S
C28 C27 1.384 . S
C28 H37 0.931 . S
C29 C25 1.374 . S
C29 C30 1.390 . S
C29 H38 0.930 . S
C30 C26 1.391 . S
C30 C29 1.390 . S
C30 H39 0.930 . S
C31 Eu1 2.825 . S
C31 O16 1.238 . S
C31 O17 1.247 . S
C31 C25 1.507 . S
H32 C5 0.930 . S
H33 C6 0.931 . S
H34 C7 0.930 . S
H35 C8 0.930 1_556 S
H36 C27 0.930 . S
H37 C28 0.931 . S
H38 C29 0.930 . S
H39 C30 0.930 . S
Tb40 C50 2.825 . S
Tb40 O51 2.347 . S
Tb40 O54 2.366 . S
Tb40 O59 2.418 . S
Tb40 O60 2.384 1_545 S
Tb40 O63 2.479 . S
Tb40 O64 2.471 . S
Eu41 O52 2.418 . S
Eu41 O53 2.384 1_565 S
Eu41 O56 2.479 . S
Eu41 O57 2.471 . S
Eu41 O58 2.347 1_565 S
Eu41 O61 2.366 . S
Eu41 C71 2.825 . S
C42 O58 1.259 . S
C42 O59 1.265 . S
C43 O60 1.255 . S
C43 O61 1.265 . S
C44 C46 1.380 . S
C44 C47 1.374 . S
C44 C50 1.507 . S
C45 C46 1.384 . S
C45 C49 1.387 . S
C45 H72 0.930 . S
C46 C44 1.380 . S
C46 C45 1.384 . S
C46 H73 0.931 . S
C47 C44 1.374 . S
C47 C48 1.390 . S
C47 H74 0.930 . S
C48 C47 1.390 . S
C48 C49 1.391 . S
C48 H75 0.930 . S
C49 C45 1.387 . S
C49 C48 1.391 . S
C50 Tb40 2.825 . S
C50 C44 1.507 . S
C50 O63 1.238 . S
C50 O64 1.247 . S
O51 Tb40 2.347 . S
O51 C55 1.259 . S
O52 Eu41 2.418 . S
O52 C55 1.265 1_565 S
O53 Eu41 2.384 1_545 S
O53 C62 1.255 . S
O54 Tb40 2.366 . S
O54 C62 1.265 . S
C55 O51 1.259 . S
C55 O52 1.265 1_545 S
O56 Eu41 2.479 . S
O56 C71 1.238 . S
O57 Eu41 2.471 . S
O57 C71 1.247 . S
O58 Eu41 2.347 1_545 S
O58 C42 1.259 . S
O59 Tb40 2.418 . S
O59 C42 1.265 . S
O60 Tb40 2.384 1_565 S
O60 C43 1.255 . S
O61 Eu41 2.366 . S
O61 C43 1.265 . S
C62 O53 1.255 . S
C62 O54 1.265 . S
O63 Tb40 2.479 . S
O63 C50 1.238 . S
O64 Tb40 2.471 . S
O64 C50 1.247 . S
C65 C68 1.380 . S
C65 C69 1.374 . S
C65 C71 1.507 . S
C66 C67 1.387 . S
C66 C70 1.391 . S
C67 C66 1.387 . S
C67 C68 1.384 . S
C67 H76 0.930 . S
C68 C65 1.380 . S
C68 C67 1.384 . S
C68 H77 0.931 . S
C69 C65 1.374 . S
C69 C70 1.390 . S
C69 H78 0.930 . S
C70 C66 1.391 . S
C70 C69 1.390 . S
C70 H79 0.930 . S
C71 Eu41 2.825 . S
C71 O56 1.238 . S
C71 O57 1.247 . S
C71 C65 1.507 . S
H72 C45 0.930 . S
H73 C46 0.931 . S
H74 C47 0.930 . S
H75 C48 0.930 . S
H76 C67 0.930 . S
H77 C68 0.931 . S
H78 C69 0.930 . S
H79 C70 0.930 . S
Tb80 C90 2.825 . S
Tb80 O91 2.347 . S
Tb80 O94 2.366 . S
Tb80 O99 2.418 1_556 S
Tb80 O100 2.384 . S
Tb80 O103 2.479 . S
Tb80 O104 2.471 . S
Eu81 O92 2.418 . S
Eu81 O93 2.384 . S
Eu81 O96 2.479 . S
Eu81 O97 2.471 . S
Eu81 O98 2.347 . S
Eu81 O101 2.366 . S
Eu81 C111 2.825 . S
C82 O98 1.259 1_554 S
C82 O99 1.265 . S
C83 O100 1.255 . S
C83 O101 1.265 . S
C84 C86 1.380 . S
C84 C87 1.374 . S
C84 C90 1.507 . S
C85 C86 1.384 . S
C85 C89 1.387 . S
C85 H112 0.930 . S
C86 C84 1.380 . S
C86 C85 1.384 . S
C86 H113 0.931 . S
C87 C84 1.374 . S
C87 C88 1.390 . S
C87 H114 0.930 . S
C88 C87 1.390 . S
C88 C89 1.391 . S
C88 H115 0.930 . S
C89 C85 1.387 . S
C89 C88 1.391 . S
C90 Tb80 2.825 . S
C90 C84 1.507 . S
C90 O103 1.238 . S
C90 O104 1.247 . S
O91 Tb80 2.347 . S
O91 C95 1.259 . S
O92 Eu81 2.418 . S
O92 C95 1.265 . S
O93 Eu81 2.384 . S
O93 C102 1.255 . S
O94 Tb80 2.366 . S
O94 C102 1.265 . S
C95 O91 1.259 . S
C95 O92 1.265 . S
O96 Eu81 2.479 . S
O96 C111 1.238 . S
O97 Eu81 2.471 . S
O97 C111 1.247 . S
O98 Eu81 2.347 . S
O98 C82 1.259 1_556 S
O99 Tb80 2.418 1_554 S
O99 C82 1.265 . S
O100 Tb80 2.384 . S
O100 C83 1.255 . S
O101 Eu81 2.366 . S
O101 C83 1.265 . S
C102 O93 1.255 . S
C102 O94 1.265 . S
O103 Tb80 2.479 . S
O103 C90 1.238 . S
O104 Tb80 2.471 . S
O104 C90 1.247 . S
C105 C108 1.380 . S
C105 C109 1.374 . S
C105 C111 1.507 . S
C106 C107 1.387 . S
C106 C110 1.391 . S
C107 C106 1.387 . S
C107 C108 1.384 . S
C107 H116 0.930 . S
C108 C105 1.380 . S
C108 C107 1.384 . S
C108 H117 0.931 . S
C109 C105 1.374 . S
C109 C110 1.390 . S
C109 H118 0.930 . S
C110 C106 1.391 . S
C110 C109 1.390 . S
C110 H119 0.930 1_556 S
C111 Eu81 2.825 . S
C111 O96 1.238 . S
C111 O97 1.247 . S
C111 C105 1.507 . S
H112 C85 0.930 . S
H113 C86 0.931 . S
H114 C87 0.930 . S
H115 C88 0.930 . S
H116 C107 0.930 . S
H117 C108 0.931 . S
H118 C109 0.930 . S
H119 C110 0.930 1_554 S
C120 C121 1.391 . S
C120 C122 1.394 1_554 S
C120 H136 0.931 . S
C121 C120 1.391 . S
C121 C125 1.376 . S
C122 C120 1.394 1_556 S
C122 C123 1.369 . S
C122 C126 1.531 . S
C123 C122 1.369 . S
C123 C124 1.410 1_556 S
C123 C131 1.503 . S
C124 C123 1.410 1_554 S
C124 C125 1.392 . S
C124 C127 1.511 . S
C125 C121 1.376 . S
C125 C124 1.392 . S
C125 H137 0.929 . S
C126 C122 1.531 . S
C126 H138 0.960 . S
C126 H139 0.962 . S
C126 H140 0.960 . S
C127 C124 1.511 . S
C127 H141 0.961 . S
C127 H142 0.961 . S
C127 H143 0.961 1_554 S
C128 C129 1.370 . S
C128 C130 1.363 1_556 S
C128 H144 0.931 1_556 S
C129 C128 1.370 . S
C129 C133 1.408 . S
C130 C128 1.363 1_554 S
C130 C131 1.370 1_554 S
C130 C134 1.524 . S
C131 C123 1.503 . S
C131 C130 1.370 1_556 S
C131 C132 1.403 . S
C132 C131 1.403 . S
C132 C133 1.404 . S
C132 C135 1.539 . S
C133 C129 1.408 . S
C133 C132 1.404 . S
C133 H145 0.930 . S
C134 C130 1.524 . S
C134 H146 0.956 . S
C134 H147 0.961 . S
C134 H148 0.961 . S
C135 C132 1.539 . S
C135 H149 0.958 . S
C135 H150 0.961 . S
C135 H151 0.960 . S
H136 C120 0.931 . S
H137 C125 0.929 . S
H138 C126 0.960 . S
H139 C126 0.962 . S
H140 C126 0.960 . S
H141 C127 0.961 . S
H142 C127 0.961 . S
H143 C127 0.961 1_556 S
H144 C128 0.931 1_554 S
H145 C133 0.930 . S
H146 C134 0.956 . S
H147 C134 0.961 . S
H148 C134 0.961 . S
H149 C135 0.958 . S
H150 C135 0.961 . S
H151 C135 0.960 . S
C152 C153 1.391 . S
C152 C154 1.394 . S
C152 H168 0.931 . S
C153 C152 1.391 . S
C153 C157 1.376 . S
C154 C152 1.394 . S
C154 C155 1.369 . S
C154 C158 1.531 . S
C155 C154 1.369 . S
C155 C156 1.410 . S
C155 C163 1.503 . S
C156 C155 1.410 . S
C156 C157 1.392 . S
C156 C159 1.511 . S
C157 C153 1.376 . S
C157 C156 1.392 . S
C157 H169 0.929 . S
C158 C154 1.531 . S
C158 H170 0.960 . S
C158 H171 0.962 . S
C158 H172 0.960 . S
C159 C156 1.511 . S
C159 H173 0.961 . S
C159 H174 0.961 . S
C159 H175 0.961 . S
C160 C161 1.370 . S
C160 C162 1.363 . S
C160 H176 0.931 . S
C161 C160 1.370 . S
C161 C165 1.408 . S
C162 C160 1.363 . S
C162 C163 1.370 . S
C162 C166 1.524 . S
C163 C155 1.503 . S
C163 C162 1.370 . S
C163 C164 1.403 . S
C164 C163 1.403 . S
C164 C165 1.404 . S
C164 C167 1.539 . S
C165 C161 1.408 . S
C165 C164 1.404 . S
C165 H177 0.930 . S
C166 C162 1.524 . S
C166 H178 0.956 . S
C166 H179 0.961 . S
C166 H180 0.961 . S
C167 C164 1.539 . S
C167 H181 0.958 . S
C167 H182 0.961 . S
C167 H183 0.960 . S
H168 C152 0.931 . S
H169 C157 0.929 . S
H170 C158 0.960 . S
H171 C158 0.962 . S
H172 C158 0.960 . S
H173 C159 0.961 . S
H174 C159 0.961 . S
H175 C159 0.961 . S
H176 C160 0.931 . S
H177 C165 0.930 . S
H178 C166 0.956 . S
H179 C166 0.961 . S
H180 C166 0.961 . S
H181 C167 0.958 . S
H182 C167 0.961 . S
H183 C167 0.960 . S
C184 C185 1.391 . S
C184 C186 1.394 . S
C184 H200 0.931 . S
C185 C184 1.391 . S
C185 C189 1.376 . S
C186 C184 1.394 . S
C186 C187 1.369 . S
C186 C190 1.531 . S
C187 C186 1.369 . S
C187 C188 1.410 . S
C187 C195 1.503 . S
C188 C187 1.410 . S
C188 C189 1.392 . S
C188 C191 1.511 . S
C189 C185 1.376 . S
C189 C188 1.392 . S
C189 H201 0.929 . S
C190 C186 1.531 . S
C190 H202 0.960 . S
C190 H203 0.962 . S
C190 H204 0.960 . S
C191 C188 1.511 . S
C191 H205 0.961 . S
C191 H206 0.961 . S
C191 H207 0.961 . S
C192 C193 1.370 . S
C192 C194 1.363 . S
C192 H208 0.931 . S
C193 C192 1.370 . S
C193 C197 1.408 . S
C194 C192 1.363 . S
C194 C195 1.370 . S
C194 C198 1.524 . S
C195 C187 1.503 . S
C195 C194 1.370 . S
C195 C196 1.403 . S
C196 C195 1.403 . S
C196 C197 1.404 . S
C196 C199 1.539 . S
C197 C193 1.408 . S
C197 C196 1.404 . S
C197 H209 0.930 . S
C198 C194 1.524 . S
C198 H210 0.956 . S
C198 H211 0.961 . S
C198 H212 0.961 . S
C199 C196 1.539 . S
C199 H213 0.958 . S
C199 H214 0.961 . S
C199 H215 0.960 . S
H200 C184 0.931 . S
H201 C189 0.929 . S
H202 C190 0.960 . S
H203 C190 0.962 . S
H204 C190 0.960 . S
H205 C191 0.961 . S
H206 C191 0.961 . S
H207 C191 0.961 . S
H208 C192 0.931 . S
H209 C197 0.930 . S
H210 C198 0.956 . S
H211 C198 0.961 . S
H212 C198 0.961 . S
H213 C199 0.958 . S
H214 C199 0.961 . S
H215 C199 0.960 . S
C216 C217 1.391 . S
C216 C218 1.394 . S
C216 H232 0.931 . S
C217 C216 1.391 . S
C217 C221 1.376 . S
C218 C216 1.394 . S
C218 C219 1.369 . S
C218 C222 1.531 . S
C219 C218 1.369 . S
C219 C220 1.410 1_556 S
C219 C227 1.503 1_556 S
C220 C219 1.410 1_554 S
C220 C221 1.392 1_554 S
C220 C223 1.511 . S
C221 C217 1.376 . S
C221 C220 1.392 1_556 S
C221 H233 0.929 1_556 S
C222 C218 1.531 . S
C222 H234 0.960 . S
C222 H235 0.962 . S
C222 H236 0.960 . S
C223 C220 1.511 . S
C223 H237 0.961 . S
C223 H238 0.961 . S
C223 H239 0.961 . S
C224 C225 1.370 . S
C224 C226 1.363 . S
C224 H240 0.931 . S
C225 C224 1.370 . S
C225 C229 1.408 . S
C226 C224 1.363 . S
C226 C227 1.370 . S
C226 C230 1.524 . S
C227 C219 1.503 1_554 S
C227 C226 1.370 . S
C227 C228 1.403 . S
C228 C227 1.403 . S
C228 C229 1.404 . S
C228 C231 1.539 . S
C229 C225 1.408 . S
C229 C228 1.404 . S
C229 H241 0.930 . S
C230 C226 1.524 . S
C230 H242 0.956 1_554 S
C230 H243 0.961 . S
C230 H244 0.961 . S
C231 C228 1.539 . S
C231 H245 0.958 1_554 S
C231 H246 0.961 . S
C231 H247 0.960 . S
H232 C216 0.931 . S
H233 C221 0.929 1_554 S
H234 C222 0.960 . S
H235 C222 0.962 . S
H236 C222 0.960 . S
H237 C223 0.961 . S
H238 C223 0.961 . S
H239 C223 0.961 . S
H240 C224 0.931 . S
H241 C229 0.930 . S
H242 C230 0.956 1_556 S
H243 C230 0.961 . S
H244 C230 0.961 . S
H245 C231 0.958 1_556 S
H246 C231 0.961 . S
H247 C231 0.960 . S
C248 C249 1.391 . S
C248 C250 1.394 . S
C248 H264 0.931 . S
C249 C248 1.391 . S
C249 C253 1.376 . S
C250 C248 1.394 . S
C250 C251 1.369 . S
C250 C254 1.531 . S
C251 C250 1.369 . S
C251 C252 1.410 . S
C251 C259 1.503 . S
C252 C251 1.410 . S
C252 C253 1.392 . S
C252 C255 1.511 . S
C253 C249 1.376 . S
C253 C252 1.392 . S
C253 H265 0.929 . S
C254 C250 1.531 . S
C254 H266 0.960 . S
C254 H267 0.962 . S
C254 H268 0.960 . S
C255 C252 1.511 . S
C255 H269 0.961 . S
C255 H270 0.961 . S
C255 H271 0.961 . S
C256 C257 1.370 . S
C256 C258 1.363 . S
C256 H272 0.931 . S
C257 C256 1.370 . S
C257 C261 1.408 . S
C258 C256 1.363 . S
C258 C259 1.370 . S
C258 C262 1.524 . S
C259 C251 1.503 . S
C259 C258 1.370 . S
C259 C260 1.403 . S
C260 C259 1.403 . S
C260 C261 1.404 . S
C260 C263 1.539 . S
C261 C257 1.408 . S
C261 C260 1.404 . S
C261 H273 0.930 . S
C262 C258 1.524 . S
C262 H274 0.956 . S
C262 H275 0.961 . S
C262 H276 0.961 . S
C263 C260 1.539 . S
C263 H277 0.958 . S
C263 H278 0.961 . S
C263 H279 0.960 . S
H264 C248 0.931 . S
H265 C253 0.929 . S
H266 C254 0.960 . S
H267 C254 0.962 . S
H268 C254 0.960 . S
H269 C255 0.961 . S
H270 C255 0.961 . S
H271 C255 0.961 . S
H272 C256 0.931 . S
H273 C261 0.930 . S
H274 C262 0.956 . S
H275 C262 0.961 . S
H276 C262 0.961 . S
H277 C263 0.958 . S
H278 C263 0.961 . S
H279 C263 0.960 . S
C280 C281 1.391 . S
C280 C282 1.394 . S
C280 H296 0.931 . S
C281 C280 1.391 . S
C281 C285 1.376 . S
C282 C280 1.394 . S
C282 C283 1.369 . S
C282 C286 1.531 . S
C283 C282 1.369 . S
C283 C284 1.410 . S
C283 C291 1.503 . S
C284 C283 1.410 . S
C284 C285 1.392 . S
C284 C287 1.511 . S
C285 C281 1.376 . S
C285 C284 1.392 . S
C285 H297 0.929 . S
C286 C282 1.531 . S
C286 H298 0.960 . S
C286 H299 0.962 . S
C286 H300 0.960 . S
C287 C284 1.511 . S
C287 H301 0.961 . S
C287 H302 0.961 . S
C287 H303 0.961 . S
C288 C289 1.370 . S
C288 C290 1.363 . S
C288 H304 0.931 . S
C289 C288 1.370 . S
C289 C293 1.408 . S
C290 C288 1.363 . S
C290 C291 1.370 . S
C290 C294 1.524 . S
C291 C283 1.503 . S
C291 C290 1.370 . S
C291 C292 1.403 . S
C292 C291 1.403 . S
C292 C293 1.404 . S
C292 C295 1.539 . S
C293 C289 1.408 . S
C293 C292 1.404 . S
C293 H305 0.930 . S
C294 C290 1.524 . S
C294 H306 0.956 . S
C294 H307 0.961 . S
C294 H308 0.961 . S
C295 C292 1.539 . S
C295 H309 0.958 . S
C295 H310 0.961 . S
C295 H311 0.960 . S
H296 C280 0.931 . S
H297 C285 0.929 . S
H298 C286 0.960 . S
H299 C286 0.962 . S
H300 C286 0.960 . S
H301 C287 0.961 . S
H302 C287 0.961 . S
H303 C287 0.961 . S
H304 C288 0.931 . S
H305 C293 0.930 . S
H306 C294 0.956 . S
H307 C294 0.961 . S
H308 C294 0.961 . S
H309 C295 0.958 . S
H310 C295 0.961 . S
H311 C295 0.960 . S
C312 C313 1.391 . S
C312 C314 1.394 . S
C312 H328 0.931 1_455 S
C313 C312 1.391 . S
C313 C317 1.376 . S
C314 C312 1.394 . S
C314 C315 1.369 . S
C314 C318 1.531 1_455 S
C315 C314 1.369 . S
C315 C316 1.410 . S
C315 C323 1.503 . S
C316 C315 1.410 . S
C316 C317 1.392 . S
C316 C319 1.511 . S
C317 C313 1.376 . S
C317 C316 1.392 . S
C317 H329 0.929 . S
C318 C314 1.531 1_655 S
C318 H330 0.960 1_655 S
C318 H331 0.962 . S
C318 H332 0.954 . S
C319 C316 1.511 . S
C319 H333 0.961 . S
C319 H334 0.961 . S
C319 H335 0.961 . S
C320 C321 1.370 1_655 S
C320 C322 1.363 . S
C320 H336 0.931 . S
C321 C320 1.370 1_455 S
C321 C325 1.408 . S
C322 C320 1.363 . S
C322 C323 1.370 1_655 S
C322 C326 1.524 . S
C323 C315 1.503 . S
C323 C322 1.370 1_455 S
C323 C324 1.403 . S
C324 C323 1.403 . S
C324 C325 1.404 . S
C324 C327 1.539 . S
C325 C321 1.408 . S
C325 C324 1.404 . S
C325 H337 0.930 . S
C326 C322 1.524 . S
C326 H338 0.956 . S
C326 H339 0.961 . S
C326 H340 0.961 . S
C327 C324 1.539 . S
C327 H341 0.958 . S
C327 H342 0.961 . S
C327 H343 0.960 . S
H328 C312 0.931 1_655 S
H329 C317 0.929 . S
H330 C318 0.960 1_455 S
H331 C318 0.962 . S
H332 C318 0.954 . S
H333 C319 0.961 . S
H334 C319 0.961 . S
H335 C319 0.961 . S
H336 C320 0.931 . S
H337 C325 0.930 . S
H338 C326 0.956 . S
H339 C326 0.961 . S
H340 C326 0.961 . S
H341 C327 0.958 . S
H342 C327 0.961 . S
H343 C327 0.960 . S
C344 C345 1.391 . S
C344 C346 1.394 . S
C344 H360 0.931 . S
C345 C344 1.391 . S
C345 C349 1.377 1_545 S
C346 C344 1.394 . S
C346 C347 1.369 . S
C346 C350 1.531 . S
C347 C346 1.369 . S
C347 C348 1.410 . S
C347 C355 1.503 1_554 S
C348 C347 1.410 . S
C348 C349 1.392 1_545 S
C348 C351 1.511 1_545 S
C349 C345 1.377 1_565 S
C349 C348 1.392 1_565 S
C349 H361 0.928 . S
C350 C346 1.531 . S
C350 H362 0.960 . S
C350 H363 0.962 . S
C350 H364 0.960 . S
C351 C348 1.511 1_565 S
C351 H365 0.961 . S
C351 H366 0.961 1_554 S
C351 H367 0.961 . S
C352 C353 1.377 . S
C352 C354 1.362 . S
C352 H368 0.927 1_545 S
C353 C352 1.377 . S
C353 C357 1.408 . S
C354 C352 1.362 . S
C354 C355 1.370 . S
C354 C358 1.524 1_545 S
C355 C347 1.503 1_556 S
C355 C354 1.370 . S
C355 C356 1.403 . S
C356 C355 1.403 . S
C356 C357 1.404 . S
C356 C359 1.539 . S
C357 C353 1.408 . S
C357 C356 1.404 . S
C357 H369 0.930 . S
C358 C354 1.524 1_565 S
C358 H370 0.956 . S
C358 H371 0.961 . S
C358 H372 0.961 . S
C359 C356 1.539 . S
C359 H373 0.958 . S
C359 H374 0.961 . S
C359 H375 0.960 1_556 S
H360 C344 0.931 . S
H361 C349 0.928 . S
H362 C350 0.960 . S
H363 C350 0.962 . S
H364 C350 0.960 . S
H365 C351 0.961 . S
H366 C351 0.961 1_556 S
H367 C351 0.961 . S
H368 C352 0.927 1_565 S
H369 C357 0.930 . S
H370 C358 0.956 . S
H371 C358 0.961 . S
H372 C358 0.961 . S
H373 C359 0.958 . S
H374 C359 0.961 . S
H375 C359 0.960 1_554 S
C376 C377 1.391 . S
C376 C378 1.394 . S
C376 H392 0.931 . S
C377 C376 1.391 . S
C377 C381 1.376 . S
C378 C376 1.394 . S
C378 C379 1.369 . S
C378 C382 1.531 . S
C379 C378 1.369 . S
C379 C380 1.410 . S
C379 C387 1.503 . S
C380 C379 1.410 . S
C380 C381 1.392 . S
C380 C383 1.511 . S
C381 C377 1.376 . S
C381 C380 1.392 . S
C381 H393 0.929 . S
C382 C378 1.531 . S
C382 H394 0.960 . S
C382 H395 0.962 . S
C382 H396 0.960 . S
C383 C380 1.511 . S
C383 H397 0.961 . S
C383 H398 0.961 . S
C383 H399 0.961 . S
C384 C385 1.370 . S
C384 C386 1.363 . S
C384 H400 0.931 . S
C385 C384 1.370 . S
C385 C389 1.408 . S
C386 C384 1.363 . S
C386 C387 1.370 . S
C386 C390 1.524 . S
C387 C379 1.503 . S
C387 C386 1.370 . S
C387 C388 1.403 . S
C388 C387 1.403 . S
C388 C389 1.404 . S
C388 C391 1.539 . S
C389 C385 1.408 . S
C389 C388 1.404 . S
C389 H401 0.930 . S
C390 C386 1.524 . S
C390 H402 0.956 . S
C390 H403 0.961 . S
C390 H404 0.961 . S
C391 C388 1.539 . S
C391 H405 0.958 . S
C391 H406 0.961 . S
C391 H407 0.960 . S
H392 C376 0.931 . S
H393 C381 0.929 . S
H394 C382 0.960 . S
H395 C382 0.962 . S
H396 C382 0.960 . S
H397 C383 0.961 . S
H398 C383 0.961 . S
H399 C383 0.961 . S
H400 C384 0.931 . S
H401 C389 0.930 . S
H402 C390 0.956 . S
H403 C390 0.961 . S
H404 C390 0.961 . S
H405 C391 0.958 . S
H406 C391 0.961 . S
H407 C391 0.960 . S
C121 C9 1.966 . S
C129 C102 1.977 . S
C153 C49 2.097 . S
C161 C3 2.079 . S
C185 C43 1.970 . S
C193 C89 2.004 . S
C217 C83 2.120 . S
C225 C26 2.062 . S
C249 C66 1.917 . S
C257 C22 1.998 . S
C281 C106 2.022 . S
C289 C62 2.094 . S
C313 C15 0.547 . S
C321 C2 0.530 . S
C345 C55 0.600 . S
C353 C42 0.491 . S
C377 C95 0.570 . S
C385 C82 0.526 . S
