# Generated by pormake.
# Topology ukg, (4)-cn, num edge types: 1
# Building blocks:
#     Node 0, Type 0, BuildingBlock: NAWXER_clean_sbu_0, # of connection points: 4
#     Node 1, Type 0, BuildingBlock: NAWXER_clean_sbu_0, # of connection points: 4
#     Node 2, Type 0, BuildingBlock: NAWXER_clean_sbu_0, # of connection points: 4
#     Node 3, Type 0, BuildingBlock: NAWXER_clean_sbu_0, # of connection points: 4
#     Node 4, Type 0, BuildingBlock: NAWXER_clean_sbu_0, # of connection points: 4
#     Node 5, Type 0, BuildingBlock: NAWXER_clean_sbu_0, # of connection points: 4
#     Node 6, Type 0, BuildingBlock: NAWXER_clean_sbu_0, # of connection points: 4
#     Node 7, Type 0, BuildingBlock: NAWXER_clean_sbu_0, # of connection points: 4
#     Edge 8, Type (0, 0), BuildingBlock: OJICUG_clean_linker_0, # of connection points: 2
#     Edge 9, Type (0, 0), BuildingBlock: OJICUG_clean_linker_0, # of connection points: 2
#     Edge 10, Type (0, 0), BuildingBlock: OJICUG_clean_linker_0, # of connection points: 2
#     Edge 11, Type (0, 0), BuildingBlock: OJICUG_clean_linker_0, # of connection points: 2
#     Edge 12, Type (0, 0), BuildingBlock: OJICUG_clean_linker_0, # of connection points: 2
#     Edge 13, Type (0, 0), BuildingBlock: OJICUG_clean_linker_0, # of connection points: 2
#     Edge 14, Type (0, 0), BuildingBlock: OJICUG_clean_linker_0, # of connection points: 2
#     Edge 15, Type (0, 0), BuildingBlock: OJICUG_clean_linker_0, # of connection points: 2
#     Edge 16, Type (0, 0), BuildingBlock: OJICUG_clean_linker_0, # of connection points: 2
#     Edge 17, Type (0, 0), BuildingBlock: OJICUG_clean_linker_0, # of connection points: 2
#     Edge 18, Type (0, 0), BuildingBlock: OJICUG_clean_linker_0, # of connection points: 2
#     Edge 19, Type (0, 0), BuildingBlock: OJICUG_clean_linker_0, # of connection points: 2
#     Edge 20, Type (0, 0), BuildingBlock: OJICUG_clean_linker_0, # of connection points: 2
#     Edge 21, Type (0, 0), BuildingBlock: OJICUG_clean_linker_0, # of connection points: 2
#     Edge 22, Type (0, 0), BuildingBlock: OJICUG_clean_linker_0, # of connection points: 2
#     Edge 23, Type (0, 0), BuildingBlock: OJICUG_clean_linker_0, # of connection points: 2
# Relax obj value: 0.100
# Max RMSD: 0.242
# Mean RMSD: 0.242
data_MOF--net-ukg--node1-NAWXER_clean_sbu_0--edge1-OJICUG_clean_linker_0
_symmetry_space_group_name_H-M    P1
_symmetry_Int_Tables_number       1
_symmetry_cell_setting            triclinic
loop_
_symmetry_equiv_pos_as_xyz
'x, y, z'
_cell_length_a     22.626957
_cell_length_b     22.61969
_cell_length_c     27.734603
_cell_angle_alpha  89.978776
_cell_angle_beta   90.005215
_cell_angle_gamma 90.014864
loop_
_atom_site_label
_atom_site_type_symbol
_atom_site_fract_x
_atom_site_fract_y
_atom_site_fract_z
_atom_type_partial_charge
C0 C 0.14154 0.68371 0.16005 0.0
C1 C 0.96088 0.59378 0.21794 0.0
O2 O 0.13373 0.64479 0.19227 0.0
Zn3 Zn 0.05047 0.63411 0.18494 0.0
O4 O 0.09782 0.70022 0.1339 0.0
Zn5 Zn 0.00451 0.67996 0.13156 0.0
O6 O 0.97149 0.7572 0.14199 0.0
O7 O 0.01555 0.71946 0.20606 0.0
O8 O 0.95108 0.62653 0.18087 0.0
O9 O 0.0135 0.5856 0.23238 0.0
O10 O 0.03681 0.58436 0.11918 0.0
O11 O 0.99038 0.6447 0.06973 0.0
C12 C 0.98648 0.76149 0.186 0.0
C13 C 0.01249 0.59424 0.0781 0.0
C14 C 0.31706 0.6422 0.65993 0.0
C15 C 0.40665 0.4614 0.71789 0.0
O16 O 0.35604 0.63432 0.69209 0.0
Zn17 Zn 0.36646 0.55102 0.68485 0.0
O18 O 0.30042 0.59847 0.63384 0.0
Zn19 Zn 0.32049 0.50509 0.63155 0.0
O20 O 0.24325 0.47216 0.64206 0.0
O21 O 0.28109 0.5162 0.70608 0.0
O22 O 0.37386 0.4516 0.68086 0.0
O23 O 0.41493 0.51404 0.73228 0.0
O24 O 0.41613 0.53718 0.61908 0.0
O25 O 0.35566 0.49086 0.56969 0.0
C26 C 0.23902 0.48716 0.68607 0.0
C27 C 0.40618 0.51286 0.57802 0.0
C28 C 0.51377 0.73893 0.18583 0.0
C29 C 0.48781 0.90619 0.07781 0.0
O30 O 0.52877 0.74321 0.14182 0.0
Zn31 Zn 0.49575 0.82044 0.13133 0.0
O32 O 0.48469 0.78096 0.20584 0.0
Zn33 Zn 0.44978 0.86631 0.18466 0.0
O34 O 0.36653 0.85565 0.19199 0.0
O35 O 0.40244 0.80015 0.1337 0.0
O36 O 0.46349 0.91607 0.11888 0.0
O37 O 0.50989 0.85571 0.06947 0.0
O38 O 0.54917 0.87385 0.18064 0.0
O39 O 0.48673 0.9148 0.23209 0.0
C40 C 0.35872 0.81667 0.15982 0.0
C41 C 0.53936 0.90658 0.2177 0.0
C42 C 0.09434 0.98836 0.57774 0.0
C43 C 0.26162 0.01461 0.68563 0.0
O44 O 0.14473 0.01062 0.56937 0.0
Zn45 Zn 0.1801 0.9965 0.63118 0.0
O46 O 0.08456 0.96395 0.61881 0.0
Zn47 Zn 0.13439 0.95032 0.68454 0.0
O48 O 0.0859 0.98713 0.73203 0.0
O49 O 0.12666 0.04974 0.68056 0.0
O50 O 0.21967 0.98539 0.70565 0.0
O51 O 0.25726 0.02972 0.64164 0.0
O52 O 0.20057 0.90321 0.63348 0.0
O53 O 0.14526 0.86707 0.69184 0.0
C54 C 0.09399 0.03981 0.71764 0.0
C55 C 0.18417 0.85941 0.65961 0.0
C56 C 0.03959 0.40694 0.79752 0.0
C57 C 0.859 0.31685 0.85535 0.0
O58 O 0.04943 0.37413 0.83454 0.0
Zn59 Zn 0.99605 0.32059 0.88381 0.0
O60 O 0.98696 0.41512 0.78311 0.0
Zn61 Zn 0.95005 0.3665 0.83049 0.0
O62 O 0.96371 0.41615 0.8963 0.0
O63 O 0.01019 0.35577 0.94569 0.0
O64 O 0.8668 0.35584 0.82317 0.0
O65 O 0.90274 0.3003 0.88147 0.0
O66 O 0.02909 0.24338 0.87328 0.0
O67 O 0.98498 0.28121 0.80927 0.0
C68 C 0.98805 0.40623 0.93736 0.0
C69 C 0.01407 0.23916 0.82927 0.0
C70 C 0.76129 0.51384 0.32932 0.0
C71 C 0.5941 0.48791 0.4373 0.0
O72 O 0.71926 0.48475 0.30929 0.0
Zn73 Zn 0.63391 0.44984 0.33047 0.0
O74 O 0.75701 0.52886 0.37332 0.0
Zn75 Zn 0.6798 0.49582 0.38379 0.0
O76 O 0.70004 0.40249 0.38146 0.0
O77 O 0.64452 0.36655 0.32318 0.0
O78 O 0.64459 0.50998 0.44563 0.0
O79 O 0.58418 0.46357 0.39624 0.0
O80 O 0.58544 0.48677 0.28301 0.0
O81 O 0.62641 0.54925 0.33445 0.0
C82 C 0.68349 0.35875 0.35535 0.0
C83 C 0.59366 0.53942 0.2974 0.0
C84 C 0.51257 0.09437 0.93714 0.0
C85 C 0.48671 0.2618 0.82928 0.0
O86 O 0.53691 0.08453 0.89607 0.0
Zn87 Zn 0.5507 0.13442 0.83035 0.0
O88 O 0.49052 0.14485 0.94551 0.0
Zn89 Zn 0.50472 0.18021 0.88371 0.0
O90 O 0.45132 0.12689 0.83432 0.0
O91 O 0.51378 0.08604 0.78282 0.0
O92 O 0.4717 0.25746 0.87329 0.0
O93 O 0.5158 0.2198 0.80924 0.0
O94 O 0.63396 0.14506 0.82308 0.0
O95 O 0.59803 0.20048 0.88142 0.0
C96 C 0.46115 0.09423 0.79722 0.0
C97 C 0.64176 0.18397 0.8553 0.0
C98 C 0.90609 0.01262 0.43717 0.0
C99 C 0.73885 0.98644 0.32923 0.0
O100 O 0.91591 0.03697 0.39609 0.0
Zn101 Zn 0.86613 0.0506 0.33033 0.0
O102 O 0.85567 0.99043 0.44555 0.0
Zn103 Zn 0.82035 0.00453 0.38372 0.0
O104 O 0.87378 0.95119 0.33441 0.0
O105 O 0.91464 0.01369 0.2829 0.0
O106 O 0.74315 0.97142 0.37324 0.0
O107 O 0.78084 0.01558 0.3092 0.0
O108 O 0.8554 0.13387 0.323 0.0
O109 O 0.80003 0.09785 0.38137 0.0
C110 C 0.90649 0.96104 0.29735 0.0
C111 C 0.81648 0.14162 0.35522 0.0
C112 C 0.02181 0.44373 0.01801 0.0
C113 C 0.99323 0.45406 0.97374 0.0
H114 H 0.05073 0.47973 0.08541 0.0
C115 C 0.97177 0.51111 0.96388 0.0
H116 H 0.03911 0.40039 0.02674 0.0
C117 C 0.97873 0.55671 0.99747 0.0
C118 C 0.00731 0.54639 0.04175 0.0
H119 H 0.9498 0.52072 0.93008 0.0
H120 H 0.96143 0.60005 0.98874 0.0
C121 C 0.02876 0.48934 0.05161 0.0
C122 C 0.51109 0.52884 0.55151 0.0
C123 C 0.454 0.50753 0.54166 0.0
H124 H 0.60005 0.53896 0.52664 0.0
C125 C 0.44361 0.47895 0.4974 0.0
H126 H 0.52075 0.55081 0.5853 0.0
C127 C 0.48919 0.47187 0.46381 0.0
C128 C 0.54628 0.49319 0.47366 0.0
H129 H 0.40023 0.46175 0.48868 0.0
H130 H 0.47953 0.44991 0.43002 0.0
C131 C 0.55667 0.52176 0.51792 0.0
C132 C 0.52162 0.94376 0.99718 0.0
C133 C 0.49305 0.95407 0.04145 0.0
H134 H 0.55062 0.97981 0.9298 0.0
C135 C 0.47168 0.01113 0.05131 0.0
H136 H 0.53885 0.9004 0.98843 0.0
C137 C 0.47871 0.05677 0.01774 0.0
C138 C 0.50729 0.04647 0.97347 0.0
H139 H 0.44971 0.02073 0.08511 0.0
H140 H 0.46147 0.10013 0.02648 0.0
C141 C 0.52865 0.9894 0.9636 0.0
C142 C 0.01097 0.02907 0.46361 0.0
C143 C 0.95399 0.00749 0.4735 0.0
H144 H 0.09992 0.03957 0.4884 0.0
C145 C 0.94379 0.97882 0.51776 0.0
H146 H 0.02048 0.05112 0.42981 0.0
C147 C 0.98945 0.97191 0.55131 0.0
C148 C 0.04643 0.99349 0.54142 0.0
H149 H 0.9005 0.96141 0.52652 0.0
H150 H 0.97994 0.94986 0.58511 0.0
C151 C 0.05663 0.02216 0.49716 0.0
C152 C 0.22475 0.73285 0.20186 0.0
C153 C 0.1979 0.71628 0.15833 0.0
H154 H 0.29551 0.77935 0.23604 0.0
C155 C 0.22359 0.734 0.1145 0.0
H156 H 0.20537 0.72041 0.23613 0.0
C157 C 0.27643 0.76659 0.11445 0.0
C158 C 0.30242 0.78402 0.15822 0.0
H159 H 0.20331 0.72196 0.08051 0.0
H160 H 0.29646 0.77888 0.08041 0.0
C161 C 0.27589 0.76714 0.20181 0.0
C162 C 0.26553 0.72349 0.61436 0.0
C163 C 0.28473 0.69872 0.65814 0.0
H164 H 0.21943 0.79561 0.58025 0.0
C165 C 0.26977 0.7266 0.70163 0.0
H166 H 0.27631 0.70245 0.58041 0.0
C167 C 0.23551 0.77775 0.70161 0.0
C168 C 0.21704 0.80326 0.65804 0.0
H169 H 0.28336 0.70799 0.73589 0.0
H170 H 0.22447 0.79815 0.73579 0.0
C171 C 0.23295 0.77634 0.61427 0.0
C172 C 0.72476 0.23338 0.81342 0.0
C173 C 0.6981 0.21657 0.85698 0.0
H174 H 0.7954 0.28003 0.77919 0.0
C175 C 0.72399 0.23403 0.90079 0.0
H176 H 0.70523 0.22114 0.77917 0.0
C177 C 0.77685 0.2666 0.9008 0.0
C178 C 0.80266 0.28425 0.857 0.0
H179 H 0.70386 0.2218 0.93479 0.0
H180 H 0.79703 0.27867 0.93481 0.0
C181 C 0.77592 0.26763 0.81344 0.0
C182 C 0.73363 0.2765 0.40077 0.0
C183 C 0.7161 0.30243 0.35698 0.0
H184 H 0.77837 0.20346 0.43473 0.0
C185 C 0.73288 0.27584 0.3134 0.0
H186 H 0.72143 0.29658 0.43479 0.0
C187 C 0.76718 0.22471 0.31337 0.0
C188 C 0.78386 0.19794 0.35692 0.0
H189 H 0.72059 0.29541 0.27917 0.0
H190 H 0.77954 0.20529 0.27911 0.0
C191 C 0.76624 0.22368 0.40073 0.0
C192 C 0.80796 0.53959 0.25053 0.0
C193 C 0.81323 0.53141 0.30059 0.0
H194 H 0.85062 0.56656 0.1851 0.0
C195 C 0.86802 0.5414 0.32286 0.0
H196 H 0.7661 0.5324 0.23249 0.0
C197 C 0.91666 0.55955 0.29556 0.0
C198 C 0.91092 0.56949 0.24574 0.0
H199 H 0.87327 0.53516 0.36135 0.0
H200 H 0.95828 0.56759 0.31372 0.0
C201 C 0.85619 0.55922 0.22344 0.0
C202 C 0.44091 0.41717 0.79551 0.0
C203 C 0.43092 0.41142 0.74571 0.0
H204 H 0.4654 0.3738 0.8613 0.0
C205 C 0.44116 0.35668 0.72342 0.0
H206 H 0.4329 0.45881 0.81366 0.0
C207 C 0.46084 0.30846 0.75051 0.0
C208 C 0.46909 0.31374 0.80056 0.0
H209 H 0.43378 0.3511 0.6851 0.0
H210 H 0.46801 0.26658 0.73248 0.0
C211 C 0.45911 0.36854 0.82281 0.0
C212 C 0.58352 0.94069 0.29536 0.0
C213 C 0.58931 0.93081 0.24555 0.0
H214 H 0.62685 0.96503 0.36119 0.0
C215 C 0.64406 0.94108 0.2233 0.0
H216 H 0.54188 0.93266 0.31349 0.0
C217 C 0.69226 0.96068 0.25042 0.0
C218 C 0.68695 0.96883 0.30048 0.0
H219 H 0.64967 0.93377 0.18497 0.0
H220 H 0.73414 0.96788 0.23242 0.0
C221 C 0.63214 0.95882 0.3227 0.0
C222 C 0.04174 0.13244 0.82269 0.0
C223 C 0.03164 0.18727 0.80048 0.0
H224 H 0.068 0.04221 0.81345 0.0
C225 C 0.03971 0.19263 0.75042 0.0
H226 H 0.03559 0.12712 0.86119 0.0
C227 C 0.05932 0.14446 0.72327 0.0
C228 C 0.0697 0.08969 0.74551 0.0
H229 H 0.03243 0.23452 0.73242 0.0
H230 H 0.06657 0.1501 0.68493 0.0
C231 C 0.05988 0.08386 0.79533 0.0
C232 C 0.14428 0.44152 0.79197 0.0
C233 C 0.08952 0.43132 0.76971 0.0
H234 H 0.23436 0.46836 0.78287 0.0
C235 C 0.0837 0.44142 0.71992 0.0
H236 H 0.14991 0.43406 0.83029 0.0
C237 C 0.13229 0.45966 0.69261 0.0
C238 C 0.18712 0.46957 0.71484 0.0
H239 H 0.04204 0.43345 0.70179 0.0
H240 H 0.12697 0.46601 0.65413 0.0
C241 C 0.19246 0.46124 0.76487 0.0
C242 C 0.55917 0.64413 0.29179 0.0
C243 C 0.56942 0.58937 0.26954 0.0
H244 H 0.53238 0.73424 0.28265 0.0
C245 C 0.55947 0.58357 0.21974 0.0
H246 H 0.56652 0.64975 0.33011 0.0
C247 C 0.54133 0.63219 0.19239 0.0
C248 C 0.53135 0.68702 0.2146 0.0
H249 H 0.56749 0.54192 0.20162 0.0
H250 H 0.53508 0.62689 0.1539 0.0
C251 C 0.53955 0.69234 0.26465 0.0
C252 C 0.41685 0.06082 0.71942 0.0
C253 C 0.41122 0.07008 0.76932 0.0
H254 H 0.37338 0.03704 0.65352 0.0
C255 C 0.35662 0.05927 0.79165 0.0
H256 H 0.45837 0.06931 0.70124 0.0
C257 C 0.30841 0.03973 0.7645 0.0
C258 C 0.31355 0.03219 0.71437 0.0
H259 H 0.35115 0.06608 0.83005 0.0
H260 H 0.26665 0.03208 0.78258 0.0
C261 C 0.36821 0.04276 0.69207 0.0
C262 C 0.95888 0.86822 0.19244 0.0
C263 C 0.9689 0.81342 0.21472 0.0
H264 H 0.93266 0.95849 0.20156 0.0
C265 C 0.96073 0.80814 0.26478 0.0
H266 H 0.96511 0.87349 0.15395 0.0
C267 C 0.94109 0.85636 0.29185 0.0
C268 C 0.93079 0.9111 0.26955 0.0
H269 H 0.96793 0.76626 0.28282 0.0
H270 H 0.93376 0.85077 0.33019 0.0
C271 C 0.94072 0.91686 0.21973 0.0
loop_
_geom_bond_atom_site_label_1
_geom_bond_atom_site_label_2
_geom_bond_distance
_geom_bond_site_symmetry_2
_ccdc_geom_bond_type
C0 O2 1.247 . S
C0 O4 1.258 . S
C1 O8 1.247 . S
C1 O9 1.258 . S
O2 C0 1.247 . S
O2 Zn3 2.028 . S
Zn3 O2 2.028 . S
Zn3 O7 2.035 . S
Zn3 O9 2.035 1_455 S
Zn3 O10 2.028 . S
O4 C0 1.258 . S
O4 Zn5 2.035 1_455 S
Zn5 O4 2.035 1_655 S
Zn5 O6 2.028 . S
Zn5 O8 2.028 . S
Zn5 O11 2.035 . S
O6 Zn5 2.028 . S
O6 C12 1.247 . S
O7 Zn3 2.035 . S
O7 C12 1.258 1_455 S
O8 C1 1.247 . S
O8 Zn5 2.028 . S
O9 C1 1.258 . S
O9 Zn3 2.035 1_655 S
O10 Zn3 2.028 . S
O10 C13 1.247 . S
O11 Zn5 2.035 . S
O11 C13 1.258 1_655 S
C12 O6 1.247 . S
C12 O7 1.258 1_655 S
C13 O10 1.247 . S
C13 O11 1.258 1_455 S
C14 O16 1.247 . S
C14 O18 1.258 . S
C15 O22 1.247 . S
C15 O23 1.258 . S
O16 C14 1.247 . S
O16 Zn17 2.028 . S
Zn17 O16 2.028 . S
Zn17 O21 2.035 . S
Zn17 O23 2.035 . S
Zn17 O24 2.028 . S
O18 C14 1.258 . S
O18 Zn19 2.035 . S
Zn19 O18 2.035 . S
Zn19 O20 2.028 . S
Zn19 O22 2.028 . S
Zn19 O25 2.035 . S
O20 Zn19 2.028 . S
O20 C26 1.247 . S
O21 Zn17 2.035 . S
O21 C26 1.258 . S
O22 C15 1.247 . S
O22 Zn19 2.028 . S
O23 C15 1.258 . S
O23 Zn17 2.035 . S
O24 Zn17 2.028 . S
O24 C27 1.247 . S
O25 Zn19 2.035 . S
O25 C27 1.258 . S
C26 O20 1.247 . S
C26 O21 1.258 . S
C27 O24 1.247 . S
C27 O25 1.258 . S
C28 O30 1.247 . S
C28 O32 1.258 . S
C29 O36 1.247 . S
C29 O37 1.258 . S
O30 C28 1.247 . S
O30 Zn31 2.028 . S
Zn31 O30 2.028 . S
Zn31 O35 2.035 . S
Zn31 O37 2.035 . S
Zn31 O38 2.028 . S
O32 C28 1.258 . S
O32 Zn33 2.035 . S
Zn33 O32 2.035 . S
Zn33 O34 2.028 . S
Zn33 O36 2.028 . S
Zn33 O39 2.035 . S
O34 Zn33 2.028 . S
O34 C40 1.247 . S
O35 Zn31 2.035 . S
O35 C40 1.258 . S
O36 C29 1.247 . S
O36 Zn33 2.028 . S
O37 C29 1.258 . S
O37 Zn31 2.035 . S
O38 Zn31 2.028 . S
O38 C41 1.247 . S
O39 Zn33 2.035 . S
O39 C41 1.258 . S
C40 O34 1.247 . S
C40 O35 1.258 . S
C41 O38 1.247 . S
C41 O39 1.258 . S
C42 O44 1.247 1_565 S
C42 O46 1.258 . S
C43 O50 1.247 1_545 S
C43 O51 1.258 . S
O44 C42 1.247 1_545 S
O44 Zn45 2.028 . S
Zn45 O44 2.028 . S
Zn45 O49 2.035 . S
Zn45 O51 2.035 . S
Zn45 O52 2.028 1_545 S
O46 C42 1.258 . S
O46 Zn47 2.035 . S
Zn47 O46 2.035 . S
Zn47 O48 2.028 1_565 S
Zn47 O50 2.028 . S
Zn47 O53 2.035 . S
O48 Zn47 2.028 1_545 S
O48 C54 1.247 . S
O49 Zn45 2.035 . S
O49 C54 1.258 . S
O50 C43 1.247 1_565 S
O50 Zn47 2.028 . S
O51 C43 1.258 . S
O51 Zn45 2.035 . S
O52 Zn45 2.028 1_565 S
O52 C55 1.247 . S
O53 Zn47 2.035 . S
O53 C55 1.258 . S
C54 O48 1.247 . S
C54 O49 1.258 . S
C55 O52 1.247 . S
C55 O53 1.258 . S
C56 O58 1.247 . S
C56 O60 1.258 . S
C57 O64 1.247 . S
C57 O65 1.258 . S
O58 C56 1.247 . S
O58 Zn59 2.028 . S
Zn59 O58 2.028 . S
Zn59 O63 2.035 . S
Zn59 O65 2.035 1_455 S
Zn59 O66 2.028 . S
O60 C56 1.258 . S
O60 Zn61 2.035 1_455 S
Zn61 O60 2.035 1_655 S
Zn61 O62 2.028 . S
Zn61 O64 2.028 . S
Zn61 O67 2.035 . S
O62 Zn61 2.028 . S
O62 C68 1.247 . S
O63 Zn59 2.035 . S
O63 C68 1.258 1_455 S
O64 C57 1.247 . S
O64 Zn61 2.028 . S
O65 C57 1.258 . S
O65 Zn59 2.035 1_655 S
O66 Zn59 2.028 . S
O66 C69 1.247 . S
O67 Zn61 2.035 . S
O67 C69 1.258 1_655 S
C68 O62 1.247 . S
C68 O63 1.258 1_655 S
C69 O66 1.247 . S
C69 O67 1.258 1_455 S
C70 O72 1.247 . S
C70 O74 1.258 . S
C71 O78 1.247 . S
C71 O79 1.258 . S
O72 C70 1.247 . S
O72 Zn73 2.028 . S
Zn73 O72 2.028 . S
Zn73 O77 2.035 . S
Zn73 O79 2.035 . S
Zn73 O80 2.028 . S
O74 C70 1.258 . S
O74 Zn75 2.035 . S
Zn75 O74 2.035 . S
Zn75 O76 2.028 . S
Zn75 O78 2.028 . S
Zn75 O81 2.035 . S
O76 Zn75 2.028 . S
O76 C82 1.247 . S
O77 Zn73 2.035 . S
O77 C82 1.258 . S
O78 C71 1.247 . S
O78 Zn75 2.028 . S
O79 C71 1.258 . S
O79 Zn73 2.035 . S
O80 Zn73 2.028 . S
O80 C83 1.247 . S
O81 Zn75 2.035 . S
O81 C83 1.258 . S
C82 O76 1.247 . S
C82 O77 1.258 . S
C83 O80 1.247 . S
C83 O81 1.258 . S
C84 O86 1.247 . S
C84 O88 1.258 . S
C85 O92 1.247 . S
C85 O93 1.258 . S
O86 C84 1.247 . S
O86 Zn87 2.028 . S
Zn87 O86 2.028 . S
Zn87 O91 2.035 . S
Zn87 O93 2.035 . S
Zn87 O94 2.028 . S
O88 C84 1.258 . S
O88 Zn89 2.035 . S
Zn89 O88 2.035 . S
Zn89 O90 2.028 . S
Zn89 O92 2.028 . S
Zn89 O95 2.035 . S
O90 Zn89 2.028 . S
O90 C96 1.247 . S
O91 Zn87 2.035 . S
O91 C96 1.258 . S
O92 C85 1.247 . S
O92 Zn89 2.028 . S
O93 C85 1.258 . S
O93 Zn87 2.035 . S
O94 Zn87 2.028 . S
O94 C97 1.247 . S
O95 Zn89 2.035 . S
O95 C97 1.258 . S
C96 O90 1.247 . S
C96 O91 1.258 . S
C97 O94 1.247 . S
C97 O95 1.258 . S
C98 O100 1.247 . S
C98 O102 1.258 1_545 S
C99 O106 1.247 . S
C99 O107 1.258 1_565 S
O100 C98 1.247 . S
O100 Zn101 2.028 . S
Zn101 O100 2.028 . S
Zn101 O105 2.035 1_545 S
Zn101 O107 2.035 . S
Zn101 O108 2.028 . S
O102 C98 1.258 1_565 S
O102 Zn103 2.035 . S
Zn103 O102 2.035 . S
Zn103 O104 2.028 . S
Zn103 O106 2.028 . S
Zn103 O109 2.035 1_565 S
O104 Zn103 2.028 . S
O104 C110 1.247 . S
O105 Zn101 2.035 1_565 S
O105 C110 1.258 . S
O106 C99 1.247 . S
O106 Zn103 2.028 . S
O107 C99 1.258 1_545 S
O107 Zn101 2.035 . S
O108 Zn101 2.028 . S
O108 C111 1.247 . S
O109 Zn103 2.035 1_545 S
O109 C111 1.258 . S
C110 O104 1.247 . S
C110 O105 1.258 . S
C111 O108 1.247 . S
C111 O109 1.258 . S
C112 C113 1.387 1_554 S
C112 H116 0.950 . S
C112 C121 1.390 . S
C113 C112 1.387 1_556 S
C113 C115 1.387 1_655 S
H114 C121 0.950 . S
C115 C113 1.387 1_455 S
C115 C117 1.390 . S
C115 H119 0.950 . S
H116 C112 0.950 . S
C117 C115 1.390 . S
C117 C118 1.387 1_556 S
C117 H120 0.950 . S
C118 C117 1.387 1_554 S
C118 C121 1.387 1_455 S
H119 C115 0.950 . S
H120 C117 0.950 . S
C121 C112 1.390 . S
C121 H114 0.950 . S
C121 C118 1.387 1_655 S
C122 C123 1.387 . S
C122 H126 0.950 . S
C122 C131 1.390 . S
C123 C122 1.387 . S
C123 C125 1.387 . S
H124 C131 0.950 . S
C125 C123 1.387 . S
C125 C127 1.390 . S
C125 H129 0.950 . S
H126 C122 0.950 . S
C127 C125 1.390 . S
C127 C128 1.387 . S
C127 H130 0.950 . S
C128 C127 1.387 . S
C128 C131 1.387 . S
H129 C125 0.950 . S
H130 C127 0.950 . S
C131 C122 1.390 . S
C131 H124 0.950 . S
C131 C128 1.387 . S
C132 C133 1.387 1_556 S
C132 H136 0.950 . S
C132 C141 1.390 . S
C133 C132 1.387 1_554 S
C133 C135 1.387 1_565 S
H134 C141 0.950 . S
C135 C133 1.387 1_545 S
C135 C137 1.390 . S
C135 H139 0.950 . S
H136 C132 0.950 . S
C137 C135 1.390 . S
C137 C138 1.387 1_554 S
C137 H140 0.950 . S
C138 C137 1.387 1_556 S
C138 C141 1.387 1_545 S
H139 C135 0.950 . S
H140 C137 0.950 . S
C141 C132 1.390 . S
C141 H134 0.950 . S
C141 C138 1.387 1_565 S
C142 C143 1.387 . S
C142 H146 0.950 . S
C142 C151 1.390 1_655 S
C143 C142 1.387 . S
C143 C145 1.387 1_545 S
H144 C151 0.950 . S
C145 C143 1.387 1_565 S
C145 C147 1.390 1_655 S
C145 H149 0.950 . S
H146 C142 0.950 . S
C147 C145 1.390 1_455 S
C147 C148 1.387 . S
C147 H150 0.950 . S
C148 C147 1.387 . S
C148 C151 1.387 1_565 S
H149 C145 0.950 . S
H150 C147 0.950 . S
C151 C142 1.390 1_455 S
C151 H144 0.950 . S
C151 C148 1.387 1_545 S
C152 C153 1.387 . S
C152 H156 0.950 . S
C152 C161 1.390 . S
C153 C152 1.387 . S
C153 C155 1.387 . S
H154 C161 0.950 . S
C155 C153 1.387 . S
C155 C157 1.390 . S
C155 H159 0.950 . S
H156 C152 0.950 . S
C157 C155 1.390 . S
C157 C158 1.387 . S
C157 H160 0.950 . S
C158 C157 1.387 . S
C158 C161 1.387 . S
H159 C155 0.950 . S
H160 C157 0.950 . S
C161 C152 1.390 . S
C161 H154 0.950 . S
C161 C158 1.387 . S
C162 C163 1.387 . S
C162 H166 0.950 . S
C162 C171 1.390 . S
C163 C162 1.387 . S
C163 C165 1.387 . S
H164 C171 0.950 . S
C165 C163 1.387 . S
C165 C167 1.390 . S
C165 H169 0.950 . S
H166 C162 0.950 . S
C167 C165 1.390 . S
C167 C168 1.387 . S
C167 H170 0.950 . S
C168 C167 1.387 . S
C168 C171 1.387 . S
H169 C165 0.950 . S
H170 C167 0.950 . S
C171 C162 1.390 . S
C171 H164 0.950 . S
C171 C168 1.387 . S
C172 C173 1.387 . S
C172 H176 0.950 . S
C172 C181 1.390 . S
C173 C172 1.387 . S
C173 C175 1.387 . S
H174 C181 0.950 . S
C175 C173 1.387 . S
C175 C177 1.390 . S
C175 H179 0.950 . S
H176 C172 0.950 . S
C177 C175 1.390 . S
C177 C178 1.387 . S
C177 H180 0.950 . S
C178 C177 1.387 . S
C178 C181 1.387 . S
H179 C175 0.950 . S
H180 C177 0.950 . S
C181 C172 1.390 . S
C181 H174 0.950 . S
C181 C178 1.387 . S
C182 C183 1.387 . S
C182 H186 0.950 . S
C182 C191 1.390 . S
C183 C182 1.387 . S
C183 C185 1.387 . S
H184 C191 0.950 . S
C185 C183 1.387 . S
C185 C187 1.390 . S
C185 H189 0.950 . S
H186 C182 0.950 . S
C187 C185 1.390 . S
C187 C188 1.387 . S
C187 H190 0.950 . S
C188 C187 1.387 . S
C188 C191 1.387 . S
H189 C185 0.950 . S
H190 C187 0.950 . S
C191 C182 1.390 . S
C191 H184 0.950 . S
C191 C188 1.387 . S
C192 C193 1.387 . S
C192 H196 0.950 . S
C192 C201 1.390 . S
C193 C192 1.387 . S
C193 C195 1.387 . S
H194 C201 0.950 . S
C195 C193 1.387 . S
C195 C197 1.390 . S
C195 H199 0.950 . S
H196 C192 0.950 . S
C197 C195 1.390 . S
C197 C198 1.387 . S
C197 H200 0.950 . S
C198 C197 1.387 . S
C198 C201 1.387 . S
H199 C195 0.950 . S
H200 C197 0.950 . S
C201 C192 1.390 . S
C201 H194 0.950 . S
C201 C198 1.387 . S
C202 C203 1.387 . S
C202 H206 0.950 . S
C202 C211 1.390 . S
C203 C202 1.387 . S
C203 C205 1.387 . S
H204 C211 0.950 . S
C205 C203 1.387 . S
C205 C207 1.390 . S
C205 H209 0.950 . S
H206 C202 0.950 . S
C207 C205 1.390 . S
C207 C208 1.387 . S
C207 H210 0.950 . S
C208 C207 1.387 . S
C208 C211 1.387 . S
H209 C205 0.950 . S
H210 C207 0.950 . S
C211 C202 1.390 . S
C211 H204 0.950 . S
C211 C208 1.387 . S
C212 C213 1.387 . S
C212 H216 0.950 . S
C212 C221 1.390 . S
C213 C212 1.387 . S
C213 C215 1.387 . S
H214 C221 0.950 . S
C215 C213 1.387 . S
C215 C217 1.390 . S
C215 H219 0.950 . S
H216 C212 0.950 . S
C217 C215 1.390 . S
C217 C218 1.387 . S
C217 H220 0.950 . S
C218 C217 1.387 . S
C218 C221 1.387 . S
H219 C215 0.950 . S
H220 C217 0.950 . S
C221 C212 1.390 . S
C221 H214 0.950 . S
C221 C218 1.387 . S
C222 C223 1.387 . S
C222 H226 0.950 . S
C222 C231 1.390 . S
C223 C222 1.387 . S
C223 C225 1.387 . S
H224 C231 0.950 . S
C225 C223 1.387 . S
C225 C227 1.390 . S
C225 H229 0.950 . S
H226 C222 0.950 . S
C227 C225 1.390 . S
C227 C228 1.387 . S
C227 H230 0.950 . S
C228 C227 1.387 . S
C228 C231 1.387 . S
H229 C225 0.950 . S
H230 C227 0.950 . S
C231 C222 1.390 . S
C231 H224 0.950 . S
C231 C228 1.387 . S
C232 C233 1.387 . S
C232 H236 0.950 . S
C232 C241 1.390 . S
C233 C232 1.387 . S
C233 C235 1.387 . S
H234 C241 0.950 . S
C235 C233 1.387 . S
C235 C237 1.390 . S
C235 H239 0.950 . S
H236 C232 0.950 . S
C237 C235 1.390 . S
C237 C238 1.387 . S
C237 H240 0.950 . S
C238 C237 1.387 . S
C238 C241 1.387 . S
H239 C235 0.950 . S
H240 C237 0.950 . S
C241 C232 1.390 . S
C241 H234 0.950 . S
C241 C238 1.387 . S
C242 C243 1.387 . S
C242 H246 0.950 . S
C242 C251 1.390 . S
C243 C242 1.387 . S
C243 C245 1.387 . S
H244 C251 0.950 . S
C245 C243 1.387 . S
C245 C247 1.390 . S
C245 H249 0.950 . S
H246 C242 0.950 . S
C247 C245 1.390 . S
C247 C248 1.387 . S
C247 H250 0.950 . S
C248 C247 1.387 . S
C248 C251 1.387 . S
H249 C245 0.950 . S
H250 C247 0.950 . S
C251 C242 1.390 . S
C251 H244 0.950 . S
C251 C248 1.387 . S
C252 C253 1.387 . S
C252 H256 0.950 . S
C252 C261 1.390 . S
C253 C252 1.387 . S
C253 C255 1.387 . S
H254 C261 0.950 . S
C255 C253 1.387 . S
C255 C257 1.390 . S
C255 H259 0.950 . S
H256 C252 0.950 . S
C257 C255 1.390 . S
C257 C258 1.387 . S
C257 H260 0.950 1_545 S
C258 C257 1.387 . S
C258 C261 1.387 . S
H259 C255 0.950 . S
H260 C257 0.950 1_565 S
C261 C252 1.390 . S
C261 H254 0.950 . S
C261 C258 1.387 . S
C262 C263 1.387 . S
C262 H266 0.950 . S
C262 C271 1.390 . S
C263 C262 1.387 . S
C263 C265 1.387 . S
H264 C271 0.950 . S
C265 C263 1.387 . S
C265 C267 1.390 . S
C265 H269 0.950 . S
H266 C262 0.950 . S
C267 C265 1.390 . S
C267 C268 1.387 . S
C267 H270 0.950 . S
C268 C267 1.387 . S
C268 C271 1.387 . S
H269 C265 0.950 . S
H270 C267 0.950 . S
C271 C262 1.390 . S
C271 H264 0.950 . S
C271 C268 1.387 . S
C113 C68 1.744 . S
C118 C13 1.744 . S
C123 C27 1.742 . S
C128 C71 1.740 . S
C133 C29 1.741 . S
C138 C84 1.741 . S
C143 C98 1.743 . S
C148 C42 1.741 . S
C153 C0 2.009 . S
C158 C40 2.009 . S
C163 C14 2.009 . S
C168 C55 2.011 . S
C173 C97 2.009 . S
C178 C57 2.009 . S
C183 C82 2.011 . S
C188 C111 2.009 . S
C193 C70 1.497 . S
C198 C1 1.460 . S
C203 C15 1.459 . S
C208 C85 1.496 . S
C213 C41 1.458 . S
C218 C99 1.495 . S
C223 C69 1.496 . S
C228 C54 1.456 . S
C233 C56 1.460 . S
C238 C26 1.496 . S
C243 C83 1.455 . S
C248 C28 1.495 . S
C253 C96 1.460 . S
C258 C43 1.497 . S
C263 C12 1.497 . S
C268 C110 1.460 . S
