# Generated by pormake.
# Topology wmi, (6)-cn, num edge types: 1
# Building blocks:
#     Node 0, Type 0, BuildingBlock: VOLQOD_clean_sbu_1, # of connection points: 6
#     Node 1, Type 0, BuildingBlock: VOLQOD_clean_sbu_1, # of connection points: 6
#     Node 2, Type 0, BuildingBlock: VOLQOD_clean_sbu_1, # of connection points: 6
#     Node 3, Type 0, BuildingBlock: VOLQOD_clean_sbu_1, # of connection points: 6
#     Node 4, Type 0, BuildingBlock: VOLQOD_clean_sbu_1, # of connection points: 6
#     Node 5, Type 0, BuildingBlock: VOLQOD_clean_sbu_1, # of connection points: 6
#     Node 6, Type 0, BuildingBlock: VOLQOD_clean_sbu_1, # of connection points: 6
#     Node 7, Type 0, BuildingBlock: VOLQOD_clean_sbu_1, # of connection points: 6
#     Node 8, Type 0, BuildingBlock: VOLQOD_clean_sbu_1, # of connection points: 6
#     Node 9, Type 0, BuildingBlock: VOLQOD_clean_sbu_1, # of connection points: 6
#     Node 10, Type 0, BuildingBlock: VOLQOD_clean_sbu_1, # of connection points: 6
#     Node 11, Type 0, BuildingBlock: VOLQOD_clean_sbu_1, # of connection points: 6
#     Node 12, Type 0, BuildingBlock: VOLQOD_clean_sbu_1, # of connection points: 6
#     Node 13, Type 0, BuildingBlock: VOLQOD_clean_sbu_1, # of connection points: 6
#     Node 14, Type 0, BuildingBlock: VOLQOD_clean_sbu_1, # of connection points: 6
#     Node 15, Type 0, BuildingBlock: VOLQOD_clean_sbu_1, # of connection points: 6
#     Node 16, Type 0, BuildingBlock: VOLQOD_clean_sbu_1, # of connection points: 6
#     Node 17, Type 0, BuildingBlock: VOLQOD_clean_sbu_1, # of connection points: 6
#     Edge 18, Type (0, 0), BuildingBlock: EZIPEK_clean_linker_0, # of connection points: 2
#     Edge 19, Type (0, 0), BuildingBlock: EZIPEK_clean_linker_0, # of connection points: 2
#     Edge 20, Type (0, 0), BuildingBlock: EZIPEK_clean_linker_0, # of connection points: 2
#     Edge 21, Type (0, 0), BuildingBlock: EZIPEK_clean_linker_0, # of connection points: 2
#     Edge 22, Type (0, 0), BuildingBlock: EZIPEK_clean_linker_0, # of connection points: 2
#     Edge 23, Type (0, 0), BuildingBlock: EZIPEK_clean_linker_0, # of connection points: 2
#     Edge 24, Type (0, 0), BuildingBlock: EZIPEK_clean_linker_0, # of connection points: 2
#     Edge 25, Type (0, 0), BuildingBlock: EZIPEK_clean_linker_0, # of connection points: 2
#     Edge 26, Type (0, 0), BuildingBlock: EZIPEK_clean_linker_0, # of connection points: 2
#     Edge 27, Type (0, 0), BuildingBlock: EZIPEK_clean_linker_0, # of connection points: 2
#     Edge 28, Type (0, 0), BuildingBlock: EZIPEK_clean_linker_0, # of connection points: 2
#     Edge 29, Type (0, 0), BuildingBlock: EZIPEK_clean_linker_0, # of connection points: 2
#     Edge 30, Type (0, 0), BuildingBlock: EZIPEK_clean_linker_0, # of connection points: 2
#     Edge 31, Type (0, 0), BuildingBlock: EZIPEK_clean_linker_0, # of connection points: 2
#     Edge 32, Type (0, 0), BuildingBlock: EZIPEK_clean_linker_0, # of connection points: 2
#     Edge 33, Type (0, 0), BuildingBlock: EZIPEK_clean_linker_0, # of connection points: 2
#     Edge 34, Type (0, 0), BuildingBlock: EZIPEK_clean_linker_0, # of connection points: 2
#     Edge 35, Type (0, 0), BuildingBlock: EZIPEK_clean_linker_0, # of connection points: 2
#     Edge 36, Type (0, 0), BuildingBlock: EZIPEK_clean_linker_0, # of connection points: 2
#     Edge 37, Type (0, 0), BuildingBlock: EZIPEK_clean_linker_0, # of connection points: 2
#     Edge 38, Type (0, 0), BuildingBlock: EZIPEK_clean_linker_0, # of connection points: 2
#     Edge 39, Type (0, 0), BuildingBlock: EZIPEK_clean_linker_0, # of connection points: 2
#     Edge 40, Type (0, 0), BuildingBlock: EZIPEK_clean_linker_0, # of connection points: 2
#     Edge 41, Type (0, 0), BuildingBlock: EZIPEK_clean_linker_0, # of connection points: 2
#     Edge 42, Type (0, 0), BuildingBlock: EZIPEK_clean_linker_0, # of connection points: 2
#     Edge 43, Type (0, 0), BuildingBlock: EZIPEK_clean_linker_0, # of connection points: 2
#     Edge 44, Type (0, 0), BuildingBlock: EZIPEK_clean_linker_0, # of connection points: 2
#     Edge 45, Type (0, 0), BuildingBlock: EZIPEK_clean_linker_0, # of connection points: 2
#     Edge 46, Type (0, 0), BuildingBlock: EZIPEK_clean_linker_0, # of connection points: 2
#     Edge 47, Type (0, 0), BuildingBlock: EZIPEK_clean_linker_0, # of connection points: 2
#     Edge 48, Type (0, 0), BuildingBlock: EZIPEK_clean_linker_0, # of connection points: 2
#     Edge 49, Type (0, 0), BuildingBlock: EZIPEK_clean_linker_0, # of connection points: 2
#     Edge 50, Type (0, 0), BuildingBlock: EZIPEK_clean_linker_0, # of connection points: 2
#     Edge 51, Type (0, 0), BuildingBlock: EZIPEK_clean_linker_0, # of connection points: 2
#     Edge 52, Type (0, 0), BuildingBlock: EZIPEK_clean_linker_0, # of connection points: 2
#     Edge 53, Type (0, 0), BuildingBlock: EZIPEK_clean_linker_0, # of connection points: 2
#     Edge 54, Type (0, 0), BuildingBlock: EZIPEK_clean_linker_0, # of connection points: 2
#     Edge 55, Type (0, 0), BuildingBlock: EZIPEK_clean_linker_0, # of connection points: 2
#     Edge 56, Type (0, 0), BuildingBlock: EZIPEK_clean_linker_0, # of connection points: 2
#     Edge 57, Type (0, 0), BuildingBlock: EZIPEK_clean_linker_0, # of connection points: 2
#     Edge 58, Type (0, 0), BuildingBlock: EZIPEK_clean_linker_0, # of connection points: 2
#     Edge 59, Type (0, 0), BuildingBlock: EZIPEK_clean_linker_0, # of connection points: 2
#     Edge 60, Type (0, 0), BuildingBlock: EZIPEK_clean_linker_0, # of connection points: 2
#     Edge 61, Type (0, 0), BuildingBlock: EZIPEK_clean_linker_0, # of connection points: 2
#     Edge 62, Type (0, 0), BuildingBlock: EZIPEK_clean_linker_0, # of connection points: 2
#     Edge 63, Type (0, 0), BuildingBlock: EZIPEK_clean_linker_0, # of connection points: 2
#     Edge 64, Type (0, 0), BuildingBlock: EZIPEK_clean_linker_0, # of connection points: 2
#     Edge 65, Type (0, 0), BuildingBlock: EZIPEK_clean_linker_0, # of connection points: 2
#     Edge 66, Type (0, 0), BuildingBlock: EZIPEK_clean_linker_0, # of connection points: 2
#     Edge 67, Type (0, 0), BuildingBlock: EZIPEK_clean_linker_0, # of connection points: 2
#     Edge 68, Type (0, 0), BuildingBlock: EZIPEK_clean_linker_0, # of connection points: 2
#     Edge 69, Type (0, 0), BuildingBlock: EZIPEK_clean_linker_0, # of connection points: 2
#     Edge 70, Type (0, 0), BuildingBlock: EZIPEK_clean_linker_0, # of connection points: 2
#     Edge 71, Type (0, 0), BuildingBlock: EZIPEK_clean_linker_0, # of connection points: 2
# Relax obj value: 0.312
# Max RMSD: 0.231
# Mean RMSD: 0.231
data_MOF--net-wmi--node1-VOLQOD_clean_sbu_1--edge1-EZIPEK_clean_linker_0
_symmetry_space_group_name_H-M    P1
_symmetry_Int_Tables_number       1
_symmetry_cell_setting            triclinic
loop_
_symmetry_equiv_pos_as_xyz
'x, y, z'
_cell_length_a     23.981076
_cell_length_b     24.012957
_cell_length_c     75.129289
_cell_angle_alpha  89.975736
_cell_angle_beta   89.887658
_cell_angle_gamma 119.94644
loop_
_atom_site_label
_atom_site_type_symbol
_atom_site_fract_x
_atom_site_fract_y
_atom_site_fract_z
_atom_type_partial_charge
O0 O 0.54195 0.07111 0.09266 0.0
Zn1 Zn 0.4619 -0.01293 0.09704 0.0
O2 O 0.40242 0.96772 0.07779 0.0
Zn3 Zn 0.33202 0.97824 0.08534 0.0
Zn4 Zn 0.44945 0.02507 0.05927 0.0
Zn5 Zn 0.37052 0.88341 0.06919 0.0
O6 O 0.24727 0.90136 0.07924 0.0
O7 O 0.28245 0.83088 0.07883 0.0
O8 O 0.41982 0.98176 0.12074 0.0
O9 O 0.32964 0.97812 0.11177 0.0
O10 O 0.34542 0.06352 0.07747 0.0
O11 O 0.43487 0.09891 0.06123 0.0
O12 O 0.42385 0.98347 0.03543 0.0
O13 O 0.49443 0.92559 0.09642 0.0
O14 O 0.36594 0.8798 0.04248 0.0
O15 O 0.43052 0.85288 0.07655 0.0
C16 C 0.57198 0.08377 0.07787 0.0
C17 C 0.23745 0.84419 0.08032 0.0
C18 C 0.39187 0.10735 0.06858 0.0
C19 C 0.36598 0.97821 0.12404 0.0
C20 C 0.39065 0.9247 0.031 0.0
C21 C 0.47784 0.87528 0.08727 0.0
O22 O 0.54323 0.05988 0.06326 0.0
O23 O 0.8695 0.46342 0.09096 0.0
Zn24 Zn 0.95027 0.46303 0.09874 0.0
O25 O 0.97677 0.4238 0.08078 0.0
Zn26 Zn 0.9694 0.34554 0.08883 0.0
Zn27 Zn 0.92412 0.40802 0.06098 0.0
Zn28 Zn 0.06226 0.4779 0.07358 0.0
O29 O 0.04812 0.34036 0.08228 0.0
O30 O 0.1153 0.44611 0.08469 0.0
O31 O 0.95125 0.42638 0.123 0.0
O32 O 0.97274 0.34958 0.11494 0.0
O33 O 0.88265 0.27171 0.08234 0.0
O34 O 0.84963 0.3206 0.06336 0.0
O35 O 0.97091 0.41851 0.03834 0.0
O36 O 0.01306 0.55665 0.09936 0.0
O37 O 0.07268 0.47407 0.04727 0.0
O38 O 0.08855 0.5677 0.08006 0.0
C39 C 0.86378 0.47885 0.07505 0.0
C40 C 0.10437 0.3885 0.08457 0.0
C41 C 0.83956 0.27176 0.07245 0.0
C42 C 0.96448 0.3824 0.12679 0.0
C43 C 0.03092 0.44772 0.03508 0.0
C44 C 0.06424 0.59131 0.0906 0.0
O45 O 0.89127 0.46879 0.06194 0.0
O46 O 0.49021 0.40285 0.08916 0.0
Zn47 Zn 0.49169 0.48477 0.09434 0.0
O48 O 0.534 0.54554 0.07539 0.0
Zn49 Zn 0.61409 0.61701 0.08338 0.0
Zn50 Zn 0.54902 0.50399 0.05609 0.0
Zn51 Zn 0.47998 0.57714 0.06739 0.0
O52 O 0.6182 0.7011 0.07822 0.0
O53 O 0.51205 0.66279 0.07782 0.0
O54 O 0.52915 0.52428 0.1181 0.0
O55 O 0.61538 0.616 0.10977 0.0
O56 O 0.68983 0.61085 0.07432 0.0
O57 O 0.64076 0.52816 0.05611 0.0
O58 O 0.529 0.53027 0.03283 0.0
O59 O 0.39822 0.45561 0.09469 0.0
O60 O 0.484 0.588 0.04097 0.0
O61 O 0.38882 0.51762 0.07434 0.0
C62 C 0.48416 0.37689 0.07395 0.0
C63 C 0.56951 0.70886 0.07945 0.0
C64 C 0.69198 0.57145 0.06338 0.0
C65 C 0.57878 0.57799 0.12176 0.0
C66 C 0.50428 0.56491 0.02906 0.0
C67 C 0.36418 0.47194 0.08559 0.0
O68 O 0.49881 0.40923 0.05956 0.0
O69 O 0.08255 0.57652 0.89249 0.0
Zn70 Zn -0.00097 0.49097 0.89484 0.0
O71 O 0.00541 0.43814 0.91312 0.0
Zn72 Zn 0.0029 0.36333 0.90357 0.0
Zn73 Zn 0.08558 0.48991 0.9234 0.0
Zn74 Zn 0.94541 0.41897 0.93177 0.0
O75 O 0.93476 0.2841 0.91615 0.0
O76 O 0.88302 0.32634 0.93024 0.0
O77 O 0.96813 0.44083 0.87193 0.0
O78 O 0.97604 0.35471 0.87823 0.0
O79 O 0.09118 0.3736 0.90246 0.0
O80 O 0.14977 0.47657 0.91037 0.0
O81 O 0.0895 0.47238 0.94906 0.0
O82 O 0.93484 0.51545 0.90255 0.0
O83 O -0.01347 0.43443 0.95567 0.0
O84 O 0.90142 0.47056 0.92931 0.0
C85 C 0.10969 0.60807 0.90656 0.0
C86 C 0.88634 0.27768 0.92493 0.0
C87 C 0.14502 0.42538 0.90392 0.0
C88 C 0.96286 0.38723 0.86741 0.0
C89 C 0.04416 0.45339 0.96032 0.0
C90 C 0.90199 0.50612 0.91667 0.0
O91 O 0.10313 0.57893 0.92118 0.0
O92 O 0.43734 0.484 0.88536 0.0
Zn93 Zn 0.52823 0.5059 0.88973 0.0
O94 O 0.56718 0.57018 0.90838 0.0
Zn95 Zn 0.6488 0.64091 0.90043 0.0
Zn96 Zn 0.51057 0.60021 0.91567 0.0
Zn97 Zn 0.58175 0.53215 0.92878 0.0
O98 O 0.72401 0.64136 0.91232 0.0
O99 O 0.67181 0.55168 0.92827 0.0
O100 O 0.57778 0.53559 0.86662 0.0
O101 O 0.66082 0.62933 0.87482 0.0
O102 O 0.64901 0.72445 0.90103 0.0
O103 O 0.54503 0.68843 0.90661 0.0
O104 O 0.50219 0.60242 0.94224 0.0
O105 O 0.51885 0.42259 0.89815 0.0
O106 O 0.56139 0.56049 0.95146 0.0
O107 O 0.52949 0.43731 0.92751 0.0
C108 C 0.40195 0.50096 0.8936 0.0
C109 C 0.72344 0.59702 0.92175 0.0
C110 C 0.6009 0.73309 0.90223 0.0
C111 C 0.63026 0.58689 0.86307 0.0
C112 C 0.52698 0.58588 0.95462 0.0
C113 C 0.51343 0.40107 0.91395 0.0
O114 O 0.42356 0.54356 0.9057 0.0
O115 O 0.5465 0.9702 0.88931 0.0
Zn116 Zn 0.52057 0.03576 0.89401 0.0
O117 O 0.45456 0.00401 0.91189 0.0
Zn118 Zn 0.38183 0.01102 0.90507 0.0
Zn119 Zn 0.42564 0.91822 0.91762 0.0
Zn120 Zn 0.49241 0.05174 0.93243 0.0
O121 O 0.39067 0.0921 0.91552 0.0
O122 O 0.48191 0.12796 0.93088 0.0
O123 O 0.48754 0.05267 0.87123 0.0
O124 O 0.38695 0.02502 0.87885 0.0
O125 O 0.29906 0.92737 0.91021 0.0
O126 O 0.34306 0.86621 0.90529 0.0
O127 O 0.40907 0.90181 0.94396 0.0
O128 O 0.60304 0.11021 0.90348 0.0
O129 O 0.45202 0.00144 0.95434 0.0
O130 O 0.58548 0.07927 0.93179 0.0
C131 C 0.5333 0.91914 0.89769 0.0
C132 C 0.43791 0.13617 0.92412 0.0
C133 C 0.29386 0.87291 0.90676 0.0
C134 C 0.43168 0.04308 0.86732 0.0
C135 C 0.42168 0.94099 0.95676 0.0
C136 C 0.62385 0.10963 0.91907 0.0
O137 O 0.48995 0.89513 0.90963 0.0
O138 O 0.23758 0.43095 0.4281 0.0
Zn139 Zn 0.15291 0.34886 0.43239 0.0
O140 O 0.09218 0.33666 0.41384 0.0
Zn141 Zn 0.01885 0.33842 0.42286 0.0
Zn142 Zn 0.13591 0.40594 0.39862 0.0
Zn143 Zn 0.07126 0.26537 0.39917 0.0
O144 O 0.93779 0.262 0.41393 0.0
O145 O -0.01885 0.20335 0.40458 0.0
O146 O 0.11269 0.34145 0.4568 0.0
O147 O 0.01651 0.32672 0.44903 0.0
O148 O 0.02871 0.42624 0.41979 0.0
O149 O 0.12758 0.47738 0.40815 0.0
O150 O 0.10574 0.38901 0.37371 0.0
O151 O 0.17833 0.28158 0.42982 0.0
O152 O 0.07624 0.28558 0.37307 0.0
O153 O 0.12914 0.23037 0.40486 0.0
C154 C 0.26163 0.44434 0.41245 0.0
C155 C 0.93288 0.20897 0.40893 0.0
C156 C 0.0798 0.47773 0.41537 0.0
C157 C 0.05622 0.33037 0.46077 0.0
C158 C 0.08699 0.33699 0.36527 0.0
C159 C 0.16768 0.24054 0.41768 0.0
O160 O 0.22586 0.42642 0.39881 0.0
O161 O 0.59572 0.83088 0.43328 0.0
Zn162 Zn 0.67329 0.82243 0.42852 0.0
O163 O 0.66446 0.77354 0.40756 0.0
Zn164 Zn 0.66266 0.69469 0.41371 0.0
Zn165 Zn 0.5879 0.75701 0.39649 0.0
Zn166 Zn 0.73103 0.82243 0.39103 0.0
O167 O 0.74601 0.69991 0.40591 0.0
O168 O 0.79745 0.79942 0.39478 0.0
O169 O 0.6945 0.78582 0.44966 0.0
O170 O 0.66351 0.68671 0.44033 0.0
O171 O 0.57998 0.61778 0.40537 0.0
O172 O 0.52393 0.66866 0.40269 0.0
O173 O 0.59499 0.76123 0.36993 0.0
O174 O 0.73806 0.91317 0.4242 0.0
O175 O 0.70032 0.80347 0.36596 0.0
O176 O 0.76879 0.9158 0.3961 0.0
C177 C 0.56233 0.83732 0.42119 0.0
C178 C 0.79682 0.74888 0.40004 0.0
C179 C 0.52668 0.6173 0.40417 0.0
C180 C 0.68295 0.72874 0.4526 0.0
C181 C 0.64365 0.7798 0.35982 0.0
C182 C 0.76858 0.94405 0.41041 0.0
O183 O 0.5602 0.81718 0.40542 0.0
O184 O 0.16602 0.77618 0.43436 0.0
Zn185 Zn 0.17561 0.8627 0.43111 0.0
O186 O 0.23481 0.90945 0.41201 0.0
Zn187 Zn 0.30888 0.98441 0.42156 0.0
Zn188 Zn 0.25949 0.85481 0.40071 0.0
Zn189 Zn 0.19359 0.93323 0.39439 0.0
O190 O 0.30819 0.06512 0.41441 0.0
O191 O 0.2153 0.0223 0.39961 0.0
O192 O 0.20108 0.91014 0.4543 0.0
O193 O 0.30132 0.98517 0.44787 0.0
O194 O 0.39031 0.98087 0.4182 0.0
O195 O 0.34534 0.87829 0.40978 0.0
O196 O 0.26243 0.86273 0.37411 0.0
O197 O 0.08735 0.84063 0.42425 0.0
O198 O 0.21857 0.92416 0.36965 0.0
O199 O 0.09843 0.87745 0.39651 0.0
C200 C 0.16986 0.74128 0.42228 0.0
C201 C 0.26247 0.06964 0.40721 0.0
C202 C 0.39314 0.92997 0.41542 0.0
C203 C 0.25561 0.95644 0.45894 0.0
C204 C 0.24423 0.89252 0.36378 0.0
C205 C 0.06355 0.84543 0.40963 0.0
O206 O 0.19886 0.7642 0.40761 0.0
O207 O 0.72676 0.88691 0.21438 0.0
Zn208 Zn 0.64391 0.80235 0.21499 0.0
O209 O 0.63726 0.75174 0.2357 0.0
Zn210 Zn 0.64169 0.67602 0.22979 0.0
Zn211 Zn 0.70575 0.80685 0.25048 0.0
Zn212 Zn 0.56055 0.72706 0.24862 0.0
O213 O 0.56104 0.59499 0.23759 0.0
O214 O 0.49811 0.63745 0.24249 0.0
O215 O 0.6306 0.75047 0.19275 0.0
O216 O 0.63779 0.66746 0.20339 0.0
O217 O 0.72643 0.68493 0.23781 0.0
O218 O 0.77489 0.787 0.24673 0.0
O219 O 0.68153 0.79472 0.2761 0.0
O220 O 0.58071 0.83296 0.21737 0.0
O221 O 0.5752 0.73249 0.27494 0.0
O222 O 0.52781 0.78563 0.2423 0.0
C223 C 0.74958 0.92165 0.2282 0.0
C224 C 0.5057 0.58937 0.23983 0.0
C225 C 0.77668 0.73659 0.24257 0.0
C226 C 0.63101 0.69799 0.19053 0.0
C227 C 0.62715 0.76307 0.28371 0.0
C228 C 0.54021 0.8248 0.22949 0.0
O229 O 0.73795 0.89756 0.24374 0.0
O230 O 0.07432 0.84494 0.22532 0.0
Zn231 Zn 0.15656 0.84284 0.22135 0.0
O232 O 0.21672 0.88672 0.24015 0.0
Zn233 Zn 0.28725 0.96677 0.23242 0.0
Zn234 Zn 0.1679 0.89964 0.25704 0.0
Zn235 Zn 0.24576 0.83596 0.25128 0.0
O236 O 0.37132 0.97166 0.23857 0.0
O237 O 0.33294 0.86606 0.24205 0.0
O238 O 0.19913 0.87718 0.19754 0.0
O239 O 0.28845 0.96601 0.20591 0.0
O240 O 0.27505 0.04068 0.2402 0.0
O241 O 0.17606 0.98326 0.25135 0.0
O242 O 0.1978 0.89987 0.28177 0.0
O243 O 0.1262 0.74925 0.22345 0.0
O244 O 0.252 0.84809 0.27778 0.0
O245 O 0.18436 0.744 0.24582 0.0
C246 C 0.04536 0.82514 0.24022 0.0
C247 C 0.37906 0.92283 0.23921 0.0
C248 C 0.2224 0.03605 0.2456 0.0
C249 C 0.25246 0.92762 0.19392 0.0
C250 C 0.23078 0.87601 0.28781 0.0
C251 C 0.13975 0.7172 0.23432 0.0
O252 O 0.07676 0.8315 0.2544 0.0
O253 O 0.11205 0.22521 0.22489 0.0
Zn254 Zn 0.11599 0.3108 0.22162 0.0
O255 O 0.07218 0.32617 0.2409 0.0
Zn256 Zn -0.00487 0.32315 0.23323 0.0
Zn257 Zn 0.05107 0.25873 0.25665 0.0
Zn258 Zn 0.12466 0.40223 0.25351 0.0
O259 O -0.00915 0.40072 0.24148 0.0
O260 O 0.09619 0.46352 0.24666 0.0
O261 O 0.08215 0.32142 0.19785 0.0
O262 O 0.00055 0.33338 0.20727 0.0
O263 O 0.91857 0.23488 0.23657 0.0
O264 O 0.96815 0.18645 0.24865 0.0
O265 O 0.04818 0.28204 0.28178 0.0
O266 O 0.21019 0.37338 0.22373 0.0
O267 O 0.11337 0.38778 0.27992 0.0
O268 O 0.21655 0.43396 0.24699 0.0
C269 C 0.12746 0.21207 0.23992 0.0
C270 C 0.0406 0.45596 0.24363 0.0
C271 C 0.91946 0.18428 0.24124 0.0
C272 C 0.03548 0.33142 0.19489 0.0
C273 C 0.07945 0.33701 0.28899 0.0
C274 C 0.2429 0.41796 0.23481 0.0
O275 O 0.11782 0.23405 0.25425 0.0
O276 O 0.90442 0.75985 0.76142 0.0
Zn277 Zn 0.82525 0.67288 0.76304 0.0
O278 O 0.76436 0.66111 0.74513 0.0
Zn279 Zn 0.69654 0.67112 0.75466 0.0
Zn280 Zn 0.81632 0.72707 0.72979 0.0
Zn281 Zn 0.73388 0.58443 0.7323 0.0
O282 O 0.61117 0.59685 0.74732 0.0
O283 O 0.64544 0.52783 0.74085 0.0
O284 O 0.78397 0.65322 0.78711 0.0
O285 O 0.69666 0.66018 0.78101 0.0
O286 O 0.71187 0.76024 0.74939 0.0
O287 O 0.81011 0.80181 0.73768 0.0
O288 O 0.78953 0.7062 0.70459 0.0
O289 O 0.85883 0.61511 0.75727 0.0
O290 O 0.72951 0.59981 0.70619 0.0
O291 O 0.79356 0.54937 0.73634 0.0
C292 C 0.93559 0.77039 0.7469 0.0
C293 C 0.60089 0.53996 0.7448 0.0
C294 C 0.76489 0.80843 0.74434 0.0
C295 C 0.73186 0.65086 0.79187 0.0
C296 C 0.75469 0.65191 0.6973 0.0
C297 C 0.84244 0.56887 0.74648 0.0
O298 O 0.90612 0.74588 0.73247 0.0
O299 O 0.25504 0.15697 0.77388 0.0
Zn300 Zn 0.33849 0.15874 0.77121 0.0
O301 O 0.33986 0.11102 0.75088 0.0
Zn302 Zn 0.33782 0.03312 0.75813 0.0
Zn303 Zn 0.26764 0.09485 0.73729 0.0
Zn304 Zn 0.41296 0.16093 0.7364 0.0
O305 O 0.41427 0.02986 0.74842 0.0
O306 O 0.4761 0.13374 0.74157 0.0
O307 O 0.36091 0.12875 0.79335 0.0
O308 O 0.35094 0.03559 0.78455 0.0
O309 O 0.2525 0.95572 0.75198 0.0
O310 O 0.20149 0.00583 0.74205 0.0
O311 O 0.28551 0.10327 0.71112 0.0
O312 O 0.39847 0.25133 0.76707 0.0
O313 O 0.39187 0.14703 0.71048 0.0
O314 O 0.44784 0.25356 0.74175 0.0
C315 C 0.22729 0.16609 0.76073 0.0
C316 C 0.46879 0.07845 0.74473 0.0
C317 C 0.2015 0.95513 0.74693 0.0
C318 C 0.36217 0.07735 0.79653 0.0
C319 C 0.33803 0.12408 0.70261 0.0
C320 C 0.4372 0.28193 0.75449 0.0
O321 O 0.23479 0.15236 0.74489 0.0
O322 O 0.86149 0.10686 0.76699 0.0
Zn323 Zn 0.85169 0.1858 0.76746 0.0
O324 O 0.90258 0.24622 0.74918 0.0
Zn325 Zn 0.97502 0.31823 0.75959 0.0
Zn326 Zn 0.9283 0.19911 0.7351 0.0
Zn327 Zn 0.85499 0.26972 0.73398 0.0
O328 O -0.01292 0.40001 0.74865 0.0
O329 O 0.88852 0.36276 0.73742 0.0
O330 O 0.86847 0.22903 0.79139 0.0
O331 O 0.95647 0.32188 0.78534 0.0
O332 O 0.05168 0.30588 0.7591 0.0
O333 O 0.01017 0.21223 0.74473 0.0
O334 O 0.93603 0.22005 0.70939 0.0
O335 O 0.76016 0.15225 0.76158 0.0
O336 O 0.86811 0.25743 0.70817 0.0
O337 O 0.76116 0.215 0.73952 0.0
C338 C 0.85106 0.07739 0.75219 0.0
C339 C 0.94353 0.40908 0.74188 0.0
C340 C 0.05503 0.25752 0.75356 0.0
C341 C 0.91324 0.28424 0.79622 0.0
C342 C 0.90436 0.24001 0.7006 0.0
C343 C 0.73124 0.16879 0.75047 0.0
O344 O 0.86244 0.10782 0.7376 0.0
O345 O 0.39559 0.22617 0.55434 0.0
Zn346 Zn 0.31494 0.14234 0.55779 0.0
O347 O 0.31873 0.09565 0.57795 0.0
Zn348 Zn 0.32235 0.0212 0.56994 0.0
Zn349 Zn 0.39246 0.15291 0.59073 0.0
Zn350 Zn 0.24737 0.07222 0.5933 0.0
O351 O 0.23835 0.94028 0.576 0.0
O352 O 0.18246 0.98368 0.58726 0.0
O353 O 0.29188 0.08941 0.53573 0.0
O354 O 0.32289 0.01943 0.54322 0.0
O355 O 0.4057 0.02618 0.57767 0.0
O356 O 0.45829 0.13002 0.58503 0.0
O357 O 0.37753 0.14513 0.6171 0.0
O358 O 0.25389 0.17246 0.56265 0.0
O359 O 0.27176 0.07927 0.61897 0.0
O360 O 0.21117 0.12973 0.58892 0.0
C361 C 0.42566 0.2637 0.56717 0.0
C362 C 0.18554 0.93591 0.58118 0.0
C363 C 0.45774 0.07818 0.58114 0.0
C364 C 0.30308 0.04442 0.53172 0.0
C365 C 0.32655 0.11254 0.62621 0.0
C366 C 0.21823 0.16639 0.57585 0.0
O367 O 0.42287 0.2428 0.58289 0.0
O368 O 0.75413 0.18863 0.55994 0.0
Zn369 Zn 0.83969 0.19143 0.55647 0.0
O370 O 0.89658 0.23228 0.5762 0.0
Zn371 Zn 0.96962 0.31219 0.56978 0.0
Zn372 Zn 0.84584 0.2469 0.59159 0.0
Zn373 Zn 0.91806 0.17908 0.5892 0.0
O374 O 0.04998 0.31562 0.5788 0.0
O375 O 0.00874 0.21016 0.5836 0.0
O376 O 0.8868 0.22995 0.53336 0.0
O377 O 0.97826 0.31294 0.54333 0.0
O378 O 0.95642 0.38621 0.57658 0.0
O379 O 0.85303 0.32789 0.58408 0.0
O380 O 0.87142 0.25247 0.61682 0.0
O381 O 0.81297 0.09893 0.55709 0.0
O382 O 0.91295 0.18816 0.61568 0.0
O383 O 0.86026 0.08851 0.58148 0.0
C384 C 0.72532 0.16857 0.57487 0.0
C385 C 0.05632 0.26659 0.58141 0.0
C386 C 0.90181 0.38119 0.57971 0.0
C387 C 0.9429 0.27799 0.53069 0.0
C388 C 0.89558 0.2223 0.62442 0.0
C389 C 0.82243 0.06476 0.56825 0.0
O390 O 0.75702 0.17631 0.58903 0.0
O391 O 0.79855 0.57344 0.55566 0.0
Zn392 Zn 0.80052 0.65834 0.55363 0.0
O393 O 0.74953 0.66634 0.57238 0.0
Zn394 Zn 0.67497 0.66502 0.5629 0.0
Zn395 Zn 0.72325 0.59504 0.58687 0.0
Zn396 Zn 0.79882 0.73646 0.58768 0.0
O397 O 0.67876 0.74881 0.56878 0.0
O398 O 0.77676 0.80192 0.58105 0.0
O399 O 0.77323 0.67337 0.52948 0.0
O400 O 0.68041 0.66727 0.53654 0.0
O401 O 0.5938 0.58096 0.56792 0.0
O402 O 0.64088 0.52673 0.57769 0.0
O403 O 0.71467 0.60964 0.61239 0.0
O404 O 0.8931 0.72266 0.55757 0.0
O405 O 0.7798 0.71512 0.61361 0.0
O406 O 0.89226 0.76896 0.58323 0.0
C407 C 0.80673 0.55474 0.57082 0.0
C408 C 0.72735 0.80048 0.57437 0.0
C409 C 0.59229 0.52837 0.57164 0.0
C410 C 0.7222 0.67392 0.52506 0.0
C411 C 0.74345 0.66154 0.62115 0.0
C412 C 0.92209 0.76032 0.57047 0.0
O413 O 0.78931 0.57029 0.58503 0.0
C414 C 0.5279 0.81743 0.10204 0.0
C415 C 0.52055 0.84801 0.08681 0.0
C416 C 0.57671 0.80825 0.06821 0.0
C417 C 0.57729 0.7721 0.08292 0.0
N418 N 0.57492 0.75662 0.11446 0.0
N419 N 0.55516 0.89042 0.05714 0.0
C420 C 0.56093 0.78258 0.10016 0.0
C421 C 0.55116 0.84967 0.07045 0.0
N422 N 0.49949 0.81781 0.1178 0.0
N423 N 0.59624 0.79903 0.05192 0.0
H424 H 0.53648 0.92126 0.05839 0.0
H425 H 0.5814 0.89767 0.04548 0.0
H426 H 0.61772 0.77075 0.0503 0.0
H427 H 0.58953 0.81739 0.04007 0.0
H428 H 0.49751 0.79086 0.12888 0.0
H429 H 0.47471 0.84281 0.11958 0.0
H430 H 0.56806 0.76521 0.12764 0.0
H431 H 0.59892 0.73063 0.11298 0.0
C432 C 0.1319 0.75484 0.07101 0.0
C433 C 0.17374 0.79116 0.0849 0.0
C434 C 0.12665 0.69899 0.10491 0.0
C435 C 0.09074 0.66091 0.09031 0.0
N436 N 0.04021 0.65336 0.06203 0.0
N437 N 0.19659 0.80685 0.11615 0.0
C438 C 0.08666 0.6894 0.07421 0.0
C439 C 0.16539 0.76615 0.10235 0.0
N440 N 0.13887 0.78194 0.05458 0.0
N441 N 0.12709 0.67057 0.12063 0.0
H442 H 0.2251 0.85635 0.11421 0.0
H443 H 0.18975 0.79279 0.12945 0.0
H444 H 0.09813 0.62134 0.12289 0.0
H445 H 0.15779 0.69507 0.13115 0.0
H446 H 0.11517 0.75612 0.04324 0.0
H447 H 0.17045 0.83076 0.0523 0.0
H448 H 0.03182 0.6723 0.05055 0.0
H449 H 0.00614 0.60518 0.06429 0.0
C450 C 0.19186 0.37822 0.07062 0.0
C451 C 0.16056 0.38039 0.08632 0.0
C452 C 0.26133 0.42955 0.10284 0.0
C453 C 0.29376 0.43284 0.08672 0.0
N454 N 0.29007 0.39371 0.05688 0.0
N455 N 0.15846 0.38736 0.1181 0.0
C456 C 0.25889 0.40127 0.07113 0.0
C457 C 0.1932 0.39829 0.10277 0.0
N458 N 0.15824 0.35871 0.05503 0.0
N459 N 0.29552 0.4603 0.11774 0.0
H460 H 0.10826 0.36472 0.11798 0.0
H461 H 0.17828 0.39516 0.13079 0.0
H462 H 0.34564 0.48459 0.11824 0.0
H463 H 0.2746 0.46528 0.12933 0.0
H464 H 0.17962 0.36407 0.0426 0.0
H465 H 0.10841 0.33893 0.05455 0.0
H466 H 0.26653 0.36602 0.04579 0.0
H467 H 0.33951 0.41097 0.05678 0.0
C468 C 0.8072 0.51068 0.90565 0.0
C469 C 0.8593 0.53329 0.91768 0.0
C470 C 0.82576 0.60342 0.93204 0.0
C471 C 0.77587 0.58313 0.91937 0.0
N472 N 0.72619 0.52799 0.89195 0.0
N473 N 0.92579 0.60808 0.94035 0.0
C474 C 0.76917 0.54038 0.90542 0.0
C475 C 0.87093 0.58179 0.93034 0.0
N476 N 0.79169 0.45833 0.89515 0.0
N477 N 0.82877 0.64183 0.94585 0.0
H478 H 0.95978 0.59317 0.9394 0.0
H479 H 0.94006 0.64776 0.94858 0.0
H480 H 0.7976 0.66022 0.94692 0.0
H481 H 0.85965 0.65268 0.95664 0.0
H482 H 0.7495 0.43491 0.88774 0.0
H483 H 0.81774 0.43419 0.89509 0.0
H484 H 0.72472 0.50321 0.88043 0.0
H485 H 0.69552 0.54702 0.89149 0.0
C486 C 0.42011 0.22861 0.93038 0.0
C487 C 0.45354 0.20272 0.92123 0.0
C488 C 0.52893 0.30776 0.90874 0.0
C489 C 0.49246 0.33288 0.91659 0.0
N490 N 0.3988 0.31691 0.93301 0.0
N491 N 0.52988 0.21307 0.89852 0.0
C492 C 0.4367 0.29328 0.92694 0.0
C493 C 0.50498 0.24093 0.90944 0.0
N494 N 0.37397 0.19197 0.94262 0.0
N495 N 0.58799 0.348 0.9014 0.0
H496 H 0.51305 0.16376 0.8983 0.0
H497 H 0.56291 0.238 0.88842 0.0
H498 H 0.60854 0.39786 0.90108 0.0
H499 H 0.61959 0.33259 0.89728 0.0
H500 H 0.3526 0.2101 0.95115 0.0
H501 H 0.36007 0.14398 0.94508 0.0
H502 H 0.3541 0.28856 0.93899 0.0
H503 H 0.4097 0.36421 0.93089 0.0
C504 C 0.73485 0.1311 0.91107 0.0
C505 C 0.69388 0.14237 0.92245 0.0
C506 C 0.78612 0.20964 0.9412 0.0
C507 C 0.82749 0.21402 0.92724 0.0
N508 N 0.84344 0.16612 0.9009 0.0
N509 N 0.68247 0.19715 0.94814 0.0
C510 C 0.8027 0.17 0.91289 0.0
C511 C 0.71967 0.18171 0.93775 0.0
N512 N 0.70909 0.08186 0.89907 0.0
N513 N 0.81154 0.23561 0.95737 0.0
H514 H 0.63458 0.18253 0.94534 0.0
H515 H 0.70119 0.2304 0.95847 0.0
H516 H 0.86086 0.25652 0.95983 0.0
H517 H 0.7834 0.23025 0.96854 0.0
H518 H 0.73614 0.0671 0.89168 0.0
H519 H 0.65984 0.05146 0.89765 0.0
H520 H 0.82876 0.14356 0.88859 0.0
H521 H 0.89208 0.18414 0.90351 0.0
C522 C 0.27925 0.18021 0.40308 0.0
C523 C 0.25156 0.12203 0.41278 0.0
C524 C 0.18356 0.15293 0.42956 0.0
C525 C 0.20337 0.20559 0.41785 0.0
N526 N 0.27366 0.27527 0.3948 0.0
N527 N 0.17881 0.05158 0.43546 0.0
C528 C 0.25304 0.22151 0.40512 0.0
C529 C 0.20505 0.10861 0.42636 0.0
N530 N 0.3298 0.19503 0.39189 0.0
N531 N 0.14378 0.14513 0.44358 0.0
H532 H 0.19533 0.019 0.43417 0.0
H533 H 0.13877 0.03479 0.44375 0.0
H534 H 0.12532 0.17564 0.44593 0.0
H535 H 0.13289 0.11164 0.45371 0.0
H536 H 0.35529 0.23836 0.38508 0.0
H537 H 0.34914 0.16486 0.39028 0.0
H538 H 0.30528 0.28707 0.38413 0.0
H539 H 0.25787 0.30821 0.39675 0.0
C540 C 0.8348 0.11757 0.39646 0.0
C541 C 0.87272 0.14891 0.41146 0.0
C542 C 0.8411 0.04717 0.42597 0.0
C543 C 0.8024 0.01468 0.41099 0.0
N544 N 0.74747 0.01943 0.38442 0.0
N545 N 0.89527 0.1468 0.4425 0.0
C546 C 0.79431 0.04995 0.39696 0.0
C547 C 0.86888 0.11448 0.42704 0.0
N548 N 0.83994 0.15228 0.38152 0.0
N549 N 0.85626 0.01502 0.43834 0.0
H550 H 0.91671 0.1967 0.44335 0.0
H551 H 0.88987 0.12383 0.45468 0.0
H552 H 0.84212 0.96646 0.43731 0.0
H553 H 0.88919 0.03809 0.44855 0.0
H554 H 0.81977 0.13138 0.36932 0.0
H555 H 0.86712 0.20242 0.3813 0.0
H556 H 0.73629 0.04387 0.37491 0.0
H557 H 0.71524 0.97012 0.38457 0.0
C558 C 0.95823 0.82811 0.42055 0.0
C559 C -0.00671 0.81343 0.40805 0.0
C560 C 0.89444 0.74323 0.39168 0.0
C561 C 0.85979 0.75704 0.40444 0.0
N562 N 0.85446 0.7992 0.43313 0.0
N563 N -0.00554 0.74702 0.38401 0.0
C564 C 0.89042 0.79439 0.41971 0.0
C565 C 0.96131 0.76776 0.39428 0.0
N566 N -0.01033 0.87773 0.43231 0.0
N567 N 0.86381 0.70889 0.37681 0.0
H568 H 0.04353 0.76379 0.38554 0.0
H569 H 0.97246 0.70933 0.37497 0.0
H570 H 0.81416 0.688 0.37509 0.0
H571 H 0.88773 0.70366 0.36592 0.0
H572 H 0.96631 0.89504 0.44037 0.0
H573 H 0.03962 0.90626 0.43283 0.0
H574 H 0.87351 0.81997 0.44543 0.0
H575 H 0.80447 0.77732 0.43257 0.0
C576 C 0.47908 0.92814 0.24925 0.0
C577 C 0.44132 0.92894 0.23504 0.0
C578 C 0.47942 0.87388 0.21559 0.0
C579 C 0.51337 0.86807 0.23027 0.0
N580 N 0.56409 0.90869 0.25884 0.0
N581 N 0.42288 0.92589 0.20363 0.0
C582 C 0.51958 0.90182 0.24639 0.0
C583 C 0.44849 0.91057 0.21774 0.0
N584 N 0.47281 0.94882 0.26567 0.0
N585 N 0.47195 0.84026 0.20025 0.0
H586 H 0.39942 0.95231 0.20527 0.0
H587 H 0.43047 0.91827 0.19042 0.0
H588 H 0.4918 0.81079 0.1983 0.0
H589 H 0.44183 0.83757 0.18991 0.0
H590 H 0.49258 0.94199 0.27722 0.0
H591 H 0.44528 0.97095 0.26769 0.0
H592 H 0.57419 0.9372 0.27015 0.0
H593 H 0.59559 0.89102 0.25704 0.0
C594 C 0.0655 0.61959 0.25159 0.0
C595 C 0.09734 0.64719 0.23526 0.0
C596 C 0.05517 0.54023 0.2226 0.0
C597 C 0.03788 0.51439 0.23997 0.0
N598 N 0.0212 0.52609 0.27092 0.0
N599 N 0.12224 0.63469 0.20484 0.0
C600 C 0.04015 0.55294 0.25441 0.0
C601 C 0.09076 0.60784 0.22045 0.0
N602 N 0.05922 0.65709 0.26422 0.0
N603 N 0.03929 0.49976 0.20838 0.0
H604 H 0.14971 0.68416 0.20282 0.0
H605 H 0.12492 0.60802 0.19429 0.0
H606 H 0.01298 0.44995 0.20987 0.0
H607 H 0.04619 0.5152 0.19519 0.0
H608 H 0.03225 0.63876 0.27581 0.0
H609 H 0.07592 0.70597 0.26229 0.0
H610 H 0.02897 0.55278 0.2825 0.0
H611 H -0.00039 0.47657 0.27297 0.0
C612 C 0.41763 0.51571 0.22034 0.0
C613 C 0.44704 0.52732 0.23724 0.0
C614 C 0.34534 0.4478 0.25053 0.0
C615 C 0.31359 0.44848 0.23465 0.0
N616 N 0.3191 0.48365 0.20418 0.0
N617 N 0.44209 0.50308 0.2684 0.0
C618 C 0.34956 0.48117 0.21927 0.0
C619 C 0.41203 0.49194 0.2523 0.0
N620 N 0.45509 0.53967 0.20548 0.0
N621 N 0.31177 0.40459 0.26371 0.0
H622 H 0.49173 0.53312 0.26973 0.0
H623 H 0.41775 0.48476 0.28037 0.0
H624 H 0.26311 0.37024 0.26252 0.0
H625 H 0.33332 0.39856 0.27501 0.0
H626 H 0.43701 0.52837 0.19258 0.0
H627 H 0.50524 0.56556 0.20615 0.0
H628 H 0.34325 0.51278 0.19331 0.0
H629 H 0.26922 0.4605 0.20293 0.0
C630 C 0.91012 0.52691 0.76005 0.0
C631 C 0.8848 0.54104 0.7447 0.0
C632 C 0.9307 0.49147 0.72578 0.0
C633 C 0.95131 0.47369 0.74127 0.0
N634 N -0.0086 0.50414 0.77104 0.0
N635 N 0.89567 0.56128 0.71295 0.0
C636 C 0.95213 0.50223 0.75769 0.0
C637 C 0.90302 0.53129 0.72747 0.0
N638 N 0.89052 0.53182 0.77678 0.0
N639 N 0.93513 0.46769 0.70968 0.0
H640 H 0.87973 0.59439 0.71395 0.0
H641 H 0.91227 0.55899 0.7003 0.0
H642 H 0.95844 0.44101 0.70825 0.0
H643 H 0.91392 0.47244 0.69812 0.0
H644 H 0.90455 0.51705 0.78812 0.0
H645 H 0.85504 0.54375 0.7793 0.0
H646 H -0.00226 0.53 0.78273 0.0
H647 H 0.02359 0.4873 0.76934 0.0
C648 C 0.53217 0.4586 0.76628 0.0
C649 C 0.53837 0.48466 0.74909 0.0
C650 C 0.4584 0.38013 0.73779 0.0
C651 C 0.4657 0.35201 0.75365 0.0
N652 N 0.51086 0.36445 0.78319 0.0
N653 N 0.50475 0.47423 0.71868 0.0
C654 C 0.50147 0.3911 0.76821 0.0
C655 C 0.49939 0.44677 0.73497 0.0
N656 N 0.55865 0.49882 0.78047 0.0
N657 N 0.41236 0.34328 0.72561 0.0
H658 H 0.53274 0.52382 0.71673 0.0
H659 H 0.4837 0.44802 0.70716 0.0
H660 H 0.38046 0.29432 0.72747 0.0
H661 H 0.40165 0.36228 0.71453 0.0
H662 H 0.55201 0.483 0.79363 0.0
H663 H 0.5816 0.54866 0.77904 0.0
H664 H 0.54226 0.39152 0.79334 0.0
H665 H 0.49176 0.31518 0.78492 0.0
C666 C 0.55604 0.09013 0.76396 0.0
C667 C 0.5275 0.07512 0.74692 0.0
C668 C 0.63038 0.10223 0.73344 0.0
C669 C 0.66078 0.13122 0.74976 0.0
N670 N 0.65319 0.15613 0.78059 0.0
N671 N 0.53417 0.06278 0.71542 0.0
C672 C 0.62388 0.12488 0.7652 0.0
C673 C 0.56355 0.07886 0.73165 0.0
N674 N 0.51808 0.0732 0.77881 0.0
N675 N 0.66517 0.09633 0.71988 0.0
H676 H 0.48442 0.04245 0.71404 0.0
H677 H 0.55908 0.07179 0.70342 0.0
H678 H 0.71407 0.11152 0.721 0.0
H679 H 0.6445 0.07105 0.70821 0.0
H680 H 0.53591 0.0784 0.79171 0.0
H681 H 0.46799 0.04767 0.7781 0.0
H682 H 0.62808 0.15875 0.79158 0.0
H683 H 0.70292 0.18445 0.78195 0.0
C684 C 0.15256 0.26925 0.59373 0.0
C685 C 0.11845 0.27094 0.5787 0.0
C686 C 0.15451 0.2101 0.56121 0.0
C687 C 0.1876 0.20621 0.5764 0.0
N688 N 0.23605 0.25044 0.60503 0.0
N689 N 0.1059 0.26599 0.54699 0.0
C690 C 0.19264 0.24188 0.59204 0.0
C691 C 0.12733 0.25031 0.56194 0.0
N692 N 0.14374 0.29075 0.60973 0.0
N693 N 0.14373 0.17135 0.54677 0.0
H694 H 0.08486 0.29494 0.54753 0.0
H695 H 0.11513 0.25611 0.53416 0.0
H696 H 0.1578 0.13677 0.54613 0.0
H697 H 0.11453 0.16851 0.53615 0.0
H698 H 0.16097 0.28358 0.62173 0.0
H699 H 0.11657 0.31363 0.6109 0.0
H700 H 0.24497 0.28042 0.61596 0.0
H701 H 0.26793 0.23297 0.60402 0.0
C702 C 0.70657 0.89097 0.5791 0.0
C703 C 0.73559 0.86269 0.56898 0.0
C704 C 0.80562 0.96468 0.55397 0.0
C705 C 0.78541 -0.00511 0.56646 0.0
N706 N 0.7123 -0.01023 0.58931 0.0
N707 N 0.81029 0.86933 0.54627 0.0
C708 C 0.73368 0.95872 0.57839 0.0
C709 C 0.78332 0.89831 0.55592 0.0
N710 N 0.65449 0.85302 0.58956 0.0
N711 N 0.84685 -0.00027 0.54052 0.0
H712 H 0.79387 0.82014 0.5469 0.0
H713 H 0.85093 0.89408 0.53828 0.0
H714 H 0.86573 0.04915 0.5391 0.0
H715 H 0.85844 0.97942 0.52993 0.0
H716 H 0.62832 0.86954 0.59664 0.0
H717 H 0.63458 0.80325 0.59023 0.0
H718 H 0.67894 0.96764 0.5995 0.0
H719 H 0.72918 0.03902 0.58836 0.0
C720 C 0.09244 0.82549 0.58638 0.0
C721 C 0.12418 0.88088 0.57555 0.0
C722 C 0.02515 0.85057 0.55913 0.0
C723 C -0.00736 0.79668 0.5705 0.0
N724 N -0.00435 0.72278 0.59164 0.0
N725 N 0.12695 0.93926 0.5491 0.0
C726 C 0.02658 0.78075 0.58306 0.0
C727 C 0.09249 0.89062 0.56095 0.0
N728 N 0.12449 0.81761 0.60029 0.0
N729 N -0.00895 0.86583 0.54745 0.0
H730 H 0.17608 0.97136 0.55052 0.0
H731 H 0.1084 0.94484 0.53715 0.0
H732 H 0.94159 0.83708 0.54552 0.0
H733 H 0.01074 0.90885 0.54039 0.0
H734 H 0.1024 0.78215 0.60998 0.0
H735 H 0.17346 0.84874 0.60251 0.0
H736 H 0.0187 0.70581 0.5999 0.0
H737 H 0.9474 0.68909 0.58931 0.0
C738 C 0.42684 0.89151 0.00391 0.0
C739 C 0.38419 0.90898 0.01193 0.0
C740 C 0.3524 0.92889 0.98284 0.0
C741 C 0.39915 0.91696 0.9749 0.0
N742 N 0.46824 0.87098 0.97666 0.0
N743 N 0.29429 0.92658 0.00966 0.0
C744 C 0.43172 0.89224 0.98505 0.0
C745 C 0.34268 0.92161 0.00153 0.0
N746 N 0.46538 0.87824 0.01439 0.0
N747 N 0.31925 0.9494 0.9725 0.0
H748 H 0.28635 0.92081 0.02338 0.0
H749 H 0.25902 0.93114 0.00286 0.0
H750 H 0.32269 0.95144 0.95864 0.0
H751 H 0.28986 0.96611 0.97754 0.0
H752 H 0.5031 0.87283 0.00957 0.0
H753 H 0.46128 0.87509 0.02822 0.0
H754 H 0.48869 0.84717 0.9831 0.0
H755 H 0.47417 0.87266 0.96289 0.0
C756 C 0.03503 0.39502 0.98846 0.0
C757 C 0.05793 0.45413 0.97934 0.0
C758 C 0.07758 0.51205 0.00741 0.0
C759 C 0.05161 0.4524 0.01649 0.0
N760 N 0.02306 0.3411 0.01673 0.0
N761 N 0.11672 0.57007 0.97957 0.0
C762 C 0.03617 0.39506 0.00731 0.0
C763 C 0.08514 0.51319 0.98867 0.0
N764 N 0.01022 0.33891 0.97906 0.0
N765 N 0.09042 0.56657 0.01648 0.0
H766 H 0.12125 0.57261 0.96575 0.0
H767 H 0.14307 0.61457 0.98574 0.0
H768 H 0.08616 0.56799 0.03026 0.0
H769 H 0.10163 0.60976 0.01032 0.0
H770 H -0.01446 0.29354 0.98488 0.0
H771 H 0.01211 0.33778 0.96519 0.0
H772 H 0.01658 0.29897 0.01089 0.0
H773 H 0.02439 0.34048 0.03061 0.0
C774 C 0.45528 0.54115 0.98103 0.0
C775 C 0.5122 0.59144 0.97328 0.0
C776 C 0.55687 0.63378 0.00259 0.0
C777 C 0.50211 0.58077 0.01032 0.0
N778 N 0.39261 0.49466 0.00796 0.0
N779 N 0.60858 0.69419 0.9757 0.0
C780 C 0.44882 0.53811 -0.00016 0.0
C781 C 0.56015 0.6409 0.9838 0.0
N782 N 0.40941 0.49453 0.97045 0.0
N783 N 0.60657 0.67538 0.01321 0.0
H784 H 0.61132 0.70011 0.9619 0.0
H785 H 0.64276 0.73454 0.98252 0.0
H786 H 0.60416 0.67287 0.02709 0.0
H787 H 0.65094 0.7109 0.00841 0.0
H788 H 0.37043 0.45245 0.97529 0.0
H789 H 0.41171 0.49668 0.95657 0.0
H790 H 0.35001 0.46557 0.00116 0.0
H791 H 0.38716 0.4914 0.02177 0.0
C792 C 0.02558 0.31892 0.33707 0.0
C793 C 0.08479 0.33836 0.3458 0.0
C794 C 0.1401 0.35576 0.31726 0.0
C795 C 0.08184 0.34058 0.30851 0.0
N796 N 0.97178 0.31719 0.30958 0.0
N797 N 0.2002 0.38438 0.34482 0.0
C798 C 0.02516 0.32469 0.31827 0.0
C799 C 0.14269 0.35979 0.33607 0.0
N800 N 0.96986 0.29411 0.34676 0.0
N801 N 0.19188 0.36286 0.30767 0.0
H802 H 0.20398 0.38556 0.35866 0.0
H803 H 0.24466 0.40787 0.33841 0.0
H804 H 0.19208 0.35982 0.29383 0.0
H805 H 0.23295 0.36642 0.31346 0.0
H806 H 0.92425 0.27264 0.34107 0.0
H807 H 0.96889 0.29105 0.36062 0.0
H808 H 0.93097 0.31187 0.31604 0.0
H809 H 0.97019 0.32152 0.29579 0.0
C810 C 0.61385 0.80949 0.33094 0.0
C811 C 0.63409 0.77173 0.34047 0.0
C812 C 0.64718 0.72616 0.31274 0.0
C813 C 0.62489 0.76226 0.30325 0.0
N814 N 0.57728 0.8302 0.30294 0.0
N815 N 0.6573 0.68493 0.34127 0.0
C816 C 0.60473 0.80111 0.31226 0.0
C817 C 0.64716 0.72737 0.33161 0.0
N818 N 0.60668 0.85564 0.33962 0.0
N819 N 0.66926 0.69155 0.30369 0.0
H820 H 0.65701 0.68404 0.35516 0.0
H821 H 0.66048 0.647 0.33565 0.0
H822 H 0.66649 0.68636 0.28988 0.0
H823 H 0.69364 0.67089 0.30972 0.0
H824 H 0.59919 0.8897 0.33316 0.0
H825 H 0.61297 0.86323 0.35331 0.0
H826 H 0.55523 0.85333 0.30893 0.0
H827 H 0.57233 0.82742 0.28913 0.0
C828 C 0.1964 0.82349 0.31746 0.0
C829 C 0.24045 0.87694 0.30713 0.0
C830 C 0.29129 0.93891 0.33402 0.0
C831 C 0.24718 0.88551 0.34439 0.0
N832 N 0.16437 0.77387 0.34659 0.0
N833 N 0.33669 0.98018 0.30477 0.0
C834 C 0.20211 0.82659 0.33628 0.0
C835 C 0.29017 0.93311 0.31519 0.0
N836 N 0.14727 0.77106 0.30926 0.0
N837 N 0.33319 -0.00461 0.34222 0.0
H838 H 0.33678 0.97712 0.29091 0.0
H839 H 0.37773 0.01984 0.30977 0.0
H840 H 0.33765 0.00012 0.35603 0.0
H841 H 0.36153 0.0384 0.33548 0.0
H842 H 0.10875 0.73379 0.31598 0.0
H843 H 0.14279 0.76618 0.29545 0.0
H844 H 0.13604 0.72777 0.34153 0.0
H845 H 0.16403 0.77496 0.36046 0.0
C846 C 0.77886 0.6251 0.66731 0.0
C847 C 0.74692 0.64967 0.67786 0.0
C848 C 0.7076 0.67722 0.65105 0.0
C849 C 0.74382 0.65744 0.64063 0.0
N850 N 0.82103 0.6211 0.63832 0.0
N851 N 0.68403 0.70243 0.68042 0.0
C852 C 0.78104 0.63323 0.6486 0.0
C853 C 0.71213 0.67675 0.66991 0.0
N854 N 0.80748 0.59432 0.67516 0.0
N855 N 0.66767 0.69465 0.64288 0.0
H856 H 0.68265 0.69906 0.69428 0.0
H857 H 0.66456 0.72962 0.67556 0.0
H858 H 0.6642 0.69631 0.62907 0.0
H859 H 0.63489 0.70338 0.64963 0.0
H860 H 0.82425 0.56827 0.66812 0.0
H861 H 0.8109 0.5909 0.68889 0.0
H862 H 0.85512 0.61081 0.64348 0.0
H863 H 0.82417 0.62633 0.62451 0.0
C864 C 0.3303 0.16795 0.65457 0.0
C865 C 0.33063 0.11592 0.64573 0.0
C866 C 0.34111 0.07218 0.67415 0.0
C867 C 0.3364 0.12178 0.68305 0.0
N868 N 0.32109 0.21367 0.68248 0.0
N869 N 0.33002 0.0153 0.64649 0.0
C870 C 0.32944 0.16883 0.67346 0.0
C871 C 0.33434 0.06709 0.65535 0.0
N872 N 0.33195 0.21697 0.64484 0.0
N873 N 0.35286 0.03058 0.6837 0.0
H874 H 0.32728 0.0112 0.63265 0.0
H875 H 0.3252 0.9745 0.65277 0.0
H876 H 0.35553 0.03127 0.69757 0.0
H877 H 0.3639 -0.00216 0.67796 0.0
H878 H 0.33887 0.25971 0.65034 0.0
H879 H 0.33043 0.21689 0.63096 0.0
H880 H 0.3084 0.24473 0.67642 0.0
H881 H 0.32324 0.21769 0.69632 0.0
C882 C 0.85461 0.17292 0.65415 0.0
C883 C 0.90097 0.2253 0.6439 0.0
C884 C 0.95292 0.28563 0.67098 0.0
C885 C 0.90367 0.23534 0.68112 0.0
N886 N 0.8048 0.13364 0.68302 0.0
N887 N -0.00829 0.33279 0.64178 0.0
C888 C 0.85377 0.17952 0.67289 0.0
C889 C 0.94958 0.28208 0.6521 0.0
N890 N 0.81176 0.11681 0.64592 0.0
N891 N 0.0032 0.33608 0.67945 0.0
H892 H -0.00716 0.33053 0.62793 0.0
H893 H 0.0236 0.37818 0.64677 0.0
H894 H 0.00584 0.34103 0.69327 0.0
H895 H 0.04419 0.37113 0.67299 0.0
H896 H 0.78151 0.07438 0.65268 0.0
H897 H 0.809 0.11104 0.63214 0.0
H898 H 0.76302 0.0956 0.67776 0.0
H899 H 0.80381 0.13542 0.69688 0.0
C900 C 0.29088 -0.00457 0.16651 0.0
C901 C 0.27825 0.93863 0.17564 0.0
C902 C 0.32295 0.90742 0.1508 0.0
C903 C 0.3407 0.9669 0.14237 0.0
N904 N 0.35075 0.07184 0.14306 0.0
N905 N 0.29337 0.84664 0.17825 0.0
C906 C 0.32723 0.01221 0.15047 0.0
C907 C 0.29722 0.89616 0.16828 0.0
N908 N 0.26647 0.03219 0.17292 0.0
N909 N 0.32795 0.86047 0.14186 0.0
H910 H 0.27507 0.83648 0.19118 0.0
H911 H 0.31377 0.81913 0.17431 0.0
H912 H 0.34646 0.86637 0.12899 0.0
H913 H 0.3084 0.81358 0.14657 0.0
H914 H 0.26862 0.07082 0.16602 0.0
H915 H 0.23884 0.02055 0.18452 0.0
H916 H 0.3481 0.10928 0.14922 0.0
H917 H 0.37811 0.08577 0.13139 0.0
C918 C 0.0417 0.41709 0.15201 0.0
C919 C 0.97981 0.37368 0.14511 0.0
C920 C 0.96109 0.2977 0.16916 0.0
C921 C 0.02075 0.34312 0.17679 0.0
N922 N 0.11347 0.44986 0.17733 0.0
N923 N 0.87676 0.27754 0.14798 0.0
C924 C 0.06003 0.4039 0.16872 0.0
C925 C 0.9383 0.31533 0.15398 0.0
N926 N 0.08401 0.46947 0.14224 0.0
N927 N 0.92723 0.23722 0.17624 0.0
H928 H 0.85883 0.28978 0.13691 0.0
H929 H 0.8419 0.23728 0.15475 0.0
H930 H 0.9432 0.22268 0.18727 0.0
H931 H 0.8864 0.19984 0.17038 0.0
H932 H 0.13241 0.49804 0.14552 0.0
H933 H 0.07203 0.4821 0.13015 0.0
H934 H 0.13933 0.49758 0.17317 0.0
H935 H 0.12951 0.44157 0.18941 0.0
C936 C 0.5574 0.64787 0.16467 0.0
C937 C 0.61784 0.66796 0.17281 0.0
C938 C 0.64642 0.61688 0.14905 0.0
C939 C 0.58904 0.60283 0.14005 0.0
N940 N 0.49549 0.61568 0.13751 0.0
N941 N 0.72397 0.68026 0.17177 0.0
C942 C 0.54584 0.62102 0.14738 0.0
C943 C 0.66351 0.65465 0.16476 0.0
N944 N 0.51001 0.65202 0.1737 0.0
N945 N 0.68383 0.59308 0.1427 0.0
H946 H 0.73854 0.70937 0.18307 0.0
H947 H 0.7614 0.67757 0.16557 0.0
H948 H 0.67224 0.56502 0.13122 0.0
H949 H 0.72297 0.59625 0.14957 0.0
H950 H 0.46277 0.63118 0.16918 0.0
H951 H 0.51591 0.67076 0.18652 0.0
H952 H 0.46753 0.63567 0.14138 0.0
H953 H 0.48486 0.59638 0.12471 0.0
C954 C 0.95911 0.40141 0.83404 0.0
C955 C 0.94104 0.36087 0.84924 0.0
C956 C 0.90196 0.26718 0.82972 0.0
C957 C 0.91511 0.30751 0.81464 0.0
N958 N 0.92931 0.40875 0.80394 0.0
N959 N 0.8709 0.25347 0.86067 0.0
C960 C 0.93492 0.37328 0.81725 0.0
C961 C 0.90455 0.29309 0.84685 0.0
N962 N 0.00245 0.46566 0.83507 0.0
N963 N 0.89069 0.20578 0.82809 0.0
H964 H 0.86703 0.27084 0.87307 0.0
H965 H 0.84012 0.20422 0.85903 0.0
H966 H 0.89283 0.18559 0.81603 0.0
H967 H 0.88639 0.17744 0.83911 0.0
H968 H 0.01957 0.49476 0.82377 0.0
H969 H 0.02746 0.48841 0.84658 0.0
H970 H 0.93799 0.45529 0.80611 0.0
H971 H 0.90787 0.38888 0.79174 0.0
C972 C 0.66754 0.6603 0.8368 0.0
C973 C 0.6547 0.60112 0.8446 0.0
C974 C 0.69042 0.57281 0.81727 0.0
C975 C 0.70965 0.63493 0.81039 0.0
N976 N 0.72814 0.74226 0.81481 0.0
N977 N 0.66355 0.5053 0.84346 0.0
C978 C 0.70171 0.68005 0.82053 0.0
C979 C 0.66868 0.55835 0.83517 0.0
N980 N 0.64438 0.69626 0.8445 0.0
N981 N 0.69027 0.5268 0.80652 0.0
H982 H 0.64781 0.49296 0.85656 0.0
H983 H 0.68002 0.47649 0.83784 0.0
H984 H 0.70562 0.53532 0.7933 0.0
H985 H 0.6697 0.47872 0.81023 0.0
H986 H 0.64656 0.73635 0.83845 0.0
H987 H 0.61677 0.68206 0.85606 0.0
H988 H 0.72942 0.77882 0.82257 0.0
H989 H 0.75448 0.75874 0.80301 0.0
C990 C 0.44094 0.11471 0.82158 0.0
C991 C 0.38107 0.06763 0.81439 0.0
C992 C 0.36186 -0.00032 0.84048 0.0
C993 C 0.41675 0.05079 0.84876 0.0
N994 N 0.50246 0.16164 0.84832 0.0
N995 N 0.27923 0.96975 0.81817 0.0
C996 C 0.45491 0.10963 0.83962 0.0
C997 C 0.34 0.01116 0.82413 0.0
N998 N 0.48551 0.16291 0.81104 0.0
N999 N 0.33195 0.93961 0.8479 0.0
H1000 H 0.26073 0.97716 0.80642 0.0
H1001 H 0.24507 0.93141 0.82572 0.0
H1002 H 0.34803 0.92847 0.85953 0.0
H1003 H 0.29548 0.89937 0.84154 0.0
H1004 H 0.53237 0.19445 0.81521 0.0
H1005 H 0.47811 0.16731 0.79756 0.0
H1006 H 0.52687 0.20746 0.84271 0.0
H1007 H 0.5134 0.16068 0.86169 0.0
C1008 C -0.01557 0.34795 0.50374 0.0
C1009 C 0.97117 0.29066 0.51268 0.0
C1010 C 0.01705 0.26044 0.48785 0.0
C1011 C 0.03392 0.31966 0.47942 0.0
N1012 N 0.04384 0.42452 0.4803 0.0
N1013 N -0.01468 0.19814 0.51511 0.0
C1014 C 0.02063 0.36489 0.48768 0.0
C1015 C -0.00959 0.24843 0.50527 0.0
N1016 N 0.96045 0.38491 0.51031 0.0
N1017 N 0.02387 0.21454 0.47893 0.0
H1018 H 0.96559 0.18725 0.52789 0.0
H1019 H 0.00546 0.17036 0.51123 0.0
H1020 H 0.04438 0.22189 0.46627 0.0
H1021 H 0.00502 0.16757 0.4835 0.0
H1022 H 0.96283 0.42386 0.50354 0.0
H1023 H 0.93313 0.37335 0.52197 0.0
H1024 H 0.04144 0.462 0.48652 0.0
H1025 H 0.07074 0.43836 0.46857 0.0
C1026 C 0.72225 0.67525 0.47432 0.0
C1027 C 0.69038 0.71074 0.47094 0.0
C1028 C 0.68775 0.72871 0.50276 0.0
C1029 C 0.71208 0.68659 0.50635 0.0
N1030 N 0.73573 0.60615 0.49515 0.0
N1031 N 0.62426 0.75226 0.48261 0.0
C1032 C 0.72457 0.65581 0.49203 0.0
C1033 C 0.66744 0.7317 0.48535 0.0
N1034 N 0.75262 0.66213 0.46094 0.0
N1035 N 0.68652 0.76829 0.51563 0.0
H1036 H 0.60443 0.75109 0.47017 0.0
H1037 H 0.60223 0.76274 0.49304 0.0
H1038 H 0.70436 0.7713 0.52841 0.0
H1039 H 0.67468 0.80375 0.51293 0.0
H1040 H 0.78194 0.64229 0.46327 0.0
H1041 H 0.75411 0.67665 0.44782 0.0
H1042 H 0.73912 0.57852 0.48497 0.0
H1043 H 0.73415 0.58774 0.50783 0.0
C1044 C 0.29544 0.04466 0.48149 0.0
C1045 C 0.26696 0.97813 0.47762 0.0
C1046 C 0.25769 0.95394 0.50944 0.0
C1047 C 0.29285 0.02094 0.51317 0.0
N1048 N 0.36084 0.12905 0.50216 0.0
N1049 N 0.23667 0.87118 0.48787 0.0
C1050 C 0.31632 0.06611 0.49903 0.0
C1051 C 0.25246 0.9331 0.49157 0.0
N1052 N 0.30071 0.08735 0.46863 0.0
N1053 N 0.22706 0.91003 0.52271 0.0
H1054 H 0.23505 0.85436 0.47498 0.0
H1055 H 0.23213 0.8385 0.49769 0.0
H1056 H 0.22831 0.92229 0.53604 0.0
H1057 H 0.19509 0.86159 0.52022 0.0
H1058 H 0.31515 0.13521 0.47137 0.0
H1059 H 0.28437 0.07378 0.45566 0.0
H1060 H 0.38367 0.16239 0.49197 0.0
H1061 H 0.38062 0.14625 0.51468 0.0
C1062 C 0.48345 0.27757 0.08399 0.0
C1063 C 0.45748 0.30693 0.07299 0.0
C1064 C 0.38421 0.20309 0.05929 0.0
C1065 C 0.40747 0.17384 0.07113 0.0
N1066 N 0.46607 0.1793 0.09781 0.0
N1067 N 0.3721 0.2954 0.05345 0.0
C1068 C 0.45264 0.20986 0.08455 0.0
C1069 C 0.40464 0.26913 0.06152 0.0
N1070 N 0.53959 0.31412 0.09306 0.0
N1071 N 0.34363 0.16815 0.04581 0.0
H1072 H 0.38372 0.34294 0.05532 0.0
H1073 H 0.3296 0.26846 0.04636 0.0
H1074 H 0.32593 0.11891 0.04432 0.0
H1075 H 0.33093 0.18875 0.03552 0.0
H1076 H 0.5633 0.29464 0.10005 0.0
H1077 H 0.5663 0.36407 0.09211 0.0
H1078 H 0.49376 0.20311 0.1089 0.0
H1079 H 0.44493 0.12941 0.09857 0.0
C1080 C 0.66166 0.19602 0.08024 0.0
C1081 C 0.64095 0.13045 0.07736 0.0
C1082 C 0.75133 0.15641 0.07075 0.0
C1083 C 0.77224 0.22134 0.07494 0.0
N1084 N 0.74981 0.29897 0.08893 0.0
N1085 N 0.66573 0.04551 0.07326 0.0
C1086 C 0.72814 0.24004 0.08126 0.0
C1087 C 0.68572 0.10967 0.07361 0.0
N1088 N 0.61806 0.21677 0.08129 0.0
N1089 N 0.7934 0.1399 0.06353 0.0
H1090 H 0.61811 0.01032 0.07569 0.0
H1091 H 0.69704 0.02742 0.07219 0.0
H1092 H 0.84186 0.1732 0.06135 0.0
H1093 H 0.77932 0.09436 0.0585 0.0
H1094 H 0.63147 0.26528 0.08127 0.0
H1095 H 0.56854 0.18584 0.08035 0.0
H1096 H 0.71941 0.31244 0.09511 0.0
H1097 H 0.79849 0.33159 0.09094 0.0
C1098 C 0.80343 0.5988 0.07363 0.0
C1099 C 0.75107 0.56584 0.06178 0.0
C1100 C 0.77701 0.48098 0.05765 0.0
C1101 C 0.82439 0.50878 0.07113 0.0
N1102 N 0.88991 0.59846 0.09045 0.0
N1103 N 0.71705 0.50113 0.03531 0.0
C1104 C 0.84008 0.56934 0.07868 0.0
C1105 C 0.74727 0.51507 0.05141 0.0
N1106 N 0.82052 0.65978 0.07881 0.0
N1107 N 0.75756 0.42042 0.05149 0.0
H1108 H 0.69981 0.52965 0.02984 0.0
H1109 H 0.71698 0.4674 0.02656 0.0
H1110 H 0.77537 0.39175 0.05644 0.0
H1111 H 0.71878 0.39619 0.04286 0.0
H1112 H 0.85837 0.68794 0.08732 0.0
H1113 H 0.80048 0.68512 0.07294 0.0
H1114 H 0.90122 0.63992 0.09754 0.0
H1115 H 0.92017 0.5804 0.0935 0.0
C1116 C 0.30472 0.49795 0.88125 0.0
C1117 C 0.33242 0.46663 0.89052 0.0
C1118 C 0.23015 0.39414 0.90495 0.0
C1119 C 0.20371 0.42891 0.89677 0.0
N1120 N 0.20689 0.49772 0.87298 0.0
N1121 N 0.31912 0.37315 0.90609 0.0
C1122 C 0.23815 0.47538 0.88341 0.0
C1123 C 0.29392 0.41014 0.90051 0.0
N1124 N 0.34282 0.55092 0.87113 0.0
N1125 N 0.1965 0.34966 0.91786 0.0
H1126 H 0.36597 0.38431 0.90295 0.0
H1127 H 0.29203 0.32859 0.91222 0.0
H1128 H 0.1494 0.33632 0.92138 0.0
H1129 H 0.2164 0.32856 0.92582 0.0
H1130 H 0.32728 0.58073 0.86571 0.0
H1131 H 0.39126 0.56625 0.8687 0.0
H1132 H 0.22809 0.52817 0.86213 0.0
H1133 H 0.15761 0.48081 0.8742 0.0
C1134 C 0.55694 0.84596 0.88047 0.0
C1135 C 0.5725 0.88904 0.89479 0.0
C1136 C 0.63575 0.847 0.90876 0.0
C1137 C 0.60674 0.79444 0.89691 0.0
N1138 N 0.54279 0.74372 0.8708 0.0
N1139 N 0.63122 0.93717 0.92173 0.0
C1140 C 0.56971 0.79479 0.88222 0.0
C1141 C 0.6148 0.89269 0.90847 0.0
N1142 N 0.52782 0.85271 0.86567 0.0
N1143 N 0.68084 0.85143 0.92063 0.0
H1144 H 0.61772 0.97228 0.92154 0.0
H1145 H 0.65586 0.93798 0.9332 0.0
H1146 H 0.69589 0.81755 0.92124 0.0
H1147 H 0.70724 0.89105 0.9288 0.0
H1148 H 0.51973 0.82574 0.85413 0.0
H1149 H 0.5171 0.88961 0.86436 0.0
H1150 H 0.50922 0.73736 0.86109 0.0
H1151 H 0.55138 0.70537 0.87175 0.0
C1152 C 0.23237 0.77235 0.92257 0.0
C1153 C 0.23262 0.81285 0.90904 0.0
C1154 C 0.14048 0.72049 0.89545 0.0
C1155 C 0.15225 0.67894 0.90647 0.0
N1156 N 0.22726 0.67126 0.92675 0.0
N1157 N 0.18867 0.82618 0.88169 0.0
C1158 C 0.20294 0.70635 0.91914 0.0
C1159 C 0.18683 0.78734 0.8952 0.0
N1160 N 0.26405 0.79763 0.93814 0.0
N1161 N 0.08491 0.69753 0.88593 0.0
H1162 H 0.22085 0.87562 0.88167 0.0
H1163 H 0.16063 0.80857 0.87026 0.0
H1164 H 0.04745 0.65017 0.88676 0.0
H1165 H 0.07308 0.72744 0.87881 0.0
H1166 H 0.2628 0.76905 0.94877 0.0
H1167 H 0.28474 0.8466 0.94089 0.0
H1168 H 0.26684 0.69168 0.93526 0.0
H1169 H 0.21464 0.62502 0.92258 0.0
C1170 C 0.07791 0.63371 0.41549 0.0
C1171 C 0.13642 0.67163 0.42471 0.0
C1172 C 0.13982 0.57584 0.43337 0.0
C1173 C 0.08939 0.54012 0.42113 0.0
N1174 N 0.00838 0.53248 0.40076 0.0
N1175 N 0.22306 0.68117 0.44303 0.0
C1176 C 0.0567 0.56786 0.41252 0.0
C1177 C 0.16679 0.64329 0.43416 0.0
N1178 N 0.04315 0.66105 0.40963 0.0
N1179 N 0.16183 0.54487 0.44406 0.0
H1180 H 0.24291 0.73078 0.44431 0.0
H1181 H 0.25178 0.66414 0.44836 0.0
H1182 H 0.14283 0.49518 0.44366 0.0
H1183 H 0.19459 0.56721 0.45434 0.0
H1184 H -0.0025 0.63506 0.40405 0.0
H1185 H 0.0577 0.70926 0.41193 0.0
H1186 H -0.01218 0.55207 0.39248 0.0
H1187 H -0.00911 0.48362 0.39861 0.0
C1188 C 0.44206 0.51431 0.4182 0.0
C1189 C 0.46466 0.55717 0.40352 0.0
C1190 C 0.35579 0.52756 0.3954 0.0
C1191 C 0.33179 0.48236 0.40958 0.0
N1192 N 0.35258 0.41754 0.43034 0.0
N1193 N 0.44287 0.5838 0.37449 0.0
C1194 C 0.37495 0.47073 0.41976 0.0
C1195 C 0.42101 0.55528 0.39069 0.0
N1196 N 0.48347 0.5171 0.43107 0.0
N1197 N 0.3184 0.54855 0.38742 0.0
H1198 H 0.49136 0.60484 0.3709 0.0
H1199 H 0.41203 0.58029 0.36423 0.0
H1200 H 0.27248 0.53619 0.39191 0.0
H1201 H 0.33635 0.58508 0.3779 0.0
H1202 H 0.4678 0.49201 0.44305 0.0
H1203 H 0.53314 0.54695 0.4302 0.0
H1204 H 0.383 0.40474 0.43679 0.0
H1205 H 0.30413 0.38243 0.43104 0.0
C1206 C 0.55061 0.93197 0.41474 0.0
C1207 C 0.53048 0.87486 0.4247 0.0
C1208 C 0.43659 0.87904 0.43509 0.0
C1209 C 0.44845 0.92522 0.42167 0.0
N1210 N 0.51791 -0.00013 0.39942 0.0
N1211 N 0.45664 0.79496 0.44533 0.0
C1212 C 0.50668 0.95429 0.41198 0.0
C1213 C 0.47496 0.84949 0.43558 0.0
N1214 N 0.61161 0.96425 0.40798 0.0
N1215 N 0.38769 0.86289 0.447 0.0
H1216 H 0.48444 0.77277 0.44619 0.0
H1217 H 0.41244 0.76984 0.45181 0.0
H1218 H 0.35934 0.88468 0.44685 0.0
H1219 H 0.37927 0.83295 0.45792 0.0
H1220 H 0.63101 0.00884 0.40174 0.0
H1221 H 0.64482 0.94908 0.41034 0.0
H1222 H 0.55608 0.0173 0.39042 0.0
H1223 H 0.48707 0.01824 0.39751 0.0
C1224 C 0.87933 0.77467 0.25816 0.0
C1225 C 0.84028 0.74123 0.24344 0.0
C1226 C 0.93446 0.7484 0.22865 0.0
C1227 C 0.97463 0.79488 0.24139 0.0
N1228 N -0.01704 0.86186 0.26658 0.0
N1229 N 0.83247 0.70107 0.21339 0.0
C1230 C 0.94659 0.81029 0.25585 0.0
C1231 C 0.86792 0.72847 0.22836 0.0
N1232 N 0.85181 0.77383 0.27416 0.0
N1233 N 0.95899 0.72175 0.21723 0.0
H1234 H 0.78355 0.68531 0.2124 0.0
H1235 H 0.85308 0.69824 0.20144 0.0
H1236 H 0.00674 0.73242 0.21761 0.0
H1237 H 0.93013 0.68366 0.2088 0.0
H1238 H 0.87871 0.79395 0.28566 0.0
H1239 H 0.80214 0.74682 0.27623 0.0
H1240 H 0.96285 0.87738 0.27634 0.0
H1241 H 0.03164 0.894 0.26435 0.0
C1242 C 0.22455 0.13001 0.22949 0.0
C1243 C 0.2116 0.09144 0.24502 0.0
C1244 C 0.13817 0.12629 0.25561 0.0
C1245 C 0.15606 0.17016 0.2412 0.0
N1246 N 0.23302 0.22747 0.21766 0.0
N1247 N 0.17488 0.0728 0.27554 0.0
C1248 C 0.20446 0.17646 0.22908 0.0
C1249 C 0.17503 0.09671 0.25903 0.0
N1250 N 0.25218 0.12051 0.21475 0.0
N1251 N 0.08382 0.10934 0.26537 0.0
H1252 H 0.20386 0.05311 0.27867 0.0
H1253 H 0.15191 0.07954 0.28645 0.0
H1254 H 0.05104 0.12431 0.26218 0.0
H1255 H 0.06715 0.07368 0.27513 0.0
H1256 H 0.25574 0.1434 0.20265 0.0
H1257 H 0.26612 0.08597 0.21391 0.0
H1258 H 0.27233 0.23632 0.20972 0.0
H1259 H 0.22279 0.26483 0.21762 0.0
C1260 C 0.7626 0.02847 0.23477 0.0
C1261 C 0.78737 -0.00808 0.22671 0.0
C1262 C 0.89077 0.08903 0.2225 0.0
C1263 C 0.87033 0.12175 0.23424 0.0
N1264 N 0.78672 0.12426 0.25145 0.0
N1265 N 0.87493 -0.01387 0.21273 0.0
C1266 C 0.80578 0.09246 0.24011 0.0
C1267 C 0.85113 0.02195 0.22018 0.0
N1268 N 0.69777 0.00174 0.23712 0.0
N1269 N 0.94775 0.12243 0.21349 0.0
H1270 H 0.84674 0.93686 0.21048 0.0
H1271 H 0.92348 0.00457 0.20978 0.0
H1272 H 0.9771 0.17218 0.21455 0.0
H1273 H 0.96249 0.10207 0.20363 0.0
H1274 H 0.67602 0.0273 0.24168 0.0
H1275 H 0.66545 0.95555 0.23263 0.0
H1276 H 0.74197 0.1025 0.25773 0.0
H1277 H 0.81726 0.17157 0.25545 0.0
C1278 C 0.81511 0.91938 0.73278 0.0
C1279 C 0.77686 0.87478 0.74608 0.0
C1280 C 0.77882 0.96302 0.76287 0.0
C1281 C 0.8277 0.00772 0.7513 0.0
N1282 N 0.90637 0.0245 0.72848 0.0
N1283 N 0.73382 0.85788 0.7762 0.0
C1284 C 0.85011 0.98484 0.73718 0.0
C1285 C 0.76145 0.89725 0.76185 0.0
N1286 N 0.81793 0.89951 0.71594 0.0
N1287 N 0.74706 0.98198 0.77427 0.0
H1288 H 0.72299 0.81022 0.77666 0.0
H1289 H 0.72786 0.87492 0.78841 0.0
H1290 H 0.75507 0.02875 0.77475 0.0
H1291 H 0.70747 0.94933 0.78176 0.0
H1292 H 0.84267 0.93175 0.70565 0.0
H1293 H 0.78931 0.85188 0.71186 0.0
H1294 H 0.92576 0.00764 0.71886 0.0
H1295 H 0.9376 0.07164 0.73251 0.0
C1296 C 0.10253 0.88742 0.73039 0.0
C1297 C 0.13964 0.89498 0.74572 0.0
C1298 C 0.04507 0.80706 0.75991 0.0
C1299 C 0.00605 0.81182 0.74645 0.0
N1300 N -0.00041 0.86914 0.72059 0.0
N1301 N 0.14481 0.86448 0.77616 0.0
C1302 C 0.03514 0.85488 0.73198 0.0
C1303 C 0.11098 0.85496 0.76077 0.0
N1304 N 0.13193 0.91353 0.71453 0.0
N1305 N 0.02019 0.75628 0.77145 0.0
H1306 H 0.19328 0.89873 0.77747 0.0
H1307 H 0.12318 0.84104 0.78802 0.0
H1308 H 0.97309 0.71815 0.77062 0.0
H1309 H 0.04854 0.74847 0.78049 0.0
H1310 H 0.10645 0.90547 0.70268 0.0
H1311 H 0.18191 0.93706 0.71303 0.0
H1312 H 0.02051 0.90436 0.71076 0.0
H1313 H 0.95063 0.85249 0.72235 0.0
C1314 C 0.12943 0.16621 0.77191 0.0
C1315 C 0.19021 0.19871 0.76343 0.0
C1316 C 0.16878 0.28165 0.75225 0.0
C1317 C 0.10671 0.24707 0.75983 0.0
N1318 N 0.03494 0.17038 0.78141 0.0
N1319 N 0.27622 0.29623 0.75082 0.0
C1320 C 0.08959 0.19405 0.7713 0.0
C1321 C 0.21278 0.25969 0.75537 0.0
N1322 N 0.10824 0.10717 0.77946 0.0
N1323 N 0.18419 0.33284 0.74131 0.0
H1324 H 0.30951 0.28137 0.7534 0.0
H1325 H 0.2969 0.34328 0.74617 0.0
H1326 H 0.15327 0.35099 0.73919 0.0
H1327 H 0.22606 0.35524 0.73369 0.0
H1328 H 0.06126 0.07777 0.78392 0.0
H1329 H 0.13669 0.08569 0.78036 0.0
H1330 H 0.02245 0.13511 0.79112 0.0
H1331 H 0.00522 0.19063 0.78126 0.0
C1332 C 0.56291 0.11762 0.59501 0.0
C1333 C 0.52087 0.0817 0.58109 0.0
C1334 C 0.61267 0.0901 0.56451 0.0
C1335 C 0.65477 0.13869 0.5765 0.0
N1336 N 0.6665 0.20887 0.6012 0.0
N1337 N 0.50647 0.03686 0.55145 0.0
C1338 C 0.62911 0.15499 0.59135 0.0
C1339 C 0.54558 0.06785 0.56555 0.0
N1340 N 0.53899 0.11805 0.61148 0.0
N1341 N 0.63595 0.06373 0.5526 0.0
H1342 H 0.45696 0.01863 0.55163 0.0
H1343 H 0.52418 0.03283 0.53912 0.0
H1344 H 0.68433 0.07659 0.55195 0.0
H1345 H 0.6061 0.02422 0.54472 0.0
H1346 H 0.56848 0.14044 0.62242 0.0
H1347 H 0.49001 0.09009 0.61446 0.0
H1348 H 0.64778 0.22463 0.61128 0.0
H1349 H 0.71392 0.24227 0.59786 0.0
C1350 C 0.84858 0.43821 0.59124 0.0
C1351 C 0.892 0.43694 0.57874 0.0
C1352 C 0.88977 0.52379 0.5624 0.0
C1353 C 0.83515 0.513 0.57256 0.0
N1354 N 0.75209 0.44423 0.5936 0.0
N1355 N 0.94795 0.47432 0.55043 0.0
C1356 C 0.81151 0.46581 0.58618 0.0
C1357 C 0.91165 0.47886 0.56377 0.0
N1358 N 0.84171 0.41174 0.60775 0.0
N1359 N 0.92238 0.57751 0.5521 0.0
H1360 H 0.96494 0.44207 0.55054 0.0
H1361 H 0.95682 0.49955 0.53849 0.0
H1362 H 0.91066 0.6138 0.55153 0.0
H1363 H 0.96562 0.58935 0.54575 0.0
H1364 H 0.81286 0.41521 0.6176 0.0
H1365 H 0.87052 0.39316 0.61209 0.0
H1366 H 0.73211 0.40649 0.60275 0.0
H1367 H 0.71964 0.45774 0.58891 0.0
C1368 C 0.51278 0.36415 0.55299 0.0
C1369 C 0.45862 0.33357 0.5644 0.0
C1370 C 0.48137 0.43694 0.57678 0.0
C1371 C 0.53752 0.46676 0.56621 0.0
N1372 N 0.59539 0.46471 0.54026 0.0
N1373 N 0.37869 0.34098 0.58216 0.0
C1374 C 0.54894 0.43212 0.55282 0.0
C1375 C 0.43864 0.3702 0.57466 0.0
N1376 N 0.53228 0.32861 0.54335 0.0
N1377 N 0.47095 0.47151 0.58945 0.0
H1378 H 0.34586 0.2923 0.58029 0.0
H1379 H 0.35935 0.36589 0.58862 0.0
H1380 H 0.50063 0.52109 0.59082 0.0
H1381 H 0.43484 0.45073 0.59905 0.0
H1382 H 0.57572 0.34863 0.53643 0.0
H1383 H 0.50712 0.27853 0.54318 0.0
H1384 H 0.60279 0.44272 0.52928 0.0
H1385 H 0.62226 0.51486 0.53996 0.0
loop_
_geom_bond_atom_site_label_1
_geom_bond_atom_site_label_2
_geom_bond_distance
_geom_bond_site_symmetry_2
_ccdc_geom_bond_type
O0 Zn1 1.953 . S
O0 C16 1.225 . S
Zn1 O0 1.953 . S
Zn1 O2 1.949 . S
Zn1 O8 1.919 . S
Zn1 O13 1.924 1_545 S
O2 Zn1 1.949 . S
O2 Zn3 1.923 . S
O2 Zn4 1.950 . S
O2 Zn5 1.945 1_545 S
Zn3 O2 1.923 . S
Zn3 O6 1.933 1_545 S
Zn3 O9 1.941 . S
Zn3 O10 1.965 . S
Zn4 O2 1.950 . S
Zn4 O11 1.938 . S
Zn4 O12 1.906 . S
Zn4 O22 1.953 . S
Zn5 O2 1.945 1_565 S
Zn5 O7 1.932 . S
Zn5 O14 1.977 . S
Zn5 O15 1.910 . S
O6 Zn3 1.933 1_565 S
O6 C17 1.226 . S
O7 Zn5 1.932 . S
O7 C17 1.307 . S
O8 Zn1 1.919 . S
O8 C19 1.256 1_545 S
O9 Zn3 1.941 . S
O9 C19 1.279 1_545 S
O10 Zn3 1.965 . S
O10 C18 1.303 . S
O11 Zn4 1.938 . S
O11 C18 1.247 . S
O12 Zn4 1.906 . S
O12 C20 1.304 1_545 S
O13 Zn1 1.924 1_565 S
O13 C21 1.311 . S
O14 Zn5 1.977 . S
O14 C20 1.272 . S
O15 Zn5 1.910 . S
O15 C21 1.231 . S
C16 O0 1.225 . S
C16 O22 1.298 . S
C17 O6 1.226 . S
C17 O7 1.307 . S
C18 O10 1.303 . S
C18 O11 1.247 . S
C19 O8 1.256 1_565 S
C19 O9 1.279 1_565 S
C20 O12 1.304 1_565 S
C20 O14 1.272 . S
C21 O13 1.311 . S
C21 O15 1.231 . S
O22 Zn4 1.953 . S
O22 C16 1.298 . S
O23 Zn24 1.953 1_655 S
O23 C39 1.225 . S
Zn24 O23 1.953 1_455 S
Zn24 O25 1.949 . S
Zn24 O31 1.919 . S
Zn24 O36 1.924 . S
O25 Zn24 1.949 . S
O25 Zn26 1.923 . S
O25 Zn27 1.950 1_455 S
O25 Zn28 1.945 . S
Zn26 O25 1.923 . S
Zn26 O29 1.933 . S
Zn26 O32 1.941 . S
Zn26 O33 1.965 1_455 S
Zn27 O25 1.950 1_655 S
Zn27 O34 1.938 . S
Zn27 O35 1.906 . S
Zn27 O45 1.953 . S
Zn28 O25 1.945 . S
Zn28 O30 1.932 . S
Zn28 O37 1.977 . S
Zn28 O38 1.910 . S
O29 Zn26 1.933 . S
O29 C40 1.226 . S
O30 Zn28 1.932 . S
O30 C40 1.307 . S
O31 Zn24 1.919 . S
O31 C42 1.253 . S
O32 Zn26 1.941 . S
O32 C42 1.283 . S
O33 Zn26 1.965 1_655 S
O33 C41 1.303 . S
O34 Zn27 1.938 . S
O34 C41 1.247 . S
O35 Zn27 1.906 . S
O35 C43 1.304 1_655 S
O36 Zn24 1.924 . S
O36 C44 1.311 . S
O37 Zn28 1.977 . S
O37 C43 1.272 . S
O38 Zn28 1.910 . S
O38 C44 1.231 . S
C39 O23 1.225 . S
C39 O45 1.298 . S
C40 O29 1.226 . S
C40 O30 1.307 . S
C41 O33 1.303 . S
C41 O34 1.247 . S
C42 O31 1.253 . S
C42 O32 1.283 . S
C43 O35 1.304 1_455 S
C43 O37 1.272 . S
C44 O36 1.311 . S
C44 O38 1.231 . S
O45 Zn27 1.953 . S
O45 C39 1.298 . S
O46 Zn47 1.953 . S
O46 C62 1.225 . S
Zn47 O46 1.953 . S
Zn47 O48 1.949 . S
Zn47 O54 1.919 . S
Zn47 O59 1.924 . S
O48 Zn47 1.949 . S
O48 Zn49 1.923 . S
O48 Zn50 1.950 . S
O48 Zn51 1.945 . S
Zn49 O48 1.923 . S
Zn49 O52 1.933 . S
Zn49 O55 1.941 . S
Zn49 O56 1.965 . S
Zn50 O48 1.950 . S
Zn50 O57 1.938 . S
Zn50 O58 1.906 . S
Zn50 O68 1.953 . S
Zn51 O48 1.945 . S
Zn51 O53 1.932 . S
Zn51 O60 1.977 . S
Zn51 O61 1.910 . S
O52 Zn49 1.933 . S
O52 C63 1.226 . S
O53 Zn51 1.932 . S
O53 C63 1.307 . S
O54 Zn47 1.919 . S
O54 C65 1.253 . S
O55 Zn49 1.941 . S
O55 C65 1.283 . S
O56 Zn49 1.965 . S
O56 C64 1.303 . S
O57 Zn50 1.938 . S
O57 C64 1.247 . S
O58 Zn50 1.906 . S
O58 C66 1.304 . S
O59 Zn47 1.924 . S
O59 C67 1.311 . S
O60 Zn51 1.977 . S
O60 C66 1.272 . S
O61 Zn51 1.910 . S
O61 C67 1.231 . S
C62 O46 1.225 . S
C62 O68 1.298 . S
C63 O52 1.226 . S
C63 O53 1.307 . S
C64 O56 1.303 . S
C64 O57 1.247 . S
C65 O54 1.253 . S
C65 O55 1.283 . S
C66 O58 1.304 . S
C66 O60 1.272 . S
C67 O59 1.311 . S
C67 O61 1.231 . S
O68 Zn50 1.953 . S
O68 C62 1.298 . S
O69 Zn70 1.953 . S
O69 C85 1.225 . S
Zn70 O69 1.953 . S
Zn70 O71 1.949 . S
Zn70 O77 1.919 . S
Zn70 O82 1.924 1_455 S
O71 Zn70 1.949 . S
O71 Zn72 1.923 . S
O71 Zn73 1.950 . S
O71 Zn74 1.945 1_455 S
Zn72 O71 1.923 . S
Zn72 O75 1.933 1_455 S
Zn72 O78 1.941 . S
Zn72 O79 1.965 . S
Zn73 O71 1.950 . S
Zn73 O80 1.938 . S
Zn73 O81 1.906 . S
Zn73 O91 1.953 . S
Zn74 O71 1.945 1_655 S
Zn74 O76 1.932 . S
Zn74 O83 1.977 . S
Zn74 O84 1.910 . S
O75 Zn72 1.933 1_655 S
O75 C86 1.226 . S
O76 Zn74 1.932 . S
O76 C86 1.307 . S
O77 Zn70 1.919 . S
O77 C88 1.256 1_455 S
O78 Zn72 1.941 . S
O78 C88 1.279 1_455 S
O79 Zn72 1.965 . S
O79 C87 1.303 . S
O80 Zn73 1.938 . S
O80 C87 1.247 . S
O81 Zn73 1.906 . S
O81 C89 1.304 1_455 S
O82 Zn70 1.924 1_655 S
O82 C90 1.311 . S
O83 Zn74 1.977 . S
O83 C89 1.272 . S
O84 Zn74 1.910 . S
O84 C90 1.231 . S
C85 O69 1.225 . S
C85 O91 1.298 . S
C86 O75 1.226 . S
C86 O76 1.307 . S
C87 O79 1.303 . S
C87 O80 1.247 . S
C88 O77 1.256 1_655 S
C88 O78 1.279 1_655 S
C89 O81 1.304 1_655 S
C89 O83 1.272 . S
C90 O82 1.311 . S
C90 O84 1.231 . S
O91 Zn73 1.953 . S
O91 C85 1.298 . S
O92 Zn93 1.953 . S
O92 C108 1.225 . S
Zn93 O92 1.953 . S
Zn93 O94 1.949 . S
Zn93 O100 1.919 . S
Zn93 O105 1.924 . S
O94 Zn93 1.949 . S
O94 Zn95 1.923 . S
O94 Zn96 1.950 . S
O94 Zn97 1.945 . S
Zn95 O94 1.923 . S
Zn95 O98 1.933 . S
Zn95 O101 1.941 . S
Zn95 O102 1.965 . S
Zn96 O94 1.950 . S
Zn96 O103 1.938 . S
Zn96 O104 1.906 . S
Zn96 O114 1.953 . S
Zn97 O94 1.945 . S
Zn97 O99 1.932 . S
Zn97 O106 1.977 . S
Zn97 O107 1.910 . S
O98 Zn95 1.933 . S
O98 C109 1.226 . S
O99 Zn97 1.932 . S
O99 C109 1.307 . S
O100 Zn93 1.919 . S
O100 C111 1.253 . S
O101 Zn95 1.941 . S
O101 C111 1.283 . S
O102 Zn95 1.965 . S
O102 C110 1.303 . S
O103 Zn96 1.938 . S
O103 C110 1.247 . S
O104 Zn96 1.906 . S
O104 C112 1.304 . S
O105 Zn93 1.924 . S
O105 C113 1.311 . S
O106 Zn97 1.977 . S
O106 C112 1.272 . S
O107 Zn97 1.910 . S
O107 C113 1.231 . S
C108 O92 1.225 . S
C108 O114 1.298 . S
C109 O98 1.226 . S
C109 O99 1.307 . S
C110 O102 1.303 . S
C110 O103 1.247 . S
C111 O100 1.253 . S
C111 O101 1.283 . S
C112 O104 1.304 . S
C112 O106 1.272 . S
C113 O105 1.311 . S
C113 O107 1.231 . S
O114 Zn96 1.953 . S
O114 C108 1.298 . S
O115 Zn116 1.953 1_565 S
O115 C131 1.225 . S
Zn116 O115 1.953 1_545 S
Zn116 O117 1.949 . S
Zn116 O123 1.919 . S
Zn116 O128 1.924 . S
O117 Zn116 1.949 . S
O117 Zn118 1.923 . S
O117 Zn119 1.950 1_545 S
O117 Zn120 1.945 . S
Zn118 O117 1.923 . S
Zn118 O121 1.933 . S
Zn118 O124 1.941 . S
Zn118 O125 1.965 1_545 S
Zn119 O117 1.950 1_565 S
Zn119 O126 1.938 . S
Zn119 O127 1.906 . S
Zn119 O137 1.953 . S
Zn120 O117 1.945 . S
Zn120 O122 1.932 . S
Zn120 O129 1.977 . S
Zn120 O130 1.910 . S
O121 Zn118 1.933 . S
O121 C132 1.226 . S
O122 Zn120 1.932 . S
O122 C132 1.307 . S
O123 Zn116 1.919 . S
O123 C134 1.253 . S
O124 Zn118 1.941 . S
O124 C134 1.283 . S
O125 Zn118 1.965 1_565 S
O125 C133 1.303 . S
O126 Zn119 1.938 . S
O126 C133 1.247 . S
O127 Zn119 1.906 . S
O127 C135 1.304 1_565 S
O128 Zn116 1.924 . S
O128 C136 1.311 . S
O129 Zn120 1.977 . S
O129 C135 1.272 . S
O130 Zn120 1.910 . S
O130 C136 1.231 . S
C131 O115 1.225 . S
C131 O137 1.298 . S
C132 O121 1.226 . S
C132 O122 1.307 . S
C133 O125 1.303 . S
C133 O126 1.247 . S
C134 O123 1.253 . S
C134 O124 1.283 . S
C135 O127 1.304 1_545 S
C135 O129 1.272 . S
C136 O128 1.311 . S
C136 O130 1.231 . S
O137 Zn119 1.953 . S
O137 C131 1.298 . S
O138 Zn139 1.953 . S
O138 C154 1.225 . S
Zn139 O138 1.953 . S
Zn139 O140 1.949 . S
Zn139 O146 1.919 . S
Zn139 O151 1.924 . S
O140 Zn139 1.949 . S
O140 Zn141 1.923 . S
O140 Zn142 1.950 . S
O140 Zn143 1.945 . S
Zn141 O140 1.923 . S
Zn141 O144 1.933 1_455 S
Zn141 O147 1.941 . S
Zn141 O148 1.965 . S
Zn142 O140 1.950 . S
Zn142 O149 1.938 . S
Zn142 O150 1.906 . S
Zn142 O160 1.953 . S
Zn143 O140 1.945 . S
Zn143 O145 1.932 1_455 S
Zn143 O152 1.977 . S
Zn143 O153 1.910 . S
O144 Zn141 1.933 1_655 S
O144 C155 1.226 . S
O145 Zn143 1.932 1_655 S
O145 C155 1.307 . S
O146 Zn139 1.919 . S
O146 C157 1.253 . S
O147 Zn141 1.941 . S
O147 C157 1.283 . S
O148 Zn141 1.965 . S
O148 C156 1.303 . S
O149 Zn142 1.938 . S
O149 C156 1.247 . S
O150 Zn142 1.906 . S
O150 C158 1.304 . S
O151 Zn139 1.924 . S
O151 C159 1.311 . S
O152 Zn143 1.977 . S
O152 C158 1.272 . S
O153 Zn143 1.910 . S
O153 C159 1.231 . S
C154 O138 1.225 . S
C154 O160 1.298 . S
C155 O144 1.226 . S
C155 O145 1.307 . S
C156 O148 1.303 . S
C156 O149 1.247 . S
C157 O146 1.253 . S
C157 O147 1.283 . S
C158 O150 1.304 . S
C158 O152 1.272 . S
C159 O151 1.311 . S
C159 O153 1.231 . S
O160 Zn142 1.953 . S
O160 C154 1.298 . S
O161 Zn162 1.953 . S
O161 C177 1.225 . S
Zn162 O161 1.953 . S
Zn162 O163 1.949 . S
Zn162 O169 1.919 . S
Zn162 O174 1.924 . S
O163 Zn162 1.949 . S
O163 Zn164 1.923 . S
O163 Zn165 1.950 . S
O163 Zn166 1.945 . S
Zn164 O163 1.923 . S
Zn164 O167 1.933 . S
Zn164 O170 1.941 . S
Zn164 O171 1.965 . S
Zn165 O163 1.950 . S
Zn165 O172 1.938 . S
Zn165 O173 1.906 . S
Zn165 O183 1.953 . S
Zn166 O163 1.945 . S
Zn166 O168 1.932 . S
Zn166 O175 1.977 . S
Zn166 O176 1.910 . S
O167 Zn164 1.933 . S
O167 C178 1.226 . S
O168 Zn166 1.932 . S
O168 C178 1.307 . S
O169 Zn162 1.919 . S
O169 C180 1.253 . S
O170 Zn164 1.941 . S
O170 C180 1.283 . S
O171 Zn164 1.965 . S
O171 C179 1.303 . S
O172 Zn165 1.938 . S
O172 C179 1.247 . S
O173 Zn165 1.906 . S
O173 C181 1.304 . S
O174 Zn162 1.924 . S
O174 C182 1.311 . S
O175 Zn166 1.977 . S
O175 C181 1.272 . S
O176 Zn166 1.910 . S
O176 C182 1.231 . S
C177 O161 1.225 . S
C177 O183 1.298 . S
C178 O167 1.226 . S
C178 O168 1.307 . S
C179 O171 1.303 . S
C179 O172 1.247 . S
C180 O169 1.253 . S
C180 O170 1.283 . S
C181 O173 1.304 . S
C181 O175 1.272 . S
C182 O174 1.311 . S
C182 O176 1.231 . S
O183 Zn165 1.953 . S
O183 C177 1.298 . S
O184 Zn185 1.953 . S
O184 C200 1.225 . S
Zn185 O184 1.953 . S
Zn185 O186 1.949 . S
Zn185 O192 1.919 . S
Zn185 O197 1.924 . S
O186 Zn185 1.949 . S
O186 Zn187 1.923 . S
O186 Zn188 1.950 . S
O186 Zn189 1.945 . S
Zn187 O186 1.923 . S
Zn187 O190 1.933 1_565 S
Zn187 O193 1.941 . S
Zn187 O194 1.965 . S
Zn188 O186 1.950 . S
Zn188 O195 1.938 . S
Zn188 O196 1.906 . S
Zn188 O206 1.953 . S
Zn189 O186 1.945 . S
Zn189 O191 1.932 1_565 S
Zn189 O198 1.977 . S
Zn189 O199 1.910 . S
O190 Zn187 1.933 1_545 S
O190 C201 1.226 . S
O191 Zn189 1.932 1_545 S
O191 C201 1.307 . S
O192 Zn185 1.919 . S
O192 C203 1.253 . S
O193 Zn187 1.941 . S
O193 C203 1.283 . S
O194 Zn187 1.965 . S
O194 C202 1.303 . S
O195 Zn188 1.938 . S
O195 C202 1.247 . S
O196 Zn188 1.906 . S
O196 C204 1.304 . S
O197 Zn185 1.924 . S
O197 C205 1.311 . S
O198 Zn189 1.977 . S
O198 C204 1.272 . S
O199 Zn189 1.910 . S
O199 C205 1.231 . S
C200 O184 1.225 . S
C200 O206 1.298 . S
C201 O190 1.226 . S
C201 O191 1.307 . S
C202 O194 1.303 . S
C202 O195 1.247 . S
C203 O192 1.253 . S
C203 O193 1.283 . S
C204 O196 1.304 . S
C204 O198 1.272 . S
C205 O197 1.311 . S
C205 O199 1.231 . S
O206 Zn188 1.953 . S
O206 C200 1.298 . S
O207 Zn208 1.953 . S
O207 C223 1.225 . S
Zn208 O207 1.953 . S
Zn208 O209 1.949 . S
Zn208 O215 1.919 . S
Zn208 O220 1.924 . S
O209 Zn208 1.949 . S
O209 Zn210 1.923 . S
O209 Zn211 1.950 . S
O209 Zn212 1.945 . S
Zn210 O209 1.923 . S
Zn210 O213 1.933 . S
Zn210 O216 1.941 . S
Zn210 O217 1.965 . S
Zn211 O209 1.950 . S
Zn211 O218 1.938 . S
Zn211 O219 1.906 . S
Zn211 O229 1.953 . S
Zn212 O209 1.945 . S
Zn212 O214 1.932 . S
Zn212 O221 1.977 . S
Zn212 O222 1.910 . S
O213 Zn210 1.933 . S
O213 C224 1.226 . S
O214 Zn212 1.932 . S
O214 C224 1.307 . S
O215 Zn208 1.919 . S
O215 C226 1.253 . S
O216 Zn210 1.941 . S
O216 C226 1.283 . S
O217 Zn210 1.965 . S
O217 C225 1.303 . S
O218 Zn211 1.938 . S
O218 C225 1.247 . S
O219 Zn211 1.906 . S
O219 C227 1.304 . S
O220 Zn208 1.924 . S
O220 C228 1.311 . S
O221 Zn212 1.977 . S
O221 C227 1.272 . S
O222 Zn212 1.910 . S
O222 C228 1.231 . S
C223 O207 1.225 . S
C223 O229 1.298 . S
C224 O213 1.226 . S
C224 O214 1.307 . S
C225 O217 1.303 . S
C225 O218 1.247 . S
C226 O215 1.253 . S
C226 O216 1.283 . S
C227 O219 1.304 . S
C227 O221 1.272 . S
C228 O220 1.311 . S
C228 O222 1.231 . S
O229 Zn211 1.953 . S
O229 C223 1.298 . S
O230 Zn231 1.953 . S
O230 C246 1.225 . S
Zn231 O230 1.953 . S
Zn231 O232 1.949 . S
Zn231 O238 1.919 . S
Zn231 O243 1.924 . S
O232 Zn231 1.949 . S
O232 Zn233 1.923 . S
O232 Zn234 1.950 . S
O232 Zn235 1.945 . S
Zn233 O232 1.923 . S
Zn233 O236 1.933 . S
Zn233 O239 1.941 . S
Zn233 O240 1.965 1_565 S
Zn234 O232 1.950 . S
Zn234 O241 1.938 1_565 S
Zn234 O242 1.906 . S
Zn234 O252 1.953 . S
Zn235 O232 1.945 . S
Zn235 O237 1.932 . S
Zn235 O244 1.977 . S
Zn235 O245 1.910 . S
O236 Zn233 1.933 . S
O236 C247 1.226 . S
O237 Zn235 1.932 . S
O237 C247 1.307 . S
O238 Zn231 1.919 . S
O238 C249 1.253 . S
O239 Zn233 1.941 . S
O239 C249 1.283 . S
O240 Zn233 1.965 1_545 S
O240 C248 1.303 . S
O241 Zn234 1.938 1_545 S
O241 C248 1.247 . S
O242 Zn234 1.906 . S
O242 C250 1.304 . S
O243 Zn231 1.924 . S
O243 C251 1.311 . S
O244 Zn235 1.977 . S
O244 C250 1.272 . S
O245 Zn235 1.910 . S
O245 C251 1.231 . S
C246 O230 1.225 . S
C246 O252 1.298 . S
C247 O236 1.226 . S
C247 O237 1.307 . S
C248 O240 1.303 . S
C248 O241 1.247 . S
C249 O238 1.253 . S
C249 O239 1.283 . S
C250 O242 1.304 . S
C250 O244 1.272 . S
C251 O243 1.311 . S
C251 O245 1.231 . S
O252 Zn234 1.953 . S
O252 C246 1.298 . S
O253 Zn254 1.953 . S
O253 C269 1.225 . S
Zn254 O253 1.953 . S
Zn254 O255 1.949 . S
Zn254 O261 1.919 . S
Zn254 O266 1.924 . S
O255 Zn254 1.949 . S
O255 Zn256 1.923 . S
O255 Zn257 1.950 . S
O255 Zn258 1.945 . S
Zn256 O255 1.923 . S
Zn256 O259 1.933 . S
Zn256 O262 1.941 . S
Zn256 O263 1.965 1_455 S
Zn257 O255 1.950 . S
Zn257 O264 1.938 . S
Zn257 O265 1.906 . S
Zn257 O275 1.953 . S
Zn258 O255 1.945 . S
Zn258 O260 1.932 . S
Zn258 O267 1.977 . S
Zn258 O268 1.910 . S
O259 Zn256 1.933 . S
O259 C270 1.226 . S
O260 Zn258 1.932 . S
O260 C270 1.307 . S
O261 Zn254 1.919 . S
O261 C272 1.253 . S
O262 Zn256 1.941 . S
O262 C272 1.283 . S
O263 Zn256 1.965 1_655 S
O263 C271 1.303 . S
O264 Zn257 1.938 . S
O264 C271 1.247 1_455 S
O265 Zn257 1.906 . S
O265 C273 1.304 . S
O266 Zn254 1.924 . S
O266 C274 1.311 . S
O267 Zn258 1.977 . S
O267 C273 1.272 . S
O268 Zn258 1.910 . S
O268 C274 1.231 . S
C269 O253 1.225 . S
C269 O275 1.298 . S
C270 O259 1.226 . S
C270 O260 1.307 . S
C271 O263 1.303 . S
C271 O264 1.247 1_655 S
C272 O261 1.253 . S
C272 O262 1.283 . S
C273 O265 1.304 . S
C273 O267 1.272 . S
C274 O266 1.311 . S
C274 O268 1.231 . S
O275 Zn257 1.953 . S
O275 C269 1.298 . S
O276 Zn277 1.953 . S
O276 C292 1.225 . S
Zn277 O276 1.953 . S
Zn277 O278 1.949 . S
Zn277 O284 1.919 . S
Zn277 O289 1.924 . S
O278 Zn277 1.949 . S
O278 Zn279 1.923 . S
O278 Zn280 1.950 . S
O278 Zn281 1.945 . S
Zn279 O278 1.923 . S
Zn279 O282 1.933 . S
Zn279 O285 1.941 . S
Zn279 O286 1.965 . S
Zn280 O278 1.950 . S
Zn280 O287 1.938 . S
Zn280 O288 1.906 . S
Zn280 O298 1.953 . S
Zn281 O278 1.945 . S
Zn281 O283 1.932 . S
Zn281 O290 1.977 . S
Zn281 O291 1.910 . S
O282 Zn279 1.933 . S
O282 C293 1.226 . S
O283 Zn281 1.932 . S
O283 C293 1.307 . S
O284 Zn277 1.919 . S
O284 C295 1.253 . S
O285 Zn279 1.941 . S
O285 C295 1.283 . S
O286 Zn279 1.965 . S
O286 C294 1.303 . S
O287 Zn280 1.938 . S
O287 C294 1.247 . S
O288 Zn280 1.906 . S
O288 C296 1.304 . S
O289 Zn277 1.924 . S
O289 C297 1.311 . S
O290 Zn281 1.977 . S
O290 C296 1.272 . S
O291 Zn281 1.910 . S
O291 C297 1.231 . S
C292 O276 1.225 . S
C292 O298 1.298 . S
C293 O282 1.226 . S
C293 O283 1.307 . S
C294 O286 1.303 . S
C294 O287 1.247 . S
C295 O284 1.253 . S
C295 O285 1.283 . S
C296 O288 1.304 . S
C296 O290 1.272 . S
C297 O289 1.311 . S
C297 O291 1.231 . S
O298 Zn280 1.953 . S
O298 C292 1.298 . S
O299 Zn300 1.953 . S
O299 C315 1.225 . S
Zn300 O299 1.953 . S
Zn300 O301 1.949 . S
Zn300 O307 1.919 . S
Zn300 O312 1.924 . S
O301 Zn300 1.949 . S
O301 Zn302 1.923 . S
O301 Zn303 1.950 . S
O301 Zn304 1.945 . S
Zn302 O301 1.923 . S
Zn302 O305 1.933 . S
Zn302 O308 1.941 . S
Zn302 O309 1.965 1_545 S
Zn303 O301 1.950 . S
Zn303 O310 1.938 . S
Zn303 O311 1.906 . S
Zn303 O321 1.953 . S
Zn304 O301 1.945 . S
Zn304 O306 1.932 . S
Zn304 O313 1.977 . S
Zn304 O314 1.910 . S
O305 Zn302 1.933 . S
O305 C316 1.226 . S
O306 Zn304 1.932 . S
O306 C316 1.307 . S
O307 Zn300 1.919 . S
O307 C318 1.253 . S
O308 Zn302 1.941 . S
O308 C318 1.283 . S
O309 Zn302 1.965 1_565 S
O309 C317 1.303 . S
O310 Zn303 1.938 . S
O310 C317 1.247 1_545 S
O311 Zn303 1.906 . S
O311 C319 1.304 . S
O312 Zn300 1.924 . S
O312 C320 1.311 . S
O313 Zn304 1.977 . S
O313 C319 1.272 . S
O314 Zn304 1.910 . S
O314 C320 1.231 . S
C315 O299 1.225 . S
C315 O321 1.298 . S
C316 O305 1.226 . S
C316 O306 1.307 . S
C317 O309 1.303 . S
C317 O310 1.247 1_565 S
C318 O307 1.253 . S
C318 O308 1.283 . S
C319 O311 1.304 . S
C319 O313 1.272 . S
C320 O312 1.311 . S
C320 O314 1.231 . S
O321 Zn303 1.953 . S
O321 C315 1.298 . S
O322 Zn323 1.953 . S
O322 C338 1.225 . S
Zn323 O322 1.953 . S
Zn323 O324 1.949 . S
Zn323 O330 1.919 . S
Zn323 O335 1.924 . S
O324 Zn323 1.949 . S
O324 Zn325 1.923 . S
O324 Zn326 1.950 . S
O324 Zn327 1.945 . S
Zn325 O324 1.923 . S
Zn325 O328 1.933 . S
Zn325 O331 1.941 . S
Zn325 O332 1.965 1_655 S
Zn326 O324 1.950 . S
Zn326 O333 1.938 1_655 S
Zn326 O334 1.906 . S
Zn326 O344 1.953 . S
Zn327 O324 1.945 . S
Zn327 O329 1.932 . S
Zn327 O336 1.977 . S
Zn327 O337 1.910 . S
O328 Zn325 1.933 . S
O328 C339 1.226 . S
O329 Zn327 1.932 . S
O329 C339 1.307 . S
O330 Zn323 1.919 . S
O330 C341 1.253 . S
O331 Zn325 1.941 . S
O331 C341 1.283 . S
O332 Zn325 1.965 1_455 S
O332 C340 1.303 . S
O333 Zn326 1.938 1_455 S
O333 C340 1.247 . S
O334 Zn326 1.906 . S
O334 C342 1.304 . S
O335 Zn323 1.924 . S
O335 C343 1.311 . S
O336 Zn327 1.977 . S
O336 C342 1.272 . S
O337 Zn327 1.910 . S
O337 C343 1.231 . S
C338 O322 1.225 . S
C338 O344 1.298 . S
C339 O328 1.226 . S
C339 O329 1.307 . S
C340 O332 1.303 . S
C340 O333 1.247 . S
C341 O330 1.253 . S
C341 O331 1.283 . S
C342 O334 1.304 . S
C342 O336 1.272 . S
C343 O335 1.311 . S
C343 O337 1.231 . S
O344 Zn326 1.953 . S
O344 C338 1.298 . S
O345 Zn346 1.953 . S
O345 C361 1.225 . S
Zn346 O345 1.953 . S
Zn346 O347 1.949 . S
Zn346 O353 1.919 . S
Zn346 O358 1.924 . S
O347 Zn346 1.949 . S
O347 Zn348 1.923 . S
O347 Zn349 1.950 . S
O347 Zn350 1.945 . S
Zn348 O347 1.923 . S
Zn348 O351 1.933 1_545 S
Zn348 O354 1.941 . S
Zn348 O355 1.965 . S
Zn349 O347 1.950 . S
Zn349 O356 1.938 . S
Zn349 O357 1.906 . S
Zn349 O367 1.953 . S
Zn350 O347 1.945 . S
Zn350 O352 1.932 1_545 S
Zn350 O359 1.977 . S
Zn350 O360 1.910 . S
O351 Zn348 1.933 1_565 S
O351 C362 1.226 . S
O352 Zn350 1.932 1_565 S
O352 C362 1.307 . S
O353 Zn346 1.919 . S
O353 C364 1.253 . S
O354 Zn348 1.941 . S
O354 C364 1.283 . S
O355 Zn348 1.965 . S
O355 C363 1.303 . S
O356 Zn349 1.938 . S
O356 C363 1.247 . S
O357 Zn349 1.906 . S
O357 C365 1.304 . S
O358 Zn346 1.924 . S
O358 C366 1.311 . S
O359 Zn350 1.977 . S
O359 C365 1.272 . S
O360 Zn350 1.910 . S
O360 C366 1.231 . S
C361 O345 1.225 . S
C361 O367 1.298 . S
C362 O351 1.226 . S
C362 O352 1.307 . S
C363 O355 1.303 . S
C363 O356 1.247 . S
C364 O353 1.253 . S
C364 O354 1.283 . S
C365 O357 1.304 . S
C365 O359 1.272 . S
C366 O358 1.311 . S
C366 O360 1.231 . S
O367 Zn349 1.953 . S
O367 C361 1.298 . S
O368 Zn369 1.953 . S
O368 C384 1.225 . S
Zn369 O368 1.953 . S
Zn369 O370 1.949 . S
Zn369 O376 1.919 . S
Zn369 O381 1.924 . S
O370 Zn369 1.949 . S
O370 Zn371 1.923 . S
O370 Zn372 1.950 . S
O370 Zn373 1.945 . S
Zn371 O370 1.923 . S
Zn371 O374 1.933 1_655 S
Zn371 O377 1.941 . S
Zn371 O378 1.965 . S
Zn372 O370 1.950 . S
Zn372 O379 1.938 . S
Zn372 O380 1.906 . S
Zn372 O390 1.953 . S
Zn373 O370 1.945 . S
Zn373 O375 1.932 1_655 S
Zn373 O382 1.977 . S
Zn373 O383 1.910 . S
O374 Zn371 1.933 1_455 S
O374 C385 1.226 . S
O375 Zn373 1.932 1_455 S
O375 C385 1.307 . S
O376 Zn369 1.919 . S
O376 C387 1.253 . S
O377 Zn371 1.941 . S
O377 C387 1.283 . S
O378 Zn371 1.965 . S
O378 C386 1.303 . S
O379 Zn372 1.938 . S
O379 C386 1.247 . S
O380 Zn372 1.906 . S
O380 C388 1.304 . S
O381 Zn369 1.924 . S
O381 C389 1.311 . S
O382 Zn373 1.977 . S
O382 C388 1.272 . S
O383 Zn373 1.910 . S
O383 C389 1.231 . S
C384 O368 1.225 . S
C384 O390 1.298 . S
C385 O374 1.226 . S
C385 O375 1.307 . S
C386 O378 1.303 . S
C386 O379 1.247 . S
C387 O376 1.253 . S
C387 O377 1.283 . S
C388 O380 1.304 . S
C388 O382 1.272 . S
C389 O381 1.311 . S
C389 O383 1.231 . S
O390 Zn372 1.953 . S
O390 C384 1.298 . S
O391 Zn392 1.953 . S
O391 C407 1.225 . S
Zn392 O391 1.953 . S
Zn392 O393 1.949 . S
Zn392 O399 1.919 . S
Zn392 O404 1.924 . S
O393 Zn392 1.949 . S
O393 Zn394 1.923 . S
O393 Zn395 1.950 . S
O393 Zn396 1.945 . S
Zn394 O393 1.923 . S
Zn394 O397 1.933 . S
Zn394 O400 1.941 . S
Zn394 O401 1.965 . S
Zn395 O393 1.950 . S
Zn395 O402 1.938 . S
Zn395 O403 1.906 . S
Zn395 O413 1.953 . S
Zn396 O393 1.945 . S
Zn396 O398 1.932 . S
Zn396 O405 1.977 . S
Zn396 O406 1.910 . S
O397 Zn394 1.933 . S
O397 C408 1.226 . S
O398 Zn396 1.932 . S
O398 C408 1.307 . S
O399 Zn392 1.919 . S
O399 C410 1.253 . S
O400 Zn394 1.941 . S
O400 C410 1.283 . S
O401 Zn394 1.965 . S
O401 C409 1.303 . S
O402 Zn395 1.938 . S
O402 C409 1.247 . S
O403 Zn395 1.906 . S
O403 C411 1.304 . S
O404 Zn392 1.924 . S
O404 C412 1.311 . S
O405 Zn396 1.977 . S
O405 C411 1.272 . S
O406 Zn396 1.910 . S
O406 C412 1.231 . S
C407 O391 1.225 . S
C407 O413 1.298 . S
C408 O397 1.226 . S
C408 O398 1.307 . S
C409 O401 1.303 . S
C409 O402 1.247 . S
C410 O399 1.253 . S
C410 O400 1.283 . S
C411 O403 1.304 . S
C411 O405 1.272 . S
C412 O404 1.311 . S
C412 O406 1.231 . S
O413 Zn395 1.953 . S
O413 C407 1.298 . S
C414 C415 1.363 . S
C414 C420 1.379 . S
C414 N422 1.356 . S
C415 C414 1.363 . S
C415 C421 1.363 . S
C416 C417 1.363 . S
C416 C421 1.379 . S
C416 N423 1.356 . S
C417 C416 1.363 . S
C417 C420 1.363 . S
N418 C420 1.356 . S
N418 H430 0.984 . S
N418 H431 0.985 . S
N419 C421 1.356 . S
N419 H424 0.984 . S
N419 H425 0.985 . S
C420 C414 1.379 . S
C420 C417 1.363 . S
C420 N418 1.356 . S
C421 C415 1.363 . S
C421 C416 1.379 . S
C421 N419 1.356 . S
N422 C414 1.356 . S
N422 H428 0.984 . S
N422 H429 0.984 . S
N423 C416 1.356 . S
N423 H426 0.984 . S
N423 H427 0.985 . S
H424 N419 0.984 . S
H425 N419 0.985 . S
H426 N423 0.984 . S
H427 N423 0.985 . S
H428 N422 0.984 . S
H429 N422 0.984 . S
H430 N418 0.984 . S
H431 N418 0.985 . S
C432 C433 1.363 . S
C432 C438 1.379 . S
C432 N440 1.356 . S
C433 C432 1.363 . S
C433 C439 1.363 . S
C434 C435 1.363 . S
C434 C439 1.379 . S
C434 N441 1.356 . S
C435 C434 1.363 . S
C435 C438 1.363 . S
N436 C438 1.356 . S
N436 H448 0.984 . S
N436 H449 0.985 . S
N437 C439 1.356 . S
N437 H442 0.984 . S
N437 H443 0.985 . S
C438 C432 1.379 . S
C438 C435 1.363 . S
C438 N436 1.356 . S
C439 C433 1.363 . S
C439 C434 1.379 . S
C439 N437 1.356 . S
N440 C432 1.356 . S
N440 H446 0.984 . S
N440 H447 0.984 . S
N441 C434 1.356 . S
N441 H444 0.984 . S
N441 H445 0.985 . S
H442 N437 0.984 . S
H443 N437 0.985 . S
H444 N441 0.984 . S
H445 N441 0.985 . S
H446 N440 0.984 . S
H447 N440 0.984 . S
H448 N436 0.984 . S
H449 N436 0.985 . S
C450 C451 1.363 . S
C450 C456 1.379 . S
C450 N458 1.356 . S
C451 C450 1.363 . S
C451 C457 1.363 . S
C452 C453 1.363 . S
C452 C457 1.379 . S
C452 N459 1.356 . S
C453 C452 1.363 . S
C453 C456 1.363 . S
N454 C456 1.356 . S
N454 H466 0.984 . S
N454 H467 0.985 . S
N455 C457 1.356 . S
N455 H460 0.984 . S
N455 H461 0.985 . S
C456 C450 1.379 . S
C456 C453 1.363 . S
C456 N454 1.356 . S
C457 C451 1.363 . S
C457 C452 1.379 . S
C457 N455 1.356 . S
N458 C450 1.356 . S
N458 H464 0.984 . S
N458 H465 0.984 . S
N459 C452 1.356 . S
N459 H462 0.984 . S
N459 H463 0.985 . S
H460 N455 0.984 . S
H461 N455 0.985 . S
H462 N459 0.984 . S
H463 N459 0.985 . S
H464 N458 0.984 . S
H465 N458 0.984 . S
H466 N454 0.984 . S
H467 N454 0.985 . S
C468 C469 1.363 . S
C468 C474 1.379 . S
C468 N476 1.356 . S
C469 C468 1.363 . S
C469 C475 1.363 . S
C470 C471 1.363 . S
C470 C475 1.379 . S
C470 N477 1.356 . S
C471 C470 1.363 . S
C471 C474 1.363 . S
N472 C474 1.356 . S
N472 H484 0.984 . S
N472 H485 0.985 . S
N473 C475 1.356 . S
N473 H478 0.984 . S
N473 H479 0.985 . S
C474 C468 1.379 . S
C474 C471 1.363 . S
C474 N472 1.356 . S
C475 C469 1.363 . S
C475 C470 1.379 . S
C475 N473 1.356 . S
N476 C468 1.356 . S
N476 H482 0.984 . S
N476 H483 0.984 . S
N477 C470 1.356 . S
N477 H480 0.984 . S
N477 H481 0.985 . S
H478 N473 0.984 . S
H479 N473 0.985 . S
H480 N477 0.984 . S
H481 N477 0.985 . S
H482 N476 0.984 . S
H483 N476 0.984 . S
H484 N472 0.984 . S
H485 N472 0.985 . S
C486 C487 1.363 . S
C486 C492 1.379 . S
C486 N494 1.356 . S
C487 C486 1.363 . S
C487 C493 1.363 . S
C488 C489 1.363 . S
C488 C493 1.379 . S
C488 N495 1.356 . S
C489 C488 1.363 . S
C489 C492 1.363 . S
N490 C492 1.356 . S
N490 H502 0.984 . S
N490 H503 0.985 . S
N491 C493 1.356 . S
N491 H496 0.984 . S
N491 H497 0.985 . S
C492 C486 1.379 . S
C492 C489 1.363 . S
C492 N490 1.356 . S
C493 C487 1.363 . S
C493 C488 1.379 . S
C493 N491 1.356 . S
N494 C486 1.356 . S
N494 H500 0.984 . S
N494 H501 0.984 . S
N495 C488 1.356 . S
N495 H498 0.984 . S
N495 H499 0.985 . S
H496 N491 0.984 . S
H497 N491 0.985 . S
H498 N495 0.984 . S
H499 N495 0.985 . S
H500 N494 0.984 . S
H501 N494 0.984 . S
H502 N490 0.984 . S
H503 N490 0.985 . S
C504 C505 1.363 . S
C504 C510 1.379 . S
C504 N512 1.356 . S
C505 C504 1.363 . S
C505 C511 1.363 . S
C506 C507 1.363 . S
C506 C511 1.379 . S
C506 N513 1.356 . S
C507 C506 1.363 . S
C507 C510 1.363 . S
N508 C510 1.356 . S
N508 H520 0.984 . S
N508 H521 0.985 . S
N509 C511 1.356 . S
N509 H514 0.984 . S
N509 H515 0.985 . S
C510 C504 1.379 . S
C510 C507 1.363 . S
C510 N508 1.356 . S
C511 C505 1.363 . S
C511 C506 1.379 . S
C511 N509 1.356 . S
N512 C504 1.356 . S
N512 H518 0.984 . S
N512 H519 0.984 . S
N513 C506 1.356 . S
N513 H516 0.984 . S
N513 H517 0.985 . S
H514 N509 0.984 . S
H515 N509 0.985 . S
H516 N513 0.984 . S
H517 N513 0.985 . S
H518 N512 0.984 . S
H519 N512 0.984 . S
H520 N508 0.984 . S
H521 N508 0.985 . S
C522 C523 1.363 . S
C522 C528 1.379 . S
C522 N530 1.356 . S
C523 C522 1.363 . S
C523 C529 1.363 . S
C524 C525 1.363 . S
C524 C529 1.379 . S
C524 N531 1.356 . S
C525 C524 1.363 . S
C525 C528 1.363 . S
N526 C528 1.356 . S
N526 H538 0.984 . S
N526 H539 0.985 . S
N527 C529 1.356 . S
N527 H532 0.984 . S
N527 H533 0.985 . S
C528 C522 1.379 . S
C528 C525 1.363 . S
C528 N526 1.356 . S
C529 C523 1.363 . S
C529 C524 1.379 . S
C529 N527 1.356 . S
N530 C522 1.356 . S
N530 H536 0.984 . S
N530 H537 0.984 . S
N531 C524 1.356 . S
N531 H534 0.984 . S
N531 H535 0.985 . S
H532 N527 0.984 . S
H533 N527 0.985 . S
H534 N531 0.984 . S
H535 N531 0.985 . S
H536 N530 0.984 . S
H537 N530 0.984 . S
H538 N526 0.984 . S
H539 N526 0.985 . S
C540 C541 1.363 . S
C540 C546 1.379 . S
C540 N548 1.356 . S
C541 C540 1.363 . S
C541 C547 1.363 . S
C542 C543 1.363 . S
C542 C547 1.379 . S
C542 N549 1.356 . S
C543 C542 1.363 . S
C543 C546 1.363 . S
N544 C546 1.356 . S
N544 H556 0.984 . S
N544 H557 0.985 1_545 S
N545 C547 1.356 . S
N545 H550 0.984 . S
N545 H551 0.985 . S
C546 C540 1.379 . S
C546 C543 1.363 . S
C546 N544 1.356 . S
C547 C541 1.363 . S
C547 C542 1.379 . S
C547 N545 1.356 . S
N548 C540 1.356 . S
N548 H554 0.984 . S
N548 H555 0.984 . S
N549 C542 1.356 . S
N549 H552 0.984 1_545 S
N549 H553 0.985 . S
H550 N545 0.984 . S
H551 N545 0.985 . S
H552 N549 0.984 1_565 S
H553 N549 0.985 . S
H554 N548 0.984 . S
H555 N548 0.984 . S
H556 N544 0.984 . S
H557 N544 0.985 1_565 S
C558 C559 1.363 . S
C558 C564 1.379 . S
C558 N566 1.356 . S
C559 C558 1.363 . S
C559 C565 1.363 . S
C560 C561 1.363 . S
C560 C565 1.379 . S
C560 N567 1.356 . S
C561 C560 1.363 . S
C561 C564 1.363 . S
N562 C564 1.356 . S
N562 H574 0.984 . S
N562 H575 0.985 . S
N563 C565 1.356 1_455 S
N563 H568 0.984 . S
N563 H569 0.985 . S
C564 C558 1.379 . S
C564 C561 1.363 . S
C564 N562 1.356 . S
C565 C559 1.363 . S
C565 C560 1.379 . S
C565 N563 1.356 1_655 S
N566 C558 1.356 . S
N566 H572 0.984 . S
N566 H573 0.984 1_655 S
N567 C560 1.356 . S
N567 H570 0.984 . S
N567 H571 0.985 . S
H568 N563 0.984 . S
H569 N563 0.985 . S
H570 N567 0.984 . S
H571 N567 0.985 . S
H572 N566 0.984 . S
H573 N566 0.984 1_455 S
H574 N562 0.984 . S
H575 N562 0.985 . S
C576 C577 1.363 . S
C576 C582 1.379 . S
C576 N584 1.356 . S
C577 C576 1.363 . S
C577 C583 1.363 . S
C578 C579 1.363 . S
C578 C583 1.379 . S
C578 N585 1.356 . S
C579 C578 1.363 . S
C579 C582 1.363 . S
N580 C582 1.356 . S
N580 H592 0.984 . S
N580 H593 0.985 . S
N581 C583 1.356 . S
N581 H586 0.984 . S
N581 H587 0.985 . S
C582 C576 1.379 . S
C582 C579 1.363 . S
C582 N580 1.356 . S
C583 C577 1.363 . S
C583 C578 1.379 . S
C583 N581 1.356 . S
N584 C576 1.356 . S
N584 H590 0.984 1_565 S
N584 H591 0.984 . S
N585 C578 1.356 . S
N585 H588 0.984 . S
N585 H589 0.985 . S
H586 N581 0.984 . S
H587 N581 0.985 . S
H588 N585 0.984 . S
H589 N585 0.985 . S
H590 N584 0.984 1_545 S
H591 N584 0.984 . S
H592 N580 0.984 . S
H593 N580 0.985 . S
C594 C595 1.363 . S
C594 C600 1.379 . S
C594 N602 1.356 . S
C595 C594 1.363 . S
C595 C601 1.363 . S
C596 C597 1.363 . S
C596 C601 1.379 . S
C596 N603 1.356 . S
C597 C596 1.363 . S
C597 C600 1.363 . S
N598 C600 1.356 . S
N598 H610 0.984 . S
N598 H611 0.985 . S
N599 C601 1.356 . S
N599 H604 0.984 . S
N599 H605 0.985 . S
C600 C594 1.379 . S
C600 C597 1.363 . S
C600 N598 1.356 . S
C601 C595 1.363 . S
C601 C596 1.379 . S
C601 N599 1.356 . S
N602 C594 1.356 . S
N602 H608 0.984 . S
N602 H609 0.984 . S
N603 C596 1.356 . S
N603 H606 0.984 . S
N603 H607 0.985 1_455 S
H604 N599 0.984 . S
H605 N599 0.985 . S
H606 N603 0.984 . S
H607 N603 0.985 1_655 S
H608 N602 0.984 . S
H609 N602 0.984 . S
H610 N598 0.984 . S
H611 N598 0.985 . S
C612 C613 1.363 . S
C612 C618 1.379 . S
C612 N620 1.356 . S
C613 C612 1.363 . S
C613 C619 1.363 . S
C614 C615 1.363 . S
C614 C619 1.379 . S
C614 N621 1.356 . S
C615 C614 1.363 . S
C615 C618 1.363 . S
N616 C618 1.356 . S
N616 H628 0.984 . S
N616 H629 0.985 . S
N617 C619 1.356 . S
N617 H622 0.984 . S
N617 H623 0.985 . S
C618 C612 1.379 . S
C618 C615 1.363 . S
C618 N616 1.356 . S
C619 C613 1.363 . S
C619 C614 1.379 . S
C619 N617 1.356 . S
N620 C612 1.356 . S
N620 H626 0.984 . S
N620 H627 0.984 . S
N621 C614 1.356 . S
N621 H624 0.984 . S
N621 H625 0.985 . S
H622 N617 0.984 . S
H623 N617 0.985 . S
H624 N621 0.984 . S
H625 N621 0.985 . S
H626 N620 0.984 . S
H627 N620 0.984 . S
H628 N616 0.984 . S
H629 N616 0.985 . S
C630 C631 1.363 . S
C630 C636 1.379 . S
C630 N638 1.356 . S
C631 C630 1.363 . S
C631 C637 1.363 . S
C632 C633 1.363 . S
C632 C637 1.379 . S
C632 N639 1.356 . S
C633 C632 1.363 . S
C633 C636 1.363 . S
N634 C636 1.356 1_455 S
N634 H646 0.984 . S
N634 H647 0.985 . S
N635 C637 1.356 . S
N635 H640 0.984 . S
N635 H641 0.985 . S
C636 C630 1.379 . S
C636 C633 1.363 . S
C636 N634 1.356 1_655 S
C637 C631 1.363 . S
C637 C632 1.379 . S
C637 N635 1.356 . S
N638 C630 1.356 . S
N638 H644 0.984 . S
N638 H645 0.984 . S
N639 C632 1.356 . S
N639 H642 0.984 . S
N639 H643 0.985 . S
H640 N635 0.984 . S
H641 N635 0.985 . S
H642 N639 0.984 . S
H643 N639 0.985 . S
H644 N638 0.984 . S
H645 N638 0.984 . S
H646 N634 0.984 . S
H647 N634 0.985 . S
C648 C649 1.363 . S
C648 C654 1.379 . S
C648 N656 1.356 . S
C649 C648 1.363 . S
C649 C655 1.363 . S
C650 C651 1.363 . S
C650 C655 1.379 . S
C650 N657 1.356 . S
C651 C650 1.363 . S
C651 C654 1.363 . S
N652 C654 1.356 . S
N652 H664 0.984 . S
N652 H665 0.985 . S
N653 C655 1.356 . S
N653 H658 0.984 . S
N653 H659 0.985 . S
C654 C648 1.379 . S
C654 C651 1.363 . S
C654 N652 1.356 . S
C655 C649 1.363 . S
C655 C650 1.379 . S
C655 N653 1.356 . S
N656 C648 1.356 . S
N656 H662 0.984 . S
N656 H663 0.984 . S
N657 C650 1.356 . S
N657 H660 0.984 . S
N657 H661 0.985 . S
H658 N653 0.984 . S
H659 N653 0.985 . S
H660 N657 0.984 . S
H661 N657 0.985 . S
H662 N656 0.984 . S
H663 N656 0.984 . S
H664 N652 0.984 . S
H665 N652 0.985 . S
C666 C667 1.363 . S
C666 C672 1.379 . S
C666 N674 1.356 . S
C667 C666 1.363 . S
C667 C673 1.363 . S
C668 C669 1.363 . S
C668 C673 1.379 . S
C668 N675 1.356 . S
C669 C668 1.363 . S
C669 C672 1.363 . S
N670 C672 1.356 . S
N670 H682 0.984 . S
N670 H683 0.985 . S
N671 C673 1.356 . S
N671 H676 0.984 . S
N671 H677 0.985 . S
C672 C666 1.379 . S
C672 C669 1.363 . S
C672 N670 1.356 . S
C673 C667 1.363 . S
C673 C668 1.379 . S
C673 N671 1.356 . S
N674 C666 1.356 . S
N674 H680 0.984 . S
N674 H681 0.984 . S
N675 C668 1.356 . S
N675 H678 0.984 . S
N675 H679 0.985 . S
H676 N671 0.984 . S
H677 N671 0.985 . S
H678 N675 0.984 . S
H679 N675 0.985 . S
H680 N674 0.984 . S
H681 N674 0.984 . S
H682 N670 0.984 . S
H683 N670 0.985 . S
C684 C685 1.363 . S
C684 C690 1.379 . S
C684 N692 1.356 . S
C685 C684 1.363 . S
C685 C691 1.363 . S
C686 C687 1.363 . S
C686 C691 1.379 . S
C686 N693 1.356 . S
C687 C686 1.363 . S
C687 C690 1.363 . S
N688 C690 1.356 . S
N688 H700 0.984 . S
N688 H701 0.985 . S
N689 C691 1.356 . S
N689 H694 0.984 . S
N689 H695 0.985 . S
C690 C684 1.379 . S
C690 C687 1.363 . S
C690 N688 1.356 . S
C691 C685 1.363 . S
C691 C686 1.379 . S
C691 N689 1.356 . S
N692 C684 1.356 . S
N692 H698 0.984 . S
N692 H699 0.984 . S
N693 C686 1.356 . S
N693 H696 0.984 . S
N693 H697 0.985 . S
H694 N689 0.984 . S
H695 N689 0.985 . S
H696 N693 0.984 . S
H697 N693 0.985 . S
H698 N692 0.984 . S
H699 N692 0.984 . S
H700 N688 0.984 . S
H701 N688 0.985 . S
C702 C703 1.363 . S
C702 C708 1.379 . S
C702 N710 1.356 . S
C703 C702 1.363 . S
C703 C709 1.363 . S
C704 C705 1.363 . S
C704 C709 1.379 . S
C704 N711 1.356 1_565 S
C705 C704 1.363 . S
C705 C708 1.363 . S
N706 C708 1.356 1_545 S
N706 H718 0.984 . S
N706 H719 0.985 . S
N707 C709 1.356 . S
N707 H712 0.984 . S
N707 H713 0.985 . S
C708 C702 1.379 . S
C708 C705 1.363 . S
C708 N706 1.356 1_565 S
C709 C703 1.363 . S
C709 C704 1.379 . S
C709 N707 1.356 . S
N710 C702 1.356 . S
N710 H716 0.984 . S
N710 H717 0.984 . S
N711 C704 1.356 1_545 S
N711 H714 0.984 . S
N711 H715 0.985 1_545 S
H712 N707 0.984 . S
H713 N707 0.985 . S
H714 N711 0.984 . S
H715 N711 0.985 1_565 S
H716 N710 0.984 . S
H717 N710 0.984 . S
H718 N706 0.984 . S
H719 N706 0.985 . S
C720 C721 1.363 . S
C720 C726 1.379 . S
C720 N728 1.356 . S
C721 C720 1.363 . S
C721 C727 1.363 . S
C722 C723 1.363 . S
C722 C727 1.379 . S
C722 N729 1.356 . S
C723 C722 1.363 . S
C723 C726 1.363 . S
N724 C726 1.356 . S
N724 H736 0.984 . S
N724 H737 0.985 1_455 S
N725 C727 1.356 . S
N725 H730 0.984 . S
N725 H731 0.985 . S
C726 C720 1.379 . S
C726 C723 1.363 . S
C726 N724 1.356 . S
C727 C721 1.363 . S
C727 C722 1.379 . S
C727 N725 1.356 . S
N728 C720 1.356 . S
N728 H734 0.984 . S
N728 H735 0.984 . S
N729 C722 1.356 . S
N729 H732 0.984 1_455 S
N729 H733 0.985 . S
H730 N725 0.984 . S
H731 N725 0.985 . S
H732 N729 0.984 1_655 S
H733 N729 0.985 . S
H734 N728 0.984 . S
H735 N728 0.984 . S
H736 N724 0.984 . S
H737 N724 0.985 1_655 S
C738 C739 1.353 1_565 S
C738 C744 1.379 1_554 S
C738 N746 1.356 . S
C739 C738 1.353 1_545 S
C739 C745 1.375 . S
C740 C741 1.363 . S
C740 C745 1.379 1_556 S
C740 N747 1.356 . S
C741 C740 1.363 . S
C741 C744 1.363 1_545 S
N742 C744 1.356 . S
N742 H754 0.984 . S
N742 H755 0.985 . S
N743 C745 1.356 . S
N743 H748 0.984 . S
N743 H749 0.985 . S
C744 C738 1.379 1_556 S
C744 C741 1.363 1_565 S
C744 N742 1.356 . S
C745 C739 1.375 . S
C745 C740 1.379 1_554 S
C745 N743 1.356 . S
N746 C738 1.356 . S
N746 H752 0.984 . S
N746 H753 0.984 . S
N747 C740 1.356 . S
N747 H750 0.984 . S
N747 H751 0.985 . S
H748 N743 0.984 . S
H749 N743 0.985 . S
H750 N747 0.984 . S
H751 N747 0.985 . S
H752 N746 0.984 . S
H753 N746 0.984 . S
H754 N742 0.984 . S
H755 N742 0.985 . S
C756 C757 1.359 1_655 S
C756 C762 1.379 1_556 S
C756 N764 1.356 . S
C757 C756 1.359 1_455 S
C757 C763 1.369 . S
C758 C759 1.363 . S
C758 C763 1.379 1_554 S
C758 N765 1.356 . S
C759 C758 1.363 . S
C759 C762 1.363 1_455 S
N760 C762 1.356 . S
N760 H772 0.984 . S
N760 H773 0.985 . S
N761 C763 1.356 . S
N761 H766 0.984 . S
N761 H767 0.985 . S
C762 C756 1.379 1_554 S
C762 C759 1.363 1_655 S
C762 N760 1.356 . S
C763 C757 1.369 . S
C763 C758 1.379 1_556 S
C763 N761 1.356 . S
N764 C756 1.356 . S
N764 H770 0.984 . S
N764 H771 0.984 . S
N765 C758 1.356 . S
N765 H768 0.984 . S
N765 H769 0.985 . S
H766 N761 0.984 . S
H767 N761 0.985 . S
H768 N765 0.984 . S
H769 N765 0.985 . S
H770 N764 0.984 . S
H771 N764 0.984 . S
H772 N760 0.984 . S
H773 N760 0.985 . S
C774 C775 1.363 . S
C774 C780 1.379 1_556 S
C774 N782 1.356 . S
C775 C774 1.363 . S
C775 C781 1.363 . S
C776 C777 1.363 . S
C776 C781 1.379 1_554 S
C776 N783 1.356 . S
C777 C776 1.363 . S
C777 C780 1.363 . S
N778 C780 1.356 . S
N778 H790 0.984 . S
N778 H791 0.985 . S
N779 C781 1.356 . S
N779 H784 0.984 . S
N779 H785 0.985 . S
C780 C774 1.379 1_554 S
C780 C777 1.363 . S
C780 N778 1.356 . S
C781 C775 1.363 . S
C781 C776 1.379 1_556 S
C781 N779 1.356 . S
N782 C774 1.356 . S
N782 H788 0.984 . S
N782 H789 0.984 . S
N783 C776 1.356 . S
N783 H786 0.984 . S
N783 H787 0.985 . S
H784 N779 0.984 . S
H785 N779 0.985 . S
H786 N783 0.984 . S
H787 N783 0.985 . S
H788 N782 0.984 . S
H789 N782 0.984 . S
H790 N778 0.984 . S
H791 N778 0.985 . S
C792 C793 1.363 . S
C792 C798 1.379 . S
C792 N800 1.356 . S
C793 C792 1.363 . S
C793 C799 1.363 . S
C794 C795 1.363 . S
C794 C799 1.379 . S
C794 N801 1.356 . S
C795 C794 1.363 . S
C795 C798 1.363 . S
N796 C798 1.356 . S
N796 H808 0.984 . S
N796 H809 0.985 . S
N797 C799 1.356 . S
N797 H802 0.984 . S
N797 H803 0.985 . S
C798 C792 1.379 . S
C798 C795 1.363 . S
C798 N796 1.356 . S
C799 C793 1.363 . S
C799 C794 1.379 . S
C799 N797 1.356 . S
N800 C792 1.356 . S
N800 H806 0.984 . S
N800 H807 0.984 . S
N801 C794 1.356 . S
N801 H804 0.984 . S
N801 H805 0.985 . S
H802 N797 0.984 . S
H803 N797 0.985 . S
H804 N801 0.984 . S
H805 N801 0.985 . S
H806 N800 0.984 . S
H807 N800 0.984 . S
H808 N796 0.984 . S
H809 N796 0.985 . S
C810 C811 1.363 . S
C810 C816 1.379 . S
C810 N818 1.356 . S
C811 C810 1.363 . S
C811 C817 1.363 . S
C812 C813 1.363 . S
C812 C817 1.379 . S
C812 N819 1.356 . S
C813 C812 1.363 . S
C813 C816 1.363 . S
N814 C816 1.356 . S
N814 H826 0.984 . S
N814 H827 0.985 . S
N815 C817 1.356 . S
N815 H820 0.984 . S
N815 H821 0.985 . S
C816 C810 1.379 . S
C816 C813 1.363 . S
C816 N814 1.356 . S
C817 C811 1.363 . S
C817 C812 1.379 . S
C817 N815 1.356 . S
N818 C810 1.356 . S
N818 H824 0.984 . S
N818 H825 0.984 . S
N819 C812 1.356 . S
N819 H822 0.984 . S
N819 H823 0.985 . S
H820 N815 0.984 . S
H821 N815 0.985 . S
H822 N819 0.984 . S
H823 N819 0.985 . S
H824 N818 0.984 . S
H825 N818 0.984 . S
H826 N814 0.984 . S
H827 N814 0.985 . S
C828 C829 1.363 . S
C828 C834 1.379 . S
C828 N836 1.356 . S
C829 C828 1.363 . S
C829 C835 1.363 . S
C830 C831 1.363 . S
C830 C835 1.379 . S
C830 N837 1.356 . S
C831 C830 1.363 . S
C831 C834 1.363 . S
N832 C834 1.356 . S
N832 H844 0.984 . S
N832 H845 0.985 . S
N833 C835 1.356 . S
N833 H838 0.984 . S
N833 H839 0.985 1_565 S
C834 C828 1.379 . S
C834 C831 1.363 . S
C834 N832 1.356 . S
C835 C829 1.363 . S
C835 C830 1.379 . S
C835 N833 1.356 . S
N836 C828 1.356 . S
N836 H842 0.984 . S
N836 H843 0.984 . S
N837 C830 1.356 . S
N837 H840 0.984 . S
N837 H841 0.985 1_565 S
H838 N833 0.984 . S
H839 N833 0.985 1_545 S
H840 N837 0.984 . S
H841 N837 0.985 1_545 S
H842 N836 0.984 . S
H843 N836 0.984 . S
H844 N832 0.984 . S
H845 N832 0.985 . S
C846 C847 1.363 . S
C846 C852 1.379 . S
C846 N854 1.356 . S
C847 C846 1.363 . S
C847 C853 1.363 . S
C848 C849 1.363 . S
C848 C853 1.379 . S
C848 N855 1.356 . S
C849 C848 1.363 . S
C849 C852 1.363 . S
N850 C852 1.356 . S
N850 H862 0.984 . S
N850 H863 0.985 . S
N851 C853 1.356 . S
N851 H856 0.984 . S
N851 H857 0.985 . S
C852 C846 1.379 . S
C852 C849 1.363 . S
C852 N850 1.356 . S
C853 C847 1.363 . S
C853 C848 1.379 . S
C853 N851 1.356 . S
N854 C846 1.356 . S
N854 H860 0.984 . S
N854 H861 0.984 . S
N855 C848 1.356 . S
N855 H858 0.984 . S
N855 H859 0.985 . S
H856 N851 0.984 . S
H857 N851 0.985 . S
H858 N855 0.984 . S
H859 N855 0.985 . S
H860 N854 0.984 . S
H861 N854 0.984 . S
H862 N850 0.984 . S
H863 N850 0.985 . S
C864 C865 1.363 . S
C864 C870 1.379 . S
C864 N872 1.356 . S
C865 C864 1.363 . S
C865 C871 1.363 . S
C866 C867 1.363 . S
C866 C871 1.379 . S
C866 N873 1.356 . S
C867 C866 1.363 . S
C867 C870 1.363 . S
N868 C870 1.356 . S
N868 H880 0.984 . S
N868 H881 0.985 . S
N869 C871 1.356 . S
N869 H874 0.984 . S
N869 H875 0.985 1_545 S
C870 C864 1.379 . S
C870 C867 1.363 . S
C870 N868 1.356 . S
C871 C865 1.363 . S
C871 C866 1.379 . S
C871 N869 1.356 . S
N872 C864 1.356 . S
N872 H878 0.984 . S
N872 H879 0.984 . S
N873 C866 1.356 . S
N873 H876 0.984 . S
N873 H877 0.985 . S
H874 N869 0.984 . S
H875 N869 0.985 1_565 S
H876 N873 0.984 . S
H877 N873 0.985 . S
H878 N872 0.984 . S
H879 N872 0.984 . S
H880 N868 0.984 . S
H881 N868 0.985 . S
C882 C883 1.363 . S
C882 C888 1.379 . S
C882 N890 1.356 . S
C883 C882 1.363 . S
C883 C889 1.363 . S
C884 C885 1.363 . S
C884 C889 1.379 . S
C884 N891 1.356 . S
C885 C884 1.363 . S
C885 C888 1.363 . S
N886 C888 1.356 . S
N886 H898 0.984 . S
N886 H899 0.985 . S
N887 C889 1.356 1_455 S
N887 H892 0.984 1_455 S
N887 H893 0.985 . S
C888 C882 1.379 . S
C888 C885 1.363 . S
C888 N886 1.356 . S
C889 C883 1.363 . S
C889 C884 1.379 . S
C889 N887 1.356 1_655 S
N890 C882 1.356 . S
N890 H896 0.984 . S
N890 H897 0.984 . S
N891 C884 1.356 . S
N891 H894 0.984 . S
N891 H895 0.985 1_655 S
H892 N887 0.984 1_655 S
H893 N887 0.985 . S
H894 N891 0.984 . S
H895 N891 0.985 1_455 S
H896 N890 0.984 . S
H897 N890 0.984 . S
H898 N886 0.984 . S
H899 N886 0.985 . S
C900 C901 1.363 . S
C900 C906 1.379 1_565 S
C900 N908 1.356 1_565 S
C901 C900 1.363 . S
C901 C907 1.363 . S
C902 C903 1.363 . S
C902 C907 1.379 . S
C902 N909 1.356 . S
C903 C902 1.363 . S
C903 C906 1.363 1_565 S
N904 C906 1.356 . S
N904 H916 0.984 . S
N904 H917 0.985 . S
N905 C907 1.356 . S
N905 H910 0.984 . S
N905 H911 0.985 . S
C906 C900 1.379 1_545 S
C906 C903 1.363 1_545 S
C906 N904 1.356 . S
C907 C901 1.363 . S
C907 C902 1.379 . S
C907 N905 1.356 . S
N908 C900 1.356 1_545 S
N908 H914 0.984 . S
N908 H915 0.984 1_545 S
N909 C902 1.356 . S
N909 H912 0.984 . S
N909 H913 0.985 . S
H910 N905 0.984 . S
H911 N905 0.985 . S
H912 N909 0.984 . S
H913 N909 0.985 . S
H914 N908 0.984 . S
H915 N908 0.984 1_565 S
H916 N904 0.984 . S
H917 N904 0.985 . S
C918 C919 1.363 . S
C918 C924 1.379 . S
C918 N926 1.356 . S
C919 C918 1.363 . S
C919 C925 1.363 . S
C920 C921 1.363 . S
C920 C925 1.379 . S
C920 N927 1.356 . S
C921 C920 1.363 . S
C921 C924 1.363 . S
N922 C924 1.356 . S
N922 H934 0.984 . S
N922 H935 0.985 . S
N923 C925 1.356 1_655 S
N923 H928 0.984 . S
N923 H929 0.985 . S
C924 C918 1.379 . S
C924 C921 1.363 . S
C924 N922 1.356 . S
C925 C919 1.363 . S
C925 C920 1.379 . S
C925 N923 1.356 1_455 S
N926 C918 1.356 . S
N926 H932 0.984 . S
N926 H933 0.984 . S
N927 C920 1.356 . S
N927 H930 0.984 . S
N927 H931 0.985 . S
H928 N923 0.984 . S
H929 N923 0.985 . S
H930 N927 0.984 . S
H931 N927 0.985 . S
H932 N926 0.984 . S
H933 N926 0.984 . S
H934 N922 0.984 . S
H935 N922 0.985 . S
C936 C937 1.363 . S
C936 C942 1.379 . S
C936 N944 1.356 . S
C937 C936 1.363 . S
C937 C943 1.363 . S
C938 C939 1.363 . S
C938 C943 1.379 . S
C938 N945 1.356 . S
C939 C938 1.363 . S
C939 C942 1.363 . S
N940 C942 1.356 . S
N940 H952 0.984 . S
N940 H953 0.985 . S
N941 C943 1.356 . S
N941 H946 0.984 . S
N941 H947 0.985 . S
C942 C936 1.379 . S
C942 C939 1.363 . S
C942 N940 1.356 . S
C943 C937 1.363 . S
C943 C938 1.379 . S
C943 N941 1.356 . S
N944 C936 1.356 . S
N944 H950 0.984 . S
N944 H951 0.984 . S
N945 C938 1.356 . S
N945 H948 0.984 . S
N945 H949 0.985 . S
H946 N941 0.984 . S
H947 N941 0.985 . S
H948 N945 0.984 . S
H949 N945 0.985 . S
H950 N944 0.984 . S
H951 N944 0.984 . S
H952 N940 0.984 . S
H953 N940 0.985 . S
C954 C955 1.363 . S
C954 C960 1.379 . S
C954 N962 1.356 . S
C955 C954 1.363 . S
C955 C961 1.363 . S
C956 C957 1.363 . S
C956 C961 1.379 . S
C956 N963 1.356 . S
C957 C956 1.363 . S
C957 C960 1.363 . S
N958 C960 1.356 . S
N958 H970 0.984 . S
N958 H971 0.985 . S
N959 C961 1.356 . S
N959 H964 0.984 . S
N959 H965 0.985 . S
C960 C954 1.379 . S
C960 C957 1.363 . S
C960 N958 1.356 . S
C961 C955 1.363 . S
C961 C956 1.379 . S
C961 N959 1.356 . S
N962 C954 1.356 . S
N962 H968 0.984 . S
N962 H969 0.984 . S
N963 C956 1.356 . S
N963 H966 0.984 . S
N963 H967 0.985 . S
H964 N959 0.984 . S
H965 N959 0.985 . S
H966 N963 0.984 . S
H967 N963 0.985 . S
H968 N962 0.984 . S
H969 N962 0.984 . S
H970 N958 0.984 . S
H971 N958 0.985 . S
C972 C973 1.363 . S
C972 C978 1.379 . S
C972 N980 1.356 . S
C973 C972 1.363 . S
C973 C979 1.363 . S
C974 C975 1.363 . S
C974 C979 1.379 . S
C974 N981 1.356 . S
C975 C974 1.363 . S
C975 C978 1.363 . S
N976 C978 1.356 . S
N976 H988 0.984 . S
N976 H989 0.985 . S
N977 C979 1.356 . S
N977 H982 0.984 . S
N977 H983 0.985 . S
C978 C972 1.379 . S
C978 C975 1.363 . S
C978 N976 1.356 . S
C979 C973 1.363 . S
C979 C974 1.379 . S
C979 N977 1.356 . S
N980 C972 1.356 . S
N980 H986 0.984 . S
N980 H987 0.984 . S
N981 C974 1.356 . S
N981 H984 0.984 . S
N981 H985 0.985 . S
H982 N977 0.984 . S
H983 N977 0.985 . S
H984 N981 0.984 . S
H985 N981 0.985 . S
H986 N980 0.984 . S
H987 N980 0.984 . S
H988 N976 0.984 . S
H989 N976 0.985 . S
C990 C991 1.363 . S
C990 C996 1.379 . S
C990 N998 1.356 . S
C991 C990 1.363 . S
C991 C997 1.363 . S
C992 C993 1.363 . S
C992 C997 1.379 . S
C992 N999 1.356 1_545 S
C993 C992 1.363 . S
C993 C996 1.363 . S
N994 C996 1.356 . S
N994 H1006 0.984 . S
N994 H1007 0.985 . S
N995 C997 1.356 . S
N995 H1000 0.984 . S
N995 H1001 0.985 1_545 S
C996 C990 1.379 . S
C996 C993 1.363 . S
C996 N994 1.356 . S
C997 C991 1.363 . S
C997 C992 1.379 . S
C997 N995 1.356 . S
N998 C990 1.356 . S
N998 H1004 0.984 . S
N998 H1005 0.984 . S
N999 C992 1.356 1_565 S
N999 H1002 0.984 . S
N999 H1003 0.985 . S
H1000 N995 0.984 . S
H1001 N995 0.985 1_565 S
H1002 N999 0.984 . S
H1003 N999 0.985 . S
H1004 N998 0.984 . S
H1005 N998 0.984 . S
H1006 N994 0.984 . S
H1007 N994 0.985 . S
C1008 C1009 1.363 . S
C1008 C1014 1.379 1_655 S
C1008 N1016 1.356 . S
C1009 C1008 1.363 . S
C1009 C1015 1.363 . S
C1010 C1011 1.363 . S
C1010 C1015 1.379 1_455 S
C1010 N1017 1.356 . S
C1011 C1010 1.363 . S
C1011 C1014 1.363 . S
N1012 C1014 1.356 . S
N1012 H1024 0.984 . S
N1012 H1025 0.985 . S
N1013 C1015 1.356 . S
N1013 H1018 0.984 . S
N1013 H1019 0.985 . S
C1014 C1008 1.379 1_455 S
C1014 C1011 1.363 . S
C1014 N1012 1.356 . S
C1015 C1009 1.363 . S
C1015 C1010 1.379 1_655 S
C1015 N1013 1.356 . S
N1016 C1008 1.356 . S
N1016 H1022 0.984 . S
N1016 H1023 0.984 . S
N1017 C1010 1.356 . S
N1017 H1020 0.984 . S
N1017 H1021 0.985 . S
H1018 N1013 0.984 . S
H1019 N1013 0.985 . S
H1020 N1017 0.984 . S
H1021 N1017 0.985 . S
H1022 N1016 0.984 . S
H1023 N1016 0.984 . S
H1024 N1012 0.984 . S
H1025 N1012 0.985 . S
C1026 C1027 1.363 . S
C1026 C1032 1.379 . S
C1026 N1034 1.356 . S
C1027 C1026 1.363 . S
C1027 C1033 1.363 . S
C1028 C1029 1.363 . S
C1028 C1033 1.379 . S
C1028 N1035 1.356 . S
C1029 C1028 1.363 . S
C1029 C1032 1.363 . S
N1030 C1032 1.356 . S
N1030 H1042 0.984 . S
N1030 H1043 0.985 . S
N1031 C1033 1.356 . S
N1031 H1036 0.984 . S
N1031 H1037 0.985 . S
C1032 C1026 1.379 . S
C1032 C1029 1.363 . S
C1032 N1030 1.356 . S
C1033 C1027 1.363 . S
C1033 C1028 1.379 . S
C1033 N1031 1.356 . S
N1034 C1026 1.356 . S
N1034 H1040 0.984 . S
N1034 H1041 0.984 . S
N1035 C1028 1.356 . S
N1035 H1038 0.984 . S
N1035 H1039 0.985 . S
H1036 N1031 0.984 . S
H1037 N1031 0.985 . S
H1038 N1035 0.984 . S
H1039 N1035 0.985 . S
H1040 N1034 0.984 . S
H1041 N1034 0.984 . S
H1042 N1030 0.984 . S
H1043 N1030 0.985 . S
C1044 C1045 1.363 1_545 S
C1044 C1050 1.379 . S
C1044 N1052 1.356 . S
C1045 C1044 1.363 1_565 S
C1045 C1051 1.363 . S
C1046 C1047 1.363 1_565 S
C1046 C1051 1.379 . S
C1046 N1053 1.356 . S
C1047 C1046 1.363 1_545 S
C1047 C1050 1.363 . S
N1048 C1050 1.356 . S
N1048 H1060 0.984 . S
N1048 H1061 0.985 . S
N1049 C1051 1.356 . S
N1049 H1054 0.984 . S
N1049 H1055 0.985 . S
C1050 C1044 1.379 . S
C1050 C1047 1.363 . S
C1050 N1048 1.356 . S
C1051 C1045 1.363 . S
C1051 C1046 1.379 . S
C1051 N1049 1.356 . S
N1052 C1044 1.356 . S
N1052 H1058 0.984 . S
N1052 H1059 0.984 . S
N1053 C1046 1.356 . S
N1053 H1056 0.984 1_565 S
N1053 H1057 0.985 . S
H1054 N1049 0.984 . S
H1055 N1049 0.985 . S
H1056 N1053 0.984 1_545 S
H1057 N1053 0.985 . S
H1058 N1052 0.984 . S
H1059 N1052 0.984 . S
H1060 N1048 0.984 . S
H1061 N1048 0.985 . S
C1062 C1063 1.363 . S
C1062 C1068 1.379 . S
C1062 N1070 1.356 . S
C1063 C1062 1.363 . S
C1063 C1069 1.363 . S
C1064 C1065 1.363 . S
C1064 C1069 1.379 . S
C1064 N1071 1.356 . S
C1065 C1064 1.363 . S
C1065 C1068 1.363 . S
N1066 C1068 1.356 . S
N1066 H1078 0.984 . S
N1066 H1079 0.985 . S
N1067 C1069 1.356 . S
N1067 H1072 0.984 . S
N1067 H1073 0.985 . S
C1068 C1062 1.379 . S
C1068 C1065 1.363 . S
C1068 N1066 1.356 . S
C1069 C1063 1.363 . S
C1069 C1064 1.379 . S
C1069 N1067 1.356 . S
N1070 C1062 1.356 . S
N1070 H1076 0.984 . S
N1070 H1077 0.984 . S
N1071 C1064 1.356 . S
N1071 H1074 0.984 . S
N1071 H1075 0.985 . S
H1072 N1067 0.984 . S
H1073 N1067 0.985 . S
H1074 N1071 0.984 . S
H1075 N1071 0.985 . S
H1076 N1070 0.984 . S
H1077 N1070 0.984 . S
H1078 N1066 0.984 . S
H1079 N1066 0.985 . S
C1080 C1081 1.363 . S
C1080 C1086 1.379 . S
C1080 N1088 1.356 . S
C1081 C1080 1.363 . S
C1081 C1087 1.363 . S
C1082 C1083 1.363 . S
C1082 C1087 1.379 . S
C1082 N1089 1.356 . S
C1083 C1082 1.363 . S
C1083 C1086 1.363 . S
N1084 C1086 1.356 . S
N1084 H1096 0.984 . S
N1084 H1097 0.985 . S
N1085 C1087 1.356 . S
N1085 H1090 0.984 . S
N1085 H1091 0.985 . S
C1086 C1080 1.379 . S
C1086 C1083 1.363 . S
C1086 N1084 1.356 . S
C1087 C1081 1.363 . S
C1087 C1082 1.379 . S
C1087 N1085 1.356 . S
N1088 C1080 1.356 . S
N1088 H1094 0.984 . S
N1088 H1095 0.984 . S
N1089 C1082 1.356 . S
N1089 H1092 0.984 . S
N1089 H1093 0.985 . S
H1090 N1085 0.984 . S
H1091 N1085 0.985 . S
H1092 N1089 0.984 . S
H1093 N1089 0.985 . S
H1094 N1088 0.984 . S
H1095 N1088 0.984 . S
H1096 N1084 0.984 . S
H1097 N1084 0.985 . S
C1098 C1099 1.363 . S
C1098 C1104 1.379 . S
C1098 N1106 1.356 . S
C1099 C1098 1.363 . S
C1099 C1105 1.363 . S
C1100 C1101 1.363 . S
C1100 C1105 1.379 . S
C1100 N1107 1.356 . S
C1101 C1100 1.363 . S
C1101 C1104 1.363 . S
N1102 C1104 1.356 . S
N1102 H1114 0.984 . S
N1102 H1115 0.985 . S
N1103 C1105 1.356 . S
N1103 H1108 0.984 . S
N1103 H1109 0.985 . S
C1104 C1098 1.379 . S
C1104 C1101 1.363 . S
C1104 N1102 1.356 . S
C1105 C1099 1.363 . S
C1105 C1100 1.379 . S
C1105 N1103 1.356 . S
N1106 C1098 1.356 . S
N1106 H1112 0.984 . S
N1106 H1113 0.984 . S
N1107 C1100 1.356 . S
N1107 H1110 0.984 . S
N1107 H1111 0.985 . S
H1108 N1103 0.984 . S
H1109 N1103 0.985 . S
H1110 N1107 0.984 . S
H1111 N1107 0.985 . S
H1112 N1106 0.984 . S
H1113 N1106 0.984 . S
H1114 N1102 0.984 . S
H1115 N1102 0.985 . S
C1116 C1117 1.363 . S
C1116 C1122 1.379 . S
C1116 N1124 1.356 . S
C1117 C1116 1.363 . S
C1117 C1123 1.363 . S
C1118 C1119 1.363 . S
C1118 C1123 1.379 . S
C1118 N1125 1.356 . S
C1119 C1118 1.363 . S
C1119 C1122 1.363 . S
N1120 C1122 1.356 . S
N1120 H1132 0.984 . S
N1120 H1133 0.985 . S
N1121 C1123 1.356 . S
N1121 H1126 0.984 . S
N1121 H1127 0.985 . S
C1122 C1116 1.379 . S
C1122 C1119 1.363 . S
C1122 N1120 1.356 . S
C1123 C1117 1.363 . S
C1123 C1118 1.379 . S
C1123 N1121 1.356 . S
N1124 C1116 1.356 . S
N1124 H1130 0.984 . S
N1124 H1131 0.984 . S
N1125 C1118 1.356 . S
N1125 H1128 0.984 . S
N1125 H1129 0.985 . S
H1126 N1121 0.984 . S
H1127 N1121 0.985 . S
H1128 N1125 0.984 . S
H1129 N1125 0.985 . S
H1130 N1124 0.984 . S
H1131 N1124 0.984 . S
H1132 N1120 0.984 . S
H1133 N1120 0.985 . S
C1134 C1135 1.363 . S
C1134 C1140 1.379 . S
C1134 N1142 1.356 . S
C1135 C1134 1.363 . S
C1135 C1141 1.363 . S
C1136 C1137 1.363 . S
C1136 C1141 1.379 . S
C1136 N1143 1.356 . S
C1137 C1136 1.363 . S
C1137 C1140 1.363 . S
N1138 C1140 1.356 . S
N1138 H1150 0.984 . S
N1138 H1151 0.985 . S
N1139 C1141 1.356 . S
N1139 H1144 0.984 . S
N1139 H1145 0.985 . S
C1140 C1134 1.379 . S
C1140 C1137 1.363 . S
C1140 N1138 1.356 . S
C1141 C1135 1.363 . S
C1141 C1136 1.379 . S
C1141 N1139 1.356 . S
N1142 C1134 1.356 . S
N1142 H1148 0.984 . S
N1142 H1149 0.984 . S
N1143 C1136 1.356 . S
N1143 H1146 0.984 . S
N1143 H1147 0.985 . S
H1144 N1139 0.984 . S
H1145 N1139 0.985 . S
H1146 N1143 0.984 . S
H1147 N1143 0.985 . S
H1148 N1142 0.984 . S
H1149 N1142 0.984 . S
H1150 N1138 0.984 . S
H1151 N1138 0.985 . S
C1152 C1153 1.363 . S
C1152 C1158 1.379 . S
C1152 N1160 1.356 . S
C1153 C1152 1.363 . S
C1153 C1159 1.363 . S
C1154 C1155 1.363 . S
C1154 C1159 1.379 . S
C1154 N1161 1.356 . S
C1155 C1154 1.363 . S
C1155 C1158 1.363 . S
N1156 C1158 1.356 . S
N1156 H1168 0.984 . S
N1156 H1169 0.985 . S
N1157 C1159 1.356 . S
N1157 H1162 0.984 . S
N1157 H1163 0.985 . S
C1158 C1152 1.379 . S
C1158 C1155 1.363 . S
C1158 N1156 1.356 . S
C1159 C1153 1.363 . S
C1159 C1154 1.379 . S
C1159 N1157 1.356 . S
N1160 C1152 1.356 . S
N1160 H1166 0.984 . S
N1160 H1167 0.984 . S
N1161 C1154 1.356 . S
N1161 H1164 0.984 . S
N1161 H1165 0.985 . S
H1162 N1157 0.984 . S
H1163 N1157 0.985 . S
H1164 N1161 0.984 . S
H1165 N1161 0.985 . S
H1166 N1160 0.984 . S
H1167 N1160 0.984 . S
H1168 N1156 0.984 . S
H1169 N1156 0.985 . S
C1170 C1171 1.363 . S
C1170 C1176 1.379 . S
C1170 N1178 1.356 . S
C1171 C1170 1.363 . S
C1171 C1177 1.363 . S
C1172 C1173 1.363 . S
C1172 C1177 1.379 . S
C1172 N1179 1.356 . S
C1173 C1172 1.363 . S
C1173 C1176 1.363 . S
N1174 C1176 1.356 . S
N1174 H1186 0.984 . S
N1174 H1187 0.985 . S
N1175 C1177 1.356 . S
N1175 H1180 0.984 . S
N1175 H1181 0.985 . S
C1176 C1170 1.379 . S
C1176 C1173 1.363 . S
C1176 N1174 1.356 . S
C1177 C1171 1.363 . S
C1177 C1172 1.379 . S
C1177 N1175 1.356 . S
N1178 C1170 1.356 . S
N1178 H1184 0.984 . S
N1178 H1185 0.984 . S
N1179 C1172 1.356 . S
N1179 H1182 0.984 . S
N1179 H1183 0.985 . S
H1180 N1175 0.984 . S
H1181 N1175 0.985 . S
H1182 N1179 0.984 . S
H1183 N1179 0.985 . S
H1184 N1178 0.984 . S
H1185 N1178 0.984 . S
H1186 N1174 0.984 . S
H1187 N1174 0.985 . S
C1188 C1189 1.363 . S
C1188 C1194 1.379 . S
C1188 N1196 1.356 . S
C1189 C1188 1.363 . S
C1189 C1195 1.363 . S
C1190 C1191 1.363 . S
C1190 C1195 1.379 . S
C1190 N1197 1.356 . S
C1191 C1190 1.363 . S
C1191 C1194 1.363 . S
N1192 C1194 1.356 . S
N1192 H1204 0.984 . S
N1192 H1205 0.985 . S
N1193 C1195 1.356 . S
N1193 H1198 0.984 . S
N1193 H1199 0.985 . S
C1194 C1188 1.379 . S
C1194 C1191 1.363 . S
C1194 N1192 1.356 . S
C1195 C1189 1.363 . S
C1195 C1190 1.379 . S
C1195 N1193 1.356 . S
N1196 C1188 1.356 . S
N1196 H1202 0.984 . S
N1196 H1203 0.984 . S
N1197 C1190 1.356 . S
N1197 H1200 0.984 . S
N1197 H1201 0.985 . S
H1198 N1193 0.984 . S
H1199 N1193 0.985 . S
H1200 N1197 0.984 . S
H1201 N1197 0.985 . S
H1202 N1196 0.984 . S
H1203 N1196 0.984 . S
H1204 N1192 0.984 . S
H1205 N1192 0.985 . S
C1206 C1207 1.363 . S
C1206 C1212 1.379 . S
C1206 N1214 1.356 . S
C1207 C1206 1.363 . S
C1207 C1213 1.363 . S
C1208 C1209 1.363 . S
C1208 C1213 1.379 . S
C1208 N1215 1.356 . S
C1209 C1208 1.363 . S
C1209 C1212 1.363 . S
N1210 C1212 1.356 1_545 S
N1210 H1222 0.984 . S
N1210 H1223 0.985 . S
N1211 C1213 1.356 . S
N1211 H1216 0.984 . S
N1211 H1217 0.985 . S
C1212 C1206 1.379 . S
C1212 C1209 1.363 . S
C1212 N1210 1.356 1_565 S
C1213 C1207 1.363 . S
C1213 C1208 1.379 . S
C1213 N1211 1.356 . S
N1214 C1206 1.356 . S
N1214 H1220 0.984 . S
N1214 H1221 0.984 . S
N1215 C1208 1.356 . S
N1215 H1218 0.984 . S
N1215 H1219 0.985 . S
H1216 N1211 0.984 . S
H1217 N1211 0.985 . S
H1218 N1215 0.984 . S
H1219 N1215 0.985 . S
H1220 N1214 0.984 . S
H1221 N1214 0.984 . S
H1222 N1210 0.984 . S
H1223 N1210 0.985 . S
C1224 C1225 1.363 . S
C1224 C1230 1.379 . S
C1224 N1232 1.356 . S
C1225 C1224 1.363 . S
C1225 C1231 1.363 . S
C1226 C1227 1.363 1_655 S
C1226 C1231 1.379 . S
C1226 N1233 1.342 1_655 S
C1227 C1226 1.363 1_455 S
C1227 C1230 1.363 1_455 S
N1228 C1230 1.356 1_455 S
N1228 H1240 0.984 . S
N1228 H1241 0.985 . S
N1229 C1231 1.356 . S
N1229 H1234 0.984 . S
N1229 H1235 0.985 . S
C1230 C1224 1.379 . S
C1230 C1227 1.363 1_655 S
C1230 N1228 1.356 1_655 S
C1231 C1225 1.363 . S
C1231 C1226 1.379 . S
C1231 N1229 1.356 . S
N1232 C1224 1.356 . S
N1232 H1238 0.984 . S
N1232 H1239 0.984 . S
N1233 C1226 1.342 1_455 S
N1233 H1236 1.000 . S
N1233 H1237 0.984 1_455 S
H1234 N1229 0.984 . S
H1235 N1229 0.985 . S
H1236 N1233 1.000 . S
H1237 N1233 0.984 1_655 S
H1238 N1232 0.984 . S
H1239 N1232 0.984 . S
H1240 N1228 0.984 . S
H1241 N1228 0.985 . S
C1242 C1243 1.363 . S
C1242 C1248 1.379 . S
C1242 N1250 1.356 . S
C1243 C1242 1.363 . S
C1243 C1249 1.363 . S
C1244 C1245 1.363 . S
C1244 C1249 1.379 . S
C1244 N1251 1.356 . S
C1245 C1244 1.363 . S
C1245 C1248 1.363 . S
N1246 C1248 1.356 . S
N1246 H1258 0.984 . S
N1246 H1259 0.985 . S
N1247 C1249 1.356 . S
N1247 H1252 0.984 . S
N1247 H1253 0.985 . S
C1248 C1242 1.379 . S
C1248 C1245 1.363 . S
C1248 N1246 1.356 . S
C1249 C1243 1.363 . S
C1249 C1244 1.379 . S
C1249 N1247 1.356 . S
N1250 C1242 1.356 . S
N1250 H1256 0.984 . S
N1250 H1257 0.984 . S
N1251 C1244 1.356 . S
N1251 H1254 0.984 . S
N1251 H1255 0.985 . S
H1252 N1247 0.984 . S
H1253 N1247 0.985 . S
H1254 N1251 0.984 . S
H1255 N1251 0.985 . S
H1256 N1250 0.984 . S
H1257 N1250 0.984 . S
H1258 N1246 0.984 . S
H1259 N1246 0.985 . S
C1260 C1261 1.363 . S
C1260 C1266 1.379 . S
C1260 N1268 1.356 . S
C1261 C1260 1.363 . S
C1261 C1267 1.363 . S
C1262 C1263 1.363 . S
C1262 C1267 1.379 . S
C1262 N1269 1.356 . S
C1263 C1262 1.363 . S
C1263 C1266 1.363 . S
N1264 C1266 1.356 . S
N1264 H1276 0.984 . S
N1264 H1277 0.985 . S
N1265 C1267 1.356 . S
N1265 H1270 0.984 1_545 S
N1265 H1271 0.985 . S
C1266 C1260 1.379 . S
C1266 C1263 1.363 . S
C1266 N1264 1.356 . S
C1267 C1261 1.363 . S
C1267 C1262 1.379 . S
C1267 N1265 1.356 . S
N1268 C1260 1.356 . S
N1268 H1274 0.984 . S
N1268 H1275 0.984 1_545 S
N1269 C1262 1.356 . S
N1269 H1272 0.984 1_655 S
N1269 H1273 0.985 1_655 S
H1270 N1265 0.984 1_565 S
H1271 N1265 0.985 . S
H1272 N1269 0.984 1_455 S
H1273 N1269 0.985 1_455 S
H1274 N1268 0.984 . S
H1275 N1268 0.984 1_565 S
H1276 N1264 0.984 . S
H1277 N1264 0.985 . S
C1278 C1279 1.363 . S
C1278 C1284 1.379 . S
C1278 N1286 1.356 . S
C1279 C1278 1.363 . S
C1279 C1285 1.363 . S
C1280 C1281 1.363 1_565 S
C1280 C1285 1.379 . S
C1280 N1287 1.356 1_565 S
C1281 C1280 1.363 1_545 S
C1281 C1284 1.363 1_545 S
N1282 C1284 1.356 1_545 S
N1282 H1294 0.984 . S
N1282 H1295 0.985 . S
N1283 C1285 1.356 . S
N1283 H1288 0.984 . S
N1283 H1289 0.985 . S
C1284 C1278 1.379 . S
C1284 C1281 1.363 1_565 S
C1284 N1282 1.356 1_565 S
C1285 C1279 1.363 . S
C1285 C1280 1.379 . S
C1285 N1283 1.356 . S
N1286 C1278 1.356 . S
N1286 H1292 0.984 . S
N1286 H1293 0.984 . S
N1287 C1280 1.356 1_545 S
N1287 H1290 0.984 . S
N1287 H1291 0.985 1_545 S
H1288 N1283 0.984 . S
H1289 N1283 0.985 . S
H1290 N1287 0.984 . S
H1291 N1287 0.985 1_565 S
H1292 N1286 0.984 . S
H1293 N1286 0.984 . S
H1294 N1282 0.984 . S
H1295 N1282 0.985 . S
C1296 C1297 1.363 . S
C1296 C1302 1.379 . S
C1296 N1304 1.356 . S
C1297 C1296 1.363 . S
C1297 C1303 1.363 . S
C1298 C1299 1.363 . S
C1298 C1303 1.379 . S
C1298 N1305 1.356 . S
C1299 C1298 1.363 . S
C1299 C1302 1.363 . S
N1300 C1302 1.356 1_655 S
N1300 H1312 0.984 . S
N1300 H1313 0.985 . S
N1301 C1303 1.356 . S
N1301 H1306 0.984 . S
N1301 H1307 0.985 . S
C1302 C1296 1.379 . S
C1302 C1299 1.363 . S
C1302 N1300 1.356 1_455 S
C1303 C1297 1.363 . S
C1303 C1298 1.379 . S
C1303 N1301 1.356 . S
N1304 C1296 1.356 . S
N1304 H1310 0.984 . S
N1304 H1311 0.984 . S
N1305 C1298 1.356 . S
N1305 H1308 0.984 1_455 S
N1305 H1309 0.985 . S
H1306 N1301 0.984 . S
H1307 N1301 0.985 . S
H1308 N1305 0.984 1_655 S
H1309 N1305 0.985 . S
H1310 N1304 0.984 . S
H1311 N1304 0.984 . S
H1312 N1300 0.984 . S
H1313 N1300 0.985 . S
C1314 C1315 1.363 . S
C1314 C1320 1.379 . S
C1314 N1322 1.356 . S
C1315 C1314 1.363 . S
C1315 C1321 1.363 . S
C1316 C1317 1.363 . S
C1316 C1321 1.379 . S
C1316 N1323 1.356 . S
C1317 C1316 1.363 . S
C1317 C1320 1.363 . S
N1318 C1320 1.356 . S
N1318 H1330 0.984 . S
N1318 H1331 0.985 . S
N1319 C1321 1.356 . S
N1319 H1324 0.984 . S
N1319 H1325 0.985 . S
C1320 C1314 1.379 . S
C1320 C1317 1.363 . S
C1320 N1318 1.356 . S
C1321 C1315 1.363 . S
C1321 C1316 1.379 . S
C1321 N1319 1.356 . S
N1322 C1314 1.356 . S
N1322 H1328 0.984 . S
N1322 H1329 0.984 . S
N1323 C1316 1.356 . S
N1323 H1326 0.984 . S
N1323 H1327 0.985 . S
H1324 N1319 0.984 . S
H1325 N1319 0.985 . S
H1326 N1323 0.984 . S
H1327 N1323 0.985 . S
H1328 N1322 0.984 . S
H1329 N1322 0.984 . S
H1330 N1318 0.984 . S
H1331 N1318 0.985 . S
C1332 C1333 1.363 . S
C1332 C1338 1.379 . S
C1332 N1340 1.356 . S
C1333 C1332 1.363 . S
C1333 C1339 1.363 . S
C1334 C1335 1.363 . S
C1334 C1339 1.379 . S
C1334 N1341 1.356 . S
C1335 C1334 1.363 . S
C1335 C1338 1.363 . S
N1336 C1338 1.356 . S
N1336 H1348 0.984 . S
N1336 H1349 0.985 . S
N1337 C1339 1.356 . S
N1337 H1342 0.984 . S
N1337 H1343 0.985 . S
C1338 C1332 1.379 . S
C1338 C1335 1.363 . S
C1338 N1336 1.356 . S
C1339 C1333 1.363 . S
C1339 C1334 1.379 . S
C1339 N1337 1.356 . S
N1340 C1332 1.356 . S
N1340 H1346 0.984 . S
N1340 H1347 0.984 . S
N1341 C1334 1.356 . S
N1341 H1344 0.984 . S
N1341 H1345 0.985 . S
H1342 N1337 0.984 . S
H1343 N1337 0.985 . S
H1344 N1341 0.984 . S
H1345 N1341 0.985 . S
H1346 N1340 0.984 . S
H1347 N1340 0.984 . S
H1348 N1336 0.984 . S
H1349 N1336 0.985 . S
C1350 C1351 1.363 . S
C1350 C1356 1.379 . S
C1350 N1358 1.356 . S
C1351 C1350 1.363 . S
C1351 C1357 1.363 . S
C1352 C1353 1.363 . S
C1352 C1357 1.379 . S
C1352 N1359 1.356 . S
C1353 C1352 1.363 . S
C1353 C1356 1.363 . S
N1354 C1356 1.356 . S
N1354 H1366 0.984 . S
N1354 H1367 0.985 . S
N1355 C1357 1.356 . S
N1355 H1360 0.984 . S
N1355 H1361 0.985 . S
C1356 C1350 1.379 . S
C1356 C1353 1.363 . S
C1356 N1354 1.356 . S
C1357 C1351 1.363 . S
C1357 C1352 1.379 . S
C1357 N1355 1.356 . S
N1358 C1350 1.356 . S
N1358 H1364 0.984 . S
N1358 H1365 0.984 . S
N1359 C1352 1.356 . S
N1359 H1362 0.984 . S
N1359 H1363 0.985 . S
H1360 N1355 0.984 . S
H1361 N1355 0.985 . S
H1362 N1359 0.984 . S
H1363 N1359 0.985 . S
H1364 N1358 0.984 . S
H1365 N1358 0.984 . S
H1366 N1354 0.984 . S
H1367 N1354 0.985 . S
C1368 C1369 1.363 . S
C1368 C1374 1.379 . S
C1368 N1376 1.356 . S
C1369 C1368 1.363 . S
C1369 C1375 1.363 . S
C1370 C1371 1.363 . S
C1370 C1375 1.379 . S
C1370 N1377 1.356 . S
C1371 C1370 1.363 . S
C1371 C1374 1.363 . S
N1372 C1374 1.356 . S
N1372 H1384 0.984 . S
N1372 H1385 0.985 . S
N1373 C1375 1.356 . S
N1373 H1378 0.984 . S
N1373 H1379 0.985 . S
C1374 C1368 1.379 . S
C1374 C1371 1.363 . S
C1374 N1372 1.356 . S
C1375 C1369 1.363 . S
C1375 C1370 1.379 . S
C1375 N1373 1.356 . S
N1376 C1368 1.356 . S
N1376 H1382 0.984 . S
N1376 H1383 0.984 . S
N1377 C1370 1.356 . S
N1377 H1380 0.984 . S
N1377 H1381 0.985 . S
H1378 N1373 0.984 . S
H1379 N1373 0.985 . S
H1380 N1377 0.984 . S
H1381 N1377 0.985 . S
H1382 N1376 0.984 . S
H1383 N1376 0.984 . S
H1384 N1372 0.984 . S
H1385 N1372 0.985 . S
C415 C21 1.291 . S
C417 C63 1.250 . S
C433 C17 1.250 . S
C435 C44 1.290 . S
C451 C40 1.250 . S
C453 C67 1.291 . S
C469 C90 1.291 . S
C471 C109 1.250 . S
C487 C132 1.250 . S
C489 C113 1.291 . S
C505 C136 1.290 . S
C507 C86 1.250 . S
C523 C201 1.250 . S
C525 C159 1.290 . S
C541 C155 1.250 . S
C543 C182 1.291 1_545 S
C559 C205 1.290 1_655 S
C561 C178 1.250 . S
C577 C247 1.250 . S
C579 C228 1.290 . S
C595 C251 1.290 . S
C597 C270 1.250 . S
C613 C224 1.250 . S
C615 C274 1.290 . S
C631 C297 1.290 . S
C633 C339 1.250 . S
C649 C293 1.250 . S
C651 C320 1.290 . S
C667 C316 1.250 . S
C669 C343 1.290 . S
C685 C385 1.250 . S
C687 C366 1.290 . S
C703 C408 1.250 . S
C705 C389 1.290 1_565 S
C721 C362 1.250 . S
C723 C412 1.291 1_455 S
C739 C20 1.522 1_545 S
C741 C135 1.524 . S
C757 C89 1.522 1_455 S
C759 C43 1.524 . S
C775 C112 1.524 . S
C777 C66 1.524 . S
C793 C158 1.524 . S
C795 C273 1.524 . S
C811 C181 1.524 . S
C813 C227 1.524 . S
C829 C250 1.524 . S
C831 C204 1.524 . S
C847 C296 1.524 . S
C849 C411 1.524 . S
C865 C365 1.524 . S
C867 C319 1.524 . S
C883 C388 1.524 . S
C885 C342 1.524 . S
C901 C249 1.562 . S
C903 C19 1.563 . S
C919 C42 1.562 . S
C921 C272 1.562 . S
C937 C226 1.563 . S
C939 C65 1.563 . S
C955 C88 1.563 . S
C957 C341 1.562 . S
C973 C111 1.563 . S
C975 C295 1.563 . S
C991 C318 1.562 . S
C993 C134 1.562 . S
C1009 C387 1.562 . S
C1011 C157 1.562 . S
C1027 C180 1.562 . S
C1029 C410 1.562 . S
C1045 C203 1.562 . S
C1047 C364 1.562 . S
C1063 C62 1.162 . S
C1065 C18 1.153 . S
C1081 C16 1.162 . S
C1083 C41 1.153 . S
C1099 C64 1.153 . S
C1101 C39 1.162 . S
C1117 C108 1.162 . S
C1119 C87 1.153 . S
C1135 C131 1.162 . S
C1137 C110 1.153 . S
C1153 C133 1.153 . S
C1155 C85 1.162 . S
C1171 C200 1.162 . S
C1173 C156 1.153 . S
C1189 C179 1.153 . S
C1191 C154 1.162 . S
C1207 C177 1.162 . S
C1209 C202 1.153 . S
C1225 C225 1.153 . S
C1227 C246 1.162 . S
C1243 C248 1.153 . S
C1245 C269 1.162 . S
C1261 C223 1.162 1_545 S
C1263 C271 1.153 . S
C1279 C294 1.153 . S
C1281 C338 1.162 . S
C1297 C317 1.153 . S
C1299 C292 1.162 1_455 S
C1315 C315 1.162 . S
C1317 C340 1.153 . S
C1333 C363 1.153 . S
C1335 C384 1.162 . S
C1351 C386 1.153 . S
C1353 C407 1.162 . S
C1369 C361 1.162 . S
C1371 C409 1.153 . S
