# Generated by pormake.
# Topology can, (4)-cn, num edge types: 1
# Building blocks:
#     Node 0, Type 0, BuildingBlock: GALJAG_clean_sbu_0, # of connection points: 4
#     Node 1, Type 0, BuildingBlock: GALJAG_clean_sbu_0, # of connection points: 4
#     Node 2, Type 0, BuildingBlock: GALJAG_clean_sbu_0, # of connection points: 4
#     Node 3, Type 0, BuildingBlock: GALJAG_clean_sbu_0, # of connection points: 4
#     Node 4, Type 0, BuildingBlock: GALJAG_clean_sbu_0, # of connection points: 4
#     Node 5, Type 0, BuildingBlock: GALJAG_clean_sbu_0, # of connection points: 4
#     Node 6, Type 0, BuildingBlock: GALJAG_clean_sbu_0, # of connection points: 4
#     Node 7, Type 0, BuildingBlock: GALJAG_clean_sbu_0, # of connection points: 4
#     Node 8, Type 0, BuildingBlock: GALJAG_clean_sbu_0, # of connection points: 4
#     Node 9, Type 0, BuildingBlock: GALJAG_clean_sbu_0, # of connection points: 4
#     Node 10, Type 0, BuildingBlock: GALJAG_clean_sbu_0, # of connection points: 4
#     Node 11, Type 0, BuildingBlock: GALJAG_clean_sbu_0, # of connection points: 4
#     Edge 12, Type (0, 0), BuildingBlock: EYOCIG_clean_linker_4, # of connection points: 2
#     Edge 13, Type (0, 0), BuildingBlock: EYOCIG_clean_linker_4, # of connection points: 2
#     Edge 14, Type (0, 0), BuildingBlock: EYOCIG_clean_linker_4, # of connection points: 2
#     Edge 15, Type (0, 0), BuildingBlock: EYOCIG_clean_linker_4, # of connection points: 2
#     Edge 16, Type (0, 0), BuildingBlock: EYOCIG_clean_linker_4, # of connection points: 2
#     Edge 17, Type (0, 0), BuildingBlock: EYOCIG_clean_linker_4, # of connection points: 2
#     Edge 18, Type (0, 0), BuildingBlock: EYOCIG_clean_linker_4, # of connection points: 2
#     Edge 19, Type (0, 0), BuildingBlock: EYOCIG_clean_linker_4, # of connection points: 2
#     Edge 20, Type (0, 0), BuildingBlock: EYOCIG_clean_linker_4, # of connection points: 2
#     Edge 21, Type (0, 0), BuildingBlock: EYOCIG_clean_linker_4, # of connection points: 2
#     Edge 22, Type (0, 0), BuildingBlock: EYOCIG_clean_linker_4, # of connection points: 2
#     Edge 23, Type (0, 0), BuildingBlock: EYOCIG_clean_linker_4, # of connection points: 2
#     Edge 24, Type (0, 0), BuildingBlock: EYOCIG_clean_linker_4, # of connection points: 2
#     Edge 25, Type (0, 0), BuildingBlock: EYOCIG_clean_linker_4, # of connection points: 2
#     Edge 26, Type (0, 0), BuildingBlock: EYOCIG_clean_linker_4, # of connection points: 2
#     Edge 27, Type (0, 0), BuildingBlock: EYOCIG_clean_linker_4, # of connection points: 2
#     Edge 28, Type (0, 0), BuildingBlock: EYOCIG_clean_linker_4, # of connection points: 2
#     Edge 29, Type (0, 0), BuildingBlock: EYOCIG_clean_linker_4, # of connection points: 2
#     Edge 30, Type (0, 0), BuildingBlock: EYOCIG_clean_linker_4, # of connection points: 2
#     Edge 31, Type (0, 0), BuildingBlock: EYOCIG_clean_linker_4, # of connection points: 2
#     Edge 32, Type (0, 0), BuildingBlock: EYOCIG_clean_linker_4, # of connection points: 2
#     Edge 33, Type (0, 0), BuildingBlock: EYOCIG_clean_linker_4, # of connection points: 2
#     Edge 34, Type (0, 0), BuildingBlock: EYOCIG_clean_linker_4, # of connection points: 2
#     Edge 35, Type (0, 0), BuildingBlock: EYOCIG_clean_linker_4, # of connection points: 2
# Relax obj value: 0.108
# Max RMSD: 0.101
# Mean RMSD: 0.101
data_MOF--net-can--node1-GALJAG_clean_sbu_0--edge1-EYOCIG_clean_linker_4
_symmetry_space_group_name_H-M    P1
_symmetry_Int_Tables_number       1
_symmetry_cell_setting            triclinic
loop_
_symmetry_equiv_pos_as_xyz
'x, y, z'
_cell_length_a     41.07121
_cell_length_b     41.112932
_cell_length_c     22.972037
_cell_angle_alpha  89.917244
_cell_angle_beta   90.082336
_cell_angle_gamma 120.01624
loop_
_atom_site_label
_atom_site_type_symbol
_atom_site_fract_x
_atom_site_fract_y
_atom_site_fract_z
_atom_type_partial_charge
In0 In 0.05226 0.38164 0.24313 0.0
O1 O 0.11532 0.40569 0.24247 0.0
O2 O 0.08007 0.34589 0.24502 0.0
C3 C 0.04716 0.44404 0.24282 0.0
C4 C 0.02879 0.35629 0.13459 0.0
C5 C 0.02834 0.35789 0.35206 0.0
O6 O 0.07837 0.44508 0.24321 0.0
O7 O 0.0184 0.41171 0.24227 0.0
O8 O 1.00871 0.34017 0.30833 0.0
O9 O 0.05916 0.38693 0.34082 0.0
C10 C 0.11289 0.37387 0.24393 0.0
O11 O 1.00997 0.33812 0.17864 0.0
O12 O 0.05842 0.3867 0.14531 0.0
In13 In 0.67707 0.04832 0.74287 0.0
O14 O 0.71571 0.11138 0.74162 0.0
O15 O 0.74072 0.07657 0.74499 0.0
C16 C 0.60931 0.04282 0.74173 0.0
C17 C 0.67934 0.02453 0.63479 0.0
C18 C 0.67683 0.02481 0.85222 0.0
O19 O 0.6394 0.07408 0.74201 0.0
O20 O 0.61308 0.01419 0.74173 0.0
O21 O 0.67515 1.00514 0.80875 0.0
O22 O 0.6784 0.05547 0.84052 0.0
C23 C 0.74528 0.10925 0.74342 0.0
O24 O 0.67878 1.00598 0.67917 0.0
O25 O 0.67829 0.05405 0.64497 0.0
In26 In 0.63511 0.67344 0.24308 0.0
O27 O 0.61094 0.71229 0.2416 0.0
O28 O 0.67079 0.73697 0.24538 0.0
C29 C 0.57289 0.60575 0.24168 0.0
C30 C 0.66137 0.67576 0.13517 0.0
C31 C 0.65787 0.6731 0.35266 0.0
O32 O 0.57165 0.63578 0.24165 0.0
O33 O 0.60533 0.60955 0.2421 0.0
O34 O 0.67617 0.6716 0.30945 0.0
O35 O 0.62872 0.67451 0.34059 0.0
C36 C 0.64276 0.74172 0.24363 0.0
O37 O 0.67918 0.67491 0.17962 0.0
O38 O 0.63089 0.67499 0.14521 0.0
In39 In 0.96805 0.63169 0.74268 0.0
O40 O 0.90502 0.60779 0.74228 0.0
O41 O 0.94043 0.66758 0.74475 0.0
C42 C 0.97354 0.56952 0.74173 0.0
C43 C 0.99114 0.65718 0.63417 0.0
C44 C 0.99191 0.65505 0.85169 0.0
O45 O 0.94224 0.56829 0.74234 0.0
O46 O 1.0022 0.60193 0.74133 0.0
O47 O 0.01148 0.67306 0.80807 0.0
O48 O 0.96122 0.62589 0.84029 0.0
C49 C 0.90757 0.63967 0.74375 0.0
O50 O 0.01021 0.67522 0.67814 0.0
O51 O 0.96146 0.62683 0.64497 0.0
In52 In 0.34256 0.96401 0.24284 0.0
O53 O 0.3413 0.00653 0.17885 0.0
O54 O 0.34129 0.95817 0.14502 0.0
C55 C 0.34272 0.98715 0.35221 0.0
C56 C 0.274 0.90369 0.24303 0.0
C57 C 0.41015 0.96916 0.24219 0.0
O58 O 0.34477 0.00712 0.30884 0.0
O59 O 0.34084 0.95638 0.34041 0.0
O60 O 0.37998 0.93796 0.24229 0.0
O61 O 0.40654 0.99788 0.24212 0.0
C62 C 0.34052 0.98782 0.13462 0.0
O63 O 0.30331 0.90108 0.24144 0.0
O64 O 0.27901 0.93654 0.24457 0.0
In65 In 0.385 0.33901 0.74325 0.0
O66 O 0.34102 0.33738 0.67919 0.0
O67 O 0.38964 0.33781 0.6454 0.0
C68 C 0.36178 0.33941 0.85242 0.0
C69 C 0.37729 0.27069 0.74406 0.0
C70 C 0.44743 0.40659 0.7425 0.0
O71 O 0.34387 0.34128 0.80885 0.0
O72 O 0.39075 0.33757 0.8409 0.0
O73 O 0.44851 0.37647 0.74287 0.0
O74 O 0.41504 0.40293 0.74217 0.0
C75 C 0.35906 0.33678 0.63497 0.0
O76 O 0.40912 0.30011 0.74217 0.0
O77 O 0.34928 0.27546 0.74558 0.0
In78 In 0.63472 0.96356 0.24477 0.0
O79 O 0.61064 0.90057 0.24623 0.0
O80 O 0.67049 0.93579 0.24309 0.0
C81 C 0.57241 0.96894 0.2455 0.0
C82 C 0.66067 0.98734 0.35296 0.0
C83 C 0.6578 0.98679 0.13535 0.0
O84 O 0.57124 0.9377 0.2454 0.0
O85 O 0.60483 0.9976 0.24552 0.0
O86 O 0.67582 0.00666 0.17872 0.0
O87 O 0.62878 0.95609 0.14718 0.0
C88 C 0.6425 0.90301 0.24465 0.0
O89 O 0.67867 1.00599 0.30866 0.0
O90 O 0.63014 0.95775 0.34263 0.0
In91 In 0.67739 0.6313 0.74522 0.0
O92 O 0.71666 0.60761 0.74646 0.0
O93 O 0.74095 0.66736 0.74309 0.0
C94 C 0.60983 0.56885 0.74616 0.0
C95 C 0.67967 0.65711 0.85342 0.0
C96 C 0.67683 0.65435 0.63591 0.0
O97 O 0.64003 0.56784 0.74577 0.0
O98 O 0.61342 0.60117 0.74641 0.0
O99 O 0.6749 0.67223 0.67934 0.0
O100 O 0.67882 0.62549 0.64764 0.0
C101 C 0.74597 0.63952 0.74469 0.0
O102 O 0.67882 0.67507 0.80918 0.0
O103 O 0.67883 0.62667 0.84304 0.0
In104 In 0.05224 0.67372 0.24443 0.0
O105 O 0.11521 0.71303 0.24599 0.0
O106 O 0.07962 0.7372 0.2424 0.0
C107 C 0.04724 0.60628 0.24574 0.0
C108 C 0.028 0.67557 0.35226 0.0
C109 C 0.02932 0.67358 0.13482 0.0
O110 O 0.07844 0.63646 0.24595 0.0
O111 O 0.01845 0.60982 0.24516 0.0
O112 O 1.00935 0.6718 0.17797 0.0
O113 O 0.05994 0.67512 0.14697 0.0
C114 C 0.11252 0.74228 0.2441 0.0
O115 O 1.00923 0.67446 0.30779 0.0
O116 O 0.05795 0.67527 0.34228 0.0
In117 In 0.38478 0.04849 0.74446 0.0
O118 O 0.40902 0.11151 0.74607 0.0
O119 O 0.34917 0.07645 0.74266 0.0
C120 C 0.44706 0.04305 0.74493 0.0
C121 C 0.35892 0.02468 0.85265 0.0
C122 C 0.36142 0.02503 0.63523 0.0
O123 O 0.44827 0.07431 0.74459 0.0
O124 O 0.41463 0.01442 0.74537 0.0
O125 O 0.34363 1.00515 0.67874 0.0
O126 O 0.39031 0.05588 0.64684 0.0
C127 C 0.37722 0.1092 0.74441 0.0
O128 O 0.34069 1.00625 0.80836 0.0
O129 O 0.38965 0.05405 0.84232 0.0
In130 In 0.34276 0.38138 0.24479 0.0
O131 O 0.30394 0.40559 0.24651 0.0
O132 O 0.27916 0.3458 0.24289 0.0
C133 C 0.41054 0.44353 0.24522 0.0
C134 C 0.34065 0.35538 0.35297 0.0
C135 C 0.34279 0.35833 0.13541 0.0
O136 O 0.38048 0.44477 0.24513 0.0
O137 O 0.40672 0.41111 0.24545 0.0
O138 O 0.34483 0.34039 0.17878 0.0
O139 O 0.34093 0.38723 0.14723 0.0
C140 C 0.27445 0.37382 0.24472 0.0
O141 O 0.34096 0.33727 0.30867 0.0
O142 O 0.34193 0.38606 0.34266 0.0
In143 In 0.96743 0.33939 0.74427 0.0
O144 O 1.01004 0.33817 0.80823 0.0
O145 O 0.96175 0.33837 0.84213 0.0
C146 C 0.9904 0.33907 0.63492 0.0
C147 C 0.90659 0.27116 0.7443 0.0
C148 C 0.97327 0.40721 0.7446 0.0
O149 O 0.01019 0.34069 0.67832 0.0
O150 O 0.95991 0.33787 0.64669 0.0
O151 O 0.94189 0.37723 0.74482 0.0
O152 O 1.00183 0.40328 0.74448 0.0
C153 C 0.99144 0.33759 0.8525 0.0
O154 O 0.90431 0.30064 0.74569 0.0
O155 O 0.93935 0.27584 0.7429 0.0
C156 C 0.01259 0.33836 0.02405 0.0
C157 C 0.01769 0.34418 0.07564 0.0
C158 C 1.00807 0.33607 0.96291 0.0
C159 C 1.00284 0.33669 0.91133 0.0
C160 C 0.67901 1.00368 0.46334 0.0
C161 C 0.67308 0.99858 0.41177 0.0
C162 C 0.68126 0.00812 0.52449 0.0
C163 C 0.68048 0.01325 0.57604 0.0
C164 C 0.67976 0.67765 0.02493 0.0
C165 C 0.67385 0.67686 0.07648 0.0
C166 C 0.68187 0.6754 0.96379 0.0
C167 C 0.68093 0.66947 0.91223 0.0
C168 C 0.01131 0.67726 0.46245 0.0
C169 C 0.0165 0.67652 0.41092 0.0
C170 C 1.00697 0.67509 0.52359 0.0
C171 C 1.00208 0.6693 0.5752 0.0
C172 C 0.34066 0.00844 0.96304 0.0
C173 C 0.34651 0.01349 0.91145 0.0
C174 C 0.33852 1.0041 0.0242 0.0
C175 C 0.33936 0.99905 0.07579 0.0
C176 C 0.33859 0.337 0.46336 0.0
C177 C 0.33941 0.34292 0.41177 0.0
C178 C 0.34077 0.33479 0.52452 0.0
C179 C 0.34667 0.33561 0.57612 0.0
C180 C 1.00868 0.67119 0.96255 0.0
C181 C 1.00331 0.666 0.9109 0.0
C182 C 0.01329 0.67342 0.02366 0.0
C183 C 0.01843 0.67339 0.07536 0.0
C184 C 0.34309 1.00351 0.46322 0.0
C185 C 0.34305 0.99822 0.41157 0.0
C186 C 0.3454 0.00828 0.5243 0.0
C187 C 0.35062 0.0137 0.57595 0.0
C188 C 0.34571 0.34009 0.9633 0.0
C189 C 0.35094 0.3399 0.91167 0.0
C190 C 0.34332 0.34247 0.02438 0.0
C191 C 0.3432 0.34764 0.07604 0.0
C192 C 1.00663 0.33913 0.52392 0.0
C193 C 1.0014 0.33918 0.57558 0.0
C194 C 0.01138 0.34147 0.46284 0.0
C195 C 0.01685 0.34681 0.41122 0.0
C196 C 0.67621 0.0081 0.96321 0.0
C197 C 0.67639 0.01353 0.91154 0.0
C198 C 0.67379 1.00328 0.0243 0.0
C199 C 0.66856 0.99793 0.07597 0.0
C200 C 0.67366 0.67262 0.46381 0.0
C201 C 0.66853 0.67275 0.41211 0.0
C202 C 0.67604 0.67027 0.52492 0.0
C203 C 0.67627 0.6651 0.57658 0.0
C204 C 0.04368 0.54052 0.24503 0.0
C205 C 0.04477 0.57031 0.24537 0.0
C206 C 0.04363 0.50625 0.24421 0.0
C207 C 0.04466 0.47753 0.24357 0.0
C208 C 0.50915 0.03915 0.74352 0.0
C209 C 0.48048 0.04036 0.74417 0.0
C210 C 0.54338 0.03906 0.74262 0.0
C211 C 0.5732 0.04014 0.74221 0.0
C212 C 0.5108 0.53981 0.24259 0.0
C213 C 0.53949 0.56965 0.24217 0.0
C214 C 0.47653 0.50555 0.24357 0.0
C215 C 0.44667 0.47689 0.24433 0.0
C216 C 0.97744 0.50749 0.74256 0.0
C217 C 0.97627 0.53615 0.74217 0.0
C218 C 0.9774 0.47323 0.74335 0.0
C219 C 0.97615 0.44337 0.74392 0.0
C220 C 0.47601 0.97277 0.24342 0.0
C221 C 0.44619 0.97169 0.24285 0.0
C222 C 0.51027 0.97274 0.24432 0.0
C223 C 0.53897 0.97159 0.24486 0.0
C224 C 0.54398 0.50664 0.74491 0.0
C225 C 0.5738 0.53535 0.74548 0.0
C226 C 0.50968 0.4724 0.74389 0.0
C227 C 0.48093 0.44261 0.74325 0.0
C228 C 0.17368 0.36805 0.24452 0.0
C229 C 0.14543 0.36988 0.24429 0.0
C230 C 0.20785 0.36807 0.24464 0.0
C231 C 0.23795 0.36992 0.24463 0.0
C232 C 0.84575 0.20458 0.74408 0.0
C233 C 0.87396 0.2347 0.74415 0.0
C234 C 0.8117 0.17032 0.74392 0.0
C235 C 0.7817 0.14195 0.74373 0.0
C236 C 0.64851 0.80825 0.24428 0.0
C237 C 0.6467 0.7782 0.24403 0.0
C238 C 0.64843 0.84233 0.24446 0.0
C239 C 0.64651 0.87051 0.24451 0.0
C240 C 0.84692 0.64575 0.74436 0.0
C241 C 0.87511 0.6438 0.74412 0.0
C242 C 0.81277 0.64575 0.74448 0.0
C243 C 0.78261 0.64377 0.74453 0.0
C244 C 0.2072 0.84318 0.24333 0.0
C245 C 0.23736 0.87132 0.24324 0.0
C246 C 0.17305 0.80905 0.24353 0.0
C247 C 0.14489 0.7789 0.24374 0.0
C248 C 0.37148 0.20412 0.74457 0.0
C249 C 0.37332 0.23419 0.74438 0.0
C250 C 0.37149 0.17 0.74458 0.0
C251 C 0.37332 0.14177 0.74446 0.0
loop_
_geom_bond_atom_site_label_1
_geom_bond_atom_site_label_2
_geom_bond_distance
_geom_bond_site_symmetry_2
_ccdc_geom_bond_type
In0 O1 2.294 . S
In0 O2 2.326 . S
In0 O6 2.266 . S
In0 O7 2.326 . S
In0 O8 2.266 1_455 S
In0 O9 2.326 . S
In0 O11 2.287 1_455 S
In0 O12 2.326 . S
O1 In0 2.294 . S
O1 C10 1.240 . S
O2 In0 2.326 . S
O2 C10 1.252 . S
C3 O6 1.252 . S
C3 O7 1.260 . S
C4 O11 1.232 1_455 S
C4 O12 1.252 . S
C5 O8 1.252 1_455 S
C5 O9 1.260 . S
O6 In0 2.266 . S
O6 C3 1.252 . S
O7 In0 2.326 . S
O7 C3 1.260 . S
O8 In0 2.266 1_655 S
O8 C5 1.252 1_655 S
O9 In0 2.326 . S
O9 C5 1.260 . S
C10 O1 1.240 . S
C10 O2 1.252 . S
O11 In0 2.287 1_655 S
O11 C4 1.232 1_655 S
O12 In0 2.326 . S
O12 C4 1.252 . S
In13 O14 2.294 . S
In13 O15 2.326 . S
In13 O19 2.266 . S
In13 O20 2.326 . S
In13 O21 2.266 1_545 S
In13 O22 2.326 . S
In13 O24 2.276 1_545 S
In13 O25 2.326 . S
O14 In13 2.294 . S
O14 C23 1.240 . S
O15 In13 2.326 . S
O15 C23 1.252 . S
C16 O19 1.252 . S
C16 O20 1.260 . S
C17 O24 1.226 1_545 S
C17 O25 1.252 . S
C18 O21 1.252 1_545 S
C18 O22 1.260 . S
O19 In13 2.266 . S
O19 C16 1.252 . S
O20 In13 2.326 . S
O20 C16 1.260 . S
O21 In13 2.266 1_565 S
O21 C18 1.252 1_565 S
O22 In13 2.326 . S
O22 C18 1.260 . S
C23 O14 1.240 . S
C23 O15 1.252 . S
O24 In13 2.276 1_565 S
O24 C17 1.226 1_565 S
O25 In13 2.326 . S
O25 C17 1.252 . S
In26 O27 2.294 . S
In26 O28 2.326 . S
In26 O32 2.266 . S
In26 O33 2.326 . S
In26 O34 2.266 . S
In26 O35 2.326 . S
In26 O37 2.294 . S
In26 O38 2.326 . S
O27 In26 2.294 . S
O27 C36 1.240 . S
O28 In26 2.326 . S
O28 C36 1.252 . S
C29 O32 1.252 . S
C29 O33 1.260 . S
C30 O37 1.240 . S
C30 O38 1.252 . S
C31 O34 1.252 . S
C31 O35 1.260 . S
O32 In26 2.266 . S
O32 C29 1.252 . S
O33 In26 2.326 . S
O33 C29 1.260 . S
O34 In26 2.266 . S
O34 C31 1.252 . S
O35 In26 2.326 . S
O35 C31 1.260 . S
C36 O27 1.240 . S
C36 O28 1.252 . S
O37 In26 2.294 . S
O37 C30 1.240 . S
O38 In26 2.326 . S
O38 C30 1.252 . S
In39 O40 2.294 . S
In39 O41 2.326 . S
In39 O45 2.266 . S
In39 O46 2.326 . S
In39 O47 2.266 1_655 S
In39 O48 2.326 . S
In39 O50 2.287 1_655 S
In39 O51 2.326 . S
O40 In39 2.294 . S
O40 C49 1.240 . S
O41 In39 2.326 . S
O41 C49 1.252 . S
C42 O45 1.252 . S
C42 O46 1.260 . S
C43 O50 1.232 1_655 S
C43 O51 1.252 . S
C44 O47 1.252 1_655 S
C44 O48 1.260 . S
O45 In39 2.266 . S
O45 C42 1.252 . S
O46 In39 2.326 . S
O46 C42 1.260 . S
O47 In39 2.266 1_455 S
O47 C44 1.252 1_455 S
O48 In39 2.326 . S
O48 C44 1.260 . S
C49 O40 1.240 . S
C49 O41 1.252 . S
O50 In39 2.287 1_455 S
O50 C43 1.232 1_455 S
O51 In39 2.326 . S
O51 C43 1.252 . S
In52 O53 2.276 1_565 S
In52 O54 2.326 . S
In52 O58 2.266 1_565 S
In52 O59 2.326 . S
In52 O60 2.266 . S
In52 O61 2.326 . S
In52 O63 2.294 . S
In52 O64 2.326 . S
O53 In52 2.276 1_545 S
O53 C62 1.226 1_545 S
O54 In52 2.326 . S
O54 C62 1.252 . S
C55 O58 1.252 1_565 S
C55 O59 1.260 . S
C56 O63 1.240 . S
C56 O64 1.252 . S
C57 O60 1.252 . S
C57 O61 1.260 . S
O58 In52 2.266 1_545 S
O58 C55 1.252 1_545 S
O59 In52 2.326 . S
O59 C55 1.260 . S
O60 In52 2.266 . S
O60 C57 1.252 . S
O61 In52 2.326 . S
O61 C57 1.260 . S
C62 O53 1.226 1_565 S
C62 O54 1.252 . S
O63 In52 2.294 . S
O63 C56 1.240 . S
O64 In52 2.326 . S
O64 C56 1.252 . S
In65 O66 2.294 . S
In65 O67 2.326 . S
In65 O71 2.266 . S
In65 O72 2.326 . S
In65 O73 2.266 . S
In65 O74 2.326 . S
In65 O76 2.294 . S
In65 O77 2.326 . S
O66 In65 2.294 . S
O66 C75 1.240 . S
O67 In65 2.326 . S
O67 C75 1.252 . S
C68 O71 1.252 . S
C68 O72 1.260 . S
C69 O76 1.240 . S
C69 O77 1.252 . S
C70 O73 1.252 . S
C70 O74 1.260 . S
O71 In65 2.266 . S
O71 C68 1.252 . S
O72 In65 2.326 . S
O72 C68 1.260 . S
O73 In65 2.266 . S
O73 C70 1.252 . S
O74 In65 2.326 . S
O74 C70 1.260 . S
C75 O66 1.240 . S
C75 O67 1.252 . S
O76 In65 2.294 . S
O76 C69 1.240 . S
O77 In65 2.326 . S
O77 C69 1.252 . S
In78 O79 2.294 . S
In78 O80 2.326 . S
In78 O84 2.266 . S
In78 O85 2.326 . S
In78 O86 2.266 1_565 S
In78 O87 2.326 . S
In78 O89 2.287 1_565 S
In78 O90 2.326 . S
O79 In78 2.294 . S
O79 C88 1.240 . S
O80 In78 2.326 . S
O80 C88 1.252 . S
C81 O84 1.252 . S
C81 O85 1.260 . S
C82 O89 1.232 1_565 S
C82 O90 1.252 . S
C83 O86 1.252 1_565 S
C83 O87 1.260 . S
O84 In78 2.266 . S
O84 C81 1.252 . S
O85 In78 2.326 . S
O85 C81 1.260 . S
O86 In78 2.266 1_545 S
O86 C83 1.252 1_545 S
O87 In78 2.326 . S
O87 C83 1.260 . S
C88 O79 1.240 . S
C88 O80 1.252 . S
O89 In78 2.287 1_545 S
O89 C82 1.232 1_545 S
O90 In78 2.326 . S
O90 C82 1.252 . S
In91 O92 2.294 . S
In91 O93 2.326 . S
In91 O97 2.266 . S
In91 O98 2.326 . S
In91 O99 2.266 . S
In91 O100 2.326 . S
In91 O102 2.294 . S
In91 O103 2.326 . S
O92 In91 2.294 . S
O92 C101 1.240 . S
O93 In91 2.326 . S
O93 C101 1.252 . S
C94 O97 1.252 . S
C94 O98 1.260 . S
C95 O102 1.240 . S
C95 O103 1.252 . S
C96 O99 1.252 . S
C96 O100 1.260 . S
O97 In91 2.266 . S
O97 C94 1.252 . S
O98 In91 2.326 . S
O98 C94 1.260 . S
O99 In91 2.266 . S
O99 C96 1.252 . S
O100 In91 2.326 . S
O100 C96 1.260 . S
C101 O92 1.240 . S
C101 O93 1.252 . S
O102 In91 2.294 . S
O102 C95 1.240 . S
O103 In91 2.326 . S
O103 C95 1.252 . S
In104 O105 2.294 . S
In104 O106 2.326 . S
In104 O110 2.266 . S
In104 O111 2.326 . S
In104 O112 2.266 1_455 S
In104 O113 2.326 . S
In104 O115 2.276 1_455 S
In104 O116 2.326 . S
O105 In104 2.294 . S
O105 C114 1.240 . S
O106 In104 2.326 . S
O106 C114 1.252 . S
C107 O110 1.252 . S
C107 O111 1.260 . S
C108 O115 1.226 1_455 S
C108 O116 1.252 . S
C109 O112 1.252 1_455 S
C109 O113 1.260 . S
O110 In104 2.266 . S
O110 C107 1.252 . S
O111 In104 2.326 . S
O111 C107 1.260 . S
O112 In104 2.266 1_655 S
O112 C109 1.252 1_655 S
O113 In104 2.326 . S
O113 C109 1.260 . S
C114 O105 1.240 . S
C114 O106 1.252 . S
O115 In104 2.276 1_655 S
O115 C108 1.226 1_655 S
O116 In104 2.326 . S
O116 C108 1.252 . S
In117 O118 2.294 . S
In117 O119 2.326 . S
In117 O123 2.266 . S
In117 O124 2.326 . S
In117 O125 2.266 1_545 S
In117 O126 2.326 . S
In117 O128 2.287 1_545 S
In117 O129 2.326 . S
O118 In117 2.294 . S
O118 C127 1.240 . S
O119 In117 2.326 . S
O119 C127 1.252 . S
C120 O123 1.252 . S
C120 O124 1.260 . S
C121 O128 1.232 1_545 S
C121 O129 1.252 . S
C122 O125 1.252 1_545 S
C122 O126 1.260 . S
O123 In117 2.266 . S
O123 C120 1.252 . S
O124 In117 2.326 . S
O124 C120 1.260 . S
O125 In117 2.266 1_565 S
O125 C122 1.252 1_565 S
O126 In117 2.326 . S
O126 C122 1.260 . S
C127 O118 1.240 . S
C127 O119 1.252 . S
O128 In117 2.287 1_565 S
O128 C121 1.232 1_565 S
O129 In117 2.326 . S
O129 C121 1.252 . S
In130 O131 2.294 . S
In130 O132 2.326 . S
In130 O136 2.266 . S
In130 O137 2.326 . S
In130 O138 2.266 . S
In130 O139 2.326 . S
In130 O141 2.294 . S
In130 O142 2.326 . S
O131 In130 2.294 . S
O131 C140 1.240 . S
O132 In130 2.326 . S
O132 C140 1.252 . S
C133 O136 1.252 . S
C133 O137 1.260 . S
C134 O141 1.240 . S
C134 O142 1.252 . S
C135 O138 1.252 . S
C135 O139 1.260 . S
O136 In130 2.266 . S
O136 C133 1.252 . S
O137 In130 2.326 . S
O137 C133 1.260 . S
O138 In130 2.266 . S
O138 C135 1.252 . S
O139 In130 2.326 . S
O139 C135 1.260 . S
C140 O131 1.240 . S
C140 O132 1.252 . S
O141 In130 2.294 . S
O141 C134 1.240 . S
O142 In130 2.326 . S
O142 C134 1.252 . S
In143 O144 2.276 1_655 S
In143 O145 2.326 . S
In143 O149 2.266 1_655 S
In143 O150 2.326 . S
In143 O151 2.266 . S
In143 O152 2.326 . S
In143 O154 2.294 . S
In143 O155 2.326 . S
O144 In143 2.276 1_455 S
O144 C153 1.226 1_455 S
O145 In143 2.326 . S
O145 C153 1.252 . S
C146 O149 1.252 1_655 S
C146 O150 1.260 . S
C147 O154 1.240 . S
C147 O155 1.252 . S
C148 O151 1.252 . S
C148 O152 1.260 . S
O149 In143 2.266 1_455 S
O149 C146 1.252 1_455 S
O150 In143 2.326 . S
O150 C146 1.260 . S
O151 In143 2.266 . S
O151 C148 1.252 . S
O152 In143 2.326 . S
O152 C148 1.260 . S
C153 O144 1.226 1_655 S
C153 O145 1.252 . S
O154 In143 2.294 . S
O154 C147 1.240 . S
O155 In143 2.326 . S
O155 C147 1.252 . S
C156 C157 1.170 . S
C156 C158 1.380 1_454 S
C157 C156 1.170 . S
C158 C156 1.380 1_656 S
C158 C159 1.170 . S
C159 C158 1.170 . S
C160 C161 1.170 . S
C160 C162 1.380 . S
C161 C160 1.170 . S
C162 C160 1.380 . S
C162 C163 1.170 1_565 S
C163 C162 1.170 1_545 S
C164 C165 1.170 . S
C164 C166 1.380 1_554 S
C165 C164 1.170 . S
C166 C164 1.380 1_556 S
C166 C167 1.170 . S
C167 C166 1.170 . S
C168 C169 1.170 . S
C168 C170 1.381 1_455 S
C169 C168 1.170 . S
C170 C168 1.381 1_655 S
C170 C171 1.170 . S
C171 C170 1.170 . S
C172 C173 1.170 . S
C172 C174 1.380 1_546 S
C173 C172 1.170 . S
C174 C172 1.380 1_564 S
C174 C175 1.170 . S
C175 C174 1.170 . S
C176 C177 1.170 . S
C176 C178 1.380 . S
C177 C176 1.170 . S
C178 C176 1.380 . S
C178 C179 1.170 . S
C179 C178 1.170 . S
C180 C181 1.170 1_455 S
C180 C182 1.380 1_556 S
C181 C180 1.170 1_655 S
C182 C180 1.380 1_554 S
C182 C183 1.170 . S
C183 C182 1.170 . S
C184 C185 1.170 . S
C184 C186 1.380 . S
C185 C184 1.170 . S
C186 C184 1.380 . S
C186 C187 1.170 1_565 S
C187 C186 1.170 1_545 S
C188 C189 1.170 . S
C188 C190 1.380 1_556 S
C189 C188 1.170 . S
C190 C188 1.380 1_554 S
C190 C191 1.170 . S
C191 C190 1.170 . S
C192 C193 1.170 . S
C192 C194 1.380 . S
C193 C192 1.170 . S
C194 C192 1.380 . S
C194 C195 1.170 . S
C195 C194 1.170 . S
C196 C197 1.170 . S
C196 C198 1.380 1_556 S
C197 C196 1.170 . S
C198 C196 1.380 1_554 S
C198 C199 1.170 . S
C199 C198 1.170 . S
C200 C201 1.170 . S
C200 C202 1.380 . S
C201 C200 1.170 . S
C202 C200 1.380 . S
C202 C203 1.170 . S
C203 C202 1.170 . S
C204 C205 1.170 . S
C204 C206 1.380 . S
C205 C204 1.170 . S
C206 C204 1.380 . S
C206 C207 1.170 . S
C207 C206 1.170 . S
C208 C209 1.170 . S
C208 C210 1.380 . S
C209 C208 1.170 . S
C210 C208 1.380 . S
C210 C211 1.170 . S
C211 C210 1.170 . S
C212 C213 1.170 . S
C212 C214 1.380 . S
C213 C212 1.170 . S
C214 C212 1.380 . S
C214 C215 1.170 . S
C215 C214 1.170 . S
C216 C217 1.170 . S
C216 C218 1.380 . S
C217 C216 1.170 . S
C218 C216 1.380 . S
C218 C219 1.170 . S
C219 C218 1.170 . S
C220 C221 1.170 . S
C220 C222 1.380 . S
C221 C220 1.170 . S
C222 C220 1.380 . S
C222 C223 1.170 . S
C223 C222 1.170 . S
C224 C225 1.170 . S
C224 C226 1.380 . S
C225 C224 1.170 . S
C226 C224 1.380 . S
C226 C227 1.170 . S
C227 C226 1.170 . S
C228 C229 1.170 . S
C228 C230 1.380 . S
C229 C228 1.170 . S
C230 C228 1.380 . S
C230 C231 1.170 . S
C231 C230 1.170 . S
C232 C233 1.170 . S
C232 C234 1.380 . S
C233 C232 1.170 . S
C234 C232 1.380 . S
C234 C235 1.170 . S
C235 C234 1.170 . S
C236 C237 1.170 . S
C236 C238 1.380 . S
C237 C236 1.170 . S
C238 C236 1.380 . S
C238 C239 1.170 . S
C239 C238 1.170 . S
C240 C241 1.170 . S
C240 C242 1.380 . S
C241 C240 1.170 . S
C242 C240 1.380 . S
C242 C243 1.170 . S
C243 C242 1.170 . S
C244 C245 1.170 . S
C244 C246 1.380 . S
C245 C244 1.170 . S
C246 C244 1.380 . S
C246 C247 1.170 . S
C247 C246 1.170 . S
C248 C249 1.170 . S
C248 C250 1.380 . S
C249 C248 1.170 . S
C250 C248 1.380 . S
C250 C251 1.170 . S
C251 C250 1.170 . S
C157 C4 1.415 . S
C159 C153 1.417 . S
C161 C82 1.426 . S
C163 C17 1.434 . S
C165 C30 1.429 . S
C167 C95 1.420 . S
C169 C108 1.425 . S
C171 C43 1.418 . S
C173 C121 1.437 . S
C175 C62 1.432 . S
C177 C134 1.435 . S
C179 C75 1.437 . S
C181 C44 1.418 . S
C183 C109 1.388 . S
C185 C55 1.390 . S
C187 C122 1.416 . S
C189 C68 1.409 . S
C191 C135 1.398 . S
C193 C146 1.389 . S
C195 C5 1.418 1_655 S
C197 C18 1.419 1_565 S
C199 C83 1.388 . S
C201 C31 1.398 . S
C203 C96 1.408 . S
C205 C107 1.684 . S
C207 C3 1.691 . S
C209 C120 1.696 . S
C211 C16 1.685 . S
C213 C29 1.684 . S
C215 C133 1.696 . S
C217 C42 1.688 . S
C219 C148 1.697 . S
C221 C57 1.689 . S
C223 C81 1.685 . S
C225 C94 1.683 . S
C227 C70 1.693 . S
C229 C10 1.679 . S
C231 C140 1.683 . S
C233 C147 1.680 . S
C235 C23 1.681 . S
C237 C36 1.681 . S
C239 C88 1.686 . S
C241 C49 1.690 . S
C243 C101 1.694 . S
C245 C56 1.693 . S
C247 C114 1.688 . S
C249 C69 1.682 . S
C251 C127 1.687 . S
