# Generated by pormake.
# Topology wjf, (4)-cn, num edge types: 1
# Building blocks:
#     Node 0, Type 0, BuildingBlock: ICAMEG_clean_sbu_1, # of connection points: 4
#     Node 1, Type 0, BuildingBlock: ICAMEG_clean_sbu_1, # of connection points: 4
#     Node 2, Type 0, BuildingBlock: ICAMEG_clean_sbu_1, # of connection points: 4
#     Node 3, Type 0, BuildingBlock: ICAMEG_clean_sbu_1, # of connection points: 4
#     Node 4, Type 0, BuildingBlock: ICAMEG_clean_sbu_1, # of connection points: 4
#     Node 5, Type 0, BuildingBlock: ICAMEG_clean_sbu_1, # of connection points: 4
#     Node 6, Type 0, BuildingBlock: ICAMEG_clean_sbu_1, # of connection points: 4
#     Node 7, Type 0, BuildingBlock: ICAMEG_clean_sbu_1, # of connection points: 4
#     Node 8, Type 0, BuildingBlock: ICAMEG_clean_sbu_1, # of connection points: 4
#     Node 9, Type 0, BuildingBlock: ICAMEG_clean_sbu_1, # of connection points: 4
#     Node 10, Type 0, BuildingBlock: ICAMEG_clean_sbu_1, # of connection points: 4
#     Node 11, Type 0, BuildingBlock: ICAMEG_clean_sbu_1, # of connection points: 4
#     Edge 12, Type (0, 0), BuildingBlock: MIFKUJ_clean_linker_0, # of connection points: 2
#     Edge 13, Type (0, 0), BuildingBlock: MIFKUJ_clean_linker_0, # of connection points: 2
#     Edge 14, Type (0, 0), BuildingBlock: MIFKUJ_clean_linker_0, # of connection points: 2
#     Edge 15, Type (0, 0), BuildingBlock: MIFKUJ_clean_linker_0, # of connection points: 2
#     Edge 16, Type (0, 0), BuildingBlock: MIFKUJ_clean_linker_0, # of connection points: 2
#     Edge 17, Type (0, 0), BuildingBlock: MIFKUJ_clean_linker_0, # of connection points: 2
#     Edge 18, Type (0, 0), BuildingBlock: MIFKUJ_clean_linker_0, # of connection points: 2
#     Edge 19, Type (0, 0), BuildingBlock: MIFKUJ_clean_linker_0, # of connection points: 2
#     Edge 20, Type (0, 0), BuildingBlock: MIFKUJ_clean_linker_0, # of connection points: 2
#     Edge 21, Type (0, 0), BuildingBlock: MIFKUJ_clean_linker_0, # of connection points: 2
#     Edge 22, Type (0, 0), BuildingBlock: MIFKUJ_clean_linker_0, # of connection points: 2
#     Edge 23, Type (0, 0), BuildingBlock: MIFKUJ_clean_linker_0, # of connection points: 2
#     Edge 24, Type (0, 0), BuildingBlock: MIFKUJ_clean_linker_0, # of connection points: 2
#     Edge 25, Type (0, 0), BuildingBlock: MIFKUJ_clean_linker_0, # of connection points: 2
#     Edge 26, Type (0, 0), BuildingBlock: MIFKUJ_clean_linker_0, # of connection points: 2
#     Edge 27, Type (0, 0), BuildingBlock: MIFKUJ_clean_linker_0, # of connection points: 2
#     Edge 28, Type (0, 0), BuildingBlock: MIFKUJ_clean_linker_0, # of connection points: 2
#     Edge 29, Type (0, 0), BuildingBlock: MIFKUJ_clean_linker_0, # of connection points: 2
#     Edge 30, Type (0, 0), BuildingBlock: MIFKUJ_clean_linker_0, # of connection points: 2
#     Edge 31, Type (0, 0), BuildingBlock: MIFKUJ_clean_linker_0, # of connection points: 2
#     Edge 32, Type (0, 0), BuildingBlock: MIFKUJ_clean_linker_0, # of connection points: 2
#     Edge 33, Type (0, 0), BuildingBlock: MIFKUJ_clean_linker_0, # of connection points: 2
#     Edge 34, Type (0, 0), BuildingBlock: MIFKUJ_clean_linker_0, # of connection points: 2
#     Edge 35, Type (0, 0), BuildingBlock: MIFKUJ_clean_linker_0, # of connection points: 2
# Relax obj value: 0.058
# Max RMSD: 0.075
# Mean RMSD: 0.075
data_MOF--net-wjf--node1-ICAMEG_clean_sbu_1--edge1-MIFKUJ_clean_linker_0
_symmetry_space_group_name_H-M    P1
_symmetry_Int_Tables_number       1
_symmetry_cell_setting            triclinic
loop_
_symmetry_equiv_pos_as_xyz
'x, y, z'
_cell_length_a     69.80095
_cell_length_b     69.805347
_cell_length_c     38.401243
_cell_angle_alpha  89.992161
_cell_angle_beta   90.000875
_cell_angle_gamma 120.01163
loop_
_atom_site_label
_atom_site_type_symbol
_atom_site_fract_x
_atom_site_fract_y
_atom_site_fract_z
_atom_type_partial_charge
Co0 Co 0.34328 0.36965 0.07869 0.0
Co1 Co 0.33542 0.41339 0.0572 0.0
O2 O 0.32832 0.38684 0.08402 0.0
C3 C 0.3517 0.38366 0.15209 0.0
O4 O 0.35697 0.40358 0.14148 0.0
C5 C 0.28827 0.3828 0.04107 0.0
O6 O 0.29295 0.36682 0.03872 0.0
O7 O 0.33644 0.39921 0.0127 0.0
O8 O 0.34196 0.37118 0.02726 0.0
H9 H 0.37767 0.47306 0.96895 0.0
H10 H 0.30359 0.35264 0.12369 0.0
O11 O 0.34514 0.36784 0.13034 0.0
H12 H 0.28396 0.29628 0.03216 0.0
H13 H 0.35815 0.30811 0.10903 0.0
H14 H 0.37881 0.37246 0.03289 0.0
H15 H 0.32098 0.32965 0.03334 0.0
H16 H 0.33938 0.32996 0.11456 0.0
O17 O 0.30326 0.40231 0.04922 0.0
H18 H 0.36871 0.43976 0.00334 0.0
H19 H 0.31657 0.44343 0.05407 0.0
H20 H 0.39788 0.35096 0.02628 0.0
H21 H 0.26643 0.31943 0.12365 0.0
H22 H 0.38757 0.31853 0.06454 0.0
H23 H 0.2564 0.29101 0.07757 0.0
O24 O 0.37305 0.39691 0.07852 0.0
H25 H 0.30243 0.4165 0.17185 0.0
H26 H 0.36494 0.45693 0.09107 0.0
H27 H 0.36435 0.47425 0.14673 0.0
H28 H 0.3329 0.45399 0.18755 0.0
H29 H 0.30381 0.39973 0.11603 0.0
H30 H 0.32486 0.4767 0.02004 0.0
H31 H 0.35566 0.49176 0.97721 0.0
O32 O 0.36761 0.42507 0.06426 0.0
C33 C 0.33937 0.38311 0.0048 0.0
C34 C 0.36426 0.4667 0.98762 0.0
C35 C 0.3346 0.46872 0.01626 0.0
N36 N 0.34225 0.43977 0.03087 0.0
C37 C 0.35915 0.44789 0.00724 0.0
C38 C 0.32995 0.44986 0.0354 0.0
C39 C 0.35189 0.47717 0.99224 0.0
C40 C 0.29941 0.34024 0.10375 0.0
N41 N 0.31446 0.34302 0.07866 0.0
C42 C 0.27832 0.32151 0.10378 0.0
C43 C 0.27269 0.30559 0.07789 0.0
C44 C 0.28814 0.30855 0.05239 0.0
C45 C 0.30907 0.32749 0.05315 0.0
C46 C 0.36275 0.32218 0.09216 0.0
C47 C 0.37414 0.35828 0.04948 0.0
C48 C 0.35222 0.33464 0.09522 0.0
N49 N 0.35788 0.35236 0.07388 0.0
C50 C 0.38503 0.34621 0.04569 0.0
C51 C 0.37926 0.32803 0.06718 0.0
C52 C 0.38016 0.41732 0.07212 0.0
C53 C 0.31621 0.4255 0.15426 0.0
C54 C 0.35127 0.44799 0.10875 0.0
C55 C 0.35098 0.4579 0.14019 0.0
C56 C 0.33332 0.44653 0.16307 0.0
N57 N 0.33442 0.42736 0.1003 0.0
C58 C 0.31704 0.41613 0.12257 0.0
Co59 Co 0.97341 0.34192 0.4161 0.0
Co60 Co 0.92202 0.33495 0.39547 0.0
O61 O 0.94129 0.32717 0.42134 0.0
C62 C 0.967 0.3492 0.48962 0.0
O63 O 0.9516 0.35337 0.4789 0.0
C64 C 0.90533 0.28802 0.37739 0.0
O65 O 0.92595 0.29291 0.37324 0.0
O66 O 0.93743 0.33699 0.35067 0.0
O67 O 0.97049 0.34081 0.36458 0.0
H68 H 0.90484 0.37938 0.31116 0.0
H69 H 0.95011 0.30193 0.46033 0.0
O70 O 0.97711 0.34362 0.46786 0.0
H71 H 0.98715 0.28254 0.36899 0.0
H72 H 0.04972 0.35636 0.44621 0.0
H73 H 0.00624 0.37764 0.37073 0.0
H74 H 0.99124 0.31973 0.37084 0.0
H75 H 0.00907 0.33753 0.45148 0.0
O76 O 0.90089 0.30293 0.38643 0.0
H77 H 0.92911 0.3696 0.344 0.0
H78 H 0.87315 0.3161 0.39224 0.0
H79 H 0.04683 0.39701 0.36482 0.0
H80 H 0.94572 0.26459 0.45967 0.0
H81 H 0.06886 0.3863 0.40252 0.0
H82 H 0.96426 0.25468 0.41367 0.0
O83 O 0.97622 0.3718 0.41644 0.0
H84 H 0.88519 0.29982 0.50878 0.0
H85 H 0.90851 0.36419 0.43155 0.0
H86 H 0.8904 0.36263 0.48746 0.0
H87 H 0.87858 0.33025 0.52649 0.0
H88 H 0.90354 0.30215 0.45277 0.0
H89 H 0.84826 0.32518 0.3597 0.0
H90 H 0.86409 0.35708 0.31891 0.0
O91 O 0.94265 0.36694 0.4038 0.0
C92 C 0.95622 0.33936 0.34245 0.0
C93 C 0.89774 0.36547 0.32891 0.0
C94 C 0.86598 0.33503 0.35612 0.0
N95 N 0.90256 0.34236 0.37012 0.0
C96 C 0.9114 0.35988 0.34764 0.0
C97 C 0.88016 0.32993 0.37439 0.0
C98 C 0.87488 0.35294 0.33325 0.0
C99 C 0.95838 0.29779 0.44041 0.0
N100 N 0.97095 0.31299 0.41569 0.0
C101 C 0.95577 0.2766 0.4401 0.0
C102 C 0.96615 0.27104 0.41425 0.0
C103 C 0.97898 0.28666 0.38916 0.0
C104 C 0.98119 0.30767 0.39027 0.0
C105 C 0.0403 0.3611 0.42949 0.0
C106 C 0.0157 0.37282 0.38718 0.0
C107 C 0.01729 0.35051 0.43238 0.0
N108 N 0.00529 0.35635 0.41124 0.0
C109 C 0.03868 0.38386 0.3837 0.0
C110 C 0.05103 0.37789 0.40496 0.0
C111 C 0.96307 0.37921 0.41111 0.0
C112 C 0.89021 0.31399 0.49195 0.0
C113 C 0.90347 0.35008 0.44843 0.0
C114 C 0.89318 0.34926 0.48002 0.0
C115 C 0.88654 0.33108 0.5019 0.0
N116 N 0.907 0.33323 0.43884 0.0
C117 C 0.90053 0.31535 0.46015 0.0
Co118 Co 0.62616 0.97329 0.74521 0.0
Co119 Co 0.5831 0.9231 0.71696 0.0
O120 O 0.60817 0.94111 0.74741 0.0
C121 C 0.6081 0.9659 0.81642 0.0
O122 O 0.58844 0.95339 0.80276 0.0
C123 C 0.61377 0.90617 0.70529 0.0
O124 O 0.62992 0.9268 0.70418 0.0
O125 O 0.59999 0.93949 0.67483 0.0
O126 O 0.62715 0.97253 0.69342 0.0
H127 H 0.52883 0.90975 0.62107 0.0
H128 H 0.64013 0.94817 0.79067 0.0
O129 O 0.62529 0.9747 0.79722 0.0
H130 H 0.70101 0.98729 0.70663 0.0
H131 H 0.68671 0.0476 0.78631 0.0
H132 H 0.62659 0.0084 0.70109 0.0
H133 H 0.66819 0.99186 0.70479 0.0
H134 H 0.66411 0.00687 0.78701 0.0
O135 O 0.59395 0.90171 0.71057 0.0
H136 H 0.56033 0.93247 0.65991 0.0
H137 H 0.5526 0.87455 0.70922 0.0
H138 H 0.64891 0.04913 0.69922 0.0
H139 H 0.67273 0.94326 0.79363 0.0
H140 H 0.67921 0.069 0.74208 0.0
H141 H 0.70343 0.96285 0.75131 0.0
O142 O 0.59943 0.97653 0.74232 0.0
H143 H 0.57218 0.88286 0.83021 0.0
H144 H 0.53808 0.90938 0.74457 0.0
H145 H 0.51724 0.8899 0.79727 0.0
H146 H 0.53428 0.87644 0.8405 0.0
H147 H 0.59251 0.90261 0.77729 0.0
H148 H 0.52113 0.85119 0.67072 0.0
H149 H 0.509 0.8688 0.62635 0.0
O150 O 0.57183 0.94408 0.72259 0.0
C151 C 0.61639 0.95877 0.66927 0.0
C152 C 0.53391 0.90189 0.64038 0.0
C153 C 0.52961 0.86901 0.66821 0.0
N154 N 0.55818 0.90485 0.68696 0.0
C155 C 0.55169 0.91467 0.6625 0.0
C156 C 0.54746 0.88232 0.68987 0.0
C157 C 0.52281 0.87891 0.64333 0.0
C158 C 0.65353 0.95691 0.7724 0.0
N159 N 0.65232 0.97036 0.7477 0.0
C160 C 0.6719 0.954 0.77411 0.0
C161 C 0.6891 0.96498 0.75032 0.0
C162 C 0.68775 0.97868 0.72523 0.0
C163 C 0.66911 0.98117 0.72427 0.0
C164 C 0.6736 0.03913 0.76743 0.0
C165 C 0.63987 0.01692 0.71962 0.0
C166 C 0.66073 0.01608 0.76772 0.0
N167 N 0.6442 0.00527 0.74388 0.0
C168 C 0.6524 0.03999 0.71852 0.0
C169 C 0.66938 0.05113 0.7426 0.0
C170 C 0.57947 0.96402 0.73254 0.0
C171 C 0.56456 0.8886 0.81153 0.0
C172 C 0.54564 0.90366 0.76332 0.0
C173 C 0.53374 0.89258 0.79307 0.0
C174 C 0.5433 0.88503 0.81731 0.0
N175 N 0.56646 0.90706 0.75781 0.0
C176 C 0.57596 0.89972 0.78147 0.0
Co177 Co 0.65017 0.62095 0.07345 0.0
Co178 Co 0.65813 0.57787 0.04797 0.0
O179 O 0.66571 0.60419 0.07581 0.0
C180 C 0.64455 0.60614 0.14657 0.0
O181 O 0.641 0.58686 0.13542 0.0
C182 C 0.70433 0.60999 0.02837 0.0
O183 O 0.69908 0.62559 0.029 0.0
O184 O 0.6543 0.5916 0.00495 0.0
O185 O 0.6507 0.62045 0.02188 0.0
H186 H 0.6128 0.51722 0.96277 0.0
H187 H 0.69081 0.63759 0.11603 0.0
O188 O 0.64912 0.62179 0.12521 0.0
H189 H 0.70758 0.69595 0.02918 0.0
H190 H 0.63422 0.68077 0.11053 0.0
H191 H 0.61351 0.61811 0.03059 0.0
H192 H 0.67089 0.66216 0.03059 0.0
H193 H 0.65386 0.65964 0.1124 0.0
O194 O 0.68999 0.59007 0.03572 0.0
H195 H 0.6224 0.55036 -0.00196 0.0
H196 H 0.67846 0.54943 0.039 0.0
H197 H 0.59355 0.63891 0.02762 0.0
H198 H 0.72766 0.67122 0.11583 0.0
H199 H 0.60388 0.67048 0.06781 0.0
H200 H 0.73626 0.70065 0.07206 0.0
O201 O 0.62069 0.59331 0.07374 0.0
H202 H 0.6979 0.57585 0.15573 0.0
H203 H 0.63126 0.53426 0.08319 0.0
H204 H 0.6355 0.51718 0.1367 0.0
H205 H 0.66904 0.538 0.17333 0.0
H206 H 0.69286 0.59239 0.10222 0.0
H207 H 0.66958 0.5164 0.00393 0.0
H208 H 0.63649 0.50002 0.96558 0.0
O209 O 0.62628 0.56528 0.05933 0.0
C210 C 0.65179 0.60813 -0.00152 0.0
C211 C 0.62722 0.52416 0.97946 0.0
C212 C 0.65911 0.52372 0.00253 0.0
N213 N 0.65088 0.55171 0.02073 0.0
C214 C 0.63271 0.54288 -0.00043 0.0
C215 C 0.66408 0.54245 0.02226 0.0
C216 C 0.64054 0.51453 0.98103 0.0
C217 C 0.69438 0.65041 0.09711 0.0
N218 N 0.67872 0.64792 0.07335 0.0
C219 C 0.71529 0.66938 0.09703 0.0
C220 C 0.72012 0.68587 0.07244 0.0
C221 C 0.70404 0.68324 0.04836 0.0
C222 C 0.68332 0.66403 0.04918 0.0
C223 C 0.62959 0.66707 0.09284 0.0
C224 C 0.61819 0.63193 0.048 0.0
C225 C 0.64062 0.65502 0.09383 0.0
N226 N 0.63494 0.63776 0.07145 0.0
C227 C 0.60679 0.6436 0.04627 0.0
C228 C 0.61258 0.66129 0.06885 0.0
C229 C 0.61373 0.57284 0.06818 0.0
C230 C 0.68323 0.56659 0.13995 0.0
C231 C 0.64584 0.54346 0.09908 0.0
C232 C 0.64819 0.53368 0.1293 0.0
C233 C 0.66702 0.54537 0.14983 0.0
N234 N 0.66183 0.56427 0.08954 0.0
C235 C 0.68032 0.57584 0.10956 0.0
Co236 Co 0.02834 0.64778 0.40844 0.0
Co237 Co 0.07989 0.65819 0.38085 0.0
O238 O 0.06064 0.66402 0.41064 0.0
C239 C 0.03761 0.64108 0.48108 0.0
O240 O 0.05296 0.6372 0.46908 0.0
C241 C 0.0942 0.7052 0.36699 0.0
O242 O 0.07325 0.69962 0.36533 0.0
O243 O 0.06288 0.65681 0.33822 0.0
O244 O 0.02918 0.64878 0.35688 0.0
H245 H 0.09684 0.61855 0.2873 0.0
H246 H 0.05124 0.68798 0.4523 0.0
O247 O 0.02664 0.64617 0.46033 0.0
H248 H 0.00921 0.70437 0.36574 0.0
H249 H 0.9521 0.62959 0.44683 0.0
H250 H 0.99492 0.6111 0.36506 0.0
H251 H 0.00731 0.66813 0.36607 0.0
H252 H 0.9929 0.65005 0.44839 0.0
O253 O 0.09966 0.69066 0.37336 0.0
H254 H 0.07264 0.62581 0.3252 0.0
H255 H 0.12883 0.67909 0.37331 0.0
H256 H 0.95415 0.59034 0.36239 0.0
H257 H 0.05346 0.72438 0.45312 0.0
H258 H 0.93246 0.59954 0.4035 0.0
H259 H 0.0324 0.73279 0.40952 0.0
O260 O 0.02742 0.61882 0.40727 0.0
H261 H 0.11925 0.69121 0.4935 0.0
H262 H 0.09681 0.62988 0.41022 0.0
H263 H 0.11706 0.63091 0.46347 0.0
H264 H 0.12846 0.66178 0.50552 0.0
H265 H 0.09874 0.68937 0.44012 0.0
H266 H 0.15365 0.67254 0.33572 0.0
H267 H 0.13766 0.64201 0.29243 0.0
O268 O 0.06063 0.62569 0.38763 0.0
C269 C 0.04306 0.65242 0.3327 0.0
C270 C 0.10401 0.63185 0.30613 0.0
C271 C 0.13589 0.66218 0.33328 0.0
N272 N 0.09932 0.65275 0.35159 0.0
C273 C 0.09039 0.636 0.32773 0.0
C274 C 0.12176 0.66584 0.35442 0.0
C275 C 0.12691 0.64504 0.309 0.0
C276 C 0.04185 0.69145 0.43349 0.0
N277 N 0.02907 0.67592 0.4093 0.0
C278 C 0.04324 0.71211 0.43398 0.0
C279 C 0.03145 0.71683 0.40948 0.0
C280 C 0.01844 0.7009 0.38489 0.0
C281 C 0.01746 0.68042 0.38517 0.0
C282 C 0.96137 0.62544 0.42875 0.0
C283 C 0.9856 0.61528 0.3829 0.0
C284 C 0.98447 0.63694 0.42956 0.0
N285 N 0.99628 0.63186 0.40669 0.0
C286 C 0.96252 0.60343 0.38133 0.0
C287 C 0.95036 0.60859 0.40442 0.0
C288 C 0.04094 0.61252 0.3979 0.0
C289 C 0.11439 0.67769 0.47537 0.0
C290 C 0.10158 0.64326 0.4285 0.0
C291 C 0.11312 0.64382 0.45855 0.0
C292 C 0.11953 0.66115 0.48211 0.0
N293 N 0.09658 0.65953 0.42208 0.0
C294 C 0.10284 0.6766 0.44504 0.0
Co295 Co 0.37656 0.02827 0.74855 0.0
Co296 Co 0.41906 0.08015 0.7252 0.0
O297 O 0.39174 0.06061 0.75034 0.0
C298 C 0.38542 0.03843 0.82299 0.0
O299 O 0.405 0.0546 0.81384 0.0
C300 C 0.38797 0.09487 0.70208 0.0
O301 O 0.37286 0.07402 0.69763 0.0
O302 O 0.40673 0.06354 0.68092 0.0
O303 O 0.38172 0.02899 0.69757 0.0
H304 H 0.48256 0.09781 0.64476 0.0
H305 H 0.35432 0.05023 0.78184 0.0
O306 O 0.37137 0.02661 0.79989 0.0
H307 H 0.30583 0.00719 0.68436 0.0
H308 H 0.31592 0.95154 0.77963 0.0
H309 H 0.38517 0.99536 0.71384 0.0
H310 H 0.34014 0.00644 0.69649 0.0
H311 H 0.33543 0.99234 0.78107 0.0
O312 O 0.4072 0.10005 0.71296 0.0
H313 H 0.44824 0.07333 0.6769 0.0
H314 H 0.44771 0.12916 0.71974 0.0
H315 H 0.3661 0.95462 0.71135 0.0
H316 H 0.32007 0.05136 0.77075 0.0
H317 H 0.33119 0.93242 0.74441 0.0
H318 H 0.29561 0.02978 0.72164 0.0
O319 O 0.40457 0.02818 0.75708 0.0
H320 H 0.417 0.11899 0.83407 0.0
H321 H 0.46157 0.09649 0.76383 0.0
H322 H 0.47663 0.11643 0.81908 0.0
H323 H 0.4543 0.12786 0.85458 0.0
H324 H 0.40247 0.09876 0.77887 0.0
H325 H 0.48191 0.15424 0.6878 0.0
H326 H 0.49961 0.13858 0.65011 0.0
O327 O 0.43166 0.06081 0.737 0.0
C328 C 0.39303 0.04326 0.67439 0.0
C329 C 0.47504 0.10483 0.66118 0.0
C330 C 0.47465 0.13651 0.6853 0.0
N331 N 0.44608 0.09981 0.70034 0.0
C332 C 0.45564 0.09106 0.67951 0.0
C333 C 0.45526 0.12222 0.70324 0.0
C334 C 0.48458 0.12771 0.66417 0.0
C335 C 0.34363 0.04063 0.76064 0.0
N336 N 0.34915 0.02819 0.73998 0.0
C337 C 0.32432 0.0414 0.75439 0.0
C338 C 0.31062 0.02932 0.72679 0.0
C339 C 0.31635 0.01666 0.70585 0.0
C340 C 0.33582 0.01632 0.71281 0.0
C341 C 0.33107 0.96103 0.765 0.0
C342 C 0.36988 0.98582 0.72801 0.0
C343 C 0.3422 0.98413 0.76575 0.0
N344 N 0.36126 0.99621 0.74716 0.0
C345 C 0.35921 0.96275 0.72664 0.0
C346 C 0.33964 0.95031 0.74523 0.0
C347 C 0.42479 0.04163 0.74989 0.0
C348 C 0.4269 0.11412 0.81881 0.0
C349 C 0.45169 0.10126 0.77924 0.0
C350 C 0.46034 0.11263 0.81044 0.0
C351 C 0.44781 0.11906 0.83033 0.0
N352 N 0.43116 0.09645 0.76813 0.0
C353 C 0.4188 0.10274 0.78747 0.0
Co354 Co 0.62833 0.65439 0.57458 0.0
Co355 Co 0.58639 0.66352 0.60166 0.0
O356 O 0.61209 0.67044 0.57257 0.0
C357 C 0.61512 0.65002 0.50106 0.0
O358 O 0.5953 0.64504 0.51179 0.0
C359 C 0.6175 0.71057 0.61696 0.0
O360 O 0.63306 0.70539 0.62054 0.0
O361 O 0.60204 0.66287 0.64455 0.0
O362 O 0.62639 0.65299 0.62615 0.0
H363 H 0.53021 0.62303 0.69544 0.0
H364 H 0.64711 0.69651 0.53542 0.0
O365 O 0.63066 0.65519 0.52289 0.0
H366 H 0.70221 0.70897 0.62606 0.0
H367 H 0.68797 0.63792 0.53847 0.0
H368 H 0.62312 0.61563 0.61419 0.0
H369 H 0.668 0.67283 0.62086 0.0
H370 H 0.66791 0.65867 0.53766 0.0
O371 O 0.5979 0.69579 0.60884 0.0
H372 H 0.56206 0.6312 0.65784 0.0
H373 H 0.55662 0.68253 0.60776 0.0
H374 H 0.64271 0.59444 0.6159 0.0
H375 H 0.68122 0.73288 0.53948 0.0
H376 H 0.67541 0.60558 0.57786 0.0
H377 H 0.70901 0.73929 0.58514 0.0
O378 O 0.60042 0.62547 0.57128 0.0
H379 H 0.57886 0.69534 0.48854 0.0
H380 H 0.5419 0.6333 0.57127 0.0
H381 H 0.52249 0.6333 0.51759 0.0
H382 H 0.54098 0.6645 0.47582 0.0
H383 H 0.59775 0.69458 0.54239 0.0
H384 H 0.52482 0.67504 0.64502 0.0
H385 H 0.51137 0.64504 0.68916 0.0
O386 O 0.57428 0.63111 0.59531 0.0
C387 C 0.61655 0.65726 0.65023 0.0
C388 C 0.53584 0.63607 0.6762 0.0
C389 C 0.53284 0.66528 0.64793 0.0
N390 N 0.56102 0.65716 0.63038 0.0
C391 C 0.55381 0.64072 0.65474 0.0
C392 C 0.55087 0.66947 0.62693 0.0
C393 C 0.5253 0.64845 0.67269 0.0
C394 C 0.65923 0.69914 0.55515 0.0
N395 N 0.65561 0.68256 0.57778 0.0
C396 C 0.67847 0.71978 0.55741 0.0
C397 C 0.69404 0.72338 0.58307 0.0
C398 C 0.69023 0.70637 0.60605 0.0
C399 C 0.6708 0.68596 0.60303 0.0
C400 C 0.67379 0.63295 0.55524 0.0
C401 C 0.63742 0.62066 0.59772 0.0
C402 C 0.66236 0.64462 0.55487 0.0
N403 N 0.64448 0.63847 0.57606 0.0
C404 C 0.64841 0.60857 0.59874 0.0
C405 C 0.66673 0.6148 0.57735 0.0
C406 C 0.58077 0.61858 0.58207 0.0
C407 C 0.57061 0.68168 0.50658 0.0
C408 C 0.55008 0.64691 0.55317 0.0
C409 C 0.53899 0.64684 0.52286 0.0
C410 C 0.54937 0.66436 0.49944 0.0
N411 N 0.5709 0.66398 0.56001 0.0
C412 C 0.58119 0.6812 0.53718 0.0
Co413 Co 0.97743 0.63368 0.91259 0.0
Co414 Co 0.92537 0.59013 0.93268 0.0
O415 O 0.94535 0.61652 0.9059 0.0
C416 C 0.97244 0.61788 0.84038 0.0
O417 O 0.95672 0.59866 0.85175 0.0
C418 C 0.90839 0.62072 0.9472 0.0
O419 O 0.92885 0.63668 0.952 0.0
O420 O 0.94011 0.60444 0.9775 0.0
O421 O 0.97334 0.63347 0.96368 0.0
H422 H 0.90631 0.53026 0.02129 0.0
H423 H 0.95549 0.64939 0.86353 0.0
O424 O 0.98221 0.63412 0.86125 0.0
H425 H 0.99161 0.70864 0.95101 0.0
H426 H 0.05478 0.69398 0.88377 0.0
H427 H 0.00883 0.63199 0.96274 0.0
H428 H 0.99496 0.67515 0.95432 0.0
H429 H 0.0143 0.6722 0.876 0.0
O430 O 0.90433 0.60141 0.93877 0.0
H431 H 0.93129 0.56358 0.98744 0.0
H432 H 0.87636 0.56048 0.93456 0.0
H433 H 0.0492 0.65346 0.97167 0.0
H434 H 0.95187 0.68271 0.85899 0.0
H435 H 0.07247 0.68471 0.93199 0.0
H436 H 0.96996 0.71259 0.90302 0.0
O437 O 0.97985 0.60638 0.91612 0.0
H438 H 0.89097 0.58667 0.81623 0.0
H439 H 0.91152 0.54636 0.8998 0.0
H440 H 0.89427 0.5288 0.84392 0.0
H441 H 0.88386 0.54899 0.80169 0.0
H442 H 0.90844 0.60368 0.87231 0.0
H443 H 0.85076 0.52727 0.96814 0.0
H444 H 0.86572 0.51189 0.01176 0.0
O445 O 0.9457 0.57824 0.92726 0.0
C446 C 0.95865 0.62122 0.98571 0.0
C447 C 0.89959 0.53678 0.00232 0.0
C448 C 0.86841 0.53512 0.97251 0.0
N449 N 0.9053 0.56391 0.95893 0.0
C450 C 0.91365 0.55561 0.98301 0.0
C451 C 0.88298 0.55398 0.95366 0.0
C452 C 0.87682 0.52649 0.99697 0.0
C453 C 0.96353 0.6624 0.88264 0.0
N454 N 0.97544 0.66035 0.90914 0.0
C455 C 0.96137 0.68119 0.88 0.0
C456 C 0.97151 0.69794 0.90473 0.0
C457 C 0.98364 0.69573 0.93168 0.0
C458 C 0.98542 0.6767 0.9335 0.0
C459 C 0.04482 0.68043 0.90126 0.0
C460 C 0.01882 0.64566 0.94551 0.0
C461 C 0.0219 0.66801 0.89693 0.0
N462 N 0.00921 0.65095 0.91904 0.0
C463 C 0.04169 0.65771 0.95063 0.0
C464 C 0.05473 0.67522 0.92833 0.0
C465 C 0.96624 0.58593 0.92167 0.0
C466 C 0.8954 0.57769 0.83444 0.0
C467 C 0.90711 0.55528 0.88152 0.0
C468 C 0.89729 0.54523 0.84995 0.0
C469 C 0.89144 0.55656 0.82628 0.0
N470 N 0.91095 0.576 0.88933 0.0
C471 C 0.90522 0.5872 0.86628 0.0
Co472 Co 0.3452 0.97658 0.25389 0.0
Co473 Co 0.33582 0.92427 0.2747 0.0
O474 O 0.32961 0.94442 0.24787 0.0
C475 C 0.35335 0.97019 0.18061 0.0
O476 O 0.35543 0.95339 0.19084 0.0
C477 C 0.28848 0.90816 0.28997 0.0
O478 O 0.29327 0.92881 0.29326 0.0
O479 O 0.33686 0.9394 0.31943 0.0
O480 O 0.34229 0.97296 0.30507 0.0
H481 H 0.37612 0.90472 0.36349 0.0
H482 H 0.30666 0.95507 0.20643 0.0
O483 O 0.34876 0.98105 0.20239 0.0
H484 H 0.28607 0.99232 0.29569 0.0
H485 H 0.36329 0.05423 0.22486 0.0
H486 H 0.37952 0.00792 0.30267 0.0
H487 H 0.32261 0.99489 0.29722 0.0
H488 H 0.3438 0.01368 0.21761 0.0
O489 O 0.30347 0.90367 0.28175 0.0
H490 H 0.36826 0.92993 0.32933 0.0
H491 H 0.31592 0.87522 0.27682 0.0
H492 H 0.39919 0.04834 0.3111 0.0
H493 H 0.26999 0.95219 0.20373 0.0
H494 H 0.39113 0.0718 0.27199 0.0
H495 H 0.25948 0.97086 0.24865 0.0
O496 O 0.37458 0.97833 0.25597 0.0
H497 H 0.30339 0.88935 0.15915 0.0
H498 H 0.36491 0.90957 0.24124 0.0
H499 H 0.36444 0.89194 0.18535 0.0
H500 H 0.33349 0.88169 0.14386 0.0
H501 H 0.30466 0.90724 0.21519 0.0
H502 H 0.32309 0.84941 0.31063 0.0
H503 H 0.35344 0.86414 0.35424 0.0
O504 O 0.3682 0.9442 0.26849 0.0
C505 C 0.33951 0.95833 0.32742 0.0
C506 C 0.36289 0.8981 0.3445 0.0
C507 C 0.33311 0.86706 0.31487 0.0
N508 N 0.34174 0.90406 0.30097 0.0
C509 C 0.3584 0.9123 0.32501 0.0
C510 C 0.32909 0.88175 0.29587 0.0
C511 C 0.35015 0.87533 0.33932 0.0
C512 C 0.30226 0.96339 0.22589 0.0
N513 N 0.31678 0.97521 0.25186 0.0
C514 C 0.28146 0.96164 0.2243 0.0
C515 C 0.27556 0.97209 0.24954 0.0
C516 C 0.29046 0.98412 0.27595 0.0
C517 C 0.31111 0.98548 0.27674 0.0
C518 C 0.36692 0.04418 0.2421 0.0
C519 C 0.3758 0.01799 0.28569 0.0
C520 C 0.35598 0.02122 0.23806 0.0
N521 N 0.3604 0.00844 0.25984 0.0
C522 C 0.38705 0.04088 0.29052 0.0
C523 C 0.38254 0.05403 0.26855 0.0
C524 C 0.38119 0.96459 0.26191 0.0
C525 C 0.31694 0.89371 0.17703 0.0
C526 C 0.35146 0.90526 0.22326 0.0
C527 C 0.35123 0.89521 0.1917 0.0
C528 C 0.33386 0.88945 0.16845 0.0
N529 N 0.33484 0.90943 0.23146 0.0
C530 C 0.31771 0.90376 0.20885 0.0
Co531 Co 0.3793 0.34973 0.57912 0.0
Co532 Co 0.41964 0.34046 0.61305 0.0
O533 O 0.39469 0.33287 0.58187 0.0
C534 C 0.39258 0.34985 0.5063 0.0
O535 O 0.41257 0.35613 0.51784 0.0
C536 C 0.38792 0.29376 0.63018 0.0
O537 O 0.37224 0.29893 0.63056 0.0
O538 O 0.40291 0.34228 0.65357 0.0
O539 O 0.38122 0.35426 0.63049 0.0
H540 H 0.47396 0.38361 0.70773 0.0
H541 H 0.35919 0.30544 0.54629 0.0
O542 O 0.37701 0.34579 0.52756 0.0
H543 H 0.30512 0.29991 0.63416 0.0
H544 H 0.32124 0.36597 0.53358 0.0
H545 H 0.38586 0.39129 0.61094 0.0
H546 H 0.33988 0.3351 0.62504 0.0
H547 H 0.34027 0.34435 0.53912 0.0
O548 O 0.40778 0.30838 0.62309 0.0
H549 H 0.44283 0.37429 0.66777 0.0
H550 H 0.44901 0.32148 0.62525 0.0
H551 H 0.36734 0.4134 0.60622 0.0
H552 H 0.32451 0.26997 0.55429 0.0
H553 H 0.33475 0.40073 0.56734 0.0
H554 H 0.29724 0.26704 0.5986 0.0
O555 O 0.40772 0.37784 0.57321 0.0
H556 H 0.42947 0.3054 0.50538 0.0
H557 H 0.46492 0.36962 0.58434 0.0
H558 H 0.48547 0.368 0.53325 0.0
H559 H 0.46775 0.33569 0.49339 0.0
H560 H 0.40944 0.30779 0.55662 0.0
H561 H 0.48008 0.33009 0.66497 0.0
H562 H 0.49281 0.36142 0.70648 0.0
O563 O 0.4322 0.37274 0.60396 0.0
C564 C 0.38957 0.34966 0.65644 0.0
C565 C 0.46862 0.36997 0.68967 0.0
C566 C 0.47204 0.33992 0.6657 0.0
N567 N 0.44426 0.34751 0.64398 0.0
C568 C 0.45106 0.36467 0.66691 0.0
C569 C 0.45442 0.3351 0.64332 0.0
C570 C 0.47917 0.3575 0.68898 0.0
C571 C 0.34728 0.30434 0.56534 0.0
N572 N 0.35151 0.32233 0.58506 0.0
C573 C 0.32772 0.2842 0.56987 0.0
C574 C 0.31244 0.28255 0.59477 0.0
C575 C 0.31686 0.30099 0.61474 0.0
C576 C 0.3366 0.32086 0.60952 0.0
C577 C 0.33537 0.37161 0.5507 0.0
C578 C 0.3716 0.38559 0.59415 0.0
C579 C 0.34621 0.35944 0.55394 0.0
N580 N 0.364 0.36643 0.57562 0.0
C581 C 0.36121 0.39821 0.59152 0.0
C582 C 0.34296 0.39111 0.56966 0.0
C583 C 0.42677 0.38491 0.58669 0.0
C584 C 0.43739 0.31953 0.52261 0.0
C585 C 0.45707 0.35554 0.56706 0.0
C586 C 0.46881 0.35469 0.53822 0.0
C587 C 0.45886 0.33655 0.51587 0.0
N588 N 0.43604 0.33876 0.57353 0.0
C589 C 0.42617 0.32093 0.55173 0.0
Co590 Co 0.02607 0.3776 0.92146 0.0
Co591 Co 0.07814 0.42031 0.94369 0.0
O592 O 0.05824 0.39402 0.91672 0.0
C593 C 0.03346 0.39219 0.84819 0.0
O594 O 0.04893 0.41162 0.85929 0.0
C595 C 0.09304 0.38837 0.95994 0.0
O596 O 0.07217 0.3731 0.96351 0.0
O597 O 0.06229 0.4065 0.98804 0.0
O598 O 0.02873 0.37842 0.97301 0.0
H599 H 0.09728 0.48096 0.03083 0.0
H600 H 0.04856 0.36036 0.8765 0.0
O601 O 0.02277 0.37649 0.86969 0.0
H602 H 0.00884 0.3026 0.96503 0.0
H603 H 0.94899 0.31811 0.88943 0.0
H604 H 0.99381 0.38101 0.96753 0.0
H605 H 0.00636 0.33663 0.96477 0.0
H606 H 0.98969 0.33897 0.8844 0.0
O607 O 0.09825 0.40809 0.95185 0.0
H608 H 0.0722 0.44781 0.9967 0.0
H609 H 0.1272 0.44876 0.9476 0.0
H610 H 0.95317 0.36062 0.9734 0.0
H611 H 0.05132 0.32649 0.87554 0.0
H612 H 0.93049 0.32885 0.93432 0.0
H613 H 0.03143 0.29736 0.92013 0.0
O614 O 0.02454 0.40542 0.9223 0.0
H615 H 0.11455 0.42228 0.82983 0.0
H616 H 0.0935 0.46402 0.90955 0.0
H617 H 0.11204 0.48102 0.8541 0.0
H618 H 0.12273 0.46011 0.81382 0.0
H619 H 0.09576 0.40582 0.88539 0.0
H620 H 0.15288 0.48182 0.98141 0.0
H621 H 0.13794 0.49818 0.02328 0.0
O622 O 0.05853 0.43296 0.9362 0.0
C623 C 0.04319 0.39035 0.99558 0.0
C624 C 0.10399 0.47401 0.01261 0.0
C625 C 0.1352 0.47447 0.98491 0.0
N626 N 0.09822 0.44643 0.97008 0.0
C627 C 0.08987 0.45527 0.99316 0.0
C628 C 0.12058 0.45572 0.96592 0.0
C629 C 0.1268 0.48365 0.00839 0.0
C630 C 0.03972 0.34768 0.89582 0.0
N631 N 0.02731 0.35046 0.92066 0.0
C632 C 0.0414 0.32857 0.89521 0.0
C633 C 0.03026 0.31224 0.92027 0.0
C634 C 0.0176 0.31518 0.94548 0.0
C635 C 0.01632 0.33452 0.9453 0.0
C636 C 0.9587 0.33187 0.90671 0.0
C637 C 0.98405 0.36715 0.95049 0.0
C638 C 0.98174 0.34377 0.90394 0.0
N639 N 0.99411 0.36108 0.92582 0.0
C640 C 0.96105 0.35569 0.95393 0.0
C641 C 0.94833 0.3379 0.93192 0.0
C642 C 0.03831 0.42574 0.92854 0.0
C643 C 0.11002 0.43157 0.8472 0.0
C644 C 0.09802 0.45479 0.89212 0.0
C645 C 0.10858 0.46453 0.86079 0.0
C646 C 0.11458 0.45279 0.83821 0.0
N647 N 0.0936 0.43398 0.90075 0.0
C648 C 0.09946 0.42238 0.87876 0.0
Co649 Co 0.65026 0.02816 0.2407 0.0
Co650 Co 0.65896 0.07764 0.27509 0.0
O651 O 0.66579 0.06048 0.24243 0.0
C652 C 0.64361 0.04019 0.16988 0.0
O653 O 0.63663 0.05267 0.18418 0.0
C654 C 0.7061 0.09287 0.28841 0.0
O655 O 0.70107 0.07207 0.2873 0.0
O656 O 0.65842 0.05918 0.31485 0.0
O657 O 0.65008 0.02614 0.29252 0.0
H658 H 0.61777 0.08755 0.37423 0.0
H659 H 0.69136 0.05416 0.19968 0.0
O660 O 0.65008 0.02952 0.18877 0.0
H661 H 0.70709 0.00835 0.27944 0.0
H662 H 0.63443 0.95512 0.19029 0.0
H663 H 0.61312 0.99178 0.27956 0.0
H664 H 0.67051 0.00573 0.27959 0.0
H665 H 0.65435 0.99579 0.19522 0.0
O666 O 0.69123 0.09805 0.28334 0.0
H667 H 0.62624 0.06631 0.33181 0.0
H668 H 0.67789 0.12589 0.28866 0.0
H669 H 0.59295 0.95104 0.27585 0.0
H670 H 0.72811 0.05718 0.19846 0.0
H671 H 0.60354 0.93245 0.23089 0.0
H672 H 0.73618 0.03422 0.23864 0.0
O673 O 0.6208 0.02626 0.24215 0.0
H674 H 0.6908 0.12252 0.16634 0.0
H675 H 0.62916 0.094 0.25033 0.0
H676 H 0.6293 0.11622 0.20029 0.0
H677 H 0.66032 0.13069 0.1579 0.0
H678 H 0.68987 0.10005 0.2166 0.0
H679 H 0.67007 0.14781 0.33077 0.0
H680 H 0.63978 0.12862 0.37388 0.0
O681 O 0.62665 0.05769 0.26773 0.0
C682 C 0.65398 0.0392 0.31814 0.0
C683 C 0.63096 0.09611 0.35549 0.0
C684 C 0.66034 0.12993 0.33113 0.0
N685 N 0.65242 0.09486 0.3076 0.0
C686 C 0.63579 0.08418 0.33133 0.0
C687 C 0.66471 0.11744 0.30739 0.0
C688 C 0.64333 0.11915 0.3553 0.0
C689 C 0.69469 0.04397 0.21701 0.0
N690 N 0.67879 0.02972 0.23957 0.0
C691 C 0.71555 0.04581 0.2163 0.0
C692 C 0.72008 0.03294 0.23888 0.0
C693 C 0.70377 0.01844 0.2618 0.0
C694 C 0.6831 0.01706 0.26181 0.0
C695 C 0.62971 0.96302 0.21006 0.0
C696 C 0.61799 0.9838 0.2602 0.0
C697 C 0.6409 0.98604 0.21296 0.0
N698 N 0.63504 0.99613 0.2379 0.0
C699 C 0.60644 0.96073 0.25811 0.0
C700 C 0.61238 0.95031 0.23285 0.0
C701 C 0.61393 0.03872 0.25448 0.0
C702 C 0.67721 0.11634 0.18466 0.0
C703 C 0.64264 0.10014 0.23191 0.0
C704 C 0.64267 0.11277 0.20368 0.0
C705 C 0.66009 0.1209 0.17992 0.0
N706 N 0.65951 0.09577 0.2364 0.0
C707 C 0.67664 0.10367 0.21322 0.0
H708 H 0.33998 0.34408 0.18279 0.0
H709 H 0.34687 0.33747 0.24261 0.0
H710 H 0.37814 0.4074 0.26413 0.0
H711 H 0.37096 0.41417 0.2043 0.0
H712 H 0.38465 0.35114 0.27693 0.0
H713 H 0.3684 0.41423 0.34907 0.0
H714 H 0.34609 0.43244 0.3422 0.0
H715 H 0.29831 0.37742 0.28181 0.0
H716 H 0.32017 0.35877 0.28873 0.0
H717 H 0.42298 0.36654 0.45343 0.0
H718 H 0.41592 0.37092 0.39232 0.0
H719 H 0.34581 0.33804 0.41316 0.0
H720 H 0.35271 0.33395 0.47417 0.0
H721 H 0.35848 0.3753 0.37894 0.0
H722 H 0.36893 0.31261 0.36729 0.0
H723 H 0.38867 0.29179 0.37407 0.0
H724 H 0.44289 0.34064 0.31356 0.0
H725 H 0.42359 0.36192 0.30683 0.0
C726 C 0.3482 0.35808 0.20026 0.0
C727 C 0.35487 0.37966 0.18883 0.0
C728 C 0.35223 0.35426 0.2344 0.0
C729 C 0.36296 0.37192 0.25781 0.0
C730 C 0.3696 0.39351 0.24656 0.0
C731 C 0.36548 0.39734 0.21239 0.0
C732 C 0.36716 0.36762 0.29396 0.0
C733 C 0.37897 0.35645 0.29927 0.0
C734 C 0.35952 0.37432 0.32302 0.0
C735 C 0.34606 0.38523 0.31912 0.0
C736 C 0.35309 0.40599 0.33444 0.0
C737 C 0.34053 0.41639 0.33052 0.0
C738 C 0.32083 0.40613 0.31148 0.0
C739 C 0.31361 0.38539 0.29644 0.0
C740 C 0.32609 0.37491 0.30032 0.0
C741 C 0.40605 0.35996 0.44486 0.0
C742 C 0.38842 0.35002 0.46864 0.0
C743 C 0.40204 0.36247 0.40995 0.0
C744 C 0.38034 0.35483 0.39824 0.0
C745 C 0.36269 0.3442 0.42172 0.0
C746 C 0.36667 0.3418 0.45655 0.0
C747 C 0.37596 0.35878 0.36198 0.0
C748 C 0.36422 0.37002 0.35664 0.0
C749 C 0.38331 0.35176 0.33292 0.0
C750 C 0.39491 0.33896 0.33685 0.0
C751 C 0.38514 0.319 0.35567 0.0
C752 C 0.39623 0.3071 0.35946 0.0
C753 C 0.41705 0.31491 0.34433 0.0
C754 C 0.42678 0.33462 0.32531 0.0
C755 C 0.41577 0.3466 0.32147 0.0
H756 H 0.42561 0.30568 0.34729 0.0
H757 H 0.31115 0.41422 0.30844 0.0
H758 H 0.9473 0.35774 0.54434 0.0
H759 H 0.96014 0.36547 0.60468 0.0
H760 H 0.0154 0.35674 0.57837 0.0
H761 H 0.00242 0.34848 0.51832 0.0
H762 H 0.99901 0.33796 0.63814 0.0
H763 H 0.02161 0.40854 0.58754 0.0
H764 H 0.01689 0.43653 0.55549 0.0
H765 H 0.97156 0.43388 0.63352 0.0
H766 H 0.97575 0.40562 0.66578 0.0
H767 H 0.05515 0.42005 0.79367 0.0
H768 H 0.04583 0.41332 0.7317 0.0
H769 H 0.98985 0.34945 0.75643 0.0
H770 H 0.99926 0.35578 0.81802 0.0
H771 H 0.01061 0.40665 0.69562 0.0
H772 H 0.98176 0.31275 0.69364 0.0
H773 H 0.99027 0.28667 0.72377 0.0
H774 H 0.05561 0.33975 0.7472 0.0
H775 H 0.04762 0.36608 0.71677 0.0
C776 C 0.96212 0.35736 0.55145 0.0
C777 C 0.9739 0.35261 0.52652 0.0
C778 C 0.9695 0.36189 0.5859 0.0
C779 C 0.98894 0.36205 0.5959 0.0
C780 C 0.00039 0.35676 0.57123 0.0
C781 C 0.99295 0.35206 0.53689 0.0
C782 C 0.99743 0.36783 0.63201 0.0
C783 C 0.00154 0.35298 0.6507 0.0
C784 C 0.00129 0.3877 0.64811 0.0
C785 C 0.99885 0.40482 0.62892 0.0
C786 C 0.01051 0.41381 0.59774 0.0
C787 C 0.00795 0.42974 0.57955 0.0
C788 C 0.9939 0.43694 0.59242 0.0
C789 C 0.98242 0.42827 0.62356 0.0
C790 C 0.9849 0.41231 0.64182 0.0
C791 C 0.04089 0.40455 0.78586 0.0
C792 C 0.02802 0.3884 0.81073 0.0
C793 C 0.03556 0.40076 0.75048 0.0
C794 C 0.01731 0.38077 0.73942 0.0
C795 C 0.00426 0.36481 0.76429 0.0
C796 C 0.00964 0.3685 0.79954 0.0
C797 C 0.0117 0.37654 0.70194 0.0
C798 C 0.00813 0.39166 0.68301 0.0
C799 C 0.0089 0.35721 0.6853 0.0
C800 C 0.014 0.34141 0.70318 0.0
C801 C 0.99798 0.31883 0.70506 0.0
C802 C 0.00271 0.30401 0.72223 0.0
C803 C 0.02344 0.31156 0.73748 0.0
C804 C 0.03953 0.33394 0.73548 0.0
C805 C 0.0349 0.34882 0.71831 0.0
H806 H 0.02706 0.30007 0.75079 0.0
H807 H 0.99193 0.44927 0.5783 0.0
H808 H 0.57841 0.96989 0.8573 0.0
H809 H 0.58381 0.98332 0.91758 0.0
H810 H 0.64789 0.98822 0.91944 0.0
H811 H 0.64294 0.97556 0.85883 0.0
H812 H 0.61693 0.96634 0.98073 0.0
H813 H 0.64959 0.03119 0.90615 0.0
H814 H 0.64877 0.05465 0.8589 0.0
H815 H 0.59858 0.06122 0.91316 0.0
H816 H 0.59847 0.03708 0.96012 0.0
H817 H 0.66694 0.02676 0.1303 0.0
H818 H 0.66069 0.01552 0.06929 0.0
H819 H 0.60922 0.03252 0.06333 0.0
H820 H 0.61608 0.0447 0.12418 0.0
H821 H 0.63104 0.04228 0.00405 0.0
H822 H 0.59712 0.97907 0.07779 0.0
H823 H 0.59547 0.95503 0.12614 0.0
H824 H 0.64398 0.94415 0.07526 0.0
H825 H 0.64626 0.96849 0.0269 0.0
C826 C 0.59351 0.97358 0.87076 0.0
C827 C 0.61028 0.9717 0.85359 0.0
C828 C 0.59659 0.98131 0.90503 0.0
C829 C 0.61626 0.98677 0.92271 0.0
C830 C 0.63262 0.98406 0.90608 0.0
C831 C 0.6298 0.97688 0.87157 0.0
C832 C 0.62019 0.99605 0.95821 0.0
C833 C 0.62021 0.98299 0.9859 0.0
C834 C 0.62371 0.01751 0.96479 0.0
C835 C 0.62375 0.03198 0.93641 0.0
C836 C 0.63809 0.03729 0.90775 0.0
C837 C 0.63782 0.05076 0.88101 0.0
C838 C 0.62353 0.05931 0.88291 0.0
C839 C 0.60956 0.0545 0.91162 0.0
C840 C 0.6096 0.04085 0.93824 0.0
C841 C 0.65452 0.02841 0.11582 0.0
C842 C 0.64181 0.03634 0.13201 0.0
C843 C 0.65088 0.02188 0.08103 0.0
C844 C 0.63405 0.02258 0.06205 0.0
C845 C 0.62218 0.03168 0.07758 0.0
C846 C 0.62611 0.03863 0.11231 0.0
C847 C 0.62815 0.01271 0.02674 0.0
C848 C 0.62765 0.02558 -0.00095 0.0
C849 C 0.62372 0.99088 0.02022 0.0
C850 C 0.62199 0.97576 0.04883 0.0
C851 C 0.60752 0.97164 0.07699 0.0
C852 C 0.60648 0.95797 0.10441 0.0
C853 C 0.61964 0.9481 0.1038 0.0
C854 C 0.63381 0.95183 0.07571 0.0
C855 C 0.63498 0.96555 0.04827 0.0
H856 H 0.61882 0.93754 0.12506 0.0
H857 H 0.62336 0.06975 0.86222 0.0
H858 H 0.64211 0.64045 0.17516 0.0
H859 H 0.63786 0.64664 0.2362 0.0
H860 H 0.63763 0.58659 0.26371 0.0
H861 H 0.64133 0.57987 0.20199 0.0
H862 H 0.6068 0.59009 0.29953 0.0
H863 H 0.68359 0.63661 0.27732 0.0
H864 H 0.71662 0.66439 0.24569 0.0
H865 H 0.69769 0.71333 0.26417 0.0
H866 H 0.66435 0.68575 0.29548 0.0
H867 H 0.65309 0.65513 0.47243 0.0
H868 H 0.65869 0.64659 0.41322 0.0
H869 H 0.59209 0.63008 0.38661 0.0
H870 H 0.58608 0.63806 0.44642 0.0
H871 H 0.6587 0.6628 0.35258 0.0
H872 H 0.57094 0.58756 0.32828 0.0
H873 H 0.54028 0.55823 0.36226 0.0
H874 H 0.58598 0.56366 0.44181 0.0
H875 H 0.61693 0.59274 0.40806 0.0
C876 C 0.64125 0.62855 0.1941 0.0
C877 C 0.64226 0.60974 0.1838 0.0
C878 C 0.63885 0.63215 0.22904 0.0
C879 C 0.63781 0.61728 0.25452 0.0
C880 C 0.63849 0.5983 0.24439 0.0
C881 C 0.64067 0.59453 0.20921 0.0
C882 C 0.63606 0.62182 0.29165 0.0
C883 C 0.61818 0.60594 0.31122 0.0
C884 C 0.65121 0.64232 0.30706 0.0
C885 C 0.67138 0.65906 0.28855 0.0
C886 C 0.68639 0.65326 0.27446 0.0
C887 C 0.70518 0.66897 0.2566 0.0
C888 C 0.70923 0.6906 0.25287 0.0
C889 C 0.69452 0.69657 0.26707 0.0
C890 C 0.67569 0.68091 0.28492 0.0
C891 C 0.63962 0.64981 0.45401 0.0
C892 C 0.61905 0.6471 0.4642 0.0
C893 C 0.64289 0.64496 0.42012 0.0
C894 C 0.62572 0.63738 0.39569 0.0
C895 C 0.60542 0.63549 0.40532 0.0
C896 C 0.60206 0.6402 0.4394 0.0
C897 C 0.62912 0.6313 0.36026 0.0
C898 C 0.64735 0.64691 0.34099 0.0
C899 C 0.61468 0.6103 0.34559 0.0
C900 C 0.59621 0.5925 0.36577 0.0
C901 C 0.57445 0.58242 0.35293 0.0
C902 C 0.55703 0.56584 0.37217 0.0
C903 C 0.56117 0.55914 0.40422 0.0
C904 C 0.58277 0.56892 0.41704 0.0
C905 C 0.60026 0.58546 0.39787 0.0
H906 H 0.54765 0.54634 0.4191 0.0
H907 H 0.72378 0.70274 0.23902 0.0
H908 H 0.00745 0.65382 0.81048 0.0
H909 H 0.02007 0.65788 0.75027 0.0
H910 H 0.96653 0.59227 0.72702 0.0
H911 H 0.95398 0.58787 0.78747 0.0
H912 H 0.00461 0.599 0.69889 0.0
H913 H 0.96389 0.6379 0.70341 0.0
H914 H 0.95475 0.66538 0.72632 0.0
H915 H 0.02024 0.71779 0.70175 0.0
H916 H 0.02986 0.69058 0.67913 0.0
H917 H 0.00213 0.64035 0.51176 0.0
H918 H 0.99248 0.63597 0.57321 0.0
H919 H 0.05111 0.63257 0.59722 0.0
H920 H 0.06061 0.63631 0.53519 0.0
H921 H 0.01203 0.66106 0.62605 0.0
H922 H 0.04454 0.60416 0.66619 0.0
H923 H 0.04908 0.57349 0.64375 0.0
H924 H 0.99231 0.55257 0.57803 0.0
H925 H 0.98792 0.58353 0.59914 0.0
C926 C 0.99829 0.64025 0.79257 0.0
C927 C 0.97965 0.62054 0.8037 0.0
C928 C 0.00554 0.64262 0.75816 0.0
C929 C 0.99413 0.62545 0.73415 0.0
C930 C 0.97558 0.6057 0.7452 0.0
C931 C 0.96838 0.60326 0.77969 0.0
C932 C 0.0014 0.62812 0.69739 0.0
C933 C 0.00629 0.6126 0.68297 0.0
C934 C 0.00348 0.6458 0.67661 0.0
C935 C 0.99766 0.66219 0.6899 0.0
C936 C 0.97639 0.65528 0.70312 0.0
C937 C 0.97111 0.6708 0.71602 0.0
C938 C 0.98692 0.69331 0.71557 0.0
C939 C 0.00802 0.70035 0.70213 0.0
C940 C 0.01339 0.68488 0.68924 0.0
C941 C 0.01301 0.63864 0.53002 0.0
C942 C 0.03217 0.6387 0.51859 0.0
C943 C 0.00745 0.63615 0.56522 0.0
C944 C 0.02096 0.63379 0.58986 0.0
C945 C 0.04021 0.63396 0.57861 0.0
C946 C 0.0457 0.63624 0.5432 0.0
C947 C 0.01495 0.63174 0.62727 0.0
C948 C 0.01049 0.64752 0.64198 0.0
C949 C 0.01284 0.61409 0.64813 0.0
C950 C 0.01607 0.59622 0.63394 0.0
C951 C 0.03319 0.59312 0.64665 0.0
C952 C 0.0358 0.57577 0.63403 0.0
C953 C 0.02114 0.56124 0.60912 0.0
C954 C 0.0039 0.56408 0.59674 0.0
C955 C 0.00143 0.5816 0.60885 0.0
H956 H 0.02304 0.54769 0.59959 0.0
H957 H 0.98281 0.7053 0.72558 0.0
H958 H 0.34619 0.94442 0.12321 0.0
H959 H 0.35101 0.95607 0.0622 0.0
H960 H 0.37469 0.02351 0.0947 0.0
H961 H 0.36849 0.01162 0.1554 0.0
H962 H 0.34966 0.01653 0.04439 0.0
H963 H 0.41037 0.00355 0.06019 0.0
H964 H 0.42949 0.98315 0.07596 0.0
H965 H 0.38969 0.9321 0.00272 0.0
H966 H 0.37044 0.95231 0.98626 0.0
H967 H 0.40508 0.06426 0.88008 0.0
H968 H 0.39852 0.05273 0.9414 0.0
H969 H 0.34905 0.98693 0.91028 0.0
H970 H 0.355 0.99837 0.8492 0.0
H971 H 0.38722 0.99341 0.95845 0.0
H972 H 0.3283 0.0106 0.94239 0.0
H973 H 0.31395 0.03517 0.92554 0.0
H974 H 0.35623 0.08311 0.00106 0.0
H975 H 0.37108 0.05894 0.01798 0.0
C976 C 0.35247 0.96172 0.11719 0.0
C977 C 0.35695 0.97713 0.14387 0.0
C978 C 0.35539 0.96842 0.08235 0.0
C979 C 0.36359 0.99079 0.0737 0.0
C980 C 0.36828 0.00617 0.10055 0.0
C981 C 0.36478 0.99938 0.13525 0.0
C982 C 0.36666 0.99812 0.03675 0.0
C983 C 0.35817 0.01166 0.02585 0.0
C984 C 0.37751 0.99167 0.01216 0.0
C985 C 0.38881 0.97932 0.02229 0.0
C986 C 0.40558 0.98789 0.04766 0.0
C987 C 0.41647 0.97638 0.05667 0.0
C988 C 0.41069 0.95625 0.04058 0.0
C989 C 0.39411 0.94766 0.01524 0.0
C990 C 0.38326 0.95917 0.00595 0.0
C991 C 0.39265 0.04742 0.88639 0.0
C992 C 0.38052 0.03222 0.85995 0.0
C993 C 0.38894 0.04088 0.9213 0.0
C994 C 0.37336 0.01901 0.93009 0.0
C995 C 0.36113 0.00387 0.90382 0.0
C996 C 0.36448 0.01049 0.86903 0.0
C997 C 0.37031 0.01167 0.96667 0.0
C998 C 0.37879 0.99818 0.9773 0.0
C999 C 0.36001 0.01864 0.99116 0.0
C1000 C 0.35097 0.03308 0.98116 0.0
C1001 C 0.3347 0.02648 0.95516 0.0
C1002 C 0.32644 0.04031 0.94565 0.0
C1003 C 0.33422 0.06072 0.96215 0.0
C1004 C 0.35024 0.06731 0.98826 0.0
C1005 C 0.35857 0.05355 -0.00216 0.0
H1006 H 0.32781 0.07141 0.95475 0.0
H1007 H 0.41914 0.94736 0.04763 0.0
H1008 H 0.13742 0.41704 0.95981 0.0
H1009 H 0.16698 0.40892 0.96983 0.0
H1010 H 0.11903 0.33971 0.98281 0.0
H1011 H 0.08899 0.34781 0.97335 0.0
H1012 H 0.15092 0.35378 0.03209 0.0
H1013 H 0.14959 0.35673 0.90912 0.0
H1014 H 0.1479 0.37132 0.85144 0.0
H1015 H 0.20978 0.43045 0.87118 0.0
H1016 H 0.21169 0.41638 0.92922 0.0
H1017 H 0.24986 0.34294 0.03354 0.0
H1018 H 0.21331 0.337 0.01654 0.0
H1019 H 0.24018 0.40757 0.01043 0.0
H1020 H 0.27639 0.41367 0.02763 0.0
H1021 H 0.21492 0.38341 0.95123 0.0
H1022 H 0.21143 0.38193 0.07836 0.0
H1023 H 0.21265 0.36689 0.13591 0.0
H1024 H 0.15911 0.30314 0.10611 0.0
H1025 H 0.15779 0.31777 0.04817 0.0
C1026 C 0.13304 0.40004 0.96464 0.0
C1027 C 0.11081 0.38305 0.96564 0.0
C1028 C 0.15002 0.39541 0.97021 0.0
C1029 C 0.14524 0.37365 0.97643 0.0
C1030 C 0.12307 0.3566 0.97782 0.0
C1031 C 0.10596 0.36125 0.97237 0.0
C1032 C 0.16367 0.36923 0.98231 0.0
C1033 C 0.16468 0.35974 0.01401 0.0
C1034 C 0.18163 0.37702 0.95873 0.0
C1035 C 0.18073 0.38551 0.92363 0.0
C1036 C 0.16278 0.3729 0.90126 0.0
C1037 C 0.16179 0.38107 0.86848 0.0
C1038 C 0.17871 0.4018 0.85767 0.0
C1039 C 0.19669 0.41438 0.87959 0.0
C1040 C 0.19775 0.4063 0.91241 0.0
C1041 C 0.24791 0.35716 0.02865 0.0
C1042 C 0.26599 0.37877 0.03196 0.0
C1043 C 0.22707 0.35373 0.01899 0.0
C1044 C 0.22415 0.37187 0.01215 0.0
C1045 C 0.24216 0.39338 0.01545 0.0
C1046 C 0.26282 0.39681 0.02549 0.0
C1047 C 0.20246 0.36886 0.00149 0.0
C1048 C 0.20088 0.37692 0.96882 0.0
C1049 C 0.18395 0.35957 0.02398 0.0
C1050 C 0.18471 0.35085 0.05881 0.0
C1051 C 0.20006 0.36465 0.08397 0.0
C1052 C 0.20074 0.35622 0.11668 0.0
C1053 C 0.18602 0.33405 0.12462 0.0
C1054 C 0.17054 0.32029 0.0999 0.0
C1055 C 0.16981 0.32865 0.06713 0.0
H1056 H 0.18656 0.32755 0.14996 0.0
H1057 H 0.17791 0.40811 0.83229 0.0
H1058 H 0.9077 0.25103 0.36019 0.0
H1059 H 0.87673 0.21379 0.34824 0.0
H1060 H 0.83066 0.23678 0.36746 0.0
H1061 H 0.86121 0.27362 0.37998 0.0
H1062 H 0.81675 0.19793 0.39759 0.0
H1063 H 0.84595 0.23053 0.28418 0.0
H1064 H 0.87501 0.24734 0.23926 0.0
H1065 H 0.88207 0.18966 0.23956 0.0
H1066 H 0.85322 0.17262 0.28483 0.0
H1067 H 0.71966 0.13574 0.30452 0.0
H1068 H 0.75639 0.16446 0.32242 0.0
H1069 H 0.78079 0.11895 0.31109 0.0
H1070 H 0.74372 0.08974 0.29319 0.0
H1071 H 0.80881 0.16322 0.28174 0.0
H1072 H 0.77372 0.12838 0.38852 0.0
H1073 H 0.7432 0.11218 0.43108 0.0
H1074 H 0.74627 0.17489 0.44186 0.0
H1075 H 0.77658 0.19139 0.39892 0.0
C1076 C 0.89095 0.24809 0.36197 0.0
C1077 C 0.88693 0.26532 0.37089 0.0
C1078 C 0.87329 0.22683 0.35507 0.0
C1079 C 0.85138 0.22255 0.35673 0.0
C1080 C 0.84741 0.23966 0.36615 0.0
C1081 C 0.86495 0.26078 0.37317 0.0
C1082 C 0.83234 0.2005 0.34803 0.0
C1083 C 0.81505 0.19035 0.37227 0.0
C1084 C 0.83037 0.19022 0.31539 0.0
C1085 C 0.84766 0.20044 0.28818 0.0
C1086 C 0.85383 0.22152 0.27486 0.0
C1087 C 0.87024 0.23107 0.24931 0.0
C1088 C 0.88043 0.21961 0.23665 0.0
C1089 C 0.8742 0.19854 0.24945 0.0
C1090 C 0.85782 0.18893 0.27504 0.0
C1091 C 0.73279 0.13176 0.30562 0.0
C1092 C 0.72874 0.1104 0.29759 0.0
C1093 C 0.75377 0.14821 0.31598 0.0
C1094 C 0.77117 0.14371 0.3184 0.0
C1095 C 0.76747 0.12264 0.30948 0.0
C1096 C 0.74632 0.10601 0.29938 0.0
C1097 C 0.79303 0.16126 0.33082 0.0
C1098 C 0.8108 0.17052 0.30737 0.0
C1099 C 0.79541 0.17086 0.3641 0.0
C1100 C 0.77737 0.16109 0.39035 0.0
C1101 C 0.7678 0.13869 0.39979 0.0
C1102 C 0.75054 0.12945 0.42401 0.0
C1103 C 0.74278 0.14249 0.43913 0.0
C1104 C 0.75231 0.16481 0.43013 0.0
C1105 C 0.76955 0.17412 0.40589 0.0
H1106 H 0.72941 0.13531 0.45786 0.0
H1107 H 0.89313 0.22703 0.21687 0.0
H1108 H 0.65394 0.90791 0.70372 0.0
H1109 H 0.66073 0.87717 0.69294 0.0
H1110 H 0.5905 0.83272 0.68162 0.0
H1111 H 0.5836 0.86296 0.6933 0.0
H1112 H 0.6076 0.8139 0.71913 0.0
H1113 H 0.62724 0.85571 0.61074 0.0
H1114 H 0.64862 0.88932 0.57528 0.0
H1115 H 0.70903 0.89138 0.6044 0.0
H1116 H 0.68799 0.85793 0.64043 0.0
H1117 H 0.58832 0.72563 0.61448 0.0
H1118 H 0.59433 0.7616 0.63266 0.0
H1119 H 0.66258 0.78297 0.65568 0.0
H1120 H 0.65673 0.74667 0.63745 0.0
H1121 H 0.65404 0.81556 0.62 0.0
H1122 H 0.63219 0.76936 0.72134 0.0
H1123 H 0.60931 0.73474 0.75376 0.0
H1124 H 0.55164 0.74039 0.73557 0.0
H1125 H 0.57411 0.77487 0.70255 0.0
C1126 C 0.63998 0.89155 0.699 0.0
C1127 C 0.61824 0.88786 0.69929 0.0
C1128 C 0.64388 0.87403 0.69276 0.0
C1129 C 0.62613 0.85267 0.68617 0.0
C1130 C 0.60446 0.84902 0.68679 0.0
C1131 C 0.60054 0.86638 0.69338 0.0
C1132 C 0.62971 0.83389 0.67818 0.0
C1133 C 0.61777 0.81432 0.69744 0.0
C1134 C 0.64351 0.83458 0.65056 0.0
C1135 C 0.65609 0.8545 0.62859 0.0
C1136 C 0.6451 0.86343 0.60975 0.0
C1137 C 0.65715 0.88244 0.58953 0.0
C1138 C 0.68019 0.89253 0.58768 0.0
C1139 C 0.6912 0.88358 0.60592 0.0
C1140 C 0.67922 0.86459 0.62624 0.0
C1141 C 0.6047 0.73795 0.6231 0.0
C1142 C 0.622 0.73318 0.62491 0.0
C1143 C 0.60808 0.75852 0.63348 0.0
C1144 C 0.6288 0.77476 0.64589 0.0
C1145 C 0.64645 0.77055 0.64626 0.0
C1146 C 0.64305 0.74982 0.63596 0.0
C1147 C 0.63125 0.79554 0.66011 0.0
C1148 C 0.64432 0.8154 0.64215 0.0
C1149 C 0.61834 0.79513 0.68876 0.0
C1150 C 0.60484 0.77466 0.70933 0.0
C1151 C 0.61461 0.76317 0.7241 0.0
C1152 C 0.60171 0.74357 0.74259 0.0
C1153 C 0.57903 0.73536 0.74669 0.0
C1154 C 0.56921 0.74677 0.73239 0.0
C1155 C 0.58203 0.76637 0.71383 0.0
H1156 H 0.56907 0.72016 0.76097 0.0
H1157 H 0.68952 0.90726 0.57207 0.0
H1158 H 0.71705 0.58174 0.00345 0.0
H1159 H 0.75444 0.5894 0.99126 0.0
H1160 H 0.78048 0.65753 0.02156 0.0
H1161 H 0.74266 0.65008 0.03264 0.0
H1162 H 0.8027 0.65485 0.96648 0.0
H1163 H 0.78282 0.62086 0.07787 0.0
H1164 H 0.75881 0.59325 0.12135 0.0
H1165 H 0.76124 0.54195 0.06328 0.0
H1166 H 0.78497 0.56918 0.01913 0.0
H1167 H 0.90931 0.65817 0.97211 0.0
H1168 H 0.87734 0.66215 0.98789 0.0
H1169 H 0.83325 0.59537 0.95348 0.0
H1170 H 0.86469 0.59123 0.93775 0.0
H1171 H 0.82424 0.60373 0.02024 0.0
H1172 H 0.84055 0.63844 0.90538 0.0
H1173 H 0.86462 0.66673 0.86274 0.0
H1174 H 0.87017 0.71806 0.93083 0.0
H1175 H 0.84636 0.69005 0.97409 0.0
C1176 C 0.7307 0.59839 0.00744 0.0
C1177 C 0.727 0.61526 0.01942 0.0
C1178 C 0.75209 0.60274 0.00055 0.0
C1179 C 0.77031 0.6239 0.0064 0.0
C1180 C 0.76666 0.64104 0.01716 0.0
C1181 C 0.7451 0.63676 0.02351 0.0
C1182 C 0.79303 0.6276 0.00199 0.0
C1183 C 0.8076 0.64397 0.97876 0.0
C1184 C 0.79951 0.61349 0.01816 0.0
C1185 C 0.78563 0.59709 0.0451 0.0
C1186 C 0.77817 0.60368 0.0743 0.0
C1187 C 0.7646 0.58809 0.09906 0.0
C1188 C 0.75849 0.56586 0.09506 0.0
C1189 C 0.766 0.55918 0.06635 0.0
C1190 C 0.77954 0.5747 0.04147 0.0
C1191 C 0.89278 0.64444 0.9676 0.0
C1192 C 0.88956 0.62432 0.95396 0.0
C1193 C 0.87458 0.64676 0.97659 0.0
C1194 C 0.85297 0.62899 0.97201 0.0
C1195 C 0.8498 0.6092 0.95747 0.0
C1196 C 0.86784 0.6069 0.94844 0.0
C1197 C 0.83339 0.63023 0.98355 0.0
C1198 C 0.81948 0.61486 0.00844 0.0
C1199 C 0.82773 0.64542 0.96923 0.0
C1200 C 0.84191 0.66218 0.94313 0.0
C1201 C 0.84707 0.65577 0.91138 0.0
C1202 C 0.86062 0.67175 0.88708 0.0
C1203 C 0.86898 0.69418 0.89412 0.0
C1204 C 0.86372 0.70068 0.92544 0.0
C1205 C 0.85019 0.68476 0.94984 0.0
H1206 H 0.87947 0.70653 0.87527 0.0
H1207 H 0.74796 0.55381 0.11424 0.0
H1208 H 0.13802 0.72029 0.35723 0.0
H1209 H 0.16742 0.75816 0.34807 0.0
H1210 H 0.12023 0.78079 0.3545 0.0
H1211 H 0.09028 0.74245 0.36298 0.0
H1212 H 0.14959 0.80144 0.30232 0.0
H1213 H 0.15457 0.78949 0.42257 0.0
H1214 H 0.15539 0.76942 0.47487 0.0
H1215 H 0.21504 0.77246 0.43864 0.0
H1216 H 0.21441 0.79224 0.38584 0.0
H1217 H 0.25085 0.91004 0.30492 0.0
H1218 H 0.21442 0.87904 0.32158 0.0
H1219 H 0.23938 0.83397 0.31061 0.0
H1220 H 0.27538 0.86441 0.29391 0.0
H1221 H 0.21755 0.82991 0.37411 0.0
H1222 H 0.2076 0.83611 0.24933 0.0
H1223 H 0.20626 0.85606 0.19721 0.0
H1224 H 0.15548 0.86492 0.24456 0.0
H1225 H 0.15675 0.84526 0.29717 0.0
C1226 C 0.13379 0.73326 0.35683 0.0
C1227 C 0.11181 0.72836 0.36114 0.0
C1228 C 0.15068 0.75496 0.35169 0.0
C1229 C 0.14611 0.77238 0.35135 0.0
C1230 C 0.12413 0.7676 0.35494 0.0
C1231 C 0.10707 0.74572 0.35982 0.0
C1232 C 0.16458 0.79541 0.34694 0.0
C1233 C 0.16426 0.80792 0.31852 0.0
C1234 C 0.18372 0.80392 0.36813 0.0
C1235 C 0.18439 0.79231 0.40015 0.0
C1236 C 0.16781 0.78579 0.42566 0.0
C1237 C 0.16824 0.77446 0.4554 0.0
C1238 C 0.18524 0.76965 0.46006 0.0
C1239 C 0.20189 0.77621 0.43501 0.0
C1240 C 0.20152 0.78752 0.40519 0.0
C1241 C 0.24849 0.89349 0.30589 0.0
C1242 C 0.26605 0.88973 0.29819 0.0
C1243 C 0.2277 0.87584 0.31537 0.0
C1244 C 0.2243 0.85428 0.31746 0.0
C1245 C 0.24172 0.85052 0.30936 0.0
C1246 C 0.2623 0.86798 0.29966 0.0
C1247 C 0.20288 0.83534 0.32863 0.0
C1248 C 0.20266 0.82367 0.35848 0.0
C1249 C 0.18326 0.82777 0.30898 0.0
C1250 C 0.18248 0.83949 0.27733 0.0
C1251 C 0.1963 0.8425 0.24875 0.0
C1252 C 0.19552 0.85371 0.21909 0.0
C1253 C 0.18085 0.86182 0.21762 0.0
C1254 C 0.16687 0.85867 0.24576 0.0
C1255 C 0.16761 0.84749 0.27549 0.0
H1256 H 0.18026 0.87049 0.19464 0.0
H1257 H 0.18554 0.76086 0.48309 0.0
H1258 H 0.41705 0.13908 0.701 0.0
H1259 H 0.40932 0.16894 0.6916 0.0
H1260 H 0.33997 0.12162 0.67827 0.0
H1261 H 0.34767 0.09122 0.68724 0.0
H1262 H 0.35511 0.15547 0.63014 0.0
H1263 H 0.35617 0.14956 0.75287 0.0
H1264 H 0.37005 0.1454 0.80976 0.0
H1265 H 0.42994 0.20741 0.7949 0.0
H1266 H 0.4166 0.21179 0.73765 0.0
H1267 H 0.34729 0.2559 0.63469 0.0
H1268 H 0.33983 0.21853 0.64979 0.0
H1269 H 0.40986 0.2435 0.66124 0.0
H1270 H 0.41745 0.28051 0.64609 0.0
H1271 H 0.38421 0.21641 0.71673 0.0
H1272 H 0.38505 0.21749 0.58941 0.0
H1273 H 0.37127 0.22121 0.53211 0.0
H1274 H 0.30646 0.16769 0.55721 0.0
H1275 H 0.31982 0.16387 0.61489 0.0
C1276 C 0.40011 0.13489 0.6961 0.0
C1277 C 0.38293 0.11273 0.69516 0.0
C1278 C 0.39571 0.15204 0.69084 0.0
C1279 C 0.37401 0.14752 0.68496 0.0
C1280 C 0.35682 0.12543 0.68305 0.0
C1281 C 0.36124 0.10812 0.68819 0.0
C1282 C 0.3698 0.16622 0.6809 0.0
C1283 C 0.36092 0.16855 0.64944 0.0
C1284 C 0.3774 0.18328 0.7061 0.0
C1285 C 0.38538 0.18097 0.74086 0.0
C1286 C 0.37235 0.16227 0.76165 0.0
C1287 C 0.38013 0.15987 0.79397 0.0
C1288 C 0.40087 0.17612 0.80593 0.0
C1289 C 0.41386 0.19484 0.78562 0.0
C1290 C 0.40618 0.19731 0.75325 0.0
C1291 C 0.36106 0.25337 0.64048 0.0
C1292 C 0.38296 0.27113 0.63914 0.0
C1293 C 0.35677 0.23206 0.64903 0.0
C1294 C 0.37431 0.22833 0.65665 0.0
C1295 C 0.3961 0.24607 0.65559 0.0
C1296 C 0.4004 0.26721 0.64672 0.0
C1297 C 0.37045 0.20603 0.66544 0.0
C1298 C 0.37779 0.20304 0.69789 0.0
C1299 C 0.3613 0.18836 0.64129 0.0
C1300 C 0.35335 0.1906 0.60659 0.0
C1301 C 0.36781 0.20666 0.58282 0.0
C1302 C 0.36009 0.20875 0.55026 0.0
C1303 C 0.33798 0.19475 0.54107 0.0
C1304 C 0.32357 0.17856 0.56439 0.0
C1305 C 0.3312 0.17642 0.59701 0.0
H1306 H 0.33203 0.19639 0.51585 0.0
H1307 H 0.40688 0.17422 0.83094 0.0
H1308 H 0.39455 0.33327 0.71849 0.0
H1309 H 0.38336 0.33882 0.77635 0.0
H1310 H 0.35961 0.37978 0.73174 0.0
H1311 H 0.37046 0.37419 0.67389 0.0
H1312 H 0.38628 0.39763 0.79271 0.0
H1313 H 0.32309 0.33089 0.75186 0.0
H1314 H 0.30403 0.29332 0.72691 0.0
H1315 H 0.32457 0.26929 0.81393 0.0
H1316 H 0.3441 0.30683 0.83911 0.0
H1317 H 0.33376 0.40326 0.94732 0.0
H1318 H 0.33901 0.39693 0.88628 0.0
H1319 H 0.3541 0.34653 0.91738 0.0
H1320 H 0.3483 0.35219 0.978 0.0
H1321 H 0.32963 0.33394 0.86074 0.0
H1322 H 0.39499 0.39997 0.89956 0.0
H1323 H 0.41542 0.43737 0.92503 0.0
H1324 H 0.39251 0.46255 0.84275 0.0
H1325 H 0.37167 0.4252 0.81707 0.0
C1326 C 0.38699 0.34349 0.721 0.0
C1327 C 0.38332 0.35321 0.69159 0.0
C1328 C 0.38057 0.34659 0.754 0.0
C1329 C 0.37059 0.35961 0.75811 0.0
C1330 C 0.36729 0.36967 0.72898 0.0
C1331 C 0.37342 0.36636 0.69596 0.0
C1332 C 0.36338 0.36255 0.79284 0.0
C1333 C 0.37367 0.3838 0.80746 0.0
C1334 C 0.3472 0.34438 0.81208 0.0
C1335 C 0.33523 0.32173 0.79721 0.0
C1336 C 0.3237 0.31764 0.76554 0.0
C1337 C 0.31278 0.29634 0.75137 0.0
C1338 C 0.31313 0.27894 0.76878 0.0
C1339 C 0.32434 0.28279 0.80045 0.0
C1340 C 0.33532 0.30408 0.8147 0.0
C1341 C 0.33796 0.39066 0.94113 0.0
C1342 C 0.34079 0.37838 0.96764 0.0
C1343 C 0.34104 0.38713 0.90625 0.0
C1344 C 0.34729 0.3715 0.89736 0.0
C1345 C 0.34931 0.35869 0.92364 0.0
C1346 C 0.34606 0.36205 0.95838 0.0
C1347 C 0.35274 0.36902 0.86098 0.0
C1348 C 0.34212 0.34784 0.84597 0.0
C1349 C 0.3688 0.38724 0.84151 0.0
C1350 C 0.38158 0.40976 0.85662 0.0
C1351 C 0.3942 0.41346 0.88703 0.0
C1352 C 0.40586 0.43465 0.90149 0.0
C1353 C 0.40521 0.45232 0.88558 0.0
C1354 C 0.39296 0.44884 0.85508 0.0
C1355 C 0.38123 0.42767 0.84055 0.0
H1356 H 0.41423 0.4687 0.89682 0.0
H1357 H 0.30467 0.26246 0.75777 0.0
H1358 H 0.98625 0.33072 0.31166 0.0
H1359 H 0.00051 0.33975 0.25239 0.0
H1360 H 0.95608 0.36443 0.23063 0.0
H1361 H 0.94108 0.35459 0.28966 0.0
H1362 H 0.95889 0.34449 0.17601 0.0
H1363 H 0.01103 0.39909 0.25236 0.0
H1364 H 0.03585 0.41391 0.30313 0.0
H1365 H 0.07493 0.38685 0.26395 0.0
H1366 H 0.04999 0.37128 0.21345 0.0
H1367 H 0.05578 0.41958 0.0497 0.0
H1368 H 0.04075 0.41187 0.10898 0.0
H1369 H 0.00184 0.34241 0.08396 0.0
H1370 H 0.01601 0.35018 0.02455 0.0
H1371 H 0.04042 0.3893 0.16215 0.0
H1372 H 0.95266 0.31869 0.12208 0.0
H1373 H 0.92793 0.30808 0.07108 0.0
H1374 H 0.95993 0.37587 0.0378 0.0
H1375 H 0.98462 0.38692 0.08883 0.0
C1376 C 0.97931 0.33781 0.29414 0.0
C1377 C 0.96268 0.34212 0.3054 0.0
C1378 C 0.98758 0.3431 0.26032 0.0
C1379 C 0.9798 0.35333 0.23736 0.0
C1380 C 0.96244 0.35668 0.24798 0.0
C1381 C 0.95386 0.35102 0.2817 0.0
C1382 C 0.99023 0.36102 0.20268 0.0
C1383 C 0.97671 0.3543 0.173 0.0
C1384 C 0.01346 0.37449 0.19877 0.0
C1385 C 0.02853 0.38387 0.22917 0.0
C1386 C 0.02481 0.39613 0.25469 0.0
C1387 C 0.03891 0.40468 0.28342 0.0
C1388 C 0.05699 0.40139 0.28668 0.0
C1389 C 0.06093 0.38941 0.26135 0.0
C1390 C 0.0468 0.38069 0.23268 0.0
C1391 C 0.04419 0.40265 0.05705 0.0
C1392 C 0.0368 0.3855 0.03248 0.0
C1393 C 0.03559 0.39827 0.09087 0.0
C1394 C 0.01972 0.37664 0.10066 0.0
C1395 C 0.01351 0.35933 0.07671 0.0
C1396 C 0.02172 0.36376 0.04281 0.0
C1397 C 0.00912 0.37212 0.1355 0.0
C1398 C 0.0226 0.37954 0.1652 0.0
C1399 C 0.98582 0.36002 0.13948 0.0
C1400 C 0.97061 0.35359 0.10917 0.0
C1401 C 0.95432 0.33134 0.104 0.0
C1402 C 0.94033 0.32525 0.07505 0.0
C1403 C 0.9424 0.34128 0.05116 0.0
C1404 C 0.95839 0.36345 0.05625 0.0
C1405 C 0.97239 0.36964 0.08518 0.0
H1406 H 0.93157 0.33651 0.02874 0.0
H1407 H 0.06798 0.40814 0.3088 0.0
H1408 H 0.60098 0.9339 0.60971 0.0
H1409 H 0.60946 0.94695 0.54948 0.0
H1410 H 0.65403 0.01312 0.58589 0.0
H1411 H 0.6459 0.00034 0.64603 0.0
H1412 H 0.62283 0.01036 0.53659 0.0
H1413 H 0.67497 0.98463 0.5523 0.0
H1414 H 0.68622 0.95722 0.56659 0.0
H1415 H 0.64427 0.91456 0.48544 0.0
H1416 H 0.63249 0.94156 0.471 0.0
H1417 H 0.66996 0.06281 0.37836 0.0
H1418 H 0.66573 0.04836 0.43744 0.0
H1419 H 0.63026 0.98162 0.3977 0.0
H1420 H 0.63513 0.99592 0.33839 0.0
H1421 H 0.65627 0.98381 0.44863 0.0
H1422 H 0.60314 0.00701 0.43241 0.0
H1423 H 0.59047 0.033 0.41592 0.0
H1424 H 0.63061 0.07768 0.49657 0.0
H1425 H 0.64387 0.05214 0.51314 0.0
C1426 C 0.61276 0.95119 0.60494 0.0
C1427 C 0.6227 0.96607 0.63277 0.0
C1428 C 0.6176 0.95859 0.57052 0.0
C1429 C 0.63236 0.98098 0.56335 0.0
C1430 C 0.64256 0.99578 0.59096 0.0
C1431 C 0.63792 0.98839 0.62533 0.0
C1432 C 0.63654 0.98922 0.5271 0.0
C1433 C 0.63041 0.0048 0.51744 0.0
C1434 C 0.6457 0.98132 0.50195 0.0
C1435 C 0.65269 0.96504 0.51079 0.0
C1436 C 0.66797 0.96931 0.53773 0.0
C1437 C 0.67448 0.95386 0.54581 0.0
C1438 C 0.66594 0.93416 0.52695 0.0
C1439 C 0.65086 0.92983 0.50002 0.0
C1440 C 0.64427 0.9452 0.49187 0.0
C1441 C 0.66137 0.04505 0.38214 0.0
C1442 C 0.65266 0.03052 0.35369 0.0
C1443 C 0.65892 0.03681 0.41595 0.0
C1444 C 0.64726 0.0139 0.42205 0.0
C1445 C 0.63923 0.99936 0.39362 0.0
C1446 C 0.64197 0.00758 0.35972 0.0
C1447 C 0.64278 0.00516 0.45812 0.0
C1448 C 0.64872 0.98942 0.46775 0.0
C1449 C 0.63303 0.01258 0.48313 0.0
C1450 C 0.62466 0.02774 0.47382 0.0
C1451 C 0.60936 0.02243 0.44653 0.0
C1452 C 0.60207 0.03708 0.43715 0.0
C1453 C 0.60975 0.05699 0.45514 0.0
C1454 C 0.62469 0.06225 0.48263 0.0
C1455 C 0.6321 0.0477 0.49204 0.0
H1456 H 0.60411 0.06832 0.4478 0.0
H1457 H 0.67108 0.92228 0.53308 0.0
H1458 H 0.64721 0.6466 0.67234 0.0
H1459 H 0.65393 0.63907 0.73147 0.0
H1460 H 0.60506 0.65438 0.76997 0.0
H1461 H 0.59786 0.6617 0.71045 0.0
H1462 H 0.66796 0.66332 0.78978 0.0
H1463 H 0.57755 0.61842 0.83707 0.0
H1464 H 0.53989 0.59814 0.81238 0.0
H1465 H 0.56429 0.57836 0.72492 0.0
H1466 H 0.60201 0.59824 0.74935 0.0
H1467 H 0.65795 0.64716 0.97257 0.0
H1468 H 0.65296 0.65546 0.91275 0.0
H1469 H 0.63524 0.58924 0.88177 0.0
H1470 H 0.64044 0.58074 0.94182 0.0
H1471 H 0.60587 0.60436 0.85755 0.0
H1472 H 0.68291 0.62648 0.85982 0.0
H1473 H 0.72088 0.64589 0.88327 0.0
H1474 H 0.72399 0.70838 0.86874 0.0
H1475 H 0.68587 0.6893 0.84572 0.0
C1476 C 0.63794 0.64857 0.69328 0.0
C1477 C 0.62185 0.65462 0.68656 0.0
C1478 C 0.6419 0.64431 0.72713 0.0
C1479 C 0.62984 0.64594 0.75496 0.0
C1480 C 0.61433 0.65276 0.74867 0.0
C1481 C 0.61031 0.65701 0.71469 0.0
C1482 C 0.63303 0.63963 0.79029 0.0
C1483 C 0.65438 0.65049 0.80464 0.0
C1484 C 0.61535 0.6226 0.80933 0.0
C1485 C 0.59263 0.61 0.7949 0.0
C1486 C 0.57484 0.60964 0.81268 0.0
C1487 C 0.5535 0.59823 0.79871 0.0
C1488 C 0.54972 0.58703 0.76704 0.0
C1489 C 0.56725 0.5871 0.74938 0.0
C1490 C 0.58862 0.59844 0.76328 0.0
C1491 C 0.65309 0.63434 0.9531 0.0
C1492 C 0.64966 0.61329 0.96192 0.0
C1493 C 0.65026 0.63914 0.91894 0.0
C1494 C 0.64378 0.62296 0.89304 0.0
C1495 C 0.64024 0.6019 0.90159 0.0
C1496 C 0.64336 0.59714 0.93577 0.0
C1497 C 0.64072 0.62821 0.85701 0.0
C1498 C 0.61941 0.6172 0.84263 0.0
C1499 C 0.65847 0.64489 0.83774 0.0
C1500 C 0.68145 0.65644 0.85136 0.0
C1501 C 0.69162 0.64435 0.86191 0.0
C1502 C 0.71318 0.65529 0.87508 0.0
C1503 C 0.72482 0.67835 0.87758 0.0
C1504 C 0.71494 0.69052 0.86683 0.0
C1505 C 0.69336 0.67965 0.8537 0.0
H1506 H 0.74151 0.6868 0.88777 0.0
H1507 H 0.53319 0.57827 0.75623 0.0
H1508 H 0.06674 0.65996 0.27199 0.0
H1509 H 0.05308 0.65709 0.2123 0.0
H1510 H 0.98815 0.63813 0.25193 0.0
H1511 H 0.00154 0.64134 0.31115 0.0
H1512 H 0.02132 0.62262 0.17644 0.0
H1513 H 0.96383 0.65912 0.20186 0.0
H1514 H 0.96228 0.68649 0.24061 0.0
H1515 H 0.03299 0.72078 0.25119 0.0
H1516 H 0.035 0.69383 0.21209 0.0
H1517 H 0.94344 0.59249 0.04065 0.0
H1518 H 0.95791 0.59994 0.10027 0.0
H1519 H 0.00135 0.66849 0.07388 0.0
H1520 H 0.98718 0.66119 0.01437 0.0
H1521 H 0.98224 0.66242 0.1403 0.0
H1522 H 0.02237 0.63772 0.07057 0.0
H1523 H 0.02629 0.61264 0.02977 0.0
H1524 H 0.99601 0.55981 0.10422 0.0
H1525 H 0.99148 0.58449 0.14524 0.0
C1526 C 0.0496 0.65532 0.26797 0.0
C1527 C 0.03532 0.65106 0.29643 0.0
C1528 C 0.04181 0.65359 0.23388 0.0
C1529 C 0.01969 0.64767 0.22777 0.0
C1530 C 0.00538 0.64313 0.25608 0.0
C1531 C 0.01312 0.64494 0.29 0.0
C1532 C 0.01127 0.64598 0.19188 0.0
C1533 C 0.01284 0.63137 0.16853 0.0
C1534 C 0.00051 0.65768 0.18139 0.0
C1535 C 0.99953 0.67433 0.20425 0.0
C1536 C 0.97906 0.67258 0.21227 0.0
C1537 C 0.9781 0.68801 0.23434 0.0
C1538 C 0.99751 0.70533 0.24843 0.0
C1539 C 0.01795 0.70732 0.24035 0.0
C1540 C 0.01901 0.69196 0.21826 0.0
C1541 C 0.95572 0.60923 0.04777 0.0
C1542 C 0.96435 0.62622 0.02281 0.0
C1543 C 0.96403 0.61343 0.08172 0.0
C1544 C 0.98084 0.6347 0.09118 0.0
C1545 C 0.98841 0.65197 0.06697 0.0
C1546 C 0.98036 0.64774 0.03297 0.0
C1547 C 0.99177 0.63863 0.12544 0.0
C1548 C 0.99072 0.65369 0.14834 0.0
C1549 C 0.00343 0.62774 0.13522 0.0
C1550 C 0.00639 0.6129 0.11086 0.0
C1551 C 0.01637 0.6207 0.07815 0.0
C1552 C 0.01872 0.60657 0.05498 0.0
C1553 C 0.01138 0.58464 0.06438 0.0
C1554 C 0.00168 0.57681 0.09698 0.0
C1555 C 0.99921 0.59086 0.1202 0.0
H1556 H 0.01326 0.57373 0.04644 0.0
H1557 H 0.99673 0.71722 0.26557 0.0
H1558 H 0.34149 0.99548 0.35416 0.0
H1559 H 0.3492 0.00859 0.41393 0.0
H1560 H 0.34887 0.94908 0.44505 0.0
H1561 H 0.34105 0.93557 0.38486 0.0
H1562 H 0.32793 0.96511 0.49353 0.0
H1563 H 0.3962 0.9911 0.42936 0.0
H1564 H 0.41997 0.00862 0.37816 0.0
H1565 H 0.41928 0.06874 0.39869 0.0
H1566 H 0.39519 0.05144 0.44971 0.0
H1567 H 0.38299 0.00252 0.65181 0.0
H1568 H 0.37424 0.98808 0.59273 0.0
H1569 H 0.38609 0.05149 0.55574 0.0
H1570 H 0.39579 0.06638 0.61513 0.0
H1571 H 0.40075 0.03332 0.50971 0.0
H1572 H 0.33343 0.00913 0.57258 0.0
H1573 H 0.30795 0.99243 0.6222 0.0
H1574 H 0.30485 0.93033 0.60303 0.0
H1575 H 0.33061 0.94678 0.55359 0.0
C1576 C 0.34271 0.98493 0.37364 0.0
C1577 C 0.34092 0.96455 0.36455 0.0
C1578 C 0.34713 0.9925 0.40783 0.0
C1579 C 0.34993 0.97994 0.43363 0.0
C1580 C 0.34682 0.959 0.42531 0.0
C1581 C 0.34239 0.95135 0.39094 0.0
C1582 C 0.35781 0.98959 0.4685 0.0
C1583 C 0.34396 0.97982 0.49726 0.0
C1584 C 0.37846 0.00916 0.47292 0.0
C1585 C 0.39377 0.01992 0.44322 0.0
C1586 C 0.40106 0.00803 0.4229 0.0
C1587 C 0.41458 0.01792 0.3939 0.0
C1588 C 0.42109 0.03977 0.38514 0.0
C1589 C 0.41421 0.05182 0.4055 0.0
C1590 C 0.40065 0.04199 0.43449 0.0
C1591 C 0.38388 0.01346 0.63109 0.0
C1592 C 0.38973 0.03547 0.63807 0.0
C1593 C 0.37883 0.00516 0.59734 0.0
C1594 C 0.37891 0.01852 0.57 0.0
C1595 C 0.38576 0.04085 0.57655 0.0
C1596 C 0.39126 0.04932 0.6104 0.0
C1597 C 0.37093 0.00879 0.53505 0.0
C1598 C 0.38474 0.01857 0.50616 0.0
C1599 C 0.35008 0.98937 0.53044 0.0
C1600 C 0.33409 0.97924 0.55954 0.0
C1601 C 0.32739 0.99194 0.57904 0.0
C1602 C 0.31291 0.98252 0.60715 0.0
C1603 C 0.30483 0.96035 0.61583 0.0
C1604 C 0.31114 0.94752 0.5963 0.0
C1605 C 0.32566 0.95687 0.5682 0.0
H1606 H 0.29365 0.9531 0.63764 0.0
H1607 H 0.43149 0.04737 0.36261 0.0
H1608 H 0.4139 0.40795 0.07526 0.0
H1609 H 0.45364 0.43429 0.0768 0.0
H1610 H 0.44059 0.48855 0.07584 0.0
H1611 H 0.40105 0.46248 0.07298 0.0
H1612 H 0.47225 0.49696 0.0327 0.0
H1613 H 0.45679 0.47187 0.15103 0.0
H1614 H 0.44238 0.44419 0.19821 0.0
H1615 H 0.4868 0.42136 0.16804 0.0
H1616 H 0.50125 0.44869 0.12032 0.0
H1617 H 0.58014 0.58175 0.07948 0.0
H1618 H 0.5405 0.55519 0.08313 0.0
H1619 H 0.55339 0.50137 0.06905 0.0
H1620 H 0.59296 0.52765 0.06539 0.0
H1621 H 0.52216 0.49304 0.12084 0.0
H1622 H 0.53691 0.51847 0.0017 0.0
H1623 H 0.55133 0.54691 0.95566 0.0
H1624 H 0.5079 0.57014 0.98962 0.0
H1625 H 0.49345 0.54203 0.03623 0.0
C1626 C 0.41949 0.42549 0.07553 0.0
C1627 C 0.40424 0.43307 0.07415 0.0
C1628 C 0.44222 0.44054 0.07656 0.0
C1629 C 0.45011 0.46343 0.0769 0.0
C1630 C 0.43492 0.47099 0.07559 0.0
C1631 C 0.41226 0.456 0.07409 0.0
C1632 C 0.4742 0.4796 0.07781 0.0
C1633 C 0.48307 0.49625 0.05232 0.0
C1634 C 0.48845 0.47849 0.10298 0.0
C1635 C 0.47996 0.46219 0.13189 0.0
C1636 C 0.46338 0.46085 0.15431 0.0
C1637 C 0.45522 0.44523 0.18116 0.0
C1638 C 0.46363 0.43099 0.18607 0.0
C1639 C 0.48028 0.43239 0.16418 0.0
C1640 C 0.48847 0.44795 0.13724 0.0
C1641 C 0.57459 0.56427 0.07737 0.0
C1642 C 0.58978 0.55688 0.07197 0.0
C1643 C 0.55193 0.54913 0.07941 0.0
C1644 C 0.54406 0.52636 0.0761 0.0
C1645 C 0.55916 0.51888 0.07169 0.0
C1646 C 0.58179 0.53398 0.06946 0.0
C1647 C 0.52002 0.51033 0.07591 0.0
C1648 C 0.51123 0.49371 0.10141 0.0
C1649 C 0.50578 0.51157 0.05096 0.0
C1650 C 0.51425 0.52829 0.02266 0.0
C1651 C 0.53055 0.52974 -0.00049 0.0
C1652 C 0.53871 0.54579 0.97329 0.0
C1653 C 0.53058 0.56036 0.96977 0.0
C1654 C 0.51421 0.55886 0.9924 0.0
C1655 C 0.50601 0.54287 0.01871 0.0
H1656 H 0.53693 0.57278 0.94946 0.0
H1657 H 0.45728 0.41891 0.20686 0.0
H1658 H 0.99842 0.57791 0.39896 0.0
H1659 H 0.98617 0.53848 0.40083 0.0
H1660 H 0.05416 0.5536 0.40212 0.0
H1661 H 0.06651 0.59298 0.39857 0.0
H1662 H 0.03089 0.51941 0.36174 0.0
H1663 H 0.02171 0.54046 0.47682 0.0
H1664 H 0.0082 0.55793 0.51825 0.0
H1665 H 0.94104 0.51054 0.49165 0.0
H1666 H 0.95421 0.49323 0.4491 0.0
H1667 H 0.0063 0.41223 0.41859 0.0
H1668 H 0.02062 0.45219 0.41809 0.0
H1669 H 0.95426 0.44083 0.40656 0.0
H1670 H 0.93977 0.40104 0.40721 0.0
H1671 H 0.97813 0.47325 0.45403 0.0
H1672 H 0.98716 0.45355 0.33733 0.0
H1673 H 0.0004 0.43743 0.29283 0.0
H1674 H 0.06763 0.48221 0.32269 0.0
H1675 H 0.05477 0.49836 0.36781 0.0
C1676 C 0.01077 0.57285 0.39964 0.0
C1677 C 0.03345 0.58862 0.39905 0.0
C1678 C 0.00375 0.5503 0.40077 0.0
C1679 C 0.01926 0.54308 0.40235 0.0
C1680 C 0.04189 0.55877 0.40105 0.0
C1681 C 0.04893 0.58131 0.39922 0.0
C1682 C 0.0119 0.51922 0.40615 0.0
C1683 C 0.01962 0.5094 0.38225 0.0
C1684 C 0.99693 0.50606 0.4326 0.0
C1685 C 0.98896 0.51566 0.45956 0.0
C1686 C 0.00406 0.53379 0.47974 0.0
C1687 C 0.99645 0.5437 0.50338 0.0
C1688 C 0.97375 0.53535 0.50759 0.0
C1689 C 0.95862 0.517 0.48831 0.0
C1690 C 0.96615 0.50716 0.46438 0.0
C1691 C 0.99472 0.41821 0.41622 0.0
C1692 C 0.97188 0.40338 0.41282 0.0
C1693 C 0.00295 0.44105 0.41582 0.0
C1694 C 0.98849 0.44941 0.41198 0.0
C1695 C 0.96568 0.43468 0.40956 0.0
C1696 C 0.95745 0.41192 0.40983 0.0
C1697 C 0.99703 0.4735 0.40954 0.0
C1698 C 0.98955 0.48334 0.43373 0.0
C1699 C 0.01224 0.48667 0.38341 0.0
C1700 C 0.01999 0.47701 0.3562 0.0
C1701 C 0.00476 0.45983 0.33462 0.0
C1702 C 0.0122 0.45071 0.30925 0.0
C1703 C 0.03484 0.45878 0.30496 0.0
C1704 C 0.05009 0.47597 0.32606 0.0
C1705 C 0.04274 0.48512 0.35153 0.0
H1706 H 0.04057 0.45176 0.28521 0.0
H1707 H 0.96787 0.5431 0.52577 0.0
H1708 H 0.58903 0.00631 0.74743 0.0
H1709 H 0.56302 0.01989 0.7529 0.0
H1710 H 0.50886 0.95481 0.7286 0.0
H1711 H 0.53471 0.94125 0.72192 0.0
H1712 H 0.50324 0.98444 0.69626 0.0
H1713 H 0.51971 0.97409 0.81278 0.0
H1714 H 0.54409 0.97808 0.86206 0.0
H1715 H 0.57102 0.04847 0.86102 0.0
H1716 H 0.54701 0.04492 0.81138 0.0
H1717 H 0.41652 0.99937 0.75995 0.0
H1718 H 0.4435 0.98679 0.7615 0.0
H1719 H 0.49676 0.05426 0.75356 0.0
H1720 H 0.46998 0.06706 0.7512 0.0
H1721 H 0.50244 0.02347 0.80389 0.0
H1722 H 0.48448 0.03134 0.68379 0.0
H1723 H 0.45764 0.02449 0.63692 0.0
H1724 H 0.4305 0.95442 0.64854 0.0
H1725 H 0.45695 0.96088 0.69596 0.0
C1726 C 0.5716 0.99489 0.74311 0.0
C1727 C 0.56396 0.97263 0.73455 0.0
C1728 C 0.55673 0.00266 0.74641 0.0
C1729 C 0.53395 0.98826 0.74175 0.0
C1730 C 0.52636 0.96619 0.73241 0.0
C1731 C 0.5412 0.95846 0.72875 0.0
C1732 C 0.51796 0.99612 0.74683 0.0
C1733 C 0.50297 0.99275 0.71996 0.0
C1734 C 0.51762 0.00706 0.77771 0.0
C1735 C 0.53169 0.00926 0.80816 0.0
C1736 C 0.53091 0.99044 0.82295 0.0
C1737 C 0.54466 0.99261 0.85094 0.0
C1738 C 0.55913 0.01351 0.86461 0.0
C1739 C 0.55982 0.03228 0.8504 0.0
C1740 C 0.54612 0.0302 0.82235 0.0
C1741 C 0.43397 0.0116 0.75907 0.0
C1742 C 0.44108 0.03422 0.75515 0.0
C1743 C 0.44933 0.00437 0.76004 0.0
C1744 C 0.47202 0.01964 0.75759 0.0
C1745 C 0.47928 0.04229 0.75565 0.0
C1746 C 0.46392 0.04953 0.75411 0.0
C1747 C 0.48797 0.0118 0.75331 0.0
C1748 C 0.50287 0.01516 0.78028 0.0
C1749 C 0.48797 0.00046 0.72284 0.0
C1750 C 0.47254 0.99659 0.69362 0.0
C1751 C 0.47269 0.01447 0.6765 0.0
C1752 C 0.45756 0.01066 0.64983 0.0
C1753 C 0.44233 0.98903 0.63982 0.0
C1754 C 0.44228 0.97117 0.65636 0.0
C1755 C 0.45735 0.97489 0.68312 0.0
H1756 H 0.43061 0.98611 0.6192 0.0
H1757 H 0.56975 0.01511 0.88626 0.0
H1758 H 0.54375 0.59475 0.62138 0.0
H1759 H 0.51786 0.55504 0.61905 0.0
H1760 H 0.55444 0.54899 0.53322 0.0
H1761 H 0.58106 0.58862 0.53658 0.0
H1762 H 0.49007 0.52791 0.57506 0.0
H1763 H 0.55264 0.50011 0.53571 0.0
H1764 H 0.59261 0.5135 0.54126 0.0
H1765 H 0.59538 0.5493 0.63383 0.0
H1766 H 0.55539 0.53584 0.62916 0.0
H1767 H 0.42785 0.41393 0.53779 0.0
H1768 H 0.45474 0.4534 0.53297 0.0
H1769 H 0.48957 0.44895 0.62271 0.0
H1770 H 0.46339 0.40938 0.62669 0.0
H1771 H 0.51823 0.47525 0.57864 0.0
H1772 H 0.45197 0.46814 0.62753 0.0
H1773 H 0.41191 0.4547 0.62984 0.0
H1774 H 0.41639 0.48907 0.53474 0.0
H1775 H 0.45644 0.5024 0.53153 0.0
C1776 C 0.54628 0.58496 0.602 0.0
C1777 C 0.56458 0.59473 0.57944 0.0
C1778 C 0.5314 0.56226 0.60059 0.0
C1779 C 0.53434 0.54893 0.5763 0.0
C1780 C 0.55212 0.55883 0.55276 0.0
C1781 C 0.56729 0.58148 0.55465 0.0
C1782 C 0.51917 0.52461 0.57644 0.0
C1783 C 0.49624 0.51641 0.57574 0.0
C1784 C 0.52716 0.50956 0.57813 0.0
C1785 C 0.55107 0.51714 0.58184 0.0
C1786 C 0.56176 0.51072 0.55736 0.0
C1787 C 0.58442 0.51834 0.56034 0.0
C1788 C 0.59654 0.5323 0.58781 0.0
C1789 C 0.58599 0.53854 0.61251 0.0
C1790 C 0.56334 0.53092 0.60971 0.0
C1791 C 0.44131 0.42136 0.55638 0.0
C1792 C 0.44339 0.40859 0.58281 0.0
C1793 C 0.45664 0.44393 0.55365 0.0
C1794 C 0.47396 0.45425 0.57787 0.0
C1795 C 0.47636 0.44138 0.60371 0.0
C1796 C 0.46131 0.41876 0.60605 0.0
C1797 C 0.48914 0.47855 0.57717 0.0
C1798 C 0.51207 0.48675 0.57775 0.0
C1799 C 0.48113 0.49362 0.57683 0.0
C1800 C 0.45716 0.48609 0.57911 0.0
C1801 C 0.44439 0.47274 0.60702 0.0
C1802 C 0.42169 0.46514 0.60848 0.0
C1803 C 0.4116 0.47098 0.5824 0.0
C1804 C 0.42422 0.48453 0.55489 0.0
C1805 C 0.44693 0.49212 0.55323 0.0
H1806 H 0.39402 0.46505 0.58355 0.0
H1807 H 0.61409 0.53825 0.58999 0.0
H1808 H 0.94151 0.54086 0.92214 0.0
H1809 H 0.95439 0.51437 0.92245 0.0
H1810 H 0.02209 0.5678 0.92171 0.0
H1811 H 0.00929 0.59471 0.92037 0.0
H1812 H 0.01638 0.53533 0.8779 0.0
H1813 H 0.99745 0.53951 0.99648 0.0
H1814 H 0.97329 0.5388 0.04393 0.0
H1815 H 0.92566 0.47145 0.01927 0.0
H1816 H 0.94928 0.47185 0.97117 0.0
H1817 H 0.06358 0.47081 0.93149 0.0
H1818 H 0.05122 0.49778 0.92931 0.0
H1819 H 0.98352 0.44511 0.92004 0.0
H1820 H 0.99572 0.41774 0.92208 0.0
H1821 H 0.98972 0.4774 0.96945 0.0
H1822 H 0.00827 0.47359 0.85037 0.0
H1823 H 0.03215 0.47429 0.80252 0.0
H1824 H 0.08075 0.54106 0.82883 0.0
H1825 H 0.0573 0.54064 0.87724 0.0
C1826 C 0.95917 0.54711 0.92193 0.0
C1827 C 0.97437 0.56999 0.92132 0.0
C1828 C 0.9665 0.53187 0.9223 0.0
C1829 C 0.98919 0.5391 0.92274 0.0
C1830 C 0.00448 0.56189 0.92152 0.0
C1831 C 0.99714 0.57723 0.92081 0.0
C1832 C 0.99678 0.52273 0.92448 0.0
C1833 C 0.01084 0.52289 0.89823 0.0
C1834 C 0.98911 0.50617 0.9506 0.0
C1835 C 0.97508 0.50577 0.98 0.0
C1836 C 0.98177 0.52458 0.00102 0.0
C1837 C 0.96818 0.52424 0.02805 0.0
C1838 C 0.94797 0.50512 0.03458 0.0
C1839 C 0.94132 0.48626 0.01416 0.0
C1840 C 0.9548 0.48653 0.98701 0.0
C1841 C 0.04604 0.46484 0.92883 0.0
C1842 C 0.03065 0.44204 0.92674 0.0
C1843 C 0.03903 0.48035 0.92754 0.0
C1844 C 0.0165 0.47343 0.92423 0.0
C1845 C 0.00101 0.45073 0.92252 0.0
C1846 C 0.00802 0.43515 0.92354 0.0
C1847 C 0.00923 0.49001 0.92284 0.0
C1848 C 0.99528 0.4899 0.9492 0.0
C1849 C 0.01705 0.50664 0.89692 0.0
C1850 C 0.03111 0.50701 0.86765 0.0
C1851 C 0.02413 0.48837 0.84614 0.0
C1852 C 0.03758 0.48872 0.81889 0.0
C1853 C 0.05798 0.50769 0.81269 0.0
C1854 C 0.06495 0.52637 0.83369 0.0
C1855 C 0.05158 0.52609 0.86103 0.0
H1856 H 0.06837 0.50793 0.79158 0.0
H1857 H 0.93747 0.5049 0.0555 0.0
H1858 H 0.59356 0.06252 0.26925 0.0
H1859 H 0.55417 0.04978 0.26928 0.0
H1860 H 0.54014 0.98453 0.23882 0.0
H1861 H 0.57982 0.99736 0.23757 0.0
H1862 H 0.51419 0.99571 0.20432 0.0
H1863 H 0.53371 0.99598 0.32343 0.0
H1864 H 0.5558 0.01174 0.37669 0.0
H1865 H 0.53803 0.06241 0.37821 0.0
H1866 H 0.51604 0.04709 0.32464 0.0
H1867 H 0.40145 0.93985 0.25691 0.0
H1868 H 0.44102 0.95291 0.25536 0.0
H1869 H 0.45515 0.02029 0.26463 0.0
H1870 H 0.41541 0.00743 0.2657 0.0
H1871 H 0.48062 0.00757 0.31022 0.0
H1872 H 0.45996 0.00525 0.1901 0.0
H1873 H 0.43674 0.98716 0.13881 0.0
H1874 H 0.45612 0.93768 0.14096 0.0
H1875 H 0.479 0.95515 0.19305 0.0
C1876 C 0.5822 0.04547 0.26233 0.0
C1877 C 0.58992 0.03095 0.25351 0.0
C1878 C 0.55961 0.03818 0.26257 0.0
C1879 C 0.54418 0.0161 0.25468 0.0
C1880 C 0.55177 0.00163 0.24511 0.0
C1881 C 0.57446 0.00898 0.24449 0.0
C1882 C 0.52014 0.00818 0.2569 0.0
C1883 C 0.50682 0.99804 0.22763 0.0
C1884 C 0.51055 0.01148 0.2872 0.0
C1885 C 0.52338 0.0205 0.31984 0.0
C1886 C 0.53461 0.01056 0.33501 0.0
C1887 C 0.54711 0.01941 0.36527 0.0
C1888 C 0.54839 0.03812 0.38077 0.0
C1889 C 0.53706 0.04794 0.36614 0.0
C1890 C 0.52454 0.03916 0.33585 0.0
C1891 C 0.4129 0.95746 0.25858 0.0
C1892 C 0.40523 0.97261 0.26113 0.0
C1893 C 0.43552 0.96487 0.25771 0.0
C1894 C 0.45092 0.98753 0.25973 0.0
C1895 C 0.44344 0.00272 0.26302 0.0
C1896 C 0.42076 0.99535 0.26339 0.0
C1897 C 0.47485 0.99528 0.25763 0.0
C1898 C 0.48808 0.0053 0.28695 0.0
C1899 C 0.48429 0.99159 0.22759 0.0
C1900 C 0.47102 0.98139 0.19572 0.0
C1901 C 0.45914 0.99041 0.17983 0.0
C1902 C 0.44604 0.98027 0.15057 0.0
C1903 C 0.44494 0.96126 0.13659 0.0
C1904 C 0.45698 0.95239 0.15184 0.0
C1905 C 0.47 0.96239 0.18126 0.0
H1906 H 0.43477 0.95342 0.11394 0.0
H1907 H 0.55812 0.04497 0.40416 0.0
loop_
_geom_bond_atom_site_label_1
_geom_bond_atom_site_label_2
_geom_bond_distance
_geom_bond_site_symmetry_2
_ccdc_geom_bond_type
Co0 O2 2.143 . S
Co0 O8 2.074 . S
Co0 O11 2.093 . S
Co0 O24 2.097 . S
Co0 N41 2.151 . S
Co0 N49 2.214 . S
Co1 O2 2.160 . S
Co1 O7 2.058 1_554 S
Co1 O17 2.057 . S
Co1 O32 2.037 . S
Co1 N36 2.145 . S
Co1 N57 2.257 . S
O2 Co0 2.143 . S
O2 Co1 2.160 . S
C3 O4 1.278 . S
C3 O11 1.224 . S
O4 C3 1.278 . S
C5 O6 1.245 . S
C5 O17 1.232 . S
O6 C5 1.245 . S
O7 Co1 2.058 1_556 S
O7 C33 1.269 . S
O8 Co0 2.074 . S
O8 C33 1.257 1_554 S
H9 C34 0.930 . S
H10 C40 0.930 . S
O11 Co0 2.093 . S
O11 C3 1.224 . S
H12 C44 0.929 . S
H13 C46 0.930 . S
H14 C47 0.930 . S
H15 C45 0.929 . S
H16 C48 0.928 . S
O17 Co1 2.057 . S
O17 C5 1.232 . S
H18 C37 0.929 . S
H19 C38 0.929 1_554 S
H20 C50 0.931 . S
H21 C42 0.929 . S
H22 C51 0.930 . S
H23 C43 0.931 . S
O24 Co0 2.097 . S
O24 C52 1.214 . S
H25 C53 0.929 . S
H26 C54 0.929 . S
H27 C55 0.930 . S
H28 C56 0.929 . S
H29 C58 0.930 . S
H30 C35 0.930 . S
H31 C39 0.930 . S
O32 Co1 2.037 . S
O32 C52 1.234 . S
C33 O7 1.269 . S
C33 O8 1.257 1_556 S
C34 H9 0.930 . S
C34 C37 1.388 . S
C34 C39 1.418 . S
C35 H30 0.930 . S
C35 C38 1.404 . S
C35 C39 1.353 . S
N36 Co1 2.145 . S
N36 C37 1.397 1_554 S
N36 C38 1.334 1_554 S
C37 H18 0.929 . S
C37 C34 1.388 . S
C37 N36 1.397 1_556 S
C38 H19 0.929 1_556 S
C38 C35 1.404 . S
C38 N36 1.334 1_556 S
C39 H31 0.930 . S
C39 C34 1.418 . S
C39 C35 1.353 . S
C40 H10 0.930 . S
C40 N41 1.330 . S
C40 C42 1.446 . S
N41 Co0 2.151 . S
N41 C40 1.330 . S
N41 C45 1.418 . S
C42 H21 0.929 . S
C42 C40 1.446 . S
C42 C43 1.332 . S
C43 H23 0.931 . S
C43 C42 1.332 . S
C43 C44 1.267 . S
C44 H12 0.929 . S
C44 C43 1.267 . S
C44 C45 1.251 . S
C45 H15 0.929 . S
C45 N41 1.418 . S
C45 C44 1.251 . S
C46 H13 0.930 . S
C46 C48 1.406 . S
C46 C51 1.261 . S
C47 H14 0.930 . S
C47 N49 1.325 . S
C47 C50 1.357 . S
C48 H16 0.928 . S
C48 C46 1.406 . S
C48 N49 1.261 . S
N49 Co0 2.214 . S
N49 C47 1.325 . S
N49 C48 1.261 . S
C50 H20 0.931 . S
C50 C47 1.357 . S
C50 C51 1.312 . S
C51 H22 0.930 . S
C51 C46 1.261 . S
C51 C50 1.312 . S
C52 O24 1.214 . S
C52 O32 1.234 . S
C53 H25 0.929 . S
C53 C56 1.391 . S
C53 C58 1.391 . S
C54 H26 0.929 . S
C54 C55 1.390 . S
C54 N57 1.391 . S
C55 H27 0.930 . S
C55 C54 1.390 . S
C55 C56 1.392 . S
C56 H28 0.929 . S
C56 C53 1.391 . S
C56 C55 1.392 . S
N57 Co1 2.257 . S
N57 C54 1.391 . S
N57 C58 1.388 . S
C58 H29 0.930 . S
C58 C53 1.391 . S
C58 N57 1.388 . S
Co59 O61 2.143 . S
Co59 O67 2.074 . S
Co59 O70 2.093 . S
Co59 O83 2.097 . S
Co59 N100 2.193 . S
Co59 N108 2.214 1_655 S
Co60 O61 2.160 . S
Co60 O66 2.058 . S
Co60 O76 2.057 . S
Co60 O91 2.037 . S
Co60 N95 2.145 . S
Co60 N116 2.257 . S
O61 Co59 2.143 . S
O61 Co60 2.160 . S
C62 O63 1.278 . S
C62 O70 1.224 . S
O63 C62 1.278 . S
C64 O65 1.245 . S
C64 O76 1.232 . S
O65 C64 1.245 . S
O66 Co60 2.058 . S
O66 C92 1.269 . S
O67 Co59 2.074 . S
O67 C92 1.257 . S
H68 C93 0.930 . S
H69 C99 0.930 . S
O70 Co59 2.093 . S
O70 C62 1.224 . S
H71 C103 0.929 . S
H72 C105 0.930 . S
H73 C106 0.930 . S
H74 C104 0.929 . S
H75 C107 0.928 . S
O76 Co60 2.057 . S
O76 C64 1.232 . S
H77 C96 0.929 . S
H78 C97 0.929 . S
H79 C109 0.931 . S
H80 C101 0.930 . S
H81 C110 0.930 . S
H82 C102 0.931 . S
O83 Co59 2.097 . S
O83 C111 1.214 . S
H84 C112 0.929 . S
H85 C113 0.929 . S
H86 C114 0.930 . S
H87 C115 0.929 . S
H88 C117 0.930 . S
H89 C94 0.930 . S
H90 C98 0.930 . S
O91 Co60 2.037 . S
O91 C111 1.234 . S
C92 O66 1.269 . S
C92 O67 1.257 . S
C93 H68 0.930 . S
C93 C96 1.388 . S
C93 C98 1.418 . S
C94 H89 0.930 . S
C94 C97 1.404 . S
C94 C98 1.353 . S
N95 Co60 2.145 . S
N95 C96 1.397 . S
N95 C97 1.334 . S
C96 H77 0.929 . S
C96 C93 1.388 . S
C96 N95 1.397 . S
C97 H78 0.929 . S
C97 C94 1.404 . S
C97 N95 1.334 . S
C98 H90 0.930 . S
C98 C93 1.418 . S
C98 C94 1.353 . S
C99 H69 0.930 . S
C99 N100 1.328 . S
C99 C101 1.481 . S
N100 Co59 2.193 . S
N100 C99 1.328 . S
N100 C104 1.371 1_655 S
C101 H80 0.930 . S
C101 C99 1.481 . S
C101 C102 1.298 1_655 S
C102 H82 0.931 . S
C102 C101 1.298 1_455 S
C102 C103 1.267 . S
C103 H71 0.929 . S
C103 C102 1.267 . S
C103 C104 1.251 . S
C104 H74 0.929 . S
C104 N100 1.371 1_455 S
C104 C103 1.251 . S
C105 H72 0.930 . S
C105 C107 1.406 . S
C105 C110 1.261 . S
C106 H73 0.930 . S
C106 N108 1.325 . S
C106 C109 1.357 . S
C107 H75 0.928 . S
C107 C105 1.406 . S
C107 N108 1.261 . S
N108 Co59 2.214 1_455 S
N108 C106 1.325 . S
N108 C107 1.261 . S
C109 H79 0.931 . S
C109 C106 1.357 . S
C109 C110 1.312 . S
C110 H81 0.930 . S
C110 C105 1.261 . S
C110 C109 1.312 . S
C111 O83 1.214 . S
C111 O91 1.234 . S
C112 H84 0.929 . S
C112 C115 1.391 . S
C112 C117 1.391 . S
C113 H85 0.929 . S
C113 C114 1.390 . S
C113 N116 1.391 . S
C114 H86 0.930 . S
C114 C113 1.390 . S
C114 C115 1.392 . S
C115 H87 0.929 . S
C115 C112 1.391 . S
C115 C114 1.392 . S
N116 Co60 2.257 . S
N116 C113 1.391 . S
N116 C117 1.388 . S
C117 H88 0.930 . S
C117 C112 1.391 . S
C117 N116 1.388 . S
Co118 O120 2.143 . S
Co118 O126 2.074 . S
Co118 O129 2.093 . S
Co118 O142 2.097 . S
Co118 N159 2.136 . S
Co118 N167 2.214 1_565 S
Co119 O120 2.160 . S
Co119 O125 2.058 . S
Co119 O135 2.057 . S
Co119 O150 2.037 . S
Co119 N154 2.145 . S
Co119 N175 2.257 . S
O120 Co118 2.143 . S
O120 Co119 2.160 . S
C121 O122 1.278 . S
C121 O129 1.224 . S
O122 C121 1.278 . S
C123 O124 1.245 . S
C123 O135 1.232 . S
O124 C123 1.245 . S
O125 Co119 2.058 . S
O125 C151 1.269 . S
O126 Co118 2.074 . S
O126 C151 1.257 . S
H127 C152 0.930 . S
H128 C158 0.930 . S
O129 Co118 2.093 . S
O129 C121 1.224 . S
H130 C162 0.929 . S
H131 C164 0.930 . S
H132 C165 0.930 . S
H133 C163 0.929 . S
H134 C166 0.928 . S
O135 Co119 2.057 . S
O135 C123 1.232 . S
H136 C155 0.929 . S
H137 C156 0.929 . S
H138 C168 0.931 . S
H139 C160 0.962 . S
H140 C169 0.930 . S
H141 C161 0.931 . S
O142 Co118 2.097 . S
O142 C170 1.214 . S
H143 C171 0.929 . S
H144 C172 0.929 . S
H145 C173 0.930 . S
H146 C174 0.929 . S
H147 C176 0.930 . S
H148 C153 0.930 . S
H149 C157 0.930 . S
O150 Co119 2.037 . S
O150 C170 1.234 . S
C151 O125 1.269 . S
C151 O126 1.257 . S
C152 H127 0.930 . S
C152 C155 1.388 . S
C152 C157 1.418 . S
C153 H148 0.930 . S
C153 C156 1.404 . S
C153 C157 1.353 . S
N154 Co119 2.145 . S
N154 C155 1.397 . S
N154 C156 1.334 . S
C155 H136 0.929 . S
C155 C152 1.388 . S
C155 N154 1.397 . S
C156 H137 0.929 . S
C156 C153 1.404 . S
C156 N154 1.334 . S
C157 H149 0.930 . S
C157 C152 1.418 . S
C157 C153 1.353 . S
C158 H128 0.930 . S
C158 N159 1.366 . S
C158 C160 1.437 . S
N159 Co118 2.136 . S
N159 C158 1.366 . S
N159 C163 1.393 1_565 S
C160 H139 0.962 . S
C160 C158 1.437 . S
C160 C161 1.308 1_565 S
C161 H141 0.931 . S
C161 C160 1.308 1_545 S
C161 C162 1.267 . S
C162 H130 0.929 . S
C162 C161 1.267 . S
C162 C163 1.251 . S
C163 H133 0.929 . S
C163 N159 1.393 1_545 S
C163 C162 1.251 . S
C164 H131 0.930 . S
C164 C166 1.406 . S
C164 C169 1.261 . S
C165 H132 0.930 . S
C165 N167 1.325 . S
C165 C168 1.357 . S
C166 H134 0.928 . S
C166 C164 1.406 . S
C166 N167 1.261 . S
N167 Co118 2.214 1_545 S
N167 C165 1.325 . S
N167 C166 1.261 . S
C168 H138 0.931 . S
C168 C165 1.357 . S
C168 C169 1.312 . S
C169 H140 0.930 . S
C169 C164 1.261 . S
C169 C168 1.312 . S
C170 O142 1.214 . S
C170 O150 1.234 . S
C171 H143 0.929 . S
C171 C174 1.391 . S
C171 C176 1.391 . S
C172 H144 0.929 . S
C172 C173 1.390 . S
C172 N175 1.391 . S
C173 H145 0.930 . S
C173 C172 1.390 . S
C173 C174 1.392 . S
C174 H146 0.929 . S
C174 C171 1.391 . S
C174 C173 1.392 . S
N175 Co119 2.257 . S
N175 C172 1.391 . S
N175 C176 1.388 . S
C176 H147 0.930 . S
C176 C171 1.391 . S
C176 N175 1.388 . S
Co177 O179 2.143 . S
Co177 O185 2.074 . S
Co177 O188 2.093 . S
Co177 O201 2.097 . S
Co177 N218 2.151 . S
Co177 N226 2.214 . S
Co178 O179 2.160 . S
Co178 O184 2.058 1_554 S
Co178 O194 2.057 . S
Co178 O209 2.037 . S
Co178 N213 2.145 . S
Co178 N234 2.257 . S
O179 Co177 2.143 . S
O179 Co178 2.160 . S
C180 O181 1.278 . S
C180 O188 1.224 . S
O181 C180 1.278 . S
C182 O183 1.245 . S
C182 O194 1.232 . S
O183 C182 1.245 . S
O184 Co178 2.058 1_556 S
O184 C210 1.269 . S
O185 Co177 2.074 . S
O185 C210 1.257 1_554 S
H186 C211 0.930 . S
H187 C217 0.930 . S
O188 Co177 2.093 . S
O188 C180 1.224 . S
H189 C221 0.929 . S
H190 C223 0.930 . S
H191 C224 0.930 . S
H192 C222 0.929 . S
H193 C225 0.928 . S
O194 Co178 2.057 . S
O194 C182 1.232 . S
H195 C214 0.929 . S
H196 C215 0.929 1_554 S
H197 C227 0.931 . S
H198 C219 0.929 . S
H199 C228 0.930 . S
H200 C220 0.931 . S
O201 Co177 2.097 . S
O201 C229 1.214 . S
H202 C230 0.929 . S
H203 C231 0.929 . S
H204 C232 0.930 . S
H205 C233 0.929 . S
H206 C235 0.930 . S
H207 C212 0.930 . S
H208 C216 0.930 . S
O209 Co178 2.037 . S
O209 C229 1.234 . S
C210 O184 1.269 . S
C210 O185 1.257 1_556 S
C211 H186 0.930 . S
C211 C214 1.388 . S
C211 C216 1.418 . S
C212 H207 0.930 . S
C212 C215 1.404 . S
C212 C216 1.353 . S
N213 Co178 2.145 . S
N213 C214 1.397 1_554 S
N213 C215 1.334 1_554 S
C214 H195 0.929 . S
C214 C211 1.388 . S
C214 N213 1.397 1_556 S
C215 H196 0.929 1_556 S
C215 C212 1.404 . S
C215 N213 1.334 1_556 S
C216 H208 0.930 . S
C216 C211 1.418 . S
C216 C212 1.353 . S
C217 H187 0.930 . S
C217 N218 1.330 . S
C217 C219 1.446 . S
N218 Co177 2.151 . S
N218 C217 1.330 . S
N218 C222 1.418 . S
C219 H198 0.929 . S
C219 C217 1.446 . S
C219 C220 1.332 . S
C220 H200 0.931 . S
C220 C219 1.332 . S
C220 C221 1.267 . S
C221 H189 0.929 . S
C221 C220 1.267 . S
C221 C222 1.251 . S
C222 H192 0.929 . S
C222 N218 1.418 . S
C222 C221 1.251 . S
C223 H190 0.930 . S
C223 C225 1.406 . S
C223 C228 1.261 . S
C224 H191 0.930 . S
C224 N226 1.325 . S
C224 C227 1.357 . S
C225 H193 0.928 . S
C225 C223 1.406 . S
C225 N226 1.261 . S
N226 Co177 2.214 . S
N226 C224 1.325 . S
N226 C225 1.261 . S
C227 H197 0.931 . S
C227 C224 1.357 . S
C227 C228 1.312 . S
C228 H199 0.930 . S
C228 C223 1.261 . S
C228 C227 1.312 . S
C229 O201 1.214 . S
C229 O209 1.234 . S
C230 H202 0.929 . S
C230 C233 1.391 . S
C230 C235 1.391 . S
C231 H203 0.929 . S
C231 C232 1.390 . S
C231 N234 1.391 . S
C232 H204 0.930 . S
C232 C231 1.390 . S
C232 C233 1.392 . S
C233 H205 0.929 . S
C233 C230 1.391 . S
C233 C232 1.392 . S
N234 Co178 2.257 . S
N234 C231 1.391 . S
N234 C235 1.388 . S
C235 H206 0.930 . S
C235 C230 1.391 . S
C235 N234 1.388 . S
Co236 O238 2.143 . S
Co236 O244 2.074 . S
Co236 O247 2.093 . S
Co236 O260 2.097 . S
Co236 N277 2.193 . S
Co236 N285 2.214 1_455 S
Co237 O238 2.160 . S
Co237 O243 2.058 . S
Co237 O253 2.057 . S
Co237 O268 2.037 . S
Co237 N272 2.145 . S
Co237 N293 2.257 . S
O238 Co236 2.143 . S
O238 Co237 2.160 . S
C239 O240 1.278 . S
C239 O247 1.224 . S
O240 C239 1.278 . S
C241 O242 1.245 . S
C241 O253 1.232 . S
O242 C241 1.245 . S
O243 Co237 2.058 . S
O243 C269 1.269 . S
O244 Co236 2.074 . S
O244 C269 1.257 . S
H245 C270 0.930 . S
H246 C276 0.930 . S
O247 Co236 2.093 . S
O247 C239 1.224 . S
H248 C280 0.929 . S
H249 C282 0.930 . S
H250 C283 0.930 . S
H251 C281 0.929 . S
H252 C284 0.928 . S
O253 Co237 2.057 . S
O253 C241 1.232 . S
H254 C273 0.929 . S
H255 C274 0.929 . S
H256 C286 0.931 . S
H257 C278 0.930 . S
H258 C287 0.930 . S
H259 C279 0.931 . S
O260 Co236 2.097 . S
O260 C288 1.214 . S
H261 C289 0.929 . S
H262 C290 0.929 . S
H263 C291 0.930 . S
H264 C292 0.929 . S
H265 C294 0.930 . S
H266 C271 0.930 . S
H267 C275 0.930 . S
O268 Co237 2.037 . S
O268 C288 1.234 . S
C269 O243 1.269 . S
C269 O244 1.257 . S
C270 H245 0.930 . S
C270 C273 1.388 . S
C270 C275 1.418 . S
C271 H266 0.930 . S
C271 C274 1.404 . S
C271 C275 1.353 . S
N272 Co237 2.145 . S
N272 C273 1.397 . S
N272 C274 1.334 . S
C273 H254 0.929 . S
C273 C270 1.388 . S
C273 N272 1.397 . S
C274 H255 0.929 . S
C274 C271 1.404 . S
C274 N272 1.334 . S
C275 H267 0.930 . S
C275 C270 1.418 . S
C275 C271 1.353 . S
C276 H246 0.930 . S
C276 N277 1.328 . S
C276 C278 1.481 . S
N277 Co236 2.193 . S
N277 C276 1.328 . S
N277 C281 1.371 1_455 S
C278 H257 0.930 . S
C278 C276 1.481 . S
C278 C279 1.298 1_455 S
C279 H259 0.931 . S
C279 C278 1.298 1_655 S
C279 C280 1.267 . S
C280 H248 0.929 . S
C280 C279 1.267 . S
C280 C281 1.251 . S
C281 H251 0.929 . S
C281 N277 1.371 1_655 S
C281 C280 1.251 . S
C282 H249 0.930 . S
C282 C284 1.406 . S
C282 C287 1.261 . S
C283 H250 0.930 . S
C283 N285 1.325 . S
C283 C286 1.357 . S
C284 H252 0.928 . S
C284 C282 1.406 . S
C284 N285 1.261 . S
N285 Co236 2.214 1_655 S
N285 C283 1.325 . S
N285 C284 1.261 . S
C286 H256 0.931 . S
C286 C283 1.357 . S
C286 C287 1.312 . S
C287 H258 0.930 . S
C287 C282 1.261 . S
C287 C286 1.312 . S
C288 O260 1.214 . S
C288 O268 1.234 . S
C289 H261 0.929 . S
C289 C292 1.391 . S
C289 C294 1.391 . S
C290 H262 0.929 . S
C290 C291 1.390 . S
C290 N293 1.391 . S
C291 H263 0.930 . S
C291 C290 1.390 . S
C291 C292 1.392 . S
C292 H264 0.929 . S
C292 C289 1.391 . S
C292 C291 1.392 . S
N293 Co237 2.257 . S
N293 C290 1.391 . S
N293 C294 1.388 . S
C294 H265 0.930 . S
C294 C289 1.391 . S
C294 N293 1.388 . S
Co295 O297 2.143 . S
Co295 O303 2.074 . S
Co295 O306 2.093 . S
Co295 O319 2.097 . S
Co295 N336 2.136 . S
Co295 N344 2.214 1_545 S
Co296 O297 2.160 . S
Co296 O302 2.058 . S
Co296 O312 2.057 . S
Co296 O327 2.037 . S
Co296 N331 2.145 . S
Co296 N352 2.257 . S
O297 Co295 2.143 . S
O297 Co296 2.160 . S
C298 O299 1.278 . S
C298 O306 1.224 . S
O299 C298 1.278 . S
C300 O301 1.245 . S
C300 O312 1.232 . S
O301 C300 1.245 . S
O302 Co296 2.058 . S
O302 C328 1.269 . S
O303 Co295 2.074 . S
O303 C328 1.257 . S
H304 C329 0.930 . S
H305 C335 0.930 . S
O306 Co295 2.093 . S
O306 C298 1.224 . S
H307 C339 0.929 . S
H308 C341 0.930 . S
H309 C342 0.930 . S
H310 C340 0.929 . S
H311 C343 0.928 . S
O312 Co296 2.057 . S
O312 C300 1.232 . S
H313 C332 0.929 . S
H314 C333 0.929 . S
H315 C345 0.931 . S
H316 C337 0.962 . S
H317 C346 0.930 . S
H318 C338 0.931 . S
O319 Co295 2.097 . S
O319 C347 1.214 . S
H320 C348 0.929 . S
H321 C349 0.929 . S
H322 C350 0.930 . S
H323 C351 0.929 . S
H324 C353 0.930 . S
H325 C330 0.930 . S
H326 C334 0.930 . S
O327 Co296 2.037 . S
O327 C347 1.234 . S
C328 O302 1.269 . S
C328 O303 1.257 . S
C329 H304 0.930 . S
C329 C332 1.388 . S
C329 C334 1.418 . S
C330 H325 0.930 . S
C330 C333 1.404 . S
C330 C334 1.353 . S
N331 Co296 2.145 . S
N331 C332 1.397 . S
N331 C333 1.334 . S
C332 H313 0.929 . S
C332 C329 1.388 . S
C332 N331 1.397 . S
C333 H314 0.929 . S
C333 C330 1.404 . S
C333 N331 1.334 . S
C334 H326 0.930 . S
C334 C329 1.418 . S
C334 C330 1.353 . S
C335 H305 0.930 . S
C335 N336 1.366 . S
C335 C337 1.437 . S
N336 Co295 2.136 . S
N336 C335 1.366 . S
N336 C340 1.393 1_545 S
C337 H316 0.962 . S
C337 C335 1.437 . S
C337 C338 1.308 1_545 S
C338 H318 0.931 . S
C338 C337 1.308 1_565 S
C338 C339 1.267 . S
C339 H307 0.929 . S
C339 C338 1.267 . S
C339 C340 1.251 . S
C340 H310 0.929 . S
C340 N336 1.393 1_565 S
C340 C339 1.251 . S
C341 H308 0.930 . S
C341 C343 1.406 . S
C341 C346 1.261 . S
C342 H309 0.930 . S
C342 N344 1.325 . S
C342 C345 1.357 . S
C343 H311 0.928 . S
C343 C341 1.406 . S
C343 N344 1.261 . S
N344 Co295 2.214 1_565 S
N344 C342 1.325 . S
N344 C343 1.261 . S
C345 H315 0.931 . S
C345 C342 1.357 . S
C345 C346 1.312 . S
C346 H317 0.930 . S
C346 C341 1.261 . S
C346 C345 1.312 . S
C347 O319 1.214 . S
C347 O327 1.234 . S
C348 H320 0.929 . S
C348 C351 1.391 . S
C348 C353 1.391 . S
C349 H321 0.929 . S
C349 C350 1.390 . S
C349 N352 1.391 . S
C350 H322 0.930 . S
C350 C349 1.390 . S
C350 C351 1.392 . S
C351 H323 0.929 . S
C351 C348 1.391 . S
C351 C350 1.392 . S
N352 Co296 2.257 . S
N352 C349 1.391 . S
N352 C353 1.388 . S
C353 H324 0.930 . S
C353 C348 1.391 . S
C353 N352 1.388 . S
Co354 O356 2.143 . S
Co354 O362 2.074 . S
Co354 O365 2.093 . S
Co354 O378 2.097 . S
Co354 N395 2.151 . S
Co354 N403 2.214 . S
Co355 O356 2.160 . S
Co355 O361 2.058 . S
Co355 O371 2.057 . S
Co355 O386 2.037 . S
Co355 N390 2.145 . S
Co355 N411 2.257 . S
O356 Co354 2.143 . S
O356 Co355 2.160 . S
C357 O358 1.278 . S
C357 O365 1.224 . S
O358 C357 1.278 . S
C359 O360 1.245 . S
C359 O371 1.232 . S
O360 C359 1.245 . S
O361 Co355 2.058 . S
O361 C387 1.269 . S
O362 Co354 2.074 . S
O362 C387 1.257 . S
H363 C388 0.930 . S
H364 C394 0.930 . S
O365 Co354 2.093 . S
O365 C357 1.224 . S
H366 C398 0.929 . S
H367 C400 0.930 . S
H368 C401 0.930 . S
H369 C399 0.929 . S
H370 C402 0.928 . S
O371 Co355 2.057 . S
O371 C359 1.232 . S
H372 C391 0.929 . S
H373 C392 0.929 . S
H374 C404 0.931 . S
H375 C396 0.929 . S
H376 C405 0.930 . S
H377 C397 0.931 . S
O378 Co354 2.097 . S
O378 C406 1.214 . S
H379 C407 0.929 . S
H380 C408 0.929 . S
H381 C409 0.930 . S
H382 C410 0.929 . S
H383 C412 0.930 . S
H384 C389 0.930 . S
H385 C393 0.930 . S
O386 Co355 2.037 . S
O386 C406 1.234 . S
C387 O361 1.269 . S
C387 O362 1.257 . S
C388 H363 0.930 . S
C388 C391 1.388 . S
C388 C393 1.418 . S
C389 H384 0.930 . S
C389 C392 1.404 . S
C389 C393 1.353 . S
N390 Co355 2.145 . S
N390 C391 1.397 . S
N390 C392 1.334 . S
C391 H372 0.929 . S
C391 C388 1.388 . S
C391 N390 1.397 . S
C392 H373 0.929 . S
C392 C389 1.404 . S
C392 N390 1.334 . S
C393 H385 0.930 . S
C393 C388 1.418 . S
C393 C389 1.353 . S
C394 H364 0.930 . S
C394 N395 1.330 . S
C394 C396 1.446 . S
N395 Co354 2.151 . S
N395 C394 1.330 . S
N395 C399 1.418 . S
C396 H375 0.929 . S
C396 C394 1.446 . S
C396 C397 1.332 . S
C397 H377 0.931 . S
C397 C396 1.332 . S
C397 C398 1.267 . S
C398 H366 0.929 . S
C398 C397 1.267 . S
C398 C399 1.251 . S
C399 H369 0.929 . S
C399 N395 1.418 . S
C399 C398 1.251 . S
C400 H367 0.930 . S
C400 C402 1.406 . S
C400 C405 1.261 . S
C401 H368 0.930 . S
C401 N403 1.325 . S
C401 C404 1.357 . S
C402 H370 0.928 . S
C402 C400 1.406 . S
C402 N403 1.261 . S
N403 Co354 2.214 . S
N403 C401 1.325 . S
N403 C402 1.261 . S
C404 H374 0.931 . S
C404 C401 1.357 . S
C404 C405 1.312 . S
C405 H376 0.930 . S
C405 C400 1.261 . S
C405 C404 1.312 . S
C406 O378 1.214 . S
C406 O386 1.234 . S
C407 H379 0.929 . S
C407 C410 1.391 . S
C407 C412 1.391 . S
C408 H380 0.929 . S
C408 C409 1.390 . S
C408 N411 1.391 . S
C409 H381 0.930 . S
C409 C408 1.390 . S
C409 C410 1.392 . S
C410 H382 0.929 . S
C410 C407 1.391 . S
C410 C409 1.392 . S
N411 Co355 2.257 . S
N411 C408 1.391 . S
N411 C412 1.388 . S
C412 H383 0.930 . S
C412 C407 1.391 . S
C412 N411 1.388 . S
Co413 O415 2.143 . S
Co413 O421 2.074 . S
Co413 O424 2.093 . S
Co413 O437 2.097 . S
Co413 N454 2.136 . S
Co413 N462 2.214 1_655 S
Co414 O415 2.160 . S
Co414 O420 2.058 1_556 S
Co414 O430 2.057 . S
Co414 O445 2.037 . S
Co414 N449 2.145 . S
Co414 N470 2.257 . S
O415 Co413 2.143 . S
O415 Co414 2.160 . S
C416 O417 1.278 . S
C416 O424 1.224 . S
O417 C416 1.278 . S
C418 O419 1.245 . S
C418 O430 1.232 . S
O419 C418 1.245 . S
O420 Co414 2.058 1_554 S
O420 C446 1.269 . S
O421 Co413 2.074 . S
O421 C446 1.257 1_556 S
H422 C447 0.930 . S
H423 C453 0.930 . S
O424 Co413 2.093 . S
O424 C416 1.224 . S
H425 C457 0.929 . S
H426 C459 0.930 . S
H427 C460 0.930 . S
H428 C458 0.929 . S
H429 C461 0.928 . S
O430 Co414 2.057 . S
O430 C418 1.232 . S
H431 C450 0.929 . S
H432 C451 0.929 1_556 S
H433 C463 0.931 . S
H434 C455 0.961 . S
H435 C464 0.930 . S
H436 C456 0.931 . S
O437 Co413 2.097 . S
O437 C465 1.214 . S
H438 C466 0.929 . S
H439 C467 0.929 . S
H440 C468 0.930 . S
H441 C469 0.929 . S
H442 C471 0.930 . S
H443 C448 0.930 . S
H444 C452 0.930 . S
O445 Co414 2.037 . S
O445 C465 1.234 . S
C446 O420 1.269 . S
C446 O421 1.257 1_554 S
C447 H422 0.930 . S
C447 C450 1.388 . S
C447 C452 1.418 . S
C448 H443 0.930 . S
C448 C451 1.404 . S
C448 C452 1.353 . S
N449 Co414 2.145 . S
N449 C450 1.397 1_556 S
N449 C451 1.334 1_556 S
C450 H431 0.929 . S
C450 C447 1.388 . S
C450 N449 1.397 1_554 S
C451 H432 0.929 1_554 S
C451 C448 1.404 . S
C451 N449 1.334 1_554 S
C452 H444 0.930 . S
C452 C447 1.418 . S
C452 C448 1.353 . S
C453 H423 0.930 . S
C453 N454 1.366 . S
C453 C455 1.437 . S
N454 Co413 2.136 . S
N454 C453 1.366 . S
N454 C458 1.393 1_655 S
C455 H434 0.961 . S
C455 C453 1.437 . S
C455 C456 1.309 1_655 S
C456 H436 0.931 . S
C456 C455 1.309 1_455 S
C456 C457 1.267 . S
C457 H425 0.929 . S
C457 C456 1.267 . S
C457 C458 1.251 . S
C458 H428 0.929 . S
C458 N454 1.393 1_455 S
C458 C457 1.251 . S
C459 H426 0.930 . S
C459 C461 1.406 . S
C459 C464 1.261 . S
C460 H427 0.930 . S
C460 N462 1.325 . S
C460 C463 1.357 . S
C461 H429 0.928 . S
C461 C459 1.406 . S
C461 N462 1.261 . S
N462 Co413 2.214 1_455 S
N462 C460 1.325 . S
N462 C461 1.261 . S
C463 H433 0.931 . S
C463 C460 1.357 . S
C463 C464 1.312 . S
C464 H435 0.930 . S
C464 C459 1.261 . S
C464 C463 1.312 . S
C465 O437 1.214 . S
C465 O445 1.234 . S
C466 H438 0.929 . S
C466 C469 1.391 . S
C466 C471 1.391 . S
C467 H439 0.929 . S
C467 C468 1.390 . S
C467 N470 1.391 . S
C468 H440 0.930 . S
C468 C467 1.390 . S
C468 C469 1.392 . S
C469 H441 0.929 . S
C469 C466 1.391 . S
C469 C468 1.392 . S
N470 Co414 2.257 . S
N470 C467 1.391 . S
N470 C471 1.388 . S
C471 H442 0.930 . S
C471 C466 1.391 . S
C471 N470 1.388 . S
Co472 O474 2.143 . S
Co472 O480 2.074 . S
Co472 O483 2.093 . S
Co472 O496 2.097 . S
Co472 N513 2.193 . S
Co472 N521 2.214 1_565 S
Co473 O474 2.160 . S
Co473 O479 2.058 . S
Co473 O489 2.057 . S
Co473 O504 2.037 . S
Co473 N508 2.145 . S
Co473 N529 2.257 . S
O474 Co472 2.143 . S
O474 Co473 2.160 . S
C475 O476 1.278 . S
C475 O483 1.224 . S
O476 C475 1.278 . S
C477 O478 1.245 . S
C477 O489 1.232 . S
O478 C477 1.245 . S
O479 Co473 2.058 . S
O479 C505 1.269 . S
O480 Co472 2.074 . S
O480 C505 1.257 . S
H481 C506 0.930 . S
H482 C512 0.930 . S
O483 Co472 2.093 . S
O483 C475 1.224 . S
H484 C516 0.929 . S
H485 C518 0.930 . S
H486 C519 0.930 . S
H487 C517 0.929 . S
H488 C520 0.928 . S
O489 Co473 2.057 . S
O489 C477 1.232 . S
H490 C509 0.929 . S
H491 C510 0.929 . S
H492 C522 0.931 . S
H493 C514 0.930 . S
H494 C523 0.930 . S
H495 C515 0.931 . S
O496 Co472 2.097 . S
O496 C524 1.214 . S
H497 C525 0.929 . S
H498 C526 0.929 . S
H499 C527 0.930 . S
H500 C528 0.929 . S
H501 C530 0.930 . S
H502 C507 0.930 . S
H503 C511 0.930 . S
O504 Co473 2.037 . S
O504 C524 1.234 . S
C505 O479 1.269 . S
C505 O480 1.257 . S
C506 H481 0.930 . S
C506 C509 1.388 . S
C506 C511 1.418 . S
C507 H502 0.930 . S
C507 C510 1.404 . S
C507 C511 1.353 . S
N508 Co473 2.145 . S
N508 C509 1.397 . S
N508 C510 1.334 . S
C509 H490 0.929 . S
C509 C506 1.388 . S
C509 N508 1.397 . S
C510 H491 0.929 . S
C510 C507 1.404 . S
C510 N508 1.334 . S
C511 H503 0.930 . S
C511 C506 1.418 . S
C511 C507 1.353 . S
C512 H482 0.930 . S
C512 N513 1.328 . S
C512 C514 1.481 . S
N513 Co472 2.193 . S
N513 C512 1.328 . S
N513 C517 1.371 1_565 S
C514 H493 0.930 . S
C514 C512 1.481 . S
C514 C515 1.298 1_565 S
C515 H495 0.931 . S
C515 C514 1.298 1_545 S
C515 C516 1.267 . S
C516 H484 0.929 . S
C516 C515 1.267 . S
C516 C517 1.251 . S
C517 H487 0.929 . S
C517 N513 1.371 1_545 S
C517 C516 1.251 . S
C518 H485 0.930 . S
C518 C520 1.406 . S
C518 C523 1.261 . S
C519 H486 0.930 . S
C519 N521 1.325 . S
C519 C522 1.357 . S
C520 H488 0.928 . S
C520 C518 1.406 . S
C520 N521 1.261 . S
N521 Co472 2.214 1_545 S
N521 C519 1.325 . S
N521 C520 1.261 . S
C522 H492 0.931 . S
C522 C519 1.357 . S
C522 C523 1.312 . S
C523 H494 0.930 . S
C523 C518 1.261 . S
C523 C522 1.312 . S
C524 O496 1.214 . S
C524 O504 1.234 . S
C525 H497 0.929 . S
C525 C528 1.391 . S
C525 C530 1.391 . S
C526 H498 0.929 . S
C526 C527 1.390 . S
C526 N529 1.391 . S
C527 H499 0.930 . S
C527 C526 1.390 . S
C527 C528 1.392 . S
C528 H500 0.929 . S
C528 C525 1.391 . S
C528 C527 1.392 . S
N529 Co473 2.257 . S
N529 C526 1.391 . S
N529 C530 1.388 . S
C530 H501 0.930 . S
C530 C525 1.391 . S
C530 N529 1.388 . S
Co531 O533 2.143 . S
Co531 O539 2.074 . S
Co531 O542 2.093 . S
Co531 O555 2.097 . S
Co531 N572 2.151 . S
Co531 N580 2.214 . S
Co532 O533 2.160 . S
Co532 O538 2.058 . S
Co532 O548 2.057 . S
Co532 O563 2.037 . S
Co532 N567 2.145 . S
Co532 N588 2.257 . S
O533 Co531 2.143 . S
O533 Co532 2.160 . S
C534 O535 1.278 . S
C534 O542 1.224 . S
O535 C534 1.278 . S
C536 O537 1.245 . S
C536 O548 1.232 . S
O537 C536 1.245 . S
O538 Co532 2.058 . S
O538 C564 1.269 . S
O539 Co531 2.074 . S
O539 C564 1.257 . S
H540 C565 0.930 . S
H541 C571 0.930 . S
O542 Co531 2.093 . S
O542 C534 1.224 . S
H543 C575 0.929 . S
H544 C577 0.930 . S
H545 C578 0.930 . S
H546 C576 0.929 . S
H547 C579 0.928 . S
O548 Co532 2.057 . S
O548 C536 1.232 . S
H549 C568 0.929 . S
H550 C569 0.929 . S
H551 C581 0.931 . S
H552 C573 0.929 . S
H553 C582 0.930 . S
H554 C574 0.931 . S
O555 Co531 2.097 . S
O555 C583 1.214 . S
H556 C584 0.929 . S
H557 C585 0.929 . S
H558 C586 0.930 . S
H559 C587 0.929 . S
H560 C589 0.930 . S
H561 C566 0.930 . S
H562 C570 0.930 . S
O563 Co532 2.037 . S
O563 C583 1.234 . S
C564 O538 1.269 . S
C564 O539 1.257 . S
C565 H540 0.930 . S
C565 C568 1.388 . S
C565 C570 1.418 . S
C566 H561 0.930 . S
C566 C569 1.404 . S
C566 C570 1.353 . S
N567 Co532 2.145 . S
N567 C568 1.397 . S
N567 C569 1.334 . S
C568 H549 0.929 . S
C568 C565 1.388 . S
C568 N567 1.397 . S
C569 H550 0.929 . S
C569 C566 1.404 . S
C569 N567 1.334 . S
C570 H562 0.930 . S
C570 C565 1.418 . S
C570 C566 1.353 . S
C571 H541 0.930 . S
C571 N572 1.330 . S
C571 C573 1.446 . S
N572 Co531 2.151 . S
N572 C571 1.330 . S
N572 C576 1.418 . S
C573 H552 0.929 . S
C573 C571 1.446 . S
C573 C574 1.332 . S
C574 H554 0.931 . S
C574 C573 1.332 . S
C574 C575 1.267 . S
C575 H543 0.929 . S
C575 C574 1.267 . S
C575 C576 1.251 . S
C576 H546 0.929 . S
C576 N572 1.418 . S
C576 C575 1.251 . S
C577 H544 0.930 . S
C577 C579 1.406 . S
C577 C582 1.261 . S
C578 H545 0.930 . S
C578 N580 1.325 . S
C578 C581 1.357 . S
C579 H547 0.928 . S
C579 C577 1.406 . S
C579 N580 1.261 . S
N580 Co531 2.214 . S
N580 C578 1.325 . S
N580 C579 1.261 . S
C581 H551 0.931 . S
C581 C578 1.357 . S
C581 C582 1.312 . S
C582 H553 0.930 . S
C582 C577 1.261 . S
C582 C581 1.312 . S
C583 O555 1.214 . S
C583 O563 1.234 . S
C584 H556 0.929 . S
C584 C587 1.391 . S
C584 C589 1.391 . S
C585 H557 0.929 . S
C585 C586 1.390 . S
C585 N588 1.391 . S
C586 H558 0.930 . S
C586 C585 1.390 . S
C586 C587 1.392 . S
C587 H559 0.929 . S
C587 C584 1.391 . S
C587 C586 1.392 . S
N588 Co532 2.257 . S
N588 C585 1.391 . S
N588 C589 1.388 . S
C589 H560 0.930 . S
C589 C584 1.391 . S
C589 N588 1.388 . S
Co590 O592 2.143 . S
Co590 O598 2.074 . S
Co590 O601 2.093 . S
Co590 O614 2.097 . S
Co590 N631 2.136 . S
Co590 N639 2.214 1_455 S
Co591 O592 2.160 . S
Co591 O597 2.058 1_556 S
Co591 O607 2.057 . S
Co591 O622 2.037 . S
Co591 N626 2.145 . S
Co591 N647 2.257 . S
O592 Co590 2.143 . S
O592 Co591 2.160 . S
C593 O594 1.278 . S
C593 O601 1.224 . S
O594 C593 1.278 . S
C595 O596 1.245 . S
C595 O607 1.232 . S
O596 C595 1.245 . S
O597 Co591 2.058 1_554 S
O597 C623 1.269 . S
O598 Co590 2.074 . S
O598 C623 1.257 1_556 S
H599 C624 0.930 . S
H600 C630 0.930 . S
O601 Co590 2.093 . S
O601 C593 1.224 . S
H602 C634 0.929 . S
H603 C636 0.930 . S
H604 C637 0.930 . S
H605 C635 0.929 . S
H606 C638 0.928 . S
O607 Co591 2.057 . S
O607 C595 1.232 . S
H608 C627 0.929 . S
H609 C628 0.929 1_556 S
H610 C640 0.931 . S
H611 C632 0.961 . S
H612 C641 0.930 . S
H613 C633 0.931 . S
O614 Co590 2.097 . S
O614 C642 1.214 . S
H615 C643 0.929 . S
H616 C644 0.929 . S
H617 C645 0.930 . S
H618 C646 0.929 . S
H619 C648 0.930 . S
H620 C625 0.930 . S
H621 C629 0.930 . S
O622 Co591 2.037 . S
O622 C642 1.234 . S
C623 O597 1.269 . S
C623 O598 1.257 1_554 S
C624 H599 0.930 . S
C624 C627 1.388 . S
C624 C629 1.418 . S
C625 H620 0.930 . S
C625 C628 1.404 . S
C625 C629 1.353 . S
N626 Co591 2.145 . S
N626 C627 1.397 1_556 S
N626 C628 1.334 1_556 S
C627 H608 0.929 . S
C627 C624 1.388 . S
C627 N626 1.397 1_554 S
C628 H609 0.929 1_554 S
C628 C625 1.404 . S
C628 N626 1.334 1_554 S
C629 H621 0.930 . S
C629 C624 1.418 . S
C629 C625 1.353 . S
C630 H600 0.930 . S
C630 N631 1.366 . S
C630 C632 1.437 . S
N631 Co590 2.136 . S
N631 C630 1.366 . S
N631 C635 1.393 1_455 S
C632 H611 0.961 . S
C632 C630 1.437 . S
C632 C633 1.309 1_455 S
C633 H613 0.931 . S
C633 C632 1.309 1_655 S
C633 C634 1.267 . S
C634 H602 0.929 . S
C634 C633 1.267 . S
C634 C635 1.251 . S
C635 H605 0.929 . S
C635 N631 1.393 1_655 S
C635 C634 1.251 . S
C636 H603 0.930 . S
C636 C638 1.406 . S
C636 C641 1.261 . S
C637 H604 0.930 . S
C637 N639 1.325 . S
C637 C640 1.357 . S
C638 H606 0.928 . S
C638 C636 1.406 . S
C638 N639 1.261 . S
N639 Co590 2.214 1_655 S
N639 C637 1.325 . S
N639 C638 1.261 . S
C640 H610 0.931 . S
C640 C637 1.357 . S
C640 C641 1.312 . S
C641 H612 0.930 . S
C641 C636 1.261 . S
C641 C640 1.312 . S
C642 O614 1.214 . S
C642 O622 1.234 . S
C643 H615 0.929 . S
C643 C646 1.391 . S
C643 C648 1.391 . S
C644 H616 0.929 . S
C644 C645 1.390 . S
C644 N647 1.391 . S
C645 H617 0.930 . S
C645 C644 1.390 . S
C645 C646 1.392 . S
C646 H618 0.929 . S
C646 C643 1.391 . S
C646 C645 1.392 . S
N647 Co591 2.257 . S
N647 C644 1.391 . S
N647 C648 1.388 . S
C648 H619 0.930 . S
C648 C643 1.391 . S
C648 N647 1.388 . S
Co649 O651 2.143 . S
Co649 O657 2.074 . S
Co649 O660 2.093 . S
Co649 O673 2.097 . S
Co649 N690 2.193 . S
Co649 N698 2.214 1_545 S
Co650 O651 2.160 . S
Co650 O656 2.058 . S
Co650 O666 2.057 . S
Co650 O681 2.037 . S
Co650 N685 2.145 . S
Co650 N706 2.257 . S
O651 Co649 2.143 . S
O651 Co650 2.160 . S
C652 O653 1.278 . S
C652 O660 1.224 . S
O653 C652 1.278 . S
C654 O655 1.245 . S
C654 O666 1.232 . S
O655 C654 1.245 . S
O656 Co650 2.058 . S
O656 C682 1.269 . S
O657 Co649 2.074 . S
O657 C682 1.257 . S
H658 C683 0.930 . S
H659 C689 0.930 . S
O660 Co649 2.093 . S
O660 C652 1.224 . S
H661 C693 0.929 . S
H662 C695 0.930 . S
H663 C696 0.930 . S
H664 C694 0.929 . S
H665 C697 0.928 . S
O666 Co650 2.057 . S
O666 C654 1.232 . S
H667 C686 0.929 . S
H668 C687 0.929 . S
H669 C699 0.931 . S
H670 C691 0.930 . S
H671 C700 0.930 . S
H672 C692 0.931 . S
O673 Co649 2.097 . S
O673 C701 1.214 . S
H674 C702 0.929 . S
H675 C703 0.929 . S
H676 C704 0.930 . S
H677 C705 0.929 . S
H678 C707 0.930 . S
H679 C684 0.930 . S
H680 C688 0.930 . S
O681 Co650 2.037 . S
O681 C701 1.234 . S
C682 O656 1.269 . S
C682 O657 1.257 . S
C683 H658 0.930 . S
C683 C686 1.388 . S
C683 C688 1.418 . S
C684 H679 0.930 . S
C684 C687 1.404 . S
C684 C688 1.353 . S
N685 Co650 2.145 . S
N685 C686 1.397 . S
N685 C687 1.334 . S
C686 H667 0.929 . S
C686 C683 1.388 . S
C686 N685 1.397 . S
C687 H668 0.929 . S
C687 C684 1.404 . S
C687 N685 1.334 . S
C688 H680 0.930 . S
C688 C683 1.418 . S
C688 C684 1.353 . S
C689 H659 0.930 . S
C689 N690 1.328 . S
C689 C691 1.481 . S
N690 Co649 2.193 . S
N690 C689 1.328 . S
N690 C694 1.371 1_545 S
C691 H670 0.930 . S
C691 C689 1.481 . S
C691 C692 1.298 1_545 S
C692 H672 0.931 . S
C692 C691 1.298 1_565 S
C692 C693 1.267 . S
C693 H661 0.929 . S
C693 C692 1.267 . S
C693 C694 1.251 . S
C694 H664 0.929 . S
C694 N690 1.371 1_565 S
C694 C693 1.251 . S
C695 H662 0.930 . S
C695 C697 1.406 . S
C695 C700 1.261 . S
C696 H663 0.930 . S
C696 N698 1.325 . S
C696 C699 1.357 . S
C697 H665 0.928 . S
C697 C695 1.406 . S
C697 N698 1.261 . S
N698 Co649 2.214 1_565 S
N698 C696 1.325 . S
N698 C697 1.261 . S
C699 H669 0.931 . S
C699 C696 1.357 . S
C699 C700 1.312 . S
C700 H671 0.930 . S
C700 C695 1.261 . S
C700 C699 1.312 . S
C701 O673 1.214 . S
C701 O681 1.234 . S
C702 H674 0.929 . S
C702 C705 1.391 . S
C702 C707 1.391 . S
C703 H675 0.929 . S
C703 C704 1.390 . S
C703 N706 1.391 . S
C704 H676 0.930 . S
C704 C703 1.390 . S
C704 C705 1.392 . S
C705 H677 0.929 . S
C705 C702 1.391 . S
C705 C704 1.392 . S
N706 Co650 2.257 . S
N706 C703 1.391 . S
N706 C707 1.388 . S
C707 H678 0.930 . S
C707 C702 1.391 . S
C707 N706 1.388 . S
H708 C726 0.951 . S
H709 C728 0.951 . S
H710 C730 0.950 . S
H711 C731 0.950 . S
H712 C733 0.950 . S
H713 C736 0.950 . S
H714 C737 0.950 . S
H715 C739 0.950 . S
H716 C740 0.950 . S
H717 C741 0.951 . S
H718 C743 0.951 . S
H719 C745 0.950 . S
H720 C746 0.950 . S
H721 C748 0.950 . S
H722 C751 0.950 . S
H723 C752 0.950 . S
H724 C754 0.950 . S
H725 C755 0.950 . S
C726 H708 0.951 . S
C726 C727 1.366 . S
C726 C728 1.388 . S
C727 C726 1.366 . S
C727 C731 1.385 . S
C728 H709 0.951 . S
C728 C726 1.388 . S
C728 C729 1.366 . S
C729 C728 1.366 . S
C729 C730 1.414 . S
C729 C732 1.499 . S
C730 H710 0.950 . S
C730 C729 1.414 . S
C730 C731 1.374 . S
C731 H711 0.950 . S
C731 C727 1.385 . S
C731 C730 1.374 . S
C732 C729 1.499 . S
C732 C733 1.373 . S
C732 C734 1.389 . S
C733 H712 0.950 . S
C733 C732 1.373 . S
C733 C749 1.377 . S
C734 C732 1.389 . S
C734 C735 1.524 . S
C734 C748 1.377 . S
C735 C734 1.524 . S
C735 C736 1.397 . S
C735 C740 1.363 . S
C736 H713 0.950 . S
C736 C735 1.397 . S
C736 C737 1.334 . S
C737 H714 0.950 . S
C737 C736 1.334 . S
C737 C738 1.287 . S
C738 C737 1.287 . S
C738 C739 1.524 . S
C738 H757 0.913 . S
C739 H715 0.950 . S
C739 C738 1.524 . S
C739 C740 1.415 . S
C740 H716 0.950 . S
C740 C735 1.363 . S
C740 C739 1.415 . S
C741 H717 0.951 . S
C741 C742 1.366 . S
C741 C743 1.388 . S
C742 C741 1.366 . S
C742 C746 1.385 . S
C743 H718 0.951 . S
C743 C741 1.388 . S
C743 C744 1.366 . S
C744 C743 1.366 . S
C744 C745 1.414 . S
C744 C747 1.499 . S
C745 H719 0.950 . S
C745 C744 1.414 . S
C745 C746 1.374 . S
C746 H720 0.950 . S
C746 C742 1.385 . S
C746 C745 1.374 . S
C747 C744 1.499 . S
C747 C748 1.373 . S
C747 C749 1.389 . S
C748 H721 0.950 . S
C748 C734 1.377 . S
C748 C747 1.373 . S
C749 C733 1.377 . S
C749 C747 1.389 . S
C749 C750 1.524 . S
C750 C749 1.524 . S
C750 C751 1.397 . S
C750 C755 1.363 . S
C751 H722 0.950 . S
C751 C750 1.397 . S
C751 C752 1.334 . S
C752 H723 0.950 . S
C752 C751 1.334 . S
C752 C753 1.287 . S
C753 C752 1.287 . S
C753 C754 1.524 . S
C753 H756 0.999 . S
C754 H724 0.950 . S
C754 C753 1.524 . S
C754 C755 1.415 . S
C755 H725 0.950 . S
C755 C750 1.363 . S
C755 C754 1.415 . S
H756 C753 0.999 . S
H757 C738 0.913 . S
H758 C776 0.951 . S
H759 C778 0.951 . S
H760 C780 0.950 . S
H761 C781 0.937 1_455 S
H762 C783 0.950 . S
H763 C786 0.950 . S
H764 C787 0.950 1_455 S
H765 C789 0.950 . S
H766 C790 0.950 . S
H767 C791 0.951 . S
H768 C793 0.951 . S
H769 C795 0.950 . S
H770 C796 0.937 1_655 S
H771 C798 0.950 . S
H772 C801 0.950 . S
H773 C802 0.950 1_655 S
H774 C804 0.950 . S
H775 C805 0.950 . S
C776 H758 0.951 . S
C776 C777 1.366 . S
C776 C778 1.388 . S
C777 C776 1.366 . S
C777 C781 1.401 . S
C778 H759 0.951 . S
C778 C776 1.388 . S
C778 C779 1.366 . S
C779 C778 1.366 . S
C779 C780 1.414 1_655 S
C779 C782 1.499 . S
C780 H760 0.950 . S
C780 C779 1.414 1_455 S
C780 C781 1.370 1_455 S
C781 H761 0.937 1_655 S
C781 C777 1.401 . S
C781 C780 1.370 1_655 S
C782 C779 1.499 . S
C782 C783 1.373 1_655 S
C782 C784 1.389 . S
C783 H762 0.950 . S
C783 C782 1.373 1_455 S
C783 C799 1.377 . S
C784 C782 1.389 . S
C784 C785 1.524 . S
C784 C798 1.377 . S
C785 C784 1.524 . S
C785 C786 1.397 1_655 S
C785 C790 1.363 . S
C786 H763 0.950 . S
C786 C785 1.397 1_455 S
C786 C787 1.334 1_455 S
C787 H764 0.950 1_655 S
C787 C786 1.334 1_655 S
C787 C788 1.287 . S
C788 C787 1.287 . S
C788 C789 1.524 . S
C788 H807 0.913 . S
C789 H765 0.950 . S
C789 C788 1.524 . S
C789 C790 1.415 . S
C790 H766 0.950 . S
C790 C785 1.363 . S
C790 C789 1.415 . S
C791 H767 0.951 . S
C791 C792 1.366 . S
C791 C793 1.388 . S
C792 C791 1.366 . S
C792 C796 1.400 . S
C793 H768 0.951 . S
C793 C791 1.388 . S
C793 C794 1.366 . S
C794 C793 1.366 . S
C794 C795 1.414 1_455 S
C794 C797 1.499 . S
C795 H769 0.950 . S
C795 C794 1.414 1_655 S
C795 C796 1.371 1_655 S
C796 H770 0.937 1_455 S
C796 C792 1.400 . S
C796 C795 1.371 1_455 S
C797 C794 1.499 . S
C797 C798 1.373 1_455 S
C797 C799 1.389 . S
C798 H771 0.950 . S
C798 C784 1.377 . S
C798 C797 1.373 1_655 S
C799 C783 1.377 . S
C799 C797 1.389 . S
C799 C800 1.524 . S
C800 C799 1.524 . S
C800 C801 1.397 1_455 S
C800 C805 1.363 . S
C801 H772 0.950 . S
C801 C800 1.397 1_655 S
C801 C802 1.334 1_655 S
C802 H773 0.950 1_455 S
C802 C801 1.334 1_455 S
C802 C803 1.287 . S
C803 C802 1.287 . S
C803 C804 1.524 . S
C803 H806 0.999 . S
C804 H774 0.950 . S
C804 C803 1.524 . S
C804 C805 1.415 . S
C805 H775 0.950 . S
C805 C800 1.363 . S
C805 C804 1.415 . S
H806 C803 0.999 . S
H807 C788 0.913 . S
H808 C826 0.951 . S
H809 C828 0.951 1_545 S
H810 C830 0.950 . S
H811 C831 0.950 . S
H812 C833 0.950 . S
H813 C836 0.950 . S
H814 C837 0.950 . S
H815 C839 0.950 . S
H816 C840 0.950 . S
H817 C841 0.951 . S
H818 C843 0.951 1_565 S
H819 C845 0.950 . S
H820 C846 0.950 . S
H821 C848 0.950 . S
H822 C851 0.950 . S
H823 C852 0.950 . S
H824 C854 0.950 . S
H825 C855 0.950 . S
C826 H808 0.951 . S
C826 C827 1.366 . S
C826 C828 1.388 . S
C827 C826 1.366 . S
C827 C831 1.385 . S
C828 H809 0.951 1_565 S
C828 C826 1.388 . S
C828 C829 1.366 . S
C829 C828 1.366 . S
C829 C830 1.414 . S
C829 C832 1.499 . S
C830 H810 0.950 . S
C830 C829 1.414 . S
C830 C831 1.374 . S
C831 H811 0.950 . S
C831 C827 1.385 . S
C831 C830 1.374 . S
C832 C829 1.499 . S
C832 C833 1.373 . S
C832 C834 1.389 1_565 S
C833 H812 0.950 . S
C833 C832 1.373 . S
C833 C849 1.377 1_556 S
C834 C832 1.389 1_545 S
C834 C835 1.524 . S
C834 C848 1.377 1_556 S
C835 C834 1.524 . S
C835 C836 1.397 . S
C835 C840 1.363 . S
C836 H813 0.950 . S
C836 C835 1.397 . S
C836 C837 1.334 . S
C837 H814 0.950 . S
C837 C836 1.334 . S
C837 C838 1.287 . S
C838 C837 1.287 . S
C838 C839 1.524 . S
C838 H857 0.913 . S
C839 H815 0.950 . S
C839 C838 1.524 . S
C839 C840 1.415 . S
C840 H816 0.950 . S
C840 C835 1.363 . S
C840 C839 1.415 . S
C841 H817 0.951 . S
C841 C842 1.366 . S
C841 C843 1.388 . S
C842 C841 1.366 . S
C842 C846 1.385 . S
C843 H818 0.951 1_545 S
C843 C841 1.388 . S
C843 C844 1.366 . S
C844 C843 1.366 . S
C844 C845 1.414 . S
C844 C847 1.499 . S
C845 H819 0.950 . S
C845 C844 1.414 . S
C845 C846 1.374 . S
C846 H820 0.950 . S
C846 C842 1.385 . S
C846 C845 1.374 . S
C847 C844 1.499 . S
C847 C848 1.373 . S
C847 C849 1.389 1_545 S
C848 H821 0.950 . S
C848 C834 1.377 1_554 S
C848 C847 1.373 . S
C849 C833 1.377 1_554 S
C849 C847 1.389 1_565 S
C849 C850 1.524 . S
C850 C849 1.524 . S
C850 C851 1.397 . S
C850 C855 1.363 . S
C851 H822 0.950 . S
C851 C850 1.397 . S
C851 C852 1.334 . S
C852 H823 0.950 . S
C852 C851 1.334 . S
C852 C853 1.287 . S
C853 C852 1.287 . S
C853 C854 1.524 . S
C853 H856 0.999 . S
C854 H824 0.950 . S
C854 C853 1.524 . S
C854 C855 1.415 . S
C855 H825 0.950 . S
C855 C850 1.363 . S
C855 C854 1.415 . S
H856 C853 0.999 . S
H857 C838 0.913 . S
H858 C876 0.951 . S
H859 C878 0.951 . S
H860 C880 0.950 . S
H861 C881 0.950 . S
H862 C883 0.950 . S
H863 C886 0.950 . S
H864 C887 0.950 . S
H865 C889 0.950 . S
H866 C890 0.950 . S
H867 C891 0.951 . S
H868 C893 0.951 . S
H869 C895 0.950 . S
H870 C896 0.950 . S
H871 C898 0.950 . S
H872 C901 0.950 . S
H873 C902 0.950 . S
H874 C904 0.950 . S
H875 C905 0.950 . S
C876 H858 0.951 . S
C876 C877 1.366 . S
C876 C878 1.388 . S
C877 C876 1.366 . S
C877 C881 1.385 . S
C878 H859 0.951 . S
C878 C876 1.388 . S
C878 C879 1.366 . S
C879 C878 1.366 . S
C879 C880 1.414 . S
C879 C882 1.499 . S
C880 H860 0.950 . S
C880 C879 1.414 . S
C880 C881 1.374 . S
C881 H861 0.950 . S
C881 C877 1.385 . S
C881 C880 1.374 . S
C882 C879 1.499 . S
C882 C883 1.373 . S
C882 C884 1.389 . S
C883 H862 0.950 . S
C883 C882 1.373 . S
C883 C899 1.377 . S
C884 C882 1.389 . S
C884 C885 1.524 . S
C884 C898 1.377 . S
C885 C884 1.524 . S
C885 C886 1.397 . S
C885 C890 1.363 . S
C886 H863 0.950 . S
C886 C885 1.397 . S
C886 C887 1.334 . S
C887 H864 0.950 . S
C887 C886 1.334 . S
C887 C888 1.287 . S
C888 C887 1.287 . S
C888 C889 1.524 . S
C888 H907 0.913 . S
C889 H865 0.950 . S
C889 C888 1.524 . S
C889 C890 1.415 . S
C890 H866 0.950 . S
C890 C885 1.363 . S
C890 C889 1.415 . S
C891 H867 0.951 . S
C891 C892 1.366 . S
C891 C893 1.388 . S
C892 C891 1.366 . S
C892 C896 1.385 . S
C893 H868 0.951 . S
C893 C891 1.388 . S
C893 C894 1.366 . S
C894 C893 1.366 . S
C894 C895 1.414 . S
C894 C897 1.499 . S
C895 H869 0.950 . S
C895 C894 1.414 . S
C895 C896 1.374 . S
C896 H870 0.950 . S
C896 C892 1.385 . S
C896 C895 1.374 . S
C897 C894 1.499 . S
C897 C898 1.373 . S
C897 C899 1.389 . S
C898 H871 0.950 . S
C898 C884 1.377 . S
C898 C897 1.373 . S
C899 C883 1.377 . S
C899 C897 1.389 . S
C899 C900 1.524 . S
C900 C899 1.524 . S
C900 C901 1.397 . S
C900 C905 1.363 . S
C901 H872 0.950 . S
C901 C900 1.397 . S
C901 C902 1.334 . S
C902 H873 0.950 . S
C902 C901 1.334 . S
C902 C903 1.287 . S
C903 C902 1.287 . S
C903 C904 1.524 . S
C903 H906 0.999 . S
C904 H874 0.950 . S
C904 C903 1.524 . S
C904 C905 1.415 . S
C905 H875 0.950 . S
C905 C900 1.363 . S
C905 C904 1.415 . S
H906 C903 0.999 . S
H907 C888 0.913 . S
H908 C926 0.930 1_455 S
H909 C928 0.951 . S
H910 C930 0.950 . S
H911 C931 0.950 . S
H912 C933 0.950 . S
H913 C936 0.950 . S
H914 C937 0.950 . S
H915 C939 0.950 . S
H916 C940 0.950 . S
H917 C941 0.930 1_655 S
H918 C943 0.951 . S
H919 C945 0.950 . S
H920 C946 0.950 . S
H921 C948 0.950 . S
H922 C951 0.950 . S
H923 C952 0.950 . S
H924 C954 0.950 . S
H925 C955 0.950 . S
C926 H908 0.930 1_655 S
C926 C927 1.398 . S
C926 C928 1.379 1_655 S
C927 C926 1.398 . S
C927 C931 1.385 . S
C928 H909 0.951 . S
C928 C926 1.379 1_455 S
C928 C929 1.366 1_455 S
C929 C928 1.366 1_655 S
C929 C930 1.414 . S
C929 C932 1.499 . S
C930 H910 0.950 . S
C930 C929 1.414 . S
C930 C931 1.374 . S
C931 H911 0.950 . S
C931 C927 1.385 . S
C931 C930 1.374 . S
C932 C929 1.499 . S
C932 C933 1.373 . S
C932 C934 1.389 1_655 S
C933 H912 0.950 . S
C933 C932 1.373 . S
C933 C949 1.377 . S
C934 C932 1.389 1_455 S
C934 C935 1.524 . S
C934 C948 1.377 . S
C935 C934 1.524 . S
C935 C936 1.397 1_455 S
C935 C940 1.363 . S
C936 H913 0.950 . S
C936 C935 1.397 1_655 S
C936 C937 1.334 . S
C937 H914 0.950 . S
C937 C936 1.334 . S
C937 C938 1.273 1_655 S
C938 C937 1.273 1_455 S
C938 C939 1.555 . S
C938 H957 0.906 . S
C939 H915 0.950 . S
C939 C938 1.555 . S
C939 C940 1.415 . S
C940 H916 0.950 . S
C940 C935 1.363 . S
C940 C939 1.415 . S
C941 H917 0.930 1_455 S
C941 C942 1.399 . S
C941 C943 1.379 1_455 S
C942 C941 1.399 . S
C942 C946 1.385 . S
C943 H918 0.951 . S
C943 C941 1.379 1_655 S
C943 C944 1.366 1_655 S
C944 C943 1.366 1_455 S
C944 C945 1.414 . S
C944 C947 1.499 . S
C945 H919 0.950 . S
C945 C944 1.414 . S
C945 C946 1.374 . S
C946 H920 0.950 . S
C946 C942 1.385 . S
C946 C945 1.374 . S
C947 C944 1.499 . S
C947 C948 1.373 . S
C947 C949 1.389 1_455 S
C948 H921 0.950 . S
C948 C934 1.377 . S
C948 C947 1.373 . S
C949 C933 1.377 . S
C949 C947 1.389 1_655 S
C949 C950 1.524 . S
C950 C949 1.524 . S
C950 C951 1.397 1_655 S
C950 C955 1.363 . S
C951 H922 0.950 . S
C951 C950 1.397 1_455 S
C951 C952 1.334 . S
C952 H923 0.950 . S
C952 C951 1.334 . S
C952 C953 1.273 1_455 S
C953 C952 1.273 1_655 S
C953 C954 1.555 . S
C953 H956 0.985 . S
C954 H924 0.950 . S
C954 C953 1.555 . S
C954 C955 1.415 . S
C955 H925 0.950 . S
C955 C950 1.363 . S
C955 C954 1.415 . S
H956 C953 0.985 . S
H957 C938 0.906 . S
H958 C976 0.951 . S
H959 C978 0.951 . S
H960 C980 0.950 . S
H961 C981 0.972 . S
H962 C983 0.950 . S
H963 C986 0.950 . S
H964 C987 0.950 . S
H965 C989 0.950 . S
H966 C990 0.950 1_556 S
H967 C991 0.951 . S
H968 C993 0.951 . S
H969 C995 0.950 . S
H970 C996 0.972 . S
H971 C998 0.950 . S
H972 C1001 0.950 . S
H973 C1002 0.950 . S
H974 C1004 0.950 . S
H975 C1005 0.950 1_554 S
C976 H958 0.951 . S
C976 C977 1.366 . S
C976 C978 1.388 . S
C977 C976 1.366 . S
C977 C981 1.355 1_565 S
C978 H959 0.951 . S
C978 C976 1.388 . S
C978 C979 1.366 . S
C979 C978 1.366 . S
C979 C980 1.414 1_565 S
C979 C982 1.499 . S
C980 H960 0.950 . S
C980 C979 1.414 1_545 S
C980 C981 1.382 . S
C981 H961 0.972 . S
C981 C977 1.355 1_545 S
C981 C980 1.382 . S
C982 C979 1.499 . S
C982 C983 1.373 1_565 S
C982 C984 1.389 . S
C983 H962 0.950 . S
C983 C982 1.373 1_545 S
C983 C999 1.377 1_554 S
C984 C982 1.389 . S
C984 C985 1.524 . S
C984 C998 1.377 1_554 S
C985 C984 1.524 . S
C985 C986 1.397 . S
C985 C990 1.363 . S
C986 H963 0.950 . S
C986 C985 1.397 . S
C986 C987 1.334 . S
C987 H964 0.950 . S
C987 C986 1.334 . S
C987 C988 1.287 . S
C988 C987 1.287 . S
C988 C989 1.524 . S
C988 H1007 0.913 . S
C989 H965 0.950 . S
C989 C988 1.524 . S
C989 C990 1.415 . S
C990 H966 0.950 1_554 S
C990 C985 1.363 . S
C990 C989 1.415 . S
C991 H967 0.951 . S
C991 C992 1.366 . S
C991 C993 1.388 . S
C992 C991 1.366 . S
C992 C996 1.355 1_545 S
C993 H968 0.951 . S
C993 C991 1.388 . S
C993 C994 1.366 . S
C994 C993 1.366 . S
C994 C995 1.414 1_545 S
C994 C997 1.499 . S
C995 H969 0.950 . S
C995 C994 1.414 1_565 S
C995 C996 1.382 . S
C996 H970 0.972 . S
C996 C992 1.355 1_565 S
C996 C995 1.382 . S
C997 C994 1.499 . S
C997 C998 1.373 1_545 S
C997 C999 1.389 . S
C998 H971 0.950 . S
C998 C984 1.377 1_556 S
C998 C997 1.373 1_565 S
C999 C983 1.377 1_556 S
C999 C997 1.389 . S
C999 C1000 1.524 . S
C1000 C999 1.524 . S
C1000 C1001 1.397 . S
C1000 C1005 1.363 . S
C1001 H972 0.950 . S
C1001 C1000 1.397 . S
C1001 C1002 1.334 . S
C1002 H973 0.950 . S
C1002 C1001 1.334 . S
C1002 C1003 1.287 . S
C1003 C1002 1.287 . S
C1003 C1004 1.524 . S
C1003 H1006 0.999 . S
C1004 H974 0.950 . S
C1004 C1003 1.524 . S
C1004 C1005 1.415 . S
C1005 H975 0.950 1_556 S
C1005 C1000 1.363 . S
C1005 C1004 1.415 . S
H1006 C1003 0.999 . S
H1007 C988 0.913 . S
H1008 C1026 0.951 . S
H1009 C1028 0.951 . S
H1010 C1030 0.950 . S
H1011 C1031 0.950 . S
H1012 C1033 0.950 . S
H1013 C1036 0.950 . S
H1014 C1037 0.950 . S
H1015 C1039 0.950 . S
H1016 C1040 0.950 . S
H1017 C1041 0.951 . S
H1018 C1043 0.951 . S
H1019 C1045 0.950 . S
H1020 C1046 0.950 . S
H1021 C1048 0.950 . S
H1022 C1051 0.950 . S
H1023 C1052 0.950 . S
H1024 C1054 0.950 . S
H1025 C1055 0.950 . S
C1026 H1008 0.951 . S
C1026 C1027 1.366 . S
C1026 C1028 1.388 . S
C1027 C1026 1.366 . S
C1027 C1031 1.385 . S
C1028 H1009 0.951 . S
C1028 C1026 1.388 . S
C1028 C1029 1.366 . S
C1029 C1028 1.366 . S
C1029 C1030 1.414 . S
C1029 C1032 1.499 . S
C1030 H1010 0.950 . S
C1030 C1029 1.414 . S
C1030 C1031 1.374 . S
C1031 H1011 0.950 . S
C1031 C1027 1.385 . S
C1031 C1030 1.374 . S
C1032 C1029 1.499 . S
C1032 C1033 1.373 1_556 S
C1032 C1034 1.389 . S
C1033 H1012 0.950 . S
C1033 C1032 1.373 1_554 S
C1033 C1049 1.377 . S
C1034 C1032 1.389 . S
C1034 C1035 1.524 . S
C1034 C1048 1.377 . S
C1035 C1034 1.524 . S
C1035 C1036 1.397 . S
C1035 C1040 1.363 . S
C1036 H1013 0.950 . S
C1036 C1035 1.397 . S
C1036 C1037 1.334 . S
C1037 H1014 0.950 . S
C1037 C1036 1.334 . S
C1037 C1038 1.287 . S
C1038 C1037 1.287 . S
C1038 C1039 1.524 . S
C1038 H1057 0.913 . S
C1039 H1015 0.950 . S
C1039 C1038 1.524 . S
C1039 C1040 1.415 . S
C1040 H1016 0.950 . S
C1040 C1035 1.363 . S
C1040 C1039 1.415 . S
C1041 H1017 0.951 . S
C1041 C1042 1.366 . S
C1041 C1043 1.388 . S
C1042 C1041 1.366 . S
C1042 C1046 1.385 . S
C1043 H1018 0.951 . S
C1043 C1041 1.388 . S
C1043 C1044 1.366 . S
C1044 C1043 1.366 . S
C1044 C1045 1.414 . S
C1044 C1047 1.499 . S
C1045 H1019 0.950 . S
C1045 C1044 1.414 . S
C1045 C1046 1.374 . S
C1046 H1020 0.950 . S
C1046 C1042 1.385 . S
C1046 C1045 1.374 . S
C1047 C1044 1.499 . S
C1047 C1048 1.373 1_554 S
C1047 C1049 1.389 . S
C1048 H1021 0.950 . S
C1048 C1034 1.377 . S
C1048 C1047 1.373 1_556 S
C1049 C1033 1.377 . S
C1049 C1047 1.389 . S
C1049 C1050 1.524 . S
C1050 C1049 1.524 . S
C1050 C1051 1.397 . S
C1050 C1055 1.363 . S
C1051 H1022 0.950 . S
C1051 C1050 1.397 . S
C1051 C1052 1.334 . S
C1052 H1023 0.950 . S
C1052 C1051 1.334 . S
C1052 C1053 1.287 . S
C1053 C1052 1.287 . S
C1053 C1054 1.524 . S
C1053 H1056 0.999 . S
C1054 H1024 0.950 . S
C1054 C1053 1.524 . S
C1054 C1055 1.415 . S
C1055 H1025 0.950 . S
C1055 C1050 1.363 . S
C1055 C1054 1.415 . S
H1056 C1053 0.999 . S
H1057 C1038 0.913 . S
H1058 C1076 0.951 . S
H1059 C1078 0.951 . S
H1060 C1080 0.950 . S
H1061 C1081 0.950 . S
H1062 C1083 0.950 . S
H1063 C1086 0.950 . S
H1064 C1087 0.950 . S
H1065 C1089 0.950 . S
H1066 C1090 0.950 . S
H1067 C1091 0.951 . S
H1068 C1093 0.951 . S
H1069 C1095 0.950 . S
H1070 C1096 0.950 . S
H1071 C1098 0.950 . S
H1072 C1101 0.950 . S
H1073 C1102 0.950 . S
H1074 C1104 0.950 . S
H1075 C1105 0.950 . S
C1076 H1058 0.951 . S
C1076 C1077 1.366 . S
C1076 C1078 1.388 . S
C1077 C1076 1.366 . S
C1077 C1081 1.385 . S
C1078 H1059 0.951 . S
C1078 C1076 1.388 . S
C1078 C1079 1.366 . S
C1079 C1078 1.366 . S
C1079 C1080 1.414 . S
C1079 C1082 1.499 . S
C1080 H1060 0.950 . S
C1080 C1079 1.414 . S
C1080 C1081 1.374 . S
C1081 H1061 0.950 . S
C1081 C1077 1.385 . S
C1081 C1080 1.374 . S
C1082 C1079 1.499 . S
C1082 C1083 1.373 . S
C1082 C1084 1.389 . S
C1083 H1062 0.950 . S
C1083 C1082 1.373 . S
C1083 C1099 1.377 . S
C1084 C1082 1.389 . S
C1084 C1085 1.524 . S
C1084 C1098 1.377 . S
C1085 C1084 1.524 . S
C1085 C1086 1.397 . S
C1085 C1090 1.363 . S
C1086 H1063 0.950 . S
C1086 C1085 1.397 . S
C1086 C1087 1.334 . S
C1087 H1064 0.950 . S
C1087 C1086 1.334 . S
C1087 C1088 1.287 . S
C1088 C1087 1.287 . S
C1088 C1089 1.524 . S
C1088 H1107 0.913 . S
C1089 H1065 0.950 . S
C1089 C1088 1.524 . S
C1089 C1090 1.415 . S
C1090 H1066 0.950 . S
C1090 C1085 1.363 . S
C1090 C1089 1.415 . S
C1091 H1067 0.951 . S
C1091 C1092 1.366 . S
C1091 C1093 1.388 . S
C1092 C1091 1.366 . S
C1092 C1096 1.385 . S
C1093 H1068 0.951 . S
C1093 C1091 1.388 . S
C1093 C1094 1.366 . S
C1094 C1093 1.366 . S
C1094 C1095 1.414 . S
C1094 C1097 1.499 . S
C1095 H1069 0.950 . S
C1095 C1094 1.414 . S
C1095 C1096 1.374 . S
C1096 H1070 0.950 . S
C1096 C1092 1.385 . S
C1096 C1095 1.374 . S
C1097 C1094 1.499 . S
C1097 C1098 1.373 . S
C1097 C1099 1.389 . S
C1098 H1071 0.950 . S
C1098 C1084 1.377 . S
C1098 C1097 1.373 . S
C1099 C1083 1.377 . S
C1099 C1097 1.389 . S
C1099 C1100 1.524 . S
C1100 C1099 1.524 . S
C1100 C1101 1.397 . S
C1100 C1105 1.363 . S
C1101 H1072 0.950 . S
C1101 C1100 1.397 . S
C1101 C1102 1.334 . S
C1102 H1073 0.950 . S
C1102 C1101 1.334 . S
C1102 C1103 1.287 . S
C1103 C1102 1.287 . S
C1103 C1104 1.524 . S
C1103 H1106 0.999 . S
C1104 H1074 0.950 . S
C1104 C1103 1.524 . S
C1104 C1105 1.415 . S
C1105 H1075 0.950 . S
C1105 C1100 1.363 . S
C1105 C1104 1.415 . S
H1106 C1103 0.999 . S
H1107 C1088 0.913 . S
H1108 C1126 0.951 . S
H1109 C1128 0.951 . S
H1110 C1130 0.950 . S
H1111 C1131 0.950 . S
H1112 C1133 0.950 . S
H1113 C1136 0.950 . S
H1114 C1137 0.950 . S
H1115 C1139 0.950 . S
H1116 C1140 0.950 . S
H1117 C1141 0.951 . S
H1118 C1143 0.951 . S
H1119 C1145 0.950 . S
H1120 C1146 0.950 . S
H1121 C1148 0.950 . S
H1122 C1151 0.950 . S
H1123 C1152 0.950 . S
H1124 C1154 0.950 . S
H1125 C1155 0.950 . S
C1126 H1108 0.951 . S
C1126 C1127 1.366 . S
C1126 C1128 1.388 . S
C1127 C1126 1.366 . S
C1127 C1131 1.385 . S
C1128 H1109 0.951 . S
C1128 C1126 1.388 . S
C1128 C1129 1.366 . S
C1129 C1128 1.366 . S
C1129 C1130 1.414 . S
C1129 C1132 1.499 . S
C1130 H1110 0.950 . S
C1130 C1129 1.414 . S
C1130 C1131 1.374 . S
C1131 H1111 0.950 . S
C1131 C1127 1.385 . S
C1131 C1130 1.374 . S
C1132 C1129 1.499 . S
C1132 C1133 1.373 . S
C1132 C1134 1.389 . S
C1133 H1112 0.950 . S
C1133 C1132 1.373 . S
C1133 C1149 1.377 . S
C1134 C1132 1.389 . S
C1134 C1135 1.524 . S
C1134 C1148 1.377 . S
C1135 C1134 1.524 . S
C1135 C1136 1.397 . S
C1135 C1140 1.363 . S
C1136 H1113 0.950 . S
C1136 C1135 1.397 . S
C1136 C1137 1.334 . S
C1137 H1114 0.950 . S
C1137 C1136 1.334 . S
C1137 C1138 1.287 . S
C1138 C1137 1.287 . S
C1138 C1139 1.524 . S
C1138 H1157 0.913 . S
C1139 H1115 0.950 . S
C1139 C1138 1.524 . S
C1139 C1140 1.415 . S
C1140 H1116 0.950 . S
C1140 C1135 1.363 . S
C1140 C1139 1.415 . S
C1141 H1117 0.951 . S
C1141 C1142 1.366 . S
C1141 C1143 1.388 . S
C1142 C1141 1.366 . S
C1142 C1146 1.385 . S
C1143 H1118 0.951 . S
C1143 C1141 1.388 . S
C1143 C1144 1.366 . S
C1144 C1143 1.366 . S
C1144 C1145 1.414 . S
C1144 C1147 1.499 . S
C1145 H1119 0.950 . S
C1145 C1144 1.414 . S
C1145 C1146 1.374 . S
C1146 H1120 0.950 . S
C1146 C1142 1.385 . S
C1146 C1145 1.374 . S
C1147 C1144 1.499 . S
C1147 C1148 1.373 . S
C1147 C1149 1.389 . S
C1148 H1121 0.950 . S
C1148 C1134 1.377 . S
C1148 C1147 1.373 . S
C1149 C1133 1.377 . S
C1149 C1147 1.389 . S
C1149 C1150 1.524 . S
C1150 C1149 1.524 . S
C1150 C1151 1.397 . S
C1150 C1155 1.363 . S
C1151 H1122 0.950 . S
C1151 C1150 1.397 . S
C1151 C1152 1.334 . S
C1152 H1123 0.950 . S
C1152 C1151 1.334 . S
C1152 C1153 1.287 . S
C1153 C1152 1.287 . S
C1153 C1154 1.524 . S
C1153 H1156 0.999 . S
C1154 H1124 0.950 . S
C1154 C1153 1.524 . S
C1154 C1155 1.415 . S
C1155 H1125 0.950 . S
C1155 C1150 1.363 . S
C1155 C1154 1.415 . S
H1156 C1153 0.999 . S
H1157 C1138 0.913 . S
H1158 C1176 0.951 1_556 S
H1159 C1178 0.951 . S
H1160 C1180 0.950 . S
H1161 C1181 0.950 . S
H1162 C1183 0.950 . S
H1163 C1186 0.950 . S
H1164 C1187 0.950 1_554 S
H1165 C1189 0.950 . S
H1166 C1190 0.950 . S
H1167 C1191 0.951 1_554 S
H1168 C1193 0.951 . S
H1169 C1195 0.950 . S
H1170 C1196 0.950 . S
H1171 C1198 0.950 . S
H1172 C1201 0.950 . S
H1173 C1202 0.950 1_556 S
H1174 C1204 0.950 . S
H1175 C1205 0.950 . S
C1176 H1158 0.951 1_554 S
C1176 C1177 1.366 . S
C1176 C1178 1.388 1_554 S
C1177 C1176 1.366 . S
C1177 C1181 1.385 . S
C1178 H1159 0.951 . S
C1178 C1176 1.388 1_556 S
C1178 C1179 1.366 1_556 S
C1179 C1178 1.366 1_554 S
C1179 C1180 1.414 . S
C1179 C1182 1.499 . S
C1180 H1160 0.950 . S
C1180 C1179 1.414 . S
C1180 C1181 1.374 . S
C1181 H1161 0.950 . S
C1181 C1177 1.385 . S
C1181 C1180 1.374 . S
C1182 C1179 1.499 . S
C1182 C1183 1.373 . S
C1182 C1184 1.389 1_554 S
C1183 H1162 0.950 . S
C1183 C1182 1.373 . S
C1183 C1199 1.377 . S
C1184 C1182 1.389 1_556 S
C1184 C1185 1.524 . S
C1184 C1198 1.377 . S
C1185 C1184 1.524 . S
C1185 C1186 1.397 1_556 S
C1185 C1190 1.363 . S
C1186 H1163 0.950 . S
C1186 C1185 1.397 1_554 S
C1186 C1187 1.334 1_554 S
C1187 H1164 0.950 1_556 S
C1187 C1186 1.334 1_556 S
C1187 C1188 1.287 . S
C1188 C1187 1.287 . S
C1188 C1189 1.524 . S
C1188 H1207 0.913 . S
C1189 H1165 0.950 . S
C1189 C1188 1.524 . S
C1189 C1190 1.415 . S
C1190 H1166 0.950 . S
C1190 C1185 1.363 . S
C1190 C1189 1.415 . S
C1191 H1167 0.951 1_556 S
C1191 C1192 1.366 . S
C1191 C1193 1.388 1_556 S
C1192 C1191 1.366 . S
C1192 C1196 1.385 . S
C1193 H1168 0.951 . S
C1193 C1191 1.388 1_554 S
C1193 C1194 1.366 1_554 S
C1194 C1193 1.366 1_556 S
C1194 C1195 1.414 . S
C1194 C1197 1.499 . S
C1195 H1169 0.950 . S
C1195 C1194 1.414 . S
C1195 C1196 1.374 . S
C1196 H1170 0.950 . S
C1196 C1192 1.385 . S
C1196 C1195 1.374 . S
C1197 C1194 1.499 . S
C1197 C1198 1.373 . S
C1197 C1199 1.389 1_556 S
C1198 H1171 0.950 . S
C1198 C1184 1.377 . S
C1198 C1197 1.373 . S
C1199 C1183 1.377 . S
C1199 C1197 1.389 1_554 S
C1199 C1200 1.524 . S
C1200 C1199 1.524 . S
C1200 C1201 1.397 1_554 S
C1200 C1205 1.363 . S
C1201 H1172 0.950 . S
C1201 C1200 1.397 1_556 S
C1201 C1202 1.334 1_556 S
C1202 H1173 0.950 1_554 S
C1202 C1201 1.334 1_554 S
C1202 C1203 1.287 . S
C1203 C1202 1.287 . S
C1203 C1204 1.524 . S
C1203 H1206 0.999 . S
C1204 H1174 0.950 . S
C1204 C1203 1.524 . S
C1204 C1205 1.415 . S
C1205 H1175 0.950 . S
C1205 C1200 1.363 . S
C1205 C1204 1.415 . S
H1206 C1203 0.999 . S
H1207 C1188 0.913 . S
H1208 C1226 0.951 . S
H1209 C1228 0.951 . S
H1210 C1230 0.950 . S
H1211 C1231 0.950 . S
H1212 C1233 0.950 . S
H1213 C1236 0.950 . S
H1214 C1237 0.950 . S
H1215 C1239 0.950 . S
H1216 C1240 0.950 . S
H1217 C1241 0.951 . S
H1218 C1243 0.951 . S
H1219 C1245 0.950 . S
H1220 C1246 0.950 . S
H1221 C1248 0.950 . S
H1222 C1251 0.950 . S
H1223 C1252 0.950 . S
H1224 C1254 0.950 . S
H1225 C1255 0.950 . S
C1226 H1208 0.951 . S
C1226 C1227 1.366 . S
C1226 C1228 1.388 . S
C1227 C1226 1.366 . S
C1227 C1231 1.385 . S
C1228 H1209 0.951 . S
C1228 C1226 1.388 . S
C1228 C1229 1.366 . S
C1229 C1228 1.366 . S
C1229 C1230 1.414 . S
C1229 C1232 1.499 . S
C1230 H1210 0.950 . S
C1230 C1229 1.414 . S
C1230 C1231 1.374 . S
C1231 H1211 0.950 . S
C1231 C1227 1.385 . S
C1231 C1230 1.374 . S
C1232 C1229 1.499 . S
C1232 C1233 1.373 . S
C1232 C1234 1.389 . S
C1233 H1212 0.950 . S
C1233 C1232 1.373 . S
C1233 C1249 1.377 . S
C1234 C1232 1.389 . S
C1234 C1235 1.524 . S
C1234 C1248 1.377 . S
C1235 C1234 1.524 . S
C1235 C1236 1.397 . S
C1235 C1240 1.363 . S
C1236 H1213 0.950 . S
C1236 C1235 1.397 . S
C1236 C1237 1.334 . S
C1237 H1214 0.950 . S
C1237 C1236 1.334 . S
C1237 C1238 1.287 . S
C1238 C1237 1.287 . S
C1238 C1239 1.524 . S
C1238 H1257 0.913 . S
C1239 H1215 0.950 . S
C1239 C1238 1.524 . S
C1239 C1240 1.415 . S
C1240 H1216 0.950 . S
C1240 C1235 1.363 . S
C1240 C1239 1.415 . S
C1241 H1217 0.951 . S
C1241 C1242 1.366 . S
C1241 C1243 1.388 . S
C1242 C1241 1.366 . S
C1242 C1246 1.385 . S
C1243 H1218 0.951 . S
C1243 C1241 1.388 . S
C1243 C1244 1.366 . S
C1244 C1243 1.366 . S
C1244 C1245 1.414 . S
C1244 C1247 1.499 . S
C1245 H1219 0.950 . S
C1245 C1244 1.414 . S
C1245 C1246 1.374 . S
C1246 H1220 0.950 . S
C1246 C1242 1.385 . S
C1246 C1245 1.374 . S
C1247 C1244 1.499 . S
C1247 C1248 1.373 . S
C1247 C1249 1.389 . S
C1248 H1221 0.950 . S
C1248 C1234 1.377 . S
C1248 C1247 1.373 . S
C1249 C1233 1.377 . S
C1249 C1247 1.389 . S
C1249 C1250 1.524 . S
C1250 C1249 1.524 . S
C1250 C1251 1.397 . S
C1250 C1255 1.363 . S
C1251 H1222 0.950 . S
C1251 C1250 1.397 . S
C1251 C1252 1.334 . S
C1252 H1223 0.950 . S
C1252 C1251 1.334 . S
C1252 C1253 1.287 . S
C1253 C1252 1.287 . S
C1253 C1254 1.524 . S
C1253 H1256 0.999 . S
C1254 H1224 0.950 . S
C1254 C1253 1.524 . S
C1254 C1255 1.415 . S
C1255 H1225 0.950 . S
C1255 C1250 1.363 . S
C1255 C1254 1.415 . S
H1256 C1253 0.999 . S
H1257 C1238 0.913 . S
H1258 C1276 0.951 . S
H1259 C1278 0.951 . S
H1260 C1280 0.950 . S
H1261 C1281 0.950 . S
H1262 C1283 0.950 . S
H1263 C1286 0.950 . S
H1264 C1287 0.950 . S
H1265 C1289 0.950 . S
H1266 C1290 0.950 . S
H1267 C1291 0.951 . S
H1268 C1293 0.951 . S
H1269 C1295 0.950 . S
H1270 C1296 0.950 . S
H1271 C1298 0.950 . S
H1272 C1301 0.950 . S
H1273 C1302 0.950 . S
H1274 C1304 0.950 . S
H1275 C1305 0.950 . S
C1276 H1258 0.951 . S
C1276 C1277 1.366 . S
C1276 C1278 1.388 . S
C1277 C1276 1.366 . S
C1277 C1281 1.385 . S
C1278 H1259 0.951 . S
C1278 C1276 1.388 . S
C1278 C1279 1.366 . S
C1279 C1278 1.366 . S
C1279 C1280 1.414 . S
C1279 C1282 1.499 . S
C1280 H1260 0.950 . S
C1280 C1279 1.414 . S
C1280 C1281 1.374 . S
C1281 H1261 0.950 . S
C1281 C1277 1.385 . S
C1281 C1280 1.374 . S
C1282 C1279 1.499 . S
C1282 C1283 1.373 . S
C1282 C1284 1.389 . S
C1283 H1262 0.950 . S
C1283 C1282 1.373 . S
C1283 C1299 1.377 . S
C1284 C1282 1.389 . S
C1284 C1285 1.524 . S
C1284 C1298 1.377 . S
C1285 C1284 1.524 . S
C1285 C1286 1.397 . S
C1285 C1290 1.363 . S
C1286 H1263 0.950 . S
C1286 C1285 1.397 . S
C1286 C1287 1.334 . S
C1287 H1264 0.950 . S
C1287 C1286 1.334 . S
C1287 C1288 1.287 . S
C1288 C1287 1.287 . S
C1288 C1289 1.524 . S
C1288 H1307 0.913 . S
C1289 H1265 0.950 . S
C1289 C1288 1.524 . S
C1289 C1290 1.415 . S
C1290 H1266 0.950 . S
C1290 C1285 1.363 . S
C1290 C1289 1.415 . S
C1291 H1267 0.951 . S
C1291 C1292 1.366 . S
C1291 C1293 1.388 . S
C1292 C1291 1.366 . S
C1292 C1296 1.385 . S
C1293 H1268 0.951 . S
C1293 C1291 1.388 . S
C1293 C1294 1.366 . S
C1294 C1293 1.366 . S
C1294 C1295 1.414 . S
C1294 C1297 1.499 . S
C1295 H1269 0.950 . S
C1295 C1294 1.414 . S
C1295 C1296 1.374 . S
C1296 H1270 0.950 . S
C1296 C1292 1.385 . S
C1296 C1295 1.374 . S
C1297 C1294 1.499 . S
C1297 C1298 1.373 . S
C1297 C1299 1.389 . S
C1298 H1271 0.950 . S
C1298 C1284 1.377 . S
C1298 C1297 1.373 . S
C1299 C1283 1.377 . S
C1299 C1297 1.389 . S
C1299 C1300 1.524 . S
C1300 C1299 1.524 . S
C1300 C1301 1.397 . S
C1300 C1305 1.363 . S
C1301 H1272 0.950 . S
C1301 C1300 1.397 . S
C1301 C1302 1.334 . S
C1302 H1273 0.950 . S
C1302 C1301 1.334 . S
C1302 C1303 1.287 . S
C1303 C1302 1.287 . S
C1303 C1304 1.524 . S
C1303 H1306 0.999 . S
C1304 H1274 0.950 . S
C1304 C1303 1.524 . S
C1304 C1305 1.415 . S
C1305 H1275 0.950 . S
C1305 C1300 1.363 . S
C1305 C1304 1.415 . S
H1306 C1303 0.999 . S
H1307 C1288 0.913 . S
H1308 C1326 0.951 . S
H1309 C1328 0.951 . S
H1310 C1330 0.950 . S
H1311 C1331 0.950 . S
H1312 C1333 0.950 . S
H1313 C1336 0.950 . S
H1314 C1337 0.950 . S
H1315 C1339 0.950 . S
H1316 C1340 0.950 . S
H1317 C1341 0.951 . S
H1318 C1343 0.951 . S
H1319 C1345 0.950 . S
H1320 C1346 0.950 . S
H1321 C1348 0.950 . S
H1322 C1351 0.950 . S
H1323 C1352 0.950 . S
H1324 C1354 0.950 . S
H1325 C1355 0.950 . S
C1326 H1308 0.951 . S
C1326 C1327 1.366 . S
C1326 C1328 1.388 . S
C1327 C1326 1.366 . S
C1327 C1331 1.385 . S
C1328 H1309 0.951 . S
C1328 C1326 1.388 . S
C1328 C1329 1.366 . S
C1329 C1328 1.366 . S
C1329 C1330 1.414 . S
C1329 C1332 1.499 . S
C1330 H1310 0.950 . S
C1330 C1329 1.414 . S
C1330 C1331 1.374 . S
C1331 H1311 0.950 . S
C1331 C1327 1.385 . S
C1331 C1330 1.374 . S
C1332 C1329 1.499 . S
C1332 C1333 1.373 . S
C1332 C1334 1.389 . S
C1333 H1312 0.950 . S
C1333 C1332 1.373 . S
C1333 C1349 1.377 . S
C1334 C1332 1.389 . S
C1334 C1335 1.524 . S
C1334 C1348 1.377 . S
C1335 C1334 1.524 . S
C1335 C1336 1.397 . S
C1335 C1340 1.363 . S
C1336 H1313 0.950 . S
C1336 C1335 1.397 . S
C1336 C1337 1.334 . S
C1337 H1314 0.950 . S
C1337 C1336 1.334 . S
C1337 C1338 1.287 . S
C1338 C1337 1.287 . S
C1338 C1339 1.524 . S
C1338 H1357 0.913 . S
C1339 H1315 0.950 . S
C1339 C1338 1.524 . S
C1339 C1340 1.415 . S
C1340 H1316 0.950 . S
C1340 C1335 1.363 . S
C1340 C1339 1.415 . S
C1341 H1317 0.951 . S
C1341 C1342 1.366 . S
C1341 C1343 1.388 . S
C1342 C1341 1.366 . S
C1342 C1346 1.385 . S
C1343 H1318 0.951 . S
C1343 C1341 1.388 . S
C1343 C1344 1.366 . S
C1344 C1343 1.366 . S
C1344 C1345 1.414 . S
C1344 C1347 1.499 . S
C1345 H1319 0.950 . S
C1345 C1344 1.414 . S
C1345 C1346 1.374 . S
C1346 H1320 0.950 . S
C1346 C1342 1.385 . S
C1346 C1345 1.374 . S
C1347 C1344 1.499 . S
C1347 C1348 1.373 . S
C1347 C1349 1.389 . S
C1348 H1321 0.950 . S
C1348 C1334 1.377 . S
C1348 C1347 1.373 . S
C1349 C1333 1.377 . S
C1349 C1347 1.389 . S
C1349 C1350 1.524 . S
C1350 C1349 1.524 . S
C1350 C1351 1.397 . S
C1350 C1355 1.363 . S
C1351 H1322 0.950 . S
C1351 C1350 1.397 . S
C1351 C1352 1.334 . S
C1352 H1323 0.950 . S
C1352 C1351 1.334 . S
C1352 C1353 1.287 . S
C1353 C1352 1.287 . S
C1353 C1354 1.524 . S
C1353 H1356 0.999 . S
C1354 H1324 0.950 . S
C1354 C1353 1.524 . S
C1354 C1355 1.415 . S
C1355 H1325 0.950 . S
C1355 C1350 1.363 . S
C1355 C1354 1.415 . S
H1356 C1353 0.999 . S
H1357 C1338 0.913 . S
H1358 C1376 0.951 . S
H1359 C1378 0.951 . S
H1360 C1380 0.950 . S
H1361 C1381 0.950 . S
H1362 C1383 0.950 . S
H1363 C1386 0.950 . S
H1364 C1387 0.950 . S
H1365 C1389 0.950 . S
H1366 C1390 0.950 . S
H1367 C1391 0.951 . S
H1368 C1393 0.951 . S
H1369 C1395 0.950 . S
H1370 C1396 0.950 . S
H1371 C1398 0.950 . S
H1372 C1401 0.950 . S
H1373 C1402 0.950 . S
H1374 C1404 0.950 . S
H1375 C1405 0.950 . S
C1376 H1358 0.951 . S
C1376 C1377 1.366 . S
C1376 C1378 1.388 . S
C1377 C1376 1.366 . S
C1377 C1381 1.385 . S
C1378 H1359 0.951 . S
C1378 C1376 1.388 . S
C1378 C1379 1.366 . S
C1379 C1378 1.366 . S
C1379 C1380 1.414 . S
C1379 C1382 1.499 . S
C1380 H1360 0.950 . S
C1380 C1379 1.414 . S
C1380 C1381 1.374 . S
C1381 H1361 0.950 . S
C1381 C1377 1.385 . S
C1381 C1380 1.374 . S
C1382 C1379 1.499 . S
C1382 C1383 1.373 . S
C1382 C1384 1.389 1_655 S
C1383 H1362 0.950 . S
C1383 C1382 1.373 . S
C1383 C1399 1.377 . S
C1384 C1382 1.389 1_455 S
C1384 C1385 1.524 . S
C1384 C1398 1.377 . S
C1385 C1384 1.524 . S
C1385 C1386 1.397 . S
C1385 C1390 1.363 . S
C1386 H1363 0.950 . S
C1386 C1385 1.397 . S
C1386 C1387 1.334 . S
C1387 H1364 0.950 . S
C1387 C1386 1.334 . S
C1387 C1388 1.287 . S
C1388 C1387 1.287 . S
C1388 C1389 1.524 . S
C1388 H1407 0.913 . S
C1389 H1365 0.950 . S
C1389 C1388 1.524 . S
C1389 C1390 1.415 . S
C1390 H1366 0.950 . S
C1390 C1385 1.363 . S
C1390 C1389 1.415 . S
C1391 H1367 0.951 . S
C1391 C1392 1.366 . S
C1391 C1393 1.388 . S
C1392 C1391 1.366 . S
C1392 C1396 1.385 . S
C1393 H1368 0.951 . S
C1393 C1391 1.388 . S
C1393 C1394 1.366 . S
C1394 C1393 1.366 . S
C1394 C1395 1.414 . S
C1394 C1397 1.499 . S
C1395 H1369 0.950 . S
C1395 C1394 1.414 . S
C1395 C1396 1.374 . S
C1396 H1370 0.950 . S
C1396 C1392 1.385 . S
C1396 C1395 1.374 . S
C1397 C1394 1.499 . S
C1397 C1398 1.373 . S
C1397 C1399 1.389 1_455 S
C1398 H1371 0.950 . S
C1398 C1384 1.377 . S
C1398 C1397 1.373 . S
C1399 C1383 1.377 . S
C1399 C1397 1.389 1_655 S
C1399 C1400 1.524 . S
C1400 C1399 1.524 . S
C1400 C1401 1.397 . S
C1400 C1405 1.363 . S
C1401 H1372 0.950 . S
C1401 C1400 1.397 . S
C1401 C1402 1.334 . S
C1402 H1373 0.950 . S
C1402 C1401 1.334 . S
C1402 C1403 1.287 . S
C1403 C1402 1.287 . S
C1403 C1404 1.524 . S
C1403 H1406 0.999 . S
C1404 H1374 0.950 . S
C1404 C1403 1.524 . S
C1404 C1405 1.415 . S
C1405 H1375 0.950 . S
C1405 C1400 1.363 . S
C1405 C1404 1.415 . S
H1406 C1403 0.999 . S
H1407 C1388 0.913 . S
H1408 C1426 0.951 . S
H1409 C1428 0.951 . S
H1410 C1430 0.950 . S
H1411 C1431 0.954 . S
H1412 C1433 0.950 . S
H1413 C1436 0.950 . S
H1414 C1437 0.950 . S
H1415 C1439 0.950 . S
H1416 C1440 0.950 . S
H1417 C1441 0.951 . S
H1418 C1443 0.951 . S
H1419 C1445 0.950 . S
H1420 C1446 0.954 . S
H1421 C1448 0.950 . S
H1422 C1451 0.950 . S
H1423 C1452 0.950 . S
H1424 C1454 0.950 . S
H1425 C1455 0.950 . S
C1426 H1408 0.951 . S
C1426 C1427 1.366 . S
C1426 C1428 1.388 . S
C1427 C1426 1.366 . S
C1427 C1431 1.379 1_565 S
C1428 H1409 0.951 . S
C1428 C1426 1.388 . S
C1428 C1429 1.366 . S
C1429 C1428 1.366 . S
C1429 C1430 1.414 1_565 S
C1429 C1432 1.499 . S
C1430 H1410 0.950 . S
C1430 C1429 1.414 1_545 S
C1430 C1431 1.376 . S
C1431 H1411 0.954 . S
C1431 C1427 1.379 1_545 S
C1431 C1430 1.376 . S
C1432 C1429 1.499 . S
C1432 C1433 1.373 1_565 S
C1432 C1434 1.389 . S
C1433 H1412 0.950 . S
C1433 C1432 1.373 1_545 S
C1433 C1449 1.377 . S
C1434 C1432 1.389 . S
C1434 C1435 1.524 . S
C1434 C1448 1.377 . S
C1435 C1434 1.524 . S
C1435 C1436 1.397 . S
C1435 C1440 1.363 . S
C1436 H1413 0.950 . S
C1436 C1435 1.397 . S
C1436 C1437 1.334 . S
C1437 H1414 0.950 . S
C1437 C1436 1.334 . S
C1437 C1438 1.287 . S
C1438 C1437 1.287 . S
C1438 C1439 1.524 . S
C1438 H1457 0.913 . S
C1439 H1415 0.950 . S
C1439 C1438 1.524 . S
C1439 C1440 1.415 . S
C1440 H1416 0.950 . S
C1440 C1435 1.363 . S
C1440 C1439 1.415 . S
C1441 H1417 0.951 . S
C1441 C1442 1.366 . S
C1441 C1443 1.388 . S
C1442 C1441 1.366 . S
C1442 C1446 1.379 1_545 S
C1443 H1418 0.951 . S
C1443 C1441 1.388 . S
C1443 C1444 1.366 . S
C1444 C1443 1.366 . S
C1444 C1445 1.414 1_545 S
C1444 C1447 1.499 . S
C1445 H1419 0.950 . S
C1445 C1444 1.414 1_565 S
C1445 C1446 1.376 . S
C1446 H1420 0.954 . S
C1446 C1442 1.379 1_565 S
C1446 C1445 1.376 . S
C1447 C1444 1.499 . S
C1447 C1448 1.373 1_545 S
C1447 C1449 1.389 . S
C1448 H1421 0.950 . S
C1448 C1434 1.377 . S
C1448 C1447 1.373 1_565 S
C1449 C1433 1.377 . S
C1449 C1447 1.389 . S
C1449 C1450 1.524 . S
C1450 C1449 1.524 . S
C1450 C1451 1.397 . S
C1450 C1455 1.363 . S
C1451 H1422 0.950 . S
C1451 C1450 1.397 . S
C1451 C1452 1.334 . S
C1452 H1423 0.950 . S
C1452 C1451 1.334 . S
C1452 C1453 1.287 . S
C1453 C1452 1.287 . S
C1453 C1454 1.524 . S
C1453 H1456 0.999 . S
C1454 H1424 0.950 . S
C1454 C1453 1.524 . S
C1454 C1455 1.415 . S
C1455 H1425 0.950 . S
C1455 C1450 1.363 . S
C1455 C1454 1.415 . S
H1456 C1453 0.999 . S
H1457 C1438 0.913 . S
H1458 C1476 0.951 . S
H1459 C1478 0.951 . S
H1460 C1480 0.950 . S
H1461 C1481 0.950 . S
H1462 C1483 0.950 . S
H1463 C1486 0.950 . S
H1464 C1487 0.950 . S
H1465 C1489 0.950 . S
H1466 C1490 0.950 . S
H1467 C1491 0.951 . S
H1468 C1493 0.951 . S
H1469 C1495 0.950 . S
H1470 C1496 0.950 . S
H1471 C1498 0.950 . S
H1472 C1501 0.950 . S
H1473 C1502 0.950 . S
H1474 C1504 0.950 . S
H1475 C1505 0.950 . S
C1476 H1458 0.951 . S
C1476 C1477 1.366 . S
C1476 C1478 1.388 . S
C1477 C1476 1.366 . S
C1477 C1481 1.385 . S
C1478 H1459 0.951 . S
C1478 C1476 1.388 . S
C1478 C1479 1.366 . S
C1479 C1478 1.366 . S
C1479 C1480 1.414 . S
C1479 C1482 1.499 . S
C1480 H1460 0.950 . S
C1480 C1479 1.414 . S
C1480 C1481 1.374 . S
C1481 H1461 0.950 . S
C1481 C1477 1.385 . S
C1481 C1480 1.374 . S
C1482 C1479 1.499 . S
C1482 C1483 1.373 . S
C1482 C1484 1.389 . S
C1483 H1462 0.950 . S
C1483 C1482 1.373 . S
C1483 C1499 1.377 . S
C1484 C1482 1.389 . S
C1484 C1485 1.524 . S
C1484 C1498 1.377 . S
C1485 C1484 1.524 . S
C1485 C1486 1.397 . S
C1485 C1490 1.363 . S
C1486 H1463 0.950 . S
C1486 C1485 1.397 . S
C1486 C1487 1.334 . S
C1487 H1464 0.950 . S
C1487 C1486 1.334 . S
C1487 C1488 1.287 . S
C1488 C1487 1.287 . S
C1488 C1489 1.524 . S
C1488 H1507 0.913 . S
C1489 H1465 0.950 . S
C1489 C1488 1.524 . S
C1489 C1490 1.415 . S
C1490 H1466 0.950 . S
C1490 C1485 1.363 . S
C1490 C1489 1.415 . S
C1491 H1467 0.951 . S
C1491 C1492 1.366 . S
C1491 C1493 1.388 . S
C1492 C1491 1.366 . S
C1492 C1496 1.385 . S
C1493 H1468 0.951 . S
C1493 C1491 1.388 . S
C1493 C1494 1.366 . S
C1494 C1493 1.366 . S
C1494 C1495 1.414 . S
C1494 C1497 1.499 . S
C1495 H1469 0.950 . S
C1495 C1494 1.414 . S
C1495 C1496 1.374 . S
C1496 H1470 0.950 . S
C1496 C1492 1.385 . S
C1496 C1495 1.374 . S
C1497 C1494 1.499 . S
C1497 C1498 1.373 . S
C1497 C1499 1.389 . S
C1498 H1471 0.950 . S
C1498 C1484 1.377 . S
C1498 C1497 1.373 . S
C1499 C1483 1.377 . S
C1499 C1497 1.389 . S
C1499 C1500 1.524 . S
C1500 C1499 1.524 . S
C1500 C1501 1.397 . S
C1500 C1505 1.363 . S
C1501 H1472 0.950 . S
C1501 C1500 1.397 . S
C1501 C1502 1.334 . S
C1502 H1473 0.950 . S
C1502 C1501 1.334 . S
C1502 C1503 1.287 . S
C1503 C1502 1.287 . S
C1503 C1504 1.524 . S
C1503 H1506 0.999 . S
C1504 H1474 0.950 . S
C1504 C1503 1.524 . S
C1504 C1505 1.415 . S
C1505 H1475 0.950 . S
C1505 C1500 1.363 . S
C1505 C1504 1.415 . S
H1506 C1503 0.999 . S
H1507 C1488 0.913 . S
H1508 C1526 0.951 . S
H1509 C1528 0.951 . S
H1510 C1530 0.951 1_655 S
H1511 C1531 0.950 1_655 S
H1512 C1533 0.950 . S
H1513 C1536 0.950 . S
H1514 C1537 0.950 . S
H1515 C1539 0.952 1_455 S
H1516 C1540 0.955 . S
H1517 C1541 0.951 . S
H1518 C1543 0.951 . S
H1519 C1545 0.951 1_455 S
H1520 C1546 0.950 1_455 S
H1521 C1548 0.950 . S
H1522 C1551 0.950 . S
H1523 C1552 0.950 . S
H1524 C1554 0.952 1_655 S
H1525 C1555 0.955 . S
C1526 H1508 0.951 . S
C1526 C1527 1.366 . S
C1526 C1528 1.388 . S
C1527 C1526 1.366 . S
C1527 C1531 1.385 . S
C1528 H1509 0.951 . S
C1528 C1526 1.388 . S
C1528 C1529 1.366 . S
C1529 C1528 1.366 . S
C1529 C1530 1.414 . S
C1529 C1532 1.499 . S
C1530 H1510 0.951 1_455 S
C1530 C1529 1.414 . S
C1530 C1531 1.373 . S
C1531 H1511 0.950 1_455 S
C1531 C1527 1.385 . S
C1531 C1530 1.373 . S
C1532 C1529 1.499 . S
C1532 C1533 1.373 . S
C1532 C1534 1.389 1_455 S
C1533 H1512 0.950 . S
C1533 C1532 1.373 . S
C1533 C1549 1.377 . S
C1534 C1532 1.389 1_655 S
C1534 C1535 1.524 . S
C1534 C1548 1.377 . S
C1535 C1534 1.524 . S
C1535 C1536 1.397 . S
C1535 C1540 1.364 1_655 S
C1536 H1513 0.950 . S
C1536 C1535 1.397 . S
C1536 C1537 1.334 . S
C1537 H1514 0.950 . S
C1537 C1536 1.334 . S
C1537 C1538 1.287 . S
C1538 C1537 1.287 . S
C1538 C1539 1.524 . S
C1538 H1557 0.913 . S
C1539 H1515 0.952 1_655 S
C1539 C1538 1.524 . S
C1539 C1540 1.409 1_655 S
C1540 H1516 0.955 . S
C1540 C1535 1.364 1_455 S
C1540 C1539 1.409 1_455 S
C1541 H1517 0.951 . S
C1541 C1542 1.366 . S
C1541 C1543 1.388 . S
C1542 C1541 1.366 . S
C1542 C1546 1.385 . S
C1543 H1518 0.951 . S
C1543 C1541 1.388 . S
C1543 C1544 1.366 . S
C1544 C1543 1.366 . S
C1544 C1545 1.414 . S
C1544 C1547 1.499 . S
C1545 H1519 0.951 1_655 S
C1545 C1544 1.414 . S
C1545 C1546 1.373 . S
C1546 H1520 0.950 1_655 S
C1546 C1542 1.385 . S
C1546 C1545 1.373 . S
C1547 C1544 1.499 . S
C1547 C1548 1.373 . S
C1547 C1549 1.389 1_655 S
C1548 H1521 0.950 . S
C1548 C1534 1.377 . S
C1548 C1547 1.373 . S
C1549 C1533 1.377 . S
C1549 C1547 1.389 1_455 S
C1549 C1550 1.524 . S
C1550 C1549 1.524 . S
C1550 C1551 1.397 . S
C1550 C1555 1.364 1_455 S
C1551 H1522 0.950 . S
C1551 C1550 1.397 . S
C1551 C1552 1.334 . S
C1552 H1523 0.950 . S
C1552 C1551 1.334 . S
C1552 C1553 1.287 . S
C1553 C1552 1.287 . S
C1553 C1554 1.524 . S
C1553 H1556 0.999 . S
C1554 H1524 0.952 1_455 S
C1554 C1553 1.524 . S
C1554 C1555 1.410 1_455 S
C1555 H1525 0.955 . S
C1555 C1550 1.364 1_655 S
C1555 C1554 1.410 1_655 S
H1556 C1553 0.999 . S
H1557 C1538 0.913 . S
H1558 C1576 0.951 . S
H1559 C1578 0.951 . S
H1560 C1580 0.950 . S
H1561 C1581 0.950 . S
H1562 C1583 0.950 . S
H1563 C1586 0.950 . S
H1564 C1587 0.950 . S
H1565 C1589 0.950 . S
H1566 C1590 0.950 . S
H1567 C1591 0.951 . S
H1568 C1593 0.951 . S
H1569 C1595 0.950 . S
H1570 C1596 0.950 . S
H1571 C1598 0.950 . S
H1572 C1601 0.950 . S
H1573 C1602 0.950 . S
H1574 C1604 0.950 . S
H1575 C1605 0.950 . S
C1576 H1558 0.951 . S
C1576 C1577 1.366 1_545 S
C1576 C1578 1.388 . S
C1577 C1576 1.366 1_565 S
C1577 C1581 1.385 . S
C1578 H1559 0.951 . S
C1578 C1576 1.388 . S
C1578 C1579 1.366 1_545 S
C1579 C1578 1.366 1_565 S
C1579 C1580 1.414 . S
C1579 C1582 1.499 . S
C1580 H1560 0.950 . S
C1580 C1579 1.414 . S
C1580 C1581 1.374 . S
C1581 H1561 0.950 . S
C1581 C1577 1.385 . S
C1581 C1580 1.374 . S
C1582 C1579 1.499 . S
C1582 C1583 1.373 . S
C1582 C1584 1.389 1_565 S
C1583 H1562 0.950 . S
C1583 C1582 1.373 . S
C1583 C1599 1.377 . S
C1584 C1582 1.389 1_545 S
C1584 C1585 1.524 . S
C1584 C1598 1.377 . S
C1585 C1584 1.524 . S
C1585 C1586 1.397 . S
C1585 C1590 1.363 . S
C1586 H1563 0.950 . S
C1586 C1585 1.397 . S
C1586 C1587 1.334 . S
C1587 H1564 0.950 . S
C1587 C1586 1.334 . S
C1587 C1588 1.287 . S
C1588 C1587 1.287 . S
C1588 C1589 1.524 . S
C1588 H1607 0.913 . S
C1589 H1565 0.950 . S
C1589 C1588 1.524 . S
C1589 C1590 1.415 . S
C1590 H1566 0.950 . S
C1590 C1585 1.363 . S
C1590 C1589 1.415 . S
C1591 H1567 0.951 . S
C1591 C1592 1.366 1_565 S
C1591 C1593 1.388 . S
C1592 C1591 1.366 1_545 S
C1592 C1596 1.385 . S
C1593 H1568 0.951 . S
C1593 C1591 1.388 . S
C1593 C1594 1.366 1_565 S
C1594 C1593 1.366 1_545 S
C1594 C1595 1.414 . S
C1594 C1597 1.499 . S
C1595 H1569 0.950 . S
C1595 C1594 1.414 . S
C1595 C1596 1.374 . S
C1596 H1570 0.950 . S
C1596 C1592 1.385 . S
C1596 C1595 1.374 . S
C1597 C1594 1.499 . S
C1597 C1598 1.373 . S
C1597 C1599 1.389 1_545 S
C1598 H1571 0.950 . S
C1598 C1584 1.377 . S
C1598 C1597 1.373 . S
C1599 C1583 1.377 . S
C1599 C1597 1.389 1_565 S
C1599 C1600 1.524 . S
C1600 C1599 1.524 . S
C1600 C1601 1.397 . S
C1600 C1605 1.363 . S
C1601 H1572 0.950 . S
C1601 C1600 1.397 . S
C1601 C1602 1.334 . S
C1602 H1573 0.950 . S
C1602 C1601 1.334 . S
C1602 C1603 1.287 . S
C1603 C1602 1.287 . S
C1603 C1604 1.524 . S
C1603 H1606 0.999 . S
C1604 H1574 0.950 . S
C1604 C1603 1.524 . S
C1604 C1605 1.415 . S
C1605 H1575 0.950 . S
C1605 C1600 1.363 . S
C1605 C1604 1.415 . S
H1606 C1603 0.999 . S
H1607 C1588 0.913 . S
H1608 C1626 0.951 . S
H1609 C1628 0.951 . S
H1610 C1630 0.950 . S
H1611 C1631 0.950 . S
H1612 C1633 0.950 . S
H1613 C1636 0.950 . S
H1614 C1637 0.950 . S
H1615 C1639 0.950 . S
H1616 C1640 0.950 . S
H1617 C1641 0.951 . S
H1618 C1643 0.951 . S
H1619 C1645 0.950 . S
H1620 C1646 0.950 . S
H1621 C1648 0.950 . S
H1622 C1651 0.967 . S
H1623 C1652 0.950 1_556 S
H1624 C1654 0.950 . S
H1625 C1655 0.950 . S
C1626 H1608 0.951 . S
C1626 C1627 1.366 . S
C1626 C1628 1.388 . S
C1627 C1626 1.366 . S
C1627 C1631 1.385 . S
C1628 H1609 0.951 . S
C1628 C1626 1.388 . S
C1628 C1629 1.366 . S
C1629 C1628 1.366 . S
C1629 C1630 1.414 . S
C1629 C1632 1.499 . S
C1630 H1610 0.950 . S
C1630 C1629 1.414 . S
C1630 C1631 1.374 . S
C1631 H1611 0.950 . S
C1631 C1627 1.385 . S
C1631 C1630 1.374 . S
C1632 C1629 1.499 . S
C1632 C1633 1.373 . S
C1632 C1634 1.389 . S
C1633 H1612 0.950 . S
C1633 C1632 1.373 . S
C1633 C1649 1.377 . S
C1634 C1632 1.389 . S
C1634 C1635 1.524 . S
C1634 C1648 1.377 . S
C1635 C1634 1.524 . S
C1635 C1636 1.397 . S
C1635 C1640 1.363 . S
C1636 H1613 0.950 . S
C1636 C1635 1.397 . S
C1636 C1637 1.334 . S
C1637 H1614 0.950 . S
C1637 C1636 1.334 . S
C1637 C1638 1.287 . S
C1638 C1637 1.287 . S
C1638 C1639 1.524 . S
C1638 H1657 0.913 . S
C1639 H1615 0.950 . S
C1639 C1638 1.524 . S
C1639 C1640 1.415 . S
C1640 H1616 0.950 . S
C1640 C1635 1.363 . S
C1640 C1639 1.415 . S
C1641 H1617 0.951 . S
C1641 C1642 1.366 . S
C1641 C1643 1.388 . S
C1642 C1641 1.366 . S
C1642 C1646 1.385 . S
C1643 H1618 0.951 . S
C1643 C1641 1.388 . S
C1643 C1644 1.366 . S
C1644 C1643 1.366 . S
C1644 C1645 1.414 . S
C1644 C1647 1.499 . S
C1645 H1619 0.950 . S
C1645 C1644 1.414 . S
C1645 C1646 1.374 . S
C1646 H1620 0.950 . S
C1646 C1642 1.385 . S
C1646 C1645 1.374 . S
C1647 C1644 1.499 . S
C1647 C1648 1.373 . S
C1647 C1649 1.389 . S
C1648 H1621 0.950 . S
C1648 C1634 1.377 . S
C1648 C1647 1.373 . S
C1649 C1633 1.377 . S
C1649 C1647 1.389 . S
C1649 C1650 1.524 . S
C1650 C1649 1.524 . S
C1650 C1651 1.397 . S
C1650 C1655 1.363 . S
C1651 H1622 0.967 . S
C1651 C1650 1.397 . S
C1651 C1652 1.334 . S
C1652 H1623 0.950 1_554 S
C1652 C1651 1.334 . S
C1652 C1653 1.287 . S
C1653 C1652 1.287 . S
C1653 C1654 1.524 . S
C1653 H1656 0.999 . S
C1654 H1624 0.950 . S
C1654 C1653 1.524 . S
C1654 C1655 1.415 . S
C1655 H1625 0.950 . S
C1655 C1650 1.363 . S
C1655 C1654 1.415 . S
H1656 C1653 0.999 . S
H1657 C1638 0.913 . S
H1658 C1676 0.986 . S
H1659 C1678 0.951 . S
H1660 C1680 0.950 . S
H1661 C1681 0.950 . S
H1662 C1683 0.950 . S
H1663 C1686 0.966 . S
H1664 C1687 0.950 1_455 S
H1665 C1689 0.950 . S
H1666 C1690 0.950 . S
H1667 C1691 0.986 . S
H1668 C1693 0.951 . S
H1669 C1695 0.950 . S
H1670 C1696 0.950 . S
H1671 C1698 0.950 . S
H1672 C1701 0.966 . S
H1673 C1702 0.950 1_655 S
H1674 C1704 0.950 . S
H1675 C1705 0.950 . S
C1676 H1658 0.986 . S
C1676 C1677 1.342 1_655 S
C1676 C1678 1.377 . S
C1677 C1676 1.342 1_455 S
C1677 C1681 1.385 . S
C1678 H1659 0.951 . S
C1678 C1676 1.377 . S
C1678 C1679 1.366 1_655 S
C1679 C1678 1.366 1_455 S
C1679 C1680 1.414 . S
C1679 C1682 1.499 . S
C1680 H1660 0.950 . S
C1680 C1679 1.414 . S
C1680 C1681 1.374 . S
C1681 H1661 0.950 . S
C1681 C1677 1.385 . S
C1681 C1680 1.374 . S
C1682 C1679 1.499 . S
C1682 C1683 1.373 . S
C1682 C1684 1.389 1_455 S
C1683 H1662 0.950 . S
C1683 C1682 1.373 . S
C1683 C1699 1.377 . S
C1684 C1682 1.389 1_655 S
C1684 C1685 1.524 . S
C1684 C1698 1.377 . S
C1685 C1684 1.524 . S
C1685 C1686 1.389 1_655 S
C1685 C1690 1.363 . S
C1686 H1663 0.966 . S
C1686 C1685 1.389 1_455 S
C1686 C1687 1.325 1_455 S
C1687 H1664 0.950 1_655 S
C1687 C1686 1.325 1_655 S
C1687 C1688 1.287 . S
C1688 C1687 1.287 . S
C1688 C1689 1.524 . S
C1688 H1707 0.913 . S
C1689 H1665 0.950 . S
C1689 C1688 1.524 . S
C1689 C1690 1.415 . S
C1690 H1666 0.950 . S
C1690 C1685 1.363 . S
C1690 C1689 1.415 . S
C1691 H1667 0.986 . S
C1691 C1692 1.342 1_455 S
C1691 C1693 1.377 . S
C1692 C1691 1.342 1_655 S
C1692 C1696 1.385 . S
C1693 H1668 0.951 . S
C1693 C1691 1.377 . S
C1693 C1694 1.366 1_455 S
C1694 C1693 1.366 1_655 S
C1694 C1695 1.414 . S
C1694 C1697 1.499 . S
C1695 H1669 0.950 . S
C1695 C1694 1.414 . S
C1695 C1696 1.374 . S
C1696 H1670 0.950 . S
C1696 C1692 1.385 . S
C1696 C1695 1.374 . S
C1697 C1694 1.499 . S
C1697 C1698 1.373 . S
C1697 C1699 1.389 1_655 S
C1698 H1671 0.950 . S
C1698 C1684 1.377 . S
C1698 C1697 1.373 . S
C1699 C1683 1.377 . S
C1699 C1697 1.389 1_455 S
C1699 C1700 1.524 . S
C1700 C1699 1.524 . S
C1700 C1701 1.389 1_455 S
C1700 C1705 1.363 . S
C1701 H1672 0.966 . S
C1701 C1700 1.389 1_655 S
C1701 C1702 1.325 1_655 S
C1702 H1673 0.950 1_455 S
C1702 C1701 1.325 1_455 S
C1702 C1703 1.287 . S
C1703 C1702 1.287 . S
C1703 C1704 1.524 . S
C1703 H1706 0.999 . S
C1704 H1674 0.950 . S
C1704 C1703 1.524 . S
C1704 C1705 1.415 . S
C1705 H1675 0.950 . S
C1705 C1700 1.363 . S
C1705 C1704 1.415 . S
H1706 C1703 0.999 . S
H1707 C1688 0.913 . S
H1708 C1726 0.952 . S
H1709 C1728 0.951 . S
H1710 C1730 0.950 . S
H1711 C1731 0.950 . S
H1712 C1733 0.950 . S
H1713 C1736 0.950 . S
H1714 C1737 0.950 . S
H1715 C1739 0.950 . S
H1716 C1740 0.950 . S
H1717 C1741 0.952 . S
H1718 C1743 0.951 . S
H1719 C1745 0.950 . S
H1720 C1746 0.950 . S
H1721 C1748 0.950 . S
H1722 C1751 0.950 . S
H1723 C1752 0.950 . S
H1724 C1754 0.950 . S
H1725 C1755 0.950 . S
C1726 H1708 0.952 . S
C1726 C1727 1.362 1_545 S
C1726 C1728 1.391 . S
C1727 C1726 1.362 1_565 S
C1727 C1731 1.385 . S
C1728 H1709 0.951 . S
C1728 C1726 1.391 . S
C1728 C1729 1.366 1_545 S
C1729 C1728 1.366 1_565 S
C1729 C1730 1.414 . S
C1729 C1732 1.499 . S
C1730 H1710 0.950 . S
C1730 C1729 1.414 . S
C1730 C1731 1.374 . S
C1731 H1711 0.950 . S
C1731 C1727 1.385 . S
C1731 C1730 1.374 . S
C1732 C1729 1.499 . S
C1732 C1733 1.373 . S
C1732 C1734 1.389 1_565 S
C1733 H1712 0.950 . S
C1733 C1732 1.373 . S
C1733 C1749 1.377 . S
C1734 C1732 1.389 1_545 S
C1734 C1735 1.524 . S
C1734 C1748 1.377 . S
C1735 C1734 1.524 . S
C1735 C1736 1.397 . S
C1735 C1740 1.363 . S
C1736 H1713 0.950 . S
C1736 C1735 1.397 . S
C1736 C1737 1.334 . S
C1737 H1714 0.950 . S
C1737 C1736 1.334 . S
C1737 C1738 1.287 . S
C1738 C1737 1.287 . S
C1738 C1739 1.524 . S
C1738 H1757 0.913 . S
C1739 H1715 0.950 . S
C1739 C1738 1.524 . S
C1739 C1740 1.415 . S
C1740 H1716 0.950 . S
C1740 C1735 1.363 . S
C1740 C1739 1.415 . S
C1741 H1717 0.952 . S
C1741 C1742 1.362 1_565 S
C1741 C1743 1.391 . S
C1742 C1741 1.362 1_545 S
C1742 C1746 1.385 . S
C1743 H1718 0.951 . S
C1743 C1741 1.391 . S
C1743 C1744 1.366 1_565 S
C1744 C1743 1.366 1_545 S
C1744 C1745 1.414 . S
C1744 C1747 1.499 . S
C1745 H1719 0.950 . S
C1745 C1744 1.414 . S
C1745 C1746 1.374 . S
C1746 H1720 0.950 . S
C1746 C1742 1.385 . S
C1746 C1745 1.374 . S
C1747 C1744 1.499 . S
C1747 C1748 1.373 . S
C1747 C1749 1.389 1_545 S
C1748 H1721 0.950 . S
C1748 C1734 1.377 . S
C1748 C1747 1.373 . S
C1749 C1733 1.377 . S
C1749 C1747 1.389 1_565 S
C1749 C1750 1.524 . S
C1750 C1749 1.524 . S
C1750 C1751 1.397 . S
C1750 C1755 1.363 . S
C1751 H1722 0.950 . S
C1751 C1750 1.397 . S
C1751 C1752 1.334 . S
C1752 H1723 0.950 . S
C1752 C1751 1.334 . S
C1752 C1753 1.287 . S
C1753 C1752 1.287 . S
C1753 C1754 1.524 . S
C1753 H1756 0.999 . S
C1754 H1724 0.950 . S
C1754 C1753 1.524 . S
C1754 C1755 1.415 . S
C1755 H1725 0.950 . S
C1755 C1750 1.363 . S
C1755 C1754 1.415 . S
H1756 C1753 0.999 . S
H1757 C1738 0.913 . S
H1758 C1776 0.951 . S
H1759 C1778 0.951 . S
H1760 C1780 0.950 . S
H1761 C1781 0.950 . S
H1762 C1783 0.950 . S
H1763 C1786 0.950 . S
H1764 C1787 0.950 . S
H1765 C1789 0.950 . S
H1766 C1790 0.950 . S
H1767 C1791 0.951 . S
H1768 C1793 0.951 . S
H1769 C1795 0.950 . S
H1770 C1796 0.950 . S
H1771 C1798 0.950 . S
H1772 C1801 0.950 . S
H1773 C1802 0.950 . S
H1774 C1804 0.950 . S
H1775 C1805 0.950 . S
C1776 H1758 0.951 . S
C1776 C1777 1.366 . S
C1776 C1778 1.388 . S
C1777 C1776 1.366 . S
C1777 C1781 1.385 . S
C1778 H1759 0.951 . S
C1778 C1776 1.388 . S
C1778 C1779 1.366 . S
C1779 C1778 1.366 . S
C1779 C1780 1.414 . S
C1779 C1782 1.499 . S
C1780 H1760 0.950 . S
C1780 C1779 1.414 . S
C1780 C1781 1.374 . S
C1781 H1761 0.950 . S
C1781 C1777 1.385 . S
C1781 C1780 1.374 . S
C1782 C1779 1.499 . S
C1782 C1783 1.373 . S
C1782 C1784 1.389 . S
C1783 H1762 0.950 . S
C1783 C1782 1.373 . S
C1783 C1799 1.377 . S
C1784 C1782 1.389 . S
C1784 C1785 1.524 . S
C1784 C1798 1.377 . S
C1785 C1784 1.524 . S
C1785 C1786 1.397 . S
C1785 C1790 1.363 . S
C1786 H1763 0.950 . S
C1786 C1785 1.397 . S
C1786 C1787 1.334 . S
C1787 H1764 0.950 . S
C1787 C1786 1.334 . S
C1787 C1788 1.287 . S
C1788 C1787 1.287 . S
C1788 C1789 1.524 . S
C1788 H1807 0.913 . S
C1789 H1765 0.950 . S
C1789 C1788 1.524 . S
C1789 C1790 1.415 . S
C1790 H1766 0.950 . S
C1790 C1785 1.363 . S
C1790 C1789 1.415 . S
C1791 H1767 0.951 . S
C1791 C1792 1.366 . S
C1791 C1793 1.388 . S
C1792 C1791 1.366 . S
C1792 C1796 1.385 . S
C1793 H1768 0.951 . S
C1793 C1791 1.388 . S
C1793 C1794 1.366 . S
C1794 C1793 1.366 . S
C1794 C1795 1.414 . S
C1794 C1797 1.499 . S
C1795 H1769 0.950 . S
C1795 C1794 1.414 . S
C1795 C1796 1.374 . S
C1796 H1770 0.950 . S
C1796 C1792 1.385 . S
C1796 C1795 1.374 . S
C1797 C1794 1.499 . S
C1797 C1798 1.373 . S
C1797 C1799 1.389 . S
C1798 H1771 0.950 . S
C1798 C1784 1.377 . S
C1798 C1797 1.373 . S
C1799 C1783 1.377 . S
C1799 C1797 1.389 . S
C1799 C1800 1.524 . S
C1800 C1799 1.524 . S
C1800 C1801 1.397 . S
C1800 C1805 1.363 . S
C1801 H1772 0.950 . S
C1801 C1800 1.397 . S
C1801 C1802 1.334 . S
C1802 H1773 0.950 . S
C1802 C1801 1.334 . S
C1802 C1803 1.287 . S
C1803 C1802 1.287 . S
C1803 C1804 1.524 . S
C1803 H1806 0.999 . S
C1804 H1774 0.950 . S
C1804 C1803 1.524 . S
C1804 C1805 1.415 . S
C1805 H1775 0.950 . S
C1805 C1800 1.363 . S
C1805 C1804 1.415 . S
H1806 C1803 0.999 . S
H1807 C1788 0.913 . S
H1808 C1826 0.951 . S
H1809 C1828 0.951 . S
H1810 C1830 0.950 . S
H1811 C1831 0.950 1_455 S
H1812 C1833 0.950 . S
H1813 C1836 0.950 . S
H1814 C1837 0.950 . S
H1815 C1839 0.950 . S
H1816 C1840 0.950 . S
H1817 C1841 0.951 . S
H1818 C1843 0.951 . S
H1819 C1845 0.950 . S
H1820 C1846 0.950 1_655 S
H1821 C1848 0.950 . S
H1822 C1851 0.950 . S
H1823 C1852 0.950 . S
H1824 C1854 0.950 . S
H1825 C1855 0.950 . S
C1826 H1808 0.951 . S
C1826 C1827 1.366 . S
C1826 C1828 1.388 . S
C1827 C1826 1.366 . S
C1827 C1831 1.385 . S
C1828 H1809 0.951 . S
C1828 C1826 1.388 . S
C1828 C1829 1.366 . S
C1829 C1828 1.366 . S
C1829 C1830 1.414 1_655 S
C1829 C1832 1.499 . S
C1830 H1810 0.950 . S
C1830 C1829 1.414 1_455 S
C1830 C1831 1.374 1_455 S
C1831 H1811 0.950 1_655 S
C1831 C1827 1.385 . S
C1831 C1830 1.374 1_655 S
C1832 C1829 1.499 . S
C1832 C1833 1.373 1_655 S
C1832 C1834 1.389 . S
C1833 H1812 0.950 . S
C1833 C1832 1.373 1_455 S
C1833 C1849 1.377 . S
C1834 C1832 1.389 . S
C1834 C1835 1.524 1_556 S
C1834 C1848 1.377 . S
C1835 C1834 1.524 1_554 S
C1835 C1836 1.397 1_655 S
C1835 C1840 1.363 . S
C1836 H1813 0.950 . S
C1836 C1835 1.397 1_455 S
C1836 C1837 1.334 . S
C1837 H1814 0.950 . S
C1837 C1836 1.334 . S
C1837 C1838 1.287 1_455 S
C1838 C1837 1.287 1_655 S
C1838 C1839 1.524 . S
C1838 H1857 0.913 . S
C1839 H1815 0.950 . S
C1839 C1838 1.524 . S
C1839 C1840 1.415 . S
C1840 H1816 0.950 . S
C1840 C1835 1.363 . S
C1840 C1839 1.415 . S
C1841 H1817 0.951 . S
C1841 C1842 1.366 . S
C1841 C1843 1.388 . S
C1842 C1841 1.366 . S
C1842 C1846 1.385 . S
C1843 H1818 0.951 . S
C1843 C1841 1.388 . S
C1843 C1844 1.366 . S
C1844 C1843 1.366 . S
C1844 C1845 1.414 1_455 S
C1844 C1847 1.499 . S
C1845 H1819 0.950 . S
C1845 C1844 1.414 1_655 S
C1845 C1846 1.374 1_655 S
C1846 H1820 0.950 1_455 S
C1846 C1842 1.385 . S
C1846 C1845 1.374 1_455 S
C1847 C1844 1.499 . S
C1847 C1848 1.373 1_455 S
C1847 C1849 1.389 . S
C1848 H1821 0.950 . S
C1848 C1834 1.377 . S
C1848 C1847 1.373 1_655 S
C1849 C1833 1.377 . S
C1849 C1847 1.389 . S
C1849 C1850 1.524 . S
C1850 C1849 1.524 . S
C1850 C1851 1.397 1_455 S
C1850 C1855 1.363 . S
C1851 H1822 0.950 . S
C1851 C1850 1.397 1_655 S
C1851 C1852 1.334 . S
C1852 H1823 0.950 . S
C1852 C1851 1.334 . S
C1852 C1853 1.287 1_655 S
C1853 C1852 1.287 1_455 S
C1853 C1854 1.524 . S
C1853 H1856 0.999 . S
C1854 H1824 0.950 . S
C1854 C1853 1.524 . S
C1854 C1855 1.415 . S
C1855 H1825 0.950 . S
C1855 C1850 1.363 . S
C1855 C1854 1.415 . S
H1856 C1853 0.999 . S
H1857 C1838 0.913 . S
H1858 C1876 0.951 . S
H1859 C1878 0.951 . S
H1860 C1880 0.950 . S
H1861 C1881 0.950 1_565 S
H1862 C1883 0.944 . S
H1863 C1886 0.950 . S
H1864 C1887 0.950 . S
H1865 C1889 0.950 . S
H1866 C1890 0.950 . S
H1867 C1891 0.951 . S
H1868 C1893 0.951 . S
H1869 C1895 0.950 . S
H1870 C1896 0.950 1_545 S
H1871 C1898 0.944 . S
H1872 C1901 0.950 . S
H1873 C1902 0.950 . S
H1874 C1904 0.950 . S
H1875 C1905 0.950 . S
C1876 H1858 0.951 . S
C1876 C1877 1.366 . S
C1876 C1878 1.388 . S
C1877 C1876 1.366 . S
C1877 C1881 1.385 . S
C1878 H1859 0.951 . S
C1878 C1876 1.388 . S
C1878 C1879 1.366 . S
C1879 C1878 1.366 . S
C1879 C1880 1.414 1_545 S
C1879 C1882 1.499 . S
C1880 H1860 0.950 . S
C1880 C1879 1.414 1_565 S
C1880 C1881 1.374 1_565 S
C1881 H1861 0.950 1_545 S
C1881 C1877 1.385 . S
C1881 C1880 1.374 1_545 S
C1882 C1879 1.499 . S
C1882 C1883 1.374 1_545 S
C1882 C1884 1.389 . S
C1883 H1862 0.944 . S
C1883 C1882 1.374 1_565 S
C1883 C1899 1.373 . S
C1884 C1882 1.389 . S
C1884 C1885 1.524 . S
C1884 C1898 1.373 . S
C1885 C1884 1.524 . S
C1885 C1886 1.397 1_545 S
C1885 C1890 1.363 . S
C1886 H1863 0.950 . S
C1886 C1885 1.397 1_565 S
C1886 C1887 1.334 . S
C1887 H1864 0.950 . S
C1887 C1886 1.334 . S
C1887 C1888 1.287 1_565 S
C1888 C1887 1.287 1_545 S
C1888 C1889 1.524 . S
C1888 H1907 0.913 . S
C1889 H1865 0.950 . S
C1889 C1888 1.524 . S
C1889 C1890 1.415 . S
C1890 H1866 0.950 . S
C1890 C1885 1.363 . S
C1890 C1889 1.415 . S
C1891 H1867 0.951 . S
C1891 C1892 1.366 . S
C1891 C1893 1.388 . S
C1892 C1891 1.366 . S
C1892 C1896 1.385 . S
C1893 H1868 0.951 . S
C1893 C1891 1.388 . S
C1893 C1894 1.366 . S
C1894 C1893 1.366 . S
C1894 C1895 1.414 1_565 S
C1894 C1897 1.499 . S
C1895 H1869 0.950 . S
C1895 C1894 1.414 1_545 S
C1895 C1896 1.374 1_545 S
C1896 H1870 0.950 1_565 S
C1896 C1892 1.385 . S
C1896 C1895 1.374 1_565 S
C1897 C1894 1.499 . S
C1897 C1898 1.374 1_565 S
C1897 C1899 1.389 . S
C1898 H1871 0.944 . S
C1898 C1884 1.373 . S
C1898 C1897 1.374 1_545 S
C1899 C1883 1.373 . S
C1899 C1897 1.389 . S
C1899 C1900 1.524 . S
C1900 C1899 1.524 . S
C1900 C1901 1.397 1_565 S
C1900 C1905 1.363 . S
C1901 H1872 0.950 . S
C1901 C1900 1.397 1_545 S
C1901 C1902 1.334 . S
C1902 H1873 0.950 . S
C1902 C1901 1.334 . S
C1902 C1903 1.287 1_545 S
C1903 C1902 1.287 1_565 S
C1903 C1904 1.524 . S
C1903 H1906 0.999 . S
C1904 H1874 0.950 . S
C1904 C1903 1.524 . S
C1904 C1905 1.415 . S
C1905 H1875 0.950 . S
C1905 C1900 1.363 . S
C1905 C1904 1.415 . S
H1906 C1903 0.999 . S
H1907 C1888 0.913 . S
C727 C3 1.608 . S
C742 C534 1.607 . S
C777 C62 1.608 . S
C792 C593 1.607 . S
C827 C121 1.607 . S
C842 C652 1.608 . S
C877 C180 1.607 . S
C892 C357 1.608 . S
C927 C416 1.607 . S
C942 C239 1.608 . S
C977 C475 1.608 . S
C992 C298 1.607 . S
C1027 C595 1.621 . S
C1042 C5 1.621 . S
C1077 C64 1.621 . S
C1092 C654 1.621 . S
C1127 C123 1.621 . S
C1142 C359 1.621 . S
C1177 C182 1.621 . S
C1192 C418 1.621 . S
C1227 C241 1.621 . S
C1242 C477 1.621 . S
C1277 C300 1.621 . S
C1292 C536 1.621 . S
C1327 C564 0.673 . S
C1342 C33 0.674 . S
C1377 C92 0.673 . S
C1392 C623 0.673 . S
C1427 C151 0.673 . S
C1442 C682 0.674 . S
C1477 C387 0.674 . S
C1492 C210 0.674 . S
C1527 C269 0.673 . S
C1542 C446 0.673 . S
C1577 C505 0.673 . S
C1592 C328 0.673 . S
C1627 C52 1.616 . S
C1642 C229 1.616 . S
C1677 C288 1.616 . S
C1692 C111 1.616 . S
C1727 C170 1.616 . S
C1742 C347 1.616 . S
C1777 C406 1.616 . S
C1792 C583 1.616 . S
C1827 C465 1.616 . S
C1842 C642 1.616 . S
C1877 C701 1.616 . S
C1892 C524 1.616 . S
